# Generated by pormake.
# Topology wna, (6)-cn, num edge types: 1
# Building blocks:
#     Node 0, Type 0, BuildingBlock: BETFEN_clean_sbu_0, # of connection points: 6
#     Node 1, Type 0, BuildingBlock: BETFEN_clean_sbu_0, # of connection points: 6
#     Node 2, Type 0, BuildingBlock: BETFEN_clean_sbu_0, # of connection points: 6
#     Node 3, Type 0, BuildingBlock: BETFEN_clean_sbu_0, # of connection points: 6
#     Node 4, Type 0, BuildingBlock: BETFEN_clean_sbu_0, # of connection points: 6
#     Node 5, Type 0, BuildingBlock: BETFEN_clean_sbu_0, # of connection points: 6
#     Node 6, Type 0, BuildingBlock: BETFEN_clean_sbu_0, # of connection points: 6
#     Node 7, Type 0, BuildingBlock: BETFEN_clean_sbu_0, # of connection points: 6
#     Node 8, Type 0, BuildingBlock: BETFEN_clean_sbu_0, # of connection points: 6
#     Node 9, Type 0, BuildingBlock: BETFEN_clean_sbu_0, # of connection points: 6
#     Node 10, Type 0, BuildingBlock: BETFEN_clean_sbu_0, # of connection points: 6
#     Node 11, Type 0, BuildingBlock: BETFEN_clean_sbu_0, # of connection points: 6
#     Node 12, Type 0, BuildingBlock: BETFEN_clean_sbu_0, # of connection points: 6
#     Node 13, Type 0, BuildingBlock: BETFEN_clean_sbu_0, # of connection points: 6
#     Node 14, Type 0, BuildingBlock: BETFEN_clean_sbu_0, # of connection points: 6
#     Node 15, Type 0, BuildingBlock: BETFEN_clean_sbu_0, # of connection points: 6
#     Node 16, Type 0, BuildingBlock: BETFEN_clean_sbu_0, # of connection points: 6
#     Node 17, Type 0, BuildingBlock: BETFEN_clean_sbu_0, # of connection points: 6
#     Node 18, Type 0, BuildingBlock: BETFEN_clean_sbu_0, # of connection points: 6
#     Node 19, Type 0, BuildingBlock: BETFEN_clean_sbu_0, # of connection points: 6
#     Node 20, Type 0, BuildingBlock: BETFEN_clean_sbu_0, # of connection points: 6
#     Node 21, Type 0, BuildingBlock: BETFEN_clean_sbu_0, # of connection points: 6
#     Node 22, Type 0, BuildingBlock: BETFEN_clean_sbu_0, # of connection points: 6
#     Node 23, Type 0, BuildingBlock: BETFEN_clean_sbu_0, # of connection points: 6
#     Node 24, Type 0, BuildingBlock: BETFEN_clean_sbu_0, # of connection points: 6
#     Node 25, Type 0, BuildingBlock: BETFEN_clean_sbu_0, # of connection points: 6
#     Node 26, Type 0, BuildingBlock: BETFEN_clean_sbu_0, # of connection points: 6
#     Node 27, Type 0, BuildingBlock: BETFEN_clean_sbu_0, # of connection points: 6
#     Node 28, Type 0, BuildingBlock: BETFEN_clean_sbu_0, # of connection points: 6
#     Node 29, Type 0, BuildingBlock: BETFEN_clean_sbu_0, # of connection points: 6
#     Node 30, Type 0, BuildingBlock: BETFEN_clean_sbu_0, # of connection points: 6
#     Node 31, Type 0, BuildingBlock: BETFEN_clean_sbu_0, # of connection points: 6
#     Node 32, Type 0, BuildingBlock: BETFEN_clean_sbu_0, # of connection points: 6
#     Node 33, Type 0, BuildingBlock: BETFEN_clean_sbu_0, # of connection points: 6
#     Node 34, Type 0, BuildingBlock: BETFEN_clean_sbu_0, # of connection points: 6
#     Node 35, Type 0, BuildingBlock: BETFEN_clean_sbu_0, # of connection points: 6
#     Edge 36, Type (0, 0), BuildingBlock: ZUJKAS_clean_linker_0, # of connection points: 2
#     Edge 37, Type (0, 0), BuildingBlock: ZUJKAS_clean_linker_0, # of connection points: 2
#     Edge 38, Type (0, 0), BuildingBlock: ZUJKAS_clean_linker_0, # of connection points: 2
#     Edge 39, Type (0, 0), BuildingBlock: ZUJKAS_clean_linker_0, # of connection points: 2
#     Edge 40, Type (0, 0), BuildingBlock: ZUJKAS_clean_linker_0, # of connection points: 2
#     Edge 41, Type (0, 0), BuildingBlock: ZUJKAS_clean_linker_0, # of connection points: 2
#     Edge 42, Type (0, 0), BuildingBlock: ZUJKAS_clean_linker_0, # of connection points: 2
#     Edge 43, Type (0, 0), BuildingBlock: ZUJKAS_clean_linker_0, # of connection points: 2
#     Edge 44, Type (0, 0), BuildingBlock: ZUJKAS_clean_linker_0, # of connection points: 2
#     Edge 45, Type (0, 0), BuildingBlock: ZUJKAS_clean_linker_0, # of connection points: 2
#     Edge 46, Type (0, 0), BuildingBlock: ZUJKAS_clean_linker_0, # of connection points: 2
#     Edge 47, Type (0, 0), BuildingBlock: ZUJKAS_clean_linker_0, # of connection points: 2
#     Edge 48, Type (0, 0), BuildingBlock: ZUJKAS_clean_linker_0, # of connection points: 2
#     Edge 49, Type (0, 0), BuildingBlock: ZUJKAS_clean_linker_0, # of connection points: 2
#     Edge 50, Type (0, 0), BuildingBlock: ZUJKAS_clean_linker_0, # of connection points: 2
#     Edge 51, Type (0, 0), BuildingBlock: ZUJKAS_clean_linker_0, # of connection points: 2
#     Edge 52, Type (0, 0), BuildingBlock: ZUJKAS_clean_linker_0, # of connection points: 2
#     Edge 53, Type (0, 0), BuildingBlock: ZUJKAS_clean_linker_0, # of connection points: 2
#     Edge 54, Type (0, 0), BuildingBlock: ZUJKAS_clean_linker_0, # of connection points: 2
#     Edge 55, Type (0, 0), BuildingBlock: ZUJKAS_clean_linker_0, # of connection points: 2
#     Edge 56, Type (0, 0), BuildingBlock: ZUJKAS_clean_linker_0, # of connection points: 2
#     Edge 57, Type (0, 0), BuildingBlock: ZUJKAS_clean_linker_0, # of connection points: 2
#     Edge 58, Type (0, 0), BuildingBlock: ZUJKAS_clean_linker_0, # of connection points: 2
#     Edge 59, Type (0, 0), BuildingBlock: ZUJKAS_clean_linker_0, # of connection points: 2
#     Edge 60, Type (0, 0), BuildingBlock: ZUJKAS_clean_linker_0, # of connection points: 2
#     Edge 61, Type (0, 0), BuildingBlock: ZUJKAS_clean_linker_0, # of connection points: 2
#     Edge 62, Type (0, 0), BuildingBlock: ZUJKAS_clean_linker_0, # of connection points: 2
#     Edge 63, Type (0, 0), BuildingBlock: ZUJKAS_clean_linker_0, # of connection points: 2
#     Edge 64, Type (0, 0), BuildingBlock: ZUJKAS_clean_linker_0, # of connection points: 2
#     Edge 65, Type (0, 0), BuildingBlock: ZUJKAS_clean_linker_0, # of connection points: 2
#     Edge 66, Type (0, 0), BuildingBlock: ZUJKAS_clean_linker_0, # of connection points: 2
#     Edge 67, Type (0, 0), BuildingBlock: ZUJKAS_clean_linker_0, # of connection points: 2
#     Edge 68, Type (0, 0), BuildingBlock: ZUJKAS_clean_linker_0, # of connection points: 2
#     Edge 69, Type (0, 0), BuildingBlock: ZUJKAS_clean_linker_0, # of connection points: 2
#     Edge 70, Type (0, 0), BuildingBlock: ZUJKAS_clean_linker_0, # of connection points: 2
#     Edge 71, Type (0, 0), BuildingBlock: ZUJKAS_clean_linker_0, # of connection points: 2
#     Edge 72, Type (0, 0), BuildingBlock: ZUJKAS_clean_linker_0, # of connection points: 2
#     Edge 73, Type (0, 0), BuildingBlock: ZUJKAS_clean_linker_0, # of connection points: 2
#     Edge 74, Type (0, 0), BuildingBlock: ZUJKAS_clean_linker_0, # of connection points: 2
#     Edge 75, Type (0, 0), BuildingBlock: ZUJKAS_clean_linker_0, # of connection points: 2
#     Edge 76, Type (0, 0), BuildingBlock: ZUJKAS_clean_linker_0, # of connection points: 2
#     Edge 77, Type (0, 0), BuildingBlock: ZUJKAS_clean_linker_0, # of connection points: 2
#     Edge 78, Type (0, 0), BuildingBlock: ZUJKAS_clean_linker_0, # of connection points: 2
#     Edge 79, Type (0, 0), BuildingBlock: ZUJKAS_clean_linker_0, # of connection points: 2
#     Edge 80, Type (0, 0), BuildingBlock: ZUJKAS_clean_linker_0, # of connection points: 2
#     Edge 81, Type (0, 0), BuildingBlock: ZUJKAS_clean_linker_0, # of connection points: 2
#     Edge 82, Type (0, 0), BuildingBlock: ZUJKAS_clean_linker_0, # of connection points: 2
#     Edge 83, Type (0, 0), BuildingBlock: ZUJKAS_clean_linker_0, # of connection points: 2
#     Edge 84, Type (0, 0), BuildingBlock: ZUJKAS_clean_linker_0, # of connection points: 2
#     Edge 85, Type (0, 0), BuildingBlock: ZUJKAS_clean_linker_0, # of connection points: 2
#     Edge 86, Type (0, 0), BuildingBlock: ZUJKAS_clean_linker_0, # of connection points: 2
#     Edge 87, Type (0, 0), BuildingBlock: ZUJKAS_clean_linker_0, # of connection points: 2
#     Edge 88, Type (0, 0), BuildingBlock: ZUJKAS_clean_linker_0, # of connection points: 2
#     Edge 89, Type (0, 0), BuildingBlock: ZUJKAS_clean_linker_0, # of connection points: 2
#     Edge 90, Type (0, 0), BuildingBlock: ZUJKAS_clean_linker_0, # of connection points: 2
#     Edge 91, Type (0, 0), BuildingBlock: ZUJKAS_clean_linker_0, # of connection points: 2
#     Edge 92, Type (0, 0), BuildingBlock: ZUJKAS_clean_linker_0, # of connection points: 2
#     Edge 93, Type (0, 0), BuildingBlock: ZUJKAS_clean_linker_0, # of connection points: 2
#     Edge 94, Type (0, 0), BuildingBlock: ZUJKAS_clean_linker_0, # of connection points: 2
#     Edge 95, Type (0, 0), BuildingBlock: ZUJKAS_clean_linker_0, # of connection points: 2
#     Edge 96, Type (0, 0), BuildingBlock: ZUJKAS_clean_linker_0, # of connection points: 2
#     Edge 97, Type (0, 0), BuildingBlock: ZUJKAS_clean_linker_0, # of connection points: 2
#     Edge 98, Type (0, 0), BuildingBlock: ZUJKAS_clean_linker_0, # of connection points: 2
#     Edge 99, Type (0, 0), BuildingBlock: ZUJKAS_clean_linker_0, # of connection points: 2
#     Edge 100, Type (0, 0), BuildingBlock: ZUJKAS_clean_linker_0, # of connection points: 2
#     Edge 101, Type (0, 0), BuildingBlock: ZUJKAS_clean_linker_0, # of connection points: 2
#     Edge 102, Type (0, 0), BuildingBlock: ZUJKAS_clean_linker_0, # of connection points: 2
#     Edge 103, Type (0, 0), BuildingBlock: ZUJKAS_clean_linker_0, # of connection points: 2
#     Edge 104, Type (0, 0), BuildingBlock: ZUJKAS_clean_linker_0, # of connection points: 2
#     Edge 105, Type (0, 0), BuildingBlock: ZUJKAS_clean_linker_0, # of connection points: 2
#     Edge 106, Type (0, 0), BuildingBlock: ZUJKAS_clean_linker_0, # of connection points: 2
#     Edge 107, Type (0, 0), BuildingBlock: ZUJKAS_clean_linker_0, # of connection points: 2
#     Edge 108, Type (0, 0), BuildingBlock: ZUJKAS_clean_linker_0, # of connection points: 2
#     Edge 109, Type (0, 0), BuildingBlock: ZUJKAS_clean_linker_0, # of connection points: 2
#     Edge 110, Type (0, 0), BuildingBlock: ZUJKAS_clean_linker_0, # of connection points: 2
#     Edge 111, Type (0, 0), BuildingBlock: ZUJKAS_clean_linker_0, # of connection points: 2
#     Edge 112, Type (0, 0), BuildingBlock: ZUJKAS_clean_linker_0, # of connection points: 2
#     Edge 113, Type (0, 0), BuildingBlock: ZUJKAS_clean_linker_0, # of connection points: 2
#     Edge 114, Type (0, 0), BuildingBlock: ZUJKAS_clean_linker_0, # of connection points: 2
#     Edge 115, Type (0, 0), BuildingBlock: ZUJKAS_clean_linker_0, # of connection points: 2
#     Edge 116, Type (0, 0), BuildingBlock: ZUJKAS_clean_linker_0, # of connection points: 2
#     Edge 117, Type (0, 0), BuildingBlock: ZUJKAS_clean_linker_0, # of connection points: 2
#     Edge 118, Type (0, 0), BuildingBlock: ZUJKAS_clean_linker_0, # of connection points: 2
#     Edge 119, Type (0, 0), BuildingBlock: ZUJKAS_clean_linker_0, # of connection points: 2
#     Edge 120, Type (0, 0), BuildingBlock: ZUJKAS_clean_linker_0, # of connection points: 2
#     Edge 121, Type (0, 0), BuildingBlock: ZUJKAS_clean_linker_0, # of connection points: 2
#     Edge 122, Type (0, 0), BuildingBlock: ZUJKAS_clean_linker_0, # of connection points: 2
#     Edge 123, Type (0, 0), BuildingBlock: ZUJKAS_clean_linker_0, # of connection points: 2
#     Edge 124, Type (0, 0), BuildingBlock: ZUJKAS_clean_linker_0, # of connection points: 2
#     Edge 125, Type (0, 0), BuildingBlock: ZUJKAS_clean_linker_0, # of connection points: 2
#     Edge 126, Type (0, 0), BuildingBlock: ZUJKAS_clean_linker_0, # of connection points: 2
#     Edge 127, Type (0, 0), BuildingBlock: ZUJKAS_clean_linker_0, # of connection points: 2
#     Edge 128, Type (0, 0), BuildingBlock: ZUJKAS_clean_linker_0, # of connection points: 2
#     Edge 129, Type (0, 0), BuildingBlock: ZUJKAS_clean_linker_0, # of connection points: 2
#     Edge 130, Type (0, 0), BuildingBlock: ZUJKAS_clean_linker_0, # of connection points: 2
#     Edge 131, Type (0, 0), BuildingBlock: ZUJKAS_clean_linker_0, # of connection points: 2
#     Edge 132, Type (0, 0), BuildingBlock: ZUJKAS_clean_linker_0, # of connection points: 2
#     Edge 133, Type (0, 0), BuildingBlock: ZUJKAS_clean_linker_0, # of connection points: 2
#     Edge 134, Type (0, 0), BuildingBlock: ZUJKAS_clean_linker_0, # of connection points: 2
#     Edge 135, Type (0, 0), BuildingBlock: ZUJKAS_clean_linker_0, # of connection points: 2
#     Edge 136, Type (0, 0), BuildingBlock: ZUJKAS_clean_linker_0, # of connection points: 2
#     Edge 137, Type (0, 0), BuildingBlock: ZUJKAS_clean_linker_0, # of connection points: 2
#     Edge 138, Type (0, 0), BuildingBlock: ZUJKAS_clean_linker_0, # of connection points: 2
#     Edge 139, Type (0, 0), BuildingBlock: ZUJKAS_clean_linker_0, # of connection points: 2
#     Edge 140, Type (0, 0), BuildingBlock: ZUJKAS_clean_linker_0, # of connection points: 2
#     Edge 141, Type (0, 0), BuildingBlock: ZUJKAS_clean_linker_0, # of connection points: 2
#     Edge 142, Type (0, 0), BuildingBlock: ZUJKAS_clean_linker_0, # of connection points: 2
#     Edge 143, Type (0, 0), BuildingBlock: ZUJKAS_clean_linker_0, # of connection points: 2
# Relax obj value: 0.164
# Max RMSD: 0.222
# Mean RMSD: 0.207
data_MOF--net-wna--node1-BETFEN_clean_sbu_0--edge1-ZUJKAS_clean_linker_0
_symmetry_space_group_name_H-M    P1
_symmetry_Int_Tables_number       1
_symmetry_cell_setting            triclinic
loop_
_symmetry_equiv_pos_as_xyz
'x, y, z'
_cell_length_a     53.49734
_cell_length_b     53.46321
_cell_length_c     177.18851
_cell_angle_alpha  90.065558
_cell_angle_beta   89.966881
_cell_angle_gamma 119.99766
loop_
_atom_site_label
_atom_site_type_symbol
_atom_site_fract_x
_atom_site_fract_y
_atom_site_fract_z
_atom_type_partial_charge
Pr0 Pr 0.10597 0.24733 0.17119 0.0
Pr1 Pr 0.11257 0.24151 0.1893 0.0
C2 C 0.10176 0.26464 0.15715 0.0
C3 C 0.11434 0.27816 0.14978 0.0
C4 C 0.13208 0.27075 0.14561 0.0
C5 C 0.14014 0.28074 0.13818 0.0
C6 C 0.13041 0.29811 0.13476 0.0
C7 C 0.11362 0.30634 0.13908 0.0
C8 C 0.10571 0.29649 0.14649 0.0
C9 C 0.11497 0.20244 0.17557 0.0
C10 C 0.17182 0.28459 0.1792 0.0
C11 C 0.11728 0.22428 0.20326 0.0
C12 C 0.10264 0.21824 0.21068 0.0
C13 C 0.08925 0.2336 0.21321 0.0
C14 C 0.07583 0.22773 0.22031 0.0
C15 C 0.07542 0.20631 0.22503 0.0
C16 C 0.08863 0.19081 0.2224 0.0
C17 C 0.10207 0.19675 0.21532 0.0
C18 C 0.08926 0.27776 0.18641 0.0
C19 C 0.04979 0.19904 0.18073 0.0
O20 O 0.10679 0.28099 0.16312 0.0
O21 O 0.09871 0.2393 0.15866 0.0
O22 O 0.12709 0.22728 0.1786 0.0
O23 O 0.09936 0.20111 0.16978 0.0
O24 O 0.16076 0.27336 0.18588 0.0
O25 O 0.15594 0.2785 0.17298 0.0
O26 O 0.1032 0.20612 0.19778 0.0
O27 O 0.1315 0.25132 0.20106 0.0
O28 O 0.09674 0.26515 0.18172 0.0
O29 O 0.0937 0.27149 0.19316 0.0
O30 O 0.05787 0.21712 0.17494 0.0
O31 O 0.06776 0.20179 0.18621 0.0
H32 H 0.13896 0.25653 0.14799 0.0
H33 H 0.15297 0.27386 0.13502 0.0
H34 H 0.10614 0.32007 0.13668 0.0
H35 H 0.09194 0.30242 0.14957 0.0
H36 H 0.08928 0.25023 0.20972 0.0
H37 H 0.0662 0.24035 0.22214 0.0
H38 H 0.08834 0.17381 0.22578 0.0
H39 H 0.11209 0.18449 0.21347 0.0
Pr40 Pr 0.76005 0.859 0.17165 0.0
Pr41 Pr 0.76858 0.87473 0.18957 0.0
C42 C 0.73998 0.83511 0.15793 0.0
C43 C 0.72848 0.83628 0.1504 0.0
C44 C 0.74119 0.86148 0.14598 0.0
C45 C 0.73237 0.86078 0.13847 0.0
C46 C 0.7108 0.83482 0.13522 0.0
C47 C 0.69744 0.80996 0.13978 0.0
C48 C 0.70619 0.81071 0.14727 0.0
C49 C 0.80504 0.91402 0.17518 0.0
C50 C 0.72519 0.89069 0.1796 0.0
C51 C 0.78785 0.89781 0.20335 0.0
C52 C 0.79336 0.88886 0.21079 0.0
C53 C 0.7752 0.86103 0.21368 0.0
C54 C 0.78083 0.85306 0.22074 0.0
C55 C 0.80488 0.87265 0.22505 0.0
C56 C 0.82307 0.90044 0.22209 0.0
C57 C 0.81734 0.90843 0.21505 0.0
C58 C 0.73152 0.81463 0.18739 0.0
C59 C 0.8101 0.85365 0.18091 0.0
O60 O 0.72325 0.82866 0.16387 0.0
O61 O 0.76717 0.85342 0.15935 0.0
O62 O 0.78092 0.90144 0.17854 0.0
O63 O 0.80531 0.89919 0.16939 0.0
O64 O 0.73814 0.89264 0.18613 0.0
O65 O 0.72925 0.87848 0.17353 0.0
O66 O 0.80515 0.90003 0.19782 0.0
O67 O 0.76082 0.88664 0.20124 0.0
O68 O 0.74385 0.83384 0.18248 0.0
O69 O 0.73798 0.82674 0.19399 0.0
O70 O 0.79024 0.84117 0.17558 0.0
O71 O 0.80848 0.87064 0.18607 0.0
H72 H 0.75852 0.88151 0.14823 0.0
H73 H 0.74326 0.88031 0.13513 0.0
H74 H 0.68044 0.78972 0.13753 0.0
H75 H 0.69611 0.79096 0.15055 0.0
H76 H 0.75668 0.8454 0.21048 0.0
H77 H 0.76657 0.83138 0.22279 0.0
H78 H 0.84157 0.91621 0.22527 0.0
H79 H 0.83165 0.93 0.21294 0.0
Pr80 Pr 0.14914 0.90331 0.17174 0.0
Pr81 Pr 0.13745 0.89571 0.18976 0.0
C82 C 0.1697 0.90674 0.1576 0.0
C83 C 0.16861 0.89316 0.15018 0.0
C84 C 0.14648 0.8869 0.14494 0.0
C85 C 0.14809 0.87822 0.13756 0.0
C86 C 0.17193 0.87573 0.13523 0.0
C87 C 0.1935 0.88101 0.14057 0.0
C88 C 0.19189 0.88969 0.14794 0.0
C89 C 0.0954 0.89402 0.17634 0.0
C90 C 0.11997 0.83669 0.17947 0.0
C91 C 0.11669 0.89189 0.20385 0.0
C92 C 0.1258 0.90695 0.21128 0.0
C93 C 0.14627 0.905 0.21585 0.0
C94 C 0.15395 0.91869 0.22292 0.0
C95 C 0.14142 0.93473 0.22559 0.0
C96 C 0.12101 0.9367 0.221 0.0
C97 C 0.11325 0.92292 0.21395 0.0
C98 C 0.19697 0.91888 0.18676 0.0
C99 C 0.15783 0.95919 0.18148 0.0
O100 O 0.18001 0.90004 0.16349 0.0
O101 O 0.14928 0.91251 0.15929 0.0
O102 O 0.10802 0.88149 0.17916 0.0
O103 O 0.10977 0.91043 0.17067 0.0
O104 O 0.12043 0.84746 0.18625 0.0
O105 O 0.12942 0.85295 0.17331 0.0
O106 O 0.11214 0.90556 0.19836 0.0
O107 O 0.12878 0.87705 0.20157 0.0
O108 O 0.17691 0.91211 0.1821 0.0
O109 O 0.18611 0.91307 0.1935 0.0
O110 O 0.16771 0.95136 0.17561 0.0
O111 O 0.14278 0.94092 0.18692 0.0
H112 H 0.12836 0.88963 0.14644 0.0
H113 H 0.13119 0.87463 0.1336 0.0
H114 H 0.21194 0.87887 0.13904 0.0
H115 H 0.20941 0.8946 0.15181 0.0
H116 H 0.15638 0.89285 0.214 0.0
H117 H 0.16996 0.91693 0.22625 0.0
H118 H 0.11057 0.94847 0.2229 0.0
H119 H 0.09719 0.92459 0.21061 0.0
Pr120 Pr 0.24782 0.10375 0.35279 0.0
Pr121 Pr 0.24199 0.11118 0.3347 0.0
C122 C 0.26653 0.10037 0.36672 0.0
C123 C 0.27846 0.11386 0.37416 0.0
C124 C 0.26397 0.12355 0.37892 0.0
C125 C 0.27362 0.1325 0.38633 0.0
C126 C 0.29794 0.13194 0.38916 0.0
C127 C 0.31289 0.12312 0.38429 0.0
C128 C 0.30323 0.11415 0.3769 0.0
C129 C 0.20319 0.11336 0.3486 0.0
C130 C 0.28458 0.17011 0.34492 0.0
C131 C 0.22422 0.11551 0.32076 0.0
C132 C 0.21835 0.10062 0.31338 0.0
C133 C 0.23028 0.08327 0.3115 0.0
C134 C 0.2246 0.06947 0.30445 0.0
C135 C 0.20678 0.07266 0.29913 0.0
C136 C 0.19472 0.08994 0.30111 0.0
C137 C 0.20046 0.10374 0.30814 0.0
C138 C 0.27872 0.08834 0.3375 0.0
C139 C 0.2002 0.0478 0.3431 0.0
O140 O 0.28348 0.10899 0.3608 0.0
O141 O 0.2397 0.09267 0.36517 0.0
O142 O 0.22788 0.12529 0.34552 0.0
O143 O 0.202 0.09787 0.3544 0.0
O144 O 0.27349 0.15931 0.3382 0.0
O145 O 0.27838 0.15399 0.35109 0.0
O146 O 0.20633 0.10127 0.32627 0.0
O147 O 0.25127 0.13006 0.32293 0.0
O148 O 0.26553 0.09509 0.34219 0.0
O149 O 0.2733 0.09393 0.33078 0.0
O150 O 0.21838 0.05573 0.34887 0.0
O151 O 0.20267 0.066 0.33772 0.0
H152 H 0.24477 0.12355 0.37699 0.0
H153 H 0.26179 0.13955 0.38986 0.0
H154 H 0.33146 0.122 0.38627 0.0
H155 H 0.31461 0.10646 0.3734 0.0
H156 H 0.24411 0.08048 0.31546 0.0
H157 H 0.23455 0.05665 0.30313 0.0
H158 H 0.18051 0.09256 0.29725 0.0
H159 H 0.19086 0.11687 0.3095 0.0
Pr160 Pr 0.90435 0.14846 0.35229 0.0
Pr161 Pr 0.89925 0.13534 0.33433 0.0
C162 C 0.90611 0.16982 0.36627 0.0
C163 C 0.89287 0.16606 0.37389 0.0
C164 C 0.89979 0.15274 0.37973 0.0
C165 C 0.89081 0.15279 0.38716 0.0
C166 C 0.87475 0.16628 0.38898 0.0
C167 C 0.86712 0.17887 0.38309 0.0
C168 C 0.87615 0.17886 0.37566 0.0
C169 C 0.89573 0.09418 0.34838 0.0
C170 C 0.83867 0.11736 0.34393 0.0
C171 C 0.89685 0.11382 0.32041 0.0
C172 C 0.91179 0.12306 0.31301 0.0
C173 C 0.91557 0.14798 0.3093 0.0
C174 C 0.9292 0.15587 0.30224 0.0
C175 C 0.93956 0.13916 0.29874 0.0
C176 C 0.93594 0.11437 0.3025 0.0
C177 C 0.92216 0.10641 0.30953 0.0
C178 C 0.92122 0.19507 0.33695 0.0
C179 C 0.96157 0.15746 0.34314 0.0
O180 O 0.89442 0.17529 0.36046 0.0
O181 O 0.91793 0.15425 0.36454 0.0
O182 O 0.88406 0.10673 0.34507 0.0
O183 O 0.91018 0.10862 0.35429 0.0
O184 O 0.85055 0.11668 0.33743 0.0
O185 O 0.85415 0.12861 0.35017 0.0
O186 O 0.91133 0.11091 0.32598 0.0
O187 O 0.88081 0.1248 0.32252 0.0
O188 O 0.91408 0.1754 0.34174 0.0
O189 O 0.91631 0.18366 0.33027 0.0
O190 O 0.95291 0.16795 0.34869 0.0
O191 O 0.94389 0.14105 0.33776 0.0
H192 H 0.91305 0.14308 0.37862 0.0
H193 H 0.89753 0.14323 0.39152 0.0
H194 H 0.85444 0.18912 0.38424 0.0
H195 H 0.87069 0.18961 0.37133 0.0
H196 H 0.90799 0.1614 0.31185 0.0
H197 H 0.93192 0.17527 0.29956 0.0
H198 H 0.9433 0.10079 0.29995 0.0
H199 H 0.91944 0.08706 0.31225 0.0
Pr200 Pr 0.86062 0.75856 0.35222 0.0
Pr201 Pr 0.87456 0.76647 0.33418 0.0
C202 C 0.83808 0.73931 0.36609 0.0
C203 C 0.83751 0.72603 0.37348 0.0
C204 C 0.86262 0.73493 0.3778 0.0
C205 C 0.86075 0.72492 0.38523 0.0
C206 C 0.83373 0.70605 0.3885 0.0
C207 C 0.80882 0.69642 0.38404 0.0
C208 C 0.81071 0.7063 0.37663 0.0
C209 C 0.91474 0.80409 0.34828 0.0
C210 C 0.89197 0.72383 0.34404 0.0
C211 C 0.89674 0.78552 0.32033 0.0
C212 C 0.88783 0.79141 0.31292 0.0
C213 C 0.86109 0.77201 0.30964 0.0
C214 C 0.85338 0.77789 0.30257 0.0
C215 C 0.87216 0.80338 0.29862 0.0
C216 C 0.89878 0.82287 0.302 0.0
C217 C 0.9065 0.81691 0.30904 0.0
C218 C 0.81492 0.72879 0.33673 0.0
C219 C 0.85309 0.80769 0.34299 0.0
O220 O 0.82855 0.72305 0.36005 0.0
O221 O 0.85912 0.76553 0.36474 0.0
O222 O 0.90231 0.77967 0.34504 0.0
O223 O 0.90013 0.80457 0.3541 0.0
O224 O 0.8932 0.73655 0.33752 0.0
O225 O 0.88018 0.72789 0.3502 0.0
O226 O 0.89964 0.80296 0.3259 0.0
O227 O 0.88531 0.75843 0.32241 0.0
O228 O 0.83454 0.74158 0.34153 0.0
O229 O 0.82636 0.73501 0.33006 0.0
O230 O 0.84266 0.78896 0.34864 0.0
O231 O 0.86881 0.80559 0.33753 0.0
H232 H 0.88359 0.75026 0.37553 0.0
H233 H 0.88038 0.7329 0.3885 0.0
H234 H 0.78771 0.68153 0.38631 0.0
H235 H 0.79103 0.69921 0.37343 0.0
H236 H 0.84617 0.7522 0.31251 0.0
H237 H 0.83286 0.76218 0.30015 0.0
H238 H 0.91363 0.84295 0.29923 0.0
H239 H 0.92716 0.83229 0.31147 0.0
Pr240 Pr 0.89731 0.76658 0.83354 0.0
Pr241 Pr 0.90408 0.75841 0.85149 0.0
C242 C 0.8938 0.78544 0.81969 0.0
C243 C 0.90857 0.79128 0.81223 0.0
C244 C 0.89842 0.76992 0.80658 0.0
C245 C 0.9119 0.7756 0.79951 0.0
C246 C 0.93581 0.80287 0.79786 0.0
C247 C 0.94588 0.82426 0.80351 0.0
C248 C 0.93241 0.81858 0.81059 0.0
C249 C 0.9202 0.72946 0.83588 0.0
C250 C 0.95992 0.80789 0.84219 0.0
C251 C 0.90777 0.73867 0.86524 0.0
C252 C 0.89481 0.72672 0.8727 0.0
C253 C 0.88027 0.73782 0.87692 0.0
C254 C 0.87171 0.7287 0.88439 0.0
C255 C 0.87772 0.70846 0.88779 0.0
C256 C 0.89131 0.69666 0.88342 0.0
C257 C 0.89973 0.7057 0.87598 0.0
C258 C 0.89456 0.80361 0.84778 0.0
C259 C 0.83774 0.7234 0.84348 0.0
O260 O 0.90807 0.80288 0.82529 0.0
O261 O 0.87808 0.75837 0.8218 0.0
O262 O 0.9132 0.74195 0.84073 0.0
O263 O 0.91472 0.73575 0.82925 0.0
O264 O 0.95219 0.78822 0.84758 0.0
O265 O 0.94151 0.80634 0.83698 0.0
O266 O 0.89836 0.72196 0.85928 0.0
O267 O 0.91577 0.76569 0.86384 0.0
O268 O 0.88282 0.77928 0.84451 0.0
O269 O 0.90972 0.80405 0.85358 0.0
O270 O 0.84892 0.73624 0.83695 0.0
O271 O 0.85383 0.72755 0.84958 0.0
H272 H 0.87997 0.74873 0.80761 0.0
H273 H 0.90369 0.75847 0.79534 0.0
H274 H 0.9639 0.84566 0.80243 0.0
H275 H 0.94061 0.83571 0.81475 0.0
H276 H 0.87629 0.75416 0.87454 0.0
H277 H 0.86144 0.73835 0.88758 0.0
H278 H 0.89584 0.68069 0.8858 0.0
H279 H 0.91097 0.69687 0.87285 0.0
Pr280 Pr 0.24631 0.1337 0.83373 0.0
Pr281 Pr 0.25064 0.14492 0.85169 0.0
C282 C 0.22965 0.11303 0.81964 0.0
C283 C 0.22456 0.12244 0.81219 0.0
C284 C 0.24642 0.14664 0.8084 0.0
C285 C 0.24114 0.15471 0.80131 0.0
C286 C 0.21387 0.13888 0.79786 0.0
C287 C 0.19204 0.11479 0.8017 0.0
C288 C 0.19737 0.10665 0.80876 0.0
C289 C 0.2837 0.19311 0.83672 0.0
C290 C 0.20311 0.15382 0.84212 0.0
C291 C 0.26532 0.1636 0.86606 0.0
C292 C 0.28037 0.16592 0.87327 0.0
C293 C 0.27557 0.14135 0.87736 0.0
C294 C 0.28633 0.14408 0.88472 0.0
C295 C 0.30192 0.1714 0.88818 0.0
C296 C 0.30772 0.19597 0.88394 0.0
C297 C 0.29705 0.19324 0.87659 0.0
C298 C 0.20548 0.09174 0.84689 0.0
C299 C 0.28806 0.11607 0.8438 0.0
O300 O 0.2113 0.10922 0.82504 0.0
O301 O 0.25641 0.12447 0.822 0.0
O302 O 0.2703 0.1732 0.84142 0.0
O303 O 0.27836 0.18211 0.82999 0.0
O304 O 0.22036 0.16287 0.84808 0.0
O305 O 0.20669 0.13947 0.83654 0.0
O306 O 0.28004 0.17897 0.86023 0.0
O307 O 0.24291 0.13875 0.86424 0.0
O308 O 0.23084 0.10393 0.84422 0.0
O309 O 0.2033 0.10658 0.85241 0.0
O310 O 0.27574 0.11472 0.83721 0.0
O311 O 0.28332 0.12766 0.84988 0.0
H312 H 0.2676 0.15938 0.8109 0.0
H313 H 0.25835 0.17356 0.79857 0.0
H314 H 0.17091 0.10187 0.79918 0.0
H315 H 0.18019 0.08782 0.81153 0.0
H316 H 0.26266 0.11995 0.87497 0.0
H317 H 0.2813 0.12467 0.88782 0.0
H318 H 0.32007 0.21738 0.88635 0.0
H319 H 0.30094 0.21251 0.87359 0.0
Pr320 Pr 0.87703 0.11205 0.83383 0.0
Pr321 Pr 0.86414 0.1054 0.85194 0.0
C322 C 0.89815 0.11565 0.8198 0.0
C323 C 0.8887 0.10141 0.81233 0.0
C324 C 0.86197 0.09483 0.80918 0.0
C325 C 0.85379 0.08183 0.80204 0.0
C326 C 0.87204 0.07492 0.79791 0.0
C327 C 0.89866 0.08134 0.80113 0.0
C328 C 0.90689 0.09446 0.80824 0.0
C329 C 0.8176 0.09035 0.83676 0.0
C330 C 0.85512 0.04888 0.84236 0.0
C331 C 0.84276 0.10199 0.86598 0.0
C332 C 0.84353 0.11549 0.87336 0.0
C333 C 0.86858 0.12868 0.87784 0.0
C334 C 0.86758 0.13756 0.88523 0.0
C335 C 0.8415 0.13343 0.88833 0.0
C336 C 0.81673 0.1211 0.88372 0.0
C337 C 0.81776 0.11223 0.87635 0.0
C338 C 0.91787 0.1136 0.84761 0.0
C339 C 0.89494 0.17167 0.84398 0.0
O340 O 0.90112 0.10059 0.82521 0.0
O341 O 0.88719 0.13147 0.82212 0.0
O342 O 0.83766 0.09692 0.84139 0.0
O343 O 0.82846 0.09582 0.83002 0.0
O344 O 0.84506 0.05717 0.8481 0.0
O345 O 0.87092 0.06684 0.83693 0.0
O346 O 0.83276 0.10874 0.86004 0.0
O347 O 0.86339 0.0964 0.86441 0.0
O348 O 0.90544 0.12596 0.84459 0.0
O349 O 0.90351 0.09836 0.85343 0.0
O350 O 0.89651 0.16055 0.83742 0.0
O351 O 0.88288 0.15552 0.85006 0.0
H352 H 0.84737 0.09972 0.81223 0.0
H353 H 0.83298 0.07688 0.7998 0.0
H354 H 0.91343 0.07666 0.79809 0.0
H355 H 0.92761 0.09935 0.81054 0.0
H356 H 0.88879 0.13147 0.8757 0.0
H357 H 0.88719 0.14736 0.88856 0.0
H358 H 0.79618 0.11719 0.88591 0.0
H359 H 0.79805 0.10181 0.87305 0.0
Pr360 Pr 0.7665 0.89828 0.68746 0.0
Pr361 Pr 0.76445 0.90525 0.67072 0.0
C362 C 0.77951 0.89885 0.70226 0.0
C363 C 0.78767 0.9164 0.70928 0.0
C364 C 0.76991 0.92609 0.71247 0.0
C365 C 0.77694 0.94048 0.71944 0.0
C366 C 0.80187 0.94551 0.72341 0.0
C367 C 0.81989 0.93635 0.72011 0.0
C368 C 0.81283 0.92194 0.71315 0.0
C369 C 0.72586 0.91391 0.68289 0.0
C370 C 0.81198 0.96204 0.67972 0.0
C371 C 0.74958 0.90839 0.6563 0.0
C372 C 0.73848 0.89456 0.64882 0.0
C373 C 0.75786 0.89999 0.64285 0.0
C374 C 0.74781 0.89073 0.6355 0.0
C375 C 0.71806 0.8759 0.6339 0.0
C376 C 0.69862 0.86971 0.63993 0.0
C377 C 0.7087 0.87899 0.64729 0.0
C378 C 0.80761 0.89343 0.67499 0.0
C379 C 0.72588 0.83878 0.67819 0.0
O380 O 0.79873 0.90683 0.69688 0.0
O381 O 0.75322 0.88839 0.69971 0.0
O382 O 0.75127 0.92479 0.68043 0.0
O383 O 0.72065 0.89426 0.68789 0.0
O384 O 0.79499 0.95376 0.67375 0.0
O385 O 0.80728 0.944 0.68533 0.0
O386 O 0.73168 0.90161 0.66199 0.0
O387 O 0.77553 0.91445 0.65832 0.0
O388 O 0.78235 0.88088 0.67773 0.0
O389 O 0.81061 0.91158 0.66972 0.0
O390 O 0.74046 0.84931 0.6845 0.0
O391 O 0.72929 0.85577 0.67238 0.0
H392 H 0.75029 0.92209 0.70965 0.0
H393 H 0.76236 0.94691 0.72182 0.0
H394 H 0.83951 0.94024 0.7229 0.0
H395 H 0.82687 0.91467 0.71084 0.0
H396 H 0.78095 0.91238 0.64379 0.0
H397 H 0.76349 0.89632 0.63102 0.0
H398 H 0.67555 0.85802 0.63895 0.0
H399 H 0.69313 0.87466 0.65173 0.0
Pr400 Pr 0.11247 0.87379 0.68872 0.0
Pr401 Pr 0.10636 0.85983 0.67078 0.0
C402 C 0.1155 0.8957 0.70261 0.0
C403 C 0.10039 0.88674 0.71001 0.0
C404 C 0.11434 0.883 0.71627 0.0
C405 C 0.10072 0.87524 0.72333 0.0
C406 C 0.07282 0.87118 0.72434 0.0
C407 C 0.05888 0.87492 0.71806 0.0
C408 C 0.07246 0.88258 0.711 0.0
C409 C 0.0903 0.81399 0.68622 0.0
C410 C 0.04976 0.85153 0.68003 0.0
C411 C 0.10316 0.83785 0.65684 0.0
C412 C 0.11625 0.83788 0.64946 0.0
C413 C 0.13141 0.86309 0.64511 0.0
C414 C 0.13988 0.8616 0.63769 0.0
C415 C 0.13316 0.83485 0.63446 0.0
C416 C 0.11899 0.80989 0.63896 0.0
C417 C 0.11065 0.81142 0.64636 0.0
C418 C 0.11456 0.91385 0.67481 0.0
C419 C 0.17237 0.89081 0.67892 0.0
O420 O 0.10176 0.89934 0.69697 0.0
O421 O 0.13092 0.88395 0.70057 0.0
O422 O 0.09722 0.83355 0.68141 0.0
O423 O 0.09546 0.82554 0.69288 0.0
O424 O 0.05804 0.84032 0.67457 0.0
O425 O 0.06781 0.8683 0.68531 0.0
O426 O 0.10994 0.82817 0.66283 0.0
O427 O 0.09771 0.85867 0.65828 0.0
O428 O 0.12717 0.90178 0.67788 0.0
O429 O 0.09859 0.89875 0.66916 0.0
O430 O 0.16093 0.89214 0.68544 0.0
O431 O 0.15653 0.87911 0.67277 0.0
H432 H 0.1359 0.88616 0.71571 0.0
H433 H 0.11205 0.87219 0.72798 0.0
H434 H 0.0376 0.87245 0.71862 0.0
H435 H 0.06108 0.88545 0.70633 0.0
H436 H 0.13592 0.88381 0.64734 0.0
H437 H 0.15063 0.88123 0.63439 0.0
H438 H 0.1139 0.78901 0.63673 0.0
H439 H 0.0989 0.79166 0.64959 0.0
Pr440 Pr 0.13713 0.2439 0.68867 0.0
Pr441 Pr 0.15017 0.25278 0.67069 0.0
C442 C 0.12039 0.22564 0.70298 0.0
C443 C 0.13028 0.21945 0.71017 0.0
C444 C 0.15917 0.23544 0.71254 0.0
C445 C 0.16756 0.22973 0.71953 0.0
C446 C 0.14723 0.20792 0.7243 0.0
C447 C 0.11845 0.19169 0.7218 0.0
C448 C 0.11011 0.19742 0.71483 0.0
C449 C 0.19346 0.28613 0.68455 0.0
C450 C 0.15326 0.19907 0.67933 0.0
C451 C 0.17751 0.27412 0.65745 0.0
C452 C 0.17603 0.28444 0.64979 0.0
C453 C 0.15125 0.26993 0.64525 0.0
C454 C 0.15165 0.27837 0.63773 0.0
C455 C 0.17686 0.3014 0.63458 0.0
C456 C 0.20127 0.31639 0.63924 0.0
C457 C 0.20083 0.30798 0.64674 0.0
C458 C 0.09116 0.2144 0.67317 0.0
C459 C 0.11791 0.2848 0.67931 0.0
O460 O 0.11566 0.20802 0.69734 0.0
O461 O 0.13203 0.25269 0.70091 0.0
O462 O 0.17838 0.26207 0.68133 0.0
O463 O 0.18004 0.28819 0.69041 0.0
O464 O 0.16003 0.21533 0.67319 0.0
O465 O 0.14358 0.20496 0.68557 0.0
O466 O 0.18046 0.29067 0.66326 0.0
O467 O 0.16137 0.24643 0.65884 0.0
O468 O 0.11063 0.22735 0.67801 0.0
O469 O 0.10226 0.22164 0.66644 0.0
O470 O 0.11146 0.26661 0.68501 0.0
O471 O 0.13603 0.28699 0.67387 0.0
H472 H 0.17515 0.25253 0.70902 0.0
H473 H 0.18985 0.24282 0.72127 0.0
H474 H 0.10229 0.17438 0.72523 0.0
H475 H 0.08775 0.18473 0.7131 0.0
H476 H 0.13182 0.25163 0.64745 0.0
H477 H 0.13251 0.26621 0.63431 0.0
H478 H 0.22088 0.33455 0.63708 0.0
H479 H 0.22021 0.3195 0.65013 0.0
Pr480 Pr 0.77727 0.58505 0.50414 0.0
Pr481 Pr 0.7809 0.57428 0.52287 0.0
C482 C 0.77073 0.60664 0.49101 0.0
C483 C 0.78149 0.61577 0.48321 0.0
C484 C 0.78866 0.59915 0.47848 0.0
C485 C 0.79594 0.60687 0.47088 0.0
C486 C 0.79609 0.6313 0.46784 0.0
C487 C 0.78972 0.6483 0.47268 0.0
C488 C 0.7825 0.6406 0.48026 0.0
C489 C 0.79549 0.54491 0.5069 0.0
C490 C 0.84156 0.61743 0.51301 0.0
C491 C 0.78409 0.55556 0.53678 0.0
C492 C 0.77059 0.55141 0.54431 0.0
C493 C 0.75644 0.56644 0.54647 0.0
C494 C 0.74381 0.56215 0.55365 0.0
C495 C 0.745 0.5427 0.55881 0.0
C496 C 0.75907 0.52759 0.55655 0.0
C497 C 0.7717 0.53192 0.54939 0.0
C498 C 0.75991 0.61264 0.51977 0.0
C499 C 0.72051 0.53148 0.51319 0.0
O500 O 0.7862 0.62314 0.49663 0.0
O501 O 0.75758 0.57894 0.49255 0.0
O502 O 0.78931 0.55843 0.5117 0.0
O503 O 0.79277 0.55279 0.50012 0.0
O504 O 0.82961 0.60185 0.51918 0.0
O505 O 0.82628 0.61711 0.50704 0.0
O506 O 0.76781 0.53824 0.53139 0.0
O507 O 0.80083 0.58228 0.53452 0.0
O508 O 0.76767 0.59985 0.51522 0.0
O509 O 0.76353 0.60589 0.52656 0.0
O510 O 0.72961 0.54934 0.50731 0.0
O511 O 0.73668 0.53513 0.51921 0.0
H512 H 0.78801 0.57984 0.4806 0.0
H513 H 0.80051 0.59314 0.46733 0.0
H514 H 0.7901 0.66752 0.4706 0.0
H515 H 0.77705 0.65376 0.48378 0.0
H516 H 0.75524 0.58154 0.54263 0.0
H517 H 0.73346 0.5744 0.55519 0.0
H518 H 0.76004 0.51207 0.56028 0.0
H519 H 0.78233 0.51995 0.54781 0.0
Pr520 Pr 0.42518 0.19329 0.50419 0.0
Pr521 Pr 0.43617 0.20865 0.52295 0.0
C522 C 0.40302 0.16506 0.49108 0.0
C523 C 0.394 0.16738 0.48333 0.0
C524 C 0.41077 0.19153 0.47874 0.0
C525 C 0.4029 0.19198 0.47121 0.0
C526 C 0.37807 0.16831 0.4681 0.0
C527 C 0.36106 0.14448 0.47278 0.0
C528 C 0.36896 0.14404 0.4803 0.0
C529 C 0.46606 0.25156 0.50687 0.0
C530 C 0.39324 0.22583 0.51298 0.0
C531 C 0.45586 0.23072 0.53678 0.0
C532 C 0.46099 0.22152 0.54424 0.0
C533 C 0.44006 0.19597 0.54775 0.0
C534 C 0.44545 0.18792 0.55484 0.0
C535 C 0.47197 0.2051 0.55855 0.0
C536 C 0.49288 0.23057 0.55499 0.0
C537 C 0.48742 0.23868 0.54793 0.0
C538 C 0.39722 0.14943 0.51992 0.0
C539 C 0.47731 0.18843 0.51344 0.0
O540 O 0.38681 0.16441 0.49673 0.0
O541 O 0.43074 0.17908 0.49261 0.0
O542 O 0.4521 0.23209 0.51168 0.0
O543 O 0.45825 0.24079 0.5001 0.0
O544 O 0.40926 0.23023 0.51911 0.0
O545 O 0.39308 0.21013 0.50712 0.0
O546 O 0.47291 0.23231 0.53125 0.0
O547 O 0.42897 0.2207 0.53466 0.0
O548 O 0.41038 0.16982 0.51535 0.0
O549 O 0.40382 0.15992 0.5267 0.0
O550 O 0.45971 0.17998 0.50751 0.0
O551 O 0.47414 0.20164 0.51938 0.0
H552 H 0.43017 0.20989 0.48094 0.0
H553 H 0.41631 0.21086 0.46781 0.0
H554 H 0.34204 0.1257 0.47059 0.0
H555 H 0.3558 0.12508 0.4837 0.0
H556 H 0.41955 0.18216 0.54502 0.0
H557 H 0.42898 0.168 0.55736 0.0
H558 H 0.51339 0.24453 0.5577 0.0
H559 H 0.50389 0.25849 0.54536 0.0
Pr560 Pr 0.81568 0.23563 0.50463 0.0
Pr561 Pr 0.80162 0.23001 0.52261 0.0
C562 C 0.83783 0.23776 0.49075 0.0
C563 C 0.83389 0.22505 0.48306 0.0
C564 C 0.81861 0.2306 0.47747 0.0
C565 C 0.81853 0.22231 0.46996 0.0
C566 C 0.83376 0.20828 0.46781 0.0
C567 C 0.84821 0.20182 0.47345 0.0
C568 C 0.84839 0.21024 0.48097 0.0
C569 C 0.76138 0.22699 0.50839 0.0
C570 C 0.7836 0.16952 0.51283 0.0
C571 C 0.77943 0.22713 0.53647 0.0
C572 C 0.78835 0.24192 0.54387 0.0
C573 C 0.81684 0.25386 0.54651 0.0
C574 C 0.8247 0.26751 0.55358 0.0
C575 C 0.8043 0.2697 0.55815 0.0
C576 C 0.77585 0.25787 0.55544 0.0
C577 C 0.768 0.24414 0.54839 0.0
C578 C 0.86138 0.25183 0.5201 0.0
C579 C 0.82383 0.29257 0.51383 0.0
O580 O 0.84197 0.22481 0.49649 0.0
O581 O 0.82332 0.25068 0.49252 0.0
O582 O 0.77383 0.21531 0.51174 0.0
O583 O 0.77583 0.24132 0.50247 0.0
O584 O 0.7826 0.18116 0.51936 0.0
O585 O 0.79539 0.18531 0.50667 0.0
O586 O 0.7768 0.24179 0.5309 0.0
O587 O 0.79088 0.21146 0.53441 0.0
O588 O 0.8418 0.24489 0.5153 0.0
O589 O 0.84986 0.24682 0.52676 0.0
O590 O 0.83491 0.28405 0.50839 0.0
O591 O 0.80724 0.27476 0.51917 0.0
H592 H 0.80736 0.24215 0.47883 0.0
H593 H 0.80682 0.22727 0.4658 0.0
H594 H 0.8604 0.19132 0.47201 0.0
H595 H 0.86074 0.20601 0.4851 0.0
H596 H 0.83303 0.25265 0.5431 0.0
H597 H 0.84687 0.27668 0.55542 0.0
H598 H 0.75947 0.2588 0.55882 0.0
H599 H 0.74591 0.23509 0.54648 0.0
Pr600 Pr 0.91649 0.43804 0.6857 0.0
Pr601 Pr 0.90834 0.44417 0.66768 0.0
C602 C 0.93644 0.43557 0.69955 0.0
C603 C 0.94584 0.44855 0.70719 0.0
C604 C 0.92603 0.44848 0.71244 0.0
C605 C 0.93423 0.45684 0.71995 0.0
C606 C 0.96242 0.46549 0.72242 0.0
C607 C 0.98247 0.46655 0.71709 0.0
C608 C 0.97424 0.45807 0.70959 0.0
C609 C 0.87144 0.44768 0.68194 0.0
C610 C 0.95119 0.50417 0.67752 0.0
C611 C 0.88911 0.44696 0.65382 0.0
C612 C 0.88346 0.43241 0.64636 0.0
C613 C 0.90414 0.4277 0.64273 0.0
C614 C 0.89845 0.41445 0.63561 0.0
C615 C 0.87191 0.40549 0.63194 0.0
C616 C 0.85117 0.40997 0.63565 0.0
C617 C 0.85692 0.4233 0.64275 0.0
C618 C 0.94578 0.42177 0.67022 0.0
C619 C 0.86715 0.38199 0.6765 0.0
O620 O 0.95353 0.44787 0.69376 0.0
O621 O 0.90901 0.42346 0.69785 0.0
O622 O 0.89558 0.45899 0.67859 0.0
O623 O 0.87125 0.43322 0.68786 0.0
O624 O 0.93833 0.49278 0.671 0.0
O625 O 0.94716 0.48823 0.68365 0.0
O626 O 0.8718 0.4321 0.65936 0.0
O627 O 0.91611 0.46307 0.65592 0.0
O628 O 0.93306 0.42874 0.67499 0.0
O629 O 0.93953 0.42695 0.66355 0.0
O630 O 0.88711 0.38979 0.68182 0.0
O631 O 0.86856 0.4003 0.67128 0.0
H632 H 0.90393 0.44118 0.71081 0.0
H633 H 0.91831 0.45615 0.72385 0.0
H634 H 1.00427 0.47278 0.71879 0.0
H635 H 0.98989 0.458 0.70572 0.0
H636 H 0.92481 0.4344 0.64537 0.0
H637 H 0.91512 0.41172 0.63292 0.0
H638 H 0.8303 0.40295 0.63311 0.0
H639 H 0.84055 0.42655 0.64544 0.0
Pr640 Pr 0.57056 0.4803 0.68558 0.0
Pr641 Pr 0.56435 0.47091 0.6689 0.0
C642 C 0.57311 0.49874 0.69996 0.0
C643 C 0.55969 0.49564 0.70753 0.0
C644 C 0.56789 0.48418 0.71355 0.0
C645 C 0.55878 0.48465 0.72093 0.0
C646 C 0.54126 0.49674 0.72254 0.0
C647 C 0.53242 0.50755 0.71647 0.0
C648 C 0.54158 0.50709 0.70907 0.0
C649 C 0.55943 0.42517 0.68159 0.0
C650 C 0.5043 0.45042 0.67793 0.0
C651 C 0.56577 0.45918 0.65406 0.0
C652 C 0.58335 0.46964 0.64704 0.0
C653 C 0.58358 0.49159 0.64261 0.0
C654 C 0.59813 0.49943 0.63567 0.0
C655 C 0.61278 0.48549 0.63295 0.0
C656 C 0.6129 0.46386 0.63745 0.0
C657 C 0.59831 0.45599 0.64438 0.0
C658 C 0.57955 0.52728 0.67343 0.0
C659 C 0.62752 0.48883 0.67674 0.0
O660 O 0.56484 0.50847 0.69426 0.0
O661 O 0.58079 0.48 0.69797 0.0
O662 O 0.54709 0.43768 0.67861 0.0
O663 O 0.57652 0.44036 0.68703 0.0
O664 O 0.51551 0.44532 0.67191 0.0
O665 O 0.52113 0.46619 0.68356 0.0
O666 O 0.57482 0.44891 0.65944 0.0
O667 O 0.5536 0.47345 0.65664 0.0
O668 O 0.5906 0.51291 0.67589 0.0
O669 O 0.55967 0.5125 0.6685 0.0
O670 O 0.61927 0.49785 0.68266 0.0
O671 O 0.60954 0.47535 0.67114 0.0
H672 H 0.58227 0.4757 0.7126 0.0
H673 H 0.56649 0.47654 0.72543 0.0
H674 H 0.51864 0.5167 0.71745 0.0
H675 H 0.53506 0.51638 0.70459 0.0
H676 H 0.57214 0.50247 0.64443 0.0
H677 H 0.59784 0.51642 0.63241 0.0
H678 H 0.62355 0.45233 0.63552 0.0
H679 H 0.59822 0.4387 0.64758 0.0
Pr680 Pr 0.52802 0.09387 0.68577 0.0
Pr681 Pr 0.54099 0.09965 0.66782 0.0
C682 C 0.50714 0.07577 0.69985 0.0
C683 C 0.51019 0.06544 0.70741 0.0
C684 C 0.52514 0.08524 0.71325 0.0
C685 C 0.52454 0.07574 0.72065 0.0
C686 C 0.50886 0.04614 0.72245 0.0
C687 C 0.49463 0.02628 0.71656 0.0
C688 C 0.4952 0.03581 0.70915 0.0
C689 C 0.58223 0.13874 0.68155 0.0
C690 C 0.55804 0.05747 0.67788 0.0
C691 C 0.5632 0.11795 0.65391 0.0
C692 C 0.55445 0.12403 0.64652 0.0
C693 C 0.52601 0.10761 0.64384 0.0
C694 C 0.51833 0.11357 0.63678 0.0
C695 C 0.53889 0.13616 0.63224 0.0
C696 C 0.56727 0.1527 0.63501 0.0
C697 C 0.57493 0.14667 0.64205 0.0
C698 C 0.48144 0.06232 0.67046 0.0
C699 C 0.51822 0.1405 0.67617 0.0
O700 O 0.49976 0.05827 0.69404 0.0
O701 O 0.52451 0.10286 0.69808 0.0
O702 O 0.56964 0.11391 0.67855 0.0
O703 O 0.5676 0.1402 0.68724 0.0
O704 O 0.55798 0.06839 0.67118 0.0
O705 O 0.54816 0.06366 0.68408 0.0
O706 O 0.56667 0.13568 0.65946 0.0
O707 O 0.55096 0.09084 0.65603 0.0
O708 O 0.50101 0.07541 0.67526 0.0
O709 O 0.49283 0.06814 0.66378 0.0
O710 O 0.50811 0.1221 0.68188 0.0
O711 O 0.53446 0.13861 0.67083 0.0
H712 H 0.53652 0.10826 0.71216 0.0
H713 H 0.53545 0.09176 0.72502 0.0
H714 H 0.48267 1.00331 0.71769 0.0
H715 H 0.48317 0.01995 0.70483 0.0
H716 H 0.50974 0.09008 0.64719 0.0
H717 H 0.49636 0.10013 0.63483 0.0
H718 H 0.58361 0.17059 0.63177 0.0
H719 H 0.59694 0.15975 0.64402 0.0
Pr720 Pr 0.56621 0.10049 0.16749 0.0
Pr721 Pr 0.57206 0.09289 0.18544 0.0
C722 C 0.56281 0.11897 0.15359 0.0
C723 C 0.57686 0.12388 0.14608 0.0
C724 C 0.57928 0.10202 0.14231 0.0
C725 C 0.59203 0.10703 0.13514 0.0
C726 C 0.60281 0.13405 0.1316 0.0
C727 C 0.60055 0.15593 0.13542 0.0
C728 C 0.58767 0.15086 0.14256 0.0
C729 C 0.58816 0.06273 0.17004 0.0
C730 C 0.62882 0.1411 0.17623 0.0
C731 C 0.57442 0.07378 0.19941 0.0
C732 C 0.56107 0.06359 0.20697 0.0
C733 C 0.56072 0.08288 0.21232 0.0
C734 C 0.55215 0.07404 0.21979 0.0
C735 C 0.54373 0.04572 0.2221 0.0
C736 C 0.54308 0.02617 0.21666 0.0
C737 C 0.55176 0.03504 0.20921 0.0
C738 C 0.56319 0.13829 0.18141 0.0
C739 C 0.50605 0.05795 0.1773 0.0
O740 O 0.57812 0.1366 0.15904 0.0
O741 O 0.54659 0.09214 0.15582 0.0
O742 O 0.58127 0.07545 0.17484 0.0
O743 O 0.58306 0.0691 0.16337 0.0
O744 O 0.62035 0.12152 0.18166 0.0
O745 O 0.61092 0.13988 0.17091 0.0
O746 O 0.56364 0.0565 0.19357 0.0
O747 O 0.58497 0.10106 0.19771 0.0
O748 O 0.55122 0.11372 0.17828 0.0
O749 O 0.57847 0.13908 0.18721 0.0
O750 O 0.51757 0.0705 0.17077 0.0
O751 O 0.52187 0.06226 0.18346 0.0
H752 H 0.57132 0.08102 0.14488 0.0
H753 H 0.59371 0.0898 0.13241 0.0
H754 H 0.60829 0.17688 0.13284 0.0
H755 H 0.58597 0.16804 0.14533 0.0
H756 H 0.56789 0.10509 0.21083 0.0
H757 H 0.55252 0.08958 0.22378 0.0
H758 H 0.53703 0.0043 0.21824 0.0
H759 H 0.55218 0.01979 0.20525 0.0
Pr760 Pr 0.91246 0.4695 0.16752 0.0
Pr761 Pr 0.91919 0.48069 0.18528 0.0
C762 C 0.89702 0.45486 0.15294 0.0
C763 C 0.891 0.46466 0.14569 0.0
C764 C 0.90927 0.49247 0.1428 0.0
C765 C 0.90391 0.50033 0.13568 0.0
C766 C 0.88021 0.48053 0.1313 0.0
C767 C 0.8617 0.45295 0.13432 0.0
C768 C 0.86707 0.44514 0.14141 0.0
C769 C 0.95463 0.52523 0.17216 0.0
C770 C 0.86767 0.48669 0.17633 0.0
C771 C 0.93886 0.50636 0.19882 0.0
C772 C 0.94689 0.50301 0.20665 0.0
C773 C 0.92697 0.49607 0.21258 0.0
C774 C 0.93508 0.49582 0.22008 0.0
C775 C 0.96342 0.50267 0.22189 0.0
C776 C 0.98323 0.50913 0.21595 0.0
C777 C 0.9751 0.50937 0.20843 0.0
C778 C 0.88083 0.42166 0.18283 0.0
C779 C 0.95158 0.44906 0.17691 0.0
O780 O 0.87828 0.44821 0.1584 0.0
O781 O 0.92377 0.46742 0.15531 0.0
O782 O 0.92979 0.5104 0.17494 0.0
O783 O 0.95835 0.51149 0.16663 0.0
O784 O 0.88222 0.49101 0.1827 0.0
O785 O 0.87462 0.47829 0.17004 0.0
O786 O 0.95603 0.50874 0.19323 0.0
O787 O 0.91144 0.49218 0.197 0.0
O788 O 0.89355 0.44072 0.17784 0.0
O789 O 0.88836 0.43308 0.18951 0.0
O790 O 0.93267 0.44177 0.17137 0.0
O791 O 0.95476 0.46843 0.18207 0.0
H792 H 0.92791 0.50799 0.14598 0.0
H793 H 0.91876 0.52167 0.13353 0.0
H794 H 0.84295 0.43729 0.13119 0.0
H795 H 0.85265 0.42359 0.14352 0.0
H796 H 0.90521 0.49157 0.21144 0.0
H797 H 0.91931 0.4912 0.22448 0.0
H798 H 1.00515 0.51419 0.21711 0.0
H799 H 0.99113 0.51511 0.20403 0.0
Pr800 Pr 0.53971 0.44589 0.16906 0.0
Pr801 Pr 0.52956 0.43832 0.18574 0.0
C802 C 0.552 0.4458 0.15422 0.0
C803 C 0.54105 0.42973 0.147 0.0
C804 C 0.53062 0.44058 0.14134 0.0
C805 C 0.52254 0.42718 0.13427 0.0
C806 C 0.52487 0.40267 0.13261 0.0
C807 C 0.53489 0.39154 0.13832 0.0
C808 C 0.54293 0.40492 0.14541 0.0
C809 C 0.48311 0.43014 0.17347 0.0
C810 C 0.52189 0.38239 0.17662 0.0
C811 C 0.51061 0.43474 0.20009 0.0
C812 C 0.5137 0.44819 0.20764 0.0
C813 C 0.52515 0.44002 0.21367 0.0
C814 C 0.52466 0.44918 0.22105 0.0
C815 C 0.51254 0.4667 0.22263 0.0
C816 C 0.50182 0.47557 0.21655 0.0
C817 C 0.50231 0.46637 0.20916 0.0
C818 C 0.58447 0.44922 0.18175 0.0
C819 C 0.55995 0.50523 0.17845 0.0
O820 O 0.56051 0.43461 0.15949 0.0
O821 O 0.53919 0.45926 0.15693 0.0
O822 O 0.49751 0.41914 0.17592 0.0
O823 O 0.49788 0.4501 0.16857 0.0
O824 O 0.51139 0.38984 0.18239 0.0
O825 O 0.53648 0.40112 0.17125 0.0
O826 O 0.50082 0.44305 0.19441 0.0
O827 O 0.52955 0.42734 0.19808 0.0
O828 O 0.57232 0.46214 0.1789 0.0
O829 O 0.56908 0.43168 0.1871 0.0
O830 O 0.5651 0.49448 0.17233 0.0
O831 O 0.54421 0.48802 0.18402 0.0
H832 H 0.52914 0.45979 0.14235 0.0
H833 H 0.51453 0.43616 0.13007 0.0
H834 H 0.53735 0.37294 0.13724 0.0
H835 H 0.55117 0.39613 0.14959 0.0
H836 H 0.53361 0.42561 0.21274 0.0
H837 H 0.53271 0.44149 0.22556 0.0
H838 H 0.49267 0.48935 0.21752 0.0
H839 H 0.49307 0.4729 0.20467 0.0
Pr840 Pr 0.43325 0.23227 0.02151 0.0
Pr841 Pr 0.42497 0.23524 1.00369 0.0
C842 C 0.44988 0.23448 0.03603 0.0
C843 C 0.45406 0.24985 0.04333 0.0
C844 C 0.4344 0.23628 0.04927 0.0
C845 C 0.4392 0.24936 0.05638 0.0
C846 C 0.46394 0.27632 0.05778 0.0
C847 C 0.48341 0.2901 0.0518 0.0
C848 C 0.47857 0.27702 0.04467 0.0
C849 C 0.39003 0.2446 0.01709 0.0
C850 C 0.47676 0.2936 0.01233 0.0
C851 C 0.4036 0.24019 0.99034 0.0
C852 C 0.39418 0.22838 0.98263 0.0
C853 C 0.41191 0.22324 0.97776 0.0
C854 C 0.40387 0.21533 0.97021 0.0
C855 C 0.37798 0.21245 0.96736 0.0
C856 C 0.35989 0.21668 0.97233 0.0
C857 C 0.36793 0.22458 0.97986 0.0
C858 C 0.46456 0.2161 1.00611 0.0
C859 C 0.39426 0.17169 0.01236 0.0
O860 O 0.46791 0.24814 0.03052 0.0
O861 O 0.4234 0.21753 0.0337 0.0
O862 O 0.41444 0.25433 0.01405 0.0
O863 O 0.38775 0.22877 0.02288 0.0
O864 O 0.46166 0.28293 1.00605 0.0
O865 O 0.47062 0.27864 0.01867 0.0
O866 O 0.38703 0.2259 0.99607 0.0
O867 O 0.43126 0.25305 0.99187 0.0
O868 O 0.45175 0.22236 1.0111 0.0
O869 O 0.45644 0.21927 0.99943 0.0
O870 O 0.41313 0.1841 0.01788 0.0
O871 O 0.39079 0.18716 1.00705 0.0
H872 H 0.41544 0.21525 0.04845 0.0
H873 H 0.42349 0.23825 0.06079 0.0
H874 H 0.50288 0.31066 0.05267 0.0
H875 H 0.49436 0.288 0.04026 0.0
H876 H 0.43234 0.22607 0.97972 0.0
H877 H 0.41846 0.21247 0.96655 0.0
H878 H 0.33956 0.21415 0.9704 0.0
H879 H 0.3539 0.22846 0.98349 0.0
Pr880 Pr 0.77869 0.2049 0.0215 0.0
Pr881 Pr 0.7757 0.19246 1.00369 0.0
C882 C 0.77671 0.22128 0.03583 0.0
C883 C 0.76049 0.21176 0.04301 0.0
C884 C 0.74796 0.1831 0.04556 0.0
C885 C 0.7341 0.1752 0.0526 0.0
C886 C 0.73253 0.19582 0.05724 0.0
C887 C 0.74464 0.22434 0.05456 0.0
C888 C 0.75845 0.23218 0.04755 0.0
C889 C 0.76537 0.1487 0.01739 0.0
C890 C 0.71795 0.1886 0.01208 0.0
C891 C 0.77048 0.16558 0.9904 0.0
C892 C 0.78252 0.16844 0.98269 0.0
C893 C 0.7873 0.19138 0.9779 0.0
C894 C 0.79557 0.19184 0.97036 0.0
C895 C 0.79933 0.16942 0.96744 0.0
C896 C 0.79536 0.14696 0.97232 0.0
C897 C 0.787 0.14647 0.97984 0.0
C898 C 0.79629 0.25153 1.00594 0.0
C899 C 0.83955 0.22476 0.01246 0.0
O900 O 0.76437 0.22655 0.03017 0.0
O901 O 0.79167 0.20913 0.03379 0.0
O902 O 0.75609 0.1635 0.01417 0.0
O903 O 0.78106 0.16248 0.02319 0.0
O904 O 0.72852 0.18358 1.00586 0.0
O905 O 0.73267 0.19689 0.01847 0.0
O906 O 0.78489 0.16351 0.99613 0.0
O907 O 0.75736 0.18014 0.99195 0.0
O908 O 0.78945 0.2325 1.01096 0.0
O909 O 0.79291 0.23998 0.99928 0.0
O910 O 0.82736 0.23106 0.01808 0.0
O911 O 0.82394 0.20661 1.00699 0.0
H912 H 0.74922 0.16692 0.04215 0.0
H913 H 0.72523 0.1531 0.05448 0.0
H914 H 0.74341 0.24069 0.05789 0.0
H915 H 0.76787 0.25438 0.04569 0.0
H916 H 0.78409 0.20869 0.97992 0.0
H917 H 0.79884 0.20969 0.96681 0.0
H918 H 0.79771 0.12916 0.97027 0.0
H919 H 0.78322 0.12841 0.98339 0.0
Pr920 Pr 0.80585 0.57629 0.02017 0.0
Pr921 Pr 0.81628 0.58131 1.00334 0.0
C922 C 0.79299 0.56195 0.03489 0.0
C923 C 0.80369 0.55598 0.04202 0.0
C924 C 0.82941 0.57689 0.04547 0.0
C925 C 0.83776 0.57149 0.05251 0.0
C926 C 0.82063 0.54505 0.05626 0.0
C927 C 0.7952 0.524 0.05271 0.0
C928 C 0.78682 0.52945 0.04569 0.0
C929 C 0.86208 0.61807 0.01589 0.0
C930 C 0.82469 0.53221 0.01189 0.0
C931 C 0.83583 0.59883 0.98915 0.0
C932 C 0.83467 0.61163 0.98181 0.0
C933 C 0.81077 0.59757 0.97695 0.0
C934 C 0.812 0.60767 0.96957 0.0
C935 C 0.83721 0.63197 0.96687 0.0
C936 C 0.86062 0.64662 0.97186 0.0
C937 C 0.85937 0.63654 0.97922 0.0
C938 C 0.76152 0.53667 1.00718 0.0
C939 C 0.7856 0.61643 1.01126 0.0
O940 O 0.78486 0.54281 0.02947 0.0
O941 O 0.80576 0.58852 0.0324 0.0
O942 O 0.84789 0.59299 0.01321 0.0
O943 O 0.84737 0.62245 0.021 0.0
O944 O 0.83386 0.55012 1.0061 0.0
O945 O 0.81089 0.53596 0.01756 0.0
O946 O 0.84685 0.6156 0.99505 0.0
O947 O 0.81512 0.57281 0.99082 0.0
O948 O 0.77368 0.56137 1.01025 0.0
O949 O 0.77683 0.53521 1.00169 0.0
O950 O 0.77999 0.59928 0.01713 0.0
O951 O 0.80199 0.6163 1.00566 0.0
H952 H 0.84294 0.59758 0.0428 0.0
H953 H 0.85767 0.58806 0.05502 0.0
H954 H 0.78124 0.50356 0.05545 0.0
H955 H 0.76676 0.51305 0.0432 0.0
H956 H 0.79146 0.57817 0.97874 0.0
H957 H 0.79362 0.59569 0.96589 0.0
H958 H 0.8802 0.66567 0.97003 0.0
H959 H 0.8782 0.64771 0.98281 0.0
Pr960 Pr 0.44462 0.91883 0.83779 0.0
Pr961 Pr 0.44822 0.90781 0.85655 0.0
C962 C 0.43904 0.94037 0.82452 0.0
C963 C 0.44973 0.94787 0.81662 0.0
C964 C 0.4405 0.92648 0.81098 0.0
C965 C 0.44802 0.93401 0.80341 0.0
C966 C 0.46491 0.96313 0.80124 0.0
C967 C 0.47472 0.98446 0.8069 0.0
C968 C 0.46711 0.97693 0.81448 0.0
C969 C 0.4618 0.87786 0.84059 0.0
C970 C 0.50878 0.95053 0.84669 0.0
C971 C 0.45054 0.88816 0.87038 0.0
C972 C 0.43635 0.88338 0.87784 0.0
C973 C 0.42695 0.90191 0.88063 0.0
C974 C 0.41352 0.89687 0.88771 0.0
C975 C 0.40899 0.87306 0.89213 0.0
C976 C 0.41835 0.85452 0.88928 0.0
C977 C 0.43188 0.85966 0.88222 0.0
C978 C 0.4286 0.94722 0.85351 0.0
C979 C 0.38709 0.86691 0.84694 0.0
O980 O 0.45555 0.95677 0.83003 0.0
O981 O 0.42389 0.91294 0.82634 0.0
O982 O 0.45593 0.89174 0.84534 0.0
O983 O 0.45915 0.88564 0.8338 0.0
O984 O 0.49686 0.9347 0.85283 0.0
O985 O 0.49352 0.95065 0.84077 0.0
O986 O 0.43481 0.87113 0.86488 0.0
O987 O 0.46749 0.91502 0.86825 0.0
O988 O 0.43585 0.93412 0.84892 0.0
O989 O 0.43205 0.94025 0.86029 0.0
O990 O 0.39663 0.88456 0.84103 0.0
O991 O 0.40316 0.86996 0.85294 0.0
H992 H 0.42692 0.90387 0.81239 0.0
H993 H 0.44039 0.91696 0.79923 0.0
H994 H 0.48746 0.00712 0.80546 0.0
H995 H 0.47422 0.99398 0.81865 0.0
H996 H 0.4299 0.92023 0.87732 0.0
H997 H 0.40629 0.91139 0.88967 0.0
H998 H 0.41559 0.83621 0.89255 0.0
H999 H 0.43894 0.84507 0.88019 0.0
Pr1000 Pr 0.09456 0.52803 0.83783 0.0
Pr1001 Pr 0.09972 0.5398 0.85456 0.0
C1002 C 0.07737 0.50782 0.82364 0.0
C1003 C 0.06751 0.51101 0.81603 0.0
C1004 C 0.08682 0.51961 0.80992 0.0
C1005 C 0.07736 0.51928 0.80253 0.0
C1006 C 0.04822 0.5102 0.80102 0.0
C1007 C 0.02898 0.50223 0.80717 0.0
C1008 C 0.03849 0.50255 0.81458 0.0
C1009 C 0.13918 0.58346 0.8413 0.0
C1010 C 0.05915 0.55911 0.84544 0.0
C1011 C 0.11524 0.55414 0.86918 0.0
C1012 C 0.12233 0.54443 0.8763 0.0
C1013 C 0.1031 0.51781 0.87968 0.0
C1014 C 0.10956 0.51024 0.88671 0.0
C1015 C 0.13535 0.52913 0.89052 0.0
C1016 C 0.15476 0.55546 0.88703 0.0
C1017 C 0.14829 0.563 0.88003 0.0
C1018 C 0.05803 0.48273 0.85064 0.0
C1019 C 0.14366 0.52058 0.84659 0.0
O1020 O 0.05958 0.49997 0.82939 0.0
O1021 O 0.10424 0.52547 0.82551 0.0
O1022 O 0.11468 0.57147 0.84448 0.0
O1023 O 0.14027 0.56761 0.8359 0.0
O1024 O 0.07555 0.5645 0.85146 0.0
O1025 O 0.06005 0.54309 0.83985 0.0
O1026 O 0.13387 0.56216 0.86365 0.0
O1027 O 0.08846 0.54061 0.86685 0.0
O1028 O 0.08288 0.49699 0.84782 0.0
O1029 O 0.05426 0.49764 0.85582 0.0
O1030 O 0.12491 0.50968 0.841 0.0
O1031 O 0.1405 0.53586 0.85195 0.0
H1032 H 0.1092 0.52572 0.81081 0.0
H1033 H 0.09277 0.5251 0.79798 0.0
H1034 H 0.00646 0.49545 0.80626 0.0
H1035 H 0.02294 0.49553 0.81914 0.0
H1036 H 0.08286 0.50301 0.87697 0.0
H1037 H 0.09394 0.48991 0.88923 0.0
H1038 H 0.17505 0.57036 0.8897 0.0
H1039 H 0.16348 0.58366 0.87756 0.0
Pr1040 Pr 0.48199 0.56957 0.83802 0.0
Pr1041 Pr 0.46931 0.56318 0.85602 0.0
C1042 C 0.50281 0.57219 0.82393 0.0
C1043 C 0.4992 0.55911 0.8163 0.0
C1044 C 0.48291 0.56322 0.8107 0.0
C1045 C 0.48302 0.55473 0.80322 0.0
C1046 C 0.49948 0.54197 0.8011 0.0
C1047 C 0.51498 0.53695 0.80675 0.0
C1048 C 0.51495 0.54555 0.81424 0.0
C1049 C 0.42784 0.56036 0.84224 0.0
C1050 C 0.45114 0.50321 0.84603 0.0
C1051 C 0.4484 0.55987 0.87007 0.0
C1052 C 0.45765 0.57418 0.87758 0.0
C1053 C 0.47327 0.56692 0.88265 0.0
C1054 C 0.48084 0.57967 0.88983 0.0
C1055 C 0.47291 0.59994 0.89216 0.0
C1056 C 0.45737 0.60725 0.88707 0.0
C1057 C 0.44979 0.5945 0.8799 0.0
C1058 C 0.5289 0.58531 0.85322 0.0
C1059 C 0.49047 0.62602 0.84746 0.0
O1060 O 0.50933 0.56106 0.82967 0.0
O1061 O 0.48643 0.58299 0.82579 0.0
O1062 O 0.44053 0.54838 0.84531 0.0
O1063 O 0.44214 0.57576 0.83644 0.0
O1064 O 0.45041 0.51455 0.85263 0.0
O1065 O 0.46241 0.51926 0.83988 0.0
O1066 O 0.44516 0.57456 0.8646 0.0
O1067 O 0.45928 0.54395 0.86776 0.0
O1068 O 0.50908 0.57857 0.8485 0.0
O1069 O 0.51776 0.57996 0.85993 0.0
O1070 O 0.50125 0.61784 0.84187 0.0
O1071 O 0.47437 0.60794 0.85282 0.0
H1072 H 0.4707 0.57381 0.81204 0.0
H1073 H 0.47049 0.55857 0.79907 0.0
H1074 H 0.52813 0.52746 0.80533 0.0
H1075 H 0.5281 0.54247 0.81836 0.0
H1076 H 0.47942 0.55113 0.88112 0.0
H1077 H 0.49241 0.57313 0.89361 0.0
H1078 H 0.45117 0.62301 0.8886 0.0
H1079 H 0.43757 0.60045 0.87617 0.0
Pr1080 Pr 0.58459 0.77118 0.01941 0.0
Pr1081 Pr 0.57773 0.77646 1.0027 0.0
C1082 C 0.60361 0.76898 0.03342 0.0
C1083 C 0.61625 0.78239 0.04082 0.0
C1084 C 0.60354 0.79434 0.04547 0.0
C1085 C 0.61318 0.80271 0.05291 0.0
C1086 C 0.63562 0.79915 0.05589 0.0
C1087 C 0.64901 0.78827 0.05111 0.0
C1088 C 0.63941 0.77998 0.04369 0.0
C1089 C 0.53953 0.78139 0.01618 0.0
C1090 C 0.61853 0.83717 1.01152 0.0
C1091 C 0.56179 0.77451 0.9881 0.0
C1092 C 0.55565 0.75767 0.98095 0.0
C1093 C 0.57679 0.76662 0.97527 0.0
C1094 C 0.57052 0.75239 0.96829 0.0
C1095 C 0.54284 0.72893 0.96676 0.0
C1096 C 0.52178 0.71975 0.97248 0.0
C1097 C 0.52808 0.73394 0.97948 0.0
C1098 C 0.62012 0.76196 1.00641 0.0
C1099 C 0.53387 0.7138 1.01103 0.0
O1100 O 0.62017 0.776 0.02743 0.0
O1101 O 0.57718 0.76269 0.03192 0.0
O1102 O 0.56368 0.79373 0.01284 0.0
O1103 O 0.53901 0.76495 0.02163 0.0
O1104 O 0.60111 0.82547 1.0057 0.0
O1105 O 0.61881 0.82075 0.01709 0.0
O1106 O 0.54336 0.76335 0.99366 0.0
O1107 O 0.58856 0.78909 0.9904 0.0
O1108 O 0.59547 0.75122 1.00937 0.0
O1109 O 0.62336 0.78049 1.00126 0.0
O1110 O 0.5522 0.72233 0.01674 0.0
O1111 O 0.53746 0.73145 1.00542 0.0
H1112 H 0.5855 0.79632 0.04344 0.0
H1113 H 0.60222 0.81083 0.05642 0.0
H1114 H 0.66667 0.78569 0.05315 0.0
H1115 H 0.6495 0.77069 0.04025 0.0
H1116 H 0.5981 0.78507 0.97616 0.0
H1117 H 0.58718 0.76037 0.96401 0.0
H1118 H 0.50034 0.70158 0.97156 0.0
H1119 H 0.51116 0.72655 0.98368 0.0
Pr1120 Pr 0.23648 0.81622 0.01968 0.0
Pr1121 Pr 0.23384 0.80376 1.00182 0.0
C1122 C 0.24295 0.84335 0.03303 0.0
C1123 C 0.23215 0.84036 0.04091 0.0
C1124 C 0.23727 0.8243 0.04636 0.0
C1125 C 0.22942 0.82416 0.05393 0.0
C1126 C 0.21637 0.84016 0.05625 0.0
C1127 C 0.21069 0.85565 0.05075 0.0
C1128 C 0.21856 0.85581 0.0432 0.0
C1129 C 0.21929 0.75784 0.01742 0.0
C1130 C 0.17241 0.78546 1.01136 0.0
C1131 C 0.2273 0.7883 0.98713 0.0
C1132 C 0.24347 0.79673 0.97987 0.0
C1133 C 0.25116 0.82315 0.97632 0.0
C1134 C 0.26532 0.8301 0.96932 0.0
C1135 C 0.27218 0.81084 0.96569 0.0
C1136 C 0.2647 0.78456 0.9693 0.0
C1137 C 0.25046 0.77759 0.97628 0.0
C1138 C 0.26173 0.86193 1.00618 0.0
C1139 C 0.29216 0.81725 1.01093 0.0
O1140 O 0.22667 0.84373 0.02756 0.0
O1141 O 0.25746 0.83048 0.03117 0.0
O1142 O 0.22506 0.77664 0.01239 0.0
O1143 O 0.22184 0.76919 0.02408 0.0
O1144 O 0.18485 0.78522 1.00491 0.0
O1145 O 0.18704 0.7967 0.01767 0.0
O1146 O 0.23569 0.77643 0.99226 0.0
O1147 O 0.21898 0.80561 0.98998 0.0
O1148 O 0.2387 0.84201 1.00902 0.0
O1149 O 0.27048 0.85217 1.00069 0.0
O1150 O 0.28431 0.82918 0.01632 0.0
O1151 O 0.27465 0.80216 1.00537 0.0
H1152 H 0.24794 0.81234 0.04483 0.0
H1153 H 0.23446 0.81223 0.058 0.0
H1154 H 0.20027 0.86785 0.05228 0.0
H1155 H 0.2145 0.86856 0.03916 0.0
H1156 H 0.246 0.83839 0.97889 0.0
H1157 H 0.27034 0.85035 0.96669 0.0
H1158 H 0.26997 0.76934 0.96677 0.0
H1159 H 0.24476 0.75705 0.97886 0.0
Pr1160 Pr 0.19336 0.42258 0.01946 0.0
Pr1161 Pr 0.2083 0.43458 1.00073 0.0
C1162 C 0.1652 0.40036 0.03256 0.0
C1163 C 0.16709 0.39112 0.04032 0.0
C1164 C 0.1902 0.40851 0.04516 0.0
C1165 C 0.18988 0.40053 0.05273 0.0
C1166 C 0.1664 0.37504 0.05562 0.0
C1167 C 0.14378 0.35733 0.05068 0.0
C1168 C 0.14413 0.3653 0.04313 0.0
C1169 C 0.25174 0.46295 0.01678 0.0
C1170 C 0.22533 0.39076 1.01039 0.0
C1171 C 0.23033 0.45431 0.9869 0.0
C1172 C 0.22104 0.45875 0.97938 0.0
C1173 C 0.19371 0.43928 0.97641 0.0
C1174 C 0.18553 0.44394 0.96926 0.0
C1175 C 0.20441 0.46828 0.96494 0.0
C1176 C 0.23169 0.48776 0.96798 0.0
C1177 C 0.23988 0.48302 0.97511 0.0
C1178 C 0.14906 0.3956 1.00372 0.0
C1179 C 0.19018 0.47651 1.01067 0.0
O1180 O 0.16441 0.38413 0.02689 0.0
O1181 O 0.17939 0.42811 0.03106 0.0
O1182 O 0.23208 0.44959 0.01198 0.0
O1183 O 0.24111 0.45478 0.02355 0.0
O1184 O 0.22971 0.40722 1.00435 0.0
O1185 O 0.20975 0.3903 0.0163 0.0
O1186 O 0.23107 0.47124 0.99236 0.0
O1187 O 0.2209 0.42757 0.98907 0.0
O1188 O 0.16943 0.40848 1.00831 0.0
O1189 O 0.15956 0.40266 0.99694 0.0
O1190 O 0.1812 0.45822 0.01645 0.0
O1191 O 0.20297 0.47335 1.00463 0.0
H1192 H 0.2082 0.4286 0.04316 0.0
H1193 H 0.20759 0.41483 0.05636 0.0
H1194 H 0.1256 0.3373 0.05264 0.0
H1195 H 0.12605 0.35154 0.03952 0.0
H1196 H 0.17864 0.42049 0.97963 0.0
H1197 H 0.16424 0.42867 0.96716 0.0
H1198 H 0.24697 0.50653 0.9648 0.0
H1199 H 0.26107 0.49832 0.97727 0.0
Pr1200 Pr 0.23131 0.43163 0.50187 0.0
Pr1201 Pr 0.23695 0.42661 0.51876 0.0
C1202 C 0.23266 0.44663 0.48721 0.0
C1203 C 0.24905 0.45233 0.48004 0.0
C1204 C 0.25297 0.43099 0.47648 0.0
C1205 C 0.2666 0.43625 0.46942 0.0
C1206 C 0.27669 0.46297 0.46576 0.0
C1207 C 0.27316 0.48442 0.4694 0.0
C1208 C 0.25946 0.47911 0.47644 0.0
C1209 C 0.24683 0.39033 0.50601 0.0
C1210 C 0.29402 0.47631 0.51013 0.0
C1211 C 0.23987 0.40915 0.53289 0.0
C1212 C 0.22685 0.39628 0.54029 0.0
C1213 C 0.21292 0.40735 0.54479 0.0
C1214 C 0.20483 0.39771 0.55223 0.0
C1215 C 0.21071 0.37698 0.55537 0.0
C1216 C 0.22356 0.36514 0.55073 0.0
C1217 C 0.23153 0.37469 0.5433 0.0
C1218 C 0.22671 0.47124 0.51498 0.0
C1219 C 0.17095 0.39117 0.51095 0.0
O1220 O 0.24432 0.46553 0.49266 0.0
O1221 O 0.21823 0.42001 0.48965 0.0
O1222 O 0.25685 0.4151 0.50885 0.0
O1223 O 0.22871 0.38646 0.50067 0.0
O1224 O 0.28556 0.45843 0.51593 0.0
O1225 O 0.27634 0.4723 0.50448 0.0
O1226 O 0.23411 0.39242 0.52697 0.0
O1227 O 0.24439 0.43496 0.53128 0.0
O1228 O 0.2142 0.44657 0.51187 0.0
O1229 O 0.2434 0.47256 0.52047 0.0
O1230 O 0.18229 0.4075 0.50493 0.0
O1231 O 0.18755 0.39208 0.51662 0.0
H1232 H 0.24522 0.41009 0.4791 0.0
H1233 H 0.26926 0.41936 0.46684 0.0
H1234 H 0.28028 0.5051 0.46673 0.0
H1235 H 0.2565 0.49585 0.47901 0.0
H1236 H 0.20914 0.42414 0.54264 0.0
H1237 H 0.19513 0.40744 0.55564 0.0
H1238 H 0.22797 0.34879 0.55289 0.0
H1239 H 0.24236 0.3659 0.53998 0.0
Pr1240 Pr 0.57656 0.79992 0.50037 0.0
Pr1241 Pr 0.58728 0.81483 0.51907 0.0
C1242 C 0.5574 0.7781 0.48649 0.0
C1243 C 0.55246 0.78739 0.47899 0.0
C1244 C 0.57544 0.80393 0.47403 0.0
C1245 C 0.57027 0.81189 0.46691 0.0
C1246 C 0.542 0.80347 0.46456 0.0
C1247 C 0.51907 0.78696 0.46955 0.0
C1248 C 0.52423 0.77896 0.47665 0.0
C1249 C 0.61496 0.85935 0.50339 0.0
C1250 C 0.53367 0.81776 0.50998 0.0
C1251 C 0.60882 0.84252 0.53227 0.0
C1252 C 0.6166 0.83932 0.54014 0.0
C1253 C 0.59534 0.82654 0.54577 0.0
C1254 C 0.60307 0.8263 0.55332 0.0
C1255 C 0.63225 0.83888 0.55544 0.0
C1256 C 0.65347 0.85107 0.54977 0.0
C1257 C 0.64574 0.8514 0.54223 0.0
C1258 C 0.54705 0.75651 0.51636 0.0
C1259 C 0.61936 0.78224 0.5103 0.0
O1260 O 0.54019 0.77632 0.49201 0.0
O1261 O 0.58419 0.78791 0.48868 0.0
O1262 O 0.60222 0.83895 0.50797 0.0
O1263 O 0.60813 0.84877 0.49661 0.0
O1264 O 0.55148 0.82664 0.51588 0.0
O1265 O 0.53748 0.80523 0.50398 0.0
O1266 O 0.62524 0.8427 0.52673 0.0
O1267 O 0.58134 0.82982 0.5305 0.0
O1268 O 0.5607 0.77611 0.51157 0.0
O1269 O 0.55477 0.76719 0.52314 0.0
O1270 O 0.6039 0.77857 0.5041 0.0
O1271 O 0.61907 0.79743 0.51623 0.0
H1272 H 0.59746 0.8106 0.4756 0.0
H1273 H 0.58845 0.82423 0.4632 0.0
H1274 H 0.49705 0.78038 0.46799 0.0
H1275 H 0.50602 0.76608 0.48031 0.0
H1276 H 0.57268 0.81719 0.5444 0.0
H1277 H 0.58613 0.81639 0.5575 0.0
H1278 H 0.67616 0.86127 0.55119 0.0
H1279 H 0.66267 0.8618 0.53805 0.0
Pr1280 Pr 0.21022 0.77928 0.50025 0.0
Pr1281 Pr 0.19555 0.77535 0.519 0.0
C1282 C 0.23212 0.78146 0.48641 0.0
C1283 C 0.22323 0.76711 0.47893 0.0
C1284 C 0.1992 0.76462 0.47503 0.0
C1285 C 0.19168 0.75144 0.4679 0.0
C1286 C 0.20795 0.74035 0.4645 0.0
C1287 C 0.23182 0.74266 0.46847 0.0
C1288 C 0.23937 0.75592 0.47558 0.0
C1289 C 0.15114 0.75942 0.50336 0.0
C1290 C 0.18978 0.71786 0.50975 0.0
C1291 C 0.16736 0.76926 0.5321 0.0
C1292 C 0.16916 0.7801 0.53989 0.0
C1293 C 0.19353 0.78844 0.54447 0.0
C1294 C 0.19337 0.79588 0.55207 0.0
C1295 C 0.16878 0.79499 0.55525 0.0
C1296 C 0.14481 0.78748 0.55055 0.0
C1297 C 0.14502 0.78012 0.54298 0.0
C1298 C 0.25363 0.79226 0.51626 0.0
C1299 C 0.22842 0.83984 0.51022 0.0
O1300 O 0.23387 0.76616 0.49195 0.0
O1301 O 0.22193 0.79823 0.4885 0.0
O1302 O 0.17162 0.76663 0.5079 0.0
O1303 O 0.16147 0.76312 0.49656 0.0
O1304 O 0.1819 0.72737 0.51572 0.0
O1305 O 0.20268 0.734 0.50375 0.0
O1306 O 0.16685 0.78501 0.52649 0.0
O1307 O 0.18149 0.75566 0.53058 0.0
O1308 O 0.23411 0.7867 0.51146 0.0
O1309 O 0.24299 0.78953 0.52304 0.0
O1310 O 0.232 0.82796 0.50402 0.0
O1311 O 0.21323 0.82449 0.51615 0.0
H1312 H 0.18626 0.77299 0.47746 0.0
H1313 H 0.17337 0.7504 0.465 0.0
H1314 H 0.2446 0.73397 0.46613 0.0
H1315 H 0.25793 0.75746 0.47847 0.0
H1316 H 0.21244 0.78857 0.54223 0.0
H1317 H 0.21214 0.80137 0.55551 0.0
H1318 H 0.12571 0.78706 0.55275 0.0
H1319 H 0.12598 0.77378 0.53956 0.0
Pr1320 Pr 0.10288 0.56565 0.3552 0.0
Pr1321 Pr 0.09386 0.57079 0.33719 0.0
C1322 C 0.12246 0.56272 0.369 0.0
C1323 C 0.12843 0.57758 0.37639 0.0
C1324 C 0.11343 0.59152 0.37876 0.0
C1325 C 0.11928 0.60527 0.38582 0.0
C1326 C 0.14039 0.60554 0.39063 0.0
C1327 C 0.15546 0.59167 0.38817 0.0
C1328 C 0.14951 0.57786 0.38114 0.0
C1329 C 0.06507 0.58761 0.35272 0.0
C1330 C 0.14328 0.6278 0.34622 0.0
C1331 C 0.07329 0.57265 0.32338 0.0
C1332 C 0.06355 0.55938 0.3158 0.0
C1333 C 0.08292 0.55838 0.31059 0.0
C1334 C 0.0745 0.54978 0.30311 0.0
C1335 C 0.04652 0.54196 0.30062 0.0
C1336 C 0.02687 0.54196 0.30591 0.0
C1337 C 0.03534 0.55067 0.31339 0.0
C1338 C 0.13926 0.56164 0.34093 0.0
C1339 C 0.05975 0.50503 0.34554 0.0
O1340 O 0.13963 0.57734 0.36341 0.0
O1341 O 0.09529 0.54715 0.36699 0.0
O1342 O 0.07756 0.58049 0.34791 0.0
O1343 O 0.07178 0.58284 0.35938 0.0
O1344 O 0.12364 0.61926 0.34079 0.0
O1345 O 0.14201 0.61013 0.35161 0.0
O1346 O 0.05645 0.56061 0.32923 0.0
O1347 O 0.1008 0.58477 0.325 0.0
O1348 O 0.1152 0.55041 0.3443 0.0
O1349 O 0.13914 0.57573 0.33496 0.0
O1350 O 0.07266 0.51682 0.35203 0.0
O1351 O 0.06364 0.52062 0.33935 0.0
H1352 H 0.0972 0.5918 0.37516 0.0
H1353 H 0.10751 0.61602 0.38746 0.0
H1354 H 0.17158 0.59109 0.39174 0.0
H1355 H 0.16134 0.56723 0.37942 0.0
H1356 H 0.10487 0.56502 0.31223 0.0
H1357 H 0.09008 0.54963 0.29923 0.0
H1358 H 1.00526 0.53638 0.30421 0.0
H1359 H 0.02006 0.55159 0.31724 0.0
Pr1360 Pr 0.44581 0.53831 0.35458 0.0
Pr1361 Pr 0.43898 0.52684 0.33789 0.0
C1362 C 0.44525 0.55215 0.36927 0.0
C1363 C 0.42874 0.54236 0.37643 0.0
C1364 C 0.41814 0.51424 0.37923 0.0
C1365 C 0.40449 0.50635 0.38629 0.0
C1366 C 0.40115 0.52641 0.39072 0.0
C1367 C 0.41122 0.55432 0.38779 0.0
C1368 C 0.42486 0.56217 0.38075 0.0
C1369 C 0.43078 0.48155 0.35051 0.0
C1370 C 0.38218 0.51868 0.34677 0.0
C1371 C 0.43635 0.50678 0.3237 0.0
C1372 C 0.44988 0.51038 0.31614 0.0
C1373 C 0.44639 0.52705 0.31054 0.0
C1374 C 0.4551 0.52693 0.30309 0.0
C1375 C 0.46746 0.51008 0.30101 0.0
C1376 C 0.47195 0.49425 0.30666 0.0
C1377 C 0.46313 0.49428 0.31412 0.0
C1378 C 0.44907 0.58189 0.34138 0.0
C1379 C 0.50561 0.55844 0.34542 0.0
O1380 O 0.43467 0.56064 0.36385 0.0
O1381 O 0.45796 0.53824 0.36681 0.0
O1382 O 0.41976 0.49563 0.34786 0.0
O1383 O 0.45043 0.49672 0.35545 0.0
O1384 O 0.39034 0.509 0.34095 0.0
O1385 O 0.40032 0.53303 0.35227 0.0
O1386 O 0.44609 0.49875 0.32945 0.0
O1387 O 0.42696 0.52428 0.32559 0.0
O1388 O 0.462 0.57026 0.34454 0.0
O1389 O 0.43224 0.56593 0.33599 0.0
O1390 O 0.4945 0.56368 0.35145 0.0
O1391 O 0.48874 0.54239 0.33983 0.0
H1392 H 0.42083 0.49848 0.37602 0.0
H1393 H 0.39726 0.48476 0.38837 0.0
H1394 H 0.4086 0.57022 0.39095 0.0
H1395 H 0.4328 0.58397 0.37872 0.0
H1396 H 0.43605 0.53953 0.31184 0.0
H1397 H 0.45167 0.53972 0.29892 0.0
H1398 H 0.48115 0.48082 0.30526 0.0
H1399 H 0.46574 0.48084 0.31825 0.0
Pr1400 Pr 0.47119 0.91039 0.35538 0.0
Pr1401 Pr 0.48328 0.92038 0.33757 0.0
C1402 C 0.45623 0.90198 0.37008 0.0
C1403 C 0.46513 0.89456 0.3773 0.0
C1404 C 0.47512 0.91453 0.38328 0.0
C1405 C 0.48271 0.90764 0.39021 0.0
C1406 C 0.48028 0.88047 0.39138 0.0
C1407 C 0.47039 0.86052 0.38537 0.0
C1408 C 0.46295 0.86748 0.37842 0.0
C1409 C 0.52941 0.94102 0.35105 0.0
C1410 C 0.48454 0.8656 0.34626 0.0
C1411 C 0.50991 0.94054 0.32414 0.0
C1412 C 0.50634 0.9473 0.31619 0.0
C1413 C 0.4994 0.92671 0.31043 0.0
C1414 C 0.49906 0.93399 0.30285 0.0
C1415 C 0.50587 0.96214 0.3008 0.0
C1416 C 0.51227 0.98257 0.30658 0.0
C1417 C 0.51258 0.97528 0.31416 0.0
C1418 C 0.42498 0.87897 0.33983 0.0
C1419 C 0.45171 0.95285 0.34596 0.0
O1420 O 0.44417 0.88167 0.36495 0.0
O1421 O 0.47351 0.92758 0.36723 0.0
O1422 O 0.50947 0.94405 0.34818 0.0
O1423 O 0.51962 0.92246 0.35652 0.0
O1424 O 0.49633 0.88543 0.34088 0.0
O1425 O 0.46953 0.86797 0.35184 0.0
O1426 O 0.50967 0.95727 0.32952 0.0
O1427 O 0.498 0.91338 0.32615 0.0
O1428 O 0.44384 0.89198 0.34484 0.0
O1429 O 0.4362 0.88794 0.33318 0.0
O1430 O 0.45076 0.93912 0.35227 0.0
O1431 O 0.46439 0.9509 0.33974 0.0
H1432 H 0.47679 0.93546 0.3826 0.0
H1433 H 0.48989 0.92341 0.39473 0.0
H1434 H 0.46857 0.83954 0.38603 0.0
H1435 H 0.45538 0.85155 0.37394 0.0
H1436 H 0.49494 0.90508 0.31176 0.0
H1437 H 0.49442 0.91776 0.29857 0.0
H1438 H 0.51725 0.00435 0.30524 0.0
H1439 H 0.51833 0.99182 0.31842 0.0
H1440 H 0.15419 0.20304 0.18577 0.0
H1441 H 0.16588 0.16452 0.18792 0.0
H1442 H 0.10234 0.11135 0.17133 0.0
H1443 H 0.09041 0.14924 0.16926 0.0
H1444 H 0.09896 0.08143 0.1842 0.0
H1445 H 0.21186 0.14178 0.17363 0.0
H1446 H 0.20317 0.15901 0.18108 0.0
H1447 H 0.18626 0.15386 0.17202 0.0
C1448 C 0.14271 0.18306 0.18262 0.0
C1449 C 0.12153 0.17922 0.17731 0.0
C1450 C 0.14954 0.16118 0.1838 0.0
C1451 C 0.13532 0.13519 0.17969 0.0
C1452 C 0.11373 0.13122 0.17454 0.0
H1453 H 0.17143 0.99792 0.16985 0.0
H1454 H 0.16839 0.04221 0.16993 0.0
C1455 C 0.10695 0.15296 0.17336 0.0
C1456 C 0.14232 0.11172 0.18071 0.0
H1457 H 0.19522 0.09438 0.17807 0.0
C1458 C 0.12008 0.08433 0.18292 0.0
C1459 C 0.16977 0.1154 0.17892 0.0
C1460 C 0.19414 0.144 0.17622 0.0
C1461 C 0.12436 0.06049 0.1833 0.0
C1462 C 0.15188 0.06419 0.18159 0.0
C1463 C 0.17423 0.09162 0.17944 0.0
C1464 C 0.15734 0.03947 0.18177 0.0
C1465 C 0.099 0.03132 0.18528 0.0
C1466 C 0.15329 0.02384 0.18845 0.0
C1467 C 0.15483 0.99849 0.18841 0.0
C1468 C 0.16084 0.98837 0.1817 0.0
C1469 C 0.16677 0.00508 0.17511 0.0
C1470 C 0.165 0.03039 0.17515 0.0
H1471 H 0.0781 0.03077 0.18455 0.0
H1472 H 0.09874 0.01405 0.18173 0.0
H1473 H 0.1007 0.0264 0.19127 0.0
H1474 H 0.14806 0.03078 0.19367 0.0
H1475 H 0.15048 0.98638 0.19361 0.0
H1476 H 0.02215 0.16431 0.19276 0.0
H1477 H 0.9775 0.11777 0.19268 0.0
H1478 H 0.96661 0.12767 0.16897 0.0
H1479 H 0.01127 0.1747 0.16901 0.0
H1480 H 0.91408 0.10256 0.1774 0.0
H1481 H 0.97746 0.04804 0.18298 0.0
H1482 H 0.98258 0.07507 0.18979 0.0
H1483 H 0.99415 0.08545 0.18021 0.0
C1484 C 0.01012 0.15683 0.18753 0.0
C1485 C 0.02051 0.17311 0.18086 0.0
C1486 C 0.98461 0.13013 0.1875 0.0
C1487 C 0.96906 0.11894 0.18079 0.0
C1488 C 0.97839 0.13584 0.17421 0.0
H1489 H 0.85669 0.94265 0.1681 0.0
H1490 H 0.89494 0.99253 0.16993 0.0
C1491 C 1.00389 0.16274 0.17424 0.0
C1492 C 0.94426 0.08891 0.18055 0.0
H1493 H 0.92676 0.01852 0.18279 0.0
C1494 C 0.91677 0.08416 0.1786 0.0
C1495 C 0.94791 0.06491 0.18204 0.0
C1496 C 0.97713 0.06848 0.18381 0.0
C1497 C 0.89283 0.05603 0.17812 0.0
C1498 C 0.89647 0.03209 0.1797 0.0
C1499 C 0.92394 0.0369 0.18167 0.0
C1500 C 0.87273 1.00176 0.17875 0.0
C1501 C 0.86406 0.05208 0.17569 0.0
C1502 C 0.84758 0.99011 0.18319 0.0
C1503 C 0.82553 0.96138 0.18215 0.0
C1504 C 0.82838 0.94394 0.17667 0.0
C1505 C 0.85378 0.95557 0.17235 0.0
C1506 C 0.8757 0.9841 0.17338 0.0
H1507 H 0.86613 0.07219 0.17327 0.0
H1508 H 0.85376 0.03454 0.17144 0.0
H1509 H 0.84952 0.04589 0.18066 0.0
H1510 H 0.84507 1.00318 0.18746 0.0
H1511 H 0.80623 0.95291 0.18559 0.0
H1512 H 0.07078 0.92629 0.17321 0.0
H1513 H 0.02025 0.91304 0.17459 0.0
H1514 H 1.00089 0.83075 0.18394 0.0
H1515 H 0.05202 0.84463 0.18285 0.0
H1516 H 0.97504 0.87154 0.16783 0.0
H1517 H 0.95942 0.85349 0.19872 0.0
H1518 H 0.99464 0.87022 0.1944 0.0
H1519 H 0.97163 0.83161 0.19413 0.0
C1520 C 0.05583 0.90555 0.17568 0.0
C1521 C 0.06531 0.88653 0.17795 0.0
C1522 C 0.02689 0.89792 0.17643 0.0
C1523 C 0.00658 0.87092 0.17941 0.0
C1524 C 0.01611 0.85195 0.18178 0.0
H1525 H 0.82281 0.81916 0.1719 0.0
H1526 H 0.86821 0.81818 0.17152 0.0
C1527 C 0.04532 0.85983 0.18114 0.0
C1528 C 0.97548 0.86264 0.17966 0.0
H1529 H 0.91815 0.84281 0.19151 0.0
C1530 C 0.96258 0.86516 0.17301 0.0
C1531 C 0.95914 0.85434 0.18642 0.0
C1532 C 0.97194 0.85249 0.19384 0.0
C1533 C 0.93435 0.8607 0.17296 0.0
C1534 C 0.91799 0.85241 0.17972 0.0
C1535 C 0.93054 0.84892 0.18632 0.0
C1536 C 0.8892 0.85043 0.18027 0.0
C1537 C 0.92299 0.86643 0.16576 0.0
C1538 C 0.88527 0.86779 0.18552 0.0
C1539 C 0.8593 0.86797 0.18585 0.0
C1540 C 0.83646 0.85089 0.18088 0.0
C1541 C 0.83999 0.83275 0.17576 0.0
C1542 C 0.86605 0.83235 0.1755 0.0
H1543 H 0.94057 0.87917 0.16167 0.0
H1544 H 0.90772 0.84556 0.16305 0.0
H1545 H 0.91133 0.87833 0.16693 0.0
H1546 H 0.90266 0.88191 0.18927 0.0
H1547 H 0.85753 0.88223 0.18989 0.0
H1548 H 0.14968 0.08811 0.3547 0.0
H1549 H 0.11213 0.10067 0.35279 0.0
H1550 H 0.16684 0.16709 0.33704 0.0
H1551 H 0.20493 0.15461 0.33896 0.0
H1552 H 0.13921 0.18464 0.34838 0.0
H1553 H 0.06135 0.08344 0.33381 0.0
H1554 H 0.07494 0.07762 0.3425 0.0
H1555 H 0.09917 0.09477 0.33472 0.0
C1556 C 0.15373 0.1053 0.35079 0.0
C1557 C 0.18024 0.12036 0.34697 0.0
C1558 C 0.13218 0.11239 0.34969 0.0
C1559 C 0.13656 0.13464 0.34473 0.0
C1560 C 0.16301 0.14979 0.34088 0.0
H1561 H 0.99096 0.15351 0.3311 0.0
H1562 H 0.03596 0.15241 0.33119 0.0
C1563 C 0.18466 0.14257 0.34195 0.0
C1564 C 0.11342 0.14201 0.34371 0.0
H1565 H 0.04279 0.11262 0.33856 0.0
C1566 C 0.1182 0.16907 0.34615 0.0
C1567 C 0.08611 0.12175 0.34076 0.0
C1568 C 0.08007 0.09286 0.33773 0.0
C1569 C 0.09606 0.17603 0.34593 0.0
C1570 C 0.06834 0.15524 0.34329 0.0
C1571 C 0.06393 0.12853 0.34064 0.0
C1572 C 0.0434 0.16035 0.34318 0.0
C1573 C 0.10258 0.20561 0.34849 0.0
C1574 C 0.03283 0.16596 0.34987 0.0
C1575 C 0.00706 0.16688 0.34982 0.0
C1576 C 0.99121 0.16176 0.34311 0.0
C1577 C 1.00252 0.15738 0.33639 0.0
C1578 C 0.02828 0.15672 0.33642 0.0
H1579 H 0.12609 0.22142 0.34826 0.0
H1580 H 0.09099 0.21375 0.34498 0.0
H1581 H 0.09543 0.20434 0.35443 0.0
H1582 H 0.04375 0.16826 0.35518 0.0
H1583 H 0.99877 0.17 0.3551 0.0
H1584 H 0.85989 0.84274 0.33108 0.0
H1585 H 0.86223 0.88948 0.33132 0.0
H1586 H 0.84207 0.87916 0.35507 0.0
H1587 H 0.83928 0.83187 0.35486 0.0
H1588 H 0.81488 0.9052 0.34672 0.0
H1589 H 0.93262 0.95852 0.34109 0.0
H1590 H 0.91056 0.93161 0.33427 0.0
H1591 H 0.91156 0.92112 0.34385 0.0
C1592 C 0.85555 0.85015 0.33635 0.0
C1593 C 0.84972 0.83366 0.34298 0.0
C1594 C 0.857 0.87698 0.33647 0.0
C1595 C 0.85298 0.88813 0.34324 0.0
C1596 C 0.84543 0.87103 0.34978 0.0
H1597 H 0.91897 0.06569 0.35543 0.0
H1598 H 0.9069 0.0156 0.3538 0.0
C1599 C 0.84378 0.84398 0.34966 0.0
C1600 C 0.85857 0.91833 0.34355 0.0
H1601 H 0.91186 0.98847 0.34116 0.0
C1602 C 0.83604 0.92343 0.3455 0.0
C1603 C 0.88629 0.94214 0.34202 0.0
C1604 C 0.91175 0.93821 0.34026 0.0
C1605 C 0.84051 0.95171 0.34592 0.0
C1606 C 0.86814 0.97545 0.34427 0.0
C1607 C 0.8906 0.97027 0.34233 0.0
C1608 C 0.87499 0.00597 0.3451 0.0
C1609 C 0.81588 0.95601 0.34834 0.0
C1610 C 0.86141 0.01752 0.34065 0.0
C1611 C 0.86835 0.04641 0.34157 0.0
C1612 C 0.889 0.06413 0.34694 0.0
C1613 C 0.90287 0.05259 0.35126 0.0
C1614 C 0.89599 0.02391 0.35034 0.0
H1615 H 0.79789 0.93613 0.35087 0.0
H1616 H 0.82335 0.97387 0.3525 0.0
H1617 H 0.80738 0.96188 0.34335 0.0
H1618 H 0.84554 0.00425 0.33646 0.0
H1619 H 0.8574 0.05476 0.33814 0.0
H1620 H 0.95379 0.80458 0.33806 0.0
H1621 H 1.00412 0.84322 0.33621 0.0
H1622 H 0.99301 0.89449 0.35326 0.0
H1623 H 0.94306 0.85644 0.35505 0.0
H1624 H 0.01994 0.92561 0.34047 0.0
H1625 H 0.07214 0.86446 0.35069 0.0
H1626 H 0.04639 0.84774 0.34318 0.0
H1627 H 0.03445 0.85235 0.35228 0.0
C1628 C 0.96215 0.82416 0.34138 0.0
C1629 C 0.94458 0.82744 0.34673 0.0
C1630 C 0.99093 0.8461 0.34036 0.0
C1631 C 1.00248 0.87157 0.34469 0.0
C1632 C 0.98466 0.875 0.34989 0.0
H1633 H 0.17546 0.00926 0.35479 0.0
H1634 H 0.12832 0.96472 0.35473 0.0
C1635 C 0.95608 0.8532 0.35091 0.0
C1636 C 0.03294 0.8951 0.3438 0.0
H1637 H 0.10306 0.91214 0.34643 0.0
C1638 C 0.03812 0.92261 0.34172 0.0
C1639 C 0.05662 0.89125 0.34555 0.0
C1640 C 0.05229 0.86245 0.34811 0.0
C1641 C 0.06623 0.94641 0.3414 0.0
C1642 C 0.08997 0.94254 0.34306 0.0
C1643 C 0.08486 0.91501 0.34511 0.0
C1644 C 0.12011 0.96717 0.34287 0.0
C1645 C 0.07015 0.97572 0.33954 0.0
C1646 C 0.13165 0.98263 0.33617 0.0
C1647 C 0.1584 0.00808 0.33619 0.0
C1648 C 0.17439 0.01845 0.34291 0.0
C1649 C 0.16372 1.00187 0.34952 0.0
C1650 C 0.13676 0.97644 0.3495 0.0
H1651 H 0.04982 0.9763 0.34028 0.0
H1652 H 0.0871 0.99278 0.34314 0.0
H1653 H 0.07694 0.98094 0.33356 0.0
H1654 H 0.1195 0.97553 0.33095 0.0
H1655 H 0.16613 0.0201 0.33098 0.0
H1656 H 0.91808 0.85566 0.8547 0.0
H1657 H 0.90636 0.89384 0.8529 0.0
H1658 H 0.84471 0.84314 0.83567 0.0
H1659 H 0.85623 0.80436 0.83752 0.0
H1660 H 0.91142 0.92517 0.84006 0.0
H1661 H 0.79765 0.86487 0.85 0.0
H1662 H 0.82296 0.85248 0.85172 0.0
H1663 H 0.80691 0.84802 0.84257 0.0
C1664 C 0.90199 0.85254 0.85053 0.0
C1665 C 0.88794 0.82693 0.84628 0.0
C1666 C 0.89532 0.87443 0.8495 0.0
C1667 C 0.87435 0.87123 0.84424 0.0
C1668 C 0.86056 0.84585 0.83987 0.0
H1669 H 0.86123 0.02068 0.8303 0.0
H1670 H 0.86271 0.9758 0.83036 0.0
C1671 C 0.8673 0.82383 0.84089 0.0
C1672 C 0.86773 0.89496 0.8433 0.0
H1673 H 0.81507 0.91273 0.8458 0.0
C1674 C 0.8903 0.92239 0.84126 0.0
C1675 C 0.84026 0.89141 0.84499 0.0
C1676 C 0.81554 0.8627 0.8475 0.0
C1677 C 0.88628 0.94639 0.84091 0.0
C1678 C 0.85874 0.94282 0.8425 0.0
C1679 C 0.83608 0.91537 0.84452 0.0
C1680 C 0.85355 0.96767 0.84227 0.0
C1681 C 0.91188 0.97557 0.83906 0.0
C1682 C 0.84629 0.97723 0.84887 0.0
C1683 C 0.84511 1.00287 0.84885 0.0
C1684 C 0.85125 0.01938 0.84222 0.0
C1685 C 0.85676 0.00873 0.83553 0.0
C1686 C 0.85772 0.98309 0.83555 0.0
H1687 H 0.93266 0.97589 0.83983 0.0
H1688 H 0.91051 0.98085 0.83308 0.0
H1689 H 0.91211 0.99271 0.84265 0.0
H1690 H 0.84283 0.96556 0.85412 0.0
H1691 H 0.84083 0.01045 0.8541 0.0
H1692 H 0.14861 0.06703 0.85013 0.0
H1693 H 0.11149 0.01631 0.84892 0.0
H1694 H 0.17409 0.99703 0.83932 0.0
H1695 H 0.21127 0.04835 0.84026 0.0
H1696 H 0.12381 0.96722 0.83225 0.0
H1697 H 0.10259 0.9537 0.86287 0.0
H1698 H 0.09763 0.98227 0.85931 0.0
H1699 H 0.13285 0.98559 0.85894 0.0
C1700 C 0.15443 0.05201 0.84771 0.0
C1701 C 0.18287 0.06155 0.84536 0.0
C1702 C 0.13325 0.02294 0.8471 0.0
C1703 C 0.14014 1.00255 0.84428 0.0
C1704 C 0.16831 0.01224 0.84161 0.0
H1705 H 0.00643 0.8204 0.8514 0.0
H1706 H 0.05343 0.86515 0.85165 0.0
C1707 C 0.18951 0.04155 0.84213 0.0
C1708 C 0.11774 0.97131 0.84411 0.0
H1709 H 0.06549 0.91771 0.85491 0.0
C1710 C 0.11133 0.95629 0.83723 0.0
C1711 C 0.1019 0.95657 0.85064 0.0
C1712 C 0.10934 0.97029 0.85837 0.0
C1713 C 0.08849 0.92763 0.83661 0.0
C1714 C 0.07096 0.91384 0.843 0.0
C1715 C 0.07849 0.92828 0.84997 0.0
C1716 C 0.04359 0.88553 0.84247 0.0
C1717 C 0.08343 0.91251 0.8291 0.0
C1718 C 0.02232 0.88198 0.83726 0.0
C1719 C 0.99571 0.85645 0.83705 0.0
C1720 C 0.98931 0.83384 0.84215 0.0
C1721 C 0.01062 0.83727 0.84737 0.0
C1722 C 0.0375 0.86288 0.84752 0.0
H1723 H 0.10394 0.92082 0.8259 0.0
H1724 H 0.07369 0.8888 0.8298 0.0
H1725 H 0.06865 0.9168 0.82566 0.0
H1726 H 0.02591 0.89935 0.83347 0.0
H1727 H 0.97985 0.85487 0.83299 0.0
H1728 H 0.94553 0.08792 0.85381 0.0
H1729 H 0.99524 0.09932 0.85184 0.0
H1730 H 0.00737 0.16437 0.83555 0.0
H1731 H 0.95726 0.15317 0.83759 0.0
H1732 H 0.02233 0.09658 0.83893 0.0
H1733 H 0.07534 0.20861 0.85022 0.0
H1734 H 0.03752 0.18314 0.85167 0.0
H1735 H 0.04986 0.20078 0.84271 0.0
C1736 C 0.95872 0.10467 0.8498 0.0
C1737 C 0.94755 0.11981 0.84589 0.0
C1738 C 0.98717 0.11115 0.84867 0.0
C1739 C 1.00525 0.13301 0.84364 0.0
C1740 C 0.99401 0.14779 0.83958 0.0
H1741 H 0.16928 0.14778 0.82994 0.0
H1742 H 0.12264 0.1457 0.82986 0.0
C1743 C 0.96534 0.14124 0.8407 0.0
C1744 C 0.03566 0.13974 0.84269 0.0
H1745 H 0.10594 0.19182 0.84575 0.0
C1746 C 0.04062 0.11748 0.84036 0.0
C1747 C 0.05951 0.16688 0.84468 0.0
C1748 C 0.05546 0.19123 0.84752 0.0
C1749 C 0.06862 0.12146 0.84003 0.0
C1750 C 0.09254 0.14869 0.84194 0.0
C1751 C 0.08765 0.17105 0.84423 0.0
C1752 C 0.12259 0.15383 0.84182 0.0
C1753 C 0.07221 0.09608 0.8379 0.0
C1754 C 0.13892 0.1607 0.8485 0.0
C1755 C 0.16591 0.16227 0.84855 0.0
C1756 C 0.177 0.15692 0.84193 0.0
C1757 C 0.16127 0.15166 0.83517 0.0
C1758 C 0.13448 0.15032 0.83512 0.0
H1759 H 0.05168 0.07523 0.83847 0.0
H1760 H 0.07921 0.0983 0.83192 0.0
H1761 H 0.08887 0.09525 0.84146 0.0
H1762 H 0.13027 0.16367 0.85373 0.0
H1763 H 0.17739 0.16633 0.85385 0.0
H1764 H 0.86422 0.92316 0.67134 0.0
H1765 H 0.89983 0.90757 0.6724 0.0
H1766 H 0.83535 0.82684 0.68211 0.0
H1767 H 0.79967 0.84298 0.68132 0.0
H1768 H 0.88512 0.84605 0.68924 0.0
H1769 H 0.90727 0.85236 0.65871 0.0
H1770 H 0.91315 0.88646 0.6621 0.0
H1771 H 0.87746 0.85518 0.6625 0.0
C1772 C 0.85762 0.90209 0.67372 0.0
C1773 C 0.82913 0.88416 0.67618 0.0
C1774 C 0.87794 0.89307 0.67425 0.0
C1775 C 0.87011 0.8656 0.67709 0.0
C1776 C 0.84184 0.84796 0.6798 0.0
H1777 H 1.00384 0.81687 0.67074 0.0
H1778 H 0.95656 0.81392 0.67029 0.0
C1779 C 0.8215 0.8572 0.67936 0.0
C1780 C 0.89184 0.85594 0.67737 0.0
H1781 H 0.94427 0.85383 0.66684 0.0
C1782 C 0.89774 0.84731 0.68431 0.0
C1783 C 0.90783 0.85663 0.67091 0.0
C1784 C 0.90085 0.86283 0.66313 0.0
C1785 C 0.92036 0.84126 0.68506 0.0
C1786 C 0.9382 0.84483 0.67876 0.0
C1787 C 0.93106 0.85158 0.67172 0.0
C1788 C 0.96561 0.84411 0.67946 0.0
C1789 C 0.92492 0.83126 0.69263 0.0
C1790 C 0.98649 0.86202 0.68473 0.0
C1791 C 0.01325 0.86347 0.68506 0.0
C1792 C 0.02017 0.84751 0.68 0.0
C1793 C 0.99922 0.82938 0.67473 0.0
C1794 C 0.97219 0.8277 0.67447 0.0
H1795 H 0.90418 0.81897 0.69573 0.0
H1796 H 0.93481 0.81739 0.69204 0.0
H1797 H 0.93936 0.85036 0.69612 0.0
H1798 H 0.98251 0.87569 0.68847 0.0
H1799 H 0.02885 0.87793 0.68915 0.0
H1800 H 0.12702 0.15329 0.68892 0.0
H1801 H 0.12672 0.10773 0.68839 0.0
H1802 H 0.18344 0.13795 0.66909 0.0
H1803 H 0.18277 0.1835 0.66938 0.0
H1804 H 0.14297 0.08601 0.66655 0.0
H1805 H 0.18304 0.08524 0.69512 0.0
H1806 H 0.1519 0.08937 0.69574 0.0
H1807 H 0.18422 0.11696 0.69122 0.0
C1808 C 0.1398 0.15052 0.68461 0.0
C1809 C 0.1551 0.17223 0.67922 0.0
C1810 C 0.13979 0.1244 0.68436 0.0
C1811 C 0.15567 0.11948 0.67883 0.0
C1812 C 0.1712 0.14123 0.67346 0.0
H1813 H 0.16321 0.9583 0.68129 0.0
H1814 H 0.17598 0.00926 0.6821 0.0
C1815 C 0.17083 0.1673 0.67363 0.0
C1816 C 0.15414 0.09085 0.67835 0.0
H1817 H 0.15578 0.03849 0.68906 0.0
C1818 C 0.14622 0.07586 0.67146 0.0
C1819 C 0.15899 0.07761 0.68468 0.0
C1820 C 0.17034 0.09333 0.69207 0.0
C1821 C 0.14168 0.04769 0.67081 0.0
C1822 C 0.14395 0.03349 0.67731 0.0
C1823 C 0.15332 0.04898 0.68411 0.0
C1824 C 0.13595 1.00244 0.67719 0.0
C1825 C 0.13473 0.03362 0.66312 0.0
C1826 C 0.10885 0.9814 0.67443 0.0
C1827 C 0.10181 0.95255 0.67385 0.0
C1828 C 0.12134 0.94386 0.67623 0.0
C1829 C 0.14778 0.96446 0.67942 0.0
C1830 C 0.15509 0.99357 0.67986 0.0
H1831 H 0.14394 0.05005 0.65856 0.0
H1832 H 0.14317 0.01853 0.66246 0.0
H1833 H 0.11097 0.0214 0.66234 0.0
H1834 H 0.09319 0.98734 0.67263 0.0
H1835 H 0.0811 0.93701 0.67148 0.0
H1836 H 0.84917 0.98809 0.69152 0.0
H1837 H 0.89443 0.03423 0.69148 0.0
H1838 H 0.87979 0.04779 0.6683 0.0
H1839 H 0.83419 1.00203 0.66833 0.0
H1840 H 0.94102 0.04842 0.68297 0.0
H1841 H 0.90336 0.12585 0.67713 0.0
H1842 H 0.87904 0.08898 0.67992 0.0
H1843 H 0.89066 0.09747 0.67025 0.0
C1844 C 0.8553 1.00109 0.68644 0.0
C1845 C 0.83794 0.99133 0.67993 0.0
C1846 C 0.88125 0.02749 0.68643 0.0
C1847 C 0.89043 0.04475 0.67992 0.0
C1848 C 0.8729 0.03529 0.67345 0.0
H1849 H 0.04773 0.18698 0.66303 0.0
H1850 H 0.99878 0.14708 0.66534 0.0
C1851 C 0.84684 0.00897 0.67347 0.0
C1852 C 0.91929 0.07148 0.67972 0.0
H1853 H 0.95389 0.14336 0.67532 0.0
C1854 C 0.94378 0.06925 0.6814 0.0
C1855 C 0.92297 0.09872 0.67767 0.0
C1856 C 0.89758 0.10301 0.67622 0.0
C1857 C 0.97179 0.09318 0.68082 0.0
C1858 C 0.97546 0.1202 0.67858 0.0
C1859 C 0.95101 0.12262 0.67703 0.0
C1860 C 1.00457 0.14571 0.67738 0.0
C1861 C 0.99731 0.08917 0.68235 0.0
C1862 C 0.02391 0.15862 0.68341 0.0
C1863 C 0.05193 0.18156 0.68211 0.0
C1864 C 0.06102 0.19186 0.67474 0.0
C1865 C 0.04135 0.17943 0.66876 0.0
C1866 C 0.01336 0.15666 0.67007 0.0
H1867 H 0.991 0.06599 0.68268 0.0
H1868 H 0.01389 0.09961 0.67787 0.0
H1869 H 0.00733 0.09955 0.6878 0.0
H1870 H 0.01743 0.15073 0.68912 0.0
H1871 H 0.06664 0.19081 0.68683 0.0
H1872 H 0.84238 0.33146 0.5021 0.0
H1873 H 0.84233 0.37731 0.50155 0.0
H1874 H 0.81305 0.36593 0.52462 0.0
H1875 H 0.8131 0.32036 0.52523 0.0
H1876 H 0.79168 0.38149 0.50403 0.0
H1877 H 0.87881 0.45097 0.52409 0.0
H1878 H 0.8761 0.41884 0.51993 0.0
H1879 H 0.85295 0.41591 0.52763 0.0
C1880 C 0.83653 0.33901 0.5071 0.0
C1881 C 0.82774 0.32216 0.5137 0.0
C1882 C 0.8364 0.36518 0.50677 0.0
C1883 C 0.82794 0.37522 0.51307 0.0
C1884 C 0.82012 0.35892 0.51973 0.0
H1885 H 0.79208 0.51702 0.52029 0.0
H1886 H 0.8004 0.47603 0.52208 0.0
C1887 C 0.82002 0.33272 0.52005 0.0
C1888 C 0.82481 0.40132 0.51248 0.0
H1889 H 0.84857 0.46879 0.5198 0.0
C1890 C 0.80428 0.40066 0.50744 0.0
C1891 C 0.84089 0.42614 0.51703 0.0
C1892 C 0.86361 0.42825 0.52244 0.0
C1893 C 0.79918 0.42395 0.50685 0.0
C1894 C 0.81561 0.44904 0.51129 0.0
C1895 C 0.836 0.44963 0.51639 0.0
C1896 C 0.81252 0.47512 0.51046 0.0
C1897 C 0.77573 0.42114 0.50159 0.0
C1898 C 0.81744 0.48881 0.50343 0.0
C1899 C 0.81253 0.51189 0.5024 0.0
C1900 C 0.803 0.52219 0.5084 0.0
C1901 C 0.79936 0.50947 0.51556 0.0
C1902 C 0.8041 0.48608 0.51658 0.0
H1903 H 0.7597 0.39815 0.50042 0.0
H1904 H 0.76421 0.43182 0.50397 0.0
H1905 H 0.78553 0.43161 0.49613 0.0
H1906 H 0.82467 0.48131 0.49867 0.0
H1907 H 0.81584 0.52144 0.49684 0.0
H1908 H 0.49394 0.29409 0.49661 0.0
H1909 H 0.53448 0.34275 0.49863 0.0
H1910 H 0.53154 0.32603 0.52252 0.0
H1911 H 0.49072 0.27686 0.52049 0.0
H1912 H 0.53973 0.38865 0.50766 0.0
H1913 H 0.61565 0.35173 0.51661 0.0
H1914 H 0.58166 0.32798 0.51207 0.0
H1915 H 0.58251 0.33719 0.52185 0.0
C1916 C 0.50179 0.30076 0.50231 0.0
C1917 C 0.48927 0.28158 0.50839 0.0
C1918 C 0.52496 0.32864 0.50345 0.0
C1919 C 0.53634 0.33798 0.5107 0.0
C1920 C 0.52341 0.31915 0.51685 0.0
H1921 H 0.69162 0.49482 0.52486 0.0
H1922 H 0.64593 0.44944 0.52446 0.0
C1923 C 0.50002 0.29114 0.5157 0.0
C1924 C 0.56212 0.36722 0.5117 0.0
H1925 H 0.63367 0.40188 0.51638 0.0
C1926 C 0.56026 0.39158 0.5096 0.0
C1927 C 0.58893 0.37104 0.5142 0.0
C1928 C 0.59256 0.34565 0.51626 0.0
C1929 C 0.58439 0.41962 0.50998 0.0
C1930 C 0.61133 0.4234 0.51235 0.0
C1931 C 0.61307 0.39904 0.51454 0.0
C1932 C 0.63809 0.45231 0.51261 0.0
C1933 C 0.58066 0.44494 0.50792 0.0
C1934 C 0.649 0.46937 0.50608 0.0
C1935 C 0.67524 0.49563 0.50628 0.0
C1936 C 0.6913 0.50519 0.51301 0.0
C1937 C 0.68 0.48823 0.51956 0.0
C1938 C 0.6538 0.46216 0.51935 0.0
H1939 H 0.55774 0.43942 0.50838 0.0
H1940 H 0.59398 0.46383 0.51161 0.0
H1941 H 0.58761 0.45126 0.50199 0.0
H1942 H 0.63766 0.46201 0.50076 0.0
H1943 H 0.68336 0.50793 0.50112 0.0
H1944 H 0.50308 0.1779 0.50133 0.0
H1945 H 0.54954 0.17914 0.50125 0.0
H1946 H 0.55634 0.19223 0.52535 0.0
H1947 H 0.51042 0.1914 0.52547 0.0
H1948 H 0.60399 0.23266 0.51799 0.0
H1949 H 0.5761 0.12323 0.50812 0.0
H1950 H 0.56297 0.14116 0.5021 0.0
H1951 H 0.5493 0.13158 0.51156 0.0
C1952 C 0.51417 0.18042 0.50663 0.0
C1953 C 0.50306 0.18473 0.51339 0.0
C1954 C 0.54071 0.18103 0.50658 0.0
C1955 C 0.5564 0.18562 0.51331 0.0
C1956 C 0.54469 0.18868 0.52009 0.0
H1957 H 0.72138 0.18739 0.51824 0.0
H1958 H 0.67116 0.17629 0.52003 0.0
C1959 C 0.51837 0.18822 0.52014 0.0
C1960 C 0.58614 0.19 0.51324 0.0
H1961 H 0.62624 0.15891 0.50827 0.0
C1962 C 0.60876 0.21641 0.51592 0.0
C1963 C 0.59241 0.1687 0.51062 0.0
C1964 C 0.5689 0.13946 0.508 0.0
C1965 C 0.63748 0.22242 0.51586 0.0
C1966 C 0.64389 0.20163 0.51295 0.0
C1967 C 0.62126 0.17487 0.51047 0.0
C1968 C 0.67415 0.20816 0.51201 0.0
C1969 C 0.6608 0.25107 0.51887 0.0
C1970 C 0.69232 0.22964 0.50691 0.0
C1971 C 0.72074 0.23591 0.50588 0.0
C1972 C 0.73164 0.22082 0.50991 0.0
C1973 C 0.71355 0.19942 0.51508 0.0
C1974 C 0.6849 0.19299 0.51608 0.0
H1975 H 0.65183 0.26127 0.52265 0.0
H1976 H 0.6773 0.2485 0.52204 0.0
H1977 H 0.6717 0.26596 0.51408 0.0
H1978 H 0.68439 0.24138 0.50366 0.0
H1979 H 0.73414 0.2525 0.50185 0.0
H1980 H 0.81901 0.42371 0.68864 0.0
H1981 H 0.78058 0.43491 0.68657 0.0
H1982 H 0.83208 0.49715 0.66956 0.0
H1983 H 0.87102 0.48601 0.67164 0.0
H1984 H 0.80569 0.51714 0.68059 0.0
H1985 H 0.72672 0.41178 0.66802 0.0
H1986 H 0.74193 0.40864 0.67675 0.0
H1987 H 0.76479 0.42388 0.66864 0.0
C1988 C 0.82217 0.43969 0.68442 0.0
C1989 C 0.84802 0.45397 0.68029 0.0
C1990 C 0.80011 0.44599 0.68323 0.0
C1991 C 0.80333 0.46665 0.67786 0.0
C1992 C 0.82914 0.48105 0.67371 0.0
H1993 H 0.65397 0.48049 0.66461 0.0
H1994 H 0.69879 0.47899 0.66444 0.0
C1995 C 0.85128 0.47462 0.67488 0.0
C1996 C 0.77971 0.47327 0.67675 0.0
H1997 H 0.70818 0.4416 0.67232 0.0
C1998 C 0.78443 0.50078 0.6787 0.0
C1999 C 0.75207 0.45198 0.67422 0.0
C2000 C 0.74605 0.42248 0.67172 0.0
C2001 C 0.76194 0.50721 0.67843 0.0
C2002 C 0.73393 0.48544 0.67624 0.0
C2003 C 0.72955 0.45826 0.67406 0.0
C2004 C 0.70864 0.48998 0.67623 0.0
C2005 C 0.76841 0.53727 0.68045 0.0
C2006 C 0.69936 0.49715 0.6829 0.0
C2007 C 0.67369 0.49822 0.68302 0.0
C2008 C 0.65663 0.49176 0.67648 0.0
C2009 C 0.66648 0.48549 0.66977 0.0
C2010 C 0.69214 0.4846 0.66965 0.0
H2011 H 0.79174 0.55327 0.67981 0.0
H2012 H 0.75582 0.5441 0.67688 0.0
H2013 H 0.76245 0.53759 0.68644 0.0
H2014 H 0.71134 0.50079 0.6881 0.0
H2015 H 0.66661 0.50286 0.6883 0.0
H2016 H 0.50354 0.16444 0.68787 0.0
H2017 H 0.50432 0.21065 0.68784 0.0
H2018 H 0.52393 0.22 0.66404 0.0
H2019 H 0.52386 0.17435 0.66408 0.0
H2020 H 0.5615 0.26666 0.6716 0.0
H2021 H 0.45113 0.23855 0.68038 0.0
H2022 H 0.4678 0.22538 0.68681 0.0
H2023 H 0.45999 0.21168 0.67731 0.0
C2024 C 0.50734 0.17601 0.6826 0.0
C2025 C 0.51377 0.16575 0.67599 0.0
C2026 C 0.50767 0.20242 0.68257 0.0
C2027 C 0.51396 0.21879 0.67592 0.0
C2028 C 0.51902 0.20783 0.66925 0.0
H2029 H 0.51765 0.38537 0.67211 0.0
H2030 H 0.50523 0.3348 0.67014 0.0
C2031 C 0.51897 0.18167 0.66928 0.0
C2032 C 0.51835 0.24859 0.67603 0.0
H2033 H 0.48737 0.28872 0.68108 0.0
C2034 C 0.54511 0.27137 0.6736 0.0
C2035 C 0.49694 0.25485 0.67855 0.0
C2036 C 0.46725 0.23129 0.68084 0.0
C2037 C 0.55138 0.30016 0.67385 0.0
C2038 C 0.53055 0.30656 0.67673 0.0
C2039 C 0.50341 0.2838 0.67892 0.0
C2040 C 0.53738 0.33685 0.67792 0.0
C2041 C 0.58037 0.32356 0.67104 0.0
C2042 C 0.55928 0.35457 0.68299 0.0
C2043 C 0.56637 0.38322 0.6841 0.0
C2044 C 0.5516 0.3948 0.6802 0.0
C2045 C 0.52945 0.37703 0.67516 0.0
C2046 C 0.52229 0.34818 0.67406 0.0
H2047 H 0.59028 0.31484 0.66709 0.0
H2048 H 0.57847 0.34094 0.66814 0.0
H2049 H 0.59519 0.33327 0.67591 0.0
H2050 H 0.5709 0.34618 0.68611 0.0
H2051 H 0.58348 0.39631 0.68804 0.0
H2052 H 0.8556 0.33489 0.68538 0.0
H2053 H 0.81067 0.28799 0.68577 0.0
H2054 H 0.77421 0.31717 0.66855 0.0
H2055 H 0.81877 0.36306 0.66793 0.0
H2056 H 0.7586 0.27542 0.68967 0.0
H2057 H 0.7516 0.23992 0.6602 0.0
H2058 H 0.78414 0.26976 0.66402 0.0
H2059 H 0.75576 0.27529 0.66039 0.0
C2060 C 0.83816 0.33107 0.68159 0.0
C2061 C 0.84101 0.35275 0.67658 0.0
C2062 C 0.81246 0.30426 0.68182 0.0
C2063 C 0.78915 0.29865 0.67706 0.0
C2064 C 0.79208 0.32037 0.67209 0.0
H2065 H 0.60867 0.19481 0.68584 0.0
H2066 H 0.65964 0.23119 0.6847 0.0
C2067 C 0.81768 0.34686 0.6718 0.0
C2068 C 0.76089 0.27126 0.67763 0.0
H2069 H 0.70592 0.22002 0.66692 0.0
C2070 C 0.74733 0.26303 0.68471 0.0
C2071 C 0.74622 0.25448 0.67121 0.0
C2072 C 0.76039 0.26016 0.66355 0.0
C2073 C 0.71902 0.23974 0.68546 0.0
C2074 C 0.70336 0.2248 0.67892 0.0
C2075 C 0.71754 0.23183 0.67192 0.0
C2076 C 0.67201 0.20279 0.67921 0.0
C2077 C 0.70628 0.23148 0.69328 0.0
C2078 C 0.66144 0.17509 0.67608 0.0
C2079 C 0.63198 0.15437 0.67655 0.0
C2080 C 0.61269 0.16101 0.68021 0.0
C2081 C 0.62312 0.18898 0.68308 0.0
C2082 C 0.65235 0.20972 0.68251 0.0
H2083 H 0.72339 0.23723 0.69759 0.0
H2084 H 0.69499 0.24355 0.69466 0.0
H2085 H 0.69061 0.20799 0.69369 0.0
H2086 H 0.67606 0.16929 0.67341 0.0
H2087 H 0.6245 0.13296 0.67429 0.0
H2088 H 0.59386 0.19434 0.18565 0.0
H2089 H 0.58079 0.23178 0.18422 0.0
H2090 H 0.50259 0.17122 0.17268 0.0
H2091 H 0.51637 0.13385 0.17381 0.0
H2092 H 0.52491 0.22229 0.1662 0.0
H2093 H 0.5231 0.23878 0.19689 0.0
H2094 H 0.55773 0.24453 0.19406 0.0
H2095 H 0.52621 0.20927 0.193 0.0
C2096 C 0.57394 0.18905 0.18277 0.0
C2097 C 0.55597 0.16115 0.17991 0.0
C2098 C 0.56633 0.21039 0.18202 0.0
C2099 C 0.54018 0.20413 0.17858 0.0
C2100 C 0.52269 0.17651 0.17545 0.0
H2101 H 0.48736 0.33439 0.18521 0.0
H2102 H 0.48661 0.28813 0.18524 0.0
C2103 C 0.53058 0.1552 0.17608 0.0
C2104 C 0.53148 0.22661 0.17824 0.0
H2105 H 0.52645 0.27697 0.189 0.0
C2106 C 0.52488 0.23399 0.17121 0.0
C2107 C 0.53051 0.24142 0.18477 0.0
C2108 C 0.53443 0.23284 0.19261 0.0
C2109 C 0.51892 0.2567 0.17049 0.0
C2110 C 0.52056 0.2732 0.17694 0.0
C2111 C 0.52564 0.26479 0.18402 0.0
C2112 C 0.51879 0.30014 0.17645 0.0
C2113 C 0.51078 0.26259 0.16281 0.0
C2114 C 0.53702 0.32238 0.17151 0.0
C2115 C 0.53712 0.34855 0.17141 0.0
C2116 C 0.51948 0.3535 0.17637 0.0
C2117 C 0.50114 0.33126 0.18131 0.0
C2118 C 0.50074 0.30481 0.18133 0.0
H2119 H 0.49982 0.24251 0.15938 0.0
H2120 H 0.49631 0.27184 0.16325 0.0
H2121 H 0.53065 0.27809 0.15974 0.0
H2122 H 0.55193 0.3199 0.16788 0.0
H2123 H 0.55184 0.3653 0.1676 0.0
H2124 H 0.85757 0.37871 0.19318 0.0
H2125 H 0.81832 0.32915 0.19146 0.0
H2126 H 0.81369 0.34607 0.16785 0.0
H2127 H 0.85375 0.39575 0.16953 0.0
H2128 H 0.76424 0.31272 0.18739 0.0
H2129 H 0.81054 0.26909 0.1667 0.0
H2130 H 0.8324 0.30256 0.1717 0.0
H2131 H 0.81154 0.30156 0.16363 0.0
C2132 C 0.8485 0.37177 0.18759 0.0
C2133 C 0.85874 0.39109 0.18148 0.0
C2134 C 0.826 0.34341 0.18662 0.0
C2135 C 0.81311 0.33365 0.17952 0.0
C2136 C 0.82364 0.3528 0.17335 0.0
H2137 H 0.65577 0.18136 0.16514 0.0
H2138 H 0.70152 0.22681 0.16594 0.0
C2139 C 0.84643 0.38124 0.17432 0.0
C2140 C 0.78741 0.30416 0.17877 0.0
H2141 H 0.76027 0.23996 0.16929 0.0
C2142 C 0.76352 0.29677 0.18347 0.0
C2143 C 0.78633 0.28329 0.17364 0.0
C2144 C 0.81166 0.28936 0.16868 0.0
C2145 C 0.73857 0.2694 0.18311 0.0
C2146 C 0.73747 0.24859 0.17798 0.0
C2147 C 0.76123 0.2559 0.17326 0.0
C2148 C 0.71129 0.21954 0.17729 0.0
C2149 C 0.71326 0.26317 0.18812 0.0
C2150 C 0.70196 0.19988 0.18332 0.0
C2151 C 0.67576 0.1737 0.18288 0.0
C2152 C 0.65836 0.16677 0.1764 0.0
C2153 C 0.66847 0.18601 0.17024 0.0
C2154 C 0.69469 0.21204 0.17068 0.0
H2155 H 0.71529 0.28319 0.19061 0.0
H2156 H 0.69271 0.25188 0.1849 0.0
H2157 H 0.71202 0.24886 0.19281 0.0
H2158 H 0.71464 0.20509 0.18845 0.0
H2159 H 0.66869 0.15944 0.18772 0.0
H2160 H 0.8361 0.48565 0.16407 0.0
H2161 H 0.79048 0.48561 0.16398 0.0
H2162 H 0.79379 0.49381 0.18822 0.0
H2163 H 0.83979 0.49436 0.18837 0.0
H2164 H 0.74119 0.44517 0.17048 0.0
H2165 H 0.77058 0.55256 0.18216 0.0
H2166 H 0.79723 0.54393 0.17877 0.0
H2167 H 0.78196 0.53283 0.18805 0.0
C2168 C 0.82743 0.48792 0.16939 0.0
C2169 C 0.84167 0.48996 0.17624 0.0
C2170 C 0.80129 0.48789 0.16932 0.0
C2171 C 0.78878 0.48999 0.17608 0.0
C2172 C 0.8033 0.49281 0.18291 0.0
H2173 H 0.61149 0.42182 0.18729 0.0
H2174 H 0.66116 0.43328 0.18518 0.0
C2175 C 0.82957 0.49297 0.18299 0.0
C2176 C 0.75941 0.48653 0.17602 0.0
H2177 H 0.72006 0.51726 0.18197 0.0
C2178 C 0.73668 0.46113 0.17292 0.0
C2179 C 0.75348 0.50746 0.17911 0.0
C2180 C 0.77715 0.53586 0.18214 0.0
C2181 C 0.70812 0.45558 0.17308 0.0
C2182 C 0.70199 0.47576 0.17654 0.0
C2183 C 0.72479 0.50171 0.17937 0.0
C2184 C 0.67185 0.46925 0.17772 0.0
C2185 C 0.68466 0.42797 0.16962 0.0
C2186 C 0.66144 0.48598 0.17431 0.0
C2187 C 0.63285 0.47943 0.1755 0.0
C2188 C 0.61448 0.45629 0.18021 0.0
C2189 C 0.6251 0.43978 0.18363 0.0
C2190 C 0.65347 0.44621 0.18241 0.0
H2191 H 0.69352 0.41898 0.16542 0.0
H2192 H 0.67385 0.41163 0.17412 0.0
H2193 H 0.66813 0.43151 0.16681 0.0
H2194 H 0.67536 0.50394 0.17069 0.0
H2195 H 0.62522 0.49255 0.17281 0.0
H2196 H 0.68259 0.17904 0.99982 0.0
H2197 H 0.6374 0.18028 0.9995 0.0
H2198 H 0.64256 0.19423 0.02354 0.0
H2199 H 0.6877 0.19339 0.02393 0.0
H2200 H 0.58413 0.14732 1.00697 0.0
H2201 H 0.6365 0.26259 0.01549 0.0
H2202 H 0.65688 0.24584 0.01244 0.0
H2203 H 0.64263 0.24013 0.02187 0.0
C2204 C 0.67403 0.18215 1.00505 0.0
C2205 C 0.68905 0.18637 0.01189 0.0
C2206 C 0.64817 0.18289 1.00486 0.0
C2207 C 0.63687 0.18796 1.01147 0.0
C2208 C 0.65118 0.19098 0.01834 0.0
H2209 H 0.49032 0.21579 0.01951 0.0
H2210 H 0.53068 0.20661 0.02128 0.0
C2211 C 0.67698 0.19032 0.01854 0.0
C2212 C 0.61042 0.19058 1.01119 0.0
H2213 H 0.58557 0.23734 0.01462 0.0
C2214 C 0.58445 0.16701 1.00863 0.0
C2215 C 0.61077 0.21624 0.0134 0.0
C2216 C 0.63821 0.24276 0.01589 0.0
C2217 C 0.55885 0.16834 1.00827 0.0
C2218 C 0.55929 0.1941 1.0104 0.0
C2219 C 0.58517 0.21754 0.01304 0.0
C2220 C 0.53366 0.19786 1.00948 0.0
C2221 C 0.53147 0.14201 1.00567 0.0
C2222 C 0.52199 0.19611 1.00228 0.0
C2223 C 0.49912 0.20138 1.00127 0.0
C2224 C 0.48741 0.20864 1.00743 0.0
C2225 C 0.4988 0.21008 0.01467 0.0
C2226 C 0.52187 0.2049 0.01568 0.0
H2227 H 0.53259 0.12196 1.00643 0.0
H2228 H 0.51242 0.13971 1.00879 0.0
H2229 H 0.52824 0.14418 0.99958 0.0
H2230 H 0.53106 0.19136 0.99739 0.0
H2231 H 0.49092 0.20026 0.99562 0.0
H2232 H 0.79412 0.27732 0.01916 0.0
H2233 H 0.80258 0.32672 0.02071 0.0
H2234 H 0.82505 0.34354 0.99715 0.0
H2235 H 0.81605 0.29435 0.99555 0.0
H2236 H 0.85036 0.38169 0.01809 0.0
H2237 H 0.75984 0.36138 0.99908 0.0
H2238 H 0.76483 0.33265 1.0027 0.0
H2239 H 0.78561 0.35374 0.99475 0.0
C2240 C 0.80106 0.29169 0.01434 0.0
C2241 C 0.80412 0.28193 1.00722 0.0
C2242 C 0.80588 0.31986 0.01523 0.0
C2243 C 0.81382 0.33863 1.00901 0.0
C2244 C 0.81822 0.32925 1.00199 0.0
H2245 H 0.84225 0.5108 1.00022 0.0
H2246 H 0.84213 0.46492 0.99983 0.0
C2247 C 0.81323 0.30116 1.00109 0.0
C2248 C 0.81679 0.36773 1.00973 0.0
H2249 H 0.79144 0.41021 1.0026 0.0
C2250 C 0.83738 0.3879 0.01474 0.0
C2251 C 0.79975 0.3758 1.00538 0.0
C2252 C 0.77607 0.35468 1.00023 0.0
C2253 C 0.84187 0.41612 0.01535 0.0
C2254 C 0.82517 0.42426 1.01089 0.0
C2255 C 0.80445 0.40403 1.00595 0.0
C2256 C 0.82813 0.45338 1.0114 0.0
C2257 C 0.86481 0.43719 0.02066 0.0
C2258 C 0.8205 0.46222 0.01804 0.0
C2259 C 0.82043 0.48834 0.01828 0.0
C2260 C 0.82798 0.50621 0.01186 0.0
C2261 C 0.83646 0.49769 1.00528 0.0
C2262 C 0.83634 0.47143 1.00504 0.0
H2263 H 0.88015 0.4299 0.02233 0.0
H2264 H 0.87711 0.4589 0.01803 0.0
H2265 H 0.85437 0.43927 0.02585 0.0
H2266 H 0.81362 0.44843 0.02298 0.0
H2267 H 0.81372 0.49416 0.02344 0.0
H2268 H 0.50811 0.32537 0.02446 0.0
H2269 H 0.55403 0.37059 0.02437 0.0
H2270 H 0.55095 0.37314 1.00008 0.0
H2271 H 0.50462 0.32794 1.00011 0.0
H2272 H 0.60282 0.37708 0.01785 0.0
H2273 H 0.57599 0.45633 1.00573 0.0
H2274 H 0.5488 0.42167 1.00933 0.0
H2275 H 0.56371 0.42443 1.00007 0.0
C2276 C 0.51688 0.33572 0.01909 0.0
C2277 C 0.50266 0.3229 0.01228 0.0
C2278 C 0.54318 0.36164 0.01906 0.0
C2279 C 0.55587 0.37541 0.01223 0.0
C2280 C 0.54131 0.36323 1.00543 0.0
H2281 H 0.73411 0.48278 1.00123 0.0
H2282 H 0.68403 0.44491 1.00308 0.0
C2283 C 0.51486 0.33729 1.00545 0.0
C2284 C 0.58552 0.40083 0.01222 0.0
H2285 H 0.62618 0.47066 1.00622 0.0
C2286 C 0.60783 0.39762 0.01538 0.0
C2287 C 0.59207 0.42774 1.00906 0.0
C2288 C 0.56885 0.43292 1.00592 0.0
C2289 C 0.63658 0.42022 0.01524 0.0
C2290 C 0.6433 0.44664 0.01176 0.0
C2291 C 0.62095 0.45028 1.00884 0.0
C2292 C 0.67361 0.46996 1.01072 0.0
C2293 C 0.65962 0.41558 0.01876 0.0
C2294 C 0.68428 0.49677 0.01435 0.0
C2295 C 0.71306 0.51854 0.01332 0.0
C2296 C 0.73138 0.51385 1.00857 0.0
C2297 C 0.72051 0.48703 1.00493 0.0
C2298 C 0.69193 0.46533 1.006 0.0
H2299 H 0.65035 0.39736 0.02284 0.0
H2300 H 0.67077 0.4104 0.01426 0.0
H2301 H 0.67598 0.43537 0.02172 0.0
H2302 H 0.6704 0.50075 0.01801 0.0
H2303 H 0.72088 0.53906 0.01617 0.0
H2304 H 0.46024 0.85219 0.85419 0.0
H2305 H 0.46998 0.81234 0.85637 0.0
H2306 H 0.48972 0.81274 0.83276 0.0
H2307 H 0.47999 0.85215 0.83056 0.0
H2308 H 0.44069 0.75689 0.84896 0.0
H2309 H 0.5585 0.81321 0.84349 0.0
H2310 H 0.53945 0.83229 0.84566 0.0
H2311 H 0.53789 0.81847 0.83631 0.0
C2312 C 0.46697 0.84394 0.8495 0.0
C2313 C 0.46938 0.85528 0.84221 0.0
C2314 C 0.4725 0.8212 0.85074 0.0
C2315 C 0.48098 0.80981 0.84474 0.0
C2316 C 0.48377 0.82149 0.8375 0.0
H2317 H 0.50754 0.6652 0.83581 0.0
H2318 H 0.50656 0.7106 0.83555 0.0
C2319 C 0.47803 0.84393 0.83625 0.0
C2320 C 0.48513 0.78453 0.84586 0.0
H2321 H 0.53414 0.76172 0.84372 0.0
C2322 C 0.4612 0.75799 0.84791 0.0
C2323 C 0.51183 0.78594 0.84441 0.0
C2324 C 0.53848 0.81405 0.84241 0.0
C2325 C 0.46298 0.73265 0.84831 0.0
C2326 C 0.48966 0.73398 0.84681 0.0
C2327 C 0.51371 0.76065 0.84486 0.0
C2328 C 0.49279 0.70781 0.84716 0.0
C2329 C 0.43591 0.70449 0.85005 0.0
C2330 C 0.48647 0.69168 0.85384 0.0
C2331 C 0.48687 0.66573 0.85399 0.0
C2332 C 0.49402 0.65545 0.84749 0.0
C2333 C 0.50197 0.67246 0.84091 0.0
C2334 C 0.50134 0.6984 0.84075 0.0
H2335 H 0.41613 0.7058 0.84899 0.0
H2336 H 0.43476 0.68656 0.84661 0.0
H2337 H 0.43599 0.69916 0.8561 0.0
H2338 H 0.48063 0.69886 0.85891 0.0
H2339 H 0.48096 0.65341 0.85918 0.0
H2340 H 0.13948 0.62446 0.85082 0.0
H2341 H 0.17859 0.67481 0.8524 0.0
H2342 H 0.22973 0.66078 0.83594 0.0
H2343 H 0.19125 0.61087 0.8344 0.0
H2344 H 0.25992 0.6873 0.84898 0.0
H2345 H 0.20384 0.74301 0.83756 0.0
H2346 H 0.18547 0.71742 0.845 0.0
H2347 H 0.1907 0.70503 0.83604 0.0
C2348 C 0.15907 0.63223 0.84754 0.0
C2349 C 0.16226 0.61378 0.84246 0.0
C2350 C 0.1813 0.66101 0.84841 0.0
C2351 C 0.20696 0.67168 0.84421 0.0
C2352 C 0.21012 0.65311 0.8392 0.0
H2353 H 0.3512 0.84226 0.83471 0.0
H2354 H 0.30584 0.79587 0.83437 0.0
C2355 C 0.18805 0.62455 0.83833 0.0
C2356 C 0.23118 0.70182 0.84512 0.0
H2357 H 0.25137 0.77265 0.8421 0.0
C2358 C 0.25799 0.70596 0.84752 0.0
C2359 C 0.22874 0.72613 0.84311 0.0
C2360 C 0.20074 0.72286 0.84022 0.0
C2361 C 0.28244 0.73365 0.84793 0.0
C2362 C 0.27997 0.75803 0.84601 0.0
C2363 C 0.25316 0.75396 0.84362 0.0
C2364 C 0.30531 0.78774 0.84635 0.0
C2365 C 0.31093 0.73645 0.85021 0.0
C2366 C 0.31947 0.79907 0.85322 0.0
C2367 C 0.34537 0.8254 0.85343 0.0
C2368 C 0.3576 0.8412 0.84677 0.0
C2369 C 0.34244 0.83068 0.83994 0.0
C2370 C 0.31651 0.80415 0.83974 0.0
H2371 H 0.31066 0.7156 0.8497 0.0
H2372 H 0.32883 0.75282 0.8467 0.0
H2373 H 0.3155 0.7435 0.85619 0.0
H2374 H 0.31093 0.78709 0.85841 0.0
H2375 H 0.35618 0.83297 0.85881 0.0
H2376 H 0.38525 0.51248 0.84947 0.0
H2377 H 0.33389 0.49805 0.85042 0.0
H2378 H 0.35168 0.57739 0.8395 0.0
H2379 H 0.40241 0.59116 0.83827 0.0
H2380 H 0.30421 0.51932 0.857 0.0
H2381 H 0.28838 0.52059 0.82629 0.0
H2382 H 0.32075 0.52348 0.83026 0.0
H2383 H 0.31694 0.55502 0.82937 0.0
C2384 C 0.3781 0.52681 0.84731 0.0
C2385 C 0.39765 0.55274 0.84371 0.0
C2386 C 0.34878 0.51854 0.84783 0.0
C2387 C 0.33866 0.53618 0.84481 0.0
C2388 C 0.35863 0.56284 0.84161 0.0
H2389 H 0.19076 0.54926 0.85564 0.0
H2390 H 0.23551 0.54807 0.85531 0.0
C2391 C 0.3877 0.57084 0.84098 0.0
C2392 C 0.30741 0.52716 0.84502 0.0
H2393 H 0.253 0.52346 0.83412 0.0
C2394 C 0.29289 0.51983 0.85197 0.0
C2395 C 0.29217 0.52686 0.83844 0.0
C2396 C 0.3053 0.53158 0.83067 0.0
C2397 C 0.26424 0.51396 0.8526 0.0
C2398 C 0.24999 0.51643 0.84614 0.0
C2399 C 0.26394 0.52204 0.83911 0.0
C2400 C 0.22164 0.51538 0.8466 0.0
C2401 C 0.24964 0.50516 0.8602 0.0
C2402 C 0.19891 0.49805 0.84164 0.0
C2403 C 0.17324 0.49915 0.84169 0.0
C2404 C 0.16978 0.51754 0.84673 0.0
C2405 C 0.19242 0.53452 0.85174 0.0
C2406 C 0.21808 0.53369 0.85162 0.0
H2407 H 0.25819 0.49353 0.86355 0.0
H2408 H 0.25412 0.52479 0.86341 0.0
H2409 H 0.22591 0.49106 0.85963 0.0
H2410 H 0.20118 0.48392 0.83765 0.0
H2411 H 0.15629 0.48587 0.83773 0.0
H2412 H 0.4882 0.7575 0.02346 0.0
H2413 H 0.44932 0.76832 0.02189 0.0
H2414 H 0.49881 0.83153 1.00487 0.0
H2415 H 0.53831 0.82089 1.00646 0.0
H2416 H 0.47146 0.84997 0.01606 0.0
H2417 H 0.39513 0.74374 1.0034 0.0
H2418 H 0.41081 0.74117 0.01212 0.0
H2419 H 0.43346 0.75712 1.004 0.0
C2420 C 0.49089 0.77372 0.01937 0.0
C2421 C 0.51627 0.7883 0.01506 0.0
C2422 C 0.46858 0.77981 0.01847 0.0
C2423 C 0.47103 0.80047 0.01321 0.0
C2424 C 0.49649 0.81542 1.00894 0.0
H2425 H 0.32008 0.80874 0.99924 0.0
H2426 H 0.36548 0.80852 0.99954 0.0
C2427 C 0.51894 0.80928 1.00984 0.0
C2428 C 0.4467 0.80601 0.01219 0.0
H2429 H 0.37516 0.77224 1.00768 0.0
C2430 C 0.45045 0.83313 0.01415 0.0
C2431 C 0.4194 0.78407 1.00964 0.0
C2432 C 0.41443 0.75497 1.0071 0.0
C2433 C 0.42731 0.83859 0.01384 0.0
C2434 C 0.39968 0.81619 0.01161 0.0
C2435 C 0.39624 0.78936 1.00945 0.0
C2436 C 0.3739 0.81986 1.01136 0.0
C2437 C 0.43272 0.86832 0.01585 0.0
C2438 C 0.36363 0.82678 0.01789 0.0
C2439 C 0.33759 0.82714 0.01773 0.0
C2440 C 0.3212 0.82013 1.01106 0.0
C2441 C 0.332 0.814 1.0045 0.0
C2442 C 0.35802 0.8139 1.00465 0.0
H2443 H 0.45594 0.88484 0.01534 0.0
H2444 H 0.42001 0.87467 0.01217 0.0
H2445 H 0.42609 0.86829 0.02178 0.0
H2446 H 0.37516 0.83086 0.02318 0.0
H2447 H 0.32976 0.83176 0.02288 0.0
H2448 H 0.22005 0.73184 1.0041 0.0
H2449 H 0.21063 0.68217 1.00239 0.0
H2450 H 0.19343 0.66641 0.02621 0.0
H2451 H 0.20266 0.71565 0.02793 0.0
H2452 H 0.24079 0.65769 1.00961 0.0
H2453 H 0.12412 0.59607 0.01655 0.0
H2454 H 0.1425 0.63397 0.01414 0.0
H2455 H 0.1458 0.62272 0.02347 0.0
C2456 C 0.2139 0.71761 1.00894 0.0
C2457 C 0.21199 0.72756 0.01614 0.0
C2458 C 0.20857 0.68929 1.00796 0.0
C2459 C 0.2009 0.67041 0.01416 0.0
C2460 C 0.19871 0.68033 0.02132 0.0
H2461 H 0.17748 0.49978 0.02297 0.0
H2462 H 0.17898 0.54638 0.02365 0.0
C2463 C 0.20417 0.70857 0.0223 0.0
C2464 C 0.19692 0.64096 0.01327 0.0
H2465 H 0.14872 0.56925 0.01603 0.0
C2466 C 0.22057 0.63833 1.01093 0.0
C2467 C 0.17062 0.61572 0.01508 0.0
C2468 C 0.1442 0.61712 0.01739 0.0
C2469 C 0.21889 0.61127 1.01053 0.0
C2470 C 0.19259 0.58599 0.01235 0.0
C2471 C 0.16886 0.58859 0.01465 0.0
C2472 C 0.1894 0.55673 0.01184 0.0
C2473 C 0.2456 0.6101 1.00839 0.0
C2474 C 0.19375 0.5466 1.00494 0.0
C2475 C 0.19299 0.52012 1.00454 0.0
C2476 C 0.18755 0.50292 1.01103 0.0
C2477 C 0.18174 0.51243 0.01787 0.0
C2478 C 0.18265 0.5391 0.01827 0.0
H2479 H 0.26553 0.63132 1.0092 0.0
H2480 H 0.24747 0.59362 0.01176 0.0
H2481 H 0.24431 0.6042 1.00234 0.0
H2482 H 0.19824 0.55943 0.99987 0.0
H2483 H 0.1972 0.51341 0.99915 0.0
H2484 H 0.29487 0.4891 0.02699 0.0
H2485 H 0.34393 0.52891 0.02497 0.0
H2486 H 0.32632 0.52847 1.00121 0.0
H2487 H 0.27677 0.48838 1.00322 0.0
H2488 H 0.38883 0.53345 0.01551 0.0
H2489 H 0.35447 0.61266 1.00785 0.0
H2490 H 0.33037 0.57852 0.01228 0.0
H2491 H 0.33868 0.57985 1.00242 0.0
C2492 C 0.30144 0.49735 0.02132 0.0
C2493 C 0.28191 0.48574 0.01526 0.0
C2494 C 0.32954 0.5201 0.02017 0.0
C2495 C 0.33876 0.53196 0.01296 0.0
C2496 C 0.31955 0.51994 1.00685 0.0
H2497 H 0.4968 0.68701 0.99931 0.0
H2498 H 0.45099 0.64165 0.99949 0.0
C2499 C 0.29132 0.49697 1.00799 0.0
C2500 C 0.36826 0.55731 0.01198 0.0
H2501 H 0.40434 0.62937 1.00785 0.0
C2502 C 0.39226 0.55441 0.0138 0.0
C2503 C 0.37273 0.58467 1.00977 0.0
C2504 C 0.34777 0.58936 1.00802 0.0
C2505 C 0.42058 0.57807 0.01343 0.0
C2506 C 0.42503 0.60558 1.01136 0.0
C2507 C 0.40101 0.60834 1.00944 0.0
C2508 C 0.45427 0.63192 1.01117 0.0
C2509 C 0.44545 0.57325 0.01516 0.0
C2510 C 0.47173 0.6416 0.01766 0.0
C2511 C 0.49823 0.6676 0.01757 0.0
C2512 C 0.50761 0.68463 1.011 0.0
C2513 C 0.49031 0.67454 1.00448 0.0
C2514 C 0.46401 0.64856 1.00457 0.0
H2515 H 0.43929 0.55022 0.01442 0.0
H2516 H 0.4643 0.58672 1.01149 0.0
H2517 H 0.4521 0.57924 0.02112 0.0
H2518 H 0.46447 0.62955 0.02288 0.0
H2519 H 0.51082 0.67484 0.02271 0.0
H2520 H 0.18439 0.46996 0.50585 0.0
H2521 H 0.17299 0.50889 0.50407 0.0
H2522 H 0.24167 0.56315 0.51936 0.0
H2523 H 0.25314 0.52475 0.52113 0.0
H2524 H 0.15833 0.53893 0.51562 0.0
H2525 H 0.25837 0.61237 0.49996 0.0
H2526 H 0.24553 0.57424 0.501 0.0
H2527 H 0.26455 0.59878 0.5086 0.0
C2528 C 0.19708 0.49026 0.50879 0.0
C2529 C 0.21968 0.49435 0.51362 0.0
C2530 C 0.1905 0.5124 0.50779 0.0
C2531 C 0.20666 0.53899 0.51153 0.0
C2532 C 0.22915 0.54296 0.51635 0.0
H2533 H 0.17969 0.68207 0.52192 0.0
H2534 H 0.18014 0.63644 0.52204 0.0
C2535 C 0.23561 0.52093 0.51737 0.0
C2536 C 0.20032 0.56283 0.5105 0.0
H2537 H 0.23135 0.63311 0.50485 0.0
C2538 C 0.17411 0.55945 0.51319 0.0
C2539 C 0.22083 0.58948 0.50727 0.0
C2540 C 0.2488 0.59396 0.50398 0.0
C2541 C 0.1683 0.58239 0.51296 0.0
C2542 C 0.18943 0.60948 0.51005 0.0
C2543 C 0.21522 0.61246 0.50714 0.0
C2544 C 0.1856 0.63523 0.50996 0.0
C2545 C 0.13958 0.57737 0.51581 0.0
C2546 C 0.18847 0.64978 0.50315 0.0
C2547 C 0.18853 0.67593 0.50307 0.0
C2548 C 0.18573 0.68826 0.50982 0.0
C2549 C 0.18166 0.6731 0.51662 0.0
C2550 C 0.1818 0.64691 0.51669 0.0
H2551 H 0.12305 0.55405 0.51578 0.0
H2552 H 0.1421 0.58527 0.52171 0.0
H2553 H 0.13163 0.58925 0.51234 0.0
H2554 H 0.19143 0.64124 0.49789 0.0
H2555 H 0.19152 0.68685 0.49772 0.0
H2556 H 0.52212 0.71298 0.52646 0.0
H2557 H 0.48191 0.66417 0.52448 0.0
H2558 H 0.47918 0.68315 0.50094 0.0
H2559 H 0.5202 0.7322 0.50288 0.0
H2560 H 0.42812 0.65025 0.52005 0.0
H2561 H 0.47413 0.60473 0.49978 0.0
H2562 H 0.49633 0.63753 0.50501 0.0
H2563 H 0.47663 0.63807 0.49686 0.0
C2564 C 0.51324 0.70668 0.52083 0.0
C2565 C 0.52429 0.72639 0.51482 0.0
C2566 C 0.4902 0.67874 0.51971 0.0
C2567 C 0.47757 0.6698 0.51256 0.0
C2568 C 0.48889 0.6893 0.50648 0.0
H2569 H 0.32002 0.51502 0.49864 0.0
H2570 H 0.36524 0.56115 0.49907 0.0
C2571 C 0.51222 0.71736 0.5076 0.0
C2572 C 0.45143 0.64075 0.51169 0.0
H2573 H 0.42421 0.57586 0.50256 0.0
C2574 C 0.42735 0.63398 0.51624 0.0
C2575 C 0.45032 0.61953 0.50669 0.0
C2576 C 0.47579 0.62513 0.50185 0.0
C2577 C 0.40228 0.60671 0.51594 0.0
C2578 C 0.40129 0.58539 0.51103 0.0
C2579 C 0.42512 0.5922 0.50637 0.0
C2580 C 0.37535 0.55611 0.51058 0.0
C2581 C 0.37684 0.60108 0.52082 0.0
C2582 C 0.3664 0.53753 0.51684 0.0
C2583 C 0.34053 0.51102 0.51662 0.0
C2584 C 0.32309 0.50262 0.51012 0.0
C2585 C 0.33278 0.52081 0.50375 0.0
C2586 C 0.35869 0.54721 0.50397 0.0
H2587 H 0.37865 0.62143 0.52299 0.0
H2588 H 0.35632 0.58904 0.51762 0.0
H2589 H 0.37576 0.58772 0.52573 0.0
H2590 H 0.37916 0.54383 0.52197 0.0
H2591 H 0.3338 0.49758 0.52162 0.0
H2592 H 0.50975 0.83125 0.52201 0.0
H2593 H 0.46335 0.8302 0.52233 0.0
H2594 H 0.45136 0.80929 0.49863 0.0
H2595 H 0.49717 0.80986 0.49827 0.0
H2596 H 0.44167 0.86054 0.51438 0.0
H2597 H 0.37814 0.74354 0.50773 0.0
H2598 H 0.41566 0.76106 0.51044 0.0
H2599 H 0.40574 0.76425 0.50094 0.0
C2600 C 0.49736 0.82666 0.51685 0.0
C2601 C 0.50718 0.82034 0.51014 0.0
C2602 C 0.47079 0.82602 0.51705 0.0
C2603 C 0.45349 0.81899 0.51054 0.0
C2604 C 0.46388 0.81399 0.50377 0.0
H2605 H 0.27841 0.79058 0.50275 0.0
H2606 H 0.32774 0.79922 0.5008 0.0
C2607 C 0.49027 0.8145 0.50357 0.0
C2608 C 0.42441 0.81641 0.51083 0.0
H2609 H 0.35253 0.76904 0.50797 0.0
C2610 C 0.42219 0.84053 0.51299 0.0
C2611 C 0.39891 0.79032 0.50898 0.0
C2612 C 0.39958 0.76322 0.50696 0.0
C2613 C 0.39529 0.8393 0.5133 0.0
C2614 C 0.36981 0.81314 0.51152 0.0
C2615 C 0.37205 0.78915 0.50927 0.0
C2616 C 0.34052 0.80956 0.5125 0.0
C2617 C 0.3944 0.86612 0.51549 0.0
C2618 C 0.33125 0.81234 0.51969 0.0
C2619 C 0.30324 0.80729 0.5208 0.0
C2620 C 0.28373 0.7993 0.51475 0.0
C2621 C 0.29302 0.79685 0.5075 0.0
C2622 C 0.32115 0.80173 0.5064 0.0
H2623 H 0.41553 0.88597 0.51451 0.0
H2624 H 0.37751 0.86782 0.51226 0.0
H2625 H 0.38924 0.86512 0.52158 0.0
H2626 H 0.3455 0.81775 0.52451 0.0
H2627 H 0.29672 0.80924 0.52646 0.0
H2628 H 0.19041 0.5833 0.33365 0.0
H2629 H 0.22842 0.57141 0.33556 0.0
H2630 H 0.17936 0.51354 0.35363 0.0
H2631 H 0.14076 0.52521 0.35167 0.0
H2632 H 0.26106 0.57865 0.34832 0.0
H2633 H 0.19861 0.46308 0.33988 0.0
H2634 H 0.18648 0.48838 0.33784 0.0
H2635 H 0.18281 0.47405 0.3472 0.0
C2636 C 0.18763 0.56801 0.33804 0.0
C2637 C 0.16252 0.55503 0.34248 0.0
C2638 C 0.20941 0.56124 0.33912 0.0
C2639 C 0.20659 0.54127 0.34466 0.0
C2640 C 0.18175 0.5286 0.34922 0.0
H2641 H 0.35567 0.52783 0.35874 0.0
H2642 H 0.31139 0.5304 0.35866 0.0
C2643 C 0.15983 0.53542 0.34814 0.0
C2644 C 0.23015 0.53447 0.34566 0.0
H2645 H 0.24676 0.48071 0.34385 0.0
C2646 C 0.25789 0.55719 0.34739 0.0
C2647 C 0.22605 0.50654 0.34433 0.0
C2648 C 0.19697 0.48158 0.34215 0.0
C2649 C 0.28166 0.55286 0.3478 0.0
C2650 C 0.27755 0.52487 0.34657 0.0
C2651 C 0.2498 0.50207 0.34485 0.0
C2652 C 0.30212 0.51932 0.34685 0.0
C2653 C 0.31116 0.57854 0.34931 0.0
C2654 C 0.31085 0.51073 0.34033 0.0
C2655 C 0.33615 0.50897 0.34037 0.0
C2656 C 0.35312 0.51581 0.34694 0.0
C2657 C 0.34333 0.52275 0.35356 0.0
C2658 C 0.31805 0.52434 0.35352 0.0
H2659 H 0.3117 0.59931 0.34831 0.0
H2660 H 0.31706 0.57814 0.35529 0.0
H2661 H 0.32777 0.57785 0.34569 0.0
H2662 H 0.29878 0.50661 0.33513 0.0
H2663 H 0.34306 0.50357 0.33518 0.0
H2664 H 0.42545 0.60919 0.33397 0.0
H2665 H 0.43673 0.65908 0.33524 0.0
H2666 H 0.49956 0.67343 0.35244 0.0
H2667 H 0.48863 0.62308 0.35108 0.0
H2668 H 0.43059 0.68529 0.3477 0.0
H2669 H 0.54477 0.74191 0.33806 0.0
H2670 H 0.5207 0.70378 0.33652 0.0
H2671 H 0.53645 0.71669 0.34566 0.0
C2672 C 0.44182 0.62293 0.338 0.0
C2673 C 0.45628 0.61224 0.3424 0.0
C2674 C 0.44823 0.65149 0.33872 0.0
C2675 C 0.46924 0.67015 0.34386 0.0
C2676 C 0.48367 0.65958 0.34833 0.0
H2677 H 0.4766 0.82935 0.35794 0.0
H2678 H 0.47574 0.78337 0.35755 0.0
C2679 C 0.47727 0.6308 0.34759 0.0
C2680 C 0.47479 0.70019 0.34464 0.0
H2681 H 0.52583 0.77124 0.3422 0.0
C2682 C 0.45146 0.70408 0.34653 0.0
C2683 C 0.50191 0.72467 0.343 0.0
C2684 C 0.5274 0.72172 0.34063 0.0
C2685 C 0.45441 0.73165 0.34679 0.0
C2686 C 0.48164 0.7562 0.34529 0.0
C2687 C 0.50504 0.75241 0.3434 0.0
C2688 C 0.48589 0.78584 0.34566 0.0
C2689 C 0.42806 0.73414 0.34847 0.0
C2690 C 0.49332 0.80326 0.33918 0.0
C2691 C 0.49412 0.82989 0.33939 0.0
C2692 C 0.48738 0.8394 0.34609 0.0
C2693 C 0.48142 0.8225 0.35264 0.0
C2694 C 0.48087 0.79614 0.35244 0.0
H2695 H 0.40775 0.71339 0.34751 0.0
H2696 H 0.42852 0.74022 0.35448 0.0
H2697 H 0.42764 0.75104 0.34492 0.0
H2698 H 0.49743 0.79576 0.33389 0.0
H2699 H 0.49885 0.84243 0.33425 0.0
H2700 H 0.18114 0.656 0.35768 0.0
H2701 H 0.22672 0.7015 0.3571 0.0
H2702 H 0.2106 0.71142 0.33375 0.0
H2703 H 0.16444 0.666 0.33434 0.0
H2704 H 0.27211 0.71244 0.34843 0.0
H2705 H 0.23745 0.79173 0.34169 0.0
H2706 H 0.2125 0.75559 0.34489 0.0
H2707 H 0.22389 0.76205 0.33518 0.0
C2708 C 0.18698 0.66805 0.35244 0.0
C2709 C 0.16904 0.65728 0.34605 0.0
C2710 C 0.21315 0.69411 0.35212 0.0
C2711 C 0.22213 0.71013 0.34541 0.0
C2712 C 0.20394 0.69985 0.33905 0.0
H2713 H 0.38268 0.85295 0.32934 0.0
H2714 H 0.33342 0.81298 0.33113 0.0
C2715 C 0.17754 0.67379 0.33939 0.0
C2716 C 0.25144 0.73627 0.34495 0.0
H2717 H 0.28776 0.80816 0.34052 0.0
C2718 C 0.27547 0.73342 0.34677 0.0
C2719 C 0.25593 0.7637 0.34277 0.0
C2720 C 0.23107 0.7686 0.34109 0.0
C2721 C 0.30377 0.75694 0.34631 0.0
C2722 C 0.30827 0.78426 0.34405 0.0
C2723 C 0.28429 0.78723 0.34227 0.0
C2724 C 0.33779 0.80963 0.34316 0.0
C2725 C 0.32871 0.75216 0.34801 0.0
C2726 C 0.35655 0.82145 0.34936 0.0
C2727 C 0.38481 0.84445 0.34836 0.0
C2728 C 0.39474 0.85594 0.34113 0.0
C2729 C 0.37569 0.8445 0.33498 0.0
C2730 C 0.34749 0.82168 0.33599 0.0
H2731 H 0.32196 0.72885 0.34813 0.0
H2732 H 0.34613 0.7631 0.34376 0.0
H2733 H 0.33779 0.76148 0.35363 0.0
H2734 H 0.34939 0.81276 0.35497 0.0
H2735 H 0.399 0.85289 0.3532 0.0
H2736 H 0.20567 0.28906 0.16715 0.0
H2737 H 0.25838 0.31488 0.16652 0.0
H2738 H 0.26271 0.34819 0.18898 0.0
H2739 H 0.20999 0.32072 0.1898 0.0
H2740 H 0.29849 0.36677 0.16657 0.0
H2741 H 0.3153 0.31811 0.19218 0.0
H2742 H 0.27992 0.30584 0.18832 0.0
H2743 H 0.29663 0.33718 0.19437 0.0
C2744 C 0.21788 0.30193 0.17195 0.0
C2745 C 0.20368 0.30266 0.17855 0.0
C2746 C 0.2481 0.31671 0.1716 0.0
C2747 C 0.26486 0.333 0.17778 0.0
C2748 C 0.25055 0.33491 0.18424 0.0
H2749 H 0.45034 0.45563 0.17144 0.0
H2750 H 0.39793 0.43352 0.17281 0.0
C2751 C 0.22034 0.31946 0.18467 0.0
C2752 C 0.29715 0.34796 0.17742 0.0
H2753 H 0.3571 0.35818 0.18697 0.0
C2754 C 0.31124 0.36469 0.17102 0.0
C2755 C 0.31405 0.345 0.18314 0.0
C2756 C 0.30067 0.3253 0.18984 0.0
C2757 C 0.34142 0.3784 0.17018 0.0
C2758 C 0.35843 0.37667 0.17608 0.0
C2759 C 0.34433 0.35995 0.18247 0.0
C2760 C 0.39066 0.39095 0.17564 0.0
C2761 C 0.35443 0.39357 0.16282 0.0
C2762 C 0.40458 0.3751 0.17721 0.0
C2763 C 0.43466 0.38807 0.17672 0.0
C2764 C 0.45153 0.41707 0.17451 0.0
C2765 C 0.4378 0.43313 0.17306 0.0
C2766 C 0.40776 0.42036 0.17376 0.0
H2767 H 0.33844 0.38481 0.15816 0.0
H2768 H 0.3615 0.41684 0.16341 0.0
H2769 H 0.37333 0.39144 0.16121 0.0
H2770 H 0.39212 0.35247 0.17871 0.0
H2771 H 0.44464 0.37514 0.17787 0.0
H2772 H 0.60384 0.04973 0.18365 0.0
H2773 H 0.62599 0.01952 0.18573 0.0
H2774 H 0.62185 1.00251 0.16183 0.0
H2775 H 0.60026 0.03278 0.15973 0.0
H2776 H 0.60647 0.96134 0.18238 0.0
H2777 H 0.70649 0.032 0.16643 0.0
H2778 H 0.68155 0.04367 0.1693 0.0
H2779 H 0.67433 0.02144 0.16104 0.0
C2780 C 0.60766 0.03949 0.17885 0.0
C2781 C 0.60048 0.04376 0.17152 0.0
C2782 C 0.62031 0.02225 0.18004 0.0
C2783 C 0.62614 0.00915 0.17392 0.0
C2784 C 0.61826 0.0129 0.16663 0.0
H2785 H 0.70123 0.89936 0.16682 0.0
H2786 H 0.67586 0.92669 0.1657 0.0
C2787 C 0.60574 0.0301 0.16544 0.0
C2788 C 0.6403 0.99145 0.17507 0.0
H2789 H 0.69821 0.98515 0.16955 0.0
C2790 C 0.62665 0.96667 0.17963 0.0
C2791 C 0.66666 0.99835 0.17148 0.0
C2792 C 0.68328 0.02546 0.16685 0.0
C2793 C 0.63818 0.94822 0.18051 0.0
C2794 C 0.66429 0.9549 0.17681 0.0
C2795 C 0.67807 0.97985 0.17233 0.0
C2796 C 0.67801 0.93666 0.1776 0.0
C2797 C 0.62194 0.92132 0.18523 0.0
C2798 C 0.68767 0.93306 0.18466 0.0
C2799 C 0.70221 0.91746 0.18533 0.0
C2800 C 0.70756 0.90512 0.17894 0.0
C2801 C 0.69742 0.90837 0.17188 0.0
C2802 C 0.68296 0.92409 0.17122 0.0
H2803 H 0.59904 0.91542 0.18605 0.0
H2804 H 0.62256 0.90279 0.18259 0.0
H2805 H 0.6322 0.92516 0.19087 0.0
H2806 H 0.68463 0.94297 0.18965 0.0
H2807 H 0.70973 0.91558 0.19086 0.0
H2808 H 0.08848 0.80338 0.16756 0.0
H2809 H 0.06161 0.75066 0.16671 0.0
H2810 H 0.0944 0.74522 0.18853 0.0
H2811 H 0.11954 0.79791 0.18961 0.0
H2812 H 0.07331 0.71086 0.16592 0.0
H2813 H 0.0129 0.69135 0.1926 0.0
H2814 H 0.03504 0.72713 0.18885 0.0
H2815 H 0.05097 0.71018 0.1943 0.0
C2816 C 0.08994 0.79091 0.17218 0.0
C2817 C 0.10594 0.8048 0.17868 0.0
C2818 C 0.07452 0.76068 0.1717 0.0
C2819 C 0.07515 0.74356 0.17765 0.0
C2820 C 0.09239 0.75759 0.18399 0.0
H2821 H 0.01242 0.55868 0.16938 0.0
H2822 H 0.04274 0.611 0.17106 0.0
C2823 C 0.1071 0.78781 0.18457 0.0
C2824 C 0.05801 0.71121 0.17714 0.0
H2825 H 0.01085 0.65021 0.1868 0.0
C2826 C 0.05951 0.69767 0.17048 0.0
C2827 C 0.03945 0.69368 0.18301 0.0
C2828 C 0.03423 0.70636 0.19005 0.0
C2829 C 0.04316 0.66751 0.16951 0.0
C2830 C 0.02581 0.64988 0.17553 0.0
C2831 C 0.02434 0.66342 0.1822 0.0
C2832 C 0.00802 0.61758 0.17495 0.0
C2833 C 0.0439 0.65518 0.1619 0.0
C2834 C 0.97869 0.60319 0.17704 0.0
C2835 C 0.96166 0.57311 0.17638 0.0
C2836 C 0.97336 0.55669 0.17348 0.0
C2837 C 1.00275 0.57085 0.17154 0.0
C2838 C 0.02001 0.60087 0.17241 0.0
H2839 H 0.04993 0.67152 0.15735 0.0
H2840 H 0.06041 0.64842 0.16197 0.0
H2841 H 0.02268 0.63621 0.16045 0.0
H2842 H 0.96872 0.61528 0.17905 0.0
H2843 H 0.93905 0.56282 0.17792 0.0
H2844 H 0.28826 0.20388 0.35692 0.0
H2845 H 0.31444 0.25665 0.35761 0.0
H2846 H 0.34956 0.26094 0.33541 0.0
H2847 H 0.32176 0.20823 0.3345 0.0
H2848 H 0.36648 0.29664 0.35782 0.0
H2849 H 0.32011 0.31384 0.33182 0.0
H2850 H 0.30734 0.2784 0.33571 0.0
H2851 H 0.33911 0.29495 0.32982 0.0
C2852 C 0.3016 0.21612 0.35219 0.0
C2853 C 0.30274 0.20193 0.34563 0.0
C2854 C 0.31659 0.24635 0.35258 0.0
C2855 C 0.33349 0.26311 0.34648 0.0
C2856 C 0.33581 0.24879 0.34008 0.0
H2857 H 0.45613 0.44881 0.35299 0.0
H2858 H 0.4341 0.39631 0.35175 0.0
C2859 C 0.32016 0.21859 0.3396 0.0
C2860 C 0.34857 0.29541 0.34685 0.0
H2861 H 0.35996 0.3555 0.33715 0.0
C2862 C 0.36486 0.30945 0.35331 0.0
C2863 C 0.34621 0.3124 0.34105 0.0
C2864 C 0.32698 0.29909 0.33426 0.0
C2865 C 0.37868 0.33966 0.35414 0.0
C2866 C 0.37753 0.35673 0.34817 0.0
C2867 C 0.36129 0.34268 0.34171 0.0
C2868 C 0.39178 0.38898 0.34861 0.0
C2869 C 0.39335 0.35266 0.36156 0.0
C2870 C 0.37605 0.40286 0.34686 0.0
C2871 C 0.38899 0.43295 0.34728 0.0
C2872 C 0.41782 0.4499 0.34961 0.0
C2873 C 0.43375 0.43622 0.35127 0.0
C2874 C 0.42103 0.40613 0.35065 0.0
H2875 H 0.38424 0.33666 0.36622 0.0
H2876 H 0.41663 0.35968 0.3611 0.0
H2877 H 0.39117 0.37161 0.36311 0.0
H2878 H 0.35355 0.39037 0.34524 0.0
H2879 H 0.37615 0.44289 0.34596 0.0
H2880 H 0.55603 0.98808 0.3416 0.0
H2881 H 0.60823 0.01982 0.33964 0.0
H2882 H 0.62537 0.96791 0.35508 0.0
H2883 H 0.57359 0.93626 0.35702 0.0
H2884 H 0.65148 0.0524 0.35067 0.0
H2885 H 0.673 0.97284 0.33635 0.0
H2886 H 0.6371 0.96764 0.33732 0.0
H2887 H 0.65385 0.96012 0.34511 0.0
C2888 C 0.57097 0.98335 0.34452 0.0
C2889 C 0.56069 0.95963 0.34945 0.0
C2890 C 0.60077 1.00153 0.34342 0.0
C2891 C 0.62077 0.99611 0.34716 0.0
C2892 C 0.61044 0.97232 0.35204 0.0
H2893 H 0.80412 0.10793 0.35639 0.0
H2894 H 0.7513 0.08029 0.35699 0.0
C2895 C 0.58078 0.95428 0.35316 0.0
C2896 C 0.65246 0.01553 0.34615 0.0
H2897 H 0.71402 0.0159 0.34076 0.0
C2898 C 0.66515 0.0445 0.34845 0.0
C2899 C 0.67032 0.00533 0.34319 0.0
C2900 C 0.65791 0.97486 0.34028 0.0
C2901 C 0.69523 0.06329 0.34806 0.0
C2902 C 0.71319 0.05275 0.34538 0.0
C2903 C 0.70037 0.02398 0.34289 0.0
C2904 C 0.74529 0.07114 0.34502 0.0
C2905 C 0.70746 0.09433 0.35046 0.0
C2906 C 0.75966 0.07507 0.33811 0.0
C2907 C 0.78984 0.09072 0.33775 0.0
C2908 C 0.80653 0.10276 0.34431 0.0
C2909 C 0.79207 0.09919 0.35122 0.0
C2910 C 0.76179 0.08346 0.35157 0.0
H2911 H 0.69075 0.10088 0.3504 0.0
H2912 H 0.71591 0.09701 0.3563 0.0
H2913 H 0.72552 0.10908 0.34672 0.0
H2914 H 0.74748 0.06575 0.33298 0.0
H2915 H 0.80005 0.09294 0.33233 0.0
H2916 H 0.90154 0.69972 0.35667 0.0
H2917 H 0.92937 0.67476 0.35752 0.0
H2918 H 0.9434 0.68324 0.33348 0.0
H2919 H 0.9161 0.70849 0.33258 0.0
H2920 H 0.92226 0.62454 0.35084 0.0
H2921 H 0.02538 0.71881 0.34148 0.0
H2922 H 0.99449 0.72187 0.34417 0.0
H2923 H 0.99607 0.70843 0.33498 0.0
C2924 C 0.91041 0.69618 0.35155 0.0
C2925 C 0.90669 0.70642 0.34456 0.0
C2926 C 0.92637 0.6819 0.35205 0.0
C2927 C 0.93907 0.67764 0.34559 0.0
C2928 C 0.93451 0.6869 0.33858 0.0
H2929 H 0.05121 0.60241 0.3391 0.0
H2930 H 0.01944 0.62278 0.33699 0.0
C2931 C 0.91865 0.70121 0.33807 0.0
C2932 C 0.95714 0.66362 0.34618 0.0
H2933 H 0.025 0.67459 0.34294 0.0
C2934 C 0.94473 0.63552 0.34912 0.0
C2935 C 0.98649 0.67785 0.34392 0.0
C2936 C 1.00153 0.7085 0.34102 0.0
C2937 C 0.96073 0.62125 0.34981 0.0
C2938 C 0.99013 0.63559 0.34762 0.0
C2939 C 1.00245 0.66354 0.34459 0.0
C2940 C 0.00884 0.62257 0.3488 0.0
C2941 C 0.9459 0.59077 0.35281 0.0
C2942 C 0.01377 0.616 0.35612 0.0
C2943 C 0.03186 0.60449 0.35732 0.0
C2944 C 0.04556 0.59932 0.35124 0.0
C2945 C 0.04079 0.60598 0.3439 0.0
C2946 C 0.0227 0.61765 0.34269 0.0
H2947 H 0.92208 0.58008 0.35218 0.0
H2948 H 0.95363 0.57755 0.34988 0.0
H2949 H 0.95078 0.59126 0.35891 0.0
H2950 H 1.0039 0.62015 0.36094 0.0
H2951 H 0.03525 0.59978 0.36305 0.0
H2952 H 0.55693 0.60117 0.83952 0.0
H2953 H 0.60897 0.62184 0.83719 0.0
H2954 H 0.62297 0.61752 0.861 0.0
H2955 H 0.57135 0.59682 0.86333 0.0
H2956 H 0.65527 0.67317 0.84318 0.0
H2957 H 0.66465 0.57846 0.85164 0.0
H2958 H 0.63037 0.5759 0.8496 0.0
H2959 H 0.64743 0.58913 0.85861 0.0
C2960 C 0.57113 0.60443 0.84423 0.0
C2961 C 0.56004 0.5972 0.8516 0.0
C2962 C 0.60085 0.61627 0.8429 0.0
C2963 C 0.61989 0.62079 0.84891 0.0
C2964 C 0.60873 0.61366 0.85626 0.0
H2965 H 0.80461 0.69869 0.85616 0.0
H2966 H 0.75186 0.67338 0.85716 0.0
C2967 C 0.57918 0.60197 0.85758 0.0
C2968 C 0.65156 0.63401 0.8476 0.0
H2969 H 0.70874 0.62316 0.85038 0.0
C2970 C 0.66693 0.66213 0.84467 0.0
C2971 C 0.66684 0.61968 0.8496 0.0
C2972 C 0.65148 0.58902 0.85247 0.0
C2973 C 0.69717 0.67662 0.8439 0.0
C2974 C 0.71251 0.6624 0.84598 0.0
C2975 C 0.69708 0.63413 0.84882 0.0
C2976 C 0.74456 0.67661 0.84528 0.0
C2977 C 0.71251 0.70741 0.84112 0.0
C2978 C 0.75809 0.68619 0.83825 0.0
C2979 C 0.78823 0.70068 0.83765 0.0
C2980 C 0.80566 0.70579 0.84408 0.0
C2981 C 0.79199 0.69524 0.85109 0.0
C2982 C 0.76178 0.68077 0.85168 0.0
H2983 H 0.69886 0.71756 0.8417 0.0
H2984 H 0.73298 0.72071 0.84425 0.0
H2985 H 0.71779 0.7077 0.83505 0.0
H2986 H 0.74533 0.68263 0.8332 0.0
H2987 H 0.79783 0.70821 0.83214 0.0
H2988 H 0.30352 0.0911 0.83255 0.0
H2989 H 0.32893 0.06398 0.83376 0.0
H2990 H 0.33867 0.08135 0.85766 0.0
H2991 H 0.31292 0.10831 0.85654 0.0
H2992 H 0.38406 0.07906 0.83907 0.0
H2993 H 0.29887 0.9931 0.85674 0.0
H2994 H 0.29327 0.01911 0.85165 0.0
H2995 H 0.31271 0.02891 0.86044 0.0
C2996 C 0.31115 0.08935 0.83808 0.0
C2997 C 0.30588 0.10181 0.84446 0.0
C2998 C 0.32575 0.0738 0.83875 0.0
C2999 C 0.3353 0.07013 0.84582 0.0
C3000 C 0.331 0.08336 0.85216 0.0
H3001 H 0.41663 0.97809 0.86351 0.0
H3002 H 0.39513 0.00822 0.86112 0.0
C3003 C 0.31642 0.09898 0.8515 0.0
C3004 C 0.34922 0.05201 0.84655 0.0
H3005 H 0.34216 0.99171 0.85523 0.0
C3006 C 0.37486 0.05989 0.84257 0.0
C3007 C 0.33711 0.02682 0.85108 0.0
C3008 C 0.30883 0.01625 0.85517 0.0
C3009 C 0.38917 0.04386 0.8432 0.0
C3010 C 0.37727 0.01892 0.84782 0.0
C3011 C 0.35139 0.01084 0.8517 0.0
C3012 C 0.39179 1.00155 0.84904 0.0
C3013 C 0.41737 0.05428 0.83909 0.0
C3014 C 0.39727 0.98764 0.84303 0.0
C3015 C 0.40979 0.97036 0.84439 0.0
C3016 C 0.41685 0.96654 0.85178 0.0
C3017 C 0.41149 0.98061 0.85774 0.0
C3018 C 0.39913 0.99784 0.85639 0.0
H3019 H 0.42697 0.07716 0.83729 0.0
H3020 H 0.4332 0.05219 0.8427 0.0
H3021 H 0.41355 0.04089 0.83397 0.0
H3022 H 0.39129 0.98963 0.83732 0.0
H3023 H 0.41339 0.95955 0.8397 0.0
H3024 H 0.93065 0.21228 0.83374 0.0
H3025 H 0.95632 0.26472 0.83503 0.0
H3026 H 0.91698 0.25669 0.85681 0.0
H3027 H 0.89184 0.204 0.85567 0.0
H3028 H 0.939 0.30317 0.83636 0.0
H3029 H 1.00013 0.30848 0.86214 0.0
H3030 H 0.9798 0.27561 0.8568 0.0
H3031 H 0.96179 0.28709 0.86336 0.0
C3032 C 0.92736 0.22156 0.83882 0.0
C3033 C 0.90923 0.20374 0.84463 0.0
C3034 C 0.94213 0.25168 0.83955 0.0
C3035 C 0.93915 0.26485 0.84608 0.0
C3036 C 0.92038 0.24716 0.8518 0.0
H3037 H 0.01067 0.44598 0.85896 0.0
H3038 H 0.98096 0.39334 0.85771 0.0
C3039 C 0.90579 0.21696 0.85111 0.0
C3040 C 0.9556 0.29703 0.84684 0.0
H3041 H 1.00364 0.35243 0.85808 0.0
C3042 C 0.95318 0.31388 0.8411 0.0
C3043 C 0.97429 0.31121 0.85301 0.0
C3044 C 0.97944 0.2947 0.85914 0.0
C3045 C 0.9686 0.34427 0.84141 0.0
C3046 C 0.98704 0.35832 0.8476 0.0
C3047 C 0.98936 0.3416 0.85336 0.0
C3048 C 1.00447 0.39038 0.84815 0.0
C3049 C 0.9649 0.36122 0.83514 0.0
C3050 C 0.02759 0.40624 0.84318 0.0
C3051 C 0.04475 0.4363 0.84392 0.0
C3052 C 0.03903 0.45111 0.84961 0.0
C3053 C 0.01559 0.43522 0.8545 0.0
C3054 C 0.99863 0.40514 0.85381 0.0
H3055 H 0.94596 0.34739 0.83153 0.0
H3056 H 0.9623 0.37906 0.8375 0.0
H3057 H 0.98449 0.37098 0.83154 0.0
H3058 H 0.03268 0.39529 0.83882 0.0
H3059 H 0.06266 0.44793 0.84007 0.0
H3060 H 0.63508 0.56611 0.67731 0.0
H3061 H 0.65762 0.61862 0.67809 0.0
H3062 H 0.57584 0.61238 0.67292 0.0
H3063 H 0.55381 0.5599 0.67158 0.0
H3064 H 0.61371 0.65471 0.66569 0.0
H3065 H 0.658 0.66779 0.69443 0.0
H3066 H 0.67225 0.65073 0.68852 0.0
H3067 H 0.63403 0.63271 0.69049 0.0
C3068 C 0.62188 0.57596 0.6764 0.0
C3069 C 0.59263 0.55891 0.67443 0.0
C3070 C 0.63474 0.60605 0.67691 0.0
C3071 C 0.61841 0.61977 0.67577 0.0
C3072 C 0.58904 0.60257 0.67386 0.0
H3073 H 0.69252 0.80087 0.68908 0.0
H3074 H 0.66401 0.74821 0.68825 0.0
C3075 C 0.57638 0.57252 0.67313 0.0
C3076 C 0.63214 0.65199 0.67626 0.0
H3077 H 0.67786 0.71066 0.68688 0.0
C3078 C 0.62745 0.66686 0.67039 0.0
C3079 C 0.6497 0.66816 0.68243 0.0
C3080 C 0.65349 0.65395 0.68935 0.0
C3081 C 0.64006 0.69715 0.67044 0.0
C3082 C 0.65926 0.71345 0.67634 0.0
C3083 C 0.66356 0.69851 0.68227 0.0
C3084 C 0.67491 0.74584 0.67659 0.0
C3085 C 0.63183 0.71105 0.66425 0.0
C3086 C 0.69047 0.76253 0.67031 0.0
C3087 C 0.70595 0.7928 0.6707 0.0
C3088 C 0.70717 0.80704 0.67748 0.0
C3089 C 0.69191 0.79047 0.68377 0.0
C3090 C 0.6757 0.7603 0.68331 0.0
H3091 H 0.61003 0.69587 0.66197 0.0
H3092 H 0.63192 0.73075 0.66628 0.0
H3093 H 0.64739 0.71703 0.65952 0.0
H3094 H 0.69133 0.75221 0.66513 0.0
H3095 H 0.71798 0.80501 0.66581 0.0
H3096 H 0.45268 0.04986 0.68406 0.0
H3097 H 0.40053 0.01823 0.68619 0.0
H3098 H 0.38793 1.00038 0.66233 0.0
H3099 H 0.43963 0.03152 0.6602 0.0
H3100 H 0.35451 0.02318 0.68001 0.0
H3101 H 0.34604 0.91944 0.67152 0.0
H3102 H 0.38013 0.95121 0.6737 0.0
H3103 H 0.36362 0.94747 0.66462 0.0
C3104 C 0.43876 0.03896 0.6793 0.0
C3105 C 0.45025 0.043 0.67197 0.0
C3106 C 0.40899 0.02095 0.68051 0.0
C3107 C 0.39033 0.00649 0.67443 0.0
C3108 C 0.40189 0.01071 0.66713 0.0
H3109 H 0.20616 0.89996 0.66633 0.0
H3110 H 0.25898 0.92747 0.66554 0.0
C3111 C 0.43148 0.02869 0.66591 0.0
C3112 C 0.35862 0.9879 0.67561 0.0
H3113 H 0.30178 0.91988 0.67254 0.0
C3114 C 0.34301 1.00052 0.67846 0.0
C3115 C 0.34356 0.95834 0.67354 0.0
C3116 C 0.3592 0.9432 0.67074 0.0
C3117 C 0.31273 0.98467 0.67908 0.0
C3118 C 0.29762 0.95518 0.67692 0.0
C3119 C 0.31329 0.94247 0.67416 0.0
C3120 C 0.26557 0.93726 0.67747 0.0
C3121 C 0.29711 0.99993 0.6818 0.0
C3122 C 0.25166 0.93288 0.68446 0.0
C3123 C 0.22151 0.9172 0.68494 0.0
C3124 C 0.20446 0.90528 0.67843 0.0
C3125 C 0.2185 0.90882 0.67146 0.0
C3126 C 0.24873 0.92459 0.67099 0.0
H3127 H 0.31077 0.02378 0.68133 0.0
H3128 H 0.27692 0.99288 0.67856 0.0
H3129 H 0.29131 0.99463 0.68784 0.0
H3130 H 0.26414 0.9418 0.68957 0.0
H3131 H 0.2116 0.91478 0.69042 0.0
H3132 H 0.95669 0.40402 0.68377 0.0
H3133 H 0.98798 0.38316 0.68598 0.0
H3134 H 0.00945 0.39187 0.66232 0.0
H3135 H 0.97833 0.41248 0.66009 0.0
H3136 H 0.98321 0.33193 0.67859 0.0
H3137 H 0.08904 0.43014 0.67321 0.0
H3138 H 0.05687 0.43167 0.67544 0.0
H3139 H 0.06208 0.42201 0.66609 0.0
C3140 C 0.96828 0.40166 0.67907 0.0
C3141 C 0.96517 0.40999 0.67176 0.0
C3142 C 0.9861 0.38971 0.68033 0.0
C3143 C 1.00138 0.3863 0.67433 0.0
C3144 C 0.99829 0.39472 0.66705 0.0
H3145 H 0.11537 0.31607 0.66728 0.0
H3146 H 0.08735 0.34083 0.66634 0.0
C3147 C 0.98037 0.40639 0.66578 0.0
C3148 C 0.01969 0.3729 0.67555 0.0
H3149 H 0.08885 0.38571 0.674 0.0
C3150 C 0.00636 0.34373 0.67766 0.0
C3151 C 0.04984 0.38824 0.67426 0.0
C3152 C 0.06544 0.41982 0.67218 0.0
C3153 C 0.02218 0.32927 0.67831 0.0
C3154 C 0.0524 0.3446 0.67702 0.0
C3155 C 0.06575 0.37389 0.67498 0.0
C3156 C 0.07045 0.33057 0.67772 0.0
C3157 C 0.00611 0.29741 0.68011 0.0
C3158 C 0.071 0.31719 0.68448 0.0
C3159 C 0.08683 0.30287 0.68502 0.0
C3160 C 0.10291 0.30192 0.67884 0.0
C3161 C 0.10326 0.31632 0.67216 0.0
C3162 C 0.0872 0.33047 0.6716 0.0
H3163 H 0.98278 0.28732 0.67874 0.0
H3164 H 0.01519 0.28582 0.67695 0.0
H3165 H 0.00798 0.29441 0.68623 0.0
H3166 H 0.05902 0.31765 0.68935 0.0
H3167 H 0.08626 0.29235 0.69029 0.0
H3168 H 0.87592 0.64704 0.50088 0.0
H3169 H 0.92868 0.6727 0.50014 0.0
H3170 H 0.93327 0.65359 0.52356 0.0
H3171 H 0.88064 0.62743 0.52432 0.0
H3172 H 0.97066 0.7196 0.50763 0.0
H3173 H 0.98211 0.62422 0.51394 0.0
H3174 H 0.94774 0.62113 0.51178 0.0
H3175 H 0.96297 0.63178 0.52107 0.0
C3176 C 0.88809 0.64831 0.50589 0.0
C3177 C 0.87379 0.63486 0.51264 0.0
C3178 C 0.91836 0.66303 0.50546 0.0
C3179 C 0.93513 0.66464 0.51175 0.0
C3180 C 0.92095 0.65204 0.51856 0.0
H3181 H 0.12381 0.74196 0.51716 0.0
H3182 H 0.07179 0.72054 0.51973 0.0
C3183 C 0.89072 0.63722 0.51899 0.0
C3184 C 0.96735 0.67956 0.51117 0.0
H3185 H 0.02534 0.66934 0.51316 0.0
C3186 C 0.98255 0.70855 0.50884 0.0
C3187 C 0.9831 0.6653 0.51277 0.0
C3188 C 0.96818 0.63383 0.51496 0.0
C3189 C 0.01283 0.72359 0.50807 0.0
C3190 C 0.0285 0.70924 0.50958 0.0
C3191 C 0.01341 0.68042 0.51204 0.0
C3192 C 0.06023 0.72316 0.50817 0.0
C3193 C 0.02784 0.75486 0.50569 0.0
C3194 C 0.07109 0.73155 0.50083 0.0
C3195 C 0.10061 0.74365 0.49936 0.0
C3196 C 0.12012 0.7477 0.50519 0.0
C3197 C 0.10937 0.73941 0.51256 0.0
C3198 C 0.07965 0.72707 0.51403 0.0
H3199 H 0.01434 0.76486 0.50683 0.0
H3200 H 0.04881 0.76754 0.50866 0.0
H3201 H 0.03213 0.75626 0.49954 0.0
H3202 H 0.0566 0.72827 0.49619 0.0
H3203 H 0.10814 0.74961 0.49361 0.0
H3204 H 0.39274 0.26504 0.52289 0.0
H3205 H 0.36592 0.29082 0.5219 0.0
H3206 H 0.32744 0.24628 0.50111 0.0
H3207 H 0.3542 0.22025 0.50203 0.0
H3208 H 0.369 0.32738 0.50965 0.0
H3209 H 0.25765 0.23574 0.51391 0.0
H3210 H 0.28929 0.23396 0.51659 0.0
H3211 H 0.27872 0.23039 0.50686 0.0
C3212 C 0.37839 0.26042 0.51813 0.0
C3213 C 0.37566 0.24039 0.51255 0.0
C3214 C 0.3631 0.2753 0.51757 0.0
C3215 C 0.34443 0.27032 0.51148 0.0
C3216 C 0.34138 0.25018 0.50593 0.0
H3217 H 0.23681 0.34256 0.49793 0.0
H3218 H 0.26049 0.3137 0.49935 0.0
C3219 C 0.35682 0.23539 0.50645 0.0
C3220 C 0.32917 0.28714 0.51079 0.0
H3221 H 0.26229 0.28074 0.51061 0.0
C3222 C 0.34567 0.31721 0.50989 0.0
C3223 C 0.29873 0.27385 0.51105 0.0
C3224 C 0.27996 0.24174 0.51221 0.0
C3225 C 0.3326 0.3343 0.50912 0.0
C3226 C 0.30212 0.32109 0.50947 0.0
C3227 C 0.28562 0.29095 0.51036 0.0
C3228 C 0.28698 0.33811 0.50883 0.0
C3229 C 0.35164 0.36625 0.50771 0.0
C3230 C 0.29335 0.36109 0.5138 0.0
C3231 C 0.28 0.37779 0.51296 0.0
C3232 C 0.25966 0.3716 0.50719 0.0
C3233 C 0.25247 0.34795 0.50241 0.0
C3234 C 0.266 0.33141 0.50322 0.0
H3235 H 0.37299 0.37136 0.5054 0.0
H3236 H 0.34135 0.37436 0.50372 0.0
H3237 H 0.35546 0.37807 0.51313 0.0
H3238 H 0.30879 0.36625 0.51832 0.0
H3239 H 0.28577 0.39567 0.51678 0.0
H3240 H 0.64511 0.90242 0.4934 0.0
H3241 H 0.6747 0.95414 0.4958 0.0
H3242 H 0.65646 0.93924 0.5196 0.0
H3243 H 0.62697 0.88699 0.51721 0.0
H3244 H 0.65825 0.9905 0.50167 0.0
H3245 H 0.74362 0.99166 0.51973 0.0
H3246 H 0.71876 0.96033 0.51433 0.0
H3247 H 0.70741 0.96878 0.52305 0.0
C3248 C 0.64758 0.91007 0.49916 0.0
C3249 C 0.63381 0.89056 0.50512 0.0
C3250 C 0.66451 0.93973 0.50053 0.0
C3251 C 0.66821 0.95078 0.50789 0.0
C3252 C 0.65452 0.93131 0.51388 0.0
H3253 H 0.75773 0.12965 0.52417 0.0
H3254 H 0.73015 0.077 0.52311 0.0
C3255 C 0.63756 0.90145 0.51251 0.0
C3256 C 0.68541 0.98274 0.50913 0.0
H3257 H 0.74525 0.03635 0.51796 0.0
C3258 C 0.6773 1.00047 0.50523 0.0
C3259 C 0.71024 0.99592 0.51379 0.0
C3260 C 0.72076 0.97828 0.51792 0.0
C3261 C 0.69316 0.03077 0.50585 0.0
C3262 C 0.71826 0.04398 0.51041 0.0
C3263 C 0.72614 0.0263 0.51443 0.0
C3264 C 0.73645 0.07609 0.51108 0.0
C3265 C 0.68261 0.04838 0.50171 0.0
C3266 C 0.74988 0.09328 0.50471 0.0
C3267 C 0.76578 0.12351 0.50529 0.0
C3268 C 0.76871 0.13732 0.51227 0.0
C3269 C 0.75594 0.11993 0.51869 0.0
C3270 C 0.74012 0.08972 0.5181 0.0
H3271 H 0.65949 0.03514 0.50012 0.0
H3272 H 0.68542 0.06689 0.5052 0.0
H3273 H 0.69532 0.05707 0.49645 0.0
H3274 H 0.74787 0.08331 0.49925 0.0
H3275 H 0.77533 0.13603 0.50023 0.0
H3276 H 0.07933 0.7722 0.69649 0.0
H3277 H 0.05783 0.7203 0.6944 0.0
H3278 H 0.0509 0.73259 0.67061 0.0
H3279 H 0.07293 0.7849 0.67268 0.0
H3280 H 1.00441 0.68253 0.68892 0.0
H3281 H 0.08811 0.68224 0.67044 0.0
H3282 H 0.09431 0.71367 0.67574 0.0
H3283 H 0.07386 0.70435 0.66713 0.0
C3284 C 0.07347 0.76391 0.6908 0.0
C3285 C 0.07801 0.78267 0.68474 0.0
C3286 C 0.06112 0.73419 0.68961 0.0
C3287 C 0.05304 0.72242 0.68234 0.0
C3288 C 0.05753 0.74113 0.67625 0.0
H3289 H 0.96479 0.54414 0.66625 0.0
H3290 H 0.98978 0.59672 0.66739 0.0
C3291 C 0.07 0.77102 0.67744 0.0
C3292 C 0.03888 0.69049 0.68127 0.0
H3293 H 0.04549 0.63724 0.67237 0.0
C3294 C 0.01347 0.67266 0.68531 0.0
C3295 C 0.05058 0.67751 0.67654 0.0
C3296 C 0.07834 0.69536 0.67226 0.0
C3297 C 0.9994 0.64238 0.68474 0.0
C3298 C 0.01126 0.62938 0.68009 0.0
C3299 C 0.03647 0.64717 0.67596 0.0
C3300 C 0.99755 0.59737 0.67938 0.0
C3301 C 0.97159 0.62458 0.68902 0.0
C3302 C 0.9942 0.58012 0.68571 0.0
C3303 C 0.97989 0.54992 0.68508 0.0
C3304 C 0.96867 0.53628 0.6781 0.0
C3305 C 0.97297 0.55374 0.67173 0.0
C3306 C 0.98731 0.5839 0.67236 0.0
H3307 H 0.96162 0.63764 0.69072 0.0
H3308 H 0.95577 0.60601 0.68557 0.0
H3309 H 0.97609 0.61597 0.69422 0.0
H3310 H 1.00243 0.59001 0.69116 0.0
H3311 H 0.97716 0.5373 0.69011 0.0
H3312 H 0.22702 0.2833 0.67324 0.0
H3313 H 0.27957 0.313 0.67181 0.0
H3314 H 0.28355 0.36131 0.69173 0.0
H3315 H 0.2311 0.33227 0.69305 0.0
H3316 H 0.31884 0.39668 0.68089 0.0
H3317 H 0.3378 0.30441 0.68427 0.0
H3318 H 0.31402 0.29983 0.67659 0.0
H3319 H 0.30323 0.30135 0.68613 0.0
C3320 C 0.23912 0.30037 0.67728 0.0
C3321 C 0.22493 0.30526 0.68329 0.0
C3322 C 0.2692 0.3172 0.6765 0.0
C3323 C 0.28575 0.33902 0.68177 0.0
C3324 C 0.27141 0.34452 0.68762 0.0
H3325 H 0.47154 0.4548 0.68935 0.0
H3326 H 0.41866 0.42903 0.69039 0.0
C3327 C 0.24137 0.32786 0.68837 0.0
C3328 C 0.31794 0.35597 0.68126 0.0
H3329 H 0.37828 0.34926 0.68077 0.0
C3330 C 0.33182 0.38629 0.6809 0.0
C3331 C 0.33504 0.34253 0.68133 0.0
C3332 C 0.32182 0.31027 0.68218 0.0
C3333 C 0.3621 0.40338 0.68043 0.0
C3334 C 0.37908 0.38988 0.68039 0.0
C3335 C 0.36526 0.35962 0.68079 0.0
C3336 C 0.41116 0.40658 0.67973 0.0
C3337 C 0.3757 0.43572 0.6798 0.0
C3338 C 0.4246 0.40242 0.67344 0.0
C3339 C 0.4547 0.41709 0.67283 0.0
C3340 C 0.47225 0.43616 0.67854 0.0
C3341 C 0.45876 0.44042 0.68484 0.0
C3342 C 0.42851 0.42577 0.68542 0.0
H3343 H 0.35959 0.44229 0.67836 0.0
H3344 H 0.3857 0.44577 0.68528 0.0
H3345 H 0.39294 0.44436 0.67545 0.0
H3346 H 0.41173 0.38768 0.66898 0.0
H3347 H 0.46417 0.41311 0.66789 0.0
H3348 H 0.74244 0.96896 0.67846 0.0
H3349 H 0.71267 0.99181 0.67779 0.0
H3350 H 0.63752 0.91081 0.68377 0.0
H3351 H 0.66772 0.88854 0.68496 0.0
H3352 H 0.67146 0.9863 0.66972 0.0
H3353 H 0.62787 0.95956 0.6987 0.0
H3354 H 0.65594 0.95292 0.69546 0.0
H3355 H 0.61859 0.92749 0.69342 0.0
C3356 C 0.71956 0.95609 0.67965 0.0
C3357 C 0.70742 0.92707 0.68185 0.0
C3358 C 0.7025 0.96915 0.67926 0.0
C3359 C 0.6728 0.95336 0.68093 0.0
C3360 C 0.66047 0.92392 0.68276 0.0
H3361 H 0.56016 0.02123 0.66735 0.0
H3362 H 0.58627 0.99461 0.66812 0.0
C3363 C 0.67769 0.91106 0.68335 0.0
C3364 C 0.65488 0.9677 0.68064 0.0
H3365 H 0.6051 0.9772 0.69043 0.0
C3366 C 0.65711 0.98443 0.67428 0.0
C3367 C 0.63645 0.96589 0.68663 0.0
C3368 C 0.63481 0.95077 0.69396 0.0
C3369 C 0.64153 0.99916 0.67373 0.0
C3370 C 0.62186 0.99599 0.67954 0.0
C3371 C 0.61974 0.97939 0.68591 0.0
C3372 C 0.60402 0.01041 0.67924 0.0
C3373 C 0.64732 0.01881 0.66705 0.0
C3374 C 0.6035 0.02672 0.68542 0.0
C3375 C 0.58758 0.04104 0.6851 0.0
C3376 C 0.57221 0.03978 0.67855 0.0
C3377 C 0.57209 0.02289 0.67245 0.0
C3378 C 0.58735 0.00793 0.67285 0.0
H3379 H 0.66913 0.02632 0.66464 0.0
H3380 H 0.63134 0.00676 0.66255 0.0
H3381 H 0.64571 0.03807 0.66861 0.0
H3382 H 0.61595 0.02895 0.69045 0.0
H3383 H 0.58822 0.05399 0.68988 0.0
H3384 H 0.23986 0.93039 0.19672 0.0
H3385 H 0.29151 0.95197 0.19427 0.0
H3386 H 0.2766 0.95713 0.17055 0.0
H3387 H 0.22462 0.93579 0.17301 0.0
H3388 H 0.32091 0.93289 0.18517 0.0
H3389 H 0.33959 0.03978 0.17553 0.0
H3390 H 0.3069 0.01404 0.18028 0.0
H3391 H 0.31209 0.0092 0.17049 0.0
C3392 C 0.24753 0.93613 0.19097 0.0
C3393 C 0.22814 0.93141 0.18506 0.0
C3394 C 0.27711 0.94843 0.18958 0.0
C3395 C 0.28811 0.95653 0.18224 0.0
C3396 C 0.26875 0.95153 0.17628 0.0
H3397 H 0.46638 0.04429 0.16595 0.0
H3398 H 0.4138 0.0182 0.16692 0.0
C3399 C 0.23902 0.93914 0.17768 0.0
C3400 C 0.31983 0.97005 0.18093 0.0
H3401 H 0.37952 0.03241 0.1752 0.0
C3402 C 0.33372 0.95464 0.18297 0.0
C3403 C 0.3366 0.99843 0.17806 0.0
C3404 C 0.32318 0.01651 0.17601 0.0
C3405 C 0.36378 0.96673 0.18222 0.0
C3406 C 0.38063 0.9953 0.17948 0.0
C3407 C 0.36668 0.01054 0.17732 0.0
C3408 C 0.41275 0.00995 0.17889 0.0
C3409 C 0.37714 0.9486 0.18427 0.0
C3410 C 0.4299 0.01411 0.18531 0.0
C3411 C 0.46012 0.02901 0.18478 0.0
C3412 C 0.47394 0.04032 0.17782 0.0
C3413 C 0.45665 0.0359 0.17141 0.0
C3414 C 0.42648 0.021 0.17194 0.0
H3415 H 0.36097 0.92516 0.18414 0.0
H3416 H 0.39507 0.95274 0.18037 0.0
H3417 H 0.38597 0.95412 0.19008 0.0
H3418 H 0.41993 0.00638 0.19077 0.0
H3419 H 0.47262 0.03214 0.18985 0.0
H3420 H 0.00637 0.46948 0.18247 0.0
H3421 H 0.03355 0.44372 0.18311 0.0
H3422 H 0.96013 0.36743 0.17402 0.0
H3423 H 0.93391 0.39366 0.17289 0.0
H3424 H 0.02861 0.40166 0.19048 0.0
H3425 H 0.01841 0.36689 0.16086 0.0
H3426 H 0.00741 0.39206 0.16394 0.0
H3427 H 0.98314 0.35361 0.16475 0.0
C3428 C 0.99625 0.44731 0.18053 0.0
C3429 C 0.9682 0.43373 0.17752 0.0
C3430 C 0.01177 0.43254 0.1809 0.0
C3431 C 0.99935 0.4037 0.17841 0.0
C3432 C 0.97089 0.38995 0.17566 0.0
H3433 H 0.05156 0.28456 0.19511 0.0
H3434 H 0.03091 0.31554 0.19287 0.0
C3435 C 0.95574 0.40492 0.17509 0.0
C3436 C 0.01544 0.38751 0.17904 0.0
H3437 H 0.02948 0.33967 0.16978 0.0
C3438 C 0.02908 0.38845 0.1859 0.0
C3439 C 0.01699 0.37072 0.17304 0.0
C3440 C 0.00599 0.37106 0.16522 0.0
C3441 C 0.04311 0.37242 0.18701 0.0
C3442 C 0.04226 0.35354 0.18125 0.0
C3443 C 0.02966 0.35349 0.17429 0.0
C3444 C 0.0538 0.3334 0.18238 0.0
C3445 C 0.05919 0.37655 0.19433 0.0
C3446 C 0.07211 0.33133 0.177 0.0
C3447 C 0.08305 0.31259 0.17815 0.0
C3448 C 0.07623 0.29591 0.18474 0.0
C3449 C 0.0575 0.2975 0.19002 0.0
C3450 C 0.04596 0.31554 0.18878 0.0
H3451 H 0.06708 0.39855 0.19666 0.0
H3452 H 0.04434 0.36088 0.19856 0.0
H3453 H 0.07798 0.3733 0.19358 0.0
H3454 H 0.07838 0.34459 0.17197 0.0
H3455 H 0.09756 0.31186 0.17401 0.0
H3456 H 0.5646 0.53732 0.1911 0.0
H3457 H 0.59157 0.59015 0.19238 0.0
H3458 H 0.61523 0.59824 0.16888 0.0
H3459 H 0.58842 0.54581 0.16754 0.0
H3460 H 0.6518 0.62673 0.18942 0.0
H3461 H 0.5856 0.65562 0.17123 0.0
H3462 H 0.57221 0.61962 0.1749 0.0
H3463 H 0.59611 0.63185 0.16691 0.0
C3464 C 0.57521 0.55035 0.18618 0.0
C3465 C 0.57426 0.53722 0.17922 0.0
C3466 C 0.5907 0.58055 0.18693 0.0
C3467 C 0.60517 0.59822 0.1807 0.0
C3468 C 0.60385 0.58516 0.17373 0.0
H3469 H 0.71925 0.78441 0.17402 0.0
H3470 H 0.68883 0.73186 0.17227 0.0
C3471 C 0.58859 0.55507 0.17299 0.0
C3472 C 0.62304 0.63018 0.18156 0.0
H3473 H 0.63097 0.69421 0.17523 0.0
C3474 C 0.64712 0.64148 0.18636 0.0
C3475 C 0.61719 0.64946 0.17749 0.0
C3476 C 0.59125 0.63861 0.17238 0.0
C3477 C 0.66569 0.67144 0.18713 0.0
C3478 C 0.65967 0.69078 0.18313 0.0
C3479 C 0.63564 0.67947 0.1783 0.0
C3480 C 0.67758 0.72274 0.18408 0.0
C3481 C 0.69203 0.68203 0.19208 0.0
C3482 C 0.68092 0.73522 0.19126 0.0
C3483 C 0.69829 0.76504 0.19226 0.0
C3484 C 0.71247 0.78322 0.18609 0.0
C3485 C 0.70859 0.77093 0.17887 0.0
C3486 C 0.69123 0.74093 0.17787 0.0
H3487 H 0.69829 0.66525 0.19282 0.0
H3488 H 0.7107 0.70172 0.18969 0.0
H3489 H 0.68721 0.6874 0.19775 0.0
H3490 H 0.67006 0.72185 0.19611 0.0
H3491 H 0.70065 0.77387 0.19789 0.0
H3492 H 0.31416 0.9055 1.00185 0.0
H3493 H 0.33398 0.95739 1.00352 0.0
H3494 H 0.25655 0.94106 0.01526 0.0
H3495 H 0.23717 0.88889 0.01387 0.0
H3496 H 0.31582 0.99076 0.99811 0.0
H3497 H 0.31565 0.99835 0.0293 0.0
H3498 H 0.30919 0.96591 0.0245 0.0
H3499 H 0.28064 0.97423 0.02548 0.0
C3500 C 0.30153 0.91296 1.00489 0.0
C3501 C 0.27416 0.89315 1.00775 0.0
C3502 C 0.31284 0.94267 1.00582 0.0
C3503 C 0.29697 0.95335 1.00958 0.0
C3504 C 0.26961 0.93351 0.0125 0.0
H3505 H 0.34661 0.13652 1.0037 0.0
H3506 H 0.32065 0.08361 1.00308 0.0
C3507 C 0.25845 0.90367 0.01167 0.0
C3508 C 0.30878 0.98522 1.01011 0.0
H3509 H 0.32648 0.04075 0.02248 0.0
C3510 C 0.31816 1.00167 1.00345 0.0
C3511 C 0.31211 0.99962 0.01707 0.0
C3512 C 0.30414 0.98368 0.0245 0.0
C3513 C 0.33106 0.03193 1.00356 0.0
C3514 C 0.33382 0.04629 1.01049 0.0
C3515 C 0.32413 0.02982 0.01715 0.0
C3516 C 0.3484 0.07844 1.01106 0.0
C3517 C 0.34263 0.04823 0.99625 0.0
C3518 C 0.37195 0.09326 0.01596 0.0
C3519 C 0.38642 0.12339 0.01644 0.0
C3520 C 0.37784 0.13959 0.01199 0.0
C3521 C 0.35397 0.12476 1.00715 0.0
C3522 C 0.33922 0.09448 1.00675 0.0
H3523 H 0.34603 0.03505 0.99196 0.0
H3524 H 0.32684 0.05386 0.99391 0.0
H3525 H 0.36342 0.06851 0.99716 0.0
H3526 H 0.3795 0.08151 0.01935 0.0
H3527 H 0.40473 0.13399 0.02021 0.0
H3528 H 0.12101 0.38518 0.01742 0.0
H3529 H 0.0689 0.35401 0.0198 0.0
H3530 H 0.05527 0.33099 0.99623 0.0
H3531 H 0.10686 0.36193 0.99384 0.0
H3532 H 0.02231 0.35864 0.01236 0.0
H3533 H 0.01352 0.25205 1.0074 0.0
H3534 H 0.0474 0.28418 1.00954 0.0
H3535 H 0.03252 0.27848 1.00019 0.0
C3536 C 0.10689 0.37319 0.01278 0.0
C3537 C 0.11806 0.37588 1.00545 0.0
C3538 C 0.07713 0.35547 0.01414 0.0
C3539 C 0.05817 0.33983 1.00821 0.0
C3540 C 0.06945 0.3424 1.00092 0.0
H3541 H 0.87423 0.22686 1.00068 0.0
H3542 H 0.92707 0.25457 0.99999 0.0
C3543 C 0.09898 0.36023 0.99956 0.0
C3544 C 0.02641 0.32178 1.00948 0.0
H3545 H 0.96951 0.25284 1.0079 0.0
C3546 C 0.01077 0.33545 1.01148 0.0
C3547 C 0.0113 0.29157 1.00824 0.0
C3548 C 0.027 0.27557 1.00628 0.0
C3549 C 0.98043 0.31994 0.01204 0.0
C3550 C 0.96522 0.28967 1.01077 0.0
C3551 C 0.98098 0.27597 1.00887 0.0
C3552 C 0.93302 0.27193 1.0113 0.0
C3553 C 0.96493 0.33642 0.01369 0.0
C3554 C 0.91859 0.27175 0.01795 0.0
C3555 C 0.88838 0.25609 0.01834 0.0
C3556 C 0.87174 0.23979 0.01213 0.0
C3557 C 0.88625 0.23914 1.00557 0.0
C3558 C 0.91653 0.25502 1.00516 0.0
H3559 H 0.97852 0.35971 0.01231 0.0
H3560 H 0.94447 0.32753 1.01045 0.0
H3561 H 0.95971 0.33471 0.01979 0.0
H3562 H 0.93069 0.28383 0.02285 0.0
H3563 H 0.87808 0.25692 0.02352 0.0
H3564 H 0.74698 0.6174 0.02117 0.0
H3565 H 0.72106 0.64396 0.02017 0.0
H3566 H 0.7648 0.68192 0.99927 0.0
H3567 H 0.79105 0.6552 1.0002 0.0
H3568 H 0.76126 0.72169 1.01055 0.0
H3569 H 0.65541 0.62433 1.00442 0.0
H3570 H 0.67441 0.62149 0.01244 0.0
H3571 H 0.68928 0.62508 1.00315 0.0
C3572 C 0.75128 0.63143 0.01635 0.0
C3573 C 0.7711 0.63399 1.01074 0.0
C3574 C 0.73629 0.64654 0.01579 0.0
C3575 C 0.74069 0.66463 1.00961 0.0
C3576 C 0.76097 0.66793 1.00408 0.0
H3577 H 0.66827 0.77489 0.99818 0.0
H3578 H 0.69833 0.75239 0.99897 0.0
C3579 C 0.77594 0.65263 1.00461 0.0
C3580 C 0.72381 0.67978 1.00895 0.0
H3581 H 0.65507 0.66762 1.00696 0.0
C3582 C 0.73808 0.70995 1.0097 0.0
C3583 C 0.69353 0.6644 1.00791 0.0
C3584 C 0.67717 0.63205 1.00687 0.0
C3585 C 0.72277 0.72507 1.00964 0.0
C3586 C 0.69242 0.70966 1.0086 0.0
C3587 C 0.67826 0.67949 1.00778 0.0
C3588 C 0.67485 0.72428 1.0083 0.0
C3589 C 0.7392 0.75728 1.01093 0.0
C3590 C 0.65116 0.71566 0.01318 0.0
C3591 C 0.63369 0.72827 0.01267 0.0
C3592 C 0.63949 0.74972 1.00726 0.0
C3593 C 0.66335 0.75856 1.00245 0.0
C3594 C 0.6807 0.74582 1.00292 0.0
H3595 H 0.76005 0.76428 0.01385 0.0
H3596 H 0.74406 0.76848 1.0054 0.0
H3597 H 0.72638 0.76431 0.01433 0.0
H3598 H 0.64608 0.69902 0.01736 0.0
H3599 H 0.61545 0.721 0.01646 0.0
H3600 H 0.77506 0.08235 0.82703 0.0
H3601 H 0.72348 0.06118 0.82959 0.0
H3602 H 0.73791 0.04957 0.85294 0.0
H3603 H 0.78985 0.07074 0.85038 0.0
H3604 H 0.69142 0.99982 0.84594 0.0
H3605 H 0.68212 0.09723 0.841 0.0
H3606 H 0.69972 0.08934 0.8335 0.0
H3607 H 0.71632 0.09909 0.84266 0.0
C3608 C 0.76732 0.07552 0.83273 0.0
C3609 C 0.78656 0.07844 0.83853 0.0
C3610 C 0.73782 0.06356 0.83419 0.0
C3611 C 0.7268 0.05418 0.84148 0.0
C3612 C 0.74594 0.05689 0.84728 0.0
H3613 H 0.54793 0.95915 0.85785 0.0
H3614 H 0.60053 0.98487 0.85698 0.0
C3615 C 0.7756 0.06908 0.84583 0.0
C3616 C 0.69516 0.04049 0.8429 0.0
H3617 H 0.63808 0.05229 0.8416 0.0
C3618 C 0.67978 0.01136 0.84507 0.0
C3619 C 0.67993 0.05549 0.84172 0.0
C3620 C 0.69535 0.08709 0.83966 0.0
C3621 C 0.64953 0.99658 0.84586 0.0
C3622 C 0.63421 0.0115 0.84461 0.0
C3623 C 0.6497 0.04078 0.84254 0.0
C3624 C 0.60211 0.99698 0.84527 0.0
C3625 C 0.63418 0.96481 0.84776 0.0
C3626 C 0.58531 0.99614 0.83907 0.0
C3627 C 0.5551 0.98167 0.83957 0.0
C3628 C 0.54094 0.96773 0.84629 0.0
C3629 C 0.55792 0.96935 0.85255 0.0
C3630 C 0.58811 0.98392 0.85205 0.0
H3631 H 0.6478 0.95502 0.84653 0.0
H3632 H 0.62896 0.962 0.85387 0.0
H3633 H 0.61369 0.95283 0.84455 0.0
H3634 H 0.59556 0.00622 0.83378 0.0
H3635 H 0.54286 0.98097 0.83462 0.0
H3636 H 0.9386 0.71839 0.84933 0.0
H3637 H 0.96106 0.6884 0.85128 0.0
H3638 H 0.95174 0.66761 0.82755 0.0
H3639 H 0.92998 0.6978 0.82558 0.0
H3640 H 0.94148 0.63056 0.84873 0.0
H3641 H 0.03664 0.6966 0.83067 0.0
H3642 H 0.01247 0.70902 0.83368 0.0
H3643 H 1.00318 0.6847 0.82579 0.0
C3644 C 0.94135 0.70737 0.84455 0.0
C3645 C 0.93269 0.71058 0.8373 0.0
C3646 C 0.95419 0.69025 0.84566 0.0
C3647 C 0.95869 0.67617 0.83954 0.0
C3648 C 0.94928 0.67882 0.83234 0.0
H3649 H 0.03051 0.5627 0.83295 0.0
H3650 H 1.00477 0.58972 0.8317 0.0
C3651 C 0.93664 0.69596 0.83123 0.0
C3652 C 0.97301 0.65856 0.84061 0.0
H3653 H 0.02907 0.65045 0.83432 0.0
C3654 C 0.96074 0.63505 0.84562 0.0
C3655 C 0.99822 0.66434 0.83656 0.0
C3656 C 0.01358 0.6902 0.83143 0.0
C3657 C 0.97253 0.61684 0.84654 0.0
C3658 C 0.99743 0.62239 0.8424 0.0
C3659 C 0.00981 0.64599 0.83744 0.0
C3660 C 0.01153 0.60453 0.84328 0.0
C3661 C 0.95789 0.59142 0.85183 0.0
C3662 C 0.02393 0.60384 0.8502 0.0
C3663 C 0.03873 0.58853 0.85092 0.0
C3664 C 0.04153 0.57351 0.84474 0.0
C3665 C 0.02868 0.57384 0.83784 0.0
C3666 C 0.01401 0.58937 0.83711 0.0
H3667 H 0.93541 0.58597 0.85313 0.0
H3668 H 0.9575 0.57209 0.84938 0.0
H3669 H 0.9701 0.59678 0.85721 0.0
H3670 H 0.02277 0.61574 0.85501 0.0
H3671 H 0.04837 0.58887 0.85632 0.0
H3672 H 0.31588 0.23541 0.82669 0.0
H3673 H 0.34538 0.28729 0.82894 0.0
H3674 H 0.32272 0.27407 0.85254 0.0
H3675 H 0.2932 0.22177 0.8503 0.0
H3676 H 0.32782 0.32431 0.83418 0.0
H3677 H 0.41039 0.32555 0.85341 0.0
H3678 H 0.38637 0.29422 0.84789 0.0
H3679 H 0.37366 0.30272 0.85636 0.0
C3680 C 0.31734 0.24347 0.83239 0.0
C3681 C 0.30235 0.22442 0.83834 0.0
C3682 C 0.33422 0.2732 0.83366 0.0
C3683 C 0.33666 0.28471 0.84092 0.0
C3684 C 0.32174 0.26573 0.84691 0.0
H3685 H 0.42455 0.46297 0.85723 0.0
H3686 H 0.39725 0.41041 0.85604 0.0
C3687 C 0.30479 0.23583 0.84563 0.0
C3688 C 0.35388 0.31667 0.84206 0.0
H3689 H 0.41252 0.37029 0.85126 0.0
C3690 C 0.34638 0.33433 0.83791 0.0
C3691 C 0.37806 0.32985 0.84695 0.0
C3692 C 0.38784 0.3122 0.85137 0.0
C3693 C 0.36216 0.36463 0.83853 0.0
C3694 C 0.3866 0.37786 0.84332 0.0
C3695 C 0.39392 0.36022 0.84756 0.0
C3696 C 0.40458 0.40993 0.84405 0.0
C3697 C 0.35212 0.38217 0.83414 0.0
C3698 C 0.41851 0.42735 0.83775 0.0
C3699 C 0.4342 0.45755 0.8384 0.0
C3700 C 0.43647 0.47108 0.84539 0.0
C3701 C 0.42327 0.45348 0.85174 0.0
C3702 C 0.40761 0.42331 0.85108 0.0
H3703 H 0.32917 0.36892 0.8324 0.0
H3704 H 0.35459 0.40079 0.83752 0.0
H3705 H 0.36537 0.39067 0.82896 0.0
H3706 H 0.41706 0.41757 0.83229 0.0
H3707 H 0.44415 0.47027 0.83339 0.0
H3708 H 0.65704 0.87091 0.0226 0.0
H3709 H 0.68373 0.92391 0.02346 0.0
H3710 H 0.64636 0.92916 1.0024 0.0
H3711 H 0.61975 0.87662 1.00149 0.0
H3712 H 0.72398 0.96671 0.01278 0.0
H3713 H 0.62653 0.97653 0.01727 0.0
H3714 H 0.62637 0.94294 0.01857 0.0
H3715 H 0.62479 0.9552 1.00923 0.0
C3716 C 0.65457 0.88334 0.01814 0.0
C3717 C 0.63605 0.86933 0.012 0.0
C3718 C 0.66985 0.91366 0.01864 0.0
C3719 C 0.66672 0.93056 0.01305 0.0
C3720 C 0.64877 0.91664 1.00685 0.0
H3721 H 0.72733 0.11411 1.00648 0.0
H3722 H 0.705 0.0615 1.00517 0.0
C3723 C 0.63363 0.88647 1.00633 0.0
C3724 C 0.68203 0.96271 0.01365 0.0
H3725 H 0.67044 0.01993 0.01506 0.0
C3726 C 0.71231 0.97836 0.01333 0.0
C3727 C 0.66681 0.97797 0.01431 0.0
C3728 C 0.63434 0.96237 0.01493 0.0
C3729 C 0.72772 0.00881 0.01348 0.0
C3730 C 0.7125 0.02411 0.01416 0.0
C3731 C 0.68219 0.00837 0.01451 0.0
C3732 C 0.72746 0.05635 0.01467 0.0
C3733 C 0.76013 0.02428 0.01269 0.0
C3734 C 0.74759 0.07116 0.02043 0.0
C3735 C 0.76048 0.10121 0.02115 0.0
C3736 C 0.7533 0.11718 0.01619 0.0
C3737 C 0.73336 0.10244 1.01038 0.0
C3738 C 0.72053 0.07235 1.00964 0.0
H3739 H 0.76745 0.0104 1.00992 0.0
H3740 H 0.76818 0.04445 1.00936 0.0
H3741 H 0.77008 0.03002 0.01838 0.0
H3742 H 0.75284 0.05941 0.0245 0.0
H3743 H 0.77559 0.11185 0.02573 0.0
H3744 H 0.8937 0.67636 0.01801 0.0
H3745 H 0.94582 0.70786 0.01629 0.0
H3746 H 0.95336 0.63382 1.01003 0.0
H3747 H 0.90115 0.60286 1.0112 0.0
H3748 H 0.98877 0.71235 0.02306 0.0
H3749 H 1.00083 0.68493 0.99382 0.0
H3750 H 0.96588 0.67273 0.99798 0.0
H3751 H 0.98454 0.65281 0.99943 0.0
C3752 C 0.90652 0.66699 0.01614 0.0
C3753 C 0.89341 0.63726 0.01467 0.0
C3754 C 0.93634 0.68496 0.01518 0.0
C3755 C 0.95376 0.67349 0.01286 0.0
C3756 C 0.94054 0.6436 1.01152 0.0
H3757 H 0.13694 0.75551 0.02304 0.0
H3758 H 0.08425 0.72957 0.02327 0.0
C3759 C 0.91065 0.62579 0.01227 0.0
C3760 C 0.9858 0.69245 0.01226 0.0
H3761 H 0.04414 0.70674 1.00134 0.0
C3762 C 1.00077 0.71136 0.01825 0.0
C3763 C 1.00176 0.6919 1.00593 0.0
C3764 C 0.98733 0.67474 0.9989 0.0
C3765 C 0.03098 0.72898 0.01818 0.0
C3766 C 0.0471 0.72661 0.01214 0.0
C3767 C 0.03208 0.70833 1.00605 0.0
C3768 C 0.07939 0.7426 0.01203 0.0
C3769 C 0.04504 0.75038 0.02453 0.0
C3770 C 0.09459 0.75756 1.00552 0.0
C3771 C 0.1248 0.77151 1.00529 0.0
C3772 C 0.14052 0.77132 0.01162 0.0
C3773 C 0.12542 0.75653 0.01813 0.0
C3774 C 0.09522 0.74187 0.01828 0.0
H3775 H 0.03009 0.75713 0.02691 0.0
H3776 H 0.05062 0.74007 0.02916 0.0
H3777 H 0.06498 0.77 0.02264 0.0
H3778 H 0.08309 0.75844 1.00059 0.0
H3779 H 0.13588 0.78268 1.00018 0.0
H3780 H 0.22134 0.35234 0.02134 0.0
H3781 H 0.24764 0.32577 0.022 0.0
H3782 H 0.28875 0.3626 1.00076 0.0
H3783 H 0.26276 0.38925 1.00003 0.0
H3784 H 0.24941 0.28522 1.01138 0.0
H3785 H 0.35691 0.38313 0.01534 0.0
H3786 H 0.32358 0.38332 0.01675 0.0
H3787 H 0.33667 0.38412 1.00737 0.0
C3788 C 0.23588 0.35476 0.01679 0.0
C3789 C 0.23993 0.37316 1.01065 0.0
C3790 C 0.2509 0.3395 0.01718 0.0
C3791 C 0.27051 0.34249 1.01148 0.0
C3792 C 0.27411 0.36029 1.00528 0.0
H3793 H 0.39362 0.2815 1.00588 0.0
H3794 H 0.36331 0.30352 1.00416 0.0
C3795 C 0.25905 0.37543 1.00486 0.0
C3796 C 0.2874 0.32725 0.01205 0.0
H3797 H 0.35614 0.33891 0.01362 0.0
C3798 C 0.27274 0.29693 0.01189 0.0
C3799 C 0.31787 0.34252 0.01267 0.0
C3800 C 0.33477 0.37507 0.01311 0.0
C3801 C 0.28772 0.28151 0.01223 0.0
C3802 C 0.31821 0.29677 0.01293 0.0
C3803 C 0.33283 0.32713 0.01306 0.0
C3804 C 0.33541 0.28183 0.01368 0.0
C3805 C 0.27072 0.24901 0.01164 0.0
C3806 C 0.32992 0.2622 0.01958 0.0
C3807 C 0.34709 0.24943 0.02054 0.0
C3808 C 0.37043 0.25631 0.01567 0.0
C3809 C 0.37578 0.27572 1.00972 0.0
C3810 C 0.35849 0.28838 1.00874 0.0
H3811 H 0.24962 0.24147 1.0088 0.0
H3812 H 0.28289 0.24059 1.00847 0.0
H3813 H 0.2663 0.2396 0.01739 0.0
H3814 H 0.31278 0.25726 0.02359 0.0
H3815 H 0.34253 0.23473 0.02521 0.0
H3816 H 0.13069 0.38113 0.50005 0.0
H3817 H 0.07816 0.3558 0.50132 0.0
H3818 H 0.08561 0.33641 0.52453 0.0
H3819 H 0.13832 0.36184 0.52333 0.0
H3820 H 0.03789 0.29746 0.50574 0.0
H3821 H 0.038 0.3782 0.52551 0.0
H3822 H 0.06911 0.3854 0.51992 0.0
H3823 H 0.06043 0.36356 0.52826 0.0
C3824 C 0.12124 0.37138 0.50543 0.0
C3825 C 0.13889 0.37374 0.5116 0.0
C3826 C 0.09112 0.35684 0.50613 0.0
C3827 C 0.07789 0.34453 0.51304 0.0
C3828 C 0.09533 0.34612 0.51917 0.0
H3829 H 0.90315 0.26243 0.53035 0.0
H3830 H 0.95497 0.2837 0.52826 0.0
C3831 C 0.1255 0.36054 0.51846 0.0
C3832 C 0.04592 0.33058 0.51386 0.0
H3833 H 0.99305 0.33634 0.52318 0.0
C3834 C 0.02804 0.30596 0.50954 0.0
C3835 C 0.03306 0.34176 0.51879 0.0
C3836 C 0.05104 0.36882 0.52335 0.0
C3837 C 0.99772 0.29177 0.51016 0.0
C3838 C 0.98483 0.3029 0.51512 0.0
C3839 C 1.0028 0.32771 0.51939 0.0
C3840 C 0.95288 0.28878 0.5162 0.0
C3841 C 0.97986 0.26452 0.50567 0.0
C3842 C 0.93415 0.28445 0.51012 0.0
C3843 C 0.90427 0.27198 0.51131 0.0
C3844 C 0.89265 0.26394 0.51861 0.0
C3845 C 0.91141 0.26834 0.52466 0.0
C3846 C 0.94111 0.28057 0.52347 0.0
H3847 H 0.99286 0.25468 0.5038 0.0
H3848 H 0.96123 0.24831 0.50902 0.0
H3849 H 0.9714 0.26974 0.50056 0.0
H3850 H 0.94265 0.29119 0.50448 0.0
H3851 H 0.89037 0.2691 0.50656 0.0
H3852 H 0.62908 0.75234 0.49912 0.0
H3853 H 0.65404 0.72463 0.50013 0.0
H3854 H 0.67343 0.74972 0.52346 0.0
H3855 H 0.64842 0.77743 0.52253 0.0
H3856 H 0.71208 0.74145 0.50445 0.0
H3857 H 0.63151 0.66054 0.5241 0.0
H3858 H 0.62454 0.68499 0.51869 0.0
H3859 H 0.6463 0.69741 0.52708 0.0
C3860 C 0.63874 0.75215 0.50447 0.0
C3861 C 0.63649 0.76712 0.51076 0.0
C3862 C 0.65307 0.73626 0.50503 0.0
C3863 C 0.66528 0.73467 0.5119 0.0
C3864 C 0.66379 0.75019 0.51813 0.0
H3865 H 0.74867 0.64447 0.52964 0.0
H3866 H 0.72674 0.67418 0.5272 0.0
C3867 C 0.64959 0.76622 0.51757 0.0
C3868 C 0.67909 0.71639 0.51259 0.0
H3869 H 0.67394 0.65813 0.52198 0.0
C3870 C 0.70368 0.72314 0.50825 0.0
C3871 C 0.66808 0.69237 0.51752 0.0
C3872 C 0.64101 0.68314 0.52207 0.0
C3873 C 0.7181 0.70719 0.50891 0.0
C3874 C 0.7073 0.68337 0.51392 0.0
C3875 C 0.68238 0.67637 0.51815 0.0
C3876 C 0.72202 0.66611 0.51517 0.0
C3877 C 0.74535 0.71666 0.50442 0.0
C3878 C 0.7269 0.6515 0.50923 0.0
C3879 C 0.73977 0.63451 0.51062 0.0
C3880 C 0.74772 0.63161 0.51799 0.0
C3881 C 0.74287 0.64628 0.5239 0.0
C3882 C 0.73023 0.66328 0.5225 0.0
H3883 H 0.75475 0.73927 0.5024 0.0
H3884 H 0.76183 0.71493 0.50783 0.0
H3885 H 0.7403 0.7025 0.4994 0.0
H3886 H 0.72021 0.65269 0.50354 0.0
H3887 H 0.74289 0.62319 0.50598 0.0
H3888 H 0.25878 0.87932 0.49909 0.0
H3889 H 0.28638 0.932 0.50011 0.0
H3890 H 0.26027 0.92641 0.52335 0.0
H3891 H 0.23269 0.8737 0.52241 0.0
H3892 H 0.26906 0.97309 0.50433 0.0
H3893 H 0.34945 0.97354 0.5242 0.0
H3894 H 0.32525 0.94212 0.51873 0.0
H3895 H 0.31252 0.95134 0.52708 0.0
C3896 C 0.25873 0.8892 0.50442 0.0
C3897 C 0.24354 0.87204 0.51068 0.0
C3898 C 0.27454 0.91941 0.50499 0.0
C3899 C 0.27579 0.93321 0.51184 0.0
C3900 C 0.26004 0.91626 0.51803 0.0
H3901 H 0.36449 0.10655 0.52972 0.0
H3902 H 0.33478 0.05489 0.52722 0.0
C3903 C 0.24411 0.88605 0.51747 0.0
C3904 C 0.29395 0.96524 0.51255 0.0
H3905 H 0.35171 0.01834 0.52208 0.0
C3906 C 0.28723 0.98304 0.50818 0.0
C3907 C 0.31778 0.97824 0.51754 0.0
C3908 C 0.32694 0.9604 0.52211 0.0
C3909 C 0.30305 0.01339 0.50887 0.0
C3910 C 0.32664 0.02638 0.51396 0.0
C3911 C 0.33361 0.00851 0.51821 0.0
C3912 C 0.34372 0.05829 0.51523 0.0
C3913 C 0.2937 0.03117 0.50435 0.0
C3914 C 0.35876 0.07773 0.50933 0.0
C3915 C 0.37572 0.10753 0.51076 0.0
C3916 C 0.37815 0.11836 0.51812 0.0
C3917 C 0.36302 0.09891 0.52398 0.0
C3918 C 0.34604 0.0693 0.52256 0.0
H3919 H 0.27123 0.01793 0.50224 0.0
H3920 H 0.29515 0.04927 0.50777 0.0
H3921 H 0.30812 0.04046 0.49939 0.0
H3922 H 0.35793 0.06982 0.50366 0.0
H3923 H 0.38743 0.12195 0.50615 0.0
H3924 H 0.03543 0.47112 0.33297 0.0
H3925 H 0.01015 0.41833 0.33215 0.0
H3926 H 0.01996 0.41306 0.35613 0.0
H3927 H 0.04503 0.46569 0.35703 0.0
H3928 H 0.03263 0.38252 0.33621 0.0
H3929 H 0.93413 0.35464 0.35286 0.0
H3930 H 0.9575 0.39046 0.34919 0.0
H3931 H 0.96758 0.37848 0.35752 0.0
C3932 C 0.0319 0.45879 0.3381 0.0
C3933 C 0.0423 0.47285 0.34507 0.0
C3934 C 0.01748 0.42854 0.33761 0.0
C3935 C 0.01282 0.41161 0.34409 0.0
C3936 C 0.02278 0.42554 0.35107 0.0
H3937 H 0.93691 0.22394 0.35057 0.0
H3938 H 0.95958 0.27643 0.35262 0.0
C3939 C 0.03729 0.45575 0.35156 0.0
C3940 C 0.999 0.37954 0.34347 0.0
H3941 H 0.94099 0.31576 0.34924 0.0
C3942 C 0.01254 0.36795 0.33904 0.0
C3943 C 0.97295 0.36043 0.34724 0.0
C3944 C 0.95699 0.37153 0.35192 0.0
C3945 C 1.00088 0.33794 0.33828 0.0
C3946 C 0.97451 0.3188 0.34192 0.0
C3947 C 0.96116 0.33035 0.34645 0.0
C3948 C 0.95997 0.28685 0.3408 0.0
C3949 C 0.01726 0.32704 0.33369 0.0
C3950 C 0.95202 0.27511 0.33352 0.0
C3951 C 0.93921 0.24534 0.33235 0.0
C3952 C 0.93372 0.22643 0.33844 0.0
C3953 C 0.94092 0.23798 0.34577 0.0
C3954 C 0.95387 0.26795 0.34694 0.0
H3955 H 0.04053 0.3435 0.33327 0.0
H3956 H 0.01524 0.30705 0.33617 0.0
H3957 H 0.00834 0.32208 0.32788 0.0
H3958 H 0.95578 0.28905 0.32871 0.0
H3959 H 0.93373 0.23712 0.32664 0.0
H3960 H 0.77337 0.69654 0.32652 0.0
H3961 H 0.7215 0.66595 0.32862 0.0
H3962 H 0.73362 0.68668 0.35234 0.0
H3963 H 0.78583 0.71768 0.35025 0.0
H3964 H 0.69103 0.61733 0.33815 0.0
H3965 H 0.67161 0.70694 0.34596 0.0
H3966 H 0.70449 0.71314 0.34145 0.0
H3967 H 0.69896 0.70476 0.35133 0.0
C3968 C 0.76504 0.69456 0.3322 0.0
C3969 C 0.78369 0.70954 0.33823 0.0
C3970 C 0.73536 0.67701 0.33339 0.0
C3971 C 0.72354 0.67421 0.34062 0.0
C3972 C 0.74217 0.68881 0.34669 0.0
H3973 H 0.54558 0.58816 0.35637 0.0
H3974 H 0.59804 0.6143 0.3553 0.0
C3975 C 0.772 0.70635 0.3455 0.0
C3976 C 0.69172 0.65618 0.3417 0.0
H3977 H 0.63164 0.65972 0.34647 0.0
C3978 C 0.67802 0.62657 0.33998 0.0
C3979 C 0.67473 0.66822 0.34408 0.0
C3980 C 0.68805 0.70004 0.34576 0.0
C3981 C 0.6479 0.60866 0.34064 0.0
C3982 C 0.63084 0.62078 0.34292 0.0
C3983 C 0.64462 0.65037 0.3447 0.0
C3984 C 0.59873 0.60328 0.34358 0.0
C3985 C 0.63476 0.57681 0.33904 0.0
C3986 C 0.58137 0.58817 0.33735 0.0
C3987 C 0.55114 0.57292 0.33796 0.0
C3988 C 0.53762 0.57278 0.34479 0.0
C3989 C 0.55512 0.58777 0.35102 0.0
C3990 C 0.58523 0.60281 0.35041 0.0
H3991 H 0.65098 0.56971 0.33952 0.0
H3992 H 0.61667 0.56373 0.34297 0.0
H3993 H 0.62621 0.57232 0.33319 0.0
H3994 H 0.59116 0.58868 0.33196 0.0
H3995 H 0.53839 0.56185 0.33304 0.0
H3996 H 0.28883 0.0706 0.35116 0.0
H3997 H 0.32043 0.05029 0.35361 0.0
H3998 H 0.34272 0.05847 0.33 0.0
H3999 H 0.31155 0.07881 0.32755 0.0
H4000 H 0.31712 0.99999 0.34704 0.0
H4001 H 0.42181 0.09754 0.3405 0.0
H4002 H 0.38938 0.099 0.34238 0.0
H4003 H 0.39515 0.08811 0.33324 0.0
C4004 C 0.30072 0.0683 0.34652 0.0
C4005 C 0.29793 0.07651 0.33918 0.0
C4006 C 0.31869 0.05664 0.34792 0.0
C4007 C 0.33435 0.05331 0.34201 0.0
C4008 C 0.33138 0.06139 0.33468 0.0
H4009 H 0.44405 0.98047 0.33386 0.0
H4010 H 0.41603 0.0052 0.33342 0.0
C4011 C 0.3134 0.07287 0.33328 0.0
C4012 C 0.35297 0.04038 0.34336 0.0
H4013 H 0.42183 0.05298 0.34117 0.0
C4014 C 0.34008 0.01166 0.34585 0.0
C4015 C 0.38292 0.05559 0.34177 0.0
C4016 C 0.39823 0.08686 0.33939 0.0
C4017 C 0.35608 0.9974 0.34652 0.0
C4018 C 0.38596 0.01246 0.3448 0.0
C4019 C 0.39894 0.04138 0.34246 0.0
C4020 C 0.40394 0.99837 0.34521 0.0
C4021 C 0.34059 0.96598 0.34878 0.0
C4022 C 0.40711 0.98687 0.35202 0.0
C4023 C 0.42308 0.97264 0.3523 0.0
C4024 C 0.4365 0.96979 0.34577 0.0
C4025 C 0.43404 0.98216 0.339 0.0
C4026 C 0.41799 0.99633 0.33873 0.0
H4027 H 0.31685 0.95577 0.34803 0.0
H4028 H 0.34835 0.95364 0.34543 0.0
H4029 H 0.34487 0.96423 0.35483 0.0
H4030 H 0.39708 0.98876 0.35714 0.0
H4031 H 0.42463 0.96362 0.35763 0.0
H4032 H 0.11914 0.3522 0.06494 0.0
H4033 H 0.11642 0.33962 0.07828 0.0
H4034 H 0.20732 0.36791 0.07829 0.0
H4035 H 0.21024 0.38052 0.0649 0.0
H4036 H 0.12802 0.30076 0.08527 0.0
H4037 H 0.20068 0.4111 0.09639 0.0
H4038 H 0.18653 0.40468 0.0869 0.0
H4039 H 0.21637 0.39954 0.0892 0.0
C4040 C 0.13858 0.35559 0.06775 0.0
C4041 C 0.16493 0.36738 0.0638 0.0
C4042 C 0.137 0.34851 0.0754 0.0
C4043 C 0.16172 0.35315 0.07935 0.0
C4044 C 0.18805 0.36472 0.07544 0.0
H4045 H 0.18103 0.31668 0.12682 0.0
H4046 H 0.18988 0.32938 0.11338 0.0
C4047 C 0.18968 0.37189 0.06776 0.0
C4048 C 0.15952 0.3452 0.0875 0.0
H4049 H 0.18342 0.37271 0.10518 0.0
C4050 C 0.14017 0.31653 0.08961 0.0
C4051 C 0.17545 0.36569 0.0932 0.0
C4052 C 0.19575 0.39703 0.09135 0.0
C4053 C 0.13623 0.30784 0.09722 0.0
C4054 C 0.15173 0.32842 0.10291 0.0
C4055 C 0.17155 0.35695 0.10081 0.0
C4056 C 0.14663 0.32094 0.11109 0.0
C4057 C 0.11557 0.27661 0.09909 0.0
C4058 C 0.11953 0.31235 0.1143 0.0
C4059 C 0.11444 0.30515 0.12195 0.0
C4060 C 0.13635 0.3064 0.12661 0.0
C4061 C 0.1636 0.31522 0.12339 0.0
C4062 C 0.16873 0.32262 0.11572 0.0
H4063 H 0.11133 0.26233 0.09413 0.0
H4064 H 0.12408 0.26913 0.10376 0.0
H4065 H 0.09469 0.27429 0.10094 0.0
H4066 H 0.10224 0.31124 0.11087 0.0
H4067 H 0.09311 0.29814 0.1242 0.0
H4068 H 0.64877 0.76763 0.06565 0.0
H4069 H 0.66195 0.77699 0.07896 0.0
H4070 H 0.65489 0.85379 0.07801 0.0
H4071 H 0.64156 0.84452 0.06465 0.0
H4072 H 0.70752 0.82252 0.0858 0.0
H4073 H 0.60541 0.81335 0.09625 0.0
H4074 H 0.60879 0.80202 0.08689 0.0
H4075 H 0.62285 0.83967 0.08893 0.0
C4076 C 0.65021 0.78667 0.06823 0.0
C4077 C 0.6441 0.80533 0.06403 0.0
C4078 C 0.65762 0.79191 0.07588 0.0
C4079 C 0.65903 0.81587 0.07956 0.0
C4080 C 0.65328 0.83476 0.07538 0.0
H4081 H 0.70393 0.87411 0.12669 0.0
H4082 H 0.69244 0.87134 0.11319 0.0
C4083 C 0.64573 0.82947 0.06771 0.0
C4084 C 0.66711 0.82112 0.08772 0.0
H4085 H 0.64307 0.82736 0.10516 0.0
C4086 C 0.69339 0.82358 0.09002 0.0
C4087 C 0.64879 0.82266 0.09327 0.0
C4088 C 0.61977 0.81904 0.09125 0.0
C4089 C 0.70179 0.82739 0.09765 0.0
C4090 C 0.68327 0.82841 0.1032 0.0
C4091 C 0.65727 0.82659 0.10091 0.0
C4092 C 0.69003 0.83015 0.11142 0.0
C4093 C 0.73056 0.83049 0.09971 0.0
C4094 C 0.69212 0.80778 0.11495 0.0
C4095 C 0.69866 0.80929 0.12265 0.0
C4096 C 0.70322 0.83321 0.12703 0.0
C4097 C 0.70086 0.85552 0.12349 0.0
C4098 C 0.69414 0.8539 0.11577 0.0
H4099 H 0.74531 0.83696 0.09477 0.0
H4100 H 0.74121 0.8467 0.10427 0.0
H4101 H 0.72716 0.80943 0.10178 0.0
H4102 H 0.68866 0.78904 0.11175 0.0
H4103 H 0.7006 0.79185 0.12514 0.0
H4104 H 0.12977 0.83756 0.12551 0.0
H4105 H 0.13507 0.82814 0.11223 0.0
H4106 H 0.22617 0.8896 0.11338 0.0
H4107 H 0.22109 0.89929 0.12659 0.0
H4108 H 0.15384 0.86533 0.10012 0.0
H4109 H 0.2257 0.81963 0.10419 0.0
H4110 H 0.20617 0.8242 0.11188 0.0
H4111 H 0.23928 0.8544 0.10853 0.0
C4112 C 0.15095 0.8491 0.12294 0.0
C4113 C 0.17503 0.86905 0.12718 0.0
C4114 C 0.15396 0.8436 0.11535 0.0
C4115 C 0.18111 0.85776 0.11182 0.0
C4116 C 0.20512 0.87779 0.11601 0.0
H4117 H 0.2226 0.88702 0.06423 0.0
H4118 H 0.21216 0.88955 0.07753 0.0
C4119 C 0.20215 0.88329 0.12359 0.0
C4120 C 0.18426 0.85249 0.10369 0.0
H4121 H 0.22151 0.83303 0.0916 0.0
C4122 C 0.16849 0.85806 0.09827 0.0
C4123 C 0.20303 0.84259 0.10124 0.0
C4124 C 0.2193 0.83457 0.10676 0.0
C4125 C 0.17166 0.85491 0.09049 0.0
C4126 C 0.1915 0.84639 0.08803 0.0
C4127 C 0.20656 0.83989 0.09346 0.0
C4128 C 0.19731 0.84455 0.07987 0.0
C4129 C 0.15353 0.86054 0.08499 0.0
C4130 C 0.19311 0.81857 0.07673 0.0
C4131 C 0.19906 0.81701 0.06909 0.0
C4132 C 0.20954 0.84149 0.0644 0.0
C4133 C 0.21395 0.86754 0.06759 0.0
C4134 C 0.20799 0.86905 0.07522 0.0
H4135 H 0.13393 0.85853 0.08773 0.0
H4136 H 0.1664 0.88287 0.08278 0.0
H4137 H 0.14678 0.84536 0.08014 0.0
H4138 H 0.185 0.79938 0.0802 0.0
H4139 H 0.19516 0.79653 0.06684 0.0
H4140 H 0.41444 0.18793 0.45584 0.0
H4141 H 0.40163 0.18536 0.4425 0.0
H4142 H 0.31154 0.14406 0.44846 0.0
H4143 H 0.32418 0.14737 0.46183 0.0
H4144 H 0.36821 0.13665 0.43403 0.0
H4145 H 0.31916 0.20666 0.43408 0.0
H4146 H 0.34078 0.20601 0.44181 0.0
H4147 H 0.30363 0.17811 0.44091 0.0
C4148 C 0.39192 0.17881 0.45434 0.0
C4149 C 0.37038 0.16795 0.45996 0.0
C4150 C 0.38461 0.17717 0.44669 0.0
C4151 C 0.35563 0.16486 0.44445 0.0
C4152 C 0.33409 0.15416 0.45003 0.0
H4153 H 0.26336 0.11819 0.40173 0.0
H4154 H 0.27809 0.1274 0.41497 0.0
C4155 C 0.34136 0.15576 0.45768 0.0
C4156 C 0.34787 0.1619 0.43627 0.0
H4157 H 0.31225 0.17873 0.42298 0.0
C4158 C 0.35618 0.14606 0.4316 0.0
C4159 C 0.33207 0.17407 0.4331 0.0
C4160 C 0.3236 0.1924 0.43771 0.0
C4161 C 0.34857 0.14148 0.42392 0.0
C4162 C 0.33263 0.15351 0.42074 0.0
C4163 C 0.32444 0.16948 0.4254 0.0
C4164 C 0.32389 0.14934 0.41264 0.0
C4165 C 0.35696 0.12306 0.41931 0.0
C4166 C 0.3447 0.15922 0.40687 0.0
C4167 C 0.33635 0.15411 0.39927 0.0
C4168 C 0.30695 0.13914 0.39724 0.0
C4169 C 0.28618 0.13005 0.40304 0.0
C4170 C 0.29457 0.13516 0.41064 0.0
H4171 H 0.36248 0.10959 0.42295 0.0
H4172 H 0.33926 0.10864 0.41543 0.0
H4173 H 0.37622 0.13726 0.41585 0.0
H4174 H 0.36747 0.17083 0.40825 0.0
H4175 H 0.35297 0.16193 0.39498 0.0
H4176 H 0.85848 0.12558 0.40027 0.0
H4177 H 0.84905 0.13038 0.41356 0.0
H4178 H 0.86474 0.21639 0.4093 0.0
H4179 H 0.87465 0.21204 0.39605 0.0
H4180 H 0.88659 0.17154 0.42406 0.0
H4181 H 0.78743 0.17882 0.42056 0.0
H4182 H 0.80138 0.16592 0.41316 0.0
H4183 H 0.8173 0.20402 0.41489 0.0
C4184 C 0.85998 0.14557 0.40214 0.0
C4185 C 0.86727 0.16838 0.39703 0.0
C4186 C 0.85444 0.14821 0.40976 0.0
C4187 C 0.85578 0.1736 0.41243 0.0
C4188 C 0.8629 0.19633 0.40735 0.0
H4189 H 0.84138 0.24236 0.45549 0.0
H4190 H 0.84605 0.23252 0.44225 0.0
C4191 C 0.86851 0.19376 0.39975 0.0
C4192 C 0.85096 0.1768 0.42059 0.0
H4193 H 0.80925 0.19027 0.4327 0.0
C4194 C 0.86953 0.17539 0.42596 0.0
C4195 C 0.82876 0.18192 0.42308 0.0
C4196 C 0.80738 0.18252 0.41764 0.0
C4197 C 0.86708 0.17982 0.4337 0.0
C4198 C 0.845 0.18516 0.43619 0.0
C4199 C 0.8262 0.18622 0.43082 0.0
C4200 C 0.84151 0.19056 0.4443 0.0
C4201 C 0.88886 0.17974 0.43909 0.0
C4202 C 0.83691 0.17009 0.4499 0.0
C4203 C 0.83425 0.17569 0.45751 0.0
C4204 C 0.83574 0.20174 0.45969 0.0
C4205 C 0.83976 0.22192 0.45403 0.0
C4206 C 0.84257 0.21638 0.44644 0.0
H4207 H 0.90862 0.18317 0.43612 0.0
H4208 H 0.89523 0.19676 0.44346 0.0
H4209 H 0.87918 0.1585 0.44197 0.0
H4210 H 0.83524 0.14968 0.44839 0.0
H4211 H 0.83074 0.15947 0.46169 0.0
H4212 H 0.86789 0.69056 0.39662 0.0
H4213 H 0.86301 0.6762 0.40994 0.0
H4214 H 0.78963 0.68854 0.41212 0.0
H4215 H 0.79421 0.70263 0.39887 0.0
H4216 H 0.86549 0.705 0.42292 0.0
H4217 H 0.75707 0.60813 0.4205 0.0
H4218 H 0.7786 0.62665 0.41234 0.0
H4219 H 0.7578 0.64003 0.41706 0.0
C4220 C 0.85071 0.69021 0.39994 0.0
C4221 C 0.8312 0.69739 0.39662 0.0
C4222 C 0.8479 0.68192 0.40756 0.0
C4223 C 0.82553 0.6806 0.41202 0.0
C4224 C 0.8065 0.68844 0.40876 0.0
H4225 H 0.76858 0.65027 0.45835 0.0
H4226 H 0.77751 0.66203 0.44495 0.0
C4227 C 0.80918 0.69655 0.40116 0.0
C4228 C 0.82232 0.67172 0.42012 0.0
H4229 H 0.77349 0.62532 0.433 0.0
C4230 C 0.84548 0.68736 0.4251 0.0
C4231 C 0.79626 0.64862 0.42301 0.0
C4232 C 0.77113 0.6297 0.41794 0.0
C4233 C 0.8429 0.68129 0.4329 0.0
C4234 C 0.81655 0.65875 0.4358 0.0
C4235 C 0.79363 0.64272 0.4308 0.0
C4236 C 0.81188 0.65202 0.44403 0.0
C4237 C 0.86807 0.6997 0.43801 0.0
C4238 C 0.82807 0.64222 0.448 0.0
C4239 C 0.82307 0.63555 0.45572 0.0
C4240 C 0.80177 0.63853 0.45963 0.0
C4241 C 0.78552 0.64819 0.45559 0.0
C4242 C 0.79045 0.65474 0.44789 0.0
H4243 H 0.88437 0.71988 0.43518 0.0
H4244 H 0.86064 0.7055 0.44323 0.0
H4245 H 0.87877 0.68733 0.43967 0.0
H4246 H 0.8444 0.63947 0.44512 0.0
H4247 H 0.83609 0.62829 0.45863 0.0
H4248 H 0.91177 0.70213 0.89825 0.0
H4249 H 0.90166 0.68964 0.91159 0.0
H4250 H 0.81952 0.6856 0.90931 0.0
H4251 H 0.82926 0.69765 0.89587 0.0
H4252 H 0.88983 0.72039 0.92296 0.0
H4253 H 0.79917 0.60776 0.91951 0.0
H4254 H 0.82389 0.62734 0.91194 0.0
H4255 H 0.79612 0.6353 0.91448 0.0
C4256 C 0.89134 0.6982 0.90054 0.0
C4257 C 0.87121 0.70065 0.89594 0.0
C4258 C 0.8857 0.69126 0.9082 0.0
C4259 C 0.8597 0.68634 0.91145 0.0
C4260 C 0.83956 0.68889 0.90691 0.0
H4261 H 0.79617 0.63388 0.95785 0.0
H4262 H 0.80063 0.64814 0.94454 0.0
C4263 C 0.84527 0.69602 0.89923 0.0
C4264 C 0.85423 0.67921 0.91963 0.0
H4265 H 0.81187 0.62525 0.93196 0.0
C4266 C 0.87273 0.69962 0.92493 0.0
C4267 C 0.83177 0.65219 0.92221 0.0
C4268 C 0.81165 0.62922 0.91676 0.0
C4269 C 0.86953 0.69372 0.93272 0.0
C4270 C 0.84765 0.66635 0.9353 0.0
C4271 C 0.82869 0.64618 0.93 0.0
C4272 C 0.84488 0.65788 0.94341 0.0
C4273 C 0.88949 0.71706 0.93812 0.0
C4274 C 0.86806 0.65814 0.9472 0.0
C4275 C 0.86558 0.65001 0.95479 0.0
C4276 C 0.83974 0.64114 0.95879 0.0
C4277 C 0.81636 0.64048 0.95495 0.0
C4278 C 0.8189 0.64871 0.94734 0.0
H4279 H 0.89843 0.73887 0.93558 0.0
H4280 H 0.87822 0.71641 0.94344 0.0
H4281 H 0.90789 0.71382 0.93951 0.0
H4282 H 0.88805 0.66428 0.94425 0.0
H4283 H 0.8838 0.65011 0.95748 0.0
H4284 H 0.32418 0.1422 0.89593 0.0
H4285 H 0.33687 0.14626 0.90937 0.0
H4286 H 0.31248 0.21129 0.91219 0.0
H4287 H 0.29921 0.20697 0.89887 0.0
H4288 H 0.37737 0.19582 0.91779 0.0
H4289 H 0.26599 0.15182 0.92867 0.0
H4290 H 0.27354 0.1474 0.91898 0.0
H4291 H 0.27672 0.18091 0.92208 0.0
C4292 C 0.32134 0.15723 0.89942 0.0
C4293 C 0.31064 0.17425 0.89629 0.0
C4294 C 0.32874 0.15963 0.9071 0.0
C4295 C 0.32526 0.1788 0.91182 0.0
C4296 C 0.31494 0.19603 0.90869 0.0
H4297 H 0.3538 0.23578 0.95813 0.0
H4298 H 0.34155 0.2261 0.94477 0.0
C4299 C 0.30768 0.19376 0.90104 0.0
C4300 C 0.33259 0.18114 0.92 0.0
H4301 H 0.30401 0.17492 0.93763 0.0
C4302 C 0.36131 0.19097 0.92214 0.0
C4303 C 0.31161 0.1748 0.92567 0.0
C4304 C 0.28018 0.16288 0.92376 0.0
C4305 C 0.3698 0.19569 0.92977 0.0
C4306 C 0.3489 0.1899 0.93544 0.0
C4307 C 0.32007 0.17948 0.9333 0.0
C4308 C 0.35654 0.19547 0.94361 0.0
C4309 C 0.40127 0.20788 0.93168 0.0
C4310 C 0.36878 0.18124 0.94747 0.0
C4311 C 0.37573 0.18665 0.95516 0.0
C4312 C 0.37036 0.20624 0.95918 0.0
C4313 C 0.35786 0.22023 0.95528 0.0
C4314 C 0.35098 0.21485 0.94761 0.0
H4315 H 0.41536 0.21762 0.92667 0.0
H4316 H 0.40815 0.22457 0.93616 0.0
H4317 H 0.40463 0.19026 0.9338 0.0
H4318 H 0.3727 0.16571 0.94456 0.0
H4319 H 0.38493 0.17516 0.95798 0.0
H4320 H 0.86799 0.12564 0.90068 0.0
H4321 H 0.86248 0.13437 0.91397 0.0
H4322 H 0.80516 0.16566 0.9077 0.0
H4323 H 0.81071 0.15725 0.89439 0.0
H4324 H 0.87352 0.18446 0.92181 0.0
H4325 H 0.75707 0.10215 0.92294 0.0
H4326 H 0.78006 0.10427 0.91522 0.0
H4327 H 0.76635 0.12883 0.9157 0.0
C4328 C 0.8545 0.13475 0.9021 0.0
C4329 C 0.83965 0.14054 0.89642 0.0
C4330 C 0.85125 0.13958 0.90972 0.0
C4331 C 0.83297 0.15016 0.91187 0.0
C4332 C 0.81883 0.15682 0.90621 0.0
H4333 H 0.77748 0.18345 0.95517 0.0
H4334 H 0.78715 0.18054 0.94179 0.0
C4335 C 0.82205 0.15199 0.89859 0.0
C4336 C 0.82851 0.15395 0.92001 0.0
H4337 H 0.77683 0.13162 0.93376 0.0
C4338 C 0.85239 0.17285 0.92443 0.0
C4339 C 0.80095 0.13879 0.92345 0.0
C4340 C 0.77465 0.11716 0.91911 0.0
C4341 C 0.84938 0.17736 0.93213 0.0
C4342 C 0.82181 0.16219 0.93556 0.0
C4343 C 0.79795 0.14333 0.93114 0.0
C4344 C 0.8172 0.1653 0.94374 0.0
C4345 C 0.87566 0.19881 0.93649 0.0
C4346 C 0.83079 0.15764 0.94932 0.0
C4347 C 0.82539 0.1594 0.95699 0.0
C4348 C 0.80619 0.16878 0.95927 0.0
C4349 C 0.79274 0.17659 0.95365 0.0
C4350 C 0.79809 0.17473 0.94599 0.0
H4351 H 0.89317 0.21407 0.93268 0.0
H4352 H 0.87022 0.21142 0.94048 0.0
H4353 H 0.88407 0.18701 0.93981 0.0
H4354 H 0.84522 0.1498 0.94775 0.0
H4355 H 0.83628 0.15338 0.96115 0.0
H4356 H 0.60874 0.85069 0.56775 0.0
H4357 H 0.62312 0.85429 0.58098 0.0
H4358 H 0.6888 0.83379 0.57481 0.0
H4359 H 0.67459 0.83021 0.56155 0.0
H4360 H 0.62424 0.81454 0.59057 0.0
H4361 H 0.73495 0.9076 0.58684 0.0
H4362 H 0.70771 0.89634 0.5796 0.0
H4363 H 0.72693 0.87709 0.58097 0.0
C4364 C 0.62611 0.8467 0.5692 0.0
C4365 C 0.64056 0.84025 0.56355 0.0
C4366 C 0.63439 0.8489 0.57678 0.0
C4367 C 0.65738 0.84481 0.57891 0.0
C4368 C 0.67149 0.83778 0.57331 0.0
H4369 H 0.73906 0.85626 0.62255 0.0
H4370 H 0.72372 0.84708 0.60933 0.0
C4371 C 0.66329 0.83568 0.56572 0.0
C4372 C 0.66636 0.84776 0.58698 0.0
H4373 H 0.72324 0.88597 0.59894 0.0
C4374 C 0.64589 0.83019 0.5924 0.0
C4375 C 0.69462 0.86815 0.58938 0.0
C4376 C 0.71728 0.88857 0.58392 0.0
C4377 C 0.65293 0.83229 0.60012 0.0
C4378 C 0.68111 0.85283 0.60252 0.0
C4379 C 0.70167 0.87018 0.5971 0.0
C4380 C 0.68956 0.85722 0.61064 0.0
C4381 C 0.63023 0.81216 0.60561 0.0
C4382 C 0.67558 0.86611 0.61579 0.0
C4383 C 0.68439 0.87153 0.62335 0.0
C4384 C 0.70755 0.86836 0.62594 0.0
C4385 C 0.72136 0.85924 0.62076 0.0
C4386 C 0.71254 0.85385 0.6132 0.0
H4387 H 0.61285 0.79277 0.60274 0.0
H4388 H 0.63984 0.80503 0.61008 0.0
H4389 H 0.62021 0.82366 0.60837 0.0
H4390 H 0.65824 0.86954 0.61393 0.0
H4391 H 0.67359 0.87909 0.62711 0.0
H4392 H 0.21132 0.83684 0.56419 0.0
H4393 H 0.20892 0.84536 0.57773 0.0
H4394 H 0.12102 0.77511 0.57839 0.0
H4395 H 0.12338 0.76605 0.56497 0.0
H4396 H 0.1698 0.85827 0.58555 0.0
H4397 H 0.16038 0.75566 0.59553 0.0
H4398 H 0.17248 0.76954 0.58614 0.0
H4399 H 0.13463 0.75102 0.58838 0.0
C4400 C 0.19156 0.82304 0.56723 0.0
C4401 C 0.16755 0.80073 0.56347 0.0
C4402 C 0.19017 0.82805 0.57496 0.0
C4403 C 0.16491 0.81064 0.57911 0.0
C4404 C 0.14089 0.78855 0.57535 0.0
H4405 H 0.09843 0.79391 0.62418 0.0
H4406 H 0.10827 0.78992 0.61092 0.0
C4407 C 0.1422 0.78361 0.56764 0.0
C4408 C 0.16331 0.81563 0.58733 0.0
H4409 H 0.15017 0.78245 0.60452 0.0
C4410 C 0.1658 0.84184 0.58972 0.0
C4411 C 0.15812 0.79419 0.59277 0.0
C4412 C 0.15651 0.76611 0.59061 0.0
C4413 C 0.16206 0.84672 0.59735 0.0
C4414 C 0.15626 0.825 0.60277 0.0
C4415 C 0.15449 0.79908 0.60039 0.0
C4416 C 0.15069 0.82805 0.61089 0.0
C4417 C 0.1632 0.87461 0.59947 0.0
C4418 C 0.17134 0.85072 0.61537 0.0
C4419 C 0.16573 0.85308 0.623 0.0
C4420 C 0.13951 0.8326 0.62635 0.0
C4421 C 0.11903 0.80984 0.62185 0.0
C4422 C 0.12457 0.80759 0.61423 0.0
H4423 H 0.1605 0.88557 0.59447 0.0
H4424 H 0.14619 0.87077 0.60366 0.0
H4425 H 0.1845 0.88946 0.60204 0.0
H4426 H 0.19194 0.86641 0.61299 0.0
H4427 H 0.18212 0.87068 0.62631 0.0
H4428 H 0.16345 0.3667 0.56394 0.0
H4429 H 0.15531 0.35465 0.57742 0.0
H4430 H 0.2367 0.35657 0.5787 0.0
H4431 H 0.24524 0.36907 0.56533 0.0
H4432 H 0.15344 0.30652 0.58534 0.0
H4433 H 0.24173 0.41166 0.59576 0.0
H4434 H 0.22754 0.40678 0.58629 0.0
H4435 H 0.25273 0.39506 0.58868 0.0
C4436 C 0.1797 0.36473 0.5671 0.0
C4437 C 0.20501 0.36887 0.56352 0.0
C4438 C 0.17494 0.3577 0.5748 0.0
C4439 C 0.19556 0.35505 0.57911 0.0
C4440 C 0.22066 0.35888 0.57553 0.0
H4441 H 0.22146 0.31637 0.62466 0.0
H4442 H 0.22401 0.32913 0.61134 0.0
C4443 C 0.22535 0.36573 0.56785 0.0
C4444 C 0.19095 0.34808 0.58731 0.0
H4445 H 0.22061 0.37345 0.60469 0.0
C4446 C 0.16793 0.32124 0.58959 0.0
C4447 C 0.20986 0.3673 0.59286 0.0
C4448 C 0.23421 0.39693 0.5908 0.0
C4449 C 0.16399 0.31265 0.59722 0.0
C4450 C 0.18326 0.33168 0.60275 0.0
C4451 C 0.20589 0.35878 0.60047 0.0
C4452 C 0.18112 0.3236 0.61089 0.0
C4453 C 0.1399 0.28283 0.59924 0.0
C4454 C 0.15624 0.31646 0.61515 0.0
C4455 C 0.15473 0.30916 0.62281 0.0
C4456 C 0.17819 0.30917 0.62641 0.0
C4457 C 0.20312 0.31654 0.62213 0.0
C4458 C 0.20457 0.32371 0.61448 0.0
H4459 H 0.1318 0.26848 0.59422 0.0
H4460 H 0.14712 0.27265 0.60352 0.0
H4461 H 0.12164 0.28447 0.60165 0.0
H4462 H 0.13809 0.31685 0.61257 0.0
H4463 H 0.13535 0.30401 0.62594 0.0
H4464 H 0.01304 0.50866 0.72855 0.0
H4465 H 0.02673 0.51734 0.74192 0.0
H4466 H 0.94369 0.44591 0.74813 0.0
H4467 H 0.93005 0.43672 0.73482 0.0
H4468 H 0.99912 0.52887 0.75436 0.0
H4469 H 1.00181 0.42727 0.75841 0.0
H4470 H 1.00201 0.44166 0.74918 0.0
H4471 H 0.96892 0.42271 0.75442 0.0
C4472 C 0.99772 0.4947 0.73276 0.0
C4473 C 0.97044 0.47191 0.73058 0.0
C4474 C 1.00553 0.4998 0.7404 0.0
C4475 C 0.9864 0.48205 0.74603 0.0
C4476 C 0.95899 0.45966 0.74389 0.0
H4477 H 0.99728 0.46814 0.79479 0.0
H4478 H 0.98173 0.46285 0.78163 0.0
C4479 C 0.9511 0.45463 0.73626 0.0
C4480 C 0.99511 0.48678 0.75414 0.0
H4481 H 0.0071 0.45488 0.76935 0.0
C4482 C 1.00098 0.51276 0.75763 0.0
C4483 C 0.99745 0.46572 0.75843 0.0
C4484 C 0.99247 0.43785 0.75493 0.0
C4485 C 0.00856 0.51799 0.76533 0.0
C4486 C 0.011 0.49695 0.76962 0.0
C4487 C 1.00517 0.471 0.7661 0.0
C4488 C 0.01984 0.5014 0.77773 0.0
C4489 C 0.01315 0.54573 0.76882 0.0
C4490 C 0.04647 0.52486 0.77998 0.0
C4491 C 0.05531 0.52814 0.78754 0.0
C4492 C 0.03789 0.50785 0.79305 0.0
C4493 C 0.01111 0.48448 0.79077 0.0
C4494 C 1.00227 0.48127 0.78322 0.0
H4495 H 1.00226 0.55521 0.76552 0.0
H4496 H 1.00497 0.54222 0.77471 0.0
H4497 H 0.03659 0.5617 0.76891 0.0
H4498 H 0.06075 0.5404 0.77587 0.0
H4499 H 0.07594 0.54654 0.78906 0.0
H4500 H 0.52745 0.45778 0.73416 0.0
H4501 H 0.51799 0.46345 0.74739 0.0
H4502 H 0.52807 0.54684 0.74235 0.0
H4503 H 0.53801 0.54162 0.72915 0.0
H4504 H 0.55461 0.50693 0.75748 0.0
H4505 H 0.45164 0.50702 0.75399 0.0
H4506 H 0.46639 0.49457 0.7467 0.0
H4507 H 0.48048 0.5326 0.74812 0.0
C4508 C 0.5277 0.47738 0.73585 0.0
C4509 C 0.53349 0.49921 0.73053 0.0
C4510 C 0.52214 0.48051 0.74342 0.0
C4511 C 0.52195 0.50541 0.74587 0.0
C4512 C 0.52746 0.52714 0.74058 0.0
H4513 H 0.50442 0.57449 0.78863 0.0
H4514 H 0.50933 0.56444 0.77542 0.0
C4515 C 0.53309 0.52407 0.73301 0.0
C4516 C 0.51729 0.50923 0.754 0.0
H4517 H 0.47391 0.52051 0.76606 0.0
C4518 C 0.53684 0.50968 0.75937 0.0
C4519 C 0.49416 0.51292 0.75647 0.0
C4520 C 0.47178 0.51151 0.75104 0.0
C4521 C 0.53439 0.5145 0.76708 0.0
C4522 C 0.51131 0.51833 0.76955 0.0
C4523 C 0.4916 0.5176 0.76419 0.0
C4524 C 0.50764 0.52383 0.77764 0.0
C4525 C 0.55715 0.51643 0.77246 0.0
C4526 C 0.50453 0.50417 0.78333 0.0
C4527 C 0.50172 0.50988 0.79092 0.0
C4528 C 0.50157 0.53524 0.793 0.0
C4529 C 0.50408 0.55458 0.78726 0.0
C4530 C 0.50703 0.54892 0.77969 0.0
H4531 H 0.5772 0.52093 0.76945 0.0
H4532 H 0.56268 0.5336 0.77674 0.0
H4533 H 0.5488 0.49552 0.77544 0.0
H4534 H 0.50415 0.48428 0.78191 0.0
H4535 H 0.49938 0.49428 0.79516 0.0
H4536 H 0.55033 0.06726 0.73362 0.0
H4537 H 0.54492 0.05263 0.74688 0.0
H4538 H 0.45617 0.98823 0.74281 0.0
H4539 H 0.46119 1.00291 0.72959 0.0
H4540 H 0.50688 0.05333 0.75758 0.0
H4541 H 0.48712 0.94196 0.75372 0.0
H4542 H 0.50169 0.96873 0.74633 0.0
H4543 H 0.46358 0.94976 0.74826 0.0
C4544 C 0.52962 0.04998 0.73553 0.0
C4545 C 0.50624 0.03624 0.73047 0.0
C4546 C 0.52661 0.04155 0.74312 0.0
C4547 C 0.50026 0.01903 0.74584 0.0
C4548 C 0.47693 0.00519 0.74082 0.0
H4549 H 0.42863 0.93974 0.78909 0.0
H4550 H 0.43854 0.9538 0.77583 0.0
C4551 C 0.47988 0.01362 0.73324 0.0
C4552 C 0.49675 0.01082 0.75398 0.0
H4553 H 0.47811 0.95403 0.76596 0.0
C4554 C 0.50083 0.03168 0.75942 0.0
C4555 C 0.48878 0.98255 0.7564 0.0
C4556 C 0.48528 0.9595 0.75088 0.0
C4557 C 0.49633 0.02487 0.76716 0.0
C4558 C 0.48811 0.99651 0.76957 0.0
C4559 C 0.48436 0.97574 0.76414 0.0
C4560 C 0.48259 0.98776 0.77768 0.0
C4561 C 0.49949 0.04789 0.77264 0.0
C4562 C 0.50417 1.00178 0.78317 0.0
C4563 C 0.49856 0.99375 0.79079 0.0
C4564 C 0.47132 0.97127 0.79309 0.0
C4565 C 0.44996 0.9569 0.78754 0.0
C4566 C 0.45555 0.96502 0.77994 0.0
H4567 H 0.49825 0.06567 0.76976 0.0
H4568 H 0.48253 0.0387 0.77707 0.0
H4569 H 0.52085 0.05732 0.77545 0.0
H4570 H 0.52545 0.01888 0.78157 0.0
H4571 H 0.51569 0.00498 0.79487 0.0
H4572 H 0.5009 0.99432 0.22796 0.0
H4573 H 0.49161 0.97981 0.24124 0.0
H4574 H 0.56268 0.06258 0.24786 0.0
H4575 H 0.57203 0.07723 0.23464 0.0
H4576 H 0.52646 0.97441 0.25152 0.0
H4577 H 0.49981 0.05625 0.26172 0.0
H4578 H 0.50158 0.04945 0.25181 0.0
H4579 H 0.5341 0.07196 0.25704 0.0
C4580 C 0.51451 0.00948 0.23224 0.0
C4581 C 0.5371 0.03706 0.2302 0.0
C4582 C 0.50911 1.00117 0.23984 0.0
C4583 C 0.52608 0.02025 0.2456 0.0
C4584 C 0.54871 0.04773 0.24358 0.0
H4585 H 0.54531 0.01284 0.29396 0.0
H4586 H 0.54863 0.02586 0.28063 0.0
C4587 C 0.55406 0.05608 0.23599 0.0
C4588 C 0.52101 0.01104 0.25367 0.0
H4589 H 0.5089 0.03 0.27117 0.0
C4590 C 0.52234 0.98641 0.2558 0.0
C4591 C 0.51564 0.02667 0.25929 0.0
C4592 C 0.5124 0.05238 0.25735 0.0
C4593 C 0.51934 0.97754 0.26339 0.0
C4594 C 0.51443 0.99344 0.26901 0.0
C4595 C 0.51275 0.01785 0.26687 0.0
C4596 C 0.51165 0.9855 0.27717 0.0
C4597 C 0.52238 0.95172 0.26534 0.0
C4598 C 0.48942 0.95863 0.27972 0.0
C4599 C 0.48735 0.95113 0.28737 0.0
C4600 C 0.50736 0.97042 0.29267 0.0
C4601 C 0.52927 0.99754 0.29009 0.0
C4602 C 0.53132 0.00499 0.28245 0.0
H4603 H 0.53298 0.94629 0.26074 0.0
H4604 H 0.5351 0.95564 0.2706 0.0
H4605 H 0.50064 0.93272 0.26627 0.0
H4606 H 0.47357 0.94346 0.27579 0.0
H4607 H 0.4699 0.93029 0.28914 0.0
H4608 H 0.99512 0.49968 0.29463 0.0
H4609 H 0.98131 0.49035 0.2813 0.0
H4610 H 0.06511 0.5601 0.27488 0.0
H4611 H 0.07909 0.56947 0.28816 0.0
H4612 H 0.97728 0.52549 0.27093 0.0
H4613 H 0.05795 0.49662 0.26114 0.0
H4614 H 0.05096 0.49876 0.27101 0.0
H4615 H 0.07403 0.53106 0.26577 0.0
C4616 C 0.01066 0.51299 0.29038 0.0
C4617 C 0.03832 0.53523 0.29249 0.0
C4618 C 1.00275 0.50756 0.28275 0.0
C4619 C 0.0223 0.52416 0.27705 0.0
C4620 C 0.04988 0.54641 0.27914 0.0
H4621 H 0.01475 0.54203 0.22852 0.0
H4622 H 0.0284 0.54583 0.24182 0.0
C4623 C 0.05785 0.55178 0.28676 0.0
C4624 C 0.01343 0.51914 0.26894 0.0
H4625 H 0.03232 0.50594 0.25156 0.0
C4626 C 0.98917 0.52094 0.26671 0.0
C4627 C 0.02893 0.51326 0.26341 0.0
C4628 C 0.05424 0.50952 0.26545 0.0
C4629 C 0.98048 0.5178 0.25911 0.0
C4630 C 0.9962 0.51228 0.25357 0.0
C4631 C 0.02032 0.51025 0.25579 0.0
C4632 C 0.98818 0.509 0.24542 0.0
C4633 C 0.95501 0.52126 0.25704 0.0
C4634 C 0.96127 0.48661 0.24295 0.0
C4635 C 0.95344 0.48425 0.23532 0.0
C4636 C 0.9724 0.50415 0.22996 0.0
C4637 C 0.99967 0.5261 0.23244 0.0
C4638 C 0.00748 0.52843 0.24007 0.0
H4639 H 0.94971 0.53221 0.26158 0.0
H4640 H 0.95923 0.53383 0.25175 0.0
H4641 H 0.93582 0.49961 0.25613 0.0
H4642 H 0.94625 0.47095 0.24693 0.0
H4643 H 0.93251 0.46673 0.23363 0.0
H4644 H 0.55133 0.48091 0.23431 0.0
H4645 H 0.54483 0.48929 0.24756 0.0
H4646 H 0.46155 0.47903 0.24231 0.0
H4647 H 0.46732 0.4695 0.22912 0.0
H4648 H 0.53608 0.53035 0.25459 0.0
H4649 H 0.44186 0.42125 0.25928 0.0
H4650 H 0.46434 0.4302 0.251 0.0
H4651 H 0.43693 0.44024 0.25161 0.0
C4652 C 0.53151 0.48021 0.23597 0.0
C4653 C 0.50975 0.47424 0.23061 0.0
C4654 C 0.52792 0.48521 0.24355 0.0
C4655 C 0.50245 0.48424 0.24599 0.0
C4656 C 0.48113 0.47928 0.24062 0.0
H4657 H 0.43487 0.505 0.28857 0.0
H4658 H 0.44484 0.50005 0.27535 0.0
C4659 C 0.48466 0.47422 0.23304 0.0
C4660 C 0.4981 0.4882 0.25413 0.0
H4661 H 0.4528 0.45562 0.26907 0.0
C4662 C 0.51797 0.51394 0.25777 0.0
C4663 C 0.47453 0.46674 0.2583 0.0
C4664 C 0.45334 0.43794 0.25488 0.0
C4665 C 0.51448 0.51909 0.26539 0.0
C4666 C 0.49068 0.4978 0.26952 0.0
C4667 C 0.47097 0.47199 0.2659 0.0
C4668 C 0.48549 0.50196 0.27757 0.0
C4669 C 0.53587 0.54757 0.26892 0.0
C4670 C 0.50497 0.50455 0.28326 0.0
C4671 C 0.49933 0.50742 0.29085 0.0
C4672 C 0.47412 0.50784 0.29292 0.0
C4673 C 0.45473 0.50529 0.28719 0.0
C4674 C 0.4603 0.50225 0.27962 0.0
H4675 H 0.54909 0.56395 0.2646 0.0
H4676 H 0.52465 0.55616 0.27243 0.0
H4677 H 0.55069 0.54431 0.27264 0.0
H4678 H 0.52434 0.50393 0.28183 0.0
H4679 H 0.51478 0.50943 0.2951 0.0
H4680 H 0.98759 0.1376 0.29393 0.0
H4681 H 0.01044 0.15018 0.28148 0.0
H4682 H 0.94665 0.17131 0.2739 0.0
H4683 H 0.92381 0.15897 0.28635 0.0
H4684 H 0.98906 0.12679 0.26778 0.0
H4685 H 0.02005 0.24244 0.26741 0.0
H4686 H 0.00819 0.22092 0.27589 0.0
H4687 H 0.98227 0.2186 0.26905 0.0
C4688 C 0.97838 0.14491 0.28962 0.0
C4689 C 0.95388 0.14736 0.29117 0.0
C4690 C 0.99155 0.1522 0.2825 0.0
C4691 C 0.98063 0.16219 0.27676 0.0
C4692 C 0.95604 0.16444 0.27827 0.0
H4693 H 0.02553 0.20576 0.22925 0.0
H4694 H 1.00266 0.1952 0.24171 0.0
C4695 C 0.94293 0.1573 0.28541 0.0
C4696 C 0.9944 0.16922 0.26913 0.0
H4697 H 0.02543 0.22279 0.25589 0.0
C4698 C 0.99713 0.14784 0.26521 0.0
C4699 C 1.00492 0.19668 0.26573 0.0
C4700 C 1.004 0.22108 0.26976 0.0
C4701 C 0.00967 0.15299 0.25798 0.0
C4702 C 0.02017 0.1804 0.25459 0.0
C4703 C 0.01733 0.20176 0.25848 0.0
C4704 C 0.03447 0.18739 0.24705 0.0
C4705 C 0.0111 0.12881 0.25397 0.0
C4706 C 0.06027 0.18705 0.24591 0.0
C4707 C 0.07356 0.19331 0.23881 0.0
C4708 C 0.06141 0.20014 0.23265 0.0
C4709 C 0.03574 0.20089 0.23385 0.0
C4710 C 0.02251 0.1947 0.24097 0.0
H4711 H 0.99587 0.10741 0.25645 0.0
H4712 H 0.00612 0.12845 0.24788 0.0
H4713 H 0.03325 0.13221 0.25449 0.0
H4714 H 0.07028 0.18211 0.25055 0.0
H4715 H 0.0936 0.19313 0.23818 0.0
H4716 H 0.90738 0.82869 0.28634 0.0
H4717 H 0.89461 0.83975 0.27405 0.0
H4718 H 0.80593 0.80192 0.28114 0.0
H4719 H 0.81872 0.79196 0.29358 0.0
H4720 H 0.85785 0.80431 0.26329 0.0
H4721 H 0.8209 0.87894 0.27318 0.0
H4722 H 0.84037 0.86733 0.2792 0.0
H4723 H 0.80236 0.84404 0.27756 0.0
C4724 C 0.88522 0.82312 0.28536 0.0
C4725 C 0.86418 0.80962 0.29103 0.0
C4726 C 0.87789 0.82925 0.27828 0.0
C4727 C 0.84938 0.82216 0.27668 0.0
C4728 C 0.82821 0.80824 0.28227 0.0
H4729 H 0.76639 0.84152 0.2363 0.0
H4730 H 0.77666 0.82814 0.24866 0.0
C4731 C 0.83552 0.80218 0.28937 0.0
C4732 C 0.84184 0.82884 0.26912 0.0
H4733 H 0.81283 0.86536 0.26027 0.0
C4734 C 0.8481 0.81774 0.26264 0.0
C4735 C 0.82904 0.84634 0.26823 0.0
C4736 C 0.82301 0.86009 0.2749 0.0
C4737 C 0.84168 0.8234 0.25535 0.0
C4738 C 0.82899 0.84096 0.25448 0.0
C4739 C 0.8225 0.85186 0.26094 0.0
C4740 C 0.82276 0.84868 0.2469 0.0
C4741 C 0.84814 0.81014 0.24865 0.0
C4742 C 0.84526 0.86491 0.2418 0.0
C4743 C 0.83946 0.87257 0.23473 0.0
C4744 C 0.811 0.86422 0.23257 0.0
C4745 C 0.78851 0.848 0.23771 0.0
C4746 C 0.79436 0.84048 0.2448 0.0
H4747 H 0.85081 0.79158 0.25032 0.0
H4748 H 0.83068 0.80265 0.24437 0.0
H4749 H 0.86854 0.82662 0.24597 0.0
H4750 H 0.8674 0.8719 0.24332 0.0
H4751 H 0.8573 0.88486 0.23091 0.0
H4752 H 0.20223 0.09382 0.28537 0.0
H4753 H 0.1913 0.06969 0.27309 0.0
H4754 H 0.18821 0.99508 0.28332 0.0
H4755 H 0.19798 0.01856 0.29567 0.0
H4756 H 0.22092 0.04978 0.2648 0.0
H4757 H 0.11244 0.95853 0.27192 0.0
H4758 H 0.13122 0.98994 0.27788 0.0
H4759 H 0.14048 0.96191 0.27812 0.0
C4760 C 0.19881 0.0721 0.28505 0.0
C4761 C 0.20077 0.05812 0.29157 0.0
C4762 C 0.19278 0.0584 0.27799 0.0
C4763 C 0.18842 0.03033 0.27727 0.0
C4764 C 0.19085 0.01648 0.28373 0.0
H4765 H 0.15036 0.91376 0.23887 0.0
H4766 H 0.16291 0.93724 0.25126 0.0
C4767 C 0.19683 0.03014 0.2908 0.0
C4768 C 0.18182 0.01585 0.26972 0.0
H4769 H 0.13183 0.95618 0.26007 0.0
C4770 C 0.20138 0.02936 0.26377 0.0
C4771 C 0.15634 0.98915 0.26835 0.0
C4772 C 0.13376 0.97412 0.27438 0.0
C4773 C 0.19637 0.0168 0.25653 0.0
C4774 C 0.17087 0.99016 0.25516 0.0
C4775 C 0.15139 0.97656 0.26112 0.0
C4776 C 0.16383 0.97622 0.24755 0.0
C4777 C 0.21872 0.03193 0.25046 0.0
C4778 C 0.15991 0.99015 0.24133 0.0
C4779 C 0.1528 0.9768 0.23422 0.0
C4780 C 0.14936 0.94913 0.23316 0.0
C4781 C 0.15323 0.93521 0.23943 0.0
C4782 C 0.16023 0.94854 0.24654 0.0
H4783 H 0.24006 0.04771 0.25287 0.0
H4784 H 0.22132 0.01615 0.24695 0.0
H4785 H 0.21168 0.04389 0.24672 0.0
H4786 H 0.16207 0.01129 0.24198 0.0
H4787 H 0.15021 0.9883 0.22954 0.0
H4788 H 0.91017 0.78531 0.78393 0.0
H4789 H 0.93345 0.79546 0.77155 0.0
H4790 H 0.01668 0.84573 0.78211 0.0
H4791 H 0.99372 0.83479 0.79453 0.0
H4792 H 0.96651 0.8474 0.7645 0.0
H4793 H 0.03066 0.79299 0.76848 0.0
H4794 H 1.0019 0.78752 0.77481 0.0
H4795 H 0.03695 0.81928 0.77564 0.0
C4796 C 0.93348 0.79813 0.78365 0.0
C4797 C 0.95001 0.80906 0.79028 0.0
C4798 C 0.94676 0.80411 0.77655 0.0
C4799 C 0.97689 0.821 0.77588 0.0
C4800 C 0.99346 0.83215 0.78247 0.0
H4801 H 0.09749 0.89038 0.73832 0.0
H4802 H 0.07391 0.87779 0.75067 0.0
C4803 C 0.98022 0.82616 0.78958 0.0
C4804 C 0.99085 0.82768 0.76829 0.0
H4805 H 0.04131 0.82252 0.75757 0.0
C4806 C 0.98273 0.84178 0.76297 0.0
C4807 C 0.01207 0.8204 0.76628 0.0
C4808 C 0.02075 0.80397 0.77157 0.0
C4809 C 0.99559 0.8493 0.75578 0.0
C4810 C 0.01692 0.84219 0.7538 0.0
C4811 C 0.02502 0.82804 0.7591 0.0
C4812 C 0.03116 0.84937 0.74625 0.0
C4813 C 0.98672 0.86541 0.75043 0.0
C4814 C 0.01509 0.83724 0.73965 0.0
C4815 C 0.02855 0.84419 0.73256 0.0
C4816 C 0.05847 0.86341 0.73191 0.0
C4817 C 0.07452 0.87524 0.73857 0.0
C4818 C 0.06104 0.8682 0.74565 0.0
H4819 H 0.97544 0.87523 0.75341 0.0
H4820 H 0.00578 0.88272 0.74745 0.0
H4821 H 0.97177 0.85015 0.74614 0.0
H4822 H 0.99211 0.82219 0.73997 0.0
H4823 H 0.01552 0.83417 0.7276 0.0
H4824 H 0.11675 0.19502 0.73756 0.0
H4825 H 0.1299 0.18443 0.74986 0.0
H4826 H 0.2101 0.19746 0.74062 0.0
H4827 H 0.19697 0.2078 0.72824 0.0
H4828 H 0.14166 0.14043 0.75355 0.0
H4829 H 0.23628 0.24837 0.75959 0.0
H4830 H 0.21035 0.24265 0.75231 0.0
H4831 H 0.23751 0.23285 0.7507 0.0
C4832 C 0.13714 0.1955 0.73811 0.0
C4833 C 0.15575 0.20224 0.73187 0.0
C4834 C 0.1447 0.18959 0.74517 0.0
C4835 C 0.17114 0.19047 0.7462 0.0
C4836 C 0.18984 0.19723 0.74001 0.0
H4837 H 0.24923 0.15681 0.78541 0.0
H4838 H 0.23911 0.16909 0.77289 0.0
C4839 C 0.18229 0.20314 0.73292 0.0
C4840 C 0.17853 0.18335 0.75371 0.0
H4841 H 0.22706 0.21093 0.76822 0.0
C4842 C 0.1603 0.15587 0.75677 0.0
C4843 C 0.20295 0.20343 0.75789 0.0
C4844 C 0.22282 0.23358 0.75501 0.0
C4845 C 0.16591 0.14783 0.76384 0.0
C4846 C 0.19009 0.16804 0.76809 0.0
C4847 C 0.2085 0.19544 0.76499 0.0
C4848 C 0.19646 0.16121 0.77576 0.0
C4849 C 0.14616 0.1175 0.76663 0.0
C4850 C 0.17613 0.15325 0.78161 0.0
C4851 C 0.18184 0.14619 0.78877 0.0
C4852 C 0.20818 0.14723 0.79028 0.0
C4853 C 0.22881 0.15594 0.78447 0.0
C4854 C 0.22301 0.16288 0.77729 0.0
H4855 H 0.13419 0.10254 0.76192 0.0
H4856 H 0.15842 0.10899 0.7697 0.0
H4857 H 0.13004 0.11761 0.77056 0.0
H4858 H 0.15582 0.15258 0.78065 0.0
H4859 H 0.1657 0.14016 0.79315 0.0
H4860 H 0.84568 0.08759 0.78642 0.0
H4861 H 0.83224 0.06545 0.77387 0.0
H4862 H 0.86631 0.00981 0.77944 0.0
H4863 H 0.87925 0.03136 0.79204 0.0
H4864 H 0.86856 0.06312 0.7626 0.0
H4865 H 0.78507 0.95309 0.77149 0.0
H4866 H 0.79831 0.98401 0.77767 0.0
H4867 H 0.8192 0.96656 0.77617 0.0
C4868 C 0.84998 0.07038 0.78501 0.0
C4869 C 0.86348 0.06123 0.79027 0.0
C4870 C 0.84245 0.05787 0.77781 0.0
C4871 C 0.84792 0.0357 0.77573 0.0
C4872 C 0.86143 0.02655 0.78095 0.0
H4873 H 0.82397 0.93212 0.73576 0.0
H4874 H 0.83534 0.955 0.74819 0.0
C4875 C 0.8691 0.03913 0.78813 0.0
C4876 C 0.84022 0.02266 0.76803 0.0
H4877 H 0.7998 0.95881 0.75866 0.0
C4878 C 0.85338 0.04035 0.76173 0.0
C4879 C 0.82045 0.99293 0.76689 0.0
C4880 C 0.80471 0.97303 0.7734 0.0
C4881 C 0.84792 0.02902 0.75435 0.0
C4882 C 0.82825 0.99923 0.75321 0.0
C4883 C 0.81491 0.9816 0.75952 0.0
C4884 C 0.8216 0.98577 0.74554 0.0
C4885 C 0.86398 0.04892 0.74787 0.0
C4886 C 0.8098 0.99519 0.73989 0.0
C4887 C 0.80351 0.98231 0.73272 0.0
C4888 C 0.80869 0.95953 0.73104 0.0
C4889 C 0.8202 0.94995 0.73676 0.0
C4890 C 0.8265 0.96287 0.74392 0.0
H4891 H 0.88359 0.0688 0.74982 0.0
H4892 H 0.87051 0.03793 0.74364 0.0
H4893 H 0.8497 0.05553 0.74504 0.0
H4894 H 0.80523 0.01241 0.74103 0.0
H4895 H 0.79483 0.99041 0.72847 0.0
H4896 H 0.59361 0.4975 0.61979 0.0
H4897 H 0.61637 0.50796 0.60733 0.0
H4898 H 0.68713 0.50055 0.6164 0.0
H4899 H 0.6646 0.49018 0.62889 0.0
H4900 H 0.66938 0.5517 0.60241 0.0
H4901 H 0.66235 0.44542 0.59854 0.0
H4902 H 0.64289 0.45196 0.60587 0.0
H4903 H 0.68058 0.46377 0.60704 0.0
C4904 C 0.61415 0.49833 0.61917 0.0
C4905 C 0.62714 0.49281 0.62537 0.0
C4906 C 0.62708 0.50419 0.61202 0.0
C4907 C 0.65323 0.50453 0.61087 0.0
C4908 C 0.66659 0.49967 0.61708 0.0
H4909 H 0.76566 0.53476 0.57227 0.0
H4910 H 0.74339 0.52619 0.58476 0.0
C4911 C 0.65366 0.49376 0.62423 0.0
C4912 C 0.66661 0.51022 0.60321 0.0
H4913 H 0.6898 0.48151 0.58947 0.0
C4914 C 0.67371 0.53629 0.59957 0.0
C4915 C 0.67229 0.49013 0.59948 0.0
C4916 C 0.6639 0.46113 0.60289 0.0
C4917 C 0.68683 0.54305 0.59239 0.0
C4918 C 0.69263 0.52301 0.58868 0.0
C4919 C 0.68546 0.49693 0.59232 0.0
C4920 C 0.7062 0.52868 0.58105 0.0
C4921 C 0.69501 0.57192 0.58893 0.0
C4922 C 0.69263 0.53268 0.57475 0.0
C4923 C 0.70524 0.53742 0.56757 0.0
C4924 C 0.73168 0.53811 0.56649 0.0
C4925 C 0.74514 0.53401 0.57283 0.0
C4926 C 0.7325 0.52925 0.58 0.0
H4927 H 0.69604 0.58756 0.59323 0.0
H4928 H 0.71624 0.5813 0.58604 0.0
H4929 H 0.67854 0.56898 0.58468 0.0
H4930 H 0.67201 0.53169 0.57536 0.0
H4931 H 0.69393 0.53994 0.56282 0.0
H4932 H 0.57127 0.15257 0.61922 0.0
H4933 H 0.55868 0.1638 0.60693 0.0
H4934 H 0.47531 0.14378 0.61553 0.0
H4935 H 0.48818 0.13372 0.62794 0.0
H4936 H 0.51564 0.13004 0.59716 0.0
H4937 H 0.50242 0.22214 0.60619 0.0
H4938 H 0.51886 0.20704 0.61215 0.0
H4939 H 0.48021 0.18948 0.61134 0.0
C4940 C 0.55041 0.15098 0.61856 0.0
C4941 C 0.53089 0.14245 0.62465 0.0
C4942 C 0.54313 0.15719 0.61148 0.0
C4943 C 0.51621 0.15515 0.6103 0.0
C4944 C 0.49647 0.14617 0.61632 0.0
H4945 H 0.43527 0.18275 0.57069 0.0
H4946 H 0.44526 0.16946 0.5831 0.0
C4947 C 0.50375 0.14002 0.62341 0.0
C4948 C 0.50873 0.16189 0.60273 0.0
H4949 H 0.48843 0.20539 0.59364 0.0
C4950 C 0.50979 0.14659 0.5964 0.0
C4951 C 0.50102 0.18347 0.60171 0.0
C4952 C 0.5008 0.20168 0.60819 0.0
C4953 C 0.5031 0.15203 0.58912 0.0
C4954 C 0.49549 0.17364 0.58809 0.0
C4955 C 0.4942 0.18879 0.59443 0.0
C4956 C 0.48929 0.1812 0.58049 0.0
C4957 C 0.50379 0.13425 0.58259 0.0
C4958 C 0.51076 0.19245 0.57489 0.0
C4959 C 0.50511 0.20005 0.56779 0.0
C4960 C 0.47783 0.19661 0.5661 0.0
C4961 C 0.45637 0.18534 0.57174 0.0
C4962 C 0.46211 0.1779 0.57886 0.0
H4963 H 0.50268 0.11396 0.58453 0.0
H4964 H 0.48562 0.12868 0.57864 0.0
H4965 H 0.52428 0.14696 0.57943 0.0
H4966 H 0.53204 0.19564 0.57604 0.0
H4967 H 0.52209 0.20843 0.56359 0.0
H4968 H 0.88756 0.36721 0.62629 0.0
H4969 H 0.87811 0.34537 0.61371 0.0
H4970 H 0.832 0.38945 0.60774 0.0
H4971 H 0.84243 0.41237 0.62015 0.0
H4972 H 0.82734 0.30935 0.60671 0.0
H4973 H 0.88625 0.41001 0.59005 0.0
H4974 H 0.8901 0.40924 0.60015 0.0
H4975 H 0.85955 0.41003 0.59618 0.0
C4976 C 0.87581 0.37268 0.62227 0.0
C4977 C 0.86594 0.39178 0.62427 0.0
C4978 C 0.87022 0.35995 0.61508 0.0
C4979 C 0.85475 0.36608 0.6097 0.0
C4980 C 0.84455 0.38482 0.61171 0.0
H4981 H 0.78797 0.30616 0.56456 0.0
H4982 H 0.80044 0.32873 0.57705 0.0
C4983 C 0.8502 0.39762 0.61888 0.0
C4984 C 0.8486 0.3523 0.60207 0.0
H4985 H 0.85562 0.3671 0.58315 0.0
C4986 C 0.83374 0.322 0.60156 0.0
C4987 C 0.85694 0.36873 0.59533 0.0
C4988 C 0.87434 0.4013 0.59543 0.0
C4989 C 0.82636 0.30776 0.59454 0.0
C4990 C 0.83434 0.3242 0.5878 0.0
C4991 C 0.84939 0.35448 0.5883 0.0
C4992 C 0.82698 0.31041 0.58019 0.0
C4993 C 0.80937 0.27519 0.59438 0.0
C4994 C 0.83804 0.29287 0.57772 0.0
C4995 C 0.83089 0.27985 0.57057 0.0
C4996 C 0.81251 0.28409 0.56571 0.0
C4997 C 0.80179 0.30201 0.56818 0.0
C4998 C 0.80906 0.3151 0.57531 0.0
H4999 H 0.79912 0.26604 0.59992 0.0
H5000 H 0.7923 0.26732 0.58999 0.0
H5001 H 0.82411 0.26685 0.59301 0.0
H5002 H 0.85229 0.28928 0.58133 0.0
H5003 H 0.83942 0.26608 0.56891 0.0
H5004 H 0.75066 0.22764 0.07029 0.0
H5005 H 0.72784 0.2154 0.08272 0.0
H5006 H 0.66071 0.13392 0.07405 0.0
H5007 H 0.68326 0.14611 0.06155 0.0
H5008 H 0.67241 0.20336 0.08671 0.0
H5009 H 0.68723 0.10985 0.09301 0.0
H5010 H 0.70657 0.13516 0.08554 0.0
H5011 H 0.66957 0.10759 0.08421 0.0
C5012 C 0.73094 0.20716 0.07099 0.0
C5013 C 0.71882 0.18791 0.06488 0.0
C5014 C 0.718 0.20013 0.07813 0.0
C5015 C 0.69274 0.17359 0.07936 0.0
C5016 C 0.68053 0.15427 0.07329 0.0
H5017 H 0.58462 0.09781 0.1193 0.0
H5018 H 0.60592 0.10721 0.10665 0.0
C5019 C 0.69347 0.16129 0.06614 0.0
C5020 C 0.67883 0.16672 0.08695 0.0
H5021 H 0.65944 0.11941 0.10171 0.0
C5022 C 0.66964 0.18504 0.09 0.0
C5023 C 0.67505 0.14272 0.09123 0.0
C5024 C 0.68532 0.12279 0.08838 0.0
C5025 C 0.65657 0.17992 0.09715 0.0
C5026 C 0.65315 0.15616 0.10149 0.0
C5027 C 0.66209 0.13765 0.09841 0.0
C5028 C 0.64056 0.1503 0.10924 0.0
C5029 C 0.64601 0.19972 0.09992 0.0
C5030 C 0.65321 0.17112 0.11498 0.0
C5031 C 0.64106 0.16582 0.12221 0.0
C5032 C 0.61614 0.1394 0.12392 0.0
C5033 C 0.60392 0.1183 0.11821 0.0
C5034 C 0.61601 0.12369 0.11096 0.0
H5035 H 0.64249 0.2112 0.09518 0.0
H5036 H 0.62553 0.18759 0.10313 0.0
H5037 H 0.66248 0.21626 0.10372 0.0
H5038 H 0.67261 0.1915 0.11387 0.0
H5039 H 0.6514 0.18234 0.1265 0.0
H5040 H 0.8867 0.53232 0.12633 0.0
H5041 H 0.87748 0.54428 0.11366 0.0
H5042 H 0.85294 0.45842 0.10606 0.0
H5043 H 0.86231 0.44636 0.11864 0.0
H5044 H 0.90173 0.54334 0.09967 0.0
H5045 H 0.78384 0.46646 0.09973 0.0
H5046 H 0.80535 0.47627 0.10822 0.0
H5047 H 0.80522 0.45004 0.10183 0.0
C5048 C 0.8795 0.516 0.12196 0.0
C5049 C 0.875 0.48824 0.12356 0.0
C5050 C 0.87412 0.52286 0.11472 0.0
C5051 C 0.86399 0.5021 0.10893 0.0
C5052 C 0.86002 0.47459 0.11047 0.0
H5053 H 0.81636 0.49497 0.06175 0.0
H5054 H 0.82786 0.4857 0.07444 0.0
C5055 C 0.86538 0.46772 0.11769 0.0
C5056 C 0.85789 0.50921 0.10125 0.0
H5057 H 0.80463 0.48868 0.08802 0.0
C5058 C 0.88046 0.53152 0.09714 0.0
C5059 C 0.83014 0.49378 0.09793 0.0
C5060 C 0.80466 0.47048 0.10217 0.0
C5061 C 0.87624 0.5383 0.08974 0.0
C5062 C 0.84852 0.52271 0.0864 0.0
C5063 C 0.82591 0.50056 0.09054 0.0
C5064 C 0.84242 0.52888 0.07861 0.0
C5065 C 0.90171 0.56155 0.08549 0.0
C5066 C 0.84657 0.55621 0.0767 0.0
C5067 C 0.83996 0.56158 0.06944 0.0
C5068 C 0.82877 0.53966 0.06392 0.0
C5069 C 0.82464 0.5123 0.06586 0.0
C5070 C 0.83132 0.50698 0.07311 0.0
H5071 H 0.92253 0.56578 0.08798 0.0
H5072 H 0.90116 0.55557 0.07946 0.0
H5073 H 0.90101 0.58192 0.08575 0.0
H5074 H 0.85441 0.57328 0.08088 0.0
H5075 H 0.84292 0.58273 0.06821 0.0
H5076 H 0.53602 0.43005 0.11889 0.0
H5077 H 0.52433 0.40835 0.10631 0.0
H5078 H 0.48717 0.32354 0.1162 0.0
H5079 H 0.49777 0.34498 0.12883 0.0
H5080 H 0.54276 0.37482 0.09929 0.0
H5081 H 0.42351 0.3137 0.10195 0.0
H5082 H 0.44639 0.34131 0.10861 0.0
H5083 H 0.4418 0.30567 0.10922 0.0
C5084 C 0.5249 0.40674 0.11842 0.0
C5085 C 0.51764 0.38931 0.12492 0.0
C5086 C 0.51844 0.39437 0.1112 0.0
C5087 C 0.50445 0.36427 0.11029 0.0
C5088 C 0.49742 0.34678 0.11675 0.0
H5089 H 0.45434 0.24914 0.07151 0.0
H5090 H 0.46424 0.27081 0.08409 0.0
C5091 C 0.50384 0.35914 0.12397 0.0
C5092 C 0.49804 0.35133 0.10257 0.0
H5093 H 0.44332 0.30409 0.09107 0.0
C5094 C 0.52099 0.35947 0.09749 0.0
C5095 C 0.46963 0.33127 0.1002 0.0
C5096 C 0.44387 0.32264 0.10525 0.0
C5097 C 0.51641 0.34776 0.09016 0.0
C5098 C 0.48803 0.32764 0.0878 0.0
C5099 C 0.46507 0.31948 0.09288 0.0
C5100 C 0.48174 0.31464 0.0801 0.0
C5101 C 0.54211 0.35651 0.08508 0.0
C5102 C 0.48786 0.33199 0.07365 0.0
C5103 C 0.48202 0.31963 0.06642 0.0
C5104 C 0.46977 0.28958 0.06548 0.0
C5105 C 0.46338 0.27227 0.07199 0.0
C5106 C 0.46919 0.28465 0.0792 0.0
H5107 H 0.56265 0.36629 0.08831 0.0
H5108 H 0.53992 0.33767 0.08187 0.0
H5109 H 0.54347 0.37278 0.08096 0.0
H5110 H 0.49696 0.35511 0.0742 0.0
H5111 H 0.48678 0.33361 0.06158 0.0
H5112 H 0.36882 0.82108 0.89823 0.0
H5113 H 0.34601 0.81192 0.91066 0.0
H5114 H 0.3939 0.90304 0.91563 0.0
H5115 H 0.41673 0.91241 0.90319 0.0
H5116 H 0.37014 0.82233 0.92465 0.0
H5117 H 0.31281 0.88392 0.92106 0.0
H5118 H 0.32871 0.87523 0.91323 0.0
H5119 H 0.35094 0.90497 0.91938 0.0
C5120 C 0.37458 0.83921 0.90197 0.0
C5121 C 0.39462 0.86752 0.89968 0.0
C5122 C 0.36141 0.83393 0.90908 0.0
C5123 C 0.36783 0.8568 0.91407 0.0
C5124 C 0.38796 0.88507 0.91183 0.0
H5125 H 0.31472 0.86359 0.96038 0.0
H5126 H 0.33805 0.87484 0.94799 0.0
C5127 C 0.40106 0.8904 0.9047 0.0
C5128 C 0.35413 0.85084 0.9217 0.0
H5129 H 0.31277 0.86646 0.93338 0.0
C5130 C 0.3575 0.83191 0.92654 0.0
C5131 C 0.33766 0.86336 0.9242 0.0
C5132 C 0.33204 0.88279 0.91918 0.0
C5133 C 0.3452 0.82543 0.9338 0.0
C5134 C 0.32869 0.83787 0.93629 0.0
C5135 C 0.32546 0.85696 0.93148 0.0
C5136 C 0.31425 0.831 0.94381 0.0
C5137 C 0.3504 0.80567 0.9388 0.0
C5138 C 0.29275 0.80268 0.94557 0.0
C5139 C 0.27917 0.79619 0.95263 0.0
C5140 C 0.2867 0.81789 0.95813 0.0
C5141 C 0.30808 0.84633 0.9563 0.0
C5142 C 0.32159 0.85281 0.94922 0.0
H5143 H 0.36922 0.80389 0.93687 0.0
H5144 H 0.35414 0.81342 0.94474 0.0
H5145 H 0.33109 0.78374 0.93868 0.0
H5146 H 0.28624 0.78558 0.94144 0.0
H5147 H 0.26241 0.77418 0.95374 0.0
H5148 H 0.21447 0.51962 0.95877 0.0
H5149 H 0.20152 0.52814 0.94619 0.0
H5150 H 0.16234 0.43732 0.94114 0.0
H5151 H 0.17517 0.4286 0.95373 0.0
H5152 H 0.2179 0.51871 0.93238 0.0
H5153 H 0.09878 0.45334 0.93498 0.0
H5154 H 0.12249 0.46288 0.94303 0.0
H5155 H 0.11704 0.43361 0.93695 0.0
C5156 C 0.20314 0.50142 0.95499 0.0
C5157 C 0.19584 0.47338 0.9573 0.0
C5158 C 0.19564 0.50633 0.94779 0.0
C5159 C 0.18054 0.48335 0.94272 0.0
C5160 C 0.17331 0.45534 0.94499 0.0
H5161 H 0.12457 0.47621 0.89588 0.0
H5162 H 0.13553 0.46477 0.90841 0.0
C5163 C 0.18072 0.45039 0.95221 0.0
C5164 C 0.17335 0.48898 0.93499 0.0
H5165 H 0.11736 0.47178 0.92281 0.0
C5166 C 0.19589 0.5085 0.9303 0.0
C5167 C 0.14464 0.47561 0.93224 0.0
C5168 C 0.11929 0.45539 0.93708 0.0
C5169 C 0.19061 0.51481 0.92297 0.0
C5170 C 0.16191 0.50162 0.92024 0.0
C5171 C 0.13936 0.48188 0.92489 0.0
C5172 C 0.15485 0.5085 0.91265 0.0
C5173 C 0.21592 0.53521 0.91814 0.0
C5174 C 0.16156 0.53678 0.91088 0.0
C5175 C 0.15519 0.54338 0.90374 0.0
C5176 C 0.14182 0.52182 0.89817 0.0
C5177 C 0.13467 0.49336 0.90001 0.0
C5178 C 0.14104 0.48679 0.90717 0.0
H5179 H 0.23645 0.5372 0.9202 0.0
H5180 H 0.21266 0.52794 0.91217 0.0
H5181 H 0.21815 0.55699 0.91834 0.0
H5182 H 0.17155 0.55379 0.91505 0.0
H5183 H 0.16042 0.56538 0.90262 0.0
H5184 H 0.52306 0.61768 0.90019 0.0
H5185 H 0.53475 0.63826 0.91292 0.0
H5186 H 0.4521 0.63365 0.91429 0.0
H5187 H 0.43982 0.61216 0.9017 0.0
H5188 H 0.5388 0.68866 0.91845 0.0
H5189 H 0.45336 0.59399 0.93375 0.0
H5190 H 0.46311 0.59182 0.92412 0.0
H5191 H 0.43993 0.60632 0.92619 0.0
C5192 C 0.50718 0.62066 0.90323 0.0
C5193 C 0.48039 0.61304 0.89989 0.0
C5194 C 0.514 0.63265 0.9105 0.0
C5195 C 0.49415 0.63712 0.91464 0.0
C5196 C 0.46758 0.6299 0.91129 0.0
H5197 H 0.49304 0.70977 0.95851 0.0
H5198 H 0.48204 0.68768 0.94596 0.0
C5199 C 0.46073 0.61793 0.90403 0.0
C5200 C 0.50148 0.64987 0.92237 0.0
H5201 H 0.47899 0.63753 0.94076 0.0
C5202 C 0.52582 0.6774 0.92334 0.0
C5203 C 0.48456 0.63524 0.92877 0.0
C5204 C 0.45893 0.6051 0.92819 0.0
C5205 C 0.53329 0.69094 0.93046 0.0
C5206 C 0.51627 0.67636 0.93684 0.0
C5207 C 0.49202 0.64877 0.93588 0.0
C5208 C 0.52306 0.68945 0.94455 0.0
C5209 C 0.55889 0.7211 0.93103 0.0
C5210 C 0.54961 0.69739 0.94803 0.0
C5211 C 0.55595 0.70997 0.95523 0.0
C5212 C 0.53579 0.71471 0.95917 0.0
C5213 C 0.509 0.7062 0.95571 0.0
C5214 C 0.50271 0.69368 0.94851 0.0
H5215 H 0.56477 0.73204 0.92545 0.0
H5216 H 0.55448 0.7345 0.935 0.0
H5217 H 0.57778 0.71995 0.93316 0.0
H5218 H 0.56541 0.69369 0.94519 0.0
H5219 H 0.57658 0.71573 0.95775 0.0
H5220 H 0.26032 0.4257 0.45369 0.0
H5221 H 0.28179 0.43489 0.44107 0.0
H5222 H 0.34431 0.5217 0.4477 0.0
H5223 H 0.32351 0.51249 0.46038 0.0
H5224 H 0.28746 0.47647 0.4306 0.0
H5225 H 0.39493 0.49254 0.43837 0.0
H5226 H 0.36444 0.47634 0.44471 0.0
H5227 H 0.38475 0.51491 0.44357 0.0
C5228 C 0.27894 0.44662 0.45251 0.0
C5229 C 0.29022 0.46829 0.45809 0.0
C5230 C 0.29107 0.4519 0.44526 0.0
C5231 C 0.31493 0.47887 0.44344 0.0
C5232 C 0.32625 0.50055 0.44899 0.0
H5233 H 0.41757 0.56001 0.4035 0.0
H5234 H 0.39569 0.54768 0.41604 0.0
C5235 C 0.31409 0.49533 0.45623 0.0
C5236 C 0.3274 0.48463 0.43567 0.0
H5237 H 0.3897 0.50507 0.42583 0.0
C5238 C 0.30976 0.48252 0.42955 0.0
C5239 C 0.35651 0.49257 0.43429 0.0
C5240 C 0.37623 0.49399 0.44057 0.0
C5241 C 0.32061 0.48887 0.42213 0.0
C5242 C 0.3498 0.49702 0.42075 0.0
C5243 C 0.36736 0.49888 0.42687 0.0
C5244 C 0.36275 0.5043 0.41304 0.0
C5245 C 0.30093 0.48765 0.41587 0.0
C5246 C 0.35178 0.48396 0.40715 0.0
C5247 C 0.36413 0.49104 0.39992 0.0
C5248 C 0.38786 0.51862 0.39842 0.0
C5249 C 0.399 0.53877 0.40438 0.0
C5250 C 0.38664 0.53167 0.41159 0.0
H5251 H 0.28193 0.48849 0.41809 0.0
H5252 H 0.31262 0.50575 0.41184 0.0
H5253 H 0.29287 0.46708 0.41272 0.0
H5254 H 0.33373 0.4625 0.40815 0.0
H5255 H 0.35485 0.47499 0.39549 0.0
H5256 H 0.45108 0.8292 0.39906 0.0
H5257 H 0.46263 0.81704 0.4114 0.0
H5258 H 0.53763 0.90203 0.41294 0.0
H5259 H 0.52616 0.91439 0.40062 0.0
H5260 H 0.5104 0.81534 0.41625 0.0
H5261 H 0.49804 0.89651 0.43287 0.0
H5262 H 0.48573 0.88764 0.42324 0.0
H5263 H 0.52332 0.91165 0.42524 0.0
C5264 C 0.47013 0.84528 0.402 0.0
C5265 C 0.4876 0.87285 0.39885 0.0
C5266 C 0.47664 0.83833 0.40908 0.0
C5267 C 0.50072 0.85876 0.41318 0.0
C5268 C 0.5185 0.88613 0.40999 0.0
H5269 H 0.57367 0.85482 0.45697 0.0
H5270 H 0.56447 0.86779 0.44444 0.0
C5271 C 0.51194 0.89315 0.40293 0.0
C5272 C 0.50741 0.8512 0.42073 0.0
H5273 H 0.51706 0.87089 0.43934 0.0
C5274 C 0.51175 0.82744 0.4213 0.0
C5275 C 0.50926 0.867 0.42734 0.0
C5276 C 0.50359 0.89196 0.42718 0.0
C5277 C 0.51823 0.81928 0.42825 0.0
C5278 C 0.51996 0.835 0.43486 0.0
C5279 C 0.51579 0.85886 0.43429 0.0
C5280 C 0.52571 0.82683 0.44244 0.0
C5281 C 0.52374 0.79422 0.42843 0.0
C5282 C 0.50686 0.79959 0.44554 0.0
C5283 C 0.51217 0.79202 0.45268 0.0
C5284 C 0.53638 0.8116 0.45693 0.0
C5285 C 0.55508 0.839 0.45383 0.0
C5286 C 0.54974 0.84655 0.44668 0.0
H5287 H 0.52954 0.78979 0.42275 0.0
H5288 H 0.54135 0.79835 0.43243 0.0
H5289 H 0.50385 0.77453 0.4303 0.0
H5290 H 0.48786 0.78419 0.44245 0.0
H5291 H 0.49741 0.77065 0.45483 0.0
H5292 H 0.15387 0.70542 0.45844 0.0
H5293 H 0.14169 0.68276 0.44595 0.0
H5294 H 0.23213 0.72099 0.4407 0.0
H5295 H 0.24458 0.74418 0.45308 0.0
H5296 H 0.15735 0.70878 0.43134 0.0
H5297 H 0.19979 0.63438 0.43633 0.0
H5298 H 0.1928 0.65265 0.44391 0.0
H5299 H 0.22496 0.67168 0.43831 0.0
C5300 C 0.17123 0.70927 0.45462 0.0
C5301 C 0.20027 0.72657 0.45684 0.0
C5302 C 0.16419 0.69613 0.44748 0.0
C5303 C 0.18597 0.69977 0.44242 0.0
C5304 C 0.21493 0.71732 0.44456 0.0
H5305 H 0.19308 0.63868 0.39744 0.0
H5306 H 0.2032 0.66158 0.40987 0.0
C5307 C 0.222 0.73054 0.45168 0.0
C5308 C 0.1785 0.68552 0.43487 0.0
H5309 H 0.18601 0.63726 0.42379 0.0
C5310 C 0.16345 0.69301 0.4297 0.0
C5311 C 0.18652 0.66499 0.43272 0.0
C5312 C 0.20169 0.65519 0.43812 0.0
C5313 C 0.15686 0.68111 0.42238 0.0
C5314 C 0.16497 0.66062 0.42021 0.0
C5315 C 0.17983 0.65299 0.42542 0.0
C5316 C 0.15854 0.64699 0.41257 0.0
C5317 C 0.14204 0.69127 0.41696 0.0
C5318 C 0.13001 0.63087 0.40992 0.0
C5319 C 0.12414 0.61771 0.40279 0.0
C5320 C 0.14664 0.62007 0.39817 0.0
C5321 C 0.17517 0.6361 0.40086 0.0
C5322 C 0.18102 0.64934 0.40797 0.0
H5323 H 0.14458 0.71238 0.41871 0.0
H5324 H 0.15068 0.6934 0.41115 0.0
H5325 H 0.11862 0.67526 0.41684 0.0
H5326 H 0.11219 0.62807 0.41342 0.0
H5327 H 0.10188 0.60514 0.40098 0.0
loop_
_geom_bond_atom_site_label_1
_geom_bond_atom_site_label_2
_geom_bond_distance
_geom_bond_site_symmetry_2
_ccdc_geom_bond_type
Pr0 C2 2.880 . S
Pr0 O20 2.562 . S
Pr0 O21 2.490 . S
Pr0 O22 2.695 . S
Pr0 O23 2.512 . S
Pr0 O25 2.437 . S
Pr0 O28 2.436 . S
Pr0 O30 2.438 . S
Pr1 C11 2.880 . S
Pr1 O22 2.436 . S
Pr1 O24 2.438 . S
Pr1 O26 2.562 . S
Pr1 O27 2.490 . S
Pr1 O28 2.695 . S
Pr1 O29 2.512 . S
Pr1 O31 2.437 . S
C2 Pr0 2.880 . S
C2 C3 1.491 . S
C2 O20 1.254 . S
C2 O21 1.225 . S
C3 C2 1.491 . S
C3 C4 1.392 . S
C3 C8 1.356 . S
C4 C3 1.392 . S
C4 C5 1.368 . S
C4 H32 0.929 . S
C5 C4 1.368 . S
C5 C6 1.386 . S
C5 H33 0.929 . S
C6 C5 1.386 . S
C6 C7 1.373 . S
C7 C6 1.373 . S
C7 C8 1.409 . S
C7 H34 0.931 . S
C8 C3 1.356 . S
C8 C7 1.409 . S
C8 H35 0.930 . S
C9 O22 1.270 . S
C9 O23 1.248 . S
C10 O24 1.267 . S
C10 O25 1.278 . S
C11 Pr1 2.880 . S
C11 C12 1.491 . S
C11 O26 1.254 . S
C11 O27 1.225 . S
C12 C11 1.491 . S
C12 C13 1.392 . S
C12 C17 1.356 . S
C13 C12 1.392 . S
C13 C14 1.368 . S
C13 H36 0.929 . S
C14 C13 1.368 . S
C14 C15 1.386 . S
C14 H37 0.929 . S
C15 C14 1.386 . S
C15 C16 1.373 . S
C16 C15 1.373 . S
C16 C17 1.409 . S
C16 H38 0.931 . S
C17 C12 1.356 . S
C17 C16 1.409 . S
C17 H39 0.930 . S
C18 O28 1.270 . S
C18 O29 1.248 . S
C19 O30 1.267 . S
C19 O31 1.278 . S
O20 Pr0 2.562 . S
O20 C2 1.254 . S
O21 Pr0 2.490 . S
O21 C2 1.225 . S
O22 Pr0 2.695 . S
O22 Pr1 2.436 . S
O22 C9 1.270 . S
O23 Pr0 2.512 . S
O23 C9 1.248 . S
O24 Pr1 2.438 . S
O24 C10 1.267 . S
O25 Pr0 2.437 . S
O25 C10 1.278 . S
O26 Pr1 2.562 . S
O26 C11 1.254 . S
O27 Pr1 2.490 . S
O27 C11 1.225 . S
O28 Pr0 2.436 . S
O28 Pr1 2.695 . S
O28 C18 1.270 . S
O29 Pr1 2.512 . S
O29 C18 1.248 . S
O30 Pr0 2.438 . S
O30 C19 1.267 . S
O31 Pr1 2.437 . S
O31 C19 1.278 . S
H32 C4 0.929 . S
H33 C5 0.929 . S
H34 C7 0.931 . S
H35 C8 0.930 . S
H36 C13 0.929 . S
H37 C14 0.929 . S
H38 C16 0.931 . S
H39 C17 0.930 . S
Pr40 C42 2.880 . S
Pr40 O60 2.562 . S
Pr40 O61 2.490 . S
Pr40 O62 2.695 . S
Pr40 O63 2.512 . S
Pr40 O65 2.437 . S
Pr40 O68 2.436 . S
Pr40 O70 2.438 . S
Pr41 C51 2.880 . S
Pr41 O62 2.436 . S
Pr41 O64 2.438 . S
Pr41 O66 2.562 . S
Pr41 O67 2.490 . S
Pr41 O68 2.695 . S
Pr41 O69 2.512 . S
Pr41 O71 2.437 . S
C42 Pr40 2.880 . S
C42 C43 1.491 . S
C42 O60 1.254 . S
C42 O61 1.225 . S
C43 C42 1.491 . S
C43 C44 1.392 . S
C43 C48 1.356 . S
C44 C43 1.392 . S
C44 C45 1.368 . S
C44 H72 0.929 . S
C45 C44 1.368 . S
C45 C46 1.386 . S
C45 H73 0.929 . S
C46 C45 1.386 . S
C46 C47 1.373 . S
C47 C46 1.373 . S
C47 C48 1.409 . S
C47 H74 0.931 . S
C48 C43 1.356 . S
C48 C47 1.409 . S
C48 H75 0.930 . S
C49 O62 1.270 . S
C49 O63 1.248 . S
C50 O64 1.267 . S
C50 O65 1.278 . S
C51 Pr41 2.880 . S
C51 C52 1.491 . S
C51 O66 1.254 . S
C51 O67 1.225 . S
C52 C51 1.491 . S
C52 C53 1.392 . S
C52 C57 1.356 . S
C53 C52 1.392 . S
C53 C54 1.368 . S
C53 H76 0.929 . S
C54 C53 1.368 . S
C54 C55 1.386 . S
C54 H77 0.929 . S
C55 C54 1.386 . S
C55 C56 1.373 . S
C56 C55 1.373 . S
C56 C57 1.409 . S
C56 H78 0.931 . S
C57 C52 1.356 . S
C57 C56 1.409 . S
C57 H79 0.930 . S
C58 O68 1.270 . S
C58 O69 1.248 . S
C59 O70 1.267 . S
C59 O71 1.278 . S
O60 Pr40 2.562 . S
O60 C42 1.254 . S
O61 Pr40 2.490 . S
O61 C42 1.225 . S
O62 Pr40 2.695 . S
O62 Pr41 2.436 . S
O62 C49 1.270 . S
O63 Pr40 2.512 . S
O63 C49 1.248 . S
O64 Pr41 2.438 . S
O64 C50 1.267 . S
O65 Pr40 2.437 . S
O65 C50 1.278 . S
O66 Pr41 2.562 . S
O66 C51 1.254 . S
O67 Pr41 2.490 . S
O67 C51 1.225 . S
O68 Pr40 2.436 . S
O68 Pr41 2.695 . S
O68 C58 1.270 . S
O69 Pr41 2.512 . S
O69 C58 1.248 . S
O70 Pr40 2.438 . S
O70 C59 1.267 . S
O71 Pr41 2.437 . S
O71 C59 1.278 . S
H72 C44 0.929 . S
H73 C45 0.929 . S
H74 C47 0.931 . S
H75 C48 0.930 . S
H76 C53 0.929 . S
H77 C54 0.929 . S
H78 C56 0.931 . S
H79 C57 0.930 . S
Pr80 C82 2.880 . S
Pr80 O100 2.562 . S
Pr80 O101 2.490 . S
Pr80 O102 2.695 . S
Pr80 O103 2.512 . S
Pr80 O105 2.437 . S
Pr80 O108 2.436 . S
Pr80 O110 2.438 . S
Pr81 C91 2.880 . S
Pr81 O102 2.436 . S
Pr81 O104 2.438 . S
Pr81 O106 2.562 . S
Pr81 O107 2.490 . S
Pr81 O108 2.695 . S
Pr81 O109 2.512 . S
Pr81 O111 2.437 . S
C82 Pr80 2.880 . S
C82 C83 1.491 . S
C82 O100 1.254 . S
C82 O101 1.225 . S
C83 C82 1.491 . S
C83 C84 1.392 . S
C83 C88 1.356 . S
C84 C83 1.392 . S
C84 C85 1.368 . S
C84 H112 0.929 . S
C85 C84 1.368 . S
C85 C86 1.386 . S
C85 H113 0.929 . S
C86 C85 1.386 . S
C86 C87 1.373 . S
C87 C86 1.373 . S
C87 C88 1.409 . S
C87 H114 0.931 . S
C88 C83 1.356 . S
C88 C87 1.409 . S
C88 H115 0.930 . S
C89 O102 1.270 . S
C89 O103 1.248 . S
C90 O104 1.267 . S
C90 O105 1.278 . S
C91 Pr81 2.880 . S
C91 C92 1.491 . S
C91 O106 1.254 . S
C91 O107 1.225 . S
C92 C91 1.491 . S
C92 C93 1.392 . S
C92 C97 1.356 . S
C93 C92 1.392 . S
C93 C94 1.368 . S
C93 H116 0.929 . S
C94 C93 1.368 . S
C94 C95 1.386 . S
C94 H117 0.929 . S
C95 C94 1.386 . S
C95 C96 1.373 . S
C96 C95 1.373 . S
C96 C97 1.409 . S
C96 H118 0.931 . S
C97 C92 1.356 . S
C97 C96 1.409 . S
C97 H119 0.930 . S
C98 O108 1.270 . S
C98 O109 1.248 . S
C99 O110 1.267 . S
C99 O111 1.278 . S
O100 Pr80 2.562 . S
O100 C82 1.254 . S
O101 Pr80 2.490 . S
O101 C82 1.225 . S
O102 Pr80 2.695 . S
O102 Pr81 2.436 . S
O102 C89 1.270 . S
O103 Pr80 2.512 . S
O103 C89 1.248 . S
O104 Pr81 2.438 . S
O104 C90 1.267 . S
O105 Pr80 2.437 . S
O105 C90 1.278 . S
O106 Pr81 2.562 . S
O106 C91 1.254 . S
O107 Pr81 2.490 . S
O107 C91 1.225 . S
O108 Pr80 2.436 . S
O108 Pr81 2.695 . S
O108 C98 1.270 . S
O109 Pr81 2.512 . S
O109 C98 1.248 . S
O110 Pr80 2.438 . S
O110 C99 1.267 . S
O111 Pr81 2.437 . S
O111 C99 1.278 . S
H112 C84 0.929 . S
H113 C85 0.929 . S
H114 C87 0.931 . S
H115 C88 0.930 . S
H116 C93 0.929 . S
H117 C94 0.929 . S
H118 C96 0.931 . S
H119 C97 0.930 . S
Pr120 C122 2.880 . S
Pr120 O140 2.562 . S
Pr120 O141 2.490 . S
Pr120 O142 2.695 . S
Pr120 O143 2.512 . S
Pr120 O145 2.437 . S
Pr120 O148 2.436 . S
Pr120 O150 2.438 . S
Pr121 C131 2.880 . S
Pr121 O142 2.436 . S
Pr121 O144 2.438 . S
Pr121 O146 2.562 . S
Pr121 O147 2.490 . S
Pr121 O148 2.695 . S
Pr121 O149 2.512 . S
Pr121 O151 2.437 . S
C122 Pr120 2.880 . S
C122 C123 1.491 . S
C122 O140 1.254 . S
C122 O141 1.225 . S
C123 C122 1.491 . S
C123 C124 1.392 . S
C123 C128 1.356 . S
C124 C123 1.392 . S
C124 C125 1.368 . S
C124 H152 0.929 . S
C125 C124 1.368 . S
C125 C126 1.386 . S
C125 H153 0.929 . S
C126 C125 1.386 . S
C126 C127 1.373 . S
C127 C126 1.373 . S
C127 C128 1.409 . S
C127 H154 0.931 . S
C128 C123 1.356 . S
C128 C127 1.409 . S
C128 H155 0.930 . S
C129 O142 1.270 . S
C129 O143 1.248 . S
C130 O144 1.267 . S
C130 O145 1.278 . S
C131 Pr121 2.880 . S
C131 C132 1.491 . S
C131 O146 1.254 . S
C131 O147 1.225 . S
C132 C131 1.491 . S
C132 C133 1.392 . S
C132 C137 1.356 . S
C133 C132 1.392 . S
C133 C134 1.368 . S
C133 H156 0.929 . S
C134 C133 1.368 . S
C134 C135 1.386 . S
C134 H157 0.929 . S
C135 C134 1.386 . S
C135 C136 1.373 . S
C136 C135 1.373 . S
C136 C137 1.409 . S
C136 H158 0.931 . S
C137 C132 1.356 . S
C137 C136 1.409 . S
C137 H159 0.930 . S
C138 O148 1.270 . S
C138 O149 1.248 . S
C139 O150 1.267 . S
C139 O151 1.278 . S
O140 Pr120 2.562 . S
O140 C122 1.254 . S
O141 Pr120 2.490 . S
O141 C122 1.225 . S
O142 Pr120 2.695 . S
O142 Pr121 2.436 . S
O142 C129 1.270 . S
O143 Pr120 2.512 . S
O143 C129 1.248 . S
O144 Pr121 2.438 . S
O144 C130 1.267 . S
O145 Pr120 2.437 . S
O145 C130 1.278 . S
O146 Pr121 2.562 . S
O146 C131 1.254 . S
O147 Pr121 2.490 . S
O147 C131 1.225 . S
O148 Pr120 2.436 . S
O148 Pr121 2.695 . S
O148 C138 1.270 . S
O149 Pr121 2.512 . S
O149 C138 1.248 . S
O150 Pr120 2.438 . S
O150 C139 1.267 . S
O151 Pr121 2.437 . S
O151 C139 1.278 . S
H152 C124 0.929 . S
H153 C125 0.929 . S
H154 C127 0.931 . S
H155 C128 0.930 . S
H156 C133 0.929 . S
H157 C134 0.929 . S
H158 C136 0.931 . S
H159 C137 0.930 . S
Pr160 C162 2.880 . S
Pr160 O180 2.562 . S
Pr160 O181 2.490 . S
Pr160 O182 2.695 . S
Pr160 O183 2.512 . S
Pr160 O185 2.437 . S
Pr160 O188 2.436 . S
Pr160 O190 2.438 . S
Pr161 C171 2.880 . S
Pr161 O182 2.436 . S
Pr161 O184 2.438 . S
Pr161 O186 2.562 . S
Pr161 O187 2.490 . S
Pr161 O188 2.695 . S
Pr161 O189 2.512 . S
Pr161 O191 2.437 . S
C162 Pr160 2.880 . S
C162 C163 1.491 . S
C162 O180 1.254 . S
C162 O181 1.225 . S
C163 C162 1.491 . S
C163 C164 1.392 . S
C163 C168 1.356 . S
C164 C163 1.392 . S
C164 C165 1.368 . S
C164 H192 0.929 . S
C165 C164 1.368 . S
C165 C166 1.386 . S
C165 H193 0.929 . S
C166 C165 1.386 . S
C166 C167 1.373 . S
C167 C166 1.373 . S
C167 C168 1.409 . S
C167 H194 0.931 . S
C168 C163 1.356 . S
C168 C167 1.409 . S
C168 H195 0.930 . S
C169 O182 1.270 . S
C169 O183 1.248 . S
C170 O184 1.267 . S
C170 O185 1.278 . S
C171 Pr161 2.880 . S
C171 C172 1.491 . S
C171 O186 1.254 . S
C171 O187 1.225 . S
C172 C171 1.491 . S
C172 C173 1.392 . S
C172 C177 1.356 . S
C173 C172 1.392 . S
C173 C174 1.368 . S
C173 H196 0.929 . S
C174 C173 1.368 . S
C174 C175 1.386 . S
C174 H197 0.929 . S
C175 C174 1.386 . S
C175 C176 1.373 . S
C176 C175 1.373 . S
C176 C177 1.409 . S
C176 H198 0.931 . S
C177 C172 1.356 . S
C177 C176 1.409 . S
C177 H199 0.930 . S
C178 O188 1.270 . S
C178 O189 1.248 . S
C179 O190 1.267 . S
C179 O191 1.278 . S
O180 Pr160 2.562 . S
O180 C162 1.254 . S
O181 Pr160 2.490 . S
O181 C162 1.225 . S
O182 Pr160 2.695 . S
O182 Pr161 2.436 . S
O182 C169 1.270 . S
O183 Pr160 2.512 . S
O183 C169 1.248 . S
O184 Pr161 2.438 . S
O184 C170 1.267 . S
O185 Pr160 2.437 . S
O185 C170 1.278 . S
O186 Pr161 2.562 . S
O186 C171 1.254 . S
O187 Pr161 2.490 . S
O187 C171 1.225 . S
O188 Pr160 2.436 . S
O188 Pr161 2.695 . S
O188 C178 1.270 . S
O189 Pr161 2.512 . S
O189 C178 1.248 . S
O190 Pr160 2.438 . S
O190 C179 1.267 . S
O191 Pr161 2.437 . S
O191 C179 1.278 . S
H192 C164 0.929 . S
H193 C165 0.929 . S
H194 C167 0.931 . S
H195 C168 0.930 . S
H196 C173 0.929 . S
H197 C174 0.929 . S
H198 C176 0.931 . S
H199 C177 0.930 . S
Pr200 C202 2.880 . S
Pr200 O220 2.562 . S
Pr200 O221 2.490 . S
Pr200 O222 2.695 . S
Pr200 O223 2.512 . S
Pr200 O225 2.437 . S
Pr200 O228 2.436 . S
Pr200 O230 2.438 . S
Pr201 C211 2.880 . S
Pr201 O222 2.436 . S
Pr201 O224 2.438 . S
Pr201 O226 2.562 . S
Pr201 O227 2.490 . S
Pr201 O228 2.695 . S
Pr201 O229 2.512 . S
Pr201 O231 2.437 . S
C202 Pr200 2.880 . S
C202 C203 1.491 . S
C202 O220 1.254 . S
C202 O221 1.225 . S
C203 C202 1.491 . S
C203 C204 1.392 . S
C203 C208 1.356 . S
C204 C203 1.392 . S
C204 C205 1.368 . S
C204 H232 0.929 . S
C205 C204 1.368 . S
C205 C206 1.386 . S
C205 H233 0.929 . S
C206 C205 1.386 . S
C206 C207 1.373 . S
C207 C206 1.373 . S
C207 C208 1.409 . S
C207 H234 0.931 . S
C208 C203 1.356 . S
C208 C207 1.409 . S
C208 H235 0.930 . S
C209 O222 1.270 . S
C209 O223 1.248 . S
C210 O224 1.267 . S
C210 O225 1.278 . S
C211 Pr201 2.880 . S
C211 C212 1.491 . S
C211 O226 1.254 . S
C211 O227 1.225 . S
C212 C211 1.491 . S
C212 C213 1.392 . S
C212 C217 1.356 . S
C213 C212 1.392 . S
C213 C214 1.368 . S
C213 H236 0.929 . S
C214 C213 1.368 . S
C214 C215 1.386 . S
C214 H237 0.929 . S
C215 C214 1.386 . S
C215 C216 1.373 . S
C216 C215 1.373 . S
C216 C217 1.409 . S
C216 H238 0.931 . S
C217 C212 1.356 . S
C217 C216 1.409 . S
C217 H239 0.930 . S
C218 O228 1.270 . S
C218 O229 1.248 . S
C219 O230 1.267 . S
C219 O231 1.278 . S
O220 Pr200 2.562 . S
O220 C202 1.254 . S
O221 Pr200 2.490 . S
O221 C202 1.225 . S
O222 Pr200 2.695 . S
O222 Pr201 2.436 . S
O222 C209 1.270 . S
O223 Pr200 2.512 . S
O223 C209 1.248 . S
O224 Pr201 2.438 . S
O224 C210 1.267 . S
O225 Pr200 2.437 . S
O225 C210 1.278 . S
O226 Pr201 2.562 . S
O226 C211 1.254 . S
O227 Pr201 2.490 . S
O227 C211 1.225 . S
O228 Pr200 2.436 . S
O228 Pr201 2.695 . S
O228 C218 1.270 . S
O229 Pr201 2.512 . S
O229 C218 1.248 . S
O230 Pr200 2.438 . S
O230 C219 1.267 . S
O231 Pr201 2.437 . S
O231 C219 1.278 . S
H232 C204 0.929 . S
H233 C205 0.929 . S
H234 C207 0.931 . S
H235 C208 0.930 . S
H236 C213 0.929 . S
H237 C214 0.929 . S
H238 C216 0.931 . S
H239 C217 0.930 . S
Pr240 C242 2.880 . S
Pr240 O260 2.562 . S
Pr240 O261 2.490 . S
Pr240 O262 2.695 . S
Pr240 O263 2.512 . S
Pr240 O265 2.437 . S
Pr240 O268 2.436 . S
Pr240 O270 2.438 . S
Pr241 C251 2.880 . S
Pr241 O262 2.436 . S
Pr241 O264 2.438 . S
Pr241 O266 2.562 . S
Pr241 O267 2.490 . S
Pr241 O268 2.695 . S
Pr241 O269 2.512 . S
Pr241 O271 2.437 . S
C242 Pr240 2.880 . S
C242 C243 1.491 . S
C242 O260 1.254 . S
C242 O261 1.225 . S
C243 C242 1.491 . S
C243 C244 1.392 . S
C243 C248 1.356 . S
C244 C243 1.392 . S
C244 C245 1.368 . S
C244 H272 0.929 . S
C245 C244 1.368 . S
C245 C246 1.386 . S
C245 H273 0.929 . S
C246 C245 1.386 . S
C246 C247 1.373 . S
C247 C246 1.373 . S
C247 C248 1.409 . S
C247 H274 0.931 . S
C248 C243 1.356 . S
C248 C247 1.409 . S
C248 H275 0.930 . S
C249 O262 1.270 . S
C249 O263 1.248 . S
C250 O264 1.267 . S
C250 O265 1.278 . S
C251 Pr241 2.880 . S
C251 C252 1.491 . S
C251 O266 1.254 . S
C251 O267 1.225 . S
C252 C251 1.491 . S
C252 C253 1.392 . S
C252 C257 1.356 . S
C253 C252 1.392 . S
C253 C254 1.368 . S
C253 H276 0.929 . S
C254 C253 1.368 . S
C254 C255 1.386 . S
C254 H277 0.929 . S
C255 C254 1.386 . S
C255 C256 1.373 . S
C256 C255 1.373 . S
C256 C257 1.409 . S
C256 H278 0.931 . S
C257 C252 1.356 . S
C257 C256 1.409 . S
C257 H279 0.930 . S
C258 O268 1.270 . S
C258 O269 1.248 . S
C259 O270 1.267 . S
C259 O271 1.278 . S
O260 Pr240 2.562 . S
O260 C242 1.254 . S
O261 Pr240 2.490 . S
O261 C242 1.225 . S
O262 Pr240 2.695 . S
O262 Pr241 2.436 . S
O262 C249 1.270 . S
O263 Pr240 2.512 . S
O263 C249 1.248 . S
O264 Pr241 2.438 . S
O264 C250 1.267 . S
O265 Pr240 2.437 . S
O265 C250 1.278 . S
O266 Pr241 2.562 . S
O266 C251 1.254 . S
O267 Pr241 2.490 . S
O267 C251 1.225 . S
O268 Pr240 2.436 . S
O268 Pr241 2.695 . S
O268 C258 1.270 . S
O269 Pr241 2.512 . S
O269 C258 1.248 . S
O270 Pr240 2.438 . S
O270 C259 1.267 . S
O271 Pr241 2.437 . S
O271 C259 1.278 . S
H272 C244 0.929 . S
H273 C245 0.929 . S
H274 C247 0.931 . S
H275 C248 0.930 . S
H276 C253 0.929 . S
H277 C254 0.929 . S
H278 C256 0.931 . S
H279 C257 0.930 . S
Pr280 C282 2.880 . S
Pr280 O300 2.562 . S
Pr280 O301 2.490 . S
Pr280 O302 2.695 . S
Pr280 O303 2.512 . S
Pr280 O305 2.437 . S
Pr280 O308 2.436 . S
Pr280 O310 2.438 . S
Pr281 C291 2.880 . S
Pr281 O302 2.436 . S
Pr281 O304 2.438 . S
Pr281 O306 2.562 . S
Pr281 O307 2.490 . S
Pr281 O308 2.695 . S
Pr281 O309 2.512 . S
Pr281 O311 2.437 . S
C282 Pr280 2.880 . S
C282 C283 1.491 . S
C282 O300 1.254 . S
C282 O301 1.225 . S
C283 C282 1.491 . S
C283 C284 1.392 . S
C283 C288 1.356 . S
C284 C283 1.392 . S
C284 C285 1.368 . S
C284 H312 0.929 . S
C285 C284 1.368 . S
C285 C286 1.386 . S
C285 H313 0.929 . S
C286 C285 1.386 . S
C286 C287 1.373 . S
C287 C286 1.373 . S
C287 C288 1.409 . S
C287 H314 0.931 . S
C288 C283 1.356 . S
C288 C287 1.409 . S
C288 H315 0.930 . S
C289 O302 1.270 . S
C289 O303 1.248 . S
C290 O304 1.267 . S
C290 O305 1.278 . S
C291 Pr281 2.880 . S
C291 C292 1.491 . S
C291 O306 1.254 . S
C291 O307 1.225 . S
C292 C291 1.491 . S
C292 C293 1.392 . S
C292 C297 1.356 . S
C293 C292 1.392 . S
C293 C294 1.368 . S
C293 H316 0.929 . S
C294 C293 1.368 . S
C294 C295 1.386 . S
C294 H317 0.929 . S
C295 C294 1.386 . S
C295 C296 1.373 . S
C296 C295 1.373 . S
C296 C297 1.409 . S
C296 H318 0.931 . S
C297 C292 1.356 . S
C297 C296 1.409 . S
C297 H319 0.930 . S
C298 O308 1.270 . S
C298 O309 1.248 . S
C299 O310 1.267 . S
C299 O311 1.278 . S
O300 Pr280 2.562 . S
O300 C282 1.254 . S
O301 Pr280 2.490 . S
O301 C282 1.225 . S
O302 Pr280 2.695 . S
O302 Pr281 2.436 . S
O302 C289 1.270 . S
O303 Pr280 2.512 . S
O303 C289 1.248 . S
O304 Pr281 2.438 . S
O304 C290 1.267 . S
O305 Pr280 2.437 . S
O305 C290 1.278 . S
O306 Pr281 2.562 . S
O306 C291 1.254 . S
O307 Pr281 2.490 . S
O307 C291 1.225 . S
O308 Pr280 2.436 . S
O308 Pr281 2.695 . S
O308 C298 1.270 . S
O309 Pr281 2.512 . S
O309 C298 1.248 . S
O310 Pr280 2.438 . S
O310 C299 1.267 . S
O311 Pr281 2.437 . S
O311 C299 1.278 . S
H312 C284 0.929 . S
H313 C285 0.929 . S
H314 C287 0.931 . S
H315 C288 0.930 . S
H316 C293 0.929 . S
H317 C294 0.929 . S
H318 C296 0.931 . S
H319 C297 0.930 . S
Pr320 C322 2.880 . S
Pr320 O340 2.562 . S
Pr320 O341 2.490 . S
Pr320 O342 2.695 . S
Pr320 O343 2.512 . S
Pr320 O345 2.437 . S
Pr320 O348 2.436 . S
Pr320 O350 2.438 . S
Pr321 C331 2.880 . S
Pr321 O342 2.436 . S
Pr321 O344 2.438 . S
Pr321 O346 2.562 . S
Pr321 O347 2.490 . S
Pr321 O348 2.695 . S
Pr321 O349 2.512 . S
Pr321 O351 2.437 . S
C322 Pr320 2.880 . S
C322 C323 1.491 . S
C322 O340 1.254 . S
C322 O341 1.225 . S
C323 C322 1.491 . S
C323 C324 1.392 . S
C323 C328 1.356 . S
C324 C323 1.392 . S
C324 C325 1.368 . S
C324 H352 0.929 . S
C325 C324 1.368 . S
C325 C326 1.386 . S
C325 H353 0.929 . S
C326 C325 1.386 . S
C326 C327 1.373 . S
C327 C326 1.373 . S
C327 C328 1.409 . S
C327 H354 0.931 . S
C328 C323 1.356 . S
C328 C327 1.409 . S
C328 H355 0.930 . S
C329 O342 1.270 . S
C329 O343 1.248 . S
C330 O344 1.267 . S
C330 O345 1.278 . S
C331 Pr321 2.880 . S
C331 C332 1.491 . S
C331 O346 1.254 . S
C331 O347 1.225 . S
C332 C331 1.491 . S
C332 C333 1.392 . S
C332 C337 1.356 . S
C333 C332 1.392 . S
C333 C334 1.368 . S
C333 H356 0.929 . S
C334 C333 1.368 . S
C334 C335 1.386 . S
C334 H357 0.929 . S
C335 C334 1.386 . S
C335 C336 1.373 . S
C336 C335 1.373 . S
C336 C337 1.409 . S
C336 H358 0.931 . S
C337 C332 1.356 . S
C337 C336 1.409 . S
C337 H359 0.930 . S
C338 O348 1.270 . S
C338 O349 1.248 . S
C339 O350 1.267 . S
C339 O351 1.278 . S
O340 Pr320 2.562 . S
O340 C322 1.254 . S
O341 Pr320 2.490 . S
O341 C322 1.225 . S
O342 Pr320 2.695 . S
O342 Pr321 2.436 . S
O342 C329 1.270 . S
O343 Pr320 2.512 . S
O343 C329 1.248 . S
O344 Pr321 2.438 . S
O344 C330 1.267 . S
O345 Pr320 2.437 . S
O345 C330 1.278 . S
O346 Pr321 2.562 . S
O346 C331 1.254 . S
O347 Pr321 2.490 . S
O347 C331 1.225 . S
O348 Pr320 2.436 . S
O348 Pr321 2.695 . S
O348 C338 1.270 . S
O349 Pr321 2.512 . S
O349 C338 1.248 . S
O350 Pr320 2.438 . S
O350 C339 1.267 . S
O351 Pr321 2.437 . S
O351 C339 1.278 . S
H352 C324 0.929 . S
H353 C325 0.929 . S
H354 C327 0.931 . S
H355 C328 0.930 . S
H356 C333 0.929 . S
H357 C334 0.929 . S
H358 C336 0.931 . S
H359 C337 0.930 . S
Pr360 C362 2.880 . S
Pr360 O380 2.562 . S
Pr360 O381 2.490 . S
Pr360 O382 2.695 . S
Pr360 O383 2.512 . S
Pr360 O385 2.437 . S
Pr360 O388 2.436 . S
Pr360 O390 2.438 . S
Pr361 C371 2.880 . S
Pr361 O382 2.436 . S
Pr361 O384 2.438 . S
Pr361 O386 2.562 . S
Pr361 O387 2.490 . S
Pr361 O388 2.695 . S
Pr361 O389 2.512 . S
Pr361 O391 2.437 . S
C362 Pr360 2.880 . S
C362 C363 1.491 . S
C362 O380 1.254 . S
C362 O381 1.225 . S
C363 C362 1.491 . S
C363 C364 1.392 . S
C363 C368 1.356 . S
C364 C363 1.392 . S
C364 C365 1.368 . S
C364 H392 0.929 . S
C365 C364 1.368 . S
C365 C366 1.386 . S
C365 H393 0.929 . S
C366 C365 1.386 . S
C366 C367 1.373 . S
C367 C366 1.373 . S
C367 C368 1.409 . S
C367 H394 0.931 . S
C368 C363 1.356 . S
C368 C367 1.409 . S
C368 H395 0.930 . S
C369 O382 1.270 . S
C369 O383 1.248 . S
C370 O384 1.267 . S
C370 O385 1.278 . S
C371 Pr361 2.880 . S
C371 C372 1.491 . S
C371 O386 1.254 . S
C371 O387 1.225 . S
C372 C371 1.491 . S
C372 C373 1.392 . S
C372 C377 1.356 . S
C373 C372 1.392 . S
C373 C374 1.368 . S
C373 H396 0.929 . S
C374 C373 1.368 . S
C374 C375 1.386 . S
C374 H397 0.929 . S
C375 C374 1.386 . S
C375 C376 1.373 . S
C376 C375 1.373 . S
C376 C377 1.409 . S
C376 H398 0.931 . S
C377 C372 1.356 . S
C377 C376 1.409 . S
C377 H399 0.930 . S
C378 O388 1.270 . S
C378 O389 1.248 . S
C379 O390 1.267 . S
C379 O391 1.278 . S
O380 Pr360 2.562 . S
O380 C362 1.254 . S
O381 Pr360 2.490 . S
O381 C362 1.225 . S
O382 Pr360 2.695 . S
O382 Pr361 2.436 . S
O382 C369 1.270 . S
O383 Pr360 2.512 . S
O383 C369 1.248 . S
O384 Pr361 2.438 . S
O384 C370 1.267 . S
O385 Pr360 2.437 . S
O385 C370 1.278 . S
O386 Pr361 2.562 . S
O386 C371 1.254 . S
O387 Pr361 2.490 . S
O387 C371 1.225 . S
O388 Pr360 2.436 . S
O388 Pr361 2.695 . S
O388 C378 1.270 . S
O389 Pr361 2.512 . S
O389 C378 1.248 . S
O390 Pr360 2.438 . S
O390 C379 1.267 . S
O391 Pr361 2.437 . S
O391 C379 1.278 . S
H392 C364 0.929 . S
H393 C365 0.929 . S
H394 C367 0.931 . S
H395 C368 0.930 . S
H396 C373 0.929 . S
H397 C374 0.929 . S
H398 C376 0.931 . S
H399 C377 0.930 . S
Pr400 C402 2.880 . S
Pr400 O420 2.562 . S
Pr400 O421 2.490 . S
Pr400 O422 2.695 . S
Pr400 O423 2.512 . S
Pr400 O425 2.437 . S
Pr400 O428 2.436 . S
Pr400 O430 2.438 . S
Pr401 C411 2.880 . S
Pr401 O422 2.436 . S
Pr401 O424 2.438 . S
Pr401 O426 2.562 . S
Pr401 O427 2.490 . S
Pr401 O428 2.695 . S
Pr401 O429 2.512 . S
Pr401 O431 2.437 . S
C402 Pr400 2.880 . S
C402 C403 1.491 . S
C402 O420 1.254 . S
C402 O421 1.225 . S
C403 C402 1.491 . S
C403 C404 1.392 . S
C403 C408 1.356 . S
C404 C403 1.392 . S
C404 C405 1.368 . S
C404 H432 0.929 . S
C405 C404 1.368 . S
C405 C406 1.386 . S
C405 H433 0.929 . S
C406 C405 1.386 . S
C406 C407 1.373 . S
C407 C406 1.373 . S
C407 C408 1.409 . S
C407 H434 0.931 . S
C408 C403 1.356 . S
C408 C407 1.409 . S
C408 H435 0.930 . S
C409 O422 1.270 . S
C409 O423 1.248 . S
C410 O424 1.267 . S
C410 O425 1.278 . S
C411 Pr401 2.880 . S
C411 C412 1.491 . S
C411 O426 1.254 . S
C411 O427 1.225 . S
C412 C411 1.491 . S
C412 C413 1.392 . S
C412 C417 1.356 . S
C413 C412 1.392 . S
C413 C414 1.368 . S
C413 H436 0.929 . S
C414 C413 1.368 . S
C414 C415 1.386 . S
C414 H437 0.929 . S
C415 C414 1.386 . S
C415 C416 1.373 . S
C416 C415 1.373 . S
C416 C417 1.409 . S
C416 H438 0.931 . S
C417 C412 1.356 . S
C417 C416 1.409 . S
C417 H439 0.930 . S
C418 O428 1.270 . S
C418 O429 1.248 . S
C419 O430 1.267 . S
C419 O431 1.278 . S
O420 Pr400 2.562 . S
O420 C402 1.254 . S
O421 Pr400 2.490 . S
O421 C402 1.225 . S
O422 Pr400 2.695 . S
O422 Pr401 2.436 . S
O422 C409 1.270 . S
O423 Pr400 2.512 . S
O423 C409 1.248 . S
O424 Pr401 2.438 . S
O424 C410 1.267 . S
O425 Pr400 2.437 . S
O425 C410 1.278 . S
O426 Pr401 2.562 . S
O426 C411 1.254 . S
O427 Pr401 2.490 . S
O427 C411 1.225 . S
O428 Pr400 2.436 . S
O428 Pr401 2.695 . S
O428 C418 1.270 . S
O429 Pr401 2.512 . S
O429 C418 1.248 . S
O430 Pr400 2.438 . S
O430 C419 1.267 . S
O431 Pr401 2.437 . S
O431 C419 1.278 . S
H432 C404 0.929 . S
H433 C405 0.929 . S
H434 C407 0.931 . S
H435 C408 0.930 . S
H436 C413 0.929 . S
H437 C414 0.929 . S
H438 C416 0.931 . S
H439 C417 0.930 . S
Pr440 C442 2.880 . S
Pr440 O460 2.562 . S
Pr440 O461 2.490 . S
Pr440 O462 2.695 . S
Pr440 O463 2.512 . S
Pr440 O465 2.437 . S
Pr440 O468 2.436 . S
Pr440 O470 2.438 . S
Pr441 C451 2.880 . S
Pr441 O462 2.436 . S
Pr441 O464 2.438 . S
Pr441 O466 2.562 . S
Pr441 O467 2.490 . S
Pr441 O468 2.695 . S
Pr441 O469 2.512 . S
Pr441 O471 2.437 . S
C442 Pr440 2.880 . S
C442 C443 1.491 . S
C442 O460 1.254 . S
C442 O461 1.225 . S
C443 C442 1.491 . S
C443 C444 1.392 . S
C443 C448 1.356 . S
C444 C443 1.392 . S
C444 C445 1.368 . S
C444 H472 0.929 . S
C445 C444 1.368 . S
C445 C446 1.386 . S
C445 H473 0.929 . S
C446 C445 1.386 . S
C446 C447 1.373 . S
C447 C446 1.373 . S
C447 C448 1.409 . S
C447 H474 0.931 . S
C448 C443 1.356 . S
C448 C447 1.409 . S
C448 H475 0.930 . S
C449 O462 1.270 . S
C449 O463 1.248 . S
C450 O464 1.267 . S
C450 O465 1.278 . S
C451 Pr441 2.880 . S
C451 C452 1.491 . S
C451 O466 1.254 . S
C451 O467 1.225 . S
C452 C451 1.491 . S
C452 C453 1.392 . S
C452 C457 1.356 . S
C453 C452 1.392 . S
C453 C454 1.368 . S
C453 H476 0.929 . S
C454 C453 1.368 . S
C454 C455 1.386 . S
C454 H477 0.929 . S
C455 C454 1.386 . S
C455 C456 1.373 . S
C456 C455 1.373 . S
C456 C457 1.409 . S
C456 H478 0.931 . S
C457 C452 1.356 . S
C457 C456 1.409 . S
C457 H479 0.930 . S
C458 O468 1.270 . S
C458 O469 1.248 . S
C459 O470 1.267 . S
C459 O471 1.278 . S
O460 Pr440 2.562 . S
O460 C442 1.254 . S
O461 Pr440 2.490 . S
O461 C442 1.225 . S
O462 Pr440 2.695 . S
O462 Pr441 2.436 . S
O462 C449 1.270 . S
O463 Pr440 2.512 . S
O463 C449 1.248 . S
O464 Pr441 2.438 . S
O464 C450 1.267 . S
O465 Pr440 2.437 . S
O465 C450 1.278 . S
O466 Pr441 2.562 . S
O466 C451 1.254 . S
O467 Pr441 2.490 . S
O467 C451 1.225 . S
O468 Pr440 2.436 . S
O468 Pr441 2.695 . S
O468 C458 1.270 . S
O469 Pr441 2.512 . S
O469 C458 1.248 . S
O470 Pr440 2.438 . S
O470 C459 1.267 . S
O471 Pr441 2.437 . S
O471 C459 1.278 . S
H472 C444 0.929 . S
H473 C445 0.929 . S
H474 C447 0.931 . S
H475 C448 0.930 . S
H476 C453 0.929 . S
H477 C454 0.929 . S
H478 C456 0.931 . S
H479 C457 0.930 . S
Pr480 C482 2.880 . S
Pr480 O500 2.562 . S
Pr480 O501 2.490 . S
Pr480 O502 2.695 . S
Pr480 O503 2.512 . S
Pr480 O505 2.437 . S
Pr480 O508 2.436 . S
Pr480 O510 2.438 . S
Pr481 C491 2.880 . S
Pr481 O502 2.436 . S
Pr481 O504 2.438 . S
Pr481 O506 2.562 . S
Pr481 O507 2.490 . S
Pr481 O508 2.695 . S
Pr481 O509 2.512 . S
Pr481 O511 2.437 . S
C482 Pr480 2.880 . S
C482 C483 1.491 . S
C482 O500 1.254 . S
C482 O501 1.225 . S
C483 C482 1.491 . S
C483 C484 1.392 . S
C483 C488 1.356 . S
C484 C483 1.392 . S
C484 C485 1.368 . S
C484 H512 0.929 . S
C485 C484 1.368 . S
C485 C486 1.386 . S
C485 H513 0.929 . S
C486 C485 1.386 . S
C486 C487 1.373 . S
C487 C486 1.373 . S
C487 C488 1.409 . S
C487 H514 0.931 . S
C488 C483 1.356 . S
C488 C487 1.409 . S
C488 H515 0.930 . S
C489 O502 1.270 . S
C489 O503 1.248 . S
C490 O504 1.267 . S
C490 O505 1.278 . S
C491 Pr481 2.880 . S
C491 C492 1.491 . S
C491 O506 1.254 . S
C491 O507 1.225 . S
C492 C491 1.491 . S
C492 C493 1.392 . S
C492 C497 1.356 . S
C493 C492 1.392 . S
C493 C494 1.368 . S
C493 H516 0.929 . S
C494 C493 1.368 . S
C494 C495 1.386 . S
C494 H517 0.929 . S
C495 C494 1.386 . S
C495 C496 1.373 . S
C496 C495 1.373 . S
C496 C497 1.409 . S
C496 H518 0.931 . S
C497 C492 1.356 . S
C497 C496 1.409 . S
C497 H519 0.930 . S
C498 O508 1.270 . S
C498 O509 1.248 . S
C499 O510 1.267 . S
C499 O511 1.278 . S
O500 Pr480 2.562 . S
O500 C482 1.254 . S
O501 Pr480 2.490 . S
O501 C482 1.225 . S
O502 Pr480 2.695 . S
O502 Pr481 2.436 . S
O502 C489 1.270 . S
O503 Pr480 2.512 . S
O503 C489 1.248 . S
O504 Pr481 2.438 . S
O504 C490 1.267 . S
O505 Pr480 2.437 . S
O505 C490 1.278 . S
O506 Pr481 2.562 . S
O506 C491 1.254 . S
O507 Pr481 2.490 . S
O507 C491 1.225 . S
O508 Pr480 2.436 . S
O508 Pr481 2.695 . S
O508 C498 1.270 . S
O509 Pr481 2.512 . S
O509 C498 1.248 . S
O510 Pr480 2.438 . S
O510 C499 1.267 . S
O511 Pr481 2.437 . S
O511 C499 1.278 . S
H512 C484 0.929 . S
H513 C485 0.929 . S
H514 C487 0.931 . S
H515 C488 0.930 . S
H516 C493 0.929 . S
H517 C494 0.929 . S
H518 C496 0.931 . S
H519 C497 0.930 . S
Pr520 C522 2.880 . S
Pr520 O540 2.562 . S
Pr520 O541 2.490 . S
Pr520 O542 2.695 . S
Pr520 O543 2.512 . S
Pr520 O545 2.437 . S
Pr520 O548 2.436 . S
Pr520 O550 2.438 . S
Pr521 C531 2.880 . S
Pr521 O542 2.436 . S
Pr521 O544 2.438 . S
Pr521 O546 2.562 . S
Pr521 O547 2.490 . S
Pr521 O548 2.695 . S
Pr521 O549 2.512 . S
Pr521 O551 2.437 . S
C522 Pr520 2.880 . S
C522 C523 1.491 . S
C522 O540 1.254 . S
C522 O541 1.225 . S
C523 C522 1.491 . S
C523 C524 1.392 . S
C523 C528 1.356 . S
C524 C523 1.392 . S
C524 C525 1.368 . S
C524 H552 0.929 . S
C525 C524 1.368 . S
C525 C526 1.386 . S
C525 H553 0.929 . S
C526 C525 1.386 . S
C526 C527 1.373 . S
C527 C526 1.373 . S
C527 C528 1.409 . S
C527 H554 0.931 . S
C528 C523 1.356 . S
C528 C527 1.409 . S
C528 H555 0.930 . S
C529 O542 1.270 . S
C529 O543 1.248 . S
C530 O544 1.267 . S
C530 O545 1.278 . S
C531 Pr521 2.880 . S
C531 C532 1.491 . S
C531 O546 1.254 . S
C531 O547 1.225 . S
C532 C531 1.491 . S
C532 C533 1.392 . S
C532 C537 1.356 . S
C533 C532 1.392 . S
C533 C534 1.368 . S
C533 H556 0.929 . S
C534 C533 1.368 . S
C534 C535 1.386 . S
C534 H557 0.929 . S
C535 C534 1.386 . S
C535 C536 1.373 . S
C536 C535 1.373 . S
C536 C537 1.409 . S
C536 H558 0.931 . S
C537 C532 1.356 . S
C537 C536 1.409 . S
C537 H559 0.930 . S
C538 O548 1.270 . S
C538 O549 1.248 . S
C539 O550 1.267 . S
C539 O551 1.278 . S
O540 Pr520 2.562 . S
O540 C522 1.254 . S
O541 Pr520 2.490 . S
O541 C522 1.225 . S
O542 Pr520 2.695 . S
O542 Pr521 2.436 . S
O542 C529 1.270 . S
O543 Pr520 2.512 . S
O543 C529 1.248 . S
O544 Pr521 2.438 . S
O544 C530 1.267 . S
O545 Pr520 2.437 . S
O545 C530 1.278 . S
O546 Pr521 2.562 . S
O546 C531 1.254 . S
O547 Pr521 2.490 . S
O547 C531 1.225 . S
O548 Pr520 2.436 . S
O548 Pr521 2.695 . S
O548 C538 1.270 . S
O549 Pr521 2.512 . S
O549 C538 1.248 . S
O550 Pr520 2.438 . S
O550 C539 1.267 . S
O551 Pr521 2.437 . S
O551 C539 1.278 . S
H552 C524 0.929 . S
H553 C525 0.929 . S
H554 C527 0.931 . S
H555 C528 0.930 . S
H556 C533 0.929 . S
H557 C534 0.929 . S
H558 C536 0.931 . S
H559 C537 0.930 . S
Pr560 C562 2.880 . S
Pr560 O580 2.562 . S
Pr560 O581 2.490 . S
Pr560 O582 2.695 . S
Pr560 O583 2.512 . S
Pr560 O585 2.437 . S
Pr560 O588 2.436 . S
Pr560 O590 2.438 . S
Pr561 C571 2.880 . S
Pr561 O582 2.436 . S
Pr561 O584 2.438 . S
Pr561 O586 2.562 . S
Pr561 O587 2.490 . S
Pr561 O588 2.695 . S
Pr561 O589 2.512 . S
Pr561 O591 2.437 . S
C562 Pr560 2.880 . S
C562 C563 1.491 . S
C562 O580 1.254 . S
C562 O581 1.225 . S
C563 C562 1.491 . S
C563 C564 1.392 . S
C563 C568 1.356 . S
C564 C563 1.392 . S
C564 C565 1.368 . S
C564 H592 0.929 . S
C565 C564 1.368 . S
C565 C566 1.386 . S
C565 H593 0.929 . S
C566 C565 1.386 . S
C566 C567 1.373 . S
C567 C566 1.373 . S
C567 C568 1.409 . S
C567 H594 0.931 . S
C568 C563 1.356 . S
C568 C567 1.409 . S
C568 H595 0.930 . S
C569 O582 1.270 . S
C569 O583 1.248 . S
C570 O584 1.267 . S
C570 O585 1.278 . S
C571 Pr561 2.880 . S
C571 C572 1.491 . S
C571 O586 1.254 . S
C571 O587 1.225 . S
C572 C571 1.491 . S
C572 C573 1.392 . S
C572 C577 1.356 . S
C573 C572 1.392 . S
C573 C574 1.368 . S
C573 H596 0.929 . S
C574 C573 1.368 . S
C574 C575 1.386 . S
C574 H597 0.929 . S
C575 C574 1.386 . S
C575 C576 1.373 . S
C576 C575 1.373 . S
C576 C577 1.409 . S
C576 H598 0.931 . S
C577 C572 1.356 . S
C577 C576 1.409 . S
C577 H599 0.930 . S
C578 O588 1.270 . S
C578 O589 1.248 . S
C579 O590 1.267 . S
C579 O591 1.278 . S
O580 Pr560 2.562 . S
O580 C562 1.254 . S
O581 Pr560 2.490 . S
O581 C562 1.225 . S
O582 Pr560 2.695 . S
O582 Pr561 2.436 . S
O582 C569 1.270 . S
O583 Pr560 2.512 . S
O583 C569 1.248 . S
O584 Pr561 2.438 . S
O584 C570 1.267 . S
O585 Pr560 2.437 . S
O585 C570 1.278 . S
O586 Pr561 2.562 . S
O586 C571 1.254 . S
O587 Pr561 2.490 . S
O587 C571 1.225 . S
O588 Pr560 2.436 . S
O588 Pr561 2.695 . S
O588 C578 1.270 . S
O589 Pr561 2.512 . S
O589 C578 1.248 . S
O590 Pr560 2.438 . S
O590 C579 1.267 . S
O591 Pr561 2.437 . S
O591 C579 1.278 . S
H592 C564 0.929 . S
H593 C565 0.929 . S
H594 C567 0.931 . S
H595 C568 0.930 . S
H596 C573 0.929 . S
H597 C574 0.929 . S
H598 C576 0.931 . S
H599 C577 0.930 . S
Pr600 C602 2.880 . S
Pr600 O620 2.562 . S
Pr600 O621 2.490 . S
Pr600 O622 2.695 . S
Pr600 O623 2.512 . S
Pr600 O625 2.437 . S
Pr600 O628 2.436 . S
Pr600 O630 2.438 . S
Pr601 C611 2.880 . S
Pr601 O622 2.436 . S
Pr601 O624 2.438 . S
Pr601 O626 2.562 . S
Pr601 O627 2.490 . S
Pr601 O628 2.695 . S
Pr601 O629 2.512 . S
Pr601 O631 2.437 . S
C602 Pr600 2.880 . S
C602 C603 1.491 . S
C602 O620 1.254 . S
C602 O621 1.225 . S
C603 C602 1.491 . S
C603 C604 1.392 . S
C603 C608 1.356 . S
C604 C603 1.392 . S
C604 C605 1.368 . S
C604 H632 0.929 . S
C605 C604 1.368 . S
C605 C606 1.386 . S
C605 H633 0.929 . S
C606 C605 1.386 . S
C606 C607 1.373 . S
C607 C606 1.373 . S
C607 C608 1.409 . S
C607 H634 0.931 1_655 S
C608 C603 1.356 . S
C608 C607 1.409 . S
C608 H635 0.930 . S
C609 O622 1.270 . S
C609 O623 1.248 . S
C610 O624 1.267 . S
C610 O625 1.278 . S
C611 Pr601 2.880 . S
C611 C612 1.491 . S
C611 O626 1.254 . S
C611 O627 1.225 . S
C612 C611 1.491 . S
C612 C613 1.392 . S
C612 C617 1.356 . S
C613 C612 1.392 . S
C613 C614 1.368 . S
C613 H636 0.929 . S
C614 C613 1.368 . S
C614 C615 1.386 . S
C614 H637 0.929 . S
C615 C614 1.386 . S
C615 C616 1.373 . S
C616 C615 1.373 . S
C616 C617 1.409 . S
C616 H638 0.931 . S
C617 C612 1.356 . S
C617 C616 1.409 . S
C617 H639 0.930 . S
C618 O628 1.270 . S
C618 O629 1.248 . S
C619 O630 1.267 . S
C619 O631 1.278 . S
O620 Pr600 2.562 . S
O620 C602 1.254 . S
O621 Pr600 2.490 . S
O621 C602 1.225 . S
O622 Pr600 2.695 . S
O622 Pr601 2.436 . S
O622 C609 1.270 . S
O623 Pr600 2.512 . S
O623 C609 1.248 . S
O624 Pr601 2.438 . S
O624 C610 1.267 . S
O625 Pr600 2.437 . S
O625 C610 1.278 . S
O626 Pr601 2.562 . S
O626 C611 1.254 . S
O627 Pr601 2.490 . S
O627 C611 1.225 . S
O628 Pr600 2.436 . S
O628 Pr601 2.695 . S
O628 C618 1.270 . S
O629 Pr601 2.512 . S
O629 C618 1.248 . S
O630 Pr600 2.438 . S
O630 C619 1.267 . S
O631 Pr601 2.437 . S
O631 C619 1.278 . S
H632 C604 0.929 . S
H633 C605 0.929 . S
H634 C607 0.931 1_455 S
H635 C608 0.930 . S
H636 C613 0.929 . S
H637 C614 0.929 . S
H638 C616 0.931 . S
H639 C617 0.930 . S
Pr640 C642 2.880 . S
Pr640 O660 2.562 . S
Pr640 O661 2.490 . S
Pr640 O662 2.695 . S
Pr640 O663 2.512 . S
Pr640 O665 2.437 . S
Pr640 O668 2.436 . S
Pr640 O670 2.438 . S
Pr641 C651 2.880 . S
Pr641 O662 2.436 . S
Pr641 O664 2.438 . S
Pr641 O666 2.562 . S
Pr641 O667 2.490 . S
Pr641 O668 2.695 . S
Pr641 O669 2.512 . S
Pr641 O671 2.437 . S
C642 Pr640 2.880 . S
C642 C643 1.491 . S
C642 O660 1.254 . S
C642 O661 1.225 . S
C643 C642 1.491 . S
C643 C644 1.392 . S
C643 C648 1.356 . S
C644 C643 1.392 . S
C644 C645 1.368 . S
C644 H672 0.929 . S
C645 C644 1.368 . S
C645 C646 1.386 . S
C645 H673 0.929 . S
C646 C645 1.386 . S
C646 C647 1.373 . S
C647 C646 1.373 . S
C647 C648 1.409 . S
C647 H674 0.931 . S
C648 C643 1.356 . S
C648 C647 1.409 . S
C648 H675 0.930 . S
C649 O662 1.270 . S
C649 O663 1.248 . S
C650 O664 1.267 . S
C650 O665 1.278 . S
C651 Pr641 2.880 . S
C651 C652 1.491 . S
C651 O666 1.254 . S
C651 O667 1.225 . S
C652 C651 1.491 . S
C652 C653 1.392 . S
C652 C657 1.356 . S
C653 C652 1.392 . S
C653 C654 1.368 . S
C653 H676 0.929 . S
C654 C653 1.368 . S
C654 C655 1.386 . S
C654 H677 0.929 . S
C655 C654 1.386 . S
C655 C656 1.373 . S
C656 C655 1.373 . S
C656 C657 1.409 . S
C656 H678 0.931 . S
C657 C652 1.356 . S
C657 C656 1.409 . S
C657 H679 0.930 . S
C658 O668 1.270 . S
C658 O669 1.248 . S
C659 O670 1.267 . S
C659 O671 1.278 . S
O660 Pr640 2.562 . S
O660 C642 1.254 . S
O661 Pr640 2.490 . S
O661 C642 1.225 . S
O662 Pr640 2.695 . S
O662 Pr641 2.436 . S
O662 C649 1.270 . S
O663 Pr640 2.512 . S
O663 C649 1.248 . S
O664 Pr641 2.438 . S
O664 C650 1.267 . S
O665 Pr640 2.437 . S
O665 C650 1.278 . S
O666 Pr641 2.562 . S
O666 C651 1.254 . S
O667 Pr641 2.490 . S
O667 C651 1.225 . S
O668 Pr640 2.436 . S
O668 Pr641 2.695 . S
O668 C658 1.270 . S
O669 Pr641 2.512 . S
O669 C658 1.248 . S
O670 Pr640 2.438 . S
O670 C659 1.267 . S
O671 Pr641 2.437 . S
O671 C659 1.278 . S
H672 C644 0.929 . S
H673 C645 0.929 . S
H674 C647 0.931 . S
H675 C648 0.930 . S
H676 C653 0.929 . S
H677 C654 0.929 . S
H678 C656 0.931 . S
H679 C657 0.930 . S
Pr680 C682 2.880 . S
Pr680 O700 2.562 . S
Pr680 O701 2.490 . S
Pr680 O702 2.695 . S
Pr680 O703 2.512 . S
Pr680 O705 2.437 . S
Pr680 O708 2.436 . S
Pr680 O710 2.438 . S
Pr681 C691 2.880 . S
Pr681 O702 2.436 . S
Pr681 O704 2.438 . S
Pr681 O706 2.562 . S
Pr681 O707 2.490 . S
Pr681 O708 2.695 . S
Pr681 O709 2.512 . S
Pr681 O711 2.437 . S
C682 Pr680 2.880 . S
C682 C683 1.491 . S
C682 O700 1.254 . S
C682 O701 1.225 . S
C683 C682 1.491 . S
C683 C684 1.392 . S
C683 C688 1.356 . S
C684 C683 1.392 . S
C684 C685 1.368 . S
C684 H712 0.929 . S
C685 C684 1.368 . S
C685 C686 1.386 . S
C685 H713 0.929 . S
C686 C685 1.386 . S
C686 C687 1.373 . S
C687 C686 1.373 . S
C687 C688 1.409 . S
C687 H714 0.931 1_545 S
C688 C683 1.356 . S
C688 C687 1.409 . S
C688 H715 0.930 . S
C689 O702 1.270 . S
C689 O703 1.248 . S
C690 O704 1.267 . S
C690 O705 1.278 . S
C691 Pr681 2.880 . S
C691 C692 1.491 . S
C691 O706 1.254 . S
C691 O707 1.225 . S
C692 C691 1.491 . S
C692 C693 1.392 . S
C692 C697 1.356 . S
C693 C692 1.392 . S
C693 C694 1.368 . S
C693 H716 0.929 . S
C694 C693 1.368 . S
C694 C695 1.386 . S
C694 H717 0.929 . S
C695 C694 1.386 . S
C695 C696 1.373 . S
C696 C695 1.373 . S
C696 C697 1.409 . S
C696 H718 0.931 . S
C697 C692 1.356 . S
C697 C696 1.409 . S
C697 H719 0.930 . S
C698 O708 1.270 . S
C698 O709 1.248 . S
C699 O710 1.267 . S
C699 O711 1.278 . S
O700 Pr680 2.562 . S
O700 C682 1.254 . S
O701 Pr680 2.490 . S
O701 C682 1.225 . S
O702 Pr680 2.695 . S
O702 Pr681 2.436 . S
O702 C689 1.270 . S
O703 Pr680 2.512 . S
O703 C689 1.248 . S
O704 Pr681 2.438 . S
O704 C690 1.267 . S
O705 Pr680 2.437 . S
O705 C690 1.278 . S
O706 Pr681 2.562 . S
O706 C691 1.254 . S
O707 Pr681 2.490 . S
O707 C691 1.225 . S
O708 Pr680 2.436 . S
O708 Pr681 2.695 . S
O708 C698 1.270 . S
O709 Pr681 2.512 . S
O709 C698 1.248 . S
O710 Pr680 2.438 . S
O710 C699 1.267 . S
O711 Pr681 2.437 . S
O711 C699 1.278 . S
H712 C684 0.929 . S
H713 C685 0.929 . S
H714 C687 0.931 1_565 S
H715 C688 0.930 . S
H716 C693 0.929 . S
H717 C694 0.929 . S
H718 C696 0.931 . S
H719 C697 0.930 . S
Pr720 C722 2.880 . S
Pr720 O740 2.562 . S
Pr720 O741 2.490 . S
Pr720 O742 2.695 . S
Pr720 O743 2.512 . S
Pr720 O745 2.437 . S
Pr720 O748 2.436 . S
Pr720 O750 2.438 . S
Pr721 C731 2.880 . S
Pr721 O742 2.436 . S
Pr721 O744 2.438 . S
Pr721 O746 2.562 . S
Pr721 O747 2.490 . S
Pr721 O748 2.695 . S
Pr721 O749 2.512 . S
Pr721 O751 2.437 . S
C722 Pr720 2.880 . S
C722 C723 1.491 . S
C722 O740 1.254 . S
C722 O741 1.225 . S
C723 C722 1.491 . S
C723 C724 1.392 . S
C723 C728 1.356 . S
C724 C723 1.392 . S
C724 C725 1.368 . S
C724 H752 0.929 . S
C725 C724 1.368 . S
C725 C726 1.386 . S
C725 H753 0.929 . S
C726 C725 1.386 . S
C726 C727 1.373 . S
C727 C726 1.373 . S
C727 C728 1.409 . S
C727 H754 0.931 . S
C728 C723 1.356 . S
C728 C727 1.409 . S
C728 H755 0.930 . S
C729 O742 1.270 . S
C729 O743 1.248 . S
C730 O744 1.267 . S
C730 O745 1.278 . S
C731 Pr721 2.880 . S
C731 C732 1.491 . S
C731 O746 1.254 . S
C731 O747 1.225 . S
C732 C731 1.491 . S
C732 C733 1.392 . S
C732 C737 1.356 . S
C733 C732 1.392 . S
C733 C734 1.368 . S
C733 H756 0.929 . S
C734 C733 1.368 . S
C734 C735 1.386 . S
C734 H757 0.929 . S
C735 C734 1.386 . S
C735 C736 1.373 . S
C736 C735 1.373 . S
C736 C737 1.409 . S
C736 H758 0.931 1_545 S
C737 C732 1.356 . S
C737 C736 1.409 . S
C737 H759 0.930 . S
C738 O748 1.270 . S
C738 O749 1.248 . S
C739 O750 1.267 . S
C739 O751 1.278 . S
O740 Pr720 2.562 . S
O740 C722 1.254 . S
O741 Pr720 2.490 . S
O741 C722 1.225 . S
O742 Pr720 2.695 . S
O742 Pr721 2.436 . S
O742 C729 1.270 . S
O743 Pr720 2.512 . S
O743 C729 1.248 . S
O744 Pr721 2.438 . S
O744 C730 1.267 . S
O745 Pr720 2.437 . S
O745 C730 1.278 . S
O746 Pr721 2.562 . S
O746 C731 1.254 . S
O747 Pr721 2.490 . S
O747 C731 1.225 . S
O748 Pr720 2.436 . S
O748 Pr721 2.695 . S
O748 C738 1.270 . S
O749 Pr721 2.512 . S
O749 C738 1.248 . S
O750 Pr720 2.438 . S
O750 C739 1.267 . S
O751 Pr721 2.437 . S
O751 C739 1.278 . S
H752 C724 0.929 . S
H753 C725 0.929 . S
H754 C727 0.931 . S
H755 C728 0.930 . S
H756 C733 0.929 . S
H757 C734 0.929 . S
H758 C736 0.931 1_565 S
H759 C737 0.930 . S
Pr760 C762 2.880 . S
Pr760 O780 2.562 . S
Pr760 O781 2.490 . S
Pr760 O782 2.695 . S
Pr760 O783 2.512 . S
Pr760 O785 2.437 . S
Pr760 O788 2.436 . S
Pr760 O790 2.438 . S
Pr761 C771 2.880 . S
Pr761 O782 2.436 . S
Pr761 O784 2.438 . S
Pr761 O786 2.562 . S
Pr761 O787 2.490 . S
Pr761 O788 2.695 . S
Pr761 O789 2.512 . S
Pr761 O791 2.437 . S
C762 Pr760 2.880 . S
C762 C763 1.491 . S
C762 O780 1.254 . S
C762 O781 1.225 . S
C763 C762 1.491 . S
C763 C764 1.392 . S
C763 C768 1.356 . S
C764 C763 1.392 . S
C764 C765 1.368 . S
C764 H792 0.929 . S
C765 C764 1.368 . S
C765 C766 1.386 . S
C765 H793 0.929 . S
C766 C765 1.386 . S
C766 C767 1.373 . S
C767 C766 1.373 . S
C767 C768 1.409 . S
C767 H794 0.931 . S
C768 C763 1.356 . S
C768 C767 1.409 . S
C768 H795 0.930 . S
C769 O782 1.270 . S
C769 O783 1.248 . S
C770 O784 1.267 . S
C770 O785 1.278 . S
C771 Pr761 2.880 . S
C771 C772 1.491 . S
C771 O786 1.254 . S
C771 O787 1.225 . S
C772 C771 1.491 . S
C772 C773 1.392 . S
C772 C777 1.356 . S
C773 C772 1.392 . S
C773 C774 1.368 . S
C773 H796 0.929 . S
C774 C773 1.368 . S
C774 C775 1.386 . S
C774 H797 0.929 . S
C775 C774 1.386 . S
C775 C776 1.373 . S
C776 C775 1.373 . S
C776 C777 1.409 . S
C776 H798 0.931 1_655 S
C777 C772 1.356 . S
C777 C776 1.409 . S
C777 H799 0.930 . S
C778 O788 1.270 . S
C778 O789 1.248 . S
C779 O790 1.267 . S
C779 O791 1.278 . S
O780 Pr760 2.562 . S
O780 C762 1.254 . S
O781 Pr760 2.490 . S
O781 C762 1.225 . S
O782 Pr760 2.695 . S
O782 Pr761 2.436 . S
O782 C769 1.270 . S
O783 Pr760 2.512 . S
O783 C769 1.248 . S
O784 Pr761 2.438 . S
O784 C770 1.267 . S
O785 Pr760 2.437 . S
O785 C770 1.278 . S
O786 Pr761 2.562 . S
O786 C771 1.254 . S
O787 Pr761 2.490 . S
O787 C771 1.225 . S
O788 Pr760 2.436 . S
O788 Pr761 2.695 . S
O788 C778 1.270 . S
O789 Pr761 2.512 . S
O789 C778 1.248 . S
O790 Pr760 2.438 . S
O790 C779 1.267 . S
O791 Pr761 2.437 . S
O791 C779 1.278 . S
H792 C764 0.929 . S
H793 C765 0.929 . S
H794 C767 0.931 . S
H795 C768 0.930 . S
H796 C773 0.929 . S
H797 C774 0.929 . S
H798 C776 0.931 1_455 S
H799 C777 0.930 . S
Pr800 C802 2.880 . S
Pr800 O820 2.562 . S
Pr800 O821 2.490 . S
Pr800 O822 2.695 . S
Pr800 O823 2.512 . S
Pr800 O825 2.437 . S
Pr800 O828 2.436 . S
Pr800 O830 2.438 . S
Pr801 C811 2.880 . S
Pr801 O822 2.436 . S
Pr801 O824 2.438 . S
Pr801 O826 2.562 . S
Pr801 O827 2.490 . S
Pr801 O828 2.695 . S
Pr801 O829 2.512 . S
Pr801 O831 2.437 . S
C802 Pr800 2.880 . S
C802 C803 1.491 . S
C802 O820 1.254 . S
C802 O821 1.225 . S
C803 C802 1.491 . S
C803 C804 1.392 . S
C803 C808 1.356 . S
C804 C803 1.392 . S
C804 C805 1.368 . S
C804 H832 0.929 . S
C805 C804 1.368 . S
C805 C806 1.386 . S
C805 H833 0.929 . S
C806 C805 1.386 . S
C806 C807 1.373 . S
C807 C806 1.373 . S
C807 C808 1.409 . S
C807 H834 0.931 . S
C808 C803 1.356 . S
C808 C807 1.409 . S
C808 H835 0.930 . S
C809 O822 1.270 . S
C809 O823 1.248 . S
C810 O824 1.267 . S
C810 O825 1.278 . S
C811 Pr801 2.880 . S
C811 C812 1.491 . S
C811 O826 1.254 . S
C811 O827 1.225 . S
C812 C811 1.491 . S
C812 C813 1.392 . S
C812 C817 1.356 . S
C813 C812 1.392 . S
C813 C814 1.368 . S
C813 H836 0.929 . S
C814 C813 1.368 . S
C814 C815 1.386 . S
C814 H837 0.929 . S
C815 C814 1.386 . S
C815 C816 1.373 . S
C816 C815 1.373 . S
C816 C817 1.409 . S
C816 H838 0.931 . S
C817 C812 1.356 . S
C817 C816 1.409 . S
C817 H839 0.930 . S
C818 O828 1.270 . S
C818 O829 1.248 . S
C819 O830 1.267 . S
C819 O831 1.278 . S
O820 Pr800 2.562 . S
O820 C802 1.254 . S
O821 Pr800 2.490 . S
O821 C802 1.225 . S
O822 Pr800 2.695 . S
O822 Pr801 2.436 . S
O822 C809 1.270 . S
O823 Pr800 2.512 . S
O823 C809 1.248 . S
O824 Pr801 2.438 . S
O824 C810 1.267 . S
O825 Pr800 2.437 . S
O825 C810 1.278 . S
O826 Pr801 2.562 . S
O826 C811 1.254 . S
O827 Pr801 2.490 . S
O827 C811 1.225 . S
O828 Pr800 2.436 . S
O828 Pr801 2.695 . S
O828 C818 1.270 . S
O829 Pr801 2.512 . S
O829 C818 1.248 . S
O830 Pr800 2.438 . S
O830 C819 1.267 . S
O831 Pr801 2.437 . S
O831 C819 1.278 . S
H832 C804 0.929 . S
H833 C805 0.929 . S
H834 C807 0.931 . S
H835 C808 0.930 . S
H836 C813 0.929 . S
H837 C814 0.929 . S
H838 C816 0.931 . S
H839 C817 0.930 . S
Pr840 C842 2.880 . S
Pr840 O860 2.562 . S
Pr840 O861 2.490 . S
Pr840 O862 2.695 1_554 S
Pr840 O863 2.512 . S
Pr840 O865 2.437 . S
Pr840 O868 2.436 . S
Pr840 O870 2.438 . S
Pr841 C851 2.880 . S
Pr841 O862 2.436 . S
Pr841 O864 2.438 . S
Pr841 O866 2.562 . S
Pr841 O867 2.490 . S
Pr841 O868 2.695 1_556 S
Pr841 O869 2.512 . S
Pr841 O871 2.437 . S
C842 Pr840 2.880 . S
C842 C843 1.491 . S
C842 O860 1.254 . S
C842 O861 1.225 . S
C843 C842 1.491 . S
C843 C844 1.392 . S
C843 C848 1.356 . S
C844 C843 1.392 . S
C844 C845 1.368 . S
C844 H872 0.929 . S
C845 C844 1.368 . S
C845 C846 1.386 . S
C845 H873 0.929 . S
C846 C845 1.386 . S
C846 C847 1.373 . S
C847 C846 1.373 . S
C847 C848 1.409 . S
C847 H874 0.931 . S
C848 C843 1.356 . S
C848 C847 1.409 . S
C848 H875 0.930 . S
C849 O862 1.270 1_554 S
C849 O863 1.248 . S
C850 O864 1.267 1_554 S
C850 O865 1.278 . S
C851 Pr841 2.880 . S
C851 C852 1.491 . S
C851 O866 1.254 . S
C851 O867 1.225 . S
C852 C851 1.491 . S
C852 C853 1.392 . S
C852 C857 1.356 . S
C853 C852 1.392 . S
C853 C854 1.368 . S
C853 H876 0.929 . S
C854 C853 1.368 . S
C854 C855 1.386 . S
C854 H877 0.929 . S
C855 C854 1.386 . S
C855 C856 1.373 . S
C856 C855 1.373 . S
C856 C857 1.409 . S
C856 H878 0.931 . S
C857 C852 1.356 . S
C857 C856 1.409 . S
C857 H879 0.930 . S
C858 O868 1.270 1_556 S
C858 O869 1.248 . S
C859 O870 1.267 1_556 S
C859 O871 1.278 . S
O860 Pr840 2.562 . S
O860 C842 1.254 . S
O861 Pr840 2.490 . S
O861 C842 1.225 . S
O862 Pr840 2.695 1_556 S
O862 Pr841 2.436 . S
O862 C849 1.270 1_556 S
O863 Pr840 2.512 . S
O863 C849 1.248 . S
O864 Pr841 2.438 . S
O864 C850 1.267 1_556 S
O865 Pr840 2.437 . S
O865 C850 1.278 . S
O866 Pr841 2.562 . S
O866 C851 1.254 . S
O867 Pr841 2.490 . S
O867 C851 1.225 . S
O868 Pr840 2.436 . S
O868 Pr841 2.695 1_554 S
O868 C858 1.270 1_554 S
O869 Pr841 2.512 . S
O869 C858 1.248 . S
O870 Pr840 2.438 . S
O870 C859 1.267 1_554 S
O871 Pr841 2.437 . S
O871 C859 1.278 . S
H872 C844 0.929 . S
H873 C845 0.929 . S
H874 C847 0.931 . S
H875 C848 0.930 . S
H876 C853 0.929 . S
H877 C854 0.929 . S
H878 C856 0.931 . S
H879 C857 0.930 . S
Pr880 C882 2.880 . S
Pr880 O900 2.562 . S
Pr880 O901 2.490 . S
Pr880 O902 2.695 1_554 S
Pr880 O903 2.512 . S
Pr880 O905 2.437 . S
Pr880 O908 2.436 . S
Pr880 O910 2.438 . S
Pr881 C891 2.880 . S
Pr881 O902 2.436 . S
Pr881 O904 2.438 . S
Pr881 O906 2.562 . S
Pr881 O907 2.490 . S
Pr881 O908 2.695 1_556 S
Pr881 O909 2.512 . S
Pr881 O911 2.437 . S
C882 Pr880 2.880 . S
C882 C883 1.491 . S
C882 O900 1.254 . S
C882 O901 1.225 . S
C883 C882 1.491 . S
C883 C884 1.392 . S
C883 C888 1.356 . S
C884 C883 1.392 . S
C884 C885 1.368 . S
C884 H912 0.929 . S
C885 C884 1.368 . S
C885 C886 1.386 . S
C885 H913 0.929 . S
C886 C885 1.386 . S
C886 C887 1.373 . S
C887 C886 1.373 . S
C887 C888 1.409 . S
C887 H914 0.931 . S
C888 C883 1.356 . S
C888 C887 1.409 . S
C888 H915 0.930 . S
C889 O902 1.270 1_554 S
C889 O903 1.248 . S
C890 O904 1.267 1_554 S
C890 O905 1.278 . S
C891 Pr881 2.880 . S
C891 C892 1.491 . S
C891 O906 1.254 . S
C891 O907 1.225 . S
C892 C891 1.491 . S
C892 C893 1.392 . S
C892 C897 1.356 . S
C893 C892 1.392 . S
C893 C894 1.368 . S
C893 H916 0.929 . S
C894 C893 1.368 . S
C894 C895 1.386 . S
C894 H917 0.929 . S
C895 C894 1.386 . S
C895 C896 1.373 . S
C896 C895 1.373 . S
C896 C897 1.409 . S
C896 H918 0.931 . S
C897 C892 1.356 . S
C897 C896 1.409 . S
C897 H919 0.930 . S
C898 O908 1.270 1_556 S
C898 O909 1.248 . S
C899 O910 1.267 1_556 S
C899 O911 1.278 . S
O900 Pr880 2.562 . S
O900 C882 1.254 . S
O901 Pr880 2.490 . S
O901 C882 1.225 . S
O902 Pr880 2.695 1_556 S
O902 Pr881 2.436 . S
O902 C889 1.270 1_556 S
O903 Pr880 2.512 . S
O903 C889 1.248 . S
O904 Pr881 2.438 . S
O904 C890 1.267 1_556 S
O905 Pr880 2.437 . S
O905 C890 1.278 . S
O906 Pr881 2.562 . S
O906 C891 1.254 . S
O907 Pr881 2.490 . S
O907 C891 1.225 . S
O908 Pr880 2.436 . S
O908 Pr881 2.695 1_554 S
O908 C898 1.270 1_554 S
O909 Pr881 2.512 . S
O909 C898 1.248 . S
O910 Pr880 2.438 . S
O910 C899 1.267 1_554 S
O911 Pr881 2.437 . S
O911 C899 1.278 . S
H912 C884 0.929 . S
H913 C885 0.929 . S
H914 C887 0.931 . S
H915 C888 0.930 . S
H916 C893 0.929 . S
H917 C894 0.929 . S
H918 C896 0.931 . S
H919 C897 0.930 . S
Pr920 C922 2.880 . S
Pr920 O940 2.562 . S
Pr920 O941 2.490 . S
Pr920 O942 2.695 1_554 S
Pr920 O943 2.512 . S
Pr920 O945 2.437 . S
Pr920 O948 2.436 . S
Pr920 O950 2.438 . S
Pr921 C931 2.880 . S
Pr921 O942 2.436 . S
Pr921 O944 2.438 . S
Pr921 O946 2.562 . S
Pr921 O947 2.490 . S
Pr921 O948 2.695 1_556 S
Pr921 O949 2.512 . S
Pr921 O951 2.437 . S
C922 Pr920 2.880 . S
C922 C923 1.491 . S
C922 O940 1.254 . S
C922 O941 1.225 . S
C923 C922 1.491 . S
C923 C924 1.392 . S
C923 C928 1.356 . S
C924 C923 1.392 . S
C924 C925 1.368 . S
C924 H952 0.929 . S
C925 C924 1.368 . S
C925 C926 1.386 . S
C925 H953 0.929 . S
C926 C925 1.386 . S
C926 C927 1.373 . S
C927 C926 1.373 . S
C927 C928 1.409 . S
C927 H954 0.931 . S
C928 C923 1.356 . S
C928 C927 1.409 . S
C928 H955 0.930 . S
C929 O942 1.270 1_554 S
C929 O943 1.248 . S
C930 O944 1.267 1_554 S
C930 O945 1.278 . S
C931 Pr921 2.880 . S
C931 C932 1.491 . S
C931 O946 1.254 . S
C931 O947 1.225 . S
C932 C931 1.491 . S
C932 C933 1.392 . S
C932 C937 1.356 . S
C933 C932 1.392 . S
C933 C934 1.368 . S
C933 H956 0.929 . S
C934 C933 1.368 . S
C934 C935 1.386 . S
C934 H957 0.929 . S
C935 C934 1.386 . S
C935 C936 1.373 . S
C936 C935 1.373 . S
C936 C937 1.409 . S
C936 H958 0.931 . S
C937 C932 1.356 . S
C937 C936 1.409 . S
C937 H959 0.930 . S
C938 O948 1.270 1_556 S
C938 O949 1.248 . S
C939 O950 1.267 1_556 S
C939 O951 1.278 . S
O940 Pr920 2.562 . S
O940 C922 1.254 . S
O941 Pr920 2.490 . S
O941 C922 1.225 . S
O942 Pr920 2.695 1_556 S
O942 Pr921 2.436 . S
O942 C929 1.270 1_556 S
O943 Pr920 2.512 . S
O943 C929 1.248 . S
O944 Pr921 2.438 . S
O944 C930 1.267 1_556 S
O945 Pr920 2.437 . S
O945 C930 1.278 . S
O946 Pr921 2.562 . S
O946 C931 1.254 . S
O947 Pr921 2.490 . S
O947 C931 1.225 . S
O948 Pr920 2.436 . S
O948 Pr921 2.695 1_554 S
O948 C938 1.270 1_554 S
O949 Pr921 2.512 . S
O949 C938 1.248 . S
O950 Pr920 2.438 . S
O950 C939 1.267 1_554 S
O951 Pr921 2.437 . S
O951 C939 1.278 . S
H952 C924 0.929 . S
H953 C925 0.929 . S
H954 C927 0.931 . S
H955 C928 0.930 . S
H956 C933 0.929 . S
H957 C934 0.929 . S
H958 C936 0.931 . S
H959 C937 0.930 . S
Pr960 C962 2.880 . S
Pr960 O980 2.562 . S
Pr960 O981 2.490 . S
Pr960 O982 2.695 . S
Pr960 O983 2.512 . S
Pr960 O985 2.437 . S
Pr960 O988 2.436 . S
Pr960 O990 2.438 . S
Pr961 C971 2.880 . S
Pr961 O982 2.436 . S
Pr961 O984 2.438 . S
Pr961 O986 2.562 . S
Pr961 O987 2.490 . S
Pr961 O988 2.695 . S
Pr961 O989 2.512 . S
Pr961 O991 2.437 . S
C962 Pr960 2.880 . S
C962 C963 1.491 . S
C962 O980 1.254 . S
C962 O981 1.225 . S
C963 C962 1.491 . S
C963 C964 1.392 . S
C963 C968 1.356 . S
C964 C963 1.392 . S
C964 C965 1.368 . S
C964 H992 0.929 . S
C965 C964 1.368 . S
C965 C966 1.386 . S
C965 H993 0.929 . S
C966 C965 1.386 . S
C966 C967 1.373 . S
C967 C966 1.373 . S
C967 C968 1.409 . S
C967 H994 0.931 1_565 S
C968 C963 1.356 . S
C968 C967 1.409 . S
C968 H995 0.930 . S
C969 O982 1.270 . S
C969 O983 1.248 . S
C970 O984 1.267 . S
C970 O985 1.278 . S
C971 Pr961 2.880 . S
C971 C972 1.491 . S
C971 O986 1.254 . S
C971 O987 1.225 . S
C972 C971 1.491 . S
C972 C973 1.392 . S
C972 C977 1.356 . S
C973 C972 1.392 . S
C973 C974 1.368 . S
C973 H996 0.929 . S
C974 C973 1.368 . S
C974 C975 1.386 . S
C974 H997 0.929 . S
C975 C974 1.386 . S
C975 C976 1.373 . S
C976 C975 1.373 . S
C976 C977 1.409 . S
C976 H998 0.931 . S
C977 C972 1.356 . S
C977 C976 1.409 . S
C977 H999 0.930 . S
C978 O988 1.270 . S
C978 O989 1.248 . S
C979 O990 1.267 . S
C979 O991 1.278 . S
O980 Pr960 2.562 . S
O980 C962 1.254 . S
O981 Pr960 2.490 . S
O981 C962 1.225 . S
O982 Pr960 2.695 . S
O982 Pr961 2.436 . S
O982 C969 1.270 . S
O983 Pr960 2.512 . S
O983 C969 1.248 . S
O984 Pr961 2.438 . S
O984 C970 1.267 . S
O985 Pr960 2.437 . S
O985 C970 1.278 . S
O986 Pr961 2.562 . S
O986 C971 1.254 . S
O987 Pr961 2.490 . S
O987 C971 1.225 . S
O988 Pr960 2.436 . S
O988 Pr961 2.695 . S
O988 C978 1.270 . S
O989 Pr961 2.512 . S
O989 C978 1.248 . S
O990 Pr960 2.438 . S
O990 C979 1.267 . S
O991 Pr961 2.437 . S
O991 C979 1.278 . S
H992 C964 0.929 . S
H993 C965 0.929 . S
H994 C967 0.931 1_545 S
H995 C968 0.930 . S
H996 C973 0.929 . S
H997 C974 0.929 . S
H998 C976 0.931 . S
H999 C977 0.930 . S
Pr1000 C1002 2.880 . S
Pr1000 O1020 2.562 . S
Pr1000 O1021 2.490 . S
Pr1000 O1022 2.695 . S
Pr1000 O1023 2.512 . S
Pr1000 O1025 2.437 . S
Pr1000 O1028 2.436 . S
Pr1000 O1030 2.438 . S
Pr1001 C1011 2.880 . S
Pr1001 O1022 2.436 . S
Pr1001 O1024 2.438 . S
Pr1001 O1026 2.562 . S
Pr1001 O1027 2.490 . S
Pr1001 O1028 2.695 . S
Pr1001 O1029 2.512 . S
Pr1001 O1031 2.437 . S
C1002 Pr1000 2.880 . S
C1002 C1003 1.491 . S
C1002 O1020 1.254 . S
C1002 O1021 1.225 . S
C1003 C1002 1.491 . S
C1003 C1004 1.392 . S
C1003 C1008 1.356 . S
C1004 C1003 1.392 . S
C1004 C1005 1.368 . S
C1004 H1032 0.929 . S
C1005 C1004 1.368 . S
C1005 C1006 1.386 . S
C1005 H1033 0.929 . S
C1006 C1005 1.386 . S
C1006 C1007 1.373 . S
C1007 C1006 1.373 . S
C1007 C1008 1.409 . S
C1007 H1034 0.931 1_455 S
C1008 C1003 1.356 . S
C1008 C1007 1.409 . S
C1008 H1035 0.930 . S
C1009 O1022 1.270 . S
C1009 O1023 1.248 . S
C1010 O1024 1.267 . S
C1010 O1025 1.278 . S
C1011 Pr1001 2.880 . S
C1011 C1012 1.491 . S
C1011 O1026 1.254 . S
C1011 O1027 1.225 . S
C1012 C1011 1.491 . S
C1012 C1013 1.392 . S
C1012 C1017 1.356 . S
C1013 C1012 1.392 . S
C1013 C1014 1.368 . S
C1013 H1036 0.929 . S
C1014 C1013 1.368 . S
C1014 C1015 1.386 . S
C1014 H1037 0.929 . S
C1015 C1014 1.386 . S
C1015 C1016 1.373 . S
C1016 C1015 1.373 . S
C1016 C1017 1.409 . S
C1016 H1038 0.931 . S
C1017 C1012 1.356 . S
C1017 C1016 1.409 . S
C1017 H1039 0.930 . S
C1018 O1028 1.270 . S
C1018 O1029 1.248 . S
C1019 O1030 1.267 . S
C1019 O1031 1.278 . S
O1020 Pr1000 2.562 . S
O1020 C1002 1.254 . S
O1021 Pr1000 2.490 . S
O1021 C1002 1.225 . S
O1022 Pr1000 2.695 . S
O1022 Pr1001 2.436 . S
O1022 C1009 1.270 . S
O1023 Pr1000 2.512 . S
O1023 C1009 1.248 . S
O1024 Pr1001 2.438 . S
O1024 C1010 1.267 . S
O1025 Pr1000 2.437 . S
O1025 C1010 1.278 . S
O1026 Pr1001 2.562 . S
O1026 C1011 1.254 . S
O1027 Pr1001 2.490 . S
O1027 C1011 1.225 . S
O1028 Pr1000 2.436 . S
O1028 Pr1001 2.695 . S
O1028 C1018 1.270 . S
O1029 Pr1001 2.512 . S
O1029 C1018 1.248 . S
O1030 Pr1000 2.438 . S
O1030 C1019 1.267 . S
O1031 Pr1001 2.437 . S
O1031 C1019 1.278 . S
H1032 C1004 0.929 . S
H1033 C1005 0.929 . S
H1034 C1007 0.931 1_655 S
H1035 C1008 0.930 . S
H1036 C1013 0.929 . S
H1037 C1014 0.929 . S
H1038 C1016 0.931 . S
H1039 C1017 0.930 . S
Pr1040 C1042 2.880 . S
Pr1040 O1060 2.562 . S
Pr1040 O1061 2.490 . S
Pr1040 O1062 2.695 . S
Pr1040 O1063 2.512 . S
Pr1040 O1065 2.437 . S
Pr1040 O1068 2.436 . S
Pr1040 O1070 2.438 . S
Pr1041 C1051 2.880 . S
Pr1041 O1062 2.436 . S
Pr1041 O1064 2.438 . S
Pr1041 O1066 2.562 . S
Pr1041 O1067 2.490 . S
Pr1041 O1068 2.695 . S
Pr1041 O1069 2.512 . S
Pr1041 O1071 2.437 . S
C1042 Pr1040 2.880 . S
C1042 C1043 1.491 . S
C1042 O1060 1.254 . S
C1042 O1061 1.225 . S
C1043 C1042 1.491 . S
C1043 C1044 1.392 . S
C1043 C1048 1.356 . S
C1044 C1043 1.392 . S
C1044 C1045 1.368 . S
C1044 H1072 0.929 . S
C1045 C1044 1.368 . S
C1045 C1046 1.386 . S
C1045 H1073 0.929 . S
C1046 C1045 1.386 . S
C1046 C1047 1.373 . S
C1047 C1046 1.373 . S
C1047 C1048 1.409 . S
C1047 H1074 0.931 . S
C1048 C1043 1.356 . S
C1048 C1047 1.409 . S
C1048 H1075 0.930 . S
C1049 O1062 1.270 . S
C1049 O1063 1.248 . S
C1050 O1064 1.267 . S
C1050 O1065 1.278 . S
C1051 Pr1041 2.880 . S
C1051 C1052 1.491 . S
C1051 O1066 1.254 . S
C1051 O1067 1.225 . S
C1052 C1051 1.491 . S
C1052 C1053 1.392 . S
C1052 C1057 1.356 . S
C1053 C1052 1.392 . S
C1053 C1054 1.368 . S
C1053 H1076 0.929 . S
C1054 C1053 1.368 . S
C1054 C1055 1.386 . S
C1054 H1077 0.929 . S
C1055 C1054 1.386 . S
C1055 C1056 1.373 . S
C1056 C1055 1.373 . S
C1056 C1057 1.409 . S
C1056 H1078 0.931 . S
C1057 C1052 1.356 . S
C1057 C1056 1.409 . S
C1057 H1079 0.930 . S
C1058 O1068 1.270 . S
C1058 O1069 1.248 . S
C1059 O1070 1.267 . S
C1059 O1071 1.278 . S
O1060 Pr1040 2.562 . S
O1060 C1042 1.254 . S
O1061 Pr1040 2.490 . S
O1061 C1042 1.225 . S
O1062 Pr1040 2.695 . S
O1062 Pr1041 2.436 . S
O1062 C1049 1.270 . S
O1063 Pr1040 2.512 . S
O1063 C1049 1.248 . S
O1064 Pr1041 2.438 . S
O1064 C1050 1.267 . S
O1065 Pr1040 2.437 . S
O1065 C1050 1.278 . S
O1066 Pr1041 2.562 . S
O1066 C1051 1.254 . S
O1067 Pr1041 2.490 . S
O1067 C1051 1.225 . S
O1068 Pr1040 2.436 . S
O1068 Pr1041 2.695 . S
O1068 C1058 1.270 . S
O1069 Pr1041 2.512 . S
O1069 C1058 1.248 . S
O1070 Pr1040 2.438 . S
O1070 C1059 1.267 . S
O1071 Pr1041 2.437 . S
O1071 C1059 1.278 . S
H1072 C1044 0.929 . S
H1073 C1045 0.929 . S
H1074 C1047 0.931 . S
H1075 C1048 0.930 . S
H1076 C1053 0.929 . S
H1077 C1054 0.929 . S
H1078 C1056 0.931 . S
H1079 C1057 0.930 . S
Pr1080 C1082 2.880 . S
Pr1080 O1100 2.562 . S
Pr1080 O1101 2.490 . S
Pr1080 O1102 2.695 1_554 S
Pr1080 O1103 2.512 . S
Pr1080 O1105 2.437 . S
Pr1080 O1108 2.436 . S
Pr1080 O1110 2.438 . S
Pr1081 C1091 2.880 . S
Pr1081 O1102 2.436 . S
Pr1081 O1104 2.438 . S
Pr1081 O1106 2.562 . S
Pr1081 O1107 2.490 . S
Pr1081 O1108 2.695 1_556 S
Pr1081 O1109 2.512 . S
Pr1081 O1111 2.437 . S
C1082 Pr1080 2.880 . S
C1082 C1083 1.491 . S
C1082 O1100 1.254 . S
C1082 O1101 1.225 . S
C1083 C1082 1.491 . S
C1083 C1084 1.392 . S
C1083 C1088 1.356 . S
C1084 C1083 1.392 . S
C1084 C1085 1.368 . S
C1084 H1112 0.929 . S
C1085 C1084 1.368 . S
C1085 C1086 1.386 . S
C1085 H1113 0.929 . S
C1086 C1085 1.386 . S
C1086 C1087 1.373 . S
C1087 C1086 1.373 . S
C1087 C1088 1.409 . S
C1087 H1114 0.931 . S
C1088 C1083 1.356 . S
C1088 C1087 1.409 . S
C1088 H1115 0.930 . S
C1089 O1102 1.270 1_554 S
C1089 O1103 1.248 . S
C1090 O1104 1.267 1_554 S
C1090 O1105 1.278 . S
C1091 Pr1081 2.880 . S
C1091 C1092 1.491 . S
C1091 O1106 1.254 . S
C1091 O1107 1.225 . S
C1092 C1091 1.491 . S
C1092 C1093 1.392 . S
C1092 C1097 1.356 . S
C1093 C1092 1.392 . S
C1093 C1094 1.368 . S
C1093 H1116 0.929 . S
C1094 C1093 1.368 . S
C1094 C1095 1.386 . S
C1094 H1117 0.929 . S
C1095 C1094 1.386 . S
C1095 C1096 1.373 . S
C1096 C1095 1.373 . S
C1096 C1097 1.409 . S
C1096 H1118 0.931 . S
C1097 C1092 1.356 . S
C1097 C1096 1.409 . S
C1097 H1119 0.930 . S
C1098 O1108 1.270 1_556 S
C1098 O1109 1.248 . S
C1099 O1110 1.267 1_556 S
C1099 O1111 1.278 . S
O1100 Pr1080 2.562 . S
O1100 C1082 1.254 . S
O1101 Pr1080 2.490 . S
O1101 C1082 1.225 . S
O1102 Pr1080 2.695 1_556 S
O1102 Pr1081 2.436 . S
O1102 C1089 1.270 1_556 S
O1103 Pr1080 2.512 . S
O1103 C1089 1.248 . S
O1104 Pr1081 2.438 . S
O1104 C1090 1.267 1_556 S
O1105 Pr1080 2.437 . S
O1105 C1090 1.278 . S
O1106 Pr1081 2.562 . S
O1106 C1091 1.254 . S
O1107 Pr1081 2.490 . S
O1107 C1091 1.225 . S
O1108 Pr1080 2.436 . S
O1108 Pr1081 2.695 1_554 S
O1108 C1098 1.270 1_554 S
O1109 Pr1081 2.512 . S
O1109 C1098 1.248 . S
O1110 Pr1080 2.438 . S
O1110 C1099 1.267 1_554 S
O1111 Pr1081 2.437 . S
O1111 C1099 1.278 . S
H1112 C1084 0.929 . S
H1113 C1085 0.929 . S
H1114 C1087 0.931 . S
H1115 C1088 0.930 . S
H1116 C1093 0.929 . S
H1117 C1094 0.929 . S
H1118 C1096 0.931 . S
H1119 C1097 0.930 . S
Pr1120 C1122 2.880 . S
Pr1120 O1140 2.562 . S
Pr1120 O1141 2.490 . S
Pr1120 O1142 2.695 1_554 S
Pr1120 O1143 2.512 . S
Pr1120 O1145 2.437 . S
Pr1120 O1148 2.436 . S
Pr1120 O1150 2.438 . S
Pr1121 C1131 2.880 . S
Pr1121 O1142 2.436 . S
Pr1121 O1144 2.438 . S
Pr1121 O1146 2.562 . S
Pr1121 O1147 2.490 . S
Pr1121 O1148 2.695 1_556 S
Pr1121 O1149 2.512 . S
Pr1121 O1151 2.437 . S
C1122 Pr1120 2.880 . S
C1122 C1123 1.491 . S
C1122 O1140 1.254 . S
C1122 O1141 1.225 . S
C1123 C1122 1.491 . S
C1123 C1124 1.392 . S
C1123 C1128 1.356 . S
C1124 C1123 1.392 . S
C1124 C1125 1.368 . S
C1124 H1152 0.929 . S
C1125 C1124 1.368 . S
C1125 C1126 1.386 . S
C1125 H1153 0.929 . S
C1126 C1125 1.386 . S
C1126 C1127 1.373 . S
C1127 C1126 1.373 . S
C1127 C1128 1.409 . S
C1127 H1154 0.931 . S
C1128 C1123 1.356 . S
C1128 C1127 1.409 . S
C1128 H1155 0.930 . S
C1129 O1142 1.270 1_554 S
C1129 O1143 1.248 . S
C1130 O1144 1.267 1_554 S
C1130 O1145 1.278 . S
C1131 Pr1121 2.880 . S
C1131 C1132 1.491 . S
C1131 O1146 1.254 . S
C1131 O1147 1.225 . S
C1132 C1131 1.491 . S
C1132 C1133 1.392 . S
C1132 C1137 1.356 . S
C1133 C1132 1.392 . S
C1133 C1134 1.368 . S
C1133 H1156 0.929 . S
C1134 C1133 1.368 . S
C1134 C1135 1.386 . S
C1134 H1157 0.929 . S
C1135 C1134 1.386 . S
C1135 C1136 1.373 . S
C1136 C1135 1.373 . S
C1136 C1137 1.409 . S
C1136 H1158 0.931 . S
C1137 C1132 1.356 . S
C1137 C1136 1.409 . S
C1137 H1159 0.930 . S
C1138 O1148 1.270 1_556 S
C1138 O1149 1.248 . S
C1139 O1150 1.267 1_556 S
C1139 O1151 1.278 . S
O1140 Pr1120 2.562 . S
O1140 C1122 1.254 . S
O1141 Pr1120 2.490 . S
O1141 C1122 1.225 . S
O1142 Pr1120 2.695 1_556 S
O1142 Pr1121 2.436 . S
O1142 C1129 1.270 1_556 S
O1143 Pr1120 2.512 . S
O1143 C1129 1.248 . S
O1144 Pr1121 2.438 . S
O1144 C1130 1.267 1_556 S
O1145 Pr1120 2.437 . S
O1145 C1130 1.278 . S
O1146 Pr1121 2.562 . S
O1146 C1131 1.254 . S
O1147 Pr1121 2.490 . S
O1147 C1131 1.225 . S
O1148 Pr1120 2.436 . S
O1148 Pr1121 2.695 1_554 S
O1148 C1138 1.270 1_554 S
O1149 Pr1121 2.512 . S
O1149 C1138 1.248 . S
O1150 Pr1120 2.438 . S
O1150 C1139 1.267 1_554 S
O1151 Pr1121 2.437 . S
O1151 C1139 1.278 . S
H1152 C1124 0.929 . S
H1153 C1125 0.929 . S
H1154 C1127 0.931 . S
H1155 C1128 0.930 . S
H1156 C1133 0.929 . S
H1157 C1134 0.929 . S
H1158 C1136 0.931 . S
H1159 C1137 0.930 . S
Pr1160 C1162 2.880 . S
Pr1160 O1180 2.562 . S
Pr1160 O1181 2.490 . S
Pr1160 O1182 2.695 1_554 S
Pr1160 O1183 2.512 . S
Pr1160 O1185 2.437 . S
Pr1160 O1188 2.436 . S
Pr1160 O1190 2.438 . S
Pr1161 C1171 2.880 . S
Pr1161 O1182 2.436 . S
Pr1161 O1184 2.438 . S
Pr1161 O1186 2.562 . S
Pr1161 O1187 2.490 . S
Pr1161 O1188 2.695 1_556 S
Pr1161 O1189 2.512 . S
Pr1161 O1191 2.437 . S
C1162 Pr1160 2.880 . S
C1162 C1163 1.491 . S
C1162 O1180 1.254 . S
C1162 O1181 1.225 . S
C1163 C1162 1.491 . S
C1163 C1164 1.392 . S
C1163 C1168 1.356 . S
C1164 C1163 1.392 . S
C1164 C1165 1.368 . S
C1164 H1192 0.929 . S
C1165 C1164 1.368 . S
C1165 C1166 1.386 . S
C1165 H1193 0.929 . S
C1166 C1165 1.386 . S
C1166 C1167 1.373 . S
C1167 C1166 1.373 . S
C1167 C1168 1.409 . S
C1167 H1194 0.931 . S
C1168 C1163 1.356 . S
C1168 C1167 1.409 . S
C1168 H1195 0.930 . S
C1169 O1182 1.270 1_554 S
C1169 O1183 1.248 . S
C1170 O1184 1.267 1_554 S
C1170 O1185 1.278 . S
C1171 Pr1161 2.880 . S
C1171 C1172 1.491 . S
C1171 O1186 1.254 . S
C1171 O1187 1.225 . S
C1172 C1171 1.491 . S
C1172 C1173 1.392 . S
C1172 C1177 1.356 . S
C1173 C1172 1.392 . S
C1173 C1174 1.368 . S
C1173 H1196 0.929 . S
C1174 C1173 1.368 . S
C1174 C1175 1.386 . S
C1174 H1197 0.929 . S
C1175 C1174 1.386 . S
C1175 C1176 1.373 . S
C1176 C1175 1.373 . S
C1176 C1177 1.409 . S
C1176 H1198 0.931 . S
C1177 C1172 1.356 . S
C1177 C1176 1.409 . S
C1177 H1199 0.930 . S
C1178 O1188 1.270 1_556 S
C1178 O1189 1.248 . S
C1179 O1190 1.267 1_556 S
C1179 O1191 1.278 . S
O1180 Pr1160 2.562 . S
O1180 C1162 1.254 . S
O1181 Pr1160 2.490 . S
O1181 C1162 1.225 . S
O1182 Pr1160 2.695 1_556 S
O1182 Pr1161 2.436 . S
O1182 C1169 1.270 1_556 S
O1183 Pr1160 2.512 . S
O1183 C1169 1.248 . S
O1184 Pr1161 2.438 . S
O1184 C1170 1.267 1_556 S
O1185 Pr1160 2.437 . S
O1185 C1170 1.278 . S
O1186 Pr1161 2.562 . S
O1186 C1171 1.254 . S
O1187 Pr1161 2.490 . S
O1187 C1171 1.225 . S
O1188 Pr1160 2.436 . S
O1188 Pr1161 2.695 1_554 S
O1188 C1178 1.270 1_554 S
O1189 Pr1161 2.512 . S
O1189 C1178 1.248 . S
O1190 Pr1160 2.438 . S
O1190 C1179 1.267 1_554 S
O1191 Pr1161 2.437 . S
O1191 C1179 1.278 . S
H1192 C1164 0.929 . S
H1193 C1165 0.929 . S
H1194 C1167 0.931 . S
H1195 C1168 0.930 . S
H1196 C1173 0.929 . S
H1197 C1174 0.929 . S
H1198 C1176 0.931 . S
H1199 C1177 0.930 . S
Pr1200 C1202 2.880 . S
Pr1200 O1220 2.562 . S
Pr1200 O1221 2.490 . S
Pr1200 O1222 2.695 . S
Pr1200 O1223 2.512 . S
Pr1200 O1225 2.437 . S
Pr1200 O1228 2.436 . S
Pr1200 O1230 2.438 . S
Pr1201 C1211 2.880 . S
Pr1201 O1222 2.436 . S
Pr1201 O1224 2.438 . S
Pr1201 O1226 2.562 . S
Pr1201 O1227 2.490 . S
Pr1201 O1228 2.695 . S
Pr1201 O1229 2.512 . S
Pr1201 O1231 2.437 . S
C1202 Pr1200 2.880 . S
C1202 C1203 1.491 . S
C1202 O1220 1.254 . S
C1202 O1221 1.225 . S
C1203 C1202 1.491 . S
C1203 C1204 1.392 . S
C1203 C1208 1.356 . S
C1204 C1203 1.392 . S
C1204 C1205 1.368 . S
C1204 H1232 0.929 . S
C1205 C1204 1.368 . S
C1205 C1206 1.386 . S
C1205 H1233 0.929 . S
C1206 C1205 1.386 . S
C1206 C1207 1.373 . S
C1207 C1206 1.373 . S
C1207 C1208 1.409 . S
C1207 H1234 0.931 . S
C1208 C1203 1.356 . S
C1208 C1207 1.409 . S
C1208 H1235 0.930 . S
C1209 O1222 1.270 . S
C1209 O1223 1.248 . S
C1210 O1224 1.267 . S
C1210 O1225 1.278 . S
C1211 Pr1201 2.880 . S
C1211 C1212 1.491 . S
C1211 O1226 1.254 . S
C1211 O1227 1.225 . S
C1212 C1211 1.491 . S
C1212 C1213 1.392 . S
C1212 C1217 1.356 . S
C1213 C1212 1.392 . S
C1213 C1214 1.368 . S
C1213 H1236 0.929 . S
C1214 C1213 1.368 . S
C1214 C1215 1.386 . S
C1214 H1237 0.929 . S
C1215 C1214 1.386 . S
C1215 C1216 1.373 . S
C1216 C1215 1.373 . S
C1216 C1217 1.409 . S
C1216 H1238 0.931 . S
C1217 C1212 1.356 . S
C1217 C1216 1.409 . S
C1217 H1239 0.930 . S
C1218 O1228 1.270 . S
C1218 O1229 1.248 . S
C1219 O1230 1.267 . S
C1219 O1231 1.278 . S
O1220 Pr1200 2.562 . S
O1220 C1202 1.254 . S
O1221 Pr1200 2.490 . S
O1221 C1202 1.225 . S
O1222 Pr1200 2.695 . S
O1222 Pr1201 2.436 . S
O1222 C1209 1.270 . S
O1223 Pr1200 2.512 . S
O1223 C1209 1.248 . S
O1224 Pr1201 2.438 . S
O1224 C1210 1.267 . S
O1225 Pr1200 2.437 . S
O1225 C1210 1.278 . S
O1226 Pr1201 2.562 . S
O1226 C1211 1.254 . S
O1227 Pr1201 2.490 . S
O1227 C1211 1.225 . S
O1228 Pr1200 2.436 . S
O1228 Pr1201 2.695 . S
O1228 C1218 1.270 . S
O1229 Pr1201 2.512 . S
O1229 C1218 1.248 . S
O1230 Pr1200 2.438 . S
O1230 C1219 1.267 . S
O1231 Pr1201 2.437 . S
O1231 C1219 1.278 . S
H1232 C1204 0.929 . S
H1233 C1205 0.929 . S
H1234 C1207 0.931 . S
H1235 C1208 0.930 . S
H1236 C1213 0.929 . S
H1237 C1214 0.929 . S
H1238 C1216 0.931 . S
H1239 C1217 0.930 . S
Pr1240 C1242 2.880 . S
Pr1240 O1260 2.562 . S
Pr1240 O1261 2.490 . S
Pr1240 O1262 2.695 . S
Pr1240 O1263 2.512 . S
Pr1240 O1265 2.437 . S
Pr1240 O1268 2.436 . S
Pr1240 O1270 2.438 . S
Pr1241 C1251 2.880 . S
Pr1241 O1262 2.436 . S
Pr1241 O1264 2.438 . S
Pr1241 O1266 2.562 . S
Pr1241 O1267 2.490 . S
Pr1241 O1268 2.695 . S
Pr1241 O1269 2.512 . S
Pr1241 O1271 2.437 . S
C1242 Pr1240 2.880 . S
C1242 C1243 1.491 . S
C1242 O1260 1.254 . S
C1242 O1261 1.225 . S
C1243 C1242 1.491 . S
C1243 C1244 1.392 . S
C1243 C1248 1.356 . S
C1244 C1243 1.392 . S
C1244 C1245 1.368 . S
C1244 H1272 0.929 . S
C1245 C1244 1.368 . S
C1245 C1246 1.386 . S
C1245 H1273 0.929 . S
C1246 C1245 1.386 . S
C1246 C1247 1.373 . S
C1247 C1246 1.373 . S
C1247 C1248 1.409 . S
C1247 H1274 0.931 . S
C1248 C1243 1.356 . S
C1248 C1247 1.409 . S
C1248 H1275 0.930 . S
C1249 O1262 1.270 . S
C1249 O1263 1.248 . S
C1250 O1264 1.267 . S
C1250 O1265 1.278 . S
C1251 Pr1241 2.880 . S
C1251 C1252 1.491 . S
C1251 O1266 1.254 . S
C1251 O1267 1.225 . S
C1252 C1251 1.491 . S
C1252 C1253 1.392 . S
C1252 C1257 1.356 . S
C1253 C1252 1.392 . S
C1253 C1254 1.368 . S
C1253 H1276 0.929 . S
C1254 C1253 1.368 . S
C1254 C1255 1.386 . S
C1254 H1277 0.929 . S
C1255 C1254 1.386 . S
C1255 C1256 1.373 . S
C1256 C1255 1.373 . S
C1256 C1257 1.409 . S
C1256 H1278 0.931 . S
C1257 C1252 1.356 . S
C1257 C1256 1.409 . S
C1257 H1279 0.930 . S
C1258 O1268 1.270 . S
C1258 O1269 1.248 . S
C1259 O1270 1.267 . S
C1259 O1271 1.278 . S
O1260 Pr1240 2.562 . S
O1260 C1242 1.254 . S
O1261 Pr1240 2.490 . S
O1261 C1242 1.225 . S
O1262 Pr1240 2.695 . S
O1262 Pr1241 2.436 . S
O1262 C1249 1.270 . S
O1263 Pr1240 2.512 . S
O1263 C1249 1.248 . S
O1264 Pr1241 2.438 . S
O1264 C1250 1.267 . S
O1265 Pr1240 2.437 . S
O1265 C1250 1.278 . S
O1266 Pr1241 2.562 . S
O1266 C1251 1.254 . S
O1267 Pr1241 2.490 . S
O1267 C1251 1.225 . S
O1268 Pr1240 2.436 . S
O1268 Pr1241 2.695 . S
O1268 C1258 1.270 . S
O1269 Pr1241 2.512 . S
O1269 C1258 1.248 . S
O1270 Pr1240 2.438 . S
O1270 C1259 1.267 . S
O1271 Pr1241 2.437 . S
O1271 C1259 1.278 . S
H1272 C1244 0.929 . S
H1273 C1245 0.929 . S
H1274 C1247 0.931 . S
H1275 C1248 0.930 . S
H1276 C1253 0.929 . S
H1277 C1254 0.929 . S
H1278 C1256 0.931 . S
H1279 C1257 0.930 . S
Pr1280 C1282 2.880 . S
Pr1280 O1300 2.562 . S
Pr1280 O1301 2.490 . S
Pr1280 O1302 2.695 . S
Pr1280 O1303 2.512 . S
Pr1280 O1305 2.437 . S
Pr1280 O1308 2.436 . S
Pr1280 O1310 2.438 . S
Pr1281 C1291 2.880 . S
Pr1281 O1302 2.436 . S
Pr1281 O1304 2.438 . S
Pr1281 O1306 2.562 . S
Pr1281 O1307 2.490 . S
Pr1281 O1308 2.695 . S
Pr1281 O1309 2.512 . S
Pr1281 O1311 2.437 . S
C1282 Pr1280 2.880 . S
C1282 C1283 1.491 . S
C1282 O1300 1.254 . S
C1282 O1301 1.225 . S
C1283 C1282 1.491 . S
C1283 C1284 1.392 . S
C1283 C1288 1.356 . S
C1284 C1283 1.392 . S
C1284 C1285 1.368 . S
C1284 H1312 0.929 . S
C1285 C1284 1.368 . S
C1285 C1286 1.386 . S
C1285 H1313 0.929 . S
C1286 C1285 1.386 . S
C1286 C1287 1.373 . S
C1287 C1286 1.373 . S
C1287 C1288 1.409 . S
C1287 H1314 0.931 . S
C1288 C1283 1.356 . S
C1288 C1287 1.409 . S
C1288 H1315 0.930 . S
C1289 O1302 1.270 . S
C1289 O1303 1.248 . S
C1290 O1304 1.267 . S
C1290 O1305 1.278 . S
C1291 Pr1281 2.880 . S
C1291 C1292 1.491 . S
C1291 O1306 1.254 . S
C1291 O1307 1.225 . S
C1292 C1291 1.491 . S
C1292 C1293 1.392 . S
C1292 C1297 1.356 . S
C1293 C1292 1.392 . S
C1293 C1294 1.368 . S
C1293 H1316 0.929 . S
C1294 C1293 1.368 . S
C1294 C1295 1.386 . S
C1294 H1317 0.929 . S
C1295 C1294 1.386 . S
C1295 C1296 1.373 . S
C1296 C1295 1.373 . S
C1296 C1297 1.409 . S
C1296 H1318 0.931 . S
C1297 C1292 1.356 . S
C1297 C1296 1.409 . S
C1297 H1319 0.930 . S
C1298 O1308 1.270 . S
C1298 O1309 1.248 . S
C1299 O1310 1.267 . S
C1299 O1311 1.278 . S
O1300 Pr1280 2.562 . S
O1300 C1282 1.254 . S
O1301 Pr1280 2.490 . S
O1301 C1282 1.225 . S
O1302 Pr1280 2.695 . S
O1302 Pr1281 2.436 . S
O1302 C1289 1.270 . S
O1303 Pr1280 2.512 . S
O1303 C1289 1.248 . S
O1304 Pr1281 2.438 . S
O1304 C1290 1.267 . S
O1305 Pr1280 2.437 . S
O1305 C1290 1.278 . S
O1306 Pr1281 2.562 . S
O1306 C1291 1.254 . S
O1307 Pr1281 2.490 . S
O1307 C1291 1.225 . S
O1308 Pr1280 2.436 . S
O1308 Pr1281 2.695 . S
O1308 C1298 1.270 . S
O1309 Pr1281 2.512 . S
O1309 C1298 1.248 . S
O1310 Pr1280 2.438 . S
O1310 C1299 1.267 . S
O1311 Pr1281 2.437 . S
O1311 C1299 1.278 . S
H1312 C1284 0.929 . S
H1313 C1285 0.929 . S
H1314 C1287 0.931 . S
H1315 C1288 0.930 . S
H1316 C1293 0.929 . S
H1317 C1294 0.929 . S
H1318 C1296 0.931 . S
H1319 C1297 0.930 . S
Pr1320 C1322 2.880 . S
Pr1320 O1340 2.562 . S
Pr1320 O1341 2.490 . S
Pr1320 O1342 2.695 . S
Pr1320 O1343 2.512 . S
Pr1320 O1345 2.437 . S
Pr1320 O1348 2.436 . S
Pr1320 O1350 2.438 . S
Pr1321 C1331 2.880 . S
Pr1321 O1342 2.436 . S
Pr1321 O1344 2.438 . S
Pr1321 O1346 2.562 . S
Pr1321 O1347 2.490 . S
Pr1321 O1348 2.695 . S
Pr1321 O1349 2.512 . S
Pr1321 O1351 2.437 . S
C1322 Pr1320 2.880 . S
C1322 C1323 1.491 . S
C1322 O1340 1.254 . S
C1322 O1341 1.225 . S
C1323 C1322 1.491 . S
C1323 C1324 1.392 . S
C1323 C1328 1.356 . S
C1324 C1323 1.392 . S
C1324 C1325 1.368 . S
C1324 H1352 0.929 . S
C1325 C1324 1.368 . S
C1325 C1326 1.386 . S
C1325 H1353 0.929 . S
C1326 C1325 1.386 . S
C1326 C1327 1.373 . S
C1327 C1326 1.373 . S
C1327 C1328 1.409 . S
C1327 H1354 0.931 . S
C1328 C1323 1.356 . S
C1328 C1327 1.409 . S
C1328 H1355 0.930 . S
C1329 O1342 1.270 . S
C1329 O1343 1.248 . S
C1330 O1344 1.267 . S
C1330 O1345 1.278 . S
C1331 Pr1321 2.880 . S
C1331 C1332 1.491 . S
C1331 O1346 1.254 . S
C1331 O1347 1.225 . S
C1332 C1331 1.491 . S
C1332 C1333 1.392 . S
C1332 C1337 1.356 . S
C1333 C1332 1.392 . S
C1333 C1334 1.368 . S
C1333 H1356 0.929 . S
C1334 C1333 1.368 . S
C1334 C1335 1.386 . S
C1334 H1357 0.929 . S
C1335 C1334 1.386 . S
C1335 C1336 1.373 . S
C1336 C1335 1.373 . S
C1336 C1337 1.409 . S
C1336 H1358 0.931 1_455 S
C1337 C1332 1.356 . S
C1337 C1336 1.409 . S
C1337 H1359 0.930 . S
C1338 O1348 1.270 . S
C1338 O1349 1.248 . S
C1339 O1350 1.267 . S
C1339 O1351 1.278 . S
O1340 Pr1320 2.562 . S
O1340 C1322 1.254 . S
O1341 Pr1320 2.490 . S
O1341 C1322 1.225 . S
O1342 Pr1320 2.695 . S
O1342 Pr1321 2.436 . S
O1342 C1329 1.270 . S
O1343 Pr1320 2.512 . S
O1343 C1329 1.248 . S
O1344 Pr1321 2.438 . S
O1344 C1330 1.267 . S
O1345 Pr1320 2.437 . S
O1345 C1330 1.278 . S
O1346 Pr1321 2.562 . S
O1346 C1331 1.254 . S
O1347 Pr1321 2.490 . S
O1347 C1331 1.225 . S
O1348 Pr1320 2.436 . S
O1348 Pr1321 2.695 . S
O1348 C1338 1.270 . S
O1349 Pr1321 2.512 . S
O1349 C1338 1.248 . S
O1350 Pr1320 2.438 . S
O1350 C1339 1.267 . S
O1351 Pr1321 2.437 . S
O1351 C1339 1.278 . S
H1352 C1324 0.929 . S
H1353 C1325 0.929 . S
H1354 C1327 0.931 . S
H1355 C1328 0.930 . S
H1356 C1333 0.929 . S
H1357 C1334 0.929 . S
H1358 C1336 0.931 1_655 S
H1359 C1337 0.930 . S
Pr1360 C1362 2.880 . S
Pr1360 O1380 2.562 . S
Pr1360 O1381 2.490 . S
Pr1360 O1382 2.695 . S
Pr1360 O1383 2.512 . S
Pr1360 O1385 2.437 . S
Pr1360 O1388 2.436 . S
Pr1360 O1390 2.438 . S
Pr1361 C1371 2.880 . S
Pr1361 O1382 2.436 . S
Pr1361 O1384 2.438 . S
Pr1361 O1386 2.562 . S
Pr1361 O1387 2.490 . S
Pr1361 O1388 2.695 . S
Pr1361 O1389 2.512 . S
Pr1361 O1391 2.437 . S
C1362 Pr1360 2.880 . S
C1362 C1363 1.491 . S
C1362 O1380 1.254 . S
C1362 O1381 1.225 . S
C1363 C1362 1.491 . S
C1363 C1364 1.392 . S
C1363 C1368 1.356 . S
C1364 C1363 1.392 . S
C1364 C1365 1.368 . S
C1364 H1392 0.929 . S
C1365 C1364 1.368 . S
C1365 C1366 1.386 . S
C1365 H1393 0.929 . S
C1366 C1365 1.386 . S
C1366 C1367 1.373 . S
C1367 C1366 1.373 . S
C1367 C1368 1.409 . S
C1367 H1394 0.931 . S
C1368 C1363 1.356 . S
C1368 C1367 1.409 . S
C1368 H1395 0.930 . S
C1369 O1382 1.270 . S
C1369 O1383 1.248 . S
C1370 O1384 1.267 . S
C1370 O1385 1.278 . S
C1371 Pr1361 2.880 . S
C1371 C1372 1.491 . S
C1371 O1386 1.254 . S
C1371 O1387 1.225 . S
C1372 C1371 1.491 . S
C1372 C1373 1.392 . S
C1372 C1377 1.356 . S
C1373 C1372 1.392 . S
C1373 C1374 1.368 . S
C1373 H1396 0.929 . S
C1374 C1373 1.368 . S
C1374 C1375 1.386 . S
C1374 H1397 0.929 . S
C1375 C1374 1.386 . S
C1375 C1376 1.373 . S
C1376 C1375 1.373 . S
C1376 C1377 1.409 . S
C1376 H1398 0.931 . S
C1377 C1372 1.356 . S
C1377 C1376 1.409 . S
C1377 H1399 0.930 . S
C1378 O1388 1.270 . S
C1378 O1389 1.248 . S
C1379 O1390 1.267 . S
C1379 O1391 1.278 . S
O1380 Pr1360 2.562 . S
O1380 C1362 1.254 . S
O1381 Pr1360 2.490 . S
O1381 C1362 1.225 . S
O1382 Pr1360 2.695 . S
O1382 Pr1361 2.436 . S
O1382 C1369 1.270 . S
O1383 Pr1360 2.512 . S
O1383 C1369 1.248 . S
O1384 Pr1361 2.438 . S
O1384 C1370 1.267 . S
O1385 Pr1360 2.437 . S
O1385 C1370 1.278 . S
O1386 Pr1361 2.562 . S
O1386 C1371 1.254 . S
O1387 Pr1361 2.490 . S
O1387 C1371 1.225 . S
O1388 Pr1360 2.436 . S
O1388 Pr1361 2.695 . S
O1388 C1378 1.270 . S
O1389 Pr1361 2.512 . S
O1389 C1378 1.248 . S
O1390 Pr1360 2.438 . S
O1390 C1379 1.267 . S
O1391 Pr1361 2.437 . S
O1391 C1379 1.278 . S
H1392 C1364 0.929 . S
H1393 C1365 0.929 . S
H1394 C1367 0.931 . S
H1395 C1368 0.930 . S
H1396 C1373 0.929 . S
H1397 C1374 0.929 . S
H1398 C1376 0.931 . S
H1399 C1377 0.930 . S
Pr1400 C1402 2.880 . S
Pr1400 O1420 2.562 . S
Pr1400 O1421 2.490 . S
Pr1400 O1422 2.695 . S
Pr1400 O1423 2.512 . S
Pr1400 O1425 2.437 . S
Pr1400 O1428 2.436 . S
Pr1400 O1430 2.438 . S
Pr1401 C1411 2.880 . S
Pr1401 O1422 2.436 . S
Pr1401 O1424 2.438 . S
Pr1401 O1426 2.562 . S
Pr1401 O1427 2.490 . S
Pr1401 O1428 2.695 . S
Pr1401 O1429 2.512 . S
Pr1401 O1431 2.437 . S
C1402 Pr1400 2.880 . S
C1402 C1403 1.491 . S
C1402 O1420 1.254 . S
C1402 O1421 1.225 . S
C1403 C1402 1.491 . S
C1403 C1404 1.392 . S
C1403 C1408 1.356 . S
C1404 C1403 1.392 . S
C1404 C1405 1.368 . S
C1404 H1432 0.929 . S
C1405 C1404 1.368 . S
C1405 C1406 1.386 . S
C1405 H1433 0.929 . S
C1406 C1405 1.386 . S
C1406 C1407 1.373 . S
C1407 C1406 1.373 . S
C1407 C1408 1.409 . S
C1407 H1434 0.931 . S
C1408 C1403 1.356 . S
C1408 C1407 1.409 . S
C1408 H1435 0.930 . S
C1409 O1422 1.270 . S
C1409 O1423 1.248 . S
C1410 O1424 1.267 . S
C1410 O1425 1.278 . S
C1411 Pr1401 2.880 . S
C1411 C1412 1.491 . S
C1411 O1426 1.254 . S
C1411 O1427 1.225 . S
C1412 C1411 1.491 . S
C1412 C1413 1.392 . S
C1412 C1417 1.356 . S
C1413 C1412 1.392 . S
C1413 C1414 1.368 . S
C1413 H1436 0.929 . S
C1414 C1413 1.368 . S
C1414 C1415 1.386 . S
C1414 H1437 0.929 . S
C1415 C1414 1.386 . S
C1415 C1416 1.373 . S
C1416 C1415 1.373 . S
C1416 C1417 1.409 . S
C1416 H1438 0.931 1_565 S
C1417 C1412 1.356 . S
C1417 C1416 1.409 . S
C1417 H1439 0.930 . S
C1418 O1428 1.270 . S
C1418 O1429 1.248 . S
C1419 O1430 1.267 . S
C1419 O1431 1.278 . S
O1420 Pr1400 2.562 . S
O1420 C1402 1.254 . S
O1421 Pr1400 2.490 . S
O1421 C1402 1.225 . S
O1422 Pr1400 2.695 . S
O1422 Pr1401 2.436 . S
O1422 C1409 1.270 . S
O1423 Pr1400 2.512 . S
O1423 C1409 1.248 . S
O1424 Pr1401 2.438 . S
O1424 C1410 1.267 . S
O1425 Pr1400 2.437 . S
O1425 C1410 1.278 . S
O1426 Pr1401 2.562 . S
O1426 C1411 1.254 . S
O1427 Pr1401 2.490 . S
O1427 C1411 1.225 . S
O1428 Pr1400 2.436 . S
O1428 Pr1401 2.695 . S
O1428 C1418 1.270 . S
O1429 Pr1401 2.512 . S
O1429 C1418 1.248 . S
O1430 Pr1400 2.438 . S
O1430 C1419 1.267 . S
O1431 Pr1401 2.437 . S
O1431 C1419 1.278 . S
H1432 C1404 0.929 . S
H1433 C1405 0.929 . S
H1434 C1407 0.931 . S
H1435 C1408 0.930 . S
H1436 C1413 0.929 . S
H1437 C1414 0.929 . S
H1438 C1416 0.931 1_545 S
H1439 C1417 0.930 . S
H1440 C1448 0.929 . S
H1441 C1450 0.930 . S
H1442 C1452 0.930 . S
H1443 C1455 0.929 . S
H1444 C1458 0.930 . S
H1445 C1460 0.960 . S
H1446 C1460 0.960 . S
H1447 C1460 0.960 . S
C1448 H1440 0.929 . S
C1448 C1449 1.377 . S
C1448 C1450 1.384 . S
C1449 C1448 1.377 . S
C1449 C1455 1.390 . S
C1450 H1441 0.930 . S
C1450 C1448 1.384 . S
C1450 C1451 1.372 . S
C1451 C1450 1.372 . S
C1451 C1452 1.400 . S
C1451 C1456 1.490 . S
C1452 H1442 0.930 . S
C1452 C1451 1.400 . S
C1452 C1455 1.386 . S
H1453 C1469 0.930 . S
H1454 C1470 0.931 . S
C1455 H1443 0.929 . S
C1455 C1449 1.390 . S
C1455 C1452 1.386 . S
C1456 C1451 1.490 . S
C1456 C1458 1.395 . S
C1456 C1459 1.403 . S
H1457 C1463 0.930 . S
C1458 H1444 0.930 . S
C1458 C1456 1.395 . S
C1458 C1461 1.403 . S
C1459 C1456 1.403 . S
C1459 C1460 1.524 . S
C1459 C1463 1.400 . S
C1460 H1445 0.960 . S
C1460 H1446 0.960 . S
C1460 H1447 0.960 . S
C1460 C1459 1.524 . S
C1461 C1458 1.403 . S
C1461 C1462 1.392 . S
C1461 C1465 1.495 . S
C1462 C1461 1.392 . S
C1462 C1463 1.385 . S
C1462 C1464 1.478 . S
C1463 H1457 0.930 . S
C1463 C1459 1.400 . S
C1463 C1462 1.385 . S
C1464 C1462 1.478 . S
C1464 C1466 1.381 . S
C1464 C1470 1.383 1_545 S
C1465 C1461 1.495 . S
C1465 H1471 0.959 . S
C1465 H1472 0.961 . S
C1465 H1473 0.960 . S
C1466 C1464 1.381 . S
C1466 C1467 1.394 1_545 S
C1466 H1474 0.930 . S
C1467 C1466 1.394 1_565 S
C1467 C1468 1.383 . S
C1467 H1475 0.929 . S
C1468 C1467 1.383 . S
C1468 C1469 1.377 . S
C1469 H1453 0.930 . S
C1469 C1468 1.377 . S
C1469 C1470 1.379 . S
C1470 H1454 0.931 . S
C1470 C1464 1.383 1_565 S
C1470 C1469 1.379 . S
H1471 C1465 0.959 . S
H1472 C1465 0.961 . S
H1473 C1465 0.960 . S
H1474 C1466 0.930 . S
H1475 C1467 0.929 . S
H1476 C1484 0.929 . S
H1477 C1486 0.930 . S
H1478 C1488 0.930 . S
H1479 C1491 0.929 . S
H1480 C1494 0.930 . S
H1481 C1496 0.960 . S
H1482 C1496 0.960 . S
H1483 C1496 0.960 . S
C1484 H1476 0.929 . S
C1484 C1485 1.377 . S
C1484 C1486 1.384 1_455 S
C1485 C1484 1.377 . S
C1485 C1491 1.390 . S
C1486 H1477 0.930 . S
C1486 C1484 1.384 1_655 S
C1486 C1487 1.372 . S
C1487 C1486 1.372 . S
C1487 C1488 1.400 1_655 S
C1487 C1492 1.490 . S
C1488 H1478 0.930 . S
C1488 C1487 1.400 1_455 S
C1488 C1491 1.386 . S
H1489 C1505 0.930 . S
H1490 C1506 0.931 . S
C1491 H1479 0.929 . S
C1491 C1485 1.390 . S
C1491 C1488 1.386 . S
C1492 C1487 1.490 . S
C1492 C1494 1.395 . S
C1492 C1495 1.403 . S
H1493 C1499 0.930 . S
C1494 H1480 0.930 . S
C1494 C1492 1.395 . S
C1494 C1497 1.403 . S
C1495 C1492 1.403 . S
C1495 C1496 1.524 . S
C1495 C1499 1.400 . S
C1496 H1481 0.960 . S
C1496 H1482 0.960 . S
C1496 H1483 0.960 . S
C1496 C1495 1.524 . S
C1497 C1494 1.403 . S
C1497 C1498 1.392 . S
C1497 C1501 1.495 . S
C1498 C1497 1.392 . S
C1498 C1499 1.385 . S
C1498 C1500 1.478 . S
C1499 H1493 0.930 . S
C1499 C1495 1.400 . S
C1499 C1498 1.385 . S
C1500 C1498 1.478 . S
C1500 C1502 1.381 . S
C1500 C1506 1.383 . S
C1501 C1497 1.495 . S
C1501 H1507 0.959 . S
C1501 H1508 0.961 . S
C1501 H1509 0.960 . S
C1502 C1500 1.381 . S
C1502 C1503 1.394 . S
C1502 H1510 0.930 . S
C1503 C1502 1.394 . S
C1503 C1504 1.383 1_545 S
C1503 H1511 0.929 1_545 S
C1504 C1503 1.383 1_565 S
C1504 C1505 1.377 . S
C1505 H1489 0.930 . S
C1505 C1504 1.377 . S
C1505 C1506 1.379 1_565 S
C1506 H1490 0.931 . S
C1506 C1500 1.383 . S
C1506 C1505 1.379 1_545 S
H1507 C1501 0.959 . S
H1508 C1501 0.961 . S
H1509 C1501 0.960 . S
H1510 C1502 0.930 . S
H1511 C1503 0.929 1_565 S
H1512 C1520 0.929 . S
H1513 C1522 0.930 . S
H1514 C1524 0.930 . S
H1515 C1527 0.929 . S
H1516 C1530 0.930 . S
H1517 C1532 0.960 . S
H1518 C1532 0.960 . S
H1519 C1532 0.960 . S
C1520 H1512 0.929 . S
C1520 C1521 1.377 . S
C1520 C1522 1.384 . S
C1521 C1520 1.377 . S
C1521 C1527 1.390 1_455 S
C1522 H1513 0.930 . S
C1522 C1520 1.384 . S
C1522 C1523 1.372 1_455 S
C1523 C1522 1.372 1_655 S
C1523 C1524 1.400 . S
C1523 C1528 1.490 . S
C1524 H1514 0.930 . S
C1524 C1523 1.400 . S
C1524 C1527 1.386 . S
H1525 C1541 0.930 . S
H1526 C1542 0.931 . S
C1527 H1515 0.929 . S
C1527 C1521 1.390 1_655 S
C1527 C1524 1.386 . S
C1528 C1523 1.490 . S
C1528 C1530 1.395 . S
C1528 C1531 1.403 . S
H1529 C1535 0.930 . S
C1530 H1516 0.930 . S
C1530 C1528 1.395 . S
C1530 C1533 1.403 . S
C1531 C1528 1.403 . S
C1531 C1532 1.524 . S
C1531 C1535 1.400 . S
C1532 H1517 0.960 . S
C1532 H1518 0.960 . S
C1532 H1519 0.960 . S
C1532 C1531 1.524 . S
C1533 C1530 1.403 . S
C1533 C1534 1.392 . S
C1533 C1537 1.495 . S
C1534 C1533 1.392 . S
C1534 C1535 1.385 . S
C1534 C1536 1.478 . S
C1535 H1529 0.930 . S
C1535 C1531 1.400 . S
C1535 C1534 1.385 . S
C1536 C1534 1.478 . S
C1536 C1538 1.381 . S
C1536 C1542 1.383 . S
C1537 C1533 1.495 . S
C1537 H1543 0.959 . S
C1537 H1544 0.961 . S
C1537 H1545 0.960 . S
C1538 C1536 1.381 . S
C1538 C1539 1.394 . S
C1538 H1546 0.930 . S
C1539 C1538 1.394 . S
C1539 C1540 1.383 . S
C1539 H1547 0.929 . S
C1540 C1539 1.383 . S
C1540 C1541 1.377 . S
C1541 H1525 0.930 . S
C1541 C1540 1.377 . S
C1541 C1542 1.379 . S
C1542 H1526 0.931 . S
C1542 C1536 1.383 . S
C1542 C1541 1.379 . S
H1543 C1537 0.959 . S
H1544 C1537 0.961 . S
H1545 C1537 0.960 . S
H1546 C1538 0.930 . S
H1547 C1539 0.929 . S
H1548 C1556 0.929 . S
H1549 C1558 0.930 . S
H1550 C1560 0.930 . S
H1551 C1563 0.929 . S
H1552 C1566 0.930 . S
H1553 C1568 0.960 . S
H1554 C1568 0.960 . S
H1555 C1568 0.960 . S
C1556 H1548 0.929 . S
C1556 C1557 1.377 . S
C1556 C1558 1.384 . S
C1557 C1556 1.377 . S
C1557 C1563 1.390 . S
C1558 H1549 0.930 . S
C1558 C1556 1.384 . S
C1558 C1559 1.372 . S
C1559 C1558 1.372 . S
C1559 C1560 1.400 . S
C1559 C1564 1.490 . S
C1560 H1550 0.930 . S
C1560 C1559 1.400 . S
C1560 C1563 1.386 . S
H1561 C1577 0.930 . S
H1562 C1578 0.918 1_455 S
C1563 H1551 0.929 . S
C1563 C1557 1.390 . S
C1563 C1560 1.386 . S
C1564 C1559 1.490 . S
C1564 C1566 1.395 . S
C1564 C1567 1.403 . S
H1565 C1571 0.930 . S
C1566 H1552 0.930 . S
C1566 C1564 1.395 . S
C1566 C1569 1.403 . S
C1567 C1564 1.403 . S
C1567 C1568 1.524 . S
C1567 C1571 1.400 . S
C1568 H1553 0.960 . S
C1568 H1554 0.960 . S
C1568 H1555 0.960 . S
C1568 C1567 1.524 . S
C1569 C1566 1.403 . S
C1569 C1570 1.392 . S
C1569 C1573 1.495 . S
C1570 C1569 1.392 . S
C1570 C1571 1.385 . S
C1570 C1572 1.478 . S
C1571 H1565 0.930 . S
C1571 C1567 1.400 . S
C1571 C1570 1.385 . S
C1572 C1570 1.478 . S
C1572 C1574 1.381 1_455 S
C1572 C1578 1.371 1_455 S
C1573 C1569 1.495 . S
C1573 H1579 0.959 . S
C1573 H1580 0.961 . S
C1573 H1581 0.960 . S
C1574 C1572 1.381 1_655 S
C1574 C1575 1.394 . S
C1574 H1582 0.930 . S
C1575 C1574 1.394 . S
C1575 C1576 1.383 . S
C1575 H1583 0.929 . S
C1576 C1575 1.383 . S
C1576 C1577 1.377 . S
C1577 H1561 0.930 . S
C1577 C1576 1.377 . S
C1577 C1578 1.404 . S
C1578 H1562 0.918 1_655 S
C1578 C1572 1.371 1_655 S
C1578 C1577 1.404 . S
H1579 C1573 0.959 . S
H1580 C1573 0.961 . S
H1581 C1573 0.960 . S
H1582 C1574 0.930 . S
H1583 C1575 0.929 . S
H1584 C1592 0.929 . S
H1585 C1594 0.930 . S
H1586 C1596 0.930 . S
H1587 C1599 0.929 . S
H1588 C1602 0.930 . S
H1589 C1604 0.960 . S
H1590 C1604 0.960 . S
H1591 C1604 0.960 . S
C1592 H1584 0.929 . S
C1592 C1593 1.377 . S
C1592 C1594 1.384 . S
C1593 C1592 1.377 . S
C1593 C1599 1.390 . S
C1594 H1585 0.930 . S
C1594 C1592 1.384 . S
C1594 C1595 1.372 . S
C1595 C1594 1.372 . S
C1595 C1596 1.400 . S
C1595 C1600 1.490 . S
C1596 H1586 0.930 . S
C1596 C1595 1.400 . S
C1596 C1599 1.386 . S
H1597 C1613 0.930 . S
H1598 C1614 0.931 . S
C1599 H1587 0.929 . S
C1599 C1593 1.390 . S
C1599 C1596 1.386 . S
C1600 C1595 1.490 . S
C1600 C1602 1.395 . S
C1600 C1603 1.403 . S
H1601 C1607 0.930 . S
C1602 H1588 0.930 . S
C1602 C1600 1.395 . S
C1602 C1605 1.403 . S
C1603 C1600 1.403 . S
C1603 C1604 1.524 . S
C1603 C1607 1.400 . S
C1604 H1589 0.960 . S
C1604 H1590 0.960 . S
C1604 H1591 0.960 . S
C1604 C1603 1.524 . S
C1605 C1602 1.403 . S
C1605 C1606 1.392 . S
C1605 C1609 1.495 . S
C1606 C1605 1.392 . S
C1606 C1607 1.385 . S
C1606 C1608 1.478 . S
C1607 H1601 0.930 . S
C1607 C1603 1.400 . S
C1607 C1606 1.385 . S
C1608 C1606 1.478 . S
C1608 C1610 1.381 . S
C1608 C1614 1.383 . S
C1609 C1605 1.495 . S
C1609 H1615 0.959 . S
C1609 H1616 0.961 . S
C1609 H1617 0.960 . S
C1610 C1608 1.381 . S
C1610 C1611 1.394 1_565 S
C1610 H1618 0.930 . S
C1611 C1610 1.394 1_545 S
C1611 C1612 1.383 . S
C1611 H1619 0.929 . S
C1612 C1611 1.383 . S
C1612 C1613 1.377 . S
C1613 H1597 0.930 . S
C1613 C1612 1.377 . S
C1613 C1614 1.379 1_545 S
C1614 H1598 0.931 . S
C1614 C1608 1.383 . S
C1614 C1613 1.379 1_565 S
H1615 C1609 0.959 . S
H1616 C1609 0.961 . S
H1617 C1609 0.960 . S
H1618 C1610 0.930 . S
H1619 C1611 0.929 . S
H1620 C1628 0.925 . S
H1621 C1630 0.930 . S
H1622 C1632 0.930 . S
H1623 C1635 0.929 . S
H1624 C1638 0.930 . S
H1625 C1640 0.960 . S
H1626 C1640 0.960 . S
H1627 C1640 0.960 . S
C1628 H1620 0.925 . S
C1628 C1629 1.377 1_455 S
C1628 C1630 1.384 . S
C1629 C1628 1.377 1_655 S
C1629 C1635 1.390 . S
C1630 H1621 0.930 . S
C1630 C1628 1.384 . S
C1630 C1631 1.372 . S
C1631 C1630 1.372 . S
C1631 C1632 1.400 . S
C1631 C1636 1.490 . S
C1632 H1622 0.930 . S
C1632 C1631 1.400 . S
C1632 C1635 1.386 1_455 S
H1633 C1649 0.930 . S
H1634 C1650 0.931 . S
C1635 H1623 0.929 . S
C1635 C1629 1.390 . S
C1635 C1632 1.386 1_655 S
C1636 C1631 1.490 . S
C1636 C1638 1.395 . S
C1636 C1639 1.403 . S
H1637 C1643 0.930 . S
C1638 H1624 0.930 . S
C1638 C1636 1.395 . S
C1638 C1641 1.403 . S
C1639 C1636 1.403 . S
C1639 C1640 1.524 . S
C1639 C1643 1.400 . S
C1640 H1625 0.960 . S
C1640 H1626 0.960 . S
C1640 H1627 0.960 . S
C1640 C1639 1.524 . S
C1641 C1638 1.403 . S
C1641 C1642 1.392 . S
C1641 C1645 1.495 . S
C1642 C1641 1.392 . S
C1642 C1643 1.385 . S
C1642 C1644 1.478 . S
C1643 H1637 0.930 . S
C1643 C1639 1.400 . S
C1643 C1642 1.385 . S
C1644 C1642 1.478 . S
C1644 C1646 1.381 . S
C1644 C1650 1.383 1_565 S
C1645 C1641 1.495 . S
C1645 H1651 0.959 . S
C1645 H1652 0.961 . S
C1645 H1653 0.960 . S
C1646 C1644 1.381 . S
C1646 C1647 1.394 1_565 S
C1646 H1654 0.930 . S
C1647 C1646 1.394 1_545 S
C1647 C1648 1.383 . S
C1647 H1655 0.929 . S
C1648 C1647 1.383 . S
C1648 C1649 1.377 . S
C1649 H1633 0.930 . S
C1649 C1648 1.377 . S
C1649 C1650 1.379 . S
C1650 H1634 0.931 . S
C1650 C1644 1.383 1_545 S
C1650 C1649 1.379 . S
H1651 C1645 0.959 . S
H1652 C1645 0.961 . S
H1653 C1645 0.960 . S
H1654 C1646 0.930 . S
H1655 C1647 0.929 . S
H1656 C1664 0.929 . S
H1657 C1666 0.930 . S
H1658 C1668 0.930 . S
H1659 C1671 0.929 . S
H1660 C1674 0.930 . S
H1661 C1676 0.960 . S
H1662 C1676 0.960 . S
H1663 C1676 0.960 . S
C1664 H1656 0.929 . S
C1664 C1665 1.377 . S
C1664 C1666 1.384 . S
C1665 C1664 1.377 . S
C1665 C1671 1.390 . S
C1666 H1657 0.930 . S
C1666 C1664 1.384 . S
C1666 C1667 1.372 . S
C1667 C1666 1.372 . S
C1667 C1668 1.400 . S
C1667 C1672 1.490 . S
C1668 H1658 0.930 . S
C1668 C1667 1.400 . S
C1668 C1671 1.386 . S
H1669 C1685 0.930 . S
H1670 C1686 0.921 1_565 S
C1671 H1659 0.929 . S
C1671 C1665 1.390 . S
C1671 C1668 1.386 . S
C1672 C1667 1.490 . S
C1672 C1674 1.395 . S
C1672 C1675 1.403 . S
H1673 C1679 0.930 . S
C1674 H1660 0.930 . S
C1674 C1672 1.395 . S
C1674 C1677 1.403 . S
C1675 C1672 1.403 . S
C1675 C1676 1.524 . S
C1675 C1679 1.400 . S
C1676 H1661 0.960 . S
C1676 H1662 0.960 . S
C1676 H1663 0.960 . S
C1676 C1675 1.524 . S
C1677 C1674 1.403 . S
C1677 C1678 1.392 . S
C1677 C1681 1.495 . S
C1678 C1677 1.392 . S
C1678 C1679 1.385 . S
C1678 C1680 1.478 . S
C1679 H1673 0.930 . S
C1679 C1675 1.400 . S
C1679 C1678 1.385 . S
C1680 C1678 1.478 . S
C1680 C1682 1.381 1_565 S
C1680 C1686 1.371 1_565 S
C1681 C1677 1.495 . S
C1681 H1687 0.959 . S
C1681 H1688 0.961 . S
C1681 H1689 0.960 . S
C1682 C1680 1.381 1_545 S
C1682 C1683 1.394 . S
C1682 H1690 0.930 . S
C1683 C1682 1.394 . S
C1683 C1684 1.383 . S
C1683 H1691 0.929 . S
C1684 C1683 1.383 . S
C1684 C1685 1.377 . S
C1685 H1669 0.930 . S
C1685 C1684 1.377 . S
C1685 C1686 1.401 . S
C1686 H1670 0.921 1_545 S
C1686 C1680 1.371 1_545 S
C1686 C1685 1.401 . S
H1687 C1681 0.959 . S
H1688 C1681 0.961 . S
H1689 C1681 0.960 . S
H1690 C1682 0.930 . S
H1691 C1683 0.929 . S
H1692 C1700 0.929 . S
H1693 C1702 0.930 . S
H1694 C1704 0.930 . S
H1695 C1707 0.929 . S
H1696 C1710 0.930 . S
H1697 C1712 0.960 . S
H1698 C1712 0.960 . S
H1699 C1712 0.960 . S
C1700 H1692 0.929 . S
C1700 C1701 1.377 . S
C1700 C1702 1.384 . S
C1701 C1700 1.377 . S
C1701 C1707 1.390 1_545 S
C1702 H1693 0.930 . S
C1702 C1700 1.384 . S
C1702 C1703 1.372 1_545 S
C1703 C1702 1.372 1_565 S
C1703 C1704 1.400 . S
C1703 C1708 1.490 . S
C1704 H1694 0.930 . S
C1704 C1703 1.400 . S
C1704 C1707 1.386 . S
H1705 C1721 0.930 . S
H1706 C1722 0.931 . S
C1707 H1695 0.929 . S
C1707 C1701 1.390 1_565 S
C1707 C1704 1.386 . S
C1708 C1703 1.490 . S
C1708 C1710 1.395 . S
C1708 C1711 1.403 . S
H1709 C1715 0.930 . S
C1710 H1696 0.930 . S
C1710 C1708 1.395 . S
C1710 C1713 1.403 . S
C1711 C1708 1.403 . S
C1711 C1712 1.524 . S
C1711 C1715 1.400 . S
C1712 H1697 0.960 . S
C1712 H1698 0.960 . S
C1712 H1699 0.960 . S
C1712 C1711 1.524 . S
C1713 C1710 1.403 . S
C1713 C1714 1.392 . S
C1713 C1717 1.495 . S
C1714 C1713 1.392 . S
C1714 C1715 1.385 . S
C1714 C1716 1.478 . S
C1715 H1709 0.930 . S
C1715 C1711 1.400 . S
C1715 C1714 1.385 . S
C1716 C1714 1.478 . S
C1716 C1718 1.381 1_455 S
C1716 C1722 1.383 . S
C1717 C1713 1.495 . S
C1717 H1723 0.959 . S
C1717 H1724 0.961 . S
C1717 H1725 0.960 . S
C1718 C1716 1.381 1_655 S
C1718 C1719 1.394 . S
C1718 H1726 0.930 . S
C1719 C1718 1.394 . S
C1719 C1720 1.383 . S
C1719 H1727 0.929 . S
C1720 C1719 1.383 . S
C1720 C1721 1.377 . S
C1721 H1705 0.930 . S
C1721 C1720 1.377 . S
C1721 C1722 1.379 1_655 S
C1722 H1706 0.931 . S
C1722 C1716 1.383 . S
C1722 C1721 1.379 1_455 S
H1723 C1717 0.959 . S
H1724 C1717 0.961 . S
H1725 C1717 0.960 . S
H1726 C1718 0.930 . S
H1727 C1719 0.929 . S
H1728 C1736 0.929 . S
H1729 C1738 0.949 1_655 S
H1730 C1740 0.930 . S
H1731 C1743 0.929 . S
H1732 C1746 0.930 . S
H1733 C1748 0.960 . S
H1734 C1748 0.960 . S
H1735 C1748 0.960 . S
C1736 H1728 0.929 . S
C1736 C1737 1.377 . S
C1736 C1738 1.371 1_655 S
C1737 C1736 1.377 . S
C1737 C1743 1.390 1_655 S
C1738 H1729 0.949 1_455 S
C1738 C1736 1.371 1_455 S
C1738 C1739 1.380 . S
C1739 C1738 1.380 . S
C1739 C1740 1.400 . S
C1739 C1744 1.490 . S
C1740 H1730 0.930 . S
C1740 C1739 1.400 . S
C1740 C1743 1.386 . S
H1741 C1757 0.930 . S
H1742 C1758 0.931 . S
C1743 H1731 0.929 . S
C1743 C1737 1.390 1_455 S
C1743 C1740 1.386 . S
C1744 C1739 1.490 . S
C1744 C1746 1.395 . S
C1744 C1747 1.403 . S
H1745 C1751 0.930 . S
C1746 H1732 0.930 . S
C1746 C1744 1.395 . S
C1746 C1749 1.403 . S
C1747 C1744 1.403 . S
C1747 C1748 1.524 . S
C1747 C1751 1.400 . S
C1748 H1733 0.960 . S
C1748 H1734 0.960 . S
C1748 H1735 0.960 . S
C1748 C1747 1.524 . S
C1749 C1746 1.403 . S
C1749 C1750 1.392 . S
C1749 C1753 1.495 . S
C1750 C1749 1.392 . S
C1750 C1751 1.385 . S
C1750 C1752 1.478 . S
C1751 H1745 0.930 . S
C1751 C1747 1.400 . S
C1751 C1750 1.385 . S
C1752 C1750 1.478 . S
C1752 C1754 1.381 . S
C1752 C1758 1.383 . S
C1753 C1749 1.495 . S
C1753 H1759 0.959 . S
C1753 H1760 0.961 . S
C1753 H1761 0.960 . S
C1754 C1752 1.381 . S
C1754 C1755 1.394 . S
C1754 H1762 0.930 . S
C1755 C1754 1.394 . S
C1755 C1756 1.383 . S
C1755 H1763 0.929 . S
C1756 C1755 1.383 . S
C1756 C1757 1.377 . S
C1757 H1741 0.930 . S
C1757 C1756 1.377 . S
C1757 C1758 1.379 . S
C1758 H1742 0.931 . S
C1758 C1752 1.383 . S
C1758 C1757 1.379 . S
H1759 C1753 0.959 . S
H1760 C1753 0.961 . S
H1761 C1753 0.960 . S
H1762 C1754 0.930 . S
H1763 C1755 0.929 . S
H1764 C1772 0.929 . S
H1765 C1774 0.930 . S
H1766 C1776 0.930 . S
H1767 C1779 0.929 . S
H1768 C1782 0.930 . S
H1769 C1784 0.960 . S
H1770 C1784 0.960 . S
H1771 C1784 0.960 . S
C1772 H1764 0.929 . S
C1772 C1773 1.377 . S
C1772 C1774 1.384 . S
C1773 C1772 1.377 . S
C1773 C1779 1.390 . S
C1774 H1765 0.930 . S
C1774 C1772 1.384 . S
C1774 C1775 1.372 . S
C1775 C1774 1.372 . S
C1775 C1776 1.400 . S
C1775 C1780 1.490 . S
C1776 H1766 0.930 . S
C1776 C1775 1.400 . S
C1776 C1779 1.386 . S
H1777 C1793 0.930 . S
H1778 C1794 0.931 . S
C1779 H1767 0.929 . S
C1779 C1773 1.390 . S
C1779 C1776 1.386 . S
C1780 C1775 1.490 . S
C1780 C1782 1.395 . S
C1780 C1783 1.403 . S
H1781 C1787 0.930 . S
C1782 H1768 0.930 . S
C1782 C1780 1.395 . S
C1782 C1785 1.403 . S
C1783 C1780 1.403 . S
C1783 C1784 1.524 . S
C1783 C1787 1.400 . S
C1784 H1769 0.960 . S
C1784 H1770 0.960 . S
C1784 H1771 0.960 . S
C1784 C1783 1.524 . S
C1785 C1782 1.403 . S
C1785 C1786 1.392 . S
C1785 C1789 1.495 . S
C1786 C1785 1.392 . S
C1786 C1787 1.385 . S
C1786 C1788 1.478 . S
C1787 H1781 0.930 . S
C1787 C1783 1.400 . S
C1787 C1786 1.385 . S
C1788 C1786 1.478 . S
C1788 C1790 1.381 1_655 S
C1788 C1794 1.383 . S
C1789 C1785 1.495 . S
C1789 H1795 0.959 . S
C1789 H1796 0.961 . S
C1789 H1797 0.960 . S
C1790 C1788 1.381 1_455 S
C1790 C1791 1.394 . S
C1790 H1798 0.930 . S
C1791 C1790 1.394 . S
C1791 C1792 1.383 . S
C1791 H1799 0.929 . S
C1792 C1791 1.383 . S
C1792 C1793 1.377 . S
C1793 H1777 0.930 . S
C1793 C1792 1.377 . S
C1793 C1794 1.379 1_455 S
C1794 H1778 0.931 . S
C1794 C1788 1.383 . S
C1794 C1793 1.379 1_655 S
H1795 C1789 0.959 . S
H1796 C1789 0.961 . S
H1797 C1789 0.960 . S
H1798 C1790 0.930 . S
H1799 C1791 0.929 . S
H1800 C1808 0.929 . S
H1801 C1810 0.930 . S
H1802 C1812 0.930 . S
H1803 C1815 0.929 . S
H1804 C1818 0.930 . S
H1805 C1820 0.960 . S
H1806 C1820 0.960 . S
H1807 C1820 0.960 . S
C1808 H1800 0.929 . S
C1808 C1809 1.377 . S
C1808 C1810 1.384 . S
C1809 C1808 1.377 . S
C1809 C1815 1.390 . S
C1810 H1801 0.930 . S
C1810 C1808 1.384 . S
C1810 C1811 1.372 . S
C1811 C1810 1.372 . S
C1811 C1812 1.400 . S
C1811 C1816 1.490 . S
C1812 H1802 0.930 . S
C1812 C1811 1.400 . S
C1812 C1815 1.386 . S
H1813 C1829 0.930 . S
H1814 C1830 0.931 . S
C1815 H1803 0.929 . S
C1815 C1809 1.390 . S
C1815 C1812 1.386 . S
C1816 C1811 1.490 . S
C1816 C1818 1.395 . S
C1816 C1819 1.403 . S
H1817 C1823 0.930 . S
C1818 H1804 0.930 . S
C1818 C1816 1.395 . S
C1818 C1821 1.403 . S
C1819 C1816 1.403 . S
C1819 C1820 1.524 . S
C1819 C1823 1.400 . S
C1820 H1805 0.960 . S
C1820 H1806 0.960 . S
C1820 H1807 0.960 . S
C1820 C1819 1.524 . S
C1821 C1818 1.403 . S
C1821 C1822 1.392 . S
C1821 C1825 1.495 . S
C1822 C1821 1.392 . S
C1822 C1823 1.385 . S
C1822 C1824 1.478 . S
C1823 H1817 0.930 . S
C1823 C1819 1.400 . S
C1823 C1822 1.385 . S
C1824 C1822 1.478 . S
C1824 C1826 1.381 1_545 S
C1824 C1830 1.383 . S
C1825 C1821 1.495 . S
C1825 H1831 0.959 . S
C1825 H1832 0.961 . S
C1825 H1833 0.960 . S
C1826 C1824 1.381 1_565 S
C1826 C1827 1.394 . S
C1826 H1834 0.930 . S
C1827 C1826 1.394 . S
C1827 C1828 1.383 . S
C1827 H1835 0.929 . S
C1828 C1827 1.383 . S
C1828 C1829 1.377 1_565 S
C1829 H1813 0.930 . S
C1829 C1828 1.377 1_545 S
C1829 C1830 1.379 . S
C1830 H1814 0.931 . S
C1830 C1824 1.383 . S
C1830 C1829 1.379 . S
H1831 C1825 0.959 . S
H1832 C1825 0.961 . S
H1833 C1825 0.960 . S
H1834 C1826 0.930 . S
H1835 C1827 0.929 . S
H1836 C1844 0.929 . S
H1837 C1846 0.930 . S
H1838 C1848 0.930 . S
H1839 C1851 0.929 . S
H1840 C1854 0.930 . S
H1841 C1856 0.960 . S
H1842 C1856 0.960 . S
H1843 C1856 0.960 . S
C1844 H1836 0.929 . S
C1844 C1845 1.377 . S
C1844 C1846 1.384 . S
C1845 C1844 1.377 . S
C1845 C1851 1.390 . S
C1846 H1837 0.930 . S
C1846 C1844 1.384 . S
C1846 C1847 1.372 1_565 S
C1847 C1846 1.372 1_545 S
C1847 C1848 1.400 . S
C1847 C1852 1.490 . S
C1848 H1838 0.930 . S
C1848 C1847 1.400 . S
C1848 C1851 1.386 1_545 S
H1849 C1865 0.930 . S
H1850 C1866 0.931 . S
C1851 H1839 0.929 . S
C1851 C1845 1.390 . S
C1851 C1848 1.386 1_565 S
C1852 C1847 1.490 . S
C1852 C1854 1.395 . S
C1852 C1855 1.403 . S
H1853 C1859 0.930 . S
C1854 H1840 0.930 . S
C1854 C1852 1.395 . S
C1854 C1857 1.403 . S
C1855 C1852 1.403 . S
C1855 C1856 1.524 . S
C1855 C1859 1.400 . S
C1856 H1841 0.960 . S
C1856 H1842 0.960 . S
C1856 H1843 0.960 . S
C1856 C1855 1.524 . S
C1857 C1854 1.403 . S
C1857 C1858 1.392 . S
C1857 C1861 1.495 . S
C1858 C1857 1.392 . S
C1858 C1859 1.385 . S
C1858 C1860 1.478 . S
C1859 H1853 0.930 . S
C1859 C1855 1.400 . S
C1859 C1858 1.385 . S
C1860 C1858 1.478 . S
C1860 C1862 1.397 . S
C1860 C1866 1.383 . S
C1861 C1857 1.495 . S
C1861 H1867 0.959 . S
C1861 H1868 0.961 . S
C1861 H1869 0.960 . S
C1862 C1860 1.397 . S
C1862 C1863 1.386 1_655 S
C1862 H1870 0.937 . S
C1863 C1862 1.386 1_455 S
C1863 C1864 1.383 . S
C1863 H1871 0.929 . S
C1864 C1863 1.383 . S
C1864 C1865 1.377 . S
C1865 H1849 0.930 . S
C1865 C1864 1.377 . S
C1865 C1866 1.379 1_455 S
C1866 H1850 0.931 . S
C1866 C1860 1.383 . S
C1866 C1865 1.379 1_655 S
H1867 C1861 0.959 . S
H1868 C1861 0.961 . S
H1869 C1861 0.960 . S
H1870 C1862 0.937 . S
H1871 C1863 0.929 . S
H1872 C1880 0.929 . S
H1873 C1882 0.930 . S
H1874 C1884 0.930 . S
H1875 C1887 0.929 . S
H1876 C1890 0.930 . S
H1877 C1892 0.960 . S
H1878 C1892 0.960 . S
H1879 C1892 0.960 . S
C1880 H1872 0.929 . S
C1880 C1881 1.377 . S
C1880 C1882 1.384 . S
C1881 C1880 1.377 . S
C1881 C1887 1.390 . S
C1882 H1873 0.930 . S
C1882 C1880 1.384 . S
C1882 C1883 1.372 . S
C1883 C1882 1.372 . S
C1883 C1884 1.400 . S
C1883 C1888 1.490 . S
C1884 H1874 0.930 . S
C1884 C1883 1.400 . S
C1884 C1887 1.386 . S
H1885 C1901 0.930 . S
H1886 C1902 0.931 . S
C1887 H1875 0.929 . S
C1887 C1881 1.390 . S
C1887 C1884 1.386 . S
C1888 C1883 1.490 . S
C1888 C1890 1.395 . S
C1888 C1891 1.403 . S
H1889 C1895 0.930 . S
C1890 H1876 0.930 . S
C1890 C1888 1.395 . S
C1890 C1893 1.403 . S
C1891 C1888 1.403 . S
C1891 C1892 1.524 . S
C1891 C1895 1.400 . S
C1892 H1877 0.960 . S
C1892 H1878 0.960 . S
C1892 H1879 0.960 . S
C1892 C1891 1.524 . S
C1893 C1890 1.403 . S
C1893 C1894 1.392 . S
C1893 C1897 1.495 . S
C1894 C1893 1.392 . S
C1894 C1895 1.385 . S
C1894 C1896 1.478 . S
C1895 H1889 0.930 . S
C1895 C1891 1.400 . S
C1895 C1894 1.385 . S
C1896 C1894 1.478 . S
C1896 C1898 1.381 . S
C1896 C1902 1.383 . S
C1897 C1893 1.495 . S
C1897 H1903 0.959 . S
C1897 H1904 0.961 . S
C1897 H1905 0.960 . S
C1898 C1896 1.381 . S
C1898 C1899 1.394 . S
C1898 H1906 0.930 . S
C1899 C1898 1.394 . S
C1899 C1900 1.383 . S
C1899 H1907 0.929 . S
C1900 C1899 1.383 . S
C1900 C1901 1.377 . S
C1901 H1885 0.930 . S
C1901 C1900 1.377 . S
C1901 C1902 1.379 . S
C1902 H1886 0.931 . S
C1902 C1896 1.383 . S
C1902 C1901 1.379 . S
H1903 C1897 0.959 . S
H1904 C1897 0.961 . S
H1905 C1897 0.960 . S
H1906 C1898 0.930 . S
H1907 C1899 0.929 . S
H1908 C1916 0.929 . S
H1909 C1918 0.930 . S
H1910 C1920 0.930 . S
H1911 C1923 0.929 . S
H1912 C1926 0.930 . S
H1913 C1928 0.960 . S
H1914 C1928 0.960 . S
H1915 C1928 0.960 . S
C1916 H1908 0.929 . S
C1916 C1917 1.377 . S
C1916 C1918 1.384 . S
C1917 C1916 1.377 . S
C1917 C1923 1.390 . S
C1918 H1909 0.930 . S
C1918 C1916 1.384 . S
C1918 C1919 1.372 . S
C1919 C1918 1.372 . S
C1919 C1920 1.400 . S
C1919 C1924 1.490 . S
C1920 H1910 0.930 . S
C1920 C1919 1.400 . S
C1920 C1923 1.386 . S
H1921 C1937 0.930 . S
H1922 C1938 0.931 . S
C1923 H1911 0.929 . S
C1923 C1917 1.390 . S
C1923 C1920 1.386 . S
C1924 C1919 1.490 . S
C1924 C1926 1.395 . S
C1924 C1927 1.403 . S
H1925 C1931 0.930 . S
C1926 H1912 0.930 . S
C1926 C1924 1.395 . S
C1926 C1929 1.403 . S
C1927 C1924 1.403 . S
C1927 C1928 1.524 . S
C1927 C1931 1.400 . S
C1928 H1913 0.960 . S
C1928 H1914 0.960 . S
C1928 H1915 0.960 . S
C1928 C1927 1.524 . S
C1929 C1926 1.403 . S
C1929 C1930 1.392 . S
C1929 C1933 1.495 . S
C1930 C1929 1.392 . S
C1930 C1931 1.385 . S
C1930 C1932 1.478 . S
C1931 H1925 0.930 . S
C1931 C1927 1.400 . S
C1931 C1930 1.385 . S
C1932 C1930 1.478 . S
C1932 C1934 1.381 . S
C1932 C1938 1.383 . S
C1933 C1929 1.495 . S
C1933 H1939 0.959 . S
C1933 H1940 0.961 . S
C1933 H1941 0.960 . S
C1934 C1932 1.381 . S
C1934 C1935 1.394 . S
C1934 H1942 0.930 . S
C1935 C1934 1.394 . S
C1935 C1936 1.383 . S
C1935 H1943 0.929 . S
C1936 C1935 1.383 . S
C1936 C1937 1.377 . S
C1937 H1921 0.930 . S
C1937 C1936 1.377 . S
C1937 C1938 1.379 . S
C1938 H1922 0.931 . S
C1938 C1932 1.383 . S
C1938 C1937 1.379 . S
H1939 C1933 0.959 . S
H1940 C1933 0.961 . S
H1941 C1933 0.960 . S
H1942 C1934 0.930 . S
H1943 C1935 0.929 . S
H1944 C1952 0.929 . S
H1945 C1954 0.930 . S
H1946 C1956 0.930 . S
H1947 C1959 0.929 . S
H1948 C1962 0.930 . S
H1949 C1964 0.960 . S
H1950 C1964 0.960 . S
H1951 C1964 0.960 . S
C1952 H1944 0.929 . S
C1952 C1953 1.377 . S
C1952 C1954 1.384 . S
C1953 C1952 1.377 . S
C1953 C1959 1.390 . S
C1954 H1945 0.930 . S
C1954 C1952 1.384 . S
C1954 C1955 1.372 . S
C1955 C1954 1.372 . S
C1955 C1956 1.400 . S
C1955 C1960 1.490 . S
C1956 H1946 0.930 . S
C1956 C1955 1.400 . S
C1956 C1959 1.386 . S
H1957 C1973 0.930 . S
H1958 C1974 0.931 . S
C1959 H1947 0.929 . S
C1959 C1953 1.390 . S
C1959 C1956 1.386 . S
C1960 C1955 1.490 . S
C1960 C1962 1.395 . S
C1960 C1963 1.403 . S
H1961 C1967 0.930 . S
C1962 H1948 0.930 . S
C1962 C1960 1.395 . S
C1962 C1965 1.403 . S
C1963 C1960 1.403 . S
C1963 C1964 1.524 . S
C1963 C1967 1.400 . S
C1964 H1949 0.960 . S
C1964 H1950 0.960 . S
C1964 H1951 0.960 . S
C1964 C1963 1.524 . S
C1965 C1962 1.403 . S
C1965 C1966 1.392 . S
C1965 C1969 1.495 . S
C1966 C1965 1.392 . S
C1966 C1967 1.385 . S
C1966 C1968 1.478 . S
C1967 H1961 0.930 . S
C1967 C1963 1.400 . S
C1967 C1966 1.385 . S
C1968 C1966 1.478 . S
C1968 C1970 1.381 . S
C1968 C1974 1.383 . S
C1969 C1965 1.495 . S
C1969 H1975 0.959 . S
C1969 H1976 0.961 . S
C1969 H1977 0.960 . S
C1970 C1968 1.381 . S
C1970 C1971 1.394 . S
C1970 H1978 0.930 . S
C1971 C1970 1.394 . S
C1971 C1972 1.383 . S
C1971 H1979 0.929 . S
C1972 C1971 1.383 . S
C1972 C1973 1.377 . S
C1973 H1957 0.930 . S
C1973 C1972 1.377 . S
C1973 C1974 1.379 . S
C1974 H1958 0.931 . S
C1974 C1968 1.383 . S
C1974 C1973 1.379 . S
H1975 C1969 0.959 . S
H1976 C1969 0.961 . S
H1977 C1969 0.960 . S
H1978 C1970 0.930 . S
H1979 C1971 0.929 . S
H1980 C1988 0.929 . S
H1981 C1990 0.930 . S
H1982 C1992 0.930 . S
H1983 C1995 0.929 . S
H1984 C1998 0.930 . S
H1985 C2000 0.960 . S
H1986 C2000 0.960 . S
H1987 C2000 0.960 . S
C1988 H1980 0.929 . S
C1988 C1989 1.377 . S
C1988 C1990 1.384 . S
C1989 C1988 1.377 . S
C1989 C1995 1.390 . S
C1990 H1981 0.930 . S
C1990 C1988 1.384 . S
C1990 C1991 1.372 . S
C1991 C1990 1.372 . S
C1991 C1992 1.400 . S
C1991 C1996 1.490 . S
C1992 H1982 0.930 . S
C1992 C1991 1.400 . S
C1992 C1995 1.386 . S
H1993 C2009 0.930 . S
H1994 C2010 0.931 . S
C1995 H1983 0.929 . S
C1995 C1989 1.390 . S
C1995 C1992 1.386 . S
C1996 C1991 1.490 . S
C1996 C1998 1.395 . S
C1996 C1999 1.403 . S
H1997 C2003 0.930 . S
C1998 H1984 0.930 . S
C1998 C1996 1.395 . S
C1998 C2001 1.403 . S
C1999 C1996 1.403 . S
C1999 C2000 1.524 . S
C1999 C2003 1.400 . S
C2000 H1985 0.960 . S
C2000 H1986 0.960 . S
C2000 H1987 0.960 . S
C2000 C1999 1.524 . S
C2001 C1998 1.403 . S
C2001 C2002 1.392 . S
C2001 C2005 1.495 . S
C2002 C2001 1.392 . S
C2002 C2003 1.385 . S
C2002 C2004 1.478 . S
C2003 H1997 0.930 . S
C2003 C1999 1.400 . S
C2003 C2002 1.385 . S
C2004 C2002 1.478 . S
C2004 C2006 1.381 . S
C2004 C2010 1.383 . S
C2005 C2001 1.495 . S
C2005 H2011 0.959 . S
C2005 H2012 0.961 . S
C2005 H2013 0.960 . S
C2006 C2004 1.381 . S
C2006 C2007 1.394 . S
C2006 H2014 0.930 . S
C2007 C2006 1.394 . S
C2007 C2008 1.383 . S
C2007 H2015 0.929 . S
C2008 C2007 1.383 . S
C2008 C2009 1.377 . S
C2009 H1993 0.930 . S
C2009 C2008 1.377 . S
C2009 C2010 1.379 . S
C2010 H1994 0.931 . S
C2010 C2004 1.383 . S
C2010 C2009 1.379 . S
H2011 C2005 0.959 . S
H2012 C2005 0.961 . S
H2013 C2005 0.960 . S
H2014 C2006 0.930 . S
H2015 C2007 0.929 . S
H2016 C2024 0.929 . S
H2017 C2026 0.930 . S
H2018 C2028 0.930 . S
H2019 C2031 0.929 . S
H2020 C2034 0.930 . S
H2021 C2036 0.960 . S
H2022 C2036 0.960 . S
H2023 C2036 0.960 . S
C2024 H2016 0.929 . S
C2024 C2025 1.377 . S
C2024 C2026 1.384 . S
C2025 C2024 1.377 . S
C2025 C2031 1.390 . S
C2026 H2017 0.930 . S
C2026 C2024 1.384 . S
C2026 C2027 1.372 . S
C2027 C2026 1.372 . S
C2027 C2028 1.400 . S
C2027 C2032 1.490 . S
C2028 H2018 0.930 . S
C2028 C2027 1.400 . S
C2028 C2031 1.386 . S
H2029 C2045 0.930 . S
H2030 C2046 0.931 . S
C2031 H2019 0.929 . S
C2031 C2025 1.390 . S
C2031 C2028 1.386 . S
C2032 C2027 1.490 . S
C2032 C2034 1.395 . S
C2032 C2035 1.403 . S
H2033 C2039 0.930 . S
C2034 H2020 0.930 . S
C2034 C2032 1.395 . S
C2034 C2037 1.403 . S
C2035 C2032 1.403 . S
C2035 C2036 1.524 . S
C2035 C2039 1.400 . S
C2036 H2021 0.960 . S
C2036 H2022 0.960 . S
C2036 H2023 0.960 . S
C2036 C2035 1.524 . S
C2037 C2034 1.403 . S
C2037 C2038 1.392 . S
C2037 C2041 1.495 . S
C2038 C2037 1.392 . S
C2038 C2039 1.385 . S
C2038 C2040 1.478 . S
C2039 H2033 0.930 . S
C2039 C2035 1.400 . S
C2039 C2038 1.385 . S
C2040 C2038 1.478 . S
C2040 C2042 1.381 . S
C2040 C2046 1.383 . S
C2041 C2037 1.495 . S
C2041 H2047 0.959 . S
C2041 H2048 0.961 . S
C2041 H2049 0.960 . S
C2042 C2040 1.381 . S
C2042 C2043 1.394 . S
C2042 H2050 0.930 . S
C2043 C2042 1.394 . S
C2043 C2044 1.383 . S
C2043 H2051 0.929 . S
C2044 C2043 1.383 . S
C2044 C2045 1.377 . S
C2045 H2029 0.930 . S
C2045 C2044 1.377 . S
C2045 C2046 1.379 . S
C2046 H2030 0.931 . S
C2046 C2040 1.383 . S
C2046 C2045 1.379 . S
H2047 C2041 0.959 . S
H2048 C2041 0.961 . S
H2049 C2041 0.960 . S
H2050 C2042 0.930 . S
H2051 C2043 0.929 . S
H2052 C2060 0.929 . S
H2053 C2062 0.930 . S
H2054 C2064 0.930 . S
H2055 C2067 0.929 . S
H2056 C2070 0.930 . S
H2057 C2072 0.960 . S
H2058 C2072 0.960 . S
H2059 C2072 0.960 . S
C2060 H2052 0.929 . S
C2060 C2061 1.377 . S
C2060 C2062 1.384 . S
C2061 C2060 1.377 . S
C2061 C2067 1.390 . S
C2062 H2053 0.930 . S
C2062 C2060 1.384 . S
C2062 C2063 1.372 . S
C2063 C2062 1.372 . S
C2063 C2064 1.400 . S
C2063 C2068 1.490 . S
C2064 H2054 0.930 . S
C2064 C2063 1.400 . S
C2064 C2067 1.386 . S
H2065 C2081 0.930 . S
H2066 C2082 0.931 . S
C2067 H2055 0.929 . S
C2067 C2061 1.390 . S
C2067 C2064 1.386 . S
C2068 C2063 1.490 . S
C2068 C2070 1.395 . S
C2068 C2071 1.403 . S
H2069 C2075 0.930 . S
C2070 H2056 0.930 . S
C2070 C2068 1.395 . S
C2070 C2073 1.403 . S
C2071 C2068 1.403 . S
C2071 C2072 1.524 . S
C2071 C2075 1.400 . S
C2072 H2057 0.960 . S
C2072 H2058 0.960 . S
C2072 H2059 0.960 . S
C2072 C2071 1.524 . S
C2073 C2070 1.403 . S
C2073 C2074 1.392 . S
C2073 C2077 1.495 . S
C2074 C2073 1.392 . S
C2074 C2075 1.385 . S
C2074 C2076 1.478 . S
C2075 H2069 0.930 . S
C2075 C2071 1.400 . S
C2075 C2074 1.385 . S
C2076 C2074 1.478 . S
C2076 C2078 1.381 . S
C2076 C2082 1.383 . S
C2077 C2073 1.495 . S
C2077 H2083 0.959 . S
C2077 H2084 0.961 . S
C2077 H2085 0.960 . S
C2078 C2076 1.381 . S
C2078 C2079 1.394 . S
C2078 H2086 0.930 . S
C2079 C2078 1.394 . S
C2079 C2080 1.383 . S
C2079 H2087 0.929 . S
C2080 C2079 1.383 . S
C2080 C2081 1.377 . S
C2081 H2065 0.930 . S
C2081 C2080 1.377 . S
C2081 C2082 1.379 . S
C2082 H2066 0.931 . S
C2082 C2076 1.383 . S
C2082 C2081 1.379 . S
H2083 C2077 0.959 . S
H2084 C2077 0.961 . S
H2085 C2077 0.960 . S
H2086 C2078 0.930 . S
H2087 C2079 0.929 . S
H2088 C2096 0.929 . S
H2089 C2098 0.930 . S
H2090 C2100 0.930 . S
H2091 C2103 0.929 . S
H2092 C2106 0.930 . S
H2093 C2108 0.960 . S
H2094 C2108 0.960 . S
H2095 C2108 0.960 . S
C2096 H2088 0.929 . S
C2096 C2097 1.377 . S
C2096 C2098 1.384 . S
C2097 C2096 1.377 . S
C2097 C2103 1.390 . S
C2098 H2089 0.930 . S
C2098 C2096 1.384 . S
C2098 C2099 1.372 . S
C2099 C2098 1.372 . S
C2099 C2100 1.400 . S
C2099 C2104 1.490 . S
C2100 H2090 0.930 . S
C2100 C2099 1.400 . S
C2100 C2103 1.386 . S
H2101 C2117 0.930 . S
H2102 C2118 0.931 . S
C2103 H2091 0.929 . S
C2103 C2097 1.390 . S
C2103 C2100 1.386 . S
C2104 C2099 1.490 . S
C2104 C2106 1.395 . S
C2104 C2107 1.403 . S
H2105 C2111 0.930 . S
C2106 H2092 0.930 . S
C2106 C2104 1.395 . S
C2106 C2109 1.403 . S
C2107 C2104 1.403 . S
C2107 C2108 1.524 . S
C2107 C2111 1.400 . S
C2108 H2093 0.960 . S
C2108 H2094 0.960 . S
C2108 H2095 0.960 . S
C2108 C2107 1.524 . S
C2109 C2106 1.403 . S
C2109 C2110 1.392 . S
C2109 C2113 1.495 . S
C2110 C2109 1.392 . S
C2110 C2111 1.385 . S
C2110 C2112 1.478 . S
C2111 H2105 0.930 . S
C2111 C2107 1.400 . S
C2111 C2110 1.385 . S
C2112 C2110 1.478 . S
C2112 C2114 1.381 . S
C2112 C2118 1.383 . S
C2113 C2109 1.495 . S
C2113 H2119 0.959 . S
C2113 H2120 0.961 . S
C2113 H2121 0.960 . S
C2114 C2112 1.381 . S
C2114 C2115 1.394 . S
C2114 H2122 0.930 . S
C2115 C2114 1.394 . S
C2115 C2116 1.383 . S
C2115 H2123 0.929 . S
C2116 C2115 1.383 . S
C2116 C2117 1.377 . S
C2117 H2101 0.930 . S
C2117 C2116 1.377 . S
C2117 C2118 1.379 . S
C2118 H2102 0.931 . S
C2118 C2112 1.383 . S
C2118 C2117 1.379 . S
H2119 C2113 0.959 . S
H2120 C2113 0.961 . S
H2121 C2113 0.960 . S
H2122 C2114 0.930 . S
H2123 C2115 0.929 . S
H2124 C2132 0.929 . S
H2125 C2134 0.930 . S
H2126 C2136 0.930 . S
H2127 C2139 0.929 . S
H2128 C2142 0.930 . S
H2129 C2144 0.960 . S
H2130 C2144 0.960 . S
H2131 C2144 0.960 . S
C2132 H2124 0.929 . S
C2132 C2133 1.377 . S
C2132 C2134 1.384 . S
C2133 C2132 1.377 . S
C2133 C2139 1.390 . S
C2134 H2125 0.930 . S
C2134 C2132 1.384 . S
C2134 C2135 1.372 . S
C2135 C2134 1.372 . S
C2135 C2136 1.400 . S
C2135 C2140 1.490 . S
C2136 H2126 0.930 . S
C2136 C2135 1.400 . S
C2136 C2139 1.386 . S
H2137 C2153 0.930 . S
H2138 C2154 0.931 . S
C2139 H2127 0.929 . S
C2139 C2133 1.390 . S
C2139 C2136 1.386 . S
C2140 C2135 1.490 . S
C2140 C2142 1.395 . S
C2140 C2143 1.403 . S
H2141 C2147 0.930 . S
C2142 H2128 0.930 . S
C2142 C2140 1.395 . S
C2142 C2145 1.403 . S
C2143 C2140 1.403 . S
C2143 C2144 1.524 . S
C2143 C2147 1.400 . S
C2144 H2129 0.960 . S
C2144 H2130 0.960 . S
C2144 H2131 0.960 . S
C2144 C2143 1.524 . S
C2145 C2142 1.403 . S
C2145 C2146 1.392 . S
C2145 C2149 1.495 . S
C2146 C2145 1.392 . S
C2146 C2147 1.385 . S
C2146 C2148 1.478 . S
C2147 H2141 0.930 . S
C2147 C2143 1.400 . S
C2147 C2146 1.385 . S
C2148 C2146 1.478 . S
C2148 C2150 1.381 . S
C2148 C2154 1.383 . S
C2149 C2145 1.495 . S
C2149 H2155 0.959 . S
C2149 H2156 0.961 . S
C2149 H2157 0.960 . S
C2150 C2148 1.381 . S
C2150 C2151 1.394 . S
C2150 H2158 0.930 . S
C2151 C2150 1.394 . S
C2151 C2152 1.383 . S
C2151 H2159 0.929 . S
C2152 C2151 1.383 . S
C2152 C2153 1.377 . S
C2153 H2137 0.930 . S
C2153 C2152 1.377 . S
C2153 C2154 1.379 . S
C2154 H2138 0.931 . S
C2154 C2148 1.383 . S
C2154 C2153 1.379 . S
H2155 C2149 0.959 . S
H2156 C2149 0.961 . S
H2157 C2149 0.960 . S
H2158 C2150 0.930 . S
H2159 C2151 0.929 . S
H2160 C2168 0.929 . S
H2161 C2170 0.930 . S
H2162 C2172 0.930 . S
H2163 C2175 0.929 . S
H2164 C2178 0.930 . S
H2165 C2180 0.960 . S
H2166 C2180 0.960 . S
H2167 C2180 0.960 . S
C2168 H2160 0.929 . S
C2168 C2169 1.377 . S
C2168 C2170 1.384 . S
C2169 C2168 1.377 . S
C2169 C2175 1.390 . S
C2170 H2161 0.930 . S
C2170 C2168 1.384 . S
C2170 C2171 1.372 . S
C2171 C2170 1.372 . S
C2171 C2172 1.400 . S
C2171 C2176 1.490 . S
C2172 H2162 0.930 . S
C2172 C2171 1.400 . S
C2172 C2175 1.386 . S
H2173 C2189 0.930 . S
H2174 C2190 0.931 . S
C2175 H2163 0.929 . S
C2175 C2169 1.390 . S
C2175 C2172 1.386 . S
C2176 C2171 1.490 . S
C2176 C2178 1.395 . S
C2176 C2179 1.403 . S
H2177 C2183 0.930 . S
C2178 H2164 0.930 . S
C2178 C2176 1.395 . S
C2178 C2181 1.403 . S
C2179 C2176 1.403 . S
C2179 C2180 1.524 . S
C2179 C2183 1.400 . S
C2180 H2165 0.960 . S
C2180 H2166 0.960 . S
C2180 H2167 0.960 . S
C2180 C2179 1.524 . S
C2181 C2178 1.403 . S
C2181 C2182 1.392 . S
C2181 C2185 1.495 . S
C2182 C2181 1.392 . S
C2182 C2183 1.385 . S
C2182 C2184 1.478 . S
C2183 H2177 0.930 . S
C2183 C2179 1.400 . S
C2183 C2182 1.385 . S
C2184 C2182 1.478 . S
C2184 C2186 1.381 . S
C2184 C2190 1.383 . S
C2185 C2181 1.495 . S
C2185 H2191 0.959 . S
C2185 H2192 0.961 . S
C2185 H2193 0.960 . S
C2186 C2184 1.381 . S
C2186 C2187 1.394 . S
C2186 H2194 0.930 . S
C2187 C2186 1.394 . S
C2187 C2188 1.383 . S
C2187 H2195 0.929 . S
C2188 C2187 1.383 . S
C2188 C2189 1.377 . S
C2189 H2173 0.930 . S
C2189 C2188 1.377 . S
C2189 C2190 1.379 . S
C2190 H2174 0.931 . S
C2190 C2184 1.383 . S
C2190 C2189 1.379 . S
H2191 C2185 0.959 . S
H2192 C2185 0.961 . S
H2193 C2185 0.960 . S
H2194 C2186 0.930 . S
H2195 C2187 0.929 . S
H2196 C2204 0.929 . S
H2197 C2206 0.930 . S
H2198 C2208 0.930 . S
H2199 C2211 0.929 . S
H2200 C2214 0.930 . S
H2201 C2216 0.959 1_556 S
H2202 C2216 0.961 1_556 S
H2203 C2216 0.959 . S
C2204 H2196 0.929 . S
C2204 C2205 1.377 1_556 S
C2204 C2206 1.384 . S
C2205 C2204 1.377 1_554 S
C2205 C2211 1.390 . S
C2206 H2197 0.930 . S
C2206 C2204 1.384 . S
C2206 C2207 1.372 1_556 S
C2207 C2206 1.372 1_554 S
C2207 C2208 1.400 . S
C2207 C2212 1.490 . S
C2208 H2198 0.930 . S
C2208 C2207 1.400 . S
C2208 C2211 1.386 . S
H2209 C2225 0.930 . S
H2210 C2226 0.931 . S
C2211 H2199 0.929 . S
C2211 C2205 1.390 . S
C2211 C2208 1.386 . S
C2212 C2207 1.490 . S
C2212 C2214 1.395 . S
C2212 C2215 1.426 . S
H2213 C2219 0.928 . S
C2214 H2200 0.930 . S
C2214 C2212 1.395 . S
C2214 C2217 1.403 . S
C2215 C2212 1.426 . S
C2215 C2216 1.515 . S
C2215 C2219 1.400 . S
C2216 H2201 0.959 1_554 S
C2216 H2202 0.961 1_554 S
C2216 H2203 0.959 . S
C2216 C2215 1.515 . S
C2217 C2214 1.403 . S
C2217 C2218 1.392 . S
C2217 C2221 1.495 . S
C2218 C2217 1.392 . S
C2218 C2219 1.401 . S
C2218 C2220 1.478 . S
C2219 H2213 0.928 . S
C2219 C2215 1.400 . S
C2219 C2218 1.401 . S
C2220 C2218 1.478 . S
C2220 C2222 1.381 1_554 S
C2220 C2226 1.383 . S
C2221 C2217 1.495 . S
C2221 H2227 0.959 . S
C2221 H2228 0.961 . S
C2221 H2229 0.960 1_554 S
C2222 C2220 1.381 1_556 S
C2222 C2223 1.394 . S
C2222 H2230 0.930 . S
C2223 C2222 1.394 . S
C2223 C2224 1.316 1_556 S
C2223 H2231 0.929 . S
C2224 C2223 1.316 1_554 S
C2224 C2225 1.450 . S
C2225 H2209 0.930 . S
C2225 C2224 1.450 . S
C2225 C2226 1.379 . S
C2226 H2210 0.931 . S
C2226 C2220 1.383 . S
C2226 C2225 1.379 . S
H2227 C2221 0.959 . S
H2228 C2221 0.961 . S
H2229 C2221 0.960 1_556 S
H2230 C2222 0.930 . S
H2231 C2223 0.929 . S
H2232 C2240 0.929 . S
H2233 C2242 0.930 . S
H2234 C2244 0.930 . S
H2235 C2247 0.929 . S
H2236 C2250 0.930 . S
H2237 C2252 0.960 . S
H2238 C2252 0.960 . S
H2239 C2252 0.960 . S
C2240 H2232 0.929 . S
C2240 C2241 1.438 . S
C2240 C2242 1.384 . S
C2241 C2240 1.438 . S
C2241 C2247 1.334 1_554 S
C2242 H2233 0.930 . S
C2242 C2240 1.384 . S
C2242 C2243 1.372 . S
C2243 C2242 1.372 . S
C2243 C2244 1.400 1_554 S
C2243 C2248 1.490 . S
C2244 H2234 0.930 . S
C2244 C2243 1.400 1_556 S
C2244 C2247 1.386 . S
H2245 C2261 0.930 . S
H2246 C2262 0.931 . S
C2247 H2235 0.929 . S
C2247 C2241 1.334 1_556 S
C2247 C2244 1.386 . S
C2248 C2243 1.490 . S
C2248 C2250 1.395 . S
C2248 C2251 1.403 1_554 S
H2249 C2255 0.930 . S
C2250 H2236 0.930 . S
C2250 C2248 1.395 . S
C2250 C2253 1.403 . S
C2251 C2248 1.403 1_556 S
C2251 C2252 1.524 . S
C2251 C2255 1.400 . S
C2252 H2237 0.960 . S
C2252 H2238 0.960 . S
C2252 H2239 0.960 . S
C2252 C2251 1.524 . S
C2253 C2250 1.403 . S
C2253 C2254 1.392 . S
C2253 C2257 1.495 . S
C2254 C2253 1.392 . S
C2254 C2255 1.385 1_554 S
C2254 C2256 1.478 . S
C2255 H2249 0.930 . S
C2255 C2251 1.400 . S
C2255 C2254 1.385 1_556 S
C2256 C2254 1.478 . S
C2256 C2258 1.381 . S
C2256 C2262 1.383 1_554 S
C2257 C2253 1.495 . S
C2257 H2263 0.959 . S
C2257 H2264 0.961 . S
C2257 H2265 0.960 . S
C2258 C2256 1.381 . S
C2258 C2259 1.394 . S
C2258 H2266 0.930 . S
C2259 C2258 1.394 . S
C2259 C2260 1.383 . S
C2259 H2267 0.929 . S
C2260 C2259 1.383 . S
C2260 C2261 1.377 1_554 S
C2261 H2245 0.930 . S
C2261 C2260 1.377 1_556 S
C2261 C2262 1.379 . S
C2262 H2246 0.931 . S
C2262 C2256 1.383 1_556 S
C2262 C2261 1.379 . S
H2263 C2257 0.959 . S
H2264 C2257 0.961 . S
H2265 C2257 0.960 . S
H2266 C2258 0.930 . S
H2267 C2259 0.929 . S
H2268 C2276 0.929 . S
H2269 C2278 0.930 . S
H2270 C2280 0.930 . S
H2271 C2283 0.929 . S
H2272 C2286 0.930 . S
H2273 C2288 0.960 . S
H2274 C2288 0.858 1_554 S
H2275 C2288 0.960 . S
C2276 H2268 0.929 . S
C2276 C2277 1.377 . S
C2276 C2278 1.384 . S
C2277 C2276 1.377 . S
C2277 C2283 1.390 1_554 S
C2278 H2269 0.930 . S
C2278 C2276 1.384 . S
C2278 C2279 1.372 . S
C2279 C2278 1.372 . S
C2279 C2280 1.400 1_554 S
C2279 C2284 1.490 . S
C2280 H2270 0.930 . S
C2280 C2279 1.400 1_556 S
C2280 C2283 1.386 . S
H2281 C2297 0.930 . S
H2282 C2298 0.931 . S
C2283 H2271 0.929 . S
C2283 C2277 1.390 1_556 S
C2283 C2280 1.386 . S
C2284 C2279 1.490 . S
C2284 C2286 1.395 . S
C2284 C2287 1.389 1_554 S
H2285 C2291 0.956 . S
C2286 H2272 0.930 . S
C2286 C2284 1.395 . S
C2286 C2289 1.403 . S
C2287 C2284 1.389 1_556 S
C2287 C2288 1.537 . S
C2287 C2291 1.400 . S
C2288 H2273 0.960 . S
C2288 H2274 0.858 1_556 S
C2288 H2275 0.960 . S
C2288 C2287 1.537 . S
C2289 C2286 1.403 . S
C2289 C2290 1.392 . S
C2289 C2293 1.495 . S
C2290 C2289 1.392 . S
C2290 C2291 1.365 1_554 S
C2290 C2292 1.478 . S
C2291 H2285 0.956 . S
C2291 C2287 1.400 . S
C2291 C2290 1.365 1_556 S
C2292 C2290 1.478 . S
C2292 C2294 1.381 . S
C2292 C2298 1.383 1_554 S
C2293 C2289 1.495 . S
C2293 H2299 0.959 . S
C2293 H2300 0.961 . S
C2293 H2301 0.960 . S
C2294 C2292 1.381 . S
C2294 C2295 1.394 . S
C2294 H2302 0.930 . S
C2295 C2294 1.394 . S
C2295 C2296 1.482 . S
C2295 H2303 0.929 . S
C2296 C2295 1.482 . S
C2296 C2297 1.289 1_554 S
C2297 H2281 0.930 . S
C2297 C2296 1.289 1_556 S
C2297 C2298 1.379 . S
C2298 H2282 0.931 . S
C2298 C2292 1.383 1_556 S
C2298 C2297 1.379 . S
H2299 C2293 0.959 . S
H2300 C2293 0.961 . S
H2301 C2293 0.960 . S
H2302 C2294 0.930 . S
H2303 C2295 0.929 . S
H2304 C2312 0.929 . S
H2305 C2314 0.930 . S
H2306 C2316 0.930 . S
H2307 C2319 0.929 . S
H2308 C2322 0.930 . S
H2309 C2324 0.960 . S
H2310 C2324 0.960 . S
H2311 C2324 0.960 . S
C2312 H2304 0.929 . S
C2312 C2313 1.377 . S
C2312 C2314 1.384 . S
C2313 C2312 1.377 . S
C2313 C2319 1.390 . S
C2314 H2305 0.930 . S
C2314 C2312 1.384 . S
C2314 C2315 1.372 . S
C2315 C2314 1.372 . S
C2315 C2316 1.400 . S
C2315 C2320 1.490 . S
C2316 H2306 0.930 . S
C2316 C2315 1.400 . S
C2316 C2319 1.386 . S
H2317 C2333 0.930 . S
H2318 C2334 0.931 . S
C2319 H2307 0.929 . S
C2319 C2313 1.390 . S
C2319 C2316 1.386 . S
C2320 C2315 1.490 . S
C2320 C2322 1.395 . S
C2320 C2323 1.403 . S
H2321 C2327 0.930 . S
C2322 H2308 0.930 . S
C2322 C2320 1.395 . S
C2322 C2325 1.403 . S
C2323 C2320 1.403 . S
C2323 C2324 1.524 . S
C2323 C2327 1.400 . S
C2324 H2309 0.960 . S
C2324 H2310 0.960 . S
C2324 H2311 0.960 . S
C2324 C2323 1.524 . S
C2325 C2322 1.403 . S
C2325 C2326 1.392 . S
C2325 C2329 1.495 . S
C2326 C2325 1.392 . S
C2326 C2327 1.385 . S
C2326 C2328 1.478 . S
C2327 H2321 0.930 . S
C2327 C2323 1.400 . S
C2327 C2326 1.385 . S
C2328 C2326 1.478 . S
C2328 C2330 1.381 . S
C2328 C2334 1.383 . S
C2329 C2325 1.495 . S
C2329 H2335 0.959 . S
C2329 H2336 0.961 . S
C2329 H2337 0.960 . S
C2330 C2328 1.381 . S
C2330 C2331 1.394 . S
C2330 H2338 0.930 . S
C2331 C2330 1.394 . S
C2331 C2332 1.383 . S
C2331 H2339 0.929 . S
C2332 C2331 1.383 . S
C2332 C2333 1.377 . S
C2333 H2317 0.930 . S
C2333 C2332 1.377 . S
C2333 C2334 1.379 . S
C2334 H2318 0.931 . S
C2334 C2328 1.383 . S
C2334 C2333 1.379 . S
H2335 C2329 0.959 . S
H2336 C2329 0.961 . S
H2337 C2329 0.960 . S
H2338 C2330 0.930 . S
H2339 C2331 0.929 . S
H2340 C2348 0.929 . S
H2341 C2350 0.930 . S
H2342 C2352 0.930 . S
H2343 C2355 0.929 . S
H2344 C2358 0.930 . S
H2345 C2360 0.960 . S
H2346 C2360 0.960 . S
H2347 C2360 0.960 . S
C2348 H2340 0.929 . S
C2348 C2349 1.377 . S
C2348 C2350 1.384 . S
C2349 C2348 1.377 . S
C2349 C2355 1.390 . S
C2350 H2341 0.930 . S
C2350 C2348 1.384 . S
C2350 C2351 1.372 . S
C2351 C2350 1.372 . S
C2351 C2352 1.400 . S
C2351 C2356 1.490 . S
C2352 H2342 0.930 . S
C2352 C2351 1.400 . S
C2352 C2355 1.386 . S
H2353 C2369 0.930 . S
H2354 C2370 0.931 . S
C2355 H2343 0.929 . S
C2355 C2349 1.390 . S
C2355 C2352 1.386 . S
C2356 C2351 1.490 . S
C2356 C2358 1.395 . S
C2356 C2359 1.403 . S
H2357 C2363 0.930 . S
C2358 H2344 0.930 . S
C2358 C2356 1.395 . S
C2358 C2361 1.403 . S
C2359 C2356 1.403 . S
C2359 C2360 1.524 . S
C2359 C2363 1.400 . S
C2360 H2345 0.960 . S
C2360 H2346 0.960 . S
C2360 H2347 0.960 . S
C2360 C2359 1.524 . S
C2361 C2358 1.403 . S
C2361 C2362 1.392 . S
C2361 C2365 1.495 . S
C2362 C2361 1.392 . S
C2362 C2363 1.385 . S
C2362 C2364 1.478 . S
C2363 H2357 0.930 . S
C2363 C2359 1.400 . S
C2363 C2362 1.385 . S
C2364 C2362 1.478 . S
C2364 C2366 1.381 . S
C2364 C2370 1.383 . S
C2365 C2361 1.495 . S
C2365 H2371 0.959 . S
C2365 H2372 0.961 . S
C2365 H2373 0.960 . S
C2366 C2364 1.381 . S
C2366 C2367 1.394 . S
C2366 H2374 0.930 . S
C2367 C2366 1.394 . S
C2367 C2368 1.383 . S
C2367 H2375 0.929 . S
C2368 C2367 1.383 . S
C2368 C2369 1.377 . S
C2369 H2353 0.930 . S
C2369 C2368 1.377 . S
C2369 C2370 1.379 . S
C2370 H2354 0.931 . S
C2370 C2364 1.383 . S
C2370 C2369 1.379 . S
H2371 C2365 0.959 . S
H2372 C2365 0.961 . S
H2373 C2365 0.960 . S
H2374 C2366 0.930 . S
H2375 C2367 0.929 . S
H2376 C2384 0.929 . S
H2377 C2386 0.930 . S
H2378 C2388 0.930 . S
H2379 C2391 0.929 . S
H2380 C2394 0.930 . S
H2381 C2396 0.960 . S
H2382 C2396 0.960 . S
H2383 C2396 0.960 . S
C2384 H2376 0.929 . S
C2384 C2385 1.377 . S
C2384 C2386 1.384 . S
C2385 C2384 1.377 . S
C2385 C2391 1.390 . S
C2386 H2377 0.930 . S
C2386 C2384 1.384 . S
C2386 C2387 1.372 . S
C2387 C2386 1.372 . S
C2387 C2388 1.400 . S
C2387 C2392 1.490 . S
C2388 H2378 0.930 . S
C2388 C2387 1.400 . S
C2388 C2391 1.386 . S
H2389 C2405 0.930 . S
H2390 C2406 0.931 . S
C2391 H2379 0.929 . S
C2391 C2385 1.390 . S
C2391 C2388 1.386 . S
C2392 C2387 1.490 . S
C2392 C2394 1.395 . S
C2392 C2395 1.403 . S
H2393 C2399 0.930 . S
C2394 H2380 0.930 . S
C2394 C2392 1.395 . S
C2394 C2397 1.403 . S
C2395 C2392 1.403 . S
C2395 C2396 1.524 . S
C2395 C2399 1.400 . S
C2396 H2381 0.960 . S
C2396 H2382 0.960 . S
C2396 H2383 0.960 . S
C2396 C2395 1.524 . S
C2397 C2394 1.403 . S
C2397 C2398 1.392 . S
C2397 C2401 1.495 . S
C2398 C2397 1.392 . S
C2398 C2399 1.385 . S
C2398 C2400 1.478 . S
C2399 H2393 0.930 . S
C2399 C2395 1.400 . S
C2399 C2398 1.385 . S
C2400 C2398 1.478 . S
C2400 C2402 1.381 . S
C2400 C2406 1.383 . S
C2401 C2397 1.495 . S
C2401 H2407 0.959 . S
C2401 H2408 0.961 . S
C2401 H2409 0.960 . S
C2402 C2400 1.381 . S
C2402 C2403 1.394 . S
C2402 H2410 0.930 . S
C2403 C2402 1.394 . S
C2403 C2404 1.383 . S
C2403 H2411 0.929 . S
C2404 C2403 1.383 . S
C2404 C2405 1.377 . S
C2405 H2389 0.930 . S
C2405 C2404 1.377 . S
C2405 C2406 1.379 . S
C2406 H2390 0.931 . S
C2406 C2400 1.383 . S
C2406 C2405 1.379 . S
H2407 C2401 0.959 . S
H2408 C2401 0.961 . S
H2409 C2401 0.960 . S
H2410 C2402 0.930 . S
H2411 C2403 0.929 . S
H2412 C2420 0.929 . S
H2413 C2422 0.930 . S
H2414 C2424 0.930 . S
H2415 C2427 0.929 . S
H2416 C2430 0.930 . S
H2417 C2432 0.960 . S
H2418 C2432 0.960 . S
H2419 C2432 0.960 . S
C2420 H2412 0.929 . S
C2420 C2421 1.323 1_554 S
C2420 C2422 1.384 . S
C2421 C2420 1.323 1_556 S
C2421 C2427 1.447 . S
C2422 H2413 0.930 . S
C2422 C2420 1.384 . S
C2422 C2423 1.276 1_554 S
C2423 C2422 1.276 1_556 S
C2423 C2424 1.497 . S
C2423 C2428 1.490 . S
C2424 H2414 0.930 . S
C2424 C2423 1.497 . S
C2424 C2427 1.386 . S
H2425 C2441 0.930 . S
H2426 C2442 0.931 . S
C2427 H2415 0.929 . S
C2427 C2421 1.447 . S
C2427 C2424 1.386 . S
C2428 C2423 1.490 . S
C2428 C2430 1.309 1_556 S
C2428 C2431 1.496 . S
H2429 C2435 0.930 . S
C2430 H2416 0.930 . S
C2430 C2428 1.309 1_554 S
C2430 C2433 1.403 . S
C2431 C2428 1.496 . S
C2431 C2432 1.524 . S
C2431 C2435 1.400 . S
C2432 H2417 0.960 . S
C2432 H2418 0.960 . S
C2432 H2419 0.960 . S
C2432 C2431 1.524 . S
C2433 C2430 1.403 . S
C2433 C2434 1.314 1_554 S
C2433 C2437 1.495 . S
C2434 C2433 1.314 1_556 S
C2434 C2435 1.468 . S
C2434 C2436 1.490 . S
C2435 H2429 0.930 . S
C2435 C2431 1.400 . S
C2435 C2434 1.468 . S
C2436 C2434 1.490 . S
C2436 C2438 1.381 1_556 S
C2436 C2442 1.383 . S
C2437 C2433 1.495 . S
C2437 H2443 0.959 . S
C2437 H2444 0.961 . S
C2437 H2445 0.960 . S
C2438 C2436 1.381 1_554 S
C2438 C2439 1.394 . S
C2438 H2446 0.930 . S
C2439 C2438 1.394 . S
C2439 C2440 1.383 1_554 S
C2439 H2447 0.929 . S
C2440 C2439 1.383 1_556 S
C2440 C2441 1.377 . S
C2441 H2425 0.930 . S
C2441 C2440 1.377 . S
C2441 C2442 1.379 . S
C2442 H2426 0.931 . S
C2442 C2436 1.383 . S
C2442 C2441 1.379 . S
H2443 C2437 0.959 . S
H2444 C2437 0.961 . S
H2445 C2437 0.960 . S
H2446 C2438 0.930 . S
H2447 C2439 0.929 . S
H2448 C2456 0.929 . S
H2449 C2458 0.930 . S
H2450 C2460 0.930 . S
H2451 C2463 0.929 . S
H2452 C2466 0.940 . S
H2453 C2468 0.960 . S
H2454 C2468 0.960 . S
H2455 C2468 0.962 1_554 S
C2456 H2448 0.929 . S
C2456 C2457 1.447 . S
C2456 C2458 1.384 . S
C2457 C2456 1.447 . S
C2457 C2463 1.329 1_556 S
C2458 H2449 0.930 . S
C2458 C2456 1.384 . S
C2458 C2459 1.372 . S
C2459 C2458 1.372 . S
C2459 C2460 1.400 1_556 S
C2459 C2464 1.490 . S
C2460 H2450 0.930 . S
C2460 C2459 1.400 1_554 S
C2460 C2463 1.386 . S
H2461 C2477 0.930 . S
H2462 C2478 0.931 . S
C2463 H2451 0.929 . S
C2463 C2457 1.329 1_554 S
C2463 C2460 1.386 . S
C2464 C2459 1.490 . S
C2464 C2466 1.395 . S
C2464 C2467 1.403 . S
H2465 C2471 0.930 . S
C2466 H2452 0.940 . S
C2466 C2464 1.395 . S
C2466 C2469 1.403 . S
C2467 C2464 1.403 . S
C2467 C2468 1.524 . S
C2467 C2471 1.400 . S
C2468 H2453 0.960 . S
C2468 H2454 0.960 . S
C2468 H2455 0.962 1_556 S
C2468 C2467 1.524 . S
C2469 C2466 1.403 . S
C2469 C2470 1.392 . S
C2469 C2473 1.498 . S
C2470 C2469 1.392 . S
C2470 C2471 1.385 . S
C2470 C2472 1.478 . S
C2471 H2465 0.930 . S
C2471 C2467 1.400 . S
C2471 C2470 1.385 . S
C2472 C2470 1.478 . S
C2472 C2474 1.381 . S
C2472 C2478 1.383 1_556 S
C2473 C2469 1.498 . S
C2473 H2479 0.955 1_556 S
C2473 H2480 0.943 1_556 S
C2473 H2481 0.978 . S
C2474 C2472 1.381 . S
C2474 C2475 1.394 . S
C2474 H2482 0.930 . S
C2475 C2474 1.394 . S
C2475 C2476 1.383 . S
C2475 H2483 0.929 . S
C2476 C2475 1.383 . S
C2476 C2477 1.377 1_556 S
C2477 H2461 0.930 . S
C2477 C2476 1.377 1_554 S
C2477 C2478 1.379 . S
C2478 H2462 0.931 . S
C2478 C2472 1.383 1_554 S
C2478 C2477 1.379 . S
H2479 C2473 0.955 1_554 S
H2480 C2473 0.943 1_554 S
H2481 C2473 0.978 . S
H2482 C2474 0.930 . S
H2483 C2475 0.929 . S
H2484 C2492 0.929 . S
H2485 C2494 0.930 . S
H2486 C2496 0.930 . S
H2487 C2499 0.929 . S
H2488 C2502 0.930 . S
H2489 C2504 0.959 . S
H2490 C2504 0.886 1_554 S
H2491 C2504 1.027 . S
C2492 H2484 0.929 . S
C2492 C2493 1.337 1_554 S
C2492 C2494 1.384 . S
C2493 C2492 1.337 1_556 S
C2493 C2499 1.432 . S
C2494 H2485 0.930 . S
C2494 C2492 1.384 . S
C2494 C2495 1.288 1_554 S
C2495 C2494 1.288 1_556 S
C2495 C2496 1.484 . S
C2495 C2500 1.499 . S
C2496 H2486 0.930 . S
C2496 C2495 1.484 . S
C2496 C2499 1.386 . S
H2497 C2513 0.930 . S
H2498 C2514 0.931 . S
C2499 H2487 0.929 . S
C2499 C2493 1.432 . S
C2499 C2496 1.386 . S
C2500 C2495 1.499 . S
C2500 C2502 1.395 . S
C2500 C2503 1.403 . S
H2501 C2507 0.930 . S
C2502 H2488 0.930 . S
C2502 C2500 1.395 . S
C2502 C2505 1.403 . S
C2503 C2500 1.403 . S
C2503 C2504 1.532 . S
C2503 C2507 1.400 . S
C2504 H2489 0.959 . S
C2504 H2490 0.886 1_556 S
C2504 H2491 1.027 . S
C2504 C2503 1.532 . S
C2505 C2502 1.403 . S
C2505 C2506 1.392 . S
C2505 C2509 1.495 . S
C2506 C2505 1.392 . S
C2506 C2507 1.385 . S
C2506 C2508 1.478 . S
C2507 H2501 0.930 . S
C2507 C2503 1.400 . S
C2507 C2506 1.385 . S
C2508 C2506 1.478 . S
C2508 C2510 1.381 1_556 S
C2508 C2514 1.383 . S
C2509 C2505 1.495 . S
C2509 H2515 0.959 . S
C2509 H2516 0.961 . S
C2509 H2517 0.960 1_556 S
C2510 C2508 1.381 1_554 S
C2510 C2511 1.394 . S
C2510 H2518 0.930 . S
C2511 C2510 1.394 . S
C2511 C2512 1.383 1_554 S
C2511 H2519 0.929 . S
C2512 C2511 1.383 1_556 S
C2512 C2513 1.377 . S
C2513 H2497 0.930 . S
C2513 C2512 1.377 . S
C2513 C2514 1.379 . S
C2514 H2498 0.931 . S
C2514 C2508 1.383 . S
C2514 C2513 1.379 . S
H2515 C2509 0.959 . S
H2516 C2509 0.961 . S
H2517 C2509 0.960 1_554 S
H2518 C2510 0.930 . S
H2519 C2511 0.929 . S
H2520 C2528 0.929 . S
H2521 C2530 0.930 . S
H2522 C2532 0.930 . S
H2523 C2535 0.929 . S
H2524 C2538 0.930 . S
H2525 C2540 0.960 . S
H2526 C2540 0.960 . S
H2527 C2540 0.960 . S
C2528 H2520 0.929 . S
C2528 C2529 1.377 . S
C2528 C2530 1.384 . S
C2529 C2528 1.377 . S
C2529 C2535 1.390 . S
C2530 H2521 0.930 . S
C2530 C2528 1.384 . S
C2530 C2531 1.372 . S
C2531 C2530 1.372 . S
C2531 C2532 1.400 . S
C2531 C2536 1.490 . S
C2532 H2522 0.930 . S
C2532 C2531 1.400 . S
C2532 C2535 1.386 . S
H2533 C2549 0.930 . S
H2534 C2550 0.931 . S
C2535 H2523 0.929 . S
C2535 C2529 1.390 . S
C2535 C2532 1.386 . S
C2536 C2531 1.490 . S
C2536 C2538 1.395 . S
C2536 C2539 1.403 . S
H2537 C2543 0.930 . S
C2538 H2524 0.930 . S
C2538 C2536 1.395 . S
C2538 C2541 1.403 . S
C2539 C2536 1.403 . S
C2539 C2540 1.524 . S
C2539 C2543 1.400 . S
C2540 H2525 0.960 . S
C2540 H2526 0.960 . S
C2540 H2527 0.960 . S
C2540 C2539 1.524 . S
C2541 C2538 1.403 . S
C2541 C2542 1.392 . S
C2541 C2545 1.495 . S
C2542 C2541 1.392 . S
C2542 C2543 1.385 . S
C2542 C2544 1.478 . S
C2543 H2537 0.930 . S
C2543 C2539 1.400 . S
C2543 C2542 1.385 . S
C2544 C2542 1.478 . S
C2544 C2546 1.381 . S
C2544 C2550 1.383 . S
C2545 C2541 1.495 . S
C2545 H2551 0.959 . S
C2545 H2552 0.961 . S
C2545 H2553 0.960 . S
C2546 C2544 1.381 . S
C2546 C2547 1.394 . S
C2546 H2554 0.930 . S
C2547 C2546 1.394 . S
C2547 C2548 1.383 . S
C2547 H2555 0.929 . S
C2548 C2547 1.383 . S
C2548 C2549 1.377 . S
C2549 H2533 0.930 . S
C2549 C2548 1.377 . S
C2549 C2550 1.379 . S
C2550 H2534 0.931 . S
C2550 C2544 1.383 . S
C2550 C2549 1.379 . S
H2551 C2545 0.959 . S
H2552 C2545 0.961 . S
H2553 C2545 0.960 . S
H2554 C2546 0.930 . S
H2555 C2547 0.929 . S
H2556 C2564 0.929 . S
H2557 C2566 0.930 . S
H2558 C2568 0.930 . S
H2559 C2571 0.929 . S
H2560 C2574 0.930 . S
H2561 C2576 0.960 . S
H2562 C2576 0.960 . S
H2563 C2576 0.960 . S
C2564 H2556 0.929 . S
C2564 C2565 1.377 . S
C2564 C2566 1.384 . S
C2565 C2564 1.377 . S
C2565 C2571 1.390 . S
C2566 H2557 0.930 . S
C2566 C2564 1.384 . S
C2566 C2567 1.372 . S
C2567 C2566 1.372 . S
C2567 C2568 1.400 . S
C2567 C2572 1.490 . S
C2568 H2558 0.930 . S
C2568 C2567 1.400 . S
C2568 C2571 1.386 . S
H2569 C2585 0.930 . S
H2570 C2586 0.931 . S
C2571 H2559 0.929 . S
C2571 C2565 1.390 . S
C2571 C2568 1.386 . S
C2572 C2567 1.490 . S
C2572 C2574 1.395 . S
C2572 C2575 1.403 . S
H2573 C2579 0.930 . S
C2574 H2560 0.930 . S
C2574 C2572 1.395 . S
C2574 C2577 1.403 . S
C2575 C2572 1.403 . S
C2575 C2576 1.524 . S
C2575 C2579 1.400 . S
C2576 H2561 0.960 . S
C2576 H2562 0.960 . S
C2576 H2563 0.960 . S
C2576 C2575 1.524 . S
C2577 C2574 1.403 . S
C2577 C2578 1.392 . S
C2577 C2581 1.495 . S
C2578 C2577 1.392 . S
C2578 C2579 1.385 . S
C2578 C2580 1.478 . S
C2579 H2573 0.930 . S
C2579 C2575 1.400 . S
C2579 C2578 1.385 . S
C2580 C2578 1.478 . S
C2580 C2582 1.381 . S
C2580 C2586 1.383 . S
C2581 C2577 1.495 . S
C2581 H2587 0.959 . S
C2581 H2588 0.961 . S
C2581 H2589 0.960 . S
C2582 C2580 1.381 . S
C2582 C2583 1.394 . S
C2582 H2590 0.930 . S
C2583 C2582 1.394 . S
C2583 C2584 1.383 . S
C2583 H2591 0.929 . S
C2584 C2583 1.383 . S
C2584 C2585 1.377 . S
C2585 H2569 0.930 . S
C2585 C2584 1.377 . S
C2585 C2586 1.379 . S
C2586 H2570 0.931 . S
C2586 C2580 1.383 . S
C2586 C2585 1.379 . S
H2587 C2581 0.959 . S
H2588 C2581 0.961 . S
H2589 C2581 0.960 . S
H2590 C2582 0.930 . S
H2591 C2583 0.929 . S
H2592 C2600 0.929 . S
H2593 C2602 0.930 . S
H2594 C2604 0.930 . S
H2595 C2607 0.929 . S
H2596 C2610 0.930 . S
H2597 C2612 0.960 . S
H2598 C2612 0.960 . S
H2599 C2612 0.960 . S
C2600 H2592 0.929 . S
C2600 C2601 1.377 . S
C2600 C2602 1.384 . S
C2601 C2600 1.377 . S
C2601 C2607 1.390 . S
C2602 H2593 0.930 . S
C2602 C2600 1.384 . S
C2602 C2603 1.372 . S
C2603 C2602 1.372 . S
C2603 C2604 1.400 . S
C2603 C2608 1.490 . S
C2604 H2594 0.930 . S
C2604 C2603 1.400 . S
C2604 C2607 1.386 . S
H2605 C2621 0.930 . S
H2606 C2622 0.931 . S
C2607 H2595 0.929 . S
C2607 C2601 1.390 . S
C2607 C2604 1.386 . S
C2608 C2603 1.490 . S
C2608 C2610 1.395 . S
C2608 C2611 1.403 . S
H2609 C2615 0.930 . S
C2610 H2596 0.930 . S
C2610 C2608 1.395 . S
C2610 C2613 1.403 . S
C2611 C2608 1.403 . S
C2611 C2612 1.524 . S
C2611 C2615 1.400 . S
C2612 H2597 0.960 . S
C2612 H2598 0.960 . S
C2612 H2599 0.960 . S
C2612 C2611 1.524 . S
C2613 C2610 1.403 . S
C2613 C2614 1.392 . S
C2613 C2617 1.495 . S
C2614 C2613 1.392 . S
C2614 C2615 1.385 . S
C2614 C2616 1.478 . S
C2615 H2609 0.930 . S
C2615 C2611 1.400 . S
C2615 C2614 1.385 . S
C2616 C2614 1.478 . S
C2616 C2618 1.381 . S
C2616 C2622 1.383 . S
C2617 C2613 1.495 . S
C2617 H2623 0.959 . S
C2617 H2624 0.961 . S
C2617 H2625 0.960 . S
C2618 C2616 1.381 . S
C2618 C2619 1.394 . S
C2618 H2626 0.930 . S
C2619 C2618 1.394 . S
C2619 C2620 1.383 . S
C2619 H2627 0.929 . S
C2620 C2619 1.383 . S
C2620 C2621 1.377 . S
C2621 H2605 0.930 . S
C2621 C2620 1.377 . S
C2621 C2622 1.379 . S
C2622 H2606 0.931 . S
C2622 C2616 1.383 . S
C2622 C2621 1.379 . S
H2623 C2617 0.959 . S
H2624 C2617 0.961 . S
H2625 C2617 0.960 . S
H2626 C2618 0.930 . S
H2627 C2619 0.929 . S
H2628 C2636 0.929 . S
H2629 C2638 0.930 . S
H2630 C2640 0.930 . S
H2631 C2643 0.929 . S
H2632 C2646 0.930 . S
H2633 C2648 0.960 . S
H2634 C2648 0.960 . S
H2635 C2648 0.960 . S
C2636 H2628 0.929 . S
C2636 C2637 1.377 . S
C2636 C2638 1.384 . S
C2637 C2636 1.377 . S
C2637 C2643 1.390 . S
C2638 H2629 0.930 . S
C2638 C2636 1.384 . S
C2638 C2639 1.372 . S
C2639 C2638 1.372 . S
C2639 C2640 1.400 . S
C2639 C2644 1.490 . S
C2640 H2630 0.930 . S
C2640 C2639 1.400 . S
C2640 C2643 1.386 . S
H2641 C2657 0.930 . S
H2642 C2658 0.931 . S
C2643 H2631 0.929 . S
C2643 C2637 1.390 . S
C2643 C2640 1.386 . S
C2644 C2639 1.490 . S
C2644 C2646 1.395 . S
C2644 C2647 1.403 . S
H2645 C2651 0.930 . S
C2646 H2632 0.930 . S
C2646 C2644 1.395 . S
C2646 C2649 1.403 . S
C2647 C2644 1.403 . S
C2647 C2648 1.524 . S
C2647 C2651 1.400 . S
C2648 H2633 0.960 . S
C2648 H2634 0.960 . S
C2648 H2635 0.960 . S
C2648 C2647 1.524 . S
C2649 C2646 1.403 . S
C2649 C2650 1.392 . S
C2649 C2653 1.495 . S
C2650 C2649 1.392 . S
C2650 C2651 1.385 . S
C2650 C2652 1.478 . S
C2651 H2645 0.930 . S
C2651 C2647 1.400 . S
C2651 C2650 1.385 . S
C2652 C2650 1.478 . S
C2652 C2654 1.381 . S
C2652 C2658 1.383 . S
C2653 C2649 1.495 . S
C2653 H2659 0.959 . S
C2653 H2660 0.961 . S
C2653 H2661 0.960 . S
C2654 C2652 1.381 . S
C2654 C2655 1.394 . S
C2654 H2662 0.930 . S
C2655 C2654 1.394 . S
C2655 C2656 1.383 . S
C2655 H2663 0.929 . S
C2656 C2655 1.383 . S
C2656 C2657 1.377 . S
C2657 H2641 0.930 . S
C2657 C2656 1.377 . S
C2657 C2658 1.379 . S
C2658 H2642 0.931 . S
C2658 C2652 1.383 . S
C2658 C2657 1.379 . S
H2659 C2653 0.959 . S
H2660 C2653 0.961 . S
H2661 C2653 0.960 . S
H2662 C2654 0.930 . S
H2663 C2655 0.929 . S
H2664 C2672 0.929 . S
H2665 C2674 0.930 . S
H2666 C2676 0.930 . S
H2667 C2679 0.929 . S
H2668 C2682 0.930 . S
H2669 C2684 0.960 . S
H2670 C2684 0.960 . S
H2671 C2684 0.960 . S
C2672 H2664 0.929 . S
C2672 C2673 1.377 . S
C2672 C2674 1.384 . S
C2673 C2672 1.377 . S
C2673 C2679 1.390 . S
C2674 H2665 0.930 . S
C2674 C2672 1.384 . S
C2674 C2675 1.372 . S
C2675 C2674 1.372 . S
C2675 C2676 1.400 . S
C2675 C2680 1.490 . S
C2676 H2666 0.930 . S
C2676 C2675 1.400 . S
C2676 C2679 1.386 . S
H2677 C2693 0.930 . S
H2678 C2694 0.931 . S
C2679 H2667 0.929 . S
C2679 C2673 1.390 . S
C2679 C2676 1.386 . S
C2680 C2675 1.490 . S
C2680 C2682 1.395 . S
C2680 C2683 1.403 . S
H2681 C2687 0.930 . S
C2682 H2668 0.930 . S
C2682 C2680 1.395 . S
C2682 C2685 1.403 . S
C2683 C2680 1.403 . S
C2683 C2684 1.524 . S
C2683 C2687 1.400 . S
C2684 H2669 0.960 . S
C2684 H2670 0.960 . S
C2684 H2671 0.960 . S
C2684 C2683 1.524 . S
C2685 C2682 1.403 . S
C2685 C2686 1.392 . S
C2685 C2689 1.495 . S
C2686 C2685 1.392 . S
C2686 C2687 1.385 . S
C2686 C2688 1.478 . S
C2687 H2681 0.930 . S
C2687 C2683 1.400 . S
C2687 C2686 1.385 . S
C2688 C2686 1.478 . S
C2688 C2690 1.381 . S
C2688 C2694 1.383 . S
C2689 C2685 1.495 . S
C2689 H2695 0.959 . S
C2689 H2696 0.961 . S
C2689 H2697 0.960 . S
C2690 C2688 1.381 . S
C2690 C2691 1.394 . S
C2690 H2698 0.930 . S
C2691 C2690 1.394 . S
C2691 C2692 1.383 . S
C2691 H2699 0.929 . S
C2692 C2691 1.383 . S
C2692 C2693 1.377 . S
C2693 H2677 0.930 . S
C2693 C2692 1.377 . S
C2693 C2694 1.379 . S
C2694 H2678 0.931 . S
C2694 C2688 1.383 . S
C2694 C2693 1.379 . S
H2695 C2689 0.959 . S
H2696 C2689 0.961 . S
H2697 C2689 0.960 . S
H2698 C2690 0.930 . S
H2699 C2691 0.929 . S
H2700 C2708 0.929 . S
H2701 C2710 0.930 . S
H2702 C2712 0.930 . S
H2703 C2715 0.929 . S
H2704 C2718 0.930 . S
H2705 C2720 0.960 . S
H2706 C2720 0.960 . S
H2707 C2720 0.960 . S
C2708 H2700 0.929 . S
C2708 C2709 1.377 . S
C2708 C2710 1.384 . S
C2709 C2708 1.377 . S
C2709 C2715 1.390 . S
C2710 H2701 0.930 . S
C2710 C2708 1.384 . S
C2710 C2711 1.372 . S
C2711 C2710 1.372 . S
C2711 C2712 1.400 . S
C2711 C2716 1.490 . S
C2712 H2702 0.930 . S
C2712 C2711 1.400 . S
C2712 C2715 1.386 . S
H2713 C2729 0.930 . S
H2714 C2730 0.931 . S
C2715 H2703 0.929 . S
C2715 C2709 1.390 . S
C2715 C2712 1.386 . S
C2716 C2711 1.490 . S
C2716 C2718 1.395 . S
C2716 C2719 1.403 . S
H2717 C2723 0.930 . S
C2718 H2704 0.930 . S
C2718 C2716 1.395 . S
C2718 C2721 1.403 . S
C2719 C2716 1.403 . S
C2719 C2720 1.524 . S
C2719 C2723 1.400 . S
C2720 H2705 0.960 . S
C2720 H2706 0.960 . S
C2720 H2707 0.960 . S
C2720 C2719 1.524 . S
C2721 C2718 1.403 . S
C2721 C2722 1.392 . S
C2721 C2725 1.495 . S
C2722 C2721 1.392 . S
C2722 C2723 1.385 . S
C2722 C2724 1.478 . S
C2723 H2717 0.930 . S
C2723 C2719 1.400 . S
C2723 C2722 1.385 . S
C2724 C2722 1.478 . S
C2724 C2726 1.381 . S
C2724 C2730 1.383 . S
C2725 C2721 1.495 . S
C2725 H2731 0.959 . S
C2725 H2732 0.961 . S
C2725 H2733 0.960 . S
C2726 C2724 1.381 . S
C2726 C2727 1.394 . S
C2726 H2734 0.930 . S
C2727 C2726 1.394 . S
C2727 C2728 1.383 . S
C2727 H2735 0.929 . S
C2728 C2727 1.383 . S
C2728 C2729 1.377 . S
C2729 H2713 0.930 . S
C2729 C2728 1.377 . S
C2729 C2730 1.379 . S
C2730 H2714 0.931 . S
C2730 C2724 1.383 . S
C2730 C2729 1.379 . S
H2731 C2725 0.959 . S
H2732 C2725 0.961 . S
H2733 C2725 0.960 . S
H2734 C2726 0.930 . S
H2735 C2727 0.929 . S
H2736 C2744 0.929 . S
H2737 C2746 0.930 . S
H2738 C2748 0.930 . S
H2739 C2751 0.929 . S
H2740 C2754 0.930 . S
H2741 C2756 0.960 . S
H2742 C2756 0.960 . S
H2743 C2756 0.960 . S
C2744 H2736 0.929 . S
C2744 C2745 1.377 . S
C2744 C2746 1.384 . S
C2745 C2744 1.377 . S
C2745 C2751 1.390 . S
C2746 H2737 0.930 . S
C2746 C2744 1.384 . S
C2746 C2747 1.372 . S
C2747 C2746 1.372 . S
C2747 C2748 1.400 . S
C2747 C2752 1.490 . S
C2748 H2738 0.930 . S
C2748 C2747 1.400 . S
C2748 C2751 1.386 . S
H2749 C2765 0.930 . S
H2750 C2766 0.931 . S
C2751 H2739 0.929 . S
C2751 C2745 1.390 . S
C2751 C2748 1.386 . S
C2752 C2747 1.490 . S
C2752 C2754 1.395 . S
C2752 C2755 1.403 . S
H2753 C2759 0.930 . S
C2754 H2740 0.930 . S
C2754 C2752 1.395 . S
C2754 C2757 1.403 . S
C2755 C2752 1.403 . S
C2755 C2756 1.524 . S
C2755 C2759 1.400 . S
C2756 H2741 0.960 . S
C2756 H2742 0.960 . S
C2756 H2743 0.960 . S
C2756 C2755 1.524 . S
C2757 C2754 1.403 . S
C2757 C2758 1.392 . S
C2757 C2761 1.495 . S
C2758 C2757 1.392 . S
C2758 C2759 1.385 . S
C2758 C2760 1.478 . S
C2759 H2753 0.930 . S
C2759 C2755 1.400 . S
C2759 C2758 1.385 . S
C2760 C2758 1.478 . S
C2760 C2762 1.381 . S
C2760 C2766 1.383 . S
C2761 C2757 1.495 . S
C2761 H2767 0.959 . S
C2761 H2768 0.961 . S
C2761 H2769 0.960 . S
C2762 C2760 1.381 . S
C2762 C2763 1.394 . S
C2762 H2770 0.930 . S
C2763 C2762 1.394 . S
C2763 C2764 1.383 . S
C2763 H2771 0.929 . S
C2764 C2763 1.383 . S
C2764 C2765 1.377 . S
C2765 H2749 0.930 . S
C2765 C2764 1.377 . S
C2765 C2766 1.379 . S
C2766 H2750 0.931 . S
C2766 C2760 1.383 . S
C2766 C2765 1.379 . S
H2767 C2761 0.959 . S
H2768 C2761 0.961 . S
H2769 C2761 0.960 . S
H2770 C2762 0.930 . S
H2771 C2763 0.929 . S
H2772 C2780 0.929 . S
H2773 C2782 0.930 . S
H2774 C2784 0.930 . S
H2775 C2787 0.929 . S
H2776 C2790 0.930 . S
H2777 C2792 0.960 . S
H2778 C2792 0.960 . S
H2779 C2792 0.960 . S
C2780 H2772 0.929 . S
C2780 C2781 1.377 . S
C2780 C2782 1.384 . S
C2781 C2780 1.377 . S
C2781 C2787 1.390 . S
C2782 H2773 0.930 . S
C2782 C2780 1.384 . S
C2782 C2783 1.395 . S
C2783 C2782 1.395 . S
C2783 C2784 1.417 . S
C2783 C2788 1.451 1_545 S
C2784 H2774 0.930 . S
C2784 C2783 1.417 . S
C2784 C2787 1.386 . S
H2785 C2801 0.930 . S
H2786 C2802 0.931 . S
C2787 H2775 0.929 . S
C2787 C2781 1.390 . S
C2787 C2784 1.386 . S
C2788 C2783 1.451 1_565 S
C2788 C2790 1.395 . S
C2788 C2791 1.403 . S
H2789 C2795 0.930 . S
C2790 H2776 0.930 . S
C2790 C2788 1.395 . S
C2790 C2793 1.403 . S
C2791 C2788 1.403 . S
C2791 C2792 1.524 1_565 S
C2791 C2795 1.400 . S
C2792 H2777 0.960 . S
C2792 H2778 0.960 . S
C2792 H2779 0.960 . S
C2792 C2791 1.524 1_545 S
C2793 C2790 1.403 . S
C2793 C2794 1.392 . S
C2793 C2797 1.495 . S
C2794 C2793 1.392 . S
C2794 C2795 1.385 . S
C2794 C2796 1.478 . S
C2795 H2789 0.930 . S
C2795 C2791 1.400 . S
C2795 C2794 1.385 . S
C2796 C2794 1.478 . S
C2796 C2798 1.381 . S
C2796 C2802 1.383 . S
C2797 C2793 1.495 . S
C2797 H2803 0.959 . S
C2797 H2804 0.961 . S
C2797 H2805 0.960 . S
C2798 C2796 1.381 . S
C2798 C2799 1.394 . S
C2798 H2806 0.930 . S
C2799 C2798 1.394 . S
C2799 C2800 1.383 . S
C2799 H2807 0.929 . S
C2800 C2799 1.383 . S
C2800 C2801 1.377 . S
C2801 H2785 0.930 . S
C2801 C2800 1.377 . S
C2801 C2802 1.379 . S
C2802 H2786 0.931 . S
C2802 C2796 1.383 . S
C2802 C2801 1.379 . S
H2803 C2797 0.959 . S
H2804 C2797 0.961 . S
H2805 C2797 0.960 . S
H2806 C2798 0.930 . S
H2807 C2799 0.929 . S
H2808 C2816 0.929 . S
H2809 C2818 0.930 . S
H2810 C2820 0.930 . S
H2811 C2823 0.929 . S
H2812 C2826 0.930 . S
H2813 C2828 0.960 . S
H2814 C2828 0.960 . S
H2815 C2828 0.960 . S
C2816 H2808 0.929 . S
C2816 C2817 1.377 . S
C2816 C2818 1.384 . S
C2817 C2816 1.377 . S
C2817 C2823 1.390 . S
C2818 H2809 0.930 . S
C2818 C2816 1.384 . S
C2818 C2819 1.372 . S
C2819 C2818 1.372 . S
C2819 C2820 1.400 . S
C2819 C2824 1.490 . S
C2820 H2810 0.930 . S
C2820 C2819 1.400 . S
C2820 C2823 1.386 . S
H2821 C2837 0.967 . S
H2822 C2838 0.931 . S
C2823 H2811 0.929 . S
C2823 C2817 1.390 . S
C2823 C2820 1.386 . S
C2824 C2819 1.490 . S
C2824 C2826 1.395 . S
C2824 C2827 1.403 . S
H2825 C2831 0.930 . S
C2826 H2812 0.930 . S
C2826 C2824 1.395 . S
C2826 C2829 1.403 . S
C2827 C2824 1.403 . S
C2827 C2828 1.524 . S
C2827 C2831 1.400 . S
C2828 H2813 0.960 . S
C2828 H2814 0.960 . S
C2828 H2815 0.960 . S
C2828 C2827 1.524 . S
C2829 C2826 1.403 . S
C2829 C2830 1.392 . S
C2829 C2833 1.495 . S
C2830 C2829 1.392 . S
C2830 C2831 1.385 . S
C2830 C2832 1.478 1_455 S
C2831 H2825 0.930 . S
C2831 C2827 1.400 . S
C2831 C2830 1.385 . S
C2832 C2830 1.478 1_655 S
C2832 C2834 1.381 . S
C2832 C2838 1.383 1_655 S
C2833 C2829 1.495 . S
C2833 H2839 0.959 . S
C2833 H2840 0.961 . S
C2833 H2841 0.960 1_455 S
C2834 C2832 1.381 . S
C2834 C2835 1.394 . S
C2834 H2842 0.930 . S
C2835 C2834 1.394 . S
C2835 C2836 1.383 . S
C2835 H2843 0.929 . S
C2836 C2835 1.383 . S
C2836 C2837 1.343 1_655 S
C2837 H2821 0.967 . S
C2837 C2836 1.343 1_455 S
C2837 C2838 1.377 . S
C2838 H2822 0.931 . S
C2838 C2832 1.383 1_455 S
C2838 C2837 1.377 . S
H2839 C2833 0.959 . S
H2840 C2833 0.961 . S
H2841 C2833 0.960 1_655 S
H2842 C2834 0.930 . S
H2843 C2835 0.929 . S
H2844 C2852 0.929 . S
H2845 C2854 0.930 . S
H2846 C2856 0.930 . S
H2847 C2859 0.929 . S
H2848 C2862 0.930 . S
H2849 C2864 0.960 . S
H2850 C2864 0.960 . S
H2851 C2864 0.960 . S
C2852 H2844 0.929 . S
C2852 C2853 1.377 . S
C2852 C2854 1.384 . S
C2853 C2852 1.377 . S
C2853 C2859 1.390 . S
C2854 H2845 0.930 . S
C2854 C2852 1.384 . S
C2854 C2855 1.372 . S
C2855 C2854 1.372 . S
C2855 C2856 1.400 . S
C2855 C2860 1.490 . S
C2856 H2846 0.930 . S
C2856 C2855 1.400 . S
C2856 C2859 1.386 . S
H2857 C2873 0.930 . S
H2858 C2874 0.931 . S
C2859 H2847 0.929 . S
C2859 C2853 1.390 . S
C2859 C2856 1.386 . S
C2860 C2855 1.490 . S
C2860 C2862 1.395 . S
C2860 C2863 1.403 . S
H2861 C2867 0.930 . S
C2862 H2848 0.930 . S
C2862 C2860 1.395 . S
C2862 C2865 1.403 . S
C2863 C2860 1.403 . S
C2863 C2864 1.524 . S
C2863 C2867 1.400 . S
C2864 H2849 0.960 . S
C2864 H2850 0.960 . S
C2864 H2851 0.960 . S
C2864 C2863 1.524 . S
C2865 C2862 1.403 . S
C2865 C2866 1.392 . S
C2865 C2869 1.495 . S
C2866 C2865 1.392 . S
C2866 C2867 1.385 . S
C2866 C2868 1.478 . S
C2867 H2861 0.930 . S
C2867 C2863 1.400 . S
C2867 C2866 1.385 . S
C2868 C2866 1.478 . S
C2868 C2870 1.381 . S
C2868 C2874 1.383 . S
C2869 C2865 1.495 . S
C2869 H2875 0.959 . S
C2869 H2876 0.961 . S
C2869 H2877 0.960 . S
C2870 C2868 1.381 . S
C2870 C2871 1.394 . S
C2870 H2878 0.930 . S
C2871 C2870 1.394 . S
C2871 C2872 1.383 . S
C2871 H2879 0.929 . S
C2872 C2871 1.383 . S
C2872 C2873 1.377 . S
C2873 H2857 0.930 . S
C2873 C2872 1.377 . S
C2873 C2874 1.379 . S
C2874 H2858 0.931 . S
C2874 C2868 1.383 . S
C2874 C2873 1.379 . S
H2875 C2869 0.959 . S
H2876 C2869 0.961 . S
H2877 C2869 0.960 . S
H2878 C2870 0.930 . S
H2879 C2871 0.929 . S
H2880 C2888 0.929 . S
H2881 C2890 0.930 . S
H2882 C2892 0.930 . S
H2883 C2895 0.929 . S
H2884 C2898 0.930 . S
H2885 C2900 0.960 . S
H2886 C2900 0.960 . S
H2887 C2900 0.960 . S
C2888 H2880 0.929 . S
C2888 C2889 1.377 1_545 S
C2888 C2890 1.384 . S
C2889 C2888 1.377 1_565 S
C2889 C2895 1.390 . S
C2890 H2881 0.930 . S
C2890 C2888 1.384 . S
C2890 C2891 1.372 . S
C2891 C2890 1.372 . S
C2891 C2892 1.400 1_545 S
C2891 C2896 1.490 . S
C2892 H2882 0.930 . S
C2892 C2891 1.400 1_565 S
C2892 C2895 1.386 . S
H2893 C2909 0.930 . S
H2894 C2910 0.931 . S
C2895 H2883 0.929 . S
C2895 C2889 1.390 . S
C2895 C2892 1.386 . S
C2896 C2891 1.490 . S
C2896 C2898 1.395 . S
C2896 C2899 1.403 . S
H2897 C2903 0.930 . S
C2898 H2884 0.930 . S
C2898 C2896 1.395 . S
C2898 C2901 1.403 . S
C2899 C2896 1.403 . S
C2899 C2900 1.524 1_545 S
C2899 C2903 1.400 . S
C2900 H2885 0.960 . S
C2900 H2886 0.960 . S
C2900 H2887 0.960 . S
C2900 C2899 1.524 1_565 S
C2901 C2898 1.403 . S
C2901 C2902 1.392 . S
C2901 C2905 1.495 . S
C2902 C2901 1.392 . S
C2902 C2903 1.385 . S
C2902 C2904 1.478 . S
C2903 H2897 0.930 . S
C2903 C2899 1.400 . S
C2903 C2902 1.385 . S
C2904 C2902 1.478 . S
C2904 C2906 1.381 . S
C2904 C2910 1.383 . S
C2905 C2901 1.495 . S
C2905 H2911 0.959 . S
C2905 H2912 0.961 . S
C2905 H2913 0.960 . S
C2906 C2904 1.381 . S
C2906 C2907 1.394 . S
C2906 H2914 0.930 . S
C2907 C2906 1.394 . S
C2907 C2908 1.383 . S
C2907 H2915 0.929 . S
C2908 C2907 1.383 . S
C2908 C2909 1.377 . S
C2909 H2893 0.930 . S
C2909 C2908 1.377 . S
C2909 C2910 1.379 . S
C2910 H2894 0.931 . S
C2910 C2904 1.383 . S
C2910 C2909 1.379 . S
H2911 C2905 0.959 . S
H2912 C2905 0.961 . S
H2913 C2905 0.960 . S
H2914 C2906 0.930 . S
H2915 C2907 0.929 . S
H2916 C2924 0.929 . S
H2917 C2926 0.930 . S
H2918 C2928 0.930 . S
H2919 C2931 0.929 . S
H2920 C2934 0.930 . S
H2921 C2936 0.960 . S
H2922 C2936 0.941 1_655 S
H2923 C2936 0.960 . S
C2924 H2916 0.929 . S
C2924 C2925 1.377 . S
C2924 C2926 1.384 . S
C2925 C2924 1.377 . S
C2925 C2931 1.390 . S
C2926 H2917 0.930 . S
C2926 C2924 1.384 . S
C2926 C2927 1.372 . S
C2927 C2926 1.372 . S
C2927 C2928 1.400 . S
C2927 C2932 1.490 . S
C2928 H2918 0.930 . S
C2928 C2927 1.400 . S
C2928 C2931 1.386 . S
H2929 C2945 0.930 . S
H2930 C2946 0.931 . S
C2931 H2919 0.929 . S
C2931 C2925 1.390 . S
C2931 C2928 1.386 . S
C2932 C2927 1.490 . S
C2932 C2934 1.395 . S
C2932 C2935 1.403 . S
H2933 C2939 0.930 1_455 S
C2934 H2920 0.930 . S
C2934 C2932 1.395 . S
C2934 C2937 1.403 . S
C2935 C2932 1.403 . S
C2935 C2936 1.524 1_655 S
C2935 C2939 1.400 . S
C2936 H2921 0.960 . S
C2936 H2922 0.941 1_455 S
C2936 H2923 0.960 . S
C2936 C2935 1.524 1_455 S
C2937 C2934 1.403 . S
C2937 C2938 1.392 . S
C2937 C2941 1.495 . S
C2938 C2937 1.392 . S
C2938 C2939 1.385 . S
C2938 C2940 1.478 . S
C2939 H2933 0.930 1_655 S
C2939 C2935 1.400 . S
C2939 C2938 1.385 . S
C2940 C2938 1.478 . S
C2940 C2942 1.381 . S
C2940 C2946 1.383 1_655 S
C2941 C2937 1.495 . S
C2941 H2947 0.959 . S
C2941 H2948 0.961 . S
C2941 H2949 0.960 . S
C2942 C2940 1.381 . S
C2942 C2943 1.394 1_655 S
C2942 H2950 0.930 . S
C2943 C2942 1.394 1_455 S
C2943 C2944 1.383 . S
C2943 H2951 0.930 . S
C2944 C2943 1.383 . S
C2944 C2945 1.377 . S
C2945 H2929 0.930 . S
C2945 C2944 1.377 . S
C2945 C2946 1.379 . S
C2946 H2930 0.931 . S
C2946 C2940 1.383 1_455 S
C2946 C2945 1.379 . S
H2947 C2941 0.959 . S
H2948 C2941 0.961 . S
H2949 C2941 0.960 . S
H2950 C2942 0.930 . S
H2951 C2943 0.930 . S
H2952 C2960 0.929 . S
H2953 C2962 0.930 . S
H2954 C2964 0.930 . S
H2955 C2967 0.929 . S
H2956 C2970 0.930 . S
H2957 C2972 0.960 . S
H2958 C2972 0.960 . S
H2959 C2972 0.960 . S
C2960 H2952 0.929 . S
C2960 C2961 1.377 . S
C2960 C2962 1.384 . S
C2961 C2960 1.377 . S
C2961 C2967 1.390 . S
C2962 H2953 0.930 . S
C2962 C2960 1.384 . S
C2962 C2963 1.372 . S
C2963 C2962 1.372 . S
C2963 C2964 1.400 . S
C2963 C2968 1.490 . S
C2964 H2954 0.930 . S
C2964 C2963 1.400 . S
C2964 C2967 1.386 . S
H2965 C2981 0.930 . S
H2966 C2982 0.931 . S
C2967 H2955 0.929 . S
C2967 C2961 1.390 . S
C2967 C2964 1.386 . S
C2968 C2963 1.490 . S
C2968 C2970 1.395 . S
C2968 C2971 1.403 . S
H2969 C2975 0.930 . S
C2970 H2956 0.930 . S
C2970 C2968 1.395 . S
C2970 C2973 1.403 . S
C2971 C2968 1.403 . S
C2971 C2972 1.524 . S
C2971 C2975 1.400 . S
C2972 H2957 0.960 . S
C2972 H2958 0.960 . S
C2972 H2959 0.960 . S
C2972 C2971 1.524 . S
C2973 C2970 1.403 . S
C2973 C2974 1.392 . S
C2973 C2977 1.495 . S
C2974 C2973 1.392 . S
C2974 C2975 1.385 . S
C2974 C2976 1.478 . S
C2975 H2969 0.930 . S
C2975 C2971 1.400 . S
C2975 C2974 1.385 . S
C2976 C2974 1.478 . S
C2976 C2978 1.381 . S
C2976 C2982 1.383 . S
C2977 C2973 1.495 . S
C2977 H2983 0.959 . S
C2977 H2984 0.961 . S
C2977 H2985 0.960 . S
C2978 C2976 1.381 . S
C2978 C2979 1.394 . S
C2978 H2986 0.930 . S
C2979 C2978 1.394 . S
C2979 C2980 1.383 . S
C2979 H2987 0.929 . S
C2980 C2979 1.383 . S
C2980 C2981 1.377 . S
C2981 H2965 0.930 . S
C2981 C2980 1.377 . S
C2981 C2982 1.379 . S
C2982 H2966 0.931 . S
C2982 C2976 1.383 . S
C2982 C2981 1.379 . S
H2983 C2977 0.959 . S
H2984 C2977 0.961 . S
H2985 C2977 0.960 . S
H2986 C2978 0.930 . S
H2987 C2979 0.929 . S
H2988 C2996 0.929 . S
H2989 C2998 0.930 . S
H2990 C3000 0.930 . S
H2991 C3003 0.929 . S
H2992 C3006 0.930 . S
H2993 C3008 0.957 . S
H2994 C3008 0.960 . S
H2995 C3008 0.963 1_545 S
C2996 H2988 0.929 . S
C2996 C2997 1.377 . S
C2996 C2998 1.384 . S
C2997 C2996 1.377 . S
C2997 C3003 1.390 . S
C2998 H2989 0.930 . S
C2998 C2996 1.384 . S
C2998 C2999 1.372 . S
C2999 C2998 1.372 . S
C2999 C3000 1.400 . S
C2999 C3004 1.490 . S
C3000 H2990 0.930 . S
C3000 C2999 1.400 . S
C3000 C3003 1.386 . S
H3001 C3017 0.930 . S
H3002 C3018 0.931 . S
C3003 H2991 0.929 . S
C3003 C2997 1.390 . S
C3003 C3000 1.386 . S
C3004 C2999 1.490 . S
C3004 C3006 1.395 . S
C3004 C3007 1.403 . S
H3005 C3011 0.930 1_565 S
C3006 H2992 0.930 . S
C3006 C3004 1.395 . S
C3006 C3009 1.403 . S
C3007 C3004 1.403 . S
C3007 C3008 1.524 1_545 S
C3007 C3011 1.400 . S
C3008 H2993 0.957 . S
C3008 H2994 0.960 . S
C3008 H2995 0.963 1_565 S
C3008 C3007 1.524 1_565 S
C3009 C3006 1.403 . S
C3009 C3010 1.392 . S
C3009 C3013 1.495 . S
C3010 C3009 1.392 . S
C3010 C3011 1.385 . S
C3010 C3012 1.478 . S
C3011 H3005 0.930 1_545 S
C3011 C3007 1.400 . S
C3011 C3010 1.385 . S
C3012 C3010 1.478 . S
C3012 C3014 1.381 1_545 S
C3012 C3018 1.383 . S
C3013 C3009 1.495 . S
C3013 H3019 0.959 . S
C3013 H3020 0.961 . S
C3013 H3021 0.960 . S
C3014 C3012 1.381 1_565 S
C3014 C3015 1.394 . S
C3014 H3022 0.930 . S
C3015 C3014 1.394 . S
C3015 C3016 1.383 . S
C3015 H3023 0.929 . S
C3016 C3015 1.383 . S
C3016 C3017 1.377 . S
C3017 H3001 0.930 . S
C3017 C3016 1.377 . S
C3017 C3018 1.379 1_565 S
C3018 H3002 0.931 . S
C3018 C3012 1.383 . S
C3018 C3017 1.379 1_545 S
H3019 C3013 0.959 . S
H3020 C3013 0.961 . S
H3021 C3013 0.960 . S
H3022 C3014 0.930 . S
H3023 C3015 0.929 . S
H3024 C3032 0.929 . S
H3025 C3034 0.930 . S
H3026 C3036 0.930 . S
H3027 C3039 0.929 . S
H3028 C3042 0.930 . S
H3029 C3044 0.960 . S
H3030 C3044 0.960 . S
H3031 C3044 0.960 . S
C3032 H3024 0.929 . S
C3032 C3033 1.377 . S
C3032 C3034 1.384 . S
C3033 C3032 1.377 . S
C3033 C3039 1.390 . S
C3034 H3025 0.930 . S
C3034 C3032 1.384 . S
C3034 C3035 1.372 . S
C3035 C3034 1.372 . S
C3035 C3036 1.400 . S
C3035 C3040 1.490 . S
C3036 H3026 0.930 . S
C3036 C3035 1.400 . S
C3036 C3039 1.386 . S
H3037 C3053 0.927 . S
H3038 C3054 0.931 . S
C3039 H3027 0.929 . S
C3039 C3033 1.390 . S
C3039 C3036 1.386 . S
C3040 C3035 1.490 . S
C3040 C3042 1.395 . S
C3040 C3043 1.403 . S
H3041 C3047 0.930 . S
C3042 H3028 0.930 . S
C3042 C3040 1.395 . S
C3042 C3045 1.403 . S
C3043 C3040 1.403 . S
C3043 C3044 1.524 . S
C3043 C3047 1.400 . S
C3044 H3029 0.960 . S
C3044 H3030 0.960 . S
C3044 H3031 0.960 . S
C3044 C3043 1.524 . S
C3045 C3042 1.403 . S
C3045 C3046 1.392 . S
C3045 C3049 1.495 . S
C3046 C3045 1.392 . S
C3046 C3047 1.385 . S
C3046 C3048 1.480 1_655 S
C3047 H3041 0.930 . S
C3047 C3043 1.400 . S
C3047 C3046 1.385 . S
C3048 C3046 1.480 1_455 S
C3048 C3050 1.401 . S
C3048 C3054 1.361 1_455 S
C3049 C3045 1.495 . S
C3049 H3055 0.959 . S
C3049 H3056 0.961 . S
C3049 H3057 0.960 1_655 S
C3050 C3048 1.401 . S
C3050 C3051 1.394 . S
C3050 H3058 0.930 . S
C3051 C3050 1.394 . S
C3051 C3052 1.383 . S
C3051 H3059 0.929 . S
C3052 C3051 1.383 . S
C3052 C3053 1.379 1_455 S
C3053 H3037 0.927 . S
C3053 C3052 1.379 1_655 S
C3053 C3054 1.380 . S
C3054 H3038 0.931 . S
C3054 C3048 1.361 1_655 S
C3054 C3053 1.380 . S
H3055 C3049 0.959 . S
H3056 C3049 0.961 . S
H3057 C3049 0.960 1_455 S
H3058 C3050 0.930 . S
H3059 C3051 0.929 . S
H3060 C3068 0.929 . S
H3061 C3070 0.930 . S
H3062 C3072 0.930 . S
H3063 C3075 0.929 . S
H3064 C3078 0.930 . S
H3065 C3080 0.960 . S
H3066 C3080 0.960 . S
H3067 C3080 0.960 . S
C3068 H3060 0.929 . S
C3068 C3069 1.377 . S
C3068 C3070 1.384 . S
C3069 C3068 1.377 . S
C3069 C3075 1.390 . S
C3070 H3061 0.930 . S
C3070 C3068 1.384 . S
C3070 C3071 1.372 . S
C3071 C3070 1.372 . S
C3071 C3072 1.400 . S
C3071 C3076 1.490 . S
C3072 H3062 0.930 . S
C3072 C3071 1.400 . S
C3072 C3075 1.386 . S
H3073 C3089 0.930 . S
H3074 C3090 0.931 . S
C3075 H3063 0.929 . S
C3075 C3069 1.390 . S
C3075 C3072 1.386 . S
C3076 C3071 1.490 . S
C3076 C3078 1.395 . S
C3076 C3079 1.403 . S
H3077 C3083 0.930 . S
C3078 H3064 0.930 . S
C3078 C3076 1.395 . S
C3078 C3081 1.403 . S
C3079 C3076 1.403 . S
C3079 C3080 1.524 . S
C3079 C3083 1.400 . S
C3080 H3065 0.960 . S
C3080 H3066 0.960 . S
C3080 H3067 0.960 . S
C3080 C3079 1.524 . S
C3081 C3078 1.403 . S
C3081 C3082 1.392 . S
C3081 C3085 1.495 . S
C3082 C3081 1.392 . S
C3082 C3083 1.385 . S
C3082 C3084 1.478 . S
C3083 H3077 0.930 . S
C3083 C3079 1.400 . S
C3083 C3082 1.385 . S
C3084 C3082 1.478 . S
C3084 C3086 1.381 . S
C3084 C3090 1.383 . S
C3085 C3081 1.495 . S
C3085 H3091 0.959 . S
C3085 H3092 0.961 . S
C3085 H3093 0.960 . S
C3086 C3084 1.381 . S
C3086 C3087 1.394 . S
C3086 H3094 0.930 . S
C3087 C3086 1.394 . S
C3087 C3088 1.383 . S
C3087 H3095 0.929 . S
C3088 C3087 1.383 . S
C3088 C3089 1.377 . S
C3089 H3073 0.930 . S
C3089 C3088 1.377 . S
C3089 C3090 1.379 . S
C3090 H3074 0.931 . S
C3090 C3084 1.383 . S
C3090 C3089 1.379 . S
H3091 C3085 0.959 . S
H3092 C3085 0.961 . S
H3093 C3085 0.960 . S
H3094 C3086 0.930 . S
H3095 C3087 0.929 . S
H3096 C3104 0.929 . S
H3097 C3106 0.930 . S
H3098 C3108 0.930 . S
H3099 C3111 0.929 . S
H3100 C3114 0.930 . S
H3101 C3116 0.960 . S
H3102 C3116 0.960 . S
H3103 C3116 0.960 . S
C3104 H3096 0.929 . S
C3104 C3105 1.377 . S
C3104 C3106 1.384 . S
C3105 C3104 1.377 . S
C3105 C3111 1.390 . S
C3106 H3097 0.930 . S
C3106 C3104 1.384 . S
C3106 C3107 1.371 1_545 S
C3107 C3106 1.371 1_565 S
C3107 C3108 1.400 . S
C3107 C3112 1.490 . S
C3108 H3098 0.930 . S
C3108 C3107 1.400 . S
C3108 C3111 1.386 1_565 S
H3109 C3125 0.930 . S
H3110 C3126 0.931 . S
C3111 H3099 0.929 . S
C3111 C3105 1.390 . S
C3111 C3108 1.386 1_545 S
C3112 C3107 1.490 . S
C3112 C3114 1.395 1_565 S
C3112 C3115 1.403 . S
H3113 C3119 0.930 . S
C3114 H3100 0.930 . S
C3114 C3112 1.395 1_545 S
C3114 C3117 1.403 1_545 S
C3115 C3112 1.403 . S
C3115 C3116 1.524 . S
C3115 C3119 1.400 . S
C3116 H3101 0.960 . S
C3116 H3102 0.960 . S
C3116 H3103 0.960 . S
C3116 C3115 1.524 . S
C3117 C3114 1.403 1_565 S
C3117 C3118 1.392 . S
C3117 C3121 1.495 1_565 S
C3118 C3117 1.392 . S
C3118 C3119 1.385 . S
C3118 C3120 1.478 . S
C3119 H3113 0.930 . S
C3119 C3115 1.400 . S
C3119 C3118 1.385 . S
C3120 C3118 1.478 . S
C3120 C3122 1.381 . S
C3120 C3126 1.383 . S
C3121 C3117 1.495 1_545 S
C3121 H3127 0.959 . S
C3121 H3128 0.961 . S
C3121 H3129 0.960 . S
C3122 C3120 1.381 . S
C3122 C3123 1.394 . S
C3122 H3130 0.930 . S
C3123 C3122 1.394 . S
C3123 C3124 1.383 . S
C3123 H3131 0.929 . S
C3124 C3123 1.383 . S
C3124 C3125 1.377 . S
C3125 H3109 0.930 . S
C3125 C3124 1.377 . S
C3125 C3126 1.379 . S
C3126 H3110 0.931 . S
C3126 C3120 1.383 . S
C3126 C3125 1.379 . S
H3127 C3121 0.959 . S
H3128 C3121 0.961 . S
H3129 C3121 0.960 . S
H3130 C3122 0.930 . S
H3131 C3123 0.929 . S
H3132 C3140 0.929 . S
H3133 C3142 0.930 . S
H3134 C3144 0.930 . S
H3135 C3147 0.929 . S
H3136 C3150 0.930 . S
H3137 C3152 0.960 . S
H3138 C3152 0.960 . S
H3139 C3152 0.960 . S
C3140 H3132 0.929 . S
C3140 C3141 1.377 . S
C3140 C3142 1.384 . S
C3141 C3140 1.377 . S
C3141 C3147 1.390 . S
C3142 H3133 0.930 . S
C3142 C3140 1.384 . S
C3142 C3143 1.356 1_655 S
C3143 C3142 1.356 1_455 S
C3143 C3144 1.387 1_455 S
C3143 C3148 1.519 . S
C3144 H3134 0.930 . S
C3144 C3143 1.387 1_655 S
C3144 C3147 1.386 . S
H3145 C3161 0.930 . S
H3146 C3162 0.931 . S
C3147 H3135 0.929 . S
C3147 C3141 1.390 . S
C3147 C3144 1.386 . S
C3148 C3143 1.519 . S
C3148 C3150 1.395 1_455 S
C3148 C3151 1.403 . S
H3149 C3155 0.930 . S
C3150 H3136 0.930 . S
C3150 C3148 1.395 1_655 S
C3150 C3153 1.404 1_655 S
C3151 C3148 1.403 . S
C3151 C3152 1.524 . S
C3151 C3155 1.400 . S
C3152 H3137 0.960 . S
C3152 H3138 0.960 . S
C3152 H3139 0.960 . S
C3152 C3151 1.524 . S
C3153 C3150 1.404 1_455 S
C3153 C3154 1.392 . S
C3153 C3157 1.495 1_455 S
C3154 C3153 1.392 . S
C3154 C3155 1.385 . S
C3154 C3156 1.478 . S
C3155 H3149 0.930 . S
C3155 C3151 1.400 . S
C3155 C3154 1.385 . S
C3156 C3154 1.478 . S
C3156 C3158 1.381 . S
C3156 C3162 1.383 . S
C3157 C3153 1.495 1_655 S
C3157 H3163 0.959 . S
C3157 H3164 0.961 . S
C3157 H3165 0.960 1_655 S
C3158 C3156 1.381 . S
C3158 C3159 1.394 . S
C3158 H3166 0.930 . S
C3159 C3158 1.394 . S
C3159 C3160 1.383 . S
C3159 H3167 0.929 . S
C3160 C3159 1.383 . S
C3160 C3161 1.377 . S
C3161 H3145 0.930 . S
C3161 C3160 1.377 . S
C3161 C3162 1.379 . S
C3162 H3146 0.931 . S
C3162 C3156 1.383 . S
C3162 C3161 1.379 . S
H3163 C3157 0.959 . S
H3164 C3157 0.961 . S
H3165 C3157 0.960 1_455 S
H3166 C3158 0.930 . S
H3167 C3159 0.929 . S
H3168 C3176 0.929 . S
H3169 C3178 0.930 . S
H3170 C3180 0.930 . S
H3171 C3183 0.929 . S
H3172 C3186 0.931 1_655 S
H3173 C3188 0.960 1_455 S
H3174 C3188 0.960 . S
H3175 C3188 0.960 . S
C3176 H3168 0.929 . S
C3176 C3177 1.377 . S
C3176 C3178 1.384 . S
C3177 C3176 1.377 . S
C3177 C3183 1.390 . S
C3178 H3169 0.930 . S
C3178 C3176 1.384 . S
C3178 C3179 1.372 . S
C3179 C3178 1.372 . S
C3179 C3180 1.400 . S
C3179 C3184 1.490 . S
C3180 H3170 0.930 . S
C3180 C3179 1.400 . S
C3180 C3183 1.386 . S
H3181 C3197 0.930 . S
H3182 C3198 0.931 . S
C3183 H3171 0.929 . S
C3183 C3177 1.390 . S
C3183 C3180 1.386 . S
C3184 C3179 1.490 . S
C3184 C3186 1.394 1_655 S
C3184 C3187 1.403 1_655 S
H3185 C3191 0.930 . S
C3186 H3172 0.931 1_455 S
C3186 C3184 1.394 1_455 S
C3186 C3189 1.402 . S
C3187 C3184 1.403 1_455 S
C3187 C3188 1.524 1_455 S
C3187 C3191 1.400 . S
C3188 H3173 0.960 1_655 S
C3188 H3174 0.960 . S
C3188 H3175 0.960 . S
C3188 C3187 1.524 1_655 S
C3189 C3186 1.402 . S
C3189 C3190 1.392 . S
C3189 C3193 1.495 . S
C3190 C3189 1.392 . S
C3190 C3191 1.385 . S
C3190 C3192 1.478 . S
C3191 H3185 0.930 . S
C3191 C3187 1.400 . S
C3191 C3190 1.385 . S
C3192 C3190 1.478 . S
C3192 C3194 1.381 . S
C3192 C3198 1.383 . S
C3193 C3189 1.495 . S
C3193 H3199 0.959 . S
C3193 H3200 0.961 . S
C3193 H3201 0.960 . S
C3194 C3192 1.381 . S
C3194 C3195 1.394 . S
C3194 H3202 0.930 . S
C3195 C3194 1.394 . S
C3195 C3196 1.383 . S
C3195 H3203 0.929 . S
C3196 C3195 1.383 . S
C3196 C3197 1.377 . S
C3197 H3181 0.930 . S
C3197 C3196 1.377 . S
C3197 C3198 1.379 . S
C3198 H3182 0.931 . S
C3198 C3192 1.383 . S
C3198 C3197 1.379 . S
H3199 C3193 0.959 . S
H3200 C3193 0.961 . S
H3201 C3193 0.960 . S
H3202 C3194 0.930 . S
H3203 C3195 0.929 . S
H3204 C3212 0.929 . S
H3205 C3214 0.930 . S
H3206 C3216 0.930 . S
H3207 C3219 0.929 . S
H3208 C3222 0.930 . S
H3209 C3224 0.960 . S
H3210 C3224 0.960 . S
H3211 C3224 0.960 . S
C3212 H3204 0.929 . S
C3212 C3213 1.377 . S
C3212 C3214 1.384 . S
C3213 C3212 1.377 . S
C3213 C3219 1.390 . S
C3214 H3205 0.930 . S
C3214 C3212 1.384 . S
C3214 C3215 1.372 . S
C3215 C3214 1.372 . S
C3215 C3216 1.400 . S
C3215 C3220 1.490 . S
C3216 H3206 0.930 . S
C3216 C3215 1.400 . S
C3216 C3219 1.386 . S
H3217 C3233 0.930 . S
H3218 C3234 0.931 . S
C3219 H3207 0.929 . S
C3219 C3213 1.390 . S
C3219 C3216 1.386 . S
C3220 C3215 1.490 . S
C3220 C3222 1.395 . S
C3220 C3223 1.403 . S
H3221 C3227 0.930 . S
C3222 H3208 0.930 . S
C3222 C3220 1.395 . S
C3222 C3225 1.403 . S
C3223 C3220 1.403 . S
C3223 C3224 1.524 . S
C3223 C3227 1.400 . S
C3224 H3209 0.960 . S
C3224 H3210 0.960 . S
C3224 H3211 0.960 . S
C3224 C3223 1.524 . S
C3225 C3222 1.403 . S
C3225 C3226 1.392 . S
C3225 C3229 1.495 . S
C3226 C3225 1.392 . S
C3226 C3227 1.385 . S
C3226 C3228 1.478 . S
C3227 H3221 0.930 . S
C3227 C3223 1.400 . S
C3227 C3226 1.385 . S
C3228 C3226 1.478 . S
C3228 C3230 1.381 . S
C3228 C3234 1.383 . S
C3229 C3225 1.495 . S
C3229 H3235 0.959 . S
C3229 H3236 0.961 . S
C3229 H3237 0.960 . S
C3230 C3228 1.381 . S
C3230 C3231 1.394 . S
C3230 H3238 0.930 . S
C3231 C3230 1.394 . S
C3231 C3232 1.383 . S
C3231 H3239 0.929 . S
C3232 C3231 1.383 . S
C3232 C3233 1.377 . S
C3233 H3217 0.930 . S
C3233 C3232 1.377 . S
C3233 C3234 1.379 . S
C3234 H3218 0.931 . S
C3234 C3228 1.383 . S
C3234 C3233 1.379 . S
H3235 C3229 0.959 . S
H3236 C3229 0.961 . S
H3237 C3229 0.960 . S
H3238 C3230 0.930 . S
H3239 C3231 0.929 . S
H3240 C3248 0.929 . S
H3241 C3250 0.930 . S
H3242 C3252 0.930 . S
H3243 C3255 0.929 . S
H3244 C3258 0.930 . S
H3245 C3260 0.960 . S
H3246 C3260 0.960 . S
H3247 C3260 0.960 . S
C3248 H3240 0.929 . S
C3248 C3249 1.377 . S
C3248 C3250 1.384 . S
C3249 C3248 1.377 . S
C3249 C3255 1.390 . S
C3250 H3241 0.930 . S
C3250 C3248 1.384 . S
C3250 C3251 1.372 . S
C3251 C3250 1.372 . S
C3251 C3252 1.400 . S
C3251 C3256 1.490 . S
C3252 H3242 0.930 . S
C3252 C3251 1.400 . S
C3252 C3255 1.386 . S
H3253 C3269 0.930 . S
H3254 C3270 0.931 . S
C3255 H3243 0.929 . S
C3255 C3249 1.390 . S
C3255 C3252 1.386 . S
C3256 C3251 1.490 . S
C3256 C3258 1.395 . S
C3256 C3259 1.403 . S
H3257 C3263 0.934 . S
C3258 H3244 0.930 . S
C3258 C3256 1.395 . S
C3258 C3261 1.403 . S
C3259 C3256 1.403 . S
C3259 C3260 1.524 . S
C3259 C3263 1.378 1_565 S
C3260 H3245 0.960 . S
C3260 H3246 0.960 . S
C3260 H3247 0.960 . S
C3260 C3259 1.524 . S
C3261 C3258 1.403 . S
C3261 C3262 1.392 1_565 S
C3261 C3265 1.495 1_565 S
C3262 C3261 1.392 1_545 S
C3262 C3263 1.404 . S
C3262 C3264 1.478 . S
C3263 H3257 0.934 . S
C3263 C3259 1.378 1_545 S
C3263 C3262 1.404 . S
C3264 C3262 1.478 . S
C3264 C3266 1.381 . S
C3264 C3270 1.383 . S
C3265 C3261 1.495 1_545 S
C3265 H3271 0.959 1_545 S
C3265 H3272 0.961 . S
C3265 H3273 0.960 . S
C3266 C3264 1.381 . S
C3266 C3267 1.394 . S
C3266 H3274 0.930 . S
C3267 C3266 1.394 . S
C3267 C3268 1.383 . S
C3267 H3275 0.929 . S
C3268 C3267 1.383 . S
C3268 C3269 1.377 . S
C3269 H3253 0.930 . S
C3269 C3268 1.377 . S
C3269 C3270 1.379 . S
C3270 H3254 0.931 . S
C3270 C3264 1.383 . S
C3270 C3269 1.379 . S
H3271 C3265 0.959 1_565 S
H3272 C3265 0.961 . S
H3273 C3265 0.960 . S
H3274 C3266 0.930 . S
H3275 C3267 0.929 . S
H3276 C3284 0.929 . S
H3277 C3286 0.930 . S
H3278 C3288 0.930 . S
H3279 C3291 0.929 . S
H3280 C3294 0.930 . S
H3281 C3296 0.960 . S
H3282 C3296 0.960 . S
H3283 C3296 0.960 . S
C3284 H3276 0.929 . S
C3284 C3285 1.377 . S
C3284 C3286 1.384 . S
C3285 C3284 1.377 . S
C3285 C3291 1.390 . S
C3286 H3277 0.930 . S
C3286 C3284 1.384 . S
C3286 C3287 1.372 . S
C3287 C3286 1.372 . S
C3287 C3288 1.400 . S
C3287 C3292 1.490 . S
C3288 H3278 0.930 . S
C3288 C3287 1.400 . S
C3288 C3291 1.386 . S
H3289 C3305 0.930 . S
H3290 C3306 0.931 . S
C3291 H3279 0.929 . S
C3291 C3285 1.390 . S
C3291 C3288 1.386 . S
C3292 C3287 1.490 . S
C3292 C3294 1.395 . S
C3292 C3295 1.403 . S
H3293 C3299 0.930 . S
C3294 H3280 0.930 . S
C3294 C3292 1.395 . S
C3294 C3297 1.403 . S
C3295 C3292 1.403 . S
C3295 C3296 1.524 . S
C3295 C3299 1.400 . S
C3296 H3281 0.960 . S
C3296 H3282 0.960 . S
C3296 H3283 0.960 . S
C3296 C3295 1.524 . S
C3297 C3294 1.403 . S
C3297 C3298 1.392 . S
C3297 C3301 1.495 1_455 S
C3298 C3297 1.392 . S
C3298 C3299 1.385 . S
C3298 C3300 1.478 . S
C3299 H3293 0.930 . S
C3299 C3295 1.400 . S
C3299 C3298 1.385 . S
C3300 C3298 1.478 . S
C3300 C3302 1.381 . S
C3300 C3306 1.383 1_455 S
C3301 C3297 1.495 1_655 S
C3301 H3307 0.959 . S
C3301 H3308 0.961 . S
C3301 H3309 0.960 . S
C3302 C3300 1.381 . S
C3302 C3303 1.394 1_455 S
C3302 H3310 0.930 . S
C3303 C3302 1.394 1_655 S
C3303 C3304 1.383 . S
C3303 H3311 0.929 . S
C3304 C3303 1.383 . S
C3304 C3305 1.377 . S
C3305 H3289 0.930 . S
C3305 C3304 1.377 . S
C3305 C3306 1.379 . S
C3306 H3290 0.931 . S
C3306 C3300 1.383 1_655 S
C3306 C3305 1.379 . S
H3307 C3301 0.959 . S
H3308 C3301 0.961 . S
H3309 C3301 0.960 . S
H3310 C3302 0.930 . S
H3311 C3303 0.929 . S
H3312 C3320 0.929 . S
H3313 C3322 0.930 . S
H3314 C3324 0.930 . S
H3315 C3327 0.929 . S
H3316 C3330 0.930 . S
H3317 C3332 0.960 . S
H3318 C3332 0.960 . S
H3319 C3332 0.960 . S
C3320 H3312 0.929 . S
C3320 C3321 1.377 . S
C3320 C3322 1.384 . S
C3321 C3320 1.377 . S
C3321 C3327 1.390 . S
C3322 H3313 0.930 . S
C3322 C3320 1.384 . S
C3322 C3323 1.372 . S
C3323 C3322 1.372 . S
C3323 C3324 1.400 . S
C3323 C3328 1.490 . S
C3324 H3314 0.930 . S
C3324 C3323 1.400 . S
C3324 C3327 1.386 . S
H3325 C3341 0.930 . S
H3326 C3342 0.931 . S
C3327 H3315 0.929 . S
C3327 C3321 1.390 . S
C3327 C3324 1.386 . S
C3328 C3323 1.490 . S
C3328 C3330 1.395 . S
C3328 C3331 1.403 . S
H3329 C3335 0.930 . S
C3330 H3316 0.930 . S
C3330 C3328 1.395 . S
C3330 C3333 1.403 . S
C3331 C3328 1.403 . S
C3331 C3332 1.524 . S
C3331 C3335 1.400 . S
C3332 H3317 0.960 . S
C3332 H3318 0.960 . S
C3332 H3319 0.960 . S
C3332 C3331 1.524 . S
C3333 C3330 1.403 . S
C3333 C3334 1.392 . S
C3333 C3337 1.495 . S
C3334 C3333 1.392 . S
C3334 C3335 1.385 . S
C3334 C3336 1.478 . S
C3335 H3329 0.930 . S
C3335 C3331 1.400 . S
C3335 C3334 1.385 . S
C3336 C3334 1.478 . S
C3336 C3338 1.381 . S
C3336 C3342 1.383 . S
C3337 C3333 1.495 . S
C3337 H3343 0.959 . S
C3337 H3344 0.961 . S
C3337 H3345 0.960 . S
C3338 C3336 1.381 . S
C3338 C3339 1.394 . S
C3338 H3346 0.930 . S
C3339 C3338 1.394 . S
C3339 C3340 1.383 . S
C3339 H3347 0.929 . S
C3340 C3339 1.383 . S
C3340 C3341 1.377 . S
C3341 H3325 0.930 . S
C3341 C3340 1.377 . S
C3341 C3342 1.379 . S
C3342 H3326 0.931 . S
C3342 C3336 1.383 . S
C3342 C3341 1.379 . S
H3343 C3337 0.959 . S
H3344 C3337 0.961 . S
H3345 C3337 0.960 . S
H3346 C3338 0.930 . S
H3347 C3339 0.929 . S
H3348 C3356 0.929 . S
H3349 C3358 0.930 . S
H3350 C3360 0.930 . S
H3351 C3363 0.929 . S
H3352 C3366 0.930 . S
H3353 C3368 0.960 . S
H3354 C3368 0.960 . S
H3355 C3368 0.960 . S
C3356 H3348 0.929 . S
C3356 C3357 1.377 . S
C3356 C3358 1.384 . S
C3357 C3356 1.377 . S
C3357 C3363 1.390 . S
C3358 H3349 0.930 . S
C3358 C3356 1.384 . S
C3358 C3359 1.372 . S
C3359 C3358 1.372 . S
C3359 C3360 1.400 . S
C3359 C3364 1.490 . S
C3360 H3350 0.930 . S
C3360 C3359 1.400 . S
C3360 C3363 1.386 . S
H3361 C3377 0.930 . S
H3362 C3378 0.931 . S
C3363 H3351 0.929 . S
C3363 C3357 1.390 . S
C3363 C3360 1.386 . S
C3364 C3359 1.490 . S
C3364 C3366 1.395 . S
C3364 C3367 1.403 . S
H3365 C3371 0.930 . S
C3366 H3352 0.930 . S
C3366 C3364 1.395 . S
C3366 C3369 1.403 . S
C3367 C3364 1.403 . S
C3367 C3368 1.524 . S
C3367 C3371 1.400 . S
C3368 H3353 0.960 . S
C3368 H3354 0.960 . S
C3368 H3355 0.960 . S
C3368 C3367 1.524 . S
C3369 C3366 1.403 . S
C3369 C3370 1.392 . S
C3369 C3373 1.495 1_565 S
C3370 C3369 1.392 . S
C3370 C3371 1.385 . S
C3370 C3372 1.478 . S
C3371 H3365 0.930 . S
C3371 C3367 1.400 . S
C3371 C3370 1.385 . S
C3372 C3370 1.478 . S
C3372 C3374 1.381 1_565 S
C3372 C3378 1.383 . S
C3373 C3369 1.495 1_545 S
C3373 H3379 0.959 . S
C3373 H3380 0.961 . S
C3373 H3381 0.960 . S
C3374 C3372 1.381 1_545 S
C3374 C3375 1.394 . S
C3374 H3382 0.930 . S
C3375 C3374 1.394 . S
C3375 C3376 1.383 . S
C3375 H3383 0.929 . S
C3376 C3375 1.383 . S
C3376 C3377 1.377 1_545 S
C3377 H3361 0.930 . S
C3377 C3376 1.377 1_565 S
C3377 C3378 1.379 . S
C3378 H3362 0.931 . S
C3378 C3372 1.383 . S
C3378 C3377 1.379 . S
H3379 C3373 0.959 . S
H3380 C3373 0.961 . S
H3381 C3373 0.960 . S
H3382 C3374 0.930 . S
H3383 C3375 0.929 . S
H3384 C3392 0.929 . S
H3385 C3394 0.930 . S
H3386 C3396 0.930 . S
H3387 C3399 0.929 . S
H3388 C3402 0.930 . S
H3389 C3404 0.960 1_545 S
H3390 C3404 0.960 . S
H3391 C3404 0.960 . S
C3392 H3384 0.929 . S
C3392 C3393 1.377 . S
C3392 C3394 1.384 . S
C3393 C3392 1.377 . S
C3393 C3399 1.390 . S
C3394 H3385 0.930 . S
C3394 C3392 1.384 . S
C3394 C3395 1.372 . S
C3395 C3394 1.372 . S
C3395 C3396 1.400 . S
C3395 C3400 1.490 . S
C3396 H3386 0.930 . S
C3396 C3395 1.400 . S
C3396 C3399 1.386 . S
H3397 C3413 0.930 . S
H3398 C3414 0.931 . S
C3399 H3387 0.929 . S
C3399 C3393 1.390 . S
C3399 C3396 1.386 . S
C3400 C3395 1.490 . S
C3400 C3402 1.395 . S
C3400 C3403 1.403 . S
H3401 C3407 0.930 1_545 S
C3402 H3388 0.930 . S
C3402 C3400 1.395 . S
C3402 C3405 1.403 . S
C3403 C3400 1.403 . S
C3403 C3404 1.524 . S
C3403 C3407 1.400 . S
C3404 H3389 0.960 1_565 S
C3404 H3390 0.960 . S
C3404 H3391 0.960 . S
C3404 C3403 1.524 . S
C3405 C3402 1.403 . S
C3405 C3406 1.392 . S
C3405 C3409 1.495 . S
C3406 C3405 1.392 . S
C3406 C3407 1.385 . S
C3406 C3408 1.478 . S
C3407 H3401 0.930 1_565 S
C3407 C3403 1.400 . S
C3407 C3406 1.385 . S
C3408 C3406 1.478 . S
C3408 C3410 1.381 . S
C3408 C3414 1.383 1_565 S
C3409 C3405 1.495 . S
C3409 H3415 0.959 . S
C3409 H3416 0.961 . S
C3409 H3417 0.960 . S
C3410 C3408 1.381 . S
C3410 C3411 1.394 1_565 S
C3410 H3418 0.930 . S
C3411 C3410 1.394 1_545 S
C3411 C3412 1.383 . S
C3411 H3419 0.929 . S
C3412 C3411 1.383 . S
C3412 C3413 1.377 . S
C3413 H3397 0.930 . S
C3413 C3412 1.377 . S
C3413 C3414 1.379 . S
C3414 H3398 0.931 . S
C3414 C3408 1.383 1_545 S
C3414 C3413 1.379 . S
H3415 C3409 0.959 . S
H3416 C3409 0.961 . S
H3417 C3409 0.960 . S
H3418 C3410 0.930 . S
H3419 C3411 0.929 . S
H3420 C3428 0.929 . S
H3421 C3430 0.930 . S
H3422 C3432 0.930 . S
H3423 C3435 0.929 . S
H3424 C3438 0.930 . S
H3425 C3440 0.960 . S
H3426 C3440 0.960 . S
H3427 C3440 0.960 1_655 S
C3428 H3420 0.929 . S
C3428 C3429 1.377 1_455 S
C3428 C3430 1.384 . S
C3429 C3428 1.377 1_655 S
C3429 C3435 1.390 . S
C3430 H3421 0.930 . S
C3430 C3428 1.384 . S
C3430 C3431 1.372 . S
C3431 C3430 1.372 . S
C3431 C3432 1.400 1_455 S
C3431 C3436 1.490 . S
C3432 H3422 0.930 . S
C3432 C3431 1.400 1_655 S
C3432 C3435 1.386 . S
H3433 C3449 0.930 . S
H3434 C3450 0.931 . S
C3435 H3423 0.929 . S
C3435 C3429 1.390 . S
C3435 C3432 1.386 . S
C3436 C3431 1.490 . S
C3436 C3438 1.395 . S
C3436 C3439 1.403 . S
H3437 C3443 0.930 . S
C3438 H3424 0.930 . S
C3438 C3436 1.395 . S
C3438 C3441 1.403 . S
C3439 C3436 1.403 . S
C3439 C3440 1.524 . S
C3439 C3443 1.400 . S
C3440 H3425 0.960 . S
C3440 H3426 0.960 . S
C3440 H3427 0.960 1_455 S
C3440 C3439 1.524 . S
C3441 C3438 1.403 . S
C3441 C3442 1.392 . S
C3441 C3445 1.495 . S
C3442 C3441 1.392 . S
C3442 C3443 1.385 . S
C3442 C3444 1.478 . S
C3443 H3437 0.930 . S
C3443 C3439 1.400 . S
C3443 C3442 1.385 . S
C3444 C3442 1.478 . S
C3444 C3446 1.381 . S
C3444 C3450 1.383 . S
C3445 C3441 1.495 . S
C3445 H3451 0.959 . S
C3445 H3452 0.961 . S
C3445 H3453 0.960 . S
C3446 C3444 1.381 . S
C3446 C3447 1.394 . S
C3446 H3454 0.930 . S
C3447 C3446 1.394 . S
C3447 C3448 1.383 . S
C3447 H3455 0.929 . S
C3448 C3447 1.383 . S
C3448 C3449 1.377 . S
C3449 H3433 0.930 . S
C3449 C3448 1.377 . S
C3449 C3450 1.379 . S
C3450 H3434 0.931 . S
C3450 C3444 1.383 . S
C3450 C3449 1.379 . S
H3451 C3445 0.959 . S
H3452 C3445 0.961 . S
H3453 C3445 0.960 . S
H3454 C3446 0.930 . S
H3455 C3447 0.929 . S
H3456 C3464 0.929 . S
H3457 C3466 0.930 . S
H3458 C3468 0.930 . S
H3459 C3471 0.929 . S
H3460 C3474 0.930 . S
H3461 C3476 0.960 . S
H3462 C3476 0.960 . S
H3463 C3476 0.960 . S
C3464 H3456 0.929 . S
C3464 C3465 1.377 . S
C3464 C3466 1.384 . S
C3465 C3464 1.377 . S
C3465 C3471 1.390 . S
C3466 H3457 0.930 . S
C3466 C3464 1.384 . S
C3466 C3467 1.372 . S
C3467 C3466 1.372 . S
C3467 C3468 1.400 . S
C3467 C3472 1.490 . S
C3468 H3458 0.930 . S
C3468 C3467 1.400 . S
C3468 C3471 1.386 . S
H3469 C3485 0.930 . S
H3470 C3486 0.931 . S
C3471 H3459 0.929 . S
C3471 C3465 1.390 . S
C3471 C3468 1.386 . S
C3472 C3467 1.490 . S
C3472 C3474 1.395 . S
C3472 C3475 1.403 . S
H3473 C3479 0.930 . S
C3474 H3460 0.930 . S
C3474 C3472 1.395 . S
C3474 C3477 1.403 . S
C3475 C3472 1.403 . S
C3475 C3476 1.524 . S
C3475 C3479 1.400 . S
C3476 H3461 0.960 . S
C3476 H3462 0.960 . S
C3476 H3463 0.960 . S
C3476 C3475 1.524 . S
C3477 C3474 1.403 . S
C3477 C3478 1.392 . S
C3477 C3481 1.495 . S
C3478 C3477 1.392 . S
C3478 C3479 1.385 . S
C3478 C3480 1.478 . S
C3479 H3473 0.930 . S
C3479 C3475 1.400 . S
C3479 C3478 1.385 . S
C3480 C3478 1.478 . S
C3480 C3482 1.381 . S
C3480 C3486 1.383 . S
C3481 C3477 1.495 . S
C3481 H3487 0.959 . S
C3481 H3488 0.961 . S
C3481 H3489 0.960 . S
C3482 C3480 1.381 . S
C3482 C3483 1.394 . S
C3482 H3490 0.930 . S
C3483 C3482 1.394 . S
C3483 C3484 1.383 . S
C3483 H3491 0.929 . S
C3484 C3483 1.383 . S
C3484 C3485 1.377 . S
C3485 H3469 0.930 . S
C3485 C3484 1.377 . S
C3485 C3486 1.379 . S
C3486 H3470 0.931 . S
C3486 C3480 1.383 . S
C3486 C3485 1.379 . S
H3487 C3481 0.959 . S
H3488 C3481 0.961 . S
H3489 C3481 0.960 . S
H3490 C3482 0.930 . S
H3491 C3483 0.929 . S
H3492 C3500 0.929 . S
H3493 C3502 0.930 . S
H3494 C3504 0.930 . S
H3495 C3507 0.929 . S
H3496 C3510 0.930 . S
H3497 C3512 0.960 . S
H3498 C3512 0.960 . S
H3499 C3512 0.960 . S
C3500 H3492 0.929 . S
C3500 C3501 1.369 1_556 S
C3500 C3502 1.384 . S
C3501 C3500 1.369 1_554 S
C3501 C3507 1.398 . S
C3502 H3493 0.930 . S
C3502 C3500 1.384 . S
C3502 C3503 1.390 . S
C3503 C3502 1.390 . S
C3503 C3504 1.381 1_556 S
C3503 C3508 1.499 . S
C3504 H3494 0.930 . S
C3504 C3503 1.381 1_554 S
C3504 C3507 1.386 . S
H3505 C3521 0.930 . S
H3506 C3522 0.931 . S
C3507 H3495 0.929 . S
C3507 C3501 1.398 . S
C3507 C3504 1.386 . S
C3508 C3503 1.499 . S
C3508 C3510 1.395 . S
C3508 C3511 1.403 1_556 S
H3509 C3515 0.930 . S
C3510 H3496 0.930 . S
C3510 C3508 1.395 . S
C3510 C3513 1.403 . S
C3511 C3508 1.403 1_554 S
C3511 C3512 1.524 . S
C3511 C3515 1.400 1_565 S
C3512 H3497 0.960 . S
C3512 H3498 0.960 . S
C3512 H3499 0.960 . S
C3512 C3511 1.524 . S
C3513 C3510 1.403 . S
C3513 C3514 1.392 1_565 S
C3513 C3517 1.495 1_565 S
C3514 C3513 1.392 1_545 S
C3514 C3515 1.385 1_556 S
C3514 C3516 1.478 . S
C3515 H3509 0.930 . S
C3515 C3511 1.400 1_545 S
C3515 C3514 1.385 1_554 S
C3516 C3514 1.478 . S
C3516 C3518 1.381 . S
C3516 C3522 1.383 . S
C3517 C3513 1.495 1_545 S
C3517 H3523 0.959 1_545 S
C3517 H3524 0.961 . S
C3517 H3525 0.960 . S
C3518 C3516 1.381 . S
C3518 C3519 1.394 . S
C3518 H3526 0.930 . S
C3519 C3518 1.394 . S
C3519 C3520 1.383 . S
C3519 H3527 0.929 . S
C3520 C3519 1.383 . S
C3520 C3521 1.377 . S
C3521 H3505 0.930 . S
C3521 C3520 1.377 . S
C3521 C3522 1.379 . S
C3522 H3506 0.931 . S
C3522 C3516 1.383 . S
C3522 C3521 1.379 . S
H3523 C3517 0.959 1_565 S
H3524 C3517 0.961 . S
H3525 C3517 0.960 . S
H3526 C3518 0.930 . S
H3527 C3519 0.929 . S
H3528 C3536 0.929 . S
H3529 C3538 0.930 . S
H3530 C3540 0.930 . S
H3531 C3543 0.929 . S
H3532 C3546 0.930 . S
H3533 C3548 0.960 . S
H3534 C3548 0.960 . S
H3535 C3548 0.960 . S
C3536 H3528 0.929 . S
C3536 C3537 1.392 . S
C3536 C3538 1.384 . S
C3537 C3536 1.392 . S
C3537 C3543 1.375 1_554 S
C3538 H3529 0.930 . S
C3538 C3536 1.384 . S
C3538 C3539 1.360 1_554 S
C3539 C3538 1.360 1_556 S
C3539 C3540 1.411 . S
C3539 C3544 1.486 . S
C3540 H3530 0.930 . S
C3540 C3539 1.411 . S
C3540 C3543 1.386 . S
H3541 C3557 0.930 . S
H3542 C3558 0.931 . S
C3543 H3531 0.929 . S
C3543 C3537 1.375 1_556 S
C3543 C3540 1.386 . S
C3544 C3539 1.486 . S
C3544 C3546 1.482 . S
C3544 C3547 1.337 1_556 S
H3545 C3551 0.930 . S
C3546 H3532 0.930 . S
C3546 C3544 1.482 . S
C3546 C3549 1.403 . S
C3547 C3544 1.337 1_554 S
C3547 C3548 1.524 . S
C3547 C3551 1.400 1_455 S
C3548 H3533 0.960 . S
C3548 H3534 0.960 . S
C3548 H3535 0.960 . S
C3548 C3547 1.524 . S
C3549 C3546 1.403 . S
C3549 C3550 1.392 1_455 S
C3549 C3553 1.495 1_455 S
C3550 C3549 1.392 1_655 S
C3550 C3551 1.385 1_556 S
C3550 C3552 1.478 . S
C3551 H3545 0.930 . S
C3551 C3547 1.400 1_655 S
C3551 C3550 1.385 1_554 S
C3552 C3550 1.478 . S
C3552 C3554 1.378 . S
C3552 C3558 1.383 . S
C3553 C3549 1.495 1_655 S
C3553 H3559 0.959 1_655 S
C3553 H3560 0.961 . S
C3553 H3561 0.960 . S
C3554 C3552 1.378 . S
C3554 C3555 1.394 . S
C3554 H3562 0.933 1_556 S
C3555 C3554 1.394 . S
C3555 C3556 1.383 . S
C3555 H3563 0.929 1_556 S
C3556 C3555 1.383 . S
C3556 C3557 1.377 . S
C3557 H3541 0.930 . S
C3557 C3556 1.377 . S
C3557 C3558 1.379 . S
C3558 H3542 0.931 . S
C3558 C3552 1.383 . S
C3558 C3557 1.379 . S
H3559 C3553 0.959 1_455 S
H3560 C3553 0.961 . S
H3561 C3553 0.960 . S
H3562 C3554 0.933 1_554 S
H3563 C3555 0.929 1_554 S
H3564 C3572 0.929 . S
H3565 C3574 0.930 . S
H3566 C3576 0.930 . S
H3567 C3579 0.929 . S
H3568 C3582 0.930 . S
H3569 C3584 0.959 1_554 S
H3570 C3584 0.958 1_554 S
H3571 C3584 0.962 . S
C3572 H3564 0.929 . S
C3572 C3573 1.377 1_554 S
C3572 C3574 1.384 . S
C3573 C3572 1.377 1_556 S
C3573 C3579 1.390 . S
C3574 H3565 0.930 . S
C3574 C3572 1.384 . S
C3574 C3575 1.372 1_554 S
C3575 C3574 1.372 1_556 S
C3575 C3576 1.400 . S
C3575 C3580 1.490 . S
C3576 H3566 0.930 . S
C3576 C3575 1.400 . S
C3576 C3579 1.386 . S
H3577 C3593 0.930 . S
H3578 C3594 0.931 . S
C3579 H3567 0.929 . S
C3579 C3573 1.390 . S
C3579 C3576 1.386 . S
C3580 C3575 1.490 . S
C3580 C3582 1.395 . S
C3580 C3583 1.421 . S
H3581 C3587 0.928 . S
C3582 H3568 0.930 . S
C3582 C3580 1.395 . S
C3582 C3585 1.403 . S
C3583 C3580 1.421 . S
C3583 C3584 1.518 . S
C3583 C3587 1.400 . S
C3584 H3569 0.959 1_556 S
C3584 H3570 0.958 1_556 S
C3584 H3571 0.962 . S
C3584 C3583 1.518 . S
C3585 C3582 1.403 . S
C3585 C3586 1.392 . S
C3585 C3589 1.495 . S
C3586 C3585 1.392 . S
C3586 C3587 1.394 . S
C3586 C3588 1.486 . S
C3587 H3581 0.928 . S
C3587 C3583 1.400 . S
C3587 C3586 1.394 . S
C3588 C3586 1.486 . S
C3588 C3590 1.282 1_556 S
C3588 C3594 1.480 . S
C3589 C3585 1.495 . S
C3589 H3595 0.959 . S
C3589 H3596 0.961 . S
C3589 H3597 0.960 1_556 S
C3590 C3588 1.282 1_554 S
C3590 C3591 1.394 . S
C3590 H3598 0.930 . S
C3591 C3590 1.394 . S
C3591 C3592 1.391 1_554 S
C3591 H3599 0.929 . S
C3592 C3591 1.391 1_556 S
C3592 C3593 1.369 . S
C3593 H3577 0.930 . S
C3593 C3592 1.369 . S
C3593 C3594 1.379 . S
C3594 H3578 0.931 . S
C3594 C3588 1.480 . S
C3594 C3593 1.379 . S
H3595 C3589 0.959 . S
H3596 C3589 0.961 . S
H3597 C3589 0.960 1_554 S
H3598 C3590 0.930 . S
H3599 C3591 0.929 . S
H3600 C3608 0.929 . S
H3601 C3610 0.930 . S
H3602 C3612 0.930 . S
H3603 C3615 0.929 . S
H3604 C3618 0.930 . S
H3605 C3620 0.960 . S
H3606 C3620 0.960 . S
H3607 C3620 0.960 . S
C3608 H3600 0.929 . S
C3608 C3609 1.377 . S
C3608 C3610 1.384 . S
C3609 C3608 1.377 . S
C3609 C3615 1.390 . S
C3610 H3601 0.930 . S
C3610 C3608 1.384 . S
C3610 C3611 1.372 . S
C3611 C3610 1.372 . S
C3611 C3612 1.400 . S
C3611 C3616 1.490 . S
C3612 H3602 0.930 . S
C3612 C3611 1.400 . S
C3612 C3615 1.386 . S
H3613 C3629 0.930 1_545 S
H3614 C3630 0.931 . S
C3615 H3603 0.929 . S
C3615 C3609 1.390 . S
C3615 C3612 1.386 . S
C3616 C3611 1.490 . S
C3616 C3618 1.395 . S
C3616 C3619 1.403 . S
H3617 C3623 0.930 . S
C3618 H3604 0.930 . S
C3618 C3616 1.395 . S
C3618 C3621 1.403 . S
C3619 C3616 1.403 . S
C3619 C3620 1.524 . S
C3619 C3623 1.400 . S
C3620 H3605 0.960 . S
C3620 H3606 0.960 . S
C3620 H3607 0.960 . S
C3620 C3619 1.524 . S
C3621 C3618 1.403 . S
C3621 C3622 1.392 . S
C3621 C3625 1.495 1_545 S
C3622 C3621 1.392 . S
C3622 C3623 1.385 . S
C3622 C3624 1.478 . S
C3623 H3617 0.930 . S
C3623 C3619 1.400 . S
C3623 C3622 1.385 . S
C3624 C3622 1.478 . S
C3624 C3626 1.381 1_545 S
C3624 C3630 1.383 . S
C3625 C3621 1.495 1_565 S
C3625 H3631 0.959 . S
C3625 H3632 0.961 . S
C3625 H3633 0.960 . S
C3626 C3624 1.381 1_565 S
C3626 C3627 1.394 . S
C3626 H3634 0.930 . S
C3627 C3626 1.394 . S
C3627 C3628 1.383 . S
C3627 H3635 0.929 . S
C3628 C3627 1.383 . S
C3628 C3629 1.377 . S
C3629 H3613 0.930 1_565 S
C3629 C3628 1.377 . S
C3629 C3630 1.379 1_565 S
C3630 H3614 0.931 . S
C3630 C3624 1.383 . S
C3630 C3629 1.379 1_545 S
H3631 C3625 0.959 . S
H3632 C3625 0.961 . S
H3633 C3625 0.960 . S
H3634 C3626 0.930 . S
H3635 C3627 0.929 . S
H3636 C3644 0.929 . S
H3637 C3646 0.930 . S
H3638 C3648 0.930 . S
H3639 C3651 0.929 . S
H3640 C3654 0.930 . S
H3641 C3656 0.960 1_455 S
H3642 C3656 0.960 . S
H3643 C3656 0.960 . S
C3644 H3636 0.929 . S
C3644 C3645 1.377 . S
C3644 C3646 1.384 . S
C3645 C3644 1.377 . S
C3645 C3651 1.390 . S
C3646 H3637 0.930 . S
C3646 C3644 1.384 . S
C3646 C3647 1.372 . S
C3647 C3646 1.372 . S
C3647 C3648 1.400 . S
C3647 C3652 1.490 . S
C3648 H3638 0.930 . S
C3648 C3647 1.400 . S
C3648 C3651 1.386 . S
H3649 C3665 0.930 . S
H3650 C3666 0.931 . S
C3651 H3639 0.929 . S
C3651 C3645 1.390 . S
C3651 C3648 1.386 . S
C3652 C3647 1.490 . S
C3652 C3654 1.395 . S
C3652 C3655 1.403 . S
H3653 C3659 0.924 1_455 S
C3654 H3640 0.930 . S
C3654 C3652 1.395 . S
C3654 C3657 1.403 . S
C3655 C3652 1.403 . S
C3655 C3656 1.524 . S
C3655 C3659 1.400 . S
C3656 H3641 0.960 1_655 S
C3656 H3642 0.960 . S
C3656 H3643 0.960 . S
C3656 C3655 1.524 . S
C3657 C3654 1.403 . S
C3657 C3658 1.392 . S
C3657 C3661 1.495 . S
C3658 C3657 1.392 . S
C3658 C3659 1.385 . S
C3658 C3660 1.478 . S
C3659 H3653 0.924 1_655 S
C3659 C3655 1.400 . S
C3659 C3658 1.385 . S
C3660 C3658 1.478 . S
C3660 C3662 1.381 . S
C3660 C3666 1.383 . S
C3661 C3657 1.495 . S
C3661 H3667 0.959 . S
C3661 H3668 0.961 . S
C3661 H3669 0.960 . S
C3662 C3660 1.381 . S
C3662 C3663 1.394 1_655 S
C3662 H3670 0.930 . S
C3663 C3662 1.394 1_455 S
C3663 C3664 1.383 . S
C3663 H3671 0.929 . S
C3664 C3663 1.383 . S
C3664 C3665 1.377 . S
C3665 H3649 0.930 . S
C3665 C3664 1.377 . S
C3665 C3666 1.379 1_455 S
C3666 H3650 0.931 . S
C3666 C3660 1.383 . S
C3666 C3665 1.379 1_655 S
H3667 C3661 0.959 . S
H3668 C3661 0.961 . S
H3669 C3661 0.960 . S
H3670 C3662 0.930 . S
H3671 C3663 0.929 . S
H3672 C3680 0.929 . S
H3673 C3682 0.930 . S
H3674 C3684 0.930 . S
H3675 C3687 0.929 . S
H3676 C3690 0.930 . S
H3677 C3692 0.960 . S
H3678 C3692 0.960 . S
H3679 C3692 0.960 . S
C3680 H3672 0.929 . S
C3680 C3681 1.377 . S
C3680 C3682 1.384 . S
C3681 C3680 1.377 . S
C3681 C3687 1.390 . S
C3682 H3673 0.930 . S
C3682 C3680 1.384 . S
C3682 C3683 1.372 . S
C3683 C3682 1.372 . S
C3683 C3684 1.400 . S
C3683 C3688 1.490 . S
C3684 H3674 0.930 . S
C3684 C3683 1.400 . S
C3684 C3687 1.386 . S
H3685 C3701 0.930 . S
H3686 C3702 0.931 . S
C3687 H3675 0.929 . S
C3687 C3681 1.390 . S
C3687 C3684 1.386 . S
C3688 C3683 1.490 . S
C3688 C3690 1.395 . S
C3688 C3691 1.403 . S
H3689 C3695 0.930 . S
C3690 H3676 0.930 . S
C3690 C3688 1.395 . S
C3690 C3693 1.403 . S
C3691 C3688 1.403 . S
C3691 C3692 1.524 . S
C3691 C3695 1.400 . S
C3692 H3677 0.960 . S
C3692 H3678 0.960 . S
C3692 H3679 0.960 . S
C3692 C3691 1.524 . S
C3693 C3690 1.403 . S
C3693 C3694 1.392 . S
C3693 C3697 1.495 . S
C3694 C3693 1.392 . S
C3694 C3695 1.385 . S
C3694 C3696 1.478 . S
C3695 H3689 0.930 . S
C3695 C3691 1.400 . S
C3695 C3694 1.385 . S
C3696 C3694 1.478 . S
C3696 C3698 1.381 . S
C3696 C3702 1.383 . S
C3697 C3693 1.495 . S
C3697 H3703 0.959 . S
C3697 H3704 0.961 . S
C3697 H3705 0.960 . S
C3698 C3696 1.381 . S
C3698 C3699 1.394 . S
C3698 H3706 0.930 . S
C3699 C3698 1.394 . S
C3699 C3700 1.383 . S
C3699 H3707 0.929 . S
C3700 C3699 1.383 . S
C3700 C3701 1.377 . S
C3701 H3685 0.930 . S
C3701 C3700 1.377 . S
C3701 C3702 1.379 . S
C3702 H3686 0.931 . S
C3702 C3696 1.383 . S
C3702 C3701 1.379 . S
H3703 C3697 0.959 . S
H3704 C3697 0.961 . S
H3705 C3697 0.960 . S
H3706 C3698 0.930 . S
H3707 C3699 0.929 . S
H3708 C3716 0.929 . S
H3709 C3718 0.930 . S
H3710 C3720 0.925 . S
H3711 C3723 0.921 1_556 S
H3712 C3726 0.930 . S
H3713 C3728 0.960 1_545 S
H3714 C3728 0.960 . S
H3715 C3728 0.960 . S
C3716 H3708 0.929 . S
C3716 C3717 1.377 . S
C3716 C3718 1.384 . S
C3717 C3716 1.377 . S
C3717 C3723 1.399 . S
C3718 H3709 0.930 . S
C3718 C3716 1.384 . S
C3718 C3719 1.372 . S
C3719 C3718 1.372 . S
C3719 C3720 1.404 1_554 S
C3719 C3724 1.490 . S
C3720 H3710 0.925 . S
C3720 C3719 1.404 1_556 S
C3720 C3723 1.385 1_556 S
H3721 C3737 0.930 . S
H3722 C3738 0.931 . S
C3723 H3711 0.921 1_554 S
C3723 C3717 1.399 . S
C3723 C3720 1.385 1_554 S
C3724 C3719 1.490 . S
C3724 C3726 1.395 1_554 S
C3724 C3727 1.403 1_565 S
H3725 C3731 0.930 . S
C3726 H3712 0.930 . S
C3726 C3724 1.395 1_556 S
C3726 C3729 1.403 1_565 S
C3727 C3724 1.403 1_545 S
C3727 C3728 1.524 1_545 S
C3727 C3731 1.400 . S
C3728 H3713 0.960 1_565 S
C3728 H3714 0.960 . S
C3728 H3715 0.960 . S
C3728 C3727 1.524 1_565 S
C3729 C3726 1.403 1_545 S
C3729 C3730 1.365 1_556 S
C3729 C3733 1.495 . S
C3730 C3729 1.365 1_554 S
C3730 C3731 1.421 . S
C3730 C3732 1.474 1_554 S
C3731 H3725 0.930 . S
C3731 C3727 1.400 . S
C3731 C3730 1.421 . S
C3732 C3730 1.474 1_556 S
C3732 C3734 1.378 1_556 S
C3732 C3738 1.386 . S
C3733 C3729 1.495 . S
C3733 H3739 0.959 . S
C3733 H3740 0.961 . S
C3733 H3741 0.960 . S
C3734 C3732 1.378 1_554 S
C3734 C3735 1.394 . S
C3734 H3742 0.930 . S
C3735 C3734 1.394 . S
C3735 C3736 1.359 1_554 S
C3735 H3743 0.929 . S
C3736 C3735 1.359 1_556 S
C3736 C3737 1.402 . S
C3737 H3721 0.930 . S
C3737 C3736 1.402 . S
C3737 C3738 1.379 . S
C3738 H3722 0.931 . S
C3738 C3732 1.386 . S
C3738 C3737 1.379 . S
H3739 C3733 0.959 . S
H3740 C3733 0.961 . S
H3741 C3733 0.960 . S
H3742 C3734 0.930 . S
H3743 C3735 0.929 . S
H3744 C3752 0.929 . S
H3745 C3754 0.930 . S
H3746 C3756 0.930 . S
H3747 C3759 0.929 . S
H3748 C3762 0.930 . S
H3749 C3764 0.960 . S
H3750 C3764 0.960 . S
H3751 C3764 0.960 . S
C3752 H3744 0.929 . S
C3752 C3753 1.396 . S
C3752 C3754 1.384 . S
C3753 C3752 1.396 . S
C3753 C3759 1.371 1_556 S
C3754 H3745 0.930 . S
C3754 C3752 1.384 . S
C3754 C3755 1.359 1_556 S
C3755 C3754 1.359 1_554 S
C3755 C3756 1.411 . S
C3755 C3760 1.486 . S
C3756 H3746 0.930 . S
C3756 C3755 1.411 . S
C3756 C3759 1.386 . S
H3757 C3773 0.930 . S
H3758 C3774 0.931 . S
C3759 H3747 0.929 . S
C3759 C3753 1.371 1_554 S
C3759 C3756 1.386 . S
C3760 C3755 1.486 . S
C3760 C3762 1.466 . S
C3760 C3763 1.351 1_554 S
H3761 C3767 0.930 . S
C3762 H3748 0.930 . S
C3762 C3760 1.466 . S
C3762 C3765 1.392 1_655 S
C3763 C3760 1.351 1_556 S
C3763 C3764 1.524 . S
C3763 C3767 1.400 1_655 S
C3764 H3749 0.960 . S
C3764 H3750 0.960 . S
C3764 H3751 0.960 . S
C3764 C3763 1.524 . S
C3765 C3762 1.392 1_455 S
C3765 C3766 1.404 . S
C3765 C3769 1.495 . S
C3766 C3765 1.404 . S
C3766 C3767 1.385 1_554 S
C3766 C3768 1.478 . S
C3767 H3761 0.930 . S
C3767 C3763 1.400 1_455 S
C3767 C3766 1.385 1_556 S
C3768 C3766 1.478 . S
C3768 C3770 1.340 1_554 S
C3768 C3774 1.383 . S
C3769 C3765 1.495 . S
C3769 H3775 0.925 1_455 S
C3769 H3776 0.961 . S
C3769 H3777 0.960 . S
C3770 C3768 1.340 1_556 S
C3770 C3771 1.394 . S
C3770 H3778 0.979 . S
C3771 C3770 1.394 . S
C3771 C3772 1.346 1_556 S
C3771 H3779 0.970 . S
C3772 C3771 1.346 1_554 S
C3772 C3773 1.377 . S
C3773 H3757 0.930 . S
C3773 C3772 1.377 . S
C3773 C3774 1.379 . S
C3774 H3758 0.931 . S
C3774 C3768 1.383 . S
C3774 C3773 1.379 . S
H3775 C3769 0.925 1_655 S
H3776 C3769 0.961 . S
H3777 C3769 0.960 . S
H3778 C3770 0.979 . S
H3779 C3771 0.970 . S
H3780 C3788 0.929 . S
H3781 C3790 0.930 . S
H3782 C3792 0.930 . S
H3783 C3795 0.929 . S
H3784 C3798 0.930 . S
H3785 C3800 0.960 . S
H3786 C3800 0.960 . S
H3787 C3800 0.960 . S
C3788 H3780 0.929 . S
C3788 C3789 1.377 . S
C3788 C3790 1.384 . S
C3789 C3788 1.377 . S
C3789 C3795 1.390 1_554 S
C3790 H3781 0.930 . S
C3790 C3788 1.384 . S
C3790 C3791 1.372 . S
C3791 C3790 1.372 . S
C3791 C3792 1.400 1_554 S
C3791 C3796 1.490 . S
C3792 H3782 0.930 . S
C3792 C3791 1.400 1_556 S
C3792 C3795 1.386 . S
H3793 C3809 0.930 . S
H3794 C3810 0.931 . S
C3795 H3783 0.929 . S
C3795 C3789 1.390 1_556 S
C3795 C3792 1.386 . S
C3796 C3791 1.490 . S
C3796 C3798 1.395 . S
C3796 C3799 1.403 1_554 S
H3797 C3803 0.930 . S
C3798 H3784 0.930 . S
C3798 C3796 1.395 . S
C3798 C3801 1.403 . S
C3799 C3796 1.403 1_556 S
C3799 C3800 1.524 . S
C3799 C3803 1.400 . S
C3800 H3785 0.960 . S
C3800 H3786 0.960 . S
C3800 H3787 0.960 . S
C3800 C3799 1.524 . S
C3801 C3798 1.403 . S
C3801 C3802 1.392 . S
C3801 C3805 1.495 . S
C3802 C3801 1.392 . S
C3802 C3803 1.385 1_554 S
C3802 C3804 1.478 . S
C3803 H3797 0.930 . S
C3803 C3799 1.400 . S
C3803 C3802 1.385 1_556 S
C3804 C3802 1.478 . S
C3804 C3806 1.381 . S
C3804 C3810 1.383 1_554 S
C3805 C3801 1.495 . S
C3805 H3811 0.959 . S
C3805 H3812 0.961 . S
C3805 H3813 0.960 . S
C3806 C3804 1.381 . S
C3806 C3807 1.394 . S
C3806 H3814 0.930 . S
C3807 C3806 1.394 . S
C3807 C3808 1.410 . S
C3807 H3815 0.929 . S
C3808 C3807 1.410 . S
C3808 C3809 1.353 1_554 S
C3809 H3793 0.930 . S
C3809 C3808 1.353 1_556 S
C3809 C3810 1.379 . S
C3810 H3794 0.931 . S
C3810 C3804 1.383 1_556 S
C3810 C3809 1.379 . S
H3811 C3805 0.959 . S
H3812 C3805 0.961 . S
H3813 C3805 0.960 . S
H3814 C3806 0.930 . S
H3815 C3807 0.929 . S
H3816 C3824 0.929 . S
H3817 C3826 0.930 . S
H3818 C3828 0.930 . S
H3819 C3831 0.929 . S
H3820 C3834 0.930 1_455 S
H3821 C3836 0.960 1_655 S
H3822 C3836 0.960 . S
H3823 C3836 0.960 . S
C3824 H3816 0.929 . S
C3824 C3825 1.377 . S
C3824 C3826 1.384 . S
C3825 C3824 1.377 . S
C3825 C3831 1.390 . S
C3826 H3817 0.930 . S
C3826 C3824 1.384 . S
C3826 C3827 1.372 . S
C3827 C3826 1.372 . S
C3827 C3828 1.400 . S
C3827 C3832 1.490 . S
C3828 H3818 0.930 . S
C3828 C3827 1.400 . S
C3828 C3831 1.386 . S
H3829 C3845 0.930 . S
H3830 C3846 0.931 . S
C3831 H3819 0.929 . S
C3831 C3825 1.390 . S
C3831 C3828 1.386 . S
C3832 C3827 1.490 . S
C3832 C3834 1.395 1_455 S
C3832 C3835 1.403 1_455 S
H3833 C3839 0.930 . S
C3834 H3820 0.930 1_655 S
C3834 C3832 1.395 1_655 S
C3834 C3837 1.403 . S
C3835 C3832 1.403 1_655 S
C3835 C3836 1.524 1_655 S
C3835 C3839 1.400 . S
C3836 H3821 0.960 1_455 S
C3836 H3822 0.960 . S
C3836 H3823 0.960 . S
C3836 C3835 1.524 1_455 S
C3837 C3834 1.403 . S
C3837 C3838 1.392 . S
C3837 C3841 1.495 . S
C3838 C3837 1.392 . S
C3838 C3839 1.385 . S
C3838 C3840 1.478 . S
C3839 H3833 0.930 . S
C3839 C3835 1.400 . S
C3839 C3838 1.385 . S
C3840 C3838 1.478 . S
C3840 C3842 1.381 . S
C3840 C3846 1.383 . S
C3841 C3837 1.495 . S
C3841 H3847 0.959 . S
C3841 H3848 0.961 . S
C3841 H3849 0.960 . S
C3842 C3840 1.381 . S
C3842 C3843 1.394 . S
C3842 H3850 0.930 . S
C3843 C3842 1.394 . S
C3843 C3844 1.383 . S
C3843 H3851 0.929 . S
C3844 C3843 1.383 . S
C3844 C3845 1.377 . S
C3845 H3829 0.930 . S
C3845 C3844 1.377 . S
C3845 C3846 1.379 . S
C3846 H3830 0.931 . S
C3846 C3840 1.383 . S
C3846 C3845 1.379 . S
H3847 C3841 0.959 . S
H3848 C3841 0.961 . S
H3849 C3841 0.960 . S
H3850 C3842 0.930 . S
H3851 C3843 0.929 . S
H3852 C3860 0.929 . S
H3853 C3862 0.930 . S
H3854 C3864 0.930 . S
H3855 C3867 0.929 . S
H3856 C3870 0.930 . S
H3857 C3872 0.960 . S
H3858 C3872 0.960 . S
H3859 C3872 0.960 . S
C3860 H3852 0.929 . S
C3860 C3861 1.377 . S
C3860 C3862 1.384 . S
C3861 C3860 1.377 . S
C3861 C3867 1.390 . S
C3862 H3853 0.930 . S
C3862 C3860 1.384 . S
C3862 C3863 1.372 . S
C3863 C3862 1.372 . S
C3863 C3864 1.400 . S
C3863 C3868 1.490 . S
C3864 H3854 0.930 . S
C3864 C3863 1.400 . S
C3864 C3867 1.386 . S
H3865 C3881 0.930 . S
H3866 C3882 0.931 . S
C3867 H3855 0.929 . S
C3867 C3861 1.390 . S
C3867 C3864 1.386 . S
C3868 C3863 1.490 . S
C3868 C3870 1.395 . S
C3868 C3871 1.403 . S
H3869 C3875 0.930 . S
C3870 H3856 0.930 . S
C3870 C3868 1.395 . S
C3870 C3873 1.403 . S
C3871 C3868 1.403 . S
C3871 C3872 1.524 . S
C3871 C3875 1.400 . S
C3872 H3857 0.960 . S
C3872 H3858 0.960 . S
C3872 H3859 0.960 . S
C3872 C3871 1.524 . S
C3873 C3870 1.403 . S
C3873 C3874 1.392 . S
C3873 C3877 1.495 . S
C3874 C3873 1.392 . S
C3874 C3875 1.385 . S
C3874 C3876 1.478 . S
C3875 H3869 0.930 . S
C3875 C3871 1.400 . S
C3875 C3874 1.385 . S
C3876 C3874 1.478 . S
C3876 C3878 1.381 . S
C3876 C3882 1.383 . S
C3877 C3873 1.495 . S
C3877 H3883 0.959 . S
C3877 H3884 0.961 . S
C3877 H3885 0.960 . S
C3878 C3876 1.381 . S
C3878 C3879 1.394 . S
C3878 H3886 0.930 . S
C3879 C3878 1.394 . S
C3879 C3880 1.383 . S
C3879 H3887 0.929 . S
C3880 C3879 1.383 . S
C3880 C3881 1.377 . S
C3881 H3865 0.930 . S
C3881 C3880 1.377 . S
C3881 C3882 1.379 . S
C3882 H3866 0.931 . S
C3882 C3876 1.383 . S
C3882 C3881 1.379 . S
H3883 C3877 0.959 . S
H3884 C3877 0.961 . S
H3885 C3877 0.960 . S
H3886 C3878 0.930 . S
H3887 C3879 0.929 . S
H3888 C3896 0.929 . S
H3889 C3898 0.930 . S
H3890 C3900 0.930 . S
H3891 C3903 0.929 . S
H3892 C3906 0.930 1_565 S
H3893 C3908 0.960 . S
H3894 C3908 0.960 . S
H3895 C3908 0.960 . S
C3896 H3888 0.929 . S
C3896 C3897 1.377 . S
C3896 C3898 1.384 . S
C3897 C3896 1.377 . S
C3897 C3903 1.390 . S
C3898 H3889 0.930 . S
C3898 C3896 1.384 . S
C3898 C3899 1.372 . S
C3899 C3898 1.372 . S
C3899 C3900 1.400 . S
C3899 C3904 1.490 . S
C3900 H3890 0.930 . S
C3900 C3899 1.400 . S
C3900 C3903 1.386 . S
H3901 C3917 0.930 . S
H3902 C3918 0.931 . S
C3903 H3891 0.929 . S
C3903 C3897 1.390 . S
C3903 C3900 1.386 . S
C3904 C3899 1.490 . S
C3904 C3906 1.395 1_565 S
C3904 C3907 1.403 1_565 S
H3905 C3911 0.930 . S
C3906 H3892 0.930 1_545 S
C3906 C3904 1.395 1_545 S
C3906 C3909 1.403 . S
C3907 C3904 1.403 1_545 S
C3907 C3908 1.524 1_545 S
C3907 C3911 1.400 . S
C3908 H3893 0.960 . S
C3908 H3894 0.960 . S
C3908 H3895 0.960 . S
C3908 C3907 1.524 1_565 S
C3909 C3906 1.403 . S
C3909 C3910 1.392 . S
C3909 C3913 1.495 . S
C3910 C3909 1.392 . S
C3910 C3911 1.385 . S
C3910 C3912 1.478 . S
C3911 H3905 0.930 . S
C3911 C3907 1.400 . S
C3911 C3910 1.385 . S
C3912 C3910 1.478 . S
C3912 C3914 1.381 . S
C3912 C3918 1.383 . S
C3913 C3909 1.495 . S
C3913 H3919 0.959 . S
C3913 H3920 0.961 . S
C3913 H3921 0.960 . S
C3914 C3912 1.381 . S
C3914 C3915 1.394 . S
C3914 H3922 0.930 . S
C3915 C3914 1.394 . S
C3915 C3916 1.383 . S
C3915 H3923 0.929 . S
C3916 C3915 1.383 . S
C3916 C3917 1.377 . S
C3917 H3901 0.930 . S
C3917 C3916 1.377 . S
C3917 C3918 1.379 . S
C3918 H3902 0.931 . S
C3918 C3912 1.383 . S
C3918 C3917 1.379 . S
H3919 C3913 0.959 . S
H3920 C3913 0.961 . S
H3921 C3913 0.960 . S
H3922 C3914 0.930 . S
H3923 C3915 0.929 . S
H3924 C3932 0.929 . S
H3925 C3934 0.930 . S
H3926 C3936 0.930 . S
H3927 C3939 0.929 . S
H3928 C3942 0.930 . S
H3929 C3944 0.960 . S
H3930 C3944 0.960 . S
H3931 C3944 0.931 1_455 S
C3932 H3924 0.929 . S
C3932 C3933 1.377 1_655 S
C3932 C3934 1.384 . S
C3933 C3932 1.377 1_455 S
C3933 C3939 1.390 . S
C3934 H3925 0.930 . S
C3934 C3932 1.384 . S
C3934 C3935 1.372 . S
C3935 C3934 1.372 . S
C3935 C3936 1.400 1_655 S
C3935 C3940 1.490 . S
C3936 H3926 0.930 . S
C3936 C3935 1.400 1_455 S
C3936 C3939 1.386 . S
H3937 C3953 0.930 . S
H3938 C3954 0.931 . S
C3939 H3927 0.929 . S
C3939 C3933 1.390 . S
C3939 C3936 1.386 . S
C3940 C3935 1.490 . S
C3940 C3942 1.395 . S
C3940 C3943 1.403 . S
H3941 C3947 0.930 . S
C3942 H3928 0.930 . S
C3942 C3940 1.395 . S
C3942 C3945 1.403 . S
C3943 C3940 1.403 . S
C3943 C3944 1.524 . S
C3943 C3947 1.400 . S
C3944 H3929 0.960 . S
C3944 H3930 0.960 . S
C3944 H3931 0.931 1_655 S
C3944 C3943 1.524 . S
C3945 C3942 1.403 . S
C3945 C3946 1.392 . S
C3945 C3949 1.495 . S
C3946 C3945 1.392 . S
C3946 C3947 1.385 . S
C3946 C3948 1.478 . S
C3947 H3941 0.930 . S
C3947 C3943 1.400 . S
C3947 C3946 1.385 . S
C3948 C3946 1.478 . S
C3948 C3950 1.381 . S
C3948 C3954 1.383 . S
C3949 C3945 1.495 . S
C3949 H3955 0.959 . S
C3949 H3956 0.961 . S
C3949 H3957 0.960 . S
C3950 C3948 1.381 . S
C3950 C3951 1.394 . S
C3950 H3958 0.930 . S
C3951 C3950 1.394 . S
C3951 C3952 1.383 . S
C3951 H3959 0.929 . S
C3952 C3951 1.383 . S
C3952 C3953 1.377 . S
C3953 H3937 0.930 . S
C3953 C3952 1.377 . S
C3953 C3954 1.379 . S
C3954 H3938 0.931 . S
C3954 C3948 1.383 . S
C3954 C3953 1.379 . S
H3955 C3949 0.959 . S
H3956 C3949 0.961 . S
H3957 C3949 0.960 . S
H3958 C3950 0.930 . S
H3959 C3951 0.929 . S
H3960 C3968 0.929 . S
H3961 C3970 0.930 . S
H3962 C3972 0.930 . S
H3963 C3975 0.929 . S
H3964 C3978 0.930 . S
H3965 C3980 0.960 . S
H3966 C3980 0.960 . S
H3967 C3980 0.960 . S
C3968 H3960 0.929 . S
C3968 C3969 1.377 . S
C3968 C3970 1.384 . S
C3969 C3968 1.377 . S
C3969 C3975 1.390 . S
C3970 H3961 0.930 . S
C3970 C3968 1.384 . S
C3970 C3971 1.372 . S
C3971 C3970 1.372 . S
C3971 C3972 1.400 . S
C3971 C3976 1.490 . S
C3972 H3962 0.930 . S
C3972 C3971 1.400 . S
C3972 C3975 1.386 . S
H3973 C3989 0.930 . S
H3974 C3990 0.931 . S
C3975 H3963 0.929 . S
C3975 C3969 1.390 . S
C3975 C3972 1.386 . S
C3976 C3971 1.490 . S
C3976 C3978 1.395 . S
C3976 C3979 1.403 . S
H3977 C3983 0.930 . S
C3978 H3964 0.930 . S
C3978 C3976 1.395 . S
C3978 C3981 1.403 . S
C3979 C3976 1.403 . S
C3979 C3980 1.524 . S
C3979 C3983 1.400 . S
C3980 H3965 0.960 . S
C3980 H3966 0.960 . S
C3980 H3967 0.960 . S
C3980 C3979 1.524 . S
C3981 C3978 1.403 . S
C3981 C3982 1.392 . S
C3981 C3985 1.495 . S
C3982 C3981 1.392 . S
C3982 C3983 1.385 . S
C3982 C3984 1.478 . S
C3983 H3977 0.930 . S
C3983 C3979 1.400 . S
C3983 C3982 1.385 . S
C3984 C3982 1.478 . S
C3984 C3986 1.381 . S
C3984 C3990 1.383 . S
C3985 C3981 1.495 . S
C3985 H3991 0.959 . S
C3985 H3992 0.961 . S
C3985 H3993 0.960 . S
C3986 C3984 1.381 . S
C3986 C3987 1.394 . S
C3986 H3994 0.930 . S
C3987 C3986 1.394 . S
C3987 C3988 1.383 . S
C3987 H3995 0.929 . S
C3988 C3987 1.383 . S
C3988 C3989 1.377 . S
C3989 H3973 0.930 . S
C3989 C3988 1.377 . S
C3989 C3990 1.379 . S
C3990 H3974 0.931 . S
C3990 C3984 1.383 . S
C3990 C3989 1.379 . S
H3991 C3985 0.959 . S
H3992 C3985 0.961 . S
H3993 C3985 0.960 . S
H3994 C3986 0.930 . S
H3995 C3987 0.929 . S
H3996 C4004 0.929 . S
H3997 C4006 0.930 . S
H3998 C4008 0.930 . S
H3999 C4011 0.929 . S
H4000 C4014 0.930 . S
H4001 C4016 0.960 . S
H4002 C4016 0.960 . S
H4003 C4016 0.960 . S
C4004 H3996 0.929 . S
C4004 C4005 1.377 . S
C4004 C4006 1.384 . S
C4005 C4004 1.377 . S
C4005 C4011 1.390 . S
C4006 H3997 0.930 . S
C4006 C4004 1.384 . S
C4006 C4007 1.372 . S
C4007 C4006 1.372 . S
C4007 C4008 1.400 . S
C4007 C4012 1.490 . S
C4008 H3998 0.930 . S
C4008 C4007 1.400 . S
C4008 C4011 1.386 . S
H4009 C4025 0.930 . S
H4010 C4026 0.931 . S
C4011 H3999 0.929 . S
C4011 C4005 1.390 . S
C4011 C4008 1.386 . S
C4012 C4007 1.490 . S
C4012 C4014 1.395 . S
C4012 C4015 1.403 . S
H4013 C4019 0.930 . S
C4014 H4000 0.930 . S
C4014 C4012 1.395 . S
C4014 C4017 1.403 . S
C4015 C4012 1.403 . S
C4015 C4016 1.524 . S
C4015 C4019 1.400 . S
C4016 H4001 0.960 . S
C4016 H4002 0.960 . S
C4016 H4003 0.960 . S
C4016 C4015 1.524 . S
C4017 C4014 1.403 . S
C4017 C4018 1.392 . S
C4017 C4021 1.495 1_545 S
C4018 C4017 1.392 . S
C4018 C4019 1.385 . S
C4018 C4020 1.478 . S
C4019 H4013 0.930 . S
C4019 C4015 1.400 . S
C4019 C4018 1.385 . S
C4020 C4018 1.478 . S
C4020 C4022 1.381 . S
C4020 C4026 1.383 1_545 S
C4021 C4017 1.495 1_565 S
C4021 H4027 0.959 . S
C4021 H4028 0.961 . S
C4021 H4029 0.960 . S
C4022 C4020 1.381 . S
C4022 C4023 1.394 1_545 S
C4022 H4030 0.930 . S
C4023 C4022 1.394 1_565 S
C4023 C4024 1.383 . S
C4023 H4031 0.929 . S
C4024 C4023 1.383 . S
C4024 C4025 1.377 . S
C4025 H4009 0.930 . S
C4025 C4024 1.377 . S
C4025 C4026 1.379 . S
C4026 H4010 0.931 . S
C4026 C4020 1.383 1_565 S
C4026 C4025 1.379 . S
H4027 C4021 0.959 . S
H4028 C4021 0.961 . S
H4029 C4021 0.960 . S
H4030 C4022 0.930 . S
H4031 C4023 0.929 . S
H4032 C4040 0.929 . S
H4033 C4042 0.930 . S
H4034 C4044 0.930 . S
H4035 C4047 0.929 . S
H4036 C4050 0.930 . S
H4037 C4052 0.960 . S
H4038 C4052 0.960 . S
H4039 C4052 0.960 . S
C4040 H4032 0.929 . S
C4040 C4041 1.377 . S
C4040 C4042 1.384 . S
C4041 C4040 1.377 . S
C4041 C4047 1.390 . S
C4042 H4033 0.930 . S
C4042 C4040 1.384 . S
C4042 C4043 1.372 . S
C4043 C4042 1.372 . S
C4043 C4044 1.400 . S
C4043 C4048 1.490 . S
C4044 H4034 0.930 . S
C4044 C4043 1.400 . S
C4044 C4047 1.386 . S
H4045 C4061 0.930 . S
H4046 C4062 0.931 . S
C4047 H4035 0.929 . S
C4047 C4041 1.390 . S
C4047 C4044 1.386 . S
C4048 C4043 1.490 . S
C4048 C4050 1.395 . S
C4048 C4051 1.403 . S
H4049 C4055 0.930 . S
C4050 H4036 0.930 . S
C4050 C4048 1.395 . S
C4050 C4053 1.403 . S
C4051 C4048 1.403 . S
C4051 C4052 1.524 . S
C4051 C4055 1.400 . S
C4052 H4037 0.960 . S
C4052 H4038 0.960 . S
C4052 H4039 0.960 . S
C4052 C4051 1.524 . S
C4053 C4050 1.403 . S
C4053 C4054 1.392 . S
C4053 C4057 1.495 . S
C4054 C4053 1.392 . S
C4054 C4055 1.385 . S
C4054 C4056 1.478 . S
C4055 H4049 0.930 . S
C4055 C4051 1.400 . S
C4055 C4054 1.385 . S
C4056 C4054 1.478 . S
C4056 C4058 1.381 . S
C4056 C4062 1.383 . S
C4057 C4053 1.495 . S
C4057 H4063 0.959 . S
C4057 H4064 0.961 . S
C4057 H4065 0.960 . S
C4058 C4056 1.381 . S
C4058 C4059 1.394 . S
C4058 H4066 0.930 . S
C4059 C4058 1.394 . S
C4059 C4060 1.383 . S
C4059 H4067 0.929 . S
C4060 C4059 1.383 . S
C4060 C4061 1.377 . S
C4061 H4045 0.930 . S
C4061 C4060 1.377 . S
C4061 C4062 1.379 . S
C4062 H4046 0.931 . S
C4062 C4056 1.383 . S
C4062 C4061 1.379 . S
H4063 C4057 0.959 . S
H4064 C4057 0.961 . S
H4065 C4057 0.960 . S
H4066 C4058 0.930 . S
H4067 C4059 0.929 . S
H4068 C4076 0.929 . S
H4069 C4078 0.930 . S
H4070 C4080 0.930 . S
H4071 C4083 0.929 . S
H4072 C4086 0.930 . S
H4073 C4088 0.960 . S
H4074 C4088 0.960 . S
H4075 C4088 0.960 . S
C4076 H4068 0.929 . S
C4076 C4077 1.377 . S
C4076 C4078 1.384 . S
C4077 C4076 1.377 . S
C4077 C4083 1.390 . S
C4078 H4069 0.930 . S
C4078 C4076 1.384 . S
C4078 C4079 1.372 . S
C4079 C4078 1.372 . S
C4079 C4080 1.400 . S
C4079 C4084 1.490 . S
C4080 H4070 0.930 . S
C4080 C4079 1.400 . S
C4080 C4083 1.386 . S
H4081 C4097 0.930 . S
H4082 C4098 0.931 . S
C4083 H4071 0.929 . S
C4083 C4077 1.390 . S
C4083 C4080 1.386 . S
C4084 C4079 1.490 . S
C4084 C4086 1.395 . S
C4084 C4087 1.403 . S
H4085 C4091 0.930 . S
C4086 H4072 0.930 . S
C4086 C4084 1.395 . S
C4086 C4089 1.403 . S
C4087 C4084 1.403 . S
C4087 C4088 1.524 . S
C4087 C4091 1.400 . S
C4088 H4073 0.960 . S
C4088 H4074 0.960 . S
C4088 H4075 0.960 . S
C4088 C4087 1.524 . S
C4089 C4086 1.403 . S
C4089 C4090 1.392 . S
C4089 C4093 1.495 . S
C4090 C4089 1.392 . S
C4090 C4091 1.385 . S
C4090 C4092 1.478 . S
C4091 H4085 0.930 . S
C4091 C4087 1.400 . S
C4091 C4090 1.385 . S
C4092 C4090 1.478 . S
C4092 C4094 1.381 . S
C4092 C4098 1.383 . S
C4093 C4089 1.495 . S
C4093 H4099 0.959 . S
C4093 H4100 0.961 . S
C4093 H4101 0.960 . S
C4094 C4092 1.381 . S
C4094 C4095 1.394 . S
C4094 H4102 0.930 . S
C4095 C4094 1.394 . S
C4095 C4096 1.383 . S
C4095 H4103 0.929 . S
C4096 C4095 1.383 . S
C4096 C4097 1.377 . S
C4097 H4081 0.930 . S
C4097 C4096 1.377 . S
C4097 C4098 1.379 . S
C4098 H4082 0.931 . S
C4098 C4092 1.383 . S
C4098 C4097 1.379 . S
H4099 C4093 0.959 . S
H4100 C4093 0.961 . S
H4101 C4093 0.960 . S
H4102 C4094 0.930 . S
H4103 C4095 0.929 . S
H4104 C4112 0.929 . S
H4105 C4114 0.930 . S
H4106 C4116 0.930 . S
H4107 C4119 0.929 . S
H4108 C4122 0.930 . S
H4109 C4124 0.960 . S
H4110 C4124 0.960 . S
H4111 C4124 0.960 . S
C4112 H4104 0.929 . S
C4112 C4113 1.377 . S
C4112 C4114 1.384 . S
C4113 C4112 1.377 . S
C4113 C4119 1.390 . S
C4114 H4105 0.930 . S
C4114 C4112 1.384 . S
C4114 C4115 1.372 . S
C4115 C4114 1.372 . S
C4115 C4116 1.400 . S
C4115 C4120 1.490 . S
C4116 H4106 0.930 . S
C4116 C4115 1.400 . S
C4116 C4119 1.386 . S
H4117 C4133 0.930 . S
H4118 C4134 0.931 . S
C4119 H4107 0.929 . S
C4119 C4113 1.390 . S
C4119 C4116 1.386 . S
C4120 C4115 1.490 . S
C4120 C4122 1.395 . S
C4120 C4123 1.403 . S
H4121 C4127 0.930 . S
C4122 H4108 0.930 . S
C4122 C4120 1.395 . S
C4122 C4125 1.403 . S
C4123 C4120 1.403 . S
C4123 C4124 1.524 . S
C4123 C4127 1.400 . S
C4124 H4109 0.960 . S
C4124 H4110 0.960 . S
C4124 H4111 0.960 . S
C4124 C4123 1.524 . S
C4125 C4122 1.403 . S
C4125 C4126 1.392 . S
C4125 C4129 1.495 . S
C4126 C4125 1.392 . S
C4126 C4127 1.385 . S
C4126 C4128 1.478 . S
C4127 H4121 0.930 . S
C4127 C4123 1.400 . S
C4127 C4126 1.385 . S
C4128 C4126 1.478 . S
C4128 C4130 1.381 . S
C4128 C4134 1.383 . S
C4129 C4125 1.495 . S
C4129 H4135 0.959 . S
C4129 H4136 0.961 . S
C4129 H4137 0.960 . S
C4130 C4128 1.381 . S
C4130 C4131 1.394 . S
C4130 H4138 0.930 . S
C4131 C4130 1.394 . S
C4131 C4132 1.383 . S
C4131 H4139 0.929 . S
C4132 C4131 1.383 . S
C4132 C4133 1.377 . S
C4133 H4117 0.930 . S
C4133 C4132 1.377 . S
C4133 C4134 1.379 . S
C4134 H4118 0.931 . S
C4134 C4128 1.383 . S
C4134 C4133 1.379 . S
H4135 C4129 0.959 . S
H4136 C4129 0.961 . S
H4137 C4129 0.960 . S
H4138 C4130 0.930 . S
H4139 C4131 0.929 . S
H4140 C4148 0.929 . S
H4141 C4150 0.930 . S
H4142 C4152 0.930 . S
H4143 C4155 0.929 . S
H4144 C4158 0.930 . S
H4145 C4160 0.960 . S
H4146 C4160 0.960 . S
H4147 C4160 0.960 . S
C4148 H4140 0.929 . S
C4148 C4149 1.377 . S
C4148 C4150 1.384 . S
C4149 C4148 1.377 . S
C4149 C4155 1.390 . S
C4150 H4141 0.930 . S
C4150 C4148 1.384 . S
C4150 C4151 1.372 . S
C4151 C4150 1.372 . S
C4151 C4152 1.400 . S
C4151 C4156 1.490 . S
C4152 H4142 0.930 . S
C4152 C4151 1.400 . S
C4152 C4155 1.386 . S
H4153 C4169 0.930 . S
H4154 C4170 0.931 . S
C4155 H4143 0.929 . S
C4155 C4149 1.390 . S
C4155 C4152 1.386 . S
C4156 C4151 1.490 . S
C4156 C4158 1.395 . S
C4156 C4159 1.403 . S
H4157 C4163 0.930 . S
C4158 H4144 0.930 . S
C4158 C4156 1.395 . S
C4158 C4161 1.403 . S
C4159 C4156 1.403 . S
C4159 C4160 1.524 . S
C4159 C4163 1.400 . S
C4160 H4145 0.960 . S
C4160 H4146 0.960 . S
C4160 H4147 0.960 . S
C4160 C4159 1.524 . S
C4161 C4158 1.403 . S
C4161 C4162 1.392 . S
C4161 C4165 1.495 . S
C4162 C4161 1.392 . S
C4162 C4163 1.385 . S
C4162 C4164 1.478 . S
C4163 H4157 0.930 . S
C4163 C4159 1.400 . S
C4163 C4162 1.385 . S
C4164 C4162 1.478 . S
C4164 C4166 1.381 . S
C4164 C4170 1.383 . S
C4165 C4161 1.495 . S
C4165 H4171 0.959 . S
C4165 H4172 0.961 . S
C4165 H4173 0.960 . S
C4166 C4164 1.381 . S
C4166 C4167 1.394 . S
C4166 H4174 0.930 . S
C4167 C4166 1.394 . S
C4167 C4168 1.383 . S
C4167 H4175 0.929 . S
C4168 C4167 1.383 . S
C4168 C4169 1.377 . S
C4169 H4153 0.930 . S
C4169 C4168 1.377 . S
C4169 C4170 1.379 . S
C4170 H4154 0.931 . S
C4170 C4164 1.383 . S
C4170 C4169 1.379 . S
H4171 C4165 0.959 . S
H4172 C4165 0.961 . S
H4173 C4165 0.960 . S
H4174 C4166 0.930 . S
H4175 C4167 0.929 . S
H4176 C4184 0.929 . S
H4177 C4186 0.930 . S
H4178 C4188 0.930 . S
H4179 C4191 0.929 . S
H4180 C4194 0.930 . S
H4181 C4196 0.960 . S
H4182 C4196 0.960 . S
H4183 C4196 0.960 . S
C4184 H4176 0.929 . S
C4184 C4185 1.377 . S
C4184 C4186 1.384 . S
C4185 C4184 1.377 . S
C4185 C4191 1.390 . S
C4186 H4177 0.930 . S
C4186 C4184 1.384 . S
C4186 C4187 1.372 . S
C4187 C4186 1.372 . S
C4187 C4188 1.400 . S
C4187 C4192 1.490 . S
C4188 H4178 0.930 . S
C4188 C4187 1.400 . S
C4188 C4191 1.386 . S
H4189 C4205 0.930 . S
H4190 C4206 0.931 . S
C4191 H4179 0.929 . S
C4191 C4185 1.390 . S
C4191 C4188 1.386 . S
C4192 C4187 1.490 . S
C4192 C4194 1.395 . S
C4192 C4195 1.403 . S
H4193 C4199 0.930 . S
C4194 H4180 0.930 . S
C4194 C4192 1.395 . S
C4194 C4197 1.403 . S
C4195 C4192 1.403 . S
C4195 C4196 1.524 . S
C4195 C4199 1.400 . S
C4196 H4181 0.960 . S
C4196 H4182 0.960 . S
C4196 H4183 0.960 . S
C4196 C4195 1.524 . S
C4197 C4194 1.403 . S
C4197 C4198 1.392 . S
C4197 C4201 1.495 . S
C4198 C4197 1.392 . S
C4198 C4199 1.385 . S
C4198 C4200 1.478 . S
C4199 H4193 0.930 . S
C4199 C4195 1.400 . S
C4199 C4198 1.385 . S
C4200 C4198 1.478 . S
C4200 C4202 1.381 . S
C4200 C4206 1.383 . S
C4201 C4197 1.495 . S
C4201 H4207 0.959 . S
C4201 H4208 0.961 . S
C4201 H4209 0.960 . S
C4202 C4200 1.381 . S
C4202 C4203 1.394 . S
C4202 H4210 0.930 . S
C4203 C4202 1.394 . S
C4203 C4204 1.383 . S
C4203 H4211 0.929 . S
C4204 C4203 1.383 . S
C4204 C4205 1.377 . S
C4205 H4189 0.930 . S
C4205 C4204 1.377 . S
C4205 C4206 1.379 . S
C4206 H4190 0.931 . S
C4206 C4200 1.383 . S
C4206 C4205 1.379 . S
H4207 C4201 0.959 . S
H4208 C4201 0.961 . S
H4209 C4201 0.960 . S
H4210 C4202 0.930 . S
H4211 C4203 0.929 . S
H4212 C4220 0.929 . S
H4213 C4222 0.930 . S
H4214 C4224 0.930 . S
H4215 C4227 0.929 . S
H4216 C4230 0.930 . S
H4217 C4232 0.960 . S
H4218 C4232 0.960 . S
H4219 C4232 0.960 . S
C4220 H4212 0.929 . S
C4220 C4221 1.377 . S
C4220 C4222 1.384 . S
C4221 C4220 1.377 . S
C4221 C4227 1.390 . S
C4222 H4213 0.930 . S
C4222 C4220 1.384 . S
C4222 C4223 1.372 . S
C4223 C4222 1.372 . S
C4223 C4224 1.400 . S
C4223 C4228 1.490 . S
C4224 H4214 0.930 . S
C4224 C4223 1.400 . S
C4224 C4227 1.386 . S
H4225 C4241 0.930 . S
H4226 C4242 0.931 . S
C4227 H4215 0.929 . S
C4227 C4221 1.390 . S
C4227 C4224 1.386 . S
C4228 C4223 1.490 . S
C4228 C4230 1.395 . S
C4228 C4231 1.403 . S
H4229 C4235 0.930 . S
C4230 H4216 0.930 . S
C4230 C4228 1.395 . S
C4230 C4233 1.403 . S
C4231 C4228 1.403 . S
C4231 C4232 1.524 . S
C4231 C4235 1.400 . S
C4232 H4217 0.960 . S
C4232 H4218 0.960 . S
C4232 H4219 0.960 . S
C4232 C4231 1.524 . S
C4233 C4230 1.403 . S
C4233 C4234 1.392 . S
C4233 C4237 1.495 . S
C4234 C4233 1.392 . S
C4234 C4235 1.385 . S
C4234 C4236 1.478 . S
C4235 H4229 0.930 . S
C4235 C4231 1.400 . S
C4235 C4234 1.385 . S
C4236 C4234 1.478 . S
C4236 C4238 1.381 . S
C4236 C4242 1.383 . S
C4237 C4233 1.495 . S
C4237 H4243 0.959 . S
C4237 H4244 0.961 . S
C4237 H4245 0.960 . S
C4238 C4236 1.381 . S
C4238 C4239 1.394 . S
C4238 H4246 0.930 . S
C4239 C4238 1.394 . S
C4239 C4240 1.383 . S
C4239 H4247 0.929 . S
C4240 C4239 1.383 . S
C4240 C4241 1.377 . S
C4241 H4225 0.930 . S
C4241 C4240 1.377 . S
C4241 C4242 1.379 . S
C4242 H4226 0.931 . S
C4242 C4236 1.383 . S
C4242 C4241 1.379 . S
H4243 C4237 0.959 . S
H4244 C4237 0.961 . S
H4245 C4237 0.960 . S
H4246 C4238 0.930 . S
H4247 C4239 0.929 . S
H4248 C4256 0.929 . S
H4249 C4258 0.930 . S
H4250 C4260 0.930 . S
H4251 C4263 0.929 . S
H4252 C4266 0.930 . S
H4253 C4268 0.960 . S
H4254 C4268 0.960 . S
H4255 C4268 0.960 . S
C4256 H4248 0.929 . S
C4256 C4257 1.377 . S
C4256 C4258 1.384 . S
C4257 C4256 1.377 . S
C4257 C4263 1.390 . S
C4258 H4249 0.930 . S
C4258 C4256 1.384 . S
C4258 C4259 1.372 . S
C4259 C4258 1.372 . S
C4259 C4260 1.400 . S
C4259 C4264 1.490 . S
C4260 H4250 0.930 . S
C4260 C4259 1.400 . S
C4260 C4263 1.386 . S
H4261 C4277 0.930 . S
H4262 C4278 0.931 . S
C4263 H4251 0.929 . S
C4263 C4257 1.390 . S
C4263 C4260 1.386 . S
C4264 C4259 1.490 . S
C4264 C4266 1.395 . S
C4264 C4267 1.403 . S
H4265 C4271 0.930 . S
C4266 H4252 0.930 . S
C4266 C4264 1.395 . S
C4266 C4269 1.403 . S
C4267 C4264 1.403 . S
C4267 C4268 1.524 . S
C4267 C4271 1.400 . S
C4268 H4253 0.960 . S
C4268 H4254 0.960 . S
C4268 H4255 0.960 . S
C4268 C4267 1.524 . S
C4269 C4266 1.403 . S
C4269 C4270 1.392 . S
C4269 C4273 1.495 . S
C4270 C4269 1.392 . S
C4270 C4271 1.385 . S
C4270 C4272 1.478 . S
C4271 H4265 0.930 . S
C4271 C4267 1.400 . S
C4271 C4270 1.385 . S
C4272 C4270 1.478 . S
C4272 C4274 1.381 . S
C4272 C4278 1.383 . S
C4273 C4269 1.495 . S
C4273 H4279 0.959 . S
C4273 H4280 0.961 . S
C4273 H4281 0.960 . S
C4274 C4272 1.381 . S
C4274 C4275 1.394 . S
C4274 H4282 0.930 . S
C4275 C4274 1.394 . S
C4275 C4276 1.383 . S
C4275 H4283 0.929 . S
C4276 C4275 1.383 . S
C4276 C4277 1.377 . S
C4277 H4261 0.930 . S
C4277 C4276 1.377 . S
C4277 C4278 1.379 . S
C4278 H4262 0.931 . S
C4278 C4272 1.383 . S
C4278 C4277 1.379 . S
H4279 C4273 0.959 . S
H4280 C4273 0.961 . S
H4281 C4273 0.960 . S
H4282 C4274 0.930 . S
H4283 C4275 0.929 . S
H4284 C4292 0.929 . S
H4285 C4294 0.930 . S
H4286 C4296 0.930 . S
H4287 C4299 0.929 . S
H4288 C4302 0.930 . S
H4289 C4304 0.960 . S
H4290 C4304 0.960 . S
H4291 C4304 0.960 . S
C4292 H4284 0.929 . S
C4292 C4293 1.377 . S
C4292 C4294 1.384 . S
C4293 C4292 1.377 . S
C4293 C4299 1.390 . S
C4294 H4285 0.930 . S
C4294 C4292 1.384 . S
C4294 C4295 1.372 . S
C4295 C4294 1.372 . S
C4295 C4296 1.400 . S
C4295 C4300 1.490 . S
C4296 H4286 0.930 . S
C4296 C4295 1.400 . S
C4296 C4299 1.386 . S
H4297 C4313 0.930 . S
H4298 C4314 0.931 . S
C4299 H4287 0.929 . S
C4299 C4293 1.390 . S
C4299 C4296 1.386 . S
C4300 C4295 1.490 . S
C4300 C4302 1.395 . S
C4300 C4303 1.403 . S
H4301 C4307 0.930 . S
C4302 H4288 0.930 . S
C4302 C4300 1.395 . S
C4302 C4305 1.403 . S
C4303 C4300 1.403 . S
C4303 C4304 1.524 . S
C4303 C4307 1.400 . S
C4304 H4289 0.960 . S
C4304 H4290 0.960 . S
C4304 H4291 0.960 . S
C4304 C4303 1.524 . S
C4305 C4302 1.403 . S
C4305 C4306 1.392 . S
C4305 C4309 1.495 . S
C4306 C4305 1.392 . S
C4306 C4307 1.385 . S
C4306 C4308 1.478 . S
C4307 H4301 0.930 . S
C4307 C4303 1.400 . S
C4307 C4306 1.385 . S
C4308 C4306 1.478 . S
C4308 C4310 1.381 . S
C4308 C4314 1.383 . S
C4309 C4305 1.495 . S
C4309 H4315 0.959 . S
C4309 H4316 0.961 . S
C4309 H4317 0.960 . S
C4310 C4308 1.381 . S
C4310 C4311 1.394 . S
C4310 H4318 0.930 . S
C4311 C4310 1.394 . S
C4311 C4312 1.383 . S
C4311 H4319 0.929 . S
C4312 C4311 1.383 . S
C4312 C4313 1.377 . S
C4313 H4297 0.930 . S
C4313 C4312 1.377 . S
C4313 C4314 1.379 . S
C4314 H4298 0.931 . S
C4314 C4308 1.383 . S
C4314 C4313 1.379 . S
H4315 C4309 0.959 . S
H4316 C4309 0.961 . S
H4317 C4309 0.960 . S
H4318 C4310 0.930 . S
H4319 C4311 0.929 . S
H4320 C4328 0.929 . S
H4321 C4330 0.930 . S
H4322 C4332 0.930 . S
H4323 C4335 0.929 . S
H4324 C4338 0.930 . S
H4325 C4340 0.960 . S
H4326 C4340 0.960 . S
H4327 C4340 0.960 . S
C4328 H4320 0.929 . S
C4328 C4329 1.377 . S
C4328 C4330 1.384 . S
C4329 C4328 1.377 . S
C4329 C4335 1.390 . S
C4330 H4321 0.930 . S
C4330 C4328 1.384 . S
C4330 C4331 1.372 . S
C4331 C4330 1.372 . S
C4331 C4332 1.400 . S
C4331 C4336 1.490 . S
C4332 H4322 0.930 . S
C4332 C4331 1.400 . S
C4332 C4335 1.386 . S
H4333 C4349 0.930 . S
H4334 C4350 0.931 . S
C4335 H4323 0.929 . S
C4335 C4329 1.390 . S
C4335 C4332 1.386 . S
C4336 C4331 1.490 . S
C4336 C4338 1.395 . S
C4336 C4339 1.403 . S
H4337 C4343 0.930 . S
C4338 H4324 0.930 . S
C4338 C4336 1.395 . S
C4338 C4341 1.403 . S
C4339 C4336 1.403 . S
C4339 C4340 1.524 . S
C4339 C4343 1.400 . S
C4340 H4325 0.960 . S
C4340 H4326 0.960 . S
C4340 H4327 0.960 . S
C4340 C4339 1.524 . S
C4341 C4338 1.403 . S
C4341 C4342 1.392 . S
C4341 C4345 1.495 . S
C4342 C4341 1.392 . S
C4342 C4343 1.385 . S
C4342 C4344 1.478 . S
C4343 H4337 0.930 . S
C4343 C4339 1.400 . S
C4343 C4342 1.385 . S
C4344 C4342 1.478 . S
C4344 C4346 1.381 . S
C4344 C4350 1.383 . S
C4345 C4341 1.495 . S
C4345 H4351 0.959 . S
C4345 H4352 0.961 . S
C4345 H4353 0.960 . S
C4346 C4344 1.381 . S
C4346 C4347 1.394 . S
C4346 H4354 0.930 . S
C4347 C4346 1.394 . S
C4347 C4348 1.383 . S
C4347 H4355 0.929 . S
C4348 C4347 1.383 . S
C4348 C4349 1.377 . S
C4349 H4333 0.930 . S
C4349 C4348 1.377 . S
C4349 C4350 1.379 . S
C4350 H4334 0.931 . S
C4350 C4344 1.383 . S
C4350 C4349 1.379 . S
H4351 C4345 0.959 . S
H4352 C4345 0.961 . S
H4353 C4345 0.960 . S
H4354 C4346 0.930 . S
H4355 C4347 0.929 . S
H4356 C4364 0.929 . S
H4357 C4366 0.930 . S
H4358 C4368 0.930 . S
H4359 C4371 0.929 . S
H4360 C4374 0.930 . S
H4361 C4376 0.960 . S
H4362 C4376 0.960 . S
H4363 C4376 0.960 . S
C4364 H4356 0.929 . S
C4364 C4365 1.377 . S
C4364 C4366 1.384 . S
C4365 C4364 1.377 . S
C4365 C4371 1.390 . S
C4366 H4357 0.930 . S
C4366 C4364 1.384 . S
C4366 C4367 1.372 . S
C4367 C4366 1.372 . S
C4367 C4368 1.400 . S
C4367 C4372 1.490 . S
C4368 H4358 0.930 . S
C4368 C4367 1.400 . S
C4368 C4371 1.386 . S
H4369 C4385 0.930 . S
H4370 C4386 0.931 . S
C4371 H4359 0.929 . S
C4371 C4365 1.390 . S
C4371 C4368 1.386 . S
C4372 C4367 1.490 . S
C4372 C4374 1.395 . S
C4372 C4375 1.403 . S
H4373 C4379 0.930 . S
C4374 H4360 0.930 . S
C4374 C4372 1.395 . S
C4374 C4377 1.403 . S
C4375 C4372 1.403 . S
C4375 C4376 1.524 . S
C4375 C4379 1.400 . S
C4376 H4361 0.960 . S
C4376 H4362 0.960 . S
C4376 H4363 0.960 . S
C4376 C4375 1.524 . S
C4377 C4374 1.403 . S
C4377 C4378 1.392 . S
C4377 C4381 1.495 . S
C4378 C4377 1.392 . S
C4378 C4379 1.385 . S
C4378 C4380 1.478 . S
C4379 H4373 0.930 . S
C4379 C4375 1.400 . S
C4379 C4378 1.385 . S
C4380 C4378 1.478 . S
C4380 C4382 1.381 . S
C4380 C4386 1.383 . S
C4381 C4377 1.495 . S
C4381 H4387 0.959 . S
C4381 H4388 0.961 . S
C4381 H4389 0.960 . S
C4382 C4380 1.381 . S
C4382 C4383 1.394 . S
C4382 H4390 0.930 . S
C4383 C4382 1.394 . S
C4383 C4384 1.383 . S
C4383 H4391 0.929 . S
C4384 C4383 1.383 . S
C4384 C4385 1.377 . S
C4385 H4369 0.930 . S
C4385 C4384 1.377 . S
C4385 C4386 1.379 . S
C4386 H4370 0.931 . S
C4386 C4380 1.383 . S
C4386 C4385 1.379 . S
H4387 C4381 0.959 . S
H4388 C4381 0.961 . S
H4389 C4381 0.960 . S
H4390 C4382 0.930 . S
H4391 C4383 0.929 . S
H4392 C4400 0.929 . S
H4393 C4402 0.930 . S
H4394 C4404 0.930 . S
H4395 C4407 0.929 . S
H4396 C4410 0.930 . S
H4397 C4412 0.960 . S
H4398 C4412 0.960 . S
H4399 C4412 0.960 . S
C4400 H4392 0.929 . S
C4400 C4401 1.377 . S
C4400 C4402 1.384 . S
C4401 C4400 1.377 . S
C4401 C4407 1.390 . S
C4402 H4393 0.930 . S
C4402 C4400 1.384 . S
C4402 C4403 1.372 . S
C4403 C4402 1.372 . S
C4403 C4404 1.400 . S
C4403 C4408 1.490 . S
C4404 H4394 0.930 . S
C4404 C4403 1.400 . S
C4404 C4407 1.386 . S
H4405 C4421 0.930 . S
H4406 C4422 0.931 . S
C4407 H4395 0.929 . S
C4407 C4401 1.390 . S
C4407 C4404 1.386 . S
C4408 C4403 1.490 . S
C4408 C4410 1.395 . S
C4408 C4411 1.403 . S
H4409 C4415 0.930 . S
C4410 H4396 0.930 . S
C4410 C4408 1.395 . S
C4410 C4413 1.403 . S
C4411 C4408 1.403 . S
C4411 C4412 1.524 . S
C4411 C4415 1.400 . S
C4412 H4397 0.960 . S
C4412 H4398 0.960 . S
C4412 H4399 0.960 . S
C4412 C4411 1.524 . S
C4413 C4410 1.403 . S
C4413 C4414 1.392 . S
C4413 C4417 1.495 . S
C4414 C4413 1.392 . S
C4414 C4415 1.385 . S
C4414 C4416 1.478 . S
C4415 H4409 0.930 . S
C4415 C4411 1.400 . S
C4415 C4414 1.385 . S
C4416 C4414 1.478 . S
C4416 C4418 1.381 . S
C4416 C4422 1.383 . S
C4417 C4413 1.495 . S
C4417 H4423 0.959 . S
C4417 H4424 0.961 . S
C4417 H4425 0.960 . S
C4418 C4416 1.381 . S
C4418 C4419 1.394 . S
C4418 H4426 0.930 . S
C4419 C4418 1.394 . S
C4419 C4420 1.383 . S
C4419 H4427 0.929 . S
C4420 C4419 1.383 . S
C4420 C4421 1.377 . S
C4421 H4405 0.930 . S
C4421 C4420 1.377 . S
C4421 C4422 1.379 . S
C4422 H4406 0.931 . S
C4422 C4416 1.383 . S
C4422 C4421 1.379 . S
H4423 C4417 0.959 . S
H4424 C4417 0.961 . S
H4425 C4417 0.960 . S
H4426 C4418 0.930 . S
H4427 C4419 0.929 . S
H4428 C4436 0.929 . S
H4429 C4438 0.930 . S
H4430 C4440 0.930 . S
H4431 C4443 0.929 . S
H4432 C4446 0.930 . S
H4433 C4448 0.960 . S
H4434 C4448 0.960 . S
H4435 C4448 0.960 . S
C4436 H4428 0.929 . S
C4436 C4437 1.377 . S
C4436 C4438 1.384 . S
C4437 C4436 1.377 . S
C4437 C4443 1.390 . S
C4438 H4429 0.930 . S
C4438 C4436 1.384 . S
C4438 C4439 1.372 . S
C4439 C4438 1.372 . S
C4439 C4440 1.400 . S
C4439 C4444 1.490 . S
C4440 H4430 0.930 . S
C4440 C4439 1.400 . S
C4440 C4443 1.386 . S
H4441 C4457 0.930 . S
H4442 C4458 0.931 . S
C4443 H4431 0.929 . S
C4443 C4437 1.390 . S
C4443 C4440 1.386 . S
C4444 C4439 1.490 . S
C4444 C4446 1.395 . S
C4444 C4447 1.403 . S
H4445 C4451 0.930 . S
C4446 H4432 0.930 . S
C4446 C4444 1.395 . S
C4446 C4449 1.403 . S
C4447 C4444 1.403 . S
C4447 C4448 1.524 . S
C4447 C4451 1.400 . S
C4448 H4433 0.960 . S
C4448 H4434 0.960 . S
C4448 H4435 0.960 . S
C4448 C4447 1.524 . S
C4449 C4446 1.403 . S
C4449 C4450 1.392 . S
C4449 C4453 1.495 . S
C4450 C4449 1.392 . S
C4450 C4451 1.385 . S
C4450 C4452 1.478 . S
C4451 H4445 0.930 . S
C4451 C4447 1.400 . S
C4451 C4450 1.385 . S
C4452 C4450 1.478 . S
C4452 C4454 1.381 . S
C4452 C4458 1.383 . S
C4453 C4449 1.495 . S
C4453 H4459 0.959 . S
C4453 H4460 0.961 . S
C4453 H4461 0.960 . S
C4454 C4452 1.381 . S
C4454 C4455 1.394 . S
C4454 H4462 0.930 . S
C4455 C4454 1.394 . S
C4455 C4456 1.383 . S
C4455 H4463 0.929 . S
C4456 C4455 1.383 . S
C4456 C4457 1.377 . S
C4457 H4441 0.930 . S
C4457 C4456 1.377 . S
C4457 C4458 1.379 . S
C4458 H4442 0.931 . S
C4458 C4452 1.383 . S
C4458 C4457 1.379 . S
H4459 C4453 0.959 . S
H4460 C4453 0.961 . S
H4461 C4453 0.960 . S
H4462 C4454 0.930 . S
H4463 C4455 0.929 . S
H4464 C4472 0.929 . S
H4465 C4474 0.930 . S
H4466 C4476 0.930 . S
H4467 C4479 0.929 . S
H4468 C4482 0.930 . S
H4469 C4484 0.960 . S
H4470 C4484 0.960 1_455 S
H4471 C4484 0.960 . S
C4472 H4464 0.929 . S
C4472 C4473 1.377 1_455 S
C4472 C4474 1.384 . S
C4473 C4472 1.377 1_655 S
C4473 C4479 1.390 . S
C4474 H4465 0.930 . S
C4474 C4472 1.384 . S
C4474 C4475 1.372 1_455 S
C4475 C4474 1.372 1_655 S
C4475 C4476 1.400 . S
C4475 C4480 1.490 1_655 S
C4476 H4466 0.930 . S
C4476 C4475 1.400 . S
C4476 C4479 1.386 . S
H4477 C4493 0.930 . S
H4478 C4494 0.931 . S
C4479 H4467 0.929 . S
C4479 C4473 1.390 . S
C4479 C4476 1.386 . S
C4480 C4475 1.490 1_455 S
C4480 C4482 1.395 . S
C4480 C4483 1.392 . S
H4481 C4487 0.930 . S
C4482 H4468 0.930 . S
C4482 C4480 1.395 . S
C4482 C4485 1.403 . S
C4483 C4480 1.392 . S
C4483 C4484 1.533 1_455 S
C4483 C4487 1.401 . S
C4484 H4469 0.960 . S
C4484 H4470 0.960 1_655 S
C4484 H4471 0.960 . S
C4484 C4483 1.533 1_655 S
C4485 C4482 1.403 . S
C4485 C4486 1.392 . S
C4485 C4489 1.495 . S
C4486 C4485 1.392 . S
C4486 C4487 1.385 . S
C4486 C4488 1.478 . S
C4487 H4481 0.930 . S
C4487 C4483 1.401 . S
C4487 C4486 1.385 . S
C4488 C4486 1.478 . S
C4488 C4490 1.381 . S
C4488 C4494 1.383 1_455 S
C4489 C4485 1.495 . S
C4489 H4495 0.959 . S
C4489 H4496 0.961 1_455 S
C4489 H4497 0.960 . S
C4490 C4488 1.381 . S
C4490 C4491 1.394 . S
C4490 H4498 0.930 . S
C4491 C4490 1.394 . S
C4491 C4492 1.383 . S
C4491 H4499 0.929 . S
C4492 C4491 1.383 . S
C4492 C4493 1.377 1_455 S
C4493 H4477 0.930 . S
C4493 C4492 1.377 1_655 S
C4493 C4494 1.379 . S
C4494 H4478 0.931 . S
C4494 C4488 1.383 1_655 S
C4494 C4493 1.379 . S
H4495 C4489 0.959 . S
H4496 C4489 0.961 1_655 S
H4497 C4489 0.960 . S
H4498 C4490 0.930 . S
H4499 C4491 0.929 . S
H4500 C4508 0.929 . S
H4501 C4510 0.930 . S
H4502 C4512 0.930 . S
H4503 C4515 0.929 . S
H4504 C4518 0.930 . S
H4505 C4520 0.960 . S
H4506 C4520 0.960 . S
H4507 C4520 0.960 . S
C4508 H4500 0.929 . S
C4508 C4509 1.377 . S
C4508 C4510 1.384 . S
C4509 C4508 1.377 . S
C4509 C4515 1.390 . S
C4510 H4501 0.930 . S
C4510 C4508 1.384 . S
C4510 C4511 1.372 . S
C4511 C4510 1.372 . S
C4511 C4512 1.400 . S
C4511 C4516 1.490 . S
C4512 H4502 0.930 . S
C4512 C4511 1.400 . S
C4512 C4515 1.386 . S
H4513 C4529 0.930 . S
H4514 C4530 0.931 . S
C4515 H4503 0.929 . S
C4515 C4509 1.390 . S
C4515 C4512 1.386 . S
C4516 C4511 1.490 . S
C4516 C4518 1.395 . S
C4516 C4519 1.403 . S
H4517 C4523 0.930 . S
C4518 H4504 0.930 . S
C4518 C4516 1.395 . S
C4518 C4521 1.403 . S
C4519 C4516 1.403 . S
C4519 C4520 1.524 . S
C4519 C4523 1.400 . S
C4520 H4505 0.960 . S
C4520 H4506 0.960 . S
C4520 H4507 0.960 . S
C4520 C4519 1.524 . S
C4521 C4518 1.403 . S
C4521 C4522 1.392 . S
C4521 C4525 1.495 . S
C4522 C4521 1.392 . S
C4522 C4523 1.385 . S
C4522 C4524 1.478 . S
C4523 H4517 0.930 . S
C4523 C4519 1.400 . S
C4523 C4522 1.385 . S
C4524 C4522 1.478 . S
C4524 C4526 1.381 . S
C4524 C4530 1.383 . S
C4525 C4521 1.495 . S
C4525 H4531 0.959 . S
C4525 H4532 0.961 . S
C4525 H4533 0.960 . S
C4526 C4524 1.381 . S
C4526 C4527 1.394 . S
C4526 H4534 0.930 . S
C4527 C4526 1.394 . S
C4527 C4528 1.383 . S
C4527 H4535 0.929 . S
C4528 C4527 1.383 . S
C4528 C4529 1.377 . S
C4529 H4513 0.930 . S
C4529 C4528 1.377 . S
C4529 C4530 1.379 . S
C4530 H4514 0.931 . S
C4530 C4524 1.383 . S
C4530 C4529 1.379 . S
H4531 C4525 0.959 . S
H4532 C4525 0.961 . S
H4533 C4525 0.960 . S
H4534 C4526 0.930 . S
H4535 C4527 0.929 . S
H4536 C4544 0.929 . S
H4537 C4546 0.930 . S
H4538 C4548 0.930 . S
H4539 C4551 0.929 . S
H4540 C4554 0.930 . S
H4541 C4556 0.960 . S
H4542 C4556 0.960 . S
H4543 C4556 0.960 . S
C4544 H4536 0.929 . S
C4544 C4545 1.377 . S
C4544 C4546 1.384 . S
C4545 C4544 1.377 . S
C4545 C4551 1.390 1_545 S
C4546 H4537 0.930 . S
C4546 C4544 1.384 . S
C4546 C4547 1.372 . S
C4547 C4546 1.372 . S
C4547 C4548 1.400 1_545 S
C4547 C4552 1.490 . S
C4548 H4538 0.930 . S
C4548 C4547 1.400 1_565 S
C4548 C4551 1.386 . S
H4549 C4565 0.930 . S
H4550 C4566 0.931 . S
C4551 H4539 0.929 . S
C4551 C4545 1.390 1_565 S
C4551 C4548 1.386 . S
C4552 C4547 1.490 . S
C4552 C4554 1.395 . S
C4552 C4555 1.403 1_545 S
H4553 C4559 0.930 . S
C4554 H4540 0.930 . S
C4554 C4552 1.395 . S
C4554 C4557 1.403 . S
C4555 C4552 1.403 1_565 S
C4555 C4556 1.524 . S
C4555 C4559 1.400 . S
C4556 H4541 0.960 . S
C4556 H4542 0.960 . S
C4556 H4543 0.960 . S
C4556 C4555 1.524 . S
C4557 C4554 1.403 . S
C4557 C4558 1.392 1_545 S
C4557 C4561 1.495 . S
C4558 C4557 1.392 1_565 S
C4558 C4559 1.385 . S
C4558 C4560 1.478 . S
C4559 H4553 0.930 . S
C4559 C4555 1.400 . S
C4559 C4558 1.385 . S
C4560 C4558 1.478 . S
C4560 C4562 1.381 1_565 S
C4560 C4566 1.383 . S
C4561 C4557 1.495 . S
C4561 H4567 0.959 . S
C4561 H4568 0.961 . S
C4561 H4569 0.960 . S
C4562 C4560 1.381 1_545 S
C4562 C4563 1.399 . S
C4562 H4570 0.930 . S
C4563 C4562 1.399 . S
C4563 C4564 1.379 1_545 S
C4563 H4571 0.929 . S
C4564 C4563 1.379 1_565 S
C4564 C4565 1.377 . S
C4565 H4549 0.930 . S
C4565 C4564 1.377 . S
C4565 C4566 1.379 . S
C4566 H4550 0.931 . S
C4566 C4560 1.383 . S
C4566 C4565 1.379 . S
H4567 C4561 0.959 . S
H4568 C4561 0.961 . S
H4569 C4561 0.960 . S
H4570 C4562 0.930 . S
H4571 C4563 0.929 . S
H4572 C4580 0.929 1_565 S
H4573 C4582 0.936 . S
H4574 C4584 0.930 . S
H4575 C4587 0.929 . S
H4576 C4590 0.930 . S
H4577 C4592 0.960 . S
H4578 C4592 0.960 . S
H4579 C4592 0.960 . S
C4580 H4572 0.929 1_545 S
C4580 C4581 1.377 . S
C4580 C4582 1.379 1_545 S
C4581 C4580 1.377 . S
C4581 C4587 1.390 . S
C4582 H4573 0.936 . S
C4582 C4580 1.379 1_565 S
C4582 C4583 1.373 1_565 S
C4583 C4582 1.373 1_545 S
C4583 C4584 1.400 . S
C4583 C4588 1.490 . S
C4584 H4574 0.930 . S
C4584 C4583 1.400 . S
C4584 C4587 1.386 . S
H4585 C4601 0.930 1_545 S
H4586 C4602 0.931 1_545 S
C4587 H4575 0.929 . S
C4587 C4581 1.390 . S
C4587 C4584 1.386 . S
C4588 C4583 1.490 . S
C4588 C4590 1.395 1_545 S
C4588 C4591 1.403 . S
H4589 C4595 0.930 . S
C4590 H4576 0.930 . S
C4590 C4588 1.395 1_565 S
C4590 C4593 1.403 . S
C4591 C4588 1.403 . S
C4591 C4592 1.524 . S
C4591 C4595 1.400 . S
C4592 H4577 0.960 . S
C4592 H4578 0.960 . S
C4592 H4579 0.960 . S
C4592 C4591 1.524 . S
C4593 C4590 1.403 . S
C4593 C4594 1.392 . S
C4593 C4597 1.495 . S
C4594 C4593 1.392 . S
C4594 C4595 1.385 1_565 S
C4594 C4596 1.478 . S
C4595 H4589 0.930 . S
C4595 C4591 1.400 . S
C4595 C4594 1.385 1_545 S
C4596 C4594 1.478 . S
C4596 C4598 1.381 . S
C4596 C4602 1.383 . S
C4597 C4593 1.495 . S
C4597 H4603 0.959 . S
C4597 H4604 0.961 . S
C4597 H4605 0.960 . S
C4598 C4596 1.381 . S
C4598 C4599 1.394 . S
C4598 H4606 0.930 . S
C4599 C4598 1.394 . S
C4599 C4600 1.383 . S
C4599 H4607 0.929 . S
C4600 C4599 1.383 . S
C4600 C4601 1.377 . S
C4601 H4585 0.930 1_565 S
C4601 C4600 1.377 . S
C4601 C4602 1.379 . S
C4602 H4586 0.931 1_565 S
C4602 C4596 1.383 . S
C4602 C4601 1.379 . S
H4603 C4597 0.959 . S
H4604 C4597 0.961 . S
H4605 C4597 0.960 . S
H4606 C4598 0.930 . S
H4607 C4599 0.929 . S
H4608 C4616 0.929 . S
H4609 C4618 0.930 . S
H4610 C4620 0.930 . S
H4611 C4623 0.929 . S
H4612 C4626 0.930 . S
H4613 C4628 0.960 . S
H4614 C4628 0.960 . S
H4615 C4628 0.960 . S
C4616 H4608 0.929 . S
C4616 C4617 1.377 1_655 S
C4616 C4618 1.384 . S
C4617 C4616 1.377 1_455 S
C4617 C4623 1.390 . S
C4618 H4609 0.930 . S
C4618 C4616 1.384 . S
C4618 C4619 1.372 1_655 S
C4619 C4618 1.372 1_455 S
C4619 C4620 1.400 . S
C4619 C4624 1.486 1_455 S
C4620 H4610 0.930 . S
C4620 C4619 1.400 . S
C4620 C4623 1.386 . S
H4621 C4637 0.928 1_455 S
H4622 C4638 0.931 . S
C4623 H4611 0.929 . S
C4623 C4617 1.390 . S
C4623 C4620 1.386 . S
C4624 C4619 1.486 1_655 S
C4624 C4626 1.417 . S
C4624 C4627 1.384 1_655 S
H4625 C4631 0.930 . S
C4626 H4612 0.930 . S
C4626 C4624 1.417 . S
C4626 C4629 1.403 . S
C4627 C4624 1.384 1_455 S
C4627 C4628 1.524 . S
C4627 C4631 1.400 . S
C4628 H4613 0.960 . S
C4628 H4614 0.960 . S
C4628 H4615 0.960 . S
C4628 C4627 1.524 . S
C4629 C4626 1.403 . S
C4629 C4630 1.392 . S
C4629 C4633 1.495 . S
C4630 C4629 1.392 . S
C4630 C4631 1.385 1_655 S
C4630 C4632 1.478 . S
C4631 H4625 0.930 . S
C4631 C4627 1.400 . S
C4631 C4630 1.385 1_455 S
C4632 C4630 1.478 . S
C4632 C4634 1.381 . S
C4632 C4638 1.383 1_655 S
C4633 C4629 1.495 . S
C4633 H4639 0.959 . S
C4633 H4640 0.961 . S
C4633 H4641 0.960 . S
C4634 C4632 1.381 . S
C4634 C4635 1.394 . S
C4634 H4642 0.930 . S
C4635 C4634 1.394 . S
C4635 C4636 1.383 . S
C4635 H4643 0.929 . S
C4636 C4635 1.383 . S
C4636 C4637 1.378 . S
C4637 H4621 0.928 1_655 S
C4637 C4636 1.378 . S
C4637 C4638 1.379 1_655 S
C4638 H4622 0.931 . S
C4638 C4632 1.383 1_455 S
C4638 C4637 1.379 1_455 S
H4639 C4633 0.959 . S
H4640 C4633 0.961 . S
H4641 C4633 0.960 . S
H4642 C4634 0.930 . S
H4643 C4635 0.929 . S
H4644 C4652 0.929 . S
H4645 C4654 0.930 . S
H4646 C4656 0.930 . S
H4647 C4659 0.929 . S
H4648 C4662 0.930 . S
H4649 C4664 0.960 . S
H4650 C4664 0.960 . S
H4651 C4664 0.960 . S
C4652 H4644 0.929 . S
C4652 C4653 1.377 . S
C4652 C4654 1.384 . S
C4653 C4652 1.377 . S
C4653 C4659 1.390 . S
C4654 H4645 0.930 . S
C4654 C4652 1.384 . S
C4654 C4655 1.372 . S
C4655 C4654 1.372 . S
C4655 C4656 1.400 . S
C4655 C4660 1.490 . S
C4656 H4646 0.930 . S
C4656 C4655 1.400 . S
C4656 C4659 1.386 . S
H4657 C4673 0.930 . S
H4658 C4674 0.931 . S
C4659 H4647 0.929 . S
C4659 C4653 1.390 . S
C4659 C4656 1.386 . S
C4660 C4655 1.490 . S
C4660 C4662 1.395 . S
C4660 C4663 1.403 . S
H4661 C4667 0.930 . S
C4662 H4648 0.930 . S
C4662 C4660 1.395 . S
C4662 C4665 1.403 . S
C4663 C4660 1.403 . S
C4663 C4664 1.524 . S
C4663 C4667 1.400 . S
C4664 H4649 0.960 . S
C4664 H4650 0.960 . S
C4664 H4651 0.960 . S
C4664 C4663 1.524 . S
C4665 C4662 1.403 . S
C4665 C4666 1.392 . S
C4665 C4669 1.495 . S
C4666 C4665 1.392 . S
C4666 C4667 1.385 . S
C4666 C4668 1.478 . S
C4667 H4661 0.930 . S
C4667 C4663 1.400 . S
C4667 C4666 1.385 . S
C4668 C4666 1.478 . S
C4668 C4670 1.381 . S
C4668 C4674 1.383 . S
C4669 C4665 1.495 . S
C4669 H4675 0.959 . S
C4669 H4676 0.961 . S
C4669 H4677 0.960 . S
C4670 C4668 1.381 . S
C4670 C4671 1.394 . S
C4670 H4678 0.930 . S
C4671 C4670 1.394 . S
C4671 C4672 1.383 . S
C4671 H4679 0.929 . S
C4672 C4671 1.383 . S
C4672 C4673 1.377 . S
C4673 H4657 0.930 . S
C4673 C4672 1.377 . S
C4673 C4674 1.379 . S
C4674 H4658 0.931 . S
C4674 C4668 1.383 . S
C4674 C4673 1.379 . S
H4675 C4669 0.959 . S
H4676 C4669 0.961 . S
H4677 C4669 0.960 . S
H4678 C4670 0.930 . S
H4679 C4671 0.929 . S
H4680 C4688 0.929 . S
H4681 C4690 0.930 1_455 S
H4682 C4692 0.930 . S
H4683 C4695 0.929 . S
H4684 C4698 0.930 . S
H4685 C4700 0.960 . S
H4686 C4700 0.960 . S
H4687 C4700 0.960 . S
C4688 H4680 0.929 . S
C4688 C4689 1.377 . S
C4688 C4690 1.384 . S
C4689 C4688 1.377 . S
C4689 C4695 1.390 . S
C4690 H4681 0.930 1_655 S
C4690 C4688 1.384 . S
C4690 C4691 1.372 . S
C4691 C4690 1.372 . S
C4691 C4692 1.400 . S
C4691 C4696 1.490 . S
C4692 H4682 0.930 . S
C4692 C4691 1.400 . S
C4692 C4695 1.386 . S
H4693 C4709 0.930 . S
H4694 C4710 0.931 1_655 S
C4695 H4683 0.929 . S
C4695 C4689 1.390 . S
C4695 C4692 1.386 . S
C4696 C4691 1.490 . S
C4696 C4698 1.395 . S
C4696 C4699 1.403 . S
H4697 C4703 0.930 . S
C4698 H4684 0.930 . S
C4698 C4696 1.395 . S
C4698 C4701 1.403 1_655 S
C4699 C4696 1.403 . S
C4699 C4700 1.524 . S
C4699 C4703 1.400 1_655 S
C4700 H4685 0.960 . S
C4700 H4686 0.960 . S
C4700 H4687 0.960 . S
C4700 C4699 1.524 . S
C4701 C4698 1.403 1_455 S
C4701 C4702 1.392 . S
C4701 C4705 1.495 . S
C4702 C4701 1.392 . S
C4702 C4703 1.385 . S
C4702 C4704 1.478 . S
C4703 H4697 0.930 . S
C4703 C4699 1.400 1_455 S
C4703 C4702 1.385 . S
C4704 C4702 1.478 . S
C4704 C4706 1.381 . S
C4704 C4710 1.383 . S
C4705 C4701 1.495 . S
C4705 H4711 0.959 . S
C4705 H4712 0.961 . S
C4705 H4713 0.960 . S
C4706 C4704 1.381 . S
C4706 C4707 1.394 . S
C4706 H4714 0.930 . S
C4707 C4706 1.394 . S
C4707 C4708 1.383 . S
C4707 H4715 0.929 . S
C4708 C4707 1.383 . S
C4708 C4709 1.377 . S
C4709 H4693 0.930 . S
C4709 C4708 1.377 . S
C4709 C4710 1.379 . S
C4710 H4694 0.931 1_455 S
C4710 C4704 1.383 . S
C4710 C4709 1.379 . S
H4711 C4705 0.959 . S
H4712 C4705 0.961 . S
H4713 C4705 0.960 . S
H4714 C4706 0.930 . S
H4715 C4707 0.929 . S
H4716 C4724 0.929 . S
H4717 C4726 0.930 . S
H4718 C4728 0.930 . S
H4719 C4731 0.929 . S
H4720 C4734 0.930 . S
H4721 C4736 0.960 . S
H4722 C4736 0.960 . S
H4723 C4736 0.960 . S
C4724 H4716 0.929 . S
C4724 C4725 1.377 . S
C4724 C4726 1.384 . S
C4725 C4724 1.377 . S
C4725 C4731 1.390 . S
C4726 H4717 0.930 . S
C4726 C4724 1.384 . S
C4726 C4727 1.372 . S
C4727 C4726 1.372 . S
C4727 C4728 1.400 . S
C4727 C4732 1.490 . S
C4728 H4718 0.930 . S
C4728 C4727 1.400 . S
C4728 C4731 1.386 . S
H4729 C4745 0.930 . S
H4730 C4746 0.931 . S
C4731 H4719 0.929 . S
C4731 C4725 1.390 . S
C4731 C4728 1.386 . S
C4732 C4727 1.490 . S
C4732 C4734 1.395 . S
C4732 C4735 1.403 . S
H4733 C4739 0.930 . S
C4734 H4720 0.930 . S
C4734 C4732 1.395 . S
C4734 C4737 1.403 . S
C4735 C4732 1.403 . S
C4735 C4736 1.524 . S
C4735 C4739 1.400 . S
C4736 H4721 0.960 . S
C4736 H4722 0.960 . S
C4736 H4723 0.960 . S
C4736 C4735 1.524 . S
C4737 C4734 1.403 . S
C4737 C4738 1.392 . S
C4737 C4741 1.495 . S
C4738 C4737 1.392 . S
C4738 C4739 1.385 . S
C4738 C4740 1.478 . S
C4739 H4733 0.930 . S
C4739 C4735 1.400 . S
C4739 C4738 1.385 . S
C4740 C4738 1.478 . S
C4740 C4742 1.381 . S
C4740 C4746 1.383 . S
C4741 C4737 1.495 . S
C4741 H4747 0.959 . S
C4741 H4748 0.961 . S
C4741 H4749 0.960 . S
C4742 C4740 1.381 . S
C4742 C4743 1.394 . S
C4742 H4750 0.930 . S
C4743 C4742 1.394 . S
C4743 C4744 1.383 . S
C4743 H4751 0.929 . S
C4744 C4743 1.383 . S
C4744 C4745 1.377 . S
C4745 H4729 0.930 . S
C4745 C4744 1.377 . S
C4745 C4746 1.379 . S
C4746 H4730 0.931 . S
C4746 C4740 1.383 . S
C4746 C4745 1.379 . S
H4747 C4741 0.959 . S
H4748 C4741 0.961 . S
H4749 C4741 0.960 . S
H4750 C4742 0.930 . S
H4751 C4743 0.929 . S
H4752 C4760 0.929 . S
H4753 C4762 0.930 . S
H4754 C4764 0.930 1_565 S
H4755 C4767 0.929 . S
H4756 C4770 0.930 . S
H4757 C4772 0.960 . S
H4758 C4772 0.960 . S
H4759 C4772 0.960 . S
C4760 H4752 0.929 . S
C4760 C4761 1.377 . S
C4760 C4762 1.384 . S
C4761 C4760 1.377 . S
C4761 C4767 1.390 . S
C4762 H4753 0.930 . S
C4762 C4760 1.384 . S
C4762 C4763 1.372 . S
C4763 C4762 1.372 . S
C4763 C4764 1.400 . S
C4763 C4768 1.490 . S
C4764 H4754 0.930 1_545 S
C4764 C4763 1.400 . S
C4764 C4767 1.386 . S
H4765 C4781 0.930 . S
H4766 C4782 0.931 . S
C4767 H4755 0.929 . S
C4767 C4761 1.390 . S
C4767 C4764 1.386 . S
C4768 C4763 1.490 . S
C4768 C4770 1.395 . S
C4768 C4771 1.403 1_545 S
H4769 C4775 0.930 . S
C4770 H4756 0.930 . S
C4770 C4768 1.395 . S
C4770 C4773 1.403 . S
C4771 C4768 1.403 1_565 S
C4771 C4772 1.524 . S
C4771 C4775 1.400 . S
C4772 H4757 0.960 . S
C4772 H4758 0.960 . S
C4772 H4759 0.960 . S
C4772 C4771 1.524 . S
C4773 C4770 1.403 . S
C4773 C4774 1.392 1_545 S
C4773 C4777 1.495 . S
C4774 C4773 1.392 1_565 S
C4774 C4775 1.385 . S
C4774 C4776 1.478 . S
C4775 H4769 0.930 . S
C4775 C4771 1.400 . S
C4775 C4774 1.385 . S
C4776 C4774 1.478 . S
C4776 C4778 1.381 . S
C4776 C4782 1.383 . S
C4777 C4773 1.495 . S
C4777 H4783 0.959 . S
C4777 H4784 0.961 . S
C4777 H4785 0.960 . S
C4778 C4776 1.381 . S
C4778 C4779 1.394 . S
C4778 H4786 0.930 1_565 S
C4779 C4778 1.394 . S
C4779 C4780 1.383 . S
C4779 H4787 0.929 . S
C4780 C4779 1.383 . S
C4780 C4781 1.377 . S
C4781 H4765 0.930 . S
C4781 C4780 1.377 . S
C4781 C4782 1.379 . S
C4782 H4766 0.931 . S
C4782 C4776 1.383 . S
C4782 C4781 1.379 . S
H4783 C4777 0.959 . S
H4784 C4777 0.961 . S
H4785 C4777 0.960 . S
H4786 C4778 0.930 1_545 S
H4787 C4779 0.929 . S
H4788 C4796 0.929 . S
H4789 C4798 0.930 . S
H4790 C4800 0.930 1_455 S
H4791 C4803 0.929 . S
H4792 C4806 0.930 . S
H4793 C4808 0.960 . S
H4794 C4808 0.960 1_655 S
H4795 C4808 0.960 . S
C4796 H4788 0.929 . S
C4796 C4797 1.377 . S
C4796 C4798 1.384 . S
C4797 C4796 1.377 . S
C4797 C4803 1.390 . S
C4798 H4789 0.930 . S
C4798 C4796 1.384 . S
C4798 C4799 1.372 . S
C4799 C4798 1.372 . S
C4799 C4800 1.400 . S
C4799 C4804 1.490 . S
C4800 H4790 0.930 1_655 S
C4800 C4799 1.400 . S
C4800 C4803 1.386 . S
H4801 C4817 0.930 . S
H4802 C4818 0.931 . S
C4803 H4791 0.929 . S
C4803 C4797 1.390 . S
C4803 C4800 1.386 . S
C4804 C4799 1.490 . S
C4804 C4806 1.395 . S
C4804 C4807 1.403 1_655 S
H4805 C4811 0.930 . S
C4806 H4792 0.930 . S
C4806 C4804 1.395 . S
C4806 C4809 1.403 . S
C4807 C4804 1.403 1_455 S
C4807 C4808 1.524 . S
C4807 C4811 1.400 . S
C4808 H4793 0.960 . S
C4808 H4794 0.960 1_455 S
C4808 H4795 0.960 . S
C4808 C4807 1.524 . S
C4809 C4806 1.403 . S
C4809 C4810 1.392 1_655 S
C4809 C4813 1.495 . S
C4810 C4809 1.392 1_455 S
C4810 C4811 1.385 . S
C4810 C4812 1.478 . S
C4811 H4805 0.930 . S
C4811 C4807 1.400 . S
C4811 C4810 1.385 . S
C4812 C4810 1.478 . S
C4812 C4814 1.381 . S
C4812 C4818 1.383 . S
C4813 C4809 1.495 . S
C4813 H4819 0.959 . S
C4813 H4820 0.967 . S
C4813 H4821 0.960 . S
C4814 C4812 1.381 . S
C4814 C4815 1.394 . S
C4814 H4822 0.930 1_455 S
C4815 C4814 1.394 . S
C4815 C4816 1.383 . S
C4815 H4823 0.929 . S
C4816 C4815 1.383 . S
C4816 C4817 1.377 . S
C4817 H4801 0.930 . S
C4817 C4816 1.377 . S
C4817 C4818 1.379 . S
C4818 H4802 0.931 . S
C4818 C4812 1.383 . S
C4818 C4817 1.379 . S
H4819 C4813 0.959 . S
H4820 C4813 0.967 . S
H4821 C4813 0.960 . S
H4822 C4814 0.930 1_655 S
H4823 C4815 0.929 . S
H4824 C4832 0.929 . S
H4825 C4834 0.930 . S
H4826 C4836 0.930 . S
H4827 C4839 0.929 . S
H4828 C4842 0.930 . S
H4829 C4844 0.960 . S
H4830 C4844 0.960 . S
H4831 C4844 0.960 . S
C4832 H4824 0.929 . S
C4832 C4833 1.377 . S
C4832 C4834 1.384 . S
C4833 C4832 1.377 . S
C4833 C4839 1.390 . S
C4834 H4825 0.930 . S
C4834 C4832 1.384 . S
C4834 C4835 1.372 . S
C4835 C4834 1.372 . S
C4835 C4836 1.400 . S
C4835 C4840 1.490 . S
C4836 H4826 0.930 . S
C4836 C4835 1.400 . S
C4836 C4839 1.386 . S
H4837 C4853 0.930 . S
H4838 C4854 0.931 . S
C4839 H4827 0.929 . S
C4839 C4833 1.390 . S
C4839 C4836 1.386 . S
C4840 C4835 1.490 . S
C4840 C4842 1.395 . S
C4840 C4843 1.403 . S
H4841 C4847 0.930 . S
C4842 H4828 0.930 . S
C4842 C4840 1.395 . S
C4842 C4845 1.403 . S
C4843 C4840 1.403 . S
C4843 C4844 1.524 . S
C4843 C4847 1.400 . S
C4844 H4829 0.960 . S
C4844 H4830 0.960 . S
C4844 H4831 0.960 . S
C4844 C4843 1.524 . S
C4845 C4842 1.403 . S
C4845 C4846 1.392 . S
C4845 C4849 1.495 . S
C4846 C4845 1.392 . S
C4846 C4847 1.385 . S
C4846 C4848 1.478 . S
C4847 H4841 0.930 . S
C4847 C4843 1.400 . S
C4847 C4846 1.385 . S
C4848 C4846 1.478 . S
C4848 C4850 1.381 . S
C4848 C4854 1.383 . S
C4849 C4845 1.495 . S
C4849 H4855 0.959 . S
C4849 H4856 0.961 . S
C4849 H4857 0.960 . S
C4850 C4848 1.381 . S
C4850 C4851 1.394 . S
C4850 H4858 0.930 . S
C4851 C4850 1.394 . S
C4851 C4852 1.383 . S
C4851 H4859 0.929 . S
C4852 C4851 1.383 . S
C4852 C4853 1.377 . S
C4853 H4837 0.930 . S
C4853 C4852 1.377 . S
C4853 C4854 1.379 . S
C4854 H4838 0.931 . S
C4854 C4848 1.383 . S
C4854 C4853 1.379 . S
H4855 C4849 0.959 . S
H4856 C4849 0.961 . S
H4857 C4849 0.960 . S
H4858 C4850 0.930 . S
H4859 C4851 0.929 . S
H4860 C4868 0.929 . S
H4861 C4870 0.930 . S
H4862 C4872 0.957 . S
H4863 C4875 0.929 . S
H4864 C4878 0.930 . S
H4865 C4880 0.960 . S
H4866 C4880 0.960 . S
H4867 C4880 0.960 . S
C4868 H4860 0.929 . S
C4868 C4869 1.377 . S
C4868 C4870 1.384 . S
C4869 C4868 1.377 . S
C4869 C4875 1.390 . S
C4870 H4861 0.930 . S
C4870 C4868 1.384 . S
C4870 C4871 1.372 . S
C4871 C4870 1.372 . S
C4871 C4872 1.400 . S
C4871 C4876 1.490 . S
C4872 H4862 0.957 . S
C4872 C4871 1.400 . S
C4872 C4875 1.386 . S
H4873 C4889 0.930 . S
H4874 C4890 0.931 . S
C4875 H4863 0.929 . S
C4875 C4869 1.390 . S
C4875 C4872 1.386 . S
C4876 C4871 1.490 . S
C4876 C4878 1.395 . S
C4876 C4879 1.403 1_545 S
H4877 C4883 0.930 . S
C4878 H4864 0.930 . S
C4878 C4876 1.395 . S
C4878 C4881 1.403 . S
C4879 C4876 1.403 1_565 S
C4879 C4880 1.524 . S
C4879 C4883 1.400 . S
C4880 H4865 0.960 . S
C4880 H4866 0.960 . S
C4880 H4867 0.960 . S
C4880 C4879 1.524 . S
C4881 C4878 1.403 . S
C4881 C4882 1.392 1_545 S
C4881 C4885 1.495 . S
C4882 C4881 1.392 1_565 S
C4882 C4883 1.385 . S
C4882 C4884 1.478 . S
C4883 H4877 0.930 . S
C4883 C4879 1.400 . S
C4883 C4882 1.385 . S
C4884 C4882 1.478 . S
C4884 C4886 1.381 . S
C4884 C4890 1.383 . S
C4885 C4881 1.495 . S
C4885 H4891 0.959 . S
C4885 H4892 0.961 . S
C4885 H4893 0.960 . S
C4886 C4884 1.381 . S
C4886 C4887 1.394 . S
C4886 H4894 0.918 1_565 S
C4887 C4886 1.394 . S
C4887 C4888 1.383 . S
C4887 H4895 0.929 . S
C4888 C4887 1.383 . S
C4888 C4889 1.377 . S
C4889 H4873 0.930 . S
C4889 C4888 1.377 . S
C4889 C4890 1.379 . S
C4890 H4874 0.931 . S
C4890 C4884 1.383 . S
C4890 C4889 1.379 . S
H4891 C4885 0.959 . S
H4892 C4885 0.961 . S
H4893 C4885 0.960 . S
H4894 C4886 0.918 1_545 S
H4895 C4887 0.929 . S
H4896 C4904 0.929 . S
H4897 C4906 0.930 . S
H4898 C4908 0.930 . S
H4899 C4911 0.929 . S
H4900 C4914 0.930 . S
H4901 C4916 0.960 . S
H4902 C4916 0.960 . S
H4903 C4916 0.960 . S
C4904 H4896 0.929 . S
C4904 C4905 1.377 . S
C4904 C4906 1.384 . S
C4905 C4904 1.377 . S
C4905 C4911 1.390 . S
C4906 H4897 0.930 . S
C4906 C4904 1.384 . S
C4906 C4907 1.372 . S
C4907 C4906 1.372 . S
C4907 C4908 1.400 . S
C4907 C4912 1.490 . S
C4908 H4898 0.930 . S
C4908 C4907 1.400 . S
C4908 C4911 1.386 . S
H4909 C4925 0.930 . S
H4910 C4926 0.931 . S
C4911 H4899 0.929 . S
C4911 C4905 1.390 . S
C4911 C4908 1.386 . S
C4912 C4907 1.490 . S
C4912 C4914 1.395 . S
C4912 C4915 1.403 . S
H4913 C4919 0.930 . S
C4914 H4900 0.930 . S
C4914 C4912 1.395 . S
C4914 C4917 1.403 . S
C4915 C4912 1.403 . S
C4915 C4916 1.524 . S
C4915 C4919 1.400 . S
C4916 H4901 0.960 . S
C4916 H4902 0.960 . S
C4916 H4903 0.960 . S
C4916 C4915 1.524 . S
C4917 C4914 1.403 . S
C4917 C4918 1.392 . S
C4917 C4921 1.495 . S
C4918 C4917 1.392 . S
C4918 C4919 1.385 . S
C4918 C4920 1.478 . S
C4919 H4913 0.930 . S
C4919 C4915 1.400 . S
C4919 C4918 1.385 . S
C4920 C4918 1.478 . S
C4920 C4922 1.381 . S
C4920 C4926 1.383 . S
C4921 C4917 1.495 . S
C4921 H4927 0.959 . S
C4921 H4928 0.961 . S
C4921 H4929 0.960 . S
C4922 C4920 1.381 . S
C4922 C4923 1.394 . S
C4922 H4930 0.930 . S
C4923 C4922 1.394 . S
C4923 C4924 1.383 . S
C4923 H4931 0.929 . S
C4924 C4923 1.383 . S
C4924 C4925 1.377 . S
C4925 H4909 0.930 . S
C4925 C4924 1.377 . S
C4925 C4926 1.379 . S
C4926 H4910 0.931 . S
C4926 C4920 1.383 . S
C4926 C4925 1.379 . S
H4927 C4921 0.959 . S
H4928 C4921 0.961 . S
H4929 C4921 0.960 . S
H4930 C4922 0.930 . S
H4931 C4923 0.929 . S
H4932 C4940 0.929 . S
H4933 C4942 0.930 . S
H4934 C4944 0.930 . S
H4935 C4947 0.929 . S
H4936 C4950 0.930 . S
H4937 C4952 0.960 . S
H4938 C4952 0.960 . S
H4939 C4952 0.960 . S
C4940 H4932 0.929 . S
C4940 C4941 1.377 . S
C4940 C4942 1.384 . S
C4941 C4940 1.377 . S
C4941 C4947 1.390 . S
C4942 H4933 0.930 . S
C4942 C4940 1.384 . S
C4942 C4943 1.372 . S
C4943 C4942 1.372 . S
C4943 C4944 1.400 . S
C4943 C4948 1.490 . S
C4944 H4934 0.930 . S
C4944 C4943 1.400 . S
C4944 C4947 1.386 . S
H4945 C4961 0.930 . S
H4946 C4962 0.931 . S
C4947 H4935 0.929 . S
C4947 C4941 1.390 . S
C4947 C4944 1.386 . S
C4948 C4943 1.490 . S
C4948 C4950 1.395 . S
C4948 C4951 1.403 . S
H4949 C4955 0.930 . S
C4950 H4936 0.930 . S
C4950 C4948 1.395 . S
C4950 C4953 1.403 . S
C4951 C4948 1.403 . S
C4951 C4952 1.524 . S
C4951 C4955 1.400 . S
C4952 H4937 0.960 . S
C4952 H4938 0.960 . S
C4952 H4939 0.960 . S
C4952 C4951 1.524 . S
C4953 C4950 1.403 . S
C4953 C4954 1.392 . S
C4953 C4957 1.495 . S
C4954 C4953 1.392 . S
C4954 C4955 1.385 . S
C4954 C4956 1.478 . S
C4955 H4949 0.930 . S
C4955 C4951 1.400 . S
C4955 C4954 1.385 . S
C4956 C4954 1.478 . S
C4956 C4958 1.381 . S
C4956 C4962 1.383 . S
C4957 C4953 1.495 . S
C4957 H4963 0.959 . S
C4957 H4964 0.961 . S
C4957 H4965 0.960 . S
C4958 C4956 1.381 . S
C4958 C4959 1.394 . S
C4958 H4966 0.930 . S
C4959 C4958 1.394 . S
C4959 C4960 1.383 . S
C4959 H4967 0.929 . S
C4960 C4959 1.383 . S
C4960 C4961 1.377 . S
C4961 H4945 0.930 . S
C4961 C4960 1.377 . S
C4961 C4962 1.379 . S
C4962 H4946 0.931 . S
C4962 C4956 1.383 . S
C4962 C4961 1.379 . S
H4963 C4957 0.959 . S
H4964 C4957 0.961 . S
H4965 C4957 0.960 . S
H4966 C4958 0.930 . S
H4967 C4959 0.929 . S
H4968 C4976 0.929 . S
H4969 C4978 0.930 . S
H4970 C4980 0.930 . S
H4971 C4983 0.929 . S
H4972 C4986 0.930 . S
H4973 C4988 0.960 . S
H4974 C4988 0.960 . S
H4975 C4988 0.960 . S
C4976 H4968 0.929 . S
C4976 C4977 1.377 . S
C4976 C4978 1.384 . S
C4977 C4976 1.377 . S
C4977 C4983 1.390 . S
C4978 H4969 0.930 . S
C4978 C4976 1.384 . S
C4978 C4979 1.372 . S
C4979 C4978 1.372 . S
C4979 C4980 1.400 . S
C4979 C4984 1.490 . S
C4980 H4970 0.930 . S
C4980 C4979 1.400 . S
C4980 C4983 1.386 . S
H4981 C4997 0.930 . S
H4982 C4998 0.931 . S
C4983 H4971 0.929 . S
C4983 C4977 1.390 . S
C4983 C4980 1.386 . S
C4984 C4979 1.490 . S
C4984 C4986 1.395 . S
C4984 C4987 1.403 . S
H4985 C4991 0.930 . S
C4986 H4972 0.930 . S
C4986 C4984 1.395 . S
C4986 C4989 1.403 . S
C4987 C4984 1.403 . S
C4987 C4988 1.524 . S
C4987 C4991 1.400 . S
C4988 H4973 0.960 . S
C4988 H4974 0.960 . S
C4988 H4975 0.960 . S
C4988 C4987 1.524 . S
C4989 C4986 1.403 . S
C4989 C4990 1.392 . S
C4989 C4993 1.495 . S
C4990 C4989 1.392 . S
C4990 C4991 1.385 . S
C4990 C4992 1.478 . S
C4991 H4985 0.930 . S
C4991 C4987 1.400 . S
C4991 C4990 1.385 . S
C4992 C4990 1.478 . S
C4992 C4994 1.381 . S
C4992 C4998 1.383 . S
C4993 C4989 1.495 . S
C4993 H4999 0.959 . S
C4993 H5000 0.961 . S
C4993 H5001 0.960 . S
C4994 C4992 1.381 . S
C4994 C4995 1.394 . S
C4994 H5002 0.930 . S
C4995 C4994 1.394 . S
C4995 C4996 1.383 . S
C4995 H5003 0.929 . S
C4996 C4995 1.383 . S
C4996 C4997 1.377 . S
C4997 H4981 0.930 . S
C4997 C4996 1.377 . S
C4997 C4998 1.379 . S
C4998 H4982 0.931 . S
C4998 C4992 1.383 . S
C4998 C4997 1.379 . S
H4999 C4993 0.959 . S
H5000 C4993 0.961 . S
H5001 C4993 0.960 . S
H5002 C4994 0.930 . S
H5003 C4995 0.929 . S
H5004 C5012 0.929 . S
H5005 C5014 0.930 . S
H5006 C5016 0.930 . S
H5007 C5019 0.929 . S
H5008 C5022 0.930 . S
H5009 C5024 0.960 . S
H5010 C5024 0.960 . S
H5011 C5024 0.960 . S
C5012 H5004 0.929 . S
C5012 C5013 1.377 . S
C5012 C5014 1.384 . S
C5013 C5012 1.377 . S
C5013 C5019 1.390 . S
C5014 H5005 0.930 . S
C5014 C5012 1.384 . S
C5014 C5015 1.372 . S
C5015 C5014 1.372 . S
C5015 C5016 1.400 . S
C5015 C5020 1.490 . S
C5016 H5006 0.930 . S
C5016 C5015 1.400 . S
C5016 C5019 1.386 . S
H5017 C5033 0.930 . S
H5018 C5034 0.931 . S
C5019 H5007 0.929 . S
C5019 C5013 1.390 . S
C5019 C5016 1.386 . S
C5020 C5015 1.490 . S
C5020 C5022 1.395 . S
C5020 C5023 1.403 . S
H5021 C5027 0.930 . S
C5022 H5008 0.930 . S
C5022 C5020 1.395 . S
C5022 C5025 1.403 . S
C5023 C5020 1.403 . S
C5023 C5024 1.524 . S
C5023 C5027 1.400 . S
C5024 H5009 0.960 . S
C5024 H5010 0.960 . S
C5024 H5011 0.960 . S
C5024 C5023 1.524 . S
C5025 C5022 1.403 . S
C5025 C5026 1.392 . S
C5025 C5029 1.495 . S
C5026 C5025 1.392 . S
C5026 C5027 1.385 . S
C5026 C5028 1.478 . S
C5027 H5021 0.930 . S
C5027 C5023 1.400 . S
C5027 C5026 1.385 . S
C5028 C5026 1.478 . S
C5028 C5030 1.381 . S
C5028 C5034 1.383 . S
C5029 C5025 1.495 . S
C5029 H5035 0.959 . S
C5029 H5036 0.961 . S
C5029 H5037 0.960 . S
C5030 C5028 1.381 . S
C5030 C5031 1.394 . S
C5030 H5038 0.930 . S
C5031 C5030 1.394 . S
C5031 C5032 1.383 . S
C5031 H5039 0.929 . S
C5032 C5031 1.383 . S
C5032 C5033 1.377 . S
C5033 H5017 0.930 . S
C5033 C5032 1.377 . S
C5033 C5034 1.379 . S
C5034 H5018 0.931 . S
C5034 C5028 1.383 . S
C5034 C5033 1.379 . S
H5035 C5029 0.959 . S
H5036 C5029 0.961 . S
H5037 C5029 0.960 . S
H5038 C5030 0.930 . S
H5039 C5031 0.929 . S
H5040 C5048 0.929 . S
H5041 C5050 0.930 . S
H5042 C5052 0.930 . S
H5043 C5055 0.929 . S
H5044 C5058 0.930 . S
H5045 C5060 0.960 . S
H5046 C5060 0.960 . S
H5047 C5060 0.960 . S
C5048 H5040 0.929 . S
C5048 C5049 1.377 . S
C5048 C5050 1.384 . S
C5049 C5048 1.377 . S
C5049 C5055 1.390 . S
C5050 H5041 0.930 . S
C5050 C5048 1.384 . S
C5050 C5051 1.372 . S
C5051 C5050 1.372 . S
C5051 C5052 1.400 . S
C5051 C5056 1.490 . S
C5052 H5042 0.930 . S
C5052 C5051 1.400 . S
C5052 C5055 1.386 . S
H5053 C5069 0.930 . S
H5054 C5070 0.931 . S
C5055 H5043 0.929 . S
C5055 C5049 1.390 . S
C5055 C5052 1.386 . S
C5056 C5051 1.490 . S
C5056 C5058 1.395 . S
C5056 C5059 1.403 . S
H5057 C5063 0.930 . S
C5058 H5044 0.930 . S
C5058 C5056 1.395 . S
C5058 C5061 1.403 . S
C5059 C5056 1.403 . S
C5059 C5060 1.524 . S
C5059 C5063 1.400 . S
C5060 H5045 0.960 . S
C5060 H5046 0.960 . S
C5060 H5047 0.960 . S
C5060 C5059 1.524 . S
C5061 C5058 1.403 . S
C5061 C5062 1.392 . S
C5061 C5065 1.495 . S
C5062 C5061 1.392 . S
C5062 C5063 1.385 . S
C5062 C5064 1.478 . S
C5063 H5057 0.930 . S
C5063 C5059 1.400 . S
C5063 C5062 1.385 . S
C5064 C5062 1.478 . S
C5064 C5066 1.381 . S
C5064 C5070 1.383 . S
C5065 C5061 1.495 . S
C5065 H5071 0.959 . S
C5065 H5072 0.961 . S
C5065 H5073 0.960 . S
C5066 C5064 1.381 . S
C5066 C5067 1.394 . S
C5066 H5074 0.930 . S
C5067 C5066 1.394 . S
C5067 C5068 1.383 . S
C5067 H5075 0.929 . S
C5068 C5067 1.383 . S
C5068 C5069 1.377 . S
C5069 H5053 0.930 . S
C5069 C5068 1.377 . S
C5069 C5070 1.379 . S
C5070 H5054 0.931 . S
C5070 C5064 1.383 . S
C5070 C5069 1.379 . S
H5071 C5065 0.959 . S
H5072 C5065 0.961 . S
H5073 C5065 0.960 . S
H5074 C5066 0.930 . S
H5075 C5067 0.929 . S
H5076 C5084 0.929 . S
H5077 C5086 0.930 . S
H5078 C5088 0.930 . S
H5079 C5091 0.929 . S
H5080 C5094 0.930 . S
H5081 C5096 0.960 . S
H5082 C5096 0.960 . S
H5083 C5096 0.960 . S
C5084 H5076 0.929 . S
C5084 C5085 1.377 . S
C5084 C5086 1.384 . S
C5085 C5084 1.377 . S
C5085 C5091 1.390 . S
C5086 H5077 0.930 . S
C5086 C5084 1.384 . S
C5086 C5087 1.372 . S
C5087 C5086 1.372 . S
C5087 C5088 1.400 . S
C5087 C5092 1.490 . S
C5088 H5078 0.930 . S
C5088 C5087 1.400 . S
C5088 C5091 1.386 . S
H5089 C5105 0.930 . S
H5090 C5106 0.931 . S
C5091 H5079 0.929 . S
C5091 C5085 1.390 . S
C5091 C5088 1.386 . S
C5092 C5087 1.490 . S
C5092 C5094 1.395 . S
C5092 C5095 1.403 . S
H5093 C5099 0.930 . S
C5094 H5080 0.930 . S
C5094 C5092 1.395 . S
C5094 C5097 1.403 . S
C5095 C5092 1.403 . S
C5095 C5096 1.524 . S
C5095 C5099 1.400 . S
C5096 H5081 0.960 . S
C5096 H5082 0.960 . S
C5096 H5083 0.960 . S
C5096 C5095 1.524 . S
C5097 C5094 1.403 . S
C5097 C5098 1.392 . S
C5097 C5101 1.495 . S
C5098 C5097 1.392 . S
C5098 C5099 1.385 . S
C5098 C5100 1.478 . S
C5099 H5093 0.930 . S
C5099 C5095 1.400 . S
C5099 C5098 1.385 . S
C5100 C5098 1.478 . S
C5100 C5102 1.381 . S
C5100 C5106 1.383 . S
C5101 C5097 1.495 . S
C5101 H5107 0.959 . S
C5101 H5108 0.961 . S
C5101 H5109 0.960 . S
C5102 C5100 1.381 . S
C5102 C5103 1.394 . S
C5102 H5110 0.930 . S
C5103 C5102 1.394 . S
C5103 C5104 1.383 . S
C5103 H5111 0.929 . S
C5104 C5103 1.383 . S
C5104 C5105 1.377 . S
C5105 H5089 0.930 . S
C5105 C5104 1.377 . S
C5105 C5106 1.379 . S
C5106 H5090 0.931 . S
C5106 C5100 1.383 . S
C5106 C5105 1.379 . S
H5107 C5101 0.959 . S
H5108 C5101 0.961 . S
H5109 C5101 0.960 . S
H5110 C5102 0.930 . S
H5111 C5103 0.929 . S
H5112 C5120 0.929 . S
H5113 C5122 0.930 . S
H5114 C5124 0.930 . S
H5115 C5127 0.929 . S
H5116 C5130 0.930 . S
H5117 C5132 0.960 . S
H5118 C5132 0.960 . S
H5119 C5132 0.960 . S
C5120 H5112 0.929 . S
C5120 C5121 1.377 . S
C5120 C5122 1.384 . S
C5121 C5120 1.377 . S
C5121 C5127 1.390 . S
C5122 H5113 0.930 . S
C5122 C5120 1.384 . S
C5122 C5123 1.372 . S
C5123 C5122 1.372 . S
C5123 C5124 1.400 . S
C5123 C5128 1.490 . S
C5124 H5114 0.930 . S
C5124 C5123 1.400 . S
C5124 C5127 1.386 . S
H5125 C5141 0.930 . S
H5126 C5142 0.931 . S
C5127 H5115 0.929 . S
C5127 C5121 1.390 . S
C5127 C5124 1.386 . S
C5128 C5123 1.490 . S
C5128 C5130 1.395 . S
C5128 C5131 1.403 . S
H5129 C5135 0.930 . S
C5130 H5116 0.930 . S
C5130 C5128 1.395 . S
C5130 C5133 1.403 . S
C5131 C5128 1.403 . S
C5131 C5132 1.524 . S
C5131 C5135 1.400 . S
C5132 H5117 0.960 . S
C5132 H5118 0.960 . S
C5132 H5119 0.960 . S
C5132 C5131 1.524 . S
C5133 C5130 1.403 . S
C5133 C5134 1.392 . S
C5133 C5137 1.495 . S
C5134 C5133 1.392 . S
C5134 C5135 1.385 . S
C5134 C5136 1.478 . S
C5135 H5129 0.930 . S
C5135 C5131 1.400 . S
C5135 C5134 1.385 . S
C5136 C5134 1.478 . S
C5136 C5138 1.381 . S
C5136 C5142 1.383 . S
C5137 C5133 1.495 . S
C5137 H5143 0.959 . S
C5137 H5144 0.961 . S
C5137 H5145 0.960 . S
C5138 C5136 1.381 . S
C5138 C5139 1.394 . S
C5138 H5146 0.930 . S
C5139 C5138 1.394 . S
C5139 C5140 1.383 . S
C5139 H5147 0.929 . S
C5140 C5139 1.383 . S
C5140 C5141 1.377 . S
C5141 H5125 0.930 . S
C5141 C5140 1.377 . S
C5141 C5142 1.379 . S
C5142 H5126 0.931 . S
C5142 C5136 1.383 . S
C5142 C5141 1.379 . S
H5143 C5137 0.959 . S
H5144 C5137 0.961 . S
H5145 C5137 0.960 . S
H5146 C5138 0.930 . S
H5147 C5139 0.929 . S
H5148 C5156 0.929 . S
H5149 C5158 0.930 . S
H5150 C5160 0.930 . S
H5151 C5163 0.929 . S
H5152 C5166 0.930 . S
H5153 C5168 0.960 . S
H5154 C5168 0.960 . S
H5155 C5168 0.960 . S
C5156 H5148 0.929 . S
C5156 C5157 1.377 . S
C5156 C5158 1.384 . S
C5157 C5156 1.377 . S
C5157 C5163 1.390 . S
C5158 H5149 0.930 . S
C5158 C5156 1.384 . S
C5158 C5159 1.372 . S
C5159 C5158 1.372 . S
C5159 C5160 1.400 . S
C5159 C5164 1.490 . S
C5160 H5150 0.930 . S
C5160 C5159 1.400 . S
C5160 C5163 1.386 . S
H5161 C5177 0.930 . S
H5162 C5178 0.931 . S
C5163 H5151 0.929 . S
C5163 C5157 1.390 . S
C5163 C5160 1.386 . S
C5164 C5159 1.490 . S
C5164 C5166 1.395 . S
C5164 C5167 1.403 . S
H5165 C5171 0.930 . S
C5166 H5152 0.930 . S
C5166 C5164 1.395 . S
C5166 C5169 1.403 . S
C5167 C5164 1.403 . S
C5167 C5168 1.524 . S
C5167 C5171 1.400 . S
C5168 H5153 0.960 . S
C5168 H5154 0.960 . S
C5168 H5155 0.960 . S
C5168 C5167 1.524 . S
C5169 C5166 1.403 . S
C5169 C5170 1.392 . S
C5169 C5173 1.495 . S
C5170 C5169 1.392 . S
C5170 C5171 1.385 . S
C5170 C5172 1.478 . S
C5171 H5165 0.930 . S
C5171 C5167 1.400 . S
C5171 C5170 1.385 . S
C5172 C5170 1.478 . S
C5172 C5174 1.381 . S
C5172 C5178 1.383 . S
C5173 C5169 1.495 . S
C5173 H5179 0.959 . S
C5173 H5180 0.961 . S
C5173 H5181 0.960 . S
C5174 C5172 1.381 . S
C5174 C5175 1.394 . S
C5174 H5182 0.930 . S
C5175 C5174 1.394 . S
C5175 C5176 1.383 . S
C5175 H5183 0.929 . S
C5176 C5175 1.383 . S
C5176 C5177 1.377 . S
C5177 H5161 0.930 . S
C5177 C5176 1.377 . S
C5177 C5178 1.379 . S
C5178 H5162 0.931 . S
C5178 C5172 1.383 . S
C5178 C5177 1.379 . S
H5179 C5173 0.959 . S
H5180 C5173 0.961 . S
H5181 C5173 0.960 . S
H5182 C5174 0.930 . S
H5183 C5175 0.929 . S
H5184 C5192 0.929 . S
H5185 C5194 0.930 . S
H5186 C5196 0.930 . S
H5187 C5199 0.929 . S
H5188 C5202 0.930 . S
H5189 C5204 0.960 . S
H5190 C5204 0.960 . S
H5191 C5204 0.960 . S
C5192 H5184 0.929 . S
C5192 C5193 1.377 . S
C5192 C5194 1.384 . S
C5193 C5192 1.377 . S
C5193 C5199 1.390 . S
C5194 H5185 0.930 . S
C5194 C5192 1.384 . S
C5194 C5195 1.372 . S
C5195 C5194 1.372 . S
C5195 C5196 1.400 . S
C5195 C5200 1.490 . S
C5196 H5186 0.930 . S
C5196 C5195 1.400 . S
C5196 C5199 1.386 . S
H5197 C5213 0.930 . S
H5198 C5214 0.931 . S
C5199 H5187 0.929 . S
C5199 C5193 1.390 . S
C5199 C5196 1.386 . S
C5200 C5195 1.490 . S
C5200 C5202 1.395 . S
C5200 C5203 1.403 . S
H5201 C5207 0.930 . S
C5202 H5188 0.930 . S
C5202 C5200 1.395 . S
C5202 C5205 1.403 . S
C5203 C5200 1.403 . S
C5203 C5204 1.524 . S
C5203 C5207 1.400 . S
C5204 H5189 0.960 . S
C5204 H5190 0.960 . S
C5204 H5191 0.960 . S
C5204 C5203 1.524 . S
C5205 C5202 1.403 . S
C5205 C5206 1.392 . S
C5205 C5209 1.495 . S
C5206 C5205 1.392 . S
C5206 C5207 1.385 . S
C5206 C5208 1.478 . S
C5207 H5201 0.930 . S
C5207 C5203 1.400 . S
C5207 C5206 1.385 . S
C5208 C5206 1.478 . S
C5208 C5210 1.381 . S
C5208 C5214 1.383 . S
C5209 C5205 1.495 . S
C5209 H5215 0.959 . S
C5209 H5216 0.961 . S
C5209 H5217 0.960 . S
C5210 C5208 1.381 . S
C5210 C5211 1.394 . S
C5210 H5218 0.930 . S
C5211 C5210 1.394 . S
C5211 C5212 1.383 . S
C5211 H5219 0.929 . S
C5212 C5211 1.383 . S
C5212 C5213 1.377 . S
C5213 H5197 0.930 . S
C5213 C5212 1.377 . S
C5213 C5214 1.379 . S
C5214 H5198 0.931 . S
C5214 C5208 1.383 . S
C5214 C5213 1.379 . S
H5215 C5209 0.959 . S
H5216 C5209 0.961 . S
H5217 C5209 0.960 . S
H5218 C5210 0.930 . S
H5219 C5211 0.929 . S
H5220 C5228 0.929 . S
H5221 C5230 0.930 . S
H5222 C5232 0.930 . S
H5223 C5235 0.929 . S
H5224 C5238 0.930 . S
H5225 C5240 0.960 . S
H5226 C5240 0.960 . S
H5227 C5240 0.960 . S
C5228 H5220 0.929 . S
C5228 C5229 1.377 . S
C5228 C5230 1.384 . S
C5229 C5228 1.377 . S
C5229 C5235 1.390 . S
C5230 H5221 0.930 . S
C5230 C5228 1.384 . S
C5230 C5231 1.372 . S
C5231 C5230 1.372 . S
C5231 C5232 1.400 . S
C5231 C5236 1.490 . S
C5232 H5222 0.930 . S
C5232 C5231 1.400 . S
C5232 C5235 1.386 . S
H5233 C5249 0.930 . S
H5234 C5250 0.931 . S
C5235 H5223 0.929 . S
C5235 C5229 1.390 . S
C5235 C5232 1.386 . S
C5236 C5231 1.490 . S
C5236 C5238 1.395 . S
C5236 C5239 1.403 . S
H5237 C5243 0.930 . S
C5238 H5224 0.930 . S
C5238 C5236 1.395 . S
C5238 C5241 1.403 . S
C5239 C5236 1.403 . S
C5239 C5240 1.524 . S
C5239 C5243 1.400 . S
C5240 H5225 0.960 . S
C5240 H5226 0.960 . S
C5240 H5227 0.960 . S
C5240 C5239 1.524 . S
C5241 C5238 1.403 . S
C5241 C5242 1.392 . S
C5241 C5245 1.495 . S
C5242 C5241 1.392 . S
C5242 C5243 1.385 . S
C5242 C5244 1.478 . S
C5243 H5237 0.930 . S
C5243 C5239 1.400 . S
C5243 C5242 1.385 . S
C5244 C5242 1.478 . S
C5244 C5246 1.381 . S
C5244 C5250 1.383 . S
C5245 C5241 1.495 . S
C5245 H5251 0.959 . S
C5245 H5252 0.961 . S
C5245 H5253 0.960 . S
C5246 C5244 1.381 . S
C5246 C5247 1.394 . S
C5246 H5254 0.930 . S
C5247 C5246 1.394 . S
C5247 C5248 1.383 . S
C5247 H5255 0.929 . S
C5248 C5247 1.383 . S
C5248 C5249 1.377 . S
C5249 H5233 0.930 . S
C5249 C5248 1.377 . S
C5249 C5250 1.379 . S
C5250 H5234 0.931 . S
C5250 C5244 1.383 . S
C5250 C5249 1.379 . S
H5251 C5245 0.959 . S
H5252 C5245 0.961 . S
H5253 C5245 0.960 . S
H5254 C5246 0.930 . S
H5255 C5247 0.929 . S
H5256 C5264 0.929 . S
H5257 C5266 0.930 . S
H5258 C5268 0.930 . S
H5259 C5271 0.929 . S
H5260 C5274 0.930 . S
H5261 C5276 0.960 . S
H5262 C5276 0.960 . S
H5263 C5276 0.960 . S
C5264 H5256 0.929 . S
C5264 C5265 1.377 . S
C5264 C5266 1.384 . S
C5265 C5264 1.377 . S
C5265 C5271 1.390 . S
C5266 H5257 0.930 . S
C5266 C5264 1.384 . S
C5266 C5267 1.372 . S
C5267 C5266 1.372 . S
C5267 C5268 1.400 . S
C5267 C5272 1.490 . S
C5268 H5258 0.930 . S
C5268 C5267 1.400 . S
C5268 C5271 1.386 . S
H5269 C5285 0.930 . S
H5270 C5286 0.931 . S
C5271 H5259 0.929 . S
C5271 C5265 1.390 . S
C5271 C5268 1.386 . S
C5272 C5267 1.490 . S
C5272 C5274 1.395 . S
C5272 C5275 1.403 . S
H5273 C5279 0.930 . S
C5274 H5260 0.930 . S
C5274 C5272 1.395 . S
C5274 C5277 1.403 . S
C5275 C5272 1.403 . S
C5275 C5276 1.524 . S
C5275 C5279 1.400 . S
C5276 H5261 0.960 . S
C5276 H5262 0.960 . S
C5276 H5263 0.960 . S
C5276 C5275 1.524 . S
C5277 C5274 1.403 . S
C5277 C5278 1.392 . S
C5277 C5281 1.495 . S
C5278 C5277 1.392 . S
C5278 C5279 1.385 . S
C5278 C5280 1.478 . S
C5279 H5273 0.930 . S
C5279 C5275 1.400 . S
C5279 C5278 1.385 . S
C5280 C5278 1.478 . S
C5280 C5282 1.381 . S
C5280 C5286 1.383 . S
C5281 C5277 1.495 . S
C5281 H5287 0.959 . S
C5281 H5288 0.961 . S
C5281 H5289 0.960 . S
C5282 C5280 1.381 . S
C5282 C5283 1.394 . S
C5282 H5290 0.930 . S
C5283 C5282 1.394 . S
C5283 C5284 1.383 . S
C5283 H5291 0.929 . S
C5284 C5283 1.383 . S
C5284 C5285 1.377 . S
C5285 H5269 0.930 . S
C5285 C5284 1.377 . S
C5285 C5286 1.379 . S
C5286 H5270 0.931 . S
C5286 C5280 1.383 . S
C5286 C5285 1.379 . S
H5287 C5281 0.959 . S
H5288 C5281 0.961 . S
H5289 C5281 0.960 . S
H5290 C5282 0.930 . S
H5291 C5283 0.929 . S
H5292 C5300 0.929 . S
H5293 C5302 0.930 . S
H5294 C5304 0.930 . S
H5295 C5307 0.929 . S
H5296 C5310 0.930 . S
H5297 C5312 0.960 . S
H5298 C5312 0.960 . S
H5299 C5312 0.960 . S
C5300 H5292 0.929 . S
C5300 C5301 1.377 . S
C5300 C5302 1.384 . S
C5301 C5300 1.377 . S
C5301 C5307 1.390 . S
C5302 H5293 0.930 . S
C5302 C5300 1.384 . S
C5302 C5303 1.372 . S
C5303 C5302 1.372 . S
C5303 C5304 1.400 . S
C5303 C5308 1.490 . S
C5304 H5294 0.930 . S
C5304 C5303 1.400 . S
C5304 C5307 1.386 . S
H5305 C5321 0.930 . S
H5306 C5322 0.931 . S
C5307 H5295 0.929 . S
C5307 C5301 1.390 . S
C5307 C5304 1.386 . S
C5308 C5303 1.490 . S
C5308 C5310 1.395 . S
C5308 C5311 1.403 . S
H5309 C5315 0.930 . S
C5310 H5296 0.930 . S
C5310 C5308 1.395 . S
C5310 C5313 1.403 . S
C5311 C5308 1.403 . S
C5311 C5312 1.524 . S
C5311 C5315 1.400 . S
C5312 H5297 0.960 . S
C5312 H5298 0.960 . S
C5312 H5299 0.960 . S
C5312 C5311 1.524 . S
C5313 C5310 1.403 . S
C5313 C5314 1.392 . S
C5313 C5317 1.495 . S
C5314 C5313 1.392 . S
C5314 C5315 1.385 . S
C5314 C5316 1.478 . S
C5315 H5309 0.930 . S
C5315 C5311 1.400 . S
C5315 C5314 1.385 . S
C5316 C5314 1.478 . S
C5316 C5318 1.381 . S
C5316 C5322 1.383 . S
C5317 C5313 1.495 . S
C5317 H5323 0.959 . S
C5317 H5324 0.961 . S
C5317 H5325 0.960 . S
C5318 C5316 1.381 . S
C5318 C5319 1.394 . S
C5318 H5326 0.930 . S
C5319 C5318 1.394 . S
C5319 C5320 1.383 . S
C5319 H5327 0.929 . S
C5320 C5319 1.383 . S
C5320 C5321 1.377 . S
C5321 H5305 0.930 . S
C5321 C5320 1.377 . S
C5321 C5322 1.379 . S
C5322 H5306 0.931 . S
C5322 C5316 1.383 . S
C5322 C5321 1.379 . S
H5323 C5317 0.959 . S
H5324 C5317 0.961 . S
H5325 C5317 0.960 . S
H5326 C5318 0.930 . S
H5327 C5319 0.929 . S
C1449 C9 1.668 . S
C1468 C99 1.751 . S
C1485 C19 1.745 . S
C1504 C49 1.671 . S
C1521 C89 1.671 . S
C1540 C59 1.727 . S
C1557 C129 1.750 . S
C1576 C179 1.813 . S
C1593 C219 1.830 . S
C1612 C169 1.766 . S
C1629 C209 1.758 . S
C1648 C139 1.838 . S
C1665 C258 1.664 . S
C1684 C330 1.746 . S
C1701 C298 1.664 . S
C1720 C250 1.753 . S
C1737 C338 1.664 . S
C1756 C290 1.749 . S
C1773 C378 1.751 . S
C1792 C410 1.835 . S
C1809 C450 1.830 . S
C1828 C418 1.725 . S
C1845 C370 1.831 . S
C1864 C458 1.729 . S
C1881 C579 1.814 . S
C1900 C489 1.712 . S
C1917 C529 1.738 . S
C1936 C499 1.808 . S
C1953 C539 1.813 . S
C1972 C569 1.719 . S
C1989 C609 1.773 . S
C2008 C659 1.835 . S
C2025 C699 1.848 . S
C2044 C649 1.763 . S
C2061 C619 1.853 . S
C2080 C689 1.761 . S
C2097 C738 1.704 . S
C2116 C810 1.793 . S
C2133 C778 1.710 . S
C2152 C730 1.778 . S
C2169 C770 1.784 . S
C2188 C818 1.698 . S
C2205 C890 1.660 . S
C2224 C858 1.596 1_554 S
C2241 C898 1.581 1_554 S
C2260 C930 1.669 . S
C2277 C850 1.664 . S
C2296 C938 1.564 1_554 S
C2313 C969 1.715 . S
C2332 C1059 1.778 . S
C2349 C1009 1.716 . S
C2368 C979 1.785 . S
C2385 C1049 1.708 . S
C2404 C1019 1.790 . S
C2421 C1089 1.581 1_556 S
C2440 C1139 1.647 . S
C2457 C1129 1.585 1_556 S
C2476 C1179 1.659 . S
C2493 C1169 1.584 1_556 S
C2512 C1099 1.658 . S
C2529 C1218 1.747 . S
C2548 C1290 1.801 . S
C2565 C1258 1.746 . S
C2584 C1210 1.805 . S
C2601 C1250 1.814 . S
C2620 C1298 1.753 . S
C2637 C1338 1.776 . S
C2656 C1370 1.849 . S
C2673 C1378 1.774 . S
C2692 C1410 1.857 . S
C2709 C1330 1.854 . S
C2728 C1418 1.751 . S
C2745 C10 1.714 . S
C2764 C809 1.692 . S
C2781 C729 1.715 . S
C2800 C50 1.727 . S
C2817 C90 1.712 . S
C2836 C769 1.691 . S
C2853 C130 1.593 . S
C2872 C1369 1.564 . S
C2889 C1409 1.593 . S
C2908 C170 1.613 . S
C2925 C210 1.598 . S
C2944 C1329 1.600 . S
C2961 C1058 1.718 . S
C2980 C259 1.695 . S
C2997 C299 1.712 . S
C3016 C978 1.727 . S
C3033 C339 1.713 . S
C3052 C1018 1.730 . S
C3069 C658 1.588 . S
C3088 C379 1.608 . S
C3105 C698 1.593 . S
C3124 C419 1.573 . S
C3141 C618 1.593 . S
C3160 C459 1.571 . S
C3177 C490 1.658 . S
C3196 C1289 1.661 . S
C3213 C530 1.660 . S
C3232 C1209 1.659 . S
C3249 C1249 1.647 . S
C3268 C570 1.633 . S
C3285 C409 1.635 . S
C3304 C610 1.630 . S
C3321 C449 1.638 . S
C3340 C650 1.658 . S
C3357 C369 1.629 . S
C3376 C690 1.616 . S
C3393 C98 1.705 . S
C3412 C739 1.723 . S
C3429 C779 1.710 . S
C3448 C18 1.695 . S
C3465 C819 1.712 . S
C3484 C58 1.688 . S
C3501 C1138 1.648 1_554 S
C3520 C859 1.672 . S
C3537 C1178 1.649 1_554 S
C3556 C899 1.657 . S
C3573 C939 1.664 . S
C3592 C1098 1.646 . S
C3609 C329 1.706 . S
C3628 C970 1.687 . S
C3645 C249 1.710 . S
C3664 C1010 1.720 . S
C3681 C289 1.713 . S
C3700 C1050 1.722 . S
C3717 C1090 1.674 . S
C3736 C889 1.655 1_556 S
C3753 C929 1.650 1_556 S
C3772 C1130 1.686 . S
C3789 C1170 1.666 . S
C3808 C849 1.642 . S
C3825 C1219 1.653 . S
C3844 C578 1.670 . S
C3861 C1259 1.653 . S
C3880 C498 1.656 . S
C3897 C1299 1.654 . S
C3916 C538 1.667 . S
C3933 C1339 1.643 . S
C3952 C178 1.613 . S
C3969 C218 1.629 . S
C3988 C1379 1.653 . S
C4005 C138 1.638 . S
C4024 C1419 1.616 . S
C4041 C1166 2.359 . S
C4060 C6 2.334 . S
C4077 C1086 2.359 . S
C4096 C46 2.330 . S
C4113 C86 2.366 . S
C4132 C1126 2.351 . S
C4149 C526 2.667 . S
C4168 C126 2.656 . S
C4185 C166 2.668 . S
C4204 C566 2.668 . S
C4221 C206 2.668 . S
C4240 C486 2.673 . S
C4257 C255 2.363 . S
C4276 C935 2.347 . S
C4293 C295 2.364 . S
C4312 C855 2.333 . S
C4329 C335 2.361 . S
C4348 C895 2.349 . S
C4365 C1255 2.666 . S
C4384 C375 2.671 . S
C4401 C1295 2.667 . S
C4420 C415 2.659 . S
C4437 C1215 2.667 . S
C4456 C455 2.657 . S
C4473 C606 2.740 . S
C4492 C1006 2.745 . S
C4509 C646 2.742 . S
C4528 C1046 2.739 . S
C4545 C686 2.742 . S
C4564 C966 2.741 . S
C4581 C735 2.743 . S
C4600 C1415 2.727 . S
C4617 C1335 2.742 . S
C4636 C775 2.728 . S
C4653 C815 2.741 . S
C4672 C1375 2.737 . S
C4689 C175 1.077 . S
C4708 C15 1.088 . S
C4725 C215 1.080 . S
C4744 C55 1.072 . S
C4761 C135 1.080 . S
C4780 C95 1.066 . S
C4797 C246 1.077 . S
C4816 C406 1.087 . S
C4833 C446 1.076 . S
C4852 C286 1.087 . S
C4869 C326 1.076 . S
C4888 C366 1.081 . S
C4905 C655 1.186 . S
C4924 C495 1.172 . S
C4941 C695 1.187 . S
C4960 C535 1.176 . S
C4977 C615 1.184 . S
C4996 C575 1.184 . S
C5013 C886 1.494 . S
C5032 C726 1.524 . S
C5049 C766 1.505 . S
C5068 C926 1.497 . S
C5085 C806 1.503 . S
C5104 C846 1.521 . S
C5121 C975 1.505 . S
C5140 C1135 1.521 . S
C5157 C1175 1.496 . S
C5176 C1015 1.524 . S
C5193 C1055 1.503 . S
C5212 C1095 1.503 . S
C5229 C1206 1.183 . S
C5248 C1366 1.189 . S
C5265 C1406 1.186 . S
C5284 C1246 1.189 . S
C5301 C1286 1.185 . S
C5320 C1326 1.176 . S
