# Generated by pormake.
# Topology wge, (5)-cn, num edge types: 1
# Building blocks:
#     Node 0, Type 0, BuildingBlock: BEQFEK_clean_sbu_0, # of connection points: 5
#     Node 1, Type 0, BuildingBlock: BEQFEK_clean_sbu_0, # of connection points: 5
#     Node 2, Type 0, BuildingBlock: BEQFEK_clean_sbu_0, # of connection points: 5
#     Node 3, Type 0, BuildingBlock: BEQFEK_clean_sbu_0, # of connection points: 5
#     Node 4, Type 0, BuildingBlock: BEQFEK_clean_sbu_0, # of connection points: 5
#     Node 5, Type 0, BuildingBlock: BEQFEK_clean_sbu_0, # of connection points: 5
#     Node 6, Type 0, BuildingBlock: BEQFEK_clean_sbu_0, # of connection points: 5
#     Node 7, Type 0, BuildingBlock: BEQFEK_clean_sbu_0, # of connection points: 5
#     Node 8, Type 0, BuildingBlock: BEQFEK_clean_sbu_0, # of connection points: 5
#     Node 9, Type 0, BuildingBlock: BEQFEK_clean_sbu_0, # of connection points: 5
#     Node 10, Type 0, BuildingBlock: BEQFEK_clean_sbu_0, # of connection points: 5
#     Node 11, Type 0, BuildingBlock: BEQFEK_clean_sbu_0, # of connection points: 5
#     Node 12, Type 0, BuildingBlock: BEQFEK_clean_sbu_0, # of connection points: 5
#     Node 13, Type 0, BuildingBlock: BEQFEK_clean_sbu_0, # of connection points: 5
#     Node 14, Type 0, BuildingBlock: BEQFEK_clean_sbu_0, # of connection points: 5
#     Node 15, Type 0, BuildingBlock: BEQFEK_clean_sbu_0, # of connection points: 5
#     Node 16, Type 0, BuildingBlock: BEQFEK_clean_sbu_0, # of connection points: 5
#     Node 17, Type 0, BuildingBlock: BEQFEK_clean_sbu_0, # of connection points: 5
#     Node 18, Type 0, BuildingBlock: BEQFEK_clean_sbu_0, # of connection points: 5
#     Node 19, Type 0, BuildingBlock: BEQFEK_clean_sbu_0, # of connection points: 5
#     Node 20, Type 0, BuildingBlock: BEQFEK_clean_sbu_0, # of connection points: 5
#     Node 21, Type 0, BuildingBlock: BEQFEK_clean_sbu_0, # of connection points: 5
#     Node 22, Type 0, BuildingBlock: BEQFEK_clean_sbu_0, # of connection points: 5
#     Node 23, Type 0, BuildingBlock: BEQFEK_clean_sbu_0, # of connection points: 5
#     Node 24, Type 0, BuildingBlock: BEQFEK_clean_sbu_0, # of connection points: 5
#     Node 25, Type 0, BuildingBlock: BEQFEK_clean_sbu_0, # of connection points: 5
#     Node 26, Type 0, BuildingBlock: BEQFEK_clean_sbu_0, # of connection points: 5
#     Node 27, Type 0, BuildingBlock: BEQFEK_clean_sbu_0, # of connection points: 5
#     Node 28, Type 0, BuildingBlock: BEQFEK_clean_sbu_0, # of connection points: 5
#     Node 29, Type 0, BuildingBlock: BEQFEK_clean_sbu_0, # of connection points: 5
#     Node 30, Type 0, BuildingBlock: BEQFEK_clean_sbu_0, # of connection points: 5
#     Node 31, Type 0, BuildingBlock: BEQFEK_clean_sbu_0, # of connection points: 5
#     Edge 32, Type (0, 0), BuildingBlock: UVAHIK_clean_linker_0, # of connection points: 2
#     Edge 33, Type (0, 0), BuildingBlock: UVAHIK_clean_linker_0, # of connection points: 2
#     Edge 34, Type (0, 0), BuildingBlock: UVAHIK_clean_linker_0, # of connection points: 2
#     Edge 35, Type (0, 0), BuildingBlock: UVAHIK_clean_linker_0, # of connection points: 2
#     Edge 36, Type (0, 0), BuildingBlock: UVAHIK_clean_linker_0, # of connection points: 2
#     Edge 37, Type (0, 0), BuildingBlock: UVAHIK_clean_linker_0, # of connection points: 2
#     Edge 38, Type (0, 0), BuildingBlock: UVAHIK_clean_linker_0, # of connection points: 2
#     Edge 39, Type (0, 0), BuildingBlock: UVAHIK_clean_linker_0, # of connection points: 2
#     Edge 40, Type (0, 0), BuildingBlock: UVAHIK_clean_linker_0, # of connection points: 2
#     Edge 41, Type (0, 0), BuildingBlock: UVAHIK_clean_linker_0, # of connection points: 2
#     Edge 42, Type (0, 0), BuildingBlock: UVAHIK_clean_linker_0, # of connection points: 2
#     Edge 43, Type (0, 0), BuildingBlock: UVAHIK_clean_linker_0, # of connection points: 2
#     Edge 44, Type (0, 0), BuildingBlock: UVAHIK_clean_linker_0, # of connection points: 2
#     Edge 45, Type (0, 0), BuildingBlock: UVAHIK_clean_linker_0, # of connection points: 2
#     Edge 46, Type (0, 0), BuildingBlock: UVAHIK_clean_linker_0, # of connection points: 2
#     Edge 47, Type (0, 0), BuildingBlock: UVAHIK_clean_linker_0, # of connection points: 2
#     Edge 48, Type (0, 0), BuildingBlock: UVAHIK_clean_linker_0, # of connection points: 2
#     Edge 49, Type (0, 0), BuildingBlock: UVAHIK_clean_linker_0, # of connection points: 2
#     Edge 50, Type (0, 0), BuildingBlock: UVAHIK_clean_linker_0, # of connection points: 2
#     Edge 51, Type (0, 0), BuildingBlock: UVAHIK_clean_linker_0, # of connection points: 2
#     Edge 52, Type (0, 0), BuildingBlock: UVAHIK_clean_linker_0, # of connection points: 2
#     Edge 53, Type (0, 0), BuildingBlock: UVAHIK_clean_linker_0, # of connection points: 2
#     Edge 54, Type (0, 0), BuildingBlock: UVAHIK_clean_linker_0, # of connection points: 2
#     Edge 55, Type (0, 0), BuildingBlock: UVAHIK_clean_linker_0, # of connection points: 2
#     Edge 56, Type (0, 0), BuildingBlock: UVAHIK_clean_linker_0, # of connection points: 2
#     Edge 57, Type (0, 0), BuildingBlock: UVAHIK_clean_linker_0, # of connection points: 2
#     Edge 58, Type (0, 0), BuildingBlock: UVAHIK_clean_linker_0, # of connection points: 2
#     Edge 59, Type (0, 0), BuildingBlock: UVAHIK_clean_linker_0, # of connection points: 2
#     Edge 60, Type (0, 0), BuildingBlock: UVAHIK_clean_linker_0, # of connection points: 2
#     Edge 61, Type (0, 0), BuildingBlock: UVAHIK_clean_linker_0, # of connection points: 2
#     Edge 62, Type (0, 0), BuildingBlock: UVAHIK_clean_linker_0, # of connection points: 2
#     Edge 63, Type (0, 0), BuildingBlock: UVAHIK_clean_linker_0, # of connection points: 2
#     Edge 64, Type (0, 0), BuildingBlock: UVAHIK_clean_linker_0, # of connection points: 2
#     Edge 65, Type (0, 0), BuildingBlock: UVAHIK_clean_linker_0, # of connection points: 2
#     Edge 66, Type (0, 0), BuildingBlock: UVAHIK_clean_linker_0, # of connection points: 2
#     Edge 67, Type (0, 0), BuildingBlock: UVAHIK_clean_linker_0, # of connection points: 2
#     Edge 68, Type (0, 0), BuildingBlock: UVAHIK_clean_linker_0, # of connection points: 2
#     Edge 69, Type (0, 0), BuildingBlock: UVAHIK_clean_linker_0, # of connection points: 2
#     Edge 70, Type (0, 0), BuildingBlock: UVAHIK_clean_linker_0, # of connection points: 2
#     Edge 71, Type (0, 0), BuildingBlock: UVAHIK_clean_linker_0, # of connection points: 2
#     Edge 72, Type (0, 0), BuildingBlock: UVAHIK_clean_linker_0, # of connection points: 2
#     Edge 73, Type (0, 0), BuildingBlock: UVAHIK_clean_linker_0, # of connection points: 2
#     Edge 74, Type (0, 0), BuildingBlock: UVAHIK_clean_linker_0, # of connection points: 2
#     Edge 75, Type (0, 0), BuildingBlock: UVAHIK_clean_linker_0, # of connection points: 2
#     Edge 76, Type (0, 0), BuildingBlock: UVAHIK_clean_linker_0, # of connection points: 2
#     Edge 77, Type (0, 0), BuildingBlock: UVAHIK_clean_linker_0, # of connection points: 2
#     Edge 78, Type (0, 0), BuildingBlock: UVAHIK_clean_linker_0, # of connection points: 2
#     Edge 79, Type (0, 0), BuildingBlock: UVAHIK_clean_linker_0, # of connection points: 2
#     Edge 80, Type (0, 0), BuildingBlock: UVAHIK_clean_linker_0, # of connection points: 2
#     Edge 81, Type (0, 0), BuildingBlock: UVAHIK_clean_linker_0, # of connection points: 2
#     Edge 82, Type (0, 0), BuildingBlock: UVAHIK_clean_linker_0, # of connection points: 2
#     Edge 83, Type (0, 0), BuildingBlock: UVAHIK_clean_linker_0, # of connection points: 2
#     Edge 84, Type (0, 0), BuildingBlock: UVAHIK_clean_linker_0, # of connection points: 2
#     Edge 85, Type (0, 0), BuildingBlock: UVAHIK_clean_linker_0, # of connection points: 2
#     Edge 86, Type (0, 0), BuildingBlock: UVAHIK_clean_linker_0, # of connection points: 2
#     Edge 87, Type (0, 0), BuildingBlock: UVAHIK_clean_linker_0, # of connection points: 2
#     Edge 88, Type (0, 0), BuildingBlock: UVAHIK_clean_linker_0, # of connection points: 2
#     Edge 89, Type (0, 0), BuildingBlock: UVAHIK_clean_linker_0, # of connection points: 2
#     Edge 90, Type (0, 0), BuildingBlock: UVAHIK_clean_linker_0, # of connection points: 2
#     Edge 91, Type (0, 0), BuildingBlock: UVAHIK_clean_linker_0, # of connection points: 2
#     Edge 92, Type (0, 0), BuildingBlock: UVAHIK_clean_linker_0, # of connection points: 2
#     Edge 93, Type (0, 0), BuildingBlock: UVAHIK_clean_linker_0, # of connection points: 2
#     Edge 94, Type (0, 0), BuildingBlock: UVAHIK_clean_linker_0, # of connection points: 2
#     Edge 95, Type (0, 0), BuildingBlock: UVAHIK_clean_linker_0, # of connection points: 2
#     Edge 96, Type (0, 0), BuildingBlock: UVAHIK_clean_linker_0, # of connection points: 2
#     Edge 97, Type (0, 0), BuildingBlock: UVAHIK_clean_linker_0, # of connection points: 2
#     Edge 98, Type (0, 0), BuildingBlock: UVAHIK_clean_linker_0, # of connection points: 2
#     Edge 99, Type (0, 0), BuildingBlock: UVAHIK_clean_linker_0, # of connection points: 2
#     Edge 100, Type (0, 0), BuildingBlock: UVAHIK_clean_linker_0, # of connection points: 2
#     Edge 101, Type (0, 0), BuildingBlock: UVAHIK_clean_linker_0, # of connection points: 2
#     Edge 102, Type (0, 0), BuildingBlock: UVAHIK_clean_linker_0, # of connection points: 2
#     Edge 103, Type (0, 0), BuildingBlock: UVAHIK_clean_linker_0, # of connection points: 2
#     Edge 104, Type (0, 0), BuildingBlock: UVAHIK_clean_linker_0, # of connection points: 2
#     Edge 105, Type (0, 0), BuildingBlock: UVAHIK_clean_linker_0, # of connection points: 2
#     Edge 106, Type (0, 0), BuildingBlock: UVAHIK_clean_linker_0, # of connection points: 2
#     Edge 107, Type (0, 0), BuildingBlock: UVAHIK_clean_linker_0, # of connection points: 2
#     Edge 108, Type (0, 0), BuildingBlock: UVAHIK_clean_linker_0, # of connection points: 2
#     Edge 109, Type (0, 0), BuildingBlock: UVAHIK_clean_linker_0, # of connection points: 2
#     Edge 110, Type (0, 0), BuildingBlock: UVAHIK_clean_linker_0, # of connection points: 2
#     Edge 111, Type (0, 0), BuildingBlock: UVAHIK_clean_linker_0, # of connection points: 2
# Relax obj value: 0.307
# Max RMSD: 0.180
# Mean RMSD: 0.180
data_MOF--net-wge--node1-BEQFEK_clean_sbu_0--edge1-UVAHIK_clean_linker_0
_symmetry_space_group_name_H-M    P1
_symmetry_Int_Tables_number       1
_symmetry_cell_setting            triclinic
loop_
_symmetry_equiv_pos_as_xyz
'x, y, z'
_cell_length_a     83.932443
_cell_length_b     83.960302
_cell_length_c     52.073676
_cell_angle_alpha  89.990182
_cell_angle_beta   90.006069
_cell_angle_gamma 89.997993
loop_
_atom_site_label
_atom_site_type_symbol
_atom_site_fract_x
_atom_site_fract_y
_atom_site_fract_z
_atom_type_partial_charge
Co0 Co 0.21517 0.13285 0.99515 0.0
Co1 Co 0.24092 0.13234 0.03807 0.0
C2 C 0.22668 0.16293 0.01903 0.0
O3 O 0.21773 0.15559 0.00332 0.0
O4 O 0.23633 0.1554 0.03344 0.0
C5 C 0.1852 0.14022 0.97137 0.0
O6 O 0.18308 0.14979 0.99103 0.0
C7 C 0.2506 0.13721 0.09072 0.0
C8 C 0.27094 0.12072 0.09504 0.0
C9 C 0.26113 0.13101 0.10862 0.0
N10 N 0.25391 0.13074 0.06777 0.0
N11 N 0.26633 0.12119 0.07028 0.0
C12 C 0.23623 0.14733 0.09576 0.0
H13 H 0.22737 0.146 0.0801 0.0
H14 H 0.23063 0.1441 0.11435 0.0
H15 H 0.23994 0.16 0.09673 0.0
C16 C 0.19813 0.11201 0.03274 0.0
N17 N 0.21074 0.12084 0.0252 0.0
N18 N 0.22183 0.12028 0.04308 0.0
C19 C 0.21669 0.11084 0.06235 0.0
C20 C 0.20146 0.10554 0.05668 0.0
C21 C 0.18301 0.1104 0.01775 0.0
H22 H 0.17682 0.12206 0.01743 0.0
H23 H 0.17491 0.10142 0.02628 0.0
H24 H 0.18582 0.10706 -0.00235 0.0
O25 O 0.23456 0.12453 0.97757 0.0
O26 O 0.25292 0.12397 0.00824 0.0
H27 H 0.22209 0.09441 0.09309 0.0
H28 H 0.22572 0.11499 0.10017 0.0
C29 C 0.2265 0.10581 0.08496 0.0
H30 H 0.23909 0.10422 0.07921 0.0
H31 H 0.27103 0.11429 0.05543 0.0
O32 O 0.19765 0.13163 0.97017 0.0
C33 C 0.24871 0.12154 0.98506 0.0
Co34 Co 0.1177 0.96754 0.25175 0.0
Co35 Co 0.1161 0.99415 0.29338 0.0
C36 C 0.08668 0.97792 0.27245 0.0
O37 O 0.09464 0.96857 0.2582 0.0
O38 O 0.09359 0.98832 0.28627 0.0
C39 C 0.11246 0.93778 0.22531 0.0
O40 O 0.09937 0.9366 0.23901 0.0
C41 C 0.10765 0.00379 0.34482 0.0
C42 C 0.12458 0.02321 0.35326 0.0
C43 C 0.11317 0.01349 0.36445 0.0
N44 N 0.11585 0.00717 0.32336 0.0
N45 N 0.12564 0.01911 0.32828 0.0
C46 C 0.0952 0.99103 0.34636 0.0
H47 H 0.10054 0.97936 0.34128 0.0
H48 H 0.08955 0.99041 0.36557 0.0
H49 H 0.0857 0.99361 0.33221 0.0
C50 C 0.13935 0.95283 0.28992 0.0
N51 N 0.12934 0.96447 0.28235 0.0
N52 N 0.12898 0.97574 0.29989 0.0
C53 C 0.13891 0.97163 0.31921 0.0
C54 C 0.14578 0.95697 0.31355 0.0
C55 C 0.1435 0.93864 0.27386 0.0
H56 H 0.14712 0.94264 0.25442 0.0
H57 H 0.13281 0.93098 0.27176 0.0
H58 H 0.15333 0.93158 0.28241 0.0
O59 O 0.12501 0.98717 0.23407 0.0
O60 O 0.1248 0.00624 0.26367 0.0
H61 H 0.14492 0.99362 0.33758 0.0
H62 H 0.1506 0.97622 0.35582 0.0
C63 C 0.14144 0.98134 0.34296 0.0
H64 H 0.13017 0.98181 0.35386 0.0
H65 H 0.13376 0.02376 0.31507 0.0
O66 O 0.12155 0.94976 0.22819 0.0
C67 C 0.12747 0.00157 0.24075 0.0
Co68 Co 0.28589 0.86678 0.49907 0.0
Co69 Co 0.25921 0.86572 0.5406 0.0
C70 C 0.27384 0.83592 0.51791 0.0
O71 O 0.28368 0.84362 0.50413 0.0
O72 O 0.26382 0.84313 0.53207 0.0
C73 C 0.31535 0.86109 0.47147 0.0
O74 O 0.31605 0.8474 0.48364 0.0
C75 C 0.24865 0.85687 0.5914 0.0
C76 C 0.23047 0.87504 0.60032 0.0
C77 C 0.2393 0.86279 0.61116 0.0
N78 N 0.24599 0.86563 0.57027 0.0
N79 N 0.23474 0.87616 0.57544 0.0
C80 C 0.26047 0.84351 0.59256 0.0
H81 H 0.25769 0.83475 0.57734 0.0
H82 H 0.27262 0.8482 0.58886 0.0
H83 H 0.26012 0.83717 0.61122 0.0
C84 C 0.30172 0.88671 0.53867 0.0
N85 N 0.28957 0.87751 0.53046 0.0
N86 N 0.27827 0.87736 0.54795 0.0
C87 C 0.28283 0.88665 0.56781 0.0
C88 C 0.29784 0.89285 0.56262 0.0
C89 C 0.31615 0.89047 0.52292 0.0
H90 H 0.31238 0.89512 0.50392 0.0
H91 H 0.32302 0.87937 0.51964 0.0
H92 H 0.3239 0.89941 0.53239 0.0
O93 O 0.2666 0.87545 0.48177 0.0
O94 O 0.24773 0.87586 0.51169 0.0
H95 H 0.26113 0.89376 0.58608 0.0
H96 H 0.27874 0.89796 0.60485 0.0
C97 C 0.27312 0.88938 0.5915 0.0
H98 H 0.27182 0.87797 0.60186 0.0
H99 H 0.23079 0.88481 0.56253 0.0
O100 O 0.30381 0.87052 0.47565 0.0
C101 C 0.25242 0.87867 0.48886 0.0
Co102 Co 0.38647 0.03241 0.75121 0.0
Co103 Co 0.38658 0.00624 0.79363 0.0
C104 C 0.41688 0.02118 0.77216 0.0
O105 O 0.40952 0.03084 0.75758 0.0
O106 O 0.40932 0.0112 0.78598 0.0
C107 C 0.39161 0.06096 0.72057 0.0
O108 O 0.40555 0.0622 0.73184 0.0
C109 C 0.3931 0.99952 0.84677 0.0
C110 C 0.37813 0.97855 0.85521 0.0
C111 C 0.38767 0.99 0.86671 0.0
N112 N 0.3866 0.99434 0.82476 0.0
N113 N 0.37797 0.98153 0.82975 0.0
C114 C 0.40395 0.01367 0.84845 0.0
H115 H 0.39696 0.02474 0.84554 0.0
H116 H 0.41022 0.01417 0.86718 0.0
H117 H 0.41304 0.01306 0.8331 0.0
C118 C 0.36621 0.04898 0.78963 0.0
N119 N 0.37514 0.03653 0.78183 0.0
N120 N 0.37437 0.02513 0.79909 0.0
C121 C 0.36448 0.0298 0.81809 0.0
C122 C 0.35922 0.04515 0.81299 0.0
C123 C 0.36478 0.06431 0.77518 0.0
H124 H 0.35761 0.0623 0.75757 0.0
H125 H 0.37679 0.06838 0.76919 0.0
H126 H 0.35907 0.07373 0.78694 0.0
O127 O 0.3785 0.01248 0.73478 0.0
O128 O 0.37735 0.99379 0.76495 0.0
H129 H 0.34666 0.02303 0.84593 0.0
H130 H 0.36691 0.01999 0.85572 0.0
C131 C 0.35863 0.01924 0.83923 0.0
H132 H 0.35791 0.00675 0.83253 0.0
H133 H 0.37121 0.97547 0.81612 0.0
O134 O 0.38235 0.04956 0.72644 0.0
C135 C 0.3752 0.99831 0.74183 0.0
Co136 Co 0.21357 0.86791 0.99514 0.0
Co137 Co 0.24076 0.86772 0.95449 0.0
C138 C 0.22619 0.83747 0.97524 0.0
O139 O 0.2163 0.84496 0.98915 0.0
O140 O 0.23629 0.8449 0.96154 0.0
C141 C 0.19072 0.85996 0.03356 0.0
O142 O 0.20036 0.848 0.03831 0.0
C143 C 0.24996 0.86112 0.9025 0.0
C144 C 0.27144 0.87585 0.89647 0.0
C145 C 0.26062 0.8661 0.88387 0.0
N146 N 0.25394 0.86799 0.92485 0.0
N147 N 0.26699 0.87652 0.92135 0.0
C148 C 0.23597 0.85019 0.89927 0.0
H149 H 0.22475 0.85702 0.90155 0.0
H150 H 0.23607 0.84413 0.88036 0.0
H151 H 0.23621 0.84091 0.91435 0.0
C152 C 0.19798 0.88798 0.95552 0.0
N153 N 0.21019 0.87895 0.96397 0.0
N154 N 0.2219 0.87954 0.94724 0.0
C155 C 0.21767 0.8894 0.92791 0.0
C156 C 0.2023 0.89488 0.93231 0.0
C157 C 0.18244 0.88965 0.96932 0.0
H158 H 0.18426 0.89684 0.98696 0.0
H159 H 0.17812 0.87771 0.9752 0.0
H160 H 0.17328 0.89544 0.95712 0.0
O161 O 0.2325 0.87686 0.01373 0.0
O162 O 0.25175 0.87722 0.98432 0.0
H163 H 0.24101 0.89596 0.91471 0.0
H164 H 0.22501 0.90691 0.89987 0.0
C165 C 0.22869 0.89507 0.90724 0.0
H166 H 0.22844 0.88653 0.89105 0.0
H167 H 0.27238 0.88341 0.93557 0.0
O168 O 0.19443 0.87014 0.01653 0.0
C169 C 0.24681 0.88 0.00705 0.0
Co170 Co 0.38474 0.96514 0.2438 0.0
Co171 Co 0.38413 0.99327 0.20498 0.0
C172 C 0.41484 0.97854 0.22262 0.0
O173 O 0.40756 0.9686 0.23679 0.0
O174 O 0.40722 0.98878 0.20944 0.0
C175 C 0.39338 0.94142 0.28066 0.0
O176 O 0.40522 0.95113 0.2859 0.0
C177 C 0.38927 0.00617 0.1545 0.0
C178 C 0.37294 0.02678 0.15299 0.0
C179 C 0.38342 0.01785 0.13826 0.0
N180 N 0.38253 0.00805 0.17763 0.0
N181 N 0.37304 0.0206 0.17687 0.0
C182 C 0.39931 0.99208 0.14742 0.0
H183 H 0.3979 0.98238 0.16168 0.0
H184 H 0.39608 0.98759 0.12807 0.0
H185 H 0.41201 0.99574 0.14705 0.0
C186 C 0.36411 0.95044 0.20401 0.0
N187 N 0.37313 0.96254 0.21287 0.0
N188 N 0.37241 0.97452 0.19666 0.0
C189 C 0.36259 0.97053 0.17714 0.0
C190 C 0.35714 0.9551 0.18102 0.0
C191 C 0.36261 0.93465 0.2171 0.0
H192 H 0.35589 0.93618 0.23528 0.0
H193 H 0.37465 0.93011 0.22199 0.0
H194 H 0.35646 0.92578 0.20483 0.0
O195 O 0.37569 0.98308 0.26454 0.0
O196 O 0.37525 0.00297 0.23639 0.0
H197 H 0.35569 0.99386 0.16443 0.0
H198 H 0.3457 0.97783 0.14805 0.0
C199 C 0.35719 0.98172 0.1565 0.0
H200 H 0.36623 0.98205 0.14099 0.0
H201 H 0.36598 0.02438 0.19219 0.0
O202 O 0.38316 0.94534 0.26381 0.0
C203 C 0.37253 0.99752 0.2588 0.0
Co204 Co 0.28424 0.13465 0.49355 0.0
Co205 Co 0.25672 0.13451 0.4532 0.0
C206 C 0.27221 0.16488 0.47232 0.0
O207 O 0.2821 0.1575 0.48642 0.0
O208 O 0.26184 0.15738 0.45923 0.0
C209 C 0.30709 0.14143 0.53301 0.0
O210 O 0.29764 0.15339 0.53869 0.0
C211 C 0.24765 0.14009 0.40063 0.0
C212 C 0.22632 0.12507 0.39528 0.0
C213 C 0.23722 0.13443 0.38209 0.0
N214 N 0.24349 0.13391 0.42344 0.0
N215 N 0.23048 0.12525 0.42031 0.0
C216 C 0.26168 0.15089 0.39688 0.0
H217 H 0.27286 0.14396 0.3989 0.0
H218 H 0.26138 0.15682 0.37785 0.0
H219 H 0.2617 0.16025 0.41182 0.0
C220 C 0.29919 0.11354 0.45476 0.0
N221 N 0.28716 0.1229 0.46296 0.0
N222 N 0.27531 0.12213 0.4465 0.0
C223 C 0.27925 0.1118 0.42767 0.0
C224 C 0.29458 0.10622 0.43205 0.0
C225 C 0.31485 0.11199 0.46823 0.0
H226 H 0.31317 0.10503 0.48614 0.0
H227 H 0.31928 0.12399 0.4736 0.0
H228 H 0.32387 0.10601 0.45602 0.0
O229 O 0.26513 0.1267 0.51268 0.0
O230 O 0.24563 0.12578 0.48368 0.0
H231 H 0.25573 0.10527 0.41531 0.0
H232 H 0.27148 0.09378 0.40083 0.0
C233 C 0.268 0.10583 0.40756 0.0
H234 H 0.26826 0.11398 0.39086 0.0
H235 H 0.22503 0.11873 0.43489 0.0
O236 O 0.30331 0.13195 0.51502 0.0
C237 C 0.25073 0.12358 0.50651 0.0
Co238 Co 0.11583 0.04004 0.74947 0.0
Co239 Co 0.1151 0.01327 0.70771 0.0
C240 C 0.08508 0.02778 0.72895 0.0
O241 O 0.0927 0.03739 0.74325 0.0
O242 O 0.09238 0.01787 0.71475 0.0
C243 C 0.10747 0.06804 0.77899 0.0
O244 O 0.09271 0.06477 0.77258 0.0
C245 C 0.10726 0.00234 0.65664 0.0
C246 C 0.12512 0.98358 0.64928 0.0
C247 C 0.11323 0.99247 0.63759 0.0
N248 N 0.11562 -0.00015 0.67824 0.0
N249 N 0.12599 0.98831 0.67399 0.0
C250 C 0.09417 0.01441 0.65441 0.0
H251 H 0.08482 0.01166 0.66873 0.0
H252 H 0.09891 0.02644 0.65884 0.0
H253 H 0.08851 0.01433 0.63518 0.0
C254 C 0.13698 0.05525 0.71089 0.0
N255 N 0.12714 0.04343 0.71843 0.0
N256 N 0.12698 0.03221 0.70082 0.0
C257 C 0.1368 0.03652 0.68149 0.0
C258 C 0.14349 0.05125 0.68723 0.0
C259 C 0.14112 0.06932 0.72721 0.0
H260 H 0.14546 0.0651 0.74615 0.0
H261 H 0.13025 0.07655 0.73053 0.0
H262 H 0.15043 0.07686 0.71824 0.0
O263 O 0.12449 0.02093 0.76758 0.0
O264 O 0.12452 0.00206 0.73758 0.0
H265 H 0.14392 0.01479 0.66331 0.0
H266 H 0.14832 0.03238 0.64461 0.0
C267 C 0.13964 0.0268 0.65783 0.0
H268 H 0.1283 0.02557 0.64726 0.0
H269 H 0.1343 0.98434 0.68746 0.0
O270 O 0.1187 0.05894 0.77164 0.0
C271 C 0.12742 0.00668 0.76045 0.0
Co272 Co 0.78342 0.86713 0.99219 0.0
Co273 Co 0.75612 0.86588 0.95172 0.0
C274 C 0.77205 0.83622 0.97284 0.0
O275 O 0.78176 0.84407 0.9866 0.0
O276 O 0.7616 0.84326 0.95923 0.0
C277 C 0.81254 0.86121 0.02034 0.0
O278 O 0.81195 0.84673 0.01085 0.0
C279 C 0.74722 0.8589 0.89954 0.0
C280 C 0.72578 0.87363 0.89322 0.0
C281 C 0.73676 0.86404 0.88067 0.0
N282 N 0.743 0.8656 0.92192 0.0
N283 N 0.72994 0.87409 0.91823 0.0
C284 C 0.7613 0.84807 0.89652 0.0
H285 H 0.76133 0.83907 0.91204 0.0
H286 H 0.77245 0.85509 0.89815 0.0
H287 H 0.76106 0.84169 0.87787 0.0
C288 C 0.79844 0.88724 0.95213 0.0
N289 N 0.78641 0.87811 0.96095 0.0
N290 N 0.77461 0.87834 0.94435 0.0
C291 C 0.7786 0.88807 0.92474 0.0
C292 C 0.7939 0.89382 0.9288 0.0
C293 C 0.81405 0.88925 0.96562 0.0
H294 H 0.81857 0.87743 0.97175 0.0
H295 H 0.82306 0.89503 0.95313 0.0
H296 H 0.81225 0.8966 0.9831 0.0
O297 O 0.76406 0.87517 0.01031 0.0
O298 O 0.74458 0.87511 0.98137 0.0
H299 H 0.77089 0.90516 0.8963 0.0
H300 H 0.76791 0.88465 0.88794 0.0
C301 C 0.76745 0.89331 0.90395 0.0
H302 H 0.75512 0.89401 0.9114 0.0
H303 H 0.72444 0.88094 0.9324 0.0
O304 O 0.80172 0.87121 0.01472 0.0
C305 C 0.74962 0.87791 0.00403 0.0
Co306 Co 0.88206 0.03627 0.74404 0.0
Co307 Co 0.88412 0.00968 0.70264 0.0
C308 C 0.91343 0.02501 0.72532 0.0
O309 O 0.90531 0.03448 0.73914 0.0
O310 O 0.90662 0.01485 0.71091 0.0
C311 C 0.88778 0.06604 0.77015 0.0
O312 O 0.90152 0.06629 0.7581 0.0
C313 C 0.89338 0.99886 0.65225 0.0
C314 C 0.87597 0.97986 0.64377 0.0
C315 C 0.88804 0.9889 0.63287 0.0
N316 N 0.88452 0.99627 0.67327 0.0
N317 N 0.87442 0.98458 0.66839 0.0
C318 C 0.90629 0.01116 0.65081 0.0
H319 H 0.90127 0.02309 0.65513 0.0
H320 H 0.91233 0.01126 0.63188 0.0
H321 H 0.91541 0.00849 0.66556 0.0
C322 C 0.86119 0.05113 0.7048 0.0
N323 N 0.87118 0.03953 0.71268 0.0
N324 N 0.87191 0.02835 0.69503 0.0
C325 C 0.86235 0.03252 0.67526 0.0
C326 C 0.85523 0.04708 0.68078 0.0
C327 C 0.85636 0.06499 0.72112 0.0
H328 H 0.85257 0.06064 0.74028 0.0
H329 H 0.86678 0.07294 0.7239 0.0
H330 H 0.84646 0.07186 0.71242 0.0
O331 O 0.87362 0.01699 0.76166 0.0
O332 O 0.87432 0.99809 0.73181 0.0
H333 H 0.85586 0.01078 0.65653 0.0
H334 H 0.8519 0.0284 0.63758 0.0
C335 C 0.86023 0.02282 0.65139 0.0
H336 H 0.87187 0.02161 0.6417 0.0
H337 H 0.86583 0.98052 0.68132 0.0
O338 O 0.87823 0.05449 0.76672 0.0
C339 C 0.87101 0.00269 0.75453 0.0
Co340 Co 0.71234 0.13608 0.49665 0.0
Co341 Co 0.73952 0.13674 0.45588 0.0
C342 C 0.72423 0.16676 0.47553 0.0
O343 O 0.71459 0.15908 0.48969 0.0
O344 O 0.73454 0.15953 0.46196 0.0
C345 C 0.68947 0.14354 0.53547 0.0
O346 O 0.69933 0.15517 0.54122 0.0
C347 C 0.7516 0.1442 0.40534 0.0
C348 C 0.76982 0.12566 0.39888 0.0
C349 C 0.76151 0.13778 0.38672 0.0
N350 N 0.75349 0.13587 0.42712 0.0
N351 N 0.76474 0.12509 0.42342 0.0
C352 C 0.73997 0.15762 0.40245 0.0
H353 H 0.72773 0.15326 0.40634 0.0
H354 H 0.74058 0.16323 0.38321 0.0
H355 H 0.74275 0.16692 0.41683 0.0
C356 C 0.69801 0.11403 0.45862 0.0
N357 N 0.70951 0.12427 0.46602 0.0
N358 N 0.72082 0.12457 0.44856 0.0
C359 C 0.71682 0.1145 0.42938 0.0
C360 C 0.70226 0.10745 0.43514 0.0
C361 C 0.684 0.10963 0.47494 0.0
H362 H 0.68814 0.10662 0.49458 0.0
H363 H 0.6759 0.12004 0.47642 0.0
H364 H 0.67735 0.09935 0.46697 0.0
O365 O 0.73116 0.1278 0.51602 0.0
O366 O 0.75029 0.12761 0.48643 0.0
H367 H 0.73848 0.10706 0.41134 0.0
H368 H 0.7209 0.10353 0.39209 0.0
C369 C 0.72665 0.11181 0.4058 0.0
H370 H 0.72834 0.12329 0.39582 0.0
H371 H 0.7682 0.1167 0.43711 0.0
O372 O 0.69302 0.13387 0.51763 0.0
C373 C 0.74548 0.12486 0.50924 0.0
Co374 Co 0.61631 0.96416 0.24728 0.0
Co375 Co 0.61756 0.99173 0.2072 0.0
C376 C 0.58652 0.97753 0.22491 0.0
O377 O 0.59355 0.96766 0.23958 0.0
O378 O 0.59439 0.98751 0.2116 0.0
C379 C 0.60651 0.93739 0.27859 0.0
O380 O 0.59197 0.94285 0.27551 0.0
C381 C 0.61303 0.00339 0.1557 0.0
C382 C 0.6297 0.0237 0.15335 0.0
C383 C 0.61937 0.01446 0.13882 0.0
N384 N 0.61942 0.00586 0.17896 0.0
N385 N 0.62909 0.01825 0.17767 0.0
C386 C 0.6029 0.98925 0.14925 0.0
H387 H 0.60388 0.97998 0.16436 0.0
H388 H 0.60642 0.9841 0.13047 0.0
H389 H 0.59028 0.99308 0.14793 0.0
C390 C 0.63658 0.94841 0.20795 0.0
N391 N 0.62803 0.96091 0.21659 0.0
N392 N 0.62909 0.97268 0.2 0.0
C393 C 0.63871 0.96815 0.18055 0.0
C394 C 0.64358 0.95257 0.18475 0.0
C395 C 0.63755 0.93268 0.22136 0.0
H396 H 0.64472 0.93405 0.23913 0.0
H397 H 0.62542 0.92877 0.22699 0.0
H398 H 0.64305 0.92342 0.20902 0.0
O399 O 0.62515 0.98257 0.26714 0.0
O400 O 0.62636 0.00202 0.23823 0.0
H401 H 0.64606 0.99115 0.16692 0.0
H402 H 0.65603 0.97468 0.15171 0.0
C403 C 0.64448 0.97889 0.15956 0.0
H404 H 0.63569 0.97899 0.1437 0.0
H405 H 0.63598 0.02236 0.19297 0.0
O406 O 0.61819 0.94483 0.26871 0.0
C407 C 0.62862 0.99687 0.26096 0.0
Co408 Co 0.78637 0.13578 0.00144 0.0
Co409 Co 0.75903 0.13579 0.04193 0.0
C410 C 0.77358 0.16614 0.02114 0.0
O411 O 0.78362 0.15873 0.0074 0.0
O412 O 0.76343 0.15864 0.03464 0.0
C413 C 0.81029 0.14395 0.96452 0.0
O414 O 0.80183 0.15695 0.96121 0.0
C415 C 0.75066 0.14237 0.09425 0.0
C416 C 0.72951 0.12738 0.10139 0.0
C417 C 0.74057 0.1371 0.1135 0.0
N418 N 0.74618 0.13564 0.07203 0.0
N419 N 0.73328 0.12698 0.07619 0.0
C420 C 0.76472 0.15328 0.09684 0.0
H421 H 0.7643 0.16251 0.08169 0.0
H422 H 0.77588 0.1464 0.09427 0.0
H423 H 0.76488 0.1594 0.11571 0.0
C424 C 0.80204 0.11592 0.04126 0.0
N425 N 0.78977 0.12481 0.03262 0.0
N426 N 0.77795 0.12403 0.04912 0.0
C427 C 0.78215 0.11413 0.0684 0.0
C428 C 0.79762 0.1089 0.06432 0.0
C429 C 0.8177 0.11442 0.02776 0.0
H430 H 0.82183 0.12638 0.02165 0.0
H431 H 0.82687 0.10891 0.04026 0.0
H432 H 0.81612 0.10702 0.01029 0.0
O433 O 0.76741 0.12671 0.98303 0.0
O434 O 0.748 0.12611 0.01218 0.0
H435 H 0.7747 0.09614 0.09554 0.0
H436 H 0.77109 0.11632 0.10515 0.0
C437 C 0.77099 0.10807 0.08859 0.0
H438 H 0.75874 0.10722 0.08084 0.0
H439 H 0.72766 0.12011 0.06228 0.0
O440 O 0.80548 0.13331 0.98002 0.0
C441 C 0.7531 0.12339 0.98951 0.0
Co442 Co 0.61885 0.03198 0.75258 0.0
Co443 Co 0.61894 0.00519 0.79401 0.0
C444 C 0.58856 0.02063 0.77418 0.0
O445 O 0.59594 0.0303 0.7597 0.0
O446 O 0.59607 0.01041 0.7876 0.0
C447 C 0.61255 0.06098 0.72439 0.0
O448 O 0.59926 0.0618 0.73764 0.0
C449 C 0.61301 0.99743 0.84702 0.0
C450 C 0.62808 0.97632 0.85403 0.0
C451 C 0.61861 0.98751 0.86632 0.0
N452 N 0.61935 0.99272 0.8246 0.0
N453 N 0.62804 0.97984 0.82874 0.0
C454 C 0.60212 0.01149 0.84966 0.0
H455 H 0.59269 0.01092 0.83486 0.0
H456 H 0.60897 0.02263 0.84654 0.0
H457 H 0.59627 0.01182 0.86874 0.0
C458 C 0.6397 0.04784 0.79088 0.0
N459 N 0.63062 0.03554 0.78291 0.0
N460 N 0.63145 0.02393 0.7998 0.0
C461 C 0.64153 0.02833 0.81874 0.0
C462 C 0.64687 0.04369 0.81397 0.0
C463 C 0.64097 0.06337 0.77696 0.0
H464 H 0.64776 0.06157 0.7589 0.0
H465 H 0.62888 0.06761 0.77176 0.0
H466 H 0.64697 0.07259 0.78876 0.0
O467 O 0.62644 0.01234 0.73495 0.0
O468 O 0.62744 0.99309 0.7642 0.0
H469 H 0.64805 0.00513 0.8326 0.0
H470 H 0.6593 0.02126 0.84648 0.0
C471 C 0.64734 0.01755 0.83962 0.0
H472 H 0.63902 0.01814 0.85608 0.0
H473 H 0.63468 0.97405 0.81465 0.0
O474 O 0.62222 0.04959 0.72837 0.0
C475 C 0.62947 0.99797 0.74123 0.0
Co476 Co 0.71228 0.8661 0.49166 0.0
Co477 Co 0.73795 0.86636 0.53485 0.0
C478 C 0.72424 0.83588 0.51352 0.0
O479 O 0.71478 0.84319 0.49857 0.0
O480 O 0.73387 0.84347 0.52784 0.0
C481 C 0.6824 0.85942 0.46723 0.0
O482 O 0.68012 0.84962 0.48655 0.0
C483 C 0.74632 0.85998 0.58766 0.0
C484 C 0.76682 0.8759 0.59456 0.0
C485 C 0.75635 0.8656 0.60676 0.0
N486 N 0.75029 0.86705 0.56545 0.0
N487 N 0.76279 0.87628 0.56951 0.0
C488 C 0.73302 0.84815 0.59021 0.0
H489 H 0.73419 0.83891 0.57517 0.0
H490 H 0.72143 0.85422 0.58728 0.0
H491 H 0.73316 0.84211 0.60914 0.0
C492 C 0.69497 0.88635 0.52993 0.0
N493 N 0.70756 0.87753 0.52225 0.0
N494 N 0.71863 0.87796 0.54016 0.0
C495 C 0.71352 0.88731 0.55956 0.0
C496 C 0.6983 0.89268 0.55399 0.0
C497 C 0.67996 0.88827 0.51476 0.0
H498 H 0.6829 0.89207 0.49491 0.0
H499 H 0.67378 0.87662 0.51366 0.0
H500 H 0.67176 0.89704 0.52364 0.0
O501 O 0.73191 0.87478 0.47506 0.0
O502 O 0.75005 0.87586 0.50611 0.0
H503 H 0.73604 0.8941 0.5758 0.0
H504 H 0.71914 0.90387 0.59004 0.0
C505 C 0.72351 0.89247 0.58188 0.0
H506 H 0.72293 0.88332 0.59715 0.0
H507 H 0.76805 0.88344 0.55549 0.0
O508 O 0.69496 0.86788 0.46639 0.0
C509 C 0.7459 0.87823 0.48288 0.0
Co510 Co 0.88446 0.96516 0.24954 0.0
Co511 Co 0.88559 0.99216 0.29064 0.0
C512 C 0.91532 0.97686 0.26966 0.0
O513 O 0.90754 0.96717 0.25578 0.0
O514 O 0.9082 0.98714 0.28338 0.0
C515 C 0.89223 0.94061 0.21318 0.0
O516 O 0.90571 0.94835 0.21026 0.0
C517 C 0.89433 0.00293 0.34121 0.0
C518 C 0.87621 0.02113 0.35019 0.0
C519 C 0.88846 0.01228 0.36097 0.0
N520 N 0.88557 0.00561 0.32009 0.0
N521 N 0.87506 0.01688 0.32528 0.0
C522 C 0.9075 0.9909 0.34249 0.0
H523 H 0.90283 0.97895 0.33735 0.0
H524 H 0.91329 0.99055 0.36161 0.0
H525 H 0.91677 0.99411 0.32828 0.0
C526 C 0.86319 0.95045 0.28831 0.0
N527 N 0.87309 0.96214 0.28053 0.0
N528 N 0.87341 0.97346 0.29797 0.0
C529 C 0.8636 0.96933 0.31742 0.0
C530 C 0.85681 0.95461 0.31196 0.0
C531 C 0.85895 0.93628 0.27228 0.0
H532 H 0.85516 0.94031 0.25293 0.0
H533 H 0.86966 0.92867 0.26993 0.0
H534 H 0.84922 0.92916 0.28097 0.0
O535 O 0.8761 0.98427 0.23099 0.0
O536 O 0.87619 0.00332 0.26074 0.0
H537 H 0.8563 0.99105 0.33536 0.0
H538 H 0.85254 0.97353 0.35463 0.0
C539 C 0.86091 0.97918 0.34095 0.0
H540 H 0.87238 0.98075 0.35099 0.0
H541 H 0.8664 0.02085 0.3124 0.0
O542 O 0.88162 0.94607 0.22818 0.0
C543 C 0.87327 0.99859 0.23793 0.0
Co544 Co 0.71501 0.63315 0.50097 0.0
Co545 Co 0.74202 0.63492 0.54201 0.0
C546 C 0.72671 0.66435 0.51963 0.0
O547 O 0.71701 0.65633 0.5061 0.0
O548 O 0.73699 0.65745 0.53369 0.0
C549 C 0.68695 0.64017 0.47058 0.0
O550 O 0.69015 0.65526 0.47473 0.0
C551 C 0.75258 0.64433 0.59236 0.0
C552 C 0.77088 0.62643 0.60202 0.0
C553 C 0.76189 0.63871 0.61239 0.0
N554 N 0.75541 0.63538 0.57151 0.0
N555 N 0.76674 0.62501 0.57709 0.0
C556 C 0.74044 0.65741 0.59316 0.0
H557 H 0.7435 0.66645 0.5785 0.0
H558 H 0.72851 0.65254 0.58838 0.0
H559 H 0.74013 0.66352 0.61202 0.0
C560 C 0.70039 0.6123 0.54039 0.0
N561 N 0.712 0.62225 0.53241 0.0
N562 N 0.72331 0.62282 0.54984 0.0
C563 C 0.71925 0.61315 0.56952 0.0
C564 C 0.70459 0.60617 0.56421 0.0
C565 C 0.68643 0.60757 0.52422 0.0
H566 H 0.69079 0.6031 0.50545 0.0
H567 H 0.6789 0.61819 0.52056 0.0
H568 H 0.67915 0.59816 0.53343 0.0
O569 O 0.7342 0.62465 0.48293 0.0
O570 O 0.75329 0.62494 0.51263 0.0
H571 H 0.74105 0.60604 0.58745 0.0
H572 H 0.72358 0.60236 0.6069 0.0
C573 C 0.72918 0.61065 0.59304 0.0
H574 H 0.73074 0.62219 0.60286 0.0
H575 H 0.7708 0.61624 0.5645 0.0
O576 O 0.69614 0.62944 0.47936 0.0
C577 C 0.74851 0.62181 0.48991 0.0
Co578 Co 0.61534 0.46233 0.74573 0.0
Co579 Co 0.61455 0.48914 0.7874 0.0
C580 C 0.58454 0.47477 0.76589 0.0
O581 O 0.59223 0.46515 0.7517 0.0
O582 O 0.59179 0.48468 0.78017 0.0
C583 C 0.60676 0.43456 0.71593 0.0
O584 O 0.59202 0.4381 0.72215 0.0
C585 C 0.60665 0.50016 0.83839 0.0
C586 C 0.62468 0.51873 0.84587 0.0
C587 C 0.6127 0.50993 0.8575 0.0
N588 N 0.61506 0.5026 0.81682 0.0
N589 N 0.62553 0.51405 0.82114 0.0
C590 C 0.59349 0.48818 0.84056 0.0
H591 H 0.59816 0.4761 0.83627 0.0
H592 H 0.58775 0.48835 0.85973 0.0
H593 H 0.58422 0.49094 0.82612 0.0
C594 C 0.63623 0.44702 0.78462 0.0
N595 N 0.62649 0.45888 0.77692 0.0
N596 N 0.62629 0.47012 0.79451 0.0
C597 C 0.63602 0.46578 0.81395 0.0
C598 C 0.64266 0.45102 0.80835 0.0
C599 C 0.64035 0.4329 0.7684 0.0
H600 H 0.64477 0.43706 0.74947 0.0
H601 H 0.62945 0.42573 0.765 0.0
H602 H 0.64959 0.42533 0.77749 0.0
O603 O 0.6242 0.48136 0.72766 0.0
O604 O 0.62431 0.50024 0.75767 0.0
H605 H 0.64322 0.4875 0.83209 0.0
H606 H 0.64743 0.46992 0.85093 0.0
C607 C 0.63884 0.47553 0.83759 0.0
H608 H 0.62747 0.47685 0.84803 0.0
H609 H 0.6339 0.51794 0.80772 0.0
O610 O 0.61812 0.44341 0.72356 0.0
C611 C 0.62727 0.49557 0.73485 0.0
Co612 Co 0.7852 0.36811 -0.00149 0.0
Co613 Co 0.75859 0.36812 0.04064 0.0
C614 C 0.77329 0.33777 0.02067 0.0
O615 O 0.78282 0.3452 0.00598 0.0
O616 O 0.76331 0.34525 0.03453 0.0
C617 C 0.81321 0.35943 0.96932 0.0
O618 O 0.81016 0.3448 0.97674 0.0
C619 C 0.74861 0.36105 0.09247 0.0
C620 C 0.72983 0.37883 0.10005 0.0
C621 C 0.73912 0.36727 0.11181 0.0
N622 N 0.74556 0.36896 0.07062 0.0
N623 N 0.73399 0.37928 0.07504 0.0
C624 C 0.76091 0.34816 0.09465 0.0
H625 H 0.77277 0.35295 0.08926 0.0
H626 H 0.76134 0.34288 0.11414 0.0
H627 H 0.75795 0.3385 0.081 0.0
C628 C 0.80066 0.38985 0.0359 0.0
N629 N 0.7887 0.38004 0.02886 0.0
N630 N 0.77753 0.38026 0.04658 0.0
C631 C 0.78201 0.39039 0.06541 0.0
C632 C 0.79681 0.39679 0.05929 0.0
C633 C 0.8148 0.39346 0.01941 0.0
H634 H 0.81065 0.39761 0.00033 0.0
H635 H 0.82181 0.3824 0.01649 0.0
H636 H 0.82254 0.40274 0.028 0.0
O637 O 0.76586 0.37609 0.98031 0.0
O638 O 0.74705 0.37695 0.01044 0.0
H639 H 0.76029 0.39756 0.08358 0.0
H640 H 0.77793 0.40281 0.10155 0.0
C641 C 0.77243 0.39367 0.08907 0.0
H642 H 0.77154 0.38261 0.10044 0.0
H643 H 0.72965 0.38732 0.06143 0.0
O644 O 0.80395 0.3707 0.97592 0.0
C645 C 0.75162 0.37918 0.98733 0.0
Co646 Co 0.88464 0.5345 0.25338 0.0
Co647 Co 0.88503 0.50645 0.29273 0.0
C648 C 0.9152 0.52215 0.27419 0.0
O649 O 0.9076 0.53214 0.26056 0.0
O650 O 0.90789 0.51154 0.28704 0.0
C651 C 0.89287 0.56005 0.21888 0.0
O652 O 0.90665 0.55277 0.2166 0.0
C653 C 0.89244 0.49314 0.34256 0.0
C654 C 0.8735 0.47526 0.34829 0.0
C655 C 0.88587 0.48301 0.36073 0.0
N656 N 0.88397 0.49191 0.32079 0.0
N657 N 0.87294 0.48086 0.32404 0.0
C658 C 0.90618 0.50435 0.34588 0.0
H659 H 0.90215 0.51677 0.34254 0.0
H660 H 0.91181 0.50328 0.36505 0.0
H661 H 0.91537 0.50156 0.33133 0.0
C662 C 0.86292 0.54835 0.29233 0.0
N663 N 0.87275 0.53673 0.28406 0.0
N664 N 0.87295 0.52509 0.30096 0.0
C665 C 0.86322 0.529 0.32066 0.0
C666 C 0.85652 0.54386 0.31583 0.0
C667 C 0.85883 0.56283 0.27691 0.0
H668 H 0.85538 0.55918 0.2572 0.0
H669 H 0.86951 0.57057 0.27542 0.0
H670 H 0.84889 0.56967 0.28556 0.0
O671 O 0.87663 0.51603 0.23305 0.0
O672 O 0.87601 0.49626 0.26151 0.0
H673 H 0.85579 0.50725 0.33841 0.0
H674 H 0.85284 0.52464 0.35832 0.0
C675 C 0.8608 0.51895 0.34407 0.0
H676 H 0.87243 0.51699 0.35347 0.0
H677 H 0.8644 0.47789 0.31028 0.0
O678 O 0.88207 0.55405 0.23298 0.0
C679 C 0.87357 0.50158 0.23889 0.0
Co680 Co 0.71413 0.36874 0.49847 0.0
Co681 Co 0.74042 0.36826 0.45624 0.0
C682 C 0.72464 0.33825 0.47525 0.0
O683 O 0.71544 0.34589 0.49019 0.0
O684 O 0.73492 0.34548 0.46162 0.0
C685 C 0.68341 0.36341 0.52085 0.0
O686 O 0.68061 0.35492 0.50015 0.0
C687 C 0.75054 0.36115 0.40437 0.0
C688 C 0.76971 0.37861 0.39732 0.0
C689 C 0.76039 0.36719 0.38533 0.0
N690 N 0.75347 0.36904 0.42629 0.0
N691 N 0.76525 0.37917 0.42219 0.0
C692 C 0.73818 0.34835 0.40191 0.0
H693 H 0.7412 0.33849 0.41519 0.0
H694 H 0.72637 0.35308 0.40767 0.0
H695 H 0.73761 0.34332 0.38226 0.0
C696 C 0.69895 0.39135 0.46164 0.0
N697 N 0.71068 0.38126 0.46869 0.0
N698 N 0.72178 0.38112 0.45083 0.0
C699 C 0.71743 0.39118 0.43183 0.0
C700 C 0.70283 0.39799 0.43803 0.0
C701 C 0.6848 0.39527 0.47791 0.0
H702 H 0.6885 0.39654 0.49825 0.0
H703 H 0.67606 0.38539 0.47665 0.0
H704 H 0.67896 0.40644 0.47149 0.0
O705 O 0.7338 0.37576 0.51638 0.0
O706 O 0.75265 0.37623 0.48645 0.0
H707 H 0.73905 0.39742 0.41247 0.0
H708 H 0.7213 0.40267 0.3948 0.0
C709 C 0.72674 0.3937 0.40765 0.0
H710 H 0.72722 0.38236 0.39691 0.0
H711 H 0.76959 0.38711 0.43593 0.0
O712 O 0.69659 0.37072 0.52319 0.0
C713 C 0.74815 0.37838 0.5096 0.0
Co714 Co 0.8843 0.4628 0.75152 0.0
Co715 Co 0.8843 0.48757 0.70707 0.0
C716 C 0.91463 0.47368 0.72898 0.0
O717 O 0.9072 0.46463 0.74439 0.0
O718 O 0.90715 0.48319 0.7143 0.0
C719 C 0.89076 0.43362 0.77789 0.0
O720 O 0.90078 0.43098 0.75899 0.0
C721 C 0.89075 0.49359 0.65364 0.0
C722 C 0.87609 0.51472 0.64469 0.0
C723 C 0.8857 0.50318 0.63357 0.0
N724 N 0.88403 0.49886 0.67542 0.0
N725 N 0.87554 0.51171 0.67011 0.0
C726 C 0.90168 0.47948 0.65236 0.0
H727 H 0.89489 0.46846 0.65664 0.0
H728 H 0.90753 0.47841 0.63336 0.0
H729 H 0.91112 0.48066 0.66708 0.0
C730 C 0.86363 0.44506 0.71445 0.0
N731 N 0.87269 0.45764 0.72137 0.0
N732 N 0.87222 0.46843 0.70304 0.0
C733 C 0.86252 0.46319 0.68418 0.0
C734 C 0.85703 0.44812 0.69048 0.0
C735 C 0.86173 0.43031 0.73027 0.0
H736 H 0.85759 0.43357 0.7498 0.0
H737 H 0.87347 0.42437 0.73217 0.0
H738 H 0.85323 0.4218 0.72147 0.0
O739 O 0.8761 0.483 0.76693 0.0
O740 O 0.87508 0.50062 0.73507 0.0
H741 H 0.85614 0.48568 0.66736 0.0
H742 H 0.84529 0.46892 0.65476 0.0
C743 C 0.85709 0.47299 0.6618 0.0
H744 H 0.86573 0.47175 0.64588 0.0
H745 H 0.86877 0.51793 0.68358 0.0
O746 O 0.88222 0.44612 0.77776 0.0
C747 C 0.87282 0.4969 0.75854 0.0
Co748 Co 0.78588 0.63381 0.99434 0.0
Co749 Co 0.75868 0.63497 0.95372 0.0
C750 C 0.77408 0.66472 0.9751 0.0
O751 O 0.78396 0.657 0.98878 0.0
O752 O 0.76378 0.65753 0.96146 0.0
C753 C 0.81483 0.64004 0.0232 0.0
O754 O 0.81378 0.65481 0.01505 0.0
C755 C 0.74774 0.64383 0.90328 0.0
C756 C 0.72857 0.62652 0.89526 0.0
C757 C 0.7377 0.63841 0.88405 0.0
N758 N 0.7451 0.63518 0.92451 0.0
N759 N 0.73332 0.62514 0.9199 0.0
C760 C 0.76016 0.65661 0.90149 0.0
H761 H 0.77205 0.65153 0.90599 0.0
H762 H 0.76034 0.66245 0.88241 0.0
H763 H 0.75757 0.6659 0.91595 0.0
C764 C 0.80073 0.61315 0.95477 0.0
N765 N 0.7889 0.62271 0.96308 0.0
N766 N 0.77739 0.62293 0.94594 0.0
C767 C 0.78151 0.61335 0.92619 0.0
C768 C 0.79645 0.60686 0.93109 0.0
C769 C 0.81518 0.60914 0.97033 0.0
H770 H 0.81139 0.60441 0.98926 0.0
H771 H 0.82218 0.62014 0.97378 0.0
H772 H 0.8228 0.60015 0.96072 0.0
O773 O 0.76671 0.62554 0.01263 0.0
O774 O 0.74745 0.62534 0.98331 0.0
H775 H 0.75942 0.60664 0.90871 0.0
H776 H 0.77671 0.60195 0.88942 0.0
C777 C 0.77145 0.6107 0.90285 0.0
H778 H 0.77026 0.62208 0.89238 0.0
H779 H 0.72921 0.61669 0.93303 0.0
O780 O 0.80433 0.62991 0.01668 0.0
C781 C 0.75237 0.62256 0.00604 0.0
Co782 Co 0.61569 0.53441 0.24205 0.0
Co783 Co 0.61557 0.50716 0.20133 0.0
C784 C 0.58532 0.5226 0.22087 0.0
O785 O 0.5928 0.53246 0.23487 0.0
O786 O 0.59274 0.51221 0.20774 0.0
C787 C 0.60776 0.56171 0.27366 0.0
O788 O 0.59277 0.55789 0.26989 0.0
C789 C 0.608 0.49724 0.14987 0.0
C790 C 0.62524 0.47802 0.14196 0.0
C791 C 0.61385 0.48762 0.13042 0.0
N792 N 0.61595 0.49395 0.17159 0.0
N793 N 0.62595 0.48212 0.16699 0.0
C794 C 0.59548 0.50992 0.14789 0.0
H795 H 0.60064 0.52161 0.15342 0.0
H796 H 0.59019 0.51062 0.12843 0.0
H797 H 0.58573 0.50718 0.1615 0.0
C798 C 0.63717 0.54933 0.20393 0.0
N799 N 0.62751 0.53742 0.21159 0.0
N800 N 0.62787 0.52589 0.19451 0.0
C801 C 0.63803 0.53005 0.17554 0.0
C802 C 0.64419 0.54507 0.18082 0.0
C803 C 0.64059 0.56384 0.21966 0.0
H804 H 0.64532 0.56011 0.23862 0.0
H805 H 0.62935 0.57048 0.22297 0.0
H806 H 0.64941 0.57178 0.21031 0.0
O807 O 0.62354 0.51524 0.26083 0.0
O808 O 0.62456 0.49589 0.23164 0.0
H809 H 0.64512 0.50781 0.159 0.0
H810 H 0.65124 0.52496 0.1405 0.0
C811 C 0.64166 0.51992 0.15264 0.0
H812 H 0.63085 0.51903 0.14064 0.0
H813 H 0.63396 0.47758 0.18046 0.0
O814 O 0.61876 0.55317 0.26409 0.0
C815 C 0.62673 0.50089 0.25453 0.0
Co816 Co 0.28641 0.36624 0.49642 0.0
Co817 Co 0.25935 0.36735 0.45509 0.0
C818 C 0.27337 0.33643 0.47467 0.0
O819 O 0.28327 0.34348 0.48918 0.0
O820 O 0.26348 0.34429 0.46115 0.0
C821 C 0.31346 0.35688 0.52734 0.0
O822 O 0.30914 0.34222 0.52208 0.0
C823 C 0.2508 0.36211 0.40211 0.0
C824 C 0.22994 0.37769 0.39619 0.0
C825 C 0.24069 0.368 0.38332 0.0
N826 N 0.24662 0.36846 0.4248 0.0
N827 N 0.23391 0.3775 0.4213 0.0
C828 C 0.26449 0.35082 0.39873 0.0
H829 H 0.27589 0.35737 0.40087 0.0
H830 H 0.26413 0.34484 0.37976 0.0
H831 H 0.2641 0.34152 0.41377 0.0
C832 C 0.30279 0.3863 0.45767 0.0
N833 N 0.29019 0.37769 0.4658 0.0
N834 N 0.27857 0.37891 0.44898 0.0
C835 C 0.28326 0.38878 0.42996 0.0
C836 C 0.29882 0.39356 0.4346 0.0
C837 C 0.31836 0.38723 0.47155 0.0
H838 H 0.31685 0.39458 0.48909 0.0
H839 H 0.3221 0.37512 0.47757 0.0
H840 H 0.32781 0.39254 0.45936 0.0
O841 O 0.26739 0.37504 0.51467 0.0
O842 O 0.24814 0.37646 0.48531 0.0
H843 H 0.26025 0.39626 0.41646 0.0
H844 H 0.27673 0.40696 0.40256 0.0
C845 C 0.27261 0.39511 0.40928 0.0
H846 H 0.27282 0.38689 0.39267 0.0
H847 H 0.22849 0.38418 0.43573 0.0
O848 O 0.30524 0.36849 0.51889 0.0
C849 C 0.25313 0.37859 0.50822 0.0
Co850 Co 0.3831 0.53382 0.24144 0.0
Co851 Co 0.38377 0.50622 0.20146 0.0
C852 C 0.41377 0.52206 0.22063 0.0
O853 O 0.40613 0.53184 0.23458 0.0
O854 O 0.40653 0.51157 0.20743 0.0
C855 C 0.39007 0.5631 0.26887 0.0
O856 O 0.40464 0.56189 0.2599 0.0
C857 C 0.39134 0.49367 0.15127 0.0
C858 C 0.37309 0.47507 0.14548 0.0
C859 C 0.38514 0.48334 0.13307 0.0
N860 N 0.38299 0.49201 0.17306 0.0
N861 N 0.37237 0.48057 0.16977 0.0
C862 C 0.40472 0.50533 0.14806 0.0
H863 H 0.40028 0.5176 0.15148 0.0
H864 H 0.41039 0.5045 0.12889 0.0
H865 H 0.414 0.5028 0.1626 0.0
C866 C 0.36164 0.54811 0.20257 0.0
N867 N 0.37135 0.53637 0.21074 0.0
N868 N 0.37145 0.52479 0.19374 0.0
C869 C 0.3617 0.52882 0.17413 0.0
C870 C 0.35517 0.54373 0.17907 0.0
C871 C 0.35777 0.56263 0.21804 0.0
H872 H 0.35368 0.55896 0.23741 0.0
H873 H 0.36871 0.5699 0.22045 0.0
H874 H 0.34835 0.56996 0.20892 0.0
O875 O 0.37535 0.51495 0.26094 0.0
O876 O 0.37505 0.49539 0.23222 0.0
H877 H 0.35463 0.50689 0.15658 0.0
H878 H 0.35051 0.52426 0.13716 0.0
C879 C 0.35905 0.51879 0.15076 0.0
H880 H 0.3705 0.51729 0.14058 0.0
H881 H 0.36401 0.4772 0.18359 0.0
O882 O 0.37976 0.55257 0.2633 0.0
C883 C 0.37256 0.5005 0.25492 0.0
Co884 Co 0.21314 0.63545 0.99539 0.0
Co885 Co 0.24017 0.63573 0.95435 0.0
C886 C 0.22611 0.66592 0.9766 0.0
O887 O 0.21608 0.65847 0.99034 0.0
O888 O 0.23604 0.65846 0.96261 0.0
C889 C 0.19105 0.64222 0.03563 0.0
O890 O 0.2009 0.65391 0.04101 0.0
C891 C 0.24884 0.64308 0.90229 0.0
C892 C 0.26937 0.62736 0.89458 0.0
C893 C 0.25875 0.63771 0.88283 0.0
N894 N 0.253 0.63579 0.92423 0.0
N895 N 0.26555 0.6267 0.91972 0.0
C896 C 0.23529 0.65464 0.9002 0.0
H897 H 0.22382 0.64821 0.90242 0.0
H898 H 0.23544 0.66112 0.88164 0.0
H899 H 0.23609 0.66355 0.91578 0.0
C900 C 0.19677 0.61677 0.95478 0.0
N901 N 0.20934 0.62508 0.96376 0.0
N902 N 0.221 0.62445 0.94695 0.0
C903 C 0.21638 0.61523 0.92706 0.0
C904 C 0.2008 0.61031 0.93112 0.0
C905 C 0.18117 0.61537 0.96848 0.0
H906 H 0.17743 0.62726 0.97554 0.0
H907 H 0.17175 0.61047 0.9558 0.0
H908 H 0.18265 0.60745 0.98539 0.0
O909 O 0.23213 0.62596 0.01307 0.0
O910 O 0.25126 0.62547 0.98347 0.0
H911 H 0.22305 0.59799 0.8982 0.0
H912 H 0.22712 0.61837 0.89024 0.0
C913 C 0.22716 0.60957 0.90606 0.0
H914 H 0.23945 0.60813 0.91338 0.0
H915 H 0.27086 0.61935 0.93337 0.0
O916 O 0.19427 0.63276 0.01733 0.0
C917 C 0.24634 0.62255 0.00617 0.0
Co918 Co 0.11718 0.46609 0.74749 0.0
Co919 Co 0.1156 0.49122 0.70351 0.0
C920 C 0.08612 0.47598 0.72554 0.0
O921 O 0.0941 0.46718 0.74064 0.0
O922 O 0.09303 0.48586 0.71078 0.0
C923 C 0.11259 0.43571 0.77088 0.0
O924 O 0.10396 0.43275 0.75038 0.0
C925 C 0.10706 0.49993 0.65159 0.0
C926 C 0.12395 0.51922 0.64217 0.0
C927 C 0.11235 0.50946 0.63159 0.0
N928 N 0.11552 0.50347 0.67271 0.0
N929 N 0.12532 0.5153 0.66719 0.0
C930 C 0.09437 0.48737 0.65083 0.0
H931 H 0.09949 0.47573 0.65668 0.0
H932 H 0.08866 0.48638 0.63172 0.0
H933 H 0.08494 0.49048 0.6648 0.0
C934 C 0.13923 0.45022 0.71045 0.0
N935 N 0.129 0.46191 0.71714 0.0
N936 N 0.12837 0.47253 0.69855 0.0
C937 C 0.13822 0.4679 0.67945 0.0
C938 C 0.14542 0.45362 0.68634 0.0
C939 C 0.1439 0.43671 0.72762 0.0
H940 H 0.1454 0.44105 0.74758 0.0
H941 H 0.1343 0.42763 0.72747 0.0
H942 H 0.15515 0.43104 0.72112 0.0
O943 O 0.12464 0.48621 0.76365 0.0
O944 O 0.12435 0.50413 0.73223 0.0
H945 H 0.14414 0.4892 0.65897 0.0
H946 H 0.14939 0.47115 0.64207 0.0
C947 C 0.14045 0.47679 0.65479 0.0
H948 H 0.12902 0.47704 0.64427 0.0
H949 H 0.13354 0.52009 0.68009 0.0
O950 O 0.11974 0.44899 0.77294 0.0
C951 C 0.1271 0.50033 0.75553 0.0
Co952 Co 0.28653 0.63378 0.49941 0.0
Co953 Co 0.25882 0.63432 0.53927 0.0
C954 C 0.27312 0.66437 0.517 0.0
O955 O 0.28339 0.6568 0.50391 0.0
O956 O 0.26296 0.65704 0.53072 0.0
C957 C 0.31197 0.64157 0.46448 0.0
O958 O 0.30494 0.65548 0.46245 0.0
C959 C 0.249 0.64176 0.59077 0.0
C960 C 0.22797 0.62645 0.59704 0.0
C961 C 0.23842 0.63667 0.60947 0.0
N962 N 0.24536 0.63447 0.56861 0.0
N963 N 0.23254 0.62561 0.57225 0.0
C964 C 0.26265 0.65313 0.59379 0.0
H965 H 0.26273 0.66173 0.57769 0.0
H966 H 0.27405 0.64645 0.59323 0.0
H967 H 0.26182 0.65995 0.61198 0.0
C968 C 0.30205 0.61507 0.54075 0.0
N969 N 0.28977 0.62365 0.53142 0.0
N970 N 0.27787 0.62316 0.54782 0.0
C971 C 0.28205 0.61378 0.56778 0.0
C972 C 0.29757 0.60854 0.56416 0.0
C973 C 0.31775 0.61329 0.52748 0.0
H974 H 0.3163 0.60526 0.51071 0.0
H975 H 0.32179 0.62506 0.52033 0.0
H976 H 0.32696 0.60833 0.5405 0.0
O977 O 0.26792 0.62402 0.48105 0.0
O978 O 0.24837 0.62364 0.50996 0.0
H979 H 0.25865 0.60689 0.58027 0.0
H980 H 0.27463 0.59649 0.59613 0.0
C981 C 0.27082 0.60815 0.5882 0.0
H982 H 0.27065 0.6169 0.6041 0.0
H983 H 0.22747 0.61832 0.55823 0.0
O984 O 0.30582 0.63079 0.47847 0.0
C985 C 0.25366 0.62052 0.48755 0.0
Co986 Co 0.11764 0.53071 0.25372 0.0
Co987 Co 0.11625 0.50342 0.29394 0.0
C988 C 0.0867 0.52043 0.27544 0.0
O989 O 0.09459 0.52983 0.26114 0.0
O990 O 0.09365 0.50968 0.28853 0.0
C991 C 0.11273 0.56092 0.22769 0.0
O992 O 0.09941 0.56218 0.24079 0.0
C993 C 0.10863 0.4917 0.34452 0.0
C994 C 0.12492 0.47124 0.34923 0.0
C995 C 0.11377 0.48045 0.36212 0.0
N996 N 0.11643 0.48932 0.32237 0.0
N997 N 0.12587 0.47684 0.32503 0.0
C998 C 0.09839 0.50598 0.34966 0.0
H999 H 0.10111 0.51566 0.33585 0.0
H1000 H 0.1002 0.51046 0.3695 0.0
H1001 H 0.08569 0.50257 0.34747 0.0
C1002 C 0.14005 0.54435 0.29195 0.0
N1003 N 0.12982 0.53297 0.28409 0.0
N1004 N 0.12944 0.52145 0.30119 0.0
C1005 C 0.13953 0.52513 0.32054 0.0
C1006 C 0.14656 0.53979 0.31534 0.0
C1007 C 0.14426 0.55872 0.27634 0.0
H1008 H 0.14752 0.55498 0.2566 0.0
H1009 H 0.13369 0.56662 0.27496 0.0
H1010 H 0.15435 0.56544 0.28478 0.0
O1011 O 0.12442 0.51144 0.23447 0.0
O1012 O 0.12432 0.49196 0.26329 0.0
H1013 H 0.14496 0.50267 0.33803 0.0
H1014 H 0.15148 0.51964 0.35661 0.0
C1015 C 0.14198 0.51501 0.3439 0.0
H1016 H 0.13083 0.51473 0.3552 0.0
H1017 H 0.13363 0.47274 0.31084 0.0
O1018 O 0.12162 0.54883 0.23084 0.0
C1019 C 0.12677 0.49692 0.2405 0.0
Co1020 Co 0.21265 0.36455 0.99616 0.0
Co1021 Co 0.23978 0.36501 0.03739 0.0
C1022 C 0.22495 0.33443 0.01792 0.0
O1023 O 0.21521 0.34167 0.00333 0.0
O1024 O 0.23501 0.34208 0.03142 0.0
C1025 C 0.18613 0.35617 0.96331 0.0
O1026 O 0.1907 0.34137 0.96673 0.0
C1027 C 0.24881 0.35959 0.09022 0.0
C1028 C 0.26983 0.37505 0.0955 0.0
C1029 C 0.25918 0.36542 0.10871 0.0
N1030 N 0.25277 0.36592 0.06741 0.0
N1031 N 0.26557 0.37487 0.07053 0.0
C1032 C 0.23513 0.34834 0.09398 0.0
H1033 H 0.2353 0.33908 0.07888 0.0
H1034 H 0.22372 0.35493 0.09223 0.0
H1035 H 0.2357 0.34232 0.11291 0.0
C1036 C 0.19666 0.38461 0.03532 0.0
N1037 N 0.20917 0.37601 0.02689 0.0
N1038 N 0.22084 0.37697 0.04367 0.0
C1039 C 0.21626 0.38668 0.06296 0.0
C1040 C 0.20073 0.39161 0.05855 0.0
C1041 C 0.181 0.38565 0.02169 0.0
H1042 H 0.18237 0.39328 0.00444 0.0
H1043 H 0.17732 0.37361 0.01521 0.0
H1044 H 0.17158 0.39071 0.03421 0.0
O1045 O 0.23184 0.37289 0.9778 0.0
O1046 O 0.25114 0.37375 0.00707 0.0
H1047 H 0.23935 0.39371 0.07674 0.0
H1048 H 0.22298 0.40443 0.09095 0.0
C1049 C 0.22697 0.39262 0.08386 0.0
H1050 H 0.22665 0.3842 0.10022 0.0
H1051 H 0.27087 0.38153 0.05592 0.0
O1052 O 0.19396 0.36744 0.97363 0.0
C1053 C 0.2462 0.37603 0.98418 0.0
Co1054 Co 0.38247 0.46149 0.74313 0.0
Co1055 Co 0.38241 0.48647 0.78721 0.0
C1056 C 0.41281 0.47295 0.76521 0.0
O1057 O 0.40543 0.46373 0.75 0.0
O1058 O 0.40527 0.48239 0.77991 0.0
C1059 C 0.38924 0.43205 0.71807 0.0
O1060 O 0.39889 0.4297 0.73756 0.0
C1061 C 0.38897 0.49298 0.84038 0.0
C1062 C 0.37408 0.51398 0.84909 0.0
C1063 C 0.38388 0.50264 0.8603 0.0
N1064 N 0.38208 0.498 0.81859 0.0
N1065 N 0.37346 0.51078 0.82372 0.0
C1066 C 0.40007 0.479 0.8418 0.0
H1067 H 0.40948 0.48024 0.82707 0.0
H1068 H 0.39341 0.46788 0.83764 0.0
H1069 H 0.40595 0.47808 0.86079 0.0
C1070 C 0.36171 0.44393 0.7803 0.0
N1071 N 0.37093 0.4564 0.77339 0.0
N1072 N 0.37049 0.46724 0.79163 0.0
C1073 C 0.36072 0.46212 0.81049 0.0
C1074 C 0.35508 0.4471 0.80421 0.0
C1075 C 0.35958 0.42923 0.76445 0.0
H1076 H 0.35577 0.43258 0.74478 0.0
H1077 H 0.37116 0.42296 0.76294 0.0
H1078 H 0.35075 0.42096 0.77299 0.0
O1079 O 0.37393 0.48145 0.72744 0.0
O1080 O 0.3731 0.49925 0.75903 0.0
H1081 H 0.35428 0.48466 0.82701 0.0
H1082 H 0.34362 0.46792 0.84009 0.0
C1083 C 0.35534 0.47202 0.83277 0.0
H1084 H 0.3641 0.47096 0.84857 0.0
H1085 H 0.36655 0.51682 0.81021 0.0
O1086 O 0.3807 0.44455 0.71729 0.0
C1087 C 0.37066 0.4954 0.73567 0.0
C1088 C 0.13594 0.00811 0.19577 0.0
C1089 C 0.13367 0.01296 0.22138 0.0
C1090 C 0.14202 0.01867 0.1775 0.0
C1091 C 0.16595 0.05518 0.1717 0.0
H1092 H 0.14899 0.05645 0.10242 0.0
C1093 C 0.18813 0.10138 0.09877 0.0
C1094 C 0.19107 0.09604 0.07371 0.0
C1095 C 0.17986 0.09181 0.11616 0.0
C1096 C 0.15396 0.05613 0.12161 0.0
H1097 H 0.13588 0.03287 0.24771 0.0
H1098 H 0.14645 0.05132 0.21575 0.0
H1099 H 0.13703 0.03869 0.1342 0.0
H1100 H 0.1876 0.07671 0.04685 0.0
H1101 H 0.17318 0.05976 0.07734 0.0
H1102 H 0.18301 0.07239 0.15916 0.0
C1103 C 0.14365 0.03926 0.20991 0.0
C1104 C 0.14709 0.04597 0.13983 0.0
C1105 C 0.13751 0.0287 0.2282 0.0
C1106 C 0.18525 0.08113 0.06602 0.0
C1107 C 0.17702 0.07147 0.08349 0.0
C1108 C 0.17283 0.06529 0.1535 0.0
C1109 C 0.14602 0.03434 0.18437 0.0
C1110 C 0.15302 0.04538 0.16508 0.0
C1111 C 0.17449 0.07659 0.10893 0.0
C1112 C 0.16692 0.06591 0.12823 0.0
H1113 H 0.13312 0.99608 0.18979 0.0
H1114 H 0.14388 0.01444 0.15808 0.0
H1115 H 0.171 0.0548 0.19083 0.0
H1116 H 0.19248 0.11289 0.10504 0.0
H1117 H 0.17785 0.09627 0.1354 0.0
C1118 C 0.17156 0.9554 0.33746 0.0
C1119 C 0.1575 0.948 0.32908 0.0
C1120 C 0.18204 0.9474 0.35382 0.0
C1121 C 0.19475 0.90798 0.37577 0.0
H1122 H 0.2079 0.93026 0.43753 0.0
C1123 C 0.24474 0.88572 0.44374 0.0
C1124 C 0.24128 0.88595 0.47017 0.0
C1125 C 0.23435 0.89276 0.42608 0.0
C1126 C 0.20428 0.92388 0.42041 0.0
H1127 H 0.14366 0.92626 0.33008 0.0
H1128 H 0.16225 0.91203 0.3583 0.0
H1129 H 0.19036 0.94351 0.40672 0.0
H1130 H 0.22419 0.89379 0.49876 0.0
H1131 H 0.20618 0.90631 0.46788 0.0
H1132 H 0.2088 0.88839 0.38942 0.0
C1133 C 0.16505 0.92408 0.35244 0.0
C1134 C 0.19437 0.9315 0.4027 0.0
C1135 C 0.15444 0.93219 0.33634 0.0
C1136 C 0.22719 0.89337 0.47854 0.0
C1137 C 0.21692 0.90061 0.4609 0.0
C1138 C 0.20487 0.90044 0.39332 0.0
C1139 C 0.1788 0.93173 0.36171 0.0
C1140 C 0.18947 0.92362 0.38024 0.0
C1141 C 0.22041 0.90037 0.43451 0.0
C1142 C 0.20968 0.9083 0.41586 0.0
H1143 H 0.17431 0.96748 0.33166 0.0
H1144 H 0.19268 0.95347 0.36036 0.0
H1145 H 0.1912 0.90167 0.35855 0.0
H1146 H 0.25547 0.88007 0.43664 0.0
H1147 H 0.23738 0.89251 0.40586 0.0
C1148 C 0.30032 0.91851 0.58651 0.0
C1149 C 0.30714 0.90409 0.57856 0.0
C1150 C 0.30859 0.92868 0.60303 0.0
C1151 C 0.34154 0.92889 0.65041 0.0
H1152 H 0.33688 0.97467 0.64432 0.0
C1153 C 0.36215 0.97231 0.73021 0.0
C1154 C 0.36855 0.98705 0.72265 0.0
C1155 C 0.35544 0.96201 0.71204 0.0
C1156 C 0.33849 0.96192 0.64618 0.0
H1157 H 0.32809 0.88916 0.58067 0.0
H1158 H 0.34286 0.90714 0.60904 0.0
H1159 H 0.32443 0.95738 0.61275 0.0
H1160 H 0.37328 0.00232 0.68988 0.0
H1161 H 0.36196 0.9843 0.65828 0.0
H1162 H 0.35595 0.93349 0.68351 0.0
C1163 C 0.33095 0.91045 0.60309 0.0
C1164 C 0.33114 0.95198 0.62822 0.0
C1165 C 0.3226 0.90022 0.58666 0.0
C1166 C 0.36833 0.99113 0.69645 0.0
C1167 C 0.36174 0.98081 0.6783 0.0
C1168 C 0.34897 0.93886 0.66831 0.0
C1169 C 0.32396 0.92473 0.61174 0.0
C1170 C 0.33245 0.93532 0.6302 0.0
C1171 C 0.35506 0.96618 0.68585 0.0
C1172 C 0.34747 0.95551 0.66652 0.0
H1173 H 0.28845 0.9218 0.58027 0.0
H1174 H 0.30273 0.93946 0.60946 0.0
H1175 H 0.34267 0.91613 0.65274 0.0
H1176 H 0.36207 0.96881 0.75024 0.0
H1177 H 0.35023 0.95095 0.71862 0.0
C1178 C 0.33471 0.0618 0.81935 0.0
C1179 C 0.34863 0.05493 0.82932 0.0
C1180 C 0.32414 0.06991 0.83555 0.0
C1181 C 0.31302 0.07275 0.90431 0.0
H1182 H 0.29022 0.11064 0.88279 0.0
C1183 C 0.27553 0.1099 0.975 0.0
C1184 C 0.26041 0.11488 0.96659 0.0
C1185 C 0.2864 0.10319 0.95779 0.0
C1186 C 0.29641 0.09999 0.88898 0.0
H1187 H 0.36282 0.05158 0.86359 0.0
H1188 H 0.34463 0.06596 0.8918 0.0
H1189 H 0.30918 0.09808 0.85348 0.0
H1190 H 0.24499 0.1169 0.93327 0.0
H1191 H 0.26399 0.10517 0.90327 0.0
H1192 H 0.30034 0.07469 0.93981 0.0
C1193 C 0.34158 0.06481 0.87167 0.0
C1194 C 0.30726 0.09278 0.87218 0.0
C1195 C 0.35206 0.05666 0.85553 0.0
C1196 C 0.25652 0.11319 0.94044 0.0
C1197 C 0.26744 0.10655 0.92319 0.0
C1198 C 0.30226 0.08 0.9211 0.0
C1199 C 0.32735 0.07132 0.862 0.0
C1200 C 0.31574 0.07909 0.87967 0.0
C1201 C 0.28245 0.10135 0.93172 0.0
C1202 C 0.29386 0.09372 0.91368 0.0
H1203 H 0.33175 0.06045 0.79922 0.0
H1204 H 0.31322 0.07462 0.82747 0.0
H1205 H 0.31904 0.06202 0.91055 0.0
H1206 H 0.27896 0.11105 0.99497 0.0
H1207 H 0.29795 0.09948 0.9649 0.0
C1208 C 0.18634 0.91986 0.92649 0.0
C1209 C 0.19305 0.90599 0.91605 0.0
C1210 C 0.17835 0.93073 0.91067 0.0
C1211 C 0.15832 0.93439 0.8478 0.0
H1212 H 0.16801 0.97935 0.85449 0.0
C1213 C 0.13935 0.98005 0.77095 0.0
C1214 C 0.13436 0.99522 0.77908 0.0
C1215 C 0.14591 0.96924 0.78842 0.0
C1216 C 0.16497 0.96687 0.85258 0.0
H1217 H 0.19659 0.89241 0.8812 0.0
H1218 H 0.18264 0.91134 0.8535 0.0
H1219 H 0.18015 0.96027 0.88391 0.0
H1220 H 0.13227 0.01084 0.8121 0.0
H1221 H 0.14344 0.99187 0.84263 0.0
H1222 H 0.1431 0.94092 0.81658 0.0
C1223 C 0.18343 0.91382 0.87388 0.0
C1224 C 0.17195 0.95594 0.86945 0.0
C1225 C 0.19149 0.90304 0.88966 0.0
C1226 C 0.13605 0.99929 0.80514 0.0
C1227 C 0.14254 0.98843 0.82264 0.0
C1228 C 0.15126 0.94532 0.83104 0.0
C1229 C 0.17686 0.92785 0.88416 0.0
C1230 C 0.16882 0.93956 0.86709 0.0
C1231 C 0.14757 0.97326 0.81451 0.0
C1232 C 0.15461 0.9617 0.83303 0.0
H1233 H 0.18754 0.92245 0.94677 0.0
H1234 H 0.17333 0.94138 0.91917 0.0
H1235 H 0.15548 0.92187 0.84573 0.0
H1236 H 0.13833 0.97652 0.75101 0.0
H1237 H 0.1499 0.95778 0.78134 0.0
C1238 C 0.27319 0.89216 0.0183 0.0
C1239 C 0.25799 0.88702 0.02603 0.0
C1240 C 0.28379 0.89875 0.03604 0.0
C1241 C 0.28555 0.91767 0.10029 0.0
H1242 H 0.33066 0.90843 0.09417 0.0
C1243 C 0.33213 0.93926 0.17478 0.0
C1244 C 0.34604 0.94601 0.16452 0.0
C1245 C 0.32134 0.93129 0.15883 0.0
C1246 C 0.31811 0.9112 0.09603 0.0
H1247 H 0.24206 0.88474 0.05865 0.0
H1248 H 0.26068 0.89599 0.0897 0.0
H1249 H 0.31185 0.89592 0.06477 0.0
H1250 H 0.35976 0.94965 0.12984 0.0
H1251 H 0.34095 0.93571 0.10188 0.0
H1252 H 0.29188 0.93292 0.13167 0.0
C1253 C 0.26431 0.89516 0.06979 0.0
C1254 C 0.30732 0.90406 0.07914 0.0
C1255 C 0.25365 0.88863 0.05199 0.0
C1256 C 0.34909 0.94452 0.13815 0.0
C1257 C 0.33839 0.93646 0.12223 0.0
C1258 C 0.29635 0.92474 0.1173 0.0
C1259 C 0.27953 0.90029 0.06204 0.0
C1260 C 0.29091 0.90734 0.08084 0.0
C1261 C 0.32434 0.92983 0.13235 0.0
C1262 C 0.31277 0.92171 0.11517 0.0
H1263 H 0.27692 0.89121 -0.00156 0.0
H1264 H 0.29528 0.90284 0.02925 0.0
H1265 H 0.27304 0.92064 0.10198 0.0
H1266 H 0.32948 0.9404 0.19506 0.0
H1267 H 0.31068 0.92622 0.16721 0.0
C1268 C 0.31052 0.08116 0.42644 0.0
C1269 C 0.30366 0.09493 0.41588 0.0
C1270 C 0.31823 0.07009 0.41061 0.0
C1271 C 0.32038 0.0575 0.34237 0.0
H1272 H 0.35913 0.03601 0.36345 0.0
C1273 C 0.35951 0.02329 0.27084 0.0
C1274 C 0.36514 0.00817 0.27818 0.0
C1275 C 0.35209 0.03325 0.28864 0.0
C1276 C 0.34822 0.04181 0.35744 0.0
H1277 H 0.29981 0.10824 0.38085 0.0
H1278 H 0.31349 0.0892 0.35326 0.0
H1279 H 0.34622 0.05479 0.39272 0.0
H1280 H 0.3676 0.99184 0.31023 0.0
H1281 H 0.35467 0.0094 0.34146 0.0
H1282 H 0.32252 0.04476 0.30697 0.0
C1283 C 0.31265 0.08665 0.3736 0.0
C1284 C 0.34081 0.05255 0.3742 0.0
C1285 C 0.30489 0.09762 0.38938 0.0
C1286 C 0.36338 0.00338 0.30392 0.0
C1287 C 0.35604 0.01346 0.32183 0.0
C1288 C 0.32783 0.04688 0.32562 0.0
C1289 C 0.31924 0.07263 0.38393 0.0
C1290 C 0.32689 0.06068 0.36673 0.0
C1291 C 0.35019 0.02843 0.31429 0.0
C1292 C 0.34193 0.03905 0.33283 0.0
H1293 H 0.30955 0.07876 0.44682 0.0
H1294 H 0.32303 0.05937 0.41919 0.0
H1295 H 0.30946 0.06321 0.33619 0.0
H1296 H 0.36067 0.02741 0.25122 0.0
H1297 H 0.34791 0.04481 0.28232 0.0
C1298 C 0.15288 0.07579 0.66435 0.0
C1299 C 0.15561 0.06002 0.67217 0.0
C1300 C 0.16374 0.0835 0.64815 0.0
C1301 C 0.19276 0.07446 0.59821 0.0
H1302 H 0.20812 0.11757 0.60839 0.0
C1303 C 0.22535 0.10983 0.51898 0.0
C1304 C 0.23974 0.11713 0.52624 0.0
C1305 C 0.21518 0.10337 0.53751 0.0
C1306 C 0.20393 0.10551 0.60537 0.0
H1307 H 0.17216 0.04027 0.67067 0.0
H1308 H 0.19095 0.05358 0.64188 0.0
H1309 H 0.19045 0.10542 0.64042 0.0
H1310 H 0.25453 0.12368 0.55876 0.0
H1311 H 0.23658 0.11258 0.59113 0.0
H1312 H 0.20604 0.07456 0.5631 0.0
C1313 C 0.18039 0.05993 0.64803 0.0
C1314 C 0.19377 0.09861 0.62358 0.0
C1315 C 0.16966 0.05233 0.66445 0.0
C1316 C 0.24357 0.11808 0.5525 0.0
C1317 C 0.23326 0.11181 0.57106 0.0
C1318 C 0.20269 0.08143 0.57985 0.0
C1319 C 0.17741 0.0755 0.63936 0.0
C1320 C 0.18816 0.08298 0.62022 0.0
C1321 C 0.21904 0.10427 0.56372 0.0
C1322 C 0.20841 0.09701 0.58326 0.0
H1323 H 0.14211 0.08194 0.6701 0.0
H1324 H 0.16115 0.09549 0.6417 0.0
H1325 H 0.18849 0.06244 0.59502 0.0
H1326 H 0.22204 0.10889 0.49893 0.0
H1327 H 0.20422 0.09772 0.53133 0.0
C1328 C 0.86166 0.99552 0.79886 0.0
C1329 C 0.86381 0.99129 0.77294 0.0
C1330 C 0.85466 0.98486 0.81614 0.0
C1331 C 0.828 0.95019 0.81864 0.0
H1332 H 0.84572 0.94389 0.88666 0.0
C1333 C 0.80448 0.90102 0.88561 0.0
C1334 C 0.80303 0.90459 0.91181 0.0
C1335 C 0.8124 0.91146 0.86908 0.0
C1336 C 0.8405 0.94565 0.86786 0.0
H1337 H 0.86031 0.97246 0.74496 0.0
H1338 H 0.84805 0.95392 0.77511 0.0
H1339 H 0.8585 0.96247 0.85705 0.0
H1340 H 0.80862 0.92176 0.94144 0.0
H1341 H 0.82233 0.94021 0.91252 0.0
H1342 H 0.80987 0.93361 0.82942 0.0
C1343 C 0.85173 0.96552 0.782 0.0
C1344 C 0.84785 0.95627 0.85088 0.0
C1345 C 0.85884 0.97613 0.76476 0.0
C1346 C 0.80978 0.91869 0.92132 0.0
C1347 C 0.81763 0.92921 0.90475 0.0
C1348 C 0.8206 0.93965 0.83564 0.0
C1349 C 0.84953 0.96978 0.80786 0.0
C1350 C 0.84171 0.9586 0.82604 0.0
C1351 C 0.81893 0.92578 0.87835 0.0
C1352 C 0.82679 0.93717 0.86043 0.0
H1353 H 0.86536 0.00709 0.80585 0.0
H1354 H 0.853 0.98854 0.83589 0.0
H1355 H 0.82282 0.95193 0.79979 0.0
H1356 H 0.79947 0.89013 0.8779 0.0
H1357 H 0.81343 0.90825 0.849 0.0
C1358 C 0.75312 0.11747 0.55441 0.0
C1359 C 0.75669 0.11769 0.52801 0.0
C1360 C 0.76362 0.11039 0.57192 0.0
C1361 C 0.79457 0.07985 0.57624 0.0
H1362 H 0.80734 0.10122 0.63901 0.0
C1363 C 0.82952 0.04787 0.65646 0.0
C1364 C 0.84321 0.05575 0.66532 0.0
C1365 C 0.81859 0.05574 0.6407 0.0
C1366 C 0.80388 0.09514 0.62153 0.0
H1367 H 0.77411 0.11064 0.49938 0.0
H1368 H 0.79224 0.09812 0.52991 0.0
H1369 H 0.78901 0.11449 0.60921 0.0
H1370 H 0.85594 0.07817 0.66558 0.0
H1371 H 0.83658 0.09213 0.63837 0.0
H1372 H 0.80933 0.06049 0.58851 0.0
C1373 C 0.78135 0.10346 0.53702 0.0
C1374 C 0.79333 0.10267 0.6046 0.0
C1375 C 0.77099 0.11072 0.51956 0.0
C1376 C 0.84546 0.07185 0.65897 0.0
C1377 C 0.8344 0.07981 0.64346 0.0
C1378 C 0.80491 0.07224 0.59332 0.0
C1379 C 0.77776 0.10318 0.56336 0.0
C1380 C 0.78866 0.09514 0.5817 0.0
C1381 C 0.82097 0.07175 0.63385 0.0
C1382 C 0.80974 0.07982 0.61608 0.0
H1383 H 0.74222 0.12276 0.56156 0.0
H1384 H 0.76051 0.11026 0.59211 0.0
H1385 H 0.79107 0.07371 0.55883 0.0
H1386 H 0.82736 0.03555 0.66157 0.0
H1387 H 0.80823 0.0493 0.63389 0.0
C1388 C 0.70207 0.08114 0.41266 0.0
C1389 C 0.69388 0.0949 0.42041 0.0
C1390 C 0.69462 0.06982 0.3971 0.0
C1391 C 0.65583 0.05451 0.37569 0.0
H1392 H 0.67903 0.04163 0.3147 0.0
C1393 C 0.63519 0.00396 0.3067 0.0
C1394 C 0.63564 0.00772 0.28038 0.0
C1395 C 0.64192 0.01427 0.32485 0.0
C1396 C 0.67241 0.04512 0.33164 0.0
H1397 H 0.67131 0.10732 0.41909 0.0
H1398 H 0.65807 0.08731 0.39216 0.0
H1399 H 0.69133 0.06003 0.34511 0.0
H1400 H 0.64357 0.02526 0.25254 0.0
H1401 H 0.65547 0.04305 0.28416 0.0
H1402 H 0.63688 0.03955 0.36209 0.0
C1403 C 0.67031 0.08536 0.39798 0.0
C1404 C 0.67949 0.05555 0.34914 0.0
C1405 C 0.67786 0.09679 0.41332 0.0
C1406 C 0.64298 0.02199 0.27264 0.0
C1407 C 0.64988 0.03216 0.29073 0.0
C1408 C 0.64881 0.04388 0.35833 0.0
C1409 C 0.67873 0.07191 0.38931 0.0
C1410 C 0.67125 0.06044 0.37126 0.0
C1411 C 0.64944 0.02841 0.317 0.0
C1412 C 0.65699 0.0392 0.33601 0.0
H1413 H 0.71435 0.07926 0.41833 0.0
H1414 H 0.70132 0.05945 0.39103 0.0
H1415 H 0.64924 0.05803 0.39266 0.0
H1416 H 0.62959 0.99308 0.3133 0.0
H1417 H 0.64149 0.01105 0.34498 0.0
C1418 C 0.74326 0.8858 0.04939 0.0
C1419 C 0.73853 0.88446 0.02356 0.0
C1420 C 0.73286 0.89201 0.06782 0.0
C1421 C 0.69007 0.90082 0.07955 0.0
H1422 H 0.70677 0.92895 0.13213 0.0
C1423 C 0.65018 0.94141 0.14168 0.0
C1424 C 0.65386 0.94282 0.16786 0.0
C1425 C 0.66029 0.93307 0.12517 0.0
C1426 C 0.70196 0.92095 0.11778 0.0
H1427 H 0.71913 0.88871 0.9969 0.0
H1428 H 0.70114 0.89985 0.02889 0.0
H1429 H 0.72488 0.91704 0.10098 0.0
H1430 H 0.67083 0.93662 0.1975 0.0
H1431 H 0.68863 0.92195 0.16857 0.0
H1432 H 0.66709 0.90508 0.09607 0.0
C1433 C 0.71278 0.89579 0.03504 0.0
C1434 C 0.71233 0.9141 0.09991 0.0
C1435 C 0.72314 0.88949 0.01663 0.0
C1436 C 0.66771 0.93557 0.17739 0.0
C1437 C 0.67793 0.92732 0.16081 0.0
C1438 C 0.67969 0.90776 0.09732 0.0
C1439 C 0.7175 0.89714 0.06089 0.0
C1440 C 0.70651 0.90403 0.08043 0.0
C1441 C 0.67437 0.92607 0.13448 0.0
C1442 C 0.6855 0.91799 0.11652 0.0
H1443 H 0.75499 0.88196 0.05547 0.0
H1444 H 0.73684 0.89264 0.08758 0.0
H1445 H 0.68519 0.89289 0.06517 0.0
H1446 H 0.63953 0.94691 0.13394 0.0
H1447 H 0.6573 0.93247 0.10496 0.0
C1448 C 0.80805 0.10112 0.10734 0.0
C1449 C 0.8069 0.09803 0.08094 0.0
C1450 C 0.81586 0.09045 0.1236 0.0
C1451 C 0.84399 0.05625 0.12434 0.0
H1452 H 0.82526 0.04892 0.1914 0.0
C1453 C 0.86453 0.0058 0.1932 0.0
C1454 C 0.86624 0.00994 0.21924 0.0
C1455 C 0.85769 0.01648 0.17575 0.0
C1456 C 0.83072 0.05094 0.17283 0.0
H1457 H 0.81302 0.08148 0.05067 0.0
H1458 H 0.82655 0.0626 0.07911 0.0
H1459 H 0.81272 0.06761 0.16195 0.0
H1460 H 0.86214 0.02865 0.24724 0.0
H1461 H 0.8502 0.04719 0.21685 0.0
H1462 H 0.86188 0.03932 0.13529 0.0
C1463 C 0.82168 0.07342 0.08726 0.0
C1464 C 0.82356 0.0617 0.15594 0.0
C1465 C 0.81393 0.08419 0.07095 0.0
C1466 C 0.86101 0.02504 0.22736 0.0
C1467 C 0.85407 0.03564 0.20997 0.0
C1468 C 0.8511 0.04538 0.14122 0.0
C1469 C 0.82259 0.07634 0.11386 0.0
C1470 C 0.83016 0.06461 0.13155 0.0
C1471 C 0.85229 0.03148 0.18399 0.0
C1472 C 0.84461 0.04271 0.16572 0.0
H1473 H 0.80281 0.1118 0.11542 0.0
H1474 H 0.81661 0.09329 0.14385 0.0
H1475 H 0.84951 0.05831 0.10584 0.0
H1476 H 0.86845 0.99428 0.18626 0.0
H1477 H 0.85637 0.01289 0.15589 0.0
C1478 C 0.67127 0.06052 0.82037 0.0
C1479 C 0.65752 0.05336 0.83044 0.0
C1480 C 0.68162 0.06902 0.83642 0.0
C1481 C 0.68352 0.08966 0.89902 0.0
H1482 H 0.72894 0.08175 0.89445 0.0
C1483 C 0.72702 0.11068 0.97774 0.0
C1484 C 0.74218 0.11613 0.97034 0.0
C1485 C 0.71677 0.10371 0.95981 0.0
C1486 C 0.71632 0.08431 0.89576 0.0
H1487 H 0.64361 0.04957 0.86489 0.0
H1488 H 0.66161 0.06439 0.89296 0.0
H1489 H 0.71086 0.0687 0.86439 0.0
H1490 H 0.75836 0.11862 0.93808 0.0
H1491 H 0.74036 0.10674 0.90673 0.0
H1492 H 0.68889 0.10529 0.93027 0.0
C1493 C 0.66441 0.06355 0.8727 0.0
C1494 C 0.70596 0.0768 0.87853 0.0
C1495 C 0.65417 0.05498 0.8567 0.0
C1496 C 0.7468 0.11449 0.94451 0.0
C1497 C 0.7365 0.10759 0.92653 0.0
C1498 C 0.69387 0.09724 0.91614 0.0
C1499 C 0.67831 0.0706 0.8628 0.0
C1500 C 0.68942 0.07926 0.88014 0.0
C1501 C 0.72135 0.10209 0.93395 0.0
C1502 C 0.7104 0.09453 0.91494 0.0
H1503 H 0.67416 0.0593 0.80019 0.0
H1504 H 0.69218 0.0744 0.82819 0.0
H1505 H 0.67086 0.092 0.9005 0.0
H1506 H 0.72308 0.11164 -0.00251 0.0
H1507 H 0.70532 0.09936 0.96636 0.0
C1508 C 0.63939 0.97103 0.72722 0.0
C1509 C 0.63534 0.98684 0.72117 0.0
C1510 C 0.64491 0.96066 0.70813 0.0
C1511 C 0.66322 0.96053 0.64337 0.0
H1512 H 0.65025 0.91621 0.64299 0.0
C1513 C 0.68248 0.91747 0.5625 0.0
C1514 C 0.68816 0.90263 0.57079 0.0
C1515 C 0.67452 0.92757 0.57965 0.0
C1516 C 0.65405 0.92854 0.64291 0.0
H1517 H 0.6338 0.00406 0.69012 0.0
H1518 H 0.64321 0.98598 0.657 0.0
H1519 H 0.63964 0.93419 0.6756 0.0
H1520 H 0.68977 0.88645 0.60303 0.0
H1521 H 0.67593 0.90401 0.63301 0.0
H1522 H 0.67772 0.95487 0.61082 0.0
C1523 C 0.64237 0.98164 0.67653 0.0
C1524 C 0.64801 0.93884 0.66166 0.0
C1525 C 0.63688 0.99199 0.69557 0.0
C1526 C 0.6854 0.89784 0.59621 0.0
C1527 C 0.67741 0.90786 0.6133 0.0
C1528 C 0.66924 0.95025 0.62461 0.0
C1529 C 0.6465 0.96585 0.68255 0.0
C1530 C 0.65261 0.95494 0.66225 0.0
C1531 C 0.67209 0.92296 0.60537 0.0
C1532 C 0.66483 0.9341 0.62427 0.0
H1533 H 0.63838 0.96666 0.74672 0.0
H1534 H 0.64818 0.94864 0.71351 0.0
H1535 H 0.66722 0.9728 0.64345 0.0
H1536 H 0.68468 0.92149 0.54305 0.0
H1537 H 0.67046 0.93907 0.57288 0.0
C1538 C 0.77147 0.8926 0.47367 0.0
C1539 C 0.75749 0.88527 0.46464 0.0
C1540 C 0.78221 0.8996 0.45651 0.0
C1541 C 0.79567 0.89902 0.38954 0.0
H1542 H 0.81066 0.94183 0.40374 0.0
C1543 C 0.84748 0.92997 0.33455 0.0
C1544 C 0.84482 0.94585 0.32731 0.0
C1545 C 0.83654 0.92203 0.35029 0.0
C1546 C 0.80653 0.92989 0.39949 0.0
H1547 H 0.74399 0.8793 0.43042 0.0
H1548 H 0.76288 0.89135 0.40048 0.0
H1549 H 0.79228 0.9289 0.43357 0.0
H1550 H 0.8284 0.96567 0.32966 0.0
H1551 H 0.80944 0.95195 0.35768 0.0
H1552 H 0.81003 0.90002 0.35549 0.0
C1553 C 0.76547 0.8917 0.42086 0.0
C1554 C 0.79613 0.92245 0.41666 0.0
C1555 C 0.75462 0.88489 0.43803 0.0
C1556 C 0.83085 0.95352 0.33543 0.0
C1557 C 0.82003 0.94568 0.35141 0.0
C1558 C 0.80627 0.90639 0.37253 0.0
C1559 C 0.77931 0.89923 0.42994 0.0
C1560 C 0.79054 0.90697 0.41182 0.0
C1561 C 0.82284 0.92991 0.35923 0.0
C1562 C 0.81173 0.92194 0.37727 0.0
H1563 H 0.77405 0.89313 0.49403 0.0
H1564 H 0.79285 0.90522 0.46403 0.0
H1565 H 0.79161 0.88704 0.38543 0.0
H1566 H 0.8582 0.92383 0.32851 0.0
H1567 H 0.83903 0.90989 0.35612 0.0
C1568 C 0.63472 0.50358 0.68992 0.0
C1569 C 0.63462 0.50687 0.71641 0.0
C1570 C 0.64179 0.51421 0.67263 0.0
C1571 C 0.67239 0.54508 0.66854 0.0
H1572 H 0.65052 0.55848 0.60654 0.0
C1573 C 0.70381 0.58028 0.58799 0.0
C1574 C 0.69597 0.59411 0.57966 0.0
C1575 C 0.69602 0.56932 0.60382 0.0
C1576 C 0.65674 0.55484 0.6238 0.0
H1577 H 0.64191 0.52391 0.74546 0.0
H1578 H 0.65444 0.54229 0.71528 0.0
H1579 H 0.63741 0.53999 0.63625 0.0
H1580 H 0.67371 0.6071 0.5804 0.0
H1581 H 0.65987 0.58769 0.60768 0.0
H1582 H 0.69173 0.55983 0.6561 0.0
C1583 C 0.649 0.53151 0.70794 0.0
C1584 C 0.6493 0.5442 0.64068 0.0
C1585 C 0.64175 0.52101 0.72519 0.0
C1586 C 0.67999 0.5965 0.58659 0.0
C1587 C 0.6721 0.58542 0.60215 0.0
C1588 C 0.67991 0.55552 0.6515 0.0
C1589 C 0.6491 0.52822 0.68149 0.0
C1590 C 0.65702 0.53929 0.6633 0.0
C1591 C 0.68013 0.57184 0.61124 0.0
C1592 C 0.67214 0.56056 0.62901 0.0
H1593 H 0.6293 0.49281 0.68251 0.0
H1594 H 0.64178 0.51133 0.65235 0.0
H1595 H 0.67866 0.54141 0.68573 0.0
H1596 H 0.71605 0.57802 0.58246 0.0
H1597 H 0.70242 0.55884 0.61023 0.0
C1598 C 0.66875 0.44989 0.83137 0.0
C1599 C 0.6547 0.44223 0.82357 0.0
C1600 C 0.67939 0.44231 0.84797 0.0
C1601 C 0.69268 0.40364 0.87252 0.0
H1602 H 0.70538 0.42781 0.93266 0.0
C1603 C 0.74349 0.38456 0.94174 0.0
C1604 C 0.74018 0.38556 0.96819 0.0
C1605 C 0.73279 0.39071 0.92367 0.0
C1606 C 0.70189 0.4209 0.91602 0.0
H1607 H 0.64113 0.42036 0.8257 0.0
H1608 H 0.66003 0.40683 0.85438 0.0
H1609 H 0.68755 0.43984 0.90104 0.0
H1610 H 0.723 0.39382 0.99632 0.0
H1611 H 0.70449 0.40482 0.96473 0.0
H1612 H 0.7072 0.38475 0.88746 0.0
C1613 C 0.66268 0.41879 0.84788 0.0
C1614 C 0.6918 0.42782 0.89783 0.0
C1615 C 0.6519 0.4265 0.8315 0.0
C1616 C 0.72591 0.39284 0.97612 0.0
C1617 C 0.71534 0.39919 0.95805 0.0
C1618 C 0.70299 0.39679 0.89056 0.0
C1619 C 0.67634 0.42678 0.85674 0.0
C1620 C 0.68709 0.41928 0.8759 0.0
C1621 C 0.71868 0.39821 0.93165 0.0
C1622 C 0.70766 0.40534 0.91253 0.0
H1623 H 0.67131 0.46192 0.82508 0.0
H1624 H 0.68997 0.44864 0.85414 0.0
H1625 H 0.68927 0.39682 0.85575 0.0
H1626 H 0.75434 0.37898 0.93496 0.0
H1627 H 0.73573 0.38989 0.90346 0.0
C1628 C 0.85918 0.47659 0.22634 0.0
C1629 C 0.86675 0.49084 0.21913 0.0
C1630 C 0.85225 0.46672 0.20782 0.0
C1631 C 0.8534 0.45575 0.13987 0.0
H1632 H 0.80991 0.44169 0.15096 0.0
C1633 C 0.82172 0.40551 0.08181 0.0
C1634 C 0.80602 0.40871 0.0741 0.0
C1635 C 0.82986 0.41619 0.09778 0.0
C1636 C 0.82204 0.44558 0.14756 0.0
H1637 H 0.87331 0.5057 0.1867 0.0
H1638 H 0.86144 0.48824 0.15432 0.0
H1639 H 0.82283 0.45878 0.18273 0.0
H1640 H 0.78683 0.42592 0.07553 0.0
H1641 H 0.80087 0.4444 0.10398 0.0
H1642 H 0.85263 0.4423 0.10481 0.0
C1643 C 0.8608 0.48481 0.17435 0.0
C1644 C 0.82946 0.45524 0.16582 0.0
C1645 C 0.86752 0.49483 0.19291 0.0
C1646 C 0.79883 0.42305 0.08168 0.0
C1647 C 0.80685 0.4336 0.0979 0.0
C1648 C 0.84605 0.44584 0.12176 0.0
C1649 C 0.85297 0.47074 0.18166 0.0
C1650 C 0.8452 0.46045 0.16216 0.0
C1651 C 0.82235 0.43016 0.10645 0.0
C1652 C 0.83027 0.44072 0.1254 0.0
H1653 H 0.85835 0.47317 0.24635 0.0
H1654 H 0.84638 0.45587 0.21396 0.0
H1655 H 0.86557 0.45955 0.13665 0.0
H1656 H 0.82749 0.39451 0.07617 0.0
H1657 H 0.84178 0.41323 0.10414 0.0
C1658 C 0.77395 0.60741 0.47986 0.0
C1659 C 0.75973 0.61453 0.47133 0.0
C1660 C 0.78432 0.60015 0.46241 0.0
C1661 C 0.79646 0.5998 0.39488 0.0
H1662 H 0.81175 0.55716 0.40961 0.0
C1663 C 0.84761 0.5685 0.33889 0.0
C1664 C 0.84482 0.55261 0.33179 0.0
C1665 C 0.83689 0.5765 0.35494 0.0
C1666 C 0.80753 0.56905 0.40522 0.0
H1667 H 0.74544 0.61984 0.43767 0.0
H1668 H 0.76373 0.60737 0.40719 0.0
H1669 H 0.79384 0.5704 0.43988 0.0
H1670 H 0.82838 0.53284 0.33485 0.0
H1671 H 0.80985 0.54665 0.3635 0.0
H1672 H 0.8103 0.59847 0.3603 0.0
C1673 C 0.76676 0.60737 0.42741 0.0
C1674 C 0.7974 0.57666 0.42262 0.0
C1675 C 0.75626 0.61443 0.44489 0.0
C1676 C 0.83095 0.54499 0.34049 0.0
C1677 C 0.82036 0.55289 0.35681 0.0
C1678 C 0.80681 0.59227 0.37765 0.0
C1679 C 0.78083 0.60005 0.43602 0.0
C1680 C 0.79172 0.59209 0.4176 0.0
C1681 C 0.82329 0.56868 0.36438 0.0
C1682 C 0.81238 0.57678 0.3826 0.0
H1683 H 0.77698 0.60725 0.50008 0.0
H1684 H 0.79515 0.59469 0.46954 0.0
H1685 H 0.79232 0.61173 0.39061 0.0
H1686 H 0.85826 0.57461 0.33247 0.0
H1687 H 0.83947 0.58865 0.36057 0.0
C1688 C 0.63243 0.49387 0.30047 0.0
C1689 C 0.63331 0.48995 0.27424 0.0
C1690 C 0.63897 0.48378 0.31908 0.0
C1691 C 0.66999 0.45384 0.32793 0.0
H1692 H 0.647 0.44255 0.38998 0.0
C1693 C 0.70089 0.42358 0.41363 0.0
C1694 C 0.69358 0.40963 0.42268 0.0
C1695 C 0.69286 0.43368 0.3967 0.0
C1696 C 0.65353 0.4456 0.37272 0.0
H1697 H 0.64169 0.47226 0.24705 0.0
H1698 H 0.65333 0.45478 0.27957 0.0
H1699 H 0.6341 0.4592 0.35734 0.0
H1700 H 0.67183 0.39579 0.42259 0.0
H1701 H 0.65753 0.41373 0.39334 0.0
H1702 H 0.68946 0.4404 0.34332 0.0
C1703 C 0.64752 0.46566 0.28567 0.0
C1704 C 0.6462 0.45518 0.35414 0.0
C1705 C 0.64079 0.47564 0.26707 0.0
C1706 C 0.67772 0.40647 0.41579 0.0
C1707 C 0.66958 0.4167 0.39908 0.0
C1708 C 0.67739 0.44448 0.34664 0.0
C1709 C 0.64672 0.46966 0.31185 0.0
C1710 C 0.65435 0.45936 0.33152 0.0
C1711 C 0.67722 0.4302 0.38887 0.0
C1712 C 0.66925 0.44025 0.36923 0.0
H1713 H 0.62671 0.50478 0.30669 0.0
H1714 H 0.63828 0.48722 0.33909 0.0
H1715 H 0.67661 0.45697 0.3108 0.0
H1716 H 0.713 0.42645 0.41916 0.0
H1717 H 0.69893 0.44416 0.38951 0.0
C1718 C 0.85102 0.43491 0.64879 0.0
C1719 C 0.84672 0.4379 0.67438 0.0
C1720 C 0.84068 0.42676 0.6324 0.0
C1721 C 0.79809 0.41838 0.62344 0.0
H1722 H 0.81326 0.38842 0.57231 0.0
C1723 C 0.75504 0.38566 0.55499 0.0
C1724 C 0.75971 0.38405 0.52917 0.0
C1725 C 0.76576 0.39114 0.57351 0.0
C1726 C 0.80885 0.39688 0.58631 0.0
H1727 H 0.82842 0.43463 0.70313 0.0
H1728 H 0.81028 0.42013 0.67454 0.0
H1729 H 0.83183 0.39934 0.60378 0.0
H1730 H 0.77946 0.38691 0.50269 0.0
H1731 H 0.79812 0.39669 0.53497 0.0
H1732 H 0.7752 0.41616 0.60577 0.0
C1733 C 0.82163 0.42416 0.66709 0.0
C1734 C 0.81949 0.4031 0.6044 0.0
C1735 C 0.83205 0.43228 0.68354 0.0
C1736 C 0.77545 0.38797 0.52238 0.0
C1737 C 0.78619 0.39348 0.54094 0.0
C1738 C 0.78747 0.41219 0.60533 0.0
C1739 C 0.82575 0.4215 0.64122 0.0
C1740 C 0.81426 0.41403 0.62306 0.0
C1741 C 0.78146 0.3952 0.56673 0.0
C1742 C 0.79273 0.40144 0.58642 0.0
H1743 H 0.86227 0.43921 0.6413 0.0
H1744 H 0.84415 0.42511 0.61255 0.0
H1745 H 0.79372 0.42698 0.63726 0.0
H1746 H 0.74305 0.38268 0.561 0.0
H1747 H 0.76177 0.39208 0.59322 0.0
C1748 C 0.86682 0.50641 0.80317 0.0
C1749 C 0.86607 0.50885 0.77646 0.0
C1750 C 0.86017 0.51749 0.82012 0.0
C1751 C 0.82909 0.54774 0.82427 0.0
H1752 H 0.85186 0.56226 0.88476 0.0
C1753 C 0.79806 0.58114 0.90701 0.0
C1754 C 0.80537 0.59531 0.91512 0.0
C1755 C 0.80601 0.57073 0.89046 0.0
C1756 C 0.8454 0.55834 0.8679 0.0
H1757 H 0.85779 0.52491 0.74667 0.0
H1758 H 0.84594 0.54412 0.77634 0.0
H1759 H 0.86493 0.54409 0.85456 0.0
H1760 H 0.82689 0.60946 0.91326 0.0
H1761 H 0.84104 0.591 0.88471 0.0
H1762 H 0.8095 0.56181 0.83772 0.0
C1763 C 0.85174 0.53364 0.78408 0.0
C1764 C 0.85283 0.54788 0.85073 0.0
C1765 C 0.85859 0.52267 0.76712 0.0
C1766 C 0.82103 0.59858 0.90725 0.0
C1767 C 0.82909 0.58805 0.89095 0.0
C1768 C 0.8216 0.558 0.84161 0.0
C1769 C 0.85243 0.53113 0.81074 0.0
C1770 C 0.84474 0.54249 0.82873 0.0
C1771 C 0.82155 0.57415 0.88206 0.0
C1772 C 0.82966 0.56338 0.86362 0.0
H1773 H 0.87254 0.49592 0.81103 0.0
H1774 H 0.86077 0.51519 0.84057 0.0
H1775 H 0.82254 0.54368 0.80759 0.0
H1776 H 0.7861 0.57822 0.91325 0.0
H1777 H 0.80001 0.55998 0.88425 0.0
C1778 C 0.65215 0.56967 0.15698 0.0
C1779 C 0.65585 0.55426 0.16552 0.0
C1780 C 0.66283 0.57806 0.14142 0.0
C1781 C 0.70504 0.5783 0.11886 0.0
H1782 H 0.68756 0.6033 0.06297 0.0
C1783 C 0.74537 0.61513 0.05134 0.0
C1784 C 0.74127 0.61563 0.02517 0.0
C1785 C 0.73496 0.6085 0.06937 0.0
C1786 C 0.69267 0.59626 0.07833 0.0
H1787 H 0.67376 0.53574 0.16553 0.0
H1788 H 0.69219 0.55003 0.13759 0.0
H1789 H 0.66967 0.59 0.09273 0.0
H1790 H 0.72301 0.60943 0.99743 0.0
H1791 H 0.70508 0.59748 0.02868 0.0
H1792 H 0.72803 0.58394 0.10374 0.0
C1793 C 0.68119 0.55583 0.1431 0.0
C1794 C 0.68238 0.58882 0.0957 0.0
C1795 C 0.67057 0.54754 0.15885 0.0
C1796 C 0.72651 0.60934 0.01746 0.0
C1797 C 0.71616 0.60257 0.03544 0.0
C1798 C 0.71533 0.58562 0.10136 0.0
C1799 C 0.67741 0.57116 0.13396 0.0
C1800 C 0.68841 0.57965 0.11612 0.0
C1801 C 0.72024 0.60205 0.06165 0.0
C1802 C 0.70928 0.59463 0.08076 0.0
H1803 H 0.64087 0.57511 0.16201 0.0
H1804 H 0.65963 0.58994 0.1352 0.0
H1805 H 0.71015 0.57154 0.13454 0.0
H1806 H 0.7566 0.61998 0.05799 0.0
H1807 H 0.73841 0.60857 0.0894 0.0
C1808 C 0.36137 0.47399 0.26799 0.0
C1809 C 0.3663 0.48943 0.27472 0.0
C1810 C 0.35537 0.4636 0.28661 0.0
C1811 C 0.33759 0.46299 0.35175 0.0
H1812 H 0.34692 0.41783 0.34745 0.0
C1813 C 0.31597 0.41769 0.42821 0.0
C1814 C 0.3087 0.40399 0.41818 0.0
C1815 C 0.32434 0.42806 0.41203 0.0
C1816 C 0.34417 0.43041 0.34884 0.0
H1817 H 0.36896 0.50598 0.30646 0.0
H1818 H 0.35879 0.48776 0.33896 0.0
H1819 H 0.35898 0.43613 0.31673 0.0
H1820 H 0.30469 0.39008 0.3838 0.0
H1821 H 0.31934 0.4081 0.35552 0.0
H1822 H 0.32277 0.45719 0.38392 0.0
C1823 C 0.35927 0.48377 0.3192 0.0
C1824 C 0.35103 0.4409 0.33118 0.0
C1825 C 0.36519 0.4942 0.30055 0.0
C1826 C 0.3102 0.40061 0.39192 0.0
C1827 C 0.31867 0.41086 0.37581 0.0
C1828 C 0.33082 0.4525 0.36953 0.0
C1829 C 0.35426 0.46834 0.31246 0.0
C1830 C 0.34765 0.4573 0.33217 0.0
C1831 C 0.32569 0.42478 0.38562 0.0
C1832 C 0.33386 0.43607 0.36804 0.0
H1833 H 0.36197 0.46994 0.24827 0.0
H1834 H 0.35136 0.45192 0.28061 0.0
H1835 H 0.33455 0.4755 0.35292 0.0
H1836 H 0.31484 0.42058 0.4484 0.0
H1837 H 0.32971 0.43865 0.42014 0.0
C1838 C 0.34679 0.56835 0.15555 0.0
C1839 C 0.34356 0.55267 0.16323 0.0
C1840 C 0.33605 0.5766 0.13987 0.0
C1841 C 0.29412 0.57588 0.11627 0.0
H1842 H 0.3111 0.60271 0.06224 0.0
C1843 C 0.25321 0.6138 0.05098 0.0
C1844 C 0.25736 0.61504 0.02489 0.0
C1845 C 0.26366 0.60678 0.0686 0.0
C1846 C 0.30614 0.59516 0.07707 0.0
H1847 H 0.32646 0.53343 0.16135 0.0
H1848 H 0.30793 0.54753 0.1333 0.0
H1849 H 0.32925 0.58923 0.09143 0.0
H1850 H 0.27574 0.60969 0.99688 0.0
H1851 H 0.29373 0.59714 0.02739 0.0
H1852 H 0.27103 0.5813 0.10127 0.0
C1853 C 0.3186 0.55364 0.13958 0.0
C1854 C 0.31657 0.5876 0.0941 0.0
C1855 C 0.32928 0.54547 0.1554 0.0
C1856 C 0.27218 0.60904 0.01685 0.0
C1857 C 0.28257 0.60192 0.03442 0.0
C1858 C 0.28369 0.58336 0.09914 0.0
C1859 C 0.32187 0.56929 0.13146 0.0
C1860 C 0.31071 0.57779 0.11386 0.0
C1861 C 0.27847 0.60071 0.06055 0.0
C1862 C 0.28956 0.59305 0.07922 0.0
H1863 H 0.35772 0.57416 0.16142 0.0
H1864 H 0.33886 0.58872 0.13439 0.0
H1865 H 0.28914 0.5686 0.13144 0.0
H1866 H 0.24193 0.61838 0.05789 0.0
H1867 H 0.26018 0.60628 0.08861 0.0
C1868 C 0.18379 0.5863 0.92289 0.0
C1869 C 0.19108 0.60025 0.91386 0.0
C1870 C 0.17576 0.57618 0.90589 0.0
C1871 C 0.17374 0.56622 0.83659 0.0
H1872 H 0.13564 0.54319 0.85643 0.0
C1873 C 0.13813 0.52757 0.76484 0.0
C1874 C 0.13338 0.51246 0.77363 0.0
C1875 C 0.14439 0.53881 0.78191 0.0
C1876 C 0.14633 0.54947 0.85068 0.0
H1877 H 0.19528 0.61495 0.8804 0.0
H1878 H 0.18099 0.59754 0.85077 0.0
H1879 H 0.14771 0.562 0.88642 0.0
H1880 H 0.1313 0.49744 0.80743 0.0
H1881 H 0.14221 0.51704 0.83708 0.0
H1882 H 0.17233 0.55371 0.80085 0.0
C1883 C 0.18175 0.59413 0.87079 0.0
C1884 C 0.15327 0.56023 0.86788 0.0
C1885 C 0.18985 0.60416 0.88775 0.0
C1886 C 0.13485 0.50895 0.79995 0.0
C1887 C 0.141 0.52022 0.81702 0.0
C1888 C 0.16675 0.55554 0.81937 0.0
C1889 C 0.17481 0.57988 0.87954 0.0
C1890 C 0.16711 0.5687 0.8611 0.0
C1891 C 0.14594 0.53524 0.80818 0.0
C1892 C 0.15301 0.54699 0.82625 0.0
H1893 H 0.18477 0.58296 0.94293 0.0
H1894 H 0.17074 0.56522 0.91328 0.0
H1895 H 0.18456 0.57227 0.83085 0.0
H1896 H 0.13715 0.53069 0.74471 0.0
H1897 H 0.14794 0.55034 0.77456 0.0
C1898 C 0.15471 0.42846 0.66527 0.0
C1899 C 0.15741 0.44448 0.67157 0.0
C1900 C 0.16546 0.42025 0.64953 0.0
C1901 C 0.20663 0.42207 0.62282 0.0
H1902 H 0.18899 0.39498 0.56965 0.0
C1903 C 0.24687 0.38619 0.55377 0.0
C1904 C 0.24219 0.38529 0.52787 0.0
C1905 C 0.23662 0.39253 0.57232 0.0
C1906 C 0.19412 0.40259 0.58427 0.0
H1907 H 0.17374 0.46426 0.66773 0.0
H1908 H 0.19234 0.45015 0.63983 0.0
H1909 H 0.17127 0.40763 0.60055 0.0
H1910 H 0.22298 0.39042 0.50124 0.0
H1911 H 0.20526 0.40176 0.53346 0.0
H1912 H 0.22941 0.41753 0.60596 0.0
C1913 C 0.18203 0.4438 0.64703 0.0
C1914 C 0.18396 0.40967 0.60225 0.0
C1915 C 0.17132 0.45196 0.6628 0.0
C1916 C 0.22697 0.39086 0.521 0.0
C1917 C 0.21675 0.39728 0.53955 0.0
C1918 C 0.21678 0.41504 0.60479 0.0
C1919 C 0.17914 0.4279 0.63986 0.0
C1920 C 0.19006 0.41961 0.62165 0.0
C1921 C 0.22144 0.39821 0.56545 0.0
C1922 C 0.21065 0.4053 0.58514 0.0
H1923 H 0.14408 0.42243 0.67197 0.0
H1924 H 0.16299 0.40794 0.64479 0.0
H1925 H 0.21179 0.42949 0.63766 0.0
H1926 H 0.25846 0.38192 0.55983 0.0
H1927 H 0.24057 0.39283 0.59211 0.0
C1928 C 0.36262 0.50387 0.69131 0.0
C1929 C 0.3639 0.50731 0.71766 0.0
C1930 C 0.35622 0.51505 0.67429 0.0
C1931 C 0.34694 0.55809 0.6678 0.0
H1932 H 0.31907 0.5435 0.61326 0.0
C1933 C 0.30778 0.60062 0.60735 0.0
C1934 C 0.30669 0.5976 0.58091 0.0
C1935 C 0.3156 0.58989 0.62355 0.0
C1936 C 0.32699 0.54775 0.62819 0.0
H1937 H 0.35938 0.52526 0.74675 0.0
H1938 H 0.34795 0.54461 0.71716 0.0
H1939 H 0.33084 0.52422 0.64263 0.0
H1940 H 0.31283 0.58112 0.55053 0.0
H1941 H 0.32666 0.56235 0.5788 0.0
H1942 H 0.34282 0.58167 0.65353 0.0
C1943 C 0.35217 0.53337 0.70955 0.0
C1944 C 0.33375 0.53669 0.64504 0.0
C1945 C 0.35864 0.52222 0.72657 0.0
C1946 C 0.31368 0.58377 0.57084 0.0
C1947 C 0.32143 0.57298 0.58706 0.0
C1948 C 0.3401 0.56916 0.65102 0.0
C1949 C 0.35086 0.52992 0.6832 0.0
C1950 C 0.3438 0.54172 0.6651 0.0
C1951 C 0.32239 0.57587 0.61363 0.0
C1952 C 0.33002 0.56411 0.63106 0.0
H1953 H 0.36664 0.49255 0.68372 0.0
H1954 H 0.35564 0.51207 0.65408 0.0
H1955 H 0.35482 0.56237 0.68274 0.0
H1956 H 0.30246 0.61123 0.61552 0.0
H1957 H 0.31599 0.59239 0.64395 0.0
C1958 C 0.24677 0.6123 0.44249 0.0
C1959 C 0.24305 0.61249 0.46883 0.0
C1960 C 0.23671 0.60469 0.42492 0.0
C1961 C 0.20696 0.57301 0.42005 0.0
H1962 H 0.19312 0.59454 0.358 0.0
C1963 C 0.17245 0.54091 0.33919 0.0
C1964 C 0.15843 0.5485 0.33103 0.0
C1965 C 0.18328 0.54886 0.35507 0.0
C1966 C 0.1969 0.5884 0.37526 0.0
H1967 H 0.22588 0.60468 0.49734 0.0
H1968 H 0.2085 0.59119 0.46671 0.0
H1969 H 0.21112 0.60814 0.38788 0.0
H1970 H 0.14496 0.57046 0.33218 0.0
H1971 H 0.16411 0.58457 0.35952 0.0
H1972 H 0.1928 0.55326 0.40745 0.0
C1973 C 0.21917 0.597 0.45969 0.0
C1974 C 0.20726 0.59613 0.39224 0.0
C1975 C 0.22909 0.60481 0.47719 0.0
C1976 C 0.1557 0.56437 0.33823 0.0
C1977 C 0.16664 0.57242 0.35382 0.0
C1978 C 0.19681 0.5652 0.4029 0.0
C1979 C 0.22286 0.59688 0.43338 0.0
C1980 C 0.21228 0.58855 0.41491 0.0
C1981 C 0.18043 0.56466 0.36269 0.0
C1982 C 0.19159 0.57285 0.38042 0.0
H1983 H 0.25741 0.61813 0.4354 0.0
H1984 H 0.23987 0.60469 0.40475 0.0
H1985 H 0.21073 0.56685 0.4373 0.0
H1986 H 0.17499 0.52878 0.3334 0.0
H1987 H 0.19391 0.54267 0.36133 0.0
C1988 C 0.13762 0.47026 0.22733 0.0
C1989 C 0.13269 0.48572 0.22065 0.0
C1990 C 0.14363 0.4599 0.20867 0.0
C1991 C 0.16159 0.45977 0.14362 0.0
H1992 H 0.15287 0.41446 0.14716 0.0
C1993 C 0.18345 0.41553 0.06592 0.0
C1994 C 0.19088 0.40178 0.07544 0.0
C1995 C 0.17505 0.42562 0.08251 0.0
C1996 C 0.15545 0.42709 0.14599 0.0
H1997 H 0.12989 0.50225 0.18891 0.0
H1998 H 0.14004 0.4841 0.15638 0.0
H1999 H 0.1406 0.4324 0.17825 0.0
H2000 H 0.19512 0.38747 0.10933 0.0
H2001 H 0.18044 0.40501 0.13833 0.0
H2002 H 0.17644 0.4544 0.11132 0.0
C2003 C 0.1396 0.48008 0.17612 0.0
C2004 C 0.14847 0.43736 0.16386 0.0
C2005 C 0.13369 0.49047 0.1948 0.0
C2006 C 0.1895 0.39806 0.10161 0.0
C2007 C 0.18101 0.40803 0.11813 0.0
C2008 C 0.16848 0.44949 0.12565 0.0
C2009 C 0.14475 0.4647 0.18283 0.0
C2010 C 0.15159 0.45382 0.16309 0.0
C2011 C 0.17383 0.42201 0.10883 0.0
C2012 C 0.16563 0.43302 0.12682 0.0
H2013 H 0.13708 0.46622 0.24707 0.0
H2014 H 0.1477 0.44824 0.21463 0.0
H2015 H 0.16447 0.47232 0.14265 0.0
H2016 H 0.18447 0.41868 0.04582 0.0
H2017 H 0.16955 0.43626 0.07478 0.0
C2018 C 0.25238 0.38429 0.93885 0.0
C2019 C 0.25736 0.3823 0.96447 0.0
C2020 C 0.26292 0.39006 0.92023 0.0
C2021 C 0.30599 0.3956 0.90685 0.0
H2022 H 0.29104 0.42637 0.8568 0.0
C2023 C 0.34858 0.43389 0.84573 0.0
C2024 C 0.34446 0.43707 0.82012 0.0
C2025 C 0.33805 0.4258 0.86187 0.0
C2026 C 0.29535 0.4176 0.87037 0.0
H2027 H 0.27738 0.38494 0.9905 0.0
H2028 H 0.29564 0.3952 0.95814 0.0
H2029 H 0.27244 0.4153 0.88803 0.0
H2030 H 0.32621 0.4343 0.79115 0.0
H2031 H 0.30772 0.4199 0.81932 0.0
H2032 H 0.32897 0.39811 0.88944 0.0
C2033 C 0.28365 0.39205 0.95234 0.0
C2034 C 0.28469 0.41126 0.88832 0.0
C2035 C 0.27313 0.38626 0.97097 0.0
C2036 C 0.32972 0.43177 0.81075 0.0
C2037 C 0.3191 0.42371 0.82695 0.0
C2038 C 0.31666 0.40196 0.88894 0.0
C2039 C 0.27869 0.39401 0.92672 0.0
C2040 C 0.2899 0.4003 0.90696 0.0
C2041 C 0.32309 0.42078 0.8528 0.0
C2042 C 0.31151 0.41316 0.87065 0.0
H2043 H 0.24035 0.38131 0.93309 0.0
H2044 H 0.25874 0.39124 0.90065 0.0
H2045 H 0.31036 0.38695 0.92058 0.0
H2046 H 0.35987 0.43797 0.8534 0.0
H2047 H 0.34143 0.42394 0.88172 0.0
C2048 C 0.22593 0.13576 0.33756 0.0
C2049 C 0.23922 0.13488 0.35388 0.0
C2050 C 0.22793 0.13551 0.31086 0.0
C2051 C 0.23678 0.14335 0.25525 0.0
H2052 H 0.26938 0.11544 0.22767 0.0
C2053 C 0.25665 0.14641 0.14916 0.0
C2054 C 0.25977 0.13189 0.13681 0.0
C2055 C 0.25405 0.14685 0.17566 0.0
C2056 C 0.26011 0.12319 0.23496 0.0
H2057 H 0.26492 0.13202 0.35494 0.0
H2058 H 0.26846 0.13241 0.30895 0.0
H2059 H 0.26409 0.11545 0.27344 0.0
H2060 H 0.26284 0.1065 0.14227 0.0
H2061 H 0.25807 0.10716 0.18835 0.0
H2062 H 0.23247 0.15068 0.2165 0.0
C2063 C 0.25648 0.13327 0.31653 0.0
C2064 C 0.25722 0.12336 0.2613 0.0
C2065 C 0.25446 0.1334 0.34304 0.0
C2066 C 0.26062 0.11788 0.15141 0.0
C2067 C 0.25788 0.11828 0.17782 0.0
C2068 C 0.23959 0.14309 0.22879 0.0
C2069 C 0.24326 0.1342 0.30007 0.0
C2070 C 0.24564 0.13355 0.27183 0.0
C2071 C 0.25447 0.13275 0.19027 0.0
C2072 C 0.25137 0.13306 0.21835 0.0
H2073 H 0.21402 0.13663 0.34546 0.0
H2074 H 0.21748 0.13602 0.2987 0.0
H2075 H 0.22785 0.15142 0.26275 0.0
H2076 H 0.25618 0.15741 0.13832 0.0
H2077 H 0.25179 0.15824 0.18471 0.0
C2078 C 0.11139 0.99574 0.40277 0.0
C2079 C 0.11104 0.01117 0.39234 0.0
C2080 C 0.11026 0.99341 0.42917 0.0
C2081 C 0.09842 0.0129 0.48969 0.0
H2082 H 0.12598 0.98096 0.52019 0.0
C2083 C 0.11049 0.00907 0.59811 0.0
C2084 C 0.11089 0.99394 0.60961 0.0
C2085 C 0.10917 0.01062 0.57158 0.0
C2086 C 0.11803 0.98974 0.51191 0.0
H2087 H 0.10994 0.0363 0.40135 0.0
H2088 H 0.10821 0.03228 0.44792 0.0
H2089 H 0.12653 0.98521 0.47395 0.0
H2090 H 0.1109 0.96856 0.6024 0.0
H2091 H 0.10863 0.97123 0.55561 0.0
H2092 H 0.09018 0.01761 0.52785 0.0
C2093 C 0.10885 0.02196 0.43549 0.0
C2094 C 0.11836 0.9922 0.48543 0.0
C2095 C 0.10991 0.02428 0.40893 0.0
C2096 C 0.11034 0.98034 0.59398 0.0
C2097 C 0.1091 0.98189 0.56729 0.0
C2098 C 0.09814 0.01047 0.51622 0.0
C2099 C 0.10909 0.00647 0.44587 0.0
C2100 C 0.10859 0.00385 0.47402 0.0
C2101 C 0.10852 0.99707 0.55586 0.0
C2102 C 0.10802 0.99892 0.5276 0.0
H2103 H 0.11289 0.9854 0.39063 0.0
H2104 H 0.11039 0.98134 0.43649 0.0
H2105 H 0.09059 0.02178 0.48144 0.0
H2106 H 0.11165 0.01978 0.6095 0.0
H2107 H 0.1092 0.02246 0.5633 0.0
C2108 C 0.25695 0.85912 0.64926 0.0
C2109 C 0.24152 0.86038 0.639 0.0
C2110 C 0.25929 0.85816 0.67566 0.0
C2111 C 0.26174 0.86766 0.73113 0.0
H2112 H 0.23331 0.8443 0.77608 0.0
C2113 C 0.24411 0.86588 0.8441 0.0
C2114 C 0.25909 0.86428 0.85583 0.0
C2115 C 0.24248 0.86421 0.81766 0.0
C2116 C 0.24131 0.8509 0.76372 0.0
H2117 H 0.21646 0.86219 0.64833 0.0
H2118 H 0.22053 0.86085 0.69487 0.0
H2119 H 0.22912 0.84341 0.7297 0.0
H2120 H 0.28426 0.86052 0.84909 0.0
H2121 H 0.28145 0.85768 0.80237 0.0
H2122 H 0.27388 0.8752 0.76516 0.0
C2123 C 0.23079 0.86005 0.68233 0.0
C2124 C 0.23888 0.85044 0.73721 0.0
C2125 C 0.22845 0.8609 0.65576 0.0
C2126 C 0.27256 0.86157 0.84048 0.0
C2127 C 0.27094 0.85998 0.81386 0.0
C2128 C 0.26422 0.86804 0.7576 0.0
C2129 C 0.24628 0.85882 0.69253 0.0
C2130 C 0.24901 0.85891 0.72065 0.0
C2131 C 0.25585 0.86117 0.80228 0.0
C2132 C 0.25394 0.8598 0.77415 0.0
H2133 H 0.26736 0.85939 0.63704 0.0
H2134 H 0.27135 0.8571 0.68286 0.0
H2135 H 0.2696 0.87455 0.71893 0.0
H2136 H 0.23361 0.86867 0.85528 0.0
H2137 H 0.23078 0.86564 0.80918 0.0
C2138 C 0.38931 0.98079 0.91237 0.0
C2139 C 0.38846 0.99331 0.89456 0.0
C2140 C 0.38928 0.98399 0.93875 0.0
C2141 C 0.37782 0.01544 0.98512 0.0
H2142 H 0.40471 0.99171 0.032 0.0
C2143 C 0.39959 0.01573 0.09815 0.0
C2144 C 0.38482 0.0182 0.11008 0.0
C2145 C 0.40049 0.01377 0.07157 0.0
C2146 C 0.39728 0.99859 0.01911 0.0
H2147 H 0.38587 0.01894 0.89056 0.0
H2148 H 0.38667 0.02453 0.93601 0.0
H2149 H 0.40553 0.98572 0.98623 0.0
H2150 H 0.3595 0.02127 0.10378 0.0
H2151 H 0.36096 0.01766 0.05743 0.0
H2152 H 0.36988 0.02861 0.0178 0.0
C2153 C 0.38734 0.01223 0.92982 0.0
C2154 C 0.39757 0.99498 0.99293 0.0
C2155 C 0.38725 0.00903 0.90361 0.0
C2156 C 0.37105 0.01948 0.09496 0.0
C2157 C 0.37192 0.01741 0.06842 0.0
C2158 C 0.37761 0.01912 0.01123 0.0
C2159 C 0.38826 -0.00022 0.94774 0.0
C2160 C 0.38784 0.00337 0.97564 0.0
C2161 C 0.3866 0.0142 0.05647 0.0
C2162 C 0.3873 0.01071 0.02855 0.0
H2163 H 0.38995 0.96855 0.90588 0.0
H2164 H 0.38974 0.9741 0.95208 0.0
H2165 H 0.36999 0.02198 0.9724 0.0
H2166 H 0.41041 0.01499 0.10943 0.0
H2167 H 0.41203 0.01171 0.06289 0.0
C2168 C 0.73937 0.86418 0.64611 0.0
C2169 C 0.75457 0.86386 0.63482 0.0
C2170 C 0.73765 0.86318 0.67266 0.0
C2171 C 0.73769 0.8519 0.72818 0.0
H2172 H 0.76308 0.88025 0.77033 0.0
C2173 C 0.75389 0.86406 0.84143 0.0
C2174 C 0.73868 0.86283 0.85253 0.0
C2175 C 0.75578 0.86354 0.8149 0.0
C2176 C 0.75605 0.87208 0.7589 0.0
H2177 H 0.77991 0.86298 0.64244 0.0
H2178 H 0.77692 0.8614 0.68922 0.0
H2179 H 0.76704 0.87989 0.72402 0.0
H2180 H 0.71345 0.86088 0.84455 0.0
H2181 H 0.71668 0.86033 0.7978 0.0
H2182 H 0.72677 0.84399 0.76306 0.0
C2183 C 0.76635 0.86214 0.67735 0.0
C2184 C 0.75833 0.8719 0.73238 0.0
C2185 C 0.76806 0.863 0.65068 0.0
C2186 C 0.72533 0.86154 0.83646 0.0
C2187 C 0.7272 0.86114 0.80977 0.0
C2188 C 0.73549 0.85199 0.75477 0.0
C2189 C 0.7511 0.8622 0.68855 0.0
C2190 C 0.74914 0.86185 0.71677 0.0
C2191 C 0.74247 0.86216 0.79871 0.0
C2192 C 0.74464 0.8621 0.77043 0.0
H2193 H 0.72876 0.86563 0.63454 0.0
H2194 H 0.72578 0.86366 0.68082 0.0
H2195 H 0.73053 0.84395 0.71655 0.0
H2196 H 0.76439 0.86576 0.85311 0.0
H2197 H 0.76771 0.86424 0.80709 0.0
C2198 C 0.89122 0.99426 0.39872 0.0
C2199 C 0.89083 0.0098 0.38876 0.0
C2200 C 0.8926 0.99168 0.42499 0.0
C2201 C 0.88451 0.98958 0.48107 0.0
H2202 H 0.91203 0.01522 0.52424 0.0
C2203 C 0.89112 0.00574 0.59383 0.0
C2204 C 0.89091 0.99054 0.60509 0.0
C2205 C 0.89282 0.00747 0.56741 0.0
C2206 C 0.90428 0.00799 0.51238 0.0
H2207 H 0.89092 0.03486 0.39846 0.0
H2208 H 0.89309 0.03038 0.44491 0.0
H2209 H 0.91146 0.01995 0.47795 0.0
H2210 H 0.8917 0.96521 0.59759 0.0
H2211 H 0.89464 0.96819 0.55093 0.0
H2212 H 0.8772 0.97773 0.51546 0.0
C2213 C 0.89283 0.02019 0.43216 0.0
C2214 C 0.9039 0.01075 0.48595 0.0
C2215 C 0.8915 0.02277 0.40569 0.0
C2216 C 0.8921 0.97705 0.58934 0.0
C2217 C 0.89373 0.97877 0.56275 0.0
C2218 C 0.88493 0.9868 0.50745 0.0
C2219 C 0.89329 0.00459 0.44204 0.0
C2220 C 0.89393 0.00163 0.47005 0.0
C2221 C 0.89406 0.99402 0.55157 0.0
C2222 C 0.8947 0.99607 0.52339 0.0
H2223 H 0.89012 0.98399 0.38633 0.0
H2224 H 0.89303 0.97953 0.43196 0.0
H2225 H 0.87652 0.98251 0.46938 0.0
H2226 H 0.88948 0.01636 0.60529 0.0
H2227 H 0.89258 0.01935 0.55929 0.0
C2228 C 0.77396 0.13964 0.34317 0.0
C2229 C 0.76028 0.13982 0.35865 0.0
C2230 C 0.77257 0.14058 0.31643 0.0
C2231 C 0.76424 0.1311 0.2613 0.0
H2232 H 0.73381 0.15994 0.22987 0.0
C2233 C 0.72999 0.14035 0.15812 0.0
C2234 C 0.74299 0.1384 0.14151 0.0
C2235 C 0.7324 0.14125 0.18468 0.0
C2236 C 0.74222 0.15171 0.23839 0.0
H2237 H 0.73441 0.14 0.35823 0.0
H2238 H 0.73203 0.14203 0.31197 0.0
H2239 H 0.73811 0.1608 0.27621 0.0
H2240 H 0.76859 0.13481 0.13977 0.0
H2241 H 0.77284 0.13696 0.18558 0.0
H2242 H 0.76813 0.12174 0.22368 0.0
C2243 C 0.74383 0.1417 0.32039 0.0
C2244 C 0.74474 0.15226 0.26487 0.0
C2245 C 0.74522 0.14064 0.34696 0.0
C2246 C 0.75836 0.13691 0.15192 0.0
C2247 C 0.76079 0.13786 0.1783 0.0
C2248 C 0.76167 0.13049 0.23485 0.0
C2249 C 0.75746 0.14164 0.30484 0.0
C2250 C 0.7557 0.14189 0.27658 0.0
C2251 C 0.74786 0.14002 0.19501 0.0
C2252 C 0.75058 0.14074 0.22312 0.0
H2253 H 0.78568 0.13872 0.35175 0.0
H2254 H 0.78328 0.14047 0.30483 0.0
H2255 H 0.77256 0.12279 0.26989 0.0
H2256 H 0.71799 0.14126 0.15057 0.0
H2257 H 0.72216 0.14265 0.19712 0.0
C2258 C 0.61691 0.97736 0.91149 0.0
C2259 C 0.61795 0.99022 0.89435 0.0
C2260 C 0.61689 0.98003 0.93804 0.0
C2261 C 0.60826 0.99019 0.99262 0.0
H2262 H 0.6359 0.02327 0.01947 0.0
C2263 C 0.6042 0.01117 0.09782 0.0
C2264 C 0.61867 0.0139 0.11056 0.0
C2265 C 0.60394 0.00874 0.07128 0.0
C2266 C 0.6282 0.0139 0.01236 0.0
H2267 H 0.62087 0.01587 0.89169 0.0
H2268 H 0.62004 0.02056 0.93741 0.0
H2269 H 0.63644 0.01708 0.97394 0.0
H2270 H 0.64414 0.01673 0.10571 0.0
H2271 H 0.64379 0.01232 0.0595 0.0
H2272 H 0.60043 0.98666 0.0313 0.0
C2273 C 0.61924 0.0084 0.93059 0.0
C2274 C 0.62836 0.01048 0.98617 0.0
C2275 C 0.61937 0.00572 0.90423 0.0
C2276 C 0.6328 0.01478 0.09627 0.0
C2277 C 0.63258 0.01224 0.0698 0.0
C2278 C 0.60818 0.99355 0.01891 0.0
C2279 C 0.61808 0.99561 0.94786 0.0
C2280 C 0.61831 0.99868 0.97594 0.0
C2281 C 0.61818 0.00896 0.05703 0.0
C2282 C 0.6181 0.00549 0.02907 0.0
H2283 H 0.6161 0.96527 0.90435 0.0
H2284 H 0.61622 0.96989 0.95085 0.0
H2285 H 0.60027 0.98113 0.98534 0.0
H2286 H 0.59311 0.0107 0.10842 0.0
H2287 H 0.59261 0.00662 0.06196 0.0
C2288 C 0.74365 0.64178 0.64982 0.0
C2289 C 0.75926 0.64128 0.64008 0.0
C2290 C 0.74093 0.64321 0.67604 0.0
C2291 C 0.73848 0.63505 0.73206 0.0
H2292 H 0.76417 0.66222 0.77573 0.0
C2293 C 0.75454 0.64109 0.84493 0.0
C2294 C 0.73934 0.64107 0.85621 0.0
C2295 C 0.75628 0.64278 0.81852 0.0
C2296 C 0.75692 0.65457 0.76373 0.0
H2297 H 0.78426 0.64124 0.65018 0.0
H2298 H 0.77953 0.64349 0.69654 0.0
H2299 H 0.76903 0.66182 0.72948 0.0
H2300 H 0.714 0.64211 0.84873 0.0
H2301 H 0.71701 0.64504 0.80205 0.0
H2302 H 0.72649 0.62766 0.76629 0.0
C2303 C 0.76941 0.64328 0.68364 0.0
C2304 C 0.75976 0.65429 0.73732 0.0
C2305 C 0.77213 0.64192 0.65721 0.0
C2306 C 0.72585 0.64238 0.84047 0.0
C2307 C 0.72758 0.644 0.81387 0.0
C2308 C 0.73563 0.63536 0.75842 0.0
C2309 C 0.75375 0.64382 0.69328 0.0
C2310 C 0.75064 0.64443 0.72125 0.0
C2311 C 0.74285 0.64421 0.8027 0.0
C2312 C 0.74492 0.645 0.77454 0.0
H2313 H 0.73344 0.64069 0.63729 0.0
H2314 H 0.72874 0.64369 0.68282 0.0
H2315 H 0.73142 0.62714 0.72023 0.0
H2316 H 0.76515 0.63936 0.85638 0.0
H2317 H 0.76816 0.64244 0.8104 0.0
C2318 C 0.61086 0.4769 0.08583 0.0
C2319 C 0.61201 0.48997 0.10248 0.0
C2320 C 0.60979 0.47929 0.05927 0.0
C2321 C 0.61918 0.50914 0.00942 0.0
H2322 H 0.59023 0.48435 0.96739 0.0
C2323 C 0.61021 0.52183 0.90134 0.0
C2324 C 0.61045 0.50833 0.88549 0.0
C2325 C 0.60918 0.52013 0.92803 0.0
C2326 C 0.59841 0.49132 0.97891 0.0
H2327 H 0.61394 0.51573 0.10435 0.0
H2328 H 0.61153 0.51991 0.05852 0.0
H2329 H 0.59113 0.47985 0.0137 0.0
H2330 H 0.61083 0.48247 0.88518 0.0
H2331 H 0.60874 0.47954 0.93135 0.0
H2332 H 0.62654 0.52054 0.97465 0.0
C2333 C 0.61137 0.50781 0.06577 0.0
C2334 C 0.59897 0.48869 0.00537 0.0
C2335 C 0.61247 0.50542 0.09214 0.0
C2336 C 0.60991 0.49313 0.89675 0.0
C2337 C 0.6088 0.49143 0.92327 0.0
C2338 C 0.61859 0.51179 0.983 0.0
C2339 C 0.61009 0.4948 0.049 0.0
C2340 C 0.60941 0.49753 0.02089 0.0
C2341 C 0.60849 0.50489 0.93922 0.0
C2342 C 0.60828 0.50284 0.96745 0.0
H2343 H 0.61079 0.46486 0.09334 0.0
H2344 H 0.60907 0.46901 0.04677 0.0
H2345 H 0.62754 0.51597 0.0208 0.0
H2346 H 0.61089 0.53366 0.89311 0.0
H2347 H 0.60896 0.53072 0.9399 0.0
C2348 C 0.7435 0.36553 0.346 0.0
C2349 C 0.75869 0.36527 0.35729 0.0
C2350 C 0.74176 0.3645 0.31945 0.0
C2351 C 0.76274 0.37271 0.25947 0.0
H2352 H 0.72968 0.34638 0.22928 0.0
C2353 C 0.75669 0.36547 0.15037 0.0
C2354 C 0.74129 0.3655 0.13981 0.0
C2355 C 0.75891 0.36459 0.17682 0.0
C2356 C 0.73884 0.35391 0.23745 0.0
H2357 H 0.78403 0.36443 0.34973 0.0
H2358 H 0.78104 0.36264 0.30293 0.0
H2359 H 0.73384 0.34598 0.27568 0.0
H2360 H 0.7161 0.36536 0.14865 0.0
H2361 H 0.71993 0.36404 0.1953 0.0
H2362 H 0.7676 0.38086 0.22141 0.0
C2363 C 0.77046 0.36343 0.31477 0.0
C2364 C 0.74127 0.35364 0.26398 0.0
C2365 C 0.77218 0.36439 0.34146 0.0
C2366 C 0.72809 0.36503 0.15633 0.0
C2367 C 0.7303 0.3642 0.18295 0.0
C2368 C 0.76028 0.37302 0.23298 0.0
C2369 C 0.75521 0.36346 0.30353 0.0
C2370 C 0.7532 0.36308 0.27527 0.0
C2371 C 0.74576 0.36403 0.19346 0.0
C2372 C 0.74829 0.36365 0.22166 0.0
H2373 H 0.7329 0.36696 0.35759 0.0
H2374 H 0.72989 0.365 0.31134 0.0
H2375 H 0.77183 0.38032 0.26766 0.0
H2376 H 0.76711 0.36645 0.13826 0.0
H2377 H 0.77096 0.36438 0.18423 0.0
C2378 C 0.88578 0.4847 0.59601 0.0
C2379 C 0.88739 0.5002 0.60579 0.0
C2380 C 0.88699 0.48184 0.56973 0.0
C2381 C 0.9016 0.49952 0.50927 0.0
H2382 H 0.87185 0.47003 0.47774 0.0
C2383 C 0.88931 0.4984 0.40125 0.0
C2384 C 0.88809 0.48361 0.38882 0.0
C2385 C 0.89067 0.49924 0.42783 0.0
C2386 C 0.8804 0.47809 0.48634 0.0
H2387 H 0.89079 0.52498 0.59578 0.0
H2388 H 0.89264 0.52007 0.54953 0.0
H2389 H 0.87113 0.47422 0.52406 0.0
H2390 H 0.88652 0.45812 0.39445 0.0
H2391 H 0.8888 0.45955 0.44146 0.0
H2392 H 0.91057 0.50367 0.47139 0.0
C2393 C 0.89095 0.51004 0.56232 0.0
C2394 C 0.87999 0.48052 0.51285 0.0
C2395 C 0.88978 0.51289 0.58871 0.0
C2396 C 0.88776 0.46964 0.4036 0.0
C2397 C 0.88901 0.47047 0.43039 0.0
C2398 C 0.90197 0.49713 0.48276 0.0
C2399 C 0.88957 0.49447 0.55257 0.0
C2400 C 0.89045 0.49141 0.52456 0.0
C2401 C 0.89054 0.48531 0.44269 0.0
C2402 C 0.89123 0.48656 0.47101 0.0
H2403 H 0.88332 0.47473 0.60858 0.0
H2404 H 0.88592 0.4697 0.56288 0.0
H2405 H 0.91002 0.50774 0.51777 0.0
H2406 H 0.88878 0.50944 0.39055 0.0
H2407 H 0.89135 0.51086 0.43682 0.0
C2408 C 0.24251 0.36529 0.14856 0.0
C2409 C 0.25761 0.36449 0.13695 0.0
C2410 C 0.24099 0.36495 0.17519 0.0
C2411 C 0.24111 0.35476 0.23115 0.0
H2412 H 0.26747 0.38295 0.27199 0.0
C2413 C 0.25781 0.36784 0.34401 0.0
C2414 C 0.24258 0.36697 0.35514 0.0
C2415 C 0.25968 0.36716 0.31745 0.0
C2416 C 0.26015 0.37484 0.26093 0.0
H2417 H 0.283 0.36346 0.14416 0.0
H2418 H 0.28035 0.36298 0.19106 0.0
H2419 H 0.2712 0.38183 0.22563 0.0
H2420 H 0.21732 0.36557 0.34717 0.0
H2421 H 0.22052 0.36472 0.30044 0.0
H2422 H 0.23012 0.34766 0.26641 0.0
C2423 C 0.26969 0.36363 0.17938 0.0
C2424 C 0.26231 0.37421 0.23437 0.0
C2425 C 0.27121 0.36385 0.15262 0.0
C2426 C 0.2292 0.36596 0.33907 0.0
C2427 C 0.23106 0.36537 0.31238 0.0
C2428 C 0.23902 0.3553 0.25775 0.0
C2429 C 0.25454 0.36411 0.1909 0.0
C2430 C 0.25276 0.36422 0.2192 0.0
C2431 C 0.24635 0.36593 0.30127 0.0
C2432 C 0.24848 0.36538 0.27296 0.0
H2433 H 0.23182 0.3666 0.13716 0.0
H2434 H 0.22919 0.36576 0.18353 0.0
H2435 H 0.23368 0.34683 0.21992 0.0
H2436 H 0.26834 0.36928 0.35574 0.0
H2437 H 0.27163 0.36753 0.30963 0.0
C2438 C 0.38807 0.51264 0.90496 0.0
C2439 C 0.3857 0.49985 0.8881 0.0
C2440 C 0.38941 0.50993 0.93137 0.0
C2441 C 0.40041 0.49979 0.98442 0.0
H2442 H 0.37128 0.46993 0.01655 0.0
C2443 C 0.38754 0.46994 0.09035 0.0
C2444 C 0.38742 0.48395 0.10502 0.0
C2445 C 0.38879 0.47074 0.06358 0.0
C2446 C 0.37967 0.47809 0.00777 0.0
H2447 H 0.38184 0.47433 0.88569 0.0
H2448 H 0.38479 0.46954 0.93138 0.0
H2449 H 0.37024 0.47399 0.97024 0.0
H2450 H 0.38733 0.50978 0.10314 0.0
H2451 H 0.38995 0.51116 0.05684 0.0
H2452 H 0.40948 0.5042 0.02217 0.0
C2453 C 0.38569 0.48165 0.92437 0.0
C2454 C 0.37907 0.48045 0.98127 0.0
C2455 C 0.38428 0.48437 0.8981 0.0
C2456 C 0.38822 0.49875 0.0925 0.0
C2457 C 0.38962 0.49955 0.06593 0.0
C2458 C 0.40094 0.49749 0.01094 0.0
C2459 C 0.38825 0.49439 0.94133 0.0
C2460 C 0.38932 0.49146 0.96934 0.0
C2461 C 0.38988 0.48559 0.05118 0.0
C2462 C 0.39044 0.48677 0.02288 0.0
H2463 H 0.38892 0.52471 0.89772 0.0
H2464 H 0.39108 0.52004 0.94401 0.0
H2465 H 0.40867 0.50811 0.97575 0.0
H2466 H 0.38663 0.45841 0.09957 0.0
H2467 H 0.3889 0.45979 0.05258 0.0
C2468 C 0.25485 0.63815 0.64937 0.0
C2469 C 0.23981 0.63866 0.63755 0.0
C2470 C 0.25627 0.63951 0.6759 0.0
C2471 C 0.2561 0.65147 0.7308 0.0
H2472 H 0.23012 0.62389 0.77332 0.0
C2473 C 0.24099 0.63898 0.84438 0.0
C2474 C 0.25641 0.63941 0.85485 0.0
C2475 C 0.23868 0.63995 0.81797 0.0
C2476 C 0.23731 0.63185 0.76178 0.0
H2477 H 0.2144 0.64023 0.64427 0.0
H2478 H 0.21686 0.64245 0.69111 0.0
H2479 H 0.22596 0.62432 0.72704 0.0
H2480 H 0.28156 0.64046 0.84584 0.0
H2481 H 0.27758 0.6418 0.79928 0.0
H2482 H 0.26748 0.65902 0.7655 0.0
C2483 C 0.22755 0.6413 0.67961 0.0
C2484 C 0.2349 0.63209 0.73528 0.0
C2485 C 0.22614 0.64006 0.65291 0.0
C2486 C 0.26954 0.6404 0.83826 0.0
C2487 C 0.26724 0.64127 0.81168 0.0
C2488 C 0.25845 0.65132 0.75734 0.0
C2489 C 0.24266 0.64109 0.6913 0.0
C2490 C 0.24437 0.64178 0.71953 0.0
C2491 C 0.25175 0.641 0.80127 0.0
C2492 C 0.24915 0.64142 0.77311 0.0
H2493 H 0.26557 0.63627 0.63828 0.0
H2494 H 0.26802 0.63885 0.68444 0.0
H2495 H 0.26347 0.65916 0.71906 0.0
H2496 H 0.23061 0.63756 0.85646 0.0
H2497 H 0.2266 0.63982 0.81065 0.0
C2498 C 0.09633 0.48345 0.40073 0.0
C2499 C 0.11154 0.48114 0.39014 0.0
C2500 C 0.09462 0.48655 0.42695 0.0
C2501 C 0.1165 0.50418 0.48017 0.0
H2502 H 0.08678 0.48199 0.52456 0.0
C2503 C 0.10821 0.52038 0.58738 0.0
C2504 C 0.10952 0.50722 0.60386 0.0
C2505 C 0.10647 0.5181 0.5609 0.0
C2506 C 0.09503 0.48835 0.51229 0.0
H2507 H 0.13678 0.47957 0.39847 0.0
H2508 H 0.1338 0.485 0.4443 0.0
H2509 H 0.08786 0.47535 0.47878 0.0
H2510 H 0.11117 0.48143 0.60542 0.0
H2511 H 0.10758 0.47749 0.55961 0.0
H2512 H 0.12389 0.51698 0.51367 0.0
C2513 C 0.12324 0.48453 0.43235 0.0
C2514 C 0.09561 0.48459 0.48618 0.0
C2515 C 0.12492 0.48124 0.40625 0.0
C2516 C 0.10934 0.49179 0.59341 0.0
C2517 C 0.1074 0.48952 0.56713 0.0
C2518 C 0.11578 0.50807 0.50618 0.0
C2519 C 0.10812 0.48755 0.44281 0.0
C2520 C 0.1066 0.49223 0.47004 0.0
C2521 C 0.10602 0.50263 0.55059 0.0
C2522 C 0.10528 0.49997 0.52257 0.0
H2523 H 0.08585 0.48332 0.3886 0.0
H2524 H 0.08283 0.48879 0.43462 0.0
H2525 H 0.12492 0.51038 0.46799 0.0
H2526 H 0.10861 0.53238 0.59496 0.0
H2527 H 0.10553 0.52841 0.54847 0.0
C2528 C 0.15759 0.14418 0.95398 0.0
C2529 C 0.17355 0.13966 0.95024 0.0
C2530 C 0.14656 0.14275 0.93393 0.0
C2531 C 0.14355 0.13753 0.86361 0.0
H2532 H 0.10973 0.10747 0.87851 0.0
C2533 C 0.12687 0.08755 0.7968 0.0
C2534 C 0.11113 0.08206 0.79499 0.0
C2535 C 0.13069 0.10009 0.81317 0.0
C2536 C 0.11877 0.11625 0.87402 0.0
H2537 H 0.19068 0.13086 0.92247 0.0
H2538 H 0.1716 0.12852 0.88766 0.0
H2539 H 0.12379 0.12044 0.91377 0.0
H2540 H 0.08687 0.08581 0.80805 0.0
H2541 H 0.09368 0.10763 0.83734 0.0
H2542 H 0.13932 0.13249 0.82393 0.0
C2543 C 0.16754 0.13316 0.90593 0.0
C2544 C 0.12681 0.12368 0.89423 0.0
C2545 C 0.17843 0.13431 0.92597 0.0
C2546 C 0.09913 0.08977 0.80917 0.0
C2547 C 0.103 0.10223 0.82588 0.0
C2548 C 0.1355 0.13015 0.84345 0.0
C2549 C 0.15147 0.13714 0.90977 0.0
C2550 C 0.13989 0.13362 0.88916 0.0
C2551 C 0.11887 0.10734 0.82828 0.0
C2552 C 0.12371 0.11871 0.84854 0.0
H2553 H 0.15356 0.14836 0.97255 0.0
H2554 H 0.1342 0.14578 0.93735 0.0
H2555 H 0.15344 0.14537 0.85926 0.0
H2556 H 0.13636 0.08195 0.78597 0.0
H2557 H 0.14307 0.10356 0.81492 0.0
C2558 C 0.13104 0.92685 0.19269 0.0
C2559 C 0.11634 0.9259 0.20544 0.0
C2560 C 0.13437 0.91683 0.17219 0.0
C2561 C 0.12716 0.87949 0.14163 0.0
H2562 H 0.14293 0.90249 0.08226 0.0
C2563 C 0.17492 0.85582 0.07364 0.0
C2564 C 0.17618 0.8623 0.04889 0.0
C2565 C 0.16234 0.86027 0.08967 0.0
C2566 C 0.13817 0.89575 0.09823 0.0
H2567 H 0.09392 0.91308 0.20762 0.0
H2568 H 0.09995 0.89527 0.17141 0.0
H2569 H 0.13097 0.91703 0.11742 0.0
H2570 H 0.16436 0.87687 0.02026 0.0
H2571 H 0.14217 0.88423 0.04789 0.0
H2572 H 0.13505 0.85819 0.12279 0.0
C2573 C 0.10873 0.90396 0.17742 0.0
C2574 C 0.13146 0.90415 0.1185 0.0
C2575 C 0.10532 0.91413 0.19803 0.0
C2576 C 0.16388 0.87202 0.03953 0.0
C2577 C 0.15116 0.87622 0.05534 0.0
C2578 C 0.13392 0.871 0.12122 0.0
C2579 C 0.12312 0.90558 0.16399 0.0
C2580 C 0.12659 0.89618 0.14079 0.0
C2581 C 0.15071 0.87109 0.08103 0.0
C2582 C 0.14011 0.87914 0.09977 0.0
H2583 H 0.1399 0.9356 0.19816 0.0
H2584 H 0.1457 0.91804 0.1624 0.0
H2585 H 0.12339 0.87313 0.15869 0.0
H2586 H 0.18419 0.84818 0.08123 0.0
H2587 H 0.16245 0.85615 0.10937 0.0
C2588 C 0.38086 0.91476 0.28643 0.0
C2589 C 0.39097 0.92677 0.29573 0.0
C2590 C 0.37645 0.90209 0.3022 0.0
C2591 C 0.38188 0.88409 0.36743 0.0
H2592 H 0.33573 0.88242 0.36504 0.0
C2593 C 0.33863 0.85425 0.4431 0.0
C2594 C 0.32726 0.86533 0.45179 0.0
C2595 C 0.34877 0.8581 0.42263 0.0
C2596 C 0.34864 0.88256 0.36573 0.0
H2597 H 0.40557 0.93423 0.32788 0.0
H2598 H 0.3973 0.91251 0.35589 0.0
H2599 H 0.35017 0.89466 0.32997 0.0
H2600 H 0.31827 0.88941 0.44695 0.0
H2601 H 0.33575 0.89596 0.41141 0.0
H2602 H 0.37993 0.87283 0.40439 0.0
C2603 C 0.39301 0.91265 0.33628 0.0
C2604 C 0.35697 0.88943 0.34551 0.0
C2605 C 0.39763 0.9252 0.32032 0.0
C2606 C 0.3267 0.88051 0.44049 0.0
C2607 C 0.33669 0.88427 0.42012 0.0
C2608 C 0.37346 0.87713 0.38777 0.0
C2609 C 0.38179 0.90137 0.32776 0.0
C2610 C 0.37365 0.89085 0.34653 0.0
C2611 C 0.34752 0.87301 0.41062 0.0
C2612 C 0.35675 0.87696 0.38744 0.0
H2613 H 0.37584 0.91548 0.2673 0.0
H2614 H 0.36811 0.89337 0.29484 0.0
H2615 H 0.39474 0.88485 0.36861 0.0
H2616 H 0.33938 0.84249 0.45155 0.0
H2617 H 0.35713 0.8493 0.4156 0.0
C2618 C 0.39681 0.08458 0.69199 0.0
C2619 C 0.38665 0.07232 0.70045 0.0
C2620 C 0.39214 0.09461 0.67182 0.0
C2621 C 0.36645 0.09421 0.61563 0.0
H2622 H 0.36335 0.14016 0.62122 0.0
C2623 C 0.33341 0.12817 0.53861 0.0
C2624 C 0.32148 0.1382 0.54838 0.0
C2625 C 0.34593 0.12319 0.55424 0.0
C2626 C 0.36428 0.12735 0.61931 0.0
H2627 H 0.36342 0.06139 0.69511 0.0
H2628 H 0.35545 0.07868 0.66013 0.0
H2629 H 0.3764 0.12485 0.65545 0.0
H2630 H 0.31393 0.15193 0.58145 0.0
H2631 H 0.33544 0.14269 0.60918 0.0
H2632 H 0.3536 0.09629 0.5806 0.0
C2633 C 0.36706 0.08043 0.6688 0.0
C2634 C 0.37185 0.11865 0.63876 0.0
C2635 C 0.37163 0.07057 0.68891 0.0
C2636 C 0.32292 0.1441 0.5735 0.0
C2637 C 0.33534 0.1389 0.58931 0.0
C2638 C 0.35897 0.10283 0.59629 0.0
C2639 C 0.37735 0.09234 0.65978 0.0
C2640 C 0.37241 0.10196 0.63745 0.0
C2641 C 0.34661 0.12788 0.58012 0.0
C2642 C 0.35731 0.11945 0.59828 0.0
H2643 H 0.40843 0.08626 0.70062 0.0
H2644 H 0.40021 0.10379 0.66518 0.0
H2645 H 0.36689 0.08134 0.61412 0.0
H2646 H 0.3328 0.12373 0.51911 0.0
H2647 H 0.35465 0.11501 0.5464 0.0
C2648 C 0.83447 0.85425 0.05115 0.0
C2649 C 0.825 0.86578 0.03883 0.0
C2650 C 0.8447 0.85867 0.07116 0.0
C2651 C 0.84542 0.88751 0.12157 0.0
H2652 H 0.89115 0.88222 0.12795 0.0
C2653 C 0.87642 0.91603 0.2054 0.0
C2654 C 0.88875 0.9263 0.19785 0.0
C2655 C 0.87131 0.90392 0.1891 0.0
C2656 C 0.87836 0.88361 0.12649 0.0
H2657 H 0.81982 0.89107 0.03619 0.0
H2658 H 0.83751 0.89866 0.07103 0.0
H2659 H 0.87707 0.87057 0.09097 0.0
H2660 H 0.90644 0.93108 0.16851 0.0
H2661 H 0.89705 0.91029 0.13944 0.0
H2662 H 0.84647 0.90109 0.15597 0.0
C2663 C 0.83685 0.88623 0.06551 0.0
C2664 C 0.87035 0.87692 0.10549 0.0
C2665 C 0.82672 0.88186 0.04563 0.0
C2666 C 0.89679 0.92341 0.17466 0.0
C2667 C 0.8915 0.91141 0.15813 0.0
C2668 C 0.85331 0.89406 0.14247 0.0
C2669 C 0.84549 0.87464 0.07897 0.0
C2670 C 0.85391 0.87932 0.10256 0.0
C2671 C 0.87823 0.90205 0.16472 0.0
C2672 C 0.86992 0.89257 0.14485 0.0
H2673 H 0.83344 0.84177 0.04615 0.0
H2674 H 0.85132 0.84957 0.08135 0.0
H2675 H 0.83269 0.88938 0.11974 0.0
H2676 H 0.87027 0.91773 0.22346 0.0
H2677 H 0.86129 0.89664 0.19494 0.0
C2678 C 0.82692 0.14877 0.92548 0.0
C2679 C 0.8247 0.14104 0.94911 0.0
C2680 C 0.83912 0.14393 0.90898 0.0
C2681 C 0.85897 0.10662 0.89514 0.0
H2682 H 0.87869 0.13072 0.84007 0.0
C2683 C 0.86794 0.07938 0.79812 0.0
C2684 C 0.88365 0.07842 0.78903 0.0
C2685 C 0.86417 0.08944 0.81838 0.0
C2686 C 0.87346 0.12392 0.85561 0.0
H2687 H 0.8346 0.12368 0.97551 0.0
H2688 H 0.8561 0.11554 0.94708 0.0
H2689 H 0.86742 0.14481 0.87729 0.0
H2690 H 0.90752 0.0881 0.79269 0.0
H2691 H 0.90077 0.1059 0.82859 0.0
H2692 H 0.86434 0.08585 0.87315 0.0
C2693 C 0.84813 0.12492 0.94084 0.0
C2694 C 0.86696 0.13192 0.87675 0.0
C2695 C 0.8358 0.12956 0.9571 0.0
C2696 C 0.89533 0.08855 0.79947 0.0
C2697 C 0.89151 0.09872 0.81989 0.0
C2698 C 0.86537 0.09871 0.87413 0.0
C2699 C 0.84939 0.13144 0.91606 0.0
C2700 C 0.8592 0.12334 0.89634 0.0
C2701 C 0.87601 0.09878 0.82995 0.0
C2702 C 0.87212 0.1073 0.85381 0.0
H2703 H 0.81861 0.15779 0.91899 0.0
H2704 H 0.83972 0.14916 0.88999 0.0
H2705 H 0.8529 0.0996 0.90959 0.0
H2706 H 0.85861 0.07195 0.79016 0.0
H2707 H 0.85207 0.08954 0.82564 0.0
C2708 C 0.6626 0.13143 0.54084 0.0
C2709 C 0.67501 0.14077 0.55083 0.0
C2710 C 0.65005 0.12661 0.55655 0.0
C2711 C 0.6334 0.1294 0.62318 0.0
H2712 H 0.63004 0.08361 0.61501 0.0
C2713 C 0.60542 0.08505 0.69801 0.0
C2714 C 0.61611 0.07268 0.70404 0.0
C2715 C 0.60865 0.09542 0.67758 0.0
C2716 C 0.63067 0.09643 0.61736 0.0
H2717 H 0.68337 0.15361 0.58431 0.0
H2718 H 0.66189 0.14458 0.61216 0.0
H2719 H 0.64191 0.09936 0.58111 0.0
H2720 H 0.63879 0.06186 0.69401 0.0
H2721 H 0.64428 0.07979 0.65862 0.0
H2722 H 0.6231 0.12598 0.66054 0.0
C2723 C 0.66159 0.14122 0.59209 0.0
C2724 C 0.63732 0.10552 0.59781 0.0
C2725 C 0.67401 0.14629 0.57621 0.0
C2726 C 0.63021 0.07114 0.68975 0.0
C2727 C 0.63333 0.08135 0.66939 0.0
C2728 C 0.62671 0.12022 0.64286 0.0
C2729 C 0.64986 0.13074 0.58271 0.0
C2730 C 0.63939 0.12203 0.60089 0.0
C2731 C 0.6225 0.0934 0.66285 0.0
C2732 C 0.62598 0.10359 0.64047 0.0
H2733 H 0.6629 0.12733 0.52113 0.0
H2734 H 0.64098 0.11889 0.54856 0.0
H2735 H 0.63462 0.14212 0.62595 0.0
H2736 H 0.59448 0.08656 0.70877 0.0
H2737 H 0.60018 0.10472 0.67291 0.0
C2738 C 0.62464 0.91596 0.29411 0.0
C2739 C 0.60946 0.92296 0.29408 0.0
C2740 C 0.62797 0.90314 0.31019 0.0
C2741 C 0.6166 0.88803 0.37248 0.0
H2742 H 0.64899 0.85677 0.35578 0.0
C2743 C 0.65453 0.8569 0.45036 0.0
C2744 C 0.67066 0.86061 0.44631 0.0
C2745 C 0.6434 0.85914 0.43065 0.0
C2746 C 0.63972 0.86522 0.36068 0.0
H2747 H 0.58559 0.9215 0.3099 0.0
H2748 H 0.59153 0.89909 0.33843 0.0
H2749 H 0.63502 0.87064 0.32126 0.0
H2750 H 0.68798 0.86872 0.41832 0.0
H2751 H 0.66871 0.8724 0.38401 0.0
H2752 H 0.62204 0.88329 0.41192 0.0
C2753 C 0.60083 0.9036 0.32596 0.0
C2754 C 0.63178 0.87319 0.34097 0.0
C2755 C 0.59744 0.91641 0.30965 0.0
C2756 C 0.6756 0.86589 0.42203 0.0
C2757 C 0.66459 0.86781 0.4023 0.0
C2758 C 0.6245 0.87998 0.39221 0.0
C2759 C 0.61623 0.89704 0.32673 0.0
C2760 C 0.62085 0.88536 0.34672 0.0
C2761 C 0.64836 0.86472 0.4065 0.0
C2762 C 0.63677 0.86921 0.38642 0.0
H2763 H 0.63412 0.92064 0.28219 0.0
H2764 H 0.64004 0.89856 0.3106 0.0
H2765 H 0.60826 0.89736 0.37754 0.0
H2766 H 0.65045 0.8528 0.46896 0.0
H2767 H 0.63092 0.85678 0.43435 0.0
C2768 C 0.62766 0.58111 0.28992 0.0
C2769 C 0.61209 0.57503 0.29065 0.0
C2770 C 0.63283 0.5917 0.30863 0.0
C2771 C 0.62271 0.61766 0.36257 0.0
H2772 H 0.6601 0.59796 0.39281 0.0
C2773 C 0.66702 0.64599 0.43604 0.0
C2774 C 0.67337 0.63549 0.4544 0.0
C2775 C 0.65604 0.64046 0.41789 0.0
C2776 C 0.64957 0.60354 0.38479 0.0
H2777 H 0.58924 0.57643 0.30997 0.0
H2778 H 0.59852 0.59485 0.34333 0.0
H2779 H 0.648 0.58614 0.35515 0.0
H2780 H 0.6719 0.61163 0.4702 0.0
H2781 H 0.65266 0.60211 0.43889 0.0
H2782 H 0.62456 0.63521 0.39253 0.0
C2783 C 0.60661 0.59143 0.32809 0.0
C2784 C 0.64278 0.59689 0.36303 0.0
C2785 C 0.60136 0.58084 0.30914 0.0
C2786 C 0.66748 0.61988 0.45589 0.0
C2787 C 0.65644 0.61444 0.43804 0.0
C2788 C 0.62968 0.62449 0.38442 0.0
C2789 C 0.62259 0.59633 0.32856 0.0
C2790 C 0.62939 0.60391 0.3516 0.0
C2791 C 0.65124 0.62444 0.41813 0.0
C2792 C 0.64313 0.61739 0.39571 0.0
H2793 H 0.6361 0.57712 0.27557 0.0
H2794 H 0.64516 0.59556 0.30842 0.0
H2795 H 0.61232 0.6232 0.35404 0.0
H2796 H 0.67128 0.65813 0.43465 0.0
H2797 H 0.6522 0.64838 0.40267 0.0
C2798 C 0.67673 0.36859 0.56654 0.0
C2799 C 0.67169 0.36413 0.54188 0.0
C2800 C 0.66583 0.36979 0.58655 0.0
C2801 C 0.62536 0.3807 0.59845 0.0
H2802 H 0.63735 0.37012 0.66835 0.0
C2803 C 0.59809 0.41348 0.68487 0.0
C2804 C 0.61018 0.42066 0.69954 0.0
C2805 C 0.60177 0.40123 0.66764 0.0
C2806 C 0.63368 0.37296 0.64894 0.0
H2807 H 0.65136 0.35706 0.51886 0.0
H2808 H 0.63203 0.35968 0.55406 0.0
H2809 H 0.6512 0.35752 0.63248 0.0
H2810 H 0.63535 0.42004 0.70894 0.0
H2811 H 0.64174 0.39879 0.67906 0.0
H2812 H 0.60867 0.39704 0.61488 0.0
C2813 C 0.64451 0.36201 0.55778 0.0
C2814 C 0.64158 0.36575 0.62846 0.0
C2815 C 0.65553 0.36055 0.53772 0.0
C2816 C 0.62581 0.41484 0.69772 0.0
C2817 C 0.62943 0.40252 0.68082 0.0
C2818 C 0.61745 0.38793 0.61898 0.0
C2819 C 0.6496 0.36673 0.58234 0.0
C2820 C 0.63812 0.37028 0.60309 0.0
C2821 C 0.61753 0.39583 0.66518 0.0
C2822 C 0.62221 0.3848 0.64436 0.0
H2823 H 0.68912 0.3713 0.57039 0.0
H2824 H 0.67005 0.37376 0.60514 0.0
H2825 H 0.62248 0.38442 0.57908 0.0
H2826 H 0.58592 0.4177 0.68598 0.0
H2827 H 0.5924 0.39627 0.6558 0.0
C2828 C 0.83267 0.37867 0.95092 0.0
C2829 C 0.82737 0.3629 0.95354 0.0
C2830 C 0.84555 0.38223 0.93511 0.0
C2831 C 0.86368 0.36916 0.87645 0.0
H2832 H 0.89233 0.40412 0.89186 0.0
C2833 C 0.89414 0.4064 0.797 0.0
C2834 C 0.88955 0.42243 0.79956 0.0
C2835 C 0.89206 0.39578 0.81746 0.0
C2836 C 0.88463 0.39415 0.88736 0.0
H2837 H 0.83173 0.33839 0.94235 0.0
H2838 H 0.85416 0.34476 0.91398 0.0
H2839 H 0.87831 0.39068 0.92676 0.0
H2840 H 0.87995 0.4401 0.8257 0.0
H2841 H 0.87648 0.42172 0.86124 0.0
H2842 H 0.86913 0.37342 0.83687 0.0
C2843 C 0.84835 0.35428 0.92443 0.0
C2844 C 0.8766 0.38649 0.90727 0.0
C2845 C 0.83554 0.35067 0.9406 0.0
C2846 C 0.88347 0.42779 0.82311 0.0
C2847 C 0.88168 0.4173 0.84357 0.0
C2848 C 0.87174 0.37682 0.85649 0.0
C2849 C 0.85336 0.37013 0.92137 0.0
C2850 C 0.86534 0.37459 0.90183 0.0
C2851 C 0.88573 0.40116 0.84087 0.0
C2852 C 0.88152 0.39 0.86172 0.0
H2853 H 0.8267 0.38834 0.96076 0.0
H2854 H 0.84893 0.3946 0.93278 0.0
H2855 H 0.85505 0.36003 0.87171 0.0
H2856 H 0.89887 0.40199 0.779 0.0
H2857 H 0.89516 0.38336 0.81491 0.0
C2858 C 0.87587 0.58363 0.20954 0.0
C2859 C 0.88919 0.57427 0.20338 0.0
C2860 C 0.87063 0.5954 0.1927 0.0
C2861 C 0.87896 0.61704 0.13189 0.0
H2862 H 0.83433 0.60795 0.11915 0.0
C2863 C 0.83593 0.64663 0.05568 0.0
C2864 C 0.82731 0.63525 0.04153 0.0
C2865 C 0.84597 0.64179 0.07571 0.0
C2866 C 0.84677 0.61069 0.12261 0.0
H2867 H 0.9084 0.57087 0.17609 0.0
H2868 H 0.89891 0.59115 0.14614 0.0
H2869 H 0.84738 0.59619 0.15608 0.0
H2870 H 0.82355 0.60993 0.03557 0.0
H2871 H 0.84092 0.6016 0.07038 0.0
H2872 H 0.87817 0.63119 0.09744 0.0
C2873 C 0.89264 0.58952 0.16413 0.0
C2874 C 0.85422 0.60412 0.14391 0.0
C2875 C 0.898 0.57782 0.18117 0.0
C2876 C 0.82978 0.619 0.04644 0.0
C2877 C 0.83974 0.61421 0.06631 0.0
C2878 C 0.87138 0.62379 0.11051 0.0
C2879 C 0.87848 0.59789 0.16922 0.0
C2880 C 0.87046 0.60694 0.14855 0.0
C2881 C 0.84744 0.62556 0.08168 0.0
C2882 C 0.85534 0.62026 0.10543 0.0
H2883 H 0.86906 0.58141 0.22683 0.0
H2884 H 0.85987 0.60192 0.19735 0.0
H2885 H 0.89148 0.61941 0.13509 0.0
H2886 H 0.83431 0.65924 0.05218 0.0
H2887 H 0.85184 0.65071 0.08739 0.0
C2888 C 0.33401 0.37547 0.54436 0.0
C2889 C 0.32771 0.36002 0.54312 0.0
C2890 C 0.34682 0.37883 0.56044 0.0
C2891 C 0.37713 0.38266 0.59036 0.0
H2892 H 0.36755 0.3715 0.66095 0.0
C2893 C 0.3926 0.40446 0.70049 0.0
C2894 C 0.38839 0.4205 0.69686 0.0
C2895 C 0.3908 0.39349 0.68045 0.0
C2896 C 0.37074 0.37435 0.64133 0.0
H2897 H 0.33032 0.33576 0.55686 0.0
H2898 H 0.35267 0.34177 0.58555 0.0
H2899 H 0.3538 0.35784 0.62611 0.0
H2900 H 0.37982 0.43786 0.66927 0.0
H2901 H 0.37686 0.41887 0.63443 0.0
H2902 H 0.39309 0.4001 0.60573 0.0
C2903 C 0.34766 0.35123 0.57393 0.0
C2904 C 0.36287 0.36653 0.62134 0.0
C2905 C 0.33489 0.34782 0.55756 0.0
C2906 C 0.38303 0.42554 0.67267 0.0
C2907 C 0.38153 0.4147 0.65263 0.0
C2908 C 0.38494 0.3905 0.61031 0.0
C2909 C 0.35359 0.36683 0.57579 0.0
C2910 C 0.3653 0.37131 0.59577 0.0
C2911 C 0.38515 0.39854 0.6564 0.0
C2912 C 0.3811 0.38705 0.63595 0.0
H2913 H 0.32883 0.38511 0.53333 0.0
H2914 H 0.35091 0.39104 0.56177 0.0
H2915 H 0.37946 0.38632 0.57077 0.0
H2916 H 0.39678 0.4003 0.719 0.0
H2917 H 0.39355 0.38106 0.68382 0.0
C2918 C 0.33571 0.62468 0.45564 0.0
C2919 C 0.32622 0.63784 0.44912 0.0
C2920 C 0.34765 0.61949 0.43908 0.0
C2921 C 0.36902 0.62767 0.37775 0.0
H2922 H 0.36084 0.58274 0.3665 0.0
C2923 C 0.39752 0.5843 0.30067 0.0
C2924 C 0.38578 0.57575 0.2872 0.0
C2925 C 0.39319 0.59441 0.32089 0.0
C2926 C 0.36336 0.59526 0.36958 0.0
H2927 H 0.32273 0.65682 0.42145 0.0
H2928 H 0.34321 0.64734 0.3919 0.0
H2929 H 0.34934 0.59583 0.40355 0.0
H2930 H 0.36031 0.57221 0.28258 0.0
H2931 H 0.35286 0.58971 0.31774 0.0
H2932 H 0.38255 0.62691 0.34267 0.0
C2933 C 0.34161 0.64119 0.41 0.0
C2934 C 0.35694 0.60274 0.39096 0.0
C2935 C 0.32977 0.64653 0.4268 0.0
C2936 C 0.36965 0.57839 0.29293 0.0
C2937 C 0.36537 0.58842 0.31298 0.0
C2938 C 0.37559 0.62007 0.35627 0.0
C2939 C 0.35014 0.62718 0.41546 0.0
C2940 C 0.35935 0.61911 0.395 0.0
C2941 C 0.3771 0.59602 0.32771 0.0
C2942 C 0.37235 0.60392 0.35173 0.0
H2943 H 0.33349 0.61798 0.47305 0.0
H2944 H 0.3543 0.60887 0.44406 0.0
H2945 H 0.37111 0.64029 0.38049 0.0
H2946 H 0.41005 0.58255 0.29653 0.0
H2947 H 0.40239 0.60021 0.33209 0.0
C2948 C 0.16472 0.62927 0.04285 0.0
C2949 C 0.17699 0.63917 0.05184 0.0
C2950 C 0.15256 0.62441 0.05931 0.0
C2951 C 0.13624 0.62853 0.12585 0.0
H2952 H 0.13352 0.58253 0.12073 0.0
C2953 C 0.1066 0.58512 0.20094 0.0
C2954 C 0.11712 0.57285 0.20812 0.0
C2955 C 0.11052 0.59541 0.18071 0.0
C2956 C 0.13399 0.5954 0.12223 0.0
H2957 H 0.18549 0.65285 0.08437 0.0
H2958 H 0.16465 0.64381 0.11349 0.0
H2959 H 0.14549 0.59754 0.08604 0.0
H2960 H 0.14032 0.56231 0.20073 0.0
H2961 H 0.14699 0.58009 0.16567 0.0
H2962 H 0.12554 0.62595 0.16312 0.0
C2963 C 0.16419 0.64003 0.09363 0.0
C2964 C 0.1407 0.60406 0.10223 0.0
C2965 C 0.17624 0.6451 0.07701 0.0
C2966 C 0.13183 0.57147 0.19547 0.0
C2967 C 0.13566 0.58161 0.17533 0.0
C2968 C 0.12945 0.61978 0.14597 0.0
C2969 C 0.1526 0.6291 0.08522 0.0
C2970 C 0.14244 0.62067 0.10415 0.0
C2971 C 0.12492 0.59342 0.16739 0.0
C2972 C 0.12891 0.6031 0.14466 0.0
H2973 H 0.16481 0.6248 0.02334 0.0
H2974 H 0.14359 0.6163 0.05207 0.0
H2975 H 0.13724 0.64133 0.12773 0.0
H2976 H 0.09521 0.58651 0.21044 0.0
H2977 H 0.10212 0.60453 0.17492 0.0
C2978 C 0.11871 0.42882 0.81624 0.0
C2979 C 0.11388 0.4239 0.7917 0.0
C2980 C 0.12049 0.41778 0.83596 0.0
C2981 C 0.13224 0.37737 0.84648 0.0
H2982 H 0.12183 0.3879 0.91704 0.0
C2983 C 0.16552 0.34829 0.9308 0.0
C2984 C 0.17226 0.35989 0.94695 0.0
C2985 C 0.15332 0.35238 0.91371 0.0
C2986 C 0.12468 0.38467 0.89743 0.0
H2987 H 0.10676 0.40361 0.76861 0.0
H2988 H 0.11038 0.38408 0.80324 0.0
H2989 H 0.10905 0.4024 0.88201 0.0
H2990 H 0.17085 0.38458 0.95905 0.0
H2991 H 0.1498 0.3917 0.92932 0.0
H2992 H 0.14877 0.3605 0.86185 0.0
C2993 C 0.11256 0.39657 0.80711 0.0
C2994 C 0.11735 0.39293 0.87743 0.0
C2995 C 0.11052 0.40771 0.78738 0.0
C2996 C 0.16602 0.3754 0.94669 0.0
C2997 C 0.15379 0.37944 0.92984 0.0
C2998 C 0.13963 0.36914 0.86652 0.0
C2999 C 0.11765 0.40153 0.83154 0.0
C3000 C 0.12171 0.38993 0.85185 0.0
C3001 C 0.14754 0.36808 0.91276 0.0
C3002 C 0.13656 0.37334 0.89217 0.0
H3003 H 0.12127 0.44123 0.8202 0.0
H3004 H 0.1247 0.42191 0.85447 0.0
H3005 H 0.13584 0.37486 0.82692 0.0
H3006 H 0.17003 0.3362 0.9307 0.0
H3007 H 0.14868 0.34338 0.90082 0.0
C3008 C 0.21515 0.18896 0.00469 0.0
C3009 C 0.22591 0.18053 0.02031 0.0
C3010 C 0.21462 0.20557 0.00534 0.0
C3011 C 0.22582 0.24046 0.04464 0.0
H3012 H 0.22227 0.263 0.97987 0.0
C3013 C 0.23507 0.30849 0.03544 0.0
C3014 C 0.22461 0.31681 0.01914 0.0
C3015 C 0.23486 0.29186 0.0363 0.0
C3016 C 0.22308 0.25689 -0.00186 0.0
H3017 H 0.24438 0.183 0.04921 0.0
H3018 H 0.24358 0.21203 0.05008 0.0
H3019 H 0.22257 0.234 0.98017 0.0
H3020 H 0.20558 0.31412 0.99122 0.0
H3021 H 0.20519 0.28515 0.99287 0.0
H3022 H 0.22642 0.26341 0.06256 0.0
C3023 C 0.23544 0.20575 0.03752 0.0
C3024 C 0.22324 0.24026 -0.00168 0.0
C3025 C 0.23597 0.18911 0.03688 0.0
C3026 C 0.21386 0.30812 0.0039 0.0
C3027 C 0.21368 0.2915 0.00474 0.0
C3028 C 0.22567 0.25711 0.04445 0.0
C3029 C 0.22484 0.21417 0.0216 0.0
C3030 C 0.22461 0.23185 0.02156 0.0
C3031 C 0.22422 0.28318 0.02085 0.0
C3032 C 0.22429 0.2655 0.02119 0.0
H3033 H 0.20713 0.18274 0.99182 0.0
H3034 H 0.20612 0.21167 0.99316 0.0
H3035 H 0.22667 0.23433 0.06289 0.0
H3036 H 0.2435 0.3148 0.04744 0.0
H3037 H 0.24324 0.28578 0.04872 0.0
C3038 C 0.9411 0.96386 0.2572 0.0
C3039 C 0.93294 0.97614 0.27002 0.0
C3040 C 0.95774 0.96315 0.25778 0.0
C3041 C 0.99246 0.97725 0.29477 0.0
H3042 H 0.01595 0.96837 0.23226 0.0
C3043 C 0.05996 0.98801 0.28638 0.0
C3044 C 0.06909 0.97677 0.27282 0.0
C3045 C 0.04336 0.98707 0.28646 0.0
C3046 C 0.00956 0.97065 0.24996 0.0
H3047 H 0.93591 0.99747 0.29308 0.0
H3048 H 0.96485 0.99622 0.29405 0.0
H3049 H 0.98689 0.96826 0.23152 0.0
H3050 H 0.06789 0.95564 0.24887 0.0
H3051 H 0.0389 0.95395 0.24923 0.0
H3052 H 0.0151 0.97972 0.31319 0.0
C3053 C 0.95838 0.987 0.28391 0.0
C3054 C 0.99292 0.97059 0.24952 0.0
C3055 C 0.94178 0.98773 0.28329 0.0
C3056 C 0.06122 0.96453 0.25944 0.0
C3057 C 0.0446 0.9636 0.25954 0.0
C3058 C 0.00909 0.97728 0.29521 0.0
C3059 C 0.96654 0.97469 0.27122 0.0
C3060 C 0.9842 0.97405 0.27187 0.0
C3061 C 0.03549 0.97488 0.27301 0.0
C3062 C 0.01783 0.97413 0.27276 0.0
H3063 H 0.93466 0.95472 0.24682 0.0
H3064 H 0.96369 0.95345 0.24799 0.0
H3065 H 0.98606 0.97967 0.3124 0.0
H3066 H 0.06561 0.99767 0.29671 0.0
H3067 H 0.03668 0.9961 0.29669 0.0
C3068 C 0.28472 0.69034 0.50235 0.0
C3069 C 0.27319 0.682 0.5166 0.0
C3070 C 0.28496 0.70698 0.50231 0.0
C3071 C 0.27129 0.74179 0.53953 0.0
H3072 H 0.27934 0.76479 0.47625 0.0
C3073 C 0.26241 0.8096 0.53106 0.0
C3074 C 0.27401 0.81829 0.51753 0.0
C3075 C 0.26257 0.79298 0.53087 0.0
C3076 C 0.27726 0.75853 0.49412 0.0
H3077 H 0.25277 0.68465 0.54184 0.0
H3078 H 0.25309 0.71366 0.54148 0.0
H3079 H 0.27898 0.73574 0.47595 0.0
H3080 H 0.29486 0.81627 0.49307 0.0
H3081 H 0.29515 0.78722 0.49286 0.0
H3082 H 0.2695 0.76458 0.55767 0.0
C3083 C 0.26209 0.70732 0.53063 0.0
C3084 C 0.27705 0.74189 0.49396 0.0
C3085 C 0.26185 0.69069 0.5307 0.0
C3086 C 0.28572 0.80995 0.50367 0.0
C3087 C 0.28586 0.79331 0.50344 0.0
C3088 C 0.27148 0.75842 0.53968 0.0
C3089 C 0.27367 0.71566 0.51649 0.0
C3090 C 0.27401 0.73334 0.51665 0.0
C3091 C 0.2743 0.78464 0.5171 0.0
C3092 C 0.27441 0.76697 0.51697 0.0
H3093 H 0.29367 0.68404 0.49135 0.0
H3094 H 0.29416 0.71303 0.49148 0.0
H3095 H 0.26921 0.73555 0.55742 0.0
H3096 H 0.2531 0.8156 0.54171 0.0
H3097 H 0.25335 0.78664 0.54125 0.0
C3098 C 0.44285 0.0109 0.78921 0.0
C3099 C 0.43452 0.02151 0.77319 0.0
C3100 C 0.45948 0.0111 0.79008 0.0
C3101 C 0.49441 0.03633 0.77578 0.0
H3102 H 0.51719 0.99614 0.7761 0.0
C3103 C 0.5624 0.03218 0.76022 0.0
C3104 C 0.57092 0.02116 0.77523 0.0
C3105 C 0.54576 0.03249 0.76078 0.0
C3106 C 0.51101 0.00747 0.77636 0.0
H3107 H 0.43719 0.04072 0.74561 0.0
H3108 H 0.46622 0.04095 0.747 0.0
H3109 H 0.48816 0.99619 0.77546 0.0
H3110 H 0.56858 0.00197 0.80292 0.0
H3111 H 0.53956 0.00263 0.80404 0.0
H3112 H 0.51728 0.0476 0.77658 0.0
C3113 C 0.45986 0.03259 0.75909 0.0
C3114 C 0.49437 0.0075 0.77597 0.0
C3115 C 0.44321 0.03239 0.75818 0.0
C3116 C 0.56241 0.01057 0.79102 0.0
C3117 C 0.54576 0.01088 0.79156 0.0
C3118 C 0.51106 0.0363 0.77618 0.0
C3119 C 0.46818 0.02191 0.77498 0.0
C3120 C 0.48587 0.02192 0.77563 0.0
C3121 C 0.53725 0.0218 0.77636 0.0
C3122 C 0.51955 0.02187 0.77642 0.0
H3123 H 0.43655 0.00241 0.80113 0.0
H3124 H 0.46553 0.00287 0.80279 0.0
H3125 H 0.48821 0.04765 0.77591 0.0
H3126 H 0.56856 0.04051 0.74781 0.0
H3127 H 0.53957 0.04092 0.74861 0.0
C3128 C 0.23678 0.81125 0.95976 0.0
C3129 C 0.22598 0.81984 0.97503 0.0
C3130 C 0.23663 0.79461 0.95975 0.0
C3131 C 0.22376 0.76014 -0.00158 0.0
H3132 H 0.22884 0.73694 0.93456 0.0
C3133 C 0.21514 0.69208 0.99168 0.0
C3134 C 0.22611 0.68356 0.97658 0.0
C3135 C 0.21503 0.70871 0.99143 0.0
C3136 C 0.22758 0.74325 0.95258 0.0
H3137 H 0.20643 0.81765 0.00212 0.0
H3138 H 0.2061 0.78866 0.0019 0.0
H3139 H 0.22876 0.76599 0.9341 0.0
H3140 H 0.24562 0.68589 0.94946 0.0
H3141 H 0.24549 0.71489 0.94925 0.0
H3142 H 0.22259 0.73741 0.01691 0.0
C3143 C 0.21483 0.79479 0.99019 0.0
C3144 C 0.22753 0.75989 0.95232 0.0
C3145 C 0.21497 0.81142 0.9902 0.0
C3146 C 0.23698 0.69206 0.96128 0.0
C3147 C 0.23685 0.70869 0.96102 0.0
C3148 C 0.2238 0.74351 -0.00132 0.0
C3149 C 0.22568 0.78619 0.97501 0.0
C3150 C 0.22564 0.76852 0.97524 0.0
C3151 C 0.22587 0.7172 0.97607 0.0
C3152 C 0.22573 0.73488 0.97577 0.0
H3153 H 0.24544 0.81735 0.94787 0.0
H3154 H 0.24527 0.78833 0.94807 0.0
H3155 H 0.22252 0.76644 0.01646 0.0
H3156 H 0.20656 0.68591 0.00364 0.0
H3157 H 0.20629 0.71492 0.00301 0.0
C3158 C 0.56001 0.96672 0.23853 0.0
C3159 C 0.56889 0.97743 0.2235 0.0
C3160 C 0.54339 0.96678 0.23764 0.0
C3161 C 0.50915 0.97954 0.19813 0.0
H3162 H 0.48596 0.97543 0.26221 0.0
C3163 C 0.44093 0.98885 0.2058 0.0
C3164 C 0.43248 0.97824 0.22168 0.0
C3165 C 0.45758 0.98869 0.20535 0.0
C3166 C 0.49225 0.97641 0.24411 0.0
H3167 H 0.5672 0.99648 0.19544 0.0
H3168 H 0.53815 0.99667 0.19411 0.0
H3169 H 0.51497 0.97527 0.2626 0.0
H3170 H 0.43498 0.95898 0.24923 0.0
H3171 H 0.46395 0.95865 0.24825 0.0
H3172 H 0.48636 0.9807 0.17968 0.0
C3173 C 0.54408 0.98813 0.20642 0.0
C3174 C 0.50888 0.97632 0.24433 0.0
C3175 C 0.56074 0.98808 0.20732 0.0
C3176 C 0.44108 0.96738 0.23687 0.0
C3177 C 0.45771 0.96724 0.23643 0.0
C3178 C 0.49249 0.97964 0.19791 0.0
C3179 C 0.53522 0.97754 0.22171 0.0
C3180 C 0.51753 0.97782 0.22135 0.0
C3181 C 0.46616 0.97795 0.22079 0.0
C3182 C 0.48385 0.97802 0.2209 0.0
H3183 H 0.56587 0.95828 0.25111 0.0
H3184 H 0.53692 0.95829 0.24935 0.0
H3185 H 0.51546 0.98052 0.18006 0.0
H3186 H 0.43468 0.99735 0.19382 0.0
H3187 H 0.46375 0.99719 0.19327 0.0
C3188 C 0.26194 0.19103 0.4558 0.0
C3189 C 0.27267 0.18251 0.47136 0.0
C3190 C 0.26219 0.20767 0.45539 0.0
C3191 C 0.27492 0.24217 0.49397 0.0
H3192 H 0.27017 0.2655 0.43014 0.0
C3193 C 0.28424 0.30997 0.48837 0.0
C3194 C 0.27339 0.31881 0.47351 0.0
C3195 C 0.28422 0.29336 0.48752 0.0
C3196 C 0.27133 0.25915 0.44815 0.0
H3197 H 0.29224 0.18484 0.49838 0.0
H3198 H 0.29272 0.21381 0.49747 0.0
H3199 H 0.27009 0.23642 0.42961 0.0
H3200 H 0.25408 0.31704 0.44591 0.0
H3201 H 0.25396 0.288 0.44467 0.0
H3202 H 0.27612 0.26485 0.51255 0.0
C3203 C 0.28398 0.20763 0.48586 0.0
C3204 C 0.2713 0.2425 0.44784 0.0
C3205 C 0.28375 0.19101 0.48626 0.0
C3206 C 0.2626 0.31062 0.45762 0.0
C3207 C 0.26259 0.29397 0.45678 0.0
C3208 C 0.27494 0.2588 0.49428 0.0
C3209 C 0.27314 0.21615 0.47055 0.0
C3210 C 0.27313 0.23383 0.47075 0.0
C3211 C 0.27336 0.28516 0.47181 0.0
C3212 C 0.27319 0.26748 0.47138 0.0
H3213 H 0.25325 0.18487 0.44407 0.0
H3214 H 0.25359 0.2139 0.44357 0.0
H3215 H 0.27607 0.23585 0.51201 0.0
H3216 H 0.29277 0.31587 0.50072 0.0
H3217 H 0.29283 0.28693 0.49904 0.0
C3218 C 0.05883 0.01648 0.71503 0.0
C3219 C 0.06742 0.02798 0.72895 0.0
C3220 C 0.0422 0.01648 0.7152 0.0
C3221 C 0.00732 0.04203 0.72759 0.0
H3222 H 0.98511 0.00167 0.73315 0.0
C3223 C 0.93891 0.0376 0.74033 0.0
C3224 C 0.93106 0.02572 0.7261 0.0
C3225 C 0.95556 0.03815 0.74118 0.0
C3226 C 0.99113 0.01302 0.73131 0.0
H3227 H 0.06518 0.04854 0.75393 0.0
H3228 H 0.03612 0.04846 0.75436 0.0
H3229 H 0.01413 0.00216 0.73373 0.0
H3230 H 0.9346 0.00509 0.70164 0.0
H3231 H 0.96354 0.0062 0.70284 0.0
H3232 H 0.98428 0.05288 0.72507 0.0
C3233 C 0.0423 0.03954 0.74311 0.0
C3234 C 0.00776 0.01331 0.73166 0.0
C3235 C 0.05896 0.03952 0.74297 0.0
C3236 C 0.94023 0.01444 0.71272 0.0
C3237 C 0.95685 0.01498 0.71359 0.0
C3238 C 0.99066 0.04175 0.72723 0.0
C3239 C 0.03374 0.02797 0.7293 0.0
C3240 C 0.01605 0.02779 0.72962 0.0
C3241 C 0.96471 0.02681 0.72788 0.0
C3242 C 0.98239 0.02722 0.72892 0.0
H3243 H 0.06493 0.00738 0.70406 0.0
H3244 H 0.03597 0.00754 0.70408 0.0
H3245 H 0.01336 0.05337 0.72569 0.0
H3246 H 0.93223 0.04647 0.7509 0.0
H3247 H 0.96126 0.04732 0.75257 0.0
C3248 C 0.76199 0.80958 0.9583 0.0
C3249 C 0.77293 0.8186 0.97266 0.0
C3250 C 0.76277 0.79296 0.9583 0.0
C3251 C 0.77833 0.759 0.99577 0.0
H3252 H 0.77077 0.73558 0.93276 0.0
C3253 C 0.78649 0.6907 0.98823 0.0
C3254 C 0.77454 0.68236 0.97489 0.0
C3255 C 0.78689 0.70735 0.98781 0.0
C3256 C 0.77278 0.74195 0.95055 0.0
H3257 H 0.79339 0.81718 -0.00191 0.0
H3258 H 0.79484 0.78823 -0.00219 0.0
H3259 H 0.77041 0.76461 0.93215 0.0
H3260 H 0.75349 0.68505 0.95102 0.0
H3261 H 0.75424 0.71399 0.95031 0.0
H3262 H 0.78068 0.73631 0.01415 0.0
C3263 C 0.78551 0.794 0.98686 0.0
C3264 C 0.77255 0.75858 0.95021 0.0
C3265 C 0.78472 0.81062 0.9869 0.0
C3266 C 0.76299 0.69105 0.96124 0.0
C3267 C 0.76343 0.70766 0.96076 0.0
C3268 C 0.7786 0.74236 0.99609 0.0
C3269 C 0.77452 0.78498 0.97262 0.0
C3270 C 0.77521 0.7673 0.97285 0.0
C3271 C 0.77538 0.716 0.974 0.0
C3272 C 0.7757 0.73366 0.97352 0.0
H3273 H 0.75274 0.81533 0.94715 0.0
H3274 H 0.75399 0.78636 0.9474 0.0
H3275 H 0.78021 0.76535 0.01361 0.0
H3276 H 0.79558 0.68439 -0.00109 0.0
H3277 H 0.79633 0.71345 -0.00197 0.0
C3278 C 0.73479 0.1932 0.46098 0.0
C3279 C 0.72344 0.18438 0.47484 0.0
C3280 C 0.73406 0.20982 0.46034 0.0
C3281 C 0.71814 0.24429 0.49574 0.0
H3282 H 0.72668 0.26688 0.43225 0.0
C3283 C 0.71146 0.31253 0.48742 0.0
C3284 C 0.72353 0.32066 0.47404 0.0
C3285 C 0.71065 0.29591 0.48682 0.0
C3286 C 0.72441 0.26075 0.45018 0.0
H3287 H 0.70238 0.18617 0.49889 0.0
H3288 H 0.7011 0.21517 0.49764 0.0
H3289 H 0.72675 0.23783 0.43259 0.0
H3290 H 0.74421 0.31764 0.44949 0.0
H3291 H 0.74285 0.28869 0.4486 0.0
H3292 H 0.71595 0.26719 0.5134 0.0
C3293 C 0.71064 0.20921 0.48746 0.0
C3294 C 0.72444 0.24411 0.45037 0.0
C3295 C 0.71135 0.19258 0.48807 0.0
C3296 C 0.73468 0.31179 0.45986 0.0
C3297 C 0.73387 0.29517 0.45926 0.0
C3298 C 0.71812 0.26093 0.49556 0.0
C3299 C 0.72199 0.21801 0.47359 0.0
C3300 C 0.72142 0.23569 0.47319 0.0
C3301 C 0.72189 0.28704 0.47283 0.0
C3302 C 0.72136 0.26935 0.47281 0.0
H3303 H 0.74436 0.18731 0.45079 0.0
H3304 H 0.74313 0.21626 0.44982 0.0
H3305 H 0.71598 0.23816 0.51371 0.0
H3306 H 0.70262 0.31899 0.49844 0.0
H3307 H 0.70115 0.29001 0.4972 0.0
C3308 C 0.78499 0.19228 0.00689 0.0
C3309 C 0.77376 0.18378 0.02152 0.0
C3310 C 0.78517 0.20891 0.00719 0.0
C3311 C 0.77195 0.24363 0.04518 0.0
H3312 H 0.77824 0.2665 0.98127 0.0
C3313 C 0.76261 0.31157 0.03623 0.0
C3314 C 0.77371 0.32013 0.02142 0.0
C3315 C 0.76288 0.29494 0.03665 0.0
C3316 C 0.77665 0.26029 -0.00068 0.0
H3317 H 0.75394 0.18615 0.04802 0.0
H3318 H 0.75417 0.21517 0.04829 0.0
H3319 H 0.77817 0.23748 0.98121 0.0
H3320 H 0.79386 0.31783 0.99556 0.0
H3321 H 0.79436 0.28885 0.99643 0.0
H3322 H 0.77038 0.26647 0.06326 0.0
C3323 C 0.76295 0.20895 0.03683 0.0
C3324 C 0.77661 0.24366 -0.00071 0.0
C3325 C 0.76276 0.19231 0.03654 0.0
C3326 C 0.7851 0.31165 0.00711 0.0
C3327 C 0.78535 0.29502 0.0075 0.0
C3328 C 0.77198 0.26027 0.0452 0.0
C3329 C 0.77414 0.21744 0.02212 0.0
C3330 C 0.77425 0.23513 0.02221 0.0
C3331 C 0.77422 0.28647 0.02221 0.0
C3332 C 0.77432 0.26879 0.02227 0.0
H3333 H 0.79369 0.1861 0.9952 0.0
H3334 H 0.79409 0.21509 0.99592 0.0
H3335 H 0.77034 0.23742 0.06322 0.0
H3336 H 0.75359 0.31769 0.04733 0.0
H3337 H 0.75401 0.28869 0.04791 0.0
C3338 C 0.71275 0.80961 0.5 0.0
C3339 C 0.724 0.81825 0.51436 0.0
C3340 C 0.71253 0.79298 0.5008 0.0
C3341 C 0.72615 0.75871 0.53977 0.0
H3342 H 0.71946 0.73496 0.47681 0.0
C3343 C 0.73729 0.6911 0.53257 0.0
C3344 C 0.72602 0.68198 0.51907 0.0
C3345 C 0.73659 0.70772 0.53219 0.0
C3346 C 0.72117 0.74143 0.49459 0.0
H3347 H 0.74387 0.81613 0.54083 0.0
H3348 H 0.74364 0.78716 0.54191 0.0
H3349 H 0.71909 0.764 0.47582 0.0
H3350 H 0.70518 0.68325 0.49443 0.0
H3351 H 0.70399 0.71226 0.4938 0.0
H3352 H 0.7284 0.73612 0.55847 0.0
C3353 C 0.73481 0.79324 0.53033 0.0
C3354 C 0.72094 0.75807 0.49404 0.0
C3355 C 0.735 0.80987 0.52958 0.0
C3356 C 0.71408 0.68989 0.50502 0.0
C3357 C 0.71342 0.70652 0.50457 0.0
C3358 C 0.72643 0.74208 0.54029 0.0
C3359 C 0.72358 0.7846 0.51595 0.0
C3360 C 0.72349 0.7669 0.51661 0.0
C3361 C 0.72465 0.71561 0.51819 0.0
C3362 C 0.72401 0.73326 0.5177 0.0
H3363 H 0.70403 0.81568 0.48818 0.0
H3364 H 0.70358 0.78669 0.48977 0.0
H3365 H 0.72788 0.76515 0.55757 0.0
H3366 H 0.74677 0.68544 0.54333 0.0
H3367 H 0.74556 0.7144 0.54257 0.0
C3368 C 0.55858 0.46317 0.75097 0.0
C3369 C 0.56689 0.47443 0.7658 0.0
C3370 C 0.54193 0.46285 0.75094 0.0
C3371 C 0.50675 0.4878 0.76541 0.0
H3372 H 0.48447 0.44734 0.76671 0.0
C3373 C 0.43891 0.48345 0.78144 0.0
C3374 C 0.43046 0.47279 0.76569 0.0
C3375 C 0.45555 0.48348 0.78157 0.0
C3376 C 0.49052 0.45873 0.7661 0.0
H3377 H 0.56411 0.49429 0.79212 0.0
H3378 H 0.53514 0.49353 0.79243 0.0
H3379 H 0.51353 0.44775 0.76664 0.0
H3380 H 0.43293 0.45366 0.73792 0.0
H3381 H 0.46197 0.45378 0.73812 0.0
H3382 H 0.48374 0.49877 0.76498 0.0
C3383 C 0.5415 0.48506 0.78056 0.0
C3384 C 0.50717 0.45896 0.76603 0.0
C3385 C 0.55813 0.4854 0.78055 0.0
C3386 C 0.43905 0.46204 0.75028 0.0
C3387 C 0.4557 0.46204 0.75048 0.0
C3388 C 0.49012 0.48756 0.76555 0.0
C3389 C 0.53319 0.47379 0.76575 0.0
C3390 C 0.51549 0.47351 0.7657 0.0
C3391 C 0.46413 0.47281 0.76604 0.0
C3392 C 0.48182 0.47303 0.76592 0.0
H3393 H 0.56491 0.45458 0.73929 0.0
H3394 H 0.5359 0.45416 0.73904 0.0
H3395 H 0.51277 0.4992 0.76471 0.0
H3396 H 0.43268 0.49185 0.79363 0.0
H3397 H 0.46171 0.49178 0.79402 0.0
C3398 C 0.06011 0.51099 0.2912 0.0
C3399 C 0.06912 0.52182 0.2766 0.0
C3400 C 0.0435 0.512 0.29171 0.0
C3401 C 0.00944 0.52788 0.25487 0.0
H3402 H 0.98613 0.51933 0.31768 0.0
C3403 C 0.9411 0.53515 0.26237 0.0
C3404 C 0.93283 0.52288 0.27507 0.0
C3405 C 0.95773 0.53578 0.26309 0.0
C3406 C 0.99248 0.52163 0.29995 0.0
H3407 H 0.06771 0.54243 0.25152 0.0
H3408 H 0.03875 0.5443 0.25274 0.0
H3409 H 0.01519 0.5193 0.31824 0.0
H3410 H 0.93565 0.50157 0.29822 0.0
H3411 H 0.96461 0.50274 0.29952 0.0
H3412 H 0.98671 0.53019 0.23661 0.0
C3413 C 0.04453 0.53486 0.26342 0.0
C3414 C 0.00912 0.5216 0.30025 0.0
C3415 C 0.06114 0.53383 0.26284 0.0
C3416 C 0.94159 0.51129 0.2885 0.0
C3417 C 0.95821 0.51197 0.2893 0.0
C3418 C 0.9928 0.52797 0.2546 0.0
C3419 C 0.0355 0.52389 0.27773 0.0
C3420 C 0.01781 0.52459 0.27767 0.0
C3421 C 0.96646 0.52421 0.27658 0.0
C3422 C 0.98414 0.52472 0.27709 0.0
H3423 H 0.06585 0.50159 0.30201 0.0
H3424 H 0.03692 0.50322 0.30266 0.0
H3425 H 0.01575 0.53 0.23705 0.0
H3426 H 0.93475 0.5443 0.25188 0.0
H3427 H 0.96376 0.54544 0.25329 0.0
C3428 C 0.06063 0.46329 0.74021 0.0
C3429 C 0.06852 0.4748 0.72525 0.0
C3430 C 0.04401 0.46232 0.74013 0.0
C3431 C 0.00855 0.47356 0.70236 0.0
H3432 H 0.98628 0.46888 0.76717 0.0
C3433 C 0.9408 0.48337 0.71179 0.0
C3434 C 0.93225 0.47308 0.72803 0.0
C3435 C 0.95743 0.48286 0.71104 0.0
C3436 C 0.99231 0.46997 0.74887 0.0
H3437 H 0.06503 0.49438 0.6986 0.0
H3438 H 0.0361 0.49265 0.69846 0.0
H3439 H 0.01533 0.46912 0.76654 0.0
H3440 H 0.93452 0.45401 0.75597 0.0
H3441 H 0.9635 0.45302 0.75441 0.0
H3442 H 0.98555 0.47446 0.68468 0.0
C3443 C 0.04279 0.48424 0.70999 0.0
C3444 C 0.00896 0.47011 0.74852 0.0
C3445 C 0.05939 0.48526 0.71014 0.0
C3446 C 0.94072 0.46218 0.74335 0.0
C3447 C 0.95735 0.46166 0.74256 0.0
C3448 C 0.99191 0.47338 0.7027 0.0
C3449 C 0.03491 0.4728 0.72504 0.0
C3450 C 0.01725 0.47203 0.72528 0.0
C3451 C 0.9659 0.47203 0.72646 0.0
C3452 C 0.98359 0.4717 0.72598 0.0
H3453 H 0.06729 0.45501 0.75202 0.0
H3454 H 0.03828 0.45327 0.75173 0.0
H3455 H 0.01461 0.47481 0.68411 0.0
H3456 H 0.93467 0.49192 0.69975 0.0
H3457 H 0.96366 0.49116 0.69868 0.0
C3458 C 0.44018 0.51115 0.2066 0.0
C3459 C 0.4314 0.52279 0.21986 0.0
C3460 C 0.4568 0.51175 0.20607 0.0
C3461 C 0.49121 0.52801 0.24116 0.0
H3462 H 0.51407 0.51843 0.1783 0.0
C3463 C 0.55934 0.53533 0.23279 0.0
C3464 C 0.5677 0.52319 0.21994 0.0
C3465 C 0.54271 0.53579 0.23222 0.0
C3466 C 0.50786 0.52098 0.19606 0.0
H3467 H 0.43326 0.54427 0.2429 0.0
H3468 H 0.46227 0.54533 0.24183 0.0
H3469 H 0.48501 0.51837 0.17832 0.0
H3470 H 0.56507 0.50201 0.19642 0.0
H3471 H 0.53607 0.50278 0.1956 0.0
H3472 H 0.51405 0.53051 0.25896 0.0
C3473 C 0.45627 0.53565 0.23205 0.0
C3474 C 0.49122 0.52096 0.19607 0.0
C3475 C 0.43964 0.53507 0.23256 0.0
C3476 C 0.55903 0.51159 0.20639 0.0
C3477 C 0.5424 0.51206 0.20582 0.0
C3478 C 0.50785 0.52802 0.24116 0.0
C3479 C 0.46504 0.52398 0.21883 0.0
C3480 C 0.48271 0.5244 0.21864 0.0
C3481 C 0.53405 0.52414 0.2188 0.0
C3482 C 0.51637 0.52444 0.21864 0.0
H3483 H 0.43425 0.50143 0.19684 0.0
H3484 H 0.46322 0.50244 0.19604 0.0
H3485 H 0.48501 0.53049 0.25895 0.0
H3486 H 0.56562 0.54451 0.2433 0.0
H3487 H 0.53664 0.54538 0.24212 0.0
loop_
_geom_bond_atom_site_label_1
_geom_bond_atom_site_label_2
_geom_bond_distance
_geom_bond_site_symmetry_2
_ccdc_geom_bond_type
Co0 O3 1.970 . S
Co0 N17 1.989 . S
Co0 O25 1.967 . S
Co0 O32 1.920 1_554 S
Co1 O4 1.966 . S
Co1 N10 2.022 . S
Co1 N18 1.993 . S
Co1 O26 1.941 . S
C2 O3 1.258 . S
C2 O4 1.263 . S
O3 Co0 1.970 . S
O3 C2 1.258 . S
O4 Co1 1.966 . S
O4 C2 1.263 . S
C5 O6 1.247 . S
C5 O32 1.289 . S
O6 C5 1.247 . S
C7 C9 1.400 . S
C7 N10 1.351 . S
C7 C12 1.501 . S
C8 C9 1.387 . S
C8 N11 1.341 . S
C9 C7 1.400 . S
C9 C8 1.387 . S
N10 Co1 2.022 . S
N10 C7 1.351 . S
N10 N11 1.365 . S
N11 C8 1.341 . S
N11 N10 1.365 . S
N11 H31 0.862 . S
C12 C7 1.501 . S
C12 H13 0.961 . S
C12 H14 0.961 . S
C12 H15 0.960 . S
H13 C12 0.961 . S
H14 C12 0.961 . S
H15 C12 0.960 . S
C16 N17 1.342 . S
C16 C20 1.401 . S
C16 C21 1.499 . S
N17 Co0 1.989 . S
N17 C16 1.342 . S
N17 N18 1.388 . S
N18 Co1 1.993 . S
N18 N17 1.388 . S
N18 C19 1.346 . S
C19 N18 1.346 . S
C19 C20 1.396 . S
C19 C29 1.510 . S
C20 C16 1.401 . S
C20 C19 1.396 . S
C21 C16 1.499 . S
C21 H22 0.959 . S
C21 H23 0.960 . S
C21 H24 0.961 . S
H22 C21 0.959 . S
H23 C21 0.960 . S
H24 C21 0.961 . S
O25 Co0 1.967 . S
O25 C33 1.258 . S
O26 Co1 1.941 . S
O26 C33 1.266 . S
H27 C29 0.959 . S
H28 C29 0.961 . S
C29 C19 1.510 . S
C29 H27 0.959 . S
C29 H28 0.961 . S
C29 H30 0.960 . S
H30 C29 0.960 . S
H31 N11 0.862 . S
O32 Co0 1.920 1_556 S
O32 C5 1.289 . S
C33 O25 1.258 . S
C33 O26 1.266 . S
Co34 O37 1.970 . S
Co34 N51 1.989 . S
Co34 O59 1.967 . S
Co34 O66 1.920 . S
Co35 O38 1.966 . S
Co35 N44 2.022 . S
Co35 N52 1.993 . S
Co35 O60 1.941 . S
C36 O37 1.258 . S
C36 O38 1.263 . S
O37 Co34 1.970 . S
O37 C36 1.258 . S
O38 Co35 1.966 . S
O38 C36 1.263 . S
C39 O40 1.235 . S
C39 O66 1.289 . S
O40 C39 1.235 . S
C41 C43 1.400 . S
C41 N44 1.351 . S
C41 C46 1.501 . S
C42 C43 1.387 . S
C42 N45 1.341 . S
C43 C41 1.400 . S
C43 C42 1.387 . S
N44 Co35 2.022 . S
N44 C41 1.351 . S
N44 N45 1.365 . S
N45 C42 1.341 . S
N45 N44 1.365 . S
N45 H65 0.862 . S
C46 C41 1.501 . S
C46 H47 0.961 . S
C46 H48 0.961 . S
C46 H49 0.960 . S
H47 C46 0.961 . S
H48 C46 0.961 . S
H49 C46 0.960 . S
C50 N51 1.342 . S
C50 C54 1.401 . S
C50 C55 1.499 . S
N51 Co34 1.989 . S
N51 C50 1.342 . S
N51 N52 1.388 . S
N52 Co35 1.993 . S
N52 N51 1.388 . S
N52 C53 1.346 . S
C53 N52 1.346 . S
C53 C54 1.396 . S
C53 C63 1.510 . S
C54 C50 1.401 . S
C54 C53 1.396 . S
C55 C50 1.499 . S
C55 H56 0.959 . S
C55 H57 0.960 . S
C55 H58 0.961 . S
H56 C55 0.959 . S
H57 C55 0.960 . S
H58 C55 0.961 . S
O59 Co34 1.967 . S
O59 C67 1.258 . S
O60 Co35 1.941 . S
O60 C67 1.266 . S
H61 C63 0.959 . S
H62 C63 0.961 . S
C63 C53 1.510 . S
C63 H61 0.959 . S
C63 H62 0.961 . S
C63 H64 0.960 . S
H64 C63 0.960 . S
H65 N45 0.862 . S
O66 Co34 1.920 . S
O66 C39 1.289 . S
C67 O59 1.258 . S
C67 O60 1.266 . S
Co68 O71 1.970 . S
Co68 N85 1.989 . S
Co68 O93 1.967 . S
Co68 O100 1.920 . S
Co69 O72 1.966 . S
Co69 N78 2.022 . S
Co69 N86 1.993 . S
Co69 O94 1.941 . S
C70 O71 1.258 . S
C70 O72 1.263 . S
O71 Co68 1.970 . S
O71 C70 1.258 . S
O72 Co69 1.966 . S
O72 C70 1.263 . S
C73 O74 1.235 . S
C73 O100 1.289 . S
O74 C73 1.235 . S
C75 C77 1.400 . S
C75 N78 1.351 . S
C75 C80 1.501 . S
C76 C77 1.387 . S
C76 N79 1.341 . S
C77 C75 1.400 . S
C77 C76 1.387 . S
N78 Co69 2.022 . S
N78 C75 1.351 . S
N78 N79 1.365 . S
N79 C76 1.341 . S
N79 N78 1.365 . S
N79 H99 0.862 . S
C80 C75 1.501 . S
C80 H81 0.961 . S
C80 H82 0.961 . S
C80 H83 0.960 . S
H81 C80 0.961 . S
H82 C80 0.961 . S
H83 C80 0.960 . S
C84 N85 1.342 . S
C84 C88 1.401 . S
C84 C89 1.499 . S
N85 Co68 1.989 . S
N85 C84 1.342 . S
N85 N86 1.388 . S
N86 Co69 1.993 . S
N86 N85 1.388 . S
N86 C87 1.346 . S
C87 N86 1.346 . S
C87 C88 1.396 . S
C87 C97 1.510 . S
C88 C84 1.401 . S
C88 C87 1.396 . S
C89 C84 1.499 . S
C89 H90 0.959 . S
C89 H91 0.960 . S
C89 H92 0.961 . S
H90 C89 0.959 . S
H91 C89 0.960 . S
H92 C89 0.961 . S
O93 Co68 1.967 . S
O93 C101 1.258 . S
O94 Co69 1.941 . S
O94 C101 1.266 . S
H95 C97 0.959 . S
H96 C97 0.961 . S
C97 C87 1.510 . S
C97 H95 0.959 . S
C97 H96 0.961 . S
C97 H98 0.960 . S
H98 C97 0.960 . S
H99 N79 0.862 . S
O100 Co68 1.920 . S
O100 C73 1.289 . S
C101 O93 1.258 . S
C101 O94 1.266 . S
Co102 O105 1.970 . S
Co102 N119 1.989 . S
Co102 O127 1.967 . S
Co102 O134 1.920 . S
Co103 O106 1.966 . S
Co103 N112 2.022 . S
Co103 N120 1.993 . S
Co103 O128 1.941 . S
C104 O105 1.258 . S
C104 O106 1.263 . S
O105 Co102 1.970 . S
O105 C104 1.258 . S
O106 Co103 1.966 . S
O106 C104 1.263 . S
C107 O108 1.235 . S
C107 O134 1.289 . S
O108 C107 1.235 . S
C109 C111 1.400 . S
C109 N112 1.351 . S
C109 C114 1.501 . S
C110 C111 1.387 . S
C110 N113 1.341 . S
C111 C109 1.400 . S
C111 C110 1.387 . S
N112 Co103 2.022 . S
N112 C109 1.351 . S
N112 N113 1.365 . S
N113 C110 1.341 . S
N113 N112 1.365 . S
N113 H133 0.862 . S
C114 C109 1.501 . S
C114 H115 0.961 . S
C114 H116 0.961 . S
C114 H117 0.960 . S
H115 C114 0.961 . S
H116 C114 0.961 . S
H117 C114 0.960 . S
C118 N119 1.342 . S
C118 C122 1.401 . S
C118 C123 1.499 . S
N119 Co102 1.989 . S
N119 C118 1.342 . S
N119 N120 1.388 . S
N120 Co103 1.993 . S
N120 N119 1.388 . S
N120 C121 1.346 . S
C121 N120 1.346 . S
C121 C122 1.396 . S
C121 C131 1.510 . S
C122 C118 1.401 . S
C122 C121 1.396 . S
C123 C118 1.499 . S
C123 H124 0.959 . S
C123 H125 0.960 . S
C123 H126 0.961 . S
H124 C123 0.959 . S
H125 C123 0.960 . S
H126 C123 0.961 . S
O127 Co102 1.967 . S
O127 C135 1.258 . S
O128 Co103 1.941 . S
O128 C135 1.266 . S
H129 C131 0.959 . S
H130 C131 0.961 . S
C131 C121 1.510 . S
C131 H129 0.959 . S
C131 H130 0.961 . S
C131 H132 0.960 . S
H132 C131 0.960 . S
H133 N113 0.862 . S
O134 Co102 1.920 . S
O134 C107 1.289 . S
C135 O127 1.258 . S
C135 O128 1.266 . S
Co136 O139 1.970 . S
Co136 N153 1.989 . S
Co136 O161 1.967 . S
Co136 O168 1.920 1_556 S
Co137 O140 1.966 . S
Co137 N146 2.022 . S
Co137 N154 1.993 . S
Co137 O162 1.941 . S
C138 O139 1.258 . S
C138 O140 1.263 . S
O139 Co136 1.970 . S
O139 C138 1.258 . S
O140 Co137 1.966 . S
O140 C138 1.263 . S
C141 O142 1.247 . S
C141 O168 1.289 . S
O142 C141 1.247 . S
C143 C145 1.400 . S
C143 N146 1.351 . S
C143 C148 1.501 . S
C144 C145 1.387 . S
C144 N147 1.341 . S
C145 C143 1.400 . S
C145 C144 1.387 . S
N146 Co137 2.022 . S
N146 C143 1.351 . S
N146 N147 1.365 . S
N147 C144 1.341 . S
N147 N146 1.365 . S
N147 H167 0.862 . S
C148 C143 1.501 . S
C148 H149 0.961 . S
C148 H150 0.961 . S
C148 H151 0.960 . S
H149 C148 0.961 . S
H150 C148 0.961 . S
H151 C148 0.960 . S
C152 N153 1.342 . S
C152 C156 1.401 . S
C152 C157 1.499 . S
N153 Co136 1.989 . S
N153 C152 1.342 . S
N153 N154 1.388 . S
N154 Co137 1.993 . S
N154 N153 1.388 . S
N154 C155 1.346 . S
C155 N154 1.346 . S
C155 C156 1.396 . S
C155 C165 1.510 . S
C156 C152 1.401 . S
C156 C155 1.396 . S
C157 C152 1.499 . S
C157 H158 0.959 . S
C157 H159 0.960 . S
C157 H160 0.961 . S
H158 C157 0.959 . S
H159 C157 0.960 . S
H160 C157 0.961 . S
O161 Co136 1.967 . S
O161 C169 1.258 . S
O162 Co137 1.941 . S
O162 C169 1.266 . S
H163 C165 0.959 . S
H164 C165 0.961 . S
C165 C155 1.510 . S
C165 H163 0.959 . S
C165 H164 0.961 . S
C165 H166 0.960 . S
H166 C165 0.960 . S
H167 N147 0.862 . S
O168 Co136 1.920 1_554 S
O168 C141 1.289 . S
C169 O161 1.258 . S
C169 O162 1.266 . S
Co170 O173 1.970 . S
Co170 N187 1.989 . S
Co170 O195 1.967 . S
Co170 O202 1.920 . S
Co171 O174 1.966 . S
Co171 N180 2.022 . S
Co171 N188 1.993 . S
Co171 O196 1.941 . S
C172 O173 1.258 . S
C172 O174 1.263 . S
O173 Co170 1.970 . S
O173 C172 1.258 . S
O174 Co171 1.966 . S
O174 C172 1.263 . S
C175 O176 1.235 . S
C175 O202 1.289 . S
O176 C175 1.235 . S
C177 C179 1.400 . S
C177 N180 1.351 . S
C177 C182 1.501 . S
C178 C179 1.387 . S
C178 N181 1.341 . S
C179 C177 1.400 . S
C179 C178 1.387 . S
N180 Co171 2.022 . S
N180 C177 1.351 . S
N180 N181 1.365 . S
N181 C178 1.341 . S
N181 N180 1.365 . S
N181 H201 0.862 . S
C182 C177 1.501 . S
C182 H183 0.961 . S
C182 H184 0.961 . S
C182 H185 0.960 . S
H183 C182 0.961 . S
H184 C182 0.961 . S
H185 C182 0.960 . S
C186 N187 1.342 . S
C186 C190 1.401 . S
C186 C191 1.499 . S
N187 Co170 1.989 . S
N187 C186 1.342 . S
N187 N188 1.388 . S
N188 Co171 1.993 . S
N188 N187 1.388 . S
N188 C189 1.346 . S
C189 N188 1.346 . S
C189 C190 1.396 . S
C189 C199 1.510 . S
C190 C186 1.401 . S
C190 C189 1.396 . S
C191 C186 1.499 . S
C191 H192 0.959 . S
C191 H193 0.960 . S
C191 H194 0.961 . S
H192 C191 0.959 . S
H193 C191 0.960 . S
H194 C191 0.961 . S
O195 Co170 1.967 . S
O195 C203 1.258 . S
O196 Co171 1.941 . S
O196 C203 1.266 . S
H197 C199 0.959 . S
H198 C199 0.961 . S
C199 C189 1.510 . S
C199 H197 0.959 . S
C199 H198 0.961 . S
C199 H200 0.960 . S
H200 C199 0.960 . S
H201 N181 0.862 . S
O202 Co170 1.920 . S
O202 C175 1.289 . S
C203 O195 1.258 . S
C203 O196 1.266 . S
Co204 O207 1.970 . S
Co204 N221 1.989 . S
Co204 O229 1.967 . S
Co204 O236 1.920 . S
Co205 O208 1.966 . S
Co205 N214 2.022 . S
Co205 N222 1.993 . S
Co205 O230 1.941 . S
C206 O207 1.258 . S
C206 O208 1.263 . S
O207 Co204 1.970 . S
O207 C206 1.258 . S
O208 Co205 1.966 . S
O208 C206 1.263 . S
C209 O210 1.235 . S
C209 O236 1.289 . S
O210 C209 1.235 . S
C211 C213 1.400 . S
C211 N214 1.351 . S
C211 C216 1.501 . S
C212 C213 1.387 . S
C212 N215 1.341 . S
C213 C211 1.400 . S
C213 C212 1.387 . S
N214 Co205 2.022 . S
N214 C211 1.351 . S
N214 N215 1.365 . S
N215 C212 1.341 . S
N215 N214 1.365 . S
N215 H235 0.862 . S
C216 C211 1.501 . S
C216 H217 0.961 . S
C216 H218 0.961 . S
C216 H219 0.960 . S
H217 C216 0.961 . S
H218 C216 0.961 . S
H219 C216 0.960 . S
C220 N221 1.342 . S
C220 C224 1.401 . S
C220 C225 1.499 . S
N221 Co204 1.989 . S
N221 C220 1.342 . S
N221 N222 1.388 . S
N222 Co205 1.993 . S
N222 N221 1.388 . S
N222 C223 1.346 . S
C223 N222 1.346 . S
C223 C224 1.396 . S
C223 C233 1.510 . S
C224 C220 1.401 . S
C224 C223 1.396 . S
C225 C220 1.499 . S
C225 H226 0.959 . S
C225 H227 0.960 . S
C225 H228 0.961 . S
H226 C225 0.959 . S
H227 C225 0.960 . S
H228 C225 0.961 . S
O229 Co204 1.967 . S
O229 C237 1.258 . S
O230 Co205 1.941 . S
O230 C237 1.266 . S
H231 C233 0.959 . S
H232 C233 0.961 . S
C233 C223 1.510 . S
C233 H231 0.959 . S
C233 H232 0.961 . S
C233 H234 0.960 . S
H234 C233 0.960 . S
H235 N215 0.862 . S
O236 Co204 1.920 . S
O236 C209 1.289 . S
C237 O229 1.258 . S
C237 O230 1.266 . S
Co238 O241 1.970 . S
Co238 N255 1.989 . S
Co238 O263 1.967 . S
Co238 O270 1.920 . S
Co239 O242 1.966 . S
Co239 N248 2.022 . S
Co239 N256 1.993 . S
Co239 O264 1.941 . S
C240 O241 1.258 . S
C240 O242 1.263 . S
O241 Co238 1.970 . S
O241 C240 1.258 . S
O242 Co239 1.966 . S
O242 C240 1.263 . S
C243 O244 1.235 . S
C243 O270 1.289 . S
O244 C243 1.235 . S
C245 C247 1.400 . S
C245 N248 1.351 . S
C245 C250 1.501 . S
C246 C247 1.387 . S
C246 N249 1.341 . S
C247 C245 1.400 . S
C247 C246 1.387 . S
N248 Co239 2.022 . S
N248 C245 1.351 . S
N248 N249 1.365 . S
N249 C246 1.341 . S
N249 N248 1.365 . S
N249 H269 0.862 . S
C250 C245 1.501 . S
C250 H251 0.961 . S
C250 H252 0.961 . S
C250 H253 0.960 . S
H251 C250 0.961 . S
H252 C250 0.961 . S
H253 C250 0.960 . S
C254 N255 1.342 . S
C254 C258 1.401 . S
C254 C259 1.499 . S
N255 Co238 1.989 . S
N255 C254 1.342 . S
N255 N256 1.388 . S
N256 Co239 1.993 . S
N256 N255 1.388 . S
N256 C257 1.346 . S
C257 N256 1.346 . S
C257 C258 1.396 . S
C257 C267 1.510 . S
C258 C254 1.401 . S
C258 C257 1.396 . S
C259 C254 1.499 . S
C259 H260 0.959 . S
C259 H261 0.960 . S
C259 H262 0.961 . S
H260 C259 0.959 . S
H261 C259 0.960 . S
H262 C259 0.961 . S
O263 Co238 1.967 . S
O263 C271 1.258 . S
O264 Co239 1.941 . S
O264 C271 1.266 . S
H265 C267 0.959 . S
H266 C267 0.961 . S
C267 C257 1.510 . S
C267 H265 0.959 . S
C267 H266 0.961 . S
C267 H268 0.960 . S
H268 C267 0.960 . S
H269 N249 0.862 . S
O270 Co238 1.920 . S
O270 C243 1.289 . S
C271 O263 1.258 . S
C271 O264 1.266 . S
Co272 O275 1.970 . S
Co272 N289 1.989 . S
Co272 O297 1.967 . S
Co272 O304 1.920 1_556 S
Co273 O276 1.966 . S
Co273 N282 2.022 . S
Co273 N290 1.993 . S
Co273 O298 1.941 . S
C274 O275 1.258 . S
C274 O276 1.263 . S
O275 Co272 1.970 . S
O275 C274 1.258 . S
O276 Co273 1.966 . S
O276 C274 1.263 . S
C277 O278 1.247 . S
C277 O304 1.289 . S
O278 C277 1.247 . S
C279 C281 1.400 . S
C279 N282 1.351 . S
C279 C284 1.501 . S
C280 C281 1.387 . S
C280 N283 1.341 . S
C281 C279 1.400 . S
C281 C280 1.387 . S
N282 Co273 2.022 . S
N282 C279 1.351 . S
N282 N283 1.365 . S
N283 C280 1.341 . S
N283 N282 1.365 . S
N283 H303 0.862 . S
C284 C279 1.501 . S
C284 H285 0.961 . S
C284 H286 0.961 . S
C284 H287 0.960 . S
H285 C284 0.961 . S
H286 C284 0.961 . S
H287 C284 0.960 . S
C288 N289 1.342 . S
C288 C292 1.401 . S
C288 C293 1.499 . S
N289 Co272 1.989 . S
N289 C288 1.342 . S
N289 N290 1.388 . S
N290 Co273 1.993 . S
N290 N289 1.388 . S
N290 C291 1.346 . S
C291 N290 1.346 . S
C291 C292 1.396 . S
C291 C301 1.510 . S
C292 C288 1.401 . S
C292 C291 1.396 . S
C293 C288 1.499 . S
C293 H294 0.959 . S
C293 H295 0.960 . S
C293 H296 0.961 . S
H294 C293 0.959 . S
H295 C293 0.960 . S
H296 C293 0.961 . S
O297 Co272 1.967 . S
O297 C305 1.258 . S
O298 Co273 1.941 . S
O298 C305 1.266 . S
H299 C301 0.959 . S
H300 C301 0.961 . S
C301 C291 1.510 . S
C301 H299 0.959 . S
C301 H300 0.961 . S
C301 H302 0.960 . S
H302 C301 0.960 . S
H303 N283 0.862 . S
O304 Co272 1.920 1_554 S
O304 C277 1.289 . S
C305 O297 1.258 . S
C305 O298 1.266 . S
Co306 O309 1.970 . S
Co306 N323 1.989 . S
Co306 O331 1.967 . S
Co306 O338 1.920 . S
Co307 O310 1.966 . S
Co307 N316 2.022 . S
Co307 N324 1.993 . S
Co307 O332 1.941 . S
C308 O309 1.258 . S
C308 O310 1.263 . S
O309 Co306 1.970 . S
O309 C308 1.258 . S
O310 Co307 1.966 . S
O310 C308 1.263 . S
C311 O312 1.235 . S
C311 O338 1.289 . S
O312 C311 1.235 . S
C313 C315 1.400 . S
C313 N316 1.351 . S
C313 C318 1.501 . S
C314 C315 1.387 . S
C314 N317 1.341 . S
C315 C313 1.400 . S
C315 C314 1.387 . S
N316 Co307 2.022 . S
N316 C313 1.351 . S
N316 N317 1.365 . S
N317 C314 1.341 . S
N317 N316 1.365 . S
N317 H337 0.862 . S
C318 C313 1.501 . S
C318 H319 0.961 . S
C318 H320 0.961 . S
C318 H321 0.960 . S
H319 C318 0.961 . S
H320 C318 0.961 . S
H321 C318 0.960 . S
C322 N323 1.342 . S
C322 C326 1.401 . S
C322 C327 1.499 . S
N323 Co306 1.989 . S
N323 C322 1.342 . S
N323 N324 1.388 . S
N324 Co307 1.993 . S
N324 N323 1.388 . S
N324 C325 1.346 . S
C325 N324 1.346 . S
C325 C326 1.396 . S
C325 C335 1.510 . S
C326 C322 1.401 . S
C326 C325 1.396 . S
C327 C322 1.499 . S
C327 H328 0.959 . S
C327 H329 0.960 . S
C327 H330 0.961 . S
H328 C327 0.959 . S
H329 C327 0.960 . S
H330 C327 0.961 . S
O331 Co306 1.967 . S
O331 C339 1.258 . S
O332 Co307 1.941 . S
O332 C339 1.266 . S
H333 C335 0.959 . S
H334 C335 0.961 . S
C335 C325 1.510 . S
C335 H333 0.959 . S
C335 H334 0.961 . S
C335 H336 0.960 . S
H336 C335 0.960 . S
H337 N317 0.862 . S
O338 Co306 1.920 . S
O338 C311 1.289 . S
C339 O331 1.258 . S
C339 O332 1.266 . S
Co340 O343 1.970 . S
Co340 N357 1.989 . S
Co340 O365 1.967 . S
Co340 O372 1.920 . S
Co341 O344 1.966 . S
Co341 N350 2.022 . S
Co341 N358 1.993 . S
Co341 O366 1.941 . S
C342 O343 1.258 . S
C342 O344 1.263 . S
O343 Co340 1.970 . S
O343 C342 1.258 . S
O344 Co341 1.966 . S
O344 C342 1.263 . S
C345 O346 1.235 . S
C345 O372 1.289 . S
O346 C345 1.235 . S
C347 C349 1.400 . S
C347 N350 1.351 . S
C347 C352 1.501 . S
C348 C349 1.387 . S
C348 N351 1.341 . S
C349 C347 1.400 . S
C349 C348 1.387 . S
N350 Co341 2.022 . S
N350 C347 1.351 . S
N350 N351 1.365 . S
N351 C348 1.341 . S
N351 N350 1.365 . S
N351 H371 0.862 . S
C352 C347 1.501 . S
C352 H353 0.961 . S
C352 H354 0.961 . S
C352 H355 0.960 . S
H353 C352 0.961 . S
H354 C352 0.961 . S
H355 C352 0.960 . S
C356 N357 1.342 . S
C356 C360 1.401 . S
C356 C361 1.499 . S
N357 Co340 1.989 . S
N357 C356 1.342 . S
N357 N358 1.388 . S
N358 Co341 1.993 . S
N358 N357 1.388 . S
N358 C359 1.346 . S
C359 N358 1.346 . S
C359 C360 1.396 . S
C359 C369 1.510 . S
C360 C356 1.401 . S
C360 C359 1.396 . S
C361 C356 1.499 . S
C361 H362 0.959 . S
C361 H363 0.960 . S
C361 H364 0.961 . S
H362 C361 0.959 . S
H363 C361 0.960 . S
H364 C361 0.961 . S
O365 Co340 1.967 . S
O365 C373 1.258 . S
O366 Co341 1.941 . S
O366 C373 1.266 . S
H367 C369 0.959 . S
H368 C369 0.961 . S
C369 C359 1.510 . S
C369 H367 0.959 . S
C369 H368 0.961 . S
C369 H370 0.960 . S
H370 C369 0.960 . S
H371 N351 0.862 . S
O372 Co340 1.920 . S
O372 C345 1.289 . S
C373 O365 1.258 . S
C373 O366 1.266 . S
Co374 O377 1.970 . S
Co374 N391 1.989 . S
Co374 O399 1.967 . S
Co374 O406 1.920 . S
Co375 O378 1.966 . S
Co375 N384 2.022 . S
Co375 N392 1.993 . S
Co375 O400 1.941 . S
C376 O377 1.258 . S
C376 O378 1.263 . S
O377 Co374 1.970 . S
O377 C376 1.258 . S
O378 Co375 1.966 . S
O378 C376 1.263 . S
C379 O380 1.235 . S
C379 O406 1.289 . S
O380 C379 1.235 . S
C381 C383 1.400 . S
C381 N384 1.351 . S
C381 C386 1.501 . S
C382 C383 1.387 . S
C382 N385 1.341 . S
C383 C381 1.400 . S
C383 C382 1.387 . S
N384 Co375 2.022 . S
N384 C381 1.351 . S
N384 N385 1.365 . S
N385 C382 1.341 . S
N385 N384 1.365 . S
N385 H405 0.862 . S
C386 C381 1.501 . S
C386 H387 0.961 . S
C386 H388 0.961 . S
C386 H389 0.960 . S
H387 C386 0.961 . S
H388 C386 0.961 . S
H389 C386 0.960 . S
C390 N391 1.342 . S
C390 C394 1.401 . S
C390 C395 1.499 . S
N391 Co374 1.989 . S
N391 C390 1.342 . S
N391 N392 1.388 . S
N392 Co375 1.993 . S
N392 N391 1.388 . S
N392 C393 1.346 . S
C393 N392 1.346 . S
C393 C394 1.396 . S
C393 C403 1.510 . S
C394 C390 1.401 . S
C394 C393 1.396 . S
C395 C390 1.499 . S
C395 H396 0.959 . S
C395 H397 0.960 . S
C395 H398 0.961 . S
H396 C395 0.959 . S
H397 C395 0.960 . S
H398 C395 0.961 . S
O399 Co374 1.967 . S
O399 C407 1.258 . S
O400 Co375 1.941 . S
O400 C407 1.266 . S
H401 C403 0.959 . S
H402 C403 0.961 . S
C403 C393 1.510 . S
C403 H401 0.959 . S
C403 H402 0.961 . S
C403 H404 0.960 . S
H404 C403 0.960 . S
H405 N385 0.862 . S
O406 Co374 1.920 . S
O406 C379 1.289 . S
C407 O399 1.258 . S
C407 O400 1.266 . S
Co408 O411 1.970 . S
Co408 N425 1.989 . S
Co408 O433 1.967 . S
Co408 O440 1.920 1_554 S
Co409 O412 1.966 . S
Co409 N418 2.022 . S
Co409 N426 1.993 . S
Co409 O434 1.941 . S
C410 O411 1.258 . S
C410 O412 1.263 . S
O411 Co408 1.970 . S
O411 C410 1.258 . S
O412 Co409 1.966 . S
O412 C410 1.263 . S
C413 O414 1.247 . S
C413 O440 1.289 . S
O414 C413 1.247 . S
C415 C417 1.400 . S
C415 N418 1.351 . S
C415 C420 1.501 . S
C416 C417 1.387 . S
C416 N419 1.341 . S
C417 C415 1.400 . S
C417 C416 1.387 . S
N418 Co409 2.022 . S
N418 C415 1.351 . S
N418 N419 1.365 . S
N419 C416 1.341 . S
N419 N418 1.365 . S
N419 H439 0.862 . S
C420 C415 1.501 . S
C420 H421 0.961 . S
C420 H422 0.961 . S
C420 H423 0.960 . S
H421 C420 0.961 . S
H422 C420 0.961 . S
H423 C420 0.960 . S
C424 N425 1.342 . S
C424 C428 1.401 . S
C424 C429 1.499 . S
N425 Co408 1.989 . S
N425 C424 1.342 . S
N425 N426 1.388 . S
N426 Co409 1.993 . S
N426 N425 1.388 . S
N426 C427 1.346 . S
C427 N426 1.346 . S
C427 C428 1.396 . S
C427 C437 1.510 . S
C428 C424 1.401 . S
C428 C427 1.396 . S
C429 C424 1.499 . S
C429 H430 0.959 . S
C429 H431 0.960 . S
C429 H432 0.961 . S
H430 C429 0.959 . S
H431 C429 0.960 . S
H432 C429 0.961 . S
O433 Co408 1.967 . S
O433 C441 1.258 . S
O434 Co409 1.941 . S
O434 C441 1.266 . S
H435 C437 0.959 . S
H436 C437 0.961 . S
C437 C427 1.510 . S
C437 H435 0.959 . S
C437 H436 0.961 . S
C437 H438 0.960 . S
H438 C437 0.960 . S
H439 N419 0.862 . S
O440 Co408 1.920 1_556 S
O440 C413 1.289 . S
C441 O433 1.258 . S
C441 O434 1.266 . S
Co442 O445 1.970 . S
Co442 N459 1.989 . S
Co442 O467 1.967 . S
Co442 O474 1.920 . S
Co443 O446 1.966 . S
Co443 N452 2.022 . S
Co443 N460 1.993 . S
Co443 O468 1.941 . S
C444 O445 1.258 . S
C444 O446 1.263 . S
O445 Co442 1.970 . S
O445 C444 1.258 . S
O446 Co443 1.966 . S
O446 C444 1.263 . S
C447 O448 1.235 . S
C447 O474 1.289 . S
O448 C447 1.235 . S
C449 C451 1.400 . S
C449 N452 1.351 . S
C449 C454 1.501 . S
C450 C451 1.387 . S
C450 N453 1.341 . S
C451 C449 1.400 . S
C451 C450 1.387 . S
N452 Co443 2.022 . S
N452 C449 1.351 . S
N452 N453 1.365 . S
N453 C450 1.341 . S
N453 N452 1.365 . S
N453 H473 0.862 . S
C454 C449 1.501 . S
C454 H455 0.961 . S
C454 H456 0.961 . S
C454 H457 0.960 . S
H455 C454 0.961 . S
H456 C454 0.961 . S
H457 C454 0.960 . S
C458 N459 1.342 . S
C458 C462 1.401 . S
C458 C463 1.499 . S
N459 Co442 1.989 . S
N459 C458 1.342 . S
N459 N460 1.388 . S
N460 Co443 1.993 . S
N460 N459 1.388 . S
N460 C461 1.346 . S
C461 N460 1.346 . S
C461 C462 1.396 . S
C461 C471 1.510 . S
C462 C458 1.401 . S
C462 C461 1.396 . S
C463 C458 1.499 . S
C463 H464 0.959 . S
C463 H465 0.960 . S
C463 H466 0.961 . S
H464 C463 0.959 . S
H465 C463 0.960 . S
H466 C463 0.961 . S
O467 Co442 1.967 . S
O467 C475 1.258 . S
O468 Co443 1.941 . S
O468 C475 1.266 . S
H469 C471 0.959 . S
H470 C471 0.961 . S
C471 C461 1.510 . S
C471 H469 0.959 . S
C471 H470 0.961 . S
C471 H472 0.960 . S
H472 C471 0.960 . S
H473 N453 0.862 . S
O474 Co442 1.920 . S
O474 C447 1.289 . S
C475 O467 1.258 . S
C475 O468 1.266 . S
Co476 O479 1.970 . S
Co476 N493 1.989 . S
Co476 O501 1.967 . S
Co476 O508 1.920 . S
Co477 O480 1.966 . S
Co477 N486 2.022 . S
Co477 N494 1.993 . S
Co477 O502 1.941 . S
C478 O479 1.258 . S
C478 O480 1.263 . S
O479 Co476 1.970 . S
O479 C478 1.258 . S
O480 Co477 1.966 . S
O480 C478 1.263 . S
C481 O482 1.235 . S
C481 O508 1.289 . S
O482 C481 1.235 . S
C483 C485 1.400 . S
C483 N486 1.351 . S
C483 C488 1.501 . S
C484 C485 1.387 . S
C484 N487 1.341 . S
C485 C483 1.400 . S
C485 C484 1.387 . S
N486 Co477 2.022 . S
N486 C483 1.351 . S
N486 N487 1.365 . S
N487 C484 1.341 . S
N487 N486 1.365 . S
N487 H507 0.862 . S
C488 C483 1.501 . S
C488 H489 0.961 . S
C488 H490 0.961 . S
C488 H491 0.960 . S
H489 C488 0.961 . S
H490 C488 0.961 . S
H491 C488 0.960 . S
C492 N493 1.342 . S
C492 C496 1.401 . S
C492 C497 1.499 . S
N493 Co476 1.989 . S
N493 C492 1.342 . S
N493 N494 1.388 . S
N494 Co477 1.993 . S
N494 N493 1.388 . S
N494 C495 1.346 . S
C495 N494 1.346 . S
C495 C496 1.396 . S
C495 C505 1.510 . S
C496 C492 1.401 . S
C496 C495 1.396 . S
C497 C492 1.499 . S
C497 H498 0.959 . S
C497 H499 0.960 . S
C497 H500 0.961 . S
H498 C497 0.959 . S
H499 C497 0.960 . S
H500 C497 0.961 . S
O501 Co476 1.967 . S
O501 C509 1.258 . S
O502 Co477 1.941 . S
O502 C509 1.266 . S
H503 C505 0.959 . S
H504 C505 0.961 . S
C505 C495 1.510 . S
C505 H503 0.959 . S
C505 H504 0.961 . S
C505 H506 0.960 . S
H506 C505 0.960 . S
H507 N487 0.862 . S
O508 Co476 1.920 . S
O508 C481 1.289 . S
C509 O501 1.258 . S
C509 O502 1.266 . S
Co510 O513 1.970 . S
Co510 N527 1.989 . S
Co510 O535 1.967 . S
Co510 O542 1.920 . S
Co511 O514 1.966 . S
Co511 N520 2.022 . S
Co511 N528 1.993 . S
Co511 O536 1.941 . S
C512 O513 1.258 . S
C512 O514 1.263 . S
O513 Co510 1.970 . S
O513 C512 1.258 . S
O514 Co511 1.966 . S
O514 C512 1.263 . S
C515 O516 1.235 . S
C515 O542 1.289 . S
O516 C515 1.235 . S
C517 C519 1.400 . S
C517 N520 1.351 . S
C517 C522 1.501 . S
C518 C519 1.387 . S
C518 N521 1.341 . S
C519 C517 1.400 . S
C519 C518 1.387 . S
N520 Co511 2.022 . S
N520 C517 1.351 . S
N520 N521 1.365 . S
N521 C518 1.341 . S
N521 N520 1.365 . S
N521 H541 0.862 . S
C522 C517 1.501 . S
C522 H523 0.961 . S
C522 H524 0.961 . S
C522 H525 0.960 . S
H523 C522 0.961 . S
H524 C522 0.961 . S
H525 C522 0.960 . S
C526 N527 1.342 . S
C526 C530 1.401 . S
C526 C531 1.499 . S
N527 Co510 1.989 . S
N527 C526 1.342 . S
N527 N528 1.388 . S
N528 Co511 1.993 . S
N528 N527 1.388 . S
N528 C529 1.346 . S
C529 N528 1.346 . S
C529 C530 1.396 . S
C529 C539 1.510 . S
C530 C526 1.401 . S
C530 C529 1.396 . S
C531 C526 1.499 . S
C531 H532 0.959 . S
C531 H533 0.960 . S
C531 H534 0.961 . S
H532 C531 0.959 . S
H533 C531 0.960 . S
H534 C531 0.961 . S
O535 Co510 1.967 . S
O535 C543 1.258 . S
O536 Co511 1.941 . S
O536 C543 1.266 . S
H537 C539 0.959 . S
H538 C539 0.961 . S
C539 C529 1.510 . S
C539 H537 0.959 . S
C539 H538 0.961 . S
C539 H540 0.960 . S
H540 C539 0.960 . S
H541 N521 0.862 . S
O542 Co510 1.920 . S
O542 C515 1.289 . S
C543 O535 1.258 . S
C543 O536 1.266 . S
Co544 O547 1.970 . S
Co544 N561 1.989 . S
Co544 O569 1.967 . S
Co544 O576 1.920 . S
Co545 O548 1.966 . S
Co545 N554 2.022 . S
Co545 N562 1.993 . S
Co545 O570 1.941 . S
C546 O547 1.258 . S
C546 O548 1.263 . S
O547 Co544 1.970 . S
O547 C546 1.258 . S
O548 Co545 1.966 . S
O548 C546 1.263 . S
C549 O550 1.235 . S
C549 O576 1.289 . S
O550 C549 1.235 . S
C551 C553 1.400 . S
C551 N554 1.351 . S
C551 C556 1.501 . S
C552 C553 1.387 . S
C552 N555 1.341 . S
C553 C551 1.400 . S
C553 C552 1.387 . S
N554 Co545 2.022 . S
N554 C551 1.351 . S
N554 N555 1.365 . S
N555 C552 1.341 . S
N555 N554 1.365 . S
N555 H575 0.862 . S
C556 C551 1.501 . S
C556 H557 0.961 . S
C556 H558 0.961 . S
C556 H559 0.960 . S
H557 C556 0.961 . S
H558 C556 0.961 . S
H559 C556 0.960 . S
C560 N561 1.342 . S
C560 C564 1.401 . S
C560 C565 1.499 . S
N561 Co544 1.989 . S
N561 C560 1.342 . S
N561 N562 1.388 . S
N562 Co545 1.993 . S
N562 N561 1.388 . S
N562 C563 1.346 . S
C563 N562 1.346 . S
C563 C564 1.396 . S
C563 C573 1.510 . S
C564 C560 1.401 . S
C564 C563 1.396 . S
C565 C560 1.499 . S
C565 H566 0.959 . S
C565 H567 0.960 . S
C565 H568 0.961 . S
H566 C565 0.959 . S
H567 C565 0.960 . S
H568 C565 0.961 . S
O569 Co544 1.967 . S
O569 C577 1.258 . S
O570 Co545 1.941 . S
O570 C577 1.266 . S
H571 C573 0.959 . S
H572 C573 0.961 . S
C573 C563 1.510 . S
C573 H571 0.959 . S
C573 H572 0.961 . S
C573 H574 0.960 . S
H574 C573 0.960 . S
H575 N555 0.862 . S
O576 Co544 1.920 . S
O576 C549 1.289 . S
C577 O569 1.258 . S
C577 O570 1.266 . S
Co578 O581 1.970 . S
Co578 N595 1.989 . S
Co578 O603 1.967 . S
Co578 O610 1.920 . S
Co579 O582 1.966 . S
Co579 N588 2.022 . S
Co579 N596 1.993 . S
Co579 O604 1.941 . S
C580 O581 1.258 . S
C580 O582 1.263 . S
O581 Co578 1.970 . S
O581 C580 1.258 . S
O582 Co579 1.966 . S
O582 C580 1.263 . S
C583 O584 1.235 . S
C583 O610 1.289 . S
O584 C583 1.235 . S
C585 C587 1.400 . S
C585 N588 1.351 . S
C585 C590 1.501 . S
C586 C587 1.387 . S
C586 N589 1.341 . S
C587 C585 1.400 . S
C587 C586 1.387 . S
N588 Co579 2.022 . S
N588 C585 1.351 . S
N588 N589 1.365 . S
N589 C586 1.341 . S
N589 N588 1.365 . S
N589 H609 0.862 . S
C590 C585 1.501 . S
C590 H591 0.961 . S
C590 H592 0.961 . S
C590 H593 0.960 . S
H591 C590 0.961 . S
H592 C590 0.961 . S
H593 C590 0.960 . S
C594 N595 1.342 . S
C594 C598 1.401 . S
C594 C599 1.499 . S
N595 Co578 1.989 . S
N595 C594 1.342 . S
N595 N596 1.388 . S
N596 Co579 1.993 . S
N596 N595 1.388 . S
N596 C597 1.346 . S
C597 N596 1.346 . S
C597 C598 1.396 . S
C597 C607 1.510 . S
C598 C594 1.401 . S
C598 C597 1.396 . S
C599 C594 1.499 . S
C599 H600 0.959 . S
C599 H601 0.960 . S
C599 H602 0.961 . S
H600 C599 0.959 . S
H601 C599 0.960 . S
H602 C599 0.961 . S
O603 Co578 1.967 . S
O603 C611 1.258 . S
O604 Co579 1.941 . S
O604 C611 1.266 . S
H605 C607 0.959 . S
H606 C607 0.961 . S
C607 C597 1.510 . S
C607 H605 0.959 . S
C607 H606 0.961 . S
C607 H608 0.960 . S
H608 C607 0.960 . S
H609 N589 0.862 . S
O610 Co578 1.920 . S
O610 C583 1.289 . S
C611 O603 1.258 . S
C611 O604 1.266 . S
Co612 O615 1.970 . S
Co612 N629 1.989 . S
Co612 O637 1.967 . S
Co612 O644 1.920 1_554 S
Co613 O616 1.966 . S
Co613 N622 2.022 . S
Co613 N630 1.993 . S
Co613 O638 1.941 . S
C614 O615 1.258 . S
C614 O616 1.263 . S
O615 Co612 1.970 . S
O615 C614 1.258 . S
O616 Co613 1.966 . S
O616 C614 1.263 . S
C617 O618 1.247 . S
C617 O644 1.289 . S
O618 C617 1.247 . S
C619 C621 1.400 . S
C619 N622 1.351 . S
C619 C624 1.501 . S
C620 C621 1.387 . S
C620 N623 1.341 . S
C621 C619 1.400 . S
C621 C620 1.387 . S
N622 Co613 2.022 . S
N622 C619 1.351 . S
N622 N623 1.365 . S
N623 C620 1.341 . S
N623 N622 1.365 . S
N623 H643 0.862 . S
C624 C619 1.501 . S
C624 H625 0.961 . S
C624 H626 0.961 . S
C624 H627 0.960 . S
H625 C624 0.961 . S
H626 C624 0.961 . S
H627 C624 0.960 . S
C628 N629 1.342 . S
C628 C632 1.401 . S
C628 C633 1.499 . S
N629 Co612 1.989 . S
N629 C628 1.342 . S
N629 N630 1.388 . S
N630 Co613 1.993 . S
N630 N629 1.388 . S
N630 C631 1.346 . S
C631 N630 1.346 . S
C631 C632 1.396 . S
C631 C641 1.510 . S
C632 C628 1.401 . S
C632 C631 1.396 . S
C633 C628 1.499 . S
C633 H634 0.959 . S
C633 H635 0.960 . S
C633 H636 0.961 . S
H634 C633 0.959 . S
H635 C633 0.960 . S
H636 C633 0.961 . S
O637 Co612 1.967 . S
O637 C645 1.258 . S
O638 Co613 1.941 . S
O638 C645 1.266 . S
H639 C641 0.959 . S
H640 C641 0.961 . S
C641 C631 1.510 . S
C641 H639 0.959 . S
C641 H640 0.961 . S
C641 H642 0.960 . S
H642 C641 0.960 . S
H643 N623 0.862 . S
O644 Co612 1.920 1_556 S
O644 C617 1.289 . S
C645 O637 1.258 . S
C645 O638 1.266 . S
Co646 O649 1.970 . S
Co646 N663 1.989 . S
Co646 O671 1.967 . S
Co646 O678 1.920 . S
Co647 O650 1.966 . S
Co647 N656 2.022 . S
Co647 N664 1.993 . S
Co647 O672 1.941 . S
C648 O649 1.258 . S
C648 O650 1.263 . S
O649 Co646 1.970 . S
O649 C648 1.258 . S
O650 Co647 1.966 . S
O650 C648 1.263 . S
C651 O652 1.235 . S
C651 O678 1.289 . S
O652 C651 1.235 . S
C653 C655 1.400 . S
C653 N656 1.351 . S
C653 C658 1.501 . S
C654 C655 1.387 . S
C654 N657 1.341 . S
C655 C653 1.400 . S
C655 C654 1.387 . S
N656 Co647 2.022 . S
N656 C653 1.351 . S
N656 N657 1.365 . S
N657 C654 1.341 . S
N657 N656 1.365 . S
N657 H677 0.862 . S
C658 C653 1.501 . S
C658 H659 0.961 . S
C658 H660 0.961 . S
C658 H661 0.960 . S
H659 C658 0.961 . S
H660 C658 0.961 . S
H661 C658 0.960 . S
C662 N663 1.342 . S
C662 C666 1.401 . S
C662 C667 1.499 . S
N663 Co646 1.989 . S
N663 C662 1.342 . S
N663 N664 1.388 . S
N664 Co647 1.993 . S
N664 N663 1.388 . S
N664 C665 1.346 . S
C665 N664 1.346 . S
C665 C666 1.396 . S
C665 C675 1.510 . S
C666 C662 1.401 . S
C666 C665 1.396 . S
C667 C662 1.499 . S
C667 H668 0.959 . S
C667 H669 0.960 . S
C667 H670 0.961 . S
H668 C667 0.959 . S
H669 C667 0.960 . S
H670 C667 0.961 . S
O671 Co646 1.967 . S
O671 C679 1.258 . S
O672 Co647 1.941 . S
O672 C679 1.266 . S
H673 C675 0.959 . S
H674 C675 0.961 . S
C675 C665 1.510 . S
C675 H673 0.959 . S
C675 H674 0.961 . S
C675 H676 0.960 . S
H676 C675 0.960 . S
H677 N657 0.862 . S
O678 Co646 1.920 . S
O678 C651 1.289 . S
C679 O671 1.258 . S
C679 O672 1.266 . S
Co680 O683 1.970 . S
Co680 N697 1.989 . S
Co680 O705 1.967 . S
Co680 O712 1.920 . S
Co681 O684 1.966 . S
Co681 N690 2.022 . S
Co681 N698 1.993 . S
Co681 O706 1.941 . S
C682 O683 1.258 . S
C682 O684 1.263 . S
O683 Co680 1.970 . S
O683 C682 1.258 . S
O684 Co681 1.966 . S
O684 C682 1.263 . S
C685 O686 1.235 . S
C685 O712 1.289 . S
O686 C685 1.235 . S
C687 C689 1.400 . S
C687 N690 1.351 . S
C687 C692 1.501 . S
C688 C689 1.387 . S
C688 N691 1.341 . S
C689 C687 1.400 . S
C689 C688 1.387 . S
N690 Co681 2.022 . S
N690 C687 1.351 . S
N690 N691 1.365 . S
N691 C688 1.341 . S
N691 N690 1.365 . S
N691 H711 0.862 . S
C692 C687 1.501 . S
C692 H693 0.961 . S
C692 H694 0.961 . S
C692 H695 0.960 . S
H693 C692 0.961 . S
H694 C692 0.961 . S
H695 C692 0.960 . S
C696 N697 1.342 . S
C696 C700 1.401 . S
C696 C701 1.499 . S
N697 Co680 1.989 . S
N697 C696 1.342 . S
N697 N698 1.388 . S
N698 Co681 1.993 . S
N698 N697 1.388 . S
N698 C699 1.346 . S
C699 N698 1.346 . S
C699 C700 1.396 . S
C699 C709 1.510 . S
C700 C696 1.401 . S
C700 C699 1.396 . S
C701 C696 1.499 . S
C701 H702 0.959 . S
C701 H703 0.960 . S
C701 H704 0.961 . S
H702 C701 0.959 . S
H703 C701 0.960 . S
H704 C701 0.961 . S
O705 Co680 1.967 . S
O705 C713 1.258 . S
O706 Co681 1.941 . S
O706 C713 1.266 . S
H707 C709 0.959 . S
H708 C709 0.961 . S
C709 C699 1.510 . S
C709 H707 0.959 . S
C709 H708 0.961 . S
C709 H710 0.960 . S
H710 C709 0.960 . S
H711 N691 0.862 . S
O712 Co680 1.920 . S
O712 C685 1.289 . S
C713 O705 1.258 . S
C713 O706 1.266 . S
Co714 O717 1.970 . S
Co714 N731 1.989 . S
Co714 O739 1.967 . S
Co714 O746 1.920 . S
Co715 O718 1.966 . S
Co715 N724 2.022 . S
Co715 N732 1.993 . S
Co715 O740 1.941 . S
C716 O717 1.258 . S
C716 O718 1.263 . S
O717 Co714 1.970 . S
O717 C716 1.258 . S
O718 Co715 1.966 . S
O718 C716 1.263 . S
C719 O720 1.235 . S
C719 O746 1.289 . S
O720 C719 1.235 . S
C721 C723 1.400 . S
C721 N724 1.351 . S
C721 C726 1.501 . S
C722 C723 1.387 . S
C722 N725 1.341 . S
C723 C721 1.400 . S
C723 C722 1.387 . S
N724 Co715 2.022 . S
N724 C721 1.351 . S
N724 N725 1.365 . S
N725 C722 1.341 . S
N725 N724 1.365 . S
N725 H745 0.862 . S
C726 C721 1.501 . S
C726 H727 0.961 . S
C726 H728 0.961 . S
C726 H729 0.960 . S
H727 C726 0.961 . S
H728 C726 0.961 . S
H729 C726 0.960 . S
C730 N731 1.342 . S
C730 C734 1.401 . S
C730 C735 1.499 . S
N731 Co714 1.989 . S
N731 C730 1.342 . S
N731 N732 1.388 . S
N732 Co715 1.993 . S
N732 N731 1.388 . S
N732 C733 1.346 . S
C733 N732 1.346 . S
C733 C734 1.396 . S
C733 C743 1.510 . S
C734 C730 1.401 . S
C734 C733 1.396 . S
C735 C730 1.499 . S
C735 H736 0.959 . S
C735 H737 0.960 . S
C735 H738 0.961 . S
H736 C735 0.959 . S
H737 C735 0.960 . S
H738 C735 0.961 . S
O739 Co714 1.967 . S
O739 C747 1.258 . S
O740 Co715 1.941 . S
O740 C747 1.266 . S
H741 C743 0.959 . S
H742 C743 0.961 . S
C743 C733 1.510 . S
C743 H741 0.959 . S
C743 H742 0.961 . S
C743 H744 0.960 . S
H744 C743 0.960 . S
H745 N725 0.862 . S
O746 Co714 1.920 . S
O746 C719 1.289 . S
C747 O739 1.258 . S
C747 O740 1.266 . S
Co748 O751 1.970 . S
Co748 N765 1.989 . S
Co748 O773 1.967 . S
Co748 O780 1.920 1_556 S
Co749 O752 1.966 . S
Co749 N758 2.022 . S
Co749 N766 1.993 . S
Co749 O774 1.941 . S
C750 O751 1.258 . S
C750 O752 1.263 . S
O751 Co748 1.970 . S
O751 C750 1.258 . S
O752 Co749 1.966 . S
O752 C750 1.263 . S
C753 O754 1.247 . S
C753 O780 1.289 . S
O754 C753 1.247 . S
C755 C757 1.400 . S
C755 N758 1.351 . S
C755 C760 1.501 . S
C756 C757 1.387 . S
C756 N759 1.341 . S
C757 C755 1.400 . S
C757 C756 1.387 . S
N758 Co749 2.022 . S
N758 C755 1.351 . S
N758 N759 1.365 . S
N759 C756 1.341 . S
N759 N758 1.365 . S
N759 H779 0.862 . S
C760 C755 1.501 . S
C760 H761 0.961 . S
C760 H762 0.961 . S
C760 H763 0.960 . S
H761 C760 0.961 . S
H762 C760 0.961 . S
H763 C760 0.960 . S
C764 N765 1.342 . S
C764 C768 1.401 . S
C764 C769 1.499 . S
N765 Co748 1.989 . S
N765 C764 1.342 . S
N765 N766 1.388 . S
N766 Co749 1.993 . S
N766 N765 1.388 . S
N766 C767 1.346 . S
C767 N766 1.346 . S
C767 C768 1.396 . S
C767 C777 1.510 . S
C768 C764 1.401 . S
C768 C767 1.396 . S
C769 C764 1.499 . S
C769 H770 0.959 . S
C769 H771 0.960 . S
C769 H772 0.961 . S
H770 C769 0.959 . S
H771 C769 0.960 . S
H772 C769 0.961 . S
O773 Co748 1.967 . S
O773 C781 1.258 . S
O774 Co749 1.941 . S
O774 C781 1.266 . S
H775 C777 0.959 . S
H776 C777 0.961 . S
C777 C767 1.510 . S
C777 H775 0.959 . S
C777 H776 0.961 . S
C777 H778 0.960 . S
H778 C777 0.960 . S
H779 N759 0.862 . S
O780 Co748 1.920 1_554 S
O780 C753 1.289 . S
C781 O773 1.258 . S
C781 O774 1.266 . S
Co782 O785 1.970 . S
Co782 N799 1.989 . S
Co782 O807 1.967 . S
Co782 O814 1.920 . S
Co783 O786 1.966 . S
Co783 N792 2.022 . S
Co783 N800 1.993 . S
Co783 O808 1.941 . S
C784 O785 1.258 . S
C784 O786 1.263 . S
O785 Co782 1.970 . S
O785 C784 1.258 . S
O786 Co783 1.966 . S
O786 C784 1.263 . S
C787 O788 1.235 . S
C787 O814 1.289 . S
O788 C787 1.235 . S
C789 C791 1.400 . S
C789 N792 1.351 . S
C789 C794 1.501 . S
C790 C791 1.387 . S
C790 N793 1.341 . S
C791 C789 1.400 . S
C791 C790 1.387 . S
N792 Co783 2.022 . S
N792 C789 1.351 . S
N792 N793 1.365 . S
N793 C790 1.341 . S
N793 N792 1.365 . S
N793 H813 0.862 . S
C794 C789 1.501 . S
C794 H795 0.961 . S
C794 H796 0.961 . S
C794 H797 0.960 . S
H795 C794 0.961 . S
H796 C794 0.961 . S
H797 C794 0.960 . S
C798 N799 1.342 . S
C798 C802 1.401 . S
C798 C803 1.499 . S
N799 Co782 1.989 . S
N799 C798 1.342 . S
N799 N800 1.388 . S
N800 Co783 1.993 . S
N800 N799 1.388 . S
N800 C801 1.346 . S
C801 N800 1.346 . S
C801 C802 1.396 . S
C801 C811 1.510 . S
C802 C798 1.401 . S
C802 C801 1.396 . S
C803 C798 1.499 . S
C803 H804 0.959 . S
C803 H805 0.960 . S
C803 H806 0.961 . S
H804 C803 0.959 . S
H805 C803 0.960 . S
H806 C803 0.961 . S
O807 Co782 1.967 . S
O807 C815 1.258 . S
O808 Co783 1.941 . S
O808 C815 1.266 . S
H809 C811 0.959 . S
H810 C811 0.961 . S
C811 C801 1.510 . S
C811 H809 0.959 . S
C811 H810 0.961 . S
C811 H812 0.960 . S
H812 C811 0.960 . S
H813 N793 0.862 . S
O814 Co782 1.920 . S
O814 C787 1.289 . S
C815 O807 1.258 . S
C815 O808 1.266 . S
Co816 O819 1.970 . S
Co816 N833 1.989 . S
Co816 O841 1.967 . S
Co816 O848 1.920 . S
Co817 O820 1.966 . S
Co817 N826 2.022 . S
Co817 N834 1.993 . S
Co817 O842 1.941 . S
C818 O819 1.258 . S
C818 O820 1.263 . S
O819 Co816 1.970 . S
O819 C818 1.258 . S
O820 Co817 1.966 . S
O820 C818 1.263 . S
C821 O822 1.235 . S
C821 O848 1.289 . S
O822 C821 1.235 . S
C823 C825 1.400 . S
C823 N826 1.351 . S
C823 C828 1.501 . S
C824 C825 1.387 . S
C824 N827 1.341 . S
C825 C823 1.400 . S
C825 C824 1.387 . S
N826 Co817 2.022 . S
N826 C823 1.351 . S
N826 N827 1.365 . S
N827 C824 1.341 . S
N827 N826 1.365 . S
N827 H847 0.862 . S
C828 C823 1.501 . S
C828 H829 0.961 . S
C828 H830 0.961 . S
C828 H831 0.960 . S
H829 C828 0.961 . S
H830 C828 0.961 . S
H831 C828 0.960 . S
C832 N833 1.342 . S
C832 C836 1.401 . S
C832 C837 1.499 . S
N833 Co816 1.989 . S
N833 C832 1.342 . S
N833 N834 1.388 . S
N834 Co817 1.993 . S
N834 N833 1.388 . S
N834 C835 1.346 . S
C835 N834 1.346 . S
C835 C836 1.396 . S
C835 C845 1.510 . S
C836 C832 1.401 . S
C836 C835 1.396 . S
C837 C832 1.499 . S
C837 H838 0.959 . S
C837 H839 0.960 . S
C837 H840 0.961 . S
H838 C837 0.959 . S
H839 C837 0.960 . S
H840 C837 0.961 . S
O841 Co816 1.967 . S
O841 C849 1.258 . S
O842 Co817 1.941 . S
O842 C849 1.266 . S
H843 C845 0.959 . S
H844 C845 0.961 . S
C845 C835 1.510 . S
C845 H843 0.959 . S
C845 H844 0.961 . S
C845 H846 0.960 . S
H846 C845 0.960 . S
H847 N827 0.862 . S
O848 Co816 1.920 . S
O848 C821 1.289 . S
C849 O841 1.258 . S
C849 O842 1.266 . S
Co850 O853 1.970 . S
Co850 N867 1.989 . S
Co850 O875 1.967 . S
Co850 O882 1.920 . S
Co851 O854 1.966 . S
Co851 N860 2.022 . S
Co851 N868 1.993 . S
Co851 O876 1.941 . S
C852 O853 1.258 . S
C852 O854 1.263 . S
O853 Co850 1.970 . S
O853 C852 1.258 . S
O854 Co851 1.966 . S
O854 C852 1.263 . S
C855 O856 1.235 . S
C855 O882 1.289 . S
O856 C855 1.235 . S
C857 C859 1.400 . S
C857 N860 1.351 . S
C857 C862 1.501 . S
C858 C859 1.387 . S
C858 N861 1.341 . S
C859 C857 1.400 . S
C859 C858 1.387 . S
N860 Co851 2.022 . S
N860 C857 1.351 . S
N860 N861 1.365 . S
N861 C858 1.341 . S
N861 N860 1.365 . S
N861 H881 0.862 . S
C862 C857 1.501 . S
C862 H863 0.961 . S
C862 H864 0.961 . S
C862 H865 0.960 . S
H863 C862 0.961 . S
H864 C862 0.961 . S
H865 C862 0.960 . S
C866 N867 1.342 . S
C866 C870 1.401 . S
C866 C871 1.499 . S
N867 Co850 1.989 . S
N867 C866 1.342 . S
N867 N868 1.388 . S
N868 Co851 1.993 . S
N868 N867 1.388 . S
N868 C869 1.346 . S
C869 N868 1.346 . S
C869 C870 1.396 . S
C869 C879 1.510 . S
C870 C866 1.401 . S
C870 C869 1.396 . S
C871 C866 1.499 . S
C871 H872 0.959 . S
C871 H873 0.960 . S
C871 H874 0.961 . S
H872 C871 0.959 . S
H873 C871 0.960 . S
H874 C871 0.961 . S
O875 Co850 1.967 . S
O875 C883 1.258 . S
O876 Co851 1.941 . S
O876 C883 1.266 . S
H877 C879 0.959 . S
H878 C879 0.961 . S
C879 C869 1.510 . S
C879 H877 0.959 . S
C879 H878 0.961 . S
C879 H880 0.960 . S
H880 C879 0.960 . S
H881 N861 0.862 . S
O882 Co850 1.920 . S
O882 C855 1.289 . S
C883 O875 1.258 . S
C883 O876 1.266 . S
Co884 O887 1.970 . S
Co884 N901 1.989 . S
Co884 O909 1.967 . S
Co884 O916 1.920 1_556 S
Co885 O888 1.966 . S
Co885 N894 2.022 . S
Co885 N902 1.993 . S
Co885 O910 1.941 . S
C886 O887 1.258 . S
C886 O888 1.263 . S
O887 Co884 1.970 . S
O887 C886 1.258 . S
O888 Co885 1.966 . S
O888 C886 1.263 . S
C889 O890 1.247 . S
C889 O916 1.289 . S
O890 C889 1.247 . S
C891 C893 1.400 . S
C891 N894 1.351 . S
C891 C896 1.501 . S
C892 C893 1.387 . S
C892 N895 1.341 . S
C893 C891 1.400 . S
C893 C892 1.387 . S
N894 Co885 2.022 . S
N894 C891 1.351 . S
N894 N895 1.365 . S
N895 C892 1.341 . S
N895 N894 1.365 . S
N895 H915 0.862 . S
C896 C891 1.501 . S
C896 H897 0.961 . S
C896 H898 0.961 . S
C896 H899 0.960 . S
H897 C896 0.961 . S
H898 C896 0.961 . S
H899 C896 0.960 . S
C900 N901 1.342 . S
C900 C904 1.401 . S
C900 C905 1.499 . S
N901 Co884 1.989 . S
N901 C900 1.342 . S
N901 N902 1.388 . S
N902 Co885 1.993 . S
N902 N901 1.388 . S
N902 C903 1.346 . S
C903 N902 1.346 . S
C903 C904 1.396 . S
C903 C913 1.510 . S
C904 C900 1.401 . S
C904 C903 1.396 . S
C905 C900 1.499 . S
C905 H906 0.959 . S
C905 H907 0.960 . S
C905 H908 0.961 . S
H906 C905 0.959 . S
H907 C905 0.960 . S
H908 C905 0.961 . S
O909 Co884 1.967 . S
O909 C917 1.258 . S
O910 Co885 1.941 . S
O910 C917 1.266 . S
H911 C913 0.959 . S
H912 C913 0.961 . S
C913 C903 1.510 . S
C913 H911 0.959 . S
C913 H912 0.961 . S
C913 H914 0.960 . S
H914 C913 0.960 . S
H915 N895 0.862 . S
O916 Co884 1.920 1_554 S
O916 C889 1.289 . S
C917 O909 1.258 . S
C917 O910 1.266 . S
Co918 O921 1.970 . S
Co918 N935 1.989 . S
Co918 O943 1.967 . S
Co918 O950 1.920 . S
Co919 O922 1.966 . S
Co919 N928 2.022 . S
Co919 N936 1.993 . S
Co919 O944 1.941 . S
C920 O921 1.258 . S
C920 O922 1.263 . S
O921 Co918 1.970 . S
O921 C920 1.258 . S
O922 Co919 1.966 . S
O922 C920 1.263 . S
C923 O924 1.235 . S
C923 O950 1.289 . S
O924 C923 1.235 . S
C925 C927 1.400 . S
C925 N928 1.351 . S
C925 C930 1.501 . S
C926 C927 1.387 . S
C926 N929 1.341 . S
C927 C925 1.400 . S
C927 C926 1.387 . S
N928 Co919 2.022 . S
N928 C925 1.351 . S
N928 N929 1.365 . S
N929 C926 1.341 . S
N929 N928 1.365 . S
N929 H949 0.862 . S
C930 C925 1.501 . S
C930 H931 0.961 . S
C930 H932 0.961 . S
C930 H933 0.960 . S
H931 C930 0.961 . S
H932 C930 0.961 . S
H933 C930 0.960 . S
C934 N935 1.342 . S
C934 C938 1.401 . S
C934 C939 1.499 . S
N935 Co918 1.989 . S
N935 C934 1.342 . S
N935 N936 1.388 . S
N936 Co919 1.993 . S
N936 N935 1.388 . S
N936 C937 1.346 . S
C937 N936 1.346 . S
C937 C938 1.396 . S
C937 C947 1.510 . S
C938 C934 1.401 . S
C938 C937 1.396 . S
C939 C934 1.499 . S
C939 H940 0.959 . S
C939 H941 0.960 . S
C939 H942 0.961 . S
H940 C939 0.959 . S
H941 C939 0.960 . S
H942 C939 0.961 . S
O943 Co918 1.967 . S
O943 C951 1.258 . S
O944 Co919 1.941 . S
O944 C951 1.266 . S
H945 C947 0.959 . S
H946 C947 0.961 . S
C947 C937 1.510 . S
C947 H945 0.959 . S
C947 H946 0.961 . S
C947 H948 0.960 . S
H948 C947 0.960 . S
H949 N929 0.862 . S
O950 Co918 1.920 . S
O950 C923 1.289 . S
C951 O943 1.258 . S
C951 O944 1.266 . S
Co952 O955 1.970 . S
Co952 N969 1.989 . S
Co952 O977 1.967 . S
Co952 O984 1.920 . S
Co953 O956 1.966 . S
Co953 N962 2.022 . S
Co953 N970 1.993 . S
Co953 O978 1.941 . S
C954 O955 1.258 . S
C954 O956 1.263 . S
O955 Co952 1.970 . S
O955 C954 1.258 . S
O956 Co953 1.966 . S
O956 C954 1.263 . S
C957 O958 1.235 . S
C957 O984 1.289 . S
O958 C957 1.235 . S
C959 C961 1.400 . S
C959 N962 1.351 . S
C959 C964 1.501 . S
C960 C961 1.387 . S
C960 N963 1.341 . S
C961 C959 1.400 . S
C961 C960 1.387 . S
N962 Co953 2.022 . S
N962 C959 1.351 . S
N962 N963 1.365 . S
N963 C960 1.341 . S
N963 N962 1.365 . S
N963 H983 0.862 . S
C964 C959 1.501 . S
C964 H965 0.961 . S
C964 H966 0.961 . S
C964 H967 0.960 . S
H965 C964 0.961 . S
H966 C964 0.961 . S
H967 C964 0.960 . S
C968 N969 1.342 . S
C968 C972 1.401 . S
C968 C973 1.499 . S
N969 Co952 1.989 . S
N969 C968 1.342 . S
N969 N970 1.388 . S
N970 Co953 1.993 . S
N970 N969 1.388 . S
N970 C971 1.346 . S
C971 N970 1.346 . S
C971 C972 1.396 . S
C971 C981 1.510 . S
C972 C968 1.401 . S
C972 C971 1.396 . S
C973 C968 1.499 . S
C973 H974 0.959 . S
C973 H975 0.960 . S
C973 H976 0.961 . S
H974 C973 0.959 . S
H975 C973 0.960 . S
H976 C973 0.961 . S
O977 Co952 1.967 . S
O977 C985 1.258 . S
O978 Co953 1.941 . S
O978 C985 1.266 . S
H979 C981 0.959 . S
H980 C981 0.961 . S
C981 C971 1.510 . S
C981 H979 0.959 . S
C981 H980 0.961 . S
C981 H982 0.960 . S
H982 C981 0.960 . S
H983 N963 0.862 . S
O984 Co952 1.920 . S
O984 C957 1.289 . S
C985 O977 1.258 . S
C985 O978 1.266 . S
Co986 O989 1.970 . S
Co986 N1003 1.989 . S
Co986 O1011 1.967 . S
Co986 O1018 1.920 . S
Co987 O990 1.966 . S
Co987 N996 2.022 . S
Co987 N1004 1.993 . S
Co987 O1012 1.941 . S
C988 O989 1.258 . S
C988 O990 1.263 . S
O989 Co986 1.970 . S
O989 C988 1.258 . S
O990 Co987 1.966 . S
O990 C988 1.263 . S
C991 O992 1.235 . S
C991 O1018 1.289 . S
O992 C991 1.235 . S
C993 C995 1.400 . S
C993 N996 1.351 . S
C993 C998 1.501 . S
C994 C995 1.387 . S
C994 N997 1.341 . S
C995 C993 1.400 . S
C995 C994 1.387 . S
N996 Co987 2.022 . S
N996 C993 1.351 . S
N996 N997 1.365 . S
N997 C994 1.341 . S
N997 N996 1.365 . S
N997 H1017 0.862 . S
C998 C993 1.501 . S
C998 H999 0.961 . S
C998 H1000 0.961 . S
C998 H1001 0.960 . S
H999 C998 0.961 . S
H1000 C998 0.961 . S
H1001 C998 0.960 . S
C1002 N1003 1.342 . S
C1002 C1006 1.401 . S
C1002 C1007 1.499 . S
N1003 Co986 1.989 . S
N1003 C1002 1.342 . S
N1003 N1004 1.388 . S
N1004 Co987 1.993 . S
N1004 N1003 1.388 . S
N1004 C1005 1.346 . S
C1005 N1004 1.346 . S
C1005 C1006 1.396 . S
C1005 C1015 1.510 . S
C1006 C1002 1.401 . S
C1006 C1005 1.396 . S
C1007 C1002 1.499 . S
C1007 H1008 0.959 . S
C1007 H1009 0.960 . S
C1007 H1010 0.961 . S
H1008 C1007 0.959 . S
H1009 C1007 0.960 . S
H1010 C1007 0.961 . S
O1011 Co986 1.967 . S
O1011 C1019 1.258 . S
O1012 Co987 1.941 . S
O1012 C1019 1.266 . S
H1013 C1015 0.959 . S
H1014 C1015 0.961 . S
C1015 C1005 1.510 . S
C1015 H1013 0.959 . S
C1015 H1014 0.961 . S
C1015 H1016 0.960 . S
H1016 C1015 0.960 . S
H1017 N997 0.862 . S
O1018 Co986 1.920 . S
O1018 C991 1.289 . S
C1019 O1011 1.258 . S
C1019 O1012 1.266 . S
Co1020 O1023 1.970 . S
Co1020 N1037 1.989 . S
Co1020 O1045 1.967 . S
Co1020 O1052 1.920 1_554 S
Co1021 O1024 1.966 . S
Co1021 N1030 2.022 . S
Co1021 N1038 1.993 . S
Co1021 O1046 1.941 . S
C1022 O1023 1.258 . S
C1022 O1024 1.263 . S
O1023 Co1020 1.970 . S
O1023 C1022 1.258 . S
O1024 Co1021 1.966 . S
O1024 C1022 1.263 . S
C1025 O1026 1.247 . S
C1025 O1052 1.289 . S
O1026 C1025 1.247 . S
C1027 C1029 1.400 . S
C1027 N1030 1.351 . S
C1027 C1032 1.501 . S
C1028 C1029 1.387 . S
C1028 N1031 1.341 . S
C1029 C1027 1.400 . S
C1029 C1028 1.387 . S
N1030 Co1021 2.022 . S
N1030 C1027 1.351 . S
N1030 N1031 1.365 . S
N1031 C1028 1.341 . S
N1031 N1030 1.365 . S
N1031 H1051 0.862 . S
C1032 C1027 1.501 . S
C1032 H1033 0.961 . S
C1032 H1034 0.961 . S
C1032 H1035 0.960 . S
H1033 C1032 0.961 . S
H1034 C1032 0.961 . S
H1035 C1032 0.960 . S
C1036 N1037 1.342 . S
C1036 C1040 1.401 . S
C1036 C1041 1.499 . S
N1037 Co1020 1.989 . S
N1037 C1036 1.342 . S
N1037 N1038 1.388 . S
N1038 Co1021 1.993 . S
N1038 N1037 1.388 . S
N1038 C1039 1.346 . S
C1039 N1038 1.346 . S
C1039 C1040 1.396 . S
C1039 C1049 1.510 . S
C1040 C1036 1.401 . S
C1040 C1039 1.396 . S
C1041 C1036 1.499 . S
C1041 H1042 0.959 . S
C1041 H1043 0.960 . S
C1041 H1044 0.961 . S
H1042 C1041 0.959 . S
H1043 C1041 0.960 . S
H1044 C1041 0.961 . S
O1045 Co1020 1.967 . S
O1045 C1053 1.258 . S
O1046 Co1021 1.941 . S
O1046 C1053 1.266 . S
H1047 C1049 0.959 . S
H1048 C1049 0.961 . S
C1049 C1039 1.510 . S
C1049 H1047 0.959 . S
C1049 H1048 0.961 . S
C1049 H1050 0.960 . S
H1050 C1049 0.960 . S
H1051 N1031 0.862 . S
O1052 Co1020 1.920 1_556 S
O1052 C1025 1.289 . S
C1053 O1045 1.258 . S
C1053 O1046 1.266 . S
Co1054 O1057 1.970 . S
Co1054 N1071 1.989 . S
Co1054 O1079 1.967 . S
Co1054 O1086 1.920 . S
Co1055 O1058 1.966 . S
Co1055 N1064 2.022 . S
Co1055 N1072 1.993 . S
Co1055 O1080 1.941 . S
C1056 O1057 1.258 . S
C1056 O1058 1.263 . S
O1057 Co1054 1.970 . S
O1057 C1056 1.258 . S
O1058 Co1055 1.966 . S
O1058 C1056 1.263 . S
C1059 O1060 1.235 . S
C1059 O1086 1.289 . S
O1060 C1059 1.235 . S
C1061 C1063 1.400 . S
C1061 N1064 1.351 . S
C1061 C1066 1.501 . S
C1062 C1063 1.387 . S
C1062 N1065 1.341 . S
C1063 C1061 1.400 . S
C1063 C1062 1.387 . S
N1064 Co1055 2.022 . S
N1064 C1061 1.351 . S
N1064 N1065 1.365 . S
N1065 C1062 1.341 . S
N1065 N1064 1.365 . S
N1065 H1085 0.862 . S
C1066 C1061 1.501 . S
C1066 H1067 0.961 . S
C1066 H1068 0.961 . S
C1066 H1069 0.960 . S
H1067 C1066 0.961 . S
H1068 C1066 0.961 . S
H1069 C1066 0.960 . S
C1070 N1071 1.342 . S
C1070 C1074 1.401 . S
C1070 C1075 1.499 . S
N1071 Co1054 1.989 . S
N1071 C1070 1.342 . S
N1071 N1072 1.388 . S
N1072 Co1055 1.993 . S
N1072 N1071 1.388 . S
N1072 C1073 1.346 . S
C1073 N1072 1.346 . S
C1073 C1074 1.396 . S
C1073 C1083 1.510 . S
C1074 C1070 1.401 . S
C1074 C1073 1.396 . S
C1075 C1070 1.499 . S
C1075 H1076 0.959 . S
C1075 H1077 0.960 . S
C1075 H1078 0.961 . S
H1076 C1075 0.959 . S
H1077 C1075 0.960 . S
H1078 C1075 0.961 . S
O1079 Co1054 1.967 . S
O1079 C1087 1.258 . S
O1080 Co1055 1.941 . S
O1080 C1087 1.266 . S
H1081 C1083 0.959 . S
H1082 C1083 0.961 . S
C1083 C1073 1.510 . S
C1083 H1081 0.959 . S
C1083 H1082 0.961 . S
C1083 H1084 0.960 . S
H1084 C1083 0.960 . S
H1085 N1065 0.862 . S
O1086 Co1054 1.920 . S
O1086 C1059 1.289 . S
C1087 O1079 1.258 . S
C1087 O1080 1.266 . S
C1088 C1089 1.349 . S
C1088 C1090 1.327 . S
C1088 H1113 0.950 . S
C1089 C1088 1.349 . S
C1089 C1105 1.349 1_565 S
C1090 C1088 1.327 . S
C1090 C1109 1.429 1_565 S
C1090 H1114 0.950 . S
C1091 C1108 1.574 . S
C1091 C1110 1.368 . S
C1091 H1115 0.949 . S
H1092 C1096 0.949 . S
C1093 C1094 1.349 . S
C1093 C1095 1.327 . S
C1093 H1116 0.950 . S
C1094 C1093 1.349 . S
C1094 C1106 1.349 . S
C1095 C1093 1.327 . S
C1095 C1111 1.429 . S
C1095 H1117 0.950 . S
C1096 H1092 0.949 . S
C1096 C1104 1.574 . S
C1096 C1112 1.368 . S
H1097 C1105 0.950 . S
H1098 C1103 0.950 . S
H1099 C1104 0.949 . S
H1100 C1106 0.950 . S
H1101 C1107 0.950 . S
H1102 C1108 0.949 . S
C1103 H1098 0.950 . S
C1103 C1105 1.327 . S
C1103 C1109 1.429 . S
C1104 C1096 1.574 . S
C1104 H1099 0.949 . S
C1104 C1110 1.368 . S
C1105 C1089 1.349 1_545 S
C1105 H1097 0.950 . S
C1105 C1103 1.327 . S
C1106 C1094 1.349 . S
C1106 H1100 0.950 . S
C1106 C1107 1.327 . S
C1107 H1101 0.950 . S
C1107 C1106 1.327 . S
C1107 C1111 1.429 . S
C1108 C1091 1.574 . S
C1108 H1102 0.949 . S
C1108 C1112 1.368 . S
C1109 C1090 1.429 1_545 S
C1109 C1103 1.429 . S
C1109 C1110 1.523 . S
C1110 C1091 1.368 . S
C1110 C1104 1.368 . S
C1110 C1109 1.523 . S
C1111 C1095 1.429 . S
C1111 C1107 1.429 . S
C1111 C1112 1.523 . S
C1112 C1096 1.368 . S
C1112 C1108 1.368 . S
C1112 C1111 1.523 . S
H1113 C1088 0.950 . S
H1114 C1090 0.950 . S
H1115 C1091 0.949 . S
H1116 C1093 0.950 . S
H1117 C1095 0.950 . S
C1118 C1119 1.349 . S
C1118 C1120 1.327 . S
C1118 H1143 0.950 . S
C1119 C1118 1.349 . S
C1119 C1135 1.349 . S
C1120 C1118 1.327 . S
C1120 C1139 1.429 . S
C1120 H1144 0.950 . S
C1121 C1138 1.574 . S
C1121 C1140 1.368 . S
C1121 H1145 0.949 . S
H1122 C1126 0.949 . S
C1123 C1124 1.349 . S
C1123 C1125 1.327 . S
C1123 H1146 0.950 . S
C1124 C1123 1.349 . S
C1124 C1136 1.349 . S
C1125 C1123 1.327 . S
C1125 C1141 1.429 . S
C1125 H1147 0.950 . S
C1126 H1122 0.949 . S
C1126 C1134 1.574 . S
C1126 C1142 1.368 . S
H1127 C1135 0.950 . S
H1128 C1133 0.950 . S
H1129 C1134 0.949 . S
H1130 C1136 0.950 . S
H1131 C1137 0.950 . S
H1132 C1138 0.949 . S
C1133 H1128 0.950 . S
C1133 C1135 1.327 . S
C1133 C1139 1.429 . S
C1134 C1126 1.574 . S
C1134 H1129 0.949 . S
C1134 C1140 1.368 . S
C1135 C1119 1.349 . S
C1135 H1127 0.950 . S
C1135 C1133 1.327 . S
C1136 C1124 1.349 . S
C1136 H1130 0.950 . S
C1136 C1137 1.327 . S
C1137 H1131 0.950 . S
C1137 C1136 1.327 . S
C1137 C1141 1.429 . S
C1138 C1121 1.574 . S
C1138 H1132 0.949 . S
C1138 C1142 1.368 . S
C1139 C1120 1.429 . S
C1139 C1133 1.429 . S
C1139 C1140 1.523 . S
C1140 C1121 1.368 . S
C1140 C1134 1.368 . S
C1140 C1139 1.523 . S
C1141 C1125 1.429 . S
C1141 C1137 1.429 . S
C1141 C1142 1.523 . S
C1142 C1126 1.368 . S
C1142 C1138 1.368 . S
C1142 C1141 1.523 . S
H1143 C1118 0.950 . S
H1144 C1120 0.950 . S
H1145 C1121 0.949 . S
H1146 C1123 0.950 . S
H1147 C1125 0.950 . S
C1148 C1149 1.349 . S
C1148 C1150 1.327 . S
C1148 H1173 0.950 . S
C1149 C1148 1.349 . S
C1149 C1165 1.349 . S
C1150 C1148 1.327 . S
C1150 C1169 1.429 . S
C1150 H1174 0.950 . S
C1151 C1168 1.574 . S
C1151 C1170 1.368 . S
C1151 H1175 0.949 . S
H1152 C1156 0.949 . S
C1153 C1154 1.325 1_565 S
C1153 C1155 1.350 . S
C1153 H1176 0.949 . S
C1154 C1153 1.325 1_545 S
C1154 C1166 1.349 . S
C1155 C1153 1.350 . S
C1155 C1171 1.429 . S
C1155 H1177 0.950 . S
C1156 H1152 0.949 . S
C1156 C1164 1.574 . S
C1156 C1172 1.368 . S
H1157 C1165 0.950 . S
H1158 C1163 0.950 . S
H1159 C1164 0.949 . S
H1160 C1166 0.950 . S
H1161 C1167 0.950 . S
H1162 C1168 0.949 . S
C1163 H1158 0.950 . S
C1163 C1165 1.327 . S
C1163 C1169 1.429 . S
C1164 C1156 1.574 . S
C1164 H1159 0.949 . S
C1164 C1170 1.368 . S
C1165 C1149 1.349 . S
C1165 H1157 0.950 . S
C1165 C1163 1.327 . S
C1166 C1154 1.349 . S
C1166 H1160 0.950 . S
C1166 C1167 1.327 . S
C1167 H1161 0.950 . S
C1167 C1166 1.327 . S
C1167 C1171 1.429 1_545 S
C1168 C1151 1.574 . S
C1168 H1162 0.949 . S
C1168 C1172 1.368 . S
C1169 C1150 1.429 . S
C1169 C1163 1.429 . S
C1169 C1170 1.523 . S
C1170 C1151 1.368 . S
C1170 C1164 1.368 . S
C1170 C1169 1.523 . S
C1171 C1155 1.429 . S
C1171 C1167 1.429 1_565 S
C1171 C1172 1.523 . S
C1172 C1156 1.368 . S
C1172 C1168 1.368 . S
C1172 C1171 1.523 . S
H1173 C1148 0.950 . S
H1174 C1150 0.950 . S
H1175 C1151 0.949 . S
H1176 C1153 0.949 . S
H1177 C1155 0.950 . S
C1178 C1179 1.349 . S
C1178 C1180 1.327 . S
C1178 H1203 0.950 . S
C1179 C1178 1.349 . S
C1179 C1195 1.349 . S
C1180 C1178 1.327 . S
C1180 C1199 1.429 . S
C1180 H1204 0.950 . S
C1181 C1198 1.574 . S
C1181 C1200 1.368 . S
C1181 H1205 0.949 . S
H1182 C1186 0.949 . S
C1183 C1184 1.349 . S
C1183 C1185 1.327 . S
C1183 H1206 0.950 1_556 S
C1184 C1183 1.349 . S
C1184 C1196 1.349 . S
C1185 C1183 1.327 . S
C1185 C1201 1.429 . S
C1185 H1207 0.950 . S
C1186 H1182 0.949 . S
C1186 C1194 1.574 . S
C1186 C1202 1.368 . S
H1187 C1195 0.950 . S
H1188 C1193 0.950 . S
H1189 C1194 0.949 . S
H1190 C1196 0.950 . S
H1191 C1197 0.950 . S
H1192 C1198 0.949 . S
C1193 H1188 0.950 . S
C1193 C1195 1.327 . S
C1193 C1199 1.429 . S
C1194 C1186 1.574 . S
C1194 H1189 0.949 . S
C1194 C1200 1.368 . S
C1195 C1179 1.349 . S
C1195 H1187 0.950 . S
C1195 C1193 1.327 . S
C1196 C1184 1.349 . S
C1196 H1190 0.950 . S
C1196 C1197 1.327 . S
C1197 H1191 0.950 . S
C1197 C1196 1.327 . S
C1197 C1201 1.429 . S
C1198 C1181 1.574 . S
C1198 H1192 0.949 . S
C1198 C1202 1.368 . S
C1199 C1180 1.429 . S
C1199 C1193 1.429 . S
C1199 C1200 1.523 . S
C1200 C1181 1.368 . S
C1200 C1194 1.368 . S
C1200 C1199 1.523 . S
C1201 C1185 1.429 . S
C1201 C1197 1.429 . S
C1201 C1202 1.523 . S
C1202 C1186 1.368 . S
C1202 C1198 1.368 . S
C1202 C1201 1.523 . S
H1203 C1178 0.950 . S
H1204 C1180 0.950 . S
H1205 C1181 0.949 . S
H1206 C1183 0.950 1_554 S
H1207 C1185 0.950 . S
C1208 C1209 1.349 . S
C1208 C1210 1.327 . S
C1208 H1233 0.950 . S
C1209 C1208 1.349 . S
C1209 C1225 1.349 . S
C1210 C1208 1.327 . S
C1210 C1229 1.429 . S
C1210 H1234 0.950 . S
C1211 C1228 1.574 . S
C1211 C1230 1.368 . S
C1211 H1235 0.949 . S
H1212 C1216 0.949 . S
C1213 C1214 1.349 1_565 S
C1213 C1215 1.327 . S
C1213 H1236 0.950 . S
C1214 C1213 1.349 1_545 S
C1214 C1226 1.349 . S
C1215 C1213 1.327 . S
C1215 C1231 1.429 . S
C1215 H1237 0.950 . S
C1216 H1212 0.949 . S
C1216 C1224 1.574 . S
C1216 C1232 1.368 . S
H1217 C1225 0.950 . S
H1218 C1223 0.950 . S
H1219 C1224 0.949 . S
H1220 C1226 0.950 . S
H1221 C1227 0.950 . S
H1222 C1228 0.949 . S
C1223 H1218 0.950 . S
C1223 C1225 1.327 . S
C1223 C1229 1.429 . S
C1224 C1216 1.574 . S
C1224 H1219 0.949 . S
C1224 C1230 1.368 . S
C1225 C1209 1.349 . S
C1225 H1217 0.950 . S
C1225 C1223 1.327 . S
C1226 C1214 1.349 . S
C1226 H1220 0.950 . S
C1226 C1227 1.327 . S
C1227 H1221 0.950 . S
C1227 C1226 1.327 . S
C1227 C1231 1.429 1_545 S
C1228 C1211 1.574 . S
C1228 H1222 0.949 . S
C1228 C1232 1.368 . S
C1229 C1210 1.429 . S
C1229 C1223 1.429 . S
C1229 C1230 1.523 . S
C1230 C1211 1.368 . S
C1230 C1224 1.368 . S
C1230 C1229 1.523 . S
C1231 C1215 1.429 . S
C1231 C1227 1.429 1_565 S
C1231 C1232 1.523 . S
C1232 C1216 1.368 . S
C1232 C1228 1.368 . S
C1232 C1231 1.523 . S
H1233 C1208 0.950 . S
H1234 C1210 0.950 . S
H1235 C1211 0.949 . S
H1236 C1213 0.950 . S
H1237 C1215 0.950 . S
C1238 C1239 1.349 . S
C1238 C1240 1.327 . S
C1238 H1263 0.950 1_554 S
C1239 C1238 1.349 . S
C1239 C1255 1.349 . S
C1240 C1238 1.327 . S
C1240 C1259 1.429 . S
C1240 H1264 0.950 . S
C1241 C1258 1.574 . S
C1241 C1260 1.368 . S
C1241 H1265 0.949 . S
H1242 C1246 0.949 . S
C1243 C1244 1.349 . S
C1243 C1245 1.327 . S
C1243 H1266 0.950 . S
C1244 C1243 1.349 . S
C1244 C1256 1.349 . S
C1245 C1243 1.327 . S
C1245 C1261 1.429 . S
C1245 H1267 0.950 . S
C1246 H1242 0.949 . S
C1246 C1254 1.574 . S
C1246 C1262 1.368 . S
H1247 C1255 0.950 . S
H1248 C1253 0.950 . S
H1249 C1254 0.949 . S
H1250 C1256 0.950 . S
H1251 C1257 0.950 . S
H1252 C1258 0.949 . S
C1253 H1248 0.950 . S
C1253 C1255 1.327 . S
C1253 C1259 1.429 . S
C1254 C1246 1.574 . S
C1254 H1249 0.949 . S
C1254 C1260 1.368 . S
C1255 C1239 1.349 . S
C1255 H1247 0.950 . S
C1255 C1253 1.327 . S
C1256 C1244 1.349 . S
C1256 H1250 0.950 . S
C1256 C1257 1.327 . S
C1257 H1251 0.950 . S
C1257 C1256 1.327 . S
C1257 C1261 1.429 . S
C1258 C1241 1.574 . S
C1258 H1252 0.949 . S
C1258 C1262 1.368 . S
C1259 C1240 1.429 . S
C1259 C1253 1.429 . S
C1259 C1260 1.523 . S
C1260 C1241 1.368 . S
C1260 C1254 1.368 . S
C1260 C1259 1.523 . S
C1261 C1245 1.429 . S
C1261 C1257 1.429 . S
C1261 C1262 1.523 . S
C1262 C1246 1.368 . S
C1262 C1258 1.368 . S
C1262 C1261 1.523 . S
H1263 C1238 0.950 1_556 S
H1264 C1240 0.950 . S
H1265 C1241 0.949 . S
H1266 C1243 0.950 . S
H1267 C1245 0.950 . S
C1268 C1269 1.349 . S
C1268 C1270 1.327 . S
C1268 H1293 0.950 . S
C1269 C1268 1.349 . S
C1269 C1285 1.349 . S
C1270 C1268 1.327 . S
C1270 C1289 1.429 . S
C1270 H1294 0.950 . S
C1271 C1288 1.574 . S
C1271 C1290 1.368 . S
C1271 H1295 0.949 . S
H1272 C1276 0.949 . S
C1273 C1274 1.349 1_545 S
C1273 C1275 1.327 . S
C1273 H1296 0.950 . S
C1274 C1273 1.349 1_565 S
C1274 C1286 1.349 . S
C1275 C1273 1.327 . S
C1275 C1291 1.429 . S
C1275 H1297 0.950 . S
C1276 H1272 0.949 . S
C1276 C1284 1.574 . S
C1276 C1292 1.368 . S
H1277 C1285 0.950 . S
H1278 C1283 0.950 . S
H1279 C1284 0.949 . S
H1280 C1286 0.950 . S
H1281 C1287 0.950 . S
H1282 C1288 0.949 . S
C1283 H1278 0.950 . S
C1283 C1285 1.327 . S
C1283 C1289 1.429 . S
C1284 C1276 1.574 . S
C1284 H1279 0.949 . S
C1284 C1290 1.368 . S
C1285 C1269 1.349 . S
C1285 H1277 0.950 . S
C1285 C1283 1.327 . S
C1286 C1274 1.349 . S
C1286 H1280 0.950 . S
C1286 C1287 1.327 . S
C1287 H1281 0.950 . S
C1287 C1286 1.327 . S
C1287 C1291 1.429 1_565 S
C1288 C1271 1.574 . S
C1288 H1282 0.949 . S
C1288 C1292 1.368 . S
C1289 C1270 1.429 . S
C1289 C1283 1.429 . S
C1289 C1290 1.523 . S
C1290 C1271 1.368 . S
C1290 C1284 1.368 . S
C1290 C1289 1.523 . S
C1291 C1275 1.429 . S
C1291 C1287 1.429 1_545 S
C1291 C1292 1.523 . S
C1292 C1276 1.368 . S
C1292 C1288 1.368 . S
C1292 C1291 1.523 . S
H1293 C1268 0.950 . S
H1294 C1270 0.950 . S
H1295 C1271 0.949 . S
H1296 C1273 0.950 . S
H1297 C1275 0.950 . S
C1298 C1299 1.349 . S
C1298 C1300 1.327 . S
C1298 H1323 0.950 . S
C1299 C1298 1.349 . S
C1299 C1315 1.349 . S
C1300 C1298 1.327 . S
C1300 C1319 1.429 . S
C1300 H1324 0.950 . S
C1301 C1318 1.574 . S
C1301 C1320 1.368 . S
C1301 H1325 0.949 . S
H1302 C1306 0.949 . S
C1303 C1304 1.349 . S
C1303 C1305 1.327 . S
C1303 H1326 0.950 . S
C1304 C1303 1.349 . S
C1304 C1316 1.349 . S
C1305 C1303 1.327 . S
C1305 C1321 1.429 . S
C1305 H1327 0.950 . S
C1306 H1302 0.949 . S
C1306 C1314 1.574 . S
C1306 C1322 1.368 . S
H1307 C1315 0.950 . S
H1308 C1313 0.950 . S
H1309 C1314 0.949 . S
H1310 C1316 0.950 . S
H1311 C1317 0.950 . S
H1312 C1318 0.949 . S
C1313 H1308 0.950 . S
C1313 C1315 1.327 . S
C1313 C1319 1.429 . S
C1314 C1306 1.574 . S
C1314 H1309 0.949 . S
C1314 C1320 1.368 . S
C1315 C1299 1.349 . S
C1315 H1307 0.950 . S
C1315 C1313 1.327 . S
C1316 C1304 1.349 . S
C1316 H1310 0.950 . S
C1316 C1317 1.327 . S
C1317 H1311 0.950 . S
C1317 C1316 1.327 . S
C1317 C1321 1.429 . S
C1318 C1301 1.574 . S
C1318 H1312 0.949 . S
C1318 C1322 1.368 . S
C1319 C1300 1.429 . S
C1319 C1313 1.429 . S
C1319 C1320 1.523 . S
C1320 C1301 1.368 . S
C1320 C1314 1.368 . S
C1320 C1319 1.523 . S
C1321 C1305 1.429 . S
C1321 C1317 1.429 . S
C1321 C1322 1.523 . S
C1322 C1306 1.368 . S
C1322 C1318 1.368 . S
C1322 C1321 1.523 . S
H1323 C1298 0.950 . S
H1324 C1300 0.950 . S
H1325 C1301 0.949 . S
H1326 C1303 0.950 . S
H1327 C1305 0.950 . S
C1328 C1329 1.349 . S
C1328 C1330 1.327 . S
C1328 H1353 0.950 . S
C1329 C1328 1.349 . S
C1329 C1345 1.349 1_545 S
C1330 C1328 1.327 . S
C1330 C1349 1.429 1_545 S
C1330 H1354 0.950 . S
C1331 C1348 1.574 . S
C1331 C1350 1.368 . S
C1331 H1355 0.949 . S
H1332 C1336 0.949 . S
C1333 C1334 1.349 . S
C1333 C1335 1.327 . S
C1333 H1356 0.950 . S
C1334 C1333 1.349 . S
C1334 C1346 1.349 . S
C1335 C1333 1.327 . S
C1335 C1351 1.429 . S
C1335 H1357 0.950 . S
C1336 H1332 0.949 . S
C1336 C1344 1.574 . S
C1336 C1352 1.368 . S
H1337 C1345 0.950 . S
H1338 C1343 0.950 . S
H1339 C1344 0.949 . S
H1340 C1346 0.950 . S
H1341 C1347 0.950 . S
H1342 C1348 0.949 . S
C1343 H1338 0.950 . S
C1343 C1345 1.327 . S
C1343 C1349 1.429 . S
C1344 C1336 1.574 . S
C1344 H1339 0.949 . S
C1344 C1350 1.368 . S
C1345 C1329 1.349 1_565 S
C1345 H1337 0.950 . S
C1345 C1343 1.327 . S
C1346 C1334 1.349 . S
C1346 H1340 0.950 . S
C1346 C1347 1.327 . S
C1347 H1341 0.950 . S
C1347 C1346 1.327 . S
C1347 C1351 1.429 . S
C1348 C1331 1.574 . S
C1348 H1342 0.949 . S
C1348 C1352 1.368 . S
C1349 C1330 1.429 1_565 S
C1349 C1343 1.429 . S
C1349 C1350 1.523 . S
C1350 C1331 1.368 . S
C1350 C1344 1.368 . S
C1350 C1349 1.523 . S
C1351 C1335 1.429 . S
C1351 C1347 1.429 . S
C1351 C1352 1.523 . S
C1352 C1336 1.368 . S
C1352 C1348 1.368 . S
C1352 C1351 1.523 . S
H1353 C1328 0.950 . S
H1354 C1330 0.950 . S
H1355 C1331 0.949 . S
H1356 C1333 0.950 . S
H1357 C1335 0.950 . S
C1358 C1359 1.349 . S
C1358 C1360 1.327 . S
C1358 H1383 0.950 . S
C1359 C1358 1.349 . S
C1359 C1375 1.349 . S
C1360 C1358 1.327 . S
C1360 C1379 1.429 . S
C1360 H1384 0.950 . S
C1361 C1378 1.574 . S
C1361 C1380 1.368 . S
C1361 H1385 0.949 . S
H1362 C1366 0.949 . S
C1363 C1364 1.349 . S
C1363 C1365 1.327 . S
C1363 H1386 0.950 . S
C1364 C1363 1.349 . S
C1364 C1376 1.349 . S
C1365 C1363 1.327 . S
C1365 C1381 1.429 . S
C1365 H1387 0.950 . S
C1366 H1362 0.949 . S
C1366 C1374 1.574 . S
C1366 C1382 1.368 . S
H1367 C1375 0.950 . S
H1368 C1373 0.950 . S
H1369 C1374 0.949 . S
H1370 C1376 0.950 . S
H1371 C1377 0.950 . S
H1372 C1378 0.949 . S
C1373 H1368 0.950 . S
C1373 C1375 1.327 . S
C1373 C1379 1.429 . S
C1374 C1366 1.574 . S
C1374 H1369 0.949 . S
C1374 C1380 1.368 . S
C1375 C1359 1.349 . S
C1375 H1367 0.950 . S
C1375 C1373 1.327 . S
C1376 C1364 1.349 . S
C1376 H1370 0.950 . S
C1376 C1377 1.327 . S
C1377 H1371 0.950 . S
C1377 C1376 1.327 . S
C1377 C1381 1.429 . S
C1378 C1361 1.574 . S
C1378 H1372 0.949 . S
C1378 C1382 1.368 . S
C1379 C1360 1.429 . S
C1379 C1373 1.429 . S
C1379 C1380 1.523 . S
C1380 C1361 1.368 . S
C1380 C1374 1.368 . S
C1380 C1379 1.523 . S
C1381 C1365 1.429 . S
C1381 C1377 1.429 . S
C1381 C1382 1.523 . S
C1382 C1366 1.368 . S
C1382 C1378 1.368 . S
C1382 C1381 1.523 . S
H1383 C1358 0.950 . S
H1384 C1360 0.950 . S
H1385 C1361 0.949 . S
H1386 C1363 0.950 . S
H1387 C1365 0.950 . S
C1388 C1389 1.349 . S
C1388 C1390 1.327 . S
C1388 H1413 0.950 . S
C1389 C1388 1.349 . S
C1389 C1405 1.349 . S
C1390 C1388 1.327 . S
C1390 C1409 1.429 . S
C1390 H1414 0.950 . S
C1391 C1408 1.574 . S
C1391 C1410 1.368 . S
C1391 H1415 0.949 . S
H1392 C1396 0.949 . S
C1393 C1394 1.349 . S
C1393 C1395 1.327 1_565 S
C1393 H1416 0.950 . S
C1394 C1393 1.349 . S
C1394 C1406 1.349 . S
C1395 C1393 1.327 1_545 S
C1395 C1411 1.429 . S
C1395 H1417 0.950 . S
C1396 H1392 0.949 . S
C1396 C1404 1.574 . S
C1396 C1412 1.368 . S
H1397 C1405 0.950 . S
H1398 C1403 0.950 . S
H1399 C1404 0.949 . S
H1400 C1406 0.950 . S
H1401 C1407 0.950 . S
H1402 C1408 0.949 . S
C1403 H1398 0.950 . S
C1403 C1405 1.327 . S
C1403 C1409 1.429 . S
C1404 C1396 1.574 . S
C1404 H1399 0.949 . S
C1404 C1410 1.368 . S
C1405 C1389 1.349 . S
C1405 H1397 0.950 . S
C1405 C1403 1.327 . S
C1406 C1394 1.349 . S
C1406 H1400 0.950 . S
C1406 C1407 1.327 1_565 S
C1407 H1401 0.950 . S
C1407 C1406 1.327 1_545 S
C1407 C1411 1.429 . S
C1408 C1391 1.574 . S
C1408 H1402 0.949 . S
C1408 C1412 1.368 . S
C1409 C1390 1.429 . S
C1409 C1403 1.429 . S
C1409 C1410 1.523 . S
C1410 C1391 1.368 . S
C1410 C1404 1.368 . S
C1410 C1409 1.523 . S
C1411 C1395 1.429 . S
C1411 C1407 1.429 . S
C1411 C1412 1.523 . S
C1412 C1396 1.368 . S
C1412 C1408 1.368 . S
C1412 C1411 1.523 . S
H1413 C1388 0.950 . S
H1414 C1390 0.950 . S
H1415 C1391 0.949 . S
H1416 C1393 0.950 . S
H1417 C1395 0.950 . S
C1418 C1419 1.349 . S
C1418 C1420 1.327 . S
C1418 H1443 0.950 . S
C1419 C1418 1.349 . S
C1419 C1435 1.349 . S
C1420 C1418 1.327 . S
C1420 C1439 1.429 . S
C1420 H1444 0.950 . S
C1421 C1438 1.574 . S
C1421 C1440 1.368 . S
C1421 H1445 0.949 . S
H1422 C1426 0.949 . S
C1423 C1424 1.349 . S
C1423 C1425 1.327 . S
C1423 H1446 0.950 . S
C1424 C1423 1.349 . S
C1424 C1436 1.349 . S
C1425 C1423 1.327 . S
C1425 C1441 1.429 . S
C1425 H1447 0.950 . S
C1426 H1422 0.949 . S
C1426 C1434 1.574 . S
C1426 C1442 1.368 . S
H1427 C1435 0.950 1_556 S
H1428 C1433 0.950 . S
H1429 C1434 0.949 . S
H1430 C1436 0.950 . S
H1431 C1437 0.950 . S
H1432 C1438 0.949 . S
C1433 H1428 0.950 . S
C1433 C1435 1.327 . S
C1433 C1439 1.429 . S
C1434 C1426 1.574 . S
C1434 H1429 0.949 . S
C1434 C1440 1.368 . S
C1435 C1419 1.349 . S
C1435 H1427 0.950 1_554 S
C1435 C1433 1.327 . S
C1436 C1424 1.349 . S
C1436 H1430 0.950 . S
C1436 C1437 1.327 . S
C1437 H1431 0.950 . S
C1437 C1436 1.327 . S
C1437 C1441 1.429 . S
C1438 C1421 1.574 . S
C1438 H1432 0.949 . S
C1438 C1442 1.368 . S
C1439 C1420 1.429 . S
C1439 C1433 1.429 . S
C1439 C1440 1.523 . S
C1440 C1421 1.368 . S
C1440 C1434 1.368 . S
C1440 C1439 1.523 . S
C1441 C1425 1.429 . S
C1441 C1437 1.429 . S
C1441 C1442 1.523 . S
C1442 C1426 1.368 . S
C1442 C1438 1.368 . S
C1442 C1441 1.523 . S
H1443 C1418 0.950 . S
H1444 C1420 0.950 . S
H1445 C1421 0.949 . S
H1446 C1423 0.950 . S
H1447 C1425 0.950 . S
C1448 C1449 1.349 . S
C1448 C1450 1.327 . S
C1448 H1473 0.950 . S
C1449 C1448 1.349 . S
C1449 C1465 1.349 . S
C1450 C1448 1.327 . S
C1450 C1469 1.429 . S
C1450 H1474 0.950 . S
C1451 C1468 1.574 . S
C1451 C1470 1.368 . S
C1451 H1475 0.949 . S
H1452 C1456 0.949 . S
C1453 C1454 1.349 . S
C1453 C1455 1.327 . S
C1453 H1476 0.950 . S
C1454 C1453 1.349 . S
C1454 C1466 1.349 1_565 S
C1455 C1453 1.327 . S
C1455 C1471 1.429 1_565 S
C1455 H1477 0.950 . S
C1456 H1452 0.949 . S
C1456 C1464 1.574 . S
C1456 C1472 1.368 . S
H1457 C1465 0.950 . S
H1458 C1463 0.950 . S
H1459 C1464 0.949 . S
H1460 C1466 0.950 . S
H1461 C1467 0.950 . S
H1462 C1468 0.949 . S
C1463 H1458 0.950 . S
C1463 C1465 1.327 . S
C1463 C1469 1.429 . S
C1464 C1456 1.574 . S
C1464 H1459 0.949 . S
C1464 C1470 1.368 . S
C1465 C1449 1.349 . S
C1465 H1457 0.950 . S
C1465 C1463 1.327 . S
C1466 C1454 1.349 1_545 S
C1466 H1460 0.950 . S
C1466 C1467 1.327 . S
C1467 H1461 0.950 . S
C1467 C1466 1.327 . S
C1467 C1471 1.429 . S
C1468 C1451 1.574 . S
C1468 H1462 0.949 . S
C1468 C1472 1.368 . S
C1469 C1450 1.429 . S
C1469 C1463 1.429 . S
C1469 C1470 1.523 . S
C1470 C1451 1.368 . S
C1470 C1464 1.368 . S
C1470 C1469 1.523 . S
C1471 C1455 1.429 1_545 S
C1471 C1467 1.429 . S
C1471 C1472 1.523 . S
C1472 C1456 1.368 . S
C1472 C1468 1.368 . S
C1472 C1471 1.523 . S
H1473 C1448 0.950 . S
H1474 C1450 0.950 . S
H1475 C1451 0.949 . S
H1476 C1453 0.950 . S
H1477 C1455 0.950 . S
C1478 C1479 1.349 . S
C1478 C1480 1.327 . S
C1478 H1503 0.950 . S
C1479 C1478 1.349 . S
C1479 C1495 1.349 . S
C1480 C1478 1.327 . S
C1480 C1499 1.429 . S
C1480 H1504 0.950 . S
C1481 C1498 1.574 . S
C1481 C1500 1.368 . S
C1481 H1505 0.949 . S
H1482 C1486 0.949 . S
C1483 C1484 1.349 . S
C1483 C1485 1.327 . S
C1483 H1506 0.950 1_556 S
C1484 C1483 1.349 . S
C1484 C1496 1.349 . S
C1485 C1483 1.327 . S
C1485 C1501 1.429 . S
C1485 H1507 0.950 . S
C1486 H1482 0.949 . S
C1486 C1494 1.574 . S
C1486 C1502 1.368 . S
H1487 C1495 0.950 . S
H1488 C1493 0.950 . S
H1489 C1494 0.949 . S
H1490 C1496 0.950 . S
H1491 C1497 0.950 . S
H1492 C1498 0.949 . S
C1493 H1488 0.950 . S
C1493 C1495 1.327 . S
C1493 C1499 1.429 . S
C1494 C1486 1.574 . S
C1494 H1489 0.949 . S
C1494 C1500 1.368 . S
C1495 C1479 1.349 . S
C1495 H1487 0.950 . S
C1495 C1493 1.327 . S
C1496 C1484 1.349 . S
C1496 H1490 0.950 . S
C1496 C1497 1.327 . S
C1497 H1491 0.950 . S
C1497 C1496 1.327 . S
C1497 C1501 1.429 . S
C1498 C1481 1.574 . S
C1498 H1492 0.949 . S
C1498 C1502 1.368 . S
C1499 C1480 1.429 . S
C1499 C1493 1.429 . S
C1499 C1500 1.523 . S
C1500 C1481 1.368 . S
C1500 C1494 1.368 . S
C1500 C1499 1.523 . S
C1501 C1485 1.429 . S
C1501 C1497 1.429 . S
C1501 C1502 1.523 . S
C1502 C1486 1.368 . S
C1502 C1498 1.368 . S
C1502 C1501 1.523 . S
H1503 C1478 0.950 . S
H1504 C1480 0.950 . S
H1505 C1481 0.949 . S
H1506 C1483 0.950 1_554 S
H1507 C1485 0.950 . S
C1508 C1509 1.349 1_565 S
C1508 C1510 1.327 . S
C1508 H1533 0.950 . S
C1509 C1508 1.349 1_545 S
C1509 C1525 1.349 . S
C1510 C1508 1.327 . S
C1510 C1529 1.429 . S
C1510 H1534 0.950 . S
C1511 C1528 1.574 . S
C1511 C1530 1.368 . S
C1511 H1535 0.949 . S
H1512 C1516 0.949 . S
C1513 C1514 1.349 . S
C1513 C1515 1.327 . S
C1513 H1536 0.950 . S
C1514 C1513 1.349 . S
C1514 C1526 1.349 . S
C1515 C1513 1.327 . S
C1515 C1531 1.429 . S
C1515 H1537 0.950 . S
C1516 H1512 0.949 . S
C1516 C1524 1.574 . S
C1516 C1532 1.368 . S
H1517 C1525 0.950 . S
H1518 C1523 0.950 . S
H1519 C1524 0.949 . S
H1520 C1526 0.950 . S
H1521 C1527 0.950 . S
H1522 C1528 0.949 . S
C1523 H1518 0.950 . S
C1523 C1525 1.327 . S
C1523 C1529 1.429 1_545 S
C1524 C1516 1.574 . S
C1524 H1519 0.949 . S
C1524 C1530 1.368 . S
C1525 C1509 1.349 . S
C1525 H1517 0.950 . S
C1525 C1523 1.327 . S
C1526 C1514 1.349 . S
C1526 H1520 0.950 . S
C1526 C1527 1.327 . S
C1527 H1521 0.950 . S
C1527 C1526 1.327 . S
C1527 C1531 1.429 . S
C1528 C1511 1.574 . S
C1528 H1522 0.949 . S
C1528 C1532 1.368 . S
C1529 C1510 1.429 . S
C1529 C1523 1.429 1_565 S
C1529 C1530 1.523 . S
C1530 C1511 1.368 . S
C1530 C1524 1.368 . S
C1530 C1529 1.523 . S
C1531 C1515 1.429 . S
C1531 C1527 1.429 . S
C1531 C1532 1.523 . S
C1532 C1516 1.368 . S
C1532 C1528 1.368 . S
C1532 C1531 1.523 . S
H1533 C1508 0.950 . S
H1534 C1510 0.950 . S
H1535 C1511 0.949 . S
H1536 C1513 0.950 . S
H1537 C1515 0.950 . S
C1538 C1539 1.349 . S
C1538 C1540 1.327 . S
C1538 H1563 0.950 . S
C1539 C1538 1.349 . S
C1539 C1555 1.349 . S
C1540 C1538 1.327 . S
C1540 C1559 1.429 . S
C1540 H1564 0.950 . S
C1541 C1558 1.574 . S
C1541 C1560 1.368 . S
C1541 H1565 0.949 . S
H1542 C1546 0.949 . S
C1543 C1544 1.349 . S
C1543 C1545 1.327 . S
C1543 H1566 0.950 . S
C1544 C1543 1.349 . S
C1544 C1556 1.349 . S
C1545 C1543 1.327 . S
C1545 C1561 1.429 . S
C1545 H1567 0.950 . S
C1546 H1542 0.949 . S
C1546 C1554 1.574 . S
C1546 C1562 1.368 . S
H1547 C1555 0.950 . S
H1548 C1553 0.950 . S
H1549 C1554 0.949 . S
H1550 C1556 0.950 . S
H1551 C1557 0.950 . S
H1552 C1558 0.949 . S
C1553 H1548 0.950 . S
C1553 C1555 1.327 . S
C1553 C1559 1.429 . S
C1554 C1546 1.574 . S
C1554 H1549 0.949 . S
C1554 C1560 1.368 . S
C1555 C1539 1.349 . S
C1555 H1547 0.950 . S
C1555 C1553 1.327 . S
C1556 C1544 1.349 . S
C1556 H1550 0.950 . S
C1556 C1557 1.327 . S
C1557 H1551 0.950 . S
C1557 C1556 1.327 . S
C1557 C1561 1.429 . S
C1558 C1541 1.574 . S
C1558 H1552 0.949 . S
C1558 C1562 1.368 . S
C1559 C1540 1.429 . S
C1559 C1553 1.429 . S
C1559 C1560 1.523 . S
C1560 C1541 1.368 . S
C1560 C1554 1.368 . S
C1560 C1559 1.523 . S
C1561 C1545 1.429 . S
C1561 C1557 1.429 . S
C1561 C1562 1.523 . S
C1562 C1546 1.368 . S
C1562 C1558 1.368 . S
C1562 C1561 1.523 . S
H1563 C1538 0.950 . S
H1564 C1540 0.950 . S
H1565 C1541 0.949 . S
H1566 C1543 0.950 . S
H1567 C1545 0.950 . S
C1568 C1569 1.349 . S
C1568 C1570 1.327 . S
C1568 H1593 0.950 . S
C1569 C1568 1.349 . S
C1569 C1585 1.349 . S
C1570 C1568 1.327 . S
C1570 C1589 1.429 . S
C1570 H1594 0.950 . S
C1571 C1588 1.574 . S
C1571 C1590 1.368 . S
C1571 H1595 0.949 . S
H1572 C1576 0.949 . S
C1573 C1574 1.349 . S
C1573 C1575 1.327 . S
C1573 H1596 0.950 . S
C1574 C1573 1.349 . S
C1574 C1586 1.349 . S
C1575 C1573 1.327 . S
C1575 C1591 1.429 . S
C1575 H1597 0.950 . S
C1576 H1572 0.949 . S
C1576 C1584 1.574 . S
C1576 C1592 1.368 . S
H1577 C1585 0.950 . S
H1578 C1583 0.950 . S
H1579 C1584 0.949 . S
H1580 C1586 0.950 . S
H1581 C1587 0.950 . S
H1582 C1588 0.949 . S
C1583 H1578 0.950 . S
C1583 C1585 1.327 . S
C1583 C1589 1.429 . S
C1584 C1576 1.574 . S
C1584 H1579 0.949 . S
C1584 C1590 1.368 . S
C1585 C1569 1.349 . S
C1585 H1577 0.950 . S
C1585 C1583 1.327 . S
C1586 C1574 1.349 . S
C1586 H1580 0.950 . S
C1586 C1587 1.327 . S
C1587 H1581 0.950 . S
C1587 C1586 1.327 . S
C1587 C1591 1.429 . S
C1588 C1571 1.574 . S
C1588 H1582 0.949 . S
C1588 C1592 1.368 . S
C1589 C1570 1.429 . S
C1589 C1583 1.429 . S
C1589 C1590 1.523 . S
C1590 C1571 1.368 . S
C1590 C1584 1.368 . S
C1590 C1589 1.523 . S
C1591 C1575 1.429 . S
C1591 C1587 1.429 . S
C1591 C1592 1.523 . S
C1592 C1576 1.368 . S
C1592 C1588 1.368 . S
C1592 C1591 1.523 . S
H1593 C1568 0.950 . S
H1594 C1570 0.950 . S
H1595 C1571 0.949 . S
H1596 C1573 0.950 . S
H1597 C1575 0.950 . S
C1598 C1599 1.349 . S
C1598 C1600 1.327 . S
C1598 H1623 0.950 . S
C1599 C1598 1.349 . S
C1599 C1615 1.349 . S
C1600 C1598 1.327 . S
C1600 C1619 1.429 . S
C1600 H1624 0.950 . S
C1601 C1618 1.574 . S
C1601 C1620 1.368 . S
C1601 H1625 0.949 . S
H1602 C1606 0.949 . S
C1603 C1604 1.349 . S
C1603 C1605 1.327 . S
C1603 H1626 0.950 . S
C1604 C1603 1.349 . S
C1604 C1616 1.349 . S
C1605 C1603 1.327 . S
C1605 C1621 1.429 . S
C1605 H1627 0.950 . S
C1606 H1602 0.949 . S
C1606 C1614 1.574 . S
C1606 C1622 1.368 . S
H1607 C1615 0.950 . S
H1608 C1613 0.950 . S
H1609 C1614 0.949 . S
H1610 C1616 0.950 1_554 S
H1611 C1617 0.950 . S
H1612 C1618 0.949 . S
C1613 H1608 0.950 . S
C1613 C1615 1.327 . S
C1613 C1619 1.429 . S
C1614 C1606 1.574 . S
C1614 H1609 0.949 . S
C1614 C1620 1.368 . S
C1615 C1599 1.349 . S
C1615 H1607 0.950 . S
C1615 C1613 1.327 . S
C1616 C1604 1.349 . S
C1616 H1610 0.950 1_556 S
C1616 C1617 1.327 . S
C1617 H1611 0.950 . S
C1617 C1616 1.327 . S
C1617 C1621 1.429 . S
C1618 C1601 1.574 . S
C1618 H1612 0.949 . S
C1618 C1622 1.368 . S
C1619 C1600 1.429 . S
C1619 C1613 1.429 . S
C1619 C1620 1.523 . S
C1620 C1601 1.368 . S
C1620 C1614 1.368 . S
C1620 C1619 1.523 . S
C1621 C1605 1.429 . S
C1621 C1617 1.429 . S
C1621 C1622 1.523 . S
C1622 C1606 1.368 . S
C1622 C1618 1.368 . S
C1622 C1621 1.523 . S
H1623 C1598 0.950 . S
H1624 C1600 0.950 . S
H1625 C1601 0.949 . S
H1626 C1603 0.950 . S
H1627 C1605 0.950 . S
C1628 C1629 1.349 . S
C1628 C1630 1.327 . S
C1628 H1653 0.950 . S
C1629 C1628 1.349 . S
C1629 C1645 1.349 . S
C1630 C1628 1.327 . S
C1630 C1649 1.429 . S
C1630 H1654 0.950 . S
C1631 C1648 1.574 . S
C1631 C1650 1.368 . S
C1631 H1655 0.949 . S
H1632 C1636 0.949 . S
C1633 C1634 1.349 . S
C1633 C1635 1.327 . S
C1633 H1656 0.950 . S
C1634 C1633 1.349 . S
C1634 C1646 1.349 . S
C1635 C1633 1.327 . S
C1635 C1651 1.429 . S
C1635 H1657 0.950 . S
C1636 H1632 0.949 . S
C1636 C1644 1.574 . S
C1636 C1652 1.368 . S
H1637 C1645 0.950 . S
H1638 C1643 0.950 . S
H1639 C1644 0.949 . S
H1640 C1646 0.950 . S
H1641 C1647 0.950 . S
H1642 C1648 0.949 . S
C1643 H1638 0.950 . S
C1643 C1645 1.327 . S
C1643 C1649 1.429 . S
C1644 C1636 1.574 . S
C1644 H1639 0.949 . S
C1644 C1650 1.368 . S
C1645 C1629 1.349 . S
C1645 H1637 0.950 . S
C1645 C1643 1.327 . S
C1646 C1634 1.349 . S
C1646 H1640 0.950 . S
C1646 C1647 1.327 . S
C1647 H1641 0.950 . S
C1647 C1646 1.327 . S
C1647 C1651 1.429 . S
C1648 C1631 1.574 . S
C1648 H1642 0.949 . S
C1648 C1652 1.368 . S
C1649 C1630 1.429 . S
C1649 C1643 1.429 . S
C1649 C1650 1.523 . S
C1650 C1631 1.368 . S
C1650 C1644 1.368 . S
C1650 C1649 1.523 . S
C1651 C1635 1.429 . S
C1651 C1647 1.429 . S
C1651 C1652 1.523 . S
C1652 C1636 1.368 . S
C1652 C1648 1.368 . S
C1652 C1651 1.523 . S
H1653 C1628 0.950 . S
H1654 C1630 0.950 . S
H1655 C1631 0.949 . S
H1656 C1633 0.950 . S
H1657 C1635 0.950 . S
C1658 C1659 1.349 . S
C1658 C1660 1.327 . S
C1658 H1683 0.950 . S
C1659 C1658 1.349 . S
C1659 C1675 1.349 . S
C1660 C1658 1.327 . S
C1660 C1679 1.429 . S
C1660 H1684 0.950 . S
C1661 C1678 1.574 . S
C1661 C1680 1.368 . S
C1661 H1685 0.949 . S
H1662 C1666 0.949 . S
C1663 C1664 1.349 . S
C1663 C1665 1.327 . S
C1663 H1686 0.950 . S
C1664 C1663 1.349 . S
C1664 C1676 1.349 . S
C1665 C1663 1.327 . S
C1665 C1681 1.429 . S
C1665 H1687 0.950 . S
C1666 H1662 0.949 . S
C1666 C1674 1.574 . S
C1666 C1682 1.368 . S
H1667 C1675 0.950 . S
H1668 C1673 0.950 . S
H1669 C1674 0.949 . S
H1670 C1676 0.950 . S
H1671 C1677 0.950 . S
H1672 C1678 0.949 . S
C1673 H1668 0.950 . S
C1673 C1675 1.327 . S
C1673 C1679 1.429 . S
C1674 C1666 1.574 . S
C1674 H1669 0.949 . S
C1674 C1680 1.368 . S
C1675 C1659 1.349 . S
C1675 H1667 0.950 . S
C1675 C1673 1.327 . S
C1676 C1664 1.349 . S
C1676 H1670 0.950 . S
C1676 C1677 1.327 . S
C1677 H1671 0.950 . S
C1677 C1676 1.327 . S
C1677 C1681 1.429 . S
C1678 C1661 1.574 . S
C1678 H1672 0.949 . S
C1678 C1682 1.368 . S
C1679 C1660 1.429 . S
C1679 C1673 1.429 . S
C1679 C1680 1.523 . S
C1680 C1661 1.368 . S
C1680 C1674 1.368 . S
C1680 C1679 1.523 . S
C1681 C1665 1.429 . S
C1681 C1677 1.429 . S
C1681 C1682 1.523 . S
C1682 C1666 1.368 . S
C1682 C1678 1.368 . S
C1682 C1681 1.523 . S
H1683 C1658 0.950 . S
H1684 C1660 0.950 . S
H1685 C1661 0.949 . S
H1686 C1663 0.950 . S
H1687 C1665 0.950 . S
C1688 C1689 1.349 . S
C1688 C1690 1.327 . S
C1688 H1713 0.950 . S
C1689 C1688 1.349 . S
C1689 C1705 1.349 . S
C1690 C1688 1.327 . S
C1690 C1709 1.429 . S
C1690 H1714 0.950 . S
C1691 C1708 1.574 . S
C1691 C1710 1.368 . S
C1691 H1715 0.949 . S
H1692 C1696 0.949 . S
C1693 C1694 1.349 . S
C1693 C1695 1.327 . S
C1693 H1716 0.950 . S
C1694 C1693 1.349 . S
C1694 C1706 1.349 . S
C1695 C1693 1.327 . S
C1695 C1711 1.429 . S
C1695 H1717 0.950 . S
C1696 H1692 0.949 . S
C1696 C1704 1.574 . S
C1696 C1712 1.368 . S
H1697 C1705 0.950 . S
H1698 C1703 0.950 . S
H1699 C1704 0.949 . S
H1700 C1706 0.950 . S
H1701 C1707 0.950 . S
H1702 C1708 0.949 . S
C1703 H1698 0.950 . S
C1703 C1705 1.327 . S
C1703 C1709 1.429 . S
C1704 C1696 1.574 . S
C1704 H1699 0.949 . S
C1704 C1710 1.368 . S
C1705 C1689 1.349 . S
C1705 H1697 0.950 . S
C1705 C1703 1.327 . S
C1706 C1694 1.349 . S
C1706 H1700 0.950 . S
C1706 C1707 1.327 . S
C1707 H1701 0.950 . S
C1707 C1706 1.327 . S
C1707 C1711 1.429 . S
C1708 C1691 1.574 . S
C1708 H1702 0.949 . S
C1708 C1712 1.368 . S
C1709 C1690 1.429 . S
C1709 C1703 1.429 . S
C1709 C1710 1.523 . S
C1710 C1691 1.368 . S
C1710 C1704 1.368 . S
C1710 C1709 1.523 . S
C1711 C1695 1.429 . S
C1711 C1707 1.429 . S
C1711 C1712 1.523 . S
C1712 C1696 1.368 . S
C1712 C1708 1.368 . S
C1712 C1711 1.523 . S
H1713 C1688 0.950 . S
H1714 C1690 0.950 . S
H1715 C1691 0.949 . S
H1716 C1693 0.950 . S
H1717 C1695 0.950 . S
C1718 C1719 1.349 . S
C1718 C1720 1.327 . S
C1718 H1743 0.950 . S
C1719 C1718 1.349 . S
C1719 C1735 1.349 . S
C1720 C1718 1.327 . S
C1720 C1739 1.429 . S
C1720 H1744 0.950 . S
C1721 C1738 1.574 . S
C1721 C1740 1.368 . S
C1721 H1745 0.949 . S
H1722 C1726 0.949 . S
C1723 C1724 1.349 . S
C1723 C1725 1.327 . S
C1723 H1746 0.950 . S
C1724 C1723 1.349 . S
C1724 C1736 1.349 . S
C1725 C1723 1.327 . S
C1725 C1741 1.429 . S
C1725 H1747 0.950 . S
C1726 H1722 0.949 . S
C1726 C1734 1.574 . S
C1726 C1742 1.368 . S
H1727 C1735 0.950 . S
H1728 C1733 0.950 . S
H1729 C1734 0.949 . S
H1730 C1736 0.950 . S
H1731 C1737 0.950 . S
H1732 C1738 0.949 . S
C1733 H1728 0.950 . S
C1733 C1735 1.327 . S
C1733 C1739 1.429 . S
C1734 C1726 1.574 . S
C1734 H1729 0.949 . S
C1734 C1740 1.368 . S
C1735 C1719 1.349 . S
C1735 H1727 0.950 . S
C1735 C1733 1.327 . S
C1736 C1724 1.349 . S
C1736 H1730 0.950 . S
C1736 C1737 1.327 . S
C1737 H1731 0.950 . S
C1737 C1736 1.327 . S
C1737 C1741 1.429 . S
C1738 C1721 1.574 . S
C1738 H1732 0.949 . S
C1738 C1742 1.368 . S
C1739 C1720 1.429 . S
C1739 C1733 1.429 . S
C1739 C1740 1.523 . S
C1740 C1721 1.368 . S
C1740 C1734 1.368 . S
C1740 C1739 1.523 . S
C1741 C1725 1.429 . S
C1741 C1737 1.429 . S
C1741 C1742 1.523 . S
C1742 C1726 1.368 . S
C1742 C1738 1.368 . S
C1742 C1741 1.523 . S
H1743 C1718 0.950 . S
H1744 C1720 0.950 . S
H1745 C1721 0.949 . S
H1746 C1723 0.950 . S
H1747 C1725 0.950 . S
C1748 C1749 1.349 . S
C1748 C1750 1.327 . S
C1748 H1773 0.950 . S
C1749 C1748 1.349 . S
C1749 C1765 1.349 . S
C1750 C1748 1.327 . S
C1750 C1769 1.429 . S
C1750 H1774 0.950 . S
C1751 C1768 1.574 . S
C1751 C1770 1.368 . S
C1751 H1775 0.949 . S
H1752 C1756 0.949 . S
C1753 C1754 1.349 . S
C1753 C1755 1.327 . S
C1753 H1776 0.950 . S
C1754 C1753 1.349 . S
C1754 C1766 1.349 . S
C1755 C1753 1.327 . S
C1755 C1771 1.429 . S
C1755 H1777 0.950 . S
C1756 H1752 0.949 . S
C1756 C1764 1.574 . S
C1756 C1772 1.368 . S
H1757 C1765 0.950 . S
H1758 C1763 0.950 . S
H1759 C1764 0.949 . S
H1760 C1766 0.950 . S
H1761 C1767 0.950 . S
H1762 C1768 0.949 . S
C1763 H1758 0.950 . S
C1763 C1765 1.327 . S
C1763 C1769 1.429 . S
C1764 C1756 1.574 . S
C1764 H1759 0.949 . S
C1764 C1770 1.368 . S
C1765 C1749 1.349 . S
C1765 H1757 0.950 . S
C1765 C1763 1.327 . S
C1766 C1754 1.349 . S
C1766 H1760 0.950 . S
C1766 C1767 1.327 . S
C1767 H1761 0.950 . S
C1767 C1766 1.327 . S
C1767 C1771 1.429 . S
C1768 C1751 1.574 . S
C1768 H1762 0.949 . S
C1768 C1772 1.368 . S
C1769 C1750 1.429 . S
C1769 C1763 1.429 . S
C1769 C1770 1.523 . S
C1770 C1751 1.368 . S
C1770 C1764 1.368 . S
C1770 C1769 1.523 . S
C1771 C1755 1.429 . S
C1771 C1767 1.429 . S
C1771 C1772 1.523 . S
C1772 C1756 1.368 . S
C1772 C1768 1.368 . S
C1772 C1771 1.523 . S
H1773 C1748 0.950 . S
H1774 C1750 0.950 . S
H1775 C1751 0.949 . S
H1776 C1753 0.950 . S
H1777 C1755 0.950 . S
C1778 C1779 1.349 . S
C1778 C1780 1.327 . S
C1778 H1803 0.950 . S
C1779 C1778 1.349 . S
C1779 C1795 1.349 . S
C1780 C1778 1.327 . S
C1780 C1799 1.429 . S
C1780 H1804 0.950 . S
C1781 C1798 1.574 . S
C1781 C1800 1.368 . S
C1781 H1805 0.949 . S
H1782 C1786 0.949 . S
C1783 C1784 1.349 . S
C1783 C1785 1.327 . S
C1783 H1806 0.950 . S
C1784 C1783 1.349 . S
C1784 C1796 1.349 . S
C1785 C1783 1.327 . S
C1785 C1801 1.429 . S
C1785 H1807 0.950 . S
C1786 H1782 0.949 . S
C1786 C1794 1.574 . S
C1786 C1802 1.368 . S
H1787 C1795 0.950 . S
H1788 C1793 0.950 . S
H1789 C1794 0.949 . S
H1790 C1796 0.950 . S
H1791 C1797 0.950 . S
H1792 C1798 0.949 . S
C1793 H1788 0.950 . S
C1793 C1795 1.327 . S
C1793 C1799 1.429 . S
C1794 C1786 1.574 . S
C1794 H1789 0.949 . S
C1794 C1800 1.368 . S
C1795 C1779 1.349 . S
C1795 H1787 0.950 . S
C1795 C1793 1.327 . S
C1796 C1784 1.349 . S
C1796 H1790 0.950 . S
C1796 C1797 1.327 . S
C1797 H1791 0.950 . S
C1797 C1796 1.327 . S
C1797 C1801 1.429 . S
C1798 C1781 1.574 . S
C1798 H1792 0.949 . S
C1798 C1802 1.368 . S
C1799 C1780 1.429 . S
C1799 C1793 1.429 . S
C1799 C1800 1.523 . S
C1800 C1781 1.368 . S
C1800 C1794 1.368 . S
C1800 C1799 1.523 . S
C1801 C1785 1.429 . S
C1801 C1797 1.429 . S
C1801 C1802 1.523 . S
C1802 C1786 1.368 . S
C1802 C1798 1.368 . S
C1802 C1801 1.523 . S
H1803 C1778 0.950 . S
H1804 C1780 0.950 . S
H1805 C1781 0.949 . S
H1806 C1783 0.950 . S
H1807 C1785 0.950 . S
C1808 C1809 1.349 . S
C1808 C1810 1.327 . S
C1808 H1833 0.950 . S
C1809 C1808 1.349 . S
C1809 C1825 1.349 . S
C1810 C1808 1.327 . S
C1810 C1829 1.429 . S
C1810 H1834 0.950 . S
C1811 C1828 1.574 . S
C1811 C1830 1.368 . S
C1811 H1835 0.949 . S
H1812 C1816 0.949 . S
C1813 C1814 1.349 . S
C1813 C1815 1.327 . S
C1813 H1836 0.950 . S
C1814 C1813 1.349 . S
C1814 C1826 1.349 . S
C1815 C1813 1.327 . S
C1815 C1831 1.429 . S
C1815 H1837 0.950 . S
C1816 H1812 0.949 . S
C1816 C1824 1.574 . S
C1816 C1832 1.368 . S
H1817 C1825 0.950 . S
H1818 C1823 0.950 . S
H1819 C1824 0.949 . S
H1820 C1826 0.950 . S
H1821 C1827 0.950 . S
H1822 C1828 0.949 . S
C1823 H1818 0.950 . S
C1823 C1825 1.327 . S
C1823 C1829 1.429 . S
C1824 C1816 1.574 . S
C1824 H1819 0.949 . S
C1824 C1830 1.368 . S
C1825 C1809 1.349 . S
C1825 H1817 0.950 . S
C1825 C1823 1.327 . S
C1826 C1814 1.349 . S
C1826 H1820 0.950 . S
C1826 C1827 1.327 . S
C1827 H1821 0.950 . S
C1827 C1826 1.327 . S
C1827 C1831 1.429 . S
C1828 C1811 1.574 . S
C1828 H1822 0.949 . S
C1828 C1832 1.368 . S
C1829 C1810 1.429 . S
C1829 C1823 1.429 . S
C1829 C1830 1.523 . S
C1830 C1811 1.368 . S
C1830 C1824 1.368 . S
C1830 C1829 1.523 . S
C1831 C1815 1.429 . S
C1831 C1827 1.429 . S
C1831 C1832 1.523 . S
C1832 C1816 1.368 . S
C1832 C1828 1.368 . S
C1832 C1831 1.523 . S
H1833 C1808 0.950 . S
H1834 C1810 0.950 . S
H1835 C1811 0.949 . S
H1836 C1813 0.950 . S
H1837 C1815 0.950 . S
C1838 C1839 1.349 . S
C1838 C1840 1.327 . S
C1838 H1863 0.950 . S
C1839 C1838 1.349 . S
C1839 C1855 1.349 . S
C1840 C1838 1.327 . S
C1840 C1859 1.429 . S
C1840 H1864 0.950 . S
C1841 C1858 1.574 . S
C1841 C1860 1.368 . S
C1841 H1865 0.949 . S
H1842 C1846 0.949 . S
C1843 C1844 1.349 . S
C1843 C1845 1.327 . S
C1843 H1866 0.950 . S
C1844 C1843 1.349 . S
C1844 C1856 1.349 . S
C1845 C1843 1.327 . S
C1845 C1861 1.429 . S
C1845 H1867 0.950 . S
C1846 H1842 0.949 . S
C1846 C1854 1.574 . S
C1846 C1862 1.368 . S
H1847 C1855 0.950 . S
H1848 C1853 0.950 . S
H1849 C1854 0.949 . S
H1850 C1856 0.950 . S
H1851 C1857 0.950 . S
H1852 C1858 0.949 . S
C1853 H1848 0.950 . S
C1853 C1855 1.327 . S
C1853 C1859 1.429 . S
C1854 C1846 1.574 . S
C1854 H1849 0.949 . S
C1854 C1860 1.368 . S
C1855 C1839 1.349 . S
C1855 H1847 0.950 . S
C1855 C1853 1.327 . S
C1856 C1844 1.349 . S
C1856 H1850 0.950 . S
C1856 C1857 1.327 . S
C1857 H1851 0.950 . S
C1857 C1856 1.327 . S
C1857 C1861 1.429 . S
C1858 C1841 1.574 . S
C1858 H1852 0.949 . S
C1858 C1862 1.368 . S
C1859 C1840 1.429 . S
C1859 C1853 1.429 . S
C1859 C1860 1.523 . S
C1860 C1841 1.368 . S
C1860 C1854 1.368 . S
C1860 C1859 1.523 . S
C1861 C1845 1.429 . S
C1861 C1857 1.429 . S
C1861 C1862 1.523 . S
C1862 C1846 1.368 . S
C1862 C1858 1.368 . S
C1862 C1861 1.523 . S
H1863 C1838 0.950 . S
H1864 C1840 0.950 . S
H1865 C1841 0.949 . S
H1866 C1843 0.950 . S
H1867 C1845 0.950 . S
C1868 C1869 1.349 . S
C1868 C1870 1.327 . S
C1868 H1893 0.950 . S
C1869 C1868 1.349 . S
C1869 C1885 1.349 . S
C1870 C1868 1.327 . S
C1870 C1889 1.429 . S
C1870 H1894 0.950 . S
C1871 C1888 1.574 . S
C1871 C1890 1.368 . S
C1871 H1895 0.949 . S
H1872 C1876 0.949 . S
C1873 C1874 1.349 . S
C1873 C1875 1.327 . S
C1873 H1896 0.950 . S
C1874 C1873 1.349 . S
C1874 C1886 1.349 . S
C1875 C1873 1.327 . S
C1875 C1891 1.429 . S
C1875 H1897 0.950 . S
C1876 H1872 0.949 . S
C1876 C1884 1.574 . S
C1876 C1892 1.368 . S
H1877 C1885 0.950 . S
H1878 C1883 0.950 . S
H1879 C1884 0.949 . S
H1880 C1886 0.950 . S
H1881 C1887 0.950 . S
H1882 C1888 0.949 . S
C1883 H1878 0.950 . S
C1883 C1885 1.327 . S
C1883 C1889 1.429 . S
C1884 C1876 1.574 . S
C1884 H1879 0.949 . S
C1884 C1890 1.368 . S
C1885 C1869 1.349 . S
C1885 H1877 0.950 . S
C1885 C1883 1.327 . S
C1886 C1874 1.349 . S
C1886 H1880 0.950 . S
C1886 C1887 1.327 . S
C1887 H1881 0.950 . S
C1887 C1886 1.327 . S
C1887 C1891 1.429 . S
C1888 C1871 1.574 . S
C1888 H1882 0.949 . S
C1888 C1892 1.368 . S
C1889 C1870 1.429 . S
C1889 C1883 1.429 . S
C1889 C1890 1.523 . S
C1890 C1871 1.368 . S
C1890 C1884 1.368 . S
C1890 C1889 1.523 . S
C1891 C1875 1.429 . S
C1891 C1887 1.429 . S
C1891 C1892 1.523 . S
C1892 C1876 1.368 . S
C1892 C1888 1.368 . S
C1892 C1891 1.523 . S
H1893 C1868 0.950 . S
H1894 C1870 0.950 . S
H1895 C1871 0.949 . S
H1896 C1873 0.950 . S
H1897 C1875 0.950 . S
C1898 C1899 1.349 . S
C1898 C1900 1.327 . S
C1898 H1923 0.950 . S
C1899 C1898 1.349 . S
C1899 C1915 1.349 . S
C1900 C1898 1.327 . S
C1900 C1919 1.429 . S
C1900 H1924 0.950 . S
C1901 C1918 1.574 . S
C1901 C1920 1.368 . S
C1901 H1925 0.949 . S
H1902 C1906 0.949 . S
C1903 C1904 1.349 . S
C1903 C1905 1.327 . S
C1903 H1926 0.950 . S
C1904 C1903 1.349 . S
C1904 C1916 1.349 . S
C1905 C1903 1.327 . S
C1905 C1921 1.429 . S
C1905 H1927 0.950 . S
C1906 H1902 0.949 . S
C1906 C1914 1.574 . S
C1906 C1922 1.368 . S
H1907 C1915 0.950 . S
H1908 C1913 0.950 . S
H1909 C1914 0.949 . S
H1910 C1916 0.950 . S
H1911 C1917 0.950 . S
H1912 C1918 0.949 . S
C1913 H1908 0.950 . S
C1913 C1915 1.327 . S
C1913 C1919 1.429 . S
C1914 C1906 1.574 . S
C1914 H1909 0.949 . S
C1914 C1920 1.368 . S
C1915 C1899 1.349 . S
C1915 H1907 0.950 . S
C1915 C1913 1.327 . S
C1916 C1904 1.349 . S
C1916 H1910 0.950 . S
C1916 C1917 1.327 . S
C1917 H1911 0.950 . S
C1917 C1916 1.327 . S
C1917 C1921 1.429 . S
C1918 C1901 1.574 . S
C1918 H1912 0.949 . S
C1918 C1922 1.368 . S
C1919 C1900 1.429 . S
C1919 C1913 1.429 . S
C1919 C1920 1.523 . S
C1920 C1901 1.368 . S
C1920 C1914 1.368 . S
C1920 C1919 1.523 . S
C1921 C1905 1.429 . S
C1921 C1917 1.429 . S
C1921 C1922 1.523 . S
C1922 C1906 1.368 . S
C1922 C1918 1.368 . S
C1922 C1921 1.523 . S
H1923 C1898 0.950 . S
H1924 C1900 0.950 . S
H1925 C1901 0.949 . S
H1926 C1903 0.950 . S
H1927 C1905 0.950 . S
C1928 C1929 1.349 . S
C1928 C1930 1.327 . S
C1928 H1953 0.950 . S
C1929 C1928 1.349 . S
C1929 C1945 1.349 . S
C1930 C1928 1.327 . S
C1930 C1949 1.429 . S
C1930 H1954 0.950 . S
C1931 C1948 1.574 . S
C1931 C1950 1.368 . S
C1931 H1955 0.949 . S
H1932 C1936 0.949 . S
C1933 C1934 1.349 . S
C1933 C1935 1.327 . S
C1933 H1956 0.950 . S
C1934 C1933 1.349 . S
C1934 C1946 1.349 . S
C1935 C1933 1.327 . S
C1935 C1951 1.429 . S
C1935 H1957 0.950 . S
C1936 H1932 0.949 . S
C1936 C1944 1.574 . S
C1936 C1952 1.368 . S
H1937 C1945 0.950 . S
H1938 C1943 0.950 . S
H1939 C1944 0.949 . S
H1940 C1946 0.950 . S
H1941 C1947 0.950 . S
H1942 C1948 0.949 . S
C1943 H1938 0.950 . S
C1943 C1945 1.327 . S
C1943 C1949 1.429 . S
C1944 C1936 1.574 . S
C1944 H1939 0.949 . S
C1944 C1950 1.368 . S
C1945 C1929 1.349 . S
C1945 H1937 0.950 . S
C1945 C1943 1.327 . S
C1946 C1934 1.349 . S
C1946 H1940 0.950 . S
C1946 C1947 1.327 . S
C1947 H1941 0.950 . S
C1947 C1946 1.327 . S
C1947 C1951 1.429 . S
C1948 C1931 1.574 . S
C1948 H1942 0.949 . S
C1948 C1952 1.368 . S
C1949 C1930 1.429 . S
C1949 C1943 1.429 . S
C1949 C1950 1.523 . S
C1950 C1931 1.368 . S
C1950 C1944 1.368 . S
C1950 C1949 1.523 . S
C1951 C1935 1.429 . S
C1951 C1947 1.429 . S
C1951 C1952 1.523 . S
C1952 C1936 1.368 . S
C1952 C1948 1.368 . S
C1952 C1951 1.523 . S
H1953 C1928 0.950 . S
H1954 C1930 0.950 . S
H1955 C1931 0.949 . S
H1956 C1933 0.950 . S
H1957 C1935 0.950 . S
C1958 C1959 1.349 . S
C1958 C1960 1.327 . S
C1958 H1983 0.950 . S
C1959 C1958 1.349 . S
C1959 C1975 1.349 . S
C1960 C1958 1.327 . S
C1960 C1979 1.429 . S
C1960 H1984 0.950 . S
C1961 C1978 1.574 . S
C1961 C1980 1.368 . S
C1961 H1985 0.949 . S
H1962 C1966 0.949 . S
C1963 C1964 1.349 . S
C1963 C1965 1.327 . S
C1963 H1986 0.950 . S
C1964 C1963 1.349 . S
C1964 C1976 1.349 . S
C1965 C1963 1.327 . S
C1965 C1981 1.429 . S
C1965 H1987 0.950 . S
C1966 H1962 0.949 . S
C1966 C1974 1.574 . S
C1966 C1982 1.368 . S
H1967 C1975 0.950 . S
H1968 C1973 0.950 . S
H1969 C1974 0.949 . S
H1970 C1976 0.950 . S
H1971 C1977 0.950 . S
H1972 C1978 0.949 . S
C1973 H1968 0.950 . S
C1973 C1975 1.327 . S
C1973 C1979 1.429 . S
C1974 C1966 1.574 . S
C1974 H1969 0.949 . S
C1974 C1980 1.368 . S
C1975 C1959 1.349 . S
C1975 H1967 0.950 . S
C1975 C1973 1.327 . S
C1976 C1964 1.349 . S
C1976 H1970 0.950 . S
C1976 C1977 1.327 . S
C1977 H1971 0.950 . S
C1977 C1976 1.327 . S
C1977 C1981 1.429 . S
C1978 C1961 1.574 . S
C1978 H1972 0.949 . S
C1978 C1982 1.368 . S
C1979 C1960 1.429 . S
C1979 C1973 1.429 . S
C1979 C1980 1.523 . S
C1980 C1961 1.368 . S
C1980 C1974 1.368 . S
C1980 C1979 1.523 . S
C1981 C1965 1.429 . S
C1981 C1977 1.429 . S
C1981 C1982 1.523 . S
C1982 C1966 1.368 . S
C1982 C1978 1.368 . S
C1982 C1981 1.523 . S
H1983 C1958 0.950 . S
H1984 C1960 0.950 . S
H1985 C1961 0.949 . S
H1986 C1963 0.950 . S
H1987 C1965 0.950 . S
C1988 C1989 1.349 . S
C1988 C1990 1.327 . S
C1988 H2013 0.950 . S
C1989 C1988 1.349 . S
C1989 C2005 1.349 . S
C1990 C1988 1.327 . S
C1990 C2009 1.429 . S
C1990 H2014 0.950 . S
C1991 C2008 1.574 . S
C1991 C2010 1.368 . S
C1991 H2015 0.949 . S
H1992 C1996 0.949 . S
C1993 C1994 1.349 . S
C1993 C1995 1.327 . S
C1993 H2016 0.950 . S
C1994 C1993 1.349 . S
C1994 C2006 1.349 . S
C1995 C1993 1.327 . S
C1995 C2011 1.429 . S
C1995 H2017 0.950 . S
C1996 H1992 0.949 . S
C1996 C2004 1.574 . S
C1996 C2012 1.368 . S
H1997 C2005 0.950 . S
H1998 C2003 0.950 . S
H1999 C2004 0.949 . S
H2000 C2006 0.950 . S
H2001 C2007 0.950 . S
H2002 C2008 0.949 . S
C2003 H1998 0.950 . S
C2003 C2005 1.327 . S
C2003 C2009 1.429 . S
C2004 C1996 1.574 . S
C2004 H1999 0.949 . S
C2004 C2010 1.368 . S
C2005 C1989 1.349 . S
C2005 H1997 0.950 . S
C2005 C2003 1.327 . S
C2006 C1994 1.349 . S
C2006 H2000 0.950 . S
C2006 C2007 1.327 . S
C2007 H2001 0.950 . S
C2007 C2006 1.327 . S
C2007 C2011 1.429 . S
C2008 C1991 1.574 . S
C2008 H2002 0.949 . S
C2008 C2012 1.368 . S
C2009 C1990 1.429 . S
C2009 C2003 1.429 . S
C2009 C2010 1.523 . S
C2010 C1991 1.368 . S
C2010 C2004 1.368 . S
C2010 C2009 1.523 . S
C2011 C1995 1.429 . S
C2011 C2007 1.429 . S
C2011 C2012 1.523 . S
C2012 C1996 1.368 . S
C2012 C2008 1.368 . S
C2012 C2011 1.523 . S
H2013 C1988 0.950 . S
H2014 C1990 0.950 . S
H2015 C1991 0.949 . S
H2016 C1993 0.950 . S
H2017 C1995 0.950 . S
C2018 C2019 1.349 . S
C2018 C2020 1.327 . S
C2018 H2043 0.950 . S
C2019 C2018 1.349 . S
C2019 C2035 1.349 . S
C2020 C2018 1.327 . S
C2020 C2039 1.429 . S
C2020 H2044 0.950 . S
C2021 C2038 1.574 . S
C2021 C2040 1.368 . S
C2021 H2045 0.949 . S
H2022 C2026 0.949 . S
C2023 C2024 1.349 . S
C2023 C2025 1.327 . S
C2023 H2046 0.950 . S
C2024 C2023 1.349 . S
C2024 C2036 1.349 . S
C2025 C2023 1.327 . S
C2025 C2041 1.429 . S
C2025 H2047 0.950 . S
C2026 H2022 0.949 . S
C2026 C2034 1.574 . S
C2026 C2042 1.368 . S
H2027 C2035 0.950 1_554 S
H2028 C2033 0.950 . S
H2029 C2034 0.949 . S
H2030 C2036 0.950 . S
H2031 C2037 0.950 . S
H2032 C2038 0.949 . S
C2033 H2028 0.950 . S
C2033 C2035 1.327 . S
C2033 C2039 1.429 . S
C2034 C2026 1.574 . S
C2034 H2029 0.949 . S
C2034 C2040 1.368 . S
C2035 C2019 1.349 . S
C2035 H2027 0.950 1_556 S
C2035 C2033 1.327 . S
C2036 C2024 1.349 . S
C2036 H2030 0.950 . S
C2036 C2037 1.327 . S
C2037 H2031 0.950 . S
C2037 C2036 1.327 . S
C2037 C2041 1.429 . S
C2038 C2021 1.574 . S
C2038 H2032 0.949 . S
C2038 C2042 1.368 . S
C2039 C2020 1.429 . S
C2039 C2033 1.429 . S
C2039 C2040 1.523 . S
C2040 C2021 1.368 . S
C2040 C2034 1.368 . S
C2040 C2039 1.523 . S
C2041 C2025 1.429 . S
C2041 C2037 1.429 . S
C2041 C2042 1.523 . S
C2042 C2026 1.368 . S
C2042 C2038 1.368 . S
C2042 C2041 1.523 . S
H2043 C2018 0.950 . S
H2044 C2020 0.950 . S
H2045 C2021 0.949 . S
H2046 C2023 0.950 . S
H2047 C2025 0.950 . S
C2048 C2049 1.349 . S
C2048 C2050 1.327 . S
C2048 H2073 0.950 . S
C2049 C2048 1.349 . S
C2049 C2065 1.349 . S
C2050 C2048 1.327 . S
C2050 C2069 1.429 . S
C2050 H2074 0.950 . S
C2051 C2068 1.574 . S
C2051 C2070 1.368 . S
C2051 H2075 0.949 . S
H2052 C2056 0.949 . S
C2053 C2054 1.349 . S
C2053 C2055 1.327 . S
C2053 H2076 0.950 . S
C2054 C2053 1.349 . S
C2054 C2066 1.349 . S
C2055 C2053 1.327 . S
C2055 C2071 1.429 . S
C2055 H2077 0.950 . S
C2056 H2052 0.949 . S
C2056 C2064 1.574 . S
C2056 C2072 1.368 . S
H2057 C2065 0.950 . S
H2058 C2063 0.950 . S
H2059 C2064 0.949 . S
H2060 C2066 0.950 . S
H2061 C2067 0.950 . S
H2062 C2068 0.949 . S
C2063 H2058 0.950 . S
C2063 C2065 1.327 . S
C2063 C2069 1.429 . S
C2064 C2056 1.574 . S
C2064 H2059 0.949 . S
C2064 C2070 1.368 . S
C2065 C2049 1.349 . S
C2065 H2057 0.950 . S
C2065 C2063 1.327 . S
C2066 C2054 1.349 . S
C2066 H2060 0.950 . S
C2066 C2067 1.327 . S
C2067 H2061 0.950 . S
C2067 C2066 1.327 . S
C2067 C2071 1.429 . S
C2068 C2051 1.574 . S
C2068 H2062 0.949 . S
C2068 C2072 1.368 . S
C2069 C2050 1.429 . S
C2069 C2063 1.429 . S
C2069 C2070 1.523 . S
C2070 C2051 1.368 . S
C2070 C2064 1.368 . S
C2070 C2069 1.523 . S
C2071 C2055 1.429 . S
C2071 C2067 1.429 . S
C2071 C2072 1.523 . S
C2072 C2056 1.368 . S
C2072 C2068 1.368 . S
C2072 C2071 1.523 . S
H2073 C2048 0.950 . S
H2074 C2050 0.950 . S
H2075 C2051 0.949 . S
H2076 C2053 0.950 . S
H2077 C2055 0.950 . S
C2078 C2079 1.349 . S
C2078 C2080 1.327 . S
C2078 H2103 0.950 . S
C2079 C2078 1.349 . S
C2079 C2095 1.349 . S
C2080 C2078 1.327 . S
C2080 C2099 1.429 . S
C2080 H2104 0.950 . S
C2081 C2098 1.574 . S
C2081 C2100 1.368 1_545 S
C2081 H2105 0.949 . S
H2082 C2086 0.949 . S
C2083 C2084 1.349 . S
C2083 C2085 1.327 . S
C2083 H2106 0.950 . S
C2084 C2083 1.349 . S
C2084 C2096 1.349 . S
C2085 C2083 1.327 . S
C2085 C2101 1.429 . S
C2085 H2107 0.950 . S
C2086 H2082 0.949 . S
C2086 C2094 1.574 . S
C2086 C2102 1.368 1_565 S
H2087 C2095 0.950 . S
H2088 C2093 0.950 . S
H2089 C2094 0.949 . S
H2090 C2096 0.950 . S
H2091 C2097 0.950 . S
H2092 C2098 0.949 . S
C2093 H2088 0.950 . S
C2093 C2095 1.327 . S
C2093 C2099 1.429 . S
C2094 C2086 1.574 . S
C2094 H2089 0.949 . S
C2094 C2100 1.368 . S
C2095 C2079 1.349 . S
C2095 H2087 0.950 . S
C2095 C2093 1.327 . S
C2096 C2084 1.349 . S
C2096 H2090 0.950 . S
C2096 C2097 1.327 . S
C2097 H2091 0.950 . S
C2097 C2096 1.327 . S
C2097 C2101 1.429 . S
C2098 C2081 1.574 . S
C2098 H2092 0.949 . S
C2098 C2102 1.368 . S
C2099 C2080 1.429 . S
C2099 C2093 1.429 . S
C2099 C2100 1.523 . S
C2100 C2081 1.368 1_565 S
C2100 C2094 1.368 . S
C2100 C2099 1.523 . S
C2101 C2085 1.429 . S
C2101 C2097 1.429 . S
C2101 C2102 1.523 . S
C2102 C2086 1.368 1_545 S
C2102 C2098 1.368 . S
C2102 C2101 1.523 . S
H2103 C2078 0.950 . S
H2104 C2080 0.950 . S
H2105 C2081 0.949 . S
H2106 C2083 0.950 . S
H2107 C2085 0.950 . S
C2108 C2109 1.349 . S
C2108 C2110 1.327 . S
C2108 H2133 0.950 . S
C2109 C2108 1.349 . S
C2109 C2125 1.349 . S
C2110 C2108 1.327 . S
C2110 C2129 1.429 . S
C2110 H2134 0.950 . S
C2111 C2128 1.574 . S
C2111 C2130 1.368 . S
C2111 H2135 0.949 . S
H2112 C2116 0.949 . S
C2113 C2114 1.349 . S
C2113 C2115 1.327 . S
C2113 H2136 0.950 . S
C2114 C2113 1.349 . S
C2114 C2126 1.349 . S
C2115 C2113 1.327 . S
C2115 C2131 1.429 . S
C2115 H2137 0.950 . S
C2116 H2112 0.949 . S
C2116 C2124 1.574 . S
C2116 C2132 1.368 . S
H2117 C2125 0.950 . S
H2118 C2123 0.950 . S
H2119 C2124 0.949 . S
H2120 C2126 0.950 . S
H2121 C2127 0.950 . S
H2122 C2128 0.949 . S
C2123 H2118 0.950 . S
C2123 C2125 1.327 . S
C2123 C2129 1.429 . S
C2124 C2116 1.574 . S
C2124 H2119 0.949 . S
C2124 C2130 1.368 . S
C2125 C2109 1.349 . S
C2125 H2117 0.950 . S
C2125 C2123 1.327 . S
C2126 C2114 1.349 . S
C2126 H2120 0.950 . S
C2126 C2127 1.327 . S
C2127 H2121 0.950 . S
C2127 C2126 1.327 . S
C2127 C2131 1.429 . S
C2128 C2111 1.574 . S
C2128 H2122 0.949 . S
C2128 C2132 1.368 . S
C2129 C2110 1.429 . S
C2129 C2123 1.429 . S
C2129 C2130 1.523 . S
C2130 C2111 1.368 . S
C2130 C2124 1.368 . S
C2130 C2129 1.523 . S
C2131 C2115 1.429 . S
C2131 C2127 1.429 . S
C2131 C2132 1.523 . S
C2132 C2116 1.368 . S
C2132 C2128 1.368 . S
C2132 C2131 1.523 . S
H2133 C2108 0.950 . S
H2134 C2110 0.950 . S
H2135 C2111 0.949 . S
H2136 C2113 0.950 . S
H2137 C2115 0.950 . S
C2138 C2139 1.349 . S
C2138 C2140 1.327 . S
C2138 H2163 0.950 . S
C2139 C2138 1.349 . S
C2139 C2155 1.349 . S
C2140 C2138 1.327 . S
C2140 C2159 1.429 . S
C2140 H2164 0.950 . S
C2141 C2158 1.574 1_556 S
C2141 C2160 1.368 . S
C2141 H2165 0.949 . S
H2142 C2146 0.949 . S
C2143 C2144 1.349 . S
C2143 C2145 1.327 . S
C2143 H2166 0.950 . S
C2144 C2143 1.349 . S
C2144 C2156 1.349 . S
C2145 C2143 1.327 . S
C2145 C2161 1.429 . S
C2145 H2167 0.950 . S
C2146 H2142 0.949 . S
C2146 C2154 1.574 1_554 S
C2146 C2162 1.368 . S
H2147 C2155 0.950 . S
H2148 C2153 0.950 . S
H2149 C2154 0.949 . S
H2150 C2156 0.950 . S
H2151 C2157 0.950 . S
H2152 C2158 0.949 . S
C2153 H2148 0.950 . S
C2153 C2155 1.327 . S
C2153 C2159 1.429 . S
C2154 C2146 1.574 1_556 S
C2154 H2149 0.949 . S
C2154 C2160 1.368 1_565 S
C2155 C2139 1.349 . S
C2155 H2147 0.950 . S
C2155 C2153 1.327 . S
C2156 C2144 1.349 . S
C2156 H2150 0.950 . S
C2156 C2157 1.327 . S
C2157 H2151 0.950 . S
C2157 C2156 1.327 . S
C2157 C2161 1.429 . S
C2158 C2141 1.574 1_554 S
C2158 H2152 0.949 . S
C2158 C2162 1.368 1_545 S
C2159 C2140 1.429 . S
C2159 C2153 1.429 . S
C2159 C2160 1.523 . S
C2160 C2141 1.368 . S
C2160 C2154 1.368 1_545 S
C2160 C2159 1.523 . S
C2161 C2145 1.429 . S
C2161 C2157 1.429 . S
C2161 C2162 1.523 . S
C2162 C2146 1.368 . S
C2162 C2158 1.368 1_565 S
C2162 C2161 1.523 . S
H2163 C2138 0.950 . S
H2164 C2140 0.950 . S
H2165 C2141 0.949 . S
H2166 C2143 0.950 . S
H2167 C2145 0.950 . S
C2168 C2169 1.349 . S
C2168 C2170 1.327 . S
C2168 H2193 0.950 . S
C2169 C2168 1.349 . S
C2169 C2185 1.349 . S
C2170 C2168 1.327 . S
C2170 C2189 1.429 . S
C2170 H2194 0.950 . S
C2171 C2188 1.574 . S
C2171 C2190 1.368 . S
C2171 H2195 0.949 . S
H2172 C2176 0.949 . S
C2173 C2174 1.349 . S
C2173 C2175 1.327 . S
C2173 H2196 0.950 . S
C2174 C2173 1.349 . S
C2174 C2186 1.349 . S
C2175 C2173 1.327 . S
C2175 C2191 1.429 . S
C2175 H2197 0.950 . S
C2176 H2172 0.949 . S
C2176 C2184 1.574 . S
C2176 C2192 1.368 . S
H2177 C2185 0.950 . S
H2178 C2183 0.950 . S
H2179 C2184 0.949 . S
H2180 C2186 0.950 . S
H2181 C2187 0.950 . S
H2182 C2188 0.949 . S
C2183 H2178 0.950 . S
C2183 C2185 1.327 . S
C2183 C2189 1.429 . S
C2184 C2176 1.574 . S
C2184 H2179 0.949 . S
C2184 C2190 1.368 . S
C2185 C2169 1.349 . S
C2185 H2177 0.950 . S
C2185 C2183 1.327 . S
C2186 C2174 1.349 . S
C2186 H2180 0.950 . S
C2186 C2187 1.327 . S
C2187 H2181 0.950 . S
C2187 C2186 1.327 . S
C2187 C2191 1.429 . S
C2188 C2171 1.574 . S
C2188 H2182 0.949 . S
C2188 C2192 1.368 . S
C2189 C2170 1.429 . S
C2189 C2183 1.429 . S
C2189 C2190 1.523 . S
C2190 C2171 1.368 . S
C2190 C2184 1.368 . S
C2190 C2189 1.523 . S
C2191 C2175 1.429 . S
C2191 C2187 1.429 . S
C2191 C2192 1.523 . S
C2192 C2176 1.368 . S
C2192 C2188 1.368 . S
C2192 C2191 1.523 . S
H2193 C2168 0.950 . S
H2194 C2170 0.950 . S
H2195 C2171 0.949 . S
H2196 C2173 0.950 . S
H2197 C2175 0.950 . S
C2198 C2199 1.349 . S
C2198 C2200 1.327 . S
C2198 H2223 0.950 . S
C2199 C2198 1.349 . S
C2199 C2215 1.349 . S
C2200 C2198 1.327 . S
C2200 C2219 1.429 . S
C2200 H2224 0.950 . S
C2201 C2218 1.574 . S
C2201 C2220 1.368 1_545 S
C2201 H2225 0.949 . S
H2202 C2206 0.949 . S
C2203 C2204 1.349 . S
C2203 C2205 1.327 . S
C2203 H2226 0.950 . S
C2204 C2203 1.349 . S
C2204 C2216 1.349 . S
C2205 C2203 1.327 . S
C2205 C2221 1.429 . S
C2205 H2227 0.950 . S
C2206 H2202 0.949 . S
C2206 C2214 1.574 . S
C2206 C2222 1.368 1_565 S
H2207 C2215 0.950 . S
H2208 C2213 0.950 . S
H2209 C2214 0.949 . S
H2210 C2216 0.950 . S
H2211 C2217 0.950 . S
H2212 C2218 0.949 . S
C2213 H2208 0.950 . S
C2213 C2215 1.327 . S
C2213 C2219 1.429 . S
C2214 C2206 1.574 . S
C2214 H2209 0.949 . S
C2214 C2220 1.368 . S
C2215 C2199 1.349 . S
C2215 H2207 0.950 . S
C2215 C2213 1.327 . S
C2216 C2204 1.349 . S
C2216 H2210 0.950 . S
C2216 C2217 1.327 . S
C2217 H2211 0.950 . S
C2217 C2216 1.327 . S
C2217 C2221 1.429 . S
C2218 C2201 1.574 . S
C2218 H2212 0.949 . S
C2218 C2222 1.368 . S
C2219 C2200 1.429 . S
C2219 C2213 1.429 . S
C2219 C2220 1.523 . S
C2220 C2201 1.368 1_565 S
C2220 C2214 1.368 . S
C2220 C2219 1.523 . S
C2221 C2205 1.429 . S
C2221 C2217 1.429 . S
C2221 C2222 1.523 . S
C2222 C2206 1.368 1_545 S
C2222 C2218 1.368 . S
C2222 C2221 1.523 . S
H2223 C2198 0.950 . S
H2224 C2200 0.950 . S
H2225 C2201 0.949 . S
H2226 C2203 0.950 . S
H2227 C2205 0.950 . S
C2228 C2229 1.349 . S
C2228 C2230 1.327 . S
C2228 H2253 0.950 . S
C2229 C2228 1.349 . S
C2229 C2245 1.349 . S
C2230 C2228 1.327 . S
C2230 C2249 1.429 . S
C2230 H2254 0.950 . S
C2231 C2248 1.574 . S
C2231 C2250 1.368 . S
C2231 H2255 0.949 . S
H2232 C2236 0.949 . S
C2233 C2234 1.349 . S
C2233 C2235 1.327 . S
C2233 H2256 0.950 . S
C2234 C2233 1.349 . S
C2234 C2246 1.349 . S
C2235 C2233 1.327 . S
C2235 C2251 1.429 . S
C2235 H2257 0.950 . S
C2236 H2232 0.949 . S
C2236 C2244 1.574 . S
C2236 C2252 1.368 . S
H2237 C2245 0.950 . S
H2238 C2243 0.950 . S
H2239 C2244 0.949 . S
H2240 C2246 0.950 . S
H2241 C2247 0.950 . S
H2242 C2248 0.949 . S
C2243 H2238 0.950 . S
C2243 C2245 1.327 . S
C2243 C2249 1.429 . S
C2244 C2236 1.574 . S
C2244 H2239 0.949 . S
C2244 C2250 1.368 . S
C2245 C2229 1.349 . S
C2245 H2237 0.950 . S
C2245 C2243 1.327 . S
C2246 C2234 1.349 . S
C2246 H2240 0.950 . S
C2246 C2247 1.327 . S
C2247 H2241 0.950 . S
C2247 C2246 1.327 . S
C2247 C2251 1.429 . S
C2248 C2231 1.574 . S
C2248 H2242 0.949 . S
C2248 C2252 1.368 . S
C2249 C2230 1.429 . S
C2249 C2243 1.429 . S
C2249 C2250 1.523 . S
C2250 C2231 1.368 . S
C2250 C2244 1.368 . S
C2250 C2249 1.523 . S
C2251 C2235 1.429 . S
C2251 C2247 1.429 . S
C2251 C2252 1.523 . S
C2252 C2236 1.368 . S
C2252 C2248 1.368 . S
C2252 C2251 1.523 . S
H2253 C2228 0.950 . S
H2254 C2230 0.950 . S
H2255 C2231 0.949 . S
H2256 C2233 0.950 . S
H2257 C2235 0.950 . S
C2258 C2259 1.349 . S
C2258 C2260 1.327 . S
C2258 H2283 0.950 . S
C2259 C2258 1.349 . S
C2259 C2275 1.349 . S
C2260 C2258 1.327 . S
C2260 C2279 1.429 . S
C2260 H2284 0.950 . S
C2261 C2278 1.574 1_556 S
C2261 C2280 1.368 . S
C2261 H2285 0.949 . S
H2262 C2266 0.949 . S
C2263 C2264 1.349 . S
C2263 C2265 1.327 . S
C2263 H2286 0.950 . S
C2264 C2263 1.349 . S
C2264 C2276 1.349 . S
C2265 C2263 1.327 . S
C2265 C2281 1.429 . S
C2265 H2287 0.950 . S
C2266 H2262 0.949 . S
C2266 C2274 1.574 1_554 S
C2266 C2282 1.368 . S
H2267 C2275 0.950 . S
H2268 C2273 0.950 . S
H2269 C2274 0.949 . S
H2270 C2276 0.950 . S
H2271 C2277 0.950 . S
H2272 C2278 0.949 . S
C2273 H2268 0.950 . S
C2273 C2275 1.327 . S
C2273 C2279 1.429 . S
C2274 C2266 1.574 1_556 S
C2274 H2269 0.949 . S
C2274 C2280 1.368 1_565 S
C2275 C2259 1.349 . S
C2275 H2267 0.950 . S
C2275 C2273 1.327 . S
C2276 C2264 1.349 . S
C2276 H2270 0.950 . S
C2276 C2277 1.327 . S
C2277 H2271 0.950 . S
C2277 C2276 1.327 . S
C2277 C2281 1.429 . S
C2278 C2261 1.574 1_554 S
C2278 H2272 0.949 . S
C2278 C2282 1.368 1_545 S
C2279 C2260 1.429 . S
C2279 C2273 1.429 . S
C2279 C2280 1.523 . S
C2280 C2261 1.368 . S
C2280 C2274 1.368 1_545 S
C2280 C2279 1.523 . S
C2281 C2265 1.429 . S
C2281 C2277 1.429 . S
C2281 C2282 1.523 . S
C2282 C2266 1.368 . S
C2282 C2278 1.368 1_565 S
C2282 C2281 1.523 . S
H2283 C2258 0.950 . S
H2284 C2260 0.950 . S
H2285 C2261 0.949 . S
H2286 C2263 0.950 . S
H2287 C2265 0.950 . S
C2288 C2289 1.349 . S
C2288 C2290 1.327 . S
C2288 H2313 0.950 . S
C2289 C2288 1.349 . S
C2289 C2305 1.349 . S
C2290 C2288 1.327 . S
C2290 C2309 1.429 . S
C2290 H2314 0.950 . S
C2291 C2308 1.574 . S
C2291 C2310 1.368 . S
C2291 H2315 0.949 . S
H2292 C2296 0.949 . S
C2293 C2294 1.349 . S
C2293 C2295 1.327 . S
C2293 H2316 0.950 . S
C2294 C2293 1.349 . S
C2294 C2306 1.349 . S
C2295 C2293 1.327 . S
C2295 C2311 1.429 . S
C2295 H2317 0.950 . S
C2296 H2292 0.949 . S
C2296 C2304 1.574 . S
C2296 C2312 1.368 . S
H2297 C2305 0.950 . S
H2298 C2303 0.950 . S
H2299 C2304 0.949 . S
H2300 C2306 0.950 . S
H2301 C2307 0.950 . S
H2302 C2308 0.949 . S
C2303 H2298 0.950 . S
C2303 C2305 1.327 . S
C2303 C2309 1.429 . S
C2304 C2296 1.574 . S
C2304 H2299 0.949 . S
C2304 C2310 1.368 . S
C2305 C2289 1.349 . S
C2305 H2297 0.950 . S
C2305 C2303 1.327 . S
C2306 C2294 1.349 . S
C2306 H2300 0.950 . S
C2306 C2307 1.327 . S
C2307 H2301 0.950 . S
C2307 C2306 1.327 . S
C2307 C2311 1.429 . S
C2308 C2291 1.574 . S
C2308 H2302 0.949 . S
C2308 C2312 1.368 . S
C2309 C2290 1.429 . S
C2309 C2303 1.429 . S
C2309 C2310 1.523 . S
C2310 C2291 1.368 . S
C2310 C2304 1.368 . S
C2310 C2309 1.523 . S
C2311 C2295 1.429 . S
C2311 C2307 1.429 . S
C2311 C2312 1.523 . S
C2312 C2296 1.368 . S
C2312 C2308 1.368 . S
C2312 C2311 1.523 . S
H2313 C2288 0.950 . S
H2314 C2290 0.950 . S
H2315 C2291 0.949 . S
H2316 C2293 0.950 . S
H2317 C2295 0.950 . S
C2318 C2319 1.349 . S
C2318 C2320 1.327 . S
C2318 H2343 0.950 . S
C2319 C2318 1.349 . S
C2319 C2335 1.349 . S
C2320 C2318 1.327 . S
C2320 C2339 1.429 . S
C2320 H2344 0.950 . S
C2321 C2338 1.574 1_554 S
C2321 C2340 1.368 . S
C2321 H2345 0.949 . S
H2322 C2326 0.949 . S
C2323 C2324 1.349 . S
C2323 C2325 1.327 . S
C2323 H2346 0.950 . S
C2324 C2323 1.349 . S
C2324 C2336 1.349 . S
C2325 C2323 1.327 . S
C2325 C2341 1.429 . S
C2325 H2347 0.950 . S
C2326 H2322 0.949 . S
C2326 C2334 1.574 1_556 S
C2326 C2342 1.368 . S
H2327 C2335 0.950 . S
H2328 C2333 0.950 . S
H2329 C2334 0.949 . S
H2330 C2336 0.950 . S
H2331 C2337 0.950 . S
H2332 C2338 0.949 . S
C2333 H2328 0.950 . S
C2333 C2335 1.327 . S
C2333 C2339 1.429 . S
C2334 C2326 1.574 1_554 S
C2334 H2329 0.949 . S
C2334 C2340 1.368 . S
C2335 C2319 1.349 . S
C2335 H2327 0.950 . S
C2335 C2333 1.327 . S
C2336 C2324 1.349 . S
C2336 H2330 0.950 . S
C2336 C2337 1.327 . S
C2337 H2331 0.950 . S
C2337 C2336 1.327 . S
C2337 C2341 1.429 . S
C2338 C2321 1.574 1_556 S
C2338 H2332 0.949 . S
C2338 C2342 1.368 . S
C2339 C2320 1.429 . S
C2339 C2333 1.429 . S
C2339 C2340 1.523 . S
C2340 C2321 1.368 . S
C2340 C2334 1.368 . S
C2340 C2339 1.523 . S
C2341 C2325 1.429 . S
C2341 C2337 1.429 . S
C2341 C2342 1.523 . S
C2342 C2326 1.368 . S
C2342 C2338 1.368 . S
C2342 C2341 1.523 . S
H2343 C2318 0.950 . S
H2344 C2320 0.950 . S
H2345 C2321 0.949 . S
H2346 C2323 0.950 . S
H2347 C2325 0.950 . S
C2348 C2349 1.349 . S
C2348 C2350 1.327 . S
C2348 H2373 0.950 . S
C2349 C2348 1.349 . S
C2349 C2365 1.349 . S
C2350 C2348 1.327 . S
C2350 C2369 1.429 . S
C2350 H2374 0.950 . S
C2351 C2368 1.574 . S
C2351 C2370 1.368 . S
C2351 H2375 0.949 . S
H2352 C2356 0.949 . S
C2353 C2354 1.349 . S
C2353 C2355 1.327 . S
C2353 H2376 0.950 . S
C2354 C2353 1.349 . S
C2354 C2366 1.349 . S
C2355 C2353 1.327 . S
C2355 C2371 1.429 . S
C2355 H2377 0.950 . S
C2356 H2352 0.949 . S
C2356 C2364 1.574 . S
C2356 C2372 1.368 . S
H2357 C2365 0.950 . S
H2358 C2363 0.950 . S
H2359 C2364 0.949 . S
H2360 C2366 0.950 . S
H2361 C2367 0.950 . S
H2362 C2368 0.949 . S
C2363 H2358 0.950 . S
C2363 C2365 1.327 . S
C2363 C2369 1.429 . S
C2364 C2356 1.574 . S
C2364 H2359 0.949 . S
C2364 C2370 1.368 . S
C2365 C2349 1.349 . S
C2365 H2357 0.950 . S
C2365 C2363 1.327 . S
C2366 C2354 1.349 . S
C2366 H2360 0.950 . S
C2366 C2367 1.327 . S
C2367 H2361 0.950 . S
C2367 C2366 1.327 . S
C2367 C2371 1.429 . S
C2368 C2351 1.574 . S
C2368 H2362 0.949 . S
C2368 C2372 1.368 . S
C2369 C2350 1.429 . S
C2369 C2363 1.429 . S
C2369 C2370 1.523 . S
C2370 C2351 1.368 . S
C2370 C2364 1.368 . S
C2370 C2369 1.523 . S
C2371 C2355 1.429 . S
C2371 C2367 1.429 . S
C2371 C2372 1.523 . S
C2372 C2356 1.368 . S
C2372 C2368 1.368 . S
C2372 C2371 1.523 . S
H2373 C2348 0.950 . S
H2374 C2350 0.950 . S
H2375 C2351 0.949 . S
H2376 C2353 0.950 . S
H2377 C2355 0.950 . S
C2378 C2379 1.349 . S
C2378 C2380 1.327 . S
C2378 H2403 0.950 . S
C2379 C2378 1.349 . S
C2379 C2395 1.349 . S
C2380 C2378 1.327 . S
C2380 C2399 1.429 . S
C2380 H2404 0.950 . S
C2381 C2398 1.574 . S
C2381 C2400 1.368 . S
C2381 H2405 0.949 . S
H2382 C2386 0.949 . S
C2383 C2384 1.349 . S
C2383 C2385 1.327 . S
C2383 H2406 0.950 . S
C2384 C2383 1.349 . S
C2384 C2396 1.349 . S
C2385 C2383 1.327 . S
C2385 C2401 1.429 . S
C2385 H2407 0.950 . S
C2386 H2382 0.949 . S
C2386 C2394 1.574 . S
C2386 C2402 1.368 . S
H2387 C2395 0.950 . S
H2388 C2393 0.950 . S
H2389 C2394 0.949 . S
H2390 C2396 0.950 . S
H2391 C2397 0.950 . S
H2392 C2398 0.949 . S
C2393 H2388 0.950 . S
C2393 C2395 1.327 . S
C2393 C2399 1.429 . S
C2394 C2386 1.574 . S
C2394 H2389 0.949 . S
C2394 C2400 1.368 . S
C2395 C2379 1.349 . S
C2395 H2387 0.950 . S
C2395 C2393 1.327 . S
C2396 C2384 1.349 . S
C2396 H2390 0.950 . S
C2396 C2397 1.327 . S
C2397 H2391 0.950 . S
C2397 C2396 1.327 . S
C2397 C2401 1.429 . S
C2398 C2381 1.574 . S
C2398 H2392 0.949 . S
C2398 C2402 1.368 . S
C2399 C2380 1.429 . S
C2399 C2393 1.429 . S
C2399 C2400 1.523 . S
C2400 C2381 1.368 . S
C2400 C2394 1.368 . S
C2400 C2399 1.523 . S
C2401 C2385 1.429 . S
C2401 C2397 1.429 . S
C2401 C2402 1.523 . S
C2402 C2386 1.368 . S
C2402 C2398 1.368 . S
C2402 C2401 1.523 . S
H2403 C2378 0.950 . S
H2404 C2380 0.950 . S
H2405 C2381 0.949 . S
H2406 C2383 0.950 . S
H2407 C2385 0.950 . S
C2408 C2409 1.349 . S
C2408 C2410 1.327 . S
C2408 H2433 0.950 . S
C2409 C2408 1.349 . S
C2409 C2425 1.349 . S
C2410 C2408 1.327 . S
C2410 C2429 1.429 . S
C2410 H2434 0.950 . S
C2411 C2428 1.574 . S
C2411 C2430 1.368 . S
C2411 H2435 0.949 . S
H2412 C2416 0.949 . S
C2413 C2414 1.349 . S
C2413 C2415 1.327 . S
C2413 H2436 0.950 . S
C2414 C2413 1.349 . S
C2414 C2426 1.349 . S
C2415 C2413 1.327 . S
C2415 C2431 1.429 . S
C2415 H2437 0.950 . S
C2416 H2412 0.949 . S
C2416 C2424 1.574 . S
C2416 C2432 1.368 . S
H2417 C2425 0.950 . S
H2418 C2423 0.950 . S
H2419 C2424 0.949 . S
H2420 C2426 0.950 . S
H2421 C2427 0.950 . S
H2422 C2428 0.949 . S
C2423 H2418 0.950 . S
C2423 C2425 1.327 . S
C2423 C2429 1.429 . S
C2424 C2416 1.574 . S
C2424 H2419 0.949 . S
C2424 C2430 1.368 . S
C2425 C2409 1.349 . S
C2425 H2417 0.950 . S
C2425 C2423 1.327 . S
C2426 C2414 1.349 . S
C2426 H2420 0.950 . S
C2426 C2427 1.327 . S
C2427 H2421 0.950 . S
C2427 C2426 1.327 . S
C2427 C2431 1.429 . S
C2428 C2411 1.574 . S
C2428 H2422 0.949 . S
C2428 C2432 1.368 . S
C2429 C2410 1.429 . S
C2429 C2423 1.429 . S
C2429 C2430 1.523 . S
C2430 C2411 1.368 . S
C2430 C2424 1.368 . S
C2430 C2429 1.523 . S
C2431 C2415 1.429 . S
C2431 C2427 1.429 . S
C2431 C2432 1.523 . S
C2432 C2416 1.368 . S
C2432 C2428 1.368 . S
C2432 C2431 1.523 . S
H2433 C2408 0.950 . S
H2434 C2410 0.950 . S
H2435 C2411 0.949 . S
H2436 C2413 0.950 . S
H2437 C2415 0.950 . S
C2438 C2439 1.349 . S
C2438 C2440 1.327 . S
C2438 H2463 0.950 . S
C2439 C2438 1.349 . S
C2439 C2455 1.349 . S
C2440 C2438 1.327 . S
C2440 C2459 1.429 . S
C2440 H2464 0.950 . S
C2441 C2458 1.574 1_556 S
C2441 C2460 1.368 . S
C2441 H2465 0.949 . S
H2442 C2446 0.949 . S
C2443 C2444 1.349 . S
C2443 C2445 1.327 . S
C2443 H2466 0.950 . S
C2444 C2443 1.349 . S
C2444 C2456 1.349 . S
C2445 C2443 1.327 . S
C2445 C2461 1.429 . S
C2445 H2467 0.950 . S
C2446 H2442 0.949 . S
C2446 C2454 1.574 1_554 S
C2446 C2462 1.368 . S
H2447 C2455 0.950 . S
H2448 C2453 0.950 . S
H2449 C2454 0.949 . S
H2450 C2456 0.950 . S
H2451 C2457 0.950 . S
H2452 C2458 0.949 . S
C2453 H2448 0.950 . S
C2453 C2455 1.327 . S
C2453 C2459 1.429 . S
C2454 C2446 1.574 1_556 S
C2454 H2449 0.949 . S
C2454 C2460 1.368 . S
C2455 C2439 1.349 . S
C2455 H2447 0.950 . S
C2455 C2453 1.327 . S
C2456 C2444 1.349 . S
C2456 H2450 0.950 . S
C2456 C2457 1.327 . S
C2457 H2451 0.950 . S
C2457 C2456 1.327 . S
C2457 C2461 1.429 . S
C2458 C2441 1.574 1_554 S
C2458 H2452 0.949 . S
C2458 C2462 1.368 . S
C2459 C2440 1.429 . S
C2459 C2453 1.429 . S
C2459 C2460 1.523 . S
C2460 C2441 1.368 . S
C2460 C2454 1.368 . S
C2460 C2459 1.523 . S
C2461 C2445 1.429 . S
C2461 C2457 1.429 . S
C2461 C2462 1.523 . S
C2462 C2446 1.368 . S
C2462 C2458 1.368 . S
C2462 C2461 1.523 . S
H2463 C2438 0.950 . S
H2464 C2440 0.950 . S
H2465 C2441 0.949 . S
H2466 C2443 0.950 . S
H2467 C2445 0.950 . S
C2468 C2469 1.349 . S
C2468 C2470 1.327 . S
C2468 H2493 0.950 . S
C2469 C2468 1.349 . S
C2469 C2485 1.349 . S
C2470 C2468 1.327 . S
C2470 C2489 1.429 . S
C2470 H2494 0.950 . S
C2471 C2488 1.574 . S
C2471 C2490 1.368 . S
C2471 H2495 0.949 . S
H2472 C2476 0.949 . S
C2473 C2474 1.349 . S
C2473 C2475 1.327 . S
C2473 H2496 0.950 . S
C2474 C2473 1.349 . S
C2474 C2486 1.349 . S
C2475 C2473 1.327 . S
C2475 C2491 1.429 . S
C2475 H2497 0.950 . S
C2476 H2472 0.949 . S
C2476 C2484 1.574 . S
C2476 C2492 1.368 . S
H2477 C2485 0.950 . S
H2478 C2483 0.950 . S
H2479 C2484 0.949 . S
H2480 C2486 0.950 . S
H2481 C2487 0.950 . S
H2482 C2488 0.949 . S
C2483 H2478 0.950 . S
C2483 C2485 1.327 . S
C2483 C2489 1.429 . S
C2484 C2476 1.574 . S
C2484 H2479 0.949 . S
C2484 C2490 1.368 . S
C2485 C2469 1.349 . S
C2485 H2477 0.950 . S
C2485 C2483 1.327 . S
C2486 C2474 1.349 . S
C2486 H2480 0.950 . S
C2486 C2487 1.327 . S
C2487 H2481 0.950 . S
C2487 C2486 1.327 . S
C2487 C2491 1.429 . S
C2488 C2471 1.574 . S
C2488 H2482 0.949 . S
C2488 C2492 1.368 . S
C2489 C2470 1.429 . S
C2489 C2483 1.429 . S
C2489 C2490 1.523 . S
C2490 C2471 1.368 . S
C2490 C2484 1.368 . S
C2490 C2489 1.523 . S
C2491 C2475 1.429 . S
C2491 C2487 1.429 . S
C2491 C2492 1.523 . S
C2492 C2476 1.368 . S
C2492 C2488 1.368 . S
C2492 C2491 1.523 . S
H2493 C2468 0.950 . S
H2494 C2470 0.950 . S
H2495 C2471 0.949 . S
H2496 C2473 0.950 . S
H2497 C2475 0.950 . S
C2498 C2499 1.349 . S
C2498 C2500 1.327 . S
C2498 H2523 0.950 . S
C2499 C2498 1.349 . S
C2499 C2515 1.349 . S
C2500 C2498 1.327 . S
C2500 C2519 1.429 . S
C2500 H2524 0.950 . S
C2501 C2518 1.574 . S
C2501 C2520 1.368 . S
C2501 H2525 0.949 . S
H2502 C2506 0.949 . S
C2503 C2504 1.349 . S
C2503 C2505 1.327 . S
C2503 H2526 0.950 . S
C2504 C2503 1.349 . S
C2504 C2516 1.349 . S
C2505 C2503 1.327 . S
C2505 C2521 1.429 . S
C2505 H2527 0.950 . S
C2506 H2502 0.949 . S
C2506 C2514 1.574 . S
C2506 C2522 1.368 . S
H2507 C2515 0.950 . S
H2508 C2513 0.950 . S
H2509 C2514 0.949 . S
H2510 C2516 0.950 . S
H2511 C2517 0.950 . S
H2512 C2518 0.949 . S
C2513 H2508 0.950 . S
C2513 C2515 1.327 . S
C2513 C2519 1.429 . S
C2514 C2506 1.574 . S
C2514 H2509 0.949 . S
C2514 C2520 1.368 . S
C2515 C2499 1.349 . S
C2515 H2507 0.950 . S
C2515 C2513 1.327 . S
C2516 C2504 1.349 . S
C2516 H2510 0.950 . S
C2516 C2517 1.327 . S
C2517 H2511 0.950 . S
C2517 C2516 1.327 . S
C2517 C2521 1.429 . S
C2518 C2501 1.574 . S
C2518 H2512 0.949 . S
C2518 C2522 1.368 . S
C2519 C2500 1.429 . S
C2519 C2513 1.429 . S
C2519 C2520 1.523 . S
C2520 C2501 1.368 . S
C2520 C2514 1.368 . S
C2520 C2519 1.523 . S
C2521 C2505 1.429 . S
C2521 C2517 1.429 . S
C2521 C2522 1.523 . S
C2522 C2506 1.368 . S
C2522 C2518 1.368 . S
C2522 C2521 1.523 . S
H2523 C2498 0.950 . S
H2524 C2500 0.950 . S
H2525 C2501 0.949 . S
H2526 C2503 0.950 . S
H2527 C2505 0.950 . S
C2528 C2529 1.349 . S
C2528 C2530 1.327 . S
C2528 H2553 0.950 . S
C2529 C2528 1.349 . S
C2529 C2545 1.349 . S
C2530 C2528 1.327 . S
C2530 C2549 1.429 . S
C2530 H2554 0.950 . S
C2531 C2548 1.574 . S
C2531 C2550 1.368 . S
C2531 H2555 0.949 . S
H2532 C2536 0.949 . S
C2533 C2534 1.349 . S
C2533 C2535 1.327 . S
C2533 H2556 0.950 . S
C2534 C2533 1.349 . S
C2534 C2546 1.349 . S
C2535 C2533 1.327 . S
C2535 C2551 1.429 . S
C2535 H2557 0.950 . S
C2536 H2532 0.949 . S
C2536 C2544 1.574 . S
C2536 C2552 1.368 . S
H2537 C2545 0.950 . S
H2538 C2543 0.950 . S
H2539 C2544 0.949 . S
H2540 C2546 0.950 . S
H2541 C2547 0.950 . S
H2542 C2548 0.949 . S
C2543 H2538 0.950 . S
C2543 C2545 1.327 . S
C2543 C2549 1.429 . S
C2544 C2536 1.574 . S
C2544 H2539 0.949 . S
C2544 C2550 1.368 . S
C2545 C2529 1.349 . S
C2545 H2537 0.950 . S
C2545 C2543 1.327 . S
C2546 C2534 1.349 . S
C2546 H2540 0.950 . S
C2546 C2547 1.327 . S
C2547 H2541 0.950 . S
C2547 C2546 1.327 . S
C2547 C2551 1.429 . S
C2548 C2531 1.574 . S
C2548 H2542 0.949 . S
C2548 C2552 1.368 . S
C2549 C2530 1.429 . S
C2549 C2543 1.429 . S
C2549 C2550 1.523 . S
C2550 C2531 1.368 . S
C2550 C2544 1.368 . S
C2550 C2549 1.523 . S
C2551 C2535 1.429 . S
C2551 C2547 1.429 . S
C2551 C2552 1.523 . S
C2552 C2536 1.368 . S
C2552 C2548 1.368 . S
C2552 C2551 1.523 . S
H2553 C2528 0.950 . S
H2554 C2530 0.950 . S
H2555 C2531 0.949 . S
H2556 C2533 0.950 . S
H2557 C2535 0.950 . S
C2558 C2559 1.349 . S
C2558 C2560 1.327 . S
C2558 H2583 0.950 . S
C2559 C2558 1.349 . S
C2559 C2575 1.349 . S
C2560 C2558 1.327 . S
C2560 C2579 1.429 . S
C2560 H2584 0.950 . S
C2561 C2578 1.574 . S
C2561 C2580 1.368 . S
C2561 H2585 0.949 . S
H2562 C2566 0.949 . S
C2563 C2564 1.349 . S
C2563 C2565 1.327 . S
C2563 H2586 0.950 . S
C2564 C2563 1.349 . S
C2564 C2576 1.349 . S
C2565 C2563 1.327 . S
C2565 C2581 1.429 . S
C2565 H2587 0.950 . S
C2566 H2562 0.949 . S
C2566 C2574 1.574 . S
C2566 C2582 1.368 . S
H2567 C2575 0.950 . S
H2568 C2573 0.950 . S
H2569 C2574 0.949 . S
H2570 C2576 0.950 . S
H2571 C2577 0.950 . S
H2572 C2578 0.949 . S
C2573 H2568 0.950 . S
C2573 C2575 1.327 . S
C2573 C2579 1.429 . S
C2574 C2566 1.574 . S
C2574 H2569 0.949 . S
C2574 C2580 1.368 . S
C2575 C2559 1.349 . S
C2575 H2567 0.950 . S
C2575 C2573 1.327 . S
C2576 C2564 1.349 . S
C2576 H2570 0.950 . S
C2576 C2577 1.327 . S
C2577 H2571 0.950 . S
C2577 C2576 1.327 . S
C2577 C2581 1.429 . S
C2578 C2561 1.574 . S
C2578 H2572 0.949 . S
C2578 C2582 1.368 . S
C2579 C2560 1.429 . S
C2579 C2573 1.429 . S
C2579 C2580 1.523 . S
C2580 C2561 1.368 . S
C2580 C2574 1.368 . S
C2580 C2579 1.523 . S
C2581 C2565 1.429 . S
C2581 C2577 1.429 . S
C2581 C2582 1.523 . S
C2582 C2566 1.368 . S
C2582 C2578 1.368 . S
C2582 C2581 1.523 . S
H2583 C2558 0.950 . S
H2584 C2560 0.950 . S
H2585 C2561 0.949 . S
H2586 C2563 0.950 . S
H2587 C2565 0.950 . S
C2588 C2589 1.349 . S
C2588 C2590 1.327 . S
C2588 H2613 0.950 . S
C2589 C2588 1.349 . S
C2589 C2605 1.349 . S
C2590 C2588 1.327 . S
C2590 C2609 1.429 . S
C2590 H2614 0.950 . S
C2591 C2608 1.574 . S
C2591 C2610 1.368 . S
C2591 H2615 0.949 . S
H2592 C2596 0.949 . S
C2593 C2594 1.349 . S
C2593 C2595 1.327 . S
C2593 H2616 0.950 . S
C2594 C2593 1.349 . S
C2594 C2606 1.349 . S
C2595 C2593 1.327 . S
C2595 C2611 1.429 . S
C2595 H2617 0.950 . S
C2596 H2592 0.949 . S
C2596 C2604 1.574 . S
C2596 C2612 1.368 . S
H2597 C2605 0.950 . S
H2598 C2603 0.950 . S
H2599 C2604 0.949 . S
H2600 C2606 0.950 . S
H2601 C2607 0.950 . S
H2602 C2608 0.949 . S
C2603 H2598 0.950 . S
C2603 C2605 1.327 . S
C2603 C2609 1.429 . S
C2604 C2596 1.574 . S
C2604 H2599 0.949 . S
C2604 C2610 1.368 . S
C2605 C2589 1.349 . S
C2605 H2597 0.950 . S
C2605 C2603 1.327 . S
C2606 C2594 1.349 . S
C2606 H2600 0.950 . S
C2606 C2607 1.327 . S
C2607 H2601 0.950 . S
C2607 C2606 1.327 . S
C2607 C2611 1.429 . S
C2608 C2591 1.574 . S
C2608 H2602 0.949 . S
C2608 C2612 1.368 . S
C2609 C2590 1.429 . S
C2609 C2603 1.429 . S
C2609 C2610 1.523 . S
C2610 C2591 1.368 . S
C2610 C2604 1.368 . S
C2610 C2609 1.523 . S
C2611 C2595 1.429 . S
C2611 C2607 1.429 . S
C2611 C2612 1.523 . S
C2612 C2596 1.368 . S
C2612 C2608 1.368 . S
C2612 C2611 1.523 . S
H2613 C2588 0.950 . S
H2614 C2590 0.950 . S
H2615 C2591 0.949 . S
H2616 C2593 0.950 . S
H2617 C2595 0.950 . S
C2618 C2619 1.349 . S
C2618 C2620 1.327 . S
C2618 H2643 0.950 . S
C2619 C2618 1.349 . S
C2619 C2635 1.349 . S
C2620 C2618 1.327 . S
C2620 C2639 1.429 . S
C2620 H2644 0.950 . S
C2621 C2638 1.574 . S
C2621 C2640 1.368 . S
C2621 H2645 0.949 . S
H2622 C2626 0.949 . S
C2623 C2624 1.349 . S
C2623 C2625 1.327 . S
C2623 H2646 0.950 . S
C2624 C2623 1.349 . S
C2624 C2636 1.349 . S
C2625 C2623 1.327 . S
C2625 C2641 1.429 . S
C2625 H2647 0.950 . S
C2626 H2622 0.949 . S
C2626 C2634 1.574 . S
C2626 C2642 1.368 . S
H2627 C2635 0.950 . S
H2628 C2633 0.950 . S
H2629 C2634 0.949 . S
H2630 C2636 0.950 . S
H2631 C2637 0.950 . S
H2632 C2638 0.949 . S
C2633 H2628 0.950 . S
C2633 C2635 1.327 . S
C2633 C2639 1.429 . S
C2634 C2626 1.574 . S
C2634 H2629 0.949 . S
C2634 C2640 1.368 . S
C2635 C2619 1.349 . S
C2635 H2627 0.950 . S
C2635 C2633 1.327 . S
C2636 C2624 1.349 . S
C2636 H2630 0.950 . S
C2636 C2637 1.327 . S
C2637 H2631 0.950 . S
C2637 C2636 1.327 . S
C2637 C2641 1.429 . S
C2638 C2621 1.574 . S
C2638 H2632 0.949 . S
C2638 C2642 1.368 . S
C2639 C2620 1.429 . S
C2639 C2633 1.429 . S
C2639 C2640 1.523 . S
C2640 C2621 1.368 . S
C2640 C2634 1.368 . S
C2640 C2639 1.523 . S
C2641 C2625 1.429 . S
C2641 C2637 1.429 . S
C2641 C2642 1.523 . S
C2642 C2626 1.368 . S
C2642 C2638 1.368 . S
C2642 C2641 1.523 . S
H2643 C2618 0.950 . S
H2644 C2620 0.950 . S
H2645 C2621 0.949 . S
H2646 C2623 0.950 . S
H2647 C2625 0.950 . S
C2648 C2649 1.349 . S
C2648 C2650 1.327 . S
C2648 H2673 0.950 . S
C2649 C2648 1.349 . S
C2649 C2665 1.349 . S
C2650 C2648 1.327 . S
C2650 C2669 1.429 . S
C2650 H2674 0.950 . S
C2651 C2668 1.574 . S
C2651 C2670 1.368 . S
C2651 H2675 0.949 . S
H2652 C2656 0.949 . S
C2653 C2654 1.349 . S
C2653 C2655 1.327 . S
C2653 H2676 0.950 . S
C2654 C2653 1.349 . S
C2654 C2666 1.349 . S
C2655 C2653 1.327 . S
C2655 C2671 1.429 . S
C2655 H2677 0.950 . S
C2656 H2652 0.949 . S
C2656 C2664 1.574 . S
C2656 C2672 1.368 . S
H2657 C2665 0.950 . S
H2658 C2663 0.950 . S
H2659 C2664 0.949 . S
H2660 C2666 0.950 . S
H2661 C2667 0.950 . S
H2662 C2668 0.949 . S
C2663 H2658 0.950 . S
C2663 C2665 1.327 . S
C2663 C2669 1.429 . S
C2664 C2656 1.574 . S
C2664 H2659 0.949 . S
C2664 C2670 1.368 . S
C2665 C2649 1.349 . S
C2665 H2657 0.950 . S
C2665 C2663 1.327 . S
C2666 C2654 1.349 . S
C2666 H2660 0.950 . S
C2666 C2667 1.327 . S
C2667 H2661 0.950 . S
C2667 C2666 1.327 . S
C2667 C2671 1.429 . S
C2668 C2651 1.574 . S
C2668 H2662 0.949 . S
C2668 C2672 1.368 . S
C2669 C2650 1.429 . S
C2669 C2663 1.429 . S
C2669 C2670 1.523 . S
C2670 C2651 1.368 . S
C2670 C2664 1.368 . S
C2670 C2669 1.523 . S
C2671 C2655 1.429 . S
C2671 C2667 1.429 . S
C2671 C2672 1.523 . S
C2672 C2656 1.368 . S
C2672 C2668 1.368 . S
C2672 C2671 1.523 . S
H2673 C2648 0.950 . S
H2674 C2650 0.950 . S
H2675 C2651 0.949 . S
H2676 C2653 0.950 . S
H2677 C2655 0.950 . S
C2678 C2679 1.349 . S
C2678 C2680 1.327 . S
C2678 H2703 0.950 . S
C2679 C2678 1.349 . S
C2679 C2695 1.349 . S
C2680 C2678 1.327 . S
C2680 C2699 1.429 . S
C2680 H2704 0.950 . S
C2681 C2698 1.574 . S
C2681 C2700 1.368 . S
C2681 H2705 0.949 . S
H2682 C2686 0.949 . S
C2683 C2684 1.349 . S
C2683 C2685 1.327 . S
C2683 H2706 0.950 . S
C2684 C2683 1.349 . S
C2684 C2696 1.349 . S
C2685 C2683 1.327 . S
C2685 C2701 1.429 . S
C2685 H2707 0.950 . S
C2686 H2682 0.949 . S
C2686 C2694 1.574 . S
C2686 C2702 1.368 . S
H2687 C2695 0.950 . S
H2688 C2693 0.950 . S
H2689 C2694 0.949 . S
H2690 C2696 0.950 . S
H2691 C2697 0.950 . S
H2692 C2698 0.949 . S
C2693 H2688 0.950 . S
C2693 C2695 1.327 . S
C2693 C2699 1.429 . S
C2694 C2686 1.574 . S
C2694 H2689 0.949 . S
C2694 C2700 1.368 . S
C2695 C2679 1.349 . S
C2695 H2687 0.950 . S
C2695 C2693 1.327 . S
C2696 C2684 1.349 . S
C2696 H2690 0.950 . S
C2696 C2697 1.327 . S
C2697 H2691 0.950 . S
C2697 C2696 1.327 . S
C2697 C2701 1.429 . S
C2698 C2681 1.574 . S
C2698 H2692 0.949 . S
C2698 C2702 1.368 . S
C2699 C2680 1.429 . S
C2699 C2693 1.429 . S
C2699 C2700 1.523 . S
C2700 C2681 1.368 . S
C2700 C2694 1.368 . S
C2700 C2699 1.523 . S
C2701 C2685 1.429 . S
C2701 C2697 1.429 . S
C2701 C2702 1.523 . S
C2702 C2686 1.368 . S
C2702 C2698 1.368 . S
C2702 C2701 1.523 . S
H2703 C2678 0.950 . S
H2704 C2680 0.950 . S
H2705 C2681 0.949 . S
H2706 C2683 0.950 . S
H2707 C2685 0.950 . S
C2708 C2709 1.349 . S
C2708 C2710 1.327 . S
C2708 H2733 0.950 . S
C2709 C2708 1.349 . S
C2709 C2725 1.349 . S
C2710 C2708 1.327 . S
C2710 C2729 1.429 . S
C2710 H2734 0.950 . S
C2711 C2728 1.574 . S
C2711 C2730 1.368 . S
C2711 H2735 0.949 . S
H2712 C2716 0.949 . S
C2713 C2714 1.349 . S
C2713 C2715 1.327 . S
C2713 H2736 0.950 . S
C2714 C2713 1.349 . S
C2714 C2726 1.349 . S
C2715 C2713 1.327 . S
C2715 C2731 1.429 . S
C2715 H2737 0.950 . S
C2716 H2712 0.949 . S
C2716 C2724 1.574 . S
C2716 C2732 1.368 . S
H2717 C2725 0.950 . S
H2718 C2723 0.950 . S
H2719 C2724 0.949 . S
H2720 C2726 0.950 . S
H2721 C2727 0.950 . S
H2722 C2728 0.949 . S
C2723 H2718 0.950 . S
C2723 C2725 1.327 . S
C2723 C2729 1.429 . S
C2724 C2716 1.574 . S
C2724 H2719 0.949 . S
C2724 C2730 1.368 . S
C2725 C2709 1.349 . S
C2725 H2717 0.950 . S
C2725 C2723 1.327 . S
C2726 C2714 1.349 . S
C2726 H2720 0.950 . S
C2726 C2727 1.327 . S
C2727 H2721 0.950 . S
C2727 C2726 1.327 . S
C2727 C2731 1.429 . S
C2728 C2711 1.574 . S
C2728 H2722 0.949 . S
C2728 C2732 1.368 . S
C2729 C2710 1.429 . S
C2729 C2723 1.429 . S
C2729 C2730 1.523 . S
C2730 C2711 1.368 . S
C2730 C2724 1.368 . S
C2730 C2729 1.523 . S
C2731 C2715 1.429 . S
C2731 C2727 1.429 . S
C2731 C2732 1.523 . S
C2732 C2716 1.368 . S
C2732 C2728 1.368 . S
C2732 C2731 1.523 . S
H2733 C2708 0.950 . S
H2734 C2710 0.950 . S
H2735 C2711 0.949 . S
H2736 C2713 0.950 . S
H2737 C2715 0.950 . S
C2738 C2739 1.349 . S
C2738 C2740 1.327 . S
C2738 H2763 0.950 . S
C2739 C2738 1.349 . S
C2739 C2755 1.349 . S
C2740 C2738 1.327 . S
C2740 C2759 1.429 . S
C2740 H2764 0.950 . S
C2741 C2758 1.574 . S
C2741 C2760 1.368 . S
C2741 H2765 0.949 . S
H2742 C2746 0.949 . S
C2743 C2744 1.349 . S
C2743 C2745 1.327 . S
C2743 H2766 0.950 . S
C2744 C2743 1.349 . S
C2744 C2756 1.349 . S
C2745 C2743 1.327 . S
C2745 C2761 1.429 . S
C2745 H2767 0.950 . S
C2746 H2742 0.949 . S
C2746 C2754 1.574 . S
C2746 C2762 1.368 . S
H2747 C2755 0.950 . S
H2748 C2753 0.950 . S
H2749 C2754 0.949 . S
H2750 C2756 0.950 . S
H2751 C2757 0.950 . S
H2752 C2758 0.949 . S
C2753 H2748 0.950 . S
C2753 C2755 1.327 . S
C2753 C2759 1.429 . S
C2754 C2746 1.574 . S
C2754 H2749 0.949 . S
C2754 C2760 1.368 . S
C2755 C2739 1.349 . S
C2755 H2747 0.950 . S
C2755 C2753 1.327 . S
C2756 C2744 1.349 . S
C2756 H2750 0.950 . S
C2756 C2757 1.327 . S
C2757 H2751 0.950 . S
C2757 C2756 1.327 . S
C2757 C2761 1.429 . S
C2758 C2741 1.574 . S
C2758 H2752 0.949 . S
C2758 C2762 1.368 . S
C2759 C2740 1.429 . S
C2759 C2753 1.429 . S
C2759 C2760 1.523 . S
C2760 C2741 1.368 . S
C2760 C2754 1.368 . S
C2760 C2759 1.523 . S
C2761 C2745 1.429 . S
C2761 C2757 1.429 . S
C2761 C2762 1.523 . S
C2762 C2746 1.368 . S
C2762 C2758 1.368 . S
C2762 C2761 1.523 . S
H2763 C2738 0.950 . S
H2764 C2740 0.950 . S
H2765 C2741 0.949 . S
H2766 C2743 0.950 . S
H2767 C2745 0.950 . S
C2768 C2769 1.349 . S
C2768 C2770 1.327 . S
C2768 H2793 0.950 . S
C2769 C2768 1.349 . S
C2769 C2785 1.349 . S
C2770 C2768 1.327 . S
C2770 C2789 1.429 . S
C2770 H2794 0.950 . S
C2771 C2788 1.574 . S
C2771 C2790 1.368 . S
C2771 H2795 0.949 . S
H2772 C2776 0.949 . S
C2773 C2774 1.349 . S
C2773 C2775 1.327 . S
C2773 H2796 0.950 . S
C2774 C2773 1.349 . S
C2774 C2786 1.349 . S
C2775 C2773 1.327 . S
C2775 C2791 1.429 . S
C2775 H2797 0.950 . S
C2776 H2772 0.949 . S
C2776 C2784 1.574 . S
C2776 C2792 1.368 . S
H2777 C2785 0.950 . S
H2778 C2783 0.950 . S
H2779 C2784 0.949 . S
H2780 C2786 0.950 . S
H2781 C2787 0.950 . S
H2782 C2788 0.949 . S
C2783 H2778 0.950 . S
C2783 C2785 1.327 . S
C2783 C2789 1.429 . S
C2784 C2776 1.574 . S
C2784 H2779 0.949 . S
C2784 C2790 1.368 . S
C2785 C2769 1.349 . S
C2785 H2777 0.950 . S
C2785 C2783 1.327 . S
C2786 C2774 1.349 . S
C2786 H2780 0.950 . S
C2786 C2787 1.327 . S
C2787 H2781 0.950 . S
C2787 C2786 1.327 . S
C2787 C2791 1.429 . S
C2788 C2771 1.574 . S
C2788 H2782 0.949 . S
C2788 C2792 1.368 . S
C2789 C2770 1.429 . S
C2789 C2783 1.429 . S
C2789 C2790 1.523 . S
C2790 C2771 1.368 . S
C2790 C2784 1.368 . S
C2790 C2789 1.523 . S
C2791 C2775 1.429 . S
C2791 C2787 1.429 . S
C2791 C2792 1.523 . S
C2792 C2776 1.368 . S
C2792 C2788 1.368 . S
C2792 C2791 1.523 . S
H2793 C2768 0.950 . S
H2794 C2770 0.950 . S
H2795 C2771 0.949 . S
H2796 C2773 0.950 . S
H2797 C2775 0.950 . S
C2798 C2799 1.349 . S
C2798 C2800 1.327 . S
C2798 H2823 0.950 . S
C2799 C2798 1.349 . S
C2799 C2815 1.349 . S
C2800 C2798 1.327 . S
C2800 C2819 1.429 . S
C2800 H2824 0.950 . S
C2801 C2818 1.574 . S
C2801 C2820 1.368 . S
C2801 H2825 0.949 . S
H2802 C2806 0.949 . S
C2803 C2804 1.349 . S
C2803 C2805 1.327 . S
C2803 H2826 0.950 . S
C2804 C2803 1.349 . S
C2804 C2816 1.349 . S
C2805 C2803 1.327 . S
C2805 C2821 1.429 . S
C2805 H2827 0.950 . S
C2806 H2802 0.949 . S
C2806 C2814 1.574 . S
C2806 C2822 1.368 . S
H2807 C2815 0.950 . S
H2808 C2813 0.950 . S
H2809 C2814 0.949 . S
H2810 C2816 0.950 . S
H2811 C2817 0.950 . S
H2812 C2818 0.949 . S
C2813 H2808 0.950 . S
C2813 C2815 1.327 . S
C2813 C2819 1.429 . S
C2814 C2806 1.574 . S
C2814 H2809 0.949 . S
C2814 C2820 1.368 . S
C2815 C2799 1.349 . S
C2815 H2807 0.950 . S
C2815 C2813 1.327 . S
C2816 C2804 1.349 . S
C2816 H2810 0.950 . S
C2816 C2817 1.327 . S
C2817 H2811 0.950 . S
C2817 C2816 1.327 . S
C2817 C2821 1.429 . S
C2818 C2801 1.574 . S
C2818 H2812 0.949 . S
C2818 C2822 1.368 . S
C2819 C2800 1.429 . S
C2819 C2813 1.429 . S
C2819 C2820 1.523 . S
C2820 C2801 1.368 . S
C2820 C2814 1.368 . S
C2820 C2819 1.523 . S
C2821 C2805 1.429 . S
C2821 C2817 1.429 . S
C2821 C2822 1.523 . S
C2822 C2806 1.368 . S
C2822 C2818 1.368 . S
C2822 C2821 1.523 . S
H2823 C2798 0.950 . S
H2824 C2800 0.950 . S
H2825 C2801 0.949 . S
H2826 C2803 0.950 . S
H2827 C2805 0.950 . S
C2828 C2829 1.349 . S
C2828 C2830 1.327 . S
C2828 H2853 0.950 . S
C2829 C2828 1.349 . S
C2829 C2845 1.349 . S
C2830 C2828 1.327 . S
C2830 C2849 1.429 . S
C2830 H2854 0.950 . S
C2831 C2848 1.574 . S
C2831 C2850 1.368 . S
C2831 H2855 0.949 . S
H2832 C2836 0.949 . S
C2833 C2834 1.349 . S
C2833 C2835 1.327 . S
C2833 H2856 0.950 . S
C2834 C2833 1.349 . S
C2834 C2846 1.349 . S
C2835 C2833 1.327 . S
C2835 C2851 1.429 . S
C2835 H2857 0.950 . S
C2836 H2832 0.949 . S
C2836 C2844 1.574 . S
C2836 C2852 1.368 . S
H2837 C2845 0.950 . S
H2838 C2843 0.950 . S
H2839 C2844 0.949 . S
H2840 C2846 0.950 . S
H2841 C2847 0.950 . S
H2842 C2848 0.949 . S
C2843 H2838 0.950 . S
C2843 C2845 1.327 . S
C2843 C2849 1.429 . S
C2844 C2836 1.574 . S
C2844 H2839 0.949 . S
C2844 C2850 1.368 . S
C2845 C2829 1.349 . S
C2845 H2837 0.950 . S
C2845 C2843 1.327 . S
C2846 C2834 1.349 . S
C2846 H2840 0.950 . S
C2846 C2847 1.327 . S
C2847 H2841 0.950 . S
C2847 C2846 1.327 . S
C2847 C2851 1.429 . S
C2848 C2831 1.574 . S
C2848 H2842 0.949 . S
C2848 C2852 1.368 . S
C2849 C2830 1.429 . S
C2849 C2843 1.429 . S
C2849 C2850 1.523 . S
C2850 C2831 1.368 . S
C2850 C2844 1.368 . S
C2850 C2849 1.523 . S
C2851 C2835 1.429 . S
C2851 C2847 1.429 . S
C2851 C2852 1.523 . S
C2852 C2836 1.368 . S
C2852 C2848 1.368 . S
C2852 C2851 1.523 . S
H2853 C2828 0.950 . S
H2854 C2830 0.950 . S
H2855 C2831 0.949 . S
H2856 C2833 0.950 . S
H2857 C2835 0.950 . S
C2858 C2859 1.349 . S
C2858 C2860 1.327 . S
C2858 H2883 0.950 . S
C2859 C2858 1.349 . S
C2859 C2875 1.349 . S
C2860 C2858 1.327 . S
C2860 C2879 1.429 . S
C2860 H2884 0.950 . S
C2861 C2878 1.574 . S
C2861 C2880 1.368 . S
C2861 H2885 0.949 . S
H2862 C2866 0.949 . S
C2863 C2864 1.349 . S
C2863 C2865 1.327 . S
C2863 H2886 0.950 . S
C2864 C2863 1.349 . S
C2864 C2876 1.349 . S
C2865 C2863 1.327 . S
C2865 C2881 1.429 . S
C2865 H2887 0.950 . S
C2866 H2862 0.949 . S
C2866 C2874 1.574 . S
C2866 C2882 1.368 . S
H2867 C2875 0.950 . S
H2868 C2873 0.950 . S
H2869 C2874 0.949 . S
H2870 C2876 0.950 . S
H2871 C2877 0.950 . S
H2872 C2878 0.949 . S
C2873 H2868 0.950 . S
C2873 C2875 1.327 . S
C2873 C2879 1.429 . S
C2874 C2866 1.574 . S
C2874 H2869 0.949 . S
C2874 C2880 1.368 . S
C2875 C2859 1.349 . S
C2875 H2867 0.950 . S
C2875 C2873 1.327 . S
C2876 C2864 1.349 . S
C2876 H2870 0.950 . S
C2876 C2877 1.327 . S
C2877 H2871 0.950 . S
C2877 C2876 1.327 . S
C2877 C2881 1.429 . S
C2878 C2861 1.574 . S
C2878 H2872 0.949 . S
C2878 C2882 1.368 . S
C2879 C2860 1.429 . S
C2879 C2873 1.429 . S
C2879 C2880 1.523 . S
C2880 C2861 1.368 . S
C2880 C2874 1.368 . S
C2880 C2879 1.523 . S
C2881 C2865 1.429 . S
C2881 C2877 1.429 . S
C2881 C2882 1.523 . S
C2882 C2866 1.368 . S
C2882 C2878 1.368 . S
C2882 C2881 1.523 . S
H2883 C2858 0.950 . S
H2884 C2860 0.950 . S
H2885 C2861 0.949 . S
H2886 C2863 0.950 . S
H2887 C2865 0.950 . S
C2888 C2889 1.349 . S
C2888 C2890 1.327 . S
C2888 H2913 0.950 . S
C2889 C2888 1.349 . S
C2889 C2905 1.349 . S
C2890 C2888 1.327 . S
C2890 C2909 1.429 . S
C2890 H2914 0.950 . S
C2891 C2908 1.574 . S
C2891 C2910 1.368 . S
C2891 H2915 0.949 . S
H2892 C2896 0.949 . S
C2893 C2894 1.349 . S
C2893 C2895 1.327 . S
C2893 H2916 0.950 . S
C2894 C2893 1.349 . S
C2894 C2906 1.349 . S
C2895 C2893 1.327 . S
C2895 C2911 1.429 . S
C2895 H2917 0.950 . S
C2896 H2892 0.949 . S
C2896 C2904 1.574 . S
C2896 C2912 1.368 . S
H2897 C2905 0.950 . S
H2898 C2903 0.950 . S
H2899 C2904 0.949 . S
H2900 C2906 0.950 . S
H2901 C2907 0.950 . S
H2902 C2908 0.949 . S
C2903 H2898 0.950 . S
C2903 C2905 1.327 . S
C2903 C2909 1.429 . S
C2904 C2896 1.574 . S
C2904 H2899 0.949 . S
C2904 C2910 1.368 . S
C2905 C2889 1.349 . S
C2905 H2897 0.950 . S
C2905 C2903 1.327 . S
C2906 C2894 1.349 . S
C2906 H2900 0.950 . S
C2906 C2907 1.327 . S
C2907 H2901 0.950 . S
C2907 C2906 1.327 . S
C2907 C2911 1.429 . S
C2908 C2891 1.574 . S
C2908 H2902 0.949 . S
C2908 C2912 1.368 . S
C2909 C2890 1.429 . S
C2909 C2903 1.429 . S
C2909 C2910 1.523 . S
C2910 C2891 1.368 . S
C2910 C2904 1.368 . S
C2910 C2909 1.523 . S
C2911 C2895 1.429 . S
C2911 C2907 1.429 . S
C2911 C2912 1.523 . S
C2912 C2896 1.368 . S
C2912 C2908 1.368 . S
C2912 C2911 1.523 . S
H2913 C2888 0.950 . S
H2914 C2890 0.950 . S
H2915 C2891 0.949 . S
H2916 C2893 0.950 . S
H2917 C2895 0.950 . S
C2918 C2919 1.349 . S
C2918 C2920 1.327 . S
C2918 H2943 0.950 . S
C2919 C2918 1.349 . S
C2919 C2935 1.349 . S
C2920 C2918 1.327 . S
C2920 C2939 1.429 . S
C2920 H2944 0.950 . S
C2921 C2938 1.574 . S
C2921 C2940 1.368 . S
C2921 H2945 0.949 . S
H2922 C2926 0.949 . S
C2923 C2924 1.349 . S
C2923 C2925 1.327 . S
C2923 H2946 0.950 . S
C2924 C2923 1.349 . S
C2924 C2936 1.349 . S
C2925 C2923 1.327 . S
C2925 C2941 1.429 . S
C2925 H2947 0.950 . S
C2926 H2922 0.949 . S
C2926 C2934 1.574 . S
C2926 C2942 1.368 . S
H2927 C2935 0.950 . S
H2928 C2933 0.950 . S
H2929 C2934 0.949 . S
H2930 C2936 0.950 . S
H2931 C2937 0.950 . S
H2932 C2938 0.949 . S
C2933 H2928 0.950 . S
C2933 C2935 1.327 . S
C2933 C2939 1.429 . S
C2934 C2926 1.574 . S
C2934 H2929 0.949 . S
C2934 C2940 1.368 . S
C2935 C2919 1.349 . S
C2935 H2927 0.950 . S
C2935 C2933 1.327 . S
C2936 C2924 1.349 . S
C2936 H2930 0.950 . S
C2936 C2937 1.327 . S
C2937 H2931 0.950 . S
C2937 C2936 1.327 . S
C2937 C2941 1.429 . S
C2938 C2921 1.574 . S
C2938 H2932 0.949 . S
C2938 C2942 1.368 . S
C2939 C2920 1.429 . S
C2939 C2933 1.429 . S
C2939 C2940 1.523 . S
C2940 C2921 1.368 . S
C2940 C2934 1.368 . S
C2940 C2939 1.523 . S
C2941 C2925 1.429 . S
C2941 C2937 1.429 . S
C2941 C2942 1.523 . S
C2942 C2926 1.368 . S
C2942 C2938 1.368 . S
C2942 C2941 1.523 . S
H2943 C2918 0.950 . S
H2944 C2920 0.950 . S
H2945 C2921 0.949 . S
H2946 C2923 0.950 . S
H2947 C2925 0.950 . S
C2948 C2949 1.349 . S
C2948 C2950 1.327 . S
C2948 H2973 0.950 . S
C2949 C2948 1.349 . S
C2949 C2965 1.349 . S
C2950 C2948 1.327 . S
C2950 C2969 1.429 . S
C2950 H2974 0.950 . S
C2951 C2968 1.574 . S
C2951 C2970 1.368 . S
C2951 H2975 0.949 . S
H2952 C2956 0.949 . S
C2953 C2954 1.349 . S
C2953 C2955 1.327 . S
C2953 H2976 0.950 . S
C2954 C2953 1.349 . S
C2954 C2966 1.349 . S
C2955 C2953 1.327 . S
C2955 C2971 1.429 . S
C2955 H2977 0.950 . S
C2956 H2952 0.949 . S
C2956 C2964 1.574 . S
C2956 C2972 1.368 . S
H2957 C2965 0.950 . S
H2958 C2963 0.950 . S
H2959 C2964 0.949 . S
H2960 C2966 0.950 . S
H2961 C2967 0.950 . S
H2962 C2968 0.949 . S
C2963 H2958 0.950 . S
C2963 C2965 1.327 . S
C2963 C2969 1.429 . S
C2964 C2956 1.574 . S
C2964 H2959 0.949 . S
C2964 C2970 1.368 . S
C2965 C2949 1.349 . S
C2965 H2957 0.950 . S
C2965 C2963 1.327 . S
C2966 C2954 1.349 . S
C2966 H2960 0.950 . S
C2966 C2967 1.327 . S
C2967 H2961 0.950 . S
C2967 C2966 1.327 . S
C2967 C2971 1.429 . S
C2968 C2951 1.574 . S
C2968 H2962 0.949 . S
C2968 C2972 1.368 . S
C2969 C2950 1.429 . S
C2969 C2963 1.429 . S
C2969 C2970 1.523 . S
C2970 C2951 1.368 . S
C2970 C2964 1.368 . S
C2970 C2969 1.523 . S
C2971 C2955 1.429 . S
C2971 C2967 1.429 . S
C2971 C2972 1.523 . S
C2972 C2956 1.368 . S
C2972 C2968 1.368 . S
C2972 C2971 1.523 . S
H2973 C2948 0.950 . S
H2974 C2950 0.950 . S
H2975 C2951 0.949 . S
H2976 C2953 0.950 . S
H2977 C2955 0.950 . S
C2978 C2979 1.349 . S
C2978 C2980 1.327 . S
C2978 H3003 0.950 . S
C2979 C2978 1.349 . S
C2979 C2995 1.349 . S
C2980 C2978 1.327 . S
C2980 C2999 1.429 . S
C2980 H3004 0.950 . S
C2981 C2998 1.574 . S
C2981 C3000 1.368 . S
C2981 H3005 0.949 . S
H2982 C2986 0.949 . S
C2983 C2984 1.349 . S
C2983 C2985 1.327 . S
C2983 H3006 0.950 . S
C2984 C2983 1.349 . S
C2984 C2996 1.349 . S
C2985 C2983 1.327 . S
C2985 C3001 1.429 . S
C2985 H3007 0.950 . S
C2986 H2982 0.949 . S
C2986 C2994 1.574 . S
C2986 C3002 1.368 . S
H2987 C2995 0.950 . S
H2988 C2993 0.950 . S
H2989 C2994 0.949 . S
H2990 C2996 0.950 . S
H2991 C2997 0.950 . S
H2992 C2998 0.949 . S
C2993 H2988 0.950 . S
C2993 C2995 1.327 . S
C2993 C2999 1.429 . S
C2994 C2986 1.574 . S
C2994 H2989 0.949 . S
C2994 C3000 1.368 . S
C2995 C2979 1.349 . S
C2995 H2987 0.950 . S
C2995 C2993 1.327 . S
C2996 C2984 1.349 . S
C2996 H2990 0.950 . S
C2996 C2997 1.327 . S
C2997 H2991 0.950 . S
C2997 C2996 1.327 . S
C2997 C3001 1.429 . S
C2998 C2981 1.574 . S
C2998 H2992 0.949 . S
C2998 C3002 1.368 . S
C2999 C2980 1.429 . S
C2999 C2993 1.429 . S
C2999 C3000 1.523 . S
C3000 C2981 1.368 . S
C3000 C2994 1.368 . S
C3000 C2999 1.523 . S
C3001 C2985 1.429 . S
C3001 C2997 1.429 . S
C3001 C3002 1.523 . S
C3002 C2986 1.368 . S
C3002 C2998 1.368 . S
C3002 C3001 1.523 . S
H3003 C2978 0.950 . S
H3004 C2980 0.950 . S
H3005 C2981 0.949 . S
H3006 C2983 0.950 . S
H3007 C2985 0.950 . S
C3008 C3009 1.349 . S
C3008 C3010 1.327 . S
C3008 H3033 0.950 . S
C3009 C3008 1.349 . S
C3009 C3025 1.349 . S
C3010 C3008 1.327 . S
C3010 C3029 1.429 . S
C3010 H3034 0.950 . S
C3011 C3028 1.574 . S
C3011 C3030 1.368 . S
C3011 H3035 0.949 . S
H3012 C3016 0.949 . S
C3013 C3014 1.349 . S
C3013 C3015 1.327 . S
C3013 H3036 0.950 . S
C3014 C3013 1.349 . S
C3014 C3026 1.349 . S
C3015 C3013 1.327 . S
C3015 C3031 1.429 . S
C3015 H3037 0.950 . S
C3016 H3012 0.949 . S
C3016 C3024 1.574 . S
C3016 C3032 1.368 . S
H3017 C3025 0.950 . S
H3018 C3023 0.950 . S
H3019 C3024 0.949 . S
H3020 C3026 0.950 . S
H3021 C3027 0.950 . S
H3022 C3028 0.949 . S
C3023 H3018 0.950 . S
C3023 C3025 1.327 . S
C3023 C3029 1.429 . S
C3024 C3016 1.574 . S
C3024 H3019 0.949 . S
C3024 C3030 1.368 . S
C3025 C3009 1.349 . S
C3025 H3017 0.950 . S
C3025 C3023 1.327 . S
C3026 C3014 1.349 . S
C3026 H3020 0.950 . S
C3026 C3027 1.327 . S
C3027 H3021 0.950 . S
C3027 C3026 1.327 . S
C3027 C3031 1.429 . S
C3028 C3011 1.574 . S
C3028 H3022 0.949 . S
C3028 C3032 1.368 . S
C3029 C3010 1.429 . S
C3029 C3023 1.429 . S
C3029 C3030 1.523 . S
C3030 C3011 1.368 . S
C3030 C3024 1.368 . S
C3030 C3029 1.523 . S
C3031 C3015 1.429 . S
C3031 C3027 1.429 . S
C3031 C3032 1.523 . S
C3032 C3016 1.368 . S
C3032 C3028 1.368 . S
C3032 C3031 1.523 . S
H3033 C3008 0.950 . S
H3034 C3010 0.950 . S
H3035 C3011 0.949 . S
H3036 C3013 0.950 . S
H3037 C3015 0.950 . S
C3038 C3039 1.349 . S
C3038 C3040 1.327 . S
C3038 H3063 0.950 . S
C3039 C3038 1.349 . S
C3039 C3055 1.349 . S
C3040 C3038 1.327 . S
C3040 C3059 1.429 . S
C3040 H3064 0.950 . S
C3041 C3058 1.574 1_655 S
C3041 C3060 1.368 . S
C3041 H3065 0.949 . S
H3042 C3046 0.949 . S
C3043 C3044 1.349 . S
C3043 C3045 1.327 . S
C3043 H3066 0.950 . S
C3044 C3043 1.349 . S
C3044 C3056 1.349 . S
C3045 C3043 1.327 . S
C3045 C3061 1.429 . S
C3045 H3067 0.950 . S
C3046 H3042 0.949 . S
C3046 C3054 1.574 1_455 S
C3046 C3062 1.368 . S
H3047 C3055 0.950 . S
H3048 C3053 0.950 . S
H3049 C3054 0.949 . S
H3050 C3056 0.950 . S
H3051 C3057 0.950 . S
H3052 C3058 0.949 . S
C3053 H3048 0.950 . S
C3053 C3055 1.327 . S
C3053 C3059 1.429 . S
C3054 C3046 1.574 1_655 S
C3054 H3049 0.949 . S
C3054 C3060 1.368 . S
C3055 C3039 1.349 . S
C3055 H3047 0.950 . S
C3055 C3053 1.327 . S
C3056 C3044 1.349 . S
C3056 H3050 0.950 . S
C3056 C3057 1.327 . S
C3057 H3051 0.950 . S
C3057 C3056 1.327 . S
C3057 C3061 1.429 . S
C3058 C3041 1.574 1_455 S
C3058 H3052 0.949 . S
C3058 C3062 1.368 . S
C3059 C3040 1.429 . S
C3059 C3053 1.429 . S
C3059 C3060 1.523 . S
C3060 C3041 1.368 . S
C3060 C3054 1.368 . S
C3060 C3059 1.523 . S
C3061 C3045 1.429 . S
C3061 C3057 1.429 . S
C3061 C3062 1.523 . S
C3062 C3046 1.368 . S
C3062 C3058 1.368 . S
C3062 C3061 1.523 . S
H3063 C3038 0.950 . S
H3064 C3040 0.950 . S
H3065 C3041 0.949 . S
H3066 C3043 0.950 . S
H3067 C3045 0.950 . S
C3068 C3069 1.349 . S
C3068 C3070 1.327 . S
C3068 H3093 0.950 . S
C3069 C3068 1.349 . S
C3069 C3085 1.349 . S
C3070 C3068 1.327 . S
C3070 C3089 1.429 . S
C3070 H3094 0.950 . S
C3071 C3088 1.574 . S
C3071 C3090 1.368 . S
C3071 H3095 0.949 . S
H3072 C3076 0.949 . S
C3073 C3074 1.349 . S
C3073 C3075 1.327 . S
C3073 H3096 0.950 . S
C3074 C3073 1.349 . S
C3074 C3086 1.349 . S
C3075 C3073 1.327 . S
C3075 C3091 1.429 . S
C3075 H3097 0.950 . S
C3076 H3072 0.949 . S
C3076 C3084 1.574 . S
C3076 C3092 1.368 . S
H3077 C3085 0.950 . S
H3078 C3083 0.950 . S
H3079 C3084 0.949 . S
H3080 C3086 0.950 . S
H3081 C3087 0.950 . S
H3082 C3088 0.949 . S
C3083 H3078 0.950 . S
C3083 C3085 1.327 . S
C3083 C3089 1.429 . S
C3084 C3076 1.574 . S
C3084 H3079 0.949 . S
C3084 C3090 1.368 . S
C3085 C3069 1.349 . S
C3085 H3077 0.950 . S
C3085 C3083 1.327 . S
C3086 C3074 1.349 . S
C3086 H3080 0.950 . S
C3086 C3087 1.327 . S
C3087 H3081 0.950 . S
C3087 C3086 1.327 . S
C3087 C3091 1.429 . S
C3088 C3071 1.574 . S
C3088 H3082 0.949 . S
C3088 C3092 1.368 . S
C3089 C3070 1.429 . S
C3089 C3083 1.429 . S
C3089 C3090 1.523 . S
C3090 C3071 1.368 . S
C3090 C3084 1.368 . S
C3090 C3089 1.523 . S
C3091 C3075 1.429 . S
C3091 C3087 1.429 . S
C3091 C3092 1.523 . S
C3092 C3076 1.368 . S
C3092 C3088 1.368 . S
C3092 C3091 1.523 . S
H3093 C3068 0.950 . S
H3094 C3070 0.950 . S
H3095 C3071 0.949 . S
H3096 C3073 0.950 . S
H3097 C3075 0.950 . S
C3098 C3099 1.349 . S
C3098 C3100 1.327 . S
C3098 H3123 0.950 . S
C3099 C3098 1.349 . S
C3099 C3115 1.349 . S
C3100 C3098 1.327 . S
C3100 C3119 1.429 . S
C3100 H3124 0.950 . S
C3101 C3118 1.574 . S
C3101 C3120 1.368 . S
C3101 H3125 0.949 . S
H3102 C3106 0.949 . S
C3103 C3104 1.349 . S
C3103 C3105 1.327 . S
C3103 H3126 0.950 . S
C3104 C3103 1.349 . S
C3104 C3116 1.349 . S
C3105 C3103 1.327 . S
C3105 C3121 1.429 . S
C3105 H3127 0.950 . S
C3106 H3102 0.949 . S
C3106 C3114 1.574 . S
C3106 C3122 1.368 . S
H3107 C3115 0.950 . S
H3108 C3113 0.950 . S
H3109 C3114 0.949 . S
H3110 C3116 0.950 . S
H3111 C3117 0.950 . S
H3112 C3118 0.949 . S
C3113 H3108 0.950 . S
C3113 C3115 1.327 . S
C3113 C3119 1.429 . S
C3114 C3106 1.574 . S
C3114 H3109 0.949 . S
C3114 C3120 1.368 . S
C3115 C3099 1.349 . S
C3115 H3107 0.950 . S
C3115 C3113 1.327 . S
C3116 C3104 1.349 . S
C3116 H3110 0.950 . S
C3116 C3117 1.327 . S
C3117 H3111 0.950 . S
C3117 C3116 1.327 . S
C3117 C3121 1.429 . S
C3118 C3101 1.574 . S
C3118 H3112 0.949 . S
C3118 C3122 1.368 . S
C3119 C3100 1.429 . S
C3119 C3113 1.429 . S
C3119 C3120 1.523 . S
C3120 C3101 1.368 . S
C3120 C3114 1.368 . S
C3120 C3119 1.523 . S
C3121 C3105 1.429 . S
C3121 C3117 1.429 . S
C3121 C3122 1.523 . S
C3122 C3106 1.368 . S
C3122 C3118 1.368 . S
C3122 C3121 1.523 . S
H3123 C3098 0.950 . S
H3124 C3100 0.950 . S
H3125 C3101 0.949 . S
H3126 C3103 0.950 . S
H3127 C3105 0.950 . S
C3128 C3129 1.349 . S
C3128 C3130 1.327 . S
C3128 H3153 0.950 . S
C3129 C3128 1.349 . S
C3129 C3145 1.349 . S
C3130 C3128 1.327 . S
C3130 C3149 1.429 . S
C3130 H3154 0.950 . S
C3131 C3148 1.574 . S
C3131 C3150 1.368 . S
C3131 H3155 0.949 . S
H3132 C3136 0.949 . S
C3133 C3134 1.349 . S
C3133 C3135 1.327 . S
C3133 H3156 0.950 . S
C3134 C3133 1.349 . S
C3134 C3146 1.349 . S
C3135 C3133 1.327 . S
C3135 C3151 1.429 . S
C3135 H3157 0.950 . S
C3136 H3132 0.949 . S
C3136 C3144 1.574 . S
C3136 C3152 1.368 . S
H3137 C3145 0.950 . S
H3138 C3143 0.950 . S
H3139 C3144 0.949 . S
H3140 C3146 0.950 . S
H3141 C3147 0.950 . S
H3142 C3148 0.949 . S
C3143 H3138 0.950 . S
C3143 C3145 1.327 . S
C3143 C3149 1.429 . S
C3144 C3136 1.574 . S
C3144 H3139 0.949 . S
C3144 C3150 1.368 . S
C3145 C3129 1.349 . S
C3145 H3137 0.950 . S
C3145 C3143 1.327 . S
C3146 C3134 1.349 . S
C3146 H3140 0.950 . S
C3146 C3147 1.327 . S
C3147 H3141 0.950 . S
C3147 C3146 1.327 . S
C3147 C3151 1.429 . S
C3148 C3131 1.574 . S
C3148 H3142 0.949 . S
C3148 C3152 1.368 . S
C3149 C3130 1.429 . S
C3149 C3143 1.429 . S
C3149 C3150 1.523 . S
C3150 C3131 1.368 . S
C3150 C3144 1.368 . S
C3150 C3149 1.523 . S
C3151 C3135 1.429 . S
C3151 C3147 1.429 . S
C3151 C3152 1.523 . S
C3152 C3136 1.368 . S
C3152 C3148 1.368 . S
C3152 C3151 1.523 . S
H3153 C3128 0.950 . S
H3154 C3130 0.950 . S
H3155 C3131 0.949 . S
H3156 C3133 0.950 . S
H3157 C3135 0.950 . S
C3158 C3159 1.349 . S
C3158 C3160 1.327 . S
C3158 H3183 0.950 . S
C3159 C3158 1.349 . S
C3159 C3175 1.349 . S
C3160 C3158 1.327 . S
C3160 C3179 1.429 . S
C3160 H3184 0.950 . S
C3161 C3178 1.574 . S
C3161 C3180 1.368 . S
C3161 H3185 0.949 . S
H3162 C3166 0.949 . S
C3163 C3164 1.349 . S
C3163 C3165 1.327 . S
C3163 H3186 0.950 . S
C3164 C3163 1.349 . S
C3164 C3176 1.349 . S
C3165 C3163 1.327 . S
C3165 C3181 1.429 . S
C3165 H3187 0.950 . S
C3166 H3162 0.949 . S
C3166 C3174 1.574 . S
C3166 C3182 1.368 . S
H3167 C3175 0.950 . S
H3168 C3173 0.950 . S
H3169 C3174 0.949 . S
H3170 C3176 0.950 . S
H3171 C3177 0.950 . S
H3172 C3178 0.949 . S
C3173 H3168 0.950 . S
C3173 C3175 1.327 . S
C3173 C3179 1.429 . S
C3174 C3166 1.574 . S
C3174 H3169 0.949 . S
C3174 C3180 1.368 . S
C3175 C3159 1.349 . S
C3175 H3167 0.950 . S
C3175 C3173 1.327 . S
C3176 C3164 1.349 . S
C3176 H3170 0.950 . S
C3176 C3177 1.327 . S
C3177 H3171 0.950 . S
C3177 C3176 1.327 . S
C3177 C3181 1.429 . S
C3178 C3161 1.574 . S
C3178 H3172 0.949 . S
C3178 C3182 1.368 . S
C3179 C3160 1.429 . S
C3179 C3173 1.429 . S
C3179 C3180 1.523 . S
C3180 C3161 1.368 . S
C3180 C3174 1.368 . S
C3180 C3179 1.523 . S
C3181 C3165 1.429 . S
C3181 C3177 1.429 . S
C3181 C3182 1.523 . S
C3182 C3166 1.368 . S
C3182 C3178 1.368 . S
C3182 C3181 1.523 . S
H3183 C3158 0.950 . S
H3184 C3160 0.950 . S
H3185 C3161 0.949 . S
H3186 C3163 0.950 . S
H3187 C3165 0.950 . S
C3188 C3189 1.349 . S
C3188 C3190 1.327 . S
C3188 H3213 0.950 . S
C3189 C3188 1.349 . S
C3189 C3205 1.349 . S
C3190 C3188 1.327 . S
C3190 C3209 1.429 . S
C3190 H3214 0.950 . S
C3191 C3208 1.574 . S
C3191 C3210 1.368 . S
C3191 H3215 0.949 . S
H3192 C3196 0.949 . S
C3193 C3194 1.349 . S
C3193 C3195 1.327 . S
C3193 H3216 0.950 . S
C3194 C3193 1.349 . S
C3194 C3206 1.349 . S
C3195 C3193 1.327 . S
C3195 C3211 1.429 . S
C3195 H3217 0.950 . S
C3196 H3192 0.949 . S
C3196 C3204 1.574 . S
C3196 C3212 1.368 . S
H3197 C3205 0.950 . S
H3198 C3203 0.950 . S
H3199 C3204 0.949 . S
H3200 C3206 0.950 . S
H3201 C3207 0.950 . S
H3202 C3208 0.949 . S
C3203 H3198 0.950 . S
C3203 C3205 1.327 . S
C3203 C3209 1.429 . S
C3204 C3196 1.574 . S
C3204 H3199 0.949 . S
C3204 C3210 1.368 . S
C3205 C3189 1.349 . S
C3205 H3197 0.950 . S
C3205 C3203 1.327 . S
C3206 C3194 1.349 . S
C3206 H3200 0.950 . S
C3206 C3207 1.327 . S
C3207 H3201 0.950 . S
C3207 C3206 1.327 . S
C3207 C3211 1.429 . S
C3208 C3191 1.574 . S
C3208 H3202 0.949 . S
C3208 C3212 1.368 . S
C3209 C3190 1.429 . S
C3209 C3203 1.429 . S
C3209 C3210 1.523 . S
C3210 C3191 1.368 . S
C3210 C3204 1.368 . S
C3210 C3209 1.523 . S
C3211 C3195 1.429 . S
C3211 C3207 1.429 . S
C3211 C3212 1.523 . S
C3212 C3196 1.368 . S
C3212 C3208 1.368 . S
C3212 C3211 1.523 . S
H3213 C3188 0.950 . S
H3214 C3190 0.950 . S
H3215 C3191 0.949 . S
H3216 C3193 0.950 . S
H3217 C3195 0.950 . S
C3218 C3219 1.349 . S
C3218 C3220 1.327 . S
C3218 H3243 0.950 . S
C3219 C3218 1.349 . S
C3219 C3235 1.349 . S
C3220 C3218 1.327 . S
C3220 C3239 1.429 . S
C3220 H3244 0.950 . S
C3221 C3238 1.574 1_455 S
C3221 C3240 1.368 . S
C3221 H3245 0.949 . S
H3222 C3226 0.949 . S
C3223 C3224 1.349 . S
C3223 C3225 1.327 . S
C3223 H3246 0.950 . S
C3224 C3223 1.349 . S
C3224 C3236 1.349 . S
C3225 C3223 1.327 . S
C3225 C3241 1.429 . S
C3225 H3247 0.950 . S
C3226 H3222 0.949 . S
C3226 C3234 1.574 1_655 S
C3226 C3242 1.368 . S
H3227 C3235 0.950 . S
H3228 C3233 0.950 . S
H3229 C3234 0.949 . S
H3230 C3236 0.950 . S
H3231 C3237 0.950 . S
H3232 C3238 0.949 . S
C3233 H3228 0.950 . S
C3233 C3235 1.327 . S
C3233 C3239 1.429 . S
C3234 C3226 1.574 1_455 S
C3234 H3229 0.949 . S
C3234 C3240 1.368 . S
C3235 C3219 1.349 . S
C3235 H3227 0.950 . S
C3235 C3233 1.327 . S
C3236 C3224 1.349 . S
C3236 H3230 0.950 . S
C3236 C3237 1.327 . S
C3237 H3231 0.950 . S
C3237 C3236 1.327 . S
C3237 C3241 1.429 . S
C3238 C3221 1.574 1_655 S
C3238 H3232 0.949 . S
C3238 C3242 1.368 . S
C3239 C3220 1.429 . S
C3239 C3233 1.429 . S
C3239 C3240 1.523 . S
C3240 C3221 1.368 . S
C3240 C3234 1.368 . S
C3240 C3239 1.523 . S
C3241 C3225 1.429 . S
C3241 C3237 1.429 . S
C3241 C3242 1.523 . S
C3242 C3226 1.368 . S
C3242 C3238 1.368 . S
C3242 C3241 1.523 . S
H3243 C3218 0.950 . S
H3244 C3220 0.950 . S
H3245 C3221 0.949 . S
H3246 C3223 0.950 . S
H3247 C3225 0.950 . S
C3248 C3249 1.349 . S
C3248 C3250 1.327 . S
C3248 H3273 0.950 . S
C3249 C3248 1.349 . S
C3249 C3265 1.349 . S
C3250 C3248 1.327 . S
C3250 C3269 1.429 . S
C3250 H3274 0.950 . S
C3251 C3268 1.574 . S
C3251 C3270 1.368 . S
C3251 H3275 0.949 . S
H3252 C3256 0.949 . S
C3253 C3254 1.349 . S
C3253 C3255 1.327 . S
C3253 H3276 0.950 . S
C3254 C3253 1.349 . S
C3254 C3266 1.349 . S
C3255 C3253 1.327 . S
C3255 C3271 1.429 . S
C3255 H3277 0.950 . S
C3256 H3252 0.949 . S
C3256 C3264 1.574 . S
C3256 C3272 1.368 . S
H3257 C3265 0.950 . S
H3258 C3263 0.950 . S
H3259 C3264 0.949 . S
H3260 C3266 0.950 . S
H3261 C3267 0.950 . S
H3262 C3268 0.949 . S
C3263 H3258 0.950 . S
C3263 C3265 1.327 . S
C3263 C3269 1.429 . S
C3264 C3256 1.574 . S
C3264 H3259 0.949 . S
C3264 C3270 1.368 . S
C3265 C3249 1.349 . S
C3265 H3257 0.950 . S
C3265 C3263 1.327 . S
C3266 C3254 1.349 . S
C3266 H3260 0.950 . S
C3266 C3267 1.327 . S
C3267 H3261 0.950 . S
C3267 C3266 1.327 . S
C3267 C3271 1.429 . S
C3268 C3251 1.574 . S
C3268 H3262 0.949 . S
C3268 C3272 1.368 . S
C3269 C3250 1.429 . S
C3269 C3263 1.429 . S
C3269 C3270 1.523 . S
C3270 C3251 1.368 . S
C3270 C3264 1.368 . S
C3270 C3269 1.523 . S
C3271 C3255 1.429 . S
C3271 C3267 1.429 . S
C3271 C3272 1.523 . S
C3272 C3256 1.368 . S
C3272 C3268 1.368 . S
C3272 C3271 1.523 . S
H3273 C3248 0.950 . S
H3274 C3250 0.950 . S
H3275 C3251 0.949 . S
H3276 C3253 0.950 . S
H3277 C3255 0.950 . S
C3278 C3279 1.349 . S
C3278 C3280 1.327 . S
C3278 H3303 0.950 . S
C3279 C3278 1.349 . S
C3279 C3295 1.349 . S
C3280 C3278 1.327 . S
C3280 C3299 1.429 . S
C3280 H3304 0.950 . S
C3281 C3298 1.574 . S
C3281 C3300 1.368 . S
C3281 H3305 0.949 . S
H3282 C3286 0.949 . S
C3283 C3284 1.349 . S
C3283 C3285 1.327 . S
C3283 H3306 0.950 . S
C3284 C3283 1.349 . S
C3284 C3296 1.349 . S
C3285 C3283 1.327 . S
C3285 C3301 1.429 . S
C3285 H3307 0.950 . S
C3286 H3282 0.949 . S
C3286 C3294 1.574 . S
C3286 C3302 1.368 . S
H3287 C3295 0.950 . S
H3288 C3293 0.950 . S
H3289 C3294 0.949 . S
H3290 C3296 0.950 . S
H3291 C3297 0.950 . S
H3292 C3298 0.949 . S
C3293 H3288 0.950 . S
C3293 C3295 1.327 . S
C3293 C3299 1.429 . S
C3294 C3286 1.574 . S
C3294 H3289 0.949 . S
C3294 C3300 1.368 . S
C3295 C3279 1.349 . S
C3295 H3287 0.950 . S
C3295 C3293 1.327 . S
C3296 C3284 1.349 . S
C3296 H3290 0.950 . S
C3296 C3297 1.327 . S
C3297 H3291 0.950 . S
C3297 C3296 1.327 . S
C3297 C3301 1.429 . S
C3298 C3281 1.574 . S
C3298 H3292 0.949 . S
C3298 C3302 1.368 . S
C3299 C3280 1.429 . S
C3299 C3293 1.429 . S
C3299 C3300 1.523 . S
C3300 C3281 1.368 . S
C3300 C3294 1.368 . S
C3300 C3299 1.523 . S
C3301 C3285 1.429 . S
C3301 C3297 1.429 . S
C3301 C3302 1.523 . S
C3302 C3286 1.368 . S
C3302 C3298 1.368 . S
C3302 C3301 1.523 . S
H3303 C3278 0.950 . S
H3304 C3280 0.950 . S
H3305 C3281 0.949 . S
H3306 C3283 0.950 . S
H3307 C3285 0.950 . S
C3308 C3309 1.349 . S
C3308 C3310 1.327 . S
C3308 H3333 0.950 . S
C3309 C3308 1.349 . S
C3309 C3325 1.349 . S
C3310 C3308 1.327 . S
C3310 C3329 1.429 . S
C3310 H3334 0.950 . S
C3311 C3328 1.574 . S
C3311 C3330 1.368 . S
C3311 H3335 0.949 . S
H3312 C3316 0.949 . S
C3313 C3314 1.349 . S
C3313 C3315 1.327 . S
C3313 H3336 0.950 . S
C3314 C3313 1.349 . S
C3314 C3326 1.349 . S
C3315 C3313 1.327 . S
C3315 C3331 1.429 . S
C3315 H3337 0.950 . S
C3316 H3312 0.949 . S
C3316 C3324 1.574 . S
C3316 C3332 1.368 . S
H3317 C3325 0.950 . S
H3318 C3323 0.950 . S
H3319 C3324 0.949 . S
H3320 C3326 0.950 . S
H3321 C3327 0.950 . S
H3322 C3328 0.949 . S
C3323 H3318 0.950 . S
C3323 C3325 1.327 . S
C3323 C3329 1.429 . S
C3324 C3316 1.574 . S
C3324 H3319 0.949 . S
C3324 C3330 1.368 . S
C3325 C3309 1.349 . S
C3325 H3317 0.950 . S
C3325 C3323 1.327 . S
C3326 C3314 1.349 . S
C3326 H3320 0.950 . S
C3326 C3327 1.327 . S
C3327 H3321 0.950 . S
C3327 C3326 1.327 . S
C3327 C3331 1.429 . S
C3328 C3311 1.574 . S
C3328 H3322 0.949 . S
C3328 C3332 1.368 . S
C3329 C3310 1.429 . S
C3329 C3323 1.429 . S
C3329 C3330 1.523 . S
C3330 C3311 1.368 . S
C3330 C3324 1.368 . S
C3330 C3329 1.523 . S
C3331 C3315 1.429 . S
C3331 C3327 1.429 . S
C3331 C3332 1.523 . S
C3332 C3316 1.368 . S
C3332 C3328 1.368 . S
C3332 C3331 1.523 . S
H3333 C3308 0.950 . S
H3334 C3310 0.950 . S
H3335 C3311 0.949 . S
H3336 C3313 0.950 . S
H3337 C3315 0.950 . S
C3338 C3339 1.349 . S
C3338 C3340 1.327 . S
C3338 H3363 0.950 . S
C3339 C3338 1.349 . S
C3339 C3355 1.349 . S
C3340 C3338 1.327 . S
C3340 C3359 1.429 . S
C3340 H3364 0.950 . S
C3341 C3358 1.574 . S
C3341 C3360 1.368 . S
C3341 H3365 0.949 . S
H3342 C3346 0.949 . S
C3343 C3344 1.349 . S
C3343 C3345 1.327 . S
C3343 H3366 0.950 . S
C3344 C3343 1.349 . S
C3344 C3356 1.349 . S
C3345 C3343 1.327 . S
C3345 C3361 1.429 . S
C3345 H3367 0.950 . S
C3346 H3342 0.949 . S
C3346 C3354 1.574 . S
C3346 C3362 1.368 . S
H3347 C3355 0.950 . S
H3348 C3353 0.950 . S
H3349 C3354 0.949 . S
H3350 C3356 0.950 . S
H3351 C3357 0.950 . S
H3352 C3358 0.949 . S
C3353 H3348 0.950 . S
C3353 C3355 1.327 . S
C3353 C3359 1.429 . S
C3354 C3346 1.574 . S
C3354 H3349 0.949 . S
C3354 C3360 1.368 . S
C3355 C3339 1.349 . S
C3355 H3347 0.950 . S
C3355 C3353 1.327 . S
C3356 C3344 1.349 . S
C3356 H3350 0.950 . S
C3356 C3357 1.327 . S
C3357 H3351 0.950 . S
C3357 C3356 1.327 . S
C3357 C3361 1.429 . S
C3358 C3341 1.574 . S
C3358 H3352 0.949 . S
C3358 C3362 1.368 . S
C3359 C3340 1.429 . S
C3359 C3353 1.429 . S
C3359 C3360 1.523 . S
C3360 C3341 1.368 . S
C3360 C3354 1.368 . S
C3360 C3359 1.523 . S
C3361 C3345 1.429 . S
C3361 C3357 1.429 . S
C3361 C3362 1.523 . S
C3362 C3346 1.368 . S
C3362 C3358 1.368 . S
C3362 C3361 1.523 . S
H3363 C3338 0.950 . S
H3364 C3340 0.950 . S
H3365 C3341 0.949 . S
H3366 C3343 0.950 . S
H3367 C3345 0.950 . S
C3368 C3369 1.349 . S
C3368 C3370 1.327 . S
C3368 H3393 0.950 . S
C3369 C3368 1.349 . S
C3369 C3385 1.349 . S
C3370 C3368 1.327 . S
C3370 C3389 1.429 . S
C3370 H3394 0.950 . S
C3371 C3388 1.574 . S
C3371 C3390 1.368 . S
C3371 H3395 0.949 . S
H3372 C3376 0.949 . S
C3373 C3374 1.349 . S
C3373 C3375 1.327 . S
C3373 H3396 0.950 . S
C3374 C3373 1.349 . S
C3374 C3386 1.349 . S
C3375 C3373 1.327 . S
C3375 C3391 1.429 . S
C3375 H3397 0.950 . S
C3376 H3372 0.949 . S
C3376 C3384 1.574 . S
C3376 C3392 1.368 . S
H3377 C3385 0.950 . S
H3378 C3383 0.950 . S
H3379 C3384 0.949 . S
H3380 C3386 0.950 . S
H3381 C3387 0.950 . S
H3382 C3388 0.949 . S
C3383 H3378 0.950 . S
C3383 C3385 1.327 . S
C3383 C3389 1.429 . S
C3384 C3376 1.574 . S
C3384 H3379 0.949 . S
C3384 C3390 1.368 . S
C3385 C3369 1.349 . S
C3385 H3377 0.950 . S
C3385 C3383 1.327 . S
C3386 C3374 1.349 . S
C3386 H3380 0.950 . S
C3386 C3387 1.327 . S
C3387 H3381 0.950 . S
C3387 C3386 1.327 . S
C3387 C3391 1.429 . S
C3388 C3371 1.574 . S
C3388 H3382 0.949 . S
C3388 C3392 1.368 . S
C3389 C3370 1.429 . S
C3389 C3383 1.429 . S
C3389 C3390 1.523 . S
C3390 C3371 1.368 . S
C3390 C3384 1.368 . S
C3390 C3389 1.523 . S
C3391 C3375 1.429 . S
C3391 C3387 1.429 . S
C3391 C3392 1.523 . S
C3392 C3376 1.368 . S
C3392 C3388 1.368 . S
C3392 C3391 1.523 . S
H3393 C3368 0.950 . S
H3394 C3370 0.950 . S
H3395 C3371 0.949 . S
H3396 C3373 0.950 . S
H3397 C3375 0.950 . S
C3398 C3399 1.349 . S
C3398 C3400 1.327 . S
C3398 H3423 0.950 . S
C3399 C3398 1.349 . S
C3399 C3415 1.349 . S
C3400 C3398 1.327 . S
C3400 C3419 1.429 . S
C3400 H3424 0.950 . S
C3401 C3418 1.574 1_455 S
C3401 C3420 1.368 . S
C3401 H3425 0.949 . S
H3402 C3406 0.949 . S
C3403 C3404 1.349 . S
C3403 C3405 1.327 . S
C3403 H3426 0.950 . S
C3404 C3403 1.349 . S
C3404 C3416 1.349 . S
C3405 C3403 1.327 . S
C3405 C3421 1.429 . S
C3405 H3427 0.950 . S
C3406 H3402 0.949 . S
C3406 C3414 1.574 1_655 S
C3406 C3422 1.368 . S
H3407 C3415 0.950 . S
H3408 C3413 0.950 . S
H3409 C3414 0.949 . S
H3410 C3416 0.950 . S
H3411 C3417 0.950 . S
H3412 C3418 0.949 . S
C3413 H3408 0.950 . S
C3413 C3415 1.327 . S
C3413 C3419 1.429 . S
C3414 C3406 1.574 1_455 S
C3414 H3409 0.949 . S
C3414 C3420 1.368 . S
C3415 C3399 1.349 . S
C3415 H3407 0.950 . S
C3415 C3413 1.327 . S
C3416 C3404 1.349 . S
C3416 H3410 0.950 . S
C3416 C3417 1.327 . S
C3417 H3411 0.950 . S
C3417 C3416 1.327 . S
C3417 C3421 1.429 . S
C3418 C3401 1.574 1_655 S
C3418 H3412 0.949 . S
C3418 C3422 1.368 . S
C3419 C3400 1.429 . S
C3419 C3413 1.429 . S
C3419 C3420 1.523 . S
C3420 C3401 1.368 . S
C3420 C3414 1.368 . S
C3420 C3419 1.523 . S
C3421 C3405 1.429 . S
C3421 C3417 1.429 . S
C3421 C3422 1.523 . S
C3422 C3406 1.368 . S
C3422 C3418 1.368 . S
C3422 C3421 1.523 . S
H3423 C3398 0.950 . S
H3424 C3400 0.950 . S
H3425 C3401 0.949 . S
H3426 C3403 0.950 . S
H3427 C3405 0.950 . S
C3428 C3429 1.349 . S
C3428 C3430 1.327 . S
C3428 H3453 0.950 . S
C3429 C3428 1.349 . S
C3429 C3445 1.349 . S
C3430 C3428 1.327 . S
C3430 C3449 1.429 . S
C3430 H3454 0.950 . S
C3431 C3448 1.574 1_455 S
C3431 C3450 1.368 . S
C3431 H3455 0.949 . S
H3432 C3436 0.949 . S
C3433 C3434 1.349 . S
C3433 C3435 1.327 . S
C3433 H3456 0.950 . S
C3434 C3433 1.349 . S
C3434 C3446 1.349 . S
C3435 C3433 1.327 . S
C3435 C3451 1.429 . S
C3435 H3457 0.950 . S
C3436 H3432 0.949 . S
C3436 C3444 1.574 1_655 S
C3436 C3452 1.368 . S
H3437 C3445 0.950 . S
H3438 C3443 0.950 . S
H3439 C3444 0.949 . S
H3440 C3446 0.950 . S
H3441 C3447 0.950 . S
H3442 C3448 0.949 . S
C3443 H3438 0.950 . S
C3443 C3445 1.327 . S
C3443 C3449 1.429 . S
C3444 C3436 1.574 1_455 S
C3444 H3439 0.949 . S
C3444 C3450 1.368 . S
C3445 C3429 1.349 . S
C3445 H3437 0.950 . S
C3445 C3443 1.327 . S
C3446 C3434 1.349 . S
C3446 H3440 0.950 . S
C3446 C3447 1.327 . S
C3447 H3441 0.950 . S
C3447 C3446 1.327 . S
C3447 C3451 1.429 . S
C3448 C3431 1.574 1_655 S
C3448 H3442 0.949 . S
C3448 C3452 1.368 . S
C3449 C3430 1.429 . S
C3449 C3443 1.429 . S
C3449 C3450 1.523 . S
C3450 C3431 1.368 . S
C3450 C3444 1.368 . S
C3450 C3449 1.523 . S
C3451 C3435 1.429 . S
C3451 C3447 1.429 . S
C3451 C3452 1.523 . S
C3452 C3436 1.368 . S
C3452 C3448 1.368 . S
C3452 C3451 1.523 . S
H3453 C3428 0.950 . S
H3454 C3430 0.950 . S
H3455 C3431 0.949 . S
H3456 C3433 0.950 . S
H3457 C3435 0.950 . S
C3458 C3459 1.349 . S
C3458 C3460 1.327 . S
C3458 H3483 0.950 . S
C3459 C3458 1.349 . S
C3459 C3475 1.349 . S
C3460 C3458 1.327 . S
C3460 C3479 1.429 . S
C3460 H3484 0.950 . S
C3461 C3478 1.574 . S
C3461 C3480 1.368 . S
C3461 H3485 0.949 . S
H3462 C3466 0.949 . S
C3463 C3464 1.349 . S
C3463 C3465 1.327 . S
C3463 H3486 0.950 . S
C3464 C3463 1.349 . S
C3464 C3476 1.349 . S
C3465 C3463 1.327 . S
C3465 C3481 1.429 . S
C3465 H3487 0.950 . S
C3466 H3462 0.949 . S
C3466 C3474 1.574 . S
C3466 C3482 1.368 . S
H3467 C3475 0.950 . S
H3468 C3473 0.950 . S
H3469 C3474 0.949 . S
H3470 C3476 0.950 . S
H3471 C3477 0.950 . S
H3472 C3478 0.949 . S
C3473 H3468 0.950 . S
C3473 C3475 1.327 . S
C3473 C3479 1.429 . S
C3474 C3466 1.574 . S
C3474 H3469 0.949 . S
C3474 C3480 1.368 . S
C3475 C3459 1.349 . S
C3475 H3467 0.950 . S
C3475 C3473 1.327 . S
C3476 C3464 1.349 . S
C3476 H3470 0.950 . S
C3476 C3477 1.327 . S
C3477 H3471 0.950 . S
C3477 C3476 1.327 . S
C3477 C3481 1.429 . S
C3478 C3461 1.574 . S
C3478 H3472 0.949 . S
C3478 C3482 1.368 . S
C3479 C3460 1.429 . S
C3479 C3473 1.429 . S
C3479 C3480 1.523 . S
C3480 C3461 1.368 . S
C3480 C3474 1.368 . S
C3480 C3479 1.523 . S
C3481 C3465 1.429 . S
C3481 C3477 1.429 . S
C3481 C3482 1.523 . S
C3482 C3466 1.368 . S
C3482 C3478 1.368 . S
C3482 C3481 1.523 . S
H3483 C3458 0.950 . S
H3484 C3460 0.950 . S
H3485 C3461 0.949 . S
H3486 C3463 0.950 . S
H3487 C3465 0.950 . S
C1089 C67 2.415 . S
C1094 C20 2.406 . S
C1119 C54 2.406 . S
C1124 C101 2.416 . S
C1149 C88 2.406 . S
C1154 C135 2.415 . S
C1179 C122 2.406 . S
C1184 C33 2.415 1_556 S
C1209 C156 2.406 . S
C1214 C271 2.415 . S
C1239 C169 2.415 1_554 S
C1244 C190 2.406 . S
C1269 C224 2.406 . S
C1274 C203 2.416 . S
C1299 C258 2.406 . S
C1304 C237 2.415 . S
C1329 C339 2.415 . S
C1334 C292 2.406 . S
C1359 C373 2.416 . S
C1364 C326 2.406 . S
C1389 C360 2.406 . S
C1394 C407 2.415 . S
C1419 C305 2.415 1_554 S
C1424 C394 2.406 . S
C1449 C428 2.406 . S
C1454 C543 2.415 . S
C1479 C462 2.406 . S
C1484 C441 2.415 1_556 S
C1509 C475 2.416 . S
C1514 C496 2.406 . S
C1539 C509 2.415 . S
C1544 C530 2.406 . S
C1569 C611 2.415 . S
C1574 C564 2.406 . S
C1599 C598 2.406 . S
C1604 C645 2.416 1_556 S
C1629 C679 2.415 . S
C1634 C632 2.406 . S
C1659 C577 2.415 . S
C1664 C666 2.406 . S
C1689 C815 2.415 . S
C1694 C700 2.406 . S
C1719 C734 2.406 . S
C1724 C713 2.415 . S
C1749 C747 2.416 . S
C1754 C768 2.406 . S
C1779 C802 2.406 . S
C1784 C781 2.415 1_554 S
C1809 C883 2.415 . S
C1814 C836 2.406 . S
C1839 C870 2.406 . S
C1844 C917 2.416 1_554 S
C1869 C904 2.406 . S
C1874 C951 2.415 . S
C1899 C938 2.406 . S
C1904 C849 2.415 . S
C1929 C1087 2.415 . S
C1934 C972 2.406 . S
C1959 C985 2.415 . S
C1964 C1006 2.406 . S
C1989 C1019 2.416 . S
C1994 C1040 2.406 . S
C2019 C1053 2.415 1_556 S
C2024 C1074 2.406 . S
C2049 C213 0.792 . S
C2054 C9 0.792 . S
C2079 C43 0.792 . S
C2084 C247 0.792 . S
C2109 C77 0.792 . S
C2114 C145 0.792 . S
C2139 C111 0.792 . S
C2144 C179 0.792 . S
C2169 C485 0.792 . S
C2174 C281 0.792 . S
C2199 C519 0.792 . S
C2204 C315 0.792 . S
C2229 C349 0.792 . S
C2234 C417 0.792 . S
C2259 C451 0.792 . S
C2264 C383 0.792 . S
C2289 C553 0.792 . S
C2294 C757 0.792 . S
C2319 C791 0.792 . S
C2324 C587 0.792 . S
C2349 C689 0.792 . S
C2354 C621 0.792 . S
C2379 C723 0.792 . S
C2384 C655 0.792 . S
C2409 C1029 0.792 . S
C2414 C825 0.792 . S
C2439 C1063 0.792 . S
C2444 C859 0.792 . S
C2469 C961 0.792 . S
C2474 C893 0.792 . S
C2499 C995 0.792 . S
C2504 C927 0.792 . S
C2529 C5 0.458 . S
C2534 C243 0.458 . S
C2559 C39 0.458 . S
C2564 C141 0.458 . S
C2589 C175 0.458 . S
C2594 C73 0.458 . S
C2619 C107 0.458 . S
C2624 C209 0.458 . S
C2649 C277 0.458 . S
C2654 C515 0.458 . S
C2679 C413 0.458 . S
C2684 C311 0.458 . S
C2709 C345 0.458 . S
C2714 C447 0.458 . S
C2739 C379 0.458 . S
C2744 C481 0.458 . S
C2769 C787 0.458 . S
C2774 C549 0.458 . S
C2799 C685 0.458 . S
C2804 C583 0.458 . S
C2829 C617 0.458 . S
C2834 C719 0.458 . S
C2859 C651 0.458 . S
C2864 C753 0.458 . S
C2889 C821 0.458 . S
C2894 C1059 0.458 . S
C2919 C957 0.458 . S
C2924 C855 0.458 . S
C2949 C889 0.458 . S
C2954 C991 0.458 . S
C2979 C923 0.458 . S
C2984 C1025 0.458 . S
C3009 C2 1.099 . S
C3014 C1022 1.099 . S
C3039 C512 1.099 . S
C3044 C36 1.099 . S
C3069 C954 1.099 . S
C3074 C70 1.099 . S
C3099 C104 1.099 . S
C3104 C444 1.099 . S
C3129 C138 1.099 . S
C3134 C886 1.099 . S
C3159 C376 1.099 . S
C3164 C172 1.099 . S
C3189 C206 1.099 . S
C3194 C818 1.099 . S
C3219 C240 1.099 . S
C3224 C308 1.099 . S
C3249 C274 1.099 . S
C3254 C750 1.099 . S
C3279 C342 1.099 . S
C3284 C682 1.099 . S
C3309 C410 1.099 . S
C3314 C614 1.099 . S
C3339 C478 1.099 . S
C3344 C546 1.099 . S
C3369 C580 1.099 . S
C3374 C1056 1.099 . S
C3399 C988 1.099 . S
C3404 C648 1.099 . S
C3429 C920 1.099 . S
C3434 C716 1.099 . S
C3459 C852 1.099 . S
C3464 C784 1.099 . S
