# Generated by pormake.
# Topology ull, (4)-cn, num edge types: 1
# Building blocks:
#     Node 0, Type 0, BuildingBlock: GALJAG_clean_sbu_0, # of connection points: 4
#     Node 1, Type 0, BuildingBlock: GALJAG_clean_sbu_0, # of connection points: 4
#     Node 2, Type 0, BuildingBlock: GALJAG_clean_sbu_0, # of connection points: 4
#     Node 3, Type 0, BuildingBlock: GALJAG_clean_sbu_0, # of connection points: 4
#     Node 4, Type 0, BuildingBlock: GALJAG_clean_sbu_0, # of connection points: 4
#     Node 5, Type 0, BuildingBlock: GALJAG_clean_sbu_0, # of connection points: 4
#     Node 6, Type 0, BuildingBlock: GALJAG_clean_sbu_0, # of connection points: 4
#     Node 7, Type 0, BuildingBlock: GALJAG_clean_sbu_0, # of connection points: 4
#     Node 8, Type 0, BuildingBlock: GALJAG_clean_sbu_0, # of connection points: 4
#     Node 9, Type 0, BuildingBlock: GALJAG_clean_sbu_0, # of connection points: 4
#     Node 10, Type 0, BuildingBlock: GALJAG_clean_sbu_0, # of connection points: 4
#     Node 11, Type 0, BuildingBlock: GALJAG_clean_sbu_0, # of connection points: 4
#     Node 12, Type 0, BuildingBlock: GALJAG_clean_sbu_0, # of connection points: 4
#     Node 13, Type 0, BuildingBlock: GALJAG_clean_sbu_0, # of connection points: 4
#     Node 14, Type 0, BuildingBlock: GALJAG_clean_sbu_0, # of connection points: 4
#     Node 15, Type 0, BuildingBlock: GALJAG_clean_sbu_0, # of connection points: 4
#     Node 16, Type 0, BuildingBlock: GALJAG_clean_sbu_0, # of connection points: 4
#     Node 17, Type 0, BuildingBlock: GALJAG_clean_sbu_0, # of connection points: 4
#     Node 18, Type 0, BuildingBlock: GALJAG_clean_sbu_0, # of connection points: 4
#     Node 19, Type 0, BuildingBlock: GALJAG_clean_sbu_0, # of connection points: 4
#     Node 20, Type 0, BuildingBlock: GALJAG_clean_sbu_0, # of connection points: 4
#     Node 21, Type 0, BuildingBlock: GALJAG_clean_sbu_0, # of connection points: 4
#     Node 22, Type 0, BuildingBlock: GALJAG_clean_sbu_0, # of connection points: 4
#     Node 23, Type 0, BuildingBlock: GALJAG_clean_sbu_0, # of connection points: 4
#     Node 24, Type 0, BuildingBlock: GALJAG_clean_sbu_0, # of connection points: 4
#     Node 25, Type 0, BuildingBlock: GALJAG_clean_sbu_0, # of connection points: 4
#     Node 26, Type 0, BuildingBlock: GALJAG_clean_sbu_0, # of connection points: 4
#     Node 27, Type 0, BuildingBlock: GALJAG_clean_sbu_0, # of connection points: 4
#     Node 28, Type 0, BuildingBlock: GALJAG_clean_sbu_0, # of connection points: 4
#     Node 29, Type 0, BuildingBlock: GALJAG_clean_sbu_0, # of connection points: 4
#     Node 30, Type 0, BuildingBlock: GALJAG_clean_sbu_0, # of connection points: 4
#     Node 31, Type 0, BuildingBlock: GALJAG_clean_sbu_0, # of connection points: 4
#     Node 32, Type 0, BuildingBlock: GALJAG_clean_sbu_0, # of connection points: 4
#     Node 33, Type 0, BuildingBlock: GALJAG_clean_sbu_0, # of connection points: 4
#     Node 34, Type 0, BuildingBlock: GALJAG_clean_sbu_0, # of connection points: 4
#     Node 35, Type 0, BuildingBlock: GALJAG_clean_sbu_0, # of connection points: 4
#     Node 36, Type 0, BuildingBlock: GALJAG_clean_sbu_0, # of connection points: 4
#     Node 37, Type 0, BuildingBlock: GALJAG_clean_sbu_0, # of connection points: 4
#     Node 38, Type 0, BuildingBlock: GALJAG_clean_sbu_0, # of connection points: 4
#     Node 39, Type 0, BuildingBlock: GALJAG_clean_sbu_0, # of connection points: 4
#     Node 40, Type 0, BuildingBlock: GALJAG_clean_sbu_0, # of connection points: 4
#     Node 41, Type 0, BuildingBlock: GALJAG_clean_sbu_0, # of connection points: 4
#     Node 42, Type 0, BuildingBlock: GALJAG_clean_sbu_0, # of connection points: 4
#     Node 43, Type 0, BuildingBlock: GALJAG_clean_sbu_0, # of connection points: 4
#     Node 44, Type 0, BuildingBlock: GALJAG_clean_sbu_0, # of connection points: 4
#     Node 45, Type 0, BuildingBlock: GALJAG_clean_sbu_0, # of connection points: 4
#     Node 46, Type 0, BuildingBlock: GALJAG_clean_sbu_0, # of connection points: 4
#     Node 47, Type 0, BuildingBlock: GALJAG_clean_sbu_0, # of connection points: 4
#     Edge 48, Type (0, 0), BuildingBlock: ZUJKAS_clean_linker_0, # of connection points: 2
#     Edge 49, Type (0, 0), BuildingBlock: ZUJKAS_clean_linker_0, # of connection points: 2
#     Edge 50, Type (0, 0), BuildingBlock: ZUJKAS_clean_linker_0, # of connection points: 2
#     Edge 51, Type (0, 0), BuildingBlock: ZUJKAS_clean_linker_0, # of connection points: 2
#     Edge 52, Type (0, 0), BuildingBlock: ZUJKAS_clean_linker_0, # of connection points: 2
#     Edge 53, Type (0, 0), BuildingBlock: ZUJKAS_clean_linker_0, # of connection points: 2
#     Edge 54, Type (0, 0), BuildingBlock: ZUJKAS_clean_linker_0, # of connection points: 2
#     Edge 55, Type (0, 0), BuildingBlock: ZUJKAS_clean_linker_0, # of connection points: 2
#     Edge 56, Type (0, 0), BuildingBlock: ZUJKAS_clean_linker_0, # of connection points: 2
#     Edge 57, Type (0, 0), BuildingBlock: ZUJKAS_clean_linker_0, # of connection points: 2
#     Edge 58, Type (0, 0), BuildingBlock: ZUJKAS_clean_linker_0, # of connection points: 2
#     Edge 59, Type (0, 0), BuildingBlock: ZUJKAS_clean_linker_0, # of connection points: 2
#     Edge 60, Type (0, 0), BuildingBlock: ZUJKAS_clean_linker_0, # of connection points: 2
#     Edge 61, Type (0, 0), BuildingBlock: ZUJKAS_clean_linker_0, # of connection points: 2
#     Edge 62, Type (0, 0), BuildingBlock: ZUJKAS_clean_linker_0, # of connection points: 2
#     Edge 63, Type (0, 0), BuildingBlock: ZUJKAS_clean_linker_0, # of connection points: 2
#     Edge 64, Type (0, 0), BuildingBlock: ZUJKAS_clean_linker_0, # of connection points: 2
#     Edge 65, Type (0, 0), BuildingBlock: ZUJKAS_clean_linker_0, # of connection points: 2
#     Edge 66, Type (0, 0), BuildingBlock: ZUJKAS_clean_linker_0, # of connection points: 2
#     Edge 67, Type (0, 0), BuildingBlock: ZUJKAS_clean_linker_0, # of connection points: 2
#     Edge 68, Type (0, 0), BuildingBlock: ZUJKAS_clean_linker_0, # of connection points: 2
#     Edge 69, Type (0, 0), BuildingBlock: ZUJKAS_clean_linker_0, # of connection points: 2
#     Edge 70, Type (0, 0), BuildingBlock: ZUJKAS_clean_linker_0, # of connection points: 2
#     Edge 71, Type (0, 0), BuildingBlock: ZUJKAS_clean_linker_0, # of connection points: 2
#     Edge 72, Type (0, 0), BuildingBlock: ZUJKAS_clean_linker_0, # of connection points: 2
#     Edge 73, Type (0, 0), BuildingBlock: ZUJKAS_clean_linker_0, # of connection points: 2
#     Edge 74, Type (0, 0), BuildingBlock: ZUJKAS_clean_linker_0, # of connection points: 2
#     Edge 75, Type (0, 0), BuildingBlock: ZUJKAS_clean_linker_0, # of connection points: 2
#     Edge 76, Type (0, 0), BuildingBlock: ZUJKAS_clean_linker_0, # of connection points: 2
#     Edge 77, Type (0, 0), BuildingBlock: ZUJKAS_clean_linker_0, # of connection points: 2
#     Edge 78, Type (0, 0), BuildingBlock: ZUJKAS_clean_linker_0, # of connection points: 2
#     Edge 79, Type (0, 0), BuildingBlock: ZUJKAS_clean_linker_0, # of connection points: 2
#     Edge 80, Type (0, 0), BuildingBlock: ZUJKAS_clean_linker_0, # of connection points: 2
#     Edge 81, Type (0, 0), BuildingBlock: ZUJKAS_clean_linker_0, # of connection points: 2
#     Edge 82, Type (0, 0), BuildingBlock: ZUJKAS_clean_linker_0, # of connection points: 2
#     Edge 83, Type (0, 0), BuildingBlock: ZUJKAS_clean_linker_0, # of connection points: 2
#     Edge 84, Type (0, 0), BuildingBlock: ZUJKAS_clean_linker_0, # of connection points: 2
#     Edge 85, Type (0, 0), BuildingBlock: ZUJKAS_clean_linker_0, # of connection points: 2
#     Edge 86, Type (0, 0), BuildingBlock: ZUJKAS_clean_linker_0, # of connection points: 2
#     Edge 87, Type (0, 0), BuildingBlock: ZUJKAS_clean_linker_0, # of connection points: 2
#     Edge 88, Type (0, 0), BuildingBlock: ZUJKAS_clean_linker_0, # of connection points: 2
#     Edge 89, Type (0, 0), BuildingBlock: ZUJKAS_clean_linker_0, # of connection points: 2
#     Edge 90, Type (0, 0), BuildingBlock: ZUJKAS_clean_linker_0, # of connection points: 2
#     Edge 91, Type (0, 0), BuildingBlock: ZUJKAS_clean_linker_0, # of connection points: 2
#     Edge 92, Type (0, 0), BuildingBlock: ZUJKAS_clean_linker_0, # of connection points: 2
#     Edge 93, Type (0, 0), BuildingBlock: ZUJKAS_clean_linker_0, # of connection points: 2
#     Edge 94, Type (0, 0), BuildingBlock: ZUJKAS_clean_linker_0, # of connection points: 2
#     Edge 95, Type (0, 0), BuildingBlock: ZUJKAS_clean_linker_0, # of connection points: 2
#     Edge 96, Type (0, 0), BuildingBlock: ZUJKAS_clean_linker_0, # of connection points: 2
#     Edge 97, Type (0, 0), BuildingBlock: ZUJKAS_clean_linker_0, # of connection points: 2
#     Edge 98, Type (0, 0), BuildingBlock: ZUJKAS_clean_linker_0, # of connection points: 2
#     Edge 99, Type (0, 0), BuildingBlock: ZUJKAS_clean_linker_0, # of connection points: 2
#     Edge 100, Type (0, 0), BuildingBlock: ZUJKAS_clean_linker_0, # of connection points: 2
#     Edge 101, Type (0, 0), BuildingBlock: ZUJKAS_clean_linker_0, # of connection points: 2
#     Edge 102, Type (0, 0), BuildingBlock: ZUJKAS_clean_linker_0, # of connection points: 2
#     Edge 103, Type (0, 0), BuildingBlock: ZUJKAS_clean_linker_0, # of connection points: 2
#     Edge 104, Type (0, 0), BuildingBlock: ZUJKAS_clean_linker_0, # of connection points: 2
#     Edge 105, Type (0, 0), BuildingBlock: ZUJKAS_clean_linker_0, # of connection points: 2
#     Edge 106, Type (0, 0), BuildingBlock: ZUJKAS_clean_linker_0, # of connection points: 2
#     Edge 107, Type (0, 0), BuildingBlock: ZUJKAS_clean_linker_0, # of connection points: 2
#     Edge 108, Type (0, 0), BuildingBlock: ZUJKAS_clean_linker_0, # of connection points: 2
#     Edge 109, Type (0, 0), BuildingBlock: ZUJKAS_clean_linker_0, # of connection points: 2
#     Edge 110, Type (0, 0), BuildingBlock: ZUJKAS_clean_linker_0, # of connection points: 2
#     Edge 111, Type (0, 0), BuildingBlock: ZUJKAS_clean_linker_0, # of connection points: 2
#     Edge 112, Type (0, 0), BuildingBlock: ZUJKAS_clean_linker_0, # of connection points: 2
#     Edge 113, Type (0, 0), BuildingBlock: ZUJKAS_clean_linker_0, # of connection points: 2
#     Edge 114, Type (0, 0), BuildingBlock: ZUJKAS_clean_linker_0, # of connection points: 2
#     Edge 115, Type (0, 0), BuildingBlock: ZUJKAS_clean_linker_0, # of connection points: 2
#     Edge 116, Type (0, 0), BuildingBlock: ZUJKAS_clean_linker_0, # of connection points: 2
#     Edge 117, Type (0, 0), BuildingBlock: ZUJKAS_clean_linker_0, # of connection points: 2
#     Edge 118, Type (0, 0), BuildingBlock: ZUJKAS_clean_linker_0, # of connection points: 2
#     Edge 119, Type (0, 0), BuildingBlock: ZUJKAS_clean_linker_0, # of connection points: 2
#     Edge 120, Type (0, 0), BuildingBlock: ZUJKAS_clean_linker_0, # of connection points: 2
#     Edge 121, Type (0, 0), BuildingBlock: ZUJKAS_clean_linker_0, # of connection points: 2
#     Edge 122, Type (0, 0), BuildingBlock: ZUJKAS_clean_linker_0, # of connection points: 2
#     Edge 123, Type (0, 0), BuildingBlock: ZUJKAS_clean_linker_0, # of connection points: 2
#     Edge 124, Type (0, 0), BuildingBlock: ZUJKAS_clean_linker_0, # of connection points: 2
#     Edge 125, Type (0, 0), BuildingBlock: ZUJKAS_clean_linker_0, # of connection points: 2
#     Edge 126, Type (0, 0), BuildingBlock: ZUJKAS_clean_linker_0, # of connection points: 2
#     Edge 127, Type (0, 0), BuildingBlock: ZUJKAS_clean_linker_0, # of connection points: 2
#     Edge 128, Type (0, 0), BuildingBlock: ZUJKAS_clean_linker_0, # of connection points: 2
#     Edge 129, Type (0, 0), BuildingBlock: ZUJKAS_clean_linker_0, # of connection points: 2
#     Edge 130, Type (0, 0), BuildingBlock: ZUJKAS_clean_linker_0, # of connection points: 2
#     Edge 131, Type (0, 0), BuildingBlock: ZUJKAS_clean_linker_0, # of connection points: 2
#     Edge 132, Type (0, 0), BuildingBlock: ZUJKAS_clean_linker_0, # of connection points: 2
#     Edge 133, Type (0, 0), BuildingBlock: ZUJKAS_clean_linker_0, # of connection points: 2
#     Edge 134, Type (0, 0), BuildingBlock: ZUJKAS_clean_linker_0, # of connection points: 2
#     Edge 135, Type (0, 0), BuildingBlock: ZUJKAS_clean_linker_0, # of connection points: 2
#     Edge 136, Type (0, 0), BuildingBlock: ZUJKAS_clean_linker_0, # of connection points: 2
#     Edge 137, Type (0, 0), BuildingBlock: ZUJKAS_clean_linker_0, # of connection points: 2
#     Edge 138, Type (0, 0), BuildingBlock: ZUJKAS_clean_linker_0, # of connection points: 2
#     Edge 139, Type (0, 0), BuildingBlock: ZUJKAS_clean_linker_0, # of connection points: 2
#     Edge 140, Type (0, 0), BuildingBlock: ZUJKAS_clean_linker_0, # of connection points: 2
#     Edge 141, Type (0, 0), BuildingBlock: ZUJKAS_clean_linker_0, # of connection points: 2
#     Edge 142, Type (0, 0), BuildingBlock: ZUJKAS_clean_linker_0, # of connection points: 2
#     Edge 143, Type (0, 0), BuildingBlock: ZUJKAS_clean_linker_0, # of connection points: 2
# Relax obj value: 0.015
# Max RMSD: 0.045
# Mean RMSD: 0.045
data_MOF--net-ull--node1-GALJAG_clean_sbu_0--edge1-ZUJKAS_clean_linker_0
_symmetry_space_group_name_H-M    P1
_symmetry_Int_Tables_number       1
_symmetry_cell_setting            triclinic
loop_
_symmetry_equiv_pos_as_xyz
'x, y, z'
_cell_length_a     80.033109
_cell_length_b     80.028597
_cell_length_c     80.035999
_cell_angle_alpha  90.00145
_cell_angle_beta   90.00101
_cell_angle_gamma 90.004426
loop_
_atom_site_label
_atom_site_type_symbol
_atom_site_fract_x
_atom_site_fract_y
_atom_site_fract_z
_atom_type_partial_charge
In0 In 0.02321 0.34264 0.17229 0.0
O1 O 0.02921 0.31758 0.1846 0.0
O2 O 0.00757 0.33066 0.19276 0.0
C3 C 0.04556 0.34277 0.14703 0.0
C4 C 0.03613 0.36544 0.19347 0.0
C5 C 0.99468 0.34402 0.15441 0.0
O6 O 0.04165 0.32959 0.15478 0.0
O7 O 0.03822 0.35578 0.15203 0.0
O8 O -0.00015 0.35627 0.16293 0.0
O9 O 0.00389 0.33125 0.15495 0.0
C10 C 0.0167 0.31789 0.19421 0.0
O11 O 0.02217 0.36757 0.1864 0.0
O12 O 0.04334 0.3519 0.1899 0.0
In13 In 0.65671 0.02288 0.1714 0.0
O14 O 0.63273 0.0225 0.18702 0.0
O15 O 0.64805 0.0442 0.18793 0.0
C16 C 0.65424 0.9936 0.15479 0.0
C17 C 0.68194 0.01685 0.19286 0.0
C18 C 0.65653 0.04486 0.14581 0.0
O19 O 0.64181 0.00037 0.16175 0.0
O20 O 0.66775 0.00154 0.15631 0.0
O21 O 0.66942 0.04202 0.15442 0.0
O22 O 0.6438 0.03662 0.15009 0.0
C23 C 0.63496 0.03697 0.19292 0.0
O24 O 0.68349 0.02653 0.18049 0.0
O25 O 0.6677 0.01025 0.19436 0.0
In26 In 0.97644 0.65621 0.17313 0.0
O27 O 0.97273 0.68276 0.18288 0.0
O28 O 0.99032 0.66725 0.19537 0.0
C29 C 0.95415 0.65618 0.14782 0.0
C30 C 0.96295 0.63301 0.19362 0.0
C31 C 0.00531 0.65512 0.15585 0.0
O32 O 0.95419 0.66729 0.15902 0.0
O33 O 0.96536 0.64523 0.14935 0.0
O34 O -0.00024 0.64264 0.16379 0.0
O35 O 0.99634 0.66805 0.15674 0.0
C36 C 0.98325 0.68132 0.19455 0.0
O37 O 0.97722 0.63114 0.18716 0.0
O38 O 0.95572 0.64644 0.18976 0.0
In39 In 0.34443 0.97712 0.17261 0.0
O40 O 0.36896 0.9783 0.18748 0.0
O41 O 0.3536 0.95678 0.19 0.0
C42 C 0.34535 0.00561 0.15466 0.0
C43 C 0.31885 0.98329 0.19369 0.0
C44 C 0.34603 0.95472 0.14749 0.0
O45 O 0.35717 0.00133 0.16422 0.0
O46 O 0.3332 0.99559 0.15429 0.0
O47 O 0.33307 0.95666 0.1563 0.0
O48 O 0.35811 0.96407 0.15138 0.0
C49 C 0.36686 0.96417 0.19421 0.0
O50 O 0.31841 0.97168 0.18303 0.0
O51 O 0.33212 0.9918 0.19364 0.0
In52 In 0.02133 0.65478 0.82631 0.0
O53 O 0.02048 0.6299 0.81205 0.0
O54 O 0.04102 0.64619 0.80786 0.0
C55 C 0.99301 0.65347 0.84448 0.0
C56 C 0.01434 0.68035 0.80548 0.0
C57 C 0.04404 0.6536 0.85121 0.0
O58 O 0.99719 0.64188 0.83459 0.0
O59 O 0.00308 0.66558 0.8451 0.0
O60 O 0.04164 0.66656 0.84255 0.0
O61 O 0.03505 0.64126 0.84725 0.0
C62 C 0.03403 0.63251 0.80439 0.0
O63 O 0.02648 0.68073 0.81554 0.0
O64 O 0.00576 0.66714 0.80599 0.0
In65 In 0.34504 0.02299 0.827 0.0
O66 O 0.31827 0.02642 0.81774 0.0
O67 O 0.33442 0.01069 0.80366 0.0
C68 C 0.34534 0.04488 0.85267 0.0
C69 C 0.36799 0.03696 0.80665 0.0
C70 C 0.3463 0.99373 0.8437 0.0
O71 O 0.33328 0.04391 0.84254 0.0
O72 O 0.35711 0.03478 0.84987 0.0
O73 O 0.3589 -0.00024 0.83636 0.0
O74 O 0.3332 0.00239 0.84249 0.0
C75 C 0.32005 0.01699 0.80521 0.0
O76 O 0.36955 0.02226 0.81217 0.0
O77 O 0.35493 0.04441 0.81133 0.0
In78 In 0.97632 0.34361 0.82756 0.0
O79 O 0.97233 0.31696 0.81808 0.0
O80 O 0.99069 0.33189 0.80603 0.0
C81 C 0.9534 0.34509 0.85222 0.0
C82 C 0.96276 0.36541 0.80576 0.0
C83 C 0.00484 0.34565 0.84544 0.0
O84 O 0.9565 0.33178 0.84434 0.0
O85 O 0.96184 0.3576 0.84764 0.0
O86 O 0.00064 0.35678 0.83507 0.0
O87 O 0.99472 0.33366 0.84669 0.0
C88 C 0.98328 0.318 0.80677 0.0
O89 O 0.97628 0.36846 0.81333 0.0
O90 O 0.95625 0.35147 0.8092 0.0
In91 In 0.65596 0.97547 0.82717 0.0
O92 O 0.68156 0.97006 0.81574 0.0
O93 O 0.66827 0.99137 0.80709 0.0
C94 C 0.65471 0.95248 0.85177 0.0
C95 C 0.63364 0.9625 0.80553 0.0
C96 C 0.6545 0.00358 0.84569 0.0
O97 O 0.66814 0.95619 0.84436 0.0
O98 O 0.64201 0.96036 0.84677 0.0
O99 O 0.64315 -0.00027 0.8354 0.0
O100 O 0.66639 0.99329 0.84654 0.0
C101 C 0.68127 0.98252 0.80607 0.0
O102 O 0.63084 0.97593 0.81335 0.0
O103 O 0.64762 0.95589 0.80856 0.0
In104 In 0.17153 0.0227 0.34246 0.0
O105 O 0.18556 0.0225 0.36745 0.0
O106 O 0.18967 0.04278 0.35079 0.0
C107 C 0.15306 0.99465 0.34517 0.0
C108 C 0.19265 0.01536 0.31719 0.0
C109 C 0.14681 0.0456 0.34287 0.0
O110 O 0.1636 0.99885 0.35615 0.0
O111 O 0.15194 0.00454 0.33297 0.0
O112 O 0.15408 0.04126 0.32955 0.0
O113 O 0.152 0.03838 0.35589 0.0
C114 C 0.19298 0.03617 0.3647 0.0
O115 O 0.18312 0.02792 0.31687 0.0
O116 O 0.19147 0.00654 0.33019 0.0
In117 In 0.97615 0.17256 0.3448 0.0
O118 O 0.97216 0.18262 0.3184 0.0
O119 O 0.99024 0.19463 0.33373 0.0
C120 C 0.95357 0.1475 0.3451 0.0
C121 C 0.96337 0.1933 0.36816 0.0
C122 C 0.0049 0.15508 0.34525 0.0
O123 O 0.95371 0.15861 0.33391 0.0
O124 O 0.9648 0.14903 0.35604 0.0
O125 O -0.00024 0.16317 0.35781 0.0
O126 O 0.99557 0.1559 0.33257 0.0
C127 C 0.98292 0.19408 0.31978 0.0
O128 O 0.97731 0.18616 0.37007 0.0
O129 O 0.95607 0.18992 0.35464 0.0
In130 In 0.82633 0.97661 0.34403 0.0
O131 O 0.81413 0.97608 0.36995 0.0
O132 O 0.80719 0.95747 0.35231 0.0
C133 C 0.84451 0.00496 0.34581 0.0
C134 C 0.80606 0.98376 0.31802 0.0
C135 C 0.85032 0.95303 0.3452 0.0
O136 O 0.83185 0.00256 0.35492 0.0
O137 O 0.84786 0.99317 0.33593 0.0
O138 O 0.84134 0.95533 0.33241 0.0
O139 O 0.84709 0.96256 0.35736 0.0
C140 C 0.80538 0.96332 0.36683 0.0
O141 O 0.81791 0.97341 0.31688 0.0
O142 O 0.80454 0.99049 0.33219 0.0
In143 In 0.02204 0.8272 0.3448 0.0
O144 O 0.02792 0.8162 0.3191 0.0
O145 O 0.00621 0.80754 0.33176 0.0
C146 C 0.04512 0.85173 0.3466 0.0
C147 C 0.03392 0.80522 0.36745 0.0
C148 C 0.99365 0.84531 0.34547 0.0
O149 O 0.04272 0.84333 0.33346 0.0
O150 O 0.03593 0.84771 0.35875 0.0
O151 O 0.99706 0.83459 0.35656 0.0
O152 O 0.00454 0.84683 0.33418 0.0
C153 C 0.01535 0.80665 0.31895 0.0
O154 O 0.02135 0.8143 0.3704 0.0
O155 O 0.04031 0.80725 0.35321 0.0
In156 In 0.17345 0.97639 0.65612 0.0
O157 O 0.18278 0.97292 0.68289 0.0
O158 O 0.1965 0.98908 0.66688 0.0
C159 C 0.14812 0.95419 0.65495 0.0
C160 C 0.19379 0.96265 0.63305 0.0
C161 C 0.15617 0.00532 0.65531 0.0
O162 O 0.15802 0.95505 0.66722 0.0
O163 O 0.15101 0.96451 0.6434 0.0
O164 O 0.1652 0.00061 0.64325 0.0
O165 O 0.15602 0.99554 0.66766 0.0
C166 C 0.19512 0.98261 0.68119 0.0
O167 O 0.18764 0.97708 0.63124 0.0
O168 O 0.18973 0.95537 0.64643 0.0
In169 In 0.02401 0.1723 0.65683 0.0
O170 O 0.02317 0.18686 0.63219 0.0
O171 O 0.04474 0.18921 0.64752 0.0
C172 C 0.99472 0.15564 0.65559 0.0
C173 C 0.01778 0.19365 0.68214 0.0
C174 C 0.04637 0.14705 0.65586 0.0
O175 O 0.00042 0.16355 0.64318 0.0
O176 O 0.00373 0.15623 0.66849 0.0
O177 O 0.04566 0.15724 0.66787 0.0
O178 O 0.03581 0.14959 0.64445 0.0
C179 C 0.0374 0.19339 0.63422 0.0
O180 O 0.02673 0.18078 0.68397 0.0
O181 O 0.01202 0.19569 0.66761 0.0
In182 In 0.828 0.02351 0.65699 0.0
O183 O 0.8134 0.02229 0.63235 0.0
O184 O 0.81034 0.04365 0.64788 0.0
C185 C 0.84641 0.99532 0.65532 0.0
C186 C 0.80623 0.01683 0.68182 0.0
C187 C 0.85272 0.04646 0.65662 0.0
O188 O 0.83816 0.0007 0.64298 0.0
O189 O 0.84527 0.0041 0.66834 0.0
O190 O 0.84509 0.0425 0.66985 0.0
O191 O 0.84792 0.03882 0.64371 0.0
C192 C 0.80647 0.03633 0.63447 0.0
O193 O 0.81641 0.02887 0.6825 0.0
O194 O 0.80707 0.0082 0.66865 0.0
In195 In 0.97722 0.82725 0.65562 0.0
O196 O 0.97113 0.81581 0.68105 0.0
O197 O 0.99242 0.80667 0.66807 0.0
C198 C 0.95488 0.85248 0.65478 0.0
C199 C 0.96422 0.80576 0.63314 0.0
C200 C 0.00566 0.84529 0.65416 0.0
O201 O 0.95846 0.84477 0.66807 0.0
O202 O 0.96253 0.84743 0.64195 0.0
O203 O 0.00117 0.83576 0.6424 0.0
O204 O 0.99588 0.84559 0.66651 0.0
C205 C 0.98332 0.80579 0.68091 0.0
O206 O 0.97823 0.81269 0.63093 0.0
O207 O 0.95696 0.80969 0.64656 0.0
In208 In 0.34347 0.17283 0.02284 0.0
O209 O 0.31745 0.18346 0.02786 0.0
O210 O 0.33143 0.19369 0.00773 0.0
C211 C 0.34464 0.1478 0.04538 0.0
C212 C 0.36583 0.19442 0.03594 0.0
C213 C 0.34464 0.15469 0.99449 0.0
O214 O 0.3318 0.15673 0.04331 0.0
O215 O 0.35684 0.15154 0.03612 0.0
O216 O 0.35638 0.16434 0.99878 0.0
O217 O 0.33242 0.15433 0.00444 0.0
C218 C 0.31807 0.19395 0.01609 0.0
O219 O 0.36822 0.18736 0.02202 0.0
O220 O 0.35233 0.19054 0.04306 0.0
In221 In 0.34299 0.82775 0.97682 0.0
O222 O 0.31728 0.8167 0.97113 0.0
O223 O 0.3305 0.80726 0.99212 0.0
C224 C 0.3442 0.85275 0.95425 0.0
C225 C 0.3653 0.80628 0.96352 0.0
C226 C 0.34504 0.84593 0.00512 0.0
O227 O 0.33078 0.84527 0.95787 0.0
O228 O 0.35692 0.84762 0.96202 0.0
O229 O 0.35628 0.83568 0.00089 0.0
O230 O 0.33287 0.84685 0.99516 0.0
C231 C 0.3175 0.8066 0.98325 0.0
O232 O 0.36771 0.81325 0.97749 0.0
O233 O 0.35171 0.81007 0.95651 0.0
In234 In 0.17261 0.34439 0.97609 0.0
O235 O 0.18381 0.3187 0.97068 0.0
O236 O 0.19284 0.33211 0.9918 0.0
C237 C 0.14814 0.34593 0.95292 0.0
C238 C 0.19481 0.367 0.96455 0.0
C239 C 0.15398 0.34476 0.00414 0.0
O240 O 0.1568 0.33294 0.95519 0.0
O241 O 0.15187 0.35805 0.96227 0.0
O242 O 0.16272 0.35714 -0.0003 0.0
O243 O 0.1547 0.33234 0.99447 0.0
C244 C 0.19365 0.31903 0.98302 0.0
O245 O 0.18678 0.36926 0.97795 0.0
O246 O 0.19158 0.35348 0.95714 0.0
In247 In 0.65482 0.17253 0.97558 0.0
O248 O 0.63049 0.18761 0.97738 0.0
O249 O 0.64407 0.18818 0.95457 0.0
C250 C 0.65441 0.15512 0.00442 0.0
C251 C 0.67963 0.19464 0.98114 0.0
C252 C 0.65444 0.14675 0.95385 0.0
O253 O 0.64157 0.16239 0.99881 0.0
O254 O 0.66733 0.15675 0.99555 0.0
O255 O 0.66688 0.15635 0.95535 0.0
O256 O 0.6423 0.15017 0.9633 0.0
C257 C 0.63142 0.19306 0.96259 0.0
O258 O 0.6805 0.18361 0.96989 0.0
O259 O 0.66625 0.19452 0.98949 0.0
In260 In 0.82675 0.65565 0.97709 0.0
O261 O 0.81395 0.63001 0.97702 0.0
O262 O 0.80814 0.64713 0.95754 0.0
C263 C 0.84487 0.65415 0.00548 0.0
C264 C 0.8067 0.68189 0.98403 0.0
C265 C 0.85087 0.65387 0.9537 0.0
O266 O 0.83236 0.64483 0.00306 0.0
O267 O 0.84809 0.66408 0.9937 0.0
O268 O 0.84166 0.66659 0.9554 0.0
O269 O 0.84783 0.64209 0.96374 0.0
C270 C 0.80578 0.63286 0.96381 0.0
O271 O 0.81877 0.68294 0.97393 0.0
O272 O 0.80481 0.66768 0.99055 0.0
In273 In 0.65627 0.82671 0.02294 0.0
O274 O 0.68317 0.81814 0.02707 0.0
O275 O 0.66807 0.80421 0.01021 0.0
C276 C 0.65481 0.85229 0.04486 0.0
C277 C 0.63472 0.80488 0.03687 0.0
C278 C 0.65414 0.84334 0.99367 0.0
O279 O 0.66797 0.84392 0.04249 0.0
O280 O 0.64248 0.8478 0.03614 0.0
O281 O 0.64187 0.83554 -0.00022 0.0
O282 O 0.6673 0.84268 0.00227 0.0
C283 C 0.68214 0.80593 0.01713 0.0
O284 O 0.63262 0.81057 0.02229 0.0
O285 O 0.64761 0.81018 0.04424 0.0
In286 In 0.17091 0.65685 0.02222 0.0
O287 O 0.18484 0.63181 0.02138 0.0
O288 O 0.18917 0.64803 0.04197 0.0
C289 C 0.15232 0.65493 0.99417 0.0
C290 C 0.19213 0.68214 0.01522 0.0
C291 C 0.14636 0.65614 0.04532 0.0
O292 O 0.16262 0.64368 0.99819 0.0
O293 O 0.15148 0.66702 0.00424 0.0
O294 O 0.15389 0.66944 0.04138 0.0
O295 O 0.15121 0.64328 0.0376 0.0
C296 C 0.1924 0.63426 0.03503 0.0
O297 O 0.18246 0.68241 0.02767 0.0
O298 O 0.19105 0.66917 0.00633 0.0
In299 In 0.82712 0.34256 0.02314 0.0
O300 O 0.81521 0.31713 0.02841 0.0
O301 O 0.80748 0.33033 0.00667 0.0
C302 C 0.85176 0.34299 0.04619 0.0
C303 C 0.80467 0.36434 0.0356 0.0
C304 C 0.84548 0.34526 0.99502 0.0
O305 O 0.84495 0.3296 0.04138 0.0
O306 O 0.84611 0.35605 0.03943 0.0
O307 O 0.83661 0.35714 0.00043 0.0
O308 O 0.84506 0.33218 0.0038 0.0
C309 C 0.80598 0.31742 0.01561 0.0
O310 O 0.81263 0.36723 0.02228 0.0
O311 O 0.80806 0.35058 0.04248 0.0
In312 In 0.52229 0.84307 0.67185 0.0
O313 O 0.52149 0.86732 0.68705 0.0
O314 O 0.54327 0.85218 0.68857 0.0
C315 C 0.49323 0.84501 0.65481 0.0
C316 C 0.51625 0.81806 0.69361 0.0
C317 C 0.54455 0.84334 0.64649 0.0
O318 O 0.49949 0.85747 0.66219 0.0
O319 O 0.50158 0.83173 0.6561 0.0
O320 O 0.54156 0.83039 0.65498 0.0
O321 O 0.53631 0.85606 0.65077 0.0
C322 C 0.53588 0.8653 0.69321 0.0
O323 O 0.52653 0.81664 0.68173 0.0
O324 O 0.50905 0.83206 0.69448 0.0
In325 In 0.15603 0.52361 0.67228 0.0
O326 O 0.1306 0.52263 0.68553 0.0
O327 O 0.14533 0.5446 0.68795 0.0
C328 C 0.15623 0.49454 0.65531 0.0
C329 C 0.18057 0.51756 0.69458 0.0
C330 C 0.15567 0.54556 0.64673 0.0
O331 O 0.14372 0.49925 0.66373 0.0
O332 O 0.16851 0.50441 0.65563 0.0
O333 O 0.16662 0.54604 0.65809 0.0
O334 O 0.14502 0.53405 0.64829 0.0
C335 C 0.13195 0.53714 0.69161 0.0
O336 O 0.18264 0.527 0.68211 0.0
O337 O 0.16616 0.51128 0.69578 0.0
In338 In 0.475 0.15768 0.67169 0.0
O339 O 0.46927 0.18312 0.68328 0.0
O340 O 0.49133 0.17049 0.69108 0.0
C341 C 0.45162 0.15671 0.64736 0.0
C342 C 0.46349 0.13585 0.69462 0.0
C343 C 0.5029 0.15562 0.65292 0.0
O344 O 0.45623 0.1702 0.65411 0.0
O345 O 0.45871 0.14381 0.65294 0.0
O346 O 0.49763 0.14343 0.66146 0.0
O347 O 0.49413 0.16866 0.65391 0.0
C348 C 0.48215 0.18324 0.69242 0.0
O349 O 0.47676 0.13321 0.68648 0.0
O350 O 0.45619 0.14938 0.69116 0.0
In351 In 0.84273 0.47688 0.67216 0.0
O352 O 0.86707 0.47732 0.68729 0.0
O353 O 0.85159 0.45577 0.68881 0.0
C354 C 0.84501 0.50587 0.6551 0.0
C355 C 0.81771 0.48287 0.6939 0.0
C356 C 0.84292 0.45511 0.6464 0.0
O357 O 0.85725 0.4998 0.66302 0.0
O358 O 0.83179 0.49735 0.65587 0.0
O359 O 0.82971 0.45893 0.65413 0.0
O360 O 0.85592 0.46232 0.65162 0.0
C361 C 0.86488 0.4629 0.69336 0.0
O362 O 0.81708 0.47121 0.68329 0.0
O363 O 0.83093 0.49145 0.69353 0.0
In364 In 0.52292 0.15626 0.32691 0.0
O365 O 0.52277 0.13175 0.31206 0.0
O366 O 0.54367 0.14797 0.30954 0.0
C367 C 0.49396 0.15411 0.34403 0.0
C368 C 0.51673 0.18144 0.30541 0.0
C369 C 0.5449 0.15555 0.35248 0.0
O370 O 0.49967 0.14201 0.33565 0.0
O371 O 0.50282 0.16713 0.34368 0.0
O372 O 0.5413 0.16886 0.34481 0.0
O373 O 0.5374 0.14271 0.34728 0.0
C374 C 0.53684 0.13439 0.30539 0.0
O375 O 0.52825 0.18214 0.31617 0.0
O376 O 0.50835 0.16808 0.30555 0.0
In377 In 0.84341 0.5217 0.32698 0.0
O378 O 0.86788 0.52096 0.31211 0.0
O379 O 0.85228 0.54235 0.30976 0.0
C380 C 0.84462 0.49268 0.34408 0.0
C381 C 0.81821 0.51531 0.30557 0.0
C382 C 0.84479 0.54402 0.35224 0.0
O383 O 0.857 0.49817 0.33597 0.0
O384 O 0.83178 0.50177 0.34348 0.0
O385 O 0.83209 0.54252 0.34301 0.0
O386 O 0.85667 0.53429 0.34873 0.0
C387 C 0.86561 0.53511 0.30548 0.0
O388 O 0.81665 0.52532 0.31769 0.0
O389 O 0.83242 0.50859 0.30434 0.0
In390 In 0.4764 0.84286 0.32711 0.0
O391 O 0.47317 0.81543 0.31966 0.0
O392 O 0.489 0.83065 0.30475 0.0
C393 C 0.45307 0.84482 0.35127 0.0
C394 C 0.46324 0.86588 0.30632 0.0
C395 C 0.50517 0.84411 0.34469 0.0
O396 O 0.45456 0.83215 0.34196 0.0
O397 O 0.46331 0.85646 0.34833 0.0
O398 O 0.50269 0.85323 0.33204 0.0
O399 O 0.49322 0.83454 0.34835 0.0
C400 C 0.48271 0.81641 0.30714 0.0
O401 O 0.47635 0.86868 0.31467 0.0
O402 O 0.45702 0.85156 0.30841 0.0
In403 In 0.15533 0.47666 0.3268 0.0
O404 O 0.18066 0.4708 0.31503 0.0
O405 O 0.16747 0.49215 0.30629 0.0
C406 C 0.15491 0.45424 0.35201 0.0
C407 C 0.13306 0.46374 0.30504 0.0
C408 C 0.15393 0.50533 0.34444 0.0
O409 O 0.16806 0.45783 0.34408 0.0
O410 O 0.14203 0.46195 0.34723 0.0
O411 O 0.14169 0.50012 0.33592 0.0
O412 O 0.16667 0.49608 0.34404 0.0
C413 C 0.18035 0.48313 0.30518 0.0
O414 O 0.13054 0.47749 0.31238 0.0
O415 O 0.14665 0.45669 0.30874 0.0
In416 In 0.67193 0.52306 0.84386 0.0
O417 O 0.68596 0.52257 0.86884 0.0
O418 O 0.69123 0.54221 0.85175 0.0
C419 C 0.65349 0.49494 0.84614 0.0
C420 C 0.69251 0.51568 0.81819 0.0
C421 C 0.6474 0.54617 0.84479 0.0
O422 O 0.66409 0.49893 0.85714 0.0
O423 O 0.65225 0.50512 0.83417 0.0
O424 O 0.65468 0.54207 0.83141 0.0
O425 O 0.65255 0.53868 0.85766 0.0
C426 C 0.69426 0.53564 0.86574 0.0
O427 O 0.68321 0.52842 0.81817 0.0
O428 O 0.69136 0.5067 0.83109 0.0
In429 In 0.47613 0.67251 0.84389 0.0
O430 O 0.473 0.68185 0.81714 0.0
O431 O 0.48929 0.69537 0.83321 0.0
C432 C 0.45328 0.64767 0.84407 0.0
C433 C 0.46266 0.69379 0.86628 0.0
C434 C 0.50498 0.65507 0.84551 0.0
O435 O 0.45569 0.65688 0.8315 0.0
O436 O 0.4624 0.65097 0.85648 0.0
O437 O 0.49925 0.66296 0.85791 0.0
O438 O 0.49621 0.65606 0.83247 0.0
C439 C 0.48286 0.69405 0.81887 0.0
O440 O 0.47673 0.687 0.86859 0.0
O441 O 0.45555 0.68982 0.85278 0.0
In442 In 0.32664 0.47707 0.84444 0.0
O443 O 0.31762 0.47437 0.81748 0.0
O444 O 0.30201 0.48735 0.83461 0.0
C445 C 0.35245 0.4554 0.84308 0.0
C446 C 0.3079 0.46357 0.86904 0.0
C447 C 0.34258 0.50675 0.84527 0.0
O448 O 0.33996 0.45427 0.83351 0.0
O449 O 0.35197 0.46751 0.85314 0.0
O450 O 0.33707 0.49979 0.85833 0.0
O451 O 0.33991 0.4988 0.83193 0.0
C452 C 0.30414 0.48222 0.81986 0.0
O453 O 0.31207 0.4788 0.86911 0.0
O454 O 0.31317 0.45538 0.85668 0.0
In455 In 0.52263 0.32749 0.84347 0.0
O456 O 0.52797 0.31754 0.81721 0.0
O457 O 0.50696 0.30786 0.83024 0.0
C458 C 0.54625 0.3514 0.84563 0.0
C459 C 0.53442 0.30525 0.8659 0.0
C460 C 0.49451 0.34602 0.84449 0.0
O461 O 0.54363 0.34328 0.83235 0.0
O462 O 0.53704 0.34737 0.85778 0.0
O463 O 0.49685 0.33378 0.85419 0.0
O464 O 0.50631 0.34885 0.83445 0.0
C465 C 0.5157 0.30762 0.81714 0.0
O466 O 0.52231 0.31482 0.8692 0.0
O467 O 0.54042 0.30697 0.85144 0.0
In468 In 0.67222 0.47658 0.15519 0.0
O469 O 0.68723 0.47702 0.13082 0.0
O470 O 0.68709 0.45465 0.14516 0.0
C471 C 0.65648 0.50635 0.15373 0.0
C472 C 0.69416 0.48184 0.18024 0.0
C473 C 0.64595 0.45544 0.15463 0.0
O474 O 0.6639 0.50014 0.14127 0.0
O475 O 0.65712 0.4976 0.16682 0.0
O476 O 0.65599 0.45609 0.16678 0.0
O477 O 0.64913 0.46548 0.14292 0.0
C478 C 0.69216 0.46209 0.13222 0.0
O479 O 0.6812 0.47302 0.18208 0.0
O480 O 0.69603 0.48789 0.16581 0.0
In481 In 0.5234 0.67142 0.15737 0.0
O482 O 0.5244 0.68415 0.13174 0.0
O483 O 0.54223 0.69127 0.15011 0.0
C484 C 0.4953 0.65294 0.15441 0.0
C485 C 0.51594 0.69091 0.18388 0.0
C486 C 0.54757 0.64807 0.15583 0.0
O487 O 0.49744 0.66627 0.14626 0.0
O488 O 0.50724 0.64903 0.16387 0.0
O489 O 0.54381 0.65547 0.16927 0.0
O490 O 0.53912 0.65247 0.14325 0.0
C491 C 0.53684 0.69316 0.13543 0.0
O492 O 0.52662 0.67934 0.18467 0.0
O493 O 0.50904 0.69254 0.16982 0.0
In494 In 0.32577 0.5237 0.15465 0.0
O495 O 0.31546 0.52777 0.18096 0.0
O496 O 0.30374 0.50951 0.16562 0.0
C497 C 0.3512 0.54586 0.15442 0.0
C498 C 0.30504 0.53688 0.1315 0.0
C499 C 0.34304 0.49483 0.15424 0.0
O500 O 0.34029 0.54565 0.16582 0.0
O501 O 0.34927 0.53492 0.14324 0.0
O502 O 0.33529 0.50016 0.14155 0.0
O503 O 0.34202 0.50404 0.16699 0.0
C504 C 0.30413 0.51687 0.17955 0.0
O505 O 0.31176 0.52272 0.12959 0.0
O506 O 0.30886 0.5442 0.1449 0.0
In507 In 0.47523 0.32806 0.15653 0.0
O508 O 0.46988 0.31603 0.18187 0.0
O509 O 0.49185 0.30858 0.16894 0.0
C510 C 0.45188 0.35238 0.15623 0.0
C511 C 0.4627 0.30641 0.13393 0.0
C512 C 0.50298 0.34708 0.15457 0.0
O513 O 0.45612 0.34488 0.16945 0.0
O514 O 0.45936 0.34756 0.14323 0.0
O515 O 0.49917 0.33661 0.14338 0.0
O516 O 0.49285 0.34784 0.16661 0.0
C517 C 0.4828 0.30697 0.18174 0.0
O518 O 0.47588 0.31466 0.13119 0.0
O519 O 0.45608 0.30904 0.14798 0.0
In520 In 0.84462 0.67195 0.52242 0.0
O521 O 0.81907 0.68342 0.52798 0.0
O522 O 0.83179 0.69136 0.50606 0.0
C523 C 0.84574 0.64755 0.54564 0.0
C524 C 0.86685 0.69384 0.53518 0.0
C525 C 0.84652 0.65312 0.49454 0.0
O526 O 0.8323 0.65478 0.54162 0.0
O527 O 0.85853 0.65265 0.53797 0.0
O528 O 0.85746 0.66394 0.4981 0.0
O529 O 0.83479 0.6519 0.50499 0.0
C530 C 0.81899 0.69262 0.51517 0.0
O531 O 0.86978 0.68572 0.52196 0.0
O532 O 0.85278 0.69099 0.54168 0.0
In533 In 0.84263 0.32638 0.4768 0.0
O534 O 0.81746 0.31426 0.47089 0.0
O535 O 0.83075 0.30565 0.49221 0.0
C536 C 0.84307 0.35117 0.45395 0.0
C537 C 0.86561 0.30511 0.46438 0.0
C538 C 0.84391 0.34491 0.50491 0.0
O539 O 0.82985 0.34342 0.45773 0.0
O540 O 0.85593 0.34645 0.46172 0.0
O541 O 0.8563 0.33661 0.49975 0.0
O542 O 0.83101 0.34378 0.49595 0.0
C543 C 0.81789 0.30439 0.48319 0.0
O544 O 0.86717 0.31169 0.47865 0.0
O545 O 0.85251 0.30919 0.45663 0.0
In546 In 0.67227 0.84213 0.47625 0.0
O547 O 0.68741 0.86651 0.47791 0.0
O548 O 0.68851 0.85241 0.45547 0.0
C549 C 0.65457 0.84335 0.50487 0.0
C550 C 0.69366 0.81692 0.48278 0.0
C551 C 0.6473 0.84225 0.45357 0.0
O552 O 0.66197 0.856 0.49899 0.0
O553 O 0.6562 0.83018 0.49637 0.0
O554 O 0.65834 0.831 0.45394 0.0
O555 O 0.64879 0.85332 0.46469 0.0
C556 C 0.69331 0.86516 0.46333 0.0
O557 O 0.68191 0.81556 0.47233 0.0
O558 O 0.69451 0.83093 0.48997 0.0
In559 In 0.15516 0.6725 0.47559 0.0
O560 O 0.18057 0.684 0.46926 0.0
O561 O 0.16969 0.6899 0.49274 0.0
C562 C 0.15476 0.64943 0.45101 0.0
C563 C 0.13215 0.69472 0.46485 0.0
C564 C 0.15262 0.65333 0.50322 0.0
O565 O 0.16814 0.65582 0.45642 0.0
O566 O 0.14163 0.65482 0.45787 0.0
O567 O 0.14464 0.66685 0.50162 0.0
O568 O 0.16169 0.64955 0.49092 0.0
C569 C 0.1818 0.69189 0.48286 0.0
O570 O 0.12866 0.68339 0.47526 0.0
O571 O 0.14714 0.69482 0.46002 0.0
In572 In 0.32665 0.15626 0.47523 0.0
O573 O 0.31197 0.13169 0.47596 0.0
O574 O 0.30881 0.14771 0.45498 0.0
C575 C 0.34407 0.15485 0.50408 0.0
C576 C 0.30534 0.18154 0.48169 0.0
C577 C 0.35157 0.15503 0.45252 0.0
O578 O 0.33559 0.14263 0.49879 0.0
O579 O 0.34373 0.16759 0.49484 0.0
O580 O 0.34339 0.16821 0.45539 0.0
O581 O 0.34721 0.14257 0.46113 0.0
C582 C 0.30489 0.13418 0.46206 0.0
O583 O 0.31686 0.18273 0.47096 0.0
O584 O 0.30461 0.16763 0.48909 0.0
In585 In 0.15604 0.32764 0.52292 0.0
O586 O 0.18298 0.3187 0.52557 0.0
O587 O 0.1663 0.30386 0.51116 0.0
C588 C 0.15646 0.35333 0.54478 0.0
C589 C 0.13309 0.30746 0.53718 0.0
C590 C 0.15454 0.34413 0.49355 0.0
O591 O 0.16804 0.34264 0.54407 0.0
O592 O 0.14477 0.35107 0.53445 0.0
O593 O 0.14184 0.33735 0.50001 0.0
O594 O 0.16783 0.34246 0.50183 0.0
C595 C 0.18091 0.30577 0.51677 0.0
O596 O 0.13151 0.31279 0.52239 0.0
O597 O 0.14614 0.3123 0.54456 0.0
In598 In 0.67188 0.15429 0.52334 0.0
O599 O 0.68352 0.17976 0.52883 0.0
O600 O 0.69292 0.16589 0.50818 0.0
C601 C 0.64656 0.15394 0.54558 0.0
C602 C 0.69338 0.1319 0.53643 0.0
C603 C 0.65391 0.15317 0.49487 0.0
O604 O 0.65467 0.16705 0.54222 0.0
O605 O 0.65127 0.14109 0.53778 0.0
O606 O 0.66178 0.14059 0.50028 0.0
O607 O 0.65523 0.16611 0.50375 0.0
C608 C 0.69375 0.17906 0.51682 0.0
O609 O 0.68672 0.12977 0.52227 0.0
O610 O 0.68915 0.14518 0.54378 0.0
In611 In 0.32676 0.84253 0.52246 0.0
O612 O 0.31632 0.8165 0.5278 0.0
O613 O 0.30657 0.82983 0.50699 0.0
C614 C 0.3513 0.84408 0.54556 0.0
C615 C 0.30441 0.86441 0.53499 0.0
C616 C 0.34485 0.84441 0.49409 0.0
O617 O 0.34399 0.8306 0.54186 0.0
O618 O 0.3462 0.85672 0.53766 0.0
O619 O 0.33446 0.85557 0.49816 0.0
O620 O 0.34604 0.83247 0.50429 0.0
C621 C 0.30623 0.81667 0.51567 0.0
O622 O 0.31281 0.86753 0.52199 0.0
O623 O 0.30734 0.85037 0.54152 0.0
H624 H 0.13706 0.43501 0.28746 0.0
H625 H 0.11784 0.42247 0.26744 0.0
H626 H 0.08306 0.4629 0.27513 0.0
H627 H 0.10234 0.4756 0.29541 0.0
H628 H 0.06863 0.42997 0.27592 0.0
H629 H 0.10799 0.43952 0.21984 0.0
H630 H 0.11918 0.43002 0.2368 0.0
H631 H 0.11122 0.45093 0.23906 0.0
C632 C 0.12536 0.4413 0.28488 0.0
C633 C 0.12124 0.45634 0.29295 0.0
C634 C 0.11443 0.43416 0.27336 0.0
C635 C 0.09918 0.44192 0.2696 0.0
C636 C 0.09486 0.45682 0.27778 0.0
H637 H 0.02346 0.39576 0.20333 0.0
H638 H 0.03699 0.41649 0.22152 0.0
C639 C 0.10586 0.46404 0.28933 0.0
C640 C 0.08774 0.43399 0.25742 0.0
H641 H 0.08678 0.41835 0.21779 0.0
C642 C 0.07238 0.42771 0.26309 0.0
C643 C 0.09267 0.43117 0.2407 0.0
C644 C 0.10859 0.43841 0.23367 0.0
C645 C 0.06234 0.41767 0.25275 0.0
C646 C 0.0678 0.41403 0.23635 0.0
C647 C 0.0827 0.42109 0.23042 0.0
C648 C 0.05918 0.40163 0.2257 0.0
C649 C 0.04647 0.41023 0.25969 0.0
C650 C 0.06725 0.38654 0.22198 0.0
C651 C 0.05962 0.37476 0.21166 0.0
C652 C 0.04378 0.37788 0.20476 0.0
C653 C 0.03565 0.39301 0.20852 0.0
C654 C 0.04332 0.40482 0.21893 0.0
H655 H 0.04502 0.41268 0.27328 0.0
H656 H 0.03557 0.41569 0.25308 0.0
H657 H 0.04626 0.39652 0.25757 0.0
H658 H 0.0795 0.38387 0.22708 0.0
H659 H 0.06621 0.36325 0.209 0.0
H660 H 0.63833 0.06734 0.20773 0.0
H661 H 0.61953 0.08058 0.22775 0.0
H662 H 0.58658 0.03802 0.2253 0.0
H663 H 0.6054 0.02461 0.20507 0.0
H664 H 0.5705 0.07036 0.22279 0.0
H665 H 0.61331 0.06627 0.27707 0.0
H666 H 0.62287 0.07504 0.25877 0.0
H667 H 0.61592 0.05367 0.25852 0.0
C668 C 0.62711 0.06075 0.21145 0.0
C669 C 0.62337 0.0449 0.2049 0.0
C670 C 0.61642 0.06831 0.22295 0.0
C671 C 0.60183 0.06015 0.22818 0.0
C672 C 0.59787 0.04444 0.22149 0.0
H673 H 0.52563 0.1036 0.29531 0.0
H674 H 0.54003 0.08375 0.27684 0.0
C675 C 0.60862 0.03681 0.20997 0.0
C676 C 0.59068 0.06835 0.24044 0.0
H677 H 0.59062 0.0856 0.27941 0.0
C678 C 0.57472 0.07347 0.23528 0.0
C679 C 0.59627 0.07229 0.25672 0.0
C680 C 0.61297 0.0664 0.26319 0.0
C681 C 0.56457 0.08332 0.24569 0.0
C682 C 0.57051 0.08791 0.26169 0.0
C683 C 0.58615 0.08213 0.26709 0.0
C684 C 0.56138 0.09979 0.27253 0.0
C685 C 0.54797 0.08945 0.23921 0.0
C686 C 0.56871 0.11524 0.27634 0.0
C687 C 0.5606 0.12649 0.28688 0.0
C688 C 0.545 0.1225 0.29388 0.0
C689 C 0.53761 0.10703 0.29002 0.0
C690 C 0.54577 0.09572 0.27944 0.0
H691 H 0.5465 0.08714 0.2256 0.0
H692 H 0.53774 0.08285 0.24585 0.0
H693 H 0.54652 0.10304 0.24161 0.0
H694 H 0.58075 0.11859 0.27115 0.0
H695 H 0.56663 0.1383 0.28961 0.0
H696 H 0.93259 0.63525 0.20855 0.0
H697 H 0.91905 0.61481 0.22663 0.0
H698 H 0.96154 0.58203 0.22179 0.0
H699 H 0.97536 0.60264 0.20368 0.0
H700 H 0.91114 0.58107 0.21822 0.0
H701 H 0.95382 0.58571 0.27306 0.0
H702 H 0.95318 0.60154 0.25699 0.0
H703 H 0.9631 0.58186 0.25295 0.0
C704 C 0.93912 0.62373 0.21136 0.0
C705 C 0.95506 0.62055 0.20472 0.0
C706 C 0.93135 0.61206 0.22168 0.0
C707 C 0.93934 0.59699 0.22564 0.0
C708 C 0.95527 0.59371 0.21905 0.0
H709 H 0.89577 0.5228 0.29478 0.0
H710 H 0.9149 0.53562 0.27444 0.0
C711 C 0.9631 0.60544 0.20867 0.0
C712 C 0.93061 0.58476 0.23642 0.0
H713 H 0.93017 0.5685 0.27587 0.0
C714 C 0.9154 0.57814 0.23075 0.0
C715 C 0.93628 0.58089 0.2527 0.0
C716 C 0.95244 0.5879 0.25942 0.0
C717 C 0.90538 0.56825 0.24116 0.0
C718 C 0.9106 0.56513 0.25774 0.0
C719 C 0.92621 0.57099 0.26315 0.0
C720 C 0.89928 0.55723 0.27004 0.0
C721 C 0.8891 0.56152 0.23445 0.0
C722 C 0.88437 0.56531 0.27445 0.0
C723 C 0.87352 0.5581 0.28601 0.0
C724 C 0.87739 0.54267 0.29345 0.0
C725 C 0.89244 0.53467 0.28919 0.0
C726 C 0.90337 0.54196 0.27761 0.0
H727 H 0.88924 0.56076 0.22058 0.0
H728 H 0.88638 0.54893 0.2396 0.0
H729 H 0.87879 0.57003 0.23814 0.0
H730 H 0.88115 0.57726 0.26897 0.0
H731 H 0.86206 0.56462 0.28909 0.0
H732 H 0.47425 0.89753 0.29895 0.0
H733 H 0.46032 0.91834 0.28114 0.0
H734 H 0.42075 0.8832 0.27105 0.0
H735 H 0.43446 0.86247 0.28869 0.0
H736 H 0.44993 0.91474 0.24584 0.0
H737 H 0.39699 0.92604 0.28906 0.0
H738 H 0.41647 0.9168 0.29578 0.0
H739 H 0.40108 0.9043 0.28522 0.0
C740 C 0.46259 0.89427 0.2929 0.0
C741 C 0.45539 0.87841 0.29528 0.0
C742 C 0.45468 0.90615 0.28276 0.0
C743 C 0.43941 0.90235 0.27502 0.0
C744 C 0.43239 0.88644 0.27715 0.0
H745 H 0.36454 0.9338 0.20909 0.0
H746 H 0.38377 0.92122 0.22909 0.0
C747 C 0.44029 0.87459 0.28718 0.0
C748 C 0.43063 0.91478 0.26455 0.0
H749 H 0.39304 0.93446 0.26063 0.0
C750 C 0.43763 0.91937 0.24915 0.0
C751 C 0.41465 0.92081 0.26902 0.0
C752 C 0.40689 0.91688 0.28574 0.0
C753 C 0.42852 0.92894 0.23757 0.0
C754 C 0.41215 0.93417 0.24169 0.0
C755 C 0.40557 0.93034 0.25748 0.0
C756 C 0.40095 0.94209 0.22928 0.0
C757 C 0.43606 0.93257 0.22068 0.0
C758 C 0.40424 0.95805 0.22277 0.0
C759 C 0.39323 0.9653 0.21124 0.0
C760 C 0.37877 0.9567 0.20616 0.0
C761 C 0.37557 0.94075 0.21275 0.0
C762 C 0.38653 0.93354 0.2242 0.0
H763 H 0.44783 0.92551 0.21857 0.0
H764 H 0.42708 0.92941 0.21059 0.0
H765 H 0.4389 0.94611 0.21974 0.0
H766 H 0.41519 0.96494 0.22673 0.0
H767 H 0.39597 0.97764 0.20641 0.0
H768 H 0.10252 0.52351 0.7028 0.0
H769 H 0.08137 0.53704 0.72053 0.0
H770 H 0.1113 0.58182 0.72201 0.0
H771 H 0.13229 0.56855 0.70439 0.0
H772 H 0.08606 0.5512 0.75319 0.0
H773 H 0.06481 0.59858 0.70751 0.0
H774 H 0.07619 0.58006 0.70142 0.0
H775 H 0.08713 0.59793 0.70959 0.0
C776 C 0.10451 0.53626 0.70686 0.0
C777 C 0.11901 0.545 0.70216 0.0
C778 C 0.09244 0.54395 0.71696 0.0
C779 C 0.09466 0.56051 0.72231 0.0
C780 C 0.10919 0.56916 0.71772 0.0
H781 H 0.06258 0.63643 0.7865 0.0
H782 H 0.07483 0.61716 0.76631 0.0
C783 C 0.12122 0.56151 0.70773 0.0
C784 C 0.08225 0.5688 0.73322 0.0
H785 H 0.0592 0.60451 0.73644 0.0
C786 C 0.07986 0.56266 0.74947 0.0
C787 C 0.07415 0.58369 0.72825 0.0
C788 C 0.07555 0.59038 0.71068 0.0
C789 C 0.0705 0.57169 0.76127 0.0
C790 C 0.06326 0.58711 0.75656 0.0
C791 C 0.06487 0.59273 0.74004 0.0
C792 C 0.05549 0.59845 0.76892 0.0
C793 C 0.06925 0.56523 0.77893 0.0
C794 C 0.0405 0.59431 0.77703 0.0
C795 C 0.03343 0.60535 0.78863 0.0
C796 C 0.04128 0.62066 0.79224 0.0
C797 C 0.05625 0.62473 0.78402 0.0
C798 C 0.06325 0.61375 0.77246 0.0
H799 H 0.07744 0.55423 0.78109 0.0
H800 H 0.07268 0.57519 0.78797 0.0
H801 H 0.05616 0.56149 0.78154 0.0
H802 H 0.03423 0.58264 0.77429 0.0
H803 H 0.02185 0.60193 0.79474 0.0
H804 H 0.36707 0.06861 0.79443 0.0
H805 H 0.38746 0.08232 0.7764 0.0
H806 H 0.41757 0.03764 0.77609 0.0
H807 H 0.39704 0.02368 0.79417 0.0
H808 H 0.42245 0.08726 0.78323 0.0
H809 H 0.41094 0.04958 0.72579 0.0
H810 H 0.39622 0.05016 0.74288 0.0
H811 H 0.41525 0.0385 0.74488 0.0
C812 C 0.37799 0.06165 0.79051 0.0
C813 C 0.38043 0.04505 0.79567 0.0
C814 C 0.38965 0.06952 0.78023 0.0
C815 C 0.40393 0.06095 0.77483 0.0
C816 C 0.4065 0.04438 0.77997 0.0
H817 H 0.47499 0.10454 0.70253 0.0
H818 H 0.46308 0.08501 0.72304 0.0
C819 C 0.39481 0.03647 0.79033 0.0
C820 C 0.41605 0.06967 0.76392 0.0
H821 H 0.4295 0.07221 0.72351 0.0
C822 C 0.42419 0.08385 0.77023 0.0
C823 C 0.41836 0.06508 0.74701 0.0
C824 C 0.4097 0.05006 0.73961 0.0
C825 C 0.43407 0.09398 0.75991 0.0
C826 C 0.43561 0.08995 0.74278 0.0
C827 C 0.42823 0.07526 0.73665 0.0
C828 C 0.44328 0.10171 0.73076 0.0
C829 C 0.44248 0.10913 0.76733 0.0
C830 C 0.43596 0.11743 0.72823 0.0
C831 C 0.44264 0.1285 0.71656 0.0
C832 C 0.45678 0.12407 0.70715 0.0
C833 C 0.46413 0.10831 0.70967 0.0
C834 C 0.45735 0.09715 0.72134 0.0
H835 H 0.44437 0.10769 0.78101 0.0
H836 H 0.45477 0.11147 0.76133 0.0
H837 H 0.43446 0.12025 0.76529 0.0
H838 H 0.4249 0.12105 0.73514 0.0
H839 H 0.43666 0.14052 0.71486 0.0
H840 H 0.89442 0.47543 0.70545 0.0
H841 H 0.91458 0.46111 0.72368 0.0
H842 H 0.88263 0.41774 0.72493 0.0
H843 H 0.86259 0.43181 0.70678 0.0
H844 H 0.90902 0.44691 0.75641 0.0
H845 H 0.92853 0.39924 0.71015 0.0
H846 H 0.91794 0.41829 0.70428 0.0
H847 H 0.90627 0.40087 0.71238 0.0
C848 C 0.89174 0.46284 0.70962 0.0
C849 C 0.87699 0.4547 0.70463 0.0
C850 C 0.90324 0.4547 0.72001 0.0
C851 C 0.9002 0.43829 0.72539 0.0
C852 C 0.88535 0.43029 0.72063 0.0
H853 H 0.93398 0.36088 0.78832 0.0
H854 H 0.92078 0.3801 0.76868 0.0
C855 C 0.87388 0.43839 0.71033 0.0
C856 C 0.91225 0.42942 0.73625 0.0
H857 H 0.9348 0.39334 0.73882 0.0
C858 C 0.91493 0.43535 0.75253 0.0
C859 C 0.91996 0.4144 0.73106 0.0
C860 C 0.91819 0.40789 0.71346 0.0
C861 C 0.92433 0.42608 0.76411 0.0
C862 C 0.93136 0.41065 0.75913 0.0
C863 C 0.92931 0.40514 0.74261 0.0
C864 C 0.93965 0.39931 0.77116 0.0
C865 C 0.92595 0.4324 0.78179 0.0
C866 C 0.95471 0.40371 0.77898 0.0
C867 C 0.96232 0.39271 0.79028 0.0
C868 C 0.95497 0.37715 0.79383 0.0
C869 C 0.93995 0.37278 0.78587 0.0
C870 C 0.93239 0.38374 0.77462 0.0
H871 H 0.91749 0.44312 0.78431 0.0
H872 H 0.92313 0.42228 0.79085 0.0
H873 H 0.93899 0.43657 0.78399 0.0
H874 H 0.96063 0.41557 0.77627 0.0
H875 H 0.97393 0.39637 0.79619 0.0
H876 H 0.60246 0.9738 0.79674 0.0
H877 H 0.58205 0.95966 0.7786 0.0
H878 H 0.61701 0.91946 0.77061 0.0
H879 H 0.63731 0.93335 0.78859 0.0
H880 H 0.58625 0.94841 0.74387 0.0
H881 H 0.57367 0.89646 0.78791 0.0
H882 H 0.58302 0.91596 0.79441 0.0
H883 H 0.59552 0.90018 0.78441 0.0
C884 C 0.60576 0.96196 0.79106 0.0
C885 C 0.62143 0.95462 0.79415 0.0
C886 C 0.59412 0.95393 0.78074 0.0
C887 C 0.59796 0.93842 0.77352 0.0
C888 C 0.61372 0.93129 0.77631 0.0
H889 H 0.56638 0.8628 0.7079 0.0
H890 H 0.57926 0.8821 0.72769 0.0
C891 C 0.62532 0.93929 0.78654 0.0
C892 C 0.58572 0.92948 0.76296 0.0
H893 H 0.56582 0.89196 0.75939 0.0
C894 C 0.58148 0.9362 0.74733 0.0
C895 C 0.5795 0.91362 0.76761 0.0
C896 C 0.58301 0.90617 0.78457 0.0
C897 C 0.57202 0.92695 0.73578 0.0
C898 C 0.56657 0.91071 0.74012 0.0
C899 C 0.57011 0.90438 0.75608 0.0
C900 C 0.55853 0.89944 0.72786 0.0
C901 C 0.56869 0.9342 0.7187 0.0
C902 C 0.54256 0.90281 0.72145 0.0
C903 C 0.53513 0.89176 0.71009 0.0
C904 C 0.54358 0.87719 0.70504 0.0
C905 C 0.55956 0.87392 0.71152 0.0
C906 C 0.56694 0.88491 0.72285 0.0
H907 H 0.57587 0.94588 0.71648 0.0
H908 H 0.57195 0.92501 0.70882 0.0
H909 H 0.55519 0.9371 0.7175 0.0
H910 H 0.53579 0.91385 0.72536 0.0
H911 H 0.52278 0.89456 0.70533 0.0
H912 H 0.20337 0.02416 0.3951 0.0
H913 H 0.2215 0.03837 0.41545 0.0
H914 H 0.226 0.08042 0.38208 0.0
H915 H 0.20805 0.06643 0.36179 0.0
H916 H 0.25558 0.0517 0.40991 0.0
H917 H 0.20946 0.10032 0.42749 0.0
H918 H 0.20354 0.08088 0.41764 0.0
H919 H 0.21195 0.09769 0.40534 0.0
C920 C 0.20826 0.03643 0.39213 0.0
C921 C 0.20424 0.04423 0.3769 0.0
C922 C 0.21858 0.0445 0.40374 0.0
C923 C 0.22484 0.06052 0.40032 0.0
C924 C 0.22106 0.06817 0.38503 0.0
H925 H 0.28798 0.13785 0.43287 0.0
H926 H 0.2683 0.11839 0.42007 0.0
C927 C 0.21086 0.06012 0.37343 0.0
C928 C 0.23552 0.0694 0.4125 0.0
H929 H 0.23801 0.1059 0.43437 0.0
C930 C 0.25169 0.06339 0.41556 0.0
C931 C 0.23032 0.08459 0.41985 0.0
C932 C 0.21281 0.09121 0.41757 0.0
C933 C 0.2632 0.07276 0.42495 0.0
C934 C 0.25823 0.08838 0.43158 0.0
C935 C 0.24179 0.09395 0.4292 0.0
C936 C 0.27026 0.09986 0.43965 0.0
C937 C 0.28082 0.06637 0.42695 0.0
C938 C 0.27781 0.09592 0.45499 0.0
C939 C 0.2891 0.10706 0.46237 0.0
C940 C 0.29296 0.1223 0.45451 0.0
C941 C 0.28529 0.1262 0.43922 0.0
C942 C 0.27403 0.11511 0.43189 0.0
H943 H 0.28332 0.05532 0.41893 0.0
H944 H 0.28997 0.07633 0.42382 0.0
H945 H 0.2829 0.06271 0.44016 0.0
H946 H 0.27487 0.0843 0.46127 0.0
H947 H 0.29479 0.10376 0.4742 0.0
H948 H 0.89442 0.29317 0.47868 0.0
H949 H 0.91544 0.27493 0.46561 0.0
H950 H 0.8861 0.27353 0.42044 0.0
H951 H 0.86519 0.2916 0.43328 0.0
H952 H 0.9102 0.24178 0.45046 0.0
H953 H 0.93356 0.28886 0.4054 0.0
H954 H 0.92214 0.29445 0.42405 0.0
H955 H 0.91118 0.28722 0.40581 0.0
C956 C 0.89249 0.28895 0.46596 0.0
C957 C 0.87821 0.29386 0.45696 0.0
C958 C 0.90448 0.27856 0.45854 0.0
C959 C 0.9024 0.27314 0.442 0.0
C960 C 0.88805 0.27783 0.43313 0.0
H961 H 0.93453 0.21085 0.36516 0.0
H962 H 0.92229 0.23032 0.38515 0.0
C963 C 0.87608 0.2881 0.44052 0.0
C964 C 0.91495 0.26234 0.4338 0.0
H965 H 0.93912 0.26012 0.39878 0.0
C966 C 0.91686 0.24583 0.43938 0.0
C967 C 0.92365 0.26776 0.41942 0.0
C968 C 0.92269 0.28559 0.41339 0.0
C969 C 0.92634 0.23424 0.4302 0.0
C970 C 0.93415 0.23943 0.41523 0.0
C971 C 0.93303 0.25619 0.41023 0.0
C972 C 0.94184 0.22736 0.40356 0.0
C973 C 0.92712 0.21631 0.43595 0.0
C974 C 0.95694 0.21928 0.40733 0.0
C975 C 0.96404 0.20811 0.39586 0.0
C976 C 0.95608 0.20491 0.38052 0.0
C977 C 0.94095 0.21303 0.37688 0.0
C978 C 0.93394 0.22418 0.38826 0.0
H979 H 0.91908 0.21398 0.44703 0.0
H980 H 0.92318 0.20783 0.4257 0.0
H981 H 0.9402 0.2131 0.43926 0.0
H982 H 0.96328 0.22173 0.41903 0.0
H983 H 0.97572 0.20204 0.39897 0.0
H984 H 0.70716 0.86391 0.43242 0.0
H985 H 0.72742 0.88307 0.42019 0.0
H986 H 0.7268 0.91284 0.46509 0.0
H987 H 0.70628 0.89361 0.47753 0.0
H988 H 0.72463 0.93139 0.43394 0.0
H989 H 0.77708 0.88624 0.43417 0.0
H990 H 0.75834 0.87787 0.42513 0.0
H991 H 0.75863 0.88352 0.44689 0.0
C992 C 0.71131 0.87451 0.43974 0.0
C993 C 0.70521 0.8772 0.45598 0.0
C994 C 0.72294 0.88541 0.43275 0.0
C995 C 0.7288 0.89917 0.44186 0.0
C996 C 0.7225 0.90218 0.45794 0.0
H997 H 0.79912 0.97318 0.39907 0.0
H998 H 0.78102 0.95918 0.41957 0.0
C999 C 0.71081 0.89121 0.46501 0.0
C1000 C 0.7414 0.91036 0.43424 0.0
H1001 H 0.77966 0.90959 0.4155 0.0
C1002 C 0.73682 0.9268 0.4302 0.0
C1003 C 0.7573 0.90432 0.42949 0.0
C1004 C 0.76322 0.88707 0.43429 0.0
C1005 C 0.74734 0.93698 0.42049 0.0
C1006 C 0.7628 0.93053 0.41489 0.0
C1007 C 0.76773 0.91444 0.41973 0.0
C1008 C 0.77332 0.93954 0.40267 0.0
C1009 C 0.7415 0.95419 0.41548 0.0
C1010 C 0.775 0.93305 0.38649 0.0
C1011 C 0.78526 0.94094 0.37484 0.0
C1012 C 0.79414 0.95546 0.37918 0.0
C1013 C 0.79239 0.96203 0.39538 0.0
C1014 C 0.78204 0.95411 0.40707 0.0
H1015 H 0.72839 0.95662 0.41933 0.0
H1016 H 0.74965 0.96372 0.4214 0.0
H1017 H 0.74249 0.95576 0.40172 0.0
H1018 H 0.76838 0.9218 0.38289 0.0
H1019 H 0.78635 0.93557 0.36247 0.0
H1020 H 0.02457 0.80044 0.40008 0.0
H1021 H 0.03735 0.7813 0.42043 0.0
H1022 H 0.07186 0.76426 0.38273 0.0
H1023 H 0.05923 0.78319 0.36243 0.0
H1024 H 0.05574 0.73823 0.40252 0.0
H1025 H 0.08534 0.78858 0.44048 0.0
H1026 H 0.06332 0.79018 0.4362 0.0
H1027 H 0.07805 0.79216 0.41943 0.0
C1028 C 0.03483 0.79255 0.39615 0.0
C1029 C 0.04096 0.79336 0.3797 0.0
C1030 C 0.04213 0.78169 0.40777 0.0
C1031 C 0.0556 0.77149 0.40307 0.0
C1032 C 0.06147 0.77204 0.38658 0.0
H1033 H 0.13779 0.72122 0.44438 0.0
H1034 H 0.11713 0.73979 0.43175 0.0
C1035 C 0.05427 0.7829 0.37502 0.0
C1036 C 0.06402 0.76042 0.41523 0.0
H1037 H 0.0919 0.76085 0.44751 0.0
C1038 C 0.06342 0.74311 0.41257 0.0
C1039 C 0.0741 0.76692 0.4282 0.0
C1040 C 0.0754 0.78547 0.4313 0.0
C1041 C 0.07314 0.73211 0.42217 0.0
C1042 C 0.08361 0.73866 0.43481 0.0
C1043 C 0.08375 0.75592 0.43787 0.0
C1044 C 0.09589 0.72801 0.4436 0.0
C1045 C 0.07284 0.71369 0.41816 0.0
C1046 C 0.09076 0.71541 0.45467 0.0
C1047 C 0.10258 0.70475 0.46195 0.0
C1048 C 0.11965 0.70655 0.4582 0.0
C1049 C 0.12472 0.71947 0.44745 0.0
C1050 C 0.11295 0.73013 0.44027 0.0
H1051 H 0.06573 0.71096 0.40655 0.0
H1052 H 0.08577 0.70886 0.41671 0.0
H1053 H 0.0669 0.7068 0.42862 0.0
H1054 H 0.07764 0.7137 0.4575 0.0
H1055 H 0.09833 0.69493 0.47023 0.0
H1056 H 0.20664 0.93127 0.63412 0.0
H1057 H 0.22454 0.91765 0.61353 0.0
H1058 H 0.22355 0.96203 0.58299 0.0
H1059 H 0.20556 0.97587 0.60368 0.0
H1060 H 0.21674 0.91278 0.57816 0.0
H1061 H 0.27437 0.95031 0.58931 0.0
H1062 H 0.25766 0.94929 0.60445 0.0
H1063 H 0.25507 0.9613 0.58571 0.0
C1064 C 0.21025 0.93818 0.62306 0.0
C1065 C 0.20473 0.95465 0.62053 0.0
C1066 C 0.22045 0.93036 0.6113 0.0
C1067 C 0.22543 0.93888 0.59683 0.0
C1068 C 0.21996 0.95533 0.59419 0.0
H1069 H 0.297 0.89623 0.52462 0.0
H1070 H 0.27682 0.91564 0.53725 0.0
C1071 C 0.20966 0.96318 0.60597 0.0
C1072 C 0.23619 0.93022 0.58456 0.0
H1073 H 0.27646 0.92767 0.57073 0.0
C1074 C 0.22974 0.91615 0.57634 0.0
C1075 C 0.25309 0.93476 0.58215 0.0
C1076 C 0.26059 0.94969 0.59089 0.0
C1077 C 0.23993 0.90611 0.56623 0.0
C1078 C 0.25706 0.91009 0.56458 0.0
C1079 C 0.26332 0.92465 0.57209 0.0
C1080 C 0.26894 0.89842 0.55654 0.0
C1081 C 0.23232 0.89114 0.55765 0.0
C1082 C 0.27131 0.88245 0.56336 0.0
C1083 C 0.28277 0.87143 0.55625 0.0
C1084 C 0.29217 0.87618 0.54221 0.0
C1085 C 0.28987 0.89221 0.5354 0.0
C1086 C 0.27838 0.9033 0.54259 0.0
H1087 H 0.21865 0.89275 0.55582 0.0
H1088 H 0.23825 0.88887 0.54532 0.0
H1089 H 0.23425 0.87991 0.56554 0.0
H1090 H 0.2644 0.87857 0.57434 0.0
H1091 H 0.28432 0.8592 0.56184 0.0
H1092 H 0.02482 0.20383 0.60409 0.0
H1093 H 0.03743 0.22405 0.58471 0.0
H1094 H 0.07932 0.22993 0.61807 0.0
H1095 H 0.0669 0.20988 0.63741 0.0
H1096 H 0.06295 0.26081 0.60616 0.0
H1097 H 0.08073 0.2165 0.5554 0.0
H1098 H 0.05976 0.21567 0.56353 0.0
H1099 H 0.07693 0.20952 0.57653 0.0
C1100 C 0.03675 0.2094 0.60723 0.0
C1101 C 0.04489 0.20527 0.62225 0.0
C1102 C 0.04394 0.22088 0.59615 0.0
C1103 C 0.05933 0.22836 0.59996 0.0
C1104 C 0.06744 0.22425 0.61492 0.0
H1105 H 0.13435 0.29526 0.56881 0.0
H1106 H 0.11428 0.27698 0.58263 0.0
C1107 C 0.06033 0.21278 0.62594 0.0
C1108 C 0.06705 0.24078 0.58867 0.0
H1109 H 0.08937 0.24444 0.55251 0.0
C1110 C 0.06855 0.2573 0.59432 0.0
C1111 C 0.07417 0.23616 0.57319 0.0
C1112 C 0.07295 0.2185 0.56672 0.0
C1113 C 0.07753 0.26922 0.58516 0.0
C1114 C 0.08551 0.26437 0.57015 0.0
C1115 C 0.08329 0.24807 0.56406 0.0
C1116 C 0.09744 0.27557 0.56152 0.0
C1117 C 0.07865 0.28684 0.59178 0.0
C1118 C 0.09485 0.28048 0.54488 0.0
C1119 C 0.1064 0.29093 0.53687 0.0
C1120 C 0.12075 0.29645 0.54537 0.0
C1121 C 0.12336 0.29131 0.56195 0.0
C1122 C 0.11185 0.28094 0.56991 0.0
H1123 H 0.06789 0.28983 0.60004 0.0
H1124 H 0.09024 0.28816 0.59928 0.0
H1125 H 0.07906 0.29609 0.58145 0.0
H1126 H 0.08386 0.27633 0.53815 0.0
H1127 H 0.10411 0.29464 0.52407 0.0
H1128 H 0.79622 0.0236 0.6043 0.0
H1129 H 0.77797 0.03722 0.58366 0.0
H1130 H 0.77279 0.07975 0.61634 0.0
H1131 H 0.79093 0.06638 0.63685 0.0
H1132 H 0.74415 0.04967 0.58794 0.0
H1133 H 0.78889 0.09986 0.57149 0.0
H1134 H 0.79521 0.08086 0.58192 0.0
H1135 H 0.78587 0.09764 0.59361 0.0
C1136 C 0.79116 0.03585 0.60705 0.0
C1137 C 0.79508 0.04398 0.62213 0.0
C1138 C 0.78077 0.04359 0.59528 0.0
C1139 C 0.7743 0.05959 0.59839 0.0
C1140 C 0.77793 0.06753 0.61357 0.0
H1141 H 0.70905 0.13482 0.56636 0.0
H1142 H 0.72893 0.11554 0.57905 0.0
C1143 C 0.78824 0.05984 0.62531 0.0
C1144 C 0.76358 0.06816 0.586 0.0
H1145 H 0.76016 0.1048 0.56451 0.0
C1146 C 0.74772 0.06156 0.5825 0.0
C1147 C 0.76837 0.0836 0.57889 0.0
C1148 C 0.78558 0.09084 0.58152 0.0
C1149 C 0.73607 0.0706 0.57296 0.0
C1150 C 0.74056 0.0865 0.56668 0.0
C1151 C 0.75674 0.09264 0.56944 0.0
C1152 C 0.72822 0.09774 0.55873 0.0
C1153 C 0.71877 0.06358 0.57044 0.0
C1154 C 0.72127 0.0941 0.54304 0.0
C1155 C 0.70984 0.10516 0.53571 0.0
C1156 C 0.70528 0.11998 0.54398 0.0
C1157 C 0.7123 0.12351 0.55967 0.0
C1158 C 0.72368 0.11252 0.56694 0.0
H1159 H 0.71663 0.05208 0.57793 0.0
H1160 H 0.70919 0.07301 0.57389 0.0
H1161 H 0.71698 0.06045 0.55705 0.0
H1162 H 0.7248 0.08284 0.53643 0.0
H1163 H 0.70466 0.10215 0.52357 0.0
H1164 H 0.89823 0.70225 0.52411 0.0
H1165 H 0.91863 0.7204 0.53823 0.0
H1166 H 0.88326 0.7293 0.57787 0.0
H1167 H 0.86295 0.71133 0.56398 0.0
H1168 H 0.91432 0.75564 0.5494 0.0
H1169 H 0.92648 0.71126 0.60121 0.0
H1170 H 0.91743 0.70486 0.58154 0.0
H1171 H 0.90469 0.71481 0.59714 0.0
C1172 C 0.89482 0.70814 0.5358 0.0
C1173 C 0.87904 0.7053 0.543 0.0
C1174 C 0.90646 0.71848 0.54383 0.0
C1175 C 0.9025 0.72595 0.55918 0.0
C1176 C 0.88663 0.72342 0.56615 0.0
H1177 H 0.93411 0.79034 0.63567 0.0
H1178 H 0.92141 0.7707 0.61614 0.0
C1179 C 0.87502 0.71319 0.55815 0.0
C1180 C 0.91477 0.73642 0.56819 0.0
H1181 H 0.93465 0.73964 0.60575 0.0
C1182 C 0.91907 0.75208 0.56159 0.0
C1183 C 0.92095 0.73164 0.58402 0.0
C1184 C 0.9173 0.71466 0.59136 0.0
C1185 C 0.92854 0.76356 0.57093 0.0
C1186 C 0.93397 0.75907 0.58715 0.0
C1187 C 0.93039 0.74307 0.59334 0.0
C1188 C 0.94195 0.77125 0.59857 0.0
C1189 C 0.93186 0.78069 0.56382 0.0
C1190 C 0.95777 0.77804 0.59518 0.0
C1191 C 0.96509 0.78935 0.60636 0.0
C1192 C 0.9567 0.79394 0.62111 0.0
C1193 C 0.9409 0.78706 0.62443 0.0
C1194 C 0.93362 0.77582 0.61329 0.0
H1195 H 0.92454 0.78307 0.55226 0.0
H1196 H 0.92879 0.7905 0.57314 0.0
H1197 H 0.94533 0.78184 0.56073 0.0
H1198 H 0.9645 0.77446 0.584 0.0
H1199 H 0.97731 0.79442 0.60352 0.0
H1200 H 0.43418 0.28838 0.13748 0.0
H1201 H 0.42084 0.27021 0.11694 0.0
H1202 H 0.4605 0.2803 0.0819 0.0
H1203 H 0.47406 0.29861 0.10252 0.0
H1204 H 0.41095 0.28114 0.08314 0.0
H1205 H 0.45563 0.22768 0.08379 0.0
H1206 H 0.45429 0.24226 0.10097 0.0
H1207 H 0.46377 0.24856 0.08168 0.0
C1208 C 0.44015 0.28668 0.12545 0.0
C1209 C 0.45517 0.29492 0.1216 0.0
C1210 C 0.4325 0.27631 0.11373 0.0
C1211 C 0.43974 0.27387 0.09798 0.0
C1212 C 0.45483 0.28191 0.09408 0.0
H1213 H 0.39581 0.20538 0.02333 0.0
H1214 H 0.41498 0.22574 0.03608 0.0
C1215 C 0.46251 0.29238 0.10583 0.0
C1216 C 0.43095 0.26334 0.08561 0.0
H1217 H 0.43105 0.22448 0.068 0.0
C1218 C 0.41544 0.26884 0.07962 0.0
C1219 C 0.43696 0.2474 0.08095 0.0
C1220 C 0.45354 0.24098 0.08717 0.0
C1221 C 0.40541 0.25854 0.06963 0.0
C1222 C 0.41092 0.24219 0.06582 0.0
C1223 C 0.42685 0.237 0.07102 0.0
C1224 C 0.39962 0.22984 0.05794 0.0
C1225 C 0.38884 0.26514 0.06352 0.0
C1226 C 0.38486 0.22522 0.06618 0.0
C1227 C 0.37398 0.21368 0.05899 0.0
C1228 C 0.37768 0.20643 0.04344 0.0
C1229 C 0.39262 0.21083 0.03529 0.0
C1230 C 0.40356 0.22243 0.04254 0.0
H1231 H 0.38882 0.27901 0.0629 0.0
H1232 H 0.38573 0.26009 0.05098 0.0
H1233 H 0.37887 0.26128 0.07236 0.0
H1234 H 0.38177 0.23052 0.07824 0.0
H1235 H 0.36264 0.21047 0.06564 0.0
H1236 H 0.39513 0.79504 0.97621 0.0
H1237 H 0.41548 0.77671 0.96228 0.0
H1238 H 0.38326 0.77367 0.91921 0.0
H1239 H 0.36299 0.79185 0.93291 0.0
H1240 H 0.4099 0.74314 0.94848 0.0
H1241 H 0.42928 0.78926 0.90059 0.0
H1242 H 0.41893 0.7952 0.91975 0.0
H1243 H 0.40703 0.78709 0.9025 0.0
C1244 C 0.39242 0.79044 0.96377 0.0
C1245 C 0.37752 0.79493 0.95561 0.0
C1246 C 0.40403 0.77999 0.95586 0.0
C1247 C 0.40095 0.77408 0.93965 0.0
C1248 C 0.38597 0.77835 0.93162 0.0
H1249 H 0.43332 0.71048 0.86276 0.0
H1250 H 0.4205 0.73011 0.88225 0.0
C1251 C 0.37438 0.78867 0.93951 0.0
C1252 C 0.41313 0.76326 0.93094 0.0
H1253 H 0.43556 0.76056 0.89479 0.0
C1254 C 0.41581 0.747 0.93692 0.0
C1255 C 0.42084 0.76841 0.91591 0.0
C1256 C 0.41903 0.786 0.90936 0.0
C1257 C 0.42518 0.73539 0.92765 0.0
C1258 C 0.43212 0.74031 0.91216 0.0
C1259 C 0.43013 0.75682 0.90664 0.0
C1260 C 0.44013 0.72819 0.90073 0.0
C1261 C 0.42682 0.71771 0.93397 0.0
C1262 C 0.45547 0.72067 0.90467 0.0
C1263 C 0.46288 0.70942 0.8935 0.0
C1264 C 0.45502 0.70557 0.87826 0.0
C1265 C 0.43967 0.71316 0.8744 0.0
C1266 C 0.43234 0.7244 0.88551 0.0
H1267 H 0.41883 0.71535 0.94508 0.0
H1268 H 0.4234 0.70868 0.924 0.0
H1269 H 0.44001 0.7153 0.9375 0.0
H1270 H 0.46176 0.72362 0.91628 0.0
H1271 H 0.47474 0.70377 0.89677 0.0
H1272 H 0.29294 0.47867 0.89597 0.0
H1273 H 0.27506 0.46536 0.91713 0.0
H1274 H 0.28136 0.41784 0.89251 0.0
H1275 H 0.29919 0.4309 0.87156 0.0
H1276 H 0.24497 0.44778 0.91158 0.0
H1277 H 0.29213 0.40697 0.94131 0.0
H1278 H 0.29776 0.42465 0.92843 0.0
H1279 H 0.29215 0.40502 0.91898 0.0
C1280 C 0.2906 0.46536 0.89519 0.0
C1281 C 0.2975 0.4558 0.88216 0.0
C1282 C 0.28041 0.4578 0.90726 0.0
C1283 C 0.27716 0.44057 0.90654 0.0
C1284 C 0.28404 0.43107 0.89352 0.0
H1285 H 0.2149 0.36301 0.93751 0.0
H1286 H 0.23501 0.38286 0.92603 0.0
C1287 C 0.29413 0.43859 0.88149 0.0
C1288 C 0.26587 0.43243 0.91873 0.0
H1289 H 0.26333 0.39856 0.9445 0.0
C1290 C 0.24901 0.43727 0.91911 0.0
C1291 C 0.27123 0.41879 0.92859 0.0
C1292 C 0.28935 0.41366 0.92946 0.0
C1293 C 0.23715 0.42803 0.92818 0.0
C1294 C 0.24238 0.41373 0.93712 0.0
C1295 C 0.25937 0.40949 0.93753 0.0
C1296 C 0.23024 0.40196 0.94454 0.0
C1297 C 0.21898 0.43296 0.92733 0.0
C1298 C 0.22098 0.40614 0.95883 0.0
C1299 C 0.20946 0.39476 0.96549 0.0
C1300 C 0.20705 0.3791 0.95788 0.0
C1301 C 0.21644 0.37499 0.94363 0.0
C1302 C 0.22795 0.38629 0.93707 0.0
H1303 H 0.2168 0.44354 0.91861 0.0
H1304 H 0.21129 0.42215 0.92325 0.0
H1305 H 0.21462 0.43669 0.93995 0.0
H1306 H 0.2227 0.41815 0.96483 0.0
H1307 H 0.20241 0.39823 0.97651 0.0
H1308 H 0.63056 0.20439 0.93064 0.0
H1309 H 0.60988 0.22278 0.91784 0.0
H1310 H 0.58294 0.22529 0.96443 0.0
H1311 H 0.60373 0.20679 0.97745 0.0
H1312 H 0.57369 0.21685 0.91617 0.0
H1313 H 0.59136 0.27521 0.94993 0.0
H1314 H 0.60541 0.25761 0.9484 0.0
H1315 H 0.58762 0.25656 0.96197 0.0
C1316 C 0.62027 0.20886 0.9382 0.0
C1317 C 0.61878 0.20419 0.95506 0.0
C1318 C 0.60845 0.21934 0.93086 0.0
C1319 C 0.59498 0.22545 0.94023 0.0
C1320 C 0.59337 0.22081 0.95706 0.0
H1321 H 0.52539 0.3003 0.89861 0.0
H1322 H 0.53749 0.28011 0.91836 0.0
C1323 C 0.6052 0.21023 0.96444 0.0
C1324 C 0.58271 0.23659 0.93207 0.0
H1325 H 0.57155 0.2776 0.9284 0.0
C1326 C 0.57301 0.23009 0.919 0.0
C1327 C 0.58179 0.25381 0.93591 0.0
C1328 C 0.59211 0.26135 0.94975 0.0
C1329 C 0.56292 0.2405 0.90918 0.0
C1330 C 0.56279 0.25788 0.91233 0.0
C1331 C 0.57174 0.26426 0.926 0.0
C1332 C 0.55497 0.26977 0.90051 0.0
C1333 C 0.55277 0.23285 0.89526 0.0
C1334 C 0.56096 0.27075 0.88408 0.0
C1335 C 0.55417 0.28222 0.87288 0.0
C1336 C 0.54127 0.29301 0.8779 0.0
C1337 C 0.53528 0.29208 0.89439 0.0
C1338 C 0.54216 0.28059 0.90566 0.0
H1339 H 0.55 0.21947 0.89777 0.0
H1340 H 0.54081 0.23963 0.89344 0.0
H1341 H 0.56001 0.23353 0.88345 0.0
H1342 H 0.57109 0.26276 0.87997 0.0
H1343 H 0.55911 0.28268 0.86029 0.0
H1344 H 0.7131 0.56348 0.8611 0.0
H1345 H 0.73323 0.57587 0.88031 0.0
H1346 H 0.72349 0.53678 0.9161 0.0
H1347 H 0.70303 0.52431 0.89689 0.0
H1348 H 0.72355 0.56908 0.92995 0.0
H1349 H 0.78002 0.55881 0.89145 0.0
H1350 H 0.76363 0.56883 0.8799 0.0
H1351 H 0.76061 0.54793 0.88765 0.0
C1352 C 0.71527 0.55744 0.87302 0.0
C1353 C 0.70654 0.54287 0.87747 0.0
C1354 C 0.72687 0.56448 0.88394 0.0
C1355 C 0.73009 0.55706 0.89948 0.0
C1356 C 0.72128 0.5426 0.90408 0.0
H1357 H 0.79734 0.60165 0.97522 0.0
H1358 H 0.77921 0.58108 0.96134 0.0
C1359 C 0.70963 0.5355 0.89312 0.0
C1360 C 0.74221 0.56494 0.91102 0.0
H1361 H 0.78198 0.58027 0.91249 0.0
C1362 C 0.73643 0.57123 0.92634 0.0
C1363 C 0.75903 0.56762 0.9063 0.0
C1364 C 0.76624 0.56028 0.8905 0.0
C1365 C 0.74676 0.5811 0.93655 0.0
C1366 C 0.76323 0.58463 0.93127 0.0
C1367 C 0.76927 0.57761 0.91641 0.0
C1368 C 0.77384 0.59689 0.94009 0.0
C1369 C 0.73979 0.58848 0.95242 0.0
C1370 C 0.7768 0.61247 0.93266 0.0
C1371 C 0.78703 0.62418 0.94052 0.0
C1372 C 0.79461 0.62047 0.95592 0.0
C1373 C 0.79163 0.60484 0.96338 0.0
C1374 C 0.78127 0.59312 0.95551 0.0
H1375 H 0.72634 0.58553 0.95413 0.0
H1376 H 0.74682 0.58352 0.9633 0.0
H1377 H 0.74138 0.60227 0.95234 0.0
H1378 H 0.77117 0.61557 0.92075 0.0
H1379 H 0.7891 0.63609 0.93444 0.0
H1380 H 0.52791 0.69967 0.10297 0.0
H1381 H 0.54266 0.71769 0.08293 0.0
H1382 H 0.57887 0.7302 0.12081 0.0
H1383 H 0.56433 0.71234 0.14079 0.0
H1384 H 0.55148 0.75347 0.08631 0.0
H1385 H 0.60655 0.71178 0.08051 0.0
H1386 H 0.58664 0.70466 0.08844 0.0
H1387 H 0.60059 0.71625 0.10169 0.0
C1388 C 0.53898 0.70632 0.10701 0.0
C1389 C 0.54503 0.70453 0.12341 0.0
C1390 C 0.54736 0.71658 0.09557 0.0
C1391 C 0.56196 0.72504 0.10036 0.0
C1392 C 0.56777 0.72355 0.11682 0.0
H1393 H 0.63693 0.79191 0.06816 0.0
H1394 H 0.61799 0.77216 0.08161 0.0
C1395 C 0.5594 0.71339 0.12823 0.0
C1396 C 0.57133 0.73545 0.08832 0.0
H1397 H 0.60989 0.73974 0.07068 0.0
C1398 C 0.56415 0.75039 0.08263 0.0
C1399 C 0.58781 0.7313 0.08354 0.0
C1400 C 0.59584 0.71505 0.08872 0.0
C1401 C 0.57344 0.76181 0.07303 0.0
C1402 C 0.59019 0.75797 0.06888 0.0
C1403 C 0.59707 0.74267 0.07396 0.0
C1404 C 0.60128 0.77016 0.06046 0.0
C1405 C 0.56557 0.77823 0.06814 0.0
C1406 C 0.59818 0.77552 0.04405 0.0
C1407 C 0.60901 0.78689 0.0363 0.0
C1408 C 0.62311 0.79295 0.04485 0.0
C1409 C 0.62617 0.78748 0.06125 0.0
C1410 C 0.61537 0.77618 0.06895 0.0
H1411 H 0.55363 0.7805 0.07486 0.0
H1412 H 0.57422 0.78876 0.07075 0.0
H1413 H 0.56292 0.77816 0.05454 0.0
H1414 H 0.58752 0.7708 0.03719 0.0
H1415 H 0.60639 0.79085 0.02363 0.0
H1416 H 0.20257 0.60407 0.0223 0.0
H1417 H 0.22093 0.58346 0.03583 0.0
H1418 H 0.22612 0.61606 0.07841 0.0
H1419 H 0.20794 0.63659 0.06509 0.0
H1420 H 0.25525 0.58866 0.04877 0.0
H1421 H 0.20977 0.57033 0.0977 0.0
H1422 H 0.20361 0.58053 0.07852 0.0
H1423 H 0.21221 0.59253 0.09545 0.0
C1424 C 0.20766 0.60681 0.03454 0.0
C1425 C 0.20377 0.6219 0.04268 0.0
C1426 C 0.21812 0.59506 0.04222 0.0
C1427 C 0.22464 0.59818 0.05819 0.0
C1428 C 0.22098 0.61333 0.06618 0.0
H1429 H 0.2889 0.56656 0.13422 0.0
H1430 H 0.26924 0.57906 0.11459 0.0
C1431 C 0.21065 0.62507 0.05852 0.0
C1432 C 0.23542 0.58583 0.06671 0.0
H1433 H 0.23847 0.56367 0.10298 0.0
C1434 C 0.25153 0.58287 0.06045 0.0
C1435 C 0.23043 0.57829 0.08187 0.0
C1436 C 0.213 0.58043 0.08873 0.0
C1437 C 0.26318 0.57343 0.06959 0.0
C1438 C 0.25846 0.56671 0.08523 0.0
C1439 C 0.24206 0.56892 0.09101 0.0
C1440 C 0.27072 0.55891 0.09664 0.0
C1441 C 0.28073 0.57151 0.06299 0.0
C1442 C 0.27806 0.54339 0.09303 0.0
C1443 C 0.28935 0.53616 0.10429 0.0
C1444 C 0.29341 0.54437 0.11929 0.0
C1445 C 0.28605 0.55992 0.12277 0.0
C1446 C 0.27479 0.56708 0.11158 0.0
H1447 H 0.28292 0.57914 0.0516 0.0
H1448 H 0.28994 0.57521 0.07268 0.0
H1449 H 0.28303 0.55821 0.05985 0.0
H1450 H 0.27491 0.53682 0.08162 0.0
H1451 H 0.29481 0.52414 0.10131 0.0
H1452 H 0.70608 0.4756 0.10399 0.0
H1453 H 0.724 0.46141 0.08349 0.0
H1454 H 0.72051 0.41583 0.11203 0.0
H1455 H 0.70264 0.4298 0.13239 0.0
H1456 H 0.75513 0.44505 0.08949 0.0
H1457 H 0.70779 0.4013 0.06435 0.0
H1458 H 0.70227 0.4198 0.07604 0.0
H1459 H 0.7088 0.40114 0.08675 0.0
C1460 C 0.70909 0.46254 0.10582 0.0
C1461 C 0.70292 0.45378 0.11975 0.0
C1462 C 0.71931 0.45447 0.09412 0.0
C1463 C 0.72332 0.43751 0.09612 0.0
C1464 C 0.71726 0.42883 0.11008 0.0
H1465 H 0.78535 0.35955 0.0631 0.0
H1466 H 0.76539 0.37895 0.07555 0.0
C1467 C 0.70714 0.43686 0.12176 0.0
C1468 C 0.73435 0.42885 0.08408 0.0
H1469 H 0.73653 0.39398 0.05965 0.0
C1470 C 0.75103 0.43408 0.08267 0.0
C1471 C 0.7289 0.4146 0.07517 0.0
C1472 C 0.71091 0.40896 0.0755 0.0
C1473 C 0.76268 0.42476 0.07342 0.0
C1474 C 0.75739 0.41001 0.06527 0.0
C1475 C 0.74054 0.40527 0.066 0.0
C1476 C 0.7694 0.39846 0.05728 0.0
C1477 C 0.78072 0.43022 0.07318 0.0
C1478 C 0.77815 0.40298 0.04277 0.0
C1479 C 0.7896 0.39187 0.03558 0.0
C1480 C 0.79242 0.37611 0.04282 0.0
C1481 C 0.78349 0.37161 0.05725 0.0
C1482 C 0.77206 0.38266 0.06437 0.0
H1483 H 0.78318 0.44063 0.08203 0.0
H1484 H 0.78903 0.41958 0.07639 0.0
H1485 H 0.78406 0.43449 0.06042 0.0
H1486 H 0.7761 0.41505 0.03701 0.0
H1487 H 0.79628 0.39563 0.02442 0.0
H1488 H 0.00762 0.21749 0.31887 0.0
H1489 H 0.01324 0.23783 0.29679 0.0
H1490 H 0.97186 0.21842 0.26822 0.0
H1491 H 0.96643 0.19772 0.29011 0.0
H1492 H 0.99933 0.22407 0.24881 0.0
H1493 H 0.98602 0.27957 0.28805 0.0
H1494 H 0.00181 0.26626 0.29676 0.0
H1495 H 0.98078 0.25862 0.29453 0.0
C1496 C -0.00028 0.21755 0.30788 0.0
C1497 C 0.98651 0.20611 0.30626 0.0
C1498 C 0.00289 0.22924 0.29532 0.0
C1499 C 0.99276 0.22986 0.28102 0.0
C1500 C 0.97977 0.21822 0.27921 0.0
H1501 H 0.98864 0.31419 0.21308 0.0
H1502 H 0.98252 0.29216 0.23332 0.0
C1503 C 0.97666 0.20642 0.29172 0.0
C1504 C 0.99575 0.24264 0.26795 0.0
H1505 H 0.99861 0.28471 0.26163 0.0
C1506 C 0.9991 0.23734 0.25157 0.0
C1507 C 0.99518 0.25994 0.27154 0.0
C1508 C 0.99059 0.26647 0.28863 0.0
C1509 C 0.0022 0.24889 0.23872 0.0
C1510 C 0.00232 0.26617 0.24248 0.0
C1511 C 0.99869 0.27145 0.2588 0.0
C1512 C 0.0059 0.27906 0.22966 0.0
C1513 C 0.00499 0.24246 0.22122 0.0
C1514 C 0.02112 0.27908 0.22092 0.0
C1515 C 0.02458 0.29159 0.20922 0.0
C1516 C 0.01299 0.30444 0.20627 0.0
C1517 C 0.99782 0.30446 0.2151 0.0
C1518 C 0.99431 0.29188 0.22667 0.0
H1519 H -0.00026 0.22971 0.21956 0.0
H1520 H 0.99925 0.25088 0.21181 0.0
H1521 H 0.01861 0.24179 0.21873 0.0
H1522 H 0.03043 0.26956 0.22332 0.0
H1523 H 0.03643 0.29134 0.20268 0.0
H1524 H 0.77813 0.00314 0.31888 0.0
H1525 H 0.75849 0.00859 0.29616 0.0
H1526 H 0.78856 0.97875 0.26283 0.0
H1527 H 0.80809 0.97288 0.28568 0.0
H1528 H 0.76285 0.02366 0.26604 0.0
H1529 H 0.74273 0.95781 0.25737 0.0
H1530 H 0.75487 0.96452 0.27514 0.0
H1531 H 0.76483 0.96106 0.25531 0.0
C1532 C 0.78056 0.99772 0.30672 0.0
C1533 C 0.79458 0.98748 0.30407 0.0
C1534 C 0.76934 0.00087 0.29374 0.0
C1535 C 0.77192 0.99387 0.27788 0.0
C1536 C 0.78613 0.98397 0.27508 0.0
H1537 H 0.7146 0.02653 0.19035 0.0
H1538 H 0.73725 0.02091 0.21016 0.0
C1539 C 0.79732 0.9807 0.28811 0.0
C1540 C 0.75963 0.99701 0.26437 0.0
H1541 H 0.73199 0.97763 0.23829 0.0
C1542 C 0.75612 0.01361 0.25993 0.0
C1543 C 0.75075 0.98386 0.25657 0.0
C1544 C 0.75333 0.96581 0.26141 0.0
C1545 C 0.74386 0.01745 0.24799 0.0
C1546 C 0.73516 0.0043 0.24 0.0
C1547 C 0.73877 0.98769 0.24435 0.0
C1548 C 0.72166 0.00747 0.22772 0.0
C1549 C 0.73996 0.03557 0.24449 0.0
C1550 C 0.70551 0.00135 0.23076 0.0
C1551 C 0.69263 0.00434 0.21937 0.0
C1552 C 0.69566 0.01354 0.20474 0.0
C1553 C 0.71188 0.01953 0.20161 0.0
C1554 C 0.7248 0.01641 0.21295 0.0
H1555 H 0.74455 0.04388 0.25462 0.0
H1556 H 0.74619 0.03939 0.23271 0.0
H1557 H 0.7263 0.03754 0.24302 0.0
H1558 H 0.70282 0.99438 0.24205 0.0
H1559 H 0.68027 0.99956 0.22211 0.0
H1560 H 0.00785 0.6823 0.21807 0.0
H1561 H 0.01344 0.70452 0.23829 0.0
H1562 H 0.97228 0.7331 0.21843 0.0
H1563 H 0.9669 0.71109 0.19785 0.0
H1564 H 0.99962 0.75253 0.22431 0.0
H1565 H 0.98593 0.71332 0.27974 0.0
H1566 H 0.0019 0.70468 0.2666 0.0
H1567 H 0.98093 0.70677 0.25876 0.0
C1568 C 0.0 0.69332 0.21801 0.0
C1569 C 0.98686 0.69492 0.20648 0.0
C1570 C 0.00315 0.70596 0.22962 0.0
C1571 C 0.99306 0.7203 0.23009 0.0
C1572 C 0.98016 0.72209 0.21835 0.0
H1573 H 0.9873 0.78797 0.31439 0.0
H1574 H 0.98162 0.76796 0.29204 0.0
C1575 C 0.97708 0.7095 0.20662 0.0
C1576 C 0.99593 0.7334 0.24287 0.0
H1577 H 0.99818 0.73985 0.28495 0.0
C1578 C 0.99924 0.7498 0.23758 0.0
C1579 C 0.99517 0.72985 0.26017 0.0
C1580 C 0.99062 0.71274 0.26669 0.0
C1581 C 0.00208 0.7627 0.24913 0.0
C1582 C 0.00196 0.759 0.26642 0.0
C1583 C 0.99842 0.74265 0.27169 0.0
C1584 C 0.00518 0.77188 0.27935 0.0
C1585 C 0.00483 0.78021 0.2427 0.0
C1586 C 0.02032 0.78075 0.27965 0.0
C1587 C 0.02353 0.79233 0.29235 0.0
C1588 C 0.01175 0.79502 0.30509 0.0
C1589 C 0.99661 0.78614 0.30475 0.0
C1590 C 0.99336 0.7747 0.29199 0.0
H1591 H -0.00021 0.7818 0.22986 0.0
H1592 H 0.99886 0.7896 0.251 0.0
H1593 H 0.01844 0.78282 0.24227 0.0
H1594 H 0.0298 0.77849 0.27027 0.0
H1595 H 0.03536 0.7989 0.29237 0.0
H1596 H 0.20009 0.03429 0.28977 0.0
H1597 H 0.22065 0.02816 0.26797 0.0
H1598 H 0.23235 0.98138 0.29206 0.0
H1599 H 0.21214 0.98762 0.3141 0.0
H1600 H 0.26013 0.99853 0.28396 0.0
H1601 H 0.21782 0.9958 0.2292 0.0
H1602 H 0.21615 0.01499 0.24068 0.0
H1603 H 0.2102 0.99562 0.25043 0.0
C1604 C 0.20696 0.02264 0.29033 0.0
C1605 C 0.2045 0.01142 0.30361 0.0
C1606 C 0.21862 0.0191 0.27781 0.0
C1607 C 0.22784 0.00418 0.27823 0.0
C1608 C 0.22532 0.99293 0.29144 0.0
H1609 H 0.29034 0.96503 0.19815 0.0
H1610 H 0.26818 0.96985 0.21873 0.0
C1611 C 0.21376 0.99651 0.30402 0.0
C1612 C 0.24074 0.00066 0.26541 0.0
H1613 H 0.24705 0.99659 0.22341 0.0
C1614 C 0.25725 0.99802 0.27072 0.0
C1615 C 0.23693 -0.00023 0.24817 0.0
C1616 C 0.21929 0.00153 0.24176 0.0
C1617 C 0.27011 0.99481 0.25926 0.0
C1618 C 0.26642 0.99463 0.24197 0.0
C1619 C 0.24987 0.99694 0.23666 0.0
C1620 C 0.2796 0.992 0.22923 0.0
C1621 C 0.28746 0.99138 0.26581 0.0
C1622 C 0.29318 0.00304 0.22811 0.0
C1623 C 0.30588 0.00026 0.21647 0.0
C1624 C 0.30511 0.9865 0.20559 0.0
C1625 C 0.29128 0.97571 0.20641 0.0
C1626 C 0.27862 0.97845 0.21813 0.0
H1627 H 0.28721 0.9873 0.27908 0.0
H1628 H 0.29382 0.98161 0.25828 0.0
H1629 H 0.29498 0.00301 0.2651 0.0
H1630 H 0.29399 0.01379 0.23629 0.0
H1631 H 0.31631 0.00887 0.21603 0.0
H1632 H 0.03281 0.70847 0.79958 0.0
H1633 H 0.02701 0.73061 0.77928 0.0
H1634 H 0.98153 0.70554 0.76483 0.0
H1635 H 0.98745 0.68319 0.7848 0.0
H1636 H -0.00016 0.71478 0.73808 0.0
H1637 H 0.99332 0.76835 0.78153 0.0
H1638 H 0.01273 0.75735 0.78383 0.0
H1639 H 0.99339 0.74693 0.7886 0.0
C1640 C 0.02152 0.70775 0.79216 0.0
C1641 C 0.01057 0.69412 0.79378 0.0
C1642 C 0.01816 0.72047 0.78065 0.0
C1643 C 0.0037 0.71986 0.77073 0.0
C1644 C 0.99272 0.70629 0.77242 0.0
H1645 H 0.96409 0.79977 0.70848 0.0
H1646 H 0.96893 0.77888 0.73034 0.0
C1647 C 0.99612 0.69354 0.78383 0.0
C1648 C 0.0004 0.73289 0.75798 0.0
H1649 H 0.99505 0.77488 0.75252 0.0
C1650 C 0.99872 0.72792 0.74125 0.0
C1651 C 0.99873 0.74999 0.76217 0.0
C1652 C 0.99946 0.75599 0.78002 0.0
C1653 C 0.99567 0.73959 0.72854 0.0
C1654 C 0.99465 0.75676 0.73263 0.0
C1655 C 0.99603 0.76172 0.74939 0.0
C1656 C 0.99202 0.76972 0.71967 0.0
C1657 C 0.99328 0.73337 0.71089 0.0
C1658 C 0.00356 0.77168 0.70662 0.0
C1659 C 0.00078 0.78351 0.69408 0.0
C1660 C 0.9865 0.79371 0.69449 0.0
C1661 C 0.97518 0.79204 0.70782 0.0
C1662 C 0.97794 0.78014 0.72031 0.0
H1663 H 0.9898 0.71994 0.71061 0.0
H1664 H 0.98346 0.74064 0.70431 0.0
H1665 H 0.00517 0.73482 0.7039 0.0
H1666 H 0.01471 0.76403 0.70609 0.0
H1667 H 0.0098 0.78461 0.68405 0.0
H1668 H 0.19344 0.9723 0.71372 0.0
H1669 H 0.21318 0.97859 0.73628 0.0
H1670 H 0.24359 0.0068 0.70185 0.0
H1671 H 0.22377 0.0009 0.6794 0.0
H1672 H 0.24614 0.97085 0.73904 0.0
H1673 H 0.23814 0.03957 0.74001 0.0
H1674 H 0.22394 0.02587 0.72909 0.0
H1675 H 0.24347 0.03183 0.71966 0.0
C1676 C 0.20429 0.97992 0.711 0.0
C1677 C 0.20702 0.9862 0.69483 0.0
C1678 C 0.21555 0.98349 0.72389 0.0
C1679 C 0.22969 0.99343 0.72082 0.0
C1680 C 0.23254 0.99949 0.70461 0.0
H1681 H 0.32167 0.9987 0.77653 0.0
H1682 H 0.29906 0.99277 0.75687 0.0
C1683 C 0.22126 0.996 0.69176 0.0
C1684 C 0.24178 0.997 0.73439 0.0
H1685 H 0.26199 0.02877 0.75444 0.0
C1686 C 0.2495 0.98351 0.74252 0.0
C1687 C 0.24596 0.01352 0.73911 0.0
C1688 C 0.23731 0.02852 0.73164 0.0
C1689 C 0.2617 0.9861 0.75485 0.0
C1690 C 0.26654 0.00262 0.75889 0.0
C1691 C 0.25842 0.01611 0.75117 0.0
C1692 C 0.28021 0.00619 0.77087 0.0
C1693 C 0.26918 0.97111 0.76351 0.0
C1694 C 0.27725 0.01614 0.78501 0.0
C1695 C 0.2902 0.01972 0.79617 0.0
C1696 C 0.30636 0.01343 0.79335 0.0
C1697 C 0.30933 0.00361 0.7791 0.0
C1698 C 0.29639 0.00011 0.76792 0.0
H1699 H 0.26078 0.96008 0.76276 0.0
H1700 H 0.28112 0.96777 0.75731 0.0
H1701 H 0.2718 0.97381 0.77686 0.0
H1702 H 0.26487 0.02106 0.78746 0.0
H1703 H 0.28756 0.02734 0.80704 0.0
H1704 H 0.00233 0.22386 0.67994 0.0
H1705 H 0.99682 0.2437 0.70248 0.0
H1706 H 0.01929 0.20986 0.73791 0.0
H1707 H 0.02528 0.19011 0.71529 0.0
H1708 H 0.97799 0.24041 0.73032 0.0
H1709 H 0.04398 0.25286 0.74772 0.0
H1710 H 0.03831 0.24189 0.72887 0.0
H1711 H 0.03821 0.23121 0.74863 0.0
C1712 C 0.00616 0.22067 0.69253 0.0
C1713 C 0.01433 0.20549 0.69586 0.0
C1714 C 0.00298 0.232 0.70539 0.0
C1715 C 0.00786 0.22838 0.72184 0.0
C1716 C 0.01577 0.21309 0.72526 0.0
H1717 H 0.97065 0.28625 0.80714 0.0
H1718 H 0.9766 0.26364 0.78737 0.0
C1719 C 0.01909 0.20179 0.71235 0.0
C1720 C 0.00442 0.24059 0.73534 0.0
H1721 H 0.02318 0.26507 0.76483 0.0
C1722 C 0.98786 0.24579 0.7379 0.0
C1723 C 0.01735 0.24771 0.74509 0.0
C1724 C 0.03548 0.24327 0.74238 0.0
C1725 C 0.98387 0.258 0.74983 0.0
C1726 C 0.99676 0.26491 0.75976 0.0
C1727 C 0.01331 0.25963 0.7573 0.0
C1728 C 0.99349 0.27829 0.77214 0.0
C1729 C 0.96598 0.26379 0.75128 0.0
C1730 C 0.00141 0.29384 0.77045 0.0
C1731 C 0.99819 0.30668 0.78181 0.0
C1732 C 0.98697 0.30421 0.79508 0.0
C1733 C 0.97925 0.28855 0.79694 0.0
C1734 C 0.98256 0.27566 0.78561 0.0
H1735 H 0.95853 0.26039 0.74006 0.0
H1736 H 0.9601 0.25774 0.76228 0.0
H1737 H 0.96532 0.27753 0.75303 0.0
H1738 H 0.00993 0.29612 0.76017 0.0
H1739 H 0.00435 0.3186 0.78007 0.0
H1740 H 0.78457 0.99061 0.68373 0.0
H1741 H 0.76403 0.98494 0.70563 0.0
H1742 H 0.7797 0.02927 0.73198 0.0
H1743 H 0.80054 0.03486 0.71025 0.0
H1744 H 0.77554 0.00205 0.75285 0.0
H1745 H 0.72033 0.01027 0.71177 0.0
H1746 H 0.73495 0.99506 0.70417 0.0
H1747 H 0.74106 0.01664 0.70563 0.0
C1748 C 0.78365 0.99915 0.69419 0.0
C1749 C 0.79408 0.01324 0.69524 0.0
C1750 C 0.77185 0.99594 0.70664 0.0
C1751 C 0.77014 0.00686 0.72026 0.0
C1752 C 0.78077 0.02075 0.72151 0.0
H1753 H 0.68445 0.01013 0.78643 0.0
H1754 H 0.70667 0.01636 0.76643 0.0
C1755 C 0.79264 0.02393 0.70909 0.0
C1756 C 0.75725 0.00377 0.73319 0.0
H1757 H 0.71524 0.99907 0.73878 0.0
C1758 C 0.76234 0.00146 0.74981 0.0
C1759 C 0.74003 0.00324 0.72921 0.0
C1760 C 0.73371 0.0066 0.71176 0.0
C1761 C 0.75068 0.99835 0.76255 0.0
C1762 C 0.73351 0.99721 0.75846 0.0
C1763 C 0.72842 -0.00022 0.74187 0.0
C1764 C 0.72052 0.99363 0.77118 0.0
C1765 C 0.75682 0.99663 0.78029 0.0
C1766 C 0.7209 0.97874 0.78046 0.0
C1767 C 0.70826 0.97521 0.79201 0.0
C1768 C 0.69493 0.9864 0.79428 0.0
C1769 C 0.69456 0.00126 0.78494 0.0
C1770 C 0.70725 0.00484 0.77351 0.0
H1771 H 0.76933 0.00241 0.78196 0.0
H1772 H 0.74799 0.00249 0.78924 0.0
H1773 H 0.75791 0.98317 0.78345 0.0
H1774 H 0.73081 0.96972 0.77859 0.0
H1775 H 0.7088 0.9636 0.79894 0.0
H1776 H 0.20046 0.29139 0.96414 0.0
H1777 H 0.22072 0.26927 0.97019 0.0
H1778 H 0.23337 0.29348 0.01666 0.0
H1779 H 0.21347 0.31581 0.0105 0.0
H1780 H 0.26079 0.28476 0.99936 0.0
H1781 H 0.21752 0.23078 0.00281 0.0
H1782 H 0.21595 0.24215 0.98355 0.0
H1783 H 0.21028 0.25214 0.00288 0.0
C1784 C 0.20748 0.29192 0.9757 0.0
C1785 C 0.20538 0.30531 0.98686 0.0
C1786 C 0.21897 0.27922 0.97919 0.0
C1787 C 0.22836 0.27958 0.99401 0.0
C1788 C 0.2262 0.29291 0.00519 0.0
H1789 H 0.28952 0.19904 0.03413 0.0
H1790 H 0.26766 0.21982 0.02887 0.0
C1791 C 0.21482 0.30566 0.00166 0.0
C1792 C 0.24106 0.26655 0.99752 0.0
H1793 H 0.24662 0.22448 0.00206 0.0
C1794 C 0.25767 0.27159 3e-05 0.0
C1795 C 0.23694 0.24938 0.9986 0.0
C1796 C 0.21918 0.24328 0.99699 0.0
C1797 C 0.27033 0.25993 0.00334 0.0
C1798 C 0.26633 0.24272 0.00375 0.0
C1799 C 0.24968 0.23767 0.00153 0.0
C1800 C 0.27928 0.22978 0.00658 0.0
C1801 C 0.2878 0.26622 0.00666 0.0
C1802 C 0.29287 0.22828 0.99561 0.0
C1803 C 0.30541 0.21653 0.99864 0.0
C1804 C 0.30446 0.20591 0.01259 0.0
C1805 C 0.2906 0.20709 0.0233 0.0
C1806 C 0.2781 0.21893 0.02031 0.0
H1807 H 0.2878 0.27955 0.01055 0.0
H1808 H 0.29403 0.25872 0.01653 0.0
H1809 H 0.2953 0.2652 0.99504 0.0
H1810 H 0.29382 0.23626 0.98472 0.0
H1811 H 0.31587 0.2158 0.99008 0.0
H1812 H 0.19885 0.70987 0.03398 0.0
H1813 H 0.21932 0.73183 0.02806 0.0
H1814 H 0.23252 0.70719 0.98197 0.0
H1815 H 0.21236 0.68503 0.98799 0.0
H1816 H 0.2598 0.71597 -3e-05 0.0
H1817 H 0.21671 0.76997 0.99475 0.0
H1818 H 0.21464 0.75874 0.01405 0.0
H1819 H 0.20946 0.74861 0.99466 0.0
C1820 C 0.20604 0.70921 0.02253 0.0
C1821 C 0.204 0.69576 0.01143 0.0
C1822 C 0.21764 0.72182 0.01911 0.0
C1823 C 0.22726 0.72129 0.00445 0.0
C1824 C 0.22518 0.70789 0.99332 0.0
H1825 H 0.28954 0.80099 0.96445 0.0
H1826 H 0.26758 0.78026 0.96949 0.0
C1827 C 0.21365 0.69525 0.99677 0.0
C1828 C 0.24007 0.73423 0.00104 0.0
H1829 H 0.2458 0.77622 0.99597 0.0
C1830 C 0.25672 0.72914 0.99902 0.0
C1831 C 0.236 0.75138 0.99959 0.0
C1832 C 0.21821 0.75752 0.00071 0.0
C1833 C 0.26948 0.74073 0.99587 0.0
C1834 C 0.26552 0.75794 0.99507 0.0
C1835 C 0.24882 0.76303 0.99678 0.0
C1836 C 0.27854 0.77082 0.99233 0.0
C1837 C 0.28703 0.73439 0.99313 0.0
C1838 C 0.2918 0.77259 0.00367 0.0
C1839 C 0.30439 0.78433 0.00078 0.0
C1840 C 0.30384 0.79464 0.98658 0.0
C1841 C 0.29032 0.79318 0.97547 0.0
C1842 C 0.27776 0.78136 0.97834 0.0
H1843 H 0.28714 0.72098 0.98954 0.0
H1844 H 0.2935 0.74168 0.98326 0.0
H1845 H 0.29424 0.7357 0.00491 0.0
H1846 H 0.29244 0.76484 0.01475 0.0
H1847 H 0.31458 0.78527 0.00963 0.0
H1848 H 0.79757 0.29035 0.03467 0.0
H1849 H 0.7769 0.26873 0.02815 0.0
H1850 H 0.7671 0.29232 0.98068 0.0
H1851 H 0.7874 0.31416 0.9873 0.0
H1852 H 0.73867 0.2849 0.99698 0.0
H1853 H 0.7802 0.22946 0.99645 0.0
H1854 H 0.78134 0.24119 0.01553 0.0
H1855 H 0.78815 0.25057 0.99627 0.0
C1856 C 0.79109 0.29083 0.02279 0.0
C1857 C 0.7941 0.30392 0.01148 0.0
C1858 C 0.77937 0.27842 0.01904 0.0
C1859 C 0.77065 0.27876 0.00381 0.0
C1860 C 0.77374 0.29177 0.99247 0.0
H1861 H 0.70858 0.19889 0.96351 0.0
H1862 H 0.73068 0.21945 0.96869 0.0
C1863 C 0.78534 0.30424 0.99626 0.0
C1864 C 0.75768 0.26609 2e-05 0.0
H1865 H 0.75088 0.22413 0.99614 0.0
C1866 C 0.74136 0.27162 0.99671 0.0
C1867 C 0.76125 0.24878 0.99946 0.0
C1868 C 0.77872 0.24213 0.00195 0.0
C1869 C 0.72846 0.26031 0.99313 0.0
C1870 C 0.73188 0.24297 0.99324 0.0
C1871 C 0.74825 0.23743 0.99624 0.0
C1872 C 0.71861 0.23039 0.99027 0.0
C1873 C 0.71135 0.26708 0.989 0.0
C1874 C 0.70465 0.22958 0.00083 0.0
C1875 C 0.69198 0.21796 0.99784 0.0
C1876 C 0.69315 0.20679 0.98434 0.0
C1877 C 0.70731 0.20738 0.97398 0.0
C1878 C 0.71995 0.21908 0.97693 0.0
H1879 H 0.71196 0.2803 0.98477 0.0
H1880 H 0.70523 0.25954 0.97909 0.0
H1881 H 0.7034 0.26662 0.00034 0.0
H1882 H 0.70355 0.23793 0.01143 0.0
H1883 H 0.68129 0.2177 0.00614 0.0
H1884 H 0.80957 0.71431 0.97356 0.0
H1885 H 0.79073 0.73763 0.97988 0.0
H1886 H 0.75954 0.70457 0.00887 0.0
H1887 H 0.77847 0.6814 0.00297 0.0
H1888 H 0.75814 0.74133 0.9722 0.0
H1889 H 0.76562 0.74305 0.04087 0.0
H1890 H 0.77958 0.73146 0.02747 0.0
H1891 H 0.7598 0.72266 0.03363 0.0
C1892 C 0.79876 0.71207 0.98139 0.0
C1893 C 0.79553 0.69606 0.98785 0.0
C1894 C 0.78802 0.72539 0.98499 0.0
C1895 C 0.7739 0.72291 0.99511 0.0
C1896 C 0.7706 0.70689 0.00142 0.0
H1897 H 0.68184 0.77755 0.99835 0.0
H1898 H 0.70512 0.75862 0.99278 0.0
C1899 C 0.78136 0.69362 0.99793 0.0
C1900 C 0.76213 0.73683 0.99844 0.0
H1901 H 0.7415 0.75708 0.0298 0.0
C1902 C 0.75465 0.74492 0.9848 0.0
C1903 C 0.7578 0.74172 0.01487 0.0
C1904 C 0.76626 0.73439 0.03004 0.0
C1905 C 0.74242 0.75727 0.98714 0.0
C1906 C 0.73727 0.76133 0.00356 0.0
C1907 C 0.74528 0.75377 0.01721 0.0
C1908 C 0.72324 0.77297 0.00684 0.0
C1909 C 0.73518 0.76584 0.97199 0.0
C1910 C 0.72555 0.78705 0.01705 0.0
C1911 C 0.71218 0.79779 0.02045 0.0
C1912 C 0.69628 0.79459 0.01371 0.0
C1913 C 0.69398 0.78041 0.00361 0.0
C1914 C 0.7073 0.76965 0.00031 0.0
H1915 H 0.74394 0.76536 0.96123 0.0
H1916 H 0.72352 0.75936 0.96822 0.0
H1917 H 0.73215 0.77911 0.97466 0.0
H1918 H 0.73771 0.78977 0.02233 0.0
H1919 H 0.71431 0.80861 0.0283 0.0
H1920 H 0.47355 0.69173 0.78613 0.0
H1921 H 0.47996 0.71132 0.7635 0.0
H1922 H 0.5065 0.74283 0.79827 0.0
H1923 H 0.50055 0.7231 0.8208 0.0
H1924 H 0.47131 0.74353 0.75991 0.0
H1925 H 0.54029 0.73853 0.76117 0.0
H1926 H 0.52691 0.72403 0.77208 0.0
H1927 H 0.5318 0.74403 0.78117 0.0
C1928 C 0.48084 0.70279 0.78891 0.0
C1929 C 0.48664 0.70585 0.8052 0.0
C1930 C 0.48449 0.71396 0.77598 0.0
C1931 C 0.49398 0.72838 0.77912 0.0
C1932 C 0.49956 0.73156 0.79545 0.0
H1933 H 0.49666 0.81933 0.72143 0.0
H1934 H 0.49115 0.79692 0.74142 0.0
C1935 C 0.49604 0.72034 0.80834 0.0
C1936 C 0.49747 0.74045 0.76549 0.0
H1937 H 0.52893 0.76168 0.74601 0.0
C1938 C 0.48392 0.74739 0.75678 0.0
C1939 C 0.51393 0.74527 0.7612 0.0
C1940 C 0.52907 0.73744 0.76927 0.0
C1941 C 0.48636 0.75941 0.74425 0.0
C1942 C 0.50276 0.76493 0.74063 0.0
C1943 C 0.51634 0.7576 0.74896 0.0
C1944 C 0.50609 0.77848 0.72844 0.0
C1945 C 0.47133 0.76595 0.73492 0.0
C1946 C 0.51674 0.77572 0.71477 0.0
C1947 C 0.52008 0.78859 0.70343 0.0
C1948 C 0.51284 0.80444 0.70559 0.0
C1949 C 0.5023 0.80721 0.71936 0.0
C1950 C 0.49905 0.79438 0.73073 0.0
H1951 H 0.46073 0.75701 0.73544 0.0
H1952 H 0.46715 0.77781 0.74075 0.0
H1953 H 0.47437 0.76846 0.72161 0.0
H1954 H 0.52239 0.76357 0.71284 0.0
H1955 H 0.52828 0.7861 0.69295 0.0
H1956 H 0.27393 0.49765 0.82259 0.0
H1957 H 0.25375 0.50326 0.80034 0.0
H1958 H 0.28667 0.48012 0.76449 0.0
H1959 H 0.30683 0.4742 0.78676 0.0
H1960 H 0.25788 0.52209 0.7717 0.0
H1961 H 0.24233 0.45625 0.75614 0.0
H1962 H 0.25339 0.46198 0.77494 0.0
H1963 H 0.26421 0.46114 0.75528 0.0
C1964 C 0.27684 0.49368 0.80998 0.0
C1965 C 0.29191 0.48541 0.80642 0.0
C1966 C 0.26531 0.49691 0.79729 0.0
C1967 C 0.26863 0.49192 0.78081 0.0
C1968 C 0.28373 0.48378 0.77718 0.0
H1969 H 0.213 0.52833 0.69397 0.0
H1970 H 0.23502 0.52222 0.71436 0.0
C1971 C 0.29526 0.48048 0.78989 0.0
C1972 C 0.25634 0.49556 0.76745 0.0
H1973 H 0.23074 0.47716 0.73872 0.0
C1974 C 0.25195 0.51228 0.76446 0.0
C1975 C 0.24854 0.48272 0.75816 0.0
C1976 C 0.25221 0.4645 0.76135 0.0
C1977 C 0.23992 0.51651 0.75243 0.0
C1978 C 0.23231 0.50368 0.74295 0.0
C1979 C 0.23672 0.48697 0.74592 0.0
C1980 C 0.21918 0.50727 0.7304 0.0
C1981 C 0.23513 0.53463 0.7503 0.0
C1982 C 0.20312 0.50057 0.73246 0.0
C1983 C 0.19059 0.50393 0.7208 0.0
C1984 C 0.19391 0.51403 0.70683 0.0
C1985 C 0.21005 0.5206 0.70468 0.0
C1986 C 0.22261 0.51719 0.71635 0.0
H1987 H 0.2391 0.54233 0.76115 0.0
H1988 H 0.24132 0.53969 0.73897 0.0
H1989 H 0.22142 0.53597 0.74869 0.0
H1990 H 0.20023 0.49284 0.7432 0.0
H1991 H 0.17828 0.49865 0.72278 0.0
H1992 H 0.48951 0.2861 0.81424 0.0
H1993 H 0.48425 0.26601 0.79185 0.0
H1994 H 0.52853 0.28283 0.76616 0.0
H1995 H 0.53377 0.30319 0.78846 0.0
H1996 H 0.50077 0.27819 0.74501 0.0
H1997 H 0.5115 0.22308 0.78566 0.0
H1998 H 0.49608 0.2373 0.7936 0.0
H1999 H 0.51745 0.24397 0.79171 0.0
C2000 C 0.4981 0.28558 0.8038 0.0
C2001 C 0.51213 0.29612 0.80315 0.0
C2002 C 0.49512 0.27404 0.79106 0.0
C2003 C 0.50617 0.27274 0.77752 0.0
C2004 C 0.51991 0.28359 0.77657 0.0
H2005 H 0.5104 0.18727 0.71096 0.0
H2006 H 0.51678 0.20976 0.73062 0.0
C2007 C 0.5229 0.29518 0.78931 0.0
C2008 C 0.50347 0.25987 0.76451 0.0
H2009 H 0.50005 0.21776 0.75881 0.0
C2010 C 0.50068 0.26497 0.74797 0.0
C2011 C 0.50362 0.24263 0.7684 0.0
C2012 C 0.50748 0.23636 0.78577 0.0
C2013 C 0.49767 0.25326 0.73524 0.0
C2014 C 0.49716 0.23604 0.73928 0.0
C2015 C 0.50029 0.23096 0.75577 0.0
C2016 C 0.49354 0.223 0.72663 0.0
C2017 C 0.4953 0.25941 0.71758 0.0
C2018 C 0.47833 0.22296 0.71788 0.0
C2019 C 0.47469 0.21016 0.70655 0.0
C2020 C 0.48612 0.19708 0.70395 0.0
C2021 C 0.50134 0.19717 0.71272 0.0
C2022 C 0.505 0.21001 0.72395 0.0
H2023 H 0.50068 0.27209 0.71582 0.0
H2024 H 0.50117 0.25078 0.70845 0.0
H2025 H 0.48174 0.26013 0.71479 0.0
H2026 H 0.46913 0.23264 0.72005 0.0
H2027 H 0.46282 0.21035 0.70005 0.0
H2028 H 0.81547 0.50859 0.71611 0.0
H2029 H 0.79329 0.51379 0.73646 0.0
H2030 H 0.76724 0.46975 0.71951 0.0
H2031 H 0.78925 0.46465 0.69884 0.0
H2032 H 0.74624 0.49678 0.72396 0.0
H2033 H 0.78661 0.48767 0.77954 0.0
H2034 H 0.79438 0.50319 0.76534 0.0
H2035 H 0.79307 0.48173 0.75877 0.0
C2036 C 0.80502 0.50001 0.71671 0.0
C2037 C 0.80414 0.48615 0.70597 0.0
C2038 C 0.7924 0.50295 0.7284 0.0
C2039 C 0.77878 0.49198 0.7297 0.0
C2040 C 0.7777 0.47831 0.71877 0.0
H2041 H 0.71168 0.48778 0.81468 0.0
H2042 H 0.7317 0.48156 0.79247 0.0
C2043 C 0.79029 0.4754 0.707 0.0
C2044 C 0.76568 0.4948 0.74246 0.0
H2045 H 0.75955 0.49888 0.78446 0.0
C2046 C 0.74911 0.49717 0.7372 0.0
C2047 C 0.76943 0.49505 0.75973 0.0
C2048 C 0.7868 0.49161 0.76623 0.0
C2049 C 0.73623 0.50011 0.74875 0.0
C2050 C 0.74011 0.501 0.76597 0.0
C2051 C 0.75663 0.49834 0.77123 0.0
C2052 C 0.72726 0.5045 0.77885 0.0
C2053 C 0.71857 0.50194 0.74241 0.0
C2054 C 0.71812 0.51948 0.77857 0.0
C2055 C 0.70658 0.52301 0.79121 0.0
C2056 C 0.70415 0.51172 0.80443 0.0
C2057 C 0.71329 0.49673 0.80465 0.0
C2058 C 0.72473 0.49316 0.79198 0.0
H2059 H 0.71704 0.49632 0.72981 0.0
H2060 H 0.7095 0.49598 0.75107 0.0
H2061 H 0.71545 0.51541 0.74146 0.0
H2062 H 0.72015 0.52858 0.76877 0.0
H2063 H 0.6998 0.53472 0.79078 0.0
H2064 H 0.49168 0.18315 0.2824 0.0
H2065 H 0.48649 0.20537 0.26209 0.0
H2066 H 0.52909 0.23259 0.28077 0.0
H2067 H 0.5342 0.21051 0.30137 0.0
H2068 H 0.50144 0.25274 0.27565 0.0
H2069 H 0.51397 0.21344 0.21999 0.0
H2070 H 0.4983 0.20489 0.23358 0.0
H2071 H 0.51946 0.20698 0.24088 0.0
C2072 C 0.49995 0.19387 0.28219 0.0
C2073 C 0.51341 0.19505 0.2934 0.0
C2074 C 0.49702 0.2065 0.27052 0.0
C2075 C 0.50759 0.22047 0.26973 0.0
C2076 C 0.52085 0.22185 0.28112 0.0
H2077 H 0.51129 0.28872 0.18544 0.0
H2078 H 0.51786 0.26864 0.20752 0.0
C2079 C 0.52376 0.20924 0.29286 0.0
C2080 C 0.50477 0.23363 0.25702 0.0
H2081 H 0.50178 0.24007 0.21498 0.0
C2082 C 0.50159 0.25002 0.26238 0.0
C2083 C 0.50524 0.23007 0.23971 0.0
C2084 C 0.50959 0.21293 0.23316 0.0
C2085 C 0.4985 0.26291 0.25088 0.0
C2086 C 0.49827 0.2592 0.23359 0.0
C2087 C 0.5018 0.24287 0.22824 0.0
C2088 C 0.49451 0.27203 0.22076 0.0
C2089 C 0.49576 0.2804 0.25735 0.0
C2090 C 0.47919 0.28056 0.22084 0.0
C2091 C 0.47546 0.29214 0.20829 0.0
C2092 C 0.4869 0.29519 0.19533 0.0
C2093 C 0.50222 0.28662 0.19527 0.0
C2094 C 0.50599 0.27515 0.20787 0.0
H2095 H 0.50108 0.28203 0.27007 0.0
H2096 H 0.50147 0.28983 0.24892 0.0
H2097 H 0.48214 0.28291 0.25809 0.0
H2098 H 0.46997 0.27806 0.23042 0.0
H2099 H 0.4635 0.29848 0.20859 0.0
H2100 H 0.81984 0.49636 0.27737 0.0
H2101 H 0.79757 0.49088 0.25722 0.0
H2102 H 0.76344 0.52034 0.28677 0.0
H2103 H 0.78583 0.5262 0.30683 0.0
H2104 H 0.7674 0.47546 0.26134 0.0
H2105 H 0.75854 0.54112 0.24069 0.0
H2106 H 0.77624 0.53459 0.25303 0.0
H2107 H 0.75629 0.53799 0.26279 0.0
C2108 C 0.80761 0.50172 0.27957 0.0
C2109 C 0.80459 0.5118 0.29362 0.0
C2110 C 0.79489 0.49855 0.26806 0.0
C2111 C 0.77891 0.50539 0.27037 0.0
C2112 C 0.77577 0.51523 0.28455 0.0
H2113 H 0.69159 0.47251 0.21301 0.0
H2114 H 0.71149 0.47814 0.23558 0.0
C2115 C 0.78854 0.51849 0.29604 0.0
C2116 C 0.76562 0.50208 0.2579 0.0
H2117 H 0.73968 0.52109 0.22988 0.0
C2118 C 0.7613 0.48543 0.25448 0.0
C2119 C 0.75783 0.51511 0.24884 0.0
C2120 C 0.76254 0.5332 0.25137 0.0
C2121 C 0.74945 0.48143 0.24217 0.0
C2122 C 0.74147 0.49447 0.23331 0.0
C2123 C 0.74573 0.51113 0.23679 0.0
C2124 C 0.72924 0.49112 0.21981 0.0
C2125 C 0.746 0.46327 0.23842 0.0
C2126 C 0.7324 0.4969 0.20356 0.0
C2127 C 0.72099 0.49385 0.19072 0.0
C2128 C 0.70619 0.48497 0.19389 0.0
C2129 C 0.70296 0.47927 0.21018 0.0
C2130 C 0.71435 0.48241 0.22306 0.0
H2131 H 0.75606 0.455 0.24324 0.0
H2132 H 0.73413 0.45953 0.24452 0.0
H2133 H 0.7447 0.46117 0.22477 0.0
H2134 H 0.74379 0.50368 0.20079 0.0
H2135 H 0.72381 0.49842 0.1783 0.0
H2136 H 0.49599 0.71844 0.1837 0.0
H2137 H 0.49052 0.73769 0.20673 0.0
H2138 H 0.52125 0.70766 0.23929 0.0
H2139 H 0.52715 0.68853 0.2161 0.0
H2140 H 0.476 0.73294 0.23706 0.0
H2141 H 0.54183 0.75362 0.24476 0.0
H2142 H 0.53496 0.74153 0.22703 0.0
H2143 H 0.53871 0.7315 0.24678 0.0
C2144 C 0.50159 0.71592 0.19576 0.0
C2145 C 0.51211 0.70206 0.19808 0.0
C2146 C 0.49842 0.72691 0.20892 0.0
C2147 C 0.50568 0.72426 0.22466 0.0
C2148 C 0.51582 0.71016 0.22715 0.0
H2149 H 0.47348 0.78375 0.31134 0.0
H2150 H 0.4792 0.76025 0.29254 0.0
C2151 C 0.51911 0.6992 0.21393 0.0
C2152 C 0.50265 0.73643 0.23829 0.0
H2153 H 0.52213 0.76459 0.26373 0.0
C2154 C 0.48608 0.73982 0.24297 0.0
C2155 C 0.51582 0.74549 0.24584 0.0
C2156 C 0.53382 0.743 0.24078 0.0
C2157 C 0.48229 0.75222 0.25477 0.0
C2158 C 0.49548 0.7612 0.2624 0.0
C2159 C 0.51206 0.75761 0.25794 0.0
C2160 C 0.49234 0.77515 0.27418 0.0
C2161 C 0.46419 0.75603 0.25845 0.0
C2162 C 0.49826 0.79121 0.27035 0.0
C2163 C 0.49521 0.80456 0.28114 0.0
C2164 C 0.48614 0.80213 0.29597 0.0
C2165 C 0.48038 0.78601 0.29992 0.0
C2166 C 0.48356 0.7726 0.28916 0.0
H2167 H 0.45574 0.75096 0.24867 0.0
H2168 H 0.46067 0.75023 0.27054 0.0
H2169 H 0.4621 0.76971 0.25944 0.0
H2170 H 0.50509 0.79346 0.25888 0.0
H2171 H 0.49983 0.81683 0.27778 0.0
H2172 H 0.29997 0.53336 0.20917 0.0
H2173 H 0.27964 0.5272 0.23118 0.0
H2174 H 0.26132 0.48531 0.20263 0.0
H2175 H 0.28128 0.49167 0.1804 0.0
H2176 H 0.23621 0.5041 0.21424 0.0
H2177 H 0.2804 0.49047 0.26579 0.0
H2178 H 0.28363 0.51064 0.25654 0.0
H2179 H 0.28699 0.49209 0.24429 0.0
C2180 C 0.29166 0.52279 0.20764 0.0
C2181 C 0.29222 0.51298 0.19309 0.0
C2182 C 0.28014 0.51921 0.22028 0.0
C2183 C 0.26915 0.50562 0.21868 0.0
C2184 C 0.26973 0.49581 0.20416 0.0
H2185 H 0.20707 0.46337 0.29738 0.0
H2186 H 0.22863 0.46872 0.27631 0.0
C2187 C 0.28114 0.49946 0.19147 0.0
C2188 C 0.25653 0.50201 0.23176 0.0
H2189 H 0.25173 0.4935 0.2733 0.0
C2190 C 0.23961 0.50171 0.22714 0.0
C2191 C 0.261 0.49866 0.24854 0.0
C2192 C 0.279 0.4978 0.25408 0.0
C2193 C 0.22702 0.49837 0.23886 0.0
C2194 C 0.23143 0.49571 0.25578 0.0
C2195 C 0.24836 0.49574 0.26037 0.0
C2196 C 0.21865 0.49272 0.26884 0.0
C2197 C 0.20914 0.4974 0.23291 0.0
C2198 C 0.20608 0.50458 0.27186 0.0
C2199 C 0.19369 0.50148 0.28374 0.0
C2200 C 0.19379 0.48658 0.29303 0.0
C2201 C 0.20666 0.47494 0.29037 0.0
C2202 C 0.21899 0.47799 0.27836 0.0
H2203 H 0.20842 0.49484 0.21929 0.0
H2204 H 0.20213 0.4875 0.23965 0.0
H2205 H 0.20289 0.50955 0.23527 0.0
H2206 H 0.20583 0.51622 0.26497 0.0
H2207 H 0.18402 0.51076 0.28565 0.0
H2208 H 0.79238 0.70087 0.53489 0.0
H2209 H 0.77022 0.72103 0.52875 0.0
H2210 H 0.79212 0.73045 0.48039 0.0
H2211 H 0.81455 0.71068 0.48666 0.0
H2212 H 0.78469 0.75893 0.49609 0.0
H2213 H 0.72995 0.71664 0.49878 0.0
H2214 H 0.74227 0.7161 0.5175 0.0
H2215 H 0.75115 0.70897 0.4981 0.0
C2216 C 0.79238 0.70715 0.52291 0.0
C2217 C 0.80517 0.7042 0.51125 0.0
C2218 C 0.77965 0.71858 0.51936 0.0
C2219 C 0.77934 0.72705 0.50399 0.0
C2220 C 0.79206 0.72401 0.4923 0.0
H2221 H 0.6967 0.78715 0.46635 0.0
H2222 H 0.71755 0.76527 0.47121 0.0
C2223 C 0.80486 0.71271 0.49589 0.0
C2224 C 0.76632 0.73974 0.50042 0.0
H2225 H 0.72414 0.74591 0.49848 0.0
C2226 C 0.77145 0.75605 0.49652 0.0
C2227 C 0.74905 0.73592 0.50075 0.0
C2228 C 0.74276 0.71842 0.50384 0.0
C2229 C 0.75981 0.76872 0.49322 0.0
C2230 C 0.74254 0.76509 0.4943 0.0
C2231 C 0.73739 0.74871 0.49787 0.0
C2232 C 0.72965 0.77814 0.49169 0.0
C2233 C 0.76615 0.7858 0.48833 0.0
C2234 C 0.72934 0.79247 0.50179 0.0
C2235 C 0.71756 0.80502 0.49896 0.0
C2236 C 0.70571 0.80336 0.48611 0.0
C2237 C 0.70571 0.78879 0.47631 0.0
C2238 C 0.71759 0.77628 0.47908 0.0
H2239 H 0.7791 0.78521 0.48334 0.0
H2240 H 0.75799 0.79165 0.47876 0.0
H2241 H 0.76631 0.79399 0.49953 0.0
H2242 H 0.73826 0.79397 0.51186 0.0
H2243 H 0.71776 0.81604 0.50681 0.0
H2244 H 0.69969 0.20741 0.53492 0.0
H2245 H 0.72019 0.22934 0.52895 0.0
H2246 H 0.73532 0.20314 0.48434 0.0
H2247 H 0.71514 0.18102 0.49042 0.0
H2248 H 0.76185 0.21316 0.50287 0.0
H2249 H 0.71791 0.266 0.49393 0.0
H2250 H 0.71546 0.25551 0.5136 0.0
H2251 H 0.71109 0.24451 0.4945 0.0
C2252 C 0.70734 0.20638 0.5238 0.0
C2253 C 0.70581 0.19253 0.51312 0.0
C2254 C 0.71895 0.21897 0.52034 0.0
C2255 C 0.72909 0.21801 0.50605 0.0
C2256 C 0.72757 0.20417 0.49539 0.0
H2257 H 0.79056 0.29719 0.46403 0.0
H2258 H 0.76901 0.27613 0.46952 0.0
C2259 C 0.71603 0.19155 0.49888 0.0
C2260 C 0.74176 0.23105 0.5025 0.0
H2261 H 0.74681 0.27284 0.49553 0.0
C2262 C 0.75856 0.2262 0.50121 0.0
C2263 C 0.7374 0.24802 0.50012 0.0
C2264 C 0.71947 0.25383 0.50044 0.0
C2265 C 0.77117 0.23788 0.49781 0.0
C2266 C 0.7669 0.25495 0.49604 0.0
C2267 C 0.75007 0.25978 0.49708 0.0
C2268 C 0.77973 0.26794 0.49296 0.0
C2269 C 0.78891 0.23177 0.49585 0.0
C2270 C 0.79271 0.27051 0.50445 0.0
C2271 C 0.80507 0.28242 0.50129 0.0
C2272 C 0.80455 0.29213 0.48667 0.0
C2273 C 0.7913 0.28985 0.47538 0.0
C2274 C 0.77899 0.27785 0.4785 0.0
H2275 H 0.78936 0.21821 0.4929 0.0
H2276 H 0.79551 0.23871 0.48582 0.0
H2277 H 0.79575 0.23376 0.50774 0.0
H2278 H 0.7933 0.26328 0.51588 0.0
H2279 H 0.81505 0.284 0.51031 0.0
H2280 H 0.28388 0.81439 0.49008 0.0
H2281 H 0.26382 0.79196 0.48477 0.0
H2282 H 0.28202 0.76528 0.5279 0.0
H2283 H 0.30231 0.78761 0.5332 0.0
H2284 H 0.27708 0.74491 0.49942 0.0
H2285 H 0.22166 0.78431 0.51307 0.0
H2286 H 0.23543 0.7929 0.49758 0.0
H2287 H 0.24261 0.79045 0.51872 0.0
C2288 C 0.28365 0.80373 0.49841 0.0
C2289 C 0.29458 0.8028 0.51213 0.0
C2290 C 0.27214 0.79097 0.4954 0.0
C2291 C 0.27127 0.77712 0.5061 0.0
C2292 C 0.28245 0.77593 0.51955 0.0
H2293 H 0.18745 0.70878 0.51185 0.0
H2294 H 0.21005 0.72842 0.51791 0.0
C2295 C 0.294 0.78869 0.52257 0.0
C2296 C 0.25853 0.76399 0.50335 0.0
H2297 H 0.21643 0.75759 0.50134 0.0
C2298 C 0.26382 0.74763 0.49989 0.0
C2299 C 0.24125 0.76756 0.50422 0.0
C2300 C 0.23485 0.78471 0.50876 0.0
C2301 C 0.25223 0.73478 0.49693 0.0
C2302 C 0.23495 0.7385 0.49722 0.0
C2303 C 0.22969 0.7548 0.50099 0.0
C2304 C 0.22201 0.7257 0.49381 0.0
C2305 C 0.25857 0.71731 0.49376 0.0
C2306 C 0.22126 0.71763 0.47825 0.0
C2307 C 0.20838 0.70633 0.47478 0.0
C2308 C 0.19596 0.70307 0.48676 0.0
C2309 C 0.19684 0.71105 0.50237 0.0
C2310 C 0.20973 0.72227 0.50585 0.0
H2311 H 0.27157 0.71567 0.49835 0.0
H2312 H 0.25045 0.70787 0.49988 0.0
H2313 H 0.25852 0.71486 0.48011 0.0
H2314 H 0.2304 0.72036 0.46865 0.0
H2315 H 0.20795 0.70044 0.4626 0.0
H2316 H 0.21398 0.30883 0.52469 0.0
H2317 H 0.23658 0.28925 0.51813 0.0
H2318 H 0.20115 0.25618 0.49454 0.0
H2319 H 0.1786 0.27584 0.50068 0.0
H2320 H 0.241 0.25716 0.52777 0.0
H2321 H 0.23662 0.26024 0.4588 0.0
H2322 H 0.22622 0.27504 0.47226 0.0
H2323 H 0.21709 0.25485 0.46837 0.0
C2324 C 0.21103 0.29741 0.51803 0.0
C2325 C 0.19455 0.2939 0.5131 0.0
C2326 C 0.22395 0.28625 0.5143 0.0
C2327 C 0.2206 0.27141 0.50556 0.0
C2328 C 0.20409 0.26776 0.50088 0.0
H2329 H 0.27847 0.18081 0.50256 0.0
H2330 H 0.25882 0.20341 0.50848 0.0
C2331 C 0.1912 0.27895 0.50451 0.0
C2332 C 0.23425 0.25947 0.50181 0.0
H2333 H 0.25256 0.2376 0.47009 0.0
C2334 C 0.24363 0.25299 0.51514 0.0
C2335 C 0.23788 0.25426 0.48531 0.0
C2336 C 0.22904 0.26159 0.47035 0.0
C2337 C 0.25616 0.24101 0.51247 0.0
C2338 C 0.25911 0.23509 0.49608 0.0
C2339 C 0.25013 0.24199 0.48268 0.0
C2340 C 0.27117 0.22148 0.49258 0.0
C2341 C 0.26617 0.23492 0.52724 0.0
C2342 C 0.28436 0.22397 0.48129 0.0
C2343 C 0.29551 0.21099 0.47772 0.0
C2344 C 0.29361 0.1953 0.48537 0.0
C2345 C 0.28032 0.19281 0.49657 0.0
C2346 C 0.26915 0.20575 0.50006 0.0
H2347 H 0.26606 0.24414 0.53762 0.0
H2348 H 0.2606 0.22314 0.53198 0.0
H2349 H 0.27935 0.2324 0.52369 0.0
H2350 H 0.28606 0.23598 0.47528 0.0
H2351 H 0.30561 0.21326 0.46901 0.0
H2352 H 0.0598 0.31605 0.13124 0.0
H2353 H 0.07916 0.31665 0.10747 0.0
H2354 H 0.07787 0.3705 0.10761 0.0
H2355 H 0.05845 0.37005 0.13125 0.0
H2356 H 0.07172 0.33506 0.07494 0.0
H2357 H 0.12922 0.3558 0.10819 0.0
H2358 H 0.11226 0.34527 0.11877 0.0
H2359 H 0.11007 0.36673 0.1127 0.0
C2360 C 0.06372 0.32801 0.12626 0.0
C2361 C 0.05762 0.34301 0.13308 0.0
C2362 C 0.07475 0.32832 0.11271 0.0
C2363 C 0.08 0.34361 0.10595 0.0
C2364 C 0.07407 0.35859 0.11281 0.0
H2365 H 0.14697 0.37103 0.02487 0.0
H2366 H 0.12876 0.3709 0.04951 0.0
C2367 C 0.06294 0.3583 0.12625 0.0
C2368 C 0.09115 0.34393 0.09125 0.0
H2369 H 0.13079 0.35352 0.07882 0.0
C2370 C 0.08466 0.33902 0.07575 0.0
C2371 C 0.10791 0.34931 0.09241 0.0
C2372 C 0.11541 0.35451 0.1089 0.0
C2373 C 0.09449 0.33951 0.06125 0.0
C2374 C 0.1114 0.34459 0.06242 0.0
C2375 C 0.11785 0.34959 0.07796 0.0
C2376 C 0.12263 0.34462 0.04769 0.0
C2377 C 0.08653 0.33496 0.04476 0.0
C2378 C 0.12546 0.32984 0.0387 0.0
C2379 C 0.1357 0.32992 0.02459 0.0
C2380 C 0.14352 0.34474 0.01934 0.0
C2381 C 0.14106 0.35944 0.02861 0.0
C2382 C 0.13069 0.35938 0.04267 0.0
H2383 H 0.07272 0.3363 0.04522 0.0
H2384 H 0.09141 0.34288 0.03447 0.0
H2385 H 0.08939 0.32172 0.04182 0.0
H2386 H 0.11975 0.31821 0.04261 0.0
H2387 H 0.1375 0.31835 0.0178 0.0
H2388 H 0.62951 0.0552 0.12781 0.0
H2389 H 0.62913 0.07482 0.10432 0.0
H2390 H 0.68245 0.08117 0.10861 0.0
H2391 H 0.68296 0.06163 0.1322 0.0
H2392 H 0.64314 0.11014 0.10432 0.0
H2393 H 0.67197 0.06645 0.05849 0.0
H2394 H 0.66153 0.05924 0.07716 0.0
H2395 H 0.68196 0.06834 0.07855 0.0
C2396 C 0.64116 0.06078 0.12376 0.0
C2397 C 0.65628 0.05685 0.13179 0.0
C2398 C 0.6409 0.07199 0.11039 0.0
C2399 C 0.65577 0.0793 0.10473 0.0
C2400 C 0.67087 0.07552 0.11277 0.0
H2401 H 0.68124 0.14163 0.02033 0.0
H2402 H 0.68127 0.12412 0.04533 0.0
C2403 C 0.67113 0.0644 0.12623 0.0
C2404 C 0.65549 0.09081 0.0903 0.0
H2405 H 0.66684 0.09397 0.04937 0.0
C2406 C 0.64828 0.10666 0.09227 0.0
C2407 C 0.66226 0.08615 0.0747 0.0
C2408 C 0.66979 0.06909 0.07194 0.0
C2409 C 0.64793 0.11816 0.07903 0.0
C2410 C 0.65459 0.11346 0.06333 0.0
C2411 C 0.66175 0.09755 0.06141 0.0
C2412 C 0.65444 0.12484 0.04871 0.0
C2413 C 0.64083 0.13535 0.08211 0.0
C2414 C 0.63934 0.13107 0.04229 0.0
C2415 C 0.63931 0.14123 0.02807 0.0
C2416 C 0.65436 0.1451 0.0199 0.0
C2417 C 0.66944 0.13886 0.02636 0.0
C2418 C 0.66948 0.12884 0.04063 0.0
H2419 H 0.64073 0.1385 0.09563 0.0
H2420 H 0.64808 0.14506 0.07535 0.0
H2421 H 0.62774 0.13575 0.07756 0.0
H2422 H 0.62755 0.12782 0.04808 0.0
H2423 H 0.62749 0.14576 0.02327 0.0
H2424 H 0.95585 0.6381 0.11909 0.0
H2425 H 0.9359 0.63786 0.09598 0.0
H2426 H 0.9045 0.67265 0.12265 0.0
H2427 H 0.92482 0.67348 0.14551 0.0
H2428 H 0.90432 0.62851 0.09417 0.0
H2429 H 0.90847 0.69592 0.07866 0.0
H2430 H 0.9227 0.68597 0.093 0.0
H2431 H 0.90217 0.69216 0.09982 0.0
C2432 C 0.94474 0.64577 0.11998 0.0
C2433 C 0.94195 0.65594 0.13401 0.0
C2434 C 0.93332 0.64559 0.10679 0.0
C2435 C 0.91883 0.65546 0.10743 0.0
C2436 C 0.91581 0.66531 0.12165 0.0
H2437 H 0.83698 0.64004 0.03564 0.0
H2438 H 0.85392 0.64021 0.06117 0.0
C2439 C 0.92738 0.6657 0.13474 0.0
C2440 C 0.90692 0.65528 0.0932 0.0
H2441 H 0.88775 0.6803 0.06448 0.0
C2442 C 0.9007 0.63983 0.08766 0.0
C2443 C 0.90234 0.67004 0.08461 0.0
C2444 C 0.90939 0.68693 0.0892 0.0
C2445 C 0.8902 0.6387 0.07365 0.0
C2446 C 0.88534 0.6535 0.06528 0.0
C2447 C 0.89138 0.66896 0.07098 0.0
C2448 C 0.87483 0.65326 0.04999 0.0
C2449 C 0.88498 0.62161 0.06761 0.0
C2450 C 0.88071 0.66096 0.03537 0.0
C2451 C 0.87093 0.6612 0.02095 0.0
C2452 C 0.85511 0.65361 0.0208 0.0
C2453 C 0.8492 0.64583 0.03539 0.0
C2454 C 0.85892 0.64583 0.04994 0.0
H2455 H 0.89339 0.61167 0.07243 0.0
H2456 H 0.87217 0.61888 0.07217 0.0
H2457 H 0.88491 0.62098 0.05376 0.0
H2458 H 0.89293 0.66678 0.03509 0.0
H2459 H 0.87581 0.66726 0.00988 0.0
H2460 H 0.32286 0.86952 0.01549 0.0
H2461 H 0.32465 0.88726 0.04027 0.0
H2462 H 0.37114 0.86373 0.05397 0.0
H2463 H 0.36943 0.8458 0.02913 0.0
H2464 H 0.347 0.86747 0.08077 0.0
H2465 H 0.3582 0.92649 0.04604 0.0
H2466 H 0.34049 0.91467 0.03893 0.0
H2467 H 0.36114 0.90614 0.03673 0.0
C2468 C 0.33348 0.8681 0.02376 0.0
C2469 C 0.34606 0.85633 0.02034 0.0
C2470 C 0.33451 0.87829 0.03787 0.0
C2471 C 0.34813 0.87694 0.04879 0.0
C2472 C 0.36057 0.865 0.04561 0.0
H2473 H 0.37208 0.94958 0.12615 0.0
H2474 H 0.37344 0.92991 0.10276 0.0
C2475 C 0.35958 0.8548 0.03144 0.0
C2476 C 0.34927 0.88801 0.06355 0.0
H2477 H 0.35186 0.92901 0.07495 0.0
C2478 C 0.34818 0.88091 0.07954 0.0
C2479 C 0.35098 0.90551 0.06185 0.0
C2480 C 0.35292 0.91369 0.04498 0.0
C2481 C 0.34827 0.89096 0.09392 0.0
C2482 C 0.34932 0.90852 0.09219 0.0
C2483 C 0.3509 0.91555 0.07621 0.0
C2484 C 0.34866 0.91988 0.10677 0.0
C2485 C 0.3473 0.88273 0.11085 0.0
C2486 C 0.33422 0.92081 0.11667 0.0
C2487 C 0.33338 0.93206 0.13001 0.0
C2488 C 0.34697 0.94259 0.13361 0.0
C2489 C 0.36143 0.94159 0.12369 0.0
C2490 C 0.36223 0.93038 0.11034 0.0
H2491 H 0.35075 0.8693 0.11024 0.0
H2492 H 0.35566 0.88908 0.11993 0.0
H2493 H 0.33431 0.88362 0.11562 0.0
H2494 H 0.3235 0.91302 0.11392 0.0
H2495 H 0.32206 0.9326 0.1374 0.0
H2496 H 0.0501 0.62751 0.87228 0.0
H2497 H 0.06934 0.6268 0.89604 0.0
H2498 H 0.08439 0.67746 0.88552 0.0
H2499 H 0.06521 0.67826 0.86165 0.0
H2500 H 0.1114 0.65433 0.89246 0.0
H2501 H 0.06101 0.65281 0.9403 0.0
H2502 H 0.05956 0.63723 0.92418 0.0
H2503 H 0.05726 0.65891 0.9189 0.0
C2504 C 0.05753 0.63848 0.87499 0.0
C2505 C 0.05609 0.65298 0.86517 0.0
C2506 C 0.06847 0.63807 0.8886 0.0
C2507 C 0.07811 0.65214 0.89262 0.0
C2508 C 0.07699 0.66649 0.88262 0.0
H2509 H 0.12869 0.67723 0.98414 0.0
H2510 H 0.11128 0.67603 0.95909 0.0
C2511 C 0.06602 0.66694 0.86903 0.0
C2512 C 0.08917 0.65199 0.90742 0.0
H2513 H 0.08875 0.65006 0.95002 0.0
C2514 C 0.10649 0.65337 0.90506 0.0
C2515 C 0.08266 0.65089 0.92381 0.0
C2516 C 0.0641 0.65001 0.92705 0.0
C2517 C 0.11752 0.65357 0.91871 0.0
C2518 C 0.11101 0.65224 0.93508 0.0
C2519 C 0.09369 0.65094 0.93743 0.0
C2520 C 0.12188 0.65289 0.95002 0.0
C2521 C 0.13599 0.65559 0.91556 0.0
C2522 C 0.13353 0.64018 0.95325 0.0
C2523 C 0.14351 0.64081 0.9676 0.0
C2524 C 0.14193 0.65415 0.97893 0.0
C2525 C 0.13022 0.66681 0.97564 0.0
C2526 C 0.12025 0.66615 0.96135 0.0
H2527 H 0.13862 0.65982 0.9026 0.0
H2528 H 0.14151 0.66472 0.92445 0.0
H2529 H 0.14231 0.64341 0.9175 0.0
H2530 H 0.13479 0.62971 0.94477 0.0
H2531 H 0.15239 0.63085 0.96985 0.0
H2532 H 0.32173 0.06809 0.86112 0.0
H2533 H 0.32253 0.08774 0.8846 0.0
H2534 H 0.3707 0.06849 0.89919 0.0
H2535 H 0.36993 0.04873 0.87589 0.0
H2536 H 0.34797 0.07088 0.92551 0.0
H2537 H 0.35128 0.13012 0.88953 0.0
H2538 H 0.33438 0.11656 0.88364 0.0
H2539 H 0.35558 0.10999 0.88026 0.0
C2540 C 0.33252 0.0681 0.8693 0.0
C2541 C 0.34578 0.0569 0.86667 0.0
C2542 C 0.333 0.0794 0.88262 0.0
C2543 C 0.34678 0.07972 0.89347 0.0
C2544 C 0.36 0.0685 0.89089 0.0
H2545 H 0.36925 0.15333 0.97076 0.0
H2546 H 0.37023 0.13521 0.94603 0.0
C2547 C 0.35953 0.05722 0.87759 0.0
C2548 C 0.34715 0.09124 0.90794 0.0
H2549 H 0.34659 0.13251 0.9188 0.0
C2550 C 0.34774 0.08436 0.92405 0.0
C2551 C 0.34705 0.10881 0.90596 0.0
C2552 C 0.34719 0.11686 0.88892 0.0
C2553 C 0.34786 0.09458 0.93828 0.0
C2554 C 0.34718 0.11212 0.93633 0.0
C2555 C 0.34698 0.11904 0.92022 0.0
C2556 C 0.34639 0.12344 0.95092 0.0
C2557 C 0.34885 0.08653 0.9553 0.0
C2558 C 0.33254 0.12299 0.96163 0.0
C2559 C 0.33194 0.13329 0.97569 0.0
C2560 C 0.34517 0.14427 0.97926 0.0
C2561 C 0.3589 0.14495 0.96834 0.0
C2562 C 0.35947 0.13464 0.95422 0.0
H2563 H 0.3534 0.07343 0.95456 0.0
H2564 H 0.35725 0.0937 0.9637 0.0
H2565 H 0.33621 0.08635 0.961 0.0
H2566 H 0.3222 0.11461 0.95913 0.0
H2567 H 0.32114 0.13254 0.98382 0.0
H2568 H 0.86242 0.32016 0.97959 0.0
H2569 H 0.87951 0.32192 0.95431 0.0
H2570 H 0.86869 0.37454 0.95045 0.0
H2571 H 0.85139 0.3729 0.97575 0.0
H2572 H 0.86763 0.33688 0.92036 0.0
H2573 H 0.92239 0.36733 0.95082 0.0
H2574 H 0.90766 0.35482 0.96251 0.0
H2575 H 0.90174 0.37516 0.95527 0.0
C2576 C 0.86365 0.33211 0.97337 0.0
C2577 C 0.85561 0.34641 0.97965 0.0
C2578 C 0.87338 0.33307 0.95893 0.0
C2579 C 0.87537 0.34836 0.95064 0.0
C2580 C 0.86732 0.36266 0.95678 0.0
H2581 H 0.94243 0.37293 0.86851 0.0
H2582 H 0.92238 0.37438 0.89153 0.0
C2583 C 0.85745 0.36169 0.97119 0.0
C2584 C 0.886 0.34924 0.9356 0.0
H2585 H 0.92471 0.36099 0.92225 0.0
C2586 C 0.88008 0.34222 0.92068 0.0
C2587 C 0.90215 0.3563 0.93615 0.0
C2588 C 0.90901 0.36381 0.95202 0.0
C2589 C 0.88999 0.34202 0.90621 0.0
C2590 C 0.9064 0.3486 0.90688 0.0
C2591 C 0.91216 0.35591 0.92177 0.0
C2592 C 0.91796 0.34771 0.89244 0.0
C2593 C 0.88269 0.33495 0.89033 0.0
C2594 C 0.92222 0.33223 0.88536 0.0
C2595 C 0.93357 0.33138 0.87211 0.0
C2596 C 0.94105 0.34598 0.86589 0.0
C2597 C 0.93685 0.36146 0.87304 0.0
C2598 C 0.92541 0.36231 0.8862 0.0
H2599 H 0.86881 0.33539 0.89048 0.0
H2600 H 0.88723 0.34185 0.87919 0.0
H2601 H 0.88647 0.32167 0.8891 0.0
H2602 H 0.91699 0.32075 0.89026 0.0
H2603 H 0.93668 0.31927 0.86694 0.0
H2604 H 0.62642 0.85057 0.97496 0.0
H2605 H 0.62519 0.8675 0.94939 0.0
H2606 H 0.67857 0.87449 0.95136 0.0
H2607 H 0.67992 0.85773 0.97685 0.0
H2608 H 0.63775 0.90212 0.94689 0.0
H2609 H 0.66845 0.85842 0.90252 0.0
H2610 H 0.65895 0.85152 0.92181 0.0
H2611 H 0.67908 0.86142 0.92208 0.0
C2612 C 0.63789 0.85561 0.96984 0.0
C2613 C 0.65326 0.85284 0.97788 0.0
C2614 C 0.63716 0.86526 0.95528 0.0
C2615 C 0.65181 0.87205 0.94844 0.0
C2616 C 0.66717 0.86914 0.95633 0.0
H2617 H 0.68069 0.93695 0.86754 0.0
H2618 H 0.67915 0.91717 0.89085 0.0
C2619 C 0.66789 0.85963 0.97093 0.0
C2620 C 0.65107 0.88295 0.93355 0.0
H2621 H 0.66459 0.88635 0.89326 0.0
C2622 C 0.64344 0.89865 0.93508 0.0
C2623 C 0.65865 0.87837 0.91829 0.0
C2624 C 0.66665 0.86147 0.91594 0.0
C2625 C 0.64365 0.91016 0.92186 0.0
C2626 C 0.65133 0.90563 0.90657 0.0
C2627 C 0.65872 0.8898 0.90498 0.0
C2628 C 0.65213 0.91728 0.89219 0.0
C2629 C 0.63622 0.92727 0.92462 0.0
C2630 C 0.63746 0.92367 0.88503 0.0
C2631 C 0.63831 0.93507 0.87185 0.0
C2632 C 0.65387 0.94009 0.86541 0.0
C2633 C 0.66854 0.93333 0.87228 0.0
C2634 C 0.66767 0.92203 0.88557 0.0
H2635 H 0.63505 0.93026 0.93813 0.0
H2636 H 0.64392 0.93711 0.91858 0.0
H2637 H 0.62352 0.92768 0.91908 0.0
H2638 H 0.62533 0.91985 0.88966 0.0
H2639 H 0.62679 0.93994 0.86669 0.0
H2640 H 0.13073 0.05987 0.31635 0.0
H2641 H 0.10752 0.07976 0.3172 0.0
H2642 H 0.10909 0.07944 0.37108 0.0
H2643 H 0.13199 0.05922 0.37032 0.0
H2644 H 0.0777 0.0759 0.3595 0.0
H2645 H 0.10814 0.12915 0.32734 0.0
H2646 H 0.10864 0.11023 0.31533 0.0
H2647 H 0.11974 0.11134 0.33486 0.0
C2648 C 0.12619 0.06413 0.32837 0.0
C2649 C 0.13318 0.05802 0.34327 0.0
C2650 C 0.11301 0.07559 0.32884 0.0
C2651 C 0.10677 0.08132 0.3442 0.0
C2652 C 0.11377 0.07525 0.35909 0.0
H2653 H 0.02541 0.14862 0.37181 0.0
H2654 H 0.05056 0.13111 0.37204 0.0
C2655 C 0.12685 0.06371 0.35863 0.0
C2656 C 0.0924 0.09301 0.34481 0.0
H2657 H 0.07861 0.13104 0.33119 0.0
C2658 C 0.07796 0.08802 0.35344 0.0
C2659 C 0.09278 0.10883 0.33691 0.0
C2660 C 0.10821 0.1153 0.32823 0.0
C2661 C 0.06375 0.09825 0.35406 0.0
C2662 C 0.06404 0.1139 0.34591 0.0
C2663 C 0.07848 0.11899 0.33739 0.0
C2664 C 0.04926 0.12497 0.34575 0.0
C2665 C 0.04836 0.09211 0.36305 0.0
C2666 C 0.04044 0.12749 0.33083 0.0
C2667 C 0.02609 0.13741 0.33067 0.0
C2668 C 0.0204 0.14509 0.34541 0.0
C2669 C 0.02948 0.14283 0.36028 0.0
C2670 C 0.04379 0.13281 0.36044 0.0
H2671 H 0.04921 0.07863 0.36625 0.0
H2672 H 0.04676 0.09928 0.37481 0.0
H2673 H 0.03705 0.09415 0.35528 0.0
H2674 H 0.04452 0.12155 0.31937 0.0
H2675 H 0.01939 0.13897 0.31901 0.0
H2676 H 0.95503 0.11897 0.36353 0.0
H2677 H 0.93516 0.09578 0.36363 0.0
H2678 H 0.90419 0.12209 0.32819 0.0
H2679 H 0.92443 0.14503 0.32751 0.0
H2680 H 0.90339 0.09379 0.37242 0.0
H2681 H 0.909 0.078 0.30519 0.0
H2682 H 0.92293 0.09248 0.31537 0.0
H2683 H 0.9025 0.09915 0.30871 0.0
C2684 C 0.94402 0.11977 0.3557 0.0
C2685 C 0.94134 0.13371 0.34539 0.0
C2686 C 0.93265 0.10654 0.3558 0.0
C2687 C 0.91832 0.10705 0.3457 0.0
C2688 C 0.91539 0.12119 0.33573 0.0
H2689 H 0.8364 0.03514 0.35972 0.0
H2690 H 0.85338 0.06065 0.35986 0.0
C2691 C 0.9269 0.13433 0.33542 0.0
C2692 C 0.90652 0.09273 0.34571 0.0
H2693 H 0.88801 0.06381 0.32044 0.0
C2694 C 0.90003 0.08721 0.36105 0.0
C2695 C 0.9023 0.08404 0.3309 0.0
C2696 C 0.90967 0.0886 0.31414 0.0
C2697 C 0.88958 0.07315 0.36203 0.0
C2698 C 0.88504 0.06471 0.34717 0.0
C2699 C 0.89138 0.07036 0.33181 0.0
C2700 C 0.87454 0.04941 0.34725 0.0
C2701 C 0.88404 0.06716 0.37904 0.0
C2702 C 0.88055 0.03477 0.33969 0.0
C2703 C 0.87074 0.02037 0.33927 0.0
C2704 C 0.85478 0.02026 0.34654 0.0
C2705 C 0.84874 0.03486 0.35418 0.0
C2706 C 0.85848 0.04939 0.35435 0.0
H2707 H 0.89227 0.07201 0.38912 0.0
H2708 H 0.87119 0.07173 0.38152 0.0
H2709 H 0.88396 0.05331 0.3797 0.0
H2710 H 0.89288 0.03446 0.33412 0.0
H2711 H 0.87573 0.00928 0.33332 0.0
H2712 H 0.87135 0.94649 0.37117 0.0
H2713 H 0.89492 0.92703 0.37163 0.0
H2714 H 0.88388 0.91225 0.32101 0.0
H2715 H 0.86015 0.93161 0.32048 0.0
H2716 H 0.89132 0.88515 0.34335 0.0
H2717 H 0.93882 0.93576 0.34569 0.0
H2718 H 0.92297 0.93689 0.36156 0.0
H2719 H 0.91732 0.93953 0.33999 0.0
C2720 C 0.87389 0.93905 0.36016 0.0
C2721 C 0.86399 0.94065 0.34574 0.0
C2722 C 0.88739 0.92799 0.36043 0.0
C2723 C 0.89126 0.91841 0.34627 0.0
C2724 C 0.88111 0.91961 0.33203 0.0
H2725 H 0.98437 0.86919 0.32311 0.0
H2726 H 0.95901 0.88619 0.32336 0.0
C2727 C 0.86759 0.93068 0.33174 0.0
C2728 C 0.90612 0.90742 0.34621 0.0
H2729 H 0.94868 0.90805 0.34872 0.0
C2730 C 0.90387 0.89011 0.34452 0.0
C2731 C 0.92246 0.91401 0.34755 0.0
C2732 C 0.92563 0.93257 0.34865 0.0
C2733 C 0.91759 0.87916 0.34433 0.0
C2734 C 0.9339 0.88574 0.34604 0.0
C2735 C 0.93614 0.90306 0.34756 0.0
C2736 C 0.94892 0.87495 0.34578 0.0
C2737 C 0.91455 0.86071 0.34197 0.0
C2738 C 0.95168 0.86306 0.35838 0.0
C2739 C 0.9662 0.85332 0.35828 0.0
C2740 C 0.97819 0.85538 0.34561 0.0
C2741 C 0.97536 0.8673 0.33303 0.0
C2742 C 0.96089 0.87702 0.33315 0.0
H2743 H 0.90181 0.85814 0.3371 0.0
H2744 H 0.92385 0.85526 0.33323 0.0
H2745 H 0.91587 0.85427 0.35418 0.0
H2746 H 0.94273 0.86148 0.3684 0.0
H2747 H 0.96808 0.84426 0.36816 0.0
H2748 H 0.12877 0.98444 0.3237 0.0
H2749 H 0.11125 0.95951 0.32576 0.0
H2750 H 0.13621 0.94553 0.37141 0.0
H2751 H 0.15391 0.97052 0.36943 0.0
H2752 H 0.13215 0.919 0.34696 0.0
H2753 H 0.07304 0.95278 0.36031 0.0
H2754 H 0.08428 0.96033 0.34241 0.0
H2755 H 0.09334 0.9623 0.36285 0.0
C2756 C 0.13053 0.97608 0.3342 0.0
C2757 C 0.14265 0.97946 0.34645 0.0
C2758 C 0.12047 0.96189 0.33538 0.0
C2759 C 0.12231 0.95083 0.34884 0.0
C2760 C 0.13457 0.95399 0.36097 0.0
H2761 H 0.05103 0.87232 0.37308 0.0
H2762 H 0.07067 0.89571 0.37453 0.0
C2763 C 0.14463 0.96825 0.35984 0.0
C2764 C 0.11147 0.93592 0.35007 0.0
H2765 H 0.07069 0.92395 0.35349 0.0
C2766 C 0.11873 0.92003 0.34851 0.0
C2767 C 0.094 0.93735 0.35226 0.0
C2768 C 0.08567 0.95409 0.35471 0.0
C2769 C 0.10886 0.90552 0.34858 0.0
C2770 C 0.09132 0.90701 0.35011 0.0
C2771 C 0.08414 0.92287 0.35217 0.0
C2772 C 0.08012 0.89231 0.34943 0.0
C2773 C 0.11726 0.88872 0.34709 0.0
C2774 C 0.07889 0.88272 0.3348 0.0
C2775 C 0.06764 0.86938 0.33391 0.0
C2776 C 0.05741 0.86546 0.34764 0.0
C2777 C 0.05877 0.87503 0.36231 0.0
C2778 C 0.06997 0.88838 0.36316 0.0
H2779 H 0.13078 0.88943 0.3502 0.0
H2780 H 0.11124 0.87941 0.35543 0.0
H2781 H 0.11609 0.88418 0.33404 0.0
H2782 H 0.0864 0.88576 0.32396 0.0
H2783 H 0.06683 0.86227 0.32243 0.0
H2784 H 0.01685 0.86694 0.67786 0.0
H2785 H 0.04167 0.88467 0.67677 0.0
H2786 H 0.0539 0.86487 0.62818 0.0
H2787 H 0.02902 0.84693 0.62919 0.0
H2788 H 0.08148 0.86687 0.65143 0.0
H2789 H 0.04622 0.92642 0.64643 0.0
H2790 H 0.03988 0.91323 0.66346 0.0
H2791 H 0.03681 0.90632 0.64232 0.0
C2792 C 0.02481 0.86633 0.66693 0.0
C2793 C 0.02095 0.85561 0.65356 0.0
C2794 C 0.03895 0.87652 0.66631 0.0
C2795 C 0.04945 0.87624 0.6523 0.0
C2796 C 0.04586 0.86531 0.63906 0.0
H2797 H 0.12504 0.95092 0.63015 0.0
H2798 H 0.10167 0.93126 0.62884 0.0
C2799 C 0.03167 0.8551 0.63965 0.0
C2800 C 0.06414 0.88743 0.65154 0.0
H2801 H 0.07535 0.92857 0.65172 0.0
C2802 C 0.08018 0.88036 0.65139 0.0
C2803 C 0.06235 0.90501 0.65132 0.0
C2804 C 0.0454 0.91324 0.65074 0.0
C2805 C 0.09454 0.89046 0.65146 0.0
C2806 C 0.09273 0.90804 0.65185 0.0
C2807 C 0.07668 0.91508 0.65158 0.0
C2808 C 0.10731 0.91942 0.65247 0.0
C2809 C 0.11151 0.88227 0.65096 0.0
C2810 C 0.11814 0.91933 0.66626 0.0
C2811 C 0.1315 0.93057 0.66707 0.0
C2812 C 0.13418 0.94212 0.65411 0.0
C2813 C 0.12331 0.94215 0.64032 0.0
C2814 C 0.10996 0.93094 0.63954 0.0
H2815 H 0.11075 0.86912 0.64657 0.0
H2816 H 0.12014 0.88927 0.64266 0.0
H2817 H 0.11691 0.88222 0.66373 0.0
H2818 H 0.11611 0.91073 0.67652 0.0
H2819 H 0.13964 0.9303 0.67787 0.0
H2820 H 0.13587 0.01727 0.67982 0.0
H2821 H 0.11809 0.04207 0.67893 0.0
H2822 H 0.13561 0.05305 0.62918 0.0
H2823 H 0.15361 0.02822 0.63 0.0
H2824 H 0.13428 0.08131 0.65158 0.0
H2825 H 0.07504 0.0452 0.65034 0.0
H2826 H 0.08901 0.03962 0.667 0.0
H2827 H 0.09506 0.03588 0.6457 0.0
C2828 C 0.13599 0.02498 0.6687 0.0
C2829 C 0.14605 0.02075 0.65493 0.0
C2830 C 0.12578 0.0391 0.66819 0.0
C2831 C 0.12537 0.04921 0.6539 0.0
C2832 C 0.13571 0.04531 0.64029 0.0
H2833 H 0.0491 0.12313 0.63179 0.0
H2834 H 0.06897 0.09993 0.63068 0.0
C2835 C 0.14595 0.03114 0.64077 0.0
C2836 C 0.11397 0.06375 0.65318 0.0
H2837 H 0.07272 0.07447 0.65459 0.0
C2838 C 0.12082 0.07986 0.65216 0.0
C2839 C 0.09643 0.06174 0.65374 0.0
C2840 C 0.08839 0.04468 0.6541 0.0
C2841 C 0.11054 0.09408 0.65209 0.0
C2842 C 0.09302 0.09208 0.65323 0.0
C2843 C 0.08618 0.07595 0.65386 0.0
C2844 C 0.08149 0.10653 0.65371 0.0
C2845 C 0.11847 0.11112 0.65063 0.0
C2846 C 0.08188 0.11784 0.66711 0.0
C2847 C 0.07051 0.13109 0.66781 0.0
C2848 C 0.05854 0.13319 0.65513 0.0
C2849 C 0.0582 0.12184 0.64173 0.0
C2850 C 0.06953 0.10859 0.64107 0.0
H2851 H 0.13148 0.11035 0.64584 0.0
H2852 H 0.11109 0.11931 0.64221 0.0
H2853 H 0.11885 0.11706 0.66315 0.0
H2854 H 0.09082 0.11627 0.67715 0.0
H2855 H 0.07103 0.13962 0.67831 0.0
H2856 H 0.97907 0.14023 0.68156 0.0
H2857 H 0.9537 0.1232 0.68064 0.0
H2858 H 0.94943 0.13217 0.6277 0.0
H2859 H 0.97485 0.14931 0.62849 0.0
H2860 H 0.92002 0.13276 0.66756 0.0
H2861 H 0.95039 0.07971 0.63429 0.0
H2862 H 0.96225 0.09534 0.64544 0.0
H2863 H 0.95315 0.10026 0.62557 0.0
C2864 C 0.9727 0.13864 0.66972 0.0
C2865 C 0.97898 0.14603 0.65507 0.0
C2866 C 0.95821 0.12895 0.66924 0.0
C2867 C 0.94983 0.12635 0.65409 0.0
C2868 C 0.95585 0.13394 0.63948 0.0
H2869 H 0.86805 0.05941 0.62914 0.0
H2870 H 0.89073 0.07985 0.6283 0.0
C2871 C 0.97032 0.14375 0.63996 0.0
C2872 C 0.93501 0.11535 0.65361 0.0
H2873 H 0.92182 0.07698 0.64058 0.0
C2874 C 0.92034 0.12058 0.66163 0.0
C2875 C 0.93555 0.09952 0.64582 0.0
C2876 C 0.95118 0.09323 0.63735 0.0
C2877 C 0.90607 0.11038 0.662 0.0
C2878 C 0.9067 0.09436 0.65452 0.0
C2879 C 0.92136 0.08924 0.64633 0.0
C2880 C 0.89242 0.08257 0.65515 0.0
C2881 C 0.8904 0.11698 0.67015 0.0
C2882 C 0.88588 0.07723 0.67054 0.0
C2883 C 0.87281 0.06564 0.67105 0.0
C2884 C 0.86625 0.059 0.65618 0.0
C2885 C 0.87287 0.0643 0.64081 0.0
C2886 C 0.88582 0.07598 0.6403 0.0
H2887 H 0.89037 0.13085 0.67062 0.0
H2888 H 0.87905 0.11273 0.6634 0.0
H2889 H 0.88973 0.1123 0.68318 0.0
H2890 H 0.89106 0.0818 0.68217 0.0
H2891 H 0.86803 0.06168 0.68308 0.0
H2892 H 0.93973 0.86791 0.68116 0.0
H2893 H 0.92055 0.89178 0.68026 0.0
H2894 H 0.9239 0.89262 0.62651 0.0
H2895 H 0.94314 0.86883 0.62727 0.0
H2896 H 0.92863 0.92445 0.66344 0.0
H2897 H 0.87219 0.89222 0.63858 0.0
H2898 H 0.8887 0.88114 0.64929 0.0
H2899 H 0.89179 0.88825 0.62827 0.0
C2900 C 0.9363 0.87312 0.66914 0.0
C2901 C 0.94292 0.86651 0.65428 0.0
C2902 C 0.92538 0.88673 0.66866 0.0
C2903 C 0.92074 0.89381 0.65332 0.0
C2904 C 0.9272 0.88718 0.63845 0.0
H2905 H 0.85436 0.97644 0.62792 0.0
H2906 H 0.87274 0.95192 0.62697 0.0
C2907 C 0.93823 0.87364 0.63892 0.0
C2908 C 0.90967 0.90857 0.65292 0.0
H2909 H 0.87041 0.92141 0.64231 0.0
C2910 C 0.91589 0.92382 0.65885 0.0
C2911 C 0.89316 0.90766 0.64674 0.0
C2912 C 0.88593 0.89145 0.64042 0.0
C2913 C 0.90602 0.9383 0.65872 0.0
C2914 C 0.88933 0.93735 0.65293 0.0
C2915 C 0.88319 0.9221 0.64679 0.0
C2916 C 0.87796 0.95196 0.65351 0.0
C2917 C 0.9137 0.95454 0.6645 0.0
C2918 C 0.87455 0.95987 0.66877 0.0
C2919 C 0.86421 0.9739 0.66932 0.0
C2920 C 0.85687 0.98014 0.65464 0.0
C2921 C 0.85989 0.97193 0.63942 0.0
C2922 C 0.87036 0.95793 0.63886 0.0
H2923 H 0.92755 0.95424 0.66357 0.0
H2924 H 0.90899 0.96526 0.65706 0.0
H2925 H 0.9104 0.95666 0.67779 0.0
H2926 H 0.8799 0.9552 0.68029 0.0
H2927 H 0.86197 0.97986 0.68127 0.0
H2928 H 0.36985 0.02948 0.15327 0.0
H2929 H 0.37041 0.05451 0.13556 0.0
H2930 H 0.32226 0.04133 0.1153 0.0
H2931 H 0.32163 0.01633 0.13281 0.0
H2932 H 0.34688 0.04933 0.09104 0.0
H2933 H 0.34203 0.09766 0.14074 0.0
H2934 H 0.35819 0.08231 0.14355 0.0
H2935 H 0.33667 0.07602 0.14428 0.0
C2936 C 0.35935 0.03199 0.1451 0.0
C2937 C 0.34569 0.02097 0.14443 0.0
C2938 C 0.35966 0.04631 0.13507 0.0
C2939 C 0.34629 0.04983 0.12427 0.0
C2940 C 0.33266 0.03885 0.1236 0.0
H2941 H 0.32058 0.13826 0.06764 0.0
H2942 H 0.32151 0.11457 0.08704 0.0
C2943 C 0.33232 0.02459 0.13362 0.0
C2944 C 0.34668 0.06461 0.11317 0.0
H2945 H 0.34615 0.10728 0.11307 0.0
C2946 C 0.34676 0.06201 0.09584 0.0
C2947 C 0.34635 0.0811 0.11952 0.0
C2948 C 0.34567 0.08454 0.13803 0.0
C2949 C 0.3466 0.07548 0.08463 0.0
C2950 C 0.34651 0.09197 0.09097 0.0
C2951 C 0.34633 0.0946 0.1083 0.0
C2952 C 0.34628 0.10662 0.07971 0.0
C2953 C 0.3462 0.07199 0.06611 0.0
C2954 C 0.36 0.11008 0.06939 0.0
C2955 C 0.35953 0.12358 0.05834 0.0
C2956 C 0.3453 0.13385 0.05745 0.0
C2957 C 0.33168 0.13052 0.06802 0.0
C2958 C 0.3322 0.11704 0.07912 0.0
H2959 H 0.34284 0.0588 0.06337 0.0
H2960 H 0.3371 0.08032 0.05974 0.0
H2961 H 0.35873 0.07446 0.06072 0.0
H2962 H 0.37105 0.10228 0.06983 0.0
H2963 H 0.37024 0.12588 0.0504 0.0
H2964 H 0.37372 0.97518 0.85224 0.0
H2965 H 0.37438 0.94994 0.86967 0.0
H2966 H 0.32076 0.95186 0.87458 0.0
H2967 H 0.31999 0.97703 0.8573 0.0
H2968 H 0.36048 0.94814 0.90386 0.0
H2969 H 0.33173 0.9027 0.8599 0.0
H2970 H 0.34143 0.92188 0.85297 0.0
H2971 H 0.32096 0.9223 0.86213 0.0
C2972 C 0.36208 0.97011 0.85691 0.0
C2973 C 0.34681 0.97805 0.85341 0.0
C2974 C 0.36247 0.95574 0.86686 0.0
C2975 C 0.3476 0.94899 0.87323 0.0
C2976 C 0.33234 0.95676 0.86957 0.0
H2977 H 0.31821 0.86813 0.93833 0.0
H2978 H 0.31969 0.89148 0.91858 0.0
C2979 C 0.33194 0.97118 0.85977 0.0
C2980 C 0.34801 0.93433 0.88446 0.0
H2981 H 0.335 0.89388 0.88801 0.0
C2982 C 0.35507 0.93621 0.90038 0.0
C2983 C 0.34078 0.91889 0.87987 0.0
C2984 C 0.33339 0.91619 0.86274 0.0
C2985 C 0.3547 0.92314 0.91206 0.0
C2986 C 0.34744 0.90766 0.9075 0.0
C2987 C 0.34055 0.90575 0.89148 0.0
C2988 C 0.34666 0.89337 0.91926 0.0
C2989 C 0.36155 0.92624 0.92936 0.0
C2990 C 0.36134 0.88653 0.92597 0.0
C2991 C 0.36052 0.87331 0.93733 0.0
C2992 C 0.34501 0.86654 0.94201 0.0
C2993 C 0.33034 0.87313 0.93498 0.0
C2994 C 0.33117 0.88644 0.9237 0.0
H2995 H 0.36235 0.9398 0.93222 0.0
H2996 H 0.35368 0.92014 0.93902 0.0
H2997 H 0.37434 0.92096 0.93021 0.0
H2998 H 0.37345 0.8914 0.9224 0.0
H2999 H 0.37205 0.86837 0.94243 0.0
H3000 H 0.01516 0.32363 0.86917 0.0
H3001 H 0.04029 0.32515 0.88644 0.0
H3002 H 0.05451 0.37103 0.86203 0.0
H3003 H 0.02931 0.36959 0.84458 0.0
H3004 H 0.08092 0.3462 0.86576 0.0
H3005 H 0.04724 0.35935 0.925 0.0
H3006 H 0.03956 0.34162 0.91356 0.0
H3007 H 0.03776 0.36218 0.90472 0.0
C3008 C 0.02362 0.33406 0.86746 0.0
C3009 C 0.02023 0.34655 0.85558 0.0
C3010 C 0.03793 0.33492 0.87738 0.0
C3011 C 0.0491 0.3483 0.87564 0.0
C3012 C 0.04596 0.36065 0.86359 0.0
H3013 H 0.12738 0.37225 0.947 0.0
H3014 H 0.10406 0.37357 0.92729 0.0
C3015 C 0.03157 0.35982 0.85367 0.0
C3016 C 0.06404 0.34931 0.88647 0.0
H3017 H 0.07603 0.35248 0.92725 0.0
C3018 C 0.0799 0.34768 0.8792 0.0
C3019 C 0.06262 0.35141 0.90395 0.0
C3020 C 0.0459 0.35389 0.9123 0.0
C3021 C 0.09442 0.34765 0.88906 0.0
C3022 C 0.09295 0.34913 0.9066 0.0
C3023 C 0.0771 0.35121 0.9138 0.0
C3024 C 0.10765 0.34852 0.9178 0.0
C3025 C 0.11122 0.34612 0.88064 0.0
C3026 C 0.11735 0.33396 0.91902 0.0
C3027 C 0.13067 0.33314 0.9303 0.0
C3028 C 0.13445 0.34687 0.94058 0.0
C3029 C 0.12479 0.36148 0.93923 0.0
C3030 C 0.11147 0.36226 0.92798 0.0
H3031 H 0.1105 0.34923 0.86713 0.0
H3032 H 0.12054 0.35445 0.88666 0.0
H3033 H 0.11573 0.33306 0.88181 0.0
H3034 H 0.11441 0.32311 0.91148 0.0
H3035 H 0.13787 0.32171 0.93111 0.0
H3036 H 0.62929 0.12425 0.94933 0.0
H3037 H 0.62877 0.1004 0.93023 0.0
H3038 H 0.67809 0.1132 0.91271 0.0
H3039 H 0.67868 0.13721 0.93175 0.0
H3040 H 0.65431 0.10531 0.88688 0.0
H3041 H 0.65659 0.05725 0.93696 0.0
H3042 H 0.64039 0.07263 0.93924 0.0
H3043 H 0.6619 0.07887 0.94062 0.0
C3044 C 0.64003 0.122 0.94141 0.0
C3045 C 0.65407 0.13253 0.9421 0.0
C3046 C 0.63973 0.10834 0.93055 0.0
C3047 C 0.65347 0.10495 0.92023 0.0
C3048 C 0.66739 0.11561 0.92064 0.0
H3049 H 0.67752 0.01362 0.86857 0.0
H3050 H 0.67691 0.03866 0.88599 0.0
C3051 C 0.66772 0.12927 0.93154 0.0
C3052 C 0.65336 0.09019 0.9091 0.0
H3053 H 0.65233 0.04756 0.90935 0.0
C3054 C 0.65388 0.09267 0.89175 0.0
C3055 C 0.65295 0.07375 0.91556 0.0
C3056 C 0.65307 0.07037 0.93411 0.0
C3057 C 0.65385 0.07909 0.88064 0.0
C3058 C 0.65312 0.06266 0.8871 0.0
C3059 C 0.65273 0.06019 0.90445 0.0
C3060 C 0.65345 0.04777 0.87613 0.0
C3061 C 0.65496 0.08239 0.86212 0.0
C3062 C 0.64038 0.04455 0.86487 0.0
C3063 C 0.64069 0.0302 0.85486 0.0
C3064 C 0.65404 0.01885 0.85604 0.0
C3065 C 0.66707 0.02213 0.86736 0.0
C3066 C 0.66674 0.03643 0.87733 0.0
H3067 H 0.65908 0.09537 0.85941 0.0
H3068 H 0.66376 0.07355 0.85605 0.0
H3069 H 0.64245 0.08057 0.8564 0.0
H3070 H 0.62987 0.05302 0.86396 0.0
H3071 H 0.63046 0.02796 0.8463 0.0
H3072 H 0.96906 0.62903 0.84534 0.0
H3073 H 0.94394 0.62826 0.8629 0.0
H3074 H 0.95728 0.67594 0.88418 0.0
H3075 H 0.98238 0.67676 0.86683 0.0
H3076 H 0.94896 0.65118 0.9079 0.0
H3077 H 0.90098 0.65675 0.85795 0.0
H3078 H 0.91621 0.64049 0.85505 0.0
H3079 H 0.92268 0.66197 0.85459 0.0
C3080 C 0.96657 0.63938 0.8537 0.0
C3081 C 0.97766 0.65297 0.8547 0.0
C3082 C 0.9522 0.63896 0.86365 0.0
C3083 C 0.94869 0.65213 0.87468 0.0
C3084 C 0.95975 0.66568 0.87569 0.0
H3085 H 0.85985 0.6775 0.93074 0.0
H3086 H 0.88342 0.67643 0.9112 0.0
C3087 C 0.97407 0.66613 0.86576 0.0
C3088 C 0.93382 0.65164 0.88567 0.0
H3089 H 0.89115 0.65224 0.8855 0.0
C3090 C 0.93631 0.65137 0.90302 0.0
C3091 C 0.91738 0.65206 0.87922 0.0
C3092 C 0.91405 0.65297 0.86069 0.0
C3093 C 0.92277 0.65147 0.91413 0.0
C3094 C 0.90632 0.65164 0.9077 0.0
C3095 C 0.90381 0.65199 0.89035 0.0
C3096 C 0.8916 0.65184 0.91887 0.0
C3097 C 0.92617 0.65176 0.93268 0.0
C3098 C 0.88826 0.63823 0.92939 0.0
C3099 C 0.87485 0.6388 0.94054 0.0
C3100 C 0.86452 0.65299 0.94132 0.0
C3101 C 0.86764 0.66643 0.93046 0.0
C3102 C 0.88105 0.66583 0.91928 0.0
H3103 H 0.9393 0.65529 0.93549 0.0
H3104 H 0.91769 0.66066 0.93911 0.0
H3105 H 0.9239 0.63913 0.93793 0.0
H3106 H 0.89613 0.62722 0.92907 0.0
H3107 H 0.87271 0.62821 0.94869 0.0
H3108 H 0.62609 0.97673 0.14517 0.0
H3109 H 0.62462 0.95144 0.12783 0.0
H3110 H 0.67841 0.94997 0.12533 0.0
H3111 H 0.68 0.97518 0.14249 0.0
H3112 H 0.64027 0.94865 0.09418 0.0
H3113 H 0.66335 0.90164 0.13979 0.0
H3114 H 0.65441 0.9214 0.14612 0.0
H3115 H 0.67541 0.92055 0.13826 0.0
C3116 C 0.63758 0.97091 0.14104 0.0
C3117 C 0.65316 0.9779 0.14517 0.0
C3118 C 0.63672 0.95651 0.13115 0.0
C3119 C 0.65141 0.9488 0.12548 0.0
C3120 C 0.66695 0.95563 0.12979 0.0
H3121 H 0.68033 0.86637 0.06261 0.0
H3122 H 0.67865 0.88981 0.08221 0.0
C3123 C 0.66782 0.97007 0.13952 0.0
C3124 C 0.65062 0.93414 0.11429 0.0
H3125 H 0.66136 0.89298 0.1115 0.0
C3126 C 0.6447 0.93641 0.09797 0.0
C3127 C 0.65656 0.9183 0.11931 0.0
C3128 C 0.66269 0.9152 0.13686 0.0
C3129 C 0.64504 0.92333 0.08629 0.0
C3130 C 0.65108 0.90746 0.09127 0.0
C3131 C 0.65675 0.90515 0.10771 0.0
C3132 C 0.65195 0.89317 0.07951 0.0
C3133 C 0.63953 0.92682 0.0686 0.0
C3134 C 0.63746 0.88715 0.07167 0.0
C3135 C 0.63842 0.87388 0.06037 0.0
C3136 C 0.65384 0.86624 0.05689 0.0
C3137 C 0.66828 0.87205 0.06501 0.0
C3138 C 0.66733 0.88541 0.07622 0.0
H3139 H 0.63966 0.94041 0.06575 0.0
H3140 H 0.64769 0.92031 0.05945 0.0
H3141 H 0.62656 0.92224 0.06687 0.0
H3142 H 0.6254 0.89268 0.07434 0.0
H3143 H 0.62705 0.86956 0.05442 0.0
H3144 H 0.02077 0.68113 0.14029 0.0
H3145 H 0.04584 0.68021 0.1228 0.0
H3146 H 0.04994 0.62716 0.13125 0.0
H3147 H 0.02485 0.62796 0.14885 0.0
H3148 H 0.07964 0.66656 0.13204 0.0
H3149 H 0.04841 0.6345 0.07874 0.0
H3150 H 0.03682 0.64573 0.09452 0.0
H3151 H 0.04558 0.62565 0.09922 0.0
C3152 C 0.02704 0.66928 0.13848 0.0
C3153 C 0.02082 0.6546 0.14588 0.0
C3154 C 0.04136 0.66879 0.12853 0.0
C3155 C 0.0496 0.65361 0.12566 0.0
C3156 C 0.04362 0.63897 0.13323 0.0
H3157 H 0.13076 0.6286 0.05788 0.0
H3158 H 0.1081 0.62769 0.07837 0.0
C3159 C 0.02934 0.63946 0.1433 0.0
C3160 C 0.06431 0.65313 0.11451 0.0
H3161 H 0.07705 0.64047 0.07586 0.0
C3162 C 0.07914 0.66083 0.11977 0.0
C3163 C 0.06355 0.64559 0.09857 0.0
C3164 C 0.04774 0.63746 0.09228 0.0
C3165 C 0.09335 0.66112 0.10948 0.0
C3166 C 0.0925 0.65389 0.09335 0.0
C3167 C 0.07768 0.64603 0.08821 0.0
C3168 C 0.10672 0.65452 0.08148 0.0
C3169 C 0.1092 0.6689 0.1161 0.0
C3170 C 0.1134 0.66992 0.07634 0.0
C3171 C 0.12644 0.67046 0.06473 0.0
C3172 C 0.13285 0.65562 0.05787 0.0
C3173 C 0.12608 0.64024 0.06296 0.0
C3174 C 0.11313 0.6397 0.07465 0.0
H3175 H 0.10933 0.66916 0.12998 0.0
H3176 H 0.12041 0.66203 0.11168 0.0
H3177 H 0.11006 0.68199 0.11162 0.0
H3178 H 0.10836 0.68153 0.0811 0.0
H3179 H 0.13133 0.6825 0.06094 0.0
H3180 H 0.97415 0.37075 0.14863 0.0
H3181 H 0.94866 0.37125 0.13155 0.0
H3182 H 0.95479 0.31883 0.12072 0.0
H3183 H 0.9802 0.31821 0.13767 0.0
H3184 H 0.94671 0.36129 0.09625 0.0
H3185 H 0.90555 0.32363 0.1376 0.0
H3186 H 0.92417 0.33397 0.1451 0.0
H3187 H 0.92581 0.31485 0.13347 0.0
C3188 C 0.96999 0.35933 0.14268 0.0
C3189 C 0.97913 0.34444 0.14449 0.0
C3190 C 0.95547 0.35964 0.13295 0.0
C3191 C 0.94978 0.34503 0.12508 0.0
C3192 C 0.95885 0.33016 0.12692 0.0
H3193 H 0.86926 0.31661 0.059 0.0
H3194 H 0.89295 0.31767 0.07837 0.0
C3195 C 0.9734 0.32987 0.13653 0.0
C3196 C 0.93476 0.3454 0.11433 0.0
H3197 H 0.89546 0.32935 0.11032 0.0
C3198 C 0.93543 0.35444 0.09935 0.0
C3199 C 0.92018 0.33632 0.11842 0.0
C3200 C 0.91874 0.32673 0.13458 0.0
C3201 C 0.92201 0.3543 0.08807 0.0
C3202 C 0.90738 0.34521 0.09213 0.0
C3203 C 0.90668 0.3363 0.10723 0.0
C3204 C 0.89275 0.34461 0.08078 0.0
C3205 C 0.92388 0.36342 0.07166 0.0
C3206 C 0.88459 0.35937 0.07598 0.0
C3207 C 0.87119 0.35881 0.06481 0.0
C3208 C 0.86554 0.34344 0.05846 0.0
C3209 C 0.87338 0.32863 0.06367 0.0
C3210 C 0.88689 0.32922 0.07473 0.0
H3211 H 0.93722 0.36565 0.06852 0.0
H3212 H 0.91803 0.35631 0.06129 0.0
H3213 H 0.91763 0.37575 0.07256 0.0
H3214 H 0.88861 0.37134 0.08084 0.0
H3215 H 0.86527 0.37041 0.06115 0.0
H3216 H 0.64032 0.81713 0.52124 0.0
H3217 H 0.62262 0.81807 0.54617 0.0
H3218 H 0.62804 0.87163 0.54818 0.0
H3219 H 0.64587 0.87082 0.52324 0.0
H3220 H 0.63105 0.83385 0.57949 0.0
H3221 H 0.57593 0.86097 0.54677 0.0
H3222 H 0.59236 0.85009 0.53575 0.0
H3223 H 0.59587 0.87085 0.54344 0.0
C3224 C 0.6378 0.82911 0.52702 0.0
C3225 C 0.64442 0.84392 0.52027 0.0
C3226 C 0.62772 0.82961 0.54125 0.0
C3227 C 0.62396 0.84492 0.54887 0.0
C3228 C 0.63073 0.85971 0.54234 0.0
H3229 H 0.55525 0.87047 0.62891 0.0
H3230 H 0.57536 0.87107 0.60591 0.0
C3231 C 0.64092 0.85922 0.52816 0.0
C3232 C 0.61274 0.84537 0.56353 0.0
H3233 H 0.5734 0.85634 0.5757 0.0
C3234 C 0.61845 0.83878 0.57873 0.0
C3235 C 0.59638 0.85187 0.56241 0.0
C3236 C 0.58963 0.85878 0.54622 0.0
C3237 C 0.6082 0.83864 0.59296 0.0
C3238 C 0.59167 0.84485 0.59178 0.0
C3239 C 0.58605 0.85156 0.57657 0.0
C3240 C 0.57992 0.84442 0.60611 0.0
C3241 C 0.61529 0.83215 0.60918 0.0
C3242 C 0.57569 0.82921 0.61378 0.0
C3243 C 0.5643 0.82885 0.62702 0.0
C3244 C 0.55675 0.84366 0.63265 0.0
C3245 C 0.56087 0.85885 0.62485 0.0
C3246 C 0.57235 0.85922 0.61171 0.0
H3247 H 0.62916 0.83264 0.60925 0.0
H3248 H 0.61054 0.83941 0.62001 0.0
H3249 H 0.61152 0.8189 0.61082 0.0
H3250 H 0.58103 0.81758 0.60939 0.0
H3251 H 0.56126 0.81695 0.63271 0.0
H3252 H 0.13706 0.54337 0.61838 0.0
H3253 H 0.13657 0.56277 0.59482 0.0
H3254 H 0.17219 0.59443 0.62004 0.0
H3255 H 0.17319 0.5747 0.64342 0.0
H3256 H 0.12753 0.59474 0.59278 0.0
H3257 H 0.19436 0.58875 0.57539 0.0
H3258 H 0.18446 0.57496 0.59021 0.0
H3259 H 0.19125 0.59544 0.59655 0.0
C3260 C 0.14485 0.55443 0.61887 0.0
C3261 C 0.15528 0.55747 0.63266 0.0
C3262 C 0.14453 0.56552 0.60542 0.0
C3263 C 0.15454 0.57992 0.60553 0.0
C3264 C 0.16469 0.58318 0.61947 0.0
H3265 H 0.13976 0.66156 0.53381 0.0
H3266 H 0.13995 0.64445 0.55921 0.0
C3267 C 0.16519 0.57196 0.63286 0.0
C3268 C 0.15418 0.59148 0.59104 0.0
H3269 H 0.17873 0.60943 0.56114 0.0
C3270 C 0.13872 0.59796 0.58585 0.0
C3271 C 0.16877 0.5955 0.58189 0.0
C3272 C 0.18562 0.58818 0.58617 0.0
C3273 C 0.13741 0.60824 0.5717 0.0
C3274 C 0.15205 0.61257 0.56278 0.0
C3275 C 0.16753 0.6062 0.56806 0.0
C3276 C 0.1516 0.62302 0.54748 0.0
C3277 C 0.12029 0.61388 0.56614 0.0
C3278 C 0.15843 0.61683 0.53256 0.0
C3279 C 0.1586 0.62667 0.51817 0.0
C3280 C 0.15185 0.64287 0.51838 0.0
C3281 C 0.14489 0.64905 0.53326 0.0
C3282 C 0.14492 0.63925 0.54775 0.0
H3283 H 0.11027 0.60583 0.5714 0.0
H3284 H 0.11809 0.62682 0.57058 0.0
H3285 H 0.11922 0.61377 0.55231 0.0
H3286 H 0.16367 0.60436 0.53205 0.0
H3287 H 0.16405 0.62158 0.50687 0.0
H3288 H 0.34971 0.12804 0.52456 0.0
H3289 H 0.36651 0.12749 0.55024 0.0
H3290 H 0.37709 0.18001 0.54453 0.0
H3291 H 0.36044 0.18067 0.51893 0.0
H3292 H 0.40182 0.1378 0.55247 0.0
H3293 H 0.35976 0.17464 0.59365 0.0
H3294 H 0.35249 0.16431 0.57493 0.0
H3295 H 0.36388 0.18359 0.57345 0.0
C3296 C 0.35554 0.13947 0.52885 0.0
C3297 C 0.35376 0.1544 0.51977 0.0
C3298 C 0.36511 0.13914 0.54348 0.0
C3299 C 0.37283 0.15375 0.54933 0.0
C3300 C 0.371 0.16866 0.54033 0.0
H3301 H 0.4382 0.18285 0.62999 0.0
H3302 H 0.41879 0.18145 0.60637 0.0
C3303 C 0.36156 0.16899 0.52568 0.0
C3304 C 0.38346 0.15336 0.56443 0.0
H3305 H 0.38707 0.16922 0.60384 0.0
C3306 C 0.39856 0.14452 0.56378 0.0
C3307 C 0.37918 0.16228 0.57905 0.0
C3308 C 0.36289 0.17166 0.58045 0.0
C3309 C 0.40979 0.14474 0.57725 0.0
C3310 C 0.40553 0.15369 0.59191 0.0
C3311 C 0.3903 0.16237 0.59261 0.0
C3312 C 0.41687 0.15447 0.60654 0.0
C3313 C 0.42634 0.13588 0.5754 0.0
C3314 C 0.42196 0.1398 0.61469 0.0
C3315 C 0.43316 0.14056 0.62805 0.0
C3316 C 0.43926 0.15603 0.63369 0.0
C3317 C 0.43373 0.17075 0.62588 0.0
C3318 C 0.42264 0.16997 0.61241 0.0
H3319 H 0.42954 0.13371 0.56206 0.0
H3320 H 0.43659 0.14315 0.58127 0.0
H3321 H 0.42563 0.12353 0.58164 0.0
H3322 H 0.41732 0.12774 0.61066 0.0
H3323 H 0.43706 0.12901 0.63394 0.0
H3324 H 0.81796 0.36135 0.51951 0.0
H3325 H 0.81874 0.37923 0.54429 0.0
H3326 H 0.87157 0.37005 0.54945 0.0
H3327 H 0.87091 0.35204 0.52463 0.0
H3328 H 0.83133 0.36997 0.5782 0.0
H3329 H 0.86532 0.42257 0.54785 0.0
H3330 H 0.85417 0.40694 0.53598 0.0
H3331 H 0.87391 0.40194 0.54533 0.0
C3332 C 0.82975 0.3631 0.52593 0.0
C3333 C 0.8444 0.35535 0.52011 0.0
C3334 C 0.83015 0.37329 0.54008 0.0
C3335 C 0.84522 0.37603 0.54855 0.0
C3336 C 0.85985 0.36818 0.54293 0.0
H3337 H 0.8703 0.44234 0.63073 0.0
H3338 H 0.87096 0.42236 0.60762 0.0
C3339 C 0.85945 0.35788 0.52881 0.0
C3340 C 0.84556 0.3872 0.56325 0.0
H3341 H 0.85883 0.4255 0.57639 0.0
C3342 C 0.83735 0.38211 0.57787 0.0
C3343 C 0.85348 0.40295 0.5627 0.0
C3344 C 0.86216 0.40907 0.54712 0.0
C3345 C 0.83697 0.39237 0.59209 0.0
C3346 C 0.84461 0.40831 0.59146 0.0
C3347 C 0.85295 0.4133 0.57684 0.0
C3348 C 0.84408 0.42007 0.60576 0.0
C3349 C 0.82866 0.38588 0.60773 0.0
C3350 C 0.82873 0.42555 0.6123 0.0
C3351 C 0.82832 0.43686 0.62561 0.0
C3352 C 0.84325 0.44308 0.63242 0.0
C3353 C 0.85858 0.43775 0.62573 0.0
C3354 C 0.85899 0.42634 0.61253 0.0
H3355 H 0.82798 0.37202 0.60777 0.0
H3356 H 0.83543 0.39003 0.6191 0.0
H3357 H 0.81569 0.39075 0.60834 0.0
H3358 H 0.81707 0.42122 0.60698 0.0
H3359 H 0.81633 0.44086 0.63043 0.0
H3360 H 0.55998 0.18184 0.3682 0.0
H3361 H 0.57941 0.1807 0.39188 0.0
H3362 H 0.57626 0.12692 0.39203 0.0
H3363 H 0.55679 0.12792 0.36845 0.0
H3364 H 0.57193 0.16372 0.42432 0.0
H3365 H 0.62779 0.13874 0.39125 0.0
H3366 H 0.6111 0.14944 0.38045 0.0
H3367 H 0.60819 0.12836 0.3875 0.0
C3368 C 0.5635 0.16977 0.37323 0.0
C3369 C 0.55688 0.15497 0.36649 0.0
C3370 C 0.57457 0.16915 0.38673 0.0
C3371 C 0.57935 0.15372 0.39353 0.0
C3372 C 0.57285 0.13892 0.38678 0.0
H3373 H 0.64544 0.12613 0.47565 0.0
H3374 H 0.62713 0.12588 0.45105 0.0
C3375 C 0.56169 0.13953 0.37338 0.0
C3376 C 0.5906 0.15312 0.40815 0.0
H3377 H 0.62978 0.14171 0.42055 0.0
C3378 C 0.5846 0.15896 0.42353 0.0
C3379 C 0.60701 0.14671 0.40703 0.0
C3380 C 0.61404 0.14053 0.39067 0.0
C3381 C 0.59458 0.15847 0.43792 0.0
C3382 C 0.61115 0.1524 0.43677 0.0
C3383 C 0.61709 0.14639 0.42139 0.0
C3384 C 0.62261 0.15254 0.45131 0.0
C3385 C 0.58713 0.16416 0.4543 0.0
C3386 C 0.62642 0.16765 0.45934 0.0
C3387 C 0.63672 0.1678 0.4734 0.0
C3388 C 0.64362 0.15288 0.47956 0.0
C3389 C 0.64025 0.13781 0.4712 0.0
C3390 C 0.62981 0.13765 0.45716 0.0
H3391 H 0.57326 0.16358 0.45407 0.0
H3392 H 0.59172 0.15643 0.46486 0.0
H3393 H 0.59078 0.17734 0.45662 0.0
H3394 H 0.62136 0.17934 0.45477 0.0
H3395 H 0.63923 0.17964 0.47947 0.0
H3396 H 0.82082 0.56607 0.36259 0.0
H3397 H 0.82244 0.58564 0.38609 0.0
H3398 H 0.87256 0.5689 0.39668 0.0
H3399 H 0.87097 0.54921 0.37337 0.0
H3400 H 0.85219 0.56982 0.42466 0.0
H3401 H 0.8488 0.6295 0.3895 0.0
H3402 H 0.83221 0.61512 0.38482 0.0
H3403 H 0.85337 0.60977 0.37955 0.0
C3404 C 0.83221 0.56664 0.36987 0.0
C3405 C 0.84577 0.55613 0.36614 0.0
C3406 C 0.83316 0.57789 0.38321 0.0
C3407 C 0.84771 0.57888 0.39296 0.0
C3408 C 0.86125 0.56839 0.38925 0.0
H3409 H 0.8698 0.65381 0.46944 0.0
H3410 H 0.87089 0.63579 0.44462 0.0
C3411 C 0.86032 0.55715 0.37593 0.0
C3412 C 0.84857 0.59026 0.40753 0.0
H3413 H 0.84597 0.63126 0.41909 0.0
C3414 C 0.85093 0.58326 0.42344 0.0
C3415 C 0.84713 0.6078 0.40587 0.0
C3416 C 0.84539 0.61605 0.38901 0.0
C3417 C 0.85145 0.59331 0.43779 0.0
C3418 C 0.84935 0.61078 0.43619 0.0
C3419 C 0.84744 0.61784 0.42026 0.0
C3420 C 0.84864 0.62183 0.45099 0.0
C3421 C 0.85433 0.58515 0.45454 0.0
C3422 C 0.83564 0.62007 0.4626 0.0
C3423 C 0.83497 0.6303 0.4767 0.0
C3424 C 0.84728 0.64253 0.47944 0.0
C3425 C 0.86019 0.64444 0.46768 0.0
C3426 C 0.86081 0.6342 0.45351 0.0
H3427 H 0.85995 0.57253 0.45322 0.0
H3428 H 0.86263 0.59292 0.46249 0.0
H3429 H 0.84217 0.58376 0.46108 0.0
H3430 H 0.82597 0.61078 0.46073 0.0
H3431 H 0.82482 0.62857 0.48549 0.0
H3432 H 0.34488 0.86879 0.47005 0.0
H3433 H 0.36221 0.86992 0.44479 0.0
H3434 H 0.38481 0.82285 0.45811 0.0
H3435 H 0.36773 0.8217 0.48337 0.0
H3436 H 0.40782 0.84778 0.44949 0.0
H3437 H 0.35756 0.84149 0.40194 0.0
H3438 H 0.35458 0.85782 0.41707 0.0
H3439 H 0.35441 0.83638 0.42369 0.0
C3440 C 0.35349 0.85866 0.46753 0.0
C3441 C 0.35495 0.84515 0.47866 0.0
C3442 C 0.3633 0.85928 0.45307 0.0
C3443 C 0.37463 0.84637 0.44951 0.0
C3444 C 0.37609 0.8329 0.46062 0.0
H3445 H 0.43002 0.82131 0.3603 0.0
H3446 H 0.41057 0.82246 0.38393 0.0
C3447 C 0.36631 0.83226 0.47503 0.0
C3448 C 0.38547 0.84706 0.43454 0.0
H3449 H 0.38496 0.84639 0.39188 0.0
C3450 C 0.40284 0.84753 0.43689 0.0
C3451 C 0.3789 0.84654 0.41815 0.0
C3452 C 0.36035 0.84539 0.41497 0.0
C3453 C 0.41385 0.84751 0.42326 0.0
C3454 C 0.40728 0.84725 0.40687 0.0
C3455 C 0.38991 0.84673 0.40449 0.0
C3456 C 0.41833 0.84704 0.39206 0.0
C3457 C 0.43242 0.84736 0.42653 0.0
C3458 C 0.42887 0.86063 0.38866 0.0
C3459 C 0.43999 0.86 0.37523 0.0
C3460 C 0.4407 0.84579 0.36492 0.0
C3461 C 0.42979 0.83239 0.36807 0.0
C3462 C 0.41866 0.83304 0.38152 0.0
H3463 H 0.43536 0.84382 0.43962 0.0
H3464 H 0.43886 0.83853 0.41798 0.0
H3465 H 0.43755 0.86004 0.42426 0.0
H3466 H 0.42861 0.87165 0.39652 0.0
H3467 H 0.44817 0.87056 0.37304 0.0
H3468 H 0.12773 0.44326 0.36941 0.0
H3469 H 0.12727 0.42358 0.39285 0.0
H3470 H 0.18074 0.41804 0.38937 0.0
H3471 H 0.18133 0.43772 0.36592 0.0
H3472 H 0.14018 0.38916 0.39382 0.0
H3473 H 0.17114 0.43209 0.43886 0.0
H3474 H 0.16145 0.43939 0.41982 0.0
H3475 H 0.18155 0.42944 0.41912 0.0
C3476 C 0.13939 0.43784 0.37363 0.0
C3477 C 0.15459 0.44209 0.3659 0.0
C3478 C 0.13909 0.42659 0.38697 0.0
C3479 C 0.15398 0.41953 0.3929 0.0
C3480 C 0.16914 0.42354 0.38507 0.0
H3481 H 0.1809 0.35639 0.47598 0.0
H3482 H 0.1802 0.37373 0.45088 0.0
C3483 C 0.16945 0.43474 0.37167 0.0
C3484 C 0.15368 0.40806 0.40738 0.0
H3485 H 0.16638 0.40441 0.44789 0.0
C3486 C 0.14585 0.39246 0.40568 0.0
C3487 C 0.16109 0.41247 0.42278 0.0
C3488 C 0.16918 0.4293 0.4254 0.0
C3489 C 0.14558 0.38094 0.41893 0.0
C3490 C 0.15302 0.38535 0.43436 0.0
C3491 C 0.16072 0.40103 0.43605 0.0
C3492 C 0.15323 0.37389 0.44891 0.0
C3493 C 0.13776 0.36402 0.41613 0.0
C3494 C 0.13828 0.36814 0.45612 0.0
C3495 C 0.13866 0.35809 0.47042 0.0
C3496 C 0.15398 0.35383 0.47786 0.0
C3497 C 0.1689 0.35949 0.47054 0.0
C3498 C 0.16852 0.3694 0.45621 0.0
H3499 H 0.13683 0.36097 0.40261 0.0
H3500 H 0.14504 0.35404 0.42244 0.0
H3501 H 0.12493 0.36401 0.42138 0.0
H3502 H 0.12632 0.37176 0.45093 0.0
H3503 H 0.12697 0.354 0.47587 0.0
H3504 H 0.63172 0.5587 0.87236 0.0
H3505 H 0.60811 0.57819 0.87314 0.0
H3506 H 0.60832 0.58075 0.81933 0.0
H3507 H 0.63196 0.56132 0.81841 0.0
H3508 H 0.60583 0.61227 0.85722 0.0
H3509 H 0.55968 0.56574 0.83399 0.0
H3510 H 0.57935 0.55972 0.8433 0.0
H3511 H 0.5788 0.56757 0.8223 0.0
C3512 C 0.62677 0.56346 0.86069 0.0
C3513 C 0.63362 0.55843 0.84531 0.0
C3514 C 0.61333 0.5746 0.86117 0.0
C3515 C 0.60644 0.58075 0.84629 0.0
C3516 C 0.61342 0.57599 0.83094 0.0
H3517 H 0.52068 0.63987 0.81951 0.0
H3518 H 0.54585 0.62265 0.82035 0.0
C3519 C 0.62692 0.56494 0.83044 0.0
C3520 C 0.59173 0.5919 0.84679 0.0
H3521 H 0.55027 0.59351 0.8371 0.0
C3522 C 0.59364 0.60821 0.8529 0.0
C3523 C 0.57592 0.58647 0.84113 0.0
C3524 C 0.57317 0.56889 0.83491 0.0
C3525 C 0.58016 0.61946 0.85309 0.0
C3526 C 0.56432 0.61405 0.84737 0.0
C3527 C 0.56243 0.59764 0.84144 0.0
C3528 C 0.54957 0.62524 0.84701 0.0
C3529 C 0.58313 0.63714 0.85892 0.0
C3530 C 0.54328 0.63243 0.86174 0.0
C3531 C 0.52893 0.64241 0.86127 0.0
C3532 C 0.52053 0.64516 0.8461 0.0
C3533 C 0.52687 0.63797 0.8314 0.0
C3534 C 0.54125 0.62812 0.83185 0.0
H3535 H 0.59661 0.64046 0.85863 0.0
H3536 H 0.57615 0.64621 0.85107 0.0
H3537 H 0.5787 0.63843 0.87199 0.0
H3538 H 0.54929 0.63007 0.87363 0.0
H3539 H 0.52424 0.6477 0.87281 0.0
H3540 H 0.44442 0.628 0.87044 0.0
H3541 H 0.42426 0.60496 0.8706 0.0
H3542 H 0.41395 0.61347 0.81842 0.0
H3543 H 0.43407 0.63656 0.81813 0.0
H3544 H 0.38842 0.60603 0.86027 0.0
H3545 H 0.42808 0.56287 0.82284 0.0
H3546 H 0.43655 0.58073 0.83373 0.0
H3547 H 0.42521 0.58359 0.81461 0.0
C3548 C 0.43784 0.62498 0.859 0.0
C3549 C 0.44087 0.63401 0.84425 0.0
C3550 C 0.42632 0.61186 0.85914 0.0
C3551 C 0.41777 0.60748 0.8445 0.0
C3552 C 0.42058 0.6166 0.8298 0.0
H3553 H 0.35232 0.52539 0.81856 0.0
H3554 H 0.36942 0.55069 0.81868 0.0
C3555 C 0.43204 0.62979 0.82967 0.0
C3556 C 0.40606 0.5932 0.84456 0.0
H3557 H 0.40103 0.55355 0.82978 0.0
C3558 C 0.39112 0.59453 0.85363 0.0
C3559 C 0.40969 0.57829 0.83585 0.0
C3560 C 0.42579 0.57613 0.82628 0.0
C3561 C 0.37953 0.58136 0.854 0.0
C3562 C 0.38323 0.56635 0.8454 0.0
C3563 C 0.3982 0.56507 0.83634 0.0
C3564 C 0.37183 0.55174 0.8456 0.0
C3565 C 0.36329 0.58379 0.86327 0.0
C3566 C 0.36744 0.54395 0.8607 0.0
C3567 C 0.35753 0.52955 0.86067 0.0
C3568 C 0.35206 0.52257 0.84551 0.0
C3569 C 0.35636 0.53047 0.83043 0.0
C3570 C 0.36613 0.54492 0.83048 0.0
H3571 H 0.36031 0.59725 0.8649 0.0
H3572 H 0.35276 0.57768 0.85663 0.0
H3573 H 0.36436 0.57813 0.87588 0.0
H3574 H 0.37202 0.54874 0.87249 0.0
H3575 H 0.35451 0.52364 0.87247 0.0
H3576 H 0.35364 0.42517 0.82727 0.0
H3577 H 0.37635 0.40466 0.82806 0.0
H3578 H 0.40547 0.43809 0.85875 0.0
H3579 H 0.38262 0.45832 0.8585 0.0
H3580 H 0.40751 0.4061 0.81727 0.0
H3581 H 0.40866 0.39598 0.88558 0.0
H3582 H 0.39199 0.40717 0.87533 0.0
H3583 H 0.41125 0.41764 0.88047 0.0
C3584 C 0.36488 0.4281 0.83423 0.0
C3585 C 0.36634 0.44327 0.84293 0.0
C3586 C 0.37783 0.41637 0.83469 0.0
C3587 C 0.39247 0.41966 0.84379 0.0
C3588 C 0.39409 0.43503 0.8521 0.0
H3589 H 0.48944 0.37583 0.82902 0.0
H3590 H 0.46404 0.3927 0.82885 0.0
C3591 C 0.38108 0.44665 0.85182 0.0
C3592 C 0.4063 0.40731 0.84413 0.0
H3593 H 0.43278 0.38662 0.8704 0.0
C3594 C 0.41292 0.40171 0.82889 0.0
C3595 C 0.41314 0.40128 0.85929 0.0
C3596 C 0.40577 0.40569 0.87608 0.0
C3597 C 0.42658 0.39073 0.82839 0.0
C3598 C 0.43416 0.38564 0.84354 0.0
C3599 C 0.42714 0.39073 0.85878 0.0
C3600 C 0.44961 0.3754 0.84385 0.0
C3601 C 0.43262 0.38462 0.8116 0.0
C3602 C 0.45021 0.3604 0.85295 0.0
C3603 C 0.46487 0.35088 0.85336 0.0
C3604 C 0.47913 0.3562 0.84461 0.0
C3605 C 0.47857 0.37132 0.83572 0.0
C3606 C 0.46401 0.38091 0.83549 0.0
H3607 H 0.42246 0.38494 0.80215 0.0
H3608 H 0.44278 0.39291 0.80711 0.0
H3609 H 0.43753 0.37166 0.81239 0.0
H3610 H 0.43929 0.35598 0.85962 0.0
H3611 H 0.46497 0.33928 0.86033 0.0
H3612 H 0.55305 0.37115 0.87255 0.0
H3613 H 0.57244 0.39476 0.87394 0.0
H3614 H 0.58671 0.3862 0.8227 0.0
H3615 H 0.5674 0.36247 0.82122 0.0
H3616 H 0.61408 0.39268 0.84555 0.0
H3617 H 0.5631 0.43974 0.84965 0.0
H3618 H 0.56219 0.4231 0.86472 0.0
H3619 H 0.5595 0.4185 0.84292 0.0
C3620 C 0.56038 0.37424 0.8616 0.0
C3621 C 0.55863 0.36504 0.84673 0.0
C3622 C 0.5714 0.38775 0.86241 0.0
C3623 C 0.58082 0.39232 0.84836 0.0
C3624 C 0.57949 0.38287 0.83365 0.0
H3625 H 0.62934 0.48501 0.8244 0.0
H3626 H 0.61236 0.45967 0.8256 0.0
C3627 C 0.56844 0.36936 0.83282 0.0
C3628 C 0.59171 0.40724 0.84883 0.0
H3629 H 0.59074 0.44976 0.85203 0.0
C3630 C 0.60902 0.40517 0.84701 0.0
C3631 C 0.585 0.42349 0.85059 0.0
C3632 C 0.56642 0.42645 0.85195 0.0
C3633 C 0.61985 0.41898 0.84696 0.0
C3634 C 0.61314 0.43521 0.84889 0.0
C3635 C 0.59583 0.43727 0.85069 0.0
C3636 C 0.62375 0.45034 0.84827 0.0
C3637 C 0.63832 0.41618 0.84441 0.0
C3638 C 0.6357 0.45352 0.86071 0.0
C3639 C 0.64542 0.46805 0.86008 0.0
C3640 C 0.6433 0.47958 0.84701 0.0
C3641 C 0.63128 0.47634 0.83462 0.0
C3642 C 0.62156 0.46189 0.83528 0.0
H3643 H 0.64105 0.40334 0.83987 0.0
H3644 H 0.64344 0.42532 0.83531 0.0
H3645 H 0.64492 0.418 0.85646 0.0
H3646 H 0.63738 0.44486 0.87097 0.0
H3647 H 0.65456 0.47025 0.86982 0.0
H3648 H 0.51273 0.37072 0.17696 0.0
H3649 H 0.5374 0.38866 0.17568 0.0
H3650 H 0.55193 0.36562 0.12919 0.0
H3651 H 0.52724 0.34747 0.13043 0.0
H3652 H 0.57829 0.36909 0.15302 0.0
H3653 H 0.54369 0.42842 0.14344 0.0
H3654 H 0.53664 0.41641 0.16104 0.0
H3655 H 0.53424 0.40818 0.14029 0.0
C3656 C 0.52115 0.36947 0.16644 0.0
C3657 C 0.51802 0.35775 0.15375 0.0
C3658 C 0.53519 0.37978 0.1657 0.0
C3659 C 0.54633 0.37862 0.15223 0.0
C3660 C 0.5434 0.36676 0.13964 0.0
H3661 H 0.62318 0.45193 0.12957 0.0
H3662 H 0.59952 0.43262 0.12839 0.0
C3663 C 0.52931 0.35643 0.14036 0.0
C3664 C 0.5611 0.38972 0.15145 0.0
H3665 H 0.57257 0.43076 0.15005 0.0
C3666 C 0.57708 0.38257 0.15227 0.0
C3667 C 0.55944 0.40727 0.15027 0.0
C3668 C 0.54259 0.41556 0.14855 0.0
C3669 C 0.59149 0.39258 0.15238 0.0
C3670 C 0.5898 0.41017 0.15187 0.0
C3671 C 0.57382 0.41728 0.15062 0.0
C3672 C 0.60443 0.42148 0.15253 0.0
C3673 C 0.6084 0.38425 0.15288 0.0
C3674 C 0.61494 0.42172 0.16657 0.0
C3675 C 0.62849 0.43274 0.16728 0.0
C3676 C 0.63166 0.44377 0.154 0.0
C3677 C 0.62106 0.44356 0.14 0.0
C3678 C 0.60754 0.43255 0.1393 0.0
H3679 H 0.6077 0.37098 0.14886 0.0
H3680 H 0.61746 0.39091 0.14475 0.0
H3681 H 0.61323 0.38454 0.16587 0.0
H3682 H 0.61255 0.41352 0.17707 0.0
H3683 H 0.63641 0.43267 0.17826 0.0
H3684 H 0.64212 0.52302 0.17966 0.0
H3685 H 0.62553 0.54867 0.17846 0.0
H3686 H 0.63326 0.55136 0.12522 0.0
H3687 H 0.64996 0.52566 0.12629 0.0
H3688 H 0.63518 0.58192 0.16409 0.0
H3689 H 0.58094 0.55106 0.13324 0.0
H3690 H 0.59671 0.53938 0.14437 0.0
H3691 H 0.60124 0.54783 0.12412 0.0
C3692 C 0.64037 0.52911 0.1677 0.0
C3693 C 0.64725 0.52231 0.15305 0.0
C3694 C 0.63093 0.54377 0.16706 0.0
C3695 C 0.62809 0.55177 0.15175 0.0
C3696 C 0.63523 0.54524 0.13713 0.0
H3697 H 0.55982 0.63299 0.12787 0.0
H3698 H 0.58066 0.61069 0.12631 0.0
C3699 C 0.64478 0.53061 0.13777 0.0
C3700 C 0.61723 0.56668 0.15111 0.0
H3701 H 0.57849 0.57973 0.1391 0.0
C3702 C 0.62281 0.58152 0.15857 0.0
C3703 C 0.60116 0.56604 0.14385 0.0
C3704 C 0.59452 0.55023 0.13601 0.0
C3705 C 0.61268 0.59584 0.15894 0.0
C3706 C 0.5964 0.59509 0.15206 0.0
C3707 C 0.59096 0.58028 0.14437 0.0
C3708 C 0.58459 0.60933 0.15304 0.0
C3709 C 0.6196 0.61166 0.16651 0.0
C3710 C 0.57984 0.61594 0.16858 0.0
C3711 C 0.56802 0.62877 0.16949 0.0
C3712 C 0.56057 0.63502 0.15489 0.0
C3713 C 0.56535 0.6284 0.13934 0.0
C3714 C 0.57725 0.61568 0.13843 0.0
H3715 H 0.63348 0.61173 0.16634 0.0
H3716 H 0.61502 0.62289 0.15977 0.0
H3717 H 0.61553 0.61254 0.17973 0.0
H3718 H 0.585 0.61094 0.18005 0.0
H3719 H 0.56448 0.63354 0.18165 0.0
H3720 H 0.49121 0.62099 0.16501 0.0
H3721 H 0.46589 0.60403 0.16398 0.0
H3722 H 0.43927 0.64502 0.14119 0.0
H3723 H 0.46488 0.66185 0.14156 0.0
H3724 H 0.43705 0.60863 0.17897 0.0
H3725 H 0.42644 0.60766 0.1105 0.0
H3726 H 0.44558 0.61527 0.11963 0.0
H3727 H 0.42731 0.62836 0.11904 0.0
C3728 C 0.48 0.62634 0.15963 0.0
C3729 C 0.48001 0.6427 0.15329 0.0
C3730 C 0.46552 0.61665 0.15908 0.0
C3731 C 0.4507 0.62315 0.15232 0.0
C3732 C 0.45064 0.63957 0.14607 0.0
H3733 H 0.35483 0.57424 0.17305 0.0
H3734 H 0.37819 0.59401 0.17246 0.0
C3735 C 0.46524 0.64921 0.14638 0.0
C3736 C 0.43529 0.61283 0.15244 0.0
H3737 H 0.40502 0.59614 0.12743 0.0
C3738 C 0.43005 0.60588 0.16769 0.0
C3739 C 0.42626 0.60911 0.1377 0.0
C3740 C 0.43175 0.61535 0.12077 0.0
C3741 C 0.41619 0.59519 0.16859 0.0
C3742 C 0.40692 0.5918 0.15392 0.0
C3743 C 0.41205 0.59887 0.1387 0.0
C3744 C 0.39237 0.5803 0.15392 0.0
C3745 C 0.41205 0.58717 0.18516 0.0
C3746 C 0.39225 0.56637 0.14326 0.0
C3747 C 0.37879 0.55528 0.14334 0.0
C3748 C 0.36523 0.55783 0.15418 0.0
C3749 C 0.36522 0.57187 0.16471 0.0
C3750 C 0.3786 0.58311 0.16445 0.0
H3751 H 0.42294 0.58726 0.19377 0.0
H3752 H 0.40181 0.59427 0.19123 0.0
H3753 H 0.40788 0.57404 0.18349 0.0
H3754 H 0.4027 0.56396 0.135 0.0
H3755 H 0.37912 0.54457 0.13506 0.0
H3756 H 0.439 0.36829 0.12899 0.0
H3757 H 0.4193 0.39172 0.12866 0.0
H3758 H 0.41711 0.3908 0.18247 0.0
H3759 H 0.43677 0.3673 0.18294 0.0
H3760 H 0.3853 0.39352 0.14489 0.0
H3761 H 0.43174 0.43974 0.16824 0.0
H3762 H 0.43783 0.42023 0.15866 0.0
H3763 H 0.43003 0.42045 0.17967 0.0
C3764 C 0.43427 0.37303 0.14075 0.0
C3765 C 0.43947 0.36604 0.15601 0.0
C3766 C 0.42301 0.38637 0.14053 0.0
C3767 C 0.41691 0.39302 0.15554 0.0
C3768 C 0.42183 0.38589 0.17077 0.0
H3769 H 0.3579 0.47978 0.18086 0.0
H3770 H 0.37489 0.45442 0.18091 0.0
C3771 C 0.43301 0.37247 0.17101 0.0
C3772 C 0.40567 0.40766 0.15527 0.0
H3773 H 0.40407 0.44918 0.16473 0.0
C3774 C 0.38935 0.40572 0.14919 0.0
C3775 C 0.41108 0.42348 0.16091 0.0
C3776 C 0.42865 0.42625 0.16715 0.0
C3777 C 0.37812 0.4192 0.14889 0.0
C3778 C 0.38356 0.43509 0.15446 0.0
C3779 C 0.39993 0.43699 0.16048 0.0
C3780 C 0.37248 0.44995 0.15435 0.0
C3781 C 0.36046 0.41621 0.14304 0.0
C3782 C 0.36549 0.45588 0.13938 0.0
C3783 C 0.35566 0.47033 0.13934 0.0
C3784 C 0.35285 0.4792 0.15423 0.0
C3785 C 0.35985 0.47322 0.16918 0.0
C3786 C 0.36956 0.45874 0.16923 0.0
H3787 H 0.35705 0.40276 0.1437 0.0
H3788 H 0.35138 0.42347 0.15061 0.0
H3789 H 0.35929 0.42024 0.12983 0.0
H3790 H 0.36791 0.44952 0.12768 0.0
H3791 H 0.35051 0.47472 0.12761 0.0
H3792 H 0.87283 0.52441 0.64788 0.0
H3793 H 0.87426 0.54989 0.63083 0.0
H3794 H 0.82093 0.54801 0.62346 0.0
H3795 H 0.81939 0.52261 0.64034 0.0
H3796 H 0.86192 0.55238 0.59609 0.0
H3797 H 0.83113 0.59686 0.63963 0.0
H3798 H 0.84055 0.57755 0.64658 0.0
H3799 H 0.82048 0.57731 0.63657 0.0
C3800 C 0.86141 0.52952 0.64272 0.0
C3801 C 0.846 0.52155 0.64544 0.0
C3802 C 0.86225 0.54403 0.633 0.0
C3803 C 0.84767 0.55088 0.62608 0.0
C3804 C 0.83227 0.54303 0.62891 0.0
H3805 H 0.81961 0.63184 0.56096 0.0
H3806 H 0.82093 0.60854 0.58076 0.0
C3807 C 0.83144 0.52849 0.63849 0.0
C3808 C 0.84854 0.56576 0.61518 0.0
H3809 H 0.83529 0.60614 0.61176 0.0
C3810 C 0.85627 0.56421 0.59954 0.0
C3811 C 0.84102 0.58107 0.61974 0.0
C3812 C 0.83292 0.58343 0.63659 0.0
C3813 C 0.85622 0.57746 0.58805 0.0
C3814 C 0.84861 0.59279 0.59256 0.0
C3815 C 0.84111 0.59439 0.60833 0.0
C3816 C 0.84794 0.60718 0.58091 0.0
C3817 C 0.86377 0.5747 0.57099 0.0
C3818 C 0.86269 0.61432 0.57468 0.0
C3819 C 0.86196 0.62751 0.56327 0.0
C3820 C 0.84647 0.63395 0.55808 0.0
C3821 C 0.83172 0.6271 0.5647 0.0
C3822 C 0.83246 0.61382 0.57602 0.0
H3823 H 0.86494 0.56119 0.56801 0.0
H3824 H 0.85614 0.58076 0.56111 0.0
H3825 H 0.87648 0.58023 0.57067 0.0
H3826 H 0.87477 0.60967 0.57861 0.0
H3827 H 0.87354 0.63265 0.5585 0.0
H3828 H 0.8186 0.47727 0.35963 0.0
H3829 H 0.81943 0.45205 0.3769 0.0
H3830 H 0.87239 0.44761 0.36813 0.0
H3831 H 0.87168 0.47286 0.35072 0.0
H3832 H 0.8329 0.41814 0.36735 0.0
H3833 H 0.8651 0.44906 0.42076 0.0
H3834 H 0.85385 0.46075 0.40507 0.0
H3835 H 0.87388 0.45195 0.40025 0.0
C3836 C 0.83042 0.47089 0.36131 0.0
C3837 C 0.8451 0.47706 0.3539 0.0
C3838 C 0.83085 0.45649 0.37114 0.0
C3839 C 0.84598 0.44811 0.37385 0.0
C3840 C 0.86062 0.45403 0.36626 0.0
H3841 H 0.87058 0.36683 0.44148 0.0
H3842 H 0.87152 0.38952 0.42105 0.0
C3843 C 0.86019 0.4684 0.35631 0.0
C3844 C 0.84639 0.43335 0.38494 0.0
H3845 H 0.85884 0.42049 0.42361 0.0
C3846 C 0.83861 0.41858 0.37964 0.0
C3847 C 0.85388 0.43405 0.4009 0.0
C3848 C 0.8621 0.4498 0.40723 0.0
C3849 C 0.8382 0.40436 0.3899 0.0
C3850 C 0.84538 0.40515 0.40605 0.0
C3851 C 0.85332 0.41991 0.41124 0.0
C3852 C 0.8447 0.3909 0.41788 0.0
C3853 C 0.83034 0.38857 0.38323 0.0
C3854 C 0.82929 0.3842 0.42298 0.0
C3855 C 0.82873 0.37113 0.43457 0.0
C3856 C 0.84356 0.36473 0.44144 0.0
C3857 C 0.85895 0.37152 0.4364 0.0
C3858 C 0.85951 0.38447 0.42473 0.0
H3859 H 0.83011 0.38847 0.36935 0.0
H3860 H 0.83715 0.37731 0.38764 0.0
H3861 H 0.81724 0.38777 0.38769 0.0
H3862 H 0.81769 0.38924 0.4182 0.0
H3863 H 0.81669 0.36622 0.43832 0.0
H3864 H 0.5352 0.8581 0.33613 0.0
H3865 H 0.56124 0.85746 0.35232 0.0
H3866 H 0.53597 0.83083 0.39181 0.0
H3867 H 0.51024 0.83087 0.37549 0.0
H3868 H 0.56933 0.87006 0.38178 0.0
H3869 H 0.57578 0.80146 0.3853 0.0
H3870 H 0.56091 0.81144 0.37162 0.0
H3871 H 0.55593 0.80801 0.39332 0.0
C3872 C 0.53527 0.85206 0.34824 0.0
C3873 C 0.52077 0.84439 0.3545 0.0
C3874 C 0.55013 0.85168 0.35747 0.0
C3875 C 0.55067 0.84372 0.37311 0.0
C3876 C 0.53603 0.83653 0.37954 0.0
H3877 H 0.61888 0.86092 0.4543 0.0
H3878 H 0.5964 0.86146 0.43366 0.0
C3879 C 0.52129 0.83669 0.37026 0.0
C3880 C 0.56634 0.84333 0.38302 0.0
H3881 H 0.59159 0.81726 0.40539 0.0
C3882 C 0.57433 0.85849 0.38677 0.0
C3883 C 0.57311 0.82821 0.38923 0.0
C3884 C 0.56608 0.81136 0.38449 0.0
C3885 C 0.58846 0.85901 0.39715 0.0
C3886 C 0.59442 0.84402 0.40442 0.0
C3887 C 0.58687 0.8288 0.40007 0.0
C3888 C 0.6082 0.84383 0.41685 0.0
C3889 C 0.59688 0.87563 0.40008 0.0
C3890 C 0.62202 0.83322 0.41464 0.0
C3891 C 0.63469 0.83259 0.42665 0.0
C3892 C 0.63381 0.84263 0.44101 0.0
C3893 C 0.61996 0.85317 0.44325 0.0
C3894 C 0.60718 0.85361 0.43138 0.0
H3895 H 0.59467 0.88433 0.38949 0.0
H3896 H 0.59159 0.88149 0.41148 0.0
H3897 H 0.61057 0.87416 0.40181 0.0
H3898 H 0.62302 0.82546 0.4036 0.0
H3899 H 0.64524 0.82436 0.42461 0.0
H3900 H 0.12748 0.6353 0.43622 0.0
H3901 H 0.127 0.61165 0.41677 0.0
H3902 H 0.18081 0.60946 0.41794 0.0
H3903 H 0.18144 0.63314 0.43735 0.0
H3904 H 0.14512 0.60772 0.3839 0.0
H3905 H 0.16286 0.56198 0.43318 0.0
H3906 H 0.15413 0.58223 0.438 0.0
H3907 H 0.17555 0.58047 0.43161 0.0
C3908 C 0.13922 0.62986 0.43223 0.0
C3909 C 0.1545 0.63599 0.43836 0.0
C3910 C 0.13891 0.61639 0.42112 0.0
C3911 C 0.15386 0.60877 0.4161 0.0
C3912 C 0.16915 0.61513 0.42183 0.0
H3913 H 0.17971 0.51986 0.36115 0.0
H3914 H 0.17921 0.54549 0.37769 0.0
C3915 C 0.16948 0.62867 0.43286 0.0
C3916 C 0.15345 0.59378 0.40532 0.0
H3917 H 0.16098 0.55184 0.40557 0.0
C3918 C 0.14853 0.59547 0.38859 0.0
C3919 C 0.1579 0.57788 0.41156 0.0
C3920 C 0.1628 0.57539 0.4296 0.0
C3921 C 0.14833 0.58165 0.37776 0.0
C3922 C 0.15281 0.56571 0.38401 0.0
C3923 C 0.15758 0.56406 0.40081 0.0
C3924 C 0.15301 0.55058 0.37332 0.0
C3925 C 0.14382 0.58432 0.35965 0.0
C3926 C 0.13842 0.54488 0.3654 0.0
C3927 C 0.13869 0.53025 0.35583 0.0
C3928 C 0.15352 0.52099 0.3542 0.0
C3929 C 0.16808 0.52671 0.36218 0.0
C3930 C 0.16782 0.54136 0.37164 0.0
H3931 H 0.14508 0.59764 0.35595 0.0
H3932 H 0.15181 0.57662 0.35133 0.0
H3933 H 0.13062 0.58057 0.35765 0.0
H3934 H 0.12676 0.5516 0.36685 0.0
H3935 H 0.12726 0.52608 0.3499 0.0
H3936 H 0.47797 0.17961 0.35983 0.0
H3937 H 0.45259 0.1781 0.37679 0.0
H3938 H 0.44925 0.12517 0.36741 0.0
H3939 H 0.47466 0.12655 0.35024 0.0
H3940 H 0.41871 0.16274 0.36587 0.0
H3941 H 0.45013 0.13352 0.42074 0.0
H3942 H 0.46154 0.14562 0.40548 0.0
H3943 H 0.45421 0.12512 0.40025 0.0
C3944 C 0.47181 0.16764 0.36131 0.0
C3945 C 0.47832 0.15317 0.35376 0.0
C3946 C 0.45731 0.16683 0.37096 0.0
C3947 C 0.44917 0.15153 0.37337 0.0
C3948 C 0.45546 0.13707 0.36571 0.0
H3949 H 0.3682 0.12729 0.44186 0.0
H3950 H 0.391 0.12584 0.42157 0.0
C3951 C 0.46993 0.13789 0.35592 0.0
C3952 C 0.43426 0.15075 0.38421 0.0
H3953 H 0.42151 0.13955 0.42329 0.0
C3954 C 0.41923 0.1576 0.3784 0.0
C3955 C 0.43508 0.14397 0.40047 0.0
C3956 C 0.45108 0.13668 0.40726 0.0
C3957 C 0.40489 0.15788 0.3885 0.0
C3958 C 0.40582 0.15155 0.405 0.0
C3959 C 0.42083 0.14444 0.41067 0.0
C3960 C 0.3915 0.15245 0.41674 0.0
C3961 C 0.38887 0.16473 0.38131 0.0
C3962 C 0.38428 0.16791 0.42087 0.0
C3963 C 0.37115 0.16875 0.43236 0.0
C3964 C 0.3652 0.15417 0.44012 0.0
C3965 C 0.37253 0.13873 0.43608 0.0
C3966 C 0.38555 0.13789 0.42448 0.0
H3967 H 0.38884 0.16409 0.36744 0.0
H3968 H 0.37783 0.15781 0.38609 0.0
H3969 H 0.38758 0.17805 0.38493 0.0
H3970 H 0.38896 0.17936 0.4154 0.0
H3971 H 0.36583 0.18083 0.43534 0.0
H3972 H 0.13127 0.47138 0.65189 0.0
H3973 H 0.13141 0.44643 0.6341 0.0
H3974 H 0.18168 0.45783 0.6184 0.0
H3975 H 0.18161 0.48278 0.636 0.0
H3976 H 0.1594 0.45135 0.59199 0.0
H3977 H 0.1569 0.40191 0.6407 0.0
H3978 H 0.14117 0.41787 0.6424 0.0
H3979 H 0.16277 0.42322 0.64528 0.0
C3980 C 0.14239 0.46847 0.64476 0.0
C3981 C 0.15643 0.47902 0.64533 0.0
C3982 C 0.14249 0.45419 0.63467 0.0
C3983 C 0.15663 0.45022 0.62508 0.0
C3984 C 0.17068 0.46066 0.62576 0.0
H3985 H 0.17952 0.36013 0.56904 0.0
H3986 H 0.17951 0.38367 0.58865 0.0
C3987 C 0.17061 0.47489 0.63583 0.0
C3988 C 0.15657 0.43567 0.61367 0.0
H3989 H 0.1541 0.39309 0.61253 0.0
C3990 C 0.15826 0.4386 0.59646 0.0
C3991 C 0.15525 0.41908 0.6196 0.0
C3992 C 0.15406 0.41523 0.63801 0.0
C3993 C 0.15847 0.42537 0.58498 0.0
C3994 C 0.15676 0.40881 0.59086 0.0
C3995 C 0.15529 0.40584 0.60808 0.0
C3996 C 0.15654 0.39441 0.57928 0.0
C3997 C 0.16077 0.4292 0.56666 0.0
C3998 C 0.14353 0.3926 0.56769 0.0
C3999 C 0.1435 0.3792 0.5565 0.0
C4000 C 0.15648 0.36737 0.55675 0.0
C4001 C 0.16939 0.3691 0.56852 0.0
C4002 C 0.16939 0.38249 0.57974 0.0
H4003 H 0.16574 0.44201 0.56463 0.0
H4004 H 0.16941 0.42008 0.56076 0.0
H4005 H 0.14852 0.42828 0.56023 0.0
H4006 H 0.13338 0.40155 0.56731 0.0
H4007 H 0.13333 0.37815 0.54763 0.0
H4008 H 0.63174 0.1805 0.56108 0.0
H4009 H 0.6077 0.1799 0.58007 0.0
H4010 H 0.60552 0.12624 0.57584 0.0
H4011 H 0.62946 0.1267 0.5568 0.0
H4012 H 0.57468 0.16396 0.57139 0.0
H4013 H 0.60574 0.13745 0.62773 0.0
H4014 H 0.61723 0.14816 0.6115 0.0
H4015 H 0.60967 0.12735 0.60801 0.0
C4016 C 0.6262 0.16857 0.56428 0.0
C4017 C 0.63247 0.15364 0.55748 0.0
C4018 C 0.61249 0.16826 0.5751 0.0
C4019 C 0.60499 0.15302 0.57942 0.0
C4020 C 0.61129 0.1381 0.57278 0.0
H4021 H 0.52142 0.12805 0.64474 0.0
H4022 H 0.54603 0.12697 0.62649 0.0
C4023 C 0.62491 0.1384 0.56186 0.0
C4024 C 0.59012 0.15279 0.59035 0.0
H4025 H 0.57659 0.14168 0.62922 0.0
C4026 C 0.57506 0.15913 0.58405 0.0
C4027 C 0.5907 0.14627 0.60673 0.0
C4028 C 0.60669 0.13948 0.61403 0.0
C4029 C 0.56045 0.15907 0.59373 0.0
C4030 C 0.56109 0.15294 0.61032 0.0
C4031 C 0.57615 0.14641 0.61653 0.0
C4032 C 0.54635 0.15356 0.62152 0.0
C4033 C 0.54443 0.16527 0.58595 0.0
C4034 C 0.5386 0.16889 0.62503 0.0
C4035 C 0.5245 0.1695 0.63527 0.0
C4036 C 0.51806 0.15483 0.64244 0.0
C4037 C 0.5261 0.13954 0.63933 0.0
C4038 C 0.54014 0.13891 0.62893 0.0
H4039 H 0.54487 0.1645 0.57209 0.0
H4040 H 0.5335 0.15799 0.59044 0.0
H4041 H 0.54254 0.17857 0.58938 0.0
H4042 H 0.54346 0.18041 0.61985 0.0
H4043 H 0.51869 0.1815 0.6376 0.0
H4044 H 0.47502 0.87276 0.64657 0.0
H4045 H 0.44958 0.87388 0.62946 0.0
H4046 H 0.4508 0.82029 0.62402 0.0
H4047 H 0.47616 0.81905 0.64099 0.0
H4048 H 0.44689 0.86048 0.59525 0.0
H4049 H 0.4021 0.8315 0.63969 0.0
H4050 H 0.42155 0.84086 0.64635 0.0
H4051 H 0.4215 0.8205 0.63692 0.0
C4052 C 0.46977 0.86122 0.64183 0.0
C4053 C 0.47755 0.84582 0.64511 0.0
C4054 C 0.45528 0.86188 0.63207 0.0
C4055 C 0.44825 0.84714 0.62567 0.0
C4056 C 0.45591 0.83176 0.62907 0.0
H4057 H 0.36679 0.81819 0.56148 0.0
H4058 H 0.3902 0.81976 0.58112 0.0
C4059 C 0.47044 0.8311 0.63869 0.0
C4060 C 0.43339 0.84781 0.61473 0.0
H4061 H 0.39285 0.83493 0.61172 0.0
C4062 C 0.435 0.85506 0.59887 0.0
C4063 C 0.418 0.84059 0.61951 0.0
C4064 C 0.41555 0.83302 0.63659 0.0
C4065 C 0.42174 0.85485 0.5874 0.0
C4066 C 0.40633 0.84755 0.59213 0.0
C4067 C 0.40467 0.84051 0.60812 0.0
C4068 C 0.39191 0.84675 0.58054 0.0
C4069 C 0.42457 0.86188 0.57013 0.0
C4070 C 0.38492 0.86141 0.57393 0.0
C4071 C 0.37165 0.86054 0.56262 0.0
C4072 C 0.36499 0.84499 0.55789 0.0
C4073 C 0.3717 0.83034 0.56487 0.0
C4074 C 0.38505 0.83122 0.57609 0.0
H4075 H 0.43809 0.8628 0.5671 0.0
H4076 H 0.41839 0.85405 0.56048 0.0
H4077 H 0.41919 0.87464 0.56946 0.0
H4078 H 0.38974 0.87354 0.57751 0.0
H4079 H 0.36663 0.87204 0.55756 0.0
loop_
_geom_bond_atom_site_label_1
_geom_bond_atom_site_label_2
_geom_bond_distance
_geom_bond_site_symmetry_2
_ccdc_geom_bond_type
In0 O1 2.294 . S
In0 O2 2.326 . S
In0 O6 2.266 . S
In0 O7 2.326 . S
In0 O8 2.266 . S
In0 O9 2.326 . S
In0 O11 2.294 . S
In0 O12 2.326 . S
O1 In0 2.294 . S
O1 C10 1.240 . S
O2 In0 2.326 . S
O2 C10 1.252 . S
C3 O6 1.252 . S
C3 O7 1.260 . S
C4 O11 1.240 . S
C4 O12 1.252 . S
C5 O8 1.251 . S
C5 O9 1.258 . S
O6 In0 2.266 . S
O6 C3 1.252 . S
O7 In0 2.326 . S
O7 C3 1.260 . S
O8 In0 2.266 . S
O8 C5 1.251 . S
O9 In0 2.326 . S
O9 C5 1.258 . S
C10 O1 1.240 . S
C10 O2 1.252 . S
O11 In0 2.294 . S
O11 C4 1.240 . S
O12 In0 2.326 . S
O12 C4 1.252 . S
In13 O14 2.294 . S
In13 O15 2.326 . S
In13 O19 2.266 . S
In13 O20 2.326 . S
In13 O21 2.266 . S
In13 O22 2.326 . S
In13 O24 2.294 . S
In13 O25 2.326 . S
O14 In13 2.294 . S
O14 C23 1.240 . S
O15 In13 2.326 . S
O15 C23 1.252 . S
C16 O19 1.251 . S
C16 O20 1.258 . S
C17 O24 1.240 . S
C17 O25 1.252 . S
C18 O21 1.252 . S
C18 O22 1.260 . S
O19 In13 2.266 . S
O19 C16 1.251 . S
O20 In13 2.326 . S
O20 C16 1.258 . S
O21 In13 2.266 . S
O21 C18 1.252 . S
O22 In13 2.326 . S
O22 C18 1.260 . S
C23 O14 1.240 . S
C23 O15 1.252 . S
O24 In13 2.294 . S
O24 C17 1.240 . S
O25 In13 2.326 . S
O25 C17 1.252 . S
In26 O27 2.294 . S
In26 O28 2.326 . S
In26 O32 2.266 . S
In26 O33 2.326 . S
In26 O34 2.266 . S
In26 O35 2.326 . S
In26 O37 2.294 . S
In26 O38 2.326 . S
O27 In26 2.294 . S
O27 C36 1.240 . S
O28 In26 2.326 . S
O28 C36 1.252 . S
C29 O32 1.252 . S
C29 O33 1.260 . S
C30 O37 1.240 . S
C30 O38 1.252 . S
C31 O34 1.251 . S
C31 O35 1.258 . S
O32 In26 2.266 . S
O32 C29 1.252 . S
O33 In26 2.326 . S
O33 C29 1.260 . S
O34 In26 2.266 . S
O34 C31 1.251 . S
O35 In26 2.326 . S
O35 C31 1.258 . S
C36 O27 1.240 . S
C36 O28 1.252 . S
O37 In26 2.294 . S
O37 C30 1.240 . S
O38 In26 2.326 . S
O38 C30 1.252 . S
In39 O40 2.294 . S
In39 O41 2.326 . S
In39 O45 2.266 . S
In39 O46 2.326 . S
In39 O47 2.266 . S
In39 O48 2.326 . S
In39 O50 2.294 . S
In39 O51 2.326 . S
O40 In39 2.294 . S
O40 C49 1.240 . S
O41 In39 2.326 . S
O41 C49 1.252 . S
C42 O45 1.251 . S
C42 O46 1.258 . S
C43 O50 1.240 . S
C43 O51 1.252 . S
C44 O47 1.252 . S
C44 O48 1.260 . S
O45 In39 2.266 . S
O45 C42 1.251 . S
O46 In39 2.326 . S
O46 C42 1.258 . S
O47 In39 2.266 . S
O47 C44 1.252 . S
O48 In39 2.326 . S
O48 C44 1.260 . S
C49 O40 1.240 . S
C49 O41 1.252 . S
O50 In39 2.294 . S
O50 C43 1.240 . S
O51 In39 2.326 . S
O51 C43 1.252 . S
In52 O53 2.294 . S
In52 O54 2.326 . S
In52 O58 2.266 . S
In52 O59 2.326 . S
In52 O60 2.266 . S
In52 O61 2.326 . S
In52 O63 2.294 . S
In52 O64 2.326 . S
O53 In52 2.294 . S
O53 C62 1.240 . S
O54 In52 2.326 . S
O54 C62 1.252 . S
C55 O58 1.251 . S
C55 O59 1.258 . S
C56 O63 1.240 . S
C56 O64 1.252 . S
C57 O60 1.252 . S
C57 O61 1.260 . S
O58 In52 2.266 . S
O58 C55 1.251 . S
O59 In52 2.326 . S
O59 C55 1.258 . S
O60 In52 2.266 . S
O60 C57 1.252 . S
O61 In52 2.326 . S
O61 C57 1.260 . S
C62 O53 1.240 . S
C62 O54 1.252 . S
O63 In52 2.294 . S
O63 C56 1.240 . S
O64 In52 2.326 . S
O64 C56 1.252 . S
In65 O66 2.294 . S
In65 O67 2.326 . S
In65 O71 2.266 . S
In65 O72 2.326 . S
In65 O73 2.266 . S
In65 O74 2.326 . S
In65 O76 2.294 . S
In65 O77 2.326 . S
O66 In65 2.294 . S
O66 C75 1.240 . S
O67 In65 2.326 . S
O67 C75 1.252 . S
C68 O71 1.252 . S
C68 O72 1.260 . S
C69 O76 1.240 . S
C69 O77 1.252 . S
C70 O73 1.251 . S
C70 O74 1.258 . S
O71 In65 2.266 . S
O71 C68 1.252 . S
O72 In65 2.326 . S
O72 C68 1.260 . S
O73 In65 2.266 . S
O73 C70 1.251 . S
O74 In65 2.326 . S
O74 C70 1.258 . S
C75 O66 1.240 . S
C75 O67 1.252 . S
O76 In65 2.294 . S
O76 C69 1.240 . S
O77 In65 2.326 . S
O77 C69 1.252 . S
In78 O79 2.294 . S
In78 O80 2.326 . S
In78 O84 2.266 . S
In78 O85 2.326 . S
In78 O86 2.266 . S
In78 O87 2.326 . S
In78 O89 2.294 . S
In78 O90 2.326 . S
O79 In78 2.294 . S
O79 C88 1.240 . S
O80 In78 2.326 . S
O80 C88 1.252 . S
C81 O84 1.252 . S
C81 O85 1.260 . S
C82 O89 1.240 . S
C82 O90 1.252 . S
C83 O86 1.251 . S
C83 O87 1.258 . S
O84 In78 2.266 . S
O84 C81 1.252 . S
O85 In78 2.326 . S
O85 C81 1.260 . S
O86 In78 2.266 . S
O86 C83 1.251 . S
O87 In78 2.326 . S
O87 C83 1.258 . S
C88 O79 1.240 . S
C88 O80 1.252 . S
O89 In78 2.294 . S
O89 C82 1.240 . S
O90 In78 2.326 . S
O90 C82 1.252 . S
In91 O92 2.294 . S
In91 O93 2.326 . S
In91 O97 2.266 . S
In91 O98 2.326 . S
In91 O99 2.266 . S
In91 O100 2.326 . S
In91 O102 2.294 . S
In91 O103 2.326 . S
O92 In91 2.294 . S
O92 C101 1.240 . S
O93 In91 2.326 . S
O93 C101 1.252 . S
C94 O97 1.252 . S
C94 O98 1.260 . S
C95 O102 1.240 . S
C95 O103 1.252 . S
C96 O99 1.251 . S
C96 O100 1.258 . S
O97 In91 2.266 . S
O97 C94 1.252 . S
O98 In91 2.326 . S
O98 C94 1.260 . S
O99 In91 2.266 . S
O99 C96 1.251 . S
O100 In91 2.326 . S
O100 C96 1.258 . S
C101 O92 1.240 . S
C101 O93 1.252 . S
O102 In91 2.294 . S
O102 C95 1.240 . S
O103 In91 2.326 . S
O103 C95 1.252 . S
In104 O105 2.294 . S
In104 O106 2.326 . S
In104 O110 2.266 . S
In104 O111 2.326 . S
In104 O112 2.266 . S
In104 O113 2.326 . S
In104 O115 2.294 . S
In104 O116 2.326 . S
O105 In104 2.294 . S
O105 C114 1.240 . S
O106 In104 2.326 . S
O106 C114 1.252 . S
C107 O110 1.251 . S
C107 O111 1.258 . S
C108 O115 1.240 . S
C108 O116 1.252 . S
C109 O112 1.252 . S
C109 O113 1.260 . S
O110 In104 2.266 . S
O110 C107 1.251 . S
O111 In104 2.326 . S
O111 C107 1.258 . S
O112 In104 2.266 . S
O112 C109 1.252 . S
O113 In104 2.326 . S
O113 C109 1.260 . S
C114 O105 1.240 . S
C114 O106 1.252 . S
O115 In104 2.294 . S
O115 C108 1.240 . S
O116 In104 2.326 . S
O116 C108 1.252 . S
In117 O118 2.294 . S
In117 O119 2.326 . S
In117 O123 2.266 . S
In117 O124 2.326 . S
In117 O125 2.266 . S
In117 O126 2.326 . S
In117 O128 2.294 . S
In117 O129 2.326 . S
O118 In117 2.294 . S
O118 C127 1.240 . S
O119 In117 2.326 . S
O119 C127 1.252 . S
C120 O123 1.252 . S
C120 O124 1.260 . S
C121 O128 1.240 . S
C121 O129 1.252 . S
C122 O125 1.251 . S
C122 O126 1.258 . S
O123 In117 2.266 . S
O123 C120 1.252 . S
O124 In117 2.326 . S
O124 C120 1.260 . S
O125 In117 2.266 . S
O125 C122 1.251 . S
O126 In117 2.326 . S
O126 C122 1.258 . S
C127 O118 1.240 . S
C127 O119 1.252 . S
O128 In117 2.294 . S
O128 C121 1.240 . S
O129 In117 2.326 . S
O129 C121 1.252 . S
In130 O131 2.294 . S
In130 O132 2.326 . S
In130 O136 2.266 . S
In130 O137 2.326 . S
In130 O138 2.266 . S
In130 O139 2.326 . S
In130 O141 2.294 . S
In130 O142 2.326 . S
O131 In130 2.294 . S
O131 C140 1.240 . S
O132 In130 2.326 . S
O132 C140 1.252 . S
C133 O136 1.251 . S
C133 O137 1.258 . S
C134 O141 1.240 . S
C134 O142 1.252 . S
C135 O138 1.252 . S
C135 O139 1.260 . S
O136 In130 2.266 . S
O136 C133 1.251 . S
O137 In130 2.326 . S
O137 C133 1.258 . S
O138 In130 2.266 . S
O138 C135 1.252 . S
O139 In130 2.326 . S
O139 C135 1.260 . S
C140 O131 1.240 . S
C140 O132 1.252 . S
O141 In130 2.294 . S
O141 C134 1.240 . S
O142 In130 2.326 . S
O142 C134 1.252 . S
In143 O144 2.294 . S
In143 O145 2.326 . S
In143 O149 2.266 . S
In143 O150 2.326 . S
In143 O151 2.266 . S
In143 O152 2.326 . S
In143 O154 2.294 . S
In143 O155 2.326 . S
O144 In143 2.294 . S
O144 C153 1.240 . S
O145 In143 2.326 . S
O145 C153 1.252 . S
C146 O149 1.252 . S
C146 O150 1.260 . S
C147 O154 1.240 . S
C147 O155 1.252 . S
C148 O151 1.251 . S
C148 O152 1.258 . S
O149 In143 2.266 . S
O149 C146 1.252 . S
O150 In143 2.326 . S
O150 C146 1.260 . S
O151 In143 2.266 . S
O151 C148 1.251 . S
O152 In143 2.326 . S
O152 C148 1.258 . S
C153 O144 1.240 . S
C153 O145 1.252 . S
O154 In143 2.294 . S
O154 C147 1.240 . S
O155 In143 2.326 . S
O155 C147 1.252 . S
In156 O157 2.294 . S
In156 O158 2.326 . S
In156 O162 2.266 . S
In156 O163 2.326 . S
In156 O164 2.266 . S
In156 O165 2.326 . S
In156 O167 2.294 . S
In156 O168 2.326 . S
O157 In156 2.294 . S
O157 C166 1.240 . S
O158 In156 2.326 . S
O158 C166 1.252 . S
C159 O162 1.252 . S
C159 O163 1.260 . S
C160 O167 1.240 . S
C160 O168 1.252 . S
C161 O164 1.251 . S
C161 O165 1.258 . S
O162 In156 2.266 . S
O162 C159 1.252 . S
O163 In156 2.326 . S
O163 C159 1.260 . S
O164 In156 2.266 . S
O164 C161 1.251 . S
O165 In156 2.326 . S
O165 C161 1.258 . S
C166 O157 1.240 . S
C166 O158 1.252 . S
O167 In156 2.294 . S
O167 C160 1.240 . S
O168 In156 2.326 . S
O168 C160 1.252 . S
In169 O170 2.294 . S
In169 O171 2.326 . S
In169 O175 2.266 . S
In169 O176 2.326 . S
In169 O177 2.266 . S
In169 O178 2.326 . S
In169 O180 2.294 . S
In169 O181 2.326 . S
O170 In169 2.294 . S
O170 C179 1.240 . S
O171 In169 2.326 . S
O171 C179 1.252 . S
C172 O175 1.251 . S
C172 O176 1.258 . S
C173 O180 1.240 . S
C173 O181 1.252 . S
C174 O177 1.252 . S
C174 O178 1.260 . S
O175 In169 2.266 . S
O175 C172 1.251 . S
O176 In169 2.326 . S
O176 C172 1.258 . S
O177 In169 2.266 . S
O177 C174 1.252 . S
O178 In169 2.326 . S
O178 C174 1.260 . S
C179 O170 1.240 . S
C179 O171 1.252 . S
O180 In169 2.294 . S
O180 C173 1.240 . S
O181 In169 2.326 . S
O181 C173 1.252 . S
In182 O183 2.294 . S
In182 O184 2.326 . S
In182 O188 2.266 . S
In182 O189 2.326 . S
In182 O190 2.266 . S
In182 O191 2.326 . S
In182 O193 2.294 . S
In182 O194 2.326 . S
O183 In182 2.294 . S
O183 C192 1.240 . S
O184 In182 2.326 . S
O184 C192 1.252 . S
C185 O188 1.251 . S
C185 O189 1.258 . S
C186 O193 1.240 . S
C186 O194 1.252 . S
C187 O190 1.252 . S
C187 O191 1.260 . S
O188 In182 2.266 . S
O188 C185 1.251 . S
O189 In182 2.326 . S
O189 C185 1.258 . S
O190 In182 2.266 . S
O190 C187 1.252 . S
O191 In182 2.326 . S
O191 C187 1.260 . S
C192 O183 1.240 . S
C192 O184 1.252 . S
O193 In182 2.294 . S
O193 C186 1.240 . S
O194 In182 2.326 . S
O194 C186 1.252 . S
In195 O196 2.294 . S
In195 O197 2.326 . S
In195 O201 2.266 . S
In195 O202 2.326 . S
In195 O203 2.266 . S
In195 O204 2.326 . S
In195 O206 2.294 . S
In195 O207 2.326 . S
O196 In195 2.294 . S
O196 C205 1.240 . S
O197 In195 2.326 . S
O197 C205 1.252 . S
C198 O201 1.252 . S
C198 O202 1.260 . S
C199 O206 1.240 . S
C199 O207 1.252 . S
C200 O203 1.251 . S
C200 O204 1.258 . S
O201 In195 2.266 . S
O201 C198 1.252 . S
O202 In195 2.326 . S
O202 C198 1.260 . S
O203 In195 2.266 . S
O203 C200 1.251 . S
O204 In195 2.326 . S
O204 C200 1.258 . S
C205 O196 1.240 . S
C205 O197 1.252 . S
O206 In195 2.294 . S
O206 C199 1.240 . S
O207 In195 2.326 . S
O207 C199 1.252 . S
In208 O209 2.294 . S
In208 O210 2.326 . S
In208 O214 2.266 . S
In208 O215 2.326 . S
In208 O216 2.266 . S
In208 O217 2.326 . S
In208 O219 2.294 . S
In208 O220 2.326 . S
O209 In208 2.294 . S
O209 C218 1.240 . S
O210 In208 2.326 . S
O210 C218 1.252 . S
C211 O214 1.252 . S
C211 O215 1.260 . S
C212 O219 1.240 . S
C212 O220 1.252 . S
C213 O216 1.251 . S
C213 O217 1.258 . S
O214 In208 2.266 . S
O214 C211 1.252 . S
O215 In208 2.326 . S
O215 C211 1.260 . S
O216 In208 2.266 . S
O216 C213 1.251 . S
O217 In208 2.326 . S
O217 C213 1.258 . S
C218 O209 1.240 . S
C218 O210 1.252 . S
O219 In208 2.294 . S
O219 C212 1.240 . S
O220 In208 2.326 . S
O220 C212 1.252 . S
In221 O222 2.294 . S
In221 O223 2.326 . S
In221 O227 2.266 . S
In221 O228 2.326 . S
In221 O229 2.266 . S
In221 O230 2.326 . S
In221 O232 2.294 . S
In221 O233 2.326 . S
O222 In221 2.294 . S
O222 C231 1.240 . S
O223 In221 2.326 . S
O223 C231 1.252 . S
C224 O227 1.252 . S
C224 O228 1.260 . S
C225 O232 1.240 . S
C225 O233 1.252 . S
C226 O229 1.251 . S
C226 O230 1.258 . S
O227 In221 2.266 . S
O227 C224 1.252 . S
O228 In221 2.326 . S
O228 C224 1.260 . S
O229 In221 2.266 . S
O229 C226 1.251 . S
O230 In221 2.326 . S
O230 C226 1.258 . S
C231 O222 1.240 . S
C231 O223 1.252 . S
O232 In221 2.294 . S
O232 C225 1.240 . S
O233 In221 2.326 . S
O233 C225 1.252 . S
In234 O235 2.294 . S
In234 O236 2.326 . S
In234 O240 2.266 . S
In234 O241 2.326 . S
In234 O242 2.266 . S
In234 O243 2.326 . S
In234 O245 2.294 . S
In234 O246 2.326 . S
O235 In234 2.294 . S
O235 C244 1.240 . S
O236 In234 2.326 . S
O236 C244 1.252 . S
C237 O240 1.252 . S
C237 O241 1.260 . S
C238 O245 1.240 . S
C238 O246 1.252 . S
C239 O242 1.251 . S
C239 O243 1.258 . S
O240 In234 2.266 . S
O240 C237 1.252 . S
O241 In234 2.326 . S
O241 C237 1.260 . S
O242 In234 2.266 . S
O242 C239 1.251 . S
O243 In234 2.326 . S
O243 C239 1.258 . S
C244 O235 1.240 . S
C244 O236 1.252 . S
O245 In234 2.294 . S
O245 C238 1.240 . S
O246 In234 2.326 . S
O246 C238 1.252 . S
In247 O248 2.294 . S
In247 O249 2.326 . S
In247 O253 2.266 . S
In247 O254 2.326 . S
In247 O255 2.266 . S
In247 O256 2.326 . S
In247 O258 2.294 . S
In247 O259 2.326 . S
O248 In247 2.294 . S
O248 C257 1.240 . S
O249 In247 2.326 . S
O249 C257 1.252 . S
C250 O253 1.251 . S
C250 O254 1.258 . S
C251 O258 1.240 . S
C251 O259 1.252 . S
C252 O255 1.252 . S
C252 O256 1.260 . S
O253 In247 2.266 . S
O253 C250 1.251 . S
O254 In247 2.326 . S
O254 C250 1.258 . S
O255 In247 2.266 . S
O255 C252 1.252 . S
O256 In247 2.326 . S
O256 C252 1.260 . S
C257 O248 1.240 . S
C257 O249 1.252 . S
O258 In247 2.294 . S
O258 C251 1.240 . S
O259 In247 2.326 . S
O259 C251 1.252 . S
In260 O261 2.294 . S
In260 O262 2.326 . S
In260 O266 2.266 . S
In260 O267 2.326 . S
In260 O268 2.266 . S
In260 O269 2.326 . S
In260 O271 2.294 . S
In260 O272 2.326 . S
O261 In260 2.294 . S
O261 C270 1.240 . S
O262 In260 2.326 . S
O262 C270 1.252 . S
C263 O266 1.251 . S
C263 O267 1.258 . S
C264 O271 1.240 . S
C264 O272 1.252 . S
C265 O268 1.252 . S
C265 O269 1.260 . S
O266 In260 2.266 . S
O266 C263 1.251 . S
O267 In260 2.326 . S
O267 C263 1.258 . S
O268 In260 2.266 . S
O268 C265 1.252 . S
O269 In260 2.326 . S
O269 C265 1.260 . S
C270 O261 1.240 . S
C270 O262 1.252 . S
O271 In260 2.294 . S
O271 C264 1.240 . S
O272 In260 2.326 . S
O272 C264 1.252 . S
In273 O274 2.294 . S
In273 O275 2.326 . S
In273 O279 2.266 . S
In273 O280 2.326 . S
In273 O281 2.266 . S
In273 O282 2.326 . S
In273 O284 2.294 . S
In273 O285 2.326 . S
O274 In273 2.294 . S
O274 C283 1.240 . S
O275 In273 2.326 . S
O275 C283 1.252 . S
C276 O279 1.252 . S
C276 O280 1.260 . S
C277 O284 1.240 . S
C277 O285 1.252 . S
C278 O281 1.251 . S
C278 O282 1.258 . S
O279 In273 2.266 . S
O279 C276 1.252 . S
O280 In273 2.326 . S
O280 C276 1.260 . S
O281 In273 2.266 . S
O281 C278 1.251 . S
O282 In273 2.326 . S
O282 C278 1.258 . S
C283 O274 1.240 . S
C283 O275 1.252 . S
O284 In273 2.294 . S
O284 C277 1.240 . S
O285 In273 2.326 . S
O285 C277 1.252 . S
In286 O287 2.294 . S
In286 O288 2.326 . S
In286 O292 2.266 . S
In286 O293 2.326 . S
In286 O294 2.266 . S
In286 O295 2.326 . S
In286 O297 2.294 . S
In286 O298 2.326 . S
O287 In286 2.294 . S
O287 C296 1.240 . S
O288 In286 2.326 . S
O288 C296 1.252 . S
C289 O292 1.251 . S
C289 O293 1.258 . S
C290 O297 1.240 . S
C290 O298 1.252 . S
C291 O294 1.252 . S
C291 O295 1.260 . S
O292 In286 2.266 . S
O292 C289 1.251 . S
O293 In286 2.326 . S
O293 C289 1.258 . S
O294 In286 2.266 . S
O294 C291 1.252 . S
O295 In286 2.326 . S
O295 C291 1.260 . S
C296 O287 1.240 . S
C296 O288 1.252 . S
O297 In286 2.294 . S
O297 C290 1.240 . S
O298 In286 2.326 . S
O298 C290 1.252 . S
In299 O300 2.294 . S
In299 O301 2.326 . S
In299 O305 2.266 . S
In299 O306 2.326 . S
In299 O307 2.266 . S
In299 O308 2.326 . S
In299 O310 2.294 . S
In299 O311 2.326 . S
O300 In299 2.294 . S
O300 C309 1.240 . S
O301 In299 2.326 . S
O301 C309 1.252 . S
C302 O305 1.252 . S
C302 O306 1.260 . S
C303 O310 1.240 . S
C303 O311 1.252 . S
C304 O307 1.251 . S
C304 O308 1.258 . S
O305 In299 2.266 . S
O305 C302 1.252 . S
O306 In299 2.326 . S
O306 C302 1.260 . S
O307 In299 2.266 . S
O307 C304 1.251 . S
O308 In299 2.326 . S
O308 C304 1.258 . S
C309 O300 1.240 . S
C309 O301 1.252 . S
O310 In299 2.294 . S
O310 C303 1.240 . S
O311 In299 2.326 . S
O311 C303 1.252 . S
In312 O313 2.294 . S
In312 O314 2.326 . S
In312 O318 2.266 . S
In312 O319 2.326 . S
In312 O320 2.266 . S
In312 O321 2.326 . S
In312 O323 2.294 . S
In312 O324 2.326 . S
O313 In312 2.294 . S
O313 C322 1.240 . S
O314 In312 2.326 . S
O314 C322 1.252 . S
C315 O318 1.252 . S
C315 O319 1.260 . S
C316 O323 1.240 . S
C316 O324 1.252 . S
C317 O320 1.252 . S
C317 O321 1.260 . S
O318 In312 2.266 . S
O318 C315 1.252 . S
O319 In312 2.326 . S
O319 C315 1.260 . S
O320 In312 2.266 . S
O320 C317 1.252 . S
O321 In312 2.326 . S
O321 C317 1.260 . S
C322 O313 1.240 . S
C322 O314 1.252 . S
O323 In312 2.294 . S
O323 C316 1.240 . S
O324 In312 2.326 . S
O324 C316 1.252 . S
In325 O326 2.294 . S
In325 O327 2.326 . S
In325 O331 2.266 . S
In325 O332 2.326 . S
In325 O333 2.266 . S
In325 O334 2.326 . S
In325 O336 2.294 . S
In325 O337 2.326 . S
O326 In325 2.294 . S
O326 C335 1.240 . S
O327 In325 2.326 . S
O327 C335 1.252 . S
C328 O331 1.252 . S
C328 O332 1.260 . S
C329 O336 1.240 . S
C329 O337 1.252 . S
C330 O333 1.252 . S
C330 O334 1.260 . S
O331 In325 2.266 . S
O331 C328 1.252 . S
O332 In325 2.326 . S
O332 C328 1.260 . S
O333 In325 2.266 . S
O333 C330 1.252 . S
O334 In325 2.326 . S
O334 C330 1.260 . S
C335 O326 1.240 . S
C335 O327 1.252 . S
O336 In325 2.294 . S
O336 C329 1.240 . S
O337 In325 2.326 . S
O337 C329 1.252 . S
In338 O339 2.294 . S
In338 O340 2.326 . S
In338 O344 2.266 . S
In338 O345 2.326 . S
In338 O346 2.266 . S
In338 O347 2.326 . S
In338 O349 2.294 . S
In338 O350 2.326 . S
O339 In338 2.294 . S
O339 C348 1.240 . S
O340 In338 2.326 . S
O340 C348 1.252 . S
C341 O344 1.252 . S
C341 O345 1.260 . S
C342 O349 1.240 . S
C342 O350 1.252 . S
C343 O346 1.252 . S
C343 O347 1.260 . S
O344 In338 2.266 . S
O344 C341 1.252 . S
O345 In338 2.326 . S
O345 C341 1.260 . S
O346 In338 2.266 . S
O346 C343 1.252 . S
O347 In338 2.326 . S
O347 C343 1.260 . S
C348 O339 1.240 . S
C348 O340 1.252 . S
O349 In338 2.294 . S
O349 C342 1.240 . S
O350 In338 2.326 . S
O350 C342 1.252 . S
In351 O352 2.294 . S
In351 O353 2.326 . S
In351 O357 2.266 . S
In351 O358 2.326 . S
In351 O359 2.266 . S
In351 O360 2.326 . S
In351 O362 2.294 . S
In351 O363 2.326 . S
O352 In351 2.294 . S
O352 C361 1.240 . S
O353 In351 2.326 . S
O353 C361 1.252 . S
C354 O357 1.252 . S
C354 O358 1.260 . S
C355 O362 1.240 . S
C355 O363 1.252 . S
C356 O359 1.252 . S
C356 O360 1.260 . S
O357 In351 2.266 . S
O357 C354 1.252 . S
O358 In351 2.326 . S
O358 C354 1.260 . S
O359 In351 2.266 . S
O359 C356 1.252 . S
O360 In351 2.326 . S
O360 C356 1.260 . S
C361 O352 1.240 . S
C361 O353 1.252 . S
O362 In351 2.294 . S
O362 C355 1.240 . S
O363 In351 2.326 . S
O363 C355 1.252 . S
In364 O365 2.294 . S
In364 O366 2.326 . S
In364 O370 2.266 . S
In364 O371 2.326 . S
In364 O372 2.266 . S
In364 O373 2.326 . S
In364 O375 2.294 . S
In364 O376 2.326 . S
O365 In364 2.294 . S
O365 C374 1.240 . S
O366 In364 2.326 . S
O366 C374 1.252 . S
C367 O370 1.252 . S
C367 O371 1.260 . S
C368 O375 1.240 . S
C368 O376 1.252 . S
C369 O372 1.252 . S
C369 O373 1.260 . S
O370 In364 2.266 . S
O370 C367 1.252 . S
O371 In364 2.326 . S
O371 C367 1.260 . S
O372 In364 2.266 . S
O372 C369 1.252 . S
O373 In364 2.326 . S
O373 C369 1.260 . S
C374 O365 1.240 . S
C374 O366 1.252 . S
O375 In364 2.294 . S
O375 C368 1.240 . S
O376 In364 2.326 . S
O376 C368 1.252 . S
In377 O378 2.294 . S
In377 O379 2.326 . S
In377 O383 2.266 . S
In377 O384 2.326 . S
In377 O385 2.266 . S
In377 O386 2.326 . S
In377 O388 2.294 . S
In377 O389 2.326 . S
O378 In377 2.294 . S
O378 C387 1.240 . S
O379 In377 2.326 . S
O379 C387 1.252 . S
C380 O383 1.252 . S
C380 O384 1.260 . S
C381 O388 1.240 . S
C381 O389 1.252 . S
C382 O385 1.252 . S
C382 O386 1.260 . S
O383 In377 2.266 . S
O383 C380 1.252 . S
O384 In377 2.326 . S
O384 C380 1.260 . S
O385 In377 2.266 . S
O385 C382 1.252 . S
O386 In377 2.326 . S
O386 C382 1.260 . S
C387 O378 1.240 . S
C387 O379 1.252 . S
O388 In377 2.294 . S
O388 C381 1.240 . S
O389 In377 2.326 . S
O389 C381 1.252 . S
In390 O391 2.294 . S
In390 O392 2.326 . S
In390 O396 2.266 . S
In390 O397 2.326 . S
In390 O398 2.266 . S
In390 O399 2.326 . S
In390 O401 2.294 . S
In390 O402 2.326 . S
O391 In390 2.294 . S
O391 C400 1.240 . S
O392 In390 2.326 . S
O392 C400 1.252 . S
C393 O396 1.252 . S
C393 O397 1.260 . S
C394 O401 1.240 . S
C394 O402 1.252 . S
C395 O398 1.252 . S
C395 O399 1.260 . S
O396 In390 2.266 . S
O396 C393 1.252 . S
O397 In390 2.326 . S
O397 C393 1.260 . S
O398 In390 2.266 . S
O398 C395 1.252 . S
O399 In390 2.326 . S
O399 C395 1.260 . S
C400 O391 1.240 . S
C400 O392 1.252 . S
O401 In390 2.294 . S
O401 C394 1.240 . S
O402 In390 2.326 . S
O402 C394 1.252 . S
In403 O404 2.294 . S
In403 O405 2.326 . S
In403 O409 2.266 . S
In403 O410 2.326 . S
In403 O411 2.266 . S
In403 O412 2.326 . S
In403 O414 2.294 . S
In403 O415 2.326 . S
O404 In403 2.294 . S
O404 C413 1.240 . S
O405 In403 2.326 . S
O405 C413 1.252 . S
C406 O409 1.252 . S
C406 O410 1.260 . S
C407 O414 1.240 . S
C407 O415 1.252 . S
C408 O411 1.252 . S
C408 O412 1.260 . S
O409 In403 2.266 . S
O409 C406 1.252 . S
O410 In403 2.326 . S
O410 C406 1.260 . S
O411 In403 2.266 . S
O411 C408 1.252 . S
O412 In403 2.326 . S
O412 C408 1.260 . S
C413 O404 1.240 . S
C413 O405 1.252 . S
O414 In403 2.294 . S
O414 C407 1.240 . S
O415 In403 2.326 . S
O415 C407 1.252 . S
In416 O417 2.294 . S
In416 O418 2.326 . S
In416 O422 2.266 . S
In416 O423 2.326 . S
In416 O424 2.266 . S
In416 O425 2.326 . S
In416 O427 2.294 . S
In416 O428 2.326 . S
O417 In416 2.294 . S
O417 C426 1.240 . S
O418 In416 2.326 . S
O418 C426 1.252 . S
C419 O422 1.252 . S
C419 O423 1.260 . S
C420 O427 1.240 . S
C420 O428 1.252 . S
C421 O424 1.252 . S
C421 O425 1.260 . S
O422 In416 2.266 . S
O422 C419 1.252 . S
O423 In416 2.326 . S
O423 C419 1.260 . S
O424 In416 2.266 . S
O424 C421 1.252 . S
O425 In416 2.326 . S
O425 C421 1.260 . S
C426 O417 1.240 . S
C426 O418 1.252 . S
O427 In416 2.294 . S
O427 C420 1.240 . S
O428 In416 2.326 . S
O428 C420 1.252 . S
In429 O430 2.294 . S
In429 O431 2.326 . S
In429 O435 2.266 . S
In429 O436 2.326 . S
In429 O437 2.266 . S
In429 O438 2.326 . S
In429 O440 2.294 . S
In429 O441 2.326 . S
O430 In429 2.294 . S
O430 C439 1.240 . S
O431 In429 2.326 . S
O431 C439 1.252 . S
C432 O435 1.252 . S
C432 O436 1.260 . S
C433 O440 1.240 . S
C433 O441 1.252 . S
C434 O437 1.252 . S
C434 O438 1.260 . S
O435 In429 2.266 . S
O435 C432 1.252 . S
O436 In429 2.326 . S
O436 C432 1.260 . S
O437 In429 2.266 . S
O437 C434 1.252 . S
O438 In429 2.326 . S
O438 C434 1.260 . S
C439 O430 1.240 . S
C439 O431 1.252 . S
O440 In429 2.294 . S
O440 C433 1.240 . S
O441 In429 2.326 . S
O441 C433 1.252 . S
In442 O443 2.294 . S
In442 O444 2.326 . S
In442 O448 2.266 . S
In442 O449 2.326 . S
In442 O450 2.266 . S
In442 O451 2.326 . S
In442 O453 2.294 . S
In442 O454 2.326 . S
O443 In442 2.294 . S
O443 C452 1.240 . S
O444 In442 2.326 . S
O444 C452 1.252 . S
C445 O448 1.252 . S
C445 O449 1.260 . S
C446 O453 1.240 . S
C446 O454 1.252 . S
C447 O450 1.252 . S
C447 O451 1.260 . S
O448 In442 2.266 . S
O448 C445 1.252 . S
O449 In442 2.326 . S
O449 C445 1.260 . S
O450 In442 2.266 . S
O450 C447 1.252 . S
O451 In442 2.326 . S
O451 C447 1.260 . S
C452 O443 1.240 . S
C452 O444 1.252 . S
O453 In442 2.294 . S
O453 C446 1.240 . S
O454 In442 2.326 . S
O454 C446 1.252 . S
In455 O456 2.294 . S
In455 O457 2.326 . S
In455 O461 2.266 . S
In455 O462 2.326 . S
In455 O463 2.266 . S
In455 O464 2.326 . S
In455 O466 2.294 . S
In455 O467 2.326 . S
O456 In455 2.294 . S
O456 C465 1.240 . S
O457 In455 2.326 . S
O457 C465 1.252 . S
C458 O461 1.252 . S
C458 O462 1.260 . S
C459 O466 1.240 . S
C459 O467 1.252 . S
C460 O463 1.252 . S
C460 O464 1.260 . S
O461 In455 2.266 . S
O461 C458 1.252 . S
O462 In455 2.326 . S
O462 C458 1.260 . S
O463 In455 2.266 . S
O463 C460 1.252 . S
O464 In455 2.326 . S
O464 C460 1.260 . S
C465 O456 1.240 . S
C465 O457 1.252 . S
O466 In455 2.294 . S
O466 C459 1.240 . S
O467 In455 2.326 . S
O467 C459 1.252 . S
In468 O469 2.294 . S
In468 O470 2.326 . S
In468 O474 2.266 . S
In468 O475 2.326 . S
In468 O476 2.266 . S
In468 O477 2.326 . S
In468 O479 2.294 . S
In468 O480 2.326 . S
O469 In468 2.294 . S
O469 C478 1.240 . S
O470 In468 2.326 . S
O470 C478 1.252 . S
C471 O474 1.252 . S
C471 O475 1.260 . S
C472 O479 1.240 . S
C472 O480 1.252 . S
C473 O476 1.252 . S
C473 O477 1.260 . S
O474 In468 2.266 . S
O474 C471 1.252 . S
O475 In468 2.326 . S
O475 C471 1.260 . S
O476 In468 2.266 . S
O476 C473 1.252 . S
O477 In468 2.326 . S
O477 C473 1.260 . S
C478 O469 1.240 . S
C478 O470 1.252 . S
O479 In468 2.294 . S
O479 C472 1.240 . S
O480 In468 2.326 . S
O480 C472 1.252 . S
In481 O482 2.294 . S
In481 O483 2.326 . S
In481 O487 2.266 . S
In481 O488 2.326 . S
In481 O489 2.266 . S
In481 O490 2.326 . S
In481 O492 2.294 . S
In481 O493 2.326 . S
O482 In481 2.294 . S
O482 C491 1.240 . S
O483 In481 2.326 . S
O483 C491 1.252 . S
C484 O487 1.252 . S
C484 O488 1.260 . S
C485 O492 1.240 . S
C485 O493 1.252 . S
C486 O489 1.252 . S
C486 O490 1.260 . S
O487 In481 2.266 . S
O487 C484 1.252 . S
O488 In481 2.326 . S
O488 C484 1.260 . S
O489 In481 2.266 . S
O489 C486 1.252 . S
O490 In481 2.326 . S
O490 C486 1.260 . S
C491 O482 1.240 . S
C491 O483 1.252 . S
O492 In481 2.294 . S
O492 C485 1.240 . S
O493 In481 2.326 . S
O493 C485 1.252 . S
In494 O495 2.294 . S
In494 O496 2.326 . S
In494 O500 2.266 . S
In494 O501 2.326 . S
In494 O502 2.266 . S
In494 O503 2.326 . S
In494 O505 2.294 . S
In494 O506 2.326 . S
O495 In494 2.294 . S
O495 C504 1.240 . S
O496 In494 2.326 . S
O496 C504 1.252 . S
C497 O500 1.252 . S
C497 O501 1.260 . S
C498 O505 1.240 . S
C498 O506 1.252 . S
C499 O502 1.252 . S
C499 O503 1.260 . S
O500 In494 2.266 . S
O500 C497 1.252 . S
O501 In494 2.326 . S
O501 C497 1.260 . S
O502 In494 2.266 . S
O502 C499 1.252 . S
O503 In494 2.326 . S
O503 C499 1.260 . S
C504 O495 1.240 . S
C504 O496 1.252 . S
O505 In494 2.294 . S
O505 C498 1.240 . S
O506 In494 2.326 . S
O506 C498 1.252 . S
In507 O508 2.294 . S
In507 O509 2.326 . S
In507 O513 2.266 . S
In507 O514 2.326 . S
In507 O515 2.266 . S
In507 O516 2.326 . S
In507 O518 2.294 . S
In507 O519 2.326 . S
O508 In507 2.294 . S
O508 C517 1.240 . S
O509 In507 2.326 . S
O509 C517 1.252 . S
C510 O513 1.252 . S
C510 O514 1.260 . S
C511 O518 1.240 . S
C511 O519 1.252 . S
C512 O515 1.252 . S
C512 O516 1.260 . S
O513 In507 2.266 . S
O513 C510 1.252 . S
O514 In507 2.326 . S
O514 C510 1.260 . S
O515 In507 2.266 . S
O515 C512 1.252 . S
O516 In507 2.326 . S
O516 C512 1.260 . S
C517 O508 1.240 . S
C517 O509 1.252 . S
O518 In507 2.294 . S
O518 C511 1.240 . S
O519 In507 2.326 . S
O519 C511 1.252 . S
In520 O521 2.294 . S
In520 O522 2.326 . S
In520 O526 2.266 . S
In520 O527 2.326 . S
In520 O528 2.266 . S
In520 O529 2.326 . S
In520 O531 2.294 . S
In520 O532 2.326 . S
O521 In520 2.294 . S
O521 C530 1.240 . S
O522 In520 2.326 . S
O522 C530 1.252 . S
C523 O526 1.252 . S
C523 O527 1.260 . S
C524 O531 1.240 . S
C524 O532 1.252 . S
C525 O528 1.252 . S
C525 O529 1.260 . S
O526 In520 2.266 . S
O526 C523 1.252 . S
O527 In520 2.326 . S
O527 C523 1.260 . S
O528 In520 2.266 . S
O528 C525 1.252 . S
O529 In520 2.326 . S
O529 C525 1.260 . S
C530 O521 1.240 . S
C530 O522 1.252 . S
O531 In520 2.294 . S
O531 C524 1.240 . S
O532 In520 2.326 . S
O532 C524 1.252 . S
In533 O534 2.294 . S
In533 O535 2.326 . S
In533 O539 2.266 . S
In533 O540 2.326 . S
In533 O541 2.266 . S
In533 O542 2.326 . S
In533 O544 2.294 . S
In533 O545 2.326 . S
O534 In533 2.294 . S
O534 C543 1.240 . S
O535 In533 2.326 . S
O535 C543 1.252 . S
C536 O539 1.252 . S
C536 O540 1.260 . S
C537 O544 1.240 . S
C537 O545 1.252 . S
C538 O541 1.252 . S
C538 O542 1.260 . S
O539 In533 2.266 . S
O539 C536 1.252 . S
O540 In533 2.326 . S
O540 C536 1.260 . S
O541 In533 2.266 . S
O541 C538 1.252 . S
O542 In533 2.326 . S
O542 C538 1.260 . S
C543 O534 1.240 . S
C543 O535 1.252 . S
O544 In533 2.294 . S
O544 C537 1.240 . S
O545 In533 2.326 . S
O545 C537 1.252 . S
In546 O547 2.294 . S
In546 O548 2.326 . S
In546 O552 2.266 . S
In546 O553 2.326 . S
In546 O554 2.266 . S
In546 O555 2.326 . S
In546 O557 2.294 . S
In546 O558 2.326 . S
O547 In546 2.294 . S
O547 C556 1.240 . S
O548 In546 2.326 . S
O548 C556 1.252 . S
C549 O552 1.252 . S
C549 O553 1.260 . S
C550 O557 1.240 . S
C550 O558 1.252 . S
C551 O554 1.252 . S
C551 O555 1.260 . S
O552 In546 2.266 . S
O552 C549 1.252 . S
O553 In546 2.326 . S
O553 C549 1.260 . S
O554 In546 2.266 . S
O554 C551 1.252 . S
O555 In546 2.326 . S
O555 C551 1.260 . S
C556 O547 1.240 . S
C556 O548 1.252 . S
O557 In546 2.294 . S
O557 C550 1.240 . S
O558 In546 2.326 . S
O558 C550 1.252 . S
In559 O560 2.294 . S
In559 O561 2.326 . S
In559 O565 2.266 . S
In559 O566 2.326 . S
In559 O567 2.266 . S
In559 O568 2.326 . S
In559 O570 2.294 . S
In559 O571 2.326 . S
O560 In559 2.294 . S
O560 C569 1.240 . S
O561 In559 2.326 . S
O561 C569 1.252 . S
C562 O565 1.252 . S
C562 O566 1.260 . S
C563 O570 1.240 . S
C563 O571 1.252 . S
C564 O567 1.252 . S
C564 O568 1.260 . S
O565 In559 2.266 . S
O565 C562 1.252 . S
O566 In559 2.326 . S
O566 C562 1.260 . S
O567 In559 2.266 . S
O567 C564 1.252 . S
O568 In559 2.326 . S
O568 C564 1.260 . S
C569 O560 1.240 . S
C569 O561 1.252 . S
O570 In559 2.294 . S
O570 C563 1.240 . S
O571 In559 2.326 . S
O571 C563 1.252 . S
In572 O573 2.294 . S
In572 O574 2.326 . S
In572 O578 2.266 . S
In572 O579 2.326 . S
In572 O580 2.266 . S
In572 O581 2.326 . S
In572 O583 2.294 . S
In572 O584 2.326 . S
O573 In572 2.294 . S
O573 C582 1.240 . S
O574 In572 2.326 . S
O574 C582 1.252 . S
C575 O578 1.252 . S
C575 O579 1.260 . S
C576 O583 1.240 . S
C576 O584 1.252 . S
C577 O580 1.252 . S
C577 O581 1.260 . S
O578 In572 2.266 . S
O578 C575 1.252 . S
O579 In572 2.326 . S
O579 C575 1.260 . S
O580 In572 2.266 . S
O580 C577 1.252 . S
O581 In572 2.326 . S
O581 C577 1.260 . S
C582 O573 1.240 . S
C582 O574 1.252 . S
O583 In572 2.294 . S
O583 C576 1.240 . S
O584 In572 2.326 . S
O584 C576 1.252 . S
In585 O586 2.294 . S
In585 O587 2.326 . S
In585 O591 2.266 . S
In585 O592 2.326 . S
In585 O593 2.266 . S
In585 O594 2.326 . S
In585 O596 2.294 . S
In585 O597 2.326 . S
O586 In585 2.294 . S
O586 C595 1.240 . S
O587 In585 2.326 . S
O587 C595 1.252 . S
C588 O591 1.252 . S
C588 O592 1.260 . S
C589 O596 1.240 . S
C589 O597 1.252 . S
C590 O593 1.252 . S
C590 O594 1.260 . S
O591 In585 2.266 . S
O591 C588 1.252 . S
O592 In585 2.326 . S
O592 C588 1.260 . S
O593 In585 2.266 . S
O593 C590 1.252 . S
O594 In585 2.326 . S
O594 C590 1.260 . S
C595 O586 1.240 . S
C595 O587 1.252 . S
O596 In585 2.294 . S
O596 C589 1.240 . S
O597 In585 2.326 . S
O597 C589 1.252 . S
In598 O599 2.294 . S
In598 O600 2.326 . S
In598 O604 2.266 . S
In598 O605 2.326 . S
In598 O606 2.266 . S
In598 O607 2.326 . S
In598 O609 2.294 . S
In598 O610 2.326 . S
O599 In598 2.294 . S
O599 C608 1.240 . S
O600 In598 2.326 . S
O600 C608 1.252 . S
C601 O604 1.252 . S
C601 O605 1.260 . S
C602 O609 1.240 . S
C602 O610 1.252 . S
C603 O606 1.252 . S
C603 O607 1.260 . S
O604 In598 2.266 . S
O604 C601 1.252 . S
O605 In598 2.326 . S
O605 C601 1.260 . S
O606 In598 2.266 . S
O606 C603 1.252 . S
O607 In598 2.326 . S
O607 C603 1.260 . S
C608 O599 1.240 . S
C608 O600 1.252 . S
O609 In598 2.294 . S
O609 C602 1.240 . S
O610 In598 2.326 . S
O610 C602 1.252 . S
In611 O612 2.294 . S
In611 O613 2.326 . S
In611 O617 2.266 . S
In611 O618 2.326 . S
In611 O619 2.266 . S
In611 O620 2.326 . S
In611 O622 2.294 . S
In611 O623 2.326 . S
O612 In611 2.294 . S
O612 C621 1.240 . S
O613 In611 2.326 . S
O613 C621 1.252 . S
C614 O617 1.252 . S
C614 O618 1.260 . S
C615 O622 1.240 . S
C615 O623 1.252 . S
C616 O619 1.252 . S
C616 O620 1.260 . S
O617 In611 2.266 . S
O617 C614 1.252 . S
O618 In611 2.326 . S
O618 C614 1.260 . S
O619 In611 2.266 . S
O619 C616 1.252 . S
O620 In611 2.326 . S
O620 C616 1.260 . S
C621 O612 1.240 . S
C621 O613 1.252 . S
O622 In611 2.294 . S
O622 C615 1.240 . S
O623 In611 2.326 . S
O623 C615 1.252 . S
H624 C632 0.929 . S
H625 C634 0.930 . S
H626 C636 0.930 . S
H627 C639 0.929 . S
H628 C642 0.930 . S
H629 C644 0.960 . S
H630 C644 0.960 . S
H631 C644 0.960 . S
C632 H624 0.929 . S
C632 C633 1.377 . S
C632 C634 1.384 . S
C633 C632 1.377 . S
C633 C639 1.390 . S
C634 H625 0.930 . S
C634 C632 1.384 . S
C634 C635 1.372 . S
C635 C634 1.372 . S
C635 C636 1.400 . S
C635 C640 1.490 . S
C636 H626 0.930 . S
C636 C635 1.400 . S
C636 C639 1.386 . S
H637 C653 0.930 . S
H638 C654 0.931 . S
C639 H627 0.929 . S
C639 C633 1.390 . S
C639 C636 1.386 . S
C640 C635 1.490 . S
C640 C642 1.395 . S
C640 C643 1.403 . S
H641 C647 0.930 . S
C642 H628 0.930 . S
C642 C640 1.395 . S
C642 C645 1.403 . S
C643 C640 1.403 . S
C643 C644 1.524 . S
C643 C647 1.400 . S
C644 H629 0.960 . S
C644 H630 0.960 . S
C644 H631 0.960 . S
C644 C643 1.524 . S
C645 C642 1.403 . S
C645 C646 1.392 . S
C645 C649 1.495 . S
C646 C645 1.392 . S
C646 C647 1.385 . S
C646 C648 1.478 . S
C647 H641 0.930 . S
C647 C643 1.400 . S
C647 C646 1.385 . S
C648 C646 1.478 . S
C648 C650 1.381 . S
C648 C654 1.383 . S
C649 C645 1.495 . S
C649 H655 0.959 . S
C649 H656 0.961 . S
C649 H657 0.960 . S
C650 C648 1.381 . S
C650 C651 1.394 . S
C650 H658 0.930 . S
C651 C650 1.394 . S
C651 C652 1.383 . S
C651 H659 0.929 . S
C652 C651 1.383 . S
C652 C653 1.377 . S
C653 H637 0.930 . S
C653 C652 1.377 . S
C653 C654 1.379 . S
C654 H638 0.931 . S
C654 C648 1.383 . S
C654 C653 1.379 . S
H655 C649 0.959 . S
H656 C649 0.961 . S
H657 C649 0.960 . S
H658 C650 0.930 . S
H659 C651 0.929 . S
H660 C668 0.929 . S
H661 C670 0.930 . S
H662 C672 0.930 . S
H663 C675 0.929 . S
H664 C678 0.930 . S
H665 C680 0.960 . S
H666 C680 0.960 . S
H667 C680 0.960 . S
C668 H660 0.929 . S
C668 C669 1.377 . S
C668 C670 1.384 . S
C669 C668 1.377 . S
C669 C675 1.390 . S
C670 H661 0.930 . S
C670 C668 1.384 . S
C670 C671 1.372 . S
C671 C670 1.372 . S
C671 C672 1.400 . S
C671 C676 1.490 . S
C672 H662 0.930 . S
C672 C671 1.400 . S
C672 C675 1.386 . S
H673 C689 0.930 . S
H674 C690 0.931 . S
C675 H663 0.929 . S
C675 C669 1.390 . S
C675 C672 1.386 . S
C676 C671 1.490 . S
C676 C678 1.395 . S
C676 C679 1.403 . S
H677 C683 0.930 . S
C678 H664 0.930 . S
C678 C676 1.395 . S
C678 C681 1.403 . S
C679 C676 1.403 . S
C679 C680 1.524 . S
C679 C683 1.400 . S
C680 H665 0.960 . S
C680 H666 0.960 . S
C680 H667 0.960 . S
C680 C679 1.524 . S
C681 C678 1.403 . S
C681 C682 1.392 . S
C681 C685 1.495 . S
C682 C681 1.392 . S
C682 C683 1.385 . S
C682 C684 1.478 . S
C683 H677 0.930 . S
C683 C679 1.400 . S
C683 C682 1.385 . S
C684 C682 1.478 . S
C684 C686 1.381 . S
C684 C690 1.383 . S
C685 C681 1.495 . S
C685 H691 0.959 . S
C685 H692 0.961 . S
C685 H693 0.960 . S
C686 C684 1.381 . S
C686 C687 1.394 . S
C686 H694 0.930 . S
C687 C686 1.394 . S
C687 C688 1.383 . S
C687 H695 0.929 . S
C688 C687 1.383 . S
C688 C689 1.377 . S
C689 H673 0.930 . S
C689 C688 1.377 . S
C689 C690 1.379 . S
C690 H674 0.931 . S
C690 C684 1.383 . S
C690 C689 1.379 . S
H691 C685 0.959 . S
H692 C685 0.961 . S
H693 C685 0.960 . S
H694 C686 0.930 . S
H695 C687 0.929 . S
H696 C704 0.929 . S
H697 C706 0.930 . S
H698 C708 0.930 . S
H699 C711 0.929 . S
H700 C714 0.930 . S
H701 C716 0.960 . S
H702 C716 0.960 . S
H703 C716 0.960 . S
C704 H696 0.929 . S
C704 C705 1.377 . S
C704 C706 1.384 . S
C705 C704 1.377 . S
C705 C711 1.390 . S
C706 H697 0.930 . S
C706 C704 1.384 . S
C706 C707 1.372 . S
C707 C706 1.372 . S
C707 C708 1.400 . S
C707 C712 1.490 . S
C708 H698 0.930 . S
C708 C707 1.400 . S
C708 C711 1.386 . S
H709 C725 0.930 . S
H710 C726 0.931 . S
C711 H699 0.929 . S
C711 C705 1.390 . S
C711 C708 1.386 . S
C712 C707 1.490 . S
C712 C714 1.395 . S
C712 C715 1.403 . S
H713 C719 0.930 . S
C714 H700 0.930 . S
C714 C712 1.395 . S
C714 C717 1.403 . S
C715 C712 1.403 . S
C715 C716 1.524 . S
C715 C719 1.400 . S
C716 H701 0.960 . S
C716 H702 0.960 . S
C716 H703 0.960 . S
C716 C715 1.524 . S
C717 C714 1.403 . S
C717 C718 1.392 . S
C717 C721 1.495 . S
C718 C717 1.392 . S
C718 C719 1.385 . S
C718 C720 1.478 . S
C719 H713 0.930 . S
C719 C715 1.400 . S
C719 C718 1.385 . S
C720 C718 1.478 . S
C720 C722 1.381 . S
C720 C726 1.383 . S
C721 C717 1.495 . S
C721 H727 0.959 . S
C721 H728 0.961 . S
C721 H729 0.960 . S
C722 C720 1.381 . S
C722 C723 1.394 . S
C722 H730 0.930 . S
C723 C722 1.394 . S
C723 C724 1.383 . S
C723 H731 0.929 . S
C724 C723 1.383 . S
C724 C725 1.377 . S
C725 H709 0.930 . S
C725 C724 1.377 . S
C725 C726 1.379 . S
C726 H710 0.931 . S
C726 C720 1.383 . S
C726 C725 1.379 . S
H727 C721 0.959 . S
H728 C721 0.961 . S
H729 C721 0.960 . S
H730 C722 0.930 . S
H731 C723 0.929 . S
H732 C740 0.929 . S
H733 C742 0.930 . S
H734 C744 0.930 . S
H735 C747 0.929 . S
H736 C750 0.930 . S
H737 C752 0.960 . S
H738 C752 0.960 . S
H739 C752 0.960 . S
C740 H732 0.929 . S
C740 C741 1.377 . S
C740 C742 1.384 . S
C741 C740 1.377 . S
C741 C747 1.390 . S
C742 H733 0.930 . S
C742 C740 1.384 . S
C742 C743 1.372 . S
C743 C742 1.372 . S
C743 C744 1.400 . S
C743 C748 1.490 . S
C744 H734 0.930 . S
C744 C743 1.400 . S
C744 C747 1.386 . S
H745 C761 0.930 . S
H746 C762 0.931 . S
C747 H735 0.929 . S
C747 C741 1.390 . S
C747 C744 1.386 . S
C748 C743 1.490 . S
C748 C750 1.395 . S
C748 C751 1.403 . S
H749 C755 0.930 . S
C750 H736 0.930 . S
C750 C748 1.395 . S
C750 C753 1.403 . S
C751 C748 1.403 . S
C751 C752 1.524 . S
C751 C755 1.400 . S
C752 H737 0.960 . S
C752 H738 0.960 . S
C752 H739 0.960 . S
C752 C751 1.524 . S
C753 C750 1.403 . S
C753 C754 1.392 . S
C753 C757 1.495 . S
C754 C753 1.392 . S
C754 C755 1.385 . S
C754 C756 1.478 . S
C755 H749 0.930 . S
C755 C751 1.400 . S
C755 C754 1.385 . S
C756 C754 1.478 . S
C756 C758 1.381 . S
C756 C762 1.383 . S
C757 C753 1.495 . S
C757 H763 0.959 . S
C757 H764 0.961 . S
C757 H765 0.960 . S
C758 C756 1.381 . S
C758 C759 1.394 . S
C758 H766 0.930 . S
C759 C758 1.394 . S
C759 C760 1.383 . S
C759 H767 0.929 . S
C760 C759 1.383 . S
C760 C761 1.377 . S
C761 H745 0.930 . S
C761 C760 1.377 . S
C761 C762 1.379 . S
C762 H746 0.931 . S
C762 C756 1.383 . S
C762 C761 1.379 . S
H763 C757 0.959 . S
H764 C757 0.961 . S
H765 C757 0.960 . S
H766 C758 0.930 . S
H767 C759 0.929 . S
H768 C776 0.929 . S
H769 C778 0.930 . S
H770 C780 0.930 . S
H771 C783 0.929 . S
H772 C786 0.930 . S
H773 C788 0.960 . S
H774 C788 0.960 . S
H775 C788 0.960 . S
C776 H768 0.929 . S
C776 C777 1.377 . S
C776 C778 1.384 . S
C777 C776 1.377 . S
C777 C783 1.390 . S
C778 H769 0.930 . S
C778 C776 1.384 . S
C778 C779 1.372 . S
C779 C778 1.372 . S
C779 C780 1.400 . S
C779 C784 1.490 . S
C780 H770 0.930 . S
C780 C779 1.400 . S
C780 C783 1.386 . S
H781 C797 0.930 . S
H782 C798 0.931 . S
C783 H771 0.929 . S
C783 C777 1.390 . S
C783 C780 1.386 . S
C784 C779 1.490 . S
C784 C786 1.395 . S
C784 C787 1.403 . S
H785 C791 0.930 . S
C786 H772 0.930 . S
C786 C784 1.395 . S
C786 C789 1.403 . S
C787 C784 1.403 . S
C787 C788 1.524 . S
C787 C791 1.400 . S
C788 H773 0.960 . S
C788 H774 0.960 . S
C788 H775 0.960 . S
C788 C787 1.524 . S
C789 C786 1.403 . S
C789 C790 1.392 . S
C789 C793 1.495 . S
C790 C789 1.392 . S
C790 C791 1.385 . S
C790 C792 1.478 . S
C791 H785 0.930 . S
C791 C787 1.400 . S
C791 C790 1.385 . S
C792 C790 1.478 . S
C792 C794 1.381 . S
C792 C798 1.383 . S
C793 C789 1.495 . S
C793 H799 0.959 . S
C793 H800 0.961 . S
C793 H801 0.960 . S
C794 C792 1.381 . S
C794 C795 1.394 . S
C794 H802 0.930 . S
C795 C794 1.394 . S
C795 C796 1.383 . S
C795 H803 0.929 . S
C796 C795 1.383 . S
C796 C797 1.377 . S
C797 H781 0.930 . S
C797 C796 1.377 . S
C797 C798 1.379 . S
C798 H782 0.931 . S
C798 C792 1.383 . S
C798 C797 1.379 . S
H799 C793 0.959 . S
H800 C793 0.961 . S
H801 C793 0.960 . S
H802 C794 0.930 . S
H803 C795 0.929 . S
H804 C812 0.929 . S
H805 C814 0.930 . S
H806 C816 0.930 . S
H807 C819 0.929 . S
H808 C822 0.930 . S
H809 C824 0.960 . S
H810 C824 0.960 . S
H811 C824 0.960 . S
C812 H804 0.929 . S
C812 C813 1.377 . S
C812 C814 1.384 . S
C813 C812 1.377 . S
C813 C819 1.390 . S
C814 H805 0.930 . S
C814 C812 1.384 . S
C814 C815 1.372 . S
C815 C814 1.372 . S
C815 C816 1.400 . S
C815 C820 1.490 . S
C816 H806 0.930 . S
C816 C815 1.400 . S
C816 C819 1.386 . S
H817 C833 0.930 . S
H818 C834 0.931 . S
C819 H807 0.929 . S
C819 C813 1.390 . S
C819 C816 1.386 . S
C820 C815 1.490 . S
C820 C822 1.395 . S
C820 C823 1.403 . S
H821 C827 0.930 . S
C822 H808 0.930 . S
C822 C820 1.395 . S
C822 C825 1.403 . S
C823 C820 1.403 . S
C823 C824 1.524 . S
C823 C827 1.400 . S
C824 H809 0.960 . S
C824 H810 0.960 . S
C824 H811 0.960 . S
C824 C823 1.524 . S
C825 C822 1.403 . S
C825 C826 1.392 . S
C825 C829 1.495 . S
C826 C825 1.392 . S
C826 C827 1.385 . S
C826 C828 1.478 . S
C827 H821 0.930 . S
C827 C823 1.400 . S
C827 C826 1.385 . S
C828 C826 1.478 . S
C828 C830 1.381 . S
C828 C834 1.383 . S
C829 C825 1.495 . S
C829 H835 0.959 . S
C829 H836 0.961 . S
C829 H837 0.960 . S
C830 C828 1.381 . S
C830 C831 1.394 . S
C830 H838 0.930 . S
C831 C830 1.394 . S
C831 C832 1.383 . S
C831 H839 0.929 . S
C832 C831 1.383 . S
C832 C833 1.377 . S
C833 H817 0.930 . S
C833 C832 1.377 . S
C833 C834 1.379 . S
C834 H818 0.931 . S
C834 C828 1.383 . S
C834 C833 1.379 . S
H835 C829 0.959 . S
H836 C829 0.961 . S
H837 C829 0.960 . S
H838 C830 0.930 . S
H839 C831 0.929 . S
H840 C848 0.929 . S
H841 C850 0.930 . S
H842 C852 0.930 . S
H843 C855 0.929 . S
H844 C858 0.930 . S
H845 C860 0.960 . S
H846 C860 0.960 . S
H847 C860 0.960 . S
C848 H840 0.929 . S
C848 C849 1.377 . S
C848 C850 1.384 . S
C849 C848 1.377 . S
C849 C855 1.390 . S
C850 H841 0.930 . S
C850 C848 1.384 . S
C850 C851 1.372 . S
C851 C850 1.372 . S
C851 C852 1.400 . S
C851 C856 1.490 . S
C852 H842 0.930 . S
C852 C851 1.400 . S
C852 C855 1.386 . S
H853 C869 0.930 . S
H854 C870 0.931 . S
C855 H843 0.929 . S
C855 C849 1.390 . S
C855 C852 1.386 . S
C856 C851 1.490 . S
C856 C858 1.395 . S
C856 C859 1.403 . S
H857 C863 0.930 . S
C858 H844 0.930 . S
C858 C856 1.395 . S
C858 C861 1.403 . S
C859 C856 1.403 . S
C859 C860 1.524 . S
C859 C863 1.400 . S
C860 H845 0.960 . S
C860 H846 0.960 . S
C860 H847 0.960 . S
C860 C859 1.524 . S
C861 C858 1.403 . S
C861 C862 1.392 . S
C861 C865 1.495 . S
C862 C861 1.392 . S
C862 C863 1.385 . S
C862 C864 1.478 . S
C863 H857 0.930 . S
C863 C859 1.400 . S
C863 C862 1.385 . S
C864 C862 1.478 . S
C864 C866 1.381 . S
C864 C870 1.383 . S
C865 C861 1.495 . S
C865 H871 0.959 . S
C865 H872 0.961 . S
C865 H873 0.960 . S
C866 C864 1.381 . S
C866 C867 1.394 . S
C866 H874 0.930 . S
C867 C866 1.394 . S
C867 C868 1.383 . S
C867 H875 0.929 . S
C868 C867 1.383 . S
C868 C869 1.377 . S
C869 H853 0.930 . S
C869 C868 1.377 . S
C869 C870 1.379 . S
C870 H854 0.931 . S
C870 C864 1.383 . S
C870 C869 1.379 . S
H871 C865 0.959 . S
H872 C865 0.961 . S
H873 C865 0.960 . S
H874 C866 0.930 . S
H875 C867 0.929 . S
H876 C884 0.929 . S
H877 C886 0.930 . S
H878 C888 0.930 . S
H879 C891 0.929 . S
H880 C894 0.930 . S
H881 C896 0.960 . S
H882 C896 0.960 . S
H883 C896 0.960 . S
C884 H876 0.929 . S
C884 C885 1.377 . S
C884 C886 1.384 . S
C885 C884 1.377 . S
C885 C891 1.390 . S
C886 H877 0.930 . S
C886 C884 1.384 . S
C886 C887 1.372 . S
C887 C886 1.372 . S
C887 C888 1.400 . S
C887 C892 1.490 . S
C888 H878 0.930 . S
C888 C887 1.400 . S
C888 C891 1.386 . S
H889 C905 0.930 . S
H890 C906 0.931 . S
C891 H879 0.929 . S
C891 C885 1.390 . S
C891 C888 1.386 . S
C892 C887 1.490 . S
C892 C894 1.395 . S
C892 C895 1.403 . S
H893 C899 0.930 . S
C894 H880 0.930 . S
C894 C892 1.395 . S
C894 C897 1.403 . S
C895 C892 1.403 . S
C895 C896 1.524 . S
C895 C899 1.400 . S
C896 H881 0.960 . S
C896 H882 0.960 . S
C896 H883 0.960 . S
C896 C895 1.524 . S
C897 C894 1.403 . S
C897 C898 1.392 . S
C897 C901 1.495 . S
C898 C897 1.392 . S
C898 C899 1.385 . S
C898 C900 1.478 . S
C899 H893 0.930 . S
C899 C895 1.400 . S
C899 C898 1.385 . S
C900 C898 1.478 . S
C900 C902 1.381 . S
C900 C906 1.383 . S
C901 C897 1.495 . S
C901 H907 0.959 . S
C901 H908 0.961 . S
C901 H909 0.960 . S
C902 C900 1.381 . S
C902 C903 1.394 . S
C902 H910 0.930 . S
C903 C902 1.394 . S
C903 C904 1.383 . S
C903 H911 0.929 . S
C904 C903 1.383 . S
C904 C905 1.377 . S
C905 H889 0.930 . S
C905 C904 1.377 . S
C905 C906 1.379 . S
C906 H890 0.931 . S
C906 C900 1.383 . S
C906 C905 1.379 . S
H907 C901 0.959 . S
H908 C901 0.961 . S
H909 C901 0.960 . S
H910 C902 0.930 . S
H911 C903 0.929 . S
H912 C920 0.929 . S
H913 C922 0.930 . S
H914 C924 0.930 . S
H915 C927 0.929 . S
H916 C930 0.930 . S
H917 C932 0.960 . S
H918 C932 0.960 . S
H919 C932 0.960 . S
C920 H912 0.929 . S
C920 C921 1.377 . S
C920 C922 1.384 . S
C921 C920 1.377 . S
C921 C927 1.390 . S
C922 H913 0.930 . S
C922 C920 1.384 . S
C922 C923 1.372 . S
C923 C922 1.372 . S
C923 C924 1.400 . S
C923 C928 1.490 . S
C924 H914 0.930 . S
C924 C923 1.400 . S
C924 C927 1.386 . S
H925 C941 0.930 . S
H926 C942 0.931 . S
C927 H915 0.929 . S
C927 C921 1.390 . S
C927 C924 1.386 . S
C928 C923 1.490 . S
C928 C930 1.395 . S
C928 C931 1.403 . S
H929 C935 0.930 . S
C930 H916 0.930 . S
C930 C928 1.395 . S
C930 C933 1.403 . S
C931 C928 1.403 . S
C931 C932 1.524 . S
C931 C935 1.400 . S
C932 H917 0.960 . S
C932 H918 0.960 . S
C932 H919 0.960 . S
C932 C931 1.524 . S
C933 C930 1.403 . S
C933 C934 1.392 . S
C933 C937 1.495 . S
C934 C933 1.392 . S
C934 C935 1.385 . S
C934 C936 1.478 . S
C935 H929 0.930 . S
C935 C931 1.400 . S
C935 C934 1.385 . S
C936 C934 1.478 . S
C936 C938 1.381 . S
C936 C942 1.383 . S
C937 C933 1.495 . S
C937 H943 0.959 . S
C937 H944 0.961 . S
C937 H945 0.960 . S
C938 C936 1.381 . S
C938 C939 1.394 . S
C938 H946 0.930 . S
C939 C938 1.394 . S
C939 C940 1.383 . S
C939 H947 0.929 . S
C940 C939 1.383 . S
C940 C941 1.377 . S
C941 H925 0.930 . S
C941 C940 1.377 . S
C941 C942 1.379 . S
C942 H926 0.931 . S
C942 C936 1.383 . S
C942 C941 1.379 . S
H943 C937 0.959 . S
H944 C937 0.961 . S
H945 C937 0.960 . S
H946 C938 0.930 . S
H947 C939 0.929 . S
H948 C956 0.929 . S
H949 C958 0.930 . S
H950 C960 0.930 . S
H951 C963 0.929 . S
H952 C966 0.930 . S
H953 C968 0.960 . S
H954 C968 0.960 . S
H955 C968 0.960 . S
C956 H948 0.929 . S
C956 C957 1.377 . S
C956 C958 1.384 . S
C957 C956 1.377 . S
C957 C963 1.390 . S
C958 H949 0.930 . S
C958 C956 1.384 . S
C958 C959 1.372 . S
C959 C958 1.372 . S
C959 C960 1.400 . S
C959 C964 1.490 . S
C960 H950 0.930 . S
C960 C959 1.400 . S
C960 C963 1.386 . S
H961 C977 0.930 . S
H962 C978 0.931 . S
C963 H951 0.929 . S
C963 C957 1.390 . S
C963 C960 1.386 . S
C964 C959 1.490 . S
C964 C966 1.395 . S
C964 C967 1.403 . S
H965 C971 0.930 . S
C966 H952 0.930 . S
C966 C964 1.395 . S
C966 C969 1.403 . S
C967 C964 1.403 . S
C967 C968 1.524 . S
C967 C971 1.400 . S
C968 H953 0.960 . S
C968 H954 0.960 . S
C968 H955 0.960 . S
C968 C967 1.524 . S
C969 C966 1.403 . S
C969 C970 1.392 . S
C969 C973 1.495 . S
C970 C969 1.392 . S
C970 C971 1.385 . S
C970 C972 1.478 . S
C971 H965 0.930 . S
C971 C967 1.400 . S
C971 C970 1.385 . S
C972 C970 1.478 . S
C972 C974 1.381 . S
C972 C978 1.383 . S
C973 C969 1.495 . S
C973 H979 0.959 . S
C973 H980 0.961 . S
C973 H981 0.960 . S
C974 C972 1.381 . S
C974 C975 1.394 . S
C974 H982 0.930 . S
C975 C974 1.394 . S
C975 C976 1.383 . S
C975 H983 0.929 . S
C976 C975 1.383 . S
C976 C977 1.377 . S
C977 H961 0.930 . S
C977 C976 1.377 . S
C977 C978 1.379 . S
C978 H962 0.931 . S
C978 C972 1.383 . S
C978 C977 1.379 . S
H979 C973 0.959 . S
H980 C973 0.961 . S
H981 C973 0.960 . S
H982 C974 0.930 . S
H983 C975 0.929 . S
H984 C992 0.929 . S
H985 C994 0.930 . S
H986 C996 0.930 . S
H987 C999 0.929 . S
H988 C1002 0.930 . S
H989 C1004 0.960 . S
H990 C1004 0.960 . S
H991 C1004 0.960 . S
C992 H984 0.929 . S
C992 C993 1.377 . S
C992 C994 1.384 . S
C993 C992 1.377 . S
C993 C999 1.390 . S
C994 H985 0.930 . S
C994 C992 1.384 . S
C994 C995 1.372 . S
C995 C994 1.372 . S
C995 C996 1.400 . S
C995 C1000 1.490 . S
C996 H986 0.930 . S
C996 C995 1.400 . S
C996 C999 1.386 . S
H997 C1013 0.930 . S
H998 C1014 0.931 . S
C999 H987 0.929 . S
C999 C993 1.390 . S
C999 C996 1.386 . S
C1000 C995 1.490 . S
C1000 C1002 1.395 . S
C1000 C1003 1.403 . S
H1001 C1007 0.930 . S
C1002 H988 0.930 . S
C1002 C1000 1.395 . S
C1002 C1005 1.403 . S
C1003 C1000 1.403 . S
C1003 C1004 1.524 . S
C1003 C1007 1.400 . S
C1004 H989 0.960 . S
C1004 H990 0.960 . S
C1004 H991 0.960 . S
C1004 C1003 1.524 . S
C1005 C1002 1.403 . S
C1005 C1006 1.392 . S
C1005 C1009 1.495 . S
C1006 C1005 1.392 . S
C1006 C1007 1.385 . S
C1006 C1008 1.478 . S
C1007 H1001 0.930 . S
C1007 C1003 1.400 . S
C1007 C1006 1.385 . S
C1008 C1006 1.478 . S
C1008 C1010 1.381 . S
C1008 C1014 1.383 . S
C1009 C1005 1.495 . S
C1009 H1015 0.959 . S
C1009 H1016 0.961 . S
C1009 H1017 0.960 . S
C1010 C1008 1.381 . S
C1010 C1011 1.394 . S
C1010 H1018 0.930 . S
C1011 C1010 1.394 . S
C1011 C1012 1.383 . S
C1011 H1019 0.929 . S
C1012 C1011 1.383 . S
C1012 C1013 1.377 . S
C1013 H997 0.930 . S
C1013 C1012 1.377 . S
C1013 C1014 1.379 . S
C1014 H998 0.931 . S
C1014 C1008 1.383 . S
C1014 C1013 1.379 . S
H1015 C1009 0.959 . S
H1016 C1009 0.961 . S
H1017 C1009 0.960 . S
H1018 C1010 0.930 . S
H1019 C1011 0.929 . S
H1020 C1028 0.929 . S
H1021 C1030 0.930 . S
H1022 C1032 0.930 . S
H1023 C1035 0.929 . S
H1024 C1038 0.930 . S
H1025 C1040 0.960 . S
H1026 C1040 0.960 . S
H1027 C1040 0.960 . S
C1028 H1020 0.929 . S
C1028 C1029 1.377 . S
C1028 C1030 1.384 . S
C1029 C1028 1.377 . S
C1029 C1035 1.390 . S
C1030 H1021 0.930 . S
C1030 C1028 1.384 . S
C1030 C1031 1.372 . S
C1031 C1030 1.372 . S
C1031 C1032 1.400 . S
C1031 C1036 1.490 . S
C1032 H1022 0.930 . S
C1032 C1031 1.400 . S
C1032 C1035 1.386 . S
H1033 C1049 0.930 . S
H1034 C1050 0.931 . S
C1035 H1023 0.929 . S
C1035 C1029 1.390 . S
C1035 C1032 1.386 . S
C1036 C1031 1.490 . S
C1036 C1038 1.395 . S
C1036 C1039 1.403 . S
H1037 C1043 0.930 . S
C1038 H1024 0.930 . S
C1038 C1036 1.395 . S
C1038 C1041 1.403 . S
C1039 C1036 1.403 . S
C1039 C1040 1.524 . S
C1039 C1043 1.400 . S
C1040 H1025 0.960 . S
C1040 H1026 0.960 . S
C1040 H1027 0.960 . S
C1040 C1039 1.524 . S
C1041 C1038 1.403 . S
C1041 C1042 1.392 . S
C1041 C1045 1.495 . S
C1042 C1041 1.392 . S
C1042 C1043 1.385 . S
C1042 C1044 1.478 . S
C1043 H1037 0.930 . S
C1043 C1039 1.400 . S
C1043 C1042 1.385 . S
C1044 C1042 1.478 . S
C1044 C1046 1.381 . S
C1044 C1050 1.383 . S
C1045 C1041 1.495 . S
C1045 H1051 0.959 . S
C1045 H1052 0.961 . S
C1045 H1053 0.960 . S
C1046 C1044 1.381 . S
C1046 C1047 1.394 . S
C1046 H1054 0.930 . S
C1047 C1046 1.394 . S
C1047 C1048 1.383 . S
C1047 H1055 0.929 . S
C1048 C1047 1.383 . S
C1048 C1049 1.377 . S
C1049 H1033 0.930 . S
C1049 C1048 1.377 . S
C1049 C1050 1.379 . S
C1050 H1034 0.931 . S
C1050 C1044 1.383 . S
C1050 C1049 1.379 . S
H1051 C1045 0.959 . S
H1052 C1045 0.961 . S
H1053 C1045 0.960 . S
H1054 C1046 0.930 . S
H1055 C1047 0.929 . S
H1056 C1064 0.929 . S
H1057 C1066 0.930 . S
H1058 C1068 0.930 . S
H1059 C1071 0.929 . S
H1060 C1074 0.930 . S
H1061 C1076 0.960 . S
H1062 C1076 0.960 . S
H1063 C1076 0.960 . S
C1064 H1056 0.929 . S
C1064 C1065 1.377 . S
C1064 C1066 1.384 . S
C1065 C1064 1.377 . S
C1065 C1071 1.390 . S
C1066 H1057 0.930 . S
C1066 C1064 1.384 . S
C1066 C1067 1.372 . S
C1067 C1066 1.372 . S
C1067 C1068 1.400 . S
C1067 C1072 1.490 . S
C1068 H1058 0.930 . S
C1068 C1067 1.400 . S
C1068 C1071 1.386 . S
H1069 C1085 0.930 . S
H1070 C1086 0.931 . S
C1071 H1059 0.929 . S
C1071 C1065 1.390 . S
C1071 C1068 1.386 . S
C1072 C1067 1.490 . S
C1072 C1074 1.395 . S
C1072 C1075 1.403 . S
H1073 C1079 0.930 . S
C1074 H1060 0.930 . S
C1074 C1072 1.395 . S
C1074 C1077 1.403 . S
C1075 C1072 1.403 . S
C1075 C1076 1.524 . S
C1075 C1079 1.400 . S
C1076 H1061 0.960 . S
C1076 H1062 0.960 . S
C1076 H1063 0.960 . S
C1076 C1075 1.524 . S
C1077 C1074 1.403 . S
C1077 C1078 1.392 . S
C1077 C1081 1.495 . S
C1078 C1077 1.392 . S
C1078 C1079 1.385 . S
C1078 C1080 1.478 . S
C1079 H1073 0.930 . S
C1079 C1075 1.400 . S
C1079 C1078 1.385 . S
C1080 C1078 1.478 . S
C1080 C1082 1.381 . S
C1080 C1086 1.383 . S
C1081 C1077 1.495 . S
C1081 H1087 0.959 . S
C1081 H1088 0.961 . S
C1081 H1089 0.960 . S
C1082 C1080 1.381 . S
C1082 C1083 1.394 . S
C1082 H1090 0.930 . S
C1083 C1082 1.394 . S
C1083 C1084 1.383 . S
C1083 H1091 0.929 . S
C1084 C1083 1.383 . S
C1084 C1085 1.377 . S
C1085 H1069 0.930 . S
C1085 C1084 1.377 . S
C1085 C1086 1.379 . S
C1086 H1070 0.931 . S
C1086 C1080 1.383 . S
C1086 C1085 1.379 . S
H1087 C1081 0.959 . S
H1088 C1081 0.961 . S
H1089 C1081 0.960 . S
H1090 C1082 0.930 . S
H1091 C1083 0.929 . S
H1092 C1100 0.929 . S
H1093 C1102 0.930 . S
H1094 C1104 0.930 . S
H1095 C1107 0.929 . S
H1096 C1110 0.930 . S
H1097 C1112 0.960 . S
H1098 C1112 0.960 . S
H1099 C1112 0.960 . S
C1100 H1092 0.929 . S
C1100 C1101 1.377 . S
C1100 C1102 1.384 . S
C1101 C1100 1.377 . S
C1101 C1107 1.390 . S
C1102 H1093 0.930 . S
C1102 C1100 1.384 . S
C1102 C1103 1.372 . S
C1103 C1102 1.372 . S
C1103 C1104 1.400 . S
C1103 C1108 1.490 . S
C1104 H1094 0.930 . S
C1104 C1103 1.400 . S
C1104 C1107 1.386 . S
H1105 C1121 0.930 . S
H1106 C1122 0.931 . S
C1107 H1095 0.929 . S
C1107 C1101 1.390 . S
C1107 C1104 1.386 . S
C1108 C1103 1.490 . S
C1108 C1110 1.395 . S
C1108 C1111 1.403 . S
H1109 C1115 0.930 . S
C1110 H1096 0.930 . S
C1110 C1108 1.395 . S
C1110 C1113 1.403 . S
C1111 C1108 1.403 . S
C1111 C1112 1.524 . S
C1111 C1115 1.400 . S
C1112 H1097 0.960 . S
C1112 H1098 0.960 . S
C1112 H1099 0.960 . S
C1112 C1111 1.524 . S
C1113 C1110 1.403 . S
C1113 C1114 1.392 . S
C1113 C1117 1.495 . S
C1114 C1113 1.392 . S
C1114 C1115 1.385 . S
C1114 C1116 1.478 . S
C1115 H1109 0.930 . S
C1115 C1111 1.400 . S
C1115 C1114 1.385 . S
C1116 C1114 1.478 . S
C1116 C1118 1.381 . S
C1116 C1122 1.383 . S
C1117 C1113 1.495 . S
C1117 H1123 0.959 . S
C1117 H1124 0.961 . S
C1117 H1125 0.960 . S
C1118 C1116 1.381 . S
C1118 C1119 1.394 . S
C1118 H1126 0.930 . S
C1119 C1118 1.394 . S
C1119 C1120 1.383 . S
C1119 H1127 0.929 . S
C1120 C1119 1.383 . S
C1120 C1121 1.377 . S
C1121 H1105 0.930 . S
C1121 C1120 1.377 . S
C1121 C1122 1.379 . S
C1122 H1106 0.931 . S
C1122 C1116 1.383 . S
C1122 C1121 1.379 . S
H1123 C1117 0.959 . S
H1124 C1117 0.961 . S
H1125 C1117 0.960 . S
H1126 C1118 0.930 . S
H1127 C1119 0.929 . S
H1128 C1136 0.929 . S
H1129 C1138 0.930 . S
H1130 C1140 0.930 . S
H1131 C1143 0.929 . S
H1132 C1146 0.930 . S
H1133 C1148 0.960 . S
H1134 C1148 0.960 . S
H1135 C1148 0.960 . S
C1136 H1128 0.929 . S
C1136 C1137 1.377 . S
C1136 C1138 1.384 . S
C1137 C1136 1.377 . S
C1137 C1143 1.390 . S
C1138 H1129 0.930 . S
C1138 C1136 1.384 . S
C1138 C1139 1.372 . S
C1139 C1138 1.372 . S
C1139 C1140 1.400 . S
C1139 C1144 1.490 . S
C1140 H1130 0.930 . S
C1140 C1139 1.400 . S
C1140 C1143 1.386 . S
H1141 C1157 0.930 . S
H1142 C1158 0.931 . S
C1143 H1131 0.929 . S
C1143 C1137 1.390 . S
C1143 C1140 1.386 . S
C1144 C1139 1.490 . S
C1144 C1146 1.395 . S
C1144 C1147 1.403 . S
H1145 C1151 0.930 . S
C1146 H1132 0.930 . S
C1146 C1144 1.395 . S
C1146 C1149 1.403 . S
C1147 C1144 1.403 . S
C1147 C1148 1.524 . S
C1147 C1151 1.400 . S
C1148 H1133 0.960 . S
C1148 H1134 0.960 . S
C1148 H1135 0.960 . S
C1148 C1147 1.524 . S
C1149 C1146 1.403 . S
C1149 C1150 1.392 . S
C1149 C1153 1.495 . S
C1150 C1149 1.392 . S
C1150 C1151 1.385 . S
C1150 C1152 1.478 . S
C1151 H1145 0.930 . S
C1151 C1147 1.400 . S
C1151 C1150 1.385 . S
C1152 C1150 1.478 . S
C1152 C1154 1.381 . S
C1152 C1158 1.383 . S
C1153 C1149 1.495 . S
C1153 H1159 0.959 . S
C1153 H1160 0.961 . S
C1153 H1161 0.960 . S
C1154 C1152 1.381 . S
C1154 C1155 1.394 . S
C1154 H1162 0.930 . S
C1155 C1154 1.394 . S
C1155 C1156 1.383 . S
C1155 H1163 0.929 . S
C1156 C1155 1.383 . S
C1156 C1157 1.377 . S
C1157 H1141 0.930 . S
C1157 C1156 1.377 . S
C1157 C1158 1.379 . S
C1158 H1142 0.931 . S
C1158 C1152 1.383 . S
C1158 C1157 1.379 . S
H1159 C1153 0.959 . S
H1160 C1153 0.961 . S
H1161 C1153 0.960 . S
H1162 C1154 0.930 . S
H1163 C1155 0.929 . S
H1164 C1172 0.929 . S
H1165 C1174 0.930 . S
H1166 C1176 0.930 . S
H1167 C1179 0.929 . S
H1168 C1182 0.930 . S
H1169 C1184 0.960 . S
H1170 C1184 0.960 . S
H1171 C1184 0.960 . S
C1172 H1164 0.929 . S
C1172 C1173 1.377 . S
C1172 C1174 1.384 . S
C1173 C1172 1.377 . S
C1173 C1179 1.390 . S
C1174 H1165 0.930 . S
C1174 C1172 1.384 . S
C1174 C1175 1.372 . S
C1175 C1174 1.372 . S
C1175 C1176 1.400 . S
C1175 C1180 1.490 . S
C1176 H1166 0.930 . S
C1176 C1175 1.400 . S
C1176 C1179 1.386 . S
H1177 C1193 0.930 . S
H1178 C1194 0.931 . S
C1179 H1167 0.929 . S
C1179 C1173 1.390 . S
C1179 C1176 1.386 . S
C1180 C1175 1.490 . S
C1180 C1182 1.395 . S
C1180 C1183 1.403 . S
H1181 C1187 0.930 . S
C1182 H1168 0.930 . S
C1182 C1180 1.395 . S
C1182 C1185 1.403 . S
C1183 C1180 1.403 . S
C1183 C1184 1.524 . S
C1183 C1187 1.400 . S
C1184 H1169 0.960 . S
C1184 H1170 0.960 . S
C1184 H1171 0.960 . S
C1184 C1183 1.524 . S
C1185 C1182 1.403 . S
C1185 C1186 1.392 . S
C1185 C1189 1.495 . S
C1186 C1185 1.392 . S
C1186 C1187 1.385 . S
C1186 C1188 1.478 . S
C1187 H1181 0.930 . S
C1187 C1183 1.400 . S
C1187 C1186 1.385 . S
C1188 C1186 1.478 . S
C1188 C1190 1.381 . S
C1188 C1194 1.383 . S
C1189 C1185 1.495 . S
C1189 H1195 0.959 . S
C1189 H1196 0.961 . S
C1189 H1197 0.960 . S
C1190 C1188 1.381 . S
C1190 C1191 1.394 . S
C1190 H1198 0.930 . S
C1191 C1190 1.394 . S
C1191 C1192 1.383 . S
C1191 H1199 0.929 . S
C1192 C1191 1.383 . S
C1192 C1193 1.377 . S
C1193 H1177 0.930 . S
C1193 C1192 1.377 . S
C1193 C1194 1.379 . S
C1194 H1178 0.931 . S
C1194 C1188 1.383 . S
C1194 C1193 1.379 . S
H1195 C1189 0.959 . S
H1196 C1189 0.961 . S
H1197 C1189 0.960 . S
H1198 C1190 0.930 . S
H1199 C1191 0.929 . S
H1200 C1208 0.929 . S
H1201 C1210 0.930 . S
H1202 C1212 0.930 . S
H1203 C1215 0.929 . S
H1204 C1218 0.930 . S
H1205 C1220 0.960 . S
H1206 C1220 0.960 . S
H1207 C1220 0.960 . S
C1208 H1200 0.929 . S
C1208 C1209 1.377 . S
C1208 C1210 1.384 . S
C1209 C1208 1.377 . S
C1209 C1215 1.390 . S
C1210 H1201 0.930 . S
C1210 C1208 1.384 . S
C1210 C1211 1.372 . S
C1211 C1210 1.372 . S
C1211 C1212 1.400 . S
C1211 C1216 1.490 . S
C1212 H1202 0.930 . S
C1212 C1211 1.400 . S
C1212 C1215 1.386 . S
H1213 C1229 0.930 . S
H1214 C1230 0.931 . S
C1215 H1203 0.929 . S
C1215 C1209 1.390 . S
C1215 C1212 1.386 . S
C1216 C1211 1.490 . S
C1216 C1218 1.395 . S
C1216 C1219 1.403 . S
H1217 C1223 0.930 . S
C1218 H1204 0.930 . S
C1218 C1216 1.395 . S
C1218 C1221 1.403 . S
C1219 C1216 1.403 . S
C1219 C1220 1.524 . S
C1219 C1223 1.400 . S
C1220 H1205 0.960 . S
C1220 H1206 0.960 . S
C1220 H1207 0.960 . S
C1220 C1219 1.524 . S
C1221 C1218 1.403 . S
C1221 C1222 1.392 . S
C1221 C1225 1.495 . S
C1222 C1221 1.392 . S
C1222 C1223 1.385 . S
C1222 C1224 1.478 . S
C1223 H1217 0.930 . S
C1223 C1219 1.400 . S
C1223 C1222 1.385 . S
C1224 C1222 1.478 . S
C1224 C1226 1.381 . S
C1224 C1230 1.383 . S
C1225 C1221 1.495 . S
C1225 H1231 0.959 . S
C1225 H1232 0.961 . S
C1225 H1233 0.960 . S
C1226 C1224 1.381 . S
C1226 C1227 1.394 . S
C1226 H1234 0.930 . S
C1227 C1226 1.394 . S
C1227 C1228 1.383 . S
C1227 H1235 0.929 . S
C1228 C1227 1.383 . S
C1228 C1229 1.377 . S
C1229 H1213 0.930 . S
C1229 C1228 1.377 . S
C1229 C1230 1.379 . S
C1230 H1214 0.931 . S
C1230 C1224 1.383 . S
C1230 C1229 1.379 . S
H1231 C1225 0.959 . S
H1232 C1225 0.961 . S
H1233 C1225 0.960 . S
H1234 C1226 0.930 . S
H1235 C1227 0.929 . S
H1236 C1244 0.929 . S
H1237 C1246 0.930 . S
H1238 C1248 0.930 . S
H1239 C1251 0.929 . S
H1240 C1254 0.930 . S
H1241 C1256 0.960 . S
H1242 C1256 0.960 . S
H1243 C1256 0.960 . S
C1244 H1236 0.929 . S
C1244 C1245 1.377 . S
C1244 C1246 1.384 . S
C1245 C1244 1.377 . S
C1245 C1251 1.390 . S
C1246 H1237 0.930 . S
C1246 C1244 1.384 . S
C1246 C1247 1.372 . S
C1247 C1246 1.372 . S
C1247 C1248 1.400 . S
C1247 C1252 1.490 . S
C1248 H1238 0.930 . S
C1248 C1247 1.400 . S
C1248 C1251 1.386 . S
H1249 C1265 0.930 . S
H1250 C1266 0.931 . S
C1251 H1239 0.929 . S
C1251 C1245 1.390 . S
C1251 C1248 1.386 . S
C1252 C1247 1.490 . S
C1252 C1254 1.395 . S
C1252 C1255 1.403 . S
H1253 C1259 0.930 . S
C1254 H1240 0.930 . S
C1254 C1252 1.395 . S
C1254 C1257 1.403 . S
C1255 C1252 1.403 . S
C1255 C1256 1.524 . S
C1255 C1259 1.400 . S
C1256 H1241 0.960 . S
C1256 H1242 0.960 . S
C1256 H1243 0.960 . S
C1256 C1255 1.524 . S
C1257 C1254 1.403 . S
C1257 C1258 1.392 . S
C1257 C1261 1.495 . S
C1258 C1257 1.392 . S
C1258 C1259 1.385 . S
C1258 C1260 1.478 . S
C1259 H1253 0.930 . S
C1259 C1255 1.400 . S
C1259 C1258 1.385 . S
C1260 C1258 1.478 . S
C1260 C1262 1.381 . S
C1260 C1266 1.383 . S
C1261 C1257 1.495 . S
C1261 H1267 0.959 . S
C1261 H1268 0.961 . S
C1261 H1269 0.960 . S
C1262 C1260 1.381 . S
C1262 C1263 1.394 . S
C1262 H1270 0.930 . S
C1263 C1262 1.394 . S
C1263 C1264 1.383 . S
C1263 H1271 0.929 . S
C1264 C1263 1.383 . S
C1264 C1265 1.377 . S
C1265 H1249 0.930 . S
C1265 C1264 1.377 . S
C1265 C1266 1.379 . S
C1266 H1250 0.931 . S
C1266 C1260 1.383 . S
C1266 C1265 1.379 . S
H1267 C1261 0.959 . S
H1268 C1261 0.961 . S
H1269 C1261 0.960 . S
H1270 C1262 0.930 . S
H1271 C1263 0.929 . S
H1272 C1280 0.929 . S
H1273 C1282 0.930 . S
H1274 C1284 0.930 . S
H1275 C1287 0.929 . S
H1276 C1290 0.930 . S
H1277 C1292 0.960 . S
H1278 C1292 0.960 . S
H1279 C1292 0.960 . S
C1280 H1272 0.929 . S
C1280 C1281 1.377 . S
C1280 C1282 1.384 . S
C1281 C1280 1.377 . S
C1281 C1287 1.390 . S
C1282 H1273 0.930 . S
C1282 C1280 1.384 . S
C1282 C1283 1.372 . S
C1283 C1282 1.372 . S
C1283 C1284 1.400 . S
C1283 C1288 1.490 . S
C1284 H1274 0.930 . S
C1284 C1283 1.400 . S
C1284 C1287 1.386 . S
H1285 C1301 0.930 . S
H1286 C1302 0.931 . S
C1287 H1275 0.929 . S
C1287 C1281 1.390 . S
C1287 C1284 1.386 . S
C1288 C1283 1.490 . S
C1288 C1290 1.395 . S
C1288 C1291 1.403 . S
H1289 C1295 0.930 . S
C1290 H1276 0.930 . S
C1290 C1288 1.395 . S
C1290 C1293 1.403 . S
C1291 C1288 1.403 . S
C1291 C1292 1.524 . S
C1291 C1295 1.400 . S
C1292 H1277 0.960 . S
C1292 H1278 0.960 . S
C1292 H1279 0.960 . S
C1292 C1291 1.524 . S
C1293 C1290 1.403 . S
C1293 C1294 1.392 . S
C1293 C1297 1.495 . S
C1294 C1293 1.392 . S
C1294 C1295 1.385 . S
C1294 C1296 1.478 . S
C1295 H1289 0.930 . S
C1295 C1291 1.400 . S
C1295 C1294 1.385 . S
C1296 C1294 1.478 . S
C1296 C1298 1.381 . S
C1296 C1302 1.383 . S
C1297 C1293 1.495 . S
C1297 H1303 0.959 . S
C1297 H1304 0.961 . S
C1297 H1305 0.960 . S
C1298 C1296 1.381 . S
C1298 C1299 1.394 . S
C1298 H1306 0.930 . S
C1299 C1298 1.394 . S
C1299 C1300 1.383 . S
C1299 H1307 0.929 . S
C1300 C1299 1.383 . S
C1300 C1301 1.377 . S
C1301 H1285 0.930 . S
C1301 C1300 1.377 . S
C1301 C1302 1.379 . S
C1302 H1286 0.931 . S
C1302 C1296 1.383 . S
C1302 C1301 1.379 . S
H1303 C1297 0.959 . S
H1304 C1297 0.961 . S
H1305 C1297 0.960 . S
H1306 C1298 0.930 . S
H1307 C1299 0.929 . S
H1308 C1316 0.929 . S
H1309 C1318 0.930 . S
H1310 C1320 0.930 . S
H1311 C1323 0.929 . S
H1312 C1326 0.930 . S
H1313 C1328 0.960 . S
H1314 C1328 0.960 . S
H1315 C1328 0.960 . S
C1316 H1308 0.929 . S
C1316 C1317 1.377 . S
C1316 C1318 1.384 . S
C1317 C1316 1.377 . S
C1317 C1323 1.390 . S
C1318 H1309 0.930 . S
C1318 C1316 1.384 . S
C1318 C1319 1.372 . S
C1319 C1318 1.372 . S
C1319 C1320 1.400 . S
C1319 C1324 1.490 . S
C1320 H1310 0.930 . S
C1320 C1319 1.400 . S
C1320 C1323 1.386 . S
H1321 C1337 0.930 . S
H1322 C1338 0.931 . S
C1323 H1311 0.929 . S
C1323 C1317 1.390 . S
C1323 C1320 1.386 . S
C1324 C1319 1.490 . S
C1324 C1326 1.395 . S
C1324 C1327 1.403 . S
H1325 C1331 0.930 . S
C1326 H1312 0.930 . S
C1326 C1324 1.395 . S
C1326 C1329 1.403 . S
C1327 C1324 1.403 . S
C1327 C1328 1.524 . S
C1327 C1331 1.400 . S
C1328 H1313 0.960 . S
C1328 H1314 0.960 . S
C1328 H1315 0.960 . S
C1328 C1327 1.524 . S
C1329 C1326 1.403 . S
C1329 C1330 1.392 . S
C1329 C1333 1.495 . S
C1330 C1329 1.392 . S
C1330 C1331 1.385 . S
C1330 C1332 1.478 . S
C1331 H1325 0.930 . S
C1331 C1327 1.400 . S
C1331 C1330 1.385 . S
C1332 C1330 1.478 . S
C1332 C1334 1.381 . S
C1332 C1338 1.383 . S
C1333 C1329 1.495 . S
C1333 H1339 0.959 . S
C1333 H1340 0.961 . S
C1333 H1341 0.960 . S
C1334 C1332 1.381 . S
C1334 C1335 1.394 . S
C1334 H1342 0.930 . S
C1335 C1334 1.394 . S
C1335 C1336 1.383 . S
C1335 H1343 0.929 . S
C1336 C1335 1.383 . S
C1336 C1337 1.377 . S
C1337 H1321 0.930 . S
C1337 C1336 1.377 . S
C1337 C1338 1.379 . S
C1338 H1322 0.931 . S
C1338 C1332 1.383 . S
C1338 C1337 1.379 . S
H1339 C1333 0.959 . S
H1340 C1333 0.961 . S
H1341 C1333 0.960 . S
H1342 C1334 0.930 . S
H1343 C1335 0.929 . S
H1344 C1352 0.929 . S
H1345 C1354 0.930 . S
H1346 C1356 0.930 . S
H1347 C1359 0.929 . S
H1348 C1362 0.930 . S
H1349 C1364 0.960 . S
H1350 C1364 0.960 . S
H1351 C1364 0.960 . S
C1352 H1344 0.929 . S
C1352 C1353 1.377 . S
C1352 C1354 1.384 . S
C1353 C1352 1.377 . S
C1353 C1359 1.390 . S
C1354 H1345 0.930 . S
C1354 C1352 1.384 . S
C1354 C1355 1.372 . S
C1355 C1354 1.372 . S
C1355 C1356 1.400 . S
C1355 C1360 1.490 . S
C1356 H1346 0.930 . S
C1356 C1355 1.400 . S
C1356 C1359 1.386 . S
H1357 C1373 0.930 . S
H1358 C1374 0.931 . S
C1359 H1347 0.929 . S
C1359 C1353 1.390 . S
C1359 C1356 1.386 . S
C1360 C1355 1.490 . S
C1360 C1362 1.395 . S
C1360 C1363 1.403 . S
H1361 C1367 0.930 . S
C1362 H1348 0.930 . S
C1362 C1360 1.395 . S
C1362 C1365 1.403 . S
C1363 C1360 1.403 . S
C1363 C1364 1.524 . S
C1363 C1367 1.400 . S
C1364 H1349 0.960 . S
C1364 H1350 0.960 . S
C1364 H1351 0.960 . S
C1364 C1363 1.524 . S
C1365 C1362 1.403 . S
C1365 C1366 1.392 . S
C1365 C1369 1.495 . S
C1366 C1365 1.392 . S
C1366 C1367 1.385 . S
C1366 C1368 1.478 . S
C1367 H1361 0.930 . S
C1367 C1363 1.400 . S
C1367 C1366 1.385 . S
C1368 C1366 1.478 . S
C1368 C1370 1.381 . S
C1368 C1374 1.383 . S
C1369 C1365 1.495 . S
C1369 H1375 0.959 . S
C1369 H1376 0.961 . S
C1369 H1377 0.960 . S
C1370 C1368 1.381 . S
C1370 C1371 1.394 . S
C1370 H1378 0.930 . S
C1371 C1370 1.394 . S
C1371 C1372 1.383 . S
C1371 H1379 0.929 . S
C1372 C1371 1.383 . S
C1372 C1373 1.377 . S
C1373 H1357 0.930 . S
C1373 C1372 1.377 . S
C1373 C1374 1.379 . S
C1374 H1358 0.931 . S
C1374 C1368 1.383 . S
C1374 C1373 1.379 . S
H1375 C1369 0.959 . S
H1376 C1369 0.961 . S
H1377 C1369 0.960 . S
H1378 C1370 0.930 . S
H1379 C1371 0.929 . S
H1380 C1388 0.929 . S
H1381 C1390 0.930 . S
H1382 C1392 0.930 . S
H1383 C1395 0.929 . S
H1384 C1398 0.930 . S
H1385 C1400 0.960 . S
H1386 C1400 0.960 . S
H1387 C1400 0.960 . S
C1388 H1380 0.929 . S
C1388 C1389 1.377 . S
C1388 C1390 1.384 . S
C1389 C1388 1.377 . S
C1389 C1395 1.390 . S
C1390 H1381 0.930 . S
C1390 C1388 1.384 . S
C1390 C1391 1.372 . S
C1391 C1390 1.372 . S
C1391 C1392 1.400 . S
C1391 C1396 1.490 . S
C1392 H1382 0.930 . S
C1392 C1391 1.400 . S
C1392 C1395 1.386 . S
H1393 C1409 0.930 . S
H1394 C1410 0.931 . S
C1395 H1383 0.929 . S
C1395 C1389 1.390 . S
C1395 C1392 1.386 . S
C1396 C1391 1.490 . S
C1396 C1398 1.395 . S
C1396 C1399 1.403 . S
H1397 C1403 0.930 . S
C1398 H1384 0.930 . S
C1398 C1396 1.395 . S
C1398 C1401 1.403 . S
C1399 C1396 1.403 . S
C1399 C1400 1.524 . S
C1399 C1403 1.400 . S
C1400 H1385 0.960 . S
C1400 H1386 0.960 . S
C1400 H1387 0.960 . S
C1400 C1399 1.524 . S
C1401 C1398 1.403 . S
C1401 C1402 1.392 . S
C1401 C1405 1.495 . S
C1402 C1401 1.392 . S
C1402 C1403 1.385 . S
C1402 C1404 1.478 . S
C1403 H1397 0.930 . S
C1403 C1399 1.400 . S
C1403 C1402 1.385 . S
C1404 C1402 1.478 . S
C1404 C1406 1.381 . S
C1404 C1410 1.383 . S
C1405 C1401 1.495 . S
C1405 H1411 0.959 . S
C1405 H1412 0.961 . S
C1405 H1413 0.960 . S
C1406 C1404 1.381 . S
C1406 C1407 1.394 . S
C1406 H1414 0.930 . S
C1407 C1406 1.394 . S
C1407 C1408 1.383 . S
C1407 H1415 0.929 . S
C1408 C1407 1.383 . S
C1408 C1409 1.377 . S
C1409 H1393 0.930 . S
C1409 C1408 1.377 . S
C1409 C1410 1.379 . S
C1410 H1394 0.931 . S
C1410 C1404 1.383 . S
C1410 C1409 1.379 . S
H1411 C1405 0.959 . S
H1412 C1405 0.961 . S
H1413 C1405 0.960 . S
H1414 C1406 0.930 . S
H1415 C1407 0.929 . S
H1416 C1424 0.929 . S
H1417 C1426 0.930 . S
H1418 C1428 0.930 . S
H1419 C1431 0.929 . S
H1420 C1434 0.930 . S
H1421 C1436 0.960 . S
H1422 C1436 0.960 . S
H1423 C1436 0.960 . S
C1424 H1416 0.929 . S
C1424 C1425 1.377 . S
C1424 C1426 1.384 . S
C1425 C1424 1.377 . S
C1425 C1431 1.390 . S
C1426 H1417 0.930 . S
C1426 C1424 1.384 . S
C1426 C1427 1.372 . S
C1427 C1426 1.372 . S
C1427 C1428 1.400 . S
C1427 C1432 1.490 . S
C1428 H1418 0.930 . S
C1428 C1427 1.400 . S
C1428 C1431 1.386 . S
H1429 C1445 0.930 . S
H1430 C1446 0.931 . S
C1431 H1419 0.929 . S
C1431 C1425 1.390 . S
C1431 C1428 1.386 . S
C1432 C1427 1.490 . S
C1432 C1434 1.395 . S
C1432 C1435 1.403 . S
H1433 C1439 0.930 . S
C1434 H1420 0.930 . S
C1434 C1432 1.395 . S
C1434 C1437 1.403 . S
C1435 C1432 1.403 . S
C1435 C1436 1.524 . S
C1435 C1439 1.400 . S
C1436 H1421 0.960 . S
C1436 H1422 0.960 . S
C1436 H1423 0.960 . S
C1436 C1435 1.524 . S
C1437 C1434 1.403 . S
C1437 C1438 1.392 . S
C1437 C1441 1.495 . S
C1438 C1437 1.392 . S
C1438 C1439 1.385 . S
C1438 C1440 1.478 . S
C1439 H1433 0.930 . S
C1439 C1435 1.400 . S
C1439 C1438 1.385 . S
C1440 C1438 1.478 . S
C1440 C1442 1.381 . S
C1440 C1446 1.383 . S
C1441 C1437 1.495 . S
C1441 H1447 0.959 . S
C1441 H1448 0.961 . S
C1441 H1449 0.960 . S
C1442 C1440 1.381 . S
C1442 C1443 1.394 . S
C1442 H1450 0.930 . S
C1443 C1442 1.394 . S
C1443 C1444 1.383 . S
C1443 H1451 0.929 . S
C1444 C1443 1.383 . S
C1444 C1445 1.377 . S
C1445 H1429 0.930 . S
C1445 C1444 1.377 . S
C1445 C1446 1.379 . S
C1446 H1430 0.931 . S
C1446 C1440 1.383 . S
C1446 C1445 1.379 . S
H1447 C1441 0.959 . S
H1448 C1441 0.961 . S
H1449 C1441 0.960 . S
H1450 C1442 0.930 . S
H1451 C1443 0.929 . S
H1452 C1460 0.929 . S
H1453 C1462 0.930 . S
H1454 C1464 0.930 . S
H1455 C1467 0.929 . S
H1456 C1470 0.930 . S
H1457 C1472 0.960 . S
H1458 C1472 0.960 . S
H1459 C1472 0.960 . S
C1460 H1452 0.929 . S
C1460 C1461 1.377 . S
C1460 C1462 1.384 . S
C1461 C1460 1.377 . S
C1461 C1467 1.390 . S
C1462 H1453 0.930 . S
C1462 C1460 1.384 . S
C1462 C1463 1.372 . S
C1463 C1462 1.372 . S
C1463 C1464 1.400 . S
C1463 C1468 1.490 . S
C1464 H1454 0.930 . S
C1464 C1463 1.400 . S
C1464 C1467 1.386 . S
H1465 C1481 0.930 . S
H1466 C1482 0.931 . S
C1467 H1455 0.929 . S
C1467 C1461 1.390 . S
C1467 C1464 1.386 . S
C1468 C1463 1.490 . S
C1468 C1470 1.395 . S
C1468 C1471 1.403 . S
H1469 C1475 0.930 . S
C1470 H1456 0.930 . S
C1470 C1468 1.395 . S
C1470 C1473 1.403 . S
C1471 C1468 1.403 . S
C1471 C1472 1.524 . S
C1471 C1475 1.400 . S
C1472 H1457 0.960 . S
C1472 H1458 0.960 . S
C1472 H1459 0.960 . S
C1472 C1471 1.524 . S
C1473 C1470 1.403 . S
C1473 C1474 1.392 . S
C1473 C1477 1.495 . S
C1474 C1473 1.392 . S
C1474 C1475 1.385 . S
C1474 C1476 1.478 . S
C1475 H1469 0.930 . S
C1475 C1471 1.400 . S
C1475 C1474 1.385 . S
C1476 C1474 1.478 . S
C1476 C1478 1.381 . S
C1476 C1482 1.383 . S
C1477 C1473 1.495 . S
C1477 H1483 0.959 . S
C1477 H1484 0.961 . S
C1477 H1485 0.960 . S
C1478 C1476 1.381 . S
C1478 C1479 1.394 . S
C1478 H1486 0.930 . S
C1479 C1478 1.394 . S
C1479 C1480 1.383 . S
C1479 H1487 0.929 . S
C1480 C1479 1.383 . S
C1480 C1481 1.377 . S
C1481 H1465 0.930 . S
C1481 C1480 1.377 . S
C1481 C1482 1.379 . S
C1482 H1466 0.931 . S
C1482 C1476 1.383 . S
C1482 C1481 1.379 . S
H1483 C1477 0.959 . S
H1484 C1477 0.961 . S
H1485 C1477 0.960 . S
H1486 C1478 0.930 . S
H1487 C1479 0.929 . S
H1488 C1496 0.970 . S
H1489 C1498 0.930 . S
H1490 C1500 0.930 . S
H1491 C1503 0.929 . S
H1492 C1506 0.930 . S
H1493 C1508 0.960 . S
H1494 C1508 0.969 . S
H1495 C1508 0.960 . S
C1496 H1488 0.970 . S
C1496 C1497 1.325 1_455 S
C1496 C1498 1.398 . S
C1497 C1496 1.325 1_655 S
C1497 C1503 1.390 . S
C1498 H1489 0.930 . S
C1498 C1496 1.398 . S
C1498 C1499 1.372 1_455 S
C1499 C1498 1.372 1_655 S
C1499 C1500 1.400 . S
C1499 C1504 1.490 . S
C1500 H1490 0.930 . S
C1500 C1499 1.400 . S
C1500 C1503 1.386 . S
H1501 C1517 0.960 . S
H1502 C1518 0.931 . S
C1503 H1491 0.929 . S
C1503 C1497 1.390 . S
C1503 C1500 1.386 . S
C1504 C1499 1.490 . S
C1504 C1506 1.395 1_655 S
C1504 C1507 1.403 . S
H1505 C1511 0.928 1_655 S
C1506 H1492 0.930 . S
C1506 C1504 1.395 1_455 S
C1506 C1509 1.403 . S
C1507 C1504 1.403 . S
C1507 C1508 1.524 . S
C1507 C1511 1.401 1_655 S
C1508 H1493 0.960 . S
C1508 H1494 0.969 . S
C1508 H1495 0.960 . S
C1508 C1507 1.524 . S
C1509 C1506 1.403 . S
C1509 C1510 1.392 . S
C1509 C1513 1.495 . S
C1510 C1509 1.392 . S
C1510 C1511 1.383 . S
C1510 C1512 1.478 . S
C1511 H1505 0.928 1_455 S
C1511 C1507 1.401 1_455 S
C1511 C1510 1.383 . S
C1512 C1510 1.478 . S
C1512 C1514 1.381 . S
C1512 C1518 1.383 1_455 S
C1513 C1509 1.495 . S
C1513 H1519 0.959 . S
C1513 H1520 0.961 . S
C1513 H1521 0.960 . S
C1514 C1512 1.381 . S
C1514 C1515 1.394 . S
C1514 H1522 0.930 . S
C1515 C1514 1.394 . S
C1515 C1516 1.383 . S
C1515 H1523 0.929 . S
C1516 C1515 1.383 . S
C1516 C1517 1.339 1_455 S
C1517 H1501 0.960 . S
C1517 C1516 1.339 1_655 S
C1517 C1518 1.388 . S
C1518 H1502 0.931 . S
C1518 C1512 1.383 1_655 S
C1518 C1517 1.388 . S
H1519 C1513 0.959 . S
H1520 C1513 0.961 . S
H1521 C1513 0.960 . S
H1522 C1514 0.930 . S
H1523 C1515 0.929 . S
H1524 C1532 0.929 . S
H1525 C1534 0.930 1_545 S
H1526 C1536 0.930 . S
H1527 C1539 0.929 . S
H1528 C1542 0.930 . S
H1529 C1544 0.960 . S
H1530 C1544 0.960 . S
H1531 C1544 0.960 . S
C1532 H1524 0.929 . S
C1532 C1533 1.377 . S
C1532 C1534 1.384 . S
C1533 C1532 1.377 . S
C1533 C1539 1.390 . S
C1534 H1525 0.930 1_565 S
C1534 C1532 1.384 . S
C1534 C1535 1.372 . S
C1535 C1534 1.372 . S
C1535 C1536 1.400 . S
C1535 C1540 1.490 . S
C1536 H1526 0.930 . S
C1536 C1535 1.400 . S
C1536 C1539 1.386 . S
H1537 C1553 0.930 . S
H1538 C1554 0.956 . S
C1539 H1527 0.929 . S
C1539 C1533 1.390 . S
C1539 C1536 1.386 . S
C1540 C1535 1.490 . S
C1540 C1542 1.395 1_565 S
C1540 C1543 1.403 . S
H1541 C1547 0.930 . S
C1542 H1528 0.930 . S
C1542 C1540 1.395 1_545 S
C1542 C1545 1.403 . S
C1543 C1540 1.403 . S
C1543 C1544 1.524 . S
C1543 C1547 1.400 . S
C1544 H1529 0.960 . S
C1544 H1530 0.960 . S
C1544 H1531 0.960 . S
C1544 C1543 1.524 . S
C1545 C1542 1.403 . S
C1545 C1546 1.392 . S
C1545 C1549 1.495 . S
C1546 C1545 1.392 . S
C1546 C1547 1.385 1_545 S
C1546 C1548 1.478 . S
C1547 H1541 0.930 . S
C1547 C1543 1.400 . S
C1547 C1546 1.385 1_565 S
C1548 C1546 1.478 . S
C1548 C1550 1.381 . S
C1548 C1554 1.383 . S
C1549 C1545 1.495 . S
C1549 H1555 0.959 . S
C1549 H1556 0.961 . S
C1549 H1557 0.960 . S
C1550 C1548 1.381 . S
C1550 C1551 1.394 . S
C1550 H1558 0.930 . S
C1551 C1550 1.394 . S
C1551 C1552 1.383 . S
C1551 H1559 0.929 . S
C1552 C1551 1.383 . S
C1552 C1553 1.377 . S
C1553 H1537 0.930 . S
C1553 C1552 1.377 . S
C1553 C1554 1.379 . S
C1554 H1538 0.956 . S
C1554 C1548 1.383 . S
C1554 C1553 1.379 . S
H1555 C1549 0.959 . S
H1556 C1549 0.961 . S
H1557 C1549 0.960 . S
H1558 C1550 0.930 . S
H1559 C1551 0.929 . S
H1560 C1568 0.928 1_455 S
H1561 C1570 0.930 . S
H1562 C1572 0.930 . S
H1563 C1575 0.929 . S
H1564 C1578 0.932 . S
H1565 C1580 0.960 . S
H1566 C1580 0.960 1_455 S
H1567 C1580 0.960 . S
C1568 H1560 0.928 1_655 S
C1568 C1569 1.379 . S
C1568 C1570 1.383 1_655 S
C1569 C1568 1.379 . S
C1569 C1575 1.390 . S
C1570 H1561 0.930 . S
C1570 C1568 1.383 1_455 S
C1570 C1571 1.372 1_455 S
C1571 C1570 1.372 1_655 S
C1571 C1572 1.400 . S
C1571 C1576 1.490 . S
C1572 H1562 0.930 . S
C1572 C1571 1.400 . S
C1572 C1575 1.386 . S
H1573 C1589 0.937 . S
H1574 C1590 0.931 . S
C1575 H1563 0.929 . S
C1575 C1569 1.390 . S
C1575 C1572 1.386 . S
C1576 C1571 1.490 . S
C1576 C1578 1.398 . S
C1576 C1579 1.403 . S
H1577 C1583 0.930 . S
C1578 H1564 0.932 . S
C1578 C1576 1.398 . S
C1578 C1581 1.399 1_655 S
C1579 C1576 1.403 . S
C1579 C1580 1.524 . S
C1579 C1583 1.400 1_655 S
C1580 H1565 0.960 . S
C1580 H1566 0.960 1_655 S
C1580 H1567 0.960 . S
C1580 C1579 1.524 . S
C1581 C1578 1.399 1_455 S
C1581 C1582 1.392 . S
C1581 C1585 1.495 . S
C1582 C1581 1.392 . S
C1582 C1583 1.385 . S
C1582 C1584 1.478 . S
C1583 H1577 0.930 . S
C1583 C1579 1.400 1_455 S
C1583 C1582 1.385 . S
C1584 C1582 1.478 . S
C1584 C1586 1.381 . S
C1584 C1590 1.383 1_455 S
C1585 C1581 1.495 . S
C1585 H1591 0.959 . S
C1585 H1592 0.961 1_455 S
C1585 H1593 0.960 . S
C1586 C1584 1.381 . S
C1586 C1587 1.394 . S
C1586 H1594 0.930 . S
C1587 C1586 1.394 . S
C1587 C1588 1.383 . S
C1587 H1595 0.929 . S
C1588 C1587 1.383 . S
C1588 C1589 1.367 1_455 S
C1589 H1573 0.937 . S
C1589 C1588 1.367 1_655 S
C1589 C1590 1.382 . S
C1590 H1574 0.931 . S
C1590 C1584 1.383 1_655 S
C1590 C1589 1.382 . S
H1591 C1585 0.959 . S
H1592 C1585 0.961 1_655 S
H1593 C1585 0.960 . S
H1594 C1586 0.930 . S
H1595 C1587 0.929 . S
H1596 C1604 0.929 . S
H1597 C1606 0.930 . S
H1598 C1608 0.930 . S
H1599 C1611 0.894 1_565 S
H1600 C1614 0.930 . S
H1601 C1616 0.960 . S
H1602 C1616 0.960 . S
H1603 C1616 0.960 1_565 S
C1604 H1596 0.929 . S
C1604 C1605 1.377 . S
C1604 C1606 1.384 . S
C1605 C1604 1.377 . S
C1605 C1611 1.438 . S
C1606 H1597 0.930 . S
C1606 C1604 1.384 . S
C1606 C1607 1.372 . S
C1607 C1606 1.372 . S
C1607 C1608 1.400 1_545 S
C1607 C1612 1.490 . S
C1608 H1598 0.930 . S
C1608 C1607 1.400 1_565 S
C1608 C1611 1.376 1_565 S
H1609 C1625 0.930 . S
H1610 C1626 0.931 . S
C1611 H1599 0.894 1_545 S
C1611 C1605 1.438 . S
C1611 C1608 1.376 1_545 S
C1612 C1607 1.490 . S
C1612 C1614 1.395 . S
C1612 C1615 1.403 . S
H1613 C1619 0.930 . S
C1614 H1600 0.930 . S
C1614 C1612 1.395 . S
C1614 C1617 1.394 1_545 S
C1615 C1612 1.403 . S
C1615 C1616 1.524 . S
C1615 C1619 1.400 1_545 S
C1616 H1601 0.960 . S
C1616 H1602 0.960 . S
C1616 H1603 0.960 1_545 S
C1616 C1615 1.524 . S
C1617 C1614 1.394 1_565 S
C1617 C1618 1.400 . S
C1617 C1621 1.500 . S
C1618 C1617 1.400 . S
C1618 C1619 1.385 . S
C1618 C1620 1.478 . S
C1619 H1613 0.930 . S
C1619 C1615 1.400 1_565 S
C1619 C1618 1.385 . S
C1620 C1618 1.478 . S
C1620 C1622 1.381 1_565 S
C1620 C1626 1.383 . S
C1621 C1617 1.500 . S
C1621 H1627 0.958 . S
C1621 H1628 0.961 . S
C1621 H1629 0.960 1_565 S
C1622 C1620 1.381 1_545 S
C1622 C1623 1.393 . S
C1622 H1630 0.930 . S
C1623 C1622 1.393 . S
C1623 C1624 1.388 1_545 S
C1623 H1631 0.926 . S
C1624 C1623 1.388 1_565 S
C1624 C1625 1.377 . S
C1625 H1609 0.930 . S
C1625 C1624 1.377 . S
C1625 C1626 1.379 . S
C1626 H1610 0.931 . S
C1626 C1620 1.383 . S
C1626 C1625 1.379 . S
H1627 C1621 0.958 . S
H1628 C1621 0.961 . S
H1629 C1621 0.960 1_545 S
H1630 C1622 0.930 . S
H1631 C1623 0.926 . S
H1632 C1640 0.929 . S
H1633 C1642 0.930 . S
H1634 C1644 0.930 . S
H1635 C1647 0.913 1_655 S
H1636 C1650 0.930 . S
H1637 C1652 0.959 1_655 S
H1638 C1652 0.960 . S
H1639 C1652 0.960 1_655 S
C1640 H1632 0.929 . S
C1640 C1641 1.377 . S
C1640 C1642 1.384 . S
C1641 C1640 1.377 . S
C1641 C1647 1.411 . S
C1642 H1633 0.930 . S
C1642 C1640 1.384 . S
C1642 C1643 1.372 . S
C1643 C1642 1.372 . S
C1643 C1644 1.400 1_455 S
C1643 C1648 1.490 . S
C1644 H1634 0.930 . S
C1644 C1643 1.400 1_655 S
C1644 C1647 1.381 1_655 S
H1645 C1661 0.930 . S
H1646 C1662 0.931 . S
C1647 H1635 0.913 1_455 S
C1647 C1641 1.411 . S
C1647 C1644 1.381 1_455 S
C1648 C1643 1.490 . S
C1648 C1650 1.395 . S
C1648 C1651 1.403 . S
H1649 C1655 0.930 . S
C1650 H1636 0.930 . S
C1650 C1648 1.395 . S
C1650 C1653 1.408 . S
C1651 C1648 1.403 . S
C1651 C1652 1.524 . S
C1651 C1655 1.400 1_455 S
C1652 H1637 0.959 1_455 S
C1652 H1638 0.960 . S
C1652 H1639 0.960 1_455 S
C1652 C1651 1.524 . S
C1653 C1650 1.408 . S
C1653 C1654 1.388 1_455 S
C1653 C1657 1.495 1_455 S
C1654 C1653 1.388 1_655 S
C1654 C1655 1.385 . S
C1654 C1656 1.478 . S
C1655 H1649 0.930 . S
C1655 C1651 1.400 1_655 S
C1655 C1654 1.385 . S
C1656 C1654 1.478 . S
C1656 C1658 1.381 1_655 S
C1656 C1662 1.383 . S
C1657 C1653 1.495 1_655 S
C1657 H1663 0.957 1_655 S
C1657 H1664 0.968 . S
C1657 H1665 0.955 1_655 S
C1658 C1656 1.381 1_455 S
C1658 C1659 1.400 . S
C1658 H1666 0.930 . S
C1659 C1658 1.400 . S
C1659 C1660 1.359 1_455 S
C1659 H1667 0.948 . S
C1660 C1659 1.359 1_655 S
C1660 C1661 1.377 . S
C1661 H1645 0.930 . S
C1661 C1660 1.377 . S
C1661 C1662 1.379 . S
C1662 H1646 0.931 . S
C1662 C1656 1.383 . S
C1662 C1661 1.379 . S
H1663 C1657 0.957 1_455 S
H1664 C1657 0.968 . S
H1665 C1657 0.955 1_455 S
H1666 C1658 0.930 . S
H1667 C1659 0.948 . S
H1668 C1676 0.929 . S
H1669 C1678 0.930 . S
H1670 C1680 0.930 . S
H1671 C1683 0.929 . S
H1672 C1686 0.930 . S
H1673 C1688 0.960 . S
H1674 C1688 0.960 . S
H1675 C1688 0.960 . S
C1676 H1668 0.929 . S
C1676 C1677 1.377 . S
C1676 C1678 1.384 . S
C1677 C1676 1.377 . S
C1677 C1683 1.390 . S
C1678 H1669 0.930 . S
C1678 C1676 1.384 . S
C1678 C1679 1.372 . S
C1679 C1678 1.372 . S
C1679 C1680 1.400 . S
C1679 C1684 1.490 . S
C1680 H1670 0.930 . S
C1680 C1679 1.400 . S
C1680 C1683 1.386 . S
H1681 C1697 0.930 . S
H1682 C1698 0.931 . S
C1683 H1671 0.929 . S
C1683 C1677 1.390 . S
C1683 C1680 1.386 . S
C1684 C1679 1.490 . S
C1684 C1686 1.395 . S
C1684 C1687 1.403 1_565 S
H1685 C1691 0.930 . S
C1686 H1672 0.930 . S
C1686 C1684 1.395 . S
C1686 C1689 1.403 . S
C1687 C1684 1.403 1_545 S
C1687 C1688 1.524 . S
C1687 C1691 1.400 . S
C1688 H1673 0.960 . S
C1688 H1674 0.960 . S
C1688 H1675 0.960 . S
C1688 C1687 1.524 . S
C1689 C1686 1.403 . S
C1689 C1690 1.392 1_565 S
C1689 C1693 1.495 . S
C1690 C1689 1.392 1_545 S
C1690 C1691 1.385 . S
C1690 C1692 1.478 . S
C1691 H1685 0.930 . S
C1691 C1687 1.400 . S
C1691 C1690 1.385 . S
C1692 C1690 1.478 . S
C1692 C1694 1.381 . S
C1692 C1698 1.383 . S
C1693 C1689 1.495 . S
C1693 H1699 0.959 . S
C1693 H1700 0.961 . S
C1693 H1701 0.960 . S
C1694 C1692 1.381 . S
C1694 C1695 1.394 . S
C1694 H1702 0.930 . S
C1695 C1694 1.394 . S
C1695 C1696 1.383 . S
C1695 H1703 0.929 . S
C1696 C1695 1.383 . S
C1696 C1697 1.377 . S
C1697 H1681 0.930 . S
C1697 C1696 1.377 . S
C1697 C1698 1.379 . S
C1698 H1682 0.931 . S
C1698 C1692 1.383 . S
C1698 C1697 1.379 . S
H1699 C1693 0.959 . S
H1700 C1693 0.961 . S
H1701 C1693 0.960 . S
H1702 C1694 0.930 . S
H1703 C1695 0.929 . S
H1704 C1712 0.929 . S
H1705 C1714 0.930 . S
H1706 C1716 0.897 1_655 S
H1707 C1719 0.929 1_655 S
H1708 C1722 0.930 . S
H1709 C1724 0.960 . S
H1710 C1724 0.960 . S
H1711 C1724 0.960 . S
C1712 H1704 0.929 . S
C1712 C1713 1.377 . S
C1712 C1714 1.384 . S
C1713 C1712 1.377 . S
C1713 C1719 1.390 . S
C1714 H1705 0.930 . S
C1714 C1712 1.384 . S
C1714 C1715 1.372 . S
C1715 C1714 1.372 . S
C1715 C1716 1.423 . S
C1715 C1720 1.490 . S
C1716 H1706 0.897 1_455 S
C1716 C1715 1.423 . S
C1716 C1719 1.397 . S
H1717 C1733 0.930 . S
H1718 C1734 0.931 . S
C1719 H1707 0.929 1_455 S
C1719 C1713 1.390 . S
C1719 C1716 1.397 . S
C1720 C1715 1.490 . S
C1720 C1722 1.395 1_455 S
C1720 C1723 1.403 . S
H1721 C1727 0.930 . S
C1722 H1708 0.930 . S
C1722 C1720 1.395 1_655 S
C1722 C1725 1.403 . S
C1723 C1720 1.403 . S
C1723 C1724 1.524 . S
C1723 C1727 1.400 . S
C1724 H1709 0.960 . S
C1724 H1710 0.960 . S
C1724 H1711 0.960 . S
C1724 C1723 1.524 . S
C1725 C1722 1.403 . S
C1725 C1726 1.392 . S
C1725 C1729 1.495 . S
C1726 C1725 1.392 . S
C1726 C1727 1.385 1_655 S
C1726 C1728 1.478 . S
C1727 H1721 0.930 . S
C1727 C1723 1.400 . S
C1727 C1726 1.385 1_455 S
C1728 C1726 1.478 . S
C1728 C1730 1.382 . S
C1728 C1734 1.383 . S
C1729 C1725 1.495 . S
C1729 H1735 0.959 . S
C1729 H1736 0.961 . S
C1729 H1737 0.960 . S
C1730 C1728 1.382 . S
C1730 C1731 1.394 . S
C1730 H1738 0.929 1_655 S
C1731 C1730 1.394 . S
C1731 C1732 1.383 . S
C1731 H1739 0.929 1_655 S
C1732 C1731 1.383 . S
C1732 C1733 1.377 . S
C1733 H1717 0.930 . S
C1733 C1732 1.377 . S
C1733 C1734 1.379 . S
C1734 H1718 0.931 . S
C1734 C1728 1.383 . S
C1734 C1733 1.379 . S
H1735 C1729 0.959 . S
H1736 C1729 0.961 . S
H1737 C1729 0.960 . S
H1738 C1730 0.929 1_455 S
H1739 C1731 0.929 1_455 S
H1740 C1748 0.924 . S
H1741 C1750 0.930 . S
H1742 C1752 0.930 . S
H1743 C1755 0.929 . S
H1744 C1758 0.930 . S
H1745 C1760 0.960 . S
H1746 C1760 0.960 . S
H1747 C1760 0.960 . S
C1748 H1740 0.924 . S
C1748 C1749 1.384 1_565 S
C1748 C1750 1.382 . S
C1749 C1748 1.384 1_545 S
C1749 C1755 1.390 . S
C1750 H1741 0.930 . S
C1750 C1748 1.382 . S
C1750 C1751 1.372 1_565 S
C1751 C1750 1.372 1_545 S
C1751 C1752 1.400 . S
C1751 C1756 1.490 . S
C1752 H1742 0.930 . S
C1752 C1751 1.400 . S
C1752 C1755 1.386 . S
H1753 C1769 0.930 1_545 S
H1754 C1770 0.972 . S
C1755 H1743 0.929 . S
C1755 C1749 1.390 . S
C1755 C1752 1.386 . S
C1756 C1751 1.490 . S
C1756 C1758 1.395 1_545 S
C1756 C1759 1.403 . S
H1757 C1763 0.930 . S
C1758 H1744 0.930 . S
C1758 C1756 1.395 1_565 S
C1758 C1761 1.403 . S
C1759 C1756 1.403 . S
C1759 C1760 1.524 . S
C1759 C1763 1.400 . S
C1760 H1745 0.960 . S
C1760 H1746 0.960 . S
C1760 H1747 0.960 . S
C1760 C1759 1.524 . S
C1761 C1758 1.403 . S
C1761 C1762 1.392 . S
C1761 C1765 1.495 . S
C1762 C1761 1.392 . S
C1762 C1763 1.385 1_565 S
C1762 C1764 1.478 . S
C1763 H1757 0.930 . S
C1763 C1759 1.400 . S
C1763 C1762 1.385 1_545 S
C1764 C1762 1.478 . S
C1764 C1766 1.381 . S
C1764 C1770 1.351 1_565 S
C1765 C1761 1.495 . S
C1765 H1771 0.959 . S
C1765 H1772 0.961 . S
C1765 H1773 0.960 . S
C1766 C1764 1.381 . S
C1766 C1767 1.394 . S
C1766 H1774 0.930 . S
C1767 C1766 1.394 . S
C1767 C1768 1.383 . S
C1767 H1775 0.929 . S
C1768 C1767 1.383 . S
C1768 C1769 1.377 . S
C1769 H1753 0.930 1_565 S
C1769 C1768 1.377 . S
C1769 C1770 1.372 1_565 S
C1770 H1754 0.972 . S
C1770 C1764 1.351 1_545 S
C1770 C1769 1.372 1_545 S
H1771 C1765 0.959 . S
H1772 C1765 0.961 . S
H1773 C1765 0.960 . S
H1774 C1766 0.930 . S
H1775 C1767 0.929 . S
H1776 C1784 0.929 . S
H1777 C1786 0.930 . S
H1778 C1788 0.976 . S
H1779 C1791 0.929 1_554 S
H1780 C1794 0.930 . S
H1781 C1796 0.960 . S
H1782 C1796 0.960 . S
H1783 C1796 0.960 . S
C1784 H1776 0.929 . S
C1784 C1785 1.377 . S
C1784 C1786 1.384 . S
C1785 C1784 1.377 . S
C1785 C1791 1.390 . S
C1786 H1777 0.930 . S
C1786 C1784 1.384 . S
C1786 C1787 1.372 . S
C1787 C1786 1.372 . S
C1787 C1788 1.368 1_556 S
C1787 C1792 1.490 . S
C1788 H1778 0.976 . S
C1788 C1787 1.368 1_554 S
C1788 C1791 1.375 1_554 S
H1789 C1805 0.930 . S
H1790 C1806 0.931 . S
C1791 H1779 0.929 1_556 S
C1791 C1785 1.390 . S
C1791 C1788 1.375 1_556 S
C1792 C1787 1.490 . S
C1792 C1794 1.396 1_556 S
C1792 C1795 1.403 . S
H1793 C1799 0.930 . S
C1794 H1780 0.930 . S
C1794 C1792 1.396 1_554 S
C1794 C1797 1.402 . S
C1795 C1792 1.403 . S
C1795 C1796 1.524 . S
C1795 C1799 1.411 . S
C1796 H1781 0.960 . S
C1796 H1782 0.960 . S
C1796 H1783 0.960 . S
C1796 C1795 1.524 . S
C1797 C1794 1.402 . S
C1797 C1798 1.392 . S
C1797 C1801 1.495 . S
C1798 C1797 1.392 . S
C1798 C1799 1.375 1_554 S
C1798 C1800 1.478 . S
C1799 H1793 0.930 . S
C1799 C1795 1.411 . S
C1799 C1798 1.375 1_556 S
C1800 C1798 1.478 . S
C1800 C1802 1.381 1_554 S
C1800 C1806 1.383 . S
C1801 C1797 1.495 . S
C1801 H1807 0.959 . S
C1801 H1808 0.961 . S
C1801 H1809 0.960 . S
C1802 C1800 1.381 1_556 S
C1802 C1803 1.394 1_556 S
C1802 H1810 0.930 . S
C1803 C1802 1.394 1_554 S
C1803 C1804 1.383 . S
C1803 H1811 0.929 1_554 S
C1804 C1803 1.383 . S
C1804 C1805 1.377 . S
C1805 H1789 0.930 . S
C1805 C1804 1.377 . S
C1805 C1806 1.379 . S
C1806 H1790 0.931 . S
C1806 C1800 1.383 . S
C1806 C1805 1.379 . S
H1807 C1801 0.959 . S
H1808 C1801 0.961 . S
H1809 C1801 0.960 . S
H1810 C1802 0.930 . S
H1811 C1803 0.929 1_556 S
H1812 C1820 0.929 . S
H1813 C1822 0.930 . S
H1814 C1824 0.930 . S
H1815 C1827 0.968 . S
H1816 C1830 0.930 . S
H1817 C1832 0.960 . S
H1818 C1832 0.960 1_554 S
H1819 C1832 0.960 . S
C1820 H1812 0.929 . S
C1820 C1821 1.377 . S
C1820 C1822 1.384 . S
C1821 C1820 1.377 . S
C1821 C1827 1.342 1_554 S
C1822 H1813 0.930 . S
C1822 C1820 1.384 . S
C1822 C1823 1.372 . S
C1823 C1822 1.372 . S
C1823 C1824 1.400 1_554 S
C1823 C1828 1.490 . S
C1824 H1814 0.930 . S
C1824 C1823 1.400 1_556 S
C1824 C1827 1.396 . S
H1825 C1841 0.930 . S
H1826 C1842 0.931 . S
C1827 H1815 0.968 . S
C1827 C1821 1.342 1_556 S
C1827 C1824 1.396 . S
C1828 C1823 1.490 . S
C1828 C1830 1.395 . S
C1828 C1831 1.403 1_554 S
H1829 C1835 0.930 . S
C1830 H1816 0.930 . S
C1830 C1828 1.395 . S
C1830 C1833 1.403 . S
C1831 C1828 1.403 1_556 S
C1831 C1832 1.524 . S
C1831 C1835 1.400 . S
C1832 H1817 0.960 . S
C1832 H1818 0.960 1_556 S
C1832 H1819 0.960 . S
C1832 C1831 1.524 . S
C1833 C1830 1.403 . S
C1833 C1834 1.392 1_554 S
C1833 C1837 1.495 . S
C1834 C1833 1.392 1_556 S
C1834 C1835 1.385 . S
C1834 C1836 1.478 . S
C1835 H1829 0.930 . S
C1835 C1831 1.400 . S
C1835 C1834 1.385 . S
C1836 C1834 1.478 . S
C1836 C1838 1.381 1_556 S
C1836 C1842 1.383 . S
C1837 C1833 1.495 . S
C1837 H1843 0.959 . S
C1837 H1844 0.961 1_554 S
C1837 H1845 0.960 . S
C1838 C1836 1.381 1_554 S
C1838 C1839 1.394 . S
C1838 H1846 0.930 . S
C1839 C1838 1.394 . S
C1839 C1840 1.383 1_554 S
C1839 H1847 0.929 . S
C1840 C1839 1.383 1_556 S
C1840 C1841 1.377 . S
C1841 H1825 0.930 . S
C1841 C1840 1.377 . S
C1841 C1842 1.379 . S
C1842 H1826 0.931 . S
C1842 C1836 1.383 . S
C1842 C1841 1.379 . S
H1843 C1837 0.959 . S
H1844 C1837 0.961 1_556 S
H1845 C1837 0.960 . S
H1846 C1838 0.930 . S
H1847 C1839 0.929 . S
H1848 C1856 0.929 . S
H1849 C1858 0.930 . S
H1850 C1860 0.930 . S
H1851 C1863 0.929 1_556 S
H1852 C1866 0.930 . S
H1853 C1868 0.960 . S
H1854 C1868 0.960 . S
H1855 C1868 1.002 . S
C1856 H1848 0.929 . S
C1856 C1857 1.377 . S
C1856 C1858 1.384 . S
C1857 C1856 1.377 . S
C1857 C1863 1.390 . S
C1858 H1849 0.930 . S
C1858 C1856 1.384 . S
C1858 C1859 1.372 . S
C1859 C1858 1.372 . S
C1859 C1860 1.400 1_554 S
C1859 C1864 1.490 . S
C1860 H1850 0.930 . S
C1860 C1859 1.400 1_556 S
C1860 C1863 1.386 1_556 S
H1861 C1877 0.930 . S
H1862 C1878 0.931 . S
C1863 H1851 0.929 1_554 S
C1863 C1857 1.390 . S
C1863 C1860 1.386 1_554 S
C1864 C1859 1.490 . S
C1864 C1866 1.395 . S
C1864 C1867 1.403 . S
H1865 C1871 0.929 . S
C1866 H1852 0.930 . S
C1866 C1864 1.395 . S
C1866 C1869 1.403 1_554 S
C1867 C1864 1.403 . S
C1867 C1868 1.524 . S
C1867 C1871 1.396 1_554 S
C1868 H1853 0.960 . S
C1868 H1854 0.960 . S
C1868 H1855 1.002 . S
C1868 C1867 1.524 . S
C1869 C1866 1.403 1_556 S
C1869 C1870 1.392 . S
C1869 C1873 1.495 . S
C1870 C1869 1.392 . S
C1870 C1871 1.388 . S
C1870 C1872 1.478 . S
C1871 H1865 0.929 . S
C1871 C1867 1.396 1_556 S
C1871 C1870 1.388 . S
C1872 C1870 1.478 . S
C1872 C1874 1.381 1_556 S
C1872 C1878 1.383 . S
C1873 C1869 1.495 . S
C1873 H1879 0.959 . S
C1873 H1880 0.961 . S
C1873 H1881 0.960 1_556 S
C1874 C1872 1.381 1_554 S
C1874 C1875 1.382 1_554 S
C1874 H1882 0.930 . S
C1875 C1874 1.382 1_556 S
C1875 C1876 1.443 . S
C1875 H1883 0.886 1_556 S
C1876 C1875 1.443 . S
C1876 C1877 1.377 . S
C1877 H1861 0.930 . S
C1877 C1876 1.377 . S
C1877 C1878 1.379 . S
C1878 H1862 0.931 . S
C1878 C1872 1.383 . S
C1878 C1877 1.379 . S
H1879 C1873 0.959 . S
H1880 C1873 0.961 . S
H1881 C1873 0.960 1_554 S
H1882 C1874 0.930 . S
H1883 C1875 0.886 1_554 S
H1884 C1892 0.929 . S
H1885 C1894 0.930 . S
H1886 C1896 0.930 . S
H1887 C1899 0.929 . S
H1888 C1902 0.930 . S
H1889 C1904 0.960 . S
H1890 C1904 0.960 . S
H1891 C1904 0.960 . S
C1892 H1884 0.929 . S
C1892 C1893 1.377 . S
C1892 C1894 1.384 . S
C1893 C1892 1.377 . S
C1893 C1899 1.390 . S
C1894 H1885 0.930 . S
C1894 C1892 1.384 . S
C1894 C1895 1.372 . S
C1895 C1894 1.372 . S
C1895 C1896 1.400 . S
C1895 C1900 1.490 . S
C1896 H1886 0.930 . S
C1896 C1895 1.400 . S
C1896 C1899 1.386 . S
H1897 C1913 0.930 . S
H1898 C1914 0.931 . S
C1899 H1887 0.929 . S
C1899 C1893 1.390 . S
C1899 C1896 1.386 . S
C1900 C1895 1.490 . S
C1900 C1902 1.395 . S
C1900 C1903 1.403 1_556 S
H1901 C1907 0.930 . S
C1902 H1888 0.930 . S
C1902 C1900 1.395 . S
C1902 C1905 1.403 . S
C1903 C1900 1.403 1_554 S
C1903 C1904 1.524 . S
C1903 C1907 1.400 . S
C1904 H1889 0.960 . S
C1904 H1890 0.960 . S
C1904 H1891 0.960 . S
C1904 C1903 1.524 . S
C1905 C1902 1.403 . S
C1905 C1906 1.392 1_556 S
C1905 C1909 1.495 . S
C1906 C1905 1.392 1_554 S
C1906 C1907 1.385 . S
C1906 C1908 1.478 . S
C1907 H1901 0.930 . S
C1907 C1903 1.400 . S
C1907 C1906 1.385 . S
C1908 C1906 1.478 . S
C1908 C1910 1.381 . S
C1908 C1914 1.383 . S
C1909 C1905 1.495 . S
C1909 H1915 0.959 . S
C1909 H1916 0.961 . S
C1909 H1917 0.960 . S
C1910 C1908 1.381 . S
C1910 C1911 1.394 . S
C1910 H1918 0.930 . S
C1911 C1910 1.394 . S
C1911 C1912 1.383 . S
C1911 H1919 0.929 . S
C1912 C1911 1.383 . S
C1912 C1913 1.377 . S
C1913 H1897 0.930 . S
C1913 C1912 1.377 . S
C1913 C1914 1.379 . S
C1914 H1898 0.931 . S
C1914 C1908 1.383 . S
C1914 C1913 1.379 . S
H1915 C1909 0.959 . S
H1916 C1909 0.961 . S
H1917 C1909 0.960 . S
H1918 C1910 0.930 . S
H1919 C1911 0.929 . S
H1920 C1928 0.929 . S
H1921 C1930 0.930 . S
H1922 C1932 0.930 . S
H1923 C1935 0.929 . S
H1924 C1938 0.930 . S
H1925 C1940 0.960 . S
H1926 C1940 0.960 . S
H1927 C1940 0.960 . S
C1928 H1920 0.929 . S
C1928 C1929 1.377 . S
C1928 C1930 1.384 . S
C1929 C1928 1.377 . S
C1929 C1935 1.390 . S
C1930 H1921 0.930 . S
C1930 C1928 1.384 . S
C1930 C1931 1.372 . S
C1931 C1930 1.372 . S
C1931 C1932 1.400 . S
C1931 C1936 1.490 . S
C1932 H1922 0.930 . S
C1932 C1931 1.400 . S
C1932 C1935 1.386 . S
H1933 C1949 0.930 . S
H1934 C1950 0.931 . S
C1935 H1923 0.929 . S
C1935 C1929 1.390 . S
C1935 C1932 1.386 . S
C1936 C1931 1.490 . S
C1936 C1938 1.395 . S
C1936 C1939 1.403 . S
H1937 C1943 0.930 . S
C1938 H1924 0.930 . S
C1938 C1936 1.395 . S
C1938 C1941 1.403 . S
C1939 C1936 1.403 . S
C1939 C1940 1.524 . S
C1939 C1943 1.400 . S
C1940 H1925 0.960 . S
C1940 H1926 0.960 . S
C1940 H1927 0.960 . S
C1940 C1939 1.524 . S
C1941 C1938 1.403 . S
C1941 C1942 1.392 . S
C1941 C1945 1.495 . S
C1942 C1941 1.392 . S
C1942 C1943 1.385 . S
C1942 C1944 1.478 . S
C1943 H1937 0.930 . S
C1943 C1939 1.400 . S
C1943 C1942 1.385 . S
C1944 C1942 1.478 . S
C1944 C1946 1.381 . S
C1944 C1950 1.383 . S
C1945 C1941 1.495 . S
C1945 H1951 0.959 . S
C1945 H1952 0.961 . S
C1945 H1953 0.960 . S
C1946 C1944 1.381 . S
C1946 C1947 1.394 . S
C1946 H1954 0.930 . S
C1947 C1946 1.394 . S
C1947 C1948 1.383 . S
C1947 H1955 0.929 . S
C1948 C1947 1.383 . S
C1948 C1949 1.377 . S
C1949 H1933 0.930 . S
C1949 C1948 1.377 . S
C1949 C1950 1.379 . S
C1950 H1934 0.931 . S
C1950 C1944 1.383 . S
C1950 C1949 1.379 . S
H1951 C1945 0.959 . S
H1952 C1945 0.961 . S
H1953 C1945 0.960 . S
H1954 C1946 0.930 . S
H1955 C1947 0.929 . S
H1956 C1964 0.929 . S
H1957 C1966 0.930 . S
H1958 C1968 0.930 . S
H1959 C1971 0.929 . S
H1960 C1974 0.930 . S
H1961 C1976 0.960 . S
H1962 C1976 0.960 . S
H1963 C1976 0.960 . S
C1964 H1956 0.929 . S
C1964 C1965 1.377 . S
C1964 C1966 1.384 . S
C1965 C1964 1.377 . S
C1965 C1971 1.390 . S
C1966 H1957 0.930 . S
C1966 C1964 1.384 . S
C1966 C1967 1.372 . S
C1967 C1966 1.372 . S
C1967 C1968 1.400 . S
C1967 C1972 1.490 . S
C1968 H1958 0.930 . S
C1968 C1967 1.400 . S
C1968 C1971 1.386 . S
H1969 C1985 0.930 . S
H1970 C1986 0.931 . S
C1971 H1959 0.929 . S
C1971 C1965 1.390 . S
C1971 C1968 1.386 . S
C1972 C1967 1.490 . S
C1972 C1974 1.395 . S
C1972 C1975 1.403 . S
H1973 C1979 0.930 . S
C1974 H1960 0.930 . S
C1974 C1972 1.395 . S
C1974 C1977 1.403 . S
C1975 C1972 1.403 . S
C1975 C1976 1.524 . S
C1975 C1979 1.400 . S
C1976 H1961 0.960 . S
C1976 H1962 0.960 . S
C1976 H1963 0.960 . S
C1976 C1975 1.524 . S
C1977 C1974 1.403 . S
C1977 C1978 1.392 . S
C1977 C1981 1.495 . S
C1978 C1977 1.392 . S
C1978 C1979 1.385 . S
C1978 C1980 1.478 . S
C1979 H1973 0.930 . S
C1979 C1975 1.400 . S
C1979 C1978 1.385 . S
C1980 C1978 1.478 . S
C1980 C1982 1.381 . S
C1980 C1986 1.383 . S
C1981 C1977 1.495 . S
C1981 H1987 0.959 . S
C1981 H1988 0.961 . S
C1981 H1989 0.960 . S
C1982 C1980 1.381 . S
C1982 C1983 1.394 . S
C1982 H1990 0.930 . S
C1983 C1982 1.394 . S
C1983 C1984 1.383 . S
C1983 H1991 0.929 . S
C1984 C1983 1.383 . S
C1984 C1985 1.377 . S
C1985 H1969 0.930 . S
C1985 C1984 1.377 . S
C1985 C1986 1.379 . S
C1986 H1970 0.931 . S
C1986 C1980 1.383 . S
C1986 C1985 1.379 . S
H1987 C1981 0.959 . S
H1988 C1981 0.961 . S
H1989 C1981 0.960 . S
H1990 C1982 0.930 . S
H1991 C1983 0.929 . S
H1992 C2000 0.929 . S
H1993 C2002 0.930 . S
H1994 C2004 0.930 . S
H1995 C2007 0.929 . S
H1996 C2010 0.930 . S
H1997 C2012 0.960 . S
H1998 C2012 0.960 . S
H1999 C2012 0.960 . S
C2000 H1992 0.929 . S
C2000 C2001 1.377 . S
C2000 C2002 1.384 . S
C2001 C2000 1.377 . S
C2001 C2007 1.390 . S
C2002 H1993 0.930 . S
C2002 C2000 1.384 . S
C2002 C2003 1.372 . S
C2003 C2002 1.372 . S
C2003 C2004 1.400 . S
C2003 C2008 1.490 . S
C2004 H1994 0.930 . S
C2004 C2003 1.400 . S
C2004 C2007 1.386 . S
H2005 C2021 0.930 . S
H2006 C2022 0.931 . S
C2007 H1995 0.929 . S
C2007 C2001 1.390 . S
C2007 C2004 1.386 . S
C2008 C2003 1.490 . S
C2008 C2010 1.395 . S
C2008 C2011 1.403 . S
H2009 C2015 0.930 . S
C2010 H1996 0.930 . S
C2010 C2008 1.395 . S
C2010 C2013 1.403 . S
C2011 C2008 1.403 . S
C2011 C2012 1.524 . S
C2011 C2015 1.400 . S
C2012 H1997 0.960 . S
C2012 H1998 0.960 . S
C2012 H1999 0.960 . S
C2012 C2011 1.524 . S
C2013 C2010 1.403 . S
C2013 C2014 1.392 . S
C2013 C2017 1.495 . S
C2014 C2013 1.392 . S
C2014 C2015 1.385 . S
C2014 C2016 1.478 . S
C2015 H2009 0.930 . S
C2015 C2011 1.400 . S
C2015 C2014 1.385 . S
C2016 C2014 1.478 . S
C2016 C2018 1.381 . S
C2016 C2022 1.383 . S
C2017 C2013 1.495 . S
C2017 H2023 0.959 . S
C2017 H2024 0.961 . S
C2017 H2025 0.960 . S
C2018 C2016 1.381 . S
C2018 C2019 1.394 . S
C2018 H2026 0.930 . S
C2019 C2018 1.394 . S
C2019 C2020 1.383 . S
C2019 H2027 0.929 . S
C2020 C2019 1.383 . S
C2020 C2021 1.377 . S
C2021 H2005 0.930 . S
C2021 C2020 1.377 . S
C2021 C2022 1.379 . S
C2022 H2006 0.931 . S
C2022 C2016 1.383 . S
C2022 C2021 1.379 . S
H2023 C2017 0.959 . S
H2024 C2017 0.961 . S
H2025 C2017 0.960 . S
H2026 C2018 0.930 . S
H2027 C2019 0.929 . S
H2028 C2036 0.929 . S
H2029 C2038 0.930 . S
H2030 C2040 0.930 . S
H2031 C2043 0.929 . S
H2032 C2046 0.930 . S
H2033 C2048 0.960 . S
H2034 C2048 0.960 . S
H2035 C2048 0.960 . S
C2036 H2028 0.929 . S
C2036 C2037 1.377 . S
C2036 C2038 1.384 . S
C2037 C2036 1.377 . S
C2037 C2043 1.390 . S
C2038 H2029 0.930 . S
C2038 C2036 1.384 . S
C2038 C2039 1.372 . S
C2039 C2038 1.372 . S
C2039 C2040 1.400 . S
C2039 C2044 1.490 . S
C2040 H2030 0.930 . S
C2040 C2039 1.400 . S
C2040 C2043 1.386 . S
H2041 C2057 0.930 . S
H2042 C2058 0.931 . S
C2043 H2031 0.929 . S
C2043 C2037 1.390 . S
C2043 C2040 1.386 . S
C2044 C2039 1.490 . S
C2044 C2046 1.395 . S
C2044 C2047 1.403 . S
H2045 C2051 0.930 . S
C2046 H2032 0.930 . S
C2046 C2044 1.395 . S
C2046 C2049 1.403 . S
C2047 C2044 1.403 . S
C2047 C2048 1.524 . S
C2047 C2051 1.400 . S
C2048 H2033 0.960 . S
C2048 H2034 0.960 . S
C2048 H2035 0.960 . S
C2048 C2047 1.524 . S
C2049 C2046 1.403 . S
C2049 C2050 1.392 . S
C2049 C2053 1.495 . S
C2050 C2049 1.392 . S
C2050 C2051 1.385 . S
C2050 C2052 1.478 . S
C2051 H2045 0.930 . S
C2051 C2047 1.400 . S
C2051 C2050 1.385 . S
C2052 C2050 1.478 . S
C2052 C2054 1.381 . S
C2052 C2058 1.383 . S
C2053 C2049 1.495 . S
C2053 H2059 0.959 . S
C2053 H2060 0.961 . S
C2053 H2061 0.960 . S
C2054 C2052 1.381 . S
C2054 C2055 1.394 . S
C2054 H2062 0.930 . S
C2055 C2054 1.394 . S
C2055 C2056 1.383 . S
C2055 H2063 0.929 . S
C2056 C2055 1.383 . S
C2056 C2057 1.377 . S
C2057 H2041 0.930 . S
C2057 C2056 1.377 . S
C2057 C2058 1.379 . S
C2058 H2042 0.931 . S
C2058 C2052 1.383 . S
C2058 C2057 1.379 . S
H2059 C2053 0.959 . S
H2060 C2053 0.961 . S
H2061 C2053 0.960 . S
H2062 C2054 0.930 . S
H2063 C2055 0.929 . S
H2064 C2072 0.929 . S
H2065 C2074 0.930 . S
H2066 C2076 0.930 . S
H2067 C2079 0.929 . S
H2068 C2082 0.930 . S
H2069 C2084 0.960 . S
H2070 C2084 0.960 . S
H2071 C2084 0.960 . S
C2072 H2064 0.929 . S
C2072 C2073 1.377 . S
C2072 C2074 1.384 . S
C2073 C2072 1.377 . S
C2073 C2079 1.390 . S
C2074 H2065 0.930 . S
C2074 C2072 1.384 . S
C2074 C2075 1.372 . S
C2075 C2074 1.372 . S
C2075 C2076 1.400 . S
C2075 C2080 1.490 . S
C2076 H2066 0.930 . S
C2076 C2075 1.400 . S
C2076 C2079 1.386 . S
H2077 C2093 0.930 . S
H2078 C2094 0.931 . S
C2079 H2067 0.929 . S
C2079 C2073 1.390 . S
C2079 C2076 1.386 . S
C2080 C2075 1.490 . S
C2080 C2082 1.395 . S
C2080 C2083 1.403 . S
H2081 C2087 0.930 . S
C2082 H2068 0.930 . S
C2082 C2080 1.395 . S
C2082 C2085 1.403 . S
C2083 C2080 1.403 . S
C2083 C2084 1.524 . S
C2083 C2087 1.400 . S
C2084 H2069 0.960 . S
C2084 H2070 0.960 . S
C2084 H2071 0.960 . S
C2084 C2083 1.524 . S
C2085 C2082 1.403 . S
C2085 C2086 1.392 . S
C2085 C2089 1.495 . S
C2086 C2085 1.392 . S
C2086 C2087 1.385 . S
C2086 C2088 1.478 . S
C2087 H2081 0.930 . S
C2087 C2083 1.400 . S
C2087 C2086 1.385 . S
C2088 C2086 1.478 . S
C2088 C2090 1.381 . S
C2088 C2094 1.383 . S
C2089 C2085 1.495 . S
C2089 H2095 0.959 . S
C2089 H2096 0.961 . S
C2089 H2097 0.960 . S
C2090 C2088 1.381 . S
C2090 C2091 1.394 . S
C2090 H2098 0.930 . S
C2091 C2090 1.394 . S
C2091 C2092 1.383 . S
C2091 H2099 0.929 . S
C2092 C2091 1.383 . S
C2092 C2093 1.377 . S
C2093 H2077 0.930 . S
C2093 C2092 1.377 . S
C2093 C2094 1.379 . S
C2094 H2078 0.931 . S
C2094 C2088 1.383 . S
C2094 C2093 1.379 . S
H2095 C2089 0.959 . S
H2096 C2089 0.961 . S
H2097 C2089 0.960 . S
H2098 C2090 0.930 . S
H2099 C2091 0.929 . S
H2100 C2108 0.929 . S
H2101 C2110 0.930 . S
H2102 C2112 0.930 . S
H2103 C2115 0.929 . S
H2104 C2118 0.930 . S
H2105 C2120 0.960 . S
H2106 C2120 0.960 . S
H2107 C2120 0.960 . S
C2108 H2100 0.929 . S
C2108 C2109 1.377 . S
C2108 C2110 1.384 . S
C2109 C2108 1.377 . S
C2109 C2115 1.390 . S
C2110 H2101 0.930 . S
C2110 C2108 1.384 . S
C2110 C2111 1.372 . S
C2111 C2110 1.372 . S
C2111 C2112 1.400 . S
C2111 C2116 1.490 . S
C2112 H2102 0.930 . S
C2112 C2111 1.400 . S
C2112 C2115 1.386 . S
H2113 C2129 0.930 . S
H2114 C2130 0.931 . S
C2115 H2103 0.929 . S
C2115 C2109 1.390 . S
C2115 C2112 1.386 . S
C2116 C2111 1.490 . S
C2116 C2118 1.395 . S
C2116 C2119 1.403 . S
H2117 C2123 0.930 . S
C2118 H2104 0.930 . S
C2118 C2116 1.395 . S
C2118 C2121 1.403 . S
C2119 C2116 1.403 . S
C2119 C2120 1.524 . S
C2119 C2123 1.400 . S
C2120 H2105 0.960 . S
C2120 H2106 0.960 . S
C2120 H2107 0.960 . S
C2120 C2119 1.524 . S
C2121 C2118 1.403 . S
C2121 C2122 1.392 . S
C2121 C2125 1.495 . S
C2122 C2121 1.392 . S
C2122 C2123 1.385 . S
C2122 C2124 1.478 . S
C2123 H2117 0.930 . S
C2123 C2119 1.400 . S
C2123 C2122 1.385 . S
C2124 C2122 1.478 . S
C2124 C2126 1.381 . S
C2124 C2130 1.383 . S
C2125 C2121 1.495 . S
C2125 H2131 0.959 . S
C2125 H2132 0.961 . S
C2125 H2133 0.960 . S
C2126 C2124 1.381 . S
C2126 C2127 1.394 . S
C2126 H2134 0.930 . S
C2127 C2126 1.394 . S
C2127 C2128 1.383 . S
C2127 H2135 0.929 . S
C2128 C2127 1.383 . S
C2128 C2129 1.377 . S
C2129 H2113 0.930 . S
C2129 C2128 1.377 . S
C2129 C2130 1.379 . S
C2130 H2114 0.931 . S
C2130 C2124 1.383 . S
C2130 C2129 1.379 . S
H2131 C2125 0.959 . S
H2132 C2125 0.961 . S
H2133 C2125 0.960 . S
H2134 C2126 0.930 . S
H2135 C2127 0.929 . S
H2136 C2144 0.929 . S
H2137 C2146 0.930 . S
H2138 C2148 0.930 . S
H2139 C2151 0.929 . S
H2140 C2154 0.930 . S
H2141 C2156 0.960 . S
H2142 C2156 0.960 . S
H2143 C2156 0.960 . S
C2144 H2136 0.929 . S
C2144 C2145 1.377 . S
C2144 C2146 1.384 . S
C2145 C2144 1.377 . S
C2145 C2151 1.390 . S
C2146 H2137 0.930 . S
C2146 C2144 1.384 . S
C2146 C2147 1.372 . S
C2147 C2146 1.372 . S
C2147 C2148 1.400 . S
C2147 C2152 1.490 . S
C2148 H2138 0.930 . S
C2148 C2147 1.400 . S
C2148 C2151 1.386 . S
H2149 C2165 0.930 . S
H2150 C2166 0.931 . S
C2151 H2139 0.929 . S
C2151 C2145 1.390 . S
C2151 C2148 1.386 . S
C2152 C2147 1.490 . S
C2152 C2154 1.395 . S
C2152 C2155 1.403 . S
H2153 C2159 0.930 . S
C2154 H2140 0.930 . S
C2154 C2152 1.395 . S
C2154 C2157 1.403 . S
C2155 C2152 1.403 . S
C2155 C2156 1.524 . S
C2155 C2159 1.400 . S
C2156 H2141 0.960 . S
C2156 H2142 0.960 . S
C2156 H2143 0.960 . S
C2156 C2155 1.524 . S
C2157 C2154 1.403 . S
C2157 C2158 1.392 . S
C2157 C2161 1.495 . S
C2158 C2157 1.392 . S
C2158 C2159 1.385 . S
C2158 C2160 1.478 . S
C2159 H2153 0.930 . S
C2159 C2155 1.400 . S
C2159 C2158 1.385 . S
C2160 C2158 1.478 . S
C2160 C2162 1.381 . S
C2160 C2166 1.383 . S
C2161 C2157 1.495 . S
C2161 H2167 0.959 . S
C2161 H2168 0.961 . S
C2161 H2169 0.960 . S
C2162 C2160 1.381 . S
C2162 C2163 1.394 . S
C2162 H2170 0.930 . S
C2163 C2162 1.394 . S
C2163 C2164 1.383 . S
C2163 H2171 0.929 . S
C2164 C2163 1.383 . S
C2164 C2165 1.377 . S
C2165 H2149 0.930 . S
C2165 C2164 1.377 . S
C2165 C2166 1.379 . S
C2166 H2150 0.931 . S
C2166 C2160 1.383 . S
C2166 C2165 1.379 . S
H2167 C2161 0.959 . S
H2168 C2161 0.961 . S
H2169 C2161 0.960 . S
H2170 C2162 0.930 . S
H2171 C2163 0.929 . S
H2172 C2180 0.929 . S
H2173 C2182 0.930 . S
H2174 C2184 0.930 . S
H2175 C2187 0.929 . S
H2176 C2190 0.930 . S
H2177 C2192 0.960 . S
H2178 C2192 0.960 . S
H2179 C2192 0.960 . S
C2180 H2172 0.929 . S
C2180 C2181 1.377 . S
C2180 C2182 1.384 . S
C2181 C2180 1.377 . S
C2181 C2187 1.390 . S
C2182 H2173 0.930 . S
C2182 C2180 1.384 . S
C2182 C2183 1.372 . S
C2183 C2182 1.372 . S
C2183 C2184 1.400 . S
C2183 C2188 1.490 . S
C2184 H2174 0.930 . S
C2184 C2183 1.400 . S
C2184 C2187 1.386 . S
H2185 C2201 0.930 . S
H2186 C2202 0.931 . S
C2187 H2175 0.929 . S
C2187 C2181 1.390 . S
C2187 C2184 1.386 . S
C2188 C2183 1.490 . S
C2188 C2190 1.395 . S
C2188 C2191 1.403 . S
H2189 C2195 0.930 . S
C2190 H2176 0.930 . S
C2190 C2188 1.395 . S
C2190 C2193 1.403 . S
C2191 C2188 1.403 . S
C2191 C2192 1.524 . S
C2191 C2195 1.400 . S
C2192 H2177 0.960 . S
C2192 H2178 0.960 . S
C2192 H2179 0.960 . S
C2192 C2191 1.524 . S
C2193 C2190 1.403 . S
C2193 C2194 1.392 . S
C2193 C2197 1.495 . S
C2194 C2193 1.392 . S
C2194 C2195 1.385 . S
C2194 C2196 1.478 . S
C2195 H2189 0.930 . S
C2195 C2191 1.400 . S
C2195 C2194 1.385 . S
C2196 C2194 1.478 . S
C2196 C2198 1.381 . S
C2196 C2202 1.383 . S
C2197 C2193 1.495 . S
C2197 H2203 0.959 . S
C2197 H2204 0.961 . S
C2197 H2205 0.960 . S
C2198 C2196 1.381 . S
C2198 C2199 1.394 . S
C2198 H2206 0.930 . S
C2199 C2198 1.394 . S
C2199 C2200 1.383 . S
C2199 H2207 0.929 . S
C2200 C2199 1.383 . S
C2200 C2201 1.377 . S
C2201 H2185 0.930 . S
C2201 C2200 1.377 . S
C2201 C2202 1.379 . S
C2202 H2186 0.931 . S
C2202 C2196 1.383 . S
C2202 C2201 1.379 . S
H2203 C2197 0.959 . S
H2204 C2197 0.961 . S
H2205 C2197 0.960 . S
H2206 C2198 0.930 . S
H2207 C2199 0.929 . S
H2208 C2216 0.929 . S
H2209 C2218 0.930 . S
H2210 C2220 0.930 . S
H2211 C2223 0.929 . S
H2212 C2226 0.930 . S
H2213 C2228 0.960 . S
H2214 C2228 0.960 . S
H2215 C2228 0.960 . S
C2216 H2208 0.929 . S
C2216 C2217 1.377 . S
C2216 C2218 1.384 . S
C2217 C2216 1.377 . S
C2217 C2223 1.390 . S
C2218 H2209 0.930 . S
C2218 C2216 1.384 . S
C2218 C2219 1.372 . S
C2219 C2218 1.372 . S
C2219 C2220 1.400 . S
C2219 C2224 1.490 . S
C2220 H2210 0.930 . S
C2220 C2219 1.400 . S
C2220 C2223 1.386 . S
H2221 C2237 0.930 . S
H2222 C2238 0.931 . S
C2223 H2211 0.929 . S
C2223 C2217 1.390 . S
C2223 C2220 1.386 . S
C2224 C2219 1.490 . S
C2224 C2226 1.395 . S
C2224 C2227 1.403 . S
H2225 C2231 0.930 . S
C2226 H2212 0.930 . S
C2226 C2224 1.395 . S
C2226 C2229 1.403 . S
C2227 C2224 1.403 . S
C2227 C2228 1.524 . S
C2227 C2231 1.400 . S
C2228 H2213 0.960 . S
C2228 H2214 0.960 . S
C2228 H2215 0.960 . S
C2228 C2227 1.524 . S
C2229 C2226 1.403 . S
C2229 C2230 1.392 . S
C2229 C2233 1.495 . S
C2230 C2229 1.392 . S
C2230 C2231 1.385 . S
C2230 C2232 1.478 . S
C2231 H2225 0.930 . S
C2231 C2227 1.400 . S
C2231 C2230 1.385 . S
C2232 C2230 1.478 . S
C2232 C2234 1.381 . S
C2232 C2238 1.383 . S
C2233 C2229 1.495 . S
C2233 H2239 0.959 . S
C2233 H2240 0.961 . S
C2233 H2241 0.960 . S
C2234 C2232 1.381 . S
C2234 C2235 1.394 . S
C2234 H2242 0.930 . S
C2235 C2234 1.394 . S
C2235 C2236 1.383 . S
C2235 H2243 0.929 . S
C2236 C2235 1.383 . S
C2236 C2237 1.377 . S
C2237 H2221 0.930 . S
C2237 C2236 1.377 . S
C2237 C2238 1.379 . S
C2238 H2222 0.931 . S
C2238 C2232 1.383 . S
C2238 C2237 1.379 . S
H2239 C2233 0.959 . S
H2240 C2233 0.961 . S
H2241 C2233 0.960 . S
H2242 C2234 0.930 . S
H2243 C2235 0.929 . S
H2244 C2252 0.929 . S
H2245 C2254 0.930 . S
H2246 C2256 0.930 . S
H2247 C2259 0.929 . S
H2248 C2262 0.930 . S
H2249 C2264 0.960 . S
H2250 C2264 0.960 . S
H2251 C2264 0.960 . S
C2252 H2244 0.929 . S
C2252 C2253 1.377 . S
C2252 C2254 1.384 . S
C2253 C2252 1.377 . S
C2253 C2259 1.390 . S
C2254 H2245 0.930 . S
C2254 C2252 1.384 . S
C2254 C2255 1.372 . S
C2255 C2254 1.372 . S
C2255 C2256 1.400 . S
C2255 C2260 1.490 . S
C2256 H2246 0.930 . S
C2256 C2255 1.400 . S
C2256 C2259 1.386 . S
H2257 C2273 0.930 . S
H2258 C2274 0.931 . S
C2259 H2247 0.929 . S
C2259 C2253 1.390 . S
C2259 C2256 1.386 . S
C2260 C2255 1.490 . S
C2260 C2262 1.395 . S
C2260 C2263 1.403 . S
H2261 C2267 0.930 . S
C2262 H2248 0.930 . S
C2262 C2260 1.395 . S
C2262 C2265 1.403 . S
C2263 C2260 1.403 . S
C2263 C2264 1.524 . S
C2263 C2267 1.400 . S
C2264 H2249 0.960 . S
C2264 H2250 0.960 . S
C2264 H2251 0.960 . S
C2264 C2263 1.524 . S
C2265 C2262 1.403 . S
C2265 C2266 1.392 . S
C2265 C2269 1.495 . S
C2266 C2265 1.392 . S
C2266 C2267 1.385 . S
C2266 C2268 1.478 . S
C2267 H2261 0.930 . S
C2267 C2263 1.400 . S
C2267 C2266 1.385 . S
C2268 C2266 1.478 . S
C2268 C2270 1.381 . S
C2268 C2274 1.383 . S
C2269 C2265 1.495 . S
C2269 H2275 0.959 . S
C2269 H2276 0.961 . S
C2269 H2277 0.960 . S
C2270 C2268 1.381 . S
C2270 C2271 1.394 . S
C2270 H2278 0.930 . S
C2271 C2270 1.394 . S
C2271 C2272 1.383 . S
C2271 H2279 0.929 . S
C2272 C2271 1.383 . S
C2272 C2273 1.377 . S
C2273 H2257 0.930 . S
C2273 C2272 1.377 . S
C2273 C2274 1.379 . S
C2274 H2258 0.931 . S
C2274 C2268 1.383 . S
C2274 C2273 1.379 . S
H2275 C2269 0.959 . S
H2276 C2269 0.961 . S
H2277 C2269 0.960 . S
H2278 C2270 0.930 . S
H2279 C2271 0.929 . S
H2280 C2288 0.929 . S
H2281 C2290 0.930 . S
H2282 C2292 0.930 . S
H2283 C2295 0.929 . S
H2284 C2298 0.930 . S
H2285 C2300 0.960 . S
H2286 C2300 0.960 . S
H2287 C2300 0.960 . S
C2288 H2280 0.929 . S
C2288 C2289 1.377 . S
C2288 C2290 1.384 . S
C2289 C2288 1.377 . S
C2289 C2295 1.390 . S
C2290 H2281 0.930 . S
C2290 C2288 1.384 . S
C2290 C2291 1.372 . S
C2291 C2290 1.372 . S
C2291 C2292 1.400 . S
C2291 C2296 1.490 . S
C2292 H2282 0.930 . S
C2292 C2291 1.400 . S
C2292 C2295 1.386 . S
H2293 C2309 0.930 . S
H2294 C2310 0.931 . S
C2295 H2283 0.929 . S
C2295 C2289 1.390 . S
C2295 C2292 1.386 . S
C2296 C2291 1.490 . S
C2296 C2298 1.395 . S
C2296 C2299 1.403 . S
H2297 C2303 0.930 . S
C2298 H2284 0.930 . S
C2298 C2296 1.395 . S
C2298 C2301 1.403 . S
C2299 C2296 1.403 . S
C2299 C2300 1.524 . S
C2299 C2303 1.400 . S
C2300 H2285 0.960 . S
C2300 H2286 0.960 . S
C2300 H2287 0.960 . S
C2300 C2299 1.524 . S
C2301 C2298 1.403 . S
C2301 C2302 1.392 . S
C2301 C2305 1.495 . S
C2302 C2301 1.392 . S
C2302 C2303 1.385 . S
C2302 C2304 1.478 . S
C2303 H2297 0.930 . S
C2303 C2299 1.400 . S
C2303 C2302 1.385 . S
C2304 C2302 1.478 . S
C2304 C2306 1.381 . S
C2304 C2310 1.383 . S
C2305 C2301 1.495 . S
C2305 H2311 0.959 . S
C2305 H2312 0.961 . S
C2305 H2313 0.960 . S
C2306 C2304 1.381 . S
C2306 C2307 1.394 . S
C2306 H2314 0.930 . S
C2307 C2306 1.394 . S
C2307 C2308 1.383 . S
C2307 H2315 0.929 . S
C2308 C2307 1.383 . S
C2308 C2309 1.377 . S
C2309 H2293 0.930 . S
C2309 C2308 1.377 . S
C2309 C2310 1.379 . S
C2310 H2294 0.931 . S
C2310 C2304 1.383 . S
C2310 C2309 1.379 . S
H2311 C2305 0.959 . S
H2312 C2305 0.961 . S
H2313 C2305 0.960 . S
H2314 C2306 0.930 . S
H2315 C2307 0.929 . S
H2316 C2324 0.929 . S
H2317 C2326 0.930 . S
H2318 C2328 0.930 . S
H2319 C2331 0.929 . S
H2320 C2334 0.930 . S
H2321 C2336 0.960 . S
H2322 C2336 0.960 . S
H2323 C2336 0.960 . S
C2324 H2316 0.929 . S
C2324 C2325 1.377 . S
C2324 C2326 1.384 . S
C2325 C2324 1.377 . S
C2325 C2331 1.390 . S
C2326 H2317 0.930 . S
C2326 C2324 1.384 . S
C2326 C2327 1.372 . S
C2327 C2326 1.372 . S
C2327 C2328 1.400 . S
C2327 C2332 1.490 . S
C2328 H2318 0.930 . S
C2328 C2327 1.400 . S
C2328 C2331 1.386 . S
H2329 C2345 0.930 . S
H2330 C2346 0.931 . S
C2331 H2319 0.929 . S
C2331 C2325 1.390 . S
C2331 C2328 1.386 . S
C2332 C2327 1.490 . S
C2332 C2334 1.395 . S
C2332 C2335 1.403 . S
H2333 C2339 0.930 . S
C2334 H2320 0.930 . S
C2334 C2332 1.395 . S
C2334 C2337 1.403 . S
C2335 C2332 1.403 . S
C2335 C2336 1.524 . S
C2335 C2339 1.400 . S
C2336 H2321 0.960 . S
C2336 H2322 0.960 . S
C2336 H2323 0.960 . S
C2336 C2335 1.524 . S
C2337 C2334 1.403 . S
C2337 C2338 1.392 . S
C2337 C2341 1.495 . S
C2338 C2337 1.392 . S
C2338 C2339 1.385 . S
C2338 C2340 1.478 . S
C2339 H2333 0.930 . S
C2339 C2335 1.400 . S
C2339 C2338 1.385 . S
C2340 C2338 1.478 . S
C2340 C2342 1.381 . S
C2340 C2346 1.383 . S
C2341 C2337 1.495 . S
C2341 H2347 0.959 . S
C2341 H2348 0.961 . S
C2341 H2349 0.960 . S
C2342 C2340 1.381 . S
C2342 C2343 1.394 . S
C2342 H2350 0.930 . S
C2343 C2342 1.394 . S
C2343 C2344 1.383 . S
C2343 H2351 0.929 . S
C2344 C2343 1.383 . S
C2344 C2345 1.377 . S
C2345 H2329 0.930 . S
C2345 C2344 1.377 . S
C2345 C2346 1.379 . S
C2346 H2330 0.931 . S
C2346 C2340 1.383 . S
C2346 C2345 1.379 . S
H2347 C2341 0.959 . S
H2348 C2341 0.961 . S
H2349 C2341 0.960 . S
H2350 C2342 0.930 . S
H2351 C2343 0.929 . S
H2352 C2360 0.929 . S
H2353 C2362 0.930 . S
H2354 C2364 0.930 . S
H2355 C2367 0.929 . S
H2356 C2370 0.930 . S
H2357 C2372 0.960 . S
H2358 C2372 0.960 . S
H2359 C2372 0.960 . S
C2360 H2352 0.929 . S
C2360 C2361 1.377 . S
C2360 C2362 1.384 . S
C2361 C2360 1.377 . S
C2361 C2367 1.390 . S
C2362 H2353 0.930 . S
C2362 C2360 1.384 . S
C2362 C2363 1.372 . S
C2363 C2362 1.372 . S
C2363 C2364 1.400 . S
C2363 C2368 1.490 . S
C2364 H2354 0.930 . S
C2364 C2363 1.400 . S
C2364 C2367 1.386 . S
H2365 C2381 0.930 . S
H2366 C2382 0.931 . S
C2367 H2355 0.929 . S
C2367 C2361 1.390 . S
C2367 C2364 1.386 . S
C2368 C2363 1.490 . S
C2368 C2370 1.395 . S
C2368 C2371 1.403 . S
H2369 C2375 0.930 . S
C2370 H2356 0.930 . S
C2370 C2368 1.395 . S
C2370 C2373 1.403 . S
C2371 C2368 1.403 . S
C2371 C2372 1.524 . S
C2371 C2375 1.400 . S
C2372 H2357 0.960 . S
C2372 H2358 0.960 . S
C2372 H2359 0.960 . S
C2372 C2371 1.524 . S
C2373 C2370 1.403 . S
C2373 C2374 1.392 . S
C2373 C2377 1.495 . S
C2374 C2373 1.392 . S
C2374 C2375 1.385 . S
C2374 C2376 1.478 . S
C2375 H2369 0.930 . S
C2375 C2371 1.400 . S
C2375 C2374 1.385 . S
C2376 C2374 1.478 . S
C2376 C2378 1.381 . S
C2376 C2382 1.383 . S
C2377 C2373 1.495 . S
C2377 H2383 0.959 . S
C2377 H2384 0.961 . S
C2377 H2385 0.960 . S
C2378 C2376 1.381 . S
C2378 C2379 1.394 . S
C2378 H2386 0.930 . S
C2379 C2378 1.394 . S
C2379 C2380 1.383 . S
C2379 H2387 0.929 . S
C2380 C2379 1.383 . S
C2380 C2381 1.377 . S
C2381 H2365 0.930 . S
C2381 C2380 1.377 . S
C2381 C2382 1.379 . S
C2382 H2366 0.931 . S
C2382 C2376 1.383 . S
C2382 C2381 1.379 . S
H2383 C2377 0.959 . S
H2384 C2377 0.961 . S
H2385 C2377 0.960 . S
H2386 C2378 0.930 . S
H2387 C2379 0.929 . S
H2388 C2396 0.929 . S
H2389 C2398 0.930 . S
H2390 C2400 0.930 . S
H2391 C2403 0.929 . S
H2392 C2406 0.930 . S
H2393 C2408 0.960 . S
H2394 C2408 0.960 . S
H2395 C2408 0.960 . S
C2396 H2388 0.929 . S
C2396 C2397 1.377 . S
C2396 C2398 1.384 . S
C2397 C2396 1.377 . S
C2397 C2403 1.390 . S
C2398 H2389 0.930 . S
C2398 C2396 1.384 . S
C2398 C2399 1.372 . S
C2399 C2398 1.372 . S
C2399 C2400 1.400 . S
C2399 C2404 1.490 . S
C2400 H2390 0.930 . S
C2400 C2399 1.400 . S
C2400 C2403 1.386 . S
H2401 C2417 0.930 . S
H2402 C2418 0.931 . S
C2403 H2391 0.929 . S
C2403 C2397 1.390 . S
C2403 C2400 1.386 . S
C2404 C2399 1.490 . S
C2404 C2406 1.395 . S
C2404 C2407 1.403 . S
H2405 C2411 0.930 . S
C2406 H2392 0.930 . S
C2406 C2404 1.395 . S
C2406 C2409 1.403 . S
C2407 C2404 1.403 . S
C2407 C2408 1.524 . S
C2407 C2411 1.400 . S
C2408 H2393 0.960 . S
C2408 H2394 0.960 . S
C2408 H2395 0.960 . S
C2408 C2407 1.524 . S
C2409 C2406 1.403 . S
C2409 C2410 1.392 . S
C2409 C2413 1.495 . S
C2410 C2409 1.392 . S
C2410 C2411 1.385 . S
C2410 C2412 1.478 . S
C2411 H2405 0.930 . S
C2411 C2407 1.400 . S
C2411 C2410 1.385 . S
C2412 C2410 1.478 . S
C2412 C2414 1.381 . S
C2412 C2418 1.383 . S
C2413 C2409 1.495 . S
C2413 H2419 0.959 . S
C2413 H2420 0.961 . S
C2413 H2421 0.960 . S
C2414 C2412 1.381 . S
C2414 C2415 1.394 . S
C2414 H2422 0.930 . S
C2415 C2414 1.394 . S
C2415 C2416 1.383 . S
C2415 H2423 0.929 . S
C2416 C2415 1.383 . S
C2416 C2417 1.377 . S
C2417 H2401 0.930 . S
C2417 C2416 1.377 . S
C2417 C2418 1.379 . S
C2418 H2402 0.931 . S
C2418 C2412 1.383 . S
C2418 C2417 1.379 . S
H2419 C2413 0.959 . S
H2420 C2413 0.961 . S
H2421 C2413 0.960 . S
H2422 C2414 0.930 . S
H2423 C2415 0.929 . S
H2424 C2432 0.929 . S
H2425 C2434 0.930 . S
H2426 C2436 0.930 . S
H2427 C2439 0.929 . S
H2428 C2442 0.930 . S
H2429 C2444 0.960 . S
H2430 C2444 0.960 . S
H2431 C2444 0.960 . S
C2432 H2424 0.929 . S
C2432 C2433 1.377 . S
C2432 C2434 1.384 . S
C2433 C2432 1.377 . S
C2433 C2439 1.390 . S
C2434 H2425 0.930 . S
C2434 C2432 1.384 . S
C2434 C2435 1.372 . S
C2435 C2434 1.372 . S
C2435 C2436 1.400 . S
C2435 C2440 1.490 . S
C2436 H2426 0.930 . S
C2436 C2435 1.400 . S
C2436 C2439 1.386 . S
H2437 C2453 0.930 . S
H2438 C2454 0.931 . S
C2439 H2427 0.929 . S
C2439 C2433 1.390 . S
C2439 C2436 1.386 . S
C2440 C2435 1.490 . S
C2440 C2442 1.395 . S
C2440 C2443 1.403 . S
H2441 C2447 0.930 . S
C2442 H2428 0.930 . S
C2442 C2440 1.395 . S
C2442 C2445 1.403 . S
C2443 C2440 1.403 . S
C2443 C2444 1.524 . S
C2443 C2447 1.400 . S
C2444 H2429 0.960 . S
C2444 H2430 0.960 . S
C2444 H2431 0.960 . S
C2444 C2443 1.524 . S
C2445 C2442 1.403 . S
C2445 C2446 1.392 . S
C2445 C2449 1.495 . S
C2446 C2445 1.392 . S
C2446 C2447 1.385 . S
C2446 C2448 1.478 . S
C2447 H2441 0.930 . S
C2447 C2443 1.400 . S
C2447 C2446 1.385 . S
C2448 C2446 1.478 . S
C2448 C2450 1.381 . S
C2448 C2454 1.383 . S
C2449 C2445 1.495 . S
C2449 H2455 0.959 . S
C2449 H2456 0.961 . S
C2449 H2457 0.960 . S
C2450 C2448 1.381 . S
C2450 C2451 1.394 . S
C2450 H2458 0.930 . S
C2451 C2450 1.394 . S
C2451 C2452 1.383 . S
C2451 H2459 0.990 . S
C2452 C2451 1.383 . S
C2452 C2453 1.377 . S
C2453 H2437 0.930 . S
C2453 C2452 1.377 . S
C2453 C2454 1.379 . S
C2454 H2438 0.931 . S
C2454 C2448 1.383 . S
C2454 C2453 1.379 . S
H2455 C2449 0.959 . S
H2456 C2449 0.961 . S
H2457 C2449 0.960 . S
H2458 C2450 0.930 . S
H2459 C2451 0.990 . S
H2460 C2468 0.929 . S
H2461 C2470 0.930 . S
H2462 C2472 0.930 . S
H2463 C2475 0.929 . S
H2464 C2478 0.930 . S
H2465 C2480 0.960 . S
H2466 C2480 0.960 . S
H2467 C2480 0.960 . S
C2468 H2460 0.929 . S
C2468 C2469 1.377 . S
C2468 C2470 1.384 . S
C2469 C2468 1.377 . S
C2469 C2475 1.390 . S
C2470 H2461 0.930 . S
C2470 C2468 1.384 . S
C2470 C2471 1.372 . S
C2471 C2470 1.372 . S
C2471 C2472 1.400 . S
C2471 C2476 1.490 . S
C2472 H2462 0.930 . S
C2472 C2471 1.400 . S
C2472 C2475 1.386 . S
H2473 C2489 0.930 . S
H2474 C2490 0.931 . S
C2475 H2463 0.929 . S
C2475 C2469 1.390 . S
C2475 C2472 1.386 . S
C2476 C2471 1.490 . S
C2476 C2478 1.395 . S
C2476 C2479 1.403 . S
H2477 C2483 0.930 . S
C2478 H2464 0.930 . S
C2478 C2476 1.395 . S
C2478 C2481 1.403 . S
C2479 C2476 1.403 . S
C2479 C2480 1.524 . S
C2479 C2483 1.400 . S
C2480 H2465 0.960 . S
C2480 H2466 0.960 . S
C2480 H2467 0.960 . S
C2480 C2479 1.524 . S
C2481 C2478 1.403 . S
C2481 C2482 1.392 . S
C2481 C2485 1.495 . S
C2482 C2481 1.392 . S
C2482 C2483 1.385 . S
C2482 C2484 1.478 . S
C2483 H2477 0.930 . S
C2483 C2479 1.400 . S
C2483 C2482 1.385 . S
C2484 C2482 1.478 . S
C2484 C2486 1.381 . S
C2484 C2490 1.383 . S
C2485 C2481 1.495 . S
C2485 H2491 0.959 . S
C2485 H2492 0.961 . S
C2485 H2493 0.960 . S
C2486 C2484 1.381 . S
C2486 C2487 1.394 . S
C2486 H2494 0.930 . S
C2487 C2486 1.394 . S
C2487 C2488 1.383 . S
C2487 H2495 0.929 . S
C2488 C2487 1.383 . S
C2488 C2489 1.377 . S
C2489 H2473 0.930 . S
C2489 C2488 1.377 . S
C2489 C2490 1.379 . S
C2490 H2474 0.931 . S
C2490 C2484 1.383 . S
C2490 C2489 1.379 . S
H2491 C2485 0.959 . S
H2492 C2485 0.961 . S
H2493 C2485 0.960 . S
H2494 C2486 0.930 . S
H2495 C2487 0.929 . S
H2496 C2504 0.929 . S
H2497 C2506 0.930 . S
H2498 C2508 0.930 . S
H2499 C2511 0.929 . S
H2500 C2514 0.930 . S
H2501 C2516 0.960 . S
H2502 C2516 0.960 . S
H2503 C2516 0.960 . S
C2504 H2496 0.929 . S
C2504 C2505 1.377 . S
C2504 C2506 1.384 . S
C2505 C2504 1.377 . S
C2505 C2511 1.390 . S
C2506 H2497 0.930 . S
C2506 C2504 1.384 . S
C2506 C2507 1.372 . S
C2507 C2506 1.372 . S
C2507 C2508 1.400 . S
C2507 C2512 1.490 . S
C2508 H2498 0.930 . S
C2508 C2507 1.400 . S
C2508 C2511 1.386 . S
H2509 C2525 0.930 . S
H2510 C2526 0.931 . S
C2511 H2499 0.929 . S
C2511 C2505 1.390 . S
C2511 C2508 1.386 . S
C2512 C2507 1.490 . S
C2512 C2514 1.395 . S
C2512 C2515 1.403 . S
H2513 C2519 0.930 . S
C2514 H2500 0.930 . S
C2514 C2512 1.395 . S
C2514 C2517 1.403 . S
C2515 C2512 1.403 . S
C2515 C2516 1.524 . S
C2515 C2519 1.400 . S
C2516 H2501 0.960 . S
C2516 H2502 0.960 . S
C2516 H2503 0.960 . S
C2516 C2515 1.524 . S
C2517 C2514 1.403 . S
C2517 C2518 1.392 . S
C2517 C2521 1.495 . S
C2518 C2517 1.392 . S
C2518 C2519 1.385 . S
C2518 C2520 1.478 . S
C2519 H2513 0.930 . S
C2519 C2515 1.400 . S
C2519 C2518 1.385 . S
C2520 C2518 1.478 . S
C2520 C2522 1.381 . S
C2520 C2526 1.383 . S
C2521 C2517 1.495 . S
C2521 H2527 0.959 . S
C2521 H2528 0.961 . S
C2521 H2529 0.960 . S
C2522 C2520 1.381 . S
C2522 C2523 1.394 . S
C2522 H2530 0.930 . S
C2523 C2522 1.394 . S
C2523 C2524 1.383 . S
C2523 H2531 0.929 . S
C2524 C2523 1.383 . S
C2524 C2525 1.377 . S
C2525 H2509 0.930 . S
C2525 C2524 1.377 . S
C2525 C2526 1.379 . S
C2526 H2510 0.931 . S
C2526 C2520 1.383 . S
C2526 C2525 1.379 . S
H2527 C2521 0.959 . S
H2528 C2521 0.961 . S
H2529 C2521 0.960 . S
H2530 C2522 0.930 . S
H2531 C2523 0.929 . S
H2532 C2540 0.929 . S
H2533 C2542 0.930 . S
H2534 C2544 0.930 . S
H2535 C2547 0.929 . S
H2536 C2550 0.930 . S
H2537 C2552 0.960 . S
H2538 C2552 0.960 . S
H2539 C2552 0.960 . S
C2540 H2532 0.929 . S
C2540 C2541 1.377 . S
C2540 C2542 1.384 . S
C2541 C2540 1.377 . S
C2541 C2547 1.390 . S
C2542 H2533 0.930 . S
C2542 C2540 1.384 . S
C2542 C2543 1.372 . S
C2543 C2542 1.372 . S
C2543 C2544 1.400 . S
C2543 C2548 1.490 . S
C2544 H2534 0.930 . S
C2544 C2543 1.400 . S
C2544 C2547 1.386 . S
H2545 C2561 0.930 . S
H2546 C2562 0.931 . S
C2547 H2535 0.929 . S
C2547 C2541 1.390 . S
C2547 C2544 1.386 . S
C2548 C2543 1.490 . S
C2548 C2550 1.395 . S
C2548 C2551 1.403 . S
H2549 C2555 0.930 . S
C2550 H2536 0.930 . S
C2550 C2548 1.395 . S
C2550 C2553 1.403 . S
C2551 C2548 1.403 . S
C2551 C2552 1.524 . S
C2551 C2555 1.400 . S
C2552 H2537 0.960 . S
C2552 H2538 0.960 . S
C2552 H2539 0.960 . S
C2552 C2551 1.524 . S
C2553 C2550 1.403 . S
C2553 C2554 1.392 . S
C2553 C2557 1.495 . S
C2554 C2553 1.392 . S
C2554 C2555 1.385 . S
C2554 C2556 1.478 . S
C2555 H2549 0.930 . S
C2555 C2551 1.400 . S
C2555 C2554 1.385 . S
C2556 C2554 1.478 . S
C2556 C2558 1.381 . S
C2556 C2562 1.383 . S
C2557 C2553 1.495 . S
C2557 H2563 0.959 . S
C2557 H2564 0.961 . S
C2557 H2565 0.960 . S
C2558 C2556 1.381 . S
C2558 C2559 1.394 . S
C2558 H2566 0.930 . S
C2559 C2558 1.394 . S
C2559 C2560 1.383 . S
C2559 H2567 0.929 . S
C2560 C2559 1.383 . S
C2560 C2561 1.377 . S
C2561 H2545 0.930 . S
C2561 C2560 1.377 . S
C2561 C2562 1.379 . S
C2562 H2546 0.931 . S
C2562 C2556 1.383 . S
C2562 C2561 1.379 . S
H2563 C2557 0.959 . S
H2564 C2557 0.961 . S
H2565 C2557 0.960 . S
H2566 C2558 0.930 . S
H2567 C2559 0.929 . S
H2568 C2576 0.929 . S
H2569 C2578 0.930 . S
H2570 C2580 0.930 . S
H2571 C2583 0.929 . S
H2572 C2586 0.930 . S
H2573 C2588 0.960 . S
H2574 C2588 0.960 . S
H2575 C2588 0.960 . S
C2576 H2568 0.929 . S
C2576 C2577 1.377 . S
C2576 C2578 1.384 . S
C2577 C2576 1.377 . S
C2577 C2583 1.390 . S
C2578 H2569 0.930 . S
C2578 C2576 1.384 . S
C2578 C2579 1.372 . S
C2579 C2578 1.372 . S
C2579 C2580 1.400 . S
C2579 C2584 1.490 . S
C2580 H2570 0.930 . S
C2580 C2579 1.400 . S
C2580 C2583 1.386 . S
H2581 C2597 0.930 . S
H2582 C2598 0.931 . S
C2583 H2571 0.929 . S
C2583 C2577 1.390 . S
C2583 C2580 1.386 . S
C2584 C2579 1.490 . S
C2584 C2586 1.395 . S
C2584 C2587 1.403 . S
H2585 C2591 0.930 . S
C2586 H2572 0.930 . S
C2586 C2584 1.395 . S
C2586 C2589 1.403 . S
C2587 C2584 1.403 . S
C2587 C2588 1.524 . S
C2587 C2591 1.400 . S
C2588 H2573 0.960 . S
C2588 H2574 0.960 . S
C2588 H2575 0.960 . S
C2588 C2587 1.524 . S
C2589 C2586 1.403 . S
C2589 C2590 1.392 . S
C2589 C2593 1.495 . S
C2590 C2589 1.392 . S
C2590 C2591 1.385 . S
C2590 C2592 1.478 . S
C2591 H2585 0.930 . S
C2591 C2587 1.400 . S
C2591 C2590 1.385 . S
C2592 C2590 1.478 . S
C2592 C2594 1.381 . S
C2592 C2598 1.383 . S
C2593 C2589 1.495 . S
C2593 H2599 0.959 . S
C2593 H2600 0.961 . S
C2593 H2601 0.960 . S
C2594 C2592 1.381 . S
C2594 C2595 1.394 . S
C2594 H2602 0.930 . S
C2595 C2594 1.394 . S
C2595 C2596 1.383 . S
C2595 H2603 0.929 . S
C2596 C2595 1.383 . S
C2596 C2597 1.377 . S
C2597 H2581 0.930 . S
C2597 C2596 1.377 . S
C2597 C2598 1.379 . S
C2598 H2582 0.931 . S
C2598 C2592 1.383 . S
C2598 C2597 1.379 . S
H2599 C2593 0.959 . S
H2600 C2593 0.961 . S
H2601 C2593 0.960 . S
H2602 C2594 0.930 . S
H2603 C2595 0.929 . S
H2604 C2612 0.929 . S
H2605 C2614 0.930 . S
H2606 C2616 0.930 . S
H2607 C2619 0.929 . S
H2608 C2622 0.930 . S
H2609 C2624 0.960 . S
H2610 C2624 0.960 . S
H2611 C2624 0.960 . S
C2612 H2604 0.929 . S
C2612 C2613 1.377 . S
C2612 C2614 1.384 . S
C2613 C2612 1.377 . S
C2613 C2619 1.390 . S
C2614 H2605 0.930 . S
C2614 C2612 1.384 . S
C2614 C2615 1.372 . S
C2615 C2614 1.372 . S
C2615 C2616 1.400 . S
C2615 C2620 1.490 . S
C2616 H2606 0.930 . S
C2616 C2615 1.400 . S
C2616 C2619 1.386 . S
H2617 C2633 0.930 . S
H2618 C2634 0.931 . S
C2619 H2607 0.929 . S
C2619 C2613 1.390 . S
C2619 C2616 1.386 . S
C2620 C2615 1.490 . S
C2620 C2622 1.395 . S
C2620 C2623 1.403 . S
H2621 C2627 0.930 . S
C2622 H2608 0.930 . S
C2622 C2620 1.395 . S
C2622 C2625 1.403 . S
C2623 C2620 1.403 . S
C2623 C2624 1.524 . S
C2623 C2627 1.400 . S
C2624 H2609 0.960 . S
C2624 H2610 0.960 . S
C2624 H2611 0.960 . S
C2624 C2623 1.524 . S
C2625 C2622 1.403 . S
C2625 C2626 1.392 . S
C2625 C2629 1.495 . S
C2626 C2625 1.392 . S
C2626 C2627 1.385 . S
C2626 C2628 1.478 . S
C2627 H2621 0.930 . S
C2627 C2623 1.400 . S
C2627 C2626 1.385 . S
C2628 C2626 1.478 . S
C2628 C2630 1.381 . S
C2628 C2634 1.383 . S
C2629 C2625 1.495 . S
C2629 H2635 0.959 . S
C2629 H2636 0.961 . S
C2629 H2637 0.960 . S
C2630 C2628 1.381 . S
C2630 C2631 1.394 . S
C2630 H2638 0.930 . S
C2631 C2630 1.394 . S
C2631 C2632 1.383 . S
C2631 H2639 0.929 . S
C2632 C2631 1.383 . S
C2632 C2633 1.377 . S
C2633 H2617 0.930 . S
C2633 C2632 1.377 . S
C2633 C2634 1.379 . S
C2634 H2618 0.931 . S
C2634 C2628 1.383 . S
C2634 C2633 1.379 . S
H2635 C2629 0.959 . S
H2636 C2629 0.961 . S
H2637 C2629 0.960 . S
H2638 C2630 0.930 . S
H2639 C2631 0.929 . S
H2640 C2648 0.929 . S
H2641 C2650 0.930 . S
H2642 C2652 0.930 . S
H2643 C2655 0.929 . S
H2644 C2658 0.930 . S
H2645 C2660 0.960 . S
H2646 C2660 0.960 . S
H2647 C2660 0.960 . S
C2648 H2640 0.929 . S
C2648 C2649 1.377 . S
C2648 C2650 1.384 . S
C2649 C2648 1.377 . S
C2649 C2655 1.390 . S
C2650 H2641 0.930 . S
C2650 C2648 1.384 . S
C2650 C2651 1.372 . S
C2651 C2650 1.372 . S
C2651 C2652 1.400 . S
C2651 C2656 1.490 . S
C2652 H2642 0.930 . S
C2652 C2651 1.400 . S
C2652 C2655 1.386 . S
H2653 C2669 0.930 . S
H2654 C2670 0.931 . S
C2655 H2643 0.929 . S
C2655 C2649 1.390 . S
C2655 C2652 1.386 . S
C2656 C2651 1.490 . S
C2656 C2658 1.395 . S
C2656 C2659 1.403 . S
H2657 C2663 0.930 . S
C2658 H2644 0.930 . S
C2658 C2656 1.395 . S
C2658 C2661 1.403 . S
C2659 C2656 1.403 . S
C2659 C2660 1.524 . S
C2659 C2663 1.400 . S
C2660 H2645 0.960 . S
C2660 H2646 0.960 . S
C2660 H2647 0.960 . S
C2660 C2659 1.524 . S
C2661 C2658 1.403 . S
C2661 C2662 1.392 . S
C2661 C2665 1.495 . S
C2662 C2661 1.392 . S
C2662 C2663 1.385 . S
C2662 C2664 1.478 . S
C2663 H2657 0.930 . S
C2663 C2659 1.400 . S
C2663 C2662 1.385 . S
C2664 C2662 1.478 . S
C2664 C2666 1.381 . S
C2664 C2670 1.383 . S
C2665 C2661 1.495 . S
C2665 H2671 0.959 . S
C2665 H2672 0.961 . S
C2665 H2673 0.960 . S
C2666 C2664 1.381 . S
C2666 C2667 1.394 . S
C2666 H2674 0.930 . S
C2667 C2666 1.394 . S
C2667 C2668 1.383 . S
C2667 H2675 0.990 . S
C2668 C2667 1.383 . S
C2668 C2669 1.377 . S
C2669 H2653 0.930 . S
C2669 C2668 1.377 . S
C2669 C2670 1.379 . S
C2670 H2654 0.931 . S
C2670 C2664 1.383 . S
C2670 C2669 1.379 . S
H2671 C2665 0.959 . S
H2672 C2665 0.961 . S
H2673 C2665 0.960 . S
H2674 C2666 0.930 . S
H2675 C2667 0.990 . S
H2676 C2684 0.929 . S
H2677 C2686 0.930 . S
H2678 C2688 0.930 . S
H2679 C2691 0.929 . S
H2680 C2694 0.930 . S
H2681 C2696 0.960 . S
H2682 C2696 0.960 . S
H2683 C2696 0.960 . S
C2684 H2676 0.929 . S
C2684 C2685 1.377 . S
C2684 C2686 1.384 . S
C2685 C2684 1.377 . S
C2685 C2691 1.390 . S
C2686 H2677 0.930 . S
C2686 C2684 1.384 . S
C2686 C2687 1.372 . S
C2687 C2686 1.372 . S
C2687 C2688 1.400 . S
C2687 C2692 1.490 . S
C2688 H2678 0.930 . S
C2688 C2687 1.400 . S
C2688 C2691 1.386 . S
H2689 C2705 0.930 . S
H2690 C2706 0.931 . S
C2691 H2679 0.929 . S
C2691 C2685 1.390 . S
C2691 C2688 1.386 . S
C2692 C2687 1.490 . S
C2692 C2694 1.395 . S
C2692 C2695 1.403 . S
H2693 C2699 0.930 . S
C2694 H2680 0.930 . S
C2694 C2692 1.395 . S
C2694 C2697 1.403 . S
C2695 C2692 1.403 . S
C2695 C2696 1.524 . S
C2695 C2699 1.400 . S
C2696 H2681 0.960 . S
C2696 H2682 0.960 . S
C2696 H2683 0.960 . S
C2696 C2695 1.524 . S
C2697 C2694 1.403 . S
C2697 C2698 1.392 . S
C2697 C2701 1.495 . S
C2698 C2697 1.392 . S
C2698 C2699 1.385 . S
C2698 C2700 1.478 . S
C2699 H2693 0.930 . S
C2699 C2695 1.400 . S
C2699 C2698 1.385 . S
C2700 C2698 1.478 . S
C2700 C2702 1.381 . S
C2700 C2706 1.383 . S
C2701 C2697 1.495 . S
C2701 H2707 0.959 . S
C2701 H2708 0.961 . S
C2701 H2709 0.960 . S
C2702 C2700 1.381 . S
C2702 C2703 1.394 . S
C2702 H2710 0.930 . S
C2703 C2702 1.394 . S
C2703 C2704 1.383 . S
C2703 H2711 0.929 . S
C2704 C2703 1.383 . S
C2704 C2705 1.377 . S
C2705 H2689 0.930 . S
C2705 C2704 1.377 . S
C2705 C2706 1.379 . S
C2706 H2690 0.931 . S
C2706 C2700 1.383 . S
C2706 C2705 1.379 . S
H2707 C2701 0.959 . S
H2708 C2701 0.961 . S
H2709 C2701 0.960 . S
H2710 C2702 0.930 . S
H2711 C2703 0.929 . S
H2712 C2720 0.929 . S
H2713 C2722 0.930 . S
H2714 C2724 0.930 . S
H2715 C2727 0.929 . S
H2716 C2730 0.930 . S
H2717 C2732 0.960 . S
H2718 C2732 0.960 . S
H2719 C2732 0.960 . S
C2720 H2712 0.929 . S
C2720 C2721 1.377 . S
C2720 C2722 1.384 . S
C2721 C2720 1.377 . S
C2721 C2727 1.390 . S
C2722 H2713 0.930 . S
C2722 C2720 1.384 . S
C2722 C2723 1.372 . S
C2723 C2722 1.372 . S
C2723 C2724 1.400 . S
C2723 C2728 1.490 . S
C2724 H2714 0.930 . S
C2724 C2723 1.400 . S
C2724 C2727 1.386 . S
H2725 C2741 0.930 . S
H2726 C2742 0.931 . S
C2727 H2715 0.929 . S
C2727 C2721 1.390 . S
C2727 C2724 1.386 . S
C2728 C2723 1.490 . S
C2728 C2730 1.395 . S
C2728 C2731 1.403 . S
H2729 C2735 0.930 . S
C2730 H2716 0.930 . S
C2730 C2728 1.395 . S
C2730 C2733 1.403 . S
C2731 C2728 1.403 . S
C2731 C2732 1.524 . S
C2731 C2735 1.400 . S
C2732 H2717 0.960 . S
C2732 H2718 0.960 . S
C2732 H2719 0.960 . S
C2732 C2731 1.524 . S
C2733 C2730 1.403 . S
C2733 C2734 1.392 . S
C2733 C2737 1.495 . S
C2734 C2733 1.392 . S
C2734 C2735 1.385 . S
C2734 C2736 1.478 . S
C2735 H2729 0.930 . S
C2735 C2731 1.400 . S
C2735 C2734 1.385 . S
C2736 C2734 1.478 . S
C2736 C2738 1.381 . S
C2736 C2742 1.383 . S
C2737 C2733 1.495 . S
C2737 H2743 0.959 . S
C2737 H2744 0.961 . S
C2737 H2745 0.960 . S
C2738 C2736 1.381 . S
C2738 C2739 1.394 . S
C2738 H2746 0.930 . S
C2739 C2738 1.394 . S
C2739 C2740 1.383 . S
C2739 H2747 0.929 . S
C2740 C2739 1.383 . S
C2740 C2741 1.377 . S
C2741 H2725 0.930 . S
C2741 C2740 1.377 . S
C2741 C2742 1.379 . S
C2742 H2726 0.931 . S
C2742 C2736 1.383 . S
C2742 C2741 1.379 . S
H2743 C2737 0.959 . S
H2744 C2737 0.961 . S
H2745 C2737 0.960 . S
H2746 C2738 0.930 . S
H2747 C2739 0.929 . S
H2748 C2756 0.929 . S
H2749 C2758 0.930 . S
H2750 C2760 0.930 . S
H2751 C2763 0.929 . S
H2752 C2766 0.930 . S
H2753 C2768 0.960 . S
H2754 C2768 0.960 . S
H2755 C2768 0.960 . S
C2756 H2748 0.929 . S
C2756 C2757 1.377 . S
C2756 C2758 1.384 . S
C2757 C2756 1.377 . S
C2757 C2763 1.390 . S
C2758 H2749 0.930 . S
C2758 C2756 1.384 . S
C2758 C2759 1.372 . S
C2759 C2758 1.372 . S
C2759 C2760 1.400 . S
C2759 C2764 1.490 . S
C2760 H2750 0.930 . S
C2760 C2759 1.400 . S
C2760 C2763 1.386 . S
H2761 C2777 0.930 . S
H2762 C2778 0.931 . S
C2763 H2751 0.929 . S
C2763 C2757 1.390 . S
C2763 C2760 1.386 . S
C2764 C2759 1.490 . S
C2764 C2766 1.395 . S
C2764 C2767 1.403 . S
H2765 C2771 0.930 . S
C2766 H2752 0.930 . S
C2766 C2764 1.395 . S
C2766 C2769 1.403 . S
C2767 C2764 1.403 . S
C2767 C2768 1.524 . S
C2767 C2771 1.400 . S
C2768 H2753 0.960 . S
C2768 H2754 0.960 . S
C2768 H2755 0.960 . S
C2768 C2767 1.524 . S
C2769 C2766 1.403 . S
C2769 C2770 1.392 . S
C2769 C2773 1.495 . S
C2770 C2769 1.392 . S
C2770 C2771 1.385 . S
C2770 C2772 1.478 . S
C2771 H2765 0.930 . S
C2771 C2767 1.400 . S
C2771 C2770 1.385 . S
C2772 C2770 1.478 . S
C2772 C2774 1.381 . S
C2772 C2778 1.383 . S
C2773 C2769 1.495 . S
C2773 H2779 0.959 . S
C2773 H2780 0.961 . S
C2773 H2781 0.960 . S
C2774 C2772 1.381 . S
C2774 C2775 1.394 . S
C2774 H2782 0.930 . S
C2775 C2774 1.394 . S
C2775 C2776 1.383 . S
C2775 H2783 0.929 . S
C2776 C2775 1.383 . S
C2776 C2777 1.377 . S
C2777 H2761 0.930 . S
C2777 C2776 1.377 . S
C2777 C2778 1.379 . S
C2778 H2762 0.931 . S
C2778 C2772 1.383 . S
C2778 C2777 1.379 . S
H2779 C2773 0.959 . S
H2780 C2773 0.961 . S
H2781 C2773 0.960 . S
H2782 C2774 0.930 . S
H2783 C2775 0.929 . S
H2784 C2792 0.929 . S
H2785 C2794 0.930 . S
H2786 C2796 0.930 . S
H2787 C2799 0.929 . S
H2788 C2802 0.930 . S
H2789 C2804 0.960 . S
H2790 C2804 0.960 . S
H2791 C2804 0.960 . S
C2792 H2784 0.929 . S
C2792 C2793 1.377 . S
C2792 C2794 1.384 . S
C2793 C2792 1.377 . S
C2793 C2799 1.390 . S
C2794 H2785 0.930 . S
C2794 C2792 1.384 . S
C2794 C2795 1.372 . S
C2795 C2794 1.372 . S
C2795 C2796 1.400 . S
C2795 C2800 1.490 . S
C2796 H2786 0.930 . S
C2796 C2795 1.400 . S
C2796 C2799 1.386 . S
H2797 C2813 0.930 . S
H2798 C2814 0.931 . S
C2799 H2787 0.929 . S
C2799 C2793 1.390 . S
C2799 C2796 1.386 . S
C2800 C2795 1.490 . S
C2800 C2802 1.395 . S
C2800 C2803 1.403 . S
H2801 C2807 0.930 . S
C2802 H2788 0.930 . S
C2802 C2800 1.395 . S
C2802 C2805 1.403 . S
C2803 C2800 1.403 . S
C2803 C2804 1.524 . S
C2803 C2807 1.400 . S
C2804 H2789 0.960 . S
C2804 H2790 0.960 . S
C2804 H2791 0.960 . S
C2804 C2803 1.524 . S
C2805 C2802 1.403 . S
C2805 C2806 1.392 . S
C2805 C2809 1.495 . S
C2806 C2805 1.392 . S
C2806 C2807 1.385 . S
C2806 C2808 1.478 . S
C2807 H2801 0.930 . S
C2807 C2803 1.400 . S
C2807 C2806 1.385 . S
C2808 C2806 1.478 . S
C2808 C2810 1.381 . S
C2808 C2814 1.383 . S
C2809 C2805 1.495 . S
C2809 H2815 0.959 . S
C2809 H2816 0.961 . S
C2809 H2817 0.960 . S
C2810 C2808 1.381 . S
C2810 C2811 1.394 . S
C2810 H2818 0.930 . S
C2811 C2810 1.394 . S
C2811 C2812 1.383 . S
C2811 H2819 0.929 . S
C2812 C2811 1.383 . S
C2812 C2813 1.377 . S
C2813 H2797 0.930 . S
C2813 C2812 1.377 . S
C2813 C2814 1.379 . S
C2814 H2798 0.931 . S
C2814 C2808 1.383 . S
C2814 C2813 1.379 . S
H2815 C2809 0.959 . S
H2816 C2809 0.961 . S
H2817 C2809 0.960 . S
H2818 C2810 0.930 . S
H2819 C2811 0.929 . S
H2820 C2828 0.929 . S
H2821 C2830 0.930 . S
H2822 C2832 0.930 . S
H2823 C2835 0.929 . S
H2824 C2838 0.930 . S
H2825 C2840 0.960 . S
H2826 C2840 0.960 . S
H2827 C2840 0.960 . S
C2828 H2820 0.929 . S
C2828 C2829 1.377 . S
C2828 C2830 1.384 . S
C2829 C2828 1.377 . S
C2829 C2835 1.390 . S
C2830 H2821 0.930 . S
C2830 C2828 1.384 . S
C2830 C2831 1.372 . S
C2831 C2830 1.372 . S
C2831 C2832 1.400 . S
C2831 C2836 1.490 . S
C2832 H2822 0.930 . S
C2832 C2831 1.400 . S
C2832 C2835 1.386 . S
H2833 C2849 0.930 . S
H2834 C2850 0.931 . S
C2835 H2823 0.929 . S
C2835 C2829 1.390 . S
C2835 C2832 1.386 . S
C2836 C2831 1.490 . S
C2836 C2838 1.395 . S
C2836 C2839 1.403 . S
H2837 C2843 0.930 . S
C2838 H2824 0.930 . S
C2838 C2836 1.395 . S
C2838 C2841 1.403 . S
C2839 C2836 1.403 . S
C2839 C2840 1.524 . S
C2839 C2843 1.400 . S
C2840 H2825 0.960 . S
C2840 H2826 0.960 . S
C2840 H2827 0.960 . S
C2840 C2839 1.524 . S
C2841 C2838 1.403 . S
C2841 C2842 1.392 . S
C2841 C2845 1.495 . S
C2842 C2841 1.392 . S
C2842 C2843 1.385 . S
C2842 C2844 1.478 . S
C2843 H2837 0.930 . S
C2843 C2839 1.400 . S
C2843 C2842 1.385 . S
C2844 C2842 1.478 . S
C2844 C2846 1.381 . S
C2844 C2850 1.383 . S
C2845 C2841 1.495 . S
C2845 H2851 0.959 . S
C2845 H2852 0.961 . S
C2845 H2853 0.960 . S
C2846 C2844 1.381 . S
C2846 C2847 1.394 . S
C2846 H2854 0.930 . S
C2847 C2846 1.394 . S
C2847 C2848 1.383 . S
C2847 H2855 0.929 . S
C2848 C2847 1.383 . S
C2848 C2849 1.377 . S
C2849 H2833 0.930 . S
C2849 C2848 1.377 . S
C2849 C2850 1.379 . S
C2850 H2834 0.931 . S
C2850 C2844 1.383 . S
C2850 C2849 1.379 . S
H2851 C2845 0.959 . S
H2852 C2845 0.961 . S
H2853 C2845 0.960 . S
H2854 C2846 0.930 . S
H2855 C2847 0.929 . S
H2856 C2864 0.929 . S
H2857 C2866 0.930 . S
H2858 C2868 0.930 . S
H2859 C2871 0.929 . S
H2860 C2874 0.930 . S
H2861 C2876 0.960 . S
H2862 C2876 0.960 . S
H2863 C2876 0.960 . S
C2864 H2856 0.929 . S
C2864 C2865 1.377 . S
C2864 C2866 1.384 . S
C2865 C2864 1.377 . S
C2865 C2871 1.390 . S
C2866 H2857 0.930 . S
C2866 C2864 1.384 . S
C2866 C2867 1.372 . S
C2867 C2866 1.372 . S
C2867 C2868 1.400 . S
C2867 C2872 1.490 . S
C2868 H2858 0.930 . S
C2868 C2867 1.400 . S
C2868 C2871 1.386 . S
H2869 C2885 0.930 . S
H2870 C2886 0.931 . S
C2871 H2859 0.929 . S
C2871 C2865 1.390 . S
C2871 C2868 1.386 . S
C2872 C2867 1.490 . S
C2872 C2874 1.395 . S
C2872 C2875 1.403 . S
H2873 C2879 0.930 . S
C2874 H2860 0.930 . S
C2874 C2872 1.395 . S
C2874 C2877 1.403 . S
C2875 C2872 1.403 . S
C2875 C2876 1.524 . S
C2875 C2879 1.400 . S
C2876 H2861 0.960 . S
C2876 H2862 0.960 . S
C2876 H2863 0.960 . S
C2876 C2875 1.524 . S
C2877 C2874 1.403 . S
C2877 C2878 1.392 . S
C2877 C2881 1.495 . S
C2878 C2877 1.392 . S
C2878 C2879 1.385 . S
C2878 C2880 1.478 . S
C2879 H2873 0.930 . S
C2879 C2875 1.400 . S
C2879 C2878 1.385 . S
C2880 C2878 1.478 . S
C2880 C2882 1.381 . S
C2880 C2886 1.383 . S
C2881 C2877 1.495 . S
C2881 H2887 0.959 . S
C2881 H2888 0.961 . S
C2881 H2889 0.960 . S
C2882 C2880 1.381 . S
C2882 C2883 1.394 . S
C2882 H2890 0.930 . S
C2883 C2882 1.394 . S
C2883 C2884 1.383 . S
C2883 H2891 0.929 . S
C2884 C2883 1.383 . S
C2884 C2885 1.377 . S
C2885 H2869 0.930 . S
C2885 C2884 1.377 . S
C2885 C2886 1.379 . S
C2886 H2870 0.931 . S
C2886 C2880 1.383 . S
C2886 C2885 1.379 . S
H2887 C2881 0.959 . S
H2888 C2881 0.961 . S
H2889 C2881 0.960 . S
H2890 C2882 0.930 . S
H2891 C2883 0.929 . S
H2892 C2900 0.929 . S
H2893 C2902 0.930 . S
H2894 C2904 0.930 . S
H2895 C2907 0.929 . S
H2896 C2910 0.930 . S
H2897 C2912 0.960 . S
H2898 C2912 0.960 . S
H2899 C2912 0.960 . S
C2900 H2892 0.929 . S
C2900 C2901 1.377 . S
C2900 C2902 1.384 . S
C2901 C2900 1.377 . S
C2901 C2907 1.390 . S
C2902 H2893 0.930 . S
C2902 C2900 1.384 . S
C2902 C2903 1.372 . S
C2903 C2902 1.372 . S
C2903 C2904 1.400 . S
C2903 C2908 1.490 . S
C2904 H2894 0.930 . S
C2904 C2903 1.400 . S
C2904 C2907 1.386 . S
H2905 C2921 0.930 . S
H2906 C2922 0.931 . S
C2907 H2895 0.929 . S
C2907 C2901 1.390 . S
C2907 C2904 1.386 . S
C2908 C2903 1.490 . S
C2908 C2910 1.395 . S
C2908 C2911 1.403 . S
H2909 C2915 0.930 . S
C2910 H2896 0.930 . S
C2910 C2908 1.395 . S
C2910 C2913 1.403 . S
C2911 C2908 1.403 . S
C2911 C2912 1.524 . S
C2911 C2915 1.400 . S
C2912 H2897 0.960 . S
C2912 H2898 0.960 . S
C2912 H2899 0.960 . S
C2912 C2911 1.524 . S
C2913 C2910 1.403 . S
C2913 C2914 1.392 . S
C2913 C2917 1.495 . S
C2914 C2913 1.392 . S
C2914 C2915 1.385 . S
C2914 C2916 1.478 . S
C2915 H2909 0.930 . S
C2915 C2911 1.400 . S
C2915 C2914 1.385 . S
C2916 C2914 1.478 . S
C2916 C2918 1.381 . S
C2916 C2922 1.383 . S
C2917 C2913 1.495 . S
C2917 H2923 0.959 . S
C2917 H2924 0.961 . S
C2917 H2925 0.960 . S
C2918 C2916 1.381 . S
C2918 C2919 1.394 . S
C2918 H2926 0.930 . S
C2919 C2918 1.394 . S
C2919 C2920 1.383 . S
C2919 H2927 0.929 . S
C2920 C2919 1.383 . S
C2920 C2921 1.377 . S
C2921 H2905 0.930 . S
C2921 C2920 1.377 . S
C2921 C2922 1.379 . S
C2922 H2906 0.931 . S
C2922 C2916 1.383 . S
C2922 C2921 1.379 . S
H2923 C2917 0.959 . S
H2924 C2917 0.961 . S
H2925 C2917 0.960 . S
H2926 C2918 0.930 . S
H2927 C2919 0.929 . S
H2928 C2936 0.929 . S
H2929 C2938 0.930 . S
H2930 C2940 0.930 . S
H2931 C2943 0.929 . S
H2932 C2946 0.930 . S
H2933 C2948 0.960 . S
H2934 C2948 0.960 . S
H2935 C2948 0.960 . S
C2936 H2928 0.929 . S
C2936 C2937 1.377 . S
C2936 C2938 1.384 . S
C2937 C2936 1.377 . S
C2937 C2943 1.390 . S
C2938 H2929 0.930 . S
C2938 C2936 1.384 . S
C2938 C2939 1.372 . S
C2939 C2938 1.372 . S
C2939 C2940 1.400 . S
C2939 C2944 1.490 . S
C2940 H2930 0.930 . S
C2940 C2939 1.400 . S
C2940 C2943 1.386 . S
H2941 C2957 0.930 . S
H2942 C2958 0.931 . S
C2943 H2931 0.929 . S
C2943 C2937 1.390 . S
C2943 C2940 1.386 . S
C2944 C2939 1.490 . S
C2944 C2946 1.395 . S
C2944 C2947 1.403 . S
H2945 C2951 0.930 . S
C2946 H2932 0.930 . S
C2946 C2944 1.395 . S
C2946 C2949 1.403 . S
C2947 C2944 1.403 . S
C2947 C2948 1.524 . S
C2947 C2951 1.400 . S
C2948 H2933 0.960 . S
C2948 H2934 0.960 . S
C2948 H2935 0.960 . S
C2948 C2947 1.524 . S
C2949 C2946 1.403 . S
C2949 C2950 1.392 . S
C2949 C2953 1.495 . S
C2950 C2949 1.392 . S
C2950 C2951 1.385 . S
C2950 C2952 1.478 . S
C2951 H2945 0.930 . S
C2951 C2947 1.400 . S
C2951 C2950 1.385 . S
C2952 C2950 1.478 . S
C2952 C2954 1.381 . S
C2952 C2958 1.383 . S
C2953 C2949 1.495 . S
C2953 H2959 0.959 . S
C2953 H2960 0.961 . S
C2953 H2961 0.960 . S
C2954 C2952 1.381 . S
C2954 C2955 1.394 . S
C2954 H2962 0.930 . S
C2955 C2954 1.394 . S
C2955 C2956 1.383 . S
C2955 H2963 0.929 . S
C2956 C2955 1.383 . S
C2956 C2957 1.377 . S
C2957 H2941 0.930 . S
C2957 C2956 1.377 . S
C2957 C2958 1.379 . S
C2958 H2942 0.931 . S
C2958 C2952 1.383 . S
C2958 C2957 1.379 . S
H2959 C2953 0.959 . S
H2960 C2953 0.961 . S
H2961 C2953 0.960 . S
H2962 C2954 0.930 . S
H2963 C2955 0.929 . S
H2964 C2972 0.929 . S
H2965 C2974 0.930 . S
H2966 C2976 0.930 . S
H2967 C2979 0.929 . S
H2968 C2982 0.930 . S
H2969 C2984 0.960 . S
H2970 C2984 0.960 . S
H2971 C2984 0.960 . S
C2972 H2964 0.929 . S
C2972 C2973 1.377 . S
C2972 C2974 1.384 . S
C2973 C2972 1.377 . S
C2973 C2979 1.390 . S
C2974 H2965 0.930 . S
C2974 C2972 1.384 . S
C2974 C2975 1.372 . S
C2975 C2974 1.372 . S
C2975 C2976 1.400 . S
C2975 C2980 1.490 . S
C2976 H2966 0.930 . S
C2976 C2975 1.400 . S
C2976 C2979 1.386 . S
H2977 C2993 0.930 . S
H2978 C2994 0.931 . S
C2979 H2967 0.929 . S
C2979 C2973 1.390 . S
C2979 C2976 1.386 . S
C2980 C2975 1.490 . S
C2980 C2982 1.395 . S
C2980 C2983 1.403 . S
H2981 C2987 0.930 . S
C2982 H2968 0.930 . S
C2982 C2980 1.395 . S
C2982 C2985 1.403 . S
C2983 C2980 1.403 . S
C2983 C2984 1.524 . S
C2983 C2987 1.400 . S
C2984 H2969 0.960 . S
C2984 H2970 0.960 . S
C2984 H2971 0.960 . S
C2984 C2983 1.524 . S
C2985 C2982 1.403 . S
C2985 C2986 1.392 . S
C2985 C2989 1.495 . S
C2986 C2985 1.392 . S
C2986 C2987 1.385 . S
C2986 C2988 1.478 . S
C2987 H2981 0.930 . S
C2987 C2983 1.400 . S
C2987 C2986 1.385 . S
C2988 C2986 1.478 . S
C2988 C2990 1.381 . S
C2988 C2994 1.383 . S
C2989 C2985 1.495 . S
C2989 H2995 0.959 . S
C2989 H2996 0.961 . S
C2989 H2997 0.960 . S
C2990 C2988 1.381 . S
C2990 C2991 1.394 . S
C2990 H2998 0.930 . S
C2991 C2990 1.394 . S
C2991 C2992 1.383 . S
C2991 H2999 0.929 . S
C2992 C2991 1.383 . S
C2992 C2993 1.377 . S
C2993 H2977 0.930 . S
C2993 C2992 1.377 . S
C2993 C2994 1.379 . S
C2994 H2978 0.931 . S
C2994 C2988 1.383 . S
C2994 C2993 1.379 . S
H2995 C2989 0.959 . S
H2996 C2989 0.961 . S
H2997 C2989 0.960 . S
H2998 C2990 0.930 . S
H2999 C2991 0.929 . S
H3000 C3008 0.929 . S
H3001 C3010 0.930 . S
H3002 C3012 0.930 . S
H3003 C3015 0.929 . S
H3004 C3018 0.930 . S
H3005 C3020 0.960 . S
H3006 C3020 0.960 . S
H3007 C3020 0.960 . S
C3008 H3000 0.929 . S
C3008 C3009 1.377 . S
C3008 C3010 1.384 . S
C3009 C3008 1.377 . S
C3009 C3015 1.390 . S
C3010 H3001 0.930 . S
C3010 C3008 1.384 . S
C3010 C3011 1.372 . S
C3011 C3010 1.372 . S
C3011 C3012 1.400 . S
C3011 C3016 1.490 . S
C3012 H3002 0.930 . S
C3012 C3011 1.400 . S
C3012 C3015 1.386 . S
H3013 C3029 0.930 . S
H3014 C3030 0.931 . S
C3015 H3003 0.929 . S
C3015 C3009 1.390 . S
C3015 C3012 1.386 . S
C3016 C3011 1.490 . S
C3016 C3018 1.395 . S
C3016 C3019 1.403 . S
H3017 C3023 0.930 . S
C3018 H3004 0.930 . S
C3018 C3016 1.395 . S
C3018 C3021 1.403 . S
C3019 C3016 1.403 . S
C3019 C3020 1.524 . S
C3019 C3023 1.400 . S
C3020 H3005 0.960 . S
C3020 H3006 0.960 . S
C3020 H3007 0.960 . S
C3020 C3019 1.524 . S
C3021 C3018 1.403 . S
C3021 C3022 1.392 . S
C3021 C3025 1.495 . S
C3022 C3021 1.392 . S
C3022 C3023 1.385 . S
C3022 C3024 1.478 . S
C3023 H3017 0.930 . S
C3023 C3019 1.400 . S
C3023 C3022 1.385 . S
C3024 C3022 1.478 . S
C3024 C3026 1.381 . S
C3024 C3030 1.383 . S
C3025 C3021 1.495 . S
C3025 H3031 0.959 . S
C3025 H3032 0.961 . S
C3025 H3033 0.960 . S
C3026 C3024 1.381 . S
C3026 C3027 1.394 . S
C3026 H3034 0.930 . S
C3027 C3026 1.394 . S
C3027 C3028 1.383 . S
C3027 H3035 0.929 . S
C3028 C3027 1.383 . S
C3028 C3029 1.377 . S
C3029 H3013 0.930 . S
C3029 C3028 1.377 . S
C3029 C3030 1.379 . S
C3030 H3014 0.931 . S
C3030 C3024 1.383 . S
C3030 C3029 1.379 . S
H3031 C3025 0.959 . S
H3032 C3025 0.961 . S
H3033 C3025 0.960 . S
H3034 C3026 0.930 . S
H3035 C3027 0.929 . S
H3036 C3044 0.929 . S
H3037 C3046 0.930 . S
H3038 C3048 0.930 . S
H3039 C3051 0.929 . S
H3040 C3054 0.930 . S
H3041 C3056 0.960 . S
H3042 C3056 0.960 . S
H3043 C3056 0.960 . S
C3044 H3036 0.929 . S
C3044 C3045 1.377 . S
C3044 C3046 1.384 . S
C3045 C3044 1.377 . S
C3045 C3051 1.390 . S
C3046 H3037 0.930 . S
C3046 C3044 1.384 . S
C3046 C3047 1.372 . S
C3047 C3046 1.372 . S
C3047 C3048 1.400 . S
C3047 C3052 1.490 . S
C3048 H3038 0.930 . S
C3048 C3047 1.400 . S
C3048 C3051 1.386 . S
H3049 C3065 0.930 . S
H3050 C3066 0.931 . S
C3051 H3039 0.929 . S
C3051 C3045 1.390 . S
C3051 C3048 1.386 . S
C3052 C3047 1.490 . S
C3052 C3054 1.395 . S
C3052 C3055 1.403 . S
H3053 C3059 0.930 . S
C3054 H3040 0.930 . S
C3054 C3052 1.395 . S
C3054 C3057 1.403 . S
C3055 C3052 1.403 . S
C3055 C3056 1.524 . S
C3055 C3059 1.400 . S
C3056 H3041 0.960 . S
C3056 H3042 0.960 . S
C3056 H3043 0.960 . S
C3056 C3055 1.524 . S
C3057 C3054 1.403 . S
C3057 C3058 1.392 . S
C3057 C3061 1.495 . S
C3058 C3057 1.392 . S
C3058 C3059 1.385 . S
C3058 C3060 1.478 . S
C3059 H3053 0.930 . S
C3059 C3055 1.400 . S
C3059 C3058 1.385 . S
C3060 C3058 1.478 . S
C3060 C3062 1.381 . S
C3060 C3066 1.383 . S
C3061 C3057 1.495 . S
C3061 H3067 0.959 . S
C3061 H3068 0.961 . S
C3061 H3069 0.960 . S
C3062 C3060 1.381 . S
C3062 C3063 1.394 . S
C3062 H3070 0.930 . S
C3063 C3062 1.394 . S
C3063 C3064 1.383 . S
C3063 H3071 0.929 . S
C3064 C3063 1.383 . S
C3064 C3065 1.377 . S
C3065 H3049 0.930 . S
C3065 C3064 1.377 . S
C3065 C3066 1.379 . S
C3066 H3050 0.931 . S
C3066 C3060 1.383 . S
C3066 C3065 1.379 . S
H3067 C3061 0.959 . S
H3068 C3061 0.961 . S
H3069 C3061 0.960 . S
H3070 C3062 0.930 . S
H3071 C3063 0.929 . S
H3072 C3080 0.929 . S
H3073 C3082 0.930 . S
H3074 C3084 0.930 . S
H3075 C3087 0.929 . S
H3076 C3090 0.930 . S
H3077 C3092 0.960 . S
H3078 C3092 0.960 . S
H3079 C3092 0.960 . S
C3080 H3072 0.929 . S
C3080 C3081 1.377 . S
C3080 C3082 1.384 . S
C3081 C3080 1.377 . S
C3081 C3087 1.390 . S
C3082 H3073 0.930 . S
C3082 C3080 1.384 . S
C3082 C3083 1.372 . S
C3083 C3082 1.372 . S
C3083 C3084 1.400 . S
C3083 C3088 1.490 . S
C3084 H3074 0.930 . S
C3084 C3083 1.400 . S
C3084 C3087 1.386 . S
H3085 C3101 0.930 . S
H3086 C3102 0.931 . S
C3087 H3075 0.929 . S
C3087 C3081 1.390 . S
C3087 C3084 1.386 . S
C3088 C3083 1.490 . S
C3088 C3090 1.395 . S
C3088 C3091 1.403 . S
H3089 C3095 0.930 . S
C3090 H3076 0.930 . S
C3090 C3088 1.395 . S
C3090 C3093 1.403 . S
C3091 C3088 1.403 . S
C3091 C3092 1.524 . S
C3091 C3095 1.400 . S
C3092 H3077 0.960 . S
C3092 H3078 0.960 . S
C3092 H3079 0.960 . S
C3092 C3091 1.524 . S
C3093 C3090 1.403 . S
C3093 C3094 1.392 . S
C3093 C3097 1.495 . S
C3094 C3093 1.392 . S
C3094 C3095 1.385 . S
C3094 C3096 1.478 . S
C3095 H3089 0.930 . S
C3095 C3091 1.400 . S
C3095 C3094 1.385 . S
C3096 C3094 1.478 . S
C3096 C3098 1.381 . S
C3096 C3102 1.383 . S
C3097 C3093 1.495 . S
C3097 H3103 0.959 . S
C3097 H3104 0.961 . S
C3097 H3105 0.960 . S
C3098 C3096 1.381 . S
C3098 C3099 1.394 . S
C3098 H3106 0.930 . S
C3099 C3098 1.394 . S
C3099 C3100 1.383 . S
C3099 H3107 0.929 . S
C3100 C3099 1.383 . S
C3100 C3101 1.377 . S
C3101 H3085 0.930 . S
C3101 C3100 1.377 . S
C3101 C3102 1.379 . S
C3102 H3086 0.931 . S
C3102 C3096 1.383 . S
C3102 C3101 1.379 . S
H3103 C3097 0.959 . S
H3104 C3097 0.961 . S
H3105 C3097 0.960 . S
H3106 C3098 0.930 . S
H3107 C3099 0.929 . S
H3108 C3116 0.929 . S
H3109 C3118 0.930 . S
H3110 C3120 0.930 . S
H3111 C3123 0.929 . S
H3112 C3126 0.930 . S
H3113 C3128 0.960 . S
H3114 C3128 0.960 . S
H3115 C3128 0.960 . S
C3116 H3108 0.929 . S
C3116 C3117 1.377 . S
C3116 C3118 1.384 . S
C3117 C3116 1.377 . S
C3117 C3123 1.390 . S
C3118 H3109 0.930 . S
C3118 C3116 1.384 . S
C3118 C3119 1.372 . S
C3119 C3118 1.372 . S
C3119 C3120 1.400 . S
C3119 C3124 1.490 . S
C3120 H3110 0.930 . S
C3120 C3119 1.400 . S
C3120 C3123 1.386 . S
H3121 C3137 0.930 . S
H3122 C3138 0.931 . S
C3123 H3111 0.929 . S
C3123 C3117 1.390 . S
C3123 C3120 1.386 . S
C3124 C3119 1.490 . S
C3124 C3126 1.395 . S
C3124 C3127 1.403 . S
H3125 C3131 0.930 . S
C3126 H3112 0.930 . S
C3126 C3124 1.395 . S
C3126 C3129 1.403 . S
C3127 C3124 1.403 . S
C3127 C3128 1.524 . S
C3127 C3131 1.400 . S
C3128 H3113 0.960 . S
C3128 H3114 0.960 . S
C3128 H3115 0.960 . S
C3128 C3127 1.524 . S
C3129 C3126 1.403 . S
C3129 C3130 1.392 . S
C3129 C3133 1.495 . S
C3130 C3129 1.392 . S
C3130 C3131 1.385 . S
C3130 C3132 1.478 . S
C3131 H3125 0.930 . S
C3131 C3127 1.400 . S
C3131 C3130 1.385 . S
C3132 C3130 1.478 . S
C3132 C3134 1.381 . S
C3132 C3138 1.383 . S
C3133 C3129 1.495 . S
C3133 H3139 0.959 . S
C3133 H3140 0.961 . S
C3133 H3141 0.960 . S
C3134 C3132 1.381 . S
C3134 C3135 1.394 . S
C3134 H3142 0.930 . S
C3135 C3134 1.394 . S
C3135 C3136 1.383 . S
C3135 H3143 0.929 . S
C3136 C3135 1.383 . S
C3136 C3137 1.377 . S
C3137 H3121 0.930 . S
C3137 C3136 1.377 . S
C3137 C3138 1.379 . S
C3138 H3122 0.931 . S
C3138 C3132 1.383 . S
C3138 C3137 1.379 . S
H3139 C3133 0.959 . S
H3140 C3133 0.961 . S
H3141 C3133 0.960 . S
H3142 C3134 0.930 . S
H3143 C3135 0.929 . S
H3144 C3152 0.929 . S
H3145 C3154 0.930 . S
H3146 C3156 0.930 . S
H3147 C3159 0.929 . S
H3148 C3162 0.930 . S
H3149 C3164 0.960 . S
H3150 C3164 0.960 . S
H3151 C3164 0.960 . S
C3152 H3144 0.929 . S
C3152 C3153 1.377 . S
C3152 C3154 1.384 . S
C3153 C3152 1.377 . S
C3153 C3159 1.390 . S
C3154 H3145 0.930 . S
C3154 C3152 1.384 . S
C3154 C3155 1.372 . S
C3155 C3154 1.372 . S
C3155 C3156 1.400 . S
C3155 C3160 1.490 . S
C3156 H3146 0.930 . S
C3156 C3155 1.400 . S
C3156 C3159 1.386 . S
H3157 C3173 0.930 . S
H3158 C3174 0.931 . S
C3159 H3147 0.929 . S
C3159 C3153 1.390 . S
C3159 C3156 1.386 . S
C3160 C3155 1.490 . S
C3160 C3162 1.395 . S
C3160 C3163 1.403 . S
H3161 C3167 0.930 . S
C3162 H3148 0.930 . S
C3162 C3160 1.395 . S
C3162 C3165 1.403 . S
C3163 C3160 1.403 . S
C3163 C3164 1.524 . S
C3163 C3167 1.400 . S
C3164 H3149 0.960 . S
C3164 H3150 0.960 . S
C3164 H3151 0.960 . S
C3164 C3163 1.524 . S
C3165 C3162 1.403 . S
C3165 C3166 1.392 . S
C3165 C3169 1.495 . S
C3166 C3165 1.392 . S
C3166 C3167 1.385 . S
C3166 C3168 1.478 . S
C3167 H3161 0.930 . S
C3167 C3163 1.400 . S
C3167 C3166 1.385 . S
C3168 C3166 1.478 . S
C3168 C3170 1.381 . S
C3168 C3174 1.383 . S
C3169 C3165 1.495 . S
C3169 H3175 0.959 . S
C3169 H3176 0.961 . S
C3169 H3177 0.960 . S
C3170 C3168 1.381 . S
C3170 C3171 1.394 . S
C3170 H3178 0.930 . S
C3171 C3170 1.394 . S
C3171 C3172 1.383 . S
C3171 H3179 0.929 . S
C3172 C3171 1.383 . S
C3172 C3173 1.377 . S
C3173 H3157 0.930 . S
C3173 C3172 1.377 . S
C3173 C3174 1.379 . S
C3174 H3158 0.931 . S
C3174 C3168 1.383 . S
C3174 C3173 1.379 . S
H3175 C3169 0.959 . S
H3176 C3169 0.961 . S
H3177 C3169 0.960 . S
H3178 C3170 0.930 . S
H3179 C3171 0.929 . S
H3180 C3188 0.929 . S
H3181 C3190 0.930 . S
H3182 C3192 0.930 . S
H3183 C3195 0.929 . S
H3184 C3198 0.930 . S
H3185 C3200 0.960 . S
H3186 C3200 0.960 . S
H3187 C3200 0.960 . S
C3188 H3180 0.929 . S
C3188 C3189 1.377 . S
C3188 C3190 1.384 . S
C3189 C3188 1.377 . S
C3189 C3195 1.390 . S
C3190 H3181 0.930 . S
C3190 C3188 1.384 . S
C3190 C3191 1.372 . S
C3191 C3190 1.372 . S
C3191 C3192 1.400 . S
C3191 C3196 1.490 . S
C3192 H3182 0.930 . S
C3192 C3191 1.400 . S
C3192 C3195 1.386 . S
H3193 C3209 0.930 . S
H3194 C3210 0.931 . S
C3195 H3183 0.929 . S
C3195 C3189 1.390 . S
C3195 C3192 1.386 . S
C3196 C3191 1.490 . S
C3196 C3198 1.395 . S
C3196 C3199 1.403 . S
H3197 C3203 0.930 . S
C3198 H3184 0.930 . S
C3198 C3196 1.395 . S
C3198 C3201 1.403 . S
C3199 C3196 1.403 . S
C3199 C3200 1.524 . S
C3199 C3203 1.400 . S
C3200 H3185 0.960 . S
C3200 H3186 0.960 . S
C3200 H3187 0.960 . S
C3200 C3199 1.524 . S
C3201 C3198 1.403 . S
C3201 C3202 1.392 . S
C3201 C3205 1.495 . S
C3202 C3201 1.392 . S
C3202 C3203 1.385 . S
C3202 C3204 1.478 . S
C3203 H3197 0.930 . S
C3203 C3199 1.400 . S
C3203 C3202 1.385 . S
C3204 C3202 1.478 . S
C3204 C3206 1.381 . S
C3204 C3210 1.383 . S
C3205 C3201 1.495 . S
C3205 H3211 0.959 . S
C3205 H3212 0.961 . S
C3205 H3213 0.960 . S
C3206 C3204 1.381 . S
C3206 C3207 1.394 . S
C3206 H3214 0.930 . S
C3207 C3206 1.394 . S
C3207 C3208 1.383 . S
C3207 H3215 0.929 . S
C3208 C3207 1.383 . S
C3208 C3209 1.377 . S
C3209 H3193 0.930 . S
C3209 C3208 1.377 . S
C3209 C3210 1.379 . S
C3210 H3194 0.931 . S
C3210 C3204 1.383 . S
C3210 C3209 1.379 . S
H3211 C3205 0.959 . S
H3212 C3205 0.961 . S
H3213 C3205 0.960 . S
H3214 C3206 0.930 . S
H3215 C3207 0.929 . S
H3216 C3224 0.929 . S
H3217 C3226 0.930 . S
H3218 C3228 0.930 . S
H3219 C3231 0.929 . S
H3220 C3234 0.930 . S
H3221 C3236 0.960 . S
H3222 C3236 0.960 . S
H3223 C3236 0.960 . S
C3224 H3216 0.929 . S
C3224 C3225 1.377 . S
C3224 C3226 1.384 . S
C3225 C3224 1.377 . S
C3225 C3231 1.390 . S
C3226 H3217 0.930 . S
C3226 C3224 1.384 . S
C3226 C3227 1.372 . S
C3227 C3226 1.372 . S
C3227 C3228 1.400 . S
C3227 C3232 1.490 . S
C3228 H3218 0.930 . S
C3228 C3227 1.400 . S
C3228 C3231 1.386 . S
H3229 C3245 0.930 . S
H3230 C3246 0.931 . S
C3231 H3219 0.929 . S
C3231 C3225 1.390 . S
C3231 C3228 1.386 . S
C3232 C3227 1.490 . S
C3232 C3234 1.395 . S
C3232 C3235 1.403 . S
H3233 C3239 0.930 . S
C3234 H3220 0.930 . S
C3234 C3232 1.395 . S
C3234 C3237 1.403 . S
C3235 C3232 1.403 . S
C3235 C3236 1.524 . S
C3235 C3239 1.400 . S
C3236 H3221 0.960 . S
C3236 H3222 0.960 . S
C3236 H3223 0.960 . S
C3236 C3235 1.524 . S
C3237 C3234 1.403 . S
C3237 C3238 1.392 . S
C3237 C3241 1.495 . S
C3238 C3237 1.392 . S
C3238 C3239 1.385 . S
C3238 C3240 1.478 . S
C3239 H3233 0.930 . S
C3239 C3235 1.400 . S
C3239 C3238 1.385 . S
C3240 C3238 1.478 . S
C3240 C3242 1.381 . S
C3240 C3246 1.383 . S
C3241 C3237 1.495 . S
C3241 H3247 0.959 . S
C3241 H3248 0.961 . S
C3241 H3249 0.960 . S
C3242 C3240 1.381 . S
C3242 C3243 1.394 . S
C3242 H3250 0.930 . S
C3243 C3242 1.394 . S
C3243 C3244 1.383 . S
C3243 H3251 0.929 . S
C3244 C3243 1.383 . S
C3244 C3245 1.377 . S
C3245 H3229 0.930 . S
C3245 C3244 1.377 . S
C3245 C3246 1.379 . S
C3246 H3230 0.931 . S
C3246 C3240 1.383 . S
C3246 C3245 1.379 . S
H3247 C3241 0.959 . S
H3248 C3241 0.961 . S
H3249 C3241 0.960 . S
H3250 C3242 0.930 . S
H3251 C3243 0.929 . S
H3252 C3260 0.929 . S
H3253 C3262 0.930 . S
H3254 C3264 0.930 . S
H3255 C3267 0.929 . S
H3256 C3270 0.930 . S
H3257 C3272 0.960 . S
H3258 C3272 0.960 . S
H3259 C3272 0.960 . S
C3260 H3252 0.929 . S
C3260 C3261 1.377 . S
C3260 C3262 1.384 . S
C3261 C3260 1.377 . S
C3261 C3267 1.390 . S
C3262 H3253 0.930 . S
C3262 C3260 1.384 . S
C3262 C3263 1.372 . S
C3263 C3262 1.372 . S
C3263 C3264 1.400 . S
C3263 C3268 1.490 . S
C3264 H3254 0.930 . S
C3264 C3263 1.400 . S
C3264 C3267 1.386 . S
H3265 C3281 0.930 . S
H3266 C3282 0.931 . S
C3267 H3255 0.929 . S
C3267 C3261 1.390 . S
C3267 C3264 1.386 . S
C3268 C3263 1.490 . S
C3268 C3270 1.395 . S
C3268 C3271 1.403 . S
H3269 C3275 0.930 . S
C3270 H3256 0.930 . S
C3270 C3268 1.395 . S
C3270 C3273 1.403 . S
C3271 C3268 1.403 . S
C3271 C3272 1.524 . S
C3271 C3275 1.400 . S
C3272 H3257 0.960 . S
C3272 H3258 0.960 . S
C3272 H3259 0.960 . S
C3272 C3271 1.524 . S
C3273 C3270 1.403 . S
C3273 C3274 1.392 . S
C3273 C3277 1.495 . S
C3274 C3273 1.392 . S
C3274 C3275 1.385 . S
C3274 C3276 1.478 . S
C3275 H3269 0.930 . S
C3275 C3271 1.400 . S
C3275 C3274 1.385 . S
C3276 C3274 1.478 . S
C3276 C3278 1.381 . S
C3276 C3282 1.383 . S
C3277 C3273 1.495 . S
C3277 H3283 0.959 . S
C3277 H3284 0.961 . S
C3277 H3285 0.960 . S
C3278 C3276 1.381 . S
C3278 C3279 1.394 . S
C3278 H3286 0.930 . S
C3279 C3278 1.394 . S
C3279 C3280 1.383 . S
C3279 H3287 0.929 . S
C3280 C3279 1.383 . S
C3280 C3281 1.377 . S
C3281 H3265 0.930 . S
C3281 C3280 1.377 . S
C3281 C3282 1.379 . S
C3282 H3266 0.931 . S
C3282 C3276 1.383 . S
C3282 C3281 1.379 . S
H3283 C3277 0.959 . S
H3284 C3277 0.961 . S
H3285 C3277 0.960 . S
H3286 C3278 0.930 . S
H3287 C3279 0.929 . S
H3288 C3296 0.929 . S
H3289 C3298 0.930 . S
H3290 C3300 0.930 . S
H3291 C3303 0.929 . S
H3292 C3306 0.930 . S
H3293 C3308 0.960 . S
H3294 C3308 0.960 . S
H3295 C3308 0.960 . S
C3296 H3288 0.929 . S
C3296 C3297 1.377 . S
C3296 C3298 1.384 . S
C3297 C3296 1.377 . S
C3297 C3303 1.390 . S
C3298 H3289 0.930 . S
C3298 C3296 1.384 . S
C3298 C3299 1.372 . S
C3299 C3298 1.372 . S
C3299 C3300 1.400 . S
C3299 C3304 1.490 . S
C3300 H3290 0.930 . S
C3300 C3299 1.400 . S
C3300 C3303 1.386 . S
H3301 C3317 0.930 . S
H3302 C3318 0.931 . S
C3303 H3291 0.929 . S
C3303 C3297 1.390 . S
C3303 C3300 1.386 . S
C3304 C3299 1.490 . S
C3304 C3306 1.395 . S
C3304 C3307 1.403 . S
H3305 C3311 0.930 . S
C3306 H3292 0.930 . S
C3306 C3304 1.395 . S
C3306 C3309 1.403 . S
C3307 C3304 1.403 . S
C3307 C3308 1.524 . S
C3307 C3311 1.400 . S
C3308 H3293 0.960 . S
C3308 H3294 0.960 . S
C3308 H3295 0.960 . S
C3308 C3307 1.524 . S
C3309 C3306 1.403 . S
C3309 C3310 1.392 . S
C3309 C3313 1.495 . S
C3310 C3309 1.392 . S
C3310 C3311 1.385 . S
C3310 C3312 1.478 . S
C3311 H3305 0.930 . S
C3311 C3307 1.400 . S
C3311 C3310 1.385 . S
C3312 C3310 1.478 . S
C3312 C3314 1.381 . S
C3312 C3318 1.383 . S
C3313 C3309 1.495 . S
C3313 H3319 0.959 . S
C3313 H3320 0.961 . S
C3313 H3321 0.960 . S
C3314 C3312 1.381 . S
C3314 C3315 1.394 . S
C3314 H3322 0.930 . S
C3315 C3314 1.394 . S
C3315 C3316 1.383 . S
C3315 H3323 0.929 . S
C3316 C3315 1.383 . S
C3316 C3317 1.377 . S
C3317 H3301 0.930 . S
C3317 C3316 1.377 . S
C3317 C3318 1.379 . S
C3318 H3302 0.931 . S
C3318 C3312 1.383 . S
C3318 C3317 1.379 . S
H3319 C3313 0.959 . S
H3320 C3313 0.961 . S
H3321 C3313 0.960 . S
H3322 C3314 0.930 . S
H3323 C3315 0.929 . S
H3324 C3332 0.929 . S
H3325 C3334 0.930 . S
H3326 C3336 0.930 . S
H3327 C3339 0.929 . S
H3328 C3342 0.930 . S
H3329 C3344 0.960 . S
H3330 C3344 0.960 . S
H3331 C3344 0.960 . S
C3332 H3324 0.929 . S
C3332 C3333 1.377 . S
C3332 C3334 1.384 . S
C3333 C3332 1.377 . S
C3333 C3339 1.390 . S
C3334 H3325 0.930 . S
C3334 C3332 1.384 . S
C3334 C3335 1.372 . S
C3335 C3334 1.372 . S
C3335 C3336 1.400 . S
C3335 C3340 1.490 . S
C3336 H3326 0.930 . S
C3336 C3335 1.400 . S
C3336 C3339 1.386 . S
H3337 C3353 0.930 . S
H3338 C3354 0.931 . S
C3339 H3327 0.929 . S
C3339 C3333 1.390 . S
C3339 C3336 1.386 . S
C3340 C3335 1.490 . S
C3340 C3342 1.395 . S
C3340 C3343 1.403 . S
H3341 C3347 0.930 . S
C3342 H3328 0.930 . S
C3342 C3340 1.395 . S
C3342 C3345 1.403 . S
C3343 C3340 1.403 . S
C3343 C3344 1.524 . S
C3343 C3347 1.400 . S
C3344 H3329 0.960 . S
C3344 H3330 0.960 . S
C3344 H3331 0.960 . S
C3344 C3343 1.524 . S
C3345 C3342 1.403 . S
C3345 C3346 1.392 . S
C3345 C3349 1.495 . S
C3346 C3345 1.392 . S
C3346 C3347 1.385 . S
C3346 C3348 1.478 . S
C3347 H3341 0.930 . S
C3347 C3343 1.400 . S
C3347 C3346 1.385 . S
C3348 C3346 1.478 . S
C3348 C3350 1.381 . S
C3348 C3354 1.383 . S
C3349 C3345 1.495 . S
C3349 H3355 0.959 . S
C3349 H3356 0.961 . S
C3349 H3357 0.960 . S
C3350 C3348 1.381 . S
C3350 C3351 1.394 . S
C3350 H3358 0.930 . S
C3351 C3350 1.394 . S
C3351 C3352 1.383 . S
C3351 H3359 0.929 . S
C3352 C3351 1.383 . S
C3352 C3353 1.377 . S
C3353 H3337 0.930 . S
C3353 C3352 1.377 . S
C3353 C3354 1.379 . S
C3354 H3338 0.931 . S
C3354 C3348 1.383 . S
C3354 C3353 1.379 . S
H3355 C3349 0.959 . S
H3356 C3349 0.961 . S
H3357 C3349 0.960 . S
H3358 C3350 0.930 . S
H3359 C3351 0.929 . S
H3360 C3368 0.929 . S
H3361 C3370 0.930 . S
H3362 C3372 0.930 . S
H3363 C3375 0.929 . S
H3364 C3378 0.930 . S
H3365 C3380 0.960 . S
H3366 C3380 0.960 . S
H3367 C3380 0.960 . S
C3368 H3360 0.929 . S
C3368 C3369 1.377 . S
C3368 C3370 1.384 . S
C3369 C3368 1.377 . S
C3369 C3375 1.390 . S
C3370 H3361 0.930 . S
C3370 C3368 1.384 . S
C3370 C3371 1.372 . S
C3371 C3370 1.372 . S
C3371 C3372 1.400 . S
C3371 C3376 1.490 . S
C3372 H3362 0.930 . S
C3372 C3371 1.400 . S
C3372 C3375 1.386 . S
H3373 C3389 0.930 . S
H3374 C3390 0.931 . S
C3375 H3363 0.929 . S
C3375 C3369 1.390 . S
C3375 C3372 1.386 . S
C3376 C3371 1.490 . S
C3376 C3378 1.395 . S
C3376 C3379 1.403 . S
H3377 C3383 0.930 . S
C3378 H3364 0.930 . S
C3378 C3376 1.395 . S
C3378 C3381 1.403 . S
C3379 C3376 1.403 . S
C3379 C3380 1.524 . S
C3379 C3383 1.400 . S
C3380 H3365 0.960 . S
C3380 H3366 0.960 . S
C3380 H3367 0.960 . S
C3380 C3379 1.524 . S
C3381 C3378 1.403 . S
C3381 C3382 1.392 . S
C3381 C3385 1.495 . S
C3382 C3381 1.392 . S
C3382 C3383 1.385 . S
C3382 C3384 1.478 . S
C3383 H3377 0.930 . S
C3383 C3379 1.400 . S
C3383 C3382 1.385 . S
C3384 C3382 1.478 . S
C3384 C3386 1.381 . S
C3384 C3390 1.383 . S
C3385 C3381 1.495 . S
C3385 H3391 0.959 . S
C3385 H3392 0.961 . S
C3385 H3393 0.960 . S
C3386 C3384 1.381 . S
C3386 C3387 1.394 . S
C3386 H3394 0.930 . S
C3387 C3386 1.394 . S
C3387 C3388 1.383 . S
C3387 H3395 0.929 . S
C3388 C3387 1.383 . S
C3388 C3389 1.377 . S
C3389 H3373 0.930 . S
C3389 C3388 1.377 . S
C3389 C3390 1.379 . S
C3390 H3374 0.931 . S
C3390 C3384 1.383 . S
C3390 C3389 1.379 . S
H3391 C3385 0.959 . S
H3392 C3385 0.961 . S
H3393 C3385 0.960 . S
H3394 C3386 0.930 . S
H3395 C3387 0.929 . S
H3396 C3404 0.929 . S
H3397 C3406 0.930 . S
H3398 C3408 0.930 . S
H3399 C3411 0.929 . S
H3400 C3414 0.930 . S
H3401 C3416 0.960 . S
H3402 C3416 0.960 . S
H3403 C3416 0.960 . S
C3404 H3396 0.929 . S
C3404 C3405 1.377 . S
C3404 C3406 1.384 . S
C3405 C3404 1.377 . S
C3405 C3411 1.390 . S
C3406 H3397 0.930 . S
C3406 C3404 1.384 . S
C3406 C3407 1.372 . S
C3407 C3406 1.372 . S
C3407 C3408 1.400 . S
C3407 C3412 1.490 . S
C3408 H3398 0.930 . S
C3408 C3407 1.400 . S
C3408 C3411 1.386 . S
H3409 C3425 0.930 . S
H3410 C3426 0.931 . S
C3411 H3399 0.929 . S
C3411 C3405 1.390 . S
C3411 C3408 1.386 . S
C3412 C3407 1.490 . S
C3412 C3414 1.395 . S
C3412 C3415 1.403 . S
H3413 C3419 0.930 . S
C3414 H3400 0.930 . S
C3414 C3412 1.395 . S
C3414 C3417 1.403 . S
C3415 C3412 1.403 . S
C3415 C3416 1.524 . S
C3415 C3419 1.400 . S
C3416 H3401 0.960 . S
C3416 H3402 0.960 . S
C3416 H3403 0.960 . S
C3416 C3415 1.524 . S
C3417 C3414 1.403 . S
C3417 C3418 1.392 . S
C3417 C3421 1.495 . S
C3418 C3417 1.392 . S
C3418 C3419 1.385 . S
C3418 C3420 1.478 . S
C3419 H3413 0.930 . S
C3419 C3415 1.400 . S
C3419 C3418 1.385 . S
C3420 C3418 1.478 . S
C3420 C3422 1.381 . S
C3420 C3426 1.383 . S
C3421 C3417 1.495 . S
C3421 H3427 0.959 . S
C3421 H3428 0.961 . S
C3421 H3429 0.960 . S
C3422 C3420 1.381 . S
C3422 C3423 1.394 . S
C3422 H3430 0.930 . S
C3423 C3422 1.394 . S
C3423 C3424 1.383 . S
C3423 H3431 0.929 . S
C3424 C3423 1.383 . S
C3424 C3425 1.377 . S
C3425 H3409 0.930 . S
C3425 C3424 1.377 . S
C3425 C3426 1.379 . S
C3426 H3410 0.931 . S
C3426 C3420 1.383 . S
C3426 C3425 1.379 . S
H3427 C3421 0.959 . S
H3428 C3421 0.961 . S
H3429 C3421 0.960 . S
H3430 C3422 0.930 . S
H3431 C3423 0.929 . S
H3432 C3440 0.929 . S
H3433 C3442 0.930 . S
H3434 C3444 0.930 . S
H3435 C3447 0.929 . S
H3436 C3450 0.930 . S
H3437 C3452 0.960 . S
H3438 C3452 0.960 . S
H3439 C3452 0.960 . S
C3440 H3432 0.929 . S
C3440 C3441 1.377 . S
C3440 C3442 1.384 . S
C3441 C3440 1.377 . S
C3441 C3447 1.390 . S
C3442 H3433 0.930 . S
C3442 C3440 1.384 . S
C3442 C3443 1.372 . S
C3443 C3442 1.372 . S
C3443 C3444 1.400 . S
C3443 C3448 1.490 . S
C3444 H3434 0.930 . S
C3444 C3443 1.400 . S
C3444 C3447 1.386 . S
H3445 C3461 0.930 . S
H3446 C3462 0.931 . S
C3447 H3435 0.929 . S
C3447 C3441 1.390 . S
C3447 C3444 1.386 . S
C3448 C3443 1.490 . S
C3448 C3450 1.395 . S
C3448 C3451 1.403 . S
H3449 C3455 0.930 . S
C3450 H3436 0.930 . S
C3450 C3448 1.395 . S
C3450 C3453 1.403 . S
C3451 C3448 1.403 . S
C3451 C3452 1.524 . S
C3451 C3455 1.400 . S
C3452 H3437 0.960 . S
C3452 H3438 0.960 . S
C3452 H3439 0.960 . S
C3452 C3451 1.524 . S
C3453 C3450 1.403 . S
C3453 C3454 1.392 . S
C3453 C3457 1.495 . S
C3454 C3453 1.392 . S
C3454 C3455 1.385 . S
C3454 C3456 1.478 . S
C3455 H3449 0.930 . S
C3455 C3451 1.400 . S
C3455 C3454 1.385 . S
C3456 C3454 1.478 . S
C3456 C3458 1.381 . S
C3456 C3462 1.383 . S
C3457 C3453 1.495 . S
C3457 H3463 0.959 . S
C3457 H3464 0.961 . S
C3457 H3465 0.960 . S
C3458 C3456 1.381 . S
C3458 C3459 1.394 . S
C3458 H3466 0.930 . S
C3459 C3458 1.394 . S
C3459 C3460 1.383 . S
C3459 H3467 0.929 . S
C3460 C3459 1.383 . S
C3460 C3461 1.377 . S
C3461 H3445 0.930 . S
C3461 C3460 1.377 . S
C3461 C3462 1.379 . S
C3462 H3446 0.931 . S
C3462 C3456 1.383 . S
C3462 C3461 1.379 . S
H3463 C3457 0.959 . S
H3464 C3457 0.961 . S
H3465 C3457 0.960 . S
H3466 C3458 0.930 . S
H3467 C3459 0.929 . S
H3468 C3476 0.929 . S
H3469 C3478 0.930 . S
H3470 C3480 0.930 . S
H3471 C3483 0.929 . S
H3472 C3486 0.930 . S
H3473 C3488 0.960 . S
H3474 C3488 0.960 . S
H3475 C3488 0.960 . S
C3476 H3468 0.929 . S
C3476 C3477 1.377 . S
C3476 C3478 1.384 . S
C3477 C3476 1.377 . S
C3477 C3483 1.390 . S
C3478 H3469 0.930 . S
C3478 C3476 1.384 . S
C3478 C3479 1.372 . S
C3479 C3478 1.372 . S
C3479 C3480 1.400 . S
C3479 C3484 1.490 . S
C3480 H3470 0.930 . S
C3480 C3479 1.400 . S
C3480 C3483 1.386 . S
H3481 C3497 0.930 . S
H3482 C3498 0.931 . S
C3483 H3471 0.929 . S
C3483 C3477 1.390 . S
C3483 C3480 1.386 . S
C3484 C3479 1.490 . S
C3484 C3486 1.395 . S
C3484 C3487 1.403 . S
H3485 C3491 0.930 . S
C3486 H3472 0.930 . S
C3486 C3484 1.395 . S
C3486 C3489 1.403 . S
C3487 C3484 1.403 . S
C3487 C3488 1.524 . S
C3487 C3491 1.400 . S
C3488 H3473 0.960 . S
C3488 H3474 0.960 . S
C3488 H3475 0.960 . S
C3488 C3487 1.524 . S
C3489 C3486 1.403 . S
C3489 C3490 1.392 . S
C3489 C3493 1.495 . S
C3490 C3489 1.392 . S
C3490 C3491 1.385 . S
C3490 C3492 1.478 . S
C3491 H3485 0.930 . S
C3491 C3487 1.400 . S
C3491 C3490 1.385 . S
C3492 C3490 1.478 . S
C3492 C3494 1.381 . S
C3492 C3498 1.383 . S
C3493 C3489 1.495 . S
C3493 H3499 0.959 . S
C3493 H3500 0.961 . S
C3493 H3501 0.960 . S
C3494 C3492 1.381 . S
C3494 C3495 1.394 . S
C3494 H3502 0.930 . S
C3495 C3494 1.394 . S
C3495 C3496 1.383 . S
C3495 H3503 0.929 . S
C3496 C3495 1.383 . S
C3496 C3497 1.377 . S
C3497 H3481 0.930 . S
C3497 C3496 1.377 . S
C3497 C3498 1.379 . S
C3498 H3482 0.931 . S
C3498 C3492 1.383 . S
C3498 C3497 1.379 . S
H3499 C3493 0.959 . S
H3500 C3493 0.961 . S
H3501 C3493 0.960 . S
H3502 C3494 0.930 . S
H3503 C3495 0.929 . S
H3504 C3512 0.929 . S
H3505 C3514 0.930 . S
H3506 C3516 0.930 . S
H3507 C3519 0.929 . S
H3508 C3522 0.930 . S
H3509 C3524 0.960 . S
H3510 C3524 0.960 . S
H3511 C3524 0.960 . S
C3512 H3504 0.929 . S
C3512 C3513 1.377 . S
C3512 C3514 1.384 . S
C3513 C3512 1.377 . S
C3513 C3519 1.390 . S
C3514 H3505 0.930 . S
C3514 C3512 1.384 . S
C3514 C3515 1.372 . S
C3515 C3514 1.372 . S
C3515 C3516 1.400 . S
C3515 C3520 1.490 . S
C3516 H3506 0.930 . S
C3516 C3515 1.400 . S
C3516 C3519 1.386 . S
H3517 C3533 0.930 . S
H3518 C3534 0.931 . S
C3519 H3507 0.929 . S
C3519 C3513 1.390 . S
C3519 C3516 1.386 . S
C3520 C3515 1.490 . S
C3520 C3522 1.395 . S
C3520 C3523 1.403 . S
H3521 C3527 0.930 . S
C3522 H3508 0.930 . S
C3522 C3520 1.395 . S
C3522 C3525 1.403 . S
C3523 C3520 1.403 . S
C3523 C3524 1.524 . S
C3523 C3527 1.400 . S
C3524 H3509 0.960 . S
C3524 H3510 0.960 . S
C3524 H3511 0.960 . S
C3524 C3523 1.524 . S
C3525 C3522 1.403 . S
C3525 C3526 1.392 . S
C3525 C3529 1.495 . S
C3526 C3525 1.392 . S
C3526 C3527 1.385 . S
C3526 C3528 1.478 . S
C3527 H3521 0.930 . S
C3527 C3523 1.400 . S
C3527 C3526 1.385 . S
C3528 C3526 1.478 . S
C3528 C3530 1.381 . S
C3528 C3534 1.383 . S
C3529 C3525 1.495 . S
C3529 H3535 0.959 . S
C3529 H3536 0.961 . S
C3529 H3537 0.960 . S
C3530 C3528 1.381 . S
C3530 C3531 1.394 . S
C3530 H3538 0.930 . S
C3531 C3530 1.394 . S
C3531 C3532 1.383 . S
C3531 H3539 0.929 . S
C3532 C3531 1.383 . S
C3532 C3533 1.377 . S
C3533 H3517 0.930 . S
C3533 C3532 1.377 . S
C3533 C3534 1.379 . S
C3534 H3518 0.931 . S
C3534 C3528 1.383 . S
C3534 C3533 1.379 . S
H3535 C3529 0.959 . S
H3536 C3529 0.961 . S
H3537 C3529 0.960 . S
H3538 C3530 0.930 . S
H3539 C3531 0.929 . S
H3540 C3548 0.929 . S
H3541 C3550 0.930 . S
H3542 C3552 0.930 . S
H3543 C3555 0.929 . S
H3544 C3558 0.930 . S
H3545 C3560 0.960 . S
H3546 C3560 0.960 . S
H3547 C3560 0.960 . S
C3548 H3540 0.929 . S
C3548 C3549 1.377 . S
C3548 C3550 1.384 . S
C3549 C3548 1.377 . S
C3549 C3555 1.390 . S
C3550 H3541 0.930 . S
C3550 C3548 1.384 . S
C3550 C3551 1.372 . S
C3551 C3550 1.372 . S
C3551 C3552 1.400 . S
C3551 C3556 1.490 . S
C3552 H3542 0.930 . S
C3552 C3551 1.400 . S
C3552 C3555 1.386 . S
H3553 C3569 0.930 . S
H3554 C3570 0.931 . S
C3555 H3543 0.929 . S
C3555 C3549 1.390 . S
C3555 C3552 1.386 . S
C3556 C3551 1.490 . S
C3556 C3558 1.395 . S
C3556 C3559 1.403 . S
H3557 C3563 0.930 . S
C3558 H3544 0.930 . S
C3558 C3556 1.395 . S
C3558 C3561 1.403 . S
C3559 C3556 1.403 . S
C3559 C3560 1.524 . S
C3559 C3563 1.400 . S
C3560 H3545 0.960 . S
C3560 H3546 0.960 . S
C3560 H3547 0.960 . S
C3560 C3559 1.524 . S
C3561 C3558 1.403 . S
C3561 C3562 1.392 . S
C3561 C3565 1.495 . S
C3562 C3561 1.392 . S
C3562 C3563 1.385 . S
C3562 C3564 1.478 . S
C3563 H3557 0.930 . S
C3563 C3559 1.400 . S
C3563 C3562 1.385 . S
C3564 C3562 1.478 . S
C3564 C3566 1.381 . S
C3564 C3570 1.383 . S
C3565 C3561 1.495 . S
C3565 H3571 0.959 . S
C3565 H3572 0.961 . S
C3565 H3573 0.960 . S
C3566 C3564 1.381 . S
C3566 C3567 1.394 . S
C3566 H3574 0.930 . S
C3567 C3566 1.394 . S
C3567 C3568 1.383 . S
C3567 H3575 0.929 . S
C3568 C3567 1.383 . S
C3568 C3569 1.377 . S
C3569 H3553 0.930 . S
C3569 C3568 1.377 . S
C3569 C3570 1.379 . S
C3570 H3554 0.931 . S
C3570 C3564 1.383 . S
C3570 C3569 1.379 . S
H3571 C3565 0.959 . S
H3572 C3565 0.961 . S
H3573 C3565 0.960 . S
H3574 C3566 0.930 . S
H3575 C3567 0.929 . S
H3576 C3584 0.929 . S
H3577 C3586 0.930 . S
H3578 C3588 0.930 . S
H3579 C3591 0.929 . S
H3580 C3594 0.930 . S
H3581 C3596 0.960 . S
H3582 C3596 0.960 . S
H3583 C3596 0.960 . S
C3584 H3576 0.929 . S
C3584 C3585 1.377 . S
C3584 C3586 1.384 . S
C3585 C3584 1.377 . S
C3585 C3591 1.390 . S
C3586 H3577 0.930 . S
C3586 C3584 1.384 . S
C3586 C3587 1.372 . S
C3587 C3586 1.372 . S
C3587 C3588 1.400 . S
C3587 C3592 1.490 . S
C3588 H3578 0.930 . S
C3588 C3587 1.400 . S
C3588 C3591 1.386 . S
H3589 C3605 0.930 . S
H3590 C3606 0.931 . S
C3591 H3579 0.929 . S
C3591 C3585 1.390 . S
C3591 C3588 1.386 . S
C3592 C3587 1.490 . S
C3592 C3594 1.395 . S
C3592 C3595 1.403 . S
H3593 C3599 0.930 . S
C3594 H3580 0.930 . S
C3594 C3592 1.395 . S
C3594 C3597 1.403 . S
C3595 C3592 1.403 . S
C3595 C3596 1.524 . S
C3595 C3599 1.400 . S
C3596 H3581 0.960 . S
C3596 H3582 0.960 . S
C3596 H3583 0.960 . S
C3596 C3595 1.524 . S
C3597 C3594 1.403 . S
C3597 C3598 1.392 . S
C3597 C3601 1.495 . S
C3598 C3597 1.392 . S
C3598 C3599 1.385 . S
C3598 C3600 1.478 . S
C3599 H3593 0.930 . S
C3599 C3595 1.400 . S
C3599 C3598 1.385 . S
C3600 C3598 1.478 . S
C3600 C3602 1.381 . S
C3600 C3606 1.383 . S
C3601 C3597 1.495 . S
C3601 H3607 0.959 . S
C3601 H3608 0.961 . S
C3601 H3609 0.960 . S
C3602 C3600 1.381 . S
C3602 C3603 1.394 . S
C3602 H3610 0.930 . S
C3603 C3602 1.394 . S
C3603 C3604 1.383 . S
C3603 H3611 0.929 . S
C3604 C3603 1.383 . S
C3604 C3605 1.377 . S
C3605 H3589 0.930 . S
C3605 C3604 1.377 . S
C3605 C3606 1.379 . S
C3606 H3590 0.931 . S
C3606 C3600 1.383 . S
C3606 C3605 1.379 . S
H3607 C3601 0.959 . S
H3608 C3601 0.961 . S
H3609 C3601 0.960 . S
H3610 C3602 0.930 . S
H3611 C3603 0.929 . S
H3612 C3620 0.929 . S
H3613 C3622 0.930 . S
H3614 C3624 0.930 . S
H3615 C3627 0.929 . S
H3616 C3630 0.930 . S
H3617 C3632 0.960 . S
H3618 C3632 0.960 . S
H3619 C3632 0.960 . S
C3620 H3612 0.929 . S
C3620 C3621 1.377 . S
C3620 C3622 1.384 . S
C3621 C3620 1.377 . S
C3621 C3627 1.390 . S
C3622 H3613 0.930 . S
C3622 C3620 1.384 . S
C3622 C3623 1.372 . S
C3623 C3622 1.372 . S
C3623 C3624 1.400 . S
C3623 C3628 1.490 . S
C3624 H3614 0.930 . S
C3624 C3623 1.400 . S
C3624 C3627 1.386 . S
H3625 C3641 0.930 . S
H3626 C3642 0.931 . S
C3627 H3615 0.929 . S
C3627 C3621 1.390 . S
C3627 C3624 1.386 . S
C3628 C3623 1.490 . S
C3628 C3630 1.395 . S
C3628 C3631 1.403 . S
H3629 C3635 0.930 . S
C3630 H3616 0.930 . S
C3630 C3628 1.395 . S
C3630 C3633 1.403 . S
C3631 C3628 1.403 . S
C3631 C3632 1.524 . S
C3631 C3635 1.400 . S
C3632 H3617 0.960 . S
C3632 H3618 0.960 . S
C3632 H3619 0.960 . S
C3632 C3631 1.524 . S
C3633 C3630 1.403 . S
C3633 C3634 1.392 . S
C3633 C3637 1.495 . S
C3634 C3633 1.392 . S
C3634 C3635 1.385 . S
C3634 C3636 1.478 . S
C3635 H3629 0.930 . S
C3635 C3631 1.400 . S
C3635 C3634 1.385 . S
C3636 C3634 1.478 . S
C3636 C3638 1.381 . S
C3636 C3642 1.383 . S
C3637 C3633 1.495 . S
C3637 H3643 0.959 . S
C3637 H3644 0.961 . S
C3637 H3645 0.960 . S
C3638 C3636 1.381 . S
C3638 C3639 1.394 . S
C3638 H3646 0.930 . S
C3639 C3638 1.394 . S
C3639 C3640 1.383 . S
C3639 H3647 0.929 . S
C3640 C3639 1.383 . S
C3640 C3641 1.377 . S
C3641 H3625 0.930 . S
C3641 C3640 1.377 . S
C3641 C3642 1.379 . S
C3642 H3626 0.931 . S
C3642 C3636 1.383 . S
C3642 C3641 1.379 . S
H3643 C3637 0.959 . S
H3644 C3637 0.961 . S
H3645 C3637 0.960 . S
H3646 C3638 0.930 . S
H3647 C3639 0.929 . S
H3648 C3656 0.929 . S
H3649 C3658 0.930 . S
H3650 C3660 0.930 . S
H3651 C3663 0.929 . S
H3652 C3666 0.930 . S
H3653 C3668 0.960 . S
H3654 C3668 0.960 . S
H3655 C3668 0.960 . S
C3656 H3648 0.929 . S
C3656 C3657 1.377 . S
C3656 C3658 1.384 . S
C3657 C3656 1.377 . S
C3657 C3663 1.390 . S
C3658 H3649 0.930 . S
C3658 C3656 1.384 . S
C3658 C3659 1.372 . S
C3659 C3658 1.372 . S
C3659 C3660 1.400 . S
C3659 C3664 1.490 . S
C3660 H3650 0.930 . S
C3660 C3659 1.400 . S
C3660 C3663 1.386 . S
H3661 C3677 0.930 . S
H3662 C3678 0.931 . S
C3663 H3651 0.929 . S
C3663 C3657 1.390 . S
C3663 C3660 1.386 . S
C3664 C3659 1.490 . S
C3664 C3666 1.395 . S
C3664 C3667 1.403 . S
H3665 C3671 0.930 . S
C3666 H3652 0.930 . S
C3666 C3664 1.395 . S
C3666 C3669 1.403 . S
C3667 C3664 1.403 . S
C3667 C3668 1.524 . S
C3667 C3671 1.400 . S
C3668 H3653 0.960 . S
C3668 H3654 0.960 . S
C3668 H3655 0.960 . S
C3668 C3667 1.524 . S
C3669 C3666 1.403 . S
C3669 C3670 1.392 . S
C3669 C3673 1.495 . S
C3670 C3669 1.392 . S
C3670 C3671 1.385 . S
C3670 C3672 1.478 . S
C3671 H3665 0.930 . S
C3671 C3667 1.400 . S
C3671 C3670 1.385 . S
C3672 C3670 1.478 . S
C3672 C3674 1.381 . S
C3672 C3678 1.383 . S
C3673 C3669 1.495 . S
C3673 H3679 0.959 . S
C3673 H3680 0.961 . S
C3673 H3681 0.960 . S
C3674 C3672 1.381 . S
C3674 C3675 1.394 . S
C3674 H3682 0.930 . S
C3675 C3674 1.394 . S
C3675 C3676 1.383 . S
C3675 H3683 0.929 . S
C3676 C3675 1.383 . S
C3676 C3677 1.377 . S
C3677 H3661 0.930 . S
C3677 C3676 1.377 . S
C3677 C3678 1.379 . S
C3678 H3662 0.931 . S
C3678 C3672 1.383 . S
C3678 C3677 1.379 . S
H3679 C3673 0.959 . S
H3680 C3673 0.961 . S
H3681 C3673 0.960 . S
H3682 C3674 0.930 . S
H3683 C3675 0.929 . S
H3684 C3692 0.929 . S
H3685 C3694 0.930 . S
H3686 C3696 0.930 . S
H3687 C3699 0.929 . S
H3688 C3702 0.930 . S
H3689 C3704 0.960 . S
H3690 C3704 0.960 . S
H3691 C3704 0.960 . S
C3692 H3684 0.929 . S
C3692 C3693 1.377 . S
C3692 C3694 1.384 . S
C3693 C3692 1.377 . S
C3693 C3699 1.390 . S
C3694 H3685 0.930 . S
C3694 C3692 1.384 . S
C3694 C3695 1.372 . S
C3695 C3694 1.372 . S
C3695 C3696 1.400 . S
C3695 C3700 1.490 . S
C3696 H3686 0.930 . S
C3696 C3695 1.400 . S
C3696 C3699 1.386 . S
H3697 C3713 0.930 . S
H3698 C3714 0.931 . S
C3699 H3687 0.929 . S
C3699 C3693 1.390 . S
C3699 C3696 1.386 . S
C3700 C3695 1.490 . S
C3700 C3702 1.395 . S
C3700 C3703 1.403 . S
H3701 C3707 0.930 . S
C3702 H3688 0.930 . S
C3702 C3700 1.395 . S
C3702 C3705 1.403 . S
C3703 C3700 1.403 . S
C3703 C3704 1.524 . S
C3703 C3707 1.400 . S
C3704 H3689 0.960 . S
C3704 H3690 0.960 . S
C3704 H3691 0.960 . S
C3704 C3703 1.524 . S
C3705 C3702 1.403 . S
C3705 C3706 1.392 . S
C3705 C3709 1.495 . S
C3706 C3705 1.392 . S
C3706 C3707 1.385 . S
C3706 C3708 1.478 . S
C3707 H3701 0.930 . S
C3707 C3703 1.400 . S
C3707 C3706 1.385 . S
C3708 C3706 1.478 . S
C3708 C3710 1.381 . S
C3708 C3714 1.383 . S
C3709 C3705 1.495 . S
C3709 H3715 0.959 . S
C3709 H3716 0.961 . S
C3709 H3717 0.960 . S
C3710 C3708 1.381 . S
C3710 C3711 1.394 . S
C3710 H3718 0.930 . S
C3711 C3710 1.394 . S
C3711 C3712 1.383 . S
C3711 H3719 0.929 . S
C3712 C3711 1.383 . S
C3712 C3713 1.377 . S
C3713 H3697 0.930 . S
C3713 C3712 1.377 . S
C3713 C3714 1.379 . S
C3714 H3698 0.931 . S
C3714 C3708 1.383 . S
C3714 C3713 1.379 . S
H3715 C3709 0.959 . S
H3716 C3709 0.961 . S
H3717 C3709 0.960 . S
H3718 C3710 0.930 . S
H3719 C3711 0.929 . S
H3720 C3728 0.929 . S
H3721 C3730 0.930 . S
H3722 C3732 0.930 . S
H3723 C3735 0.929 . S
H3724 C3738 0.930 . S
H3725 C3740 0.960 . S
H3726 C3740 0.960 . S
H3727 C3740 0.960 . S
C3728 H3720 0.929 . S
C3728 C3729 1.377 . S
C3728 C3730 1.384 . S
C3729 C3728 1.377 . S
C3729 C3735 1.390 . S
C3730 H3721 0.930 . S
C3730 C3728 1.384 . S
C3730 C3731 1.372 . S
C3731 C3730 1.372 . S
C3731 C3732 1.400 . S
C3731 C3736 1.490 . S
C3732 H3722 0.930 . S
C3732 C3731 1.400 . S
C3732 C3735 1.386 . S
H3733 C3749 0.930 . S
H3734 C3750 0.931 . S
C3735 H3723 0.929 . S
C3735 C3729 1.390 . S
C3735 C3732 1.386 . S
C3736 C3731 1.490 . S
C3736 C3738 1.395 . S
C3736 C3739 1.403 . S
H3737 C3743 0.930 . S
C3738 H3724 0.930 . S
C3738 C3736 1.395 . S
C3738 C3741 1.403 . S
C3739 C3736 1.403 . S
C3739 C3740 1.524 . S
C3739 C3743 1.400 . S
C3740 H3725 0.960 . S
C3740 H3726 0.960 . S
C3740 H3727 0.960 . S
C3740 C3739 1.524 . S
C3741 C3738 1.403 . S
C3741 C3742 1.392 . S
C3741 C3745 1.495 . S
C3742 C3741 1.392 . S
C3742 C3743 1.385 . S
C3742 C3744 1.478 . S
C3743 H3737 0.930 . S
C3743 C3739 1.400 . S
C3743 C3742 1.385 . S
C3744 C3742 1.478 . S
C3744 C3746 1.381 . S
C3744 C3750 1.383 . S
C3745 C3741 1.495 . S
C3745 H3751 0.959 . S
C3745 H3752 0.961 . S
C3745 H3753 0.960 . S
C3746 C3744 1.381 . S
C3746 C3747 1.394 . S
C3746 H3754 0.930 . S
C3747 C3746 1.394 . S
C3747 C3748 1.383 . S
C3747 H3755 0.929 . S
C3748 C3747 1.383 . S
C3748 C3749 1.377 . S
C3749 H3733 0.930 . S
C3749 C3748 1.377 . S
C3749 C3750 1.379 . S
C3750 H3734 0.931 . S
C3750 C3744 1.383 . S
C3750 C3749 1.379 . S
H3751 C3745 0.959 . S
H3752 C3745 0.961 . S
H3753 C3745 0.960 . S
H3754 C3746 0.930 . S
H3755 C3747 0.929 . S
H3756 C3764 0.929 . S
H3757 C3766 0.930 . S
H3758 C3768 0.930 . S
H3759 C3771 0.929 . S
H3760 C3774 0.930 . S
H3761 C3776 0.960 . S
H3762 C3776 0.960 . S
H3763 C3776 0.960 . S
C3764 H3756 0.929 . S
C3764 C3765 1.377 . S
C3764 C3766 1.384 . S
C3765 C3764 1.377 . S
C3765 C3771 1.390 . S
C3766 H3757 0.930 . S
C3766 C3764 1.384 . S
C3766 C3767 1.372 . S
C3767 C3766 1.372 . S
C3767 C3768 1.400 . S
C3767 C3772 1.490 . S
C3768 H3758 0.930 . S
C3768 C3767 1.400 . S
C3768 C3771 1.386 . S
H3769 C3785 0.930 . S
H3770 C3786 0.931 . S
C3771 H3759 0.929 . S
C3771 C3765 1.390 . S
C3771 C3768 1.386 . S
C3772 C3767 1.490 . S
C3772 C3774 1.395 . S
C3772 C3775 1.403 . S
H3773 C3779 0.930 . S
C3774 H3760 0.930 . S
C3774 C3772 1.395 . S
C3774 C3777 1.403 . S
C3775 C3772 1.403 . S
C3775 C3776 1.524 . S
C3775 C3779 1.400 . S
C3776 H3761 0.960 . S
C3776 H3762 0.960 . S
C3776 H3763 0.960 . S
C3776 C3775 1.524 . S
C3777 C3774 1.403 . S
C3777 C3778 1.392 . S
C3777 C3781 1.495 . S
C3778 C3777 1.392 . S
C3778 C3779 1.385 . S
C3778 C3780 1.478 . S
C3779 H3773 0.930 . S
C3779 C3775 1.400 . S
C3779 C3778 1.385 . S
C3780 C3778 1.478 . S
C3780 C3782 1.381 . S
C3780 C3786 1.383 . S
C3781 C3777 1.495 . S
C3781 H3787 0.959 . S
C3781 H3788 0.961 . S
C3781 H3789 0.960 . S
C3782 C3780 1.381 . S
C3782 C3783 1.394 . S
C3782 H3790 0.930 . S
C3783 C3782 1.394 . S
C3783 C3784 1.383 . S
C3783 H3791 0.929 . S
C3784 C3783 1.383 . S
C3784 C3785 1.377 . S
C3785 H3769 0.930 . S
C3785 C3784 1.377 . S
C3785 C3786 1.379 . S
C3786 H3770 0.931 . S
C3786 C3780 1.383 . S
C3786 C3785 1.379 . S
H3787 C3781 0.959 . S
H3788 C3781 0.961 . S
H3789 C3781 0.960 . S
H3790 C3782 0.930 . S
H3791 C3783 0.929 . S
H3792 C3800 0.929 . S
H3793 C3802 0.930 . S
H3794 C3804 0.930 . S
H3795 C3807 0.929 . S
H3796 C3810 0.930 . S
H3797 C3812 0.960 . S
H3798 C3812 0.960 . S
H3799 C3812 0.960 . S
C3800 H3792 0.929 . S
C3800 C3801 1.377 . S
C3800 C3802 1.384 . S
C3801 C3800 1.377 . S
C3801 C3807 1.390 . S
C3802 H3793 0.930 . S
C3802 C3800 1.384 . S
C3802 C3803 1.372 . S
C3803 C3802 1.372 . S
C3803 C3804 1.400 . S
C3803 C3808 1.490 . S
C3804 H3794 0.930 . S
C3804 C3803 1.400 . S
C3804 C3807 1.386 . S
H3805 C3821 0.930 . S
H3806 C3822 0.931 . S
C3807 H3795 0.929 . S
C3807 C3801 1.390 . S
C3807 C3804 1.386 . S
C3808 C3803 1.490 . S
C3808 C3810 1.395 . S
C3808 C3811 1.403 . S
H3809 C3815 0.930 . S
C3810 H3796 0.930 . S
C3810 C3808 1.395 . S
C3810 C3813 1.403 . S
C3811 C3808 1.403 . S
C3811 C3812 1.524 . S
C3811 C3815 1.400 . S
C3812 H3797 0.960 . S
C3812 H3798 0.960 . S
C3812 H3799 0.960 . S
C3812 C3811 1.524 . S
C3813 C3810 1.403 . S
C3813 C3814 1.392 . S
C3813 C3817 1.495 . S
C3814 C3813 1.392 . S
C3814 C3815 1.385 . S
C3814 C3816 1.478 . S
C3815 H3809 0.930 . S
C3815 C3811 1.400 . S
C3815 C3814 1.385 . S
C3816 C3814 1.478 . S
C3816 C3818 1.381 . S
C3816 C3822 1.383 . S
C3817 C3813 1.495 . S
C3817 H3823 0.959 . S
C3817 H3824 0.961 . S
C3817 H3825 0.960 . S
C3818 C3816 1.381 . S
C3818 C3819 1.394 . S
C3818 H3826 0.930 . S
C3819 C3818 1.394 . S
C3819 C3820 1.383 . S
C3819 H3827 0.929 . S
C3820 C3819 1.383 . S
C3820 C3821 1.377 . S
C3821 H3805 0.930 . S
C3821 C3820 1.377 . S
C3821 C3822 1.379 . S
C3822 H3806 0.931 . S
C3822 C3816 1.383 . S
C3822 C3821 1.379 . S
H3823 C3817 0.959 . S
H3824 C3817 0.961 . S
H3825 C3817 0.960 . S
H3826 C3818 0.930 . S
H3827 C3819 0.929 . S
H3828 C3836 0.929 . S
H3829 C3838 0.930 . S
H3830 C3840 0.930 . S
H3831 C3843 0.929 . S
H3832 C3846 0.930 . S
H3833 C3848 0.960 . S
H3834 C3848 0.960 . S
H3835 C3848 0.960 . S
C3836 H3828 0.929 . S
C3836 C3837 1.377 . S
C3836 C3838 1.384 . S
C3837 C3836 1.377 . S
C3837 C3843 1.390 . S
C3838 H3829 0.930 . S
C3838 C3836 1.384 . S
C3838 C3839 1.372 . S
C3839 C3838 1.372 . S
C3839 C3840 1.400 . S
C3839 C3844 1.490 . S
C3840 H3830 0.930 . S
C3840 C3839 1.400 . S
C3840 C3843 1.386 . S
H3841 C3857 0.930 . S
H3842 C3858 0.931 . S
C3843 H3831 0.929 . S
C3843 C3837 1.390 . S
C3843 C3840 1.386 . S
C3844 C3839 1.490 . S
C3844 C3846 1.395 . S
C3844 C3847 1.403 . S
H3845 C3851 0.930 . S
C3846 H3832 0.930 . S
C3846 C3844 1.395 . S
C3846 C3849 1.403 . S
C3847 C3844 1.403 . S
C3847 C3848 1.524 . S
C3847 C3851 1.400 . S
C3848 H3833 0.960 . S
C3848 H3834 0.960 . S
C3848 H3835 0.960 . S
C3848 C3847 1.524 . S
C3849 C3846 1.403 . S
C3849 C3850 1.392 . S
C3849 C3853 1.495 . S
C3850 C3849 1.392 . S
C3850 C3851 1.385 . S
C3850 C3852 1.478 . S
C3851 H3845 0.930 . S
C3851 C3847 1.400 . S
C3851 C3850 1.385 . S
C3852 C3850 1.478 . S
C3852 C3854 1.381 . S
C3852 C3858 1.383 . S
C3853 C3849 1.495 . S
C3853 H3859 0.959 . S
C3853 H3860 0.961 . S
C3853 H3861 0.960 . S
C3854 C3852 1.381 . S
C3854 C3855 1.394 . S
C3854 H3862 0.930 . S
C3855 C3854 1.394 . S
C3855 C3856 1.383 . S
C3855 H3863 0.929 . S
C3856 C3855 1.383 . S
C3856 C3857 1.377 . S
C3857 H3841 0.930 . S
C3857 C3856 1.377 . S
C3857 C3858 1.379 . S
C3858 H3842 0.931 . S
C3858 C3852 1.383 . S
C3858 C3857 1.379 . S
H3859 C3853 0.959 . S
H3860 C3853 0.961 . S
H3861 C3853 0.960 . S
H3862 C3854 0.930 . S
H3863 C3855 0.929 . S
H3864 C3872 0.929 . S
H3865 C3874 0.930 . S
H3866 C3876 0.930 . S
H3867 C3879 0.929 . S
H3868 C3882 0.930 . S
H3869 C3884 0.960 . S
H3870 C3884 0.960 . S
H3871 C3884 0.960 . S
C3872 H3864 0.929 . S
C3872 C3873 1.377 . S
C3872 C3874 1.384 . S
C3873 C3872 1.377 . S
C3873 C3879 1.390 . S
C3874 H3865 0.930 . S
C3874 C3872 1.384 . S
C3874 C3875 1.372 . S
C3875 C3874 1.372 . S
C3875 C3876 1.400 . S
C3875 C3880 1.490 . S
C3876 H3866 0.930 . S
C3876 C3875 1.400 . S
C3876 C3879 1.386 . S
H3877 C3893 0.930 . S
H3878 C3894 0.931 . S
C3879 H3867 0.929 . S
C3879 C3873 1.390 . S
C3879 C3876 1.386 . S
C3880 C3875 1.490 . S
C3880 C3882 1.395 . S
C3880 C3883 1.403 . S
H3881 C3887 0.930 . S
C3882 H3868 0.930 . S
C3882 C3880 1.395 . S
C3882 C3885 1.403 . S
C3883 C3880 1.403 . S
C3883 C3884 1.524 . S
C3883 C3887 1.400 . S
C3884 H3869 0.960 . S
C3884 H3870 0.960 . S
C3884 H3871 0.960 . S
C3884 C3883 1.524 . S
C3885 C3882 1.403 . S
C3885 C3886 1.392 . S
C3885 C3889 1.495 . S
C3886 C3885 1.392 . S
C3886 C3887 1.385 . S
C3886 C3888 1.478 . S
C3887 H3881 0.930 . S
C3887 C3883 1.400 . S
C3887 C3886 1.385 . S
C3888 C3886 1.478 . S
C3888 C3890 1.381 . S
C3888 C3894 1.383 . S
C3889 C3885 1.495 . S
C3889 H3895 0.959 . S
C3889 H3896 0.961 . S
C3889 H3897 0.960 . S
C3890 C3888 1.381 . S
C3890 C3891 1.394 . S
C3890 H3898 0.930 . S
C3891 C3890 1.394 . S
C3891 C3892 1.383 . S
C3891 H3899 0.929 . S
C3892 C3891 1.383 . S
C3892 C3893 1.377 . S
C3893 H3877 0.930 . S
C3893 C3892 1.377 . S
C3893 C3894 1.379 . S
C3894 H3878 0.931 . S
C3894 C3888 1.383 . S
C3894 C3893 1.379 . S
H3895 C3889 0.959 . S
H3896 C3889 0.961 . S
H3897 C3889 0.960 . S
H3898 C3890 0.930 . S
H3899 C3891 0.929 . S
H3900 C3908 0.929 . S
H3901 C3910 0.930 . S
H3902 C3912 0.930 . S
H3903 C3915 0.929 . S
H3904 C3918 0.930 . S
H3905 C3920 0.960 . S
H3906 C3920 0.960 . S
H3907 C3920 0.960 . S
C3908 H3900 0.929 . S
C3908 C3909 1.377 . S
C3908 C3910 1.384 . S
C3909 C3908 1.377 . S
C3909 C3915 1.390 . S
C3910 H3901 0.930 . S
C3910 C3908 1.384 . S
C3910 C3911 1.372 . S
C3911 C3910 1.372 . S
C3911 C3912 1.400 . S
C3911 C3916 1.490 . S
C3912 H3902 0.930 . S
C3912 C3911 1.400 . S
C3912 C3915 1.386 . S
H3913 C3929 0.930 . S
H3914 C3930 0.931 . S
C3915 H3903 0.929 . S
C3915 C3909 1.390 . S
C3915 C3912 1.386 . S
C3916 C3911 1.490 . S
C3916 C3918 1.395 . S
C3916 C3919 1.403 . S
H3917 C3923 0.930 . S
C3918 H3904 0.930 . S
C3918 C3916 1.395 . S
C3918 C3921 1.403 . S
C3919 C3916 1.403 . S
C3919 C3920 1.524 . S
C3919 C3923 1.400 . S
C3920 H3905 0.960 . S
C3920 H3906 0.960 . S
C3920 H3907 0.960 . S
C3920 C3919 1.524 . S
C3921 C3918 1.403 . S
C3921 C3922 1.392 . S
C3921 C3925 1.495 . S
C3922 C3921 1.392 . S
C3922 C3923 1.385 . S
C3922 C3924 1.478 . S
C3923 H3917 0.930 . S
C3923 C3919 1.400 . S
C3923 C3922 1.385 . S
C3924 C3922 1.478 . S
C3924 C3926 1.381 . S
C3924 C3930 1.383 . S
C3925 C3921 1.495 . S
C3925 H3931 0.959 . S
C3925 H3932 0.961 . S
C3925 H3933 0.960 . S
C3926 C3924 1.381 . S
C3926 C3927 1.394 . S
C3926 H3934 0.930 . S
C3927 C3926 1.394 . S
C3927 C3928 1.383 . S
C3927 H3935 0.929 . S
C3928 C3927 1.383 . S
C3928 C3929 1.377 . S
C3929 H3913 0.930 . S
C3929 C3928 1.377 . S
C3929 C3930 1.379 . S
C3930 H3914 0.931 . S
C3930 C3924 1.383 . S
C3930 C3929 1.379 . S
H3931 C3925 0.959 . S
H3932 C3925 0.961 . S
H3933 C3925 0.960 . S
H3934 C3926 0.930 . S
H3935 C3927 0.929 . S
H3936 C3944 0.929 . S
H3937 C3946 0.930 . S
H3938 C3948 0.930 . S
H3939 C3951 0.929 . S
H3940 C3954 0.930 . S
H3941 C3956 0.960 . S
H3942 C3956 0.960 . S
H3943 C3956 0.960 . S
C3944 H3936 0.929 . S
C3944 C3945 1.377 . S
C3944 C3946 1.384 . S
C3945 C3944 1.377 . S
C3945 C3951 1.390 . S
C3946 H3937 0.930 . S
C3946 C3944 1.384 . S
C3946 C3947 1.372 . S
C3947 C3946 1.372 . S
C3947 C3948 1.400 . S
C3947 C3952 1.490 . S
C3948 H3938 0.930 . S
C3948 C3947 1.400 . S
C3948 C3951 1.386 . S
H3949 C3965 0.930 . S
H3950 C3966 0.931 . S
C3951 H3939 0.929 . S
C3951 C3945 1.390 . S
C3951 C3948 1.386 . S
C3952 C3947 1.490 . S
C3952 C3954 1.395 . S
C3952 C3955 1.403 . S
H3953 C3959 0.930 . S
C3954 H3940 0.930 . S
C3954 C3952 1.395 . S
C3954 C3957 1.403 . S
C3955 C3952 1.403 . S
C3955 C3956 1.524 . S
C3955 C3959 1.400 . S
C3956 H3941 0.960 . S
C3956 H3942 0.960 . S
C3956 H3943 0.960 . S
C3956 C3955 1.524 . S
C3957 C3954 1.403 . S
C3957 C3958 1.392 . S
C3957 C3961 1.495 . S
C3958 C3957 1.392 . S
C3958 C3959 1.385 . S
C3958 C3960 1.478 . S
C3959 H3953 0.930 . S
C3959 C3955 1.400 . S
C3959 C3958 1.385 . S
C3960 C3958 1.478 . S
C3960 C3962 1.381 . S
C3960 C3966 1.383 . S
C3961 C3957 1.495 . S
C3961 H3967 0.959 . S
C3961 H3968 0.961 . S
C3961 H3969 0.960 . S
C3962 C3960 1.381 . S
C3962 C3963 1.394 . S
C3962 H3970 0.930 . S
C3963 C3962 1.394 . S
C3963 C3964 1.383 . S
C3963 H3971 0.929 . S
C3964 C3963 1.383 . S
C3964 C3965 1.377 . S
C3965 H3949 0.930 . S
C3965 C3964 1.377 . S
C3965 C3966 1.379 . S
C3966 H3950 0.931 . S
C3966 C3960 1.383 . S
C3966 C3965 1.379 . S
H3967 C3961 0.959 . S
H3968 C3961 0.961 . S
H3969 C3961 0.960 . S
H3970 C3962 0.930 . S
H3971 C3963 0.929 . S
H3972 C3980 0.929 . S
H3973 C3982 0.930 . S
H3974 C3984 0.930 . S
H3975 C3987 0.929 . S
H3976 C3990 0.930 . S
H3977 C3992 0.960 . S
H3978 C3992 0.960 . S
H3979 C3992 0.960 . S
C3980 H3972 0.929 . S
C3980 C3981 1.377 . S
C3980 C3982 1.384 . S
C3981 C3980 1.377 . S
C3981 C3987 1.390 . S
C3982 H3973 0.930 . S
C3982 C3980 1.384 . S
C3982 C3983 1.372 . S
C3983 C3982 1.372 . S
C3983 C3984 1.400 . S
C3983 C3988 1.490 . S
C3984 H3974 0.930 . S
C3984 C3983 1.400 . S
C3984 C3987 1.386 . S
H3985 C4001 0.930 . S
H3986 C4002 0.931 . S
C3987 H3975 0.929 . S
C3987 C3981 1.390 . S
C3987 C3984 1.386 . S
C3988 C3983 1.490 . S
C3988 C3990 1.395 . S
C3988 C3991 1.403 . S
H3989 C3995 0.930 . S
C3990 H3976 0.930 . S
C3990 C3988 1.395 . S
C3990 C3993 1.403 . S
C3991 C3988 1.403 . S
C3991 C3992 1.524 . S
C3991 C3995 1.400 . S
C3992 H3977 0.960 . S
C3992 H3978 0.960 . S
C3992 H3979 0.960 . S
C3992 C3991 1.524 . S
C3993 C3990 1.403 . S
C3993 C3994 1.392 . S
C3993 C3997 1.495 . S
C3994 C3993 1.392 . S
C3994 C3995 1.385 . S
C3994 C3996 1.478 . S
C3995 H3989 0.930 . S
C3995 C3991 1.400 . S
C3995 C3994 1.385 . S
C3996 C3994 1.478 . S
C3996 C3998 1.381 . S
C3996 C4002 1.383 . S
C3997 C3993 1.495 . S
C3997 H4003 0.959 . S
C3997 H4004 0.961 . S
C3997 H4005 0.960 . S
C3998 C3996 1.381 . S
C3998 C3999 1.394 . S
C3998 H4006 0.930 . S
C3999 C3998 1.394 . S
C3999 C4000 1.383 . S
C3999 H4007 0.929 . S
C4000 C3999 1.383 . S
C4000 C4001 1.377 . S
C4001 H3985 0.930 . S
C4001 C4000 1.377 . S
C4001 C4002 1.379 . S
C4002 H3986 0.931 . S
C4002 C3996 1.383 . S
C4002 C4001 1.379 . S
H4003 C3997 0.959 . S
H4004 C3997 0.961 . S
H4005 C3997 0.960 . S
H4006 C3998 0.930 . S
H4007 C3999 0.929 . S
H4008 C4016 0.929 . S
H4009 C4018 0.930 . S
H4010 C4020 0.930 . S
H4011 C4023 0.929 . S
H4012 C4026 0.930 . S
H4013 C4028 0.960 . S
H4014 C4028 0.960 . S
H4015 C4028 0.960 . S
C4016 H4008 0.929 . S
C4016 C4017 1.377 . S
C4016 C4018 1.384 . S
C4017 C4016 1.377 . S
C4017 C4023 1.390 . S
C4018 H4009 0.930 . S
C4018 C4016 1.384 . S
C4018 C4019 1.372 . S
C4019 C4018 1.372 . S
C4019 C4020 1.400 . S
C4019 C4024 1.490 . S
C4020 H4010 0.930 . S
C4020 C4019 1.400 . S
C4020 C4023 1.386 . S
H4021 C4037 0.930 . S
H4022 C4038 0.931 . S
C4023 H4011 0.929 . S
C4023 C4017 1.390 . S
C4023 C4020 1.386 . S
C4024 C4019 1.490 . S
C4024 C4026 1.395 . S
C4024 C4027 1.403 . S
H4025 C4031 0.930 . S
C4026 H4012 0.930 . S
C4026 C4024 1.395 . S
C4026 C4029 1.403 . S
C4027 C4024 1.403 . S
C4027 C4028 1.524 . S
C4027 C4031 1.400 . S
C4028 H4013 0.960 . S
C4028 H4014 0.960 . S
C4028 H4015 0.960 . S
C4028 C4027 1.524 . S
C4029 C4026 1.403 . S
C4029 C4030 1.392 . S
C4029 C4033 1.495 . S
C4030 C4029 1.392 . S
C4030 C4031 1.385 . S
C4030 C4032 1.478 . S
C4031 H4025 0.930 . S
C4031 C4027 1.400 . S
C4031 C4030 1.385 . S
C4032 C4030 1.478 . S
C4032 C4034 1.381 . S
C4032 C4038 1.383 . S
C4033 C4029 1.495 . S
C4033 H4039 0.959 . S
C4033 H4040 0.961 . S
C4033 H4041 0.960 . S
C4034 C4032 1.381 . S
C4034 C4035 1.394 . S
C4034 H4042 0.930 . S
C4035 C4034 1.394 . S
C4035 C4036 1.383 . S
C4035 H4043 0.929 . S
C4036 C4035 1.383 . S
C4036 C4037 1.377 . S
C4037 H4021 0.930 . S
C4037 C4036 1.377 . S
C4037 C4038 1.379 . S
C4038 H4022 0.931 . S
C4038 C4032 1.383 . S
C4038 C4037 1.379 . S
H4039 C4033 0.959 . S
H4040 C4033 0.961 . S
H4041 C4033 0.960 . S
H4042 C4034 0.930 . S
H4043 C4035 0.929 . S
H4044 C4052 0.929 . S
H4045 C4054 0.930 . S
H4046 C4056 0.930 . S
H4047 C4059 0.929 . S
H4048 C4062 0.930 . S
H4049 C4064 0.960 . S
H4050 C4064 0.960 . S
H4051 C4064 0.960 . S
C4052 H4044 0.929 . S
C4052 C4053 1.377 . S
C4052 C4054 1.384 . S
C4053 C4052 1.377 . S
C4053 C4059 1.390 . S
C4054 H4045 0.930 . S
C4054 C4052 1.384 . S
C4054 C4055 1.372 . S
C4055 C4054 1.372 . S
C4055 C4056 1.400 . S
C4055 C4060 1.490 . S
C4056 H4046 0.930 . S
C4056 C4055 1.400 . S
C4056 C4059 1.386 . S
H4057 C4073 0.930 . S
H4058 C4074 0.931 . S
C4059 H4047 0.929 . S
C4059 C4053 1.390 . S
C4059 C4056 1.386 . S
C4060 C4055 1.490 . S
C4060 C4062 1.395 . S
C4060 C4063 1.403 . S
H4061 C4067 0.930 . S
C4062 H4048 0.930 . S
C4062 C4060 1.395 . S
C4062 C4065 1.403 . S
C4063 C4060 1.403 . S
C4063 C4064 1.524 . S
C4063 C4067 1.400 . S
C4064 H4049 0.960 . S
C4064 H4050 0.960 . S
C4064 H4051 0.960 . S
C4064 C4063 1.524 . S
C4065 C4062 1.403 . S
C4065 C4066 1.392 . S
C4065 C4069 1.495 . S
C4066 C4065 1.392 . S
C4066 C4067 1.385 . S
C4066 C4068 1.478 . S
C4067 H4061 0.930 . S
C4067 C4063 1.400 . S
C4067 C4066 1.385 . S
C4068 C4066 1.478 . S
C4068 C4070 1.381 . S
C4068 C4074 1.383 . S
C4069 C4065 1.495 . S
C4069 H4075 0.959 . S
C4069 H4076 0.961 . S
C4069 H4077 0.960 . S
C4070 C4068 1.381 . S
C4070 C4071 1.394 . S
C4070 H4078 0.930 . S
C4071 C4070 1.394 . S
C4071 C4072 1.383 . S
C4071 H4079 0.929 . S
C4072 C4071 1.383 . S
C4072 C4073 1.377 . S
C4073 H4057 0.930 . S
C4073 C4072 1.377 . S
C4073 C4074 1.379 . S
C4074 H4058 0.931 . S
C4074 C4068 1.383 . S
C4074 C4073 1.379 . S
H4075 C4069 0.959 . S
H4076 C4069 0.961 . S
H4077 C4069 0.960 . S
H4078 C4070 0.930 . S
H4079 C4071 0.929 . S
C633 C407 1.372 . S
C652 C4 1.374 . S
C669 C23 1.373 . S
C688 C374 1.375 . S
C705 C30 1.374 . S
C724 C387 1.366 . S
C741 C394 1.373 . S
C760 C49 1.376 . S
C777 C335 1.373 . S
C796 C62 1.376 . S
C813 C69 1.372 . S
C832 C342 1.371 . S
C849 C361 1.374 . S
C868 C82 1.375 . S
C885 C95 1.373 . S
C904 C322 1.375 . S
C921 C114 1.374 . S
C940 C582 1.371 . S
C957 C537 1.375 . S
C976 C121 1.369 . S
C993 C556 1.373 . S
C1012 C140 1.375 . S
C1029 C147 1.375 . S
C1048 C563 1.368 . S
C1065 C160 1.372 . S
C1084 C615 1.371 . S
C1101 C179 1.374 . S
C1120 C589 1.366 . S
C1137 C192 1.373 . S
C1156 C602 1.376 . S
C1173 C524 1.373 . S
C1192 C199 1.376 . S
C1209 C511 1.374 . S
C1228 C212 1.365 . S
C1245 C225 1.374 . S
C1264 C433 1.370 . S
C1281 C446 1.374 . S
C1300 C238 1.370 . S
C1317 C257 1.372 . S
C1336 C459 1.371 . S
C1353 C426 1.372 . S
C1372 C270 1.374 . S
C1389 C491 1.373 . S
C1408 C277 1.376 . S
C1425 C296 1.374 . S
C1444 C498 1.370 . S
C1461 C478 1.374 . S
C1480 C303 1.370 . S
C1497 C127 1.801 . S
C1516 C10 1.797 . S
C1533 C134 1.801 . S
C1552 C17 1.796 . S
C1569 C36 1.801 . S
C1588 C153 1.797 . S
C1605 C108 1.801 . S
C1624 C43 1.797 . S
C1641 C56 1.801 . S
C1660 C205 1.797 . S
C1677 C166 1.801 . S
C1696 C75 1.798 . S
C1713 C173 1.801 . S
C1732 C88 1.797 . S
C1749 C186 1.801 . S
C1768 C101 1.797 . S
C1785 C244 1.801 . S
C1804 C218 1.797 . S
C1821 C290 1.801 . S
C1840 C231 1.797 . S
C1857 C309 1.801 . S
C1876 C251 1.797 . S
C1893 C264 1.801 . S
C1912 C283 1.798 . S
C1929 C439 1.801 . S
C1948 C316 1.798 . S
C1965 C452 1.801 . S
C1984 C329 1.796 . S
C2001 C465 1.801 . S
C2020 C348 1.797 . S
C2037 C355 1.801 . S
C2056 C420 1.797 . S
C2073 C368 1.801 . S
C2092 C517 1.797 . S
C2109 C381 1.801 . S
C2128 C472 1.796 . S
C2145 C485 1.801 . S
C2164 C400 1.797 . S
C2181 C504 1.801 . S
C2200 C413 1.798 . S
C2217 C530 1.801 . S
C2236 C550 1.797 . S
C2253 C608 1.801 . S
C2272 C543 1.797 . S
C2289 C621 1.801 . S
C2308 C569 1.797 . S
C2325 C595 1.801 . S
C2344 C576 1.798 . S
C2361 C3 1.399 . S
C2380 C239 1.391 1_554 S
C2397 C18 1.399 . S
C2416 C250 1.401 1_554 S
C2433 C29 1.399 . S
C2452 C263 1.403 1_554 S
C2469 C226 1.398 1_554 S
C2488 C44 1.394 . S
C2505 C57 1.398 . S
C2524 C289 1.397 1_556 S
C2541 C68 1.399 . S
C2560 C213 1.398 1_556 S
C2577 C304 1.398 1_556 S
C2596 C81 1.395 . S
C2613 C278 1.400 1_556 S
C2632 C94 1.395 . S
C2649 C109 1.399 . S
C2668 C122 1.401 1_455 S
C2685 C120 1.399 . S
C2704 C133 1.403 1_545 S
C2721 C135 1.398 . S
C2740 C148 1.395 1_655 S
C2757 C107 1.398 1_565 S
C2776 C146 1.393 . S
C2793 C200 1.398 1_455 S
C2812 C159 1.394 . S
C2829 C161 1.398 1_545 S
C2848 C174 1.393 . S
C2865 C172 1.399 1_655 S
C2884 C187 1.397 . S
C2901 C198 1.398 . S
C2920 C185 1.389 1_565 S
C2937 C42 1.401 1_545 S
C2956 C211 1.398 . S
C2973 C70 1.401 1_565 S
C2992 C224 1.397 . S
C3009 C83 1.398 1_455 S
C3028 C237 1.393 . S
C3045 C252 1.398 . S
C3064 C96 1.400 1_545 S
C3081 C55 1.401 1_655 S
C3100 C265 1.397 . S
C3117 C16 1.401 1_565 S
C3136 C276 1.396 . S
C3153 C31 1.398 1_455 S
C3172 C291 1.395 . S
C3189 C5 1.399 1_655 S
C3208 C302 1.393 . S
C3225 C549 1.394 . S
C3244 C317 1.395 . S
C3261 C330 1.399 . S
C3280 C564 1.398 . S
C3297 C575 1.396 . S
C3316 C341 1.394 . S
C3333 C538 1.395 . S
C3352 C356 1.397 . S
C3369 C369 1.399 . S
C3388 C603 1.389 . S
C3405 C382 1.399 . S
C3424 C525 1.393 . S
C3441 C616 1.397 . S
C3460 C393 1.398 . S
C3477 C406 1.399 . S
C3496 C590 1.400 . S
C3513 C421 1.398 . S
C3532 C434 1.395 . S
C3549 C432 1.399 . S
C3568 C447 1.399 . S
C3585 C445 1.398 . S
C3604 C460 1.385 . S
C3621 C458 1.398 . S
C3640 C419 1.392 . S
C3657 C512 1.394 . S
C3676 C473 1.394 . S
C3693 C471 1.394 . S
C3712 C486 1.395 . S
C3729 C484 1.397 . S
C3748 C497 1.398 . S
C3765 C510 1.399 . S
C3784 C499 1.397 . S
C3801 C354 1.397 . S
C3820 C523 1.397 . S
C3837 C380 1.395 . S
C3856 C536 1.396 . S
C3873 C395 1.395 . S
C3892 C551 1.393 . S
C3909 C562 1.398 . S
C3928 C408 1.394 . S
C3945 C367 1.394 . S
C3964 C577 1.395 . S
C3981 C328 1.397 . S
C4000 C588 1.398 . S
C4017 C601 1.398 . S
C4036 C343 1.385 . S
C4053 C315 1.397 . S
C4072 C614 1.396 . S
