# Generated by pormake.
# Topology fnj, (5)-cn, num edge types: 1
# Building blocks:
#     Node 0, Type 0, BuildingBlock: XOMCOT_clean_sbu_1, # of connection points: 5
#     Node 1, Type 0, BuildingBlock: XOMCOT_clean_sbu_1, # of connection points: 5
#     Node 2, Type 0, BuildingBlock: XOMCOT_clean_sbu_1, # of connection points: 5
#     Node 3, Type 0, BuildingBlock: XOMCOT_clean_sbu_1, # of connection points: 5
#     Node 4, Type 0, BuildingBlock: XOMCOT_clean_sbu_1, # of connection points: 5
#     Node 5, Type 0, BuildingBlock: XOMCOT_clean_sbu_1, # of connection points: 5
#     Node 6, Type 0, BuildingBlock: XOMCOT_clean_sbu_1, # of connection points: 5
#     Node 7, Type 0, BuildingBlock: XOMCOT_clean_sbu_1, # of connection points: 5
#     Node 8, Type 0, BuildingBlock: XOMCOT_clean_sbu_1, # of connection points: 5
#     Node 9, Type 0, BuildingBlock: XOMCOT_clean_sbu_1, # of connection points: 5
#     Node 10, Type 0, BuildingBlock: XOMCOT_clean_sbu_1, # of connection points: 5
#     Node 11, Type 0, BuildingBlock: XOMCOT_clean_sbu_1, # of connection points: 5
#     Node 12, Type 0, BuildingBlock: XOMCOT_clean_sbu_1, # of connection points: 5
#     Node 13, Type 0, BuildingBlock: XOMCOT_clean_sbu_1, # of connection points: 5
#     Node 14, Type 0, BuildingBlock: XOMCOT_clean_sbu_1, # of connection points: 5
#     Node 15, Type 0, BuildingBlock: XOMCOT_clean_sbu_1, # of connection points: 5
#     Edge 16, Type (0, 0), BuildingBlock: XIVTED_clean_linker_0, # of connection points: 2
#     Edge 17, Type (0, 0), BuildingBlock: XIVTED_clean_linker_0, # of connection points: 2
#     Edge 18, Type (0, 0), BuildingBlock: XIVTED_clean_linker_0, # of connection points: 2
#     Edge 19, Type (0, 0), BuildingBlock: XIVTED_clean_linker_0, # of connection points: 2
#     Edge 20, Type (0, 0), BuildingBlock: XIVTED_clean_linker_0, # of connection points: 2
#     Edge 21, Type (0, 0), BuildingBlock: XIVTED_clean_linker_0, # of connection points: 2
#     Edge 22, Type (0, 0), BuildingBlock: XIVTED_clean_linker_0, # of connection points: 2
#     Edge 23, Type (0, 0), BuildingBlock: XIVTED_clean_linker_0, # of connection points: 2
#     Edge 24, Type (0, 0), BuildingBlock: XIVTED_clean_linker_0, # of connection points: 2
#     Edge 25, Type (0, 0), BuildingBlock: XIVTED_clean_linker_0, # of connection points: 2
#     Edge 26, Type (0, 0), BuildingBlock: XIVTED_clean_linker_0, # of connection points: 2
#     Edge 27, Type (0, 0), BuildingBlock: XIVTED_clean_linker_0, # of connection points: 2
#     Edge 28, Type (0, 0), BuildingBlock: XIVTED_clean_linker_0, # of connection points: 2
#     Edge 29, Type (0, 0), BuildingBlock: XIVTED_clean_linker_0, # of connection points: 2
#     Edge 30, Type (0, 0), BuildingBlock: XIVTED_clean_linker_0, # of connection points: 2
#     Edge 31, Type (0, 0), BuildingBlock: XIVTED_clean_linker_0, # of connection points: 2
#     Edge 32, Type (0, 0), BuildingBlock: XIVTED_clean_linker_0, # of connection points: 2
#     Edge 33, Type (0, 0), BuildingBlock: XIVTED_clean_linker_0, # of connection points: 2
#     Edge 34, Type (0, 0), BuildingBlock: XIVTED_clean_linker_0, # of connection points: 2
#     Edge 35, Type (0, 0), BuildingBlock: XIVTED_clean_linker_0, # of connection points: 2
#     Edge 36, Type (0, 0), BuildingBlock: XIVTED_clean_linker_0, # of connection points: 2
#     Edge 37, Type (0, 0), BuildingBlock: XIVTED_clean_linker_0, # of connection points: 2
#     Edge 38, Type (0, 0), BuildingBlock: XIVTED_clean_linker_0, # of connection points: 2
#     Edge 39, Type (0, 0), BuildingBlock: XIVTED_clean_linker_0, # of connection points: 2
#     Edge 40, Type (0, 0), BuildingBlock: XIVTED_clean_linker_0, # of connection points: 2
#     Edge 41, Type (0, 0), BuildingBlock: XIVTED_clean_linker_0, # of connection points: 2
#     Edge 42, Type (0, 0), BuildingBlock: XIVTED_clean_linker_0, # of connection points: 2
#     Edge 43, Type (0, 0), BuildingBlock: XIVTED_clean_linker_0, # of connection points: 2
#     Edge 44, Type (0, 0), BuildingBlock: XIVTED_clean_linker_0, # of connection points: 2
#     Edge 45, Type (0, 0), BuildingBlock: XIVTED_clean_linker_0, # of connection points: 2
#     Edge 46, Type (0, 0), BuildingBlock: XIVTED_clean_linker_0, # of connection points: 2
#     Edge 47, Type (0, 0), BuildingBlock: XIVTED_clean_linker_0, # of connection points: 2
#     Edge 48, Type (0, 0), BuildingBlock: XIVTED_clean_linker_0, # of connection points: 2
#     Edge 49, Type (0, 0), BuildingBlock: XIVTED_clean_linker_0, # of connection points: 2
#     Edge 50, Type (0, 0), BuildingBlock: XIVTED_clean_linker_0, # of connection points: 2
#     Edge 51, Type (0, 0), BuildingBlock: XIVTED_clean_linker_0, # of connection points: 2
#     Edge 52, Type (0, 0), BuildingBlock: XIVTED_clean_linker_0, # of connection points: 2
#     Edge 53, Type (0, 0), BuildingBlock: XIVTED_clean_linker_0, # of connection points: 2
#     Edge 54, Type (0, 0), BuildingBlock: XIVTED_clean_linker_0, # of connection points: 2
#     Edge 55, Type (0, 0), BuildingBlock: XIVTED_clean_linker_0, # of connection points: 2
# Relax obj value: 0.162
# Max RMSD: 0.164
# Mean RMSD: 0.158
data_MOF--net-fnj--node1-XOMCOT_clean_sbu_1--edge1-XIVTED_clean_linker_0
_symmetry_space_group_name_H-M    P1
_symmetry_Int_Tables_number       1
_symmetry_cell_setting            triclinic
loop_
_symmetry_equiv_pos_as_xyz
'x, y, z'
_cell_length_a     75.455128
_cell_length_b     75.45137
_cell_length_c     17.702497
_cell_angle_alpha  94.460008
_cell_angle_beta   94.454778
_cell_angle_gamma 90.468252
loop_
_atom_site_label
_atom_site_type_symbol
_atom_site_fract_x
_atom_site_fract_y
_atom_site_fract_z
_atom_type_partial_charge
C0 C 0.39803 0.0323 0.19291 0.0
C1 C 0.39732 0.03078 0.26955 0.0
N2 N 0.40314 0.04623 0.30701 0.0
N3 N 0.40409 0.04869 0.18211 0.0
C4 C 0.40724 0.05682 0.25259 0.0
H5 H 0.39443 0.0221 0.14786 0.0
Co6 Co 0.40768 0.05744 0.08931 0.0
C7 C 0.3924 0.09348 0.09706 0.0
O8 O 0.3893 0.09152 0.02283 0.0
N9 N 0.41225 0.06614 0.99456 0.0
C10 C 0.4249 0.08238 0.91268 0.0
C11 C 0.42335 0.08003 0.98811 0.0
C12 C 0.40771 0.06001 0.92157 0.0
N13 N 0.41498 0.06976 0.87077 0.0
O14 O 0.43227 0.06098 0.11988 0.0
H15 H 0.42988 0.08806 0.03564 0.0
H16 H 0.39983 0.04824 0.90479 0.0
O17 O 0.40123 0.08154 0.13104 0.0
C18 C 0.44012 0.04646 0.10307 0.0
O19 O 0.4303 0.03235 0.07946 0.0
N20 N 0.38369 0.05223 0.05805 0.0
C21 C 0.3491 0.04183 0.0077 0.0
C22 C 0.35224 0.05498 0.06738 0.0
C23 C 0.36969 0.05965 0.09308 0.0
C24 C 0.38078 0.03798 0.00643 0.0
C25 C 0.36359 0.03295 0.97826 0.0
H26 H 0.37184 0.06864 0.14313 0.0
H27 H 0.39189 0.0303 0.98789 0.0
H28 H 0.41233 0.07029 0.26368 0.0
H29 H 0.39315 0.0191 0.29567 0.0
H30 H 0.43267 0.09265 0.89071 0.0
H31 H 0.34135 0.06137 0.09479 0.0
H32 H 0.36164 0.02181 0.93591 0.0
C33 C 0.27113 0.19496 0.45127 0.0
C34 C 0.2729 0.1954 0.52919 0.0
N35 N 0.25655 0.19605 0.55501 0.0
N36 N 0.25372 0.19521 0.42753 0.0
C37 C 0.24517 0.19595 0.49201 0.0
H38 H 0.2819 0.19461 0.41437 0.0
Co39 Co 0.24413 0.1953 0.32691 0.0
C40 C 0.21394 0.16877 0.31631 0.0
O41 O 0.21874 0.16333 0.24867 0.0
N42 N 0.23414 0.19591 0.22538 0.0
C43 C 0.21428 0.20117 0.12987 0.0
C44 C 0.21717 0.2006 0.20733 0.0
C45 C 0.24136 0.19413 0.15747 0.0
N46 N 0.22957 0.19716 0.09861 0.0
O47 O 0.2345 0.2189 0.34902 0.0
H48 H 0.20753 0.20376 0.24833 0.0
H49 H 0.25503 0.19092 0.15025 0.0
O50 O 0.2226 0.18175 0.35444 0.0
C51 C 0.24798 0.22912 0.34328 0.0
O52 O 0.26326 0.22165 0.33115 0.0
N53 N 0.25666 0.17445 0.30311 0.0
C54 C 0.28356 0.15041 0.2726 0.0
C55 C 0.26905 0.14527 0.31159 0.0
C56 C 0.25566 0.15769 0.32717 0.0
C57 C 0.27128 0.17963 0.26958 0.0
C58 C 0.28457 0.16784 0.2522 0.0
H59 H 0.24507 0.15405 0.36086 0.0
H60 H 0.27294 0.19337 0.25816 0.0
H61 H 0.23087 0.19678 0.49266 0.0
H62 H 0.28533 0.1951 0.56391 0.0
H63 H 0.20206 0.20488 0.09931 0.0
H64 H 0.26818 0.13198 0.33026 0.0
H65 H 0.29587 0.17249 0.22466 0.0
C66 C 0.10009 0.02676 0.40551 0.0
C67 C 0.09959 0.02486 0.32747 0.0
N68 N 0.10162 0.04107 0.30179 0.0
N69 N 0.10255 0.04407 0.42917 0.0
C70 C 0.10328 0.05247 0.36484 0.0
H71 H 0.09882 0.01619 0.44271 0.0
Co72 Co 0.10428 0.05352 0.52947 0.0
C73 C 0.13104 0.0834 0.5349 0.0
O74 O 0.13747 0.07804 0.60028 0.0
N75 N 0.10542 0.06331 0.63176 0.0
C76 C 0.1015 0.08277 0.73026 0.0
C77 C 0.10154 0.08037 0.65248 0.0
C78 C 0.10721 0.05553 0.69832 0.0
N79 N 0.10497 0.06707 0.75894 0.0
O80 O 0.08051 0.06345 0.5141 0.0
H81 H 0.09835 0.09036 0.61311 0.0
H82 H 0.10956 0.04159 0.70311 0.0
O83 O 0.11749 0.07511 0.49932 0.0
C84 C 0.0708 0.05147 0.53928 0.0
O85 O 0.07874 0.03736 0.56377 0.0
N86 N 0.12539 0.0407 0.54624 0.0
C87 C 0.15031 0.01409 0.56906 0.0
C88 C 0.15444 0.0287 0.52859 0.0
C89 C 0.14159 0.0419 0.51687 0.0
C90 C 0.12108 0.0259 0.58058 0.0
C91 C 0.13333 0.01277 0.59418 0.0
H92 H 0.14446 0.05256 0.48217 0.0
H93 H 0.1077 0.02392 0.59578 0.0
H94 H 0.10473 0.06672 0.36427 0.0
H95 H 0.09811 0.01242 0.29269 0.0
H96 H 0.09831 0.09491 0.76279 0.0
H97 H 0.16731 0.02981 0.5061 0.0
H98 H 0.12937 1.00134 0.62276 0.0
C99 C 0.27562 0.90575 0.63589 0.0
C100 C 0.27702 0.90657 0.55924 0.0
N101 N 0.26189 0.89991 0.52183 0.0
N102 N 0.25961 0.89877 0.64674 0.0
C103 C 0.25159 0.89519 0.57629 0.0
H104 H 0.28566 0.90987 0.6809 0.0
Co105 Co 0.25119 0.89458 0.73952 0.0
C106 C 0.21437 0.90795 0.73249 0.0
O107 O 0.21633 0.91109 0.80671 0.0
N108 N 0.24285 0.8894 0.83421 0.0
C109 C 0.22728 0.87586 0.9159 0.0
C110 C 0.22956 0.87757 0.84053 0.0
C111 C 0.24872 0.89424 0.90726 0.0
N112 N 0.23935 0.88643 0.95793 0.0
O113 O 0.2488 0.86991 0.70869 0.0
H114 H 0.22184 0.87069 0.79294 0.0
H115 H 0.26001 0.90278 0.9242 0.0
O116 O 0.22671 0.89989 0.69811 0.0
C117 C 0.26366 0.86244 0.72263 0.0
O118 O 0.27777 0.87259 0.74227 0.0
N119 N 0.25525 0.91872 0.77121 0.0
C120 C 0.26408 0.95363 0.82257 0.0
C121 C 0.25093 0.95002 0.76322 0.0
C122 C 0.24704 0.93243 0.73704 0.0
C123 C 0.26946 0.92217 0.82254 0.0
C124 C 0.27372 0.9395 0.85119 0.0
H125 H 0.23799 0.92999 0.68732 0.0
H126 H 0.27768 0.91137 0.84061 0.0
H127 H 0.23842 0.88934 0.56525 0.0
H128 H 0.28844 0.91138 0.53308 0.0
H129 H 0.21741 0.86758 0.93777 0.0
H130 H 0.24395 0.96067 0.73648 0.0
H131 H 0.28487 0.94187 0.89329 0.0
C132 C 0.60935 0.05368 0.89942 0.0
C133 C 0.60964 0.0557 0.82302 0.0
N134 N 0.60395 0.04037 0.78408 0.0
N135 N 0.60364 0.0371 0.90892 0.0
C136 C 0.60037 0.02932 0.83779 0.0
H137 H 0.61301 0.06367 0.94524 0.0
Co138 Co 0.60033 0.02807 0.00168 0.0
C139 C 0.61606 0.99228 0.99184 0.0
O140 O 0.61928 0.99414 0.06603 0.0
N141 N 0.596 0.01912 0.09647 0.0
C142 C 0.58347 1.00259 0.17785 0.0
C143 C 0.58525 0.00492 0.10253 0.0
C144 C 0.60005 0.02547 0.16963 0.0
N145 N 0.59277 0.0156 0.22 0.0
O146 O 0.57571 0.02439 0.97187 0.0
H147 H 0.57895 0.99678 0.05476 0.0
H148 H 0.60792 0.03723 0.18695 0.0
O149 O 0.6069 1.00411 0.95863 0.0
C150 C 0.56786 0.03884 0.98972 0.0
O151 O 0.57768 0.05292 0.0139 0.0
N152 N 0.62432 0.03342 0.03231 0.0
C153 C 0.65895 0.04416 0.08061 0.0
C154 C 0.65572 0.03114 0.02041 0.0
C155 C 0.63825 0.02633 0.99573 0.0
C156 C 0.62726 0.04748 0.08487 0.0
C157 C 0.64448 0.05268 0.11192 0.0
H158 H 0.63601 0.01754 0.9451 0.0
H159 H 0.61615 0.055 0.10452 0.0
H160 H 0.59507 0.01595 0.82582 0.0
H161 H 0.61386 0.06756 0.79836 0.0
H162 H 0.5755 0.99245 0.19973 0.0
H163 H 0.66654 0.02501 0.99166 0.0
H164 H 0.64645 0.06374 0.1547 0.0
C165 C 0.73832 0.88874 0.64962 0.0
C166 C 0.73626 0.88863 0.57164 0.0
N167 N 0.75242 0.8906 0.5456 0.0
N168 N 0.75569 0.89095 0.67285 0.0
C169 C 0.76397 0.89185 0.60818 0.0
H170 H 0.72783 0.88735 0.68708 0.0
Co171 Co 0.76532 0.89242 0.7733 0.0
C172 C 0.79497 0.91942 0.77856 0.0
O173 O 0.7897 0.92572 0.84429 0.0
N174 N 0.77533 0.89334 0.87562 0.0
C175 C 0.79528 0.8894 0.97228 0.0
C176 C 0.79248 0.88953 0.89471 0.0
C177 C 0.76791 0.895 0.94317 0.0
N178 N 0.77977 0.89279 0.00297 0.0
O179 O 0.77532 0.86874 0.75639 0.0
H180 H 0.80231 0.88662 0.85435 0.0
H181 H 0.75394 0.89685 0.94893 0.0
O182 O 0.78673 0.90584 0.74302 0.0
C183 C 0.76328 0.85898 0.7809 0.0
O184 O 0.74914 0.86688 0.80525 0.0
N185 N 0.75244 0.91341 0.79163 0.0
C186 C 0.72551 0.93793 0.81477 0.0
C187 C 0.73993 0.94223 0.77355 0.0
C188 C 0.7533 0.92957 0.76168 0.0
C189 C 0.73788 0.90898 0.82735 0.0
C190 C 0.7246 0.92106 0.84114 0.0
H191 H 0.76378 0.9325 0.72616 0.0
H192 H 0.73612 0.89561 0.84301 0.0
H193 H 0.77818 0.89363 0.60698 0.0
H194 H 0.72382 0.887 0.53684 0.0
H195 H 0.80778 0.88674 0.00324 0.0
H196 H 0.74072 0.95504 0.75026 0.0
H197 H 0.71334 0.91702 0.87061 0.0
C198 C 0.90896 0.06005 0.68302 0.0
C199 C 0.90944 0.06195 0.76106 0.0
N200 N 0.90753 0.04572 0.78677 0.0
N201 N 0.90661 0.04273 0.65937 0.0
C202 C 0.90595 0.03432 0.72373 0.0
H203 H 0.91015 0.07063 0.64582 0.0
Co204 Co 0.90495 0.03323 0.55909 0.0
C205 C 0.87834 1.00318 0.55397 0.0
O206 O 0.87195 0.00831 0.48813 0.0
N207 N 0.90388 0.02341 0.45688 0.0
C208 C 0.90791 1.00398 0.3584 0.0
C209 C 0.90785 0.00637 0.43618 0.0
C210 C 0.90207 0.03119 0.39031 0.0
N211 N 0.90437 0.01967 0.32969 0.0
O212 O 0.92875 0.02337 0.57476 0.0
H213 H 0.91107 0.9964 0.47557 0.0
H214 H 0.89966 0.04512 0.38554 0.0
O215 O 0.8918 0.01164 0.58943 0.0
C216 C 0.93845 0.03536 0.54956 0.0
O217 O 0.9305 0.04944 0.52492 0.0
N218 N 0.88381 0.04597 0.54196 0.0
C219 C 0.85874 0.07236 0.51751 0.0
C220 C 0.85457 0.05772 0.5577 0.0
C221 C 0.86751 0.04463 0.5703 0.0
C222 C 0.88813 0.06081 0.50789 0.0
C223 C 0.87581 0.07384 0.49354 0.0
H224 H 0.86459 0.03394 0.60472 0.0
H225 H 0.90154 0.06287 0.49323 0.0
H226 H 0.90461 0.02006 0.72432 0.0
H227 H 0.91083 0.0744 0.79582 0.0
H228 H 0.91116 0.99185 0.32589 0.0
H229 H 0.84161 0.05647 0.57922 0.0
H230 H 0.87976 0.08528 0.46502 0.0
C231 C 0.73418 0.18144 0.43685 0.0
C232 C 0.73242 0.18106 0.51341 0.0
N233 N 0.74756 0.18756 0.55155 0.0
N234 N 0.75039 0.18801 0.42659 0.0
C235 C 0.75821 0.19169 0.49732 0.0
H236 H 0.72424 0.17727 0.39147 0.0
Co237 Co 0.75903 0.19186 0.33385 0.0
C238 C 0.79556 0.17788 0.34243 0.0
O239 O 0.79354 0.1744 0.26838 0.0
N240 N 0.76755 0.19673 0.23917 0.0
C241 C 0.78331 0.21001 0.15728 0.0
C242 C 0.78128 0.20804 0.2327 0.0
C243 C 0.76114 0.19252 0.16628 0.0
N244 N 0.77055 0.20026 0.11563 0.0
O245 O 0.76169 0.21655 0.36372 0.0
H246 H 0.7893 0.21459 0.28024 0.0
H247 H 0.74967 0.1842 0.14937 0.0
O248 O 0.78336 0.18634 0.37615 0.0
C249 C 0.74693 0.22415 0.34899 0.0
O250 O 0.73276 0.21411 0.32907 0.0
N251 N 0.75469 0.16771 0.303 0.0
C252 C 0.74525 0.13279 0.25398 0.0
C253 C 0.75841 0.1364 0.31332 0.0
C254 C 0.76259 0.154 0.33835 0.0
C255 C 0.74054 0.16432 0.25134 0.0
C256 C 0.73596 0.14698 0.22393 0.0
H257 H 0.77158 0.15646 0.38827 0.0
H258 H 0.73247 0.17517 0.23264 0.0
H259 H 0.77131 0.19771 0.50864 0.0
H260 H 0.72089 0.17626 0.53876 0.0
H261 H 0.79305 0.21839 0.135 0.0
H262 H 0.76513 0.12575 0.34111 0.0
H263 H 0.72481 0.14466 0.18186 0.0
C264 C 0.90431 0.52767 0.71878 0.0
C265 C 0.90321 0.52669 0.79544 0.0
N266 N 0.90723 0.54285 0.83072 0.0
N267 N 0.90883 0.54442 0.70562 0.0
C268 C 0.91065 0.55334 0.77497 0.0
H269 H 0.90225 0.51675 0.67562 0.0
Co270 Co 0.91267 0.55288 0.61197 0.0
C271 C 0.89153 0.58557 0.60547 0.0
O272 O 0.88957 0.5823 0.53132 0.0
N273 N 0.91725 0.56159 0.5173 0.0
C274 C 0.92785 0.5794 0.43586 0.0
C275 C 0.92661 0.57672 0.51119 0.0
C276 C 0.91324 0.55522 0.44423 0.0
N277 N 0.91933 0.56586 0.39374 0.0
O278 O 0.93606 0.5606 0.64927 0.0
H279 H 0.9319 0.58556 0.55879 0.0
H280 H 0.90618 0.54295 0.4272 0.0
O281 O 0.9015 0.57552 0.64517 0.0
C282 C 0.94555 0.54669 0.64317 0.0
O283 O 0.93739 0.5312 0.62882 0.0
N284 N 0.89075 0.54311 0.57355 0.0
C285 C 0.86151 0.52185 0.52061 0.0
C286 C 0.85934 0.53738 0.5675 0.0
C287 C 0.87427 0.54766 0.59506 0.0
C288 C 0.89306 0.5276 0.53132 0.0
C289 C 0.87863 0.51707 0.50225 0.0
H290 H 0.87256 0.55855 0.63677 0.0
H291 H 0.90635 0.52328 0.52101 0.0
H292 H 0.91444 0.56724 0.78429 0.0
H293 H 0.90019 0.51487 0.82321 0.0
H294 H 0.93418 0.59064 0.41403 0.0
H295 H 0.84639 0.54106 0.58566 0.0
H296 H 0.88096 0.50509 0.46681 0.0
C297 C 0.77075 0.69676 0.9219 0.0
C298 C 0.77265 0.69724 0.99995 0.0
N299 N 0.75639 0.69565 0.02574 0.0
N300 N 0.75339 0.69474 0.89836 0.0
C301 C 0.74497 0.69427 0.96276 0.0
H302 H 0.78135 0.69771 0.88462 0.0
Co303 Co 0.74389 0.69318 0.79812 0.0
C304 C 0.71353 0.66703 0.79313 0.0
O305 O 0.71868 0.66051 0.72749 0.0
N306 N 0.73406 0.69222 0.69588 0.0
C307 C 0.71466 0.69654 0.5976 0.0
C308 C 0.71707 0.69643 0.67537 0.0
C309 C 0.74179 0.69032 0.62922 0.0
N310 N 0.73029 0.6928 0.56873 0.0
O311 O 0.73445 0.71714 0.81368 0.0
H312 H 0.70716 0.69979 0.71486 0.0
H313 H 0.75567 0.68773 0.62425 0.0
O314 O 0.72209 0.68043 0.82855 0.0
C315 C 0.74663 0.72661 0.78851 0.0
O316 O 0.76056 0.71838 0.76381 0.0
N317 N 0.75622 0.67179 0.78125 0.0
C318 C 0.78216 0.64616 0.75894 0.0
C319 C 0.76751 0.64252 0.79997 0.0
C320 C 0.75465 0.65573 0.81141 0.0
C321 C 0.77107 0.67563 0.74628 0.0
C322 C 0.78387 0.66299 0.73279 0.0
H323 H 0.744 0.65324 0.8467 0.0
H324 H 0.77339 0.68892 0.73074 0.0
H325 H 0.73069 0.6932 0.96342 0.0
H326 H 0.78512 0.69838 0.03465 0.0
H327 H 0.70258 0.69997 0.56524 0.0
H328 H 0.76614 0.62977 0.8233 0.0
H329 H 0.79536 0.66654 0.70374 0.0
C330 C 0.60356 0.52683 0.88393 0.0
C331 C 0.60319 0.5252 0.80599 0.0
N332 N 0.60254 0.54162 0.78082 0.0
N333 N 0.60326 0.54421 0.90815 0.0
C334 C 0.60255 0.55288 0.84408 0.0
H335 H 0.60395 0.516 0.92051 0.0
Co336 Co 0.60329 0.55371 0.00862 0.0
C337 C 0.62918 0.58445 0.01839 0.0
O338 O 0.63485 0.57981 0.08604 0.0
N339 N 0.60276 0.56356 0.11005 0.0
C340 C 0.59726 0.58306 0.20645 0.0
C341 C 0.59789 0.58043 0.12894 0.0
C342 C 0.60455 0.55611 0.17735 0.0
N343 N 0.60138 0.56767 0.23672 0.0
O344 O 0.57949 0.56295 0.98772 0.0
H345 H 0.5946 0.59016 0.08848 0.0
H346 H 0.6078 0.54241 0.18371 0.0
O347 O 0.61633 0.57551 0.98074 0.0
C348 C 0.56948 0.54939 0.99458 0.0
O349 O 0.5772 0.53422 0.00671 0.0
N350 N 0.62447 0.54158 0.03123 0.0
C351 C 0.64948 0.51549 0.06052 0.0
C352 C 0.65405 0.53024 0.02183 0.0
C353 C 0.64114 0.54319 0.00676 0.0
C354 C 0.61985 0.52672 0.06444 0.0
C355 C 0.63215 0.51381 0.08125 0.0
H356 H 0.64437 0.55394 0.97314 0.0
H357 H 0.6062 0.52456 0.07605 0.0
H358 H 0.6017 0.56718 0.84389 0.0
H359 H 0.60357 0.51284 0.77084 0.0
H360 H 0.59338 0.59513 0.23767 0.0
H361 H 0.66726 0.5316 0.00291 0.0
H362 H 0.62798 0.5023 0.10871 0.0
C363 C 0.76197 0.38811 0.12516 0.0
C364 C 0.76357 0.38836 0.04855 0.0
N365 N 0.74741 0.38518 0.01174 0.0
N366 N 0.74484 0.38495 0.13703 0.0
C367 C 0.73628 0.38318 0.06691 0.0
H368 H 0.77272 0.38982 0.16927 0.0
Co369 Co 0.73581 0.38214 0.23056 0.0
C370 C 0.70439 0.40507 0.23369 0.0
O371 O 0.70773 0.40741 0.30774 0.0
N372 N 0.7266 0.37853 0.32521 0.0
C373 C 0.70828 0.36897 0.40709 0.0
C374 C 0.71077 0.37043 0.33166 0.0
C375 C 0.73359 0.38146 0.398 0.0
N376 N 0.72272 0.37587 0.44863 0.0
O377 O 0.72708 0.35895 0.19474 0.0
H378 H 0.70154 0.36587 0.28419 0.0
H379 H 0.74636 0.38757 0.41488 0.0
O380 O 0.71386 0.39422 0.19517 0.0
C381 C 0.74064 0.34916 0.20514 0.0
O382 O 0.75609 0.35697 0.22569 0.0
N383 N 0.74653 0.4038 0.26745 0.0
C384 C 0.76928 0.43228 0.31556 0.0
C385 C 0.75396 0.43481 0.26796 0.0
C386 C 0.74295 0.42023 0.24276 0.0
C387 C 0.7618 0.40112 0.31084 0.0
C388 C 0.77307 0.4152 0.33741 0.0
H389 H 0.73235 0.42207 0.19992 0.0
H390 H 0.76552 0.38777 0.32294 0.0
H391 H 0.72227 0.3799 0.05662 0.0
H392 H 0.77577 0.39067 0.02224 0.0
H393 H 0.69694 0.36293 0.42943 0.0
H394 H 0.75106 0.44768 0.24714 0.0
H395 H 0.78493 0.41261 0.37318 0.0
C396 C 0.10732 0.55814 0.37788 0.0
C397 C 0.10761 0.55985 0.30139 0.0
N398 N 0.1028 0.54412 0.2637 0.0
N399 N 0.10253 0.54134 0.38896 0.0
C400 C 0.09985 0.5331 0.31834 0.0
H401 H 0.11006 0.56864 0.42243 0.0
Co402 Co 0.09877 0.53252 0.48244 0.0
C403 C 0.1195 0.49963 0.48622 0.0
O404 O 0.12193 0.50293 0.56027 0.0
N405 N 0.09421 0.52355 0.5769 0.0
C406 C 0.08334 0.50563 0.65737 0.0
C407 C 0.08508 0.50823 0.58226 0.0
C408 C 0.09751 0.53013 0.65019 0.0
N409 N 0.09115 0.51947 0.7 0.0
O410 O 0.07526 0.52516 0.4456 0.0
H411 H 0.08007 0.49937 0.53425 0.0
H412 H 0.10451 0.5424 0.66801 0.0
O413 O 0.10959 0.50987 0.44725 0.0
C414 C 0.06593 0.53915 0.45287 0.0
O415 O 0.07424 0.55454 0.46803 0.0
N416 N 0.12085 0.54192 0.52079 0.0
C417 C 0.15029 0.56312 0.57152 0.0
C418 C 0.15224 0.54763 0.52409 0.0
C419 C 0.13721 0.53738 0.49771 0.0
C420 C 0.11879 0.55728 0.56439 0.0
C421 C 0.13332 0.56778 0.59233 0.0
H422 H 0.13869 0.52658 0.45532 0.0
H423 H 0.10557 0.56168 0.57562 0.0
H424 H 0.0952 0.51947 0.30735 0.0
H425 H 0.11101 0.57185 0.27575 0.0
H426 H 0.07658 0.49458 0.67878 0.0
H427 H 0.16505 0.54405 0.50425 0.0
H428 H 0.13118 0.57976 0.62814 0.0
C429 C 0.23933 0.39248 0.14502 0.0
C430 C 0.23775 0.3921 0.06708 0.0
N431 N 0.25417 0.39125 0.04203 0.0
N432 N 0.25669 0.39199 0.16936 0.0
C433 C 0.2654 0.39116 0.10536 0.0
H434 H 0.22848 0.39297 0.1815 0.0
Co435 Co 0.26616 0.3918 0.26982 0.0
C436 C 0.29676 0.41783 0.28088 0.0
O437 O 0.29197 0.42335 0.34845 0.0
N438 N 0.27601 0.39106 0.3712 0.0
C439 C 0.29556 0.38545 0.46726 0.0
C440 C 0.29289 0.38618 0.38981 0.0
C441 C 0.2686 0.39277 0.43862 0.0
N442 N 0.28019 0.38953 0.49777 0.0
O443 O 0.27542 0.36804 0.248 0.0
H444 H 0.3026 0.38298 0.3492 0.0
H445 H 0.25492 0.39603 0.44524 0.0
O446 O 0.28795 0.40497 0.24262 0.0
C447 C 0.26182 0.35798 0.25366 0.0
O448 O 0.24661 0.36563 0.26543 0.0
N449 N 0.25399 0.41291 0.29328 0.0
C450 C 0.22764 0.43765 0.32362 0.0
C451 C 0.24232 0.44239 0.28472 0.0
C452 C 0.25541 0.42964 0.26927 0.0
C453 C 0.23919 0.40808 0.32636 0.0
C454 C 0.22618 0.42021 0.34365 0.0
H455 H 0.26611 0.43303 0.23567 0.0
H456 H 0.23715 0.39437 0.33737 0.0
H457 H 0.27969 0.39014 0.10527 0.0
H458 H 0.22541 0.39258 0.03185 0.0
H459 H 0.30765 0.38157 0.49828 0.0
H460 H 0.24355 0.45564 0.26601 0.0
H461 H 0.21469 0.41577 0.37056 0.0
C462 C 0.40631 0.55977 0.19835 0.0
C463 C 0.40666 0.5614 0.27628 0.0
N464 N 0.40731 0.54499 0.30145 0.0
N465 N 0.40662 0.5424 0.17414 0.0
C466 C 0.40733 0.53372 0.23821 0.0
H467 H 0.40593 0.57061 0.16178 0.0
Co468 Co 0.40669 0.53293 0.07368 0.0
C469 C 0.3808 0.50218 0.063 0.0
O470 O 0.37522 0.50692 0.99543 0.0
N471 N 0.40731 0.52311 0.97227 0.0
C472 C 0.41291 0.50364 0.87592 0.0
C473 C 0.41226 0.50626 0.95342 0.0
C474 C 0.40546 0.53055 0.90495 0.0
N475 N 0.4087 0.519 0.84562 0.0
O476 O 0.43047 0.52369 0.09487 0.0
H477 H 0.41558 0.49655 0.9939 0.0
H478 H 0.40213 0.54422 0.89856 0.0
O479 O 0.39362 0.51108 0.10114 0.0
C480 C 0.44049 0.53727 0.08823 0.0
O481 O 0.43278 0.55243 0.07616 0.0
N482 N 0.38551 0.54505 0.05081 0.0
C483 C 0.36054 0.57118 0.02157 0.0
C484 C 0.35592 0.55638 0.05981 0.0
C485 C 0.36881 0.54341 0.07494 0.0
C486 C 0.39017 0.55994 0.01788 0.0
C487 C 0.3779 0.57287 0.00115 0.0
H488 H 0.36555 0.53264 0.10833 0.0
H489 H 0.40383 0.5621 0.00643 0.0
H490 H 0.40819 0.51942 0.2384 0.0
H491 H 0.40627 0.57377 0.31141 0.0
H492 H 0.41684 0.49159 0.84472 0.0
H493 H 0.34268 0.55499 0.07841 0.0
H494 H 0.38209 0.58442 0.9739 0.0
C495 C 0.24952 0.6988 0.94724 0.0
C496 C 0.24769 0.69863 0.02371 0.0
N497 N 0.26376 0.70184 0.06139 0.0
N498 N 0.2667 0.70194 0.93619 0.0
C499 C 0.27507 0.70377 0.00676 0.0
H500 H 0.2389 0.69703 0.90261 0.0
Co501 Co 0.27593 0.70457 0.84264 0.0
C502 C 0.30731 0.68159 0.84153 0.0
O503 O 0.30413 0.67914 0.76743 0.0
N504 N 0.28533 0.70799 0.74793 0.0
C505 C 0.3039 0.71742 0.66672 0.0
C506 C 0.30119 0.71608 0.74202 0.0
C507 C 0.27854 0.70494 0.67482 0.0
N508 N 0.28958 0.71044 0.62456 0.0
O509 O 0.28456 0.72782 0.87792 0.0
H510 H 0.31029 0.72072 0.78979 0.0
H511 H 0.26581 0.69881 0.65744 0.0
O512 O 0.29782 0.69258 0.87928 0.0
C513 C 0.27096 0.73751 0.8666 0.0
O514 O 0.2556 0.72959 0.84539 0.0
N515 N 0.2653 0.68283 0.80618 0.0
C516 C 0.24267 0.65423 0.75866 0.0
C517 C 0.25782 0.65189 0.80748 0.0
C518 C 0.26877 0.66653 0.83231 0.0
C519 C 0.25019 0.68535 0.76152 0.0
C520 C 0.23899 0.6712 0.73516 0.0
H521 H 0.27921 0.66486 0.87609 0.0
H522 H 0.2465 0.69865 0.74835 0.0
H523 H 0.28907 0.70702 0.01773 0.0
H524 H 0.23541 0.69633 0.04933 0.0
H525 H 0.31532 0.72344 0.64487 0.0
H526 H 0.26061 0.63913 0.82964 0.0
H527 H 0.22725 0.67366 0.69846 0.0
H528 H 0.3878 0.05231 0.785 0.0
H529 H 0.42656 0.06927 0.38844 0.0
H530 H 0.43703 0.08081 0.76826 0.0
H531 H 0.38333 0.03278 0.41108 0.0
H532 H 0.42922 0.07578 0.52651 0.0
H533 H 0.38475 0.04692 0.64723 0.0
C534 C 0.39806 0.05735 0.75265 0.0
C535 C 0.41281 0.06691 0.78891 0.0
C536 C 0.41916 0.06634 0.5012 0.0
C537 C 0.40917 0.06102 0.63015 0.0
C538 C 0.41756 0.06271 0.42235 0.0
C539 C 0.40473 0.05042 0.38811 0.0
C540 C 0.40775 0.05773 0.54614 0.0
C541 C 0.39356 0.04215 0.43505 0.0
C542 C 0.39623 0.05435 0.6737 0.0
C543 C 0.42538 0.07349 0.74317 0.0
N544 N 0.39531 0.04598 0.51155 0.0
N545 N 0.42329 0.07041 0.66625 0.0
H546 H 0.20599 0.19 0.97567 0.0
H547 H 0.278 0.20765 0.67985 0.0
H548 H 0.26085 0.20434 0.04019 0.0
H549 H 0.22544 0.18638 0.61061 0.0
H550 H 0.2712 0.20795 0.81195 0.0
H551 H 0.21207 0.19015 0.84172 0.0
C552 C 0.21929 0.19323 0.96173 0.0
C553 C 0.23294 0.19709 0.01942 0.0
C554 C 0.26113 0.2032 0.76795 0.0
C555 C 0.24001 0.19725 0.86626 0.0
C556 C 0.26504 0.20293 0.6922 0.0
C557 C 0.25235 0.19684 0.63348 0.0
C558 C 0.24435 0.19739 0.78579 0.0
C559 C 0.23562 0.19131 0.65363 0.0
C560 C 0.22277 0.19323 0.88526 0.0
C561 C 0.24997 0.20101 0.9979 0.0
N562 N 0.23212 0.19169 0.72807 0.0
N563 N 0.25299 0.20103 0.92324 0.0
H564 H 0.11567 0.07076 0.24914 0.0
H565 H 0.09558 0.03582 0.81232 0.0
H566 H 0.0888 0.02097 0.1745 0.0
H567 H 0.11367 0.08928 0.88467 0.0
H568 H 0.09494 0.02949 0.94517 0.0
H569 H 0.11653 0.0773 0.11664 0.0
C570 C 0.10983 0.06123 0.20525 0.0
C571 C 0.10212 0.04525 0.22364 0.0
C572 C 0.09906 0.04261 0.93208 0.0
C573 C 0.10336 0.0526 0.07122 0.0
C574 C 0.09958 0.04619 0.85613 0.0
C575 C 0.10476 0.0631 0.83725 0.0
C576 C 0.10387 0.05599 0.98988 0.0
C577 C 0.10945 0.07612 0.89666 0.0
C578 C 0.11043 0.06496 0.12939 0.0
C579 C 0.09509 0.03333 0.16359 0.0
N580 N 0.10894 0.07228 0.97029 0.0
N581 N 0.09591 0.03723 0.09029 0.0
H582 H 0.2402 0.87518 0.44066 0.0
H583 H 0.2551 0.91461 0.04341 0.0
H584 H 0.27411 0.92044 0.41753 0.0
H585 H 0.22949 0.86385 0.06068 0.0
H586 H 0.26015 0.91807 0.18124 0.0
H587 H 0.23387 0.87209 0.3025 0.0
C588 C 0.24622 0.88454 0.40662 0.0
C589 C 0.25775 0.89806 0.44073 0.0
C590 C 0.25344 0.90616 0.15488 0.0
C591 C 0.25064 0.89455 0.28265 0.0
C592 C 0.25063 0.9041 0.0759 0.0
C593 C 0.24199 0.88881 0.03979 0.0
C594 C 0.24749 0.89289 0.1986 0.0
C595 C 0.2361 0.87591 0.08568 0.0
C596 C 0.24269 0.88269 0.32772 0.0
C597 C 0.26534 0.90968 0.39365 0.0
N598 N 0.23897 0.87823 0.16264 0.0
N599 N 0.26164 0.90767 0.31714 0.0
H600 H 0.60017 0.06445 0.67744 0.0
H601 H 0.59127 0.99113 0.32415 0.0
H602 H 0.6029 0.00806 0.70285 0.0
H603 H 0.59715 0.04739 0.30286 0.0
H604 H 0.59359 0.99689 0.46273 0.0
H605 H 0.59737 0.05827 0.54009 0.0
C606 C 0.60029 0.05076 0.65441 0.0
C607 C 0.60189 0.03678 0.70242 0.0
C608 C 0.5944 0.00797 0.42767 0.0
C609 C 0.5984 0.02958 0.54402 0.0
C610 C 0.59298 1.00469 0.34858 0.0
C611 C 0.59408 0.01878 0.30171 0.0
C612 C 0.5968 0.02549 0.46023 0.0
C613 C 0.5965 0.03609 0.33656 0.0
C614 C 0.59859 0.04723 0.57565 0.0
C615 C 0.60154 0.01928 0.66849 0.0
N616 N 0.59772 0.03894 0.41355 0.0
N617 N 0.59985 0.01618 0.59145 0.0
H618 H 0.73093 0.90201 0.42948 0.0
H619 H 0.79975 0.87809 0.11668 0.0
H620 H 0.78305 0.88107 0.48265 0.0
H621 H 0.75177 0.90764 0.07232 0.0
H622 H 0.79343 0.87808 0.24951 0.0
H623 H 0.73773 0.90287 0.29711 0.0
C624 C 0.74378 0.89751 0.41331 0.0
C625 C 0.75641 0.8914 0.46744 0.0
C626 C 0.7843 0.8846 0.21069 0.0
C627 C 0.76435 0.89246 0.31562 0.0
C628 C 0.78795 0.88469 0.13454 0.0
C629 C 0.77629 0.89286 0.08232 0.0
C630 C 0.76883 0.89263 0.23528 0.0
C631 C 0.76104 0.90093 0.10961 0.0
C632 C 0.7477 0.89812 0.33773 0.0
C633 C 0.77297 0.88602 0.44319 0.0
N634 N 0.75775 0.90056 0.18396 0.0
N635 N 0.77642 0.8866 0.36909 0.0
H636 H 0.91355 0.05098 0.27628 0.0
H637 H 0.8937 0.01593 0.83943 0.0
H638 H 0.8958 0.99741 0.20396 0.0
H639 H 0.92019 0.06592 0.91408 0.0
H640 H 0.89289 0.00937 0.97193 0.0
H641 H 0.91415 0.05731 0.14342 0.0
C642 C 0.90963 0.04058 0.23247 0.0
C643 C 0.90455 0.02364 0.25137 0.0
C644 C 0.8989 0.02176 0.95918 0.0
C645 C 0.90539 0.03076 0.09872 0.0
C646 C 0.89947 0.0255 0.88332 0.0
C647 C 0.90705 0.04154 0.86492 0.0
C648 C 0.90587 0.03416 0.01737 0.0
C649 C 0.91399 0.05351 0.92498 0.0
C650 C 0.91011 0.04417 0.15651 0.0
C651 C 0.89994 0.01059 0.19196 0.0
N652 N 0.9132 0.04959 0.99828 0.0
N653 N 0.90042 0.01444 0.11832 0.0
H654 H 0.78004 0.18999 0.63095 0.0
H655 H 0.73869 0.19488 0.03462 0.0
H656 H 0.72372 0.19045 0.65927 0.0
H657 H 0.79461 0.20254 0.01022 0.0
H658 H 0.73323 0.19197 0.89666 0.0
H659 H 0.78593 0.19368 0.76908 0.0
C660 C 0.7689 0.19097 0.66593 0.0
C661 C 0.75133 0.18986 0.63298 0.0
C662 C 0.74671 0.19431 0.92134 0.0
C663 C 0.75801 0.19386 0.79143 0.0
C664 C 0.74985 0.19584 1.00024 0.0
C665 C 0.76716 0.19886 0.0341 0.0
C666 C 0.76098 0.19569 0.87559 0.0
C667 C 0.78105 0.20035 0.98648 0.0
C668 C 0.77229 0.193 0.74491 0.0
C669 C 0.73747 0.19095 0.68167 0.0
N670 N 0.77768 0.19867 0.90962 0.0
N671 N 0.74111 0.19285 0.75821 0.0
H672 H 0.89314 0.54675 0.30884 0.0
H673 H 0.92863 0.56799 0.91075 0.0
H674 H 0.9397 0.57936 0.29075 0.0
H675 H 0.88832 0.52841 0.935 0.0
H676 H 0.93108 0.5747 0.04881 0.0
H677 H 0.88964 0.54198 0.17099 0.0
C678 C 0.90273 0.55283 0.27611 0.0
C679 C 0.91688 0.56333 0.31193 0.0
C680 C 0.92168 0.56457 0.02382 0.0
C681 C 0.9127 0.55815 0.15317 0.0
C682 C 0.92019 0.56083 0.94502 0.0
C683 C 0.90831 0.54755 0.91137 0.0
C684 C 0.91112 0.55506 0.06916 0.0
C685 C 0.89784 0.53854 0.95862 0.0
C686 C 0.90063 0.55018 0.19713 0.0
C687 C 0.92855 0.57124 0.26586 0.0
N688 N 0.89949 0.54246 0.03501 0.0
N689 N 0.92622 0.56845 0.18888 0.0
H690 H 0.7617 0.70161 0.51523 0.0
H691 H 0.72638 0.68232 0.07844 0.0
H692 H 0.70792 0.68457 0.44305 0.0
H693 H 0.77677 0.70799 0.153 0.0
H694 H 0.7198 0.6816 0.21097 0.0
H695 H 0.76804 0.70216 0.38237 0.0
C696 C 0.75126 0.69783 0.47145 0.0
C697 C 0.73426 0.69296 0.49039 0.0
C698 C 0.73229 0.68742 0.1982 0.0
C699 C 0.74138 0.69375 0.33773 0.0
C700 C 0.73604 0.68793 0.12233 0.0
C701 C 0.7522 0.69525 0.1039 0.0
C702 C 0.7448 0.69419 0.25637 0.0
C703 C 0.76427 0.702 0.16394 0.0
C704 C 0.75485 0.69829 0.39549 0.0
C705 C 0.72115 0.68854 0.43102 0.0
N706 N 0.76033 0.70127 0.23725 0.0
N707 N 0.725 0.68899 0.35737 0.0
H708 H 0.61242 0.57291 0.72776 0.0
H709 H 0.59407 0.53611 0.29216 0.0
H710 H 0.59133 0.52048 0.65451 0.0
H711 H 0.60839 0.59077 0.36127 0.0
H712 H 0.5942 0.53 0.42532 0.0
H713 H 0.61181 0.57972 0.59478 0.0
C714 C 0.60755 0.56286 0.684 0.0
C715 C 0.60197 0.54605 0.70276 0.0
C716 C 0.59731 0.54335 0.41153 0.0
C717 C 0.60147 0.55371 0.55017 0.0
C718 C 0.59738 0.54682 0.33534 0.0
C719 C 0.60133 0.56397 0.3154 0.0
C720 C 0.6013 0.5571 0.4686 0.0
C721 C 0.60514 0.5774 0.37408 0.0
C722 C 0.6073 0.56674 0.60797 0.0
C723 C 0.59604 0.5335 0.64316 0.0
N724 N 0.6051 0.57367 0.44805 0.0
N725 N 0.59599 0.53758 0.56978 0.0
H726 H 0.75478 0.3747 0.52834 0.0
H727 H 0.71519 0.38936 0.93461 0.0
H728 H 0.6986 0.37899 0.555 0.0
H729 H 0.77001 0.37704 0.90232 0.0
H730 H 0.70868 0.3866 0.79652 0.0
H731 H 0.76054 0.37687 0.66608 0.0
C732 C 0.74364 0.3762 0.56321 0.0
C733 C 0.72618 0.37676 0.53005 0.0
C734 C 0.72212 0.38449 0.81987 0.0
C735 C 0.73266 0.3791 0.68834 0.0
C736 C 0.72584 0.38599 0.89876 0.0
C737 C 0.74321 0.38351 0.93052 0.0
C738 C 0.73587 0.38053 0.77239 0.0
C739 C 0.7565 0.37939 0.88087 0.0
C740 C 0.74693 0.37732 0.64198 0.0
C741 C 0.71225 0.37837 0.57823 0.0
N742 N 0.75255 0.37807 0.80454 0.0
N743 N 0.71579 0.37956 0.65502 0.0
H744 H 0.09222 0.49463 0.80357 0.0
H745 H 0.09644 0.5678 0.15709 0.0
H746 H 0.09265 0.55124 0.78344 0.0
H747 H 0.10366 0.51184 0.18307 0.0
H748 H 0.09335 0.56153 0.02005 0.0
H749 H 0.09453 0.50021 0.9423 0.0
C750 C 0.09271 0.50822 0.82827 0.0
C751 C 0.09232 0.52249 0.78172 0.0
C752 C 0.09564 0.55059 0.05557 0.0
C753 C 0.09502 0.52896 0.94028 0.0
C754 C 0.09752 0.55418 0.13418 0.0
C755 C 0.1005 0.54036 0.18222 0.0
C756 C 0.09666 0.53302 0.02404 0.0
C757 C 0.10127 0.52291 0.14852 0.0
C758 C 0.09413 0.51139 0.90743 0.0
C759 C 0.09319 0.53983 0.81689 0.0
N760 N 0.0994 0.51974 0.07149 0.0
N761 N 0.09447 0.54256 0.89387 0.0
H762 H 0.28556 0.4008 0.98888 0.0
H763 H 0.24868 0.38217 0.55348 0.0
H764 H 0.233 0.38002 0.9159 0.0
H765 H 0.30335 0.39652 0.62216 0.0
H766 H 0.24261 0.38237 0.68669 0.0
H767 H 0.2924 0.39996 0.85585 0.0
C768 C 0.27549 0.39595 0.94516 0.0
C769 C 0.25862 0.39053 0.96399 0.0
C770 C 0.25596 0.38547 0.6728 0.0
C771 C 0.26633 0.38976 0.81139 0.0
C772 C 0.2594 0.38549 0.59658 0.0
C773 C 0.27654 0.38944 0.5765 0.0
C774 C 0.26972 0.3895 0.72978 0.0
C775 C 0.28998 0.39327 0.63508 0.0
C776 C 0.27939 0.39556 0.86911 0.0
C777 C 0.24606 0.38462 0.90447 0.0
N778 N 0.28628 0.39327 0.7091 0.0
N779 N 0.25015 0.38443 0.83109 0.0
H780 H 0.41584 0.55059 0.79008 0.0
H781 H 0.39749 0.51369 0.35462 0.0
H782 H 0.40175 0.49587 0.72117 0.0
H783 H 0.41853 0.56616 0.42767 0.0
H784 H 0.39814 0.5069 0.48764 0.0
H785 H 0.41565 0.55668 0.65688 0.0
C786 C 0.41257 0.53987 0.74693 0.0
C787 C 0.40871 0.5227 0.76693 0.0
C788 C 0.40264 0.51988 0.47439 0.0
C789 C 0.40866 0.52955 0.61371 0.0
C790 C 0.40236 0.52376 0.39835 0.0
C791 C 0.40791 0.54057 0.37952 0.0
C792 C 0.40846 0.53293 0.53213 0.0
C793 C 0.41383 0.55313 0.43907 0.0
C794 C 0.4126 0.54332 0.67073 0.0
C795 C 0.40494 0.50925 0.70831 0.0
N796 N 0.41391 0.54907 0.51246 0.0
N797 N 0.40494 0.51297 0.63432 0.0
H798 H 0.24073 0.70986 0.16935 0.0
H799 H 0.31411 0.70755 0.51981 0.0
H800 H 0.29578 0.69788 0.14075 0.0
H801 H 0.25773 0.71122 0.54253 0.0
H802 H 0.30824 0.7058 0.38124 0.0
H803 H 0.24726 0.71201 0.30629 0.0
C804 C 0.2542 0.70754 0.19162 0.0
C805 C 0.26769 0.70353 0.14286 0.0
C806 C 0.29717 0.70696 0.41664 0.0
C807 C 0.27534 0.70628 0.30092 0.0
C808 C 0.30052 0.70806 0.4957 0.0
C809 C 0.28639 0.70947 0.54292 0.0
C810 C 0.27957 0.70742 0.38457 0.0
C811 C 0.26901 0.70988 0.50852 0.0
C812 C 0.25794 0.70888 0.27019 0.0
C813 C 0.28498 0.70113 0.17583 0.0
N814 N 0.26612 0.7089 0.43162 0.0
N815 N 0.28831 0.70253 0.2528 0.0
H816 H 0.38348 0.09304 0.24625 0.0
H817 H 0.29249 0.13997 0.1318 0.0
H818 H 0.37264 0.12025 0.04234 0.0
H819 H 0.30857 0.13514 0.36808 0.0
H820 H 0.32079 0.12762 0.09759 0.0
H821 H 0.35624 0.10566 0.29522 0.0
C822 C 0.37572 0.10205 0.21271 0.0
C823 C 0.38015 0.10522 0.13906 0.0
C824 C 0.31814 0.12905 0.15699 0.0
C825 C 0.34891 0.11921 0.19389 0.0
C826 C 0.30186 0.13582 0.17632 0.0
C827 C 0.2982 0.13843 0.25268 0.0
C828 C 0.33097 0.12485 0.21437 0.0
C829 C 0.31087 0.13308 0.30846 0.0
C830 C 0.36007 0.10905 0.24037 0.0
C831 C 0.3696 0.11706 0.09855 0.0
N832 N 0.32683 0.1266 0.28827 0.0
N833 N 0.35435 0.1233 0.12577 0.0
H834 H 0.15374 0.10819 0.61119 0.0
H835 H 0.18927 0.1459 0.23941 0.0
H836 H 0.13114 0.09216 0.38477 0.0
H837 H 0.20582 0.16763 0.46665 0.0
H838 H 0.16766 0.12679 0.29099 0.0
H839 H 0.17222 0.13028 0.55948 0.0
C840 C 0.15253 0.10938 0.55043 0.0
C841 C 0.14077 0.09814 0.50246 0.0
C842 C 0.17588 0.13581 0.32973 0.0
C843 C 0.16235 0.12362 0.44221 0.0
C844 C 0.18831 0.14679 0.30031 0.0
C845 C 0.19955 0.15849 0.34857 0.0
C846 C 0.17462 0.13622 0.40857 0.0
C847 C 0.19748 0.15895 0.42699 0.0
C848 C 0.16315 0.12208 0.52092 0.0
C849 C 0.13988 0.10051 0.42421 0.0
N850 N 0.18543 0.1479 0.45442 0.0
N851 N 0.15061 0.11282 0.3966 0.0
H852 H 0.21422 0.91779 0.58441 0.0
H853 H 0.16187 1.00463 0.70778 0.0
H854 H 0.186 0.92505 0.78728 0.0
H855 H 0.16618 0.99032 0.46958 0.0
H856 H 0.1759 0.97682 0.73799 0.0
H857 H 0.19956 0.94431 0.53749 0.0
C858 C 0.20458 0.92458 0.61807 0.0
C859 C 0.2017 0.91943 0.69096 0.0
C860 C 0.17396 0.97976 0.67902 0.0
C861 C 0.18538 0.94985 0.63852 0.0
C862 C 0.1662 0.99575 0.66193 0.0
C863 C 0.16293 0.99975 0.58622 0.0
C864 C 0.17856 0.96754 0.62007 0.0
C865 C 0.16867 0.98774 0.52874 0.0
C866 C 0.1964 0.93983 0.59158 0.0
C867 C 0.189 0.92872 0.73168 0.0
N868 N 0.17616 0.97203 0.54678 0.0
N869 N 0.18163 0.94363 0.70568 0.0
H870 H 0.3221 0.03378 0.09384 0.0
H871 H 0.27071 0.98117 0.73709 0.0
H872 H 0.33489 0.03627 0.86156 0.0
H873 H 0.2693 0.96772 0.96899 0.0
H874 H 0.28548 0.00938 0.78297 0.0
H875 H 0.29441 0.01798 0.04841 0.0
C876 C 0.31882 0.03143 0.03321 0.0
C877 C 0.33088 0.03591 0.98118 0.0
C878 C 0.28153 1.00044 0.82385 0.0
C879 C 0.29951 0.01782 0.92924 0.0
C880 C 0.27306 0.98441 0.79776 0.0
C881 C 0.26922 0.97204 0.84951 0.0
C882 C 0.28614 1.004 0.90196 0.0
C883 C 0.27249 0.97681 0.92742 0.0
C884 C 0.30307 0.02239 0.00738 0.0
C885 C 0.32605 0.03261 0.90332 0.0
N886 N 0.28106 0.99233 0.95137 0.0
N887 N 0.31083 0.02348 0.87962 0.0
H888 H 0.71814 0.95248 0.9522 0.0
H889 H 0.62398 0.99272 0.84118 0.0
H890 H 0.69895 0.94954 0.71592 0.0
H891 H 0.63735 0.96655 0.04601 0.0
H892 H 0.65141 0.98109 0.78988 0.0
H893 H 0.68966 0.96451 0.98626 0.0
C894 C 0.70807 0.95495 0.90735 0.0
C895 C 0.71089 0.9502 0.83126 0.0
C896 C 0.64808 0.97771 0.84547 0.0
C897 C 0.67799 0.96334 0.86978 0.0
C898 C 0.63234 0.98414 0.87449 0.0
C899 C 0.62854 0.98099 0.949 0.0
C900 C 0.65998 0.96822 0.8916 0.0
C901 C 0.63987 0.96972 0.98917 0.0
C902 C 0.69172 0.96151 0.92678 0.0
C903 C 0.6973 0.95332 0.77518 0.0
N904 N 0.6552 0.9641 0.96072 0.0
N905 N 0.68128 0.95962 0.79555 0.0
H906 H 0.81948 0.94267 0.85368 0.0
H907 H 0.85578 0.97805 0.47905 0.0
H908 H 0.80358 0.91934 0.62828 0.0
H909 H 0.87808 0.99511 0.70486 0.0
H910 H 0.83724 0.95623 0.5323 0.0
H911 H 0.84125 0.96132 0.80072 0.0
C912 C 0.82062 0.94133 0.7929 0.0
C913 C 0.80952 0.92932 0.74556 0.0
C914 C 0.84626 0.96459 0.57038 0.0
C915 C 0.83462 0.95108 0.6839 0.0
C916 C 0.85692 0.97714 0.54 0.0
C917 C 0.86861 0.98858 0.58734 0.0
C918 C 0.84696 0.96344 0.64933 0.0
C919 C 0.8694 0.98659 0.66588 0.0
C920 C 0.83315 0.95205 0.76269 0.0
C921 C 0.81182 0.92828 0.66725 0.0
N922 N 0.85863 0.97444 0.69432 0.0
N923 N 0.82395 0.9391 0.63896 0.0
H924 H 0.84672 0.08066 0.37774 0.0
H925 H 0.79556 0.16892 0.49174 0.0
H926 H 0.84325 0.09688 0.61483 0.0
H927 H 0.82356 0.15989 0.28897 0.0
H928 H 0.80986 0.14253 0.54158 0.0
H929 H 0.83276 0.1083 0.34425 0.0
C930 C 0.84255 0.08991 0.42267 0.0
C931 C 0.84602 0.0865 0.49899 0.0
C932 C 0.81305 0.14659 0.48683 0.0
C933 C 0.83054 0.11851 0.46137 0.0
C934 C 0.80508 0.16177 0.45866 0.0
C935 C 0.80802 0.16641 0.38506 0.0
C936 C 0.82391 0.13611 0.44082 0.0
C937 C 0.82054 0.15664 0.34511 0.0
C938 C 0.83486 0.1058 0.4037 0.0
C939 C 0.84056 0.09899 0.55526 0.0
N940 N 0.8277 0.14182 0.37275 0.0
N941 N 0.83314 0.11459 0.53538 0.0
H942 H 0.73825 0.10588 0.34231 0.0
H943 H 0.6854 0.05233 0.99173 0.0
H944 H 0.73942 0.11807 0.10865 0.0
H945 H 0.67378 0.05025 0.22574 0.0
H946 H 0.71313 0.06831 0.03421 0.0
H947 H 0.72297 0.07777 0.29946 0.0
C948 C 0.73572 0.10239 0.28189 0.0
C949 C 0.73969 0.11439 0.22878 0.0
C950 C 0.70471 0.06399 0.07629 0.0
C951 C 0.72214 0.08254 0.17976 0.0
C952 C 0.68894 0.05482 0.05213 0.0
C953 C 0.67719 0.05036 0.10547 0.0
C954 C 0.70863 0.06872 0.15409 0.0
C955 C 0.68235 0.05388 0.18295 0.0
C956 C 0.72695 0.08641 0.25753 0.0
C957 C 0.73615 0.10929 0.15126 0.0
N958 N 0.6976 0.06313 0.20501 0.0
N959 N 0.72729 0.09384 0.12901 0.0
H960 H 0.79034 0.63245 0.62115 0.0
H961 H 0.8809 0.58621 0.75207 0.0
H962 H 0.80667 0.63186 0.85955 0.0
H963 H 0.87033 0.60969 0.53869 0.0
H964 H 0.85325 0.59925 0.79548 0.0
H965 H 0.81806 0.61823 0.59047 0.0
C966 C 0.79962 0.62883 0.66705 0.0
C967 C 0.79623 0.6332 0.74284 0.0
C968 C 0.8572 0.60169 0.73963 0.0
C969 C 0.82833 0.61747 0.70838 0.0
C970 C 0.87305 0.59444 0.71511 0.0
C971 C 0.87787 0.59671 0.6412 0.0
C972 C 0.84612 0.61103 0.68949 0.0
C973 C 0.86709 0.60737 0.59566 0.0
C974 C 0.81556 0.62097 0.64964 0.0
C975 C 0.80877 0.62847 0.8004 0.0
N976 N 0.85167 0.61388 0.62006 0.0
N977 N 0.82442 0.62094 0.78203 0.0
H978 H 0.68848 0.64437 0.71839 0.0
H979 H 0.65188 0.6095 0.09363 0.0
H980 H 0.70521 0.66715 0.94381 0.0
H981 H 0.62993 0.59221 0.8675 0.0
H982 H 0.6707 0.63109 0.04038 0.0
H983 H 0.66656 0.626 0.77173 0.0
C984 C 0.68748 0.64566 0.77927 0.0
C985 C 0.69886 0.65742 0.82648 0.0
C986 C 0.66169 0.62271 0.00225 0.0
C987 C 0.67359 0.63598 0.88861 0.0
C988 C 0.65087 0.6103 0.03263 0.0
C989 C 0.63921 0.59886 0.98518 0.0
C990 C 0.66114 0.62375 0.92325 0.0
C991 C 0.63859 0.60072 0.90657 0.0
C992 C 0.67488 0.63509 0.80972 0.0
C993 C 0.69674 0.65841 0.90494 0.0
N994 N 0.64949 0.61275 0.87819 0.0
N995 N 0.68452 0.64773 0.93347 0.0
H996 H 0.66259 0.50841 0.20064 0.0
H997 H 0.70418 0.41423 0.08495 0.0
H998 H 0.66312 0.48955 0.9649 0.0
H999 H 0.68196 0.4286 0.29839 0.0
H1000 H 0.69282 0.44213 0.03725 0.0
H1001 H 0.67559 0.48051 0.23699 0.0
C1002 C 0.66601 0.49854 0.15653 0.0
C1003 C 0.66201 0.50129 0.07984 0.0
C1004 C 0.69029 0.43898 0.09413 0.0
C1005 C 0.67622 0.46899 0.12074 0.0
C1006 C 0.69657 0.42299 0.12111 0.0
C1007 C 0.69415 0.41911 0.19616 0.0
C1008 C 0.68176 0.45115 0.14291 0.0
C1009 C 0.68434 0.43106 0.24056 0.0
C1010 C 0.67313 0.4825 0.17717 0.0
C1011 C 0.66631 0.48796 0.02466 0.0
N1012 N 0.67876 0.44657 0.2137 0.0
N1013 N 0.6731 0.47224 0.04616 0.0
H1014 H 0.80514 0.43109 0.31357 0.0
H1015 H 0.82787 0.53061 0.46511 0.0
H1016 H 0.76261 0.46672 0.36739 0.0
H1017 H 0.86061 0.48584 0.51786 0.0
H1018 H 0.80409 0.50971 0.41111 0.0
H1019 H 0.82664 0.45395 0.36422 0.0
C1020 C 0.80033 0.44375 0.33631 0.0
C1021 C 0.78211 0.4469 0.33833 0.0
C1022 C 0.81651 0.50461 0.4349 0.0
C1023 C 0.80665 0.47316 0.39536 0.0
C1024 C 0.82999 0.51645 0.46585 0.0
C1025 C 0.84634 0.5099 0.49436 0.0
C1026 C 0.81965 0.48629 0.4321 0.0
C1027 C 0.84845 0.49146 0.49424 0.0
C1028 C 0.8126 0.45678 0.36503 0.0
C1029 C 0.7766 0.46378 0.36561 0.0
N1030 N 0.83534 0.48032 0.46278 0.0
N1031 N 0.78889 0.47636 0.3938 0.0
H1032 H 0.13735 0.47256 0.5474 0.0
H1033 H 0.20592 0.45668 0.22772 0.0
H1034 H 0.13193 0.50051 0.34346 0.0
H1035 H 0.21592 0.44565 0.46234 0.0
H1036 H 0.17778 0.47093 0.25926 0.0
H1037 H 0.16405 0.45864 0.50388 0.0
C1038 C 0.1416 0.47551 0.4926 0.0
C1039 C 0.13249 0.48787 0.44951 0.0
C1040 C 0.1863 0.46559 0.3038 0.0
C1041 C 0.16348 0.47225 0.39984 0.0
C1042 C 0.20242 0.45769 0.28607 0.0
C1043 C 0.21321 0.45002 0.34265 0.0
C1044 C 0.181 0.46553 0.37825 0.0
C1045 C 0.20795 0.45137 0.41707 0.0
C1046 C 0.157 0.46771 0.46812 0.0
C1047 C 0.13857 0.49104 0.37852 0.0
N1048 N 0.1922 0.45876 0.43244 0.0
N1049 N 0.15386 0.48344 0.35616 0.0
H1050 H 0.3215 0.44058 0.35785 0.0
H1051 H 0.35835 0.47717 0.98616 0.0
H1052 H 0.30506 0.41873 0.13066 0.0
H1053 H 0.37981 0.49407 0.21344 0.0
H1054 H 0.33953 0.45533 0.03772 0.0
H1055 H 0.3433 0.45947 0.30641 0.0
C1056 C 0.32253 0.43961 0.29699 0.0
C1057 C 0.31127 0.42795 0.24871 0.0
C1058 C 0.34843 0.46367 0.07649 0.0
C1059 C 0.33641 0.44998 0.18884 0.0
C1060 C 0.35924 0.47623 0.04708 0.0
C1061 C 0.37078 0.48764 0.09533 0.0
C1062 C 0.34884 0.46244 0.15534 0.0
C1063 C 0.37125 0.48559 0.17378 0.0
C1064 C 0.33506 0.45048 0.26764 0.0
C1065 C 0.31342 0.42739 0.17033 0.0
N1066 N 0.36036 0.4734 0.20123 0.0
N1067 N 0.32558 0.43833 0.14295 0.0
H1068 H 0.30752 0.67316 0.9913 0.0
H1069 H 0.34653 0.57748 0.88183 0.0
H1070 H 0.32912 0.65722 0.778 0.0
H1071 H 0.34797 0.5979 0.11628 0.0
H1072 H 0.33385 0.60541 0.84377 0.0
H1073 H 0.31834 0.64528 0.04107 0.0
C1074 C 0.31487 0.66406 0.95556 0.0
C1075 C 0.31728 0.6675 0.87998 0.0
C1076 C 0.33665 0.60374 0.90372 0.0
C1077 C 0.32902 0.63549 0.93561 0.0
C1078 C 0.34358 0.5877 0.92538 0.0
C1079 C 0.34804 0.58538 0.00216 0.0
C1080 C 0.33423 0.61767 0.95919 0.0
C1081 C 0.34439 0.59915 0.05654 0.0
C1082 C 0.32084 0.64808 0.98374 0.0
C1083 C 0.32676 0.65512 0.8362 0.0
N1084 N 0.33778 0.61485 0.03401 0.0
N1085 N 0.33203 0.63963 0.86422 0.0
H1086 H 0.18436 0.55502 0.62393 0.0
H1087 H 0.20678 0.6557 0.75854 0.0
H1088 H 0.15065 0.59901 0.57006 0.0
H1089 H 0.24926 0.61946 0.71144 0.0
H1090 H 0.18526 0.63259 0.71157 0.0
H1091 H 0.20817 0.57644 0.67246 0.0
C1092 C 0.18204 0.56913 0.62185 0.0
C1093 C 0.16543 0.57532 0.5947 0.0
C1094 C 0.19929 0.62968 0.71127 0.0
C1095 C 0.19217 0.59953 0.65049 0.0
C1096 C 0.21157 0.64286 0.73787 0.0
C1097 C 0.2298 0.63959 0.73687 0.0
C1098 C 0.20521 0.61301 0.68406 0.0
C1099 C 0.23528 0.62249 0.7124 0.0
C1100 C 0.19554 0.58126 0.64962 0.0
C1101 C 0.16305 0.59368 0.59279 0.0
N1102 N 0.22297 0.60975 0.68631 0.0
N1103 N 0.1762 0.60512 0.62108 0.0
H1104 H 0.46396 0.07431 0.1048 0.0
H1105 H 0.54404 0.01096 0.98798 0.0
H1106 H 0.46019 0.017 0.08157 0.0
H1107 H 0.54778 0.06827 0.01158 0.0
H1108 H 0.51302 0.01286 0.01961 0.0
H1109 H 0.49498 0.07239 0.07329 0.0
C1110 C 0.46973 0.06134 0.09428 0.0
C1111 C 0.45948 0.0458 0.0957 0.0
C1112 C 0.52061 0.02502 0.01738 0.0
C1113 C 0.49478 0.04348 0.0582 0.0
C1114 C 0.53826 0.02393 0.9986 0.0
C1115 C 0.5485 0.03947 0.99725 0.0
C1116 C 0.51321 0.04176 0.03486 0.0
C1117 C 0.54039 0.05593 0.01231 0.0
C1118 C 0.48738 0.06023 0.07558 0.0
C1119 C 0.46758 0.02933 0.08079 0.0
N1120 N 0.52328 0.05664 0.0308 0.0
N1121 N 0.4847 0.02861 0.06234 0.0
H1122 H 0.28746 0.33667 0.31991 0.0
H1123 H 0.22231 0.25027 0.27623 0.0
H1124 H 0.23594 0.33473 0.19599 0.0
H1125 H 0.27353 0.25253 0.40275 0.0
H1126 H 0.22657 0.28151 0.24889 0.0
H1127 H 0.28312 0.30547 0.34749 0.0
C1128 C 0.27551 0.32954 0.29657 0.0
C1129 C 0.26214 0.33828 0.25496 0.0
C1130 C 0.23677 0.27523 0.28356 0.0
C1131 C 0.25671 0.3028 0.28851 0.0
C1132 C 0.23416 0.25748 0.30024 0.0
C1133 C 0.24748 0.24882 0.3425 0.0
C1134 C 0.25283 0.28432 0.30912 0.0
C1135 C 0.26286 0.25871 0.3702 0.0
C1136 C 0.27286 0.31181 0.31337 0.0
C1137 C 0.24664 0.32849 0.22805 0.0
N1138 N 0.26515 0.27578 0.35274 0.0
N1139 N 0.24432 0.31142 0.24555 0.0
H1140 H 0.04461 0.06498 0.44055 0.0
H1141 H 0.96464 0.02186 0.64836 0.0
H1142 H 0.05227 0.0385 0.64753 0.0
H1143 H 0.95699 0.04836 0.44139 0.0
H1144 H 0.99697 0.02709 0.64772 0.0
H1145 H 0.01228 0.05976 0.44122 0.0
C1146 C 0.03949 0.05846 0.48689 0.0
C1147 C 0.05118 0.05221 0.54402 0.0
C1148 C 0.98819 0.03161 0.60206 0.0
C1149 C 0.01432 0.04571 0.54438 0.0
C1150 C 0.96976 0.02839 0.60203 0.0
C1151 C 0.95807 0.03464 0.54489 0.0
C1152 C 0.99493 0.04114 0.54457 0.0
C1153 C 0.96548 0.04336 0.4869 0.0
C1154 C 0.02106 0.05524 0.48688 0.0
C1155 C 0.04377 0.0435 0.60203 0.0
N1156 N 0.9833 0.04641 0.48843 0.0
N1157 N 0.02596 0.04044 0.60052 0.0
H1158 H 0.29956 0.75769 0.83334 0.0
H1159 H 0.23637 0.83923 0.73978 0.0
H1160 H 0.24455 0.76105 0.88286 0.0
H1161 H 0.29344 0.84235 0.73621 0.0
H1162 H 0.23916 0.80924 0.78211 0.0
H1163 H 0.29811 0.78829 0.79443 0.0
C1164 C 0.28736 0.76503 0.83797 0.0
C1165 C 0.27214 0.75687 0.86114 0.0
C1166 C 0.25109 0.81645 0.77167 0.0
C1167 C 0.27019 0.79141 0.81459 0.0
C1168 C 0.24946 0.83349 0.74656 0.0
C1169 C 0.26469 0.84331 0.73463 0.0
C1170 C 0.26805 0.80914 0.7845 0.0
C1171 C 0.28135 0.83525 0.74507 0.0
C1172 C 0.28645 0.78237 0.81484 0.0
C1173 C 0.25656 0.76682 0.86484 0.0
N1174 N 0.2826 0.81865 0.76965 0.0
N1175 N 0.25593 0.78346 0.84106 0.0
H1176 H 0.73264 0.75288 0.88543 0.0
H1177 H 0.77707 0.83287 0.68247 0.0
H1178 H 0.76085 0.74513 0.68305 0.0
H1179 H 0.75004 0.84034 0.88811 0.0
H1180 H 0.77186 0.80053 0.6825 0.0
H1181 H 0.73804 0.78518 0.88546 0.0
C1182 C 0.73961 0.75797 0.84027 0.0
C1183 C 0.74628 0.74626 0.78427 0.0
C1184 C 0.76722 0.80927 0.728 0.0
C1185 C 0.75293 0.7831 0.78466 0.0
C1186 C 0.77043 0.82771 0.72839 0.0
C1187 C 0.76402 0.83935 0.78531 0.0
C1188 C 0.75753 0.80248 0.78489 0.0
C1189 C 0.75516 0.83189 0.84277 0.0
C1190 C 0.74292 0.77639 0.84069 0.0
C1191 C 0.75553 0.75363 0.72773 0.0
N1192 N 0.7521 0.81407 0.84086 0.0
N1193 N 0.75863 0.77144 0.72955 0.0
H1194 H 0.77443 0.24706 0.33125 0.0
H1195 H 0.71192 0.32917 0.23854 0.0
H1196 H 0.71735 0.24452 0.33562 0.0
H1197 H 0.7669 0.32542 0.18891 0.0
H1198 H 0.71315 0.29856 0.27732 0.0
H1199 H 0.77191 0.27709 0.28899 0.0
C1200 C 0.7614 0.25294 0.32467 0.0
C1201 C 0.74609 0.24328 0.33684 0.0
C1202 C 0.72485 0.3044 0.25693 0.0
C1203 C 0.74303 0.27748 0.28704 0.0
C1204 C 0.72407 0.32175 0.23387 0.0
C1205 C 0.73934 0.3298 0.21069 0.0
C1206 C 0.74104 0.29524 0.25708 0.0
C1207 C 0.75485 0.31973 0.20693 0.0
C1208 C 0.75993 0.27 0.2996 0.0
C1209 C 0.72951 0.2515 0.32659 0.0
N1210 N 0.75535 0.30309 0.23064 0.0
N1211 N 0.7284 0.2681 0.30205 0.0
H1212 H 0.96443 0.57422 0.59297 0.0
H1213 H 0.0469 0.51166 0.5023 0.0
H1214 H 0.96956 0.5205 0.65854 0.0
H1215 H 0.04211 0.56556 0.43876 0.0
H1216 H 0.01794 0.51421 0.5557 0.0
H1217 H 0.99339 0.57172 0.53959 0.0
C1218 C 0.97186 0.56209 0.59797 0.0
C1219 C 0.96458 0.54753 0.62993 0.0
C1220 C 0.02315 0.52542 0.52927 0.0
C1221 C 0.99738 0.54434 0.5671 0.0
C1222 C 0.03954 0.52384 0.49773 0.0
C1223 C 0.0469 0.53843 0.46628 0.0
C1224 C 0.01412 0.54168 0.52918 0.0
C1225 C 0.03692 0.55402 0.46286 0.0
C1226 C 0.98826 0.56055 0.56647 0.0
C1227 C 0.97468 0.53202 0.63399 0.0
N1228 N 0.02113 0.55529 0.49454 0.0
N1229 N 0.99046 0.53077 0.6023 0.0
H1230 H 0.46185 0.51077 0.02815 0.0
H1231 H 0.54812 0.57589 0.05464 0.0
H1232 H 0.46373 0.56381 0.1383 0.0
H1233 H 0.54625 0.52284 0.94459 0.0
H1234 H 0.51687 0.57215 0.08281 0.0
H1235 H 0.4931 0.51451 1.0 0.0
C1236 C 0.46896 0.52297 0.04826 0.0
C1237 C 0.46018 0.53693 0.0861 0.0
C1238 C 0.52326 0.5614 0.05167 0.0
C1239 C 0.49572 0.54161 0.05194 0.0
C1240 C 0.54102 0.56368 0.03456 0.0
C1241 C 0.54979 0.54972 0.99674 0.0
C1242 C 0.51425 0.54504 0.03091 0.0
C1243 C 0.54001 0.53398 0.97382 0.0
C1244 C 0.48671 0.52526 0.03116 0.0
C1245 C 0.46996 0.55267 0.10905 0.0
N1246 N 0.52292 0.53203 0.99155 0.0
N1247 N 0.48706 0.55462 0.09133 0.0
loop_
_geom_bond_atom_site_label_1
_geom_bond_atom_site_label_2
_geom_bond_distance
_geom_bond_site_symmetry_2
_ccdc_geom_bond_type
C0 C1 1.351 . S
C0 N3 1.368 . S
C0 H5 0.931 . S
C1 C0 1.351 . S
C1 N2 1.373 . S
C1 H29 0.930 . S
N2 C1 1.373 . S
N2 C4 1.340 . S
N3 C0 1.368 . S
N3 C4 1.321 . S
N3 Co6 2.135 . S
C4 N2 1.340 . S
C4 N3 1.321 . S
C4 H28 0.930 . S
H5 C0 0.931 . S
Co6 N3 2.135 . S
Co6 N9 2.121 1_554 S
Co6 O14 2.055 . S
Co6 O17 2.039 . S
Co6 N20 2.140 . S
C7 O8 1.227 . S
C7 O17 1.265 . S
O8 C7 1.227 . S
N9 Co6 2.121 1_556 S
N9 C11 1.375 . S
N9 C12 1.313 . S
C10 C11 1.338 . S
C10 N13 1.377 . S
C10 H30 0.930 . S
C11 N9 1.375 . S
C11 C10 1.338 . S
C11 H15 0.931 . S
C12 N9 1.313 . S
C12 N13 1.344 . S
C12 H16 0.930 . S
N13 C10 1.377 . S
N13 C12 1.344 . S
O14 Co6 2.055 . S
O14 C18 1.253 . S
H15 C11 0.931 . S
H16 C12 0.930 . S
O17 Co6 2.039 . S
O17 C7 1.265 . S
C18 O14 1.253 . S
C18 O19 1.227 . S
O19 C18 1.227 . S
N20 Co6 2.140 . S
N20 C23 1.346 . S
N20 C24 1.345 . S
C21 C22 1.387 1_565 S
C21 C25 1.382 1_564 S
C22 C21 1.387 1_545 S
C22 C23 1.369 . S
C22 H31 0.929 . S
C23 N20 1.346 . S
C23 C22 1.369 . S
C23 H26 0.928 . S
C24 N20 1.345 . S
C24 C25 1.396 1_554 S
C24 H27 0.931 1_554 S
C25 C21 1.382 1_546 S
C25 C24 1.396 1_556 S
C25 H32 0.915 1_545 S
H26 C23 0.928 . S
H27 C24 0.931 1_556 S
H28 C4 0.930 . S
H29 C1 0.930 . S
H30 C10 0.930 . S
H31 C22 0.929 . S
H32 C25 0.915 1_565 S
C33 C34 1.351 . S
C33 N36 1.368 . S
C33 H38 0.931 . S
C34 C33 1.351 . S
C34 N35 1.373 . S
C34 H62 0.930 . S
N35 C34 1.373 . S
N35 C37 1.340 . S
N36 C33 1.368 . S
N36 C37 1.321 . S
N36 Co39 2.135 . S
C37 N35 1.340 . S
C37 N36 1.321 . S
C37 H61 0.930 . S
H38 C33 0.931 . S
Co39 N36 2.135 . S
Co39 N42 2.121 . S
Co39 O47 2.055 . S
Co39 O50 2.039 . S
Co39 N53 2.140 . S
C40 O41 1.227 . S
C40 O50 1.265 . S
O41 C40 1.227 . S
N42 Co39 2.121 . S
N42 C44 1.375 . S
N42 C45 1.313 . S
C43 C44 1.338 . S
C43 N46 1.377 . S
C43 H63 0.930 . S
C44 N42 1.375 . S
C44 C43 1.338 . S
C44 H48 0.931 . S
C45 N42 1.313 . S
C45 N46 1.344 . S
C45 H49 0.930 . S
N46 C43 1.377 . S
N46 C45 1.344 . S
O47 Co39 2.055 . S
O47 C51 1.253 . S
H48 C44 0.931 . S
H49 C45 0.930 . S
O50 Co39 2.039 . S
O50 C40 1.265 . S
C51 O47 1.253 . S
C51 O52 1.227 . S
O52 C51 1.227 . S
N53 Co39 2.140 . S
N53 C56 1.346 . S
N53 C57 1.345 . S
C54 C55 1.387 . S
C54 C58 1.391 . S
C55 C54 1.387 . S
C55 C56 1.369 . S
C55 H64 0.929 . S
C56 N53 1.346 . S
C56 C55 1.369 . S
C56 H59 0.928 . S
C57 N53 1.345 . S
C57 C58 1.371 . S
C57 H60 0.931 . S
C58 C54 1.391 . S
C58 C57 1.371 . S
C58 H65 0.930 . S
H59 C56 0.928 . S
H60 C57 0.931 . S
H61 C37 0.930 . S
H62 C34 0.930 . S
H63 C43 0.930 . S
H64 C55 0.929 . S
H65 C58 0.930 . S
C66 C67 1.351 . S
C66 N69 1.368 . S
C66 H71 0.931 . S
C67 C66 1.351 . S
C67 N68 1.373 . S
C67 H95 0.930 . S
N68 C67 1.373 . S
N68 C70 1.340 . S
N69 C66 1.368 . S
N69 C70 1.321 . S
N69 Co72 2.135 . S
C70 N68 1.340 . S
C70 N69 1.321 . S
C70 H94 0.930 . S
H71 C66 0.931 . S
Co72 N69 2.135 . S
Co72 N75 2.121 . S
Co72 O80 2.055 . S
Co72 O83 2.039 . S
Co72 N86 2.140 . S
C73 O74 1.227 . S
C73 O83 1.265 . S
O74 C73 1.227 . S
N75 Co72 2.121 . S
N75 C77 1.375 . S
N75 C78 1.313 . S
C76 C77 1.338 . S
C76 N79 1.377 . S
C76 H96 0.930 . S
C77 N75 1.375 . S
C77 C76 1.338 . S
C77 H81 0.931 . S
C78 N75 1.313 . S
C78 N79 1.344 . S
C78 H82 0.930 . S
N79 C76 1.377 . S
N79 C78 1.344 . S
O80 Co72 2.055 . S
O80 C84 1.253 . S
H81 C77 0.931 . S
H82 C78 0.930 . S
O83 Co72 2.039 . S
O83 C73 1.265 . S
C84 O80 1.253 . S
C84 O85 1.227 . S
O85 C84 1.227 . S
N86 Co72 2.140 . S
N86 C89 1.346 . S
N86 C90 1.345 . S
C87 C88 1.387 1_565 S
C87 C91 1.407 . S
C88 C87 1.387 1_545 S
C88 C89 1.369 . S
C88 H97 0.929 . S
C89 N86 1.346 . S
C89 C88 1.369 . S
C89 H92 0.928 . S
C90 N86 1.345 . S
C90 C91 1.314 1_545 S
C90 H93 0.931 . S
C91 C87 1.407 . S
C91 C90 1.314 1_565 S
C91 H98 0.976 . S
H92 C89 0.928 . S
H93 C90 0.931 . S
H94 C70 0.930 . S
H95 C67 0.930 . S
H96 C76 0.930 . S
H97 C88 0.929 . S
H98 C91 0.976 . S
C99 C100 1.351 . S
C99 N102 1.368 . S
C99 H104 0.931 . S
C100 C99 1.351 . S
C100 N101 1.373 . S
C100 H128 0.930 . S
N101 C100 1.373 . S
N101 C103 1.340 . S
N102 C99 1.368 . S
N102 C103 1.321 . S
N102 Co105 2.135 . S
C103 N101 1.340 . S
C103 N102 1.321 . S
C103 H127 0.930 . S
H104 C99 0.931 . S
Co105 N102 2.135 . S
Co105 N108 2.121 . S
Co105 O113 2.055 . S
Co105 O116 2.039 . S
Co105 N119 2.140 . S
C106 O107 1.227 . S
C106 O116 1.265 . S
O107 C106 1.227 . S
N108 Co105 2.121 . S
N108 C110 1.375 . S
N108 C111 1.313 . S
C109 C110 1.338 . S
C109 N112 1.377 . S
C109 H129 0.930 1_556 S
C110 N108 1.375 . S
C110 C109 1.338 . S
C110 H114 0.931 . S
C111 N108 1.313 . S
C111 N112 1.344 . S
C111 H115 0.930 . S
N112 C109 1.377 . S
N112 C111 1.344 . S
O113 Co105 2.055 . S
O113 C117 1.253 . S
H114 C110 0.931 . S
H115 C111 0.930 . S
O116 Co105 2.039 . S
O116 C106 1.265 . S
C117 O113 1.253 . S
C117 O118 1.227 . S
O118 C117 1.227 . S
N119 Co105 2.140 . S
N119 C122 1.346 . S
N119 C123 1.345 . S
C120 C121 1.387 . S
C120 C124 1.391 . S
C121 C120 1.387 . S
C121 C122 1.369 . S
C121 H130 0.929 . S
C122 N119 1.346 . S
C122 C121 1.369 . S
C122 H125 0.928 . S
C123 N119 1.345 . S
C123 C124 1.371 . S
C123 H126 0.931 . S
C124 C120 1.391 . S
C124 C123 1.371 . S
C124 H131 0.930 . S
H125 C122 0.928 . S
H126 C123 0.931 . S
H127 C103 0.930 . S
H128 C100 0.930 . S
H129 C109 0.930 1_554 S
H130 C121 0.929 . S
H131 C124 0.930 . S
C132 C133 1.351 . S
C132 N135 1.368 . S
C132 H137 0.931 . S
C133 C132 1.351 . S
C133 N134 1.373 . S
C133 H161 0.930 . S
N134 C133 1.373 . S
N134 C136 1.340 . S
N135 C132 1.368 . S
N135 C136 1.321 . S
N135 Co138 2.135 . S
C136 N134 1.340 . S
C136 N135 1.321 . S
C136 H160 0.930 . S
H137 C132 0.931 . S
Co138 N135 2.135 . S
Co138 N141 2.121 1_556 S
Co138 O146 2.055 . S
Co138 O149 2.039 . S
Co138 N152 2.140 1_556 S
C139 O140 1.227 . S
C139 O149 1.265 . S
O140 C139 1.227 . S
N141 Co138 2.121 1_554 S
N141 C143 1.375 . S
N141 C144 1.313 . S
C142 C143 1.338 . S
C142 N145 1.377 . S
C142 H162 0.930 . S
C143 N141 1.375 . S
C143 C142 1.338 . S
C143 H147 0.931 . S
C144 N141 1.313 . S
C144 N145 1.344 . S
C144 H148 0.930 . S
N145 C142 1.377 . S
N145 C144 1.344 . S
O146 Co138 2.055 . S
O146 C150 1.253 1_556 S
H147 C143 0.931 . S
H148 C144 0.930 . S
O149 Co138 2.039 . S
O149 C139 1.265 . S
C150 O146 1.253 1_554 S
C150 O151 1.227 . S
O151 C150 1.227 . S
N152 Co138 2.140 1_554 S
N152 C155 1.346 1_554 S
N152 C156 1.345 . S
C153 C154 1.387 1_554 S
C153 C157 1.391 . S
C154 C153 1.387 1_556 S
C154 C155 1.369 . S
C154 H163 0.929 . S
C155 N152 1.346 1_556 S
C155 C154 1.369 . S
C155 H158 0.928 . S
C156 N152 1.345 . S
C156 C157 1.371 . S
C156 H159 0.931 . S
C157 C153 1.391 . S
C157 C156 1.371 . S
C157 H164 0.930 . S
H158 C155 0.928 . S
H159 C156 0.931 . S
H160 C136 0.930 . S
H161 C133 0.930 . S
H162 C142 0.930 . S
H163 C154 0.929 . S
H164 C157 0.930 . S
C165 C166 1.351 . S
C165 N168 1.368 . S
C165 H170 0.931 . S
C166 C165 1.351 . S
C166 N167 1.373 . S
C166 H194 0.930 . S
N167 C166 1.373 . S
N167 C169 1.340 . S
N168 C165 1.368 . S
N168 C169 1.321 . S
N168 Co171 2.135 . S
C169 N167 1.340 . S
C169 N168 1.321 . S
C169 H193 0.930 . S
H170 C165 0.931 . S
Co171 N168 2.135 . S
Co171 N174 2.121 . S
Co171 O179 2.055 . S
Co171 O182 2.039 . S
Co171 N185 2.140 . S
C172 O173 1.227 . S
C172 O182 1.265 . S
O173 C172 1.227 . S
N174 Co171 2.121 . S
N174 C176 1.375 . S
N174 C177 1.313 . S
C175 C176 1.338 . S
C175 N178 1.377 . S
C175 H195 0.930 1_556 S
C176 N174 1.375 . S
C176 C175 1.338 . S
C176 H180 0.931 . S
C177 N174 1.313 . S
C177 N178 1.344 . S
C177 H181 0.930 . S
N178 C175 1.377 . S
N178 C177 1.344 . S
O179 Co171 2.055 . S
O179 C183 1.253 . S
H180 C176 0.931 . S
H181 C177 0.930 . S
O182 Co171 2.039 . S
O182 C172 1.265 . S
C183 O179 1.253 . S
C183 O184 1.227 . S
O184 C183 1.227 . S
N185 Co171 2.140 . S
N185 C188 1.346 . S
N185 C189 1.345 . S
C186 C187 1.387 . S
C186 C190 1.391 . S
C187 C186 1.387 . S
C187 C188 1.369 . S
C187 H196 0.929 . S
C188 N185 1.346 . S
C188 C187 1.369 . S
C188 H191 0.928 . S
C189 N185 1.345 . S
C189 C190 1.371 . S
C189 H192 0.931 . S
C190 C186 1.391 . S
C190 C189 1.371 . S
C190 H197 0.930 . S
H191 C188 0.928 . S
H192 C189 0.931 . S
H193 C169 0.930 . S
H194 C166 0.930 . S
H195 C175 0.930 1_554 S
H196 C187 0.929 . S
H197 C190 0.930 . S
C198 C199 1.351 . S
C198 N201 1.368 . S
C198 H203 0.931 . S
C199 C198 1.351 . S
C199 N200 1.373 . S
C199 H227 0.930 . S
N200 C199 1.373 . S
N200 C202 1.340 . S
N201 C198 1.368 . S
N201 C202 1.321 . S
N201 Co204 2.135 . S
C202 N200 1.340 . S
C202 N201 1.321 . S
C202 H226 0.930 . S
H203 C198 0.931 . S
Co204 N201 2.135 . S
Co204 N207 2.121 . S
Co204 O212 2.055 . S
Co204 O215 2.039 . S
Co204 N218 2.140 . S
C205 O206 1.227 . S
C205 O215 1.265 . S
O206 C205 1.227 . S
N207 Co204 2.121 . S
N207 C209 1.375 . S
N207 C210 1.313 . S
C208 C209 1.338 . S
C208 N211 1.377 . S
C208 H228 0.930 . S
C209 N207 1.375 . S
C209 C208 1.338 . S
C209 H213 0.931 . S
C210 N207 1.313 . S
C210 N211 1.344 . S
C210 H214 0.930 . S
N211 C208 1.377 . S
N211 C210 1.344 . S
O212 Co204 2.055 . S
O212 C216 1.253 . S
H213 C209 0.931 . S
H214 C210 0.930 . S
O215 Co204 2.039 . S
O215 C205 1.265 . S
C216 O212 1.253 . S
C216 O217 1.227 . S
O217 C216 1.227 . S
N218 Co204 2.140 . S
N218 C221 1.346 . S
N218 C222 1.345 . S
C219 C220 1.387 . S
C219 C223 1.391 . S
C220 C219 1.387 . S
C220 C221 1.369 . S
C220 H229 0.929 . S
C221 N218 1.346 . S
C221 C220 1.369 . S
C221 H224 0.928 . S
C222 N218 1.345 . S
C222 C223 1.371 . S
C222 H225 0.931 . S
C223 C219 1.391 . S
C223 C222 1.371 . S
C223 H230 0.930 . S
H224 C221 0.928 . S
H225 C222 0.931 . S
H226 C202 0.930 . S
H227 C199 0.930 . S
H228 C208 0.930 . S
H229 C220 0.929 . S
H230 C223 0.930 . S
C231 C232 1.351 . S
C231 N234 1.368 . S
C231 H236 0.931 . S
C232 C231 1.351 . S
C232 N233 1.373 . S
C232 H260 0.930 . S
N233 C232 1.373 . S
N233 C235 1.340 . S
N234 C231 1.368 . S
N234 C235 1.321 . S
N234 Co237 2.135 . S
C235 N233 1.340 . S
C235 N234 1.321 . S
C235 H259 0.930 . S
H236 C231 0.931 . S
Co237 N234 2.135 . S
Co237 N240 2.121 . S
Co237 O245 2.055 . S
Co237 O248 2.039 . S
Co237 N251 2.140 . S
C238 O239 1.227 . S
C238 O248 1.265 . S
O239 C238 1.227 . S
N240 Co237 2.121 . S
N240 C242 1.375 . S
N240 C243 1.313 . S
C241 C242 1.338 . S
C241 N244 1.377 . S
C241 H261 0.930 . S
C242 N240 1.375 . S
C242 C241 1.338 . S
C242 H246 0.931 . S
C243 N240 1.313 . S
C243 N244 1.344 . S
C243 H247 0.930 . S
N244 C241 1.377 . S
N244 C243 1.344 . S
O245 Co237 2.055 . S
O245 C249 1.253 . S
H246 C242 0.931 . S
H247 C243 0.930 . S
O248 Co237 2.039 . S
O248 C238 1.265 . S
C249 O245 1.253 . S
C249 O250 1.227 . S
O250 C249 1.227 . S
N251 Co237 2.140 . S
N251 C254 1.346 . S
N251 C255 1.345 . S
C252 C253 1.387 . S
C252 C256 1.391 . S
C253 C252 1.387 . S
C253 C254 1.369 . S
C253 H262 0.929 . S
C254 N251 1.346 . S
C254 C253 1.369 . S
C254 H257 0.928 . S
C255 N251 1.345 . S
C255 C256 1.371 . S
C255 H258 0.931 . S
C256 C252 1.391 . S
C256 C255 1.371 . S
C256 H263 0.930 . S
H257 C254 0.928 . S
H258 C255 0.931 . S
H259 C235 0.930 . S
H260 C232 0.930 . S
H261 C241 0.930 . S
H262 C253 0.929 . S
H263 C256 0.930 . S
C264 C265 1.351 . S
C264 N267 1.368 . S
C264 H269 0.931 . S
C265 C264 1.351 . S
C265 N266 1.373 . S
C265 H293 0.930 . S
N266 C265 1.373 . S
N266 C268 1.340 . S
N267 C264 1.368 . S
N267 C268 1.321 . S
N267 Co270 2.135 . S
C268 N266 1.340 . S
C268 N267 1.321 . S
C268 H292 0.930 . S
H269 C264 0.931 . S
Co270 N267 2.135 . S
Co270 N273 2.121 . S
Co270 O278 2.055 . S
Co270 O281 2.039 . S
Co270 N284 2.140 . S
C271 O272 1.227 . S
C271 O281 1.265 . S
O272 C271 1.227 . S
N273 Co270 2.121 . S
N273 C275 1.375 . S
N273 C276 1.313 . S
C274 C275 1.338 . S
C274 N277 1.377 . S
C274 H294 0.930 . S
C275 N273 1.375 . S
C275 C274 1.338 . S
C275 H279 0.931 . S
C276 N273 1.313 . S
C276 N277 1.344 . S
C276 H280 0.930 . S
N277 C274 1.377 . S
N277 C276 1.344 . S
O278 Co270 2.055 . S
O278 C282 1.253 . S
H279 C275 0.931 . S
H280 C276 0.930 . S
O281 Co270 2.039 . S
O281 C271 1.265 . S
C282 O278 1.253 . S
C282 O283 1.227 . S
O283 C282 1.227 . S
N284 Co270 2.140 . S
N284 C287 1.346 . S
N284 C288 1.345 . S
C285 C286 1.387 . S
C285 C289 1.391 . S
C286 C285 1.387 . S
C286 C287 1.369 . S
C286 H295 0.929 . S
C287 N284 1.346 . S
C287 C286 1.369 . S
C287 H290 0.928 . S
C288 N284 1.345 . S
C288 C289 1.371 . S
C288 H291 0.931 . S
C289 C285 1.391 . S
C289 C288 1.371 . S
C289 H296 0.930 . S
H290 C287 0.928 . S
H291 C288 0.931 . S
H292 C268 0.930 . S
H293 C265 0.930 . S
H294 C274 0.930 . S
H295 C286 0.929 . S
H296 C289 0.930 . S
C297 C298 1.351 1_556 S
C297 N300 1.368 . S
C297 H302 0.931 . S
C298 C297 1.351 1_554 S
C298 N299 1.373 . S
C298 H326 0.930 . S
N299 C298 1.373 . S
N299 C301 1.340 . S
N300 C297 1.368 . S
N300 C301 1.321 1_556 S
N300 Co303 2.135 . S
C301 N299 1.340 . S
C301 N300 1.321 1_554 S
C301 H325 0.930 1_554 S
H302 C297 0.931 . S
Co303 N300 2.135 . S
Co303 N306 2.121 . S
Co303 O311 2.055 . S
Co303 O314 2.039 . S
Co303 N317 2.140 . S
C304 O305 1.227 . S
C304 O314 1.265 . S
O305 C304 1.227 . S
N306 Co303 2.121 . S
N306 C308 1.375 . S
N306 C309 1.313 . S
C307 C308 1.338 . S
C307 N310 1.377 . S
C307 H327 0.930 . S
C308 N306 1.375 . S
C308 C307 1.338 . S
C308 H312 0.931 . S
C309 N306 1.313 . S
C309 N310 1.344 . S
C309 H313 0.930 . S
N310 C307 1.377 . S
N310 C309 1.344 . S
O311 Co303 2.055 . S
O311 C315 1.253 . S
H312 C308 0.931 . S
H313 C309 0.930 . S
O314 Co303 2.039 . S
O314 C304 1.265 . S
C315 O311 1.253 . S
C315 O316 1.227 . S
O316 C315 1.227 . S
N317 Co303 2.140 . S
N317 C320 1.346 . S
N317 C321 1.345 . S
C318 C319 1.387 . S
C318 C322 1.391 . S
C319 C318 1.387 . S
C319 C320 1.369 . S
C319 H328 0.929 . S
C320 N317 1.346 . S
C320 C319 1.369 . S
C320 H323 0.928 . S
C321 N317 1.345 . S
C321 C322 1.371 . S
C321 H324 0.931 . S
C322 C318 1.391 . S
C322 C321 1.371 . S
C322 H329 0.930 . S
H323 C320 0.928 . S
H324 C321 0.931 . S
H325 C301 0.930 1_556 S
H326 C298 0.930 . S
H327 C307 0.930 . S
H328 C319 0.929 . S
H329 C322 0.930 . S
C330 C331 1.351 . S
C330 N333 1.368 . S
C330 H335 0.931 . S
C331 C330 1.351 . S
C331 N332 1.373 . S
C331 H359 0.930 . S
N332 C331 1.373 . S
N332 C334 1.340 . S
N333 C330 1.368 . S
N333 C334 1.321 . S
N333 Co336 2.135 1_556 S
C334 N332 1.340 . S
C334 N333 1.321 . S
C334 H358 0.930 . S
H335 C330 0.931 . S
Co336 N333 2.135 1_554 S
Co336 N339 2.121 . S
Co336 O344 2.055 . S
Co336 O347 2.039 1_554 S
Co336 N350 2.140 . S
C337 O338 1.227 . S
C337 O347 1.265 . S
O338 C337 1.227 . S
N339 Co336 2.121 . S
N339 C341 1.375 . S
N339 C342 1.313 . S
C340 C341 1.338 . S
C340 N343 1.377 . S
C340 H360 0.930 . S
C341 N339 1.375 . S
C341 C340 1.338 . S
C341 H345 0.931 . S
C342 N339 1.313 . S
C342 N343 1.344 . S
C342 H346 0.930 . S
N343 C340 1.377 . S
N343 C342 1.344 . S
O344 Co336 2.055 . S
O344 C348 1.253 . S
H345 C341 0.931 . S
H346 C342 0.930 . S
O347 Co336 2.039 1_556 S
O347 C337 1.265 . S
C348 O344 1.253 . S
C348 O349 1.227 . S
O349 C348 1.227 . S
N350 Co336 2.140 . S
N350 C353 1.346 1_554 S
N350 C354 1.345 . S
C351 C352 1.387 1_554 S
C351 C355 1.391 . S
C352 C351 1.387 1_556 S
C352 C353 1.369 . S
C352 H361 0.929 . S
C353 N350 1.346 1_556 S
C353 C352 1.369 . S
C353 H356 0.928 . S
C354 N350 1.345 . S
C354 C355 1.371 . S
C354 H357 0.931 . S
C355 C351 1.391 . S
C355 C354 1.371 . S
C355 H362 0.930 . S
H356 C353 0.928 . S
H357 C354 0.931 . S
H358 C334 0.930 . S
H359 C331 0.930 . S
H360 C340 0.930 . S
H361 C352 0.929 . S
H362 C355 0.930 . S
C363 C364 1.351 . S
C363 N366 1.368 . S
C363 H368 0.931 . S
C364 C363 1.351 . S
C364 N365 1.373 . S
C364 H392 0.935 . S
N365 C364 1.373 . S
N365 C367 1.340 . S
N366 C363 1.368 . S
N366 C367 1.321 . S
N366 Co369 2.135 . S
C367 N365 1.340 . S
C367 N366 1.321 . S
C367 H391 0.930 . S
H368 C363 0.931 . S
Co369 N366 2.135 . S
Co369 N372 2.121 . S
Co369 O377 2.055 . S
Co369 O380 2.039 . S
Co369 N383 2.140 . S
C370 O371 1.227 . S
C370 O380 1.265 . S
O371 C370 1.227 . S
N372 Co369 2.121 . S
N372 C374 1.375 . S
N372 C375 1.313 . S
C373 C374 1.338 . S
C373 N376 1.377 . S
C373 H393 0.930 . S
C374 N372 1.375 . S
C374 C373 1.338 . S
C374 H378 0.931 . S
C375 N372 1.313 . S
C375 N376 1.344 . S
C375 H379 0.930 . S
N376 C373 1.377 . S
N376 C375 1.344 . S
O377 Co369 2.055 . S
O377 C381 1.253 . S
H378 C374 0.931 . S
H379 C375 0.930 . S
O380 Co369 2.039 . S
O380 C370 1.265 . S
C381 O377 1.253 . S
C381 O382 1.227 . S
O382 C381 1.227 . S
N383 Co369 2.140 . S
N383 C386 1.346 . S
N383 C387 1.345 . S
C384 C385 1.387 . S
C384 C388 1.391 . S
C385 C384 1.387 . S
C385 C386 1.369 . S
C385 H394 0.929 . S
C386 N383 1.346 . S
C386 C385 1.369 . S
C386 H389 0.928 . S
C387 N383 1.345 . S
C387 C388 1.371 . S
C387 H390 0.931 . S
C388 C384 1.391 . S
C388 C387 1.371 . S
C388 H395 0.930 . S
H389 C386 0.928 . S
H390 C387 0.931 . S
H391 C367 0.930 . S
H392 C364 0.935 . S
H393 C373 0.930 . S
H394 C385 0.929 . S
H395 C388 0.930 . S
C396 C397 1.351 . S
C396 N399 1.368 . S
C396 H401 0.931 . S
C397 C396 1.351 . S
C397 N398 1.373 . S
C397 H425 0.930 . S
N398 C397 1.373 . S
N398 C400 1.340 . S
N399 C396 1.368 . S
N399 C400 1.321 . S
N399 Co402 2.135 . S
C400 N398 1.340 . S
C400 N399 1.321 . S
C400 H424 0.930 . S
H401 C396 0.931 . S
Co402 N399 2.135 . S
Co402 N405 2.121 . S
Co402 O410 2.055 . S
Co402 O413 2.039 . S
Co402 N416 2.140 . S
C403 O404 1.227 . S
C403 O413 1.265 . S
O404 C403 1.227 . S
N405 Co402 2.121 . S
N405 C407 1.375 . S
N405 C408 1.313 . S
C406 C407 1.338 . S
C406 N409 1.377 . S
C406 H426 0.930 . S
C407 N405 1.375 . S
C407 C406 1.338 . S
C407 H411 0.931 . S
C408 N405 1.313 . S
C408 N409 1.344 . S
C408 H412 0.930 . S
N409 C406 1.377 . S
N409 C408 1.344 . S
O410 Co402 2.055 . S
O410 C414 1.253 . S
H411 C407 0.931 . S
H412 C408 0.930 . S
O413 Co402 2.039 . S
O413 C403 1.265 . S
C414 O410 1.253 . S
C414 O415 1.227 . S
O415 C414 1.227 . S
N416 Co402 2.140 . S
N416 C419 1.346 . S
N416 C420 1.345 . S
C417 C418 1.387 . S
C417 C421 1.391 . S
C418 C417 1.387 . S
C418 C419 1.369 . S
C418 H427 0.929 . S
C419 N416 1.346 . S
C419 C418 1.369 . S
C419 H422 0.928 . S
C420 N416 1.345 . S
C420 C421 1.371 . S
C420 H423 0.931 . S
C421 C417 1.391 . S
C421 C420 1.371 . S
C421 H428 0.930 . S
H422 C419 0.928 . S
H423 C420 0.931 . S
H424 C400 0.930 . S
H425 C397 0.930 . S
H426 C406 0.930 . S
H427 C418 0.929 . S
H428 C421 0.930 . S
C429 C430 1.351 . S
C429 N432 1.368 . S
C429 H434 0.931 . S
C430 C429 1.351 . S
C430 N431 1.373 . S
C430 H458 0.930 1_554 S
N431 C430 1.373 . S
N431 C433 1.340 . S
N432 C429 1.368 . S
N432 C433 1.321 . S
N432 Co435 2.135 . S
C433 N431 1.340 . S
C433 N432 1.321 . S
C433 H457 0.930 . S
H434 C429 0.931 . S
Co435 N432 2.135 . S
Co435 N438 2.121 . S
Co435 O443 2.055 . S
Co435 O446 2.039 . S
Co435 N449 2.140 . S
C436 O437 1.227 . S
C436 O446 1.265 . S
O437 C436 1.227 . S
N438 Co435 2.121 . S
N438 C440 1.375 . S
N438 C441 1.313 . S
C439 C440 1.338 . S
C439 N442 1.377 . S
C439 H459 0.930 . S
C440 N438 1.375 . S
C440 C439 1.338 . S
C440 H444 0.931 . S
C441 N438 1.313 . S
C441 N442 1.344 . S
C441 H445 0.930 . S
N442 C439 1.377 . S
N442 C441 1.344 . S
O443 Co435 2.055 . S
O443 C447 1.253 . S
H444 C440 0.931 . S
H445 C441 0.930 . S
O446 Co435 2.039 . S
O446 C436 1.265 . S
C447 O443 1.253 . S
C447 O448 1.227 . S
O448 C447 1.227 . S
N449 Co435 2.140 . S
N449 C452 1.346 . S
N449 C453 1.345 . S
C450 C451 1.387 . S
C450 C454 1.391 . S
C451 C450 1.387 . S
C451 C452 1.369 . S
C451 H460 0.929 . S
C452 N449 1.346 . S
C452 C451 1.369 . S
C452 H455 0.928 . S
C453 N449 1.345 . S
C453 C454 1.371 . S
C453 H456 0.931 . S
C454 C450 1.391 . S
C454 C453 1.371 . S
C454 H461 0.930 . S
H455 C452 0.928 . S
H456 C453 0.931 . S
H457 C433 0.930 . S
H458 C430 0.930 1_556 S
H459 C439 0.930 . S
H460 C451 0.929 . S
H461 C454 0.930 . S
C462 C463 1.351 . S
C462 N465 1.368 . S
C462 H467 0.931 . S
C463 C462 1.351 . S
C463 N464 1.373 . S
C463 H491 0.930 . S
N464 C463 1.373 . S
N464 C466 1.340 . S
N465 C462 1.368 . S
N465 C466 1.321 . S
N465 Co468 2.135 . S
C466 N464 1.340 . S
C466 N465 1.321 . S
C466 H490 0.930 . S
H467 C462 0.931 . S
Co468 N465 2.135 . S
Co468 N471 2.121 1_554 S
Co468 O476 2.055 . S
Co468 O479 2.039 . S
Co468 N482 2.140 . S
C469 O470 1.227 . S
C469 O479 1.265 . S
O470 C469 1.227 . S
N471 Co468 2.121 1_556 S
N471 C473 1.375 . S
N471 C474 1.313 . S
C472 C473 1.338 . S
C472 N475 1.377 . S
C472 H492 0.930 . S
C473 N471 1.375 . S
C473 C472 1.338 . S
C473 H477 0.931 . S
C474 N471 1.313 . S
C474 N475 1.344 . S
C474 H478 0.930 . S
N475 C472 1.377 . S
N475 C474 1.344 . S
O476 Co468 2.055 . S
O476 C480 1.253 . S
H477 C473 0.931 . S
H478 C474 0.930 . S
O479 Co468 2.039 . S
O479 C469 1.265 . S
C480 O476 1.253 . S
C480 O481 1.227 . S
O481 C480 1.227 . S
N482 Co468 2.140 . S
N482 C485 1.346 . S
N482 C486 1.345 . S
C483 C484 1.387 . S
C483 C487 1.391 . S
C484 C483 1.387 . S
C484 C485 1.369 . S
C484 H493 0.929 . S
C485 N482 1.346 . S
C485 C484 1.369 . S
C485 H488 0.928 . S
C486 N482 1.345 . S
C486 C487 1.371 . S
C486 H489 0.931 1_554 S
C487 C483 1.391 . S
C487 C486 1.371 . S
C487 H494 0.930 1_554 S
H488 C485 0.928 . S
H489 C486 0.931 1_556 S
H490 C466 0.930 . S
H491 C463 0.930 . S
H492 C472 0.930 . S
H493 C484 0.929 . S
H494 C487 0.930 1_556 S
C495 C496 1.351 1_556 S
C495 N498 1.368 . S
C495 H500 0.931 . S
C496 C495 1.351 1_554 S
C496 N497 1.373 . S
C496 H524 0.930 . S
N497 C496 1.373 . S
N497 C499 1.340 . S
N498 C495 1.368 . S
N498 C499 1.321 1_556 S
N498 Co501 2.135 . S
C499 N497 1.340 . S
C499 N498 1.321 1_554 S
C499 H523 0.930 . S
H500 C495 0.931 . S
Co501 N498 2.135 . S
Co501 N504 2.121 . S
Co501 O509 2.055 . S
Co501 O512 2.039 . S
Co501 N515 2.140 . S
C502 O503 1.227 . S
C502 O512 1.265 . S
O503 C502 1.227 . S
N504 Co501 2.121 . S
N504 C506 1.375 . S
N504 C507 1.313 . S
C505 C506 1.338 . S
C505 N508 1.377 . S
C505 H525 0.930 . S
C506 N504 1.375 . S
C506 C505 1.338 . S
C506 H510 0.931 . S
C507 N504 1.313 . S
C507 N508 1.344 . S
C507 H511 0.930 . S
N508 C505 1.377 . S
N508 C507 1.344 . S
O509 Co501 2.055 . S
O509 C513 1.253 . S
H510 C506 0.931 . S
H511 C507 0.930 . S
O512 Co501 2.039 . S
O512 C502 1.265 . S
C513 O509 1.253 . S
C513 O514 1.227 . S
O514 C513 1.227 . S
N515 Co501 2.140 . S
N515 C518 1.346 . S
N515 C519 1.345 . S
C516 C517 1.387 . S
C516 C520 1.391 . S
C517 C516 1.387 . S
C517 C518 1.369 . S
C517 H526 0.929 . S
C518 N515 1.346 . S
C518 C517 1.369 . S
C518 H521 0.928 . S
C519 N515 1.345 . S
C519 C520 1.371 . S
C519 H522 0.931 . S
C520 C516 1.391 . S
C520 C519 1.371 . S
C520 H527 0.930 . S
H521 C518 0.928 . S
H522 C519 0.931 . S
H523 C499 0.930 . S
H524 C496 0.930 . S
H525 C505 0.930 . S
H526 C517 0.929 . S
H527 C520 0.930 . S
H528 C534 0.930 . S
H529 C538 0.930 . S
H530 C543 0.929 . S
H531 C541 0.929 . S
H532 C536 0.929 . S
H533 C542 0.929 . S
C534 H528 0.930 . S
C534 C535 1.367 . S
C534 C542 1.378 . S
C535 C534 1.367 . S
C535 C543 1.433 . S
C536 H532 0.929 . S
C536 C538 1.378 . S
C536 C540 1.350 . S
C537 C540 1.463 . S
C537 C542 1.350 . S
C537 N545 1.427 . S
C538 H529 0.930 . S
C538 C536 1.378 . S
C538 C539 1.367 . S
C539 C538 1.367 . S
C539 C541 1.433 . S
C540 C536 1.350 . S
C540 C537 1.463 . S
C540 N544 1.427 . S
C541 H531 0.929 . S
C541 C539 1.433 . S
C541 N544 1.384 . S
C542 H533 0.929 . S
C542 C534 1.378 . S
C542 C537 1.350 . S
C543 H530 0.929 . S
C543 C535 1.433 . S
C543 N545 1.384 . S
N544 C540 1.427 . S
N544 C541 1.384 . S
N545 C537 1.427 . S
N545 C543 1.384 . S
H546 C552 0.930 . S
H547 C556 0.930 . S
H548 C561 0.929 1_554 S
H549 C559 0.929 . S
H550 C554 0.929 . S
H551 C560 0.929 . S
C552 H546 0.930 . S
C552 C553 1.367 1_556 S
C552 C560 1.378 . S
C553 C552 1.367 1_554 S
C553 C561 1.433 1_554 S
C554 H550 0.929 . S
C554 C556 1.378 . S
C554 C558 1.350 . S
C555 C558 1.463 . S
C555 C560 1.350 . S
C555 N563 1.427 . S
C556 H547 0.930 . S
C556 C554 1.378 . S
C556 C557 1.367 . S
C557 C556 1.367 . S
C557 C559 1.433 . S
C558 C554 1.350 . S
C558 C555 1.463 . S
C558 N562 1.427 . S
C559 H549 0.929 . S
C559 C557 1.433 . S
C559 N562 1.384 . S
C560 H551 0.929 . S
C560 C552 1.378 . S
C560 C555 1.350 . S
C561 H548 0.929 1_556 S
C561 C553 1.433 1_556 S
C561 N563 1.384 . S
N562 C558 1.427 . S
N562 C559 1.384 . S
N563 C555 1.427 . S
N563 C561 1.384 . S
H564 C570 0.930 . S
H565 C574 0.930 . S
H566 C579 0.929 . S
H567 C577 0.929 . S
H568 C572 0.929 . S
H569 C578 0.929 . S
C570 H564 0.930 . S
C570 C571 1.367 . S
C570 C578 1.378 . S
C571 C570 1.367 . S
C571 C579 1.433 . S
C572 H568 0.929 . S
C572 C574 1.378 . S
C572 C576 1.350 . S
C573 C576 1.463 1_554 S
C573 C578 1.350 . S
C573 N581 1.427 . S
C574 H565 0.930 . S
C574 C572 1.378 . S
C574 C575 1.367 . S
C575 C574 1.367 . S
C575 C577 1.433 . S
C576 C572 1.350 . S
C576 C573 1.463 1_556 S
C576 N580 1.427 . S
C577 H567 0.929 . S
C577 C575 1.433 . S
C577 N580 1.384 . S
C578 H569 0.929 . S
C578 C570 1.378 . S
C578 C573 1.350 . S
C579 H566 0.929 . S
C579 C571 1.433 . S
C579 N581 1.384 . S
N580 C576 1.427 . S
N580 C577 1.384 . S
N581 C573 1.427 . S
N581 C579 1.384 . S
H582 C588 0.930 . S
H583 C592 0.930 . S
H584 C597 0.929 . S
H585 C595 0.929 . S
H586 C590 0.929 . S
H587 C596 0.929 . S
C588 H582 0.930 . S
C588 C589 1.367 . S
C588 C596 1.378 . S
C589 C588 1.367 . S
C589 C597 1.433 . S
C590 H586 0.929 . S
C590 C592 1.378 . S
C590 C594 1.350 . S
C591 C594 1.463 . S
C591 C596 1.350 . S
C591 N599 1.427 . S
C592 H583 0.930 . S
C592 C590 1.378 . S
C592 C593 1.367 . S
C593 C592 1.367 . S
C593 C595 1.433 . S
C594 C590 1.350 . S
C594 C591 1.463 . S
C594 N598 1.427 . S
C595 H585 0.929 . S
C595 C593 1.433 . S
C595 N598 1.384 . S
C596 H587 0.929 . S
C596 C588 1.378 . S
C596 C591 1.350 . S
C597 H584 0.929 . S
C597 C589 1.433 . S
C597 N599 1.384 . S
N598 C594 1.427 . S
N598 C595 1.384 . S
N599 C591 1.427 . S
N599 C597 1.384 . S
H600 C606 0.930 . S
H601 C610 0.930 . S
H602 C615 0.929 . S
H603 C613 0.929 . S
H604 C608 0.929 . S
H605 C614 0.929 . S
C606 H600 0.930 . S
C606 C607 1.367 . S
C606 C614 1.378 . S
C607 C606 1.367 . S
C607 C615 1.433 . S
C608 H604 0.929 . S
C608 C610 1.378 . S
C608 C612 1.350 . S
C609 C612 1.463 . S
C609 C614 1.350 . S
C609 N617 1.427 . S
C610 H601 0.930 . S
C610 C608 1.378 . S
C610 C611 1.367 . S
C611 C610 1.367 . S
C611 C613 1.433 . S
C612 C608 1.350 . S
C612 C609 1.463 . S
C612 N616 1.427 . S
C613 H603 0.929 . S
C613 C611 1.433 . S
C613 N616 1.384 . S
C614 H605 0.929 . S
C614 C606 1.378 . S
C614 C609 1.350 . S
C615 H602 0.929 . S
C615 C607 1.433 . S
C615 N617 1.384 . S
N616 C612 1.427 . S
N616 C613 1.384 . S
N617 C609 1.427 . S
N617 C615 1.384 . S
H618 C624 0.930 . S
H619 C628 0.930 . S
H620 C633 0.929 . S
H621 C631 0.929 . S
H622 C626 0.929 . S
H623 C632 0.929 . S
C624 H618 0.930 . S
C624 C625 1.367 . S
C624 C632 1.378 . S
C625 C624 1.367 . S
C625 C633 1.433 . S
C626 H622 0.929 . S
C626 C628 1.378 . S
C626 C630 1.350 . S
C627 C630 1.463 . S
C627 C632 1.350 . S
C627 N635 1.427 . S
C628 H619 0.930 . S
C628 C626 1.378 . S
C628 C629 1.367 . S
C629 C628 1.367 . S
C629 C631 1.433 . S
C630 C626 1.350 . S
C630 C627 1.463 . S
C630 N634 1.427 . S
C631 H621 0.929 . S
C631 C629 1.433 . S
C631 N634 1.384 . S
C632 H623 0.929 . S
C632 C624 1.378 . S
C632 C627 1.350 . S
C633 H620 0.929 . S
C633 C625 1.433 . S
C633 N635 1.384 . S
N634 C630 1.427 . S
N634 C631 1.384 . S
N635 C627 1.427 . S
N635 C633 1.384 . S
H636 C642 0.930 . S
H637 C646 0.930 . S
H638 C651 0.929 . S
H639 C649 0.929 . S
H640 C644 0.929 1_554 S
H641 C650 0.929 . S
C642 H636 0.930 . S
C642 C643 1.367 . S
C642 C650 1.378 . S
C643 C642 1.367 . S
C643 C651 1.433 . S
C644 H640 0.929 1_556 S
C644 C646 1.378 . S
C644 C648 1.350 1_556 S
C645 C648 1.463 . S
C645 C650 1.350 . S
C645 N653 1.427 . S
C646 H637 0.930 . S
C646 C644 1.378 . S
C646 C647 1.367 . S
C647 C646 1.367 . S
C647 C649 1.433 . S
C648 C644 1.350 1_554 S
C648 C645 1.463 . S
C648 N652 1.427 . S
C649 H639 0.929 . S
C649 C647 1.433 . S
C649 N652 1.384 1_556 S
C650 H641 0.929 . S
C650 C642 1.378 . S
C650 C645 1.350 . S
C651 H638 0.929 . S
C651 C643 1.433 . S
C651 N653 1.384 . S
N652 C648 1.427 . S
N652 C649 1.384 1_554 S
N653 C645 1.427 . S
N653 C651 1.384 . S
H654 C660 0.930 . S
H655 C664 0.930 1_554 S
H656 C669 0.929 . S
H657 C667 0.929 1_554 S
H658 C662 0.929 . S
H659 C668 0.929 . S
C660 H654 0.930 . S
C660 C661 1.367 . S
C660 C668 1.378 . S
C661 C660 1.367 . S
C661 C669 1.433 . S
C662 H658 0.929 . S
C662 C664 1.378 . S
C662 C666 1.350 . S
C663 C666 1.463 . S
C663 C668 1.350 . S
C663 N671 1.427 . S
C664 H655 0.930 1_556 S
C664 C662 1.378 . S
C664 C665 1.367 1_556 S
C665 C664 1.367 1_554 S
C665 C667 1.433 1_554 S
C666 C662 1.350 . S
C666 C663 1.463 . S
C666 N670 1.427 . S
C667 H657 0.929 1_556 S
C667 C665 1.433 1_556 S
C667 N670 1.384 . S
C668 H659 0.929 . S
C668 C660 1.378 . S
C668 C663 1.350 . S
C669 H656 0.929 . S
C669 C661 1.433 . S
C669 N671 1.384 . S
N670 C666 1.427 . S
N670 C667 1.384 . S
N671 C663 1.427 . S
N671 C669 1.384 . S
H672 C678 0.930 . S
H673 C682 0.930 . S
H674 C687 0.929 . S
H675 C685 0.929 . S
H676 C680 0.929 . S
H677 C686 0.929 . S
C678 H672 0.930 . S
C678 C679 1.367 . S
C678 C686 1.378 . S
C679 C678 1.367 . S
C679 C687 1.433 . S
C680 H676 0.929 . S
C680 C682 1.378 1_554 S
C680 C684 1.350 . S
C681 C684 1.463 . S
C681 C686 1.350 . S
C681 N689 1.427 . S
C682 H673 0.930 . S
C682 C680 1.378 1_556 S
C682 C683 1.367 . S
C683 C682 1.367 . S
C683 C685 1.433 . S
C684 C680 1.350 . S
C684 C681 1.463 . S
C684 N688 1.427 . S
C685 H675 0.929 . S
C685 C683 1.433 . S
C685 N688 1.384 1_556 S
C686 H677 0.929 . S
C686 C678 1.378 . S
C686 C681 1.350 . S
C687 H674 0.929 . S
C687 C679 1.433 . S
C687 N689 1.384 . S
N688 C684 1.427 . S
N688 C685 1.384 1_554 S
N689 C681 1.427 . S
N689 C687 1.384 . S
H690 C696 0.930 . S
H691 C700 0.930 . S
H692 C705 0.929 . S
H693 C703 0.929 . S
H694 C698 0.929 . S
H695 C704 0.929 . S
C696 H690 0.930 . S
C696 C697 1.367 . S
C696 C704 1.378 . S
C697 C696 1.367 . S
C697 C705 1.433 . S
C698 H694 0.929 . S
C698 C700 1.378 . S
C698 C702 1.350 . S
C699 C702 1.463 . S
C699 C704 1.350 . S
C699 N707 1.427 . S
C700 H691 0.930 . S
C700 C698 1.378 . S
C700 C701 1.367 . S
C701 C700 1.367 . S
C701 C703 1.433 . S
C702 C698 1.350 . S
C702 C699 1.463 . S
C702 N706 1.427 . S
C703 H693 0.929 . S
C703 C701 1.433 . S
C703 N706 1.384 . S
C704 H695 0.929 . S
C704 C696 1.378 . S
C704 C699 1.350 . S
C705 H692 0.929 . S
C705 C697 1.433 . S
C705 N707 1.384 . S
N706 C702 1.427 . S
N706 C703 1.384 . S
N707 C699 1.427 . S
N707 C705 1.384 . S
H708 C714 0.930 . S
H709 C718 0.930 . S
H710 C723 0.929 . S
H711 C721 0.929 . S
H712 C716 0.929 . S
H713 C722 0.929 . S
C714 H708 0.930 . S
C714 C715 1.367 . S
C714 C722 1.378 . S
C715 C714 1.367 . S
C715 C723 1.433 . S
C716 H712 0.929 . S
C716 C718 1.378 . S
C716 C720 1.350 . S
C717 C720 1.463 . S
C717 C722 1.350 . S
C717 N725 1.427 . S
C718 H709 0.930 . S
C718 C716 1.378 . S
C718 C719 1.367 . S
C719 C718 1.367 . S
C719 C721 1.433 . S
C720 C716 1.350 . S
C720 C717 1.463 . S
C720 N724 1.427 . S
C721 H711 0.929 . S
C721 C719 1.433 . S
C721 N724 1.384 . S
C722 H713 0.929 . S
C722 C714 1.378 . S
C722 C717 1.350 . S
C723 H710 0.929 . S
C723 C715 1.433 . S
C723 N725 1.384 . S
N724 C720 1.427 . S
N724 C721 1.384 . S
N725 C717 1.427 . S
N725 C723 1.384 . S
H726 C732 0.930 . S
H727 C736 0.930 . S
H728 C741 0.929 . S
H729 C739 0.929 . S
H730 C734 0.929 . S
H731 C740 0.929 . S
C732 H726 0.930 . S
C732 C733 1.367 . S
C732 C740 1.378 . S
C733 C732 1.367 . S
C733 C741 1.433 . S
C734 H730 0.929 . S
C734 C736 1.378 . S
C734 C738 1.350 . S
C735 C738 1.463 . S
C735 C740 1.350 . S
C735 N743 1.427 . S
C736 H727 0.930 . S
C736 C734 1.378 . S
C736 C737 1.367 . S
C737 C736 1.367 . S
C737 C739 1.433 . S
C738 C734 1.350 . S
C738 C735 1.463 . S
C738 N742 1.427 . S
C739 H729 0.929 . S
C739 C737 1.433 . S
C739 N742 1.384 . S
C740 H731 0.929 . S
C740 C732 1.378 . S
C740 C735 1.350 . S
C741 H728 0.929 . S
C741 C733 1.433 . S
C741 N743 1.384 . S
N742 C738 1.427 . S
N742 C739 1.384 . S
N743 C735 1.427 . S
N743 C741 1.384 . S
H744 C750 0.930 . S
H745 C754 0.930 . S
H746 C759 0.929 . S
H747 C757 0.929 . S
H748 C752 0.929 . S
H749 C758 0.929 . S
C750 H744 0.930 . S
C750 C751 1.367 . S
C750 C758 1.378 . S
C751 C750 1.367 . S
C751 C759 1.433 . S
C752 H748 0.929 . S
C752 C754 1.378 . S
C752 C756 1.350 . S
C753 C756 1.463 1_556 S
C753 C758 1.350 . S
C753 N761 1.427 . S
C754 H745 0.930 . S
C754 C752 1.378 . S
C754 C755 1.367 . S
C755 C754 1.367 . S
C755 C757 1.433 . S
C756 C752 1.350 . S
C756 C753 1.463 1_554 S
C756 N760 1.427 . S
C757 H747 0.929 . S
C757 C755 1.433 . S
C757 N760 1.384 . S
C758 H749 0.929 . S
C758 C750 1.378 . S
C758 C753 1.350 . S
C759 H746 0.929 . S
C759 C751 1.433 . S
C759 N761 1.384 . S
N760 C756 1.427 . S
N760 C757 1.384 . S
N761 C753 1.427 . S
N761 C759 1.384 . S
H762 C768 0.930 . S
H763 C772 0.930 . S
H764 C777 0.929 . S
H765 C775 0.929 . S
H766 C770 0.929 . S
H767 C776 0.929 . S
C768 H762 0.930 . S
C768 C769 1.367 . S
C768 C776 1.378 . S
C769 C768 1.367 . S
C769 C777 1.433 . S
C770 H766 0.929 . S
C770 C772 1.378 . S
C770 C774 1.350 . S
C771 C774 1.463 . S
C771 C776 1.350 . S
C771 N779 1.427 . S
C772 H763 0.930 . S
C772 C770 1.378 . S
C772 C773 1.367 . S
C773 C772 1.367 . S
C773 C775 1.433 . S
C774 C770 1.350 . S
C774 C771 1.463 . S
C774 N778 1.427 . S
C775 H765 0.929 . S
C775 C773 1.433 . S
C775 N778 1.384 . S
C776 H767 0.929 . S
C776 C768 1.378 . S
C776 C771 1.350 . S
C777 H764 0.929 . S
C777 C769 1.433 . S
C777 N779 1.384 . S
N778 C774 1.427 . S
N778 C775 1.384 . S
N779 C771 1.427 . S
N779 C777 1.384 . S
H780 C786 0.930 . S
H781 C790 0.930 . S
H782 C795 0.929 . S
H783 C793 0.929 . S
H784 C788 0.929 . S
H785 C794 0.929 . S
C786 H780 0.930 . S
C786 C787 1.367 . S
C786 C794 1.378 . S
C787 C786 1.367 . S
C787 C795 1.433 . S
C788 H784 0.929 . S
C788 C790 1.378 . S
C788 C792 1.350 . S
C789 C792 1.463 . S
C789 C794 1.350 . S
C789 N797 1.427 . S
C790 H781 0.930 . S
C790 C788 1.378 . S
C790 C791 1.367 . S
C791 C790 1.367 . S
C791 C793 1.433 . S
C792 C788 1.350 . S
C792 C789 1.463 . S
C792 N796 1.427 . S
C793 H783 0.929 . S
C793 C791 1.433 . S
C793 N796 1.384 . S
C794 H785 0.929 . S
C794 C786 1.378 . S
C794 C789 1.350 . S
C795 H782 0.929 . S
C795 C787 1.433 . S
C795 N797 1.384 . S
N796 C792 1.427 . S
N796 C793 1.384 . S
N797 C789 1.427 . S
N797 C795 1.384 . S
H798 C804 0.930 . S
H799 C808 0.930 . S
H800 C813 0.929 . S
H801 C811 0.929 . S
H802 C806 0.929 . S
H803 C812 0.929 . S
C804 H798 0.930 . S
C804 C805 1.367 . S
C804 C812 1.378 . S
C805 C804 1.367 . S
C805 C813 1.433 . S
C806 H802 0.929 . S
C806 C808 1.378 . S
C806 C810 1.350 . S
C807 C810 1.463 . S
C807 C812 1.350 . S
C807 N815 1.427 . S
C808 H799 0.930 . S
C808 C806 1.378 . S
C808 C809 1.367 . S
C809 C808 1.367 . S
C809 C811 1.433 . S
C810 C806 1.350 . S
C810 C807 1.463 . S
C810 N814 1.427 . S
C811 H801 0.929 . S
C811 C809 1.433 . S
C811 N814 1.384 . S
C812 H803 0.929 . S
C812 C804 1.378 . S
C812 C807 1.350 . S
C813 H800 0.929 . S
C813 C805 1.433 . S
C813 N815 1.384 . S
N814 C810 1.427 . S
N814 C811 1.384 . S
N815 C807 1.427 . S
N815 C813 1.384 . S
H816 C822 0.930 . S
H817 C826 0.930 . S
H818 C831 0.929 . S
H819 C829 0.929 . S
H820 C824 0.929 . S
H821 C830 0.929 . S
C822 H816 0.930 . S
C822 C823 1.367 . S
C822 C830 1.378 . S
C823 C822 1.367 . S
C823 C831 1.433 . S
C824 H820 0.929 . S
C824 C826 1.378 . S
C824 C828 1.350 . S
C825 C828 1.463 . S
C825 C830 1.350 . S
C825 N833 1.427 . S
C826 H817 0.930 . S
C826 C824 1.378 . S
C826 C827 1.367 . S
C827 C826 1.367 . S
C827 C829 1.433 . S
C828 C824 1.350 . S
C828 C825 1.463 . S
C828 N832 1.427 . S
C829 H819 0.929 . S
C829 C827 1.433 . S
C829 N832 1.384 . S
C830 H821 0.929 . S
C830 C822 1.378 . S
C830 C825 1.350 . S
C831 H818 0.929 . S
C831 C823 1.433 . S
C831 N833 1.384 . S
N832 C828 1.427 . S
N832 C829 1.384 . S
N833 C825 1.427 . S
N833 C831 1.384 . S
H834 C840 0.930 . S
H835 C844 0.930 . S
H836 C849 0.929 . S
H837 C847 0.929 . S
H838 C842 0.929 . S
H839 C848 0.929 . S
C840 H834 0.930 . S
C840 C841 1.367 . S
C840 C848 1.378 . S
C841 C840 1.367 . S
C841 C849 1.433 . S
C842 H838 0.929 . S
C842 C844 1.378 . S
C842 C846 1.350 . S
C843 C846 1.463 . S
C843 C848 1.350 . S
C843 N851 1.427 . S
C844 H835 0.930 . S
C844 C842 1.378 . S
C844 C845 1.367 . S
C845 C844 1.367 . S
C845 C847 1.433 . S
C846 C842 1.350 . S
C846 C843 1.463 . S
C846 N850 1.427 . S
C847 H837 0.929 . S
C847 C845 1.433 . S
C847 N850 1.384 . S
C848 H839 0.929 . S
C848 C840 1.378 . S
C848 C843 1.350 . S
C849 H836 0.929 . S
C849 C841 1.433 . S
C849 N851 1.384 . S
N850 C846 1.427 . S
N850 C847 1.384 . S
N851 C843 1.427 . S
N851 C849 1.384 . S
H852 C858 0.930 . S
H853 C862 0.930 . S
H854 C867 0.929 . S
H855 C865 0.929 . S
H856 C860 0.929 . S
H857 C866 0.929 . S
C858 H852 0.930 . S
C858 C859 1.367 . S
C858 C866 1.378 . S
C859 C858 1.367 . S
C859 C867 1.433 . S
C860 H856 0.929 . S
C860 C862 1.378 . S
C860 C864 1.350 . S
C861 C864 1.463 . S
C861 C866 1.350 . S
C861 N869 1.427 . S
C862 H853 0.930 . S
C862 C860 1.378 . S
C862 C863 1.367 . S
C863 C862 1.367 . S
C863 C865 1.433 . S
C864 C860 1.350 . S
C864 C861 1.463 . S
C864 N868 1.427 . S
C865 H855 0.929 . S
C865 C863 1.433 . S
C865 N868 1.384 . S
C866 H857 0.929 . S
C866 C858 1.378 . S
C866 C861 1.350 . S
C867 H854 0.929 . S
C867 C859 1.433 . S
C867 N869 1.384 . S
N868 C864 1.427 . S
N868 C865 1.384 . S
N869 C861 1.427 . S
N869 C867 1.384 . S
H870 C876 0.930 . S
H871 C880 0.930 . S
H872 C885 0.929 . S
H873 C883 0.929 . S
H874 C878 0.929 . S
H875 C884 0.929 . S
C876 H870 0.930 . S
C876 C877 1.367 . S
C876 C884 1.378 . S
C877 C876 1.367 . S
C877 C885 1.433 1_554 S
C878 H874 0.929 . S
C878 C880 1.378 . S
C878 C882 1.350 . S
C879 C882 1.463 . S
C879 C884 1.350 1_556 S
C879 N887 1.427 . S
C880 H871 0.930 . S
C880 C878 1.378 . S
C880 C881 1.367 . S
C881 C880 1.367 . S
C881 C883 1.433 . S
C882 C878 1.350 . S
C882 C879 1.463 . S
C882 N886 1.427 . S
C883 H873 0.929 . S
C883 C881 1.433 . S
C883 N886 1.384 . S
C884 H875 0.929 . S
C884 C876 1.378 . S
C884 C879 1.350 1_554 S
C885 H872 0.929 . S
C885 C877 1.433 1_556 S
C885 N887 1.384 . S
N886 C882 1.427 . S
N886 C883 1.384 . S
N887 C879 1.427 . S
N887 C885 1.384 . S
H888 C894 0.930 . S
H889 C898 0.930 . S
H890 C903 0.929 . S
H891 C901 0.929 1_554 S
H892 C896 0.929 . S
H893 C902 0.929 . S
C894 H888 0.930 . S
C894 C895 1.367 . S
C894 C902 1.378 . S
C895 C894 1.367 . S
C895 C903 1.433 . S
C896 H892 0.929 . S
C896 C898 1.378 . S
C896 C900 1.350 . S
C897 C900 1.463 . S
C897 C902 1.350 . S
C897 N905 1.427 . S
C898 H889 0.930 . S
C898 C896 1.378 . S
C898 C899 1.367 . S
C899 C898 1.367 . S
C899 C901 1.433 . S
C900 C896 1.350 . S
C900 C897 1.463 . S
C900 N904 1.427 . S
C901 H891 0.929 1_556 S
C901 C899 1.433 . S
C901 N904 1.384 . S
C902 H893 0.929 . S
C902 C894 1.378 . S
C902 C897 1.350 . S
C903 H890 0.929 . S
C903 C895 1.433 . S
C903 N905 1.384 . S
N904 C900 1.427 . S
N904 C901 1.384 . S
N905 C897 1.427 . S
N905 C903 1.384 . S
H906 C912 0.930 . S
H907 C916 0.930 . S
H908 C921 0.929 . S
H909 C919 0.929 . S
H910 C914 0.929 . S
H911 C920 0.929 . S
C912 H906 0.930 . S
C912 C913 1.367 . S
C912 C920 1.378 . S
C913 C912 1.367 . S
C913 C921 1.433 . S
C914 H910 0.929 . S
C914 C916 1.378 . S
C914 C918 1.350 . S
C915 C918 1.463 . S
C915 C920 1.350 . S
C915 N923 1.427 . S
C916 H907 0.930 . S
C916 C914 1.378 . S
C916 C917 1.367 . S
C917 C916 1.367 . S
C917 C919 1.433 . S
C918 C914 1.350 . S
C918 C915 1.463 . S
C918 N922 1.427 . S
C919 H909 0.929 . S
C919 C917 1.433 . S
C919 N922 1.384 . S
C920 H911 0.929 . S
C920 C912 1.378 . S
C920 C915 1.350 . S
C921 H908 0.929 . S
C921 C913 1.433 . S
C921 N923 1.384 . S
N922 C918 1.427 . S
N922 C919 1.384 . S
N923 C915 1.427 . S
N923 C921 1.384 . S
H924 C930 0.930 . S
H925 C934 0.930 . S
H926 C939 0.929 . S
H927 C937 0.929 . S
H928 C932 0.929 . S
H929 C938 0.929 . S
C930 H924 0.930 . S
C930 C931 1.367 . S
C930 C938 1.378 . S
C931 C930 1.367 . S
C931 C939 1.433 . S
C932 H928 0.929 . S
C932 C934 1.378 . S
C932 C936 1.350 . S
C933 C936 1.463 . S
C933 C938 1.350 . S
C933 N941 1.427 . S
C934 H925 0.930 . S
C934 C932 1.378 . S
C934 C935 1.367 . S
C935 C934 1.367 . S
C935 C937 1.433 . S
C936 C932 1.350 . S
C936 C933 1.463 . S
C936 N940 1.427 . S
C937 H927 0.929 . S
C937 C935 1.433 . S
C937 N940 1.384 . S
C938 H929 0.929 . S
C938 C930 1.378 . S
C938 C933 1.350 . S
C939 H926 0.929 . S
C939 C931 1.433 . S
C939 N941 1.384 . S
N940 C936 1.427 . S
N940 C937 1.384 . S
N941 C933 1.427 . S
N941 C939 1.384 . S
H942 C948 0.930 . S
H943 C952 0.930 1_556 S
H944 C957 0.929 . S
H945 C955 0.929 . S
H946 C950 0.929 . S
H947 C956 0.929 . S
C948 H942 0.930 . S
C948 C949 1.367 . S
C948 C956 1.378 . S
C949 C948 1.367 . S
C949 C957 1.433 . S
C950 H946 0.929 . S
C950 C952 1.378 . S
C950 C954 1.350 . S
C951 C954 1.463 . S
C951 C956 1.350 . S
C951 N959 1.427 . S
C952 H943 0.930 1_554 S
C952 C950 1.378 . S
C952 C953 1.367 . S
C953 C952 1.367 . S
C953 C955 1.433 . S
C954 C950 1.350 . S
C954 C951 1.463 . S
C954 N958 1.427 . S
C955 H945 0.929 . S
C955 C953 1.433 . S
C955 N958 1.384 . S
C956 H947 0.929 . S
C956 C948 1.378 . S
C956 C951 1.350 . S
C957 H944 0.929 . S
C957 C949 1.433 . S
C957 N959 1.384 . S
N958 C954 1.427 . S
N958 C955 1.384 . S
N959 C951 1.427 . S
N959 C957 1.384 . S
H960 C966 0.930 . S
H961 C970 0.930 . S
H962 C975 0.929 . S
H963 C973 0.929 . S
H964 C968 0.929 . S
H965 C974 0.929 . S
C966 H960 0.930 . S
C966 C967 1.367 . S
C966 C974 1.378 . S
C967 C966 1.367 . S
C967 C975 1.433 . S
C968 H964 0.929 . S
C968 C970 1.378 . S
C968 C972 1.350 . S
C969 C972 1.463 . S
C969 C974 1.350 . S
C969 N977 1.427 . S
C970 H961 0.930 . S
C970 C968 1.378 . S
C970 C971 1.367 . S
C971 C970 1.367 . S
C971 C973 1.433 . S
C972 C968 1.350 . S
C972 C969 1.463 . S
C972 N976 1.427 . S
C973 H963 0.929 . S
C973 C971 1.433 . S
C973 N976 1.384 . S
C974 H965 0.929 . S
C974 C966 1.378 . S
C974 C969 1.350 . S
C975 H962 0.929 . S
C975 C967 1.433 . S
C975 N977 1.384 . S
N976 C972 1.427 . S
N976 C973 1.384 . S
N977 C969 1.427 . S
N977 C975 1.384 . S
H978 C984 0.930 . S
H979 C988 0.930 . S
H980 C993 0.929 . S
H981 C991 0.929 . S
H982 C986 0.934 . S
H983 C992 0.929 . S
C984 H978 0.930 . S
C984 C985 1.367 . S
C984 C992 1.378 . S
C985 C984 1.367 . S
C985 C993 1.433 . S
C986 H982 0.934 . S
C986 C988 1.381 . S
C986 C990 1.341 1_554 S
C987 C990 1.463 . S
C987 C992 1.350 . S
C987 N995 1.427 . S
C988 H979 0.930 . S
C988 C986 1.381 . S
C988 C989 1.367 1_554 S
C989 C988 1.367 1_556 S
C989 C991 1.433 . S
C990 C986 1.341 1_556 S
C990 C987 1.463 . S
C990 N994 1.427 . S
C991 H981 0.929 . S
C991 C989 1.433 . S
C991 N994 1.384 . S
C992 H983 0.929 . S
C992 C984 1.378 . S
C992 C987 1.350 . S
C993 H980 0.929 . S
C993 C985 1.433 . S
C993 N995 1.384 . S
N994 C990 1.427 . S
N994 C991 1.384 . S
N995 C987 1.427 . S
N995 C993 1.384 . S
H996 C1002 0.930 1_556 S
H997 C1006 0.930 . S
H998 C1011 0.929 . S
H999 C1009 0.929 . S
H1000 C1004 0.929 . S
H1001 C1010 0.929 . S
C1002 H996 0.930 1_554 S
C1002 C1003 1.367 . S
C1002 C1010 1.378 . S
C1003 C1002 1.367 . S
C1003 C1011 1.433 . S
C1004 H1000 0.929 . S
C1004 C1006 1.378 . S
C1004 C1008 1.350 . S
C1005 C1008 1.463 . S
C1005 C1010 1.350 . S
C1005 N1013 1.427 . S
C1006 H997 0.930 . S
C1006 C1004 1.378 . S
C1006 C1007 1.367 . S
C1007 C1006 1.367 . S
C1007 C1009 1.433 . S
C1008 C1004 1.350 . S
C1008 C1005 1.463 . S
C1008 N1012 1.427 . S
C1009 H999 0.929 . S
C1009 C1007 1.433 . S
C1009 N1012 1.384 . S
C1010 H1001 0.929 . S
C1010 C1002 1.378 . S
C1010 C1005 1.350 . S
C1011 H998 0.929 . S
C1011 C1003 1.433 . S
C1011 N1013 1.384 . S
N1012 C1008 1.427 . S
N1012 C1009 1.384 . S
N1013 C1005 1.427 . S
N1013 C1011 1.384 . S
H1014 C1020 0.930 . S
H1015 C1024 0.930 . S
H1016 C1029 0.929 . S
H1017 C1027 0.929 . S
H1018 C1022 0.929 . S
H1019 C1028 0.929 . S
C1020 H1014 0.930 . S
C1020 C1021 1.367 . S
C1020 C1028 1.378 . S
C1021 C1020 1.367 . S
C1021 C1029 1.433 . S
C1022 H1018 0.929 . S
C1022 C1024 1.378 . S
C1022 C1026 1.350 . S
C1023 C1026 1.463 . S
C1023 C1028 1.350 . S
C1023 N1031 1.427 . S
C1024 H1015 0.930 . S
C1024 C1022 1.378 . S
C1024 C1025 1.367 . S
C1025 C1024 1.367 . S
C1025 C1027 1.433 . S
C1026 C1022 1.350 . S
C1026 C1023 1.463 . S
C1026 N1030 1.427 . S
C1027 H1017 0.929 . S
C1027 C1025 1.433 . S
C1027 N1030 1.384 . S
C1028 H1019 0.929 . S
C1028 C1020 1.378 . S
C1028 C1023 1.350 . S
C1029 H1016 0.929 . S
C1029 C1021 1.433 . S
C1029 N1031 1.384 . S
N1030 C1026 1.427 . S
N1030 C1027 1.384 . S
N1031 C1023 1.427 . S
N1031 C1029 1.384 . S
H1032 C1038 0.930 . S
H1033 C1042 0.930 . S
H1034 C1047 0.929 . S
H1035 C1045 0.929 . S
H1036 C1040 0.929 . S
H1037 C1046 0.929 . S
C1038 H1032 0.930 . S
C1038 C1039 1.367 . S
C1038 C1046 1.378 . S
C1039 C1038 1.367 . S
C1039 C1047 1.433 . S
C1040 H1036 0.929 . S
C1040 C1042 1.378 . S
C1040 C1044 1.350 . S
C1041 C1044 1.463 . S
C1041 C1046 1.350 . S
C1041 N1049 1.427 . S
C1042 H1033 0.930 . S
C1042 C1040 1.378 . S
C1042 C1043 1.367 . S
C1043 C1042 1.367 . S
C1043 C1045 1.433 . S
C1044 C1040 1.350 . S
C1044 C1041 1.463 . S
C1044 N1048 1.427 . S
C1045 H1035 0.929 . S
C1045 C1043 1.433 . S
C1045 N1048 1.384 . S
C1046 H1037 0.929 . S
C1046 C1038 1.378 . S
C1046 C1041 1.350 . S
C1047 H1034 0.929 . S
C1047 C1039 1.433 . S
C1047 N1049 1.384 . S
N1048 C1044 1.427 . S
N1048 C1045 1.384 . S
N1049 C1041 1.427 . S
N1049 C1047 1.384 . S
H1050 C1056 0.930 . S
H1051 C1060 0.930 . S
H1052 C1065 0.929 . S
H1053 C1063 0.929 . S
H1054 C1058 0.929 . S
H1055 C1064 0.929 . S
C1056 H1050 0.930 . S
C1056 C1057 1.367 . S
C1056 C1064 1.378 . S
C1057 C1056 1.367 . S
C1057 C1065 1.433 . S
C1058 H1054 0.929 . S
C1058 C1060 1.378 . S
C1058 C1062 1.350 . S
C1059 C1062 1.463 . S
C1059 C1064 1.350 . S
C1059 N1067 1.427 . S
C1060 H1051 0.930 . S
C1060 C1058 1.378 . S
C1060 C1061 1.367 . S
C1061 C1060 1.367 . S
C1061 C1063 1.433 . S
C1062 C1058 1.350 . S
C1062 C1059 1.463 . S
C1062 N1066 1.427 . S
C1063 H1053 0.929 . S
C1063 C1061 1.433 . S
C1063 N1066 1.384 . S
C1064 H1055 0.929 . S
C1064 C1056 1.378 . S
C1064 C1059 1.350 . S
C1065 H1052 0.929 . S
C1065 C1057 1.433 . S
C1065 N1067 1.384 . S
N1066 C1062 1.427 . S
N1066 C1063 1.384 . S
N1067 C1059 1.427 . S
N1067 C1065 1.384 . S
H1068 C1074 0.930 . S
H1069 C1078 0.930 . S
H1070 C1083 0.929 . S
H1071 C1081 0.929 . S
H1072 C1076 0.929 . S
H1073 C1082 0.929 . S
C1074 H1068 0.930 . S
C1074 C1075 1.367 . S
C1074 C1082 1.378 . S
C1075 C1074 1.367 . S
C1075 C1083 1.433 . S
C1076 H1072 0.929 . S
C1076 C1078 1.378 . S
C1076 C1080 1.350 1_554 S
C1077 C1080 1.463 . S
C1077 C1082 1.350 . S
C1077 N1085 1.427 . S
C1078 H1069 0.930 . S
C1078 C1076 1.378 . S
C1078 C1079 1.367 . S
C1079 C1078 1.367 . S
C1079 C1081 1.433 1_554 S
C1080 C1076 1.350 1_556 S
C1080 C1077 1.463 . S
C1080 N1084 1.427 . S
C1081 H1071 0.929 . S
C1081 C1079 1.433 1_556 S
C1081 N1084 1.384 . S
C1082 H1073 0.929 . S
C1082 C1074 1.378 . S
C1082 C1077 1.350 . S
C1083 H1070 0.929 . S
C1083 C1075 1.433 . S
C1083 N1085 1.384 . S
N1084 C1080 1.427 . S
N1084 C1081 1.384 . S
N1085 C1077 1.427 . S
N1085 C1083 1.384 . S
H1086 C1092 0.930 . S
H1087 C1096 0.930 . S
H1088 C1101 0.929 . S
H1089 C1099 0.929 . S
H1090 C1094 0.929 . S
H1091 C1100 0.929 . S
C1092 H1086 0.930 . S
C1092 C1093 1.367 . S
C1092 C1100 1.378 . S
C1093 C1092 1.367 . S
C1093 C1101 1.433 . S
C1094 H1090 0.929 . S
C1094 C1096 1.378 . S
C1094 C1098 1.350 . S
C1095 C1098 1.463 . S
C1095 C1100 1.350 . S
C1095 N1103 1.427 . S
C1096 H1087 0.930 . S
C1096 C1094 1.378 . S
C1096 C1097 1.367 . S
C1097 C1096 1.367 . S
C1097 C1099 1.433 . S
C1098 C1094 1.350 . S
C1098 C1095 1.463 . S
C1098 N1102 1.427 . S
C1099 H1089 0.929 . S
C1099 C1097 1.433 . S
C1099 N1102 1.384 . S
C1100 H1091 0.929 . S
C1100 C1092 1.378 . S
C1100 C1095 1.350 . S
C1101 H1088 0.929 . S
C1101 C1093 1.433 . S
C1101 N1103 1.384 . S
N1102 C1098 1.427 . S
N1102 C1099 1.384 . S
N1103 C1095 1.427 . S
N1103 C1101 1.384 . S
H1104 C1110 0.930 1_556 S
H1105 C1114 0.930 . S
H1106 C1119 0.929 . S
H1107 C1117 0.929 . S
H1108 C1112 0.929 . S
H1109 C1118 0.929 . S
C1110 H1104 0.930 1_554 S
C1110 C1111 1.367 . S
C1110 C1118 1.378 1_554 S
C1111 C1110 1.367 . S
C1111 C1119 1.433 . S
C1112 H1108 0.929 . S
C1112 C1114 1.378 . S
C1112 C1116 1.350 . S
C1113 C1116 1.463 . S
C1113 C1118 1.350 1_554 S
C1113 N1121 1.427 . S
C1114 H1105 0.930 . S
C1114 C1112 1.378 . S
C1114 C1115 1.367 . S
C1115 C1114 1.367 . S
C1115 C1117 1.433 1_554 S
C1116 C1112 1.350 . S
C1116 C1113 1.463 . S
C1116 N1120 1.427 1_554 S
C1117 H1107 0.929 . S
C1117 C1115 1.433 1_556 S
C1117 N1120 1.384 . S
C1118 H1109 0.929 . S
C1118 C1110 1.378 1_556 S
C1118 C1113 1.350 1_556 S
C1119 H1106 0.929 . S
C1119 C1111 1.433 . S
C1119 N1121 1.384 . S
N1120 C1116 1.427 1_556 S
N1120 C1117 1.384 . S
N1121 C1113 1.427 . S
N1121 C1119 1.384 . S
H1122 C1128 0.930 . S
H1123 C1132 0.930 . S
H1124 C1137 0.929 . S
H1125 C1135 0.929 . S
H1126 C1130 0.929 . S
H1127 C1136 0.929 . S
C1128 H1122 0.930 . S
C1128 C1129 1.367 . S
C1128 C1136 1.378 . S
C1129 C1128 1.367 . S
C1129 C1137 1.433 . S
C1130 H1126 0.929 . S
C1130 C1132 1.378 . S
C1130 C1134 1.350 . S
C1131 C1134 1.463 . S
C1131 C1136 1.350 . S
C1131 N1139 1.427 . S
C1132 H1123 0.930 . S
C1132 C1130 1.378 . S
C1132 C1133 1.367 . S
C1133 C1132 1.367 . S
C1133 C1135 1.433 . S
C1134 C1130 1.350 . S
C1134 C1131 1.463 . S
C1134 N1138 1.427 . S
C1135 H1125 0.929 . S
C1135 C1133 1.433 . S
C1135 N1138 1.384 . S
C1136 H1127 0.929 . S
C1136 C1128 1.378 . S
C1136 C1131 1.350 . S
C1137 H1124 0.929 . S
C1137 C1129 1.433 . S
C1137 N1139 1.384 . S
N1138 C1134 1.427 . S
N1138 C1135 1.384 . S
N1139 C1131 1.427 . S
N1139 C1137 1.384 . S
H1140 C1146 0.930 . S
H1141 C1150 0.930 . S
H1142 C1155 0.929 . S
H1143 C1153 0.929 . S
H1144 C1148 0.929 . S
H1145 C1154 0.929 . S
C1146 H1140 0.930 . S
C1146 C1147 1.367 . S
C1146 C1154 1.378 . S
C1147 C1146 1.367 . S
C1147 C1155 1.433 . S
C1148 H1144 0.929 . S
C1148 C1150 1.378 . S
C1148 C1152 1.350 . S
C1149 C1152 1.463 1_455 S
C1149 C1154 1.350 . S
C1149 N1157 1.427 . S
C1150 H1141 0.930 . S
C1150 C1148 1.378 . S
C1150 C1151 1.367 . S
C1151 C1150 1.367 . S
C1151 C1153 1.433 . S
C1152 C1148 1.350 . S
C1152 C1149 1.463 1_655 S
C1152 N1156 1.427 . S
C1153 H1143 0.929 . S
C1153 C1151 1.433 . S
C1153 N1156 1.384 . S
C1154 H1145 0.929 . S
C1154 C1146 1.378 . S
C1154 C1149 1.350 . S
C1155 H1142 0.929 . S
C1155 C1147 1.433 . S
C1155 N1157 1.384 . S
N1156 C1152 1.427 . S
N1156 C1153 1.384 . S
N1157 C1149 1.427 . S
N1157 C1155 1.384 . S
H1158 C1164 0.930 . S
H1159 C1168 0.930 . S
H1160 C1173 0.929 . S
H1161 C1171 0.929 . S
H1162 C1166 0.929 . S
H1163 C1172 0.929 . S
C1164 H1158 0.930 . S
C1164 C1165 1.367 . S
C1164 C1172 1.378 . S
C1165 C1164 1.367 . S
C1165 C1173 1.433 . S
C1166 H1162 0.929 . S
C1166 C1168 1.378 . S
C1166 C1170 1.350 . S
C1167 C1170 1.463 . S
C1167 C1172 1.350 . S
C1167 N1175 1.427 . S
C1168 H1159 0.930 . S
C1168 C1166 1.378 . S
C1168 C1169 1.367 . S
C1169 C1168 1.367 . S
C1169 C1171 1.433 . S
C1170 C1166 1.350 . S
C1170 C1167 1.463 . S
C1170 N1174 1.427 . S
C1171 H1161 0.929 . S
C1171 C1169 1.433 . S
C1171 N1174 1.384 . S
C1172 H1163 0.929 . S
C1172 C1164 1.378 . S
C1172 C1167 1.350 . S
C1173 H1160 0.929 . S
C1173 C1165 1.433 . S
C1173 N1175 1.384 . S
N1174 C1170 1.427 . S
N1174 C1171 1.384 . S
N1175 C1167 1.427 . S
N1175 C1173 1.384 . S
H1176 C1182 0.930 . S
H1177 C1186 0.930 . S
H1178 C1191 0.929 . S
H1179 C1189 0.929 . S
H1180 C1184 0.929 . S
H1181 C1190 0.929 . S
C1182 H1176 0.930 . S
C1182 C1183 1.367 . S
C1182 C1190 1.378 . S
C1183 C1182 1.367 . S
C1183 C1191 1.433 . S
C1184 H1180 0.929 . S
C1184 C1186 1.378 . S
C1184 C1188 1.350 . S
C1185 C1188 1.463 . S
C1185 C1190 1.350 . S
C1185 N1193 1.427 . S
C1186 H1177 0.930 . S
C1186 C1184 1.378 . S
C1186 C1187 1.367 . S
C1187 C1186 1.367 . S
C1187 C1189 1.433 . S
C1188 C1184 1.350 . S
C1188 C1185 1.463 . S
C1188 N1192 1.427 . S
C1189 H1179 0.929 . S
C1189 C1187 1.433 . S
C1189 N1192 1.384 . S
C1190 H1181 0.929 . S
C1190 C1182 1.378 . S
C1190 C1185 1.350 . S
C1191 H1178 0.929 . S
C1191 C1183 1.433 . S
C1191 N1193 1.384 . S
N1192 C1188 1.427 . S
N1192 C1189 1.384 . S
N1193 C1185 1.427 . S
N1193 C1191 1.384 . S
H1194 C1200 0.930 . S
H1195 C1204 0.930 . S
H1196 C1209 0.929 . S
H1197 C1207 0.929 . S
H1198 C1202 0.929 . S
H1199 C1208 0.929 . S
C1200 H1194 0.930 . S
C1200 C1201 1.367 . S
C1200 C1208 1.378 . S
C1201 C1200 1.367 . S
C1201 C1209 1.433 . S
C1202 H1198 0.929 . S
C1202 C1204 1.378 . S
C1202 C1206 1.350 . S
C1203 C1206 1.463 . S
C1203 C1208 1.350 . S
C1203 N1211 1.427 . S
C1204 H1195 0.930 . S
C1204 C1202 1.378 . S
C1204 C1205 1.367 . S
C1205 C1204 1.367 . S
C1205 C1207 1.433 . S
C1206 C1202 1.350 . S
C1206 C1203 1.463 . S
C1206 N1210 1.427 . S
C1207 H1197 0.929 . S
C1207 C1205 1.433 . S
C1207 N1210 1.384 . S
C1208 H1199 0.929 . S
C1208 C1200 1.378 . S
C1208 C1203 1.350 . S
C1209 H1196 0.929 . S
C1209 C1201 1.433 . S
C1209 N1211 1.384 . S
N1210 C1206 1.427 . S
N1210 C1207 1.384 . S
N1211 C1203 1.427 . S
N1211 C1209 1.384 . S
H1212 C1218 0.930 . S
H1213 C1222 0.930 . S
H1214 C1227 0.929 . S
H1215 C1225 0.929 . S
H1216 C1220 0.929 . S
H1217 C1226 0.929 . S
C1218 H1212 0.930 . S
C1218 C1219 1.367 . S
C1218 C1226 1.378 . S
C1219 C1218 1.367 . S
C1219 C1227 1.433 . S
C1220 H1216 0.929 . S
C1220 C1222 1.378 . S
C1220 C1224 1.350 . S
C1221 C1224 1.463 1_655 S
C1221 C1226 1.350 . S
C1221 N1229 1.427 . S
C1222 H1213 0.930 . S
C1222 C1220 1.378 . S
C1222 C1223 1.367 . S
C1223 C1222 1.367 . S
C1223 C1225 1.433 . S
C1224 C1220 1.350 . S
C1224 C1221 1.463 1_455 S
C1224 N1228 1.427 . S
C1225 H1215 0.929 . S
C1225 C1223 1.433 . S
C1225 N1228 1.384 . S
C1226 H1217 0.929 . S
C1226 C1218 1.378 . S
C1226 C1221 1.350 . S
C1227 H1214 0.929 . S
C1227 C1219 1.433 . S
C1227 N1229 1.384 . S
N1228 C1224 1.427 . S
N1228 C1225 1.384 . S
N1229 C1221 1.427 . S
N1229 C1227 1.384 . S
H1230 C1236 0.930 . S
H1231 C1240 0.930 . S
H1232 C1245 0.929 . S
H1233 C1243 0.929 . S
H1234 C1238 0.929 . S
H1235 C1244 0.929 1_556 S
C1236 H1230 0.930 . S
C1236 C1237 1.367 . S
C1236 C1244 1.378 . S
C1237 C1236 1.367 . S
C1237 C1245 1.433 . S
C1238 H1234 0.929 . S
C1238 C1240 1.378 . S
C1238 C1242 1.350 . S
C1239 C1242 1.463 . S
C1239 C1244 1.350 . S
C1239 N1247 1.427 . S
C1240 H1231 0.930 . S
C1240 C1238 1.378 . S
C1240 C1241 1.367 . S
C1241 C1240 1.367 . S
C1241 C1243 1.433 1_554 S
C1242 C1238 1.350 . S
C1242 C1239 1.463 . S
C1242 N1246 1.434 . S
C1243 H1233 0.929 . S
C1243 C1241 1.433 1_556 S
C1243 N1246 1.381 1_556 S
C1244 H1235 0.929 1_554 S
C1244 C1236 1.378 . S
C1244 C1239 1.350 . S
C1245 H1232 0.929 . S
C1245 C1237 1.433 . S
C1245 N1247 1.384 . S
N1246 C1242 1.434 . S
N1246 C1243 1.381 1_554 S
N1247 C1239 1.427 . S
N1247 C1245 1.384 . S
C535 N13 1.263 . S
C539 N2 1.261 . S
C553 N46 1.296 . S
C557 N35 1.294 . S
C571 N68 1.302 . S
C575 N79 1.304 . S
C589 N101 1.261 . S
C593 N112 1.263 1_554 S
C607 N134 1.260 . S
C611 N145 1.262 . S
C625 N167 1.304 . S
C629 N178 1.306 1_554 S
C643 N211 1.303 . S
C647 N200 1.301 . S
C661 N233 1.274 . S
C665 N244 1.276 . S
C679 N277 1.264 . S
C683 N266 1.261 . S
C697 N310 1.305 . S
C701 N299 1.303 . S
C715 N332 1.297 . S
C719 N343 1.299 . S
C733 N376 1.276 . S
C737 N365 1.274 1_556 S
C751 N409 1.268 . S
C755 N398 1.266 . S
C769 N431 1.303 1_556 S
C773 N442 1.305 . S
C787 N475 1.302 . S
C791 N464 1.300 . S
C805 N497 1.263 . S
C809 N508 1.265 . S
C823 C7 1.482 . S
C827 C54 1.505 . S
C841 C73 1.891 . S
C845 C40 1.892 . S
C859 C106 1.484 . S
C863 C87 1.505 . S
C877 C21 1.158 . S
C881 C120 1.160 . S
C895 C186 1.506 . S
C899 C139 1.480 1_565 S
C913 C172 1.893 . S
C917 C205 1.889 1_565 S
C931 C219 1.511 . S
C935 C238 1.492 . S
C949 C252 1.160 . S
C953 C153 1.158 . S
C967 C318 1.508 . S
C971 C271 1.491 . S
C985 C304 1.892 . S
C989 C337 1.891 . S
C1003 C351 1.511 . S
C1007 C370 1.492 . S
C1021 C384 1.160 . S
C1025 C285 1.154 . S
C1039 C403 1.478 . S
C1043 C450 1.509 . S
C1057 C436 1.893 . S
C1061 C469 1.889 . S
C1075 C502 1.491 . S
C1079 C483 1.512 . S
C1093 C417 1.148 . S
C1097 C516 1.151 . S
C1111 C18 0.957 . S
C1115 C150 0.957 . S
C1129 C447 1.361 . S
C1133 C51 1.361 . S
C1147 C84 1.364 . S
C1151 C216 1.364 . S
C1165 C513 0.961 . S
C1169 C117 0.961 . S
C1183 C315 1.364 . S
C1187 C183 1.364 . S
C1201 C249 0.956 . S
C1205 C381 0.956 . S
C1219 C282 0.956 . S
C1223 C414 0.956 . S
C1237 C480 1.363 . S
C1241 C348 1.363 . S
