# Generated by pormake.
# Topology hcp, (12)-cn, num edge types: 1
# Building blocks:
#     Node 0, Type 0, BuildingBlock: EZIPEK_clean_sbu_0, # of connection points: 12
#     Node 1, Type 0, BuildingBlock: EZIPEK_clean_sbu_0, # of connection points: 12
#     Edge 2, Type (0, 0), BuildingBlock: EZIPEK_clean_linker_0, # of connection points: 2
#     Edge 3, Type (0, 0), BuildingBlock: EZIPEK_clean_linker_0, # of connection points: 2
#     Edge 4, Type (0, 0), BuildingBlock: EZIPEK_clean_linker_0, # of connection points: 2
#     Edge 5, Type (0, 0), BuildingBlock: EZIPEK_clean_linker_0, # of connection points: 2
#     Edge 6, Type (0, 0), BuildingBlock: EZIPEK_clean_linker_0, # of connection points: 2
#     Edge 7, Type (0, 0), BuildingBlock: EZIPEK_clean_linker_0, # of connection points: 2
#     Edge 8, Type (0, 0), BuildingBlock: EZIPEK_clean_linker_0, # of connection points: 2
#     Edge 9, Type (0, 0), BuildingBlock: EZIPEK_clean_linker_0, # of connection points: 2
#     Edge 10, Type (0, 0), BuildingBlock: EZIPEK_clean_linker_0, # of connection points: 2
#     Edge 11, Type (0, 0), BuildingBlock: EZIPEK_clean_linker_0, # of connection points: 2
#     Edge 12, Type (0, 0), BuildingBlock: EZIPEK_clean_linker_0, # of connection points: 2
#     Edge 13, Type (0, 0), BuildingBlock: EZIPEK_clean_linker_0, # of connection points: 2
# Relax obj value: 0.186
# Max RMSD: 0.270
# Mean RMSD: 0.270
data_MOF--net-hcp--node1-EZIPEK_clean_sbu_0--edge1-EZIPEK_clean_linker_0
_symmetry_space_group_name_H-M    P1
_symmetry_Int_Tables_number       1
_symmetry_cell_setting            triclinic
loop_
_symmetry_equiv_pos_as_xyz
'x, y, z'
_cell_length_a     14.713219
_cell_length_b     14.806444
_cell_length_c     22.944153
_cell_angle_alpha  89.503276
_cell_angle_beta   90.720923
_cell_angle_gamma 119.92864
loop_
_atom_site_label
_atom_site_type_symbol
_atom_site_fract_x
_atom_site_fract_y
_atom_site_fract_z
_atom_type_partial_charge
C0 C 0.65656 0.01201 0.30066 0.0
C1 C 0.87836 0.39076 0.1421 0.0
C2 C 0.45082 0.1903 0.45022 0.0
C3 C 0.66879 0.62908 0.29814 0.0
C4 C 0.3522 0.33114 0.30157 0.0
C5 C 0.50704 0.11784 0.13813 0.0
C6 C 0.72789 0.50644 0.46856 0.0
C7 C 0.95984 0.32258 0.29497 0.0
C8 C 0.97751 0.63132 0.30591 0.0
C9 C 0.60259 0.48287 0.14032 0.0
C10 C 0.78289 0.24217 0.45589 0.0
C11 C 0.36116 0.02376 0.28978 0.0
Eu12 Eu 0.72248 0.23157 0.23207 0.0
O13 O 0.66206 0.32906 0.20171 0.0
O14 O 0.72941 0.24961 0.3249 0.0
Eu15 Eu 0.50399 0.26636 0.23179 0.0
Eu16 Eu 0.81941 0.40271 0.36522 0.0
O17 O 0.57634 0.18103 0.26863 0.0
O18 O 0.80584 0.38592 0.27145 0.0
Eu19 Eu 0.58066 0.16381 0.36211 0.0
Eu20 Eu 0.75846 0.48444 0.23445 0.0
O21 O 0.51353 0.25411 0.32499 0.0
O22 O 0.60124 0.41132 0.27094 0.0
O23 O 0.73716 0.47137 0.32781 0.0
O24 O 0.66004 0.32153 0.39414 0.0
Eu25 Eu 0.57974 0.40122 0.36461 0.0
O26 O 0.70365 0.0761 0.25619 0.0
O27 O 0.80862 0.2924 0.15038 0.0
O28 O 0.50984 0.29562 0.45131 0.0
O29 O 0.60919 0.56113 0.33907 0.0
O30 O 0.36943 0.28891 0.2552 0.0
O31 O 0.48019 0.18847 0.14748 0.0
O32 O 0.78633 0.46 0.45722 0.0
O33 O 0.95406 0.38268 0.33632 0.0
O34 O 0.91987 0.61226 0.25773 0.0
O35 O 0.70094 0.51095 0.15079 0.0
O36 O 0.67645 0.19426 0.45337 0.0
O37 O 0.42859 0.03011 0.33127 0.0
O38 O 0.6735 0.52065 0.42786 0.0
O39 O 0.41617 0.37327 0.3473 0.0
O40 O 0.88596 0.26237 0.25614 0.0
O41 O 0.58738 0.11628 0.16742 0.0
O42 O 0.87691 0.47008 0.17096 0.0
O43 O 0.72708 0.61632 0.25798 0.0
O44 O 0.60851 0.02909 0.34471 0.0
O45 O 0.43811 0.1488 0.39972 0.0
O46 O 0.37356 0.0985 0.25148 0.0
O47 O 0.52128 0.40151 0.16816 0.0
O48 O 0.82986 0.27432 0.40662 0.0
O49 O 0.95299 0.5688 0.35249 0.0
C50 C 0.28909 0.33239 0.79196 0.0
C51 C 0.09092 0.52312 0.63026 0.0
C52 C 0.51344 0.69326 0.95346 0.0
C53 C 0.33872 0.96837 0.78334 0.0
C54 C 0.29966 0.82704 0.94751 0.0
C55 C 0.02561 0.37223 0.79149 0.0
C56 C 0.65512 0.96606 0.78542 0.0
C57 C 0.47035 0.56499 0.63406 0.0
C58 C 0.43192 0.89047 0.62578 0.0
C59 C 0.03176 0.69634 0.78101 0.0
C60 C 0.62599 0.65647 0.79722 0.0
C61 C 0.17393 0.48685 0.95337 0.0
Eu62 Eu 0.25128 0.50415 0.71889 0.0
O63 O 0.18206 0.59378 0.75377 0.0
O64 O 0.40092 0.58658 0.75736 0.0
Eu65 Eu 0.17427 0.6122 0.84711 0.0
Eu66 Eu 0.49141 0.74399 0.72029 0.0
O67 O 0.23933 0.51897 0.81216 0.0
O68 O 0.33128 0.66313 0.68633 0.0
Eu69 Eu 0.38393 0.56466 0.85103 0.0
Eu70 Eu 0.24833 0.74135 0.7153 0.0
O71 O 0.32962 0.66677 0.87946 0.0
O72 O 0.27296 0.75573 0.80908 0.0
O73 O 0.40644 0.81015 0.75401 0.0
O74 O 0.478 0.72175 0.8138 0.0
Eu75 Eu 0.43033 0.82095 0.84768 0.0
O76 O 0.26086 0.36047 0.74275 0.0
O77 O 0.14234 0.47397 0.64442 0.0
O78 O 0.50071 0.77488 0.93361 0.0
O79 O 0.40117 0.9549 0.82136 0.0
O80 O 0.21921 0.73076 0.93011 0.0
O81 O 0.04233 0.44596 0.83052 0.0
O82 O 0.62997 0.90621 0.73815 0.0
O83 O 0.52251 0.66359 0.65008 0.0
O84 O 0.33184 0.84539 0.6404 0.0
O85 O 0.09232 0.73175 0.73406 0.0
O86 O 0.54935 0.5934 0.83367 0.0
O87 O 0.27012 0.50107 0.9367 0.0
O88 O 0.59688 0.94369 0.8326 0.0
O89 O 0.38242 0.88326 0.91643 0.0
O90 O 0.37195 0.49505 0.65294 0.0
O91 O 0.09036 0.37888 0.74897 0.0
O92 O 0.1173 0.6199 0.64982 0.0
O93 O 0.27189 0.89542 0.74658 0.0
O94 O 0.33559 0.39654 0.83638 0.0
O95 O 0.48951 0.61105 0.92281 0.0
O96 O 0.11606 0.51001 0.92032 0.0
O97 O 0.04997 0.65375 0.82744 0.0
O98 O 0.62075 0.71706 0.75525 0.0
O99 O 0.50189 0.86486 0.64837 0.0
C100 C 0.4177 0.89052 1.03564 0.0
C101 C 0.32216 0.87315 1.00883 0.0
C102 C 0.3335 0.00559 0.07778 0.0
C103 C 0.44116 0.03592 0.09301 0.0
N104 N 0.5908 0.02296 0.0627 0.0
N105 N 0.1969 0.9314 1.00224 0.0
C106 C 0.48482 0.98351 0.06481 0.0
C107 C 0.28229 0.93631 1.02917 0.0
N108 N 0.4454 0.81705 1.03428 0.0
N109 N 0.27719 0.03663 0.11044 0.0
H110 H 0.15666 0.87835 0.9688 0.0
H111 H 0.17079 0.98359 1.01114 0.0
H112 H 0.30401 0.07701 0.14934 0.0
H113 H 0.19784 0.00995 0.10267 0.0
H114 H 0.50794 0.82207 0.05887 0.0
H115 H 0.39907 0.74971 1.0121 0.0
H116 H 0.62381 0.98617 1.03952 0.0
H117 H 0.64505 0.09826 0.07609 0.0
C118 C 0.59529 0.61587 0.55001 0.0
C119 C 0.53567 0.53973 0.59304 0.0
C120 C 0.64131 0.45524 0.57006 0.0
C121 C 0.6993 0.53253 0.5274 0.0
N122 N 0.76352 0.711 0.5025 0.0
N123 N 0.52561 0.40317 0.65473 0.0
C124 C 0.68738 0.62151 0.52701 0.0
C125 C 0.56657 0.46454 0.60676 0.0
N126 N 0.5625 0.68183 0.52953 0.0
N127 N 0.65797 0.37339 0.57515 0.0
H128 H 0.46937 0.40565 0.68075 0.0
H129 H 0.55068 0.35319 0.67041 0.0
H130 H 0.70345 0.36254 0.54501 0.0
H131 H 0.6279 0.31786 0.60799 0.0
H132 H 0.59952 0.73392 0.49532 0.0
H133 H 0.49179 0.67562 0.54234 0.0
H134 H 0.76326 0.78122 0.50473 0.0
H135 H 0.83168 0.7156 0.48612 0.0
C136 C 0.00131 0.34088 0.08588 0.0
C137 C 0.962 0.41138 0.09769 0.0
C138 C 0.10091 0.53723 1.03762 0.0
C139 C 0.12703 0.4638 1.01443 0.0
N140 N 0.08719 0.28599 1.01508 0.0
N141 N 0.9582 0.56339 0.06211 0.0
C142 C 0.07251 0.3622 1.03814 0.0
C143 C 0.00635 0.505 0.06654 0.0
N144 N 0.97612 0.25688 0.12083 0.0
N145 N 0.16882 0.63996 1.03441 0.0
H146 H 0.88218 0.53738 0.07658 0.0
H147 H 0.98867 0.63084 1.03661 0.0
H148 H 0.24099 0.66467 1.0171 0.0
H149 H 0.15703 0.69556 0.05539 0.0
H150 H 0.01018 0.21023 0.11638 0.0
H151 H 0.9315 0.24032 0.15809 0.0
H152 H 0.04131 0.20761 1.02634 0.0
H153 H 0.14192 0.30174 0.98237 0.0
C154 C 0.43333 0.94671 0.52248 0.0
C155 C 0.4613 0.97629 0.58109 0.0
C156 C 0.45541 0.1389 0.55902 0.0
C157 C 0.4385 0.11355 0.49947 0.0
N158 N 0.33329 0.95771 0.44228 0.0
N159 N 0.50426 0.10531 0.65511 0.0
C160 C 0.40615 0.00732 0.48535 0.0
C161 C 0.47386 0.07406 0.59915 0.0
N162 N 0.42804 0.85769 0.50255 0.0
N163 N 0.43355 0.21202 0.57884 0.0
H164 H 0.51899 0.05974 0.68423 0.0
H165 H 0.52027 0.17751 0.67096 0.0
H166 H 0.41463 0.25611 0.55069 0.0
H167 H 0.41856 0.21603 0.62262 0.0
H168 H 0.4158 0.83675 0.45863 0.0
H169 H 0.44626 0.81127 0.52912 0.0
H170 H 0.30129 0.87869 0.43306 0.0
H171 H 0.29214 0.99072 0.42282 0.0
C172 C 0.48853 0.50661 0.06677 0.0
C173 C 0.58477 0.54979 0.09622 0.0
C174 C 0.63887 0.7121 1.0374 0.0
C175 C 0.5354 0.67134 1.01568 0.0
N176 N 0.3572 0.54653 1.04296 0.0
N177 N 0.74591 0.71392 0.1187 0.0
C178 C 0.45905 0.57408 1.04063 0.0
C179 C 0.65931 0.6587 0.08434 0.0
N180 N 0.424 0.40137 0.06211 0.0
N181 N 0.71764 0.8007 1.01333 0.0
H182 H 0.76114 0.68486 0.15653 0.0
H183 H 0.79593 0.79386 0.11361 0.0
H184 H 0.70284 0.84287 0.98161 0.0
H185 H 0.79659 0.82818 1.02299 0.0
H186 H 0.35367 0.36938 1.03842 0.0
H187 H 0.44706 0.34774 0.07434 0.0
H188 H 0.30262 0.48128 0.06625 0.0
H189 H 0.33227 0.59546 1.02769 0.0
C190 C 0.96645 0.36939 0.49475 0.0
C191 C 0.85799 0.30058 0.50766 0.0
C192 C 0.90216 0.37699 0.6071 0.0
C193 C 0.00132 0.46103 0.58751 0.0
N194 N 0.11826 0.54018 0.5071 0.0
N195 N 0.73835 0.21376 0.58506 0.0
C196 C 0.02877 0.459 0.52919 0.0
C197 C 0.82964 0.29734 0.56676 0.0
N198 N 0.01495 0.34074 0.45472 0.0
N199 N 0.87798 0.37346 0.66442 0.0
H200 H 0.69025 0.1534 0.55681 0.0
H201 H 0.71353 0.20008 0.62806 0.0
H202 H 0.93138 0.42588 0.69457 0.0
H203 H 0.80475 0.32271 0.68152 0.0
H204 H 0.09511 0.38419 0.44634 0.0
H205 H 0.97802 0.26551 0.43781 0.0
H206 H 0.1378 0.54434 0.46319 0.0
H207 H 0.16652 0.60694 0.53137 0.0
C208 C 0.6145 0.84435 0.25207 0.0
C209 C 0.65865 0.9134 0.30029 0.0
C210 C 0.72159 0.80188 0.3423 0.0
C211 C 0.66893 0.7286 0.29732 0.0
N212 N 0.55384 0.67172 0.21362 0.0
N213 N 0.74772 0.95476 0.39393 0.0
C214 C 0.61277 0.74781 0.25313 0.0
C215 C 0.70998 0.89111 0.34629 0.0
N216 N 0.57468 0.8708 0.20494 0.0
N217 N 0.78695 0.78866 0.37969 0.0
H218 H 0.74915 0.02559 0.3971 0.0
H219 H 0.77298 0.93475 0.43196 0.0
H220 H 0.79374 0.72185 0.38008 0.0
H221 H 0.84139 0.84775 0.40656 0.0
H222 H 0.55567 0.83082 0.16553 0.0
H223 H 0.56562 0.93607 0.2035 0.0
H224 H 0.50058 0.67522 0.18469 0.0
H225 H 0.55257 0.60088 0.21264 0.0
C226 C 0.91741 0.7616 0.82139 0.0
C227 C 0.93147 0.69635 0.78175 0.0
C228 C 0.74219 0.58807 0.77031 0.0
C229 C 0.72787 0.66044 0.80228 0.0
N230 N 0.79766 0.81232 0.86309 0.0
N231 N 0.85773 0.56201 0.70857 0.0
C232 C 0.81459 0.74654 0.82942 0.0
C233 C 0.84405 0.61397 0.75327 0.0
N234 N 0.0023 0.83733 0.85089 0.0
N235 N 0.65904 0.49196 0.75878 0.0
H236 H 0.9316 0.58225 0.69291 0.0
H237 H 0.79546 0.5074 0.68317 0.0
H238 H 0.58291 0.46964 0.77171 0.0
H239 H 0.66912 0.43149 0.74346 0.0
H240 H -0.00237 0.88239 0.88396 0.0
H241 H 0.07874 0.85354 0.84301 0.0
H242 H 0.85698 0.88082 0.88139 0.0
H243 H 0.72242 0.79913 0.87154 0.0
C244 C 0.26419 0.82987 0.28832 0.0
C245 C 0.2613 0.92418 0.28915 0.0
C246 C 0.07132 0.82586 0.30091 0.0
C247 C 0.0759 0.73246 0.30644 0.0
N248 N 0.17946 0.64755 0.31472 0.0
N249 N 0.16495 0.01341 0.30825 0.0
C250 C 0.17332 0.73511 0.3034 0.0
C251 C 0.16563 0.92283 0.29836 0.0
N252 N 0.35293 0.8306 0.27073 0.0
N253 N 0.9768 0.82222 0.29783 0.0
H254 H 0.23231 0.08646 0.30819 0.0
H255 H 0.09874 0.01548 0.32184 0.0
H256 H 0.90586 0.75379 0.30355 0.0
H257 H 0.96848 0.88583 0.28596 0.0
H258 H 0.35692 0.76331 0.2635 0.0
H259 H 0.41949 0.89866 0.25745 0.0
H260 H 0.25024 0.64803 0.31924 0.0
H261 H 0.11442 0.57567 0.32432 0.0
C262 C 0.24191 0.15854 0.74709 0.0
C263 C 0.27901 0.22633 0.79537 0.0
C264 C 0.36365 0.13249 0.83509 0.0
C265 C 0.33351 0.0679 0.78442 0.0
N266 N 0.27041 0.04758 0.68379 0.0
N267 N 0.31405 0.22956 0.89839 0.0
C268 C 0.27945 0.08835 0.73818 0.0
C269 C 0.32166 0.19917 0.8435 0.0
N270 N 0.16345 0.15398 0.71248 0.0
N271 N 0.43858 0.13852 0.8732 0.0
H272 H 0.26989 0.26524 0.90713 0.0
H273 H 0.33606 0.20407 0.93567 0.0
H274 H 0.48815 0.10936 0.86465 0.0
H275 H 0.46534 0.1896 0.90845 0.0
H276 H 0.12544 0.09776 0.68034 0.0
H277 H 0.12462 0.19466 0.72191 0.0
H278 H 0.23996 0.06787 0.648 0.0
H279 H 0.30673 0.00614 0.67158 0.0
C280 C 0.23788 0.39533 0.25934 0.0
C281 C 0.25317 0.3321 0.30083 0.0
C282 C 0.06928 0.24788 0.32766 0.0
C283 C 0.05807 0.32096 0.29286 0.0
N284 N 0.12942 0.46701 0.2266 0.0
N285 N 0.18841 0.20918 0.38081 0.0
C286 C 0.14173 0.39557 0.25879 0.0
C287 C 0.17049 0.26186 0.33711 0.0
N288 N 0.31457 0.45383 0.22016 0.0
N289 N 0.98272 0.16286 0.34966 0.0
H290 H 0.2611 0.21481 0.38829 0.0
H291 H 0.13273 0.16553 0.4122 0.0
H292 H 0.90693 0.14997 0.34289 0.0
H293 H 0.98546 0.10123 0.37025 0.0
H294 H 0.30377 0.49202 0.18474 0.0
H295 H 0.38767 0.45883 0.22077 0.0
H296 H 0.19065 0.53034 0.20559 0.0
H297 H 0.05857 0.46695 0.22398 0.0
C298 C 0.9383 0.17946 0.8007 0.0
C299 C 0.92869 0.26986 0.79692 0.0
C300 C 0.73803 0.16046 0.78815 0.0
C301 C 0.74992 0.07075 0.78501 0.0
N302 N 0.86301 -0.0031 0.77803 0.0
N303 N 0.8187 0.34807 0.79914 0.0
C304 C 0.85055 0.0808 0.78813 0.0
C305 C 0.8282 0.26102 0.79455 0.0
N306 N 0.02946 0.1874 0.82132 0.0
N307 N 0.64069 0.14953 0.7811 0.0
H308 H 0.88197 0.42372 0.79831 0.0
H309 H 0.74829 0.34658 0.80595 0.0
H310 H 0.57342 0.07737 0.77629 0.0
H311 H 0.62571 0.2108 0.77623 0.0
H312 H 0.03816 0.12307 0.83061 0.0
H313 H 0.09187 0.25794 0.83592 0.0
H314 H 0.93624 0.0027 0.77416 0.0
H315 H 0.80044 0.92321 0.76827 0.0
loop_
_geom_bond_atom_site_label_1
_geom_bond_atom_site_label_2
_geom_bond_distance
_geom_bond_site_symmetry_2
_ccdc_geom_bond_type
C0 O26 1.283 . S
C0 O44 1.283 . S
C1 O27 1.283 . S
C1 O42 1.283 . S
C2 O28 1.283 . S
C2 O45 1.283 . S
C3 O29 1.283 . S
C3 O43 1.283 . S
C4 O30 1.283 . S
C4 O39 1.283 . S
C5 O31 1.283 . S
C5 O41 1.283 . S
C6 O32 1.283 . S
C6 O38 1.283 . S
C7 O33 1.283 1_455 S
C7 O40 1.283 1_455 S
C8 O34 1.283 . S
C8 O49 1.283 . S
C9 O35 1.283 . S
C9 O47 1.283 . S
C10 O36 1.283 . S
C10 O48 1.283 . S
C11 O37 1.283 1_565 S
C11 O46 1.283 1_565 S
Eu12 O13 2.370 . S
Eu12 O14 2.370 . S
Eu12 O17 2.370 . S
Eu12 O18 2.370 . S
Eu12 O26 2.363 . S
Eu12 O27 2.363 . S
Eu12 O40 2.363 . S
Eu12 O41 2.363 . S
O13 Eu12 2.370 . S
O13 Eu15 2.370 . S
O13 Eu20 2.370 . S
O14 Eu12 2.370 . S
O14 Eu16 2.370 . S
O14 Eu19 2.370 . S
Eu15 O13 2.370 . S
Eu15 O17 2.370 . S
Eu15 O21 2.370 . S
Eu15 O22 2.370 . S
Eu15 O30 2.363 . S
Eu15 O31 2.363 . S
Eu15 O46 2.363 . S
Eu15 O47 2.363 . S
Eu16 O14 2.370 . S
Eu16 O18 2.370 . S
Eu16 O23 2.370 . S
Eu16 O24 2.370 . S
Eu16 O32 2.363 . S
Eu16 O33 2.363 . S
Eu16 O48 2.363 . S
Eu16 O49 2.363 . S
O17 Eu12 2.370 . S
O17 Eu15 2.370 . S
O17 Eu19 2.370 . S
O18 Eu12 2.370 . S
O18 Eu16 2.370 . S
O18 Eu20 2.370 . S
Eu19 O14 2.370 . S
Eu19 O17 2.370 . S
Eu19 O21 2.370 . S
Eu19 O24 2.370 . S
Eu19 O36 2.363 . S
Eu19 O37 2.363 . S
Eu19 O44 2.363 . S
Eu19 O45 2.363 . S
Eu20 O13 2.370 . S
Eu20 O18 2.370 . S
Eu20 O22 2.370 . S
Eu20 O23 2.370 . S
Eu20 O34 2.363 . S
Eu20 O35 2.363 . S
Eu20 O42 2.363 . S
Eu20 O43 2.363 . S
O21 Eu15 2.370 . S
O21 Eu19 2.370 . S
O21 Eu25 2.370 . S
O22 Eu15 2.370 . S
O22 Eu20 2.370 . S
O22 Eu25 2.370 . S
O23 Eu16 2.370 . S
O23 Eu20 2.370 . S
O23 Eu25 2.370 . S
O24 Eu16 2.370 . S
O24 Eu19 2.370 . S
O24 Eu25 2.370 . S
Eu25 O21 2.370 . S
Eu25 O22 2.370 . S
Eu25 O23 2.370 . S
Eu25 O24 2.370 . S
Eu25 O28 2.363 . S
Eu25 O29 2.363 . S
Eu25 O38 2.363 . S
Eu25 O39 2.363 . S
O26 C0 1.283 . S
O26 Eu12 2.363 . S
O27 C1 1.283 . S
O27 Eu12 2.363 . S
O28 C2 1.283 . S
O28 Eu25 2.363 . S
O29 C3 1.283 . S
O29 Eu25 2.363 . S
O30 C4 1.283 . S
O30 Eu15 2.363 . S
O31 C5 1.283 . S
O31 Eu15 2.363 . S
O32 C6 1.283 . S
O32 Eu16 2.363 . S
O33 C7 1.283 1_655 S
O33 Eu16 2.363 . S
O34 C8 1.283 . S
O34 Eu20 2.363 . S
O35 C9 1.283 . S
O35 Eu20 2.363 . S
O36 C10 1.283 . S
O36 Eu19 2.363 . S
O37 C11 1.283 1_545 S
O37 Eu19 2.363 . S
O38 C6 1.283 . S
O38 Eu25 2.363 . S
O39 C4 1.283 . S
O39 Eu25 2.363 . S
O40 C7 1.283 1_655 S
O40 Eu12 2.363 . S
O41 C5 1.283 . S
O41 Eu12 2.363 . S
O42 C1 1.283 . S
O42 Eu20 2.363 . S
O43 C3 1.283 . S
O43 Eu20 2.363 . S
O44 C0 1.283 . S
O44 Eu19 2.363 . S
O45 C2 1.283 . S
O45 Eu19 2.363 . S
O46 C11 1.283 1_545 S
O46 Eu15 2.363 . S
O47 C9 1.283 . S
O47 Eu15 2.363 . S
O48 C10 1.283 . S
O48 Eu16 2.363 . S
O49 C8 1.283 . S
O49 Eu16 2.363 . S
C50 O76 1.283 . S
C50 O94 1.283 . S
C51 O77 1.283 . S
C51 O92 1.283 . S
C52 O78 1.283 . S
C52 O95 1.283 . S
C53 O79 1.283 1_545 S
C53 O93 1.283 1_545 S
C54 O80 1.283 . S
C54 O89 1.283 . S
C55 O81 1.283 1_655 S
C55 O91 1.283 1_655 S
C56 O82 1.283 . S
C56 O88 1.283 . S
C57 O83 1.283 . S
C57 O90 1.283 . S
C58 O84 1.283 . S
C58 O99 1.283 . S
C59 O85 1.283 . S
C59 O97 1.283 . S
C60 O86 1.283 . S
C60 O98 1.283 . S
C61 O87 1.283 . S
C61 O96 1.283 . S
Eu62 O63 2.370 . S
Eu62 O64 2.370 . S
Eu62 O67 2.370 . S
Eu62 O68 2.370 . S
Eu62 O76 2.363 . S
Eu62 O77 2.363 . S
Eu62 O90 2.363 . S
Eu62 O91 2.363 . S
O63 Eu62 2.370 . S
O63 Eu65 2.370 . S
O63 Eu70 2.370 . S
O64 Eu62 2.370 . S
O64 Eu66 2.370 . S
O64 Eu69 2.370 . S
Eu65 O63 2.370 . S
Eu65 O67 2.370 . S
Eu65 O71 2.370 . S
Eu65 O72 2.370 . S
Eu65 O80 2.363 . S
Eu65 O81 2.363 . S
Eu65 O96 2.363 . S
Eu65 O97 2.363 . S
Eu66 O64 2.370 . S
Eu66 O68 2.370 . S
Eu66 O73 2.370 . S
Eu66 O74 2.370 . S
Eu66 O82 2.363 . S
Eu66 O83 2.363 . S
Eu66 O98 2.363 . S
Eu66 O99 2.363 . S
O67 Eu62 2.370 . S
O67 Eu65 2.370 . S
O67 Eu69 2.370 . S
O68 Eu62 2.370 . S
O68 Eu66 2.370 . S
O68 Eu70 2.370 . S
Eu69 O64 2.370 . S
Eu69 O67 2.370 . S
Eu69 O71 2.370 . S
Eu69 O74 2.370 . S
Eu69 O86 2.363 . S
Eu69 O87 2.363 . S
Eu69 O94 2.363 . S
Eu69 O95 2.363 . S
Eu70 O63 2.370 . S
Eu70 O68 2.370 . S
Eu70 O72 2.370 . S
Eu70 O73 2.370 . S
Eu70 O84 2.363 . S
Eu70 O85 2.363 . S
Eu70 O92 2.363 . S
Eu70 O93 2.363 . S
O71 Eu65 2.370 . S
O71 Eu69 2.370 . S
O71 Eu75 2.370 . S
O72 Eu65 2.370 . S
O72 Eu70 2.370 . S
O72 Eu75 2.370 . S
O73 Eu66 2.370 . S
O73 Eu70 2.370 . S
O73 Eu75 2.370 . S
O74 Eu66 2.370 . S
O74 Eu69 2.370 . S
O74 Eu75 2.370 . S
Eu75 O71 2.370 . S
Eu75 O72 2.370 . S
Eu75 O73 2.370 . S
Eu75 O74 2.370 . S
Eu75 O78 2.363 . S
Eu75 O79 2.363 . S
Eu75 O88 2.363 . S
Eu75 O89 2.363 . S
O76 C50 1.283 . S
O76 Eu62 2.363 . S
O77 C51 1.283 . S
O77 Eu62 2.363 . S
O78 C52 1.283 . S
O78 Eu75 2.363 . S
O79 C53 1.283 1_565 S
O79 Eu75 2.363 . S
O80 C54 1.283 . S
O80 Eu65 2.363 . S
O81 C55 1.283 1_455 S
O81 Eu65 2.363 . S
O82 C56 1.283 . S
O82 Eu66 2.363 . S
O83 C57 1.283 . S
O83 Eu66 2.363 . S
O84 C58 1.283 . S
O84 Eu70 2.363 . S
O85 C59 1.283 . S
O85 Eu70 2.363 . S
O86 C60 1.283 . S
O86 Eu69 2.363 . S
O87 C61 1.283 . S
O87 Eu69 2.363 . S
O88 C56 1.283 . S
O88 Eu75 2.363 . S
O89 C54 1.283 . S
O89 Eu75 2.363 . S
O90 C57 1.283 . S
O90 Eu62 2.363 . S
O91 C55 1.283 1_455 S
O91 Eu62 2.363 . S
O92 C51 1.283 . S
O92 Eu70 2.363 . S
O93 C53 1.283 1_565 S
O93 Eu70 2.363 . S
O94 C50 1.283 . S
O94 Eu69 2.363 . S
O95 C52 1.283 . S
O95 Eu69 2.363 . S
O96 C61 1.283 . S
O96 Eu65 2.363 . S
O97 C59 1.283 . S
O97 Eu65 2.363 . S
O98 C60 1.283 . S
O98 Eu66 2.363 . S
O99 C58 1.283 . S
O99 Eu66 2.363 . S
C100 C101 1.363 . S
C100 C106 1.379 . S
C100 N108 1.356 . S
C101 C100 1.363 . S
C101 C107 1.363 1_556 S
C102 C103 1.363 1_565 S
C102 C107 1.379 . S
C102 N109 1.356 1_565 S
C103 C102 1.363 1_545 S
C103 C106 1.363 1_544 S
N104 C106 1.356 1_545 S
N104 H116 0.984 . S
N104 H117 0.985 1_556 S
N105 C107 1.356 . S
N105 H110 0.984 1_554 S
N105 H111 0.985 . S
C106 C100 1.379 . S
C106 C103 1.363 1_566 S
C106 N104 1.356 1_565 S
C107 C101 1.363 1_554 S
C107 C102 1.379 . S
C107 N105 1.356 . S
N108 C100 1.356 . S
N108 H114 0.984 . S
N108 H115 0.984 . S
N109 C102 1.356 1_545 S
N109 H112 0.984 . S
N109 H113 0.985 . S
H110 N105 0.984 1_556 S
H111 N105 0.985 . S
H112 N109 0.984 . S
H113 N109 0.985 . S
H114 N108 0.984 . S
H115 N108 0.984 . S
H116 N104 0.984 . S
H117 N104 0.985 1_554 S
C118 C119 1.363 . S
C118 C124 1.379 . S
C118 N126 1.356 . S
C119 C118 1.363 . S
C119 C125 1.363 . S
C120 C121 1.363 . S
C120 C125 1.379 . S
C120 N127 1.356 . S
C121 C120 1.363 . S
C121 C124 1.363 . S
N122 C124 1.356 . S
N122 H134 0.984 . S
N122 H135 0.985 . S
N123 C125 1.356 . S
N123 H128 0.984 . S
N123 H129 0.985 . S
C124 C118 1.379 . S
C124 C121 1.363 . S
C124 N122 1.356 . S
C125 C119 1.363 . S
C125 C120 1.379 . S
C125 N123 1.356 . S
N126 C118 1.356 . S
N126 H132 0.984 . S
N126 H133 0.984 . S
N127 C120 1.356 . S
N127 H130 0.984 . S
N127 H131 0.985 . S
H128 N123 0.984 . S
H129 N123 0.985 . S
H130 N127 0.984 . S
H131 N127 0.985 . S
H132 N126 0.984 . S
H133 N126 0.984 . S
H134 N122 0.984 . S
H135 N122 0.985 . S
C136 C137 1.363 1_455 S
C136 C142 1.379 . S
C136 N144 1.356 1_455 S
C137 C136 1.363 1_655 S
C137 C143 1.363 1_654 S
C138 C139 1.363 . S
C138 C143 1.379 . S
C138 N145 1.356 . S
C139 C138 1.363 . S
C139 C142 1.363 1_556 S
N140 C142 1.356 . S
N140 H152 0.984 . S
N140 H153 0.985 1_554 S
N141 C143 1.356 1_655 S
N141 H146 0.984 1_556 S
N141 H147 0.985 . S
C142 C136 1.379 . S
C142 C139 1.363 1_554 S
C142 N140 1.356 . S
C143 C137 1.363 1_456 S
C143 C138 1.379 . S
C143 N141 1.356 1_455 S
N144 C136 1.356 1_655 S
N144 H150 0.984 . S
N144 H151 0.984 . S
N145 C138 1.356 . S
N145 H148 0.984 . S
N145 H149 0.985 . S
H146 N141 0.984 1_554 S
H147 N141 0.985 . S
H148 N145 0.984 . S
H149 N145 0.985 . S
H150 N144 0.984 . S
H151 N144 0.984 . S
H152 N140 0.984 . S
H153 N140 0.985 1_556 S
C154 C155 1.363 1_545 S
C154 C160 1.379 . S
C154 N162 1.356 1_545 S
C155 C154 1.363 1_565 S
C155 C161 1.363 1_565 S
C156 C157 1.363 . S
C156 C161 1.379 . S
C156 N163 1.356 . S
C157 C156 1.363 . S
C157 C160 1.363 . S
N158 C160 1.356 . S
N158 H170 0.984 . S
N158 H171 0.985 . S
N159 C161 1.356 1_565 S
N159 H164 0.984 . S
N159 H165 0.985 . S
C160 C154 1.379 . S
C160 C157 1.363 . S
C160 N158 1.356 . S
C161 C155 1.363 1_545 S
C161 C156 1.379 . S
C161 N159 1.356 1_545 S
N162 C154 1.356 1_565 S
N162 H168 0.984 . S
N162 H169 0.984 . S
N163 C156 1.356 . S
N163 H166 0.984 . S
N163 H167 0.985 . S
H164 N159 0.984 . S
H165 N159 0.985 . S
H166 N163 0.984 . S
H167 N163 0.985 . S
H168 N162 0.984 . S
H169 N162 0.984 . S
H170 N158 0.984 . S
H171 N158 0.985 . S
C172 C173 1.363 1_556 S
C172 C178 1.379 . S
C172 N180 1.356 . S
C173 C172 1.363 1_554 S
C173 C179 1.363 . S
C174 C175 1.363 1_554 S
C174 C179 1.379 . S
C174 N181 1.356 . S
C175 C174 1.363 1_556 S
C175 C178 1.363 . S
N176 C178 1.356 . S
N176 H188 0.984 . S
N176 H189 0.985 . S
N177 C179 1.356 . S
N177 H182 0.984 . S
N177 H183 0.985 . S
C178 C172 1.379 . S
C178 C175 1.363 . S
C178 N176 1.356 . S
C179 C173 1.363 . S
C179 C174 1.379 . S
C179 N177 1.356 . S
N180 C172 1.356 . S
N180 H186 0.984 . S
N180 H187 0.984 1_556 S
N181 C174 1.356 . S
N181 H184 0.984 1_554 S
N181 H185 0.985 . S
H182 N177 0.984 . S
H183 N177 0.985 . S
H184 N181 0.984 1_556 S
H185 N181 0.985 . S
H186 N180 0.984 . S
H187 N180 0.984 1_554 S
H188 N176 0.984 . S
H189 N176 0.985 . S
C190 C191 1.363 . S
C190 C196 1.379 1_655 S
C190 N198 1.356 . S
C191 C190 1.363 . S
C191 C197 1.363 . S
C192 C193 1.363 1_655 S
C192 C197 1.379 . S
C192 N199 1.356 . S
C193 C192 1.363 1_455 S
C193 C196 1.363 . S
N194 C196 1.356 . S
N194 H206 0.984 . S
N194 H207 0.985 . S
N195 C197 1.356 . S
N195 H200 0.984 . S
N195 H201 0.985 . S
C196 C190 1.379 1_455 S
C196 C193 1.363 . S
C196 N194 1.356 . S
C197 C191 1.363 . S
C197 C192 1.379 . S
C197 N195 1.356 . S
N198 C190 1.356 . S
N198 H204 0.984 . S
N198 H205 0.984 . S
N199 C192 1.356 . S
N199 H202 0.984 1_655 S
N199 H203 0.985 . S
H200 N195 0.984 . S
H201 N195 0.985 . S
H202 N199 0.984 1_455 S
H203 N199 0.985 . S
H204 N198 0.984 . S
H205 N198 0.984 . S
H206 N194 0.984 . S
H207 N194 0.985 . S
C208 C209 1.363 . S
C208 C214 1.379 . S
C208 N216 1.356 . S
C209 C208 1.363 . S
C209 C215 1.363 . S
C210 C211 1.363 . S
C210 C215 1.379 . S
C210 N217 1.356 . S
C211 C210 1.363 . S
C211 C214 1.363 . S
N212 C214 1.356 . S
N212 H224 0.984 . S
N212 H225 0.985 . S
N213 C215 1.356 . S
N213 H218 0.984 1_565 S
N213 H219 0.985 . S
C214 C208 1.379 . S
C214 C211 1.363 . S
C214 N212 1.356 . S
C215 C209 1.363 . S
C215 C210 1.379 . S
C215 N213 1.356 . S
N216 C208 1.356 . S
N216 H222 0.984 . S
N216 H223 0.984 1_565 S
N217 C210 1.356 . S
N217 H220 0.984 . S
N217 H221 0.985 . S
H218 N213 0.984 1_545 S
H219 N213 0.985 . S
H220 N217 0.984 . S
H221 N217 0.985 . S
H222 N216 0.984 . S
H223 N216 0.984 1_545 S
H224 N212 0.984 . S
H225 N212 0.985 . S
C226 C227 1.363 . S
C226 C232 1.379 . S
C226 N234 1.356 . S
C227 C226 1.363 . S
C227 C233 1.363 . S
C228 C229 1.363 . S
C228 C233 1.379 . S
C228 N235 1.356 . S
C229 C228 1.363 . S
C229 C232 1.363 . S
N230 C232 1.356 . S
N230 H242 0.984 . S
N230 H243 0.985 . S
N231 C233 1.356 . S
N231 H236 0.984 1_655 S
N231 H237 0.985 . S
C232 C226 1.379 . S
C232 C229 1.363 . S
C232 N230 1.356 . S
C233 C227 1.363 . S
C233 C228 1.379 . S
C233 N231 1.356 . S
N234 C226 1.356 . S
N234 H240 0.984 . S
N234 H241 0.984 1_655 S
N235 C228 1.356 . S
N235 H238 0.984 . S
N235 H239 0.985 . S
H236 N231 0.984 1_455 S
H237 N231 0.985 . S
H238 N235 0.984 . S
H239 N235 0.985 . S
H240 N234 0.984 . S
H241 N234 0.984 1_455 S
H242 N230 0.984 . S
H243 N230 0.985 . S
C244 C245 1.363 . S
C244 C250 1.379 . S
C244 N252 1.356 . S
C245 C244 1.363 . S
C245 C251 1.363 . S
C246 C247 1.363 . S
C246 C251 1.379 . S
C246 N253 1.356 . S
C247 C246 1.363 . S
C247 C250 1.363 . S
N248 C250 1.356 . S
N248 H260 0.984 . S
N248 H261 0.985 1_455 S
N249 C251 1.356 . S
N249 H254 0.984 1_565 S
N249 H255 0.985 1_565 S
C250 C244 1.379 . S
C250 C247 1.363 . S
C250 N248 1.356 . S
C251 C245 1.363 . S
C251 C246 1.379 . S
C251 N249 1.356 . S
N252 C244 1.356 . S
N252 H258 0.984 . S
N252 H259 0.984 . S
N253 C246 1.356 . S
N253 H256 0.984 1_455 S
N253 H257 0.985 . S
H254 N249 0.984 1_545 S
H255 N249 0.985 1_545 S
H256 N253 0.984 1_655 S
H257 N253 0.985 . S
H258 N252 0.984 . S
H259 N252 0.984 . S
H260 N248 0.984 . S
H261 N248 0.985 1_655 S
C262 C263 1.363 . S
C262 C268 1.379 . S
C262 N270 1.356 . S
C263 C262 1.363 . S
C263 C269 1.363 . S
C264 C265 1.363 . S
C264 C269 1.379 . S
C264 N271 1.356 . S
C265 C264 1.363 . S
C265 C268 1.363 . S
N266 C268 1.356 . S
N266 H278 0.984 1_545 S
N266 H279 0.985 1_545 S
N267 C269 1.356 . S
N267 H272 0.984 . S
N267 H273 0.985 . S
C268 C262 1.379 . S
C268 C265 1.363 . S
C268 N266 1.356 . S
C269 C263 1.363 . S
C269 C264 1.379 . S
C269 N267 1.356 . S
N270 C262 1.356 . S
N270 H276 0.984 . S
N270 H277 0.984 . S
N271 C264 1.356 . S
N271 H274 0.984 . S
N271 H275 0.985 . S
H272 N267 0.984 . S
H273 N267 0.985 . S
H274 N271 0.984 . S
H275 N271 0.985 . S
H276 N270 0.984 . S
H277 N270 0.984 . S
H278 N266 0.984 1_565 S
H279 N266 0.985 1_565 S
C280 C281 1.363 . S
C280 C286 1.379 . S
C280 N288 1.356 . S
C281 C280 1.363 . S
C281 C287 1.363 . S
C282 C283 1.363 . S
C282 C287 1.379 . S
C282 N289 1.356 . S
C283 C282 1.363 . S
C283 C286 1.363 . S
N284 C286 1.356 . S
N284 H296 0.984 . S
N284 H297 0.985 . S
N285 C287 1.356 . S
N285 H290 0.984 . S
N285 H291 0.985 . S
C286 C280 1.379 . S
C286 C283 1.363 . S
C286 N284 1.356 . S
C287 C281 1.363 . S
C287 C282 1.379 . S
C287 N285 1.356 . S
N288 C280 1.356 . S
N288 H294 0.984 . S
N288 H295 0.984 . S
N289 C282 1.356 . S
N289 H292 0.984 1_455 S
N289 H293 0.985 1_455 S
H290 N285 0.984 . S
H291 N285 0.985 . S
H292 N289 0.984 1_655 S
H293 N289 0.985 1_655 S
H294 N288 0.984 . S
H295 N288 0.984 . S
H296 N284 0.984 . S
H297 N284 0.985 . S
C298 C299 1.363 . S
C298 C304 1.379 . S
C298 N306 1.356 . S
C299 C298 1.363 . S
C299 C305 1.363 . S
C300 C301 1.363 . S
C300 C305 1.379 . S
C300 N307 1.356 . S
C301 C300 1.363 . S
C301 C304 1.363 . S
N302 C304 1.356 . S
N302 H314 0.984 . S
N302 H315 0.985 1_545 S
N303 C305 1.356 . S
N303 H308 0.984 . S
N303 H309 0.985 . S
C304 C298 1.379 . S
C304 C301 1.363 . S
C304 N302 1.356 . S
C305 C299 1.363 . S
C305 C300 1.379 . S
C305 N303 1.356 . S
N306 C298 1.356 . S
N306 H312 0.984 1_655 S
N306 H313 0.984 1_655 S
N307 C300 1.356 . S
N307 H310 0.984 1_545 S
N307 H311 0.985 . S
H308 N303 0.984 . S
H309 N303 0.985 . S
H310 N307 0.984 1_565 S
H311 N307 0.985 . S
H312 N306 0.984 1_455 S
H313 N306 0.984 1_455 S
H314 N302 0.984 . S
H315 N302 0.985 1_565 S
C101 C54 1.926 . S
C103 C5 2.110 . S
C119 C57 2.110 . S
C121 C6 1.926 . S
C137 C1 2.110 . S
C139 C61 1.926 . S
C155 C58 2.110 . S
C157 C2 1.926 . S
C173 C9 2.110 . S
C175 C52 1.926 . S
C191 C10 1.926 . S
C193 C51 2.110 . S
C209 C0 1.249 1_565 S
C211 C3 1.249 . S
C227 C59 1.249 1_655 S
C229 C60 1.249 . S
C245 C11 1.249 . S
C247 C8 1.249 1_455 S
C263 C50 1.249 . S
C265 C53 1.249 . S
C281 C4 1.249 . S
C283 C7 1.249 . S
C299 C55 1.249 . S
C301 C56 1.249 1_545 S
