# Generated by pormake.
# Topology vby, (6)-cn, num edge types: 1
# Building blocks:
#     Node 0, Type 0, BuildingBlock: CUKXOW_clean_sbu_0, # of connection points: 6
#     Node 1, Type 0, BuildingBlock: CUKXOW_clean_sbu_0, # of connection points: 6
#     Node 2, Type 0, BuildingBlock: CUKXOW_clean_sbu_0, # of connection points: 6
#     Node 3, Type 0, BuildingBlock: CUKXOW_clean_sbu_0, # of connection points: 6
#     Node 4, Type 0, BuildingBlock: CUKXOW_clean_sbu_0, # of connection points: 6
#     Node 5, Type 0, BuildingBlock: CUKXOW_clean_sbu_0, # of connection points: 6
#     Node 6, Type 0, BuildingBlock: CUKXOW_clean_sbu_0, # of connection points: 6
#     Node 7, Type 0, BuildingBlock: CUKXOW_clean_sbu_0, # of connection points: 6
#     Edge 8, Type (0, 0), BuildingBlock: CIFDUS_clean_linker_0, # of connection points: 2
#     Edge 9, Type (0, 0), BuildingBlock: CIFDUS_clean_linker_0, # of connection points: 2
#     Edge 10, Type (0, 0), BuildingBlock: CIFDUS_clean_linker_0, # of connection points: 2
#     Edge 11, Type (0, 0), BuildingBlock: CIFDUS_clean_linker_0, # of connection points: 2
#     Edge 12, Type (0, 0), BuildingBlock: CIFDUS_clean_linker_0, # of connection points: 2
#     Edge 13, Type (0, 0), BuildingBlock: CIFDUS_clean_linker_0, # of connection points: 2
#     Edge 14, Type (0, 0), BuildingBlock: CIFDUS_clean_linker_0, # of connection points: 2
#     Edge 15, Type (0, 0), BuildingBlock: CIFDUS_clean_linker_0, # of connection points: 2
#     Edge 16, Type (0, 0), BuildingBlock: CIFDUS_clean_linker_0, # of connection points: 2
#     Edge 17, Type (0, 0), BuildingBlock: CIFDUS_clean_linker_0, # of connection points: 2
#     Edge 18, Type (0, 0), BuildingBlock: CIFDUS_clean_linker_0, # of connection points: 2
#     Edge 19, Type (0, 0), BuildingBlock: CIFDUS_clean_linker_0, # of connection points: 2
#     Edge 20, Type (0, 0), BuildingBlock: CIFDUS_clean_linker_0, # of connection points: 2
#     Edge 21, Type (0, 0), BuildingBlock: CIFDUS_clean_linker_0, # of connection points: 2
#     Edge 22, Type (0, 0), BuildingBlock: CIFDUS_clean_linker_0, # of connection points: 2
#     Edge 23, Type (0, 0), BuildingBlock: CIFDUS_clean_linker_0, # of connection points: 2
#     Edge 24, Type (0, 0), BuildingBlock: CIFDUS_clean_linker_0, # of connection points: 2
#     Edge 25, Type (0, 0), BuildingBlock: CIFDUS_clean_linker_0, # of connection points: 2
#     Edge 26, Type (0, 0), BuildingBlock: CIFDUS_clean_linker_0, # of connection points: 2
#     Edge 27, Type (0, 0), BuildingBlock: CIFDUS_clean_linker_0, # of connection points: 2
#     Edge 28, Type (0, 0), BuildingBlock: CIFDUS_clean_linker_0, # of connection points: 2
#     Edge 29, Type (0, 0), BuildingBlock: CIFDUS_clean_linker_0, # of connection points: 2
#     Edge 30, Type (0, 0), BuildingBlock: CIFDUS_clean_linker_0, # of connection points: 2
#     Edge 31, Type (0, 0), BuildingBlock: CIFDUS_clean_linker_0, # of connection points: 2
# Relax obj value: 0.104
# Max RMSD: 0.176
# Mean RMSD: 0.176
data_MOF--net-vby--node1-CUKXOW_clean_sbu_0--edge1-CIFDUS_clean_linker_0
_symmetry_space_group_name_H-M    P1
_symmetry_Int_Tables_number       1
_symmetry_cell_setting            triclinic
loop_
_symmetry_equiv_pos_as_xyz
'x, y, z'
_cell_length_a     16.185109
_cell_length_b     46.32903
_cell_length_c     26.351136
_cell_angle_alpha  103.99175
_cell_angle_beta   89.823565
_cell_angle_gamma 90.186655
loop_
_atom_site_label
_atom_site_type_symbol
_atom_site_fract_x
_atom_site_fract_y
_atom_site_fract_z
_atom_type_partial_charge
Tb0 Tb 1.00595 0.38788 0.00843 0.0
C1 C 0.09776 0.39881 0.11333 0.0
Tb2 Tb 0.19577 0.40041 0.00809 0.0
O3 O 0.02897 0.34375 0.02545 0.0
O4 O 0.11641 0.36376 0.98839 0.0
O5 O 0.02876 0.40367 0.09044 0.0
C6 C 0.35678 0.3916 0.99831 0.0
O7 O 0.16931 0.39372 0.08736 0.0
C8 C 0.11439 0.45053 0.01931 0.0
C9 C 0.08888 0.39589 0.90423 0.0
O10 O 0.32061 0.40926 0.03781 0.0
O11 O 0.30236 0.37857 0.96436 0.0
O12 O 0.19443 0.44871 0.0176 0.0
O13 O 0.08656 0.42467 0.01624 0.0
O14 O 0.16418 0.3964 0.92525 0.0
O15 O 0.01968 0.39469 0.93068 0.0
C16 C 0.84394 0.39271 0.01215 0.0
O17 O 0.88401 0.3721 0.97895 0.0
O18 O 0.89493 0.41039 0.04258 0.0
C19 C 0.10484 0.3423 0.00878 0.0
Tb20 Tb 0.85808 0.65759 0.02305 0.0
C21 C 0.97041 0.66986 0.12692 0.0
Tb22 Tb 0.04177 0.67531 0.01899 0.0
O23 O 0.86515 0.60937 0.0022 0.0
O24 O 0.97155 0.63524 0.007 0.0
O25 O 0.8951 0.66408 0.10607 0.0
C26 C 0.20624 0.68035 0.02158 0.0
O27 O 0.03557 0.67536 0.10039 0.0
C28 C 0.92841 0.71765 0.02772 0.0
C29 C 0.95163 0.65581 0.91504 0.0
O30 O 0.16354 0.66114 0.03927 0.0
O31 O 0.15632 0.69687 0.00254 0.0
O32 O 0.9971 0.71731 0.00207 0.0
O33 O 0.92898 0.69613 0.04854 0.0
O34 O 0.02146 0.65308 0.93898 0.0
O35 O 0.88011 0.66128 0.94128 0.0
C36 C 0.69446 0.66271 0.03296 0.0
O37 O 0.74013 0.67631 0.00531 0.0
O38 O 0.74092 0.64639 0.05469 0.0
C39 C 0.94525 0.60872 0.99973 0.0
Tb40 Tb 0.986 0.66331 0.51871 0.0
C41 C 0.05869 0.64126 0.40645 0.0
Tb42 Tb 0.16383 0.64461 0.50904 0.0
O43 O 0.02803 0.71075 0.54373 0.0
O44 O 0.09741 0.67964 0.49324 0.0
O45 O 0.99133 0.64368 0.43545 0.0
C46 C 0.32969 0.64434 0.51062 0.0
O47 O 0.1338 0.6461 0.42772 0.0
C48 C 0.06299 0.59934 0.49993 0.0
C49 C 0.07243 0.66042 0.62214 0.0
O50 O 0.28256 0.62188 0.49016 0.0
O51 O 0.28336 0.66704 0.53098 0.0
O52 O 0.13365 0.59868 0.47627 0.0
O53 O 0.05317 0.62504 0.53024 0.0
O54 O 0.14434 0.65675 0.59595 0.0
O55 O 1.00134 0.6603 0.59785 0.0
C56 C 0.82029 0.66663 0.5166 0.0
O57 O 0.87002 0.68855 0.53578 0.0
O58 O 0.86399 0.64301 0.49809 0.0
C59 C 0.0979 0.70603 0.51888 0.0
Tb60 Tb 0.8663 0.38793 0.50365 0.0
C61 C 0.96567 0.37694 0.39495 0.0
Tb62 Tb 0.04727 0.3724 0.50085 0.0
O63 O 0.8904 0.43319 0.54823 0.0
O64 O 0.97757 0.4107 0.4951 0.0
O65 O 0.8926 0.38214 0.41928 0.0
C66 C 0.21167 0.36896 0.49266 0.0
O67 O 0.03387 0.37221 0.41929 0.0
C68 C 0.94353 0.32964 0.51077 0.0
C69 C 0.96304 0.39052 0.60866 0.0
O70 O 0.16063 0.34714 0.47523 0.0
O71 O 0.17014 0.39266 0.51451 0.0
O72 O 0.01633 0.33352 0.53174 0.0
O73 O 0.93425 0.34816 0.48331 0.0
O74 O 0.03162 0.39278 0.58273 0.0
O75 O 0.89075 0.3843 0.58431 0.0
C76 C 0.70162 0.3876 0.49482 0.0
O77 O 0.75068 0.40832 0.48712 0.0
O78 O 0.74524 0.36692 0.50729 0.0
C79 C 0.96333 0.43489 0.52846 0.0
Tb80 Tb 0.47324 0.87835 0.001 0.0
C81 C 0.562 0.8904 0.10691 0.0
Tb82 Tb 0.65869 0.89179 0.00234 0.0
O83 O 0.50386 0.83541 0.02052 0.0
O84 O 0.58267 0.85469 0.97615 0.0
O85 O 0.49323 0.8945 0.08315 0.0
C86 C 0.82055 0.88299 0.99176 0.0
O87 O 0.63369 0.88503 0.08136 0.0
C88 C 0.56546 0.9394 0.03126 0.0
C89 C 0.55601 0.88493 0.89598 0.0
O90 O 0.76812 0.86507 0.00539 0.0
O91 O 0.78211 0.90623 0.98431 0.0
O92 O 0.64068 0.93763 0.04769 0.0
O93 O 0.54962 0.9154 0.99819 0.0
O94 O 0.63027 0.88863 0.91907 0.0
O95 O 0.48737 0.88053 0.92066 0.0
C96 C 0.31053 0.88368 0.99637 0.0
O97 O 0.35119 0.85927 0.97709 0.0
O98 O 0.36115 0.90458 0.01868 0.0
C99 C 0.5752 0.83328 0.99698 0.0
Tb100 Tb 0.33733 0.14465 0.0172 0.0
C101 C 0.42997 0.15895 0.12831 0.0
Tb102 Tb 0.52204 0.16625 0.02608 0.0
O103 O 0.37393 0.09976 0.98013 0.0
O104 O 0.45416 0.12688 0.03229 0.0
O105 O 0.35903 0.1516 0.10227 0.0
C106 C 0.68611 0.1672 0.03073 0.0
O107 O 0.49969 0.16411 0.10553 0.0
C108 C 0.4134 0.20928 0.02243 0.0
C109 C 0.43775 0.15165 0.91746 0.0
O110 O 0.63755 0.18684 0.05951 0.0
O111 O 0.64225 0.14716 0.99895 0.0
O112 O 0.49274 0.21386 0.02613 0.0
O113 O 0.40471 0.18253 0.02154 0.0
O114 O 0.50727 0.15017 0.94291 0.0
O115 O 0.36393 0.15428 0.9409 0.0
C116 C 0.17277 0.14219 0.02078 0.0
O117 O 0.22007 0.12258 0.99111 0.0
O118 O 0.21815 0.16309 0.04916 0.0
C119 C 0.447 0.10151 0.0009 0.0
Tb120 Tb 0.47291 0.1707 0.52695 0.0
C121 C 0.55517 0.1568 0.41939 0.0
Tb122 Tb 0.65443 0.15749 0.52456 0.0
O123 O 0.49903 0.21162 0.50117 0.0
O124 O 0.58309 0.19629 0.54776 0.0
O125 O 0.48577 0.1547 0.4444 0.0
C126 C 0.81882 0.15753 0.51486 0.0
O127 O 0.62766 0.16148 0.44402 0.0
C128 C 0.56237 0.11131 0.52808 0.0
C129 C 0.55901 0.1657 0.6309 0.0
O130 O 0.7698 0.13627 0.49168 0.0
O131 O 0.77529 0.17888 0.54333 0.0
O132 O 0.63626 0.11594 0.5473 0.0
O133 O 0.54589 0.13111 0.50375 0.0
O134 O 0.63261 0.16745 0.60917 0.0
O135 O 0.48963 0.16356 0.60404 0.0
C136 C 0.30839 0.17343 0.53508 0.0
O137 O 0.35913 0.19434 0.55747 0.0
O138 O 0.35031 0.15097 0.50866 0.0
C139 C 0.57165 0.21572 0.52238 0.0
Tb140 Tb 0.32903 0.89609 0.50356 0.0
C141 C 0.43257 0.88672 0.39844 0.0
Tb142 Tb 0.51259 0.88502 0.50614 0.0
O143 O 0.34402 0.93782 0.48114 0.0
O144 O 0.43444 0.92343 0.52623 0.0
O145 O 0.35756 0.88665 0.41946 0.0
C146 C 0.67617 0.89052 0.50621 0.0
O147 O 0.50093 0.88799 0.42609 0.0
C148 C 0.41478 0.8393 0.50925 0.0
C149 C 0.42463 0.89979 0.61238 0.0
O150 O 0.6363 0.86561 0.48977 0.0
O151 O 0.62407 0.91195 0.52186 0.0
O152 O 0.48724 0.84331 0.53099 0.0
O153 O 0.40499 0.85885 0.48402 0.0
O154 O 0.49548 0.90063 0.58823 0.0
O155 O 0.35262 0.89621 0.58694 0.0
C156 C 0.16661 0.88744 0.50396 0.0
O157 O 0.204 0.91213 0.52592 0.0
O158 O 0.2205 0.86778 0.48186 0.0
C159 C 0.4173 0.94302 0.50147 0.0
H160 H 0.47153 0.42223 0.06186 0.0
H161 H 0.43981 0.35103 0.92368 0.0
H162 H 0.58995 0.34458 0.91577 0.0
H163 H 0.72987 0.35995 0.94823 0.0
H164 H 0.75881 0.43213 0.0855 0.0
H165 H 0.6094 0.43756 0.09382 0.0
C166 C 0.49762 0.40527 0.03011 0.0
C167 C 0.4458 0.38713 0.99338 0.0
C168 C 0.58304 0.40197 0.02567 0.0
C169 C 0.47946 0.36526 0.95226 0.0
C170 C 0.56491 0.36158 0.94777 0.0
C171 C 0.70309 0.3768 0.97986 0.0
C172 C 0.75436 0.39562 0.01619 0.0
C173 C 0.61725 0.37993 0.9842 0.0
C174 C 0.7199 0.41746 0.05706 0.0
C175 C 0.63473 0.42056 0.0619 0.0
H176 H 0.31242 0.64847 0.06464 0.0
H177 H 0.30312 0.71626 0.97792 0.0
H178 H 0.45443 0.71751 0.97463 0.0
H179 H 0.5896 0.69801 0.99442 0.0
H180 H 0.5966 0.63045 0.08189 0.0
H181 H 0.44612 0.63048 0.08709 0.0
C182 C 0.34361 0.66359 0.0452 0.0
C183 C 0.29712 0.68215 0.02139 0.0
C184 C 0.43017 0.66416 0.04352 0.0
C185 C 0.33796 0.70173 0.99648 0.0
C186 C 0.42433 0.70242 0.99453 0.0
C187 C 0.55792 0.68339 0.01467 0.0
C188 C 0.60377 0.66413 0.03746 0.0
C189 C 0.47112 0.68354 0.01757 0.0
C190 C 0.56243 0.64543 0.06395 0.0
C191 C 0.47642 0.64539 0.0669 0.0
H192 H 0.71329 0.62108 0.48196 0.0
H193 H 0.72249 0.71485 0.55551 0.0
H194 H 0.57132 0.71646 0.5607 0.0
H195 H 0.43586 0.69088 0.54476 0.0
H196 H 0.42837 0.59701 0.4713 0.0
H197 H 0.57899 0.59571 0.46577 0.0
C198 C 0.68213 0.64187 0.49897 0.0
C199 C 0.72888 0.66781 0.51825 0.0
C200 C 0.59535 0.64257 0.50204 0.0
C201 C 0.68777 0.69459 0.54031 0.0
C202 C 0.60135 0.6955 0.54337 0.0
C203 C 0.46741 0.67017 0.52775 0.0
C204 C 0.42111 0.64405 0.50867 0.0
C205 C 0.5544 0.66959 0.52453 0.0
C206 C 0.46263 0.6174 0.48639 0.0
C207 C 0.5488 0.61663 0.48314 0.0
H208 H 0.59421 0.34137 0.48507 0.0
H209 H 0.60578 0.4361 0.50052 0.0
H210 H 0.45495 0.43879 0.50182 0.0
H211 H 0.31962 0.41437 0.50032 0.0
H212 H 0.30671 0.31921 0.47816 0.0
H213 H 0.45797 0.31636 0.47747 0.0
C214 C 0.56343 0.36252 0.48854 0.0
C215 C 0.61064 0.38854 0.49305 0.0
C216 C 0.47659 0.36379 0.48808 0.0
C217 C 0.57048 0.4158 0.49698 0.0
C218 C 0.48433 0.41736 0.49784 0.0
C219 C 0.3501 0.39304 0.49522 0.0
C220 C 0.30256 0.36707 0.48972 0.0
C221 C 0.43677 0.39155 0.49371 0.0
C222 C 0.34238 0.33949 0.48248 0.0
C223 C 0.42872 0.33787 0.4822 0.0
H224 H 0.94033 0.92396 0.99365 0.0
H225 H 0.9001 0.83054 0.98165 0.0
H226 H 0.0491 0.82185 0.97816 0.0
H227 H 0.19135 0.84135 0.98224 0.0
H228 H 0.23085 0.93555 0.00279 0.0
H229 H 0.08204 0.94354 0.99918 0.0
C230 C 0.96447 0.90171 0.98984 0.0
C231 C 0.90999 0.87788 0.9875 0.0
C232 C 0.05005 0.8971 0.98967 0.0
C233 C 0.94137 0.84918 0.98332 0.0
C234 C 0.02642 0.84421 0.98141 0.0
C235 C 0.16702 0.86353 0.98558 0.0
C236 C 0.22119 0.88782 0.99264 0.0
C237 C 0.08138 0.86806 0.98507 0.0
C238 C 0.18969 0.91656 0.99753 0.0
C239 C 0.10482 0.92114 0.9954 0.0
H240 H 0.0683 0.18449 0.07409 0.0
H241 H 0.07432 0.09946 0.96224 0.0
H242 H 0.92386 0.09979 0.95501 0.0
H243 H 0.79075 0.12458 0.97959 0.0
H244 H 0.78396 0.20945 0.09179 0.0
H245 H 0.93453 0.20899 0.09973 0.0
C246 C 0.03643 0.16599 0.04845 0.0
C247 C 0.08191 0.14196 0.01884 0.0
C248 C 0.94998 0.1664 0.04433 0.0
C249 C 0.04032 0.11816 0.9855 0.0
C250 C 0.95441 0.11837 0.98125 0.0
C251 C 0.82239 0.14297 0.00568 0.0
C252 C 0.77678 0.16705 0.03491 0.0
C253 C 0.90867 0.14244 0.01026 0.0
C254 C 0.81811 0.19069 0.06882 0.0
C255 C 0.90406 0.19043 0.07342 0.0
H256 H 0.2 0.13208 0.48444 0.0
H257 H 0.2138 0.21904 0.58994 0.0
H258 H 0.06273 0.22225 0.59207 0.0
H259 H 0.92665 0.19996 0.56429 0.0
H260 H 0.91401 0.11296 0.45865 0.0
H261 H 0.06475 0.11016 0.45586 0.0
C262 C 0.16983 0.15169 0.50796 0.0
C263 C 0.21755 0.17524 0.53715 0.0
C264 C 0.0833 0.15339 0.5088 0.0
C265 C 0.17803 0.2006 0.56729 0.0
C266 C 0.0918 0.20246 0.56845 0.0
C267 C 0.95711 0.18046 0.54059 0.0
C268 C 0.90967 0.15667 0.51178 0.0
C269 C 0.0438 0.17896 0.53939 0.0
C270 C 0.94948 0.13153 0.48114 0.0
C271 C 0.03557 0.1299 0.47962 0.0
H272 H 0.79344 0.84814 0.47466 0.0
H273 H 0.75973 0.94161 0.54507 0.0
H274 H 0.90895 0.94877 0.55218 0.0
H275 H 0.04898 0.92868 0.53768 0.0
H276 H 0.08438 0.8355 0.4661 0.0
H277 H 0.93465 0.82789 0.4603 0.0
C278 C 0.81907 0.87001 0.49145 0.0
C279 C 0.76621 0.89431 0.50922 0.0
C280 C 0.90501 0.874 0.4953 0.0
C281 C 0.79958 0.92259 0.53099 0.0
C282 C 0.88478 0.92672 0.53517 0.0
C283 C 0.02372 0.90672 0.52103 0.0
C284 C 0.07693 0.88271 0.50228 0.0
C285 C 0.93802 0.90261 0.51741 0.0
C286 C 0.04405 0.85433 0.48063 0.0
C287 C 0.95864 0.84997 0.47729 0.0
H288 H 0.88168 0.55421 0.99071 0.0
H289 H 0.11327 0.60192 0.00905 0.0
H290 H 0.18516 0.55672 0.01771 0.0
H291 H 0.18036 0.50434 0.02283 0.0
H292 H 0.94805 0.4571 0.00545 0.0
H293 H 0.87708 0.50191 0.99459 0.0
C294 C 0.94811 0.55473 0.99619 0.0
C295 C 0.9924 0.58137 0.99915 0.0
C296 C 0.98814 0.52896 0.00209 0.0
C297 C 0.07816 0.58168 0.00635 0.0
C298 C 0.11892 0.55591 0.01164 0.0
C299 C 0.11405 0.50387 0.01687 0.0
C300 C 0.06908 0.47754 0.01544 0.0
C301 C 0.07427 0.52957 0.01019 0.0
C302 C 0.98355 0.47717 0.00738 0.0
C303 C 0.94329 0.50272 0.00081 0.0
H304 H 0.90541 0.49061 0.57337 0.0
H305 H 0.09447 0.44405 0.46956 0.0
H306 H 0.13775 0.49067 0.44973 0.0
H307 H 0.11924 0.54387 0.45921 0.0
H308 H 0.93436 0.59185 0.56459 0.0
H309 H 0.89027 0.54518 0.58547 0.0
C310 C 0.95678 0.49075 0.54692 0.0
C311 C 0.99675 0.46382 0.52292 0.0
C312 C 0.98079 0.51771 0.53521 0.0
C313 C 0.06295 0.46439 0.48865 0.0
C314 C 0.08727 0.49102 0.47699 0.0
C315 C 0.06899 0.54426 0.4867 0.0
C316 C 0.02977 0.57136 0.51014 0.0
C317 C 0.04589 0.51766 0.49943 0.0
C318 C 0.96508 0.5713 0.54574 0.0
C319 C 0.94041 0.54465 0.55792 0.0
H320 H 0.62418 0.99588 0.07186 0.0
H321 H 0.42853 0.94697 0.97725 0.0
H322 H 0.37963 0.99244 0.95683 0.0
H323 H 0.39416 0.04532 0.96306 0.0
H324 H 0.58419 0.09618 0.05979 0.0
H325 H 0.6355 0.05051 0.08079 0.0
C326 C 0.57011 0.99532 0.04744 0.0
C327 C 0.52971 0.96801 0.02639 0.0
C328 C 0.54267 1.02171 0.0352 0.0
C329 C 0.46018 0.96763 0.99448 0.0
C330 C 0.43268 0.9936 0.98227 0.0
C331 C 0.4472 0.04655 0.98857 0.0
C332 C 0.48566 0.07413 0.0096 0.0
C333 C 0.47407 1.02061 0.00178 0.0
C334 C 0.55399 0.07518 0.04275 0.0
C335 C 0.58274 0.04912 0.05509 0.0
H336 H 0.60926 0.06541 0.56802 0.0
H337 H 0.426 0.09063 0.46842 0.0
H338 H 0.36698 0.04034 0.45025 0.0
H339 H 0.36921 0.98906 0.46176 0.0
H340 H 0.55149 0.9643 0.56249 0.0
H341 H 0.61056 1.01445 0.58029 0.0
C342 C 0.55616 0.05995 0.54245 0.0
C343 C 0.52202 0.08174 0.51952 0.0
C344 C 0.52327 0.03099 0.5319 0.0
C345 C 0.45319 0.07433 0.48663 0.0
C346 C 0.41978 0.04553 0.47607 0.0
C347 C 0.42211 0.9946 0.48748 0.0
C348 C 0.45645 0.97283 0.51042 0.0
C349 C 0.4547 1.02364 0.49821 0.0
C350 C 0.52466 0.98043 0.54379 0.0
C351 C 0.55798 1.00919 0.55428 0.0
H352 H 0.09154 0.28206 0.99551 0.0
H353 H 0.26334 0.35469 0.03974 0.0
H354 H 0.37391 0.32069 0.0472 0.0
H355 H 0.42342 0.26965 0.04061 0.0
H356 H 0.25466 0.19632 0.99118 0.0
H357 H 0.14211 0.23058 0.98703 0.0
C358 C 0.1531 0.29035 0.00712 0.0
C359 C 0.16937 0.32101 0.0164 0.0
C360 C 0.21722 0.2703 0.01073 0.0
C361 C 0.24951 0.33133 0.03106 0.0
C362 C 0.3129 0.31179 0.03576 0.0
C363 C 0.36198 0.26123 0.02896 0.0
C364 C 0.34688 0.23048 0.01781 0.0
C365 C 0.29782 0.28116 0.0253 0.0
C366 C 0.26718 0.2199 0.00207 0.0
C367 C 0.20285 0.23953 0.99906 0.0
H368 H 0.60256 0.79616 0.06278 0.0
H369 H 0.69377 0.81872 0.92334 0.0
H370 H 0.81127 0.78561 0.92038 0.0
H371 H 0.89306 0.75185 0.95953 0.0
H372 H 0.80094 0.72744 0.09698 0.0
H373 H 0.68041 0.75944 0.09885 0.0
C374 C 0.64772 0.79349 0.03152 0.0
C375 C 0.63989 0.8102 0.99375 0.0
C376 C 0.7161 0.77433 0.03009 0.0
C377 C 0.69876 0.80637 0.95327 0.0
C378 C 0.76629 0.78748 0.95156 0.0
C379 C 0.84671 0.75367 0.98995 0.0
C380 C 0.85643 0.73756 0.02835 0.0
C381 C 0.77666 0.77177 0.99029 0.0
C382 C 0.79517 0.73979 0.06712 0.0
C383 C 0.72601 0.75805 0.06816 0.0
H384 H 0.10703 0.76634 0.56481 0.0
H385 H 0.23627 0.69504 0.45923 0.0
H386 H 0.34703 0.72889 0.44943 0.0
H387 H 0.40776 0.77941 0.46902 0.0
H388 H 0.27447 0.85131 0.56974 0.0
H389 H 0.16657 0.81729 0.58271 0.0
C390 C 0.1595 0.75826 0.53979 0.0
C391 C 0.16353 0.72793 0.51366 0.0
C392 C 0.22297 0.7782 0.53311 0.0
C393 C 0.23177 0.71805 0.48076 0.0
C394 C 0.29538 0.73749 0.47481 0.0
C395 C 0.35528 0.78754 0.49403 0.0
C396 C 0.35006 0.81805 0.51841 0.0
C397 C 0.29184 0.76767 0.50069 0.0
C398 C 0.28114 0.82817 0.55039 0.0
C399 C 0.2187 0.80856 0.55787 0.0
H400 H 0.79807 0.31347 0.45849 0.0
H401 H 0.95071 0.29504 0.5806 0.0
H402 H 0.84994 0.25845 0.59543 0.0
H403 H 0.7163 0.23227 0.57506 0.0
H404 H 0.56358 0.25066 0.453 0.0
H405 H 0.66427 0.28729 0.43817 0.0
C406 C 0.80874 0.3017 0.48875 0.0
C407 C 0.88152 0.3073 0.51881 0.0
C408 C 0.74993 0.28078 0.49739 0.0
C409 C 0.89521 0.29128 0.55702 0.0
C410 C 0.83742 0.27038 0.56563 0.0
C411 C 0.70568 0.24399 0.54475 0.0
C412 C 0.63295 0.23836 0.5147 0.0
C413 C 0.76438 0.26496 0.53618 0.0
C414 C 0.61906 0.25444 0.4766 0.0
C415 C 0.67682 0.27537 0.46799 0.0
H416 H 0.95735 0.40374 0.1715 0.0
H417 H 0.21818 0.3853 0.17776 0.0
H418 H 0.19883 0.37559 0.26447 0.0
H419 H 0.10764 0.37183 0.33737 0.0
H420 H 0.84664 0.38972 0.32966 0.0
H421 H 0.86655 0.39949 0.24334 0.0
C422 C 0.01059 0.39778 0.19165 0.0
C423 C 0.08958 0.39546 0.16792 0.0
C424 C 0.99867 0.39169 0.24079 0.0
C425 C 0.15702 0.38753 0.19504 0.0
C426 C 0.14577 0.38177 0.24448 0.0
C427 C 0.05465 0.37763 0.31684 0.0
C428 C 0.97537 0.37992 0.34026 0.0
C429 C 0.06675 0.38358 0.26749 0.0
C430 C 0.90806 0.3876 0.31275 0.0
C431 C 0.91956 0.39338 0.26348 0.0
H432 H 0.91422 0.63069 0.18143 0.0
H433 H 0.06697 0.70852 0.19433 0.0
H434 H 0.11658 0.70438 0.27958 0.0
H435 H 0.11783 0.67843 0.35057 0.0
H436 H 0.96233 0.60165 0.34002 0.0
H437 H 0.91456 0.60484 0.2534 0.0
C438 C 0.95687 0.64704 0.20358 0.0
C439 C 0.98611 0.67007 0.18208 0.0
C440 C 0.98675 0.64413 0.25226 0.0
C441 C 0.04307 0.69074 0.21045 0.0
C442 C 0.07216 0.68822 0.25893 0.0
C443 C 0.0753 0.66197 0.3285 0.0
C444 C 0.04523 0.63937 0.35062 0.0
C445 C 0.04549 0.66476 0.27988 0.0
C446 C 0.98758 0.61881 0.32287 0.0
C447 C 0.95943 0.62089 0.27378 0.0
H448 H 0.09068 0.64737 0.85502 0.0
H449 H 0.8294 0.66506 0.84828 0.0
H450 H 0.84608 0.66943 0.758 0.0
H451 H 0.9345 0.66906 0.68259 0.0
H452 H 0.19577 0.65133 0.68884 0.0
H453 H 0.17937 0.647 0.7793 0.0
C454 C 0.03683 0.65201 0.83398 0.0
C455 C 0.9584 0.65576 0.85868 0.0
C456 C 0.04722 0.65497 0.78255 0.0
C457 C 0.89007 0.66185 0.83038 0.0
C458 C 0.89982 0.66455 0.77888 0.0
C459 C 0.98843 0.66431 0.70346 0.0
C460 C 0.06667 0.6605 0.67858 0.0
C461 C 0.97816 0.66137 0.75485 0.0
C462 C 0.13519 0.65453 0.70685 0.0
C463 C 0.12558 0.65185 0.75844 0.0
H464 H 0.10399 0.39866 0.66605 0.0
H465 H 0.84031 0.38765 0.67973 0.0
H466 H 0.85668 0.389 0.77264 0.0
H467 H 0.946 0.39181 0.84857 0.0
H468 H 0.2101 0.40155 0.83399 0.0
H469 H 0.19294 0.40207 0.74205 0.0
C470 C 0.04966 0.39671 0.68918 0.0
C471 C 0.97075 0.39307 0.66571 0.0
C472 C 0.05971 0.3971 0.7422 0.0
C473 C 0.9016 0.39051 0.69663 0.0
C474 C 0.91103 0.39121 0.74973 0.0
C475 C 1.00016 0.39413 0.82555 0.0
C476 C 0.07954 0.39658 0.84845 0.0
C477 C 0.98987 0.39425 0.77273 0.0
C478 C 0.14847 0.39954 0.81759 0.0
C479 C 0.13863 0.39987 0.765 0.0
H480 H 0.42035 0.89354 0.16287 0.0
H481 H 0.6847 0.88524 0.17669 0.0
H482 H 0.66695 0.88267 0.26801 0.0
H483 H 0.5762 0.8828 0.34303 0.0
H484 H 0.31187 0.89049 0.32756 0.0
H485 H 0.33029 0.89294 0.23662 0.0
C486 C 0.47465 0.8913 0.18559 0.0
C487 C 0.55414 0.88979 0.1628 0.0
C488 C 0.46383 0.88951 0.23747 0.0
C489 C 0.62304 0.88661 0.19317 0.0
C490 C 0.61278 0.88506 0.2453 0.0
C491 C 0.52229 0.88494 0.3199 0.0
C492 C 0.44246 0.88649 0.34234 0.0
C493 C 0.5334 0.88644 0.26773 0.0
C494 C 0.37378 0.88915 0.31144 0.0
C495 C 0.38436 0.89067 0.25949 0.0
H496 H 0.56794 0.16958 0.18782 0.0
H497 H 0.31 0.14592 0.19383 0.0
H498 H 0.32837 0.14171 0.28402 0.0
H499 H 0.4175 0.14458 0.35978 0.0
H500 H 0.67519 0.16829 0.35314 0.0
H501 H 0.65699 0.17184 0.26271 0.0
C502 C 0.51513 0.16355 0.20853 0.0
C503 C 0.43729 0.15812 0.1839 0.0
C504 C 0.52645 0.16079 0.25968 0.0
C505 C 0.37028 0.15034 0.2118 0.0
C506 C 0.38095 0.14779 0.26321 0.0
C507 C 0.47012 0.15043 0.3387 0.0
C508 C 0.54786 0.15623 0.36331 0.0
C509 C 0.45885 0.15285 0.28729 0.0
C510 C 0.61502 0.1636 0.33511 0.0
C511 C 0.60442 0.16582 0.2836 0.0
H512 H 0.57978 0.15312 0.86314 0.0
H513 H 0.31403 0.15451 0.84792 0.0
H514 H 0.32939 0.15986 0.75829 0.0
H515 H 0.4176 0.16447 0.68552 0.0
H516 H 0.68336 0.16334 0.70059 0.0
H517 H 0.66816 0.15799 0.79033 0.0
C518 C 0.52485 0.15443 0.84035 0.0
C519 C 0.4456 0.15328 0.86229 0.0
C520 C 0.53418 0.15784 0.78928 0.0
C521 C 0.37559 0.15521 0.83202 0.0
C522 C 0.38439 0.15838 0.78088 0.0
C523 C 0.4726 0.16312 0.70823 0.0
C524 C 0.55176 0.16428 0.68621 0.0
C525 C 0.46335 0.15983 0.75933 0.0
C526 C 0.62186 0.16261 0.71656 0.0
C527 C 0.61313 0.15942 0.76774 0.0
H528 H 0.56088 0.91148 0.67299 0.0
H529 H 0.3034 0.8872 0.67756 0.0
H530 H 0.32282 0.87995 0.76593 0.0
H531 H 0.41451 0.87804 0.83889 0.0
H532 H 0.67317 0.90046 0.83186 0.0
H533 H 0.65173 0.90993 0.74555 0.0
C534 C 0.5084 0.90475 0.69314 0.0
C535 C 0.43053 0.89981 0.66846 0.0
C536 C 0.52074 0.89968 0.74275 0.0
C537 C 0.36365 0.89137 0.69569 0.0
C538 C 0.37505 0.88692 0.74593 0.0
C539 C 0.46663 0.88489 0.81861 0.0
C540 C 0.54575 0.8884 0.84193 0.0
C541 C 0.4537 0.89049 0.76931 0.0
C542 C 0.612 0.89734 0.81481 0.0
C543 C 0.59958 0.90298 0.76565 0.0
loop_
_geom_bond_atom_site_label_1
_geom_bond_atom_site_label_2
_geom_bond_distance
_geom_bond_site_symmetry_2
_ccdc_geom_bond_type
Tb0 O3 2.453 1_655 S
Tb0 O4 2.596 1_656 S
Tb0 O5 2.374 1_556 S
Tb0 O13 2.343 1_656 S
Tb0 O15 2.353 1_655 S
Tb0 O17 2.427 . S
Tb0 O18 2.513 1_556 S
C1 O5 1.251 1_455 S
C1 O7 1.263 . S
Tb2 O4 2.343 . S
Tb2 O7 2.353 . S
Tb2 O10 2.427 . S
Tb2 O11 2.513 1_554 S
Tb2 O12 2.453 . S
Tb2 O13 2.596 . S
Tb2 O14 2.374 1_554 S
O3 Tb0 2.453 1_455 S
O3 C19 1.245 1_556 S
O4 Tb0 2.596 1_454 S
O4 Tb2 2.343 . S
O4 C19 1.259 . S
O5 Tb0 2.374 1_554 S
O5 C1 1.251 1_655 S
C6 O10 1.275 . S
C6 O11 1.246 1_554 S
O7 C1 1.263 . S
O7 Tb2 2.353 . S
C8 O12 1.245 . S
C8 O13 1.259 . S
C9 O14 1.250 . S
C9 O15 1.263 . S
O10 Tb2 2.427 . S
O10 C6 1.275 . S
O11 Tb2 2.513 1_556 S
O11 C6 1.246 1_556 S
O12 Tb2 2.453 . S
O12 C8 1.245 . S
O13 Tb0 2.343 1_454 S
O13 Tb2 2.596 . S
O13 C8 1.259 . S
O14 Tb2 2.374 1_556 S
O14 C9 1.250 . S
O15 Tb0 2.353 1_455 S
O15 C9 1.263 . S
C16 O17 1.275 1_554 S
C16 O18 1.246 . S
O17 Tb0 2.427 . S
O17 C16 1.275 1_556 S
O18 Tb0 2.513 1_554 S
O18 C16 1.246 . S
C19 O3 1.245 1_554 S
C19 O4 1.259 . S
Tb20 O23 2.453 1_554 S
Tb20 O24 2.596 . S
Tb20 O25 2.374 . S
Tb20 O33 2.343 . S
Tb20 O35 2.353 1_554 S
Tb20 O37 2.427 1_554 S
Tb20 O38 2.513 . S
C21 O25 1.251 . S
C21 O27 1.263 . S
Tb22 O24 2.343 1_455 S
Tb22 O27 2.353 1_455 S
Tb22 O30 2.427 . S
Tb22 O31 2.513 1_554 S
Tb22 O32 2.453 1_455 S
Tb22 O33 2.596 1_455 S
Tb22 O34 2.374 1_554 S
O23 Tb20 2.453 1_556 S
O23 C39 1.245 1_556 S
O24 Tb20 2.596 . S
O24 Tb22 2.343 1_655 S
O24 C39 1.259 . S
O25 Tb20 2.374 . S
O25 C21 1.251 . S
C26 O30 1.275 . S
C26 O31 1.246 1_554 S
O27 C21 1.263 . S
O27 Tb22 2.353 1_655 S
C28 O32 1.245 . S
C28 O33 1.259 . S
C29 O34 1.250 1_655 S
C29 O35 1.263 . S
O30 Tb22 2.427 . S
O30 C26 1.275 . S
O31 Tb22 2.513 1_556 S
O31 C26 1.246 1_556 S
O32 Tb22 2.453 1_655 S
O32 C28 1.245 . S
O33 Tb20 2.343 . S
O33 Tb22 2.596 1_655 S
O33 C28 1.259 . S
O34 Tb22 2.374 1_556 S
O34 C29 1.250 1_455 S
O35 Tb20 2.353 1_556 S
O35 C29 1.263 . S
C36 O37 1.275 1_554 S
C36 O38 1.246 . S
O37 Tb20 2.427 1_556 S
O37 C36 1.275 1_556 S
O38 Tb20 2.513 . S
O38 C36 1.246 . S
C39 O23 1.245 1_554 S
C39 O24 1.259 . S
Tb40 O43 2.453 1_655 S
Tb40 O44 2.596 1_655 S
Tb40 O45 2.374 . S
Tb40 O53 2.343 1_655 S
Tb40 O55 2.353 1_655 S
Tb40 O57 2.427 . S
Tb40 O58 2.513 . S
C41 O45 1.251 1_455 S
C41 O47 1.263 . S
Tb42 O44 2.343 . S
Tb42 O47 2.353 . S
Tb42 O50 2.427 . S
Tb42 O51 2.513 . S
Tb42 O52 2.453 . S
Tb42 O53 2.596 . S
Tb42 O54 2.374 . S
O43 Tb40 2.453 1_455 S
O43 C59 1.245 . S
O44 Tb40 2.596 1_455 S
O44 Tb42 2.343 . S
O44 C59 1.259 . S
O45 Tb40 2.374 . S
O45 C41 1.251 1_655 S
C46 O50 1.275 . S
C46 O51 1.246 . S
O47 C41 1.263 . S
O47 Tb42 2.353 . S
C48 O52 1.245 . S
C48 O53 1.259 . S
C49 O54 1.250 . S
C49 O55 1.263 . S
O50 Tb42 2.427 . S
O50 C46 1.275 . S
O51 Tb42 2.513 . S
O51 C46 1.246 . S
O52 Tb42 2.453 . S
O52 C48 1.245 . S
O53 Tb40 2.343 1_455 S
O53 Tb42 2.596 . S
O53 C48 1.259 . S
O54 Tb42 2.374 . S
O54 C49 1.250 . S
O55 Tb40 2.353 1_455 S
O55 C49 1.263 . S
C56 O57 1.275 . S
C56 O58 1.246 . S
O57 Tb40 2.427 . S
O57 C56 1.275 . S
O58 Tb40 2.513 . S
O58 C56 1.246 . S
C59 O43 1.245 . S
C59 O44 1.259 . S
Tb60 O63 2.453 . S
Tb60 O64 2.596 . S
Tb60 O65 2.374 . S
Tb60 O73 2.343 . S
Tb60 O75 2.353 . S
Tb60 O77 2.427 . S
Tb60 O78 2.513 . S
C61 O65 1.251 . S
C61 O67 1.263 . S
Tb62 O64 2.343 1_455 S
Tb62 O67 2.353 1_455 S
Tb62 O70 2.427 . S
Tb62 O71 2.513 . S
Tb62 O72 2.453 1_455 S
Tb62 O73 2.596 1_455 S
Tb62 O74 2.374 . S
O63 Tb60 2.453 . S
O63 C79 1.245 . S
O64 Tb60 2.596 . S
O64 Tb62 2.343 1_655 S
O64 C79 1.259 . S
O65 Tb60 2.374 . S
O65 C61 1.251 . S
C66 O70 1.275 . S
C66 O71 1.246 . S
O67 C61 1.263 . S
O67 Tb62 2.353 1_655 S
C68 O72 1.245 . S
C68 O73 1.259 . S
C69 O74 1.250 1_655 S
C69 O75 1.263 . S
O70 Tb62 2.427 . S
O70 C66 1.275 . S
O71 Tb62 2.513 . S
O71 C66 1.246 . S
O72 Tb62 2.453 1_655 S
O72 C68 1.245 . S
O73 Tb60 2.343 . S
O73 Tb62 2.596 1_655 S
O73 C68 1.259 . S
O74 Tb62 2.374 . S
O74 C69 1.250 1_455 S
O75 Tb60 2.353 . S
O75 C69 1.263 . S
C76 O77 1.275 . S
C76 O78 1.246 . S
O77 Tb60 2.427 . S
O77 C76 1.275 . S
O78 Tb60 2.513 . S
O78 C76 1.246 . S
C79 O63 1.245 . S
C79 O64 1.259 . S
Tb80 O83 2.453 . S
Tb80 O84 2.596 1_556 S
Tb80 O85 2.374 1_556 S
Tb80 O93 2.343 1_556 S
Tb80 O95 2.353 . S
Tb80 O97 2.427 . S
Tb80 O98 2.513 1_556 S
C81 O85 1.251 . S
C81 O87 1.263 . S
Tb82 O84 2.343 . S
Tb82 O87 2.353 . S
Tb82 O90 2.427 . S
Tb82 O91 2.513 1_554 S
Tb82 O92 2.453 . S
Tb82 O93 2.596 . S
Tb82 O94 2.374 1_554 S
O83 Tb80 2.453 . S
O83 C99 1.245 1_556 S
O84 Tb80 2.596 1_554 S
O84 Tb82 2.343 . S
O84 C99 1.259 . S
O85 Tb80 2.374 1_554 S
O85 C81 1.251 . S
C86 O90 1.275 . S
C86 O91 1.246 1_554 S
O87 C81 1.263 . S
O87 Tb82 2.353 . S
C88 O92 1.245 . S
C88 O93 1.259 . S
C89 O94 1.250 . S
C89 O95 1.263 . S
O90 Tb82 2.427 . S
O90 C86 1.275 . S
O91 Tb82 2.513 1_556 S
O91 C86 1.246 1_556 S
O92 Tb82 2.453 . S
O92 C88 1.245 . S
O93 Tb80 2.343 1_554 S
O93 Tb82 2.596 . S
O93 C88 1.259 . S
O94 Tb82 2.374 1_556 S
O94 C89 1.250 . S
O95 Tb80 2.353 . S
O95 C89 1.263 . S
C96 O97 1.275 1_554 S
C96 O98 1.246 . S
O97 Tb80 2.427 . S
O97 C96 1.275 1_556 S
O98 Tb80 2.513 1_554 S
O98 C96 1.246 . S
C99 O83 1.245 1_554 S
C99 O84 1.259 . S
Tb100 O103 2.453 1_554 S
Tb100 O104 2.596 . S
Tb100 O105 2.374 . S
Tb100 O113 2.343 . S
Tb100 O115 2.353 1_554 S
Tb100 O117 2.427 1_554 S
Tb100 O118 2.513 . S
C101 O105 1.251 . S
C101 O107 1.263 . S
Tb102 O104 2.343 . S
Tb102 O107 2.353 . S
Tb102 O110 2.427 . S
Tb102 O111 2.513 1_554 S
Tb102 O112 2.453 . S
Tb102 O113 2.596 . S
Tb102 O114 2.374 1_554 S
O103 Tb100 2.453 1_556 S
O103 C119 1.245 1_556 S
O104 Tb100 2.596 . S
O104 Tb102 2.343 . S
O104 C119 1.259 . S
O105 Tb100 2.374 . S
O105 C101 1.251 . S
C106 O110 1.275 . S
C106 O111 1.246 1_554 S
O107 C101 1.263 . S
O107 Tb102 2.353 . S
C108 O112 1.245 . S
C108 O113 1.259 . S
C109 O114 1.250 . S
C109 O115 1.263 . S
O110 Tb102 2.427 . S
O110 C106 1.275 . S
O111 Tb102 2.513 1_556 S
O111 C106 1.246 1_556 S
O112 Tb102 2.453 . S
O112 C108 1.245 . S
O113 Tb100 2.343 . S
O113 Tb102 2.596 . S
O113 C108 1.259 . S
O114 Tb102 2.374 1_556 S
O114 C109 1.250 . S
O115 Tb100 2.353 1_556 S
O115 C109 1.263 . S
C116 O117 1.275 1_554 S
C116 O118 1.246 . S
O117 Tb100 2.427 1_556 S
O117 C116 1.275 1_556 S
O118 Tb100 2.513 . S
O118 C116 1.246 . S
C119 O103 1.245 1_554 S
C119 O104 1.259 . S
Tb120 O123 2.453 . S
Tb120 O124 2.596 . S
Tb120 O125 2.374 . S
Tb120 O133 2.343 . S
Tb120 O135 2.353 . S
Tb120 O137 2.427 . S
Tb120 O138 2.513 . S
C121 O125 1.251 . S
C121 O127 1.263 . S
Tb122 O124 2.343 . S
Tb122 O127 2.353 . S
Tb122 O130 2.427 . S
Tb122 O131 2.513 . S
Tb122 O132 2.453 . S
Tb122 O133 2.596 . S
Tb122 O134 2.374 . S
O123 Tb120 2.453 . S
O123 C139 1.245 . S
O124 Tb120 2.596 . S
O124 Tb122 2.343 . S
O124 C139 1.259 . S
O125 Tb120 2.374 . S
O125 C121 1.251 . S
C126 O130 1.275 . S
C126 O131 1.246 . S
O127 C121 1.263 . S
O127 Tb122 2.353 . S
C128 O132 1.245 . S
C128 O133 1.259 . S
C129 O134 1.250 . S
C129 O135 1.263 . S
O130 Tb122 2.427 . S
O130 C126 1.275 . S
O131 Tb122 2.513 . S
O131 C126 1.246 . S
O132 Tb122 2.453 . S
O132 C128 1.245 . S
O133 Tb120 2.343 . S
O133 Tb122 2.596 . S
O133 C128 1.259 . S
O134 Tb122 2.374 . S
O134 C129 1.250 . S
O135 Tb120 2.353 . S
O135 C129 1.263 . S
C136 O137 1.275 . S
C136 O138 1.246 . S
O137 Tb120 2.427 . S
O137 C136 1.275 . S
O138 Tb120 2.513 . S
O138 C136 1.246 . S
C139 O123 1.245 . S
C139 O124 1.259 . S
Tb140 O143 2.453 . S
Tb140 O144 2.596 . S
Tb140 O145 2.374 . S
Tb140 O153 2.343 . S
Tb140 O155 2.353 . S
Tb140 O157 2.427 . S
Tb140 O158 2.513 . S
C141 O145 1.251 . S
C141 O147 1.263 . S
Tb142 O144 2.343 . S
Tb142 O147 2.353 . S
Tb142 O150 2.427 . S
Tb142 O151 2.513 . S
Tb142 O152 2.453 . S
Tb142 O153 2.596 . S
Tb142 O154 2.374 . S
O143 Tb140 2.453 . S
O143 C159 1.245 . S
O144 Tb140 2.596 . S
O144 Tb142 2.343 . S
O144 C159 1.259 . S
O145 Tb140 2.374 . S
O145 C141 1.251 . S
C146 O150 1.275 . S
C146 O151 1.246 . S
O147 C141 1.263 . S
O147 Tb142 2.353 . S
C148 O152 1.245 . S
C148 O153 1.259 . S
C149 O154 1.250 . S
C149 O155 1.263 . S
O150 Tb142 2.427 . S
O150 C146 1.275 . S
O151 Tb142 2.513 . S
O151 C146 1.246 . S
O152 Tb142 2.453 . S
O152 C148 1.245 . S
O153 Tb140 2.343 . S
O153 Tb142 2.596 . S
O153 C148 1.259 . S
O154 Tb142 2.374 . S
O154 C149 1.250 . S
O155 Tb140 2.353 . S
O155 C149 1.263 . S
C156 O157 1.275 . S
C156 O158 1.246 . S
O157 Tb140 2.427 . S
O157 C156 1.275 . S
O158 Tb140 2.513 . S
O158 C156 1.246 . S
C159 O143 1.245 . S
C159 O144 1.259 . S
H160 C166 0.930 . S
H161 C169 0.930 . S
H162 C170 0.930 1_556 S
H163 C171 0.930 . S
H164 C174 0.930 . S
H165 C175 0.930 . S
C166 H160 0.930 . S
C166 C167 1.355 . S
C166 C168 1.415 . S
C167 C166 1.355 . S
C167 C169 1.419 . S
C168 C166 1.415 . S
C168 C173 1.425 . S
C168 C175 1.409 . S
C169 H161 0.930 . S
C169 C167 1.419 . S
C169 C170 1.362 . S
C170 H162 0.930 1_554 S
C170 C169 1.362 . S
C170 C173 1.409 . S
C171 H163 0.930 . S
C171 C172 1.355 . S
C171 C173 1.415 . S
C172 C171 1.355 . S
C172 C174 1.419 . S
C173 C168 1.425 . S
C173 C170 1.409 . S
C173 C171 1.415 . S
C174 H164 0.930 . S
C174 C172 1.419 . S
C174 C175 1.362 . S
C175 H165 0.930 . S
C175 C168 1.409 . S
C175 C174 1.362 . S
H176 C182 0.930 . S
H177 C185 0.930 . S
H178 C186 0.930 . S
H179 C187 0.930 . S
H180 C190 0.930 . S
H181 C191 0.930 . S
C182 H176 0.930 . S
C182 C183 1.355 . S
C182 C184 1.415 . S
C183 C182 1.355 . S
C183 C185 1.419 1_554 S
C184 C182 1.415 . S
C184 C189 1.425 1_554 S
C184 C191 1.409 . S
C185 H177 0.930 . S
C185 C183 1.419 1_556 S
C185 C186 1.362 . S
C186 H178 0.930 . S
C186 C185 1.362 . S
C186 C189 1.409 . S
C187 H179 0.930 . S
C187 C188 1.355 1_556 S
C187 C189 1.415 . S
C188 C187 1.355 1_554 S
C188 C190 1.419 . S
C189 C184 1.425 1_556 S
C189 C186 1.409 . S
C189 C187 1.415 . S
C190 H180 0.930 . S
C190 C188 1.419 . S
C190 C191 1.362 . S
C191 H181 0.930 . S
C191 C184 1.409 . S
C191 C190 1.362 . S
H192 C198 0.930 . S
H193 C201 0.930 . S
H194 C202 0.930 . S
H195 C203 0.930 . S
H196 C206 0.930 . S
H197 C207 0.930 . S
C198 H192 0.930 . S
C198 C199 1.355 . S
C198 C200 1.415 . S
C199 C198 1.355 . S
C199 C201 1.419 . S
C200 C198 1.415 . S
C200 C205 1.425 . S
C200 C207 1.409 . S
C201 H193 0.930 . S
C201 C199 1.419 . S
C201 C202 1.362 . S
C202 H194 0.930 . S
C202 C201 1.362 . S
C202 C205 1.409 . S
C203 H195 0.930 . S
C203 C204 1.355 . S
C203 C205 1.415 . S
C204 C203 1.355 . S
C204 C206 1.419 . S
C205 C200 1.425 . S
C205 C202 1.409 . S
C205 C203 1.415 . S
C206 H196 0.930 . S
C206 C204 1.419 . S
C206 C207 1.362 . S
C207 H197 0.930 . S
C207 C200 1.409 . S
C207 C206 1.362 . S
H208 C214 0.930 . S
H209 C217 0.930 . S
H210 C218 0.930 . S
H211 C219 0.930 . S
H212 C222 0.930 . S
H213 C223 0.930 . S
C214 H208 0.930 . S
C214 C215 1.355 . S
C214 C216 1.415 . S
C215 C214 1.355 . S
C215 C217 1.419 . S
C216 C214 1.415 . S
C216 C221 1.425 . S
C216 C223 1.409 . S
C217 H209 0.930 . S
C217 C215 1.419 . S
C217 C218 1.362 . S
C218 H210 0.930 . S
C218 C217 1.362 . S
C218 C221 1.409 . S
C219 H211 0.930 . S
C219 C220 1.355 . S
C219 C221 1.415 . S
C220 C219 1.355 . S
C220 C222 1.419 . S
C221 C216 1.425 . S
C221 C218 1.409 . S
C221 C219 1.415 . S
C222 H212 0.930 . S
C222 C220 1.419 . S
C222 C223 1.362 . S
C223 H213 0.930 . S
C223 C216 1.409 . S
C223 C222 1.362 . S
H224 C230 0.930 1_556 S
H225 C233 0.930 . S
H226 C234 0.930 . S
H227 C235 0.930 . S
H228 C238 0.930 . S
H229 C239 0.930 . S
C230 H224 0.930 1_554 S
C230 C231 1.355 . S
C230 C232 1.415 1_655 S
C231 C230 1.355 . S
C231 C233 1.419 . S
C232 C230 1.415 1_455 S
C232 C237 1.425 . S
C232 C239 1.409 1_554 S
C233 H225 0.930 . S
C233 C231 1.419 . S
C233 C234 1.362 1_655 S
C234 H226 0.930 . S
C234 C233 1.362 1_455 S
C234 C237 1.409 . S
C235 H227 0.930 . S
C235 C236 1.355 . S
C235 C237 1.415 . S
C236 C235 1.355 . S
C236 C238 1.419 1_554 S
C237 C232 1.425 . S
C237 C234 1.409 . S
C237 C235 1.415 . S
C238 H228 0.930 . S
C238 C236 1.419 1_556 S
C238 C239 1.362 . S
C239 H229 0.930 . S
C239 C232 1.409 1_556 S
C239 C238 1.362 . S
H240 C246 0.930 . S
H241 C249 0.930 . S
H242 C250 0.930 . S
H243 C251 0.930 . S
H244 C254 0.930 . S
H245 C255 0.930 . S
C246 H240 0.930 . S
C246 C247 1.355 . S
C246 C248 1.415 1_455 S
C247 C246 1.355 . S
C247 C249 1.419 1_554 S
C248 C246 1.415 1_655 S
C248 C253 1.425 1_554 S
C248 C255 1.409 . S
C249 H241 0.930 . S
C249 C247 1.419 1_556 S
C249 C250 1.362 1_455 S
C250 H242 0.930 . S
C250 C249 1.362 1_655 S
C250 C253 1.409 . S
C251 H243 0.930 . S
C251 C252 1.355 1_556 S
C251 C253 1.415 . S
C252 C251 1.355 1_554 S
C252 C254 1.419 . S
C253 C248 1.425 1_556 S
C253 C250 1.409 . S
C253 C251 1.415 . S
C254 H244 0.930 . S
C254 C252 1.419 . S
C254 C255 1.362 . S
C255 H245 0.930 . S
C255 C248 1.409 . S
C255 C254 1.362 . S
H256 C262 0.930 . S
H257 C265 0.930 . S
H258 C266 0.930 . S
H259 C267 0.930 . S
H260 C270 0.930 . S
H261 C271 0.930 . S
C262 H256 0.930 . S
C262 C263 1.355 . S
C262 C264 1.415 . S
C263 C262 1.355 . S
C263 C265 1.419 . S
C264 C262 1.415 . S
C264 C269 1.425 . S
C264 C271 1.409 . S
C265 H257 0.930 . S
C265 C263 1.419 . S
C265 C266 1.362 . S
C266 H258 0.930 . S
C266 C265 1.362 . S
C266 C269 1.409 . S
C267 H259 0.930 . S
C267 C268 1.355 . S
C267 C269 1.415 1_655 S
C268 C267 1.355 . S
C268 C270 1.419 . S
C269 C264 1.425 . S
C269 C266 1.409 . S
C269 C267 1.415 1_455 S
C270 H260 0.930 . S
C270 C268 1.419 . S
C270 C271 1.362 1_655 S
C271 H261 0.930 . S
C271 C264 1.409 . S
C271 C270 1.362 1_455 S
H272 C278 0.930 . S
H273 C281 0.930 . S
H274 C282 0.930 . S
H275 C283 0.930 . S
H276 C286 0.930 . S
H277 C287 0.930 . S
C278 H272 0.930 . S
C278 C279 1.355 . S
C278 C280 1.415 . S
C279 C278 1.355 . S
C279 C281 1.419 . S
C280 C278 1.415 . S
C280 C285 1.425 . S
C280 C287 1.409 . S
C281 H273 0.930 . S
C281 C279 1.419 . S
C281 C282 1.362 . S
C282 H274 0.930 . S
C282 C281 1.362 . S
C282 C285 1.409 . S
C283 H275 0.930 . S
C283 C284 1.355 . S
C283 C285 1.415 1_455 S
C284 C283 1.355 . S
C284 C286 1.419 . S
C285 C280 1.425 . S
C285 C282 1.409 . S
C285 C283 1.415 1_655 S
C286 H276 0.930 . S
C286 C284 1.419 . S
C286 C287 1.362 1_455 S
C287 H277 0.930 . S
C287 C280 1.409 . S
C287 C286 1.362 1_655 S
H288 C294 0.930 . S
H289 C297 0.930 . S
H290 C298 0.930 . S
H291 C299 0.930 . S
H292 C302 0.930 . S
H293 C303 0.930 . S
C294 H288 0.930 . S
C294 C295 1.355 1_655 S
C294 C296 1.415 . S
C295 C294 1.355 1_455 S
C295 C297 1.419 1_554 S
C296 C294 1.415 . S
C296 C301 1.425 1_654 S
C296 C303 1.409 . S
C297 H289 0.930 . S
C297 C295 1.419 1_556 S
C297 C298 1.362 . S
C298 H290 0.930 . S
C298 C297 1.362 . S
C298 C301 1.409 . S
C299 H291 0.930 . S
C299 C300 1.355 1_456 S
C299 C301 1.415 . S
C300 C299 1.355 1_654 S
C300 C302 1.419 . S
C301 C296 1.425 1_456 S
C301 C298 1.409 . S
C301 C299 1.415 . S
C302 H292 0.930 . S
C302 C300 1.419 . S
C302 C303 1.362 . S
C303 H293 0.930 . S
C303 C296 1.409 . S
C303 C302 1.362 . S
H304 C310 0.930 . S
H305 C313 0.930 . S
H306 C314 0.930 . S
H307 C315 0.930 . S
H308 C318 0.930 . S
H309 C319 0.930 . S
C310 H304 0.930 . S
C310 C311 1.355 . S
C310 C312 1.415 . S
C311 C310 1.355 . S
C311 C313 1.419 1_455 S
C312 C310 1.415 . S
C312 C317 1.425 1_455 S
C312 C319 1.409 . S
C313 H305 0.930 . S
C313 C311 1.419 1_655 S
C313 C314 1.362 . S
C314 H306 0.930 . S
C314 C313 1.362 . S
C314 C317 1.409 . S
C315 H307 0.930 . S
C315 C316 1.355 . S
C315 C317 1.415 . S
C316 C315 1.355 . S
C316 C318 1.419 1_655 S
C317 C312 1.425 1_655 S
C317 C314 1.409 . S
C317 C315 1.415 . S
C318 H308 0.930 . S
C318 C316 1.419 1_455 S
C318 C319 1.362 . S
C319 H309 0.930 . S
C319 C312 1.409 . S
C319 C318 1.362 . S
H320 C326 0.930 1_556 S
H321 C329 0.930 . S
H322 C330 0.930 . S
H323 C331 0.930 . S
H324 C334 0.930 . S
H325 C335 0.930 . S
C326 H320 0.930 1_554 S
C326 C327 1.355 . S
C326 C328 1.415 . S
C327 C326 1.355 . S
C327 C329 1.419 . S
C328 C326 1.415 . S
C328 C333 1.425 1_565 S
C328 C335 1.409 1_565 S
C329 H321 0.930 . S
C329 C327 1.419 . S
C329 C330 1.362 . S
C330 H322 0.930 . S
C330 C329 1.362 . S
C330 C333 1.409 1_565 S
C331 H323 0.930 . S
C331 C332 1.355 . S
C331 C333 1.415 . S
C332 C331 1.355 . S
C332 C334 1.419 . S
C333 C328 1.425 1_545 S
C333 C330 1.409 1_545 S
C333 C331 1.415 . S
C334 H324 0.930 . S
C334 C332 1.419 . S
C334 C335 1.362 . S
C335 H325 0.930 . S
C335 C328 1.409 1_545 S
C335 C334 1.362 . S
H336 C342 0.930 . S
H337 C345 0.930 . S
H338 C346 0.930 . S
H339 C347 0.930 . S
H340 C350 0.930 . S
H341 C351 0.930 . S
C342 H336 0.930 . S
C342 C343 1.355 . S
C342 C344 1.415 . S
C343 C342 1.355 . S
C343 C345 1.419 . S
C344 C342 1.415 . S
C344 C349 1.425 1_545 S
C344 C351 1.409 1_545 S
C345 H337 0.930 . S
C345 C343 1.419 . S
C345 C346 1.362 . S
C346 H338 0.930 . S
C346 C345 1.362 . S
C346 C349 1.409 1_545 S
C347 H339 0.930 . S
C347 C348 1.355 . S
C347 C349 1.415 . S
C348 C347 1.355 . S
C348 C350 1.419 . S
C349 C344 1.425 1_565 S
C349 C346 1.409 1_565 S
C349 C347 1.415 . S
C350 H340 0.930 . S
C350 C348 1.419 . S
C350 C351 1.362 . S
C351 H341 0.930 . S
C351 C344 1.409 1_565 S
C351 C350 1.362 . S
H352 C358 0.930 . S
H353 C361 0.930 . S
H354 C362 0.930 . S
H355 C363 0.930 . S
H356 C366 0.930 . S
H357 C367 0.930 . S
C358 H352 0.930 . S
C358 C359 1.355 . S
C358 C360 1.415 . S
C359 C358 1.355 . S
C359 C361 1.419 . S
C360 C358 1.415 . S
C360 C365 1.425 . S
C360 C367 1.409 . S
C361 H353 0.930 . S
C361 C359 1.419 . S
C361 C362 1.362 . S
C362 H354 0.930 . S
C362 C361 1.362 . S
C362 C365 1.409 . S
C363 H355 0.930 . S
C363 C364 1.355 . S
C363 C365 1.415 . S
C364 C363 1.355 . S
C364 C366 1.419 . S
C365 C360 1.425 . S
C365 C362 1.409 . S
C365 C363 1.415 . S
C366 H356 0.930 . S
C366 C364 1.419 . S
C366 C367 1.362 . S
C367 H357 0.930 . S
C367 C360 1.409 . S
C367 C366 1.362 . S
H368 C374 0.930 . S
H369 C377 0.930 . S
H370 C378 0.930 . S
H371 C379 0.930 . S
H372 C382 0.930 . S
H373 C383 0.930 . S
C374 H368 0.930 . S
C374 C375 1.355 . S
C374 C376 1.415 . S
C375 C374 1.355 . S
C375 C377 1.419 1_554 S
C376 C374 1.415 . S
C376 C381 1.425 1_554 S
C376 C383 1.409 . S
C377 H369 0.930 . S
C377 C375 1.419 1_556 S
C377 C378 1.362 . S
C378 H370 0.930 . S
C378 C377 1.362 . S
C378 C381 1.409 . S
C379 H371 0.930 . S
C379 C380 1.355 1_556 S
C379 C381 1.415 . S
C380 C379 1.355 1_554 S
C380 C382 1.419 . S
C381 C376 1.425 1_556 S
C381 C378 1.409 . S
C381 C379 1.415 . S
C382 H372 0.930 . S
C382 C380 1.419 . S
C382 C383 1.362 . S
C383 H373 0.930 . S
C383 C376 1.409 . S
C383 C382 1.362 . S
H384 C390 0.930 . S
H385 C393 0.930 . S
H386 C394 0.930 . S
H387 C395 0.930 . S
H388 C398 0.930 . S
H389 C399 0.930 . S
C390 H384 0.930 . S
C390 C391 1.355 . S
C390 C392 1.415 . S
C391 C390 1.355 . S
C391 C393 1.419 . S
C392 C390 1.415 . S
C392 C397 1.425 . S
C392 C399 1.409 . S
C393 H385 0.930 . S
C393 C391 1.419 . S
C393 C394 1.362 . S
C394 H386 0.930 . S
C394 C393 1.362 . S
C394 C397 1.409 . S
C395 H387 0.930 . S
C395 C396 1.355 . S
C395 C397 1.415 . S
C396 C395 1.355 . S
C396 C398 1.419 . S
C397 C392 1.425 . S
C397 C394 1.409 . S
C397 C395 1.415 . S
C398 H388 0.930 . S
C398 C396 1.419 . S
C398 C399 1.362 . S
C399 H389 0.930 . S
C399 C392 1.409 . S
C399 C398 1.362 . S
H400 C406 0.930 . S
H401 C409 0.930 . S
H402 C410 0.930 . S
H403 C411 0.930 . S
H404 C414 0.930 . S
H405 C415 0.930 . S
C406 H400 0.930 . S
C406 C407 1.355 . S
C406 C408 1.415 . S
C407 C406 1.355 . S
C407 C409 1.419 . S
C408 C406 1.415 . S
C408 C413 1.425 . S
C408 C415 1.409 . S
C409 H401 0.930 . S
C409 C407 1.419 . S
C409 C410 1.362 . S
C410 H402 0.930 . S
C410 C409 1.362 . S
C410 C413 1.409 . S
C411 H403 0.930 . S
C411 C412 1.355 . S
C411 C413 1.415 . S
C412 C411 1.355 . S
C412 C414 1.419 . S
C413 C408 1.425 . S
C413 C410 1.409 . S
C413 C411 1.415 . S
C414 H404 0.930 . S
C414 C412 1.419 . S
C414 C415 1.362 . S
C415 H405 0.930 . S
C415 C408 1.409 . S
C415 C414 1.362 . S
H416 C422 0.930 . S
H417 C425 0.930 . S
H418 C426 0.930 . S
H419 C427 0.930 . S
H420 C430 0.930 . S
H421 C431 0.930 . S
C422 H416 0.930 . S
C422 C423 1.355 . S
C422 C424 1.415 . S
C423 C422 1.355 . S
C423 C425 1.419 1_455 S
C424 C422 1.415 . S
C424 C429 1.425 1_455 S
C424 C431 1.409 . S
C425 H417 0.930 . S
C425 C423 1.419 1_655 S
C425 C426 1.362 . S
C426 H418 0.930 . S
C426 C425 1.362 . S
C426 C429 1.409 . S
C427 H419 0.930 . S
C427 C428 1.355 . S
C427 C429 1.415 . S
C428 C427 1.355 . S
C428 C430 1.419 1_655 S
C429 C424 1.425 1_655 S
C429 C426 1.409 . S
C429 C427 1.415 . S
C430 H420 0.930 . S
C430 C428 1.419 1_455 S
C430 C431 1.362 . S
C431 H421 0.930 . S
C431 C424 1.409 . S
C431 C430 1.362 . S
H432 C438 0.930 . S
H433 C441 0.930 . S
H434 C442 0.930 . S
H435 C443 0.930 . S
H436 C446 0.930 . S
H437 C447 0.930 . S
C438 H432 0.930 . S
C438 C439 1.355 . S
C438 C440 1.415 . S
C439 C438 1.355 . S
C439 C441 1.419 1_655 S
C440 C438 1.415 . S
C440 C445 1.425 1_655 S
C440 C447 1.409 . S
C441 H433 0.930 . S
C441 C439 1.419 1_455 S
C441 C442 1.362 . S
C442 H434 0.930 . S
C442 C441 1.362 . S
C442 C445 1.409 . S
C443 H435 0.930 . S
C443 C444 1.355 . S
C443 C445 1.415 . S
C444 C443 1.355 . S
C444 C446 1.419 1_455 S
C445 C440 1.425 1_455 S
C445 C442 1.409 . S
C445 C443 1.415 . S
C446 H436 0.930 . S
C446 C444 1.419 1_655 S
C446 C447 1.362 . S
C447 H437 0.930 . S
C447 C440 1.409 . S
C447 C446 1.362 . S
H448 C454 0.930 1_455 S
H449 C457 0.930 . S
H450 C458 0.930 . S
H451 C459 0.930 . S
H452 C462 0.930 . S
H453 C463 0.930 . S
C454 H448 0.930 1_655 S
C454 C455 1.355 . S
C454 C456 1.415 1_655 S
C455 C454 1.355 . S
C455 C457 1.419 . S
C456 C454 1.415 1_455 S
C456 C461 1.425 1_455 S
C456 C463 1.409 . S
C457 H449 0.930 . S
C457 C455 1.419 . S
C457 C458 1.362 . S
C458 H450 0.930 . S
C458 C457 1.362 . S
C458 C461 1.409 . S
C459 H451 0.930 . S
C459 C460 1.355 1_655 S
C459 C461 1.415 . S
C460 C459 1.355 1_455 S
C460 C462 1.419 . S
C461 C456 1.425 1_655 S
C461 C458 1.409 . S
C461 C459 1.415 . S
C462 H452 0.930 . S
C462 C460 1.419 . S
C462 C463 1.362 . S
C463 H453 0.930 . S
C463 C456 1.409 . S
C463 C462 1.362 . S
H464 C470 0.930 . S
H465 C473 0.930 . S
H466 C474 0.930 . S
H467 C475 0.930 . S
H468 C478 0.930 . S
H469 C479 0.930 1_655 S
C470 H464 0.930 . S
C470 C471 1.355 . S
C470 C472 1.415 . S
C471 C470 1.355 . S
C471 C473 1.419 . S
C472 C470 1.415 . S
C472 C477 1.425 . S
C472 C479 1.409 1_655 S
C473 H465 0.930 . S
C473 C471 1.419 . S
C473 C474 1.362 . S
C474 H466 0.930 . S
C474 C473 1.362 . S
C474 C477 1.409 . S
C475 H467 0.930 . S
C475 C476 1.355 . S
C475 C477 1.415 1_455 S
C476 C475 1.355 . S
C476 C478 1.419 . S
C477 C472 1.425 . S
C477 C474 1.409 . S
C477 C475 1.415 1_655 S
C478 H468 0.930 . S
C478 C476 1.419 . S
C478 C479 1.362 . S
C479 H469 0.930 1_455 S
C479 C472 1.409 1_455 S
C479 C478 1.362 . S
H480 C486 0.930 . S
H481 C489 0.930 . S
H482 C490 0.930 . S
H483 C491 0.930 . S
H484 C494 0.930 . S
H485 C495 0.930 . S
C486 H480 0.930 . S
C486 C487 1.355 . S
C486 C488 1.415 . S
C487 C486 1.355 . S
C487 C489 1.419 . S
C488 C486 1.415 . S
C488 C493 1.425 . S
C488 C495 1.409 . S
C489 H481 0.930 . S
C489 C487 1.419 . S
C489 C490 1.362 . S
C490 H482 0.930 . S
C490 C489 1.362 . S
C490 C493 1.409 . S
C491 H483 0.930 . S
C491 C492 1.355 . S
C491 C493 1.415 . S
C492 C491 1.355 . S
C492 C494 1.419 . S
C493 C488 1.425 . S
C493 C490 1.409 . S
C493 C491 1.415 . S
C494 H484 0.930 . S
C494 C492 1.419 . S
C494 C495 1.362 . S
C495 H485 0.930 . S
C495 C488 1.409 . S
C495 C494 1.362 . S
H496 C502 0.930 . S
H497 C505 0.930 . S
H498 C506 0.930 . S
H499 C507 0.930 . S
H500 C510 0.930 . S
H501 C511 0.930 . S
C502 H496 0.930 . S
C502 C503 1.355 . S
C502 C504 1.415 . S
C503 C502 1.355 . S
C503 C505 1.419 . S
C504 C502 1.415 . S
C504 C509 1.425 . S
C504 C511 1.409 . S
C505 H497 0.930 . S
C505 C503 1.419 . S
C505 C506 1.362 . S
C506 H498 0.930 . S
C506 C505 1.362 . S
C506 C509 1.409 . S
C507 H499 0.930 . S
C507 C508 1.355 . S
C507 C509 1.415 . S
C508 C507 1.355 . S
C508 C510 1.419 . S
C509 C504 1.425 . S
C509 C506 1.409 . S
C509 C507 1.415 . S
C510 H500 0.930 . S
C510 C508 1.419 . S
C510 C511 1.362 . S
C511 H501 0.930 . S
C511 C504 1.409 . S
C511 C510 1.362 . S
H512 C518 0.930 . S
H513 C521 0.930 . S
H514 C522 0.930 . S
H515 C523 0.930 . S
H516 C526 0.930 . S
H517 C527 0.930 . S
C518 H512 0.930 . S
C518 C519 1.355 . S
C518 C520 1.415 . S
C519 C518 1.355 . S
C519 C521 1.419 . S
C520 C518 1.415 . S
C520 C525 1.425 . S
C520 C527 1.409 . S
C521 H513 0.930 . S
C521 C519 1.419 . S
C521 C522 1.362 . S
C522 H514 0.930 . S
C522 C521 1.362 . S
C522 C525 1.409 . S
C523 H515 0.930 . S
C523 C524 1.355 . S
C523 C525 1.415 . S
C524 C523 1.355 . S
C524 C526 1.419 . S
C525 C520 1.425 . S
C525 C522 1.409 . S
C525 C523 1.415 . S
C526 H516 0.930 . S
C526 C524 1.419 . S
C526 C527 1.362 . S
C527 H517 0.930 . S
C527 C520 1.409 . S
C527 C526 1.362 . S
H528 C534 0.930 . S
H529 C537 0.930 . S
H530 C538 0.930 . S
H531 C539 0.930 . S
H532 C542 0.930 . S
H533 C543 0.930 . S
C534 H528 0.930 . S
C534 C535 1.355 . S
C534 C536 1.415 . S
C535 C534 1.355 . S
C535 C537 1.419 . S
C536 C534 1.415 . S
C536 C541 1.425 . S
C536 C543 1.409 . S
C537 H529 0.930 . S
C537 C535 1.419 . S
C537 C538 1.362 . S
C538 H530 0.930 . S
C538 C537 1.362 . S
C538 C541 1.409 . S
C539 H531 0.930 . S
C539 C540 1.355 . S
C539 C541 1.415 . S
C540 C539 1.355 . S
C540 C542 1.419 . S
C541 C536 1.425 . S
C541 C538 1.409 . S
C541 C539 1.415 . S
C542 H532 0.930 . S
C542 C540 1.419 . S
C542 C543 1.362 . S
C543 H533 0.930 . S
C543 C536 1.409 . S
C543 C542 1.362 . S
C167 C6 1.644 . S
C172 C16 1.644 . S
C183 C26 1.569 . S
C188 C36 1.569 . S
C199 C56 1.570 . S
C204 C46 1.570 . S
C215 C76 1.567 . S
C220 C66 1.567 . S
C231 C86 1.648 . S
C236 C96 1.648 . S
C247 C116 1.603 . S
C252 C106 1.603 . S
C263 C136 1.623 . S
C268 C126 1.623 . S
C279 C146 1.644 . S
C284 C156 1.644 . S
C295 C39 1.611 1_455 S
C300 C8 1.611 1_655 S
C311 C79 1.522 1_455 S
C316 C48 1.522 1_655 S
C327 C88 1.526 . S
C332 C119 1.526 . S
C343 C128 1.520 . S
C348 C159 1.520 . S
C359 C19 1.557 . S
C364 C108 1.557 . S
C375 C99 1.538 . S
C380 C28 1.538 . S
C391 C59 1.557 . S
C396 C148 1.557 . S
C407 C68 1.498 . S
C412 C139 1.498 . S
C423 C1 1.534 . S
C428 C61 1.599 . S
C439 C21 1.599 . S
C444 C41 1.534 . S
C455 C29 1.584 . S
C460 C49 1.609 . S
C471 C69 1.569 . S
C476 C9 1.620 . S
C487 C81 1.536 . S
C492 C141 1.596 . S
C503 C101 1.617 . S
C508 C121 1.559 . S
C519 C109 1.584 . S
C524 C129 1.609 . S
C535 C149 1.567 . S
C540 C89 1.602 . S
