# Generated by pormake.
# Topology uoq, (4)-cn, num edge types: 1
# Building blocks:
#     Node 0, Type 0, BuildingBlock: QUQFOY_clean_sbu_1, # of connection points: 4
#     Node 1, Type 0, BuildingBlock: QUQFOY_clean_sbu_1, # of connection points: 4
#     Node 2, Type 0, BuildingBlock: QUQFOY_clean_sbu_1, # of connection points: 4
#     Node 3, Type 0, BuildingBlock: QUQFOY_clean_sbu_1, # of connection points: 4
#     Node 4, Type 0, BuildingBlock: QUQFOY_clean_sbu_1, # of connection points: 4
#     Node 5, Type 0, BuildingBlock: QUQFOY_clean_sbu_1, # of connection points: 4
#     Node 6, Type 0, BuildingBlock: QUQFOY_clean_sbu_1, # of connection points: 4
#     Node 7, Type 0, BuildingBlock: QUQFOY_clean_sbu_1, # of connection points: 4
#     Node 8, Type 0, BuildingBlock: QUQFOY_clean_sbu_1, # of connection points: 4
#     Node 9, Type 0, BuildingBlock: QUQFOY_clean_sbu_1, # of connection points: 4
#     Node 10, Type 0, BuildingBlock: QUQFOY_clean_sbu_1, # of connection points: 4
#     Node 11, Type 0, BuildingBlock: QUQFOY_clean_sbu_1, # of connection points: 4
#     Edge 12, Type (0, 0), BuildingBlock: XIVTED_clean_linker_0, # of connection points: 2
#     Edge 13, Type (0, 0), BuildingBlock: XIVTED_clean_linker_0, # of connection points: 2
#     Edge 14, Type (0, 0), BuildingBlock: XIVTED_clean_linker_0, # of connection points: 2
#     Edge 15, Type (0, 0), BuildingBlock: XIVTED_clean_linker_0, # of connection points: 2
#     Edge 16, Type (0, 0), BuildingBlock: XIVTED_clean_linker_0, # of connection points: 2
#     Edge 17, Type (0, 0), BuildingBlock: XIVTED_clean_linker_0, # of connection points: 2
#     Edge 18, Type (0, 0), BuildingBlock: XIVTED_clean_linker_0, # of connection points: 2
#     Edge 19, Type (0, 0), BuildingBlock: XIVTED_clean_linker_0, # of connection points: 2
#     Edge 20, Type (0, 0), BuildingBlock: XIVTED_clean_linker_0, # of connection points: 2
#     Edge 21, Type (0, 0), BuildingBlock: XIVTED_clean_linker_0, # of connection points: 2
#     Edge 22, Type (0, 0), BuildingBlock: XIVTED_clean_linker_0, # of connection points: 2
#     Edge 23, Type (0, 0), BuildingBlock: XIVTED_clean_linker_0, # of connection points: 2
#     Edge 24, Type (0, 0), BuildingBlock: XIVTED_clean_linker_0, # of connection points: 2
#     Edge 25, Type (0, 0), BuildingBlock: XIVTED_clean_linker_0, # of connection points: 2
#     Edge 26, Type (0, 0), BuildingBlock: XIVTED_clean_linker_0, # of connection points: 2
#     Edge 27, Type (0, 0), BuildingBlock: XIVTED_clean_linker_0, # of connection points: 2
#     Edge 28, Type (0, 0), BuildingBlock: XIVTED_clean_linker_0, # of connection points: 2
#     Edge 29, Type (0, 0), BuildingBlock: XIVTED_clean_linker_0, # of connection points: 2
#     Edge 30, Type (0, 0), BuildingBlock: XIVTED_clean_linker_0, # of connection points: 2
#     Edge 31, Type (0, 0), BuildingBlock: XIVTED_clean_linker_0, # of connection points: 2
#     Edge 32, Type (0, 0), BuildingBlock: XIVTED_clean_linker_0, # of connection points: 2
#     Edge 33, Type (0, 0), BuildingBlock: XIVTED_clean_linker_0, # of connection points: 2
#     Edge 34, Type (0, 0), BuildingBlock: XIVTED_clean_linker_0, # of connection points: 2
#     Edge 35, Type (0, 0), BuildingBlock: XIVTED_clean_linker_0, # of connection points: 2
# Relax obj value: 0.145
# Max RMSD: 0.205
# Mean RMSD: 0.205
data_MOF--net-uoq--node1-QUQFOY_clean_sbu_1--edge1-XIVTED_clean_linker_0
_symmetry_space_group_name_H-M    P1
_symmetry_Int_Tables_number       1
_symmetry_cell_setting            triclinic
loop_
_symmetry_equiv_pos_as_xyz
'x, y, z'
_cell_length_a     64.508454
_cell_length_b     64.488452
_cell_length_c     23.412355
_cell_angle_alpha  89.937837
_cell_angle_beta   90.050949
_cell_angle_gamma 119.94096
loop_
_atom_site_label
_atom_site_type_symbol
_atom_site_fract_x
_atom_site_fract_y
_atom_site_fract_z
_atom_type_partial_charge
O0 O 0.28326 0.46725 0.31234 0.0
Cd1 Cd 0.30423 0.47075 0.24259 0.0
Cd2 Cd 0.31456 0.44087 0.31652 0.0
O3 O 0.28796 0.44097 0.36301 0.0
O4 O 0.29517 0.489 0.18939 0.0
O5 O 0.28682 0.45198 0.172 0.0
C6 C 0.28503 0.47033 0.15734 0.0
C7 C 0.3167 0.40585 0.32291 0.0
C8 C 0.27835 0.45376 0.3557 0.0
C9 C 0.35469 0.49045 0.28571 0.0
O10 O 0.34705 0.47185 0.31654 0.0
O11 O 0.34097 0.49265 0.25017 0.0
O12 O 0.3214 0.41994 0.36577 0.0
O13 O 0.31049 0.41149 0.27554 0.0
O14 O 0.81291 0.28918 0.62773 0.0
Cd15 Cd 0.83132 0.30861 0.55699 0.0
Cd16 Cd 0.86879 0.31304 0.62332 0.0
O17 O 0.84137 0.28251 0.6579 0.0
O18 O 0.80531 0.30062 0.5008 0.0
O19 O 0.83282 0.29009 0.48923 0.0
C20 C 0.81349 0.28936 0.47153 0.0
C21 C 0.90635 0.31597 0.62712 0.0
C22 C 0.8199 0.27805 0.65994 0.0
C23 C 0.86226 0.35596 0.60672 0.0
O24 O 0.86987 0.34518 0.63844 0.0
O25 O 0.84885 0.3453 0.56432 0.0
O26 O 0.89556 0.31683 0.67241 0.0
O27 O 0.89559 0.31301 0.57876 0.0
O28 O 0.52339 0.81619 0.9736 0.0
Cd29 Cd 0.52217 0.83402 0.90183 0.0
Cd30 Cd 0.55401 0.87232 0.97029 0.0
O31 O 0.55738 0.84536 0.00717 0.0
O32 O 0.50416 0.80728 0.84731 0.0
O33 O 0.54195 0.83493 0.83398 0.0
C34 C 0.52342 0.8153 0.81752 0.0
C35 C 0.58791 0.91039 0.97487 0.0
C36 C 0.5409 0.82365 0.00792 0.0
C37 C 0.50425 0.86433 0.94902 0.0
O38 O 0.52232 0.87246 0.98188 0.0
O39 O 0.50228 0.8509 0.90726 0.0
O40 O 0.5759 0.89956 0.01974 0.0
O41 O 0.58095 0.89938 0.92658 0.0
O42 O 0.70466 0.52332 0.31376 0.0
Cd43 Cd 0.68538 0.52211 0.24244 0.0
Cd44 Cd 0.6792 0.55393 0.31218 0.0
O45 O 0.70958 0.55723 0.34837 0.0
O46 O 0.69342 0.5034 0.18832 0.0
O47 O 0.70409 0.54128 0.17361 0.0
C48 C 0.70473 0.52243 0.1577 0.0
C49 C 0.67484 0.58778 0.31634 0.0
C50 C 0.71478 0.5407 0.34839 0.0
C51 C 0.63744 0.50429 0.29132 0.0
O52 O 0.64753 0.52221 0.32449 0.0
O53 O 0.64865 0.50247 0.24881 0.0
O54 O 0.67382 0.57589 0.36139 0.0
O55 O 0.67891 0.58076 0.26815 0.0
O56 O 0.1754 0.70467 0.63726 0.0
Cd57 Cd 0.15582 0.68497 0.56796 0.0
Cd58 Cd 0.1198 0.68065 0.64063 0.0
O59 O 0.14774 0.71158 0.67203 0.0
O60 O 0.18139 0.69177 0.51131 0.0
O61 O 0.15472 0.70336 0.49916 0.0
C62 C 0.17363 0.70327 0.48145 0.0
C63 C 0.08194 0.67685 0.6478 0.0
C64 C 0.16921 0.71598 0.67101 0.0
C65 C 0.12619 0.638 0.62113 0.0
O66 O 0.11975 0.64901 0.65529 0.0
O67 O 0.138 0.6483 0.57639 0.0
O68 O 0.09361 0.67668 0.69216 0.0
O69 O 0.09203 0.67977 0.59855 0.0
O70 O 0.45963 0.17424 0.97783 0.0
Cd71 Cd 0.46361 0.15718 0.90792 0.0
Cd72 Cd 0.43529 0.11682 0.98592 0.0
O73 O 0.4351 0.14355 0.03167 0.0
O74 O 0.48232 0.18514 0.85686 0.0
O75 O 0.44562 0.15668 0.83639 0.0
C76 C 0.46406 0.177 0.82355 0.0
C77 C 0.40119 0.07918 0.99568 0.0
C78 C 0.44697 0.16587 0.02246 0.0
C79 C 0.4849 0.12754 0.95063 0.0
O80 O 0.46688 0.11648 0.98312 0.0
O81 O 0.48608 0.14294 0.91478 0.0
O82 O 0.41588 0.08929 0.0372 0.0
O83 O 0.40568 0.09058 0.9478 0.0
O84 O 0.52579 0.70825 0.35132 0.0
Cd85 Cd 0.52419 0.68901 0.42308 0.0
Cd86 Cd 0.55574 0.6823 0.35378 0.0
O87 O 0.55981 0.71305 0.31791 0.0
O88 O 0.50532 0.69725 0.47617 0.0
O89 O 0.54304 0.70772 0.49223 0.0
C90 C 0.52418 0.70849 0.50732 0.0
C91 C 0.58907 0.67709 0.35005 0.0
C92 C 0.54336 0.71836 0.31722 0.0
C93 C 0.50585 0.64103 0.37425 0.0
O94 O 0.5237 0.651 0.34083 0.0
O95 O 0.50432 0.65228 0.41706 0.0
O96 O 0.57747 0.67648 0.30482 0.0
O97 O 0.58208 0.68124 0.39818 0.0
O98 O 0.81381 0.52324 0.69149 0.0
Cd99 Cd 0.83125 0.52181 0.76374 0.0
Cd100 Cd 0.87006 0.55481 0.6971 0.0
O101 O 0.84287 0.55785 0.6604 0.0
O102 O 0.80432 0.50356 0.81765 0.0
O103 O 0.8318 0.54138 0.83166 0.0
C104 C 0.81216 0.52276 0.84766 0.0
C105 C 0.90793 0.58893 0.68984 0.0
C106 C 0.82129 0.5411 0.65824 0.0
C107 C 0.86248 0.50493 0.71719 0.0
O108 O 0.87076 0.52337 0.6855 0.0
O109 O 0.84848 0.50227 0.75822 0.0
O110 O 0.8967 0.57647 0.64587 0.0
O111 O 0.89747 0.5823 0.73883 0.0
O112 O 0.28604 0.81189 0.01492 0.0
Cd113 Cd 0.30382 0.82821 0.0891 0.0
Cd114 Cd 0.31017 0.86786 0.02727 0.0
O115 O 0.28073 0.84147 0.98664 0.0
O116 O 0.2944 0.80063 0.14142 0.0
O117 O 0.28396 0.82806 0.15586 0.0
C118 C 0.28272 0.80821 0.17111 0.0
C119 C 0.31319 0.9055 0.0259 0.0
C120 C 0.27607 0.81999 0.98212 0.0
C121 C 0.35246 0.86051 0.04731 0.0
O122 O 0.34265 0.86928 0.01595 0.0
O123 O 0.34061 0.84569 0.08658 0.0
O124 O 0.3152 0.89561 0.98024 0.0
O125 O 0.30907 0.89383 0.07327 0.0
O126 O 0.46189 0.28294 0.36077 0.0
Cd127 Cd 0.46568 0.30445 0.42952 0.0
Cd128 Cd 0.43609 0.31448 0.35522 0.0
O129 O 0.43519 0.28701 0.31039 0.0
O130 O 0.48366 0.29534 0.48338 0.0
O131 O 0.44681 0.28756 0.50039 0.0
C132 C 0.46497 0.2855 0.51538 0.0
C133 C 0.40145 0.31732 0.35054 0.0
C134 C 0.44802 0.27746 0.31803 0.0
C135 C 0.48597 0.35448 0.38359 0.0
O136 O 0.46742 0.34667 0.35254 0.0
O137 O 0.48791 0.34109 0.4206 0.0
O138 O 0.41488 0.32118 0.30671 0.0
O139 O 0.40752 0.31151 0.39788 0.0
O140 O 0.174 0.46474 0.69351 0.0
Cd141 Cd 0.15669 0.46801 0.76379 0.0
Cd142 Cd 0.11621 0.43839 0.68788 0.0
O143 O 0.14326 0.4392 0.64127 0.0
O144 O 0.18428 0.48639 0.81602 0.0
O145 O 0.15586 0.44941 0.83438 0.0
C146 C 0.17604 0.46781 0.84833 0.0
C147 C 0.07898 0.40383 0.67606 0.0
C148 C 0.16561 0.4518 0.6493 0.0
C149 C 0.12577 0.48786 0.72224 0.0
O150 O 0.11474 0.4694 0.69109 0.0
O151 O 0.14184 0.48996 0.75713 0.0
O152 O 0.08913 0.41901 0.63546 0.0
O153 O 0.0901 0.40806 0.72425 0.0
O154 O 0.7046 0.17912 0.00549 0.0
Cd155 Cd 0.68658 0.16157 0.07849 0.0
Cd156 Cd 0.67948 0.12309 0.00897 0.0
O157 O 0.70926 0.15001 0.97065 0.0
O158 O 0.695 0.18882 0.13117 0.0
O159 O 0.70639 0.16217 0.14617 0.0
C160 C 0.7069 0.18166 0.16141 0.0
C161 C 0.67538 0.08503 0.00389 0.0
C162 C 0.7143 0.17168 0.9701 0.0
C163 C 0.63791 0.13079 0.03406 0.0
O164 O 0.64753 0.1229 -0.00041 0.0
O165 O 0.64978 0.14409 0.07561 0.0
O166 O 0.67371 0.09576 0.95933 0.0
O167 O 0.67989 0.09613 0.05214 0.0
H168 H 0.32122 0.38534 0.4203 0.0
H169 H 0.37982 0.32094 0.25417 0.0
H170 H 0.32056 0.3792 0.23671 0.0
H171 H 0.37671 0.32338 0.43799 0.0
H172 H 0.35134 0.33522 0.24737 0.0
H173 H 0.33442 0.35604 0.42803 0.0
C174 C 0.32353 0.37754 0.38157 0.0
C175 C 0.32028 0.38506 0.32769 0.0
C176 C 0.35655 0.33228 0.28925 0.0
C177 C 0.33567 0.35169 0.33624 0.0
C178 C 0.37284 0.32415 0.29319 0.0
C179 C 0.38099 0.32146 0.34676 0.0
C180 C 0.34859 0.3381 0.33925 0.0
C181 C 0.37109 0.32548 0.39584 0.0
C182 C 0.33104 0.36077 0.38604 0.0
C183 C 0.32313 0.37409 0.27904 0.0
N184 N 0.35572 0.33405 0.3909 0.0
N185 N 0.33111 0.35825 0.28443 0.0
H186 H 0.93816 0.32465 0.54011 0.0
H187 H 0.04778 0.37376 0.75737 0.0
H188 H 0.93083 0.31754 0.72341 0.0
H189 H 0.05474 0.38746 0.57591 0.0
H190 H 0.0053 0.34477 0.74337 0.0
H191 H 0.981 0.33914 0.55027 0.0
C192 C 0.94547 0.32572 0.58237 0.0
C193 C 0.93105 0.32039 0.63105 0.0
C194 C 0.01623 0.35386 0.70652 0.0
C195 C 0.97994 0.33708 0.64308 0.0
C196 C 0.04047 0.37036 0.71452 0.0
C197 C 0.05463 0.38338 0.66791 0.0
C198 C 0.00619 0.35047 0.65159 0.0
C199 C 0.04433 0.37815 0.61322 0.0
C200 C 0.96993 0.33404 0.5882 0.0
C201 C 0.94141 0.32191 0.68477 0.0
N202 N 0.02067 0.36234 0.60666 0.0
N203 N 0.96528 0.33044 0.68941 0.0
H204 H 0.6093 0.93554 0.07158 0.0
H205 H 0.67113 0.05984 0.90695 0.0
H206 H 0.61151 0.94208 0.88789 0.0
H207 H 0.66777 0.05335 0.09067 0.0
H208 H 0.65615 0.01699 0.89924 0.0
H209 H 0.63725 0.97836 0.07911 0.0
C210 C 0.61592 0.94595 0.03272 0.0
C211 C 0.60774 0.93532 0.97899 0.0
C212 C 0.65898 0.02494 0.94129 0.0
C213 C 0.63961 0.98444 0.98741 0.0
C214 C 0.66754 0.04943 0.94577 0.0
C215 C 0.67029 0.06009 -0.00042 0.0
C216 C 0.6529 0.01093 0.99097 0.0
C217 C 0.66568 0.04581 0.04834 0.0
C218 C 0.6319 0.97042 0.0371 0.0
C219 C 0.61717 0.9496 0.93016 0.0
N220 N 0.65685 0.02186 0.04286 0.0
N221 N 0.63235 0.97353 0.93557 0.0
H222 H 0.6685 0.61247 0.22887 0.0
H223 H 0.61285 0.66962 0.43782 0.0
H224 H 0.66896 0.60793 0.41279 0.0
H225 H 0.60923 0.67104 0.25384 0.0
H226 H 0.64018 0.65377 0.42961 0.0
H227 H 0.65362 0.6406 0.23728 0.0
C228 C 0.66583 0.61767 0.27099 0.0
C229 C 0.66957 0.60754 0.32015 0.0
C230 C 0.63365 0.65785 0.39103 0.0
C231 C 0.6524 0.6395 0.33016 0.0
C232 C 0.6181 0.66696 0.39574 0.0
C233 C 0.60844 0.67125 0.34648 0.0
C234 C 0.63948 0.65297 0.3367 0.0
C235 C 0.61595 0.66762 0.293 0.0
C236 C 0.65729 0.63368 0.27581 0.0
C237 C 0.66596 0.61502 0.37369 0.0
N238 N 0.63078 0.65841 0.28954 0.0
N239 N 0.6573 0.63031 0.37725 0.0
H240 H 0.93166 0.60983 0.5913 0.0
H241 H 0.05814 0.67419 0.74621 0.0
H242 H 0.94068 0.61333 0.77439 0.0
H243 H 0.04899 0.66766 0.56322 0.0
H244 H 0.01539 0.65913 0.75701 0.0
H245 H 0.97429 0.63793 0.58042 0.0
C246 C 0.94258 0.61677 0.62933 0.0
C247 C 0.93271 0.6089 0.68386 0.0
C248 C 0.02274 0.66129 0.71443 0.0
C249 C 0.98161 0.64096 0.67159 0.0
C250 C 0.04718 0.6699 0.70818 0.0
C251 C 0.05706 0.67176 0.65372 0.0
C252 C 0.00802 0.65431 0.6659 0.0
C253 C 0.04207 0.66626 0.60602 0.0
C254 C 0.96694 0.63284 0.62303 0.0
C255 C 0.94761 0.61875 0.73155 0.0
N256 N 0.0182 0.65743 0.61327 0.0
N257 N 0.97143 0.63401 0.72428 0.0
H258 H 0.31395 0.93061 0.93162 0.0
H259 H 0.38374 0.05427 0.09475 0.0
H260 H 0.32275 0.93675 0.11468 0.0
H261 H 0.37272 0.04811 0.9123 0.0
H262 H 0.35502 0.01174 0.1047 0.0
H263 H 0.32856 0.97343 0.92571 0.0
C264 C 0.31863 0.94094 0.97074 0.0
C265 C 0.31759 0.93023 0.02366 0.0
C266 C 0.35858 0.01971 0.06253 0.0
C267 C 0.33463 0.97935 0.01709 0.0
C268 C 0.37502 0.04401 0.05678 0.0
C269 C 0.38096 0.05461 0.00245 0.0
C270 C 0.34821 0.00582 0.01353 0.0
C271 C 0.36885 0.04057 0.95491 0.0
C272 C 0.32697 0.96541 0.96731 0.0
C273 C 0.32351 0.94436 0.07297 0.0
N274 N 0.35332 0.01677 0.96146 0.0
N275 N 0.3322 0.96832 0.0684 0.0
H276 H 0.17054 0.429 0.90999 0.0
H277 H 0.28516 0.50821 0.10575 0.0
H278 H 0.21486 0.50571 0.89647 0.0
H279 H 0.25097 0.43121 0.09824 0.0
H280 H 0.258 0.50721 0.03215 0.0
H281 H 0.19764 0.42899 0.98381 0.0
C282 C 0.18578 0.44584 0.923 0.0
C283 C 0.19044 0.46739 0.89707 0.0
C284 C 0.25647 0.4905 0.0462 0.0
C285 C 0.22153 0.46748 0.9808 0.0
C286 C 0.27204 0.49107 0.0882 0.0
C287 C 0.27035 0.46976 0.10814 0.0
C288 C 0.23881 0.46844 0.02415 0.0
C289 C 0.25298 0.44807 0.08381 0.0
C290 C 0.20133 0.4458 0.96472 0.0
C291 C 0.21056 0.48866 0.91517 0.0
N292 N 0.23773 0.44794 0.04331 0.0
N293 N 0.22531 0.48815 0.9558 0.0
H294 H 0.81922 0.25536 0.41398 0.0
H295 H 0.70649 0.21969 0.21045 0.0
H296 H 0.77616 0.28941 0.41731 0.0
H297 H 0.7417 0.17783 0.22085 0.0
H298 H 0.73337 0.24641 0.28345 0.0
H299 H 0.79313 0.22836 0.33889 0.0
C300 C 0.80448 0.25735 0.39847 0.0
C301 C 0.79984 0.27465 0.42198 0.0
C302 C 0.73521 0.23134 0.2701 0.0
C303 C 0.76988 0.24375 0.33678 0.0
C304 C 0.71979 0.21601 0.22842 0.0
C305 C 0.72181 0.19646 0.20953 0.0
C306 C 0.753 0.22729 0.29307 0.0
C307 C 0.73944 0.19262 0.23442 0.0
C308 C 0.7895 0.24182 0.35597 0.0
C309 C 0.7804 0.27631 0.4006 0.0
N310 N 0.75447 0.20799 0.27477 0.0
N311 N 0.76616 0.26106 0.3594 0.0
H312 H 0.56291 0.82101 0.75892 0.0
H313 H 0.48576 0.70768 0.55761 0.0
H314 H 0.48602 0.77711 0.76593 0.0
H315 H 0.56277 0.74296 0.56715 0.0
H316 H 0.48596 0.73435 0.63137 0.0
H317 H 0.56371 0.7946 0.68451 0.0
C318 C 0.5462 0.806 0.74439 0.0
C319 C 0.52437 0.80126 0.76867 0.0
C320 C 0.50285 0.73623 0.61769 0.0
C321 C 0.52516 0.77093 0.6842 0.0
C322 C 0.50274 0.72094 0.57558 0.0
C323 C 0.52429 0.72307 0.55619 0.0
C324 C 0.52469 0.75402 0.64049 0.0
C325 C 0.54574 0.74062 0.58109 0.0
C326 C 0.54669 0.79084 0.70229 0.0
C327 C 0.50328 0.78145 0.74857 0.0
N328 N 0.54542 0.75555 0.62177 0.0
N329 N 0.50422 0.76706 0.70765 0.0
H330 H 0.70361 0.48417 0.10563 0.0
H331 H 0.81772 0.56204 0.90707 0.0
H332 H 0.73946 0.56129 0.09907 0.0
H333 H 0.77362 0.48519 0.89786 0.0
H334 H 0.79108 0.56258 0.98118 0.0
H335 H 0.73032 0.48463 0.03165 0.0
C336 C 0.71701 0.50123 0.08825 0.0
C337 C 0.71929 0.52273 0.10858 0.0
C338 C 0.78732 0.54562 0.96297 0.0
C339 C 0.7503 0.52342 0.02404 0.0
C340 C 0.80261 0.54528 0.92103 0.0
C341 C 0.79789 0.52353 0.89625 0.0
C342 C 0.7673 0.52404 0.98038 0.0
C343 C 0.77796 0.50238 0.91564 0.0
C344 C 0.73233 0.50149 0.04602 0.0
C345 C 0.737 0.54429 0.08441 0.0
N346 N 0.76344 0.50318 0.95642 0.0
N347 N 0.75196 0.54411 0.04362 0.0
H348 H 0.16944 0.73807 0.42309 0.0
H349 H 0.28086 0.76886 0.21924 0.0
H350 H 0.20965 0.70102 0.42662 0.0
H351 H 0.24884 0.81364 0.23016 0.0
H352 H 0.25314 0.74262 0.29173 0.0
H353 H 0.19598 0.7642 0.34737 0.0
C354 C 0.18363 0.73523 0.40746 0.0
C355 C 0.18738 0.71737 0.43127 0.0
C356 C 0.25218 0.75822 0.27858 0.0
C357 C 0.21785 0.74726 0.34535 0.0
C358 C 0.26808 0.77328 0.2372 0.0
C359 C 0.26723 0.79353 0.21867 0.0
C360 C 0.23509 0.76327 0.3016 0.0
C361 C 0.25022 0.79829 0.24347 0.0
C362 C 0.19887 0.75026 0.3646 0.0
C363 C 0.20614 0.7146 0.40971 0.0
N364 N 0.23472 0.7832 0.28356 0.0
N365 N 0.22065 0.72939 0.36817 0.0
H366 H 0.50248 0.21542 0.77585 0.0
H367 H 0.42559 0.25237 0.57535 0.0
H368 H 0.42567 0.17256 0.76204 0.0
H369 H 0.50237 0.28452 0.56653 0.0
H370 H 0.42477 0.22497 0.64948 0.0
H371 H 0.50232 0.24234 0.7031 0.0
C372 C 0.48556 0.21155 0.75711 0.0
C373 C 0.46405 0.19168 0.77498 0.0
C374 C 0.44177 0.23811 0.6314 0.0
C375 C 0.46369 0.22275 0.69196 0.0
C376 C 0.44227 0.25388 0.58953 0.0
C377 C 0.46408 0.27075 0.56475 0.0
C378 C 0.46325 0.23941 0.64879 0.0
C379 C 0.48514 0.27178 0.58431 0.0
C380 C 0.48547 0.22699 0.7156 0.0
C381 C 0.44267 0.1876 0.74919 0.0
N382 N 0.48419 0.25634 0.62504 0.0
N383 N 0.443 0.20312 0.70918 0.0
H384 H 0.1567 0.44215 0.53589 0.0
H385 H 0.27683 0.4427 0.46835 0.0
H386 H 0.21168 0.46174 0.6637 0.0
H387 H 0.24232 0.46396 0.34177 0.0
H388 H 0.24934 0.44245 0.54065 0.0
H389 H 0.18442 0.44293 0.46342 0.0
C390 C 0.17457 0.44649 0.54868 0.0
C391 C 0.182 0.45188 0.60572 0.0
C392 C 0.24787 0.44719 0.49703 0.0
C393 C 0.21344 0.45255 0.52357 0.0
C394 C 0.26339 0.4472 0.45579 0.0
C395 C 0.26175 0.45335 0.39916 0.0
C396 C 0.23033 0.45285 0.48113 0.0
C397 C 0.24417 0.45922 0.3851 0.0
C398 C 0.19034 0.44707 0.50736 0.0
C399 C 0.20535 0.45757 0.62008 0.0
N400 N 0.22893 0.45862 0.42586 0.0
N401 N 0.22025 0.45756 0.57922 0.0
H402 H 0.82459 0.24367 0.71677 0.0
H403 H 0.71943 0.21444 0.93531 0.0
H404 H 0.77844 0.27403 0.70106 0.0
H405 H 0.74563 0.16557 0.90378 0.0
H406 H 0.7447 0.23986 0.85767 0.0
H407 H 0.79891 0.21758 0.79297 0.0
C408 C 0.80898 0.24474 0.72918 0.0
C409 C 0.80359 0.26101 0.7027 0.0
C410 C 0.74487 0.22356 0.86785 0.0
C411 C 0.77449 0.23157 0.79006 0.0
C412 C 0.73063 0.20916 0.91235 0.0
C413 C 0.73045 0.18788 0.92586 0.0
C414 C 0.75924 0.21678 0.83737 0.0
C415 C 0.74518 0.1818 0.89454 0.0
C416 C 0.79436 0.22986 0.77253 0.0
C417 C 0.78315 0.26166 0.72025 0.0
N418 N 0.75909 0.19625 0.8518 0.0
N419 N 0.76941 0.24727 0.76332 0.0
H420 H 0.50373 0.78108 0.04472 0.0
H421 H 0.58174 0.75109 0.2554 0.0
H422 H 0.57925 0.82948 0.07022 0.0
H423 H 0.50603 0.72332 0.27955 0.0
H424 H 0.58147 0.77676 0.17866 0.0
H425 H 0.50456 0.75575 0.12145 0.0
C426 C 0.52051 0.78626 0.06613 0.0
C427 C 0.54145 0.80741 0.05129 0.0
C428 C 0.56498 0.76512 0.20107 0.0
C429 C 0.54247 0.77861 0.13869 0.0
C430 C 0.5651 0.75049 0.24472 0.0
C431 C 0.54387 0.73511 0.27379 0.0
C432 C 0.54341 0.76399 0.18587 0.0
C433 C 0.52281 0.73502 0.25837 0.0
C434 C 0.52092 0.77191 0.1101 0.0
C435 C 0.56269 0.81337 0.08059 0.0
N436 N 0.52306 0.74911 0.21502 0.0
N437 N 0.56269 0.79896 0.12287 0.0
H438 H 0.72029 0.5033 0.38318 0.0
H439 H 0.82694 0.57989 0.59809 0.0
H440 H 0.74712 0.57861 0.41201 0.0
H441 H 0.77962 0.5038 0.6178 0.0
H442 H 0.80147 0.5801 0.52091 0.0
H443 H 0.74625 0.50355 0.45967 0.0
C444 C 0.73179 0.51992 0.40525 0.0
C445 C 0.73154 0.54096 0.39144 0.0
C446 C 0.79665 0.56342 0.54241 0.0
C447 C 0.76113 0.54133 0.47861 0.0
C448 C 0.81114 0.56326 0.58632 0.0
C449 C 0.80532 0.54179 0.61433 0.0
C450 C 0.77648 0.5419 0.52587 0.0
C451 C 0.78466 0.52076 0.59749 0.0
C452 C 0.74643 0.52 0.4491 0.0
C453 C 0.7467 0.56198 0.42157 0.0
N454 N 0.77105 0.5213 0.55393 0.0
N455 N 0.76097 0.56165 0.46374 0.0
H456 H 0.2118 0.72033 0.70426 0.0
H457 H 0.24424 0.82728 0.92093 0.0
H458 H 0.16565 0.75 0.73252 0.0
H459 H 0.27163 0.77865 0.93866 0.0
H460 H 0.21907 0.80304 0.84189 0.0
H461 H 0.23835 0.74622 0.77966 0.0
C462 C 0.2074 0.73247 0.72589 0.0
C463 C 0.18646 0.73297 0.71243 0.0
C464 C 0.23055 0.79768 0.86327 0.0
C465 C 0.21662 0.76246 0.79834 0.0
C466 C 0.24491 0.81147 0.90828 0.0
C467 C 0.25996 0.80488 0.93642 0.0
C468 C 0.23156 0.7774 0.84584 0.0
C469 C 0.26014 0.78425 0.91834 0.0
C470 C 0.22244 0.74707 0.76911 0.0
C471 C 0.18154 0.74895 0.7419 0.0
N472 N 0.24623 0.77128 0.87384 0.0
N473 N 0.19655 0.76311 0.78355 0.0
H474 H 0.45542 0.21135 0.00575 0.0
H475 H 0.45899 0.24205 0.33362 0.0
H476 H 0.43793 0.15777 0.13629 0.0
H477 H 0.4358 0.27444 0.20584 0.0
H478 H 0.45831 0.21434 0.26097 0.0
H479 H 0.45527 0.23857 0.07859 0.0
C480 C 0.45158 0.20536 0.04971 0.0
C481 C 0.44659 0.18233 0.06521 0.0
C482 C 0.45331 0.2275 0.24914 0.0
C483 C 0.44677 0.21326 0.14811 0.0
C484 C 0.45378 0.24331 0.29031 0.0
C485 C 0.44736 0.26042 0.27554 0.0
C486 C 0.44693 0.22929 0.19282 0.0
C487 C 0.4407 0.26135 0.21895 0.0
C488 C 0.4514 0.2208 0.09101 0.0
C489 C 0.44168 0.17535 0.12264 0.0
N490 N 0.44086 0.24609 0.17938 0.0
N491 N 0.44209 0.19087 0.16226 0.0
H492 H 0.38257 0.4985 0.37987 0.0
H493 H 0.49377 0.61958 0.26965 0.0
H494 H 0.38229 0.52847 0.21504 0.0
H495 H 0.47215 0.60809 0.44662 0.0
H496 H 0.45833 0.58129 0.24551 0.0
H497 H 0.42116 0.53388 0.40072 0.0
C498 C 0.39077 0.51235 0.34767 0.0
C499 C 0.37912 0.51061 0.29568 0.0
C500 C 0.46152 0.58714 0.28961 0.0
C501 C 0.4233 0.55094 0.31936 0.0
C502 C 0.48175 0.60885 0.30354 0.0
C503 C 0.48581 0.61702 0.36025 0.0
C504 C 0.44558 0.57331 0.33288 0.0
C505 C 0.46959 0.60249 0.40237 0.0
C506 C 0.4127 0.53256 0.35984 0.0
C507 C 0.39058 0.52918 0.25576 0.0
N508 N 0.45018 0.58126 0.38785 0.0
N509 N 0.41211 0.54863 0.26841 0.0
H510 H 0.87842 0.49752 0.6155 0.0
H511 H 0.87556 0.37752 0.71113 0.0
H512 H 0.85728 0.46786 0.78493 0.0
H513 H 0.85978 0.38933 0.53888 0.0
H514 H 0.87937 0.41581 0.73944 0.0
H515 H 0.88217 0.46293 0.58822 0.0
C516 C 0.87491 0.48392 0.64725 0.0
C517 C 0.86735 0.48548 0.70253 0.0
C518 C 0.8753 0.41007 0.69539 0.0
C519 C 0.87179 0.44606 0.67152 0.0
C520 C 0.87325 0.38832 0.67906 0.0
C521 C 0.86718 0.38018 0.62258 0.0
C522 C 0.87171 0.42395 0.65475 0.0
C523 C 0.86429 0.39487 0.58293 0.0
C524 C 0.87693 0.46416 0.63148 0.0
C525 C 0.86297 0.46727 0.74177 0.0
N526 N 0.86659 0.41608 0.59977 0.0
N527 N 0.86524 0.44827 0.72549 0.0
H528 H 0.49433 0.87722 0.05197 0.0
H529 H 0.37693 0.87739 0.94724 0.0
H530 H 0.46875 0.86084 0.87824 0.0
H531 H 0.38381 0.85549 0.11723 0.0
H532 H 0.41593 0.88206 0.92276 0.0
H533 H 0.45896 0.87999 0.07718 0.0
C534 C 0.48147 0.87457 0.01892 0.0
C535 C 0.48438 0.86864 0.96294 0.0
C536 C 0.40894 0.87646 0.96552 0.0
C537 C 0.44414 0.87198 0.99156 0.0
C538 C 0.38679 0.87391 0.97969 0.0
C539 C 0.37706 0.86588 0.0343 0.0
C540 C 0.42163 0.8714 0.00655 0.0
C541 C 0.39058 0.86154 0.07454 0.0
C542 C 0.46128 0.87602 0.03348 0.0
C543 C 0.46709 0.86527 0.92196 0.0
N544 N 0.41224 0.86437 0.05986 0.0
N545 N 0.44767 0.867 0.93708 0.0
H546 H 0.61559 0.49315 0.39552 0.0
H547 H 0.49461 0.38128 0.28711 0.0
H548 H 0.60458 0.47014 0.21956 0.0
H549 H 0.52382 0.38266 0.45401 0.0
H550 H 0.53022 0.41954 0.26495 0.0
H551 H 0.57712 0.45807 0.42012 0.0
C552 C 0.60493 0.48091 0.36192 0.0
C553 C 0.6133 0.48447 0.30539 0.0
C554 C 0.52869 0.41151 0.30654 0.0
C555 C 0.56937 0.44461 0.3333 0.0
C556 C 0.50835 0.38978 0.31944 0.0
C557 C 0.50632 0.3787 0.37246 0.0
C558 C 0.54691 0.42249 0.34729 0.0
C559 C 0.52475 0.39051 0.41252 0.0
C560 C 0.58311 0.46087 0.37612 0.0
C561 C 0.59884 0.46796 0.26367 0.0
N562 N 0.54432 0.41185 0.39914 0.0
N563 N 0.5775 0.44874 0.27844 0.0
H564 H 0.12396 0.60341 0.54964 0.0
H565 H 0.13801 0.52669 0.79164 0.0
H566 H 0.11906 0.61814 0.72738 0.0
H567 H 0.10427 0.49538 0.63056 0.0
H568 H 0.13453 0.56199 0.7687 0.0
H569 H 0.12021 0.56501 0.57726 0.0
C570 C 0.12191 0.59847 0.59438 0.0
C571 C 0.12183 0.61393 0.63628 0.0
C572 C 0.12764 0.5472 0.73886 0.0
C573 C 0.11801 0.57043 0.66812 0.0
C574 C 0.12967 0.52713 0.75183 0.0
C575 C 0.1215 0.50811 0.7129 0.0
C576 C 0.11793 0.54843 0.68611 0.0
C577 C 0.1108 0.50959 0.66191 0.0
C578 C 0.1197 0.57658 0.61007 0.0
C579 C 0.1191 0.60667 0.6937 0.0
N580 N 0.10966 0.52956 0.6496 0.0
N581 N 0.11765 0.58556 0.70807 0.0
H582 H 0.60612 0.13175 0.10986 0.0
H583 H 0.52174 0.13795 0.87622 0.0
H584 H 0.61445 0.12007 0.93189 0.0
H585 H 0.49551 0.1096 0.04454 0.0
H586 H 0.55778 0.13535 0.89578 0.0
H587 H 0.56706 0.12757 0.08767 0.0
C588 C 0.59964 0.12813 0.06626 0.0
C589 C 0.61349 0.12625 0.02265 0.0
C590 C 0.54395 0.12946 0.92803 0.0
C591 C 0.56926 0.12195 0.99693 0.0
C592 C 0.52347 0.131 0.917 0.0
C593 C 0.50565 0.12402 0.95883 0.0
C594 C 0.54681 0.12147 0.9817 0.0
C595 C 0.50876 0.11511 0.01098 0.0
C596 C 0.57738 0.12568 0.05368 0.0
C597 C 0.60427 0.12153 0.96683 0.0
N598 N 0.52912 0.11442 0.02127 0.0
N599 N 0.58285 0.11988 0.95536 0.0
loop_
_geom_bond_atom_site_label_1
_geom_bond_atom_site_label_2
_geom_bond_distance
_geom_bond_site_symmetry_2
_ccdc_geom_bond_type
O0 Cd1 2.223 . S
O0 C8 1.315 . S
Cd1 O0 2.223 . S
Cd1 O4 2.297 . S
Cd1 O5 2.439 . S
Cd1 O11 2.240 . S
Cd2 O3 2.240 . S
Cd2 O10 2.223 . S
Cd2 O12 2.297 . S
Cd2 O13 2.439 . S
O3 Cd2 2.240 . S
O3 C8 1.279 . S
O4 Cd1 2.297 . S
O4 C6 1.247 . S
O5 Cd1 2.439 . S
O5 C6 1.208 . S
C6 O4 1.247 . S
C6 O5 1.208 . S
C7 O12 1.247 . S
C7 O13 1.208 . S
C8 O0 1.315 . S
C8 O3 1.279 . S
C9 O10 1.315 . S
C9 O11 1.279 . S
O10 Cd2 2.223 . S
O10 C9 1.315 . S
O11 Cd1 2.240 . S
O11 C9 1.279 . S
O12 Cd2 2.297 . S
O12 C7 1.247 . S
O13 Cd2 2.439 . S
O13 C7 1.208 . S
O14 Cd15 2.223 . S
O14 C22 1.315 . S
Cd15 O14 2.223 . S
Cd15 O18 2.297 . S
Cd15 O19 2.439 . S
Cd15 O25 2.240 . S
Cd16 O17 2.240 . S
Cd16 O24 2.223 . S
Cd16 O26 2.297 . S
Cd16 O27 2.439 . S
O17 Cd16 2.240 . S
O17 C22 1.279 . S
O18 Cd15 2.297 . S
O18 C20 1.247 . S
O19 Cd15 2.439 . S
O19 C20 1.208 . S
C20 O18 1.247 . S
C20 O19 1.208 . S
C21 O26 1.247 . S
C21 O27 1.208 . S
C22 O14 1.315 . S
C22 O17 1.279 . S
C23 O24 1.315 . S
C23 O25 1.279 . S
O24 Cd16 2.223 . S
O24 C23 1.315 . S
O25 Cd15 2.240 . S
O25 C23 1.279 . S
O26 Cd16 2.297 . S
O26 C21 1.247 . S
O27 Cd16 2.439 . S
O27 C21 1.208 . S
O28 Cd29 2.223 . S
O28 C36 1.315 1_556 S
Cd29 O28 2.223 . S
Cd29 O32 2.297 . S
Cd29 O33 2.439 . S
Cd29 O39 2.240 . S
Cd30 O31 2.240 1_554 S
Cd30 O38 2.223 . S
Cd30 O40 2.297 . S
Cd30 O41 2.439 1_554 S
O31 Cd30 2.240 1_556 S
O31 C36 1.279 1_556 S
O32 Cd29 2.297 . S
O32 C34 1.247 . S
O33 Cd29 2.439 . S
O33 C34 1.208 . S
C34 O32 1.247 . S
C34 O33 1.208 . S
C35 O40 1.247 1_556 S
C35 O41 1.208 . S
C36 O28 1.315 1_554 S
C36 O31 1.279 1_554 S
C37 O38 1.315 1_556 S
C37 O39 1.279 . S
O38 Cd30 2.223 . S
O38 C37 1.315 1_554 S
O39 Cd29 2.240 . S
O39 C37 1.279 . S
O40 Cd30 2.297 . S
O40 C35 1.247 1_554 S
O41 Cd30 2.439 1_556 S
O41 C35 1.208 . S
O42 Cd43 2.223 . S
O42 C50 1.315 . S
Cd43 O42 2.223 . S
Cd43 O46 2.297 . S
Cd43 O47 2.439 . S
Cd43 O53 2.240 . S
Cd44 O45 2.240 . S
Cd44 O52 2.223 . S
Cd44 O54 2.297 . S
Cd44 O55 2.439 . S
O45 Cd44 2.240 . S
O45 C50 1.279 . S
O46 Cd43 2.297 . S
O46 C48 1.247 . S
O47 Cd43 2.439 . S
O47 C48 1.208 . S
C48 O46 1.247 . S
C48 O47 1.208 . S
C49 O54 1.247 . S
C49 O55 1.208 . S
C50 O42 1.315 . S
C50 O45 1.279 . S
C51 O52 1.315 . S
C51 O53 1.279 . S
O52 Cd44 2.223 . S
O52 C51 1.315 . S
O53 Cd43 2.240 . S
O53 C51 1.279 . S
O54 Cd44 2.297 . S
O54 C49 1.247 . S
O55 Cd44 2.439 . S
O55 C49 1.208 . S
O56 Cd57 2.223 . S
O56 C64 1.315 . S
Cd57 O56 2.223 . S
Cd57 O60 2.297 . S
Cd57 O61 2.439 . S
Cd57 O67 2.240 . S
Cd58 O59 2.240 . S
Cd58 O66 2.223 . S
Cd58 O68 2.297 . S
Cd58 O69 2.439 . S
O59 Cd58 2.240 . S
O59 C64 1.279 . S
O60 Cd57 2.297 . S
O60 C62 1.247 . S
O61 Cd57 2.439 . S
O61 C62 1.208 . S
C62 O60 1.247 . S
C62 O61 1.208 . S
C63 O68 1.247 . S
C63 O69 1.208 . S
C64 O56 1.315 . S
C64 O59 1.279 . S
C65 O66 1.315 . S
C65 O67 1.279 . S
O66 Cd58 2.223 . S
O66 C65 1.315 . S
O67 Cd57 2.240 . S
O67 C65 1.279 . S
O68 Cd58 2.297 . S
O68 C63 1.247 . S
O69 Cd58 2.439 . S
O69 C63 1.208 . S
O70 Cd71 2.223 . S
O70 C78 1.315 1_556 S
Cd71 O70 2.223 . S
Cd71 O74 2.297 . S
Cd71 O75 2.439 . S
Cd71 O81 2.240 . S
Cd72 O73 2.240 1_554 S
Cd72 O80 2.223 . S
Cd72 O82 2.297 . S
Cd72 O83 2.439 1_554 S
O73 Cd72 2.240 1_556 S
O73 C78 1.279 1_556 S
O74 Cd71 2.297 . S
O74 C76 1.247 . S
O75 Cd71 2.439 . S
O75 C76 1.208 . S
C76 O74 1.247 . S
C76 O75 1.208 . S
C77 O82 1.247 1_556 S
C77 O83 1.208 . S
C78 O70 1.315 1_554 S
C78 O73 1.279 1_554 S
C79 O80 1.315 1_556 S
C79 O81 1.279 . S
O80 Cd72 2.223 . S
O80 C79 1.315 1_554 S
O81 Cd71 2.240 . S
O81 C79 1.279 . S
O82 Cd72 2.297 . S
O82 C77 1.247 1_554 S
O83 Cd72 2.439 1_556 S
O83 C77 1.208 . S
O84 Cd85 2.223 . S
O84 C92 1.315 . S
Cd85 O84 2.223 . S
Cd85 O88 2.297 . S
Cd85 O89 2.439 . S
Cd85 O95 2.240 . S
Cd86 O87 2.240 . S
Cd86 O94 2.223 . S
Cd86 O96 2.297 . S
Cd86 O97 2.439 . S
O87 Cd86 2.240 . S
O87 C92 1.279 . S
O88 Cd85 2.297 . S
O88 C90 1.247 . S
O89 Cd85 2.439 . S
O89 C90 1.208 . S
C90 O88 1.247 . S
C90 O89 1.208 . S
C91 O96 1.247 . S
C91 O97 1.208 . S
C92 O84 1.315 . S
C92 O87 1.279 . S
C93 O94 1.315 . S
C93 O95 1.279 . S
O94 Cd86 2.223 . S
O94 C93 1.315 . S
O95 Cd85 2.240 . S
O95 C93 1.279 . S
O96 Cd86 2.297 . S
O96 C91 1.247 . S
O97 Cd86 2.439 . S
O97 C91 1.208 . S
O98 Cd99 2.223 . S
O98 C106 1.315 . S
Cd99 O98 2.223 . S
Cd99 O102 2.297 . S
Cd99 O103 2.439 . S
Cd99 O109 2.240 . S
Cd100 O101 2.240 . S
Cd100 O108 2.223 . S
Cd100 O110 2.297 . S
Cd100 O111 2.439 . S
O101 Cd100 2.240 . S
O101 C106 1.279 . S
O102 Cd99 2.297 . S
O102 C104 1.247 . S
O103 Cd99 2.439 . S
O103 C104 1.208 . S
C104 O102 1.247 . S
C104 O103 1.208 . S
C105 O110 1.247 . S
C105 O111 1.208 . S
C106 O98 1.315 . S
C106 O101 1.279 . S
C107 O108 1.315 . S
C107 O109 1.279 . S
O108 Cd100 2.223 . S
O108 C107 1.315 . S
O109 Cd99 2.240 . S
O109 C107 1.279 . S
O110 Cd100 2.297 . S
O110 C105 1.247 . S
O111 Cd100 2.439 . S
O111 C105 1.208 . S
O112 Cd113 2.223 . S
O112 C120 1.315 1_554 S
Cd113 O112 2.223 . S
Cd113 O116 2.297 . S
Cd113 O117 2.439 . S
Cd113 O123 2.240 . S
Cd114 O115 2.240 1_556 S
Cd114 O122 2.223 . S
Cd114 O124 2.297 . S
Cd114 O125 2.439 1_556 S
O115 Cd114 2.240 1_554 S
O115 C120 1.279 1_554 S
O116 Cd113 2.297 . S
O116 C118 1.247 . S
O117 Cd113 2.439 . S
O117 C118 1.208 . S
C118 O116 1.247 . S
C118 O117 1.208 . S
C119 O124 1.247 1_554 S
C119 O125 1.208 . S
C120 O112 1.315 1_556 S
C120 O115 1.279 1_556 S
C121 O122 1.315 1_554 S
C121 O123 1.279 . S
O122 Cd114 2.223 . S
O122 C121 1.315 1_556 S
O123 Cd113 2.240 . S
O123 C121 1.279 . S
O124 Cd114 2.297 . S
O124 C119 1.247 1_556 S
O125 Cd114 2.439 1_554 S
O125 C119 1.208 . S
O126 Cd127 2.223 . S
O126 C134 1.315 . S
Cd127 O126 2.223 . S
Cd127 O130 2.297 . S
Cd127 O131 2.439 . S
Cd127 O137 2.240 . S
Cd128 O129 2.240 . S
Cd128 O136 2.223 . S
Cd128 O138 2.297 . S
Cd128 O139 2.439 . S
O129 Cd128 2.240 . S
O129 C134 1.279 . S
O130 Cd127 2.297 . S
O130 C132 1.247 . S
O131 Cd127 2.439 . S
O131 C132 1.208 . S
C132 O130 1.247 . S
C132 O131 1.208 . S
C133 O138 1.247 . S
C133 O139 1.208 . S
C134 O126 1.315 . S
C134 O129 1.279 . S
C135 O136 1.315 . S
C135 O137 1.279 . S
O136 Cd128 2.223 . S
O136 C135 1.315 . S
O137 Cd127 2.240 . S
O137 C135 1.279 . S
O138 Cd128 2.297 . S
O138 C133 1.247 . S
O139 Cd128 2.439 . S
O139 C133 1.208 . S
O140 Cd141 2.223 . S
O140 C148 1.315 . S
Cd141 O140 2.223 . S
Cd141 O144 2.297 . S
Cd141 O145 2.439 . S
Cd141 O151 2.240 . S
Cd142 O143 2.240 . S
Cd142 O150 2.223 . S
Cd142 O152 2.297 . S
Cd142 O153 2.439 . S
O143 Cd142 2.240 . S
O143 C148 1.279 . S
O144 Cd141 2.297 . S
O144 C146 1.247 . S
O145 Cd141 2.439 . S
O145 C146 1.208 . S
C146 O144 1.247 . S
C146 O145 1.208 . S
C147 O152 1.247 . S
C147 O153 1.208 . S
C148 O140 1.315 . S
C148 O143 1.279 . S
C149 O150 1.315 . S
C149 O151 1.279 . S
O150 Cd142 2.223 . S
O150 C149 1.315 . S
O151 Cd141 2.240 . S
O151 C149 1.279 . S
O152 Cd142 2.297 . S
O152 C147 1.247 . S
O153 Cd142 2.439 . S
O153 C147 1.208 . S
O154 Cd155 2.223 . S
O154 C162 1.315 1_554 S
Cd155 O154 2.223 . S
Cd155 O158 2.297 . S
Cd155 O159 2.439 . S
Cd155 O165 2.240 . S
Cd156 O157 2.240 1_556 S
Cd156 O164 2.223 . S
Cd156 O166 2.297 . S
Cd156 O167 2.439 1_556 S
O157 Cd156 2.240 1_554 S
O157 C162 1.279 1_554 S
O158 Cd155 2.297 . S
O158 C160 1.247 . S
O159 Cd155 2.439 . S
O159 C160 1.208 . S
C160 O158 1.247 . S
C160 O159 1.208 . S
C161 O166 1.247 1_554 S
C161 O167 1.208 . S
C162 O154 1.315 1_556 S
C162 O157 1.279 1_556 S
C163 O164 1.315 1_554 S
C163 O165 1.279 . S
O164 Cd156 2.223 . S
O164 C163 1.315 1_556 S
O165 Cd155 2.240 . S
O165 C163 1.279 . S
O166 Cd156 2.297 . S
O166 C161 1.247 1_556 S
O167 Cd156 2.439 1_554 S
O167 C161 1.208 . S
H168 C174 0.930 . S
H169 C178 0.930 . S
H170 C183 0.929 . S
H171 C181 0.929 . S
H172 C176 0.929 . S
H173 C182 0.929 . S
C174 H168 0.930 . S
C174 C175 1.367 . S
C174 C182 1.378 . S
C175 C174 1.367 . S
C175 C183 1.433 . S
C176 H172 0.929 . S
C176 C178 1.378 . S
C176 C180 1.350 . S
C177 C180 1.463 . S
C177 C182 1.350 . S
C177 N185 1.427 . S
C178 H169 0.930 . S
C178 C176 1.378 . S
C178 C179 1.367 . S
C179 C178 1.367 . S
C179 C181 1.433 . S
C180 C176 1.350 . S
C180 C177 1.463 . S
C180 N184 1.427 . S
C181 H171 0.929 . S
C181 C179 1.433 . S
C181 N184 1.384 . S
C182 H173 0.929 . S
C182 C174 1.378 . S
C182 C177 1.350 . S
C183 H170 0.929 . S
C183 C175 1.433 . S
C183 N185 1.384 . S
N184 C180 1.427 . S
N184 C181 1.384 . S
N185 C177 1.427 . S
N185 C183 1.384 . S
H186 C192 0.930 . S
H187 C196 0.930 . S
H188 C201 0.929 . S
H189 C199 0.929 . S
H190 C194 0.929 . S
H191 C200 0.929 . S
C192 H186 0.930 . S
C192 C193 1.367 . S
C192 C200 1.378 . S
C193 C192 1.367 . S
C193 C201 1.433 . S
C194 H190 0.929 . S
C194 C196 1.378 . S
C194 C198 1.350 . S
C195 C198 1.463 1_655 S
C195 C200 1.350 . S
C195 N203 1.427 . S
C196 H187 0.930 . S
C196 C194 1.378 . S
C196 C197 1.367 . S
C197 C196 1.367 . S
C197 C199 1.433 . S
C198 C194 1.350 . S
C198 C195 1.463 1_455 S
C198 N202 1.427 . S
C199 H189 0.929 . S
C199 C197 1.433 . S
C199 N202 1.384 . S
C200 H191 0.929 . S
C200 C192 1.378 . S
C200 C195 1.350 . S
C201 H188 0.929 . S
C201 C193 1.433 . S
C201 N203 1.384 . S
N202 C198 1.427 . S
N202 C199 1.384 . S
N203 C195 1.427 . S
N203 C201 1.384 . S
H204 C210 0.930 1_554 S
H205 C214 0.930 1_556 S
H206 C219 0.929 . S
H207 C217 0.929 . S
H208 C212 0.929 . S
H209 C218 0.929 . S
C210 H204 0.930 1_556 S
C210 C211 1.367 . S
C210 C218 1.378 1_556 S
C211 C210 1.367 . S
C211 C219 1.433 . S
C212 H208 0.929 . S
C212 C214 1.378 1_556 S
C212 C216 1.350 1_556 S
C213 C216 1.463 1_566 S
C213 C218 1.350 1_556 S
C213 N221 1.427 . S
C214 H205 0.930 1_554 S
C214 C212 1.378 1_554 S
C214 C215 1.367 . S
C215 C214 1.367 . S
C215 C217 1.433 . S
C216 C212 1.350 1_554 S
C216 C213 1.463 1_544 S
C216 N220 1.427 . S
C217 H207 0.929 . S
C217 C215 1.433 . S
C217 N220 1.384 . S
C218 H209 0.929 . S
C218 C210 1.378 1_554 S
C218 C213 1.350 1_554 S
C219 H206 0.929 . S
C219 C211 1.433 . S
C219 N221 1.384 . S
N220 C216 1.427 . S
N220 C217 1.384 . S
N221 C213 1.427 . S
N221 C219 1.384 . S
H222 C228 0.930 . S
H223 C232 0.930 . S
H224 C237 0.929 . S
H225 C235 0.929 . S
H226 C230 0.929 . S
H227 C236 0.929 . S
C228 H222 0.930 . S
C228 C229 1.367 . S
C228 C236 1.378 . S
C229 C228 1.367 . S
C229 C237 1.433 . S
C230 H226 0.929 . S
C230 C232 1.378 . S
C230 C234 1.350 . S
C231 C234 1.463 . S
C231 C236 1.350 . S
C231 N239 1.427 . S
C232 H223 0.930 . S
C232 C230 1.378 . S
C232 C233 1.367 . S
C233 C232 1.367 . S
C233 C235 1.433 . S
C234 C230 1.350 . S
C234 C231 1.463 . S
C234 N238 1.427 . S
C235 H225 0.929 . S
C235 C233 1.433 . S
C235 N238 1.384 . S
C236 H227 0.929 . S
C236 C228 1.378 . S
C236 C231 1.350 . S
C237 H224 0.929 . S
C237 C229 1.433 . S
C237 N239 1.384 . S
N238 C234 1.427 . S
N238 C235 1.384 . S
N239 C231 1.427 . S
N239 C237 1.384 . S
H240 C246 0.930 . S
H241 C250 0.930 . S
H242 C255 0.929 . S
H243 C253 0.929 . S
H244 C248 0.929 . S
H245 C254 0.929 . S
C246 H240 0.930 . S
C246 C247 1.367 . S
C246 C254 1.378 . S
C247 C246 1.367 . S
C247 C255 1.433 . S
C248 H244 0.929 . S
C248 C250 1.378 . S
C248 C252 1.350 . S
C249 C252 1.463 1_655 S
C249 C254 1.350 . S
C249 N257 1.427 . S
C250 H241 0.930 . S
C250 C248 1.378 . S
C250 C251 1.367 . S
C251 C250 1.367 . S
C251 C253 1.433 . S
C252 C248 1.350 . S
C252 C249 1.463 1_455 S
C252 N256 1.427 . S
C253 H243 0.929 . S
C253 C251 1.433 . S
C253 N256 1.384 . S
C254 H245 0.929 . S
C254 C246 1.378 . S
C254 C249 1.350 . S
C255 H242 0.929 . S
C255 C247 1.433 . S
C255 N257 1.384 . S
N256 C252 1.427 . S
N256 C253 1.384 . S
N257 C249 1.427 . S
N257 C255 1.384 . S
H258 C264 0.930 . S
H259 C268 0.930 . S
H260 C273 0.929 . S
H261 C271 0.929 . S
H262 C266 0.929 . S
H263 C272 0.929 . S
C264 H258 0.930 . S
C264 C265 1.367 1_556 S
C264 C272 1.378 . S
C265 C264 1.367 1_554 S
C265 C273 1.433 . S
C266 H262 0.929 . S
C266 C268 1.378 . S
C266 C270 1.350 1_554 S
C267 C270 1.463 1_564 S
C267 C272 1.350 1_554 S
C267 N275 1.427 . S
C268 H259 0.930 . S
C268 C266 1.378 . S
C268 C269 1.367 1_554 S
C269 C268 1.367 1_556 S
C269 C271 1.433 . S
C270 C266 1.350 1_556 S
C270 C267 1.463 1_546 S
C270 N274 1.427 . S
C271 H261 0.929 . S
C271 C269 1.433 . S
C271 N274 1.384 . S
C272 H263 0.929 . S
C272 C264 1.378 . S
C272 C267 1.350 1_556 S
C273 H260 0.929 . S
C273 C265 1.433 . S
C273 N275 1.384 . S
N274 C270 1.427 . S
N274 C271 1.384 . S
N275 C267 1.427 . S
N275 C273 1.384 . S
H276 C282 0.930 . S
H277 C286 0.930 . S
H278 C291 0.929 . S
H279 C289 0.929 . S
H280 C284 0.929 . S
H281 C290 0.929 . S
C282 H276 0.930 . S
C282 C283 1.367 . S
C282 C290 1.378 . S
C283 C282 1.367 . S
C283 C291 1.433 . S
C284 H280 0.929 . S
C284 C286 1.378 . S
C284 C288 1.350 . S
C285 C288 1.463 1_556 S
C285 C290 1.350 . S
C285 N293 1.427 . S
C286 H277 0.930 . S
C286 C284 1.378 . S
C286 C287 1.367 . S
C287 C286 1.367 . S
C287 C289 1.433 . S
C288 C284 1.350 . S
C288 C285 1.463 1_554 S
C288 N292 1.427 . S
C289 H279 0.929 . S
C289 C287 1.433 . S
C289 N292 1.384 . S
C290 H281 0.929 . S
C290 C282 1.378 . S
C290 C285 1.350 . S
C291 H278 0.929 . S
C291 C283 1.433 . S
C291 N293 1.384 . S
N292 C288 1.427 . S
N292 C289 1.384 . S
N293 C285 1.427 . S
N293 C291 1.384 . S
H294 C300 0.930 . S
H295 C304 0.930 . S
H296 C309 0.929 . S
H297 C307 0.929 . S
H298 C302 0.929 . S
H299 C308 0.929 . S
C300 H294 0.930 . S
C300 C301 1.367 . S
C300 C308 1.378 . S
C301 C300 1.367 . S
C301 C309 1.433 . S
C302 H298 0.929 . S
C302 C304 1.378 . S
C302 C306 1.350 . S
C303 C306 1.463 . S
C303 C308 1.350 . S
C303 N311 1.427 . S
C304 H295 0.930 . S
C304 C302 1.378 . S
C304 C305 1.367 . S
C305 C304 1.367 . S
C305 C307 1.433 . S
C306 C302 1.350 . S
C306 C303 1.463 . S
C306 N310 1.427 . S
C307 H297 0.929 . S
C307 C305 1.433 . S
C307 N310 1.384 . S
C308 H299 0.929 . S
C308 C300 1.378 . S
C308 C303 1.350 . S
C309 H296 0.929 . S
C309 C301 1.433 . S
C309 N311 1.384 . S
N310 C306 1.427 . S
N310 C307 1.384 . S
N311 C303 1.427 . S
N311 C309 1.384 . S
H312 C318 0.930 . S
H313 C322 0.930 . S
H314 C327 0.929 . S
H315 C325 0.929 . S
H316 C320 0.929 . S
H317 C326 0.929 . S
C318 H312 0.930 . S
C318 C319 1.367 . S
C318 C326 1.378 . S
C319 C318 1.367 . S
C319 C327 1.433 . S
C320 H316 0.929 . S
C320 C322 1.378 . S
C320 C324 1.350 . S
C321 C324 1.463 . S
C321 C326 1.350 . S
C321 N329 1.427 . S
C322 H313 0.930 . S
C322 C320 1.378 . S
C322 C323 1.367 . S
C323 C322 1.367 . S
C323 C325 1.433 . S
C324 C320 1.350 . S
C324 C321 1.463 . S
C324 N328 1.427 . S
C325 H315 0.929 . S
C325 C323 1.433 . S
C325 N328 1.384 . S
C326 H317 0.929 . S
C326 C318 1.378 . S
C326 C321 1.350 . S
C327 H314 0.929 . S
C327 C319 1.433 . S
C327 N329 1.384 . S
N328 C324 1.427 . S
N328 C325 1.384 . S
N329 C321 1.427 . S
N329 C327 1.384 . S
H330 C336 0.930 . S
H331 C340 0.930 . S
H332 C345 0.929 . S
H333 C343 0.929 . S
H334 C338 0.929 . S
H335 C344 0.929 . S
C336 H330 0.930 . S
C336 C337 1.367 . S
C336 C344 1.378 . S
C337 C336 1.367 . S
C337 C345 1.433 . S
C338 H334 0.929 . S
C338 C340 1.378 . S
C338 C342 1.350 . S
C339 C342 1.463 1_554 S
C339 C344 1.350 . S
C339 N347 1.427 . S
C340 H331 0.930 . S
C340 C338 1.378 . S
C340 C341 1.367 . S
C341 C340 1.367 . S
C341 C343 1.433 . S
C342 C338 1.350 . S
C342 C339 1.463 1_556 S
C342 N346 1.427 . S
C343 H333 0.929 . S
C343 C341 1.433 . S
C343 N346 1.384 . S
C344 H335 0.929 . S
C344 C336 1.378 . S
C344 C339 1.350 . S
C345 H332 0.929 . S
C345 C337 1.433 . S
C345 N347 1.384 . S
N346 C342 1.427 . S
N346 C343 1.384 . S
N347 C339 1.427 . S
N347 C345 1.384 . S
H348 C354 0.930 . S
H349 C358 0.930 . S
H350 C363 0.929 . S
H351 C361 0.929 . S
H352 C356 0.929 . S
H353 C362 0.929 . S
C354 H348 0.930 . S
C354 C355 1.367 . S
C354 C362 1.378 . S
C355 C354 1.367 . S
C355 C363 1.433 . S
C356 H352 0.929 . S
C356 C358 1.378 . S
C356 C360 1.350 . S
C357 C360 1.463 . S
C357 C362 1.350 . S
C357 N365 1.427 . S
C358 H349 0.930 . S
C358 C356 1.378 . S
C358 C359 1.367 . S
C359 C358 1.367 . S
C359 C361 1.433 . S
C360 C356 1.350 . S
C360 C357 1.463 . S
C360 N364 1.427 . S
C361 H351 0.929 . S
C361 C359 1.433 . S
C361 N364 1.384 . S
C362 H353 0.929 . S
C362 C354 1.378 . S
C362 C357 1.350 . S
C363 H350 0.929 . S
C363 C355 1.433 . S
C363 N365 1.384 . S
N364 C360 1.427 . S
N364 C361 1.384 . S
N365 C357 1.427 . S
N365 C363 1.384 . S
H366 C372 0.930 . S
H367 C376 0.930 . S
H368 C381 0.929 . S
H369 C379 0.929 . S
H370 C374 0.929 . S
H371 C380 0.929 . S
C372 H366 0.930 . S
C372 C373 1.367 . S
C372 C380 1.378 . S
C373 C372 1.367 . S
C373 C381 1.433 . S
C374 H370 0.929 . S
C374 C376 1.378 . S
C374 C378 1.350 . S
C375 C378 1.463 . S
C375 C380 1.350 . S
C375 N383 1.427 . S
C376 H367 0.930 . S
C376 C374 1.378 . S
C376 C377 1.367 . S
C377 C376 1.367 . S
C377 C379 1.433 . S
C378 C374 1.350 . S
C378 C375 1.463 . S
C378 N382 1.427 . S
C379 H369 0.929 . S
C379 C377 1.433 . S
C379 N382 1.384 . S
C380 H371 0.929 . S
C380 C372 1.378 . S
C380 C375 1.350 . S
C381 H368 0.929 . S
C381 C373 1.433 . S
C381 N383 1.384 . S
N382 C378 1.427 . S
N382 C379 1.384 . S
N383 C375 1.427 . S
N383 C381 1.384 . S
H384 C390 0.930 . S
H385 C394 0.930 . S
H386 C399 0.929 . S
H387 C397 0.929 . S
H388 C392 0.929 . S
H389 C398 0.929 . S
C390 H384 0.930 . S
C390 C391 1.367 . S
C390 C398 1.378 . S
C391 C390 1.367 . S
C391 C399 1.433 . S
C392 H388 0.929 . S
C392 C394 1.378 . S
C392 C396 1.350 . S
C393 C396 1.463 . S
C393 C398 1.350 . S
C393 N401 1.427 . S
C394 H385 0.930 . S
C394 C392 1.378 . S
C394 C395 1.367 . S
C395 C394 1.367 . S
C395 C397 1.433 . S
C396 C392 1.350 . S
C396 C393 1.463 . S
C396 N400 1.427 . S
C397 H387 0.929 . S
C397 C395 1.433 . S
C397 N400 1.384 . S
C398 H389 0.929 . S
C398 C390 1.378 . S
C398 C393 1.350 . S
C399 H386 0.929 . S
C399 C391 1.433 . S
C399 N401 1.384 . S
N400 C396 1.427 . S
N400 C397 1.384 . S
N401 C393 1.427 . S
N401 C399 1.384 . S
H402 C408 0.930 . S
H403 C412 0.930 . S
H404 C417 0.929 . S
H405 C415 0.929 . S
H406 C410 0.929 . S
H407 C416 0.929 . S
C408 H402 0.930 . S
C408 C409 1.367 . S
C408 C416 1.378 . S
C409 C408 1.367 . S
C409 C417 1.433 . S
C410 H406 0.929 . S
C410 C412 1.378 . S
C410 C414 1.350 . S
C411 C414 1.463 . S
C411 C416 1.350 . S
C411 N419 1.427 . S
C412 H403 0.930 . S
C412 C410 1.378 . S
C412 C413 1.367 . S
C413 C412 1.367 . S
C413 C415 1.433 . S
C414 C410 1.350 . S
C414 C411 1.463 . S
C414 N418 1.427 . S
C415 H405 0.929 . S
C415 C413 1.433 . S
C415 N418 1.384 . S
C416 H407 0.929 . S
C416 C408 1.378 . S
C416 C411 1.350 . S
C417 H404 0.929 . S
C417 C409 1.433 . S
C417 N419 1.384 . S
N418 C414 1.427 . S
N418 C415 1.384 . S
N419 C411 1.427 . S
N419 C417 1.384 . S
H420 C426 0.930 . S
H421 C430 0.930 . S
H422 C435 0.929 . S
H423 C433 0.929 . S
H424 C428 0.929 . S
H425 C434 0.929 . S
C426 H420 0.930 . S
C426 C427 1.367 . S
C426 C434 1.378 . S
C427 C426 1.367 . S
C427 C435 1.433 . S
C428 H424 0.929 . S
C428 C430 1.378 . S
C428 C432 1.350 . S
C429 C432 1.463 . S
C429 C434 1.350 . S
C429 N437 1.427 . S
C430 H421 0.930 . S
C430 C428 1.378 . S
C430 C431 1.367 . S
C431 C430 1.367 . S
C431 C433 1.433 . S
C432 C428 1.350 . S
C432 C429 1.463 . S
C432 N436 1.427 . S
C433 H423 0.929 . S
C433 C431 1.433 . S
C433 N436 1.384 . S
C434 H425 0.929 . S
C434 C426 1.378 . S
C434 C429 1.350 . S
C435 H422 0.929 . S
C435 C427 1.433 . S
C435 N437 1.384 . S
N436 C432 1.427 . S
N436 C433 1.384 . S
N437 C429 1.427 . S
N437 C435 1.384 . S
H438 C444 0.930 . S
H439 C448 0.930 . S
H440 C453 0.929 . S
H441 C451 0.929 . S
H442 C446 0.929 . S
H443 C452 0.929 . S
C444 H438 0.930 . S
C444 C445 1.367 . S
C444 C452 1.378 . S
C445 C444 1.367 . S
C445 C453 1.433 . S
C446 H442 0.929 . S
C446 C448 1.378 . S
C446 C450 1.350 . S
C447 C450 1.463 . S
C447 C452 1.350 . S
C447 N455 1.427 . S
C448 H439 0.930 . S
C448 C446 1.378 . S
C448 C449 1.367 . S
C449 C448 1.367 . S
C449 C451 1.433 . S
C450 C446 1.350 . S
C450 C447 1.463 . S
C450 N454 1.427 . S
C451 H441 0.929 . S
C451 C449 1.433 . S
C451 N454 1.384 . S
C452 H443 0.929 . S
C452 C444 1.378 . S
C452 C447 1.350 . S
C453 H440 0.929 . S
C453 C445 1.433 . S
C453 N455 1.384 . S
N454 C450 1.427 . S
N454 C451 1.384 . S
N455 C447 1.427 . S
N455 C453 1.384 . S
H456 C462 0.930 . S
H457 C466 0.930 . S
H458 C471 0.929 . S
H459 C469 0.929 . S
H460 C464 0.929 . S
H461 C470 0.929 . S
C462 H456 0.930 . S
C462 C463 1.367 . S
C462 C470 1.378 . S
C463 C462 1.367 . S
C463 C471 1.433 . S
C464 H460 0.929 . S
C464 C466 1.378 . S
C464 C468 1.350 . S
C465 C468 1.463 . S
C465 C470 1.350 . S
C465 N473 1.427 . S
C466 H457 0.930 . S
C466 C464 1.378 . S
C466 C467 1.367 . S
C467 C466 1.367 . S
C467 C469 1.433 . S
C468 C464 1.350 . S
C468 C465 1.463 . S
C468 N472 1.427 . S
C469 H459 0.929 . S
C469 C467 1.433 . S
C469 N472 1.384 . S
C470 H461 0.929 . S
C470 C462 1.378 . S
C470 C465 1.350 . S
C471 H458 0.929 . S
C471 C463 1.433 . S
C471 N473 1.384 . S
N472 C468 1.427 . S
N472 C469 1.384 . S
N473 C465 1.427 . S
N473 C471 1.384 . S
H474 C480 0.930 . S
H475 C484 0.930 . S
H476 C489 0.929 . S
H477 C487 0.929 . S
H478 C482 0.929 . S
H479 C488 0.929 . S
C480 H474 0.930 . S
C480 C481 1.367 . S
C480 C488 1.378 . S
C481 C480 1.367 . S
C481 C489 1.433 . S
C482 H478 0.929 . S
C482 C484 1.378 . S
C482 C486 1.350 . S
C483 C486 1.463 . S
C483 C488 1.350 . S
C483 N491 1.427 . S
C484 H475 0.930 . S
C484 C482 1.378 . S
C484 C485 1.367 . S
C485 C484 1.367 . S
C485 C487 1.433 . S
C486 C482 1.350 . S
C486 C483 1.463 . S
C486 N490 1.427 . S
C487 H477 0.929 . S
C487 C485 1.433 . S
C487 N490 1.384 . S
C488 H479 0.929 . S
C488 C480 1.378 . S
C488 C483 1.350 . S
C489 H476 0.929 . S
C489 C481 1.433 . S
C489 N491 1.384 . S
N490 C486 1.427 . S
N490 C487 1.384 . S
N491 C483 1.427 . S
N491 C489 1.384 . S
H492 C498 0.930 . S
H493 C502 0.930 . S
H494 C507 0.929 . S
H495 C505 0.929 . S
H496 C500 0.929 . S
H497 C506 0.929 . S
C498 H492 0.930 . S
C498 C499 1.367 . S
C498 C506 1.378 . S
C499 C498 1.367 . S
C499 C507 1.433 . S
C500 H496 0.929 . S
C500 C502 1.378 . S
C500 C504 1.350 . S
C501 C504 1.463 . S
C501 C506 1.350 . S
C501 N509 1.427 . S
C502 H493 0.930 . S
C502 C500 1.378 . S
C502 C503 1.367 . S
C503 C502 1.367 . S
C503 C505 1.433 . S
C504 C500 1.350 . S
C504 C501 1.463 . S
C504 N508 1.427 . S
C505 H495 0.929 . S
C505 C503 1.433 . S
C505 N508 1.384 . S
C506 H497 0.929 . S
C506 C498 1.378 . S
C506 C501 1.350 . S
C507 H494 0.929 . S
C507 C499 1.433 . S
C507 N509 1.384 . S
N508 C504 1.427 . S
N508 C505 1.384 . S
N509 C501 1.427 . S
N509 C507 1.384 . S
H510 C516 0.930 . S
H511 C520 0.930 . S
H512 C525 0.929 . S
H513 C523 0.929 . S
H514 C518 0.929 . S
H515 C524 0.929 . S
C516 H510 0.930 . S
C516 C517 1.367 . S
C516 C524 1.378 . S
C517 C516 1.367 . S
C517 C525 1.433 . S
C518 H514 0.929 . S
C518 C520 1.378 . S
C518 C522 1.350 . S
C519 C522 1.463 . S
C519 C524 1.350 . S
C519 N527 1.427 . S
C520 H511 0.930 . S
C520 C518 1.378 . S
C520 C521 1.367 . S
C521 C520 1.367 . S
C521 C523 1.433 . S
C522 C518 1.350 . S
C522 C519 1.463 . S
C522 N526 1.427 . S
C523 H513 0.929 . S
C523 C521 1.433 . S
C523 N526 1.384 . S
C524 H515 0.929 . S
C524 C516 1.378 . S
C524 C519 1.350 . S
C525 H512 0.929 . S
C525 C517 1.433 . S
C525 N527 1.384 . S
N526 C522 1.427 . S
N526 C523 1.384 . S
N527 C519 1.427 . S
N527 C525 1.384 . S
H528 C534 0.930 . S
H529 C538 0.930 . S
H530 C543 0.929 . S
H531 C541 0.929 . S
H532 C536 0.929 . S
H533 C542 0.929 . S
C534 H528 0.930 . S
C534 C535 1.367 . S
C534 C542 1.378 . S
C535 C534 1.367 . S
C535 C543 1.433 1_554 S
C536 H532 0.929 . S
C536 C538 1.378 . S
C536 C540 1.350 . S
C537 C540 1.463 1_554 S
C537 C542 1.350 . S
C537 N545 1.427 1_554 S
C538 H529 0.930 . S
C538 C536 1.378 . S
C538 C539 1.367 . S
C539 C538 1.367 . S
C539 C541 1.433 1_556 S
C540 C536 1.350 . S
C540 C537 1.463 1_556 S
C540 N544 1.427 1_556 S
C541 H531 0.929 . S
C541 C539 1.433 1_554 S
C541 N544 1.384 . S
C542 H533 0.929 . S
C542 C534 1.378 . S
C542 C537 1.350 . S
C543 H530 0.929 . S
C543 C535 1.433 1_556 S
C543 N545 1.384 . S
N544 C540 1.427 1_554 S
N544 C541 1.384 . S
N545 C537 1.427 1_556 S
N545 C543 1.384 . S
H546 C552 0.930 . S
H547 C556 0.930 . S
H548 C561 0.929 . S
H549 C559 0.929 . S
H550 C554 0.929 . S
H551 C560 0.929 . S
C552 H546 0.930 . S
C552 C553 1.367 . S
C552 C560 1.378 . S
C553 C552 1.367 . S
C553 C561 1.433 . S
C554 H550 0.929 . S
C554 C556 1.378 . S
C554 C558 1.350 . S
C555 C558 1.463 . S
C555 C560 1.350 . S
C555 N563 1.427 . S
C556 H547 0.930 . S
C556 C554 1.378 . S
C556 C557 1.367 . S
C557 C556 1.367 . S
C557 C559 1.433 . S
C558 C554 1.350 . S
C558 C555 1.463 . S
C558 N562 1.427 . S
C559 H549 0.929 . S
C559 C557 1.433 . S
C559 N562 1.384 . S
C560 H551 0.929 . S
C560 C552 1.378 . S
C560 C555 1.350 . S
C561 H548 0.929 . S
C561 C553 1.433 . S
C561 N563 1.384 . S
N562 C558 1.427 . S
N562 C559 1.384 . S
N563 C555 1.427 . S
N563 C561 1.384 . S
H564 C570 0.930 . S
H565 C574 0.930 . S
H566 C579 0.929 . S
H567 C577 0.929 . S
H568 C572 0.929 . S
H569 C578 0.929 . S
C570 H564 0.930 . S
C570 C571 1.367 . S
C570 C578 1.378 . S
C571 C570 1.367 . S
C571 C579 1.433 . S
C572 H568 0.929 . S
C572 C574 1.378 . S
C572 C576 1.350 . S
C573 C576 1.463 . S
C573 C578 1.350 . S
C573 N581 1.427 . S
C574 H565 0.930 . S
C574 C572 1.378 . S
C574 C575 1.367 . S
C575 C574 1.367 . S
C575 C577 1.433 . S
C576 C572 1.350 . S
C576 C573 1.463 . S
C576 N580 1.427 . S
C577 H567 0.929 . S
C577 C575 1.433 . S
C577 N580 1.384 . S
C578 H569 0.929 . S
C578 C570 1.378 . S
C578 C573 1.350 . S
C579 H566 0.929 . S
C579 C571 1.433 . S
C579 N581 1.384 . S
N580 C576 1.427 . S
N580 C577 1.384 . S
N581 C573 1.427 . S
N581 C579 1.384 . S
H582 C588 0.930 . S
H583 C592 0.930 . S
H584 C597 0.929 . S
H585 C595 0.929 . S
H586 C590 0.929 . S
H587 C596 0.929 . S
C588 H582 0.930 . S
C588 C589 1.367 . S
C588 C596 1.378 . S
C589 C588 1.367 . S
C589 C597 1.433 1_554 S
C590 H586 0.929 . S
C590 C592 1.378 . S
C590 C594 1.350 . S
C591 C594 1.463 1_554 S
C591 C596 1.350 . S
C591 N599 1.427 1_554 S
C592 H583 0.930 . S
C592 C590 1.378 . S
C592 C593 1.367 . S
C593 C592 1.367 . S
C593 C595 1.433 1_556 S
C594 C590 1.350 . S
C594 C591 1.463 1_556 S
C594 N598 1.427 1_556 S
C595 H585 0.929 . S
C595 C593 1.433 1_554 S
C595 N598 1.384 . S
C596 H587 0.929 . S
C596 C588 1.378 . S
C596 C591 1.350 . S
C597 H584 0.929 . S
C597 C589 1.433 1_556 S
C597 N599 1.384 . S
N598 C594 1.427 1_554 S
N598 C595 1.384 . S
N599 C591 1.427 1_556 S
N599 C597 1.384 . S
C175 C7 1.463 . S
C179 C133 1.463 . S
C193 C21 1.473 . S
C197 C147 1.473 . S
C211 C35 1.457 . S
C215 C161 1.457 . S
C229 C49 1.472 . S
C233 C91 1.472 . S
C247 C105 1.455 . S
C251 C63 1.455 . S
C265 C119 1.455 . S
C269 C77 1.455 . S
C283 C146 1.522 . S
C287 C6 1.507 . S
C301 C20 1.515 . S
C305 C160 1.512 . S
C319 C34 1.522 . S
C323 C90 1.507 . S
C337 C48 1.507 . S
C341 C104 1.522 . S
C355 C62 1.518 . S
C359 C118 1.509 . S
C373 C76 1.508 . S
C377 C132 1.520 . S
C391 C148 1.476 . S
C395 C8 1.476 . S
C409 C22 1.472 . S
C413 C162 1.471 . S
C427 C36 1.471 . S
C431 C92 1.472 . S
C445 C50 1.473 . S
C449 C106 1.474 . S
C463 C64 1.473 . S
C467 C120 1.474 . S
C481 C78 1.470 . S
C485 C134 1.470 . S
C499 C9 1.637 . S
C503 C93 1.640 . S
C517 C107 1.635 . S
C521 C23 1.640 . S
C535 C37 1.638 1_554 S
C539 C121 1.638 1_556 S
C553 C51 1.640 . S
C557 C135 1.635 . S
C571 C65 1.636 . S
C575 C149 1.635 . S
C589 C163 1.633 . S
C593 C79 1.639 . S
