# Generated by pormake.
# Topology ske, (6)-cn, num edge types: 1
# Building blocks:
#     Node 0, Type 0, BuildingBlock: MIDCAF_clean_sbu_0, # of connection points: 6
#     Node 1, Type 0, BuildingBlock: MIDCAF_clean_sbu_0, # of connection points: 6
#     Node 2, Type 0, BuildingBlock: MIDCAF_clean_sbu_0, # of connection points: 6
#     Node 3, Type 0, BuildingBlock: MIDCAF_clean_sbu_0, # of connection points: 6
#     Node 4, Type 0, BuildingBlock: MIDCAF_clean_sbu_0, # of connection points: 6
#     Node 5, Type 0, BuildingBlock: MIDCAF_clean_sbu_0, # of connection points: 6
#     Node 6, Type 0, BuildingBlock: MIDCAF_clean_sbu_0, # of connection points: 6
#     Node 7, Type 0, BuildingBlock: MIDCAF_clean_sbu_0, # of connection points: 6
#     Edge 8, Type (0, 0), BuildingBlock: OJICUG_clean_linker_0, # of connection points: 2
#     Edge 9, Type (0, 0), BuildingBlock: OJICUG_clean_linker_0, # of connection points: 2
#     Edge 10, Type (0, 0), BuildingBlock: OJICUG_clean_linker_0, # of connection points: 2
#     Edge 11, Type (0, 0), BuildingBlock: OJICUG_clean_linker_0, # of connection points: 2
#     Edge 12, Type (0, 0), BuildingBlock: OJICUG_clean_linker_0, # of connection points: 2
#     Edge 13, Type (0, 0), BuildingBlock: OJICUG_clean_linker_0, # of connection points: 2
#     Edge 14, Type (0, 0), BuildingBlock: OJICUG_clean_linker_0, # of connection points: 2
#     Edge 15, Type (0, 0), BuildingBlock: OJICUG_clean_linker_0, # of connection points: 2
#     Edge 16, Type (0, 0), BuildingBlock: OJICUG_clean_linker_0, # of connection points: 2
#     Edge 17, Type (0, 0), BuildingBlock: OJICUG_clean_linker_0, # of connection points: 2
#     Edge 18, Type (0, 0), BuildingBlock: OJICUG_clean_linker_0, # of connection points: 2
#     Edge 19, Type (0, 0), BuildingBlock: OJICUG_clean_linker_0, # of connection points: 2
#     Edge 20, Type (0, 0), BuildingBlock: OJICUG_clean_linker_0, # of connection points: 2
#     Edge 21, Type (0, 0), BuildingBlock: OJICUG_clean_linker_0, # of connection points: 2
#     Edge 22, Type (0, 0), BuildingBlock: OJICUG_clean_linker_0, # of connection points: 2
#     Edge 23, Type (0, 0), BuildingBlock: OJICUG_clean_linker_0, # of connection points: 2
#     Edge 24, Type (0, 0), BuildingBlock: OJICUG_clean_linker_0, # of connection points: 2
#     Edge 25, Type (0, 0), BuildingBlock: OJICUG_clean_linker_0, # of connection points: 2
#     Edge 26, Type (0, 0), BuildingBlock: OJICUG_clean_linker_0, # of connection points: 2
#     Edge 27, Type (0, 0), BuildingBlock: OJICUG_clean_linker_0, # of connection points: 2
#     Edge 28, Type (0, 0), BuildingBlock: OJICUG_clean_linker_0, # of connection points: 2
#     Edge 29, Type (0, 0), BuildingBlock: OJICUG_clean_linker_0, # of connection points: 2
#     Edge 30, Type (0, 0), BuildingBlock: OJICUG_clean_linker_0, # of connection points: 2
#     Edge 31, Type (0, 0), BuildingBlock: OJICUG_clean_linker_0, # of connection points: 2
# Relax obj value: 0.101
# Max RMSD: 0.160
# Mean RMSD: 0.160
data_MOF--net-ske--node1-MIDCAF_clean_sbu_0--edge1-OJICUG_clean_linker_0
_symmetry_space_group_name_H-M    P1
_symmetry_Int_Tables_number       1
_symmetry_cell_setting            triclinic
loop_
_symmetry_equiv_pos_as_xyz
'x, y, z'
_cell_length_a     44.214918
_cell_length_b     21.958377
_cell_length_c     11.113189
_cell_angle_alpha  90.01009
_cell_angle_beta   89.986149
_cell_angle_gamma 89.998632
loop_
_atom_site_label
_atom_site_type_symbol
_atom_site_fract_x
_atom_site_fract_y
_atom_site_fract_z
_atom_type_partial_charge
Zn0 Zn 0.15966 0.18242 0.45867 0.0
Zn1 Zn 0.10768 0.32147 0.68133 0.0
Zn2 Zn 0.13369 0.26009 0.56409 0.0
C3 C 0.06921 0.24278 0.69269 0.0
C4 C 0.10738 0.38282 0.48742 0.0
O5 O 0.17516 0.23899 0.66806 0.0
O6 O 0.19102 0.15697 0.5724 0.0
C7 C 0.10455 0.13115 0.47495 0.0
O8 O 0.08497 0.23255 0.59671 0.0
O9 O 0.08208 0.26789 0.78087 0.0
O10 O 0.08574 0.36196 0.5483 0.0
O11 O 0.13116 0.34965 0.47595 0.0
O12 O 0.12846 0.12319 0.41551 0.0
O13 O 0.10199 0.17926 0.54107 0.0
O14 O 0.14684 0.30362 0.38844 0.0
O15 O 0.17557 0.22873 0.32403 0.0
C16 C 0.16467 0.28105 0.30804 0.0
O17 O 0.1563 0.27987 0.74367 0.0
O18 O 0.13668 0.37065 0.77396 0.0
C19 C 0.19477 0.19617 0.65382 0.0
C20 C 0.15409 0.32873 0.80866 0.0
Zn21 Zn 0.84994 0.34361 0.45723 0.0
Zn22 Zn 0.90174 0.20445 0.67988 0.0
Zn23 Zn 0.87584 0.2659 0.56264 0.0
C24 C 0.94021 0.28313 0.69182 0.0
C25 C 0.90217 0.14322 0.48582 0.0
O26 O 0.83434 0.28704 0.66648 0.0
O27 O 0.81859 0.36916 0.57097 0.0
C28 C 0.90507 0.39478 0.47371 0.0
O29 O 0.92454 0.29338 0.59567 0.0
O30 O 0.92726 0.258 0.7798 0.0
O31 O 0.92377 0.16408 0.54686 0.0
O32 O 0.87838 0.17636 0.47433 0.0
O33 O 0.88119 0.40275 0.41408 0.0
O34 O 0.90757 0.34669 0.53987 0.0
O35 O 0.86271 0.22241 0.38687 0.0
O36 O 0.83401 0.29735 0.32258 0.0
C37 C 0.84489 0.24502 0.30651 0.0
O38 O 0.85316 0.24613 0.74215 0.0
O39 O 0.87267 0.15524 0.77216 0.0
C40 C 0.81477 0.32994 0.65227 0.0
C41 C 0.85532 0.19723 0.80701 0.0
Zn42 Zn 0.10789 0.70475 0.3212 0.0
Zn43 Zn 0.15951 0.84384 0.54431 0.0
Zn44 Zn 0.13376 0.7662 0.43857 0.0
C45 C 0.16474 0.74527 0.69468 0.0
C46 C 0.10441 0.89491 0.52794 0.0
O47 O 0.15647 0.74648 0.2591 0.0
O48 O 0.137 0.65556 0.22906 0.0
C49 C 0.10744 0.64351 0.51521 0.0
O50 O 0.14688 0.72271 0.61439 0.0
O51 O 0.17564 0.79759 0.67859 0.0
O52 O 0.12821 0.90274 0.58815 0.0
O53 O 0.10199 0.84696 0.4613 0.0
O54 O 0.08584 0.66436 0.45415 0.0
O55 O 0.13122 0.67665 0.52679 0.0
O56 O 0.08505 0.7936 0.40546 0.0
O57 O 0.08236 0.75827 0.22126 0.0
C58 C 0.06939 0.78334 0.30928 0.0
O59 O 0.17525 0.78748 0.33491 0.0
O60 O 0.19075 0.8698 0.43042 0.0
C61 C 0.15434 0.69757 0.19422 0.0
C62 C 0.1947 0.83058 0.34918 0.0
Zn63 Zn 0.90194 0.82117 0.32023 0.0
Zn64 Zn 0.85013 0.68223 0.54318 0.0
Zn65 Zn 0.87598 0.7598 0.4375 0.0
C66 C 0.84495 0.78084 0.69355 0.0
C67 C 0.90522 0.63103 0.52697 0.0
O68 O 0.85332 0.77953 0.25797 0.0
O69 O 0.8729 0.87035 0.22785 0.0
C70 C 0.90227 0.88254 0.51407 0.0
O71 O 0.86283 0.80335 0.61325 0.0
O72 O 0.83401 0.72856 0.67745 0.0
O73 O 0.88139 0.62325 0.58704 0.0
O74 O 0.90769 0.67898 0.46039 0.0
O75 O 0.92392 0.86161 0.4533 0.0
O76 O 0.87849 0.84939 0.52559 0.0
O77 O 0.92469 0.73231 0.4047 0.0
O78 O 0.92752 0.7676 0.22051 0.0
C79 C 0.94042 0.74253 0.30866 0.0
O80 O 0.83452 0.73854 0.33366 0.0
O81 O 0.81891 0.65634 0.42923 0.0
C82 C 0.85551 0.82841 0.19307 0.0
C83 C 0.81503 0.69551 0.34789 0.0
Zn84 Zn 0.60789 0.82077 0.18043 0.0
Zn85 Zn 0.65956 0.68153 0.95739 0.0
Zn86 Zn 0.63376 0.75928 0.06303 0.0
C87 C 0.66466 0.78009 0.80672 0.0
C88 C 0.60445 0.63041 0.97438 0.0
O89 O 0.65646 0.77905 0.24243 0.0
O90 O 0.63701 0.86999 0.27246 0.0
C91 C 0.60744 0.88196 0.98639 0.0
O92 O 0.64687 0.80275 0.8872 0.0
O93 O 0.6755 0.72771 0.82267 0.0
O94 O 0.62828 0.62243 0.91442 0.0
O95 O 0.60199 0.67852 0.04057 0.0
O96 O 0.58583 0.86108 0.04744 0.0
O97 O 0.63122 0.84882 0.97478 0.0
O98 O 0.58503 0.73194 0.09627 0.0
O99 O 0.58241 0.76721 0.28053 0.0
C100 C 0.5694 0.74223 0.19252 0.0
O101 O 0.67526 0.7381 0.16662 0.0
O102 O 0.69092 0.65593 0.07098 0.0
C103 C 0.65434 0.82797 0.30729 0.0
C104 C 0.6948 0.69516 0.15225 0.0
Zn105 Zn 0.35023 0.84463 0.95917 0.0
Zn106 Zn 0.40199 0.70548 0.18194 0.0
Zn107 Zn 0.37605 0.76695 0.06474 0.0
C108 C 0.44049 0.78402 0.19358 0.0
C109 C 0.40234 0.64423 0.98792 0.0
O110 O 0.33456 0.78809 0.16851 0.0
O111 O 0.31889 0.87024 0.07294 0.0
C112 C 0.4053 0.89586 0.97603 0.0
O113 O 0.42478 0.79432 0.09756 0.0
O114 O 0.42755 0.75903 0.28175 0.0
O115 O 0.42398 0.66509 0.04878 0.0
O116 O 0.37857 0.67741 0.97646 0.0
O117 O 0.38148 0.90375 0.91601 0.0
O118 O 0.40777 0.84778 0.04225 0.0
O119 O 0.36292 0.72347 0.88893 0.0
O120 O 0.33425 0.79844 0.82453 0.0
C121 C 0.34511 0.74608 0.80853 0.0
O122 O 0.35338 0.74716 0.24421 0.0
O123 O 0.37292 0.6563 0.27427 0.0
C124 C 0.31502 0.83102 0.15421 0.0
C125 C 0.35554 0.69827 0.30909 0.0
Zn126 Zn 0.60767 0.204 0.8219 0.0
Zn127 Zn 0.65956 0.34295 0.04476 0.0
Zn128 Zn 0.63369 0.26535 0.93907 0.0
C129 C 0.66468 0.24429 0.19508 0.0
C130 C 0.60448 0.3942 0.02855 0.0
O131 O 0.65631 0.24557 0.75947 0.0
O132 O 0.63669 0.1548 0.72933 0.0
C133 C 0.60737 0.14262 0.01564 0.0
O134 O 0.64682 0.22178 0.11473 0.0
O135 O 0.6756 0.2966 0.17908 0.0
O136 O 0.62833 0.40204 0.08845 0.0
O137 O 0.60199 0.34619 0.96211 0.0
O138 O 0.58571 0.16361 0.95509 0.0
O139 O 0.63116 0.17574 0.02705 0.0
O140 O 0.58498 0.29296 0.90642 0.0
O141 O 0.58207 0.25751 0.72234 0.0
C142 C 0.56922 0.28274 0.81049 0.0
O143 O 0.67514 0.28656 0.83507 0.0
O144 O 0.69083 0.36867 0.9308 0.0
C145 C 0.6541 0.1967 0.69454 0.0
C146 C 0.69466 0.32952 0.84933 0.0
Zn147 Zn 0.40177 0.32229 0.82372 0.0
Zn148 Zn 0.34992 0.18336 0.04674 0.0
Zn149 Zn 0.3758 0.26095 0.94098 0.0
C150 C 0.34485 0.28204 0.19714 0.0
C151 C 0.40502 0.13212 0.03033 0.0
O152 O 0.35315 0.28076 0.76149 0.0
O153 O 0.37272 0.37159 0.73157 0.0
C154 C 0.4022 0.38358 0.01752 0.0
O155 O 0.3627 0.30454 0.11675 0.0
O156 O 0.33392 0.22974 0.18114 0.0
O157 O 0.38117 0.12427 0.09026 0.0
O158 O 0.4075 0.18012 0.9639 0.0
O159 O 0.42383 0.3625 0.95686 0.0
O160 O 0.37838 0.35055 0.02902 0.0
O161 O 0.42447 0.23327 0.90785 0.0
O162 O 0.42725 0.26868 0.72373 0.0
C163 C 0.44015 0.24344 0.81167 0.0
O164 O 0.33432 0.23976 0.83712 0.0
O165 O 0.31864 0.15766 0.93287 0.0
C166 C 0.35534 0.32967 0.69668 0.0
C167 C 0.3148 0.19679 0.85142 0.0
C168 C 0.23987 0.14224 0.73327 0.0
C169 C 0.22436 0.19721 0.71462 0.0
H170 H 0.28101 0.09924 0.78818 0.0
C171 C 0.2396 0.25255 0.73375 0.0
H172 H 0.22883 0.09896 0.71686 0.0
C173 C 0.26983 0.2527 0.77153 0.0
C174 C 0.28521 0.19753 0.79058 0.0
H175 H 0.22838 0.29556 0.71683 0.0
H176 H 0.28094 0.29583 0.78852 0.0
C177 C 0.26986 0.14239 0.77183 0.0
C178 C 0.73965 0.38385 0.76986 0.0
C179 C 0.72426 0.32874 0.78854 0.0
H180 H 0.78071 0.42722 0.71511 0.0
C181 C 0.73964 0.27354 0.76957 0.0
H182 H 0.7285 0.42702 0.78615 0.0
C183 C 0.76989 0.27365 0.73197 0.0
C184 C 0.78515 0.32896 0.71291 0.0
H185 H 0.72851 0.23043 0.78653 0.0
H186 H 0.7811 0.23061 0.71513 0.0
C187 C 0.76965 0.38396 0.73146 0.0
C188 C 0.26984 0.88503 0.2328 0.0
C189 C 0.28535 0.83004 0.21449 0.0
H190 H 0.22862 0.9281 0.28671 0.0
C191 C 0.27006 0.77472 0.23321 0.0
H192 H 0.28092 0.92829 0.21669 0.0
C193 C 0.23976 0.77461 0.27016 0.0
C194 C 0.22437 0.82981 0.28889 0.0
H195 H 0.28129 0.73169 0.21653 0.0
H196 H 0.22861 0.7315 0.28683 0.0
C197 C 0.23978 0.88492 0.27059 0.0
C198 C 0.73996 0.64111 0.2308 0.0
C199 C 0.72445 0.69612 0.21257 0.0
H200 H 0.78116 0.59802 0.28487 0.0
C201 C 0.73973 0.75142 0.23154 0.0
H202 H 0.72889 0.59786 0.2145 0.0
C203 C 0.77001 0.75151 0.26871 0.0
C204 C 0.7854 0.69631 0.28739 0.0
H205 H 0.72851 0.79446 0.21494 0.0
H206 H 0.78115 0.79462 0.28561 0.0
C207 C 0.77 0.6412 0.2688 0.0
C208 C 0.08136 0.98776 0.61599 0.0
C209 C 0.08472 0.94926 0.51521 0.0
H210 H 0.08365 0.07949 0.68164 0.0
C211 C 0.08137 0.97484 0.40032 0.0
H212 H 0.08368 0.96927 0.70592 0.0
C213 C 0.08154 0.03839 0.38647 0.0
C214 C 0.0848 0.07688 0.48733 0.0
H215 H 0.08382 0.94663 0.3209 0.0
H216 H 0.084 0.05685 0.29657 0.0
C217 C 0.08127 0.05131 0.60214 0.0
C218 C 0.92828 0.47458 0.60113 0.0
C219 C 0.92482 0.44904 0.48624 0.0
H220 H 0.92582 0.55656 0.70506 0.0
C221 C 0.92814 0.48756 0.38548 0.0
H222 H 0.92586 0.44635 0.68052 0.0
C223 C 0.92831 0.55111 0.39945 0.0
C224 C 0.9249 0.57666 0.51436 0.0
H225 H 0.92573 0.46911 0.29555 0.0
H226 H 0.92591 0.57933 0.32003 0.0
C227 C 0.9282 0.53813 0.6151 0.0
C228 C 0.87356 0.98137 0.5114 0.0
C229 C 0.90105 0.94958 0.52315 0.0
H230 H 0.85212 0.06826 0.48456 0.0
C231 C 0.9283 0.98195 0.51189 0.0
H232 H 0.85218 0.95739 0.51608 0.0
C233 C 0.92826 0.04391 0.48689 0.0
C234 C 0.90097 0.0762 0.47632 0.0
H235 H 0.94989 0.9588 0.5182 0.0
H236 H 0.94983 0.06714 0.48014 0.0
C237 C 0.87352 0.04434 0.48866 0.0
C238 C 0.1361 0.54463 0.51263 0.0
C239 C 0.10863 0.57649 0.52467 0.0
H240 H 0.15747 0.45767 0.4856 0.0
C241 C 0.08136 0.54417 0.51388 0.0
H242 H 0.15749 0.56857 0.51693 0.0
C243 C 0.08134 0.4822 0.48898 0.0
C244 C 0.1086 0.44984 0.47805 0.0
H245 H 0.05978 0.56739 0.52041 0.0
H246 H 0.05976 0.45903 0.48253 0.0
C247 C 0.13609 0.48165 0.49 0.0
C248 C 0.58137 0.55071 0.10238 0.0
C249 C 0.58473 0.57612 0.98735 0.0
H250 H 0.58397 0.46885 0.2066 0.0
C251 C 0.58137 0.53747 0.88678 0.0
H252 H 0.58382 0.57904 0.18163 0.0
C253 C 0.58127 0.47394 0.901 0.0
C254 C 0.58478 0.44854 0.01596 0.0
H255 H 0.5837 0.55583 0.79675 0.0
H256 H 0.58363 0.44564 0.82166 0.0
C257 C 0.58152 0.48718 0.11659 0.0
C258 C 0.42824 0.97567 0.10416 0.0
C259 C 0.42495 0.95023 0.9891 0.0
H260 H 0.42549 0.05751 0.20841 0.0
C261 C 0.42831 0.98889 0.88857 0.0
H262 H 0.42578 0.94733 0.18339 0.0
C263 C 0.42833 0.05242 0.90282 0.0
C264 C 0.42474 0.07781 0.01778 0.0
H265 H 0.42604 0.97052 0.79851 0.0
H266 H 0.42597 0.08071 0.82348 0.0
C267 C 0.428 0.03919 0.1184 0.0
C268 C 0.42832 0.48288 0.01486 0.0
C269 C 0.40104 0.45063 0.02629 0.0
H270 H 0.44993 0.56794 0.98266 0.0
C271 C 0.37358 0.48252 0.01437 0.0
H272 H 0.44989 0.45965 0.02128 0.0
C273 C 0.3736 0.54546 0.99132 0.0
C274 C 0.40109 0.5772 0.97882 0.0
H275 H 0.35218 0.45863 0.01917 0.0
H276 H 0.35223 0.56947 0.98709 0.0
C277 C 0.42834 0.54481 0.98953 0.0
C278 C 0.63607 0.04378 0.01243 0.0
C279 C 0.60859 0.07557 0.02445 0.0
H280 H 0.65749 0.95689 0.98516 0.0
C281 C 0.58133 0.04322 0.01322 0.0
H282 H 0.65745 0.06774 0.01709 0.0
C283 C 0.58136 0.98129 0.98797 0.0
C284 C 0.60864 0.94898 0.97714 0.0
H285 H 0.55974 0.06638 0.01974 0.0
H286 H 0.55978 0.95807 0.98124 0.0
C287 C 0.6361 0.98082 0.98946 0.0
C288 C 0.18745 0.27659 0.10291 0.0
C289 C 0.16892 0.30782 0.18634 0.0
H290 H 0.19676 0.25728 0.91816 0.0
C291 C 0.15072 0.35549 0.14432 0.0
H292 H 0.20233 0.24024 0.13187 0.0
C293 C 0.14863 0.36686 0.02037 0.0
C294 C 0.16408 0.32973 0.93626 0.0
H295 H 0.13636 0.38067 0.20566 0.0
H296 H 0.13267 0.40106 0.99042 0.0
C297 C 0.18455 0.2865 0.97943 0.0
C298 C 0.85879 0.17056 0.14267 0.0
C299 C 0.84061 0.21825 0.1848 0.0
H300 H 0.87678 0.12493 0.98866 0.0
C301 C 0.82207 0.24948 0.10148 0.0
H302 H 0.87316 0.14537 0.20392 0.0
C303 C 0.82491 0.23953 0.97798 0.0
C304 C 0.84537 0.19627 0.93468 0.0
H305 H 0.8072 0.28585 0.13053 0.0
H306 H 0.81269 0.26872 0.91677 0.0
C307 C 0.86084 0.15915 0.0187 0.0
C308 C 0.1488 0.6595 0.98252 0.0
C309 C 0.16429 0.6966 0.06654 0.0
H310 H 0.13645 0.64569 0.79734 0.0
C311 C 0.18475 0.73982 0.02321 0.0
H312 H 0.13285 0.6253 0.0126 0.0
C313 C 0.18759 0.74974 0.89969 0.0
C314 C 0.16903 0.71852 0.81639 0.0
H315 H 0.19701 0.76898 0.08444 0.0
H316 H 0.20246 0.78609 0.87062 0.0
C317 C 0.15085 0.67087 0.85856 0.0
C318 C 0.82214 0.7764 0.89866 0.0
C319 C 0.8407 0.8076 0.8153 0.0
H320 H 0.81278 0.75712 0.08341 0.0
C321 C 0.85893 0.8552 0.85743 0.0
H322 H 0.80724 0.7401 0.86962 0.0
C323 C 0.86102 0.86653 0.9814 0.0
C324 C 0.84553 0.82943 0.06545 0.0
H325 H 0.87331 0.88035 0.79615 0.0
H326 H 0.877 0.90068 0.01142 0.0
C327 C 0.82503 0.78627 0.02218 0.0
C328 C 0.64878 0.86601 0.51901 0.0
C329 C 0.66427 0.82891 0.43496 0.0
H330 H 0.63642 0.87976 0.70421 0.0
C331 C 0.68471 0.78564 0.47823 0.0
H332 H 0.63285 0.90024 0.48897 0.0
C333 C 0.68753 0.77567 0.60173 0.0
C334 C 0.66897 0.80689 0.68506 0.0
H335 H 0.69696 0.75647 0.41698 0.0
H336 H 0.70238 0.73928 0.63075 0.0
C337 C 0.65081 0.85459 0.64296 0.0
C338 C 0.35902 0.67162 0.64473 0.0
C339 C 0.34082 0.71928 0.68685 0.0
H340 H 0.37704 0.62602 0.49074 0.0
C341 C 0.32226 0.75046 0.60353 0.0
H342 H 0.37341 0.64647 0.70599 0.0
C343 C 0.3251 0.7405 0.48003 0.0
C344 C 0.34559 0.69729 0.43674 0.0
H345 H 0.30738 0.7868 0.63259 0.0
H346 H 0.31285 0.76964 0.41879 0.0
C347 C 0.36107 0.66021 0.52078 0.0
C348 C 0.65068 0.16993 0.35888 0.0
C349 C 0.66892 0.21751 0.31678 0.0
H350 H 0.63259 0.12445 0.51285 0.0
C351 C 0.68749 0.24867 0.40015 0.0
H352 H 0.63629 0.1448 0.2976 0.0
C353 C 0.6846 0.2388 0.52365 0.0
C354 C 0.66407 0.19566 0.5669 0.0
H355 H 0.7024 0.28496 0.37112 0.0
H356 H 0.69684 0.26794 0.58489 0.0
C357 C 0.64859 0.15858 0.48285 0.0
C358 C 0.35886 0.35638 0.36101 0.0
C359 C 0.3406 0.30884 0.31886 0.0
H360 H 0.37694 0.40183 0.51504 0.0
C361 C 0.322 0.27772 0.40219 0.0
H362 H 0.37328 0.38147 0.29976 0.0
C363 C 0.32487 0.2876 0.5257 0.0
C364 C 0.3454 0.3307 0.56901 0.0
H365 H 0.30707 0.24147 0.37313 0.0
H366 H 0.3126 0.25849 0.58691 0.0
C367 C 0.36093 0.36773 0.48499 0.0
C368 C 0.02012 0.25456 0.5801 0.0
C369 C 0.0357 0.24604 0.68932 0.0
H370 H 0.97778 0.27583 0.49459 0.0
C371 C 0.01986 0.25454 0.79771 0.0
H372 H 0.03183 0.25004 0.49496 0.0
C373 C 0.98946 0.2714 0.7975 0.0
C374 C 0.97372 0.27988 0.68888 0.0
H375 H 0.03122 0.24951 0.88353 0.0
H376 H 0.97801 0.27644 0.88316 0.0
C377 C 0.98942 0.27134 0.57989 0.0
C378 C 0.98975 0.75441 0.20352 0.0
C379 C 0.97393 0.74589 0.31196 0.0
H380 H 0.03157 0.77643 0.11797 0.0
C381 C 0.98952 0.7545 0.42113 0.0
H382 H 0.97838 0.74932 0.11773 0.0
C383 C 0.02021 0.77139 0.42127 0.0
C384 C 0.03588 0.77995 0.31224 0.0
H385 H 0.97782 0.74998 0.5063 0.0
H386 H 0.03184 0.77596 0.50655 0.0
C387 C 0.02014 0.77138 0.20366 0.0
C388 C 0.52017 0.75447 0.29828 0.0
C389 C 0.53589 0.74585 0.18964 0.0
H390 H 0.47846 0.7768 0.38439 0.0
C391 C 0.52022 0.7546 0.08067 0.0
H392 H 0.5316 0.74928 0.38392 0.0
C393 C 0.48957 0.77172 0.08095 0.0
C394 C 0.474 0.78038 0.19019 0.0
H395 H 0.53185 0.75 0.99535 0.0
H396 H 0.47787 0.77639 0.99582 0.0
C397 C 0.48981 0.77168 0.29855 0.0
C398 C 0.48942 0.25466 0.70584 0.0
C399 C 0.47367 0.2464 0.81451 0.0
H400 H 0.53123 0.27612 0.61969 0.0
C401 C 0.48938 0.25489 0.92346 0.0
H402 H 0.47796 0.24964 0.62022 0.0
C403 C 0.52011 0.27143 0.92315 0.0
C404 C 0.53571 0.27973 0.81389 0.0
H405 H 0.47773 0.25057 0.00879 0.0
H406 H 0.53183 0.27592 0.00826 0.0
C407 C 0.51986 0.27126 0.70553 0.0
loop_
_geom_bond_atom_site_label_1
_geom_bond_atom_site_label_2
_geom_bond_distance
_geom_bond_site_symmetry_2
_ccdc_geom_bond_type
Zn0 O6 1.920 . S
Zn0 O12 1.898 . S
Zn0 O15 1.905 . S
Zn1 O9 1.905 . S
Zn1 O10 1.898 . S
Zn1 O18 1.920 . S
Zn2 O5 2.080 . S
Zn2 O8 2.114 . S
Zn2 O11 2.120 . S
Zn2 O13 2.120 . S
Zn2 O14 2.114 . S
Zn2 O17 2.080 . S
C3 O8 1.166 . S
C3 O9 1.182 . S
C4 O10 1.167 . S
C4 O11 1.299 . S
O5 Zn2 2.080 . S
O5 C19 1.305 . S
O6 Zn0 1.920 . S
O6 C19 1.234 . S
C7 O12 1.167 . S
C7 O13 1.299 . S
O8 Zn2 2.114 . S
O8 C3 1.166 . S
O9 Zn1 1.905 . S
O9 C3 1.182 . S
O10 Zn1 1.898 . S
O10 C4 1.167 . S
O11 Zn2 2.120 . S
O11 C4 1.299 . S
O12 Zn0 1.898 . S
O12 C7 1.167 . S
O13 Zn2 2.120 . S
O13 C7 1.299 . S
O14 Zn2 2.114 . S
O14 C16 1.166 . S
O15 Zn0 1.905 . S
O15 C16 1.182 . S
C16 O14 1.166 . S
C16 O15 1.182 . S
O17 Zn2 2.080 . S
O17 C20 1.305 . S
O18 Zn1 1.920 . S
O18 C20 1.234 . S
C19 O5 1.305 . S
C19 O6 1.234 . S
C20 O17 1.305 . S
C20 O18 1.234 . S
Zn21 O27 1.920 . S
Zn21 O33 1.898 . S
Zn21 O36 1.905 . S
Zn22 O30 1.905 . S
Zn22 O31 1.898 . S
Zn22 O39 1.920 . S
Zn23 O26 2.080 . S
Zn23 O29 2.114 . S
Zn23 O32 2.120 . S
Zn23 O34 2.120 . S
Zn23 O35 2.114 . S
Zn23 O38 2.080 . S
C24 O29 1.166 . S
C24 O30 1.182 . S
C25 O31 1.167 . S
C25 O32 1.299 . S
O26 Zn23 2.080 . S
O26 C40 1.305 . S
O27 Zn21 1.920 . S
O27 C40 1.234 . S
C28 O33 1.167 . S
C28 O34 1.299 . S
O29 Zn23 2.114 . S
O29 C24 1.166 . S
O30 Zn22 1.905 . S
O30 C24 1.182 . S
O31 Zn22 1.898 . S
O31 C25 1.167 . S
O32 Zn23 2.120 . S
O32 C25 1.299 . S
O33 Zn21 1.898 . S
O33 C28 1.167 . S
O34 Zn23 2.120 . S
O34 C28 1.299 . S
O35 Zn23 2.114 . S
O35 C37 1.166 . S
O36 Zn21 1.905 . S
O36 C37 1.182 . S
C37 O35 1.166 . S
C37 O36 1.182 . S
O38 Zn23 2.080 . S
O38 C41 1.305 . S
O39 Zn22 1.920 . S
O39 C41 1.234 . S
C40 O26 1.305 . S
C40 O27 1.234 . S
C41 O38 1.305 . S
C41 O39 1.234 . S
Zn42 O48 1.920 . S
Zn42 O54 1.898 . S
Zn42 O57 1.905 . S
Zn43 O51 1.905 . S
Zn43 O52 1.898 . S
Zn43 O60 1.920 . S
Zn44 O47 2.080 . S
Zn44 O50 2.114 . S
Zn44 O53 2.120 . S
Zn44 O55 2.120 . S
Zn44 O56 2.114 . S
Zn44 O59 2.080 . S
C45 O50 1.166 . S
C45 O51 1.182 . S
C46 O52 1.167 . S
C46 O53 1.299 . S
O47 Zn44 2.080 . S
O47 C61 1.305 . S
O48 Zn42 1.920 . S
O48 C61 1.234 . S
C49 O54 1.167 . S
C49 O55 1.299 . S
O50 Zn44 2.114 . S
O50 C45 1.166 . S
O51 Zn43 1.905 . S
O51 C45 1.182 . S
O52 Zn43 1.898 . S
O52 C46 1.167 . S
O53 Zn44 2.120 . S
O53 C46 1.299 . S
O54 Zn42 1.898 . S
O54 C49 1.167 . S
O55 Zn44 2.120 . S
O55 C49 1.299 . S
O56 Zn44 2.114 . S
O56 C58 1.166 . S
O57 Zn42 1.905 . S
O57 C58 1.182 . S
C58 O56 1.166 . S
C58 O57 1.182 . S
O59 Zn44 2.080 . S
O59 C62 1.305 . S
O60 Zn43 1.920 . S
O60 C62 1.234 . S
C61 O47 1.305 . S
C61 O48 1.234 . S
C62 O59 1.305 . S
C62 O60 1.234 . S
Zn63 O69 1.920 . S
Zn63 O75 1.898 . S
Zn63 O78 1.905 . S
Zn64 O72 1.905 . S
Zn64 O73 1.898 . S
Zn64 O81 1.920 . S
Zn65 O68 2.080 . S
Zn65 O71 2.114 . S
Zn65 O74 2.120 . S
Zn65 O76 2.120 . S
Zn65 O77 2.114 . S
Zn65 O80 2.080 . S
C66 O71 1.166 . S
C66 O72 1.182 . S
C67 O73 1.167 . S
C67 O74 1.299 . S
O68 Zn65 2.080 . S
O68 C82 1.305 . S
O69 Zn63 1.920 . S
O69 C82 1.234 . S
C70 O75 1.167 . S
C70 O76 1.299 . S
O71 Zn65 2.114 . S
O71 C66 1.166 . S
O72 Zn64 1.905 . S
O72 C66 1.182 . S
O73 Zn64 1.898 . S
O73 C67 1.167 . S
O74 Zn65 2.120 . S
O74 C67 1.299 . S
O75 Zn63 1.898 . S
O75 C70 1.167 . S
O76 Zn65 2.120 . S
O76 C70 1.299 . S
O77 Zn65 2.114 . S
O77 C79 1.166 . S
O78 Zn63 1.905 . S
O78 C79 1.182 . S
C79 O77 1.166 . S
C79 O78 1.182 . S
O80 Zn65 2.080 . S
O80 C83 1.305 . S
O81 Zn64 1.920 . S
O81 C83 1.234 . S
C82 O68 1.305 . S
C82 O69 1.234 . S
C83 O80 1.305 . S
C83 O81 1.234 . S
Zn84 O90 1.920 . S
Zn84 O96 1.898 . S
Zn84 O99 1.905 . S
Zn85 O93 1.905 . S
Zn85 O94 1.898 . S
Zn85 O102 1.920 1_556 S
Zn86 O89 2.080 . S
Zn86 O92 2.114 1_554 S
Zn86 O95 2.120 . S
Zn86 O97 2.120 . S
Zn86 O98 2.114 . S
Zn86 O101 2.080 . S
C87 O92 1.166 . S
C87 O93 1.182 . S
C88 O94 1.167 1_554 S
C88 O95 1.299 . S
O89 Zn86 2.080 . S
O89 C103 1.305 . S
O90 Zn84 1.920 . S
O90 C103 1.234 . S
C91 O96 1.167 . S
C91 O97 1.299 . S
O92 Zn86 2.114 1_556 S
O92 C87 1.166 . S
O93 Zn85 1.905 . S
O93 C87 1.182 . S
O94 Zn85 1.898 . S
O94 C88 1.167 1_556 S
O95 Zn86 2.120 . S
O95 C88 1.299 . S
O96 Zn84 1.898 . S
O96 C91 1.167 . S
O97 Zn86 2.120 . S
O97 C91 1.299 . S
O98 Zn86 2.114 . S
O98 C100 1.166 . S
O99 Zn84 1.905 . S
O99 C100 1.182 . S
C100 O98 1.166 . S
C100 O99 1.182 . S
O101 Zn86 2.080 . S
O101 C104 1.305 . S
O102 Zn85 1.920 1_554 S
O102 C104 1.234 . S
C103 O89 1.305 . S
C103 O90 1.234 . S
C104 O101 1.305 . S
C104 O102 1.234 . S
Zn105 O111 1.920 1_556 S
Zn105 O117 1.898 . S
Zn105 O120 1.905 . S
Zn106 O114 1.905 . S
Zn106 O115 1.898 . S
Zn106 O123 1.920 . S
Zn107 O110 2.080 . S
Zn107 O113 2.114 . S
Zn107 O116 2.120 . S
Zn107 O118 2.120 . S
Zn107 O119 2.114 1_554 S
Zn107 O122 2.080 . S
C108 O113 1.166 . S
C108 O114 1.182 . S
C109 O115 1.167 . S
C109 O116 1.299 . S
O110 Zn107 2.080 . S
O110 C124 1.305 . S
O111 Zn105 1.920 1_554 S
O111 C124 1.234 . S
C112 O117 1.167 1_554 S
C112 O118 1.299 . S
O113 Zn107 2.114 . S
O113 C108 1.166 . S
O114 Zn106 1.905 . S
O114 C108 1.182 . S
O115 Zn106 1.898 . S
O115 C109 1.167 . S
O116 Zn107 2.120 . S
O116 C109 1.299 . S
O117 Zn105 1.898 . S
O117 C112 1.167 1_556 S
O118 Zn107 2.120 . S
O118 C112 1.299 . S
O119 Zn107 2.114 1_556 S
O119 C121 1.166 . S
O120 Zn105 1.905 . S
O120 C121 1.182 . S
C121 O119 1.166 . S
C121 O120 1.182 . S
O122 Zn107 2.080 . S
O122 C125 1.305 . S
O123 Zn106 1.920 . S
O123 C125 1.234 . S
C124 O110 1.305 . S
C124 O111 1.234 . S
C125 O122 1.305 . S
C125 O123 1.234 . S
Zn126 O132 1.920 . S
Zn126 O138 1.898 . S
Zn126 O141 1.905 . S
Zn127 O135 1.905 . S
Zn127 O136 1.898 . S
Zn127 O144 1.920 1_554 S
Zn128 O131 2.080 . S
Zn128 O134 2.114 1_556 S
Zn128 O137 2.120 . S
Zn128 O139 2.120 . S
Zn128 O140 2.114 . S
Zn128 O143 2.080 . S
C129 O134 1.166 . S
C129 O135 1.182 . S
C130 O136 1.167 1_556 S
C130 O137 1.299 . S
O131 Zn128 2.080 . S
O131 C145 1.305 . S
O132 Zn126 1.920 . S
O132 C145 1.234 . S
C133 O138 1.167 . S
C133 O139 1.299 . S
O134 Zn128 2.114 1_554 S
O134 C129 1.166 . S
O135 Zn127 1.905 . S
O135 C129 1.182 . S
O136 Zn127 1.898 . S
O136 C130 1.167 1_554 S
O137 Zn128 2.120 . S
O137 C130 1.299 . S
O138 Zn126 1.898 . S
O138 C133 1.167 . S
O139 Zn128 2.120 . S
O139 C133 1.299 . S
O140 Zn128 2.114 . S
O140 C142 1.166 . S
O141 Zn126 1.905 . S
O141 C142 1.182 . S
C142 O140 1.166 . S
C142 O141 1.182 . S
O143 Zn128 2.080 . S
O143 C146 1.305 . S
O144 Zn127 1.920 1_556 S
O144 C146 1.234 . S
C145 O131 1.305 . S
C145 O132 1.234 . S
C146 O143 1.305 . S
C146 O144 1.234 . S
Zn147 O153 1.920 . S
Zn147 O159 1.898 . S
Zn147 O162 1.905 . S
Zn148 O156 1.905 . S
Zn148 O157 1.898 . S
Zn148 O165 1.920 1_554 S
Zn149 O152 2.080 . S
Zn149 O155 2.114 1_556 S
Zn149 O158 2.120 . S
Zn149 O160 2.120 . S
Zn149 O161 2.114 . S
Zn149 O164 2.080 . S
C150 O155 1.166 . S
C150 O156 1.182 . S
C151 O157 1.167 1_556 S
C151 O158 1.299 . S
O152 Zn149 2.080 . S
O152 C166 1.305 . S
O153 Zn147 1.920 . S
O153 C166 1.234 . S
C154 O159 1.167 . S
C154 O160 1.299 . S
O155 Zn149 2.114 1_554 S
O155 C150 1.166 . S
O156 Zn148 1.905 . S
O156 C150 1.182 . S
O157 Zn148 1.898 . S
O157 C151 1.167 1_554 S
O158 Zn149 2.120 . S
O158 C151 1.299 . S
O159 Zn147 1.898 . S
O159 C154 1.167 . S
O160 Zn149 2.120 . S
O160 C154 1.299 . S
O161 Zn149 2.114 . S
O161 C163 1.166 . S
O162 Zn147 1.905 . S
O162 C163 1.182 . S
C163 O161 1.166 . S
C163 O162 1.182 . S
O164 Zn149 2.080 . S
O164 C167 1.305 . S
O165 Zn148 1.920 1_556 S
O165 C167 1.234 . S
C166 O152 1.305 . S
C166 O153 1.234 . S
C167 O164 1.305 . S
C167 O165 1.234 . S
C168 C169 1.387 . S
C168 H172 0.950 . S
C168 C177 1.390 . S
C169 C168 1.387 . S
C169 C171 1.387 . S
H170 C177 0.950 . S
C171 C169 1.387 . S
C171 C173 1.390 . S
C171 H175 0.950 . S
H172 C168 0.950 . S
C173 C171 1.390 . S
C173 C174 1.387 . S
C173 H176 0.950 . S
C174 C173 1.387 . S
C174 C177 1.387 . S
H175 C171 0.950 . S
H176 C173 0.950 . S
C177 C168 1.390 . S
C177 H170 0.950 . S
C177 C174 1.387 . S
C178 C179 1.387 . S
C178 H182 0.950 . S
C178 C187 1.390 . S
C179 C178 1.387 . S
C179 C181 1.387 . S
H180 C187 0.950 . S
C181 C179 1.387 . S
C181 C183 1.390 . S
C181 H185 0.950 . S
H182 C178 0.950 . S
C183 C181 1.390 . S
C183 C184 1.387 . S
C183 H186 0.950 . S
C184 C183 1.387 . S
C184 C187 1.387 . S
H185 C181 0.950 . S
H186 C183 0.950 . S
C187 C178 1.390 . S
C187 H180 0.950 . S
C187 C184 1.387 . S
C188 C189 1.387 . S
C188 H192 0.950 . S
C188 C197 1.390 . S
C189 C188 1.387 . S
C189 C191 1.387 . S
H190 C197 0.950 . S
C191 C189 1.387 . S
C191 C193 1.390 . S
C191 H195 0.950 . S
H192 C188 0.950 . S
C193 C191 1.390 . S
C193 C194 1.387 . S
C193 H196 0.950 . S
C194 C193 1.387 . S
C194 C197 1.387 . S
H195 C191 0.950 . S
H196 C193 0.950 . S
C197 C188 1.390 . S
C197 H190 0.950 . S
C197 C194 1.387 . S
C198 C199 1.387 . S
C198 H202 0.950 . S
C198 C207 1.390 . S
C199 C198 1.387 . S
C199 C201 1.387 . S
H200 C207 0.950 . S
C201 C199 1.387 . S
C201 C203 1.390 . S
C201 H205 0.950 . S
H202 C198 0.950 . S
C203 C201 1.390 . S
C203 C204 1.387 . S
C203 H206 0.950 . S
C204 C203 1.387 . S
C204 C207 1.387 . S
H205 C201 0.950 . S
H206 C203 0.950 . S
C207 C198 1.390 . S
C207 H200 0.950 . S
C207 C204 1.387 . S
C208 C209 1.387 . S
C208 H212 0.950 . S
C208 C217 1.390 1_565 S
C209 C208 1.387 . S
C209 C211 1.387 . S
H210 C217 0.950 . S
C211 C209 1.387 . S
C211 C213 1.390 1_565 S
C211 H215 0.950 . S
H212 C208 0.950 . S
C213 C211 1.390 1_545 S
C213 C214 1.387 . S
C213 H216 0.950 . S
C214 C213 1.387 . S
C214 C217 1.387 . S
H215 C211 0.950 . S
H216 C213 0.950 . S
C217 C208 1.390 1_545 S
C217 H210 0.950 . S
C217 C214 1.387 . S
C218 C219 1.387 . S
C218 H222 0.950 . S
C218 C227 1.390 . S
C219 C218 1.387 . S
C219 C221 1.387 . S
H220 C227 0.950 . S
C221 C219 1.387 . S
C221 C223 1.390 . S
C221 H225 0.950 . S
H222 C218 0.950 . S
C223 C221 1.390 . S
C223 C224 1.387 . S
C223 H226 0.950 . S
C224 C223 1.387 . S
C224 C227 1.387 . S
H225 C221 0.950 . S
H226 C223 0.950 . S
C227 C218 1.390 . S
C227 H220 0.950 . S
C227 C224 1.387 . S
C228 C229 1.387 . S
C228 H232 0.950 . S
C228 C237 1.390 1_565 S
C229 C228 1.387 . S
C229 C231 1.387 . S
H230 C237 0.950 . S
C231 C229 1.387 . S
C231 C233 1.390 1_565 S
C231 H235 0.950 . S
H232 C228 0.950 . S
C233 C231 1.390 1_545 S
C233 C234 1.387 . S
C233 H236 0.950 . S
C234 C233 1.387 . S
C234 C237 1.387 . S
H235 C231 0.950 . S
H236 C233 0.950 . S
C237 C228 1.390 1_545 S
C237 H230 0.950 . S
C237 C234 1.387 . S
C238 C239 1.387 . S
C238 H242 0.950 . S
C238 C247 1.390 . S
C239 C238 1.387 . S
C239 C241 1.387 . S
H240 C247 0.950 . S
C241 C239 1.387 . S
C241 C243 1.390 . S
C241 H245 0.950 . S
H242 C238 0.950 . S
C243 C241 1.390 . S
C243 C244 1.387 . S
C243 H246 0.950 . S
C244 C243 1.387 . S
C244 C247 1.387 . S
H245 C241 0.950 . S
H246 C243 0.950 . S
C247 C238 1.390 . S
C247 H240 0.950 . S
C247 C244 1.387 . S
C248 C249 1.387 . S
C248 H252 0.950 . S
C248 C257 1.390 1_554 S
C249 C248 1.387 . S
C249 C251 1.387 . S
H250 C257 0.950 . S
C251 C249 1.387 . S
C251 C253 1.390 1_554 S
C251 H255 0.950 . S
H252 C248 0.950 . S
C253 C251 1.390 1_556 S
C253 C254 1.387 . S
C253 H256 0.950 . S
C254 C253 1.387 . S
C254 C257 1.387 . S
H255 C251 0.950 . S
H256 C253 0.950 . S
C257 C248 1.390 1_556 S
C257 H250 0.950 . S
C257 C254 1.387 . S
C258 C259 1.387 . S
C258 H262 0.950 . S
C258 C267 1.390 1_564 S
C259 C258 1.387 . S
C259 C261 1.387 . S
H260 C267 0.950 . S
C261 C259 1.387 . S
C261 C263 1.390 1_564 S
C261 H265 0.950 . S
H262 C258 0.950 . S
C263 C261 1.390 1_546 S
C263 C264 1.387 . S
C263 H266 0.950 . S
C264 C263 1.387 . S
C264 C267 1.387 . S
H265 C261 0.950 . S
H266 C263 0.950 . S
C267 C258 1.390 1_546 S
C267 H260 0.950 . S
C267 C264 1.387 . S
C268 C269 1.387 . S
C268 H272 0.950 . S
C268 C277 1.390 1_556 S
C269 C268 1.387 . S
C269 C271 1.387 . S
H270 C277 0.950 . S
C271 C269 1.387 . S
C271 C273 1.390 1_556 S
C271 H275 0.950 . S
H272 C268 0.950 . S
C273 C271 1.390 1_554 S
C273 C274 1.387 . S
C273 H276 0.950 . S
C274 C273 1.387 . S
C274 C277 1.387 . S
H275 C271 0.950 . S
H276 C273 0.950 . S
C277 C268 1.390 1_554 S
C277 H270 0.950 . S
C277 C274 1.387 . S
C278 C279 1.387 . S
C278 H282 0.950 . S
C278 C287 1.390 1_546 S
C279 C278 1.387 . S
C279 C281 1.387 . S
H280 C287 0.950 . S
C281 C279 1.387 . S
C281 C283 1.390 1_546 S
C281 H285 0.950 . S
H282 C278 0.950 . S
C283 C281 1.390 1_564 S
C283 C284 1.387 . S
C283 H286 0.950 . S
C284 C283 1.387 . S
C284 C287 1.387 . S
H285 C281 0.950 . S
H286 C283 0.950 . S
C287 C278 1.390 1_564 S
C287 H280 0.950 . S
C287 C284 1.387 . S
C288 C289 1.387 . S
C288 H292 0.950 . S
C288 C297 1.390 . S
C289 C288 1.387 . S
C289 C291 1.387 . S
H290 C297 0.950 . S
C291 C289 1.387 . S
C291 C293 1.390 . S
C291 H295 0.950 . S
H292 C288 0.950 . S
C293 C291 1.390 . S
C293 C294 1.387 1_554 S
C293 H296 0.950 . S
C294 C293 1.387 1_556 S
C294 C297 1.387 1_556 S
H295 C291 0.950 . S
H296 C293 0.950 . S
C297 C288 1.390 . S
C297 H290 0.950 . S
C297 C294 1.387 1_554 S
C298 C299 1.387 . S
C298 H302 0.950 . S
C298 C307 1.390 . S
C299 C298 1.387 . S
C299 C301 1.387 . S
H300 C307 0.950 . S
C301 C299 1.387 . S
C301 C303 1.390 . S
C301 H305 0.950 . S
H302 C298 0.950 . S
C303 C301 1.390 . S
C303 C304 1.387 1_554 S
C303 H306 0.950 . S
C304 C303 1.387 1_556 S
C304 C307 1.387 1_556 S
H305 C301 0.950 . S
H306 C303 0.950 . S
C307 C298 1.390 . S
C307 H300 0.950 . S
C307 C304 1.387 1_554 S
C308 C309 1.387 1_556 S
C308 H312 0.950 . S
C308 C317 1.390 . S
C309 C308 1.387 1_554 S
C309 C311 1.387 1_554 S
H310 C317 0.950 . S
C311 C309 1.387 1_556 S
C311 C313 1.390 . S
C311 H315 0.950 . S
H312 C308 0.950 . S
C313 C311 1.390 . S
C313 C314 1.387 . S
C313 H316 0.950 . S
C314 C313 1.387 . S
C314 C317 1.387 . S
H315 C311 0.950 . S
H316 C313 0.950 . S
C317 C308 1.390 . S
C317 H310 0.950 . S
C317 C314 1.387 . S
C318 C319 1.387 . S
C318 H322 0.950 . S
C318 C327 1.390 . S
C319 C318 1.387 . S
C319 C321 1.387 . S
H320 C327 0.950 . S
C321 C319 1.387 . S
C321 C323 1.390 . S
C321 H325 0.950 . S
H322 C318 0.950 . S
C323 C321 1.390 . S
C323 C324 1.387 1_556 S
C323 H326 0.950 . S
C324 C323 1.387 1_554 S
C324 C327 1.387 1_554 S
H325 C321 0.950 . S
H326 C323 0.950 . S
C327 C318 1.390 . S
C327 H320 0.950 . S
C327 C324 1.387 1_556 S
C328 C329 1.387 . S
C328 H332 0.950 . S
C328 C337 1.390 . S
C329 C328 1.387 . S
C329 C331 1.387 . S
H330 C337 0.950 . S
C331 C329 1.387 . S
C331 C333 1.390 . S
C331 H335 0.950 . S
H332 C328 0.950 . S
C333 C331 1.390 . S
C333 C334 1.387 . S
C333 H336 0.950 . S
C334 C333 1.387 . S
C334 C337 1.387 . S
H335 C331 0.950 . S
H336 C333 0.950 . S
C337 C328 1.390 . S
C337 H330 0.950 . S
C337 C334 1.387 . S
C338 C339 1.387 . S
C338 H342 0.950 . S
C338 C347 1.390 . S
C339 C338 1.387 . S
C339 C341 1.387 . S
H340 C347 0.950 . S
C341 C339 1.387 . S
C341 C343 1.390 . S
C341 H345 0.950 . S
H342 C338 0.950 . S
C343 C341 1.390 . S
C343 C344 1.387 . S
C343 H346 0.950 . S
C344 C343 1.387 . S
C344 C347 1.387 . S
H345 C341 0.950 . S
H346 C343 0.950 . S
C347 C338 1.390 . S
C347 H340 0.950 . S
C347 C344 1.387 . S
C348 C349 1.387 . S
C348 H352 0.950 . S
C348 C357 1.390 . S
C349 C348 1.387 . S
C349 C351 1.387 . S
H350 C357 0.950 . S
C351 C349 1.387 . S
C351 C353 1.390 . S
C351 H355 0.950 . S
H352 C348 0.950 . S
C353 C351 1.390 . S
C353 C354 1.387 . S
C353 H356 0.950 . S
C354 C353 1.387 . S
C354 C357 1.387 . S
H355 C351 0.950 . S
H356 C353 0.950 . S
C357 C348 1.390 . S
C357 H350 0.950 . S
C357 C354 1.387 . S
C358 C359 1.387 . S
C358 H362 0.950 . S
C358 C367 1.390 . S
C359 C358 1.387 . S
C359 C361 1.387 . S
H360 C367 0.950 . S
C361 C359 1.387 . S
C361 C363 1.390 . S
C361 H365 0.950 . S
H362 C358 0.950 . S
C363 C361 1.390 . S
C363 C364 1.387 . S
C363 H366 0.950 . S
C364 C363 1.387 . S
C364 C367 1.387 . S
H365 C361 0.950 . S
H366 C363 0.950 . S
C367 C358 1.390 . S
C367 H360 0.950 . S
C367 C364 1.387 . S
C368 C369 1.387 . S
C368 H372 0.950 . S
C368 C377 1.390 1_455 S
C369 C368 1.387 . S
C369 C371 1.387 . S
H370 C377 0.950 . S
C371 C369 1.387 . S
C371 C373 1.390 1_455 S
C371 H375 0.950 . S
H372 C368 0.950 . S
C373 C371 1.390 1_655 S
C373 C374 1.387 . S
C373 H376 0.950 . S
C374 C373 1.387 . S
C374 C377 1.387 . S
H375 C371 0.950 . S
H376 C373 0.950 . S
C377 C368 1.390 1_655 S
C377 H370 0.950 . S
C377 C374 1.387 . S
C378 C379 1.387 . S
C378 H382 0.950 . S
C378 C387 1.390 1_655 S
C379 C378 1.387 . S
C379 C381 1.387 . S
H380 C387 0.950 . S
C381 C379 1.387 . S
C381 C383 1.390 1_655 S
C381 H385 0.950 . S
H382 C378 0.950 . S
C383 C381 1.390 1_455 S
C383 C384 1.387 . S
C383 H386 0.950 . S
C384 C383 1.387 . S
C384 C387 1.387 . S
H385 C381 0.950 . S
H386 C383 0.950 . S
C387 C378 1.390 1_455 S
C387 H380 0.950 . S
C387 C384 1.387 . S
C388 C389 1.387 . S
C388 H392 0.950 . S
C388 C397 1.390 . S
C389 C388 1.387 . S
C389 C391 1.387 . S
H390 C397 0.950 . S
C391 C389 1.387 . S
C391 C393 1.390 . S
C391 H395 0.950 1_554 S
H392 C388 0.950 . S
C393 C391 1.390 . S
C393 C394 1.387 . S
C393 H396 0.950 1_554 S
C394 C393 1.387 . S
C394 C397 1.387 . S
H395 C391 0.950 1_556 S
H396 C393 0.950 1_556 S
C397 C388 1.390 . S
C397 H390 0.950 . S
C397 C394 1.387 . S
C398 C399 1.387 . S
C398 H402 0.950 . S
C398 C407 1.390 . S
C399 C398 1.387 . S
C399 C401 1.387 . S
H400 C407 0.950 . S
C401 C399 1.387 . S
C401 C403 1.390 . S
C401 H405 0.950 1_556 S
H402 C398 0.950 . S
C403 C401 1.390 . S
C403 C404 1.387 . S
C403 H406 0.950 1_556 S
C404 C403 1.387 . S
C404 C407 1.387 . S
H405 C401 0.950 1_554 S
H406 C403 0.950 1_554 S
C407 C398 1.390 . S
C407 H400 0.950 . S
C407 C404 1.387 . S
C169 C19 1.413 . S
C174 C167 1.413 . S
C179 C146 1.413 . S
C184 C40 1.413 . S
C189 C124 1.413 . S
C194 C62 1.413 . S
C199 C104 1.413 . S
C204 C83 1.413 . S
C209 C46 1.509 . S
C214 C7 1.509 . S
C219 C28 1.506 . S
C224 C67 1.506 . S
C229 C70 1.260 . S
C234 C25 1.260 . S
C239 C49 1.260 . S
C244 C4 1.260 . S
C249 C88 1.506 . S
C254 C130 1.506 . S
C259 C112 1.506 . S
C264 C151 1.506 . S
C269 C154 1.264 . S
C274 C109 1.264 . S
C279 C133 1.260 . S
C284 C91 1.260 . S
C289 C16 1.314 . S
C294 C20 1.337 . S
C299 C37 1.315 . S
C304 C41 1.341 . S
C309 C61 1.341 . S
C314 C45 1.316 . S
C319 C66 1.314 . S
C324 C82 1.337 . S
C329 C103 1.341 . S
C334 C87 1.315 . S
C339 C121 1.315 . S
C344 C125 1.341 . S
C349 C129 1.315 . S
C354 C145 1.341 . S
C359 C150 1.315 . S
C364 C166 1.341 . S
C369 C3 1.314 . S
C374 C24 1.314 . S
C379 C79 1.320 . S
C384 C58 1.320 . S
C389 C100 1.320 . S
C394 C108 1.320 . S
C399 C163 1.320 . S
C404 C142 1.320 . S
