# Generated by pormake.
# Topology bsn, (6)-cn, num edge types: 1
# Building blocks:
#     Node 0, Type 0, BuildingBlock: BETDEL_clean_sbu_0, # of connection points: 6
#     Node 1, Type 0, BuildingBlock: BETDEL_clean_sbu_0, # of connection points: 6
#     Node 2, Type 0, BuildingBlock: BETDEL_clean_sbu_0, # of connection points: 6
#     Node 3, Type 0, BuildingBlock: BETDEL_clean_sbu_0, # of connection points: 6
#     Edge 4, Type (0, 0), BuildingBlock: ZUJKAS_clean_linker_0, # of connection points: 2
#     Edge 5, Type (0, 0), BuildingBlock: ZUJKAS_clean_linker_0, # of connection points: 2
#     Edge 6, Type (0, 0), BuildingBlock: ZUJKAS_clean_linker_0, # of connection points: 2
#     Edge 7, Type (0, 0), BuildingBlock: ZUJKAS_clean_linker_0, # of connection points: 2
#     Edge 8, Type (0, 0), BuildingBlock: ZUJKAS_clean_linker_0, # of connection points: 2
#     Edge 9, Type (0, 0), BuildingBlock: ZUJKAS_clean_linker_0, # of connection points: 2
#     Edge 10, Type (0, 0), BuildingBlock: ZUJKAS_clean_linker_0, # of connection points: 2
#     Edge 11, Type (0, 0), BuildingBlock: ZUJKAS_clean_linker_0, # of connection points: 2
#     Edge 12, Type (0, 0), BuildingBlock: ZUJKAS_clean_linker_0, # of connection points: 2
#     Edge 13, Type (0, 0), BuildingBlock: ZUJKAS_clean_linker_0, # of connection points: 2
#     Edge 14, Type (0, 0), BuildingBlock: ZUJKAS_clean_linker_0, # of connection points: 2
#     Edge 15, Type (0, 0), BuildingBlock: ZUJKAS_clean_linker_0, # of connection points: 2
# Relax obj value: 0.363
# Max RMSD: 0.270
# Mean RMSD: 0.270
data_MOF--net-bsn--node1-BETDEL_clean_sbu_0--edge1-ZUJKAS_clean_linker_0
_symmetry_space_group_name_H-M    P1
_symmetry_Int_Tables_number       1
_symmetry_cell_setting            triclinic
loop_
_symmetry_equiv_pos_as_xyz
'x, y, z'
_cell_length_a     41.484261
_cell_length_b     41.50909
_cell_length_c     18.693991
_cell_angle_alpha  93.46065
_cell_angle_beta   91.198065
_cell_angle_gamma 90.302974
loop_
_atom_site_label
_atom_site_type_symbol
_atom_site_fract_x
_atom_site_fract_y
_atom_site_fract_z
_atom_type_partial_charge
Dy0 Dy 0.05131 0.25678 0.35842 0.0
C1 C 0.91274 0.25434 0.36044 0.0
C2 C 0.11405 0.26223 0.31896 0.0
Dy3 Dy 0.97827 0.26158 0.36341 0.0
O4 O 0.10373 0.26744 0.3837 0.0
O5 O 0.09012 0.25391 0.27578 0.0
O6 O 0.05391 0.23001 0.45804 0.0
O7 O 0.01694 0.2639 0.44475 0.0
C8 C 0.02761 0.24252 0.48417 0.0
C9 C 1.00476 0.27718 0.24053 0.0
O10 O 0.98981 0.31064 0.41179 0.0
O11 O 0.04321 0.31053 0.37609 0.0
O12 O 0.92879 0.27316 0.40691 0.0
O13 O 0.93256 0.23924 0.31783 0.0
O14 O 0.97982 0.29142 0.26776 0.0
O15 O 0.01294 0.25435 0.278 0.0
O16 O 0.03881 0.20482 0.33354 0.0
O17 O 0.98653 0.20874 0.37507 0.0
C18 C 0.01765 0.32561 0.40356 0.0
C19 C 1.0115 0.19136 0.35266 0.0
Dy20 Dy 1.01246 0.80129 0.58796 0.0
C21 C 0.02333 0.66302 0.59726 0.0
C22 C 1.00496 0.8621 0.54179 0.0
Dy23 Dy 0.01331 0.72794 0.59641 0.0
O24 O 1.01125 0.85529 0.60748 0.0
O25 O 1.00237 0.83564 0.50127 0.0
O26 O 0.03532 0.80901 0.6964 0.0
O27 O 1.00505 0.76857 0.6732 0.0
C28 C 0.02433 0.78211 0.71889 0.0
C29 C 1.00033 0.75013 0.46803 0.0
O30 O 0.96237 0.73586 0.62689 0.0
O31 O 0.95925 0.78884 0.59267 0.0
O32 O 0.02841 0.68089 0.54423 0.0
O33 O 0.01311 0.68074 0.65205 0.0
O34 O 0.98588 0.72544 0.4922 0.0
O35 O 0.02145 0.76111 0.51237 0.0
O36 O 0.06518 0.79249 0.57569 0.0
O37 O 0.06494 0.74136 0.62011 0.0
C38 C 0.94551 0.76202 0.61389 0.0
C39 C 0.08035 0.76751 0.6015 0.0
Dy40 Dy 0.54977 0.75901 0.84555 0.0
C41 C 0.41191 0.76771 0.83373 0.0
C42 C 0.61207 0.75307 0.80305 0.0
Dy43 Dy 0.47672 0.7585 0.84683 0.0
O44 O 0.60253 0.75071 0.8683 0.0
O45 O 0.58756 0.75821 0.76111 0.0
O46 O 0.55336 0.78506 0.95285 0.0
O47 O 0.51436 0.75315 0.92864 0.0
C48 C 0.52609 0.77386 -0.02562 0.0
C49 C 0.50377 0.74216 0.72137 0.0
O50 O 0.48786 0.81088 0.87276 0.0
O51 O 0.54105 0.81157 0.8365 0.0
O52 O 0.4331 0.7732 0.78615 0.0
O53 O 0.4261 0.75761 0.89111 0.0
O54 O 0.4789 0.72757 0.74509 0.0
O55 O 0.51256 0.76485 0.76515 0.0
O56 O 0.53787 0.70569 0.84659 0.0
O57 O 0.48435 0.70875 0.88119 0.0
C58 C 0.51465 0.82659 0.85861 0.0
C59 C 0.511 0.692 0.86863 0.0
Dy60 Dy 0.5173 0.30089 0.10693 0.0
C61 C 0.51933 0.16244 0.0927 0.0
C62 C 0.51356 0.36277 0.06604 0.0
Dy63 Dy 0.51313 0.22781 0.10644 0.0
O64 O 0.51012 0.35415 0.13113 0.0
O65 O 0.51889 0.3376 0.02342 0.0
O66 O 0.5419 0.30486 0.21379 0.0
O67 O 0.50848 0.26692 0.18907 0.0
C68 C 0.52921 0.2783 0.2344 0.0
C69 C 0.50051 0.2539 -0.01829 0.0
O70 O 0.463 0.23804 0.13979 0.0
O71 O 0.46338 0.29153 0.10884 0.0
O72 O 0.52734 0.18255 0.04585 0.0
O73 O 0.50842 0.17805 0.14977 0.0
O74 O 0.48442 0.22991 0.00436 0.0
O75 O 0.52272 0.26222 0.02584 0.0
O76 O 0.56967 0.28928 0.09659 0.0
O77 O 0.56542 0.237 0.13311 0.0
C78 C 0.44791 0.26542 0.12877 0.0
C79 C 0.58294 0.26255 0.11884 0.0
H80 H 0.07192 0.35618 0.45787 0.0
H81 H 0.07667 0.41133 0.51111 0.0
H82 H 0.97612 0.4272 0.46127 0.0
H83 H 0.9709 0.37147 0.41221 0.0
H84 H 0.07223 0.46567 0.46059 0.0
H85 H 0.97714 0.46265 0.66118 0.0
H86 H 0.99051 0.42656 0.6123 0.0
H87 H 0.96008 0.45178 0.57428 0.0
C88 C 0.05083 0.37147 0.45852 0.0
C89 C 0.02101 0.35957 0.43114 0.0
C90 C 0.05352 0.40296 0.48924 0.0
C91 C 0.02656 0.42336 0.49214 0.0
C92 C 0.99699 0.41169 0.46258 0.0
H93 H 0.02839 0.62596 0.4751 0.0
H94 H 0.03171 0.56763 0.45985 0.0
C95 C 0.99411 0.37995 0.43357 0.0
C96 C 0.02981 0.45736 0.52187 0.0
H97 H 0.99195 0.51589 0.6249 0.0
C98 C 0.05494 0.4764 0.49754 0.0
C99 C 1.00801 0.47146 0.57195 0.0
C100 C 0.98271 0.45187 0.60702 0.0
C101 C 0.0577 0.50934 0.51832 0.0
C102 C 0.0338 0.52414 0.56199 0.0
C103 C 1.00988 0.50479 0.5901 0.0
C104 C 0.03162 0.55982 0.57335 0.0
C105 C 0.08622 0.52786 0.4927 0.0
C106 C 0.02873 0.57506 0.64228 0.0
C107 C 0.02591 0.60878 0.65112 0.0
C108 C 0.02618 0.62756 0.59112 0.0
C109 C 0.02869 0.61217 0.52252 0.0
C110 C 0.03089 0.57875 0.51369 0.0
H111 H 0.10762 0.51202 0.48646 0.0
H112 H 0.08032 0.53685 0.4393 0.0
H113 H 0.09275 0.54873 0.53027 0.0
H114 H 0.02878 0.56091 0.68911 0.0
H115 H 0.02378 0.62011 0.70452 0.0
H116 H 0.66586 0.74491 0.88621 0.0
H117 H 0.72218 0.74727 0.84956 0.0
H118 H 0.69075 0.76352 0.63334 0.0
H119 H 0.63445 0.7607 0.66944 0.0
H120 H 0.73918 0.71831 0.63933 0.0
H121 H 0.7713 0.82934 0.80632 0.0
H122 H 0.75453 0.79781 0.85601 0.0
H123 H 0.7301 0.81632 0.78951 0.0
C124 C 0.67102 0.74886 0.83085 0.0
C125 C 0.64591 0.75274 0.78065 0.0
C126 C 0.70315 0.75046 0.81011 0.0
C127 C 0.71061 0.75619 0.73905 0.0
C128 C 0.6855 0.75931 0.68854 0.0
H129 H 0.90146 0.81014 0.59489 0.0
H130 H 0.84379 0.80918 0.62062 0.0
C131 C 0.65339 0.75766 0.7092 0.0
C132 C 0.74459 0.75854 0.717 0.0
H133 H 0.81467 0.80074 0.75097 0.0
C134 C 0.75566 0.73643 0.66345 0.0
C135 C 0.76586 0.78255 0.74771 0.0
C136 C 0.75484 0.80807 0.80258 0.0
C137 C 0.78771 0.73712 0.64108 0.0
C138 C 0.80935 0.76022 0.67403 0.0
C139 C 0.79808 0.7829 0.72621 0.0
C140 C 0.84402 0.76062 0.65668 0.0
C141 C 0.79804 0.71325 0.582 0.0
C142 C 0.86324 0.73377 0.66909 0.0
C143 C 0.89605 0.73417 0.6543 0.0
C144 C 0.91045 0.7616 0.62738 0.0
C145 C 0.89116 0.78859 0.61533 0.0
C146 C 0.85822 0.78812 0.63008 0.0
H147 H 0.77711 0.70391 0.54878 0.0
H148 H 0.81559 0.72431 0.54655 0.0
H149 H 0.80979 0.6924 0.60608 0.0
H150 H 0.85292 0.71259 0.69114 0.0
H151 H 0.91014 0.71302 0.66482 0.0
H152 H 0.50215 0.41738 0.1497 0.0
H153 H 0.50107 0.47305 0.11276 0.0
H154 H 0.52234 0.43916 0.89626 0.0
H155 H 0.52291 0.38346 0.93264 0.0
H156 H 0.54983 0.50788 0.05368 0.0
H157 H 0.44354 0.4959 0.86854 0.0
H158 H 0.45338 0.46611 0.93185 0.0
H159 H 0.47459 0.4669 0.84908 0.0
C160 C 0.50638 0.42184 0.09417 0.0
C161 C 0.51244 0.39621 0.04389 0.0
C162 C 0.50582 0.45359 0.07318 0.0
C163 C 0.51119 0.46017 0.00159 0.0
C164 C 0.51748 0.43456 0.95143 0.0
H165 H 0.5605 0.64882 0.85106 0.0
H166 H 0.56108 0.5923 0.88156 0.0
C167 C 0.51796 0.40281 0.97235 0.0
C168 C 0.51101 0.4939 -0.02015 0.0
H169 H 0.47371 0.54466 0.86777 0.0
C170 C 0.53317 0.51597 0.01312 0.0
C171 C 0.48899 0.50442 0.92749 0.0
C172 C 0.46356 0.48221 0.89258 0.0
C173 C 0.53412 0.54828 -0.00505 0.0
C174 C 0.51272 0.55857 0.94114 0.0
C175 C 0.49035 0.53657 0.90838 0.0
C176 C 0.51225 0.59241 0.92011 0.0
C177 C 0.55752 0.57126 0.03467 0.0
C178 C 0.48429 0.61086 0.92956 0.0
C179 C 0.48376 0.64302 0.91168 0.0
C180 C 0.51121 0.65738 0.88375 0.0
C181 C 0.539 0.6386 0.87282 0.0
C182 C 0.53946 0.60635 0.89063 0.0
H183 H 0.56644 0.56164 0.08558 0.0
H184 H 0.57863 0.57505 0.0006 0.0
H185 H 0.54617 0.59506 0.04706 0.0
H186 H 0.46298 0.6005 0.95193 0.0
H187 H 0.46191 0.65669 0.92074 0.0
H188 H 0.87878 0.21409 0.26762 0.0
H189 H 0.82214 0.21815 0.23142 0.0
H190 H 0.81038 0.29831 0.38616 0.0
H191 H 0.86745 0.29426 0.42319 0.0
H192 H 0.75798 0.2512 0.37675 0.0
H193 H 0.79069 0.29357 0.11176 0.0
H194 H 0.81028 0.25688 0.13396 0.0
H195 H 0.81894 0.2937 0.18663 0.0
C196 C 0.86406 0.23232 0.29473 0.0
C197 C 0.87751 0.25402 0.3479 0.0
C198 C 0.83177 0.23473 0.27363 0.0
C199 C 0.81233 0.25897 0.30498 0.0
C200 C 0.82515 0.27962 0.36091 0.0
H201 H 0.62615 0.31294 0.11926 0.0
H202 H 0.68181 0.31399 0.16576 0.0
C203 C 0.85763 0.27721 0.38219 0.0
C204 C 0.77897 0.26307 0.27732 0.0
H205 H 0.73595 0.27758 0.12491 0.0
C206 C 0.7531 0.25725 0.32194 0.0
C207 C 0.77272 0.27144 0.20608 0.0
C208 C 0.79959 0.27957 0.15692 0.0
C209 C 0.72108 0.25831 0.29623 0.0
C210 C 0.71492 0.26497 0.2238 0.0
C211 C 0.74076 0.27208 0.18011 0.0
C212 C 0.68185 0.26395 0.19208 0.0
C213 C 0.69412 0.2523 0.34679 0.0
C214 C 0.66389 0.23517 0.18903 0.0
C215 C 0.6322 0.23443 0.16229 0.0
C216 C 0.61784 0.26245 0.13765 0.0
C217 C 0.63642 0.29092 0.13775 0.0
C218 C 0.66819 0.29162 0.1646 0.0
H219 H 0.70212 0.25645 0.40372 0.0
H220 H 0.6732 0.26811 0.33665 0.0
H221 H 0.68596 0.22682 0.33848 0.0
H222 H 0.67428 0.21333 0.20824 0.0
H223 H 0.61875 0.212 0.16258 0.0
H224 H 0.41033 0.31945 0.14599 0.0
H225 H 0.35339 0.32184 0.17819 0.0
H226 H 0.34936 0.21788 0.17314 0.0
H227 H 0.40623 0.21527 0.14298 0.0
H228 H 0.29848 0.29843 0.11259 0.0
H229 H 0.31666 0.24175 0.37078 0.0
H230 H 0.34982 0.25547 0.31939 0.0
H231 H 0.33104 0.21691 0.2965 0.0
C232 C 0.39728 0.29709 0.15154 0.0
C233 C 0.41293 0.26718 0.14277 0.0
C234 C 0.36475 0.29851 0.16999 0.0
C235 C 0.34732 0.27006 0.17977 0.0
C236 C 0.36257 0.24017 0.16804 0.0
H237 H 0.13981 0.24465 0.1896 0.0
H238 H 0.19633 0.24844 0.15567 0.0
C239 C 0.39508 0.23874 0.15035 0.0
C240 C 0.31324 0.27148 0.20242 0.0
H241 H 0.26225 0.24574 0.32843 0.0
C242 C 0.29056 0.28712 0.16007 0.0
C243 C 0.30302 0.25728 0.26517 0.0
C244 C 0.32647 0.24222 0.31599 0.0
C245 C 0.25779 0.28813 0.17761 0.0
C246 C 0.24731 0.27234 0.23814 0.0
C247 C 0.27016 0.25749 0.28152 0.0
C248 C 0.21282 0.27079 0.25771 0.0
C249 C 0.23488 0.30653 0.13166 0.0
C250 C 0.20336 0.28117 0.32703 0.0
C251 C 0.17121 0.27841 0.3469 0.0
C252 C 0.14791 0.26534 0.29772 0.0
C253 C 0.15729 0.25504 0.22835 0.0
C254 C 0.18952 0.25747 0.20873 0.0
H255 H 0.24774 0.32525 0.10294 0.0
H256 H 0.22325 0.28954 0.09074 0.0
H257 H 0.21573 0.31841 0.16422 0.0
H258 H 0.2209 0.29136 0.36589 0.0
H259 H 0.16459 0.28654 0.40073 0.0
H260 H 0.36172 0.77306 0.92847 0.0
H261 H 0.30393 0.77705 0.89701 0.0
H262 H 0.32664 0.76766 0.67235 0.0
H263 H 0.38362 0.76564 0.70329 0.0
H264 H 0.28561 0.81306 0.69201 0.0
H265 H 0.24222 0.70713 0.83123 0.0
H266 H 0.26141 0.73768 0.88959 0.0
H267 H 0.2845 0.71586 0.82238 0.0
C268 C 0.35412 0.77187 0.87258 0.0
C269 C 0.377 0.76917 0.81833 0.0
C270 C 0.32117 0.77389 0.85456 0.0
C271 C 0.3108 0.77227 0.78215 0.0
C272 C 0.33389 0.76918 0.7285 0.0
H273 H 0.12425 0.71905 0.60132 0.0
H274 H 0.18029 0.7225 0.6446 0.0
C275 C 0.36653 0.76796 0.74633 0.0
C276 C 0.27621 0.77424 0.76039 0.0
H277 H 0.20295 0.73737 0.77222 0.0
C278 C 0.26752 0.79649 0.70967 0.0
C279 C 0.25265 0.75246 0.78282 0.0
C280 C 0.26064 0.72673 0.83396 0.0
C281 C 0.23642 0.79684 0.67882 0.0
C282 C 0.21272 0.77539 0.70199 0.0
C283 C 0.2211 0.75382 0.75442 0.0
C284 C 0.17939 0.77403 0.67106 0.0
C285 C 0.22994 0.81912 0.6193 0.0
C286 C 0.1603 0.80188 0.67026 0.0
C287 C 0.1286 0.80008 0.64334 0.0
C288 C 0.11511 0.77022 0.61888 0.0
C289 C 0.13417 0.74239 0.61945 0.0
C290 C 0.16609 0.74433 0.64467 0.0
H291 H 0.25256 0.82592 0.593 0.0
H292 H 0.21325 0.80786 0.57771 0.0
H293 H 0.21887 0.84167 0.64198 0.0
H294 H 0.16955 0.8249 0.69227 0.0
H295 H 0.11416 0.82177 0.64511 0.0
H296 H 0.46549 0.87002 0.85935 0.0
H297 H 0.46779 0.92695 0.90222 0.0
H298 H 0.56931 0.91763 0.95152 0.0
H299 H 0.56746 0.86145 0.90498 0.0
H300 H 0.48037 0.95357 0.02891 0.0
H301 H 0.5722 0.9973 0.84684 0.0
H302 H 0.55417 0.95777 0.83367 0.0
H303 H 0.58724 0.96491 0.89684 0.0
C304 C 0.4884 0.88041 0.87794 0.0
C305 C 0.5164 0.86154 0.87769 0.0
C306 C 0.48967 0.91283 0.90287 0.0
C307 C 0.51884 0.92682 0.92913 0.0
C308 C 0.54676 0.90782 0.92939 0.0
H309 H 0.52015 0.11337 0.18612 0.0
H310 H 0.5212 0.05499 0.15315 0.0
C311 C 0.54566 0.87565 0.90286 0.0
C312 C 0.51979 0.96093 0.9583 0.0
H313 H 0.55934 0.03258 0.94675 0.0
C314 C 0.49749 0.97094 0.0106 0.0
C315 C 0.54202 0.98365 0.93422 0.0
C316 C 0.565 0.97545 0.8743 0.0
C317 C 0.49648 1.00309 0.03867 0.0
C318 C 0.5193 0.02558 0.01594 0.0
C319 C 0.542 0.01533 0.96475 0.0
C320 C 0.51839 0.06052 0.03854 0.0
C321 C 0.47019 0.01279 0.0901 0.0
C322 C 0.51732 0.08299 -0.0145 0.0
C323 C 0.51783 0.11591 0.00416 0.0
C324 C 0.51876 0.1273 0.0764 0.0
C325 C 0.51925 0.10507 0.13006 0.0
C326 C 0.51957 0.0718 0.11118 0.0
H327 H 0.44994 0.9951 0.08696 0.0
H328 H 0.48021 0.01387 0.14569 0.0
H329 H 0.46047 0.03691 0.07919 0.0
H330 H 0.51618 0.07506 0.92919 0.0
H331 H 0.51713 0.13252 0.96161 0.0
H332 H 0.01935 0.91839 0.61777 0.0
H333 H 0.01811 0.97294 0.57549 0.0
H334 H 0.98431 0.93492 0.36724 0.0
H335 H 0.98667 0.87999 0.4088 0.0
H336 H 0.03048 0.97893 0.35449 0.0
H337 H 0.94124 0.02881 0.54608 0.0
H338 H 0.97513 0.01208 0.5915 0.0
H339 H 0.94919 0.98616 0.53465 0.0
C340 C 1.01145 0.92169 0.56312 0.0
C341 C 1.00287 0.89505 0.51666 0.0
C342 C 1.01055 0.95291 0.53912 0.0
C343 C 1.00044 0.95817 0.46861 0.0
C344 C 0.99198 0.93149 0.42199 0.0
H345 H 0.95729 0.15397 0.35365 0.0
H346 H 0.95382 0.09628 0.37185 0.0
C347 C 0.99324 0.90017 0.44579 0.0
C348 C 0.99968 0.99141 0.4432 0.0
H349 H 0.97199 0.06732 0.4853 0.0
C350 C 0.01741 0.99821 0.38262 0.0
C351 C 0.98217 0.01648 0.47901 0.0
C352 C 0.96059 1.01045 0.54091 0.0
C353 C 0.01893 0.02957 0.35831 0.0
C354 C 1.00303 0.05501 0.39685 0.0
C355 C 0.98452 0.04797 0.4561 0.0
C356 C 1.00545 0.08921 0.37781 0.0
C357 C 0.03724 0.03493 0.29111 0.0
C358 C 0.03564 0.10449 0.37403 0.0
C359 C 0.03769 0.13743 0.36243 0.0
C360 C 1.00957 0.15587 0.35602 0.0
C361 C 0.97941 0.14044 0.35858 0.0
C362 C 0.97738 0.10746 0.36907 0.0
H363 H 0.03839 0.01245 0.25586 0.0
H364 H 0.02603 0.05412 0.2602 0.0
H365 H 0.06235 0.04233 0.306 0.0
H366 H 0.05766 0.09125 0.3826 0.0
H367 H 0.06128 0.1487 0.36167 0.0
H368 H 0.98217 0.31978 0.14733 0.0
H369 H 0.98728 0.31588 0.01688 0.0
H370 H 0.04974 0.23376 0.03261 0.0
H371 H 0.04484 0.2375 0.16313 0.0
H372 H 0.06734 0.28133 0.9284 0.0
H373 H 0.94015 0.23774 0.90501 0.0
H374 H 0.94697 0.27521 0.95665 0.0
H375 H 0.96313 0.2385 -0.01179 0.0
C376 C 0.99748 0.30129 0.12302 0.0
C377 C 1.01276 0.27864 0.1648 0.0
C378 C 1.00026 0.29905 0.04875 0.0
C379 C 0.01832 0.27415 0.01569 0.0
C380 C 0.03552 0.25297 0.05762 0.0
H381 H 0.05406 0.20381 0.5812 0.0
H382 H 0.05008 0.21029 0.71169 0.0
C383 C 0.03275 0.25517 0.13193 0.0
C384 C 0.0173 0.26863 0.93732 0.0
H385 H 0.96735 0.2441 0.79708 0.0
C386 C 0.04556 0.27319 0.89948 0.0
C387 C 0.98873 0.25798 0.90046 0.0
C388 C 0.95801 0.25179 0.93947 0.0
C389 C 0.04591 0.2677 0.82488 0.0
C390 C 0.01741 0.25673 0.78806 0.0
C391 C 0.98911 0.25237 0.82591 0.0
C392 C 0.01656 0.25002 0.70991 0.0
C393 C 0.07657 0.2742 0.78595 0.0
C394 C 0.99751 0.26899 0.66637 0.0
C395 C 0.99949 0.26515 0.59199 0.0
C396 C 0.02061 0.24232 0.56065 0.0
C397 C 0.0379 0.22183 0.60429 0.0
C398 C 0.03582 0.22562 0.67859 0.0
H399 H 0.09363 0.28969 0.81948 0.0
H400 H 0.0887 0.25097 0.77204 0.0
H401 H 0.07129 0.28611 0.73542 0.0
H402 H 0.98224 0.28769 0.68997 0.0
H403 H 0.98577 0.28111 0.55933 0.0
H404 H 0.98903 0.73719 0.78402 0.0
H405 H 0.98502 0.73175 0.91338 0.0
H406 H 0.05795 0.80554 0.95301 0.0
H407 H 0.06182 0.81139 0.82406 0.0
H408 H 0.03252 0.71909 0.02166 0.0
H409 H 0.97789 0.84077 0.06043 0.0
H410 H 0.98109 0.8199 0.97332 0.0
H411 H 0.01573 0.83983 0.01534 0.0
C412 C 1.00448 0.75191 0.8204 0.0
C413 C 0.02533 0.77508 0.79467 0.0
C414 C 1.00214 0.74882 0.89397 0.0
C415 C 0.02066 0.76882 0.94216 0.0
C416 C 0.04298 0.79047 0.9163 0.0
H417 H 0.03781 0.79293 0.40199 0.0
H418 H 0.04095 0.79881 0.27265 0.0
C419 C 0.04526 0.79365 0.8429 0.0
C420 C 0.01573 0.768 0.01961 0.0
H421 H 0.99063 0.81372 0.16545 0.0
C422 C 0.02325 0.73966 0.0532 0.0
C423 C 1.00352 0.79499 0.05996 0.0
C424 C 0.9938 0.82553 0.02549 0.0
C425 C 0.01947 0.73779 0.12703 0.0
C426 C 1.00744 0.76483 0.16739 0.0
C427 C 0.99984 0.79314 0.13383 0.0
C428 C 1.00294 0.7641 0.24492 0.0
C429 C 0.02889 0.70719 0.16161 0.0
C430 C 0.97966 0.74363 0.27133 0.0
C431 C 0.97776 0.7403 0.34477 0.0
C432 C 0.99913 0.75745 0.39242 0.0
C433 C 0.02116 0.77938 0.36611 0.0
C434 C 0.02302 0.78272 0.29256 0.0
H435 H 0.04376 0.69122 0.12585 0.0
H436 H 0.04258 0.71282 0.21256 0.0
H437 H 1.00677 0.6937 0.17432 0.0
H438 H 0.96367 0.72952 0.23497 0.0
H439 H 0.96039 0.72345 0.36399 0.0
H440 H 0.55122 0.81445 0.08014 0.0
H441 H 0.54645 0.8094 0.20921 0.0
H442 H 0.47923 0.7304 0.16895 0.0
H443 H 0.48356 0.73554 0.03963 0.0
H444 H 0.46447 0.7753 0.28781 0.0
H445 H 0.59047 0.73031 0.29566 0.0
H446 H 0.5854 0.76868 0.25735 0.0
H447 H 0.5676 0.7331 0.21305 0.0
C448 C 0.53498 0.79641 0.09894 0.0
C449 C 0.5182 0.77498 0.05042 0.0
C450 C 0.53241 0.79349 0.17238 0.0
C451 C 0.51318 0.76901 0.19788 0.0
C452 C 0.49444 0.7492 0.14975 0.0
H453 H 0.4803 0.69965 0.61706 0.0
H454 H 0.48469 0.70387 0.48763 0.0
C455 C 0.49689 0.7522 0.07618 0.0
C456 C 0.51431 0.7627 0.27435 0.0
H457 H 0.5647 0.73859 0.40713 0.0
C458 C 0.48627 0.76717 0.31402 0.0
C459 C 0.54289 0.75192 0.30765 0.0
C460 C 0.57327 0.74542 0.26625 0.0
C461 C 0.48625 0.7618 0.3872 0.0
C462 C 0.51488 0.75125 0.42055 0.0
C463 C 0.54287 0.74664 0.38085 0.0
C464 C 0.51622 0.74565 0.49732 0.0
C465 C 0.45585 0.76807 0.42866 0.0
C466 C 0.53397 0.76673 0.54464 0.0
C467 C 0.53161 0.76433 0.61839 0.0
C468 C 0.51151 0.74078 0.64519 0.0
C469 C 0.4957 0.7182 0.59752 0.0
C470 C 0.49806 0.72064 0.52386 0.0
H471 H 0.43804 0.78215 0.3984 0.0
H472 H 0.44451 0.74467 0.43985 0.0
H473 H 0.46142 0.78135 0.48084 0.0
H474 H 0.54829 0.786 0.5246 0.0
H475 H 0.54411 0.78193 0.65422 0.0
H476 H 0.57258 0.30021 0.33602 0.0
H477 H 0.57024 0.2934 0.46481 0.0
H478 H 0.4873 0.23081 0.4295 0.0
H479 H 0.48984 0.23711 0.30038 0.0
H480 H 0.51577 0.31369 0.53945 0.0
H481 H 0.54205 0.18463 0.57674 0.0
H482 H 0.55288 0.20433 0.49699 0.0
H483 H 0.51206 0.19122 0.50855 0.0
C484 C 0.55431 0.28443 0.35571 0.0
C485 C 0.53112 0.26949 0.30894 0.0
C486 C 0.55303 0.28056 0.42901 0.0
C487 C 0.52864 0.26163 0.45624 0.0
C488 C 0.50658 0.24514 0.40914 0.0
H489 H 0.45833 0.232 0.87704 0.0
H490 H 0.46357 0.2369 0.74804 0.0
C491 C 0.50795 0.24887 0.33564 0.0
C492 C 0.52391 0.26235 0.53401 0.0
H493 H 0.51991 0.21493 0.67595 0.0
C494 C 0.5169 0.29217 0.56956 0.0
C495 C 0.52523 0.23415 0.57245 0.0
C496 C 0.53374 0.20179 0.53697 0.0
C497 C 0.51064 0.29447 0.6429 0.0
C498 C 0.51179 0.26626 0.68125 0.0
C499 C 0.5189 0.23645 0.64581 0.0
C500 C 0.5063 0.26706 0.7587 0.0
C501 C 0.50224 0.32686 0.67848 0.0
C502 C 0.5282 0.28312 0.80677 0.0
C503 C 0.52522 0.28045 0.8803 0.0
C504 C 0.50047 0.26144 0.90623 0.0
C505 C 0.47766 0.24671 0.85815 0.0
C506 C 0.48065 0.2494 0.78471 0.0
H507 H 0.4949 0.34441 0.63871 0.0
H508 H 0.48242 0.32444 0.71686 0.0
H509 H 0.52365 0.33687 0.70889 0.0
H510 H 0.54838 0.2965 0.78733 0.0
H511 H 0.54318 0.2919 0.91643 0.0
loop_
_geom_bond_atom_site_label_1
_geom_bond_atom_site_label_2
_geom_bond_distance
_geom_bond_site_symmetry_2
_ccdc_geom_bond_type
Dy0 O4 2.398 . S
Dy0 O5 2.491 . S
Dy0 O6 2.403 . S
Dy0 O7 2.664 1_455 S
Dy0 O11 2.326 . S
Dy0 O15 2.310 . S
Dy0 O16 2.351 . S
C1 O12 1.185 . S
C1 O13 1.355 . S
C2 O4 1.185 . S
C2 O5 1.355 . S
Dy3 O7 2.310 . S
Dy3 O10 2.351 . S
Dy3 O12 2.398 . S
Dy3 O13 2.491 . S
Dy3 O14 2.403 . S
Dy3 O15 2.664 1_655 S
Dy3 O17 2.326 . S
O4 Dy0 2.398 . S
O4 C2 1.185 . S
O5 Dy0 2.491 . S
O5 C2 1.355 . S
O6 Dy0 2.403 . S
O6 C8 1.254 . S
O7 Dy0 2.664 1_655 S
O7 Dy3 2.310 . S
O7 C8 1.268 1_655 S
C8 O6 1.254 . S
C8 O7 1.268 1_455 S
C9 O14 1.254 . S
C9 O15 1.268 1_655 S
O10 Dy3 2.351 . S
O10 C18 1.249 1_655 S
O11 Dy0 2.326 . S
O11 C18 1.267 . S
O12 C1 1.185 . S
O12 Dy3 2.398 . S
O13 C1 1.355 . S
O13 Dy3 2.491 . S
O14 Dy3 2.403 . S
O14 C9 1.254 . S
O15 Dy0 2.310 . S
O15 Dy3 2.664 1_455 S
O15 C9 1.268 1_455 S
O16 Dy0 2.351 . S
O16 C19 1.249 1_455 S
O17 Dy3 2.326 . S
O17 C19 1.267 . S
C18 O10 1.249 1_455 S
C18 O11 1.267 . S
C19 O16 1.249 1_655 S
C19 O17 1.267 . S
Dy20 O24 2.398 1_455 S
Dy20 O25 2.491 1_455 S
Dy20 O26 2.403 . S
Dy20 O27 2.664 . S
Dy20 O31 2.326 1_455 S
Dy20 O35 2.310 1_455 S
Dy20 O36 2.351 . S
C21 O32 1.185 . S
C21 O33 1.355 . S
C22 O24 1.185 . S
C22 O25 1.355 . S
Dy23 O27 2.310 1_655 S
Dy23 O30 2.351 . S
Dy23 O32 2.398 1_655 S
Dy23 O33 2.491 1_655 S
Dy23 O34 2.403 . S
Dy23 O35 2.664 . S
Dy23 O37 2.326 1_655 S
O24 Dy20 2.398 1_655 S
O24 C22 1.185 . S
O25 Dy20 2.491 1_655 S
O25 C22 1.355 . S
O26 Dy20 2.403 . S
O26 C28 1.254 . S
O27 Dy20 2.664 . S
O27 Dy23 2.310 1_455 S
O27 C28 1.268 . S
C28 O26 1.254 . S
C28 O27 1.268 . S
C29 O34 1.254 . S
C29 O35 1.268 . S
O30 Dy23 2.351 . S
O30 C38 1.249 . S
O31 Dy20 2.326 1_655 S
O31 C38 1.267 . S
O32 C21 1.185 . S
O32 Dy23 2.398 1_455 S
O33 C21 1.355 . S
O33 Dy23 2.491 1_455 S
O34 Dy23 2.403 . S
O34 C29 1.254 . S
O35 Dy20 2.310 1_655 S
O35 Dy23 2.664 . S
O35 C29 1.268 . S
O36 Dy20 2.351 . S
O36 C39 1.249 . S
O37 Dy23 2.326 1_455 S
O37 C39 1.267 . S
C38 O30 1.249 . S
C38 O31 1.267 . S
C39 O36 1.249 . S
C39 O37 1.267 . S
Dy40 O44 2.398 . S
Dy40 O45 2.491 . S
Dy40 O46 2.403 1_556 S
Dy40 O47 2.664 . S
Dy40 O51 2.326 . S
Dy40 O55 2.310 . S
Dy40 O56 2.351 . S
C41 O52 1.185 . S
C41 O53 1.355 . S
C42 O44 1.185 . S
C42 O45 1.355 . S
Dy43 O47 2.310 . S
Dy43 O50 2.351 . S
Dy43 O52 2.398 . S
Dy43 O53 2.491 . S
Dy43 O54 2.403 . S
Dy43 O55 2.664 . S
Dy43 O57 2.326 . S
O44 Dy40 2.398 . S
O44 C42 1.185 . S
O45 Dy40 2.491 . S
O45 C42 1.355 . S
O46 Dy40 2.403 1_554 S
O46 C48 1.254 . S
O47 Dy40 2.664 . S
O47 Dy43 2.310 . S
O47 C48 1.268 1_556 S
C48 O46 1.254 . S
C48 O47 1.268 1_554 S
C49 O54 1.254 . S
C49 O55 1.268 . S
O50 Dy43 2.351 . S
O50 C58 1.249 . S
O51 Dy40 2.326 . S
O51 C58 1.267 . S
O52 C41 1.185 . S
O52 Dy43 2.398 . S
O53 C41 1.355 . S
O53 Dy43 2.491 . S
O54 Dy43 2.403 . S
O54 C49 1.254 . S
O55 Dy40 2.310 . S
O55 Dy43 2.664 . S
O55 C49 1.268 . S
O56 Dy40 2.351 . S
O56 C59 1.249 . S
O57 Dy43 2.326 . S
O57 C59 1.267 . S
C58 O50 1.249 . S
C58 O51 1.267 . S
C59 O56 1.249 . S
C59 O57 1.267 . S
Dy60 O64 2.398 . S
Dy60 O65 2.491 . S
Dy60 O66 2.403 . S
Dy60 O67 2.664 . S
Dy60 O71 2.326 . S
Dy60 O75 2.310 . S
Dy60 O76 2.351 . S
C61 O72 1.185 . S
C61 O73 1.355 . S
C62 O64 1.185 . S
C62 O65 1.355 . S
Dy63 O67 2.310 . S
Dy63 O70 2.351 . S
Dy63 O72 2.398 . S
Dy63 O73 2.491 . S
Dy63 O74 2.403 1_554 S
Dy63 O75 2.664 . S
Dy63 O77 2.326 . S
O64 Dy60 2.398 . S
O64 C62 1.185 . S
O65 Dy60 2.491 . S
O65 C62 1.355 . S
O66 Dy60 2.403 . S
O66 C68 1.254 . S
O67 Dy60 2.664 . S
O67 Dy63 2.310 . S
O67 C68 1.268 . S
C68 O66 1.254 . S
C68 O67 1.268 . S
C69 O74 1.254 . S
C69 O75 1.268 1_556 S
O70 Dy63 2.351 . S
O70 C78 1.249 . S
O71 Dy60 2.326 . S
O71 C78 1.267 . S
O72 C61 1.185 . S
O72 Dy63 2.398 . S
O73 C61 1.355 . S
O73 Dy63 2.491 . S
O74 Dy63 2.403 1_556 S
O74 C69 1.254 . S
O75 Dy60 2.310 . S
O75 Dy63 2.664 . S
O75 C69 1.268 1_554 S
O76 Dy60 2.351 . S
O76 C79 1.249 . S
O77 Dy63 2.326 . S
O77 C79 1.267 . S
C78 O70 1.249 . S
C78 O71 1.267 . S
C79 O76 1.249 . S
C79 O77 1.267 . S
H80 C88 0.929 . S
H81 C90 0.930 . S
H82 C92 0.916 1_655 S
H83 C95 0.929 . S
H84 C98 0.930 . S
H85 C100 0.960 . S
H86 C100 0.960 . S
H87 C100 0.960 . S
C88 H80 0.929 . S
C88 C89 1.377 . S
C88 C90 1.384 . S
C89 C88 1.377 . S
C89 C95 1.390 1_455 S
C90 H81 0.930 . S
C90 C88 1.384 . S
C90 C91 1.372 . S
C91 C90 1.372 . S
C91 C92 1.414 . S
C91 C96 1.490 . S
C92 H82 0.916 1_455 S
C92 C91 1.414 . S
C92 C95 1.385 1_455 S
H93 C109 0.930 1_655 S
H94 C110 0.931 1_655 S
C95 H83 0.929 . S
C95 C89 1.390 1_655 S
C95 C92 1.385 1_655 S
C96 C91 1.490 . S
C96 C98 1.395 . S
C96 C99 1.403 . S
H97 C103 0.930 1_655 S
C98 H84 0.930 . S
C98 C96 1.395 . S
C98 C101 1.403 . S
C99 C96 1.403 . S
C99 C100 1.524 1_455 S
C99 C103 1.400 . S
C100 H85 0.960 . S
C100 H86 0.960 . S
C100 H87 0.960 . S
C100 C99 1.524 1_655 S
C101 C98 1.403 . S
C101 C102 1.392 . S
C101 C105 1.495 . S
C102 C101 1.392 . S
C102 C103 1.385 . S
C102 C104 1.478 . S
C103 H97 0.930 1_455 S
C103 C99 1.400 . S
C103 C102 1.385 . S
C104 C102 1.478 . S
C104 C106 1.381 . S
C104 C110 1.383 . S
C105 C101 1.495 . S
C105 H111 0.959 . S
C105 H112 0.961 . S
C105 H113 0.960 . S
C106 C104 1.381 . S
C106 C107 1.394 . S
C106 H114 0.930 . S
C107 C106 1.394 . S
C107 C108 1.383 . S
C107 H115 0.929 . S
C108 C107 1.383 . S
C108 C109 1.377 . S
C109 H93 0.930 1_455 S
C109 C108 1.377 . S
C109 C110 1.379 . S
C110 H94 0.931 1_455 S
C110 C104 1.383 . S
C110 C109 1.379 . S
H111 C105 0.959 . S
H112 C105 0.961 . S
H113 C105 0.960 . S
H114 C106 0.930 . S
H115 C107 0.929 . S
H116 C124 0.929 . S
H117 C126 0.930 . S
H118 C128 0.930 . S
H119 C131 0.929 . S
H120 C134 0.930 . S
H121 C136 0.960 . S
H122 C136 0.960 . S
H123 C136 0.960 . S
C124 H116 0.929 . S
C124 C125 1.377 . S
C124 C126 1.384 . S
C125 C124 1.377 . S
C125 C131 1.390 . S
C126 H117 0.930 . S
C126 C124 1.384 . S
C126 C127 1.372 . S
C127 C126 1.372 . S
C127 C128 1.400 . S
C127 C132 1.490 . S
C128 H118 0.930 . S
C128 C127 1.400 . S
C128 C131 1.386 . S
H129 C145 0.930 . S
H130 C146 0.931 . S
C131 H119 0.929 . S
C131 C125 1.390 . S
C131 C128 1.386 . S
C132 C127 1.490 . S
C132 C134 1.395 . S
C132 C135 1.403 . S
H133 C139 0.930 . S
C134 H120 0.930 . S
C134 C132 1.395 . S
C134 C137 1.403 . S
C135 C132 1.403 . S
C135 C136 1.524 . S
C135 C139 1.400 . S
C136 H121 0.960 . S
C136 H122 0.960 . S
C136 H123 0.960 . S
C136 C135 1.524 . S
C137 C134 1.403 . S
C137 C138 1.392 . S
C137 C141 1.495 . S
C138 C137 1.392 . S
C138 C139 1.385 . S
C138 C140 1.478 . S
C139 H133 0.930 . S
C139 C135 1.400 . S
C139 C138 1.385 . S
C140 C138 1.478 . S
C140 C142 1.381 . S
C140 C146 1.383 . S
C141 C137 1.495 . S
C141 H147 0.959 . S
C141 H148 0.961 . S
C141 H149 0.960 . S
C142 C140 1.381 . S
C142 C143 1.394 . S
C142 H150 0.930 . S
C143 C142 1.394 . S
C143 C144 1.383 . S
C143 H151 0.929 . S
C144 C143 1.383 . S
C144 C145 1.377 . S
C145 H129 0.930 . S
C145 C144 1.377 . S
C145 C146 1.379 . S
C146 H130 0.931 . S
C146 C140 1.383 . S
C146 C145 1.379 . S
H147 C141 0.959 . S
H148 C141 0.961 . S
H149 C141 0.960 . S
H150 C142 0.930 . S
H151 C143 0.929 . S
H152 C160 0.929 . S
H153 C162 0.930 . S
H154 C164 0.930 1_556 S
H155 C167 0.929 1_556 S
H156 C170 0.930 . S
H157 C172 0.960 . S
H158 C172 0.960 . S
H159 C172 0.960 . S
C160 H152 0.929 . S
C160 C161 1.377 . S
C160 C162 1.384 . S
C161 C160 1.377 . S
C161 C167 1.390 . S
C162 H153 0.930 . S
C162 C160 1.384 . S
C162 C163 1.372 . S
C163 C162 1.372 . S
C163 C164 1.400 . S
C163 C168 1.490 . S
C164 H154 0.930 1_554 S
C164 C163 1.400 . S
C164 C167 1.386 . S
H165 C181 0.930 . S
H166 C182 0.931 . S
C167 H155 0.929 1_554 S
C167 C161 1.390 . S
C167 C164 1.386 . S
C168 C163 1.490 . S
C168 C170 1.395 . S
C168 C171 1.403 1_554 S
H169 C175 0.930 . S
C170 H156 0.930 . S
C170 C168 1.395 . S
C170 C173 1.403 . S
C171 C168 1.403 1_556 S
C171 C172 1.524 . S
C171 C175 1.400 . S
C172 H157 0.960 . S
C172 H158 0.960 . S
C172 H159 0.960 . S
C172 C171 1.524 . S
C173 C170 1.403 . S
C173 C174 1.392 1_554 S
C173 C177 1.495 . S
C174 C173 1.392 1_556 S
C174 C175 1.385 . S
C174 C176 1.478 . S
C175 H169 0.930 . S
C175 C171 1.400 . S
C175 C174 1.385 . S
C176 C174 1.478 . S
C176 C178 1.381 1_556 S
C176 C182 1.383 . S
C177 C173 1.495 . S
C177 H183 0.959 . S
C177 H184 0.961 . S
C177 H185 0.960 . S
C178 C176 1.381 1_554 S
C178 C179 1.394 1_554 S
C178 H186 0.930 . S
C179 C178 1.394 1_556 S
C179 C180 1.383 . S
C179 H187 0.929 1_556 S
C180 C179 1.383 . S
C180 C181 1.377 . S
C181 H165 0.930 . S
C181 C180 1.377 . S
C181 C182 1.379 . S
C182 H166 0.931 . S
C182 C176 1.383 . S
C182 C181 1.379 . S
H183 C177 0.959 . S
H184 C177 0.961 . S
H185 C177 0.960 . S
H186 C178 0.930 . S
H187 C179 0.929 1_554 S
H188 C196 0.929 . S
H189 C198 0.930 . S
H190 C200 0.930 . S
H191 C203 0.929 . S
H192 C206 0.930 . S
H193 C208 0.960 . S
H194 C208 0.960 . S
H195 C208 0.960 . S
C196 H188 0.929 . S
C196 C197 1.377 . S
C196 C198 1.384 . S
C197 C196 1.377 . S
C197 C203 1.390 . S
C198 H189 0.930 . S
C198 C196 1.384 . S
C198 C199 1.372 . S
C199 C198 1.372 . S
C199 C200 1.400 . S
C199 C204 1.490 . S
C200 H190 0.930 . S
C200 C199 1.400 . S
C200 C203 1.386 . S
H201 C217 0.930 . S
H202 C218 0.931 . S
C203 H191 0.929 . S
C203 C197 1.390 . S
C203 C200 1.386 . S
C204 C199 1.490 . S
C204 C206 1.395 . S
C204 C207 1.403 . S
H205 C211 0.930 . S
C206 H192 0.930 . S
C206 C204 1.395 . S
C206 C209 1.403 . S
C207 C204 1.403 . S
C207 C208 1.524 . S
C207 C211 1.400 . S
C208 H193 0.960 . S
C208 H194 0.960 . S
C208 H195 0.960 . S
C208 C207 1.524 . S
C209 C206 1.403 . S
C209 C210 1.392 . S
C209 C213 1.495 . S
C210 C209 1.392 . S
C210 C211 1.385 . S
C210 C212 1.478 . S
C211 H205 0.930 . S
C211 C207 1.400 . S
C211 C210 1.385 . S
C212 C210 1.478 . S
C212 C214 1.381 . S
C212 C218 1.383 . S
C213 C209 1.495 . S
C213 H219 0.959 . S
C213 H220 0.961 . S
C213 H221 0.960 . S
C214 C212 1.381 . S
C214 C215 1.394 . S
C214 H222 0.930 . S
C215 C214 1.394 . S
C215 C216 1.383 . S
C215 H223 0.929 . S
C216 C215 1.383 . S
C216 C217 1.377 . S
C217 H201 0.930 . S
C217 C216 1.377 . S
C217 C218 1.379 . S
C218 H202 0.931 . S
C218 C212 1.383 . S
C218 C217 1.379 . S
H219 C213 0.959 . S
H220 C213 0.961 . S
H221 C213 0.960 . S
H222 C214 0.930 . S
H223 C215 0.929 . S
H224 C232 0.929 . S
H225 C234 0.930 . S
H226 C236 0.930 . S
H227 C239 0.929 . S
H228 C242 0.930 . S
H229 C244 0.960 . S
H230 C244 0.960 . S
H231 C244 0.960 . S
C232 H224 0.929 . S
C232 C233 1.377 . S
C232 C234 1.384 . S
C233 C232 1.377 . S
C233 C239 1.390 . S
C234 H225 0.930 . S
C234 C232 1.384 . S
C234 C235 1.372 . S
C235 C234 1.372 . S
C235 C236 1.400 . S
C235 C240 1.490 . S
C236 H226 0.930 . S
C236 C235 1.400 . S
C236 C239 1.386 . S
H237 C253 0.930 . S
H238 C254 0.931 . S
C239 H227 0.929 . S
C239 C233 1.390 . S
C239 C236 1.386 . S
C240 C235 1.490 . S
C240 C242 1.395 . S
C240 C243 1.403 . S
H241 C247 0.930 . S
C242 H228 0.930 . S
C242 C240 1.395 . S
C242 C245 1.403 . S
C243 C240 1.403 . S
C243 C244 1.524 . S
C243 C247 1.400 . S
C244 H229 0.960 . S
C244 H230 0.960 . S
C244 H231 0.960 . S
C244 C243 1.524 . S
C245 C242 1.403 . S
C245 C246 1.392 . S
C245 C249 1.495 . S
C246 C245 1.392 . S
C246 C247 1.385 . S
C246 C248 1.478 . S
C247 H241 0.930 . S
C247 C243 1.400 . S
C247 C246 1.385 . S
C248 C246 1.478 . S
C248 C250 1.381 . S
C248 C254 1.383 . S
C249 C245 1.495 . S
C249 H255 0.959 . S
C249 H256 0.961 . S
C249 H257 0.960 . S
C250 C248 1.381 . S
C250 C251 1.394 . S
C250 H258 0.930 . S
C251 C250 1.394 . S
C251 C252 1.383 . S
C251 H259 0.929 . S
C252 C251 1.383 . S
C252 C253 1.377 . S
C253 H237 0.930 . S
C253 C252 1.377 . S
C253 C254 1.379 . S
C254 H238 0.931 . S
C254 C248 1.383 . S
C254 C253 1.379 . S
H255 C249 0.959 . S
H256 C249 0.961 . S
H257 C249 0.960 . S
H258 C250 0.930 . S
H259 C251 0.929 . S
H260 C268 0.929 . S
H261 C270 0.930 . S
H262 C272 0.930 . S
H263 C275 0.929 . S
H264 C278 0.930 . S
H265 C280 0.960 . S
H266 C280 0.960 . S
H267 C280 0.960 . S
C268 H260 0.929 . S
C268 C269 1.377 . S
C268 C270 1.384 . S
C269 C268 1.377 . S
C269 C275 1.390 . S
C270 H261 0.930 . S
C270 C268 1.384 . S
C270 C271 1.372 . S
C271 C270 1.372 . S
C271 C272 1.400 . S
C271 C276 1.490 . S
C272 H262 0.930 . S
C272 C271 1.400 . S
C272 C275 1.386 . S
H273 C289 0.930 . S
H274 C290 0.931 . S
C275 H263 0.929 . S
C275 C269 1.390 . S
C275 C272 1.386 . S
C276 C271 1.490 . S
C276 C278 1.395 . S
C276 C279 1.403 . S
H277 C283 0.930 . S
C278 H264 0.930 . S
C278 C276 1.395 . S
C278 C281 1.403 . S
C279 C276 1.403 . S
C279 C280 1.524 . S
C279 C283 1.400 . S
C280 H265 0.960 . S
C280 H266 0.960 . S
C280 H267 0.960 . S
C280 C279 1.524 . S
C281 C278 1.403 . S
C281 C282 1.392 . S
C281 C285 1.495 . S
C282 C281 1.392 . S
C282 C283 1.385 . S
C282 C284 1.478 . S
C283 H277 0.930 . S
C283 C279 1.400 . S
C283 C282 1.385 . S
C284 C282 1.478 . S
C284 C286 1.381 . S
C284 C290 1.383 . S
C285 C281 1.495 . S
C285 H291 0.959 . S
C285 H292 0.961 . S
C285 H293 0.960 . S
C286 C284 1.381 . S
C286 C287 1.394 . S
C286 H294 0.930 . S
C287 C286 1.394 . S
C287 C288 1.383 . S
C287 H295 0.929 . S
C288 C287 1.383 . S
C288 C289 1.377 . S
C289 H273 0.930 . S
C289 C288 1.377 . S
C289 C290 1.379 . S
C290 H274 0.931 . S
C290 C284 1.383 . S
C290 C289 1.379 . S
H291 C285 0.959 . S
H292 C285 0.961 . S
H293 C285 0.960 . S
H294 C286 0.930 . S
H295 C287 0.929 . S
H296 C304 0.929 . S
H297 C306 0.930 . S
H298 C308 0.930 1_554 S
H299 C311 0.929 1_554 S
H300 C314 0.930 . S
H301 C316 0.960 . S
H302 C316 0.960 1_556 S
H303 C316 0.960 . S
C304 H296 0.929 . S
C304 C305 1.377 . S
C304 C306 1.384 . S
C305 C304 1.377 . S
C305 C311 1.390 . S
C306 H297 0.930 . S
C306 C304 1.384 . S
C306 C307 1.372 . S
C307 C306 1.372 . S
C307 C308 1.400 . S
C307 C312 1.490 . S
C308 H298 0.930 1_556 S
C308 C307 1.400 . S
C308 C311 1.386 . S
H309 C325 0.930 . S
H310 C326 0.931 . S
C311 H299 0.929 1_556 S
C311 C305 1.390 . S
C311 C308 1.386 . S
C312 C307 1.490 . S
C312 C314 1.395 . S
C312 C315 1.403 1_556 S
H313 C319 0.930 1_545 S
C314 H300 0.930 . S
C314 C312 1.395 . S
C314 C317 1.403 . S
C315 C312 1.403 1_554 S
C315 C316 1.524 . S
C315 C319 1.400 . S
C316 H301 0.960 . S
C316 H302 0.960 1_554 S
C316 H303 0.960 . S
C316 C315 1.524 . S
C317 C314 1.403 . S
C317 C318 1.392 1_566 S
C317 C321 1.495 1_565 S
C318 C317 1.392 1_544 S
C318 C319 1.385 1_545 S
C318 C320 1.478 . S
C319 H313 0.930 1_565 S
C319 C315 1.400 . S
C319 C318 1.385 1_565 S
C320 C318 1.478 . S
C320 C322 1.381 . S
C320 C326 1.383 . S
C321 C317 1.495 1_545 S
C321 H327 0.959 . S
C321 H328 0.961 1_556 S
C321 H329 0.960 . S
C322 C320 1.381 . S
C322 C323 1.394 . S
C322 H330 0.930 1_554 S
C323 C322 1.394 . S
C323 C324 1.383 . S
C323 H331 0.929 1_554 S
C324 C323 1.383 . S
C324 C325 1.377 . S
C325 H309 0.930 . S
C325 C324 1.377 . S
C325 C326 1.379 . S
C326 H310 0.931 . S
C326 C320 1.383 . S
C326 C325 1.379 . S
H327 C321 0.959 . S
H328 C321 0.961 1_554 S
H329 C321 0.960 . S
H330 C322 0.930 1_556 S
H331 C323 0.929 1_556 S
H332 C340 0.929 1_455 S
H333 C342 0.930 1_455 S
H334 C344 0.930 . S
H335 C347 0.929 . S
H336 C350 0.922 1_565 S
H337 C352 0.960 . S
H338 C352 0.960 1_565 S
H339 C352 0.960 1_565 S
C340 H332 0.929 1_655 S
C340 C341 1.377 . S
C340 C342 1.384 . S
C341 C340 1.377 . S
C341 C347 1.390 . S
C342 H333 0.930 1_655 S
C342 C340 1.384 . S
C342 C343 1.372 . S
C343 C342 1.372 . S
C343 C344 1.400 . S
C343 C348 1.490 . S
C344 H334 0.930 . S
C344 C343 1.400 . S
C344 C347 1.386 . S
H345 C361 0.930 . S
H346 C362 0.931 . S
C347 H335 0.929 . S
C347 C341 1.390 . S
C347 C344 1.386 . S
C348 C343 1.490 . S
C348 C350 1.390 1_665 S
C348 C351 1.403 1_565 S
H349 C355 0.930 . S
C350 H336 0.922 1_545 S
C350 C348 1.390 1_445 S
C350 C353 1.416 . S
C351 C348 1.403 1_545 S
C351 C352 1.524 . S
C351 C355 1.400 . S
C352 H337 0.960 . S
C352 H338 0.960 1_545 S
C352 H339 0.960 1_545 S
C352 C351 1.524 . S
C353 C350 1.416 . S
C353 C354 1.392 1_455 S
C353 C357 1.495 . S
C354 C353 1.392 1_655 S
C354 C355 1.385 . S
C354 C356 1.478 . S
C355 H349 0.930 . S
C355 C351 1.400 . S
C355 C354 1.385 . S
C356 C354 1.478 . S
C356 C358 1.381 1_655 S
C356 C362 1.383 . S
C357 C353 1.495 . S
C357 H363 0.959 . S
C357 H364 0.961 . S
C357 H365 0.960 . S
C358 C356 1.381 1_455 S
C358 C359 1.394 . S
C358 H366 0.930 . S
C359 C358 1.394 . S
C359 C360 1.384 1_455 S
C359 H367 0.928 . S
C360 C359 1.384 1_655 S
C360 C361 1.377 . S
C361 H345 0.930 . S
C361 C360 1.377 . S
C361 C362 1.379 . S
C362 H346 0.931 . S
C362 C356 1.383 . S
C362 C361 1.379 . S
H363 C357 0.959 . S
H364 C357 0.961 . S
H365 C357 0.960 . S
H366 C358 0.930 . S
H367 C359 0.928 . S
H368 C376 0.929 . S
H369 C378 0.930 . S
H370 C380 0.930 . S
H371 C383 0.929 . S
H372 C386 0.930 . S
H373 C388 0.960 . S
H374 C388 0.960 . S
H375 C388 0.960 . S
C376 H368 0.929 . S
C376 C377 1.377 . S
C376 C378 1.384 . S
C377 C376 1.377 . S
C377 C383 1.390 1_455 S
C378 H369 0.930 . S
C378 C376 1.384 . S
C378 C379 1.372 . S
C379 C378 1.372 . S
C379 C380 1.400 1_455 S
C379 C384 1.490 1_554 S
C380 H370 0.930 . S
C380 C379 1.400 1_655 S
C380 C383 1.386 . S
H381 C397 0.930 . S
H382 C398 0.931 . S
C383 H371 0.929 . S
C383 C377 1.390 1_655 S
C383 C380 1.386 . S
C384 C379 1.490 1_556 S
C384 C386 1.395 . S
C384 C387 1.403 1_455 S
H385 C391 0.930 . S
C386 H372 0.930 . S
C386 C384 1.395 . S
C386 C389 1.403 . S
C387 C384 1.403 1_655 S
C387 C388 1.524 . S
C387 C391 1.400 . S
C388 H373 0.960 . S
C388 H374 0.960 . S
C388 H375 0.960 . S
C388 C387 1.524 . S
C389 C386 1.403 . S
C389 C390 1.392 . S
C389 C393 1.495 . S
C390 C389 1.392 . S
C390 C391 1.385 1_455 S
C390 C392 1.478 . S
C391 H385 0.930 . S
C391 C387 1.400 . S
C391 C390 1.385 1_655 S
C392 C390 1.478 . S
C392 C394 1.381 . S
C392 C398 1.383 1_455 S
C393 C389 1.495 . S
C393 H399 0.959 . S
C393 H400 0.961 . S
C393 H401 0.960 . S
C394 C392 1.381 . S
C394 C395 1.394 . S
C394 H402 0.930 . S
C395 C394 1.394 . S
C395 C396 1.383 . S
C395 H403 0.929 . S
C396 C395 1.383 . S
C396 C397 1.377 1_455 S
C397 H381 0.930 . S
C397 C396 1.377 1_655 S
C397 C398 1.379 . S
C398 H382 0.931 . S
C398 C392 1.383 1_655 S
C398 C397 1.379 . S
H399 C393 0.959 . S
H400 C393 0.961 . S
H401 C393 0.960 . S
H402 C394 0.930 . S
H403 C395 0.929 . S
H404 C412 0.929 . S
H405 C414 0.930 . S
H406 C416 0.930 . S
H407 C419 0.929 . S
H408 C422 0.930 . S
H409 C424 0.960 . S
H410 C424 0.960 . S
H411 C424 0.960 . S
C412 H404 0.929 . S
C412 C413 1.377 1_655 S
C412 C414 1.384 . S
C413 C412 1.377 1_455 S
C413 C419 1.390 . S
C414 H405 0.930 . S
C414 C412 1.384 . S
C414 C415 1.369 1_655 S
C415 C414 1.369 1_455 S
C415 C416 1.402 . S
C415 C420 1.489 1_456 S
C416 H406 0.930 . S
C416 C415 1.402 . S
C416 C419 1.386 . S
H417 C433 0.930 . S
H418 C434 0.931 . S
C419 H407 0.929 . S
C419 C413 1.390 . S
C419 C416 1.386 . S
C420 C415 1.489 1_654 S
C420 C422 1.412 . S
C420 C423 1.388 1_655 S
H421 C427 0.930 . S
C422 H408 0.930 . S
C422 C420 1.412 . S
C422 C425 1.403 . S
C423 C420 1.388 1_455 S
C423 C424 1.524 . S
C423 C427 1.400 . S
C424 H409 0.960 . S
C424 H410 0.960 . S
C424 H411 0.960 . S
C424 C423 1.524 . S
C425 C422 1.403 . S
C425 C426 1.392 . S
C425 C429 1.495 . S
C426 C425 1.392 . S
C426 C427 1.385 1_655 S
C426 C428 1.478 . S
C427 H421 0.930 . S
C427 C423 1.400 . S
C427 C426 1.385 1_455 S
C428 C426 1.478 . S
C428 C430 1.381 . S
C428 C434 1.383 1_655 S
C429 C425 1.495 . S
C429 H435 0.959 . S
C429 H436 0.961 . S
C429 H437 0.960 . S
C430 C428 1.381 . S
C430 C431 1.394 . S
C430 H438 0.930 . S
C431 C430 1.394 . S
C431 C432 1.383 . S
C431 H439 0.929 . S
C432 C431 1.383 . S
C432 C433 1.377 1_655 S
C433 H417 0.930 . S
C433 C432 1.377 1_455 S
C433 C434 1.379 . S
C434 H418 0.931 . S
C434 C428 1.383 1_455 S
C434 C433 1.379 . S
H435 C429 0.959 . S
H436 C429 0.961 . S
H437 C429 0.960 . S
H438 C430 0.930 . S
H439 C431 0.929 . S
H440 C448 0.929 . S
H441 C450 0.930 . S
H442 C452 0.930 . S
H443 C455 0.929 . S
H444 C458 0.930 . S
H445 C460 0.960 . S
H446 C460 0.960 . S
H447 C460 0.960 . S
C448 H440 0.929 . S
C448 C449 1.377 . S
C448 C450 1.384 . S
C449 C448 1.377 . S
C449 C455 1.390 . S
C450 H441 0.930 . S
C450 C448 1.384 . S
C450 C451 1.372 . S
C451 C450 1.372 . S
C451 C452 1.400 . S
C451 C456 1.490 . S
C452 H442 0.930 . S
C452 C451 1.400 . S
C452 C455 1.386 . S
H453 C469 0.930 . S
H454 C470 0.931 . S
C455 H443 0.929 . S
C455 C449 1.390 . S
C455 C452 1.386 . S
C456 C451 1.490 . S
C456 C458 1.395 . S
C456 C459 1.403 . S
H457 C463 0.930 . S
C458 H444 0.930 . S
C458 C456 1.395 . S
C458 C461 1.403 . S
C459 C456 1.403 . S
C459 C460 1.524 . S
C459 C463 1.400 . S
C460 H445 0.960 . S
C460 H446 0.960 . S
C460 H447 0.960 . S
C460 C459 1.524 . S
C461 C458 1.403 . S
C461 C462 1.392 . S
C461 C465 1.495 . S
C462 C461 1.392 . S
C462 C463 1.385 . S
C462 C464 1.478 . S
C463 H457 0.930 . S
C463 C459 1.400 . S
C463 C462 1.385 . S
C464 C462 1.478 . S
C464 C466 1.381 . S
C464 C470 1.383 . S
C465 C461 1.495 . S
C465 H471 0.959 . S
C465 H472 0.961 . S
C465 H473 0.960 . S
C466 C464 1.381 . S
C466 C467 1.394 . S
C466 H474 0.930 . S
C467 C466 1.394 . S
C467 C468 1.383 . S
C467 H475 0.929 . S
C468 C467 1.383 . S
C468 C469 1.377 . S
C469 H453 0.930 . S
C469 C468 1.377 . S
C469 C470 1.379 . S
C470 H454 0.931 . S
C470 C464 1.383 . S
C470 C469 1.379 . S
H471 C465 0.959 . S
H472 C465 0.961 . S
H473 C465 0.960 . S
H474 C466 0.930 . S
H475 C467 0.929 . S
H476 C484 0.929 . S
H477 C486 0.930 . S
H478 C488 0.930 . S
H479 C491 0.929 . S
H480 C494 0.930 . S
H481 C496 0.960 . S
H482 C496 0.960 . S
H483 C496 0.960 . S
C484 H476 0.929 . S
C484 C485 1.377 . S
C484 C486 1.384 . S
C485 C484 1.377 . S
C485 C491 1.390 . S
C486 H477 0.930 . S
C486 C484 1.384 . S
C486 C487 1.372 . S
C487 C486 1.372 . S
C487 C488 1.400 . S
C487 C492 1.490 . S
C488 H478 0.930 . S
C488 C487 1.400 . S
C488 C491 1.386 . S
H489 C505 0.930 . S
H490 C506 0.931 . S
C491 H479 0.929 . S
C491 C485 1.390 . S
C491 C488 1.386 . S
C492 C487 1.490 . S
C492 C494 1.395 . S
C492 C495 1.403 . S
H493 C499 0.930 . S
C494 H480 0.930 . S
C494 C492 1.395 . S
C494 C497 1.403 . S
C495 C492 1.403 . S
C495 C496 1.524 . S
C495 C499 1.400 . S
C496 H481 0.960 . S
C496 H482 0.960 . S
C496 H483 0.960 . S
C496 C495 1.524 . S
C497 C494 1.403 . S
C497 C498 1.392 . S
C497 C501 1.495 . S
C498 C497 1.392 . S
C498 C499 1.385 . S
C498 C500 1.478 . S
C499 H493 0.930 . S
C499 C495 1.400 . S
C499 C498 1.385 . S
C500 C498 1.478 . S
C500 C502 1.381 . S
C500 C506 1.383 . S
C501 C497 1.495 . S
C501 H507 0.959 . S
C501 H508 0.961 . S
C501 H509 0.960 . S
C502 C500 1.381 . S
C502 C503 1.394 . S
C502 H510 0.930 . S
C503 C502 1.394 . S
C503 C504 1.383 . S
C503 H511 0.929 . S
C504 C503 1.383 . S
C504 C505 1.377 . S
C505 H489 0.930 . S
C505 C504 1.377 . S
C505 C506 1.379 . S
C506 H490 0.931 . S
C506 C500 1.383 . S
C506 C505 1.379 . S
H507 C501 0.959 . S
H508 C501 0.961 . S
H509 C501 0.960 . S
H510 C502 0.930 . S
H511 C503 0.929 . S
C89 C18 1.769 . S
C108 C21 1.747 . S
C125 C42 1.865 . S
C144 C38 1.827 . S
C161 C62 1.937 . S
C180 C59 1.986 . S
C197 C1 1.818 . S
C216 C79 1.918 . S
C233 C78 1.844 . S
C252 C2 1.879 . S
C269 C41 1.820 . S
C288 C39 1.911 . S
C305 C58 1.778 . S
C324 C61 1.711 . S
C341 C22 1.935 . S
C360 C19 1.988 . S
C377 C9 0.740 1_455 S
C396 C8 0.692 . S
C413 C28 0.736 . S
C432 C29 0.696 . S
C449 C48 0.741 . S
C468 C49 0.694 . S
C485 C68 0.751 . S
C504 C69 0.784 . S
