# Generated by pormake.
# Topology uoh, (4)-cn, num edge types: 1
# Building blocks:
#     Node 0, Type 0, BuildingBlock: NAHDIM_clean_sbu_0, # of connection points: 4
#     Node 1, Type 0, BuildingBlock: NAHDIM_clean_sbu_0, # of connection points: 4
#     Node 2, Type 0, BuildingBlock: NAHDIM_clean_sbu_0, # of connection points: 4
#     Node 3, Type 0, BuildingBlock: NAHDIM_clean_sbu_0, # of connection points: 4
#     Node 4, Type 0, BuildingBlock: NAHDIM_clean_sbu_0, # of connection points: 4
#     Node 5, Type 0, BuildingBlock: NAHDIM_clean_sbu_0, # of connection points: 4
#     Node 6, Type 0, BuildingBlock: NAHDIM_clean_sbu_0, # of connection points: 4
#     Node 7, Type 0, BuildingBlock: NAHDIM_clean_sbu_0, # of connection points: 4
#     Node 8, Type 0, BuildingBlock: NAHDIM_clean_sbu_0, # of connection points: 4
#     Node 9, Type 0, BuildingBlock: NAHDIM_clean_sbu_0, # of connection points: 4
#     Node 10, Type 0, BuildingBlock: NAHDIM_clean_sbu_0, # of connection points: 4
#     Node 11, Type 0, BuildingBlock: NAHDIM_clean_sbu_0, # of connection points: 4
#     Node 12, Type 0, BuildingBlock: NAHDIM_clean_sbu_0, # of connection points: 4
#     Node 13, Type 0, BuildingBlock: NAHDIM_clean_sbu_0, # of connection points: 4
#     Node 14, Type 0, BuildingBlock: NAHDIM_clean_sbu_0, # of connection points: 4
#     Node 15, Type 0, BuildingBlock: NAHDIM_clean_sbu_0, # of connection points: 4
#     Node 16, Type 0, BuildingBlock: NAHDIM_clean_sbu_0, # of connection points: 4
#     Node 17, Type 0, BuildingBlock: NAHDIM_clean_sbu_0, # of connection points: 4
#     Node 18, Type 0, BuildingBlock: NAHDIM_clean_sbu_0, # of connection points: 4
#     Node 19, Type 0, BuildingBlock: NAHDIM_clean_sbu_0, # of connection points: 4
#     Node 20, Type 0, BuildingBlock: NAHDIM_clean_sbu_0, # of connection points: 4
#     Node 21, Type 0, BuildingBlock: NAHDIM_clean_sbu_0, # of connection points: 4
#     Node 22, Type 0, BuildingBlock: NAHDIM_clean_sbu_0, # of connection points: 4
#     Node 23, Type 0, BuildingBlock: NAHDIM_clean_sbu_0, # of connection points: 4
#     Node 24, Type 0, BuildingBlock: NAHDIM_clean_sbu_0, # of connection points: 4
#     Node 25, Type 0, BuildingBlock: NAHDIM_clean_sbu_0, # of connection points: 4
#     Node 26, Type 0, BuildingBlock: NAHDIM_clean_sbu_0, # of connection points: 4
#     Node 27, Type 0, BuildingBlock: NAHDIM_clean_sbu_0, # of connection points: 4
#     Node 28, Type 0, BuildingBlock: NAHDIM_clean_sbu_0, # of connection points: 4
#     Node 29, Type 0, BuildingBlock: NAHDIM_clean_sbu_0, # of connection points: 4
#     Node 30, Type 0, BuildingBlock: NAHDIM_clean_sbu_0, # of connection points: 4
#     Node 31, Type 0, BuildingBlock: NAHDIM_clean_sbu_0, # of connection points: 4
#     Node 32, Type 0, BuildingBlock: NAHDIM_clean_sbu_0, # of connection points: 4
#     Node 33, Type 0, BuildingBlock: NAHDIM_clean_sbu_0, # of connection points: 4
#     Node 34, Type 0, BuildingBlock: NAHDIM_clean_sbu_0, # of connection points: 4
#     Node 35, Type 0, BuildingBlock: NAHDIM_clean_sbu_0, # of connection points: 4
#     Edge 36, Type (0, 0), None
#     Edge 37, Type (0, 0), None
#     Edge 38, Type (0, 0), None
#     Edge 39, Type (0, 0), None
#     Edge 40, Type (0, 0), None
#     Edge 41, Type (0, 0), None
#     Edge 42, Type (0, 0), None
#     Edge 43, Type (0, 0), None
#     Edge 44, Type (0, 0), None
#     Edge 45, Type (0, 0), None
#     Edge 46, Type (0, 0), None
#     Edge 47, Type (0, 0), None
#     Edge 48, Type (0, 0), None
#     Edge 49, Type (0, 0), None
#     Edge 50, Type (0, 0), None
#     Edge 51, Type (0, 0), None
#     Edge 52, Type (0, 0), None
#     Edge 53, Type (0, 0), None
#     Edge 54, Type (0, 0), None
#     Edge 55, Type (0, 0), None
#     Edge 56, Type (0, 0), None
#     Edge 57, Type (0, 0), None
#     Edge 58, Type (0, 0), None
#     Edge 59, Type (0, 0), None
#     Edge 60, Type (0, 0), None
#     Edge 61, Type (0, 0), None
#     Edge 62, Type (0, 0), None
#     Edge 63, Type (0, 0), None
#     Edge 64, Type (0, 0), None
#     Edge 65, Type (0, 0), None
#     Edge 66, Type (0, 0), None
#     Edge 67, Type (0, 0), None
#     Edge 68, Type (0, 0), None
#     Edge 69, Type (0, 0), None
#     Edge 70, Type (0, 0), None
#     Edge 71, Type (0, 0), None
#     Edge 72, Type (0, 0), None
#     Edge 73, Type (0, 0), None
#     Edge 74, Type (0, 0), None
#     Edge 75, Type (0, 0), None
#     Edge 76, Type (0, 0), None
#     Edge 77, Type (0, 0), None
#     Edge 78, Type (0, 0), None
#     Edge 79, Type (0, 0), None
#     Edge 80, Type (0, 0), None
#     Edge 81, Type (0, 0), None
#     Edge 82, Type (0, 0), None
#     Edge 83, Type (0, 0), None
#     Edge 84, Type (0, 0), None
#     Edge 85, Type (0, 0), None
#     Edge 86, Type (0, 0), None
#     Edge 87, Type (0, 0), None
#     Edge 88, Type (0, 0), None
#     Edge 89, Type (0, 0), None
#     Edge 90, Type (0, 0), None
#     Edge 91, Type (0, 0), None
#     Edge 92, Type (0, 0), None
#     Edge 93, Type (0, 0), None
#     Edge 94, Type (0, 0), None
#     Edge 95, Type (0, 0), None
#     Edge 96, Type (0, 0), None
#     Edge 97, Type (0, 0), None
#     Edge 98, Type (0, 0), None
#     Edge 99, Type (0, 0), None
#     Edge 100, Type (0, 0), None
#     Edge 101, Type (0, 0), None
#     Edge 102, Type (0, 0), None
#     Edge 103, Type (0, 0), None
#     Edge 104, Type (0, 0), None
#     Edge 105, Type (0, 0), None
#     Edge 106, Type (0, 0), None
#     Edge 107, Type (0, 0), None
# Relax obj value: 0.212
# Max RMSD: 0.248
# Mean RMSD: 0.248
data_MOF--net-uoh--node1-NAHDIM_clean_sbu_0--edge1-none
_symmetry_space_group_name_H-M    P1
_symmetry_Int_Tables_number       1
_symmetry_cell_setting            triclinic
loop_
_symmetry_equiv_pos_as_xyz
'x, y, z'
_cell_length_a     43.715825
_cell_length_b     43.715492
_cell_length_c     11.367965
_cell_angle_alpha  90.001936
_cell_angle_beta   89.998217
_cell_angle_gamma 120.00357
loop_
_atom_site_label
_atom_site_type_symbol
_atom_site_fract_x
_atom_site_fract_y
_atom_site_fract_z
_atom_type_partial_charge
C0 C 0.17187 0.1657 0.22386 0.0
O1 O 0.15247 0.13277 0.1894 0.0
O2 O 0.20914 0.13451 0.00122 0.0
Zn3 Zn 0.2169 0.14271 0.17511 0.0
O4 O 0.18646 0.10209 0.28484 0.0
C5 C 0.28066 0.14018 0.15043 0.0
O6 O 0.26181 0.11702 0.06912 0.0
O7 O 0.20531 0.18013 0.22092 0.0
C8 C 0.19599 0.08103 0.32423 0.0
O9 O 0.22178 0.0792 0.27198 0.0
C10 C 0.18773 0.10659 0.94687 0.0
O11 O 0.16528 0.07852 0.00658 0.0
O12 O 0.2676 0.15616 0.20688 0.0
C13 C 0.77599 -0.00548 0.22387 0.0
O14 O 0.80891 0.00805 0.1894 0.0
O15 O 0.80716 0.06297 0.00125 0.0
Zn16 Zn 0.79897 0.06254 0.17515 0.0
O17 O 0.83959 0.07272 0.28485 0.0
C18 C 0.80149 0.12882 0.1505 0.0
O19 O 0.82465 0.13313 0.06917 0.0
O20 O 0.76155 0.01352 0.22095 0.0
C21 C 0.86065 0.10331 0.32426 0.0
O22 O 0.86248 0.13093 0.27202 0.0
C23 C 0.83508 0.06948 0.94688 0.0
O24 O 0.86314 0.07509 0.00658 0.0
O25 O 0.78552 0.09978 0.20695 0.0
C26 C 0.9472 0.76982 0.22383 0.0
O27 O 0.93368 0.78923 0.18939 0.0
O28 O 0.87874 0.73256 0.0012 0.0
Zn29 Zn 0.87918 0.7248 0.17509 0.0
O30 O 0.86901 0.75524 0.28483 0.0
C31 C 0.81289 0.66104 0.15042 0.0
O32 O 0.80857 0.67989 0.06911 0.0
O33 O 0.92819 0.73639 0.22088 0.0
C34 C 0.83841 0.74571 0.32422 0.0
O35 O 0.81079 0.71993 0.27197 0.0
C36 C 0.87222 0.75397 0.94685 0.0
O37 O 0.86661 0.77642 0.00657 0.0
O38 O 0.84192 0.6741 0.20687 0.0
C39 C 0.15404 0.18353 0.27201 0.0
O40 O 0.12111 0.16412 0.30645 0.0
O41 O 0.12285 0.22079 0.49466 0.0
Zn42 Zn 0.13105 0.22855 0.32077 0.0
O43 O 0.09043 0.19811 0.21104 0.0
C44 C 0.12852 0.29231 0.34546 0.0
O45 O 0.10536 0.27346 0.42677 0.0
O46 O 0.16847 0.21696 0.27496 0.0
C47 C 0.06937 0.20765 0.17165 0.0
O48 O 0.06754 0.23343 0.22391 0.0
C49 C 0.09492 0.19939 0.54901 0.0
O50 O 0.06686 0.17694 0.4893 0.0
O51 O 0.1445 0.27925 0.289 0.0
C52 C 0.75816 0.95886 0.27201 0.0
O53 O 0.77757 0.94534 0.30644 0.0
O54 O 0.7209 0.8904 0.49466 0.0
Zn55 Zn 0.71314 0.89083 0.32076 0.0
O56 O 0.74358 0.88066 0.21103 0.0
C57 C 0.64938 0.82454 0.34543 0.0
O58 O 0.66822 0.82023 0.42674 0.0
O59 O 0.72473 0.93984 0.27497 0.0
C60 C 0.73405 0.85007 0.17163 0.0
O61 O 0.70826 0.82245 0.22389 0.0
C62 C 0.7423 0.88388 0.549 0.0
O63 O 0.76475 0.87827 0.48929 0.0
O64 O 0.66244 0.85358 0.28898 0.0
C65 C -0.01714 0.78765 0.27198 0.0
O66 O -0.00361 0.82058 0.30644 0.0
O67 O 0.05131 0.81882 0.49462 0.0
Zn68 Zn 0.05088 0.81063 0.32072 0.0
O69 O 0.06106 0.85125 0.21102 0.0
C70 C 0.11716 0.81315 0.34538 0.0
O71 O 0.12147 0.83631 0.4267 0.0
O72 O 0.00186 0.77322 0.27491 0.0
C73 C 0.09166 0.87231 0.17161 0.0
O74 O 0.11927 0.87414 0.22385 0.0
C75 C 0.05783 0.84674 0.54898 0.0
O76 O 0.06343 0.87481 0.48929 0.0
O77 O 0.08813 0.79718 0.28892 0.0
C78 C 0.75818 0.78767 0.772 0.0
O79 O 0.77758 0.8206 0.80645 0.0
O80 O 0.7209 0.81885 0.99462 0.0
Zn81 Zn 0.71315 0.81066 0.82072 0.0
O82 O 0.74359 0.85127 0.71101 0.0
C83 C 0.64939 0.81319 0.84537 0.0
O84 O 0.66824 0.83635 0.92668 0.0
O85 O 0.72474 0.77324 0.77493 0.0
C86 C 0.73407 0.87235 0.67168 0.0
O87 O 0.70829 0.87421 0.72394 0.0
C88 C 0.74231 0.84678 0.04898 0.0
O89 O 0.76477 0.87485 0.98933 0.0
O90 O 0.66245 0.79721 0.78892 0.0
C91 C 0.15404 0.95884 0.77199 0.0
O92 O 0.12111 0.9453 0.80645 0.0
O93 O 0.12286 0.89037 0.99459 0.0
Zn94 Zn 0.13106 0.89082 0.82069 0.0
O95 O 0.09044 0.88063 0.711 0.0
C96 C 0.12853 0.82453 0.8453 0.0
O97 O 0.10537 0.82022 0.92663 0.0
O98 O 0.16847 0.93983 0.77491 0.0
C99 C 0.06936 0.85004 0.67166 0.0
O100 O 0.06751 0.82241 0.7239 0.0
C101 C 0.09495 0.88387 0.04897 0.0
O102 O 0.06688 0.87827 0.98933 0.0
O103 O 0.1445 0.85357 0.78886 0.0
C104 C -0.01716 0.18352 0.77203 0.0
O105 O -0.00364 0.16411 0.80646 0.0
O106 O 0.05131 0.22079 0.99464 0.0
Zn107 Zn 0.05086 0.22855 0.82075 0.0
O108 O 0.06103 0.19811 0.71102 0.0
C109 C 0.11715 0.2923 0.84538 0.0
O110 O 0.12147 0.27346 0.92669 0.0
O111 O 0.00185 0.21696 0.77497 0.0
C112 C 0.09163 0.20762 0.67169 0.0
O113 O 0.11926 0.23339 0.72395 0.0
C114 C 0.05782 0.19938 0.049 0.0
O115 O 0.06342 0.17692 0.98934 0.0
O116 O 0.08812 0.27925 0.78894 0.0
C117 C 0.77601 0.76984 0.72387 0.0
O118 O 0.80894 0.78924 0.68943 0.0
O119 O 0.8072 0.73256 0.50123 0.0
Zn120 Zn 0.799 0.72481 0.67513 0.0
O121 O 0.83962 0.75525 0.78485 0.0
C122 C 0.80153 0.66106 0.65048 0.0
O123 O 0.82469 0.6799 0.56917 0.0
O124 O 0.76158 0.7364 0.72092 0.0
C125 C 0.86069 0.74573 0.82417 0.0
O126 O 0.86255 0.71996 0.77191 0.0
C127 C 0.83512 0.75397 0.44688 0.0
O128 O 0.86319 0.77643 0.50654 0.0
O129 O 0.78555 0.67411 0.70693 0.0
C130 C 0.17186 -0.0055 0.72387 0.0
O131 O 0.15246 0.00802 0.68944 0.0
O132 O 0.20914 0.06297 0.50124 0.0
Zn133 Zn 0.21689 0.06252 0.67514 0.0
O134 O 0.18645 0.0727 0.78486 0.0
C135 C 0.28065 0.12882 0.65051 0.0
O136 O 0.2618 0.13313 0.5692 0.0
O137 O 0.2053 0.01351 0.72091 0.0
C138 C 0.19597 0.10329 0.82419 0.0
O139 O 0.22174 0.13093 0.77194 0.0
C140 C 0.18773 0.06948 0.44689 0.0
O141 O 0.16527 0.07508 0.50654 0.0
O142 O 0.26759 0.09978 0.70695 0.0
C143 C 0.94718 0.16569 0.7239 0.0
O144 O 0.93364 0.13277 0.68944 0.0
O145 O 0.87871 0.13452 0.50128 0.0
Zn146 Zn 0.87916 0.14271 0.67518 0.0
O147 O 0.86897 0.10209 0.78487 0.0
C148 C 0.81287 0.14019 0.65057 0.0
O149 O 0.80856 0.11703 0.56924 0.0
O150 O 0.92817 0.18013 0.72097 0.0
C151 C 0.83837 0.08102 0.8242 0.0
O152 O 0.81075 0.07917 0.77197 0.0
C153 C 0.8722 0.1066 0.4469 0.0
O154 O 0.8666 0.07853 0.50654 0.0
O155 O 0.84191 0.15616 0.70701 0.0
C156 C 0.83857 0.49907 0.55718 0.0
O157 O 0.81917 0.46614 0.52275 0.0
O158 O 0.87583 0.46787 0.33461 0.0
Zn159 Zn 0.88359 0.47607 0.5085 0.0
O160 O 0.85315 0.43546 0.61825 0.0
C161 C 0.94734 0.47353 0.48382 0.0
O162 O 0.92849 0.45037 0.40252 0.0
O163 O 0.87201 0.5135 0.55426 0.0
C164 C 0.86268 0.4144 0.65763 0.0
O165 O 0.88845 0.41255 0.60536 0.0
C166 C 0.85442 0.43994 0.28026 0.0
O167 O 0.83197 0.41188 0.33998 0.0
O168 O 0.93429 0.48952 0.54027 0.0
C169 C 0.44264 0.32784 0.55716 0.0
O170 O 0.47557 0.34137 0.52272 0.0
O171 O 0.47384 0.3963 0.33457 0.0
Zn172 Zn 0.46564 0.39586 0.50847 0.0
O173 O 0.50625 0.40604 0.6182 0.0
C174 C 0.46816 0.46215 0.48381 0.0
O175 O 0.49133 0.46646 0.4025 0.0
O176 O 0.42821 0.34685 0.55424 0.0
C177 C 0.52731 0.43663 0.65759 0.0
O178 O 0.52915 0.46425 0.60534 0.0
C179 C 0.50176 0.40283 0.28022 0.0
O180 O 0.52982 0.40844 0.33993 0.0
O181 O 0.45219 0.43311 0.54026 0.0
C182 C 0.61386 0.10315 0.55721 0.0
O183 O 0.60033 0.12255 0.52279 0.0
O184 O 0.54539 0.06588 0.3346 0.0
Zn185 Zn 0.54583 0.05812 0.50849 0.0
O186 O 0.53566 0.08855 0.61825 0.0
C187 C 0.47955 -0.00564 0.48382 0.0
O188 O 0.47523 0.0132 0.40252 0.0
O189 O 0.59485 0.06971 0.55427 0.0
C190 C 0.50506 0.07902 0.65764 0.0
O191 O 0.47744 0.05324 0.60537 0.0
C192 C 0.53886 0.08728 0.28027 0.0
O193 O 0.53324 0.10972 0.34 0.0
O194 O 0.50858 0.00741 0.54027 0.0
C195 C 0.82074 0.51691 0.60529 0.0
O196 O 0.78781 0.4975 0.63972 0.0
O197 O 0.78954 0.55417 0.82786 0.0
Zn198 Zn 0.79775 0.56193 0.65397 0.0
O199 O 0.75714 0.5315 0.54422 0.0
C200 C 0.79522 0.62569 0.67864 0.0
O201 O 0.77206 0.60684 0.75995 0.0
O202 O 0.83517 0.55034 0.60821 0.0
C203 C 0.73608 0.54102 0.50483 0.0
O204 O 0.73423 0.5668 0.55711 0.0
C205 C 0.76161 0.53277 0.8822 0.0
O206 O 0.73355 0.51032 0.82248 0.0
O207 O 0.8112 0.61264 0.62219 0.0
C208 C 0.42481 0.29218 0.60528 0.0
O209 O 0.44421 0.27865 0.63971 0.0
O210 O 0.38754 0.22372 0.8279 0.0
Zn211 Zn 0.37978 0.22416 0.65401 0.0
O212 O 0.41021 0.21398 0.54425 0.0
C213 C 0.31601 0.15787 0.67868 0.0
O214 O 0.33486 0.15356 0.75998 0.0
O215 O 0.39137 0.27317 0.60823 0.0
C216 C 0.40067 0.18338 0.50486 0.0
O217 O 0.37489 0.15576 0.55712 0.0
C218 C 0.40894 0.21718 0.88223 0.0
O219 O 0.43138 0.21156 0.8225 0.0
O220 O 0.32907 0.18691 0.62223 0.0
C221 C 0.64952 0.12098 0.60535 0.0
O222 O 0.66304 0.15391 0.6398 0.0
O223 O 0.71797 0.15216 0.82798 0.0
Zn224 Zn 0.71754 0.14397 0.65409 0.0
O225 O 0.72772 0.18459 0.54438 0.0
C226 C 0.78382 0.1465 0.67874 0.0
O227 O 0.78814 0.16965 0.76007 0.0
O228 O 0.66852 0.10655 0.60829 0.0
C229 C 0.75831 0.20565 0.50498 0.0
O230 O 0.78593 0.20748 0.55722 0.0
C231 C 0.72449 0.18009 0.88234 0.0
O232 O 0.7301 0.20815 0.82264 0.0
O233 O 0.75479 0.13052 0.62229 0.0
C234 C 0.4248 0.12097 0.10531 0.0
O235 O 0.4442 0.1539 0.13975 0.0
O236 O 0.38752 0.15216 0.32786 0.0
Zn237 Zn 0.37977 0.14396 0.15396 0.0
O238 O 0.41021 0.18457 0.04422 0.0
C239 C 0.31602 0.14649 0.17859 0.0
O240 O 0.33487 0.16966 0.2599 0.0
O241 O 0.39137 0.10654 0.10822 0.0
C242 C 0.4007 0.20565 0.00491 0.0
O243 O 0.37493 0.20751 0.05718 0.0
C244 C 0.40893 0.18009 0.38221 0.0
O245 O 0.4314 0.20816 0.32255 0.0
O246 O 0.32907 0.13051 0.12215 0.0
C247 C 0.8207 0.29218 0.10536 0.0
O248 O 0.78777 0.27865 0.1398 0.0
O249 O 0.78952 0.22371 0.32796 0.0
Zn250 Zn 0.79771 0.22416 0.15406 0.0
O251 O 0.7571 0.21398 0.04436 0.0
C252 C 0.79518 0.15787 0.17867 0.0
O253 O 0.77203 0.15356 0.26 0.0
O254 O 0.83513 0.27317 0.10828 0.0
C255 C 0.73602 0.18338 0.00502 0.0
O256 O 0.73417 0.15575 0.05726 0.0
C257 C 0.7616 0.2172 0.38233 0.0
O258 O 0.73353 0.2116 0.32269 0.0
O259 O 0.81116 0.18691 0.12223 0.0
C260 C 0.64952 0.51688 0.10528 0.0
O261 O 0.66305 0.49748 0.1397 0.0
O262 O 0.718 0.55416 0.32784 0.0
Zn263 Zn 0.71754 0.56192 0.15395 0.0
O264 O 0.72772 0.53148 0.0442 0.0
C265 C 0.78383 0.62568 0.17858 0.0
O266 O 0.78815 0.60683 0.25989 0.0
O267 O 0.66853 0.55032 0.10821 0.0
C268 C 0.75832 0.541 0.00488 0.0
O269 O 0.78595 0.56677 0.05715 0.0
C270 C 0.72452 0.53276 0.38218 0.0
O271 O 0.73013 0.51031 0.32251 0.0
O272 O 0.75479 0.61262 0.12215 0.0
C273 C 0.44264 0.10314 0.05722 0.0
O274 O 0.47557 0.12254 0.0228 0.0
O275 O 0.47384 0.06587 0.83464 0.0
Zn276 Zn 0.46564 0.05811 0.00853 0.0
O277 O 0.50625 0.08855 0.11828 0.0
C278 C 0.46818 -0.00563 0.98389 0.0
O279 O 0.49134 0.01322 0.90259 0.0
O280 O 0.42821 0.0697 0.05429 0.0
C281 C 0.52733 0.07904 0.15759 0.0
O282 O 0.5292 0.05328 0.10532 0.0
C283 C 0.50177 0.08728 0.78029 0.0
O284 O 0.52984 0.10974 0.83996 0.0
O285 O 0.45219 0.00741 0.04033 0.0
C286 C 0.83853 0.32784 0.05724 0.0
O287 O 0.81913 0.34137 0.02282 0.0
O288 O 0.87581 0.39631 0.83463 0.0
Zn289 Zn 0.88357 0.39587 0.00852 0.0
O290 O 0.85314 0.40604 0.11826 0.0
C291 C 0.94733 0.46215 0.98389 0.0
O292 O 0.92849 0.46647 0.90258 0.0
O293 O 0.87197 0.34685 0.05428 0.0
C294 C 0.86266 0.43664 0.15758 0.0
O295 O 0.88843 0.46427 0.10532 0.0
C296 C 0.85441 0.40284 0.78029 0.0
O297 O 0.83196 0.40846 0.83996 0.0
O298 O 0.93427 0.43312 0.04032 0.0
C299 C 0.61385 0.49904 0.05719 0.0
O300 O 0.60032 0.46611 0.02276 0.0
O301 O 0.54538 0.46785 0.8346 0.0
Zn302 Zn 0.54583 0.47605 0.0085 0.0
O303 O 0.53566 0.43544 0.11822 0.0
C304 C 0.47954 0.47352 0.98388 0.0
O305 O 0.47523 0.45036 0.90257 0.0
O306 O 0.59485 0.51347 0.05426 0.0
C307 C 0.50506 0.41436 0.15754 0.0
O308 O 0.47743 0.4125 0.10529 0.0
C309 C 0.53887 0.43993 0.78024 0.0
O310 O 0.53326 0.41186 0.8399 0.0
O311 O 0.50858 0.4895 0.04032 0.0
C312 C 0.50525 0.8324 0.89055 0.0
O313 O 0.48585 0.79947 0.8561 0.0
O314 O 0.54251 0.8012 0.66799 0.0
Zn315 Zn 0.55027 0.80941 0.84188 0.0
O316 O 0.51984 0.7688 0.95163 0.0
C317 C 0.61403 0.80688 0.81721 0.0
O318 O 0.59518 0.78372 0.73591 0.0
O319 O 0.53868 0.84683 0.88764 0.0
C320 C 0.52936 0.74773 0.99101 0.0
O321 O 0.55514 0.74589 0.93874 0.0
C322 C 0.52111 0.77327 0.61364 0.0
O323 O 0.49865 0.74521 0.67336 0.0
O324 O 0.60098 0.82286 0.87366 0.0
C325 C 0.10932 0.66117 0.8905 0.0
O326 O 0.14225 0.6747 0.85605 0.0
O327 O 0.1405 0.72963 0.66788 0.0
Zn328 Zn 0.13231 0.72919 0.84178 0.0
O329 O 0.17293 0.73938 0.95149 0.0
C330 C 0.13484 0.79548 0.81712 0.0
O331 O 0.158 0.79979 0.7358 0.0
O332 O 0.09489 0.68018 0.88758 0.0
C333 C 0.19399 0.76997 0.99089 0.0
O334 O 0.19582 0.79759 0.93865 0.0
C335 C 0.16843 0.73615 0.61352 0.0
O336 O 0.19649 0.74175 0.67322 0.0
O337 O 0.11886 0.76645 0.87358 0.0
C338 C 0.28052 0.43646 0.89057 0.0
O339 O 0.26699 0.45586 0.85615 0.0
O340 O 0.21205 0.39919 0.668 0.0
Zn341 Zn 0.2125 0.39143 0.84189 0.0
O342 O 0.20232 0.42186 0.95164 0.0
C343 C 0.14621 0.32767 0.81722 0.0
O344 O 0.1419 0.34651 0.73591 0.0
O345 O 0.26151 0.40303 0.88765 0.0
C346 C 0.17173 0.41233 0.99104 0.0
O347 O 0.14411 0.38655 0.93877 0.0
C348 C 0.20552 0.42059 0.61367 0.0
O349 O 0.1999 0.44303 0.67339 0.0
O350 O 0.17524 0.34073 0.87366 0.0
C351 C 0.48741 0.85023 0.93866 0.0
O352 O 0.45448 0.83082 0.97309 0.0
O353 O 0.45621 0.88749 0.16126 0.0
Zn354 Zn 0.46441 0.89525 0.98737 0.0
O355 O 0.4238 0.86481 0.87761 0.0
C356 C 0.46187 0.959 0.01205 0.0
O357 O 0.43871 0.94015 0.09335 0.0
O358 O 0.50184 0.88366 0.9416 0.0
C359 C 0.40274 0.87433 0.83823 0.0
O360 O 0.40089 0.90011 0.8905 0.0
C361 C 0.42828 0.86608 0.21559 0.0
O362 O 0.40021 0.84363 0.15587 0.0
O363 O 0.47786 0.94595 0.9556 0.0
C364 C 0.09149 0.62551 0.93864 0.0
O365 O 0.1109 0.61199 0.97307 0.0
O366 O 0.05422 0.55705 0.16127 0.0
Zn367 Zn 0.04646 0.55749 0.98738 0.0
O368 O 0.07689 0.54731 0.87763 0.0
C369 C -0.0173 0.49121 0.01205 0.0
O370 O 0.00154 0.48689 0.09336 0.0
O371 O 0.05806 0.60651 0.9416 0.0
C372 C 0.06736 0.51672 0.83824 0.0
O373 O 0.04158 0.4891 0.8905 0.0
C374 C 0.07562 0.55052 0.2156 0.0
O375 O 0.09806 0.54489 0.15587 0.0
O376 O -0.00424 0.52024 0.9556 0.0
C377 C 0.31618 0.4543 0.93869 0.0
O378 O 0.32971 0.48723 0.97313 0.0
O379 O 0.38464 0.48549 0.1613 0.0
Zn380 Zn 0.3842 0.47729 0.9874 0.0
O381 O 0.39438 0.51791 0.87767 0.0
C382 C 0.45049 0.47982 0.01206 0.0
O383 O 0.4548 0.50299 0.09337 0.0
O384 O 0.33519 0.43987 0.94162 0.0
C385 C 0.42497 0.53897 0.83828 0.0
O386 O 0.45259 0.54081 0.89053 0.0
C387 C 0.39117 0.51342 0.21564 0.0
O388 O 0.39678 0.54148 0.15593 0.0
O389 O 0.42145 0.46385 0.95561 0.0
C390 C 0.09148 0.4543 0.43868 0.0
O391 O 0.11088 0.48723 0.4731 0.0
O392 O 0.05421 0.4855 0.66123 0.0
Zn393 Zn 0.04645 0.4773 0.48734 0.0
O394 O 0.07689 0.5179 0.3776 0.0
C395 C -0.01729 0.47984 0.51198 0.0
O396 O 0.00156 0.503 0.59328 0.0
O397 O 0.05804 0.43987 0.44159 0.0
C398 C 0.06738 0.53899 0.33828 0.0
O399 O 0.04162 0.54086 0.39055 0.0
C400 C 0.07562 0.51342 0.71559 0.0
O401 O 0.09808 0.54149 0.65593 0.0
O402 O -0.00424 0.46385 0.45554 0.0
C403 C 0.48738 0.62551 0.4387 0.0
O404 O 0.45445 0.61198 0.47313 0.0
O405 O 0.45619 0.55704 0.66127 0.0
Zn406 Zn 0.46439 0.55749 0.48737 0.0
O407 O 0.42378 0.54731 0.37765 0.0
C408 C 0.46186 0.4912 0.51198 0.0
O409 O 0.43869 0.48689 0.5933 0.0
O410 O 0.50181 0.60651 0.44161 0.0
C411 C 0.4027 0.51671 0.33833 0.0
O412 O 0.40084 0.48908 0.39058 0.0
C413 C 0.42827 0.55052 0.71563 0.0
O414 O 0.4002 0.54492 0.65597 0.0
O415 O 0.47784 0.52024 0.45555 0.0
C416 C 0.31618 0.85019 0.43864 0.0
O417 O 0.32971 0.83079 0.47306 0.0
O418 O 0.38466 0.88747 0.66123 0.0
Zn419 Zn 0.38421 0.89523 0.48734 0.0
O420 O 0.39438 0.86479 0.3776 0.0
C421 C 0.45049 0.95899 0.51198 0.0
O422 O 0.45481 0.94014 0.59328 0.0
O423 O 0.33519 0.88363 0.44158 0.0
C424 C 0.42498 0.87432 0.33828 0.0
O425 O 0.45261 0.90009 0.39054 0.0
C426 C 0.39118 0.86607 0.71557 0.0
O427 O 0.3968 0.84362 0.6559 0.0
O428 O 0.42146 0.94593 0.45554 0.0
C429 C 0.10931 0.43646 0.39059 0.0
O430 O 0.14224 0.45586 0.35616 0.0
O431 O 0.14051 0.39918 0.16803 0.0
Zn432 Zn 0.1323 0.39143 0.34193 0.0
O433 O 0.17291 0.42187 0.45167 0.0
C434 C 0.13483 0.32768 0.3173 0.0
O435 O 0.15799 0.34652 0.23599 0.0
O436 O 0.09488 0.40302 0.38767 0.0
C437 C 0.19399 0.41235 0.49098 0.0
O438 O 0.19585 0.38659 0.43872 0.0
C439 C 0.16843 0.42059 0.11369 0.0
O440 O 0.1965 0.44305 0.17335 0.0
O441 O 0.11885 0.34073 0.37373 0.0
C442 C 0.50522 0.66118 0.3906 0.0
O443 O 0.48582 0.67471 0.35618 0.0
O444 O 0.5425 0.72965 0.168 0.0
Zn445 Zn 0.55025 0.7292 0.3419 0.0
O446 O 0.51982 0.73938 0.45164 0.0
C447 C 0.61401 0.79549 0.31727 0.0
O448 O 0.59517 0.7998 0.23596 0.0
O449 O 0.53865 0.68018 0.38765 0.0
C450 C 0.52934 0.76998 0.49096 0.0
O451 O 0.55512 0.79761 0.4387 0.0
C452 C 0.5211 0.73618 0.11366 0.0
O453 O 0.49864 0.74179 0.17333 0.0
O454 O 0.60095 0.76645 0.3737 0.0
C455 C 0.28052 0.83236 0.39053 0.0
O456 O 0.26699 0.79943 0.35608 0.0
O457 O 0.21205 0.80118 0.16791 0.0
Zn458 Zn 0.2125 0.80937 0.34181 0.0
O459 O 0.20232 0.76876 0.45151 0.0
C460 C 0.14621 0.80684 0.3172 0.0
O461 O 0.1419 0.78369 0.23587 0.0
O462 O 0.26151 0.84679 0.3876 0.0
C463 C 0.17172 0.74768 0.49084 0.0
O464 O 0.14409 0.74582 0.4386 0.0
C465 C 0.20554 0.77326 0.11354 0.0
O466 O 0.19994 0.74519 0.17318 0.0
O467 O 0.17525 0.82282 0.37364 0.0
loop_
_geom_bond_atom_site_label_1
_geom_bond_atom_site_label_2
_geom_bond_distance
_geom_bond_site_symmetry_2
_ccdc_geom_bond_type
C0 O1 1.160 . S
C0 O7 1.185 . S
O1 C0 1.160 . S
O2 Zn3 1.899 . S
O2 C10 1.284 . S
Zn3 O2 1.899 . S
Zn3 O4 2.032 . S
Zn3 O7 2.086 . S
Zn3 O12 1.977 . S
O4 Zn3 2.032 . S
O4 C8 1.278 . S
C5 O6 1.203 . S
C5 O12 1.267 . S
O6 C5 1.203 . S
O7 C0 1.185 . S
O7 Zn3 2.086 . S
C8 O4 1.278 . S
C8 O9 1.211 . S
O9 C8 1.211 . S
C10 O2 1.284 . S
C10 O11 1.273 . S
O11 C10 1.273 . S
O12 Zn3 1.977 . S
O12 C5 1.267 . S
C13 O14 1.160 . S
C13 O20 1.185 . S
O14 C13 1.160 . S
O15 Zn16 1.899 . S
O15 C23 1.284 . S
Zn16 O15 1.899 . S
Zn16 O17 2.032 . S
Zn16 O20 2.086 . S
Zn16 O25 1.977 . S
O17 Zn16 2.032 . S
O17 C21 1.278 . S
C18 O19 1.203 . S
C18 O25 1.267 . S
O19 C18 1.203 . S
O20 C13 1.185 . S
O20 Zn16 2.086 . S
C21 O17 1.278 . S
C21 O22 1.211 . S
O22 C21 1.211 . S
C23 O15 1.284 . S
C23 O24 1.273 . S
O24 C23 1.273 . S
O25 Zn16 1.977 . S
O25 C18 1.267 . S
C26 O27 1.160 . S
C26 O33 1.185 . S
O27 C26 1.160 . S
O28 Zn29 1.899 . S
O28 C36 1.284 . S
Zn29 O28 1.899 . S
Zn29 O30 2.032 . S
Zn29 O33 2.086 . S
Zn29 O38 1.977 . S
O30 Zn29 2.032 . S
O30 C34 1.278 . S
C31 O32 1.203 . S
C31 O38 1.267 . S
O32 C31 1.203 . S
O33 C26 1.185 . S
O33 Zn29 2.086 . S
C34 O30 1.278 . S
C34 O35 1.211 . S
O35 C34 1.211 . S
C36 O28 1.284 . S
C36 O37 1.273 . S
O37 C36 1.273 . S
O38 Zn29 1.977 . S
O38 C31 1.267 . S
C39 O40 1.160 . S
C39 O46 1.185 . S
O40 C39 1.160 . S
O41 Zn42 1.899 . S
O41 C49 1.284 . S
Zn42 O41 1.899 . S
Zn42 O43 2.032 . S
Zn42 O46 2.086 . S
Zn42 O51 1.977 . S
O43 Zn42 2.032 . S
O43 C47 1.278 . S
C44 O45 1.203 . S
C44 O51 1.267 . S
O45 C44 1.203 . S
O46 C39 1.185 . S
O46 Zn42 2.086 . S
C47 O43 1.278 . S
C47 O48 1.211 . S
O48 C47 1.211 . S
C49 O41 1.284 . S
C49 O50 1.273 . S
O50 C49 1.273 . S
O51 Zn42 1.977 . S
O51 C44 1.267 . S
C52 O53 1.160 . S
C52 O59 1.185 . S
O53 C52 1.160 . S
O54 Zn55 1.899 . S
O54 C62 1.284 . S
Zn55 O54 1.899 . S
Zn55 O56 2.032 . S
Zn55 O59 2.086 . S
Zn55 O64 1.977 . S
O56 Zn55 2.032 . S
O56 C60 1.278 . S
C57 O58 1.203 . S
C57 O64 1.267 . S
O58 C57 1.203 . S
O59 C52 1.185 . S
O59 Zn55 2.086 . S
C60 O56 1.278 . S
C60 O61 1.211 . S
O61 C60 1.211 . S
C62 O54 1.284 . S
C62 O63 1.273 . S
O63 C62 1.273 . S
O64 Zn55 1.977 . S
O64 C57 1.267 . S
C65 O66 1.160 . S
C65 O72 1.185 . S
O66 C65 1.160 . S
O67 Zn68 1.899 . S
O67 C75 1.284 . S
Zn68 O67 1.899 . S
Zn68 O69 2.032 . S
Zn68 O72 2.086 . S
Zn68 O77 1.977 . S
O69 Zn68 2.032 . S
O69 C73 1.278 . S
C70 O71 1.203 . S
C70 O77 1.267 . S
O71 C70 1.203 . S
O72 C65 1.185 . S
O72 Zn68 2.086 . S
C73 O69 1.278 . S
C73 O74 1.211 . S
O74 C73 1.211 . S
C75 O67 1.284 . S
C75 O76 1.273 . S
O76 C75 1.273 . S
O77 Zn68 1.977 . S
O77 C70 1.267 . S
C78 O79 1.160 . S
C78 O85 1.185 . S
O79 C78 1.160 . S
O80 Zn81 1.899 . S
O80 C88 1.284 . S
Zn81 O80 1.899 . S
Zn81 O82 2.032 . S
Zn81 O85 2.086 . S
Zn81 O90 1.977 . S
O82 Zn81 2.032 . S
O82 C86 1.278 . S
C83 O84 1.203 . S
C83 O90 1.267 . S
O84 C83 1.203 . S
O85 C78 1.185 . S
O85 Zn81 2.086 . S
C86 O82 1.278 . S
C86 O87 1.211 . S
O87 C86 1.211 . S
C88 O80 1.284 . S
C88 O89 1.273 . S
O89 C88 1.273 . S
O90 Zn81 1.977 . S
O90 C83 1.267 . S
C91 O92 1.160 . S
C91 O98 1.185 . S
O92 C91 1.160 . S
O93 Zn94 1.899 . S
O93 C101 1.284 . S
Zn94 O93 1.899 . S
Zn94 O95 2.032 . S
Zn94 O98 2.086 . S
Zn94 O103 1.977 . S
O95 Zn94 2.032 . S
O95 C99 1.278 . S
C96 O97 1.203 . S
C96 O103 1.267 . S
O97 C96 1.203 . S
O98 C91 1.185 . S
O98 Zn94 2.086 . S
C99 O95 1.278 . S
C99 O100 1.211 . S
O100 C99 1.211 . S
C101 O93 1.284 . S
C101 O102 1.273 . S
O102 C101 1.273 . S
O103 Zn94 1.977 . S
O103 C96 1.267 . S
C104 O105 1.160 . S
C104 O111 1.185 . S
O105 C104 1.160 . S
O106 Zn107 1.899 . S
O106 C114 1.284 . S
Zn107 O106 1.899 . S
Zn107 O108 2.032 . S
Zn107 O111 2.086 . S
Zn107 O116 1.977 . S
O108 Zn107 2.032 . S
O108 C112 1.278 . S
C109 O110 1.203 . S
C109 O116 1.267 . S
O110 C109 1.203 . S
O111 C104 1.185 . S
O111 Zn107 2.086 . S
C112 O108 1.278 . S
C112 O113 1.211 . S
O113 C112 1.211 . S
C114 O106 1.284 . S
C114 O115 1.273 . S
O115 C114 1.273 . S
O116 Zn107 1.977 . S
O116 C109 1.267 . S
C117 O118 1.160 . S
C117 O124 1.185 . S
O118 C117 1.160 . S
O119 Zn120 1.899 . S
O119 C127 1.284 . S
Zn120 O119 1.899 . S
Zn120 O121 2.032 . S
Zn120 O124 2.086 . S
Zn120 O129 1.977 . S
O121 Zn120 2.032 . S
O121 C125 1.278 . S
C122 O123 1.203 . S
C122 O129 1.267 . S
O123 C122 1.203 . S
O124 C117 1.185 . S
O124 Zn120 2.086 . S
C125 O121 1.278 . S
C125 O126 1.211 . S
O126 C125 1.211 . S
C127 O119 1.284 . S
C127 O128 1.273 . S
O128 C127 1.273 . S
O129 Zn120 1.977 . S
O129 C122 1.267 . S
C130 O131 1.160 . S
C130 O137 1.185 . S
O131 C130 1.160 . S
O132 Zn133 1.899 . S
O132 C140 1.284 . S
Zn133 O132 1.899 . S
Zn133 O134 2.032 . S
Zn133 O137 2.086 . S
Zn133 O142 1.977 . S
O134 Zn133 2.032 . S
O134 C138 1.278 . S
C135 O136 1.203 . S
C135 O142 1.267 . S
O136 C135 1.203 . S
O137 C130 1.185 . S
O137 Zn133 2.086 . S
C138 O134 1.278 . S
C138 O139 1.211 . S
O139 C138 1.211 . S
C140 O132 1.284 . S
C140 O141 1.273 . S
O141 C140 1.273 . S
O142 Zn133 1.977 . S
O142 C135 1.267 . S
C143 O144 1.160 . S
C143 O150 1.185 . S
O144 C143 1.160 . S
O145 Zn146 1.899 . S
O145 C153 1.284 . S
Zn146 O145 1.899 . S
Zn146 O147 2.032 . S
Zn146 O150 2.086 . S
Zn146 O155 1.977 . S
O147 Zn146 2.032 . S
O147 C151 1.278 . S
C148 O149 1.203 . S
C148 O155 1.267 . S
O149 C148 1.203 . S
O150 C143 1.185 . S
O150 Zn146 2.086 . S
C151 O147 1.278 . S
C151 O152 1.211 . S
O152 C151 1.211 . S
C153 O145 1.284 . S
C153 O154 1.273 . S
O154 C153 1.273 . S
O155 Zn146 1.977 . S
O155 C148 1.267 . S
C156 O157 1.160 . S
C156 O163 1.185 . S
O157 C156 1.160 . S
O158 Zn159 1.899 . S
O158 C166 1.284 . S
Zn159 O158 1.899 . S
Zn159 O160 2.032 . S
Zn159 O163 2.086 . S
Zn159 O168 1.977 . S
O160 Zn159 2.032 . S
O160 C164 1.278 . S
C161 O162 1.203 . S
C161 O168 1.267 . S
O162 C161 1.203 . S
O163 C156 1.185 . S
O163 Zn159 2.086 . S
C164 O160 1.278 . S
C164 O165 1.211 . S
O165 C164 1.211 . S
C166 O158 1.284 . S
C166 O167 1.273 . S
O167 C166 1.273 . S
O168 Zn159 1.977 . S
O168 C161 1.267 . S
C169 O170 1.160 . S
C169 O176 1.185 . S
O170 C169 1.160 . S
O171 Zn172 1.899 . S
O171 C179 1.284 . S
Zn172 O171 1.899 . S
Zn172 O173 2.032 . S
Zn172 O176 2.086 . S
Zn172 O181 1.977 . S
O173 Zn172 2.032 . S
O173 C177 1.278 . S
C174 O175 1.203 . S
C174 O181 1.267 . S
O175 C174 1.203 . S
O176 C169 1.185 . S
O176 Zn172 2.086 . S
C177 O173 1.278 . S
C177 O178 1.211 . S
O178 C177 1.211 . S
C179 O171 1.284 . S
C179 O180 1.273 . S
O180 C179 1.273 . S
O181 Zn172 1.977 . S
O181 C174 1.267 . S
C182 O183 1.160 . S
C182 O189 1.185 . S
O183 C182 1.160 . S
O184 Zn185 1.899 . S
O184 C192 1.284 . S
Zn185 O184 1.899 . S
Zn185 O186 2.032 . S
Zn185 O189 2.086 . S
Zn185 O194 1.977 . S
O186 Zn185 2.032 . S
O186 C190 1.278 . S
C187 O188 1.203 . S
C187 O194 1.267 . S
O188 C187 1.203 . S
O189 C182 1.185 . S
O189 Zn185 2.086 . S
C190 O186 1.278 . S
C190 O191 1.211 . S
O191 C190 1.211 . S
C192 O184 1.284 . S
C192 O193 1.273 . S
O193 C192 1.273 . S
O194 Zn185 1.977 . S
O194 C187 1.267 . S
C195 O196 1.160 . S
C195 O202 1.185 . S
O196 C195 1.160 . S
O197 Zn198 1.899 . S
O197 C205 1.284 . S
Zn198 O197 1.899 . S
Zn198 O199 2.032 . S
Zn198 O202 2.086 . S
Zn198 O207 1.977 . S
O199 Zn198 2.032 . S
O199 C203 1.278 . S
C200 O201 1.203 . S
C200 O207 1.267 . S
O201 C200 1.203 . S
O202 C195 1.185 . S
O202 Zn198 2.086 . S
C203 O199 1.278 . S
C203 O204 1.211 . S
O204 C203 1.211 . S
C205 O197 1.284 . S
C205 O206 1.273 . S
O206 C205 1.273 . S
O207 Zn198 1.977 . S
O207 C200 1.267 . S
C208 O209 1.160 . S
C208 O215 1.185 . S
O209 C208 1.160 . S
O210 Zn211 1.899 . S
O210 C218 1.284 . S
Zn211 O210 1.899 . S
Zn211 O212 2.032 . S
Zn211 O215 2.086 . S
Zn211 O220 1.977 . S
O212 Zn211 2.032 . S
O212 C216 1.278 . S
C213 O214 1.203 . S
C213 O220 1.267 . S
O214 C213 1.203 . S
O215 C208 1.185 . S
O215 Zn211 2.086 . S
C216 O212 1.278 . S
C216 O217 1.211 . S
O217 C216 1.211 . S
C218 O210 1.284 . S
C218 O219 1.273 . S
O219 C218 1.273 . S
O220 Zn211 1.977 . S
O220 C213 1.267 . S
C221 O222 1.160 . S
C221 O228 1.185 . S
O222 C221 1.160 . S
O223 Zn224 1.899 . S
O223 C231 1.284 . S
Zn224 O223 1.899 . S
Zn224 O225 2.032 . S
Zn224 O228 2.086 . S
Zn224 O233 1.977 . S
O225 Zn224 2.032 . S
O225 C229 1.278 . S
C226 O227 1.203 . S
C226 O233 1.267 . S
O227 C226 1.203 . S
O228 C221 1.185 . S
O228 Zn224 2.086 . S
C229 O225 1.278 . S
C229 O230 1.211 . S
O230 C229 1.211 . S
C231 O223 1.284 . S
C231 O232 1.273 . S
O232 C231 1.273 . S
O233 Zn224 1.977 . S
O233 C226 1.267 . S
C234 O235 1.160 . S
C234 O241 1.185 . S
O235 C234 1.160 . S
O236 Zn237 1.899 . S
O236 C244 1.284 . S
Zn237 O236 1.899 . S
Zn237 O238 2.032 1_554 S
Zn237 O241 2.086 . S
Zn237 O246 1.977 . S
O238 Zn237 2.032 1_556 S
O238 C242 1.278 . S
C239 O240 1.203 . S
C239 O246 1.267 . S
O240 C239 1.203 . S
O241 C234 1.185 . S
O241 Zn237 2.086 . S
C242 O238 1.278 . S
C242 O243 1.211 . S
O243 C242 1.211 . S
C244 O236 1.284 . S
C244 O245 1.273 . S
O245 C244 1.273 . S
O246 Zn237 1.977 . S
O246 C239 1.267 . S
C247 O248 1.160 . S
C247 O254 1.185 . S
O248 C247 1.160 . S
O249 Zn250 1.899 . S
O249 C257 1.284 . S
Zn250 O249 1.899 . S
Zn250 O251 2.032 1_554 S
Zn250 O254 2.086 . S
Zn250 O259 1.977 . S
O251 Zn250 2.032 1_556 S
O251 C255 1.278 . S
C252 O253 1.203 . S
C252 O259 1.267 . S
O253 C252 1.203 . S
O254 C247 1.185 . S
O254 Zn250 2.086 . S
C255 O251 1.278 . S
C255 O256 1.211 . S
O256 C255 1.211 . S
C257 O249 1.284 . S
C257 O258 1.273 . S
O258 C257 1.273 . S
O259 Zn250 1.977 . S
O259 C252 1.267 . S
C260 O261 1.160 . S
C260 O267 1.185 . S
O261 C260 1.160 . S
O262 Zn263 1.899 . S
O262 C270 1.284 . S
Zn263 O262 1.899 . S
Zn263 O264 2.032 1_554 S
Zn263 O267 2.086 . S
Zn263 O272 1.977 . S
O264 Zn263 2.032 1_556 S
O264 C268 1.278 . S
C265 O266 1.203 . S
C265 O272 1.267 . S
O266 C265 1.203 . S
O267 C260 1.185 . S
O267 Zn263 2.086 . S
C268 O264 1.278 . S
C268 O269 1.211 . S
O269 C268 1.211 . S
C270 O262 1.284 . S
C270 O271 1.273 . S
O271 C270 1.273 . S
O272 Zn263 1.977 . S
O272 C265 1.267 . S
C273 O274 1.160 . S
C273 O280 1.185 . S
O274 C273 1.160 . S
O275 Zn276 1.899 1_556 S
O275 C283 1.284 . S
Zn276 O275 1.899 1_554 S
Zn276 O277 2.032 . S
Zn276 O280 2.086 . S
Zn276 O285 1.977 . S
O277 Zn276 2.032 . S
O277 C281 1.278 . S
C278 O279 1.203 1_554 S
C278 O285 1.267 . S
O279 C278 1.203 1_556 S
O280 C273 1.185 . S
O280 Zn276 2.086 . S
C281 O277 1.278 . S
C281 O282 1.211 . S
O282 C281 1.211 . S
C283 O275 1.284 . S
C283 O284 1.273 . S
O284 C283 1.273 . S
O285 Zn276 1.977 . S
O285 C278 1.267 . S
C286 O287 1.160 . S
C286 O293 1.185 . S
O287 C286 1.160 . S
O288 Zn289 1.899 1_556 S
O288 C296 1.284 . S
Zn289 O288 1.899 1_554 S
Zn289 O290 2.032 . S
Zn289 O293 2.086 . S
Zn289 O298 1.977 . S
O290 Zn289 2.032 . S
O290 C294 1.278 . S
C291 O292 1.203 1_554 S
C291 O298 1.267 . S
O292 C291 1.203 1_556 S
O293 C286 1.185 . S
O293 Zn289 2.086 . S
C294 O290 1.278 . S
C294 O295 1.211 . S
O295 C294 1.211 . S
C296 O288 1.284 . S
C296 O297 1.273 . S
O297 C296 1.273 . S
O298 Zn289 1.977 . S
O298 C291 1.267 . S
C299 O300 1.160 . S
C299 O306 1.185 . S
O300 C299 1.160 . S
O301 Zn302 1.899 1_556 S
O301 C309 1.284 . S
Zn302 O301 1.899 1_554 S
Zn302 O303 2.032 . S
Zn302 O306 2.086 . S
Zn302 O311 1.977 . S
O303 Zn302 2.032 . S
O303 C307 1.278 . S
C304 O305 1.203 1_554 S
C304 O311 1.267 . S
O305 C304 1.203 1_556 S
O306 C299 1.185 . S
O306 Zn302 2.086 . S
C307 O303 1.278 . S
C307 O308 1.211 . S
O308 C307 1.211 . S
C309 O301 1.284 . S
C309 O310 1.273 . S
O310 C309 1.273 . S
O311 Zn302 1.977 . S
O311 C304 1.267 . S
C312 O313 1.160 . S
C312 O319 1.185 . S
O313 C312 1.160 . S
O314 Zn315 1.899 . S
O314 C322 1.284 . S
Zn315 O314 1.899 . S
Zn315 O316 2.032 1_556 S
Zn315 O319 2.086 . S
Zn315 O324 1.977 . S
O316 Zn315 2.032 1_554 S
O316 C320 1.278 . S
C317 O318 1.203 . S
C317 O324 1.267 . S
O318 C317 1.203 . S
O319 C312 1.185 . S
O319 Zn315 2.086 . S
C320 O316 1.278 . S
C320 O321 1.211 . S
O321 C320 1.211 . S
C322 O314 1.284 . S
C322 O323 1.273 . S
O323 C322 1.273 . S
O324 Zn315 1.977 . S
O324 C317 1.267 . S
C325 O326 1.160 . S
C325 O332 1.185 . S
O326 C325 1.160 . S
O327 Zn328 1.899 . S
O327 C335 1.284 . S
Zn328 O327 1.899 . S
Zn328 O329 2.032 1_556 S
Zn328 O332 2.086 . S
Zn328 O337 1.977 . S
O329 Zn328 2.032 1_554 S
O329 C333 1.278 . S
C330 O331 1.203 . S
C330 O337 1.267 . S
O331 C330 1.203 . S
O332 C325 1.185 . S
O332 Zn328 2.086 . S
C333 O329 1.278 . S
C333 O334 1.211 . S
O334 C333 1.211 . S
C335 O327 1.284 . S
C335 O336 1.273 . S
O336 C335 1.273 . S
O337 Zn328 1.977 . S
O337 C330 1.267 . S
C338 O339 1.160 . S
C338 O345 1.185 . S
O339 C338 1.160 . S
O340 Zn341 1.899 . S
O340 C348 1.284 . S
Zn341 O340 1.899 . S
Zn341 O342 2.032 1_556 S
Zn341 O345 2.086 . S
Zn341 O350 1.977 . S
O342 Zn341 2.032 1_554 S
O342 C346 1.278 . S
C343 O344 1.203 . S
C343 O350 1.267 . S
O344 C343 1.203 . S
O345 C338 1.185 . S
O345 Zn341 2.086 . S
C346 O342 1.278 . S
C346 O347 1.211 . S
O347 C346 1.211 . S
C348 O340 1.284 . S
C348 O349 1.273 . S
O349 C348 1.273 . S
O350 Zn341 1.977 . S
O350 C343 1.267 . S
C351 O352 1.160 . S
C351 O358 1.185 . S
O352 C351 1.160 . S
O353 Zn354 1.899 1_554 S
O353 C361 1.284 . S
Zn354 O353 1.899 1_556 S
Zn354 O355 2.032 . S
Zn354 O358 2.086 . S
Zn354 O363 1.977 . S
O355 Zn354 2.032 . S
O355 C359 1.278 . S
C356 O357 1.203 1_556 S
C356 O363 1.267 . S
O357 C356 1.203 1_554 S
O358 C351 1.185 . S
O358 Zn354 2.086 . S
C359 O355 1.278 . S
C359 O360 1.211 . S
O360 C359 1.211 . S
C361 O353 1.284 . S
C361 O362 1.273 . S
O362 C361 1.273 . S
O363 Zn354 1.977 . S
O363 C356 1.267 . S
C364 O365 1.160 . S
C364 O371 1.185 . S
O365 C364 1.160 . S
O366 Zn367 1.899 1_554 S
O366 C374 1.284 . S
Zn367 O366 1.899 1_556 S
Zn367 O368 2.032 . S
Zn367 O371 2.086 . S
Zn367 O376 1.977 . S
O368 Zn367 2.032 . S
O368 C372 1.278 . S
C369 O370 1.203 1_556 S
C369 O376 1.267 . S
O370 C369 1.203 1_554 S
O371 C364 1.185 . S
O371 Zn367 2.086 . S
C372 O368 1.278 . S
C372 O373 1.211 . S
O373 C372 1.211 . S
C374 O366 1.284 . S
C374 O375 1.273 . S
O375 C374 1.273 . S
O376 Zn367 1.977 . S
O376 C369 1.267 . S
C377 O378 1.160 . S
C377 O384 1.185 . S
O378 C377 1.160 . S
O379 Zn380 1.899 1_554 S
O379 C387 1.284 . S
Zn380 O379 1.899 1_556 S
Zn380 O381 2.032 . S
Zn380 O384 2.086 . S
Zn380 O389 1.977 . S
O381 Zn380 2.032 . S
O381 C385 1.278 . S
C382 O383 1.203 1_556 S
C382 O389 1.267 . S
O383 C382 1.203 1_554 S
O384 C377 1.185 . S
O384 Zn380 2.086 . S
C385 O381 1.278 . S
C385 O386 1.211 . S
O386 C385 1.211 . S
C387 O379 1.284 . S
C387 O388 1.273 . S
O388 C387 1.273 . S
O389 Zn380 1.977 . S
O389 C382 1.267 . S
C390 O391 1.160 . S
C390 O397 1.185 . S
O391 C390 1.160 . S
O392 Zn393 1.899 . S
O392 C400 1.284 . S
Zn393 O392 1.899 . S
Zn393 O394 2.032 . S
Zn393 O397 2.086 . S
Zn393 O402 1.977 . S
O394 Zn393 2.032 . S
O394 C398 1.278 . S
C395 O396 1.203 . S
C395 O402 1.267 . S
O396 C395 1.203 . S
O397 C390 1.185 . S
O397 Zn393 2.086 . S
C398 O394 1.278 . S
C398 O399 1.211 . S
O399 C398 1.211 . S
C400 O392 1.284 . S
C400 O401 1.273 . S
O401 C400 1.273 . S
O402 Zn393 1.977 . S
O402 C395 1.267 . S
C403 O404 1.160 . S
C403 O410 1.185 . S
O404 C403 1.160 . S
O405 Zn406 1.899 . S
O405 C413 1.284 . S
Zn406 O405 1.899 . S
Zn406 O407 2.032 . S
Zn406 O410 2.086 . S
Zn406 O415 1.977 . S
O407 Zn406 2.032 . S
O407 C411 1.278 . S
C408 O409 1.203 . S
C408 O415 1.267 . S
O409 C408 1.203 . S
O410 C403 1.185 . S
O410 Zn406 2.086 . S
C411 O407 1.278 . S
C411 O412 1.211 . S
O412 C411 1.211 . S
C413 O405 1.284 . S
C413 O414 1.273 . S
O414 C413 1.273 . S
O415 Zn406 1.977 . S
O415 C408 1.267 . S
C416 O417 1.160 . S
C416 O423 1.185 . S
O417 C416 1.160 . S
O418 Zn419 1.899 . S
O418 C426 1.284 . S
Zn419 O418 1.899 . S
Zn419 O420 2.032 . S
Zn419 O423 2.086 . S
Zn419 O428 1.977 . S
O420 Zn419 2.032 . S
O420 C424 1.278 . S
C421 O422 1.203 . S
C421 O428 1.267 . S
O422 C421 1.203 . S
O423 C416 1.185 . S
O423 Zn419 2.086 . S
C424 O420 1.278 . S
C424 O425 1.211 . S
O425 C424 1.211 . S
C426 O418 1.284 . S
C426 O427 1.273 . S
O427 C426 1.273 . S
O428 Zn419 1.977 . S
O428 C421 1.267 . S
C429 O430 1.160 . S
C429 O436 1.185 . S
O430 C429 1.160 . S
O431 Zn432 1.899 . S
O431 C439 1.284 . S
Zn432 O431 1.899 . S
Zn432 O433 2.032 . S
Zn432 O436 2.086 . S
Zn432 O441 1.977 . S
O433 Zn432 2.032 . S
O433 C437 1.278 . S
C434 O435 1.203 . S
C434 O441 1.267 . S
O435 C434 1.203 . S
O436 C429 1.185 . S
O436 Zn432 2.086 . S
C437 O433 1.278 . S
C437 O438 1.211 . S
O438 C437 1.211 . S
C439 O431 1.284 . S
C439 O440 1.273 . S
O440 C439 1.273 . S
O441 Zn432 1.977 . S
O441 C434 1.267 . S
C442 O443 1.160 . S
C442 O449 1.185 . S
O443 C442 1.160 . S
O444 Zn445 1.899 . S
O444 C452 1.284 . S
Zn445 O444 1.899 . S
Zn445 O446 2.032 . S
Zn445 O449 2.086 . S
Zn445 O454 1.977 . S
O446 Zn445 2.032 . S
O446 C450 1.278 . S
C447 O448 1.203 . S
C447 O454 1.267 . S
O448 C447 1.203 . S
O449 C442 1.185 . S
O449 Zn445 2.086 . S
C450 O446 1.278 . S
C450 O451 1.211 . S
O451 C450 1.211 . S
C452 O444 1.284 . S
C452 O453 1.273 . S
O453 C452 1.273 . S
O454 Zn445 1.977 . S
O454 C447 1.267 . S
C455 O456 1.160 . S
C455 O462 1.185 . S
O456 C455 1.160 . S
O457 Zn458 1.899 . S
O457 C465 1.284 . S
Zn458 O457 1.899 . S
Zn458 O459 2.032 . S
Zn458 O462 2.086 . S
Zn458 O467 1.977 . S
O459 Zn458 2.032 . S
O459 C463 1.278 . S
C460 O461 1.203 . S
C460 O467 1.267 . S
O461 C460 1.203 . S
O462 C455 1.185 . S
O462 Zn458 2.086 . S
C463 O459 1.278 . S
C463 O464 1.211 . S
O464 C463 1.211 . S
C465 O457 1.284 . S
C465 O466 1.273 . S
O466 C465 1.273 . S
O467 Zn458 1.977 . S
O467 C460 1.267 . S
C138 C10 1.898 1_556 S
C151 C23 1.897 1_556 S
C36 C125 1.897 1_554 S
C49 C112 1.897 . S
C62 C86 1.897 . S
C99 C75 1.898 . S
C60 C88 1.897 1_554 S
C73 C101 1.897 1_554 S
C114 C47 1.897 1_556 S
C34 C127 1.897 . S
C140 C8 1.897 . S
C153 C21 1.898 . S
C294 C166 1.897 . S
C307 C179 1.897 . S
C192 C281 1.897 . S
C205 C268 1.897 . S
C218 C242 1.898 . S
C231 C255 1.898 . S
C216 C244 1.897 . S
C229 C257 1.897 . S
C203 C270 1.897 . S
C190 C283 1.897 . S
C164 C296 1.897 . S
C177 C309 1.897 . S
C322 C450 1.897 . S
C463 C335 1.897 . S
C437 C348 1.897 . S
C361 C424 1.897 . S
C374 C398 1.897 . S
C387 C411 1.897 . S
C372 C400 1.897 . S
C385 C413 1.897 . S
C359 C426 1.897 . S
C439 C346 1.897 . S
C320 C452 1.897 . S
C465 C333 1.898 . S
C39 C0 1.461 . S
C52 C13 1.460 1_565 S
C26 C65 1.460 1_655 S
C117 C78 1.461 . S
C130 C91 1.460 1_545 S
C143 C104 1.460 1_655 S
C195 C156 1.460 . S
C208 C169 1.460 . S
C182 C221 1.460 . S
C234 C273 1.460 . S
C286 C247 1.460 . S
C260 C299 1.459 . S
C351 C312 1.460 . S
C364 C325 1.460 . S
C338 C377 1.459 . S
C390 C429 1.460 . S
C403 C442 1.460 . S
C416 C455 1.460 . S
C5 C239 1.362 . S
C252 C18 1.362 . S
C265 C31 1.362 . S
C434 C44 1.362 . S
C447 C57 1.362 . S
C460 C70 1.362 . S
C83 C317 1.362 . S
C330 C96 1.362 . S
C343 C109 1.362 . S
C122 C200 1.362 . S
C135 C213 1.362 . S
C148 C226 1.362 . S
C395 C161 1.362 1_455 S
C408 C174 1.362 . S
C187 C421 1.362 1_545 S
C278 C356 1.362 1_544 S
C291 C369 1.362 1_654 S
C304 C382 1.362 1_554 S
