# Generated by pormake.
# Topology lcs, (4)-cn, num edge types: 1
# Building blocks:
#     Node 0, Type 0, BuildingBlock: AZAVOO_clean_sbu_0, # of connection points: 4
#     Node 1, Type 0, BuildingBlock: AZAVOO_clean_sbu_0, # of connection points: 4
#     Node 2, Type 0, BuildingBlock: AZAVOO_clean_sbu_0, # of connection points: 4
#     Node 3, Type 0, BuildingBlock: AZAVOO_clean_sbu_0, # of connection points: 4
#     Node 4, Type 0, BuildingBlock: AZAVOO_clean_sbu_0, # of connection points: 4
#     Node 5, Type 0, BuildingBlock: AZAVOO_clean_sbu_0, # of connection points: 4
#     Node 6, Type 0, BuildingBlock: AZAVOO_clean_sbu_0, # of connection points: 4
#     Node 7, Type 0, BuildingBlock: AZAVOO_clean_sbu_0, # of connection points: 4
#     Node 8, Type 0, BuildingBlock: AZAVOO_clean_sbu_0, # of connection points: 4
#     Node 9, Type 0, BuildingBlock: AZAVOO_clean_sbu_0, # of connection points: 4
#     Node 10, Type 0, BuildingBlock: AZAVOO_clean_sbu_0, # of connection points: 4
#     Node 11, Type 0, BuildingBlock: AZAVOO_clean_sbu_0, # of connection points: 4
#     Node 12, Type 0, BuildingBlock: AZAVOO_clean_sbu_0, # of connection points: 4
#     Node 13, Type 0, BuildingBlock: AZAVOO_clean_sbu_0, # of connection points: 4
#     Node 14, Type 0, BuildingBlock: AZAVOO_clean_sbu_0, # of connection points: 4
#     Node 15, Type 0, BuildingBlock: AZAVOO_clean_sbu_0, # of connection points: 4
#     Node 16, Type 0, BuildingBlock: AZAVOO_clean_sbu_0, # of connection points: 4
#     Node 17, Type 0, BuildingBlock: AZAVOO_clean_sbu_0, # of connection points: 4
#     Node 18, Type 0, BuildingBlock: AZAVOO_clean_sbu_0, # of connection points: 4
#     Node 19, Type 0, BuildingBlock: AZAVOO_clean_sbu_0, # of connection points: 4
#     Node 20, Type 0, BuildingBlock: AZAVOO_clean_sbu_0, # of connection points: 4
#     Node 21, Type 0, BuildingBlock: AZAVOO_clean_sbu_0, # of connection points: 4
#     Node 22, Type 0, BuildingBlock: AZAVOO_clean_sbu_0, # of connection points: 4
#     Node 23, Type 0, BuildingBlock: AZAVOO_clean_sbu_0, # of connection points: 4
#     Edge 24, Type (0, 0), BuildingBlock: AJUNOK_clean_linker_0, # of connection points: 2
#     Edge 25, Type (0, 0), BuildingBlock: AJUNOK_clean_linker_0, # of connection points: 2
#     Edge 26, Type (0, 0), BuildingBlock: AJUNOK_clean_linker_0, # of connection points: 2
#     Edge 27, Type (0, 0), BuildingBlock: AJUNOK_clean_linker_0, # of connection points: 2
#     Edge 28, Type (0, 0), BuildingBlock: AJUNOK_clean_linker_0, # of connection points: 2
#     Edge 29, Type (0, 0), BuildingBlock: AJUNOK_clean_linker_0, # of connection points: 2
#     Edge 30, Type (0, 0), BuildingBlock: AJUNOK_clean_linker_0, # of connection points: 2
#     Edge 31, Type (0, 0), BuildingBlock: AJUNOK_clean_linker_0, # of connection points: 2
#     Edge 32, Type (0, 0), BuildingBlock: AJUNOK_clean_linker_0, # of connection points: 2
#     Edge 33, Type (0, 0), BuildingBlock: AJUNOK_clean_linker_0, # of connection points: 2
#     Edge 34, Type (0, 0), BuildingBlock: AJUNOK_clean_linker_0, # of connection points: 2
#     Edge 35, Type (0, 0), BuildingBlock: AJUNOK_clean_linker_0, # of connection points: 2
#     Edge 36, Type (0, 0), BuildingBlock: AJUNOK_clean_linker_0, # of connection points: 2
#     Edge 37, Type (0, 0), BuildingBlock: AJUNOK_clean_linker_0, # of connection points: 2
#     Edge 38, Type (0, 0), BuildingBlock: AJUNOK_clean_linker_0, # of connection points: 2
#     Edge 39, Type (0, 0), BuildingBlock: AJUNOK_clean_linker_0, # of connection points: 2
#     Edge 40, Type (0, 0), BuildingBlock: AJUNOK_clean_linker_0, # of connection points: 2
#     Edge 41, Type (0, 0), BuildingBlock: AJUNOK_clean_linker_0, # of connection points: 2
#     Edge 42, Type (0, 0), BuildingBlock: AJUNOK_clean_linker_0, # of connection points: 2
#     Edge 43, Type (0, 0), BuildingBlock: AJUNOK_clean_linker_0, # of connection points: 2
#     Edge 44, Type (0, 0), BuildingBlock: AJUNOK_clean_linker_0, # of connection points: 2
#     Edge 45, Type (0, 0), BuildingBlock: AJUNOK_clean_linker_0, # of connection points: 2
#     Edge 46, Type (0, 0), BuildingBlock: AJUNOK_clean_linker_0, # of connection points: 2
#     Edge 47, Type (0, 0), BuildingBlock: AJUNOK_clean_linker_0, # of connection points: 2
#     Edge 48, Type (0, 0), BuildingBlock: AJUNOK_clean_linker_0, # of connection points: 2
#     Edge 49, Type (0, 0), BuildingBlock: AJUNOK_clean_linker_0, # of connection points: 2
#     Edge 50, Type (0, 0), BuildingBlock: AJUNOK_clean_linker_0, # of connection points: 2
#     Edge 51, Type (0, 0), BuildingBlock: AJUNOK_clean_linker_0, # of connection points: 2
#     Edge 52, Type (0, 0), BuildingBlock: AJUNOK_clean_linker_0, # of connection points: 2
#     Edge 53, Type (0, 0), BuildingBlock: AJUNOK_clean_linker_0, # of connection points: 2
#     Edge 54, Type (0, 0), BuildingBlock: AJUNOK_clean_linker_0, # of connection points: 2
#     Edge 55, Type (0, 0), BuildingBlock: AJUNOK_clean_linker_0, # of connection points: 2
#     Edge 56, Type (0, 0), BuildingBlock: AJUNOK_clean_linker_0, # of connection points: 2
#     Edge 57, Type (0, 0), BuildingBlock: AJUNOK_clean_linker_0, # of connection points: 2
#     Edge 58, Type (0, 0), BuildingBlock: AJUNOK_clean_linker_0, # of connection points: 2
#     Edge 59, Type (0, 0), BuildingBlock: AJUNOK_clean_linker_0, # of connection points: 2
#     Edge 60, Type (0, 0), BuildingBlock: AJUNOK_clean_linker_0, # of connection points: 2
#     Edge 61, Type (0, 0), BuildingBlock: AJUNOK_clean_linker_0, # of connection points: 2
#     Edge 62, Type (0, 0), BuildingBlock: AJUNOK_clean_linker_0, # of connection points: 2
#     Edge 63, Type (0, 0), BuildingBlock: AJUNOK_clean_linker_0, # of connection points: 2
#     Edge 64, Type (0, 0), BuildingBlock: AJUNOK_clean_linker_0, # of connection points: 2
#     Edge 65, Type (0, 0), BuildingBlock: AJUNOK_clean_linker_0, # of connection points: 2
#     Edge 66, Type (0, 0), BuildingBlock: AJUNOK_clean_linker_0, # of connection points: 2
#     Edge 67, Type (0, 0), BuildingBlock: AJUNOK_clean_linker_0, # of connection points: 2
#     Edge 68, Type (0, 0), BuildingBlock: AJUNOK_clean_linker_0, # of connection points: 2
#     Edge 69, Type (0, 0), BuildingBlock: AJUNOK_clean_linker_0, # of connection points: 2
#     Edge 70, Type (0, 0), BuildingBlock: AJUNOK_clean_linker_0, # of connection points: 2
#     Edge 71, Type (0, 0), BuildingBlock: AJUNOK_clean_linker_0, # of connection points: 2
# Relax obj value: 0.143
# Max RMSD: 0.194
# Mean RMSD: 0.182
data_MOF--net-lcs--node1-AZAVOO_clean_sbu_0--edge1-AJUNOK_clean_linker_0
_symmetry_space_group_name_H-M    P1
_symmetry_Int_Tables_number       1
_symmetry_cell_setting            triclinic
loop_
_symmetry_equiv_pos_as_xyz
'x, y, z'
_cell_length_a     36.366986
_cell_length_b     35.567247
_cell_length_c     35.613898
_cell_angle_alpha  94.992892
_cell_angle_beta   94.684718
_cell_angle_gamma 94.560622
loop_
_atom_site_label
_atom_site_type_symbol
_atom_site_fract_x
_atom_site_fract_y
_atom_site_fract_z
_atom_type_partial_charge
Mg0 Mg 0.01431 0.27563 0.47784 0.0
O1 O 0.98516 0.23529 0.42864 0.0
O2 O 0.92986 0.25535 0.41311 0.0
Mg3 Mg 0.92396 0.30902 0.45219 0.0
C4 C 0.95421 0.2318 0.40846 0.0
C5 C 0.08778 0.24084 0.49671 0.0
O6 O 0.07628 0.24743 0.53049 0.0
O7 O 0.02727 0.32136 0.43829 0.0
O8 O 0.97122 0.34191 0.42707 0.0
O9 O 0.98547 0.23949 0.51725 0.0
O10 O 0.96387 0.29034 0.49487 0.0
C11 C 0.00597 0.34406 0.42357 0.0
C12 C 0.95897 0.26155 0.51383 0.0
O13 O 0.06812 0.24963 0.46821 0.0
Mg14 Mg 0.00317 0.78083 0.55882 0.0
O15 O 0.02172 0.82137 0.61193 0.0
O16 O 0.97109 0.8347 0.64025 0.0
Mg17 Mg 0.92002 0.80613 0.60377 0.0
C18 C 0.00617 0.83807 0.63882 0.0
C19 C 0.07582 0.75899 0.52362 0.0
O20 O 0.05484 0.76339 0.49275 0.0
O21 O 0.98985 0.73251 0.59551 0.0
O22 O 0.93722 0.74817 0.61834 0.0
O23 O 0.99709 0.83044 0.52381 0.0
O24 O 0.95288 0.80461 0.55477 0.0
C25 C 0.96231 0.72531 0.61467 0.0
C26 C 0.96404 0.83087 0.53474 0.0
O27 O 0.06263 0.76452 0.55543 0.0
Mg28 Mg 0.51652 0.78126 0.95681 0.0
O29 O 0.50219 0.73131 0.91148 0.0
O30 O 0.46159 0.74818 0.86712 0.0
Mg31 Mg 0.44892 0.809 0.8851 0.0
C32 C 0.48135 0.72362 0.88071 0.0
C33 C 0.59823 0.77235 0.98412 0.0
O34 O 0.59957 0.80938 0.9843 0.0
O35 O 0.55099 0.81514 0.91841 0.0
O36 O 0.50761 0.83361 0.87764 0.0
O37 O 0.47047 0.75869 0.98859 0.0
O38 O 0.46402 0.79897 0.9449 0.0
C39 C 0.54131 0.83336 0.89054 0.0
C40 C 0.44898 0.77733 0.9677 0.0
O41 O 0.56721 0.75302 0.9768 0.0
Mg42 Mg 0.47208 0.24301 0.0757 0.0
O43 O 0.49894 0.28834 0.12111 0.0
O44 O 0.45967 0.29971 0.16471 0.0
Mg45 Mg 0.4063 0.26156 0.14668 0.0
C46 C 0.49108 0.30586 0.15178 0.0
C47 C 0.54743 0.26591 0.04404 0.0
O48 O 0.5318 0.29792 0.0434 0.0
O49 O 0.48036 0.1973 0.1163 0.0
O50 O 0.43777 0.20969 0.15652 0.0
O51 O 0.44505 0.28753 0.04389 0.0
O52 O 0.41971 0.25671 0.08759 0.0
C53 C 0.46317 0.18988 0.14507 0.0
C54 C 0.41736 0.28178 0.06398 0.0
O55 O 0.52925 0.23731 0.05468 0.0
Mg56 Mg 0.99255 0.79049 0.17844 0.0
O57 O 0.94785 0.76895 0.12999 0.0
O58 O 0.93847 0.81824 0.09688 0.0
Mg59 Mg 0.97301 0.87122 0.12563 0.0
C60 C 0.93215 0.78326 0.10182 0.0
C61 C 0.02517 0.72462 0.21685 0.0
O62 O 0.03907 0.75414 0.23984 0.0
O63 O 0.0356 0.79211 0.13636 0.0
O64 O 0.02547 0.8444 0.10806 0.0
O65 O 0.95079 0.80742 0.21753 0.0
O66 O 0.97632 0.84557 0.17965 0.0
C67 C 0.0441 0.81594 0.11309 0.0
C68 C 0.95368 0.8406 0.20507 0.0
O69 O 0.00341 0.72985 0.18836 0.0
Mg70 Mg 0.54289 0.7372 0.35811 0.0
O71 O 0.52238 0.77214 0.31145 0.0
O72 O 0.56934 0.78676 0.27741 0.0
Mg73 Mg 0.62022 0.76095 0.30266 0.0
C74 C 0.53563 0.78843 0.28435 0.0
C75 C 0.48472 0.70829 0.40392 0.0
O76 O 0.51723 0.70503 0.42176 0.0
O77 O 0.54361 0.68498 0.31716 0.0
O78 O 0.59432 0.69975 0.28838 0.0
O79 O 0.55912 0.78961 0.39572 0.0
O80 O 0.59672 0.76266 0.35801 0.0
C81 C 0.56759 0.67612 0.29448 0.0
C82 C 0.59124 0.79011 0.38245 0.0
O83 O 0.48395 0.72123 0.37178 0.0
Mg84 Mg 0.50133 0.27738 0.67813 0.0
O85 O 0.45454 0.25327 0.63234 0.0
O86 O 0.44357 0.30139 0.59784 0.0
Mg87 Mg 0.47836 0.35552 0.62296 0.0
C88 C 0.43766 0.26673 0.60421 0.0
C89 C 0.5075 0.20408 0.72106 0.0
O90 O 0.48591 0.22188 0.74308 0.0
O91 O 0.5419 0.27792 0.63331 0.0
O92 O 0.53018 0.32887 0.60355 0.0
O93 O 0.4617 0.29481 0.71947 0.0
O94 O 0.48297 0.33162 0.678 0.0
C95 C 0.54919 0.30076 0.60872 0.0
C96 C 0.46227 0.32712 0.70523 0.0
O97 O 0.51635 0.21841 0.69122 0.0
Mg98 Mg 0.01295 0.282 0.8407 0.0
O99 O 0.00207 0.31458 0.78911 0.0
O100 O 0.05526 0.3225 0.76205 0.0
Mg101 Mg 0.09872 0.29198 0.79431 0.0
C102 C 0.02105 0.32747 0.76365 0.0
C103 C 0.95318 0.27125 0.88712 0.0
O104 O 0.98588 0.27319 0.90623 0.0
O105 O 0.01089 0.22694 0.80376 0.0
O106 O 0.0652 0.23403 0.77892 0.0
O107 O 0.0309 0.33539 0.8758 0.0
O108 O 0.06904 0.30127 0.84519 0.0
C109 C 0.03505 0.21437 0.78308 0.0
C110 C 0.06412 0.33122 0.86667 0.0
O111 O 0.95209 0.27358 0.85163 0.0
Mg112 Mg 0.43554 0.98168 0.25609 0.0
O113 O 0.39123 0.9629 0.20684 0.0
O114 O 0.35823 0.91199 0.22269 0.0
Mg115 Mg 0.3828 0.89675 0.28016 0.0
C116 C 0.36492 0.93661 0.19954 0.0
C117 C 0.46667 0.04545 0.20792 0.0
O118 O 0.48337 0.0176 0.192 0.0
O119 O 0.39322 0.00466 0.29413 0.0
O120 O 0.36627 0.95112 0.31156 0.0
O121 O 0.47473 0.94445 0.22929 0.0
O122 O 0.43607 0.92634 0.27012 0.0
C123 C 0.37102 0.98726 0.31406 0.0
C124 C 0.46098 0.91783 0.24795 0.0
O125 O 0.44548 0.03887 0.23366 0.0
Mg126 Mg 0.26825 0.09285 0.48964 0.0
O127 O 0.31579 0.13756 0.51317 0.0
O128 O 0.32543 0.17373 0.46622 0.0
Mg129 Mg 0.28831 0.15005 0.41287 0.0
C130 C 0.33255 0.166 0.50028 0.0
C131 C 0.2459 0.04523 0.55301 0.0
O132 O 0.24445 0.01965 0.52388 0.0
O133 O 0.22812 0.13775 0.49211 0.0
O134 O 0.23716 0.16931 0.44173 0.0
O135 O 0.30696 0.05183 0.47078 0.0
O136 O 0.28444 0.09366 0.43477 0.0
C137 C 0.21973 0.16318 0.47069 0.0
C138 C 0.30545 0.0664 0.43865 0.0
O139 O 0.25652 0.07937 0.54874 0.0
Mg140 Mg 0.14892 0.02455 0.76833 0.0
O141 O 0.11426 0.97043 0.74263 0.0
O142 O 0.07313 0.95582 0.78339 0.0
Mg143 Mg 0.08481 0.99719 0.83679 0.0
C144 C 0.08689 0.94951 0.75181 0.0
C145 C 0.18571 0.00977 0.69343 0.0
O146 O 0.19011 0.97764 0.70812 0.0
O147 O 0.10011 0.05815 0.7571 0.0
O148 O 0.06442 0.04575 0.8033 0.0
O149 O 0.19159 0.99266 0.79484 0.0
O150 O 0.14242 0.00948 0.82286 0.0
C151 C 0.07173 0.06374 0.77482 0.0
C152 C 0.17239 0.99233 0.82389 0.0
O153 O 0.16906 0.03483 0.71123 0.0
Mg154 Mg 0.24066 0.83722 0.98762 0.0
O155 O 0.27153 0.87481 0.03768 0.0
O156 O 0.32392 0.90119 0.01949 0.0
Mg157 Mg 0.3259 0.88092 0.95676 0.0
C158 C 0.30177 0.89587 0.04492 0.0
C159 C 0.17704 0.80529 0.0335 0.0
O160 O 0.19434 0.77435 0.02946 0.0
O161 O 0.22164 0.88802 0.95898 0.0
O162 O 0.27474 0.91097 0.939 0.0
O163 O 0.2738 0.78958 0.00426 0.0
O164 O 0.28932 0.82998 0.96312 0.0
C165 C 0.23988 0.91165 0.94104 0.0
C166 C 0.29716 0.80187 0.98162 0.0
O167 O 0.18971 0.83487 0.01972 0.0
Mg168 Mg 0.22944 0.41667 0.02666 0.0
O169 O 0.25599 0.46672 0.00041 0.0
O170 O 0.21324 0.50625 0.98737 0.0
Mg171 Mg 0.15888 0.48133 0.00646 0.0
C172 C 0.24636 0.49694 0.98709 0.0
C173 C 0.28494 0.36265 0.0471 0.0
O174 O 0.25239 0.34316 0.04285 0.0
O175 O 0.22734 0.45103 0.083 0.0
O176 O 0.18092 0.48632 0.06908 0.0
O177 O 0.21524 0.38705 0.96959 0.0
O178 O 0.1778 0.42363 0.99841 0.0
C179 C 0.20491 0.47512 0.09286 0.0
C180 C 0.18418 0.40252 0.96871 0.0
O181 O 0.28635 0.39785 0.0432 0.0
Mg182 Mg 0.77835 0.22 0.0148 0.0
O183 O 0.76635 0.16797 0.97168 0.0
O184 O 0.81927 0.14168 0.96387 0.0
Mg185 Mg 0.86524 0.1763 0.00281 0.0
C186 C 0.78445 0.14242 0.95614 0.0
C187 C 0.70279 0.25486 0.01753 0.0
O188 O 0.72502 0.28468 0.01272 0.0
O189 O 0.78285 0.18113 0.06288 0.0
O190 O 0.83686 0.15737 0.05376 0.0
O191 O 0.79362 0.25541 0.96761 0.0
O192 O 0.83274 0.22542 0.00221 0.0
C193 C 0.80835 0.16001 0.07218 0.0
C194 C 0.82683 0.24547 0.97445 0.0
O195 O 0.71633 0.2231 0.01919 0.0
Mg196 Mg 0.08922 0.50912 0.29334 0.0
O197 O 0.13674 0.52857 0.33913 0.0
O198 O 0.16727 0.47771 0.34905 0.0
Mg199 Mg 0.13876 0.42636 0.31214 0.0
C200 C 0.16312 0.51291 0.35581 0.0
C201 C 0.06472 0.57441 0.2499 0.0
O202 O 0.05605 0.54438 0.22568 0.0
O203 O 0.13069 0.50629 0.24975 0.0
O204 O 0.15811 0.45372 0.25969 0.0
O205 O 0.05137 0.49521 0.3366 0.0
O206 O 0.08695 0.45462 0.31071 0.0
C207 C 0.15379 0.48255 0.2412 0.0
C208 C 0.06344 0.46187 0.33502 0.0
O209 O 0.08024 0.56994 0.28232 0.0
Mg210 Mg 0.75747 0.92251 0.51503 0.0
O211 O 0.7602 0.97231 0.4787 0.0
O212 O 0.70337 0.99144 0.46906 0.0
Mg213 Mg 0.66445 0.95477 0.50055 0.0
C214 C 0.7378 0.9941 0.46416 0.0
C215 C 0.84001 0.915 0.4986 0.0
O216 O 0.82417 0.90986 0.46382 0.0
O217 O 0.75342 0.96231 0.56729 0.0
O218 O 0.69537 0.97813 0.5577 0.0
O219 O 0.74416 0.88224 0.46378 0.0
O220 O 0.70205 0.90947 0.49528 0.0
C221 C 0.7262 0.97972 0.57801 0.0
C222 C 0.7097 0.88762 0.4667 0.0
O223 O 0.82034 0.92403 0.52537 0.0
Mg224 Mg 0.83039 0.03525 0.27531 0.0
O225 O 0.87491 0.08131 0.30274 0.0
O226 O 0.89863 0.06093 0.35639 0.0
Mg227 Mg 0.86859 0.00353 0.36468 0.0
C228 C 0.8969 0.0861 0.33297 0.0
C229 C 0.80575 0.0849 0.21104 0.0
O230 O 0.78162 0.09348 0.23523 0.0
O231 O 0.87247 0.99351 0.25682 0.0
O232 O 0.88856 0.97241 0.31256 0.0
O233 O 0.78814 0.0636 0.30817 0.0
O234 O 0.82177 0.01911 0.3284 0.0
C235 C 0.8889 0.97047 0.27667 0.0
C236 C 0.79821 0.04332 0.33501 0.0
O237 O 0.82961 0.06207 0.2196 0.0
Mg238 Mg 0.29934 0.67465 0.52511 0.0
O239 O 0.26959 0.63101 0.47941 0.0
O240 O 0.30759 0.58672 0.46528 0.0
Mg241 Mg 0.36248 0.60203 0.50115 0.0
C242 C 0.27633 0.60044 0.46077 0.0
C243 C 0.22394 0.70974 0.50776 0.0
O244 O 0.23666 0.70895 0.47424 0.0
O245 O 0.29255 0.63256 0.56977 0.0
O246 O 0.33327 0.59106 0.554 0.0
O247 O 0.32553 0.70762 0.48089 0.0
O248 O 0.35047 0.66163 0.50847 0.0
C249 C 0.30932 0.60299 0.57541 0.0
C250 C 0.35274 0.68645 0.48458 0.0
O251 O 0.24355 0.69808 0.53487 0.0
Mg252 Mg 0.346 0.51997 0.79652 0.0
O253 O 0.39527 0.56398 0.81359 0.0
O254 O 0.42775 0.5456 0.86349 0.0
Mg255 Mg 0.39885 0.48992 0.87863 0.0
C256 C 0.42254 0.56922 0.839 0.0
C257 C 0.31833 0.52771 0.71238 0.0
O258 O 0.3093 0.49126 0.7129 0.0
O259 O 0.38257 0.47706 0.77042 0.0
O260 O 0.40972 0.45718 0.82274 0.0
O261 O 0.31248 0.5515 0.83602 0.0
O262 O 0.34625 0.50549 0.8518 0.0
C263 C 0.40327 0.45484 0.78676 0.0
C264 C 0.32487 0.53104 0.86179 0.0
O265 O 0.33504 0.54644 0.74165 0.0
Mg266 Mg 0.62734 0.00959 0.78413 0.0
O267 O 0.67151 0.03777 0.82973 0.0
O268 O 0.71275 0.99582 0.84028 0.0
Mg269 Mg 0.69437 0.94081 0.8031 0.0
C270 C 0.70131 0.02857 0.84672 0.0
C271 C 0.57159 0.07075 0.77322 0.0
O272 O 0.54942 0.04337 0.78374 0.0
O273 O 0.66757 0.01619 0.73988 0.0
O274 O 0.70582 0.9714 0.7501 0.0
O275 O 0.59428 0.9865 0.82795 0.0
O276 O 0.63666 0.95587 0.79991 0.0
C277 C 0.69498 0.99808 0.73118 0.0
C278 C 0.61248 0.9567 0.82432 0.0
O279 O 0.60592 0.06643 0.77278 0.0
Mg280 Mg 0.7683 0.61076 0.9757 0.0
O281 O 0.81672 0.65413 0.00133 0.0
O282 O 0.82784 0.69275 0.95673 0.0
Mg283 Mg 0.79008 0.67357 0.90313 0.0
C284 C 0.83416 0.68319 0.99019 0.0
C285 C 0.73748 0.56237 0.03594 0.0
O286 O 0.72269 0.54376 0.00411 0.0
O287 O 0.72907 0.65667 0.98278 0.0
O288 O 0.74201 0.69268 0.93627 0.0
O289 O 0.80581 0.57061 0.95153 0.0
O290 O 0.78289 0.61536 0.9201 0.0
C291 C 0.72363 0.68507 0.96417 0.0
C292 C 0.80319 0.58726 0.9206 0.0
O293 O 0.75871 0.59231 0.0343 0.0
Mg294 Mg 0.91999 0.51312 0.72257 0.0
O295 O 0.87583 0.48361 0.67705 0.0
O296 O 0.85273 0.43106 0.7 0.0
Mg297 Mg 0.88304 0.4254 0.75805 0.0
C298 C 0.85433 0.45302 0.67351 0.0
C299 C 0.95027 0.58126 0.68194 0.0
O300 O 0.97951 0.56188 0.68467 0.0
O301 O 0.8778 0.53285 0.76345 0.0
O302 O 0.86246 0.47837 0.78725 0.0
O303 O 0.96251 0.48029 0.69505 0.0
O304 O 0.92955 0.4605 0.74014 0.0
C305 C 0.86152 0.51415 0.78735 0.0
C306 C 0.9529 0.45366 0.71575 0.0
O307 O 0.92055 0.56824 0.69448 0.0
Mg308 Mg 0.75011 0.29334 0.48723 0.0
O309 O 0.77639 0.3444 0.52704 0.0
O310 O 0.83186 0.36167 0.50854 0.0
Mg311 Mg 0.84115 0.32093 0.45704 0.0
C312 C 0.80647 0.36601 0.53089 0.0
C313 C 0.67963 0.27648 0.52803 0.0
O314 O 0.69558 0.24487 0.53099 0.0
O315 O 0.73762 0.33116 0.43973 0.0
O316 O 0.79411 0.34344 0.42078 0.0
O317 O 0.7784 0.25561 0.52568 0.0
O318 O 0.8019 0.27747 0.47559 0.0
C319 C 0.75914 0.34577 0.41725 0.0
C320 C 0.80585 0.25906 0.50493 0.0
O321 O 0.69518 0.30228 0.5108 0.0
Mg322 Mg 0.67618 0.4733 0.24884 0.0
O323 O 0.62849 0.42799 0.22835 0.0
O324 O 0.59711 0.41689 0.27819 0.0
Mg325 Mg 0.62529 0.45289 0.3303 0.0
C326 C 0.60177 0.41094 0.24307 0.0
C327 C 0.70523 0.51527 0.18388 0.0
O328 O 0.71867 0.53735 0.21421 0.0
O329 O 0.63497 0.51761 0.2519 0.0
O330 O 0.60703 0.5061 0.30376 0.0
O331 O 0.71381 0.42938 0.26327 0.0
O332 O 0.67766 0.4552 0.30314 0.0
C333 C 0.61167 0.52548 0.27566 0.0
C334 C 0.70138 0.43098 0.29638 0.0
O335 O 0.68556 0.485 0.18815 0.0
C336 C 0.06593 0.39816 0.3602 0.0
C337 C 0.05015 0.43308 0.35974 0.0
C338 C 0.0522 0.36972 0.38165 0.0
C339 C 0.02174 0.3749 0.40281 0.0
H340 H 0.08875 0.39242 0.34353 0.0
H341 H 0.06487 0.34314 0.38078 0.0
S342 S 0.9717 0.46172 0.41322 0.0
N343 N 0.00339 0.47168 0.38412 0.0
N344 N 0.97743 0.41819 0.42376 0.0
C345 C 0.00619 0.4099 0.40326 0.0
C346 C 0.02043 0.43898 0.38192 0.0
C347 C 0.92506 0.86119 0.48739 0.0
C348 C 0.93934 0.86011 0.52505 0.0
C349 C 0.8945 0.88164 0.47864 0.0
C350 C 0.87722 0.90163 0.50732 0.0
H351 H 0.93586 0.84402 0.46488 0.0
H352 H 0.88298 0.87969 0.44944 0.0
S353 S 0.90979 0.91366 0.60962 0.0
N354 N 0.93806 0.88499 0.59041 0.0
N355 N 0.8809 0.92364 0.57438 0.0
C356 C 0.89374 0.90354 0.54471 0.0
C357 C 0.92467 0.88258 0.55348 0.0
C358 C 0.43326 0.63631 0.82327 0.0
C359 C 0.44489 0.60659 0.84375 0.0
C360 C 0.44767 0.67389 0.83328 0.0
C361 C 0.4745 0.68342 0.86421 0.0
H362 H 0.41094 0.63106 0.80078 0.0
H363 H 0.43587 0.69576 0.81816 0.0
S364 S 0.52092 0.61509 0.92115 0.0
N365 N 0.48971 0.58849 0.89204 0.0
N366 N 0.51697 0.65899 0.91079 0.0
C367 C 0.4894 0.6535 0.88214 0.0
C368 C 0.4746 0.61514 0.87202 0.0
C369 C 0.60284 0.22916 0.03647 0.0
C370 C 0.58652 0.26368 0.03512 0.0
C371 C 0.64016 0.22653 0.03021 0.0
C372 C 0.6629 0.25832 0.02244 0.0
H373 H 0.58682 0.20388 0.04284 0.0
H374 H 0.6513 0.19932 0.03199 0.0
S375 S 0.63354 0.35528 0.0145 0.0
N376 N 0.59592 0.33027 0.02429 0.0
N377 N 0.66597 0.32541 0.01283 0.0
C378 C 0.64683 0.29295 0.0204 0.0
C379 C 0.60872 0.29559 0.02664 0.0
C380 C 0.0624 0.64391 0.26741 0.0
C381 C 0.05515 0.61248 0.2402 0.0
C382 C 0.05269 0.67994 0.25951 0.0
C383 C 0.03514 0.68607 0.22412 0.0
H384 H 0.0755 0.64074 0.29525 0.0
H385 H 0.05872 0.70308 0.28156 0.0
S386 S 0.0116 0.61377 0.14223 0.0
N387 N 0.03047 0.59028 0.17573 0.0
N388 N 0.0121 0.65789 0.16105 0.0
C389 C 0.0281 0.65504 0.19643 0.0
C390 C 0.03815 0.61832 0.20441 0.0
C391 C 0.61399 0.84765 0.42558 0.0
C392 C 0.62139 0.81914 0.39798 0.0
C393 C 0.64266 0.87119 0.44618 0.0
C394 C 0.67991 0.86734 0.43989 0.0
H395 H 0.58594 0.85073 0.43274 0.0
H396 H 0.63549 0.89127 0.46843 0.0
S397 S 0.71395 0.80078 0.36703 0.0
N398 N 0.66862 0.79093 0.36286 0.0
N399 N 0.72244 0.83571 0.40105 0.0
C400 C 0.68757 0.84093 0.4104 0.0
C401 C 0.65833 0.81671 0.38955 0.0
C402 C 0.44179 0.36048 0.76294 0.0
C403 C 0.44453 0.35907 0.72374 0.0
C404 C 0.42898 0.39176 0.78279 0.0
C405 C 0.41772 0.42291 0.76428 0.0
H406 H 0.45065 0.33765 0.77881 0.0
H407 H 0.42774 0.39124 0.81303 0.0
S408 S 0.41671 0.43199 0.66116 0.0
N409 N 0.43325 0.3907 0.66664 0.0
N410 N 0.40858 0.44952 0.70387 0.0
C411 C 0.41928 0.42147 0.72481 0.0
C412 C 0.43287 0.38961 0.70459 0.0
C413 C 0.9241 0.25924 0.946 0.0
C414 C 0.91951 0.26595 0.90763 0.0
C415 C 0.89384 0.25354 0.96702 0.0
C416 C 0.85742 0.25441 0.95087 0.0
H417 H 0.95141 0.25794 0.96019 0.0
H418 H 0.89923 0.24823 0.99639 0.0
S419 S 0.82974 0.27199 0.85181 0.0
N420 N 0.87544 0.27401 0.85429 0.0
N421 N 0.8181 0.2633 0.89432 0.0
C422 C 0.85208 0.26184 0.91274 0.0
C423 C 0.88321 0.26748 0.89099 0.0
C424 C 0.32672 0.00919 0.40518 0.0
C425 C 0.32306 0.0483 0.40649 0.0
C426 C 0.3412 0.98988 0.37468 0.0
C427 C 0.35334 0.00887 0.34427 0.0
H428 H 0.31772 0.99303 0.4277 0.0
H429 H 0.34346 0.95976 0.37545 0.0
S430 S 0.35084 0.11174 0.33445 0.0
N431 N 0.33307 0.10567 0.37495 0.0
N432 N 0.36113 0.06946 0.31764 0.0
C433 C 0.35017 0.04817 0.34527 0.0
C434 C 0.33479 0.06783 0.3763 0.0
C435 C 0.20651 0.05533 0.64833 0.0
C436 C 0.20145 0.01771 0.6576 0.0
C437 C 0.22169 0.06394 0.61492 0.0
C438 C 0.23199 0.03525 0.58913 0.0
H439 H 0.19888 0.07847 0.66713 0.0
H440 H 0.22473 0.09335 0.60901 0.0
S441 S 0.2245 0.93209 0.60001 0.0
N442 N 0.20823 0.95147 0.63837 0.0
N443 N 0.23635 0.9676 0.57528 0.0
C444 C 0.22715 0.99747 0.59802 0.0
C445 C 0.21203 0.98873 0.63231 0.0
C446 C 0.22488 0.98156 0.86875 0.0
C447 C 0.18682 0.97546 0.85775 0.0
C448 C 0.24113 0.96311 0.89799 0.0
C449 C 0.22007 0.93706 0.917 0.0
H450 H 0.24254 0.00016 0.85397 0.0
H451 H 0.27085 0.96803 0.90438 0.0
S452 S 0.11817 0.91403 0.90089 0.0
N453 N 0.12765 0.94442 0.86975 0.0
N454 N 0.15811 0.90876 0.92463 0.0
C455 C 0.18137 0.93249 0.90778 0.0
C456 C 0.16475 0.95187 0.87808 0.0
C457 C 0.34623 0.93563 0.09302 0.0
C458 C 0.31358 0.91118 0.08479 0.0
C459 C 0.36134 0.94571 0.13039 0.0
C460 C 0.34467 0.93148 0.16118 0.0
H461 H 0.36115 0.94601 0.07036 0.0
H462 H 0.3874 0.96316 0.13494 0.0
S463 S 0.25591 0.87115 0.15578 0.0
N464 N 0.26277 0.87656 0.11126 0.0
N465 N 0.29142 0.89524 0.18127 0.0
C466 C 0.31073 0.9091 0.15361 0.0
C467 C 0.29512 0.89907 0.11555 0.0
C468 C 0.35316 0.35836 0.04285 0.0
C469 C 0.31906 0.34312 0.05364 0.0
C470 C 0.38503 0.33849 0.0461 0.0
C471 C 0.38398 0.30303 0.06084 0.0
H472 H 0.35506 0.38538 0.03094 0.0
H473 H 0.4106 0.35098 0.03708 0.0
S474 S 0.30168 0.25133 0.0941 0.0
N475 N 0.28648 0.29086 0.08039 0.0
N476 N 0.34589 0.25365 0.08648 0.0
C477 C 0.35014 0.28787 0.07229 0.0
C478 C 0.31782 0.30788 0.0687 0.0
C479 C 0.93432 0.90709 0.20517 0.0
C480 C 0.93448 0.87253 0.22187 0.0
C481 C 0.91928 0.93871 0.22263 0.0
C482 C 0.90465 0.9372 0.25786 0.0
H483 H 0.94622 0.90997 0.1786 0.0
H484 H 0.91982 0.96469 0.20883 0.0
S485 S 0.89666 0.85294 0.31265 0.0
N486 N 0.91709 0.83848 0.27498 0.0
N487 N 0.88951 0.89754 0.30787 0.0
C488 C 0.90407 0.90258 0.27448 0.0
C489 C 0.91876 0.87037 0.25648 0.0
C490 C 0.16347 0.73021 0.48152 0.0
C491 C 0.18668 0.72289 0.51318 0.0
C492 C 0.12795 0.74196 0.48532 0.0
C493 C 0.11398 0.74707 0.52097 0.0
H494 H 0.17259 0.72655 0.45334 0.0
H495 H 0.11131 0.74693 0.45989 0.0
S496 S 0.1638 0.73246 0.61317 0.0
N497 N 0.19321 0.72211 0.58167 0.0
N498 N 0.12657 0.74428 0.58882 0.0
C499 C 0.13698 0.74015 0.553 0.0
C500 C 0.17321 0.72804 0.54911 0.0
C501 C 0.9866 0.66383 0.63036 0.0
C502 C 0.95869 0.689 0.63256 0.0
C503 C 0.98357 0.62918 0.64636 0.0
C504 C 0.95242 0.61805 0.66509 0.0
H505 H 0.01109 0.67083 0.61612 0.0
H506 H 0.00586 0.61091 0.64378 0.0
S507 S 0.87162 0.67359 0.67945 0.0
N508 N 0.89878 0.70022 0.65561 0.0
N509 N 0.89324 0.63522 0.68543 0.0
C510 C 0.9243 0.64288 0.66765 0.0
C511 C 0.92741 0.67827 0.65151 0.0
C512 C 0.1692 0.2027 0.44992 0.0
C513 C 0.18772 0.18499 0.47884 0.0
C514 C 0.13719 0.22097 0.45612 0.0
C515 C 0.12259 0.22264 0.4916 0.0
H516 H 0.17889 0.20165 0.42192 0.0
H517 H 0.12365 0.23362 0.43271 0.0
S518 S 0.16209 0.18286 0.5776 0.0
N519 N 0.19009 0.17181 0.54493 0.0
N520 N 0.13011 0.20624 0.55658 0.0
C521 C 0.14145 0.20601 0.52113 0.0
C522 C 0.17392 0.18715 0.51475 0.0
C523 C 0.5406 0.37237 0.2327 0.0
C524 C 0.57436 0.3842 0.21881 0.0
C525 C 0.51386 0.34756 0.21068 0.0
C526 C 0.51971 0.33317 0.17377 0.0
H527 H 0.53448 0.38251 0.26093 0.0
H528 H 0.48853 0.33939 0.22298 0.0
S529 S 0.60359 0.35517 0.12378 0.0
N530 N 0.61221 0.37962 0.16556 0.0
N531 N 0.56209 0.33286 0.12415 0.0
C532 C 0.55338 0.34478 0.1594 0.0
C533 C 0.58062 0.37029 0.18183 0.0
C534 C 0.35774 0.78465 0.01047 0.0
C535 C 0.33326 0.78685 0.9783 0.0
C536 C 0.39512 0.7789 0.00676 0.0
C537 C 0.40872 0.77518 0.97085 0.0
H538 H 0.34863 0.78999 0.03851 0.0
H539 H 0.41389 0.77983 0.03213 0.0
S540 S 0.35323 0.7702 0.8782 0.0
N541 N 0.32358 0.77956 0.90974 0.0
N542 N 0.39311 0.76688 0.90284 0.0
C543 C 0.38352 0.77372 0.93866 0.0
C544 C 0.34587 0.78007 0.9424 0.0
C545 C 0.00906 0.4189 0.72059 0.0
C546 C 0.97036 0.41785 0.71467 0.0
C547 C 0.02597 0.38755 0.73288 0.0
C548 C 0.00449 0.35454 0.73976 0.0
H549 H 0.02606 0.44511 0.71928 0.0
H550 H 0.05559 0.39057 0.74042 0.0
S551 S 0.90324 0.33434 0.71722 0.0
N552 N 0.91201 0.37861 0.70768 0.0
N553 N 0.94355 0.32002 0.73212 0.0
C554 C 0.96627 0.35172 0.72938 0.0
C555 C 0.94921 0.38341 0.71646 0.0
C556 C 0.37126 0.18203 0.56253 0.0
C557 C 0.36012 0.19164 0.52596 0.0
C558 C 0.39639 0.20622 0.58755 0.0
C559 C 0.41119 0.24128 0.57727 0.0
H560 H 0.36048 0.15557 0.57206 0.0
H561 H 0.40392 0.19749 0.61533 0.0
S562 S 0.39201 0.27967 0.48448 0.0
N563 N 0.36673 0.2387 0.48063 0.0
N564 N 0.41356 0.28387 0.5274 0.0
C565 C 0.40052 0.25114 0.5407 0.0
C566 C 0.37517 0.22644 0.51516 0.0
C567 C 0.59619 0.626 0.25619 0.0
C568 C 0.56965 0.63565 0.28121 0.0
C569 C 0.60753 0.5893 0.25219 0.0
C570 C 0.59286 0.5608 0.27317 0.0
H571 H 0.61036 0.64755 0.24159 0.0
H572 H 0.62989 0.58414 0.23462 0.0
S573 S 0.51576 0.5687 0.33479 0.0
N574 N 0.52383 0.61169 0.32152 0.0
N575 N 0.5453 0.54271 0.31403 0.0
C576 C 0.56322 0.56885 0.29475 0.0
C577 C 0.55148 0.60625 0.29866 0.0
C578 C 0.09092 0.84109 0.07202 0.0
C579 C 0.07733 0.8114 0.09212 0.0
C580 C 0.12298 0.83862 0.0532 0.0
C581 C 0.14287 0.80625 0.05343 0.0
H582 H 0.07701 0.86687 0.07113 0.0
H583 H 0.13222 0.8625 0.03841 0.0
S584 S 0.11851 0.7198 0.10074 0.0
N585 N 0.08587 0.74796 0.11034 0.0
N586 N 0.14625 0.74337 0.07483 0.0
C587 C 0.12941 0.77601 0.07291 0.0
C588 C 0.09668 0.77857 0.09228 0.0
C589 C 0.74764 0.978 0.64585 0.0
C590 C 0.7272 0.99528 0.61792 0.0
C591 C 0.7395 0.98208 0.68362 0.0
C592 C 0.71085 0.00381 0.6948 0.0
H593 H 0.76754 0.95824 0.63807 0.0
H594 H 0.75382 0.96564 0.70348 0.0
S595 S 0.65756 0.06423 0.63417 0.0
N596 N 0.68322 0.04153 0.60512 0.0
N597 N 0.6682 0.04992 0.67627 0.0
C598 C 0.69411 0.02564 0.66807 0.0
C599 C 0.7022 0.02115 0.62952 0.0
C600 C 0.80486 0.04075 0.40425 0.0
C601 C 0.78204 0.0451 0.37146 0.0
C602 C 0.78987 0.02779 0.43612 0.0
C603 C 0.75151 0.01899 0.43623 0.0
H604 H 0.83468 0.04469 0.40434 0.0
H605 H 0.80871 0.02194 0.45965 0.0
S606 S 0.6796 0.03445 0.3602 0.0
N607 N 0.71928 0.04633 0.34303 0.0
N608 N 0.69058 0.02239 0.40318 0.0
C609 C 0.72811 0.02825 0.40544 0.0
C610 C 0.74357 0.04133 0.37288 0.0
C611 C 0.78328 0.14983 0.13446 0.0
C612 C 0.806 0.13872 0.10609 0.0
C613 C 0.78305 0.13197 0.16806 0.0
C614 C 0.80547 0.10224 0.1746 0.0
H615 H 0.76623 0.17316 0.1312 0.0
H616 H 0.76561 0.14209 0.18933 0.0
S617 S 0.86715 0.05978 0.10756 0.0
N618 N 0.84949 0.0941 0.08562 0.0
N619 N 0.84912 0.06079 0.14863 0.0
C620 C 0.82739 0.09001 0.14591 0.0
C621 C 0.82762 0.10815 0.11173 0.0
C622 C 0.70787 0.09026 0.88745 0.0
C623 C 0.72331 0.05692 0.87465 0.0
C624 C 0.72779 0.11752 0.91375 0.0
C625 C 0.76417 0.11286 0.92825 0.0
H626 H 0.68 0.09538 0.87729 0.0
H627 H 0.71447 0.14261 0.92258 0.0
S628 S 0.81771 0.03076 0.90382 0.0
N629 N 0.77752 0.0209 0.87846 0.0
N630 N 0.81489 0.0721 0.92781 0.0
C631 C 0.78009 0.07971 0.91563 0.0
C632 C 0.75969 0.0518 0.88894 0.0
C633 C 0.63101 0.71412 0.9918 0.0
C634 C 0.63252 0.75258 0.98498 0.0
C635 C 0.66134 0.69286 0.98678 0.0
C636 C 0.69398 0.70915 0.97406 0.0
H637 H 0.6058 0.69995 -6e-05 0.0
H638 H 0.6585 0.66304 0.99114 0.0
S639 S 0.71367 0.8096 0.95605 0.0
N640 N 0.67072 0.80687 0.96808 0.0
N641 N 0.72743 0.76663 0.95803 0.0
C642 C 0.69658 0.74797 0.96894 0.0
C643 C 0.66593 0.7698 0.97464 0.0
C644 C 0.02658 0.11019 0.7926 0.0
C645 C 0.05136 0.0972 0.76701 0.0
C646 C 0.01721 0.1477 0.79443 0.0
C647 C 0.03251 0.17343 0.77087 0.0
H648 H 0.0171 0.09256 0.81381 0.0
H649 H 0.00117 0.15743 0.81713 0.0
S650 S 0.088 0.1502 0.69061 0.0
N651 N 0.08274 0.11038 0.71097 0.0
N652 N 0.06577 0.18115 0.71526 0.0
C653 C 0.05251 0.15931 0.74148 0.0
C654 C 0.06173 0.12102 0.73928 0.0
C655 C 0.90376 0.27685 0.54585 0.0
C656 C 0.92132 0.2507 0.52314 0.0
C657 C 0.86507 0.27617 0.54355 0.0
C658 C 0.84304 0.24986 0.51781 0.0
H659 H 0.92003 0.30002 0.5629 0.0
H660 H 0.8526 0.29875 0.55899 0.0
S661 S 0.8755 0.17321 0.45504 0.0
N662 N 0.91383 0.19529 0.47743 0.0
N663 N 0.84101 0.19515 0.47173 0.0
C664 C 0.8601 0.22173 0.49728 0.0
C665 C 0.89942 0.22181 0.50037 0.0
C666 C 0.58897 0.92861 0.88027 0.0
C667 C 0.60272 0.92339 0.84463 0.0
C668 C 0.57216 0.89804 0.89669 0.0
C669 C 0.56803 0.86146 0.8777 0.0
H670 H 0.5896 0.95677 0.89474 0.0
H671 H 0.56001 0.90354 0.9232 0.0
S672 S 0.60169 0.83214 0.78529 0.0
N673 N 0.6138 0.87816 0.79228 0.0
N674 N 0.58082 0.82097 0.82282 0.0
C675 C 0.58341 0.85536 0.84315 0.0
C676 C 0.60127 0.88633 0.82671 0.0
C677 C 0.96083 0.16319 0.39055 0.0
C678 C 0.94408 0.19643 0.38298 0.0
C679 C 0.94701 0.12779 0.3722 0.0
C680 C 0.91628 0.12418 0.34502 0.0
H681 H 0.98335 0.16403 0.41257 0.0
H682 H 0.95947 0.10282 0.3807 0.0
S683 S 0.86571 0.20322 0.31101 0.0
N684 N 0.89747 0.22397 0.34365 0.0
N685 N 0.87185 0.15761 0.30872 0.0
C686 C 0.90115 0.15757 0.33498 0.0
C687 C 0.9149 0.1936 0.35411 0.0
C688 C 0.52238 0.11604 0.77171 0.0
C689 C 0.55615 0.105 0.75969 0.0
C690 C 0.50675 0.14792 0.75884 0.0
C691 C 0.52387 0.16954 0.7328 0.0
H692 H 0.50804 0.10018 0.79157 0.0
H693 H 0.48094 0.15555 0.7693 0.0
S694 S 0.61221 0.15185 0.69159 0.0
N695 N 0.60604 0.11791 0.71983 0.0
N696 N 0.57641 0.17732 0.69513 0.0
C697 C 0.55742 0.15846 0.7201 0.0
C698 C 0.57365 0.12639 0.73372 0.0
C699 C 0.16122 0.36285 0.90889 0.0
C700 C 0.15533 0.39175 0.93685 0.0
C701 C 0.13201 0.34547 0.88367 0.0
C702 C 0.09586 0.35648 0.88537 0.0
H703 H 0.18802 0.35169 0.908 0.0
H704 H 0.13741 0.32152 0.86461 0.0
S705 S 0.06747 0.43668 0.94705 0.0
N706 N 0.11175 0.4347 0.96031 0.0
N707 N 0.05712 0.40263 0.91242 0.0
C708 C 0.09046 0.38814 0.9102 0.0
C709 C 0.12014 0.40562 0.93612 0.0
C710 C 0.41691 0.71432 0.41018 0.0
C711 C 0.45039 0.70005 0.42268 0.0
C712 C 0.38517 0.70964 0.43 0.0
C713 C 0.38572 0.69018 0.46276 0.0
H714 H 0.41542 0.73009 0.38549 0.0
H715 H 0.36018 0.72156 0.41973 0.0
S716 S 0.46625 0.64645 0.50665 0.0
N717 N 0.48164 0.66458 0.46924 0.0
N718 N 0.42277 0.65646 0.50667 0.0
C719 C 0.41889 0.67521 0.47508 0.0
C720 C 0.451 0.67995 0.45499 0.0
C721 C 0.84366 0.51636 0.85354 0.0
C722 C 0.84573 0.53426 0.81991 0.0
C723 C 0.8311 0.53443 0.88588 0.0
C724 C 0.81934 0.57116 0.8862 0.0
H725 H 0.85239 0.4881 0.85531 0.0
H726 H 0.83002 0.51893 0.91069 0.0
S727 S 0.81903 0.63078 0.80546 0.0
N728 N 0.83542 0.59122 0.78897 0.0
N729 N 0.81056 0.62495 0.84955 0.0
C730 C 0.82111 0.58955 0.85275 0.0
C731 C 0.83462 0.57123 0.81975 0.0
C732 C 0.73554 0.55944 0.1423 0.0
C733 C 0.71304 0.526 0.14566 0.0
C734 C 0.74338 0.57074 0.10686 0.0
C735 C 0.72904 0.54916 0.0731 0.0
H736 H 0.74728 0.57728 0.16728 0.0
H737 H 0.76075 0.5968 0.10605 0.0
S738 S 0.66886 0.45879 0.06605 0.0
N739 N 0.6767 0.47111 0.11193 0.0
N740 N 0.69135 0.49227 0.04537 0.0
C741 C 0.70659 0.51549 0.07596 0.0
C742 C 0.69862 0.50394 0.11216 0.0
C743 C 0.71178 0.38528 0.38912 0.0
C744 C 0.74342 0.36547 0.38546 0.0
C745 C 0.69794 0.40584 0.35996 0.0
C746 C 0.71476 0.40676 0.32571 0.0
H747 H 0.69822 0.38583 0.41512 0.0
H748 H 0.67419 0.42152 0.36464 0.0
S749 S 0.79667 0.35678 0.30094 0.0
N750 N 0.79009 0.3463 0.34426 0.0
N751 N 0.76388 0.38426 0.28937 0.0
C752 C 0.74569 0.38588 0.32127 0.0
C753 C 0.76007 0.36545 0.35114 0.0
C754 C 0.80741 0.40903 0.63238 0.0
C755 C 0.83646 0.43808 0.63544 0.0
C756 C 0.79617 0.38758 0.59781 0.0
C757 C 0.81391 0.39385 0.56491 0.0
H758 H 0.79448 0.40143 0.65734 0.0
H759 H 0.77496 0.36436 0.59754 0.0
S760 S 0.88795 0.46988 0.55629 0.0
N761 N 0.87989 0.47473 0.60133 0.0
N762 N 0.85908 0.43409 0.53662 0.0
C763 C 0.84115 0.42455 0.56691 0.0
C764 C 0.85226 0.44679 0.60204 0.0
C765 C 0.48323 0.08876 0.15889 0.0
C766 C 0.47041 0.0837 0.1945 0.0
C767 C 0.48295 0.12393 0.14385 0.0
C768 C 0.46984 0.15524 0.16393 0.0
H769 H 0.49209 0.06505 0.14175 0.0
H770 H 0.4913 0.126 0.11554 0.0
S771 S 0.4394 0.15848 0.26115 0.0
N772 N 0.44863 0.11419 0.25141 0.0
N773 N 0.44823 0.18011 0.22331 0.0
C774 C 0.4594 0.15117 0.20067 0.0
C775 C 0.45962 0.11545 0.2159 0.0
C776 C 0.01349 0.87607 0.70187 0.0
C777 C 0.02901 0.8638 0.66848 0.0
C778 C 0.03294 0.9027 0.7291 0.0
C779 C 0.0687 0.9186 0.72404 0.0
H780 H 0.98574 0.86547 0.70691 0.0
H781 H 0.01923 0.91166 0.75381 0.0
S782 S 0.123 0.8944 0.64266 0.0
N783 N 0.08325 0.86826 0.63275 0.0
N784 N 0.11974 0.91848 0.68384 0.0
C785 C 0.08511 0.90575 0.69132 0.0
C786 C 0.06534 0.87831 0.66364 0.0
C787 C 0.47744 0.82064 0.27668 0.0
C788 C 0.51299 0.81541 0.26531 0.0
C789 C 0.4594 0.85246 0.26815 0.0
C790 C 0.47592 0.88026 0.24761 0.0
H791 H 0.46439 0.80149 0.29468 0.0
H792 H 0.43337 0.8563 0.27998 0.0
S793 S 0.56441 0.87532 0.2031 0.0
N794 N 0.56102 0.83722 0.22638 0.0
N795 N 0.52679 0.89707 0.21019 0.0
C796 C 0.50936 0.87317 0.23216 0.0
C797 C 0.52795 0.8407 0.241 0.0
C798 C 0.87231 0.69669 0.05305 0.0
C799 C 0.86027 0.70852 0.0177 0.0
C800 C 0.89541 0.7209 0.08002 0.0
C801 C 0.90715 0.7582 0.07302 0.0
H802 H 0.86381 0.66845 0.06008 0.0
H803 H 0.90389 0.71028 0.10668 0.0
S804 S 0.88339 0.80338 0.9849 0.0
N805 N 0.86205 0.76039 0.97728 0.0
N806 N 0.90501 0.8056 0.02767 0.0
C807 C 0.89532 0.77038 0.03774 0.0
C808 C 0.87209 0.74568 0.01021 0.0
C809 C 0.60058 0.26227 0.58994 0.0
C810 C 0.58121 0.2947 0.58618 0.0
C811 C 0.63183 0.25636 0.57047 0.0
C812 C 0.64522 0.28267 0.54647 0.0
H813 H 0.59184 0.24126 0.6084 0.0
H814 H 0.6459 0.23117 0.57486 0.0
S815 S 0.60382 0.37146 0.52514 0.0
N816 N 0.57714 0.35294 0.55533 0.0
N817 N 0.63589 0.34179 0.51881 0.0
C818 C 0.62576 0.31487 0.54174 0.0
C819 C 0.59379 0.32087 0.56152 0.0
C820 C 0.2104 0.45764 0.15924 0.0
C821 C 0.20081 0.48398 0.13363 0.0
C822 C 0.197 0.45883 0.19504 0.0
C823 C 0.1737 0.48657 0.20674 0.0
H824 H 0.22593 0.43409 0.15062 0.0
H825 H 0.20329 0.43647 0.21271 0.0
S826 S 0.14788 0.5674 0.15348 0.0
N827 N 0.17205 0.54237 0.12476 0.0
N828 N 0.14712 0.54502 0.19214 0.0
C829 C 0.16732 0.51552 0.18294 0.0
C830 C 0.18083 0.51414 0.14639 0.0
C831 C 0.32522 0.50955 0.92646 0.0
C832 C 0.3112 0.53296 0.89987 0.0
C833 C 0.3062 0.50169 0.95777 0.0
C834 C 0.27214 0.51657 0.96344 0.0
H835 H 0.3495 0.49473 0.92171 0.0
H836 H 0.31673 0.48108 0.97562 0.0
S837 S 0.22961 0.58852 0.90835 0.0
N838 N 0.26594 0.57784 0.88596 0.0
N839 N 0.22983 0.56281 0.94478 0.0
C840 C 0.26068 0.5443 0.94014 0.0
C841 C 0.28028 0.55249 0.90826 0.0
C842 C 0.30789 0.54431 0.60876 0.0
C843 C 0.30443 0.58352 0.60982 0.0
C844 C 0.31059 0.52606 0.64204 0.0
C845 C 0.31082 0.54658 0.6776 0.0
H846 H 0.30977 0.52781 0.58204 0.0
H847 H 0.31436 0.49606 0.63996 0.0
S848 S 0.29932 0.64916 0.69563 0.0
N849 N 0.29857 0.64174 0.64914 0.0
N850 N 0.30441 0.60761 0.71187 0.0
C851 C 0.30567 0.58547 0.67899 0.0
C852 C 0.30219 0.6039 0.64502 0.0
C853 C 0.22495 0.52183 0.39293 0.0
C854 C 0.19094 0.53621 0.38283 0.0
C855 C 0.25226 0.54295 0.41773 0.0
C856 C 0.24678 0.57941 0.43388 0.0
H857 H 0.23088 0.49398 0.38133 0.0
H858 H 0.27781 0.53031 0.42441 0.0
S859 S 0.16225 0.63012 0.41725 0.0
N860 N 0.15307 0.58924 0.39118 0.0
N861 N 0.20434 0.62898 0.43806 0.0
C862 C 0.21279 0.5942 0.42419 0.0
C863 C 0.18495 0.57267 0.39863 0.0
loop_
_geom_bond_atom_site_label_1
_geom_bond_atom_site_label_2
_geom_bond_distance
_geom_bond_site_symmetry_2
_ccdc_geom_bond_type
Mg0 O1 2.028 . S
Mg0 O7 1.986 . S
Mg0 O9 2.114 1_455 S
Mg0 O10 2.251 1_455 S
Mg0 O13 2.010 . S
O1 Mg0 2.028 . S
O1 C4 1.250 1_455 S
O2 Mg3 2.028 . S
O2 C4 1.248 . S
Mg3 O2 2.028 . S
Mg3 O8 2.032 . S
Mg3 O10 2.079 . S
C4 O1 1.250 1_655 S
C4 O2 1.248 . S
C5 O6 1.264 . S
C5 O13 1.249 . S
O6 C5 1.264 . S
O7 Mg0 1.986 . S
O7 C11 1.246 . S
O8 Mg3 2.032 . S
O8 C11 1.259 1_655 S
O9 Mg0 2.114 1_655 S
O9 C12 1.252 . S
O10 Mg0 2.251 1_655 S
O10 Mg3 2.079 . S
O10 C12 1.273 . S
C11 O7 1.246 . S
C11 O8 1.259 1_455 S
C12 O9 1.252 . S
C12 O10 1.273 . S
O13 Mg0 2.010 . S
O13 C5 1.249 . S
Mg14 O15 2.028 . S
Mg14 O21 1.987 . S
Mg14 O23 2.114 1_455 S
Mg14 O24 2.251 1_455 S
Mg14 O27 2.010 . S
O15 Mg14 2.028 . S
O15 C18 1.250 . S
O16 Mg17 2.028 1_455 S
O16 C18 1.248 . S
Mg17 O16 2.028 1_655 S
Mg17 O22 2.032 . S
Mg17 O24 2.079 . S
C18 O15 1.250 . S
C18 O16 1.248 . S
C19 O20 1.264 . S
C19 O27 1.249 . S
O20 C19 1.264 . S
O21 Mg14 1.987 . S
O21 C25 1.238 1_455 S
O22 Mg17 2.032 . S
O22 C25 1.259 . S
O23 Mg14 2.114 1_655 S
O23 C26 1.252 . S
O24 Mg14 2.251 1_655 S
O24 Mg17 2.079 . S
O24 C26 1.273 . S
C25 O21 1.238 1_655 S
C25 O22 1.259 . S
C26 O23 1.252 . S
C26 O24 1.273 . S
O27 Mg14 2.010 . S
O27 C19 1.249 . S
Mg28 O29 2.028 . S
Mg28 O35 1.986 . S
Mg28 O37 2.114 . S
Mg28 O38 2.251 . S
Mg28 O41 2.010 . S
O29 Mg28 2.028 . S
O29 C32 1.250 . S
O30 Mg31 2.028 . S
O30 C32 1.248 . S
Mg31 O30 2.028 . S
Mg31 O36 2.032 . S
Mg31 O38 2.079 . S
C32 O29 1.250 . S
C32 O30 1.248 . S
C33 O34 1.264 . S
C33 O41 1.249 . S
O34 C33 1.264 . S
O35 Mg28 1.986 . S
O35 C39 1.246 . S
O36 Mg31 2.032 . S
O36 C39 1.259 . S
O37 Mg28 2.114 . S
O37 C40 1.252 . S
O38 Mg28 2.251 . S
O38 Mg31 2.079 . S
O38 C40 1.273 . S
C39 O35 1.246 . S
C39 O36 1.259 . S
C40 O37 1.252 . S
C40 O38 1.273 . S
O41 Mg28 2.010 . S
O41 C33 1.249 . S
Mg42 O43 2.028 . S
Mg42 O49 1.986 . S
Mg42 O51 2.114 . S
Mg42 O52 2.251 . S
Mg42 O55 2.010 . S
O43 Mg42 2.028 . S
O43 C46 1.250 . S
O44 Mg45 2.028 . S
O44 C46 1.248 . S
Mg45 O44 2.028 . S
Mg45 O50 2.032 . S
Mg45 O52 2.079 . S
C46 O43 1.250 . S
C46 O44 1.248 . S
C47 O48 1.264 . S
C47 O55 1.249 . S
O48 C47 1.264 . S
O49 Mg42 1.986 . S
O49 C53 1.246 . S
O50 Mg45 2.032 . S
O50 C53 1.259 . S
O51 Mg42 2.114 . S
O51 C54 1.252 . S
O52 Mg42 2.251 . S
O52 Mg45 2.079 . S
O52 C54 1.273 . S
C53 O49 1.246 . S
C53 O50 1.259 . S
C54 O51 1.252 . S
C54 O52 1.273 . S
O55 Mg42 2.010 . S
O55 C47 1.249 . S
Mg56 O57 2.028 1_455 S
Mg56 O63 1.986 . S
Mg56 O65 2.114 1_455 S
Mg56 O66 2.251 1_455 S
Mg56 O69 2.010 . S
O57 Mg56 2.028 1_655 S
O57 C60 1.250 . S
O58 Mg59 2.028 . S
O58 C60 1.248 . S
Mg59 O58 2.028 . S
Mg59 O64 2.032 1_655 S
Mg59 O66 2.079 . S
C60 O57 1.250 . S
C60 O58 1.248 . S
C61 O62 1.264 . S
C61 O69 1.249 . S
O62 C61 1.264 . S
O63 Mg56 1.986 . S
O63 C67 1.246 . S
O64 Mg59 2.032 1_455 S
O64 C67 1.259 . S
O65 Mg56 2.114 1_655 S
O65 C68 1.252 . S
O66 Mg56 2.251 1_655 S
O66 Mg59 2.079 . S
O66 C68 1.273 . S
C67 O63 1.246 . S
C67 O64 1.259 . S
C68 O65 1.252 . S
C68 O66 1.273 . S
O69 Mg56 2.010 . S
O69 C61 1.249 . S
Mg70 O71 2.028 . S
Mg70 O77 1.986 . S
Mg70 O79 2.114 . S
Mg70 O80 2.251 . S
Mg70 O83 2.010 . S
O71 Mg70 2.028 . S
O71 C74 1.250 . S
O72 Mg73 2.028 . S
O72 C74 1.248 . S
Mg73 O72 2.028 . S
Mg73 O78 2.032 . S
Mg73 O80 2.079 . S
C74 O71 1.250 . S
C74 O72 1.248 . S
C75 O76 1.264 . S
C75 O83 1.249 . S
O76 C75 1.264 . S
O77 Mg70 1.986 . S
O77 C81 1.246 . S
O78 Mg73 2.032 . S
O78 C81 1.259 . S
O79 Mg70 2.114 . S
O79 C82 1.252 . S
O80 Mg70 2.251 . S
O80 Mg73 2.079 . S
O80 C82 1.273 . S
C81 O77 1.246 . S
C81 O78 1.259 . S
C82 O79 1.252 . S
C82 O80 1.273 . S
O83 Mg70 2.010 . S
O83 C75 1.249 . S
Mg84 O85 2.028 . S
Mg84 O91 1.986 . S
Mg84 O93 2.114 . S
Mg84 O94 2.251 . S
Mg84 O97 2.010 . S
O85 Mg84 2.028 . S
O85 C88 1.250 . S
O86 Mg87 2.028 . S
O86 C88 1.248 . S
Mg87 O86 2.028 . S
Mg87 O92 2.032 . S
Mg87 O94 2.079 . S
C88 O85 1.250 . S
C88 O86 1.248 . S
C89 O90 1.264 . S
C89 O97 1.249 . S
O90 C89 1.264 . S
O91 Mg84 1.986 . S
O91 C95 1.246 . S
O92 Mg87 2.032 . S
O92 C95 1.259 . S
O93 Mg84 2.114 . S
O93 C96 1.252 . S
O94 Mg84 2.251 . S
O94 Mg87 2.079 . S
O94 C96 1.273 . S
C95 O91 1.246 . S
C95 O92 1.259 . S
C96 O93 1.252 . S
C96 O94 1.273 . S
O97 Mg84 2.010 . S
O97 C89 1.249 . S
Mg98 O99 2.028 1_455 S
Mg98 O105 1.986 . S
Mg98 O107 2.114 . S
Mg98 O108 2.251 . S
Mg98 O111 2.010 1_455 S
O99 Mg98 2.028 1_655 S
O99 C102 1.250 . S
O100 Mg101 2.028 . S
O100 C102 1.248 1_455 S
Mg101 O100 2.028 . S
Mg101 O106 2.032 . S
Mg101 O108 2.079 . S
C102 O99 1.250 . S
C102 O100 1.248 1_655 S
C103 O104 1.264 . S
C103 O111 1.249 . S
O104 C103 1.264 . S
O105 Mg98 1.986 . S
O105 C109 1.246 . S
O106 Mg101 2.032 . S
O106 C109 1.259 . S
O107 Mg98 2.114 . S
O107 C110 1.252 . S
O108 Mg98 2.251 . S
O108 Mg101 2.079 . S
O108 C110 1.273 . S
C109 O105 1.246 . S
C109 O106 1.259 . S
C110 O107 1.252 . S
C110 O108 1.273 . S
O111 Mg98 2.010 1_655 S
O111 C103 1.249 . S
Mg112 O113 2.028 1_545 S
Mg112 O119 1.986 . S
Mg112 O121 2.114 1_545 S
Mg112 O122 2.251 1_545 S
Mg112 O125 2.010 . S
O113 Mg112 2.028 1_565 S
O113 C116 1.250 . S
O114 Mg115 2.028 . S
O114 C116 1.248 . S
Mg115 O114 2.028 . S
Mg115 O120 2.032 . S
Mg115 O122 2.079 . S
C116 O113 1.250 . S
C116 O114 1.248 . S
C117 O118 1.264 . S
C117 O125 1.249 . S
O118 C117 1.264 . S
O119 Mg112 1.986 . S
O119 C123 1.246 . S
O120 Mg115 2.032 . S
O120 C123 1.259 1_565 S
O121 Mg112 2.114 1_565 S
O121 C124 1.252 . S
O122 Mg112 2.251 1_565 S
O122 Mg115 2.079 . S
O122 C124 1.273 . S
C123 O119 1.246 . S
C123 O120 1.259 1_545 S
C124 O121 1.252 . S
C124 O122 1.273 . S
O125 Mg112 2.010 . S
O125 C117 1.249 . S
Mg126 O127 2.028 . S
Mg126 O133 1.986 . S
Mg126 O135 2.114 . S
Mg126 O136 2.251 . S
Mg126 O139 2.010 . S
O127 Mg126 2.028 . S
O127 C130 1.250 . S
O128 Mg129 2.028 . S
O128 C130 1.248 . S
Mg129 O128 2.028 . S
Mg129 O134 2.032 . S
Mg129 O136 2.079 . S
C130 O127 1.250 . S
C130 O128 1.248 . S
C131 O132 1.264 . S
C131 O139 1.249 . S
O132 C131 1.264 . S
O133 Mg126 1.986 . S
O133 C137 1.246 . S
O134 Mg129 2.032 . S
O134 C137 1.259 . S
O135 Mg126 2.114 . S
O135 C138 1.252 . S
O136 Mg126 2.251 . S
O136 Mg129 2.079 . S
O136 C138 1.273 . S
C137 O133 1.246 . S
C137 O134 1.259 . S
C138 O135 1.252 . S
C138 O136 1.273 . S
O139 Mg126 2.010 . S
O139 C131 1.249 . S
Mg140 O141 2.028 1_545 S
Mg140 O147 1.986 . S
Mg140 O149 2.114 1_545 S
Mg140 O150 2.251 1_545 S
Mg140 O153 2.010 . S
O141 Mg140 2.028 1_565 S
O141 C144 1.250 . S
O142 Mg143 2.028 . S
O142 C144 1.248 . S
Mg143 O142 2.028 . S
Mg143 O148 2.032 1_565 S
Mg143 O150 2.079 . S
C144 O141 1.250 . S
C144 O142 1.248 . S
C145 O146 1.264 . S
C145 O153 1.249 . S
O146 C145 1.264 . S
O147 Mg140 1.986 . S
O147 C151 1.246 . S
O148 Mg143 2.032 1_545 S
O148 C151 1.259 . S
O149 Mg140 2.114 1_565 S
O149 C152 1.252 . S
O150 Mg140 2.251 1_565 S
O150 Mg143 2.079 . S
O150 C152 1.273 . S
C151 O147 1.246 . S
C151 O148 1.259 . S
C152 O149 1.252 . S
C152 O150 1.273 . S
O153 Mg140 2.010 . S
O153 C145 1.249 . S
Mg154 O155 2.028 1_556 S
Mg154 O161 1.986 . S
Mg154 O163 2.114 1_556 S
Mg154 O164 2.251 . S
Mg154 O167 2.010 1_556 S
O155 Mg154 2.028 1_554 S
O155 C158 1.250 . S
O156 Mg157 2.028 1_554 S
O156 C158 1.248 . S
Mg157 O156 2.028 1_556 S
Mg157 O162 2.032 . S
Mg157 O164 2.079 . S
C158 O155 1.250 . S
C158 O156 1.248 . S
C159 O160 1.264 . S
C159 O167 1.249 . S
O160 C159 1.264 . S
O161 Mg154 1.986 . S
O161 C165 1.246 . S
O162 Mg157 2.032 . S
O162 C165 1.259 . S
O163 Mg154 2.114 1_554 S
O163 C166 1.252 1_554 S
O164 Mg154 2.251 . S
O164 Mg157 2.079 . S
O164 C166 1.273 . S
C165 O161 1.246 . S
C165 O162 1.259 . S
C166 O163 1.252 1_556 S
C166 O164 1.273 . S
O167 Mg154 2.010 1_554 S
O167 C159 1.249 . S
Mg168 O169 2.028 1_554 S
Mg168 O175 1.986 . S
Mg168 O177 2.114 1_554 S
Mg168 O178 2.251 1_554 S
Mg168 O181 2.010 . S
O169 Mg168 2.028 1_556 S
O169 C172 1.250 . S
O170 Mg171 2.028 . S
O170 C172 1.248 . S
Mg171 O170 2.028 . S
Mg171 O176 2.032 1_556 S
Mg171 O178 2.079 . S
C172 O169 1.250 . S
C172 O170 1.248 . S
C173 O174 1.264 . S
C173 O181 1.249 . S
O174 C173 1.264 . S
O175 Mg168 1.986 . S
O175 C179 1.246 . S
O176 Mg171 2.032 1_554 S
O176 C179 1.259 . S
O177 Mg168 2.114 1_556 S
O177 C180 1.252 . S
O178 Mg168 2.251 1_556 S
O178 Mg171 2.079 . S
O178 C180 1.273 . S
C179 O175 1.246 . S
C179 O176 1.259 . S
C180 O177 1.252 . S
C180 O178 1.273 . S
O181 Mg168 2.010 . S
O181 C173 1.249 . S
Mg182 O183 2.028 1_554 S
Mg182 O189 1.986 . S
Mg182 O191 2.114 1_554 S
Mg182 O192 2.251 1_554 S
Mg182 O195 2.010 . S
O183 Mg182 2.028 1_556 S
O183 C186 1.250 . S
O184 Mg185 2.028 . S
O184 C186 1.248 . S
Mg185 O184 2.028 . S
Mg185 O190 2.032 1_556 S
Mg185 O192 2.079 . S
C186 O183 1.250 . S
C186 O184 1.248 . S
C187 O188 1.264 . S
C187 O195 1.249 . S
O188 C187 1.264 . S
O189 Mg182 1.986 . S
O189 C193 1.246 . S
O190 Mg185 2.032 1_554 S
O190 C193 1.259 . S
O191 Mg182 2.114 1_556 S
O191 C194 1.252 . S
O192 Mg182 2.251 1_556 S
O192 Mg185 2.079 . S
O192 C194 1.273 . S
C193 O189 1.246 . S
C193 O190 1.259 . S
C194 O191 1.252 . S
C194 O192 1.273 . S
O195 Mg182 2.010 . S
O195 C187 1.249 . S
Mg196 O197 2.028 . S
Mg196 O203 1.986 . S
Mg196 O205 2.114 . S
Mg196 O206 2.251 . S
Mg196 O209 2.010 . S
O197 Mg196 2.028 . S
O197 C200 1.250 . S
O198 Mg199 2.028 . S
O198 C200 1.248 . S
Mg199 O198 2.028 . S
Mg199 O204 2.032 . S
Mg199 O206 2.079 . S
C200 O197 1.250 . S
C200 O198 1.248 . S
C201 O202 1.264 . S
C201 O209 1.249 . S
O202 C201 1.264 . S
O203 Mg196 1.986 . S
O203 C207 1.246 . S
O204 Mg199 2.032 . S
O204 C207 1.259 . S
O205 Mg196 2.114 . S
O205 C208 1.252 . S
O206 Mg196 2.251 . S
O206 Mg199 2.079 . S
O206 C208 1.273 . S
C207 O203 1.246 . S
C207 O204 1.259 . S
C208 O205 1.252 . S
C208 O206 1.273 . S
O209 Mg196 2.010 . S
O209 C201 1.249 . S
Mg210 O211 2.028 . S
Mg210 O217 1.986 . S
Mg210 O219 2.114 . S
Mg210 O220 2.251 . S
Mg210 O223 2.010 . S
O211 Mg210 2.028 . S
O211 C214 1.250 . S
O212 Mg213 2.028 . S
O212 C214 1.248 . S
Mg213 O212 2.028 . S
Mg213 O218 2.032 . S
Mg213 O220 2.079 . S
C214 O211 1.250 . S
C214 O212 1.248 . S
C215 O216 1.264 . S
C215 O223 1.249 . S
O216 C215 1.264 . S
O217 Mg210 1.986 . S
O217 C221 1.246 . S
O218 Mg213 2.032 . S
O218 C221 1.259 . S
O219 Mg210 2.114 . S
O219 C222 1.252 . S
O220 Mg210 2.251 . S
O220 Mg213 2.079 . S
O220 C222 1.273 . S
C221 O217 1.246 . S
C221 O218 1.259 . S
C222 O219 1.252 . S
C222 O220 1.273 . S
O223 Mg210 2.010 . S
O223 C215 1.249 . S
Mg224 O225 2.028 . S
Mg224 O231 1.986 1_545 S
Mg224 O233 2.114 . S
Mg224 O234 2.251 1_545 S
Mg224 O237 2.010 . S
O225 Mg224 2.028 . S
O225 C228 1.250 . S
O226 Mg227 2.028 1_545 S
O226 C228 1.248 . S
Mg227 O226 2.028 1_565 S
Mg227 O232 2.032 . S
Mg227 O234 2.079 . S
C228 O225 1.250 . S
C228 O226 1.248 . S
C229 O230 1.264 . S
C229 O237 1.249 . S
O230 C229 1.264 . S
O231 Mg224 1.986 1_565 S
O231 C235 1.246 . S
O232 Mg227 2.032 . S
O232 C235 1.259 . S
O233 Mg224 2.114 . S
O233 C236 1.252 1_545 S
O234 Mg224 2.251 1_565 S
O234 Mg227 2.079 . S
O234 C236 1.273 . S
C235 O231 1.246 . S
C235 O232 1.259 . S
C236 O233 1.252 1_565 S
C236 O234 1.273 . S
O237 Mg224 2.010 . S
O237 C229 1.249 . S
Mg238 O239 2.028 . S
Mg238 O245 1.986 . S
Mg238 O247 2.114 . S
Mg238 O248 2.251 . S
Mg238 O251 2.010 . S
O239 Mg238 2.028 . S
O239 C242 1.250 . S
O240 Mg241 2.028 . S
O240 C242 1.248 . S
Mg241 O240 2.028 . S
Mg241 O246 2.032 . S
Mg241 O248 2.079 . S
C242 O239 1.250 . S
C242 O240 1.248 . S
C243 O244 1.264 . S
C243 O251 1.249 . S
O244 C243 1.264 . S
O245 Mg238 1.986 . S
O245 C249 1.246 . S
O246 Mg241 2.032 . S
O246 C249 1.259 . S
O247 Mg238 2.114 . S
O247 C250 1.252 . S
O248 Mg238 2.251 . S
O248 Mg241 2.079 . S
O248 C250 1.273 . S
C249 O245 1.246 . S
C249 O246 1.259 . S
C250 O247 1.252 . S
C250 O248 1.273 . S
O251 Mg238 2.010 . S
O251 C243 1.249 . S
Mg252 O253 2.028 . S
Mg252 O259 1.986 . S
Mg252 O261 2.114 . S
Mg252 O262 2.251 . S
Mg252 O265 2.010 . S
O253 Mg252 2.028 . S
O253 C256 1.250 . S
O254 Mg255 2.028 . S
O254 C256 1.248 . S
Mg255 O254 2.028 . S
Mg255 O260 2.032 . S
Mg255 O262 2.079 . S
C256 O253 1.250 . S
C256 O254 1.248 . S
C257 O258 1.264 . S
C257 O265 1.249 . S
O258 C257 1.264 . S
O259 Mg252 1.986 . S
O259 C263 1.246 . S
O260 Mg255 2.032 . S
O260 C263 1.259 . S
O261 Mg252 2.114 . S
O261 C264 1.252 . S
O262 Mg252 2.251 . S
O262 Mg255 2.079 . S
O262 C264 1.273 . S
C263 O259 1.246 . S
C263 O260 1.259 . S
C264 O261 1.252 . S
C264 O262 1.273 . S
O265 Mg252 2.010 . S
O265 C257 1.249 . S
Mg266 O267 2.028 . S
Mg266 O273 1.986 . S
Mg266 O275 2.114 1_545 S
Mg266 O276 2.251 1_545 S
Mg266 O279 2.010 . S
O267 Mg266 2.028 . S
O267 C270 1.250 . S
O268 Mg269 2.028 1_545 S
O268 C270 1.248 . S
Mg269 O268 2.028 1_565 S
Mg269 O274 2.032 . S
Mg269 O276 2.079 . S
C270 O267 1.250 . S
C270 O268 1.248 . S
C271 O272 1.264 . S
C271 O279 1.249 . S
O272 C271 1.264 . S
O273 Mg266 1.986 . S
O273 C277 1.246 1_545 S
O274 Mg269 2.032 . S
O274 C277 1.259 . S
O275 Mg266 2.114 1_565 S
O275 C278 1.252 . S
O276 Mg266 2.251 1_565 S
O276 Mg269 2.079 . S
O276 C278 1.273 . S
C277 O273 1.246 1_565 S
C277 O274 1.259 . S
C278 O275 1.252 . S
C278 O276 1.273 . S
O279 Mg266 2.010 . S
O279 C271 1.249 . S
Mg280 O281 2.028 1_556 S
Mg280 O287 1.986 . S
Mg280 O289 2.114 . S
Mg280 O290 2.251 . S
Mg280 O293 2.010 1_556 S
O281 Mg280 2.028 1_554 S
O281 C284 1.250 . S
O282 Mg283 2.028 . S
O282 C284 1.248 1_556 S
Mg283 O282 2.028 . S
Mg283 O288 2.032 . S
Mg283 O290 2.079 . S
C284 O281 1.250 . S
C284 O282 1.248 1_554 S
C285 O286 1.264 . S
C285 O293 1.249 . S
O286 C285 1.264 . S
O287 Mg280 1.986 . S
O287 C291 1.246 . S
O288 Mg283 2.032 . S
O288 C291 1.259 . S
O289 Mg280 2.114 . S
O289 C292 1.252 . S
O290 Mg280 2.251 . S
O290 Mg283 2.079 . S
O290 C292 1.273 . S
C291 O287 1.246 . S
C291 O288 1.259 . S
C292 O289 1.252 . S
C292 O290 1.273 . S
O293 Mg280 2.010 1_554 S
O293 C285 1.249 . S
Mg294 O295 2.028 . S
Mg294 O301 1.986 . S
Mg294 O303 2.114 . S
Mg294 O304 2.251 . S
Mg294 O307 2.010 . S
O295 Mg294 2.028 . S
O295 C298 1.250 . S
O296 Mg297 2.028 . S
O296 C298 1.248 . S
Mg297 O296 2.028 . S
Mg297 O302 2.032 . S
Mg297 O304 2.079 . S
C298 O295 1.250 . S
C298 O296 1.248 . S
C299 O300 1.264 . S
C299 O307 1.249 . S
O300 C299 1.264 . S
O301 Mg294 1.986 . S
O301 C305 1.246 . S
O302 Mg297 2.032 . S
O302 C305 1.259 . S
O303 Mg294 2.114 . S
O303 C306 1.252 . S
O304 Mg294 2.251 . S
O304 Mg297 2.079 . S
O304 C306 1.273 . S
C305 O301 1.246 . S
C305 O302 1.259 . S
C306 O303 1.252 . S
C306 O304 1.273 . S
O307 Mg294 2.010 . S
O307 C299 1.249 . S
Mg308 O309 2.028 . S
Mg308 O315 1.986 . S
Mg308 O317 2.114 . S
Mg308 O318 2.251 . S
Mg308 O321 2.010 . S
O309 Mg308 2.028 . S
O309 C312 1.250 . S
O310 Mg311 2.028 . S
O310 C312 1.248 . S
Mg311 O310 2.028 . S
Mg311 O316 2.032 . S
Mg311 O318 2.079 . S
C312 O309 1.250 . S
C312 O310 1.248 . S
C313 O314 1.264 . S
C313 O321 1.249 . S
O314 C313 1.264 . S
O315 Mg308 1.986 . S
O315 C319 1.246 . S
O316 Mg311 2.032 . S
O316 C319 1.259 . S
O317 Mg308 2.114 . S
O317 C320 1.252 . S
O318 Mg308 2.251 . S
O318 Mg311 2.079 . S
O318 C320 1.273 . S
C319 O315 1.246 . S
C319 O316 1.259 . S
C320 O317 1.252 . S
C320 O318 1.273 . S
O321 Mg308 2.010 . S
O321 C313 1.249 . S
Mg322 O323 2.028 . S
Mg322 O329 1.986 . S
Mg322 O331 2.114 . S
Mg322 O332 2.251 . S
Mg322 O335 2.010 . S
O323 Mg322 2.028 . S
O323 C326 1.250 . S
O324 Mg325 2.028 . S
O324 C326 1.248 . S
Mg325 O324 2.028 . S
Mg325 O330 2.032 . S
Mg325 O332 2.079 . S
C326 O323 1.250 . S
C326 O324 1.248 . S
C327 O328 1.264 . S
C327 O335 1.249 . S
O328 C327 1.264 . S
O329 Mg322 1.986 . S
O329 C333 1.246 . S
O330 Mg325 2.032 . S
O330 C333 1.259 . S
O331 Mg322 2.114 . S
O331 C334 1.252 . S
O332 Mg322 2.251 . S
O332 Mg325 2.079 . S
O332 C334 1.273 . S
C333 O329 1.246 . S
C333 O330 1.259 . S
C334 O331 1.252 . S
C334 O332 1.273 . S
O335 Mg322 2.010 . S
O335 C327 1.249 . S
C336 C337 1.369 . S
C336 C338 1.419 . S
C336 H340 0.930 . S
C337 C336 1.369 . S
C337 C346 1.429 . S
C338 C336 1.419 . S
C338 C339 1.363 . S
C338 H341 0.929 . S
C339 C338 1.363 . S
C339 C345 1.428 . S
H340 C336 0.930 . S
H341 C338 0.929 . S
S342 N343 1.613 . S
S342 N344 1.610 . S
N343 S342 1.613 . S
N343 C346 1.350 . S
N344 S342 1.610 . S
N344 C345 1.351 . S
C345 C339 1.428 . S
C345 N344 1.351 . S
C345 C346 1.434 . S
C346 C337 1.429 . S
C346 N343 1.350 . S
C346 C345 1.434 . S
C347 C348 1.369 . S
C347 C349 1.419 . S
C347 H351 0.930 . S
C348 C347 1.369 . S
C348 C357 1.429 . S
C349 C347 1.419 . S
C349 C350 1.363 . S
C349 H352 0.929 . S
C350 C349 1.363 . S
C350 C356 1.428 . S
H351 C347 0.930 . S
H352 C349 0.929 . S
S353 N354 1.613 . S
S353 N355 1.610 . S
N354 S353 1.613 . S
N354 C357 1.350 . S
N355 S353 1.610 . S
N355 C356 1.351 . S
C356 C350 1.428 . S
C356 N355 1.351 . S
C356 C357 1.434 . S
C357 C348 1.429 . S
C357 N354 1.350 . S
C357 C356 1.434 . S
C358 C359 1.369 . S
C358 C360 1.419 . S
C358 H362 0.930 . S
C359 C358 1.369 . S
C359 C368 1.429 . S
C360 C358 1.419 . S
C360 C361 1.363 . S
C360 H363 0.929 . S
C361 C360 1.363 . S
C361 C367 1.428 . S
H362 C358 0.930 . S
H363 C360 0.929 . S
S364 N365 1.613 . S
S364 N366 1.610 . S
N365 S364 1.613 . S
N365 C368 1.350 . S
N366 S364 1.610 . S
N366 C367 1.351 . S
C367 C361 1.428 . S
C367 N366 1.351 . S
C367 C368 1.434 . S
C368 C359 1.429 . S
C368 N365 1.350 . S
C368 C367 1.434 . S
C369 C370 1.369 . S
C369 C371 1.419 . S
C369 H373 0.930 . S
C370 C369 1.369 . S
C370 C379 1.429 . S
C371 C369 1.419 . S
C371 C372 1.363 . S
C371 H374 0.929 . S
C372 C371 1.363 . S
C372 C378 1.428 . S
H373 C369 0.930 . S
H374 C371 0.929 . S
S375 N376 1.613 . S
S375 N377 1.610 . S
N376 S375 1.613 . S
N376 C379 1.350 . S
N377 S375 1.610 . S
N377 C378 1.351 . S
C378 C372 1.428 . S
C378 N377 1.351 . S
C378 C379 1.434 . S
C379 C370 1.429 . S
C379 N376 1.350 . S
C379 C378 1.434 . S
C380 C381 1.369 . S
C380 C382 1.419 . S
C380 H384 0.930 . S
C381 C380 1.369 . S
C381 C390 1.429 . S
C382 C380 1.419 . S
C382 C383 1.363 . S
C382 H385 0.929 . S
C383 C382 1.363 . S
C383 C389 1.428 . S
H384 C380 0.930 . S
H385 C382 0.929 . S
S386 N387 1.613 1_655 S
S386 N388 1.610 . S
N387 S386 1.613 1_455 S
N387 C390 1.350 . S
N388 S386 1.610 . S
N388 C389 1.351 1_655 S
C389 C383 1.428 . S
C389 N388 1.351 1_455 S
C389 C390 1.434 . S
C390 C381 1.429 . S
C390 N387 1.350 . S
C390 C389 1.434 . S
C391 C392 1.369 . S
C391 C393 1.419 . S
C391 H395 0.930 . S
C392 C391 1.369 . S
C392 C401 1.429 . S
C393 C391 1.419 . S
C393 C394 1.363 . S
C393 H396 0.929 . S
C394 C393 1.363 . S
C394 C400 1.428 . S
H395 C391 0.930 . S
H396 C393 0.929 . S
S397 N398 1.613 . S
S397 N399 1.610 . S
N398 S397 1.613 . S
N398 C401 1.350 . S
N399 S397 1.610 . S
N399 C400 1.351 . S
C400 C394 1.428 . S
C400 N399 1.351 . S
C400 C401 1.434 . S
C401 C392 1.429 . S
C401 N398 1.350 . S
C401 C400 1.434 . S
C402 C403 1.369 . S
C402 C404 1.419 . S
C402 H406 0.930 . S
C403 C402 1.369 . S
C403 C412 1.429 . S
C404 C402 1.419 . S
C404 C405 1.363 . S
C404 H407 0.929 . S
C405 C404 1.363 . S
C405 C411 1.428 . S
H406 C402 0.930 . S
H407 C404 0.929 . S
S408 N409 1.613 . S
S408 N410 1.610 . S
N409 S408 1.613 . S
N409 C412 1.350 . S
N410 S408 1.610 . S
N410 C411 1.351 . S
C411 C405 1.428 . S
C411 N410 1.351 . S
C411 C412 1.434 . S
C412 C403 1.429 . S
C412 N409 1.350 . S
C412 C411 1.434 . S
C413 C414 1.369 . S
C413 C415 1.419 . S
C413 H417 0.930 . S
C414 C413 1.369 . S
C414 C423 1.429 . S
C415 C413 1.419 . S
C415 C416 1.363 . S
C415 H418 0.929 . S
C416 C415 1.363 . S
C416 C422 1.428 . S
H417 C413 0.930 . S
H418 C415 0.929 . S
S419 N420 1.613 . S
S419 N421 1.610 . S
N420 S419 1.613 . S
N420 C423 1.350 . S
N421 S419 1.610 . S
N421 C422 1.351 . S
C422 C416 1.428 . S
C422 N421 1.351 . S
C422 C423 1.434 . S
C423 C414 1.429 . S
C423 N420 1.350 . S
C423 C422 1.434 . S
C424 C425 1.369 . S
C424 C426 1.419 . S
C424 H428 0.930 . S
C425 C424 1.369 . S
C425 C434 1.429 . S
C426 C424 1.419 . S
C426 C427 1.363 . S
C426 H429 0.929 1_545 S
C427 C426 1.363 . S
C427 C433 1.428 . S
H428 C424 0.930 . S
H429 C426 0.929 1_565 S
S430 N431 1.613 . S
S430 N432 1.610 . S
N431 S430 1.613 . S
N431 C434 1.350 . S
N432 S430 1.610 . S
N432 C433 1.351 . S
C433 C427 1.428 . S
C433 N432 1.351 . S
C433 C434 1.434 . S
C434 C425 1.429 . S
C434 N431 1.350 . S
C434 C433 1.434 . S
C435 C436 1.369 . S
C435 C437 1.419 . S
C435 H439 0.930 . S
C436 C435 1.369 . S
C436 C445 1.429 . S
C437 C435 1.419 . S
C437 C438 1.363 . S
C437 H440 0.929 . S
C438 C437 1.363 . S
C438 C444 1.428 . S
H439 C435 0.930 . S
H440 C437 0.929 . S
S441 N442 1.613 . S
S441 N443 1.610 1_565 S
N442 S441 1.613 . S
N442 C445 1.350 1_565 S
N443 S441 1.610 1_545 S
N443 C444 1.351 . S
C444 C438 1.428 . S
C444 N443 1.351 . S
C444 C445 1.434 . S
C445 C436 1.429 . S
C445 N442 1.350 1_545 S
C445 C444 1.434 . S
C446 C447 1.369 . S
C446 C448 1.419 . S
C446 H450 0.930 . S
C447 C446 1.369 . S
C447 C456 1.429 . S
C448 C446 1.419 . S
C448 C449 1.363 . S
C448 H451 0.929 . S
C449 C448 1.363 . S
C449 C455 1.428 . S
H450 C446 0.930 . S
H451 C448 0.929 . S
S452 N453 1.613 . S
S452 N454 1.610 1_545 S
N453 S452 1.613 . S
N453 C456 1.350 1_545 S
N454 S452 1.610 1_565 S
N454 C455 1.351 . S
C455 C449 1.428 . S
C455 N454 1.351 . S
C455 C456 1.434 . S
C456 C447 1.429 . S
C456 N453 1.350 1_565 S
C456 C455 1.434 . S
C457 C458 1.369 . S
C457 C459 1.419 . S
C457 H461 0.930 . S
C458 C457 1.369 . S
C458 C467 1.429 . S
C459 C457 1.419 . S
C459 C460 1.363 . S
C459 H462 0.929 1_565 S
C460 C459 1.363 . S
C460 C466 1.428 . S
H461 C457 0.930 . S
H462 C459 0.929 1_545 S
S463 N464 1.613 . S
S463 N465 1.610 . S
N464 S463 1.613 . S
N464 C467 1.350 . S
N465 S463 1.610 . S
N465 C466 1.351 . S
C466 C460 1.428 . S
C466 N465 1.351 . S
C466 C467 1.434 . S
C467 C458 1.429 . S
C467 N464 1.350 . S
C467 C466 1.434 . S
C468 C469 1.369 . S
C468 C470 1.419 . S
C468 H472 0.930 . S
C469 C468 1.369 . S
C469 C478 1.429 . S
C470 C468 1.419 . S
C470 C471 1.363 . S
C470 H473 0.929 . S
C471 C470 1.363 . S
C471 C477 1.428 . S
H472 C468 0.930 . S
H473 C470 0.929 . S
S474 N475 1.613 . S
S474 N476 1.610 . S
N475 S474 1.613 . S
N475 C478 1.350 . S
N476 S474 1.610 . S
N476 C477 1.351 . S
C477 C471 1.428 . S
C477 N476 1.351 . S
C477 C478 1.434 . S
C478 C469 1.429 . S
C478 N475 1.350 . S
C478 C477 1.434 . S
C479 C480 1.369 . S
C479 C481 1.419 . S
C479 H483 0.930 . S
C480 C479 1.369 . S
C480 C489 1.429 . S
C481 C479 1.419 . S
C481 C482 1.363 . S
C481 H484 0.929 . S
C482 C481 1.363 . S
C482 C488 1.428 . S
H483 C479 0.930 . S
H484 C481 0.929 . S
S485 N486 1.613 . S
S485 N487 1.610 1_455 S
N486 S485 1.613 . S
N486 C489 1.350 1_455 S
N487 S485 1.610 1_655 S
N487 C488 1.351 . S
C488 C482 1.428 . S
C488 N487 1.351 . S
C488 C489 1.434 . S
C489 C480 1.429 . S
C489 N486 1.350 1_655 S
C489 C488 1.434 . S
C490 C491 1.369 . S
C490 C492 1.419 . S
C490 H494 0.930 . S
C491 C490 1.369 . S
C491 C500 1.429 . S
C492 C490 1.419 . S
C492 C493 1.363 . S
C492 H495 0.929 . S
C493 C492 1.363 . S
C493 C499 1.428 . S
H494 C490 0.930 . S
H495 C492 0.929 . S
S496 N497 1.613 . S
S496 N498 1.610 . S
N497 S496 1.613 . S
N497 C500 1.350 . S
N498 S496 1.610 . S
N498 C499 1.351 . S
C499 C493 1.428 . S
C499 N498 1.351 . S
C499 C500 1.434 . S
C500 C491 1.429 . S
C500 N497 1.350 . S
C500 C499 1.434 . S
C501 C502 1.369 . S
C501 C503 1.419 . S
C501 H505 0.930 . S
C502 C501 1.369 . S
C502 C511 1.429 . S
C503 C501 1.419 . S
C503 C504 1.363 . S
C503 H506 0.929 . S
C504 C503 1.363 . S
C504 C510 1.428 . S
H505 C501 0.930 . S
H506 C503 0.929 . S
S507 N508 1.613 . S
S507 N509 1.610 . S
N508 S507 1.613 . S
N508 C511 1.350 . S
N509 S507 1.610 . S
N509 C510 1.351 . S
C510 C504 1.428 . S
C510 N509 1.351 . S
C510 C511 1.434 . S
C511 C502 1.429 . S
C511 N508 1.350 . S
C511 C510 1.434 . S
C512 C513 1.369 . S
C512 C514 1.419 . S
C512 H516 0.930 . S
C513 C512 1.369 . S
C513 C522 1.429 . S
C514 C512 1.419 . S
C514 C515 1.363 . S
C514 H517 0.929 . S
C515 C514 1.363 . S
C515 C521 1.428 . S
H516 C512 0.930 . S
H517 C514 0.929 . S
S518 N519 1.613 . S
S518 N520 1.610 . S
N519 S518 1.613 . S
N519 C522 1.350 . S
N520 S518 1.610 . S
N520 C521 1.351 . S
C521 C515 1.428 . S
C521 N520 1.351 . S
C521 C522 1.434 . S
C522 C513 1.429 . S
C522 N519 1.350 . S
C522 C521 1.434 . S
C523 C524 1.369 . S
C523 C525 1.419 . S
C523 H527 0.930 . S
C524 C523 1.369 . S
C524 C533 1.429 . S
C525 C523 1.419 . S
C525 C526 1.363 . S
C525 H528 0.929 . S
C526 C525 1.363 . S
C526 C532 1.428 . S
H527 C523 0.930 . S
H528 C525 0.929 . S
S529 N530 1.613 . S
S529 N531 1.610 . S
N530 S529 1.613 . S
N530 C533 1.350 . S
N531 S529 1.610 . S
N531 C532 1.351 . S
C532 C526 1.428 . S
C532 N531 1.351 . S
C532 C533 1.434 . S
C533 C524 1.429 . S
C533 N530 1.350 . S
C533 C532 1.434 . S
C534 C535 1.369 . S
C534 C536 1.419 . S
C534 H538 0.930 1_556 S
C535 C534 1.369 . S
C535 C544 1.429 . S
C536 C534 1.419 . S
C536 C537 1.363 . S
C536 H539 0.929 . S
C537 C536 1.363 . S
C537 C543 1.428 . S
H538 C534 0.930 1_554 S
H539 C536 0.929 . S
S540 N541 1.613 . S
S540 N542 1.610 . S
N541 S540 1.613 . S
N541 C544 1.350 . S
N542 S540 1.610 . S
N542 C543 1.351 . S
C543 C537 1.428 . S
C543 N542 1.351 . S
C543 C544 1.434 . S
C544 C535 1.429 . S
C544 N541 1.350 . S
C544 C543 1.434 . S
C545 C546 1.369 . S
C545 C547 1.419 . S
C545 H549 0.930 1_655 S
C546 C545 1.369 . S
C546 C555 1.429 . S
C547 C545 1.419 . S
C547 C548 1.363 . S
C547 H550 0.929 1_655 S
C548 C547 1.363 . S
C548 C554 1.428 . S
H549 C545 0.930 1_455 S
H550 C547 0.929 1_455 S
S551 N552 1.613 . S
S551 N553 1.610 . S
N552 S551 1.613 . S
N552 C555 1.350 . S
N553 S551 1.610 . S
N553 C554 1.351 . S
C554 C548 1.428 . S
C554 N553 1.351 . S
C554 C555 1.434 . S
C555 C546 1.429 . S
C555 N552 1.350 . S
C555 C554 1.434 . S
C556 C557 1.369 . S
C556 C558 1.419 . S
C556 H560 0.930 . S
C557 C556 1.369 . S
C557 C566 1.429 . S
C558 C556 1.419 . S
C558 C559 1.363 . S
C558 H561 0.929 . S
C559 C558 1.363 . S
C559 C565 1.428 . S
H560 C556 0.930 . S
H561 C558 0.929 . S
S562 N563 1.613 . S
S562 N564 1.610 . S
N563 S562 1.613 . S
N563 C566 1.350 . S
N564 S562 1.610 . S
N564 C565 1.351 . S
C565 C559 1.428 . S
C565 N564 1.351 . S
C565 C566 1.434 . S
C566 C557 1.429 . S
C566 N563 1.350 . S
C566 C565 1.434 . S
C567 C568 1.369 . S
C567 C569 1.419 . S
C567 H571 0.930 . S
C568 C567 1.369 . S
C568 C577 1.429 . S
C569 C567 1.419 . S
C569 C570 1.363 . S
C569 H572 0.929 . S
C570 C569 1.363 . S
C570 C576 1.428 . S
H571 C567 0.930 . S
H572 C569 0.929 . S
S573 N574 1.613 . S
S573 N575 1.610 . S
N574 S573 1.613 . S
N574 C577 1.350 . S
N575 S573 1.610 . S
N575 C576 1.351 . S
C576 C570 1.428 . S
C576 N575 1.351 . S
C576 C577 1.434 . S
C577 C568 1.429 . S
C577 N574 1.350 . S
C577 C576 1.434 . S
C578 C579 1.369 . S
C578 C580 1.419 . S
C578 H582 0.930 . S
C579 C578 1.369 . S
C579 C588 1.429 . S
C580 C578 1.419 . S
C580 C581 1.363 . S
C580 H583 0.929 . S
C581 C580 1.363 . S
C581 C587 1.428 . S
H582 C578 0.930 . S
H583 C580 0.929 . S
S584 N585 1.613 . S
S584 N586 1.610 . S
N585 S584 1.613 . S
N585 C588 1.350 . S
N586 S584 1.610 . S
N586 C587 1.351 . S
C587 C581 1.428 . S
C587 N586 1.351 . S
C587 C588 1.434 . S
C588 C579 1.429 . S
C588 N585 1.350 . S
C588 C587 1.434 . S
C589 C590 1.369 . S
C589 C591 1.419 . S
C589 H593 0.930 . S
C590 C589 1.369 . S
C590 C599 1.429 . S
C591 C589 1.419 . S
C591 C592 1.363 . S
C591 H594 0.929 . S
C592 C591 1.363 . S
C592 C598 1.428 . S
H593 C589 0.930 . S
H594 C591 0.929 . S
S595 N596 1.613 . S
S595 N597 1.610 . S
N596 S595 1.613 . S
N596 C599 1.350 1_545 S
N597 S595 1.610 . S
N597 C598 1.351 1_545 S
C598 C592 1.428 . S
C598 N597 1.351 1_565 S
C598 C599 1.434 . S
C599 C590 1.429 . S
C599 N596 1.350 1_565 S
C599 C598 1.434 . S
C600 C601 1.369 . S
C600 C602 1.419 . S
C600 H604 0.930 . S
C601 C600 1.369 . S
C601 C610 1.429 1_565 S
C602 C600 1.419 . S
C602 C603 1.363 . S
C602 H605 0.929 . S
C603 C602 1.363 . S
C603 C609 1.407 1_565 S
H604 C600 0.930 . S
H605 C602 0.929 . S
S606 N607 1.613 . S
S606 N608 1.610 . S
N607 S606 1.613 . S
N607 C610 1.350 . S
N608 S606 1.610 . S
N608 C609 1.367 . S
C609 C603 1.407 1_545 S
C609 N608 1.367 . S
C609 C610 1.441 . S
C610 C601 1.429 1_545 S
C610 N607 1.350 . S
C610 C609 1.441 . S
C611 C612 1.369 . S
C611 C613 1.419 . S
C611 H615 0.930 . S
C612 C611 1.369 . S
C612 C621 1.429 . S
C613 C611 1.419 . S
C613 C614 1.363 . S
C613 H616 0.929 . S
C614 C613 1.363 . S
C614 C620 1.428 . S
H615 C611 0.930 . S
H616 C613 0.929 . S
S617 N618 1.613 . S
S617 N619 1.610 . S
N618 S617 1.613 . S
N618 C621 1.350 . S
N619 S617 1.610 . S
N619 C620 1.351 . S
C620 C614 1.428 . S
C620 N619 1.351 . S
C620 C621 1.434 . S
C621 C612 1.429 . S
C621 N618 1.350 . S
C621 C620 1.434 . S
C622 C623 1.369 . S
C622 C624 1.419 . S
C622 H626 0.930 . S
C623 C622 1.369 . S
C623 C632 1.429 . S
C624 C622 1.419 . S
C624 C625 1.363 . S
C624 H627 0.929 . S
C625 C624 1.363 . S
C625 C631 1.428 . S
H626 C622 0.930 . S
H627 C624 0.929 . S
S628 N629 1.613 . S
S628 N630 1.610 . S
N629 S628 1.613 . S
N629 C632 1.350 . S
N630 S628 1.610 . S
N630 C631 1.351 . S
C631 C625 1.428 . S
C631 N630 1.351 . S
C631 C632 1.434 . S
C632 C623 1.429 . S
C632 N629 1.350 . S
C632 C631 1.434 . S
C633 C634 1.369 . S
C633 C635 1.419 . S
C633 H637 0.930 . S
C634 C633 1.369 . S
C634 C643 1.429 . S
C635 C633 1.419 . S
C635 C636 1.363 . S
C635 H638 0.929 . S
C636 C635 1.363 . S
C636 C642 1.428 . S
H637 C633 0.930 . S
H638 C635 0.929 . S
S639 N640 1.613 1_554 S
S639 N641 1.611 1_554 S
N640 S639 1.613 1_556 S
N640 C643 1.350 . S
N641 S639 1.611 1_556 S
N641 C642 1.350 . S
C642 C636 1.428 . S
C642 N641 1.350 . S
C642 C643 1.434 . S
C643 C634 1.429 . S
C643 N640 1.350 . S
C643 C642 1.434 . S
C644 C645 1.369 . S
C644 C646 1.419 . S
C644 H648 0.930 . S
C645 C644 1.369 . S
C645 C654 1.429 . S
C646 C644 1.419 . S
C646 C647 1.363 . S
C646 H649 0.929 . S
C647 C646 1.363 . S
C647 C653 1.428 . S
H648 C644 0.930 . S
H649 C646 0.929 . S
S650 N651 1.613 . S
S650 N652 1.610 . S
N651 S650 1.613 . S
N651 C654 1.350 . S
N652 S650 1.610 . S
N652 C653 1.351 . S
C653 C647 1.428 . S
C653 N652 1.351 . S
C653 C654 1.434 . S
C654 C645 1.429 . S
C654 N651 1.350 . S
C654 C653 1.434 . S
C655 C656 1.369 . S
C655 C657 1.419 . S
C655 H659 0.930 . S
C656 C655 1.369 . S
C656 C665 1.429 . S
C657 C655 1.419 . S
C657 C658 1.363 . S
C657 H660 0.929 . S
C658 C657 1.363 . S
C658 C664 1.428 . S
H659 C655 0.930 . S
H660 C657 0.929 . S
S661 N662 1.613 . S
S661 N663 1.610 . S
N662 S661 1.613 . S
N662 C665 1.350 . S
N663 S661 1.610 . S
N663 C664 1.351 . S
C664 C658 1.428 . S
C664 N663 1.351 . S
C664 C665 1.434 . S
C665 C656 1.429 . S
C665 N662 1.350 . S
C665 C664 1.434 . S
C666 C667 1.369 . S
C666 C668 1.419 . S
C666 H670 0.930 . S
C667 C666 1.369 . S
C667 C676 1.429 . S
C668 C666 1.419 . S
C668 C669 1.363 . S
C668 H671 0.929 . S
C669 C668 1.363 . S
C669 C675 1.428 . S
H670 C666 0.930 . S
H671 C668 0.929 . S
S672 N673 1.613 . S
S672 N674 1.610 . S
N673 S672 1.613 . S
N673 C676 1.350 . S
N674 S672 1.610 . S
N674 C675 1.351 . S
C675 C669 1.428 . S
C675 N674 1.351 . S
C675 C676 1.434 . S
C676 C667 1.429 . S
C676 N673 1.350 . S
C676 C675 1.434 . S
C677 C678 1.369 . S
C677 C679 1.419 . S
C677 H681 0.930 . S
C678 C677 1.369 . S
C678 C687 1.429 . S
C679 C677 1.419 . S
C679 C680 1.363 . S
C679 H682 0.929 . S
C680 C679 1.363 . S
C680 C686 1.428 . S
H681 C677 0.930 . S
H682 C679 0.929 . S
S683 N684 1.613 . S
S683 N685 1.610 . S
N684 S683 1.613 . S
N684 C687 1.350 . S
N685 S683 1.610 . S
N685 C686 1.351 . S
C686 C680 1.428 . S
C686 N685 1.351 . S
C686 C687 1.434 . S
C687 C678 1.429 . S
C687 N684 1.350 . S
C687 C686 1.434 . S
C688 C689 1.369 . S
C688 C690 1.419 . S
C688 H692 0.930 . S
C689 C688 1.369 . S
C689 C698 1.429 . S
C690 C688 1.419 . S
C690 C691 1.363 . S
C690 H693 0.929 . S
C691 C690 1.363 . S
C691 C697 1.428 . S
H692 C688 0.930 . S
H693 C690 0.929 . S
S694 N695 1.613 . S
S694 N696 1.610 . S
N695 S694 1.613 . S
N695 C698 1.350 . S
N696 S694 1.610 . S
N696 C697 1.351 . S
C697 C691 1.428 . S
C697 N696 1.351 . S
C697 C698 1.434 . S
C698 C689 1.429 . S
C698 N695 1.350 . S
C698 C697 1.434 . S
C699 C700 1.369 . S
C699 C701 1.419 . S
C699 H703 0.930 . S
C700 C699 1.369 . S
C700 C709 1.429 . S
C701 C699 1.419 . S
C701 C702 1.363 . S
C701 H704 0.929 . S
C702 C701 1.363 . S
C702 C708 1.428 . S
H703 C699 0.930 . S
H704 C701 0.929 . S
S705 N706 1.613 1_554 S
S705 N707 1.610 1_554 S
N706 S705 1.613 1_556 S
N706 C709 1.350 . S
N707 S705 1.610 1_556 S
N707 C708 1.351 . S
C708 C702 1.428 . S
C708 N707 1.351 . S
C708 C709 1.434 . S
C709 C700 1.429 . S
C709 N706 1.350 . S
C709 C708 1.434 . S
C710 C711 1.369 . S
C710 C712 1.419 . S
C710 H714 0.930 . S
C711 C710 1.369 . S
C711 C720 1.429 . S
C712 C710 1.419 . S
C712 C713 1.363 . S
C712 H715 0.929 . S
C713 C712 1.363 . S
C713 C719 1.428 . S
H714 C710 0.930 . S
H715 C712 0.929 . S
S716 N717 1.613 . S
S716 N718 1.610 . S
N717 S716 1.613 . S
N717 C720 1.350 . S
N718 S716 1.610 . S
N718 C719 1.351 . S
C719 C713 1.428 . S
C719 N718 1.351 . S
C719 C720 1.434 . S
C720 C711 1.429 . S
C720 N717 1.350 . S
C720 C719 1.434 . S
C721 C722 1.369 . S
C721 C723 1.419 . S
C721 H725 0.930 . S
C722 C721 1.369 . S
C722 C731 1.429 . S
C723 C721 1.419 . S
C723 C724 1.363 . S
C723 H726 0.929 . S
C724 C723 1.363 . S
C724 C730 1.428 . S
H725 C721 0.930 . S
H726 C723 0.929 . S
S727 N728 1.613 . S
S727 N729 1.610 . S
N728 S727 1.613 . S
N728 C731 1.350 . S
N729 S727 1.610 . S
N729 C730 1.351 . S
C730 C724 1.428 . S
C730 N729 1.351 . S
C730 C731 1.434 . S
C731 C722 1.429 . S
C731 N728 1.350 . S
C731 C730 1.434 . S
C732 C733 1.369 . S
C732 C734 1.419 . S
C732 H736 0.930 . S
C733 C732 1.369 . S
C733 C742 1.429 . S
C734 C732 1.419 . S
C734 C735 1.363 . S
C734 H737 0.929 . S
C735 C734 1.363 . S
C735 C741 1.428 . S
H736 C732 0.930 . S
H737 C734 0.929 . S
S738 N739 1.613 . S
S738 N740 1.610 . S
N739 S738 1.613 . S
N739 C742 1.350 . S
N740 S738 1.610 . S
N740 C741 1.351 . S
C741 C735 1.428 . S
C741 N740 1.351 . S
C741 C742 1.434 . S
C742 C733 1.429 . S
C742 N739 1.350 . S
C742 C741 1.434 . S
C743 C744 1.369 . S
C743 C745 1.419 . S
C743 H747 0.930 . S
C744 C743 1.369 . S
C744 C753 1.429 . S
C745 C743 1.419 . S
C745 C746 1.363 . S
C745 H748 0.929 . S
C746 C745 1.363 . S
C746 C752 1.428 . S
H747 C743 0.930 . S
H748 C745 0.929 . S
S749 N750 1.613 . S
S749 N751 1.610 . S
N750 S749 1.613 . S
N750 C753 1.350 . S
N751 S749 1.610 . S
N751 C752 1.351 . S
C752 C746 1.428 . S
C752 N751 1.351 . S
C752 C753 1.434 . S
C753 C744 1.429 . S
C753 N750 1.350 . S
C753 C752 1.434 . S
C754 C755 1.369 . S
C754 C756 1.419 . S
C754 H758 0.930 . S
C755 C754 1.369 . S
C755 C764 1.429 . S
C756 C754 1.419 . S
C756 C757 1.363 . S
C756 H759 0.929 . S
C757 C756 1.363 . S
C757 C763 1.428 . S
H758 C754 0.930 . S
H759 C756 0.929 . S
S760 N761 1.613 . S
S760 N762 1.610 . S
N761 S760 1.613 . S
N761 C764 1.350 . S
N762 S760 1.610 . S
N762 C763 1.351 . S
C763 C757 1.428 . S
C763 N762 1.351 . S
C763 C764 1.434 . S
C764 C755 1.429 . S
C764 N761 1.350 . S
C764 C763 1.434 . S
C765 C766 1.369 . S
C765 C767 1.419 . S
C765 H769 0.930 . S
C766 C765 1.369 . S
C766 C775 1.429 . S
C767 C765 1.419 . S
C767 C768 1.363 . S
C767 H770 0.929 . S
C768 C767 1.363 . S
C768 C774 1.428 . S
H769 C765 0.930 . S
H770 C767 0.929 . S
S771 N772 1.613 . S
S771 N773 1.610 . S
N772 S771 1.613 . S
N772 C775 1.350 . S
N773 S771 1.610 . S
N773 C774 1.351 . S
C774 C768 1.428 . S
C774 N773 1.351 . S
C774 C775 1.434 . S
C775 C766 1.429 . S
C775 N772 1.350 . S
C775 C774 1.434 . S
C776 C777 1.369 . S
C776 C778 1.419 . S
C776 H780 0.930 . S
C777 C776 1.369 . S
C777 C786 1.429 . S
C778 C776 1.419 . S
C778 C779 1.363 . S
C778 H781 0.929 . S
C779 C778 1.363 . S
C779 C785 1.428 . S
H780 C776 0.930 . S
H781 C778 0.929 . S
S782 N783 1.613 . S
S782 N784 1.610 . S
N783 S782 1.613 . S
N783 C786 1.350 . S
N784 S782 1.610 . S
N784 C785 1.351 . S
C785 C779 1.428 . S
C785 N784 1.351 . S
C785 C786 1.434 . S
C786 C777 1.429 . S
C786 N783 1.350 . S
C786 C785 1.434 . S
C787 C788 1.369 . S
C787 C789 1.419 . S
C787 H791 0.930 . S
C788 C787 1.369 . S
C788 C797 1.429 . S
C789 C787 1.419 . S
C789 C790 1.363 . S
C789 H792 0.929 . S
C790 C789 1.363 . S
C790 C796 1.428 . S
H791 C787 0.930 . S
H792 C789 0.929 . S
S793 N794 1.613 . S
S793 N795 1.610 . S
N794 S793 1.613 . S
N794 C797 1.350 . S
N795 S793 1.610 . S
N795 C796 1.351 . S
C796 C790 1.428 . S
C796 N795 1.351 . S
C796 C797 1.434 . S
C797 C788 1.429 . S
C797 N794 1.350 . S
C797 C796 1.434 . S
C798 C799 1.369 . S
C798 C800 1.419 . S
C798 H802 0.930 . S
C799 C798 1.369 . S
C799 C808 1.429 . S
C800 C798 1.419 . S
C800 C801 1.363 . S
C800 H803 0.929 . S
C801 C800 1.363 . S
C801 C807 1.428 . S
H802 C798 0.930 . S
H803 C800 0.929 . S
S804 N805 1.613 . S
S804 N806 1.610 . S
N805 S804 1.613 . S
N805 C808 1.350 . S
N806 S804 1.610 . S
N806 C807 1.351 . S
C807 C801 1.428 . S
C807 N806 1.351 . S
C807 C808 1.434 . S
C808 C799 1.429 . S
C808 N805 1.350 . S
C808 C807 1.434 . S
C809 C810 1.369 . S
C809 C811 1.419 . S
C809 H813 0.930 . S
C810 C809 1.369 . S
C810 C819 1.429 . S
C811 C809 1.419 . S
C811 C812 1.363 . S
C811 H814 0.929 . S
C812 C811 1.363 . S
C812 C818 1.428 . S
H813 C809 0.930 . S
H814 C811 0.929 . S
S815 N816 1.613 . S
S815 N817 1.610 . S
N816 S815 1.613 . S
N816 C819 1.350 . S
N817 S815 1.610 . S
N817 C818 1.351 . S
C818 C812 1.428 . S
C818 N817 1.351 . S
C818 C819 1.434 . S
C819 C810 1.429 . S
C819 N816 1.350 . S
C819 C818 1.434 . S
C820 C821 1.369 . S
C820 C822 1.419 . S
C820 H824 0.930 . S
C821 C820 1.369 . S
C821 C830 1.429 . S
C822 C820 1.419 . S
C822 C823 1.363 . S
C822 H825 0.929 . S
C823 C822 1.363 . S
C823 C829 1.428 . S
H824 C820 0.930 . S
H825 C822 0.929 . S
S826 N827 1.613 . S
S826 N828 1.610 . S
N827 S826 1.613 . S
N827 C830 1.350 . S
N828 S826 1.610 . S
N828 C829 1.351 . S
C829 C823 1.428 . S
C829 N828 1.351 . S
C829 C830 1.434 . S
C830 C821 1.429 . S
C830 N827 1.350 . S
C830 C829 1.434 . S
C831 C832 1.369 . S
C831 C833 1.419 . S
C831 H835 0.930 . S
C832 C831 1.369 . S
C832 C841 1.429 . S
C833 C831 1.419 . S
C833 C834 1.363 . S
C833 H836 0.929 . S
C834 C833 1.363 . S
C834 C840 1.428 . S
H835 C831 0.930 . S
H836 C833 0.929 . S
S837 N838 1.613 . S
S837 N839 1.610 . S
N838 S837 1.613 . S
N838 C841 1.350 . S
N839 S837 1.610 . S
N839 C840 1.351 . S
C840 C834 1.428 . S
C840 N839 1.351 . S
C840 C841 1.434 . S
C841 C832 1.429 . S
C841 N838 1.350 . S
C841 C840 1.434 . S
C842 C843 1.369 . S
C842 C844 1.419 . S
C842 H846 0.930 . S
C843 C842 1.369 . S
C843 C852 1.429 . S
C844 C842 1.419 . S
C844 C845 1.363 . S
C844 H847 0.929 . S
C845 C844 1.363 . S
C845 C851 1.428 . S
H846 C842 0.930 . S
H847 C844 0.929 . S
S848 N849 1.613 . S
S848 N850 1.610 . S
N849 S848 1.613 . S
N849 C852 1.350 . S
N850 S848 1.610 . S
N850 C851 1.351 . S
C851 C845 1.428 . S
C851 N850 1.351 . S
C851 C852 1.434 . S
C852 C843 1.429 . S
C852 N849 1.350 . S
C852 C851 1.434 . S
C853 C854 1.369 . S
C853 C855 1.419 . S
C853 H857 0.930 . S
C854 C853 1.369 . S
C854 C863 1.429 . S
C855 C853 1.419 . S
C855 C856 1.363 . S
C855 H858 0.929 . S
C856 C855 1.363 . S
C856 C862 1.428 . S
H857 C853 0.930 . S
H858 C855 0.929 . S
S859 N860 1.613 . S
S859 N861 1.610 . S
N860 S859 1.613 . S
N860 C863 1.350 . S
N861 S859 1.610 . S
N861 C862 1.351 . S
C862 C856 1.428 . S
C862 N861 1.351 . S
C862 C863 1.434 . S
C863 C854 1.429 . S
C863 N860 1.350 . S
C863 C862 1.434 . S
C337 C208 1.402 . S
C339 C11 1.377 . S
C348 C26 1.314 . S
C350 C215 1.162 . S
C359 C256 1.443 . S
C361 C32 1.438 . S
C370 C47 1.086 . S
C372 C187 1.076 . S
C381 C201 1.088 . S
C383 C61 1.099 . S
C392 C82 1.334 . S
C394 C222 1.338 . S
C403 C96 1.403 . S
C405 C263 1.385 . S
C414 C103 1.177 . S
C416 C194 1.318 . S
C425 C138 1.401 . S
C427 C123 1.387 . S
C436 C145 1.099 . S
C438 C131 1.095 . S
C447 C152 1.399 . S
C449 C165 1.381 . S
C458 C158 1.437 . S
C460 C116 1.443 . S
C469 C173 1.159 . S
C471 C54 1.315 . S
C480 C68 1.404 . S
C482 C235 1.383 . S
C491 C243 1.077 . S
C493 C19 1.078 . S
C502 C25 1.512 . S
C504 C299 1.270 . S
C513 C137 1.496 . S
C515 C5 1.263 . S
C524 C326 1.374 . S
C526 C46 1.367 . S
C535 C166 1.549 . S
C537 C40 1.548 . S
C546 C306 1.567 . S
C548 C102 1.527 . S
C557 C130 1.473 . S
C559 C88 1.477 . S
C568 C81 1.475 . S
C570 C333 1.509 . S
C579 C67 1.495 . S
C581 C159 1.275 . S
C590 C221 1.480 . S
C592 C277 1.509 . S
C601 C236 1.567 . S
C603 C214 1.527 . S
C612 C193 1.512 . S
C614 C229 1.272 . S
C623 C270 1.370 . S
C625 C186 1.368 . S
C634 C33 1.260 . S
C636 C291 1.496 . S
C645 C151 1.509 . S
C647 C109 1.476 . S
C656 C12 1.547 . S
C658 C320 1.550 . S
C667 C278 1.400 . S
C669 C39 1.380 . S
C678 C4 1.438 . S
C680 C228 1.446 . S
C689 C271 1.104 . S
C691 C89 1.086 . S
C700 C180 1.334 . S
C702 C110 1.339 . S
C711 C75 1.158 . S
C713 C250 1.315 . S
C722 C305 1.386 . S
C724 C292 1.402 . S
C733 C327 1.106 . S
C735 C285 1.086 . S
C744 C319 1.382 . S
C746 C334 1.400 . S
C755 C298 1.444 . S
C757 C312 1.436 . S
C766 C117 1.275 . S
C768 C53 1.512 . S
C777 C18 1.369 . S
C779 C144 1.376 . S
C788 C74 1.522 . S
C790 C124 1.570 . S
C799 C284 1.475 . S
C801 C60 1.474 . S
C810 C95 1.496 . S
C812 C313 1.264 . S
C821 C179 1.479 . S
C823 C207 1.509 . S
C832 C264 1.569 . S
C834 C172 1.525 . S
C843 C249 1.511 . S
C845 C257 1.284 . S
C854 C200 1.377 . S
C856 C242 1.371 . S
