# Generated by pormake.
# Topology smm, (6)-cn, num edge types: 1
# Building blocks:
#     Node 0, Type 0, BuildingBlock: UKALOJ_clean_sbu_0, # of connection points: 6
#     Node 1, Type 0, BuildingBlock: UKALOJ_clean_sbu_0, # of connection points: 6
#     Node 2, Type 0, BuildingBlock: UKALOJ_clean_sbu_0, # of connection points: 6
#     Node 3, Type 0, BuildingBlock: UKALOJ_clean_sbu_0, # of connection points: 6
#     Node 4, Type 0, BuildingBlock: UKALOJ_clean_sbu_0, # of connection points: 6
#     Node 5, Type 0, BuildingBlock: UKALOJ_clean_sbu_0, # of connection points: 6
#     Node 6, Type 0, BuildingBlock: UKALOJ_clean_sbu_0, # of connection points: 6
#     Node 7, Type 0, BuildingBlock: UKALOJ_clean_sbu_0, # of connection points: 6
#     Node 8, Type 0, BuildingBlock: UKALOJ_clean_sbu_0, # of connection points: 6
#     Edge 9, Type (0, 0), BuildingBlock: AJUNOK_clean_linker_0, # of connection points: 2
#     Edge 10, Type (0, 0), BuildingBlock: AJUNOK_clean_linker_0, # of connection points: 2
#     Edge 11, Type (0, 0), BuildingBlock: AJUNOK_clean_linker_0, # of connection points: 2
#     Edge 12, Type (0, 0), BuildingBlock: AJUNOK_clean_linker_0, # of connection points: 2
#     Edge 13, Type (0, 0), BuildingBlock: AJUNOK_clean_linker_0, # of connection points: 2
#     Edge 14, Type (0, 0), BuildingBlock: AJUNOK_clean_linker_0, # of connection points: 2
#     Edge 15, Type (0, 0), BuildingBlock: AJUNOK_clean_linker_0, # of connection points: 2
#     Edge 16, Type (0, 0), BuildingBlock: AJUNOK_clean_linker_0, # of connection points: 2
#     Edge 17, Type (0, 0), BuildingBlock: AJUNOK_clean_linker_0, # of connection points: 2
#     Edge 18, Type (0, 0), BuildingBlock: AJUNOK_clean_linker_0, # of connection points: 2
#     Edge 19, Type (0, 0), BuildingBlock: AJUNOK_clean_linker_0, # of connection points: 2
#     Edge 20, Type (0, 0), BuildingBlock: AJUNOK_clean_linker_0, # of connection points: 2
#     Edge 21, Type (0, 0), BuildingBlock: AJUNOK_clean_linker_0, # of connection points: 2
#     Edge 22, Type (0, 0), BuildingBlock: AJUNOK_clean_linker_0, # of connection points: 2
#     Edge 23, Type (0, 0), BuildingBlock: AJUNOK_clean_linker_0, # of connection points: 2
#     Edge 24, Type (0, 0), BuildingBlock: AJUNOK_clean_linker_0, # of connection points: 2
#     Edge 25, Type (0, 0), BuildingBlock: AJUNOK_clean_linker_0, # of connection points: 2
#     Edge 26, Type (0, 0), BuildingBlock: AJUNOK_clean_linker_0, # of connection points: 2
#     Edge 27, Type (0, 0), BuildingBlock: AJUNOK_clean_linker_0, # of connection points: 2
#     Edge 28, Type (0, 0), BuildingBlock: AJUNOK_clean_linker_0, # of connection points: 2
#     Edge 29, Type (0, 0), BuildingBlock: AJUNOK_clean_linker_0, # of connection points: 2
#     Edge 30, Type (0, 0), BuildingBlock: AJUNOK_clean_linker_0, # of connection points: 2
#     Edge 31, Type (0, 0), BuildingBlock: AJUNOK_clean_linker_0, # of connection points: 2
#     Edge 32, Type (0, 0), BuildingBlock: AJUNOK_clean_linker_0, # of connection points: 2
#     Edge 33, Type (0, 0), BuildingBlock: AJUNOK_clean_linker_0, # of connection points: 2
#     Edge 34, Type (0, 0), BuildingBlock: AJUNOK_clean_linker_0, # of connection points: 2
#     Edge 35, Type (0, 0), BuildingBlock: AJUNOK_clean_linker_0, # of connection points: 2
# Relax obj value: 0.369
# Max RMSD: 0.287
# Mean RMSD: 0.273
data_MOF--net-smm--node1-UKALOJ_clean_sbu_0--edge1-AJUNOK_clean_linker_0
_symmetry_space_group_name_H-M    P1
_symmetry_Int_Tables_number       1
_symmetry_cell_setting            triclinic
loop_
_symmetry_equiv_pos_as_xyz
'x, y, z'
_cell_length_a     35.96987
_cell_length_b     35.397374
_cell_length_c     15.421351
_cell_angle_alpha  92.925578
_cell_angle_beta   92.72774
_cell_angle_gamma 120.12231
loop_
_atom_site_label
_atom_site_type_symbol
_atom_site_fract_x
_atom_site_fract_y
_atom_site_fract_z
_atom_type_partial_charge
Zn0 Zn 0.00782 0.20289 0.11591 0.0
O1 O 0.96726 0.13044 0.12178 0.0
C2 C 0.04744 0.16792 0.0209 0.0
Zn3 Zn 0.97058 0.18561 0.99081 0.0
C4 C 0.93365 0.10726 0.06893 0.0
O5 O 0.92355 0.12616 1.01375 0.0
C6 C 0.0446 0.27779 1.01061 0.0
O7 O 0.92777 0.21105 0.02727 0.0
O8 O 0.95912 0.21165 0.15242 0.0
N9 N 0.94899 0.16975 0.86057 0.0
C10 C 0.95672 0.19505 0.79348 0.0
C11 C 0.93725 0.13078 0.73909 0.0
N12 N 0.9363 0.12964 0.8262 0.0
N13 N 0.95018 0.17158 0.7169 0.0
C14 C 0.00869 0.19315 0.31499 0.0
C15 C 0.05137 0.25903 0.36663 0.0
N16 N 0.02796 0.21624 0.24732 0.0
N17 N 0.05467 0.25715 0.27991 0.0
N18 N 0.02225 0.21934 0.39016 0.0
H19 H 0.94666 0.13713 0.27547 0.0
H20 H 0.97273 0.13157 0.37308 0.0
H21 H -0.00817 0.12802 0.27001 0.0
C22 C 0.97805 0.14467 0.30823 0.0
C23 C 0.96988 0.2425 0.80183 0.0
H24 H 0.95824 0.25014 0.86177 0.0
H25 H 0.95632 0.2505 0.74416 0.0
H26 H 0.00548 0.26296 0.8043 0.0
O27 O 0.01731 0.24562 0.96017 0.0
O28 O 0.04753 0.27304 0.09186 0.0
C29 C 0.93067 0.21586 0.11088 0.0
O30 O 0.057 0.19413 0.08779 0.0
O31 O 0.01389 0.15793 0.97021 0.0
Zn32 Zn 0.81903 0.84589 0.08473 0.0
O33 O 0.74773 0.81598 0.06298 0.0
C34 C 0.7973 0.75399 0.07747 0.0
Zn35 Zn 0.82303 0.82359 0.95962 0.0
C36 C 0.73721 0.8119 0.98098 0.0
O37 O 0.76501 0.81806 0.92863 0.0
C38 C 0.90637 0.86012 0.03526 0.0
O39 O 0.8554 0.89496 0.94031 0.0
O40 O 0.82545 0.90331 0.05434 0.0
N41 N 0.82018 0.8042 0.83276 0.0
C42 C 0.83903 0.82743 0.76551 0.0
C43 C 0.78892 0.76435 0.71225 0.0
N44 N 0.78934 0.76481 0.79969 0.0
N45 N 0.81979 0.80336 0.68955 0.0
C46 C 0.80515 0.8423 0.27933 0.0
C47 C 0.85621 0.90493 0.33243 0.0
N48 N 0.82319 0.86595 0.21195 0.0
N49 N 0.85462 0.90505 0.24497 0.0
N50 N 0.82565 0.86579 0.35523 0.0
H51 H 0.74764 0.78887 0.20941 0.0
H52 H 0.74736 0.79136 0.32691 0.0
H53 H 0.77922 0.77271 0.27446 0.0
C54 C 0.76755 0.79625 0.27163 0.0
C55 C 0.87636 0.87349 0.77341 0.0
H56 H 0.86416 0.8967 0.77676 0.0
H57 H 0.89518 0.87964 0.71552 0.0
H58 H 0.89781 0.87945 0.83285 0.0
O59 O 0.88155 0.82875 0.98027 0.0
O60 O 0.89019 0.87568 0.08857 0.0
C61 C 0.84856 0.91963 0.99269 0.0
O62 O 0.81383 0.78927 0.12528 0.0
O63 O 0.79105 0.75502 0.9955 0.0
Zn64 Zn 0.17519 0.03622 0.93565 0.0
O65 O 0.2449 0.0856 0.9765 0.0
C66 C 0.19486 0.9627 0.9178 0.0
Zn67 Zn 0.15957 -0.00275 0.04526 0.0
C68 C 0.24886 0.0793 0.0567 0.0
O69 O 0.21786 0.04717 0.08575 0.0
C70 C 0.08259 0.9519 0.9525 0.0
O71 O 0.12692 0.0359 0.07721 0.0
O72 O 0.16097 0.08125 0.98002 0.0
N73 N 0.15748 0.98113 0.17077 0.0
C74 C 0.16301 0.00676 0.24381 0.0
C75 C 0.15558 0.94673 0.28356 0.0
N76 N 0.15302 0.94386 0.19551 0.0
N77 N 0.16173 0.98588 0.31494 0.0
C78 C 0.19577 0.05601 0.74602 0.0
C79 C 0.13513 0.04632 0.69663 0.0
N80 N 0.17338 0.05479 0.8145 0.0
N81 N 0.13604 0.04941 0.78365 0.0
N82 N 0.17172 0.04938 0.66992 0.0
H83 H 0.25837 0.09671 0.81342 0.0
H84 H 0.25911 0.08754 0.69805 0.0
H85 H 0.24843 0.0445 0.77016 0.0
C86 C 0.24313 0.07198 0.7566 0.0
C87 C 0.17185 0.05324 0.2474 0.0
H88 H 0.18769 0.07064 0.19109 0.0
H89 H 0.19286 0.07262 0.30681 0.0
H90 H 0.1409 0.05287 0.24977 0.0
O91 O 0.10273 0.94556 1.01331 0.0
O92 O 0.10289 0.98621 0.91094 0.0
C93 C 0.13575 0.07046 0.03948 0.0
O94 O 0.19029 0.9914 0.88134 0.0
O95 O 0.18834 0.95858 0.99872 0.0
Zn96 Zn 0.63773 0.52256 0.27293 0.0
O97 O 0.68097 0.49499 0.24854 0.0
C98 C 0.59799 0.44414 0.34409 0.0
Zn99 Zn 0.6735 0.54086 0.4001 0.0
C100 C 0.71416 0.50615 0.30111 0.0
O101 O 0.72149 0.53211 0.36671 0.0
C102 C 0.59832 0.55513 0.39593 0.0
O103 O 0.71615 0.61143 0.38428 0.0
O104 O 0.68515 0.58335 0.25311 0.0
N105 N 0.69421 0.54369 0.52802 0.0
C106 C 0.68793 0.56114 0.60171 0.0
C107 C 0.70705 0.51599 0.63921 0.0
N108 N 0.70665 0.51601 0.55177 0.0
N109 N 0.69531 0.54405 0.67203 0.0
C110 C 0.6328 0.50857 0.07161 0.0
C111 C 0.60659 0.54811 0.03393 0.0
N112 N 0.61929 0.51946 0.14374 0.0
N113 N 0.60262 0.54367 0.11983 0.0
N114 N 0.62594 0.52681 1.0025 0.0
H115 H 0.68594 0.49736 0.08743 0.0
H116 H 0.64636 0.46358 0.99988 0.0
H117 H 0.63453 0.45216 0.11137 0.0
C118 C 0.65088 0.47858 0.06736 0.0
C119 C 0.675 0.5952 0.60579 0.0
H120 H 0.68636 0.61522 0.54957 0.0
H121 H 0.68903 0.61672 0.6674 0.0
H122 H 0.63941 0.57903 0.60489 0.0
O123 O 0.62583 0.55104 0.44158 0.0
O124 O 0.5958 0.54845 0.31305 0.0
C125 C 0.71281 0.61564 0.30269 0.0
O126 O 0.58975 0.46211 0.28361 0.0
O127 O 0.63031 0.46766 0.40014 0.0
Zn128 Zn 0.47896 0.18719 0.40094 0.0
O129 O 0.41081 0.16936 0.38058 0.0
C130 C 0.45288 0.09157 0.40317 0.0
Zn131 Zn 0.482 0.15828 0.2738 0.0
C132 C 0.399 0.15793 0.29933 0.0
O133 O 0.42296 0.15171 0.25111 0.0
C134 C 0.56521 0.19391 0.34678 0.0
O135 O 0.51168 0.22797 0.24252 0.0
O136 O 0.49484 0.24646 0.3662 0.0
N137 N 0.47435 0.13607 0.14467 0.0
C138 C 0.49414 0.15759 0.07589 0.0
C139 C 0.43537 0.1007 0.02562 0.0
N140 N 0.43814 0.10039 0.11304 0.0
N141 N 0.47006 0.13638 1.00063 0.0
C142 C 0.46472 0.19256 0.59721 0.0
C143 C 0.52763 0.24208 0.64848 0.0
N144 N 0.48754 0.21078 0.52891 0.0
N145 N 0.5264 0.24205 0.56112 0.0
N146 N 0.48937 0.21119 0.67328 0.0
H147 H 0.409 0.1383 0.52365 0.0
H148 H 0.39774 0.1706 0.59849 0.0
H149 H 0.41259 0.13318 0.63985 0.0
C150 C 0.41859 0.15619 0.58905 0.0
C151 C 0.53488 0.20134 0.08272 0.0
H152 H 0.52668 0.22742 0.07564 0.0
H153 H 0.55528 0.20302 0.0298 0.0
H154 H 0.55377 0.20744 0.14591 0.0
O155 O 0.54067 0.1653 0.287 0.0
O156 O 0.54868 0.2074 0.40387 0.0
C157 C 0.51122 0.2569 0.2949 0.0
O158 O 0.463 0.12735 0.44529 0.0
O159 O 0.45438 0.09097 0.32016 0.0
Zn160 Zn 0.81727 0.33321 0.4231 0.0
O161 O 0.84291 0.28819 0.40667 0.0
C162 C 0.908 0.40931 0.45767 0.0
Zn163 Zn 0.84102 0.36904 0.31013 0.0
C164 C 0.8509 0.28903 0.32652 0.0
O165 O 0.85079 0.3182 0.28371 0.0
C166 C 0.80151 0.41081 0.37514 0.0
O167 O 0.77129 0.32608 0.26209 0.0
O168 O 0.76145 0.28428 0.36835 0.0
N169 N 0.85964 0.38411 0.18728 0.0
C170 C 0.83525 0.37735 0.11259 0.0
C171 C 0.89383 0.38171 0.07784 0.0
N172 N 0.89617 0.38719 0.16544 0.0
N173 N 0.85562 0.37478 0.04309 0.0
C174 C 0.81506 0.3137 0.61663 0.0
C175 C 0.75965 0.31632 0.6505 0.0
N176 N 0.79494 0.31529 0.54215 0.0
N177 N 0.76025 0.31642 0.56329 0.0
N178 N 0.7938 0.31478 0.68572 0.0
H179 H 0.87216 0.31895 0.56459 0.0
H180 H 0.84007 0.27054 0.61784 0.0
H181 H 0.87323 0.32109 0.68275 0.0
C182 C 0.85269 0.30637 0.62075 0.0
C183 C 0.79354 0.37744 0.10752 0.0
H184 H 0.76597 0.34383 0.11 0.0
H185 H 0.78905 0.38973 0.04537 0.0
H186 H 0.79318 0.39833 0.16315 0.0
O187 O 0.83131 0.41975 0.32604 0.0
O188 O 0.78925 0.3781 0.42164 0.0
C189 C 0.74654 0.29241 0.30134 0.0
O190 O 0.87374 0.3818 0.48824 0.0
O191 O 0.90785 0.41117 0.37473 0.0
Zn192 Zn 0.34998 0.87308 0.73392 0.0
O193 O 0.30822 0.8018 0.75545 0.0
C194 C 0.3919 0.83384 0.66454 0.0
Zn195 Zn 0.31665 0.85035 0.60716 0.0
C196 C 0.27596 0.77686 0.70053 0.0
O197 O 0.26849 0.79312 0.63625 0.0
C198 C 0.3905 0.94248 0.6149 0.0
O199 O 0.27245 0.87736 0.62489 0.0
O200 O 0.30029 0.88198 0.75616 0.0
N201 N 0.29836 0.82946 0.47849 0.0
C202 C 0.30198 0.85219 0.40885 0.0
C203 C 0.29278 0.79025 0.36152 0.0
N204 N 0.29236 0.79088 0.44878 0.0
N205 N 0.29906 0.82848 0.33474 0.0
C206 C 0.36105 0.86677 0.93026 0.0
C207 C 0.36701 0.9268 0.9815 0.0
N208 N 0.3668 0.89155 0.8632 0.0
N209 N 0.37095 0.92902 0.89528 0.0
N210 N 0.36014 0.88781 1.0049 0.0
H211 H 0.32702 0.79634 0.9103 0.0
H212 H 0.37377 0.81952 0.98648 0.0
H213 H 0.37952 0.82301 0.87043 0.0
C214 C 0.36045 0.82403 0.924 0.0
C215 C 0.30772 0.89727 0.41321 0.0
H216 H 0.29418 0.90329 0.47187 0.0
H217 H 0.29175 0.90124 0.35383 0.0
H218 H 0.34244 0.92226 0.41659 0.0
O219 O 0.36547 0.90797 0.56743 0.0
O220 O 0.38946 0.94148 0.6977 0.0
C221 C 0.27221 0.88352 0.70761 0.0
O222 O 0.40052 0.86436 0.72186 0.0
O223 O 0.35944 0.82083 0.60844 0.0
Zn224 Zn 0.14234 0.51514 0.79966 0.0
O225 O 0.07271 0.49305 0.77454 0.0
C226 C 0.11834 0.42061 0.79181 0.0
Zn227 Zn 0.14693 0.48978 0.67126 0.0
C228 C 0.06194 0.48405 0.69245 0.0
O229 O 0.08769 0.48164 0.64326 0.0
C230 C 0.23036 0.52683 0.75312 0.0
O231 O 0.17558 0.5599 0.64628 0.0
O232 O 0.15589 0.57452 0.76997 0.0
N233 N 0.14281 0.46889 0.54329 0.0
C234 C 0.16138 0.49074 0.47418 0.0
C235 C 0.1078 0.42898 0.42481 0.0
N236 N 0.10996 0.4302 0.51239 0.0
N237 N 0.13968 0.46666 0.39913 0.0
C238 C 0.12622 0.51351 0.9951 0.0
C239 C 0.17982 0.5744 0.04818 0.0
N240 N 0.14636 0.5359 0.92764 0.0
N241 N 0.17929 0.57403 0.96076 0.0
N242 N 0.14674 0.53682 0.07145 0.0
H243 H 0.07229 0.45893 0.92083 0.0
H244 H 0.06643 0.46113 0.03518 0.0
H245 H 0.10271 0.44482 0.99668 0.0
C246 C 0.08975 0.46697 0.98619 0.0
C247 C 0.19831 0.53694 0.48023 0.0
H248 H 0.1855 0.55949 0.47545 0.0
H249 H 0.2191 0.5421 0.42618 0.0
H250 H 0.21829 0.54471 0.54256 0.0
O251 O 0.20725 0.49893 0.69083 0.0
O252 O 0.21271 0.53953 0.80877 0.0
C253 C 0.17435 0.58749 0.70149 0.0
O254 O 0.12945 0.45532 0.83871 0.0
O255 O 0.1186 0.42187 0.70921 0.0
Zn256 Zn 0.49169 0.66073 0.76449 0.0
O257 O 0.46208 0.70201 0.79614 0.0
C258 C 0.40955 0.61467 0.67907 0.0
Zn259 Zn 0.50029 0.68833 0.64525 0.0
C260 C 0.47329 0.73528 0.75222 0.0
O261 O 0.49666 0.74047 0.69075 0.0
C262 C 0.51768 0.61609 0.63447 0.0
O263 O 0.57153 0.7287 0.67377 0.0
O264 O 0.55095 0.71248 0.80462 0.0
N265 N 0.49865 0.70682 0.52368 0.0
C266 C 0.51623 0.70141 0.4525 0.0
C267 C 0.46576 0.71266 0.40912 0.0
N268 N 0.46764 0.71438 0.49676 0.0
N269 N 0.4957 0.70416 0.37997 0.0
C270 C 0.47437 0.64848 0.95762 0.0
C271 C 0.52067 0.63134 1.00109 0.0
N272 N 0.49177 0.64245 0.88677 0.0
N273 N 0.52019 0.63128 0.91371 0.0
N274 N 0.49229 0.64223 0.03006 0.0
H275 H 0.45376 0.69567 0.95881 0.0
H276 H 0.42046 0.64793 1.01389 0.0
H277 H 0.41731 0.64419 0.89606 0.0
C278 C 0.4393 0.65958 0.9563 0.0
C279 C 0.55384 0.69413 0.45352 0.0
H280 H 0.575 0.7097 0.51443 0.0
H281 H 0.57264 0.70786 0.39667 0.0
H282 H 0.54232 0.65861 0.44914 0.0
O283 O 0.50419 0.63647 0.59074 0.0
O284 O 0.52119 0.62219 0.71763 0.0
C285 C 0.58048 0.73399 0.75656 0.0
O286 O 0.43238 0.60813 0.73387 0.0
O287 O 0.4283 0.64719 0.63264 0.0
C288 C 0.10786 0.33318 0.93772 0.0
C289 C 0.06749 0.31978 0.97024 0.0
C290 C 0.12353 0.36377 0.87409 0.0
C291 C 0.09823 0.37991 0.83706 0.0
H292 H 0.12692 0.31911 0.95996 0.0
H293 H 0.15573 0.37518 0.8544 0.0
S294 S 0.98998 0.3542 0.89789 0.0
N295 N 0.00335 0.3261 0.96184 0.0
N296 N 0.03078 0.37982 0.83739 0.0
C297 C 0.05763 0.36601 0.86803 0.0
C298 C 0.04282 0.33701 0.93565 0.0
C299 C 0.67844 0.81796 0.90187 0.0
C300 C 0.69281 0.79152 0.93948 0.0
C301 C 0.64399 0.80037 0.83584 0.0
C302 C 0.62431 0.75629 0.80173 0.0
H303 H 0.69467 0.8527 0.92214 0.0
H304 H 0.6322 0.8211 0.81248 0.0
S305 S 0.65118 0.6739 0.87474 0.0
N306 N 0.68503 0.71933 0.93584 0.0
N307 N 0.62154 0.68674 0.81149 0.0
C308 C 0.63889 0.72992 0.83813 0.0
C309 C 0.67278 0.74737 0.90663 0.0
C310 C 0.2106 0.94063 0.77193 0.0
C311 C 0.20818 0.93607 0.86284 0.0
C312 C 0.22764 0.92036 0.71885 0.0
C313 C 0.24298 0.89471 0.75423 0.0
H314 H 0.20038 0.96116 0.74154 0.0
H315 H 0.23086 0.9265 0.65105 0.0
S316 S 0.23545 0.86446 0.98366 0.0
N317 N 0.21681 0.89854 0.98211 0.0
N318 N 0.24778 0.85968 0.88349 0.0
C319 C 0.23682 0.88645 0.84324 0.0
C320 C 0.21982 0.90733 0.89718 0.0
C321 C 0.32066 0.10924 0.26854 0.0
C322 C 0.35756 0.14855 0.25527 0.0
C323 C 0.28634 0.08836 0.20378 0.0
C324 C 0.28692 0.10572 0.12215 0.0
H325 H 0.31983 0.09239 0.32583 0.0
H326 H 0.25975 0.05692 0.21744 0.0
S327 S 0.3741 0.21247 0.06257 0.0
N328 N 0.39161 0.20707 0.15956 0.0
N329 N 0.32617 0.16818 0.03833 0.0
C330 C 0.32244 0.14686 0.11097 0.0
C331 C 0.35774 0.16815 0.1774 0.0
C332 C 0.89349 0.2509 0.3122 0.0
C333 C 0.862 0.25925 0.27756 0.0
C334 C 0.91396 0.23536 0.25741 0.0
C335 C 0.90413 0.22783 0.16537 0.0
H336 H 0.90459 0.25932 0.38075 0.0
H337 H 0.93923 0.23114 0.28791 0.0
S338 S 0.8188 0.23812 0.04489 0.0
N339 N 0.81773 0.25357 0.14719 0.0
N340 N 0.857 0.22524 0.04496 0.0
C341 C 0.87051 0.23308 0.13111 0.0
C342 C 0.84928 0.24845 0.18698 0.0
C343 C 0.7325 0.69541 0.13538 0.0
C344 C 0.77658 0.71397 0.12429 0.0
C345 C 0.71349 0.66729 0.20093 0.0
C346 C 0.73753 0.65616 0.25845 0.0
H347 H 0.71288 0.70428 0.09566 0.0
H348 H 0.67903 0.65282 0.20493 0.0
S349 S 0.85406 0.69499 0.25489 0.0
N350 N 0.84421 0.72004 0.17712 0.0
N351 N 0.80762 0.66456 0.29676 0.0
C352 C 0.78163 0.67426 0.24785 0.0
C353 C 0.80127 0.70373 0.18179 0.0
C354 C 0.98168 0.43957 0.66771 0.0
C355 C 0.02057 0.47512 0.64779 0.0
C356 C 0.94546 0.42038 0.60664 0.0
C357 C 0.9467 0.43493 0.52204 0.0
H358 H 0.98001 0.42444 0.72786 0.0
H359 H 0.9167 0.3925 0.62528 0.0
S360 S 0.03864 0.53412 0.44756 0.0
N361 N 0.05654 0.52946 0.54471 0.0
N362 N 0.98863 0.4925 0.42944 0.0
C363 C 0.98444 0.47292 0.50466 0.0
C364 C 0.02115 0.4931 0.56765 0.0
C365 C 0.51446 0.55658 0.53348 0.0
C366 C 0.53915 0.59682 0.58467 0.0
C367 C 0.53232 0.5439 0.46606 0.0
C368 C 0.57453 0.5723 0.44406 0.0
H369 H 0.48104 0.53502 0.54507 0.0
H370 H 0.51339 0.51148 0.43229 0.0
S371 S 0.65043 0.68336 0.55082 0.0
N372 N 0.60729 0.66538 0.60596 0.0
N373 N 0.6391 0.64366 0.47478 0.0
C374 C 0.59851 0.61335 0.49211 0.0
C375 C 0.58136 0.62505 0.56342 0.0
C376 C 0.42372 0.05387 0.53812 0.0
C377 C 0.43902 0.05271 0.45558 0.0
C378 C 0.4117 0.02 0.59342 0.0
C379 C 0.41445 0.98298 0.56903 0.0
H380 H 0.42005 0.08098 0.56019 0.0
H381 H 0.39797 0.02183 0.65345 0.0
S382 S 0.45856 0.9656 0.36713 0.0
N383 N 0.46046 0.01279 0.35727 0.0
N384 N 0.43756 0.94854 0.46031 0.0
C385 C 0.43151 0.98189 0.48857 0.0
C386 C 0.44373 0.01665 0.43204 0.0
C387 C 0.06794 0.07363 0.03702 0.0
C388 C 0.11316 0.09522 0.05073 0.0
C389 C 0.04673 0.0971 0.01967 0.0
C390 C 0.07009 0.14296 0.01706 0.0
H391 H 0.04901 0.03834 0.03654 0.0
H392 H 0.01182 0.07945 1.01077 0.0
S393 S 0.18865 0.21498 0.05469 0.0
N394 N 0.18033 0.16503 0.06305 0.0
N395 N 0.14046 0.20914 0.03447 0.0
C396 C 0.1151 0.16489 0.03357 0.0
C397 C 0.1366 0.14107 0.04969 0.0
C398 C 0.85988 0.99232 0.96121 0.0
C399 C 0.87513 0.96763 1.00115 0.0
C400 C 0.87781 0.03696 0.98713 0.0
C401 C 0.91174 0.05877 0.05432 0.0
H402 H 0.83285 0.9767 0.91199 0.0
H403 H 0.86485 0.0545 0.95343 0.0
S404 S 0.96101 0.00719 0.18328 0.0
N405 N 0.92392 0.96692 0.11502 0.0
N406 N 0.95896 0.05125 0.16095 0.0
C407 C 0.92697 0.03413 0.09519 0.0
C408 C 0.90838 0.98854 0.06922 0.0
C409 C 0.96971 0.92567 0.98542 0.0
C410 C 0.95215 0.88406 0.01777 0.0
C411 C 0.01058 0.946 0.9527 0.0
C412 C 0.03514 0.92526 0.95095 0.0
H413 H 0.9513 0.94215 0.98295 0.0
H414 H 0.02379 0.97882 0.9324 0.0
S415 S 0.00016 0.81289 1.01292 0.0
N416 N 0.95974 0.82051 0.03446 0.0
N417 N 0.03654 0.8585 0.97421 0.0
C418 C 0.01635 0.88226 0.97689 0.0
C419 C 0.97498 0.86179 1.01018 0.0
C420 C 0.77799 0.50239 0.3568 0.0
C421 C 0.73859 0.48268 0.30385 0.0
C422 C 0.79668 0.47814 0.38443 0.0
C423 C 0.77673 0.43308 0.36091 0.0
H424 H 0.79388 0.5368 0.37993 0.0
H425 H 0.82719 0.49487 0.42402 0.0
S426 S 0.6781 0.36717 0.21001 0.0
N427 N 0.68301 0.41618 0.2211 0.0
N428 N 0.71925 0.37101 0.27029 0.0
C429 C 0.73897 0.41346 0.30342 0.0
C430 C 0.71972 0.43815 0.27531 0.0
C431 C 0.59758 0.3734 0.34801 0.0
C432 C 0.57494 0.39573 0.33506 0.0
C433 C 0.57803 0.32826 0.32354 0.0
C434 C 0.53531 0.304 0.28535 0.0
H435 H 0.63076 0.39099 0.37583 0.0
H436 H 0.59568 0.31173 0.33875 0.0
S437 S 0.46187 0.3466 0.23959 0.0
N438 N 0.50737 0.38999 0.28143 0.0
N439 N 0.47077 0.30513 0.23802 0.0
C440 C 0.51255 0.32594 0.27177 0.0
C441 C 0.53229 0.37174 0.29609 0.0
C442 C 0.63882 0.25967 0.37893 0.0
C443 C 0.61209 0.21811 0.33484 0.0
C444 C 0.68163 0.28577 0.35955 0.0
C445 C 0.69946 0.27187 0.29445 0.0
H446 H 0.6267 0.27228 0.42882 0.0
H447 H 0.70173 0.31632 0.39933 0.0
S448 S 0.64427 0.16546 0.16166 0.0
N449 N 0.60724 0.16382 0.22327 0.0
N450 N 0.68807 0.21357 0.18844 0.0
C451 C 0.67339 0.23063 0.24974 0.0
C452 C 0.6297 0.20366 0.26948 0.0
C453 C 0.40752 0.74173 0.73685 0.0
C454 C 0.4526 0.76226 0.75244 0.0
C455 C 0.38799 0.76417 0.70145 0.0
C456 C 0.41294 0.80799 0.68128 0.0
H457 H 0.38747 0.70758 0.74813 0.0
H458 H 0.35312 0.74751 0.69182 0.0
S459 S 0.53172 0.87784 0.71943 0.0
N460 N 0.52122 0.82973 0.75055 0.0
N461 N 0.48455 0.87209 0.68739 0.0
C462 C 0.45773 0.82941 0.70117 0.0
C463 C 0.4775 0.80661 0.7362 0.0
C464 C 0.22127 0.66212 0.77627 0.0
C465 C 0.20053 0.63529 0.69794 0.0
C466 C 0.2462 0.70787 0.77742 0.0
C467 C 0.25058 0.72846 0.70044 0.0
H468 H 0.2185 0.64757 0.8375 0.0
H469 H 0.26141 0.72712 0.8389 0.0
S470 S 0.20394 0.67244 0.47776 0.0
N471 N 0.1871 0.63215 0.54209 0.0
N472 N 0.23314 0.71785 0.54239 0.0
C473 C 0.23032 0.70167 0.62135 0.0
C474 C 0.20555 0.65515 0.62049 0.0
C475 C 0.34457 0.55234 0.73345 0.0
C476 C 0.36232 0.59033 0.68723 0.0
C477 C 0.3025 0.53317 0.75964 0.0
C478 C 0.27696 0.55193 0.74303 0.0
H479 H 0.36359 0.53749 0.75074 0.0
H480 H 0.28975 0.50327 0.79232 0.0
S481 S 0.30547 0.64797 0.61656 0.0
N482 N 0.34887 0.64319 0.61903 0.0
N483 N 0.27069 0.60838 0.67201 0.0
C484 C 0.2937 0.58913 0.69528 0.0
C485 C 0.33608 0.60796 0.66626 0.0
C486 C 0.94164 0.1746 0.55862 0.0
C487 C 0.96827 0.18768 0.63653 0.0
C488 C 0.95942 0.18622 0.47845 0.0
C489 C 0.00447 0.21002 0.47347 0.0
H490 H 0.90697 0.15495 0.55991 0.0
H491 H 0.9378 0.17602 0.41978 0.0
S492 S 0.08778 0.25266 0.65972 0.0
N493 N 0.04159 0.22653 0.70468 0.0
N494 N 0.07499 0.24786 0.55378 0.0
C495 C 0.03127 0.22433 0.55133 0.0
C496 C 0.01319 0.21297 0.63292 0.0
C497 C 0.81343 0.85314 0.59284 0.0
C498 C 0.8219 0.819 0.60539 0.0
C499 C 0.81474 0.86848 0.51055 0.0
C500 C 0.82427 0.84983 0.43895 0.0
H501 H 0.80529 0.86759 0.64691 0.0
H502 H 0.8079 0.89465 0.50235 0.0
S503 S 0.85219 0.76232 0.44054 0.0
N504 N 0.84157 0.76827 0.5417 0.0
N505 N 0.84553 0.79799 0.38682 0.0
C506 C 0.83366 0.81632 0.45126 0.0
C507 C 0.8319 0.80052 0.53471 0.0
C508 C 0.14685 0.03935 0.51507 0.0
C509 C 0.17505 0.03786 0.57996 0.0
C510 C 0.14148 0.02083 0.43018 0.0
C511 C 0.16574 0.00195 0.40427 0.0
H512 H 0.12722 0.05358 0.53078 0.0
H513 H 0.11793 0.02114 0.38433 0.0
S514 S 0.24736 0.99263 0.54075 0.0
N515 N 0.22809 0.01492 0.60837 0.0
N516 N 0.22118 0.98525 0.44505 0.0
C517 C 0.1953 0.00149 0.46567 0.0
C518 C 0.19956 0.01857 0.55409 0.0
C519 C 0.63458 0.52601 0.76132 0.0
C520 C 0.67895 0.54236 0.75558 0.0
C521 C 0.61738 0.52118 0.84242 0.0
C522 C 0.644 0.53215 0.91992 0.0
H523 H 0.613 0.51602 0.70259 0.0
H524 H 0.58305 0.5081 0.8448 0.0
S525 S 0.76283 0.58101 0.93934 0.0
N526 N 0.74932 0.57196 0.8332 0.0
N527 N 0.71737 0.56429 0.98619 0.0
C528 C 0.68861 0.54997 0.91491 0.0
C529 C 0.70598 0.55454 0.83243 0.0
C530 C 0.51462 0.18311 0.79152 0.0
C531 C 0.4837 0.19262 0.75599 0.0
C532 C 0.50962 0.16391 0.87061 0.0
C533 C 0.47359 0.15361 0.91703 0.0
H534 H 0.54266 0.19014 0.75716 0.0
H535 H 0.53394 0.15688 0.89562 0.0
S536 S 0.38354 0.17177 0.8526 0.0
N537 N 0.41627 0.19091 0.77417 0.0
N538 N 0.40621 0.15364 0.92192 0.0
C539 C 0.44222 0.16247 0.88199 0.0
C540 C 0.44752 0.18242 0.80185 0.0
C541 C 0.84997 0.36603 0.79877 0.0
C542 C 0.81006 0.32758 0.77562 0.0
C543 C 0.86441 0.38147 0.88637 0.0
C544 C 0.83902 0.35958 0.95364 0.0
H545 H 0.86965 0.38477 0.74865 0.0
H546 H 0.89539 0.41104 0.90183 0.0
S547 S 0.73308 0.25612 0.92656 0.0
N548 N 0.74601 0.26747 0.82596 0.0
N549 N 0.77326 0.29577 0.99089 0.0
C550 C 0.79928 0.32076 0.93115 0.0
C551 C 0.78469 0.30509 0.84199 0.0
C552 C 0.35194 0.88281 0.24531 0.0
C553 C 0.31294 0.84355 0.2511 0.0
C554 C 0.36768 0.89652 0.16461 0.0
C555 C 0.3454 0.87094 0.08694 0.0
H556 H 0.37087 0.90253 0.30366 0.0
H557 H 0.39758 0.92726 0.16268 0.0
S558 S 0.24084 0.76597 0.06703 0.0
N559 N 0.2521 0.77953 0.17303 0.0
N560 N 0.28112 0.80534 0.02059 0.0
C561 C 0.30626 0.83151 0.09178 0.0
C562 C 0.29026 0.81772 0.17411 0.0
C563 C 0.17957 0.51672 0.19032 0.0
C564 C 0.14466 0.52 0.15477 0.0
C565 C 0.17746 0.49819 0.26936 0.0
C566 C 0.14042 0.4825 0.3151 0.0
H567 H 0.20837 0.52804 0.15594 0.0
H568 H 0.20481 0.49599 0.29494 0.0
S569 S 0.04033 0.48304 0.24845 0.0
N570 N 0.07252 0.50679 0.17116 0.0
N571 N 0.06778 0.47041 0.31848 0.0
C572 C 0.10515 0.48511 0.27957 0.0
C573 C 0.10754 0.50446 0.1998 0.0
C574 C 0.50226 0.71539 0.22473 0.0
C575 C 0.49551 0.68841 0.29261 0.0
C576 C 0.50088 0.69995 0.13862 0.0
C577 C 0.49212 0.6569 0.11811 0.0
H578 H 0.50899 0.74863 0.23873 0.0
H579 H 0.50735 0.72195 0.08785 0.0
S580 S 0.46928 0.57257 0.27194 0.0
N581 N 0.47711 0.61593 0.33356 0.0
N582 N 0.47591 0.58748 0.1714 0.0
C583 C 0.48511 0.62961 0.1853 0.0
C584 C 0.48622 0.64516 0.27278 0.0
loop_
_geom_bond_atom_site_label_1
_geom_bond_atom_site_label_2
_geom_bond_distance
_geom_bond_site_symmetry_2
_ccdc_geom_bond_type
Zn0 O1 2.055 1_455 S
Zn0 O8 2.046 1_455 S
Zn0 N16 2.036 . S
Zn0 O28 2.053 . S
Zn0 O30 2.066 . S
O1 Zn0 2.055 1_655 S
O1 C4 1.259 . S
C2 O30 1.256 . S
C2 O31 1.244 1_554 S
Zn3 O5 2.046 . S
Zn3 O7 2.055 . S
Zn3 N9 2.036 . S
Zn3 O27 2.066 1_655 S
Zn3 O31 2.053 1_655 S
C4 O1 1.259 . S
C4 O5 1.254 1_554 S
O5 Zn3 2.046 . S
O5 C4 1.254 1_556 S
C6 O27 1.256 1_554 S
C6 O28 1.244 . S
O7 Zn3 2.055 . S
O7 C29 1.259 1_556 S
O8 Zn0 2.046 1_655 S
O8 C29 1.254 . S
N9 Zn3 2.036 . S
N9 C10 1.298 . S
N9 N12 1.398 . S
C10 N9 1.298 . S
C10 N13 1.367 . S
C10 C23 1.481 . S
C11 N12 1.299 . S
C11 N13 1.379 . S
N12 N9 1.398 . S
N12 C11 1.299 . S
N13 C10 1.367 . S
N13 C11 1.379 . S
C14 N16 1.298 . S
C14 N18 1.367 . S
C14 C22 1.481 . S
C15 N17 1.299 . S
C15 N18 1.379 . S
N16 Zn0 2.036 . S
N16 C14 1.298 . S
N16 N17 1.398 . S
N17 C15 1.299 . S
N17 N16 1.398 . S
N18 C14 1.367 . S
N18 C15 1.379 . S
H19 C22 0.980 1_655 S
H20 C22 0.981 . S
H21 C22 0.981 . S
C22 C14 1.481 . S
C22 H19 0.980 1_455 S
C22 H20 0.981 . S
C22 H21 0.981 . S
C23 C10 1.481 . S
C23 H24 0.980 . S
C23 H25 0.981 . S
C23 H26 0.981 . S
H24 C23 0.980 . S
H25 C23 0.981 . S
H26 C23 0.981 . S
O27 Zn3 2.066 1_455 S
O27 C6 1.256 1_556 S
O28 Zn0 2.053 . S
O28 C6 1.244 . S
C29 O7 1.259 1_554 S
C29 O8 1.254 . S
O30 Zn0 2.066 . S
O30 C2 1.256 . S
O31 C2 1.244 1_556 S
O31 Zn3 2.053 1_455 S
Zn32 O33 2.055 . S
Zn32 O40 2.046 . S
Zn32 N48 2.036 . S
Zn32 O60 2.053 . S
Zn32 O62 2.066 . S
O33 Zn32 2.055 . S
O33 C36 1.259 . S
C34 O62 1.256 . S
C34 O63 1.244 1_554 S
Zn35 O37 2.046 . S
Zn35 O39 2.055 . S
Zn35 N41 2.036 . S
Zn35 O59 2.066 . S
Zn35 O63 2.053 . S
C36 O33 1.259 . S
C36 O37 1.254 1_554 S
O37 Zn35 2.046 . S
O37 C36 1.254 1_556 S
C38 O59 1.256 1_554 S
C38 O60 1.244 . S
O39 Zn35 2.055 . S
O39 C61 1.259 1_556 S
O40 Zn32 2.046 . S
O40 C61 1.254 . S
N41 Zn35 2.036 . S
N41 C42 1.298 . S
N41 N44 1.398 . S
C42 N41 1.298 . S
C42 N45 1.367 . S
C42 C55 1.481 . S
C43 N44 1.299 . S
C43 N45 1.379 . S
N44 N41 1.398 . S
N44 C43 1.299 . S
N45 C42 1.367 . S
N45 C43 1.379 . S
C46 N48 1.298 . S
C46 N50 1.367 . S
C46 C54 1.481 . S
C47 N49 1.299 . S
C47 N50 1.379 . S
N48 Zn32 2.036 . S
N48 C46 1.298 . S
N48 N49 1.398 . S
N49 C47 1.299 . S
N49 N48 1.398 . S
N50 C46 1.367 . S
N50 C47 1.379 . S
H51 C54 0.980 . S
H52 C54 0.981 . S
H53 C54 0.981 . S
C54 C46 1.481 . S
C54 H51 0.980 . S
C54 H52 0.981 . S
C54 H53 0.981 . S
C55 C42 1.481 . S
C55 H56 0.980 . S
C55 H57 0.981 . S
C55 H58 0.981 . S
H56 C55 0.980 . S
H57 C55 0.981 . S
H58 C55 0.981 . S
O59 Zn35 2.066 . S
O59 C38 1.256 1_556 S
O60 Zn32 2.053 . S
O60 C38 1.244 . S
C61 O39 1.259 1_554 S
C61 O40 1.254 . S
O62 Zn32 2.066 . S
O62 C34 1.256 . S
O63 C34 1.244 1_556 S
O63 Zn35 2.053 . S
Zn64 O65 2.055 . S
Zn64 O72 2.046 . S
Zn64 N80 2.036 . S
Zn64 O92 2.053 1_545 S
Zn64 O94 2.066 1_545 S
O65 Zn64 2.055 . S
O65 C68 1.259 1_556 S
C66 O94 1.256 . S
C66 O95 1.244 1_556 S
Zn67 O69 2.046 . S
Zn67 O71 2.055 . S
Zn67 N73 2.036 1_545 S
Zn67 O91 2.066 1_545 S
Zn67 O95 2.053 1_545 S
C68 O65 1.259 1_554 S
C68 O69 1.254 . S
O69 Zn67 2.046 . S
O69 C68 1.254 . S
C70 O91 1.256 1_556 S
C70 O92 1.244 . S
O71 Zn67 2.055 . S
O71 C93 1.259 . S
O72 Zn64 2.046 . S
O72 C93 1.254 1_556 S
N73 Zn67 2.036 1_565 S
N73 C74 1.298 . S
N73 N76 1.398 . S
C74 N73 1.298 . S
C74 N77 1.367 . S
C74 C87 1.481 1_565 S
C75 N76 1.299 . S
C75 N77 1.379 . S
N76 N73 1.398 . S
N76 C75 1.299 . S
N77 C74 1.367 . S
N77 C75 1.379 . S
C78 N80 1.298 . S
C78 N82 1.367 . S
C78 C86 1.481 . S
C79 N81 1.299 . S
C79 N82 1.379 . S
N80 Zn64 2.036 . S
N80 C78 1.298 . S
N80 N81 1.398 . S
N81 C79 1.299 . S
N81 N80 1.398 . S
N82 C78 1.367 . S
N82 C79 1.379 . S
H83 C86 0.980 . S
H84 C86 0.981 . S
H85 C86 0.981 . S
C86 C78 1.481 . S
C86 H83 0.980 . S
C86 H84 0.981 . S
C86 H85 0.981 . S
C87 C74 1.481 1_545 S
C87 H88 0.980 . S
C87 H89 0.981 . S
C87 H90 0.981 1_545 S
H88 C87 0.980 . S
H89 C87 0.981 . S
H90 C87 0.981 1_565 S
O91 Zn67 2.066 1_565 S
O91 C70 1.256 1_554 S
O92 Zn64 2.053 1_565 S
O92 C70 1.244 . S
C93 O71 1.259 . S
C93 O72 1.254 1_554 S
O94 Zn64 2.066 1_565 S
O94 C66 1.256 . S
O95 C66 1.244 1_554 S
O95 Zn67 2.053 1_565 S
Zn96 O97 2.055 . S
Zn96 O104 2.046 . S
Zn96 N112 2.036 . S
Zn96 O124 2.053 . S
Zn96 O126 2.066 . S
O97 Zn96 2.055 . S
O97 C100 1.259 . S
C98 O126 1.256 . S
C98 O127 1.244 . S
Zn99 O101 2.046 . S
Zn99 O103 2.055 . S
Zn99 N105 2.036 . S
Zn99 O123 2.066 . S
Zn99 O127 2.053 . S
C100 O97 1.259 . S
C100 O101 1.254 . S
O101 Zn99 2.046 . S
O101 C100 1.254 . S
C102 O123 1.256 . S
C102 O124 1.244 . S
O103 Zn99 2.055 . S
O103 C125 1.259 . S
O104 Zn96 2.046 . S
O104 C125 1.254 . S
N105 Zn99 2.036 . S
N105 C106 1.298 . S
N105 N108 1.398 . S
C106 N105 1.298 . S
C106 N109 1.367 . S
C106 C119 1.481 . S
C107 N108 1.299 . S
C107 N109 1.379 . S
N108 N105 1.398 . S
N108 C107 1.299 . S
N109 C106 1.367 . S
N109 C107 1.379 . S
C110 N112 1.298 . S
C110 N114 1.367 1_554 S
C110 C118 1.481 . S
C111 N113 1.299 1_556 S
C111 N114 1.379 . S
N112 Zn96 2.036 . S
N112 C110 1.298 . S
N112 N113 1.398 . S
N113 C111 1.299 1_554 S
N113 N112 1.398 . S
N114 C110 1.367 1_556 S
N114 C111 1.379 . S
H115 C118 0.980 . S
H116 C118 0.981 1_556 S
H117 C118 0.981 . S
C118 C110 1.481 . S
C118 H115 0.980 . S
C118 H116 0.981 1_554 S
C118 H117 0.981 . S
C119 C106 1.481 . S
C119 H120 0.980 . S
C119 H121 0.981 . S
C119 H122 0.981 . S
H120 C119 0.980 . S
H121 C119 0.981 . S
H122 C119 0.981 . S
O123 Zn99 2.066 . S
O123 C102 1.256 . S
O124 Zn96 2.053 . S
O124 C102 1.244 . S
C125 O103 1.259 . S
C125 O104 1.254 . S
O126 Zn96 2.066 . S
O126 C98 1.256 . S
O127 C98 1.244 . S
O127 Zn99 2.053 . S
Zn128 O129 2.055 . S
Zn128 O136 2.046 . S
Zn128 N144 2.036 . S
Zn128 O156 2.053 . S
Zn128 O158 2.066 . S
O129 Zn128 2.055 . S
O129 C132 1.259 . S
C130 O158 1.256 . S
C130 O159 1.244 . S
Zn131 O133 2.046 . S
Zn131 O135 2.055 . S
Zn131 N137 2.036 . S
Zn131 O155 2.066 . S
Zn131 O159 2.053 . S
C132 O129 1.259 . S
C132 O133 1.254 . S
O133 Zn131 2.046 . S
O133 C132 1.254 . S
C134 O155 1.256 . S
C134 O156 1.244 . S
O135 Zn131 2.055 . S
O135 C157 1.259 . S
O136 Zn128 2.046 . S
O136 C157 1.254 . S
N137 Zn131 2.036 . S
N137 C138 1.298 . S
N137 N140 1.398 . S
C138 N137 1.298 . S
C138 N141 1.367 1_554 S
C138 C151 1.481 . S
C139 N140 1.299 1_556 S
C139 N141 1.379 . S
N140 N137 1.398 . S
N140 C139 1.299 1_554 S
N141 C138 1.367 1_556 S
N141 C139 1.379 . S
C142 N144 1.298 . S
C142 N146 1.367 . S
C142 C150 1.481 . S
C143 N145 1.299 . S
C143 N146 1.379 . S
N144 Zn128 2.036 . S
N144 C142 1.298 . S
N144 N145 1.398 . S
N145 C143 1.299 . S
N145 N144 1.398 . S
N146 C142 1.367 . S
N146 C143 1.379 . S
H147 C150 0.980 . S
H148 C150 0.981 . S
H149 C150 0.981 . S
C150 C142 1.481 . S
C150 H147 0.980 . S
C150 H148 0.981 . S
C150 H149 0.981 . S
C151 C138 1.481 . S
C151 H152 0.980 . S
C151 H153 0.981 1_554 S
C151 H154 0.981 . S
H152 C151 0.980 . S
H153 C151 0.981 1_556 S
H154 C151 0.981 . S
O155 Zn131 2.066 . S
O155 C134 1.256 . S
O156 Zn128 2.053 . S
O156 C134 1.244 . S
C157 O135 1.259 . S
C157 O136 1.254 . S
O158 Zn128 2.066 . S
O158 C130 1.256 . S
O159 C130 1.244 . S
O159 Zn131 2.053 . S
Zn160 O161 2.055 . S
Zn160 O168 2.046 . S
Zn160 N176 2.036 . S
Zn160 O188 2.053 . S
Zn160 O190 2.066 . S
O161 Zn160 2.055 . S
O161 C164 1.259 . S
C162 O190 1.256 . S
C162 O191 1.244 . S
Zn163 O165 2.046 . S
Zn163 O167 2.055 . S
Zn163 N169 2.036 . S
Zn163 O187 2.066 . S
Zn163 O191 2.053 . S
C164 O161 1.259 . S
C164 O165 1.254 . S
O165 Zn163 2.046 . S
O165 C164 1.254 . S
C166 O187 1.256 . S
C166 O188 1.244 . S
O167 Zn163 2.055 . S
O167 C189 1.259 . S
O168 Zn160 2.046 . S
O168 C189 1.254 . S
N169 Zn163 2.036 . S
N169 C170 1.298 . S
N169 N172 1.398 . S
C170 N169 1.298 . S
C170 N173 1.367 1_554 S
C170 C183 1.481 . S
C171 N172 1.299 . S
C171 N173 1.379 1_554 S
N172 N169 1.398 . S
N172 C171 1.299 . S
N173 C170 1.367 1_556 S
N173 C171 1.379 1_556 S
C174 N176 1.298 . S
C174 N178 1.367 . S
C174 C182 1.481 . S
C175 N177 1.299 . S
C175 N178 1.379 . S
N176 Zn160 2.036 . S
N176 C174 1.298 . S
N176 N177 1.398 . S
N177 C175 1.299 . S
N177 N176 1.398 . S
N178 C174 1.367 . S
N178 C175 1.379 . S
H179 C182 0.980 . S
H180 C182 0.981 . S
H181 C182 0.981 . S
C182 C174 1.481 . S
C182 H179 0.980 . S
C182 H180 0.981 . S
C182 H181 0.981 . S
C183 C170 1.481 . S
C183 H184 0.980 . S
C183 H185 0.981 1_554 S
C183 H186 0.981 . S
H184 C183 0.980 . S
H185 C183 0.981 1_556 S
H186 C183 0.981 . S
O187 Zn163 2.066 . S
O187 C166 1.256 . S
O188 Zn160 2.053 . S
O188 C166 1.244 . S
C189 O167 1.259 . S
C189 O168 1.254 . S
O190 Zn160 2.066 . S
O190 C162 1.256 . S
O191 C162 1.244 . S
O191 Zn163 2.053 . S
Zn192 O193 2.055 . S
Zn192 O200 2.046 . S
Zn192 N208 2.036 . S
Zn192 O220 2.053 . S
Zn192 O222 2.066 . S
O193 Zn192 2.055 . S
O193 C196 1.259 . S
C194 O222 1.256 . S
C194 O223 1.244 . S
Zn195 O197 2.046 . S
Zn195 O199 2.055 . S
Zn195 N201 2.036 . S
Zn195 O219 2.066 . S
Zn195 O223 2.053 . S
C196 O193 1.259 . S
C196 O197 1.254 . S
O197 Zn195 2.046 . S
O197 C196 1.254 . S
C198 O219 1.256 . S
C198 O220 1.244 . S
O199 Zn195 2.055 . S
O199 C221 1.259 . S
O200 Zn192 2.046 . S
O200 C221 1.254 . S
N201 Zn195 2.036 . S
N201 C202 1.298 . S
N201 N204 1.398 . S
C202 N201 1.298 . S
C202 N205 1.367 . S
C202 C215 1.481 . S
C203 N204 1.299 . S
C203 N205 1.379 . S
N204 N201 1.398 . S
N204 C203 1.299 . S
N205 C202 1.367 . S
N205 C203 1.379 . S
C206 N208 1.298 . S
C206 N210 1.367 1_556 S
C206 C214 1.481 . S
C207 N209 1.299 . S
C207 N210 1.379 1_556 S
N208 Zn192 2.036 . S
N208 C206 1.298 . S
N208 N209 1.398 . S
N209 C207 1.299 . S
N209 N208 1.398 . S
N210 C206 1.367 1_554 S
N210 C207 1.379 1_554 S
H211 C214 0.980 . S
H212 C214 0.981 . S
H213 C214 0.981 . S
C214 C206 1.481 . S
C214 H211 0.980 . S
C214 H212 0.981 . S
C214 H213 0.981 . S
C215 C202 1.481 . S
C215 H216 0.980 . S
C215 H217 0.981 . S
C215 H218 0.981 . S
H216 C215 0.980 . S
H217 C215 0.981 . S
H218 C215 0.981 . S
O219 Zn195 2.066 . S
O219 C198 1.256 . S
O220 Zn192 2.053 . S
O220 C198 1.244 . S
C221 O199 1.259 . S
C221 O200 1.254 . S
O222 Zn192 2.066 . S
O222 C194 1.256 . S
O223 C194 1.244 . S
O223 Zn195 2.053 . S
Zn224 O225 2.055 . S
Zn224 O232 2.046 . S
Zn224 N240 2.036 . S
Zn224 O252 2.053 . S
Zn224 O254 2.066 . S
O225 Zn224 2.055 . S
O225 C228 1.259 . S
C226 O254 1.256 . S
C226 O255 1.244 . S
Zn227 O229 2.046 . S
Zn227 O231 2.055 . S
Zn227 N233 2.036 . S
Zn227 O251 2.066 . S
Zn227 O255 2.053 . S
C228 O225 1.259 . S
C228 O229 1.254 . S
O229 Zn227 2.046 . S
O229 C228 1.254 . S
C230 O251 1.256 . S
C230 O252 1.244 . S
O231 Zn227 2.055 . S
O231 C253 1.259 . S
O232 Zn224 2.046 . S
O232 C253 1.254 . S
N233 Zn227 2.036 . S
N233 C234 1.298 . S
N233 N236 1.398 . S
C234 N233 1.298 . S
C234 N237 1.367 . S
C234 C247 1.481 . S
C235 N236 1.299 . S
C235 N237 1.379 . S
N236 N233 1.398 . S
N236 C235 1.299 . S
N237 C234 1.367 . S
N237 C235 1.379 . S
C238 N240 1.298 . S
C238 N242 1.367 1_556 S
C238 C246 1.481 . S
C239 N241 1.299 1_554 S
C239 N242 1.379 . S
N240 Zn224 2.036 . S
N240 C238 1.298 . S
N240 N241 1.398 . S
N241 C239 1.299 1_556 S
N241 N240 1.398 . S
N242 C238 1.367 1_554 S
N242 C239 1.379 . S
H243 C246 0.980 . S
H244 C246 0.981 . S
H245 C246 0.981 . S
C246 C238 1.481 . S
C246 H243 0.980 . S
C246 H244 0.981 . S
C246 H245 0.981 . S
C247 C234 1.481 . S
C247 H248 0.980 . S
C247 H249 0.981 . S
C247 H250 0.981 . S
H248 C247 0.980 . S
H249 C247 0.981 . S
H250 C247 0.981 . S
O251 Zn227 2.066 . S
O251 C230 1.256 . S
O252 Zn224 2.053 . S
O252 C230 1.244 . S
C253 O231 1.259 . S
C253 O232 1.254 . S
O254 Zn224 2.066 . S
O254 C226 1.256 . S
O255 C226 1.244 . S
O255 Zn227 2.053 . S
Zn256 O257 2.055 . S
Zn256 O264 2.046 . S
Zn256 N272 2.036 . S
Zn256 O284 2.053 . S
Zn256 O286 2.066 . S
O257 Zn256 2.055 . S
O257 C260 1.259 . S
C258 O286 1.256 . S
C258 O287 1.244 . S
Zn259 O261 2.046 . S
Zn259 O263 2.055 . S
Zn259 N265 2.036 . S
Zn259 O283 2.066 . S
Zn259 O287 2.053 . S
C260 O257 1.259 . S
C260 O261 1.254 . S
O261 Zn259 2.046 . S
O261 C260 1.254 . S
C262 O283 1.256 . S
C262 O284 1.244 . S
O263 Zn259 2.055 . S
O263 C285 1.259 . S
O264 Zn256 2.046 . S
O264 C285 1.254 . S
N265 Zn259 2.036 . S
N265 C266 1.298 . S
N265 N268 1.398 . S
C266 N265 1.298 . S
C266 N269 1.367 . S
C266 C279 1.481 . S
C267 N268 1.299 . S
C267 N269 1.379 . S
N268 N265 1.398 . S
N268 C267 1.299 . S
N269 C266 1.367 . S
N269 C267 1.379 . S
C270 N272 1.298 . S
C270 N274 1.367 1_556 S
C270 C278 1.481 . S
C271 N273 1.299 1_554 S
C271 N274 1.379 . S
N272 Zn256 2.036 . S
N272 C270 1.298 . S
N272 N273 1.398 . S
N273 C271 1.299 1_556 S
N273 N272 1.398 . S
N274 C270 1.367 1_554 S
N274 C271 1.379 . S
H275 C278 0.980 . S
H276 C278 0.981 1_554 S
H277 C278 0.981 . S
C278 C270 1.481 . S
C278 H275 0.980 . S
C278 H276 0.981 1_556 S
C278 H277 0.981 . S
C279 C266 1.481 . S
C279 H280 0.980 . S
C279 H281 0.981 . S
C279 H282 0.981 . S
H280 C279 0.980 . S
H281 C279 0.981 . S
H282 C279 0.981 . S
O283 Zn259 2.066 . S
O283 C262 1.256 . S
O284 Zn256 2.053 . S
O284 C262 1.244 . S
C285 O263 1.259 . S
C285 O264 1.254 . S
O286 Zn256 2.066 . S
O286 C258 1.256 . S
O287 C258 1.244 . S
O287 Zn259 2.053 . S
C288 C289 1.369 . S
C288 C290 1.419 . S
C288 H292 0.930 . S
C289 C288 1.369 . S
C289 C298 1.429 . S
C290 C288 1.419 . S
C290 C291 1.363 . S
C290 H293 0.929 . S
C291 C290 1.363 . S
C291 C297 1.428 . S
H292 C288 0.930 . S
H293 C290 0.929 . S
S294 N295 1.613 1_655 S
S294 N296 1.610 1_655 S
N295 S294 1.613 1_455 S
N295 C298 1.350 . S
N296 S294 1.610 1_455 S
N296 C297 1.351 . S
C297 C291 1.428 . S
C297 N296 1.351 . S
C297 C298 1.434 . S
C298 C289 1.429 . S
C298 N295 1.350 . S
C298 C297 1.434 . S
C299 C300 1.369 . S
C299 C301 1.419 . S
C299 H303 0.930 . S
C300 C299 1.369 . S
C300 C309 1.429 . S
C301 C299 1.419 . S
C301 C302 1.363 . S
C301 H304 0.929 . S
C302 C301 1.363 . S
C302 C308 1.428 . S
H303 C299 0.930 . S
H304 C301 0.929 . S
S305 N306 1.613 1_556 S
S305 N307 1.610 . S
N306 S305 1.613 1_554 S
N306 C309 1.350 1_554 S
N307 S305 1.610 . S
N307 C308 1.351 . S
C308 C302 1.428 . S
C308 N307 1.351 . S
C308 C309 1.434 . S
C309 C300 1.429 . S
C309 N306 1.350 1_556 S
C309 C308 1.434 . S
C310 C311 1.369 . S
C310 C312 1.419 . S
C310 H314 0.930 . S
C311 C310 1.369 . S
C311 C320 1.429 . S
C312 C310 1.419 . S
C312 C313 1.363 . S
C312 H315 0.929 . S
C313 C312 1.363 . S
C313 C319 1.428 . S
H314 C310 0.930 . S
H315 C312 0.929 . S
S316 N317 1.613 . S
S316 N318 1.610 . S
N317 S316 1.613 . S
N317 C320 1.350 . S
N318 S316 1.610 . S
N318 C319 1.351 . S
C319 C313 1.428 . S
C319 N318 1.351 . S
C319 C320 1.434 . S
C320 C311 1.429 . S
C320 N317 1.350 . S
C320 C319 1.434 . S
C321 C322 1.369 . S
C321 C323 1.419 . S
C321 H325 0.930 . S
C322 C321 1.369 . S
C322 C331 1.429 . S
C323 C321 1.419 . S
C323 C324 1.363 . S
C323 H326 0.929 . S
C324 C323 1.363 . S
C324 C330 1.428 . S
H325 C321 0.930 . S
H326 C323 0.929 . S
S327 N328 1.609 1_556 S
S327 N329 1.611 . S
N328 S327 1.609 1_554 S
N328 C331 1.350 . S
N329 S327 1.611 . S
N329 C330 1.351 1_556 S
C330 C324 1.428 . S
C330 N329 1.351 1_554 S
C330 C331 1.434 . S
C331 C322 1.429 . S
C331 N328 1.350 . S
C331 C330 1.434 . S
C332 C333 1.369 . S
C332 C334 1.419 . S
C332 H336 0.930 . S
C333 C332 1.369 . S
C333 C342 1.429 . S
C334 C332 1.419 . S
C334 C335 1.363 . S
C334 H337 0.929 . S
C335 C334 1.363 . S
C335 C341 1.428 . S
H336 C332 0.930 . S
H337 C334 0.929 . S
S338 N339 1.613 . S
S338 N340 1.610 . S
N339 S338 1.613 . S
N339 C342 1.350 . S
N340 S338 1.610 . S
N340 C341 1.351 . S
C341 C335 1.428 . S
C341 N340 1.351 . S
C341 C342 1.434 . S
C342 C333 1.429 . S
C342 N339 1.350 . S
C342 C341 1.434 . S
C343 C344 1.369 . S
C343 C345 1.419 . S
C343 H347 0.930 . S
C344 C343 1.369 . S
C344 C353 1.429 . S
C345 C343 1.419 . S
C345 C346 1.363 . S
C345 H348 0.929 . S
C346 C345 1.363 . S
C346 C352 1.428 . S
H347 C343 0.930 . S
H348 C345 0.929 . S
S349 N350 1.613 . S
S349 N351 1.610 . S
N350 S349 1.613 . S
N350 C353 1.350 . S
N351 S349 1.610 . S
N351 C352 1.351 . S
C352 C346 1.428 . S
C352 N351 1.351 . S
C352 C353 1.434 . S
C353 C344 1.429 . S
C353 N350 1.350 . S
C353 C352 1.434 . S
C354 C355 1.369 1_655 S
C354 C356 1.419 . S
C354 H358 0.930 . S
C355 C354 1.369 1_455 S
C355 C364 1.429 . S
C356 C354 1.419 . S
C356 C357 1.363 . S
C356 H359 0.929 . S
C357 C356 1.363 . S
C357 C363 1.428 1_655 S
H358 C354 0.930 . S
H359 C356 0.929 . S
S360 N361 1.613 . S
S360 N362 1.610 . S
N361 S360 1.613 . S
N361 C364 1.350 . S
N362 S360 1.610 . S
N362 C363 1.351 . S
C363 C357 1.428 1_455 S
C363 N362 1.351 . S
C363 C364 1.434 . S
C364 C355 1.429 . S
C364 N361 1.350 . S
C364 C363 1.434 . S
C365 C366 1.369 . S
C365 C367 1.419 . S
C365 H369 0.930 . S
C366 C365 1.369 . S
C366 C375 1.429 . S
C367 C365 1.419 . S
C367 C368 1.363 . S
C367 H370 0.929 . S
C368 C367 1.363 . S
C368 C374 1.428 . S
H369 C365 0.930 . S
H370 C367 0.929 . S
S371 N372 1.613 . S
S371 N373 1.610 . S
N372 S371 1.613 . S
N372 C375 1.350 . S
N373 S371 1.610 . S
N373 C374 1.351 . S
C374 C368 1.428 . S
C374 N373 1.351 . S
C374 C375 1.434 . S
C375 C366 1.429 . S
C375 N372 1.350 . S
C375 C374 1.434 . S
C376 C377 1.369 . S
C376 C378 1.419 . S
C376 H380 0.930 . S
C377 C376 1.369 . S
C377 C386 1.427 1_545 S
C378 C376 1.419 . S
C378 C379 1.363 1_545 S
C378 H381 0.929 . S
C379 C378 1.363 1_565 S
C379 C385 1.428 . S
H380 C376 0.930 . S
H381 C378 0.929 . S
S382 N383 1.613 . S
S382 N384 1.610 . S
N383 S382 1.613 . S
N383 C386 1.351 . S
N384 S382 1.610 . S
N384 C385 1.351 . S
C385 C379 1.428 . S
C385 N384 1.351 . S
C385 C386 1.435 . S
C386 C377 1.427 1_565 S
C386 N383 1.351 . S
C386 C385 1.435 . S
C387 C388 1.369 . S
C387 C389 1.419 . S
C387 H391 0.930 . S
C388 C387 1.369 . S
C388 C397 1.429 . S
C389 C387 1.419 . S
C389 C390 1.363 . S
C389 H392 0.929 . S
C390 C389 1.363 . S
C390 C396 1.428 . S
H391 C387 0.930 . S
H392 C389 0.929 . S
S393 N394 1.613 . S
S393 N395 1.610 . S
N394 S393 1.613 . S
N394 C397 1.350 . S
N395 S393 1.610 . S
N395 C396 1.351 . S
C396 C390 1.428 . S
C396 N395 1.351 . S
C396 C397 1.434 . S
C397 C388 1.429 . S
C397 N394 1.350 . S
C397 C396 1.434 . S
C398 C399 1.369 1_546 S
C398 C400 1.419 . S
C398 H402 0.930 1_545 S
C399 C398 1.369 1_564 S
C399 C408 1.429 1_565 S
C400 C398 1.419 . S
C400 C401 1.363 1_556 S
C400 H403 0.929 . S
C401 C400 1.363 1_554 S
C401 C407 1.428 . S
H402 C398 0.930 1_565 S
H403 C400 0.929 . S
S404 N405 1.613 1_545 S
S404 N406 1.610 . S
N405 S404 1.613 1_565 S
N405 C408 1.350 1_565 S
N406 S404 1.610 . S
N406 C407 1.351 . S
C407 C401 1.428 . S
C407 N406 1.351 . S
C407 C408 1.434 . S
C408 C399 1.429 1_545 S
C408 N405 1.350 1_545 S
C408 C407 1.434 . S
C409 C410 1.369 1_556 S
C409 C411 1.419 1_655 S
C409 H413 0.930 . S
C410 C409 1.369 1_554 S
C410 C419 1.429 . S
C411 C409 1.419 1_455 S
C411 C412 1.361 1_556 S
C411 H414 0.929 . S
C412 C411 1.361 1_554 S
C412 C418 1.431 . S
H413 C409 0.930 . S
H414 C411 0.929 . S
S415 N416 1.613 1_455 S
S415 N417 1.610 . S
N416 S415 1.613 1_655 S
N416 C419 1.350 . S
N417 S415 1.610 . S
N417 C418 1.351 . S
C418 C412 1.431 . S
C418 N417 1.351 . S
C418 C419 1.434 1_455 S
C419 C410 1.429 . S
C419 N416 1.350 . S
C419 C418 1.434 1_655 S
C420 C421 1.369 . S
C420 C422 1.419 . S
C420 H424 0.930 . S
C421 C420 1.369 . S
C421 C430 1.429 . S
C422 C420 1.419 . S
C422 C423 1.363 . S
C422 H425 0.929 . S
C423 C422 1.363 . S
C423 C429 1.428 . S
H424 C420 0.930 . S
H425 C422 0.929 . S
S426 N427 1.613 . S
S426 N428 1.610 . S
N427 S426 1.613 . S
N427 C430 1.350 . S
N428 S426 1.610 . S
N428 C429 1.351 . S
C429 C423 1.428 . S
C429 N428 1.351 . S
C429 C430 1.434 . S
C430 C421 1.429 . S
C430 N427 1.350 . S
C430 C429 1.434 . S
C431 C432 1.369 . S
C431 C433 1.419 . S
C431 H435 0.930 . S
C432 C431 1.369 . S
C432 C441 1.429 . S
C433 C431 1.419 . S
C433 C434 1.363 . S
C433 H436 0.929 . S
C434 C433 1.363 . S
C434 C440 1.428 . S
H435 C431 0.930 . S
H436 C433 0.929 . S
S437 N438 1.613 . S
S437 N439 1.610 . S
N438 S437 1.613 . S
N438 C441 1.350 . S
N439 S437 1.610 . S
N439 C440 1.351 . S
C440 C434 1.428 . S
C440 N439 1.351 . S
C440 C441 1.434 . S
C441 C432 1.429 . S
C441 N438 1.350 . S
C441 C440 1.434 . S
C442 C443 1.369 . S
C442 C444 1.419 . S
C442 H446 0.930 . S
C443 C442 1.369 . S
C443 C452 1.429 . S
C444 C442 1.419 . S
C444 C445 1.363 . S
C444 H447 0.929 . S
C445 C444 1.363 . S
C445 C451 1.428 . S
H446 C442 0.930 . S
H447 C444 0.929 . S
S448 N449 1.613 . S
S448 N450 1.610 . S
N449 S448 1.613 . S
N449 C452 1.350 . S
N450 S448 1.610 . S
N450 C451 1.351 . S
C451 C445 1.428 . S
C451 N450 1.351 . S
C451 C452 1.434 . S
C452 C443 1.429 . S
C452 N449 1.350 . S
C452 C451 1.434 . S
C453 C454 1.369 . S
C453 C455 1.419 . S
C453 H457 0.930 . S
C454 C453 1.369 . S
C454 C463 1.429 . S
C455 C453 1.419 . S
C455 C456 1.363 . S
C455 H458 0.929 . S
C456 C455 1.363 . S
C456 C462 1.428 . S
H457 C453 0.930 . S
H458 C455 0.929 . S
S459 N460 1.613 . S
S459 N461 1.610 . S
N460 S459 1.613 . S
N460 C463 1.350 . S
N461 S459 1.610 . S
N461 C462 1.351 . S
C462 C456 1.428 . S
C462 N461 1.351 . S
C462 C463 1.434 . S
C463 C454 1.429 . S
C463 N460 1.350 . S
C463 C462 1.434 . S
C464 C465 1.369 . S
C464 C466 1.419 . S
C464 H468 0.930 . S
C465 C464 1.369 . S
C465 C474 1.429 . S
C466 C464 1.419 . S
C466 C467 1.363 . S
C466 H469 0.929 . S
C467 C466 1.363 . S
C467 C473 1.428 . S
H468 C464 0.930 . S
H469 C466 0.929 . S
S470 N471 1.613 . S
S470 N472 1.610 . S
N471 S470 1.613 . S
N471 C474 1.350 . S
N472 S470 1.610 . S
N472 C473 1.351 . S
C473 C467 1.428 . S
C473 N472 1.351 . S
C473 C474 1.434 . S
C474 C465 1.429 . S
C474 N471 1.350 . S
C474 C473 1.434 . S
C475 C476 1.369 . S
C475 C477 1.419 . S
C475 H479 0.930 . S
C476 C475 1.369 . S
C476 C485 1.429 . S
C477 C475 1.419 . S
C477 C478 1.363 . S
C477 H480 0.929 . S
C478 C477 1.363 . S
C478 C484 1.428 . S
H479 C475 0.930 . S
H480 C477 0.929 . S
S481 N482 1.613 . S
S481 N483 1.610 . S
N482 S481 1.613 . S
N482 C485 1.350 . S
N483 S481 1.610 . S
N483 C484 1.351 . S
C484 C478 1.428 . S
C484 N483 1.351 . S
C484 C485 1.434 . S
C485 C476 1.429 . S
C485 N482 1.350 . S
C485 C484 1.434 . S
C486 C487 1.369 . S
C486 C488 1.419 1_655 S
C486 H490 0.930 . S
C487 C486 1.369 . S
C487 C496 1.429 1_655 S
C488 C486 1.419 1_455 S
C488 C489 1.363 . S
C488 H491 0.929 . S
C489 C488 1.363 . S
C489 C495 1.428 . S
H490 C486 0.930 . S
H491 C488 0.929 . S
S492 N493 1.613 . S
S492 N494 1.610 . S
N493 S492 1.613 . S
N493 C496 1.350 . S
N494 S492 1.610 . S
N494 C495 1.351 . S
C495 C489 1.428 . S
C495 N494 1.351 . S
C495 C496 1.434 . S
C496 C487 1.429 1_455 S
C496 N493 1.350 . S
C496 C495 1.434 . S
C497 C498 1.369 . S
C497 C499 1.419 . S
C497 H501 0.930 . S
C498 C497 1.369 . S
C498 C507 1.429 . S
C499 C497 1.419 . S
C499 C500 1.363 . S
C499 H502 0.929 . S
C500 C499 1.363 . S
C500 C506 1.428 . S
H501 C497 0.930 . S
H502 C499 0.929 . S
S503 N504 1.613 . S
S503 N505 1.610 . S
N504 S503 1.613 . S
N504 C507 1.350 . S
N505 S503 1.610 . S
N505 C506 1.351 . S
C506 C500 1.428 . S
C506 N505 1.351 . S
C506 C507 1.434 . S
C507 C498 1.429 . S
C507 N504 1.350 . S
C507 C506 1.434 . S
C508 C509 1.369 . S
C508 C510 1.419 1_545 S
C508 H512 0.930 . S
C509 C508 1.369 . S
C509 C518 1.429 . S
C510 C508 1.419 1_565 S
C510 C511 1.363 . S
C510 H513 0.929 . S
C511 C510 1.363 . S
C511 C517 1.428 . S
H512 C508 0.930 . S
H513 C510 0.929 . S
S514 N515 1.613 . S
S514 N516 1.610 1_545 S
N515 S514 1.613 . S
N515 C518 1.350 . S
N516 S514 1.610 1_565 S
N516 C517 1.351 . S
C517 C511 1.428 . S
C517 N516 1.351 . S
C517 C518 1.434 1_565 S
C518 C509 1.429 . S
C518 N515 1.350 . S
C518 C517 1.434 1_545 S
C519 C520 1.369 . S
C519 C521 1.419 . S
C519 H523 0.930 . S
C520 C519 1.369 . S
C520 C529 1.429 . S
C521 C519 1.419 . S
C521 C522 1.363 . S
C521 H524 0.929 . S
C522 C521 1.363 . S
C522 C528 1.428 . S
H523 C519 0.930 . S
H524 C521 0.929 . S
S525 N526 1.613 . S
S525 N527 1.610 . S
N526 S525 1.613 . S
N526 C529 1.350 . S
N527 S525 1.610 . S
N527 C528 1.351 . S
C528 C522 1.428 . S
C528 N527 1.351 . S
C528 C529 1.434 . S
C529 C520 1.429 . S
C529 N526 1.350 . S
C529 C528 1.434 . S
C530 C531 1.369 . S
C530 C532 1.419 . S
C530 H534 0.930 . S
C531 C530 1.369 . S
C531 C540 1.429 . S
C532 C530 1.419 . S
C532 C533 1.363 . S
C532 H535 0.929 . S
C533 C532 1.363 . S
C533 C539 1.428 . S
H534 C530 0.930 . S
H535 C532 0.929 . S
S536 N537 1.613 . S
S536 N538 1.610 . S
N537 S536 1.613 . S
N537 C540 1.350 . S
N538 S536 1.610 . S
N538 C539 1.351 . S
C539 C533 1.428 . S
C539 N538 1.351 . S
C539 C540 1.434 . S
C540 C531 1.429 . S
C540 N537 1.350 . S
C540 C539 1.434 . S
C541 C542 1.369 . S
C541 C543 1.419 . S
C541 H545 0.930 . S
C542 C541 1.369 . S
C542 C551 1.429 . S
C543 C541 1.419 . S
C543 C544 1.363 . S
C543 H546 0.929 . S
C544 C543 1.363 . S
C544 C550 1.428 . S
H545 C541 0.930 . S
H546 C543 0.929 . S
S547 N548 1.613 . S
S547 N549 1.610 . S
N548 S547 1.613 . S
N548 C551 1.350 . S
N549 S547 1.610 . S
N549 C550 1.351 . S
C550 C544 1.428 . S
C550 N549 1.351 . S
C550 C551 1.434 . S
C551 C542 1.429 . S
C551 N548 1.350 . S
C551 C550 1.434 . S
C552 C553 1.369 . S
C552 C554 1.419 . S
C552 H556 0.930 . S
C553 C552 1.369 . S
C553 C562 1.429 . S
C554 C552 1.419 . S
C554 C555 1.363 . S
C554 H557 0.929 . S
C555 C554 1.363 . S
C555 C561 1.428 . S
H556 C552 0.930 . S
H557 C554 0.929 . S
S558 N559 1.613 . S
S558 N560 1.610 . S
N559 S558 1.613 . S
N559 C562 1.350 . S
N560 S558 1.610 . S
N560 C561 1.351 . S
C561 C555 1.428 . S
C561 N560 1.351 . S
C561 C562 1.434 . S
C562 C553 1.429 . S
C562 N559 1.350 . S
C562 C561 1.434 . S
C563 C564 1.369 . S
C563 C565 1.419 . S
C563 H567 0.930 . S
C564 C563 1.369 . S
C564 C573 1.429 . S
C565 C563 1.419 . S
C565 C566 1.363 . S
C565 H568 0.929 . S
C566 C565 1.363 . S
C566 C572 1.428 . S
H567 C563 0.930 . S
H568 C565 0.929 . S
S569 N570 1.613 . S
S569 N571 1.610 . S
N570 S569 1.613 . S
N570 C573 1.350 . S
N571 S569 1.610 . S
N571 C572 1.351 . S
C572 C566 1.428 . S
C572 N571 1.351 . S
C572 C573 1.434 . S
C573 C564 1.429 . S
C573 N570 1.350 . S
C573 C572 1.434 . S
C574 C575 1.369 . S
C574 C576 1.419 . S
C574 H578 0.930 . S
C575 C574 1.369 . S
C575 C584 1.429 . S
C576 C574 1.419 . S
C576 C577 1.363 . S
C576 H579 0.929 . S
C577 C576 1.363 . S
C577 C583 1.428 . S
H578 C574 0.930 . S
H579 C576 0.929 . S
S580 N581 1.613 . S
S580 N582 1.610 . S
N581 S580 1.613 . S
N581 C584 1.350 . S
N582 S580 1.610 . S
N582 C583 1.351 . S
C583 C577 1.428 . S
C583 N582 1.351 . S
C583 C584 1.434 . S
C584 C575 1.429 . S
C584 N581 1.350 . S
C584 C583 1.434 . S
C289 C6 1.907 1_556 S
C291 C226 1.925 . S
C300 C36 1.778 1_556 S
C302 C285 1.776 . S
C311 C66 1.879 . S
C313 C221 1.831 . S
C322 C132 1.581 . S
C324 C68 1.587 . S
C333 C164 1.707 . S
C335 C29 1.709 . S
C344 C34 1.845 . S
C346 C125 1.815 . S
C355 C228 1.855 . S
C357 C162 1.901 . S
C366 C262 1.978 . S
C368 C102 1.982 . S
C377 C130 2.119 . S
C379 C198 2.128 . S
C388 C93 1.360 . S
C390 C2 1.361 . S
C399 C61 1.345 . S
C401 C4 1.348 . S
C410 C38 1.389 . S
C412 C70 1.384 1_554 S
C421 C100 1.385 . S
C423 C166 1.386 . S
C432 C98 1.421 . S
C434 C157 1.415 . S
C443 C134 1.392 . S
C445 C189 1.386 . S
C454 C260 1.428 . S
C456 C194 1.441 . S
C465 C253 1.374 . S
C467 C196 1.370 . S
C476 C258 1.409 . S
C478 C230 1.410 . S
C487 N13 1.400 . S
C489 N18 1.345 . S
C498 N45 1.216 . S
C500 N50 1.256 . S
C509 N82 1.201 . S
C511 N77 1.146 . S
C520 N109 1.386 . S
C522 N114 1.320 . S
C531 N146 1.321 . S
C533 N141 1.253 . S
C542 N178 1.278 . S
C544 N173 1.218 . S
C553 N205 1.449 . S
C555 N210 1.379 . S
C564 N242 1.381 . S
C566 N237 1.308 . S
C575 N269 1.237 . S
C577 N274 1.186 . S
