# Generated by pormake.
# Topology gme, (4)-cn, num edge types: 1
# Building blocks:
#     Node 0, Type 0, BuildingBlock: AZAVOO_clean_sbu_0, # of connection points: 4
#     Node 1, Type 0, BuildingBlock: AZAVOO_clean_sbu_0, # of connection points: 4
#     Node 2, Type 0, BuildingBlock: AZAVOO_clean_sbu_0, # of connection points: 4
#     Node 3, Type 0, BuildingBlock: AZAVOO_clean_sbu_0, # of connection points: 4
#     Node 4, Type 0, BuildingBlock: AZAVOO_clean_sbu_0, # of connection points: 4
#     Node 5, Type 0, BuildingBlock: AZAVOO_clean_sbu_0, # of connection points: 4
#     Node 6, Type 0, BuildingBlock: AZAVOO_clean_sbu_0, # of connection points: 4
#     Node 7, Type 0, BuildingBlock: AZAVOO_clean_sbu_0, # of connection points: 4
#     Node 8, Type 0, BuildingBlock: AZAVOO_clean_sbu_0, # of connection points: 4
#     Node 9, Type 0, BuildingBlock: AZAVOO_clean_sbu_0, # of connection points: 4
#     Node 10, Type 0, BuildingBlock: AZAVOO_clean_sbu_0, # of connection points: 4
#     Node 11, Type 0, BuildingBlock: AZAVOO_clean_sbu_0, # of connection points: 4
#     Node 12, Type 0, BuildingBlock: AZAVOO_clean_sbu_0, # of connection points: 4
#     Node 13, Type 0, BuildingBlock: AZAVOO_clean_sbu_0, # of connection points: 4
#     Node 14, Type 0, BuildingBlock: AZAVOO_clean_sbu_0, # of connection points: 4
#     Node 15, Type 0, BuildingBlock: AZAVOO_clean_sbu_0, # of connection points: 4
#     Node 16, Type 0, BuildingBlock: AZAVOO_clean_sbu_0, # of connection points: 4
#     Node 17, Type 0, BuildingBlock: AZAVOO_clean_sbu_0, # of connection points: 4
#     Node 18, Type 0, BuildingBlock: AZAVOO_clean_sbu_0, # of connection points: 4
#     Node 19, Type 0, BuildingBlock: AZAVOO_clean_sbu_0, # of connection points: 4
#     Node 20, Type 0, BuildingBlock: AZAVOO_clean_sbu_0, # of connection points: 4
#     Node 21, Type 0, BuildingBlock: AZAVOO_clean_sbu_0, # of connection points: 4
#     Node 22, Type 0, BuildingBlock: AZAVOO_clean_sbu_0, # of connection points: 4
#     Node 23, Type 0, BuildingBlock: AZAVOO_clean_sbu_0, # of connection points: 4
#     Edge 24, Type (0, 0), None
#     Edge 25, Type (0, 0), None
#     Edge 26, Type (0, 0), None
#     Edge 27, Type (0, 0), None
#     Edge 28, Type (0, 0), None
#     Edge 29, Type (0, 0), None
#     Edge 30, Type (0, 0), None
#     Edge 31, Type (0, 0), None
#     Edge 32, Type (0, 0), None
#     Edge 33, Type (0, 0), None
#     Edge 34, Type (0, 0), None
#     Edge 35, Type (0, 0), None
#     Edge 36, Type (0, 0), None
#     Edge 37, Type (0, 0), None
#     Edge 38, Type (0, 0), None
#     Edge 39, Type (0, 0), None
#     Edge 40, Type (0, 0), None
#     Edge 41, Type (0, 0), None
#     Edge 42, Type (0, 0), None
#     Edge 43, Type (0, 0), None
#     Edge 44, Type (0, 0), None
#     Edge 45, Type (0, 0), None
#     Edge 46, Type (0, 0), None
#     Edge 47, Type (0, 0), None
#     Edge 48, Type (0, 0), None
#     Edge 49, Type (0, 0), None
#     Edge 50, Type (0, 0), None
#     Edge 51, Type (0, 0), None
#     Edge 52, Type (0, 0), None
#     Edge 53, Type (0, 0), None
#     Edge 54, Type (0, 0), None
#     Edge 55, Type (0, 0), None
#     Edge 56, Type (0, 0), None
#     Edge 57, Type (0, 0), None
#     Edge 58, Type (0, 0), None
#     Edge 59, Type (0, 0), None
#     Edge 60, Type (0, 0), None
#     Edge 61, Type (0, 0), None
#     Edge 62, Type (0, 0), None
#     Edge 63, Type (0, 0), None
#     Edge 64, Type (0, 0), None
#     Edge 65, Type (0, 0), None
#     Edge 66, Type (0, 0), None
#     Edge 67, Type (0, 0), None
#     Edge 68, Type (0, 0), None
#     Edge 69, Type (0, 0), None
#     Edge 70, Type (0, 0), None
#     Edge 71, Type (0, 0), None
# Relax obj value: 0.169
# Max RMSD: 0.163
# Mean RMSD: 0.163
data_MOF--net-gme--node1-AZAVOO_clean_sbu_0--edge1-none
_symmetry_space_group_name_H-M    P1
_symmetry_Int_Tables_number       1
_symmetry_cell_setting            triclinic
loop_
_symmetry_equiv_pos_as_xyz
'x, y, z'
_cell_length_a     29.28322
_cell_length_b     29.284041
_cell_length_c     24.118216
_cell_angle_alpha  90.001076
_cell_angle_beta   90.001749
_cell_angle_gamma 120.0018
loop_
_atom_site_label
_atom_site_type_symbol
_atom_site_fract_x
_atom_site_fract_y
_atom_site_fract_z
_atom_type_partial_charge
Mg0 Mg 0.41761 0.09358 0.07069 0.0
O1 O 0.50718 0.11331 0.07563 0.0
O2 O 0.53934 0.16607 0.14984 0.0
Mg3 Mg 0.4915 0.20528 0.15627 0.0
C4 C 0.54287 0.13692 0.11285 0.0
C5 C 0.35442 0.01859 -0.02057 0.0
O6 O 0.32233 0.03215 0.00255 0.0
O7 O 0.42981 0.16625 0.01693 0.0
O8 O 0.50222 0.20628 0.06357 0.0
O9 O 0.40155 0.04278 0.14717 0.0
O10 O 0.42193 0.12617 0.14971 0.0
C11 C 0.46981 0.20944 0.03164 0.0
C12 C 0.41202 0.08411 0.17609 0.0
O13 O 0.40152 0.03917 -0.00307 0.0
Mg14 Mg 0.32358 0.41783 0.57068 0.0
O15 O 0.39342 0.50741 0.57562 0.0
O16 O 0.37282 0.53956 0.64983 0.0
Mg17 Mg 0.28576 0.49173 0.65625 0.0
C18 C 0.4055 0.5431 0.61284 0.0
C19 C 0.33536 0.35464 0.47942 0.0
O20 O 0.28971 0.32256 0.50254 0.0
O21 O 0.2631 0.43003 0.51691 0.0
O22 O 0.29551 0.50244 0.56355 0.0
O23 O 0.35832 0.40178 0.64716 0.0
O24 O 0.2953 0.42216 0.6497 0.0
C25 C 0.25992 0.47004 0.53164 0.0
C26 C 0.32746 0.41225 0.67608 0.0
O27 O 0.3619 0.40175 0.49692 0.0
Mg28 Mg 0.90528 0.3238 0.07069 0.0
O29 O 0.88555 0.39364 0.07562 0.0
O30 O 0.8328 0.37304 0.14984 0.0
Mg31 Mg 0.79357 0.28598 0.15626 0.0
C32 C 0.86194 0.40572 0.11284 0.0
C33 C 0.98026 0.33558 -0.02057 0.0
O34 O 0.96668 0.28993 0.00255 0.0
O35 O 0.8326 0.26332 0.01692 0.0
O36 O 0.79259 0.29572 0.06356 0.0
O37 O 0.95608 0.35854 0.14717 0.0
O38 O 0.87269 0.29553 0.14971 0.0
C39 C 0.78942 0.26013 0.03163 0.0
C40 C 0.91475 0.32769 0.17609 0.0
O41 O 0.95969 0.36212 -0.00306 0.0
Mg42 Mg 0.58104 0.90551 0.57068 0.0
O43 O 0.49147 0.88578 0.57562 0.0
O44 O 0.45931 0.83302 0.64983 0.0
Mg45 Mg 0.50715 0.7938 0.65626 0.0
C46 C 0.45578 0.86217 0.61284 0.0
C47 C 0.64423 0.98049 0.47943 0.0
O48 O 0.67631 0.96692 0.50254 0.0
O49 O 0.56884 0.83283 0.51692 0.0
O50 O 0.49642 0.79282 0.56356 0.0
O51 O 0.5971 0.95631 0.64717 0.0
O52 O 0.57672 0.87291 0.64971 0.0
C53 C 0.52884 0.78965 0.53163 0.0
C54 C 0.58662 0.91497 0.67609 0.0
O55 O 0.59713 0.95991 0.49694 0.0
Mg56 Mg 0.67507 0.58125 0.07069 0.0
O57 O 0.60523 0.49168 0.07562 0.0
O58 O 0.62583 0.45953 0.14984 0.0
Mg59 Mg 0.71289 0.50737 0.15627 0.0
C60 C 0.59315 0.45599 0.11284 0.0
C61 C 0.66328 0.64444 -0.02056 0.0
O62 O 0.70893 0.67652 0.00256 0.0
O63 O 0.73555 0.56906 0.01693 0.0
O64 O 0.70315 0.49664 0.06357 0.0
O65 O 0.64032 0.59731 0.14718 0.0
O66 O 0.70334 0.57693 0.14972 0.0
C67 C 0.73873 0.52905 0.03165 0.0
C68 C 0.67118 0.58684 0.17609 0.0
O69 O 0.63674 0.59734 -0.00306 0.0
Mg70 Mg 0.09336 0.67528 0.5707 0.0
O71 O 0.11309 0.60544 0.57563 0.0
O72 O 0.16586 0.62605 0.64985 0.0
Mg73 Mg 0.20507 0.71311 0.65629 0.0
C74 C 0.13671 0.59337 0.61286 0.0
C75 C 0.01839 0.6635 0.47944 0.0
O76 O 0.03197 0.70915 0.50255 0.0
O77 O 0.16604 0.73576 0.51695 0.0
O78 O 0.20607 0.70337 0.56358 0.0
O79 O 0.04256 0.64053 0.64718 0.0
O80 O 0.12595 0.70355 0.64972 0.0
C81 C 0.20922 0.73895 0.53165 0.0
C82 C 0.08389 0.67139 0.6761 0.0
O83 O 0.03895 0.63696 0.49695 0.0
Mg84 Mg 0.90529 0.58125 0.34257 0.0
O85 O 0.88555 0.49168 0.33763 0.0
O86 O 0.83279 0.45952 0.26341 0.0
Mg87 Mg 0.79358 0.50736 0.25698 0.0
C88 C 0.86194 0.45599 0.30041 0.0
C89 C 0.98029 0.64445 0.4338 0.0
O90 O 0.96674 0.67654 0.41067 0.0
O91 O 0.83261 0.56905 0.39632 0.0
O92 O 0.79259 0.49663 0.34968 0.0
O93 O 0.95609 0.59731 0.26608 0.0
O94 O 0.87269 0.57693 0.26354 0.0
C95 C 0.78942 0.52906 0.38161 0.0
C96 C 0.91476 0.58683 0.23716 0.0
O97 O 0.95969 0.59734 0.41632 0.0
Mg98 Mg 0.32358 0.90551 0.84255 0.0
O99 O 0.39341 0.88577 0.83762 0.0
O100 O 0.37281 0.83301 0.7634 0.0
Mg101 Mg 0.28575 0.7938 0.75697 0.0
C102 C 0.40549 0.86216 0.8004 0.0
C103 C 0.33536 0.98049 0.9338 0.0
O104 O 0.28972 0.96692 0.91068 0.0
O105 O 0.26309 0.83283 0.89631 0.0
O106 O 0.29548 0.7928 0.84967 0.0
O107 O 0.35832 0.9563 0.76607 0.0
O108 O 0.2953 0.87291 0.76353 0.0
C109 C 0.25991 0.78964 0.8816 0.0
C110 C 0.32746 0.91498 0.73715 0.0
O111 O 0.3619 0.95991 0.91631 0.0
Mg112 Mg 0.4176 0.32379 0.34256 0.0
O113 O 0.50718 0.39363 0.33762 0.0
O114 O 0.53933 0.37303 0.26341 0.0
Mg115 Mg 0.49149 0.28597 0.25697 0.0
C116 C 0.54287 0.40571 0.3004 0.0
C117 C 0.35441 0.33559 0.4338 0.0
O118 O 0.32232 0.28994 0.41067 0.0
O119 O 0.4298 0.26331 0.39631 0.0
O120 O 0.50222 0.29571 0.34968 0.0
O121 O 0.40155 0.35853 0.26607 0.0
O122 O 0.42193 0.29551 0.26353 0.0
C123 C 0.46981 0.26013 0.3816 0.0
C124 C 0.41202 0.32767 0.23715 0.0
O125 O 0.40152 0.36211 0.41631 0.0
Mg126 Mg 0.09336 0.41783 0.84257 0.0
O127 O 0.11309 0.5074 0.83764 0.0
O128 O 0.16584 0.53955 0.76342 0.0
Mg129 Mg 0.20507 0.49172 0.757 0.0
C130 C 0.13669 0.54309 0.80042 0.0
C131 C 0.01836 0.35463 0.93381 0.0
O132 O 0.03192 0.32254 0.91068 0.0
O133 O 0.16604 0.43003 0.89634 0.0
O134 O 0.20604 0.50244 0.8497 0.0
O135 O 0.04256 0.40177 0.76608 0.0
O136 O 0.12596 0.42215 0.76355 0.0
C137 C 0.20922 0.47002 0.88163 0.0
C138 C 0.08389 0.41225 0.73717 0.0
O139 O 0.03895 0.40174 0.91632 0.0
Mg140 Mg 0.67507 0.09358 0.34257 0.0
O141 O 0.60523 0.11331 0.33763 0.0
O142 O 0.62583 0.16606 0.26342 0.0
Mg143 Mg 0.71288 0.20528 0.25699 0.0
C144 C 0.59315 0.13692 0.30041 0.0
C145 C 0.66328 0.01859 0.4338 0.0
O146 O 0.70892 0.03215 0.41067 0.0
O147 O 0.73555 0.16626 0.39633 0.0
O148 O 0.70314 0.20626 0.3497 0.0
O149 O 0.64033 0.04278 0.26608 0.0
O150 O 0.70334 0.12618 0.26355 0.0
C151 C 0.73873 0.20944 0.38161 0.0
C152 C 0.67118 0.08411 0.23717 0.0
O153 O 0.63675 0.03917 0.41632 0.0
Mg154 Mg 0.58103 0.67529 0.84257 0.0
O155 O 0.49146 0.60545 0.83763 0.0
O156 O 0.4593 0.62605 0.76341 0.0
Mg157 Mg 0.50714 0.7131 0.75699 0.0
C158 C 0.45577 0.59337 0.8004 0.0
C159 C 0.64423 0.66349 0.93381 0.0
O160 O 0.67632 0.70914 0.91068 0.0
O161 O 0.56883 0.73577 0.89633 0.0
O162 O 0.49642 0.70336 0.84969 0.0
O163 O 0.59709 0.64055 0.76608 0.0
O164 O 0.57671 0.70357 0.76354 0.0
C165 C 0.52883 0.73895 0.88161 0.0
C166 C 0.58662 0.67141 0.73717 0.0
O167 O 0.59712 0.63697 0.91632 0.0
Mg168 Mg 0.58112 0.90551 0.8425 0.0
O169 O 0.49155 0.88576 0.8376 0.0
O170 O 0.45939 0.83305 0.76335 0.0
Mg171 Mg 0.50724 0.79385 0.75679 0.0
C172 C 0.45586 0.86217 0.80037 0.0
C173 C 0.64433 0.9805 0.9338 0.0
O174 O 0.67643 0.96696 0.91067 0.0
O175 O 0.56888 0.83277 0.89617 0.0
O176 O 0.49643 0.79265 0.8495 0.0
O177 O 0.59716 0.95633 0.76602 0.0
O178 O 0.57677 0.87293 0.76348 0.0
C179 C 0.52888 0.78958 0.88146 0.0
C180 C 0.58667 0.91499 0.7371 0.0
O181 O 0.59722 0.9599 0.9163 0.0
Mg182 Mg 0.67515 0.58133 0.34251 0.0
O183 O 0.60532 0.49177 0.33761 0.0
O184 O 0.62588 0.45961 0.26335 0.0
Mg185 Mg 0.71293 0.50746 0.2568 0.0
C186 C 0.59322 0.45608 0.30038 0.0
C187 C 0.66339 0.64455 0.43381 0.0
O188 O 0.70903 0.67664 0.41068 0.0
O189 O 0.73564 0.5691 0.39618 0.0
O190 O 0.70332 0.49665 0.34951 0.0
O191 O 0.64037 0.59738 0.26603 0.0
O192 O 0.70338 0.57699 0.26348 0.0
C193 C 0.73884 0.52909 0.38146 0.0
C194 C 0.67121 0.58688 0.23711 0.0
O195 O 0.63686 0.59744 0.41631 0.0
Mg196 Mg 0.09335 0.67536 0.84252 0.0
O197 O 0.11309 0.60554 0.83762 0.0
O198 O 0.1658 0.62609 0.76337 0.0
Mg199 Mg 0.20502 0.71315 0.75682 0.0
C200 C 0.13668 0.59344 0.80039 0.0
C201 C 0.01837 0.6636 0.93381 0.0
O202 O 0.03192 0.70924 0.91068 0.0
O203 O 0.16609 0.73586 0.89619 0.0
O204 O 0.2062 0.70352 0.84953 0.0
O205 O 0.04254 0.64059 0.76603 0.0
O206 O 0.12593 0.70359 0.76349 0.0
C207 C 0.20928 0.73906 0.88148 0.0
C208 C 0.08387 0.67143 0.73711 0.0
O209 O 0.03896 0.63708 0.91631 0.0
Mg210 Mg 0.41752 0.09357 0.34251 0.0
O211 O 0.50709 0.11331 0.33761 0.0
O212 O 0.53925 0.16602 0.26336 0.0
Mg213 Mg 0.4914 0.20523 0.25681 0.0
C214 C 0.54278 0.1369 0.30038 0.0
C215 C 0.35431 0.01859 0.43381 0.0
O216 O 0.32221 0.03214 0.41068 0.0
O217 O 0.42976 0.16631 0.39618 0.0
O218 O 0.50221 0.20642 0.34952 0.0
O219 O 0.40148 0.04275 0.26602 0.0
O220 O 0.42187 0.12615 0.26348 0.0
C221 C 0.46976 0.2095 0.38147 0.0
C222 C 0.41198 0.08409 0.2371 0.0
O223 O 0.40142 0.03918 0.4163 0.0
Mg224 Mg 0.32349 0.41774 0.84249 0.0
O225 O 0.39332 0.50731 0.8376 0.0
O226 O 0.37276 0.53946 0.76335 0.0
Mg227 Mg 0.2857 0.4916 0.75678 0.0
C228 C 0.40542 0.543 0.80037 0.0
C229 C 0.33526 0.35453 0.9338 0.0
O230 O 0.28962 0.32244 0.91067 0.0
O231 O 0.263 0.42998 0.89616 0.0
O232 O 0.29531 0.50243 0.8495 0.0
O233 O 0.35827 0.4017 0.76601 0.0
O234 O 0.29526 0.42209 0.76347 0.0
C235 C 0.2598 0.46998 0.88145 0.0
C236 C 0.32743 0.4122 0.73709 0.0
O237 O 0.36178 0.40164 0.91629 0.0
Mg238 Mg 0.90529 0.32372 0.3425 0.0
O239 O 0.88555 0.39354 0.33761 0.0
O240 O 0.83283 0.37298 0.26335 0.0
Mg241 Mg 0.79363 0.28593 0.25679 0.0
C242 C 0.86196 0.40564 0.30038 0.0
C243 C 0.98027 0.33549 0.43381 0.0
O244 O 0.96671 0.28984 0.41069 0.0
O245 O 0.83256 0.26322 0.39617 0.0
O246 O 0.79243 0.29554 0.3495 0.0
O247 O 0.95611 0.3585 0.26602 0.0
O248 O 0.87271 0.29549 0.26348 0.0
C249 C 0.78936 0.26002 0.38146 0.0
C250 C 0.91477 0.32766 0.2371 0.0
O251 O 0.95969 0.36201 0.4163 0.0
Mg252 Mg 0.09335 0.41775 0.57075 0.0
O253 O 0.1131 0.50731 0.57566 0.0
O254 O 0.16582 0.53947 0.64991 0.0
Mg255 Mg 0.20502 0.49161 0.65647 0.0
C256 C 0.13669 0.543 0.61288 0.0
C257 C 0.01836 0.35453 0.47946 0.0
O258 O 0.03188 0.32243 0.50261 0.0
O259 O 0.16609 0.42999 0.51709 0.0
O260 O 0.20623 0.50244 0.56376 0.0
O261 O 0.04254 0.4017 0.64723 0.0
O262 O 0.12593 0.42209 0.64978 0.0
C263 C 0.20929 0.46997 0.53179 0.0
C264 C 0.08387 0.4122 0.67616 0.0
O265 O 0.03896 0.40164 0.49695 0.0
Mg266 Mg 0.67515 0.09357 0.07075 0.0
O267 O 0.60532 0.11331 0.07565 0.0
O268 O 0.62588 0.16603 0.1499 0.0
Mg269 Mg 0.71294 0.20523 0.15647 0.0
C270 C 0.59322 0.13691 0.11288 0.0
C271 C 0.66337 0.01859 -0.02054 0.0
O272 O 0.70901 0.03213 0.0026 0.0
O273 O 0.73564 0.16631 0.01709 0.0
O274 O 0.70332 0.20644 0.06375 0.0
O275 O 0.64037 0.04276 0.14723 0.0
O276 O 0.70338 0.12615 0.14978 0.0
C277 C 0.73884 0.20951 0.0318 0.0
C278 C 0.67121 0.08409 0.17615 0.0
O279 O 0.63686 0.03918 -0.00305 0.0
Mg280 Mg 0.58113 0.67538 0.57075 0.0
O281 O 0.49156 0.60555 0.57564 0.0
O282 O 0.4594 0.62611 0.64989 0.0
Mg283 Mg 0.50726 0.71316 0.65646 0.0
C284 C 0.45587 0.59345 0.61287 0.0
C285 C 0.64434 0.66359 0.47946 0.0
O286 O 0.67645 0.70923 0.50261 0.0
O287 O 0.56889 0.73587 0.51708 0.0
O288 O 0.49644 0.70355 0.56374 0.0
O289 O 0.59717 0.6406 0.64723 0.0
O290 O 0.57678 0.70361 0.64978 0.0
C291 C 0.52889 0.73907 0.53179 0.0
C292 C 0.58667 0.67144 0.67615 0.0
O293 O 0.59723 0.63709 0.49695 0.0
Mg294 Mg 0.90529 0.58134 0.07075 0.0
O295 O 0.88555 0.49177 0.07564 0.0
O296 O 0.83284 0.45962 0.14989 0.0
Mg297 Mg 0.79363 0.50746 0.15645 0.0
C298 C 0.86196 0.45609 0.11287 0.0
C299 C 0.98028 0.64455 -0.02054 0.0
O300 O 0.96675 0.67665 0.0026 0.0
O301 O 0.83255 0.5691 0.01708 0.0
O302 O 0.79243 0.49665 0.06374 0.0
O303 O 0.95611 0.59738 0.14723 0.0
O304 O 0.87271 0.57699 0.14977 0.0
C305 C 0.78936 0.52911 0.03178 0.0
C306 C 0.91477 0.58688 0.17615 0.0
O307 O 0.95968 0.59744 -0.00305 0.0
Mg308 Mg 0.32349 0.9055 0.57074 0.0
O309 O 0.39332 0.88577 0.57564 0.0
O310 O 0.37277 0.83306 0.64989 0.0
Mg311 Mg 0.28571 0.79385 0.65644 0.0
C312 C 0.40543 0.86218 0.61287 0.0
C313 C 0.33527 0.9805 0.47946 0.0
O314 O 0.28964 0.96697 0.5026 0.0
O315 O 0.263 0.83277 0.51706 0.0
O316 O 0.29534 0.79266 0.56373 0.0
O317 O 0.35827 0.95632 0.64722 0.0
O318 O 0.29527 0.87293 0.64976 0.0
C319 C 0.25981 0.78957 0.53178 0.0
C320 C 0.32743 0.91499 0.67614 0.0
O321 O 0.36178 0.9599 0.49694 0.0
Mg322 Mg 0.41752 0.32371 0.07074 0.0
O323 O 0.50709 0.39353 0.07564 0.0
O324 O 0.53925 0.37298 0.14989 0.0
Mg325 Mg 0.4914 0.28593 0.15645 0.0
C326 C 0.54278 0.40564 0.11287 0.0
C327 C 0.3543 0.33549 -0.02055 0.0
O328 O 0.3222 0.28986 0.00259 0.0
O329 O 0.42976 0.26321 0.01706 0.0
O330 O 0.50221 0.29555 0.06374 0.0
O331 O 0.40148 0.35848 0.14722 0.0
O332 O 0.42187 0.29548 0.14976 0.0
C333 C 0.46976 0.26002 0.03178 0.0
C334 C 0.41198 0.32764 0.17614 0.0
O335 O 0.40142 0.36199 -0.00306 0.0
loop_
_geom_bond_atom_site_label_1
_geom_bond_atom_site_label_2
_geom_bond_distance
_geom_bond_site_symmetry_2
_ccdc_geom_bond_type
Mg0 O1 2.028 . S
Mg0 O7 1.986 . S
Mg0 O9 2.114 . S
Mg0 O10 2.251 . S
Mg0 O13 2.010 . S
O1 Mg0 2.028 . S
O1 C4 1.250 . S
O2 Mg3 2.028 . S
O2 C4 1.248 . S
Mg3 O2 2.028 . S
Mg3 O8 2.032 . S
Mg3 O10 2.079 . S
C4 O1 1.250 . S
C4 O2 1.248 . S
C5 O6 1.264 1_545 S
C5 O13 1.249 . S
O6 C5 1.264 1_565 S
O7 Mg0 1.986 . S
O7 C11 1.246 . S
O8 Mg3 2.032 . S
O8 C11 1.259 . S
O9 Mg0 2.114 . S
O9 C12 1.252 . S
O10 Mg0 2.251 . S
O10 Mg3 2.079 . S
O10 C12 1.273 . S
C11 O7 1.246 . S
C11 O8 1.259 . S
C12 O9 1.252 . S
C12 O10 1.273 . S
O13 Mg0 2.010 . S
O13 C5 1.249 . S
Mg14 O15 2.028 . S
Mg14 O21 1.986 . S
Mg14 O23 2.114 . S
Mg14 O24 2.251 . S
Mg14 O27 2.010 . S
O15 Mg14 2.028 . S
O15 C18 1.250 . S
O16 Mg17 2.028 . S
O16 C18 1.248 . S
Mg17 O16 2.028 . S
Mg17 O22 2.032 . S
Mg17 O24 2.079 . S
C18 O15 1.250 . S
C18 O16 1.248 . S
C19 O20 1.264 . S
C19 O27 1.249 . S
O20 C19 1.264 . S
O21 Mg14 1.986 . S
O21 C25 1.246 . S
O22 Mg17 2.032 . S
O22 C25 1.259 . S
O23 Mg14 2.114 . S
O23 C26 1.252 . S
O24 Mg14 2.251 . S
O24 Mg17 2.079 . S
O24 C26 1.273 . S
C25 O21 1.246 . S
C25 O22 1.259 . S
C26 O23 1.252 . S
C26 O24 1.273 . S
O27 Mg14 2.010 . S
O27 C19 1.249 . S
Mg28 O29 2.028 . S
Mg28 O35 1.986 . S
Mg28 O37 2.114 . S
Mg28 O38 2.251 . S
Mg28 O41 2.010 . S
O29 Mg28 2.028 . S
O29 C32 1.250 . S
O30 Mg31 2.028 . S
O30 C32 1.248 . S
Mg31 O30 2.028 . S
Mg31 O36 2.032 . S
Mg31 O38 2.079 . S
C32 O29 1.250 . S
C32 O30 1.248 . S
C33 O34 1.264 1_655 S
C33 O41 1.249 . S
O34 C33 1.264 1_455 S
O35 Mg28 1.986 . S
O35 C39 1.246 . S
O36 Mg31 2.032 . S
O36 C39 1.259 . S
O37 Mg28 2.114 . S
O37 C40 1.252 . S
O38 Mg28 2.251 . S
O38 Mg31 2.079 . S
O38 C40 1.273 . S
C39 O35 1.246 . S
C39 O36 1.259 . S
C40 O37 1.252 . S
C40 O38 1.273 . S
O41 Mg28 2.010 . S
O41 C33 1.249 . S
Mg42 O43 2.028 . S
Mg42 O49 1.986 . S
Mg42 O51 2.114 . S
Mg42 O52 2.251 . S
Mg42 O55 2.010 . S
O43 Mg42 2.028 . S
O43 C46 1.250 . S
O44 Mg45 2.028 . S
O44 C46 1.248 . S
Mg45 O44 2.028 . S
Mg45 O50 2.032 . S
Mg45 O52 2.079 . S
C46 O43 1.250 . S
C46 O44 1.248 . S
C47 O48 1.264 1_565 S
C47 O55 1.249 . S
O48 C47 1.264 1_545 S
O49 Mg42 1.986 . S
O49 C53 1.246 . S
O50 Mg45 2.032 . S
O50 C53 1.259 . S
O51 Mg42 2.114 . S
O51 C54 1.252 . S
O52 Mg42 2.251 . S
O52 Mg45 2.079 . S
O52 C54 1.273 . S
C53 O49 1.246 . S
C53 O50 1.259 . S
C54 O51 1.252 . S
C54 O52 1.273 . S
O55 Mg42 2.010 . S
O55 C47 1.249 . S
Mg56 O57 2.028 . S
Mg56 O63 1.986 . S
Mg56 O65 2.114 . S
Mg56 O66 2.251 . S
Mg56 O69 2.010 . S
O57 Mg56 2.028 . S
O57 C60 1.250 . S
O58 Mg59 2.028 . S
O58 C60 1.248 . S
Mg59 O58 2.028 . S
Mg59 O64 2.032 . S
Mg59 O66 2.079 . S
C60 O57 1.250 . S
C60 O58 1.248 . S
C61 O62 1.264 . S
C61 O69 1.249 . S
O62 C61 1.264 . S
O63 Mg56 1.986 . S
O63 C67 1.246 . S
O64 Mg59 2.032 . S
O64 C67 1.259 . S
O65 Mg56 2.114 . S
O65 C68 1.252 . S
O66 Mg56 2.251 . S
O66 Mg59 2.079 . S
O66 C68 1.273 . S
C67 O63 1.246 . S
C67 O64 1.259 . S
C68 O65 1.252 . S
C68 O66 1.273 . S
O69 Mg56 2.010 . S
O69 C61 1.249 . S
Mg70 O71 2.028 . S
Mg70 O77 1.986 . S
Mg70 O79 2.114 . S
Mg70 O80 2.251 . S
Mg70 O83 2.010 . S
O71 Mg70 2.028 . S
O71 C74 1.250 . S
O72 Mg73 2.028 . S
O72 C74 1.248 . S
Mg73 O72 2.028 . S
Mg73 O78 2.032 . S
Mg73 O80 2.079 . S
C74 O71 1.250 . S
C74 O72 1.248 . S
C75 O76 1.264 1_455 S
C75 O83 1.249 . S
O76 C75 1.264 1_655 S
O77 Mg70 1.986 . S
O77 C81 1.246 . S
O78 Mg73 2.032 . S
O78 C81 1.259 . S
O79 Mg70 2.114 . S
O79 C82 1.252 . S
O80 Mg70 2.251 . S
O80 Mg73 2.079 . S
O80 C82 1.273 . S
C81 O77 1.246 . S
C81 O78 1.259 . S
C82 O79 1.252 . S
C82 O80 1.273 . S
O83 Mg70 2.010 . S
O83 C75 1.249 . S
Mg84 O85 2.028 . S
Mg84 O91 1.986 . S
Mg84 O93 2.114 . S
Mg84 O94 2.251 . S
Mg84 O97 2.010 . S
O85 Mg84 2.028 . S
O85 C88 1.250 . S
O86 Mg87 2.028 . S
O86 C88 1.248 . S
Mg87 O86 2.028 . S
Mg87 O92 2.032 . S
Mg87 O94 2.079 . S
C88 O85 1.250 . S
C88 O86 1.248 . S
C89 O90 1.264 1_655 S
C89 O97 1.249 . S
O90 C89 1.264 1_455 S
O91 Mg84 1.986 . S
O91 C95 1.246 . S
O92 Mg87 2.032 . S
O92 C95 1.259 . S
O93 Mg84 2.114 . S
O93 C96 1.252 . S
O94 Mg84 2.251 . S
O94 Mg87 2.079 . S
O94 C96 1.273 . S
C95 O91 1.246 . S
C95 O92 1.259 . S
C96 O93 1.252 . S
C96 O94 1.273 . S
O97 Mg84 2.010 . S
O97 C89 1.249 . S
Mg98 O99 2.028 . S
Mg98 O105 1.986 . S
Mg98 O107 2.114 . S
Mg98 O108 2.251 . S
Mg98 O111 2.010 . S
O99 Mg98 2.028 . S
O99 C102 1.250 . S
O100 Mg101 2.028 . S
O100 C102 1.248 . S
Mg101 O100 2.028 . S
Mg101 O106 2.032 . S
Mg101 O108 2.079 . S
C102 O99 1.250 . S
C102 O100 1.248 . S
C103 O104 1.264 1_565 S
C103 O111 1.249 . S
O104 C103 1.264 1_545 S
O105 Mg98 1.986 . S
O105 C109 1.246 . S
O106 Mg101 2.032 . S
O106 C109 1.259 . S
O107 Mg98 2.114 . S
O107 C110 1.252 . S
O108 Mg98 2.251 . S
O108 Mg101 2.079 . S
O108 C110 1.273 . S
C109 O105 1.246 . S
C109 O106 1.259 . S
C110 O107 1.252 . S
C110 O108 1.273 . S
O111 Mg98 2.010 . S
O111 C103 1.249 . S
Mg112 O113 2.028 . S
Mg112 O119 1.986 . S
Mg112 O121 2.114 . S
Mg112 O122 2.251 . S
Mg112 O125 2.010 . S
O113 Mg112 2.028 . S
O113 C116 1.250 . S
O114 Mg115 2.028 . S
O114 C116 1.248 . S
Mg115 O114 2.028 . S
Mg115 O120 2.032 . S
Mg115 O122 2.079 . S
C116 O113 1.250 . S
C116 O114 1.248 . S
C117 O118 1.264 . S
C117 O125 1.249 . S
O118 C117 1.264 . S
O119 Mg112 1.986 . S
O119 C123 1.246 . S
O120 Mg115 2.032 . S
O120 C123 1.259 . S
O121 Mg112 2.114 . S
O121 C124 1.252 . S
O122 Mg112 2.251 . S
O122 Mg115 2.079 . S
O122 C124 1.273 . S
C123 O119 1.246 . S
C123 O120 1.259 . S
C124 O121 1.252 . S
C124 O122 1.273 . S
O125 Mg112 2.010 . S
O125 C117 1.249 . S
Mg126 O127 2.028 . S
Mg126 O133 1.986 . S
Mg126 O135 2.114 . S
Mg126 O136 2.251 . S
Mg126 O139 2.010 . S
O127 Mg126 2.028 . S
O127 C130 1.250 . S
O128 Mg129 2.028 . S
O128 C130 1.248 . S
Mg129 O128 2.028 . S
Mg129 O134 2.032 . S
Mg129 O136 2.079 . S
C130 O127 1.250 . S
C130 O128 1.248 . S
C131 O132 1.264 1_455 S
C131 O139 1.249 . S
O132 C131 1.264 1_655 S
O133 Mg126 1.986 . S
O133 C137 1.246 . S
O134 Mg129 2.032 . S
O134 C137 1.259 . S
O135 Mg126 2.114 . S
O135 C138 1.252 . S
O136 Mg126 2.251 . S
O136 Mg129 2.079 . S
O136 C138 1.273 . S
C137 O133 1.246 . S
C137 O134 1.259 . S
C138 O135 1.252 . S
C138 O136 1.273 . S
O139 Mg126 2.010 . S
O139 C131 1.249 . S
Mg140 O141 2.028 . S
Mg140 O147 1.986 . S
Mg140 O149 2.114 . S
Mg140 O150 2.251 . S
Mg140 O153 2.010 . S
O141 Mg140 2.028 . S
O141 C144 1.250 . S
O142 Mg143 2.028 . S
O142 C144 1.248 . S
Mg143 O142 2.028 . S
Mg143 O148 2.032 . S
Mg143 O150 2.079 . S
C144 O141 1.250 . S
C144 O142 1.248 . S
C145 O146 1.264 1_545 S
C145 O153 1.249 . S
O146 C145 1.264 1_565 S
O147 Mg140 1.986 . S
O147 C151 1.246 . S
O148 Mg143 2.032 . S
O148 C151 1.259 . S
O149 Mg140 2.114 . S
O149 C152 1.252 . S
O150 Mg140 2.251 . S
O150 Mg143 2.079 . S
O150 C152 1.273 . S
C151 O147 1.246 . S
C151 O148 1.259 . S
C152 O149 1.252 . S
C152 O150 1.273 . S
O153 Mg140 2.010 . S
O153 C145 1.249 . S
Mg154 O155 2.028 . S
Mg154 O161 1.986 . S
Mg154 O163 2.114 . S
Mg154 O164 2.251 . S
Mg154 O167 2.010 . S
O155 Mg154 2.028 . S
O155 C158 1.250 . S
O156 Mg157 2.028 . S
O156 C158 1.248 . S
Mg157 O156 2.028 . S
Mg157 O162 2.032 . S
Mg157 O164 2.079 . S
C158 O155 1.250 . S
C158 O156 1.248 . S
C159 O160 1.264 . S
C159 O167 1.249 . S
O160 C159 1.264 . S
O161 Mg154 1.986 . S
O161 C165 1.246 . S
O162 Mg157 2.032 . S
O162 C165 1.259 . S
O163 Mg154 2.114 . S
O163 C166 1.252 . S
O164 Mg154 2.251 . S
O164 Mg157 2.079 . S
O164 C166 1.273 . S
C165 O161 1.246 . S
C165 O162 1.259 . S
C166 O163 1.252 . S
C166 O164 1.273 . S
O167 Mg154 2.010 . S
O167 C159 1.249 . S
Mg168 O169 2.028 . S
Mg168 O175 1.986 . S
Mg168 O177 2.114 . S
Mg168 O178 2.251 . S
Mg168 O181 2.010 . S
O169 Mg168 2.028 . S
O169 C172 1.250 . S
O170 Mg171 2.028 . S
O170 C172 1.248 . S
Mg171 O170 2.028 . S
Mg171 O176 2.032 . S
Mg171 O178 2.079 . S
C172 O169 1.250 . S
C172 O170 1.248 . S
C173 O174 1.264 1_565 S
C173 O181 1.249 . S
O174 C173 1.264 1_545 S
O175 Mg168 1.986 . S
O175 C179 1.246 . S
O176 Mg171 2.032 . S
O176 C179 1.259 . S
O177 Mg168 2.114 . S
O177 C180 1.252 . S
O178 Mg168 2.251 . S
O178 Mg171 2.079 . S
O178 C180 1.273 . S
C179 O175 1.246 . S
C179 O176 1.259 . S
C180 O177 1.252 . S
C180 O178 1.273 . S
O181 Mg168 2.010 . S
O181 C173 1.249 . S
Mg182 O183 2.028 . S
Mg182 O189 1.986 . S
Mg182 O191 2.114 . S
Mg182 O192 2.251 . S
Mg182 O195 2.010 . S
O183 Mg182 2.028 . S
O183 C186 1.250 . S
O184 Mg185 2.028 . S
O184 C186 1.248 . S
Mg185 O184 2.028 . S
Mg185 O190 2.032 . S
Mg185 O192 2.079 . S
C186 O183 1.250 . S
C186 O184 1.248 . S
C187 O188 1.264 . S
C187 O195 1.249 . S
O188 C187 1.264 . S
O189 Mg182 1.986 . S
O189 C193 1.246 . S
O190 Mg185 2.032 . S
O190 C193 1.259 . S
O191 Mg182 2.114 . S
O191 C194 1.252 . S
O192 Mg182 2.251 . S
O192 Mg185 2.079 . S
O192 C194 1.273 . S
C193 O189 1.246 . S
C193 O190 1.259 . S
C194 O191 1.252 . S
C194 O192 1.273 . S
O195 Mg182 2.010 . S
O195 C187 1.249 . S
Mg196 O197 2.028 . S
Mg196 O203 1.986 . S
Mg196 O205 2.114 . S
Mg196 O206 2.251 . S
Mg196 O209 2.010 . S
O197 Mg196 2.028 . S
O197 C200 1.250 . S
O198 Mg199 2.028 . S
O198 C200 1.248 . S
Mg199 O198 2.028 . S
Mg199 O204 2.032 . S
Mg199 O206 2.079 . S
C200 O197 1.250 . S
C200 O198 1.248 . S
C201 O202 1.264 1_455 S
C201 O209 1.249 . S
O202 C201 1.264 1_655 S
O203 Mg196 1.986 . S
O203 C207 1.246 . S
O204 Mg199 2.032 . S
O204 C207 1.259 . S
O205 Mg196 2.114 . S
O205 C208 1.252 . S
O206 Mg196 2.251 . S
O206 Mg199 2.079 . S
O206 C208 1.273 . S
C207 O203 1.246 . S
C207 O204 1.259 . S
C208 O205 1.252 . S
C208 O206 1.273 . S
O209 Mg196 2.010 . S
O209 C201 1.249 . S
Mg210 O211 2.028 . S
Mg210 O217 1.986 . S
Mg210 O219 2.114 . S
Mg210 O220 2.251 . S
Mg210 O223 2.010 . S
O211 Mg210 2.028 . S
O211 C214 1.250 . S
O212 Mg213 2.028 . S
O212 C214 1.248 . S
Mg213 O212 2.028 . S
Mg213 O218 2.032 . S
Mg213 O220 2.079 . S
C214 O211 1.250 . S
C214 O212 1.248 . S
C215 O216 1.264 1_545 S
C215 O223 1.249 . S
O216 C215 1.264 1_565 S
O217 Mg210 1.986 . S
O217 C221 1.246 . S
O218 Mg213 2.032 . S
O218 C221 1.259 . S
O219 Mg210 2.114 . S
O219 C222 1.252 . S
O220 Mg210 2.251 . S
O220 Mg213 2.079 . S
O220 C222 1.273 . S
C221 O217 1.246 . S
C221 O218 1.259 . S
C222 O219 1.252 . S
C222 O220 1.273 . S
O223 Mg210 2.010 . S
O223 C215 1.249 . S
Mg224 O225 2.028 . S
Mg224 O231 1.986 . S
Mg224 O233 2.114 . S
Mg224 O234 2.251 . S
Mg224 O237 2.010 . S
O225 Mg224 2.028 . S
O225 C228 1.250 . S
O226 Mg227 2.028 . S
O226 C228 1.248 . S
Mg227 O226 2.028 . S
Mg227 O232 2.032 . S
Mg227 O234 2.079 . S
C228 O225 1.250 . S
C228 O226 1.248 . S
C229 O230 1.264 . S
C229 O237 1.249 . S
O230 C229 1.264 . S
O231 Mg224 1.986 . S
O231 C235 1.246 . S
O232 Mg227 2.032 . S
O232 C235 1.259 . S
O233 Mg224 2.114 . S
O233 C236 1.252 . S
O234 Mg224 2.251 . S
O234 Mg227 2.079 . S
O234 C236 1.273 . S
C235 O231 1.246 . S
C235 O232 1.259 . S
C236 O233 1.252 . S
C236 O234 1.273 . S
O237 Mg224 2.010 . S
O237 C229 1.249 . S
Mg238 O239 2.028 . S
Mg238 O245 1.986 . S
Mg238 O247 2.114 . S
Mg238 O248 2.251 . S
Mg238 O251 2.010 . S
O239 Mg238 2.028 . S
O239 C242 1.250 . S
O240 Mg241 2.028 . S
O240 C242 1.248 . S
Mg241 O240 2.028 . S
Mg241 O246 2.032 . S
Mg241 O248 2.079 . S
C242 O239 1.250 . S
C242 O240 1.248 . S
C243 O244 1.264 1_655 S
C243 O251 1.249 . S
O244 C243 1.264 1_455 S
O245 Mg238 1.986 . S
O245 C249 1.246 . S
O246 Mg241 2.032 . S
O246 C249 1.259 . S
O247 Mg238 2.114 . S
O247 C250 1.252 . S
O248 Mg238 2.251 . S
O248 Mg241 2.079 . S
O248 C250 1.273 . S
C249 O245 1.246 . S
C249 O246 1.259 . S
C250 O247 1.252 . S
C250 O248 1.273 . S
O251 Mg238 2.010 . S
O251 C243 1.249 . S
Mg252 O253 2.028 . S
Mg252 O259 1.986 . S
Mg252 O261 2.114 . S
Mg252 O262 2.251 . S
Mg252 O265 2.010 . S
O253 Mg252 2.028 . S
O253 C256 1.250 . S
O254 Mg255 2.028 . S
O254 C256 1.248 . S
Mg255 O254 2.028 . S
Mg255 O260 2.032 . S
Mg255 O262 2.079 . S
C256 O253 1.250 . S
C256 O254 1.248 . S
C257 O258 1.264 1_455 S
C257 O265 1.249 . S
O258 C257 1.264 1_655 S
O259 Mg252 1.986 . S
O259 C263 1.246 . S
O260 Mg255 2.032 . S
O260 C263 1.259 . S
O261 Mg252 2.114 . S
O261 C264 1.252 . S
O262 Mg252 2.251 . S
O262 Mg255 2.079 . S
O262 C264 1.273 . S
C263 O259 1.246 . S
C263 O260 1.259 . S
C264 O261 1.252 . S
C264 O262 1.273 . S
O265 Mg252 2.010 . S
O265 C257 1.249 . S
Mg266 O267 2.028 . S
Mg266 O273 1.986 . S
Mg266 O275 2.114 . S
Mg266 O276 2.251 . S
Mg266 O279 2.010 . S
O267 Mg266 2.028 . S
O267 C270 1.250 . S
O268 Mg269 2.028 . S
O268 C270 1.248 . S
Mg269 O268 2.028 . S
Mg269 O274 2.032 . S
Mg269 O276 2.079 . S
C270 O267 1.250 . S
C270 O268 1.248 . S
C271 O272 1.264 1_545 S
C271 O279 1.249 . S
O272 C271 1.264 1_565 S
O273 Mg266 1.986 . S
O273 C277 1.246 . S
O274 Mg269 2.032 . S
O274 C277 1.259 . S
O275 Mg266 2.114 . S
O275 C278 1.252 . S
O276 Mg266 2.251 . S
O276 Mg269 2.079 . S
O276 C278 1.273 . S
C277 O273 1.246 . S
C277 O274 1.259 . S
C278 O275 1.252 . S
C278 O276 1.273 . S
O279 Mg266 2.010 . S
O279 C271 1.249 . S
Mg280 O281 2.028 . S
Mg280 O287 1.986 . S
Mg280 O289 2.114 . S
Mg280 O290 2.251 . S
Mg280 O293 2.010 . S
O281 Mg280 2.028 . S
O281 C284 1.250 . S
O282 Mg283 2.028 . S
O282 C284 1.248 . S
Mg283 O282 2.028 . S
Mg283 O288 2.032 . S
Mg283 O290 2.079 . S
C284 O281 1.250 . S
C284 O282 1.248 . S
C285 O286 1.264 . S
C285 O293 1.249 . S
O286 C285 1.264 . S
O287 Mg280 1.986 . S
O287 C291 1.246 . S
O288 Mg283 2.032 . S
O288 C291 1.259 . S
O289 Mg280 2.114 . S
O289 C292 1.252 . S
O290 Mg280 2.251 . S
O290 Mg283 2.079 . S
O290 C292 1.273 . S
C291 O287 1.246 . S
C291 O288 1.259 . S
C292 O289 1.252 . S
C292 O290 1.273 . S
O293 Mg280 2.010 . S
O293 C285 1.249 . S
Mg294 O295 2.028 . S
Mg294 O301 1.986 . S
Mg294 O303 2.114 . S
Mg294 O304 2.251 . S
Mg294 O307 2.010 . S
O295 Mg294 2.028 . S
O295 C298 1.250 . S
O296 Mg297 2.028 . S
O296 C298 1.248 . S
Mg297 O296 2.028 . S
Mg297 O302 2.032 . S
Mg297 O304 2.079 . S
C298 O295 1.250 . S
C298 O296 1.248 . S
C299 O300 1.264 1_655 S
C299 O307 1.249 . S
O300 C299 1.264 1_455 S
O301 Mg294 1.986 . S
O301 C305 1.246 . S
O302 Mg297 2.032 . S
O302 C305 1.259 . S
O303 Mg294 2.114 . S
O303 C306 1.252 . S
O304 Mg294 2.251 . S
O304 Mg297 2.079 . S
O304 C306 1.273 . S
C305 O301 1.246 . S
C305 O302 1.259 . S
C306 O303 1.252 . S
C306 O304 1.273 . S
O307 Mg294 2.010 . S
O307 C299 1.249 . S
Mg308 O309 2.028 . S
Mg308 O315 1.986 . S
Mg308 O317 2.114 . S
Mg308 O318 2.251 . S
Mg308 O321 2.010 . S
O309 Mg308 2.028 . S
O309 C312 1.250 . S
O310 Mg311 2.028 . S
O310 C312 1.248 . S
Mg311 O310 2.028 . S
Mg311 O316 2.032 . S
Mg311 O318 2.079 . S
C312 O309 1.250 . S
C312 O310 1.248 . S
C313 O314 1.264 1_565 S
C313 O321 1.249 . S
O314 C313 1.264 1_545 S
O315 Mg308 1.986 . S
O315 C319 1.246 . S
O316 Mg311 2.032 . S
O316 C319 1.259 . S
O317 Mg308 2.114 . S
O317 C320 1.252 . S
O318 Mg308 2.251 . S
O318 Mg311 2.079 . S
O318 C320 1.273 . S
C319 O315 1.246 . S
C319 O316 1.259 . S
C320 O317 1.252 . S
C320 O318 1.273 . S
O321 Mg308 2.010 . S
O321 C313 1.249 . S
Mg322 O323 2.028 . S
Mg322 O329 1.986 . S
Mg322 O331 2.114 . S
Mg322 O332 2.251 . S
Mg322 O335 2.010 . S
O323 Mg322 2.028 . S
O323 C326 1.250 . S
O324 Mg325 2.028 . S
O324 C326 1.248 . S
Mg325 O324 2.028 . S
Mg325 O330 2.032 . S
Mg325 O332 2.079 . S
C326 O323 1.250 . S
C326 O324 1.248 . S
C327 O328 1.264 . S
C327 O335 1.249 . S
O328 C327 1.264 . S
O329 Mg322 1.986 . S
O329 C333 1.246 . S
O330 Mg325 2.032 . S
O330 C333 1.259 . S
O331 Mg322 2.114 . S
O331 C334 1.252 . S
O332 Mg322 2.251 . S
O332 Mg325 2.079 . S
O332 C334 1.273 . S
C333 O329 1.246 . S
C333 O330 1.259 . S
C334 O331 1.252 . S
C334 O332 1.273 . S
O335 Mg322 2.010 . S
O335 C327 1.249 . S
C222 C12 1.446 . S
C26 C236 1.446 . S
C40 C250 1.446 . S
C54 C180 1.446 . S
C194 C68 1.446 . S
C82 C208 1.446 . S
C306 C96 1.446 . S
C110 C320 1.446 . S
C124 C334 1.446 . S
C264 C138 1.446 . S
C152 C278 1.446 . S
C292 C166 1.446 . S
C11 C333 1.092 . S
C263 C25 1.092 . S
C39 C277 1.092 . S
C291 C53 1.092 . S
C67 C305 1.092 . S
C319 C81 1.092 . S
C95 C193 1.092 . S
C207 C109 1.092 . S
C221 C123 1.092 . S
C235 C137 1.092 . S
C151 C249 1.092 . S
C165 C179 1.092 . S
C103 C5 0.786 1_566 S
C117 C19 0.786 . S
C131 C33 0.786 1_456 S
C145 C47 0.786 1_545 S
C61 C159 0.786 1_554 S
C75 C89 0.786 1_455 S
C173 C271 0.786 1_566 S
C187 C285 0.786 . S
C299 C201 0.786 1_654 S
C313 C215 0.786 1_565 S
C327 C229 0.786 1_554 S
C257 C243 0.786 1_455 S
C4 C270 1.294 . S
C284 C18 1.294 . S
C32 C298 1.294 . S
C312 C46 1.294 . S
C60 C326 1.294 . S
C256 C74 1.294 . S
C88 C242 1.294 . S
C172 C102 1.294 . S
C116 C186 1.294 . S
C130 C200 1.294 . S
C144 C214 1.294 . S
C158 C228 1.294 . S
