# Generated by pormake.
# Topology dmp, (4)-cn, num edge types: 1
# Building blocks:
#     Node 0, Type 0, BuildingBlock: KUFVIS_clean_sbu_0, # of connection points: 4
#     Node 1, Type 0, BuildingBlock: KUFVIS_clean_sbu_0, # of connection points: 4
#     Node 2, Type 0, BuildingBlock: KUFVIS_clean_sbu_0, # of connection points: 4
#     Node 3, Type 0, BuildingBlock: KUFVIS_clean_sbu_0, # of connection points: 4
#     Edge 4, Type (0, 0), BuildingBlock: FUNLAD_clean_linker_1, # of connection points: 2
#     Edge 5, Type (0, 0), BuildingBlock: FUNLAD_clean_linker_1, # of connection points: 2
#     Edge 6, Type (0, 0), BuildingBlock: FUNLAD_clean_linker_1, # of connection points: 2
#     Edge 7, Type (0, 0), BuildingBlock: FUNLAD_clean_linker_1, # of connection points: 2
#     Edge 8, Type (0, 0), BuildingBlock: FUNLAD_clean_linker_1, # of connection points: 2
#     Edge 9, Type (0, 0), BuildingBlock: FUNLAD_clean_linker_1, # of connection points: 2
#     Edge 10, Type (0, 0), BuildingBlock: FUNLAD_clean_linker_1, # of connection points: 2
#     Edge 11, Type (0, 0), BuildingBlock: FUNLAD_clean_linker_1, # of connection points: 2
# Relax obj value: 0.123
# Max RMSD: 0.219
# Mean RMSD: 0.219
data_MOF--net-dmp--node1-KUFVIS_clean_sbu_0--edge1-FUNLAD_clean_linker_1
_symmetry_space_group_name_H-M    P1
_symmetry_Int_Tables_number       1
_symmetry_cell_setting            triclinic
loop_
_symmetry_equiv_pos_as_xyz
'x, y, z'
_cell_length_a     40.79304
_cell_length_b     19.265997
_cell_length_c     16.315891
_cell_angle_alpha  89.965371
_cell_angle_beta   89.942821
_cell_angle_gamma 94.998681
loop_
_atom_site_label
_atom_site_type_symbol
_atom_site_fract_x
_atom_site_fract_y
_atom_site_fract_z
_atom_type_partial_charge
Mn0 Mn 0.10612 0.24802 0.31668 0.0
Mn1 Mn 0.14446 0.18305 0.15394 0.0
C2 C 0.1562 0.30067 0.27229 0.0
C3 C 0.06888 0.32062 0.3717 0.0
C4 C 0.1458 0.1211 0.32461 0.0
O5 O 0.06966 0.18321 0.26421 0.0
O6 O 0.09734 0.15069 0.15345 0.0
C7 C 0.11159 0.25757 0.02301 0.0
N8 N 0.13968 0.24095 0.0605 0.0
C9 C 0.17334 0.29908 0.95588 0.0
C10 C 0.14479 0.31693 0.91604 0.0
C11 C 0.11378 0.29649 0.95011 0.0
C12 C 0.16962 0.262 0.02956 0.0
H13 H 0.08772 0.24088 0.04832 0.0
C14 C 0.07113 0.15093 0.19623 0.0
O15 O 0.07749 0.26693 0.41174 0.0
O16 O 0.08074 0.33051 0.2984 0.0
N17 N 0.19058 0.20951 0.14444 0.0
C18 C 0.21561 0.18683 0.18969 0.0
C19 C 0.2481 0.19858 0.1613 0.0
C20 C 0.25453 0.23323 0.08648 0.0
C21 C 0.22845 0.2575 0.04179 0.0
C22 C 0.19656 0.24377 0.07291 0.0
H23 H 0.21077 0.15825 0.24594 0.0
O24 O 0.14547 0.31111 0.3458 0.0
O25 O 0.13671 0.26141 0.22548 0.0
O26 O 0.12944 0.16558 0.36051 0.0
O27 O 0.15144 0.12131 0.24759 0.0
C28 C 0.23279 0.2937 0.9669 0.0
C29 C 0.2053 0.31543 0.92464 0.0
H30 H 0.14638 0.34592 0.85906 0.0
H31 H 0.09162 0.30986 0.91965 0.0
H32 H 0.26808 0.1799 0.19629 0.0
H33 H 0.27961 0.24146 0.06434 0.0
H34 H 0.25716 0.30517 0.94126 0.0
H35 H 0.20897 0.34359 0.86742 0.0
Mn36 Mn 0.38962 0.74755 0.33798 0.0
Mn37 Mn 0.34784 0.80738 0.17796 0.0
C38 C 0.34297 0.6832 0.29162 0.0
C39 C 0.43277 0.68561 0.38339 0.0
C40 C 0.34372 0.86255 0.35171 0.0
O41 O 0.42104 0.82587 0.29061 0.0
O42 O 0.3941 0.84649 0.17402 0.0
C43 C 0.38141 0.73946 0.04283 0.0
N44 N 0.35322 0.75094 0.0835 0.0
C45 C 0.32024 0.68204 0.9862 0.0
C46 C 0.34891 0.66954 0.94316 0.0
C47 C 0.37964 0.69809 0.97187 0.0
C48 C 0.32361 0.72248 0.05748 0.0
H49 H 0.40504 0.76185 0.06434 0.0
C50 C 0.41924 0.85503 0.22074 0.0
O51 O 0.42053 0.73162 0.42999 0.0
O52 O 0.42091 0.67778 0.31012 0.0
N53 N 0.30222 0.77465 0.17212 0.0
C54 C 0.27672 0.79629 0.21675 0.0
C55 C 0.24424 0.77331 0.19542 0.0
C56 C 0.2382 0.73028 0.12672 0.0
C57 C 0.26469 0.71179 0.07903 0.0
C58 C 0.29657 0.73581 0.10375 0.0
H59 H 0.28103 0.83038 0.26871 0.0
O60 O 0.35518 0.67081 0.36285 0.0
O61 O 0.35945 0.73039 0.24753 0.0
O62 O 0.36021 0.81794 0.38727 0.0
O63 O 0.34029 0.86644 0.27394 0.0
C64 C 0.26068 0.6715 0.00708 0.0
C65 C 0.28845 0.65628 0.96096 0.0
H66 H 0.34761 0.63823 0.88795 0.0
H67 H 0.40188 0.68866 0.93901 0.0
H68 H 0.22392 0.78917 0.23154 0.0
H69 H 0.21311 0.71284 0.11027 0.0
H70 H 0.23635 0.65193 0.98669 0.0
H71 H 0.28507 0.62496 0.90602 0.0
Mn72 Mn 0.89455 0.76995 0.64735 0.0
Mn73 Mn 0.84859 0.78823 0.81749 0.0
C74 C 0.85191 0.68696 0.67686 0.0
C75 C 0.94043 0.728 0.58525 0.0
C76 C 0.83997 0.86787 0.65957 0.0
O77 O 0.92206 0.84425 0.71295 0.0
O78 O 0.89146 0.84306 0.82774 0.0
C79 C 0.88963 0.71735 0.93523 0.0
N80 N 0.86 0.72289 0.89848 0.0
C81 C 0.83426 0.6299 0.98089 0.0
C82 C 0.86448 0.62319 0.01968 0.0
C83 C 0.89232 0.66692 0.99648 0.0
C84 C 0.83324 0.68015 0.91909 0.0
H85 H 0.91101 0.75126 0.91805 0.0
C86 C 0.91693 0.86402 0.78609 0.0
O87 O 0.92588 0.77865 0.55272 0.0
O88 O 0.92965 0.70512 0.65584 0.0
N89 N 0.80582 0.73892 0.81897 0.0
C90 C 0.77775 0.75784 0.78306 0.0
C91 C 0.74753 0.72011 0.80063 0.0
C92 C 0.74622 0.66546 0.85784 0.0
C93 C 0.775 0.65029 0.89853 0.0
C94 C 0.80448 0.68912 0.87764 0.0
H95 H 0.77838 0.80087 0.74053 0.0
O96 O 0.86434 0.69254 0.60391 0.0
O97 O 0.8656 0.72877 0.7321 0.0
O98 O 0.86102 0.83904 0.61623 0.0
O99 O 0.83487 0.85526 0.73567 0.0
C100 C 0.77541 0.59948 0.96062 0.0
C101 C 0.80506 0.58908 0.00152 0.0
H102 H 0.86658 0.58481 0.06751 0.0
H103 H 0.91573 0.66214 0.02619 0.0
H104 H 0.72528 0.73357 0.77073 0.0
H105 H 0.72285 0.63675 0.87165 0.0
H106 H 0.75305 0.56834 0.97766 0.0
H107 H 0.80508 0.5498 0.04904 0.0
Mn108 Mn 0.61028 0.25978 0.71768 0.0
Mn109 Mn 0.65468 0.18626 0.86314 0.0
C110 C 0.66416 0.30246 0.74063 0.0
C111 C 0.57241 0.33911 0.68407 0.0
C112 C 0.64283 0.12539 0.693 0.0
O113 O 0.57578 0.19812 0.781 0.0
O114 O 0.60727 0.16555 0.88473 0.0
C115 C 0.63604 0.27095 0.00424 0.0
N116 N 0.65973 0.24635 0.95607 0.0
C117 C 0.70271 0.29791 0.04304 0.0
C118 C 0.67881 0.32386 0.09371 0.0
C119 C 0.64533 0.31077 0.07383 0.0
C120 C 0.692 0.2605 0.97313 0.0
H121 H 0.61027 0.25996 0.98981 0.0
C122 C 0.57943 0.16851 0.84983 0.0
O123 O 0.57666 0.2862 0.63704 0.0
O124 O 0.58931 0.34467 0.75124 0.0
N125 N 0.70149 0.20084 0.85254 0.0
C126 C 0.72135 0.16987 0.799 0.0
C127 C 0.75534 0.173 0.81357 0.0
C128 C 0.76862 0.2077 0.88325 0.0
C129 C 0.74783 0.24028 0.93681 0.0
C130 C 0.71409 0.23471 0.91956 0.0
H131 H 0.71128 0.14121 0.74678 0.0
O132 O 0.64889 0.31802 0.67429 0.0
O133 O 0.64665 0.26624 0.79473 0.0
O134 O 0.62783 0.17485 0.66282 0.0
O135 O 0.65146 0.12234 0.7682 0.0
C136 C 0.75916 0.27665 0.00769 0.0
C137 C 0.73668 0.30648 0.05999 0.0
H138 H 0.68587 0.3535 0.14825 0.0
H139 H 0.62674 0.33052 0.11265 0.0
H140 H 0.7712 0.14776 0.77188 0.0
H141 H 0.79483 0.20948 0.89464 0.0
H142 H 0.78512 0.28194 0.02262 0.0
H143 H 0.74572 0.33469 0.11397 0.0
H144 H 0.30436 0.86943 0.44046 0.0
C145 C 0.32114 0.90109 0.401 0.0
H146 H 0.33082 0.99454 0.33743 0.0
H147 H 0.19186 0.01981 0.19444 0.0
H148 H 0.2259 0.01336 0.07499 0.0
H149 H 0.28392 0.98858 0.08723 0.0
H150 H 0.30815 0.97177 0.21902 0.0
C151 C 0.31318 0.96375 0.37555 0.0
C152 C 0.27794 0.9788 0.37025 0.0
C153 C 0.26375 0.98653 0.29147 0.0
C154 C 0.22991 0.99805 0.28418 0.0
C155 C 0.21696 0.00848 0.2047 0.0
C156 C 0.23634 0.0053 0.13487 0.0
C157 C 0.26898 0.99168 0.14177 0.0
C158 C 0.28264 0.98243 0.21865 0.0
H159 H 0.17977 0.10459 0.42434 0.0
C160 C 0.16586 0.07779 0.37523 0.0
H161 H 0.16035 0.9911 0.29821 0.0
H162 H 0.29776 0.97396 0.53015 0.0
H163 H 0.26264 0.97243 0.65053 0.0
H164 H 0.20279 0.97955 0.63686 0.0
H165 H 0.17782 0.99008 0.50281 0.0
C166 C 0.17515 0.01733 0.34616 0.0
C167 C 0.2099 -0.00016 0.35546 0.0
C168 C 0.22382 0.98985 0.43382 0.0
C169 C 0.25806 0.98159 0.4414 0.0
C170 C 0.27168 0.97694 0.52075 0.0
C171 C 0.25184 0.97654 0.59033 0.0
C172 C 0.21816 0.98085 0.58266 0.0
C173 C 0.20418 0.98741 0.50547 0.0
H174 H 0.18347 0.36296 0.17699 0.0
C175 C 0.18418 0.34606 0.24043 0.0
H176 H 0.2055 0.3611 0.35681 0.0
H177 H 0.29496 0.58762 0.11691 0.0
H178 H 0.30724 0.49121 0.02982 0.0
H179 H 0.28404 0.37201 0.06116 0.0
H180 H 0.24534 0.35016 0.17478 0.0
C181 C 0.20578 0.37807 0.29318 0.0
C182 C 0.22263 0.44804 0.2757 0.0
C183 C 0.24681 0.45832 0.21369 0.0
C184 C 0.26344 0.52538 0.20184 0.0
C185 C 0.28389 0.53656 0.13233 0.0
C186 C 0.29088 0.48175 0.08168 0.0
C187 C 0.27748 0.41469 0.09891 0.0
C188 C 0.25543 0.40287 0.16384 0.0
H189 H 0.32659 0.58519 0.23494 0.0
C190 C 0.31774 0.63283 0.25801 0.0
H191 H 0.28016 0.68331 0.30708 0.0
H192 H 0.17177 0.45041 0.38568 0.0
H193 H 0.15682 0.54966 0.46327 0.0
H194 H 0.18704 0.66514 0.44526 0.0
H195 H 0.23222 0.68174 0.35051 0.0
C196 C 0.28568 0.63779 0.27307 0.0
C197 C 0.25928 0.57935 0.25936 0.0
C198 C 0.23161 0.5721 0.31277 0.0
C199 C 0.21359 0.50591 0.32173 0.0
C200 C 0.1866 0.49916 0.37694 0.0
C201 C 0.17754 0.55592 0.42159 0.0
C202 C 0.19464 0.62079 0.41169 0.0
C203 C 0.22121 0.62921 0.35787 0.0
H204 H 0.67448 0.10758 0.5904 0.0
C205 C 0.659 0.0799 0.63617 0.0
H206 H 0.64902 0.98893 0.70371 0.0
H207 H 0.79508 0.99097 0.49936 0.0
H208 H 0.76498 0.00326 0.37269 0.0
H209 H 0.70467 0.00719 0.37391 0.0
H210 H 0.67429 0.00139 0.50229 0.0
C211 C 0.66577 0.01606 0.6603 0.0
C212 C 0.70034 0.99597 0.65625 0.0
C213 C 0.71737 0.99402 0.58045 0.0
C214 C 0.75182 0.98659 0.57926 0.0
C215 C 0.76867 0.99212 0.50336 0.0
C216 C 0.75172 -0.00021 0.43027 0.0
C217 C 0.71779 0.00236 0.43099 0.0
C218 C 0.7007 -0.00047 0.50503 0.0
H219 H 0.80083 0.87911 0.57084 0.0
C220 C 0.81538 0.90689 0.61813 0.0
H221 H 0.81961 0.98927 0.70148 0.0
H222 H 0.67635 -0.00029 0.81508 0.0
H223 H 0.70517 0.97596 0.93868 0.0
H224 H 0.76268 0.94635 0.93448 0.0
H225 H 0.79182 0.94288 0.8065 0.0
C226 C 0.80434 0.96285 0.65444 0.0
C227 C 0.76865 0.97474 0.65338 0.0
C228 C 0.75112 0.97199 0.72885 0.0
C229 C 0.71731 0.98479 0.73067 0.0
C230 C 0.70146 0.98728 0.80812 0.0
C231 C 0.71782 0.97406 0.88047 0.0
C232 C 0.7502 0.95775 0.87816 0.0
C233 C 0.76673 0.95653 0.8037 0.0
H234 H 0.84584 0.5757 0.70172 0.0
C235 C 0.83253 0.62195 0.69721 0.0
H236 H 0.78782 0.66258 0.67799 0.0
H237 H 0.68789 0.42053 0.58233 0.0
H238 H 0.6796 0.50976 0.48261 0.0
H239 H 0.71824 0.61511 0.47255 0.0
H240 H 0.7645 0.63277 0.56382 0.0
C241 C 0.79973 0.61615 0.69236 0.0
C242 C 0.77929 0.54785 0.69335 0.0
C243 C 0.75367 0.53611 0.63447 0.0
C244 C 0.73276 0.47315 0.63623 0.0
C245 C 0.70558 0.46563 0.58165 0.0
C246 C 0.70035 0.51673 0.52401 0.0
C247 C 0.72198 0.57614 0.51865 0.0
C248 C 0.74837 0.58591 0.57264 0.0
H249 H 0.70201 0.36 0.81628 0.0
C250 C 0.69714 0.33665 0.75645 0.0
H251 H 0.71131 0.32919 0.63345 0.0
H252 H 0.82139 0.55448 0.82714 0.0
H253 H 0.83447 0.45888 0.91234 0.0
H254 H 0.80644 0.34192 0.89269 0.0
H255 H 0.76262 0.32234 0.79118 0.0
C256 C 0.71689 0.35394 0.69231 0.0
C257 C 0.73919 0.41931 0.69184 0.0
C258 C 0.76598 0.42906 0.74672 0.0
C259 C 0.78473 0.49465 0.75135 0.0
C260 C 0.80835 0.50475 0.8148 0.0
C261 C 0.81581 0.45022 0.86542 0.0
C262 C 0.79969 0.38454 0.85506 0.0
C263 C 0.77471 0.37405 0.79715 0.0
H264 H 0.01787 0.11435 0.19514 0.0
C265 C 0.041 0.11355 0.1622 0.0
H266 H 0.06483 0.08169 0.05495 0.0
H267 H 0.93889 0.8518 0.01867 0.0
H268 H 0.95712 0.80164 0.14504 0.0
H269 H 0.00113 0.86305 0.22788 0.0
H270 H 0.02702 0.97517 0.18488 0.0
C271 C 0.04197 0.08075 0.08938 0.0
C272 C 0.01238 0.04813 0.04725 0.0
C273 C 0.99736 0.98294 0.07389 0.0
C274 C 0.97213 0.94743 0.02586 0.0
C275 C 0.95794 0.88158 0.05297 0.0
C276 C 0.96827 0.85195 0.12534 0.0
C277 C 0.99304 0.88652 0.17195 0.0
C278 C 0.00762 0.95105 0.14664 0.0
H279 H 0.96612 0.92192 0.79875 0.0
C280 C 0.94213 0.91136 0.82737 0.0
H281 H 0.91233 0.92743 0.93074 0.0
H282 H 0.03505 0.17409 0.98156 0.0
H283 H 0.01605 0.2257 0.85659 0.0
H284 H 0.97142 0.16525 0.77477 0.0
H285 H 0.94584 0.05254 0.81698 0.0
C286 C 0.93615 0.93864 0.90142 0.0
C287 C 0.96223 0.97703 0.95112 0.0
C288 C 0.97643 0.04341 0.92608 0.0
C289 C 0.00175 0.0787 0.97392 0.0
C290 C 0.01584 0.14474 0.94728 0.0
C291 C 0.00504 0.17515 0.87588 0.0
C292 C 0.97995 0.14109 0.8298 0.0
C293 C 0.96561 0.07615 0.85447 0.0
H294 H 0.52761 0.12352 0.85675 0.0
C295 C 0.55035 0.13343 0.89108 0.0
H296 H 0.575 0.12042 0.00332 0.0
H297 H 0.41903 0.04026 0.11058 0.0
H298 H 0.41031 0.16033 0.07934 0.0
H299 H 0.4545 0.23896 0.01734 0.0
H300 H 0.50756 0.1978 0.98566 0.0
C301 C 0.55221 0.11109 0.96904 0.0
C302 C 0.52552 0.06519 0.0079 0.0
C303 C 0.49485 0.09059 0.02699 0.0
C304 C 0.46957 0.04553 0.06375 0.0
C305 C 0.43907 0.07204 0.08211 0.0
C306 C 0.43377 0.14099 0.06486 0.0
C307 C 0.45864 0.18523 0.0299 0.0
C308 C 0.48892 0.16075 0.01148 0.0
H309 H 0.46883 0.91166 0.23061 0.0
C310 C 0.44766 0.9007 0.1908 0.0
H311 H 0.42638 0.91844 0.0752 0.0
H312 H 0.58201 0.00081 0.98122 0.0
H313 H 0.59074 0.88097 0.01259 0.0
H314 H 0.5465 0.80216 0.07396 0.0
H315 H 0.49342 0.84293 0.1049 0.0
C316 C 0.44771 0.928 0.11477 0.0
C317 C 0.47522 0.97564 0.08243 0.0
C318 C 0.50604 0.95046 0.06421 0.0
C319 C 0.53135 0.99558 0.02763 0.0
C320 C 0.5619 0.9691 0.00951 0.0
C321 C 0.56724 0.90022 0.02685 0.0
C322 C 0.54235 0.85589 0.06146 0.0
C323 C 0.51201 0.88024 0.07951 0.0
H324 H 0.97146 0.70948 0.47737 0.0
C325 C 0.96492 0.69152 0.53888 0.0
H326 H 0.96764 0.61195 0.62679 0.0
H327 H 0.98351 0.37013 0.37811 0.0
H328 H 0.92657 0.34588 0.41914 0.0
H329 H 0.89899 0.4297 0.50346 0.0
H330 H 0.92809 0.5385 0.54654 0.0
C331 C 0.97553 0.63167 0.56686 0.0
C332 C 0.9923 0.58335 0.51284 0.0
C333 C 0.97511 0.51923 0.48929 0.0
C334 C 0.99119 0.47023 0.442 0.0
C335 C 0.97293 0.40808 0.41653 0.0
C336 C 0.94009 0.39375 0.43902 0.0
C337 C 0.92455 0.44097 0.48638 0.0
C338 C 0.94165 0.50316 0.51104 0.0
H339 H 0.03855 0.35821 0.47164 0.0
C340 C 0.04816 0.3704 0.41065 0.0
H341 H 0.05335 0.44546 0.31616 0.0
H342 H 0.03227 0.70121 0.54711 0.0
H343 H 0.08889 0.72675 0.50347 0.0
H344 H 0.1168 0.6422 0.42119 0.0
H345 H 0.08851 0.53106 0.38293 0.0
C346 C 0.0426 0.4315 0.37551 0.0
C347 C 0.02476 0.48459 0.41992 0.0
C348 C 0.04161 0.54977 0.44103 0.0
C349 C 0.02541 0.59904 0.48786 0.0
C350 C 0.04317 0.66255 0.51038 0.0
C351 C 0.07575 0.67774 0.48607 0.0
C352 C 0.09149 0.63004 0.43985 0.0
C353 C 0.07486 0.56653 0.41796 0.0
H354 H 0.46681 0.60415 0.36816 0.0
C355 C 0.45726 0.63936 0.41257 0.0
H356 H 0.45467 0.66592 0.53765 0.0
H357 H 0.48271 0.36272 0.65344 0.0
H358 H 0.42626 0.36913 0.6974 0.0
H359 H 0.39598 0.47006 0.66071 0.0
H360 H 0.42192 0.56514 0.57987 0.0
C361 C 0.46544 0.63382 0.49187 0.0
C362 C 0.48496 0.57618 0.51987 0.0
C363 C 0.46957 0.5215 0.56848 0.0
C364 C 0.48708 0.46337 0.59006 0.0
C365 C 0.47078 0.4086 0.63651 0.0
C366 C 0.4383 0.41144 0.66183 0.0
C367 C 0.42125 0.46825 0.64113 0.0
C368 C 0.43651 0.52261 0.59477 0.0
H369 H 0.54571 0.43159 0.70819 0.0
C370 C 0.55054 0.39318 0.66191 0.0
H371 H 0.54474 0.36421 0.53763 0.0
H372 H 0.52311 0.67575 0.4349 0.0
H373 H 0.57973 0.66954 0.39184 0.0
H374 H 0.60961 0.5675 0.42649 0.0
H375 H 0.5831 0.47119 0.50472 0.0
C376 C 0.53858 0.39965 0.58594 0.0
C377 C 0.52004 0.46025 0.56366 0.0
C378 C 0.53563 0.51544 0.51634 0.0
C379 C 0.51821 0.5738 0.49519 0.0
C380 C 0.53484 0.6293 0.45057 0.0
C381 C 0.56743 0.62664 0.426 0.0
C382 C 0.58427 0.56924 0.44559 0.0
C383 C 0.56873 0.51424 0.49041 0.0
loop_
_geom_bond_atom_site_label_1
_geom_bond_atom_site_label_2
_geom_bond_distance
_geom_bond_site_symmetry_2
_ccdc_geom_bond_type
Mn0 O5 2.095 . S
Mn0 O15 2.162 . S
Mn0 O16 2.297 . S
Mn0 O24 2.385 . S
Mn0 O25 2.209 . S
Mn0 O26 2.094 . S
Mn1 O6 2.121 . S
Mn1 N8 2.257 . S
Mn1 N17 2.282 . S
Mn1 O25 2.215 . S
Mn1 O27 2.117 . S
C2 O24 1.234 . S
C2 O25 1.283 . S
C3 O15 1.281 . S
C3 O16 1.236 . S
C4 O26 1.240 . S
C4 O27 1.264 . S
O5 Mn0 2.095 . S
O5 C14 1.250 . S
O6 Mn1 2.121 . S
O6 C14 1.258 . S
C7 N8 1.326 1_556 S
C7 C11 1.460 . S
C7 H13 0.929 . S
N8 Mn1 2.257 . S
N8 C7 1.326 1_554 S
N8 C12 1.362 . S
C9 C10 1.258 . S
C9 C12 1.431 1_556 S
C9 C29 1.449 . S
C10 C9 1.258 . S
C10 C11 1.477 . S
C10 H30 0.931 . S
C11 C7 1.460 . S
C11 C10 1.477 . S
C11 H31 0.930 . S
C12 N8 1.362 . S
C12 C9 1.431 1_554 S
C12 C22 1.476 . S
H13 C7 0.929 . S
C14 O5 1.250 . S
C14 O6 1.258 . S
O15 Mn0 2.162 . S
O15 C3 1.281 . S
O16 Mn0 2.297 . S
O16 C3 1.236 . S
N17 Mn1 2.282 . S
N17 C18 1.328 . S
N17 C22 1.318 . S
C18 N17 1.328 . S
C18 C19 1.457 . S
C18 H23 0.929 . S
C19 C18 1.457 . S
C19 C20 1.291 . S
C19 H32 0.931 . S
C20 C19 1.291 . S
C20 C21 1.373 . S
C20 H33 0.929 . S
C21 C20 1.373 . S
C21 C22 1.396 . S
C21 C28 1.403 . S
C22 C12 1.476 . S
C22 N17 1.318 . S
C22 C21 1.396 . S
H23 C18 0.929 . S
O24 Mn0 2.385 . S
O24 C2 1.234 . S
O25 Mn0 2.209 . S
O25 Mn1 2.215 . S
O25 C2 1.283 . S
O26 Mn0 2.094 . S
O26 C4 1.240 . S
O27 Mn1 2.117 . S
O27 C4 1.264 . S
C28 C21 1.403 . S
C28 C29 1.399 1_554 S
C28 H34 0.929 . S
C29 C9 1.449 . S
C29 C28 1.399 1_556 S
C29 H35 0.930 . S
H30 C10 0.931 . S
H31 C11 0.930 . S
H32 C19 0.931 . S
H33 C20 0.929 . S
H34 C28 0.929 . S
H35 C29 0.930 . S
Mn36 O41 2.095 . S
Mn36 O51 2.162 . S
Mn36 O52 2.297 . S
Mn36 O60 2.385 . S
Mn36 O61 2.209 . S
Mn36 O62 2.094 . S
Mn37 O42 2.121 . S
Mn37 N44 2.257 . S
Mn37 N53 2.282 . S
Mn37 O61 2.215 . S
Mn37 O63 2.117 . S
C38 O60 1.234 . S
C38 O61 1.283 . S
C39 O51 1.281 . S
C39 O52 1.236 . S
C40 O62 1.240 . S
C40 O63 1.264 . S
O41 Mn36 2.095 . S
O41 C50 1.250 . S
O42 Mn37 2.121 . S
O42 C50 1.258 . S
C43 N44 1.326 1_556 S
C43 C47 1.460 . S
C43 H49 0.929 . S
N44 Mn37 2.257 . S
N44 C43 1.326 1_554 S
N44 C48 1.362 . S
C45 C46 1.258 . S
C45 C48 1.431 1_556 S
C45 C65 1.449 . S
C46 C45 1.258 . S
C46 C47 1.477 . S
C46 H66 0.931 . S
C47 C43 1.460 . S
C47 C46 1.477 . S
C47 H67 0.930 . S
C48 N44 1.362 . S
C48 C45 1.431 1_554 S
C48 C58 1.476 . S
H49 C43 0.929 . S
C50 O41 1.250 . S
C50 O42 1.258 . S
O51 Mn36 2.162 . S
O51 C39 1.281 . S
O52 Mn36 2.297 . S
O52 C39 1.236 . S
N53 Mn37 2.282 . S
N53 C54 1.328 . S
N53 C58 1.318 . S
C54 N53 1.328 . S
C54 C55 1.457 . S
C54 H59 0.929 . S
C55 C54 1.457 . S
C55 C56 1.291 . S
C55 H68 0.931 . S
C56 C55 1.291 . S
C56 C57 1.373 . S
C56 H69 0.929 . S
C57 C56 1.373 . S
C57 C58 1.396 . S
C57 C64 1.403 . S
C58 C48 1.476 . S
C58 N53 1.318 . S
C58 C57 1.396 . S
H59 C54 0.929 . S
O60 Mn36 2.385 . S
O60 C38 1.234 . S
O61 Mn36 2.209 . S
O61 Mn37 2.215 . S
O61 C38 1.283 . S
O62 Mn36 2.094 . S
O62 C40 1.240 . S
O63 Mn37 2.117 . S
O63 C40 1.264 . S
C64 C57 1.403 . S
C64 C65 1.399 1_554 S
C64 H70 0.929 . S
C65 C45 1.449 . S
C65 C64 1.399 1_556 S
C65 H71 0.930 . S
H66 C46 0.931 . S
H67 C47 0.930 . S
H68 C55 0.931 . S
H69 C56 0.929 . S
H70 C64 0.929 . S
H71 C65 0.930 . S
Mn72 O77 2.095 . S
Mn72 O87 2.162 . S
Mn72 O88 2.297 . S
Mn72 O96 2.385 . S
Mn72 O97 2.209 . S
Mn72 O98 2.094 . S
Mn73 O78 2.121 . S
Mn73 N80 2.257 . S
Mn73 N89 2.282 . S
Mn73 O97 2.215 . S
Mn73 O99 2.117 . S
C74 O96 1.234 . S
C74 O97 1.283 . S
C75 O87 1.281 . S
C75 O88 1.236 . S
C76 O98 1.240 . S
C76 O99 1.264 . S
O77 Mn72 2.095 . S
O77 C86 1.250 . S
O78 Mn73 2.121 . S
O78 C86 1.258 . S
C79 N80 1.326 1_554 S
C79 C83 1.460 . S
C79 H85 0.929 . S
N80 Mn73 2.257 . S
N80 C79 1.326 1_556 S
N80 C84 1.362 . S
C81 C82 1.258 . S
C81 C84 1.431 1_554 S
C81 C101 1.449 . S
C82 C81 1.258 . S
C82 C83 1.477 . S
C82 H102 0.931 . S
C83 C79 1.460 . S
C83 C82 1.477 . S
C83 H103 0.930 . S
C84 N80 1.362 . S
C84 C81 1.431 1_556 S
C84 C94 1.476 . S
H85 C79 0.929 . S
C86 O77 1.250 . S
C86 O78 1.258 . S
O87 Mn72 2.162 . S
O87 C75 1.281 . S
O88 Mn72 2.297 . S
O88 C75 1.236 . S
N89 Mn73 2.282 . S
N89 C90 1.328 . S
N89 C94 1.318 . S
C90 N89 1.328 . S
C90 C91 1.457 . S
C90 H95 0.929 . S
C91 C90 1.457 . S
C91 C92 1.291 . S
C91 H104 0.931 . S
C92 C91 1.291 . S
C92 C93 1.373 . S
C92 H105 0.929 . S
C93 C92 1.373 . S
C93 C94 1.396 . S
C93 C100 1.403 . S
C94 C84 1.476 . S
C94 N89 1.318 . S
C94 C93 1.396 . S
H95 C90 0.929 . S
O96 Mn72 2.385 . S
O96 C74 1.234 . S
O97 Mn72 2.209 . S
O97 Mn73 2.215 . S
O97 C74 1.283 . S
O98 Mn72 2.094 . S
O98 C76 1.240 . S
O99 Mn73 2.117 . S
O99 C76 1.264 . S
C100 C93 1.403 . S
C100 C101 1.399 1_556 S
C100 H106 0.929 . S
C101 C81 1.449 . S
C101 C100 1.399 1_554 S
C101 H107 0.930 . S
H102 C82 0.931 . S
H103 C83 0.930 . S
H104 C91 0.931 . S
H105 C92 0.929 . S
H106 C100 0.929 . S
H107 C101 0.930 . S
Mn108 O113 2.095 . S
Mn108 O123 2.162 . S
Mn108 O124 2.297 . S
Mn108 O132 2.385 . S
Mn108 O133 2.209 . S
Mn108 O134 2.094 . S
Mn109 O114 2.121 . S
Mn109 N116 2.257 . S
Mn109 N125 2.282 . S
Mn109 O133 2.215 . S
Mn109 O135 2.117 . S
C110 O132 1.234 . S
C110 O133 1.283 . S
C111 O123 1.281 . S
C111 O124 1.236 . S
C112 O134 1.240 . S
C112 O135 1.264 . S
O113 Mn108 2.095 . S
O113 C122 1.250 . S
O114 Mn109 2.121 . S
O114 C122 1.258 . S
C115 N116 1.326 1_554 S
C115 C119 1.460 . S
C115 H121 0.929 . S
N116 Mn109 2.257 . S
N116 C115 1.326 1_556 S
N116 C120 1.362 . S
C117 C118 1.258 . S
C117 C120 1.431 1_554 S
C117 C137 1.449 . S
C118 C117 1.258 . S
C118 C119 1.477 . S
C118 H138 0.931 . S
C119 C115 1.460 . S
C119 C118 1.477 . S
C119 H139 0.930 . S
C120 N116 1.362 . S
C120 C117 1.431 1_556 S
C120 C130 1.476 . S
H121 C115 0.929 . S
C122 O113 1.250 . S
C122 O114 1.258 . S
O123 Mn108 2.162 . S
O123 C111 1.281 . S
O124 Mn108 2.297 . S
O124 C111 1.236 . S
N125 Mn109 2.282 . S
N125 C126 1.328 . S
N125 C130 1.318 . S
C126 N125 1.328 . S
C126 C127 1.457 . S
C126 H131 0.929 . S
C127 C126 1.457 . S
C127 C128 1.291 . S
C127 H140 0.931 . S
C128 C127 1.291 . S
C128 C129 1.373 . S
C128 H141 0.929 . S
C129 C128 1.373 . S
C129 C130 1.396 . S
C129 C136 1.403 . S
C130 C120 1.476 . S
C130 N125 1.318 . S
C130 C129 1.396 . S
H131 C126 0.929 . S
O132 Mn108 2.385 . S
O132 C110 1.234 . S
O133 Mn108 2.209 . S
O133 Mn109 2.215 . S
O133 C110 1.283 . S
O134 Mn108 2.094 . S
O134 C112 1.240 . S
O135 Mn109 2.117 . S
O135 C112 1.264 . S
C136 C129 1.403 . S
C136 C137 1.399 1_556 S
C136 H142 0.929 . S
C137 C117 1.449 . S
C137 C136 1.399 1_554 S
C137 H143 0.930 . S
H138 C118 0.931 . S
H139 C119 0.930 . S
H140 C127 0.931 . S
H141 C128 0.929 . S
H142 C136 0.929 . S
H143 C137 0.930 . S
H144 C145 0.951 . S
C145 H144 0.951 . S
C145 C151 1.265 . S
H146 C151 0.950 . S
H147 C155 0.949 . S
H148 C156 0.950 . S
H149 C157 0.951 . S
H150 C158 0.951 . S
C151 C145 1.265 . S
C151 H146 0.950 . S
C151 C152 1.478 . S
C152 C151 1.478 . S
C152 C153 1.397 1_565 S
C152 C169 1.394 . S
C153 C152 1.397 1_545 S
C153 C154 1.438 . S
C153 C158 1.429 . S
C154 C153 1.438 . S
C154 C155 1.428 . S
C154 C167 1.394 . S
C155 H147 0.949 . S
C155 C154 1.428 . S
C155 C156 1.345 . S
C156 H148 0.950 . S
C156 C155 1.345 . S
C156 C157 1.424 . S
C157 H149 0.951 . S
C157 C156 1.424 . S
C157 C158 1.347 . S
C158 H150 0.951 . S
C158 C153 1.429 . S
C158 C157 1.347 . S
H159 C160 0.951 . S
C160 H159 0.951 . S
C160 C166 1.265 . S
H161 C166 0.950 . S
H162 C170 0.949 . S
H163 C171 0.950 . S
H164 C172 0.951 . S
H165 C173 0.951 . S
C166 C160 1.265 . S
C166 H161 0.950 . S
C166 C167 1.478 . S
C167 C154 1.394 . S
C167 C166 1.478 . S
C167 C168 1.397 1_545 S
C168 C167 1.397 1_565 S
C168 C169 1.438 . S
C168 C173 1.429 . S
C169 C152 1.394 . S
C169 C168 1.438 . S
C169 C170 1.428 . S
C170 H162 0.949 . S
C170 C169 1.428 . S
C170 C171 1.345 . S
C171 H163 0.950 . S
C171 C170 1.345 . S
C171 C172 1.424 . S
C172 H164 0.951 . S
C172 C171 1.424 . S
C172 C173 1.347 . S
C173 H165 0.951 . S
C173 C168 1.429 . S
C173 C172 1.347 . S
H174 C175 0.951 . S
C175 H174 0.951 . S
C175 C181 1.265 . S
H176 C181 0.950 . S
H177 C185 0.949 . S
H178 C186 0.950 . S
H179 C187 0.951 . S
H180 C188 0.951 . S
C181 C175 1.265 . S
C181 H176 0.950 . S
C181 C182 1.478 . S
C182 C181 1.478 . S
C182 C183 1.397 . S
C182 C199 1.394 . S
C183 C182 1.397 . S
C183 C184 1.438 . S
C183 C188 1.429 . S
C184 C183 1.438 . S
C184 C185 1.428 . S
C184 C197 1.394 . S
C185 H177 0.949 . S
C185 C184 1.428 . S
C185 C186 1.345 . S
C186 H178 0.950 . S
C186 C185 1.345 . S
C186 C187 1.424 . S
C187 H179 0.951 . S
C187 C186 1.424 . S
C187 C188 1.347 . S
C188 H180 0.951 . S
C188 C183 1.429 . S
C188 C187 1.347 . S
H189 C190 0.951 . S
C190 H189 0.951 . S
C190 C196 1.265 . S
H191 C196 0.950 . S
H192 C200 0.949 . S
H193 C201 0.950 . S
H194 C202 0.951 . S
H195 C203 0.951 . S
C196 C190 1.265 . S
C196 H191 0.950 . S
C196 C197 1.478 . S
C197 C184 1.394 . S
C197 C196 1.478 . S
C197 C198 1.397 . S
C198 C197 1.397 . S
C198 C199 1.438 . S
C198 C203 1.429 . S
C199 C182 1.394 . S
C199 C198 1.438 . S
C199 C200 1.428 . S
C200 H192 0.949 . S
C200 C199 1.428 . S
C200 C201 1.345 . S
C201 H193 0.950 . S
C201 C200 1.345 . S
C201 C202 1.424 . S
C202 H194 0.951 . S
C202 C201 1.424 . S
C202 C203 1.347 . S
C203 H195 0.951 . S
C203 C198 1.429 . S
C203 C202 1.347 . S
H204 C205 0.951 . S
C205 H204 0.951 . S
C205 C211 1.265 . S
H206 C211 0.950 . S
H207 C215 0.949 . S
H208 C216 0.950 . S
H209 C217 0.951 . S
H210 C218 0.951 . S
C211 C205 1.265 . S
C211 H206 0.950 . S
C211 C212 1.478 . S
C212 C211 1.478 . S
C212 C213 1.397 1_545 S
C212 C229 1.394 . S
C213 C212 1.397 1_565 S
C213 C214 1.438 . S
C213 C218 1.429 . S
C214 C213 1.438 . S
C214 C215 1.428 . S
C214 C227 1.394 . S
C215 H207 0.949 . S
C215 C214 1.428 . S
C215 C216 1.345 . S
C216 H208 0.950 . S
C216 C215 1.345 . S
C216 C217 1.424 . S
C217 H209 0.951 . S
C217 C216 1.424 . S
C217 C218 1.347 . S
C218 H210 0.951 . S
C218 C213 1.429 . S
C218 C217 1.347 . S
H219 C220 0.951 . S
C220 H219 0.951 . S
C220 C226 1.265 . S
H221 C226 0.950 . S
H222 C230 0.949 . S
H223 C231 0.950 . S
H224 C232 0.951 . S
H225 C233 0.951 . S
C226 C220 1.265 . S
C226 H221 0.950 . S
C226 C227 1.478 . S
C227 C214 1.394 . S
C227 C226 1.478 . S
C227 C228 1.397 1_565 S
C228 C227 1.397 1_545 S
C228 C229 1.438 . S
C228 C233 1.429 . S
C229 C212 1.394 . S
C229 C228 1.438 . S
C229 C230 1.428 . S
C230 H222 0.949 . S
C230 C229 1.428 . S
C230 C231 1.345 . S
C231 H223 0.950 . S
C231 C230 1.345 . S
C231 C232 1.424 . S
C232 H224 0.951 . S
C232 C231 1.424 . S
C232 C233 1.347 . S
C233 H225 0.951 . S
C233 C228 1.429 . S
C233 C232 1.347 . S
H234 C235 0.951 . S
C235 H234 0.951 . S
C235 C241 1.265 . S
H236 C241 0.950 . S
H237 C245 0.949 . S
H238 C246 0.950 . S
H239 C247 0.951 . S
H240 C248 0.951 . S
C241 C235 1.265 . S
C241 H236 0.950 . S
C241 C242 1.478 . S
C242 C241 1.478 . S
C242 C243 1.397 . S
C242 C259 1.394 . S
C243 C242 1.397 . S
C243 C244 1.438 . S
C243 C248 1.429 . S
C244 C243 1.438 . S
C244 C245 1.428 . S
C244 C257 1.394 . S
C245 H237 0.949 . S
C245 C244 1.428 . S
C245 C246 1.345 . S
C246 H238 0.950 . S
C246 C245 1.345 . S
C246 C247 1.424 . S
C247 H239 0.951 . S
C247 C246 1.424 . S
C247 C248 1.347 . S
C248 H240 0.951 . S
C248 C243 1.429 . S
C248 C247 1.347 . S
H249 C250 0.951 . S
C250 H249 0.951 . S
C250 C256 1.265 . S
H251 C256 0.950 . S
H252 C260 0.949 . S
H253 C261 0.950 1_554 S
H254 C262 0.951 1_554 S
H255 C263 0.951 . S
C256 C250 1.265 . S
C256 H251 0.950 . S
C256 C257 1.478 . S
C257 C244 1.394 . S
C257 C256 1.478 . S
C257 C258 1.397 . S
C258 C257 1.397 . S
C258 C259 1.438 . S
C258 C263 1.429 . S
C259 C242 1.394 . S
C259 C258 1.438 . S
C259 C260 1.428 . S
C260 H252 0.949 . S
C260 C259 1.428 . S
C260 C261 1.345 . S
C261 H253 0.950 1_556 S
C261 C260 1.345 . S
C261 C262 1.424 . S
C262 H254 0.951 1_556 S
C262 C261 1.424 . S
C262 C263 1.347 . S
C263 H255 0.951 . S
C263 C258 1.429 . S
C263 C262 1.347 . S
H264 C265 0.951 . S
C265 H264 0.951 . S
C265 C271 1.265 . S
H266 C271 0.950 . S
H267 C275 0.949 . S
H268 C276 0.950 . S
H269 C277 0.951 . S
H270 C278 0.951 . S
C271 C265 1.265 . S
C271 H266 0.950 . S
C271 C272 1.478 . S
C272 C271 1.478 . S
C272 C273 1.397 1_545 S
C272 C289 1.394 1_554 S
C273 C272 1.397 1_565 S
C273 C274 1.438 1_455 S
C273 C278 1.429 . S
C274 C273 1.438 1_655 S
C274 C275 1.428 . S
C274 C287 1.394 1_554 S
C275 H267 0.949 . S
C275 C274 1.428 . S
C275 C276 1.345 1_655 S
C276 H268 0.950 . S
C276 C275 1.345 1_455 S
C276 C277 1.424 . S
C277 H269 0.951 . S
C277 C276 1.424 . S
C277 C278 1.347 . S
C278 H270 0.951 . S
C278 C273 1.429 . S
C278 C277 1.347 . S
H279 C280 0.951 . S
C280 H279 0.951 . S
C280 C286 1.265 . S
H281 C286 0.950 . S
H282 C290 0.949 . S
H283 C291 0.950 . S
H284 C292 0.951 . S
H285 C293 0.951 . S
C286 C280 1.265 . S
C286 H281 0.950 . S
C286 C287 1.478 . S
C287 C274 1.394 1_556 S
C287 C286 1.478 . S
C287 C288 1.397 1_565 S
C288 C287 1.397 1_545 S
C288 C289 1.438 1_655 S
C288 C293 1.429 . S
C289 C272 1.394 1_556 S
C289 C288 1.438 1_455 S
C289 C290 1.428 . S
C290 H282 0.949 . S
C290 C289 1.428 . S
C290 C291 1.345 1_455 S
C291 H283 0.950 . S
C291 C290 1.345 1_655 S
C291 C292 1.424 . S
C292 H284 0.951 . S
C292 C291 1.424 . S
C292 C293 1.347 . S
C293 H285 0.951 . S
C293 C288 1.429 . S
C293 C292 1.347 . S
H294 C295 0.951 . S
C295 H294 0.951 . S
C295 C301 1.265 . S
H296 C301 0.950 . S
H297 C305 0.949 . S
H298 C306 0.950 . S
H299 C307 0.951 . S
H300 C308 0.951 1_545 S
C301 C295 1.265 . S
C301 H296 0.950 . S
C301 C302 1.478 . S
C302 C301 1.478 . S
C302 C303 1.397 1_545 S
C302 C319 1.394 1_556 S
C303 C302 1.397 1_565 S
C303 C304 1.438 . S
C303 C308 1.429 . S
C304 C303 1.438 . S
C304 C305 1.428 . S
C304 C317 1.394 1_556 S
C305 H297 0.949 . S
C305 C304 1.428 . S
C305 C306 1.345 . S
C306 H298 0.950 . S
C306 C305 1.345 . S
C306 C307 1.424 . S
C307 H299 0.951 . S
C307 C306 1.424 . S
C307 C308 1.347 . S
C308 H300 0.951 1_565 S
C308 C303 1.429 . S
C308 C307 1.347 . S
H309 C310 0.951 . S
C310 H309 0.951 . S
C310 C316 1.265 . S
H311 C316 0.950 . S
H312 C320 0.949 . S
H313 C321 0.950 . S
H314 C322 0.951 . S
H315 C323 0.951 1_565 S
C316 C310 1.265 . S
C316 H311 0.950 . S
C316 C317 1.478 . S
C317 C304 1.394 1_554 S
C317 C316 1.478 . S
C317 C318 1.397 1_565 S
C318 C317 1.397 1_545 S
C318 C319 1.438 . S
C318 C323 1.429 . S
C319 C302 1.394 1_554 S
C319 C318 1.438 . S
C319 C320 1.428 . S
C320 H312 0.949 . S
C320 C319 1.428 . S
C320 C321 1.345 . S
C321 H313 0.950 . S
C321 C320 1.345 . S
C321 C322 1.424 . S
C322 H314 0.951 . S
C322 C321 1.424 . S
C322 C323 1.347 . S
C323 H315 0.951 1_545 S
C323 C318 1.429 . S
C323 C322 1.347 . S
H324 C325 0.951 . S
C325 H324 0.951 . S
C325 C331 1.265 . S
H326 C331 0.950 . S
H327 C335 0.949 . S
H328 C336 0.950 . S
H329 C337 0.951 . S
H330 C338 0.951 . S
C331 C325 1.265 . S
C331 H326 0.950 . S
C331 C332 1.478 . S
C332 C331 1.478 . S
C332 C333 1.406 . S
C332 C349 1.394 . S
C333 C332 1.406 . S
C333 C334 1.428 1_655 S
C333 C338 1.430 . S
C334 C333 1.428 1_455 S
C334 C335 1.428 . S
C334 C347 1.394 . S
C335 H327 0.949 . S
C335 C334 1.428 . S
C335 C336 1.345 . S
C336 H328 0.950 . S
C336 C335 1.345 . S
C336 C337 1.424 . S
C337 H329 0.951 . S
C337 C336 1.424 . S
C337 C338 1.347 1_455 S
C338 H330 0.951 . S
C338 C333 1.430 . S
C338 C337 1.347 1_655 S
H339 C340 0.951 . S
C340 H339 0.951 . S
C340 C346 1.265 . S
H341 C346 0.950 . S
H342 C350 0.949 . S
H343 C351 0.950 . S
H344 C352 0.951 . S
H345 C353 0.951 . S
C346 C340 1.265 . S
C346 H341 0.950 . S
C346 C347 1.478 . S
C347 C334 1.394 . S
C347 C346 1.478 . S
C347 C348 1.406 . S
C348 C347 1.406 . S
C348 C349 1.428 1_455 S
C348 C353 1.430 . S
C349 C332 1.394 . S
C349 C348 1.428 1_655 S
C349 C350 1.428 . S
C350 H342 0.949 . S
C350 C349 1.428 . S
C350 C351 1.345 . S
C351 H343 0.950 . S
C351 C350 1.345 . S
C351 C352 1.424 . S
C352 H344 0.951 . S
C352 C351 1.424 . S
C352 C353 1.347 1_655 S
C353 H345 0.951 . S
C353 C348 1.430 . S
C353 C352 1.347 1_455 S
H354 C355 0.951 . S
C355 H354 0.951 . S
C355 C361 1.265 . S
H356 C361 0.950 . S
H357 C365 0.949 . S
H358 C366 0.950 . S
H359 C367 0.951 . S
H360 C368 0.951 . S
C361 C355 1.265 . S
C361 H356 0.950 . S
C361 C362 1.478 . S
C362 C361 1.478 . S
C362 C363 1.397 . S
C362 C379 1.394 . S
C363 C362 1.397 . S
C363 C364 1.438 . S
C363 C368 1.429 . S
C364 C363 1.438 . S
C364 C365 1.428 . S
C364 C377 1.394 . S
C365 H357 0.949 . S
C365 C364 1.428 . S
C365 C366 1.345 . S
C366 H358 0.950 . S
C366 C365 1.345 . S
C366 C367 1.424 . S
C367 H359 0.951 . S
C367 C366 1.424 . S
C367 C368 1.347 . S
C368 H360 0.951 . S
C368 C363 1.429 . S
C368 C367 1.347 . S
H369 C370 0.951 . S
C370 H369 0.951 . S
C370 C376 1.265 . S
H371 C376 0.950 . S
H372 C380 0.949 . S
H373 C381 0.950 . S
H374 C382 0.951 . S
H375 C383 0.951 . S
C376 C370 1.265 . S
C376 H371 0.950 . S
C376 C377 1.478 . S
C377 C364 1.394 . S
C377 C376 1.478 . S
C377 C378 1.397 . S
C378 C377 1.397 . S
C378 C379 1.438 . S
C378 C383 1.429 . S
C379 C362 1.394 . S
C379 C378 1.438 . S
C379 C380 1.428 . S
C380 H372 0.949 . S
C380 C379 1.428 . S
C380 C381 1.345 . S
C381 H373 0.950 . S
C381 C380 1.345 . S
C381 C382 1.424 . S
C382 H374 0.951 . S
C382 C381 1.424 . S
C382 C383 1.347 . S
C383 H375 0.951 . S
C383 C378 1.429 . S
C383 C382 1.347 . S
C145 C40 0.917 . S
C160 C4 0.912 . S
C175 C2 0.925 . S
C190 C38 0.902 . S
C205 C112 0.910 . S
C220 C76 0.918 . S
C235 C74 0.915 . S
C250 C110 0.914 . S
C265 C14 1.522 . S
C280 C86 1.522 . S
C295 C122 1.435 . S
C310 C50 1.435 . S
C325 C75 1.559 . S
C340 C3 1.559 . S
C355 C39 1.536 . S
C370 C111 1.536 . S
