# Generated by pormake.
# Topology wji, (4)-cn, num edge types: 1
# Building blocks:
#     Node 0, Type 0, BuildingBlock: UXUYUI_clean_sbu_0, # of connection points: 4
#     Node 1, Type 0, BuildingBlock: UXUYUI_clean_sbu_0, # of connection points: 4
#     Node 2, Type 0, BuildingBlock: UXUYUI_clean_sbu_0, # of connection points: 4
#     Node 3, Type 0, BuildingBlock: UXUYUI_clean_sbu_0, # of connection points: 4
#     Node 4, Type 0, BuildingBlock: UXUYUI_clean_sbu_0, # of connection points: 4
#     Node 5, Type 0, BuildingBlock: UXUYUI_clean_sbu_0, # of connection points: 4
#     Node 6, Type 0, BuildingBlock: UXUYUI_clean_sbu_0, # of connection points: 4
#     Node 7, Type 0, BuildingBlock: UXUYUI_clean_sbu_0, # of connection points: 4
#     Node 8, Type 0, BuildingBlock: UXUYUI_clean_sbu_0, # of connection points: 4
#     Node 9, Type 0, BuildingBlock: UXUYUI_clean_sbu_0, # of connection points: 4
#     Node 10, Type 0, BuildingBlock: UXUYUI_clean_sbu_0, # of connection points: 4
#     Node 11, Type 0, BuildingBlock: UXUYUI_clean_sbu_0, # of connection points: 4
#     Edge 12, Type (0, 0), BuildingBlock: ZUJKAS_clean_linker_0, # of connection points: 2
#     Edge 13, Type (0, 0), BuildingBlock: ZUJKAS_clean_linker_0, # of connection points: 2
#     Edge 14, Type (0, 0), BuildingBlock: ZUJKAS_clean_linker_0, # of connection points: 2
#     Edge 15, Type (0, 0), BuildingBlock: ZUJKAS_clean_linker_0, # of connection points: 2
#     Edge 16, Type (0, 0), BuildingBlock: ZUJKAS_clean_linker_0, # of connection points: 2
#     Edge 17, Type (0, 0), BuildingBlock: ZUJKAS_clean_linker_0, # of connection points: 2
#     Edge 18, Type (0, 0), BuildingBlock: ZUJKAS_clean_linker_0, # of connection points: 2
#     Edge 19, Type (0, 0), BuildingBlock: ZUJKAS_clean_linker_0, # of connection points: 2
#     Edge 20, Type (0, 0), BuildingBlock: ZUJKAS_clean_linker_0, # of connection points: 2
#     Edge 21, Type (0, 0), BuildingBlock: ZUJKAS_clean_linker_0, # of connection points: 2
#     Edge 22, Type (0, 0), BuildingBlock: ZUJKAS_clean_linker_0, # of connection points: 2
#     Edge 23, Type (0, 0), BuildingBlock: ZUJKAS_clean_linker_0, # of connection points: 2
#     Edge 24, Type (0, 0), BuildingBlock: ZUJKAS_clean_linker_0, # of connection points: 2
#     Edge 25, Type (0, 0), BuildingBlock: ZUJKAS_clean_linker_0, # of connection points: 2
#     Edge 26, Type (0, 0), BuildingBlock: ZUJKAS_clean_linker_0, # of connection points: 2
#     Edge 27, Type (0, 0), BuildingBlock: ZUJKAS_clean_linker_0, # of connection points: 2
#     Edge 28, Type (0, 0), BuildingBlock: ZUJKAS_clean_linker_0, # of connection points: 2
#     Edge 29, Type (0, 0), BuildingBlock: ZUJKAS_clean_linker_0, # of connection points: 2
#     Edge 30, Type (0, 0), BuildingBlock: ZUJKAS_clean_linker_0, # of connection points: 2
#     Edge 31, Type (0, 0), BuildingBlock: ZUJKAS_clean_linker_0, # of connection points: 2
#     Edge 32, Type (0, 0), BuildingBlock: ZUJKAS_clean_linker_0, # of connection points: 2
#     Edge 33, Type (0, 0), BuildingBlock: ZUJKAS_clean_linker_0, # of connection points: 2
#     Edge 34, Type (0, 0), BuildingBlock: ZUJKAS_clean_linker_0, # of connection points: 2
#     Edge 35, Type (0, 0), BuildingBlock: ZUJKAS_clean_linker_0, # of connection points: 2
# Relax obj value: 0.267
# Max RMSD: 0.141
# Mean RMSD: 0.141
data_MOF--net-wji--node1-UXUYUI_clean_sbu_0--edge1-ZUJKAS_clean_linker_0
_symmetry_space_group_name_H-M    P1
_symmetry_Int_Tables_number       1
_symmetry_cell_setting            triclinic
loop_
_symmetry_equiv_pos_as_xyz
'x, y, z'
_cell_length_a     99.994309
_cell_length_b     99.98809
_cell_length_c     39.862863
_cell_angle_alpha  89.996453
_cell_angle_beta   90.001765
_cell_angle_gamma 120.00505
loop_
_atom_site_label
_atom_site_type_symbol
_atom_site_fract_x
_atom_site_fract_y
_atom_site_fract_z
_atom_type_partial_charge
Li0 Li 0.40851 0.32148 0.4393 0.0
Li1 Li 0.41432 0.30177 0.41465 0.0
Li2 Li 0.43246 0.33063 0.40794 0.0
Li3 Li 0.40826 0.3178 0.37954 0.0
C4 C 0.42731 0.31857 0.48368 0.0
N5 N 0.42941 0.31967 0.55289 0.0
C6 C 0.42262 0.30504 0.50211 0.0
C7 C 0.43317 0.33267 0.5005 0.0
C8 C 0.42376 0.30583 0.53706 0.0
C9 C 0.4341 0.33298 0.53548 0.0
C10 C 0.38114 0.2954 0.39806 0.0
C11 C 0.3635 0.27675 0.35832 0.0
N12 N 0.35364 0.28224 0.36307 0.0
C13 C 0.37082 0.30082 0.40272 0.0
C14 C 0.37747 0.28325 0.37581 0.0
C15 C 0.35698 0.29402 0.38473 0.0
C16 C 0.39625 0.33758 0.4729 0.0
N17 N 0.39853 0.32532 0.47533 0.0
C18 C 0.38653 0.31886 0.52926 0.0
C19 C 0.39347 0.31574 0.50233 0.0
C20 C 0.38444 0.33175 0.52797 0.0
C21 C 0.3892 0.34103 0.49902 0.0
H22 H 0.39987 0.34467 0.45059 0.0
H23 H 0.39492 0.30575 0.50309 0.0
C24 C 0.42648 0.2826 0.42969 0.0
N25 N 0.41314 0.28289 0.42566 0.0
C26 C 0.42641 0.27042 0.44703 0.0
C27 C 0.39875 0.25869 0.45364 0.0
C28 C 0.39936 0.27109 0.4363 0.0
C29 C 0.41249 0.25858 0.46043 0.0
H30 H 0.43731 0.29238 0.42175 0.0
H31 H 0.389 0.27185 0.43348 0.0
C32 C 0.42569 0.35295 0.40023 0.0
N33 N 0.44362 0.38453 0.3917 0.0
C34 C 0.42847 0.35935 0.36805 0.0
C35 C 0.43195 0.36262 0.42807 0.0
C36 C 0.43757 0.37534 0.36427 0.0
C37 C 0.44101 0.37855 0.42324 0.0
C38 C 0.42521 0.30952 0.34141 0.0
C39 C 0.4307 0.32076 0.31626 0.0
C40 C 0.41934 0.29401 0.33292 0.0
C41 C 0.43009 0.31626 0.28285 0.0
C42 C 0.41896 0.28998 0.29923 0.0
N43 N 0.42428 0.3011 0.2751 0.0
C44 C 0.4625 0.34849 0.43443 0.0
C45 C 0.45961 0.35573 0.37953 0.0
C46 C 0.4776 0.36086 0.43612 0.0
N47 N 0.45371 0.34641 0.40679 0.0
C48 C 0.47463 0.36832 0.3802 0.0
C49 C 0.48375 0.3712 0.40905 0.0
H50 H 0.45774 0.34068 0.45541 0.0
H51 H 0.45252 0.35369 0.35759 0.0
C52 C 0.39195 0.32883 0.34536 0.0
N53 N 0.39685 0.31847 0.3413 0.0
C54 C 0.38358 0.33102 0.32029 0.0
C55 C 0.38457 0.31122 0.28753 0.0
C56 C 0.39299 0.3094 0.31344 0.0
C57 C 0.38 0.32236 0.29062 0.0
H58 H 0.39449 0.3354 0.36832 0.0
H59 H 0.3963 0.3007 0.31128 0.0
O60 O 0.42621 0.31803 0.44941 0.0
O61 O 0.39494 0.3022 0.41468 0.0
O62 O 0.41685 0.3373 0.40446 0.0
O63 O 0.42594 0.31368 0.37428 0.0
H64 H 0.41804 0.29401 0.48967 0.0
H65 H 0.43693 0.34326 0.4867 0.0
H66 H 0.42012 0.29544 0.55161 0.0
H67 H 0.43855 0.34381 0.54879 0.0
H68 H 0.36053 0.26741 0.34084 0.0
H69 H 0.37356 0.31028 0.41978 0.0
H70 H 0.38542 0.27903 0.37176 0.0
H71 H 0.34891 0.29815 0.3879 0.0
H72 H 0.38312 0.31141 0.55105 0.0
H73 H 0.38743 0.35082 0.49644 0.0
H74 H 0.43729 0.2709 0.45202 0.0
H75 H 0.38776 0.2497 0.4632 0.0
H76 H 0.42385 0.35205 0.34617 0.0
H77 H 0.42982 0.3579 0.45315 0.0
H78 H 0.43989 0.38044 0.3395 0.0
H79 H 0.44597 0.38616 0.44457 0.0
H80 H 0.43523 0.3328 0.32243 0.0
H81 H 0.41511 0.28519 0.35216 0.0
H82 H 0.43421 0.32482 0.26309 0.0
H83 H 0.41441 0.27803 0.29225 0.0
H84 H 0.48434 0.36239 0.45854 0.0
H85 H 0.47882 0.376 0.35878 0.0
H86 H 0.37985 0.33938 0.32423 0.0
H87 H 0.38189 0.30418 0.26518 0.0
Li88 Li 0.1134 0.4173 0.58209 0.0
Li89 Li 0.08906 0.41133 0.60644 0.0
Li90 Li 0.09054 0.40825 0.54719 0.0
Li91 Li 0.10259 0.43461 0.57274 0.0
C92 C 0.09554 0.38691 0.60434 0.0
N93 N 0.09897 0.367 0.64684 0.0
C94 C 0.10104 0.39152 0.63696 0.0
C95 C 0.09173 0.37215 0.59336 0.0
C96 C 0.10271 0.3813 0.65806 0.0
C97 C 0.09356 0.36225 0.61521 0.0
C98 C 0.11278 0.43713 0.64491 0.0
C99 C 0.11173 0.45546 0.68266 0.0
N100 N 0.12 0.45255 0.70565 0.0
C101 C 0.12138 0.43442 0.66886 0.0
C102 C 0.108 0.44782 0.6518 0.0
C103 C 0.12486 0.44229 0.69943 0.0
C104 C 0.14363 0.43102 0.60449 0.0
N105 N 0.13222 0.41768 0.5911 0.0
C106 C 0.14615 0.40466 0.60364 0.0
C107 C 0.13352 0.4048 0.58907 0.0
C108 C 0.15755 0.41794 0.62002 0.0
C109 C 0.15649 0.43142 0.61917 0.0
H110 H 0.14226 0.44107 0.60573 0.0
H111 H 0.12439 0.3944 0.57781 0.0
C112 C 0.06455 0.38666 0.64021 0.0
N113 N 0.07534 0.40184 0.64372 0.0
C114 C 0.05394 0.37883 0.66581 0.0
C115 C 0.06573 0.4024 0.69826 0.0
C116 C 0.07602 0.40978 0.67196 0.0
C117 C 0.05452 0.38673 0.69536 0.0
H118 H 0.06411 0.38064 0.61733 0.0
H119 H 0.08434 0.42185 0.67411 0.0
C120 C 0.11902 0.423 0.51395 0.0
N121 N 0.1337 0.41597 0.46409 0.0
C122 C 0.12889 0.4344 0.49147 0.0
C123 C 0.1166 0.40801 0.51108 0.0
C124 C 0.13621 0.43062 0.46642 0.0
C125 C 0.12414 0.40469 0.4857 0.0
C126 C 0.06666 0.41495 0.58347 0.0
C127 C 0.05362 0.40069 0.57649 0.0
C128 C 0.06547 0.42526 0.60522 0.0
C129 C 0.03958 0.39688 0.5918 0.0
C130 C 0.05123 0.42103 0.62003 0.0
N131 N 0.0387 0.40704 0.61311 0.0
C132 C 0.06922 0.38102 0.51486 0.0
C133 C 0.07934 0.40341 0.4807 0.0
C134 C 0.05867 0.37221 0.48993 0.0
N135 N 0.07903 0.39635 0.51003 0.0
C136 C 0.06901 0.39503 0.45501 0.0
C137 C 0.05823 0.37929 0.45983 0.0
H138 H 0.06912 0.3758 0.53869 0.0
H139 H 0.08714 0.41569 0.47785 0.0
C140 C 0.12082 0.46704 0.57863 0.0
N141 N 0.10716 0.45528 0.56727 0.0
C142 C 0.12357 0.48218 0.57833 0.0
C143 C 0.09846 0.47286 0.55303 0.0
C144 C 0.09613 0.4579 0.55414 0.0
C145 C 0.1122 0.48519 0.5658 0.0
H146 H 0.12935 0.46456 0.58899 0.0
H147 H 0.08536 0.44829 0.54542 0.0
O148 O 0.09398 0.39677 0.583 0.0
O149 O 0.10953 0.42976 0.61451 0.0
O150 O 0.11181 0.42658 0.53859 0.0
O151 O 0.08061 0.41867 0.56961 0.0
H152 H 0.10393 0.40283 0.6459 0.0
H153 H 0.08751 0.36843 0.56812 0.0
H154 H 0.10697 0.38473 0.68336 0.0
H155 H 0.0907 0.35081 0.60701 0.0
H156 H 0.10801 0.46368 0.68836 0.0
H157 H 0.12538 0.42637 0.66394 0.0
H158 H 0.10128 0.45004 0.63378 0.0
H159 H 0.13146 0.44026 0.71819 0.0
H160 H 0.14667 0.3941 0.60331 0.0
H161 H 0.16494 0.44187 0.63171 0.0
H162 H 0.04547 0.36673 0.66262 0.0
H163 H 0.06635 0.40898 0.72037 0.0
H164 H 0.13088 0.44606 0.49339 0.0
H165 H 0.10899 0.39901 0.52817 0.0
H166 H 0.14389 0.43934 0.44885 0.0
H167 H 0.12238 0.39315 0.48319 0.0
H168 H 0.05436 0.39256 0.55978 0.0
H169 H 0.07545 0.43635 0.61085 0.0
H170 H 0.02941 0.38583 0.58684 0.0
H171 H 0.05016 0.42885 0.63711 0.0
H172 H 0.05066 0.36009 0.49454 0.0
H173 H 0.06894 0.40099 0.43238 0.0
H174 H 0.13437 0.49139 0.58815 0.0
H175 H 0.08935 0.47468 0.54347 0.0
Li176 Li 0.69382 0.10933 0.75466 0.0
Li177 Li 0.67394 0.0834 0.77102 0.0
Li178 Li 0.68111 0.09029 0.7119 0.0
Li179 Li 0.66647 0.10007 0.74218 0.0
C180 C 0.70837 0.09317 0.75715 0.0
N181 N 0.73816 0.10147 0.77558 0.0
C182 C 0.71117 0.08837 0.78797 0.0
C183 C 0.72068 0.10205 0.73554 0.0
C184 C 0.72632 0.09272 0.79687 0.0
C185 C 0.73567 0.10617 0.74537 0.0
C186 C 0.67074 0.1103 0.80561 0.0
C187 C 0.64977 0.10962 0.83696 0.0
N188 N 0.65863 0.12503 0.84299 0.0
C189 C 0.67965 0.12612 0.81217 0.0
C190 C 0.6557 0.10196 0.81818 0.0
C191 C 0.67332 0.13335 0.83113 0.0
C192 C 0.7211 0.13958 0.75588 0.0
N193 N 0.71218 0.12597 0.77205 0.0
C194 C 0.72801 0.13511 0.82087 0.0
C195 C 0.71533 0.1236 0.80392 0.0
C196 C 0.7374 0.14935 0.80514 0.0
C197 C 0.73386 0.15159 0.77222 0.0
H198 H 0.71815 0.14118 0.73067 0.0
H199 H 0.70773 0.11281 0.8164 0.0
C200 C 0.66806 0.05467 0.79848 0.0
N201 N 0.66866 0.06831 0.805 0.0
C202 C 0.66473 0.04396 0.82421 0.0
C203 C 0.66305 0.06171 0.86283 0.0
C204 C 0.66641 0.07204 0.83644 0.0
C205 C 0.66212 0.04744 0.85688 0.0
H206 H 0.67029 0.05218 0.77338 0.0
H207 H 0.66748 0.08315 0.8412 0.0
C208 C 0.68663 0.11571 0.67966 0.0
N209 N 0.68996 0.12241 0.61193 0.0
C210 C 0.67449 0.11534 0.66152 0.0
C211 C 0.70052 0.11965 0.66349 0.0
C212 C 0.67639 0.11873 0.62725 0.0
C213 C 0.70196 0.12295 0.62919 0.0
C214 C 0.64959 0.06334 0.73689 0.0
C215 C 0.65068 0.05185 0.71923 0.0
C216 C 0.63788 0.05919 0.76065 0.0
C217 C 0.64004 0.03635 0.72575 0.0
C218 C 0.62749 0.04356 0.7665 0.0
N219 N 0.62877 0.03256 0.74908 0.0
C220 C 0.69171 0.07553 0.66737 0.0
C221 C 0.67145 0.07908 0.64686 0.0
C222 C 0.69007 0.06602 0.64014 0.0
N223 N 0.68222 0.08154 0.67051 0.0
C224 C 0.66953 0.06981 0.61911 0.0
C225 C 0.67851 0.06265 0.6161 0.0
H226 H 0.69987 0.0773 0.68704 0.0
H227 H 0.66372 0.08358 0.65056 0.0
C228 C 0.65306 0.11939 0.74704 0.0
N229 N 0.6505 0.10509 0.7389 0.0
C230 C 0.64079 0.12234 0.7477 0.0
C231 C 0.62378 0.09614 0.72915 0.0
C232 C 0.6363 0.09364 0.72938 0.0
C233 C 0.6259 0.11055 0.739 0.0
H234 H 0.66455 0.1284 0.75376 0.0
H235 H 0.63463 0.08246 0.72248 0.0
O236 O 0.69365 0.08922 0.74821 0.0
O237 O 0.6767 0.10301 0.78698 0.0
O238 O 0.68495 0.11231 0.71313 0.0
O239 O 0.65997 0.07859 0.7311 0.0
H240 H 0.70176 0.08148 0.80498 0.0
H241 H 0.71869 0.10579 0.71155 0.0
H242 H 0.72868 0.08916 0.82073 0.0
H243 H 0.74533 0.11312 0.72899 0.0
H244 H 0.63812 0.10333 0.84669 0.0
H245 H 0.69128 0.13279 0.80254 0.0
H246 H 0.64863 0.08973 0.81327 0.0
H247 H 0.68007 0.14559 0.83632 0.0
H248 H 0.73017 0.13306 0.84647 0.0
H249 H 0.74084 0.16247 0.75939 0.0
H250 H 0.66409 0.03306 0.81859 0.0
H251 H 0.66147 0.065 0.88777 0.0
H252 H 0.66368 0.11235 0.6737 0.0
H253 H 0.71006 0.12011 0.67728 0.0
H254 H 0.66707 0.1184 0.61283 0.0
H255 H 0.71261 0.12593 0.61629 0.0
H256 H 0.65969 0.05482 0.70085 0.0
H257 H 0.63689 0.06794 0.77456 0.0
H258 H 0.64076 0.02733 0.71233 0.0
H259 H 0.61842 0.04018 0.78492 0.0
H260 H 0.69711 0.0606 0.63916 0.0
H261 H 0.66062 0.06771 0.601 0.0
H262 H 0.6429 0.13366 0.75503 0.0
H263 H 0.61246 0.08674 0.72238 0.0
Li264 Li 0.58976 0.67807 0.93936 0.0
Li265 Li 0.58324 0.69743 0.91665 0.0
Li266 Li 0.56601 0.6686 0.90828 0.0
Li267 Li 0.59033 0.6825 0.8801 0.0
C268 C 0.57187 0.67979 0.98477 0.0
N269 N 0.57317 0.67816 0.05381 0.0
C270 C 0.57729 0.69315 0.00421 0.0
C271 C 0.56699 0.66558 0.00049 0.0
C272 C 0.57787 0.69208 0.03907 0.0
C273 C 0.56778 0.665 0.0354 0.0
C274 C 0.61698 0.70561 0.90073 0.0
C275 C 0.63426 0.72505 0.86183 0.0
N276 N 0.64504 0.72084 0.868 0.0
C277 C 0.62824 0.70155 0.9069 0.0
C278 C 0.62001 0.71751 0.8782 0.0
C279 C 0.64235 0.70937 0.89002 0.0
C280 C 0.5988 0.66048 0.97863 0.0
N281 N 0.59994 0.67453 0.97536 0.0
C282 C 0.61524 0.68365 0.02505 0.0
C283 C 0.60814 0.68613 0.99751 0.0
C284 C 0.61399 0.66913 0.02954 0.0
C285 C 0.60573 0.65749 0.00574 0.0
H286 H 0.59241 0.65155 0.96036 0.0
H287 H 0.609 0.69726 0.99391 0.0
C288 C 0.57009 0.71588 0.93024 0.0
N289 N 0.58364 0.71587 0.92845 0.0
C290 C 0.56942 0.72784 0.9468 0.0
C291 C 0.59683 0.73985 0.95775 0.0
C292 C 0.59697 0.72769 0.94092 0.0
C293 C 0.58281 0.73975 0.96188 0.0
H294 H 0.55964 0.70614 0.9206 0.0
H295 H 0.60748 0.72712 0.93989 0.0
C296 C 0.57334 0.64754 0.89364 0.0
N297 N 0.55536 0.61718 0.8734 0.0
C298 C 0.57232 0.64369 0.85964 0.0
C299 C 0.56519 0.63594 0.91731 0.0
C300 C 0.56319 0.62827 0.84993 0.0
C301 C 0.55615 0.62067 0.90658 0.0
C302 C 0.57257 0.69092 0.84352 0.0
C303 C 0.56635 0.68035 0.81711 0.0
C304 C 0.57879 0.70668 0.83724 0.0
C305 C 0.56658 0.68578 0.78469 0.0
C306 C 0.57879 0.71164 0.80447 0.0
N307 N 0.57275 0.70118 0.7791 0.0
C308 C 0.53636 0.64949 0.93513 0.0
C309 C 0.5388 0.64378 0.87858 0.0
C310 C 0.52136 0.63695 0.93662 0.0
N311 N 0.54487 0.65246 0.90668 0.0
C312 C 0.52386 0.63103 0.879 0.0
C313 C 0.51501 0.62731 0.90852 0.0
H314 H 0.54127 0.65676 0.95689 0.0
H315 H 0.5457 0.64645 0.85612 0.0
C316 C 0.60977 0.6749 0.84834 0.0
N317 N 0.60253 0.6831 0.84225 0.0
C318 C 0.61919 0.6738 0.82415 0.0
C319 C 0.61389 0.68986 0.78756 0.0
C320 C 0.6047 0.69085 0.81283 0.0
C321 C 0.62122 0.68118 0.79314 0.0
H322 H 0.60816 0.66913 0.87218 0.0
H323 H 0.59944 0.69785 0.80887 0.0
O324 O 0.57159 0.68064 0.95052 0.0
O325 O 0.60294 0.6978 0.91625 0.0
O326 O 0.58214 0.66259 0.90368 0.0
O327 O 0.57215 0.68583 0.87552 0.0
H328 H 0.58112 0.70424 0.99257 0.0
H329 H 0.56285 0.65514 0.98583 0.0
H330 H 0.5821 0.70234 0.05441 0.0
H331 H 0.56417 0.65411 0.04786 0.0
H332 H 0.63674 0.7342 0.84414 0.0
H333 H 0.62602 0.69233 0.92424 0.0
H334 H 0.61137 0.72075 0.87315 0.0
H335 H 0.65115 0.70628 0.89434 0.0
H336 H 0.62167 0.693 0.04255 0.0
H337 H 0.60434 0.64609 0.00838 0.0
H338 H 0.55842 0.7274 0.94906 0.0
H339 H 0.60738 0.74864 0.96937 0.0
H340 H 0.57829 0.65251 0.84084 0.0
H341 H 0.56566 0.63871 0.94366 0.0
H342 H 0.56226 0.62514 0.82371 0.0
H343 H 0.54972 0.6116 0.92462 0.0
H344 H 0.56153 0.66813 0.82155 0.0
H345 H 0.58355 0.715 0.85744 0.0
H346 H 0.56188 0.67775 0.76397 0.0
H347 H 0.5836 0.72381 0.79921 0.0
H348 H 0.51484 0.63478 0.95964 0.0
H349 H 0.51951 0.6239 0.85678 0.0
H350 H 0.62452 0.66689 0.82938 0.0
H351 H 0.61535 0.69587 0.76405 0.0
Li352 Li 0.91466 0.59003 0.10365 0.0
Li353 Li 0.88867 0.58386 0.08778 0.0
Li354 Li 0.898 0.5659 0.07534 0.0
Li355 Li 0.90761 0.59014 0.04471 0.0
C356 C 0.88745 0.55951 0.13735 0.0
N357 N 0.87191 0.53168 0.171 0.0
C358 C 0.87144 0.55224 0.14148 0.0
C359 C 0.89556 0.55267 0.15046 0.0
C360 C 0.8638 0.53817 0.15859 0.0
C361 C 0.88749 0.53857 0.16731 0.0
C362 C 0.90474 0.61455 0.09005 0.0
C363 C 0.89174 0.62888 0.07863 0.0
N364 N 0.89636 0.63591 0.10902 0.0
C365 C 0.90947 0.622 0.12105 0.0
C366 C 0.89591 0.61808 0.06853 0.0
C367 C 0.90507 0.63274 0.13021 0.0
C368 C 0.94349 0.61319 0.12955 0.0
N369 N 0.93002 0.60011 0.13694 0.0
C370 C 0.9376 0.60129 0.19408 0.0
C371 C 0.92686 0.59416 0.16845 0.0
C372 C 0.95171 0.6147 0.18719 0.0
C373 C 0.95465 0.62064 0.15441 0.0
H374 H 0.94551 0.61785 0.1044 0.0
H375 H 0.91595 0.58394 0.17377 0.0
C376 C 0.85844 0.58095 0.08872 0.0
N377 N 0.87199 0.58561 0.10512 0.0
C378 C 0.84637 0.58167 0.10486 0.0
C379 C 0.86268 0.59226 0.15375 0.0
C380 C 0.87424 0.59108 0.13701 0.0
C381 C 0.84849 0.58741 0.13779 0.0
H382 H 0.85691 0.57642 0.06351 0.0
H383 H 0.88499 0.59426 0.14968 0.0
C384 C 0.93477 0.58602 0.06969 0.0
N385 N 0.96569 0.59676 0.08224 0.0
C386 C 0.94611 0.59827 0.05093 0.0
C387 C 0.93917 0.57921 0.09476 0.0
C388 C 0.96167 0.60352 0.05765 0.0
C389 C 0.95485 0.58483 0.10077 0.0
C390 C 0.8821 0.57025 0.01295 0.0
C391 C 0.88244 0.5585 0.99464 0.0
C392 C 0.87806 0.58017 0.99702 0.0
C393 C 0.87891 0.55701 0.96044 0.0
C394 C 0.87462 0.5783 0.96277 0.0
N395 N 0.87513 0.56687 0.94535 0.0
C396 C 0.87811 0.53314 0.07565 0.0
C397 C 0.90469 0.54208 0.06671 0.0
C398 C 0.87482 0.5178 0.07524 0.0
N399 N 0.8929 0.54488 0.07203 0.0
C400 C 0.90195 0.52699 0.06601 0.0
C401 C 0.88687 0.51459 0.0706 0.0
H402 H 0.8689 0.5357 0.07929 0.0
H403 H 0.91629 0.55159 0.06336 0.0
C404 C 0.92251 0.61543 0.0002 0.0
N405 N 0.9163 0.5999 0.00324 0.0
C406 C 0.93242 0.62331 0.97352 0.0
C407 C 0.92855 0.59892 0.95268 0.0
C408 C 0.91884 0.59155 0.97985 0.0
C409 C 0.936 0.61509 0.95 0.0
H410 H 0.92066 0.62184 0.01972 0.0
H411 H 0.9142 0.5793 0.98352 0.0
O412 O 0.89513 0.57319 0.1203 0.0
O413 O 0.9087 0.60381 0.08086 0.0
O414 O 0.91945 0.58081 0.0638 0.0
O415 O 0.88564 0.57198 0.04635 0.0
H416 H 0.86495 0.5573 0.13136 0.0
H417 H 0.90794 0.5581 0.14733 0.0
H418 H 0.85141 0.53238 0.16188 0.0
H419 H 0.89361 0.5331 0.1774 0.0
H420 H 0.88482 0.63165 0.06233 0.0
H421 H 0.91631 0.6194 0.13799 0.0
H422 H 0.89223 0.61246 0.0444 0.0
H423 H 0.90856 0.63853 0.15422 0.0
H424 H 0.93495 0.59627 0.21897 0.0
H425 H 0.96532 0.63106 0.14821 0.0
H426 H 0.83552 0.57776 0.09188 0.0
H427 H 0.86464 0.59645 0.17936 0.0
H428 H 0.94298 0.60376 0.03157 0.0
H429 H 0.93057 0.56981 0.1097 0.0
H430 H 0.97056 0.61301 0.04338 0.0
H431 H 0.95841 0.57973 0.12022 0.0
H432 H 0.88553 0.55071 0.00662 0.0
H433 H 0.87763 0.58923 0.01093 0.0
H434 H 0.87921 0.54803 0.94589 0.0
H435 H 0.87155 0.58595 0.95006 0.0
H436 H 0.86301 0.50858 0.07846 0.0
H437 H 0.91162 0.52509 0.0627 0.0
H438 H 0.93804 0.63579 0.97273 0.0
H439 H 0.93082 0.5921 0.93492 0.0
Li440 Li 0.32174 0.91371 0.2718 0.0
Li441 Li 0.30345 0.88738 0.24749 0.0
Li442 Li 0.33263 0.90031 0.23861 0.0
Li443 Li 0.31738 0.90998 0.21329 0.0
C444 C 0.32053 0.88885 0.31308 0.0
N445 N 0.32014 0.87881 0.37794 0.0
C446 C 0.30665 0.88119 0.33095 0.0
C447 C 0.33419 0.89128 0.32821 0.0
C448 C 0.3067 0.87624 0.36369 0.0
C449 C 0.33376 0.88617 0.36102 0.0
C450 C 0.2939 0.91217 0.23261 0.0
C451 C 0.27503 0.90975 0.19177 0.0
N452 N 0.27885 0.92463 0.19777 0.0
C453 C 0.29759 0.92741 0.23852 0.0
C454 C 0.28251 0.90322 0.20916 0.0
C455 C 0.28986 0.93352 0.22058 0.0
C456 C 0.33398 0.94266 0.304 0.0
N457 N 0.32495 0.92716 0.30861 0.0
C458 C 0.32077 0.93095 0.36597 0.0
C459 C 0.31803 0.92125 0.33857 0.0
C460 C 0.33053 0.94694 0.36231 0.0
C461 C 0.337 0.95281 0.33069 0.0
H462 H 0.33897 0.94714 0.27964 0.0
H463 H 0.31033 0.90901 0.34126 0.0
C464 C 0.2879 0.85619 0.26511 0.0
N465 N 0.28585 0.86837 0.25849 0.0
C466 C 0.27634 0.84316 0.28142 0.0
C467 C 0.26046 0.85512 0.28169 0.0
C468 C 0.27237 0.86797 0.26566 0.0
C469 C 0.26259 0.84274 0.29079 0.0
H470 H 0.2989 0.85703 0.25975 0.0
H471 H 0.27126 0.87802 0.26101 0.0
C472 C 0.35227 0.93167 0.24663 0.0
N473 N 0.38222 0.95077 0.26822 0.0
C474 C 0.36292 0.94343 0.22581 0.0
C475 C 0.35686 0.92963 0.27842 0.0
C476 C 0.378 0.95296 0.23717 0.0
C477 C 0.37204 0.9394 0.2889 0.0
C478 C 0.31386 0.8863 0.17284 0.0
C479 C 0.32664 0.89419 0.15179 0.0
C480 C 0.29963 0.87533 0.15942 0.0
C481 C 0.32491 0.8911 0.11739 0.0
C482 C 0.29839 0.87254 0.12489 0.0
N483 N 0.31094 0.88044 0.10478 0.0
C484 C 0.34867 0.88442 0.25224 0.0
C485 C 0.36177 0.90591 0.21588 0.0
C486 C 0.36122 0.88195 0.25196 0.0
N487 N 0.34931 0.89644 0.23492 0.0
C488 C 0.37458 0.90385 0.21483 0.0
C489 C 0.37451 0.89187 0.23343 0.0
H490 H 0.3385 0.87695 0.26681 0.0
H491 H 0.36185 0.91518 0.20179 0.0
C492 C 0.32551 0.93696 0.17986 0.0
N493 N 0.31676 0.92145 0.17523 0.0
C494 C 0.32676 0.94716 0.15467 0.0
C495 C 0.30977 0.92532 0.12016 0.0
C496 C 0.30864 0.91549 0.14637 0.0
C497 C 0.31901 0.94137 0.12417 0.0
H498 H 0.33156 0.94144 0.20329 0.0
H499 H 0.30129 0.90318 0.14357 0.0
O500 O 0.32066 0.89349 0.28066 0.0
O501 O 0.30163 0.90614 0.24921 0.0
O502 O 0.33754 0.92209 0.23551 0.0
O503 O 0.3153 0.88904 0.20655 0.0
H504 H 0.29598 0.87934 0.31997 0.0
H505 H 0.34503 0.89698 0.31478 0.0
H506 H 0.29604 0.87038 0.37781 0.0
H507 H 0.34425 0.888 0.373 0.0
H508 H 0.26626 0.903 0.17337 0.0
H509 H 0.30644 0.93449 0.2565 0.0
H510 H 0.27965 0.89145 0.20406 0.0
H511 H 0.29265 0.94533 0.22473 0.0
H512 H 0.31525 0.926 0.38973 0.0
H513 H 0.34459 0.96508 0.32681 0.0
H514 H 0.27839 0.83381 0.28787 0.0
H515 H 0.25013 0.85534 0.28892 0.0
H516 H 0.35957 0.94511 0.20102 0.0
H517 H 0.34875 0.9207 0.29491 0.0
H518 H 0.38637 0.96209 0.22129 0.0
H519 H 0.37572 0.93796 0.31349 0.0
H520 H 0.33773 0.90269 0.1619 0.0
H521 H 0.28966 0.86908 0.17551 0.0
H522 H 0.33467 0.89718 0.10073 0.0
H523 H 0.28744 0.86413 0.11409 0.0
H524 H 0.36069 0.87263 0.26684 0.0
H525 H 0.38444 0.91158 0.19966 0.0
H526 H 0.33408 0.95946 0.15869 0.0
H527 H 0.30346 0.92044 0.09709 0.0
Li528 Li 0.68097 0.5913 0.45688 0.0
Li529 Li 0.66646 0.56674 0.42548 0.0
Li530 Li 0.69399 0.58508 0.41316 0.0
Li531 Li 0.67373 0.59123 0.39759 0.0
C532 C 0.68686 0.56978 0.48684 0.0
N533 N 0.69083 0.56249 0.55154 0.0
C534 C 0.67433 0.55826 0.50457 0.0
C535 C 0.70145 0.57743 0.50179 0.0
C536 C 0.67656 0.55478 0.53733 0.0
C537 C 0.70321 0.57363 0.53459 0.0
C538 C 0.64801 0.5845 0.4336 0.0
C539 C 0.62443 0.57942 0.40615 0.0
N540 N 0.62387 0.59024 0.42586 0.0
C541 C 0.64716 0.59551 0.45372 0.0
C542 C 0.63652 0.57632 0.40976 0.0
C543 C 0.63488 0.59826 0.44938 0.0
C544 C 0.68899 0.61718 0.49727 0.0
N545 N 0.68217 0.60153 0.49796 0.0
C546 C 0.67231 0.60077 0.55296 0.0
C547 C 0.67405 0.59327 0.52518 0.0
C548 C 0.67869 0.6169 0.5524 0.0
C549 C 0.68746 0.62514 0.52438 0.0
H550 H 0.69481 0.62345 0.47484 0.0
H551 H 0.66818 0.58082 0.52464 0.0
C552 C 0.6529 0.53415 0.41638 0.0
N553 N 0.65065 0.54565 0.42813 0.0
C554 C 0.64075 0.51887 0.41641 0.0
C555 C 0.62454 0.52746 0.44252 0.0
C556 C 0.63692 0.54256 0.44162 0.0
C557 C 0.62631 0.51541 0.42937 0.0
H558 H 0.66405 0.53686 0.40664 0.0
H559 H 0.63552 0.55186 0.45141 0.0
C560 C 0.7086 0.61653 0.42019 0.0
N561 N 0.73894 0.64019 0.42021 0.0
C562 C 0.71412 0.62729 0.39408 0.0
C563 C 0.71845 0.61784 0.44642 0.0
C564 C 0.72952 0.63916 0.3945 0.0
C565 C 0.73377 0.62988 0.44596 0.0
C566 C 0.671 0.56237 0.35926 0.0
C567 C 0.6797 0.55541 0.35114 0.0
C568 C 0.65646 0.55693 0.34477 0.0
C569 C 0.67359 0.54294 0.32889 0.0
C570 C 0.65075 0.54442 0.32268 0.0
N571 N 0.65936 0.53774 0.31527 0.0
C572 C 0.71848 0.57828 0.40848 0.0
C573 C 0.71831 0.59578 0.36852 0.0
C574 C 0.73093 0.57842 0.39212 0.0
N575 N 0.71242 0.5868 0.39624 0.0
C576 C 0.73087 0.59649 0.35183 0.0
C577 C 0.73718 0.58755 0.36328 0.0
H578 H 0.7133 0.57097 0.43016 0.0
H579 H 0.71286 0.60195 0.35868 0.0
C580 C 0.66397 0.61171 0.37261 0.0
N581 N 0.66841 0.6013 0.36439 0.0
C582 C 0.66039 0.61913 0.34745 0.0
C583 C 0.66667 0.60547 0.306 0.0
C584 C 0.66994 0.59819 0.3319 0.0
C585 C 0.66177 0.61605 0.31366 0.0
H586 H 0.66336 0.61436 0.39863 0.0
H587 H 0.67385 0.59015 0.32608 0.0
O588 O 0.68495 0.57324 0.45466 0.0
O589 O 0.65994 0.58164 0.43749 0.0
O590 O 0.6936 0.60477 0.42006 0.0
O591 O 0.67678 0.57459 0.38098 0.0
H592 H 0.66299 0.55214 0.49329 0.0
H593 H 0.71133 0.58614 0.48814 0.0
H594 H 0.66695 0.54596 0.55144 0.0
H595 H 0.71442 0.57949 0.54652 0.0
H596 H 0.61549 0.57321 0.38772 0.0
H597 H 0.65592 0.6019 0.4724 0.0
H598 H 0.63692 0.56767 0.39423 0.0
H599 H 0.6341 0.60677 0.46469 0.0
H600 H 0.66554 0.59395 0.5741 0.0
H601 H 0.69231 0.63752 0.52246 0.0
H602 H 0.64264 0.50986 0.40649 0.0
H603 H 0.61358 0.52531 0.45259 0.0
H604 H 0.7066 0.62641 0.37363 0.0
H605 H 0.71428 0.60969 0.46695 0.0
H606 H 0.73398 0.64754 0.3744 0.0
H607 H 0.74154 0.63104 0.46608 0.0
H608 H 0.691 0.55951 0.36203 0.0
H609 H 0.64966 0.56231 0.35048 0.0
H610 H 0.68017 0.53739 0.32248 0.0
H611 H 0.63949 0.54005 0.31137 0.0
H612 H 0.73547 0.57133 0.40155 0.0
H613 H 0.73516 0.60341 0.32928 0.0
H614 H 0.65685 0.62739 0.35431 0.0
H615 H 0.6678 0.60273 0.28024 0.0
Li616 Li 0.08949 0.68249 0.62236 0.0
Li617 Li 0.10064 0.66775 0.59343 0.0
Li618 Li 0.10945 0.69604 0.57906 0.0
Li619 Li 0.08447 0.67559 0.5652 0.0
C620 C 0.1202 0.6894 0.64994 0.0
N621 N 0.13824 0.69436 0.70621 0.0
C622 C 0.11752 0.67705 0.67072 0.0
C623 C 0.13223 0.70425 0.65748 0.0
C624 C 0.12671 0.6798 0.69914 0.0
C625 C 0.14117 0.70653 0.68613 0.0
C626 C 0.06392 0.65045 0.59945 0.0
C627 C 0.0441 0.62418 0.58838 0.0
N628 N 0.03325 0.62857 0.5897 0.0
C629 C 0.05257 0.6547 0.6008 0.0
C630 C 0.05967 0.63507 0.59326 0.0
C631 C 0.03713 0.64347 0.59575 0.0
C632 C 0.06895 0.68766 0.66025 0.0
N633 N 0.08009 0.68371 0.66313 0.0
C634 C 0.0738 0.67735 0.72097 0.0
C635 C 0.0828 0.67883 0.69285 0.0
C636 C 0.06176 0.6807 0.71831 0.0
C637 C 0.05965 0.68628 0.68759 0.0
H638 H 0.06669 0.6911 0.6362 0.0
H639 H 0.09143 0.67542 0.69446 0.0
C640 C 0.11758 0.65336 0.57541 0.0
N641 N 0.10665 0.6526 0.59685 0.0
C642 C 0.12092 0.64139 0.57428 0.0
C643 C 0.10222 0.62842 0.61841 0.0
C644 C 0.09913 0.64059 0.61846 0.0
C645 C 0.11302 0.62859 0.59562 0.0
H646 H 0.12332 0.66305 0.55842 0.0
H647 H 0.09039 0.64023 0.63502 0.0
C648 C 0.0926 0.70973 0.59794 0.0
N649 N 0.09893 0.73788 0.62435 0.0
C650 C 0.08519 0.71737 0.58524 0.0
C651 C 0.10316 0.7164 0.62422 0.0
C652 C 0.08856 0.73159 0.59888 0.0
C653 C 0.10622 0.73063 0.6372 0.0
C654 C 0.1019 0.67499 0.51631 0.0
C655 C 0.10307 0.6863 0.49398 0.0
C656 C 0.09774 0.66027 0.50438 0.0
C657 C 0.09986 0.68263 0.46003 0.0
C658 C 0.09465 0.65706 0.47023 0.0
N659 N 0.09574 0.6682 0.44896 0.0
C660 C 0.14076 0.7156 0.56291 0.0
C661 C 0.12406 0.72479 0.54612 0.0
C662 C 0.15298 0.72742 0.54502 0.0
N663 N 0.1266 0.71438 0.5626 0.0
C664 C 0.13595 0.73684 0.52823 0.0
C665 C 0.15053 0.738 0.52659 0.0
H666 H 0.14233 0.70691 0.57558 0.0
H667 H 0.1126 0.7233 0.5453 0.0
C668 C 0.06279 0.65479 0.51707 0.0
N669 N 0.06952 0.66928 0.53015 0.0
C670 C 0.05308 0.65094 0.48928 0.0
C671 C 0.05737 0.67698 0.48894 0.0
C672 C 0.06693 0.68029 0.51684 0.0
C673 C 0.05042 0.66218 0.47462 0.0
H674 H 0.0654 0.64638 0.52743 0.0
H675 H 0.07267 0.69179 0.5273 0.0
O676 O 0.11153 0.68692 0.62162 0.0
O677 O 0.0791 0.66128 0.60419 0.0
O678 O 0.08935 0.69577 0.58472 0.0
O679 O 0.1046 0.67825 0.54975 0.0
H680 H 0.10831 0.66549 0.66518 0.0
H681 H 0.13467 0.71391 0.64133 0.0
H682 H 0.12468 0.67036 0.71558 0.0
H683 H 0.15047 0.71797 0.69234 0.0
H684 H 0.04065 0.61225 0.58345 0.0
H685 H 0.05568 0.66658 0.60512 0.0
H686 H 0.06831 0.6316 0.59193 0.0
H687 H 0.02823 0.64662 0.59653 0.0
H688 H 0.07594 0.67314 0.74423 0.0
H689 H 0.05035 0.68873 0.68406 0.0
H690 H 0.12942 0.642 0.55653 0.0
H691 H 0.09575 0.6187 0.63501 0.0
H692 H 0.0769 0.71237 0.56506 0.0
H693 H 0.10885 0.71063 0.63471 0.0
H694 H 0.08292 0.73763 0.58923 0.0
H695 H 0.11437 0.73589 0.65755 0.0
H696 H 0.1062 0.69773 0.50286 0.0
H697 H 0.09665 0.65134 0.52138 0.0
H698 H 0.10058 0.69123 0.4425 0.0
H699 H 0.0913 0.64569 0.46067 0.0
H700 H 0.16396 0.72772 0.54415 0.0
H701 H 0.13356 0.74484 0.51482 0.0
H702 H 0.04816 0.63947 0.47864 0.0
H703 H 0.05554 0.68594 0.47852 0.0
Li704 Li 0.43194 0.1012 0.75794 0.0
Li705 Li 0.40712 0.09134 0.78638 0.0
Li706 Li 0.40824 0.08849 0.72485 0.0
Li707 Li 0.41636 0.11367 0.74951 0.0
C708 C 0.41989 0.06941 0.76467 0.0
N709 N 0.43031 0.04868 0.77234 0.0
C710 C 0.42111 0.06441 0.79666 0.0
C711 C 0.42367 0.06363 0.73654 0.0
C712 C 0.42649 0.05399 0.80004 0.0
C713 C 0.429 0.05323 0.74095 0.0
C714 C 0.42346 0.11989 0.81712 0.0
C715 C 0.4066 0.127 0.84541 0.0
N716 N 0.41819 0.1358 0.86719 0.0
C717 C 0.43519 0.129 0.83977 0.0
C718 C 0.40903 0.11886 0.81994 0.0
C719 C 0.4323 0.13696 0.86492 0.0
C720 C 0.46294 0.11377 0.73794 0.0
N721 N 0.45249 0.10473 0.76152 0.0
C722 C 0.47128 0.10015 0.78803 0.0
C723 C 0.45648 0.09831 0.78687 0.0
C724 C 0.48205 0.10875 0.76293 0.0
C725 C 0.4778 0.11582 0.73797 0.0
H726 H 0.45976 0.11934 0.71893 0.0
H727 H 0.44817 0.09168 0.80607 0.0
C728 C 0.38043 0.07006 0.81956 0.0
N729 N 0.39559 0.08047 0.82454 0.0
C730 C 0.37171 0.05988 0.84509 0.0
C731 C 0.39431 0.0716 0.88071 0.0
C732 C 0.40257 0.08167 0.85452 0.0
C733 C 0.37874 0.06025 0.87589 0.0
H734 H 0.37529 0.06924 0.79525 0.0
H735 H 0.41474 0.08991 0.8575 0.0
C736 C 0.43217 0.10899 0.6834 0.0
N737 N 0.44173 0.11012 0.61787 0.0
C738 C 0.43167 0.11938 0.66063 0.0
C739 C 0.43767 0.09929 0.67286 0.0
C740 C 0.43652 0.11974 0.62761 0.0
C741 C 0.44241 0.1 0.63963 0.0
C742 C 0.3849 0.096 0.72996 0.0
C743 C 0.38958 0.10319 0.69872 0.0
C744 C 0.36953 0.08982 0.73998 0.0
C745 C 0.37881 0.10407 0.67791 0.0
C746 C 0.35909 0.09092 0.71846 0.0
N747 N 0.3639 0.09796 0.68813 0.0
C748 C 0.38972 0.05933 0.69725 0.0
C749 C 0.39828 0.07928 0.65674 0.0
C750 C 0.38201 0.04815 0.67261 0.0
N751 N 0.39784 0.07453 0.6889 0.0
C752 C 0.39079 0.06851 0.63129 0.0
C753 C 0.38261 0.05268 0.63902 0.0
H754 H 0.38933 0.05589 0.72312 0.0
H755 H 0.40447 0.0914 0.65062 0.0
C756 C 0.4322 0.14397 0.72839 0.0
N757 N 0.41818 0.13311 0.74016 0.0
C758 C 0.43394 0.15719 0.71265 0.0
C759 C 0.40704 0.14839 0.72395 0.0
C760 C 0.40588 0.1354 0.73984 0.0
C761 C 0.42105 0.15915 0.70875 0.0
H762 H 0.44179 0.14183 0.72918 0.0
H763 H 0.39488 0.12665 0.74977 0.0
O764 O 0.41459 0.07957 0.7609 0.0
O765 O 0.42618 0.11201 0.7925 0.0
O766 O 0.42736 0.10839 0.71581 0.0
O767 O 0.39524 0.09498 0.75076 0.0
H768 H 0.41809 0.06864 0.81869 0.0
H769 H 0.42237 0.06701 0.71154 0.0
H770 H 0.42762 0.05013 0.82468 0.0
H771 H 0.43202 0.04871 0.71939 0.0
H772 H 0.3955 0.12631 0.84789 0.0
H773 H 0.44641 0.12989 0.83794 0.0
H774 H 0.39978 0.11185 0.80277 0.0
H775 H 0.44127 0.14405 0.88263 0.0
H776 H 0.47414 0.09459 0.80783 0.0
H777 H 0.48589 0.12288 0.71867 0.0
H778 H 0.3597 0.05152 0.84038 0.0
H779 H 0.40029 0.0722 0.90379 0.0
H780 H 0.42746 0.12699 0.66824 0.0
H781 H 0.43839 0.09139 0.69024 0.0
H782 H 0.43611 0.12767 0.60971 0.0
H783 H 0.44667 0.09254 0.63116 0.0
H784 H 0.40144 0.1082 0.69078 0.0
H785 H 0.36571 0.08428 0.76416 0.0
H786 H 0.38231 0.10965 0.65369 0.0
H787 H 0.34716 0.08619 0.72589 0.0
H788 H 0.37562 0.0361 0.67983 0.0
H789 H 0.39169 0.07254 0.60573 0.0
H790 H 0.44505 0.16537 0.7021 0.0
H791 H 0.39678 0.14938 0.72157 0.0
Li792 Li 0.3311 0.43273 0.92537 0.0
Li793 Li 0.31642 0.40667 0.95302 0.0
Li794 Li 0.32258 0.40893 0.8938 0.0
Li795 Li 0.30324 0.41464 0.91325 0.0
C796 C 0.34908 0.41546 0.9195 0.0
N797 N 0.37215 0.41167 0.891 0.0
C798 C 0.34996 0.40221 0.92637 0.0
C799 C 0.35996 0.4268 0.89825 0.0
C800 C 0.3617 0.4005 0.91168 0.0
C801 C 0.37154 0.42467 0.88407 0.0
C802 C 0.3052 0.42523 0.984 0.0
C803 C 0.2816 0.41577 0.01556 0.0
N804 N 0.28957 0.42603 0.0404 0.0
C805 C 0.31313 0.43582 0.00961 0.0
C806 C 0.28928 0.41525 0.98677 0.0
C807 C 0.30503 0.43599 0.03802 0.0
C808 C 0.34562 0.46475 0.91344 0.0
N809 N 0.3469 0.45355 0.92992 0.0
C810 C 0.37241 0.4718 0.94802 0.0
C811 C 0.35981 0.45679 0.94752 0.0
C812 C 0.37167 0.48358 0.93032 0.0
C813 C 0.35792 0.47994 0.91337 0.0
H814 H 0.33517 0.46179 0.89971 0.0
H815 H 0.36052 0.44759 0.96019 0.0
C816 C 0.31413 0.38112 0.98519 0.0
N817 N 0.31529 0.39501 0.99159 0.0
C818 C 0.31503 0.37231 0.01127 0.0
C819 C 0.31772 0.392 0.05032 0.0
C820 C 0.3169 0.4005 0.02338 0.0
C821 C 0.31712 0.37784 0.04437 0.0
H822 H 0.31306 0.37714 0.95957 0.0
H823 H 0.31803 0.41167 0.02782 0.0
C824 C 0.31477 0.42595 0.84974 0.0
N825 N 0.3023 0.42401 0.78686 0.0
C826 C 0.30384 0.4116 0.83671 0.0
C827 C 0.31938 0.4393 0.83077 0.0
C828 C 0.29766 0.41086 0.80489 0.0
C829 C 0.31294 0.43808 0.79903 0.0
C830 C 0.28941 0.3812 0.91894 0.0
C831 C 0.28352 0.3708 0.89215 0.0
C832 C 0.28132 0.37756 0.94927 0.0
C833 C 0.26954 0.35702 0.89604 0.0
C834 C 0.26738 0.36366 0.95217 0.0
N835 N 0.26182 0.35376 0.92572 0.0
C836 C 0.32338 0.38459 0.8608 0.0
C837 C 0.33677 0.40866 0.83255 0.0
C838 C 0.327 0.37739 0.8353 0.0
N839 N 0.32817 0.3999 0.85877 0.0
C840 C 0.34078 0.40196 0.80664 0.0
C841 C 0.33579 0.38611 0.80777 0.0
H842 H 0.31677 0.37801 0.88229 0.0
H843 H 0.34051 0.42085 0.8318 0.0
C844 C 0.28672 0.42902 0.89478 0.0
N845 N 0.2851 0.41481 0.89927 0.0
C846 C 0.27546 0.43062 0.87745 0.0
C847 C 0.26073 0.40288 0.87123 0.0
C848 C 0.27226 0.40182 0.88866 0.0
C849 C 0.26247 0.41746 0.86451 0.0
H850 H 0.29718 0.43917 0.903 0.0
H851 H 0.27128 0.39068 0.8918 0.0
O852 O 0.33739 0.41713 0.93275 0.0
O853 O 0.31297 0.42499 0.95601 0.0
O854 O 0.32067 0.42702 0.88124 0.0
O855 O 0.30315 0.3947 0.9155 0.0
H856 H 0.34159 0.39329 0.94263 0.0
H857 H 0.35931 0.43702 0.89227 0.0
H858 H 0.36249 0.39028 0.91665 0.0
H859 H 0.37997 0.4333 0.8674 0.0
H860 H 0.26929 0.40807 0.0181 0.0
H861 H 0.32543 0.44373 0.00764 0.0
H862 H 0.2829 0.40727 0.96681 0.0
H863 H 0.31103 0.44404 0.05817 0.0
H864 H 0.38282 0.47399 0.96105 0.0
H865 H 0.35674 0.48868 0.89984 0.0
H866 H 0.31478 0.36162 0.00529 0.0
H867 H 0.31915 0.39664 0.07544 0.0
H868 H 0.30007 0.40116 0.85109 0.0
H869 H 0.32779 0.45051 0.84053 0.0
H870 H 0.28915 0.39984 0.79457 0.0
H871 H 0.31638 0.44833 0.78409 0.0
H872 H 0.28963 0.37339 0.86849 0.0
H873 H 0.28579 0.3853 0.97046 0.0
H874 H 0.26482 0.34891 0.87546 0.0
H875 H 0.26101 0.36071 0.9755 0.0
H876 H 0.32313 0.36518 0.83726 0.0
H877 H 0.3475 0.40904 0.78571 0.0
H878 H 0.27719 0.44208 0.87319 0.0
H879 H 0.25105 0.39243 0.86134 0.0
Li880 Li 0.89848 0.33215 0.09266 0.0
Li881 Li 0.90889 0.31767 0.12193 0.0
Li882 Li 0.91583 0.32511 0.06244 0.0
Li883 Li 0.89025 0.30487 0.0793 0.0
C884 C 0.93493 0.35077 0.10417 0.0
N885 N 0.96494 0.37508 0.10816 0.0
C886 C 0.94621 0.34892 0.12085 0.0
C887 C 0.93891 0.36502 0.08971 0.0
C888 C 0.96131 0.36134 0.12257 0.0
C889 C 0.95415 0.37715 0.09191 0.0
C890 C 0.88351 0.31146 0.15476 0.0
C891 C 0.87685 0.29605 0.20507 0.0
N892 N 0.8773 0.30791 0.22271 0.0
C893 C 0.88378 0.32345 0.1733 0.0
C894 C 0.87989 0.2976 0.17065 0.0
C895 C 0.88064 0.32145 0.20767 0.0
C896 C 0.88034 0.34602 0.07863 0.0
N897 N 0.89282 0.3476 0.0957 0.0
C898 C 0.89887 0.3726 0.11507 0.0
C899 C 0.90189 0.36041 0.11419 0.0
C900 C 0.88638 0.37157 0.09674 0.0
C901 C 0.87694 0.35797 0.07866 0.0
H902 H 0.87319 0.33559 0.06456 0.0
H903 H 0.91163 0.36125 0.12782 0.0
C904 C 0.92353 0.30695 0.16626 0.0
N905 N 0.91774 0.31663 0.1633 0.0
C906 C 0.93278 0.30821 0.1937 0.0
C907 C 0.9293 0.32888 0.21522 0.0
C908 C 0.92026 0.32733 0.18722 0.0
C909 C 0.93603 0.31952 0.21821 0.0
H910 H 0.92168 0.29882 0.14645 0.0
H911 H 0.91601 0.33526 0.18358 0.0
C912 C 0.89446 0.33062 0.0228 0.0
N913 N 0.89159 0.34775 0.97189 0.0
C914 C 0.88102 0.32433 0.00344 0.0
C915 C 0.90646 0.34558 0.01623 0.0
C916 C 0.87978 0.33319 0.97782 0.0
C917 C 0.90478 0.35406 0.99039 0.0
C918 C 0.90606 0.2906 0.07609 0.0
C919 C 0.91011 0.28751 0.04468 0.0
C920 C 0.89728 0.27842 0.09809 0.0
C921 C 0.90508 0.27222 0.03556 0.0
C922 C 0.89246 0.26329 0.08804 0.0
N923 N 0.89641 0.26053 0.05723 0.0
C924 C 0.94606 0.33886 0.03235 0.0
C925 C 0.92458 0.32539 0.99617 0.0
C926 C 0.95624 0.34228 0.00551 0.0
N927 N 0.93054 0.3307 0.02718 0.0
C928 C 0.93431 0.32843 0.9687 0.0
C929 C 0.95037 0.33702 0.97319 0.0
H930 H 0.95059 0.34256 0.05724 0.0
H931 H 0.91221 0.31861 0.99283 0.0
C932 C 0.86098 0.27624 0.07783 0.0
N933 N 0.87383 0.28662 0.06092 0.0
C934 C 0.84923 0.26349 0.0609 0.0
C935 C 0.86437 0.27245 0.01001 0.0
C936 C 0.87569 0.28496 0.02774 0.0
C937 C 0.8509 0.26152 0.02649 0.0
H938 H 0.8598 0.27794 0.10422 0.0
H939 H 0.88597 0.29354 0.01497 0.0
O940 O 0.92003 0.3388 0.10256 0.0
O941 O 0.88671 0.31327 0.12117 0.0
O942 O 0.89578 0.32212 0.04811 0.0
O943 O 0.91056 0.30545 0.08517 0.0
H944 H 0.94343 0.33796 0.13192 0.0
H945 H 0.93034 0.36674 0.07701 0.0
H946 H 0.97016 0.36005 0.13526 0.0
H947 H 0.95738 0.38823 0.08076 0.0
H948 H 0.87412 0.28542 0.21775 0.0
H949 H 0.88648 0.33423 0.16136 0.0
H950 H 0.87948 0.28816 0.15659 0.0
H951 H 0.8809 0.33066 0.22238 0.0
H952 H 0.90653 0.38291 0.1291 0.0
H953 H 0.86707 0.35662 0.06458 0.0
H954 H 0.93776 0.30078 0.19515 0.0
H955 H 0.93176 0.33793 0.23324 0.0
H956 H 0.87162 0.31275 0.00827 0.0
H957 H 0.91696 0.35054 0.03083 0.0
H958 H 0.86943 0.32849 0.96267 0.0
H959 H 0.91398 0.36566 0.98502 0.0
H960 H 0.91698 0.29679 0.02743 0.0
H961 H 0.89412 0.28062 0.12254 0.0
H962 H 0.90805 0.26965 0.01124 0.0
H963 H 0.88556 0.25375 0.10471 0.0
H964 H 0.96856 0.34873 0.01009 0.0
H965 H 0.92931 0.32423 0.94416 0.0
H966 H 0.83901 0.25529 0.07449 0.0
H967 H 0.866 0.27157 0.98341 0.0
Li968 Li 0.59212 0.90953 0.28668 0.0
Li969 Li 0.56607 0.89786 0.26016 0.0
Li970 Li 0.5834 0.88708 0.2507 0.0
Li971 Li 0.58946 0.91168 0.22717 0.0
C972 C 0.57705 0.88064 0.31828 0.0
N973 N 0.58359 0.86531 0.36754 0.0
C974 C 0.56548 0.87064 0.3403 0.0
C975 C 0.59196 0.88284 0.32128 0.0
C976 C 0.56902 0.863 0.36506 0.0
C977 C 0.59503 0.87498 0.34635 0.0
C978 C 0.58611 0.93421 0.25234 0.0
C979 C 0.58191 0.95067 0.21477 0.0
N980 N 0.59473 0.96317 0.2272 0.0
C981 C 0.59916 0.94724 0.26495 0.0
C982 C 0.57732 0.93594 0.22727 0.0
C983 C 0.60335 0.96178 0.25186 0.0
C984 C 0.61872 0.93113 0.32101 0.0
N985 N 0.60361 0.9203 0.32499 0.0
C986 C 0.60419 0.92755 0.38224 0.0
C987 C 0.59632 0.91815 0.35492 0.0
C988 C 0.61962 0.93944 0.37849 0.0
C989 C 0.62698 0.94091 0.34753 0.0
H990 H 0.62412 0.93268 0.29671 0.0
H991 H 0.58426 0.90947 0.35724 0.0
C992 C 0.53361 0.87917 0.25624 0.0
N993 N 0.5454 0.89335 0.26488 0.0
C994 C 0.51843 0.87633 0.25595 0.0
C995 C 0.52785 0.90257 0.27454 0.0
C996 C 0.54282 0.90491 0.27438 0.0
C997 C 0.51543 0.88819 0.26476 0.0
H998 H 0.53607 0.87024 0.24857 0.0
H999 H 0.55246 0.9161 0.28088 0.0
C1000 C 0.61385 0.90564 0.22854 0.0
N1001 N 0.63403 0.90365 0.18423 0.0
C1002 C 0.60883 0.89941 0.19655 0.0
C1003 C 0.62914 0.91091 0.23796 0.0
C1004 C 0.6192 0.89849 0.17453 0.0
C1005 C 0.63917 0.9098 0.21521 0.0
C1006 C 0.56309 0.88766 0.18879 0.0
C1007 C 0.56483 0.87835 0.16501 0.0
C1008 C 0.55296 0.89318 0.18225 0.0
C1009 C 0.55644 0.87475 0.13512 0.0
C1010 C 0.54477 0.88931 0.15207 0.0
N1011 N 0.54666 0.88026 0.12932 0.0
C1012 C 0.56989 0.85685 0.22801 0.0
C1013 C 0.59625 0.86735 0.24252 0.0
C1014 C 0.56966 0.84419 0.21274 0.0
N1015 N 0.58322 0.86839 0.24113 0.0
C1016 C 0.59656 0.8549 0.22747 0.0
C1017 C 0.5833 0.84342 0.21115 0.0
H1018 H 0.5597 0.858 0.22735 0.0
H1019 H 0.60665 0.87659 0.25357 0.0
C1020 C 0.61323 0.93803 0.19594 0.0
N1021 N 0.59918 0.92537 0.19002 0.0
C1022 C 0.62126 0.94842 0.1701 0.0
C1023 C 0.60045 0.93234 0.13232 0.0
C1024 C 0.59274 0.92241 0.15893 0.0
C1025 C 0.61489 0.94552 0.13776 0.0
H1026 H 0.61821 0.93999 0.22078 0.0
H1027 H 0.58169 0.91236 0.15442 0.0
O1028 O 0.57372 0.88817 0.29394 0.0
O1029 O 0.582 0.91984 0.26438 0.0
O1030 O 0.60392 0.90663 0.25067 0.0
O1031 O 0.57117 0.89123 0.21832 0.0
H1032 H 0.55389 0.86882 0.33827 0.0
H1033 H 0.60108 0.89054 0.30453 0.0
H1034 H 0.56017 0.85523 0.38229 0.0
H1035 H 0.6065 0.87658 0.34897 0.0
H1036 H 0.57528 0.95215 0.19517 0.0
H1037 H 0.60604 0.94615 0.28449 0.0
H1038 H 0.56715 0.92601 0.21735 0.0
H1039 H 0.61348 0.97195 0.26126 0.0
H1040 H 0.59811 0.92577 0.40576 0.0
H1041 H 0.63876 0.95001 0.34323 0.0
H1042 H 0.50918 0.86504 0.24855 0.0
H1043 H 0.52611 0.9121 0.28106 0.0
H1044 H 0.59708 0.89532 0.18881 0.0
H1045 H 0.6332 0.91576 0.26265 0.0
H1046 H 0.61546 0.89366 0.14972 0.0
H1047 H 0.65104 0.91381 0.22219 0.0
H1048 H 0.57263 0.874 0.16943 0.0
H1049 H 0.55147 0.90044 0.20011 0.0
H1050 H 0.55771 0.86759 0.11651 0.0
H1051 H 0.53692 0.89352 0.14672 0.0
H1052 H 0.55921 0.83568 0.20032 0.0
H1053 H 0.60724 0.85459 0.22734 0.0
H1054 H 0.63243 0.95845 0.17518 0.0
H1055 H 0.59509 0.92981 0.10777 0.0
H1056 H 0.30339 0.34645 0.0542 0.0
H1057 H 0.30998 0.33295 0.09661 0.0
H1058 H 0.34362 0.37667 0.13906 0.0
H1059 H 0.33748 0.39024 0.0965 0.0
H1060 H 0.34022 0.3369 0.10659 0.0
H1061 H 0.3183 0.35108 0.22089 0.0
H1062 H 0.31196 0.3524 0.17919 0.0
H1063 H 0.33003 0.36762 0.19513 0.0
C1064 C 0.31216 0.3532 0.07262 0.0
C1065 C 0.31987 0.36946 0.07193 0.0
C1066 C 0.31585 0.34545 0.0969 0.0
C1067 C 0.32714 0.35382 0.12116 0.0
C1068 C 0.33463 0.37 0.12096 0.0
H1069 H 0.38512 0.35018 0.26784 0.0
H1070 H 0.37041 0.35522 0.22597 0.0
C1071 C 0.33105 0.37774 0.09664 0.0
C1072 C 0.33195 0.34587 0.14551 0.0
H1073 H 0.33727 0.34336 0.22927 0.0
C1074 C 0.33931 0.338 0.13345 0.0
C1075 C 0.33066 0.34729 0.18046 0.0
C1076 C 0.32217 0.35493 0.19475 0.0
C1077 C 0.34635 0.33241 0.15551 0.0
C1078 C 0.34581 0.33464 0.19038 0.0
C1079 C 0.33772 0.34176 0.20246 0.0
C1080 C 0.35485 0.33115 0.21458 0.0
C1081 C 0.35506 0.32498 0.1414 0.0
C1082 C 0.35104 0.3159 0.22178 0.0
C1083 C 0.35943 0.31295 0.24594 0.0
C1084 C 0.37166 0.32523 0.2633 0.0
C1085 C 0.37559 0.34046 0.25536 0.0
C1086 C 0.36724 0.34338 0.23136 0.0
H1087 H 0.35594 0.32581 0.11361 0.0
H1088 H 0.36689 0.33048 0.15214 0.0
H1089 H 0.34905 0.31258 0.14847 0.0
H1090 H 0.34141 0.3063 0.20927 0.0
H1091 H 0.35605 0.30109 0.25173 0.0
H1092 H 0.02764 0.35952 0.47207 0.0
H1093 H 0.00673 0.347 0.43112 0.0
H1094 H 0.03947 0.36747 0.35038 0.0
H1095 H 0.0606 0.37993 0.39118 0.0
H1096 H 0.00607 0.36987 0.36749 0.0
H1097 H 0.00529 0.31462 0.34247 0.0
H1098 H 0.01015 0.32344 0.38355 0.0
H1099 H 0.02329 0.33233 0.34937 0.0
C1100 C 0.03047 0.3611 0.44561 0.0
C1101 C 0.0458 0.3707 0.43485 0.0
C1102 C 0.0185 0.354 0.42231 0.0
C1103 C 0.02164 0.35631 0.38791 0.0
C1104 C 0.03691 0.36555 0.37693 0.0
H1105 H 0.96428 0.32197 0.2112 0.0
H1106 H 0.98461 0.33016 0.25347 0.0
C1107 C 0.04891 0.3727 0.40023 0.0
C1108 C 0.00881 0.34993 0.3636 0.0
H1109 H 0.98688 0.31862 0.31411 0.0
C1110 C 0.00182 0.35866 0.35578 0.0
C1111 C 0.00348 0.33539 0.34841 0.0
C1112 C 0.01087 0.32579 0.35619 0.0
C1113 C 0.98957 0.35325 0.33282 0.0
C1114 C 0.98397 0.33852 0.31798 0.0
C1115 C 0.99108 0.32983 0.32575 0.0
C1116 C 0.97111 0.33223 0.29342 0.0
C1117 C 0.98305 0.36354 0.32404 0.0
C1118 C 0.9566 0.33021 0.30213 0.0
C1119 C 0.94499 0.32561 0.27797 0.0
C1120 C 0.9476 0.32269 0.24483 0.0
C1121 C 0.96187 0.32398 0.23662 0.0
C1122 C 0.97352 0.32872 0.2607 0.0
H1123 H 0.99121 0.37581 0.33044 0.0
H1124 H 0.98026 0.36281 0.2969 0.0
H1125 H 0.97226 0.35981 0.33848 0.0
H1126 H 0.95436 0.33247 0.32748 0.0
H1127 H 0.93403 0.32453 0.28506 0.0
H1128 H 0.65023 0.95367 0.3972 0.0
H1129 H 0.66337 0.97419 0.43897 0.0
H1130 H 0.62018 0.97175 0.46301 0.0
H1131 H 0.60706 0.95172 0.42085 0.0
H1132 H 0.66312 0.00358 0.4393 0.0
H1133 H 0.63875 0.96912 0.55524 0.0
H1134 H 0.63917 0.96054 0.51562 0.0
H1135 H 0.62469 0.96579 0.52342 0.0
C1136 C 0.64352 0.9575 0.41136 0.0
C1137 C 0.62755 0.95095 0.40569 0.0
C1138 C 0.65104 0.96916 0.43531 0.0
C1139 C 0.64269 0.97432 0.45426 0.0
C1140 C 0.62676 0.9677 0.44904 0.0
H1141 H 0.64991 0.04066 0.59485 0.0
H1142 H 0.64335 0.01993 0.55478 0.0
C1143 C 0.61927 0.95617 0.42501 0.0
C1144 C 0.65057 0.98719 0.47837 0.0
H1145 H 0.65023 0.99647 0.56054 0.0
C1146 C 0.66056 0.00206 0.46593 0.0
C1147 C 0.64716 0.98508 0.51299 0.0
C1148 C 0.63696 0.96925 0.52776 0.0
C1149 C 0.66652 0.01505 0.48702 0.0
C1150 C 0.66258 0.01299 0.52146 0.0
C1151 C 0.65317 0.99802 0.53409 0.0
C1152 C 0.66702 0.02622 0.54442 0.0
C1153 C 0.67629 0.0309 0.47197 0.0
C1154 C 0.68255 0.03674 0.55176 0.0
C1155 C 0.68639 0.04884 0.57441 0.0
C1156 C 0.67474 0.05055 0.59022 0.0
C1157 C 0.65921 0.03997 0.5826 0.0
C1158 C 0.65541 0.02797 0.55996 0.0
H1159 H 0.67568 0.03067 0.44413 0.0
H1160 H 0.6726 0.03899 0.48145 0.0
H1161 H 0.68852 0.03548 0.47933 0.0
H1162 H 0.69168 0.03545 0.54042 0.0
H1163 H 0.69846 0.05679 0.57966 0.0
H1164 H 0.65113 0.60665 0.58459 0.0
H1165 H 0.64441 0.62036 0.62575 0.0
H1166 H 0.69076 0.65918 0.62134 0.0
H1167 H 0.69774 0.6454 0.58041 0.0
H1168 H 0.65798 0.63249 0.68917 0.0
H1169 H 0.66262 0.67787 0.60132 0.0
H1170 H 0.66145 0.66019 0.587 0.0
H1171 H 0.67921 0.6754 0.60393 0.0
C1172 C 0.66002 0.61798 0.59275 0.0
C1173 C 0.67501 0.6249 0.57921 0.0
C1174 C 0.6561 0.62585 0.61609 0.0
C1175 C 0.66703 0.64084 0.62619 0.0
C1176 C 0.68209 0.64771 0.61336 0.0
H1177 H 0.64957 0.68368 0.79899 0.0
H1178 H 0.66254 0.6759 0.75777 0.0
C1179 C 0.68605 0.63982 0.59002 0.0
C1180 C 0.66249 0.64914 0.65026 0.0
H1181 H 0.65601 0.67947 0.65745 0.0
C1182 C 0.65766 0.64283 0.68238 0.0
C1183 C 0.66192 0.66251 0.64106 0.0
C1184 C 0.66646 0.66938 0.60639 0.0
C1185 C 0.65209 0.64944 0.70552 0.0
C1186 C 0.6516 0.66288 0.69645 0.0
C1187 C 0.65655 0.66927 0.66439 0.0
C1188 C 0.64514 0.66986 0.7194 0.0
C1189 C 0.64625 0.64164 0.73905 0.0
C1190 C 0.63153 0.66987 0.71074 0.0
C1191 C 0.62417 0.67444 0.73414 0.0
C1192 C 0.63031 0.67902 0.76654 0.0
C1193 C 0.64446 0.67995 0.77436 0.0
C1194 C 0.65186 0.67549 0.7509 0.0
H1195 H 0.64416 0.62963 0.73906 0.0
H1196 H 0.65499 0.64823 0.75863 0.0
H1197 H 0.63535 0.64133 0.74604 0.0
H1198 H 0.6262 0.66563 0.68647 0.0
H1199 H 0.61325 0.67356 0.72751 0.0
H1200 H 0.04985 0.65573 0.76032 0.0
H1201 H 0.02937 0.64817 0.80179 0.0
H1202 H 0.02703 0.68916 0.77993 0.0
H1203 H 0.04787 0.69711 0.73881 0.0
H1204 H 0.02728 0.66552 0.85998 0.0
H1205 H 0.98248 0.65144 0.76178 0.0
H1206 H 0.00096 0.65321 0.75233 0.0
H1207 H -0.00037 0.67017 0.76015 0.0
C1208 C 0.04529 0.66337 0.76481 0.0
C1209 C 0.05051 0.67703 0.74609 0.0
C1210 C 0.03349 0.65895 0.78837 0.0
C1211 C 0.02659 0.66801 0.79351 0.0
C1212 C 0.03209 0.68192 0.77588 0.0
H1213 H 0.94282 0.64095 0.9128 0.0
H1214 H 0.96514 0.65554 0.87581 0.0
C1215 C 0.04397 0.68641 0.75239 0.0
C1216 C 0.01327 0.66249 0.81654 0.0
H1217 H 0.97403 0.64619 0.81774 0.0
C1218 C 0.01565 0.66142 0.85085 0.0
C1219 C 0.99815 0.65726 0.80447 0.0
C1220 C 0.99502 0.65795 0.76766 0.0
C1221 C 0.00323 0.65496 0.87342 0.0
C1222 C 0.98802 0.64907 0.86115 0.0
C1223 C 0.9857 0.65067 0.82702 0.0
C1224 C 0.97436 0.64024 0.88294 0.0
C1225 C 0.00651 0.65441 0.9102 0.0
C1226 C 0.97198 0.62664 0.89844 0.0
C1227 C 0.95935 0.61836 0.91958 0.0
C1228 C 0.9487 0.6234 0.92539 0.0
C1229 C 0.95089 0.63684 0.90909 0.0
C1230 C 0.96359 0.64516 0.8879 0.0
H1231 H 0.01846 0.66347 0.91681 0.0
H1232 H 0.99827 0.65593 0.92618 0.0
H1233 H 0.00534 0.64302 0.91606 0.0
H1234 H 0.97997 0.62246 0.89439 0.0
H1235 H 0.95821 0.60822 0.93207 0.0
H1236 H 0.37999 0.06341 0.94456 0.0
H1237 H 0.36761 0.04287 0.98653 0.0
H1238 H 0.34585 0.00925 0.90779 0.0
H1239 H 0.35845 0.0295 0.86569 0.0
H1240 H 0.32614 0.00749 0.96718 0.0
H1241 H 0.38122 0.00896 0.99778 0.0
H1242 H 0.38153 0.02712 0.99773 0.0
H1243 H 0.37851 0.01675 0.95915 0.0
C1244 C 0.37259 0.05165 0.93614 0.0
C1245 C 0.37026 0.04814 0.90169 0.0
C1246 C 0.36548 0.03996 0.96015 0.0
C1247 C 0.3559 0.02459 0.95013 0.0
C1248 C 0.35316 0.02108 0.91594 0.0
H1249 H 0.32596 0.93934 0.0589 0.0
H1250 H 0.33335 0.95903 0.01507 0.0
C1251 C 0.36032 0.03272 0.89193 0.0
C1252 C 0.34932 0.012 0.97515 0.0
H1253 H 0.35916 0.9917 0.02872 0.0
C1254 C 0.33332 0.00404 0.98075 0.0
C1255 C 0.35876 0.00746 0.99239 0.0
C1256 C 0.37596 0.0154 0.98646 0.0
C1257 C 0.32653 0.99172 0.00365 0.0
C1258 C 0.336 0.98731 0.02108 0.0
C1259 C 0.35197 0.99517 0.01522 0.0
C1260 C 0.32968 0.97468 0.046 0.0
C1261 C 0.30929 0.98337 0.00888 0.0
C1262 C 0.32499 0.97694 0.0776 0.0
C1263 C 0.32086 0.96579 0.10266 0.0
C1264 C 0.3213 0.95217 0.09642 0.0
C1265 C 0.32537 0.94965 0.06426 0.0
C1266 C 0.32965 0.96089 0.03931 0.0
H1267 H 0.30333 0.9867 0.98994 0.0
H1268 H 0.30451 0.97069 0.00772 0.0
H1269 H 0.30673 0.98616 0.03418 0.0
H1270 H 0.32508 0.98759 0.08325 0.0
H1271 H 0.31769 0.96797 0.12719 0.0
H1272 H 0.6054 0.49989 0.47909 0.0
H1273 H 0.58222 0.47437 0.4758 0.0
H1274 H 0.59365 0.46956 0.37384 0.0
H1275 H 0.61693 0.49503 0.37708 0.0
H1276 H 0.55814 0.46605 0.43225 0.0
H1277 H 0.58344 0.42819 0.41429 0.0
H1278 H 0.59471 0.44793 0.42848 0.0
H1279 H 0.59011 0.44378 0.38474 0.0
C1280 C 0.60303 0.49333 0.45607 0.0
C1281 C 0.61297 0.49944 0.42835 0.0
C1282 C 0.58982 0.47875 0.45425 0.0
C1283 C 0.5863 0.46998 0.42472 0.0
C1284 C 0.59633 0.47595 0.39715 0.0
H1285 H 0.50597 0.38432 0.36009 0.0
H1286 H 0.53088 0.40829 0.36368 0.0
C1287 C 0.60961 0.49052 0.39901 0.0
C1288 C 0.57159 0.45512 0.4221 0.0
H1289 H 0.55628 0.41657 0.4069 0.0
C1290 C 0.55774 0.45521 0.4269 0.0
C1291 C 0.57111 0.44103 0.41485 0.0
C1292 C 0.58563 0.44014 0.41058 0.0
C1293 C 0.54338 0.44163 0.42435 0.0
C1294 C 0.54289 0.42752 0.41736 0.0
C1295 C 0.55672 0.42741 0.41229 0.0
C1296 C 0.52807 0.41275 0.41556 0.0
C1297 C 0.52887 0.44256 0.42854 0.0
C1298 C 0.5184 0.4072 0.44371 0.0
C1299 C 0.50413 0.39362 0.44167 0.0
C1300 C 0.49929 0.38522 0.41149 0.0
C1301 C 0.50923 0.39062 0.38355 0.0
C1302 C 0.52351 0.40424 0.38562 0.0
H1303 H 0.53109 0.45452 0.42484 0.0
H1304 H 0.5198 0.4348 0.41057 0.0
H1305 H 0.52434 0.4389 0.45435 0.0
H1306 H 0.52183 0.41346 0.46721 0.0
H1307 H 0.49673 0.38992 0.46357 0.0
H1308 H 0.12285 0.50519 0.61872 0.0
H1309 H 0.12438 0.53034 0.62328 0.0
H1310 H 0.10791 0.52594 0.5216 0.0
H1311 H 0.10612 0.50067 0.51709 0.0
H1312 H 0.14036 0.55727 0.5885 0.0
H1313 H 0.07737 0.53354 0.57243 0.0
H1314 H 0.08566 0.52138 0.57948 0.0
H1315 H 0.08602 0.5289 0.53827 0.0
C1316 C 0.11971 0.50967 0.59723 0.0
C1317 C 0.11426 0.50093 0.56761 0.0
C1318 C 0.12053 0.524 0.59991 0.0
C1319 C 0.11596 0.52986 0.57303 0.0
C1320 C 0.1111 0.52144 0.54298 0.0
H1321 H 0.11427 0.61438 0.53828 0.0
H1322 H 0.1161 0.59094 0.53328 0.0
C1323 C 0.11013 0.50704 0.54038 0.0
C1324 C 0.11609 0.54469 0.57663 0.0
H1325 H 0.09309 0.56089 0.57182 0.0
C1326 C 0.13002 0.55805 0.585 0.0
C1327 C 0.10254 0.54566 0.57234 0.0
C1328 C 0.08702 0.53159 0.56547 0.0
C1329 C 0.13079 0.5724 0.58852 0.0
C1330 C 0.11733 0.57337 0.58353 0.0
C1331 C 0.10341 0.56005 0.57536 0.0
C1332 C 0.1174 0.58811 0.58673 0.0
C1333 C 0.14599 0.58652 0.59711 0.0
C1334 C 0.11757 0.59423 0.61848 0.0
C1335 C 0.11647 0.60758 0.62145 0.0
C1336 C 0.11526 0.61505 0.59267 0.0
C1337 C 0.1154 0.60902 0.56088 0.0
C1338 C 0.11637 0.5956 0.55796 0.0
H1339 H 0.15574 0.58416 0.59661 0.0
H1340 H 0.14847 0.596 0.57924 0.0
H1341 H 0.14527 0.59059 0.6226 0.0
H1342 H 0.11825 0.5885 0.64094 0.0
H1343 H 0.11645 0.61202 0.64624 0.0
H1344 H 0.49693 0.10567 0.70882 0.0
H1345 H 0.52231 0.10769 0.70728 0.0
H1346 H 0.52761 0.11722 0.8135 0.0
H1347 H 0.50206 0.11496 0.81529 0.0
H1348 H 0.55064 0.13178 0.72238 0.0
H1349 H 0.5367 0.0822 0.8065 0.0
H1350 H 0.52203 0.08568 0.78932 0.0
H1351 H 0.53328 0.09661 0.82484 0.0
C1352 C 0.50353 0.10824 0.73184 0.0
C1353 C 0.49751 0.11012 0.7622 0.0
C1354 C 0.518 0.10936 0.73094 0.0
C1355 C 0.52676 0.11239 0.76035 0.0
C1356 C 0.52089 0.1145 0.79065 0.0
H1357 H 0.61825 0.1232 0.79095 0.0
H1358 H 0.59484 0.12516 0.79673 0.0
C1359 C 0.50633 0.11325 0.79163 0.0
C1360 C 0.54209 0.11347 0.75896 0.0
H1361 H 0.56273 0.09725 0.78906 0.0
C1362 C 0.55329 0.12424 0.73699 0.0
C1363 C 0.54551 0.1036 0.77802 0.0
C1364 C 0.53372 0.09127 0.80077 0.0
C1365 C 0.56778 0.12536 0.73349 0.0
C1366 C 0.57112 0.11546 0.75239 0.0
C1367 C 0.56009 0.10488 0.77479 0.0
C1368 C 0.58571 0.11532 0.74801 0.0
C1369 C 0.57943 0.13709 0.70958 0.0
C1370 C 0.58826 0.10918 0.71866 0.0
C1371 C 0.60151 0.10797 0.71538 0.0
C1372 C 0.61248 0.11296 0.74134 0.0
C1373 C 0.61007 0.11944 0.77041 0.0
C1374 C 0.59671 0.12049 0.77382 0.0
H1375 H 0.57623 0.14577 0.70163 0.0
H1376 H 0.59106 0.14318 0.72132 0.0
H1377 H 0.58018 0.13107 0.68687 0.0
H1378 H 0.5798 0.10501 0.69862 0.0
H1379 H 0.60313 0.10299 0.69267 0.0
H1380 H 0.49241 0.61535 0.86011 0.0
H1381 H 0.46719 0.59171 0.86321 0.0
H1382 H 0.47718 0.58385 0.96412 0.0
H1383 H 0.50249 0.60719 0.96109 0.0
H1384 H 0.46172 0.56099 0.87724 0.0
H1385 H 0.4342 0.58071 0.97102 0.0
H1386 H 0.45109 0.59396 0.94729 0.0
H1387 H 0.45292 0.5838 0.98255 0.0
C1388 C 0.48928 0.60857 0.88293 0.0
C1389 C 0.49947 0.61324 0.91042 0.0
C1390 C 0.47483 0.59512 0.8847 0.0
C1391 C 0.47026 0.5862 0.91407 0.0
C1392 C 0.48037 0.59078 0.94149 0.0
H1393 H 0.39253 0.50006 0.97991 0.0
H1394 H 0.41621 0.52509 0.97482 0.0
C1395 C 0.49482 0.60416 0.93972 0.0
C1396 C 0.45518 0.57172 0.91566 0.0
H1397 H 0.42085 0.55397 0.95775 0.0
C1398 C 0.45271 0.55946 0.8946 0.0
C1399 C 0.44353 0.5698 0.93851 0.0
C1400 C 0.44545 0.58279 0.96098 0.0
C1401 C 0.43902 0.54513 0.8964 0.0
C1402 C 0.42736 0.54317 0.91934 0.0
C1403 C 0.42979 0.55551 0.94018 0.0
C1404 C 0.4127 0.5283 0.92254 0.0
C1405 C 0.43739 0.53208 0.8745 0.0
C1406 C 0.40271 0.52197 0.89505 0.0
C1407 C 0.38925 0.5076 0.89776 0.0
C1408 C 0.38544 0.49933 0.92817 0.0
C1409 C 0.39524 0.50598 0.95598 0.0
C1410 C 0.40873 0.52033 0.95319 0.0
H1411 H 0.44875 0.53422 0.86508 0.0
H1412 H 0.43175 0.52096 0.88837 0.0
H1413 H 0.43011 0.53093 0.85246 0.0
H1414 H 0.4054 0.52807 0.87135 0.0
H1415 H 0.38207 0.5028 0.87574 0.0
H1416 H 0.8789 0.38295 0.04196 0.0
H1417 H 0.87652 0.40611 0.03885 0.0
H1418 H 0.88557 0.41356 0.14496 0.0
H1419 H 0.8879 0.39035 0.14837 0.0
H1420 H 0.85712 0.41496 0.07377 0.0
H1421 H 0.91952 0.45366 0.10098 0.0
H1422 H 0.91164 0.43365 0.08949 0.0
H1423 H 0.90917 0.4387 0.13136 0.0
C1424 C 0.88013 0.38937 0.06475 0.0
C1425 C 0.8837 0.38488 0.09539 0.0
C1426 C 0.87882 0.40262 0.0629 0.0
C1427 C 0.88109 0.41163 0.09157 0.0
C1428 C 0.88406 0.40689 0.12243 0.0
H1429 H 0.868 0.4912 0.1133 0.0
H1430 H 0.86521 0.46547 0.11767 0.0
C1431 C 0.88541 0.39366 0.12431 0.0
C1432 C 0.881 0.42635 0.08881 0.0
H1433 H 0.9042 0.4654 0.0958 0.0
C1434 C 0.86738 0.426 0.07868 0.0
C1435 C 0.89447 0.44071 0.09487 0.0
C1436 C 0.90959 0.4418 0.10451 0.0
C1437 C 0.86687 0.4397 0.07462 0.0
C1438 C 0.8803 0.45402 0.08103 0.0
C1439 C 0.89391 0.45436 0.09109 0.0
C1440 C 0.88072 0.46891 0.07654 0.0
C1441 C 0.85213 0.43883 0.06282 0.0
C1442 C 0.89029 0.47926 0.05186 0.0
C1443 C 0.89185 0.49389 0.04918 0.0
C1444 C 0.88398 0.49851 0.07138 0.0
C1445 C 0.87407 0.48793 0.09555 0.0
C1446 C 0.87248 0.47325 0.09814 0.0
H1447 H 0.84366 0.42715 0.05336 0.0
H1448 H 0.84677 0.44164 0.08402 0.0
H1449 H 0.85458 0.4474 0.04261 0.0
H1450 H 0.89673 0.47609 0.03495 0.0
H1451 H 0.89938 0.50167 0.02997 0.0
H1452 H 0.40478 0.9146 0.23734 0.0
H1453 H 0.42756 0.91165 0.24022 0.0
H1454 H 0.39853 0.86215 0.23538 0.0
H1455 H 0.37561 0.86499 0.23211 0.0
H1456 H 0.42076 0.87231 0.28661 0.0
H1457 H 0.44711 0.89925 0.16461 0.0
H1458 H 0.44244 0.91106 0.19045 0.0
H1459 H 0.42722 0.89294 0.17475 0.0
C1460 C 0.40323 0.90309 0.2363 0.0
C1461 C 0.38837 0.89003 0.23428 0.0
C1462 C 0.41627 0.90142 0.23799 0.0
C1463 C 0.41473 0.88669 0.23753 0.0
C1464 C 0.39994 0.87362 0.23565 0.0
H1465 H 0.49417 0.87341 0.21507 0.0
H1466 H 0.46878 0.87118 0.20897 0.0
C1467 C 0.38687 0.87527 0.23393 0.0
C1468 C 0.42857 0.88498 0.24026 0.0
H1469 H 0.46322 0.89553 0.20319 0.0
C1470 C 0.42999 0.87726 0.26824 0.0
C1471 C 0.44049 0.89126 0.21602 0.0
C1472 C 0.43922 0.89897 0.18459 0.0
C1473 C 0.44329 0.87613 0.27323 0.0
C1474 C 0.45553 0.88308 0.24984 0.0
C1475 C 0.45387 0.89033 0.22126 0.0
C1476 C 0.47036 0.88339 0.25493 0.0
C1477 C 0.44411 0.86748 0.30346 0.0
C1478 C 0.47963 0.89096 0.28284 0.0
C1479 C 0.49409 0.89217 0.28652 0.0
C1480 C 0.4996 0.88591 0.26221 0.0
C1481 C 0.49017 0.87815 0.2345 0.0
C1482 C 0.47572 0.87696 0.23084 0.0
H1483 H 0.43242 0.85924 0.31327 0.0
H1484 H 0.45015 0.86102 0.29739 0.0
H1485 H 0.45063 0.87586 0.3237 0.0
H1486 H 0.47584 0.89626 0.30142 0.0
H1487 H 0.50102 0.89814 0.30825 0.0
H1488 H 0.31651 0.359 0.77588 0.0
H1489 H 0.32287 0.34705 0.72942 0.0
H1490 H 0.36996 0.3846 0.73099 0.0
H1491 H 0.36374 0.39658 0.77748 0.0
H1492 H 0.33698 0.36297 0.66434 0.0
H1493 H 0.37168 0.34306 0.73541 0.0
H1494 H 0.35768 0.34687 0.75529 0.0
H1495 H 0.3762 0.36261 0.74323 0.0
C1496 C 0.32825 0.36461 0.76651 0.0
C1497 C 0.33965 0.3787 0.78024 0.0
C1498 C 0.33183 0.35782 0.73997 0.0
C1499 C 0.34689 0.36491 0.72713 0.0
C1500 C 0.35831 0.37891 0.74088 0.0
H1501 H 0.3927 0.36051 0.55194 0.0
H1502 H 0.38175 0.36706 0.59964 0.0
C1503 C 0.35472 0.38578 0.7672 0.0
C1504 C 0.35063 0.35802 0.6985 0.0
H1505 H 0.37277 0.34236 0.67584 0.0
C1506 C 0.34466 0.35829 0.66684 0.0
C1507 C 0.36057 0.35188 0.70208 0.0
C1508 C 0.36685 0.35093 0.73585 0.0
C1509 C 0.34891 0.35311 0.63827 0.0
C1510 C 0.3593 0.34753 0.64169 0.0
C1511 C 0.36482 0.34671 0.67349 0.0
C1512 C 0.36532 0.34337 0.61218 0.0
C1513 C 0.34257 0.3539 0.60446 0.0
C1514 C 0.3596 0.32786 0.60363 0.0
C1515 C 0.36566 0.32404 0.57603 0.0
C1516 C 0.37764 0.3357 0.55681 0.0
C1517 C 0.3833 0.35124 0.5657 0.0
C1518 C 0.37715 0.35503 0.59307 0.0
H1519 H 0.33309 0.3566 0.60659 0.0
H1520 H 0.35198 0.36301 0.5891 0.0
H1521 H 0.3382 0.34276 0.59098 0.0
H1522 H 0.35045 0.31874 0.61825 0.0
H1523 H 0.36088 0.31198 0.56965 0.0
H1524 H 0.97592 0.36454 0.95772 0.0
H1525 H 0.99281 0.37054 0.90883 0.0
H1526 H 0.96546 0.32356 0.8743 0.0
H1527 H 0.94858 0.3174 0.92336 0.0
H1528 H -0.00033 0.33731 0.87352 0.0
H1529 H 0.9784 0.3727 0.81035 0.0
H1530 H 0.98379 0.37732 0.85366 0.0
H1531 H 0.9676 0.35886 0.84285 0.0
C1532 C 0.97359 0.35545 0.93988 0.0
C1533 C 0.9609 0.34052 0.94424 0.0
C1534 C 0.98317 0.35892 0.91191 0.0
C1535 C 0.98024 0.34752 0.88792 0.0
C1536 C 0.96781 0.33251 0.89253 0.0
H1537 H 0.02333 0.36752 0.69015 0.0
H1538 H 0.00464 0.35592 0.73599 0.0
C1539 C 0.95816 0.32905 0.9204 0.0
C1540 C 0.99008 0.35137 0.85783 0.0
H1541 H 0.00062 0.3735 0.78707 0.0
C1542 C -0.00017 0.34513 0.85445 0.0
C1543 C 0.99005 0.36139 0.83289 0.0
C1544 C 0.97932 0.36789 0.8348 0.0
C1545 C 0.01002 0.34912 0.82719 0.0
C1546 C 0.01045 0.35967 0.803 0.0
C1547 C 0.0003 0.36547 0.8058 0.0
C1548 C 0.02181 0.36543 0.77535 0.0
C1549 C 0.02026 0.34209 0.82449 0.0
C1550 C 0.0376 0.37457 0.78243 0.0
C1551 C 0.04827 0.38121 0.75639 0.0
C1552 C 0.0433 0.37884 0.72281 0.0
C1553 C 0.02749 0.3694 0.71577 0.0
C1554 C 0.01682 0.36283 0.74187 0.0
H1555 H 0.01581 0.33142 0.8398 0.0
H1556 H 0.02131 0.3393 0.79801 0.0
H1557 H 0.03198 0.35051 0.83375 0.0
H1558 H 0.04164 0.3769 0.80814 0.0
H1559 H 0.06039 0.38833 0.76252 0.0
H1560 H 0.61998 0.93806 0.07524 0.0
H1561 H 0.63118 0.95529 0.02702 0.0
H1562 H 0.63886 0.99406 0.08837 0.0
H1563 H 0.62792 0.97688 0.13685 0.0
H1564 H 0.61922 0.97142 0.9992 0.0
H1565 H 0.67946 0.01174 0.0386 0.0
H1566 H 0.66726 0.99377 0.06012 0.0
H1567 H 0.66545 0.01048 0.06847 0.0
C1568 C 0.62425 0.9503 0.07848 0.0
C1569 C 0.62306 0.95617 0.10966 0.0
C1570 C 0.63068 0.96012 0.05101 0.0
C1571 C 0.63601 0.97598 0.05418 0.0
C1572 C 0.63518 0.98193 0.08554 0.0
H1573 H 0.6404 0.03975 0.90575 0.0
H1574 H 0.63486 0.02205 0.95278 0.0
C1575 C 0.62887 0.97212 0.11316 0.0
C1576 C 0.64094 0.98594 0.02398 0.0
H1577 H 0.67008 0.0195 0.9913 0.0
C1578 C 0.63042 0.98184 0.99735 0.0
C1579 C 0.65559 0.99947 0.0215 0.0
C1580 C 0.66765 0.00406 0.04856 0.0
C1581 C 0.63394 0.99114 0.96875 0.0
C1582 C 0.64828 0.00499 0.96696 0.0
C1583 C 0.65904 0.00889 0.993 0.0
C1584 C 0.65195 0.01585 0.93876 0.0
C1585 C 0.62228 0.98616 0.9407 0.0
C1586 C 0.66352 0.0183 0.91564 0.0
C1587 C 0.66674 0.02843 0.88871 0.0
C1588 C 0.65853 0.03637 0.88481 0.0
C1589 C 0.64701 0.03391 0.90824 0.0
C1590 C 0.64377 0.02375 0.93498 0.0
H1591 H 0.61341 0.97373 0.94257 0.0
H1592 H 0.61632 0.99299 0.94188 0.0
H1593 H 0.62807 0.98829 0.91591 0.0
H1594 H 0.66997 0.0123 0.91831 0.0
H1595 H 0.67581 0.03024 0.87128 0.0
H1596 H 0.61418 0.67803 0.09454 0.0
H1597 H 0.6241 0.67127 0.14394 0.0
H1598 H 0.63894 0.64597 0.08129 0.0
H1599 H 0.62929 0.65287 0.0317 0.0
H1600 H 0.62002 0.62926 0.13725 0.0
H1601 H 0.66936 0.68641 0.17391 0.0
H1602 H 0.65134 0.68585 0.1665 0.0
H1603 H 0.66103 0.68251 0.13236 0.0
C1604 C 0.61984 0.6713 0.09118 0.0
C1605 C 0.62092 0.66595 0.05921 0.0
C1606 C 0.62549 0.66744 0.11943 0.0
C1607 C 0.63234 0.65823 0.11614 0.0
C1608 C 0.63369 0.65311 0.08426 0.0
H1609 H 0.67858 0.62955 0.2572 0.0
H1610 H 0.6715 0.64055 0.21014 0.0
C1611 C 0.62809 0.65698 0.05602 0.0
C1612 C 0.63715 0.65303 0.14613 0.0
H1613 H 0.66255 0.66561 0.21164 0.0
C1614 C 0.62932 0.63719 0.15352 0.0
C1615 C 0.64933 0.66344 0.16711 0.0
C1616 C 0.65837 0.6805 0.15957 0.0
C1617 C 0.63328 0.63147 0.1816 0.0
C1618 C 0.64529 0.6419 0.20284 0.0
C1619 C 0.65324 0.65772 0.19535 0.0
C1620 C 0.65003 0.63638 0.23237 0.0
C1621 C 0.62475 0.61431 0.18818 0.0
C1622 C 0.64038 0.63068 0.26053 0.0
C1623 C 0.64438 0.62443 0.28742 0.0
C1624 C 0.65805 0.62369 0.28637 0.0
C1625 C 0.66788 0.62979 0.25845 0.0
C1626 C 0.66392 0.63615 0.23171 0.0
H1627 H 0.61745 0.60763 0.16657 0.0
H1628 H 0.63304 0.61027 0.19375 0.0
H1629 H 0.61719 0.61179 0.21043 0.0
H1630 H 0.62962 0.63083 0.26139 0.0
H1631 H 0.63657 0.61973 0.30855 0.0
H1632 H 0.02292 0.63619 0.46088 0.0
H1633 H 0.00771 0.63009 0.40927 0.0
H1634 H 0.04127 0.674 0.36728 0.0
H1635 H 0.05655 0.68018 0.41881 0.0
H1636 H 0.01076 0.66702 0.35792 0.0
H1637 H 0.01891 0.61825 0.31945 0.0
H1638 H 0.0115 0.6164 0.36126 0.0
H1639 H 0.03055 0.63193 0.35146 0.0
C1640 C 0.0271 0.64449 0.44057 0.0
C1641 C 0.04094 0.65863 0.44383 0.0
C1642 C 0.01843 0.64099 0.41112 0.0
C1643 C 0.02352 0.6515 0.38432 0.0
C1644 C 0.03719 0.66573 0.38768 0.0
H1645 H 0.98281 0.62571 0.18423 0.0
H1646 H 0.00151 0.63664 0.23027 0.0
C1647 C 0.04585 0.66927 0.41716 0.0
C1648 C 0.01448 0.64767 0.35291 0.0
H1649 H -0.00036 0.62099 0.29006 0.0
C1650 C 0.00842 0.65703 0.3429 0.0
C1651 C 0.01169 0.6348 0.3331 0.0
C1652 C 0.01862 0.62484 0.34162 0.0
C1653 C 0.99912 0.6535 0.31421 0.0
C1654 C 0.9957 0.64017 0.29541 0.0
C1655 C 0.00222 0.63115 0.30472 0.0
C1656 C 0.98477 0.63492 0.26694 0.0
C1657 C 0.99303 0.66402 0.30427 0.0
C1658 C 0.96922 0.6304 0.2724 0.0
C1659 C 0.95856 0.62417 0.24626 0.0
C1660 C 0.96326 0.62231 0.21421 0.0
C1661 C 0.97891 0.62715 0.2086 0.0
C1662 C 0.98957 0.63333 0.23485 0.0
H1663 H 8e-05 0.67574 0.31524 0.0
H1664 H 0.99285 0.66509 0.27657 0.0
H1665 H 0.98104 0.65913 0.31366 0.0
H1666 H 0.96524 0.6313 0.29713 0.0
H1667 H 0.9466 0.62067 0.25122 0.0
H1668 H 0.33186 0.97496 0.36486 0.0
H1669 H 0.3393 0.99263 0.41287 0.0
H1670 H 0.34494 0.9601 0.47357 0.0
H1671 H 0.33773 0.94248 0.42575 0.0
H1672 H 0.32532 0.98549 0.483 0.0
H1673 H 0.38744 0.00256 0.47556 0.0
H1674 H 0.37442 0.9943 0.44042 0.0
H1675 H 0.37374 0.98218 0.47435 0.0
C1676 C 0.33472 0.9716 0.38843 0.0
C1677 C 0.33428 0.95737 0.39155 0.0
C1678 C 0.33885 0.98164 0.4158 0.0
C1679 C 0.34274 0.97765 0.44652 0.0
C1680 C 0.34204 0.96336 0.44992 0.0
H1681 H 0.38176 0.02503 0.63287 0.0
H1682 H 0.37068 0.00636 0.58719 0.0
C1683 C 0.33783 0.9533 0.42268 0.0
C1684 C 0.34798 0.98859 0.47488 0.0
H1685 H 0.37977 0.01185 0.52179 0.0
C1686 C 0.33722 0.99132 0.49151 0.0
C1687 C 0.36349 0.99608 0.48576 0.0
C1688 C 0.37552 0.99378 0.46804 0.0
C1689 C 0.34155 0.0012 0.51942 0.0
C1690 C 0.3571 0.00872 0.53033 0.0
C1691 C 0.36785 0.00602 0.51344 0.0
C1692 C 0.3626 0.01948 0.55916 0.0
C1693 C 0.32938 0.00316 0.53745 0.0
C1694 C 0.36166 0.03302 0.55861 0.0
C1695 C 0.36782 0.04364 0.58491 0.0
C1696 C 0.37519 0.04099 0.61206 0.0
C1697 C 0.37595 0.02732 0.61264 0.0
C1698 C 0.36973 0.01669 0.58643 0.0
H1699 H 0.31756 0.99352 0.53193 0.0
H1700 H 0.33122 0.00384 0.56502 0.0
H1701 H 0.33003 0.01405 0.52904 0.0
H1702 H 0.35647 0.03555 0.53749 0.0
H1703 H 0.36691 0.05397 0.58383 0.0
H1704 H 0.42887 0.24328 0.45683 0.0
H1705 H 0.43038 0.2264 0.49949 0.0
H1706 H 0.3983 0.23212 0.56163 0.0
H1707 H 0.39675 0.24894 0.51945 0.0
H1708 H 0.44011 0.2341 0.5658 0.0
H1709 H 0.37976 0.1854 0.56075 0.0
H1710 H 0.388 0.19988 0.52825 0.0
H1711 H 0.38122 0.20388 0.56665 0.0
C1712 C 0.42205 0.24082 0.47947 0.0
C1713 C 0.41255 0.2473 0.48456 0.0
C1714 C 0.42291 0.23118 0.50376 0.0
C1715 C 0.41427 0.22783 0.53346 0.0
C1716 C 0.40475 0.23423 0.53853 0.0
H1717 H 0.407 0.17668 0.71578 0.0
H1718 H 0.40609 0.19435 0.6744 0.0
C1719 C 0.40386 0.24381 0.5143 0.0
C1720 C 0.41574 0.21828 0.55999 0.0
H1721 H 0.39504 0.18562 0.60671 0.0
C1722 C 0.43028 0.22345 0.57462 0.0
C1723 C 0.40287 0.20444 0.57155 0.0
C1724 C 0.38711 0.19797 0.5558 0.0
C1725 C 0.43227 0.21525 0.60087 0.0
C1726 C 0.41939 0.20145 0.61247 0.0
C1727 C 0.40485 0.19629 0.5979 0.0
C1728 C 0.42088 0.19176 0.63856 0.0
C1729 C 0.44805 0.2215 0.61634 0.0
C1730 C 0.4295 0.18452 0.63202 0.0
C1731 C 0.42994 0.17435 0.65536 0.0
C1732 C 0.42176 0.17121 0.6858 0.0
C1733 C 0.41335 0.17875 0.69254 0.0
C1734 C 0.41286 0.18889 0.66902 0.0
H1735 H 0.4557 0.23395 0.61058 0.0
H1736 H 0.44721 0.21996 0.644 0.0
H1737 H 0.45355 0.21508 0.60614 0.0
H1738 H 0.43548 0.18632 0.60834 0.0
H1739 H 0.4362 0.16847 0.64885 0.0
H1740 H 0.26936 0.43892 0.81512 0.0
H1741 H 0.25181 0.43994 0.77395 0.0
H1742 H 0.21363 0.39969 0.81879 0.0
H1743 H 0.23098 0.39899 0.86103 0.0
H1744 H 0.23487 0.41787 0.72773 0.0
H1745 H 0.19606 0.42818 0.80941 0.0
H1746 H 0.21428 0.43072 0.82396 0.0
H1747 H 0.19751 0.41173 0.82202 0.0
C1748 C 0.25716 0.43054 0.81687 0.0
C1749 C 0.25156 0.41892 0.84155 0.0
C1750 C 0.24718 0.43106 0.79308 0.0
C1751 C 0.2314 0.42 0.7935 0.0
C1752 C 0.22572 0.40852 0.81837 0.0
H1753 H 0.15346 0.39522 0.66361 0.0
H1754 H 0.17212 0.39558 0.70377 0.0
C1755 C 0.23568 0.40804 0.84229 0.0
C1756 C 0.22108 0.41992 0.76673 0.0
H1757 H 0.1877 0.42056 0.75304 0.0
C1758 C 0.22463 0.41859 0.73323 0.0
C1759 C 0.20772 0.42086 0.77399 0.0
C1760 C 0.20372 0.4231 0.80926 0.0
C1761 C 0.21498 0.41784 0.70683 0.0
C1762 C 0.20152 0.41851 0.71419 0.0
C1763 C 0.19802 0.41995 0.7476 0.0
C1764 C 0.19085 0.41772 0.68762 0.0
C1765 C 0.21904 0.41599 0.67134 0.0
C1766 C 0.19532 0.42997 0.66498 0.0
C1767 C 0.1847 0.42979 0.64191 0.0
C1768 C 0.16945 0.41733 0.64113 0.0
C1769 C 0.16519 0.40486 0.66318 0.0
C1770 C 0.17578 0.4051 0.68633 0.0
H1771 H 0.22822 0.41283 0.67046 0.0
H1772 H 0.20868 0.407 0.65797 0.0
H1773 H 0.22323 0.42705 0.65766 0.0
H1774 H 0.20688 0.43989 0.66587 0.0
H1775 H 0.18831 0.43954 0.62518 0.0
H1776 H 0.81972 0.25048 0.02912 0.0
H1777 H 0.79985 0.23119 0.99205 0.0
H1778 H 0.83439 0.22453 0.94243 0.0
H1779 H 0.85423 0.24357 0.97955 0.0
H1780 H 0.81522 0.23147 0.89915 0.0
H1781 H 0.78157 0.18324 0.98835 0.0
H1782 H 0.78567 0.20218 0.00113 0.0
H1783 H 0.80119 0.19821 0.99666 0.0
C1784 C 0.823 0.24464 0.01082 0.0
C1785 C 0.83854 0.24859 0.0071 0.0
C1786 C 0.81167 0.23369 0.98961 0.0
C1787 C 0.81571 0.22649 0.96456 0.0
C1788 C 0.8311 0.23004 0.96153 0.0
H1789 H 0.75942 0.14747 0.84147 0.0
H1790 H 0.77873 0.1671 0.87863 0.0
C1791 C 0.8424 0.24093 0.98269 0.0
C1792 C 0.80411 0.21582 0.94029 0.0
H1793 H 0.77226 0.18007 0.93288 0.0
C1794 C 0.80579 0.22024 0.90644 0.0
C1795 C 0.79192 0.20119 0.95002 0.0
C1796 C 0.78994 0.19579 0.98596 0.0
C1797 C 0.79561 0.21032 0.88188 0.0
C1798 C 0.78337 0.19568 0.8916 0.0
C1799 C 0.78165 0.19132 0.92554 0.0
C1800 C 0.77251 0.18442 0.86694 0.0
C1801 C 0.7983 0.21541 0.84568 0.0
C1802 C 0.7628 0.18777 0.84763 0.0
C1803 C 0.75184 0.17661 0.82615 0.0
C1804 C 0.75031 0.16188 0.82408 0.0
C1805 C 0.76032 0.15871 0.84279 0.0
C1806 C 0.77131 0.16989 0.86401 0.0
H1807 H 0.81017 0.22523 0.84152 0.0
H1808 H 0.7964 0.20575 0.82891 0.0
H1809 H 0.79002 0.21924 0.83842 0.0
H1810 H 0.76335 0.19883 0.84998 0.0
H1811 H 0.74411 0.17925 0.81236 0.0
H1812 H 0.56174 0.8127 0.20415 0.0
H1813 H 0.56177 0.79459 0.16277 0.0
H1814 H 0.60627 0.82988 0.12683 0.0
H1815 H 0.60632 0.848 0.16785 0.0
H1816 H 0.56288 0.79865 0.09378 0.0
H1817 H 0.61246 0.7928 0.13676 0.0
H1818 H 0.60338 0.80068 0.16307 0.0
H1819 H 0.61705 0.81247 0.13146 0.0
C1820 C 0.57161 0.81653 0.18769 0.0
C1821 C 0.58406 0.83176 0.18941 0.0
C1822 C 0.57162 0.80618 0.16413 0.0
C1823 C 0.5841 0.81084 0.142 0.0
C1824 C 0.59669 0.82592 0.14418 0.0
H1825 H 0.60358 0.77071 0.96898 0.0
H1826 H 0.60338 0.78826 0.01163 0.0
C1827 C 0.59671 0.83626 0.16773 0.0
C1828 C 0.58348 0.80036 0.11503 0.0
H1829 H 0.60273 0.78324 0.08213 0.0
C1830 C 0.57151 0.79517 0.09136 0.0
C1831 C 0.59483 0.79594 0.11185 0.0
C1832 C 0.60758 0.80064 0.1373 0.0
C1833 C 0.57073 0.78588 0.06419 0.0
C1834 C 0.58213 0.78154 0.06091 0.0
C1835 C 0.59407 0.78669 0.08462 0.0
C1836 C 0.58165 0.77129 0.03361 0.0
C1837 C 0.55792 0.78104 0.03885 0.0
C1838 C 0.56946 0.756 0.03179 0.0
C1839 C 0.56957 0.74595 0.00763 0.0
C1840 C 0.58192 0.75099 0.98485 0.0
C1841 C 0.59396 0.76644 0.98629 0.0
C1842 C 0.59385 0.77648 0.01055 0.0
H1843 H 0.55253 0.78841 0.04018 0.0
H1844 H 0.56227 0.78156 0.01297 0.0
H1845 H 0.54882 0.76895 0.04396 0.0
H1846 H 0.5601 0.75169 0.04979 0.0
H1847 H 0.56029 0.73406 0.00777 0.0
H1848 H 0.73811 0.56209 0.34215 0.0
H1849 H 0.75697 0.56134 0.30384 0.0
H1850 H 0.78249 0.61111 0.30105 0.0
H1851 H 0.76367 0.61195 0.33915 0.0
H1852 H 0.76506 0.57925 0.23503 0.0
H1853 H 0.81394 0.59404 0.32257 0.0
H1854 H 0.79409 0.58469 0.33657 0.0
H1855 H 0.80396 0.60481 0.32601 0.0
C1856 C 0.74792 0.57285 0.33386 0.0
C1857 C 0.74948 0.58708 0.34359 0.0
C1858 C 0.75858 0.5724 0.31187 0.0
C1859 C 0.77106 0.58617 0.29978 0.0
C1860 C 0.77293 0.60038 0.31029 0.0
H1861 H 0.84996 0.61133 0.17338 0.0
H1862 H 0.83022 0.61079 0.21055 0.0
C1863 C 0.76219 0.60084 0.33194 0.0
C1864 C 0.78173 0.58576 0.27479 0.0
H1865 H 0.81853 0.59277 0.26494 0.0
C1866 C 0.77674 0.5821 0.24146 0.0
C1867 C 0.79692 0.58962 0.28344 0.0
C1868 C 0.80263 0.59345 0.3191 0.0
C1869 C 0.78674 0.58254 0.21619 0.0
C1870 C 0.80198 0.58638 0.22481 0.0
C1871 C 0.80686 0.58987 0.25834 0.0
C1872 C 0.81319 0.58703 0.19958 0.0
C1873 C 0.78103 0.57937 0.18043 0.0
C1874 C 0.81007 0.57395 0.18059 0.0
C1875 C 0.82128 0.57431 0.15901 0.0
C1876 C 0.83586 0.58768 0.15657 0.0
C1877 C 0.83881 0.60087 0.17493 0.0
C1878 C 0.82757 0.60056 0.19617 0.0
H1879 H 0.77094 0.58104 0.17678 0.0
H1880 H 0.79027 0.587 0.16265 0.0
H1881 H 0.77734 0.56721 0.17409 0.0
H1882 H 0.7992 0.56328 0.18337 0.0
H1883 H 0.81882 0.56392 0.14551 0.0
H1884 H 0.18194 0.75494 0.53672 0.0
H1885 H 0.20166 0.77265 0.49714 0.0
H1886 H 0.16617 0.7643 0.4251 0.0
H1887 H 0.14649 0.74637 0.46381 0.0
H1888 H 0.20618 0.76502 0.42776 0.0
H1889 H 0.19249 0.81241 0.4347 0.0
H1890 H 0.18683 0.79786 0.46695 0.0
H1891 H 0.17622 0.7934 0.4283 0.0
C1892 C 0.17834 0.75685 0.51243 0.0
C1893 C 0.1626 0.74933 0.50361 0.0
C1894 C 0.18961 0.767 0.48995 0.0
C1895 C 0.18531 0.76989 0.45846 0.0
C1896 C 0.16967 0.76243 0.44957 0.0
H1897 H 0.23105 0.82703 0.28588 0.0
H1898 H 0.21249 0.80849 0.32606 0.0
C1899 C 0.15843 0.75224 0.47186 0.0
C1900 C 0.19712 0.78036 0.43427 0.0
H1901 H 0.20962 0.81413 0.39166 0.0
C1902 C 0.20705 0.77582 0.41998 0.0
C1903 C 0.19809 0.79435 0.42413 0.0
C1904 C 0.18794 0.79992 0.43945 0.0
C1905 C 0.21772 0.78477 0.39504 0.0
C1906 C 0.21867 0.79877 0.38477 0.0
C1907 C 0.20882 0.80336 0.39941 0.0
C1908 C 0.22989 0.809 0.3592 0.0
C1909 C 0.22754 0.77892 0.37927 0.0
C1910 C 0.24581 0.81536 0.36441 0.0
C1911 C 0.2564 0.82585 0.34142 0.0
C1912 C 0.25127 0.83033 0.31299 0.0
C1913 C 0.23532 0.82381 0.30759 0.0
C1914 C 0.22473 0.81322 0.33049 0.0
H1915 H 0.22237 0.76625 0.38267 0.0
H1916 H 0.22917 0.78157 0.35202 0.0
H1917 H 0.23907 0.78464 0.39142 0.0
H1918 H 0.25007 0.8126 0.38681 0.0
H1919 H 0.26862 0.83095 0.34667 0.0
loop_
_geom_bond_atom_site_label_1
_geom_bond_atom_site_label_2
_geom_bond_distance
_geom_bond_site_symmetry_2
_ccdc_geom_bond_type
Li0 N17 1.990 . S
Li0 O60 1.956 . S
Li0 O61 1.970 . S
Li0 O62 1.961 . S
Li1 N25 1.990 . S
Li1 O60 1.970 . S
Li1 O61 1.956 . S
Li1 O63 1.961 . S
Li2 N47 1.990 . S
Li2 O60 1.961 . S
Li2 O62 1.956 . S
Li2 O63 1.970 . S
Li3 N53 1.990 . S
Li3 O61 1.961 . S
Li3 O62 1.970 . S
Li3 O63 1.956 . S
C4 C6 1.348 . S
C4 C7 1.356 . S
C4 O60 1.325 . S
N5 C8 1.314 . S
N5 C9 1.279 . S
C6 C4 1.348 . S
C6 C8 1.353 . S
C6 H64 0.929 . S
C7 C4 1.356 . S
C7 C9 1.358 . S
C7 H65 0.930 . S
C8 N5 1.314 . S
C8 C6 1.353 . S
C8 H66 0.930 . S
C9 N5 1.279 . S
C9 C7 1.358 . S
C9 H67 0.930 . S
C10 C13 1.348 . S
C10 C14 1.356 . S
C10 O61 1.325 . S
C11 N12 1.279 . S
C11 C14 1.358 . S
C11 H68 0.930 . S
N12 C11 1.279 . S
N12 C15 1.314 . S
C13 C10 1.348 . S
C13 C15 1.353 . S
C13 H69 0.929 . S
C14 C10 1.356 . S
C14 C11 1.358 . S
C14 H70 0.930 . S
C15 N12 1.314 . S
C15 C13 1.353 . S
C15 H71 0.930 . S
C16 N17 1.314 . S
C16 C21 1.353 . S
C16 H22 0.930 . S
N17 Li0 1.990 . S
N17 C16 1.314 . S
N17 C19 1.279 . S
C18 C19 1.358 . S
C18 C20 1.356 . S
C18 H72 0.930 . S
C19 N17 1.279 . S
C19 C18 1.358 . S
C19 H23 0.930 . S
C20 C18 1.356 . S
C20 C21 1.348 . S
C21 C16 1.353 . S
C21 C20 1.348 . S
C21 H73 0.929 . S
H22 C16 0.930 . S
H23 C19 0.930 . S
C24 N25 1.314 . S
C24 C26 1.353 . S
C24 H30 0.930 . S
N25 Li1 1.990 . S
N25 C24 1.314 . S
N25 C28 1.279 . S
C26 C24 1.353 . S
C26 C29 1.348 . S
C26 H74 0.929 . S
C27 C28 1.358 . S
C27 C29 1.356 . S
C27 H75 0.930 . S
C28 N25 1.279 . S
C28 C27 1.358 . S
C28 H31 0.930 . S
C29 C26 1.348 . S
C29 C27 1.356 . S
H30 C24 0.930 . S
H31 C28 0.930 . S
C32 C34 1.348 . S
C32 C35 1.356 . S
C32 O62 1.325 . S
N33 C36 1.314 . S
N33 C37 1.279 . S
C34 C32 1.348 . S
C34 C36 1.353 . S
C34 H76 0.929 . S
C35 C32 1.356 . S
C35 C37 1.358 . S
C35 H77 0.930 . S
C36 N33 1.314 . S
C36 C34 1.353 . S
C36 H78 0.930 . S
C37 N33 1.279 . S
C37 C35 1.358 . S
C37 H79 0.930 . S
C38 C39 1.348 . S
C38 C40 1.356 . S
C38 O63 1.325 . S
C39 C38 1.348 . S
C39 C41 1.353 . S
C39 H80 0.929 . S
C40 C38 1.356 . S
C40 C42 1.358 . S
C40 H81 0.930 . S
C41 C39 1.353 . S
C41 N43 1.314 . S
C41 H82 0.930 . S
C42 C40 1.358 . S
C42 N43 1.279 . S
C42 H83 0.930 . S
N43 C41 1.314 . S
N43 C42 1.279 . S
C44 C46 1.353 . S
C44 N47 1.314 . S
C44 H50 0.930 . S
C45 N47 1.279 . S
C45 C48 1.358 . S
C45 H51 0.930 . S
C46 C44 1.353 . S
C46 C49 1.348 . S
C46 H84 0.929 . S
N47 Li2 1.990 . S
N47 C44 1.314 . S
N47 C45 1.279 . S
C48 C45 1.358 . S
C48 C49 1.356 . S
C48 H85 0.930 . S
C49 C46 1.348 . S
C49 C48 1.356 . S
H50 C44 0.930 . S
H51 C45 0.930 . S
C52 N53 1.314 . S
C52 C54 1.353 . S
C52 H58 0.930 . S
N53 Li3 1.990 . S
N53 C52 1.314 . S
N53 C56 1.279 . S
C54 C52 1.353 . S
C54 C57 1.348 . S
C54 H86 0.929 . S
C55 C56 1.358 . S
C55 C57 1.356 . S
C55 H87 0.930 . S
C56 N53 1.279 . S
C56 C55 1.358 . S
C56 H59 0.930 . S
C57 C54 1.348 . S
C57 C55 1.356 . S
H58 C52 0.930 . S
H59 C56 0.930 . S
O60 Li0 1.956 . S
O60 Li1 1.970 . S
O60 Li2 1.961 . S
O60 C4 1.325 . S
O61 Li0 1.970 . S
O61 Li1 1.956 . S
O61 Li3 1.961 . S
O61 C10 1.325 . S
O62 Li0 1.961 . S
O62 Li2 1.956 . S
O62 Li3 1.970 . S
O62 C32 1.325 . S
O63 Li1 1.961 . S
O63 Li2 1.970 . S
O63 Li3 1.956 . S
O63 C38 1.325 . S
H64 C6 0.929 . S
H65 C7 0.930 . S
H66 C8 0.930 . S
H67 C9 0.930 . S
H68 C11 0.930 . S
H69 C13 0.929 . S
H70 C14 0.930 . S
H71 C15 0.930 . S
H72 C18 0.930 . S
H73 C21 0.929 . S
H74 C26 0.929 . S
H75 C27 0.930 . S
H76 C34 0.929 . S
H77 C35 0.930 . S
H78 C36 0.930 . S
H79 C37 0.930 . S
H80 C39 0.929 . S
H81 C40 0.930 . S
H82 C41 0.930 . S
H83 C42 0.930 . S
H84 C46 0.929 . S
H85 C48 0.930 . S
H86 C54 0.929 . S
H87 C55 0.930 . S
Li88 N105 1.990 . S
Li88 O148 1.956 . S
Li88 O149 1.970 . S
Li88 O150 1.961 . S
Li89 N113 1.990 . S
Li89 O148 1.970 . S
Li89 O149 1.956 . S
Li89 O151 1.961 . S
Li90 N135 1.990 . S
Li90 O148 1.961 . S
Li90 O150 1.956 . S
Li90 O151 1.970 . S
Li91 N141 1.990 . S
Li91 O149 1.961 . S
Li91 O150 1.970 . S
Li91 O151 1.956 . S
C92 C94 1.348 . S
C92 C95 1.356 . S
C92 O148 1.325 . S
N93 C96 1.314 . S
N93 C97 1.279 . S
C94 C92 1.348 . S
C94 C96 1.353 . S
C94 H152 0.929 . S
C95 C92 1.356 . S
C95 C97 1.358 . S
C95 H153 0.930 . S
C96 N93 1.314 . S
C96 C94 1.353 . S
C96 H154 0.930 . S
C97 N93 1.279 . S
C97 C95 1.358 . S
C97 H155 0.930 . S
C98 C101 1.348 . S
C98 C102 1.356 . S
C98 O149 1.325 . S
C99 N100 1.279 . S
C99 C102 1.358 . S
C99 H156 0.930 . S
N100 C99 1.279 . S
N100 C103 1.314 . S
C101 C98 1.348 . S
C101 C103 1.353 . S
C101 H157 0.929 . S
C102 C98 1.356 . S
C102 C99 1.358 . S
C102 H158 0.930 . S
C103 N100 1.314 . S
C103 C101 1.353 . S
C103 H159 0.930 . S
C104 N105 1.314 . S
C104 C109 1.353 . S
C104 H110 0.930 . S
N105 Li88 1.990 . S
N105 C104 1.314 . S
N105 C107 1.279 . S
C106 C107 1.358 . S
C106 C108 1.356 . S
C106 H160 0.930 . S
C107 N105 1.279 . S
C107 C106 1.358 . S
C107 H111 0.930 . S
C108 C106 1.356 . S
C108 C109 1.348 . S
C109 C104 1.353 . S
C109 C108 1.348 . S
C109 H161 0.929 . S
H110 C104 0.930 . S
H111 C107 0.930 . S
C112 N113 1.314 . S
C112 C114 1.353 . S
C112 H118 0.930 . S
N113 Li89 1.990 . S
N113 C112 1.314 . S
N113 C116 1.279 . S
C114 C112 1.353 . S
C114 C117 1.348 . S
C114 H162 0.929 . S
C115 C116 1.358 . S
C115 C117 1.356 . S
C115 H163 0.930 . S
C116 N113 1.279 . S
C116 C115 1.358 . S
C116 H119 0.930 . S
C117 C114 1.348 . S
C117 C115 1.356 . S
H118 C112 0.930 . S
H119 C116 0.930 . S
C120 C122 1.348 . S
C120 C123 1.356 . S
C120 O150 1.325 . S
N121 C124 1.314 . S
N121 C125 1.279 . S
C122 C120 1.348 . S
C122 C124 1.353 . S
C122 H164 0.929 . S
C123 C120 1.356 . S
C123 C125 1.358 . S
C123 H165 0.930 . S
C124 N121 1.314 . S
C124 C122 1.353 . S
C124 H166 0.930 . S
C125 N121 1.279 . S
C125 C123 1.358 . S
C125 H167 0.930 . S
C126 C127 1.348 . S
C126 C128 1.356 . S
C126 O151 1.325 . S
C127 C126 1.348 . S
C127 C129 1.353 . S
C127 H168 0.929 . S
C128 C126 1.356 . S
C128 C130 1.358 . S
C128 H169 0.930 . S
C129 C127 1.353 . S
C129 N131 1.314 . S
C129 H170 0.930 . S
C130 C128 1.358 . S
C130 N131 1.279 . S
C130 H171 0.930 . S
N131 C129 1.314 . S
N131 C130 1.279 . S
C132 C134 1.353 . S
C132 N135 1.314 . S
C132 H138 0.930 . S
C133 N135 1.279 . S
C133 C136 1.358 . S
C133 H139 0.930 . S
C134 C132 1.353 . S
C134 C137 1.348 . S
C134 H172 0.929 . S
N135 Li90 1.990 . S
N135 C132 1.314 . S
N135 C133 1.279 . S
C136 C133 1.358 . S
C136 C137 1.356 . S
C136 H173 0.930 . S
C137 C134 1.348 . S
C137 C136 1.356 . S
H138 C132 0.930 . S
H139 C133 0.930 . S
C140 N141 1.314 . S
C140 C142 1.353 . S
C140 H146 0.930 . S
N141 Li91 1.990 . S
N141 C140 1.314 . S
N141 C144 1.279 . S
C142 C140 1.353 . S
C142 C145 1.348 . S
C142 H174 0.929 . S
C143 C144 1.358 . S
C143 C145 1.356 . S
C143 H175 0.930 . S
C144 N141 1.279 . S
C144 C143 1.358 . S
C144 H147 0.930 . S
C145 C142 1.348 . S
C145 C143 1.356 . S
H146 C140 0.930 . S
H147 C144 0.930 . S
O148 Li88 1.956 . S
O148 Li89 1.970 . S
O148 Li90 1.961 . S
O148 C92 1.325 . S
O149 Li88 1.970 . S
O149 Li89 1.956 . S
O149 Li91 1.961 . S
O149 C98 1.325 . S
O150 Li88 1.961 . S
O150 Li90 1.956 . S
O150 Li91 1.970 . S
O150 C120 1.325 . S
O151 Li89 1.961 . S
O151 Li90 1.970 . S
O151 Li91 1.956 . S
O151 C126 1.325 . S
H152 C94 0.929 . S
H153 C95 0.930 . S
H154 C96 0.930 . S
H155 C97 0.930 . S
H156 C99 0.930 . S
H157 C101 0.929 . S
H158 C102 0.930 . S
H159 C103 0.930 . S
H160 C106 0.930 . S
H161 C109 0.929 . S
H162 C114 0.929 . S
H163 C115 0.930 . S
H164 C122 0.929 . S
H165 C123 0.930 . S
H166 C124 0.930 . S
H167 C125 0.930 . S
H168 C127 0.929 . S
H169 C128 0.930 . S
H170 C129 0.930 . S
H171 C130 0.930 . S
H172 C134 0.929 . S
H173 C136 0.930 . S
H174 C142 0.929 . S
H175 C143 0.930 . S
Li176 N193 1.990 . S
Li176 O236 1.956 . S
Li176 O237 1.970 . S
Li176 O238 1.961 . S
Li177 N201 1.990 . S
Li177 O236 1.970 . S
Li177 O237 1.956 . S
Li177 O239 1.961 . S
Li178 N223 1.990 . S
Li178 O236 1.961 . S
Li178 O238 1.956 . S
Li178 O239 1.970 . S
Li179 N229 1.990 . S
Li179 O237 1.961 . S
Li179 O238 1.970 . S
Li179 O239 1.956 . S
C180 C182 1.348 . S
C180 C183 1.356 . S
C180 O236 1.325 . S
N181 C184 1.314 . S
N181 C185 1.279 . S
C182 C180 1.348 . S
C182 C184 1.353 . S
C182 H240 0.929 . S
C183 C180 1.356 . S
C183 C185 1.358 . S
C183 H241 0.930 . S
C184 N181 1.314 . S
C184 C182 1.353 . S
C184 H242 0.930 . S
C185 N181 1.279 . S
C185 C183 1.358 . S
C185 H243 0.930 . S
C186 C189 1.348 . S
C186 C190 1.356 . S
C186 O237 1.325 . S
C187 N188 1.279 . S
C187 C190 1.358 . S
C187 H244 0.930 . S
N188 C187 1.279 . S
N188 C191 1.314 . S
C189 C186 1.348 . S
C189 C191 1.353 . S
C189 H245 0.929 . S
C190 C186 1.356 . S
C190 C187 1.358 . S
C190 H246 0.930 . S
C191 N188 1.314 . S
C191 C189 1.353 . S
C191 H247 0.930 . S
C192 N193 1.314 . S
C192 C197 1.353 . S
C192 H198 0.930 . S
N193 Li176 1.990 . S
N193 C192 1.314 . S
N193 C195 1.279 . S
C194 C195 1.358 . S
C194 C196 1.356 . S
C194 H248 0.930 . S
C195 N193 1.279 . S
C195 C194 1.358 . S
C195 H199 0.930 . S
C196 C194 1.356 . S
C196 C197 1.348 . S
C197 C192 1.353 . S
C197 C196 1.348 . S
C197 H249 0.929 . S
H198 C192 0.930 . S
H199 C195 0.930 . S
C200 N201 1.314 . S
C200 C202 1.353 . S
C200 H206 0.930 . S
N201 Li177 1.990 . S
N201 C200 1.314 . S
N201 C204 1.279 . S
C202 C200 1.353 . S
C202 C205 1.348 . S
C202 H250 0.929 . S
C203 C204 1.358 . S
C203 C205 1.356 . S
C203 H251 0.930 . S
C204 N201 1.279 . S
C204 C203 1.358 . S
C204 H207 0.930 . S
C205 C202 1.348 . S
C205 C203 1.356 . S
H206 C200 0.930 . S
H207 C204 0.930 . S
C208 C210 1.348 . S
C208 C211 1.356 . S
C208 O238 1.325 . S
N209 C212 1.314 . S
N209 C213 1.279 . S
C210 C208 1.348 . S
C210 C212 1.353 . S
C210 H252 0.929 . S
C211 C208 1.356 . S
C211 C213 1.358 . S
C211 H253 0.930 . S
C212 N209 1.314 . S
C212 C210 1.353 . S
C212 H254 0.930 . S
C213 N209 1.279 . S
C213 C211 1.358 . S
C213 H255 0.930 . S
C214 C215 1.348 . S
C214 C216 1.356 . S
C214 O239 1.325 . S
C215 C214 1.348 . S
C215 C217 1.353 . S
C215 H256 0.929 . S
C216 C214 1.356 . S
C216 C218 1.358 . S
C216 H257 0.930 . S
C217 C215 1.353 . S
C217 N219 1.314 . S
C217 H258 0.930 . S
C218 C216 1.358 . S
C218 N219 1.279 . S
C218 H259 0.930 . S
N219 C217 1.314 . S
N219 C218 1.279 . S
C220 C222 1.353 . S
C220 N223 1.314 . S
C220 H226 0.930 . S
C221 N223 1.279 . S
C221 C224 1.358 . S
C221 H227 0.930 . S
C222 C220 1.353 . S
C222 C225 1.348 . S
C222 H260 0.929 . S
N223 Li178 1.990 . S
N223 C220 1.314 . S
N223 C221 1.279 . S
C224 C221 1.358 . S
C224 C225 1.356 . S
C224 H261 0.930 . S
C225 C222 1.348 . S
C225 C224 1.356 . S
H226 C220 0.930 . S
H227 C221 0.930 . S
C228 N229 1.314 . S
C228 C230 1.353 . S
C228 H234 0.930 . S
N229 Li179 1.990 . S
N229 C228 1.314 . S
N229 C232 1.279 . S
C230 C228 1.353 . S
C230 C233 1.348 . S
C230 H262 0.929 . S
C231 C232 1.358 . S
C231 C233 1.356 . S
C231 H263 0.930 . S
C232 N229 1.279 . S
C232 C231 1.358 . S
C232 H235 0.930 . S
C233 C230 1.348 . S
C233 C231 1.356 . S
H234 C228 0.930 . S
H235 C232 0.930 . S
O236 Li176 1.956 . S
O236 Li177 1.970 . S
O236 Li178 1.961 . S
O236 C180 1.325 . S
O237 Li176 1.970 . S
O237 Li177 1.956 . S
O237 Li179 1.961 . S
O237 C186 1.325 . S
O238 Li176 1.961 . S
O238 Li178 1.956 . S
O238 Li179 1.970 . S
O238 C208 1.325 . S
O239 Li177 1.961 . S
O239 Li178 1.970 . S
O239 Li179 1.956 . S
O239 C214 1.325 . S
H240 C182 0.929 . S
H241 C183 0.930 . S
H242 C184 0.930 . S
H243 C185 0.930 . S
H244 C187 0.930 . S
H245 C189 0.929 . S
H246 C190 0.930 . S
H247 C191 0.930 . S
H248 C194 0.930 . S
H249 C197 0.929 . S
H250 C202 0.929 . S
H251 C203 0.930 . S
H252 C210 0.929 . S
H253 C211 0.930 . S
H254 C212 0.930 . S
H255 C213 0.930 . S
H256 C215 0.929 . S
H257 C216 0.930 . S
H258 C217 0.930 . S
H259 C218 0.930 . S
H260 C222 0.929 . S
H261 C224 0.930 . S
H262 C230 0.929 . S
H263 C231 0.930 . S
Li264 N281 1.984 1_556 S
Li264 O324 1.956 . S
Li264 O325 1.970 . S
Li264 O326 1.961 . S
Li265 N289 1.990 . S
Li265 O324 1.970 . S
Li265 O325 1.956 . S
Li265 O327 1.961 . S
Li266 N311 1.990 . S
Li266 O324 1.961 . S
Li266 O326 1.956 . S
Li266 O327 1.970 . S
Li267 N317 1.990 . S
Li267 O325 1.961 . S
Li267 O326 1.970 . S
Li267 O327 1.956 . S
C268 C270 1.348 1_556 S
C268 C271 1.356 1_556 S
C268 O324 1.325 . S
N269 C272 1.314 . S
N269 C273 1.279 . S
C270 C268 1.348 1_554 S
C270 C272 1.353 . S
C270 H328 0.929 . S
C271 C268 1.356 1_554 S
C271 C273 1.358 . S
C271 H329 0.930 . S
C272 N269 1.314 . S
C272 C270 1.353 . S
C272 H330 0.930 . S
C273 N269 1.279 . S
C273 C271 1.358 . S
C273 H331 0.930 . S
C274 C277 1.348 . S
C274 C278 1.356 . S
C274 O325 1.325 . S
C275 N276 1.279 . S
C275 C278 1.358 . S
C275 H332 0.930 . S
N276 C275 1.279 . S
N276 C279 1.314 . S
C277 C274 1.348 . S
C277 C279 1.353 . S
C277 H333 0.929 . S
C278 C274 1.356 . S
C278 C275 1.358 . S
C278 H334 0.930 . S
C279 N276 1.314 . S
C279 C277 1.353 . S
C279 H335 0.930 . S
C280 N281 1.313 1_556 S
C280 C285 1.353 1_556 S
C280 H286 0.930 . S
N281 Li264 1.984 1_554 S
N281 C280 1.313 1_554 S
N281 C283 1.287 . S
C282 C283 1.358 . S
C282 C284 1.356 . S
C282 H336 0.930 . S
C283 N281 1.287 . S
C283 C282 1.358 . S
C283 H287 0.930 . S
C284 C282 1.356 . S
C284 C285 1.348 . S
C285 C280 1.353 1_554 S
C285 C284 1.348 . S
C285 H337 0.929 . S
H286 C280 0.930 . S
H287 C283 0.930 . S
C288 N289 1.314 . S
C288 C290 1.353 . S
C288 H294 0.930 . S
N289 Li265 1.990 . S
N289 C288 1.314 . S
N289 C292 1.279 . S
C290 C288 1.353 . S
C290 C293 1.348 . S
C290 H338 0.929 . S
C291 C292 1.358 . S
C291 C293 1.356 . S
C291 H339 0.930 . S
C292 N289 1.279 . S
C292 C291 1.358 . S
C292 H295 0.930 . S
C293 C290 1.348 . S
C293 C291 1.356 . S
H294 C288 0.930 . S
H295 C292 0.930 . S
C296 C298 1.348 . S
C296 C299 1.356 . S
C296 O326 1.325 . S
N297 C300 1.314 . S
N297 C301 1.279 . S
C298 C296 1.348 . S
C298 C300 1.353 . S
C298 H340 0.929 . S
C299 C296 1.356 . S
C299 C301 1.358 . S
C299 H341 0.930 . S
C300 N297 1.314 . S
C300 C298 1.353 . S
C300 H342 0.930 . S
C301 N297 1.279 . S
C301 C299 1.358 . S
C301 H343 0.930 . S
C302 C303 1.348 . S
C302 C304 1.356 . S
C302 O327 1.325 . S
C303 C302 1.348 . S
C303 C305 1.353 . S
C303 H344 0.929 . S
C304 C302 1.356 . S
C304 C306 1.358 . S
C304 H345 0.930 . S
C305 C303 1.353 . S
C305 N307 1.314 . S
C305 H346 0.930 . S
C306 C304 1.358 . S
C306 N307 1.279 . S
C306 H347 0.930 . S
N307 C305 1.314 . S
N307 C306 1.279 . S
C308 C310 1.353 . S
C308 N311 1.314 . S
C308 H314 0.930 . S
C309 N311 1.279 . S
C309 C312 1.358 . S
C309 H315 0.930 . S
C310 C308 1.353 . S
C310 C313 1.348 . S
C310 H348 0.929 . S
N311 Li266 1.990 . S
N311 C308 1.314 . S
N311 C309 1.279 . S
C312 C309 1.358 . S
C312 C313 1.356 . S
C312 H349 0.930 . S
C313 C310 1.348 . S
C313 C312 1.356 . S
H314 C308 0.930 . S
H315 C309 0.930 . S
C316 N317 1.314 . S
C316 C318 1.353 . S
C316 H322 0.930 . S
N317 Li267 1.990 . S
N317 C316 1.314 . S
N317 C320 1.279 . S
C318 C316 1.353 . S
C318 C321 1.348 . S
C318 H350 0.929 . S
C319 C320 1.358 . S
C319 C321 1.356 . S
C319 H351 0.930 . S
C320 N317 1.279 . S
C320 C319 1.358 . S
C320 H323 0.930 . S
C321 C318 1.348 . S
C321 C319 1.356 . S
H322 C316 0.930 . S
H323 C320 0.930 . S
O324 Li264 1.956 . S
O324 Li265 1.970 . S
O324 Li266 1.961 . S
O324 C268 1.325 . S
O325 Li264 1.970 . S
O325 Li265 1.956 . S
O325 Li267 1.961 . S
O325 C274 1.325 . S
O326 Li264 1.961 . S
O326 Li266 1.956 . S
O326 Li267 1.970 . S
O326 C296 1.325 . S
O327 Li265 1.961 . S
O327 Li266 1.970 . S
O327 Li267 1.956 . S
O327 C302 1.325 . S
H328 C270 0.929 . S
H329 C271 0.930 . S
H330 C272 0.930 . S
H331 C273 0.930 . S
H332 C275 0.930 . S
H333 C277 0.929 . S
H334 C278 0.930 . S
H335 C279 0.930 . S
H336 C282 0.930 . S
H337 C285 0.929 . S
H338 C290 0.929 . S
H339 C291 0.930 . S
H340 C298 0.929 . S
H341 C299 0.930 . S
H342 C300 0.930 . S
H343 C301 0.930 . S
H344 C303 0.929 . S
H345 C304 0.930 . S
H346 C305 0.930 . S
H347 C306 0.930 . S
H348 C310 0.929 . S
H349 C312 0.930 . S
H350 C318 0.929 . S
H351 C319 0.930 . S
Li352 N369 1.990 . S
Li352 O412 1.956 . S
Li352 O413 1.970 . S
Li352 O414 1.961 . S
Li353 N377 1.990 . S
Li353 O412 1.970 . S
Li353 O413 1.956 . S
Li353 O415 1.961 . S
Li354 N399 1.990 . S
Li354 O412 1.961 . S
Li354 O414 1.956 . S
Li354 O415 1.970 . S
Li355 N405 1.990 . S
Li355 O413 1.961 . S
Li355 O414 1.970 . S
Li355 O415 1.956 . S
C356 C358 1.348 . S
C356 C359 1.356 . S
C356 O412 1.325 . S
N357 C360 1.314 . S
N357 C361 1.279 . S
C358 C356 1.348 . S
C358 C360 1.353 . S
C358 H416 0.929 . S
C359 C356 1.356 . S
C359 C361 1.358 . S
C359 H417 0.930 . S
C360 N357 1.314 . S
C360 C358 1.353 . S
C360 H418 0.930 . S
C361 N357 1.279 . S
C361 C359 1.358 . S
C361 H419 0.930 . S
C362 C365 1.348 . S
C362 C366 1.356 . S
C362 O413 1.325 . S
C363 N364 1.279 . S
C363 C366 1.358 . S
C363 H420 0.930 . S
N364 C363 1.279 . S
N364 C367 1.314 . S
C365 C362 1.348 . S
C365 C367 1.353 . S
C365 H421 0.929 . S
C366 C362 1.356 . S
C366 C363 1.358 . S
C366 H422 0.930 . S
C367 N364 1.314 . S
C367 C365 1.353 . S
C367 H423 0.930 . S
C368 N369 1.314 . S
C368 C373 1.353 . S
C368 H374 0.930 . S
N369 Li352 1.990 . S
N369 C368 1.314 . S
N369 C371 1.279 . S
C370 C371 1.358 . S
C370 C372 1.356 . S
C370 H424 0.930 . S
C371 N369 1.279 . S
C371 C370 1.358 . S
C371 H375 0.930 . S
C372 C370 1.356 . S
C372 C373 1.348 . S
C373 C368 1.353 . S
C373 C372 1.348 . S
C373 H425 0.929 . S
H374 C368 0.930 . S
H375 C371 0.930 . S
C376 N377 1.314 . S
C376 C378 1.353 . S
C376 H382 0.930 . S
N377 Li353 1.990 . S
N377 C376 1.314 . S
N377 C380 1.279 . S
C378 C376 1.353 . S
C378 C381 1.348 . S
C378 H426 0.929 . S
C379 C380 1.358 . S
C379 C381 1.356 . S
C379 H427 0.930 . S
C380 N377 1.279 . S
C380 C379 1.358 . S
C380 H383 0.930 . S
C381 C378 1.348 . S
C381 C379 1.356 . S
H382 C376 0.930 . S
H383 C380 0.930 . S
C384 C386 1.348 . S
C384 C387 1.356 . S
C384 O414 1.325 . S
N385 C388 1.314 . S
N385 C389 1.279 . S
C386 C384 1.348 . S
C386 C388 1.353 . S
C386 H428 0.929 . S
C387 C384 1.356 . S
C387 C389 1.358 . S
C387 H429 0.930 . S
C388 N385 1.314 . S
C388 C386 1.353 . S
C388 H430 0.930 . S
C389 N385 1.279 . S
C389 C387 1.358 . S
C389 H431 0.930 . S
C390 C391 1.348 . S
C390 C392 1.356 . S
C390 O415 1.325 . S
C391 C390 1.348 . S
C391 C393 1.336 1_554 S
C391 H432 0.929 . S
C392 C390 1.356 . S
C392 C394 1.334 1_554 S
C392 H433 0.930 . S
C393 C391 1.336 1_556 S
C393 N395 1.324 . S
C393 H434 0.938 . S
C394 C392 1.334 1_556 S
C394 N395 1.294 . S
C394 H435 0.942 . S
N395 C393 1.324 . S
N395 C394 1.294 . S
C396 C398 1.353 . S
C396 N399 1.314 . S
C396 H402 0.930 . S
C397 N399 1.279 . S
C397 C400 1.358 . S
C397 H403 0.930 . S
C398 C396 1.353 . S
C398 C401 1.348 . S
C398 H436 0.929 . S
N399 Li354 1.990 . S
N399 C396 1.314 . S
N399 C397 1.279 . S
C400 C397 1.358 . S
C400 C401 1.356 . S
C400 H437 0.930 . S
C401 C398 1.348 . S
C401 C400 1.356 . S
H402 C396 0.930 . S
H403 C397 0.930 . S
C404 N405 1.314 . S
C404 C406 1.353 1_554 S
C404 H410 0.930 . S
N405 Li355 1.990 . S
N405 C404 1.314 . S
N405 C408 1.279 1_554 S
C406 C404 1.353 1_556 S
C406 C409 1.348 . S
C406 H438 0.929 . S
C407 C408 1.358 . S
C407 C409 1.356 . S
C407 H439 0.930 . S
C408 N405 1.279 1_556 S
C408 C407 1.358 . S
C408 H411 0.930 . S
C409 C406 1.348 . S
C409 C407 1.356 . S
H410 C404 0.930 . S
H411 C408 0.930 . S
O412 Li352 1.956 . S
O412 Li353 1.970 . S
O412 Li354 1.961 . S
O412 C356 1.325 . S
O413 Li352 1.970 . S
O413 Li353 1.956 . S
O413 Li355 1.961 . S
O413 C362 1.325 . S
O414 Li352 1.961 . S
O414 Li354 1.956 . S
O414 Li355 1.970 . S
O414 C384 1.325 . S
O415 Li353 1.961 . S
O415 Li354 1.970 . S
O415 Li355 1.956 . S
O415 C390 1.325 . S
H416 C358 0.929 . S
H417 C359 0.930 . S
H418 C360 0.930 . S
H419 C361 0.930 . S
H420 C363 0.930 . S
H421 C365 0.929 . S
H422 C366 0.930 . S
H423 C367 0.930 . S
H424 C370 0.930 . S
H425 C373 0.929 . S
H426 C378 0.929 . S
H427 C379 0.930 . S
H428 C386 0.929 . S
H429 C387 0.930 . S
H430 C388 0.930 . S
H431 C389 0.930 . S
H432 C391 0.929 . S
H433 C392 0.930 . S
H434 C393 0.938 . S
H435 C394 0.942 . S
H436 C398 0.929 . S
H437 C400 0.930 . S
H438 C406 0.929 . S
H439 C407 0.930 . S
Li440 N457 1.990 . S
Li440 O500 1.956 . S
Li440 O501 1.970 . S
Li440 O502 1.961 . S
Li441 N465 1.990 . S
Li441 O500 1.970 . S
Li441 O501 1.956 . S
Li441 O503 1.961 . S
Li442 N487 1.990 . S
Li442 O500 1.961 . S
Li442 O502 1.956 . S
Li442 O503 1.970 . S
Li443 N493 1.990 . S
Li443 O501 1.961 . S
Li443 O502 1.970 . S
Li443 O503 1.956 . S
C444 C446 1.348 . S
C444 C447 1.356 . S
C444 O500 1.325 . S
N445 C448 1.314 . S
N445 C449 1.279 . S
C446 C444 1.348 . S
C446 C448 1.353 . S
C446 H504 0.929 . S
C447 C444 1.356 . S
C447 C449 1.358 . S
C447 H505 0.930 . S
C448 N445 1.314 . S
C448 C446 1.353 . S
C448 H506 0.930 . S
C449 N445 1.279 . S
C449 C447 1.358 . S
C449 H507 0.930 . S
C450 C453 1.348 . S
C450 C454 1.356 . S
C450 O501 1.325 . S
C451 N452 1.279 . S
C451 C454 1.358 . S
C451 H508 0.930 . S
N452 C451 1.279 . S
N452 C455 1.314 . S
C453 C450 1.348 . S
C453 C455 1.353 . S
C453 H509 0.929 . S
C454 C450 1.356 . S
C454 C451 1.358 . S
C454 H510 0.930 . S
C455 N452 1.314 . S
C455 C453 1.353 . S
C455 H511 0.930 . S
C456 N457 1.314 . S
C456 C461 1.353 . S
C456 H462 0.930 . S
N457 Li440 1.990 . S
N457 C456 1.314 . S
N457 C459 1.279 . S
C458 C459 1.358 . S
C458 C460 1.356 . S
C458 H512 0.930 . S
C459 N457 1.279 . S
C459 C458 1.358 . S
C459 H463 0.930 . S
C460 C458 1.356 . S
C460 C461 1.348 . S
C461 C456 1.353 . S
C461 C460 1.348 . S
C461 H513 0.929 . S
H462 C456 0.930 . S
H463 C459 0.930 . S
C464 N465 1.314 . S
C464 C466 1.353 . S
C464 H470 0.930 . S
N465 Li441 1.990 . S
N465 C464 1.314 . S
N465 C468 1.279 . S
C466 C464 1.353 . S
C466 C469 1.348 . S
C466 H514 0.929 . S
C467 C468 1.358 . S
C467 C469 1.356 . S
C467 H515 0.930 . S
C468 N465 1.279 . S
C468 C467 1.358 . S
C468 H471 0.930 . S
C469 C466 1.348 . S
C469 C467 1.356 . S
H470 C464 0.930 . S
H471 C468 0.930 . S
C472 C474 1.348 . S
C472 C475 1.356 . S
C472 O502 1.325 . S
N473 C476 1.314 . S
N473 C477 1.279 . S
C474 C472 1.348 . S
C474 C476 1.353 . S
C474 H516 0.929 . S
C475 C472 1.356 . S
C475 C477 1.358 . S
C475 H517 0.930 . S
C476 N473 1.314 . S
C476 C474 1.353 . S
C476 H518 0.930 . S
C477 N473 1.279 . S
C477 C475 1.358 . S
C477 H519 0.930 . S
C478 C479 1.348 . S
C478 C480 1.356 . S
C478 O503 1.325 . S
C479 C478 1.348 . S
C479 C481 1.353 . S
C479 H520 0.929 . S
C480 C478 1.356 . S
C480 C482 1.358 . S
C480 H521 0.930 . S
C481 C479 1.353 . S
C481 N483 1.314 . S
C481 H522 0.930 . S
C482 C480 1.358 . S
C482 N483 1.279 . S
C482 H523 0.930 . S
N483 C481 1.314 . S
N483 C482 1.279 . S
C484 C486 1.353 . S
C484 N487 1.314 . S
C484 H490 0.930 . S
C485 N487 1.279 . S
C485 C488 1.358 . S
C485 H491 0.930 . S
C486 C484 1.353 . S
C486 C489 1.348 . S
C486 H524 0.929 . S
N487 Li442 1.990 . S
N487 C484 1.314 . S
N487 C485 1.279 . S
C488 C485 1.358 . S
C488 C489 1.356 . S
C488 H525 0.930 . S
C489 C486 1.348 . S
C489 C488 1.356 . S
H490 C484 0.930 . S
H491 C485 0.930 . S
C492 N493 1.314 . S
C492 C494 1.353 . S
C492 H498 0.930 . S
N493 Li443 1.990 . S
N493 C492 1.314 . S
N493 C496 1.279 . S
C494 C492 1.353 . S
C494 C497 1.348 . S
C494 H526 0.929 . S
C495 C496 1.358 . S
C495 C497 1.356 . S
C495 H527 0.930 . S
C496 N493 1.279 . S
C496 C495 1.358 . S
C496 H499 0.930 . S
C497 C494 1.348 . S
C497 C495 1.356 . S
H498 C492 0.930 . S
H499 C496 0.930 . S
O500 Li440 1.956 . S
O500 Li441 1.970 . S
O500 Li442 1.961 . S
O500 C444 1.325 . S
O501 Li440 1.970 . S
O501 Li441 1.956 . S
O501 Li443 1.961 . S
O501 C450 1.325 . S
O502 Li440 1.961 . S
O502 Li442 1.956 . S
O502 Li443 1.970 . S
O502 C472 1.325 . S
O503 Li441 1.961 . S
O503 Li442 1.970 . S
O503 Li443 1.956 . S
O503 C478 1.325 . S
H504 C446 0.929 . S
H505 C447 0.930 . S
H506 C448 0.930 . S
H507 C449 0.930 . S
H508 C451 0.930 . S
H509 C453 0.929 . S
H510 C454 0.930 . S
H511 C455 0.930 . S
H512 C458 0.930 . S
H513 C461 0.929 . S
H514 C466 0.929 . S
H515 C467 0.930 . S
H516 C474 0.929 . S
H517 C475 0.930 . S
H518 C476 0.930 . S
H519 C477 0.930 . S
H520 C479 0.929 . S
H521 C480 0.930 . S
H522 C481 0.930 . S
H523 C482 0.930 . S
H524 C486 0.929 . S
H525 C488 0.930 . S
H526 C494 0.929 . S
H527 C495 0.930 . S
Li528 N545 1.990 . S
Li528 O588 1.956 . S
Li528 O589 1.970 . S
Li528 O590 1.961 . S
Li529 N553 1.990 . S
Li529 O588 1.970 . S
Li529 O589 1.956 . S
Li529 O591 1.961 . S
Li530 N575 1.990 . S
Li530 O588 1.961 . S
Li530 O590 1.956 . S
Li530 O591 1.970 . S
Li531 N581 1.990 . S
Li531 O589 1.961 . S
Li531 O590 1.970 . S
Li531 O591 1.956 . S
C532 C534 1.348 . S
C532 C535 1.356 . S
C532 O588 1.325 . S
N533 C536 1.314 . S
N533 C537 1.279 . S
C534 C532 1.348 . S
C534 C536 1.353 . S
C534 H592 0.929 . S
C535 C532 1.356 . S
C535 C537 1.358 . S
C535 H593 0.930 . S
C536 N533 1.314 . S
C536 C534 1.353 . S
C536 H594 0.930 . S
C537 N533 1.279 . S
C537 C535 1.358 . S
C537 H595 0.930 . S
C538 C541 1.348 . S
C538 C542 1.356 . S
C538 O589 1.325 . S
C539 N540 1.279 . S
C539 C542 1.358 . S
C539 H596 0.930 . S
N540 C539 1.279 . S
N540 C543 1.314 . S
C541 C538 1.348 . S
C541 C543 1.353 . S
C541 H597 0.929 . S
C542 C538 1.356 . S
C542 C539 1.358 . S
C542 H598 0.930 . S
C543 N540 1.314 . S
C543 C541 1.353 . S
C543 H599 0.930 . S
C544 N545 1.314 . S
C544 C549 1.353 . S
C544 H550 0.930 . S
N545 Li528 1.990 . S
N545 C544 1.314 . S
N545 C547 1.279 . S
C546 C547 1.358 . S
C546 C548 1.356 . S
C546 H600 0.930 . S
C547 N545 1.279 . S
C547 C546 1.358 . S
C547 H551 0.930 . S
C548 C546 1.356 . S
C548 C549 1.348 . S
C549 C544 1.353 . S
C549 C548 1.348 . S
C549 H601 0.929 . S
H550 C544 0.930 . S
H551 C547 0.930 . S
C552 N553 1.314 . S
C552 C554 1.353 . S
C552 H558 0.930 . S
N553 Li529 1.990 . S
N553 C552 1.314 . S
N553 C556 1.279 . S
C554 C552 1.353 . S
C554 C557 1.348 . S
C554 H602 0.929 . S
C555 C556 1.358 . S
C555 C557 1.356 . S
C555 H603 0.930 . S
C556 N553 1.279 . S
C556 C555 1.358 . S
C556 H559 0.930 . S
C557 C554 1.348 . S
C557 C555 1.356 . S
H558 C552 0.930 . S
H559 C556 0.930 . S
C560 C562 1.348 . S
C560 C563 1.356 . S
C560 O590 1.325 . S
N561 C564 1.314 . S
N561 C565 1.279 . S
C562 C560 1.348 . S
C562 C564 1.353 . S
C562 H604 0.929 . S
C563 C560 1.356 . S
C563 C565 1.358 . S
C563 H605 0.930 . S
C564 N561 1.314 . S
C564 C562 1.353 . S
C564 H606 0.930 . S
C565 N561 1.279 . S
C565 C563 1.358 . S
C565 H607 0.930 . S
C566 C567 1.348 . S
C566 C568 1.356 . S
C566 O591 1.325 . S
C567 C566 1.348 . S
C567 C569 1.353 . S
C567 H608 0.929 . S
C568 C566 1.356 . S
C568 C570 1.358 . S
C568 H609 0.930 . S
C569 C567 1.353 . S
C569 N571 1.314 . S
C569 H610 0.930 . S
C570 C568 1.358 . S
C570 N571 1.279 . S
C570 H611 0.930 . S
N571 C569 1.314 . S
N571 C570 1.279 . S
C572 C574 1.353 . S
C572 N575 1.314 . S
C572 H578 0.930 . S
C573 N575 1.279 . S
C573 C576 1.358 . S
C573 H579 0.930 . S
C574 C572 1.353 . S
C574 C577 1.348 . S
C574 H612 0.929 . S
N575 Li530 1.990 . S
N575 C572 1.314 . S
N575 C573 1.279 . S
C576 C573 1.358 . S
C576 C577 1.356 . S
C576 H613 0.930 . S
C577 C574 1.348 . S
C577 C576 1.356 . S
H578 C572 0.930 . S
H579 C573 0.930 . S
C580 N581 1.314 . S
C580 C582 1.353 . S
C580 H586 0.930 . S
N581 Li531 1.990 . S
N581 C580 1.314 . S
N581 C584 1.279 . S
C582 C580 1.353 . S
C582 C585 1.348 . S
C582 H614 0.929 . S
C583 C584 1.358 . S
C583 C585 1.356 . S
C583 H615 0.930 . S
C584 N581 1.279 . S
C584 C583 1.358 . S
C584 H587 0.930 . S
C585 C582 1.348 . S
C585 C583 1.356 . S
H586 C580 0.930 . S
H587 C584 0.930 . S
O588 Li528 1.956 . S
O588 Li529 1.970 . S
O588 Li530 1.961 . S
O588 C532 1.325 . S
O589 Li528 1.970 . S
O589 Li529 1.956 . S
O589 Li531 1.961 . S
O589 C538 1.325 . S
O590 Li528 1.961 . S
O590 Li530 1.956 . S
O590 Li531 1.970 . S
O590 C560 1.325 . S
O591 Li529 1.961 . S
O591 Li530 1.970 . S
O591 Li531 1.956 . S
O591 C566 1.325 . S
H592 C534 0.929 . S
H593 C535 0.930 . S
H594 C536 0.930 . S
H595 C537 0.930 . S
H596 C539 0.930 . S
H597 C541 0.929 . S
H598 C542 0.930 . S
H599 C543 0.930 . S
H600 C546 0.930 . S
H601 C549 0.929 . S
H602 C554 0.929 . S
H603 C555 0.930 . S
H604 C562 0.929 . S
H605 C563 0.930 . S
H606 C564 0.930 . S
H607 C565 0.930 . S
H608 C567 0.929 . S
H609 C568 0.930 . S
H610 C569 0.930 . S
H611 C570 0.930 . S
H612 C574 0.929 . S
H613 C576 0.930 . S
H614 C582 0.929 . S
H615 C583 0.930 . S
Li616 N633 1.990 . S
Li616 O676 1.956 . S
Li616 O677 1.970 . S
Li616 O678 1.961 . S
Li617 N641 1.990 . S
Li617 O676 1.970 . S
Li617 O677 1.956 . S
Li617 O679 1.961 . S
Li618 N663 1.990 . S
Li618 O676 1.961 . S
Li618 O678 1.956 . S
Li618 O679 1.970 . S
Li619 N669 1.990 . S
Li619 O677 1.961 . S
Li619 O678 1.970 . S
Li619 O679 1.956 . S
C620 C622 1.348 . S
C620 C623 1.356 . S
C620 O676 1.325 . S
N621 C624 1.314 . S
N621 C625 1.279 . S
C622 C620 1.348 . S
C622 C624 1.353 . S
C622 H680 0.929 . S
C623 C620 1.356 . S
C623 C625 1.358 . S
C623 H681 0.930 . S
C624 N621 1.314 . S
C624 C622 1.353 . S
C624 H682 0.930 . S
C625 N621 1.279 . S
C625 C623 1.358 . S
C625 H683 0.930 . S
C626 C629 1.348 . S
C626 C630 1.356 . S
C626 O677 1.325 . S
C627 N628 1.279 . S
C627 C630 1.358 . S
C627 H684 0.930 . S
N628 C627 1.279 . S
N628 C631 1.314 . S
C629 C626 1.348 . S
C629 C631 1.353 . S
C629 H685 0.929 . S
C630 C626 1.356 . S
C630 C627 1.358 . S
C630 H686 0.930 . S
C631 N628 1.314 . S
C631 C629 1.353 . S
C631 H687 0.930 . S
C632 N633 1.314 . S
C632 C637 1.353 . S
C632 H638 0.930 . S
N633 Li616 1.990 . S
N633 C632 1.314 . S
N633 C635 1.279 . S
C634 C635 1.358 . S
C634 C636 1.356 . S
C634 H688 0.930 . S
C635 N633 1.279 . S
C635 C634 1.358 . S
C635 H639 0.930 . S
C636 C634 1.356 . S
C636 C637 1.348 . S
C637 C632 1.353 . S
C637 C636 1.348 . S
C637 H689 0.929 . S
H638 C632 0.930 . S
H639 C635 0.930 . S
C640 N641 1.314 . S
C640 C642 1.353 . S
C640 H646 0.930 . S
N641 Li617 1.990 . S
N641 C640 1.314 . S
N641 C644 1.279 . S
C642 C640 1.353 . S
C642 C645 1.348 . S
C642 H690 0.929 . S
C643 C644 1.358 . S
C643 C645 1.356 . S
C643 H691 0.930 . S
C644 N641 1.279 . S
C644 C643 1.358 . S
C644 H647 0.930 . S
C645 C642 1.348 . S
C645 C643 1.356 . S
H646 C640 0.930 . S
H647 C644 0.930 . S
C648 C650 1.348 . S
C648 C651 1.356 . S
C648 O678 1.325 . S
N649 C652 1.314 . S
N649 C653 1.279 . S
C650 C648 1.348 . S
C650 C652 1.353 . S
C650 H692 0.929 . S
C651 C648 1.356 . S
C651 C653 1.358 . S
C651 H693 0.930 . S
C652 N649 1.314 . S
C652 C650 1.353 . S
C652 H694 0.930 . S
C653 N649 1.279 . S
C653 C651 1.358 . S
C653 H695 0.930 . S
C654 C655 1.348 . S
C654 C656 1.356 . S
C654 O679 1.325 . S
C655 C654 1.348 . S
C655 C657 1.353 . S
C655 H696 0.929 . S
C656 C654 1.356 . S
C656 C658 1.358 . S
C656 H697 0.930 . S
C657 C655 1.353 . S
C657 N659 1.314 . S
C657 H698 0.930 . S
C658 C656 1.358 . S
C658 N659 1.279 . S
C658 H699 0.930 . S
N659 C657 1.314 . S
N659 C658 1.279 . S
C660 C662 1.353 . S
C660 N663 1.314 . S
C660 H666 0.930 . S
C661 N663 1.279 . S
C661 C664 1.358 . S
C661 H667 0.930 . S
C662 C660 1.353 . S
C662 C665 1.348 . S
C662 H700 0.929 . S
N663 Li618 1.990 . S
N663 C660 1.314 . S
N663 C661 1.279 . S
C664 C661 1.358 . S
C664 C665 1.356 . S
C664 H701 0.930 . S
C665 C662 1.348 . S
C665 C664 1.356 . S
H666 C660 0.930 . S
H667 C661 0.930 . S
C668 N669 1.314 . S
C668 C670 1.353 . S
C668 H674 0.930 . S
N669 Li619 1.990 . S
N669 C668 1.314 . S
N669 C672 1.279 . S
C670 C668 1.353 . S
C670 C673 1.348 . S
C670 H702 0.929 . S
C671 C672 1.358 . S
C671 C673 1.356 . S
C671 H703 0.930 . S
C672 N669 1.279 . S
C672 C671 1.358 . S
C672 H675 0.930 . S
C673 C670 1.348 . S
C673 C671 1.356 . S
H674 C668 0.930 . S
H675 C672 0.930 . S
O676 Li616 1.956 . S
O676 Li617 1.970 . S
O676 Li618 1.961 . S
O676 C620 1.325 . S
O677 Li616 1.970 . S
O677 Li617 1.956 . S
O677 Li619 1.961 . S
O677 C626 1.325 . S
O678 Li616 1.961 . S
O678 Li618 1.956 . S
O678 Li619 1.970 . S
O678 C648 1.325 . S
O679 Li617 1.961 . S
O679 Li618 1.970 . S
O679 Li619 1.956 . S
O679 C654 1.325 . S
H680 C622 0.929 . S
H681 C623 0.930 . S
H682 C624 0.930 . S
H683 C625 0.930 . S
H684 C627 0.930 . S
H685 C629 0.929 . S
H686 C630 0.930 . S
H687 C631 0.930 . S
H688 C634 0.930 . S
H689 C637 0.929 . S
H690 C642 0.929 . S
H691 C643 0.930 . S
H692 C650 0.929 . S
H693 C651 0.930 . S
H694 C652 0.930 . S
H695 C653 0.930 . S
H696 C655 0.929 . S
H697 C656 0.930 . S
H698 C657 0.930 . S
H699 C658 0.930 . S
H700 C662 0.929 . S
H701 C664 0.930 . S
H702 C670 0.929 . S
H703 C671 0.930 . S
Li704 N721 1.990 . S
Li704 O764 1.956 . S
Li704 O765 1.970 . S
Li704 O766 1.961 . S
Li705 N729 1.990 . S
Li705 O764 1.970 . S
Li705 O765 1.956 . S
Li705 O767 1.961 . S
Li706 N751 1.990 . S
Li706 O764 1.961 . S
Li706 O766 1.956 . S
Li706 O767 1.970 . S
Li707 N757 1.990 . S
Li707 O765 1.961 . S
Li707 O766 1.970 . S
Li707 O767 1.956 . S
C708 C710 1.348 . S
C708 C711 1.356 . S
C708 O764 1.325 . S
N709 C712 1.314 . S
N709 C713 1.279 . S
C710 C708 1.348 . S
C710 C712 1.353 . S
C710 H768 0.929 . S
C711 C708 1.356 . S
C711 C713 1.358 . S
C711 H769 0.930 . S
C712 N709 1.314 . S
C712 C710 1.353 . S
C712 H770 0.930 . S
C713 N709 1.279 . S
C713 C711 1.358 . S
C713 H771 0.930 . S
C714 C717 1.348 . S
C714 C718 1.356 . S
C714 O765 1.325 . S
C715 N716 1.279 . S
C715 C718 1.358 . S
C715 H772 0.930 . S
N716 C715 1.279 . S
N716 C719 1.314 . S
C717 C714 1.348 . S
C717 C719 1.353 . S
C717 H773 0.929 . S
C718 C714 1.356 . S
C718 C715 1.358 . S
C718 H774 0.930 . S
C719 N716 1.314 . S
C719 C717 1.353 . S
C719 H775 0.930 . S
C720 N721 1.314 . S
C720 C725 1.353 . S
C720 H726 0.930 . S
N721 Li704 1.990 . S
N721 C720 1.314 . S
N721 C723 1.279 . S
C722 C723 1.358 . S
C722 C724 1.356 . S
C722 H776 0.930 . S
C723 N721 1.279 . S
C723 C722 1.358 . S
C723 H727 0.930 . S
C724 C722 1.356 . S
C724 C725 1.348 . S
C725 C720 1.353 . S
C725 C724 1.348 . S
C725 H777 0.929 . S
H726 C720 0.930 . S
H727 C723 0.930 . S
C728 N729 1.314 . S
C728 C730 1.353 . S
C728 H734 0.930 . S
N729 Li705 1.990 . S
N729 C728 1.314 . S
N729 C732 1.279 . S
C730 C728 1.353 . S
C730 C733 1.348 . S
C730 H778 0.929 . S
C731 C732 1.358 . S
C731 C733 1.356 . S
C731 H779 0.930 . S
C732 N729 1.279 . S
C732 C731 1.358 . S
C732 H735 0.930 . S
C733 C730 1.348 . S
C733 C731 1.356 . S
H734 C728 0.930 . S
H735 C732 0.930 . S
C736 C738 1.348 . S
C736 C739 1.356 . S
C736 O766 1.325 . S
N737 C740 1.314 . S
N737 C741 1.279 . S
C738 C736 1.348 . S
C738 C740 1.353 . S
C738 H780 0.929 . S
C739 C736 1.356 . S
C739 C741 1.358 . S
C739 H781 0.930 . S
C740 N737 1.314 . S
C740 C738 1.353 . S
C740 H782 0.930 . S
C741 N737 1.279 . S
C741 C739 1.358 . S
C741 H783 0.930 . S
C742 C743 1.348 . S
C742 C744 1.356 . S
C742 O767 1.325 . S
C743 C742 1.348 . S
C743 C745 1.353 . S
C743 H784 0.929 . S
C744 C742 1.356 . S
C744 C746 1.358 . S
C744 H785 0.930 . S
C745 C743 1.353 . S
C745 N747 1.314 . S
C745 H786 0.930 . S
C746 C744 1.358 . S
C746 N747 1.279 . S
C746 H787 0.930 . S
N747 C745 1.314 . S
N747 C746 1.279 . S
C748 C750 1.353 . S
C748 N751 1.314 . S
C748 H754 0.930 . S
C749 N751 1.279 . S
C749 C752 1.358 . S
C749 H755 0.930 . S
C750 C748 1.353 . S
C750 C753 1.348 . S
C750 H788 0.929 . S
N751 Li706 1.990 . S
N751 C748 1.314 . S
N751 C749 1.279 . S
C752 C749 1.358 . S
C752 C753 1.356 . S
C752 H789 0.930 . S
C753 C750 1.348 . S
C753 C752 1.356 . S
H754 C748 0.930 . S
H755 C749 0.930 . S
C756 N757 1.314 . S
C756 C758 1.353 . S
C756 H762 0.930 . S
N757 Li707 1.990 . S
N757 C756 1.314 . S
N757 C760 1.279 . S
C758 C756 1.353 . S
C758 C761 1.348 . S
C758 H790 0.929 . S
C759 C760 1.358 . S
C759 C761 1.356 . S
C759 H791 0.930 . S
C760 N757 1.279 . S
C760 C759 1.358 . S
C760 H763 0.930 . S
C761 C758 1.348 . S
C761 C759 1.356 . S
H762 C756 0.930 . S
H763 C760 0.930 . S
O764 Li704 1.956 . S
O764 Li705 1.970 . S
O764 Li706 1.961 . S
O764 C708 1.325 . S
O765 Li704 1.970 . S
O765 Li705 1.956 . S
O765 Li707 1.961 . S
O765 C714 1.325 . S
O766 Li704 1.961 . S
O766 Li706 1.956 . S
O766 Li707 1.970 . S
O766 C736 1.325 . S
O767 Li705 1.961 . S
O767 Li706 1.970 . S
O767 Li707 1.956 . S
O767 C742 1.325 . S
H768 C710 0.929 . S
H769 C711 0.930 . S
H770 C712 0.930 . S
H771 C713 0.930 . S
H772 C715 0.930 . S
H773 C717 0.929 . S
H774 C718 0.930 . S
H775 C719 0.930 . S
H776 C722 0.930 . S
H777 C725 0.929 . S
H778 C730 0.929 . S
H779 C731 0.930 . S
H780 C738 0.929 . S
H781 C739 0.930 . S
H782 C740 0.930 . S
H783 C741 0.930 . S
H784 C743 0.929 . S
H785 C744 0.930 . S
H786 C745 0.930 . S
H787 C746 0.930 . S
H788 C750 0.929 . S
H789 C752 0.930 . S
H790 C758 0.929 . S
H791 C759 0.930 . S
Li792 N809 1.990 . S
Li792 O852 1.956 . S
Li792 O853 1.970 . S
Li792 O854 1.961 . S
Li793 N817 1.990 . S
Li793 O852 1.970 . S
Li793 O853 1.956 . S
Li793 O855 1.961 . S
Li794 N839 1.990 . S
Li794 O852 1.961 . S
Li794 O854 1.956 . S
Li794 O855 1.970 . S
Li795 N845 1.990 . S
Li795 O853 1.961 . S
Li795 O854 1.970 . S
Li795 O855 1.956 . S
C796 C798 1.348 . S
C796 C799 1.356 . S
C796 O852 1.325 . S
N797 C800 1.314 . S
N797 C801 1.279 . S
C798 C796 1.348 . S
C798 C800 1.353 . S
C798 H856 0.929 . S
C799 C796 1.356 . S
C799 C801 1.358 . S
C799 H857 0.930 . S
C800 N797 1.314 . S
C800 C798 1.353 . S
C800 H858 0.930 . S
C801 N797 1.279 . S
C801 C799 1.358 . S
C801 H859 0.930 . S
C802 C805 1.348 . S
C802 C806 1.356 . S
C802 O853 1.325 . S
C803 N804 1.294 . S
C803 C806 1.333 1_554 S
C803 H860 0.943 . S
N804 C803 1.294 . S
N804 C807 1.325 . S
C805 C802 1.348 . S
C805 C807 1.335 1_556 S
C805 H861 0.929 . S
C806 C802 1.356 . S
C806 C803 1.333 1_556 S
C806 H862 0.930 . S
C807 N804 1.325 . S
C807 C805 1.335 1_554 S
C807 H863 0.939 . S
C808 N809 1.314 . S
C808 C813 1.353 . S
C808 H814 0.930 . S
N809 Li792 1.990 . S
N809 C808 1.314 . S
N809 C811 1.279 . S
C810 C811 1.358 . S
C810 C812 1.356 . S
C810 H864 0.930 . S
C811 N809 1.279 . S
C811 C810 1.358 . S
C811 H815 0.930 . S
C812 C810 1.356 . S
C812 C813 1.348 . S
C813 C808 1.353 . S
C813 C812 1.348 . S
C813 H865 0.929 . S
H814 C808 0.930 . S
H815 C811 0.930 . S
C816 N817 1.314 . S
C816 C818 1.353 1_556 S
C816 H822 0.930 . S
N817 Li793 1.990 . S
N817 C816 1.314 . S
N817 C820 1.279 1_556 S
C818 C816 1.353 1_554 S
C818 C821 1.348 . S
C818 H866 0.929 . S
C819 C820 1.358 . S
C819 C821 1.356 . S
C819 H867 0.930 . S
C820 N817 1.279 1_554 S
C820 C819 1.358 . S
C820 H823 0.930 . S
C821 C818 1.348 . S
C821 C819 1.356 . S
H822 C816 0.930 . S
H823 C820 0.930 . S
C824 C826 1.348 . S
C824 C827 1.356 . S
C824 O854 1.325 . S
N825 C828 1.314 . S
N825 C829 1.279 . S
C826 C824 1.348 . S
C826 C828 1.353 . S
C826 H868 0.929 . S
C827 C824 1.356 . S
C827 C829 1.358 . S
C827 H869 0.930 . S
C828 N825 1.314 . S
C828 C826 1.353 . S
C828 H870 0.930 . S
C829 N825 1.279 . S
C829 C827 1.358 . S
C829 H871 0.930 . S
C830 C831 1.348 . S
C830 C832 1.356 . S
C830 O855 1.325 . S
C831 C830 1.348 . S
C831 C833 1.353 . S
C831 H872 0.929 . S
C832 C830 1.356 . S
C832 C834 1.358 . S
C832 H873 0.930 . S
C833 C831 1.353 . S
C833 N835 1.314 . S
C833 H874 0.930 . S
C834 C832 1.358 . S
C834 N835 1.279 . S
C834 H875 0.930 . S
N835 C833 1.314 . S
N835 C834 1.279 . S
C836 C838 1.353 . S
C836 N839 1.314 . S
C836 H842 0.930 . S
C837 N839 1.279 . S
C837 C840 1.358 . S
C837 H843 0.930 . S
C838 C836 1.353 . S
C838 C841 1.348 . S
C838 H876 0.929 . S
N839 Li794 1.990 . S
N839 C836 1.314 . S
N839 C837 1.279 . S
C840 C837 1.358 . S
C840 C841 1.356 . S
C840 H877 0.930 . S
C841 C838 1.348 . S
C841 C840 1.356 . S
H842 C836 0.930 . S
H843 C837 0.930 . S
C844 N845 1.314 . S
C844 C846 1.353 . S
C844 H850 0.930 . S
N845 Li795 1.990 . S
N845 C844 1.314 . S
N845 C848 1.279 . S
C846 C844 1.353 . S
C846 C849 1.348 . S
C846 H878 0.929 . S
C847 C848 1.358 . S
C847 C849 1.356 . S
C847 H879 0.930 . S
C848 N845 1.279 . S
C848 C847 1.358 . S
C848 H851 0.930 . S
C849 C846 1.348 . S
C849 C847 1.356 . S
H850 C844 0.930 . S
H851 C848 0.930 . S
O852 Li792 1.956 . S
O852 Li793 1.970 . S
O852 Li794 1.961 . S
O852 C796 1.325 . S
O853 Li792 1.970 . S
O853 Li793 1.956 . S
O853 Li795 1.961 . S
O853 C802 1.325 . S
O854 Li792 1.961 . S
O854 Li794 1.956 . S
O854 Li795 1.970 . S
O854 C824 1.325 . S
O855 Li793 1.961 . S
O855 Li794 1.970 . S
O855 Li795 1.956 . S
O855 C830 1.325 . S
H856 C798 0.929 . S
H857 C799 0.930 . S
H858 C800 0.930 . S
H859 C801 0.930 . S
H860 C803 0.943 . S
H861 C805 0.929 . S
H862 C806 0.930 . S
H863 C807 0.939 . S
H864 C810 0.930 . S
H865 C813 0.929 . S
H866 C818 0.929 . S
H867 C819 0.930 . S
H868 C826 0.929 . S
H869 C827 0.930 . S
H870 C828 0.930 . S
H871 C829 0.930 . S
H872 C831 0.929 . S
H873 C832 0.930 . S
H874 C833 0.930 . S
H875 C834 0.930 . S
H876 C838 0.929 . S
H877 C840 0.930 . S
H878 C846 0.929 . S
H879 C847 0.930 . S
Li880 N897 1.990 . S
Li880 O940 1.956 . S
Li880 O941 1.970 . S
Li880 O942 1.961 . S
Li881 N905 1.990 . S
Li881 O940 1.970 . S
Li881 O941 1.956 . S
Li881 O943 1.961 . S
Li882 N927 1.985 1_554 S
Li882 O940 1.961 . S
Li882 O942 1.956 . S
Li882 O943 1.970 . S
Li883 N933 1.990 . S
Li883 O941 1.961 . S
Li883 O942 1.970 . S
Li883 O943 1.956 . S
C884 C886 1.348 . S
C884 C887 1.356 . S
C884 O940 1.325 . S
N885 C888 1.314 . S
N885 C889 1.279 . S
C886 C884 1.348 . S
C886 C888 1.353 . S
C886 H944 0.929 . S
C887 C884 1.356 . S
C887 C889 1.358 . S
C887 H945 0.930 . S
C888 N885 1.314 . S
C888 C886 1.353 . S
C888 H946 0.930 . S
C889 N885 1.279 . S
C889 C887 1.358 . S
C889 H947 0.930 . S
C890 C893 1.348 . S
C890 C894 1.356 . S
C890 O941 1.325 . S
C891 N892 1.279 . S
C891 C894 1.358 . S
C891 H948 0.930 . S
N892 C891 1.279 . S
N892 C895 1.314 . S
C893 C890 1.348 . S
C893 C895 1.353 . S
C893 H949 0.929 . S
C894 C890 1.356 . S
C894 C891 1.358 . S
C894 H950 0.930 . S
C895 N892 1.314 . S
C895 C893 1.353 . S
C895 H951 0.930 . S
C896 N897 1.314 . S
C896 C901 1.353 . S
C896 H902 0.930 . S
N897 Li880 1.990 . S
N897 C896 1.314 . S
N897 C899 1.279 . S
C898 C899 1.358 . S
C898 C900 1.356 . S
C898 H952 0.930 . S
C899 N897 1.279 . S
C899 C898 1.358 . S
C899 H903 0.930 . S
C900 C898 1.356 . S
C900 C901 1.348 . S
C901 C896 1.353 . S
C901 C900 1.348 . S
C901 H953 0.929 . S
H902 C896 0.930 . S
H903 C899 0.930 . S
C904 N905 1.314 . S
C904 C906 1.353 . S
C904 H910 0.930 . S
N905 Li881 1.990 . S
N905 C904 1.314 . S
N905 C908 1.279 . S
C906 C904 1.353 . S
C906 C909 1.348 . S
C906 H954 0.929 . S
C907 C908 1.358 . S
C907 C909 1.356 . S
C907 H955 0.930 . S
C908 N905 1.279 . S
C908 C907 1.358 . S
C908 H911 0.930 . S
C909 C906 1.348 . S
C909 C907 1.356 . S
H910 C904 0.930 . S
H911 C908 0.930 . S
C912 C914 1.348 1_554 S
C912 C915 1.356 1_554 S
C912 O942 1.325 . S
N913 C916 1.314 . S
N913 C917 1.279 . S
C914 C912 1.348 1_556 S
C914 C916 1.353 . S
C914 H956 0.929 . S
C915 C912 1.356 1_556 S
C915 C917 1.358 . S
C915 H957 0.930 . S
C916 N913 1.314 . S
C916 C914 1.353 . S
C916 H958 0.930 . S
C917 N913 1.279 . S
C917 C915 1.358 . S
C917 H959 0.930 . S
C918 C919 1.348 . S
C918 C920 1.356 . S
C918 O943 1.325 . S
C919 C918 1.348 . S
C919 C921 1.353 . S
C919 H960 0.929 . S
C920 C918 1.356 . S
C920 C922 1.358 . S
C920 H961 0.930 . S
C921 C919 1.353 . S
C921 N923 1.314 . S
C921 H962 0.930 . S
C922 C920 1.358 . S
C922 N923 1.279 . S
C922 H963 0.930 . S
N923 C921 1.314 . S
N923 C922 1.279 . S
C924 C926 1.353 1_554 S
C924 N927 1.313 1_554 S
C924 H930 0.930 . S
C925 N927 1.286 . S
C925 C928 1.358 . S
C925 H931 0.930 . S
C926 C924 1.353 1_556 S
C926 C929 1.348 . S
C926 H964 0.929 . S
N927 Li882 1.985 1_556 S
N927 C924 1.313 1_556 S
N927 C925 1.286 . S
C928 C925 1.358 . S
C928 C929 1.356 . S
C928 H965 0.930 . S
C929 C926 1.348 . S
C929 C928 1.356 . S
H930 C924 0.930 . S
H931 C925 0.930 . S
C932 N933 1.314 . S
C932 C934 1.353 . S
C932 H938 0.930 . S
N933 Li883 1.990 . S
N933 C932 1.314 . S
N933 C936 1.279 . S
C934 C932 1.353 . S
C934 C937 1.348 . S
C934 H966 0.929 . S
C935 C936 1.358 . S
C935 C937 1.356 . S
C935 H967 0.930 . S
C936 N933 1.279 . S
C936 C935 1.358 . S
C936 H939 0.930 . S
C937 C934 1.348 . S
C937 C935 1.356 . S
H938 C932 0.930 . S
H939 C936 0.930 . S
O940 Li880 1.956 . S
O940 Li881 1.970 . S
O940 Li882 1.961 . S
O940 C884 1.325 . S
O941 Li880 1.970 . S
O941 Li881 1.956 . S
O941 Li883 1.961 . S
O941 C890 1.325 . S
O942 Li880 1.961 . S
O942 Li882 1.956 . S
O942 Li883 1.970 . S
O942 C912 1.325 . S
O943 Li881 1.961 . S
O943 Li882 1.970 . S
O943 Li883 1.956 . S
O943 C918 1.325 . S
H944 C886 0.929 . S
H945 C887 0.930 . S
H946 C888 0.930 . S
H947 C889 0.930 . S
H948 C891 0.930 . S
H949 C893 0.929 . S
H950 C894 0.930 . S
H951 C895 0.930 . S
H952 C898 0.930 . S
H953 C901 0.929 . S
H954 C906 0.929 . S
H955 C907 0.930 . S
H956 C914 0.929 . S
H957 C915 0.930 . S
H958 C916 0.930 . S
H959 C917 0.930 . S
H960 C919 0.929 . S
H961 C920 0.930 . S
H962 C921 0.930 . S
H963 C922 0.930 . S
H964 C926 0.929 . S
H965 C928 0.930 . S
H966 C934 0.929 . S
H967 C935 0.930 . S
Li968 N985 1.990 . S
Li968 O1028 1.956 . S
Li968 O1029 1.970 . S
Li968 O1030 1.961 . S
Li969 N993 1.990 . S
Li969 O1028 1.970 . S
Li969 O1029 1.956 . S
Li969 O1031 1.961 . S
Li970 N1015 1.990 . S
Li970 O1028 1.961 . S
Li970 O1030 1.956 . S
Li970 O1031 1.970 . S
Li971 N1021 1.990 . S
Li971 O1029 1.961 . S
Li971 O1030 1.970 . S
Li971 O1031 1.956 . S
C972 C974 1.348 . S
C972 C975 1.356 . S
C972 O1028 1.325 . S
N973 C976 1.314 . S
N973 C977 1.279 . S
C974 C972 1.348 . S
C974 C976 1.353 . S
C974 H1032 0.929 . S
C975 C972 1.356 . S
C975 C977 1.358 . S
C975 H1033 0.930 . S
C976 N973 1.314 . S
C976 C974 1.353 . S
C976 H1034 0.930 . S
C977 N973 1.279 . S
C977 C975 1.358 . S
C977 H1035 0.930 . S
C978 C981 1.348 . S
C978 C982 1.356 . S
C978 O1029 1.325 . S
C979 N980 1.279 . S
C979 C982 1.358 . S
C979 H1036 0.930 . S
N980 C979 1.279 . S
N980 C983 1.314 . S
C981 C978 1.348 . S
C981 C983 1.353 . S
C981 H1037 0.929 . S
C982 C978 1.356 . S
C982 C979 1.358 . S
C982 H1038 0.930 . S
C983 N980 1.314 . S
C983 C981 1.353 . S
C983 H1039 0.930 . S
C984 N985 1.314 . S
C984 C989 1.353 . S
C984 H990 0.930 . S
N985 Li968 1.990 . S
N985 C984 1.314 . S
N985 C987 1.279 . S
C986 C987 1.358 . S
C986 C988 1.356 . S
C986 H1040 0.930 . S
C987 N985 1.279 . S
C987 C986 1.358 . S
C987 H991 0.930 . S
C988 C986 1.356 . S
C988 C989 1.348 . S
C989 C984 1.353 . S
C989 C988 1.348 . S
C989 H1041 0.929 . S
H990 C984 0.930 . S
H991 C987 0.930 . S
C992 N993 1.314 . S
C992 C994 1.353 . S
C992 H998 0.930 . S
N993 Li969 1.990 . S
N993 C992 1.314 . S
N993 C996 1.279 . S
C994 C992 1.353 . S
C994 C997 1.348 . S
C994 H1042 0.929 . S
C995 C996 1.358 . S
C995 C997 1.356 . S
C995 H1043 0.930 . S
C996 N993 1.279 . S
C996 C995 1.358 . S
C996 H999 0.930 . S
C997 C994 1.348 . S
C997 C995 1.356 . S
H998 C992 0.930 . S
H999 C996 0.930 . S
C1000 C1002 1.348 . S
C1000 C1003 1.356 . S
C1000 O1030 1.325 . S
N1001 C1004 1.314 . S
N1001 C1005 1.279 . S
C1002 C1000 1.348 . S
C1002 C1004 1.353 . S
C1002 H1044 0.929 . S
C1003 C1000 1.356 . S
C1003 C1005 1.358 . S
C1003 H1045 0.930 . S
C1004 N1001 1.314 . S
C1004 C1002 1.353 . S
C1004 H1046 0.930 . S
C1005 N1001 1.279 . S
C1005 C1003 1.358 . S
C1005 H1047 0.930 . S
C1006 C1007 1.348 . S
C1006 C1008 1.356 . S
C1006 O1031 1.325 . S
C1007 C1006 1.348 . S
C1007 C1009 1.353 . S
C1007 H1048 0.929 . S
C1008 C1006 1.356 . S
C1008 C1010 1.358 . S
C1008 H1049 0.930 . S
C1009 C1007 1.353 . S
C1009 N1011 1.314 . S
C1009 H1050 0.930 . S
C1010 C1008 1.358 . S
C1010 N1011 1.279 . S
C1010 H1051 0.930 . S
N1011 C1009 1.314 . S
N1011 C1010 1.279 . S
C1012 C1014 1.353 . S
C1012 N1015 1.314 . S
C1012 H1018 0.930 . S
C1013 N1015 1.279 . S
C1013 C1016 1.358 . S
C1013 H1019 0.930 . S
C1014 C1012 1.353 . S
C1014 C1017 1.348 . S
C1014 H1052 0.929 . S
N1015 Li970 1.990 . S
N1015 C1012 1.314 . S
N1015 C1013 1.279 . S
C1016 C1013 1.358 . S
C1016 C1017 1.356 . S
C1016 H1053 0.930 . S
C1017 C1014 1.348 . S
C1017 C1016 1.356 . S
H1018 C1012 0.930 . S
H1019 C1013 0.930 . S
C1020 N1021 1.314 . S
C1020 C1022 1.353 . S
C1020 H1026 0.930 . S
N1021 Li971 1.990 . S
N1021 C1020 1.314 . S
N1021 C1024 1.279 . S
C1022 C1020 1.353 . S
C1022 C1025 1.348 . S
C1022 H1054 0.929 . S
C1023 C1024 1.358 . S
C1023 C1025 1.356 . S
C1023 H1055 0.930 . S
C1024 N1021 1.279 . S
C1024 C1023 1.358 . S
C1024 H1027 0.930 . S
C1025 C1022 1.348 . S
C1025 C1023 1.356 . S
H1026 C1020 0.930 . S
H1027 C1024 0.930 . S
O1028 Li968 1.956 . S
O1028 Li969 1.970 . S
O1028 Li970 1.961 . S
O1028 C972 1.325 . S
O1029 Li968 1.970 . S
O1029 Li969 1.956 . S
O1029 Li971 1.961 . S
O1029 C978 1.325 . S
O1030 Li968 1.961 . S
O1030 Li970 1.956 . S
O1030 Li971 1.970 . S
O1030 C1000 1.325 . S
O1031 Li969 1.961 . S
O1031 Li970 1.970 . S
O1031 Li971 1.956 . S
O1031 C1006 1.325 . S
H1032 C974 0.929 . S
H1033 C975 0.930 . S
H1034 C976 0.930 . S
H1035 C977 0.930 . S
H1036 C979 0.930 . S
H1037 C981 0.929 . S
H1038 C982 0.930 . S
H1039 C983 0.930 . S
H1040 C986 0.930 . S
H1041 C989 0.929 . S
H1042 C994 0.929 . S
H1043 C995 0.930 . S
H1044 C1002 0.929 . S
H1045 C1003 0.930 . S
H1046 C1004 0.930 . S
H1047 C1005 0.930 . S
H1048 C1007 0.929 . S
H1049 C1008 0.930 . S
H1050 C1009 0.930 . S
H1051 C1010 0.930 . S
H1052 C1014 0.929 . S
H1053 C1016 0.930 . S
H1054 C1022 0.929 . S
H1055 C1023 0.930 . S
H1056 C1064 0.929 . S
H1057 C1066 0.930 . S
H1058 C1068 0.930 . S
H1059 C1071 0.929 . S
H1060 C1074 0.930 . S
H1061 C1076 0.960 . S
H1062 C1076 0.960 . S
H1063 C1076 0.960 . S
C1064 H1056 0.929 . S
C1064 C1065 1.377 . S
C1064 C1066 1.384 . S
C1065 C1064 1.377 . S
C1065 C1071 1.390 . S
C1066 H1057 0.930 . S
C1066 C1064 1.384 . S
C1066 C1067 1.372 . S
C1067 C1066 1.372 . S
C1067 C1068 1.400 . S
C1067 C1072 1.490 . S
C1068 H1058 0.930 . S
C1068 C1067 1.400 . S
C1068 C1071 1.386 . S
H1069 C1085 0.930 . S
H1070 C1086 0.931 . S
C1071 H1059 0.929 . S
C1071 C1065 1.390 . S
C1071 C1068 1.386 . S
C1072 C1067 1.490 . S
C1072 C1074 1.395 . S
C1072 C1075 1.403 . S
H1073 C1079 0.930 . S
C1074 H1060 0.930 . S
C1074 C1072 1.395 . S
C1074 C1077 1.403 . S
C1075 C1072 1.403 . S
C1075 C1076 1.524 . S
C1075 C1079 1.400 . S
C1076 H1061 0.960 . S
C1076 H1062 0.960 . S
C1076 H1063 0.960 . S
C1076 C1075 1.524 . S
C1077 C1074 1.403 . S
C1077 C1078 1.392 . S
C1077 C1081 1.495 . S
C1078 C1077 1.392 . S
C1078 C1079 1.385 . S
C1078 C1080 1.478 . S
C1079 H1073 0.930 . S
C1079 C1075 1.400 . S
C1079 C1078 1.385 . S
C1080 C1078 1.478 . S
C1080 C1082 1.381 . S
C1080 C1086 1.383 . S
C1081 C1077 1.495 . S
C1081 H1087 0.959 . S
C1081 H1088 0.961 . S
C1081 H1089 0.960 . S
C1082 C1080 1.381 . S
C1082 C1083 1.394 . S
C1082 H1090 0.930 . S
C1083 C1082 1.394 . S
C1083 C1084 1.383 . S
C1083 H1091 0.929 . S
C1084 C1083 1.383 . S
C1084 C1085 1.377 . S
C1085 H1069 0.930 . S
C1085 C1084 1.377 . S
C1085 C1086 1.379 . S
C1086 H1070 0.931 . S
C1086 C1080 1.383 . S
C1086 C1085 1.379 . S
H1087 C1081 0.959 . S
H1088 C1081 0.961 . S
H1089 C1081 0.960 . S
H1090 C1082 0.930 . S
H1091 C1083 0.929 . S
H1092 C1100 0.929 . S
H1093 C1102 0.930 . S
H1094 C1104 0.930 . S
H1095 C1107 0.929 . S
H1096 C1110 0.920 . S
H1097 C1112 0.960 . S
H1098 C1112 0.960 . S
H1099 C1112 0.960 . S
C1100 H1092 0.929 . S
C1100 C1101 1.377 . S
C1100 C1102 1.384 . S
C1101 C1100 1.377 . S
C1101 C1107 1.390 . S
C1102 H1093 0.930 . S
C1102 C1100 1.384 . S
C1102 C1103 1.372 . S
C1103 C1102 1.372 . S
C1103 C1104 1.400 . S
C1103 C1108 1.490 . S
C1104 H1094 0.930 . S
C1104 C1103 1.400 . S
C1104 C1107 1.386 . S
H1105 C1121 0.930 . S
H1106 C1122 0.931 . S
C1107 H1095 0.929 . S
C1107 C1101 1.390 . S
C1107 C1104 1.386 . S
C1108 C1103 1.490 . S
C1108 C1110 1.438 . S
C1108 C1111 1.403 . S
H1109 C1115 0.930 . S
C1110 H1096 0.920 . S
C1110 C1108 1.438 . S
C1110 C1113 1.371 1_455 S
C1111 C1108 1.403 . S
C1111 C1112 1.524 . S
C1111 C1115 1.400 1_455 S
C1112 H1097 0.960 . S
C1112 H1098 0.960 . S
C1112 H1099 0.960 . S
C1112 C1111 1.524 . S
C1113 C1110 1.371 1_655 S
C1113 C1114 1.392 . S
C1113 C1117 1.495 . S
C1114 C1113 1.392 . S
C1114 C1115 1.385 . S
C1114 C1116 1.478 . S
C1115 H1109 0.930 . S
C1115 C1111 1.400 1_655 S
C1115 C1114 1.385 . S
C1116 C1114 1.478 . S
C1116 C1118 1.381 . S
C1116 C1122 1.383 . S
C1117 C1113 1.495 . S
C1117 H1123 0.959 . S
C1117 H1124 0.961 . S
C1117 H1125 0.960 . S
C1118 C1116 1.381 . S
C1118 C1119 1.394 . S
C1118 H1126 0.930 . S
C1119 C1118 1.394 . S
C1119 C1120 1.383 . S
C1119 H1127 0.929 . S
C1120 C1119 1.383 . S
C1120 C1121 1.377 . S
C1121 H1105 0.930 . S
C1121 C1120 1.377 . S
C1121 C1122 1.379 . S
C1122 H1106 0.931 . S
C1122 C1116 1.383 . S
C1122 C1121 1.379 . S
H1123 C1117 0.959 . S
H1124 C1117 0.961 . S
H1125 C1117 0.960 . S
H1126 C1118 0.930 . S
H1127 C1119 0.929 . S
H1128 C1136 0.929 . S
H1129 C1138 0.930 . S
H1130 C1140 0.930 . S
H1131 C1143 0.929 . S
H1132 C1146 0.930 . S
H1133 C1148 0.960 . S
H1134 C1148 0.960 . S
H1135 C1148 0.960 . S
C1136 H1128 0.929 . S
C1136 C1137 1.377 . S
C1136 C1138 1.384 . S
C1137 C1136 1.377 . S
C1137 C1143 1.390 . S
C1138 H1129 0.930 . S
C1138 C1136 1.384 . S
C1138 C1139 1.372 . S
C1139 C1138 1.372 . S
C1139 C1140 1.400 . S
C1139 C1144 1.490 . S
C1140 H1130 0.930 . S
C1140 C1139 1.400 . S
C1140 C1143 1.386 . S
H1141 C1157 0.930 . S
H1142 C1158 0.931 . S
C1143 H1131 0.929 . S
C1143 C1137 1.390 . S
C1143 C1140 1.386 . S
C1144 C1139 1.490 . S
C1144 C1146 1.395 1_565 S
C1144 C1147 1.403 . S
H1145 C1151 0.930 . S
C1146 H1132 0.930 . S
C1146 C1144 1.395 1_545 S
C1146 C1149 1.403 . S
C1147 C1144 1.403 . S
C1147 C1148 1.524 . S
C1147 C1151 1.420 . S
C1148 H1133 0.960 . S
C1148 H1134 0.960 . S
C1148 H1135 0.960 . S
C1148 C1147 1.524 . S
C1149 C1146 1.403 . S
C1149 C1150 1.392 . S
C1149 C1153 1.495 . S
C1150 C1149 1.392 . S
C1150 C1151 1.367 1_545 S
C1150 C1152 1.478 . S
C1151 H1145 0.930 . S
C1151 C1147 1.420 . S
C1151 C1150 1.367 1_565 S
C1152 C1150 1.478 . S
C1152 C1154 1.381 . S
C1152 C1158 1.383 . S
C1153 C1149 1.495 . S
C1153 H1159 0.959 . S
C1153 H1160 0.961 . S
C1153 H1161 0.960 . S
C1154 C1152 1.381 . S
C1154 C1155 1.394 . S
C1154 H1162 0.930 . S
C1155 C1154 1.394 . S
C1155 C1156 1.383 . S
C1155 H1163 0.929 . S
C1156 C1155 1.383 . S
C1156 C1157 1.377 . S
C1157 H1141 0.930 . S
C1157 C1156 1.377 . S
C1157 C1158 1.379 . S
C1158 H1142 0.931 . S
C1158 C1152 1.383 . S
C1158 C1157 1.379 . S
H1159 C1153 0.959 . S
H1160 C1153 0.961 . S
H1161 C1153 0.960 . S
H1162 C1154 0.930 . S
H1163 C1155 0.929 . S
H1164 C1172 0.929 . S
H1165 C1174 0.930 . S
H1166 C1176 0.930 . S
H1167 C1179 0.929 . S
H1168 C1182 0.930 . S
H1169 C1184 0.960 . S
H1170 C1184 0.960 . S
H1171 C1184 0.960 . S
C1172 H1164 0.929 . S
C1172 C1173 1.377 . S
C1172 C1174 1.384 . S
C1173 C1172 1.377 . S
C1173 C1179 1.390 . S
C1174 H1165 0.930 . S
C1174 C1172 1.384 . S
C1174 C1175 1.372 . S
C1175 C1174 1.372 . S
C1175 C1176 1.400 . S
C1175 C1180 1.490 . S
C1176 H1166 0.930 . S
C1176 C1175 1.400 . S
C1176 C1179 1.386 . S
H1177 C1193 0.930 . S
H1178 C1194 0.931 . S
C1179 H1167 0.929 . S
C1179 C1173 1.390 . S
C1179 C1176 1.386 . S
C1180 C1175 1.490 . S
C1180 C1182 1.395 . S
C1180 C1183 1.403 . S
H1181 C1187 0.930 . S
C1182 H1168 0.930 . S
C1182 C1180 1.395 . S
C1182 C1185 1.403 . S
C1183 C1180 1.403 . S
C1183 C1184 1.524 . S
C1183 C1187 1.400 . S
C1184 H1169 0.960 . S
C1184 H1170 0.960 . S
C1184 H1171 0.960 . S
C1184 C1183 1.524 . S
C1185 C1182 1.403 . S
C1185 C1186 1.392 . S
C1185 C1189 1.495 . S
C1186 C1185 1.392 . S
C1186 C1187 1.385 . S
C1186 C1188 1.478 . S
C1187 H1181 0.930 . S
C1187 C1183 1.400 . S
C1187 C1186 1.385 . S
C1188 C1186 1.478 . S
C1188 C1190 1.381 . S
C1188 C1194 1.383 . S
C1189 C1185 1.495 . S
C1189 H1195 0.959 . S
C1189 H1196 0.961 . S
C1189 H1197 0.960 . S
C1190 C1188 1.381 . S
C1190 C1191 1.394 . S
C1190 H1198 0.930 . S
C1191 C1190 1.394 . S
C1191 C1192 1.383 . S
C1191 H1199 0.929 . S
C1192 C1191 1.383 . S
C1192 C1193 1.377 . S
C1193 H1177 0.930 . S
C1193 C1192 1.377 . S
C1193 C1194 1.379 . S
C1194 H1178 0.931 . S
C1194 C1188 1.383 . S
C1194 C1193 1.379 . S
H1195 C1189 0.959 . S
H1196 C1189 0.961 . S
H1197 C1189 0.960 . S
H1198 C1190 0.930 . S
H1199 C1191 0.929 . S
H1200 C1208 0.929 . S
H1201 C1210 0.930 . S
H1202 C1212 0.930 . S
H1203 C1215 0.929 . S
H1204 C1218 0.930 . S
H1205 C1220 0.960 . S
H1206 C1220 0.960 . S
H1207 C1220 0.956 1_455 S
C1208 H1200 0.929 . S
C1208 C1209 1.377 . S
C1208 C1210 1.384 . S
C1209 C1208 1.377 . S
C1209 C1215 1.390 . S
C1210 H1201 0.930 . S
C1210 C1208 1.384 . S
C1210 C1211 1.372 . S
C1211 C1210 1.372 . S
C1211 C1212 1.400 . S
C1211 C1216 1.490 . S
C1212 H1202 0.930 . S
C1212 C1211 1.400 . S
C1212 C1215 1.386 . S
H1213 C1229 0.930 . S
H1214 C1230 0.931 . S
C1215 H1203 0.929 . S
C1215 C1209 1.390 . S
C1215 C1212 1.386 . S
C1216 C1211 1.490 . S
C1216 C1218 1.395 . S
C1216 C1219 1.403 1_455 S
H1217 C1223 0.930 . S
C1218 H1204 0.930 . S
C1218 C1216 1.395 . S
C1218 C1221 1.403 . S
C1219 C1216 1.403 1_655 S
C1219 C1220 1.524 . S
C1219 C1223 1.400 . S
C1220 H1205 0.960 . S
C1220 H1206 0.960 . S
C1220 H1207 0.956 1_655 S
C1220 C1219 1.524 . S
C1221 C1218 1.403 . S
C1221 C1222 1.392 1_455 S
C1221 C1225 1.495 . S
C1222 C1221 1.392 1_655 S
C1222 C1223 1.385 . S
C1222 C1224 1.478 . S
C1223 H1217 0.930 . S
C1223 C1219 1.400 . S
C1223 C1222 1.385 . S
C1224 C1222 1.478 . S
C1224 C1226 1.381 . S
C1224 C1230 1.383 . S
C1225 C1221 1.495 . S
C1225 H1231 0.959 . S
C1225 H1232 0.961 . S
C1225 H1233 0.965 . S
C1226 C1224 1.381 . S
C1226 C1227 1.394 . S
C1226 H1234 0.930 . S
C1227 C1226 1.394 . S
C1227 C1228 1.383 . S
C1227 H1235 0.929 . S
C1228 C1227 1.383 . S
C1228 C1229 1.377 . S
C1229 H1213 0.930 . S
C1229 C1228 1.377 . S
C1229 C1230 1.379 . S
C1230 H1214 0.931 . S
C1230 C1224 1.383 . S
C1230 C1229 1.379 . S
H1231 C1225 0.959 . S
H1232 C1225 0.961 . S
H1233 C1225 0.965 . S
H1234 C1226 0.930 . S
H1235 C1227 0.929 . S
H1236 C1244 0.929 . S
H1237 C1246 0.930 . S
H1238 C1248 0.930 . S
H1239 C1251 0.929 . S
H1240 C1254 0.930 . S
H1241 C1256 0.960 . S
H1242 C1256 0.960 . S
H1243 C1256 0.960 1_556 S
C1244 H1236 0.929 . S
C1244 C1245 1.377 . S
C1244 C1246 1.384 . S
C1245 C1244 1.377 . S
C1245 C1251 1.390 . S
C1246 H1237 0.930 . S
C1246 C1244 1.384 . S
C1246 C1247 1.372 . S
C1247 C1246 1.372 . S
C1247 C1248 1.400 . S
C1247 C1252 1.490 . S
C1248 H1238 0.930 . S
C1248 C1247 1.400 . S
C1248 C1251 1.386 . S
H1249 C1265 0.930 . S
H1250 C1266 0.931 . S
C1251 H1239 0.929 . S
C1251 C1245 1.390 . S
C1251 C1248 1.386 . S
C1252 C1247 1.490 . S
C1252 C1254 1.395 . S
C1252 C1255 1.407 . S
H1253 C1259 0.930 . S
C1254 H1240 0.930 . S
C1254 C1252 1.395 . S
C1254 C1257 1.393 1_546 S
C1255 C1252 1.407 . S
C1255 C1256 1.523 1_556 S
C1255 C1259 1.395 1_546 S
C1256 H1241 0.960 . S
C1256 H1242 0.960 . S
C1256 H1243 0.960 1_554 S
C1256 C1255 1.523 1_554 S
C1257 C1254 1.393 1_564 S
C1257 C1258 1.403 . S
C1257 C1261 1.495 1_554 S
C1258 C1257 1.403 . S
C1258 C1259 1.385 . S
C1258 C1260 1.478 . S
C1259 H1253 0.930 . S
C1259 C1255 1.395 1_564 S
C1259 C1258 1.385 . S
C1260 C1258 1.478 . S
C1260 C1262 1.381 . S
C1260 C1266 1.383 . S
C1261 C1257 1.495 1_556 S
C1261 H1267 0.961 . S
C1261 H1268 0.962 . S
C1261 H1269 0.957 1_556 S
C1262 C1260 1.381 . S
C1262 C1263 1.394 . S
C1262 H1270 0.930 . S
C1263 C1262 1.394 . S
C1263 C1264 1.383 . S
C1263 H1271 0.929 . S
C1264 C1263 1.383 . S
C1264 C1265 1.377 . S
C1265 H1249 0.930 . S
C1265 C1264 1.377 . S
C1265 C1266 1.379 . S
C1266 H1250 0.931 . S
C1266 C1260 1.383 . S
C1266 C1265 1.379 . S
H1267 C1261 0.961 . S
H1268 C1261 0.962 . S
H1269 C1261 0.957 1_554 S
H1270 C1262 0.930 . S
H1271 C1263 0.929 . S
H1272 C1280 0.929 . S
H1273 C1282 0.930 . S
H1274 C1284 0.930 . S
H1275 C1287 0.929 . S
H1276 C1290 0.930 . S
H1277 C1292 0.960 . S
H1278 C1292 0.960 . S
H1279 C1292 0.960 . S
C1280 H1272 0.929 . S
C1280 C1281 1.377 . S
C1280 C1282 1.384 . S
C1281 C1280 1.377 . S
C1281 C1287 1.390 . S
C1282 H1273 0.930 . S
C1282 C1280 1.384 . S
C1282 C1283 1.372 . S
C1283 C1282 1.372 . S
C1283 C1284 1.400 . S
C1283 C1288 1.490 . S
C1284 H1274 0.930 . S
C1284 C1283 1.400 . S
C1284 C1287 1.386 . S
H1285 C1301 0.930 . S
H1286 C1302 0.931 . S
C1287 H1275 0.929 . S
C1287 C1281 1.390 . S
C1287 C1284 1.386 . S
C1288 C1283 1.490 . S
C1288 C1290 1.395 . S
C1288 C1291 1.403 . S
H1289 C1295 0.930 . S
C1290 H1276 0.930 . S
C1290 C1288 1.395 . S
C1290 C1293 1.403 . S
C1291 C1288 1.403 . S
C1291 C1292 1.524 . S
C1291 C1295 1.400 . S
C1292 H1277 0.960 . S
C1292 H1278 0.960 . S
C1292 H1279 0.960 . S
C1292 C1291 1.524 . S
C1293 C1290 1.403 . S
C1293 C1294 1.392 . S
C1293 C1297 1.495 . S
C1294 C1293 1.392 . S
C1294 C1295 1.385 . S
C1294 C1296 1.478 . S
C1295 H1289 0.930 . S
C1295 C1291 1.400 . S
C1295 C1294 1.385 . S
C1296 C1294 1.478 . S
C1296 C1298 1.381 . S
C1296 C1302 1.383 . S
C1297 C1293 1.495 . S
C1297 H1303 0.959 . S
C1297 H1304 0.961 . S
C1297 H1305 0.960 . S
C1298 C1296 1.381 . S
C1298 C1299 1.394 . S
C1298 H1306 0.930 . S
C1299 C1298 1.394 . S
C1299 C1300 1.383 . S
C1299 H1307 0.929 . S
C1300 C1299 1.383 . S
C1300 C1301 1.377 . S
C1301 H1285 0.930 . S
C1301 C1300 1.377 . S
C1301 C1302 1.379 . S
C1302 H1286 0.931 . S
C1302 C1296 1.383 . S
C1302 C1301 1.379 . S
H1303 C1297 0.959 . S
H1304 C1297 0.961 . S
H1305 C1297 0.960 . S
H1306 C1298 0.930 . S
H1307 C1299 0.929 . S
H1308 C1316 0.929 . S
H1309 C1318 0.930 . S
H1310 C1320 0.930 . S
H1311 C1323 0.929 . S
H1312 C1326 0.930 . S
H1313 C1328 0.960 . S
H1314 C1328 0.960 . S
H1315 C1328 0.960 . S
C1316 H1308 0.929 . S
C1316 C1317 1.377 . S
C1316 C1318 1.384 . S
C1317 C1316 1.377 . S
C1317 C1323 1.390 . S
C1318 H1309 0.930 . S
C1318 C1316 1.384 . S
C1318 C1319 1.372 . S
C1319 C1318 1.372 . S
C1319 C1320 1.400 . S
C1319 C1324 1.490 . S
C1320 H1310 0.930 . S
C1320 C1319 1.400 . S
C1320 C1323 1.386 . S
H1321 C1337 0.930 . S
H1322 C1338 0.931 . S
C1323 H1311 0.929 . S
C1323 C1317 1.390 . S
C1323 C1320 1.386 . S
C1324 C1319 1.490 . S
C1324 C1326 1.395 . S
C1324 C1327 1.403 . S
H1325 C1331 0.930 . S
C1326 H1312 0.930 . S
C1326 C1324 1.395 . S
C1326 C1329 1.403 . S
C1327 C1324 1.403 . S
C1327 C1328 1.524 . S
C1327 C1331 1.400 . S
C1328 H1313 0.960 . S
C1328 H1314 0.960 . S
C1328 H1315 0.960 . S
C1328 C1327 1.524 . S
C1329 C1326 1.403 . S
C1329 C1330 1.392 . S
C1329 C1333 1.495 . S
C1330 C1329 1.392 . S
C1330 C1331 1.385 . S
C1330 C1332 1.478 . S
C1331 H1325 0.930 . S
C1331 C1327 1.400 . S
C1331 C1330 1.385 . S
C1332 C1330 1.478 . S
C1332 C1334 1.381 . S
C1332 C1338 1.383 . S
C1333 C1329 1.495 . S
C1333 H1339 0.959 . S
C1333 H1340 0.961 . S
C1333 H1341 0.960 . S
C1334 C1332 1.381 . S
C1334 C1335 1.394 . S
C1334 H1342 0.930 . S
C1335 C1334 1.394 . S
C1335 C1336 1.383 . S
C1335 H1343 0.929 . S
C1336 C1335 1.383 . S
C1336 C1337 1.377 . S
C1337 H1321 0.930 . S
C1337 C1336 1.377 . S
C1337 C1338 1.379 . S
C1338 H1322 0.931 . S
C1338 C1332 1.383 . S
C1338 C1337 1.379 . S
H1339 C1333 0.959 . S
H1340 C1333 0.961 . S
H1341 C1333 0.960 . S
H1342 C1334 0.930 . S
H1343 C1335 0.929 . S
H1344 C1352 0.929 . S
H1345 C1354 0.930 . S
H1346 C1356 0.930 . S
H1347 C1359 0.929 . S
H1348 C1362 0.930 . S
H1349 C1364 0.960 . S
H1350 C1364 0.960 . S
H1351 C1364 0.960 . S
C1352 H1344 0.929 . S
C1352 C1353 1.377 . S
C1352 C1354 1.384 . S
C1353 C1352 1.377 . S
C1353 C1359 1.390 . S
C1354 H1345 0.930 . S
C1354 C1352 1.384 . S
C1354 C1355 1.372 . S
C1355 C1354 1.372 . S
C1355 C1356 1.400 . S
C1355 C1360 1.490 . S
C1356 H1346 0.930 . S
C1356 C1355 1.400 . S
C1356 C1359 1.386 . S
H1357 C1373 0.930 . S
H1358 C1374 0.931 . S
C1359 H1347 0.929 . S
C1359 C1353 1.390 . S
C1359 C1356 1.386 . S
C1360 C1355 1.490 . S
C1360 C1362 1.395 . S
C1360 C1363 1.403 . S
H1361 C1367 0.930 . S
C1362 H1348 0.930 . S
C1362 C1360 1.395 . S
C1362 C1365 1.403 . S
C1363 C1360 1.403 . S
C1363 C1364 1.524 . S
C1363 C1367 1.400 . S
C1364 H1349 0.960 . S
C1364 H1350 0.960 . S
C1364 H1351 0.960 . S
C1364 C1363 1.524 . S
C1365 C1362 1.403 . S
C1365 C1366 1.392 . S
C1365 C1369 1.495 . S
C1366 C1365 1.392 . S
C1366 C1367 1.385 . S
C1366 C1368 1.478 . S
C1367 H1361 0.930 . S
C1367 C1363 1.400 . S
C1367 C1366 1.385 . S
C1368 C1366 1.478 . S
C1368 C1370 1.381 . S
C1368 C1374 1.383 . S
C1369 C1365 1.495 . S
C1369 H1375 0.959 . S
C1369 H1376 0.961 . S
C1369 H1377 0.960 . S
C1370 C1368 1.381 . S
C1370 C1371 1.394 . S
C1370 H1378 0.930 . S
C1371 C1370 1.394 . S
C1371 C1372 1.383 . S
C1371 H1379 0.929 . S
C1372 C1371 1.383 . S
C1372 C1373 1.377 . S
C1373 H1357 0.930 . S
C1373 C1372 1.377 . S
C1373 C1374 1.379 . S
C1374 H1358 0.931 . S
C1374 C1368 1.383 . S
C1374 C1373 1.379 . S
H1375 C1369 0.959 . S
H1376 C1369 0.961 . S
H1377 C1369 0.960 . S
H1378 C1370 0.930 . S
H1379 C1371 0.929 . S
H1380 C1388 0.929 . S
H1381 C1390 0.930 . S
H1382 C1392 0.930 . S
H1383 C1395 0.929 . S
H1384 C1398 0.930 . S
H1385 C1400 0.960 . S
H1386 C1400 0.960 . S
H1387 C1400 0.960 . S
C1388 H1380 0.929 . S
C1388 C1389 1.377 . S
C1388 C1390 1.384 . S
C1389 C1388 1.377 . S
C1389 C1395 1.390 . S
C1390 H1381 0.930 . S
C1390 C1388 1.384 . S
C1390 C1391 1.372 . S
C1391 C1390 1.372 . S
C1391 C1392 1.400 . S
C1391 C1396 1.490 . S
C1392 H1382 0.930 . S
C1392 C1391 1.400 . S
C1392 C1395 1.386 . S
H1393 C1409 0.930 . S
H1394 C1410 0.931 . S
C1395 H1383 0.929 . S
C1395 C1389 1.390 . S
C1395 C1392 1.386 . S
C1396 C1391 1.490 . S
C1396 C1398 1.395 . S
C1396 C1399 1.403 . S
H1397 C1403 0.930 . S
C1398 H1384 0.930 . S
C1398 C1396 1.395 . S
C1398 C1401 1.403 . S
C1399 C1396 1.403 . S
C1399 C1400 1.524 . S
C1399 C1403 1.400 . S
C1400 H1385 0.960 . S
C1400 H1386 0.960 . S
C1400 H1387 0.960 . S
C1400 C1399 1.524 . S
C1401 C1398 1.403 . S
C1401 C1402 1.392 . S
C1401 C1405 1.495 . S
C1402 C1401 1.392 . S
C1402 C1403 1.385 . S
C1402 C1404 1.478 . S
C1403 H1397 0.930 . S
C1403 C1399 1.400 . S
C1403 C1402 1.385 . S
C1404 C1402 1.478 . S
C1404 C1406 1.381 . S
C1404 C1410 1.383 . S
C1405 C1401 1.495 . S
C1405 H1411 0.959 . S
C1405 H1412 0.961 . S
C1405 H1413 0.960 . S
C1406 C1404 1.381 . S
C1406 C1407 1.394 . S
C1406 H1414 0.930 . S
C1407 C1406 1.394 . S
C1407 C1408 1.383 . S
C1407 H1415 0.929 . S
C1408 C1407 1.383 . S
C1408 C1409 1.377 . S
C1409 H1393 0.930 . S
C1409 C1408 1.377 . S
C1409 C1410 1.379 . S
C1410 H1394 0.931 . S
C1410 C1404 1.383 . S
C1410 C1409 1.379 . S
H1411 C1405 0.959 . S
H1412 C1405 0.961 . S
H1413 C1405 0.960 . S
H1414 C1406 0.930 . S
H1415 C1407 0.929 . S
H1416 C1424 0.929 . S
H1417 C1426 0.930 . S
H1418 C1428 0.930 . S
H1419 C1431 0.929 . S
H1420 C1434 0.930 . S
H1421 C1436 0.960 . S
H1422 C1436 0.960 . S
H1423 C1436 0.960 . S
C1424 H1416 0.929 . S
C1424 C1425 1.377 . S
C1424 C1426 1.384 . S
C1425 C1424 1.377 . S
C1425 C1431 1.390 . S
C1426 H1417 0.930 . S
C1426 C1424 1.384 . S
C1426 C1427 1.372 . S
C1427 C1426 1.372 . S
C1427 C1428 1.400 . S
C1427 C1432 1.490 . S
C1428 H1418 0.930 . S
C1428 C1427 1.400 . S
C1428 C1431 1.386 . S
H1429 C1445 0.930 . S
H1430 C1446 0.931 . S
C1431 H1419 0.929 . S
C1431 C1425 1.390 . S
C1431 C1428 1.386 . S
C1432 C1427 1.490 . S
C1432 C1434 1.395 . S
C1432 C1435 1.403 . S
H1433 C1439 0.930 . S
C1434 H1420 0.930 . S
C1434 C1432 1.395 . S
C1434 C1437 1.403 . S
C1435 C1432 1.403 . S
C1435 C1436 1.524 . S
C1435 C1439 1.400 . S
C1436 H1421 0.960 . S
C1436 H1422 0.960 . S
C1436 H1423 0.960 . S
C1436 C1435 1.524 . S
C1437 C1434 1.403 . S
C1437 C1438 1.392 . S
C1437 C1441 1.495 . S
C1438 C1437 1.392 . S
C1438 C1439 1.385 . S
C1438 C1440 1.478 . S
C1439 H1433 0.930 . S
C1439 C1435 1.400 . S
C1439 C1438 1.385 . S
C1440 C1438 1.478 . S
C1440 C1442 1.381 . S
C1440 C1446 1.383 . S
C1441 C1437 1.495 . S
C1441 H1447 0.959 . S
C1441 H1448 0.961 . S
C1441 H1449 0.960 . S
C1442 C1440 1.381 . S
C1442 C1443 1.394 . S
C1442 H1450 0.930 . S
C1443 C1442 1.394 . S
C1443 C1444 1.383 . S
C1443 H1451 0.929 . S
C1444 C1443 1.383 . S
C1444 C1445 1.377 . S
C1445 H1429 0.930 . S
C1445 C1444 1.377 . S
C1445 C1446 1.379 . S
C1446 H1430 0.931 . S
C1446 C1440 1.383 . S
C1446 C1445 1.379 . S
H1447 C1441 0.959 . S
H1448 C1441 0.961 . S
H1449 C1441 0.960 . S
H1450 C1442 0.930 . S
H1451 C1443 0.929 . S
H1452 C1460 0.929 . S
H1453 C1462 0.930 . S
H1454 C1464 0.930 . S
H1455 C1467 0.929 . S
H1456 C1470 0.930 . S
H1457 C1472 0.960 . S
H1458 C1472 0.960 . S
H1459 C1472 0.960 . S
C1460 H1452 0.929 . S
C1460 C1461 1.377 . S
C1460 C1462 1.384 . S
C1461 C1460 1.377 . S
C1461 C1467 1.390 . S
C1462 H1453 0.930 . S
C1462 C1460 1.384 . S
C1462 C1463 1.372 . S
C1463 C1462 1.372 . S
C1463 C1464 1.400 . S
C1463 C1468 1.490 . S
C1464 H1454 0.930 . S
C1464 C1463 1.400 . S
C1464 C1467 1.386 . S
H1465 C1481 0.930 . S
H1466 C1482 0.931 . S
C1467 H1455 0.929 . S
C1467 C1461 1.390 . S
C1467 C1464 1.386 . S
C1468 C1463 1.490 . S
C1468 C1470 1.395 . S
C1468 C1471 1.403 . S
H1469 C1475 0.930 . S
C1470 H1456 0.930 . S
C1470 C1468 1.395 . S
C1470 C1473 1.403 . S
C1471 C1468 1.403 . S
C1471 C1472 1.524 . S
C1471 C1475 1.400 . S
C1472 H1457 0.960 . S
C1472 H1458 0.960 . S
C1472 H1459 0.960 . S
C1472 C1471 1.524 . S
C1473 C1470 1.403 . S
C1473 C1474 1.392 . S
C1473 C1477 1.495 . S
C1474 C1473 1.392 . S
C1474 C1475 1.385 . S
C1474 C1476 1.478 . S
C1475 H1469 0.930 . S
C1475 C1471 1.400 . S
C1475 C1474 1.385 . S
C1476 C1474 1.478 . S
C1476 C1478 1.381 . S
C1476 C1482 1.383 . S
C1477 C1473 1.495 . S
C1477 H1483 0.959 . S
C1477 H1484 0.961 . S
C1477 H1485 0.960 . S
C1478 C1476 1.381 . S
C1478 C1479 1.394 . S
C1478 H1486 0.930 . S
C1479 C1478 1.394 . S
C1479 C1480 1.383 . S
C1479 H1487 0.929 . S
C1480 C1479 1.383 . S
C1480 C1481 1.377 . S
C1481 H1465 0.930 . S
C1481 C1480 1.377 . S
C1481 C1482 1.379 . S
C1482 H1466 0.931 . S
C1482 C1476 1.383 . S
C1482 C1481 1.379 . S
H1483 C1477 0.959 . S
H1484 C1477 0.961 . S
H1485 C1477 0.960 . S
H1486 C1478 0.930 . S
H1487 C1479 0.929 . S
H1488 C1496 0.929 . S
H1489 C1498 0.930 . S
H1490 C1500 0.930 . S
H1491 C1503 0.929 . S
H1492 C1506 0.930 . S
H1493 C1508 0.960 . S
H1494 C1508 0.960 . S
H1495 C1508 0.960 . S
C1496 H1488 0.929 . S
C1496 C1497 1.377 . S
C1496 C1498 1.384 . S
C1497 C1496 1.377 . S
C1497 C1503 1.390 . S
C1498 H1489 0.930 . S
C1498 C1496 1.384 . S
C1498 C1499 1.372 . S
C1499 C1498 1.372 . S
C1499 C1500 1.400 . S
C1499 C1504 1.490 . S
C1500 H1490 0.930 . S
C1500 C1499 1.400 . S
C1500 C1503 1.386 . S
H1501 C1517 0.930 . S
H1502 C1518 0.931 . S
C1503 H1491 0.929 . S
C1503 C1497 1.390 . S
C1503 C1500 1.386 . S
C1504 C1499 1.490 . S
C1504 C1506 1.395 . S
C1504 C1507 1.403 . S
H1505 C1511 0.930 . S
C1506 H1492 0.930 . S
C1506 C1504 1.395 . S
C1506 C1509 1.403 . S
C1507 C1504 1.403 . S
C1507 C1508 1.524 . S
C1507 C1511 1.400 . S
C1508 H1493 0.960 . S
C1508 H1494 0.960 . S
C1508 H1495 0.960 . S
C1508 C1507 1.524 . S
C1509 C1506 1.403 . S
C1509 C1510 1.392 . S
C1509 C1513 1.495 . S
C1510 C1509 1.392 . S
C1510 C1511 1.385 . S
C1510 C1512 1.478 . S
C1511 H1505 0.930 . S
C1511 C1507 1.400 . S
C1511 C1510 1.385 . S
C1512 C1510 1.478 . S
C1512 C1514 1.381 . S
C1512 C1518 1.383 . S
C1513 C1509 1.495 . S
C1513 H1519 0.959 . S
C1513 H1520 0.961 . S
C1513 H1521 0.960 . S
C1514 C1512 1.381 . S
C1514 C1515 1.394 . S
C1514 H1522 0.930 . S
C1515 C1514 1.394 . S
C1515 C1516 1.383 . S
C1515 H1523 0.929 . S
C1516 C1515 1.383 . S
C1516 C1517 1.377 . S
C1517 H1501 0.930 . S
C1517 C1516 1.377 . S
C1517 C1518 1.379 . S
C1518 H1502 0.931 . S
C1518 C1512 1.383 . S
C1518 C1517 1.379 . S
H1519 C1513 0.959 . S
H1520 C1513 0.961 . S
H1521 C1513 0.960 . S
H1522 C1514 0.930 . S
H1523 C1515 0.929 . S
H1524 C1532 0.929 . S
H1525 C1534 0.930 . S
H1526 C1536 0.930 . S
H1527 C1539 0.929 . S
H1528 C1542 0.945 1_655 S
H1529 C1544 0.960 . S
H1530 C1544 0.960 . S
H1531 C1544 0.960 . S
C1532 H1524 0.929 . S
C1532 C1533 1.377 . S
C1532 C1534 1.384 . S
C1533 C1532 1.377 . S
C1533 C1539 1.390 . S
C1534 H1525 0.930 . S
C1534 C1532 1.384 . S
C1534 C1535 1.372 . S
C1535 C1534 1.372 . S
C1535 C1536 1.400 . S
C1535 C1540 1.490 . S
C1536 H1526 0.930 . S
C1536 C1535 1.400 . S
C1536 C1539 1.386 . S
H1537 C1553 0.930 . S
H1538 C1554 0.931 . S
C1539 H1527 0.929 . S
C1539 C1533 1.390 . S
C1539 C1536 1.386 . S
C1540 C1535 1.490 . S
C1540 C1542 1.376 1_655 S
C1540 C1543 1.403 . S
H1541 C1547 0.930 . S
C1542 H1528 0.945 1_455 S
C1542 C1540 1.376 1_455 S
C1542 C1545 1.416 . S
C1543 C1540 1.403 . S
C1543 C1544 1.524 . S
C1543 C1547 1.400 1_655 S
C1544 H1529 0.960 . S
C1544 H1530 0.960 . S
C1544 H1531 0.960 . S
C1544 C1543 1.524 . S
C1545 C1542 1.416 . S
C1545 C1546 1.392 . S
C1545 C1549 1.495 . S
C1546 C1545 1.392 . S
C1546 C1547 1.385 . S
C1546 C1548 1.478 . S
C1547 H1541 0.930 . S
C1547 C1543 1.400 1_455 S
C1547 C1546 1.385 . S
C1548 C1546 1.478 . S
C1548 C1550 1.381 . S
C1548 C1554 1.383 . S
C1549 C1545 1.495 . S
C1549 H1555 0.959 . S
C1549 H1556 0.961 . S
C1549 H1557 0.960 . S
C1550 C1548 1.381 . S
C1550 C1551 1.394 . S
C1550 H1558 0.930 . S
C1551 C1550 1.394 . S
C1551 C1552 1.383 . S
C1551 H1559 0.929 . S
C1552 C1551 1.383 . S
C1552 C1553 1.377 . S
C1553 H1537 0.930 . S
C1553 C1552 1.377 . S
C1553 C1554 1.379 . S
C1554 H1538 0.931 . S
C1554 C1548 1.383 . S
C1554 C1553 1.379 . S
H1555 C1549 0.959 . S
H1556 C1549 0.961 . S
H1557 C1549 0.960 . S
H1558 C1550 0.930 . S
H1559 C1551 0.929 . S
H1560 C1568 0.929 . S
H1561 C1570 0.930 . S
H1562 C1572 0.930 . S
H1563 C1575 0.929 . S
H1564 C1578 0.930 . S
H1565 C1580 0.960 . S
H1566 C1580 0.960 . S
H1567 C1580 0.960 . S
C1568 H1560 0.929 . S
C1568 C1569 1.377 . S
C1568 C1570 1.384 . S
C1569 C1568 1.377 . S
C1569 C1575 1.390 . S
C1570 H1561 0.930 . S
C1570 C1568 1.384 . S
C1570 C1571 1.372 . S
C1571 C1570 1.372 . S
C1571 C1572 1.400 . S
C1571 C1576 1.490 . S
C1572 H1562 0.930 . S
C1572 C1571 1.400 . S
C1572 C1575 1.386 . S
H1573 C1589 0.930 . S
H1574 C1590 0.931 . S
C1575 H1563 0.929 . S
C1575 C1569 1.390 . S
C1575 C1572 1.386 . S
C1576 C1571 1.490 . S
C1576 C1578 1.395 1_554 S
C1576 C1579 1.403 1_565 S
H1577 C1583 0.928 1_554 S
C1578 H1564 0.930 . S
C1578 C1576 1.395 1_556 S
C1578 C1581 1.403 . S
C1579 C1576 1.403 1_545 S
C1579 C1580 1.524 . S
C1579 C1583 1.385 1_554 S
C1580 H1565 0.960 . S
C1580 H1566 0.960 . S
C1580 H1567 0.960 . S
C1580 C1579 1.524 . S
C1581 C1578 1.403 . S
C1581 C1582 1.392 1_565 S
C1581 C1585 1.495 . S
C1582 C1581 1.392 1_545 S
C1582 C1583 1.402 . S
C1582 C1584 1.478 . S
C1583 H1577 0.928 1_556 S
C1583 C1579 1.385 1_556 S
C1583 C1582 1.402 . S
C1584 C1582 1.478 . S
C1584 C1586 1.381 . S
C1584 C1590 1.383 . S
C1585 C1581 1.495 . S
C1585 H1591 0.959 . S
C1585 H1592 0.961 . S
C1585 H1593 0.960 . S
C1586 C1584 1.381 . S
C1586 C1587 1.394 . S
C1586 H1594 0.930 . S
C1587 C1586 1.394 . S
C1587 C1588 1.383 . S
C1587 H1595 0.929 . S
C1588 C1587 1.383 . S
C1588 C1589 1.377 . S
C1589 H1573 0.930 . S
C1589 C1588 1.377 . S
C1589 C1590 1.379 . S
C1590 H1574 0.931 . S
C1590 C1584 1.383 . S
C1590 C1589 1.379 . S
H1591 C1585 0.959 . S
H1592 C1585 0.961 . S
H1593 C1585 0.960 . S
H1594 C1586 0.930 . S
H1595 C1587 0.929 . S
H1596 C1604 0.929 . S
H1597 C1606 0.930 . S
H1598 C1608 0.930 . S
H1599 C1611 0.929 . S
H1600 C1614 0.930 . S
H1601 C1616 0.960 . S
H1602 C1616 0.960 . S
H1603 C1616 0.960 . S
C1604 H1596 0.929 . S
C1604 C1605 1.377 . S
C1604 C1606 1.384 . S
C1605 C1604 1.377 . S
C1605 C1611 1.390 . S
C1606 H1597 0.930 . S
C1606 C1604 1.384 . S
C1606 C1607 1.372 . S
C1607 C1606 1.372 . S
C1607 C1608 1.400 . S
C1607 C1612 1.490 . S
C1608 H1598 0.930 . S
C1608 C1607 1.400 . S
C1608 C1611 1.386 . S
H1609 C1625 0.930 . S
H1610 C1626 0.931 . S
C1611 H1599 0.929 . S
C1611 C1605 1.390 . S
C1611 C1608 1.386 . S
C1612 C1607 1.490 . S
C1612 C1614 1.395 . S
C1612 C1615 1.403 . S
H1613 C1619 0.930 . S
C1614 H1600 0.930 . S
C1614 C1612 1.395 . S
C1614 C1617 1.403 . S
C1615 C1612 1.403 . S
C1615 C1616 1.524 . S
C1615 C1619 1.400 . S
C1616 H1601 0.960 . S
C1616 H1602 0.960 . S
C1616 H1603 0.960 . S
C1616 C1615 1.524 . S
C1617 C1614 1.403 . S
C1617 C1618 1.392 . S
C1617 C1621 1.495 . S
C1618 C1617 1.392 . S
C1618 C1619 1.385 . S
C1618 C1620 1.478 . S
C1619 H1613 0.930 . S
C1619 C1615 1.400 . S
C1619 C1618 1.385 . S
C1620 C1618 1.478 . S
C1620 C1622 1.381 . S
C1620 C1626 1.383 . S
C1621 C1617 1.495 . S
C1621 H1627 0.959 . S
C1621 H1628 0.961 . S
C1621 H1629 0.960 . S
C1622 C1620 1.381 . S
C1622 C1623 1.394 . S
C1622 H1630 0.930 . S
C1623 C1622 1.394 . S
C1623 C1624 1.383 . S
C1623 H1631 0.929 . S
C1624 C1623 1.383 . S
C1624 C1625 1.377 . S
C1625 H1609 0.930 . S
C1625 C1624 1.377 . S
C1625 C1626 1.379 . S
C1626 H1610 0.931 . S
C1626 C1620 1.383 . S
C1626 C1625 1.379 . S
H1627 C1621 0.959 . S
H1628 C1621 0.961 . S
H1629 C1621 0.960 . S
H1630 C1622 0.930 . S
H1631 C1623 0.929 . S
H1632 C1640 0.929 . S
H1633 C1642 0.930 . S
H1634 C1644 0.930 . S
H1635 C1647 0.929 . S
H1636 C1650 0.930 . S
H1637 C1652 0.968 . S
H1638 C1652 0.960 . S
H1639 C1652 0.960 . S
C1640 H1632 0.929 . S
C1640 C1641 1.377 . S
C1640 C1642 1.384 . S
C1641 C1640 1.377 . S
C1641 C1647 1.390 . S
C1642 H1633 0.930 . S
C1642 C1640 1.384 . S
C1642 C1643 1.372 . S
C1643 C1642 1.372 . S
C1643 C1644 1.400 . S
C1643 C1648 1.490 . S
C1644 H1634 0.930 . S
C1644 C1643 1.400 . S
C1644 C1647 1.386 . S
H1645 C1661 0.930 . S
H1646 C1662 0.931 . S
C1647 H1635 0.929 . S
C1647 C1641 1.390 . S
C1647 C1644 1.386 . S
C1648 C1643 1.490 . S
C1648 C1650 1.395 . S
C1648 C1651 1.403 . S
H1649 C1655 0.930 . S
C1650 H1636 0.930 . S
C1650 C1648 1.395 . S
C1650 C1653 1.403 1_455 S
C1651 C1648 1.403 . S
C1651 C1652 1.524 . S
C1651 C1655 1.400 1_455 S
C1652 H1637 0.968 . S
C1652 H1638 0.960 . S
C1652 H1639 0.960 . S
C1652 C1651 1.524 . S
C1653 C1650 1.403 1_655 S
C1653 C1654 1.392 . S
C1653 C1657 1.495 . S
C1654 C1653 1.392 . S
C1654 C1655 1.385 . S
C1654 C1656 1.478 . S
C1655 H1649 0.930 . S
C1655 C1651 1.400 1_655 S
C1655 C1654 1.385 . S
C1656 C1654 1.478 . S
C1656 C1658 1.381 . S
C1656 C1662 1.383 . S
C1657 C1653 1.495 . S
C1657 H1663 0.959 . S
C1657 H1664 0.961 . S
C1657 H1665 0.960 . S
C1658 C1656 1.381 . S
C1658 C1659 1.394 . S
C1658 H1666 0.930 . S
C1659 C1658 1.394 . S
C1659 C1660 1.383 . S
C1659 H1667 0.929 . S
C1660 C1659 1.383 . S
C1660 C1661 1.377 . S
C1661 H1645 0.930 . S
C1661 C1660 1.377 . S
C1661 C1662 1.379 . S
C1662 H1646 0.931 . S
C1662 C1656 1.383 . S
C1662 C1661 1.379 . S
H1663 C1657 0.959 . S
H1664 C1657 0.961 . S
H1665 C1657 0.960 . S
H1666 C1658 0.930 . S
H1667 C1659 0.929 . S
H1668 C1676 0.929 . S
H1669 C1678 0.930 . S
H1670 C1680 0.930 . S
H1671 C1683 0.929 . S
H1672 C1686 0.930 . S
H1673 C1688 0.960 1_545 S
H1674 C1688 0.960 1_545 S
H1675 C1688 0.960 . S
C1676 H1668 0.929 . S
C1676 C1677 1.377 . S
C1676 C1678 1.384 . S
C1677 C1676 1.377 . S
C1677 C1683 1.390 . S
C1678 H1669 0.930 . S
C1678 C1676 1.384 . S
C1678 C1679 1.372 . S
C1679 C1678 1.372 . S
C1679 C1680 1.400 . S
C1679 C1684 1.490 . S
C1680 H1670 0.930 . S
C1680 C1679 1.400 . S
C1680 C1683 1.386 . S
H1681 C1697 0.930 . S
H1682 C1698 0.931 . S
C1683 H1671 0.929 . S
C1683 C1677 1.390 . S
C1683 C1680 1.386 . S
C1684 C1679 1.490 . S
C1684 C1686 1.395 . S
C1684 C1687 1.410 . S
H1685 C1691 0.930 . S
C1686 H1672 0.930 . S
C1686 C1684 1.395 . S
C1686 C1689 1.403 1_565 S
C1687 C1684 1.410 . S
C1687 C1688 1.565 . S
C1687 C1691 1.354 1_565 S
C1688 H1673 0.960 1_565 S
C1688 H1674 0.960 1_565 S
C1688 H1675 0.960 . S
C1688 C1687 1.565 . S
C1689 C1686 1.403 1_545 S
C1689 C1690 1.392 . S
C1689 C1693 1.495 . S
C1690 C1689 1.392 . S
C1690 C1691 1.385 . S
C1690 C1692 1.478 . S
C1691 H1685 0.930 . S
C1691 C1687 1.354 1_545 S
C1691 C1690 1.385 . S
C1692 C1690 1.478 . S
C1692 C1694 1.381 . S
C1692 C1698 1.383 . S
C1693 C1689 1.495 . S
C1693 H1699 0.959 1_545 S
C1693 H1700 0.961 1_545 S
C1693 H1701 0.960 . S
C1694 C1692 1.381 . S
C1694 C1695 1.394 . S
C1694 H1702 0.930 . S
C1695 C1694 1.394 . S
C1695 C1696 1.383 . S
C1695 H1703 0.929 . S
C1696 C1695 1.383 . S
C1696 C1697 1.377 . S
C1697 H1681 0.930 . S
C1697 C1696 1.377 . S
C1697 C1698 1.379 . S
C1698 H1682 0.931 . S
C1698 C1692 1.383 . S
C1698 C1697 1.379 . S
H1699 C1693 0.959 1_565 S
H1700 C1693 0.961 1_565 S
H1701 C1693 0.960 . S
H1702 C1694 0.930 . S
H1703 C1695 0.929 . S
H1704 C1712 0.929 . S
H1705 C1714 0.930 . S
H1706 C1716 0.930 . S
H1707 C1719 0.929 . S
H1708 C1722 0.930 . S
H1709 C1724 0.960 . S
H1710 C1724 0.960 . S
H1711 C1724 0.960 . S
C1712 H1704 0.929 . S
C1712 C1713 1.377 . S
C1712 C1714 1.384 . S
C1713 C1712 1.377 . S
C1713 C1719 1.390 . S
C1714 H1705 0.930 . S
C1714 C1712 1.384 . S
C1714 C1715 1.372 . S
C1715 C1714 1.372 . S
C1715 C1716 1.400 . S
C1715 C1720 1.490 . S
C1716 H1706 0.930 . S
C1716 C1715 1.400 . S
C1716 C1719 1.386 . S
H1717 C1733 0.930 . S
H1718 C1734 0.931 . S
C1719 H1707 0.929 . S
C1719 C1713 1.390 . S
C1719 C1716 1.386 . S
C1720 C1715 1.490 . S
C1720 C1722 1.395 . S
C1720 C1723 1.403 . S
H1721 C1727 0.930 . S
C1722 H1708 0.930 . S
C1722 C1720 1.395 . S
C1722 C1725 1.403 . S
C1723 C1720 1.403 . S
C1723 C1724 1.524 . S
C1723 C1727 1.400 . S
C1724 H1709 0.960 . S
C1724 H1710 0.960 . S
C1724 H1711 0.960 . S
C1724 C1723 1.524 . S
C1725 C1722 1.403 . S
C1725 C1726 1.392 . S
C1725 C1729 1.495 . S
C1726 C1725 1.392 . S
C1726 C1727 1.385 . S
C1726 C1728 1.478 . S
C1727 H1721 0.930 . S
C1727 C1723 1.400 . S
C1727 C1726 1.385 . S
C1728 C1726 1.478 . S
C1728 C1730 1.381 . S
C1728 C1734 1.383 . S
C1729 C1725 1.495 . S
C1729 H1735 0.959 . S
C1729 H1736 0.961 . S
C1729 H1737 0.960 . S
C1730 C1728 1.381 . S
C1730 C1731 1.394 . S
C1730 H1738 0.930 . S
C1731 C1730 1.394 . S
C1731 C1732 1.383 . S
C1731 H1739 0.929 . S
C1732 C1731 1.383 . S
C1732 C1733 1.377 . S
C1733 H1717 0.930 . S
C1733 C1732 1.377 . S
C1733 C1734 1.379 . S
C1734 H1718 0.931 . S
C1734 C1728 1.383 . S
C1734 C1733 1.379 . S
H1735 C1729 0.959 . S
H1736 C1729 0.961 . S
H1737 C1729 0.960 . S
H1738 C1730 0.930 . S
H1739 C1731 0.929 . S
H1740 C1748 0.929 . S
H1741 C1750 0.930 . S
H1742 C1752 0.930 . S
H1743 C1755 0.929 . S
H1744 C1758 0.930 . S
H1745 C1760 0.960 . S
H1746 C1760 0.960 . S
H1747 C1760 0.960 . S
C1748 H1740 0.929 . S
C1748 C1749 1.377 . S
C1748 C1750 1.384 . S
C1749 C1748 1.377 . S
C1749 C1755 1.390 . S
C1750 H1741 0.930 . S
C1750 C1748 1.384 . S
C1750 C1751 1.372 . S
C1751 C1750 1.372 . S
C1751 C1752 1.400 . S
C1751 C1756 1.490 . S
C1752 H1742 0.930 . S
C1752 C1751 1.400 . S
C1752 C1755 1.386 . S
H1753 C1769 0.930 . S
H1754 C1770 0.931 . S
C1755 H1743 0.929 . S
C1755 C1749 1.390 . S
C1755 C1752 1.386 . S
C1756 C1751 1.490 . S
C1756 C1758 1.395 . S
C1756 C1759 1.403 . S
H1757 C1763 0.930 . S
C1758 H1744 0.930 . S
C1758 C1756 1.395 . S
C1758 C1761 1.403 . S
C1759 C1756 1.403 . S
C1759 C1760 1.524 . S
C1759 C1763 1.400 . S
C1760 H1745 0.960 . S
C1760 H1746 0.960 . S
C1760 H1747 0.960 . S
C1760 C1759 1.524 . S
C1761 C1758 1.403 . S
C1761 C1762 1.392 . S
C1761 C1765 1.495 . S
C1762 C1761 1.392 . S
C1762 C1763 1.385 . S
C1762 C1764 1.478 . S
C1763 H1757 0.930 . S
C1763 C1759 1.400 . S
C1763 C1762 1.385 . S
C1764 C1762 1.478 . S
C1764 C1766 1.381 . S
C1764 C1770 1.383 . S
C1765 C1761 1.495 . S
C1765 H1771 0.959 . S
C1765 H1772 0.961 . S
C1765 H1773 0.960 . S
C1766 C1764 1.381 . S
C1766 C1767 1.394 . S
C1766 H1774 0.930 . S
C1767 C1766 1.394 . S
C1767 C1768 1.383 . S
C1767 H1775 0.929 . S
C1768 C1767 1.383 . S
C1768 C1769 1.377 . S
C1769 H1753 0.930 . S
C1769 C1768 1.377 . S
C1769 C1770 1.379 . S
C1770 H1754 0.931 . S
C1770 C1764 1.383 . S
C1770 C1769 1.379 . S
H1771 C1765 0.959 . S
H1772 C1765 0.961 . S
H1773 C1765 0.960 . S
H1774 C1766 0.930 . S
H1775 C1767 0.929 . S
H1776 C1784 0.929 . S
H1777 C1786 0.930 . S
H1778 C1788 0.930 . S
H1779 C1791 0.929 . S
H1780 C1794 0.930 . S
H1781 C1796 0.960 . S
H1782 C1796 0.960 . S
H1783 C1796 0.960 . S
C1784 H1776 0.929 . S
C1784 C1785 1.377 . S
C1784 C1786 1.384 1_554 S
C1785 C1784 1.377 . S
C1785 C1791 1.390 . S
C1786 H1777 0.930 . S
C1786 C1784 1.384 1_556 S
C1786 C1787 1.372 . S
C1787 C1786 1.372 . S
C1787 C1788 1.400 . S
C1787 C1792 1.490 . S
C1788 H1778 0.930 . S
C1788 C1787 1.400 . S
C1788 C1791 1.386 1_556 S
H1789 C1805 0.930 . S
H1790 C1806 0.931 . S
C1791 H1779 0.929 . S
C1791 C1785 1.390 . S
C1791 C1788 1.386 1_554 S
C1792 C1787 1.490 . S
C1792 C1794 1.395 . S
C1792 C1795 1.403 . S
H1793 C1799 0.930 . S
C1794 H1780 0.930 . S
C1794 C1792 1.395 . S
C1794 C1797 1.403 . S
C1795 C1792 1.403 . S
C1795 C1796 1.524 . S
C1795 C1799 1.400 . S
C1796 H1781 0.960 . S
C1796 H1782 0.960 . S
C1796 H1783 0.960 . S
C1796 C1795 1.524 . S
C1797 C1794 1.403 . S
C1797 C1798 1.392 . S
C1797 C1801 1.495 . S
C1798 C1797 1.392 . S
C1798 C1799 1.385 . S
C1798 C1800 1.478 . S
C1799 H1793 0.930 . S
C1799 C1795 1.400 . S
C1799 C1798 1.385 . S
C1800 C1798 1.478 . S
C1800 C1802 1.381 . S
C1800 C1806 1.383 . S
C1801 C1797 1.495 . S
C1801 H1807 0.959 . S
C1801 H1808 0.961 . S
C1801 H1809 0.960 . S
C1802 C1800 1.381 . S
C1802 C1803 1.394 . S
C1802 H1810 0.930 . S
C1803 C1802 1.394 . S
C1803 C1804 1.383 . S
C1803 H1811 0.929 . S
C1804 C1803 1.383 . S
C1804 C1805 1.377 . S
C1805 H1789 0.930 . S
C1805 C1804 1.377 . S
C1805 C1806 1.379 . S
C1806 H1790 0.931 . S
C1806 C1800 1.383 . S
C1806 C1805 1.379 . S
H1807 C1801 0.959 . S
H1808 C1801 0.961 . S
H1809 C1801 0.960 . S
H1810 C1802 0.930 . S
H1811 C1803 0.929 . S
H1812 C1820 0.929 . S
H1813 C1822 0.930 . S
H1814 C1824 0.930 . S
H1815 C1827 0.929 . S
H1816 C1830 0.930 . S
H1817 C1832 0.960 . S
H1818 C1832 0.960 . S
H1819 C1832 0.960 . S
C1820 H1812 0.929 . S
C1820 C1821 1.377 . S
C1820 C1822 1.384 . S
C1821 C1820 1.377 . S
C1821 C1827 1.390 . S
C1822 H1813 0.930 . S
C1822 C1820 1.384 . S
C1822 C1823 1.372 . S
C1823 C1822 1.372 . S
C1823 C1824 1.400 . S
C1823 C1828 1.490 . S
C1824 H1814 0.930 . S
C1824 C1823 1.400 . S
C1824 C1827 1.386 . S
H1825 C1841 0.930 . S
H1826 C1842 0.933 . S
C1827 H1815 0.929 . S
C1827 C1821 1.390 . S
C1827 C1824 1.386 . S
C1828 C1823 1.490 . S
C1828 C1830 1.395 . S
C1828 C1831 1.403 . S
H1829 C1835 0.930 . S
C1830 H1816 0.930 . S
C1830 C1828 1.395 . S
C1830 C1833 1.403 . S
C1831 C1828 1.403 . S
C1831 C1832 1.524 . S
C1831 C1835 1.400 . S
C1832 H1817 0.960 . S
C1832 H1818 0.960 . S
C1832 H1819 0.960 . S
C1832 C1831 1.524 . S
C1833 C1830 1.403 . S
C1833 C1834 1.392 . S
C1833 C1837 1.495 . S
C1834 C1833 1.392 . S
C1834 C1835 1.385 . S
C1834 C1836 1.478 . S
C1835 H1829 0.930 . S
C1835 C1831 1.400 . S
C1835 C1834 1.385 . S
C1836 C1834 1.478 . S
C1836 C1838 1.381 . S
C1836 C1842 1.383 . S
C1837 C1833 1.495 . S
C1837 H1843 0.959 . S
C1837 H1844 0.961 . S
C1837 H1845 0.960 . S
C1838 C1836 1.381 . S
C1838 C1839 1.394 . S
C1838 H1846 0.930 . S
C1839 C1838 1.394 . S
C1839 C1840 1.383 1_554 S
C1839 H1847 0.929 . S
C1840 C1839 1.383 1_556 S
C1840 C1841 1.377 . S
C1841 H1825 0.930 . S
C1841 C1840 1.377 . S
C1841 C1842 1.379 1_556 S
C1842 H1826 0.933 . S
C1842 C1836 1.383 . S
C1842 C1841 1.379 1_554 S
H1843 C1837 0.959 . S
H1844 C1837 0.961 . S
H1845 C1837 0.960 . S
H1846 C1838 0.930 . S
H1847 C1839 0.929 . S
H1848 C1856 0.929 . S
H1849 C1858 0.930 . S
H1850 C1860 0.930 . S
H1851 C1863 0.929 . S
H1852 C1866 0.930 . S
H1853 C1868 0.960 . S
H1854 C1868 0.960 . S
H1855 C1868 0.960 . S
C1856 H1848 0.929 . S
C1856 C1857 1.377 . S
C1856 C1858 1.384 . S
C1857 C1856 1.377 . S
C1857 C1863 1.390 . S
C1858 H1849 0.930 . S
C1858 C1856 1.384 . S
C1858 C1859 1.372 . S
C1859 C1858 1.372 . S
C1859 C1860 1.400 . S
C1859 C1864 1.490 . S
C1860 H1850 0.930 . S
C1860 C1859 1.400 . S
C1860 C1863 1.386 . S
H1861 C1877 0.930 . S
H1862 C1878 0.931 . S
C1863 H1851 0.929 . S
C1863 C1857 1.390 . S
C1863 C1860 1.386 . S
C1864 C1859 1.490 . S
C1864 C1866 1.395 . S
C1864 C1867 1.403 . S
H1865 C1871 0.930 . S
C1866 H1852 0.930 . S
C1866 C1864 1.395 . S
C1866 C1869 1.403 . S
C1867 C1864 1.403 . S
C1867 C1868 1.524 . S
C1867 C1871 1.400 . S
C1868 H1853 0.960 . S
C1868 H1854 0.960 . S
C1868 H1855 0.960 . S
C1868 C1867 1.524 . S
C1869 C1866 1.403 . S
C1869 C1870 1.392 . S
C1869 C1873 1.495 . S
C1870 C1869 1.392 . S
C1870 C1871 1.385 . S
C1870 C1872 1.478 . S
C1871 H1865 0.930 . S
C1871 C1867 1.400 . S
C1871 C1870 1.385 . S
C1872 C1870 1.478 . S
C1872 C1874 1.381 . S
C1872 C1878 1.383 . S
C1873 C1869 1.495 . S
C1873 H1879 0.959 . S
C1873 H1880 0.961 . S
C1873 H1881 0.960 . S
C1874 C1872 1.381 . S
C1874 C1875 1.394 . S
C1874 H1882 0.930 . S
C1875 C1874 1.394 . S
C1875 C1876 1.383 . S
C1875 H1883 0.929 . S
C1876 C1875 1.383 . S
C1876 C1877 1.377 . S
C1877 H1861 0.930 . S
C1877 C1876 1.377 . S
C1877 C1878 1.379 . S
C1878 H1862 0.931 . S
C1878 C1872 1.383 . S
C1878 C1877 1.379 . S
H1879 C1873 0.959 . S
H1880 C1873 0.961 . S
H1881 C1873 0.960 . S
H1882 C1874 0.930 . S
H1883 C1875 0.929 . S
H1884 C1892 0.929 . S
H1885 C1894 0.930 . S
H1886 C1896 0.930 . S
H1887 C1899 0.929 . S
H1888 C1902 0.930 . S
H1889 C1904 0.960 . S
H1890 C1904 0.960 . S
H1891 C1904 0.960 . S
C1892 H1884 0.929 . S
C1892 C1893 1.377 . S
C1892 C1894 1.384 . S
C1893 C1892 1.377 . S
C1893 C1899 1.390 . S
C1894 H1885 0.930 . S
C1894 C1892 1.384 . S
C1894 C1895 1.372 . S
C1895 C1894 1.372 . S
C1895 C1896 1.400 . S
C1895 C1900 1.490 . S
C1896 H1886 0.930 . S
C1896 C1895 1.400 . S
C1896 C1899 1.386 . S
H1897 C1913 0.930 . S
H1898 C1914 0.931 . S
C1899 H1887 0.929 . S
C1899 C1893 1.390 . S
C1899 C1896 1.386 . S
C1900 C1895 1.490 . S
C1900 C1902 1.395 . S
C1900 C1903 1.403 . S
H1901 C1907 0.930 . S
C1902 H1888 0.930 . S
C1902 C1900 1.395 . S
C1902 C1905 1.403 . S
C1903 C1900 1.403 . S
C1903 C1904 1.524 . S
C1903 C1907 1.400 . S
C1904 H1889 0.960 . S
C1904 H1890 0.960 . S
C1904 H1891 0.960 . S
C1904 C1903 1.524 . S
C1905 C1902 1.403 . S
C1905 C1906 1.392 . S
C1905 C1909 1.495 . S
C1906 C1905 1.392 . S
C1906 C1907 1.385 . S
C1906 C1908 1.478 . S
C1907 H1901 0.930 . S
C1907 C1903 1.400 . S
C1907 C1906 1.385 . S
C1908 C1906 1.478 . S
C1908 C1910 1.381 . S
C1908 C1914 1.383 . S
C1909 C1905 1.495 . S
C1909 H1915 0.959 . S
C1909 H1916 0.961 . S
C1909 H1917 0.960 . S
C1910 C1908 1.381 . S
C1910 C1911 1.394 . S
C1910 H1918 0.930 . S
C1911 C1910 1.394 . S
C1911 C1912 1.383 . S
C1911 H1919 0.929 . S
C1912 C1911 1.383 . S
C1912 C1913 1.377 . S
C1913 H1897 0.930 . S
C1913 C1912 1.377 . S
C1913 C1914 1.379 . S
C1914 H1898 0.931 . S
C1914 C1908 1.383 . S
C1914 C1913 1.379 . S
H1915 C1909 0.959 . S
H1916 C1909 0.961 . S
H1917 C1909 0.960 . S
H1918 C1910 0.930 . S
H1919 C1911 0.929 . S
C1065 C821 1.604 . S
C1084 C57 1.605 . S
C1101 C137 1.602 . S
C1120 C909 1.594 . S
C1137 C988 1.606 . S
C1156 C225 1.617 . S
C1173 C548 1.597 . S
C1192 C321 1.581 . S
C1209 C636 1.597 . S
C1228 C409 1.578 . S
C1245 C733 1.605 . S
C1264 C497 1.619 . S
C1281 C557 1.517 . S
C1300 C49 1.499 . S
C1317 C145 1.513 . S
C1336 C645 1.524 . S
C1353 C724 1.512 . S
C1372 C233 1.524 . S
C1389 C313 1.517 . S
C1408 C812 1.500 . S
C1425 C900 1.512 . S
C1444 C401 1.524 . S
C1461 C489 1.513 . S
C1480 C997 1.518 . S
C1497 C841 0.268 . S
C1516 C20 0.306 . S
C1533 C929 0.252 . S
C1552 C117 0.310 . S
C1569 C1025 0.270 . S
C1588 C205 0.283 . S
C1605 C284 0.257 . S
C1624 C585 0.210 . S
C1641 C673 0.258 . S
C1660 C372 0.320 . S
C1677 C460 0.261 . S
C1696 C753 0.321 . S
C1713 C29 1.481 . S
C1732 C761 1.471 . S
C1749 C849 1.476 . S
C1768 C108 1.499 . S
C1785 C937 1.481 . S
C1804 C196 1.498 . S
C1821 C1017 1.482 . S
C1840 C293 1.487 . S
C1857 C577 1.480 . S
C1876 C381 1.502 . S
C1893 C665 1.481 . S
C1912 C469 1.469 . S
