# Generated by pormake.
# Topology wgl, (5)-cn, num edge types: 1
# Building blocks:
#     Node 0, Type 0, BuildingBlock: XOMCOT_clean_sbu_1, # of connection points: 5
#     Node 1, Type 0, BuildingBlock: XOMCOT_clean_sbu_1, # of connection points: 5
#     Node 2, Type 0, BuildingBlock: XOMCOT_clean_sbu_1, # of connection points: 5
#     Node 3, Type 0, BuildingBlock: XOMCOT_clean_sbu_1, # of connection points: 5
#     Node 4, Type 0, BuildingBlock: XOMCOT_clean_sbu_1, # of connection points: 5
#     Node 5, Type 0, BuildingBlock: XOMCOT_clean_sbu_1, # of connection points: 5
#     Node 6, Type 0, BuildingBlock: XOMCOT_clean_sbu_1, # of connection points: 5
#     Node 7, Type 0, BuildingBlock: XOMCOT_clean_sbu_1, # of connection points: 5
#     Node 8, Type 0, BuildingBlock: XOMCOT_clean_sbu_1, # of connection points: 5
#     Node 9, Type 0, BuildingBlock: XOMCOT_clean_sbu_1, # of connection points: 5
#     Node 10, Type 0, BuildingBlock: XOMCOT_clean_sbu_1, # of connection points: 5
#     Node 11, Type 0, BuildingBlock: XOMCOT_clean_sbu_1, # of connection points: 5
#     Node 12, Type 0, BuildingBlock: XOMCOT_clean_sbu_1, # of connection points: 5
#     Node 13, Type 0, BuildingBlock: XOMCOT_clean_sbu_1, # of connection points: 5
#     Node 14, Type 0, BuildingBlock: XOMCOT_clean_sbu_1, # of connection points: 5
#     Node 15, Type 0, BuildingBlock: XOMCOT_clean_sbu_1, # of connection points: 5
#     Node 16, Type 0, BuildingBlock: XOMCOT_clean_sbu_1, # of connection points: 5
#     Node 17, Type 0, BuildingBlock: XOMCOT_clean_sbu_1, # of connection points: 5
#     Node 18, Type 0, BuildingBlock: XOMCOT_clean_sbu_1, # of connection points: 5
#     Node 19, Type 0, BuildingBlock: XOMCOT_clean_sbu_1, # of connection points: 5
#     Node 20, Type 0, BuildingBlock: XOMCOT_clean_sbu_1, # of connection points: 5
#     Node 21, Type 0, BuildingBlock: XOMCOT_clean_sbu_1, # of connection points: 5
#     Node 22, Type 0, BuildingBlock: XOMCOT_clean_sbu_1, # of connection points: 5
#     Node 23, Type 0, BuildingBlock: XOMCOT_clean_sbu_1, # of connection points: 5
#     Node 24, Type 0, BuildingBlock: XOMCOT_clean_sbu_1, # of connection points: 5
#     Node 25, Type 0, BuildingBlock: XOMCOT_clean_sbu_1, # of connection points: 5
#     Node 26, Type 0, BuildingBlock: XOMCOT_clean_sbu_1, # of connection points: 5
#     Node 27, Type 0, BuildingBlock: XOMCOT_clean_sbu_1, # of connection points: 5
#     Node 28, Type 0, BuildingBlock: XOMCOT_clean_sbu_1, # of connection points: 5
#     Node 29, Type 0, BuildingBlock: XOMCOT_clean_sbu_1, # of connection points: 5
#     Node 30, Type 0, BuildingBlock: XOMCOT_clean_sbu_1, # of connection points: 5
#     Node 31, Type 0, BuildingBlock: XOMCOT_clean_sbu_1, # of connection points: 5
#     Edge 32, Type (0, 0), BuildingBlock: CIFDUS_clean_linker_0, # of connection points: 2
#     Edge 33, Type (0, 0), BuildingBlock: CIFDUS_clean_linker_0, # of connection points: 2
#     Edge 34, Type (0, 0), BuildingBlock: CIFDUS_clean_linker_0, # of connection points: 2
#     Edge 35, Type (0, 0), BuildingBlock: CIFDUS_clean_linker_0, # of connection points: 2
#     Edge 36, Type (0, 0), BuildingBlock: CIFDUS_clean_linker_0, # of connection points: 2
#     Edge 37, Type (0, 0), BuildingBlock: CIFDUS_clean_linker_0, # of connection points: 2
#     Edge 38, Type (0, 0), BuildingBlock: CIFDUS_clean_linker_0, # of connection points: 2
#     Edge 39, Type (0, 0), BuildingBlock: CIFDUS_clean_linker_0, # of connection points: 2
#     Edge 40, Type (0, 0), BuildingBlock: CIFDUS_clean_linker_0, # of connection points: 2
#     Edge 41, Type (0, 0), BuildingBlock: CIFDUS_clean_linker_0, # of connection points: 2
#     Edge 42, Type (0, 0), BuildingBlock: CIFDUS_clean_linker_0, # of connection points: 2
#     Edge 43, Type (0, 0), BuildingBlock: CIFDUS_clean_linker_0, # of connection points: 2
#     Edge 44, Type (0, 0), BuildingBlock: CIFDUS_clean_linker_0, # of connection points: 2
#     Edge 45, Type (0, 0), BuildingBlock: CIFDUS_clean_linker_0, # of connection points: 2
#     Edge 46, Type (0, 0), BuildingBlock: CIFDUS_clean_linker_0, # of connection points: 2
#     Edge 47, Type (0, 0), BuildingBlock: CIFDUS_clean_linker_0, # of connection points: 2
#     Edge 48, Type (0, 0), BuildingBlock: CIFDUS_clean_linker_0, # of connection points: 2
#     Edge 49, Type (0, 0), BuildingBlock: CIFDUS_clean_linker_0, # of connection points: 2
#     Edge 50, Type (0, 0), BuildingBlock: CIFDUS_clean_linker_0, # of connection points: 2
#     Edge 51, Type (0, 0), BuildingBlock: CIFDUS_clean_linker_0, # of connection points: 2
#     Edge 52, Type (0, 0), BuildingBlock: CIFDUS_clean_linker_0, # of connection points: 2
#     Edge 53, Type (0, 0), BuildingBlock: CIFDUS_clean_linker_0, # of connection points: 2
#     Edge 54, Type (0, 0), BuildingBlock: CIFDUS_clean_linker_0, # of connection points: 2
#     Edge 55, Type (0, 0), BuildingBlock: CIFDUS_clean_linker_0, # of connection points: 2
#     Edge 56, Type (0, 0), BuildingBlock: CIFDUS_clean_linker_0, # of connection points: 2
#     Edge 57, Type (0, 0), BuildingBlock: CIFDUS_clean_linker_0, # of connection points: 2
#     Edge 58, Type (0, 0), BuildingBlock: CIFDUS_clean_linker_0, # of connection points: 2
#     Edge 59, Type (0, 0), BuildingBlock: CIFDUS_clean_linker_0, # of connection points: 2
#     Edge 60, Type (0, 0), BuildingBlock: CIFDUS_clean_linker_0, # of connection points: 2
#     Edge 61, Type (0, 0), BuildingBlock: CIFDUS_clean_linker_0, # of connection points: 2
#     Edge 62, Type (0, 0), BuildingBlock: CIFDUS_clean_linker_0, # of connection points: 2
#     Edge 63, Type (0, 0), BuildingBlock: CIFDUS_clean_linker_0, # of connection points: 2
#     Edge 64, Type (0, 0), BuildingBlock: CIFDUS_clean_linker_0, # of connection points: 2
#     Edge 65, Type (0, 0), BuildingBlock: CIFDUS_clean_linker_0, # of connection points: 2
#     Edge 66, Type (0, 0), BuildingBlock: CIFDUS_clean_linker_0, # of connection points: 2
#     Edge 67, Type (0, 0), BuildingBlock: CIFDUS_clean_linker_0, # of connection points: 2
#     Edge 68, Type (0, 0), BuildingBlock: CIFDUS_clean_linker_0, # of connection points: 2
#     Edge 69, Type (0, 0), BuildingBlock: CIFDUS_clean_linker_0, # of connection points: 2
#     Edge 70, Type (0, 0), BuildingBlock: CIFDUS_clean_linker_0, # of connection points: 2
#     Edge 71, Type (0, 0), BuildingBlock: CIFDUS_clean_linker_0, # of connection points: 2
#     Edge 72, Type (0, 0), BuildingBlock: CIFDUS_clean_linker_0, # of connection points: 2
#     Edge 73, Type (0, 0), BuildingBlock: CIFDUS_clean_linker_0, # of connection points: 2
#     Edge 74, Type (0, 0), BuildingBlock: CIFDUS_clean_linker_0, # of connection points: 2
#     Edge 75, Type (0, 0), BuildingBlock: CIFDUS_clean_linker_0, # of connection points: 2
#     Edge 76, Type (0, 0), BuildingBlock: CIFDUS_clean_linker_0, # of connection points: 2
#     Edge 77, Type (0, 0), BuildingBlock: CIFDUS_clean_linker_0, # of connection points: 2
#     Edge 78, Type (0, 0), BuildingBlock: CIFDUS_clean_linker_0, # of connection points: 2
#     Edge 79, Type (0, 0), BuildingBlock: CIFDUS_clean_linker_0, # of connection points: 2
#     Edge 80, Type (0, 0), BuildingBlock: CIFDUS_clean_linker_0, # of connection points: 2
#     Edge 81, Type (0, 0), BuildingBlock: CIFDUS_clean_linker_0, # of connection points: 2
#     Edge 82, Type (0, 0), BuildingBlock: CIFDUS_clean_linker_0, # of connection points: 2
#     Edge 83, Type (0, 0), BuildingBlock: CIFDUS_clean_linker_0, # of connection points: 2
#     Edge 84, Type (0, 0), BuildingBlock: CIFDUS_clean_linker_0, # of connection points: 2
#     Edge 85, Type (0, 0), BuildingBlock: CIFDUS_clean_linker_0, # of connection points: 2
#     Edge 86, Type (0, 0), BuildingBlock: CIFDUS_clean_linker_0, # of connection points: 2
#     Edge 87, Type (0, 0), BuildingBlock: CIFDUS_clean_linker_0, # of connection points: 2
#     Edge 88, Type (0, 0), BuildingBlock: CIFDUS_clean_linker_0, # of connection points: 2
#     Edge 89, Type (0, 0), BuildingBlock: CIFDUS_clean_linker_0, # of connection points: 2
#     Edge 90, Type (0, 0), BuildingBlock: CIFDUS_clean_linker_0, # of connection points: 2
#     Edge 91, Type (0, 0), BuildingBlock: CIFDUS_clean_linker_0, # of connection points: 2
#     Edge 92, Type (0, 0), BuildingBlock: CIFDUS_clean_linker_0, # of connection points: 2
#     Edge 93, Type (0, 0), BuildingBlock: CIFDUS_clean_linker_0, # of connection points: 2
#     Edge 94, Type (0, 0), BuildingBlock: CIFDUS_clean_linker_0, # of connection points: 2
#     Edge 95, Type (0, 0), BuildingBlock: CIFDUS_clean_linker_0, # of connection points: 2
#     Edge 96, Type (0, 0), BuildingBlock: CIFDUS_clean_linker_0, # of connection points: 2
#     Edge 97, Type (0, 0), BuildingBlock: CIFDUS_clean_linker_0, # of connection points: 2
#     Edge 98, Type (0, 0), BuildingBlock: CIFDUS_clean_linker_0, # of connection points: 2
#     Edge 99, Type (0, 0), BuildingBlock: CIFDUS_clean_linker_0, # of connection points: 2
#     Edge 100, Type (0, 0), BuildingBlock: CIFDUS_clean_linker_0, # of connection points: 2
#     Edge 101, Type (0, 0), BuildingBlock: CIFDUS_clean_linker_0, # of connection points: 2
#     Edge 102, Type (0, 0), BuildingBlock: CIFDUS_clean_linker_0, # of connection points: 2
#     Edge 103, Type (0, 0), BuildingBlock: CIFDUS_clean_linker_0, # of connection points: 2
#     Edge 104, Type (0, 0), BuildingBlock: CIFDUS_clean_linker_0, # of connection points: 2
#     Edge 105, Type (0, 0), BuildingBlock: CIFDUS_clean_linker_0, # of connection points: 2
#     Edge 106, Type (0, 0), BuildingBlock: CIFDUS_clean_linker_0, # of connection points: 2
#     Edge 107, Type (0, 0), BuildingBlock: CIFDUS_clean_linker_0, # of connection points: 2
#     Edge 108, Type (0, 0), BuildingBlock: CIFDUS_clean_linker_0, # of connection points: 2
#     Edge 109, Type (0, 0), BuildingBlock: CIFDUS_clean_linker_0, # of connection points: 2
#     Edge 110, Type (0, 0), BuildingBlock: CIFDUS_clean_linker_0, # of connection points: 2
#     Edge 111, Type (0, 0), BuildingBlock: CIFDUS_clean_linker_0, # of connection points: 2
# Relax obj value: 0.052
# Max RMSD: 0.089
# Mean RMSD: 0.089
data_MOF--net-wgl--node1-XOMCOT_clean_sbu_1--edge1-CIFDUS_clean_linker_0
_symmetry_space_group_name_H-M    P1
_symmetry_Int_Tables_number       1
_symmetry_cell_setting            triclinic
loop_
_symmetry_equiv_pos_as_xyz
'x, y, z'
_cell_length_a     51.24817
_cell_length_b     51.205192
_cell_length_c     45.999686
_cell_angle_alpha  90.099788
_cell_angle_beta   90.126989
_cell_angle_gamma 90.030729
loop_
_atom_site_label
_atom_site_type_symbol
_atom_site_fract_x
_atom_site_fract_y
_atom_site_fract_z
_atom_type_partial_charge
C0 C 0.27309 0.3619 0.19819 0.0
C1 C 0.25339 0.37999 0.19642 0.0
N2 N 0.24797 0.38423 0.16812 0.0
N3 N 0.28002 0.35446 0.1712 0.0
C4 C 0.26449 0.36847 0.15329 0.0
H5 H 0.28191 0.35478 0.218 0.0
Co6 Co 0.30645 0.33074 0.16306 0.0
C7 C 0.29819 0.31354 0.10087 0.0
O8 O 0.32313 0.30822 0.09815 0.0
N9 N 0.33371 0.30638 0.15594 0.0
C10 C 0.37294 0.28772 0.15351 0.0
C11 C 0.35962 0.31096 0.1534 0.0
C12 C 0.33195 0.27995 0.15692 0.0
N13 N 0.35552 0.26824 0.15605 0.0
O14 O 0.28704 0.30398 0.18291 0.0
H15 H 0.36882 0.32986 0.1525 0.0
H16 H 0.31384 0.26941 0.15983 0.0
O17 O 0.28947 0.32219 0.12521 0.0
C18 C 0.29582 0.301 0.20876 0.0
O19 O 0.31558 0.31559 0.21715 0.0
N20 N 0.32632 0.35805 0.14746 0.0
C21 C 0.36732 0.39157 0.1341 0.0
C22 C 0.35004 0.38295 0.11228 0.0
C23 C 0.32932 0.36636 0.11949 0.0
C24 C 0.34047 0.36922 0.16928 0.0
C25 C 0.36129 0.38579 0.16311 0.0
H26 H 0.31663 0.35969 0.10238 0.0
H27 H 0.33717 0.36312 0.19147 0.0
H28 H 0.26575 0.36755 0.12984 0.0
H29 H 0.24375 0.3891 0.2147 0.0
H30 H 0.39391 0.2854 0.15258 0.0
H31 H 0.35325 0.38793 0.0897 0.0
H32 H 0.37381 0.39197 0.18081 0.0
C33 C 0.88692 0.03805 0.43936 0.0
C34 C 0.86999 0.0173 0.44103 0.0
N35 N 0.88082 0.99675 0.42732 0.0
N36 N 0.90829 0.03093 0.42418 0.0
C37 C 0.90438 1.00534 0.4182 0.0
H38 H 0.88327 0.05719 0.44825 0.0
Co39 Co 0.93732 0.05151 0.41346 0.0
C40 C 0.92053 0.02708 0.35649 0.0
O41 O 0.89594 0.02907 0.36423 0.0
N42 N 0.96626 0.07162 0.40326 0.0
C43 C 0.99392 0.09597 0.37789 0.0
C44 C 0.97066 0.08274 0.37712 0.0
C45 C 0.98736 0.0781 0.41948 0.0
N46 N 1.00439 0.09294 0.40449 0.0
O47 O 0.96027 0.02543 0.43004 0.0
H48 H 0.95806 0.08103 0.35838 0.0
H49 H 0.99027 0.07217 0.44181 0.0
O50 O 0.93849 0.0351 0.37386 0.0
C51 C 0.96063 0.02971 0.45751 0.0
O52 O 0.94539 0.04823 0.46767 0.0
N53 N 0.91535 0.07914 0.40156 0.0
C54 C 0.88659 0.12525 0.39661 0.0
C55 C 0.89212 0.11012 0.37192 0.0
C56 C 0.90659 0.08699 0.37483 0.0
C57 C 0.91099 0.0944 0.42534 0.0
C58 C 0.8962 0.1171 0.42354 0.0
H59 H 0.91155 0.07641 0.35539 0.0
H60 H 0.91918 0.0888 0.44609 0.0
H61 H 0.91816 0.99356 0.40616 0.0
H62 H 0.85058 0.01785 0.45022 0.0
H63 H 1.00289 0.10636 0.36002 0.0
H64 H 0.88566 0.11632 0.35059 0.0
H65 H 0.89311 0.12871 0.44295 0.0
C66 C 0.23952 0.6433 0.69862 0.0
C67 C 0.25895 0.62494 0.69688 0.0
N68 N 0.27345 0.62987 0.67308 0.0
N69 N 0.24138 0.6598 0.67597 0.0
C70 C 0.26228 0.65121 0.66076 0.0
H71 H 0.22486 0.64456 0.71543 0.0
Co72 Co 0.21865 0.68794 0.67138 0.0
C73 C 0.22536 0.70696 0.61015 0.0
O74 O 0.20062 0.7136 0.60886 0.0
N75 N 0.19552 0.71669 0.66839 0.0
C76 C 0.161 0.74253 0.67436 0.0
C77 C 0.16974 0.71724 0.67461 0.0
C78 C 0.20191 0.7422 0.66461 0.0
N79 N 0.18125 0.75826 0.66824 0.0
O80 O 0.24301 0.71008 0.69106 0.0
H81 H 0.15787 0.70072 0.68036 0.0
H82 H 0.22159 0.74895 0.66055 0.0
O83 O 0.23452 0.69652 0.63336 0.0
C84 C 0.23717 0.71197 0.71794 0.0
O85 O 0.21719 0.69846 0.72761 0.0
N86 N 0.19369 0.6651 0.65502 0.0
C87 C 0.14877 0.63737 0.64008 0.0
C88 C 0.16711 0.64425 0.61876 0.0
C89 C 0.1899 0.6576 0.6268 0.0
C90 C 0.17782 0.65556 0.67623 0.0
C91 C 0.15508 0.64198 0.66929 0.0
H92 H 0.20388 0.66219 0.61017 0.0
H93 H 0.18168 0.66057 0.69868 0.0
H94 H 0.26935 0.66062 0.64128 0.0
H95 H 0.26177 0.60891 0.71184 0.0
H96 H 0.14129 0.74892 0.67892 0.0
H97 H 0.16354 0.63998 0.59602 0.0
H98 H 0.14172 0.63689 0.68658 0.0
C99 C 0.62616 0.99652 0.94617 0.0
C100 C 0.64426 0.01615 0.94767 0.0
N101 N 0.64464 0.02862 0.92194 0.0
N102 N 0.61492 0.99644 0.91967 0.0
C103 C 0.62675 0.01617 0.90513 0.0
H104 H 0.62132 0.98318 0.96352 0.0
Co105 Co 0.588 0.97304 0.91155 0.0
C106 C 0.5712 0.98187 0.84962 0.0
O107 O 0.56385 0.95735 0.84761 0.0
N108 N 0.56042 0.94898 0.90522 0.0
C109 C 0.53626 0.91286 0.90737 0.0
C110 C 0.56119 0.92266 0.90754 0.0
C111 C 0.53458 0.95456 0.90333 0.0
N112 N 0.51956 0.93295 0.90494 0.0
O113 O 0.56395 0.99583 0.9311 0.0
H114 H 0.57846 0.91103 0.91068 0.0
H115 H 0.52682 0.9742 0.90254 0.0
O116 O 0.58118 0.99036 0.87349 0.0
C117 C 0.5602 0.98766 0.95701 0.0
O118 O 0.57272 0.96661 0.96551 0.0
N119 N 0.61252 0.94954 0.89602 0.0
C120 C 0.6412 0.90473 0.88334 0.0
C121 C 0.63389 0.92209 0.86112 0.0
C122 C 0.61992 0.9448 0.868 0.0
C123 C 0.62234 0.93468 0.91802 0.0
C124 C 0.63652 0.91208 0.91221 0.0
H125 H 0.61454 0.95774 0.85062 0.0
H126 H 0.61692 0.93902 0.94021 0.0
H127 H 0.62198 0.02172 0.88306 0.0
H128 H 0.6564 0.0208 0.96626 0.0
H129 H 0.53079 0.89255 0.90978 0.0
H130 H 0.63805 0.91766 0.83857 0.0
H131 H 0.64177 0.89945 0.93015 0.0
C132 C 0.27637 0.6535 0.35899 0.0
C133 C 0.2575 0.63454 0.35995 0.0
N134 N 0.24559 0.63575 0.38603 0.0
N135 N 0.27663 0.66671 0.38432 0.0
C136 C 0.25768 0.65546 0.40046 0.0
H137 H 0.28938 0.65721 0.34101 0.0
Co138 Co 0.29998 0.69386 0.3911 0.0
C139 C 0.29145 0.71198 0.4524 0.0
O140 O 0.31592 0.71945 0.45435 0.0
N141 N 0.32397 0.72156 0.39626 0.0
C142 C 0.36008 0.74561 0.39359 0.0
C143 C 0.35024 0.72068 0.39379 0.0
C144 C 0.31842 0.74743 0.39774 0.0
N145 N 0.34004 0.76239 0.39589 0.0
O146 O 0.27703 0.71717 0.37091 0.0
H147 H 0.3618 0.7033 0.39094 0.0
H148 H 0.29881 0.75521 0.39858 0.0
O149 O 0.283 0.70168 0.42874 0.0
C150 C 0.28453 0.71962 0.34459 0.0
O151 O 0.30547 0.70683 0.3363 0.0
N152 N 0.3234 0.6698 0.4075 0.0
C153 C 0.36506 0.63665 0.42006 0.0
C154 C 0.3489 0.64596 0.4424 0.0
C155 C 0.32766 0.66213 0.43557 0.0
C156 C 0.3377 0.65925 0.38553 0.0
C157 C 0.35867 0.64288 0.39126 0.0
H158 H 0.31517 0.66842 0.45296 0.0
H159 H 0.33375 0.66501 0.36335 0.0
H160 H 0.25282 0.66165 0.42228 0.0
H161 H 0.25343 0.62052 0.34292 0.0
H162 H 0.38038 0.75101 0.39111 0.0
H163 H 0.35279 0.64099 0.46487 0.0
H164 H 0.37062 0.63635 0.37327 0.0
C165 C 0.63153 0.0318 0.60184 0.0
C166 C 0.64954 0.01211 0.60405 0.0
N167 N 0.6457 0.99946 0.62939 0.0
N168 N 0.61636 0.03189 0.62567 0.0
C169 C 0.62536 0.01195 0.64211 0.0
H170 H 0.62972 0.04541 0.58401 0.0
Co171 Co 0.58971 0.05602 0.63059 0.0
C172 C 0.56913 0.04833 0.69155 0.0
O173 O 0.56147 0.07278 0.69302 0.0
N174 N 0.5626 0.08085 0.63384 0.0
C175 C 0.5399 0.11749 0.62753 0.0
C176 C 0.56438 0.10691 0.6294 0.0
C177 C 0.53655 0.07621 0.63476 0.0
N178 N 0.52247 0.09817 0.63073 0.0
O179 O 0.56629 0.03316 0.61009 0.0
H180 H 0.58206 0.11779 0.62598 0.0
H181 H 0.52805 0.05692 0.63656 0.0
O182 O 0.58023 0.03987 0.66838 0.0
C183 C 0.56444 0.03951 0.58332 0.0
O184 O 0.57837 0.05935 0.574 0.0
N185 N 0.61381 0.07932 0.64761 0.0
C186 C 0.64103 0.12436 0.66294 0.0
C187 C 0.63249 0.10683 0.68438 0.0
C188 C 0.61926 0.08404 0.67622 0.0
C189 C 0.62542 0.094 0.62661 0.0
C190 C 0.63885 0.11681 0.63373 0.0
H191 H 0.61282 0.07105 0.69305 0.0
H192 H 0.62168 0.08959 0.60398 0.0
H193 H 0.61708 1.00665 0.66286 0.0
H194 H 0.66465 1.00797 0.58834 0.0
H195 H 0.53522 0.13772 0.6231 0.0
H196 H 0.63494 0.11128 0.70726 0.0
H197 H 0.64525 0.12948 0.61633 0.0
C198 C 0.24941 0.36842 0.84687 0.0
C199 C 0.26895 0.38671 0.84788 0.0
N200 N 0.27687 0.38935 0.87569 0.0
N201 N 0.24487 0.3593 0.87384 0.0
C202 C 0.26186 0.37246 0.89104 0.0
H203 H 0.23922 0.36208 0.82752 0.0
Co204 Co 0.21996 0.33353 0.88135 0.0
C205 C 0.22837 0.31653 0.9441 0.0
O206 O 0.20443 0.30754 0.94613 0.0
N207 N 0.19477 0.30731 0.88721 0.0
C208 C 0.15814 0.28427 0.88275 0.0
C209 C 0.16888 0.30888 0.88188 0.0
C210 C 0.19923 0.28149 0.8912 0.0
N211 N 0.1773 0.26709 0.88852 0.0
O212 O 0.24207 0.3081 0.86306 0.0
H213 H 0.15853 0.3265 0.87612 0.0
H214 H 0.21845 0.27323 0.89447 0.0
O215 O 0.23616 0.32693 0.92023 0.0
C216 C 0.23409 0.30442 0.83701 0.0
O217 O 0.21388 0.31793 0.82787 0.0
N218 N 0.19698 0.35922 0.89539 0.0
C219 C 0.15292 0.39044 0.90277 0.0
C220 C 0.16549 0.37927 0.92689 0.0
C221 C 0.18789 0.36397 0.92279 0.0
C222 C 0.18617 0.3717 0.87214 0.0
C223 C 0.16426 0.3875 0.87533 0.0
H224 H 0.19683 0.35529 0.94153 0.0
H225 H 0.19335 0.36764 0.85053 0.0
H226 H 0.26308 0.36982 0.91432 0.0
H227 H 0.27704 0.39681 0.82933 0.0
H228 H 0.13791 0.27933 0.87868 0.0
H229 H 0.15749 0.38148 0.94853 0.0
H230 H 0.15509 0.39557 0.85611 0.0
C231 C 0.9038 1.00648 0.10494 0.0
C232 C 0.88435 0.02471 0.10766 0.0
N233 N 0.87929 0.02805 0.13615 0.0
N234 N 0.91117 0.99835 0.13156 0.0
C235 C 0.89577 0.01171 0.15021 0.0
H236 H 0.9117 0.99926 0.08472 0.0
Co237 Co 0.9366 0.97313 0.138 0.0
C238 C 0.95853 1.00407 0.18884 0.0
O239 O 0.97594 0.01638 0.17304 0.0
N240 N 0.96225 0.94777 0.14342 0.0
C241 C 0.98458 0.91119 0.13626 0.0
C242 C 0.96029 0.9225 0.13537 0.0
C243 C 0.98787 0.95137 0.14919 0.0
N244 N 1.00195 0.92947 0.14466 0.0
O245 O 0.96205 0.99503 0.11897 0.0
H246 H 0.94263 0.9133 0.1275 0.0
H247 H 0.99638 0.97022 0.15408 0.0
O248 O 0.94325 0.98755 0.17684 0.0
C249 C 0.96557 0.98672 0.09301 0.0
O250 O 0.95195 0.96638 0.08431 0.0
N251 N 0.91149 0.95057 0.15353 0.0
C252 C 0.88092 0.90699 0.16607 0.0
C253 C 0.89825 0.9172 0.18692 0.0
C254 C 0.91347 0.93905 0.18019 0.0
C255 C 0.89347 0.94207 0.13384 0.0
C256 C 0.87784 0.92043 0.13975 0.0
H257 H 0.92833 0.94518 0.19544 0.0
H258 H 0.89267 0.95083 0.11249 0.0
H259 H 0.89662 1.00947 0.17357 0.0
H260 H 0.87422 0.03423 0.08993 0.0
H261 H 0.98925 0.89135 0.12999 0.0
H262 H 0.90118 0.90744 0.20754 0.0
H263 H 0.86508 0.91303 0.12284 0.0
C264 C 0.74814 0.65026 0.85089 0.0
C265 C 0.7669 0.63122 0.85243 0.0
N266 N 0.77499 0.62935 0.88023 0.0
N267 N 0.74427 0.66051 0.87753 0.0
C268 C 0.76084 0.64728 0.89508 0.0
H269 H 0.7378 0.65615 0.83148 0.0
Co270 Co 0.72051 0.68734 0.88433 0.0
C271 C 0.72919 0.70495 0.94668 0.0
O272 O 0.70547 0.7145 0.94861 0.0
N273 N 0.69636 0.71464 0.88954 0.0
C274 C 0.66044 0.73866 0.88483 0.0
C275 C 0.67039 0.71375 0.88453 0.0
C276 C 0.70167 0.74041 0.89282 0.0
N277 N 0.68017 0.75539 0.88991 0.0
O278 O 0.74391 0.71139 0.86587 0.0
H279 H 0.65939 0.69636 0.87939 0.0
H280 H 0.72117 0.74816 0.8957 0.0
O281 O 0.73671 0.69402 0.92299 0.0
C282 C 0.73648 0.71482 0.83962 0.0
O283 O 0.71546 0.70247 0.83064 0.0
N284 N 0.69647 0.66283 0.8987 0.0
C285 C 0.65208 0.63221 0.90687 0.0
C286 C 0.66529 0.64312 0.93077 0.0
C287 C 0.68784 0.65809 0.92627 0.0
C288 C 0.68498 0.65067 0.8756 0.0
C289 C 0.66287 0.63523 0.87917 0.0
H290 H 0.6974 0.6664 0.94489 0.0
H291 H 0.6919 0.65463 0.85386 0.0
H292 H 0.76269 0.65088 0.91817 0.0
H293 H 0.77367 0.61935 0.83449 0.0
H294 H 0.64034 0.74412 0.88081 0.0
H295 H 0.65776 0.64081 0.9526 0.0
H296 H 0.65323 0.62735 0.86009 0.0
C297 C 0.11277 1.0069 0.60474 0.0
C298 C 0.1305 0.02657 0.60974 0.0
N299 N 0.13435 0.02863 0.63864 0.0
N300 N 0.10523 0.99667 0.63035 0.0
C301 C 0.11886 1.01018 0.65064 0.0
H302 H 0.10613 1.00026 0.58368 0.0
Co303 Co 0.08158 0.96936 0.63486 0.0
C304 C 0.06109 0.97492 0.69616 0.0
O305 O 0.05596 0.94982 0.69763 0.0
N306 N 0.05727 0.94143 0.63868 0.0
C307 C 0.03901 0.9019 0.63923 0.0
C308 C 0.06202 0.9155 0.6409 0.0
C309 C 0.0309 0.94287 0.63624 0.0
N310 N 0.01945 0.91911 0.636 0.0
O311 O 0.05552 0.98932 0.61399 0.0
H312 H 0.08087 0.90646 0.64303 0.0
H313 H 0.02026 0.96094 0.63346 0.0
O314 O 0.07067 0.9845 0.67273 0.0
C315 C 0.05369 0.98195 0.58742 0.0
O316 O 0.06907 0.96305 0.57846 0.0
N317 N 0.10832 0.94903 0.65154 0.0
C318 C 0.14022 0.90714 0.66676 0.0
C319 C 0.13085 0.92448 0.68809 0.0
C320 C 0.1151 0.94559 0.67999 0.0
C321 C 0.12062 0.93506 0.63038 0.0
C322 C 0.13636 0.91375 0.63746 0.0
H323 H 0.10779 0.95824 0.69677 0.0
H324 H 0.11587 0.93873 0.60782 0.0
H325 H 0.11752 1.00651 0.67374 0.0
H326 H 0.14044 0.03789 0.59328 0.0
H327 H 0.0369 0.88088 0.63993 0.0
H328 H 0.13451 0.92099 0.71095 0.0
H329 H 0.14331 0.9013 0.62008 0.0
C330 C 0.76479 0.36795 0.36149 0.0
C331 C 0.74494 0.38571 0.36466 0.0
N332 N 0.74123 0.38998 0.39326 0.0
N333 N 0.77354 0.36078 0.38793 0.0
C334 C 0.75899 0.37474 0.40694 0.0
H335 H 0.77258 0.361 0.3411 0.0
Co336 Co 0.80053 0.33697 0.39361 0.0
C337 C 0.79416 0.31718 0.45527 0.0
O338 O 0.81848 0.30919 0.4567 0.0
N339 N 0.82833 0.31259 0.39812 0.0
C340 C 0.86809 0.29502 0.39597 0.0
C341 C 0.85424 0.31781 0.39819 0.0
C342 C 0.82718 0.28612 0.39631 0.0
N343 N 0.85108 0.27512 0.39449 0.0
O344 O 0.77992 0.31048 0.37456 0.0
H345 H 0.86302 0.33689 0.3984 0.0
H346 H 0.8092 0.27514 0.39456 0.0
O347 O 0.78561 0.32787 0.43193 0.0
C348 C 0.787 0.30738 0.34813 0.0
O349 O 0.80661 0.32144 0.33847 0.0
N350 N 0.82131 0.36398 0.40879 0.0
C351 C 0.8655 0.394 0.4199 0.0
C352 C 0.85046 0.38406 0.44291 0.0
C353 C 0.82819 0.36917 0.4369 0.0
C354 C 0.83316 0.37693 0.38657 0.0
C355 C 0.85548 0.3919 0.39157 0.0
H356 H 0.81777 0.36078 0.45483 0.0
H357 H 0.82708 0.37307 0.36443 0.0
H358 H 0.76135 0.37376 0.43031 0.0
H359 H 0.73454 0.39531 0.34718 0.0
H360 H 0.8891 0.29328 0.39452 0.0
H361 H 0.85682 0.38624 0.46525 0.0
H362 H 0.86615 0.3993 0.37305 0.0
C363 C 0.39796 0.02084 0.09654 0.0
C364 C 0.37943 1.00168 0.09932 0.0
N365 N 0.37958 0.99315 0.12706 0.0
N366 N 0.40982 0.02461 0.12233 0.0
C367 C 0.39824 1.00751 0.14057 0.0
H368 H 0.40219 0.03173 0.077 0.0
Co369 Co 0.4355 0.04968 0.12791 0.0
C370 C 0.45412 0.04387 0.19005 0.0
O371 O 0.46048 0.06871 0.19143 0.0
N372 N 0.46158 0.0751 0.13209 0.0
C373 C 0.48472 0.11164 0.12783 0.0
C374 C 0.46017 0.1009 0.12622 0.0
C375 C 0.48723 0.07064 0.13697 0.0
N376 N 0.50167 0.09252 0.13458 0.0
O377 O 0.46037 0.02732 0.10907 0.0
H378 H 0.44271 0.11128 0.12002 0.0
H379 H 0.4953 0.05148 0.14122 0.0
O380 O 0.44408 0.03455 0.16663 0.0
C381 C 0.46329 0.03469 0.08274 0.0
O382 O 0.44931 0.05452 0.07346 0.0
N383 N 0.41018 0.07264 0.14266 0.0
C384 C 0.37829 0.11582 0.15195 0.0
C385 C 0.38854 0.10183 0.17557 0.0
C386 C 0.40402 0.07974 0.17046 0.0
C387 C 0.39829 0.08459 0.11973 0.0
C388 C 0.38223 0.10618 0.12385 0.0
H389 H 0.41145 0.06923 0.18887 0.0
H390 H 0.40299 0.07853 0.09783 0.0
H391 H 0.40336 1.00574 0.16329 0.0
H392 H 0.3664 0.99518 0.08226 0.0
H393 H 0.48978 0.13186 0.12395 0.0
H394 H 0.38536 0.10845 0.19766 0.0
H395 H 0.37472 0.11644 0.10504 0.0
C396 C 0.74793 0.37388 0.71244 0.0
C397 C 0.76617 0.39344 0.71315 0.0
N398 N 0.7736 0.39864 0.68569 0.0
N399 N 0.74384 0.36641 0.68472 0.0
C400 C 0.75976 0.38187 0.66877 0.0
H401 H 0.73797 0.36588 0.73108 0.0
Co402 Co 0.71909 0.34109 0.67536 0.0
C403 C 0.72763 0.32563 0.61297 0.0
O404 O 0.7026 0.32055 0.61042 0.0
N405 N 0.69386 0.31522 0.66761 0.0
C406 C 0.65737 0.29167 0.66891 0.0
C407 C 0.66775 0.31636 0.67142 0.0
C408 C 0.69878 0.2896 0.66273 0.0
N409 N 0.67698 0.27489 0.66356 0.0
O410 O 0.73986 0.31517 0.69476 0.0
H411 H 0.65689 0.33364 0.67721 0.0
H412 H 0.71822 0.28167 0.6602 0.0
O413 O 0.73667 0.33416 0.63731 0.0
C414 C 0.73012 0.3107 0.71986 0.0
O415 O 0.70932 0.32394 0.72773 0.0
N416 N 0.69739 0.36729 0.66027 0.0
C417 C 0.65565 0.40063 0.64942 0.0
C418 C 0.67168 0.39211 0.62658 0.0
C419 C 0.69304 0.37588 0.63258 0.0
C420 C 0.68364 0.3776 0.68284 0.0
C421 C 0.66265 0.39425 0.67795 0.0
H422 H 0.70527 0.36993 0.61482 0.0
H423 H 0.68784 0.37124 0.70476 0.0
H424 H 0.76062 0.38133 0.64527 0.0
H425 H 0.77342 0.40302 0.73253 0.0
H426 H 0.63707 0.28637 0.67165 0.0
H427 H 0.66725 0.39728 0.60428 0.0
H428 H 0.65085 0.40041 0.69622 0.0
C429 C 0.41297 1.01135 0.44103 0.0
C430 C 0.39447 0.03039 0.43693 0.0
N431 N 0.38842 0.03126 0.40845 0.0
N432 N 0.41887 1.00035 0.41523 0.0
C433 C 0.40339 0.01274 0.39575 0.0
H434 H 0.42122 1.00562 0.46169 0.0
Co435 Co 0.44258 0.97319 0.40998 0.0
C436 C 0.46231 0.97894 0.34848 0.0
O437 O 0.46926 0.95429 0.34715 0.0
N438 N 0.46689 0.94526 0.40558 0.0
C439 C 0.48452 0.90547 0.40526 0.0
C440 C 0.46173 0.91938 0.40377 0.0
C441 C 0.49332 0.94635 0.40772 0.0
N442 N 0.50441 0.92241 0.40806 0.0
O443 O 0.4691 0.99366 0.42917 0.0
H444 H 0.44267 0.9106 0.40236 0.0
H445 H 0.50426 0.96427 0.41037 0.0
O446 O 0.452 0.98801 0.37177 0.0
C447 C 0.47194 0.98655 0.45563 0.0
O448 O 0.45738 0.96729 0.46527 0.0
N449 N 0.41554 0.95253 0.39467 0.0
C450 C 0.38347 0.90994 0.38272 0.0
C451 C 0.39345 0.92535 0.36004 0.0
C452 C 0.40934 0.94685 0.36648 0.0
C453 C 0.40296 0.9402 0.41682 0.0
C454 C 0.38699 0.91867 0.41139 0.0
H455 H 0.4174 0.95779 0.34873 0.0
H456 H 0.40755 0.94544 0.43904 0.0
H457 H 0.40303 1.00818 0.37277 0.0
H458 H 0.38552 0.0421 0.4538 0.0
H459 H 0.48626 0.8844 0.40496 0.0
H460 H 0.39029 0.91996 0.33753 0.0
H461 H 0.37964 0.90762 0.42967 0.0
C462 C 0.78371 0.64907 0.1967 0.0
C463 C 0.76407 0.63086 0.19528 0.0
N464 N 0.75117 0.63396 0.16993 0.0
N465 N 0.7834 0.66369 0.17242 0.0
C466 C 0.76336 0.65408 0.15648 0.0
H467 H 0.79778 0.65112 0.2141 0.0
Co468 Co 0.80782 0.68977 0.16525 0.0
C469 C 0.79958 0.70626 0.1029 0.0
O470 O 0.82432 0.71238 0.10019 0.0
N471 N 0.83341 0.71654 0.15914 0.0
C472 C 0.87145 0.73686 0.15224 0.0
C473 C 0.85853 0.71352 0.15053 0.0
C474 C 0.83173 0.74244 0.16545 0.0
N475 N 0.85468 0.75501 0.16186 0.0
O476 O 0.78554 0.7144 0.18462 0.0
H477 H 0.86749 0.69562 0.14335 0.0
H478 H 0.81437 0.75191 0.17359 0.0
O479 O 0.79109 0.69738 0.12718 0.0
C480 C 0.79143 0.71597 0.2116 0.0
O481 O 0.811 0.70183 0.22125 0.0
N482 N 0.83019 0.66433 0.14987 0.0
C483 C 0.87322 0.63384 0.13547 0.0
C484 C 0.8543 0.64003 0.11438 0.0
C485 C 0.83247 0.65493 0.12219 0.0
C486 C 0.84662 0.65585 0.17117 0.0
C487 C 0.86837 0.64074 0.16446 0.0
H488 H 0.81824 0.65956 0.10574 0.0
H489 H 0.84402 0.66281 0.19319 0.0
H490 H 0.75794 0.66157 0.13536 0.0
H491 H 0.76028 0.61593 0.21133 0.0
H492 H 0.89177 0.74019 0.14699 0.0
H493 H 0.85687 0.63426 0.09191 0.0
H494 H 0.8823 0.63639 0.18151 0.0
C495 C 0.12518 0.02681 0.94782 0.0
C496 C 0.14411 1.00792 0.94625 0.0
N497 N 0.14183 0.99549 0.92049 0.0
N498 N 0.11094 0.02653 0.9232 0.0
C499 C 0.12151 1.00726 0.9069 0.0
H500 H 0.12226 0.04027 0.96565 0.0
Co501 Co 0.08382 0.04985 0.91652 0.0
C502 C 0.06526 0.04091 0.85487 0.0
O503 O 0.05767 0.06534 0.8531 0.0
N504 N 0.0561 0.07396 0.91096 0.0
C505 C 0.03263 0.10988 0.90277 0.0
C506 C 0.05734 0.0998 0.90467 0.0
C507 C 0.03015 0.06909 0.91316 0.0
N508 N 0.01568 0.09057 0.90828 0.0
O509 O 0.06048 0.02693 0.93707 0.0
H510 H 0.07486 0.11099 0.9012 0.0
H511 H 0.02182 0.05014 0.91777 0.0
O512 O 0.07579 0.03256 0.87849 0.0
C513 C 0.05833 0.03443 0.9635 0.0
O514 O 0.0718 0.05496 0.97189 0.0
N515 N 0.10787 0.07328 0.90024 0.0
C516 C 0.13607 0.11806 0.88628 0.0
C517 C 0.12892 0.10004 0.86455 0.0
C518 C 0.11518 0.07735 0.87208 0.0
C519 C 0.11726 0.08898 0.92181 0.0
C520 C 0.13126 0.11153 0.91535 0.0
H521 H 0.10977 0.0639 0.85511 0.0
H522 H 0.1118 0.08517 0.94409 0.0
H523 H 0.11446 1.002 0.88551 0.0
H524 H 0.15885 1.00424 0.96259 0.0
H525 H 0.02744 0.12994 0.89807 0.0
H526 H 0.13305 0.10393 0.84188 0.0
H527 H 0.13635 0.12472 0.93289 0.0
C528 C 0.77294 0.86681 0.69864 0.0
C529 C 0.75367 0.88527 0.69637 0.0
N530 N 0.74676 0.88747 0.66816 0.0
N531 N 0.77839 0.85725 0.67207 0.0
C532 C 0.7622 0.8702 0.65387 0.0
H533 H 0.78288 0.8612 0.71841 0.0
Co534 Co 0.80454 0.8328 0.66541 0.0
C535 C 0.79581 0.81232 0.60415 0.0
O536 O 0.81964 0.80306 0.60234 0.0
N537 N 0.83141 0.80793 0.66026 0.0
C538 C 0.87046 0.78904 0.66265 0.0
C539 C 0.85738 0.81239 0.66176 0.0
C540 C 0.82933 0.78152 0.66024 0.0
N541 N 0.8528 0.76961 0.66195 0.0
O542 O 0.78385 0.80697 0.68479 0.0
H543 H 0.86649 0.83132 0.66367 0.0
H544 H 0.81091 0.77119 0.66061 0.0
O545 O 0.78835 0.82399 0.62739 0.0
C546 C 0.79146 0.80398 0.71104 0.0
O547 O 0.81152 0.81775 0.7202 0.0
N548 N 0.82564 0.85929 0.64973 0.0
C549 C 0.86765 0.89247 0.63914 0.0
C550 C 0.85527 0.87927 0.61614 0.0
C551 C 0.83397 0.86293 0.62184 0.0
C552 C 0.83592 0.87385 0.6718 0.0
C553 C 0.85686 0.89064 0.66699 0.0
H554 H 0.8255 0.85237 0.604 0.0
H555 H 0.82928 0.87069 0.69381 0.0
H556 H 0.76201 0.86717 0.63061 0.0
H557 H 0.7461 0.89674 0.7142 0.0
H558 H 0.89137 0.78658 0.66459 0.0
H559 H 0.86283 0.88053 0.59421 0.0
H560 H 0.8659 0.90028 0.68542 0.0
C561 C 0.40948 0.51786 0.9422 0.0
C562 C 0.39131 0.49837 0.9397 0.0
N563 N 0.38622 0.4945 0.91128 0.0
N564 N 0.41617 0.52637 0.91554 0.0
C565 C 0.40151 0.5119 0.89701 0.0
H566 H 0.41671 0.52589 0.96239 0.0
Co567 Co 0.43917 0.55424 0.91052 0.0
C568 C 0.45839 0.55281 0.84822 0.0
O569 O 0.46593 0.57722 0.85056 0.0
N570 N 0.46257 0.58291 0.90742 0.0
C571 C 0.47953 0.62284 0.91136 0.0
C572 C 0.45687 0.60864 0.9094 0.0
C573 C 0.48904 0.58218 0.90811 0.0
N574 N 0.4998 0.60616 0.91085 0.0
O575 O 0.46657 0.5338 0.92844 0.0
H576 H 0.43755 0.61688 0.91063 0.0
H577 H 0.50025 0.56429 0.90803 0.0
O578 O 0.44799 0.54134 0.87023 0.0
C579 C 0.46915 0.54123 0.95491 0.0
O580 O 0.45419 0.56035 0.96419 0.0
N581 N 0.41128 0.57487 0.89712 0.0
C582 C 0.37706 0.61661 0.89018 0.0
C583 C 0.38874 0.6048 0.8659 0.0
C584 C 0.40558 0.58357 0.86978 0.0
C585 C 0.39773 0.58414 0.92043 0.0
C586 C 0.3805 0.60503 0.91747 0.0
H587 H 0.41479 0.57544 0.8509 0.0
H588 H 0.4022 0.57686 0.94192 0.0
H589 H 0.40179 0.51436 0.87365 0.0
H590 H 0.38178 0.48858 0.95761 0.0
H591 H 0.48089 0.64383 0.91371 0.0
H592 H 0.38601 0.61282 0.84433 0.0
H593 H 0.37192 0.61351 0.93681 0.0
C594 C 0.74429 0.15225 0.20839 0.0
C595 C 0.76351 0.13362 0.20649 0.0
N596 N 0.7712 0.13188 0.17854 0.0
N597 N 0.73993 0.16242 0.18185 0.0
C598 C 0.75641 0.14949 0.16405 0.0
H599 H 0.73428 0.15816 0.22798 0.0
Co600 Co 0.71608 0.18881 0.17432 0.0
C601 C 0.72572 0.20614 0.11247 0.0
O602 O 0.70212 0.21592 0.11032 0.0
N603 N 0.69153 0.2159 0.16786 0.0
C604 C 0.6547 0.23875 0.16417 0.0
C605 C 0.66525 0.21418 0.16556 0.0
C606 C 0.69632 0.24196 0.16759 0.0
N607 N 0.67424 0.25622 0.16565 0.0
O608 O 0.73857 0.21317 0.19409 0.0
H609 H 0.65397 0.19645 0.16534 0.0
H610 H 0.71559 0.25041 0.16961 0.0
O611 O 0.73317 0.19575 0.13647 0.0
C612 C 0.73113 0.21673 0.22031 0.0
O613 O 0.71017 0.20434 0.22925 0.0
N614 N 0.6934 0.16391 0.15824 0.0
C615 C 0.64996 0.13457 0.1425 0.0
C616 C 0.66842 0.14194 0.12156 0.0
C617 C 0.69037 0.15632 0.12997 0.0
C618 C 0.6777 0.1538 0.17927 0.0
C619 C 0.65563 0.13931 0.17188 0.0
H620 H 0.70412 0.16179 0.11348 0.0
H621 H 0.68099 0.15917 0.20174 0.0
H622 H 0.75733 0.15272 0.14086 0.0
H623 H 0.77152 0.12268 0.22451 0.0
H624 H 0.63415 0.24337 0.16241 0.0
H625 H 0.66535 0.13763 0.09874 0.0
H626 H 0.6421 0.13384 0.18887 0.0
C627 C 0.12306 0.49464 0.44282 0.0
C628 C 0.14145 0.51409 0.44202 0.0
N629 N 0.13998 0.52606 0.41599 0.0
N630 N 0.10999 0.49406 0.41741 0.0
C631 C 0.1207 0.51343 0.40142 0.0
H632 H 0.11958 0.48153 0.46079 0.0
Co633 Co 0.0833 0.47026 0.41019 0.0
C634 C 0.06738 0.47727 0.34787 0.0
O635 O 0.06088 0.4525 0.34607 0.0
N636 N 0.05598 0.446 0.40444 0.0
C637 C 0.03167 0.41005 0.40711 0.0
C638 C 0.05666 0.41975 0.40747 0.0
C639 C 0.03024 0.45164 0.40193 0.0
N640 N 0.01508 0.43017 0.40385 0.0
O641 O 0.05921 0.49334 0.42904 0.0
H642 H 0.07393 0.40819 0.41119 0.0
H643 H 0.02262 0.47131 0.4005 0.0
O644 O 0.07644 0.48643 0.37183 0.0
C645 C 0.05625 0.48603 0.45537 0.0
O646 O 0.06931 0.46547 0.46435 0.0
N647 N 0.10807 0.44673 0.39543 0.0
C648 C 0.14437 0.40699 0.38648 0.0
C649 C 0.13528 0.42196 0.36301 0.0
C650 C 0.1175 0.44233 0.36806 0.0
C651 C 0.11774 0.4331 0.41843 0.0
C652 C 0.13574 0.41317 0.41449 0.0
H653 H 0.11165 0.45427 0.34998 0.0
H654 H 0.11052 0.43712 0.44004 0.0
H655 H 0.11438 0.51828 0.37965 0.0
H656 H 0.15522 0.51857 0.45918 0.0
H657 H 0.02609 0.38983 0.40999 0.0
H658 H 0.14198 0.41805 0.34111 0.0
H659 H 0.14212 0.40204 0.43321 0.0
C660 C 0.79103 0.14534 0.857 0.0
C661 C 0.77428 0.12463 0.85305 0.0
N662 N 0.75383 0.12758 0.87116 0.0
N663 N 0.78139 0.16129 0.8777 0.0
C664 C 0.75865 0.15006 0.8858 0.0
H665 H 0.80918 0.14859 0.84559 0.0
Co666 Co 0.79616 0.19308 0.88989 0.0
C667 C 0.78776 0.1842 0.95425 0.0
O668 O 0.81288 0.18042 0.95784 0.0
N669 N 0.81011 0.22607 0.90148 0.0
C670 C 0.81964 0.26277 0.92546 0.0
C671 C 0.81174 0.23735 0.92809 0.0
C672 C 0.81745 0.24542 0.88306 0.0
N673 N 0.82313 0.26784 0.89716 0.0
O674 O 0.76701 0.21138 0.87349 0.0
H675 H 0.80679 0.22865 0.9485 0.0
H676 H 0.81796 0.24339 0.85966 0.0
O677 O 0.77884 0.18947 0.92875 0.0
C678 C 0.77322 0.21339 0.84662 0.0
O679 O 0.79458 0.20157 0.83785 0.0
N680 N 0.82701 0.17521 0.90123 0.0
C681 C 0.87373 0.14704 0.89971 0.0
C682 C 0.85123 0.13593 0.91183 0.0
C683 C 0.82787 0.15025 0.91199 0.0
C684 C 0.84907 0.18616 0.89003 0.0
C685 C 0.87256 0.17276 0.8897 0.0
H686 H 0.81022 0.14087 0.9195 0.0
H687 H 0.84842 0.2047 0.87908 0.0
H688 H 0.74564 0.15851 0.90173 0.0
H689 H 0.77723 0.10844 0.83827 0.0
H690 H 0.82238 0.27663 0.94301 0.0
H691 H 0.85132 0.11595 0.91951 0.0
H692 H 0.88948 0.18214 0.88022 0.0
C693 C 0.125 0.51967 0.09574 0.0
C694 C 0.14388 0.50083 0.09852 0.0
N695 N 0.14554 0.49407 0.12675 0.0
N696 N 0.11463 0.52477 0.12202 0.0
C697 C 0.12765 0.50901 0.1406 0.0
H698 H 0.11941 0.52929 0.07579 0.0
Co699 Co 0.08845 0.54931 0.12759 0.0
C700 C 0.07031 0.54297 0.18961 0.0
O701 O 0.06361 0.5677 0.19109 0.0
N702 N 0.06177 0.57426 0.13171 0.0
C703 C 0.03809 0.61031 0.12603 0.0
C704 C 0.06284 0.59998 0.12529 0.0
C705 C 0.03609 0.56947 0.13615 0.0
N706 N 0.02132 0.59106 0.13279 0.0
O707 O 0.06412 0.52646 0.10856 0.0
H708 H 0.08017 0.61052 0.11908 0.0
H709 H 0.02823 0.55024 0.14047 0.0
O710 O 0.08026 0.53386 0.1661 0.0
C711 C 0.06122 0.53367 0.08217 0.0
O712 O 0.07424 0.55426 0.07322 0.0
N713 N 0.11339 0.57262 0.14263 0.0
C714 C 0.14622 0.61502 0.15285 0.0
C715 C 0.13623 0.60043 0.17613 0.0
C716 C 0.12025 0.57878 0.17053 0.0
C717 C 0.12497 0.58507 0.11991 0.0
C718 C 0.1414 0.60635 0.12448 0.0
H719 H 0.1132 0.56771 0.1887 0.0
H720 H 0.11994 0.5795 0.09791 0.0
H721 H 0.12405 0.50841 0.16376 0.0
H722 H 0.15588 0.49318 0.08116 0.0
H723 H 0.03278 0.63034 0.12138 0.0
H724 H 0.14013 0.60618 0.19839 0.0
H725 H 0.14869 0.61703 0.10588 0.0
C726 C 0.75607 0.86549 0.35468 0.0
C727 C 0.77589 0.88316 0.35876 0.0
N728 N 0.77948 0.8865 0.38756 0.0
N729 N 0.74717 0.85755 0.38074 0.0
C730 C 0.76165 0.87084 0.40043 0.0
H731 H 0.74837 0.85912 0.33396 0.0
Co732 Co 0.72026 0.83363 0.38547 0.0
C733 C 0.7263 0.81362 0.44758 0.0
O734 O 0.70194 0.80577 0.44927 0.0
N735 N 0.69298 0.80938 0.38893 0.0
C736 C 0.65461 0.78987 0.38236 0.0
C737 C 0.6676 0.81335 0.38227 0.0
C738 C 0.69493 0.78325 0.39276 0.0
N739 N 0.67187 0.77099 0.38892 0.0
O740 O 0.74125 0.80731 0.36686 0.0
H741 H 0.65913 0.83188 0.37631 0.0
H742 H 0.71316 0.77326 0.39699 0.0
O743 O 0.73467 0.82436 0.42421 0.0
C744 C 0.73441 0.80452 0.34029 0.0
O745 O 0.715 0.81881 0.33048 0.0
N746 N 0.6988 0.86039 0.40012 0.0
C747 C 0.6562 0.89347 0.40819 0.0
C748 C 0.66758 0.88045 0.43189 0.0
C749 C 0.68917 0.86416 0.42747 0.0
C750 C 0.68963 0.87495 0.37751 0.0
C751 C 0.66837 0.89162 0.38103 0.0
H752 H 0.69695 0.8539 0.44584 0.0
H753 H 0.69743 0.87181 0.35595 0.0
H754 H 0.75919 0.86907 0.4237 0.0
H755 H 0.78633 0.89332 0.34177 0.0
H756 H 0.63417 0.78684 0.3774 0.0
H757 H 0.6591 0.88187 0.45339 0.0
H758 H 0.66024 0.9012 0.3621 0.0
C759 C 0.40294 0.49961 0.60605 0.0
C760 C 0.38478 0.51905 0.60887 0.0
N761 N 0.3843 0.52689 0.63684 0.0
N762 N 0.4141 0.49488 0.63204 0.0
C763 C 0.40228 0.51175 0.65054 0.0
H764 H 0.40737 0.48919 0.58624 0.0
Co765 Co 0.43962 0.46904 0.63588 0.0
C766 C 0.46194 0.47289 0.69699 0.0
O767 O 0.47194 0.44943 0.69422 0.0
N768 N 0.46545 0.44258 0.63761 0.0
C769 C 0.48574 0.40452 0.63142 0.0
C770 C 0.46198 0.41657 0.6342 0.0
C771 C 0.49173 0.44572 0.63673 0.0
N772 N 0.50444 0.4229 0.63281 0.0
O773 O 0.46436 0.49136 0.6159 0.0
H774 H 0.44348 0.40673 0.63246 0.0
H775 H 0.50135 0.46452 0.63771 0.0
O776 O 0.44935 0.48302 0.67554 0.0
C777 C 0.46589 0.48379 0.58935 0.0
O778 O 0.45111 0.46413 0.58109 0.0
N779 N 0.41437 0.44604 0.65131 0.0
C780 C 0.38842 0.39898 0.65953 0.0
C781 C 0.39924 0.41228 0.68331 0.0
C782 C 0.41197 0.43618 0.6788 0.0
C783 C 0.40067 0.43514 0.62893 0.0
C784 C 0.38766 0.41146 0.63252 0.0
H785 H 0.42126 0.44531 0.6971 0.0
H786 H 0.40261 0.44308 0.60729 0.0
H787 H 0.40673 0.51287 0.67351 0.0
H788 H 0.3723 0.5262 0.59164 0.0
H789 H 0.48896 0.38385 0.62804 0.0
H790 H 0.39992 0.40322 0.70457 0.0
H791 H 0.37949 0.4017 0.61367 0.0
C792 C 0.23126 0.1354 0.36756 0.0
C793 C 0.25077 0.11698 0.36565 0.0
N794 N 0.27371 0.12865 0.37175 0.0
N795 N 0.24174 0.1586 0.37526 0.0
C796 C 0.26771 0.15401 0.37654 0.0
H797 H 0.21067 0.13173 0.36453 0.0
Co798 Co 0.22461 0.19042 0.38312 0.0
C799 C 0.25133 0.17749 0.44136 0.0
O800 O 0.25696 0.15329 0.43451 0.0
N801 N 0.20778 0.22219 0.39063 0.0
C802 C 0.18915 0.25473 0.41496 0.0
C803 C 0.19829 0.22964 0.41674 0.0
C804 C 0.20352 0.24295 0.37304 0.0
N805 N 0.19247 0.26302 0.38753 0.0
O806 O 0.25322 0.20934 0.36619 0.0
H807 H 0.19829 0.21772 0.43607 0.0
H808 H 0.20905 0.24372 0.35038 0.0
O809 O 0.2394 0.19224 0.42318 0.0
C810 C 0.24911 0.20866 0.33873 0.0
O811 O 0.22967 0.19423 0.32916 0.0
N812 N 0.19482 0.17286 0.39577 0.0
C813 C 0.1439 0.15618 0.40555 0.0
C814 C 0.16319 0.15266 0.42695 0.0
C815 C 0.18878 0.16122 0.4216 0.0
C816 C 0.17665 0.17488 0.37431 0.0
C817 C 0.15117 0.1667 0.37869 0.0
H818 H 0.20323 0.15906 0.43842 0.0
H819 H 0.18188 0.18387 0.35388 0.0
H820 H 0.2818 0.16876 0.38276 0.0
H821 H 0.24802 0.0963 0.36187 0.0
H822 H 0.18082 0.26615 0.43246 0.0
H823 H 0.15834 0.14431 0.44786 0.0
H824 H 0.1371 0.16909 0.36128 0.0
C825 C 0.62355 0.50058 0.10345 0.0
C826 C 0.64275 0.51911 0.10586 0.0
N827 N 0.64235 0.52886 0.13309 0.0
N828 N 0.611 0.49836 0.12901 0.0
C829 C 0.62291 0.51581 0.14676 0.0
H830 H 0.61914 0.48921 0.08424 0.0
Co831 Co 0.58318 0.47541 0.13406 0.0
C832 C 0.56031 0.50719 0.18417 0.0
O833 O 0.54301 0.5198 0.16845 0.0
N834 N 0.55533 0.45218 0.13778 0.0
C835 C 0.53132 0.41681 0.12961 0.0
C836 C 0.5561 0.42694 0.12936 0.0
C837 C 0.52982 0.457 0.14299 0.0
N838 N 0.51478 0.43579 0.13794 0.0
O839 O 0.56074 0.49904 0.11315 0.0
H840 H 0.57336 0.41687 0.12188 0.0
H841 H 0.52215 0.47611 0.14817 0.0
O842 O 0.57558 0.49082 0.17205 0.0
C843 C 0.55843 0.49136 0.08678 0.0
O844 O 0.5712 0.47029 0.07877 0.0
N845 N 0.60535 0.45104 0.15187 0.0
C846 C 0.62919 0.4044 0.16844 0.0
C847 C 0.61368 0.41848 0.18812 0.0
C848 C 0.60158 0.44156 0.17928 0.0
C849 C 0.62222 0.43893 0.13338 0.0
C850 C 0.63434 0.41556 0.1412 0.0
H851 H 0.58746 0.45028 0.19367 0.0
H852 H 0.62434 0.44602 0.1114 0.0
H853 H 0.61729 0.51907 0.16912 0.0
H854 H 0.65629 0.52452 0.08889 0.0
H855 H 0.52578 0.39722 0.1232 0.0
H856 H 0.60943 0.41084 0.20953 0.0
H857 H 0.6458 0.40531 0.12507 0.0
C858 C 0.27876 0.87083 0.85624 0.0
C859 C 0.25923 0.88909 0.85786 0.0
N860 N 0.24937 0.88887 0.88502 0.0
N861 N 0.28141 0.85902 0.88219 0.0
C862 C 0.26329 0.87042 0.89937 0.0
H863 H 0.29068 0.86678 0.83741 0.0
Co864 Co 0.30657 0.83366 0.8893 0.0
C865 C 0.29777 0.81464 0.95064 0.0
O866 O 0.32207 0.80679 0.9531 0.0
N867 N 0.33266 0.8077 0.89511 0.0
C868 C 0.3713 0.78778 0.89675 0.0
C869 C 0.3587 0.81134 0.8981 0.0
C870 C 0.3301 0.78139 0.89248 0.0
N871 N 0.35334 0.76897 0.89291 0.0
O872 O 0.28502 0.80848 0.86989 0.0
H873 H 0.36851 0.82987 0.90004 0.0
H874 H 0.31174 0.77152 0.8887 0.0
O875 O 0.28999 0.8254 0.92702 0.0
C876 C 0.2919 0.80549 0.84342 0.0
O877 O 0.31181 0.81914 0.83379 0.0
N878 N 0.32841 0.85955 0.90499 0.0
C879 C 0.37189 0.89032 0.91746 0.0
C880 C 0.35583 0.88098 0.93994 0.0
C881 C 0.33385 0.86582 0.93323 0.0
C882 C 0.34187 0.8711 0.88296 0.0
C883 C 0.36374 0.88645 0.88867 0.0
H884 H 0.32229 0.85831 0.9508 0.0
H885 H 0.33708 0.86625 0.86069 0.0
H886 H 0.26047 0.86536 0.92195 0.0
H887 H 0.2534 0.90206 0.84048 0.0
H888 H 0.3922 0.78479 0.89761 0.0
H889 H 0.36095 0.88426 0.96252 0.0
H890 H 0.3754 0.89315 0.87054 0.0
C891 C 0.90057 0.52213 0.59132 0.0
C892 C 0.88268 0.50221 0.59125 0.0
N893 N 0.8793 0.49418 0.61882 0.0
N894 N 0.90873 0.52664 0.61874 0.0
C895 C 0.8952 0.50943 0.6352 0.0
H896 H 0.90723 0.5327 0.57243 0.0
Co897 Co 0.93415 0.55164 0.62694 0.0
C898 C 0.95037 0.54405 0.68953 0.0
O899 O 0.95692 0.56878 0.69173 0.0
N900 N 0.96013 0.57707 0.63347 0.0
C901 C 0.98301 0.61394 0.63066 0.0
C902 C 0.95854 0.60306 0.62871 0.0
C903 C 0.98587 0.5727 0.63823 0.0
N904 N 1.00016 0.59478 0.63655 0.0
O905 O 0.95977 0.52982 0.6086 0.0
H906 H 0.94104 0.61348 0.62278 0.0
H907 H 0.99415 0.55348 0.64147 0.0
O908 O 0.941 0.53525 0.6655 0.0
C909 C 0.96399 0.53809 0.58283 0.0
O910 O 0.95131 0.55893 0.57398 0.0
N911 N 0.90815 0.57415 0.64117 0.0
C912 C 0.87617 0.61737 0.65026 0.0
C913 C 0.88559 0.6028 0.6739 0.0
C914 C 0.90117 0.58077 0.66887 0.0
C915 C 0.89697 0.58653 0.61809 0.0
C916 C 0.88094 0.60819 0.6221 0.0
H917 H 0.90805 0.56994 0.68732 0.0
H918 H 0.90229 0.58081 0.59625 0.0
H919 H 0.89723 0.50781 0.65855 0.0
H920 H 0.87262 0.49447 0.57239 0.0
H921 H 0.98791 0.63428 0.62732 0.0
H922 H 0.88171 0.60894 0.69602 0.0
H923 H 0.87408 0.61882 0.60323 0.0
C924 C 0.24275 0.87095 0.19802 0.0
C925 C 0.26215 0.88932 0.19575 0.0
N926 N 0.27258 0.88778 0.16888 0.0
N927 N 0.24072 0.85781 0.17276 0.0
C928 C 0.25911 0.86844 0.1554 0.0
H929 H 0.23048 0.86775 0.21676 0.0
Co930 Co 0.21588 0.83204 0.16613 0.0
C931 C 0.22494 0.81251 0.10497 0.0
O932 O 0.20059 0.80481 0.10232 0.0
N933 N 0.19016 0.80571 0.16069 0.0
C934 C 0.15188 0.78505 0.15972 0.0
C935 C 0.164 0.80887 0.15852 0.0
C936 C 0.19329 0.77945 0.16269 0.0
N937 N 0.17029 0.76658 0.1626 0.0
O938 O 0.23752 0.80757 0.18634 0.0
H939 H 0.1538 0.82721 0.15714 0.0
H940 H 0.21195 0.76993 0.16566 0.0
O941 O 0.23266 0.82323 0.12868 0.0
C942 C 0.23017 0.80553 0.21276 0.0
O943 O 0.20995 0.81931 0.22129 0.0
N944 N 0.19391 0.85731 0.14978 0.0
C945 C 0.15035 0.88754 0.13655 0.0
C946 C 0.16691 0.87848 0.11436 0.0
C947 C 0.18892 0.86355 0.12147 0.0
C948 C 0.18006 0.86879 0.17157 0.0
C949 C 0.15809 0.88378 0.1655 0.0
H950 H 0.20096 0.85633 0.10412 0.0
H951 H 0.18459 0.86406 0.19392 0.0
H952 H 0.26239 0.86219 0.13327 0.0
H953 H 0.26748 0.90318 0.21249 0.0
H954 H 0.13104 0.7816 0.15922 0.0
H955 H 0.16225 0.88182 0.0917 0.0
H956 H 0.14611 0.89026 0.18346 0.0
C957 C 0.91229 0.50419 0.94402 0.0
C958 C 0.89414 0.52383 0.94282 0.0
N959 N 0.88761 0.52779 0.91478 0.0
N960 N 0.91755 0.49581 0.91689 0.0
C961 C 0.90216 0.51049 0.89946 0.0
H962 H 0.9208 0.4963 0.96362 0.0
Co963 Co 0.94029 0.46835 0.90871 0.0
C964 C 0.95813 0.47622 0.84656 0.0
O965 O 0.96678 0.45215 0.84449 0.0
N966 N 0.96347 0.44016 0.902 0.0
C967 C 0.98014 0.40003 0.90298 0.0
C968 C 0.95756 0.41443 0.90242 0.0
C969 C 0.98994 0.44072 0.90215 0.0
N970 N 1.00054 0.41659 0.90319 0.0
O971 O 0.96801 0.48764 0.92699 0.0
H972 H 0.93817 0.40634 0.90401 0.0
H973 H 1.00128 0.45852 0.90341 0.0
O974 O 0.94787 0.48422 0.87037 0.0
C975 C 0.97171 0.47946 0.95291 0.0
O976 O 0.95762 0.45968 0.96212 0.0
N977 N 0.91213 0.44882 0.89428 0.0
C978 C 0.87361 0.41112 0.88569 0.0
C979 C 0.88732 0.42147 0.86196 0.0
C980 C 0.90642 0.44065 0.86667 0.0
C981 C 0.8979 0.44003 0.91723 0.0
C982 C 0.87855 0.42131 0.91345 0.0
H983 H 0.91709 0.44774 0.84826 0.0
H984 H 0.90281 0.44647 0.93897 0.0
H985 H 0.90116 0.508 0.87612 0.0
H986 H 0.88649 0.5344 0.96131 0.0
H987 H 0.98136 0.37896 0.9043 0.0
H988 H 0.88388 0.41424 0.84015 0.0
H989 H 0.86876 0.41367 0.93247 0.0
C990 C 0.28895 0.13059 0.6903 0.0
C991 C 0.26799 0.11394 0.6921 0.0
N992 N 0.24667 0.12643 0.68209 0.0
N993 N 0.28117 0.15348 0.67866 0.0
C994 C 0.25509 0.15069 0.6751 0.0
H995 H 0.30877 0.12582 0.69629 0.0
Co996 Co 0.30267 0.18234 0.66983 0.0
C997 C 0.27541 0.17275 0.61072 0.0
O998 O 0.26522 0.15001 0.61712 0.0
N999 N 0.32404 0.21121 0.66126 0.0
C1000 C 0.35008 0.23769 0.63639 0.0
C1001 C 0.33866 0.21349 0.63702 0.0
C1002 C 0.32696 0.23444 0.67506 0.0
N1003 N 0.34269 0.25097 0.66029 0.0
O1004 O 0.27656 0.20551 0.68484 0.0
H1005 H 0.34026 0.1988 0.62022 0.0
H1006 H 0.31747 0.23939 0.69528 0.0
O1007 O 0.28939 0.18505 0.62936 0.0
C1008 C 0.28004 0.20567 0.7124 0.0
O1009 O 0.29775 0.18986 0.72325 0.0
N1010 N 0.32972 0.15988 0.65892 0.0
C1011 C 0.37423 0.12933 0.65257 0.0
C1012 C 0.35503 0.12965 0.63077 0.0
C1013 C 0.33253 0.14482 0.63459 0.0
C1014 C 0.34818 0.15958 0.68026 0.0
C1015 C 0.37047 0.14431 0.67765 0.0
H1016 H 0.31776 0.14449 0.61796 0.0
H1017 H 0.34548 0.17144 0.6995 0.0
H1018 H 0.24278 0.16579 0.66601 0.0
H1019 H 0.26883 0.09365 0.69856 0.0
H1020 H 0.36197 0.24529 0.61893 0.0
H1021 H 0.35741 0.11828 0.61107 0.0
H1022 H 0.38503 0.14485 0.69475 0.0
C1023 C 0.62905 0.54155 0.43324 0.0
C1024 C 0.64739 0.52209 0.43611 0.0
N1025 N 0.63713 0.49967 0.42585 0.0
N1026 N 0.6073 0.53164 0.42079 0.0
C1027 C 0.61255 0.50589 0.41763 0.0
H1028 H 0.63199 0.56174 0.43911 0.0
Co1029 Co 0.57632 0.54884 0.40917 0.0
C1030 C 0.59427 0.52198 0.35397 0.0
O1031 O 0.61876 0.52532 0.36162 0.0
N1032 N 0.54535 0.56539 0.39781 0.0
C1033 C 0.51402 0.58065 0.36899 0.0
C1034 C 0.53962 0.57312 0.37045 0.0
C1035 C 0.52289 0.56896 0.41277 0.0
N1036 N 0.50354 0.57794 0.39555 0.0
O1037 O 0.5561 0.52208 0.42854 0.0
H1038 H 0.55272 0.57212 0.35218 0.0
H1039 H 0.52022 0.56369 0.43532 0.0
O1040 O 0.57603 0.52992 0.37092 0.0
C1041 C 0.55584 0.52817 0.4556 0.0
O1042 O 0.56975 0.54843 0.46391 0.0
N1043 N 0.59545 0.57735 0.39437 0.0
C1044 C 0.61849 0.62583 0.38361 0.0
C1045 C 0.61477 0.6078 0.36098 0.0
C1046 C 0.60312 0.58362 0.36676 0.0
C1047 C 0.59854 0.59497 0.41633 0.0
C1048 C 0.61036 0.61906 0.41161 0.0
H1049 H 0.59924 0.57092 0.34864 0.0
H1050 H 0.59144 0.59029 0.43782 0.0
H1051 H 0.59896 0.49222 0.40792 0.0
H1052 H 0.66729 0.52467 0.44353 0.0
H1053 H 0.50358 0.58677 0.34968 0.0
H1054 H 0.62035 0.61256 0.33891 0.0
H1055 H 0.61218 0.63268 0.42955 0.0
H1056 H 0.30882 0.29426 0.26555 0.0
H1057 H 0.25858 0.26369 0.1981 0.0
H1058 H 0.2411 0.23155 0.23224 0.0
H1059 H 0.23944 0.21298 0.2811 0.0
H1060 H 0.28849 0.24418 0.34926 0.0
H1061 H 0.30746 0.27519 0.31463 0.0
C1062 C 0.29407 0.28055 0.25822 0.0
C1063 C 0.28496 0.28145 0.22922 0.0
C1064 C 0.28405 0.26224 0.27801 0.0
C1065 C 0.26584 0.26353 0.22023 0.0
C1066 C 0.2559 0.24512 0.23975 0.0
C1067 C 0.25442 0.22641 0.28851 0.0
C1068 C 0.26256 0.22618 0.31786 0.0
C1069 C 0.2648 0.2444 0.26867 0.0
C1070 C 0.28194 0.24383 0.32686 0.0
C1071 C 0.29268 0.26163 0.30707 0.0
H1072 H 0.04808 0.97086 0.52979 0.0
H1073 H 0.01573 0.0184 0.59844 0.0
H1074 H 0.98379 0.03636 0.5643 0.0
H1075 H 0.96541 0.03882 0.51528 0.0
H1076 H 0.99789 0.99212 0.44602 0.0
H1077 H 0.02942 0.9733 0.48035 0.0
C1078 C 0.03405 0.98516 0.53737 0.0
C1079 C 0.03439 0.9933 0.56678 0.0
C1080 C 0.01576 0.99543 0.51756 0.0
C1081 C 0.01604 0.01185 0.57604 0.0
C1082 C 0.99772 0.02207 0.55651 0.0
C1083 C 0.97928 0.02444 0.50752 0.0
C1084 C 0.97917 0.01687 0.47795 0.0
C1085 C 0.99744 0.01401 0.52726 0.0
C1086 C 0.99741 0.99824 0.46856 0.0
C1087 C 0.01549 0.98756 0.4882 0.0
H1088 H 0.30314 0.79606 0.78676 0.0
H1089 H 0.25164 0.77206 0.85593 0.0
H1090 H 0.23073 0.74064 0.82317 0.0
H1091 H 0.22691 0.72039 0.77501 0.0
H1092 H 0.27816 0.74462 0.70571 0.0
H1093 H 0.29952 0.77559 0.73865 0.0
C1094 C 0.28734 0.78398 0.79476 0.0
C1095 C 0.27893 0.78647 0.82381 0.0
C1096 C 0.27544 0.766 0.77583 0.0
C1097 C 0.25845 0.77061 0.83371 0.0
C1098 C 0.24652 0.75262 0.81499 0.0
C1099 C 0.24282 0.73236 0.76704 0.0
C1100 C 0.25095 0.73014 0.73787 0.0
C1101 C 0.25485 0.75019 0.78602 0.0
C1102 C 0.27155 0.74587 0.72802 0.0
C1103 C 0.28372 0.76361 0.74684 0.0
H1104 H 0.47387 0.04891 0.02725 0.0
H1105 H 0.49648 0.99371 0.09354 0.0
H1106 H 0.52868 0.97474 0.06038 0.0
H1107 H 0.55012 0.97386 1.01276 0.0
H1108 H 0.52754 0.02911 0.94652 0.0
H1109 H 0.49552 0.04824 0.97977 0.0
C1110 C 0.48578 0.03269 0.03454 0.0
C1111 C 0.48268 0.02268 0.0629 0.0
C1112 C 0.50425 0.022 1.01543 0.0
C1113 C 0.49839 1.00173 0.07187 0.0
C1114 C 0.51681 0.99092 0.05292 0.0
C1115 C 0.53825 0.99013 1.0055 0.0
C1116 C 0.54125 1.00005 0.97709 0.0
C1117 C 0.51989 1.00091 0.02468 0.0
C1118 C 0.52569 0.02114 0.96821 0.0
C1119 C 0.50736 0.03203 0.98721 0.0
H1120 H 0.21756 0.79802 0.26936 0.0
H1121 H 0.27206 0.77329 0.20337 0.0
H1122 H 0.29337 0.74443 0.23852 0.0
H1123 H 0.29658 0.72658 0.2878 0.0
H1124 H 0.24213 0.75129 0.35384 0.0
H1125 H 0.22059 0.77993 0.3186 0.0
C1126 C 0.2341 0.78633 0.26257 0.0
C1127 C 0.24324 0.78786 0.23371 0.0
C1128 C 0.2462 0.76983 0.28286 0.0
C1129 C 0.26467 0.77253 0.2254 0.0
C1130 C 0.27684 0.75603 0.24549 0.0
C1131 C 0.27998 0.73819 0.29459 0.0
C1132 C 0.27098 0.73679 0.3235 0.0
C1133 C 0.26778 0.75458 0.27426 0.0
C1134 C 0.24943 0.75197 0.33178 0.0
C1135 C 0.23715 0.76835 0.31163 0.0
H1136 H 0.48059 0.97488 0.51237 0.0
H1137 H 0.50631 0.02632 0.4439 0.0
H1138 H 0.53741 0.04679 0.47742 0.0
H1139 H 0.55686 0.05027 0.52612 0.0
H1140 H 0.53088 0.999 0.59464 0.0
H1141 H 0.50024 0.97813 0.56094 0.0
C1142 C 0.49298 0.99056 0.50466 0.0
C1143 C 0.49105 0.99908 0.47557 0.0
C1144 C 0.51075 1.00222 0.52405 0.0
C1145 C 0.50733 0.01941 0.46611 0.0
C1146 C 0.52512 0.0311 0.48529 0.0
C1147 C 0.54456 0.03448 0.53376 0.0
C1148 C 0.54622 0.0262 0.56296 0.0
C1149 C 0.52694 0.02269 0.5143 0.0
C1150 C 0.53008 1.00573 0.57235 0.0
C1151 C 0.51252 0.99383 0.55308 0.0
H1152 H 0.2903 0.21311 0.76953 0.0
H1153 H 0.24277 0.24254 0.69923 0.0
H1154 H 0.2247 0.27585 0.73183 0.0
H1155 H 0.2229 0.29664 0.77999 0.0
H1156 H 0.27122 0.26759 0.84981 0.0
H1157 H 0.28881 0.23403 0.81734 0.0
C1158 C 0.27587 0.22669 0.76123 0.0
C1159 C 0.26778 0.22521 0.73191 0.0
C1160 C 0.26593 0.2459 0.77993 0.0
C1161 C 0.24923 0.24314 0.72166 0.0
C1162 C 0.23898 0.26222 0.74028 0.0
C1163 C 0.23731 0.283 0.78819 0.0
C1164 C 0.24575 0.28464 0.81738 0.0
C1165 C 0.24729 0.26381 0.76941 0.0
C1166 C 0.26449 0.26685 0.82749 0.0
C1167 C 0.27445 0.24761 0.80895 0.0
H1168 H 0.04987 0.04826 1.01975 0.0
H1169 H 0.02553 0.99276 0.95431 0.0
H1170 H 0.99485 0.97334 0.98883 0.0
H1171 H 0.97483 0.97242 0.03718 0.0
H1172 H 0.99886 0.02804 0.10264 0.0
H1173 H 0.0299 0.04724 0.06828 0.0
C1174 C 0.03792 0.03186 1.01295 0.0
C1175 C 0.04007 0.02196 0.98436 0.0
C1176 C 0.02027 0.02091 0.03287 0.0
C1177 C 0.02435 1.00074 0.97609 0.0
C1178 C 1.00679 0.98967 0.99583 0.0
C1179 C 0.98682 0.98877 0.04407 0.0
C1180 C 0.98444 0.99881 0.07256 0.0
C1181 C 1.00455 0.99965 1.02422 0.0
C1182 C 1.00021 0.01997 0.08091 0.0
C1183 C 0.01797 0.03092 0.06126 0.0
H1184 H 0.72473 0.72327 0.78301 0.0
H1185 H 0.77913 0.74599 0.85026 0.0
H1186 H 0.801 0.77536 0.81606 0.0
H1187 H 0.80422 0.79472 0.76739 0.0
H1188 H 0.74963 0.77195 0.70032 0.0
H1189 H 0.72818 0.74226 0.73437 0.0
C1190 C 0.74139 0.7346 0.7903 0.0
C1191 C 0.75027 0.73244 0.81924 0.0
C1192 C 0.75376 0.75139 0.77058 0.0
C1193 C 0.77191 0.74727 0.82816 0.0
C1194 C 0.78438 0.76406 0.80861 0.0
C1195 C 0.78764 0.78326 0.76012 0.0
C1196 C 0.77851 0.78561 0.73128 0.0
C1197 C 0.77542 0.7663 0.77981 0.0
C1198 C 0.75703 0.77056 0.72234 0.0
C1199 C 0.74477 0.75359 0.74181 0.0
H1200 H 0.79917 0.29755 0.29175 0.0
H1201 H 0.7454 0.27515 0.35941 0.0
H1202 H 0.72369 0.24506 0.32571 0.0
H1203 H 0.71978 0.22561 0.27708 0.0
H1204 H 0.77349 0.24806 0.20939 0.0
H1205 H 0.79552 0.27777 0.24325 0.0
C1206 C 0.78271 0.28609 0.29924 0.0
C1207 C 0.7739 0.28868 0.32816 0.0
C1208 C 0.77034 0.2689 0.27974 0.0
C1209 C 0.75258 0.27359 0.33735 0.0
C1210 C 0.74016 0.2564 0.31806 0.0
C1211 C 0.73632 0.23697 0.26964 0.0
C1212 C 0.74494 0.2346 0.24063 0.0
C1213 C 0.74884 0.25398 0.28921 0.0
C1214 C 0.76645 0.24947 0.23152 0.0
C1215 C 0.77903 0.26646 0.25089 0.0
H1216 H 0.71429 0.30047 0.77495 0.0
H1217 H 0.7694 0.27556 0.70964 0.0
H1218 H 0.78607 0.24217 0.74284 0.0
H1219 H 0.78558 0.22098 0.79026 0.0
H1220 H 0.73167 0.24648 0.8565 0.0
H1221 H 0.71346 0.27867 0.82259 0.0
C1222 C 0.72995 0.28775 0.76788 0.0
C1223 C 0.74068 0.2906 0.7398 0.0
C1224 C 0.73945 0.26869 0.78711 0.0
C1225 C 0.76093 0.27391 0.73111 0.0
C1226 C 0.77038 0.25478 0.75006 0.0
C1227 C 0.76972 0.23342 0.79741 0.0
C1228 C 0.75999 0.23129 0.82601 0.0
C1229 C 0.75984 0.2521 0.77809 0.0
C1230 C 0.73943 0.24762 0.83466 0.0
C1231 C 0.72915 0.2661 0.81531 0.0
H1232 H 0.72408 0.79706 0.28299 0.0
H1233 H 0.77465 0.77071 0.35216 0.0
H1234 H 0.79645 0.74094 0.31829 0.0
H1235 H 0.80123 0.72275 0.26916 0.0
H1236 H 0.75083 0.74936 0.19995 0.0
H1237 H 0.72879 0.77882 0.23393 0.0
C1238 C 0.73986 0.78481 0.29078 0.0
C1239 C 0.74772 0.78615 0.32018 0.0
C1240 C 0.7523 0.76785 0.27118 0.0
C1241 C 0.76821 0.77011 0.32972 0.0
C1242 C 0.78067 0.75309 0.31034 0.0
C1243 C 0.7854 0.73496 0.2614 0.0
C1244 C 0.77769 0.7338 0.23194 0.0
C1245 C 0.7729 0.75185 0.28103 0.0
C1246 C 0.75715 0.74981 0.22243 0.0
C1247 C 0.74456 0.76666 0.24187 0.0
H1248 H 0.47786 0.55534 1.01093 0.0
H1249 H 0.50313 0.50046 0.94543 0.0
H1250 H 0.53334 0.48077 0.98051 0.0
H1251 H 0.55175 0.47872 0.02986 0.0
H1252 H 0.52611 0.53347 0.09533 0.0
H1253 H 0.49674 0.55378 0.0599 0.0
C1254 C 0.48997 0.53908 1.00417 0.0
C1255 C 0.48812 0.52933 0.97548 0.0
C1256 C 0.50716 0.52788 1.02445 0.0
C1257 C 0.50409 0.50832 0.96728 0.0
C1258 C 0.52134 0.49707 0.98737 0.0
C1259 C 0.53981 0.49515 0.03648 0.0
C1260 C 0.54115 0.50454 0.06535 0.0
C1261 C 0.52292 0.50662 1.01603 0.0
C1262 C 0.52553 0.52587 0.07335 0.0
C1263 C 0.50871 0.53745 0.05308 0.0
H1264 H 0.97431 0.55164 0.52713 0.0
H1265 H 0.99557 0.49579 0.59329 0.0
H1266 H 0.02612 0.47508 0.5595 0.0
H1267 H 0.04647 0.47286 0.51135 0.0
H1268 H 0.02497 0.52855 0.44511 0.0
H1269 H 0.99467 0.54945 0.47902 0.0
C1270 C 0.98561 0.53493 0.53427 0.0
C1271 C 0.98263 0.52526 0.56278 0.0
C1272 C 1.00304 0.52317 0.51475 0.0
C1273 C 0.99744 0.5036 0.57153 0.0
C1274 C 0.01491 0.49178 0.55221 0.0
C1275 C 0.03521 0.4896 0.50424 0.0
C1276 C 0.03803 0.49916 0.47565 0.0
C1277 C 0.01783 0.50141 0.52379 0.0
C1278 C 0.02322 0.52083 0.46693 0.0
C1279 C 1.00589 0.53276 0.48632 0.0
H1280 H 0.05318 0.54536 0.02545 0.0
H1281 H 0.0296 0.49135 0.09243 0.0
H1282 H 1.00029 0.4696 0.0579 0.0
H1283 H 0.98111 0.46644 1.00909 0.0
H1284 H 1.00447 0.52074 0.9423 0.0
H1285 H 0.03438 0.54193 0.97658 0.0
C1286 C 0.04168 0.52881 0.0326 0.0
C1287 C 0.04358 0.52001 0.06157 0.0
C1288 C 0.0249 0.5165 1.01269 0.0
C1289 C 0.02852 0.49852 0.07032 0.0
C1290 C 0.01177 0.4861 0.05057 0.0
C1291 C 0.99278 0.48287 1.00191 0.0
C1292 C 0.99052 0.49202 0.97309 0.0
C1293 C 1.00977 0.49499 1.02175 0.0
C1294 C 1.00581 0.51332 0.96429 0.0
C1295 C 0.02288 0.52544 0.9839 0.0
H1296 H 0.55157 0.54019 0.51288 0.0
H1297 H 0.52033 0.48831 0.44738 0.0
H1298 H 0.48989 0.47029 0.48322 0.0
H1299 H 0.47165 0.47009 0.53262 0.0
H1300 H 0.50258 0.52241 0.59787 0.0
H1301 H 0.53366 0.5397 0.56232 0.0
C1302 C 0.53822 0.52483 0.50631 0.0
C1303 C 0.53833 0.51559 0.4773 0.0
C1304 C 0.52062 0.51485 0.52693 0.0
C1305 C 0.5208 0.49572 0.46944 0.0
C1306 C 0.50332 0.48551 0.48994 0.0
C1307 C 0.48515 0.48531 0.53921 0.0
C1308 C 0.48465 0.49501 0.56803 0.0
C1309 C 0.50295 0.49508 0.51866 0.0
C1310 C 0.50239 0.51468 0.57595 0.0
C1311 C 0.52021 0.5245 0.5556 0.0
H1312 H 0.32713 0.22688 0.13801 0.0
H1313 H 0.39683 0.24844 0.18489 0.0
H1314 H 0.40814 0.20255 0.19113 0.0
H1315 H 0.40011 0.15647 0.18002 0.0
H1316 H 0.33203 0.13444 0.13063 0.0
H1317 H 0.31779 0.18013 0.12914 0.0
C1318 C 0.34461 0.22144 0.14983 0.0
C1319 C 0.36129 0.24102 0.16062 0.0
C1320 C 0.35119 0.19491 0.15301 0.0
C1321 C 0.38398 0.23375 0.17582 0.0
C1322 C 0.39036 0.20751 0.1796 0.0
C1323 C 0.38181 0.16163 0.16961 0.0
C1324 C 0.36698 0.1422 0.15572 0.0
C1325 C 0.37435 0.18794 0.16789 0.0
C1326 C 0.34364 0.14915 0.14163 0.0
C1327 C 0.33562 0.17525 0.14061 0.0
H1328 H 0.02293 0.14084 0.39643 0.0
H1329 H 0.04211 0.06573 0.43222 0.0
H1330 H 0.08763 0.07962 0.43919 0.0
H1331 H 0.12289 0.11166 0.42891 0.0
H1332 H 0.10234 0.18693 0.39358 0.0
H1333 H 0.05645 0.17468 0.39285 0.0
C1334 C 0.03708 0.12777 0.4062 0.0
C1335 C 0.02952 0.10233 0.4135 0.0
C1336 C 0.06297 0.13586 0.40993 0.0
C1337 C 0.04769 0.08546 0.42651 0.0
C1338 C 0.07367 0.09335 0.43027 0.0
C1339 C 0.10826 0.12551 0.4217 0.0
C1340 C 0.11603 0.14991 0.41064 0.0
C1341 C 0.08172 0.11828 0.4212 0.0
C1342 C 0.09687 0.16778 0.4015 0.0
C1343 C 0.07062 0.16084 0.40111 0.0
H1344 H 0.17886 0.87813 0.64041 0.0
H1345 H 0.12301 0.8759 0.71063 0.0
H1346 H 0.13281 0.83015 0.71891 0.0
H1347 H 0.15332 0.78952 0.70299 0.0
H1348 H 0.20788 0.7902 0.63196 0.0
H1349 H 0.2025 0.83767 0.62716 0.0
C1350 C 0.16898 0.8677 0.65768 0.0
C1351 C 0.15009 0.88066 0.67473 0.0
C1352 C 0.17421 0.84097 0.66195 0.0
C1353 C 0.13789 0.86681 0.69736 0.0
C1354 C 0.14324 0.84043 0.70194 0.0
C1355 C 0.16409 0.8001 0.68652 0.0
C1356 C 0.18061 0.78639 0.66751 0.0
C1357 C 0.16073 0.82716 0.68383 0.0
C1358 C 0.19501 0.80038 0.64678 0.0
C1359 C 0.19182 0.82746 0.64397 0.0
H1360 H 0.49211 0.90226 0.94066 0.0
H1361 H 0.48429 0.96077 0.87414 0.0
H1362 H 0.43669 0.95516 0.87447 0.0
H1363 H 0.3979 0.93047 0.89071 0.0
H1364 H 0.40671 0.87144 0.95694 0.0
H1365 H 0.45315 0.88089 0.96031 0.0
C1366 C 0.47992 0.9138 0.92631 0.0
C1367 C 0.49158 0.93151 0.90698 0.0
C1368 C 0.45276 0.91048 0.92674 0.0
C1369 C 0.47564 0.94693 0.88905 0.0
C1370 C 0.4485 0.94365 0.88922 0.0
C1371 C 0.40994 0.91991 0.90613 0.0
C1372 C 0.39874 0.90014 0.9234 0.0
C1373 C 0.4369 0.92504 0.90754 0.0
C1374 C 0.4146 0.88694 0.9436 0.0
C1375 C 0.4413 0.8921 0.9453 0.0
H1376 H 0.34318 0.88418 0.40972 0.0
H1377 H 0.40232 0.87466 0.34378 0.0
H1378 H 0.39254 0.82831 0.34057 0.0
H1379 H 0.37085 0.78959 0.36016 0.0
H1380 H 0.31235 0.7979 0.42653 0.0
H1381 H 0.31825 0.84552 0.42608 0.0
C1382 C 0.35372 0.87201 0.39443 0.0
C1383 C 0.37356 0.88303 0.37713 0.0
C1384 C 0.34841 0.84506 0.39311 0.0
C1385 C 0.38672 0.86697 0.3571 0.0
C1386 C 0.38138 0.8403 0.35548 0.0
C1387 C 0.35937 0.80189 0.37445 0.0
C1388 C 0.34157 0.79038 0.39375 0.0
C1389 C 0.36288 0.82904 0.37399 0.0
C1390 C 0.32625 0.80645 0.41162 0.0
C1391 C 0.3297 0.83359 0.4114 0.0
H1392 H 0.40816 0.13441 0.60823 0.0
H1393 H 0.39647 0.09396 0.68919 0.0
H1394 H 0.4413 0.07744 0.68761 0.0
H1395 H 0.48553 0.07936 0.66621 0.0
H1396 H 0.49768 0.12316 0.58764 0.0
H1397 H 0.45112 0.13332 0.58487 0.0
C1398 C 0.41528 0.1214 0.62506 0.0
C1399 C 0.3992 0.11531 0.64873 0.0
C1400 C 0.44131 0.11288 0.62456 0.0
C1401 C 0.40866 0.09884 0.67077 0.0
C1402 C 0.43428 0.08952 0.66993 0.0
C1403 C 0.47771 0.09063 0.64826 0.0
C1404 C 0.49476 0.10068 0.62726 0.0
C1405 C 0.45105 0.09712 0.64742 0.0
C1406 C 0.48474 0.11551 0.60415 0.0
C1407 C 0.45819 0.1213 0.60258 0.0
H1408 H 0.14674 0.23709 0.85464 0.0
H1409 H 0.2034 0.23413 0.92385 0.0
H1410 H 0.19788 0.18669 0.92727 0.0
H1411 H 0.1744 0.14664 0.91291 0.0
H1412 H 0.11739 0.15007 0.84383 0.0
H1413 H 0.12604 0.19655 0.83749 0.0
C1414 C 0.15783 0.22601 0.87047 0.0
C1415 C 0.17513 0.23906 0.88931 0.0
C1416 C 0.15464 0.19881 0.87215 0.0
C1417 C 0.18993 0.22446 0.9092 0.0
C1418 C 0.18673 0.19738 0.91118 0.0
C1419 C 0.16408 0.15752 0.89626 0.0
C1420 C 0.14516 0.14486 0.87899 0.0
C1421 C 0.1688 0.18442 0.89308 0.0
C1422 C 0.13225 0.15917 0.85722 0.0
C1423 C 0.13695 0.18587 0.85381 0.0
H1424 H 0.12303 0.92614 0.16448 0.0
H1425 H 0.11686 0.86997 0.09463 0.0
H1426 H 0.0705 0.87925 0.08992 0.0
H1427 H 0.03087 0.89983 0.10878 0.0
H1428 H 0.03607 0.95437 0.18002 0.0
H1429 H 0.08356 0.94896 0.18133 0.0
C1430 C 0.11159 0.91603 0.1481 0.0
C1431 C 0.12354 0.89721 0.13011 0.0
C1432 C 0.08464 0.92081 0.14611 0.0
C1433 C 0.10844 0.88477 0.10857 0.0
C1434 C 0.08176 0.88979 0.1061 0.0
C1435 C 0.04238 0.91041 0.12471 0.0
C1436 C 0.02996 0.92709 0.14466 0.0
C1437 C 0.06955 0.90714 0.12534 0.0
C1438 C 0.04521 0.94133 0.16454 0.0
C1439 C 0.07233 0.93821 0.1653 0.0
H1440 H 0.65068 0.78499 0.85477 0.0
H1441 H 0.70694 0.78879 0.92432 0.0
H1442 H 0.70218 0.83642 0.92641 0.0
H1443 H 0.67921 0.87642 0.91092 0.0
H1444 H 0.62251 0.87194 0.84154 0.0
H1445 H 0.63073 0.8253 0.83638 0.0
C1446 C 0.66187 0.7963 0.87036 0.0
C1447 C 0.67879 0.78347 0.88972 0.0
C1448 C 0.65909 0.82355 0.87129 0.0
C1449 C 0.69375 0.79832 0.9093 0.0
C1450 C 0.69097 0.82549 0.91052 0.0
C1451 C 0.66887 0.86528 0.89446 0.0
C1452 C 0.65015 0.87771 0.87677 0.0
C1453 C 0.67331 0.83826 0.89197 0.0
C1454 C 0.63723 0.86303 0.85524 0.0
C1455 C 0.64167 0.83624 0.8525 0.0
H1456 H 0.97736 0.94694 0.65295 0.0
H1457 H 1.00072 0.87739 0.60692 0.0
H1458 H 0.95522 0.86475 0.60068 0.0
H1459 H 0.90913 0.87137 0.61189 0.0
H1460 H 0.8851 0.93972 0.65961 0.0
H1461 H 0.93035 0.95521 0.66118 0.0
C1462 C 0.97239 0.92923 0.64125 0.0
C1463 C 0.9924 0.91294 0.63081 0.0
C1464 C 0.94606 0.92189 0.63801 0.0
C1465 C 0.98572 0.88996 0.61575 0.0
C1466 C 0.95969 0.8828 0.61199 0.0
C1467 C 0.91368 0.89001 0.62193 0.0
C1468 C 0.89381 0.90445 0.63547 0.0
C1469 C 0.93973 0.89833 0.6235 0.0
C1470 C 0.90011 0.92828 0.64903 0.0
C1471 C 0.92597 0.93706 0.65003 0.0
H1472 H 0.90003 0.16662 0.36348 0.0
H1473 H 0.84357 0.14099 0.42651 0.0
H1474 H 0.82557 0.18524 0.42952 0.0
H1475 H 0.82896 0.23228 0.41775 0.0
H1476 H 0.88768 0.25792 0.35732 0.0
H1477 H 0.9017 0.21288 0.3496 0.0
C1478 C 0.88339 0.17068 0.37731 0.0
C1479 C 0.87299 0.15069 0.39461 0.0
C1480 C 0.87383 0.19631 0.3797 0.0
C1481 C 0.85178 0.15618 0.41294 0.0
C1482 C 0.8416 0.18146 0.41476 0.0
C1483 C 0.84455 0.22782 0.40264 0.0
C1484 C 0.85748 0.24831 0.38838 0.0
C1485 C 0.85292 0.20185 0.39882 0.0
C1486 C 0.87777 0.24245 0.36891 0.0
C1487 C 0.88572 0.21671 0.3644 0.0
H1488 H 0.53307 0.12306 0.10288 0.0
H1489 H 0.53271 0.06673 0.1723 0.0
H1490 H 0.57978 0.07262 0.17912 0.0
H1491 H 0.62031 0.09634 0.16754 0.0
H1492 H 0.61993 0.15324 0.09838 0.0
H1493 H 0.57408 0.14415 0.08879 0.0
C1494 C 0.54335 0.11212 0.11949 0.0
C1495 C 0.52951 0.0948 0.13736 0.0
C1496 C 0.57029 0.11558 0.12317 0.0
C1497 C 0.54306 0.08019 0.15834 0.0
C1498 C 0.5699 0.08362 0.16227 0.0
C1499 C 0.61023 0.10655 0.1502 0.0
C1500 C 0.62355 0.1255 0.1338 0.0
C1501 C 0.58364 0.1016 0.14512 0.0
C1502 C 0.61031 0.13831 0.11112 0.0
C1503 C 0.58396 0.13336 0.10582 0.0
H1504 H 0.64538 0.2439 0.69467 0.0
H1505 H 0.70555 0.24294 0.62945 0.0
H1506 H 0.70187 0.19534 0.62554 0.0
H1507 H 0.67946 0.15442 0.63862 0.0
H1508 H 0.61867 0.15605 0.70345 0.0
H1509 H 0.62518 0.20277 0.71015 0.0
C1510 C 0.65759 0.23324 0.67954 0.0
C1511 C 0.67541 0.24686 0.66202 0.0
C1512 C 0.65544 0.20597 0.67758 0.0
C1513 C 0.69165 0.2328 0.64307 0.0
C1514 C 0.68952 0.20564 0.64083 0.0
C1515 C 0.66778 0.16496 0.65437 0.0
C1516 C 0.64854 0.15165 0.6704 0.0
C1517 C 0.67121 0.19205 0.6577 0.0
C1518 C 0.63388 0.1656 0.69107 0.0
C1519 C 0.63733 0.19245 0.69467 0.0
H1520 H 0.61368 0.8732 0.43439 0.0
H1521 H 0.63951 0.94031 0.38584 0.0
H1522 H 0.59452 0.95631 0.38296 0.0
H1523 H 0.54721 0.94908 0.39082 0.0
H1524 H 0.52218 0.88088 0.43803 0.0
H1525 H 0.56736 0.86751 0.44492 0.0
C1526 C 0.60958 0.89168 0.42382 0.0
C1527 C 0.62993 0.9056 0.41048 0.0
C1528 C 0.58368 0.90036 0.42161 0.0
C1529 C 0.62416 0.92921 0.39625 0.0
C1530 C 0.59844 0.93831 0.39452 0.0
C1531 C 0.55175 0.9315 0.40288 0.0
C1532 C 0.53133 0.91581 0.4135 0.0
C1533 C 0.57793 0.92372 0.40654 0.0
C1534 C 0.53747 0.89298 0.42904 0.0
C1535 C 0.56333 0.88541 0.43318 0.0
H1536 H 0.90526 0.86379 0.18602 0.0
H1537 H 0.83132 0.89041 0.15241 0.0
H1538 H 0.81554 0.84525 0.15033 0.0
H1539 H 0.82457 0.79771 0.15372 0.0
H1540 H 0.89939 0.77215 0.18577 0.0
H1541 H 0.91291 0.81731 0.19316 0.0
C1542 C 0.88542 0.85985 0.17901 0.0
C1543 C 0.86949 0.88047 0.16947 0.0
C1544 C 0.87676 0.83391 0.17724 0.0
C1545 C 0.84403 0.87486 0.15977 0.0
C1546 C 0.83502 0.84904 0.15852 0.0
C1547 C 0.84363 0.80215 0.16273 0.0
C1548 C 0.86111 0.78168 0.16881 0.0
C1549 C 0.85147 0.82833 0.1665 0.0
C1550 C 0.88582 0.7876 0.18039 0.0
C1551 C 0.89352 0.81341 0.18473 0.0
H1552 H 0.98562 0.10865 0.86593 0.0
H1553 H 0.98408 0.07879 0.95314 0.0
H1554 H 0.93788 0.09118 0.95781 0.0
H1555 H 0.89978 0.11583 0.93853 0.0
H1556 H 0.90213 0.14421 0.85028 0.0
H1557 H 0.94595 0.12684 0.84426 0.0
C1558 C 0.97486 0.10446 0.88566 0.0
C1559 C 0.98789 0.09318 0.90924 0.0
C1560 C 0.9486 0.11162 0.88803 0.0
C1561 C 0.97411 0.08748 0.93477 0.0
C1562 C 0.94786 0.09471 0.93744 0.0
C1563 C 0.90973 0.11766 0.91785 0.0
C1564 C 0.89808 0.13195 0.89519 0.0
C1565 C 0.93511 0.10756 0.91447 0.0
C1566 C 0.91104 0.13397 0.86835 0.0
C1567 C 0.93606 0.12399 0.86482 0.0
H1568 H 0.89554 0.65664 0.68295 0.0
H1569 H 0.83192 0.63743 0.62535 0.0
H1570 H 0.81777 0.68314 0.62538 0.0
H1571 H 0.82612 0.72933 0.63833 0.0
H1572 H 0.8912 0.7481 0.69414 0.0
H1573 H 0.90219 0.70196 0.69826 0.0
C1574 C 0.87818 0.66235 0.67102 0.0
C1575 C 0.86469 0.64371 0.65433 0.0
C1576 C 0.87072 0.68872 0.67041 0.0
C1577 C 0.84258 0.65148 0.6384 0.0
C1578 C 0.83458 0.67761 0.63831 0.0
C1579 C 0.84248 0.72321 0.65165 0.0
C1580 C 0.85803 0.74215 0.66557 0.0
C1581 C 0.84891 0.69654 0.65365 0.0
C1582 C 0.87928 0.73398 0.68268 0.0
C1583 C 0.88547 0.70757 0.68522 0.0
H1584 H 0.6109 0.65271 0.93553 0.0
H1585 H 0.63379 0.58656 0.88345 0.0
H1586 H 0.58839 0.57174 0.88119 0.0
H1587 H 0.54169 0.57983 0.89058 0.0
H1588 H 0.51919 0.64684 0.94165 0.0
H1589 H 0.5648 0.65915 0.94757 0.0
C1590 C 0.60603 0.63469 0.92431 0.0
C1591 C 0.62565 0.62068 0.9098 0.0
C1592 C 0.57985 0.62673 0.92244 0.0
C1593 C 0.61898 0.59767 0.89479 0.0
C1594 C 0.59302 0.58927 0.89339 0.0
C1595 C 0.5468 0.59693 0.90328 0.0
C1596 C 0.52695 0.61256 0.91528 0.0
C1597 C 0.57319 0.604 0.90655 0.0
C1598 C 0.53396 0.63478 0.93156 0.0
C1599 C 0.56009 0.64174 0.93519 0.0
H1600 H 0.67411 0.37838 0.15342 0.0
H1601 H 0.59976 0.36763 0.19595 0.0
H1602 H 0.6082 0.32122 0.20056 0.0
H1603 H 0.63474 0.28307 0.18927 0.0
H1604 H 0.70806 0.29235 0.14482 0.0
H1605 H 0.70195 0.33984 0.14412 0.0
C1606 C 0.65981 0.36591 0.16381 0.0
C1607 C 0.63636 0.37671 0.17437 0.0
C1608 C 0.66444 0.33888 0.16576 0.0
C1609 C 0.61823 0.36019 0.18812 0.0
C1610 C 0.62286 0.33347 0.19047 0.0
C1611 C 0.64933 0.29547 0.1793 0.0
C1612 C 0.6716 0.28421 0.16671 0.0
C1613 C 0.64558 0.32256 0.17882 0.0
C1614 C 0.69074 0.30058 0.15464 0.0
C1615 C 0.68718 0.3277 0.15414 0.0
H1616 H 0.98697 0.39917 0.43867 0.0
H1617 H 0.98031 0.45938 0.37386 0.0
H1618 H 0.93256 0.45579 0.3753 0.0
H1619 H 0.89299 0.43304 0.39263 0.0
H1620 H 0.90078 0.37203 0.45683 0.0
H1621 H 0.94764 0.37895 0.45857 0.0
C1622 C 0.97504 0.41144 0.42481 0.0
C1623 C 0.98706 0.42915 0.40577 0.0
C1624 C 0.94777 0.4093 0.42588 0.0
C1625 C 0.97141 0.44552 0.38856 0.0
C1626 C 0.94417 0.44342 0.38937 0.0
C1627 C 0.90491 0.42143 0.4072 0.0
C1628 C 0.89318 0.402 0.42452 0.0
C1629 C 0.93214 0.42504 0.40762 0.0
C1630 C 0.90899 0.38742 0.44358 0.0
C1631 C 0.93595 0.39109 0.44433 0.0
H1632 H 0.8831 0.36647 0.85521 0.0
H1633 H 0.8259 0.40346 0.91028 0.0
H1634 H 0.80309 0.36195 0.91594 0.0
H1635 H 0.8034 0.31424 0.91132 0.0
H1636 H 0.8602 0.27667 0.85675 0.0
H1637 H 0.87898 0.31935 0.84414 0.0
C1638 C 0.86517 0.3656 0.86766 0.0
C1639 C 0.85643 0.38791 0.88272 0.0
C1640 C 0.85235 0.34152 0.87118 0.0
C1641 C 0.83324 0.38646 0.8989 0.0
C1642 C 0.82023 0.36273 0.90219 0.0
C1643 C 0.8196 0.31557 0.89626 0.0
C1644 C 0.83077 0.29258 0.88527 0.0
C1645 C 0.83026 0.33999 0.88947 0.0
C1646 C 0.85143 0.29426 0.86541 0.0
C1647 C 0.86221 0.31859 0.85842 0.0
H1648 H 0.90222 0.59637 0.16286 0.0
H1649 H 0.90333 0.64936 0.09002 0.0
H1650 H 0.94926 0.63955 0.08168 0.0
H1651 H 0.99023 0.61947 0.09815 0.0
H1652 H 0.98968 0.56674 0.17097 0.0
H1653 H 0.94249 0.57291 0.17641 0.0
C1654 C 0.91246 0.6055 0.14494 0.0
C1655 C 0.89935 0.62369 0.12721 0.0
C1656 C 0.93906 0.60012 0.14056 0.0
C1657 C 0.9128 0.63509 0.10382 0.0
C1658 C 0.93918 0.62973 0.09924 0.0
C1659 C 0.9797 0.60932 0.11514 0.0
C1660 C 0.99336 0.59303 0.13445 0.0
C1661 C 0.95267 0.61289 0.11798 0.0
C1662 C 0.9795 0.57942 0.15594 0.0
C1663 C 0.95259 0.58301 0.15907 0.0
H1664 H 0.64027 0.74382 0.35345 0.0
H1665 H 0.69259 0.73621 0.42634 0.0
H1666 H 0.68203 0.68964 0.43004 0.0
H1667 H 0.65577 0.65183 0.41424 0.0
H1668 H 0.60386 0.65954 0.34083 0.0
H1669 H 0.6166 0.70528 0.3353 0.0
C1670 C 0.6493 0.7319 0.37013 0.0
C1671 C 0.66688 0.74337 0.38987 0.0
C1672 C 0.64326 0.70522 0.37192 0.0
C1673 C 0.679 0.72771 0.41096 0.0
C1674 C 0.67289 0.70117 0.41311 0.0
C1675 C 0.64743 0.66353 0.39691 0.0
C1676 C 0.62881 0.65242 0.37806 0.0
C1677 C 0.65476 0.68981 0.39396 0.0
C1678 C 0.61837 0.66761 0.35545 0.0
C1679 C 0.62549 0.6938 0.35244 0.0
H1680 H 0.61838 0.38331 0.61274 0.0
H1681 H 0.63479 0.44413 0.67503 0.0
H1682 H 0.58911 0.45814 0.67345 0.0
H1683 H 0.54354 0.44958 0.65856 0.0
H1684 H 0.52736 0.38712 0.5982 0.0
H1685 H 0.57379 0.37722 0.59478 0.0
C1686 C 0.61209 0.40012 0.6253 0.0
C1687 C 0.62987 0.41275 0.64388 0.0
C1688 C 0.5857 0.4074 0.62506 0.0
C1689 C 0.62138 0.43414 0.66055 0.0
C1690 C 0.59527 0.44203 0.65978 0.0
C1691 C 0.55029 0.43411 0.64434 0.0
C1692 C 0.53203 0.41886 0.62901 0.0
C1693 C 0.57708 0.42827 0.6428 0.0
C1694 C 0.54099 0.39875 0.61073 0.0
C1695 C 0.56755 0.39319 0.60861 0.0
H1696 H 0.13784 0.3659 0.34942 0.0
H1697 H 0.18921 0.3965 0.41561 0.0
H1698 H 0.21132 0.35444 0.41906 0.0
H1699 H 0.2111 0.30736 0.40911 0.0
H1700 H 0.16006 0.27588 0.34361 0.0
H1701 H 0.14286 0.31982 0.33354 0.0
C1702 C 0.15442 0.36352 0.36387 0.0
C1703 C 0.16168 0.38409 0.38256 0.0
C1704 C 0.16676 0.33903 0.36614 0.0
C1705 C 0.18311 0.3808 0.40131 0.0
C1706 C 0.19567 0.35675 0.40337 0.0
C1707 C 0.19668 0.3104 0.39216 0.0
C1708 C 0.18658 0.28875 0.37723 0.0
C1709 C 0.1869 0.33548 0.38685 0.0
C1710 C 0.16803 0.29251 0.3552 0.0
C1711 C 0.15813 0.31753 0.34966 0.0
H1712 H 0.4847 0.40889 0.10074 0.0
H1713 H 0.48189 0.45947 0.17557 0.0
H1714 H 0.4345 0.45318 0.1788 0.0
H1715 H 0.39481 0.42975 0.16295 0.0
H1716 H 0.39896 0.37766 0.08911 0.0
H1717 H 0.44466 0.38871 0.08237 0.0
C1718 C 0.47369 0.41852 0.11775 0.0
C1719 C 0.48675 0.43416 0.13827 0.0
C1720 C 0.44666 0.41469 0.11948 0.0
C1721 C 0.4722 0.44722 0.15965 0.0
C1722 C 0.44517 0.44356 0.16151 0.0
C1723 C 0.40564 0.42099 0.14522 0.0
C1724 C 0.39335 0.4027 0.12675 0.0
C1725 C 0.4323 0.42681 0.14194 0.0
C1726 C 0.40763 0.39201 0.10351 0.0
C1727 C 0.43396 0.39804 0.09983 0.0
H1728 H 0.32545 0.7271 0.91033 0.0
H1729 H 0.39297 0.7502 0.86092 0.0
H1730 H 0.40428 0.70458 0.8526 0.0
H1731 H 0.39732 0.65841 0.8629 0.0
H1732 H 0.33143 0.63439 0.91444 0.0
H1733 H 0.31687 0.6799 0.9181 0.0
C1734 C 0.34241 0.72201 0.89748 0.0
C1735 C 0.35856 0.74193 0.8866 0.0
C1736 C 0.34908 0.69559 0.89318 0.0
C1737 C 0.38057 0.73519 0.87003 0.0
C1738 C 0.38696 0.70911 0.86511 0.0
C1739 C 0.37937 0.66303 0.87426 0.0
C1740 C 0.36536 0.64307 0.88818 0.0
C1741 C 0.37167 0.68918 0.87705 0.0
C1742 C 0.34251 0.64946 0.90349 0.0
C1743 C 0.33426 0.67546 0.90569 0.0
H1744 H 0.1197 0.59902 0.66582 0.0
H1745 H 0.11754 0.65615 0.59698 0.0
H1746 H 0.07137 0.6471 0.58891 0.0
H1747 H 0.03069 0.62582 0.60423 0.0
H1748 H 0.03234 0.56883 0.67295 0.0
H1749 H 0.07955 0.57499 0.67842 0.0
C1750 C 0.10916 0.6093 0.64888 0.0
C1751 C 0.12208 0.62834 0.63215 0.0
C1752 C 0.08244 0.60427 0.64461 0.0
C1753 C 0.10823 0.64121 0.60998 0.0
C1754 C 0.08171 0.63626 0.60555 0.0
C1755 C 0.04144 0.61479 0.62039 0.0
C1756 C 0.0281 0.59721 0.63849 0.0
C1757 C 0.06849 0.61834 0.62322 0.0
C1758 C 0.04227 0.5825 0.65885 0.0
C1759 C 0.0692 0.58608 0.662 0.0
H1760 H 0.12753 0.65432 0.18568 0.0
H1761 H 0.1913 0.63414 0.12904 0.0
H1762 H 0.20618 0.67965 0.12926 0.0
H1763 H 0.19792 0.7261 0.14131 0.0
H1764 H 0.13224 0.74584 0.19536 0.0
H1765 H 0.12127 0.69972 0.20059 0.0
C1766 C 0.14511 0.65977 0.17406 0.0
C1767 C 0.15837 0.64097 0.15748 0.0
C1768 C 0.15292 0.68602 0.17344 0.0
C1769 C 0.18079 0.64836 0.14197 0.0
C1770 C 0.18921 0.67436 0.14198 0.0
C1771 C 0.18149 0.72014 0.15455 0.0
C1772 C 0.1657 0.73925 0.16762 0.0
C1773 C 0.17496 0.69352 0.15694 0.0
C1774 C 0.14435 0.73143 0.18465 0.0
C1775 C 0.13815 0.70509 0.18776 0.0
H1776 H 0.04289 0.4432 0.88464 0.0
H1777 H 0.01921 0.375 0.9328 0.0
H1778 H 0.06464 0.36254 0.9396 0.0
H1779 H 0.11102 0.36935 0.92936 0.0
H1780 H 0.13523 0.43652 0.87994 0.0
H1781 H 0.08987 0.45138 0.8767 0.0
C1782 C 0.04772 0.42577 0.89685 0.0
C1783 C 0.02759 0.40989 0.9078 0.0
C1784 C 0.07404 0.4186 0.90062 0.0
C1785 C 0.03421 0.38727 0.92349 0.0
C1786 C 0.06024 0.38022 0.92765 0.0
C1787 C 0.10642 0.38758 0.91851 0.0
C1788 C 0.12642 0.40192 0.9051 0.0
C1789 C 0.08029 0.39554 0.916 0.0
C1790 C 0.12012 0.42519 0.8905 0.0
C1791 C 0.0942 0.4336 0.88852 0.0
H1792 H 0.34846 0.37194 0.68566 0.0
H1793 H 0.41894 0.36249 0.63579 0.0
H1794 H 0.4122 0.31538 0.63377 0.0
H1795 H 0.38537 0.27731 0.64374 0.0
H1796 H 0.31344 0.28567 0.69124 0.0
H1797 H 0.32185 0.33246 0.69733 0.0
C1798 C 0.36231 0.3594 0.67462 0.0
C1799 C 0.38406 0.37049 0.6607 0.0
C1800 C 0.35808 0.33218 0.67314 0.0
C1801 C 0.40199 0.35424 0.64642 0.0
C1802 C 0.39817 0.32736 0.64528 0.0
C1803 C 0.37144 0.28932 0.65534 0.0
C1804 C 0.34867 0.27797 0.66666 0.0
C1805 C 0.37609 0.31618 0.65813 0.0
C1806 C 0.33121 0.2938 0.68237 0.0
C1807 C 0.33591 0.32064 0.68566 0.0
H1808 H 0.38358 0.59396 0.39209 0.0
H1809 H 0.40219 0.64794 0.46111 0.0
H1810 H 0.44694 0.63129 0.46278 0.0
H1811 H 0.48256 0.60645 0.43871 0.0
H1812 H 0.4639 0.55587 0.36679 0.0
H1813 H 0.41755 0.56601 0.37193 0.0
C1814 C 0.39734 0.60181 0.4078 0.0
C1815 C 0.38972 0.62242 0.4261 0.0
C1816 C 0.4232 0.59297 0.40774 0.0
C1817 C 0.40756 0.63202 0.4468 0.0
C1818 C 0.43324 0.62271 0.44753 0.0
C1819 C 0.46813 0.5973 0.42475 0.0
C1820 C 0.47637 0.58068 0.40226 0.0
C1821 C 0.44157 0.60396 0.42726 0.0
C1822 C 0.45778 0.56892 0.38402 0.0
C1823 C 0.43137 0.57473 0.38695 0.0
H1824 H 0.3137 0.31667 0.04432 0.0
H1825 H 0.24481 0.31105 0.09768 0.0
H1826 H 0.21737 0.31103 0.05398 0.0
H1827 H 0.21295 0.3125 1.0006 0.0
H1828 H 0.28164 0.32119 0.94742 0.0
H1829 H 0.30915 0.32022 0.99106 0.0
C1830 C 0.29267 0.31528 0.04644 0.0
C1831 C 0.28137 0.31349 0.07436 0.0
C1832 C 0.27699 0.31591 1.02121 0.0
C1833 C 0.25405 0.31228 0.07657 0.0
C1834 C 0.23836 0.31228 0.05155 0.0
C1835 C 0.23396 0.3141 0.99849 0.0
C1836 C 0.24521 0.31662 0.97061 0.0
C1837 C 0.24961 0.31404 1.02375 0.0
C1838 C 0.27244 0.31915 0.96848 0.0
C1839 C 0.28818 0.31855 0.99346 0.0
H1840 H 0.92114 0.98675 0.2265 0.0
H1841 H 0.9908 0.03398 0.22316 0.0
H1842 H 0.98662 0.04374 0.27502 0.0
H1843 H 0.96204 0.04027 0.3214 0.0
H1844 H 0.89168 0.99405 0.32348 0.0
H1845 H 0.89751 0.9823 0.27252 0.0
C1846 C 0.93557 0.99904 0.23707 0.0
C1847 C 0.95628 1.00957 0.2207 0.0
C1848 C 0.93294 1.00476 0.26693 0.0
C1849 C 0.97459 0.02562 0.235 0.0
C1850 C 0.97224 0.0312 0.26478 0.0
C1851 C 0.94823 0.02733 0.31078 0.0
C1852 C 0.92645 0.01804 0.32638 0.0
C1853 C 0.95139 0.02103 0.28101 0.0
C1854 C 0.90856 1.00157 0.31208 0.0
C1855 C 0.91185 0.99485 0.28284 0.0
H1856 H 0.20836 0.70891 0.55409 0.0
H1857 H 0.27859 0.70785 0.60598 0.0
H1858 H 0.30505 0.71029 0.5618 0.0
H1859 H 0.30823 0.71239 0.5085 0.0
H1860 H 0.23815 0.71028 0.45641 0.0
H1861 H 0.21159 0.70943 0.50063 0.0
C1862 C 0.22947 0.70936 0.55577 0.0
C1863 C 0.24148 0.70847 0.58338 0.0
C1864 C 0.24455 0.71018 0.53023 0.0
C1865 C 0.26885 0.70858 0.58507 0.0
C1866 C 0.28398 0.71001 0.5598 0.0
C1867 C 0.28713 0.71193 0.50677 0.0
C1868 C 0.27518 0.71172 0.47912 0.0
C1869 C 0.27204 0.71081 0.53228 0.0
C1870 C 0.24783 0.71057 0.47736 0.0
C1871 C 0.23266 0.71009 0.50266 0.0
H1872 H 0.57023 0.96525 0.79345 0.0
H1873 H 0.57175 0.03535 0.84557 0.0
H1874 H 0.57023 0.06198 0.80134 0.0
H1875 H 0.56849 0.06527 0.74779 0.0
H1876 H 0.57016 0.99506 0.69584 0.0
H1877 H 0.57037 0.96852 0.74009 0.0
C1878 C 0.57013 0.98637 0.79521 0.0
C1879 C 0.57082 0.99828 0.82291 0.0
C1880 C 0.5698 1.00151 0.76966 0.0
C1881 C 0.57116 0.02567 0.82462 0.0
C1882 C 0.57025 0.04089 0.7993 0.0
C1883 C 0.56872 0.04414 0.74611 0.0
C1884 C 0.56896 0.03216 0.71843 0.0
C1885 C 0.5695 0.02902 0.7717 0.0
C1886 C 0.56983 1.00478 0.71677 0.0
C1887 C 0.56996 0.98961 0.7421 0.0
H1888 H 0.81483 0.70373 0.04631 0.0
H1889 H 0.74619 0.70835 0.10019 0.0
H1890 H 0.71853 0.70889 0.05666 0.0
H1891 H 0.71388 0.70825 1.00326 0.0
H1892 H 0.78238 0.70051 0.94959 0.0
H1893 H 0.81007 0.70094 0.99307 0.0
C1894 C 0.79381 0.70499 0.04858 0.0
C1895 C 0.78263 0.70635 0.07656 0.0
C1896 C 0.77802 0.70469 1.02346 0.0
C1897 C 0.75533 0.70741 0.07899 0.0
C1898 C 0.73951 0.70773 0.05408 0.0
C1899 C 0.73488 0.70674 1.00103 0.0
C1900 C 0.74605 0.70464 0.97309 0.0
C1901 C 0.75064 0.70645 0.0262 0.0
C1902 C 0.77327 0.70222 0.97074 0.0
C1903 C 0.78911 0.7025 0.99562 0.0
H1904 H 0.06046 0.05747 0.79894 0.0
H1905 H 0.06874 0.98747 0.8502 0.0
H1906 H 0.06698 0.96094 0.80579 0.0
H1907 H 0.06339 0.95771 0.75228 0.0
H1908 H 0.05817 0.02808 0.70115 0.0
H1909 H 0.05832 0.05438 0.74565 0.0
C1910 C 0.06176 0.03638 0.80051 0.0
C1911 C 0.06447 0.02449 0.82805 0.0
C1912 C 0.06123 0.02133 0.77485 0.0
C1913 C 0.06657 0.99716 0.82942 0.0
C1914 C 0.06553 0.98199 0.80399 0.0
C1915 C 0.06206 0.9788 0.75085 0.0
C1916 C 0.06042 0.99088 0.72329 0.0
C1917 C 0.06284 0.99385 0.77657 0.0
C1918 C 0.05928 0.01826 0.72196 0.0
C1919 C 0.0594 0.03331 0.74743 0.0
H1920 H 0.71134 0.32397 0.5568 0.0
H1921 H 0.78121 0.32382 0.60929 0.0
H1922 H 0.80786 0.32004 0.56522 0.0
H1923 H 0.81118 0.3169 0.51163 0.0
H1924 H 0.74112 0.3199 0.45955 0.0
H1925 H 0.71465 0.32232 0.50366 0.0
C1926 C 0.73242 0.32303 0.55872 0.0
C1927 C 0.74423 0.32395 0.58646 0.0
C1928 C 0.74756 0.32129 0.5333 0.0
C1929 C 0.77159 0.32311 0.58831 0.0
C1930 C 0.78682 0.3209 0.56309 0.0
C1931 C 0.7901 0.31787 0.50992 0.0
C1932 C 0.77813 0.31789 0.48222 0.0
C1933 C 0.77501 0.31991 0.53545 0.0
C1934 C 0.75083 0.31971 0.48049 0.0
C1935 C 0.73569 0.32112 0.50574 0.0
H1936 H 0.46103 0.96142 0.2925 0.0
H1937 H 0.46225 0.03212 0.34363 0.0
H1938 H 0.4606 0.05826 0.29916 0.0
H1939 H 0.45819 0.06105 0.24587 0.0
H1940 H 0.45385 0.99047 0.19472 0.0
H1941 H 0.45726 0.96424 0.23908 0.0
C1942 C 0.46117 0.98256 0.29392 0.0
C1943 C 0.4621 0.99481 0.32142 0.0
C1944 C 0.45952 0.99746 0.26824 0.0
C1945 C 0.46169 0.02221 0.32281 0.0
C1946 C 0.46072 0.03716 0.29737 0.0
C1947 C 0.45811 0.03992 0.24434 0.0
C1948 C 0.456 0.02776 0.21688 0.0
C1949 C 0.45955 0.025 0.26998 0.0
C1950 C 0.4555 1.00035 0.21549 0.0
C1951 C 0.45749 0.98535 0.24087 0.0
H1952 H 0.8114 0.81052 0.54767 0.0
H1953 H 0.74251 0.81487 0.60116 0.0
H1954 H 0.71498 0.81473 0.55752 0.0
H1955 H 0.71052 0.81349 0.50409 0.0
H1956 H 0.77958 0.81277 0.45067 0.0
H1957 H 0.80702 0.81139 0.49431 0.0
C1958 C 0.79034 0.81129 0.54981 0.0
C1959 C 0.77901 0.81236 0.57772 0.0
C1960 C 0.77469 0.81189 0.52459 0.0
C1961 C 0.75173 0.81392 0.58001 0.0
C1962 C 0.73599 0.81382 0.55504 0.0
C1963 C 0.73158 0.81289 0.50198 0.0
C1964 C 0.74298 0.8129 0.47408 0.0
C1965 C 0.74725 0.81278 0.52721 0.0
C1966 C 0.77031 0.81267 0.47181 0.0
C1967 C 0.786 0.81186 0.49678 0.0
H1968 H 0.46131 0.50105 0.83179 0.0
H1969 H 0.45308 0.57883 0.79723 0.0
H1970 H 0.45232 0.5616 0.74784 0.0
H1971 H 0.455 0.52433 0.71359 0.0
H1972 H 0.46629 0.44689 0.74819 0.0
H1973 H 0.46485 0.46391 0.79754 0.0
C1974 C 0.45926 0.51416 0.81344 0.0
C1975 C 0.45735 0.54121 0.81841 0.0
C1976 C 0.45949 0.50416 0.78472 0.0
C1977 C 0.45486 0.55792 0.79422 0.0
C1978 C 0.45435 0.54809 0.76581 0.0
C1979 C 0.45713 0.51122 0.73193 0.0
C1980 C 0.46088 0.48436 0.7269 0.0
C1981 C 0.45685 0.52124 0.76066 0.0
C1982 C 0.46366 0.46772 0.75113 0.0
C1983 C 0.46274 0.47741 0.77956 0.0
H1984 H 0.70984 0.21307 0.05622 0.0
H1985 H 0.77603 0.18868 0.10769 0.0
H1986 H 0.80014 0.17847 0.06337 0.0
H1987 H 0.80255 0.17647 1.0103 0.0
H1988 H 0.73671 0.2008 0.9583 0.0
H1989 H 0.71217 0.21062 1.00268 0.0
C1990 C 0.72963 0.20573 0.05782 0.0
C1991 C 0.74111 0.2018 0.08544 0.0
C1992 C 0.74333 0.19962 0.03216 0.0
C1993 C 0.76668 0.19198 0.08688 0.0
C1994 C 0.78047 0.18605 0.0615 0.0
C1995 C 0.78277 0.18381 1.00851 0.0
C1996 C 0.77155 0.1879 0.98081 0.0
C1997 C 0.76896 0.1897 0.03406 0.0
C1998 C 0.74585 0.19735 0.9792 0.0
C1999 C 0.73187 0.20312 1.00461 0.0
H2000 H 0.06756 0.4602 0.29178 0.0
H2001 H 0.06782 0.53061 0.34345 0.0
H2002 H 0.06795 0.55699 0.29909 0.0
H2003 H 0.06823 0.56004 0.24565 0.0
H2004 H 0.0709 0.48964 0.19406 0.0
H2005 H 0.06939 0.46325 0.23839 0.0
C2006 C 0.06749 0.48133 0.29339 0.0
C2007 C 0.0674 0.49341 0.32099 0.0
C2008 C 0.06814 0.49636 0.26778 0.0
C2009 C 0.0678 0.52081 0.32256 0.0
C2010 C 0.06786 0.5359 0.29717 0.0
C2011 C 0.06834 0.53891 0.24404 0.0
C2012 C 0.06941 0.52684 0.21646 0.0
C2013 C 0.06803 0.52389 0.26967 0.0
C2014 C 0.07001 0.49944 0.21493 0.0
C2015 C 0.06913 0.48435 0.24029 0.0
H2016 H 0.23444 0.18544 0.57612 0.0
H2017 H 0.31791 0.17579 0.57594 0.0
H2018 H 0.31843 0.17846 0.52281 0.0
H2019 H 0.29418 0.17811 0.47611 0.0
H2020 H 0.21122 0.19159 0.47653 0.0
H2021 H 0.21138 0.19336 0.52959 0.0
C2022 C 0.25276 0.18466 0.56439 0.0
C2023 C 0.27608 0.18035 0.57978 0.0
C2024 C 0.25295 0.18674 0.53385 0.0
C2025 C 0.29975 0.17927 0.56451 0.0
C2026 C 0.30002 0.18061 0.53411 0.0
C2027 C 0.27632 0.1822 0.48789 0.0
C2028 C 0.25274 0.18477 0.47245 0.0
C2029 C 0.27664 0.18359 0.51849 0.0
C2030 C 0.22966 0.1899 0.48785 0.0
C2031 C 0.2297 0.19065 0.51827 0.0
H2032 H 0.55259 0.53503 0.31885 0.0
H2033 H 0.62435 0.49106 0.32 0.0
H2034 H 0.62007 0.48237 0.26806 0.0
H2035 H 0.59772 0.4895 0.22165 0.0
H2036 H 0.52651 0.53434 0.21936 0.0
H2037 H 0.52911 0.54086 0.27203 0.0
C2038 C 0.56706 0.52323 0.30783 0.0
C2039 C 0.58879 0.51373 0.32346 0.0
C2040 C 0.56485 0.51884 0.27753 0.0
C2041 C 0.60746 0.49866 0.30861 0.0
C2042 C 0.6051 0.49377 0.27881 0.0
C2043 C 0.58256 0.50048 0.2326 0.0
C2044 C 0.56188 0.51131 0.21633 0.0
C2045 C 0.58417 0.50416 0.26293 0.0
C2046 C 0.54272 0.52582 0.23113 0.0
C2047 C 0.54413 0.52948 0.26136 0.0
H2048 H 0.31226 0.81273 1.00761 0.0
H2049 H 0.2444 0.81531 0.95204 0.0
H2050 H 0.21599 0.81383 0.99475 0.0
H2051 H 0.21042 0.81208 0.04796 0.0
H2052 H 0.27829 0.81294 0.10358 0.0
H2053 H 0.3067 0.81279 0.06083 0.0
C2054 C 0.29124 0.81283 1.00481 0.0
C2055 C 0.28048 0.81383 0.97657 0.0
C2056 C 0.27504 0.81261 0.02952 0.0
C2057 C 0.2532 0.81445 0.97345 0.0
C2058 C 0.23695 0.81359 0.99789 0.0
C2059 C 0.23144 0.81206 0.05075 0.0
C2060 C 0.24221 0.81219 0.07901 0.0
C2061 C 0.24764 0.81265 0.02604 0.0
C2062 C 0.26949 0.81272 0.08215 0.0
C2063 C 0.28573 0.81263 0.05769 0.0
H2064 H 0.95137 0.56017 0.74588 0.0
H2065 H 0.95166 0.49057 0.6929 0.0
H2066 H 0.95493 0.46359 0.73674 0.0
H2067 H 0.95797 0.45986 0.79014 0.0
H2068 H 0.95462 0.52943 0.84305 0.0
H2069 H 0.95233 0.55637 0.79919 0.0
C2070 C 0.95222 0.53909 0.74385 0.0
C2071 C 0.95155 0.52742 0.71603 0.0
C2072 C 0.9536 0.52372 0.76917 0.0
C2073 C 0.9522 0.50006 0.71396 0.0
C2074 C 0.95413 0.48464 0.73904 0.0
C2075 C 0.9569 0.48094 0.7921 0.0
C2076 C 0.95684 0.49263 0.81993 0.0
C2077 C 0.95495 0.49626 0.76676 0.0
C2078 C 0.95487 0.51993 0.82199 0.0
C2079 C 0.95354 0.53534 0.79689 0.0
H2080 H 0.2265 0.42597 0.19528 0.0
H2081 H 0.22573 0.38292 0.11444 0.0
H2082 H 0.19357 0.41313 0.09466 0.0
H2083 H 0.16556 0.45165 0.10028 0.0
H2084 H 0.16576 0.49424 0.18125 0.0
H2085 H 0.19761 0.46367 0.2014 0.0
C2086 C 0.21915 0.42288 0.17346 0.0
C2087 C 0.22875 0.40207 0.15645 0.0
C2088 C 0.20036 0.44015 0.16231 0.0
C2089 C 0.21914 0.39889 0.12798 0.0
C2090 C 0.20055 0.41608 0.11668 0.0
C2091 C 0.17268 0.45436 0.12227 0.0
C2092 C 0.16337 0.47534 0.13916 0.0
C2093 C 0.1911 0.43681 0.13362 0.0
C2094 C 0.1724 0.47819 0.16786 0.0
C2095 C 0.19076 0.4608 0.17931 0.0
H2096 H 0.84094 0.97332 0.45544 0.0
H2097 H 0.89058 0.96645 0.3801 0.0
H2098 H 0.86464 0.92986 0.36254 0.0
H2099 H 0.82565 0.90241 0.36616 0.0
H2100 H 0.77436 0.91067 0.43981 0.0
H2101 H 0.80317 0.94396 0.46047 0.0
C2102 C 0.84615 0.96377 0.43523 0.0
C2103 C 0.86765 0.97289 0.4191 0.0
C2104 C 0.83071 0.94307 0.42481 0.0
C2105 C 0.87439 0.95985 0.39323 0.0
C2106 C 0.85937 0.93901 0.38296 0.0
C2107 C 0.82073 0.91151 0.38671 0.0
C2108 C 0.79765 0.90428 0.40117 0.0
C2109 C 0.83713 0.93091 0.39819 0.0
C2110 C 0.79199 0.91577 0.42821 0.0
C2111 C 0.80839 0.93494 0.43996 0.0
H2112 H 0.30367 0.59654 0.70436 0.0
H2113 H 0.29346 0.62875 0.61834 0.0
H2114 H 0.32863 0.60121 0.60031 0.0
H2115 H 0.36046 0.56633 0.60812 0.0
H2116 H 0.36869 0.53174 0.69316 0.0
H2117 H 0.33625 0.56211 0.7124 0.0
C2118 C 0.30887 0.59751 0.6816 0.0
C2119 C 0.29546 0.6147 0.66277 0.0
C2120 C 0.32883 0.58114 0.67115 0.0
C2121 C 0.30329 0.61597 0.63351 0.0
C2122 C 0.32338 0.60005 0.62308 0.0
C2123 C 0.3551 0.56517 0.63083 0.0
C2124 C 0.36688 0.54632 0.64898 0.0
C2125 C 0.33597 0.58227 0.64159 0.0
C2126 C 0.36013 0.54594 0.6786 0.0
C2127 C 0.34139 0.56323 0.68959 0.0
H2128 H 0.6685 0.03886 0.87081 0.0
H2129 H 0.65786 0.06789 0.95796 0.0
H2130 H 0.68998 0.10217 0.94947 0.0
H2131 H 0.72356 0.12179 0.91874 0.0
H2132 H 0.73472 0.09316 0.8314 0.0
H2133 H 0.70022 0.06094 0.83849 0.0
C2134 C 0.67293 0.05301 0.88767 0.0
C2135 C 0.66101 0.05067 0.91506 0.0
C2136 C 0.69182 0.07256 0.88276 0.0
C2137 C 0.66708 0.06903 0.93685 0.0
C2138 C 0.68543 0.08866 0.932 0.0
C2139 C 0.71822 0.10885 0.90104 0.0
C2140 C 0.73204 0.10987 0.87468 0.0
C2141 C 0.69835 0.09029 0.90527 0.0
C2142 C 0.72487 0.09258 0.85216 0.0
C2143 C 0.70498 0.07419 0.85612 0.0
H2144 H 0.16762 0.56017 0.44896 0.0
H2145 H 0.14967 0.53986 0.35996 0.0
H2146 H 0.17945 0.57362 0.34295 0.0
H2147 H 0.21218 0.60722 0.35321 0.0
H2148 H 0.23251 0.62537 0.44214 0.0
H2149 H 0.20003 0.59418 0.45922 0.0
C2150 C 0.1703 0.56287 0.42582 0.0
C2151 C 0.15646 0.54711 0.40585 0.0
C2152 C 0.18792 0.58197 0.41613 0.0
C2153 C 0.1598 0.55163 0.37593 0.0
C2154 C 0.17701 0.57088 0.36614 0.0
C2155 C 0.20978 0.60429 0.37635 0.0
C2156 C 0.22517 0.61857 0.39627 0.0
C2157 C 0.19146 0.58587 0.38605 0.0
C2158 C 0.221 0.61489 0.4262 0.0
C2159 C 0.20249 0.59687 0.43603 0.0
H2160 H 0.67775 0.96739 0.59898 0.0
H2161 H 0.64823 0.98224 0.68537 0.0
H2162 H 0.67559 0.94741 0.70448 0.0
H2163 H 0.70925 0.91426 0.6972 0.0
H2164 H 0.74139 0.90206 0.61144 0.0
H2165 H 0.71145 0.93432 0.59172 0.0
C2166 C 0.67736 0.96335 0.62205 0.0
C2167 C 0.66093 0.97789 0.64061 0.0
C2168 C 0.69366 0.94369 0.63311 0.0
C2169 C 0.6604 0.97151 0.67036 0.0
C2170 C 0.67623 0.95161 0.68141 0.0
C2171 C 0.71006 0.9187 0.67424 0.0
C2172 C 0.72802 0.90566 0.65607 0.0
C2173 C 0.6932 0.93784 0.66305 0.0
C2174 C 0.7279 0.91144 0.62615 0.0
C2175 C 0.71082 0.93011 0.61479 0.0
H2176 H 0.36906 0.44988 0.93583 0.0
H2177 H 0.35957 0.49895 0.86038 0.0
H2178 H 0.32464 0.47051 0.84265 0.0
H2179 H 0.29561 0.43293 0.84974 0.0
H2180 H 0.30519 0.38394 0.92533 0.0
H2181 H 0.34063 0.41186 0.94244 0.0
C2182 C 0.35928 0.45453 0.91559 0.0
C2183 C 0.3669 0.47674 0.89961 0.0
C2184 C 0.33895 0.43832 0.90578 0.0
C2185 C 0.35435 0.48196 0.87305 0.0
C2186 C 0.33419 0.4658 0.86303 0.0
C2187 C 0.30556 0.42808 0.8698 0.0
C2188 C 0.29756 0.40619 0.88615 0.0
C2189 C 0.32618 0.44407 0.87936 0.0
C2190 C 0.31053 0.40074 0.91242 0.0
C2191 C 0.331 0.41661 0.92212 0.0
H2192 H 0.86096 0.07275 0.11313 0.0
H2193 H 0.85345 0.02157 0.18704 0.0
H2194 H 0.81905 0.0494 0.20681 0.0
H2195 H 0.79026 0.08743 0.20224 0.0
H2196 H 0.79837 0.13888 0.12848 0.0
H2197 H 0.83278 0.1112 0.10904 0.0
C2198 C 0.85168 0.06754 0.13345 0.0
C2199 C 0.85973 0.04499 0.14848 0.0
C2200 C 0.8318 0.08351 0.14456 0.0
C2201 C 0.84785 0.0389 0.17513 0.0
C2202 C 0.82803 0.05472 0.18635 0.0
C2203 C 0.79966 0.09283 0.18207 0.0
C2204 C 0.7915 0.11531 0.16692 0.0
C2205 C 0.81977 0.077 0.17116 0.0
C2206 C 0.8038 0.12157 0.1405 0.0
C2207 C 0.82369 0.10583 0.12943 0.0
H2208 H 0.84755 0.54941 0.94452 0.0
H2209 H 0.88483 0.54832 0.86044 0.0
H2210 H 0.8532 0.58005 0.84239 0.0
H2211 H 0.81538 0.60848 0.85067 0.0
H2212 H 0.77846 0.60985 0.93488 0.0
H2213 H 0.81028 0.5783 0.95303 0.0
C2214 C 0.84907 0.55627 0.92234 0.0
C2215 C 0.86873 0.54638 0.90394 0.0
C2216 C 0.83101 0.57477 0.91221 0.0
C2217 C 0.86982 0.55524 0.87505 0.0
C2218 C 0.85182 0.57357 0.86475 0.0
C2219 C 0.81411 0.60175 0.87293 0.0
C2220 C 0.79439 0.61149 0.89132 0.0
C2221 C 0.83234 0.58345 0.88314 0.0
C2222 C 0.79351 0.60293 0.92031 0.0
C2223 C 0.8116 0.58472 0.93064 0.0
H2224 H 0.14917 0.07658 0.62128 0.0
H2225 H 0.16086 0.01925 0.68859 0.0
H2226 H 0.19518 0.04626 0.71018 0.0
H2227 H 0.22447 0.08431 0.70733 0.0
H2228 H 0.21346 0.1408 0.63886 0.0
H2229 H 0.1761 0.11629 0.62072 0.0
C2230 C 0.1592 0.07003 0.64071 0.0
C2231 C 0.15267 0.04575 0.65305 0.0
C2232 C 0.17907 0.08555 0.65283 0.0
C2233 C 0.16542 0.03784 0.67866 0.0
C2234 C 0.18517 0.05323 0.69093 0.0
C2235 C 0.21382 0.09135 0.68854 0.0
C2236 C 0.22213 0.11427 0.67435 0.0
C2237 C 0.19255 0.07684 0.67781 0.0
C2238 C 0.20763 0.12338 0.6504 0.0
C2239 C 0.18632 0.1092 0.63979 0.0
H2240 H 0.6792 0.48043 0.45427 0.0
H2241 H 0.62742 0.46563 0.38195 0.0
H2242 H 0.6542 0.4288 0.36698 0.0
H2243 H 0.69418 0.40297 0.37187 0.0
H2244 H 0.74704 0.41807 0.44292 0.0
H2245 H 0.71799 0.45239 0.46106 0.0
C2246 C 0.67371 0.46905 0.43534 0.0
C2247 C 0.6513 0.47598 0.41928 0.0
C2248 C 0.68951 0.44801 0.4265 0.0
C2249 C 0.64428 0.4607 0.39503 0.0
C2250 C 0.65977 0.43971 0.38623 0.0
C2251 C 0.69934 0.41375 0.39134 0.0
C2252 C 0.72293 0.40821 0.40578 0.0
C2253 C 0.6827 0.43356 0.40142 0.0
C2254 C 0.729 0.42191 0.43143 0.0
C2255 C 0.71246 0.44164 0.44169 0.0
H2256 H 0.35136 0.95661 0.09814 0.0
H2257 H 0.36895 0.98521 0.18442 0.0
H2258 H 0.33859 0.95375 0.20502 0.0
H2259 H 0.30578 0.91956 0.1985 0.0
H2260 H 0.28569 0.89363 0.11178 0.0
H2261 H 0.31841 0.92267 0.09161 0.0
C2262 C 0.34848 0.95631 0.12143 0.0
C2263 C 0.36247 0.97367 0.13952 0.0
C2264 C 0.33047 0.93858 0.13317 0.0
C2265 C 0.35877 0.97216 0.16979 0.0
C2266 C 0.34121 0.95422 0.18165 0.0
C2267 C 0.30821 0.92029 0.17517 0.0
C2268 C 0.29282 0.90431 0.15688 0.0
C2269 C 0.32671 0.93758 0.16351 0.0
C2270 C 0.2971 0.90536 0.12667 0.0
C2271 C 0.3158 0.92216 0.11498 0.0
H2272 H 0.80362 0.39907 0.63735 0.0
H2273 H 0.78522 0.44335 0.71451 0.0
H2274 H 0.81763 0.47603 0.70164 0.0
H2275 H 0.85092 0.49279 0.66799 0.0
H2276 H 0.86839 0.44955 0.59003 0.0
H2277 H 0.83675 0.41599 0.6035 0.0
C2278 C 0.80654 0.41597 0.6512 0.0
C2279 C 0.79206 0.41849 0.67699 0.0
C2280 C 0.82517 0.43497 0.64355 0.0
C2281 C 0.79634 0.44051 0.69481 0.0
C2282 C 0.81484 0.45937 0.68741 0.0
C2283 C 0.84797 0.47586 0.65419 0.0
C2284 C 0.86194 0.47367 0.62808 0.0
C2285 C 0.82945 0.45679 0.66188 0.0
C2286 C 0.85767 0.45179 0.61013 0.0
C2287 C 0.8396 0.43258 0.61783 0.0
H2288 H 0.29179 0.08379 0.3481 0.0
H2289 H 0.31057 0.14402 0.4105 0.0
H2290 H 0.34904 0.11984 0.42576 0.0
H2291 H 0.37553 0.08003 0.42432 0.0
H2292 H 0.35695 0.01913 0.36292 0.0
H2293 H 0.32045 0.04508 0.34421 0.0
C2294 C 0.3044 0.09167 0.36491 0.0
C2295 C 0.29811 0.1157 0.37814 0.0
C2296 C 0.3265 0.07744 0.3739 0.0
C2297 C 0.31494 0.1258 0.39962 0.0
C2298 C 0.3369 0.11184 0.40859 0.0
C2299 C 0.36352 0.07248 0.40679 0.0
C2300 C 0.36874 0.04757 0.39528 0.0
C2301 C 0.34255 0.08742 0.39633 0.0
C2302 C 0.35339 0.03827 0.3721 0.0
C2303 C 0.33242 0.05305 0.36154 0.0
H2304 H 0.71877 0.603 0.20117 0.0
H2305 H 0.73566 0.62826 0.11364 0.0
H2306 H 0.70201 0.5992 0.0949 0.0
H2307 H 0.66939 0.56512 0.10291 0.0
H2308 H 0.65449 0.53749 0.18993 0.0
H2309 H 0.68571 0.56911 0.20924 0.0
C2310 C 0.71534 0.60209 0.17797 0.0
C2311 C 0.73012 0.61783 0.15895 0.0
C2312 C 0.69627 0.58485 0.16718 0.0
C2313 C 0.72466 0.61669 0.12897 0.0
C2314 C 0.70546 0.59988 0.11815 0.0
C2315 C 0.67306 0.56574 0.12609 0.0
C2316 C 0.65968 0.54858 0.14481 0.0
C2317 C 0.69144 0.5836 0.137 0.0
C2318 C 0.66428 0.55042 0.17491 0.0
C2319 C 0.6823 0.56843 0.18598 0.0
H2320 H 0.17293 0.96339 0.95197 0.0
H2321 H 0.1488 0.98085 0.86409 0.0
H2322 H 0.17878 0.94793 0.84561 0.0
H2323 H 0.21322 0.91571 0.8541 0.0
H2324 H 0.23962 0.90062 0.94173 0.0
H2325 H 0.20724 0.93104 0.96047 0.0
C2326 C 0.17428 0.96028 0.92874 0.0
C2327 C 0.1586 0.97497 0.90955 0.0
C2328 C 0.19203 0.94167 0.91814 0.0
C2329 C 0.16033 0.9699 0.87954 0.0
C2330 C 0.17767 0.95112 0.86888 0.0
C2331 C 0.21218 0.91915 0.87729 0.0
C2332 C 0.22922 0.90587 0.89633 0.0
C2333 C 0.19386 0.93716 0.88795 0.0
C2334 C 0.22682 0.91025 0.92642 0.0
C2335 C 0.20835 0.92785 0.93721 0.0
loop_
_geom_bond_atom_site_label_1
_geom_bond_atom_site_label_2
_geom_bond_distance
_geom_bond_site_symmetry_2
_ccdc_geom_bond_type
C0 C1 1.351 . S
C0 N3 1.368 . S
C0 H5 0.931 . S
C1 C0 1.351 . S
C1 N2 1.373 . S
C1 H29 0.930 . S
N2 C1 1.373 . S
N2 C4 1.340 . S
N3 C0 1.368 . S
N3 C4 1.321 . S
N3 Co6 2.135 . S
C4 N2 1.340 . S
C4 N3 1.321 . S
C4 H28 0.930 . S
H5 C0 0.931 . S
Co6 N3 2.135 . S
Co6 N9 2.121 . S
Co6 O14 2.055 . S
Co6 O17 2.039 . S
Co6 N20 2.140 . S
C7 O8 1.227 . S
C7 O17 1.265 . S
O8 C7 1.227 . S
N9 Co6 2.121 . S
N9 C11 1.375 . S
N9 C12 1.313 . S
C10 C11 1.338 . S
C10 N13 1.377 . S
C10 H30 0.930 . S
C11 N9 1.375 . S
C11 C10 1.338 . S
C11 H15 0.931 . S
C12 N9 1.313 . S
C12 N13 1.344 . S
C12 H16 0.930 . S
N13 C10 1.377 . S
N13 C12 1.344 . S
O14 Co6 2.055 . S
O14 C18 1.253 . S
H15 C11 0.931 . S
H16 C12 0.930 . S
O17 Co6 2.039 . S
O17 C7 1.265 . S
C18 O14 1.253 . S
C18 O19 1.227 . S
O19 C18 1.227 . S
N20 Co6 2.140 . S
N20 C23 1.346 . S
N20 C24 1.345 . S
C21 C22 1.387 . S
C21 C25 1.391 . S
C22 C21 1.387 . S
C22 C23 1.369 . S
C22 H31 0.929 . S
C23 N20 1.346 . S
C23 C22 1.369 . S
C23 H26 0.928 . S
C24 N20 1.345 . S
C24 C25 1.371 . S
C24 H27 0.931 . S
C25 C21 1.391 . S
C25 C24 1.371 . S
C25 H32 0.930 . S
H26 C23 0.928 . S
H27 C24 0.931 . S
H28 C4 0.930 . S
H29 C1 0.930 . S
H30 C10 0.930 . S
H31 C22 0.929 . S
H32 C25 0.930 . S
C33 C34 1.351 1_545 S
C33 N36 1.368 . S
C33 H38 0.931 . S
C34 C33 1.351 1_565 S
C34 N35 1.373 . S
C34 H62 0.930 . S
N35 C34 1.373 . S
N35 C37 1.340 . S
N36 C33 1.368 . S
N36 C37 1.321 1_545 S
N36 Co39 2.135 . S
C37 N35 1.340 . S
C37 N36 1.321 1_565 S
C37 H61 0.930 . S
H38 C33 0.931 . S
Co39 N36 2.135 . S
Co39 N42 2.121 . S
Co39 O47 2.055 . S
Co39 O50 2.039 . S
Co39 N53 2.140 . S
C40 O41 1.227 . S
C40 O50 1.265 . S
O41 C40 1.227 . S
N42 Co39 2.121 . S
N42 C44 1.375 . S
N42 C45 1.313 . S
C43 C44 1.316 1_455 S
C43 N46 1.389 . S
C43 H63 0.939 . S
C44 N42 1.375 . S
C44 C43 1.316 1_655 S
C44 H48 0.931 . S
C45 N42 1.313 . S
C45 N46 1.344 1_655 S
C45 H49 0.931 . S
N46 C43 1.389 . S
N46 C45 1.344 1_455 S
O47 Co39 2.055 . S
O47 C51 1.253 . S
H48 C44 0.931 . S
H49 C45 0.931 . S
O50 Co39 2.039 . S
O50 C40 1.265 . S
C51 O47 1.253 . S
C51 O52 1.227 . S
O52 C51 1.227 . S
N53 Co39 2.140 . S
N53 C56 1.346 . S
N53 C57 1.345 . S
C54 C55 1.387 . S
C54 C58 1.391 . S
C55 C54 1.387 . S
C55 C56 1.369 . S
C55 H64 0.929 . S
C56 N53 1.346 . S
C56 C55 1.369 . S
C56 H59 0.928 . S
C57 N53 1.345 . S
C57 C58 1.371 . S
C57 H60 0.931 . S
C58 C54 1.391 . S
C58 C57 1.371 . S
C58 H65 0.930 . S
H59 C56 0.928 . S
H60 C57 0.931 . S
H61 C37 0.930 . S
H62 C34 0.930 . S
H63 C43 0.939 . S
H64 C55 0.929 . S
H65 C58 0.930 . S
C66 C67 1.351 . S
C66 N69 1.368 . S
C66 H71 0.931 . S
C67 C66 1.351 . S
C67 N68 1.373 . S
C67 H95 0.930 . S
N68 C67 1.373 . S
N68 C70 1.340 . S
N69 C66 1.368 . S
N69 C70 1.321 . S
N69 Co72 2.135 . S
C70 N68 1.340 . S
C70 N69 1.321 . S
C70 H94 0.930 . S
H71 C66 0.931 . S
Co72 N69 2.135 . S
Co72 N75 2.121 . S
Co72 O80 2.055 . S
Co72 O83 2.039 . S
Co72 N86 2.140 . S
C73 O74 1.227 . S
C73 O83 1.265 . S
O74 C73 1.227 . S
N75 Co72 2.121 . S
N75 C77 1.375 . S
N75 C78 1.313 . S
C76 C77 1.338 . S
C76 N79 1.377 . S
C76 H96 0.930 . S
C77 N75 1.375 . S
C77 C76 1.338 . S
C77 H81 0.931 . S
C78 N75 1.313 . S
C78 N79 1.344 . S
C78 H82 0.930 . S
N79 C76 1.377 . S
N79 C78 1.344 . S
O80 Co72 2.055 . S
O80 C84 1.253 . S
H81 C77 0.931 . S
H82 C78 0.930 . S
O83 Co72 2.039 . S
O83 C73 1.265 . S
C84 O80 1.253 . S
C84 O85 1.227 . S
O85 C84 1.227 . S
N86 Co72 2.140 . S
N86 C89 1.346 . S
N86 C90 1.345 . S
C87 C88 1.387 . S
C87 C91 1.391 . S
C88 C87 1.387 . S
C88 C89 1.369 . S
C88 H97 0.929 . S
C89 N86 1.346 . S
C89 C88 1.369 . S
C89 H92 0.928 . S
C90 N86 1.345 . S
C90 C91 1.371 . S
C90 H93 0.931 . S
C91 C87 1.391 . S
C91 C90 1.371 . S
C91 H98 0.930 . S
H92 C89 0.928 . S
H93 C90 0.931 . S
H94 C70 0.930 . S
H95 C67 0.930 . S
H96 C76 0.930 . S
H97 C88 0.929 . S
H98 C91 0.930 . S
C99 C100 1.351 1_565 S
C99 N102 1.368 . S
C99 H104 0.931 . S
C100 C99 1.351 1_545 S
C100 N101 1.373 . S
C100 H128 0.930 . S
N101 C100 1.373 . S
N101 C103 1.340 . S
N102 C99 1.368 . S
N102 C103 1.321 1_565 S
N102 Co105 2.135 . S
C103 N101 1.340 . S
C103 N102 1.321 1_545 S
C103 H127 0.930 . S
H104 C99 0.931 . S
Co105 N102 2.135 . S
Co105 N108 2.121 . S
Co105 O113 2.055 . S
Co105 O116 2.039 . S
Co105 N119 2.140 . S
C106 O107 1.227 . S
C106 O116 1.265 . S
O107 C106 1.227 . S
N108 Co105 2.121 . S
N108 C110 1.375 . S
N108 C111 1.313 . S
C109 C110 1.338 . S
C109 N112 1.377 . S
C109 H129 0.930 . S
C110 N108 1.375 . S
C110 C109 1.338 . S
C110 H114 0.931 . S
C111 N108 1.313 . S
C111 N112 1.344 . S
C111 H115 0.930 . S
N112 C109 1.377 . S
N112 C111 1.344 . S
O113 Co105 2.055 . S
O113 C117 1.253 . S
H114 C110 0.931 . S
H115 C111 0.930 . S
O116 Co105 2.039 . S
O116 C106 1.265 . S
C117 O113 1.253 . S
C117 O118 1.227 . S
O118 C117 1.227 . S
N119 Co105 2.140 . S
N119 C122 1.346 . S
N119 C123 1.345 . S
C120 C121 1.387 . S
C120 C124 1.391 . S
C121 C120 1.387 . S
C121 C122 1.369 . S
C121 H130 0.929 . S
C122 N119 1.346 . S
C122 C121 1.369 . S
C122 H125 0.928 . S
C123 N119 1.345 . S
C123 C124 1.371 . S
C123 H126 0.931 . S
C124 C120 1.391 . S
C124 C123 1.371 . S
C124 H131 0.930 . S
H125 C122 0.928 . S
H126 C123 0.931 . S
H127 C103 0.930 . S
H128 C100 0.930 . S
H129 C109 0.930 . S
H130 C121 0.929 . S
H131 C124 0.930 . S
C132 C133 1.351 . S
C132 N135 1.368 . S
C132 H137 0.931 . S
C133 C132 1.351 . S
C133 N134 1.373 . S
C133 H161 0.930 . S
N134 C133 1.373 . S
N134 C136 1.340 . S
N135 C132 1.368 . S
N135 C136 1.321 . S
N135 Co138 2.135 . S
C136 N134 1.340 . S
C136 N135 1.321 . S
C136 H160 0.930 . S
H137 C132 0.931 . S
Co138 N135 2.135 . S
Co138 N141 2.121 . S
Co138 O146 2.055 . S
Co138 O149 2.039 . S
Co138 N152 2.140 . S
C139 O140 1.227 . S
C139 O149 1.265 . S
O140 C139 1.227 . S
N141 Co138 2.121 . S
N141 C143 1.375 . S
N141 C144 1.313 . S
C142 C143 1.338 . S
C142 N145 1.377 . S
C142 H162 0.930 . S
C143 N141 1.375 . S
C143 C142 1.338 . S
C143 H147 0.931 . S
C144 N141 1.313 . S
C144 N145 1.344 . S
C144 H148 0.930 . S
N145 C142 1.377 . S
N145 C144 1.344 . S
O146 Co138 2.055 . S
O146 C150 1.253 . S
H147 C143 0.931 . S
H148 C144 0.930 . S
O149 Co138 2.039 . S
O149 C139 1.265 . S
C150 O146 1.253 . S
C150 O151 1.227 . S
O151 C150 1.227 . S
N152 Co138 2.140 . S
N152 C155 1.346 . S
N152 C156 1.345 . S
C153 C154 1.387 . S
C153 C157 1.391 . S
C154 C153 1.387 . S
C154 C155 1.369 . S
C154 H163 0.929 . S
C155 N152 1.346 . S
C155 C154 1.369 . S
C155 H158 0.928 . S
C156 N152 1.345 . S
C156 C157 1.371 . S
C156 H159 0.931 . S
C157 C153 1.391 . S
C157 C156 1.371 . S
C157 H164 0.930 . S
H158 C155 0.928 . S
H159 C156 0.931 . S
H160 C136 0.930 . S
H161 C133 0.930 . S
H162 C142 0.930 . S
H163 C154 0.929 . S
H164 C157 0.930 . S
C165 C166 1.351 1_545 S
C165 N168 1.368 . S
C165 H170 0.931 . S
C166 C165 1.351 1_565 S
C166 N167 1.373 . S
C166 H194 0.930 . S
N167 C166 1.373 . S
N167 C169 1.340 . S
N168 C165 1.368 . S
N168 C169 1.321 1_545 S
N168 Co171 2.135 . S
C169 N167 1.340 . S
C169 N168 1.321 1_565 S
C169 H193 0.930 . S
H170 C165 0.931 . S
Co171 N168 2.135 . S
Co171 N174 2.121 . S
Co171 O179 2.055 . S
Co171 O182 2.039 . S
Co171 N185 2.140 . S
C172 O173 1.227 . S
C172 O182 1.265 . S
O173 C172 1.227 . S
N174 Co171 2.121 . S
N174 C176 1.375 . S
N174 C177 1.313 . S
C175 C176 1.338 . S
C175 N178 1.377 . S
C175 H195 0.930 . S
C176 N174 1.375 . S
C176 C175 1.338 . S
C176 H180 0.931 . S
C177 N174 1.313 . S
C177 N178 1.344 . S
C177 H181 0.930 . S
N178 C175 1.377 . S
N178 C177 1.344 . S
O179 Co171 2.055 . S
O179 C183 1.253 . S
H180 C176 0.931 . S
H181 C177 0.930 . S
O182 Co171 2.039 . S
O182 C172 1.265 . S
C183 O179 1.253 . S
C183 O184 1.227 . S
O184 C183 1.227 . S
N185 Co171 2.140 . S
N185 C188 1.346 . S
N185 C189 1.345 . S
C186 C187 1.387 . S
C186 C190 1.391 . S
C187 C186 1.387 . S
C187 C188 1.369 . S
C187 H196 0.929 . S
C188 N185 1.346 . S
C188 C187 1.369 . S
C188 H191 0.928 . S
C189 N185 1.345 . S
C189 C190 1.371 . S
C189 H192 0.931 . S
C190 C186 1.391 . S
C190 C189 1.371 . S
C190 H197 0.930 . S
H191 C188 0.928 . S
H192 C189 0.931 . S
H193 C169 0.930 . S
H194 C166 0.930 . S
H195 C175 0.930 . S
H196 C187 0.929 . S
H197 C190 0.930 . S
C198 C199 1.351 . S
C198 N201 1.368 . S
C198 H203 0.931 . S
C199 C198 1.351 . S
C199 N200 1.373 . S
C199 H227 0.930 . S
N200 C199 1.373 . S
N200 C202 1.340 . S
N201 C198 1.368 . S
N201 C202 1.321 . S
N201 Co204 2.135 . S
C202 N200 1.340 . S
C202 N201 1.321 . S
C202 H226 0.930 . S
H203 C198 0.931 . S
Co204 N201 2.135 . S
Co204 N207 2.121 . S
Co204 O212 2.055 . S
Co204 O215 2.039 . S
Co204 N218 2.140 . S
C205 O206 1.227 . S
C205 O215 1.265 . S
O206 C205 1.227 . S
N207 Co204 2.121 . S
N207 C209 1.375 . S
N207 C210 1.313 . S
C208 C209 1.338 . S
C208 N211 1.377 . S
C208 H228 0.930 . S
C209 N207 1.375 . S
C209 C208 1.338 . S
C209 H213 0.931 . S
C210 N207 1.313 . S
C210 N211 1.344 . S
C210 H214 0.930 . S
N211 C208 1.377 . S
N211 C210 1.344 . S
O212 Co204 2.055 . S
O212 C216 1.253 . S
H213 C209 0.931 . S
H214 C210 0.930 . S
O215 Co204 2.039 . S
O215 C205 1.265 . S
C216 O212 1.253 . S
C216 O217 1.227 . S
O217 C216 1.227 . S
N218 Co204 2.140 . S
N218 C221 1.346 . S
N218 C222 1.345 . S
C219 C220 1.387 . S
C219 C223 1.391 . S
C220 C219 1.387 . S
C220 C221 1.369 . S
C220 H229 0.929 . S
C221 N218 1.346 . S
C221 C220 1.369 . S
C221 H224 0.928 . S
C222 N218 1.345 . S
C222 C223 1.371 . S
C222 H225 0.931 . S
C223 C219 1.391 . S
C223 C222 1.371 . S
C223 H230 0.930 . S
H224 C221 0.928 . S
H225 C222 0.931 . S
H226 C202 0.930 . S
H227 C199 0.930 . S
H228 C208 0.930 . S
H229 C220 0.929 . S
H230 C223 0.930 . S
C231 C232 1.351 1_565 S
C231 N234 1.368 . S
C231 H236 0.931 . S
C232 C231 1.351 1_545 S
C232 N233 1.373 . S
C232 H260 0.930 . S
N233 C232 1.373 . S
N233 C235 1.340 . S
N234 C231 1.368 . S
N234 C235 1.321 1_565 S
N234 Co237 2.135 . S
C235 N233 1.340 . S
C235 N234 1.321 1_545 S
C235 H259 0.930 . S
H236 C231 0.931 . S
Co237 N234 2.135 . S
Co237 N240 2.121 . S
Co237 O245 2.055 . S
Co237 O248 2.039 . S
Co237 N251 2.140 . S
C238 O239 1.227 . S
C238 O248 1.265 . S
O239 C238 1.227 . S
N240 Co237 2.121 . S
N240 C242 1.375 . S
N240 C243 1.313 . S
C241 C242 1.316 1_455 S
C241 N244 1.389 . S
C241 H261 0.939 . S
C242 N240 1.375 . S
C242 C241 1.316 1_655 S
C242 H246 0.931 . S
C243 N240 1.313 . S
C243 N244 1.344 1_655 S
C243 H247 0.931 . S
N244 C241 1.389 . S
N244 C243 1.344 1_455 S
O245 Co237 2.055 . S
O245 C249 1.253 . S
H246 C242 0.931 . S
H247 C243 0.931 . S
O248 Co237 2.039 . S
O248 C238 1.265 . S
C249 O245 1.253 . S
C249 O250 1.227 . S
O250 C249 1.227 . S
N251 Co237 2.140 . S
N251 C254 1.346 . S
N251 C255 1.345 . S
C252 C253 1.387 . S
C252 C256 1.391 . S
C253 C252 1.387 . S
C253 C254 1.369 . S
C253 H262 0.929 . S
C254 N251 1.346 . S
C254 C253 1.369 . S
C254 H257 0.928 . S
C255 N251 1.345 . S
C255 C256 1.371 . S
C255 H258 0.931 . S
C256 C252 1.391 . S
C256 C255 1.371 . S
C256 H263 0.930 . S
H257 C254 0.928 . S
H258 C255 0.931 . S
H259 C235 0.930 . S
H260 C232 0.930 . S
H261 C241 0.939 . S
H262 C253 0.929 . S
H263 C256 0.930 . S
C264 C265 1.351 . S
C264 N267 1.368 . S
C264 H269 0.931 . S
C265 C264 1.351 . S
C265 N266 1.373 . S
C265 H293 0.930 . S
N266 C265 1.373 . S
N266 C268 1.340 . S
N267 C264 1.368 . S
N267 C268 1.321 . S
N267 Co270 2.135 . S
C268 N266 1.340 . S
C268 N267 1.321 . S
C268 H292 0.930 . S
H269 C264 0.931 . S
Co270 N267 2.135 . S
Co270 N273 2.121 . S
Co270 O278 2.055 . S
Co270 O281 2.039 . S
Co270 N284 2.140 . S
C271 O272 1.227 . S
C271 O281 1.265 . S
O272 C271 1.227 . S
N273 Co270 2.121 . S
N273 C275 1.375 . S
N273 C276 1.313 . S
C274 C275 1.338 . S
C274 N277 1.377 . S
C274 H294 0.930 . S
C275 N273 1.375 . S
C275 C274 1.338 . S
C275 H279 0.931 . S
C276 N273 1.313 . S
C276 N277 1.344 . S
C276 H280 0.930 . S
N277 C274 1.377 . S
N277 C276 1.344 . S
O278 Co270 2.055 . S
O278 C282 1.253 . S
H279 C275 0.931 . S
H280 C276 0.930 . S
O281 Co270 2.039 . S
O281 C271 1.265 . S
C282 O278 1.253 . S
C282 O283 1.227 . S
O283 C282 1.227 . S
N284 Co270 2.140 . S
N284 C287 1.346 . S
N284 C288 1.345 . S
C285 C286 1.387 . S
C285 C289 1.391 . S
C286 C285 1.387 . S
C286 C287 1.369 . S
C286 H295 0.929 . S
C287 N284 1.346 . S
C287 C286 1.369 . S
C287 H290 0.928 . S
C288 N284 1.345 . S
C288 C289 1.371 . S
C288 H291 0.931 . S
C289 C285 1.391 . S
C289 C288 1.371 . S
C289 H296 0.930 . S
H290 C287 0.928 . S
H291 C288 0.931 . S
H292 C268 0.930 . S
H293 C265 0.930 . S
H294 C274 0.930 . S
H295 C286 0.929 . S
H296 C289 0.930 . S
C297 C298 1.351 1_565 S
C297 N300 1.368 . S
C297 H302 0.931 . S
C298 C297 1.351 1_545 S
C298 N299 1.373 . S
C298 H326 0.930 . S
N299 C298 1.373 . S
N299 C301 1.340 . S
N300 C297 1.368 . S
N300 C301 1.321 1_565 S
N300 Co303 2.135 . S
C301 N299 1.340 . S
C301 N300 1.321 1_545 S
C301 H325 0.930 . S
H302 C297 0.931 . S
Co303 N300 2.135 . S
Co303 N306 2.121 . S
Co303 O311 2.055 . S
Co303 O314 2.039 . S
Co303 N317 2.140 . S
C304 O305 1.227 . S
C304 O314 1.265 . S
O305 C304 1.227 . S
N306 Co303 2.121 . S
N306 C308 1.375 . S
N306 C309 1.313 . S
C307 C308 1.316 1_655 S
C307 N310 1.389 . S
C307 H327 0.939 . S
C308 N306 1.375 . S
C308 C307 1.316 1_455 S
C308 H312 0.931 . S
C309 N306 1.313 . S
C309 N310 1.344 1_455 S
C309 H313 0.931 . S
N310 C307 1.389 . S
N310 C309 1.344 1_655 S
O311 Co303 2.055 . S
O311 C315 1.253 . S
H312 C308 0.931 . S
H313 C309 0.931 . S
O314 Co303 2.039 . S
O314 C304 1.265 . S
C315 O311 1.253 . S
C315 O316 1.227 . S
O316 C315 1.227 . S
N317 Co303 2.140 . S
N317 C320 1.346 . S
N317 C321 1.345 . S
C318 C319 1.387 . S
C318 C322 1.391 . S
C319 C318 1.387 . S
C319 C320 1.369 . S
C319 H328 0.929 . S
C320 N317 1.346 . S
C320 C319 1.369 . S
C320 H323 0.928 . S
C321 N317 1.345 . S
C321 C322 1.371 . S
C321 H324 0.931 . S
C322 C318 1.391 . S
C322 C321 1.371 . S
C322 H329 0.930 . S
H323 C320 0.928 . S
H324 C321 0.931 . S
H325 C301 0.930 . S
H326 C298 0.930 . S
H327 C307 0.939 . S
H328 C319 0.929 . S
H329 C322 0.930 . S
C330 C331 1.351 . S
C330 N333 1.368 . S
C330 H335 0.931 . S
C331 C330 1.351 . S
C331 N332 1.373 . S
C331 H359 0.930 . S
N332 C331 1.373 . S
N332 C334 1.340 . S
N333 C330 1.368 . S
N333 C334 1.321 . S
N333 Co336 2.135 . S
C334 N332 1.340 . S
C334 N333 1.321 . S
C334 H358 0.930 . S
H335 C330 0.931 . S
Co336 N333 2.135 . S
Co336 N339 2.121 . S
Co336 O344 2.055 . S
Co336 O347 2.039 . S
Co336 N350 2.140 . S
C337 O338 1.227 . S
C337 O347 1.265 . S
O338 C337 1.227 . S
N339 Co336 2.121 . S
N339 C341 1.375 . S
N339 C342 1.313 . S
C340 C341 1.338 . S
C340 N343 1.377 . S
C340 H360 0.930 . S
C341 N339 1.375 . S
C341 C340 1.338 . S
C341 H345 0.931 . S
C342 N339 1.313 . S
C342 N343 1.344 . S
C342 H346 0.930 . S
N343 C340 1.377 . S
N343 C342 1.344 . S
O344 Co336 2.055 . S
O344 C348 1.253 . S
H345 C341 0.931 . S
H346 C342 0.930 . S
O347 Co336 2.039 . S
O347 C337 1.265 . S
C348 O344 1.253 . S
C348 O349 1.227 . S
O349 C348 1.227 . S
N350 Co336 2.140 . S
N350 C353 1.346 . S
N350 C354 1.345 . S
C351 C352 1.387 . S
C351 C355 1.391 . S
C352 C351 1.387 . S
C352 C353 1.369 . S
C352 H361 0.929 . S
C353 N350 1.346 . S
C353 C352 1.369 . S
C353 H356 0.928 . S
C354 N350 1.345 . S
C354 C355 1.371 . S
C354 H357 0.931 . S
C355 C351 1.391 . S
C355 C354 1.371 . S
C355 H362 0.930 . S
H356 C353 0.928 . S
H357 C354 0.931 . S
H358 C334 0.930 . S
H359 C331 0.930 . S
H360 C340 0.930 . S
H361 C352 0.929 . S
H362 C355 0.930 . S
C363 C364 1.351 1_545 S
C363 N366 1.368 . S
C363 H368 0.931 . S
C364 C363 1.351 1_565 S
C364 N365 1.373 . S
C364 H392 0.930 . S
N365 C364 1.373 . S
N365 C367 1.340 . S
N366 C363 1.368 . S
N366 C367 1.321 1_545 S
N366 Co369 2.135 . S
C367 N365 1.340 . S
C367 N366 1.321 1_565 S
C367 H391 0.930 . S
H368 C363 0.931 . S
Co369 N366 2.135 . S
Co369 N372 2.121 . S
Co369 O377 2.055 . S
Co369 O380 2.039 . S
Co369 N383 2.140 . S
C370 O371 1.227 . S
C370 O380 1.265 . S
O371 C370 1.227 . S
N372 Co369 2.121 . S
N372 C374 1.375 . S
N372 C375 1.313 . S
C373 C374 1.338 . S
C373 N376 1.377 . S
C373 H393 0.930 . S
C374 N372 1.375 . S
C374 C373 1.338 . S
C374 H378 0.931 . S
C375 N372 1.313 . S
C375 N376 1.344 . S
C375 H379 0.930 . S
N376 C373 1.377 . S
N376 C375 1.344 . S
O377 Co369 2.055 . S
O377 C381 1.253 . S
H378 C374 0.931 . S
H379 C375 0.930 . S
O380 Co369 2.039 . S
O380 C370 1.265 . S
C381 O377 1.253 . S
C381 O382 1.227 . S
O382 C381 1.227 . S
N383 Co369 2.140 . S
N383 C386 1.346 . S
N383 C387 1.345 . S
C384 C385 1.387 . S
C384 C388 1.391 . S
C385 C384 1.387 . S
C385 C386 1.369 . S
C385 H394 0.929 . S
C386 N383 1.346 . S
C386 C385 1.369 . S
C386 H389 0.928 . S
C387 N383 1.345 . S
C387 C388 1.371 . S
C387 H390 0.931 . S
C388 C384 1.391 . S
C388 C387 1.371 . S
C388 H395 0.930 . S
H389 C386 0.928 . S
H390 C387 0.931 . S
H391 C367 0.930 . S
H392 C364 0.930 . S
H393 C373 0.930 . S
H394 C385 0.929 . S
H395 C388 0.930 . S
C396 C397 1.351 . S
C396 N399 1.368 . S
C396 H401 0.931 . S
C397 C396 1.351 . S
C397 N398 1.373 . S
C397 H425 0.930 . S
N398 C397 1.373 . S
N398 C400 1.340 . S
N399 C396 1.368 . S
N399 C400 1.321 . S
N399 Co402 2.135 . S
C400 N398 1.340 . S
C400 N399 1.321 . S
C400 H424 0.930 . S
H401 C396 0.931 . S
Co402 N399 2.135 . S
Co402 N405 2.121 . S
Co402 O410 2.055 . S
Co402 O413 2.039 . S
Co402 N416 2.140 . S
C403 O404 1.227 . S
C403 O413 1.265 . S
O404 C403 1.227 . S
N405 Co402 2.121 . S
N405 C407 1.375 . S
N405 C408 1.313 . S
C406 C407 1.338 . S
C406 N409 1.377 . S
C406 H426 0.930 . S
C407 N405 1.375 . S
C407 C406 1.338 . S
C407 H411 0.931 . S
C408 N405 1.313 . S
C408 N409 1.344 . S
C408 H412 0.930 . S
N409 C406 1.377 . S
N409 C408 1.344 . S
O410 Co402 2.055 . S
O410 C414 1.253 . S
H411 C407 0.931 . S
H412 C408 0.930 . S
O413 Co402 2.039 . S
O413 C403 1.265 . S
C414 O410 1.253 . S
C414 O415 1.227 . S
O415 C414 1.227 . S
N416 Co402 2.140 . S
N416 C419 1.346 . S
N416 C420 1.345 . S
C417 C418 1.387 . S
C417 C421 1.391 . S
C418 C417 1.387 . S
C418 C419 1.369 . S
C418 H427 0.929 . S
C419 N416 1.346 . S
C419 C418 1.369 . S
C419 H422 0.928 . S
C420 N416 1.345 . S
C420 C421 1.371 . S
C420 H423 0.931 . S
C421 C417 1.391 . S
C421 C420 1.371 . S
C421 H428 0.930 . S
H422 C419 0.928 . S
H423 C420 0.931 . S
H424 C400 0.930 . S
H425 C397 0.930 . S
H426 C406 0.930 . S
H427 C418 0.929 . S
H428 C421 0.930 . S
C429 C430 1.351 1_565 S
C429 N432 1.368 . S
C429 H434 0.931 . S
C430 C429 1.351 1_545 S
C430 N431 1.373 . S
C430 H458 0.930 . S
N431 C430 1.373 . S
N431 C433 1.340 . S
N432 C429 1.368 . S
N432 C433 1.321 1_565 S
N432 Co435 2.135 . S
C433 N431 1.340 . S
C433 N432 1.321 1_545 S
C433 H457 0.930 . S
H434 C429 0.931 . S
Co435 N432 2.135 . S
Co435 N438 2.121 . S
Co435 O443 2.055 . S
Co435 O446 2.039 . S
Co435 N449 2.140 . S
C436 O437 1.227 . S
C436 O446 1.265 . S
O437 C436 1.227 . S
N438 Co435 2.121 . S
N438 C440 1.375 . S
N438 C441 1.313 . S
C439 C440 1.338 . S
C439 N442 1.377 . S
C439 H459 0.930 . S
C440 N438 1.375 . S
C440 C439 1.338 . S
C440 H444 0.931 . S
C441 N438 1.313 . S
C441 N442 1.344 . S
C441 H445 0.930 . S
N442 C439 1.377 . S
N442 C441 1.344 . S
O443 Co435 2.055 . S
O443 C447 1.253 . S
H444 C440 0.931 . S
H445 C441 0.930 . S
O446 Co435 2.039 . S
O446 C436 1.265 . S
C447 O443 1.253 . S
C447 O448 1.227 . S
O448 C447 1.227 . S
N449 Co435 2.140 . S
N449 C452 1.346 . S
N449 C453 1.345 . S
C450 C451 1.387 . S
C450 C454 1.391 . S
C451 C450 1.387 . S
C451 C452 1.369 . S
C451 H460 0.929 . S
C452 N449 1.346 . S
C452 C451 1.369 . S
C452 H455 0.928 . S
C453 N449 1.345 . S
C453 C454 1.371 . S
C453 H456 0.931 . S
C454 C450 1.391 . S
C454 C453 1.371 . S
C454 H461 0.930 . S
H455 C452 0.928 . S
H456 C453 0.931 . S
H457 C433 0.930 . S
H458 C430 0.930 . S
H459 C439 0.930 . S
H460 C451 0.929 . S
H461 C454 0.930 . S
C462 C463 1.351 . S
C462 N465 1.368 . S
C462 H467 0.931 . S
C463 C462 1.351 . S
C463 N464 1.373 . S
C463 H491 0.930 . S
N464 C463 1.373 . S
N464 C466 1.340 . S
N465 C462 1.368 . S
N465 C466 1.321 . S
N465 Co468 2.135 . S
C466 N464 1.340 . S
C466 N465 1.321 . S
C466 H490 0.930 . S
H467 C462 0.931 . S
Co468 N465 2.135 . S
Co468 N471 2.121 . S
Co468 O476 2.055 . S
Co468 O479 2.039 . S
Co468 N482 2.140 . S
C469 O470 1.227 . S
C469 O479 1.265 . S
O470 C469 1.227 . S
N471 Co468 2.121 . S
N471 C473 1.375 . S
N471 C474 1.313 . S
C472 C473 1.338 . S
C472 N475 1.377 . S
C472 H492 0.930 . S
C473 N471 1.375 . S
C473 C472 1.338 . S
C473 H477 0.931 . S
C474 N471 1.313 . S
C474 N475 1.344 . S
C474 H478 0.930 . S
N475 C472 1.377 . S
N475 C474 1.344 . S
O476 Co468 2.055 . S
O476 C480 1.253 . S
H477 C473 0.931 . S
H478 C474 0.930 . S
O479 Co468 2.039 . S
O479 C469 1.265 . S
C480 O476 1.253 . S
C480 O481 1.227 . S
O481 C480 1.227 . S
N482 Co468 2.140 . S
N482 C485 1.346 . S
N482 C486 1.345 . S
C483 C484 1.387 . S
C483 C487 1.391 . S
C484 C483 1.387 . S
C484 C485 1.369 . S
C484 H493 0.929 . S
C485 N482 1.346 . S
C485 C484 1.369 . S
C485 H488 0.928 . S
C486 N482 1.345 . S
C486 C487 1.371 . S
C486 H489 0.931 . S
C487 C483 1.391 . S
C487 C486 1.371 . S
C487 H494 0.930 . S
H488 C485 0.928 . S
H489 C486 0.931 . S
H490 C466 0.930 . S
H491 C463 0.930 . S
H492 C472 0.930 . S
H493 C484 0.929 . S
H494 C487 0.930 . S
C495 C496 1.351 1_545 S
C495 N498 1.368 . S
C495 H500 0.931 . S
C496 C495 1.351 1_565 S
C496 N497 1.373 . S
C496 H524 0.930 . S
N497 C496 1.373 . S
N497 C499 1.340 . S
N498 C495 1.368 . S
N498 C499 1.321 1_545 S
N498 Co501 2.135 . S
C499 N497 1.340 . S
C499 N498 1.321 1_565 S
C499 H523 0.930 . S
H500 C495 0.931 . S
Co501 N498 2.135 . S
Co501 N504 2.121 . S
Co501 O509 2.055 . S
Co501 O512 2.039 . S
Co501 N515 2.140 . S
C502 O503 1.227 . S
C502 O512 1.265 . S
O503 C502 1.227 . S
N504 Co501 2.121 . S
N504 C506 1.375 . S
N504 C507 1.313 . S
C505 C506 1.316 1_655 S
C505 N508 1.389 . S
C505 H525 0.939 . S
C506 N504 1.375 . S
C506 C505 1.316 1_455 S
C506 H510 0.931 . S
C507 N504 1.313 . S
C507 N508 1.344 1_455 S
C507 H511 0.931 . S
N508 C505 1.389 . S
N508 C507 1.344 1_655 S
O509 Co501 2.055 . S
O509 C513 1.253 . S
H510 C506 0.931 . S
H511 C507 0.931 . S
O512 Co501 2.039 . S
O512 C502 1.265 . S
C513 O509 1.253 . S
C513 O514 1.227 . S
O514 C513 1.227 . S
N515 Co501 2.140 . S
N515 C518 1.346 . S
N515 C519 1.345 . S
C516 C517 1.387 . S
C516 C520 1.391 . S
C517 C516 1.387 . S
C517 C518 1.369 . S
C517 H526 0.929 . S
C518 N515 1.346 . S
C518 C517 1.369 . S
C518 H521 0.928 . S
C519 N515 1.345 . S
C519 C520 1.371 . S
C519 H522 0.931 . S
C520 C516 1.391 . S
C520 C519 1.371 . S
C520 H527 0.930 . S
H521 C518 0.928 . S
H522 C519 0.931 . S
H523 C499 0.930 . S
H524 C496 0.930 . S
H525 C505 0.939 . S
H526 C517 0.929 . S
H527 C520 0.930 . S
C528 C529 1.351 . S
C528 N531 1.368 . S
C528 H533 0.931 . S
C529 C528 1.351 . S
C529 N530 1.373 . S
C529 H557 0.930 . S
N530 C529 1.373 . S
N530 C532 1.340 . S
N531 C528 1.368 . S
N531 C532 1.321 . S
N531 Co534 2.135 . S
C532 N530 1.340 . S
C532 N531 1.321 . S
C532 H556 0.930 . S
H533 C528 0.931 . S
Co534 N531 2.135 . S
Co534 N537 2.121 . S
Co534 O542 2.055 . S
Co534 O545 2.039 . S
Co534 N548 2.140 . S
C535 O536 1.227 . S
C535 O545 1.265 . S
O536 C535 1.227 . S
N537 Co534 2.121 . S
N537 C539 1.375 . S
N537 C540 1.313 . S
C538 C539 1.338 . S
C538 N541 1.377 . S
C538 H558 0.930 . S
C539 N537 1.375 . S
C539 C538 1.338 . S
C539 H543 0.931 . S
C540 N537 1.313 . S
C540 N541 1.344 . S
C540 H544 0.930 . S
N541 C538 1.377 . S
N541 C540 1.344 . S
O542 Co534 2.055 . S
O542 C546 1.253 . S
H543 C539 0.931 . S
H544 C540 0.930 . S
O545 Co534 2.039 . S
O545 C535 1.265 . S
C546 O542 1.253 . S
C546 O547 1.227 . S
O547 C546 1.227 . S
N548 Co534 2.140 . S
N548 C551 1.346 . S
N548 C552 1.345 . S
C549 C550 1.387 . S
C549 C553 1.391 . S
C550 C549 1.387 . S
C550 C551 1.369 . S
C550 H559 0.929 . S
C551 N548 1.346 . S
C551 C550 1.369 . S
C551 H554 0.928 . S
C552 N548 1.345 . S
C552 C553 1.371 . S
C552 H555 0.931 . S
C553 C549 1.391 . S
C553 C552 1.371 . S
C553 H560 0.930 . S
H554 C551 0.928 . S
H555 C552 0.931 . S
H556 C532 0.930 . S
H557 C529 0.930 . S
H558 C538 0.930 . S
H559 C550 0.929 . S
H560 C553 0.930 . S
C561 C562 1.351 . S
C561 N564 1.368 . S
C561 H566 0.931 . S
C562 C561 1.351 . S
C562 N563 1.373 . S
C562 H590 0.930 . S
N563 C562 1.373 . S
N563 C565 1.340 . S
N564 C561 1.368 . S
N564 C565 1.321 . S
N564 Co567 2.135 . S
C565 N563 1.340 . S
C565 N564 1.321 . S
C565 H589 0.930 . S
H566 C561 0.931 . S
Co567 N564 2.135 . S
Co567 N570 2.121 . S
Co567 O575 2.055 . S
Co567 O578 2.039 . S
Co567 N581 2.140 . S
C568 O569 1.227 . S
C568 O578 1.265 . S
O569 C568 1.227 . S
N570 Co567 2.121 . S
N570 C572 1.375 . S
N570 C573 1.313 . S
C571 C572 1.338 . S
C571 N574 1.377 . S
C571 H591 0.930 . S
C572 N570 1.375 . S
C572 C571 1.338 . S
C572 H576 0.931 . S
C573 N570 1.313 . S
C573 N574 1.344 . S
C573 H577 0.930 . S
N574 C571 1.377 . S
N574 C573 1.344 . S
O575 Co567 2.055 . S
O575 C579 1.253 . S
H576 C572 0.931 . S
H577 C573 0.930 . S
O578 Co567 2.039 . S
O578 C568 1.265 . S
C579 O575 1.253 . S
C579 O580 1.227 . S
O580 C579 1.227 . S
N581 Co567 2.140 . S
N581 C584 1.346 . S
N581 C585 1.345 . S
C582 C583 1.387 . S
C582 C586 1.391 . S
C583 C582 1.387 . S
C583 C584 1.369 . S
C583 H592 0.929 . S
C584 N581 1.346 . S
C584 C583 1.369 . S
C584 H587 0.928 . S
C585 N581 1.345 . S
C585 C586 1.371 . S
C585 H588 0.931 . S
C586 C582 1.391 . S
C586 C585 1.371 . S
C586 H593 0.930 . S
H587 C584 0.928 . S
H588 C585 0.931 . S
H589 C565 0.930 . S
H590 C562 0.930 . S
H591 C571 0.930 . S
H592 C583 0.929 . S
H593 C586 0.930 . S
C594 C595 1.351 . S
C594 N597 1.368 . S
C594 H599 0.931 . S
C595 C594 1.351 . S
C595 N596 1.373 . S
C595 H623 0.930 . S
N596 C595 1.373 . S
N596 C598 1.340 . S
N597 C594 1.368 . S
N597 C598 1.321 . S
N597 Co600 2.135 . S
C598 N596 1.340 . S
C598 N597 1.321 . S
C598 H622 0.930 . S
H599 C594 0.931 . S
Co600 N597 2.135 . S
Co600 N603 2.121 . S
Co600 O608 2.055 . S
Co600 O611 2.039 . S
Co600 N614 2.140 . S
C601 O602 1.227 . S
C601 O611 1.265 . S
O602 C601 1.227 . S
N603 Co600 2.121 . S
N603 C605 1.375 . S
N603 C606 1.313 . S
C604 C605 1.338 . S
C604 N607 1.377 . S
C604 H624 0.930 . S
C605 N603 1.375 . S
C605 C604 1.338 . S
C605 H609 0.931 . S
C606 N603 1.313 . S
C606 N607 1.344 . S
C606 H610 0.930 . S
N607 C604 1.377 . S
N607 C606 1.344 . S
O608 Co600 2.055 . S
O608 C612 1.253 . S
H609 C605 0.931 . S
H610 C606 0.930 . S
O611 Co600 2.039 . S
O611 C601 1.265 . S
C612 O608 1.253 . S
C612 O613 1.227 . S
O613 C612 1.227 . S
N614 Co600 2.140 . S
N614 C617 1.346 . S
N614 C618 1.345 . S
C615 C616 1.387 . S
C615 C619 1.391 . S
C616 C615 1.387 . S
C616 C617 1.369 . S
C616 H625 0.929 . S
C617 N614 1.346 . S
C617 C616 1.369 . S
C617 H620 0.928 . S
C618 N614 1.345 . S
C618 C619 1.371 . S
C618 H621 0.931 . S
C619 C615 1.391 . S
C619 C618 1.371 . S
C619 H626 0.930 . S
H620 C617 0.928 . S
H621 C618 0.931 . S
H622 C598 0.930 . S
H623 C595 0.930 . S
H624 C604 0.930 . S
H625 C616 0.929 . S
H626 C619 0.930 . S
C627 C628 1.351 . S
C627 N630 1.368 . S
C627 H632 0.931 . S
C628 C627 1.351 . S
C628 N629 1.373 . S
C628 H656 0.930 . S
N629 C628 1.373 . S
N629 C631 1.340 . S
N630 C627 1.368 . S
N630 C631 1.321 . S
N630 Co633 2.135 . S
C631 N629 1.340 . S
C631 N630 1.321 . S
C631 H655 0.930 . S
H632 C627 0.931 . S
Co633 N630 2.135 . S
Co633 N636 2.121 . S
Co633 O641 2.055 . S
Co633 O644 2.039 . S
Co633 N647 2.140 . S
C634 O635 1.227 . S
C634 O644 1.265 . S
O635 C634 1.227 . S
N636 Co633 2.121 . S
N636 C638 1.375 . S
N636 C639 1.313 . S
C637 C638 1.316 1_655 S
C637 N640 1.388 . S
C637 H657 0.939 . S
C638 N636 1.375 . S
C638 C637 1.316 1_455 S
C638 H642 0.931 . S
C639 N636 1.313 . S
C639 N640 1.344 1_455 S
C639 H643 0.931 . S
N640 C637 1.388 . S
N640 C639 1.344 1_655 S
O641 Co633 2.055 . S
O641 C645 1.253 . S
H642 C638 0.931 . S
H643 C639 0.931 . S
O644 Co633 2.039 . S
O644 C634 1.265 . S
C645 O641 1.253 . S
C645 O646 1.227 . S
O646 C645 1.227 . S
N647 Co633 2.140 . S
N647 C650 1.346 . S
N647 C651 1.345 . S
C648 C649 1.387 . S
C648 C652 1.391 . S
C649 C648 1.387 . S
C649 C650 1.369 . S
C649 H658 0.929 . S
C650 N647 1.346 . S
C650 C649 1.369 . S
C650 H653 0.928 . S
C651 N647 1.345 . S
C651 C652 1.371 . S
C651 H654 0.931 . S
C652 C648 1.391 . S
C652 C651 1.371 . S
C652 H659 0.930 . S
H653 C650 0.928 . S
H654 C651 0.931 . S
H655 C631 0.930 . S
H656 C628 0.930 . S
H657 C637 0.939 . S
H658 C649 0.929 . S
H659 C652 0.930 . S
C660 C661 1.351 . S
C660 N663 1.368 . S
C660 H665 0.931 . S
C661 C660 1.351 . S
C661 N662 1.373 . S
C661 H689 0.930 . S
N662 C661 1.373 . S
N662 C664 1.340 . S
N663 C660 1.368 . S
N663 C664 1.321 . S
N663 Co666 2.135 . S
C664 N662 1.340 . S
C664 N663 1.321 . S
C664 H688 0.930 . S
H665 C660 0.931 . S
Co666 N663 2.135 . S
Co666 N669 2.121 . S
Co666 O674 2.055 . S
Co666 O677 2.039 . S
Co666 N680 2.140 . S
C667 O668 1.227 . S
C667 O677 1.265 . S
O668 C667 1.227 . S
N669 Co666 2.121 . S
N669 C671 1.375 . S
N669 C672 1.313 . S
C670 C671 1.338 . S
C670 N673 1.377 . S
C670 H690 0.930 . S
C671 N669 1.375 . S
C671 C670 1.338 . S
C671 H675 0.931 . S
C672 N669 1.313 . S
C672 N673 1.344 . S
C672 H676 0.930 . S
N673 C670 1.377 . S
N673 C672 1.344 . S
O674 Co666 2.055 . S
O674 C678 1.253 . S
H675 C671 0.931 . S
H676 C672 0.930 . S
O677 Co666 2.039 . S
O677 C667 1.265 . S
C678 O674 1.253 . S
C678 O679 1.227 . S
O679 C678 1.227 . S
N680 Co666 2.140 . S
N680 C683 1.346 . S
N680 C684 1.345 . S
C681 C682 1.387 . S
C681 C685 1.391 . S
C682 C681 1.387 . S
C682 C683 1.369 . S
C682 H691 0.929 . S
C683 N680 1.346 . S
C683 C682 1.369 . S
C683 H686 0.928 . S
C684 N680 1.345 . S
C684 C685 1.371 . S
C684 H687 0.931 . S
C685 C681 1.391 . S
C685 C684 1.371 . S
C685 H692 0.930 . S
H686 C683 0.928 . S
H687 C684 0.931 . S
H688 C664 0.930 . S
H689 C661 0.930 . S
H690 C670 0.930 . S
H691 C682 0.929 . S
H692 C685 0.930 . S
C693 C694 1.351 . S
C693 N696 1.368 . S
C693 H698 0.931 . S
C694 C693 1.351 . S
C694 N695 1.373 . S
C694 H722 0.930 . S
N695 C694 1.373 . S
N695 C697 1.340 . S
N696 C693 1.368 . S
N696 C697 1.321 . S
N696 Co699 2.135 . S
C697 N695 1.340 . S
C697 N696 1.321 . S
C697 H721 0.930 . S
H698 C693 0.931 . S
Co699 N696 2.135 . S
Co699 N702 2.121 . S
Co699 O707 2.055 . S
Co699 O710 2.039 . S
Co699 N713 2.140 . S
C700 O701 1.227 . S
C700 O710 1.265 . S
O701 C700 1.227 . S
N702 Co699 2.121 . S
N702 C704 1.375 . S
N702 C705 1.313 . S
C703 C704 1.316 1_655 S
C703 N706 1.388 . S
C703 H723 0.939 . S
C704 N702 1.375 . S
C704 C703 1.316 1_455 S
C704 H708 0.931 . S
C705 N702 1.313 . S
C705 N706 1.344 1_455 S
C705 H709 0.931 . S
N706 C703 1.388 . S
N706 C705 1.344 1_655 S
O707 Co699 2.055 . S
O707 C711 1.253 . S
H708 C704 0.931 . S
H709 C705 0.931 . S
O710 Co699 2.039 . S
O710 C700 1.265 . S
C711 O707 1.253 . S
C711 O712 1.227 . S
O712 C711 1.227 . S
N713 Co699 2.140 . S
N713 C716 1.346 . S
N713 C717 1.345 . S
C714 C715 1.387 . S
C714 C718 1.391 . S
C715 C714 1.387 . S
C715 C716 1.369 . S
C715 H724 0.929 . S
C716 N713 1.346 . S
C716 C715 1.369 . S
C716 H719 0.928 . S
C717 N713 1.345 . S
C717 C718 1.371 . S
C717 H720 0.931 . S
C718 C714 1.391 . S
C718 C717 1.371 . S
C718 H725 0.930 . S
H719 C716 0.928 . S
H720 C717 0.931 . S
H721 C697 0.930 . S
H722 C694 0.930 . S
H723 C703 0.939 . S
H724 C715 0.929 . S
H725 C718 0.930 . S
C726 C727 1.351 . S
C726 N729 1.368 . S
C726 H731 0.931 . S
C727 C726 1.351 . S
C727 N728 1.373 . S
C727 H755 0.930 . S
N728 C727 1.373 . S
N728 C730 1.340 . S
N729 C726 1.368 . S
N729 C730 1.321 . S
N729 Co732 2.135 . S
C730 N728 1.340 . S
C730 N729 1.321 . S
C730 H754 0.930 . S
H731 C726 0.931 . S
Co732 N729 2.135 . S
Co732 N735 2.121 . S
Co732 O740 2.055 . S
Co732 O743 2.039 . S
Co732 N746 2.140 . S
C733 O734 1.227 . S
C733 O743 1.265 . S
O734 C733 1.227 . S
N735 Co732 2.121 . S
N735 C737 1.375 . S
N735 C738 1.313 . S
C736 C737 1.338 . S
C736 N739 1.377 . S
C736 H756 0.930 . S
C737 N735 1.375 . S
C737 C736 1.338 . S
C737 H741 0.931 . S
C738 N735 1.313 . S
C738 N739 1.344 . S
C738 H742 0.930 . S
N739 C736 1.377 . S
N739 C738 1.344 . S
O740 Co732 2.055 . S
O740 C744 1.253 . S
H741 C737 0.931 . S
H742 C738 0.930 . S
O743 Co732 2.039 . S
O743 C733 1.265 . S
C744 O740 1.253 . S
C744 O745 1.227 . S
O745 C744 1.227 . S
N746 Co732 2.140 . S
N746 C749 1.346 . S
N746 C750 1.345 . S
C747 C748 1.387 . S
C747 C751 1.391 . S
C748 C747 1.387 . S
C748 C749 1.369 . S
C748 H757 0.929 . S
C749 N746 1.346 . S
C749 C748 1.369 . S
C749 H752 0.928 . S
C750 N746 1.345 . S
C750 C751 1.371 . S
C750 H753 0.931 . S
C751 C747 1.391 . S
C751 C750 1.371 . S
C751 H758 0.930 . S
H752 C749 0.928 . S
H753 C750 0.931 . S
H754 C730 0.930 . S
H755 C727 0.930 . S
H756 C736 0.930 . S
H757 C748 0.929 . S
H758 C751 0.930 . S
C759 C760 1.351 . S
C759 N762 1.368 . S
C759 H764 0.931 . S
C760 C759 1.351 . S
C760 N761 1.373 . S
C760 H788 0.930 . S
N761 C760 1.373 . S
N761 C763 1.340 . S
N762 C759 1.368 . S
N762 C763 1.321 . S
N762 Co765 2.135 . S
C763 N761 1.340 . S
C763 N762 1.321 . S
C763 H787 0.930 . S
H764 C759 0.931 . S
Co765 N762 2.135 . S
Co765 N768 2.121 . S
Co765 O773 2.055 . S
Co765 O776 2.039 . S
Co765 N779 2.140 . S
C766 O767 1.227 . S
C766 O776 1.265 . S
O767 C766 1.227 . S
N768 Co765 2.121 . S
N768 C770 1.375 . S
N768 C771 1.313 . S
C769 C770 1.338 . S
C769 N772 1.377 . S
C769 H789 0.930 . S
C770 N768 1.375 . S
C770 C769 1.338 . S
C770 H774 0.931 . S
C771 N768 1.313 . S
C771 N772 1.344 . S
C771 H775 0.930 . S
N772 C769 1.377 . S
N772 C771 1.344 . S
O773 Co765 2.055 . S
O773 C777 1.253 . S
H774 C770 0.931 . S
H775 C771 0.930 . S
O776 Co765 2.039 . S
O776 C766 1.265 . S
C777 O773 1.253 . S
C777 O778 1.227 . S
O778 C777 1.227 . S
N779 Co765 2.140 . S
N779 C782 1.346 . S
N779 C783 1.345 . S
C780 C781 1.387 . S
C780 C784 1.391 . S
C781 C780 1.387 . S
C781 C782 1.369 . S
C781 H790 0.929 . S
C782 N779 1.346 . S
C782 C781 1.369 . S
C782 H785 0.928 . S
C783 N779 1.345 . S
C783 C784 1.371 . S
C783 H786 0.931 . S
C784 C780 1.391 . S
C784 C783 1.371 . S
C784 H791 0.930 . S
H785 C782 0.928 . S
H786 C783 0.931 . S
H787 C763 0.930 . S
H788 C760 0.930 . S
H789 C769 0.930 . S
H790 C781 0.929 . S
H791 C784 0.930 . S
C792 C793 1.351 . S
C792 N795 1.368 . S
C792 H797 0.931 . S
C793 C792 1.351 . S
C793 N794 1.373 . S
C793 H821 0.930 . S
N794 C793 1.373 . S
N794 C796 1.340 . S
N795 C792 1.368 . S
N795 C796 1.321 . S
N795 Co798 2.135 . S
C796 N794 1.340 . S
C796 N795 1.321 . S
C796 H820 0.930 . S
H797 C792 0.931 . S
Co798 N795 2.135 . S
Co798 N801 2.121 . S
Co798 O806 2.055 . S
Co798 O809 2.039 . S
Co798 N812 2.140 . S
C799 O800 1.227 . S
C799 O809 1.265 . S
O800 C799 1.227 . S
N801 Co798 2.121 . S
N801 C803 1.375 . S
N801 C804 1.313 . S
C802 C803 1.338 . S
C802 N805 1.377 . S
C802 H822 0.930 . S
C803 N801 1.375 . S
C803 C802 1.338 . S
C803 H807 0.931 . S
C804 N801 1.313 . S
C804 N805 1.344 . S
C804 H808 0.930 . S
N805 C802 1.377 . S
N805 C804 1.344 . S
O806 Co798 2.055 . S
O806 C810 1.253 . S
H807 C803 0.931 . S
H808 C804 0.930 . S
O809 Co798 2.039 . S
O809 C799 1.265 . S
C810 O806 1.253 . S
C810 O811 1.227 . S
O811 C810 1.227 . S
N812 Co798 2.140 . S
N812 C815 1.346 . S
N812 C816 1.345 . S
C813 C814 1.387 . S
C813 C817 1.391 . S
C814 C813 1.387 . S
C814 C815 1.369 . S
C814 H823 0.929 . S
C815 N812 1.346 . S
C815 C814 1.369 . S
C815 H818 0.928 . S
C816 N812 1.345 . S
C816 C817 1.371 . S
C816 H819 0.931 . S
C817 C813 1.391 . S
C817 C816 1.371 . S
C817 H824 0.930 . S
H818 C815 0.928 . S
H819 C816 0.931 . S
H820 C796 0.930 . S
H821 C793 0.930 . S
H822 C802 0.930 . S
H823 C814 0.929 . S
H824 C817 0.930 . S
C825 C826 1.351 . S
C825 N828 1.368 . S
C825 H830 0.931 . S
C826 C825 1.351 . S
C826 N827 1.373 . S
C826 H854 0.930 . S
N827 C826 1.373 . S
N827 C829 1.340 . S
N828 C825 1.368 . S
N828 C829 1.321 . S
N828 Co831 2.135 . S
C829 N827 1.340 . S
C829 N828 1.321 . S
C829 H853 0.930 . S
H830 C825 0.931 . S
Co831 N828 2.135 . S
Co831 N834 2.121 . S
Co831 O839 2.055 . S
Co831 O842 2.039 . S
Co831 N845 2.140 . S
C832 O833 1.227 . S
C832 O842 1.265 . S
O833 C832 1.227 . S
N834 Co831 2.121 . S
N834 C836 1.375 . S
N834 C837 1.313 . S
C835 C836 1.338 . S
C835 N838 1.377 . S
C835 H855 0.930 . S
C836 N834 1.375 . S
C836 C835 1.338 . S
C836 H840 0.931 . S
C837 N834 1.313 . S
C837 N838 1.344 . S
C837 H841 0.930 . S
N838 C835 1.377 . S
N838 C837 1.344 . S
O839 Co831 2.055 . S
O839 C843 1.253 . S
H840 C836 0.931 . S
H841 C837 0.930 . S
O842 Co831 2.039 . S
O842 C832 1.265 . S
C843 O839 1.253 . S
C843 O844 1.227 . S
O844 C843 1.227 . S
N845 Co831 2.140 . S
N845 C848 1.346 . S
N845 C849 1.345 . S
C846 C847 1.387 . S
C846 C850 1.391 . S
C847 C846 1.387 . S
C847 C848 1.369 . S
C847 H856 0.929 . S
C848 N845 1.346 . S
C848 C847 1.369 . S
C848 H851 0.928 . S
C849 N845 1.345 . S
C849 C850 1.371 . S
C849 H852 0.931 . S
C850 C846 1.391 . S
C850 C849 1.371 . S
C850 H857 0.930 . S
H851 C848 0.928 . S
H852 C849 0.931 . S
H853 C829 0.930 . S
H854 C826 0.930 . S
H855 C835 0.930 . S
H856 C847 0.929 . S
H857 C850 0.930 . S
C858 C859 1.351 . S
C858 N861 1.368 . S
C858 H863 0.931 . S
C859 C858 1.351 . S
C859 N860 1.373 . S
C859 H887 0.930 . S
N860 C859 1.373 . S
N860 C862 1.340 . S
N861 C858 1.368 . S
N861 C862 1.321 . S
N861 Co864 2.135 . S
C862 N860 1.340 . S
C862 N861 1.321 . S
C862 H886 0.930 . S
H863 C858 0.931 . S
Co864 N861 2.135 . S
Co864 N867 2.121 . S
Co864 O872 2.055 . S
Co864 O875 2.039 . S
Co864 N878 2.140 . S
C865 O866 1.227 . S
C865 O875 1.265 . S
O866 C865 1.227 . S
N867 Co864 2.121 . S
N867 C869 1.375 . S
N867 C870 1.313 . S
C868 C869 1.338 . S
C868 N871 1.377 . S
C868 H888 0.930 . S
C869 N867 1.375 . S
C869 C868 1.338 . S
C869 H873 0.931 . S
C870 N867 1.313 . S
C870 N871 1.344 . S
C870 H874 0.930 . S
N871 C868 1.377 . S
N871 C870 1.344 . S
O872 Co864 2.055 . S
O872 C876 1.253 . S
H873 C869 0.931 . S
H874 C870 0.930 . S
O875 Co864 2.039 . S
O875 C865 1.265 . S
C876 O872 1.253 . S
C876 O877 1.227 . S
O877 C876 1.227 . S
N878 Co864 2.140 . S
N878 C881 1.346 . S
N878 C882 1.345 . S
C879 C880 1.387 . S
C879 C883 1.391 . S
C880 C879 1.387 . S
C880 C881 1.369 . S
C880 H889 0.929 . S
C881 N878 1.346 . S
C881 C880 1.369 . S
C881 H884 0.928 . S
C882 N878 1.345 . S
C882 C883 1.371 . S
C882 H885 0.931 . S
C883 C879 1.391 . S
C883 C882 1.371 . S
C883 H890 0.930 . S
H884 C881 0.928 . S
H885 C882 0.931 . S
H886 C862 0.930 . S
H887 C859 0.930 . S
H888 C868 0.930 . S
H889 C880 0.929 . S
H890 C883 0.930 . S
C891 C892 1.351 . S
C891 N894 1.368 . S
C891 H896 0.931 . S
C892 C891 1.351 . S
C892 N893 1.373 . S
C892 H920 0.930 . S
N893 C892 1.373 . S
N893 C895 1.340 . S
N894 C891 1.368 . S
N894 C895 1.321 . S
N894 Co897 2.135 . S
C895 N893 1.340 . S
C895 N894 1.321 . S
C895 H919 0.930 . S
H896 C891 0.931 . S
Co897 N894 2.135 . S
Co897 N900 2.121 . S
Co897 O905 2.055 . S
Co897 O908 2.039 . S
Co897 N911 2.140 . S
C898 O899 1.227 . S
C898 O908 1.265 . S
O899 C898 1.227 . S
N900 Co897 2.121 . S
N900 C902 1.375 . S
N900 C903 1.313 . S
C901 C902 1.316 1_455 S
C901 N904 1.388 . S
C901 H921 0.939 . S
C902 N900 1.375 . S
C902 C901 1.316 1_655 S
C902 H906 0.931 . S
C903 N900 1.313 . S
C903 N904 1.344 1_655 S
C903 H907 0.931 . S
N904 C901 1.388 . S
N904 C903 1.344 1_455 S
O905 Co897 2.055 . S
O905 C909 1.253 . S
H906 C902 0.931 . S
H907 C903 0.931 . S
O908 Co897 2.039 . S
O908 C898 1.265 . S
C909 O905 1.253 . S
C909 O910 1.227 . S
O910 C909 1.227 . S
N911 Co897 2.140 . S
N911 C914 1.346 . S
N911 C915 1.345 . S
C912 C913 1.387 . S
C912 C916 1.391 . S
C913 C912 1.387 . S
C913 C914 1.369 . S
C913 H922 0.929 . S
C914 N911 1.346 . S
C914 C913 1.369 . S
C914 H917 0.928 . S
C915 N911 1.345 . S
C915 C916 1.371 . S
C915 H918 0.931 . S
C916 C912 1.391 . S
C916 C915 1.371 . S
C916 H923 0.930 . S
H917 C914 0.928 . S
H918 C915 0.931 . S
H919 C895 0.930 . S
H920 C892 0.930 . S
H921 C901 0.939 . S
H922 C913 0.929 . S
H923 C916 0.930 . S
C924 C925 1.351 . S
C924 N927 1.368 . S
C924 H929 0.931 . S
C925 C924 1.351 . S
C925 N926 1.373 . S
C925 H953 0.930 . S
N926 C925 1.373 . S
N926 C928 1.340 . S
N927 C924 1.368 . S
N927 C928 1.321 . S
N927 Co930 2.135 . S
C928 N926 1.340 . S
C928 N927 1.321 . S
C928 H952 0.930 . S
H929 C924 0.931 . S
Co930 N927 2.135 . S
Co930 N933 2.121 . S
Co930 O938 2.055 . S
Co930 O941 2.039 . S
Co930 N944 2.140 . S
C931 O932 1.227 . S
C931 O941 1.265 . S
O932 C931 1.227 . S
N933 Co930 2.121 . S
N933 C935 1.375 . S
N933 C936 1.313 . S
C934 C935 1.338 . S
C934 N937 1.377 . S
C934 H954 0.930 . S
C935 N933 1.375 . S
C935 C934 1.338 . S
C935 H939 0.931 . S
C936 N933 1.313 . S
C936 N937 1.344 . S
C936 H940 0.930 . S
N937 C934 1.377 . S
N937 C936 1.344 . S
O938 Co930 2.055 . S
O938 C942 1.253 . S
H939 C935 0.931 . S
H940 C936 0.930 . S
O941 Co930 2.039 . S
O941 C931 1.265 . S
C942 O938 1.253 . S
C942 O943 1.227 . S
O943 C942 1.227 . S
N944 Co930 2.140 . S
N944 C947 1.346 . S
N944 C948 1.345 . S
C945 C946 1.387 . S
C945 C949 1.391 . S
C946 C945 1.387 . S
C946 C947 1.369 . S
C946 H955 0.929 . S
C947 N944 1.346 . S
C947 C946 1.369 . S
C947 H950 0.928 . S
C948 N944 1.345 . S
C948 C949 1.371 . S
C948 H951 0.931 . S
C949 C945 1.391 . S
C949 C948 1.371 . S
C949 H956 0.930 . S
H950 C947 0.928 . S
H951 C948 0.931 . S
H952 C928 0.930 . S
H953 C925 0.930 . S
H954 C934 0.930 . S
H955 C946 0.929 . S
H956 C949 0.930 . S
C957 C958 1.351 . S
C957 N960 1.368 . S
C957 H962 0.931 . S
C958 C957 1.351 . S
C958 N959 1.373 . S
C958 H986 0.930 . S
N959 C958 1.373 . S
N959 C961 1.340 . S
N960 C957 1.368 . S
N960 C961 1.321 . S
N960 Co963 2.135 . S
C961 N959 1.340 . S
C961 N960 1.321 . S
C961 H985 0.930 . S
H962 C957 0.931 . S
Co963 N960 2.135 . S
Co963 N966 2.121 . S
Co963 O971 2.055 . S
Co963 O974 2.039 . S
Co963 N977 2.140 . S
C964 O965 1.227 . S
C964 O974 1.265 . S
O965 C964 1.227 . S
N966 Co963 2.121 . S
N966 C968 1.375 . S
N966 C969 1.313 . S
C967 C968 1.316 1_455 S
C967 N970 1.388 . S
C967 H987 0.939 . S
C968 N966 1.375 . S
C968 C967 1.316 1_655 S
C968 H972 0.931 . S
C969 N966 1.313 . S
C969 N970 1.344 1_655 S
C969 H973 0.931 . S
N970 C967 1.388 . S
N970 C969 1.344 1_455 S
O971 Co963 2.055 . S
O971 C975 1.253 . S
H972 C968 0.931 . S
H973 C969 0.931 . S
O974 Co963 2.039 . S
O974 C964 1.265 . S
C975 O971 1.253 . S
C975 O976 1.227 . S
O976 C975 1.227 . S
N977 Co963 2.140 . S
N977 C980 1.346 . S
N977 C981 1.345 . S
C978 C979 1.387 . S
C978 C982 1.391 . S
C979 C978 1.387 . S
C979 C980 1.369 . S
C979 H988 0.929 . S
C980 N977 1.346 . S
C980 C979 1.369 . S
C980 H983 0.928 . S
C981 N977 1.345 . S
C981 C982 1.371 . S
C981 H984 0.931 . S
C982 C978 1.391 . S
C982 C981 1.371 . S
C982 H989 0.930 . S
H983 C980 0.928 . S
H984 C981 0.931 . S
H985 C961 0.930 . S
H986 C958 0.930 . S
H987 C967 0.939 . S
H988 C979 0.929 . S
H989 C982 0.930 . S
C990 C991 1.351 . S
C990 N993 1.368 . S
C990 H995 0.931 . S
C991 C990 1.351 . S
C991 N992 1.373 . S
C991 H1019 0.930 . S
N992 C991 1.373 . S
N992 C994 1.340 . S
N993 C990 1.368 . S
N993 C994 1.321 . S
N993 Co996 2.135 . S
C994 N992 1.340 . S
C994 N993 1.321 . S
C994 H1018 0.930 . S
H995 C990 0.931 . S
Co996 N993 2.135 . S
Co996 N999 2.121 . S
Co996 O1004 2.055 . S
Co996 O1007 2.039 . S
Co996 N1010 2.140 . S
C997 O998 1.227 . S
C997 O1007 1.265 . S
O998 C997 1.227 . S
N999 Co996 2.121 . S
N999 C1001 1.375 . S
N999 C1002 1.313 . S
C1000 C1001 1.338 . S
C1000 N1003 1.377 . S
C1000 H1020 0.930 . S
C1001 N999 1.375 . S
C1001 C1000 1.338 . S
C1001 H1005 0.931 . S
C1002 N999 1.313 . S
C1002 N1003 1.344 . S
C1002 H1006 0.930 . S
N1003 C1000 1.377 . S
N1003 C1002 1.344 . S
O1004 Co996 2.055 . S
O1004 C1008 1.253 . S
H1005 C1001 0.931 . S
H1006 C1002 0.930 . S
O1007 Co996 2.039 . S
O1007 C997 1.265 . S
C1008 O1004 1.253 . S
C1008 O1009 1.227 . S
O1009 C1008 1.227 . S
N1010 Co996 2.140 . S
N1010 C1013 1.346 . S
N1010 C1014 1.345 . S
C1011 C1012 1.387 . S
C1011 C1015 1.391 . S
C1012 C1011 1.387 . S
C1012 C1013 1.369 . S
C1012 H1021 0.929 . S
C1013 N1010 1.346 . S
C1013 C1012 1.369 . S
C1013 H1016 0.928 . S
C1014 N1010 1.345 . S
C1014 C1015 1.371 . S
C1014 H1017 0.931 . S
C1015 C1011 1.391 . S
C1015 C1014 1.371 . S
C1015 H1022 0.930 . S
H1016 C1013 0.928 . S
H1017 C1014 0.931 . S
H1018 C994 0.930 . S
H1019 C991 0.930 . S
H1020 C1000 0.930 . S
H1021 C1012 0.929 . S
H1022 C1015 0.930 . S
C1023 C1024 1.351 . S
C1023 N1026 1.368 . S
C1023 H1028 0.931 . S
C1024 C1023 1.351 . S
C1024 N1025 1.373 . S
C1024 H1052 0.930 . S
N1025 C1024 1.373 . S
N1025 C1027 1.340 . S
N1026 C1023 1.368 . S
N1026 C1027 1.321 . S
N1026 Co1029 2.135 . S
C1027 N1025 1.340 . S
C1027 N1026 1.321 . S
C1027 H1051 0.930 . S
H1028 C1023 0.931 . S
Co1029 N1026 2.135 . S
Co1029 N1032 2.121 . S
Co1029 O1037 2.055 . S
Co1029 O1040 2.039 . S
Co1029 N1043 2.140 . S
C1030 O1031 1.227 . S
C1030 O1040 1.265 . S
O1031 C1030 1.227 . S
N1032 Co1029 2.121 . S
N1032 C1034 1.375 . S
N1032 C1035 1.313 . S
C1033 C1034 1.338 . S
C1033 N1036 1.377 . S
C1033 H1053 0.930 . S
C1034 N1032 1.375 . S
C1034 C1033 1.338 . S
C1034 H1038 0.931 . S
C1035 N1032 1.313 . S
C1035 N1036 1.344 . S
C1035 H1039 0.930 . S
N1036 C1033 1.377 . S
N1036 C1035 1.344 . S
O1037 Co1029 2.055 . S
O1037 C1041 1.253 . S
H1038 C1034 0.931 . S
H1039 C1035 0.930 . S
O1040 Co1029 2.039 . S
O1040 C1030 1.265 . S
C1041 O1037 1.253 . S
C1041 O1042 1.227 . S
O1042 C1041 1.227 . S
N1043 Co1029 2.140 . S
N1043 C1046 1.346 . S
N1043 C1047 1.345 . S
C1044 C1045 1.387 . S
C1044 C1048 1.391 . S
C1045 C1044 1.387 . S
C1045 C1046 1.369 . S
C1045 H1054 0.929 . S
C1046 N1043 1.346 . S
C1046 C1045 1.369 . S
C1046 H1049 0.928 . S
C1047 N1043 1.345 . S
C1047 C1048 1.371 . S
C1047 H1050 0.931 . S
C1048 C1044 1.391 . S
C1048 C1047 1.371 . S
C1048 H1055 0.930 . S
H1049 C1046 0.928 . S
H1050 C1047 0.931 . S
H1051 C1027 0.930 . S
H1052 C1024 0.930 . S
H1053 C1033 0.930 . S
H1054 C1045 0.929 . S
H1055 C1048 0.930 . S
H1056 C1062 0.930 . S
H1057 C1065 0.930 . S
H1058 C1066 0.930 . S
H1059 C1067 0.930 . S
H1060 C1070 0.930 . S
H1061 C1071 0.930 . S
C1062 H1056 0.930 . S
C1062 C1063 1.355 . S
C1062 C1064 1.415 . S
C1063 C1062 1.355 . S
C1063 C1065 1.419 . S
C1064 C1062 1.415 . S
C1064 C1069 1.425 . S
C1064 C1071 1.409 . S
C1065 H1057 0.930 . S
C1065 C1063 1.419 . S
C1065 C1066 1.362 . S
C1066 H1058 0.930 . S
C1066 C1065 1.362 . S
C1066 C1069 1.409 . S
C1067 H1059 0.930 . S
C1067 C1068 1.355 . S
C1067 C1069 1.415 . S
C1068 C1067 1.355 . S
C1068 C1070 1.419 . S
C1069 C1064 1.425 . S
C1069 C1066 1.409 . S
C1069 C1067 1.415 . S
C1070 H1060 0.930 . S
C1070 C1068 1.419 . S
C1070 C1071 1.362 . S
C1071 H1061 0.930 . S
C1071 C1064 1.409 . S
C1071 C1070 1.362 . S
H1072 C1078 0.930 . S
H1073 C1081 0.930 . S
H1074 C1082 0.930 . S
H1075 C1083 0.930 . S
H1076 C1086 0.930 . S
H1077 C1087 0.930 . S
C1078 H1072 0.930 . S
C1078 C1079 1.355 . S
C1078 C1080 1.415 . S
C1079 C1078 1.355 . S
C1079 C1081 1.419 1_565 S
C1080 C1078 1.415 . S
C1080 C1085 1.425 1_465 S
C1080 C1087 1.409 . S
C1081 H1073 0.930 . S
C1081 C1079 1.419 1_545 S
C1081 C1082 1.362 1_455 S
C1082 H1074 0.930 . S
C1082 C1081 1.362 1_655 S
C1082 C1085 1.409 . S
C1083 H1075 0.930 . S
C1083 C1084 1.355 . S
C1083 C1085 1.415 . S
C1084 C1083 1.355 . S
C1084 C1086 1.419 1_545 S
C1085 C1080 1.425 1_645 S
C1085 C1082 1.409 . S
C1085 C1083 1.415 . S
C1086 H1076 0.930 . S
C1086 C1084 1.419 1_565 S
C1086 C1087 1.362 1_655 S
C1087 H1077 0.930 . S
C1087 C1080 1.409 . S
C1087 C1086 1.362 1_455 S
H1088 C1094 0.930 . S
H1089 C1097 0.930 . S
H1090 C1098 0.930 . S
H1091 C1099 0.930 . S
H1092 C1102 0.930 . S
H1093 C1103 0.930 . S
C1094 H1088 0.930 . S
C1094 C1095 1.355 . S
C1094 C1096 1.415 . S
C1095 C1094 1.355 . S
C1095 C1097 1.419 . S
C1096 C1094 1.415 . S
C1096 C1101 1.425 . S
C1096 C1103 1.409 . S
C1097 H1089 0.930 . S
C1097 C1095 1.419 . S
C1097 C1098 1.362 . S
C1098 H1090 0.930 . S
C1098 C1097 1.362 . S
C1098 C1101 1.409 . S
C1099 H1091 0.930 . S
C1099 C1100 1.355 . S
C1099 C1101 1.415 . S
C1100 C1099 1.355 . S
C1100 C1102 1.419 . S
C1101 C1096 1.425 . S
C1101 C1098 1.409 . S
C1101 C1099 1.415 . S
C1102 H1092 0.930 . S
C1102 C1100 1.419 . S
C1102 C1103 1.362 . S
C1103 H1093 0.930 . S
C1103 C1096 1.409 . S
C1103 C1102 1.362 . S
H1104 C1110 0.930 . S
H1105 C1113 0.930 . S
H1106 C1114 0.930 . S
H1107 C1115 0.930 . S
H1108 C1118 0.930 . S
H1109 C1119 0.930 . S
C1110 H1104 0.930 . S
C1110 C1111 1.355 . S
C1110 C1112 1.389 1_554 S
C1111 C1110 1.355 . S
C1111 C1113 1.419 1_545 S
C1112 C1110 1.389 1_556 S
C1112 C1117 1.423 1_546 S
C1112 C1119 1.437 . S
C1113 H1105 0.930 . S
C1113 C1111 1.419 1_565 S
C1113 C1114 1.362 . S
C1114 H1106 0.930 . S
C1114 C1113 1.362 . S
C1114 C1117 1.437 . S
C1115 H1107 0.930 . S
C1115 C1116 1.355 . S
C1115 C1117 1.389 1_556 S
C1116 C1115 1.355 . S
C1116 C1118 1.419 1_565 S
C1117 C1112 1.423 1_564 S
C1117 C1114 1.437 . S
C1117 C1115 1.389 1_554 S
C1118 H1108 0.930 . S
C1118 C1116 1.419 1_545 S
C1118 C1119 1.362 . S
C1119 H1109 0.930 . S
C1119 C1112 1.437 . S
C1119 C1118 1.362 . S
H1120 C1126 0.930 . S
H1121 C1129 0.930 . S
H1122 C1130 0.930 . S
H1123 C1131 0.930 . S
H1124 C1134 0.930 . S
H1125 C1135 0.930 . S
C1126 H1120 0.930 . S
C1126 C1127 1.355 . S
C1126 C1128 1.415 . S
C1127 C1126 1.355 . S
C1127 C1129 1.419 . S
C1128 C1126 1.415 . S
C1128 C1133 1.425 . S
C1128 C1135 1.409 . S
C1129 H1121 0.930 . S
C1129 C1127 1.419 . S
C1129 C1130 1.362 . S
C1130 H1122 0.930 . S
C1130 C1129 1.362 . S
C1130 C1133 1.409 . S
C1131 H1123 0.930 . S
C1131 C1132 1.355 . S
C1131 C1133 1.415 . S
C1132 C1131 1.355 . S
C1132 C1134 1.419 . S
C1133 C1128 1.425 . S
C1133 C1130 1.409 . S
C1133 C1131 1.415 . S
C1134 H1124 0.930 . S
C1134 C1132 1.419 . S
C1134 C1135 1.362 . S
C1135 H1125 0.930 . S
C1135 C1128 1.409 . S
C1135 C1134 1.362 . S
H1136 C1142 0.930 . S
H1137 C1145 0.930 . S
H1138 C1146 0.930 . S
H1139 C1147 0.930 . S
H1140 C1150 0.930 . S
H1141 C1151 0.930 . S
C1142 H1136 0.930 . S
C1142 C1143 1.355 1_545 S
C1142 C1144 1.415 . S
C1143 C1142 1.355 1_565 S
C1143 C1145 1.419 . S
C1144 C1142 1.415 . S
C1144 C1149 1.425 1_545 S
C1144 C1151 1.409 . S
C1145 H1137 0.930 . S
C1145 C1143 1.419 . S
C1145 C1146 1.362 . S
C1146 H1138 0.930 . S
C1146 C1145 1.362 . S
C1146 C1149 1.409 . S
C1147 H1139 0.930 . S
C1147 C1148 1.355 1_565 S
C1147 C1149 1.415 . S
C1148 C1147 1.355 1_545 S
C1148 C1150 1.419 . S
C1149 C1144 1.425 1_565 S
C1149 C1146 1.409 . S
C1149 C1147 1.415 . S
C1150 H1140 0.930 . S
C1150 C1148 1.419 . S
C1150 C1151 1.362 . S
C1151 H1141 0.930 . S
C1151 C1144 1.409 . S
C1151 C1150 1.362 . S
H1152 C1158 0.930 . S
H1153 C1161 0.930 . S
H1154 C1162 0.930 . S
H1155 C1163 0.930 . S
H1156 C1166 0.930 . S
H1157 C1167 0.930 . S
C1158 H1152 0.930 . S
C1158 C1159 1.355 . S
C1158 C1160 1.415 . S
C1159 C1158 1.355 . S
C1159 C1161 1.419 . S
C1160 C1158 1.415 . S
C1160 C1165 1.425 . S
C1160 C1167 1.409 . S
C1161 H1153 0.930 . S
C1161 C1159 1.419 . S
C1161 C1162 1.362 . S
C1162 H1154 0.930 . S
C1162 C1161 1.362 . S
C1162 C1165 1.409 . S
C1163 H1155 0.930 . S
C1163 C1164 1.355 . S
C1163 C1165 1.415 . S
C1164 C1163 1.355 . S
C1164 C1166 1.419 . S
C1165 C1160 1.425 . S
C1165 C1162 1.409 . S
C1165 C1163 1.415 . S
C1166 H1156 0.930 . S
C1166 C1164 1.419 . S
C1166 C1167 1.362 . S
C1167 H1157 0.930 . S
C1167 C1160 1.409 . S
C1167 C1166 1.362 . S
H1168 C1174 0.930 . S
H1169 C1177 0.930 . S
H1170 C1178 0.930 . S
H1171 C1179 0.930 . S
H1172 C1182 0.930 . S
H1173 C1183 0.930 . S
C1174 H1168 0.930 . S
C1174 C1175 1.355 . S
C1174 C1176 1.415 1_556 S
C1175 C1174 1.355 . S
C1175 C1177 1.419 1_545 S
C1176 C1174 1.415 1_554 S
C1176 C1181 1.425 1_444 S
C1176 C1183 1.409 . S
C1177 H1169 0.930 . S
C1177 C1175 1.419 1_565 S
C1177 C1178 1.362 1_455 S
C1178 H1170 0.930 . S
C1178 C1177 1.362 1_655 S
C1178 C1181 1.409 . S
C1179 H1171 0.930 . S
C1179 C1180 1.355 . S
C1179 C1181 1.415 1_554 S
C1180 C1179 1.355 . S
C1180 C1182 1.419 1_565 S
C1181 C1176 1.425 1_666 S
C1181 C1178 1.409 . S
C1181 C1179 1.415 1_556 S
C1182 H1172 0.930 . S
C1182 C1180 1.419 1_545 S
C1182 C1183 1.362 1_655 S
C1183 H1173 0.930 . S
C1183 C1176 1.409 . S
C1183 C1182 1.362 1_455 S
H1184 C1190 0.930 . S
H1185 C1193 0.930 . S
H1186 C1194 0.930 . S
H1187 C1195 0.930 . S
H1188 C1198 0.930 . S
H1189 C1199 0.930 . S
C1190 H1184 0.930 . S
C1190 C1191 1.355 . S
C1190 C1192 1.415 . S
C1191 C1190 1.355 . S
C1191 C1193 1.419 . S
C1192 C1190 1.415 . S
C1192 C1197 1.425 . S
C1192 C1199 1.409 . S
C1193 H1185 0.930 . S
C1193 C1191 1.419 . S
C1193 C1194 1.362 . S
C1194 H1186 0.930 . S
C1194 C1193 1.362 . S
C1194 C1197 1.409 . S
C1195 H1187 0.930 . S
C1195 C1196 1.355 . S
C1195 C1197 1.415 . S
C1196 C1195 1.355 . S
C1196 C1198 1.419 . S
C1197 C1192 1.425 . S
C1197 C1194 1.409 . S
C1197 C1195 1.415 . S
C1198 H1188 0.930 . S
C1198 C1196 1.419 . S
C1198 C1199 1.362 . S
C1199 H1189 0.930 . S
C1199 C1192 1.409 . S
C1199 C1198 1.362 . S
H1200 C1206 0.930 . S
H1201 C1209 0.930 . S
H1202 C1210 0.930 . S
H1203 C1211 0.930 . S
H1204 C1214 0.930 . S
H1205 C1215 0.930 . S
C1206 H1200 0.930 . S
C1206 C1207 1.355 . S
C1206 C1208 1.415 . S
C1207 C1206 1.355 . S
C1207 C1209 1.419 . S
C1208 C1206 1.415 . S
C1208 C1213 1.425 . S
C1208 C1215 1.409 . S
C1209 H1201 0.930 . S
C1209 C1207 1.419 . S
C1209 C1210 1.362 . S
C1210 H1202 0.930 . S
C1210 C1209 1.362 . S
C1210 C1213 1.409 . S
C1211 H1203 0.930 . S
C1211 C1212 1.355 . S
C1211 C1213 1.415 . S
C1212 C1211 1.355 . S
C1212 C1214 1.419 . S
C1213 C1208 1.425 . S
C1213 C1210 1.409 . S
C1213 C1211 1.415 . S
C1214 H1204 0.930 . S
C1214 C1212 1.419 . S
C1214 C1215 1.362 . S
C1215 H1205 0.930 . S
C1215 C1208 1.409 . S
C1215 C1214 1.362 . S
H1216 C1222 0.930 . S
H1217 C1225 0.930 . S
H1218 C1226 0.930 . S
H1219 C1227 0.930 . S
H1220 C1230 0.930 . S
H1221 C1231 0.930 . S
C1222 H1216 0.930 . S
C1222 C1223 1.355 . S
C1222 C1224 1.415 . S
C1223 C1222 1.355 . S
C1223 C1225 1.419 . S
C1224 C1222 1.415 . S
C1224 C1229 1.425 . S
C1224 C1231 1.409 . S
C1225 H1217 0.930 . S
C1225 C1223 1.419 . S
C1225 C1226 1.362 . S
C1226 H1218 0.930 . S
C1226 C1225 1.362 . S
C1226 C1229 1.409 . S
C1227 H1219 0.930 . S
C1227 C1228 1.355 . S
C1227 C1229 1.415 . S
C1228 C1227 1.355 . S
C1228 C1230 1.419 . S
C1229 C1224 1.425 . S
C1229 C1226 1.409 . S
C1229 C1227 1.415 . S
C1230 H1220 0.930 . S
C1230 C1228 1.419 . S
C1230 C1231 1.362 . S
C1231 H1221 0.930 . S
C1231 C1224 1.409 . S
C1231 C1230 1.362 . S
H1232 C1238 0.930 . S
H1233 C1241 0.930 . S
H1234 C1242 0.930 . S
H1235 C1243 0.930 . S
H1236 C1246 0.930 . S
H1237 C1247 0.930 . S
C1238 H1232 0.930 . S
C1238 C1239 1.355 . S
C1238 C1240 1.415 . S
C1239 C1238 1.355 . S
C1239 C1241 1.419 . S
C1240 C1238 1.415 . S
C1240 C1245 1.425 . S
C1240 C1247 1.409 . S
C1241 H1233 0.930 . S
C1241 C1239 1.419 . S
C1241 C1242 1.362 . S
C1242 H1234 0.930 . S
C1242 C1241 1.362 . S
C1242 C1245 1.409 . S
C1243 H1235 0.930 . S
C1243 C1244 1.355 . S
C1243 C1245 1.415 . S
C1244 C1243 1.355 . S
C1244 C1246 1.419 . S
C1245 C1240 1.425 . S
C1245 C1242 1.409 . S
C1245 C1243 1.415 . S
C1246 H1236 0.930 . S
C1246 C1244 1.419 . S
C1246 C1247 1.362 . S
C1247 H1237 0.930 . S
C1247 C1240 1.409 . S
C1247 C1246 1.362 . S
H1248 C1254 0.930 . S
H1249 C1257 0.930 . S
H1250 C1258 0.930 . S
H1251 C1259 0.930 . S
H1252 C1262 0.930 . S
H1253 C1263 0.930 . S
C1254 H1248 0.930 . S
C1254 C1255 1.355 . S
C1254 C1256 1.415 . S
C1255 C1254 1.355 . S
C1255 C1257 1.419 . S
C1256 C1254 1.415 . S
C1256 C1261 1.425 1_556 S
C1256 C1263 1.409 1_556 S
C1257 H1249 0.930 . S
C1257 C1255 1.419 . S
C1257 C1258 1.362 . S
C1258 H1250 0.930 . S
C1258 C1257 1.362 . S
C1258 C1261 1.409 1_556 S
C1259 H1251 0.930 . S
C1259 C1260 1.355 . S
C1259 C1261 1.415 . S
C1260 C1259 1.355 . S
C1260 C1262 1.419 . S
C1261 C1256 1.425 1_554 S
C1261 C1258 1.409 1_554 S
C1261 C1259 1.415 . S
C1262 H1252 0.930 . S
C1262 C1260 1.419 . S
C1262 C1263 1.362 . S
C1263 H1253 0.930 . S
C1263 C1256 1.409 1_554 S
C1263 C1262 1.362 . S
H1264 C1270 0.930 . S
H1265 C1273 0.930 . S
H1266 C1274 0.930 . S
H1267 C1275 0.930 . S
H1268 C1278 0.930 . S
H1269 C1279 0.930 . S
C1270 H1264 0.930 . S
C1270 C1271 1.355 . S
C1270 C1272 1.415 . S
C1271 C1270 1.355 . S
C1271 C1273 1.419 1_655 S
C1272 C1270 1.415 . S
C1272 C1277 1.425 1_655 S
C1272 C1279 1.409 . S
C1273 H1265 0.930 . S
C1273 C1271 1.419 1_455 S
C1273 C1274 1.362 . S
C1274 H1266 0.930 . S
C1274 C1273 1.362 . S
C1274 C1277 1.409 . S
C1275 H1267 0.930 . S
C1275 C1276 1.355 . S
C1275 C1277 1.415 . S
C1276 C1275 1.355 . S
C1276 C1278 1.419 1_455 S
C1277 C1272 1.425 1_455 S
C1277 C1274 1.409 . S
C1277 C1275 1.415 . S
C1278 H1268 0.930 . S
C1278 C1276 1.419 1_655 S
C1278 C1279 1.362 . S
C1279 H1269 0.930 . S
C1279 C1272 1.409 . S
C1279 C1278 1.362 . S
H1280 C1286 0.930 . S
H1281 C1289 0.930 . S
H1282 C1290 0.930 1_556 S
H1283 C1291 0.930 . S
H1284 C1294 0.930 . S
H1285 C1295 0.930 1_554 S
C1286 H1280 0.930 . S
C1286 C1287 1.355 . S
C1286 C1288 1.415 . S
C1287 C1286 1.355 . S
C1287 C1289 1.419 . S
C1288 C1286 1.415 . S
C1288 C1293 1.425 1_454 S
C1288 C1295 1.409 1_454 S
C1289 H1281 0.930 . S
C1289 C1287 1.419 . S
C1289 C1290 1.362 . S
C1290 H1282 0.930 1_554 S
C1290 C1289 1.362 . S
C1290 C1293 1.409 1_454 S
C1291 H1283 0.930 . S
C1291 C1292 1.355 . S
C1291 C1293 1.415 . S
C1292 C1291 1.355 . S
C1292 C1294 1.419 . S
C1293 C1288 1.425 1_656 S
C1293 C1290 1.409 1_656 S
C1293 C1291 1.415 . S
C1294 H1284 0.930 . S
C1294 C1292 1.419 . S
C1294 C1295 1.362 . S
C1295 H1285 0.930 1_556 S
C1295 C1288 1.409 1_656 S
C1295 C1294 1.362 . S
H1296 C1302 0.930 . S
H1297 C1305 0.930 . S
H1298 C1306 0.930 . S
H1299 C1307 0.930 . S
H1300 C1310 0.930 . S
H1301 C1311 0.930 . S
C1302 H1296 0.930 . S
C1302 C1303 1.355 . S
C1302 C1304 1.415 . S
C1303 C1302 1.355 . S
C1303 C1305 1.419 . S
C1304 C1302 1.415 . S
C1304 C1309 1.425 . S
C1304 C1311 1.409 . S
C1305 H1297 0.930 . S
C1305 C1303 1.419 . S
C1305 C1306 1.362 . S
C1306 H1298 0.930 . S
C1306 C1305 1.362 . S
C1306 C1309 1.409 . S
C1307 H1299 0.930 . S
C1307 C1308 1.355 . S
C1307 C1309 1.415 . S
C1308 C1307 1.355 . S
C1308 C1310 1.419 . S
C1309 C1304 1.425 . S
C1309 C1306 1.409 . S
C1309 C1307 1.415 . S
C1310 H1300 0.930 . S
C1310 C1308 1.419 . S
C1310 C1311 1.362 . S
C1311 H1301 0.930 . S
C1311 C1304 1.409 . S
C1311 C1310 1.362 . S
H1312 C1318 0.930 . S
H1313 C1321 0.930 . S
H1314 C1322 0.930 . S
H1315 C1323 0.930 . S
H1316 C1326 0.930 . S
H1317 C1327 0.930 . S
C1318 H1312 0.930 . S
C1318 C1319 1.355 . S
C1318 C1320 1.415 . S
C1319 C1318 1.355 . S
C1319 C1321 1.419 . S
C1320 C1318 1.415 . S
C1320 C1325 1.425 . S
C1320 C1327 1.409 . S
C1321 H1313 0.930 . S
C1321 C1319 1.419 . S
C1321 C1322 1.362 . S
C1322 H1314 0.930 . S
C1322 C1321 1.362 . S
C1322 C1325 1.409 . S
C1323 H1315 0.930 . S
C1323 C1324 1.355 . S
C1323 C1325 1.415 . S
C1324 C1323 1.355 . S
C1324 C1326 1.419 . S
C1325 C1320 1.425 . S
C1325 C1322 1.409 . S
C1325 C1323 1.415 . S
C1326 H1316 0.930 . S
C1326 C1324 1.419 . S
C1326 C1327 1.362 . S
C1327 H1317 0.930 . S
C1327 C1320 1.409 . S
C1327 C1326 1.362 . S
H1328 C1334 0.930 . S
H1329 C1337 0.930 . S
H1330 C1338 0.930 . S
H1331 C1339 0.930 . S
H1332 C1342 0.930 . S
H1333 C1343 0.930 . S
C1334 H1328 0.930 . S
C1334 C1335 1.355 . S
C1334 C1336 1.415 . S
C1335 C1334 1.355 . S
C1335 C1337 1.419 . S
C1336 C1334 1.415 . S
C1336 C1341 1.425 . S
C1336 C1343 1.409 . S
C1337 H1329 0.930 . S
C1337 C1335 1.419 . S
C1337 C1338 1.362 . S
C1338 H1330 0.930 . S
C1338 C1337 1.362 . S
C1338 C1341 1.409 . S
C1339 H1331 0.930 . S
C1339 C1340 1.355 . S
C1339 C1341 1.415 . S
C1340 C1339 1.355 . S
C1340 C1342 1.419 . S
C1341 C1336 1.425 . S
C1341 C1338 1.409 . S
C1341 C1339 1.415 . S
C1342 H1332 0.930 . S
C1342 C1340 1.419 . S
C1342 C1343 1.362 . S
C1343 H1333 0.930 . S
C1343 C1336 1.409 . S
C1343 C1342 1.362 . S
H1344 C1350 0.930 . S
H1345 C1353 0.930 . S
H1346 C1354 0.930 . S
H1347 C1355 0.930 . S
H1348 C1358 0.930 . S
H1349 C1359 0.930 . S
C1350 H1344 0.930 . S
C1350 C1351 1.355 . S
C1350 C1352 1.415 . S
C1351 C1350 1.355 . S
C1351 C1353 1.419 . S
C1352 C1350 1.415 . S
C1352 C1357 1.425 . S
C1352 C1359 1.409 . S
C1353 H1345 0.930 . S
C1353 C1351 1.419 . S
C1353 C1354 1.362 . S
C1354 H1346 0.930 . S
C1354 C1353 1.362 . S
C1354 C1357 1.409 . S
C1355 H1347 0.930 . S
C1355 C1356 1.355 . S
C1355 C1357 1.415 . S
C1356 C1355 1.355 . S
C1356 C1358 1.419 . S
C1357 C1352 1.425 . S
C1357 C1354 1.409 . S
C1357 C1355 1.415 . S
C1358 H1348 0.930 . S
C1358 C1356 1.419 . S
C1358 C1359 1.362 . S
C1359 H1349 0.930 . S
C1359 C1352 1.409 . S
C1359 C1358 1.362 . S
H1360 C1366 0.930 . S
H1361 C1369 0.930 . S
H1362 C1370 0.930 . S
H1363 C1371 0.930 . S
H1364 C1374 0.930 . S
H1365 C1375 0.930 . S
C1366 H1360 0.930 . S
C1366 C1367 1.355 . S
C1366 C1368 1.415 . S
C1367 C1366 1.355 . S
C1367 C1369 1.419 . S
C1368 C1366 1.415 . S
C1368 C1373 1.425 . S
C1368 C1375 1.409 . S
C1369 H1361 0.930 . S
C1369 C1367 1.419 . S
C1369 C1370 1.362 . S
C1370 H1362 0.930 . S
C1370 C1369 1.362 . S
C1370 C1373 1.409 . S
C1371 H1363 0.930 . S
C1371 C1372 1.355 . S
C1371 C1373 1.415 . S
C1372 C1371 1.355 . S
C1372 C1374 1.419 . S
C1373 C1368 1.425 . S
C1373 C1370 1.409 . S
C1373 C1371 1.415 . S
C1374 H1364 0.930 . S
C1374 C1372 1.419 . S
C1374 C1375 1.362 . S
C1375 H1365 0.930 . S
C1375 C1368 1.409 . S
C1375 C1374 1.362 . S
H1376 C1382 0.930 . S
H1377 C1385 0.930 . S
H1378 C1386 0.930 . S
H1379 C1387 0.930 . S
H1380 C1390 0.930 . S
H1381 C1391 0.930 . S
C1382 H1376 0.930 . S
C1382 C1383 1.355 . S
C1382 C1384 1.415 . S
C1383 C1382 1.355 . S
C1383 C1385 1.419 . S
C1384 C1382 1.415 . S
C1384 C1389 1.425 . S
C1384 C1391 1.409 . S
C1385 H1377 0.930 . S
C1385 C1383 1.419 . S
C1385 C1386 1.362 . S
C1386 H1378 0.930 . S
C1386 C1385 1.362 . S
C1386 C1389 1.409 . S
C1387 H1379 0.930 . S
C1387 C1388 1.355 . S
C1387 C1389 1.415 . S
C1388 C1387 1.355 . S
C1388 C1390 1.419 . S
C1389 C1384 1.425 . S
C1389 C1386 1.409 . S
C1389 C1387 1.415 . S
C1390 H1380 0.930 . S
C1390 C1388 1.419 . S
C1390 C1391 1.362 . S
C1391 H1381 0.930 . S
C1391 C1384 1.409 . S
C1391 C1390 1.362 . S
H1392 C1398 0.930 . S
H1393 C1401 0.930 . S
H1394 C1402 0.930 . S
H1395 C1403 0.930 . S
H1396 C1406 0.930 . S
H1397 C1407 0.930 . S
C1398 H1392 0.930 . S
C1398 C1399 1.355 . S
C1398 C1400 1.415 . S
C1399 C1398 1.355 . S
C1399 C1401 1.419 . S
C1400 C1398 1.415 . S
C1400 C1405 1.425 . S
C1400 C1407 1.409 . S
C1401 H1393 0.930 . S
C1401 C1399 1.419 . S
C1401 C1402 1.362 . S
C1402 H1394 0.930 . S
C1402 C1401 1.362 . S
C1402 C1405 1.409 . S
C1403 H1395 0.930 . S
C1403 C1404 1.355 . S
C1403 C1405 1.415 . S
C1404 C1403 1.355 . S
C1404 C1406 1.419 . S
C1405 C1400 1.425 . S
C1405 C1402 1.409 . S
C1405 C1403 1.415 . S
C1406 H1396 0.930 . S
C1406 C1404 1.419 . S
C1406 C1407 1.362 . S
C1407 H1397 0.930 . S
C1407 C1400 1.409 . S
C1407 C1406 1.362 . S
H1408 C1414 0.930 . S
H1409 C1417 0.930 . S
H1410 C1418 0.930 . S
H1411 C1419 0.930 . S
H1412 C1422 0.930 . S
H1413 C1423 0.930 . S
C1414 H1408 0.930 . S
C1414 C1415 1.355 . S
C1414 C1416 1.415 . S
C1415 C1414 1.355 . S
C1415 C1417 1.419 . S
C1416 C1414 1.415 . S
C1416 C1421 1.425 . S
C1416 C1423 1.409 . S
C1417 H1409 0.930 . S
C1417 C1415 1.419 . S
C1417 C1418 1.362 . S
C1418 H1410 0.930 . S
C1418 C1417 1.362 . S
C1418 C1421 1.409 . S
C1419 H1411 0.930 . S
C1419 C1420 1.355 . S
C1419 C1421 1.415 . S
C1420 C1419 1.355 . S
C1420 C1422 1.419 . S
C1421 C1416 1.425 . S
C1421 C1418 1.409 . S
C1421 C1419 1.415 . S
C1422 H1412 0.930 . S
C1422 C1420 1.419 . S
C1422 C1423 1.362 . S
C1423 H1413 0.930 . S
C1423 C1416 1.409 . S
C1423 C1422 1.362 . S
H1424 C1430 0.930 . S
H1425 C1433 0.930 . S
H1426 C1434 0.930 . S
H1427 C1435 0.930 . S
H1428 C1438 0.930 . S
H1429 C1439 0.930 . S
C1430 H1424 0.930 . S
C1430 C1431 1.355 . S
C1430 C1432 1.415 . S
C1431 C1430 1.355 . S
C1431 C1433 1.419 . S
C1432 C1430 1.415 . S
C1432 C1437 1.425 . S
C1432 C1439 1.409 . S
C1433 H1425 0.930 . S
C1433 C1431 1.419 . S
C1433 C1434 1.362 . S
C1434 H1426 0.930 . S
C1434 C1433 1.362 . S
C1434 C1437 1.409 . S
C1435 H1427 0.930 . S
C1435 C1436 1.355 . S
C1435 C1437 1.415 . S
C1436 C1435 1.355 . S
C1436 C1438 1.419 . S
C1437 C1432 1.425 . S
C1437 C1434 1.409 . S
C1437 C1435 1.415 . S
C1438 H1428 0.930 . S
C1438 C1436 1.419 . S
C1438 C1439 1.362 . S
C1439 H1429 0.930 . S
C1439 C1432 1.409 . S
C1439 C1438 1.362 . S
H1440 C1446 0.930 . S
H1441 C1449 0.930 . S
H1442 C1450 0.930 . S
H1443 C1451 0.930 . S
H1444 C1454 0.930 . S
H1445 C1455 0.930 . S
C1446 H1440 0.930 . S
C1446 C1447 1.355 . S
C1446 C1448 1.415 . S
C1447 C1446 1.355 . S
C1447 C1449 1.419 . S
C1448 C1446 1.415 . S
C1448 C1453 1.425 . S
C1448 C1455 1.409 . S
C1449 H1441 0.930 . S
C1449 C1447 1.419 . S
C1449 C1450 1.362 . S
C1450 H1442 0.930 . S
C1450 C1449 1.362 . S
C1450 C1453 1.409 . S
C1451 H1443 0.930 . S
C1451 C1452 1.355 . S
C1451 C1453 1.415 . S
C1452 C1451 1.355 . S
C1452 C1454 1.419 . S
C1453 C1448 1.425 . S
C1453 C1450 1.409 . S
C1453 C1451 1.415 . S
C1454 H1444 0.930 . S
C1454 C1452 1.419 . S
C1454 C1455 1.362 . S
C1455 H1445 0.930 . S
C1455 C1448 1.409 . S
C1455 C1454 1.362 . S
H1456 C1462 0.930 . S
H1457 C1465 0.930 . S
H1458 C1466 0.930 . S
H1459 C1467 0.930 . S
H1460 C1470 0.930 . S
H1461 C1471 0.930 . S
C1462 H1456 0.930 . S
C1462 C1463 1.355 . S
C1462 C1464 1.415 . S
C1463 C1462 1.355 . S
C1463 C1465 1.419 . S
C1464 C1462 1.415 . S
C1464 C1469 1.425 . S
C1464 C1471 1.409 . S
C1465 H1457 0.930 . S
C1465 C1463 1.419 . S
C1465 C1466 1.362 . S
C1466 H1458 0.930 . S
C1466 C1465 1.362 . S
C1466 C1469 1.409 . S
C1467 H1459 0.930 . S
C1467 C1468 1.355 . S
C1467 C1469 1.415 . S
C1468 C1467 1.355 . S
C1468 C1470 1.419 . S
C1469 C1464 1.425 . S
C1469 C1466 1.409 . S
C1469 C1467 1.415 . S
C1470 H1460 0.930 . S
C1470 C1468 1.419 . S
C1470 C1471 1.362 . S
C1471 H1461 0.930 . S
C1471 C1464 1.409 . S
C1471 C1470 1.362 . S
H1472 C1478 0.930 . S
H1473 C1481 0.930 . S
H1474 C1482 0.930 . S
H1475 C1483 0.930 . S
H1476 C1486 0.930 . S
H1477 C1487 0.930 . S
C1478 H1472 0.930 . S
C1478 C1479 1.355 . S
C1478 C1480 1.415 . S
C1479 C1478 1.355 . S
C1479 C1481 1.419 . S
C1480 C1478 1.415 . S
C1480 C1485 1.425 . S
C1480 C1487 1.409 . S
C1481 H1473 0.930 . S
C1481 C1479 1.419 . S
C1481 C1482 1.362 . S
C1482 H1474 0.930 . S
C1482 C1481 1.362 . S
C1482 C1485 1.409 . S
C1483 H1475 0.930 . S
C1483 C1484 1.355 . S
C1483 C1485 1.415 . S
C1484 C1483 1.355 . S
C1484 C1486 1.419 . S
C1485 C1480 1.425 . S
C1485 C1482 1.409 . S
C1485 C1483 1.415 . S
C1486 H1476 0.930 . S
C1486 C1484 1.419 . S
C1486 C1487 1.362 . S
C1487 H1477 0.930 . S
C1487 C1480 1.409 . S
C1487 C1486 1.362 . S
H1488 C1494 0.930 . S
H1489 C1497 0.930 . S
H1490 C1498 0.930 . S
H1491 C1499 0.930 . S
H1492 C1502 0.930 . S
H1493 C1503 0.930 . S
C1494 H1488 0.930 . S
C1494 C1495 1.355 . S
C1494 C1496 1.415 . S
C1495 C1494 1.355 . S
C1495 C1497 1.419 . S
C1496 C1494 1.415 . S
C1496 C1501 1.425 . S
C1496 C1503 1.409 . S
C1497 H1489 0.930 . S
C1497 C1495 1.419 . S
C1497 C1498 1.362 . S
C1498 H1490 0.930 . S
C1498 C1497 1.362 . S
C1498 C1501 1.409 . S
C1499 H1491 0.930 . S
C1499 C1500 1.355 . S
C1499 C1501 1.415 . S
C1500 C1499 1.355 . S
C1500 C1502 1.419 . S
C1501 C1496 1.425 . S
C1501 C1498 1.409 . S
C1501 C1499 1.415 . S
C1502 H1492 0.930 . S
C1502 C1500 1.419 . S
C1502 C1503 1.362 . S
C1503 H1493 0.930 . S
C1503 C1496 1.409 . S
C1503 C1502 1.362 . S
H1504 C1510 0.930 . S
H1505 C1513 0.930 . S
H1506 C1514 0.930 . S
H1507 C1515 0.930 . S
H1508 C1518 0.930 . S
H1509 C1519 0.930 . S
C1510 H1504 0.930 . S
C1510 C1511 1.355 . S
C1510 C1512 1.415 . S
C1511 C1510 1.355 . S
C1511 C1513 1.419 . S
C1512 C1510 1.415 . S
C1512 C1517 1.425 . S
C1512 C1519 1.409 . S
C1513 H1505 0.930 . S
C1513 C1511 1.419 . S
C1513 C1514 1.362 . S
C1514 H1506 0.930 . S
C1514 C1513 1.362 . S
C1514 C1517 1.409 . S
C1515 H1507 0.930 . S
C1515 C1516 1.355 . S
C1515 C1517 1.415 . S
C1516 C1515 1.355 . S
C1516 C1518 1.419 . S
C1517 C1512 1.425 . S
C1517 C1514 1.409 . S
C1517 C1515 1.415 . S
C1518 H1508 0.930 . S
C1518 C1516 1.419 . S
C1518 C1519 1.362 . S
C1519 H1509 0.930 . S
C1519 C1512 1.409 . S
C1519 C1518 1.362 . S
H1520 C1526 0.930 . S
H1521 C1529 0.930 . S
H1522 C1530 0.930 . S
H1523 C1531 0.930 . S
H1524 C1534 0.930 . S
H1525 C1535 0.930 . S
C1526 H1520 0.930 . S
C1526 C1527 1.355 . S
C1526 C1528 1.415 . S
C1527 C1526 1.355 . S
C1527 C1529 1.419 . S
C1528 C1526 1.415 . S
C1528 C1533 1.425 . S
C1528 C1535 1.409 . S
C1529 H1521 0.930 . S
C1529 C1527 1.419 . S
C1529 C1530 1.362 . S
C1530 H1522 0.930 . S
C1530 C1529 1.362 . S
C1530 C1533 1.409 . S
C1531 H1523 0.930 . S
C1531 C1532 1.355 . S
C1531 C1533 1.415 . S
C1532 C1531 1.355 . S
C1532 C1534 1.419 . S
C1533 C1528 1.425 . S
C1533 C1530 1.409 . S
C1533 C1531 1.415 . S
C1534 H1524 0.930 . S
C1534 C1532 1.419 . S
C1534 C1535 1.362 . S
C1535 H1525 0.930 . S
C1535 C1528 1.409 . S
C1535 C1534 1.362 . S
H1536 C1542 0.930 . S
H1537 C1545 0.930 . S
H1538 C1546 0.930 . S
H1539 C1547 0.930 . S
H1540 C1550 0.930 . S
H1541 C1551 0.930 . S
C1542 H1536 0.930 . S
C1542 C1543 1.355 . S
C1542 C1544 1.415 . S
C1543 C1542 1.355 . S
C1543 C1545 1.419 . S
C1544 C1542 1.415 . S
C1544 C1549 1.425 . S
C1544 C1551 1.409 . S
C1545 H1537 0.930 . S
C1545 C1543 1.419 . S
C1545 C1546 1.362 . S
C1546 H1538 0.930 . S
C1546 C1545 1.362 . S
C1546 C1549 1.409 . S
C1547 H1539 0.930 . S
C1547 C1548 1.355 . S
C1547 C1549 1.415 . S
C1548 C1547 1.355 . S
C1548 C1550 1.419 . S
C1549 C1544 1.425 . S
C1549 C1546 1.409 . S
C1549 C1547 1.415 . S
C1550 H1540 0.930 . S
C1550 C1548 1.419 . S
C1550 C1551 1.362 . S
C1551 H1541 0.930 . S
C1551 C1544 1.409 . S
C1551 C1550 1.362 . S
H1552 C1558 0.930 . S
H1553 C1561 0.930 . S
H1554 C1562 0.930 . S
H1555 C1563 0.930 . S
H1556 C1566 0.930 . S
H1557 C1567 0.930 . S
C1558 H1552 0.930 . S
C1558 C1559 1.355 . S
C1558 C1560 1.415 . S
C1559 C1558 1.355 . S
C1559 C1561 1.419 . S
C1560 C1558 1.415 . S
C1560 C1565 1.425 . S
C1560 C1567 1.409 . S
C1561 H1553 0.930 . S
C1561 C1559 1.419 . S
C1561 C1562 1.362 . S
C1562 H1554 0.930 . S
C1562 C1561 1.362 . S
C1562 C1565 1.409 . S
C1563 H1555 0.930 . S
C1563 C1564 1.355 . S
C1563 C1565 1.415 . S
C1564 C1563 1.355 . S
C1564 C1566 1.419 . S
C1565 C1560 1.425 . S
C1565 C1562 1.409 . S
C1565 C1563 1.415 . S
C1566 H1556 0.930 . S
C1566 C1564 1.419 . S
C1566 C1567 1.362 . S
C1567 H1557 0.930 . S
C1567 C1560 1.409 . S
C1567 C1566 1.362 . S
H1568 C1574 0.930 . S
H1569 C1577 0.930 . S
H1570 C1578 0.930 . S
H1571 C1579 0.930 . S
H1572 C1582 0.930 . S
H1573 C1583 0.930 . S
C1574 H1568 0.930 . S
C1574 C1575 1.355 . S
C1574 C1576 1.415 . S
C1575 C1574 1.355 . S
C1575 C1577 1.419 . S
C1576 C1574 1.415 . S
C1576 C1581 1.425 . S
C1576 C1583 1.409 . S
C1577 H1569 0.930 . S
C1577 C1575 1.419 . S
C1577 C1578 1.362 . S
C1578 H1570 0.930 . S
C1578 C1577 1.362 . S
C1578 C1581 1.409 . S
C1579 H1571 0.930 . S
C1579 C1580 1.355 . S
C1579 C1581 1.415 . S
C1580 C1579 1.355 . S
C1580 C1582 1.419 . S
C1581 C1576 1.425 . S
C1581 C1578 1.409 . S
C1581 C1579 1.415 . S
C1582 H1572 0.930 . S
C1582 C1580 1.419 . S
C1582 C1583 1.362 . S
C1583 H1573 0.930 . S
C1583 C1576 1.409 . S
C1583 C1582 1.362 . S
H1584 C1590 0.930 . S
H1585 C1593 0.930 . S
H1586 C1594 0.930 . S
H1587 C1595 0.930 . S
H1588 C1598 0.930 . S
H1589 C1599 0.930 . S
C1590 H1584 0.930 . S
C1590 C1591 1.355 . S
C1590 C1592 1.415 . S
C1591 C1590 1.355 . S
C1591 C1593 1.419 . S
C1592 C1590 1.415 . S
C1592 C1597 1.425 . S
C1592 C1599 1.409 . S
C1593 H1585 0.930 . S
C1593 C1591 1.419 . S
C1593 C1594 1.362 . S
C1594 H1586 0.930 . S
C1594 C1593 1.362 . S
C1594 C1597 1.409 . S
C1595 H1587 0.930 . S
C1595 C1596 1.355 . S
C1595 C1597 1.415 . S
C1596 C1595 1.355 . S
C1596 C1598 1.419 . S
C1597 C1592 1.425 . S
C1597 C1594 1.409 . S
C1597 C1595 1.415 . S
C1598 H1588 0.930 . S
C1598 C1596 1.419 . S
C1598 C1599 1.362 . S
C1599 H1589 0.930 . S
C1599 C1592 1.409 . S
C1599 C1598 1.362 . S
H1600 C1606 0.930 . S
H1601 C1609 0.930 . S
H1602 C1610 0.930 . S
H1603 C1611 0.930 . S
H1604 C1614 0.930 . S
H1605 C1615 0.930 . S
C1606 H1600 0.930 . S
C1606 C1607 1.355 . S
C1606 C1608 1.415 . S
C1607 C1606 1.355 . S
C1607 C1609 1.419 . S
C1608 C1606 1.415 . S
C1608 C1613 1.425 . S
C1608 C1615 1.409 . S
C1609 H1601 0.930 . S
C1609 C1607 1.419 . S
C1609 C1610 1.362 . S
C1610 H1602 0.930 . S
C1610 C1609 1.362 . S
C1610 C1613 1.409 . S
C1611 H1603 0.930 . S
C1611 C1612 1.355 . S
C1611 C1613 1.415 . S
C1612 C1611 1.355 . S
C1612 C1614 1.419 . S
C1613 C1608 1.425 . S
C1613 C1610 1.409 . S
C1613 C1611 1.415 . S
C1614 H1604 0.930 . S
C1614 C1612 1.419 . S
C1614 C1615 1.362 . S
C1615 H1605 0.930 . S
C1615 C1608 1.409 . S
C1615 C1614 1.362 . S
H1616 C1622 0.930 . S
H1617 C1625 0.930 . S
H1618 C1626 0.930 . S
H1619 C1627 0.930 . S
H1620 C1630 0.930 . S
H1621 C1631 0.930 . S
C1622 H1616 0.930 . S
C1622 C1623 1.355 . S
C1622 C1624 1.415 . S
C1623 C1622 1.355 . S
C1623 C1625 1.419 . S
C1624 C1622 1.415 . S
C1624 C1629 1.425 . S
C1624 C1631 1.409 . S
C1625 H1617 0.930 . S
C1625 C1623 1.419 . S
C1625 C1626 1.362 . S
C1626 H1618 0.930 . S
C1626 C1625 1.362 . S
C1626 C1629 1.409 . S
C1627 H1619 0.930 . S
C1627 C1628 1.355 . S
C1627 C1629 1.415 . S
C1628 C1627 1.355 . S
C1628 C1630 1.419 . S
C1629 C1624 1.425 . S
C1629 C1626 1.409 . S
C1629 C1627 1.415 . S
C1630 H1620 0.930 . S
C1630 C1628 1.419 . S
C1630 C1631 1.362 . S
C1631 H1621 0.930 . S
C1631 C1624 1.409 . S
C1631 C1630 1.362 . S
H1632 C1638 0.930 . S
H1633 C1641 0.930 . S
H1634 C1642 0.930 . S
H1635 C1643 0.930 . S
H1636 C1646 0.930 . S
H1637 C1647 0.930 . S
C1638 H1632 0.930 . S
C1638 C1639 1.355 . S
C1638 C1640 1.415 . S
C1639 C1638 1.355 . S
C1639 C1641 1.419 . S
C1640 C1638 1.415 . S
C1640 C1645 1.425 . S
C1640 C1647 1.409 . S
C1641 H1633 0.930 . S
C1641 C1639 1.419 . S
C1641 C1642 1.362 . S
C1642 H1634 0.930 . S
C1642 C1641 1.362 . S
C1642 C1645 1.409 . S
C1643 H1635 0.930 . S
C1643 C1644 1.355 . S
C1643 C1645 1.415 . S
C1644 C1643 1.355 . S
C1644 C1646 1.419 . S
C1645 C1640 1.425 . S
C1645 C1642 1.409 . S
C1645 C1643 1.415 . S
C1646 H1636 0.930 . S
C1646 C1644 1.419 . S
C1646 C1647 1.362 . S
C1647 H1637 0.930 . S
C1647 C1640 1.409 . S
C1647 C1646 1.362 . S
H1648 C1654 0.930 . S
H1649 C1657 0.930 . S
H1650 C1658 0.930 . S
H1651 C1659 0.930 . S
H1652 C1662 0.930 . S
H1653 C1663 0.930 . S
C1654 H1648 0.930 . S
C1654 C1655 1.355 . S
C1654 C1656 1.415 . S
C1655 C1654 1.355 . S
C1655 C1657 1.419 . S
C1656 C1654 1.415 . S
C1656 C1661 1.425 . S
C1656 C1663 1.409 . S
C1657 H1649 0.930 . S
C1657 C1655 1.419 . S
C1657 C1658 1.362 . S
C1658 H1650 0.930 . S
C1658 C1657 1.362 . S
C1658 C1661 1.409 . S
C1659 H1651 0.930 . S
C1659 C1660 1.355 . S
C1659 C1661 1.415 . S
C1660 C1659 1.355 . S
C1660 C1662 1.419 . S
C1661 C1656 1.425 . S
C1661 C1658 1.409 . S
C1661 C1659 1.415 . S
C1662 H1652 0.930 . S
C1662 C1660 1.419 . S
C1662 C1663 1.362 . S
C1663 H1653 0.930 . S
C1663 C1656 1.409 . S
C1663 C1662 1.362 . S
H1664 C1670 0.930 . S
H1665 C1673 0.930 . S
H1666 C1674 0.930 . S
H1667 C1675 0.930 . S
H1668 C1678 0.930 . S
H1669 C1679 0.930 . S
C1670 H1664 0.930 . S
C1670 C1671 1.355 . S
C1670 C1672 1.415 . S
C1671 C1670 1.355 . S
C1671 C1673 1.419 . S
C1672 C1670 1.415 . S
C1672 C1677 1.425 . S
C1672 C1679 1.409 . S
C1673 H1665 0.930 . S
C1673 C1671 1.419 . S
C1673 C1674 1.362 . S
C1674 H1666 0.930 . S
C1674 C1673 1.362 . S
C1674 C1677 1.409 . S
C1675 H1667 0.930 . S
C1675 C1676 1.355 . S
C1675 C1677 1.415 . S
C1676 C1675 1.355 . S
C1676 C1678 1.419 . S
C1677 C1672 1.425 . S
C1677 C1674 1.409 . S
C1677 C1675 1.415 . S
C1678 H1668 0.930 . S
C1678 C1676 1.419 . S
C1678 C1679 1.362 . S
C1679 H1669 0.930 . S
C1679 C1672 1.409 . S
C1679 C1678 1.362 . S
H1680 C1686 0.930 . S
H1681 C1689 0.930 . S
H1682 C1690 0.930 . S
H1683 C1691 0.930 . S
H1684 C1694 0.930 . S
H1685 C1695 0.930 . S
C1686 H1680 0.930 . S
C1686 C1687 1.355 . S
C1686 C1688 1.415 . S
C1687 C1686 1.355 . S
C1687 C1689 1.419 . S
C1688 C1686 1.415 . S
C1688 C1693 1.425 . S
C1688 C1695 1.409 . S
C1689 H1681 0.930 . S
C1689 C1687 1.419 . S
C1689 C1690 1.362 . S
C1690 H1682 0.930 . S
C1690 C1689 1.362 . S
C1690 C1693 1.409 . S
C1691 H1683 0.930 . S
C1691 C1692 1.355 . S
C1691 C1693 1.415 . S
C1692 C1691 1.355 . S
C1692 C1694 1.419 . S
C1693 C1688 1.425 . S
C1693 C1690 1.409 . S
C1693 C1691 1.415 . S
C1694 H1684 0.930 . S
C1694 C1692 1.419 . S
C1694 C1695 1.362 . S
C1695 H1685 0.930 . S
C1695 C1688 1.409 . S
C1695 C1694 1.362 . S
H1696 C1702 0.930 . S
H1697 C1705 0.930 . S
H1698 C1706 0.930 . S
H1699 C1707 0.930 . S
H1700 C1710 0.930 . S
H1701 C1711 0.930 . S
C1702 H1696 0.930 . S
C1702 C1703 1.355 . S
C1702 C1704 1.415 . S
C1703 C1702 1.355 . S
C1703 C1705 1.419 . S
C1704 C1702 1.415 . S
C1704 C1709 1.425 . S
C1704 C1711 1.409 . S
C1705 H1697 0.930 . S
C1705 C1703 1.419 . S
C1705 C1706 1.362 . S
C1706 H1698 0.930 . S
C1706 C1705 1.362 . S
C1706 C1709 1.409 . S
C1707 H1699 0.930 . S
C1707 C1708 1.355 . S
C1707 C1709 1.415 . S
C1708 C1707 1.355 . S
C1708 C1710 1.419 . S
C1709 C1704 1.425 . S
C1709 C1706 1.409 . S
C1709 C1707 1.415 . S
C1710 H1700 0.930 . S
C1710 C1708 1.419 . S
C1710 C1711 1.362 . S
C1711 H1701 0.930 . S
C1711 C1704 1.409 . S
C1711 C1710 1.362 . S
H1712 C1718 0.930 . S
H1713 C1721 0.930 . S
H1714 C1722 0.930 . S
H1715 C1723 0.930 . S
H1716 C1726 0.930 . S
H1717 C1727 0.930 . S
C1718 H1712 0.930 . S
C1718 C1719 1.355 . S
C1718 C1720 1.415 . S
C1719 C1718 1.355 . S
C1719 C1721 1.419 . S
C1720 C1718 1.415 . S
C1720 C1725 1.425 . S
C1720 C1727 1.409 . S
C1721 H1713 0.930 . S
C1721 C1719 1.419 . S
C1721 C1722 1.362 . S
C1722 H1714 0.930 . S
C1722 C1721 1.362 . S
C1722 C1725 1.409 . S
C1723 H1715 0.930 . S
C1723 C1724 1.355 . S
C1723 C1725 1.415 . S
C1724 C1723 1.355 . S
C1724 C1726 1.419 . S
C1725 C1720 1.425 . S
C1725 C1722 1.409 . S
C1725 C1723 1.415 . S
C1726 H1716 0.930 . S
C1726 C1724 1.419 . S
C1726 C1727 1.362 . S
C1727 H1717 0.930 . S
C1727 C1720 1.409 . S
C1727 C1726 1.362 . S
H1728 C1734 0.930 . S
H1729 C1737 0.930 . S
H1730 C1738 0.930 . S
H1731 C1739 0.930 . S
H1732 C1742 0.930 . S
H1733 C1743 0.930 . S
C1734 H1728 0.930 . S
C1734 C1735 1.355 . S
C1734 C1736 1.415 . S
C1735 C1734 1.355 . S
C1735 C1737 1.419 . S
C1736 C1734 1.415 . S
C1736 C1741 1.425 . S
C1736 C1743 1.409 . S
C1737 H1729 0.930 . S
C1737 C1735 1.419 . S
C1737 C1738 1.362 . S
C1738 H1730 0.930 . S
C1738 C1737 1.362 . S
C1738 C1741 1.409 . S
C1739 H1731 0.930 . S
C1739 C1740 1.355 . S
C1739 C1741 1.415 . S
C1740 C1739 1.355 . S
C1740 C1742 1.419 . S
C1741 C1736 1.425 . S
C1741 C1738 1.409 . S
C1741 C1739 1.415 . S
C1742 H1732 0.930 . S
C1742 C1740 1.419 . S
C1742 C1743 1.362 . S
C1743 H1733 0.930 . S
C1743 C1736 1.409 . S
C1743 C1742 1.362 . S
H1744 C1750 0.930 . S
H1745 C1753 0.930 . S
H1746 C1754 0.930 . S
H1747 C1755 0.930 . S
H1748 C1758 0.930 . S
H1749 C1759 0.930 . S
C1750 H1744 0.930 . S
C1750 C1751 1.355 . S
C1750 C1752 1.415 . S
C1751 C1750 1.355 . S
C1751 C1753 1.419 . S
C1752 C1750 1.415 . S
C1752 C1757 1.425 . S
C1752 C1759 1.409 . S
C1753 H1745 0.930 . S
C1753 C1751 1.419 . S
C1753 C1754 1.362 . S
C1754 H1746 0.930 . S
C1754 C1753 1.362 . S
C1754 C1757 1.409 . S
C1755 H1747 0.930 . S
C1755 C1756 1.355 . S
C1755 C1757 1.415 . S
C1756 C1755 1.355 . S
C1756 C1758 1.419 . S
C1757 C1752 1.425 . S
C1757 C1754 1.409 . S
C1757 C1755 1.415 . S
C1758 H1748 0.930 . S
C1758 C1756 1.419 . S
C1758 C1759 1.362 . S
C1759 H1749 0.930 . S
C1759 C1752 1.409 . S
C1759 C1758 1.362 . S
H1760 C1766 0.930 . S
H1761 C1769 0.930 . S
H1762 C1770 0.930 . S
H1763 C1771 0.930 . S
H1764 C1774 0.930 . S
H1765 C1775 0.930 . S
C1766 H1760 0.930 . S
C1766 C1767 1.355 . S
C1766 C1768 1.415 . S
C1767 C1766 1.355 . S
C1767 C1769 1.419 . S
C1768 C1766 1.415 . S
C1768 C1773 1.425 . S
C1768 C1775 1.409 . S
C1769 H1761 0.930 . S
C1769 C1767 1.419 . S
C1769 C1770 1.362 . S
C1770 H1762 0.930 . S
C1770 C1769 1.362 . S
C1770 C1773 1.409 . S
C1771 H1763 0.930 . S
C1771 C1772 1.355 . S
C1771 C1773 1.415 . S
C1772 C1771 1.355 . S
C1772 C1774 1.419 . S
C1773 C1768 1.425 . S
C1773 C1770 1.409 . S
C1773 C1771 1.415 . S
C1774 H1764 0.930 . S
C1774 C1772 1.419 . S
C1774 C1775 1.362 . S
C1775 H1765 0.930 . S
C1775 C1768 1.409 . S
C1775 C1774 1.362 . S
H1776 C1782 0.930 . S
H1777 C1785 0.930 . S
H1778 C1786 0.930 . S
H1779 C1787 0.930 . S
H1780 C1790 0.930 . S
H1781 C1791 0.930 . S
C1782 H1776 0.930 . S
C1782 C1783 1.355 . S
C1782 C1784 1.415 . S
C1783 C1782 1.355 . S
C1783 C1785 1.419 . S
C1784 C1782 1.415 . S
C1784 C1789 1.425 . S
C1784 C1791 1.409 . S
C1785 H1777 0.930 . S
C1785 C1783 1.419 . S
C1785 C1786 1.362 . S
C1786 H1778 0.930 . S
C1786 C1785 1.362 . S
C1786 C1789 1.409 . S
C1787 H1779 0.930 . S
C1787 C1788 1.355 . S
C1787 C1789 1.415 . S
C1788 C1787 1.355 . S
C1788 C1790 1.419 . S
C1789 C1784 1.425 . S
C1789 C1786 1.409 . S
C1789 C1787 1.415 . S
C1790 H1780 0.930 . S
C1790 C1788 1.419 . S
C1790 C1791 1.362 . S
C1791 H1781 0.930 . S
C1791 C1784 1.409 . S
C1791 C1790 1.362 . S
H1792 C1798 0.930 . S
H1793 C1801 0.930 . S
H1794 C1802 0.930 . S
H1795 C1803 0.930 . S
H1796 C1806 0.930 . S
H1797 C1807 0.930 . S
C1798 H1792 0.930 . S
C1798 C1799 1.355 . S
C1798 C1800 1.415 . S
C1799 C1798 1.355 . S
C1799 C1801 1.419 . S
C1800 C1798 1.415 . S
C1800 C1805 1.425 . S
C1800 C1807 1.409 . S
C1801 H1793 0.930 . S
C1801 C1799 1.419 . S
C1801 C1802 1.362 . S
C1802 H1794 0.930 . S
C1802 C1801 1.362 . S
C1802 C1805 1.409 . S
C1803 H1795 0.930 . S
C1803 C1804 1.355 . S
C1803 C1805 1.415 . S
C1804 C1803 1.355 . S
C1804 C1806 1.419 . S
C1805 C1800 1.425 . S
C1805 C1802 1.409 . S
C1805 C1803 1.415 . S
C1806 H1796 0.930 . S
C1806 C1804 1.419 . S
C1806 C1807 1.362 . S
C1807 H1797 0.930 . S
C1807 C1800 1.409 . S
C1807 C1806 1.362 . S
H1808 C1814 0.930 . S
H1809 C1817 0.930 . S
H1810 C1818 0.930 . S
H1811 C1819 0.930 . S
H1812 C1822 0.930 . S
H1813 C1823 0.930 . S
C1814 H1808 0.930 . S
C1814 C1815 1.355 . S
C1814 C1816 1.415 . S
C1815 C1814 1.355 . S
C1815 C1817 1.419 . S
C1816 C1814 1.415 . S
C1816 C1821 1.425 . S
C1816 C1823 1.409 . S
C1817 H1809 0.930 . S
C1817 C1815 1.419 . S
C1817 C1818 1.362 . S
C1818 H1810 0.930 . S
C1818 C1817 1.362 . S
C1818 C1821 1.409 . S
C1819 H1811 0.930 . S
C1819 C1820 1.355 . S
C1819 C1821 1.415 . S
C1820 C1819 1.355 . S
C1820 C1822 1.419 . S
C1821 C1816 1.425 . S
C1821 C1818 1.409 . S
C1821 C1819 1.415 . S
C1822 H1812 0.930 . S
C1822 C1820 1.419 . S
C1822 C1823 1.362 . S
C1823 H1813 0.930 . S
C1823 C1816 1.409 . S
C1823 C1822 1.362 . S
H1824 C1830 0.930 . S
H1825 C1833 0.930 . S
H1826 C1834 0.930 . S
H1827 C1835 0.930 . S
H1828 C1838 0.930 . S
H1829 C1839 0.930 . S
C1830 H1824 0.930 . S
C1830 C1831 1.355 . S
C1830 C1832 1.415 . S
C1831 C1830 1.355 . S
C1831 C1833 1.419 . S
C1832 C1830 1.415 . S
C1832 C1837 1.425 1_554 S
C1832 C1839 1.409 1_554 S
C1833 H1825 0.930 . S
C1833 C1831 1.419 . S
C1833 C1834 1.362 . S
C1834 H1826 0.930 . S
C1834 C1833 1.362 . S
C1834 C1837 1.409 1_554 S
C1835 H1827 0.930 . S
C1835 C1836 1.355 . S
C1835 C1837 1.415 . S
C1836 C1835 1.355 . S
C1836 C1838 1.419 . S
C1837 C1832 1.425 1_556 S
C1837 C1834 1.409 1_556 S
C1837 C1835 1.415 . S
C1838 H1828 0.930 . S
C1838 C1836 1.419 . S
C1838 C1839 1.362 . S
C1839 H1829 0.930 . S
C1839 C1832 1.409 1_556 S
C1839 C1838 1.362 . S
H1840 C1846 0.930 . S
H1841 C1849 0.930 . S
H1842 C1850 0.930 . S
H1843 C1851 0.930 . S
H1844 C1854 0.930 . S
H1845 C1855 0.930 . S
C1846 H1840 0.930 . S
C1846 C1847 1.355 1_545 S
C1846 C1848 1.415 . S
C1847 C1846 1.355 1_565 S
C1847 C1849 1.419 . S
C1848 C1846 1.415 . S
C1848 C1853 1.425 1_545 S
C1848 C1855 1.409 . S
C1849 H1841 0.930 . S
C1849 C1847 1.419 . S
C1849 C1850 1.362 . S
C1850 H1842 0.930 . S
C1850 C1849 1.362 . S
C1850 C1853 1.409 . S
C1851 H1843 0.930 . S
C1851 C1852 1.355 1_565 S
C1851 C1853 1.415 . S
C1852 C1851 1.355 1_545 S
C1852 C1854 1.419 . S
C1853 C1848 1.425 1_565 S
C1853 C1850 1.409 . S
C1853 C1851 1.415 . S
C1854 H1844 0.930 . S
C1854 C1852 1.419 . S
C1854 C1855 1.362 . S
C1855 H1845 0.930 . S
C1855 C1848 1.409 . S
C1855 C1854 1.362 . S
H1856 C1862 0.930 . S
H1857 C1865 0.930 . S
H1858 C1866 0.930 . S
H1859 C1867 0.930 . S
H1860 C1870 0.930 . S
H1861 C1871 0.930 . S
C1862 H1856 0.930 . S
C1862 C1863 1.355 . S
C1862 C1864 1.415 . S
C1863 C1862 1.355 . S
C1863 C1865 1.419 . S
C1864 C1862 1.415 . S
C1864 C1869 1.425 . S
C1864 C1871 1.409 . S
C1865 H1857 0.930 . S
C1865 C1863 1.419 . S
C1865 C1866 1.362 . S
C1866 H1858 0.930 . S
C1866 C1865 1.362 . S
C1866 C1869 1.409 . S
C1867 H1859 0.930 . S
C1867 C1868 1.355 . S
C1867 C1869 1.415 . S
C1868 C1867 1.355 . S
C1868 C1870 1.419 . S
C1869 C1864 1.425 . S
C1869 C1866 1.409 . S
C1869 C1867 1.415 . S
C1870 H1860 0.930 . S
C1870 C1868 1.419 . S
C1870 C1871 1.362 . S
C1871 H1861 0.930 . S
C1871 C1864 1.409 . S
C1871 C1870 1.362 . S
H1872 C1878 0.930 . S
H1873 C1881 0.930 . S
H1874 C1882 0.930 . S
H1875 C1883 0.930 . S
H1876 C1886 0.930 . S
H1877 C1887 0.930 . S
C1878 H1872 0.930 . S
C1878 C1879 1.355 1_545 S
C1878 C1880 1.415 . S
C1879 C1878 1.355 1_565 S
C1879 C1881 1.419 . S
C1880 C1878 1.415 . S
C1880 C1885 1.425 1_545 S
C1880 C1887 1.409 . S
C1881 H1873 0.930 . S
C1881 C1879 1.419 . S
C1881 C1882 1.362 . S
C1882 H1874 0.930 . S
C1882 C1881 1.362 . S
C1882 C1885 1.409 . S
C1883 H1875 0.930 . S
C1883 C1884 1.355 1_565 S
C1883 C1885 1.415 . S
C1884 C1883 1.355 1_545 S
C1884 C1886 1.419 . S
C1885 C1880 1.425 1_565 S
C1885 C1882 1.409 . S
C1885 C1883 1.415 . S
C1886 H1876 0.930 . S
C1886 C1884 1.419 . S
C1886 C1887 1.362 . S
C1887 H1877 0.930 . S
C1887 C1880 1.409 . S
C1887 C1886 1.362 . S
H1888 C1894 0.930 . S
H1889 C1897 0.930 . S
H1890 C1898 0.930 . S
H1891 C1899 0.930 . S
H1892 C1902 0.930 . S
H1893 C1903 0.930 . S
C1894 H1888 0.930 . S
C1894 C1895 1.355 . S
C1894 C1896 1.415 . S
C1895 C1894 1.355 . S
C1895 C1897 1.419 . S
C1896 C1894 1.415 . S
C1896 C1901 1.425 1_554 S
C1896 C1903 1.409 1_554 S
C1897 H1889 0.930 . S
C1897 C1895 1.419 . S
C1897 C1898 1.362 . S
C1898 H1890 0.930 . S
C1898 C1897 1.362 . S
C1898 C1901 1.409 1_554 S
C1899 H1891 0.930 . S
C1899 C1900 1.355 . S
C1899 C1901 1.415 . S
C1900 C1899 1.355 . S
C1900 C1902 1.419 . S
C1901 C1896 1.425 1_556 S
C1901 C1898 1.409 1_556 S
C1901 C1899 1.415 . S
C1902 H1892 0.930 . S
C1902 C1900 1.419 . S
C1902 C1903 1.362 . S
C1903 H1893 0.930 . S
C1903 C1896 1.409 1_556 S
C1903 C1902 1.362 . S
H1904 C1910 0.930 . S
H1905 C1913 0.930 . S
H1906 C1914 0.930 . S
H1907 C1915 0.930 . S
H1908 C1918 0.930 . S
H1909 C1919 0.930 . S
C1910 H1904 0.930 . S
C1910 C1911 1.355 . S
C1910 C1912 1.415 . S
C1911 C1910 1.355 . S
C1911 C1913 1.419 1_545 S
C1912 C1910 1.415 . S
C1912 C1917 1.425 1_545 S
C1912 C1919 1.409 . S
C1913 H1905 0.930 . S
C1913 C1911 1.419 1_565 S
C1913 C1914 1.362 . S
C1914 H1906 0.930 . S
C1914 C1913 1.362 . S
C1914 C1917 1.409 . S
C1915 H1907 0.930 . S
C1915 C1916 1.355 . S
C1915 C1917 1.415 . S
C1916 C1915 1.355 . S
C1916 C1918 1.419 1_565 S
C1917 C1912 1.425 1_565 S
C1917 C1914 1.409 . S
C1917 C1915 1.415 . S
C1918 H1908 0.930 . S
C1918 C1916 1.419 1_545 S
C1918 C1919 1.362 . S
C1919 H1909 0.930 . S
C1919 C1912 1.409 . S
C1919 C1918 1.362 . S
H1920 C1926 0.930 . S
H1921 C1929 0.930 . S
H1922 C1930 0.930 . S
H1923 C1931 0.930 . S
H1924 C1934 0.930 . S
H1925 C1935 0.930 . S
C1926 H1920 0.930 . S
C1926 C1927 1.355 . S
C1926 C1928 1.415 . S
C1927 C1926 1.355 . S
C1927 C1929 1.419 . S
C1928 C1926 1.415 . S
C1928 C1933 1.425 . S
C1928 C1935 1.409 . S
C1929 H1921 0.930 . S
C1929 C1927 1.419 . S
C1929 C1930 1.362 . S
C1930 H1922 0.930 . S
C1930 C1929 1.362 . S
C1930 C1933 1.409 . S
C1931 H1923 0.930 . S
C1931 C1932 1.355 . S
C1931 C1933 1.415 . S
C1932 C1931 1.355 . S
C1932 C1934 1.419 . S
C1933 C1928 1.425 . S
C1933 C1930 1.409 . S
C1933 C1931 1.415 . S
C1934 H1924 0.930 . S
C1934 C1932 1.419 . S
C1934 C1935 1.362 . S
C1935 H1925 0.930 . S
C1935 C1928 1.409 . S
C1935 C1934 1.362 . S
H1936 C1942 0.930 . S
H1937 C1945 0.930 . S
H1938 C1946 0.930 . S
H1939 C1947 0.930 . S
H1940 C1950 0.930 . S
H1941 C1951 0.930 . S
C1942 H1936 0.930 . S
C1942 C1943 1.355 1_545 S
C1942 C1944 1.415 . S
C1943 C1942 1.355 1_565 S
C1943 C1945 1.419 . S
C1944 C1942 1.415 . S
C1944 C1949 1.425 1_545 S
C1944 C1951 1.409 . S
C1945 H1937 0.930 . S
C1945 C1943 1.419 . S
C1945 C1946 1.362 . S
C1946 H1938 0.930 . S
C1946 C1945 1.362 . S
C1946 C1949 1.409 . S
C1947 H1939 0.930 . S
C1947 C1948 1.355 1_565 S
C1947 C1949 1.415 . S
C1948 C1947 1.355 1_545 S
C1948 C1950 1.419 . S
C1949 C1944 1.425 1_565 S
C1949 C1946 1.409 . S
C1949 C1947 1.415 . S
C1950 H1940 0.930 . S
C1950 C1948 1.419 . S
C1950 C1951 1.362 . S
C1951 H1941 0.930 . S
C1951 C1944 1.409 . S
C1951 C1950 1.362 . S
H1952 C1958 0.930 . S
H1953 C1961 0.930 . S
H1954 C1962 0.930 . S
H1955 C1963 0.930 . S
H1956 C1966 0.930 . S
H1957 C1967 0.930 . S
C1958 H1952 0.930 . S
C1958 C1959 1.355 . S
C1958 C1960 1.415 . S
C1959 C1958 1.355 . S
C1959 C1961 1.419 . S
C1960 C1958 1.415 . S
C1960 C1965 1.425 . S
C1960 C1967 1.409 . S
C1961 H1953 0.930 . S
C1961 C1959 1.419 . S
C1961 C1962 1.362 . S
C1962 H1954 0.930 . S
C1962 C1961 1.362 . S
C1962 C1965 1.409 . S
C1963 H1955 0.930 . S
C1963 C1964 1.355 . S
C1963 C1965 1.415 . S
C1964 C1963 1.355 . S
C1964 C1966 1.419 . S
C1965 C1960 1.425 . S
C1965 C1962 1.409 . S
C1965 C1963 1.415 . S
C1966 H1956 0.930 . S
C1966 C1964 1.419 . S
C1966 C1967 1.362 . S
C1967 H1957 0.930 . S
C1967 C1960 1.409 . S
C1967 C1966 1.362 . S
H1968 C1974 0.930 . S
H1969 C1977 0.930 . S
H1970 C1978 0.930 . S
H1971 C1979 0.930 . S
H1972 C1982 0.930 . S
H1973 C1983 0.930 . S
C1974 H1968 0.930 . S
C1974 C1975 1.355 . S
C1974 C1976 1.415 . S
C1975 C1974 1.355 . S
C1975 C1977 1.419 . S
C1976 C1974 1.415 . S
C1976 C1981 1.425 . S
C1976 C1983 1.409 . S
C1977 H1969 0.930 . S
C1977 C1975 1.419 . S
C1977 C1978 1.362 . S
C1978 H1970 0.930 . S
C1978 C1977 1.362 . S
C1978 C1981 1.409 . S
C1979 H1971 0.930 . S
C1979 C1980 1.355 . S
C1979 C1981 1.415 . S
C1980 C1979 1.355 . S
C1980 C1982 1.419 . S
C1981 C1976 1.425 . S
C1981 C1978 1.409 . S
C1981 C1979 1.415 . S
C1982 H1972 0.930 . S
C1982 C1980 1.419 . S
C1982 C1983 1.362 . S
C1983 H1973 0.930 . S
C1983 C1976 1.409 . S
C1983 C1982 1.362 . S
H1984 C1990 0.930 . S
H1985 C1993 0.930 . S
H1986 C1994 0.930 . S
H1987 C1995 0.930 . S
H1988 C1998 0.930 . S
H1989 C1999 0.930 . S
C1990 H1984 0.930 . S
C1990 C1991 1.355 . S
C1990 C1992 1.415 . S
C1991 C1990 1.355 . S
C1991 C1993 1.419 . S
C1992 C1990 1.415 . S
C1992 C1997 1.425 1_554 S
C1992 C1999 1.409 1_554 S
C1993 H1985 0.930 . S
C1993 C1991 1.419 . S
C1993 C1994 1.362 . S
C1994 H1986 0.930 . S
C1994 C1993 1.362 . S
C1994 C1997 1.409 1_554 S
C1995 H1987 0.930 . S
C1995 C1996 1.355 . S
C1995 C1997 1.415 . S
C1996 C1995 1.355 . S
C1996 C1998 1.419 . S
C1997 C1992 1.425 1_556 S
C1997 C1994 1.409 1_556 S
C1997 C1995 1.415 . S
C1998 H1988 0.930 . S
C1998 C1996 1.419 . S
C1998 C1999 1.362 . S
C1999 H1989 0.930 . S
C1999 C1992 1.409 1_556 S
C1999 C1998 1.362 . S
H2000 C2006 0.930 . S
H2001 C2009 0.930 . S
H2002 C2010 0.930 . S
H2003 C2011 0.930 . S
H2004 C2014 0.930 . S
H2005 C2015 0.930 . S
C2006 H2000 0.930 . S
C2006 C2007 1.355 . S
C2006 C2008 1.415 . S
C2007 C2006 1.355 . S
C2007 C2009 1.419 . S
C2008 C2006 1.415 . S
C2008 C2013 1.425 . S
C2008 C2015 1.409 . S
C2009 H2001 0.930 . S
C2009 C2007 1.419 . S
C2009 C2010 1.362 . S
C2010 H2002 0.930 . S
C2010 C2009 1.362 . S
C2010 C2013 1.409 . S
C2011 H2003 0.930 . S
C2011 C2012 1.355 . S
C2011 C2013 1.415 . S
C2012 C2011 1.355 . S
C2012 C2014 1.419 . S
C2013 C2008 1.425 . S
C2013 C2010 1.409 . S
C2013 C2011 1.415 . S
C2014 H2004 0.930 . S
C2014 C2012 1.419 . S
C2014 C2015 1.362 . S
C2015 H2005 0.930 . S
C2015 C2008 1.409 . S
C2015 C2014 1.362 . S
H2016 C2022 0.930 . S
H2017 C2025 0.930 . S
H2018 C2026 0.930 . S
H2019 C2027 0.930 . S
H2020 C2030 0.930 . S
H2021 C2031 0.930 . S
C2022 H2016 0.930 . S
C2022 C2023 1.355 . S
C2022 C2024 1.415 . S
C2023 C2022 1.355 . S
C2023 C2025 1.419 . S
C2024 C2022 1.415 . S
C2024 C2029 1.425 . S
C2024 C2031 1.409 . S
C2025 H2017 0.930 . S
C2025 C2023 1.419 . S
C2025 C2026 1.362 . S
C2026 H2018 0.930 . S
C2026 C2025 1.362 . S
C2026 C2029 1.409 . S
C2027 H2019 0.930 . S
C2027 C2028 1.355 . S
C2027 C2029 1.415 . S
C2028 C2027 1.355 . S
C2028 C2030 1.419 . S
C2029 C2024 1.425 . S
C2029 C2026 1.409 . S
C2029 C2027 1.415 . S
C2030 H2020 0.930 . S
C2030 C2028 1.419 . S
C2030 C2031 1.362 . S
C2031 H2021 0.930 . S
C2031 C2024 1.409 . S
C2031 C2030 1.362 . S
H2032 C2038 0.930 . S
H2033 C2041 0.930 . S
H2034 C2042 0.930 . S
H2035 C2043 0.930 . S
H2036 C2046 0.930 . S
H2037 C2047 0.930 . S
C2038 H2032 0.930 . S
C2038 C2039 1.355 . S
C2038 C2040 1.415 . S
C2039 C2038 1.355 . S
C2039 C2041 1.419 . S
C2040 C2038 1.415 . S
C2040 C2045 1.425 . S
C2040 C2047 1.409 . S
C2041 H2033 0.930 . S
C2041 C2039 1.419 . S
C2041 C2042 1.362 . S
C2042 H2034 0.930 . S
C2042 C2041 1.362 . S
C2042 C2045 1.409 . S
C2043 H2035 0.930 . S
C2043 C2044 1.355 . S
C2043 C2045 1.415 . S
C2044 C2043 1.355 . S
C2044 C2046 1.419 . S
C2045 C2040 1.425 . S
C2045 C2042 1.409 . S
C2045 C2043 1.415 . S
C2046 H2036 0.930 . S
C2046 C2044 1.419 . S
C2046 C2047 1.362 . S
C2047 H2037 0.930 . S
C2047 C2040 1.409 . S
C2047 C2046 1.362 . S
H2048 C2054 0.930 . S
H2049 C2057 0.930 . S
H2050 C2058 0.930 . S
H2051 C2059 0.930 . S
H2052 C2062 0.930 . S
H2053 C2063 0.930 . S
C2054 H2048 0.930 . S
C2054 C2055 1.355 . S
C2054 C2056 1.415 . S
C2055 C2054 1.355 . S
C2055 C2057 1.419 . S
C2056 C2054 1.415 . S
C2056 C2061 1.425 1_556 S
C2056 C2063 1.409 1_556 S
C2057 H2049 0.930 . S
C2057 C2055 1.419 . S
C2057 C2058 1.362 . S
C2058 H2050 0.930 . S
C2058 C2057 1.362 . S
C2058 C2061 1.409 1_556 S
C2059 H2051 0.930 . S
C2059 C2060 1.355 . S
C2059 C2061 1.415 . S
C2060 C2059 1.355 . S
C2060 C2062 1.419 . S
C2061 C2056 1.425 1_554 S
C2061 C2058 1.409 1_554 S
C2061 C2059 1.415 . S
C2062 H2052 0.930 . S
C2062 C2060 1.419 . S
C2062 C2063 1.362 . S
C2063 H2053 0.930 . S
C2063 C2056 1.409 1_554 S
C2063 C2062 1.362 . S
H2064 C2070 0.930 . S
H2065 C2073 0.930 . S
H2066 C2074 0.930 . S
H2067 C2075 0.930 . S
H2068 C2078 0.930 . S
H2069 C2079 0.930 . S
C2070 H2064 0.930 . S
C2070 C2071 1.355 . S
C2070 C2072 1.415 . S
C2071 C2070 1.355 . S
C2071 C2073 1.419 . S
C2072 C2070 1.415 . S
C2072 C2077 1.425 . S
C2072 C2079 1.409 . S
C2073 H2065 0.930 . S
C2073 C2071 1.419 . S
C2073 C2074 1.362 . S
C2074 H2066 0.930 . S
C2074 C2073 1.362 . S
C2074 C2077 1.409 . S
C2075 H2067 0.930 . S
C2075 C2076 1.355 . S
C2075 C2077 1.415 . S
C2076 C2075 1.355 . S
C2076 C2078 1.419 . S
C2077 C2072 1.425 . S
C2077 C2074 1.409 . S
C2077 C2075 1.415 . S
C2078 H2068 0.930 . S
C2078 C2076 1.419 . S
C2078 C2079 1.362 . S
C2079 H2069 0.930 . S
C2079 C2072 1.409 . S
C2079 C2078 1.362 . S
H2080 C2086 0.930 . S
H2081 C2089 0.930 . S
H2082 C2090 0.930 . S
H2083 C2091 0.930 . S
H2084 C2094 0.930 . S
H2085 C2095 0.930 . S
C2086 H2080 0.930 . S
C2086 C2087 1.355 . S
C2086 C2088 1.415 . S
C2087 C2086 1.355 . S
C2087 C2089 1.419 . S
C2088 C2086 1.415 . S
C2088 C2093 1.425 . S
C2088 C2095 1.409 . S
C2089 H2081 0.930 . S
C2089 C2087 1.419 . S
C2089 C2090 1.362 . S
C2090 H2082 0.930 . S
C2090 C2089 1.362 . S
C2090 C2093 1.409 . S
C2091 H2083 0.930 . S
C2091 C2092 1.355 . S
C2091 C2093 1.415 . S
C2092 C2091 1.355 . S
C2092 C2094 1.419 . S
C2093 C2088 1.425 . S
C2093 C2090 1.409 . S
C2093 C2091 1.415 . S
C2094 H2084 0.930 . S
C2094 C2092 1.419 . S
C2094 C2095 1.362 . S
C2095 H2085 0.930 . S
C2095 C2088 1.409 . S
C2095 C2094 1.362 . S
H2096 C2102 0.930 . S
H2097 C2105 0.930 . S
H2098 C2106 0.930 . S
H2099 C2107 0.930 . S
H2100 C2110 0.930 . S
H2101 C2111 0.930 . S
C2102 H2096 0.930 . S
C2102 C2103 1.355 . S
C2102 C2104 1.415 . S
C2103 C2102 1.355 . S
C2103 C2105 1.419 . S
C2104 C2102 1.415 . S
C2104 C2109 1.425 . S
C2104 C2111 1.409 . S
C2105 H2097 0.930 . S
C2105 C2103 1.419 . S
C2105 C2106 1.362 . S
C2106 H2098 0.930 . S
C2106 C2105 1.362 . S
C2106 C2109 1.409 . S
C2107 H2099 0.930 . S
C2107 C2108 1.355 . S
C2107 C2109 1.415 . S
C2108 C2107 1.355 . S
C2108 C2110 1.419 . S
C2109 C2104 1.425 . S
C2109 C2106 1.409 . S
C2109 C2107 1.415 . S
C2110 H2100 0.930 . S
C2110 C2108 1.419 . S
C2110 C2111 1.362 . S
C2111 H2101 0.930 . S
C2111 C2104 1.409 . S
C2111 C2110 1.362 . S
H2112 C2118 0.930 . S
H2113 C2121 0.930 . S
H2114 C2122 0.930 . S
H2115 C2123 0.930 . S
H2116 C2126 0.930 . S
H2117 C2127 0.930 . S
C2118 H2112 0.930 . S
C2118 C2119 1.355 . S
C2118 C2120 1.415 . S
C2119 C2118 1.355 . S
C2119 C2121 1.419 . S
C2120 C2118 1.415 . S
C2120 C2125 1.425 . S
C2120 C2127 1.409 . S
C2121 H2113 0.930 . S
C2121 C2119 1.419 . S
C2121 C2122 1.362 . S
C2122 H2114 0.930 . S
C2122 C2121 1.362 . S
C2122 C2125 1.409 . S
C2123 H2115 0.930 . S
C2123 C2124 1.355 . S
C2123 C2125 1.415 . S
C2124 C2123 1.355 . S
C2124 C2126 1.419 . S
C2125 C2120 1.425 . S
C2125 C2122 1.409 . S
C2125 C2123 1.415 . S
C2126 H2116 0.930 . S
C2126 C2124 1.419 . S
C2126 C2127 1.362 . S
C2127 H2117 0.930 . S
C2127 C2120 1.409 . S
C2127 C2126 1.362 . S
H2128 C2134 0.930 . S
H2129 C2137 0.930 . S
H2130 C2138 0.930 . S
H2131 C2139 0.930 . S
H2132 C2142 0.930 . S
H2133 C2143 0.930 . S
C2134 H2128 0.930 . S
C2134 C2135 1.355 . S
C2134 C2136 1.415 . S
C2135 C2134 1.355 . S
C2135 C2137 1.419 . S
C2136 C2134 1.415 . S
C2136 C2141 1.425 . S
C2136 C2143 1.409 . S
C2137 H2129 0.930 . S
C2137 C2135 1.419 . S
C2137 C2138 1.362 . S
C2138 H2130 0.930 . S
C2138 C2137 1.362 . S
C2138 C2141 1.409 . S
C2139 H2131 0.930 . S
C2139 C2140 1.355 . S
C2139 C2141 1.415 . S
C2140 C2139 1.355 . S
C2140 C2142 1.419 . S
C2141 C2136 1.425 . S
C2141 C2138 1.409 . S
C2141 C2139 1.415 . S
C2142 H2132 0.930 . S
C2142 C2140 1.419 . S
C2142 C2143 1.362 . S
C2143 H2133 0.930 . S
C2143 C2136 1.409 . S
C2143 C2142 1.362 . S
H2144 C2150 0.930 . S
H2145 C2153 0.930 . S
H2146 C2154 0.930 . S
H2147 C2155 0.930 . S
H2148 C2158 0.930 . S
H2149 C2159 0.930 . S
C2150 H2144 0.930 . S
C2150 C2151 1.355 . S
C2150 C2152 1.415 . S
C2151 C2150 1.355 . S
C2151 C2153 1.419 . S
C2152 C2150 1.415 . S
C2152 C2157 1.425 . S
C2152 C2159 1.409 . S
C2153 H2145 0.930 . S
C2153 C2151 1.419 . S
C2153 C2154 1.362 . S
C2154 H2146 0.930 . S
C2154 C2153 1.362 . S
C2154 C2157 1.409 . S
C2155 H2147 0.930 . S
C2155 C2156 1.355 . S
C2155 C2157 1.415 . S
C2156 C2155 1.355 . S
C2156 C2158 1.419 . S
C2157 C2152 1.425 . S
C2157 C2154 1.409 . S
C2157 C2155 1.415 . S
C2158 H2148 0.930 . S
C2158 C2156 1.419 . S
C2158 C2159 1.362 . S
C2159 H2149 0.930 . S
C2159 C2152 1.409 . S
C2159 C2158 1.362 . S
H2160 C2166 0.930 . S
H2161 C2169 0.930 . S
H2162 C2170 0.930 . S
H2163 C2171 0.930 . S
H2164 C2174 0.930 . S
H2165 C2175 0.930 . S
C2166 H2160 0.930 . S
C2166 C2167 1.355 . S
C2166 C2168 1.415 . S
C2167 C2166 1.355 . S
C2167 C2169 1.419 . S
C2168 C2166 1.415 . S
C2168 C2173 1.425 . S
C2168 C2175 1.409 . S
C2169 H2161 0.930 . S
C2169 C2167 1.419 . S
C2169 C2170 1.362 . S
C2170 H2162 0.930 . S
C2170 C2169 1.362 . S
C2170 C2173 1.409 . S
C2171 H2163 0.930 . S
C2171 C2172 1.355 . S
C2171 C2173 1.415 . S
C2172 C2171 1.355 . S
C2172 C2174 1.419 . S
C2173 C2168 1.425 . S
C2173 C2170 1.409 . S
C2173 C2171 1.415 . S
C2174 H2164 0.930 . S
C2174 C2172 1.419 . S
C2174 C2175 1.362 . S
C2175 H2165 0.930 . S
C2175 C2168 1.409 . S
C2175 C2174 1.362 . S
H2176 C2182 0.930 . S
H2177 C2185 0.930 . S
H2178 C2186 0.930 . S
H2179 C2187 0.930 . S
H2180 C2190 0.930 . S
H2181 C2191 0.930 . S
C2182 H2176 0.930 . S
C2182 C2183 1.355 . S
C2182 C2184 1.415 . S
C2183 C2182 1.355 . S
C2183 C2185 1.419 . S
C2184 C2182 1.415 . S
C2184 C2189 1.425 . S
C2184 C2191 1.409 . S
C2185 H2177 0.930 . S
C2185 C2183 1.419 . S
C2185 C2186 1.362 . S
C2186 H2178 0.930 . S
C2186 C2185 1.362 . S
C2186 C2189 1.409 . S
C2187 H2179 0.930 . S
C2187 C2188 1.355 . S
C2187 C2189 1.415 . S
C2188 C2187 1.355 . S
C2188 C2190 1.419 . S
C2189 C2184 1.425 . S
C2189 C2186 1.409 . S
C2189 C2187 1.415 . S
C2190 H2180 0.930 . S
C2190 C2188 1.419 . S
C2190 C2191 1.362 . S
C2191 H2181 0.930 . S
C2191 C2184 1.409 . S
C2191 C2190 1.362 . S
H2192 C2198 0.930 . S
H2193 C2201 0.930 . S
H2194 C2202 0.930 . S
H2195 C2203 0.930 . S
H2196 C2206 0.930 . S
H2197 C2207 0.930 . S
C2198 H2192 0.930 . S
C2198 C2199 1.355 . S
C2198 C2200 1.415 . S
C2199 C2198 1.355 . S
C2199 C2201 1.419 . S
C2200 C2198 1.415 . S
C2200 C2205 1.425 . S
C2200 C2207 1.409 . S
C2201 H2193 0.930 . S
C2201 C2199 1.419 . S
C2201 C2202 1.362 . S
C2202 H2194 0.930 . S
C2202 C2201 1.362 . S
C2202 C2205 1.409 . S
C2203 H2195 0.930 . S
C2203 C2204 1.355 . S
C2203 C2205 1.415 . S
C2204 C2203 1.355 . S
C2204 C2206 1.419 . S
C2205 C2200 1.425 . S
C2205 C2202 1.409 . S
C2205 C2203 1.415 . S
C2206 H2196 0.930 . S
C2206 C2204 1.419 . S
C2206 C2207 1.362 . S
C2207 H2197 0.930 . S
C2207 C2200 1.409 . S
C2207 C2206 1.362 . S
H2208 C2214 0.930 . S
H2209 C2217 0.930 . S
H2210 C2218 0.930 . S
H2211 C2219 0.930 . S
H2212 C2222 0.930 . S
H2213 C2223 0.930 . S
C2214 H2208 0.930 . S
C2214 C2215 1.355 . S
C2214 C2216 1.415 . S
C2215 C2214 1.355 . S
C2215 C2217 1.419 . S
C2216 C2214 1.415 . S
C2216 C2221 1.425 . S
C2216 C2223 1.409 . S
C2217 H2209 0.930 . S
C2217 C2215 1.419 . S
C2217 C2218 1.362 . S
C2218 H2210 0.930 . S
C2218 C2217 1.362 . S
C2218 C2221 1.409 . S
C2219 H2211 0.930 . S
C2219 C2220 1.355 . S
C2219 C2221 1.415 . S
C2220 C2219 1.355 . S
C2220 C2222 1.419 . S
C2221 C2216 1.425 . S
C2221 C2218 1.409 . S
C2221 C2219 1.415 . S
C2222 H2212 0.930 . S
C2222 C2220 1.419 . S
C2222 C2223 1.362 . S
C2223 H2213 0.930 . S
C2223 C2216 1.409 . S
C2223 C2222 1.362 . S
H2224 C2230 0.930 . S
H2225 C2233 0.930 . S
H2226 C2234 0.930 . S
H2227 C2235 0.930 . S
H2228 C2238 0.930 . S
H2229 C2239 0.930 . S
C2230 H2224 0.930 . S
C2230 C2231 1.355 . S
C2230 C2232 1.415 . S
C2231 C2230 1.355 . S
C2231 C2233 1.419 . S
C2232 C2230 1.415 . S
C2232 C2237 1.425 . S
C2232 C2239 1.409 . S
C2233 H2225 0.930 . S
C2233 C2231 1.419 . S
C2233 C2234 1.362 . S
C2234 H2226 0.930 . S
C2234 C2233 1.362 . S
C2234 C2237 1.409 . S
C2235 H2227 0.930 . S
C2235 C2236 1.355 . S
C2235 C2237 1.415 . S
C2236 C2235 1.355 . S
C2236 C2238 1.419 . S
C2237 C2232 1.425 . S
C2237 C2234 1.409 . S
C2237 C2235 1.415 . S
C2238 H2228 0.930 . S
C2238 C2236 1.419 . S
C2238 C2239 1.362 . S
C2239 H2229 0.930 . S
C2239 C2232 1.409 . S
C2239 C2238 1.362 . S
H2240 C2246 0.930 . S
H2241 C2249 0.930 . S
H2242 C2250 0.930 . S
H2243 C2251 0.930 . S
H2244 C2254 0.930 . S
H2245 C2255 0.930 . S
C2246 H2240 0.930 . S
C2246 C2247 1.355 . S
C2246 C2248 1.415 . S
C2247 C2246 1.355 . S
C2247 C2249 1.419 . S
C2248 C2246 1.415 . S
C2248 C2253 1.425 . S
C2248 C2255 1.409 . S
C2249 H2241 0.930 . S
C2249 C2247 1.419 . S
C2249 C2250 1.362 . S
C2250 H2242 0.930 . S
C2250 C2249 1.362 . S
C2250 C2253 1.409 . S
C2251 H2243 0.930 . S
C2251 C2252 1.355 . S
C2251 C2253 1.415 . S
C2252 C2251 1.355 . S
C2252 C2254 1.419 . S
C2253 C2248 1.425 . S
C2253 C2250 1.409 . S
C2253 C2251 1.415 . S
C2254 H2244 0.930 . S
C2254 C2252 1.419 . S
C2254 C2255 1.362 . S
C2255 H2245 0.930 . S
C2255 C2248 1.409 . S
C2255 C2254 1.362 . S
H2256 C2262 0.930 . S
H2257 C2265 0.930 . S
H2258 C2266 0.930 . S
H2259 C2267 0.930 . S
H2260 C2270 0.930 . S
H2261 C2271 0.930 . S
C2262 H2256 0.930 . S
C2262 C2263 1.355 . S
C2262 C2264 1.415 . S
C2263 C2262 1.355 . S
C2263 C2265 1.419 . S
C2264 C2262 1.415 . S
C2264 C2269 1.425 . S
C2264 C2271 1.409 . S
C2265 H2257 0.930 . S
C2265 C2263 1.419 . S
C2265 C2266 1.362 . S
C2266 H2258 0.930 . S
C2266 C2265 1.362 . S
C2266 C2269 1.409 . S
C2267 H2259 0.930 . S
C2267 C2268 1.355 . S
C2267 C2269 1.415 . S
C2268 C2267 1.355 . S
C2268 C2270 1.419 . S
C2269 C2264 1.425 . S
C2269 C2266 1.409 . S
C2269 C2267 1.415 . S
C2270 H2260 0.930 . S
C2270 C2268 1.419 . S
C2270 C2271 1.362 . S
C2271 H2261 0.930 . S
C2271 C2264 1.409 . S
C2271 C2270 1.362 . S
H2272 C2278 0.930 . S
H2273 C2281 0.930 . S
H2274 C2282 0.930 . S
H2275 C2283 0.930 . S
H2276 C2286 0.930 . S
H2277 C2287 0.930 . S
C2278 H2272 0.930 . S
C2278 C2279 1.355 . S
C2278 C2280 1.415 . S
C2279 C2278 1.355 . S
C2279 C2281 1.419 . S
C2280 C2278 1.415 . S
C2280 C2285 1.425 . S
C2280 C2287 1.409 . S
C2281 H2273 0.930 . S
C2281 C2279 1.419 . S
C2281 C2282 1.362 . S
C2282 H2274 0.930 . S
C2282 C2281 1.362 . S
C2282 C2285 1.409 . S
C2283 H2275 0.930 . S
C2283 C2284 1.355 . S
C2283 C2285 1.415 . S
C2284 C2283 1.355 . S
C2284 C2286 1.419 . S
C2285 C2280 1.425 . S
C2285 C2282 1.409 . S
C2285 C2283 1.415 . S
C2286 H2276 0.930 . S
C2286 C2284 1.419 . S
C2286 C2287 1.362 . S
C2287 H2277 0.930 . S
C2287 C2280 1.409 . S
C2287 C2286 1.362 . S
H2288 C2294 0.930 . S
H2289 C2297 0.930 . S
H2290 C2298 0.930 . S
H2291 C2299 0.930 . S
H2292 C2302 0.930 . S
H2293 C2303 0.930 . S
C2294 H2288 0.930 . S
C2294 C2295 1.355 . S
C2294 C2296 1.415 . S
C2295 C2294 1.355 . S
C2295 C2297 1.419 . S
C2296 C2294 1.415 . S
C2296 C2301 1.425 . S
C2296 C2303 1.409 . S
C2297 H2289 0.930 . S
C2297 C2295 1.419 . S
C2297 C2298 1.362 . S
C2298 H2290 0.930 . S
C2298 C2297 1.362 . S
C2298 C2301 1.409 . S
C2299 H2291 0.930 . S
C2299 C2300 1.355 . S
C2299 C2301 1.415 . S
C2300 C2299 1.355 . S
C2300 C2302 1.419 . S
C2301 C2296 1.425 . S
C2301 C2298 1.409 . S
C2301 C2299 1.415 . S
C2302 H2292 0.930 . S
C2302 C2300 1.419 . S
C2302 C2303 1.362 . S
C2303 H2293 0.930 . S
C2303 C2296 1.409 . S
C2303 C2302 1.362 . S
H2304 C2310 0.930 . S
H2305 C2313 0.930 . S
H2306 C2314 0.930 . S
H2307 C2315 0.930 . S
H2308 C2318 0.930 . S
H2309 C2319 0.930 . S
C2310 H2304 0.930 . S
C2310 C2311 1.355 . S
C2310 C2312 1.415 . S
C2311 C2310 1.355 . S
C2311 C2313 1.419 . S
C2312 C2310 1.415 . S
C2312 C2317 1.425 . S
C2312 C2319 1.409 . S
C2313 H2305 0.930 . S
C2313 C2311 1.419 . S
C2313 C2314 1.362 . S
C2314 H2306 0.930 . S
C2314 C2313 1.362 . S
C2314 C2317 1.409 . S
C2315 H2307 0.930 . S
C2315 C2316 1.355 . S
C2315 C2317 1.415 . S
C2316 C2315 1.355 . S
C2316 C2318 1.419 . S
C2317 C2312 1.425 . S
C2317 C2314 1.409 . S
C2317 C2315 1.415 . S
C2318 H2308 0.930 . S
C2318 C2316 1.419 . S
C2318 C2319 1.362 . S
C2319 H2309 0.930 . S
C2319 C2312 1.409 . S
C2319 C2318 1.362 . S
H2320 C2326 0.930 . S
H2321 C2329 0.930 . S
H2322 C2330 0.930 . S
H2323 C2331 0.930 . S
H2324 C2334 0.930 . S
H2325 C2335 0.930 . S
C2326 H2320 0.930 . S
C2326 C2327 1.355 . S
C2326 C2328 1.415 . S
C2327 C2326 1.355 . S
C2327 C2329 1.419 . S
C2328 C2326 1.415 . S
C2328 C2333 1.425 . S
C2328 C2335 1.409 . S
C2329 H2321 0.930 . S
C2329 C2327 1.419 . S
C2329 C2330 1.362 . S
C2330 H2322 0.930 . S
C2330 C2329 1.362 . S
C2330 C2333 1.409 . S
C2331 H2323 0.930 . S
C2331 C2332 1.355 . S
C2331 C2333 1.415 . S
C2332 C2331 1.355 . S
C2332 C2334 1.419 . S
C2333 C2328 1.425 . S
C2333 C2330 1.409 . S
C2333 C2331 1.415 . S
C2334 H2324 0.930 . S
C2334 C2332 1.419 . S
C2334 C2335 1.362 . S
C2335 H2325 0.930 . S
C2335 C2328 1.409 . S
C2335 C2334 1.362 . S
C1063 C18 1.540 . S
C1068 C810 1.540 . S
C1079 C315 1.538 . S
C1084 C51 1.538 . S
C1095 C876 1.537 . S
C1100 C84 1.537 . S
C1111 C381 1.540 . S
C1116 C117 1.540 . S
C1127 C942 1.524 . S
C1132 C150 1.524 . S
C1143 C447 1.517 . S
C1148 C183 1.517 . S
C1159 C1008 1.518 . S
C1164 C216 1.518 . S
C1175 C513 1.538 . S
C1180 C249 1.538 . S
C1191 C282 1.535 . S
C1196 C546 1.535 . S
C1207 C348 1.534 . S
C1212 C612 1.534 . S
C1223 C414 1.530 . S
C1228 C678 1.530 . S
C1239 C744 1.525 . S
C1244 C480 1.525 . S
C1255 C579 1.515 . S
C1260 C843 1.515 . S
C1271 C909 1.528 . S
C1276 C645 1.528 . S
C1287 C711 1.516 . S
C1292 C975 1.516 . S
C1303 C1041 1.527 . S
C1308 C777 1.527 . S
C1319 N13 1.388 . S
C1324 C384 1.405 . S
C1335 N46 1.365 . S
C1340 C813 1.380 . S
C1351 C318 1.378 . S
C1356 N79 1.330 . S
C1367 N112 1.365 . S
C1372 C879 1.380 . S
C1383 C450 1.377 . S
C1388 N145 1.352 . S
C1399 C1011 1.403 . S
C1404 N178 1.393 . S
C1415 N211 1.330 . S
C1420 C516 1.377 . S
C1431 C945 1.375 . S
C1436 N244 1.341 . S
C1447 N277 1.329 . S
C1452 C120 1.383 . S
C1463 N310 1.341 . S
C1468 C549 1.392 . S
C1479 C54 1.405 . S
C1484 N343 1.385 . S
C1495 N376 1.362 . S
C1500 C615 1.379 . S
C1511 N409 1.374 . S
C1516 C186 1.384 . S
C1527 C747 1.404 . S
C1532 N442 1.391 . S
C1543 C252 1.384 . S
C1548 N475 1.376 . S
C1559 N508 1.394 . S
C1564 C681 1.397 . S
C1575 C912 1.394 . S
C1580 N541 1.390 . S
C1591 C285 1.402 . S
C1596 N574 1.394 . S
C1607 C846 1.381 . S
C1612 N607 1.367 . S
C1623 N640 1.333 . S
C1628 C351 1.387 . S
C1639 C978 1.402 . S
C1644 N673 1.363 . S
C1655 C483 1.379 . S
C1660 N706 1.329 . S
C1671 N739 1.340 . S
C1676 C1044 1.375 . S
C1687 C417 1.398 . S
C1692 N772 1.394 . S
C1703 C648 1.405 . S
C1708 N805 1.380 . S
C1719 N838 1.382 . S
C1724 C21 1.387 . S
C1735 N871 1.364 . S
C1740 C582 1.402 . S
C1751 C87 1.375 . S
C1756 N904 1.345 . S
C1767 C714 1.402 . S
C1772 N937 1.365 . S
C1783 N970 1.394 . S
C1788 C219 1.398 . S
C1799 C780 1.378 . S
C1804 N1003 1.359 . S
C1815 C153 1.375 . S
C1820 N1036 1.336 . S
C1831 C7 1.141 . S
C1836 C205 1.099 . S
C1847 C238 1.117 . S
C1852 C40 1.084 . S
C1863 C73 1.138 . S
C1868 C139 1.092 . S
C1879 C106 1.135 . S
C1884 C172 1.089 . S
C1895 C469 1.142 . S
C1900 C271 1.100 . S
C1911 C502 1.141 . S
C1916 C304 1.114 . S
C1927 C403 1.137 . S
C1932 C337 1.124 . S
C1943 C436 1.086 . S
C1948 C370 1.130 . S
C1959 C535 1.129 . S
C1964 C733 1.085 . S
C1975 C568 1.108 . S
C1980 C766 1.086 . S
C1991 C601 1.142 . S
C1996 C667 1.111 . S
C2007 C634 1.142 . S
C2012 C700 1.102 . S
C2023 C997 1.087 . S
C2028 C799 1.107 . S
C2039 C1030 1.084 . S
C2044 C832 1.118 . S
C2055 C865 1.121 . S
C2060 C931 1.139 . S
C2071 C898 1.138 . S
C2076 C964 1.092 . S
C2087 N2 1.637 . S
C2092 N695 1.660 . S
C2103 N35 1.651 . S
C2108 N728 1.685 . S
C2119 N68 1.647 . S
C2124 N761 1.682 . S
C2135 N101 1.643 . S
C2140 N662 1.645 . S
C2151 N629 1.680 . S
C2156 N134 1.645 . S
C2167 N167 1.640 . S
C2172 N530 1.674 . S
C2183 N563 1.688 . S
C2188 N200 1.672 . S
C2199 N233 1.678 . S
C2204 N596 1.643 . S
C2215 N959 1.655 . S
C2220 N266 1.686 . S
C2231 N299 1.689 . S
C2236 N992 1.665 . S
C2247 N1025 1.676 . S
C2252 N332 1.686 . S
C2263 N365 1.672 . S
C2268 N926 1.639 . S
C2279 N398 1.646 . S
C2284 N893 1.642 . S
C2295 N794 1.647 . S
C2300 N431 1.682 . S
C2311 N464 1.648 . S
C2316 N827 1.683 . S
C2327 N497 1.683 . S
C2332 N860 1.648 . S
