# Generated by pormake.
# Topology zfd, (5)-cn, num edge types: 1
# Building blocks:
#     Node 0, Type 0, BuildingBlock: XOMCOT_clean_sbu_1, # of connection points: 5
#     Node 1, Type 0, BuildingBlock: XOMCOT_clean_sbu_1, # of connection points: 5
#     Node 2, Type 0, BuildingBlock: XOMCOT_clean_sbu_1, # of connection points: 5
#     Node 3, Type 0, BuildingBlock: XOMCOT_clean_sbu_1, # of connection points: 5
#     Node 4, Type 0, BuildingBlock: XOMCOT_clean_sbu_1, # of connection points: 5
#     Node 5, Type 0, BuildingBlock: XOMCOT_clean_sbu_1, # of connection points: 5
#     Node 6, Type 0, BuildingBlock: XOMCOT_clean_sbu_1, # of connection points: 5
#     Node 7, Type 0, BuildingBlock: XOMCOT_clean_sbu_1, # of connection points: 5
#     Node 8, Type 0, BuildingBlock: XOMCOT_clean_sbu_1, # of connection points: 5
#     Node 9, Type 0, BuildingBlock: XOMCOT_clean_sbu_1, # of connection points: 5
#     Node 10, Type 0, BuildingBlock: XOMCOT_clean_sbu_1, # of connection points: 5
#     Node 11, Type 0, BuildingBlock: XOMCOT_clean_sbu_1, # of connection points: 5
#     Node 12, Type 0, BuildingBlock: XOMCOT_clean_sbu_1, # of connection points: 5
#     Node 13, Type 0, BuildingBlock: XOMCOT_clean_sbu_1, # of connection points: 5
#     Node 14, Type 0, BuildingBlock: XOMCOT_clean_sbu_1, # of connection points: 5
#     Node 15, Type 0, BuildingBlock: XOMCOT_clean_sbu_1, # of connection points: 5
#     Edge 16, Type (0, 0), BuildingBlock: UVAHIK_clean_linker_0, # of connection points: 2
#     Edge 17, Type (0, 0), BuildingBlock: UVAHIK_clean_linker_0, # of connection points: 2
#     Edge 18, Type (0, 0), BuildingBlock: UVAHIK_clean_linker_0, # of connection points: 2
#     Edge 19, Type (0, 0), BuildingBlock: UVAHIK_clean_linker_0, # of connection points: 2
#     Edge 20, Type (0, 0), BuildingBlock: UVAHIK_clean_linker_0, # of connection points: 2
#     Edge 21, Type (0, 0), BuildingBlock: UVAHIK_clean_linker_0, # of connection points: 2
#     Edge 22, Type (0, 0), BuildingBlock: UVAHIK_clean_linker_0, # of connection points: 2
#     Edge 23, Type (0, 0), BuildingBlock: UVAHIK_clean_linker_0, # of connection points: 2
#     Edge 24, Type (0, 0), BuildingBlock: UVAHIK_clean_linker_0, # of connection points: 2
#     Edge 25, Type (0, 0), BuildingBlock: UVAHIK_clean_linker_0, # of connection points: 2
#     Edge 26, Type (0, 0), BuildingBlock: UVAHIK_clean_linker_0, # of connection points: 2
#     Edge 27, Type (0, 0), BuildingBlock: UVAHIK_clean_linker_0, # of connection points: 2
#     Edge 28, Type (0, 0), BuildingBlock: UVAHIK_clean_linker_0, # of connection points: 2
#     Edge 29, Type (0, 0), BuildingBlock: UVAHIK_clean_linker_0, # of connection points: 2
#     Edge 30, Type (0, 0), BuildingBlock: UVAHIK_clean_linker_0, # of connection points: 2
#     Edge 31, Type (0, 0), BuildingBlock: UVAHIK_clean_linker_0, # of connection points: 2
#     Edge 32, Type (0, 0), BuildingBlock: UVAHIK_clean_linker_0, # of connection points: 2
#     Edge 33, Type (0, 0), BuildingBlock: UVAHIK_clean_linker_0, # of connection points: 2
#     Edge 34, Type (0, 0), BuildingBlock: UVAHIK_clean_linker_0, # of connection points: 2
#     Edge 35, Type (0, 0), BuildingBlock: UVAHIK_clean_linker_0, # of connection points: 2
#     Edge 36, Type (0, 0), BuildingBlock: UVAHIK_clean_linker_0, # of connection points: 2
#     Edge 37, Type (0, 0), BuildingBlock: UVAHIK_clean_linker_0, # of connection points: 2
#     Edge 38, Type (0, 0), BuildingBlock: UVAHIK_clean_linker_0, # of connection points: 2
#     Edge 39, Type (0, 0), BuildingBlock: UVAHIK_clean_linker_0, # of connection points: 2
#     Edge 40, Type (0, 0), BuildingBlock: UVAHIK_clean_linker_0, # of connection points: 2
#     Edge 41, Type (0, 0), BuildingBlock: UVAHIK_clean_linker_0, # of connection points: 2
#     Edge 42, Type (0, 0), BuildingBlock: UVAHIK_clean_linker_0, # of connection points: 2
#     Edge 43, Type (0, 0), BuildingBlock: UVAHIK_clean_linker_0, # of connection points: 2
#     Edge 44, Type (0, 0), BuildingBlock: UVAHIK_clean_linker_0, # of connection points: 2
#     Edge 45, Type (0, 0), BuildingBlock: UVAHIK_clean_linker_0, # of connection points: 2
#     Edge 46, Type (0, 0), BuildingBlock: UVAHIK_clean_linker_0, # of connection points: 2
#     Edge 47, Type (0, 0), BuildingBlock: UVAHIK_clean_linker_0, # of connection points: 2
#     Edge 48, Type (0, 0), BuildingBlock: UVAHIK_clean_linker_0, # of connection points: 2
#     Edge 49, Type (0, 0), BuildingBlock: UVAHIK_clean_linker_0, # of connection points: 2
#     Edge 50, Type (0, 0), BuildingBlock: UVAHIK_clean_linker_0, # of connection points: 2
#     Edge 51, Type (0, 0), BuildingBlock: UVAHIK_clean_linker_0, # of connection points: 2
#     Edge 52, Type (0, 0), BuildingBlock: UVAHIK_clean_linker_0, # of connection points: 2
#     Edge 53, Type (0, 0), BuildingBlock: UVAHIK_clean_linker_0, # of connection points: 2
#     Edge 54, Type (0, 0), BuildingBlock: UVAHIK_clean_linker_0, # of connection points: 2
#     Edge 55, Type (0, 0), BuildingBlock: UVAHIK_clean_linker_0, # of connection points: 2
# Relax obj value: 0.204
# Max RMSD: 0.192
# Mean RMSD: 0.192
data_MOF--net-zfd--node1-XOMCOT_clean_sbu_1--edge1-UVAHIK_clean_linker_0
_symmetry_space_group_name_H-M    P1
_symmetry_Int_Tables_number       1
_symmetry_cell_setting            triclinic
loop_
_symmetry_equiv_pos_as_xyz
'x, y, z'
_cell_length_a     85.363666
_cell_length_b     85.36637
_cell_length_c     25.513023
_cell_angle_alpha  90.028162
_cell_angle_beta   90.13271
_cell_angle_gamma 89.931198
loop_
_atom_site_label
_atom_site_type_symbol
_atom_site_fract_x
_atom_site_fract_y
_atom_site_fract_z
_atom_type_partial_charge
C0 C 0.10766 0.23081 0.12008 0.0
C1 C 0.12084 0.22977 0.15043 0.0
N2 N 0.13138 0.22094 0.1247 0.0
N3 N 0.10982 0.22261 0.07554 0.0
C4 C 0.12435 0.2165 0.07963 0.0
H5 H 0.09751 0.23793 0.12853 0.0
Co6 Co 0.09606 0.22513 0.02095 0.0
C7 C 0.10802 0.20737 0.92806 0.0
O8 O 0.10368 0.21984 0.90148 0.0
N9 N 0.0813 0.22827 0.96798 0.0
C10 C 0.06057 0.22333 0.91782 0.0
C11 C 0.07239 0.21678 0.94703 0.0
C12 C 0.07458 0.24171 0.95118 0.0
N13 N 0.06197 0.239 0.92078 0.0
O14 O 0.08107 0.21115 0.05682 0.0
H15 H 0.07394 0.20441 0.95475 0.0
H16 H 0.07797 0.25327 0.96383 0.0
O17 O 0.10605 0.20731 0.97837 0.0
C18 C 0.07105 0.21925 0.08287 0.0
O19 O 0.07151 0.23457 0.07844 0.0
N20 N 0.11019 0.24026 0.99283 0.0
C21 C 0.13252 0.26434 0.98627 0.0
C22 C 0.13624 0.24902 0.97099 0.0
C23 C 0.12501 0.23714 0.97497 0.0
C24 C 0.10647 0.25516 1.00781 0.0
C25 C 0.11727 0.26742 1.00364 0.0
H26 H 0.12889 0.22532 0.96806 0.0
H27 H 0.09548 0.25736 0.02742 0.0
H28 H 0.13006 0.2099 0.04888 0.0
H29 H 0.12268 0.2354 0.18797 0.0
H30 H 0.05133 0.21708 0.89755 0.0
H31 H 0.14799 0.24606 0.95843 0.0
H32 H 0.11407 0.27896 1.01766 0.0
C33 C 0.78952 0.10008 0.12757 0.0
C34 C 0.79147 0.11123 0.16558 0.0
N35 N 0.79917 0.12341 0.14428 0.0
N36 N 0.79604 0.10514 0.08268 0.0
C37 C 0.80194 0.11938 0.09395 0.0
H38 H 0.78309 0.08924 0.1316 0.0
Co39 Co 0.79299 0.09405 0.02229 0.0
C40 C 0.81003 0.10964 0.93435 0.0
O41 O 0.79692 0.10737 0.90833 0.0
N42 N 0.78941 0.08184 0.96253 0.0
C43 C 0.79404 0.06602 0.89505 0.0
C44 C 0.80075 0.07446 0.93498 0.0
C45 C 0.77588 0.07718 0.93977 0.0
N46 N 0.77841 0.06776 0.89834 0.0
O47 O 0.80713 0.07773 0.05025 0.0
H48 H 0.81313 0.07512 0.94371 0.0
H49 H 0.76434 0.08029 0.95327 0.0
O50 O 0.8107 0.10549 0.98317 0.0
C51 C 0.8001 0.06544 0.06729 0.0
O52 O 0.78501 0.06401 0.05841 0.0
N53 N 0.7778 0.1094 1.00208 0.0
C54 C 0.75329 0.13157 0.99949 0.0
C55 C 0.7688 0.1359 0.98833 0.0
C56 C 0.78086 0.12476 0.99055 0.0
C57 C 0.76287 0.1051 1.01445 0.0
C58 C 0.75045 0.1158 1.01202 0.0
H59 H 0.7927 0.12892 0.98643 0.0
H60 H 0.76066 0.09342 0.02895 0.0
H61 H 0.80771 0.12681 0.06563 0.0
H62 H 0.78689 0.11074 0.20507 0.0
H63 H 0.8001 0.05868 0.86702 0.0
H64 H 0.77185 0.148 0.98081 0.0
H65 H 0.73878 0.11174 0.02142 0.0
C66 C 0.91224 0.78396 0.12639 0.0
C67 C 0.90032 0.786 0.16155 0.0
N68 N 0.88941 0.79527 0.13928 0.0
N69 N 0.90906 0.79212 0.08239 0.0
C70 C 0.89511 0.79901 0.09157 0.0
H71 H 0.92194 0.77601 0.13141 0.0
Co72 Co 0.91969 0.78902 0.02038 0.0
C73 C 0.91387 0.81818 0.95749 0.0
O74 O 0.92912 0.82006 0.95455 0.0
N75 N 0.93033 0.78502 0.95846 0.0
C76 C 0.93467 0.778 0.87584 0.0
C77 C 0.92421 0.78494 0.90955 0.0
C78 C 0.94444 0.7781 0.95352 0.0
N79 N 0.94733 0.77367 0.90383 0.0
O80 O 0.93688 0.80251 0.0472 0.0
H81 H 0.91251 0.78879 0.89953 0.0
H82 H 0.95205 0.77533 0.98604 0.0
O83 O 0.90849 0.80685 0.98521 0.0
C84 C 0.94684 0.79501 0.07565 0.0
O85 O 0.94552 0.77973 0.0788 0.0
N86 N 0.90395 0.77479 0.99974 0.0
C87 C 0.88146 0.75092 0.99335 0.0
C88 C 0.87735 0.76668 0.98457 0.0
C89 C 0.88877 0.77843 0.98768 0.0
C90 C 0.90832 0.75956 1.006 0.0
C91 C 0.89735 0.74746 1.00243 0.0
H92 H 0.88514 0.79046 0.98333 0.0
H93 H 0.92034 0.75684 1.01605 0.0
H94 H 0.88868 0.80556 0.06234 0.0
H95 H 0.8995 0.78051 0.19965 0.0
H96 H 0.93294 0.77591 0.83438 0.0
H97 H 0.86529 0.77008 0.97797 0.0
H98 H 0.90129 0.73553 1.00813 0.0
C99 C 0.23027 0.91778 0.11684 0.0
C100 C 0.22755 0.90631 0.1532 0.0
N101 N 0.21943 0.89475 0.1297 0.0
N102 N 0.22383 0.91351 0.0708 0.0
C103 C 0.21714 0.89949 0.07981 0.0
H104 H 0.23726 0.92819 0.12269 0.0
Co105 Co 0.228 0.92451 1.01103 0.0
C106 C 0.21184 0.90906 0.92091 0.0
O107 O 0.22541 0.91086 0.89746 0.0
N108 N 0.23261 0.93653 0.95161 0.0
C109 C 0.22884 0.95201 0.88267 0.0
C110 C 0.22167 0.94409 0.92274 0.0
C111 C 0.24641 0.94056 0.92944 0.0
N112 N 0.24437 0.94974 0.88712 0.0
O113 O 0.2141 0.94131 0.03667 0.0
H114 H 0.20922 0.94384 0.93042 0.0
H115 H 0.25778 0.93706 0.94369 0.0
O116 O 0.21052 0.91352 0.96925 0.0
C117 C 0.22202 0.95282 0.05546 0.0
O118 O 0.2373 0.95263 0.0494 0.0
N119 N 0.24303 0.90879 0.99344 0.0
C120 C 0.26714 0.8862 0.99649 0.0
C121 C 0.25171 0.88205 0.98308 0.0
C122 C 0.23985 0.89341 0.98239 0.0
C123 C 0.25786 0.91292 1.00776 0.0
C124 C 0.27011 0.90202 1.00806 0.0
H125 H 0.228 0.88945 0.97644 0.0
H126 H 0.26009 0.92467 0.02171 0.0
H127 H 0.21126 0.89265 0.05002 0.0
H128 H 0.23199 0.90611 0.19297 0.0
H129 H 0.22316 0.95927 0.8535 0.0
H130 H 0.24853 0.86996 0.97603 0.0
H131 H 0.28171 0.90597 0.01889 0.0
C132 C 0.10278 0.7895 0.40174 0.0
C133 C 0.11436 0.7908 0.36492 0.0
N134 N 0.12654 0.79841 0.38687 0.0
N135 N 0.10755 0.79637 0.44651 0.0
C136 C 0.122 0.80188 0.43623 0.0
H137 H 0.09181 0.78334 0.39697 0.0
Co138 Co 0.09641 0.79403 0.50723 0.0
C139 C 0.11152 0.81277 0.59249 0.0
O140 O 0.10934 0.8002 0.62125 0.0
N141 N 0.0843 0.79126 0.56749 0.0
C142 C 0.0686 0.7969 0.6343 0.0
C143 C 0.07649 0.80291 0.59207 0.0
C144 C 0.08051 0.77819 0.59446 0.0
N145 N 0.07118 0.78136 0.63559 0.0
O146 O 0.07978 0.80739 0.4768 0.0
H147 H 0.07654 0.81505 0.57996 0.0
H148 H 0.08427 0.76651 0.58433 0.0
O149 O 0.10754 0.81247 0.54344 0.0
C150 C 0.06791 0.79941 0.46104 0.0
O151 O 0.0675 0.7844 0.47233 0.0
N152 N 0.11195 0.77941 0.53012 0.0
C153 C 0.1344 0.75533 0.5345 0.0
C154 C 0.13853 0.77089 0.5453 0.0
C155 C 0.12722 0.78275 0.5424 0.0
C156 C 0.10785 0.76432 0.51886 0.0
C157 C 0.11874 0.75208 0.52204 0.0
H158 H 0.13119 0.79465 0.54651 0.0
H159 H 0.09618 0.76186 0.50447 0.0
H160 H 0.12933 0.80754 0.46513 0.0
H161 H 0.1139 0.78624 0.32538 0.0
H162 H 0.06109 0.80333 0.66085 0.0
H163 H 0.15056 0.77397 0.55414 0.0
H164 H 0.11513 0.74032 0.51173 0.0
C165 C 0.23232 0.10678 0.41213 0.0
C166 C 0.23145 0.1197 0.38062 0.0
N167 N 0.22262 0.13051 0.40506 0.0
N168 N 0.22399 0.10935 0.45609 0.0
C169 C 0.21801 0.12389 0.45055 0.0
H170 H 0.23935 0.09649 0.40479 0.0
Co171 Co 0.22604 0.09586 0.51149 0.0
C172 C 0.20842 0.1087 0.60305 0.0
O173 O 0.22088 0.10447 0.6299 0.0
N174 N 0.22869 0.08134 0.56553 0.0
C175 C 0.22323 0.0609 0.61626 0.0
C176 C 0.21698 0.07265 0.58598 0.0
C177 C 0.24194 0.07464 0.58403 0.0
N178 N 0.23892 0.06223 0.61481 0.0
O179 O 0.21188 0.08103 0.47555 0.0
H180 H 0.20469 0.07421 0.57692 0.0
H181 H 0.25362 0.07779 0.57212 0.0
O182 O 0.20832 0.10641 0.55288 0.0
C183 C 0.21985 0.07069 0.45046 0.0
O184 O 0.23514 0.07068 0.45631 0.0
N185 N 0.24139 0.10978 0.53938 0.0
C186 C 0.2662 0.13151 0.54428 0.0
C187 C 0.2509 0.13575 0.55901 0.0
C188 C 0.23869 0.12482 0.55581 0.0
C189 C 0.25618 0.1055 0.52512 0.0
C190 C 0.26875 0.11593 0.52873 0.0
H191 H 0.22696 0.12908 0.56193 0.0
H192 H 0.25809 0.09426 0.50667 0.0
H193 H 0.21133 0.12987 0.4805 0.0
H194 H 0.23716 0.12115 0.34309 0.0
H195 H 0.21682 0.05165 0.6357 0.0
H196 H 0.24806 0.14771 0.56935 0.0
H197 H 0.28023 0.11191 0.51694 0.0
C198 C 0.91408 0.22915 0.41466 0.0
C199 C 0.90161 0.2277 0.38117 0.0
N200 N 0.89002 0.22027 0.40676 0.0
N201 N 0.91044 0.22256 0.46099 0.0
C202 C 0.89576 0.21705 0.45495 0.0
H203 H 0.92487 0.2353 0.40663 0.0
Co204 Co 0.92304 0.22561 0.51825 0.0
C205 C 0.90971 0.20815 0.60952 0.0
O206 O 0.91316 0.22089 0.63607 0.0
N207 N 0.93669 0.22917 0.57439 0.0
C208 C 0.95646 0.22453 0.62903 0.0
C209 C 0.94534 0.21781 0.59739 0.0
C210 C 0.94281 0.24271 0.59269 0.0
N211 N 0.95485 0.24017 0.62575 0.0
O212 O 0.9389 0.21168 0.48618 0.0
H213 H 0.94417 0.20542 0.58936 0.0
H214 H 0.93952 0.25422 0.57922 0.0
O215 O 0.91256 0.20785 0.55969 0.0
C216 C 0.95015 0.2197 0.46624 0.0
O217 O 0.95002 0.23495 0.47305 0.0
N218 N 0.90826 0.24073 0.54256 0.0
C219 C 0.88609 0.26522 0.54607 0.0
C220 C 0.88211 0.2499 0.56128 0.0
C221 C 0.89326 0.23785 0.55883 0.0
C222 C 0.91228 0.25552 0.52754 0.0
C223 C 0.90161 0.26793 0.53034 0.0
H224 H 0.88925 0.2261 0.56598 0.0
H225 H 0.9236 0.25755 0.50989 0.0
H226 H 0.8891 0.21163 0.48605 0.0
H227 H 0.90106 0.23205 0.34137 0.0
H228 H 0.96547 0.21845 0.651 0.0
H229 H 0.87021 0.24692 0.57182 0.0
H230 H 0.90545 0.27945 0.51825 0.0
C231 C 0.78826 0.91521 0.41256 0.0
C232 C 0.78945 0.90397 0.37447 0.0
N233 N 0.79715 0.89164 0.39496 0.0
N234 N 0.79528 0.91004 0.45661 0.0
C235 C 0.80073 0.89566 0.44472 0.0
H236 H 0.78203 0.9262 0.40925 0.0
Co237 Co 0.79325 0.92115 0.51742 0.0
C238 C 0.81106 0.90482 0.60241 0.0
O239 O 0.79856 0.90773 0.63081 0.0
N240 N 0.79071 0.93341 0.5774 0.0
C241 C 0.79642 0.95173 0.6363 0.0
C242 C 0.80253 0.94085 0.60241 0.0
C243 C 0.77754 0.94 0.59676 0.0
N244 N 0.78072 0.95112 0.63256 0.0
O245 O 0.80726 0.93725 0.48743 0.0
H246 H 0.81482 0.93929 0.59361 0.0
H247 H 0.76594 0.93805 0.58133 0.0
O248 O 0.81124 0.90932 0.55391 0.0
C249 C 0.80015 0.94967 0.47161 0.0
O250 O 0.78522 0.95129 0.48284 0.0
N251 N 0.77811 0.90602 0.53975 0.0
C252 C 0.75373 0.88388 0.54229 0.0
C253 C 0.76926 0.87942 0.55205 0.0
C254 C 0.78125 0.89056 0.54994 0.0
C255 C 0.76303 0.91045 0.52948 0.0
C256 C 0.75064 0.8997 0.53186 0.0
H257 H 0.79308 0.88628 0.55253 0.0
H258 H 0.76067 0.92213 0.51523 0.0
H259 H 0.80678 0.88813 0.47223 0.0
H260 H 0.78439 0.90451 0.33556 0.0
H261 H 0.80296 0.96022 0.65904 0.0
H262 H 0.77223 0.86726 0.55912 0.0
H263 H 0.73891 0.90356 0.52205 0.0
C264 C 0.60319 0.73062 0.62647 0.0
C265 C 0.61544 0.72919 0.66084 0.0
N266 N 0.62721 0.72174 0.63614 0.0
N267 N 0.60713 0.72399 0.58047 0.0
C268 C 0.62179 0.71848 0.58755 0.0
H269 H 0.59234 0.73677 0.63376 0.0
Co270 Co 0.59473 0.72693 0.52267 0.0
C271 C 0.60821 0.70915 0.43232 0.0
O272 O 0.60498 0.72189 0.40546 0.0
N273 N 0.58127 0.73042 0.466 0.0
C274 C 0.5616 0.72583 0.41092 0.0
C275 C 0.57265 0.71908 0.44287 0.0
C276 C 0.57521 0.74397 0.44748 0.0
N277 N 0.56324 0.74146 0.41415 0.0
O278 O 0.57875 0.71315 0.5545 0.0
H279 H 0.57375 0.7067 0.45108 0.0
H280 H 0.57847 0.75548 0.46105 0.0
O281 O 0.60524 0.70898 0.48207 0.0
C282 C 0.56743 0.72123 0.57382 0.0
O283 O 0.56757 0.73647 0.56657 0.0
N284 N 0.60963 0.7419 0.49845 0.0
C285 C 0.6318 0.76631 0.49373 0.0
C286 C 0.63578 0.75092 0.47928 0.0
C287 C 0.62464 0.7389 0.48244 0.0
C288 C 0.60563 0.75675 0.51297 0.0
C289 C 0.61631 0.76912 0.50963 0.0
H290 H 0.62864 0.7271 0.47588 0.0
H291 H 0.59432 0.75888 0.53053 0.0
H292 H 0.62863 0.71301 0.55698 0.0
H293 H 0.6157 0.73353 0.7007 0.0
H294 H 0.55261 0.71977 0.38884 0.0
H295 H 0.64768 0.74789 0.46872 0.0
H296 H 0.6125 0.7807 0.5213 0.0
C297 C 0.2853 0.60332 0.62131 0.0
C298 C 0.28679 0.61525 0.65673 0.0
N299 N 0.29583 0.62641 0.63512 0.0
N300 N 0.29344 0.60685 0.57775 0.0
C301 C 0.29992 0.62096 0.58737 0.0
H302 H 0.27797 0.59311 0.62585 0.0
Co303 Co 0.29078 0.595 0.51863 0.0
C304 C 0.30848 0.60961 0.43032 0.0
O305 O 0.29561 0.60694 0.40335 0.0
N306 N 0.28753 0.58212 0.46033 0.0
C307 C 0.29245 0.56565 0.39485 0.0
C308 C 0.29896 0.57429 0.4347 0.0
C309 C 0.27412 0.57754 0.4366 0.0
N310 N 0.27684 0.56774 0.39635 0.0
O311 O 0.30464 0.57889 0.54942 0.0
H312 H 0.31129 0.57486 0.44445 0.0
H313 H 0.26253 0.5811 0.44826 0.0
O314 O 0.30877 0.60595 0.47959 0.0
C315 C 0.29673 0.56807 0.57221 0.0
O316 O 0.28142 0.56825 0.56688 0.0
N317 N 0.27581 0.61017 0.49551 0.0
C318 C 0.2516 0.63264 0.49143 0.0
C319 C 0.26717 0.6367 0.48 0.0
C320 C 0.27907 0.62542 0.48296 0.0
C321 C 0.26081 0.60612 0.50773 0.0
C322 C 0.24853 0.61696 0.50457 0.0
H323 H 0.29096 0.62943 0.47903 0.0
H324 H 0.25843 0.59456 0.52304 0.0
H325 H 0.30659 0.62753 0.55888 0.0
H326 H 0.28133 0.61584 0.69493 0.0
H327 H 0.29862 0.55805 0.36788 0.0
H328 H 0.27039 0.64872 0.47197 0.0
H329 H 0.2368 0.61311 0.51413 0.0
C330 C 0.40811 0.28335 0.61506 0.0
C331 C 0.39476 0.28501 0.6441 0.0
N332 N 0.38528 0.29517 0.61908 0.0
N333 N 0.40711 0.29247 0.57211 0.0
C334 C 0.39311 0.29971 0.57578 0.0
H335 H 0.41759 0.27532 0.62331 0.0
Co336 Co 0.4213 0.29024 0.51886 0.0
C337 C 0.40988 0.30853 0.42632 0.0
O338 O 0.41436 0.29623 0.3992 0.0
N339 N 0.43644 0.28745 0.46701 0.0
C340 C 0.45759 0.29287 0.41974 0.0
C341 C 0.44545 0.29914 0.448 0.0
C342 C 0.44339 0.27418 0.44982 0.0
N343 N 0.45624 0.27719 0.42113 0.0
O344 O 0.43608 0.30388 0.55743 0.0
H345 H 0.44381 0.31143 0.45679 0.0
H346 H 0.44006 0.26251 0.46139 0.0
O347 O 0.41166 0.30833 0.47671 0.0
C348 C 0.44541 0.29535 0.58484 0.0
O349 O 0.44444 0.28007 0.57949 0.0
N350 N 0.40734 0.27538 0.48828 0.0
C351 C 0.38481 0.25153 0.48039 0.0
C352 C 0.38117 0.26697 0.46624 0.0
C353 C 0.39251 0.27873 0.47085 0.0
C354 C 0.41101 0.26035 0.50191 0.0
C355 C 0.4001 0.24821 0.49702 0.0
H356 H 0.38868 0.29063 0.46515 0.0
H357 H 0.42198 0.25795 0.52154 0.0
H358 H 0.38834 0.30734 0.54587 0.0
H359 H 0.39211 0.279 0.68036 0.0
H360 H 0.46711 0.29927 0.40174 0.0
H361 H 0.36938 0.2701 0.45435 0.0
H362 H 0.40324 0.23657 0.51024 0.0
C363 C 0.73002 0.41027 0.62373 0.0
C364 C 0.72839 0.39764 0.65632 0.0
N365 N 0.72021 0.38655 0.63059 0.0
N366 N 0.72282 0.40722 0.57787 0.0
C367 C 0.71677 0.39274 0.58325 0.0
H368 H 0.73663 0.42078 0.63202 0.0
Co369 Co 0.72556 0.42021 0.52167 0.0
C370 C 0.70766 0.40743 0.43025 0.0
O371 O 0.72026 0.41105 0.40336 0.0
N372 N 0.72881 0.43424 0.46657 0.0
C373 C 0.72379 0.45451 0.41452 0.0
C374 C 0.71728 0.44289 0.44444 0.0
C375 C 0.74223 0.44089 0.44951 0.0
N376 N 0.73945 0.4532 0.41794 0.0
O377 O 0.71176 0.43579 0.55577 0.0
H378 H 0.70493 0.44147 0.45244 0.0
H379 H 0.75377 0.43788 0.46352 0.0
O380 O 0.7076 0.41001 0.48027 0.0
C381 C 0.71969 0.44699 0.57659 0.0
O382 O 0.73492 0.44715 0.56931 0.0
N383 N 0.74052 0.40557 0.49531 0.0
C384 C 0.7646 0.38316 0.48954 0.0
C385 C 0.7492 0.37933 0.47533 0.0
C386 C 0.73733 0.39062 0.47886 0.0
C387 C 0.75548 0.40939 0.50941 0.0
C388 C 0.76773 0.39854 0.5056 0.0
H389 H 0.72549 0.38675 0.47244 0.0
H390 H 0.75775 0.42056 0.52782 0.0
H391 H 0.71072 0.38656 0.55223 0.0
H392 H 0.73305 0.39665 0.69566 0.0
H393 H 0.71756 0.46379 0.3944 0.0
H394 H 0.74622 0.36749 0.46377 0.0
H395 H 0.77934 0.40184 0.51874 0.0
C396 C 0.59865 0.28652 0.91443 0.0
C397 C 0.60935 0.28902 0.87547 0.0
N398 N 0.62147 0.297 0.89609 0.0
N399 N 0.60392 0.29299 0.95926 0.0
C400 C 0.61785 0.29942 0.94694 0.0
H401 H 0.58803 0.27972 0.91101 0.0
Co402 Co 0.59361 0.28934 0.0208 0.0
C403 C 0.60925 0.307 0.10742 0.0
O404 O 0.60788 0.29377 0.13335 0.0
N405 N 0.5822 0.28516 0.08184 0.0
C406 C 0.56698 0.2892 0.15113 0.0
C407 C 0.57463 0.29619 0.11015 0.0
C408 C 0.57843 0.27146 0.10524 0.0
N409 N 0.5694 0.27366 0.14779 0.0
O410 O 0.57629 0.30265 0.99489 0.0
H411 H 0.57463 0.30858 0.10128 0.0
H412 H 0.58189 0.26004 0.09143 0.0
O413 O 0.60458 0.30754 0.05907 0.0
C414 C 0.56464 0.29447 0.97841 0.0
O415 O 0.56493 0.27929 0.98687 0.0
N416 N 0.60987 0.27489 0.03914 0.0
C417 C 0.63305 0.25146 0.0401 0.0
C418 C 0.63686 0.26713 0.05048 0.0
C419 C 0.62519 0.27867 0.04917 0.0
C420 C 0.60612 0.25975 0.02738 0.0
C421 C 0.61738 0.24782 0.029 0.0
H422 H 0.62883 0.29068 0.05317 0.0
H423 H 0.59442 0.257 1.01389 0.0
H424 H 0.62539 0.30528 0.97485 0.0
H425 H 0.60865 0.28458 0.83579 0.0
H426 H 0.55971 0.29498 0.17999 0.0
H427 H 0.64887 0.27054 0.05809 0.0
H428 H 0.614 0.23598 0.01875 0.0
C429 C 0.72757 0.60033 0.91819 0.0
C430 C 0.72508 0.61166 0.88123 0.0
N431 N 0.71606 0.62287 0.90272 0.0
N432 N 0.72002 0.60426 0.96259 0.0
C433 C 0.71304 0.61809 0.95212 0.0
H434 H 0.73518 0.59029 0.91399 0.0
Co435 Co 0.7234 0.59285 0.02222 0.0
C436 C 0.70594 0.60756 0.11105 0.0
O437 O 0.71901 0.60527 0.13729 0.0
N438 N 0.72736 0.58037 0.08102 0.0
C439 C 0.72323 0.56413 0.14766 0.0
C440 C 0.71627 0.5725 0.10798 0.0
C441 C 0.74103 0.57609 0.10378 0.0
N442 N 0.73878 0.56643 0.14473 0.0
O443 O 0.70976 0.57627 0.99335 0.0
H444 H 0.70387 0.57282 0.09921 0.0
H445 H 0.75246 0.57972 0.09082 0.0
O446 O 0.70541 0.60363 0.062 0.0
C447 C 0.71772 0.56539 0.97095 0.0
O448 O 0.73304 0.56573 0.97575 0.0
N449 N 0.73808 0.6085 0.04334 0.0
C450 C 0.76156 0.63156 0.04474 0.0
C451 C 0.74597 0.63534 0.05657 0.0
C452 C 0.73441 0.62374 0.05495 0.0
C453 C 0.75315 0.60476 0.03062 0.0
C454 C 0.76511 0.61596 0.03239 0.0
H455 H 0.72243 0.62746 0.05936 0.0
H456 H 0.75578 0.5932 1.01566 0.0
H457 H 0.70643 0.62477 0.98054 0.0
H458 H 0.73027 0.61206 0.84257 0.0
H459 H 0.71739 0.55655 0.17545 0.0
H460 H 0.74262 0.64731 0.06514 0.0
H461 H 0.77687 0.61262 0.02097 0.0
C462 C 0.40926 0.73277 0.92343 0.0
C463 C 0.39604 0.73102 0.89363 0.0
N464 N 0.38638 0.72112 0.91879 0.0
N465 N 0.40801 0.72396 0.96699 0.0
C466 C 0.39398 0.71682 0.96297 0.0
H467 H 0.41884 0.74065 0.91519 0.0
Co468 Co 0.42199 0.72643 0.02088 0.0
C469 C 0.41042 0.70829 0.1134 0.0
O470 O 0.41478 0.72061 0.14064 0.0
N471 N 0.43694 0.7295 0.0733 0.0
C472 C 0.45785 0.72451 0.12259 0.0
C473 C 0.44596 0.71798 0.09364 0.0
C474 C 0.44365 0.74291 0.09016 0.0
N475 N 0.45637 0.74018 0.12005 0.0
O476 O 0.43693 0.71265 0.98393 0.0
H477 H 0.44445 0.70563 0.08569 0.0
H478 H 0.44018 0.75449 0.07793 0.0
O479 O 0.41232 0.70846 0.0631 0.0
C480 C 0.44644 0.72099 0.95677 0.0
O481 O 0.44548 0.7363 0.96098 0.0
N482 N 0.40785 0.74136 0.05015 0.0
C483 C 0.38537 0.7653 0.05862 0.0
C484 C 0.38177 0.74987 0.07285 0.0
C485 C 0.39307 0.73806 0.06787 0.0
C486 C 0.41145 0.75636 0.03602 0.0
C487 C 0.40057 0.76854 0.04121 0.0
H488 H 0.38928 0.72618 0.07384 0.0
H489 H 0.42236 0.75871 1.01618 0.0
H490 H 0.38901 0.70944 0.99312 0.0
H491 H 0.39361 0.73678 0.85671 0.0
H492 H 0.46717 0.71825 0.14242 0.0
H493 H 0.37004 0.74679 0.0853 0.0
H494 H 0.40368 0.78017 0.02784 0.0
C495 C 0.28558 0.41334 0.91249 0.0
C496 C 0.28668 0.40131 0.87726 0.0
N497 N 0.29503 0.38971 0.89963 0.0
N498 N 0.29325 0.4094 0.95674 0.0
C499 C 0.29911 0.39498 0.94768 0.0
H500 H 0.27893 0.42401 0.90724 0.0
Co501 Co 0.29091 0.42157 1.01514 0.0
C502 C 0.3086 0.40727 0.10416 0.0
O503 O 0.29586 0.41047 0.13094 0.0
N504 N 0.28801 0.43489 0.07255 0.0
C505 C 0.29346 0.45435 0.12751 0.0
C506 C 0.29972 0.44295 0.09593 0.0
C507 C 0.27475 0.44164 0.09056 0.0
N508 N 0.27778 0.45347 0.12389 0.0
O509 O 0.30477 0.43743 0.98289 0.0
H510 H 0.31204 0.44138 0.08757 0.0
H511 H 0.26315 0.43918 0.07592 0.0
O512 O 0.30887 0.41057 0.0546 0.0
C513 C 0.29682 0.44892 0.96401 0.0
O514 O 0.28164 0.44916 0.97243 0.0
N515 N 0.27583 0.4068 0.0396 0.0
C516 C 0.25127 0.38476 0.04342 0.0
C517 C 0.26676 0.38046 0.05556 0.0
C518 C 0.27884 0.39154 0.05287 0.0
C519 C 0.26088 0.41111 0.02732 0.0
C520 C 0.24844 0.4005 0.0304 0.0
H521 H 0.29067 0.38734 0.05734 0.0
H522 H 0.25868 0.4226 1.01112 0.0
H523 H 0.30537 0.38813 0.97661 0.0
H524 H 0.28149 0.401 0.83852 0.0
H525 H 0.29989 0.46327 0.1487 0.0
H526 H 0.26981 0.3684 0.06375 0.0
H527 H 0.2368 0.40457 0.02047 0.0
C528 C 0.14228 0.29175 0.96976 0.0
C529 C 0.14487 0.27663 0.98964 0.0
C530 C 0.15374 0.30342 0.97505 0.0
C531 C 0.1962 0.30927 1.00999 0.0
H532 H 0.18321 0.35255 0.0256 0.0
C533 C 0.23864 0.35927 0.07216 0.0
C534 C 0.23849 0.3727 0.04002 0.0
C535 C 0.22717 0.34762 0.0667 0.0
C536 C 0.18701 0.34051 0.0211 0.0
H537 H 0.16135 0.26198 0.0318 0.0
H538 H 0.18102 0.28232 0.04286 0.0
H539 H 0.16348 0.33218 1.01473 0.0
H540 H 0.22584 0.38406 0.97636 0.0
H541 H 0.2056 0.36417 0.96887 0.0
H542 H 0.21975 0.31772 0.01819 0.0
C543 C 0.17046 0.28516 0.02131 0.0
C544 C 0.17569 0.32879 1.01443 0.0
C545 C 0.15913 0.27345 1.01516 0.0
C546 C 0.22628 0.3742 1.00296 0.0
C547 C 0.21467 0.3627 0.99823 0.0
C548 C 0.20748 0.32097 1.01762 0.0
C549 C 0.16798 0.30037 1.00136 0.0
C550 C 0.18009 0.31295 1.00852 0.0
C551 C 0.21507 0.34921 0.02964 0.0
C552 C 0.20302 0.33673 0.02301 0.0
H553 H 0.13142 0.29452 0.94974 0.0
H554 H 0.15141 0.31481 0.95811 0.0
H555 H 0.2002 0.29735 1.0045 0.0
H556 H 0.24761 0.35771 0.10178 0.0
H557 H 0.22769 0.33742 0.09185 0.0
C558 C 0.65939 0.24199 1.0092 0.0
C559 C 0.64548 0.23919 0.03702 0.0
C560 C 0.67086 0.23033 1.0046 0.0
C561 C 0.67703 0.18708 0.0208 0.0
H562 H 0.72087 0.19872 1.01361 0.0
C563 C 0.7281 0.14225 0.03798 0.0
C564 C 0.74044 0.14359 1.00159 0.0
C565 C 0.71637 0.1537 0.04112 0.0
C566 C 0.70866 0.19529 1.01514 0.0
H567 H 0.63285 0.22198 0.08259 0.0
H568 H 0.65303 0.20181 0.0764 0.0
H569 H 0.70099 0.21901 0.02327 0.0
H570 H 0.74968 0.15822 0.93927 0.0
H571 H 0.7295 0.17837 0.94608 0.0
H572 H 0.68491 0.16327 1.01425 0.0
C573 C 0.65497 0.21285 0.05664 0.0
C574 C 0.6972 0.20694 0.02048 0.0
C575 C 0.64339 0.22446 0.06056 0.0
C576 C 0.74061 0.1568 0.96844 0.0
C577 C 0.72898 0.16837 0.97216 0.0
C578 C 0.68853 0.17542 1.01623 0.0
C579 C 0.66887 0.21555 0.0283 0.0
C580 C 0.68117 0.20305 0.02322 0.0
C581 C 0.71673 0.16697 1.00857 0.0
C582 C 0.70448 0.17938 1.01316 0.0
H583 H 0.66125 0.25312 0.98982 0.0
H584 H 0.68117 0.23286 0.98149 0.0
H585 H 0.66487 0.18352 0.02164 0.0
H586 H 0.72764 0.13253 0.06516 0.0
H587 H 0.7072 0.15236 0.07004 0.0
C588 C 0.77057 0.65803 1.0139 0.0
C589 C 0.77374 0.64401 0.0408 0.0
C590 C 0.78216 0.6695 1.00811 0.0
C591 C 0.82554 0.67535 1.01746 0.0
H592 H 0.81406 0.71931 1.01501 0.0
C593 C 0.87096 0.72566 0.0311 0.0
C594 C 0.86923 0.73833 0.99612 0.0
C595 C 0.85942 0.71409 0.03505 0.0
C596 C 0.81743 0.70707 1.01515 0.0
H597 H 0.79153 0.63117 0.08351 0.0
H598 H 0.81161 0.65133 0.07515 0.0
H599 H 0.79383 0.6995 0.02685 0.0
H600 H 0.85377 0.74843 0.9374 0.0
H601 H 0.83347 0.72846 0.94561 0.0
H602 H 0.84924 0.68308 1.00726 0.0
C603 C 0.8003 0.65336 0.05709 0.0
C604 C 0.80582 0.69566 0.02178 0.0
C605 C 0.78876 0.6418 0.06225 0.0
C606 C 0.85551 0.73905 0.96535 0.0
C607 C 0.84386 0.72756 0.96989 0.0
C608 C 0.83717 0.68678 1.01155 0.0
C609 C 0.79723 0.66736 0.02959 0.0
C610 C 0.80967 0.6796 0.02296 0.0
C611 C 0.84568 0.71494 1.00478 0.0
C612 C 0.83326 0.70278 1.01023 0.0
H613 H 0.7592 0.65999 0.99607 0.0
H614 H 0.77934 0.6799 0.98574 0.0
H615 H 0.82903 0.66316 1.01699 0.0
H616 H 0.88108 0.7248 0.05656 0.0
H617 H 0.86109 0.70464 0.06286 0.0
C618 C 0.37552 0.79262 0.07652 0.0
C619 C 0.37295 0.77756 0.0561 0.0
C620 C 0.36406 0.80432 0.07159 0.0
C621 C 0.32165 0.81039 0.03628 0.0
H622 H 0.33478 0.85358 0.02042 0.0
C623 C 0.27966 0.86038 0.97052 0.0
C624 C 0.27973 0.87399 1.00187 0.0
C625 C 0.29102 0.84867 0.97733 0.0
C626 C 0.33094 0.84158 0.02505 0.0
H627 H 0.35648 0.76304 1.01351 0.0
H628 H 0.3368 0.78342 1.00314 0.0
H629 H 0.35444 0.83314 0.03206 0.0
H630 H 0.29209 0.88559 0.06562 0.0
H631 H 0.31216 0.86555 0.07552 0.0
H632 H 0.29814 0.81894 0.02734 0.0
C633 C 0.34735 0.7862 0.0248 0.0
C634 C 0.34221 0.82981 0.03213 0.0
C635 C 0.35869 0.77446 0.03057 0.0
C636 C 0.29172 0.87558 0.03965 0.0
C637 C 0.30323 0.864 0.04574 0.0
C638 C 0.31041 0.82213 0.02825 0.0
C639 C 0.34983 0.80135 0.04514 0.0
C640 C 0.33776 0.814 0.03801 0.0
C641 C 0.30294 0.85036 1.01499 0.0
C642 C 0.31492 0.83786 0.0227 0.0
H643 H 0.38638 0.79533 0.09657 0.0
H644 H 0.36638 0.81567 0.08883 0.0
H645 H 0.31761 0.79849 0.04176 0.0
H646 H 0.27087 0.85875 0.94037 0.0
H647 H 0.29059 0.83835 0.95264 0.0
C648 C 0.16057 0.74529 0.50432 0.0
C649 C 0.14656 0.74279 0.53187 0.0
C650 C 0.17174 0.73334 0.49963 0.0
C651 C 0.17671 0.68991 0.51479 0.0
H652 H 0.22084 0.70038 0.50726 0.0
C653 C 0.22671 0.64382 0.5304 0.0
C654 C 0.23897 0.64489 0.4936 0.0
C655 C 0.21525 0.65554 0.53389 0.0
C656 C 0.20854 0.69728 0.50889 0.0
H657 H 0.13341 0.72584 0.57691 0.0
H658 H 0.1531 0.70517 0.57068 0.0
H659 H 0.20153 0.72118 0.51787 0.0
H660 H 0.24834 0.65928 0.4309 0.0
H661 H 0.22865 0.67989 0.43839 0.0
H662 H 0.18394 0.66592 0.50747 0.0
C663 C 0.15534 0.7162 0.55117 0.0
C664 C 0.19741 0.70922 0.51478 0.0
C665 C 0.14405 0.72809 0.55515 0.0
C666 C 0.23932 0.65807 0.46036 0.0
C667 C 0.22798 0.66991 0.46447 0.0
C668 C 0.18788 0.67796 0.50972 0.0
C669 C 0.16934 0.71858 0.52301 0.0
C670 C 0.18128 0.70576 0.5176 0.0
C671 C 0.21583 0.66879 0.50135 0.0
C672 C 0.20393 0.6815 0.50649 0.0
H673 H 0.16273 0.75639 0.48512 0.0
H674 H 0.18213 0.73564 0.47664 0.0
H675 H 0.16446 0.68668 0.51568 0.0
H676 H 0.22612 0.63414 0.55768 0.0
H677 H 0.20614 0.65442 0.56315 0.0
C678 C 0.35841 0.24257 0.5112 0.0
C679 C 0.37235 0.23939 0.484 0.0
C680 C 0.34708 0.23092 0.51808 0.0
C681 C 0.34156 0.18735 0.51004 0.0
H682 H 0.29763 0.19857 0.52001 0.0
C683 C 0.29063 0.14233 0.50142 0.0
C684 C 0.27899 0.14353 0.54042 0.0
C685 C 0.30221 0.15382 0.49617 0.0
C686 C 0.30987 0.19528 0.5177 0.0
H687 H 0.38521 0.22157 0.44178 0.0
H688 H 0.36516 0.2014 0.45134 0.0
H689 H 0.31708 0.21892 0.50473 0.0
H690 H 0.27084 0.15801 0.60494 0.0
H691 H 0.2907 0.17832 0.5941 0.0
H692 H 0.33409 0.16358 0.52098 0.0
C693 C 0.36312 0.21274 0.46906 0.0
C694 C 0.32109 0.20697 0.50916 0.0
C695 C 0.37459 0.22434 0.46306 0.0
C696 C 0.27936 0.15668 0.5739 0.0
C697 C 0.2908 0.16833 0.56791 0.0
C698 C 0.33029 0.17565 0.51759 0.0
C699 C 0.34922 0.21578 0.4972 0.0
C700 C 0.33715 0.20322 0.50539 0.0
C701 C 0.30234 0.16702 0.52896 0.0
C702 C 0.31433 0.17949 0.52172 0.0
H703 H 0.35648 0.25398 0.52868 0.0
H704 H 0.3368 0.23375 0.54098 0.0
H705 H 0.35375 0.18391 0.50861 0.0
H706 H 0.29063 0.13273 0.47372 0.0
H707 H 0.31083 0.15258 0.46535 0.0
C708 C 0.77403 0.35681 0.51986 0.0
C709 C 0.77695 0.37086 0.49295 0.0
C710 C 0.78584 0.34555 0.52599 0.0
C711 C 0.82943 0.34032 0.51564 0.0
H712 H 0.8186 0.2963 0.52469 0.0
C713 C 0.87484 0.28963 0.50375 0.0
C714 C 0.87389 0.2779 0.54257 0.0
C715 C 0.86323 0.30115 0.49912 0.0
C716 C 0.82179 0.30857 0.52261 0.0
H717 H 0.79446 0.38399 0.45047 0.0
H718 H 0.81489 0.36411 0.45874 0.0
H719 H 0.79802 0.31569 0.51114 0.0
H720 H 0.85974 0.26954 0.60748 0.0
H721 H 0.83922 0.28928 0.59769 0.0
H722 H 0.85332 0.33293 0.52506 0.0
C723 C 0.80365 0.3619 0.47685 0.0
C724 C 0.80997 0.31976 0.51508 0.0
C725 C 0.7919 0.3733 0.4716 0.0
C726 C 0.86087 0.27812 0.5765 0.0
C727 C 0.8491 0.28949 0.57114 0.0
C728 C 0.84126 0.32908 0.52216 0.0
C729 C 0.80087 0.34788 0.50458 0.0
C730 C 0.81357 0.33585 0.5117 0.0
C731 C 0.85016 0.30114 0.53238 0.0
C732 C 0.83757 0.31309 0.52596 0.0
H733 H 0.76271 0.35471 0.53759 0.0
H734 H 0.78321 0.33517 0.54864 0.0
H735 H 0.83278 0.35253 0.51446 0.0
H736 H 0.88435 0.28976 0.47577 0.0
H737 H 0.86428 0.30986 0.46845 0.0
C738 C 0.74351 0.85824 0.50815 0.0
C739 C 0.74112 0.87187 0.53801 0.0
C740 C 0.7316 0.8471 0.50253 0.0
C741 C 0.68835 0.84152 0.52053 0.0
H742 H 0.69932 0.79764 0.50612 0.0
C743 C 0.64321 0.79079 0.53485 0.0
C744 C 0.64397 0.779 0.49618 0.0
C745 C 0.6548 0.80235 0.53844 0.0
C746 C 0.69608 0.80987 0.50967 0.0
H747 H 0.72438 0.88442 0.58583 0.0
H748 H 0.70377 0.86474 0.57798 0.0
H749 H 0.71994 0.81706 0.51745 0.0
H750 H 0.65771 0.77052 0.43043 0.0
H751 H 0.67815 0.79037 0.4381 0.0
H752 H 0.6644 0.83408 0.51453 0.0
C753 C 0.71468 0.86279 0.55747 0.0
C754 C 0.70792 0.82107 0.51596 0.0
C755 C 0.72654 0.87407 0.56237 0.0
C756 C 0.65675 0.77918 0.46128 0.0
C757 C 0.66848 0.79061 0.46548 0.0
C758 C 0.6765 0.83027 0.51508 0.0
C759 C 0.71699 0.84913 0.52725 0.0
C760 C 0.70427 0.83711 0.52128 0.0
C761 C 0.66764 0.80232 0.50413 0.0
C762 C 0.68023 0.81432 0.50939 0.0
H763 H 0.75451 0.85634 0.48804 0.0
H764 H 0.73382 0.83702 0.47789 0.0
H765 H 0.68496 0.85371 0.52339 0.0
H766 H 0.63388 0.79095 0.56347 0.0
H767 H 0.65392 0.81109 0.56908 0.0
C768 C 0.96037 0.20254 0.39216 0.0
C769 C 0.96312 0.21297 0.43394 0.0
C770 C 0.97225 0.19933 0.35506 0.0
C771 C 0.01569 0.20322 0.33249 0.0
H772 H 1.00485 0.2051 0.18504 0.0
C773 C 0.06142 0.21905 0.1748 0.0
C774 C 0.06059 0.21263 0.12412 0.0
C775 C 0.04994 0.21583 0.21247 0.0
C776 C 1.00813 0.20427 0.22597 0.0
H777 H 0.98067 0.22774 0.47014 0.0
H778 H 1.00121 0.22195 0.40729 0.0
H779 H 0.9841 0.20511 0.25119 0.0
H780 H 0.04686 0.1977 0.07331 0.0
H781 H 0.02666 0.19188 0.13949 0.0
H782 H 0.03965 0.20269 0.30773 0.0
C783 C 0.99003 0.21615 0.40262 0.0
C784 C 0.99617 0.20428 0.2641 0.0
C785 C 0.97818 0.21949 0.43892 0.0
C786 C 0.04805 0.20252 0.11238 0.0
C787 C 0.03635 0.19941 0.15017 0.0
C788 C 0.0276 0.2032 0.29455 0.0
C789 C 0.98723 0.2063 0.3593 0.0
C790 C 0.99976 0.20416 0.31811 0.0
C791 C 0.037 0.20621 0.20072 0.0
C792 C 0.02408 0.20413 0.24061 0.0
H793 H 0.94882 0.19758 0.38648 0.0
H794 H 0.96962 0.19161 0.32253 0.0
H795 H 0.01903 0.20275 0.37343 0.0
H796 H 0.07074 0.22713 0.18482 0.0
H797 H 0.05087 0.22155 0.25022 0.0
C798 C 0.80446 0.97738 0.44284 0.0
C799 C 0.80715 0.96129 0.43467 0.0
C800 C 0.80738 0.98842 0.40316 0.0
C801 C 0.80689 0.99207 0.25993 0.0
H802 H 0.82642 0.03243 0.28304 0.0
C803 C 0.80787 0.03807 0.09184 0.0
C804 C 0.80741 0.05408 0.10451 0.0
C805 C 0.81068 0.02665 0.13055 0.0
C806 C 0.82067 0.02136 0.2756 0.0
H807 H 0.81501 0.94423 0.37778 0.0
H808 H 0.81988 0.96348 0.30788 0.0
H809 H 0.82606 0.01307 0.35326 0.0
H810 H 0.80932 0.0706 0.16834 0.0
H811 H 0.81366 0.05094 0.23608 0.0
H812 H 0.80059 1.00042 0.18385 0.0
C813 C 0.81579 0.96759 0.34562 0.0
C814 C 0.82061 0.01014 0.31615 0.0
C815 C 0.81323 0.95656 0.38594 0.0
C816 C 0.81015 0.0584 0.15688 0.0
C817 C 0.81258 0.04697 0.19598 0.0
C818 C 0.80664 1.00338 0.21977 0.0
C819 C 0.81263 0.98367 0.35334 0.0
C820 C 0.81368 0.99533 0.30903 0.0
C821 C 0.81253 0.03078 0.18392 0.0
C822 C 0.81348 0.01834 0.22664 0.0
H823 H 0.79944 0.98138 0.47946 0.0
H824 H 0.80467 1.00061 0.4106 0.0
H825 H 0.8012 0.98092 0.2531 0.0
H826 H 0.80547 0.03431 0.05206 0.0
H827 H 0.81098 0.01452 0.11838 0.0
C828 C 0.03983 0.8003 0.43315 0.0
C829 C 0.05525 0.80572 0.42624 0.0
C830 C 0.02817 0.80309 0.39538 0.0
C831 C 0.02272 0.80992 0.2531 0.0
H832 H 0.97967 0.81767 0.2934 0.0
C833 C 0.97169 0.80998 0.09791 0.0
C834 C 0.95772 0.80268 0.11372 0.0
C835 C 0.98359 0.81346 0.13485 0.0
C836 C 0.99158 0.81534 0.28111 0.0
H837 H 0.07043 0.81843 0.37352 0.0
H838 H 0.05002 0.8233 0.30693 0.0
H839 H 1.00023 0.81804 0.35963 0.0
H840 H 0.94533 0.79341 0.18066 0.0
H841 H 0.96561 0.79946 0.24433 0.0
H842 H 0.01398 0.80668 0.17478 0.0
C843 C 0.04693 0.81698 0.34219 0.0
C844 C 1.00345 0.81561 0.3194 0.0
C845 C 0.0586 0.81441 0.38075 0.0
C846 C 0.95576 0.79941 0.16731 0.0
C847 C 0.96751 0.8029 0.20402 0.0
C848 C 0.01078 0.80952 0.2147 0.0
C849 C 0.03156 0.81114 0.34861 0.0
C850 C 0.0192 0.81261 0.30634 0.0
C851 C 0.98182 0.80969 0.18856 0.0
C852 C 0.99492 0.81189 0.22818 0.0
H853 H 0.03688 0.79334 0.46723 0.0
H854 H 0.01663 0.79822 0.40184 0.0
H855 H 0.03464 0.80743 0.24132 0.0
H856 H 0.97376 0.81226 0.05675 0.0
H857 H 0.99431 0.8188 0.12106 0.0
C858 C 0.20355 0.04774 0.418 0.0
C859 C 0.21328 0.06067 0.40778 0.0
C860 C 0.20064 0.03639 0.37873 0.0
C861 C 0.20483 0.02907 0.23325 0.0
H862 H 0.20686 0.98526 0.27234 0.0
C863 C 0.22187 0.9807 0.08517 0.0
C864 C 0.21522 0.96566 0.08828 0.0
C865 C 0.2184 0.9923 0.12233 0.0
C866 C 0.206 0.99741 0.2606 0.0
H867 H 0.2274 0.07184 0.34836 0.0
H868 H 0.22226 0.05253 0.28051 0.0
H869 H 0.20652 1.00544 0.3405 0.0
H870 H 0.19948 0.95113 0.13339 0.0
H871 H 0.19333 0.97147 0.19883 0.0
H872 H 0.20475 0.02113 0.1535 0.0
C873 C 0.2166 0.05105 0.3181 0.0
C874 C 0.2058 0.00906 0.2999 0.0
C875 C 0.21956 0.06222 0.35718 0.0
C876 C 0.20455 0.96268 0.12908 0.0
C877 C 0.20123 0.97429 0.16707 0.0
C878 C 0.20509 0.01747 0.19413 0.0
C879 C 0.20735 0.03773 0.32825 0.0
C880 C 0.20559 0.02513 0.28689 0.0
C881 C 0.20832 0.98924 0.16471 0.0
C882 C 0.20604 1.00144 0.20698 0.0
H883 H 0.19886 0.04599 0.45696 0.0
H884 H 0.19338 0.02641 0.38826 0.0
H885 H 0.20426 0.04122 0.22121 0.0
H886 H 0.23031 0.98335 0.05479 0.0
H887 H 0.22429 1.00348 0.11913 0.0
C888 C 0.05778 0.75626 0.65098 0.0
C889 C 0.0639 0.77039 0.67032 0.0
C890 C 0.04789 0.74718 0.68221 0.0
C891 C 0.03036 0.74384 0.81516 0.0
H892 H 0.99114 0.74669 0.73895 0.0
C893 C 0.95932 0.75394 0.84579 0.0
C894 C 0.96078 0.76522 0.88552 0.0
C895 C 0.9726 0.74647 0.82583 0.0
C896 C 1.0019 0.74524 0.761 0.0
H897 H 0.06613 0.78525 0.73855 0.0
H898 H 0.04891 0.76951 0.79323 0.0
H899 H 0.01553 0.74694 0.69136 0.0
H900 H 0.977 0.77708 0.93724 0.0
H901 H 1.00021 0.76473 0.90114 0.0
H902 H 0.01665 0.74304 0.88516 0.0
C903 C 0.05165 0.76536 0.75417 0.0
C904 C 0.01596 0.74537 0.73348 0.0
C905 C 0.06132 0.7745 0.72277 0.0
C906 C 0.9756 0.7684 0.90665 0.0
C907 C 0.98889 0.76114 0.88624 0.0
C908 C 0.01625 0.7435 0.84276 0.0
C909 C 0.04421 0.75205 0.73334 0.0
C910 C 0.03029 0.74578 0.76053 0.0
C911 C 0.9876 0.75038 0.84463 0.0
C912 C 1.00191 0.74535 0.81612 0.0
H913 H 0.05964 0.75287 0.61057 0.0
H914 H 0.0423 0.73697 0.66531 0.0
H915 H 0.04129 0.7439 0.83683 0.0
H916 H 0.94794 0.75102 0.82979 0.0
H917 H 0.97115 0.73804 0.79449 0.0
C918 C 0.25386 0.95816 0.80124 0.0
C919 C 0.2562 0.95686 0.85535 0.0
C920 C 0.26362 0.9676 0.77125 0.0
C921 C 0.28143 1.00466 0.79046 0.0
H922 H 0.28347 1.00114 0.6392 0.0
C923 C 0.26375 0.0559 0.6596 0.0
C924 C 0.2501 0.05102 0.63348 0.0
C925 C 0.27408 0.0448 0.68069 0.0
C926 C 0.28345 1.00236 0.68148 0.0
H927 H 0.27129 0.96315 0.92028 0.0
H928 H 0.2883 0.98016 0.86782 0.0
H929 H 0.28591 0.97766 0.6931 0.0
H930 H 0.23704 0.03106 0.60505 0.0
H931 H 0.255 0.01168 0.6412 0.0
H932 H 0.27739 0.0291 0.77861 0.0
C933 C 0.27899 0.97375 0.84852 0.0
C934 C 0.28483 0.98893 0.71233 0.0
C935 C 0.26929 0.96406 0.87847 0.0
C936 C 0.24738 0.03502 0.62585 0.0
C937 C 0.25781 0.02398 0.64573 0.0
C938 C 0.28016 0.01809 0.75961 0.0
C939 C 0.27581 0.97614 0.79501 0.0
C940 C 0.28229 0.98982 0.76666 0.0
C941 C 0.27106 0.02873 0.67442 0.0
C942 C 0.27971 0.01679 0.7048 0.0
H943 H 0.24392 0.95252 0.7827 0.0
H944 H 0.26065 0.96929 0.73033 0.0
H945 H 0.27955 1.00578 0.83226 0.0
H946 H 0.26602 0.06825 0.6655 0.0
H947 H 0.28411 0.04872 0.70317 0.0
C948 C 0.9815 0.24886 0.64589 0.0
C949 C 0.96535 0.25165 0.64678 0.0
C950 C 0.99174 0.25904 0.67111 0.0
C951 C 0.99182 0.28094 0.78929 0.0
H952 H 0.0359 0.28086 0.75338 0.0
C953 C 0.05639 0.2646 0.87979 0.0
C954 C 0.05109 0.25039 0.90108 0.0
C955 C 0.04581 0.27485 0.85549 0.0
C956 C 0.02368 0.2816 0.76438 0.0
H957 H 0.94716 0.26773 0.67102 0.0
H958 H 0.96516 0.28551 0.71735 0.0
H959 H 0.01636 0.28177 0.68418 0.0
H960 H 0.03065 0.23641 0.91851 0.0
H961 H 0.01228 0.25397 0.87602 0.0
H962 H 0.99916 0.2795 0.86933 0.0
C963 C 0.96989 0.27551 0.69653 0.0
C964 C 0.01245 0.28201 0.72456 0.0
C965 C 0.95962 0.26537 0.67036 0.0
C966 C 0.03502 0.24714 0.90135 0.0
C967 C 0.02448 0.2574 0.87786 0.0
C968 C 1.00304 0.28071 0.82914 0.0
C969 C 0.98602 0.27217 0.69841 0.0
C970 C 0.99652 0.27998 0.73665 0.0
C971 C 0.02978 0.27112 0.85304 0.0
C972 C 0.01902 0.27935 0.81663 0.0
H973 H 0.98616 0.23849 0.62702 0.0
H974 H 1.00404 0.25591 0.67241 0.0
H975 H 0.97962 0.27966 0.80002 0.0
H976 H 0.06876 0.26735 0.87954 0.0
H977 H 0.05023 0.28531 0.8366 0.0
C978 C 0.76958 0.05774 0.81332 0.0
C979 C 0.76693 0.05986 0.86697 0.0
C980 C 0.75993 0.0479 0.78413 0.0
C981 C 0.7414 0.01136 0.80602 0.0
H982 H 0.7385 0.01378 0.65465 0.0
C983 C 0.7565 0.95851 0.67875 0.0
C984 C 0.77 0.96276 0.65094 0.0
C985 C 0.74671 0.97011 0.69961 0.0
C986 C 0.73877 0.01289 0.69701 0.0
H987 H 0.75152 0.05442 0.93174 0.0
H988 H 0.73475 0.03673 0.88075 0.0
H989 H 0.73724 0.03774 0.70667 0.0
H990 H 0.78334 0.98201 0.61914 0.0
H991 H 0.76633 1.00227 0.65483 0.0
H992 H 0.74458 0.98671 0.79605 0.0
C993 C 0.74419 0.04284 0.86119 0.0
C994 C 0.73807 0.02659 0.72676 0.0
C995 C 0.75376 0.05292 0.89028 0.0
C996 C 0.77309 0.97859 0.64126 0.0
C997 C 0.7632 0.99011 0.66093 0.0
C998 C 0.74205 0.99765 0.77626 0.0
C999 C 0.74755 0.03979 0.80825 0.0
C1000 C 0.74083 0.02602 0.78103 0.0
C1001 C 0.75012 0.98603 0.6914 0.0
C1002 C 0.74215 0.99852 0.72133 0.0
H1003 H 0.77957 0.06315 0.79457 0.0
H1004 H 0.76303 0.04567 0.74365 0.0
H1005 H 0.74346 0.01051 0.84784 0.0
H1006 H 0.75395 0.94629 0.68605 0.0
H1007 H 0.73679 0.9667 0.72341 0.0
C1008 C 0.55706 0.70386 0.64705 0.0
C1009 C 0.55442 0.7146 0.6061 0.0
C1010 C 0.54516 0.70062 0.68402 0.0
C1011 C 0.50179 0.70517 0.70703 0.0
H1012 H 0.51264 0.70581 0.85461 0.0
C1013 C 0.45667 0.72164 0.86559 0.0
C1014 C 0.45702 0.71459 0.91539 0.0
C1015 C 0.46812 0.71831 0.82793 0.0
C1016 C 0.50937 0.70533 0.81361 0.0
H1017 H 0.53706 0.72988 0.57115 0.0
H1018 H 0.51651 0.72408 0.6338 0.0
H1019 H 0.53341 0.70578 0.78844 0.0
H1020 H 0.46986 0.6984 0.96457 0.0
H1021 H 0.49009 0.69249 0.89838 0.0
H1022 H 0.47782 0.7051 0.73178 0.0
C1023 C 0.52761 0.71805 0.63793 0.0
C1024 C 0.52133 0.70531 0.77548 0.0
C1025 C 0.53946 0.72141 0.60177 0.0
C1026 C 0.46905 0.70378 0.92621 0.0
C1027 C 0.48076 0.70058 0.88845 0.0
C1028 C 0.48989 0.7052 0.74495 0.0
C1029 C 0.53028 0.70786 0.68043 0.0
C1030 C 0.51773 0.70566 0.72147 0.0
C1031 C 0.48056 0.70796 0.83881 0.0
C1032 C 0.49342 0.7057 0.79892 0.0
H1033 H 0.56853 0.69865 0.6522 0.0
H1034 H 0.5477 0.69264 0.71591 0.0
H1035 H 0.49844 0.70505 0.66607 0.0
H1036 H 0.44771 0.7302 0.85622 0.0
H1037 H 0.46756 0.72447 0.79087 0.0
C1038 C 0.29731 0.47686 0.93523 0.0
C1039 C 0.30346 0.46162 0.93034 0.0
C1040 C 0.30047 0.48846 0.89785 0.0
C1041 C 0.31076 0.49365 0.75756 0.0
H1042 H 0.31417 0.53728 0.79801 0.0
C1043 C 0.31247 0.54434 0.60149 0.0
C1044 C 0.30337 0.55761 0.61358 0.0
C1045 C 0.3155 0.53277 0.6399 0.0
C1046 C 0.31311 0.52519 0.78569 0.0
H1047 H 0.31796 0.44676 0.8818 0.0
H1048 H 0.32358 0.46712 0.81598 0.0
H1049 H 0.31419 0.51701 0.86507 0.0
H1050 H 0.29043 0.56909 0.67541 0.0
H1051 H 0.29579 0.54938 0.7418 0.0
H1052 H 0.30929 0.50193 0.67809 0.0
C1053 C 0.31632 0.47009 0.84929 0.0
C1054 C 0.31315 0.51349 0.82443 0.0
C1055 C 0.31332 0.45845 0.88746 0.0
C1056 C 0.2978 0.55921 0.6651 0.0
C1057 C 0.30089 0.54781 0.70334 0.0
C1058 C 0.31068 0.50541 0.71864 0.0
C1059 C 0.30972 0.48524 0.8535 0.0
C1060 C 0.31163 0.49752 0.81126 0.0
C1061 C 0.30954 0.5342 0.6914 0.0
C1062 C 0.31149 0.52143 0.7321 0.0
H1063 H 0.28949 0.47967 0.96729 0.0
H1064 H 0.29496 0.49981 0.90258 0.0
H1065 H 0.30945 0.48156 0.74557 0.0
H1066 H 0.3166 0.54255 0.56183 0.0
H1067 H 0.32229 0.52257 0.62896 0.0
C1068 C 0.5541 0.31191 0.90527 0.0
C1069 C 0.55159 0.3008 0.94519 0.0
C1070 C 0.54233 0.31505 0.86751 0.0
C1071 C 0.49926 0.30938 0.84048 0.0
H1072 H 0.51093 0.31078 0.69385 0.0
C1073 C 0.45536 0.2938 0.67646 0.0
C1074 C 0.45576 0.30142 0.62762 0.0
C1075 C 0.46657 0.29689 0.7153 0.0
C1076 C 0.50741 0.31068 0.7346 0.0
H1077 H 0.53452 0.28474 0.97729 0.0
H1078 H 0.5142 0.29033 0.91325 0.0
H1079 H 0.53132 0.31062 0.76165 0.0
H1080 H 0.46845 0.31843 0.58151 0.0
H1081 H 0.48825 0.32395 0.64983 0.0
H1082 H 0.47544 0.30908 0.81382 0.0
C1083 C 0.52511 0.29674 0.91058 0.0
C1084 C 0.51917 0.31059 0.77368 0.0
C1085 C 0.53685 0.29349 0.94757 0.0
C1086 C 0.46761 0.31259 0.61906 0.0
C1087 C 0.47908 0.31557 0.65804 0.0
C1088 C 0.48757 0.30946 0.80161 0.0
C1089 C 0.52769 0.30733 0.86917 0.0
C1090 C 0.51529 0.30953 0.82733 0.0
C1091 C 0.47882 0.30761 0.70669 0.0
C1092 C 0.49141 0.3097 0.7479 0.0
H1093 H 0.56541 0.31753 0.90156 0.0
H1094 H 0.54479 0.32335 0.83655 0.0
H1095 H 0.49567 0.30896 0.88114 0.0
H1096 H 0.44655 0.28497 0.68415 0.0
H1097 H 0.46597 0.2903 0.75149 0.0
C1098 C 0.71606 0.55694 0.8777 0.0
C1099 C 0.7111 0.55486 0.92973 0.0
C1100 C 0.7132 0.54553 0.83928 0.0
C1101 C 0.70515 0.50271 0.82341 0.0
H1102 H 0.70068 0.51447 0.67744 0.0
C1103 C 0.70304 0.45611 0.65329 0.0
C1104 C 0.71288 0.45953 0.6106 0.0
C1105 C 0.69985 0.46761 0.69181 0.0
C1106 C 0.70197 0.51091 0.71795 0.0
H1107 H 0.69921 0.53897 0.98216 0.0
H1108 H 0.69381 0.51903 0.91471 0.0
H1109 H 0.70018 0.5346 0.74503 0.0
H1110 H 0.72662 0.47782 0.57431 0.0
H1111 H 0.72073 0.49776 0.63959 0.0
H1112 H 0.70705 0.47896 0.79576 0.0
C1113 C 0.69998 0.52957 0.9035 0.0
C1114 C 0.70174 0.52253 0.75702 0.0
C1115 C 0.70283 0.54113 0.94215 0.0
C1116 C 0.71881 0.47484 0.60622 0.0
C1117 C 0.71543 0.48632 0.6439 0.0
C1118 C 0.70528 0.49104 0.78419 0.0
C1119 C 0.70537 0.53147 0.85146 0.0
C1120 C 0.70371 0.51873 0.81045 0.0
C1121 C 0.7062 0.48286 0.68808 0.0
C1122 C 0.70407 0.49498 0.73066 0.0
H1123 H 0.72283 0.56717 0.86707 0.0
H1124 H 0.71787 0.54748 0.80042 0.0
H1125 H 0.70684 0.49917 0.86377 0.0
H1126 H 0.69857 0.44435 0.65853 0.0
H1127 H 0.69262 0.46447 0.725 0.0
C1128 C 0.56096 0.26458 0.2342 0.0
C1129 C 0.56234 0.26195 0.18026 0.0
C1130 C 0.55161 0.25487 0.26471 0.0
C1131 C 0.51484 0.23632 0.24684 0.0
H1132 H 0.51864 0.23414 0.39805 0.0
C1133 C 0.48359 0.26886 0.41332 0.0
C1134 C 0.46768 0.26605 0.40393 0.0
C1135 C 0.4949 0.25873 0.39363 0.0
C1136 C 0.51736 0.23423 0.35578 0.0
H1137 H 0.55621 0.24647 0.11624 0.0
H1138 H 0.53937 0.22955 0.1696 0.0
H1139 H 0.54211 0.23254 0.34386 0.0
H1140 H 0.45089 0.25014 0.36934 0.0
H1141 H 0.4709 0.23253 0.33227 0.0
H1142 H 0.49031 0.23962 0.25893 0.0
C1143 C 0.54567 0.23903 0.18836 0.0
C1144 C 0.53078 0.23332 0.32478 0.0
C1145 C 0.55527 0.24868 0.1579 0.0
C1146 C 0.46316 0.2525 0.37662 0.0
C1147 C 0.47454 0.24245 0.35581 0.0
C1148 C 0.50141 0.23717 0.27785 0.0
C1149 C 0.54324 0.24244 0.24166 0.0
C1150 C 0.52973 0.23582 0.27045 0.0
C1151 C 0.49054 0.24566 0.3634 0.0
C1152 C 0.50278 0.23755 0.33267 0.0
H1153 H 0.56649 0.27466 0.25216 0.0
H1154 H 0.54987 0.258 0.30544 0.0
H1155 H 0.5136 0.23817 0.20504 0.0
H1156 H 0.48727 0.27913 0.43504 0.0
H1157 H 0.50712 0.26171 0.39932 0.0
C1158 C 0.74791 0.55715 0.23033 0.0
C1159 C 0.7505 0.55905 0.17656 0.0
C1160 C 0.75797 0.54792 0.26023 0.0
C1161 C 0.7779 0.51203 0.24185 0.0
H1162 H 0.78158 0.51618 0.39263 0.0
C1163 C 0.7479 0.48049 0.4121 0.0
C1164 C 0.75061 0.46464 0.40133 0.0
C1165 C 0.75779 0.4919 0.39195 0.0
C1166 C 0.78108 0.51482 0.35044 0.0
H1167 H 0.76612 0.5538 0.11217 0.0
H1168 H 0.7836 0.53708 0.1644 0.0
H1169 H 0.78162 0.53959 0.33778 0.0
H1170 H 0.76616 0.44801 0.36433 0.0
H1171 H 0.78337 0.46822 0.32651 0.0
H1172 H 0.77559 0.48744 0.25479 0.0
C1173 C 0.77392 0.54295 0.1835 0.0
C1174 C 0.7811 0.5282 0.31907 0.0
C1175 C 0.76394 0.55247 0.15371 0.0
C1176 C 0.7639 0.46025 0.37258 0.0
C1177 C 0.77371 0.47175 0.35135 0.0
C1178 C 0.77787 0.49864 0.27323 0.0
C1179 C 0.77071 0.54018 0.2367 0.0
C1180 C 0.77808 0.52696 0.26508 0.0
C1181 C 0.7705 0.48771 0.35987 0.0
C1182 C 0.77801 0.50008 0.32806 0.0
H1183 H 0.7377 0.56229 0.24868 0.0
H1184 H 0.75499 0.54584 0.30089 0.0
H1185 H 0.77567 0.51067 0.20028 0.0
H1186 H 0.73781 0.48403 0.43492 0.0
H1187 H 0.75479 0.50408 0.39851 0.0
C1188 C 0.55854 0.76668 0.36964 0.0
C1189 C 0.55277 0.75298 0.39308 0.0
C1190 C 0.5483 0.77689 0.34358 0.0
C1191 C 0.50576 0.78359 0.31558 0.0
H1192 H 0.51903 0.78084 0.17081 0.0
C1193 C 0.48329 0.74836 0.13956 0.0
C1194 C 0.46721 0.75159 0.13976 0.0
C1195 C 0.4938 0.75868 0.16285 0.0
C1196 C 0.51515 0.78212 0.211 0.0
H1197 H 0.53193 0.73991 0.41271 0.0
H1198 H 0.5141 0.75744 0.3675 0.0
H1199 H 0.53858 0.78107 0.24008 0.0
H1200 H 0.44948 0.76858 0.16106 0.0
H1201 H 0.46795 0.78663 0.20359 0.0
H1202 H 0.48231 0.78242 0.28683 0.0
C1203 C 0.52641 0.76051 0.36883 0.0
C1204 C 0.52638 0.7824 0.25082 0.0
C1205 C 0.53662 0.75026 0.39394 0.0
C1206 C 0.46187 0.76583 0.16084 0.0
C1207 C 0.47241 0.77615 0.18491 0.0
C1208 C 0.49453 0.78313 0.27578 0.0
C1209 C 0.53216 0.77364 0.34168 0.0
C1210 C 0.52169 0.7815 0.30347 0.0
C1211 C 0.48845 0.77245 0.18737 0.0
C1212 C 0.49919 0.78078 0.22358 0.0
H1213 H 0.57101 0.76899 0.36904 0.0
H1214 H 0.55305 0.78688 0.32286 0.0
H1215 H 0.50187 0.78341 0.35596 0.0
H1216 H 0.48771 0.7376 0.12256 0.0
H1217 H 0.50601 0.75526 0.16474 0.0
C1218 C 0.26855 0.55801 0.31034 0.0
C1219 C 0.26547 0.56015 0.36371 0.0
C1220 C 0.25873 0.54871 0.27982 0.0
C1221 C 0.23845 0.51306 0.29738 0.0
H1222 H 0.2362 0.51681 0.14619 0.0
C1223 C 0.25323 0.4609 0.16811 0.0
C1224 C 0.26687 0.46512 0.14099 0.0
C1225 C 0.2434 0.47251 0.18865 0.0
C1226 C 0.23628 0.51556 0.18845 0.0
H1227 H 0.24924 0.55525 0.42669 0.0
H1228 H 0.23219 0.53841 0.37342 0.0
H1229 H 0.23569 0.54036 0.20035 0.0
H1230 H 0.28034 0.48436 0.10971 0.0
H1231 H 0.26332 0.50462 0.14496 0.0
H1232 H 0.24082 0.48841 0.28533 0.0
C1233 C 0.24207 0.54415 0.35508 0.0
C1234 C 0.236 0.52903 0.21941 0.0
C1235 C 0.2518 0.55372 0.38547 0.0
C1236 C 0.27 0.48094 0.13135 0.0
C1237 C 0.26008 0.49248 0.15076 0.0
C1238 C 0.23874 0.49958 0.2664 0.0
C1239 C 0.24574 0.54116 0.30235 0.0
C1240 C 0.23854 0.52792 0.27371 0.0
C1241 C 0.24693 0.48843 0.18093 0.0
C1242 C 0.23912 0.50088 0.21156 0.0
H1243 H 0.27893 0.56303 0.29279 0.0
H1244 H 0.26206 0.54646 0.23957 0.0
H1245 H 0.24031 0.51181 0.33919 0.0
H1246 H 0.25064 0.44868 0.17539 0.0
H1247 H 0.23341 0.46911 0.21212 0.0
C1248 C 0.20491 0.15311 0.39638 0.0
C1249 C 0.2194 0.14602 0.38636 0.0
C1250 C 0.2008 0.16696 0.37076 0.0
C1251 C 0.20788 0.1844 0.24446 0.0
H1252 H 0.17766 0.21458 0.29579 0.0
C1253 C 0.15392 0.2031 0.1316 0.0
C1254 C 0.14707 0.2177 0.14169 0.0
C1255 C 0.16795 0.19897 0.1561 0.0
C1256 C 0.1864 0.20656 0.28072 0.0
H1257 H 0.24173 0.14871 0.347 0.0
H1258 H 0.23451 0.17285 0.30191 0.0
H1259 H 0.1932 0.19954 0.35799 0.0
H1260 H 0.15033 0.2402 0.17962 0.0
H1261 H 0.17484 0.23298 0.22265 0.0
H1262 H 0.20047 0.19082 0.16722 0.0
C1263 C 0.2262 0.16756 0.32858 0.0
C1264 C 0.19518 0.19785 0.31644 0.0
C1265 C 0.23027 0.15371 0.35407 0.0
C1266 C 0.15517 0.22867 0.17259 0.0
C1267 C 0.16922 0.22459 0.1969 0.0
C1268 C 0.1991 0.19311 0.20873 0.0
C1269 C 0.21119 0.17394 0.33497 0.0
C1270 C 0.20537 0.18611 0.29863 0.0
C1271 C 0.17536 0.20946 0.19077 0.0
C1272 C 0.18769 0.20366 0.22662 0.0
H1273 H 0.19636 0.14742 0.42116 0.0
H1274 H 0.18907 0.17152 0.37611 0.0
H1275 H 0.21563 0.1754 0.22949 0.0
H1276 H 0.14789 0.19449 0.10781 0.0
H1277 H 0.17232 0.18716 0.15096 0.0
C1278 C 0.80516 0.1384 0.22395 0.0
C1279 C 0.80255 0.13802 0.16968 0.0
C1280 C 0.8086 0.15243 0.24905 0.0
C1281 C 0.82747 0.18942 0.2222 0.0
H1282 H 0.81837 0.19575 0.36964 0.0
C1283 C 0.8682 0.22632 0.3465 0.0
C1284 C 0.87458 0.2171 0.38695 0.0
C1285 C 0.85418 0.22204 0.32239 0.0
C1286 C 0.82081 0.19433 0.32826 0.0
H1287 H 0.80074 0.15215 0.09934 0.0
H1288 H 0.80699 0.17685 0.14332 0.0
H1289 H 0.80232 0.17771 0.3182 0.0
H1290 H 0.87062 0.19694 0.43677 0.0
H1291 H 0.8462 0.18938 0.39455 0.0
H1292 H 0.8465 0.20528 0.23282 0.0
C1293 C 0.80646 0.1662 0.16629 0.0
C1294 C 0.81169 0.18399 0.29888 0.0
C1295 C 0.80303 0.15207 0.14108 0.0
C1296 C 0.86602 0.20425 0.40569 0.0
C1297 C 0.85197 0.2 0.3817 0.0
C1298 C 0.8365 0.19984 0.25144 0.0
C1299 C 0.80948 0.16647 0.22048 0.0
C1300 C 0.81559 0.1807 0.24648 0.0
C1301 C 0.84624 0.20851 0.33854 0.0
C1302 C 0.83382 0.20165 0.30542 0.0
H1303 H 0.80503 0.12773 0.24686 0.0
H1304 H 0.8113 0.15213 0.29055 0.0
H1305 H 0.83081 0.18714 0.18199 0.0
H1306 H 0.87427 0.23659 0.33233 0.0
H1307 H 0.84991 0.22888 0.28958 0.0
C1308 C 0.80019 0.86291 0.39824 0.0
C1309 C 0.79996 0.87693 0.3695 0.0
C1310 C 0.80345 0.84872 0.37328 0.0
C1311 C 0.80991 0.83094 0.24105 0.0
H1312 H 0.84432 0.81004 0.31165 0.0
C1313 C 0.86603 0.81222 0.14244 0.0
C1314 C 0.87417 0.79891 0.15988 0.0
C1315 C 0.8518 0.81638 0.1652 0.0
C1316 C 0.83444 0.81537 0.29175 0.0
H1317 H 0.80244 0.88714 0.2923 0.0
H1318 H 0.80858 0.86264 0.24902 0.0
H1319 H 0.8277 0.82776 0.3606 0.0
H1320 H 0.87303 0.77875 0.21178 0.0
H1321 H 0.84846 0.78641 0.25282 0.0
H1322 H 0.81777 0.81958 0.17097 0.0
C1323 C 0.80581 0.86238 0.29041 0.0
C1324 C 0.82486 0.82554 0.31988 0.0
C1325 C 0.80245 0.87648 0.31526 0.0
C1326 C 0.86734 0.78936 0.19854 0.0
C1327 C 0.85316 0.79359 0.22159 0.0
C1328 C 0.81963 0.82089 0.21277 0.0
C1329 C 0.80664 0.84837 0.31925 0.0
C1330 C 0.81313 0.83417 0.29406 0.0
C1331 C 0.84548 0.80734 0.20601 0.0
C1332 C 0.83249 0.81375 0.23737 0.0
H1333 H 0.79792 0.86293 0.43997 0.0
H1334 H 0.80388 0.8381 0.39644 0.0
H1335 H 0.80067 0.8371 0.22048 0.0
H1336 H 0.87097 0.81984 0.11292 0.0
H1337 H 0.84624 0.82721 0.15308 0.0
C1338 C 0.21305 0.87867 0.20653 0.0
C1339 C 0.21549 0.87988 0.15235 0.0
C1340 C 0.20909 0.86437 0.2289 0.0
C1341 C 0.18818 0.82906 0.19623 0.0
H1342 H 0.19841 0.81943 0.34092 0.0
C1343 C 0.14664 0.79259 0.32003 0.0
C1344 C 0.1415 0.80148 0.3632 0.0
C1345 C 0.16042 0.79653 0.29391 0.0
C1346 C 0.19563 0.82177 0.3002 0.0
H1347 H 0.21642 0.86689 0.07929 0.0
H1348 H 0.20913 0.84181 0.11847 0.0
H1349 H 0.21503 0.83738 0.2915 0.0
H1350 H 0.14736 0.82085 0.41467 0.0
H1351 H 0.17133 0.8277 0.36929 0.0
H1352 H 0.16824 0.8143 0.20588 0.0
C1353 C 0.21027 0.85201 0.14348 0.0
C1354 C 0.20509 0.83204 0.272 0.0
C1355 C 0.21427 0.86638 0.12103 0.0
C1356 C 0.15097 0.81372 0.38176 0.0
C1357 C 0.16478 0.81759 0.3559 0.0
C1358 C 0.17879 0.81872 0.22432 0.0
C1359 C 0.20747 0.85092 0.19758 0.0
C1360 C 0.20084 0.83655 0.22093 0.0
C1361 C 0.16938 0.80933 0.31082 0.0
C1362 C 0.1819 0.81578 0.27749 0.0
H1363 H 0.21374 0.88889 0.23154 0.0
H1364 H 0.2066 0.86403 0.2705 0.0
H1365 H 0.18459 0.83232 0.15697 0.0
H1366 H 0.13989 0.78277 0.30562 0.0
H1367 H 0.16378 0.78994 0.25943 0.0
C1368 C 0.88711 0.82498 0.91886 0.0
C1369 C 0.90335 0.82775 0.92232 0.0
C1370 C 0.87767 0.83323 0.88267 0.0
C1371 C 0.87993 0.85764 0.75932 0.0
H1372 H 0.83716 0.86823 0.79485 0.0
C1373 C 0.83928 0.8977 0.62673 0.0
C1374 C 0.82314 0.89433 0.62684 0.0
C1375 C 0.84971 0.88938 0.65996 0.0
C1376 C 0.84901 0.86523 0.78363 0.0
H1377 H 0.92214 0.84184 0.89015 0.0
H1378 H 0.90582 0.85627 0.82843 0.0
H1379 H 0.85345 0.85457 0.85829 0.0
H1380 H 0.80559 0.87895 0.65983 0.0
H1381 H 0.82349 0.86436 0.71545 0.0
H1382 H 0.8754 0.86843 0.68455 0.0
C1383 C 0.90032 0.84749 0.85286 0.0
C1384 C 0.85843 0.85731 0.82041 0.0
C1385 C 0.90973 0.83926 0.88895 0.0
C1386 C 0.81792 0.88195 0.65879 0.0
C1387 C 0.82822 0.87366 0.69143 0.0
C1388 C 0.87047 0.86559 0.72243 0.0
C1389 C 0.88412 0.84457 0.84861 0.0
C1390 C 0.87407 0.85326 0.809 0.0
C1391 C 0.84424 0.8775 0.69408 0.0
C1392 C 0.85477 0.86942 0.73371 0.0
H1393 H 0.88168 0.81623 0.94351 0.0
H1394 H 0.86533 0.8304 0.88068 0.0
H1395 H 0.8918 0.85464 0.74829 0.0
H1396 H 0.8437 0.9073 0.60331 0.0
H1397 H 0.86193 0.89275 0.66059 0.0
C1398 C 0.13136 0.8351 0.59849 0.0
C1399 C 0.11883 0.82651 0.61969 0.0
C1400 C 0.1401 0.84553 0.63034 0.0
C1401 C 0.14924 0.85297 0.77281 0.0
H1402 H 0.16779 0.89139 0.72211 0.0
C1403 C 0.18558 0.89453 0.91144 0.0
C1404 C 0.19899 0.90146 0.88935 0.0
C1405 C 0.17466 0.88642 0.87946 0.0
C1406 C 0.16286 0.88062 0.7371 0.0
H1407 H 0.10521 0.82288 0.69015 0.0
H1408 H 0.11987 0.84112 0.74432 0.0
H1409 H 0.15159 0.87566 0.66351 0.0
H1410 H 0.21094 0.90551 0.81546 0.0
H1411 H 0.19249 0.89153 0.76138 0.0
H1412 H 0.16068 0.85778 0.84613 0.0
C1413 C 0.1234 0.83961 0.7039 0.0
C1414 C 0.1535 0.87154 0.70314 0.0
C1415 C 0.11481 0.82924 0.67243 0.0
C1416 C 0.20087 0.90035 0.83451 0.0
C1417 C 0.19008 0.89237 0.80293 0.0
C1418 C 0.15863 0.86202 0.80672 0.0
C1419 C 0.13651 0.84761 0.68411 0.0
C1420 C 0.14654 0.85751 0.72027 0.0
C1421 C 0.1768 0.88513 0.82451 0.0
C1422 C 0.16574 0.87597 0.78946 0.0
H1423 H 0.13497 0.83309 0.55837 0.0
H1424 H 0.15011 0.8514 0.61338 0.0
H1425 H 0.14438 0.84215 0.78768 0.0
H1426 H 0.18371 0.89506 0.95337 0.0
H1427 H 0.16454 0.88115 0.89786 0.0
C1428 C 0.18454 0.12698 0.6093 0.0
C1429 C 0.19564 0.11699 0.63287 0.0
C1430 C 0.17393 0.13575 0.64038 0.0
C1431 C 0.15784 0.13887 0.77891 0.0
H1432 H 0.14747 0.18125 0.73763 0.0
C1433 C 0.12702 0.18411 0.92074 0.0
C1434 C 0.11633 0.19469 0.89789 0.0
C1435 C 0.13599 0.17383 0.88904 0.0
C1436 C 0.15006 0.16937 0.74979 0.0
H1437 H 0.20375 0.10822 0.70809 0.0
H1438 H 0.18582 0.12331 0.76092 0.0
H1439 H 0.16344 0.16503 0.68011 0.0
H1440 H 0.10629 0.20198 0.82354 0.0
H1441 H 0.12147 0.18428 0.76963 0.0
H1442 H 0.1446 0.14335 0.84899 0.0
C1443 C 0.18497 0.12441 0.71875 0.0
C1444 C 0.15926 0.15998 0.71638 0.0
C1445 C 0.19546 0.11576 0.68802 0.0
C1446 C 0.1145 0.19422 0.84293 0.0
C1447 C 0.12337 0.18406 0.8116 0.0
C1448 C 0.1487 0.1483 0.81244 0.0
C1449 C 0.17406 0.13472 0.69586 0.0
C1450 C 0.1634 0.14455 0.7303 0.0
C1451 C 0.13453 0.17388 0.83369 0.0
C1452 C 0.14462 0.16374 0.79853 0.0
H1453 H 0.18432 0.12834 0.56711 0.0
H1454 H 0.16565 0.14339 0.62081 0.0
H1455 H 0.16042 0.12701 0.79116 0.0
H1456 H 0.12888 0.18417 0.96274 0.0
H1457 H 0.14445 0.16621 0.90783 0.0
C1458 C 0.83428 0.12735 0.92767 0.0
C1459 C 0.82316 0.11729 0.90463 0.0
C1460 C 0.8448 0.13603 0.89601 0.0
C1461 C 0.84904 0.15054 0.75706 0.0
H1462 H 0.89182 0.15961 0.79708 0.0
C1463 C 0.89154 0.18427 0.61579 0.0
C1464 C 0.90169 0.19522 0.63924 0.0
C1465 C 0.88279 0.1737 0.64697 0.0
C1466 C 0.87985 0.15736 0.78522 0.0
H1467 H 0.8152 0.10789 0.83018 0.0
H1468 H 0.83335 0.12247 0.77634 0.0
H1469 H 0.87532 0.14403 0.85509 0.0
H1470 H 0.91087 0.20306 0.7142 0.0
H1471 H 0.89586 0.18513 0.7673 0.0
H1472 H 0.85343 0.164 0.68759 0.0
C1473 C 0.8338 0.12419 0.81837 0.0
C1474 C 0.87034 0.14837 0.81885 0.0
C1475 C 0.82339 0.11566 0.84963 0.0
C1476 C 0.90319 0.19488 0.69431 0.0
C1477 C 0.89458 0.1844 0.72515 0.0
C1478 C 0.85852 0.15955 0.72354 0.0
C1479 C 0.84446 0.13485 0.84058 0.0
C1480 C 0.85474 0.14476 0.8054 0.0
C1481 C 0.88403 0.17371 0.70241 0.0
C1482 C 0.87411 0.16322 0.73696 0.0
H1483 H 0.8344 0.12903 0.96974 0.0
H1484 H 0.85281 0.14408 0.9149 0.0
H1485 H 0.83705 0.14834 0.74529 0.0
H1486 H 0.88997 0.18421 0.57366 0.0
H1487 H 0.87496 0.16559 0.62754 0.0
C1488 C 0.71076 0.65127 0.90851 0.0
C1489 C 0.71202 0.6375 0.87863 0.0
C1490 C 0.70725 0.66551 0.88418 0.0
C1491 C 0.70388 0.68426 0.75256 0.0
H1492 H 0.66813 0.70525 0.81432 0.0
C1493 C 0.65111 0.70553 0.63921 0.0
C1494 C 0.64245 0.7184 0.65741 0.0
C1495 C 0.66482 0.70102 0.66488 0.0
C1496 C 0.67841 0.69989 0.79702 0.0
H1497 H 0.71061 0.62776 0.80039 0.0
H1498 H 0.70415 0.65236 0.75816 0.0
H1499 H 0.68296 0.6866 0.86619 0.0
H1500 H 0.64232 0.73772 0.71284 0.0
H1501 H 0.66604 0.72952 0.75857 0.0
H1502 H 0.69834 0.6966 0.68181 0.0
C1503 C 0.70635 0.65238 0.79999 0.0
C1504 C 0.68693 0.68918 0.82683 0.0
C1505 C 0.70988 0.63823 0.8242 0.0
C1506 C 0.64845 0.72742 0.69902 0.0
C1507 C 0.66211 0.72287 0.72484 0.0
C1508 C 0.69526 0.69487 0.72257 0.0
C1509 C 0.70491 0.66617 0.82965 0.0
C1510 C 0.69915 0.68059 0.80388 0.0
C1511 C 0.67008 0.70929 0.7092 0.0
C1512 C 0.68194 0.7021 0.74379 0.0
H1513 H 0.71266 0.65105 0.95047 0.0
H1514 H 0.70623 0.67597 0.908 0.0
H1515 H 0.71354 0.67809 0.73435 0.0
H1516 H 0.64681 0.69837 0.60728 0.0
H1517 H 0.67064 0.69038 0.65236 0.0
C1518 C 0.31377 0.64867 0.64721 0.0
C1519 C 0.29943 0.64136 0.65776 0.0
C1520 C 0.31807 0.66215 0.67453 0.0
C1521 C 0.32334 0.69297 0.72994 0.0
H1522 H 0.31993 0.68563 0.87958 0.0
C1523 C 0.36196 0.72677 0.87104 0.0
C1524 C 0.37104 0.71654 0.90177 0.0
C1525 C 0.34824 0.72153 0.84722 0.0
C1526 C 0.32078 0.68797 0.83796 0.0
H1527 H 0.27763 0.64325 0.70088 0.0
H1528 H 0.28522 0.66673 0.74899 0.0
H1529 H 0.30505 0.66941 0.81877 0.0
H1530 H 0.37229 0.69333 0.93556 0.0
H1531 H 0.34843 0.68401 0.89339 0.0
H1532 H 0.34002 0.71068 0.74888 0.0
C1533 C 0.29325 0.66187 0.72044 0.0
C1534 C 0.31216 0.6788 0.80312 0.0
C1535 C 0.28897 0.6484 0.6932 0.0
C1536 C 0.3655 0.70141 0.91197 0.0
C1537 C 0.35179 0.69613 0.88801 0.0
C1538 C 0.33195 0.70215 0.76476 0.0
C1539 C 0.30805 0.66857 0.71263 0.0
C1540 C 0.31396 0.68073 0.74874 0.0
C1541 C 0.34339 0.70597 0.85373 0.0
C1542 C 0.3313 0.69922 0.81895 0.0
H1543 H 0.32202 0.64348 0.6201 0.0
H1544 H 0.32965 0.66696 0.66813 0.0
H1545 H 0.32475 0.69482 0.68821 0.0
H1546 H 0.36577 0.73867 0.86389 0.0
H1547 H 0.34183 0.72942 0.82172 0.0
C1548 C 0.31221 0.36678 0.88864 0.0
C1549 C 0.29821 0.37465 0.87707 0.0
C1550 C 0.31623 0.35323 0.86122 0.0
C1551 C 0.31062 0.3374 0.73126 0.0
H1552 H 0.33771 0.30478 0.78576 0.0
C1553 C 0.36058 0.28939 0.66461 0.0
C1554 C 0.36987 0.29975 0.6353 0.0
C1555 C 0.34671 0.29456 0.68757 0.0
C1556 C 0.32984 0.31352 0.76973 0.0
H1557 H 0.27664 0.37369 0.83203 0.0
H1558 H 0.28373 0.35008 0.78379 0.0
H1559 H 0.32226 0.32051 0.84611 0.0
H1560 H 0.37138 0.32315 0.60319 0.0
H1561 H 0.34729 0.33235 0.6439 0.0
H1562 H 0.31878 0.3309 0.65505 0.0
C1563 C 0.29173 0.35454 0.81322 0.0
C1564 C 0.32113 0.32263 0.80441 0.0
C1565 C 0.28774 0.3681 0.84055 0.0
C1566 C 0.36443 0.31497 0.62567 0.0
C1567 C 0.35058 0.32017 0.64878 0.0
C1568 C 0.31933 0.32829 0.69657 0.0
C1569 C 0.30625 0.3473 0.82198 0.0
C1570 C 0.31206 0.33515 0.78565 0.0
C1571 C 0.34193 0.31019 0.68164 0.0
C1572 C 0.32962 0.3168 0.71573 0.0
H1573 H 0.32046 0.3716 0.91659 0.0
H1574 H 0.32761 0.34802 0.86841 0.0
H1575 H 0.30375 0.347 0.71559 0.0
H1576 H 0.3643 0.27743 0.67127 0.0
H1577 H 0.34012 0.28656 0.71196 0.0
C1578 C 0.70297 0.36342 0.63143 0.0
C1579 C 0.71638 0.3712 0.64971 0.0
C1580 C 0.69812 0.34953 0.65502 0.0
C1581 C 0.69794 0.33361 0.78446 0.0
H1582 H 0.67387 0.30069 0.71757 0.0
C1583 C 0.65013 0.30087 0.89702 0.0
C1584 C 0.63581 0.3007 0.86974 0.0
C1585 C 0.66404 0.3043 0.87073 0.0
C1586 C 0.68067 0.30972 0.73689 0.0
H1587 H 0.73619 0.36964 0.703 0.0
H1588 H 0.72744 0.34557 0.74511 0.0
H1589 H 0.69223 0.31615 0.66567 0.0
H1590 H 0.62478 0.30386 0.79395 0.0
H1591 H 0.64885 0.31021 0.74838 0.0
H1592 H 0.68552 0.32819 0.85453 0.0
C1593 C 0.72063 0.35033 0.71295 0.0
C1594 C 0.69119 0.3185 0.70725 0.0
C1595 C 0.72551 0.36418 0.68922 0.0
C1596 C 0.63568 0.30376 0.81576 0.0
C1597 C 0.64951 0.30724 0.78959 0.0
C1598 C 0.68735 0.32493 0.81397 0.0
C1599 C 0.70659 0.3432 0.69733 0.0
C1600 C 0.69928 0.33105 0.73026 0.0
C1601 C 0.66383 0.30768 0.8168 0.0
C1602 C 0.67797 0.31351 0.78976 0.0
H1603 H 0.6957 0.36852 0.6011 0.0
H1604 H 0.68712 0.34439 0.6426 0.0
H1605 H 0.70396 0.34328 0.80319 0.0
H1606 H 0.65057 0.29823 0.93849 0.0
H1607 H 0.67492 0.3045 0.89265 0.0
C1608 C 0.33269 0.38922 0.11006 0.0
C1609 C 0.32165 0.39926 0.1336 0.0
C1610 C 0.34329 0.3804 0.14125 0.0
C1611 C 0.3479 0.36534 0.27931 0.0
H1612 H 0.39084 0.35713 0.23963 0.0
C1613 C 0.39092 0.33183 0.42014 0.0
C1614 C 0.40151 0.3213 0.39667 0.0
C1615 C 0.38194 0.34228 0.38908 0.0
C1616 C 0.37883 0.35911 0.25138 0.0
H1617 H 0.31391 0.40842 0.2086 0.0
H1618 H 0.33213 0.39354 0.26158 0.0
H1619 H 0.37406 0.37266 0.18203 0.0
H1620 H 0.41115 0.31409 0.32177 0.0
H1621 H 0.39569 0.33179 0.26884 0.0
H1622 H 0.35251 0.35165 0.34818 0.0
C1623 C 0.33247 0.39198 0.21948 0.0
C1624 C 0.36915 0.36808 0.21799 0.0
C1625 C 0.32201 0.40068 0.18869 0.0
C1626 C 0.40315 0.32194 0.34169 0.0
C1627 C 0.39428 0.33229 0.31096 0.0
C1628 C 0.35753 0.35632 0.31255 0.0
C1629 C 0.34309 0.3814 0.1967 0.0
C1630 C 0.3535 0.37141 0.23138 0.0
C1631 C 0.38333 0.34257 0.33371 0.0
C1632 C 0.37319 0.35297 0.29928 0.0
H1633 H 0.33274 0.38771 0.06791 0.0
H1634 H 0.35127 0.37241 0.12196 0.0
H1635 H 0.33587 0.36732 0.29099 0.0
H1636 H 0.38922 0.33167 0.46218 0.0
H1637 H 0.37382 0.35009 0.40857 0.0
C1638 C 0.6838 0.38923 0.42441 0.0
C1639 C 0.69466 0.39939 0.40076 0.0
C1640 C 0.67314 0.38047 0.39344 0.0
C1641 C 0.65643 0.37747 0.25555 0.0
H1642 H 0.64754 0.33469 0.2956 0.0
C1643 C 0.62651 0.33154 0.11358 0.0
C1644 C 0.6165 0.32043 0.13675 0.0
C1645 C 0.63509 0.34221 0.14511 0.0
C1646 C 0.6497 0.34668 0.28382 0.0
H1647 H 0.70225 0.40858 0.32569 0.0
H1648 H 0.68418 0.39354 0.27292 0.0
H1649 H 0.66333 0.35113 0.35302 0.0
H1650 H 0.60708 0.31262 0.21114 0.0
H1651 H 0.62152 0.33105 0.26484 0.0
H1652 H 0.64294 0.37287 0.18587 0.0
C1653 C 0.68358 0.39227 0.31508 0.0
C1654 C 0.65879 0.35619 0.31717 0.0
C1655 C 0.69415 0.4009 0.34572 0.0
C1656 C 0.61479 0.32083 0.19168 0.0
C1657 C 0.62324 0.33138 0.22283 0.0
C1658 C 0.64737 0.36792 0.22206 0.0
C1659 C 0.67298 0.38171 0.33802 0.0
C1660 C 0.6624 0.37177 0.30368 0.0
C1661 C 0.63389 0.342 0.20051 0.0
C1662 C 0.64382 0.35234 0.23558 0.0
H1663 H 0.68387 0.38766 0.46653 0.0
H1664 H 0.66509 0.37264 0.41302 0.0
H1665 H 0.65863 0.38943 0.24366 0.0
H1666 H 0.62826 0.3315 0.07155 0.0
H1667 H 0.64314 0.35018 0.12618 0.0
C1668 C 0.69227 0.61352 0.19527 0.0
C1669 C 0.6928 0.61533 0.14038 0.0
C1670 C 0.682 0.62232 0.22635 0.0
C1671 C 0.64637 0.64792 0.22482 0.0
H1672 H 0.66328 0.66271 0.35715 0.0
C1673 C 0.61486 0.69574 0.3478 0.0
C1674 C 0.61604 0.69599 0.40297 0.0
C1675 C 0.62322 0.68493 0.31742 0.0
C1676 C 0.65818 0.65852 0.32089 0.0
H1677 H 0.68229 0.62771 0.07521 0.0
H1678 H 0.66413 0.6432 0.12967 0.0
H1679 H 0.67929 0.64642 0.30007 0.0
H1680 H 0.62694 0.68447 0.46918 0.0
H1681 H 0.64151 0.66526 0.41606 0.0
H1682 H 0.62526 0.66004 0.24563 0.0
C1683 C 0.67176 0.63479 0.14865 0.0
C1684 C 0.66745 0.64912 0.28773 0.0
C1685 C 0.68213 0.62585 0.11719 0.0
C1686 C 0.62563 0.68463 0.42695 0.0
C1687 C 0.63413 0.67372 0.39623 0.0
C1688 C 0.63707 0.65728 0.25808 0.0
C1689 C 0.67181 0.63343 0.20402 0.0
C1690 C 0.66175 0.64366 0.23899 0.0
C1691 C 0.63319 0.67379 0.34073 0.0
C1692 C 0.64283 0.66286 0.30667 0.0
H1693 H 0.70014 0.60543 0.21477 0.0
H1694 H 0.68219 0.62047 0.26833 0.0
H1695 H 0.64138 0.64383 0.18825 0.0
H1696 H 0.60761 0.70422 0.32748 0.0
H1697 H 0.62221 0.68572 0.27521 0.0
C1698 C 0.3221 0.61609 0.34638 0.0
C1699 C 0.32167 0.61745 0.40146 0.0
C1700 C 0.33266 0.62473 0.31606 0.0
C1701 C 0.3694 0.6485 0.31928 0.0
H1702 H 0.35304 0.6651 0.18861 0.0
C1703 C 0.40347 0.69488 0.19771 0.0
C1704 C 0.40202 0.69551 0.14266 0.0
C1705 C 0.39458 0.68448 0.22795 0.0
C1706 C 0.35798 0.66038 0.2244 0.0
H1707 H 0.33271 0.62883 0.46768 0.0
H1708 H 0.3514 0.64405 0.41448 0.0
H1709 H 0.33629 0.64937 0.24489 0.0
H1710 H 0.39004 0.68509 0.07647 0.0
H1711 H 0.37458 0.6666 0.12922 0.0
H1712 H 0.39111 0.6595 0.29874 0.0
C1713 C 0.34342 0.63613 0.39481 0.0
C1714 C 0.34828 0.65133 0.25709 0.0
C1715 C 0.33273 0.62736 0.42552 0.0
C1716 C 0.39159 0.68494 0.11861 0.0
C1717 C 0.38257 0.67444 0.14915 0.0
C1718 C 0.37913 0.65752 0.28645 0.0
C1719 C 0.3433 0.63521 0.33934 0.0
C1720 C 0.35379 0.6452 0.30518 0.0
C1721 C 0.38379 0.67416 0.20458 0.0
C1722 C 0.3736 0.66371 0.23841 0.0
H1723 H 0.31397 0.60844 0.32613 0.0
H1724 H 0.33238 0.62322 0.27392 0.0
H1725 H 0.37423 0.64388 0.35538 0.0
H1726 H 0.41135 0.70277 0.21806 0.0
H1727 H 0.39584 0.68498 0.27014 0.0
loop_
_geom_bond_atom_site_label_1
_geom_bond_atom_site_label_2
_geom_bond_distance
_geom_bond_site_symmetry_2
_ccdc_geom_bond_type
C0 C1 1.351 . S
C0 N3 1.368 . S
C0 H5 0.931 . S
C1 C0 1.351 . S
C1 N2 1.373 . S
C1 H29 0.930 . S
N2 C1 1.373 . S
N2 C4 1.340 . S
N3 C0 1.368 . S
N3 C4 1.321 . S
N3 Co6 2.135 . S
C4 N2 1.340 . S
C4 N3 1.321 . S
C4 H28 0.930 . S
H5 C0 0.931 . S
Co6 N3 2.135 . S
Co6 N9 2.121 1_554 S
Co6 O14 2.055 . S
Co6 O17 2.039 1_554 S
Co6 N20 2.140 . S
C7 O8 1.227 . S
C7 O17 1.265 . S
O8 C7 1.227 . S
N9 Co6 2.121 1_556 S
N9 C11 1.375 . S
N9 C12 1.313 . S
C10 C11 1.338 . S
C10 N13 1.377 . S
C10 H30 0.930 . S
C11 N9 1.375 . S
C11 C10 1.338 . S
C11 H15 0.931 . S
C12 N9 1.313 . S
C12 N13 1.344 . S
C12 H16 0.930 . S
N13 C10 1.377 . S
N13 C12 1.344 . S
O14 Co6 2.055 . S
O14 C18 1.253 . S
H15 C11 0.931 . S
H16 C12 0.930 . S
O17 Co6 2.039 1_556 S
O17 C7 1.265 . S
C18 O14 1.253 . S
C18 O19 1.227 . S
O19 C18 1.227 . S
N20 Co6 2.140 . S
N20 C23 1.346 . S
N20 C24 1.345 1_554 S
C21 C22 1.387 1_556 S
C21 C25 1.391 . S
C22 C21 1.387 1_554 S
C22 C23 1.369 . S
C22 H31 0.929 . S
C23 N20 1.346 . S
C23 C22 1.369 . S
C23 H26 0.928 . S
C24 N20 1.345 1_556 S
C24 C25 1.371 . S
C24 H27 0.931 . S
C25 C21 1.391 . S
C25 C24 1.371 . S
C25 H32 0.930 . S
H26 C23 0.928 . S
H27 C24 0.931 . S
H28 C4 0.930 . S
H29 C1 0.930 . S
H30 C10 0.930 . S
H31 C22 0.929 . S
H32 C25 0.930 . S
C33 C34 1.351 . S
C33 N36 1.368 . S
C33 H38 0.931 . S
C34 C33 1.351 . S
C34 N35 1.373 . S
C34 H62 0.930 . S
N35 C34 1.373 . S
N35 C37 1.340 . S
N36 C33 1.368 . S
N36 C37 1.321 . S
N36 Co39 2.135 . S
C37 N35 1.340 . S
C37 N36 1.321 . S
C37 H61 0.930 . S
H38 C33 0.931 . S
Co39 N36 2.135 . S
Co39 N42 2.121 1_554 S
Co39 O47 2.055 . S
Co39 O50 2.039 1_554 S
Co39 N53 2.140 . S
C40 O41 1.227 . S
C40 O50 1.265 . S
O41 C40 1.227 . S
N42 Co39 2.121 1_556 S
N42 C44 1.375 . S
N42 C45 1.313 . S
C43 C44 1.338 . S
C43 N46 1.377 . S
C43 H63 0.930 . S
C44 N42 1.375 . S
C44 C43 1.338 . S
C44 H48 0.931 . S
C45 N42 1.313 . S
C45 N46 1.344 . S
C45 H49 0.930 . S
N46 C43 1.377 . S
N46 C45 1.344 . S
O47 Co39 2.055 . S
O47 C51 1.253 . S
H48 C44 0.931 . S
H49 C45 0.930 . S
O50 Co39 2.039 1_556 S
O50 C40 1.265 . S
C51 O47 1.253 . S
C51 O52 1.227 . S
O52 C51 1.227 . S
N53 Co39 2.140 . S
N53 C56 1.346 . S
N53 C57 1.345 1_554 S
C54 C55 1.387 1_556 S
C54 C58 1.391 . S
C55 C54 1.387 1_554 S
C55 C56 1.369 . S
C55 H64 0.929 . S
C56 N53 1.346 . S
C56 C55 1.369 . S
C56 H59 0.928 . S
C57 N53 1.345 1_556 S
C57 C58 1.371 . S
C57 H60 0.931 . S
C58 C54 1.391 . S
C58 C57 1.371 . S
C58 H65 0.930 . S
H59 C56 0.928 . S
H60 C57 0.931 . S
H61 C37 0.930 . S
H62 C34 0.930 . S
H63 C43 0.930 . S
H64 C55 0.929 . S
H65 C58 0.930 . S
C66 C67 1.351 . S
C66 N69 1.368 . S
C66 H71 0.931 . S
C67 C66 1.351 . S
C67 N68 1.373 . S
C67 H95 0.930 . S
N68 C67 1.373 . S
N68 C70 1.340 . S
N69 C66 1.368 . S
N69 C70 1.321 . S
N69 Co72 2.135 . S
C70 N68 1.340 . S
C70 N69 1.321 . S
C70 H94 0.930 . S
H71 C66 0.931 . S
Co72 N69 2.135 . S
Co72 N75 2.121 1_554 S
Co72 O80 2.055 . S
Co72 O83 2.039 1_554 S
Co72 N86 2.140 . S
C73 O74 1.227 . S
C73 O83 1.265 . S
O74 C73 1.227 . S
N75 Co72 2.121 1_556 S
N75 C77 1.375 . S
N75 C78 1.313 . S
C76 C77 1.338 . S
C76 N79 1.377 . S
C76 H96 0.930 . S
C77 N75 1.375 . S
C77 C76 1.338 . S
C77 H81 0.931 . S
C78 N75 1.313 . S
C78 N79 1.344 . S
C78 H82 0.930 . S
N79 C76 1.377 . S
N79 C78 1.344 . S
O80 Co72 2.055 . S
O80 C84 1.253 . S
H81 C77 0.931 . S
H82 C78 0.930 . S
O83 Co72 2.039 1_556 S
O83 C73 1.265 . S
C84 O80 1.253 . S
C84 O85 1.227 . S
O85 C84 1.227 . S
N86 Co72 2.140 . S
N86 C89 1.346 . S
N86 C90 1.345 1_554 S
C87 C88 1.387 1_556 S
C87 C91 1.391 . S
C88 C87 1.387 1_554 S
C88 C89 1.369 . S
C88 H97 0.929 . S
C89 N86 1.346 . S
C89 C88 1.369 . S
C89 H92 0.928 . S
C90 N86 1.345 1_556 S
C90 C91 1.371 . S
C90 H93 0.931 . S
C91 C87 1.391 . S
C91 C90 1.371 . S
C91 H98 0.930 . S
H92 C89 0.928 . S
H93 C90 0.931 . S
H94 C70 0.930 . S
H95 C67 0.930 . S
H96 C76 0.930 . S
H97 C88 0.929 . S
H98 C91 0.930 . S
C99 C100 1.351 . S
C99 N102 1.368 . S
C99 H104 0.931 . S
C100 C99 1.351 . S
C100 N101 1.373 . S
C100 H128 0.930 . S
N101 C100 1.373 . S
N101 C103 1.340 . S
N102 C99 1.368 . S
N102 C103 1.321 . S
N102 Co105 2.135 . S
C103 N101 1.340 . S
C103 N102 1.321 . S
C103 H127 0.930 . S
H104 C99 0.931 . S
Co105 N102 2.135 . S
Co105 N108 2.121 1_554 S
Co105 O113 2.055 . S
Co105 O116 2.039 1_554 S
Co105 N119 2.140 . S
C106 O107 1.227 . S
C106 O116 1.265 . S
O107 C106 1.227 . S
N108 Co105 2.121 1_556 S
N108 C110 1.375 . S
N108 C111 1.313 . S
C109 C110 1.338 . S
C109 N112 1.377 . S
C109 H129 0.930 . S
C110 N108 1.375 . S
C110 C109 1.338 . S
C110 H114 0.931 . S
C111 N108 1.313 . S
C111 N112 1.344 . S
C111 H115 0.930 . S
N112 C109 1.377 . S
N112 C111 1.344 . S
O113 Co105 2.055 . S
O113 C117 1.253 . S
H114 C110 0.931 . S
H115 C111 0.930 . S
O116 Co105 2.039 1_556 S
O116 C106 1.265 . S
C117 O113 1.253 . S
C117 O118 1.227 . S
O118 C117 1.227 . S
N119 Co105 2.140 . S
N119 C122 1.346 . S
N119 C123 1.345 1_554 S
C120 C121 1.387 1_556 S
C120 C124 1.391 . S
C121 C120 1.387 1_554 S
C121 C122 1.369 . S
C121 H130 0.929 . S
C122 N119 1.346 . S
C122 C121 1.369 . S
C122 H125 0.928 . S
C123 N119 1.345 1_556 S
C123 C124 1.371 . S
C123 H126 0.931 . S
C124 C120 1.391 . S
C124 C123 1.371 . S
C124 H131 0.930 . S
H125 C122 0.928 . S
H126 C123 0.931 . S
H127 C103 0.930 . S
H128 C100 0.930 . S
H129 C109 0.930 . S
H130 C121 0.929 . S
H131 C124 0.930 . S
C132 C133 1.351 . S
C132 N135 1.368 . S
C132 H137 0.931 . S
C133 C132 1.351 . S
C133 N134 1.373 . S
C133 H161 0.930 . S
N134 C133 1.373 . S
N134 C136 1.340 . S
N135 C132 1.368 . S
N135 C136 1.321 . S
N135 Co138 2.135 . S
C136 N134 1.340 . S
C136 N135 1.321 . S
C136 H160 0.930 . S
H137 C132 0.931 . S
Co138 N135 2.135 . S
Co138 N141 2.121 . S
Co138 O146 2.055 . S
Co138 O149 2.039 . S
Co138 N152 2.140 . S
C139 O140 1.227 . S
C139 O149 1.265 . S
O140 C139 1.227 . S
N141 Co138 2.121 . S
N141 C143 1.375 . S
N141 C144 1.313 . S
C142 C143 1.338 . S
C142 N145 1.377 . S
C142 H162 0.930 . S
C143 N141 1.375 . S
C143 C142 1.338 . S
C143 H147 0.931 . S
C144 N141 1.313 . S
C144 N145 1.344 . S
C144 H148 0.930 . S
N145 C142 1.377 . S
N145 C144 1.344 . S
O146 Co138 2.055 . S
O146 C150 1.253 . S
H147 C143 0.931 . S
H148 C144 0.930 . S
O149 Co138 2.039 . S
O149 C139 1.265 . S
C150 O146 1.253 . S
C150 O151 1.227 . S
O151 C150 1.227 . S
N152 Co138 2.140 . S
N152 C155 1.346 . S
N152 C156 1.345 . S
C153 C154 1.387 . S
C153 C157 1.391 . S
C154 C153 1.387 . S
C154 C155 1.369 . S
C154 H163 0.929 . S
C155 N152 1.346 . S
C155 C154 1.369 . S
C155 H158 0.928 . S
C156 N152 1.345 . S
C156 C157 1.371 . S
C156 H159 0.931 . S
C157 C153 1.391 . S
C157 C156 1.371 . S
C157 H164 0.930 . S
H158 C155 0.928 . S
H159 C156 0.931 . S
H160 C136 0.930 . S
H161 C133 0.930 . S
H162 C142 0.930 . S
H163 C154 0.929 . S
H164 C157 0.930 . S
C165 C166 1.351 . S
C165 N168 1.368 . S
C165 H170 0.931 . S
C166 C165 1.351 . S
C166 N167 1.373 . S
C166 H194 0.930 . S
N167 C166 1.373 . S
N167 C169 1.340 . S
N168 C165 1.368 . S
N168 C169 1.321 . S
N168 Co171 2.135 . S
C169 N167 1.340 . S
C169 N168 1.321 . S
C169 H193 0.930 . S
H170 C165 0.931 . S
Co171 N168 2.135 . S
Co171 N174 2.121 . S
Co171 O179 2.055 . S
Co171 O182 2.039 . S
Co171 N185 2.140 . S
C172 O173 1.227 . S
C172 O182 1.265 . S
O173 C172 1.227 . S
N174 Co171 2.121 . S
N174 C176 1.375 . S
N174 C177 1.313 . S
C175 C176 1.338 . S
C175 N178 1.377 . S
C175 H195 0.930 . S
C176 N174 1.375 . S
C176 C175 1.338 . S
C176 H180 0.931 . S
C177 N174 1.313 . S
C177 N178 1.344 . S
C177 H181 0.930 . S
N178 C175 1.377 . S
N178 C177 1.344 . S
O179 Co171 2.055 . S
O179 C183 1.253 . S
H180 C176 0.931 . S
H181 C177 0.930 . S
O182 Co171 2.039 . S
O182 C172 1.265 . S
C183 O179 1.253 . S
C183 O184 1.227 . S
O184 C183 1.227 . S
N185 Co171 2.140 . S
N185 C188 1.346 . S
N185 C189 1.345 . S
C186 C187 1.387 . S
C186 C190 1.391 . S
C187 C186 1.387 . S
C187 C188 1.369 . S
C187 H196 0.929 . S
C188 N185 1.346 . S
C188 C187 1.369 . S
C188 H191 0.928 . S
C189 N185 1.345 . S
C189 C190 1.371 . S
C189 H192 0.931 . S
C190 C186 1.391 . S
C190 C189 1.371 . S
C190 H197 0.930 . S
H191 C188 0.928 . S
H192 C189 0.931 . S
H193 C169 0.930 . S
H194 C166 0.930 . S
H195 C175 0.930 . S
H196 C187 0.929 . S
H197 C190 0.930 . S
C198 C199 1.351 . S
C198 N201 1.368 . S
C198 H203 0.931 . S
C199 C198 1.351 . S
C199 N200 1.373 . S
C199 H227 0.930 . S
N200 C199 1.373 . S
N200 C202 1.340 . S
N201 C198 1.368 . S
N201 C202 1.321 . S
N201 Co204 2.135 . S
C202 N200 1.340 . S
C202 N201 1.321 . S
C202 H226 0.930 . S
H203 C198 0.931 . S
Co204 N201 2.135 . S
Co204 N207 2.121 . S
Co204 O212 2.055 . S
Co204 O215 2.039 . S
Co204 N218 2.140 . S
C205 O206 1.227 . S
C205 O215 1.265 . S
O206 C205 1.227 . S
N207 Co204 2.121 . S
N207 C209 1.375 . S
N207 C210 1.313 . S
C208 C209 1.338 . S
C208 N211 1.377 . S
C208 H228 0.930 . S
C209 N207 1.375 . S
C209 C208 1.338 . S
C209 H213 0.931 . S
C210 N207 1.313 . S
C210 N211 1.344 . S
C210 H214 0.930 . S
N211 C208 1.377 . S
N211 C210 1.344 . S
O212 Co204 2.055 . S
O212 C216 1.253 . S
H213 C209 0.931 . S
H214 C210 0.930 . S
O215 Co204 2.039 . S
O215 C205 1.265 . S
C216 O212 1.253 . S
C216 O217 1.227 . S
O217 C216 1.227 . S
N218 Co204 2.140 . S
N218 C221 1.346 . S
N218 C222 1.345 . S
C219 C220 1.387 . S
C219 C223 1.391 . S
C220 C219 1.387 . S
C220 C221 1.369 . S
C220 H229 0.929 . S
C221 N218 1.346 . S
C221 C220 1.369 . S
C221 H224 0.928 . S
C222 N218 1.345 . S
C222 C223 1.371 . S
C222 H225 0.931 . S
C223 C219 1.391 . S
C223 C222 1.371 . S
C223 H230 0.930 . S
H224 C221 0.928 . S
H225 C222 0.931 . S
H226 C202 0.930 . S
H227 C199 0.930 . S
H228 C208 0.930 . S
H229 C220 0.929 . S
H230 C223 0.930 . S
C231 C232 1.351 . S
C231 N234 1.368 . S
C231 H236 0.931 . S
C232 C231 1.351 . S
C232 N233 1.373 . S
C232 H260 0.930 . S
N233 C232 1.373 . S
N233 C235 1.340 . S
N234 C231 1.368 . S
N234 C235 1.321 . S
N234 Co237 2.135 . S
C235 N233 1.340 . S
C235 N234 1.321 . S
C235 H259 0.930 . S
H236 C231 0.931 . S
Co237 N234 2.135 . S
Co237 N240 2.121 . S
Co237 O245 2.055 . S
Co237 O248 2.039 . S
Co237 N251 2.140 . S
C238 O239 1.227 . S
C238 O248 1.265 . S
O239 C238 1.227 . S
N240 Co237 2.121 . S
N240 C242 1.375 . S
N240 C243 1.313 . S
C241 C242 1.338 . S
C241 N244 1.377 . S
C241 H261 0.930 . S
C242 N240 1.375 . S
C242 C241 1.338 . S
C242 H246 0.931 . S
C243 N240 1.313 . S
C243 N244 1.344 . S
C243 H247 0.930 . S
N244 C241 1.377 . S
N244 C243 1.344 . S
O245 Co237 2.055 . S
O245 C249 1.253 . S
H246 C242 0.931 . S
H247 C243 0.930 . S
O248 Co237 2.039 . S
O248 C238 1.265 . S
C249 O245 1.253 . S
C249 O250 1.227 . S
O250 C249 1.227 . S
N251 Co237 2.140 . S
N251 C254 1.346 . S
N251 C255 1.345 . S
C252 C253 1.387 . S
C252 C256 1.391 . S
C253 C252 1.387 . S
C253 C254 1.369 . S
C253 H262 0.929 . S
C254 N251 1.346 . S
C254 C253 1.369 . S
C254 H257 0.928 . S
C255 N251 1.345 . S
C255 C256 1.371 . S
C255 H258 0.931 . S
C256 C252 1.391 . S
C256 C255 1.371 . S
C256 H263 0.930 . S
H257 C254 0.928 . S
H258 C255 0.931 . S
H259 C235 0.930 . S
H260 C232 0.930 . S
H261 C241 0.930 . S
H262 C253 0.929 . S
H263 C256 0.930 . S
C264 C265 1.351 . S
C264 N267 1.368 . S
C264 H269 0.931 . S
C265 C264 1.351 . S
C265 N266 1.373 . S
C265 H293 0.930 . S
N266 C265 1.373 . S
N266 C268 1.340 . S
N267 C264 1.368 . S
N267 C268 1.321 . S
N267 Co270 2.135 . S
C268 N266 1.340 . S
C268 N267 1.321 . S
C268 H292 0.930 . S
H269 C264 0.931 . S
Co270 N267 2.135 . S
Co270 N273 2.121 . S
Co270 O278 2.055 . S
Co270 O281 2.039 . S
Co270 N284 2.140 . S
C271 O272 1.227 . S
C271 O281 1.265 . S
O272 C271 1.227 . S
N273 Co270 2.121 . S
N273 C275 1.375 . S
N273 C276 1.313 . S
C274 C275 1.338 . S
C274 N277 1.377 . S
C274 H294 0.930 . S
C275 N273 1.375 . S
C275 C274 1.338 . S
C275 H279 0.931 . S
C276 N273 1.313 . S
C276 N277 1.344 . S
C276 H280 0.930 . S
N277 C274 1.377 . S
N277 C276 1.344 . S
O278 Co270 2.055 . S
O278 C282 1.253 . S
H279 C275 0.931 . S
H280 C276 0.930 . S
O281 Co270 2.039 . S
O281 C271 1.265 . S
C282 O278 1.253 . S
C282 O283 1.227 . S
O283 C282 1.227 . S
N284 Co270 2.140 . S
N284 C287 1.346 . S
N284 C288 1.345 . S
C285 C286 1.387 . S
C285 C289 1.391 . S
C286 C285 1.387 . S
C286 C287 1.369 . S
C286 H295 0.929 . S
C287 N284 1.346 . S
C287 C286 1.369 . S
C287 H290 0.928 . S
C288 N284 1.345 . S
C288 C289 1.371 . S
C288 H291 0.931 . S
C289 C285 1.391 . S
C289 C288 1.371 . S
C289 H296 0.930 . S
H290 C287 0.928 . S
H291 C288 0.931 . S
H292 C268 0.930 . S
H293 C265 0.930 . S
H294 C274 0.930 . S
H295 C286 0.929 . S
H296 C289 0.930 . S
C297 C298 1.351 . S
C297 N300 1.368 . S
C297 H302 0.931 . S
C298 C297 1.351 . S
C298 N299 1.373 . S
C298 H326 0.930 . S
N299 C298 1.373 . S
N299 C301 1.340 . S
N300 C297 1.368 . S
N300 C301 1.321 . S
N300 Co303 2.135 . S
C301 N299 1.340 . S
C301 N300 1.321 . S
C301 H325 0.930 . S
H302 C297 0.931 . S
Co303 N300 2.135 . S
Co303 N306 2.121 . S
Co303 O311 2.055 . S
Co303 O314 2.039 . S
Co303 N317 2.140 . S
C304 O305 1.227 . S
C304 O314 1.265 . S
O305 C304 1.227 . S
N306 Co303 2.121 . S
N306 C308 1.375 . S
N306 C309 1.313 . S
C307 C308 1.338 . S
C307 N310 1.377 . S
C307 H327 0.930 . S
C308 N306 1.375 . S
C308 C307 1.338 . S
C308 H312 0.931 . S
C309 N306 1.313 . S
C309 N310 1.344 . S
C309 H313 0.930 . S
N310 C307 1.377 . S
N310 C309 1.344 . S
O311 Co303 2.055 . S
O311 C315 1.253 . S
H312 C308 0.931 . S
H313 C309 0.930 . S
O314 Co303 2.039 . S
O314 C304 1.265 . S
C315 O311 1.253 . S
C315 O316 1.227 . S
O316 C315 1.227 . S
N317 Co303 2.140 . S
N317 C320 1.346 . S
N317 C321 1.345 . S
C318 C319 1.387 . S
C318 C322 1.391 . S
C319 C318 1.387 . S
C319 C320 1.369 . S
C319 H328 0.929 . S
C320 N317 1.346 . S
C320 C319 1.369 . S
C320 H323 0.928 . S
C321 N317 1.345 . S
C321 C322 1.371 . S
C321 H324 0.931 . S
C322 C318 1.391 . S
C322 C321 1.371 . S
C322 H329 0.930 . S
H323 C320 0.928 . S
H324 C321 0.931 . S
H325 C301 0.930 . S
H326 C298 0.930 . S
H327 C307 0.930 . S
H328 C319 0.929 . S
H329 C322 0.930 . S
C330 C331 1.351 . S
C330 N333 1.368 . S
C330 H335 0.931 . S
C331 C330 1.351 . S
C331 N332 1.373 . S
C331 H359 0.930 . S
N332 C331 1.373 . S
N332 C334 1.340 . S
N333 C330 1.368 . S
N333 C334 1.321 . S
N333 Co336 2.135 . S
C334 N332 1.340 . S
C334 N333 1.321 . S
C334 H358 0.930 . S
H335 C330 0.931 . S
Co336 N333 2.135 . S
Co336 N339 2.121 . S
Co336 O344 2.055 . S
Co336 O347 2.039 . S
Co336 N350 2.140 . S
C337 O338 1.227 . S
C337 O347 1.265 . S
O338 C337 1.227 . S
N339 Co336 2.121 . S
N339 C341 1.375 . S
N339 C342 1.313 . S
C340 C341 1.338 . S
C340 N343 1.377 . S
C340 H360 0.930 . S
C341 N339 1.375 . S
C341 C340 1.338 . S
C341 H345 0.931 . S
C342 N339 1.313 . S
C342 N343 1.344 . S
C342 H346 0.930 . S
N343 C340 1.377 . S
N343 C342 1.344 . S
O344 Co336 2.055 . S
O344 C348 1.253 . S
H345 C341 0.931 . S
H346 C342 0.930 . S
O347 Co336 2.039 . S
O347 C337 1.265 . S
C348 O344 1.253 . S
C348 O349 1.227 . S
O349 C348 1.227 . S
N350 Co336 2.140 . S
N350 C353 1.346 . S
N350 C354 1.345 . S
C351 C352 1.387 . S
C351 C355 1.391 . S
C352 C351 1.387 . S
C352 C353 1.369 . S
C352 H361 0.929 . S
C353 N350 1.346 . S
C353 C352 1.369 . S
C353 H356 0.928 . S
C354 N350 1.345 . S
C354 C355 1.371 . S
C354 H357 0.931 . S
C355 C351 1.391 . S
C355 C354 1.371 . S
C355 H362 0.930 . S
H356 C353 0.928 . S
H357 C354 0.931 . S
H358 C334 0.930 . S
H359 C331 0.930 . S
H360 C340 0.930 . S
H361 C352 0.929 . S
H362 C355 0.930 . S
C363 C364 1.351 . S
C363 N366 1.368 . S
C363 H368 0.931 . S
C364 C363 1.351 . S
C364 N365 1.373 . S
C364 H392 0.930 . S
N365 C364 1.373 . S
N365 C367 1.340 . S
N366 C363 1.368 . S
N366 C367 1.321 . S
N366 Co369 2.135 . S
C367 N365 1.340 . S
C367 N366 1.321 . S
C367 H391 0.930 . S
H368 C363 0.931 . S
Co369 N366 2.135 . S
Co369 N372 2.121 . S
Co369 O377 2.055 . S
Co369 O380 2.039 . S
Co369 N383 2.140 . S
C370 O371 1.227 . S
C370 O380 1.265 . S
O371 C370 1.227 . S
N372 Co369 2.121 . S
N372 C374 1.375 . S
N372 C375 1.313 . S
C373 C374 1.338 . S
C373 N376 1.377 . S
C373 H393 0.930 . S
C374 N372 1.375 . S
C374 C373 1.338 . S
C374 H378 0.931 . S
C375 N372 1.313 . S
C375 N376 1.344 . S
C375 H379 0.930 . S
N376 C373 1.377 . S
N376 C375 1.344 . S
O377 Co369 2.055 . S
O377 C381 1.253 . S
H378 C374 0.931 . S
H379 C375 0.930 . S
O380 Co369 2.039 . S
O380 C370 1.265 . S
C381 O377 1.253 . S
C381 O382 1.227 . S
O382 C381 1.227 . S
N383 Co369 2.140 . S
N383 C386 1.346 . S
N383 C387 1.345 . S
C384 C385 1.387 . S
C384 C388 1.391 . S
C385 C384 1.387 . S
C385 C386 1.369 . S
C385 H394 0.929 . S
C386 N383 1.346 . S
C386 C385 1.369 . S
C386 H389 0.928 . S
C387 N383 1.345 . S
C387 C388 1.371 . S
C387 H390 0.931 . S
C388 C384 1.391 . S
C388 C387 1.371 . S
C388 H395 0.930 . S
H389 C386 0.928 . S
H390 C387 0.931 . S
H391 C367 0.930 . S
H392 C364 0.930 . S
H393 C373 0.930 . S
H394 C385 0.929 . S
H395 C388 0.930 . S
C396 C397 1.351 . S
C396 N399 1.368 . S
C396 H401 0.931 . S
C397 C396 1.351 . S
C397 N398 1.373 . S
C397 H425 0.930 . S
N398 C397 1.373 . S
N398 C400 1.340 . S
N399 C396 1.368 . S
N399 C400 1.321 . S
N399 Co402 2.135 . S
C400 N398 1.340 . S
C400 N399 1.321 . S
C400 H424 0.930 . S
H401 C396 0.931 . S
Co402 N399 2.135 . S
Co402 N405 2.121 1_556 S
Co402 O410 2.055 . S
Co402 O413 2.039 1_556 S
Co402 N416 2.140 . S
C403 O404 1.227 . S
C403 O413 1.265 . S
O404 C403 1.227 . S
N405 Co402 2.121 1_554 S
N405 C407 1.375 . S
N405 C408 1.313 . S
C406 C407 1.338 . S
C406 N409 1.377 . S
C406 H426 0.930 . S
C407 N405 1.375 . S
C407 C406 1.338 . S
C407 H411 0.931 . S
C408 N405 1.313 . S
C408 N409 1.344 . S
C408 H412 0.930 . S
N409 C406 1.377 . S
N409 C408 1.344 . S
O410 Co402 2.055 . S
O410 C414 1.253 . S
H411 C407 0.931 . S
H412 C408 0.930 . S
O413 Co402 2.039 1_554 S
O413 C403 1.265 . S
C414 O410 1.253 . S
C414 O415 1.227 . S
O415 C414 1.227 . S
N416 Co402 2.140 . S
N416 C419 1.346 . S
N416 C420 1.345 1_556 S
C417 C418 1.385 1_554 S
C417 C421 1.393 . S
C418 C417 1.385 1_556 S
C418 C419 1.369 . S
C418 H427 0.929 . S
C419 N416 1.346 . S
C419 C418 1.369 . S
C419 H422 0.928 . S
C420 N416 1.345 1_554 S
C420 C421 1.371 . S
C420 H423 0.931 . S
C421 C417 1.393 . S
C421 C420 1.371 . S
C421 H428 0.930 . S
H422 C419 0.928 . S
H423 C420 0.931 . S
H424 C400 0.930 . S
H425 C397 0.930 . S
H426 C406 0.930 . S
H427 C418 0.929 . S
H428 C421 0.930 . S
C429 C430 1.351 . S
C429 N432 1.368 . S
C429 H434 0.931 . S
C430 C429 1.351 . S
C430 N431 1.373 . S
C430 H458 0.930 . S
N431 C430 1.373 . S
N431 C433 1.340 . S
N432 C429 1.368 . S
N432 C433 1.321 . S
N432 Co435 2.135 . S
C433 N431 1.340 . S
C433 N432 1.321 . S
C433 H457 0.930 . S
H434 C429 0.931 . S
Co435 N432 2.135 . S
Co435 N438 2.121 1_556 S
Co435 O443 2.055 . S
Co435 O446 2.039 1_556 S
Co435 N449 2.140 . S
C436 O437 1.227 . S
C436 O446 1.265 . S
O437 C436 1.227 . S
N438 Co435 2.121 1_554 S
N438 C440 1.375 . S
N438 C441 1.313 . S
C439 C440 1.338 . S
C439 N442 1.377 . S
C439 H459 0.930 . S
C440 N438 1.375 . S
C440 C439 1.338 . S
C440 H444 0.931 . S
C441 N438 1.313 . S
C441 N442 1.344 . S
C441 H445 0.930 . S
N442 C439 1.377 . S
N442 C441 1.344 . S
O443 Co435 2.055 . S
O443 C447 1.253 . S
H444 C440 0.931 . S
H445 C441 0.930 . S
O446 Co435 2.039 1_554 S
O446 C436 1.265 . S
C447 O443 1.253 . S
C447 O448 1.227 . S
O448 C447 1.227 . S
N449 Co435 2.140 . S
N449 C452 1.346 . S
N449 C453 1.345 1_556 S
C450 C451 1.385 1_554 S
C450 C454 1.393 . S
C451 C450 1.385 1_556 S
C451 C452 1.369 . S
C451 H460 0.929 . S
C452 N449 1.346 . S
C452 C451 1.369 . S
C452 H455 0.928 . S
C453 N449 1.345 1_554 S
C453 C454 1.371 . S
C453 H456 0.931 . S
C454 C450 1.393 . S
C454 C453 1.371 . S
C454 H461 0.930 . S
H455 C452 0.928 . S
H456 C453 0.931 . S
H457 C433 0.930 . S
H458 C430 0.930 . S
H459 C439 0.930 . S
H460 C451 0.929 . S
H461 C454 0.930 . S
C462 C463 1.351 . S
C462 N465 1.368 . S
C462 H467 0.931 . S
C463 C462 1.351 . S
C463 N464 1.373 . S
C463 H491 0.930 . S
N464 C463 1.373 . S
N464 C466 1.340 . S
N465 C462 1.368 . S
N465 C466 1.321 . S
N465 Co468 2.135 . S
C466 N464 1.340 . S
C466 N465 1.321 . S
C466 H490 0.930 . S
H467 C462 0.931 . S
Co468 N465 2.135 . S
Co468 N471 2.121 1_556 S
Co468 O476 2.055 . S
Co468 O479 2.039 1_556 S
Co468 N482 2.140 . S
C469 O470 1.227 . S
C469 O479 1.265 . S
O470 C469 1.227 . S
N471 Co468 2.121 1_554 S
N471 C473 1.375 . S
N471 C474 1.313 . S
C472 C473 1.338 . S
C472 N475 1.377 . S
C472 H492 0.930 . S
C473 N471 1.375 . S
C473 C472 1.338 . S
C473 H477 0.931 . S
C474 N471 1.313 . S
C474 N475 1.344 . S
C474 H478 0.930 . S
N475 C472 1.377 . S
N475 C474 1.344 . S
O476 Co468 2.055 . S
O476 C480 1.253 . S
H477 C473 0.931 . S
H478 C474 0.930 . S
O479 Co468 2.039 1_554 S
O479 C469 1.265 . S
C480 O476 1.253 . S
C480 O481 1.227 . S
O481 C480 1.227 . S
N482 Co468 2.140 . S
N482 C485 1.346 . S
N482 C486 1.345 1_556 S
C483 C484 1.385 1_554 S
C483 C487 1.393 . S
C484 C483 1.385 1_556 S
C484 C485 1.369 . S
C484 H493 0.929 . S
C485 N482 1.346 . S
C485 C484 1.369 . S
C485 H488 0.928 . S
C486 N482 1.345 1_554 S
C486 C487 1.371 . S
C486 H489 0.931 . S
C487 C483 1.393 . S
C487 C486 1.371 . S
C487 H494 0.930 . S
H488 C485 0.928 . S
H489 C486 0.931 . S
H490 C466 0.930 . S
H491 C463 0.930 . S
H492 C472 0.930 . S
H493 C484 0.929 . S
H494 C487 0.930 . S
C495 C496 1.351 . S
C495 N498 1.368 . S
C495 H500 0.931 . S
C496 C495 1.351 . S
C496 N497 1.373 . S
C496 H524 0.930 . S
N497 C496 1.373 . S
N497 C499 1.340 . S
N498 C495 1.368 . S
N498 C499 1.321 . S
N498 Co501 2.135 . S
C499 N497 1.340 . S
C499 N498 1.321 . S
C499 H523 0.930 . S
H500 C495 0.931 . S
Co501 N498 2.135 . S
Co501 N504 2.121 1_556 S
Co501 O509 2.055 . S
Co501 O512 2.039 1_556 S
Co501 N515 2.140 . S
C502 O503 1.227 . S
C502 O512 1.265 . S
O503 C502 1.227 . S
N504 Co501 2.121 1_554 S
N504 C506 1.375 . S
N504 C507 1.313 . S
C505 C506 1.338 . S
C505 N508 1.377 . S
C505 H525 0.930 . S
C506 N504 1.375 . S
C506 C505 1.338 . S
C506 H510 0.931 . S
C507 N504 1.313 . S
C507 N508 1.344 . S
C507 H511 0.930 . S
N508 C505 1.377 . S
N508 C507 1.344 . S
O509 Co501 2.055 . S
O509 C513 1.253 . S
H510 C506 0.931 . S
H511 C507 0.930 . S
O512 Co501 2.039 1_554 S
O512 C502 1.265 . S
C513 O509 1.253 . S
C513 O514 1.227 . S
O514 C513 1.227 . S
N515 Co501 2.140 . S
N515 C518 1.346 . S
N515 C519 1.345 1_556 S
C516 C517 1.385 1_554 S
C516 C520 1.393 . S
C517 C516 1.385 1_556 S
C517 C518 1.369 . S
C517 H526 0.929 . S
C518 N515 1.346 . S
C518 C517 1.369 . S
C518 H521 0.928 . S
C519 N515 1.345 1_554 S
C519 C520 1.371 . S
C519 H522 0.931 . S
C520 C516 1.393 . S
C520 C519 1.371 . S
C520 H527 0.930 . S
H521 C518 0.928 . S
H522 C519 0.931 . S
H523 C499 0.930 . S
H524 C496 0.930 . S
H525 C505 0.930 . S
H526 C517 0.929 . S
H527 C520 0.930 . S
C528 C529 1.353 . S
C528 C530 1.327 . S
C528 H553 0.950 . S
C529 C528 1.353 . S
C529 C545 1.345 1_556 S
C530 C528 1.327 . S
C530 C549 1.428 . S
C530 H554 0.950 . S
C531 C548 1.574 . S
C531 C550 1.368 . S
C531 H555 0.949 . S
H532 C536 0.949 . S
C533 C534 1.362 . S
C533 C535 1.327 . S
C533 H556 0.950 . S
C534 C533 1.362 . S
C534 C546 1.336 1_554 S
C535 C533 1.327 . S
C535 C551 1.436 . S
C535 H557 0.950 . S
C536 H532 0.949 . S
C536 C544 1.574 . S
C536 C552 1.363 1_556 S
H537 C545 0.950 . S
H538 C543 0.950 . S
H539 C544 0.949 . S
H540 C546 0.950 . S
H541 C547 0.950 . S
H542 C548 0.949 . S
C543 H538 0.950 . S
C543 C545 1.327 . S
C543 C549 1.429 1_554 S
C544 C536 1.574 . S
C544 H539 0.949 . S
C544 C550 1.368 1_556 S
C545 C529 1.345 1_554 S
C545 H537 0.950 . S
C545 C543 1.327 . S
C546 C534 1.336 1_556 S
C546 H540 0.950 . S
C546 C547 1.327 . S
C547 H541 0.950 . S
C547 C546 1.327 . S
C547 C551 1.421 1_556 S
C548 C531 1.574 . S
C548 H542 0.949 . S
C548 C552 1.374 . S
C549 C530 1.428 . S
C549 C543 1.429 1_556 S
C549 C550 1.523 1_556 S
C550 C531 1.368 . S
C550 C544 1.368 1_554 S
C550 C549 1.523 1_554 S
C551 C535 1.436 . S
C551 C547 1.421 1_554 S
C551 C552 1.523 . S
C552 C536 1.363 1_554 S
C552 C548 1.374 . S
C552 C551 1.523 . S
H553 C528 0.950 . S
H554 C530 0.950 . S
H555 C531 0.949 . S
H556 C533 0.950 . S
H557 C535 0.950 . S
C558 C559 1.336 1_556 S
C558 C560 1.327 . S
C558 H583 0.950 . S
C559 C558 1.336 1_554 S
C559 C575 1.362 . S
C560 C558 1.327 . S
C560 C579 1.421 1_556 S
C560 H584 0.950 . S
C561 C578 1.574 . S
C561 C580 1.374 . S
C561 H585 0.949 . S
H562 C566 0.949 . S
C563 C564 1.345 1_554 S
C563 C565 1.327 . S
C563 H586 0.950 . S
C564 C563 1.345 1_556 S
C564 C576 1.353 . S
C565 C563 1.327 . S
C565 C581 1.429 1_554 S
C565 H587 0.950 . S
C566 H562 0.949 . S
C566 C574 1.574 . S
C566 C582 1.368 1_556 S
H567 C575 0.950 . S
H568 C573 0.950 . S
H569 C574 0.949 . S
H570 C576 0.950 . S
H571 C577 0.950 . S
H572 C578 0.949 . S
C573 H568 0.950 . S
C573 C575 1.327 . S
C573 C579 1.436 . S
C574 C566 1.574 . S
C574 H569 0.949 . S
C574 C580 1.363 1_556 S
C575 C559 1.362 . S
C575 H567 0.950 . S
C575 C573 1.327 . S
C576 C564 1.353 . S
C576 H570 0.950 . S
C576 C577 1.327 . S
C577 H571 0.950 . S
C577 C576 1.327 . S
C577 C581 1.428 . S
C578 C561 1.574 . S
C578 H572 0.949 . S
C578 C582 1.368 . S
C579 C560 1.421 1_554 S
C579 C573 1.436 . S
C579 C580 1.523 . S
C580 C561 1.374 . S
C580 C574 1.363 1_554 S
C580 C579 1.523 . S
C581 C565 1.429 1_556 S
C581 C577 1.428 . S
C581 C582 1.523 1_556 S
C582 C566 1.368 1_554 S
C582 C578 1.368 . S
C582 C581 1.523 1_554 S
H583 C558 0.950 . S
H584 C560 0.950 . S
H585 C561 0.949 . S
H586 C563 0.950 . S
H587 C565 0.950 . S
C588 C589 1.336 1_556 S
C588 C590 1.327 . S
C588 H613 0.950 . S
C589 C588 1.336 1_554 S
C589 C605 1.362 . S
C590 C588 1.327 . S
C590 C609 1.421 1_556 S
C590 H614 0.950 . S
C591 C608 1.574 . S
C591 C610 1.374 . S
C591 H615 0.949 . S
H592 C596 0.949 . S
C593 C594 1.345 1_554 S
C593 C595 1.327 . S
C593 H616 0.950 . S
C594 C593 1.345 1_556 S
C594 C606 1.353 . S
C595 C593 1.327 . S
C595 C611 1.429 1_554 S
C595 H617 0.950 . S
C596 H592 0.949 . S
C596 C604 1.574 . S
C596 C612 1.368 1_556 S
H597 C605 0.950 . S
H598 C603 0.950 . S
H599 C604 0.949 . S
H600 C606 0.950 . S
H601 C607 0.950 . S
H602 C608 0.949 . S
C603 H598 0.950 . S
C603 C605 1.327 . S
C603 C609 1.436 . S
C604 C596 1.574 . S
C604 H599 0.949 . S
C604 C610 1.363 1_556 S
C605 C589 1.362 . S
C605 H597 0.950 . S
C605 C603 1.327 . S
C606 C594 1.353 . S
C606 H600 0.950 . S
C606 C607 1.327 . S
C607 H601 0.950 . S
C607 C606 1.327 . S
C607 C611 1.428 . S
C608 C591 1.574 . S
C608 H602 0.949 . S
C608 C612 1.368 . S
C609 C590 1.421 1_554 S
C609 C603 1.436 . S
C609 C610 1.523 . S
C610 C591 1.374 . S
C610 C604 1.363 1_554 S
C610 C609 1.523 . S
C611 C595 1.429 1_556 S
C611 C607 1.428 . S
C611 C612 1.523 1_556 S
C612 C596 1.368 1_554 S
C612 C608 1.368 . S
C612 C611 1.523 1_554 S
H613 C588 0.950 . S
H614 C590 0.950 . S
H615 C591 0.949 . S
H616 C593 0.950 . S
H617 C595 0.950 . S
C618 C619 1.362 . S
C618 C620 1.327 . S
C618 H643 0.950 . S
C619 C618 1.362 . S
C619 C635 1.336 1_554 S
C620 C618 1.327 . S
C620 C639 1.436 . S
C620 H644 0.950 . S
C621 C638 1.574 . S
C621 C640 1.363 1_556 S
C621 H645 0.949 . S
H622 C626 0.949 . S
C623 C624 1.353 . S
C623 C625 1.327 . S
C623 H646 0.950 . S
C624 C623 1.353 . S
C624 C636 1.345 1_556 S
C625 C623 1.327 . S
C625 C641 1.428 . S
C625 H647 0.950 . S
C626 H622 0.949 . S
C626 C634 1.574 . S
C626 C642 1.368 . S
H627 C635 0.950 . S
H628 C633 0.950 . S
H629 C634 0.949 . S
H630 C636 0.950 . S
H631 C637 0.950 . S
H632 C638 0.949 . S
C633 H628 0.950 . S
C633 C635 1.327 . S
C633 C639 1.421 1_556 S
C634 C626 1.574 . S
C634 H629 0.949 . S
C634 C640 1.374 . S
C635 C619 1.336 1_556 S
C635 H627 0.950 . S
C635 C633 1.327 . S
C636 C624 1.345 1_554 S
C636 H630 0.950 . S
C636 C637 1.327 . S
C637 H631 0.950 . S
C637 C636 1.327 . S
C637 C641 1.429 1_554 S
C638 C621 1.574 . S
C638 H632 0.949 . S
C638 C642 1.368 1_556 S
C639 C620 1.436 . S
C639 C633 1.421 1_554 S
C639 C640 1.523 . S
C640 C621 1.363 1_554 S
C640 C634 1.374 . S
C640 C639 1.523 . S
C641 C625 1.428 . S
C641 C637 1.429 1_556 S
C641 C642 1.523 1_556 S
C642 C626 1.368 . S
C642 C638 1.368 1_554 S
C642 C641 1.523 1_554 S
H643 C618 0.950 . S
H644 C620 0.950 . S
H645 C621 0.949 . S
H646 C623 0.950 . S
H647 C625 0.950 . S
C648 C649 1.349 . S
C648 C650 1.327 . S
C648 H673 0.950 . S
C649 C648 1.349 . S
C649 C665 1.349 . S
C650 C648 1.327 . S
C650 C669 1.429 . S
C650 H674 0.950 . S
C651 C668 1.574 . S
C651 C670 1.368 . S
C651 H675 0.949 . S
H652 C656 0.949 . S
C653 C654 1.349 . S
C653 C655 1.327 . S
C653 H676 0.950 . S
C654 C653 1.349 . S
C654 C666 1.349 . S
C655 C653 1.327 . S
C655 C671 1.429 . S
C655 H677 0.950 . S
C656 H652 0.949 . S
C656 C664 1.574 . S
C656 C672 1.368 . S
H657 C665 0.950 . S
H658 C663 0.950 . S
H659 C664 0.949 . S
H660 C666 0.950 . S
H661 C667 0.950 . S
H662 C668 0.949 . S
C663 H658 0.950 . S
C663 C665 1.327 . S
C663 C669 1.429 . S
C664 C656 1.574 . S
C664 H659 0.949 . S
C664 C670 1.368 . S
C665 C649 1.349 . S
C665 H657 0.950 . S
C665 C663 1.327 . S
C666 C654 1.349 . S
C666 H660 0.950 . S
C666 C667 1.327 . S
C667 H661 0.950 . S
C667 C666 1.327 . S
C667 C671 1.429 . S
C668 C651 1.574 . S
C668 H662 0.949 . S
C668 C672 1.368 . S
C669 C650 1.429 . S
C669 C663 1.429 . S
C669 C670 1.523 . S
C670 C651 1.368 . S
C670 C664 1.368 . S
C670 C669 1.523 . S
C671 C655 1.429 . S
C671 C667 1.429 . S
C671 C672 1.523 . S
C672 C656 1.368 . S
C672 C668 1.368 . S
C672 C671 1.523 . S
H673 C648 0.950 . S
H674 C650 0.950 . S
H675 C651 0.949 . S
H676 C653 0.950 . S
H677 C655 0.950 . S
C678 C679 1.349 . S
C678 C680 1.327 . S
C678 H703 0.950 . S
C679 C678 1.349 . S
C679 C695 1.349 . S
C680 C678 1.327 . S
C680 C699 1.429 . S
C680 H704 0.950 . S
C681 C698 1.574 . S
C681 C700 1.368 . S
C681 H705 0.949 . S
H682 C686 0.949 . S
C683 C684 1.349 . S
C683 C685 1.327 . S
C683 H706 0.950 . S
C684 C683 1.349 . S
C684 C696 1.349 . S
C685 C683 1.327 . S
C685 C701 1.429 . S
C685 H707 0.950 . S
C686 H682 0.949 . S
C686 C694 1.574 . S
C686 C702 1.368 . S
H687 C695 0.950 . S
H688 C693 0.950 . S
H689 C694 0.949 . S
H690 C696 0.950 . S
H691 C697 0.950 . S
H692 C698 0.949 . S
C693 H688 0.950 . S
C693 C695 1.327 . S
C693 C699 1.429 . S
C694 C686 1.574 . S
C694 H689 0.949 . S
C694 C700 1.368 . S
C695 C679 1.349 . S
C695 H687 0.950 . S
C695 C693 1.327 . S
C696 C684 1.349 . S
C696 H690 0.950 . S
C696 C697 1.327 . S
C697 H691 0.950 . S
C697 C696 1.327 . S
C697 C701 1.429 . S
C698 C681 1.574 . S
C698 H692 0.949 . S
C698 C702 1.368 . S
C699 C680 1.429 . S
C699 C693 1.429 . S
C699 C700 1.523 . S
C700 C681 1.368 . S
C700 C694 1.368 . S
C700 C699 1.523 . S
C701 C685 1.429 . S
C701 C697 1.429 . S
C701 C702 1.523 . S
C702 C686 1.368 . S
C702 C698 1.368 . S
C702 C701 1.523 . S
H703 C678 0.950 . S
H704 C680 0.950 . S
H705 C681 0.949 . S
H706 C683 0.950 . S
H707 C685 0.950 . S
C708 C709 1.349 . S
C708 C710 1.327 . S
C708 H733 0.950 . S
C709 C708 1.349 . S
C709 C725 1.349 . S
C710 C708 1.327 . S
C710 C729 1.429 . S
C710 H734 0.950 . S
C711 C728 1.574 . S
C711 C730 1.368 . S
C711 H735 0.949 . S
H712 C716 0.949 . S
C713 C714 1.349 . S
C713 C715 1.327 . S
C713 H736 0.950 . S
C714 C713 1.349 . S
C714 C726 1.349 . S
C715 C713 1.327 . S
C715 C731 1.429 . S
C715 H737 0.950 . S
C716 H712 0.949 . S
C716 C724 1.574 . S
C716 C732 1.368 . S
H717 C725 0.950 . S
H718 C723 0.950 . S
H719 C724 0.949 . S
H720 C726 0.950 . S
H721 C727 0.950 . S
H722 C728 0.949 . S
C723 H718 0.950 . S
C723 C725 1.327 . S
C723 C729 1.429 . S
C724 C716 1.574 . S
C724 H719 0.949 . S
C724 C730 1.368 . S
C725 C709 1.349 . S
C725 H717 0.950 . S
C725 C723 1.327 . S
C726 C714 1.349 . S
C726 H720 0.950 . S
C726 C727 1.327 . S
C727 H721 0.950 . S
C727 C726 1.327 . S
C727 C731 1.429 . S
C728 C711 1.574 . S
C728 H722 0.949 . S
C728 C732 1.368 . S
C729 C710 1.429 . S
C729 C723 1.429 . S
C729 C730 1.523 . S
C730 C711 1.368 . S
C730 C724 1.368 . S
C730 C729 1.523 . S
C731 C715 1.429 . S
C731 C727 1.429 . S
C731 C732 1.523 . S
C732 C716 1.368 . S
C732 C728 1.368 . S
C732 C731 1.523 . S
H733 C708 0.950 . S
H734 C710 0.950 . S
H735 C711 0.949 . S
H736 C713 0.950 . S
H737 C715 0.950 . S
C738 C739 1.349 . S
C738 C740 1.327 . S
C738 H763 0.950 . S
C739 C738 1.349 . S
C739 C755 1.349 . S
C740 C738 1.327 . S
C740 C759 1.429 . S
C740 H764 0.950 . S
C741 C758 1.574 . S
C741 C760 1.368 . S
C741 H765 0.949 . S
H742 C746 0.949 . S
C743 C744 1.349 . S
C743 C745 1.327 . S
C743 H766 0.950 . S
C744 C743 1.349 . S
C744 C756 1.349 . S
C745 C743 1.327 . S
C745 C761 1.429 . S
C745 H767 0.950 . S
C746 H742 0.949 . S
C746 C754 1.574 . S
C746 C762 1.368 . S
H747 C755 0.950 . S
H748 C753 0.950 . S
H749 C754 0.949 . S
H750 C756 0.950 . S
H751 C757 0.950 . S
H752 C758 0.949 . S
C753 H748 0.950 . S
C753 C755 1.327 . S
C753 C759 1.429 . S
C754 C746 1.574 . S
C754 H749 0.949 . S
C754 C760 1.368 . S
C755 C739 1.349 . S
C755 H747 0.950 . S
C755 C753 1.327 . S
C756 C744 1.349 . S
C756 H750 0.950 . S
C756 C757 1.327 . S
C757 H751 0.950 . S
C757 C756 1.327 . S
C757 C761 1.429 . S
C758 C741 1.574 . S
C758 H752 0.949 . S
C758 C762 1.368 . S
C759 C740 1.429 . S
C759 C753 1.429 . S
C759 C760 1.523 . S
C760 C741 1.368 . S
C760 C754 1.368 . S
C760 C759 1.523 . S
C761 C745 1.429 . S
C761 C757 1.429 . S
C761 C762 1.523 . S
C762 C746 1.368 . S
C762 C758 1.368 . S
C762 C761 1.523 . S
H763 C738 0.950 . S
H764 C740 0.950 . S
H765 C741 0.949 . S
H766 C743 0.950 . S
H767 C745 0.950 . S
C768 C769 1.349 . S
C768 C770 1.327 . S
C768 H793 0.950 . S
C769 C768 1.349 . S
C769 C785 1.349 . S
C770 C768 1.327 . S
C770 C789 1.429 . S
C770 H794 0.950 . S
C771 C788 1.574 1_655 S
C771 C790 1.368 . S
C771 H795 0.949 . S
H772 C776 0.949 . S
C773 C774 1.349 . S
C773 C775 1.327 . S
C773 H796 0.950 . S
C774 C773 1.349 . S
C774 C786 1.349 . S
C775 C773 1.327 . S
C775 C791 1.429 . S
C775 H797 0.950 . S
C776 H772 0.949 . S
C776 C784 1.574 1_455 S
C776 C792 1.368 . S
H777 C785 0.950 . S
H778 C783 0.950 . S
H779 C784 0.949 . S
H780 C786 0.950 . S
H781 C787 0.950 . S
H782 C788 0.949 . S
C783 H778 0.950 . S
C783 C785 1.327 . S
C783 C789 1.429 . S
C784 C776 1.574 1_655 S
C784 H779 0.949 . S
C784 C790 1.368 . S
C785 C769 1.349 . S
C785 H777 0.950 . S
C785 C783 1.327 . S
C786 C774 1.349 . S
C786 H780 0.950 . S
C786 C787 1.327 . S
C787 H781 0.950 . S
C787 C786 1.327 . S
C787 C791 1.429 . S
C788 C771 1.574 1_455 S
C788 H782 0.949 . S
C788 C792 1.368 . S
C789 C770 1.429 . S
C789 C783 1.429 . S
C789 C790 1.523 . S
C790 C771 1.368 . S
C790 C784 1.368 . S
C790 C789 1.523 . S
C791 C775 1.429 . S
C791 C787 1.429 . S
C791 C792 1.523 . S
C792 C776 1.368 . S
C792 C788 1.368 . S
C792 C791 1.523 . S
H793 C768 0.950 . S
H794 C770 0.950 . S
H795 C771 0.949 . S
H796 C773 0.950 . S
H797 C775 0.950 . S
C798 C799 1.349 . S
C798 C800 1.327 . S
C798 H823 0.950 . S
C799 C798 1.349 . S
C799 C815 1.349 . S
C800 C798 1.327 . S
C800 C819 1.429 . S
C800 H824 0.950 . S
C801 C818 1.574 . S
C801 C820 1.368 . S
C801 H825 0.949 . S
H802 C806 0.949 . S
C803 C804 1.349 . S
C803 C805 1.327 . S
C803 H826 0.950 . S
C804 C803 1.349 . S
C804 C816 1.349 . S
C805 C803 1.327 . S
C805 C821 1.429 . S
C805 H827 0.950 . S
C806 H802 0.949 . S
C806 C814 1.574 . S
C806 C822 1.368 . S
H807 C815 0.950 . S
H808 C813 0.950 . S
H809 C814 0.949 . S
H810 C816 0.950 . S
H811 C817 0.950 . S
H812 C818 0.949 . S
C813 H808 0.950 . S
C813 C815 1.327 . S
C813 C819 1.429 . S
C814 C806 1.574 . S
C814 H809 0.949 . S
C814 C820 1.368 1_545 S
C815 C799 1.349 . S
C815 H807 0.950 . S
C815 C813 1.327 . S
C816 C804 1.349 . S
C816 H810 0.950 . S
C816 C817 1.327 . S
C817 H811 0.950 . S
C817 C816 1.327 . S
C817 C821 1.429 . S
C818 C801 1.574 . S
C818 H812 0.949 . S
C818 C822 1.368 1_565 S
C819 C800 1.429 . S
C819 C813 1.429 . S
C819 C820 1.523 . S
C820 C801 1.368 . S
C820 C814 1.368 1_565 S
C820 C819 1.523 . S
C821 C805 1.429 . S
C821 C817 1.429 . S
C821 C822 1.523 . S
C822 C806 1.368 . S
C822 C818 1.368 1_545 S
C822 C821 1.523 . S
H823 C798 0.950 . S
H824 C800 0.950 . S
H825 C801 0.949 . S
H826 C803 0.950 . S
H827 C805 0.950 . S
C828 C829 1.349 . S
C828 C830 1.327 . S
C828 H853 0.950 . S
C829 C828 1.349 . S
C829 C845 1.349 . S
C830 C828 1.327 . S
C830 C849 1.429 . S
C830 H854 0.950 . S
C831 C848 1.574 1_455 S
C831 C850 1.368 . S
C831 H855 0.949 . S
H832 C836 0.949 . S
C833 C834 1.349 . S
C833 C835 1.327 . S
C833 H856 0.950 . S
C834 C833 1.349 . S
C834 C846 1.349 . S
C835 C833 1.327 . S
C835 C851 1.429 . S
C835 H857 0.950 . S
C836 H832 0.949 . S
C836 C844 1.574 1_655 S
C836 C852 1.368 . S
H837 C845 0.950 . S
H838 C843 0.950 . S
H839 C844 0.949 . S
H840 C846 0.950 . S
H841 C847 0.950 . S
H842 C848 0.949 . S
C843 H838 0.950 . S
C843 C845 1.327 . S
C843 C849 1.429 . S
C844 C836 1.574 1_455 S
C844 H839 0.949 . S
C844 C850 1.368 . S
C845 C829 1.349 . S
C845 H837 0.950 . S
C845 C843 1.327 . S
C846 C834 1.349 . S
C846 H840 0.950 . S
C846 C847 1.327 . S
C847 H841 0.950 . S
C847 C846 1.327 . S
C847 C851 1.429 . S
C848 C831 1.574 1_655 S
C848 H842 0.949 . S
C848 C852 1.368 . S
C849 C830 1.429 . S
C849 C843 1.429 . S
C849 C850 1.523 . S
C850 C831 1.368 . S
C850 C844 1.368 . S
C850 C849 1.523 . S
C851 C835 1.429 . S
C851 C847 1.429 . S
C851 C852 1.523 . S
C852 C836 1.368 . S
C852 C848 1.368 . S
C852 C851 1.523 . S
H853 C828 0.950 . S
H854 C830 0.950 . S
H855 C831 0.949 . S
H856 C833 0.950 . S
H857 C835 0.950 . S
C858 C859 1.349 . S
C858 C860 1.327 . S
C858 H883 0.950 . S
C859 C858 1.349 . S
C859 C875 1.349 . S
C860 C858 1.327 . S
C860 C879 1.429 . S
C860 H884 0.950 . S
C861 C878 1.574 1_545 S
C861 C880 1.368 . S
C861 H885 0.949 . S
H862 C866 0.949 . S
C863 C864 1.349 . S
C863 C865 1.327 . S
C863 H886 0.950 . S
C864 C863 1.349 . S
C864 C876 1.349 . S
C865 C863 1.327 . S
C865 C881 1.429 . S
C865 H887 0.950 . S
C866 H862 0.949 . S
C866 C874 1.574 1_565 S
C866 C882 1.368 . S
H867 C875 0.950 . S
H868 C873 0.950 . S
H869 C874 0.949 . S
H870 C876 0.950 . S
H871 C877 0.950 . S
H872 C878 0.949 . S
C873 H868 0.950 . S
C873 C875 1.327 . S
C873 C879 1.429 . S
C874 C866 1.574 1_545 S
C874 H869 0.949 . S
C874 C880 1.368 . S
C875 C859 1.349 . S
C875 H867 0.950 . S
C875 C873 1.327 . S
C876 C864 1.349 . S
C876 H870 0.950 . S
C876 C877 1.327 . S
C877 H871 0.950 . S
C877 C876 1.327 . S
C877 C881 1.429 . S
C878 C861 1.574 1_565 S
C878 H872 0.949 . S
C878 C882 1.368 . S
C879 C860 1.429 . S
C879 C873 1.429 . S
C879 C880 1.523 . S
C880 C861 1.368 . S
C880 C874 1.368 . S
C880 C879 1.523 . S
C881 C865 1.429 . S
C881 C877 1.429 . S
C881 C882 1.523 . S
C882 C866 1.368 . S
C882 C878 1.368 . S
C882 C881 1.523 . S
H883 C858 0.950 . S
H884 C860 0.950 . S
H885 C861 0.949 . S
H886 C863 0.950 . S
H887 C865 0.950 . S
C888 C889 1.349 . S
C888 C890 1.327 . S
C888 H913 0.950 . S
C889 C888 1.349 . S
C889 C905 1.349 . S
C890 C888 1.327 . S
C890 C909 1.429 . S
C890 H914 0.950 . S
C891 C908 1.574 1_455 S
C891 C910 1.368 . S
C891 H915 0.949 . S
H892 C896 0.949 . S
C893 C894 1.349 . S
C893 C895 1.327 . S
C893 H916 0.950 . S
C894 C893 1.349 . S
C894 C906 1.349 . S
C895 C893 1.327 . S
C895 C911 1.429 . S
C895 H917 0.950 . S
C896 H892 0.949 . S
C896 C904 1.574 1_655 S
C896 C912 1.368 . S
H897 C905 0.950 . S
H898 C903 0.950 . S
H899 C904 0.949 . S
H900 C906 0.950 . S
H901 C907 0.950 . S
H902 C908 0.949 . S
C903 H898 0.950 . S
C903 C905 1.327 . S
C903 C909 1.429 . S
C904 C896 1.574 1_455 S
C904 H899 0.949 . S
C904 C910 1.368 . S
C905 C889 1.349 . S
C905 H897 0.950 . S
C905 C903 1.327 . S
C906 C894 1.349 . S
C906 H900 0.950 . S
C906 C907 1.327 . S
C907 H901 0.950 . S
C907 C906 1.327 . S
C907 C911 1.429 . S
C908 C891 1.574 1_655 S
C908 H902 0.949 . S
C908 C912 1.368 . S
C909 C890 1.429 . S
C909 C903 1.429 . S
C909 C910 1.523 . S
C910 C891 1.368 . S
C910 C904 1.368 . S
C910 C909 1.523 . S
C911 C895 1.429 . S
C911 C907 1.429 . S
C911 C912 1.523 . S
C912 C896 1.368 . S
C912 C908 1.368 . S
C912 C911 1.523 . S
H913 C888 0.950 . S
H914 C890 0.950 . S
H915 C891 0.949 . S
H916 C893 0.950 . S
H917 C895 0.950 . S
C918 C919 1.349 . S
C918 C920 1.327 . S
C918 H943 0.950 . S
C919 C918 1.349 . S
C919 C935 1.349 . S
C920 C918 1.327 . S
C920 C939 1.429 . S
C920 H944 0.950 . S
C921 C938 1.614 . S
C921 C940 1.328 1_545 S
C921 H945 0.949 . S
H922 C926 0.949 . S
C923 C924 1.349 . S
C923 C925 1.327 . S
C923 H946 0.950 . S
C924 C923 1.349 . S
C924 C936 1.349 . S
C925 C923 1.327 . S
C925 C941 1.429 . S
C925 H947 0.950 . S
C926 H922 0.949 . S
C926 C934 1.614 . S
C926 C942 1.328 1_565 S
H927 C935 0.950 . S
H928 C933 0.950 . S
H929 C934 0.949 . S
H930 C936 0.950 . S
H931 C937 0.950 . S
H932 C938 0.949 . S
C933 H928 0.950 . S
C933 C935 1.327 . S
C933 C939 1.429 . S
C934 C926 1.614 . S
C934 H929 0.949 . S
C934 C940 1.368 . S
C935 C919 1.349 . S
C935 H927 0.950 . S
C935 C933 1.327 . S
C936 C924 1.349 . S
C936 H930 0.950 . S
C936 C937 1.327 . S
C937 H931 0.950 . S
C937 C936 1.327 . S
C937 C941 1.429 . S
C938 C921 1.614 . S
C938 H932 0.949 . S
C938 C942 1.368 . S
C939 C920 1.429 . S
C939 C933 1.429 . S
C939 C940 1.523 . S
C940 C921 1.328 1_565 S
C940 C934 1.368 . S
C940 C939 1.523 . S
C941 C925 1.429 . S
C941 C937 1.429 . S
C941 C942 1.523 . S
C942 C926 1.328 1_545 S
C942 C938 1.368 . S
C942 C941 1.523 . S
H943 C918 0.950 . S
H944 C920 0.950 . S
H945 C921 0.949 . S
H946 C923 0.950 . S
H947 C925 0.950 . S
C948 C949 1.349 . S
C948 C950 1.327 . S
C948 H973 0.950 . S
C949 C948 1.349 . S
C949 C965 1.349 . S
C950 C948 1.327 . S
C950 C969 1.429 . S
C950 H974 0.950 . S
C951 C968 1.574 1_655 S
C951 C970 1.368 . S
C951 H975 0.949 . S
H952 C956 0.949 . S
C953 C954 1.349 . S
C953 C955 1.327 . S
C953 H976 0.950 . S
C954 C953 1.349 . S
C954 C966 1.349 . S
C955 C953 1.327 . S
C955 C971 1.429 . S
C955 H977 0.950 . S
C956 H952 0.949 . S
C956 C964 1.574 1_455 S
C956 C972 1.368 . S
H957 C965 0.950 . S
H958 C963 0.950 . S
H959 C964 0.949 . S
H960 C966 0.950 . S
H961 C967 0.950 . S
H962 C968 0.949 . S
C963 H958 0.950 . S
C963 C965 1.327 . S
C963 C969 1.429 . S
C964 C956 1.574 1_655 S
C964 H959 0.949 . S
C964 C970 1.368 . S
C965 C949 1.349 . S
C965 H957 0.950 . S
C965 C963 1.327 . S
C966 C954 1.349 . S
C966 H960 0.950 . S
C966 C967 1.327 . S
C967 H961 0.950 . S
C967 C966 1.327 . S
C967 C971 1.429 . S
C968 C951 1.574 1_455 S
C968 H962 0.949 . S
C968 C972 1.368 . S
C969 C950 1.429 . S
C969 C963 1.429 . S
C969 C970 1.523 . S
C970 C951 1.368 . S
C970 C964 1.368 . S
C970 C969 1.523 . S
C971 C955 1.429 . S
C971 C967 1.429 . S
C971 C972 1.523 . S
C972 C956 1.368 . S
C972 C968 1.368 . S
C972 C971 1.523 . S
H973 C948 0.950 . S
H974 C950 0.950 . S
H975 C951 0.949 . S
H976 C953 0.950 . S
H977 C955 0.950 . S
C978 C979 1.349 . S
C978 C980 1.327 . S
C978 H1003 0.950 . S
C979 C978 1.349 . S
C979 C995 1.349 . S
C980 C978 1.327 . S
C980 C999 1.429 . S
C980 H1004 0.950 . S
C981 C998 1.617 . S
C981 C1000 1.325 1_565 S
C981 H1005 0.949 . S
H982 C986 0.949 . S
C983 C984 1.349 . S
C983 C985 1.327 . S
C983 H1006 0.950 . S
C984 C983 1.349 . S
C984 C996 1.349 . S
C985 C983 1.327 . S
C985 C1001 1.429 . S
C985 H1007 0.950 . S
C986 H982 0.949 . S
C986 C994 1.617 . S
C986 C1002 1.325 1_545 S
H987 C995 0.950 . S
H988 C993 0.950 . S
H989 C994 0.949 . S
H990 C996 0.950 . S
H991 C997 0.950 . S
H992 C998 0.949 . S
C993 H988 0.950 . S
C993 C995 1.327 . S
C993 C999 1.429 . S
C994 C986 1.617 . S
C994 H989 0.949 . S
C994 C1000 1.368 . S
C995 C979 1.349 . S
C995 H987 0.950 . S
C995 C993 1.327 . S
C996 C984 1.349 . S
C996 H990 0.950 . S
C996 C997 1.327 . S
C997 H991 0.950 . S
C997 C996 1.327 . S
C997 C1001 1.429 . S
C998 C981 1.617 . S
C998 H992 0.949 . S
C998 C1002 1.368 . S
C999 C980 1.429 . S
C999 C993 1.429 . S
C999 C1000 1.523 . S
C1000 C981 1.325 1_545 S
C1000 C994 1.368 . S
C1000 C999 1.523 . S
C1001 C985 1.429 . S
C1001 C997 1.429 . S
C1001 C1002 1.523 . S
C1002 C986 1.325 1_565 S
C1002 C998 1.368 . S
C1002 C1001 1.523 . S
H1003 C978 0.950 . S
H1004 C980 0.950 . S
H1005 C981 0.949 . S
H1006 C983 0.950 . S
H1007 C985 0.950 . S
C1008 C1009 1.349 . S
C1008 C1010 1.327 . S
C1008 H1033 0.950 . S
C1009 C1008 1.349 . S
C1009 C1025 1.349 . S
C1010 C1008 1.327 . S
C1010 C1029 1.429 . S
C1010 H1034 0.950 . S
C1011 C1028 1.574 . S
C1011 C1030 1.368 . S
C1011 H1035 0.949 . S
H1012 C1016 0.949 . S
C1013 C1014 1.349 . S
C1013 C1015 1.327 . S
C1013 H1036 0.950 . S
C1014 C1013 1.349 . S
C1014 C1026 1.349 . S
C1015 C1013 1.327 . S
C1015 C1031 1.429 . S
C1015 H1037 0.950 . S
C1016 H1012 0.949 . S
C1016 C1024 1.574 . S
C1016 C1032 1.368 . S
H1017 C1025 0.950 . S
H1018 C1023 0.950 . S
H1019 C1024 0.949 . S
H1020 C1026 0.950 . S
H1021 C1027 0.950 . S
H1022 C1028 0.949 . S
C1023 H1018 0.950 . S
C1023 C1025 1.327 . S
C1023 C1029 1.429 . S
C1024 C1016 1.574 . S
C1024 H1019 0.949 . S
C1024 C1030 1.368 . S
C1025 C1009 1.349 . S
C1025 H1017 0.950 . S
C1025 C1023 1.327 . S
C1026 C1014 1.349 . S
C1026 H1020 0.950 . S
C1026 C1027 1.327 . S
C1027 H1021 0.950 . S
C1027 C1026 1.327 . S
C1027 C1031 1.429 . S
C1028 C1011 1.574 . S
C1028 H1022 0.949 . S
C1028 C1032 1.368 . S
C1029 C1010 1.429 . S
C1029 C1023 1.429 . S
C1029 C1030 1.523 . S
C1030 C1011 1.368 . S
C1030 C1024 1.368 . S
C1030 C1029 1.523 . S
C1031 C1015 1.429 . S
C1031 C1027 1.429 . S
C1031 C1032 1.523 . S
C1032 C1016 1.368 . S
C1032 C1028 1.368 . S
C1032 C1031 1.523 . S
H1033 C1008 0.950 . S
H1034 C1010 0.950 . S
H1035 C1011 0.949 . S
H1036 C1013 0.950 . S
H1037 C1015 0.950 . S
C1038 C1039 1.349 . S
C1038 C1040 1.327 . S
C1038 H1063 0.950 . S
C1039 C1038 1.349 . S
C1039 C1055 1.349 . S
C1040 C1038 1.327 . S
C1040 C1059 1.429 . S
C1040 H1064 0.950 . S
C1041 C1058 1.574 . S
C1041 C1060 1.368 . S
C1041 H1065 0.949 . S
H1042 C1046 0.949 . S
C1043 C1044 1.349 . S
C1043 C1045 1.327 . S
C1043 H1066 0.950 . S
C1044 C1043 1.349 . S
C1044 C1056 1.349 . S
C1045 C1043 1.327 . S
C1045 C1061 1.429 . S
C1045 H1067 0.950 . S
C1046 H1042 0.949 . S
C1046 C1054 1.574 . S
C1046 C1062 1.368 . S
H1047 C1055 0.950 . S
H1048 C1053 0.950 . S
H1049 C1054 0.949 . S
H1050 C1056 0.950 . S
H1051 C1057 0.950 . S
H1052 C1058 0.949 . S
C1053 H1048 0.950 . S
C1053 C1055 1.327 . S
C1053 C1059 1.429 . S
C1054 C1046 1.574 . S
C1054 H1049 0.949 . S
C1054 C1060 1.368 . S
C1055 C1039 1.349 . S
C1055 H1047 0.950 . S
C1055 C1053 1.327 . S
C1056 C1044 1.349 . S
C1056 H1050 0.950 . S
C1056 C1057 1.327 . S
C1057 H1051 0.950 . S
C1057 C1056 1.327 . S
C1057 C1061 1.429 . S
C1058 C1041 1.574 . S
C1058 H1052 0.949 . S
C1058 C1062 1.368 . S
C1059 C1040 1.429 . S
C1059 C1053 1.429 . S
C1059 C1060 1.523 . S
C1060 C1041 1.368 . S
C1060 C1054 1.368 . S
C1060 C1059 1.523 . S
C1061 C1045 1.429 . S
C1061 C1057 1.429 . S
C1061 C1062 1.523 . S
C1062 C1046 1.368 . S
C1062 C1058 1.368 . S
C1062 C1061 1.523 . S
H1063 C1038 0.950 . S
H1064 C1040 0.950 . S
H1065 C1041 0.949 . S
H1066 C1043 0.950 . S
H1067 C1045 0.950 . S
C1068 C1069 1.349 . S
C1068 C1070 1.327 . S
C1068 H1093 0.950 . S
C1069 C1068 1.349 . S
C1069 C1085 1.349 . S
C1070 C1068 1.327 . S
C1070 C1089 1.429 . S
C1070 H1094 0.950 . S
C1071 C1088 1.574 . S
C1071 C1090 1.368 . S
C1071 H1095 0.949 . S
H1072 C1076 0.949 . S
C1073 C1074 1.349 . S
C1073 C1075 1.327 . S
C1073 H1096 0.950 . S
C1074 C1073 1.349 . S
C1074 C1086 1.349 . S
C1075 C1073 1.327 . S
C1075 C1091 1.429 . S
C1075 H1097 0.950 . S
C1076 H1072 0.949 . S
C1076 C1084 1.574 . S
C1076 C1092 1.368 . S
H1077 C1085 0.950 . S
H1078 C1083 0.950 . S
H1079 C1084 0.949 . S
H1080 C1086 0.950 . S
H1081 C1087 0.950 . S
H1082 C1088 0.949 . S
C1083 H1078 0.950 . S
C1083 C1085 1.327 . S
C1083 C1089 1.429 . S
C1084 C1076 1.574 . S
C1084 H1079 0.949 . S
C1084 C1090 1.368 . S
C1085 C1069 1.349 . S
C1085 H1077 0.950 . S
C1085 C1083 1.327 . S
C1086 C1074 1.349 . S
C1086 H1080 0.950 . S
C1086 C1087 1.327 . S
C1087 H1081 0.950 . S
C1087 C1086 1.327 . S
C1087 C1091 1.429 . S
C1088 C1071 1.574 . S
C1088 H1082 0.949 . S
C1088 C1092 1.368 . S
C1089 C1070 1.429 . S
C1089 C1083 1.429 . S
C1089 C1090 1.523 . S
C1090 C1071 1.368 . S
C1090 C1084 1.368 . S
C1090 C1089 1.523 . S
C1091 C1075 1.429 . S
C1091 C1087 1.429 . S
C1091 C1092 1.523 . S
C1092 C1076 1.368 . S
C1092 C1088 1.368 . S
C1092 C1091 1.523 . S
H1093 C1068 0.950 . S
H1094 C1070 0.950 . S
H1095 C1071 0.949 . S
H1096 C1073 0.950 . S
H1097 C1075 0.950 . S
C1098 C1099 1.349 . S
C1098 C1100 1.327 . S
C1098 H1123 0.950 . S
C1099 C1098 1.349 . S
C1099 C1115 1.349 . S
C1100 C1098 1.327 . S
C1100 C1119 1.429 . S
C1100 H1124 0.950 . S
C1101 C1118 1.574 . S
C1101 C1120 1.368 . S
C1101 H1125 0.949 . S
H1102 C1106 0.949 . S
C1103 C1104 1.349 . S
C1103 C1105 1.327 . S
C1103 H1126 0.950 . S
C1104 C1103 1.349 . S
C1104 C1116 1.349 . S
C1105 C1103 1.327 . S
C1105 C1121 1.429 . S
C1105 H1127 0.950 . S
C1106 H1102 0.949 . S
C1106 C1114 1.574 . S
C1106 C1122 1.368 . S
H1107 C1115 0.950 . S
H1108 C1113 0.950 . S
H1109 C1114 0.949 . S
H1110 C1116 0.950 . S
H1111 C1117 0.950 . S
H1112 C1118 0.949 . S
C1113 H1108 0.950 . S
C1113 C1115 1.327 . S
C1113 C1119 1.429 . S
C1114 C1106 1.574 . S
C1114 H1109 0.949 . S
C1114 C1120 1.368 . S
C1115 C1099 1.349 . S
C1115 H1107 0.950 . S
C1115 C1113 1.327 . S
C1116 C1104 1.349 . S
C1116 H1110 0.950 . S
C1116 C1117 1.327 . S
C1117 H1111 0.950 . S
C1117 C1116 1.327 . S
C1117 C1121 1.429 . S
C1118 C1101 1.574 . S
C1118 H1112 0.949 . S
C1118 C1122 1.368 . S
C1119 C1100 1.429 . S
C1119 C1113 1.429 . S
C1119 C1120 1.523 . S
C1120 C1101 1.368 . S
C1120 C1114 1.368 . S
C1120 C1119 1.523 . S
C1121 C1105 1.429 . S
C1121 C1117 1.429 . S
C1121 C1122 1.523 . S
C1122 C1106 1.368 . S
C1122 C1118 1.368 . S
C1122 C1121 1.523 . S
H1123 C1098 0.950 . S
H1124 C1100 0.950 . S
H1125 C1101 0.949 . S
H1126 C1103 0.950 . S
H1127 C1105 0.950 . S
C1128 C1129 1.349 . S
C1128 C1130 1.327 . S
C1128 H1153 0.950 . S
C1129 C1128 1.349 . S
C1129 C1145 1.349 . S
C1130 C1128 1.327 . S
C1130 C1149 1.429 . S
C1130 H1154 0.950 . S
C1131 C1148 1.574 . S
C1131 C1150 1.368 . S
C1131 H1155 0.949 . S
H1132 C1136 0.949 . S
C1133 C1134 1.349 . S
C1133 C1135 1.327 . S
C1133 H1156 0.950 . S
C1134 C1133 1.349 . S
C1134 C1146 1.349 . S
C1135 C1133 1.327 . S
C1135 C1151 1.429 . S
C1135 H1157 0.950 . S
C1136 H1132 0.949 . S
C1136 C1144 1.574 . S
C1136 C1152 1.368 . S
H1137 C1145 0.950 . S
H1138 C1143 0.950 . S
H1139 C1144 0.949 . S
H1140 C1146 0.950 . S
H1141 C1147 0.950 . S
H1142 C1148 0.949 . S
C1143 H1138 0.950 . S
C1143 C1145 1.327 . S
C1143 C1149 1.429 . S
C1144 C1136 1.574 . S
C1144 H1139 0.949 . S
C1144 C1150 1.368 . S
C1145 C1129 1.349 . S
C1145 H1137 0.950 . S
C1145 C1143 1.327 . S
C1146 C1134 1.349 . S
C1146 H1140 0.950 . S
C1146 C1147 1.327 . S
C1147 H1141 0.950 . S
C1147 C1146 1.327 . S
C1147 C1151 1.429 . S
C1148 C1131 1.574 . S
C1148 H1142 0.949 . S
C1148 C1152 1.368 . S
C1149 C1130 1.429 . S
C1149 C1143 1.429 . S
C1149 C1150 1.523 . S
C1150 C1131 1.368 . S
C1150 C1144 1.368 . S
C1150 C1149 1.523 . S
C1151 C1135 1.429 . S
C1151 C1147 1.429 . S
C1151 C1152 1.523 . S
C1152 C1136 1.368 . S
C1152 C1148 1.368 . S
C1152 C1151 1.523 . S
H1153 C1128 0.950 . S
H1154 C1130 0.950 . S
H1155 C1131 0.949 . S
H1156 C1133 0.950 . S
H1157 C1135 0.950 . S
C1158 C1159 1.349 . S
C1158 C1160 1.327 . S
C1158 H1183 0.950 . S
C1159 C1158 1.349 . S
C1159 C1175 1.349 . S
C1160 C1158 1.327 . S
C1160 C1179 1.429 . S
C1160 H1184 0.950 . S
C1161 C1178 1.574 . S
C1161 C1180 1.368 . S
C1161 H1185 0.949 . S
H1162 C1166 0.949 . S
C1163 C1164 1.349 . S
C1163 C1165 1.327 . S
C1163 H1186 0.950 . S
C1164 C1163 1.349 . S
C1164 C1176 1.349 . S
C1165 C1163 1.327 . S
C1165 C1181 1.429 . S
C1165 H1187 0.950 . S
C1166 H1162 0.949 . S
C1166 C1174 1.574 . S
C1166 C1182 1.368 . S
H1167 C1175 0.950 . S
H1168 C1173 0.950 . S
H1169 C1174 0.949 . S
H1170 C1176 0.950 . S
H1171 C1177 0.950 . S
H1172 C1178 0.949 . S
C1173 H1168 0.950 . S
C1173 C1175 1.327 . S
C1173 C1179 1.429 . S
C1174 C1166 1.574 . S
C1174 H1169 0.949 . S
C1174 C1180 1.368 . S
C1175 C1159 1.349 . S
C1175 H1167 0.950 . S
C1175 C1173 1.327 . S
C1176 C1164 1.349 . S
C1176 H1170 0.950 . S
C1176 C1177 1.327 . S
C1177 H1171 0.950 . S
C1177 C1176 1.327 . S
C1177 C1181 1.429 . S
C1178 C1161 1.574 . S
C1178 H1172 0.949 . S
C1178 C1182 1.368 . S
C1179 C1160 1.429 . S
C1179 C1173 1.429 . S
C1179 C1180 1.523 . S
C1180 C1161 1.368 . S
C1180 C1174 1.368 . S
C1180 C1179 1.523 . S
C1181 C1165 1.429 . S
C1181 C1177 1.429 . S
C1181 C1182 1.523 . S
C1182 C1166 1.368 . S
C1182 C1178 1.368 . S
C1182 C1181 1.523 . S
H1183 C1158 0.950 . S
H1184 C1160 0.950 . S
H1185 C1161 0.949 . S
H1186 C1163 0.950 . S
H1187 C1165 0.950 . S
C1188 C1189 1.349 . S
C1188 C1190 1.327 . S
C1188 H1213 0.950 . S
C1189 C1188 1.349 . S
C1189 C1205 1.349 . S
C1190 C1188 1.327 . S
C1190 C1209 1.429 . S
C1190 H1214 0.950 . S
C1191 C1208 1.574 . S
C1191 C1210 1.368 . S
C1191 H1215 0.949 . S
H1192 C1196 0.949 . S
C1193 C1194 1.349 . S
C1193 C1195 1.327 . S
C1193 H1216 0.950 . S
C1194 C1193 1.349 . S
C1194 C1206 1.349 . S
C1195 C1193 1.327 . S
C1195 C1211 1.429 . S
C1195 H1217 0.950 . S
C1196 H1192 0.949 . S
C1196 C1204 1.574 . S
C1196 C1212 1.368 . S
H1197 C1205 0.950 . S
H1198 C1203 0.950 . S
H1199 C1204 0.949 . S
H1200 C1206 0.950 . S
H1201 C1207 0.950 . S
H1202 C1208 0.949 . S
C1203 H1198 0.950 . S
C1203 C1205 1.327 . S
C1203 C1209 1.429 . S
C1204 C1196 1.574 . S
C1204 H1199 0.949 . S
C1204 C1210 1.368 . S
C1205 C1189 1.349 . S
C1205 H1197 0.950 . S
C1205 C1203 1.327 . S
C1206 C1194 1.349 . S
C1206 H1200 0.950 . S
C1206 C1207 1.327 . S
C1207 H1201 0.950 . S
C1207 C1206 1.327 . S
C1207 C1211 1.429 . S
C1208 C1191 1.574 . S
C1208 H1202 0.949 . S
C1208 C1212 1.368 . S
C1209 C1190 1.429 . S
C1209 C1203 1.429 . S
C1209 C1210 1.523 . S
C1210 C1191 1.368 . S
C1210 C1204 1.368 . S
C1210 C1209 1.523 . S
C1211 C1195 1.429 . S
C1211 C1207 1.429 . S
C1211 C1212 1.523 . S
C1212 C1196 1.368 . S
C1212 C1208 1.368 . S
C1212 C1211 1.523 . S
H1213 C1188 0.950 . S
H1214 C1190 0.950 . S
H1215 C1191 0.949 . S
H1216 C1193 0.950 . S
H1217 C1195 0.950 . S
C1218 C1219 1.349 . S
C1218 C1220 1.327 . S
C1218 H1243 0.950 . S
C1219 C1218 1.349 . S
C1219 C1235 1.349 . S
C1220 C1218 1.327 . S
C1220 C1239 1.429 . S
C1220 H1244 0.950 . S
C1221 C1238 1.574 . S
C1221 C1240 1.368 . S
C1221 H1245 0.949 . S
H1222 C1226 0.949 . S
C1223 C1224 1.349 . S
C1223 C1225 1.327 . S
C1223 H1246 0.950 . S
C1224 C1223 1.349 . S
C1224 C1236 1.349 . S
C1225 C1223 1.327 . S
C1225 C1241 1.429 . S
C1225 H1247 0.950 . S
C1226 H1222 0.949 . S
C1226 C1234 1.574 . S
C1226 C1242 1.368 . S
H1227 C1235 0.950 . S
H1228 C1233 0.950 . S
H1229 C1234 0.949 . S
H1230 C1236 0.950 . S
H1231 C1237 0.950 . S
H1232 C1238 0.949 . S
C1233 H1228 0.950 . S
C1233 C1235 1.327 . S
C1233 C1239 1.429 . S
C1234 C1226 1.574 . S
C1234 H1229 0.949 . S
C1234 C1240 1.368 . S
C1235 C1219 1.349 . S
C1235 H1227 0.950 . S
C1235 C1233 1.327 . S
C1236 C1224 1.349 . S
C1236 H1230 0.950 . S
C1236 C1237 1.327 . S
C1237 H1231 0.950 . S
C1237 C1236 1.327 . S
C1237 C1241 1.429 . S
C1238 C1221 1.574 . S
C1238 H1232 0.949 . S
C1238 C1242 1.368 . S
C1239 C1220 1.429 . S
C1239 C1233 1.429 . S
C1239 C1240 1.523 . S
C1240 C1221 1.368 . S
C1240 C1234 1.368 . S
C1240 C1239 1.523 . S
C1241 C1225 1.429 . S
C1241 C1237 1.429 . S
C1241 C1242 1.523 . S
C1242 C1226 1.368 . S
C1242 C1238 1.368 . S
C1242 C1241 1.523 . S
H1243 C1218 0.950 . S
H1244 C1220 0.950 . S
H1245 C1221 0.949 . S
H1246 C1223 0.950 . S
H1247 C1225 0.950 . S
C1248 C1249 1.349 . S
C1248 C1250 1.327 . S
C1248 H1273 0.950 . S
C1249 C1248 1.349 . S
C1249 C1265 1.349 . S
C1250 C1248 1.327 . S
C1250 C1269 1.429 . S
C1250 H1274 0.950 . S
C1251 C1268 1.574 . S
C1251 C1270 1.368 . S
C1251 H1275 0.949 . S
H1252 C1256 0.949 . S
C1253 C1254 1.349 . S
C1253 C1255 1.327 . S
C1253 H1276 0.950 . S
C1254 C1253 1.349 . S
C1254 C1266 1.349 . S
C1255 C1253 1.327 . S
C1255 C1271 1.429 . S
C1255 H1277 0.950 . S
C1256 H1252 0.949 . S
C1256 C1264 1.574 . S
C1256 C1272 1.368 . S
H1257 C1265 0.950 . S
H1258 C1263 0.950 . S
H1259 C1264 0.949 . S
H1260 C1266 0.950 . S
H1261 C1267 0.950 . S
H1262 C1268 0.949 . S
C1263 H1258 0.950 . S
C1263 C1265 1.327 . S
C1263 C1269 1.429 . S
C1264 C1256 1.574 . S
C1264 H1259 0.949 . S
C1264 C1270 1.368 . S
C1265 C1249 1.349 . S
C1265 H1257 0.950 . S
C1265 C1263 1.327 . S
C1266 C1254 1.349 . S
C1266 H1260 0.950 . S
C1266 C1267 1.327 . S
C1267 H1261 0.950 . S
C1267 C1266 1.327 . S
C1267 C1271 1.429 . S
C1268 C1251 1.574 . S
C1268 H1262 0.949 . S
C1268 C1272 1.368 . S
C1269 C1250 1.429 . S
C1269 C1263 1.429 . S
C1269 C1270 1.523 . S
C1270 C1251 1.368 . S
C1270 C1264 1.368 . S
C1270 C1269 1.523 . S
C1271 C1255 1.429 . S
C1271 C1267 1.429 . S
C1271 C1272 1.523 . S
C1272 C1256 1.368 . S
C1272 C1268 1.368 . S
C1272 C1271 1.523 . S
H1273 C1248 0.950 . S
H1274 C1250 0.950 . S
H1275 C1251 0.949 . S
H1276 C1253 0.950 . S
H1277 C1255 0.950 . S
C1278 C1279 1.349 . S
C1278 C1280 1.327 . S
C1278 H1303 0.950 . S
C1279 C1278 1.349 . S
C1279 C1295 1.349 . S
C1280 C1278 1.327 . S
C1280 C1299 1.429 . S
C1280 H1304 0.950 . S
C1281 C1298 1.574 . S
C1281 C1300 1.368 . S
C1281 H1305 0.949 . S
H1282 C1286 0.949 . S
C1283 C1284 1.349 . S
C1283 C1285 1.327 . S
C1283 H1306 0.950 . S
C1284 C1283 1.349 . S
C1284 C1296 1.349 . S
C1285 C1283 1.327 . S
C1285 C1301 1.429 . S
C1285 H1307 0.950 . S
C1286 H1282 0.949 . S
C1286 C1294 1.574 . S
C1286 C1302 1.368 . S
H1287 C1295 0.950 . S
H1288 C1293 0.950 . S
H1289 C1294 0.949 . S
H1290 C1296 0.950 . S
H1291 C1297 0.950 . S
H1292 C1298 0.949 . S
C1293 H1288 0.950 . S
C1293 C1295 1.327 . S
C1293 C1299 1.429 . S
C1294 C1286 1.574 . S
C1294 H1289 0.949 . S
C1294 C1300 1.368 . S
C1295 C1279 1.349 . S
C1295 H1287 0.950 . S
C1295 C1293 1.327 . S
C1296 C1284 1.349 . S
C1296 H1290 0.950 . S
C1296 C1297 1.327 . S
C1297 H1291 0.950 . S
C1297 C1296 1.327 . S
C1297 C1301 1.429 . S
C1298 C1281 1.574 . S
C1298 H1292 0.949 . S
C1298 C1302 1.368 . S
C1299 C1280 1.429 . S
C1299 C1293 1.429 . S
C1299 C1300 1.523 . S
C1300 C1281 1.368 . S
C1300 C1294 1.368 . S
C1300 C1299 1.523 . S
C1301 C1285 1.429 . S
C1301 C1297 1.429 . S
C1301 C1302 1.523 . S
C1302 C1286 1.368 . S
C1302 C1298 1.368 . S
C1302 C1301 1.523 . S
H1303 C1278 0.950 . S
H1304 C1280 0.950 . S
H1305 C1281 0.949 . S
H1306 C1283 0.950 . S
H1307 C1285 0.950 . S
C1308 C1309 1.349 . S
C1308 C1310 1.327 . S
C1308 H1333 0.950 . S
C1309 C1308 1.349 . S
C1309 C1325 1.349 . S
C1310 C1308 1.327 . S
C1310 C1329 1.429 . S
C1310 H1334 0.950 . S
C1311 C1328 1.574 . S
C1311 C1330 1.368 . S
C1311 H1335 0.949 . S
H1312 C1316 0.949 . S
C1313 C1314 1.349 . S
C1313 C1315 1.327 . S
C1313 H1336 0.950 . S
C1314 C1313 1.349 . S
C1314 C1326 1.349 . S
C1315 C1313 1.327 . S
C1315 C1331 1.429 . S
C1315 H1337 0.950 . S
C1316 H1312 0.949 . S
C1316 C1324 1.574 . S
C1316 C1332 1.368 . S
H1317 C1325 0.950 . S
H1318 C1323 0.950 . S
H1319 C1324 0.949 . S
H1320 C1326 0.950 . S
H1321 C1327 0.950 . S
H1322 C1328 0.949 . S
C1323 H1318 0.950 . S
C1323 C1325 1.327 . S
C1323 C1329 1.429 . S
C1324 C1316 1.574 . S
C1324 H1319 0.949 . S
C1324 C1330 1.368 . S
C1325 C1309 1.349 . S
C1325 H1317 0.950 . S
C1325 C1323 1.327 . S
C1326 C1314 1.349 . S
C1326 H1320 0.950 . S
C1326 C1327 1.327 . S
C1327 H1321 0.950 . S
C1327 C1326 1.327 . S
C1327 C1331 1.429 . S
C1328 C1311 1.574 . S
C1328 H1322 0.949 . S
C1328 C1332 1.368 . S
C1329 C1310 1.429 . S
C1329 C1323 1.429 . S
C1329 C1330 1.523 . S
C1330 C1311 1.368 . S
C1330 C1324 1.368 . S
C1330 C1329 1.523 . S
C1331 C1315 1.429 . S
C1331 C1327 1.429 . S
C1331 C1332 1.523 . S
C1332 C1316 1.368 . S
C1332 C1328 1.368 . S
C1332 C1331 1.523 . S
H1333 C1308 0.950 . S
H1334 C1310 0.950 . S
H1335 C1311 0.949 . S
H1336 C1313 0.950 . S
H1337 C1315 0.950 . S
C1338 C1339 1.349 . S
C1338 C1340 1.327 . S
C1338 H1363 0.950 . S
C1339 C1338 1.349 . S
C1339 C1355 1.349 . S
C1340 C1338 1.327 . S
C1340 C1359 1.429 . S
C1340 H1364 0.950 . S
C1341 C1358 1.574 . S
C1341 C1360 1.368 . S
C1341 H1365 0.949 . S
H1342 C1346 0.949 . S
C1343 C1344 1.349 . S
C1343 C1345 1.327 . S
C1343 H1366 0.950 . S
C1344 C1343 1.349 . S
C1344 C1356 1.349 . S
C1345 C1343 1.327 . S
C1345 C1361 1.429 . S
C1345 H1367 0.950 . S
C1346 H1342 0.949 . S
C1346 C1354 1.574 . S
C1346 C1362 1.368 . S
H1347 C1355 0.950 . S
H1348 C1353 0.950 . S
H1349 C1354 0.949 . S
H1350 C1356 0.950 . S
H1351 C1357 0.950 . S
H1352 C1358 0.949 . S
C1353 H1348 0.950 . S
C1353 C1355 1.327 . S
C1353 C1359 1.429 . S
C1354 C1346 1.574 . S
C1354 H1349 0.949 . S
C1354 C1360 1.368 . S
C1355 C1339 1.349 . S
C1355 H1347 0.950 . S
C1355 C1353 1.327 . S
C1356 C1344 1.349 . S
C1356 H1350 0.950 . S
C1356 C1357 1.327 . S
C1357 H1351 0.950 . S
C1357 C1356 1.327 . S
C1357 C1361 1.429 . S
C1358 C1341 1.574 . S
C1358 H1352 0.949 . S
C1358 C1362 1.368 . S
C1359 C1340 1.429 . S
C1359 C1353 1.429 . S
C1359 C1360 1.523 . S
C1360 C1341 1.368 . S
C1360 C1354 1.368 . S
C1360 C1359 1.523 . S
C1361 C1345 1.429 . S
C1361 C1357 1.429 . S
C1361 C1362 1.523 . S
C1362 C1346 1.368 . S
C1362 C1358 1.368 . S
C1362 C1361 1.523 . S
H1363 C1338 0.950 . S
H1364 C1340 0.950 . S
H1365 C1341 0.949 . S
H1366 C1343 0.950 . S
H1367 C1345 0.950 . S
C1368 C1369 1.349 . S
C1368 C1370 1.327 . S
C1368 H1393 0.950 . S
C1369 C1368 1.349 . S
C1369 C1385 1.349 . S
C1370 C1368 1.327 . S
C1370 C1389 1.429 . S
C1370 H1394 0.950 . S
C1371 C1388 1.574 . S
C1371 C1390 1.368 . S
C1371 H1395 0.949 . S
H1372 C1376 0.949 . S
C1373 C1374 1.349 . S
C1373 C1375 1.327 . S
C1373 H1396 0.950 . S
C1374 C1373 1.349 . S
C1374 C1386 1.349 . S
C1375 C1373 1.327 . S
C1375 C1391 1.429 . S
C1375 H1397 0.950 . S
C1376 H1372 0.949 . S
C1376 C1384 1.574 . S
C1376 C1392 1.368 . S
H1377 C1385 0.950 . S
H1378 C1383 0.950 . S
H1379 C1384 0.949 . S
H1380 C1386 0.950 . S
H1381 C1387 0.950 . S
H1382 C1388 0.949 . S
C1383 H1378 0.950 . S
C1383 C1385 1.327 . S
C1383 C1389 1.429 . S
C1384 C1376 1.574 . S
C1384 H1379 0.949 . S
C1384 C1390 1.368 . S
C1385 C1369 1.349 . S
C1385 H1377 0.950 . S
C1385 C1383 1.327 . S
C1386 C1374 1.349 . S
C1386 H1380 0.950 . S
C1386 C1387 1.327 . S
C1387 H1381 0.950 . S
C1387 C1386 1.327 . S
C1387 C1391 1.429 . S
C1388 C1371 1.574 . S
C1388 H1382 0.949 . S
C1388 C1392 1.368 . S
C1389 C1370 1.429 . S
C1389 C1383 1.429 . S
C1389 C1390 1.523 . S
C1390 C1371 1.368 . S
C1390 C1384 1.368 . S
C1390 C1389 1.523 . S
C1391 C1375 1.429 . S
C1391 C1387 1.429 . S
C1391 C1392 1.523 . S
C1392 C1376 1.368 . S
C1392 C1388 1.368 . S
C1392 C1391 1.523 . S
H1393 C1368 0.950 . S
H1394 C1370 0.950 . S
H1395 C1371 0.949 . S
H1396 C1373 0.950 . S
H1397 C1375 0.950 . S
C1398 C1399 1.349 . S
C1398 C1400 1.327 . S
C1398 H1423 0.950 . S
C1399 C1398 1.349 . S
C1399 C1415 1.349 . S
C1400 C1398 1.327 . S
C1400 C1419 1.429 . S
C1400 H1424 0.950 . S
C1401 C1418 1.574 . S
C1401 C1420 1.368 . S
C1401 H1425 0.949 . S
H1402 C1406 0.949 . S
C1403 C1404 1.349 . S
C1403 C1405 1.327 . S
C1403 H1426 0.950 . S
C1404 C1403 1.349 . S
C1404 C1416 1.349 . S
C1405 C1403 1.327 . S
C1405 C1421 1.429 . S
C1405 H1427 0.950 . S
C1406 H1402 0.949 . S
C1406 C1414 1.574 . S
C1406 C1422 1.368 . S
H1407 C1415 0.950 . S
H1408 C1413 0.950 . S
H1409 C1414 0.949 . S
H1410 C1416 0.950 . S
H1411 C1417 0.950 . S
H1412 C1418 0.949 . S
C1413 H1408 0.950 . S
C1413 C1415 1.327 . S
C1413 C1419 1.429 . S
C1414 C1406 1.574 . S
C1414 H1409 0.949 . S
C1414 C1420 1.368 . S
C1415 C1399 1.349 . S
C1415 H1407 0.950 . S
C1415 C1413 1.327 . S
C1416 C1404 1.349 . S
C1416 H1410 0.950 . S
C1416 C1417 1.327 . S
C1417 H1411 0.950 . S
C1417 C1416 1.327 . S
C1417 C1421 1.429 . S
C1418 C1401 1.574 . S
C1418 H1412 0.949 . S
C1418 C1422 1.368 . S
C1419 C1400 1.429 . S
C1419 C1413 1.429 . S
C1419 C1420 1.523 . S
C1420 C1401 1.368 . S
C1420 C1414 1.368 . S
C1420 C1419 1.523 . S
C1421 C1405 1.429 . S
C1421 C1417 1.429 . S
C1421 C1422 1.523 . S
C1422 C1406 1.368 . S
C1422 C1418 1.368 . S
C1422 C1421 1.523 . S
H1423 C1398 0.950 . S
H1424 C1400 0.950 . S
H1425 C1401 0.949 . S
H1426 C1403 0.950 . S
H1427 C1405 0.950 . S
C1428 C1429 1.349 . S
C1428 C1430 1.327 . S
C1428 H1453 0.950 . S
C1429 C1428 1.349 . S
C1429 C1445 1.349 . S
C1430 C1428 1.327 . S
C1430 C1449 1.429 . S
C1430 H1454 0.950 . S
C1431 C1448 1.574 . S
C1431 C1450 1.368 . S
C1431 H1455 0.949 . S
H1432 C1436 0.949 . S
C1433 C1434 1.349 . S
C1433 C1435 1.327 . S
C1433 H1456 0.950 . S
C1434 C1433 1.349 . S
C1434 C1446 1.349 . S
C1435 C1433 1.327 . S
C1435 C1451 1.429 . S
C1435 H1457 0.950 . S
C1436 H1432 0.949 . S
C1436 C1444 1.574 . S
C1436 C1452 1.368 . S
H1437 C1445 0.950 . S
H1438 C1443 0.950 . S
H1439 C1444 0.949 . S
H1440 C1446 0.950 . S
H1441 C1447 0.950 . S
H1442 C1448 0.949 . S
C1443 H1438 0.950 . S
C1443 C1445 1.327 . S
C1443 C1449 1.429 . S
C1444 C1436 1.574 . S
C1444 H1439 0.949 . S
C1444 C1450 1.368 . S
C1445 C1429 1.349 . S
C1445 H1437 0.950 . S
C1445 C1443 1.327 . S
C1446 C1434 1.349 . S
C1446 H1440 0.950 . S
C1446 C1447 1.327 . S
C1447 H1441 0.950 . S
C1447 C1446 1.327 . S
C1447 C1451 1.429 . S
C1448 C1431 1.574 . S
C1448 H1442 0.949 . S
C1448 C1452 1.368 . S
C1449 C1430 1.429 . S
C1449 C1443 1.429 . S
C1449 C1450 1.523 . S
C1450 C1431 1.368 . S
C1450 C1444 1.368 . S
C1450 C1449 1.523 . S
C1451 C1435 1.429 . S
C1451 C1447 1.429 . S
C1451 C1452 1.523 . S
C1452 C1436 1.368 . S
C1452 C1448 1.368 . S
C1452 C1451 1.523 . S
H1453 C1428 0.950 . S
H1454 C1430 0.950 . S
H1455 C1431 0.949 . S
H1456 C1433 0.950 . S
H1457 C1435 0.950 . S
C1458 C1459 1.349 . S
C1458 C1460 1.327 . S
C1458 H1483 0.950 . S
C1459 C1458 1.349 . S
C1459 C1475 1.349 . S
C1460 C1458 1.327 . S
C1460 C1479 1.429 . S
C1460 H1484 0.950 . S
C1461 C1478 1.574 . S
C1461 C1480 1.368 . S
C1461 H1485 0.949 . S
H1462 C1466 0.949 . S
C1463 C1464 1.349 . S
C1463 C1465 1.327 . S
C1463 H1486 0.950 . S
C1464 C1463 1.349 . S
C1464 C1476 1.349 . S
C1465 C1463 1.327 . S
C1465 C1481 1.429 . S
C1465 H1487 0.950 . S
C1466 H1462 0.949 . S
C1466 C1474 1.574 . S
C1466 C1482 1.368 . S
H1467 C1475 0.950 . S
H1468 C1473 0.950 . S
H1469 C1474 0.949 . S
H1470 C1476 0.950 . S
H1471 C1477 0.950 . S
H1472 C1478 0.949 . S
C1473 H1468 0.950 . S
C1473 C1475 1.327 . S
C1473 C1479 1.429 . S
C1474 C1466 1.574 . S
C1474 H1469 0.949 . S
C1474 C1480 1.368 . S
C1475 C1459 1.349 . S
C1475 H1467 0.950 . S
C1475 C1473 1.327 . S
C1476 C1464 1.349 . S
C1476 H1470 0.950 . S
C1476 C1477 1.327 . S
C1477 H1471 0.950 . S
C1477 C1476 1.327 . S
C1477 C1481 1.429 . S
C1478 C1461 1.574 . S
C1478 H1472 0.949 . S
C1478 C1482 1.368 . S
C1479 C1460 1.429 . S
C1479 C1473 1.429 . S
C1479 C1480 1.523 . S
C1480 C1461 1.368 . S
C1480 C1474 1.368 . S
C1480 C1479 1.523 . S
C1481 C1465 1.429 . S
C1481 C1477 1.429 . S
C1481 C1482 1.523 . S
C1482 C1466 1.368 . S
C1482 C1478 1.368 . S
C1482 C1481 1.523 . S
H1483 C1458 0.950 . S
H1484 C1460 0.950 . S
H1485 C1461 0.949 . S
H1486 C1463 0.950 . S
H1487 C1465 0.950 . S
C1488 C1489 1.349 . S
C1488 C1490 1.327 . S
C1488 H1513 0.950 . S
C1489 C1488 1.349 . S
C1489 C1505 1.349 . S
C1490 C1488 1.327 . S
C1490 C1509 1.429 . S
C1490 H1514 0.950 . S
C1491 C1508 1.574 . S
C1491 C1510 1.368 . S
C1491 H1515 0.949 . S
H1492 C1496 0.949 . S
C1493 C1494 1.349 . S
C1493 C1495 1.327 . S
C1493 H1516 0.950 . S
C1494 C1493 1.349 . S
C1494 C1506 1.349 . S
C1495 C1493 1.327 . S
C1495 C1511 1.429 . S
C1495 H1517 0.950 . S
C1496 H1492 0.949 . S
C1496 C1504 1.574 . S
C1496 C1512 1.368 . S
H1497 C1505 0.950 . S
H1498 C1503 0.950 . S
H1499 C1504 0.949 . S
H1500 C1506 0.950 . S
H1501 C1507 0.950 . S
H1502 C1508 0.949 . S
C1503 H1498 0.950 . S
C1503 C1505 1.327 . S
C1503 C1509 1.429 . S
C1504 C1496 1.574 . S
C1504 H1499 0.949 . S
C1504 C1510 1.368 . S
C1505 C1489 1.349 . S
C1505 H1497 0.950 . S
C1505 C1503 1.327 . S
C1506 C1494 1.349 . S
C1506 H1500 0.950 . S
C1506 C1507 1.327 . S
C1507 H1501 0.950 . S
C1507 C1506 1.327 . S
C1507 C1511 1.429 . S
C1508 C1491 1.574 . S
C1508 H1502 0.949 . S
C1508 C1512 1.368 . S
C1509 C1490 1.429 . S
C1509 C1503 1.429 . S
C1509 C1510 1.523 . S
C1510 C1491 1.368 . S
C1510 C1504 1.368 . S
C1510 C1509 1.523 . S
C1511 C1495 1.429 . S
C1511 C1507 1.429 . S
C1511 C1512 1.523 . S
C1512 C1496 1.368 . S
C1512 C1508 1.368 . S
C1512 C1511 1.523 . S
H1513 C1488 0.950 . S
H1514 C1490 0.950 . S
H1515 C1491 0.949 . S
H1516 C1493 0.950 . S
H1517 C1495 0.950 . S
C1518 C1519 1.349 . S
C1518 C1520 1.327 . S
C1518 H1543 0.950 . S
C1519 C1518 1.349 . S
C1519 C1535 1.349 . S
C1520 C1518 1.327 . S
C1520 C1539 1.429 . S
C1520 H1544 0.950 . S
C1521 C1538 1.574 . S
C1521 C1540 1.368 . S
C1521 H1545 0.949 . S
H1522 C1526 0.949 . S
C1523 C1524 1.349 . S
C1523 C1525 1.327 . S
C1523 H1546 0.950 . S
C1524 C1523 1.349 . S
C1524 C1536 1.349 . S
C1525 C1523 1.327 . S
C1525 C1541 1.429 . S
C1525 H1547 0.950 . S
C1526 H1522 0.949 . S
C1526 C1534 1.574 . S
C1526 C1542 1.368 . S
H1527 C1535 0.950 . S
H1528 C1533 0.950 . S
H1529 C1534 0.949 . S
H1530 C1536 0.950 . S
H1531 C1537 0.950 . S
H1532 C1538 0.949 . S
C1533 H1528 0.950 . S
C1533 C1535 1.327 . S
C1533 C1539 1.429 . S
C1534 C1526 1.574 . S
C1534 H1529 0.949 . S
C1534 C1540 1.368 . S
C1535 C1519 1.349 . S
C1535 H1527 0.950 . S
C1535 C1533 1.327 . S
C1536 C1524 1.349 . S
C1536 H1530 0.950 . S
C1536 C1537 1.327 . S
C1537 H1531 0.950 . S
C1537 C1536 1.327 . S
C1537 C1541 1.429 . S
C1538 C1521 1.574 . S
C1538 H1532 0.949 . S
C1538 C1542 1.368 . S
C1539 C1520 1.429 . S
C1539 C1533 1.429 . S
C1539 C1540 1.523 . S
C1540 C1521 1.368 . S
C1540 C1534 1.368 . S
C1540 C1539 1.523 . S
C1541 C1525 1.429 . S
C1541 C1537 1.429 . S
C1541 C1542 1.523 . S
C1542 C1526 1.368 . S
C1542 C1538 1.368 . S
C1542 C1541 1.523 . S
H1543 C1518 0.950 . S
H1544 C1520 0.950 . S
H1545 C1521 0.949 . S
H1546 C1523 0.950 . S
H1547 C1525 0.950 . S
C1548 C1549 1.349 . S
C1548 C1550 1.327 . S
C1548 H1573 0.950 . S
C1549 C1548 1.349 . S
C1549 C1565 1.349 . S
C1550 C1548 1.327 . S
C1550 C1569 1.429 . S
C1550 H1574 0.950 . S
C1551 C1568 1.574 . S
C1551 C1570 1.368 . S
C1551 H1575 0.949 . S
H1552 C1556 0.949 . S
C1553 C1554 1.349 . S
C1553 C1555 1.327 . S
C1553 H1576 0.950 . S
C1554 C1553 1.349 . S
C1554 C1566 1.349 . S
C1555 C1553 1.327 . S
C1555 C1571 1.429 . S
C1555 H1577 0.950 . S
C1556 H1552 0.949 . S
C1556 C1564 1.574 . S
C1556 C1572 1.368 . S
H1557 C1565 0.950 . S
H1558 C1563 0.950 . S
H1559 C1564 0.949 . S
H1560 C1566 0.950 . S
H1561 C1567 0.950 . S
H1562 C1568 0.949 . S
C1563 H1558 0.950 . S
C1563 C1565 1.327 . S
C1563 C1569 1.429 . S
C1564 C1556 1.574 . S
C1564 H1559 0.949 . S
C1564 C1570 1.368 . S
C1565 C1549 1.349 . S
C1565 H1557 0.950 . S
C1565 C1563 1.327 . S
C1566 C1554 1.349 . S
C1566 H1560 0.950 . S
C1566 C1567 1.327 . S
C1567 H1561 0.950 . S
C1567 C1566 1.327 . S
C1567 C1571 1.429 . S
C1568 C1551 1.574 . S
C1568 H1562 0.949 . S
C1568 C1572 1.368 . S
C1569 C1550 1.429 . S
C1569 C1563 1.429 . S
C1569 C1570 1.523 . S
C1570 C1551 1.368 . S
C1570 C1564 1.368 . S
C1570 C1569 1.523 . S
C1571 C1555 1.429 . S
C1571 C1567 1.429 . S
C1571 C1572 1.523 . S
C1572 C1556 1.368 . S
C1572 C1568 1.368 . S
C1572 C1571 1.523 . S
H1573 C1548 0.950 . S
H1574 C1550 0.950 . S
H1575 C1551 0.949 . S
H1576 C1553 0.950 . S
H1577 C1555 0.950 . S
C1578 C1579 1.349 . S
C1578 C1580 1.327 . S
C1578 H1603 0.950 . S
C1579 C1578 1.349 . S
C1579 C1595 1.349 . S
C1580 C1578 1.327 . S
C1580 C1599 1.429 . S
C1580 H1604 0.950 . S
C1581 C1598 1.574 . S
C1581 C1600 1.368 . S
C1581 H1605 0.949 . S
H1582 C1586 0.949 . S
C1583 C1584 1.349 . S
C1583 C1585 1.327 . S
C1583 H1606 0.950 . S
C1584 C1583 1.349 . S
C1584 C1596 1.349 . S
C1585 C1583 1.327 . S
C1585 C1601 1.429 . S
C1585 H1607 0.950 . S
C1586 H1582 0.949 . S
C1586 C1594 1.574 . S
C1586 C1602 1.368 . S
H1587 C1595 0.950 . S
H1588 C1593 0.950 . S
H1589 C1594 0.949 . S
H1590 C1596 0.950 . S
H1591 C1597 0.950 . S
H1592 C1598 0.949 . S
C1593 H1588 0.950 . S
C1593 C1595 1.327 . S
C1593 C1599 1.429 . S
C1594 C1586 1.574 . S
C1594 H1589 0.949 . S
C1594 C1600 1.368 . S
C1595 C1579 1.349 . S
C1595 H1587 0.950 . S
C1595 C1593 1.327 . S
C1596 C1584 1.349 . S
C1596 H1590 0.950 . S
C1596 C1597 1.327 . S
C1597 H1591 0.950 . S
C1597 C1596 1.327 . S
C1597 C1601 1.429 . S
C1598 C1581 1.574 . S
C1598 H1592 0.949 . S
C1598 C1602 1.368 . S
C1599 C1580 1.429 . S
C1599 C1593 1.429 . S
C1599 C1600 1.523 . S
C1600 C1581 1.368 . S
C1600 C1594 1.368 . S
C1600 C1599 1.523 . S
C1601 C1585 1.429 . S
C1601 C1597 1.429 . S
C1601 C1602 1.523 . S
C1602 C1586 1.368 . S
C1602 C1598 1.368 . S
C1602 C1601 1.523 . S
H1603 C1578 0.950 . S
H1604 C1580 0.950 . S
H1605 C1581 0.949 . S
H1606 C1583 0.950 . S
H1607 C1585 0.950 . S
C1608 C1609 1.349 . S
C1608 C1610 1.327 . S
C1608 H1633 0.950 . S
C1609 C1608 1.349 . S
C1609 C1625 1.349 . S
C1610 C1608 1.327 . S
C1610 C1629 1.429 . S
C1610 H1634 0.950 . S
C1611 C1628 1.574 . S
C1611 C1630 1.368 . S
C1611 H1635 0.949 . S
H1612 C1616 0.949 . S
C1613 C1614 1.349 . S
C1613 C1615 1.327 . S
C1613 H1636 0.950 . S
C1614 C1613 1.349 . S
C1614 C1626 1.349 . S
C1615 C1613 1.327 . S
C1615 C1631 1.429 . S
C1615 H1637 0.950 . S
C1616 H1612 0.949 . S
C1616 C1624 1.574 . S
C1616 C1632 1.368 . S
H1617 C1625 0.950 . S
H1618 C1623 0.950 . S
H1619 C1624 0.949 . S
H1620 C1626 0.950 . S
H1621 C1627 0.950 . S
H1622 C1628 0.949 . S
C1623 H1618 0.950 . S
C1623 C1625 1.327 . S
C1623 C1629 1.429 . S
C1624 C1616 1.574 . S
C1624 H1619 0.949 . S
C1624 C1630 1.368 . S
C1625 C1609 1.349 . S
C1625 H1617 0.950 . S
C1625 C1623 1.327 . S
C1626 C1614 1.349 . S
C1626 H1620 0.950 . S
C1626 C1627 1.327 . S
C1627 H1621 0.950 . S
C1627 C1626 1.327 . S
C1627 C1631 1.429 . S
C1628 C1611 1.574 . S
C1628 H1622 0.949 . S
C1628 C1632 1.368 . S
C1629 C1610 1.429 . S
C1629 C1623 1.429 . S
C1629 C1630 1.523 . S
C1630 C1611 1.368 . S
C1630 C1624 1.368 . S
C1630 C1629 1.523 . S
C1631 C1615 1.429 . S
C1631 C1627 1.429 . S
C1631 C1632 1.523 . S
C1632 C1616 1.368 . S
C1632 C1628 1.368 . S
C1632 C1631 1.523 . S
H1633 C1608 0.950 . S
H1634 C1610 0.950 . S
H1635 C1611 0.949 . S
H1636 C1613 0.950 . S
H1637 C1615 0.950 . S
C1638 C1639 1.349 . S
C1638 C1640 1.327 . S
C1638 H1663 0.950 . S
C1639 C1638 1.349 . S
C1639 C1655 1.349 . S
C1640 C1638 1.327 . S
C1640 C1659 1.429 . S
C1640 H1664 0.950 . S
C1641 C1658 1.574 . S
C1641 C1660 1.368 . S
C1641 H1665 0.949 . S
H1642 C1646 0.949 . S
C1643 C1644 1.349 . S
C1643 C1645 1.327 . S
C1643 H1666 0.950 . S
C1644 C1643 1.349 . S
C1644 C1656 1.349 . S
C1645 C1643 1.327 . S
C1645 C1661 1.429 . S
C1645 H1667 0.950 . S
C1646 H1642 0.949 . S
C1646 C1654 1.574 . S
C1646 C1662 1.368 . S
H1647 C1655 0.950 . S
H1648 C1653 0.950 . S
H1649 C1654 0.949 . S
H1650 C1656 0.950 . S
H1651 C1657 0.950 . S
H1652 C1658 0.949 . S
C1653 H1648 0.950 . S
C1653 C1655 1.327 . S
C1653 C1659 1.429 . S
C1654 C1646 1.574 . S
C1654 H1649 0.949 . S
C1654 C1660 1.368 . S
C1655 C1639 1.349 . S
C1655 H1647 0.950 . S
C1655 C1653 1.327 . S
C1656 C1644 1.349 . S
C1656 H1650 0.950 . S
C1656 C1657 1.327 . S
C1657 H1651 0.950 . S
C1657 C1656 1.327 . S
C1657 C1661 1.429 . S
C1658 C1641 1.574 . S
C1658 H1652 0.949 . S
C1658 C1662 1.368 . S
C1659 C1640 1.429 . S
C1659 C1653 1.429 . S
C1659 C1660 1.523 . S
C1660 C1641 1.368 . S
C1660 C1654 1.368 . S
C1660 C1659 1.523 . S
C1661 C1645 1.429 . S
C1661 C1657 1.429 . S
C1661 C1662 1.523 . S
C1662 C1646 1.368 . S
C1662 C1658 1.368 . S
C1662 C1661 1.523 . S
H1663 C1638 0.950 . S
H1664 C1640 0.950 . S
H1665 C1641 0.949 . S
H1666 C1643 0.950 . S
H1667 C1645 0.950 . S
C1668 C1669 1.349 . S
C1668 C1670 1.327 . S
C1668 H1693 0.950 . S
C1669 C1668 1.349 . S
C1669 C1685 1.349 . S
C1670 C1668 1.327 . S
C1670 C1689 1.429 . S
C1670 H1694 0.950 . S
C1671 C1688 1.574 . S
C1671 C1690 1.368 . S
C1671 H1695 0.949 . S
H1672 C1676 0.949 . S
C1673 C1674 1.349 . S
C1673 C1675 1.327 . S
C1673 H1696 0.950 . S
C1674 C1673 1.349 . S
C1674 C1686 1.349 . S
C1675 C1673 1.327 . S
C1675 C1691 1.429 . S
C1675 H1697 0.950 . S
C1676 H1672 0.949 . S
C1676 C1684 1.574 . S
C1676 C1692 1.368 . S
H1677 C1685 0.950 . S
H1678 C1683 0.950 . S
H1679 C1684 0.949 . S
H1680 C1686 0.950 . S
H1681 C1687 0.950 . S
H1682 C1688 0.949 . S
C1683 H1678 0.950 . S
C1683 C1685 1.327 . S
C1683 C1689 1.429 . S
C1684 C1676 1.574 . S
C1684 H1679 0.949 . S
C1684 C1690 1.368 . S
C1685 C1669 1.349 . S
C1685 H1677 0.950 . S
C1685 C1683 1.327 . S
C1686 C1674 1.349 . S
C1686 H1680 0.950 . S
C1686 C1687 1.327 . S
C1687 H1681 0.950 . S
C1687 C1686 1.327 . S
C1687 C1691 1.429 . S
C1688 C1671 1.574 . S
C1688 H1682 0.949 . S
C1688 C1692 1.368 . S
C1689 C1670 1.429 . S
C1689 C1683 1.429 . S
C1689 C1690 1.523 . S
C1690 C1671 1.368 . S
C1690 C1684 1.368 . S
C1690 C1689 1.523 . S
C1691 C1675 1.429 . S
C1691 C1687 1.429 . S
C1691 C1692 1.523 . S
C1692 C1676 1.368 . S
C1692 C1688 1.368 . S
C1692 C1691 1.523 . S
H1693 C1668 0.950 . S
H1694 C1670 0.950 . S
H1695 C1671 0.949 . S
H1696 C1673 0.950 . S
H1697 C1675 0.950 . S
C1698 C1699 1.349 . S
C1698 C1700 1.327 . S
C1698 H1723 0.950 . S
C1699 C1698 1.349 . S
C1699 C1715 1.349 . S
C1700 C1698 1.327 . S
C1700 C1719 1.429 . S
C1700 H1724 0.950 . S
C1701 C1718 1.574 . S
C1701 C1720 1.368 . S
C1701 H1725 0.949 . S
H1702 C1706 0.949 . S
C1703 C1704 1.349 . S
C1703 C1705 1.327 . S
C1703 H1726 0.950 . S
C1704 C1703 1.349 . S
C1704 C1716 1.349 . S
C1705 C1703 1.327 . S
C1705 C1721 1.429 . S
C1705 H1727 0.950 . S
C1706 H1702 0.949 . S
C1706 C1714 1.574 . S
C1706 C1722 1.368 . S
H1707 C1715 0.950 . S
H1708 C1713 0.950 . S
H1709 C1714 0.949 . S
H1710 C1716 0.950 . S
H1711 C1717 0.950 . S
H1712 C1718 0.949 . S
C1713 H1708 0.950 . S
C1713 C1715 1.327 . S
C1713 C1719 1.429 . S
C1714 C1706 1.574 . S
C1714 H1709 0.949 . S
C1714 C1720 1.368 . S
C1715 C1699 1.349 . S
C1715 H1707 0.950 . S
C1715 C1713 1.327 . S
C1716 C1704 1.349 . S
C1716 H1710 0.950 . S
C1716 C1717 1.327 . S
C1717 H1711 0.950 . S
C1717 C1716 1.327 . S
C1717 C1721 1.429 . S
C1718 C1701 1.574 . S
C1718 H1712 0.949 . S
C1718 C1722 1.368 . S
C1719 C1700 1.429 . S
C1719 C1713 1.429 . S
C1719 C1720 1.523 . S
C1720 C1701 1.368 . S
C1720 C1714 1.368 . S
C1720 C1719 1.523 . S
C1721 C1705 1.429 . S
C1721 C1717 1.429 . S
C1721 C1722 1.523 . S
C1722 C1706 1.368 . S
C1722 C1718 1.368 . S
C1722 C1721 1.523 . S
H1723 C1698 0.950 . S
H1724 C1700 0.950 . S
H1725 C1701 0.949 . S
H1726 C1703 0.950 . S
H1727 C1705 0.950 . S
C529 C21 1.117 . S
C534 C516 1.117 . S
C559 C417 1.117 . S
C564 C54 1.117 . S
C589 C450 1.117 . S
C594 C87 1.117 . S
C619 C483 1.117 . S
C624 C120 1.117 . S
C649 C153 1.117 . S
C654 C318 1.117 . S
C679 C351 1.117 . S
C684 C186 1.117 . S
C709 C384 1.117 . S
C714 C219 1.117 . S
C739 C252 1.117 . S
C744 C285 1.117 . S
C769 C216 1.888 . S
C774 C18 1.888 . S
C799 C249 1.888 . S
C804 C51 1.888 . S
C829 C150 1.888 . S
C834 C84 1.888 . S
C859 C183 1.888 . S
C864 C117 1.888 . S
C889 N145 0.789 . S
C894 N79 0.789 . S
C919 N112 0.789 . S
C924 N178 0.789 . S
C949 N211 0.789 . S
C954 N13 0.789 . S
C979 N46 0.789 . S
C984 N244 0.789 . S
C1009 C282 1.888 . S
C1014 C480 1.888 . S
C1039 C513 1.888 . S
C1044 C315 1.888 . S
C1069 C414 1.888 . S
C1074 C348 1.888 . S
C1099 C447 1.888 . S
C1104 C381 1.888 . S
C1129 N409 0.789 . S
C1134 N343 0.789 . S
C1159 N442 0.789 . S
C1164 N376 0.789 . S
C1189 N277 0.789 . S
C1194 N475 0.789 . S
C1219 N310 0.789 . S
C1224 N508 0.789 . S
C1249 N167 0.818 . S
C1254 N2 0.818 . S
C1279 N35 0.818 . S
C1284 N200 0.818 . S
C1309 N233 0.818 . S
C1314 N68 0.818 . S
C1339 N101 0.818 . S
C1344 N134 0.818 . S
C1369 C73 2.179 . S
C1374 C238 2.179 . S
C1399 C139 2.179 . S
C1404 C106 2.179 . S
C1429 C172 2.179 . S
C1434 C7 2.179 . S
C1459 C40 2.179 . S
C1464 C205 2.179 . S
C1489 N431 0.818 . S
C1494 N266 0.818 . S
C1519 N299 0.818 . S
C1524 N464 0.818 . S
C1549 N497 0.818 . S
C1554 N332 0.818 . S
C1579 N365 0.818 . S
C1584 N398 0.818 . S
C1609 C502 2.179 . S
C1614 C337 2.179 . S
C1639 C370 2.179 . S
C1644 C403 2.179 . S
C1669 C436 2.179 . S
C1674 C271 2.179 . S
C1699 C304 2.179 . S
C1704 C469 2.179 . S
