# Generated by pormake.
# Topology uma, (4)-cn, num edge types: 1
# Building blocks:
#     Node 0, Type 0, BuildingBlock: NAWXER_clean_sbu_0, # of connection points: 4
#     Node 1, Type 0, BuildingBlock: NAWXER_clean_sbu_0, # of connection points: 4
#     Node 2, Type 0, BuildingBlock: NAWXER_clean_sbu_0, # of connection points: 4
#     Node 3, Type 0, BuildingBlock: NAWXER_clean_sbu_0, # of connection points: 4
#     Node 4, Type 0, BuildingBlock: NAWXER_clean_sbu_0, # of connection points: 4
#     Node 5, Type 0, BuildingBlock: NAWXER_clean_sbu_0, # of connection points: 4
#     Node 6, Type 0, BuildingBlock: NAWXER_clean_sbu_0, # of connection points: 4
#     Node 7, Type 0, BuildingBlock: NAWXER_clean_sbu_0, # of connection points: 4
#     Node 8, Type 0, BuildingBlock: NAWXER_clean_sbu_0, # of connection points: 4
#     Node 9, Type 0, BuildingBlock: NAWXER_clean_sbu_0, # of connection points: 4
#     Node 10, Type 0, BuildingBlock: NAWXER_clean_sbu_0, # of connection points: 4
#     Node 11, Type 0, BuildingBlock: NAWXER_clean_sbu_0, # of connection points: 4
#     Node 12, Type 0, BuildingBlock: NAWXER_clean_sbu_0, # of connection points: 4
#     Node 13, Type 0, BuildingBlock: NAWXER_clean_sbu_0, # of connection points: 4
#     Node 14, Type 0, BuildingBlock: NAWXER_clean_sbu_0, # of connection points: 4
#     Node 15, Type 0, BuildingBlock: NAWXER_clean_sbu_0, # of connection points: 4
#     Node 16, Type 0, BuildingBlock: NAWXER_clean_sbu_0, # of connection points: 4
#     Node 17, Type 0, BuildingBlock: NAWXER_clean_sbu_0, # of connection points: 4
#     Node 18, Type 0, BuildingBlock: NAWXER_clean_sbu_0, # of connection points: 4
#     Node 19, Type 0, BuildingBlock: NAWXER_clean_sbu_0, # of connection points: 4
#     Node 20, Type 0, BuildingBlock: NAWXER_clean_sbu_0, # of connection points: 4
#     Node 21, Type 0, BuildingBlock: NAWXER_clean_sbu_0, # of connection points: 4
#     Node 22, Type 0, BuildingBlock: NAWXER_clean_sbu_0, # of connection points: 4
#     Node 23, Type 0, BuildingBlock: NAWXER_clean_sbu_0, # of connection points: 4
#     Node 24, Type 0, BuildingBlock: NAWXER_clean_sbu_0, # of connection points: 4
#     Node 25, Type 0, BuildingBlock: NAWXER_clean_sbu_0, # of connection points: 4
#     Node 26, Type 0, BuildingBlock: NAWXER_clean_sbu_0, # of connection points: 4
#     Node 27, Type 0, BuildingBlock: NAWXER_clean_sbu_0, # of connection points: 4
#     Node 28, Type 0, BuildingBlock: NAWXER_clean_sbu_0, # of connection points: 4
#     Node 29, Type 0, BuildingBlock: NAWXER_clean_sbu_0, # of connection points: 4
#     Node 30, Type 0, BuildingBlock: NAWXER_clean_sbu_0, # of connection points: 4
#     Node 31, Type 0, BuildingBlock: NAWXER_clean_sbu_0, # of connection points: 4
#     Node 32, Type 0, BuildingBlock: NAWXER_clean_sbu_0, # of connection points: 4
#     Node 33, Type 0, BuildingBlock: NAWXER_clean_sbu_0, # of connection points: 4
#     Node 34, Type 0, BuildingBlock: NAWXER_clean_sbu_0, # of connection points: 4
#     Node 35, Type 0, BuildingBlock: NAWXER_clean_sbu_0, # of connection points: 4
#     Edge 36, Type (0, 0), BuildingBlock: CIFDUS_clean_linker_0, # of connection points: 2
#     Edge 37, Type (0, 0), BuildingBlock: CIFDUS_clean_linker_0, # of connection points: 2
#     Edge 38, Type (0, 0), BuildingBlock: CIFDUS_clean_linker_0, # of connection points: 2
#     Edge 39, Type (0, 0), BuildingBlock: CIFDUS_clean_linker_0, # of connection points: 2
#     Edge 40, Type (0, 0), BuildingBlock: CIFDUS_clean_linker_0, # of connection points: 2
#     Edge 41, Type (0, 0), BuildingBlock: CIFDUS_clean_linker_0, # of connection points: 2
#     Edge 42, Type (0, 0), BuildingBlock: CIFDUS_clean_linker_0, # of connection points: 2
#     Edge 43, Type (0, 0), BuildingBlock: CIFDUS_clean_linker_0, # of connection points: 2
#     Edge 44, Type (0, 0), BuildingBlock: CIFDUS_clean_linker_0, # of connection points: 2
#     Edge 45, Type (0, 0), BuildingBlock: CIFDUS_clean_linker_0, # of connection points: 2
#     Edge 46, Type (0, 0), BuildingBlock: CIFDUS_clean_linker_0, # of connection points: 2
#     Edge 47, Type (0, 0), BuildingBlock: CIFDUS_clean_linker_0, # of connection points: 2
#     Edge 48, Type (0, 0), BuildingBlock: CIFDUS_clean_linker_0, # of connection points: 2
#     Edge 49, Type (0, 0), BuildingBlock: CIFDUS_clean_linker_0, # of connection points: 2
#     Edge 50, Type (0, 0), BuildingBlock: CIFDUS_clean_linker_0, # of connection points: 2
#     Edge 51, Type (0, 0), BuildingBlock: CIFDUS_clean_linker_0, # of connection points: 2
#     Edge 52, Type (0, 0), BuildingBlock: CIFDUS_clean_linker_0, # of connection points: 2
#     Edge 53, Type (0, 0), BuildingBlock: CIFDUS_clean_linker_0, # of connection points: 2
#     Edge 54, Type (0, 0), BuildingBlock: CIFDUS_clean_linker_0, # of connection points: 2
#     Edge 55, Type (0, 0), BuildingBlock: CIFDUS_clean_linker_0, # of connection points: 2
#     Edge 56, Type (0, 0), BuildingBlock: CIFDUS_clean_linker_0, # of connection points: 2
#     Edge 57, Type (0, 0), BuildingBlock: CIFDUS_clean_linker_0, # of connection points: 2
#     Edge 58, Type (0, 0), BuildingBlock: CIFDUS_clean_linker_0, # of connection points: 2
#     Edge 59, Type (0, 0), BuildingBlock: CIFDUS_clean_linker_0, # of connection points: 2
#     Edge 60, Type (0, 0), BuildingBlock: CIFDUS_clean_linker_0, # of connection points: 2
#     Edge 61, Type (0, 0), BuildingBlock: CIFDUS_clean_linker_0, # of connection points: 2
#     Edge 62, Type (0, 0), BuildingBlock: CIFDUS_clean_linker_0, # of connection points: 2
#     Edge 63, Type (0, 0), BuildingBlock: CIFDUS_clean_linker_0, # of connection points: 2
#     Edge 64, Type (0, 0), BuildingBlock: CIFDUS_clean_linker_0, # of connection points: 2
#     Edge 65, Type (0, 0), BuildingBlock: CIFDUS_clean_linker_0, # of connection points: 2
#     Edge 66, Type (0, 0), BuildingBlock: CIFDUS_clean_linker_0, # of connection points: 2
#     Edge 67, Type (0, 0), BuildingBlock: CIFDUS_clean_linker_0, # of connection points: 2
#     Edge 68, Type (0, 0), BuildingBlock: CIFDUS_clean_linker_0, # of connection points: 2
#     Edge 69, Type (0, 0), BuildingBlock: CIFDUS_clean_linker_0, # of connection points: 2
#     Edge 70, Type (0, 0), BuildingBlock: CIFDUS_clean_linker_0, # of connection points: 2
#     Edge 71, Type (0, 0), BuildingBlock: CIFDUS_clean_linker_0, # of connection points: 2
#     Edge 72, Type (0, 0), BuildingBlock: CIFDUS_clean_linker_0, # of connection points: 2
#     Edge 73, Type (0, 0), BuildingBlock: CIFDUS_clean_linker_0, # of connection points: 2
#     Edge 74, Type (0, 0), BuildingBlock: CIFDUS_clean_linker_0, # of connection points: 2
#     Edge 75, Type (0, 0), BuildingBlock: CIFDUS_clean_linker_0, # of connection points: 2
#     Edge 76, Type (0, 0), BuildingBlock: CIFDUS_clean_linker_0, # of connection points: 2
#     Edge 77, Type (0, 0), BuildingBlock: CIFDUS_clean_linker_0, # of connection points: 2
#     Edge 78, Type (0, 0), BuildingBlock: CIFDUS_clean_linker_0, # of connection points: 2
#     Edge 79, Type (0, 0), BuildingBlock: CIFDUS_clean_linker_0, # of connection points: 2
#     Edge 80, Type (0, 0), BuildingBlock: CIFDUS_clean_linker_0, # of connection points: 2
#     Edge 81, Type (0, 0), BuildingBlock: CIFDUS_clean_linker_0, # of connection points: 2
#     Edge 82, Type (0, 0), BuildingBlock: CIFDUS_clean_linker_0, # of connection points: 2
#     Edge 83, Type (0, 0), BuildingBlock: CIFDUS_clean_linker_0, # of connection points: 2
#     Edge 84, Type (0, 0), BuildingBlock: CIFDUS_clean_linker_0, # of connection points: 2
#     Edge 85, Type (0, 0), BuildingBlock: CIFDUS_clean_linker_0, # of connection points: 2
#     Edge 86, Type (0, 0), BuildingBlock: CIFDUS_clean_linker_0, # of connection points: 2
#     Edge 87, Type (0, 0), BuildingBlock: CIFDUS_clean_linker_0, # of connection points: 2
#     Edge 88, Type (0, 0), BuildingBlock: CIFDUS_clean_linker_0, # of connection points: 2
#     Edge 89, Type (0, 0), BuildingBlock: CIFDUS_clean_linker_0, # of connection points: 2
#     Edge 90, Type (0, 0), BuildingBlock: CIFDUS_clean_linker_0, # of connection points: 2
#     Edge 91, Type (0, 0), BuildingBlock: CIFDUS_clean_linker_0, # of connection points: 2
#     Edge 92, Type (0, 0), BuildingBlock: CIFDUS_clean_linker_0, # of connection points: 2
#     Edge 93, Type (0, 0), BuildingBlock: CIFDUS_clean_linker_0, # of connection points: 2
#     Edge 94, Type (0, 0), BuildingBlock: CIFDUS_clean_linker_0, # of connection points: 2
#     Edge 95, Type (0, 0), BuildingBlock: CIFDUS_clean_linker_0, # of connection points: 2
#     Edge 96, Type (0, 0), BuildingBlock: CIFDUS_clean_linker_0, # of connection points: 2
#     Edge 97, Type (0, 0), BuildingBlock: CIFDUS_clean_linker_0, # of connection points: 2
#     Edge 98, Type (0, 0), BuildingBlock: CIFDUS_clean_linker_0, # of connection points: 2
#     Edge 99, Type (0, 0), BuildingBlock: CIFDUS_clean_linker_0, # of connection points: 2
#     Edge 100, Type (0, 0), BuildingBlock: CIFDUS_clean_linker_0, # of connection points: 2
#     Edge 101, Type (0, 0), BuildingBlock: CIFDUS_clean_linker_0, # of connection points: 2
#     Edge 102, Type (0, 0), BuildingBlock: CIFDUS_clean_linker_0, # of connection points: 2
#     Edge 103, Type (0, 0), BuildingBlock: CIFDUS_clean_linker_0, # of connection points: 2
#     Edge 104, Type (0, 0), BuildingBlock: CIFDUS_clean_linker_0, # of connection points: 2
#     Edge 105, Type (0, 0), BuildingBlock: CIFDUS_clean_linker_0, # of connection points: 2
#     Edge 106, Type (0, 0), BuildingBlock: CIFDUS_clean_linker_0, # of connection points: 2
#     Edge 107, Type (0, 0), BuildingBlock: CIFDUS_clean_linker_0, # of connection points: 2
# Relax obj value: 0.097
# Max RMSD: 0.105
# Mean RMSD: 0.098
data_MOF--net-uma--node1-NAWXER_clean_sbu_0--edge1-CIFDUS_clean_linker_0
_symmetry_space_group_name_H-M    P1
_symmetry_Int_Tables_number       1
_symmetry_cell_setting            triclinic
loop_
_symmetry_equiv_pos_as_xyz
'x, y, z'
_cell_length_a     67.025912
_cell_length_b     67.077238
_cell_length_c     34.812312
_cell_angle_alpha  89.985966
_cell_angle_beta   90.036453
_cell_angle_gamma 120.01983
loop_
_atom_site_label
_atom_site_type_symbol
_atom_site_fract_x
_atom_site_fract_y
_atom_site_fract_z
_atom_type_partial_charge
C0 C 0.11017 0.39465 0.08276 0.0
C1 C 0.11184 0.37684 0.94708 0.0
O2 O 0.12192 0.41231 0.06148 0.0
Zn3 Zn 0.13146 0.42069 1.00289 0.0
O4 O 0.10123 0.37444 0.06874 0.0
Zn5 Zn 0.11169 0.38403 0.01638 0.0
O6 O 0.14806 0.39851 0.0195 0.0
O7 O 0.16567 0.43526 1.00396 0.0
O8 O 0.10279 0.36221 0.97413 0.0
O9 O 0.12259 0.39837 0.95495 0.0
O10 O 0.11362 0.43655 0.99154 0.0
O11 O 0.09168 0.3996 1.00497 0.0
C12 C 0.16681 0.41758 0.0141 0.0
C13 C 0.09366 0.41902 0.99665 0.0
C14 C 0.67864 0.75337 0.95178 0.0
C15 C 0.6519 0.72998 0.08356 0.0
O16 O 0.65664 0.74232 0.95499 0.0
Zn17 Zn 0.63112 0.72745 0.99907 0.0
O18 O 0.69103 0.75819 0.98185 0.0
Zn19 Zn 0.66638 0.74394 0.01926 0.0
O20 O 0.65183 0.70861 1.00578 0.0
O21 O 0.61611 0.6942 0.98494 0.0
O22 O 0.67281 0.74196 0.07292 0.0
O23 O 0.63552 0.72435 0.05937 0.0
O24 O 0.61614 0.74678 0.99739 0.0
O25 O 0.6517 0.76567 0.01915 0.0
C26 C 0.63308 0.69147 0.99384 0.0
C27 C 0.63299 0.76539 0.01036 0.0
C28 C 0.28852 0.87353 0.01068 0.0
C29 C 0.36013 0.95028 0.99989 0.0
O30 O 0.28606 0.89101 0.01702 0.0
Zn31 Zn 0.30593 0.92775 0.01728 0.0
O32 O 0.30849 0.87691 1.00227 0.0
Zn33 Zn 0.32568 0.91108 1.00373 0.0
O34 O 0.32506 0.91898 0.06287 0.0
O35 O 0.30437 0.93613 0.07019 0.0
O36 O 0.35926 0.93111 0.99364 0.0
O37 O 0.34169 0.95055 0.00806 0.0
O38 O 0.29248 0.93615 0.97498 0.0
O39 O 0.31172 0.91927 0.95555 0.0
C40 C 0.31697 0.92873 0.08437 0.0
C41 C 0.29963 0.92866 0.94774 0.0
C42 C 0.42451 0.08058 0.02179 0.0
C43 C 0.42477 0.15429 0.99877 0.0
O44 O 0.40534 0.07897 0.01244 0.0
Zn45 Zn 0.39051 0.0994 0.9984 0.0
O46 O 0.44234 0.10043 0.02636 0.0
Zn47 Zn 0.42733 0.11874 0.01245 0.0
O48 O 0.40498 0.11117 0.05973 0.0
O49 O 0.36872 0.09184 0.04089 0.0
O50 O 0.44231 0.15302 0.00947 0.0
O51 O 0.40558 0.13563 0.99377 0.0
O52 O 0.38147 0.08837 0.94561 0.0
O53 O 0.41914 0.10763 0.95464 0.0
C54 C 0.3835 0.10109 0.06776 0.0
C55 C 0.4018 0.09585 0.93268 0.0
C56 C 0.9405 0.2943 0.07303 0.0
C57 C 0.94653 0.317 0.93785 0.0
O58 O 0.93175 0.30698 0.06532 0.0
Zn59 Zn 0.92522 0.3224 0.01732 0.0
O60 O 0.94828 0.28743 0.04584 0.0
Zn61 Zn 0.94145 0.30231 1.00375 0.0
O62 O 0.96448 0.33777 0.01646 0.0
O63 O 0.94506 0.35552 0.03008 0.0
O64 O 0.95171 0.30245 0.95112 0.0
O65 O 0.93598 0.32425 0.95935 0.0
O66 O 0.89112 0.30598 0.01518 0.0
O67 O 0.9047 0.28308 1.00082 0.0
C68 C 0.96425 0.35616 0.02521 0.0
C69 C 0.88741 0.28601 1.00603 0.0
C70 C 0.73036 0.63636 0.93399 0.0
C71 C 0.75242 0.65479 0.06981 0.0
O72 O 0.72232 0.61908 0.9568 0.0
Zn73 Zn 0.72295 0.61105 0.01556 0.0
O74 O 0.74487 0.65632 0.94657 0.0
Zn75 Zn 0.74443 0.64729 1.00027 0.0
O76 O 0.76216 0.62835 0.99937 0.0
O77 O 0.73842 0.59235 0.01577 0.0
O78 O 0.75991 0.66925 0.04225 0.0
O79 O 0.73901 0.63344 0.06248 0.0
O80 O 0.68994 0.59974 0.02765 0.0
O81 O 0.7094 0.63658 0.01191 0.0
C82 C 0.75858 0.60802 1.00596 0.0
C83 C 0.69045 0.61873 0.02123 0.0
C84 C 0.95736 0.61752 0.01026 0.0
C85 C 0.88298 0.61735 0.99864 0.0
O86 O 0.93761 0.59954 0.01458 0.0
Zn87 Zn 0.91906 0.61515 0.008 0.0
O88 O 0.95875 0.63695 1.00445 0.0
Zn89 Zn 0.93789 0.65192 0.99622 0.0
O90 O 0.9467 0.67292 0.03932 0.0
O91 O 0.92837 0.63657 0.05773 0.0
O92 O 0.90145 0.63675 0.99378 0.0
O93 O 0.88469 0.59983 0.0076 0.0
O94 O 0.92789 0.62469 0.94943 0.0
O95 O 0.94795 0.66267 0.94395 0.0
C96 C 0.93871 0.65805 0.06615 0.0
C97 C 0.93926 0.64275 0.92885 0.0
C98 C 0.38036 0.28416 0.0649 0.0
C99 C 0.40282 0.30527 0.93068 0.0
O100 O 0.36746 0.27671 0.03542 0.0
Zn101 Zn 0.39107 0.29143 0.99641 0.0
O102 O 0.40216 0.29716 0.06046 0.0
Zn103 Zn 0.42629 0.31203 0.01422 0.0
O104 O 0.43924 0.3454 0.02379 0.0
O105 O 0.40268 0.32711 1.00601 0.0
O106 O 0.41989 0.31305 0.95403 0.0
O107 O 0.38275 0.29067 0.9426 0.0
O108 O 0.40927 0.27279 0.99793 0.0
O109 O 0.44468 0.29647 0.01727 0.0
C110 C 0.42093 0.3458 0.01524 0.0
C111 C 0.42941 0.27639 1.00655 0.0
C112 C 0.75632 0.10616 0.06793 0.0
C113 C 0.7424 0.10359 0.92982 0.0
O114 O 0.76328 0.09762 0.04216 0.0
Zn115 Zn 0.75175 0.106 0.99782 0.0
O116 O 0.74548 0.1166 0.05807 0.0
Zn117 Zn 0.73423 0.12536 1.00651 0.0
O118 O 0.70006 0.10765 0.01226 0.0
O119 O 0.71559 0.08562 1.005 0.0
O120 O 0.73548 0.11539 0.94865 0.0
O121 O 0.75329 0.0951 0.94679 0.0
O122 O 0.77366 0.14236 0.9944 0.0
O123 O 0.75359 0.15962 1.00493 0.0
C124 C 0.69778 0.08763 0.00948 0.0
C125 C 0.7729 0.16101 0.99772 0.0
C126 C 0.65124 0.93406 0.08252 0.0
C127 C 0.66497 0.93439 0.94458 0.0
O128 O 0.67083 0.94128 0.06684 0.0
Zn129 Zn 0.65937 0.93317 0.0145 0.0
O130 O 0.63286 0.92461 0.06219 0.0
Zn131 Zn 0.62274 0.91738 1.00348 0.0
O132 O 0.60492 0.88321 1.00161 0.0
O133 O 0.64163 0.89642 0.01406 0.0
O134 O 0.64367 0.92556 0.95354 0.0
O135 O 0.68009 0.94115 0.97104 0.0
O136 O 0.64702 0.95664 0.00842 0.0
O137 O 0.60952 0.93803 0.99783 0.0
C138 C 0.62133 0.8793 0.00857 0.0
C139 C 0.62834 0.95694 1.0028 0.0
C140 C 0.10473 0.72737 0.08477 0.0
C141 C 0.10491 0.74964 0.95081 0.0
O142 O 0.09742 0.74049 0.07263 0.0
Zn143 Zn 0.10664 0.74138 0.01928 0.0
O144 O 0.11579 0.7214 0.06187 0.0
Zn145 Zn 0.1249 0.72383 1.00247 0.0
O146 O 0.15928 0.74247 1.00263 0.0
O147 O 0.14316 0.76254 0.02069 0.0
O148 O 0.11527 0.73813 0.95589 0.0
O149 O 0.09727 0.75531 0.97976 0.0
O150 O 0.08538 0.70561 0.00764 0.0
O151 O 0.10656 0.69017 0.99161 0.0
C152 C 0.16142 0.76153 0.01381 0.0
C153 C 0.08682 0.68794 0.99844 0.0
C154 C 0.29685 0.37343 0.95161 0.0
C155 C 0.3179 0.39845 0.0849 0.0
O156 O 0.28981 0.36097 0.98161 0.0
Zn157 Zn 0.30477 0.38515 0.01962 0.0
O158 O 0.30985 0.39528 0.95512 0.0
Zn159 Zn 0.32517 0.42019 1.00012 0.0
O160 O 0.35861 0.43274 0.99077 0.0
O161 O 0.34015 0.39652 0.01008 0.0
O162 O 0.32561 0.41508 0.06077 0.0
O163 O 0.30444 0.37788 0.07378 0.0
O164 O 0.28613 0.4033 0.01666 0.0
O165 O 0.30946 0.43837 0.99543 0.0
C166 C 0.35886 0.41449 1.00021 0.0
C167 C 0.28949 0.42319 1.00685 0.0
C168 C 0.83918 0.75345 0.34821 0.0
C169 C 0.76445 0.75115 0.32706 0.0
O170 O 0.8209 0.73394 0.35327 0.0
Zn171 Zn 0.78455 0.71807 0.34916 0.0
O172 O 0.83719 0.7706 0.33779 0.0
Zn173 Zn 0.80286 0.75471 0.33529 0.0
O174 O 0.79187 0.74625 0.39339 0.0
O175 O 0.77377 0.70857 0.40182 0.0
O176 O 0.78405 0.76927 0.32235 0.0
O177 O 0.76334 0.73217 0.33596 0.0
O178 O 0.77693 0.69637 0.30676 0.0
O179 O 0.79522 0.73252 0.28737 0.0
C180 C 0.78045 0.72868 0.41506 0.0
C181 C 0.78539 0.711 0.27958 0.0
C182 C 0.3146 0.05685 0.41541 0.0
C183 C 0.32959 0.07731 0.27911 0.0
O184 O 0.29654 0.04921 0.39443 0.0
Zn185 Zn 0.28694 0.05049 0.33665 0.0
O186 O 0.33418 0.0714 0.40159 0.0
Zn187 Zn 0.32361 0.07079 0.34897 0.0
O188 O 0.30644 0.09011 0.35133 0.0
O189 O 0.26968 0.06744 0.33835 0.0
O190 O 0.34465 0.08477 0.30577 0.0
O191 O 0.30825 0.06487 0.28775 0.0
O192 O 0.27349 1.01719 0.32503 0.0
O193 O 0.3109 0.03529 0.33735 0.0
C194 C 0.2863 0.08743 0.34653 0.0
C195 C 0.29221 1.01677 0.32943 0.0
C196 C 0.96527 0.26304 0.28292 0.0
C197 C 0.98649 0.26861 0.41878 0.0
O198 O 0.97626 0.25257 0.29145 0.0
Zn199 Zn 0.98929 0.24419 0.341 0.0
O200 O 0.95916 0.27186 0.30959 0.0
Zn201 Zn 0.97216 0.26378 0.35263 0.0
O202 O 1.0079 0.28369 0.34028 0.0
O203 O 1.02304 0.26141 0.33098 0.0
O204 O 0.97356 0.27565 0.40462 0.0
O205 O 0.99182 0.2561 0.39832 0.0
O206 O 0.96984 0.21009 0.34454 0.0
O207 O 0.95031 0.22761 0.35762 0.0
C208 C 1.02543 0.28149 0.33358 0.0
C209 C 0.95087 0.2089 0.35375 0.0
C210 C 0.08456 0.41086 0.3463 0.0
C211 C 0.09157 0.48833 0.33996 0.0
O212 O 0.06624 0.41118 0.33719 0.0
Zn213 Zn 0.05402 0.43479 0.32849 0.0
O214 O 0.10267 0.4296 0.3555 0.0
Zn215 Zn 0.08945 0.44996 0.34653 0.0
O216 O 0.06519 0.44029 0.39224 0.0
O217 O 0.03033 0.42531 0.36743 0.0
O218 O 0.10723 0.48395 0.35018 0.0
O219 O 0.07162 0.47153 0.33116 0.0
O220 O 0.04599 0.4278 0.27444 0.0
O221 O 0.08317 0.44321 0.28647 0.0
C222 C 0.04337 0.43114 0.39678 0.0
C223 C 0.06629 0.43393 0.26279 0.0
C224 C 0.6122 0.6197 0.39489 0.0
C225 C 0.61229 0.64628 0.26403 0.0
O226 O 0.60339 0.63277 0.39233 0.0
Zn227 Zn 0.59513 0.64999 0.34891 0.0
O228 O 0.61852 0.61388 0.36448 0.0
Zn229 Zn 0.61005 0.63025 0.32797 0.0
O230 O 0.63411 0.66536 0.34197 0.0
O231 O 0.61562 0.68251 0.36419 0.0
O232 O 0.6176 0.63125 0.27399 0.0
O233 O 0.60317 0.65352 0.28872 0.0
O234 O 0.56107 0.63413 0.35149 0.0
O235 O 0.57326 0.61135 0.32963 0.0
C236 C 0.63444 0.68341 0.35467 0.0
C237 C 0.55653 0.61439 0.33934 0.0
C238 C 0.39858 0.97269 0.26685 0.0
C239 C 0.42607 0.99896 0.39736 0.0
O240 O 0.39168 0.95625 0.29133 0.0
Zn241 Zn 0.39594 0.95162 0.3512 0.0
O242 O 0.41374 0.993 0.27672 0.0
Zn243 Zn 0.41527 0.98635 0.3305 0.0
O244 O 0.43457 0.96887 0.33112 0.0
O245 O 0.41214 0.93377 0.3528 0.0
O246 O 0.43168 1.01116 0.36702 0.0
O247 O 0.41317 0.97706 0.39473 0.0
O248 O 0.36348 0.93905 0.36718 0.0
O249 O 0.38014 0.9748 0.34544 0.0
C250 C 0.43176 0.94914 0.34043 0.0
C251 C 0.36229 0.95687 0.35822 0.0
C252 C 0.61186 1.00208 0.39605 0.0
C253 C 0.61473 0.97933 0.26375 0.0
O254 O 0.61998 1.01533 0.36708 0.0
Zn255 Zn 0.61085 0.99175 0.32798 0.0
O256 O 0.60118 0.98022 0.39109 0.0
Zn257 Zn 0.59184 0.95606 0.34509 0.0
O258 O 0.609 0.94031 0.36047 0.0
O259 O 0.63122 0.97672 0.34343 0.0
O260 O 0.60298 0.96229 0.28635 0.0
O261 O 0.62139 0.99973 0.27527 0.0
O262 O 0.57454 0.97723 0.32481 0.0
O263 O 0.55759 0.94109 0.34342 0.0
C264 C 0.62903 0.95754 0.35439 0.0
C265 C 0.556 0.9582 0.33154 0.0
C266 C 0.08784 0.68002 0.35297 0.0
C267 C 0.0844 0.60468 0.33478 0.0
O268 O 0.10444 0.67651 0.36084 0.0
Zn269 Zn 0.08798 0.64329 0.34655 0.0
O270 O 0.0686 0.66337 0.34152 0.0
Zn271 Zn 0.05256 0.62797 0.32752 0.0
O272 O 0.02824 0.61449 0.36566 0.0
O273 O 0.06289 0.62927 0.39124 0.0
O274 O 0.06595 0.60507 0.32651 0.0
O275 O 0.10175 0.623 0.3474 0.0
O276 O 0.08316 0.64692 0.28667 0.0
O277 O 0.04583 0.63077 0.27428 0.0
C278 C 0.04095 0.61894 0.39523 0.0
C279 C 0.06668 0.64222 0.26312 0.0
C280 C 0.36581 0.41753 0.34887 0.0
C281 C 0.4406 0.4906 0.33261 0.0
O282 O 0.3685 0.43747 0.35548 0.0
Zn283 Zn 0.40217 0.4549 0.34433 0.0
O284 O 0.38314 0.41554 0.33948 0.0
Zn285 Zn 0.41877 0.43577 0.32685 0.0
O286 O 0.43218 0.42568 0.36625 0.0
O287 O 0.41564 0.44416 0.39068 0.0
O288 O 0.44083 0.472 0.32529 0.0
O289 O 0.42192 0.48915 0.34442 0.0
O290 O 0.39881 0.44559 0.28495 0.0
O291 O 0.41674 0.42616 0.27335 0.0
C292 C 0.42659 0.43322 0.39546 0.0
C293 C 0.40391 0.43397 0.26177 0.0
C294 C 0.34744 0.27112 0.28823 0.0
C295 C 0.32456 0.27105 0.42187 0.0
O296 O 0.36049 0.2786 0.31753 0.0
Zn297 Zn 0.33696 0.26913 0.35659 0.0
O298 O 0.3255 0.26077 0.29277 0.0
Zn299 Zn 0.30128 0.25105 0.33913 0.0
O300 O 0.28593 0.26931 0.32822 0.0
O301 O 0.32253 0.29039 0.34478 0.0
O302 O 0.30762 0.26001 0.39875 0.0
O303 O 0.34505 0.27833 0.41003 0.0
O304 O 0.32145 0.23265 0.35796 0.0
O305 O 0.28536 0.21676 0.33915 0.0
C306 C 0.30342 0.28898 0.33546 0.0
C307 C 0.30214 0.2145 0.35079 0.0
C308 C 0.83543 0.0851 0.34562 0.0
C309 C 0.75808 1.01618 0.3259 0.0
O310 O 0.83131 0.06508 0.33596 0.0
Zn311 Zn 0.79732 0.04935 0.33394 0.0
O312 O 0.81843 0.08847 0.35114 0.0
Zn313 Zn 0.78166 0.06995 0.34821 0.0
O314 O 0.7715 0.0696 0.40101 0.0
O315 O 0.78669 0.04739 0.39194 0.0
O316 O 0.75825 0.03471 0.33506 0.0
O317 O 0.77705 1.01642 0.32068 0.0
O318 O 0.79123 0.06542 0.28653 0.0
O319 O 0.77506 0.08525 0.30641 0.0
C320 C 0.77637 0.05472 0.41377 0.0
C321 C 0.78277 0.07838 0.27908 0.0
C322 C 0.03186 0.75296 0.32449 0.0
C323 C 0.96317 0.7625 0.33823 0.0
O324 O 0.03199 0.77175 0.31797 0.0
Zn325 Zn 0.99881 0.7597 0.32916 0.0
O326 O 1.01304 0.73486 0.33344 0.0
Zn327 Zn 0.97783 0.72356 0.34417 0.0
O328 O 0.96282 0.7014 0.30264 0.0
O329 O 0.9832 0.73716 0.28195 0.0
O330 O 0.95966 0.7422 0.34503 0.0
O331 O 0.98326 0.77818 0.32817 0.0
O332 O 0.99863 0.75171 0.38841 0.0
O333 O 0.97698 0.71406 0.39725 0.0
C334 C 0.97013 0.71569 0.27492 0.0
C335 C 0.99043 0.73412 0.41052 0.0
C336 C 0.45046 0.06334 0.74964 0.0
C337 C 0.44755 0.03657 0.61821 0.0
O338 O 0.46024 0.07975 0.72523 0.0
Zn339 Zn 0.46696 0.08405 0.66464 0.0
O340 O 0.44289 0.04258 0.73926 0.0
Zn341 Zn 0.45078 0.04923 0.68545 0.0
O342 O 0.4877 0.06609 0.68386 0.0
O343 O 0.50084 0.10111 0.66119 0.0
O344 O 0.44111 0.02438 0.64856 0.0
O345 O 0.45726 0.05851 0.62097 0.0
O346 O 0.44742 0.09748 0.6509 0.0
O347 O 0.42798 0.06184 0.67286 0.0
C348 C 0.50479 0.08559 0.67382 0.0
C349 C 0.42835 0.08001 0.66077 0.0
C350 C 0.99088 0.39834 0.75518 0.0
C351 C 1.01274 0.41626 0.62066 0.0
O352 O 0.9737 0.3925 0.73269 0.0
Zn353 Zn 0.96699 0.39339 0.67273 0.0
O354 O 1.01137 0.40918 0.74224 0.0
Zn355 Zn 1.00283 0.40947 0.68912 0.0
O356 O 0.98919 0.43217 0.689 0.0
O357 O 0.95286 0.41334 0.67096 0.0
O358 O 1.02606 0.42169 0.64957 0.0
O359 O 0.99086 0.40588 0.62584 0.0
O360 O 0.95004 0.35955 0.66349 0.0
O361 O 0.98654 0.37352 0.67938 0.0
C362 C 0.97042 0.4321 0.68163 0.0
C363 C 0.96692 0.35637 0.67064 0.0
C364 C 0.62098 0.54036 0.66873 0.0
C365 C 0.69086 0.61766 0.6575 0.0
O366 O 0.61828 0.55715 0.6795 0.0
Zn367 Zn 0.63765 0.59395 0.68256 0.0
O368 O 0.64058 0.54471 0.65608 0.0
Zn369 Zn 0.65697 0.57857 0.66084 0.0
O370 O 0.65918 0.58448 0.72159 0.0
O371 O 0.63869 0.60096 0.7368 0.0
O372 O 0.68982 0.59891 0.64717 0.0
O373 O 0.67282 0.6174 0.66998 0.0
O374 O 0.62208 0.60352 0.6461 0.0
O375 O 0.64069 0.5882 0.61792 0.0
C376 C 0.65215 0.59359 0.74659 0.0
C377 C 0.62809 0.59753 0.61552 0.0
C378 C 0.71542 0.76962 0.73034 0.0
C379 C 0.74258 0.77176 0.59906 0.0
O380 O 0.73731 0.7785 0.72767 0.0
Zn381 Zn 0.7629 0.78712 0.6845 0.0
O382 O 0.70323 0.76344 0.69994 0.0
Zn383 Zn 0.72809 0.77209 0.66313 0.0
O384 O 0.7392 0.74827 0.67629 0.0
O385 O 0.77486 0.76639 0.69858 0.0
O386 O 0.72182 0.76475 0.60893 0.0
O387 O 0.75881 0.78077 0.62394 0.0
O388 O 0.78104 0.821 0.68824 0.0
O389 O 0.74623 0.80892 0.66522 0.0
C390 C 0.75686 0.74775 0.68873 0.0
C391 C 0.76596 0.82558 0.67547 0.0
C392 C 0.27397 0.95917 0.73792 0.0
C393 C 0.2782 0.97885 0.6017 0.0
O394 O 0.26553 0.97208 0.72984 0.0
Zn395 Zn 0.25907 0.98721 0.68114 0.0
O396 O 0.28135 0.95175 0.71092 0.0
Zn397 Zn 0.27472 0.96643 0.66847 0.0
O398 O 0.29818 1.00178 0.68004 0.0
O399 O 0.27943 0.02035 0.69277 0.0
O400 O 0.28385 0.96491 0.61598 0.0
O401 O 0.26871 0.98745 0.62267 0.0
O402 O 0.22491 0.97117 0.68017 0.0
O403 O 0.2381 0.94786 0.66647 0.0
C404 C 0.29837 0.02044 0.68828 0.0
C405 C 0.22099 0.95106 0.6716 0.0
C406 C 0.09548 0.27899 0.67212 0.0
C407 C 1.02386 0.28403 0.67825 0.0
O408 O 0.09828 0.29915 0.66681 0.0
Zn409 Zn 0.07856 0.31617 0.66675 0.0
O410 O 0.07529 0.26234 0.67906 0.0
Zn411 Zn 0.05836 0.2795 0.67757 0.0
O412 O 0.06089 0.28973 0.61905 0.0
O413 O 0.08133 0.32774 0.61457 0.0
O414 O 1.02439 0.26543 0.68293 0.0
O415 O 0.04262 0.30298 0.67299 0.0
O416 O 0.09086 0.33681 0.71026 0.0
O417 O 0.07057 0.30036 0.72773 0.0
C418 C 0.06922 0.30811 0.59887 0.0
C419 C 0.08266 0.3217 0.7367 0.0
C420 C 0.27927 0.33688 0.72981 0.0
C421 C 0.27661 0.30953 0.59856 0.0
O422 O 0.28714 0.34915 0.69972 0.0
Zn423 Zn 0.27649 0.32436 0.66245 0.0
O424 O 0.26802 0.31488 0.7267 0.0
Zn425 Zn 0.2572 0.28921 0.68281 0.0
O426 O 0.2747 0.27358 0.69763 0.0
O427 O 0.2966 0.30922 0.67691 0.0
O428 O 0.26526 0.29332 0.62274 0.0
O429 O 0.28564 0.33049 0.60891 0.0
O430 O 0.24005 0.31016 0.66188 0.0
O431 O 0.22304 0.27464 0.6838 0.0
C432 C 0.29457 0.29033 0.68898 0.0
C433 C 0.22149 0.29155 0.67064 0.0
C434 C 0.71893 0.95658 0.73348 0.0
C435 C 0.73458 0.9741 0.59693 0.0
O436 O 0.70401 0.95053 0.70679 0.0
Zn437 Zn 0.72528 0.96291 0.66385 0.0
O438 O 0.74039 0.96728 0.72498 0.0
Zn439 Zn 0.76203 0.98007 0.67591 0.0
O440 O 0.77822 1.01379 0.68624 0.0
O441 O 0.74107 0.99867 0.67405 0.0
O442 O 0.75268 0.98051 0.61737 0.0
O443 O 0.71463 0.96283 0.61195 0.0
O444 O 0.73981 0.94109 0.66072 0.0
O445 O 0.77678 0.9607 0.67488 0.0
C446 C 0.76065 1.01619 0.68153 0.0
C447 C 0.75907 0.94169 0.66559 0.0
C448 C 0.03292 0.75262 0.67798 0.0
C449 C 0.1074 0.82576 0.66362 0.0
O450 O 0.03561 0.77255 0.68455 0.0
Zn451 Zn 0.06927 0.78985 0.67432 0.0
O452 O 0.05031 0.75056 0.66925 0.0
Zn453 Zn 0.08622 0.77099 0.6579 0.0
O454 O 0.09935 0.7609 0.69763 0.0
O455 O 0.08245 0.77921 0.72132 0.0
O456 O 0.10805 0.80732 0.65674 0.0
O457 O 0.08847 0.82402 0.67456 0.0
O458 O 0.06674 0.78059 0.61494 0.0
O459 O 0.08527 0.76161 0.60463 0.0
C460 C 0.09346 0.76835 0.72656 0.0
C461 C 0.0724 0.76917 0.59228 0.0
C462 C 0.98437 0.6027 0.7515 0.0
C463 C 1.00807 0.60346 0.61831 0.0
O464 O 1.00473 0.60868 0.74043 0.0
Zn465 Zn 0.99711 0.60063 0.6864 0.0
O466 O 0.9676 0.59278 0.72772 0.0
Zn467 Zn 0.96171 0.58476 0.66796 0.0
O468 O 0.94438 0.55072 0.66569 0.0
O469 O 0.9801 0.56394 0.68486 0.0
O470 O 0.9862 0.59412 0.62248 0.0
O471 O 1.02098 0.60981 0.64786 0.0
O472 O 0.98458 0.62368 0.67494 0.0
O473 O 0.94807 0.60448 0.65696 0.0
C474 C 0.9603 0.54682 0.67629 0.0
C475 C 0.96613 0.62353 0.66507 0.0
C476 C 0.44247 0.38944 0.75079 0.0
C477 C 0.43969 0.41378 0.61892 0.0
O478 O 0.43348 0.40145 0.74062 0.0
Zn479 Zn 0.44201 0.40406 0.68665 0.0
O480 O 0.45326 0.38409 0.72629 0.0
Zn481 Zn 0.46074 0.38738 0.66619 0.0
O482 O 0.49495 0.40662 0.66442 0.0
O483 O 0.47846 0.42556 0.68678 0.0
O484 O 0.45044 0.40259 0.62257 0.0
O485 O 0.4319 0.41859 0.64872 0.0
O486 O 0.42129 0.36894 0.67254 0.0
O487 O 0.44231 0.35423 0.65165 0.0
C488 C 0.4968 0.42518 0.67774 0.0
C489 C 0.4227 0.35174 0.66045 0.0
C490 C 0.63058 0.03213 0.62 0.0
C491 C 0.65828 0.05586 0.75134 0.0
O492 O 0.6261 0.01902 0.64902 0.0
Zn493 Zn 0.64118 0.0429 0.68763 0.0
O494 O 0.64189 0.05401 0.62464 0.0
Zn495 Zn 0.65763 0.07849 0.66986 0.0
O496 O 0.69028 0.09411 0.65299 0.0
O497 O 0.67639 0.05788 0.67086 0.0
O498 O 0.6633 0.07269 0.72841 0.0
O499 O 0.64438 0.03535 0.74041 0.0
O500 O 0.61939 0.05742 0.69113 0.0
O501 O 0.63849 0.09349 0.67204 0.0
C502 C 0.69321 0.07698 0.65913 0.0
C503 C 0.61985 0.07642 0.68426 0.0
H504 H 0.99057 0.37963 0.9649 0.0
H505 H 0.98913 0.37873 0.08852 0.0
H506 H 0.03105 0.4041 0.09028 0.0
H507 H 0.06819 0.41861 0.05656 0.0
H508 H 0.06961 0.41768 0.93301 0.0
H509 H 0.02777 0.40148 0.93099 0.0
C510 C 0.99938 0.38594 0.99217 0.0
C511 C 0.98679 0.37766 0.02658 0.0
C512 C 1.02357 0.39989 0.99284 0.0
C513 C 0.99838 0.38531 0.06175 0.0
C514 C 1.02241 0.39952 0.06271 0.0
C515 C 0.05945 0.41604 0.02921 0.0
C516 C 0.07201 0.41976 0.99491 0.0
C517 C 0.03526 0.40592 0.02846 0.0
C518 C 0.06042 0.41557 0.95967 0.0
C519 C 0.03642 0.4059 0.9586 0.0
H520 H 0.66813 0.62373 0.96103 0.0
H521 H 0.66891 0.62251 0.08463 0.0
H522 H 0.64607 0.64182 0.08683 0.0
H523 H 0.63351 0.66619 0.05348 0.0
H524 H 0.63395 0.66859 0.92991 0.0
H525 H 0.64816 0.6413 0.92748 0.0
C526 C 0.66228 0.62669 0.98838 0.0
C527 C 0.66983 0.62136 0.02267 0.0
C528 C 0.64969 0.63838 0.98929 0.0
C529 C 0.66282 0.62592 0.05795 0.0
C530 C 0.65007 0.63729 0.05915 0.0
C531 C 0.63565 0.65981 0.02603 0.0
C532 C 0.63235 0.66909 0.99185 0.0
C533 C 0.6444 0.64459 0.02503 0.0
C534 C 0.63582 0.66128 0.95648 0.0
C535 C 0.64429 0.64593 0.95518 0.0
H536 H 0.42334 0.0536 0.96374 0.0
H537 H 0.42263 0.05751 0.08707 0.0
H538 H 0.4059 1.0157 0.09146 0.0
H539 H 0.38356 0.97784 0.05948 0.0
H540 H 0.38293 0.97394 0.93605 0.0
H541 H 0.40834 1.01575 0.93216 0.0
C542 C 0.42064 0.04537 0.9916 0.0
C543 C 0.42462 0.05867 0.02511 0.0
C544 C 0.41024 0.0212 0.99373 0.0
C545 C 0.4203 0.04776 0.061 0.0
C546 C 0.41032 0.02377 0.06343 0.0
C547 C 0.38992 0.98608 0.03185 0.0
C548 C 0.38167 0.97281 0.99806 0.0
C549 C 0.4041 1.01023 0.02994 0.0
C550 C 0.38948 0.9837 0.96238 0.0
C551 C 0.40375 1.00768 0.9602 0.0
H552 H 0.05479 0.65848 0.94646 0.0
H553 H 0.07108 0.66864 0.06706 0.0
H554 H 0.03085 0.64232 0.08334 0.0
H555 H 0.99014 0.62415 0.06288 0.0
H556 H 0.97365 0.61277 0.94255 0.0
H557 H 1.01455 0.63095 0.92653 0.0
C558 C 0.04971 0.6539 0.97618 0.0
C559 C 0.06594 0.66538 1.00551 0.0
C560 C 1.0263 0.63874 0.98542 0.0
C561 C 0.05897 0.65976 0.04398 0.0
C562 C 0.03585 0.6449 0.05334 0.0
C563 C 0.99546 0.62441 0.03337 0.0
C564 C 0.97885 0.6169 1.004 0.0
C565 C 1.01916 0.63528 0.02432 0.0
C566 C 0.98607 0.61801 0.96574 0.0
C567 C 1.00954 0.62883 0.95649 0.0
H568 H 0.41669 0.37464 0.06598 0.0
H569 H 0.4224 0.3634 0.94575 0.0
H570 H 0.40731 0.38861 0.92856 0.0
H571 H 0.38451 0.4066 0.94829 0.0
H572 H 0.37904 0.41826 0.06836 0.0
H573 H 0.40234 0.40085 0.08514 0.0
C574 C 0.41571 0.3787 0.03612 0.0
C575 C 0.42082 0.36736 1.00716 0.0
C576 C 0.40664 0.39306 0.02641 0.0
C577 C 0.41887 0.37222 0.9685 0.0
C578 C 0.40998 0.38645 0.95864 0.0
C579 C 0.38953 0.40645 0.97788 0.0
C580 C 0.38028 0.41387 1.00702 0.0
C581 C 0.40269 0.39602 0.98735 0.0
C582 C 0.38629 0.41294 0.04542 0.0
C583 C 0.39937 0.40269 0.05508 0.0
H584 H 0.63449 0.9895 0.94968 0.0
H585 H 0.62723 0.97503 0.07091 0.0
H586 H 0.64509 1.01609 0.08528 0.0
H587 H 0.67049 0.05613 0.06305 0.0
H588 H 0.67688 0.07068 0.94186 0.0
H589 H 0.65124 0.02992 0.92767 0.0
C590 C 0.6357 0.9953 0.97912 0.0
C591 C 0.62935 0.97924 0.0092 0.0
C592 C 0.64625 0.01911 0.98718 0.0
C593 C 0.63167 0.98705 0.04729 0.0
C594 C 0.64218 1.01059 0.05553 0.0
C595 C 0.6652 0.05051 0.03371 0.0
C596 C 0.67531 0.06645 1.00358 0.0
C597 C 0.65061 0.02686 0.02574 0.0
C598 C 0.66892 0.05881 0.96557 0.0
C599 C 0.65453 0.0354 0.95741 0.0
H600 H 0.73824 0.74981 0.38641 0.0
H601 H 0.74007 0.74808 0.26293 0.0
H602 H 0.698 0.72964 0.26055 0.0
H603 H 0.66098 0.70648 0.29432 0.0
H604 H 0.65907 0.70673 0.41791 0.0
H605 H 0.70078 0.73352 0.41987 0.0
C606 C 0.72945 0.74654 0.35896 0.0
C607 C 0.74224 0.75071 0.3248 0.0
C608 C 0.70518 0.73513 0.35803 0.0
C609 C 0.73066 0.74564 0.28945 0.0
C610 C 0.70655 0.73469 0.28819 0.0
C611 C 0.66961 0.71324 0.32159 0.0
C612 C 0.65703 0.70486 0.35597 0.0
C613 C 0.69363 0.72826 0.32235 0.0
C614 C 0.66835 0.71327 0.39117 0.0
C615 C 0.69224 0.72838 0.39222 0.0
H616 H 0.3384 0.95908 0.29806 0.0
H617 H 0.33936 0.95853 0.42169 0.0
H618 H 0.31214 0.97292 0.42344 0.0
H619 H 0.29503 0.99314 0.38949 0.0
H620 H 0.29571 0.9953 0.26593 0.0
H621 H 0.31468 0.97217 0.26408 0.0
C622 C 0.33181 0.96118 0.32533 0.0
C623 C 0.34062 0.95757 0.35975 0.0
C624 C 0.31661 0.96994 0.32595 0.0
C625 C 0.33246 0.9608 0.39494 0.0
C626 C 0.31712 0.96928 0.39586 0.0
C627 C 0.29825 0.98747 0.36219 0.0
C628 C 0.2936 0.99552 0.32783 0.0
C629 C 0.30994 0.97491 0.36155 0.0
C630 C 0.29856 0.98879 0.29263 0.0
C631 C 0.30978 0.9759 0.29165 0.0
H632 H 0.04802 0.3139 0.27916 0.0
H633 H 0.05106 0.29764 0.3977 0.0
H634 H 0.07414 0.33857 0.41323 0.0
H635 H 0.08514 0.37875 0.39507 0.0
H636 H 0.08252 0.39441 0.27584 0.0
H637 H 0.06834 0.35439 0.25833 0.0
C638 C 0.05498 0.31931 0.30786 0.0
C639 C 0.04798 0.30276 0.33715 0.0
C640 C 0.06793 0.34298 0.31663 0.0
C641 C 0.05655 0.31004 0.37451 0.0
C642 C 0.06943 0.33353 0.38354 0.0
C643 C 0.08253 0.37355 0.36515 0.0
C644 C 0.08487 0.38951 0.33676 0.0
C645 C 0.07406 0.3502 0.35522 0.0
C646 C 0.08098 0.38245 0.29813 0.0
C647 C 0.07265 0.35948 0.28811 0.0
H648 H 0.65402 0.95656 0.29509 0.0
H649 H 0.65288 0.95902 0.41856 0.0
H650 H 0.69447 0.97351 0.42063 0.0
H651 H 0.73168 0.99363 0.38647 0.0
H652 H 0.73295 0.99352 0.26287 0.0
H653 H 0.69085 0.9695 0.26132 0.0
C654 C 0.66274 0.95914 0.32247 0.0
C655 C 0.65041 0.95637 0.3567 0.0
C656 C 0.68678 0.9683 0.3232 0.0
C657 C 0.66192 0.96048 0.39199 0.0
C658 C 0.68577 0.96912 0.39306 0.0
C659 C 0.72276 0.98732 0.3593 0.0
C660 C 0.73535 0.99497 0.32479 0.0
C661 C 0.69851 0.97423 0.35878 0.0
C662 C 0.72365 0.98737 0.2897 0.0
C663 C 0.69955 0.97393 0.28888 0.0
H664 H 0.05471 0.74895 0.3848 0.0
H665 H 0.05337 0.74919 0.26119 0.0
H666 H 0.07624 0.72994 0.2593 0.0
H667 H 0.08854 0.70555 0.29309 0.0
H668 H 0.08818 0.70368 0.41669 0.0
H669 H 0.07476 0.7316 0.41864 0.0
C670 C 0.06049 0.74584 0.35751 0.0
C671 C 0.05272 0.7508 0.32313 0.0
C672 C 0.07303 0.73412 0.3568 0.0
C673 C 0.05963 0.74605 0.28792 0.0
C674 C 0.0724 0.73471 0.28691 0.0
C675 C 0.08664 0.7122 0.32043 0.0
C676 C 0.08967 0.70287 0.35475 0.0
C677 C 0.07815 0.72763 0.32117 0.0
C678 C 0.0865 0.71102 0.39 0.0
C679 C 0.07843 0.72669 0.39105 0.0
H680 H 0.33878 0.38516 0.40162 0.0
H681 H 0.34411 0.40234 0.28157 0.0
H682 H 0.32007 0.36177 0.26494 0.0
H683 H 0.30625 0.32128 0.28414 0.0
H684 H 0.29962 0.3042 0.40439 0.0
H685 H 0.31472 0.34448 0.42149 0.0
C686 C 0.33346 0.38011 0.3721 0.0
C687 C 0.34309 0.39676 0.34292 0.0
C688 C 0.31975 0.35656 0.36269 0.0
C689 C 0.33658 0.38988 0.30461 0.0
C690 C 0.32312 0.36657 0.29501 0.0
C691 C 0.30686 0.32623 0.31396 0.0
C692 C 0.30173 0.30977 0.34295 0.0
C693 C 0.31578 0.34965 0.32366 0.0
C694 C 0.30317 0.31653 0.38157 0.0
C695 C 0.31213 0.33967 0.3914 0.0
H696 H 0.32532 0.04753 0.63087 0.0
H697 H 0.32313 0.03779 0.75331 0.0
H698 H 0.36523 0.06024 0.75631 0.0
H699 H 0.40207 0.07477 0.72214 0.0
H700 H 0.40454 0.08283 0.59924 0.0
H701 H 0.36307 0.06931 0.59809 0.0
C702 C 0.3341 0.05132 0.65835 0.0
C703 C 0.32119 0.04133 0.69194 0.0
C704 C 0.35839 0.0635 0.6595 0.0
C705 C 0.33268 0.04579 0.7273 0.0
C706 C 0.35678 0.0583 0.72888 0.0
C707 C 0.39364 0.07446 0.69532 0.0
C708 C 0.40625 0.07988 0.66081 0.0
C709 C 0.36977 0.06614 0.69492 0.0
C710 C 0.39522 0.07908 0.62614 0.0
C711 C 0.37145 0.07107 0.6255 0.0
H712 H 0.96917 0.32783 0.61707 0.0
H713 H 0.96178 0.33529 0.73817 0.0
H714 H 0.97514 0.30831 0.75278 0.0
H715 H 0.99761 0.29028 0.73111 0.0
H716 H 1.00431 0.28208 0.61007 0.0
H717 H 0.98204 0.30089 0.59526 0.0
C718 C 0.96923 0.32248 0.64646 0.0
C719 C 0.96431 0.33337 0.67649 0.0
C720 C 0.97726 0.30707 0.65467 0.0
C721 C 0.96513 0.32683 0.71457 0.0
C722 C 0.9731 0.31162 0.72297 0.0
C723 C 0.99301 0.29143 0.70164 0.0
C724 C 1.00239 0.28462 0.67174 0.0
C725 C 0.98042 0.30263 0.69333 0.0
C726 C 0.99692 0.28684 0.63357 0.0
C727 C 0.98447 0.29794 0.62506 0.0
H728 H 0.75424 0.7217 0.62828 0.0
H729 H 0.75335 0.72236 0.75191 0.0
H730 H 0.73608 0.68037 0.75304 0.0
H731 H 0.71398 0.64353 0.71833 0.0
H732 H 0.71374 0.64286 0.59467 0.0
H733 H 0.73918 0.68477 0.59371 0.0
C734 C 0.75126 0.71268 0.65543 0.0
C735 C 0.75529 0.72503 0.69002 0.0
C736 C 0.74081 0.68852 0.65567 0.0
C737 C 0.75085 0.71324 0.72505 0.0
C738 C 0.74067 0.6892 0.72561 0.0
C739 C 0.72043 0.6525 0.69125 0.0
C740 C 0.71228 0.6402 0.65658 0.0
C741 C 0.73457 0.67662 0.69108 0.0
C742 C 0.7202 0.65194 0.62161 0.0
C743 C 0.73447 0.67594 0.62113 0.0
H744 H 0.39712 0.32676 0.72015 0.0
H745 H 0.39847 0.32933 0.59658 0.0
H746 H 0.35651 0.30445 0.59471 0.0
H747 H 0.31962 0.29057 0.62877 0.0
H748 H 0.31832 0.29026 0.7524 0.0
H749 H 0.35996 0.30507 0.75403 0.0
C750 C 0.38829 0.3208 0.69281 0.0
C751 C 0.40086 0.32958 0.65849 0.0
C752 C 0.36408 0.30727 0.69216 0.0
C753 C 0.38925 0.32236 0.62325 0.0
C754 C 0.36519 0.30846 0.62227 0.0
C755 C 0.32832 0.29262 0.65602 0.0
C756 C 0.31593 0.28907 0.69047 0.0
C757 C 0.35239 0.30196 0.65658 0.0
C758 C 0.3274 0.29237 0.72562 0.0
C759 C 0.35129 0.30121 0.72648 0.0
H760 H 0.75849 0.04041 0.62188 0.0
H761 H 0.76126 0.03968 0.74534 0.0
H762 H 0.74418 0.06447 0.7489 0.0
H763 H 0.71993 0.07765 0.71705 0.0
H764 H 0.71493 0.0761 0.59371 0.0
H765 H 0.74195 0.06161 0.58958 0.0
C766 C 0.75654 0.04679 0.64944 0.0
C767 C 0.76143 0.03854 0.68333 0.0
C768 C 0.74582 0.06026 0.65115 0.0
C769 C 0.75816 0.04627 0.71894 0.0
C770 C 0.74799 0.06011 0.72092 0.0
C771 C 0.72573 0.07524 0.68924 0.0
C772 C 0.71573 0.07818 0.65566 0.0
C773 C 0.74054 0.06604 0.68728 0.0
C774 C 0.72277 0.07441 0.61981 0.0
C775 C 0.73793 0.06575 0.61754 0.0
H776 H 1.00501 0.72057 0.73039 0.0
H777 H 1.01191 0.73752 0.61014 0.0
H778 H 0.98672 0.69709 0.59364 0.0
H779 H 0.97101 0.65639 0.61331 0.0
H780 H 0.9631 0.63961 0.73369 0.0
H781 H 0.97965 0.68014 0.75041 0.0
C782 C 0.99985 0.71554 0.70081 0.0
C783 C 1.01017 0.73201 0.67155 0.0
C784 C 0.98549 0.69207 0.6915 0.0
C785 C 1.00387 0.72517 0.63319 0.0
C786 C 0.98972 0.70195 0.62368 0.0
C787 C 0.97172 0.66153 0.64304 0.0
C788 C 0.96577 0.64504 0.67224 0.0
C789 C 0.98154 0.68509 0.6525 0.0
C790 C 0.96732 0.65199 0.71075 0.0
C791 C 0.97709 0.67525 0.72036 0.0
H792 H 0.2477 0.3965 0.03974 0.0
H793 H 0.28646 0.45965 0.97613 0.0
H794 H 0.25255 0.46458 0.97432 0.0
H795 H 0.2107 0.4495 0.98804 0.0
H796 H 0.17326 0.38599 0.05172 0.0
H797 H 0.20768 0.38287 0.05626 0.0
C798 C 0.24889 0.41146 0.02557 0.0
C799 C 0.26969 0.42757 0.00787 0.0
C800 C 0.22936 0.41412 0.02452 0.0
C801 C 0.27074 0.44692 0.99001 0.0
C802 C 0.25128 0.44971 0.98887 0.0
C803 C 0.21018 0.43515 1.00326 0.0
C804 C 0.18916 0.41792 0.01921 0.0
C805 C 0.23031 0.43324 1.00565 0.0
C806 C 0.18895 0.39943 0.03876 0.0
C807 C 0.20871 0.39757 0.04145 0.0
H808 H 0.59876 0.77534 0.98859 0.0
H809 H 0.66562 0.80505 0.04297 0.0
H810 H 0.66715 0.84174 0.0484 0.0
H811 H 0.65094 0.86635 0.03588 0.0
H812 H 0.5843 0.83849 0.98221 0.0
H813 H 0.58124 0.80044 0.97882 0.0
C814 C 0.61357 0.7898 1.00184 0.0
C815 C 0.63212 0.78717 0.01501 0.0
C816 C 0.61448 0.81137 1.00503 0.0
C817 C 0.6511 0.80628 0.0322 0.0
C818 C 0.65206 0.82745 0.03543 0.0
C819 C 0.63563 0.852 0.02353 0.0
C820 C 0.61796 0.85547 0.00911 0.0
C821 C 0.63404 0.8303 0.02159 0.0
C822 C 0.5982 0.83643 0.99361 0.0
C823 C 0.59649 0.81464 0.99152 0.0
H824 H 0.20524 0.77026 0.99268 0.0
H825 H 0.16947 0.80171 0.04571 0.0
H826 H 0.20522 0.838 0.05072 0.0
H827 H 0.24619 0.86176 0.03803 0.0
H828 H 0.28351 0.83209 0.98525 0.0
H829 H 0.24794 0.79446 0.98262 0.0
C830 C 0.20533 0.785 1.00558 0.0
C831 C 0.18437 0.78301 0.01849 0.0
C832 C 0.22631 0.80633 0.00842 0.0
C833 C 0.18503 0.80248 0.03516 0.0
C834 C 0.20559 0.8234 0.03814 0.0
C835 C 0.24671 0.8471 0.02605 0.0
C836 C 0.26764 0.84996 0.01166 0.0
C837 C 0.22625 0.82564 0.02448 0.0
C838 C 0.26775 0.83053 0.99661 0.0
C839 C 0.24733 0.80897 0.99497 0.0
H840 H 0.40332 0.23484 0.97244 0.0
H841 H 0.46591 0.27357 0.03761 0.0
H842 H 0.47122 0.23991 0.03921 0.0
H843 H 0.45648 0.19818 0.02518 0.0
H844 H 0.39368 0.16079 0.95952 0.0
H845 H 0.39029 0.19504 0.95497 0.0
C846 C 0.41824 0.23606 0.98688 0.0
C847 C 0.43407 0.25678 1.00513 0.0
C848 C 0.42115 0.21669 0.98771 0.0
C849 C 0.45339 0.25792 0.0233 0.0
C850 C 0.4564 0.23859 0.02432 0.0
C851 C 0.44226 0.19765 0.00945 0.0
C852 C 0.42527 0.17667 0.99304 0.0
C853 C 0.4402 0.21769 1.00703 0.0
C854 C 0.40693 0.17645 0.97285 0.0
C855 C 0.40492 0.19611 0.97017 0.0
H856 H 0.87508 0.24332 0.97963 0.0
H857 H 0.84588 0.28254 0.02662 0.0
H858 H 0.80754 0.24785 0.02674 0.0
H859 H 0.78247 0.20535 0.01648 0.0
H860 H 0.81338 0.16748 0.9697 0.0
H861 H 0.85051 0.20247 0.96658 0.0
C862 C 0.86037 0.24445 0.98975 0.0
C863 C 0.86356 0.26565 1.00329 0.0
C864 C 0.83848 0.22445 0.98997 0.0
C865 C 0.84408 0.26655 0.01599 0.0
C866 C 0.8221 0.24663 0.01618 0.0
C867 C 0.79728 0.20482 1.00529 0.0
C868 C 0.7949 0.18352 0.99365 0.0
C869 C 0.81908 0.22533 1.00368 0.0
C870 C 0.81446 0.18336 0.97926 0.0
C871 C 0.83586 0.20346 0.97738 0.0
H872 H 0.83899 0.58372 0.02218 0.0
H873 H 0.87581 0.64926 0.96394 0.0
H874 H 0.8408 0.65124 0.9594 0.0
H875 H 0.80041 0.63605 0.97454 0.0
H876 H 0.76207 0.57095 0.03294 0.0
H877 H 0.79665 0.56706 0.03435 0.0
C878 C 0.83926 0.59829 0.00818 0.0
C879 C 0.86031 0.61641 0.99379 0.0
C880 C 0.81873 0.59951 1.00574 0.0
C881 C 0.86015 0.63514 0.97574 0.0
C882 C 0.84003 0.63633 0.97301 0.0
C883 C 0.79943 0.62087 0.98745 0.0
C884 C 0.77856 0.60391 1.00384 0.0
C885 C 0.81934 0.61886 0.9884 0.0
C886 C 0.77781 0.58431 0.02004 0.0
C887 C 0.79767 0.58213 0.02099 0.0
H888 H 0.88261 0.78638 0.32187 0.0
H889 H 0.84713 0.72319 0.3869 0.0
H890 H 0.88225 0.72133 0.39114 0.0
H891 H 0.92222 0.73569 0.3733 0.0
H892 H 0.95912 0.7986 0.30847 0.0
H893 H 0.92461 0.80259 0.30765 0.0
C894 C 0.88269 0.77241 0.33738 0.0
C895 C 0.86199 0.75484 0.35369 0.0
C896 C 0.90324 0.77124 0.3396 0.0
C897 C 0.86255 0.73685 0.37364 0.0
C898 C 0.88272 0.73572 0.37615 0.0
C899 C 0.92287 0.75041 0.35913 0.0
C900 C 0.94329 0.7667 0.34069 0.0
C901 C 0.90301 0.75251 0.35865 0.0
C902 C 0.9437 0.78576 0.32293 0.0
C903 C 0.92389 0.78799 0.32233 0.0
H904 H 0.26679 0.1709 0.32961 0.0
H905 H 0.33396 0.20613 0.38322 0.0
H906 H 0.3341 0.17021 0.3884 0.0
H907 H 0.31668 0.12932 0.37529 0.0
H908 H 0.2498 0.09255 0.32175 0.0
H909 H 0.24796 0.12823 0.31951 0.0
C910 C 0.28135 0.17066 0.34268 0.0
C911 C 0.30042 0.19149 0.35566 0.0
C912 C 0.28146 0.14959 0.3456 0.0
C913 C 0.31908 0.19064 0.37259 0.0
C914 C 0.31923 0.17 0.37567 0.0
C915 C 0.30156 0.12894 0.36329 0.0
C916 C 0.28347 0.10817 0.3485 0.0
C917 C 0.30072 0.14946 0.36184 0.0
C918 C 0.26399 0.1082 0.33343 0.0
C919 C 0.26299 0.12868 0.33198 0.0
H920 H 0.84882 0.12728 0.3755 0.0
H921 H 0.87623 0.08815 0.32185 0.0
H922 H 0.91482 0.12246 0.32141 0.0
H923 H 0.94046 0.1647 0.33278 0.0
H924 H 0.91146 0.20259 0.38634 0.0
H925 H 0.87415 0.16781 0.39028 0.0
C926 C 0.8632 0.1261 0.36389 0.0
C927 C 0.85945 0.10507 0.3485 0.0
C928 C 0.88523 0.14587 0.36352 0.0
C929 C 0.8785 0.10403 0.33393 0.0
C930 C 0.90061 0.12373 0.33353 0.0
C931 C 0.92604 0.16526 0.3457 0.0
C932 C 0.92896 0.18649 0.35892 0.0
C933 C 0.90417 0.14492 0.34775 0.0
C934 C 0.90992 0.18674 0.37554 0.0
C935 C 0.88843 0.16677 0.37787 0.0
H936 H 0.06329 0.50253 0.31044 0.0
H937 H 0.12853 0.52836 0.36829 0.0
H938 H 0.13289 0.56694 0.37072 0.0
H939 H 0.117 0.59315 0.35877 0.0
H940 H 0.0515 0.56572 0.30057 0.0
H941 H 0.04861 0.52832 0.296 0.0
C942 C 0.07857 0.51655 0.32349 0.0
C943 C 0.09548 0.51235 0.33934 0.0
C944 C 0.08092 0.5386 0.32488 0.0
C945 C 0.1152 0.53096 0.35582 0.0
C946 C 0.11767 0.55307 0.35731 0.0
C947 C 0.10221 0.57904 0.34483 0.0
C948 C 0.08443 0.58248 0.33031 0.0
C949 C 0.10049 0.5571 0.34228 0.0
C950 C 0.06542 0.56382 0.31234 0.0
C951 C 0.06369 0.54226 0.30964 0.0
H952 H 0.54206 0.57268 0.30655 0.0
H953 H 0.51663 0.6107 0.36962 0.0
H954 H 0.4781 0.57634 0.37177 0.0
H955 H 0.45193 0.53433 0.35855 0.0
H956 H 0.47906 0.49763 0.29549 0.0
H957 H 0.51624 0.53245 0.29061 0.0
C958 C 0.52812 0.57362 0.32064 0.0
C959 C 0.53244 0.59436 0.33807 0.0
C960 C 0.50612 0.55381 0.32196 0.0
C961 C 0.51394 0.59506 0.35589 0.0
C962 C 0.49186 0.57532 0.35725 0.0
C963 C 0.46592 0.53404 0.34344 0.0
C964 C 0.46249 0.5131 0.32771 0.0
C965 C 0.48775 0.55442 0.34079 0.0
C966 C 0.48098 0.51323 0.30826 0.0
C967 C 0.50241 0.53323 0.30536 0.0
H968 H 0.47318 0.97658 0.30666 0.0
H969 H 0.43598 0.9132 0.37025 0.0
H970 H 0.47054 0.90936 0.37154 0.0
H971 H 0.51248 0.92552 0.35764 0.0
H972 H 0.54846 0.98923 0.29409 0.0
H973 H 0.51339 0.99123 0.28977 0.0
C974 C 0.47247 0.96179 0.32065 0.0
C975 C 0.4519 0.94529 0.33853 0.0
C976 C 0.49239 0.95977 0.32146 0.0
C977 C 0.45148 0.9262 0.35621 0.0
C978 C 0.47132 0.92404 0.35707 0.0
C979 C 0.51256 0.93968 0.34249 0.0
C980 C 0.53336 0.95728 0.32649 0.0
C981 C 0.49205 0.94092 0.34022 0.0
C982 C 0.53297 0.9755 0.30703 0.0
C983 C 0.51283 0.97671 0.30448 0.0
H984 H 0.60909 0.10896 0.65768 0.0
H985 H 0.58119 0.0454 0.72165 0.0
H986 H 0.54403 0.04331 0.72529 0.0
H987 H 0.51849 0.05792 0.70773 0.0
H988 H 0.54503 0.12124 0.64381 0.0
H989 H 0.58339 0.12503 0.64305 0.0
C990 C 0.59496 0.09482 0.67279 0.0
C991 C 0.59812 0.07729 0.68912 0.0
C992 C 0.57319 0.09354 0.67464 0.0
C993 C 0.57944 0.05908 0.70849 0.0
C994 C 0.55804 0.05782 0.71063 0.0
C995 C 0.53264 0.07267 0.69375 0.0
C996 C 0.52868 0.08917 0.67563 0.0
C997 C 0.55459 0.0747 0.69332 0.0
C998 C 0.54744 0.10822 0.65799 0.0
C999 C 0.56942 0.11037 0.65746 0.0
H1000 H 0.93658 0.4424 0.65987 0.0
H1001 H 1.00398 0.47207 0.71213 0.0
H1002 H 1.00613 0.50914 0.71629 0.0
H1003 H 0.99013 0.53395 0.70338 0.0
H1004 H 0.92308 0.50596 0.65104 0.0
H1005 H 0.91955 0.46773 0.64901 0.0
C1006 C 0.95164 0.45694 0.67238 0.0
C1007 C 0.97014 0.45421 0.68541 0.0
C1008 C 0.95293 0.47869 0.67467 0.0
C1009 C 0.9895 0.47341 0.70154 0.0
C1010 C 0.9908 0.49478 0.70402 0.0
C1011 C 0.97462 0.51953 0.69164 0.0
C1012 C 0.95695 0.52302 0.67725 0.0
C1013 C 0.97279 0.49771 0.69036 0.0
C1014 C 0.93699 0.50391 0.66238 0.0
C1015 C 0.935 0.482 0.66111 0.0
H1016 H 0.57995 0.52594 0.70401 0.0
H1017 H 0.61631 0.50075 0.63563 0.0
H1018 H 0.58167 0.46242 0.63366 0.0
H1019 H 0.53989 0.43642 0.64871 0.0
H1020 H 0.5049 0.46324 0.71734 0.0
H1021 H 0.54 0.5002 0.72178 0.0
C1022 C 0.58046 0.5121 0.68877 0.0
C1023 C 0.60079 0.51641 0.66979 0.0
C1024 C 0.56052 0.49021 0.68763 0.0
C1025 C 0.60097 0.49804 0.65054 0.0
C1026 C 0.58109 0.47608 0.6493 0.0
C1027 C 0.54004 0.45029 0.66494 0.0
C1028 C 0.5195 0.44686 0.68235 0.0
C1029 C 0.56058 0.47198 0.66736 0.0
C1030 C 0.52018 0.46518 0.70325 0.0
C1031 C 0.54034 0.48648 0.70589 0.0
H1032 H 0.79132 0.9304 0.69203 0.0
H1033 H 0.72767 0.90336 0.62832 0.0
H1034 H 0.72501 0.86602 0.62432 0.0
H1035 H 0.73907 0.84009 0.64151 0.0
H1036 H 0.80225 0.86544 0.70562 0.0
H1037 H 0.80681 0.90411 0.70652 0.0
C1038 C 0.77705 0.9164 0.67692 0.0
C1039 C 0.75964 0.91984 0.66078 0.0
C1040 C 0.7754 0.89449 0.67493 0.0
C1041 C 0.74123 0.90136 0.64139 0.0
C1042 C 0.73965 0.87987 0.63902 0.0
C1043 C 0.75396 0.85404 0.65557 0.0
C1044 C 0.77019 0.84967 0.67369 0.0
C1045 C 0.75637 0.8761 0.65618 0.0
C1046 C 0.78944 0.86818 0.69143 0.0
C1047 C 0.79201 0.89033 0.69204 0.0
H1048 H 0.11685 0.8695 0.68603 0.0
H1049 H 0.14728 0.83325 0.63125 0.0
H1050 H 0.18401 0.86861 0.6272 0.0
H1051 H 0.20842 0.90921 0.64166 0.0
H1052 H 0.17981 0.94693 0.69647 0.0
H1053 H 0.14169 0.91191 0.69755 0.0
C1054 C 0.13147 0.86941 0.67293 0.0
C1055 C 0.12911 0.84846 0.6593 0.0
C1056 C 0.15303 0.89013 0.67072 0.0
C1057 C 0.14838 0.84885 0.64238 0.0
C1058 C 0.16955 0.86916 0.63995 0.0
C1059 C 0.19388 0.90994 0.65371 0.0
C1060 C 0.19715 0.93076 0.6692 0.0
C1061 C 0.17218 0.88979 0.65447 0.0
C1062 C 0.1779 0.93122 0.68429 0.0
C1063 C 0.15607 0.91111 0.68507 0.0
H1064 H 0.17728 0.25693 0.69045 0.0
H1065 H 0.21467 0.32492 0.6404 0.0
H1066 H 0.17939 0.32637 0.63529 0.0
H1067 H 0.13833 0.30961 0.64685 0.0
H1068 H 0.09946 0.24178 0.69626 0.0
H1069 H 0.13462 0.239 0.69936 0.0
C1070 C 0.17766 0.27197 0.67822 0.0
C1071 C 0.1989 0.29083 0.66611 0.0
C1072 C 0.15697 0.27282 0.67523 0.0
C1073 C 0.19885 0.31014 0.65025 0.0
C1074 C 0.17857 0.31105 0.64724 0.0
C1075 C 0.13739 0.2941 0.6582 0.0
C1076 C 0.11616 0.276 0.67151 0.0
C1077 C 0.15761 0.29266 0.65998 0.0
C1078 C 0.11548 0.25602 0.68575 0.0
C1079 C 0.13566 0.25446 0.68766 0.0
H1080 H 0.10688 0.44044 0.23599 0.0
H1081 H 0.0348 0.4086 0.20627 0.0
H1082 H 0.04148 0.39064 0.15013 0.0
H1083 H 0.06828 0.38458 0.109 0.0
H1084 H 0.13999 0.41668 0.14031 0.0
H1085 H 0.13279 0.43328 0.1975 0.0
C1086 C 0.09256 0.4298 0.21711 0.0
C1087 C 0.07037 0.42611 0.22525 0.0
C1088 C 0.09638 0.41904 0.18585 0.0
C1089 C 0.05211 0.41205 0.20045 0.0
C1090 C 0.05588 0.40156 0.16859 0.0
C1091 C 0.08207 0.39455 0.12921 0.0
C1092 C 0.1045 0.39889 0.12142 0.0
C1093 C 0.07792 0.40476 0.16124 0.0
C1094 C 0.12252 0.41265 0.14658 0.0
C1095 C 0.11847 0.42242 0.17882 0.0
H1096 H 0.60532 0.68031 0.23754 0.0
H1097 H 0.6377 0.64068 0.20751 0.0
H1098 H 0.65504 0.66501 0.15098 0.0
H1099 H 0.66103 0.69774 0.1101 0.0
H1100 H 0.62727 0.73599 0.13922 0.0
H1101 H 0.61092 0.71241 0.19694 0.0
C1102 C 0.61597 0.67677 0.2185 0.0
C1103 C 0.62007 0.65856 0.22678 0.0
C1104 C 0.6261 0.69097 0.18646 0.0
C1105 C 0.63403 0.65439 0.20171 0.0
C1106 C 0.64415 0.66845 0.16957 0.0
C1107 C 0.65058 0.70121 0.12977 0.0
C1108 C 0.64588 0.71896 0.12146 0.0
C1109 C 0.64051 0.68695 0.16192 0.0
C1110 C 0.63154 0.72278 0.1459 0.0
C1111 C 0.622 0.70914 0.17851 0.0
H1112 H 0.3507 0.96984 0.10853 0.0
H1113 H 0.30542 0.90011 0.14548 0.0
H1114 H 0.32736 0.90759 0.20532 0.0
H1115 H 0.36072 0.93311 0.24463 0.0
H1116 H 0.40723 1.00265 0.20696 0.0
H1117 H 0.38371 0.99601 0.14939 0.0
C1118 C 0.34531 0.95657 0.13035 0.0
C1119 C 0.32615 0.93468 0.12351 0.0
C1120 C 0.35862 0.96076 0.16378 0.0
C1121 C 0.31973 0.91725 0.15095 0.0
C1122 C 0.33247 0.92145 0.18476 0.0
C1123 C 0.36594 0.94682 0.22371 0.0
C1124 C 0.38596 0.96829 0.22994 0.0
C1125 C 0.35225 0.94296 0.191 0.0
C1126 C 0.39213 0.98588 0.20269 0.0
C1127 C 0.37859 0.98214 0.16989 0.0
H1128 H 0.44325 0.11011 0.9 0.0
H1129 H 0.37057 0.06384 0.88174 0.0
H1130 H 0.37943 0.04783 0.82515 0.0
H1131 H 0.40825 0.04689 0.78134 0.0
H1132 H 0.48052 0.09403 0.80035 0.0
H1133 H 0.47144 0.10925 0.8574 0.0
C1134 C 0.42921 0.0966 0.88365 0.0
C1135 C 0.40623 0.08825 0.89516 0.0
C1136 C 0.43445 0.0872 0.85198 0.0
C1137 C 0.38839 0.07077 0.87336 0.0
C1138 C 0.39348 0.06143 0.84129 0.0
C1139 C 0.42194 0.06004 0.79874 0.0
C1140 C 0.44507 0.06893 0.78762 0.0
C1141 C 0.41649 0.06931 0.83066 0.0
C1142 C 0.46269 0.08663 0.80914 0.0
C1143 C 0.45747 0.0955 0.84136 0.0
H1144 H 0.94479 0.35387 0.91123 0.0
H1145 H 0.97061 0.3083 0.88227 0.0
H1146 H 0.98942 0.33162 0.82508 0.0
H1147 H 0.99776 0.36474 0.78279 0.0
H1148 H 0.9706 0.40894 0.81219 0.0
H1149 H 0.95374 0.38681 0.87097 0.0
C1150 C 0.95435 0.34878 0.89239 0.0
C1151 C 0.95601 0.32911 0.90088 0.0
C1152 C 0.96542 0.36245 0.86032 0.0
C1153 C 0.96879 0.32315 0.8762 0.0
C1154 C 0.97973 0.33662 0.84374 0.0
C1155 C 0.98873 0.36984 0.80283 0.0
C1156 C 0.98591 0.38878 0.79412 0.0
C1157 C 0.97826 0.35639 0.83566 0.0
C1158 C 0.97343 0.3948 0.81913 0.0
C1159 C 0.96355 0.38196 0.85231 0.0
H1160 H 0.70063 0.59564 0.90122 0.0
H1161 H 0.73467 0.66892 0.88099 0.0
H1162 H 0.71163 0.66216 0.82256 0.0
H1163 H 0.68114 0.63509 0.77782 0.0
H1164 H 0.64832 0.5621 0.79865 0.0
H1165 H 0.67103 0.5691 0.85733 0.0
C1166 C 0.70323 0.61024 0.88402 0.0
C1167 C 0.71945 0.6328 0.89556 0.0
C1168 C 0.68964 0.60625 0.85121 0.0
C1169 C 0.7225 0.65138 0.87266 0.0
C1170 C 0.70913 0.64752 0.8395 0.0
C1171 C 0.67863 0.62084 0.7959 0.0
C1172 C 0.66263 0.59813 0.78494 0.0
C1173 C 0.6924 0.62503 0.82882 0.0
C1174 C 0.66012 0.57968 0.80735 0.0
C1175 C 0.67329 0.58369 0.84052 0.0
H1176 H 0.98135 0.65292 0.90376 0.0
H1177 H 0.9102 0.62208 0.86966 0.0
H1178 H 0.91787 0.60564 0.8127 0.0
H1179 H 0.94385 0.59775 0.77572 0.0
H1180 H 1.01529 0.62799 0.80876 0.0
H1181 H 1.00833 0.6464 0.86397 0.0
C1182 C 0.96781 0.64332 0.88296 0.0
C1183 C 0.94539 0.63926 0.88998 0.0
C1184 C 0.97218 0.63307 0.8512 0.0
C1185 C 0.92768 0.62594 0.86402 0.0
C1186 C 0.93199 0.61622 0.83193 0.0
C1187 C 0.95797 0.60816 0.7951 0.0
C1188 C 0.98005 0.61121 0.78821 0.0
C1189 C 0.954 0.61915 0.82589 0.0
C1190 C 0.99806 0.62503 0.8136 0.0
C1191 C 0.99413 0.63577 0.84493 0.0
H1192 H 0.44302 0.33927 0.90177 0.0
H1193 H 0.37035 0.29907 0.87621 0.0
H1194 H 0.37583 0.32353 0.82036 0.0
H1195 H 0.40151 0.35669 0.77889 0.0
H1196 H 0.47401 0.39593 0.80484 0.0
H1197 H 0.46824 0.37197 0.86145 0.0
C1198 C 0.42833 0.33557 0.88383 0.0
C1199 C 0.4063 0.31717 0.89318 0.0
C1200 C 0.43151 0.35001 0.85249 0.0
C1201 C 0.38755 0.31289 0.86953 0.0
C1202 C 0.39063 0.32706 0.83782 0.0
C1203 C 0.41585 0.36031 0.79771 0.0
C1204 C 0.43804 0.37845 0.78873 0.0
C1205 C 0.41249 0.34586 0.82934 0.0
C1206 C 0.45673 0.38246 0.81207 0.0
C1207 C 0.45346 0.36857 0.84401 0.0
H1208 H 0.70955 0.06144 0.90742 0.0
H1209 H 0.75307 0.13083 0.8672 0.0
H1210 H 0.73036 0.12191 0.80808 0.0
H1211 H 0.69649 0.0956 0.77094 0.0
H1212 H 0.65151 0.02635 0.81141 0.0
H1213 H 0.67621 0.03408 0.86793 0.0
C1214 C 0.71446 0.07428 0.88496 0.0
C1215 C 0.7333 0.09655 0.89081 0.0
C1216 C 0.70063 0.06929 0.85196 0.0
C1217 C 0.73902 0.11343 0.86256 0.0
C1218 C 0.72583 0.10842 0.82916 0.0
C1219 C 0.69186 0.08216 0.79221 0.0
C1220 C 0.67187 0.06052 0.78724 0.0
C1221 C 0.70622 0.08664 0.82415 0.0
C1222 C 0.66657 0.04325 0.81479 0.0
C1223 C 0.68078 0.04762 0.84695 0.0
H1224 H 0.66162 0.9759 0.10787 0.0
H1225 H 0.63332 0.90533 0.14324 0.0
H1226 H 0.61919 0.91334 0.20283 0.0
H1227 H 0.61205 0.9394 0.2416 0.0
H1228 H 0.63854 1.0098 0.20543 0.0
H1229 H 0.65579 1.00277 0.14868 0.0
C1230 C 0.65304 0.96256 0.12937 0.0
C1231 C 0.64904 0.94024 0.12204 0.0
C1232 C 0.64396 0.96707 0.16251 0.0
C1233 C 0.63712 0.92275 0.14907 0.0
C1234 C 0.62873 0.92727 0.18271 0.0
C1235 C 0.6214 0.95324 0.22122 0.0
C1236 C 0.62362 0.97503 0.22751 0.0
C1237 C 0.63146 0.94916 0.18911 0.0
C1238 C 0.63625 0.99279 0.20105 0.0
C1239 C 0.64627 0.98883 0.16878 0.0
H1240 H 0.05401 0.67178 0.23486 0.0
H1241 H 0.0949 0.64018 0.21004 0.0
H1242 H 0.1116 0.66521 0.1541 0.0
H1243 H 0.11553 0.69665 0.11405 0.0
H1244 H 0.07543 0.72933 0.13831 0.0
H1245 H 0.05804 0.70386 0.19376 0.0
C1246 C 0.06608 0.67002 0.21642 0.0
C1247 C 0.07277 0.65375 0.22558 0.0
C1248 C 0.07627 0.68512 0.1852 0.0
C1249 C 0.08915 0.6522 0.20274 0.0
C1250 C 0.09889 0.6667 0.17117 0.0
C1251 C 0.10316 0.69847 0.13156 0.0
C1252 C 0.09691 0.71503 0.122 0.0
C1253 C 0.09285 0.68344 0.16255 0.0
C1254 C 0.08077 0.71694 0.14516 0.0
C1255 C 0.0706 0.70217 0.17659 0.0
H1256 H 0.37318 0.44538 0.23421 0.0
H1257 H 0.40418 0.40399 0.20782 0.0
H1258 H 0.37786 0.38693 0.15322 0.0
H1259 H 0.34586 0.38388 0.11302 0.0
H1260 H 0.31627 0.42638 0.13919 0.0
H1261 H 0.34159 0.44222 0.19514 0.0
C1262 C 0.37444 0.43278 0.21642 0.0
C1263 C 0.39084 0.42613 0.2251 0.0
C1264 C 0.35895 0.4227 0.18583 0.0
C1265 C 0.39197 0.40967 0.20163 0.0
C1266 C 0.37671 0.39969 0.17069 0.0
C1267 C 0.34454 0.39607 0.13182 0.0
C1268 C 0.32876 0.40346 0.12302 0.0
C1269 C 0.35994 0.40587 0.16283 0.0
C1270 C 0.32784 0.42002 0.14628 0.0
C1271 C 0.34254 0.4293 0.17781 0.0
H1272 H 0.73036 0.73014 0.56867 0.0
H1273 H 0.76961 0.80302 0.54624 0.0
H1274 H 0.78572 0.79593 0.48821 0.0
H1275 H 0.78979 0.76942 0.44585 0.0
H1276 H 0.7515 0.69626 0.46769 0.0
H1277 H 0.73432 0.70305 0.52486 0.0
C1278 C 0.74195 0.74433 0.55033 0.0
C1279 C 0.74834 0.76703 0.56072 0.0
C1280 C 0.75178 0.74011 0.5178 0.0
C1281 C 0.76408 0.78543 0.53798 0.0
C1282 C 0.77348 0.78137 0.50519 0.0
C1283 C 0.77782 0.75485 0.46312 0.0
C1284 C 0.7721 0.73232 0.45249 0.0
C1285 C 0.76773 0.75884 0.49523 0.0
C1286 C 0.75644 0.71378 0.47536 0.0
C1287 C 0.74643 0.71765 0.50782 0.0
H1288 H 0.28161 1.01415 0.43489 0.0
H1289 H 0.3432 0.07293 0.47869 0.0
H1290 H 0.33866 0.05242 0.53948 0.0
H1291 H 0.31562 0.01845 0.58112 0.0
H1292 H 0.25448 0.96003 0.53601 0.0
H1293 H 0.26076 0.97948 0.47383 0.0
C1294 C 0.29406 0.02261 0.45774 0.0
C1295 C 0.31245 0.04528 0.45266 0.0
C1296 C 0.29159 1.01059 0.49192 0.0
C1297 C 0.32873 0.05566 0.48216 0.0
C1298 C 0.32618 0.04389 0.51677 0.0
C1299 C 0.30405 1.00989 0.55725 0.0
C1300 C 0.2848 0.98781 0.56256 0.0
C1301 C 0.30754 0.02143 0.52204 0.0
C1302 C 0.26961 0.97682 0.53202 0.0
C1303 C 0.27307 0.98807 0.49679 0.0
H1304 H 0.03799 0.31888 0.57249 0.0
H1305 H 0.07942 0.28916 0.53939 0.0
H1306 H 0.0565 0.27362 0.48096 0.0
H1307 H 1.02291 0.26543 0.44325 0.0
H1308 H 0.98048 0.2945 0.47471 0.0
H1309 H 1.00518 0.31283 0.53093 0.0
C1310 C 0.04244 0.30974 0.5516 0.0
C1311 C 0.06071 0.30564 0.55938 0.0
C1312 C 0.02849 0.3 0.51893 0.0
C1313 C 0.06586 0.29301 0.53321 0.0
C1314 C 0.0525 0.28381 0.50027 0.0
C1315 C 1.01881 0.27565 0.46236 0.0
C1316 C 0.99953 0.27822 0.45501 0.0
C1317 C 0.03337 0.28657 0.49359 0.0
C1318 C 0.99494 0.2919 0.47997 0.0
C1319 C 1.00921 0.30256 0.51187 0.0
H1320 H 0.28285 0.2594 0.45154 0.0
H1321 H 0.35568 0.30143 0.47449 0.0
H1322 H 0.34727 0.3191 0.52911 0.0
H1323 H 0.31893 0.32283 0.56991 0.0
H1324 H 0.24641 0.28001 0.54658 0.0
H1325 H 0.25502 0.26299 0.49142 0.0
C1326 C 0.29698 0.27225 0.46863 0.0
C1327 C 0.3199 0.27896 0.4589 0.0
C1328 C 0.29205 0.28269 0.4992 0.0
C1329 C 0.33787 0.29571 0.4815 0.0
C1330 C 0.33308 0.30603 0.51246 0.0
C1331 C 0.30513 0.31025 0.55195 0.0
C1332 C 0.28209 0.30312 0.56131 0.0
C1333 C 0.31023 0.29989 0.52121 0.0
C1334 C 0.26424 0.2861 0.53911 0.0
C1335 C 0.26917 0.27619 0.50799 0.0
H1336 H 0.72787 1.00822 0.57125 0.0
H1337 H 0.75116 0.96153 0.537 0.0
H1338 H 0.76663 0.98305 0.47729 0.0
H1339 H 0.77612 1.01644 0.43795 0.0
H1340 H 0.75388 0.06427 0.47115 0.0
H1341 H 0.73554 0.0411 0.52869 0.0
C1342 C 0.73565 1.00241 0.54995 0.0
C1343 C 0.73789 0.98302 0.55765 0.0
C1344 C 0.7453 1.01545 0.5164 0.0
C1345 C 0.74878 0.97605 0.53091 0.0
C1346 C 0.75789 0.98855 0.49717 0.0
C1347 C 0.7675 0.02209 0.45783 0.0
C1348 C 0.76681 0.0424 0.45054 0.0
C1349 C 0.75681 1.00859 0.49023 0.0
C1350 C 0.75505 0.04898 0.47639 0.0
C1351 C 0.74444 0.03564 0.50914 0.0
H1352 H 0.03907 0.77704 0.56576 0.0
H1353 H 0.07674 0.74253 0.53619 0.0
H1354 H 0.05217 0.72576 0.4795 0.0
H1355 H 1.02041 0.72182 0.43752 0.0
H1356 H 0.9836 0.75686 0.46811 0.0
H1357 H 1.00694 0.77191 0.52631 0.0
C1358 C 0.04219 0.76604 0.54683 0.0
C1359 C 0.06 0.76131 0.5551 0.0
C1360 C 0.02771 0.75607 0.51509 0.0
C1361 C 0.06342 0.74675 0.53029 0.0
C1362 C 0.04922 0.73698 0.49809 0.0
C1363 C 1.01708 0.73211 0.45775 0.0
C1364 C 0.99991 0.73771 0.44949 0.0
C1365 C 0.03121 0.74142 0.49034 0.0
C1366 C 0.99629 0.75186 0.47472 0.0
C1367 C 1.00987 0.76073 0.50756 0.0
H1368 H 0.08711 0.33338 0.91722 0.0
H1369 H 0.13158 0.40446 0.88502 0.0
H1370 H 0.12677 0.39379 0.81752 0.0
H1371 H 0.10923 0.36455 0.76711 0.0
H1372 H 0.06476 0.29343 0.79886 0.0
H1373 H 0.07032 0.30389 0.86662 0.0
C1374 C 0.09584 0.3465 0.89545 0.0
C1375 C 0.1096 0.36967 0.90632 0.0
C1376 C 0.09296 0.3403 0.85639 0.0
C1377 C 0.12079 0.38647 0.87763 0.0
C1378 C 0.11806 0.38042 0.83888 0.0
C1379 C 0.10078 0.35133 0.78883 0.0
C1380 C 0.08657 0.32828 0.77779 0.0
C1381 C 0.10404 0.35743 0.82788 0.0
C1382 C 0.07581 0.31136 0.80643 0.0
C1383 C 0.07896 0.3173 0.84529 0.0
H1384 H 0.65655 0.7444 0.88288 0.0
H1385 H 0.72452 0.77603 0.93326 0.0
H1386 H 0.7417 0.7844 0.8692 0.0
H1387 H 0.73743 0.78165 0.79921 0.0
H1388 H 0.66953 0.74967 0.74857 0.0
H1389 H 0.65232 0.74259 0.81264 0.0
C1390 C 0.67515 0.75323 0.87995 0.0
C1391 C 0.68921 0.75951 0.91298 0.0
C1392 C 0.68491 0.75787 0.84301 0.0
C1393 C 0.71326 0.77096 0.90846 0.0
C1394 C 0.72311 0.77573 0.8718 0.0
C1395 C 0.71885 0.7732 0.80204 0.0
C1396 C 0.7048 0.76614 0.76898 0.0
C1397 C 0.70909 0.76909 0.83892 0.0
C1398 C 0.68077 0.75527 0.77342 0.0
C1399 C 0.67092 0.75119 0.81008 0.0
H1400 H 0.27756 0.95031 0.91827 0.0
H1401 H 0.3113 0.91246 0.88503 0.0
H1402 H 0.30575 0.91778 0.81757 0.0
H1403 H 0.29259 0.93432 0.76748 0.0
H1404 H 0.25903 0.97235 0.80055 0.0
H1405 H 0.26318 0.96572 0.86807 0.0
C1406 C 0.28357 0.94312 0.89628 0.0
C1407 C 0.29492 0.93112 0.90689 0.0
C1408 C 0.28044 0.94631 0.85725 0.0
C1409 C 0.30258 0.92189 0.87788 0.0
C1410 C 0.29943 0.92491 0.83914 0.0
C1411 C 0.28607 0.94104 0.78943 0.0
C1412 C 0.27561 0.95388 0.77878 0.0
C1413 C 0.28858 0.93727 0.82843 0.0
C1414 C 0.26724 0.96245 0.80775 0.0
C1415 C 0.2696 0.95869 0.84651 0.0
H1416 H 0.33999 0.08083 0.09835 0.0
H1417 H 0.41201 0.11882 0.12944 0.0
H1418 H 0.40192 0.11571 0.19702 0.0
H1419 H 0.37279 0.10098 0.24806 0.0
H1420 H 0.30074 0.06308 0.21731 0.0
H1421 H 0.31074 0.06754 0.14947 0.0
C1422 C 0.35345 0.08852 0.11989 0.0
C1423 C 0.37668 0.0999 0.10861 0.0
C1424 C 0.34757 0.08668 0.15907 0.0
C1425 C 0.39392 0.10984 0.13707 0.0
C1426 C 0.38821 0.10809 0.17591 0.0
C1427 C 0.35928 0.09384 0.22654 0.0
C1428 C 0.3361 0.08163 0.23796 0.0
C1429 C 0.36511 0.09637 0.18733 0.0
C1430 C 0.3188 0.07252 0.20952 0.0
C1431 C 0.32447 0.07501 0.17056 0.0
H1432 H 0.94314 0.28441 0.25311 0.0
H1433 H 0.9776 0.24721 0.2203 0.0
H1434 H 0.97244 0.25283 0.15268 0.0
H1435 H 0.95939 0.26954 0.10241 0.0
H1436 H 0.92495 0.30672 0.13566 0.0
H1437 H 0.92881 0.29977 0.20304 0.0
C1438 C 0.94941 0.27742 0.2312 0.0
C1439 C 0.96081 0.2655 0.24194 0.0
C1440 C 0.94646 0.28075 0.19219 0.0
C1441 C 0.96878 0.25652 0.21302 0.0
C1442 C 0.96588 0.25973 0.17421 0.0
C1443 C 0.95262 0.276 0.12438 0.0
C1444 C 0.94201 0.28872 0.11379 0.0
C1445 C 0.95493 0.27201 0.1634 0.0
C1446 C 0.93329 0.29693 0.14278 0.0
C1447 C 0.93549 0.29299 0.18148 0.0
H1448 H 0.76233 0.66739 0.25003 0.0
H1449 H 0.80321 0.73876 0.21688 0.0
H1450 H 0.79737 0.72794 0.14935 0.0
H1451 H 0.77926 0.69831 0.09908 0.0
H1452 H 0.73834 0.62698 0.13266 0.0
H1453 H 0.74566 0.63773 0.19997 0.0
C1454 C 0.77011 0.68055 0.22806 0.0
C1455 C 0.78308 0.70383 0.23872 0.0
C1456 C 0.7666 0.67426 0.18903 0.0
C1457 C 0.79304 0.72066 0.2097 0.0
C1458 C 0.7897 0.71452 0.17091 0.0
C1459 C 0.77205 0.68513 0.12111 0.0
C1460 C 0.75818 0.66191 0.11057 0.0
C1461 C 0.77628 0.69139 0.16016 0.0
C1462 C 0.74903 0.64505 0.13968 0.0
C1463 C 0.75319 0.65114 0.17837 0.0
H1464 H 0.94659 0.67168 0.24653 0.0
H1465 H 0.98123 0.74305 0.21171 0.0
H1466 H 0.9742 0.73167 0.14459 0.0
H1467 H 0.95931 0.70163 0.09521 0.0
H1468 H 0.92474 0.6302 0.12937 0.0
H1469 H 0.93061 0.64146 0.19683 0.0
C1470 C 0.95247 0.68472 0.22427 0.0
C1471 C 0.96449 0.70817 0.23434 0.0
C1472 C 0.94847 0.67809 0.18538 0.0
C1473 C 0.972 0.72484 0.20499 0.0
C1474 C 0.96801 0.71838 0.16644 0.0
C1475 C 0.95298 0.68852 0.11738 0.0
C1476 C 0.94167 0.66513 0.10709 0.0
C1477 C 0.95644 0.69507 0.15624 0.0
C1478 C 0.93355 0.64837 0.13633 0.0
C1479 C 0.9369 0.65477 0.17503 0.0
H1480 H 0.32413 0.25616 0.22052 0.0
H1481 H 0.39292 0.29412 0.26737 0.0
H1482 H 0.40903 0.30095 0.20262 0.0
H1483 H 0.40363 0.29693 0.13277 0.0
H1484 H 0.33489 0.25904 0.08574 0.0
H1485 H 0.31877 0.25136 0.15059 0.0
C1486 C 0.34267 0.26589 0.21666 0.0
C1487 C 0.35727 0.27466 0.24892 0.0
C1488 C 0.35184 0.26978 0.17929 0.0
C1489 C 0.38124 0.28717 0.24319 0.0
C1490 C 0.39048 0.2911 0.20612 0.0
C1491 C 0.38511 0.28691 0.1366 0.0
C1492 C 0.37051 0.27863 0.10427 0.0
C1493 C 0.37595 0.28261 0.17397 0.0
C1494 C 0.34656 0.26565 0.10999 0.0
C1495 C 0.33731 0.26127 0.14711 0.0
H1496 H 0.7603 0.09957 0.24891 0.0
H1497 H 0.80219 0.06987 0.21743 0.0
H1498 H 0.79812 0.07618 0.14989 0.0
H1499 H 0.78159 0.0887 0.09919 0.0
H1500 H 0.73967 0.11848 0.12968 0.0
H1501 H 0.74489 0.1136 0.19773 0.0
C1502 C 0.76868 0.09467 0.22728 0.0
C1503 C 0.7814 0.08414 0.2384 0.0
C1504 C 0.76618 0.09823 0.1881 0.0
C1505 C 0.79215 0.07788 0.20988 0.0
C1506 C 0.78984 0.08146 0.17109 0.0
C1507 C 0.77363 0.09418 0.12068 0.0
C1508 C 0.76018 0.10382 0.10923 0.0
C1509 C 0.77668 0.09135 0.15982 0.0
C1510 C 0.75011 0.11095 0.13759 0.0
C1511 C 0.75306 0.10817 0.1766 0.0
H1512 H 0.67576 0.9387 0.76397 0.0
H1513 H 0.74701 0.96533 0.79537 0.0
H1514 H 0.73675 0.96072 0.86314 0.0
H1515 H 0.70776 0.95003 0.91391 0.0
H1516 H 0.63652 0.92348 0.88259 0.0
H1517 H 0.64663 0.92719 0.81478 0.0
C1518 C 0.68902 0.94335 0.78562 0.0
C1519 C 0.7121 0.95238 0.77446 0.0
C1520 C 0.68306 0.94079 0.82476 0.0
C1521 C 0.72907 0.95838 0.80301 0.0
C1522 C 0.72325 0.95578 0.84189 0.0
C1523 C 0.69445 0.94504 0.89227 0.0
C1524 C 0.67146 0.93657 0.90347 0.0
C1525 C 0.70034 0.94718 0.85314 0.0
C1526 C 0.65441 0.9301 0.87493 0.0
C1527 C 0.66014 0.9322 0.83603 0.0
H1528 H 0.08155 0.78057 0.79357 0.0
H1529 H 0.11649 0.74615 0.74891 0.0
H1530 H 0.12343 0.73779 0.81428 0.0
H1531 H 0.11886 0.7395 0.8839 0.0
H1532 H 0.08361 0.77359 0.9286 0.0
H1533 H 0.07755 0.78284 0.86327 0.0
C1534 C 0.09077 0.77131 0.79804 0.0
C1535 C 0.09846 0.76398 0.76624 0.0
C1536 C 0.0946 0.76644 0.83571 0.0
C1537 C 0.11036 0.75199 0.77275 0.0
C1538 C 0.11432 0.74718 0.81016 0.0
C1539 C 0.10989 0.74901 0.87946 0.0
C1540 C 0.10167 0.75579 0.91124 0.0
C1541 C 0.1064 0.7542 0.84182 0.0
C1542 C 0.09011 0.76812 0.90477 0.0
C1543 C 0.08662 0.77341 0.86738 0.0
H1544 H 0.26501 0.31495 0.79856 0.0
H1545 H 0.30341 0.38276 0.74842 0.0
H1546 H 0.31176 0.39994 0.81254 0.0
H1547 H 0.30897 0.39566 0.88274 0.0
H1548 H 0.27076 0.32778 0.93273 0.0
H1549 H 0.26153 0.31072 0.8686 0.0
C1550 C 0.27514 0.33352 0.80153 0.0
C1551 C 0.28359 0.34753 0.76857 0.0
C1552 C 0.27997 0.34327 0.83847 0.0
C1553 C 0.29668 0.37154 0.77317 0.0
C1554 C 0.30149 0.38138 0.80987 0.0
C1555 C 0.29856 0.37712 0.8797 0.0
C1556 C 0.29063 0.36304 0.91266 0.0
C1557 C 0.29336 0.3674 0.84271 0.0
C1558 C 0.27713 0.33906 0.90799 0.0
C1559 C 0.27185 0.32928 0.87128 0.0
H1560 H 0.06719 0.4424 0.46386 0.0
H1561 H 0.99803 0.41114 0.41848 0.0
H1562 H 0.98257 0.40416 0.4838 0.0
H1563 H 0.9887 0.40641 0.55362 0.0
H1564 H 0.05796 0.43755 0.59863 0.0
H1565 H 0.07335 0.44513 0.53338 0.0
C1566 C 0.04871 0.43408 0.46813 0.0
C1567 C 0.0338 0.42726 0.43621 0.0
C1568 C 0.03996 0.43009 0.50568 0.0
C1569 C 1.00992 0.41656 0.44246 0.0
C1570 C 1.00106 0.41255 0.47982 0.0
C1571 C 1.00718 0.41491 0.54924 0.0
C1572 C 1.02214 0.42137 0.58109 0.0
C1573 C 1.01593 0.41916 0.51162 0.0
C1574 C 0.04603 0.43237 0.57474 0.0
C1575 C 0.05486 0.4367 0.53741 0.0
H1576 H 0.63752 0.58542 0.54634 0.0
H1577 H 0.60426 0.61977 0.59793 0.0
H1578 H 0.59578 0.6289 0.5341 0.0
H1579 H 0.59913 0.62839 0.46393 0.0
H1580 H 0.63271 0.5943 0.41251 0.0
H1581 H 0.63969 0.58376 0.47625 0.0
C1582 C 0.62832 0.59483 0.54375 0.0
C1583 C 0.62163 0.60198 0.57701 0.0
C1584 C 0.62363 0.60012 0.50701 0.0
C1585 C 0.60963 0.61406 0.57291 0.0
C1586 C 0.60482 0.61933 0.5364 0.0
C1587 C 0.60791 0.61857 0.46655 0.0
C1588 C 0.61548 0.61225 0.43336 0.0
C1589 C 0.61195 0.61264 0.50329 0.0
C1590 C 0.62672 0.59944 0.43747 0.0
C1591 C 0.63075 0.59342 0.47393 0.0
H1592 H 0.45985 0.05834 0.54914 0.0
H1593 H 0.42538 0.99061 0.6003 0.0
H1594 H 0.41651 0.97315 0.53641 0.0
H1595 H 0.41729 0.97713 0.46631 0.0
H1596 H 0.45142 0.04487 0.41516 0.0
H1597 H 0.46176 0.0623 0.47899 0.0
C1598 C 0.45048 0.03974 0.54642 0.0
C1599 C 0.44322 0.02581 0.5796 0.0
C1600 C 0.44533 0.02982 0.50963 0.0
C1601 C 0.43116 1.00175 0.57536 0.0
C1602 C 0.42605 0.99175 0.53881 0.0
C1603 C 0.42708 0.99572 0.46901 0.0
C1604 C 0.43348 1.00966 0.43587 0.0
C1605 C 0.43286 1.00563 0.50578 0.0
C1606 C 0.44624 0.03371 0.44008 0.0
C1607 C 0.45213 0.0437 0.4766 0.0
H1608 H 0.59931 0.97791 0.46292 0.0
H1609 H 0.63293 0.0473 0.41839 0.0
H1610 H 0.64082 0.06251 0.48385 0.0
H1611 H 0.63943 0.05614 0.55333 0.0
H1612 H 0.60654 0.98679 0.59795 0.0
H1613 H 0.59703 0.97153 0.53257 0.0
C1614 C 0.60824 0.99638 0.46743 0.0
C1615 C 0.61555 1.01144 0.43565 0.0
C1616 C 0.61292 1.005 0.50511 0.0
C1617 C 0.62713 0.03531 0.44221 0.0
C1618 C 0.63167 0.04402 0.47966 0.0
C1619 C 0.63007 0.03766 0.5489 0.0
C1620 C 0.62376 0.02264 0.58063 0.0
C1621 C 0.62484 0.02902 0.51127 0.0
C1622 C 0.61164 0.99876 0.57415 0.0
C1623 C 0.60622 0.99002 0.53675 0.0
H1624 H 0.98473 0.59208 0.55054 0.0
H1625 H 0.05349 0.62304 0.59763 0.0
H1626 H 0.06949 0.62985 0.53276 0.0
H1627 H 0.06404 0.62784 0.46296 0.0
H1628 H 0.99535 0.59729 0.41577 0.0
H1629 H 0.97924 0.58941 0.48066 0.0
C1630 C 1.00324 0.60027 0.54673 0.0
C1631 C 1.01788 0.60708 0.57904 0.0
C1632 C 1.01232 0.60421 0.50936 0.0
C1633 C 0.0418 0.61764 0.57338 0.0
C1634 C 0.05097 0.62155 0.53626 0.0
C1635 C 0.04552 0.61936 0.46674 0.0
C1636 C 0.03093 0.61319 0.43441 0.0
C1637 C 0.0364 0.61502 0.50408 0.0
C1638 C 1.00699 0.60224 0.44004 0.0
C1639 C 0.99776 0.59775 0.47716 0.0
H1640 H 0.4145 0.44474 0.46314 0.0
H1641 H 0.45048 0.41176 0.41681 0.0
H1642 H 0.45804 0.40347 0.48178 0.0
H1643 H 0.45377 0.40479 0.55133 0.0
H1644 H 0.41742 0.43722 0.59823 0.0
H1645 H 0.41073 0.44657 0.53322 0.0
C1646 C 0.42409 0.43582 0.46718 0.0
C1647 C 0.43189 0.42887 0.43498 0.0
C1648 C 0.42827 0.43097 0.50468 0.0
C1649 C 0.44424 0.41729 0.44093 0.0
C1650 C 0.44857 0.41253 0.47811 0.0
C1651 C 0.44443 0.41398 0.54751 0.0
C1652 C 0.43609 0.42026 0.57978 0.0
C1653 C 0.44056 0.41917 0.51014 0.0
C1654 C 0.42403 0.43216 0.57402 0.0
C1655 C 0.42019 0.4375 0.53682 0.0
loop_
_geom_bond_atom_site_label_1
_geom_bond_atom_site_label_2
_geom_bond_distance
_geom_bond_site_symmetry_2
_ccdc_geom_bond_type
C0 O2 1.247 . S
C0 O4 1.258 . S
C1 O8 1.247 . S
C1 O9 1.258 . S
O2 C0 1.247 . S
O2 Zn3 2.028 1_554 S
Zn3 O2 2.028 1_556 S
Zn3 O7 2.035 . S
Zn3 O9 2.035 . S
Zn3 O10 2.028 . S
O4 C0 1.258 . S
O4 Zn5 2.035 . S
Zn5 O4 2.035 . S
Zn5 O6 2.028 . S
Zn5 O8 2.028 1_554 S
Zn5 O11 2.035 . S
O6 Zn5 2.028 . S
O6 C12 1.247 1_554 S
O7 Zn3 2.035 . S
O7 C12 1.258 . S
O8 C1 1.247 . S
O8 Zn5 2.028 1_556 S
O9 C1 1.258 . S
O9 Zn3 2.035 . S
O10 Zn3 2.028 . S
O10 C13 1.247 1_556 S
O11 Zn5 2.035 . S
O11 C13 1.258 . S
C12 O6 1.247 1_556 S
C12 O7 1.258 . S
C13 O10 1.247 1_554 S
C13 O11 1.258 . S
C14 O16 1.247 . S
C14 O18 1.258 . S
C15 O22 1.247 . S
C15 O23 1.258 . S
O16 C14 1.247 . S
O16 Zn17 2.028 . S
Zn17 O16 2.028 . S
Zn17 O21 2.035 . S
Zn17 O23 2.035 1_556 S
Zn17 O24 2.028 . S
O18 C14 1.258 . S
O18 Zn19 2.035 1_556 S
Zn19 O18 2.035 1_554 S
Zn19 O20 2.028 . S
Zn19 O22 2.028 . S
Zn19 O25 2.035 . S
O20 Zn19 2.028 . S
O20 C26 1.247 . S
O21 Zn17 2.035 . S
O21 C26 1.258 1_556 S
O22 C15 1.247 . S
O22 Zn19 2.028 . S
O23 C15 1.258 . S
O23 Zn17 2.035 1_554 S
O24 Zn17 2.028 . S
O24 C27 1.247 . S
O25 Zn19 2.035 . S
O25 C27 1.258 1_554 S
C26 O20 1.247 . S
C26 O21 1.258 1_554 S
C27 O24 1.247 . S
C27 O25 1.258 1_556 S
C28 O30 1.247 1_556 S
C28 O32 1.258 . S
C29 O36 1.247 1_554 S
C29 O37 1.258 . S
O30 C28 1.247 1_554 S
O30 Zn31 2.028 . S
Zn31 O30 2.028 . S
Zn31 O35 2.035 . S
Zn31 O37 2.035 . S
Zn31 O38 2.028 1_554 S
O32 C28 1.258 . S
O32 Zn33 2.035 . S
Zn33 O32 2.035 . S
Zn33 O34 2.028 1_556 S
Zn33 O36 2.028 . S
Zn33 O39 2.035 . S
O34 Zn33 2.028 1_554 S
O34 C40 1.247 . S
O35 Zn31 2.035 . S
O35 C40 1.258 . S
O36 C29 1.247 1_556 S
O36 Zn33 2.028 . S
O37 C29 1.258 . S
O37 Zn31 2.035 . S
O38 Zn31 2.028 1_556 S
O38 C41 1.247 . S
O39 Zn33 2.035 . S
O39 C41 1.258 . S
C40 O34 1.247 . S
C40 O35 1.258 . S
C41 O38 1.247 . S
C41 O39 1.258 . S
C42 O44 1.247 . S
C42 O46 1.258 1_556 S
C43 O50 1.247 . S
C43 O51 1.258 1_554 S
O44 C42 1.247 . S
O44 Zn45 2.028 . S
Zn45 O44 2.028 . S
Zn45 O49 2.035 1_556 S
Zn45 O51 2.035 . S
Zn45 O52 2.028 . S
O46 C42 1.258 1_554 S
O46 Zn47 2.035 . S
Zn47 O46 2.035 . S
Zn47 O48 2.028 . S
Zn47 O50 2.028 . S
Zn47 O53 2.035 1_554 S
O48 Zn47 2.028 . S
O48 C54 1.247 . S
O49 Zn45 2.035 1_554 S
O49 C54 1.258 . S
O50 C43 1.247 . S
O50 Zn47 2.028 . S
O51 C43 1.258 1_556 S
O51 Zn45 2.035 . S
O52 Zn45 2.028 . S
O52 C55 1.247 . S
O53 Zn47 2.035 1_556 S
O53 C55 1.258 . S
C54 O48 1.247 . S
C54 O49 1.258 . S
C55 O52 1.247 . S
C55 O53 1.258 . S
C56 O58 1.247 . S
C56 O60 1.258 . S
C57 O64 1.247 . S
C57 O65 1.258 . S
O58 C56 1.247 . S
O58 Zn59 2.028 . S
Zn59 O58 2.028 . S
Zn59 O63 2.035 . S
Zn59 O65 2.035 1_554 S
Zn59 O66 2.028 . S
O60 C56 1.258 . S
O60 Zn61 2.035 1_554 S
Zn61 O60 2.035 1_556 S
Zn61 O62 2.028 . S
Zn61 O64 2.028 . S
Zn61 O67 2.035 . S
O62 Zn61 2.028 . S
O62 C68 1.247 . S
O63 Zn59 2.035 . S
O63 C68 1.258 1_554 S
O64 C57 1.247 . S
O64 Zn61 2.028 . S
O65 C57 1.258 . S
O65 Zn59 2.035 1_556 S
O66 Zn59 2.028 . S
O66 C69 1.247 . S
O67 Zn61 2.035 . S
O67 C69 1.258 1_556 S
C68 O62 1.247 . S
C68 O63 1.258 1_556 S
C69 O66 1.247 . S
C69 O67 1.258 1_554 S
C70 O72 1.247 . S
C70 O74 1.258 . S
C71 O78 1.247 . S
C71 O79 1.258 . S
O72 C70 1.247 . S
O72 Zn73 2.028 1_556 S
Zn73 O72 2.028 1_554 S
Zn73 O77 2.035 . S
Zn73 O79 2.035 . S
Zn73 O80 2.028 . S
O74 C70 1.258 . S
O74 Zn75 2.035 . S
Zn75 O74 2.035 . S
Zn75 O76 2.028 . S
Zn75 O78 2.028 1_556 S
Zn75 O81 2.035 . S
O76 Zn75 2.028 . S
O76 C82 1.247 1_556 S
O77 Zn73 2.035 . S
O77 C82 1.258 . S
O78 C71 1.247 . S
O78 Zn75 2.028 1_554 S
O79 C71 1.258 . S
O79 Zn73 2.035 . S
O80 Zn73 2.028 . S
O80 C83 1.247 1_554 S
O81 Zn75 2.035 . S
O81 C83 1.258 . S
C82 O76 1.247 1_554 S
C82 O77 1.258 . S
C83 O80 1.247 1_556 S
C83 O81 1.258 . S
C84 O86 1.247 1_556 S
C84 O88 1.258 . S
C85 O92 1.247 1_554 S
C85 O93 1.258 . S
O86 C84 1.247 1_554 S
O86 Zn87 2.028 . S
Zn87 O86 2.028 . S
Zn87 O91 2.035 . S
Zn87 O93 2.035 . S
Zn87 O94 2.028 1_554 S
O88 C84 1.258 . S
O88 Zn89 2.035 . S
Zn89 O88 2.035 . S
Zn89 O90 2.028 1_556 S
Zn89 O92 2.028 . S
Zn89 O95 2.035 . S
O90 Zn89 2.028 1_554 S
O90 C96 1.247 . S
O91 Zn87 2.035 . S
O91 C96 1.258 . S
O92 C85 1.247 1_556 S
O92 Zn89 2.028 . S
O93 C85 1.258 . S
O93 Zn87 2.035 . S
O94 Zn87 2.028 1_556 S
O94 C97 1.247 . S
O95 Zn89 2.035 . S
O95 C97 1.258 . S
C96 O90 1.247 . S
C96 O91 1.258 . S
C97 O94 1.247 . S
C97 O95 1.258 . S
C98 O100 1.247 . S
C98 O102 1.258 . S
C99 O106 1.247 . S
C99 O107 1.258 . S
O100 C98 1.247 . S
O100 Zn101 2.028 1_554 S
Zn101 O100 2.028 1_556 S
Zn101 O105 2.035 . S
Zn101 O107 2.035 . S
Zn101 O108 2.028 . S
O102 C98 1.258 . S
O102 Zn103 2.035 . S
Zn103 O102 2.035 . S
Zn103 O104 2.028 . S
Zn103 O106 2.028 1_554 S
Zn103 O109 2.035 . S
O104 Zn103 2.028 . S
O104 C110 1.247 1_554 S
O105 Zn101 2.035 . S
O105 C110 1.258 . S
O106 C99 1.247 . S
O106 Zn103 2.028 1_556 S
O107 C99 1.258 . S
O107 Zn101 2.035 . S
O108 Zn101 2.028 . S
O108 C111 1.247 1_556 S
O109 Zn103 2.035 . S
O109 C111 1.258 . S
C110 O104 1.247 1_556 S
C110 O105 1.258 . S
C111 O108 1.247 1_554 S
C111 O109 1.258 . S
C112 O114 1.247 . S
C112 O116 1.258 . S
C113 O120 1.247 . S
C113 O121 1.258 . S
O114 C112 1.247 . S
O114 Zn115 2.028 1_554 S
Zn115 O114 2.028 1_556 S
Zn115 O119 2.035 . S
Zn115 O121 2.035 . S
Zn115 O122 2.028 . S
O116 C112 1.258 . S
O116 Zn117 2.035 . S
Zn117 O116 2.035 . S
Zn117 O118 2.028 . S
Zn117 O120 2.028 1_554 S
Zn117 O123 2.035 . S
O118 Zn117 2.028 . S
O118 C124 1.247 1_554 S
O119 Zn115 2.035 . S
O119 C124 1.258 . S
O120 C113 1.247 . S
O120 Zn117 2.028 1_556 S
O121 C113 1.258 . S
O121 Zn115 2.035 . S
O122 Zn115 2.028 . S
O122 C125 1.247 1_556 S
O123 Zn117 2.035 . S
O123 C125 1.258 . S
C124 O118 1.247 1_556 S
C124 O119 1.258 . S
C125 O122 1.247 1_554 S
C125 O123 1.258 . S
C126 O128 1.247 . S
C126 O130 1.258 . S
C127 O134 1.247 . S
C127 O135 1.258 . S
O128 C126 1.247 . S
O128 Zn129 2.028 . S
Zn129 O128 2.028 . S
Zn129 O133 2.035 . S
Zn129 O135 2.035 1_554 S
Zn129 O136 2.028 . S
O130 C126 1.258 . S
O130 Zn131 2.035 1_554 S
Zn131 O130 2.035 1_556 S
Zn131 O132 2.028 . S
Zn131 O134 2.028 . S
Zn131 O137 2.035 . S
O132 Zn131 2.028 . S
O132 C138 1.247 . S
O133 Zn129 2.035 . S
O133 C138 1.258 1_554 S
O134 C127 1.247 . S
O134 Zn131 2.028 . S
O135 C127 1.258 . S
O135 Zn129 2.035 1_556 S
O136 Zn129 2.028 . S
O136 C139 1.247 . S
O137 Zn131 2.035 . S
O137 C139 1.258 1_556 S
C138 O132 1.247 . S
C138 O133 1.258 1_556 S
C139 O136 1.247 . S
C139 O137 1.258 1_554 S
C140 O142 1.247 . S
C140 O144 1.258 . S
C141 O148 1.247 . S
C141 O149 1.258 . S
O142 C140 1.247 . S
O142 Zn143 2.028 . S
Zn143 O142 2.028 . S
Zn143 O147 2.035 . S
Zn143 O149 2.035 1_554 S
Zn143 O150 2.028 . S
O144 C140 1.258 . S
O144 Zn145 2.035 1_554 S
Zn145 O144 2.035 1_556 S
Zn145 O146 2.028 . S
Zn145 O148 2.028 . S
Zn145 O151 2.035 . S
O146 Zn145 2.028 . S
O146 C152 1.247 . S
O147 Zn143 2.035 . S
O147 C152 1.258 1_554 S
O148 C141 1.247 . S
O148 Zn145 2.028 . S
O149 C141 1.258 . S
O149 Zn143 2.035 1_556 S
O150 Zn143 2.028 . S
O150 C153 1.247 . S
O151 Zn145 2.035 . S
O151 C153 1.258 1_556 S
C152 O146 1.247 . S
C152 O147 1.258 1_556 S
C153 O150 1.247 . S
C153 O151 1.258 1_554 S
C154 O156 1.247 . S
C154 O158 1.258 . S
C155 O162 1.247 . S
C155 O163 1.258 . S
O156 C154 1.247 . S
O156 Zn157 2.028 1_556 S
Zn157 O156 2.028 1_554 S
Zn157 O161 2.035 . S
Zn157 O163 2.035 . S
Zn157 O164 2.028 . S
O158 C154 1.258 . S
O158 Zn159 2.035 . S
Zn159 O158 2.035 . S
Zn159 O160 2.028 . S
Zn159 O162 2.028 1_556 S
Zn159 O165 2.035 . S
O160 Zn159 2.028 . S
O160 C166 1.247 1_556 S
O161 Zn157 2.035 . S
O161 C166 1.258 . S
O162 C155 1.247 . S
O162 Zn159 2.028 1_554 S
O163 C155 1.258 . S
O163 Zn157 2.035 . S
O164 Zn157 2.028 . S
O164 C167 1.247 1_554 S
O165 Zn159 2.035 . S
O165 C167 1.258 . S
C166 O160 1.247 1_554 S
C166 O161 1.258 . S
C167 O164 1.247 1_556 S
C167 O165 1.258 . S
C168 O170 1.247 . S
C168 O172 1.258 . S
C169 O176 1.247 . S
C169 O177 1.258 . S
O170 C168 1.247 . S
O170 Zn171 2.028 . S
Zn171 O170 2.028 . S
Zn171 O175 2.035 . S
Zn171 O177 2.035 . S
Zn171 O178 2.028 . S
O172 C168 1.258 . S
O172 Zn173 2.035 . S
Zn173 O172 2.035 . S
Zn173 O174 2.028 . S
Zn173 O176 2.028 . S
Zn173 O179 2.035 . S
O174 Zn173 2.028 . S
O174 C180 1.247 . S
O175 Zn171 2.035 . S
O175 C180 1.258 . S
O176 C169 1.247 . S
O176 Zn173 2.028 . S
O177 C169 1.258 . S
O177 Zn171 2.035 . S
O178 Zn171 2.028 . S
O178 C181 1.247 . S
O179 Zn173 2.035 . S
O179 C181 1.258 . S
C180 O174 1.247 . S
C180 O175 1.258 . S
C181 O178 1.247 . S
C181 O179 1.258 . S
C182 O184 1.247 . S
C182 O186 1.258 . S
C183 O190 1.247 . S
C183 O191 1.258 . S
O184 C182 1.247 . S
O184 Zn185 2.028 . S
Zn185 O184 2.028 . S
Zn185 O189 2.035 . S
Zn185 O191 2.035 . S
Zn185 O192 2.028 . S
O186 C182 1.258 . S
O186 Zn187 2.035 . S
Zn187 O186 2.035 . S
Zn187 O188 2.028 . S
Zn187 O190 2.028 . S
Zn187 O193 2.035 . S
O188 Zn187 2.028 . S
O188 C194 1.247 . S
O189 Zn185 2.035 . S
O189 C194 1.258 . S
O190 C183 1.247 . S
O190 Zn187 2.028 . S
O191 C183 1.258 . S
O191 Zn185 2.035 . S
O192 Zn185 2.028 . S
O192 C195 1.247 . S
O193 Zn187 2.035 . S
O193 C195 1.258 . S
C194 O188 1.247 . S
C194 O189 1.258 . S
C195 O192 1.247 . S
C195 O193 1.258 . S
C196 O198 1.247 . S
C196 O200 1.258 . S
C197 O204 1.247 . S
C197 O205 1.258 . S
O198 C196 1.247 . S
O198 Zn199 2.028 . S
Zn199 O198 2.028 . S
Zn199 O203 2.035 . S
Zn199 O205 2.035 . S
Zn199 O206 2.028 . S
O200 C196 1.258 . S
O200 Zn201 2.035 . S
Zn201 O200 2.035 . S
Zn201 O202 2.028 . S
Zn201 O204 2.028 . S
Zn201 O207 2.035 . S
O202 Zn201 2.028 . S
O202 C208 1.247 . S
O203 Zn199 2.035 . S
O203 C208 1.258 . S
O204 C197 1.247 . S
O204 Zn201 2.028 . S
O205 C197 1.258 . S
O205 Zn199 2.035 . S
O206 Zn199 2.028 . S
O206 C209 1.247 . S
O207 Zn201 2.035 . S
O207 C209 1.258 . S
C208 O202 1.247 . S
C208 O203 1.258 . S
C209 O206 1.247 . S
C209 O207 1.258 . S
C210 O212 1.247 . S
C210 O214 1.258 . S
C211 O218 1.247 . S
C211 O219 1.258 . S
O212 C210 1.247 . S
O212 Zn213 2.028 . S
Zn213 O212 2.028 . S
Zn213 O217 2.035 . S
Zn213 O219 2.035 . S
Zn213 O220 2.028 . S
O214 C210 1.258 . S
O214 Zn215 2.035 . S
Zn215 O214 2.035 . S
Zn215 O216 2.028 . S
Zn215 O218 2.028 . S
Zn215 O221 2.035 . S
O216 Zn215 2.028 . S
O216 C222 1.247 . S
O217 Zn213 2.035 . S
O217 C222 1.258 . S
O218 C211 1.247 . S
O218 Zn215 2.028 . S
O219 C211 1.258 . S
O219 Zn213 2.035 . S
O220 Zn213 2.028 . S
O220 C223 1.247 . S
O221 Zn215 2.035 . S
O221 C223 1.258 . S
C222 O216 1.247 . S
C222 O217 1.258 . S
C223 O220 1.247 . S
C223 O221 1.258 . S
C224 O226 1.247 . S
C224 O228 1.258 . S
C225 O232 1.247 . S
C225 O233 1.258 . S
O226 C224 1.247 . S
O226 Zn227 2.028 . S
Zn227 O226 2.028 . S
Zn227 O231 2.035 . S
Zn227 O233 2.035 . S
Zn227 O234 2.028 . S
O228 C224 1.258 . S
O228 Zn229 2.035 . S
Zn229 O228 2.035 . S
Zn229 O230 2.028 . S
Zn229 O232 2.028 . S
Zn229 O235 2.035 . S
O230 Zn229 2.028 . S
O230 C236 1.247 . S
O231 Zn227 2.035 . S
O231 C236 1.258 . S
O232 C225 1.247 . S
O232 Zn229 2.028 . S
O233 C225 1.258 . S
O233 Zn227 2.035 . S
O234 Zn227 2.028 . S
O234 C237 1.247 . S
O235 Zn229 2.035 . S
O235 C237 1.258 . S
C236 O230 1.247 . S
C236 O231 1.258 . S
C237 O234 1.247 . S
C237 O235 1.258 . S
C238 O240 1.247 . S
C238 O242 1.258 . S
C239 O246 1.247 . S
C239 O247 1.258 . S
O240 C238 1.247 . S
O240 Zn241 2.028 . S
Zn241 O240 2.028 . S
Zn241 O245 2.035 . S
Zn241 O247 2.035 . S
Zn241 O248 2.028 . S
O242 C238 1.258 . S
O242 Zn243 2.035 . S
Zn243 O242 2.035 . S
Zn243 O244 2.028 . S
Zn243 O246 2.028 . S
Zn243 O249 2.035 . S
O244 Zn243 2.028 . S
O244 C250 1.247 . S
O245 Zn241 2.035 . S
O245 C250 1.258 . S
O246 C239 1.247 . S
O246 Zn243 2.028 . S
O247 C239 1.258 . S
O247 Zn241 2.035 . S
O248 Zn241 2.028 . S
O248 C251 1.247 . S
O249 Zn243 2.035 . S
O249 C251 1.258 . S
C250 O244 1.247 . S
C250 O245 1.258 . S
C251 O248 1.247 . S
C251 O249 1.258 . S
C252 O254 1.247 . S
C252 O256 1.258 . S
C253 O260 1.247 . S
C253 O261 1.258 . S
O254 C252 1.247 . S
O254 Zn255 2.028 . S
Zn255 O254 2.028 . S
Zn255 O259 2.035 . S
Zn255 O261 2.035 . S
Zn255 O262 2.028 . S
O256 C252 1.258 . S
O256 Zn257 2.035 . S
Zn257 O256 2.035 . S
Zn257 O258 2.028 . S
Zn257 O260 2.028 . S
Zn257 O263 2.035 . S
O258 Zn257 2.028 . S
O258 C264 1.247 . S
O259 Zn255 2.035 . S
O259 C264 1.258 . S
O260 C253 1.247 . S
O260 Zn257 2.028 . S
O261 C253 1.258 . S
O261 Zn255 2.035 . S
O262 Zn255 2.028 . S
O262 C265 1.247 . S
O263 Zn257 2.035 . S
O263 C265 1.258 . S
C264 O258 1.247 . S
C264 O259 1.258 . S
C265 O262 1.247 . S
C265 O263 1.258 . S
C266 O268 1.247 . S
C266 O270 1.258 . S
C267 O274 1.247 . S
C267 O275 1.258 . S
O268 C266 1.247 . S
O268 Zn269 2.028 . S
Zn269 O268 2.028 . S
Zn269 O273 2.035 . S
Zn269 O275 2.035 . S
Zn269 O276 2.028 . S
O270 C266 1.258 . S
O270 Zn271 2.035 . S
Zn271 O270 2.035 . S
Zn271 O272 2.028 . S
Zn271 O274 2.028 . S
Zn271 O277 2.035 . S
O272 Zn271 2.028 . S
O272 C278 1.247 . S
O273 Zn269 2.035 . S
O273 C278 1.258 . S
O274 C267 1.247 . S
O274 Zn271 2.028 . S
O275 C267 1.258 . S
O275 Zn269 2.035 . S
O276 Zn269 2.028 . S
O276 C279 1.247 . S
O277 Zn271 2.035 . S
O277 C279 1.258 . S
C278 O272 1.247 . S
C278 O273 1.258 . S
C279 O276 1.247 . S
C279 O277 1.258 . S
C280 O282 1.247 . S
C280 O284 1.258 . S
C281 O288 1.247 . S
C281 O289 1.258 . S
O282 C280 1.247 . S
O282 Zn283 2.028 . S
Zn283 O282 2.028 . S
Zn283 O287 2.035 . S
Zn283 O289 2.035 . S
Zn283 O290 2.028 . S
O284 C280 1.258 . S
O284 Zn285 2.035 . S
Zn285 O284 2.035 . S
Zn285 O286 2.028 . S
Zn285 O288 2.028 . S
Zn285 O291 2.035 . S
O286 Zn285 2.028 . S
O286 C292 1.247 . S
O287 Zn283 2.035 . S
O287 C292 1.258 . S
O288 C281 1.247 . S
O288 Zn285 2.028 . S
O289 C281 1.258 . S
O289 Zn283 2.035 . S
O290 Zn283 2.028 . S
O290 C293 1.247 . S
O291 Zn285 2.035 . S
O291 C293 1.258 . S
C292 O286 1.247 . S
C292 O287 1.258 . S
C293 O290 1.247 . S
C293 O291 1.258 . S
C294 O296 1.247 . S
C294 O298 1.258 . S
C295 O302 1.247 . S
C295 O303 1.258 . S
O296 C294 1.247 . S
O296 Zn297 2.028 . S
Zn297 O296 2.028 . S
Zn297 O301 2.035 . S
Zn297 O303 2.035 . S
Zn297 O304 2.028 . S
O298 C294 1.258 . S
O298 Zn299 2.035 . S
Zn299 O298 2.035 . S
Zn299 O300 2.028 . S
Zn299 O302 2.028 . S
Zn299 O305 2.035 . S
O300 Zn299 2.028 . S
O300 C306 1.247 . S
O301 Zn297 2.035 . S
O301 C306 1.258 . S
O302 C295 1.247 . S
O302 Zn299 2.028 . S
O303 C295 1.258 . S
O303 Zn297 2.035 . S
O304 Zn297 2.028 . S
O304 C307 1.247 . S
O305 Zn299 2.035 . S
O305 C307 1.258 . S
C306 O300 1.247 . S
C306 O301 1.258 . S
C307 O304 1.247 . S
C307 O305 1.258 . S
C308 O310 1.247 . S
C308 O312 1.258 . S
C309 O316 1.247 . S
C309 O317 1.258 . S
O310 C308 1.247 . S
O310 Zn311 2.028 . S
Zn311 O310 2.028 . S
Zn311 O315 2.035 . S
Zn311 O317 2.035 . S
Zn311 O318 2.028 . S
O312 C308 1.258 . S
O312 Zn313 2.035 . S
Zn313 O312 2.035 . S
Zn313 O314 2.028 . S
Zn313 O316 2.028 . S
Zn313 O319 2.035 . S
O314 Zn313 2.028 . S
O314 C320 1.247 . S
O315 Zn311 2.035 . S
O315 C320 1.258 . S
O316 C309 1.247 . S
O316 Zn313 2.028 . S
O317 C309 1.258 . S
O317 Zn311 2.035 . S
O318 Zn311 2.028 . S
O318 C321 1.247 . S
O319 Zn313 2.035 . S
O319 C321 1.258 . S
C320 O314 1.247 . S
C320 O315 1.258 . S
C321 O318 1.247 . S
C321 O319 1.258 . S
C322 O324 1.247 . S
C322 O326 1.258 . S
C323 O330 1.247 . S
C323 O331 1.258 . S
O324 C322 1.247 . S
O324 Zn325 2.028 . S
Zn325 O324 2.028 . S
Zn325 O329 2.035 . S
Zn325 O331 2.035 . S
Zn325 O332 2.028 . S
O326 C322 1.258 . S
O326 Zn327 2.035 . S
Zn327 O326 2.035 . S
Zn327 O328 2.028 . S
Zn327 O330 2.028 . S
Zn327 O333 2.035 . S
O328 Zn327 2.028 . S
O328 C334 1.247 . S
O329 Zn325 2.035 . S
O329 C334 1.258 . S
O330 C323 1.247 . S
O330 Zn327 2.028 . S
O331 C323 1.258 . S
O331 Zn325 2.035 . S
O332 Zn325 2.028 . S
O332 C335 1.247 . S
O333 Zn327 2.035 . S
O333 C335 1.258 . S
C334 O328 1.247 . S
C334 O329 1.258 . S
C335 O332 1.247 . S
C335 O333 1.258 . S
C336 O338 1.247 . S
C336 O340 1.258 . S
C337 O344 1.247 . S
C337 O345 1.258 . S
O338 C336 1.247 . S
O338 Zn339 2.028 . S
Zn339 O338 2.028 . S
Zn339 O343 2.035 . S
Zn339 O345 2.035 . S
Zn339 O346 2.028 . S
O340 C336 1.258 . S
O340 Zn341 2.035 . S
Zn341 O340 2.035 . S
Zn341 O342 2.028 . S
Zn341 O344 2.028 . S
Zn341 O347 2.035 . S
O342 Zn341 2.028 . S
O342 C348 1.247 . S
O343 Zn339 2.035 . S
O343 C348 1.258 . S
O344 C337 1.247 . S
O344 Zn341 2.028 . S
O345 C337 1.258 . S
O345 Zn339 2.035 . S
O346 Zn339 2.028 . S
O346 C349 1.247 . S
O347 Zn341 2.035 . S
O347 C349 1.258 . S
C348 O342 1.247 . S
C348 O343 1.258 . S
C349 O346 1.247 . S
C349 O347 1.258 . S
C350 O352 1.247 . S
C350 O354 1.258 . S
C351 O358 1.247 . S
C351 O359 1.258 . S
O352 C350 1.247 . S
O352 Zn353 2.028 . S
Zn353 O352 2.028 . S
Zn353 O357 2.035 . S
Zn353 O359 2.035 . S
Zn353 O360 2.028 . S
O354 C350 1.258 . S
O354 Zn355 2.035 . S
Zn355 O354 2.035 . S
Zn355 O356 2.028 . S
Zn355 O358 2.028 . S
Zn355 O361 2.035 . S
O356 Zn355 2.028 . S
O356 C362 1.247 . S
O357 Zn353 2.035 . S
O357 C362 1.258 . S
O358 C351 1.247 . S
O358 Zn355 2.028 . S
O359 C351 1.258 . S
O359 Zn353 2.035 . S
O360 Zn353 2.028 . S
O360 C363 1.247 . S
O361 Zn355 2.035 . S
O361 C363 1.258 . S
C362 O356 1.247 . S
C362 O357 1.258 . S
C363 O360 1.247 . S
C363 O361 1.258 . S
C364 O366 1.247 . S
C364 O368 1.258 . S
C365 O372 1.247 . S
C365 O373 1.258 . S
O366 C364 1.247 . S
O366 Zn367 2.028 . S
Zn367 O366 2.028 . S
Zn367 O371 2.035 . S
Zn367 O373 2.035 . S
Zn367 O374 2.028 . S
O368 C364 1.258 . S
O368 Zn369 2.035 . S
Zn369 O368 2.035 . S
Zn369 O370 2.028 . S
Zn369 O372 2.028 . S
Zn369 O375 2.035 . S
O370 Zn369 2.028 . S
O370 C376 1.247 . S
O371 Zn367 2.035 . S
O371 C376 1.258 . S
O372 C365 1.247 . S
O372 Zn369 2.028 . S
O373 C365 1.258 . S
O373 Zn367 2.035 . S
O374 Zn367 2.028 . S
O374 C377 1.247 . S
O375 Zn369 2.035 . S
O375 C377 1.258 . S
C376 O370 1.247 . S
C376 O371 1.258 . S
C377 O374 1.247 . S
C377 O375 1.258 . S
C378 O380 1.247 . S
C378 O382 1.258 . S
C379 O386 1.247 . S
C379 O387 1.258 . S
O380 C378 1.247 . S
O380 Zn381 2.028 . S
Zn381 O380 2.028 . S
Zn381 O385 2.035 . S
Zn381 O387 2.035 . S
Zn381 O388 2.028 . S
O382 C378 1.258 . S
O382 Zn383 2.035 . S
Zn383 O382 2.035 . S
Zn383 O384 2.028 . S
Zn383 O386 2.028 . S
Zn383 O389 2.035 . S
O384 Zn383 2.028 . S
O384 C390 1.247 . S
O385 Zn381 2.035 . S
O385 C390 1.258 . S
O386 C379 1.247 . S
O386 Zn383 2.028 . S
O387 C379 1.258 . S
O387 Zn381 2.035 . S
O388 Zn381 2.028 . S
O388 C391 1.247 . S
O389 Zn383 2.035 . S
O389 C391 1.258 . S
C390 O384 1.247 . S
C390 O385 1.258 . S
C391 O388 1.247 . S
C391 O389 1.258 . S
C392 O394 1.247 . S
C392 O396 1.258 . S
C393 O400 1.247 . S
C393 O401 1.258 . S
O394 C392 1.247 . S
O394 Zn395 2.028 . S
Zn395 O394 2.028 . S
Zn395 O399 2.035 . S
Zn395 O401 2.035 . S
Zn395 O402 2.028 . S
O396 C392 1.258 . S
O396 Zn397 2.035 . S
Zn397 O396 2.035 . S
Zn397 O398 2.028 . S
Zn397 O400 2.028 . S
Zn397 O403 2.035 . S
O398 Zn397 2.028 . S
O398 C404 1.247 . S
O399 Zn395 2.035 . S
O399 C404 1.258 . S
O400 C393 1.247 . S
O400 Zn397 2.028 . S
O401 C393 1.258 . S
O401 Zn395 2.035 . S
O402 Zn395 2.028 . S
O402 C405 1.247 . S
O403 Zn397 2.035 . S
O403 C405 1.258 . S
C404 O398 1.247 . S
C404 O399 1.258 . S
C405 O402 1.247 . S
C405 O403 1.258 . S
C406 O408 1.247 . S
C406 O410 1.258 . S
C407 O414 1.247 . S
C407 O415 1.258 . S
O408 C406 1.247 . S
O408 Zn409 2.028 . S
Zn409 O408 2.028 . S
Zn409 O413 2.035 . S
Zn409 O415 2.035 . S
Zn409 O416 2.028 . S
O410 C406 1.258 . S
O410 Zn411 2.035 . S
Zn411 O410 2.035 . S
Zn411 O412 2.028 . S
Zn411 O414 2.028 . S
Zn411 O417 2.035 . S
O412 Zn411 2.028 . S
O412 C418 1.247 . S
O413 Zn409 2.035 . S
O413 C418 1.258 . S
O414 C407 1.247 . S
O414 Zn411 2.028 . S
O415 C407 1.258 . S
O415 Zn409 2.035 . S
O416 Zn409 2.028 . S
O416 C419 1.247 . S
O417 Zn411 2.035 . S
O417 C419 1.258 . S
C418 O412 1.247 . S
C418 O413 1.258 . S
C419 O416 1.247 . S
C419 O417 1.258 . S
C420 O422 1.247 . S
C420 O424 1.258 . S
C421 O428 1.247 . S
C421 O429 1.258 . S
O422 C420 1.247 . S
O422 Zn423 2.028 . S
Zn423 O422 2.028 . S
Zn423 O427 2.035 . S
Zn423 O429 2.035 . S
Zn423 O430 2.028 . S
O424 C420 1.258 . S
O424 Zn425 2.035 . S
Zn425 O424 2.035 . S
Zn425 O426 2.028 . S
Zn425 O428 2.028 . S
Zn425 O431 2.035 . S
O426 Zn425 2.028 . S
O426 C432 1.247 . S
O427 Zn423 2.035 . S
O427 C432 1.258 . S
O428 C421 1.247 . S
O428 Zn425 2.028 . S
O429 C421 1.258 . S
O429 Zn423 2.035 . S
O430 Zn423 2.028 . S
O430 C433 1.247 . S
O431 Zn425 2.035 . S
O431 C433 1.258 . S
C432 O426 1.247 . S
C432 O427 1.258 . S
C433 O430 1.247 . S
C433 O431 1.258 . S
C434 O436 1.247 . S
C434 O438 1.258 . S
C435 O442 1.247 . S
C435 O443 1.258 . S
O436 C434 1.247 . S
O436 Zn437 2.028 . S
Zn437 O436 2.028 . S
Zn437 O441 2.035 . S
Zn437 O443 2.035 . S
Zn437 O444 2.028 . S
O438 C434 1.258 . S
O438 Zn439 2.035 . S
Zn439 O438 2.035 . S
Zn439 O440 2.028 . S
Zn439 O442 2.028 . S
Zn439 O445 2.035 . S
O440 Zn439 2.028 . S
O440 C446 1.247 . S
O441 Zn437 2.035 . S
O441 C446 1.258 . S
O442 C435 1.247 . S
O442 Zn439 2.028 . S
O443 C435 1.258 . S
O443 Zn437 2.035 . S
O444 Zn437 2.028 . S
O444 C447 1.247 . S
O445 Zn439 2.035 . S
O445 C447 1.258 . S
C446 O440 1.247 . S
C446 O441 1.258 . S
C447 O444 1.247 . S
C447 O445 1.258 . S
C448 O450 1.247 . S
C448 O452 1.258 . S
C449 O456 1.247 . S
C449 O457 1.258 . S
O450 C448 1.247 . S
O450 Zn451 2.028 . S
Zn451 O450 2.028 . S
Zn451 O455 2.035 . S
Zn451 O457 2.035 . S
Zn451 O458 2.028 . S
O452 C448 1.258 . S
O452 Zn453 2.035 . S
Zn453 O452 2.035 . S
Zn453 O454 2.028 . S
Zn453 O456 2.028 . S
Zn453 O459 2.035 . S
O454 Zn453 2.028 . S
O454 C460 1.247 . S
O455 Zn451 2.035 . S
O455 C460 1.258 . S
O456 C449 1.247 . S
O456 Zn453 2.028 . S
O457 C449 1.258 . S
O457 Zn451 2.035 . S
O458 Zn451 2.028 . S
O458 C461 1.247 . S
O459 Zn453 2.035 . S
O459 C461 1.258 . S
C460 O454 1.247 . S
C460 O455 1.258 . S
C461 O458 1.247 . S
C461 O459 1.258 . S
C462 O464 1.247 . S
C462 O466 1.258 . S
C463 O470 1.247 . S
C463 O471 1.258 . S
O464 C462 1.247 . S
O464 Zn465 2.028 . S
Zn465 O464 2.028 . S
Zn465 O469 2.035 . S
Zn465 O471 2.035 . S
Zn465 O472 2.028 . S
O466 C462 1.258 . S
O466 Zn467 2.035 . S
Zn467 O466 2.035 . S
Zn467 O468 2.028 . S
Zn467 O470 2.028 . S
Zn467 O473 2.035 . S
O468 Zn467 2.028 . S
O468 C474 1.247 . S
O469 Zn465 2.035 . S
O469 C474 1.258 . S
O470 C463 1.247 . S
O470 Zn467 2.028 . S
O471 C463 1.258 . S
O471 Zn465 2.035 . S
O472 Zn465 2.028 . S
O472 C475 1.247 . S
O473 Zn467 2.035 . S
O473 C475 1.258 . S
C474 O468 1.247 . S
C474 O469 1.258 . S
C475 O472 1.247 . S
C475 O473 1.258 . S
C476 O478 1.247 . S
C476 O480 1.258 . S
C477 O484 1.247 . S
C477 O485 1.258 . S
O478 C476 1.247 . S
O478 Zn479 2.028 . S
Zn479 O478 2.028 . S
Zn479 O483 2.035 . S
Zn479 O485 2.035 . S
Zn479 O486 2.028 . S
O480 C476 1.258 . S
O480 Zn481 2.035 . S
Zn481 O480 2.035 . S
Zn481 O482 2.028 . S
Zn481 O484 2.028 . S
Zn481 O487 2.035 . S
O482 Zn481 2.028 . S
O482 C488 1.247 . S
O483 Zn479 2.035 . S
O483 C488 1.258 . S
O484 C477 1.247 . S
O484 Zn481 2.028 . S
O485 C477 1.258 . S
O485 Zn479 2.035 . S
O486 Zn479 2.028 . S
O486 C489 1.247 . S
O487 Zn481 2.035 . S
O487 C489 1.258 . S
C488 O482 1.247 . S
C488 O483 1.258 . S
C489 O486 1.247 . S
C489 O487 1.258 . S
C490 O492 1.247 . S
C490 O494 1.258 . S
C491 O498 1.247 . S
C491 O499 1.258 . S
O492 C490 1.247 . S
O492 Zn493 2.028 . S
Zn493 O492 2.028 . S
Zn493 O497 2.035 . S
Zn493 O499 2.035 . S
Zn493 O500 2.028 . S
O494 C490 1.258 . S
O494 Zn495 2.035 . S
Zn495 O494 2.035 . S
Zn495 O496 2.028 . S
Zn495 O498 2.028 . S
Zn495 O501 2.035 . S
O496 Zn495 2.028 . S
O496 C502 1.247 . S
O497 Zn493 2.035 . S
O497 C502 1.258 . S
O498 C491 1.247 . S
O498 Zn495 2.028 . S
O499 C491 1.258 . S
O499 Zn493 2.035 . S
O500 Zn493 2.028 . S
O500 C503 1.247 . S
O501 Zn495 2.035 . S
O501 C503 1.258 . S
C502 O496 1.247 . S
C502 O497 1.258 . S
C503 O500 1.247 . S
C503 O501 1.258 . S
H504 C510 0.930 . S
H505 C513 0.930 . S
H506 C514 0.930 . S
H507 C515 0.930 . S
H508 C518 0.930 . S
H509 C519 0.930 . S
C510 H504 0.930 . S
C510 C511 1.358 . S
C510 C512 1.415 . S
C511 C510 1.358 . S
C511 C513 1.414 1_556 S
C512 C510 1.415 . S
C512 C517 1.425 1_656 S
C512 C519 1.409 1_655 S
C513 H505 0.930 . S
C513 C511 1.414 1_554 S
C513 C514 1.362 . S
C514 H506 0.930 . S
C514 C513 1.362 . S
C514 C517 1.409 1_655 S
C515 H507 0.930 . S
C515 C516 1.356 . S
C515 C517 1.415 . S
C516 C515 1.356 . S
C516 C518 1.418 1_554 S
C517 C512 1.425 1_454 S
C517 C514 1.409 1_455 S
C517 C515 1.415 . S
C518 H508 0.930 . S
C518 C516 1.418 1_556 S
C518 C519 1.362 . S
C519 H509 0.930 . S
C519 C512 1.409 1_455 S
C519 C518 1.362 . S
H520 C526 0.930 . S
H521 C529 0.930 . S
H522 C530 0.930 . S
H523 C531 0.930 . S
H524 C534 0.930 . S
H525 C535 0.930 . S
C526 H520 0.930 . S
C526 C527 1.355 . S
C526 C528 1.415 . S
C527 C526 1.355 . S
C527 C529 1.419 1_556 S
C528 C526 1.415 . S
C528 C533 1.425 1_556 S
C528 C535 1.409 . S
C529 H521 0.930 . S
C529 C527 1.419 1_554 S
C529 C530 1.362 . S
C530 H522 0.930 . S
C530 C529 1.362 . S
C530 C533 1.409 . S
C531 H523 0.930 . S
C531 C532 1.355 . S
C531 C533 1.415 . S
C532 C531 1.355 . S
C532 C534 1.419 1_554 S
C533 C528 1.425 1_554 S
C533 C530 1.409 . S
C533 C531 1.415 . S
C534 H524 0.930 . S
C534 C532 1.419 1_556 S
C534 C535 1.362 . S
C535 H525 0.930 . S
C535 C528 1.409 . S
C535 C534 1.362 . S
H536 C542 0.930 . S
H537 C545 0.930 . S
H538 C546 0.930 . S
H539 C547 0.930 . S
H540 C550 0.930 . S
H541 C551 0.930 . S
C542 H536 0.930 . S
C542 C543 1.355 . S
C542 C544 1.415 . S
C543 C542 1.355 . S
C543 C545 1.419 1_556 S
C544 C542 1.415 . S
C544 C549 1.425 1_546 S
C544 C551 1.409 1_545 S
C545 H537 0.930 . S
C545 C543 1.419 1_554 S
C545 C546 1.362 . S
C546 H538 0.930 . S
C546 C545 1.362 . S
C546 C549 1.409 1_545 S
C547 H539 0.930 . S
C547 C548 1.355 . S
C547 C549 1.415 . S
C548 C547 1.355 . S
C548 C550 1.419 1_554 S
C549 C544 1.425 1_564 S
C549 C546 1.409 1_565 S
C549 C547 1.415 . S
C550 H540 0.930 . S
C550 C548 1.419 1_556 S
C550 C551 1.362 . S
C551 H541 0.930 . S
C551 C544 1.409 1_565 S
C551 C550 1.362 . S
H552 C558 0.930 . S
H553 C561 0.930 . S
H554 C562 0.930 . S
H555 C563 0.930 . S
H556 C566 0.930 . S
H557 C567 0.930 . S
C558 H552 0.930 . S
C558 C559 1.355 1_556 S
C558 C560 1.415 . S
C559 C558 1.355 1_554 S
C559 C561 1.419 . S
C560 C558 1.415 . S
C560 C565 1.425 1_456 S
C560 C567 1.409 1_455 S
C561 H553 0.930 . S
C561 C559 1.419 . S
C561 C562 1.362 . S
C562 H554 0.930 . S
C562 C561 1.362 . S
C562 C565 1.409 1_455 S
C563 H555 0.930 . S
C563 C564 1.355 1_554 S
C563 C565 1.415 . S
C564 C563 1.355 1_556 S
C564 C566 1.419 . S
C565 C560 1.425 1_654 S
C565 C562 1.409 1_655 S
C565 C563 1.415 . S
C566 H556 0.930 . S
C566 C564 1.419 . S
C566 C567 1.362 . S
C567 H557 0.930 . S
C567 C560 1.409 1_655 S
C567 C566 1.362 . S
H568 C574 0.930 . S
H569 C577 0.930 . S
H570 C578 0.930 . S
H571 C579 0.930 . S
H572 C582 0.930 . S
H573 C583 0.930 . S
C574 H568 0.930 . S
C574 C575 1.355 1_554 S
C574 C576 1.415 . S
C575 C574 1.355 1_556 S
C575 C577 1.419 . S
C576 C574 1.415 . S
C576 C581 1.425 1_554 S
C576 C583 1.409 . S
C577 H569 0.930 . S
C577 C575 1.419 . S
C577 C578 1.362 . S
C578 H570 0.930 . S
C578 C577 1.362 . S
C578 C581 1.409 . S
C579 H571 0.930 . S
C579 C580 1.355 1_556 S
C579 C581 1.415 . S
C580 C579 1.355 1_554 S
C580 C582 1.419 . S
C581 C576 1.425 1_556 S
C581 C578 1.409 . S
C581 C579 1.415 . S
C582 H572 0.930 . S
C582 C580 1.419 . S
C582 C583 1.362 . S
C583 H573 0.930 . S
C583 C576 1.409 . S
C583 C582 1.362 . S
H584 C590 0.930 . S
H585 C593 0.930 . S
H586 C594 0.930 . S
H587 C595 0.930 . S
H588 C598 0.930 . S
H589 C599 0.930 . S
C590 H584 0.930 . S
C590 C591 1.355 1_556 S
C590 C592 1.415 . S
C591 C590 1.355 1_554 S
C591 C593 1.419 . S
C592 C590 1.415 . S
C592 C597 1.425 1_566 S
C592 C599 1.409 1_565 S
C593 H585 0.930 . S
C593 C591 1.419 . S
C593 C594 1.362 . S
C594 H586 0.930 . S
C594 C593 1.362 . S
C594 C597 1.409 1_565 S
C595 H587 0.930 . S
C595 C596 1.355 1_554 S
C595 C597 1.415 . S
C596 C595 1.355 1_556 S
C596 C598 1.419 . S
C597 C592 1.425 1_544 S
C597 C594 1.409 1_545 S
C597 C595 1.415 . S
C598 H588 0.930 . S
C598 C596 1.419 . S
C598 C599 1.362 . S
C599 H589 0.930 . S
C599 C592 1.409 1_545 S
C599 C598 1.362 . S
H600 C606 0.930 . S
H601 C609 0.930 . S
H602 C610 0.930 . S
H603 C611 0.930 . S
H604 C614 0.930 . S
H605 C615 0.930 . S
C606 H600 0.930 . S
C606 C607 1.355 . S
C606 C608 1.415 . S
C607 C606 1.355 . S
C607 C609 1.419 . S
C608 C606 1.415 . S
C608 C613 1.425 . S
C608 C615 1.409 . S
C609 H601 0.930 . S
C609 C607 1.419 . S
C609 C610 1.362 . S
C610 H602 0.930 . S
C610 C609 1.362 . S
C610 C613 1.409 . S
C611 H603 0.930 . S
C611 C612 1.355 . S
C611 C613 1.415 . S
C612 C611 1.355 . S
C612 C614 1.419 . S
C613 C608 1.425 . S
C613 C610 1.409 . S
C613 C611 1.415 . S
C614 H604 0.930 . S
C614 C612 1.419 . S
C614 C615 1.362 . S
C615 H605 0.930 . S
C615 C608 1.409 . S
C615 C614 1.362 . S
H616 C622 0.930 . S
H617 C625 0.930 . S
H618 C626 0.930 1_545 S
H619 C627 0.930 1_545 S
H620 C630 0.930 . S
H621 C631 0.930 . S
C622 H616 0.930 . S
C622 C623 1.355 . S
C622 C624 1.415 . S
C623 C622 1.355 . S
C623 C625 1.419 . S
C624 C622 1.415 . S
C624 C629 1.425 . S
C624 C631 1.409 . S
C625 H617 0.930 . S
C625 C623 1.419 . S
C625 C626 1.362 . S
C626 H618 0.930 1_565 S
C626 C625 1.362 . S
C626 C629 1.409 . S
C627 H619 0.930 1_565 S
C627 C628 1.355 . S
C627 C629 1.415 . S
C628 C627 1.355 . S
C628 C630 1.419 . S
C629 C624 1.425 . S
C629 C626 1.409 . S
C629 C627 1.415 . S
C630 H620 0.930 . S
C630 C628 1.419 . S
C630 C631 1.362 . S
C631 H621 0.930 . S
C631 C624 1.409 . S
C631 C630 1.362 . S
H632 C638 0.930 . S
H633 C641 0.930 . S
H634 C642 0.930 . S
H635 C643 0.930 . S
H636 C646 0.930 . S
H637 C647 0.930 . S
C638 H632 0.930 . S
C638 C639 1.355 . S
C638 C640 1.415 . S
C639 C638 1.355 . S
C639 C641 1.419 . S
C640 C638 1.415 . S
C640 C645 1.425 . S
C640 C647 1.409 . S
C641 H633 0.930 . S
C641 C639 1.419 . S
C641 C642 1.362 . S
C642 H634 0.930 . S
C642 C641 1.362 . S
C642 C645 1.409 . S
C643 H635 0.930 . S
C643 C644 1.355 . S
C643 C645 1.415 . S
C644 C643 1.355 . S
C644 C646 1.419 . S
C645 C640 1.425 . S
C645 C642 1.409 . S
C645 C643 1.415 . S
C646 H636 0.930 . S
C646 C644 1.419 . S
C646 C647 1.362 . S
C647 H637 0.930 . S
C647 C640 1.409 . S
C647 C646 1.362 . S
H648 C654 0.930 . S
H649 C657 0.930 . S
H650 C658 0.930 1_545 S
H651 C659 0.930 1_545 S
H652 C662 0.930 . S
H653 C663 0.930 . S
C654 H648 0.930 . S
C654 C655 1.355 . S
C654 C656 1.415 . S
C655 C654 1.355 . S
C655 C657 1.419 . S
C656 C654 1.415 . S
C656 C661 1.425 . S
C656 C663 1.409 . S
C657 H649 0.930 . S
C657 C655 1.419 . S
C657 C658 1.362 . S
C658 H650 0.930 1_565 S
C658 C657 1.362 . S
C658 C661 1.409 . S
C659 H651 0.930 1_565 S
C659 C660 1.355 . S
C659 C661 1.415 . S
C660 C659 1.355 . S
C660 C662 1.419 . S
C661 C656 1.425 . S
C661 C658 1.409 . S
C661 C659 1.415 . S
C662 H652 0.930 . S
C662 C660 1.419 . S
C662 C663 1.362 . S
C663 H653 0.930 . S
C663 C656 1.409 . S
C663 C662 1.362 . S
H664 C670 0.930 1_655 S
H665 C673 0.930 . S
H666 C674 0.930 . S
H667 C675 0.930 . S
H668 C678 0.930 . S
H669 C679 0.930 1_655 S
C670 H664 0.930 1_455 S
C670 C671 1.355 . S
C670 C672 1.415 . S
C671 C670 1.355 . S
C671 C673 1.419 . S
C672 C670 1.415 . S
C672 C677 1.425 . S
C672 C679 1.409 . S
C673 H665 0.930 . S
C673 C671 1.419 . S
C673 C674 1.362 . S
C674 H666 0.930 . S
C674 C673 1.362 . S
C674 C677 1.409 . S
C675 H667 0.930 . S
C675 C676 1.355 . S
C675 C677 1.415 . S
C676 C675 1.355 . S
C676 C678 1.419 . S
C677 C672 1.425 . S
C677 C674 1.409 . S
C677 C675 1.415 . S
C678 H668 0.930 . S
C678 C676 1.419 . S
C678 C679 1.362 . S
C679 H669 0.930 1_455 S
C679 C672 1.409 . S
C679 C678 1.362 . S
H680 C686 0.930 . S
H681 C689 0.930 . S
H682 C690 0.930 . S
H683 C691 0.930 . S
H684 C694 0.930 . S
H685 C695 0.930 . S
C686 H680 0.930 . S
C686 C687 1.355 . S
C686 C688 1.415 . S
C687 C686 1.355 . S
C687 C689 1.419 . S
C688 C686 1.415 . S
C688 C693 1.425 . S
C688 C695 1.409 . S
C689 H681 0.930 . S
C689 C687 1.419 . S
C689 C690 1.362 . S
C690 H682 0.930 . S
C690 C689 1.362 . S
C690 C693 1.409 . S
C691 H683 0.930 . S
C691 C692 1.355 . S
C691 C693 1.415 . S
C692 C691 1.355 . S
C692 C694 1.419 . S
C693 C688 1.425 . S
C693 C690 1.409 . S
C693 C691 1.415 . S
C694 H684 0.930 . S
C694 C692 1.419 . S
C694 C695 1.362 . S
C695 H685 0.930 . S
C695 C688 1.409 . S
C695 C694 1.362 . S
H696 C702 0.930 . S
H697 C705 0.930 . S
H698 C706 0.930 . S
H699 C707 0.930 . S
H700 C710 0.930 . S
H701 C711 0.930 . S
C702 H696 0.930 . S
C702 C703 1.355 . S
C702 C704 1.415 . S
C703 C702 1.355 . S
C703 C705 1.419 1_545 S
C704 C702 1.415 . S
C704 C709 1.425 . S
C704 C711 1.409 . S
C705 H697 0.930 . S
C705 C703 1.419 1_565 S
C705 C706 1.362 . S
C706 H698 0.930 . S
C706 C705 1.362 . S
C706 C709 1.409 1_565 S
C707 H699 0.930 . S
C707 C708 1.355 . S
C707 C709 1.415 . S
C708 C707 1.355 . S
C708 C710 1.419 . S
C709 C704 1.425 . S
C709 C706 1.409 1_545 S
C709 C707 1.415 . S
C710 H700 0.930 . S
C710 C708 1.419 . S
C710 C711 1.362 . S
C711 H701 0.930 . S
C711 C704 1.409 . S
C711 C710 1.362 . S
H712 C718 0.930 . S
H713 C721 0.930 . S
H714 C722 0.930 . S
H715 C723 0.930 . S
H716 C726 0.930 . S
H717 C727 0.930 1_455 S
C718 H712 0.930 . S
C718 C719 1.355 . S
C718 C720 1.415 . S
C719 C718 1.355 . S
C719 C721 1.419 . S
C720 C718 1.415 . S
C720 C725 1.425 . S
C720 C727 1.409 . S
C721 H713 0.930 . S
C721 C719 1.419 . S
C721 C722 1.362 . S
C722 H714 0.930 . S
C722 C721 1.362 . S
C722 C725 1.409 . S
C723 H715 0.930 . S
C723 C724 1.355 . S
C723 C725 1.415 . S
C724 C723 1.355 . S
C724 C726 1.419 1_655 S
C725 C720 1.425 . S
C725 C722 1.409 . S
C725 C723 1.415 . S
C726 H716 0.930 . S
C726 C724 1.419 1_455 S
C726 C727 1.362 1_455 S
C727 H717 0.930 1_655 S
C727 C720 1.409 . S
C727 C726 1.362 1_655 S
H728 C734 0.930 . S
H729 C737 0.930 . S
H730 C738 0.930 . S
H731 C739 0.930 . S
H732 C742 0.930 . S
H733 C743 0.930 . S
C734 H728 0.930 . S
C734 C735 1.355 . S
C734 C736 1.415 . S
C735 C734 1.355 . S
C735 C737 1.419 . S
C736 C734 1.415 . S
C736 C741 1.425 . S
C736 C743 1.409 . S
C737 H729 0.930 . S
C737 C735 1.419 . S
C737 C738 1.362 . S
C738 H730 0.930 . S
C738 C737 1.362 . S
C738 C741 1.409 . S
C739 H731 0.930 . S
C739 C740 1.355 . S
C739 C741 1.415 . S
C740 C739 1.355 . S
C740 C742 1.419 . S
C741 C736 1.425 . S
C741 C738 1.409 . S
C741 C739 1.415 . S
C742 H732 0.930 . S
C742 C740 1.419 . S
C742 C743 1.362 . S
C743 H733 0.930 . S
C743 C736 1.409 . S
C743 C742 1.362 . S
H744 C750 0.930 . S
H745 C753 0.930 . S
H746 C754 0.930 . S
H747 C755 0.930 . S
H748 C758 0.930 . S
H749 C759 0.930 . S
C750 H744 0.930 . S
C750 C751 1.355 . S
C750 C752 1.415 . S
C751 C750 1.355 . S
C751 C753 1.419 . S
C752 C750 1.415 . S
C752 C757 1.425 . S
C752 C759 1.409 . S
C753 H745 0.930 . S
C753 C751 1.419 . S
C753 C754 1.362 . S
C754 H746 0.930 . S
C754 C753 1.362 . S
C754 C757 1.409 . S
C755 H747 0.930 . S
C755 C756 1.355 . S
C755 C757 1.415 . S
C756 C755 1.355 . S
C756 C758 1.419 . S
C757 C752 1.425 . S
C757 C754 1.409 . S
C757 C755 1.415 . S
C758 H748 0.930 . S
C758 C756 1.419 . S
C758 C759 1.362 . S
C759 H749 0.930 . S
C759 C752 1.409 . S
C759 C758 1.362 . S
H760 C766 0.930 . S
H761 C769 0.930 . S
H762 C770 0.930 1_565 S
H763 C771 0.930 . S
H764 C774 0.930 . S
H765 C775 0.930 . S
C766 H760 0.930 . S
C766 C767 1.355 . S
C766 C768 1.415 . S
C767 C766 1.355 . S
C767 C769 1.419 1_545 S
C768 C766 1.415 . S
C768 C773 1.425 . S
C768 C775 1.409 . S
C769 H761 0.930 . S
C769 C767 1.419 1_565 S
C769 C770 1.364 1_565 S
C770 H762 0.930 1_545 S
C770 C769 1.364 1_545 S
C770 C773 1.407 . S
C771 H763 0.930 . S
C771 C772 1.355 . S
C771 C773 1.415 . S
C772 C771 1.355 . S
C772 C774 1.419 . S
C773 C768 1.425 . S
C773 C770 1.407 . S
C773 C771 1.415 . S
C774 H764 0.930 . S
C774 C772 1.419 . S
C774 C775 1.362 . S
C775 H765 0.930 . S
C775 C768 1.409 . S
C775 C774 1.362 . S
H776 C782 0.930 . S
H777 C785 0.930 1_455 S
H778 C786 0.930 . S
H779 C787 0.930 . S
H780 C790 0.930 . S
H781 C791 0.930 . S
C782 H776 0.930 . S
C782 C783 1.355 . S
C782 C784 1.415 . S
C783 C782 1.355 . S
C783 C785 1.419 . S
C784 C782 1.415 . S
C784 C789 1.425 . S
C784 C791 1.409 . S
C785 H777 0.930 1_655 S
C785 C783 1.419 . S
C785 C786 1.362 . S
C786 H778 0.930 . S
C786 C785 1.362 . S
C786 C789 1.409 . S
C787 H779 0.930 . S
C787 C788 1.355 . S
C787 C789 1.415 . S
C788 C787 1.355 . S
C788 C790 1.419 . S
C789 C784 1.425 . S
C789 C786 1.409 . S
C789 C787 1.415 . S
C790 H780 0.930 . S
C790 C788 1.419 . S
C790 C791 1.362 . S
C791 H781 0.930 . S
C791 C784 1.409 . S
C791 C790 1.362 . S
H792 C798 0.930 . S
H793 C801 0.930 . S
H794 C802 0.930 . S
H795 C803 0.930 . S
H796 C806 0.930 . S
H797 C807 0.930 . S
C798 H792 0.930 . S
C798 C799 1.355 1_554 S
C798 C800 1.415 . S
C799 C798 1.355 1_556 S
C799 C801 1.419 . S
C800 C798 1.415 . S
C800 C805 1.425 1_554 S
C800 C807 1.409 . S
C801 H793 0.930 . S
C801 C799 1.419 . S
C801 C802 1.362 . S
C802 H794 0.930 . S
C802 C801 1.362 . S
C802 C805 1.409 . S
C803 H795 0.930 . S
C803 C804 1.357 1_556 S
C803 C805 1.415 . S
C804 C803 1.357 1_554 S
C804 C806 1.417 . S
C805 C800 1.425 1_556 S
C805 C802 1.409 . S
C805 C803 1.415 . S
C806 H796 0.930 . S
C806 C804 1.417 . S
C806 C807 1.362 . S
C807 H797 0.930 . S
C807 C800 1.409 . S
C807 C806 1.362 . S
H808 C814 0.930 . S
H809 C817 0.930 . S
H810 C818 0.930 . S
H811 C819 0.930 . S
H812 C822 0.930 . S
H813 C823 0.930 . S
C814 H808 0.930 . S
C814 C815 1.355 . S
C814 C816 1.415 . S
C815 C814 1.355 . S
C815 C817 1.419 1_556 S
C816 C814 1.415 . S
C816 C821 1.425 1_556 S
C816 C823 1.409 . S
C817 H809 0.930 . S
C817 C815 1.419 1_554 S
C817 C818 1.362 . S
C818 H810 0.930 . S
C818 C817 1.362 . S
C818 C821 1.409 . S
C819 H811 0.930 . S
C819 C820 1.355 1_554 S
C819 C821 1.415 . S
C820 C819 1.355 1_556 S
C820 C822 1.419 . S
C821 C816 1.425 1_554 S
C821 C818 1.409 . S
C821 C819 1.415 . S
C822 H812 0.930 . S
C822 C820 1.419 . S
C822 C823 1.362 . S
C823 H813 0.930 . S
C823 C816 1.409 . S
C823 C822 1.362 . S
H824 C830 0.930 . S
H825 C833 0.930 . S
H826 C834 0.930 . S
H827 C835 0.930 . S
H828 C838 0.930 . S
H829 C839 0.930 . S
C830 H824 0.930 . S
C830 C831 1.355 . S
C830 C832 1.415 . S
C831 C830 1.355 . S
C831 C833 1.419 . S
C832 C830 1.415 . S
C832 C837 1.425 . S
C832 C839 1.409 . S
C833 H825 0.930 . S
C833 C831 1.419 . S
C833 C834 1.362 . S
C834 H826 0.930 . S
C834 C833 1.362 . S
C834 C837 1.409 . S
C835 H827 0.930 . S
C835 C836 1.355 . S
C835 C837 1.415 . S
C836 C835 1.355 . S
C836 C838 1.419 . S
C837 C832 1.425 . S
C837 C834 1.409 . S
C837 C835 1.415 . S
C838 H828 0.930 . S
C838 C836 1.419 . S
C838 C839 1.362 . S
C839 H829 0.930 . S
C839 C832 1.409 . S
C839 C838 1.362 . S
H840 C846 0.930 . S
H841 C849 0.930 . S
H842 C850 0.930 . S
H843 C851 0.930 . S
H844 C854 0.930 . S
H845 C855 0.930 . S
C846 H840 0.930 . S
C846 C847 1.355 1_556 S
C846 C848 1.415 . S
C847 C846 1.355 1_554 S
C847 C849 1.419 . S
C848 C846 1.415 . S
C848 C853 1.425 1_556 S
C848 C855 1.409 . S
C849 H841 0.930 . S
C849 C847 1.419 . S
C849 C850 1.362 . S
C850 H842 0.930 . S
C850 C849 1.362 . S
C850 C853 1.409 . S
C851 H843 0.930 . S
C851 C852 1.356 . S
C851 C853 1.415 . S
C852 C851 1.356 . S
C852 C854 1.417 1_554 S
C853 C848 1.425 1_554 S
C853 C850 1.409 . S
C853 C851 1.415 . S
C854 H844 0.930 . S
C854 C852 1.417 1_556 S
C854 C855 1.362 . S
C855 H845 0.930 . S
C855 C848 1.409 . S
C855 C854 1.362 . S
H856 C862 0.930 . S
H857 C865 0.930 . S
H858 C866 0.930 . S
H859 C867 0.930 . S
H860 C870 0.930 . S
H861 C871 0.930 . S
C862 H856 0.930 . S
C862 C863 1.355 1_556 S
C862 C864 1.415 . S
C863 C862 1.355 1_554 S
C863 C865 1.419 . S
C864 C862 1.415 . S
C864 C869 1.425 1_556 S
C864 C871 1.409 . S
C865 H857 0.930 . S
C865 C863 1.419 . S
C865 C866 1.362 . S
C866 H858 0.930 . S
C866 C865 1.362 . S
C866 C869 1.409 . S
C867 H859 0.930 . S
C867 C868 1.375 . S
C867 C869 1.415 . S
C868 C867 1.375 . S
C868 C870 1.393 1_554 S
C869 C864 1.425 1_554 S
C869 C866 1.409 . S
C869 C867 1.415 . S
C870 H860 0.930 . S
C870 C868 1.393 1_556 S
C870 C871 1.362 . S
C871 H861 0.930 . S
C871 C864 1.409 . S
C871 C870 1.362 . S
H872 C878 0.930 . S
H873 C881 0.930 . S
H874 C882 0.930 . S
H875 C883 0.930 . S
H876 C886 0.930 . S
H877 C887 0.930 . S
C878 H872 0.930 . S
C878 C879 1.355 1_556 S
C878 C880 1.415 . S
C879 C878 1.355 1_554 S
C879 C881 1.419 . S
C880 C878 1.415 . S
C880 C885 1.425 1_556 S
C880 C887 1.409 . S
C881 H873 0.930 . S
C881 C879 1.419 . S
C881 C882 1.362 . S
C882 H874 0.930 . S
C882 C881 1.362 . S
C882 C885 1.409 . S
C883 H875 0.930 . S
C883 C884 1.355 . S
C883 C885 1.415 . S
C884 C883 1.355 . S
C884 C886 1.419 1_554 S
C885 C880 1.425 1_554 S
C885 C882 1.409 . S
C885 C883 1.415 . S
C886 H876 0.930 . S
C886 C884 1.419 1_556 S
C886 C887 1.362 . S
C887 H877 0.930 . S
C887 C880 1.409 . S
C887 C886 1.362 . S
H888 C894 0.930 . S
H889 C897 0.930 . S
H890 C898 0.930 . S
H891 C899 0.930 . S
H892 C902 0.930 . S
H893 C903 0.930 . S
C894 H888 0.930 . S
C894 C895 1.355 . S
C894 C896 1.415 . S
C895 C894 1.355 . S
C895 C897 1.419 . S
C896 C894 1.415 . S
C896 C901 1.425 . S
C896 C903 1.409 . S
C897 H889 0.930 . S
C897 C895 1.419 . S
C897 C898 1.362 . S
C898 H890 0.930 . S
C898 C897 1.362 . S
C898 C901 1.409 . S
C899 H891 0.930 . S
C899 C900 1.355 . S
C899 C901 1.415 . S
C900 C899 1.355 . S
C900 C902 1.419 . S
C901 C896 1.425 . S
C901 C898 1.409 . S
C901 C899 1.415 . S
C902 H892 0.930 . S
C902 C900 1.419 . S
C902 C903 1.362 . S
C903 H893 0.930 . S
C903 C896 1.409 . S
C903 C902 1.362 . S
H904 C910 0.930 . S
H905 C913 0.930 . S
H906 C914 0.930 . S
H907 C915 0.930 . S
H908 C918 0.930 . S
H909 C919 0.930 . S
C910 H904 0.930 . S
C910 C911 1.355 . S
C910 C912 1.415 . S
C911 C910 1.355 . S
C911 C913 1.419 . S
C912 C910 1.415 . S
C912 C917 1.425 . S
C912 C919 1.409 . S
C913 H905 0.930 . S
C913 C911 1.419 . S
C913 C914 1.362 . S
C914 H906 0.930 . S
C914 C913 1.362 . S
C914 C917 1.409 . S
C915 H907 0.930 . S
C915 C916 1.355 . S
C915 C917 1.415 . S
C916 C915 1.355 . S
C916 C918 1.419 . S
C917 C912 1.425 . S
C917 C914 1.409 . S
C917 C915 1.415 . S
C918 H908 0.930 . S
C918 C916 1.419 . S
C918 C919 1.362 . S
C919 H909 0.930 . S
C919 C912 1.409 . S
C919 C918 1.362 . S
H920 C926 0.930 . S
H921 C929 0.930 . S
H922 C930 0.930 . S
H923 C931 0.930 . S
H924 C934 0.930 . S
H925 C935 0.930 . S
C926 H920 0.930 . S
C926 C927 1.355 . S
C926 C928 1.415 . S
C927 C926 1.355 . S
C927 C929 1.419 . S
C928 C926 1.415 . S
C928 C933 1.425 . S
C928 C935 1.409 . S
C929 H921 0.930 . S
C929 C927 1.419 . S
C929 C930 1.362 . S
C930 H922 0.930 . S
C930 C929 1.362 . S
C930 C933 1.409 . S
C931 H923 0.930 . S
C931 C932 1.355 . S
C931 C933 1.415 . S
C932 C931 1.355 . S
C932 C934 1.419 . S
C933 C928 1.425 . S
C933 C930 1.409 . S
C933 C931 1.415 . S
C934 H924 0.930 . S
C934 C932 1.419 . S
C934 C935 1.362 . S
C935 H925 0.930 . S
C935 C928 1.409 . S
C935 C934 1.362 . S
H936 C942 0.930 . S
H937 C945 0.930 . S
H938 C946 0.930 . S
H939 C947 0.930 . S
H940 C950 0.930 . S
H941 C951 0.930 . S
C942 H936 0.930 . S
C942 C943 1.355 . S
C942 C944 1.415 . S
C943 C942 1.355 . S
C943 C945 1.419 . S
C944 C942 1.415 . S
C944 C949 1.425 . S
C944 C951 1.409 . S
C945 H937 0.930 . S
C945 C943 1.419 . S
C945 C946 1.362 . S
C946 H938 0.930 . S
C946 C945 1.362 . S
C946 C949 1.409 . S
C947 H939 0.930 . S
C947 C948 1.355 . S
C947 C949 1.415 . S
C948 C947 1.355 . S
C948 C950 1.419 . S
C949 C944 1.425 . S
C949 C946 1.409 . S
C949 C947 1.415 . S
C950 H940 0.930 . S
C950 C948 1.419 . S
C950 C951 1.362 . S
C951 H941 0.930 . S
C951 C944 1.409 . S
C951 C950 1.362 . S
H952 C958 0.930 . S
H953 C961 0.930 . S
H954 C962 0.930 . S
H955 C963 0.930 . S
H956 C966 0.930 . S
H957 C967 0.930 . S
C958 H952 0.930 . S
C958 C959 1.355 . S
C958 C960 1.415 . S
C959 C958 1.355 . S
C959 C961 1.419 . S
C960 C958 1.415 . S
C960 C965 1.425 . S
C960 C967 1.409 . S
C961 H953 0.930 . S
C961 C959 1.419 . S
C961 C962 1.362 . S
C962 H954 0.930 . S
C962 C961 1.362 . S
C962 C965 1.409 . S
C963 H955 0.930 . S
C963 C964 1.355 . S
C963 C965 1.415 . S
C964 C963 1.355 . S
C964 C966 1.419 . S
C965 C960 1.425 . S
C965 C962 1.409 . S
C965 C963 1.415 . S
C966 H956 0.930 . S
C966 C964 1.419 . S
C966 C967 1.362 . S
C967 H957 0.930 . S
C967 C960 1.409 . S
C967 C966 1.362 . S
H968 C974 0.930 . S
H969 C977 0.930 . S
H970 C978 0.930 . S
H971 C979 0.930 . S
H972 C982 0.930 . S
H973 C983 0.930 . S
C974 H968 0.930 . S
C974 C975 1.355 . S
C974 C976 1.415 . S
C975 C974 1.355 . S
C975 C977 1.419 . S
C976 C974 1.415 . S
C976 C981 1.425 . S
C976 C983 1.409 . S
C977 H969 0.930 . S
C977 C975 1.419 . S
C977 C978 1.362 . S
C978 H970 0.930 . S
C978 C977 1.362 . S
C978 C981 1.409 . S
C979 H971 0.930 . S
C979 C980 1.355 . S
C979 C981 1.415 . S
C980 C979 1.355 . S
C980 C982 1.419 . S
C981 C976 1.425 . S
C981 C978 1.409 . S
C981 C979 1.415 . S
C982 H972 0.930 . S
C982 C980 1.419 . S
C982 C983 1.362 . S
C983 H973 0.930 . S
C983 C976 1.409 . S
C983 C982 1.362 . S
H984 C990 0.930 . S
H985 C993 0.930 . S
H986 C994 0.930 . S
H987 C995 0.930 . S
H988 C998 0.930 . S
H989 C999 0.930 . S
C990 H984 0.930 . S
C990 C991 1.355 . S
C990 C992 1.415 . S
C991 C990 1.355 . S
C991 C993 1.419 . S
C992 C990 1.415 . S
C992 C997 1.425 . S
C992 C999 1.409 . S
C993 H985 0.930 . S
C993 C991 1.419 . S
C993 C994 1.362 . S
C994 H986 0.930 . S
C994 C993 1.362 . S
C994 C997 1.409 . S
C995 H987 0.930 . S
C995 C996 1.355 . S
C995 C997 1.415 . S
C996 C995 1.355 . S
C996 C998 1.419 . S
C997 C992 1.425 . S
C997 C994 1.409 . S
C997 C995 1.415 . S
C998 H988 0.930 . S
C998 C996 1.419 . S
C998 C999 1.362 . S
C999 H989 0.930 . S
C999 C992 1.409 . S
C999 C998 1.362 . S
H1000 C1006 0.930 . S
H1001 C1009 0.930 . S
H1002 C1010 0.930 . S
H1003 C1011 0.930 . S
H1004 C1014 0.930 . S
H1005 C1015 0.930 . S
C1006 H1000 0.930 . S
C1006 C1007 1.355 . S
C1006 C1008 1.415 . S
C1007 C1006 1.355 . S
C1007 C1009 1.419 . S
C1008 C1006 1.415 . S
C1008 C1013 1.425 . S
C1008 C1015 1.409 . S
C1009 H1001 0.930 . S
C1009 C1007 1.419 . S
C1009 C1010 1.362 . S
C1010 H1002 0.930 . S
C1010 C1009 1.362 . S
C1010 C1013 1.409 . S
C1011 H1003 0.930 . S
C1011 C1012 1.355 . S
C1011 C1013 1.415 . S
C1012 C1011 1.355 . S
C1012 C1014 1.419 . S
C1013 C1008 1.425 . S
C1013 C1010 1.409 . S
C1013 C1011 1.415 . S
C1014 H1004 0.930 . S
C1014 C1012 1.419 . S
C1014 C1015 1.362 . S
C1015 H1005 0.930 . S
C1015 C1008 1.409 . S
C1015 C1014 1.362 . S
H1016 C1022 0.930 . S
H1017 C1025 0.930 . S
H1018 C1026 0.930 . S
H1019 C1027 0.930 . S
H1020 C1030 0.930 . S
H1021 C1031 0.930 . S
C1022 H1016 0.930 . S
C1022 C1023 1.355 . S
C1022 C1024 1.415 . S
C1023 C1022 1.355 . S
C1023 C1025 1.419 . S
C1024 C1022 1.415 . S
C1024 C1029 1.425 . S
C1024 C1031 1.409 . S
C1025 H1017 0.930 . S
C1025 C1023 1.419 . S
C1025 C1026 1.362 . S
C1026 H1018 0.930 . S
C1026 C1025 1.362 . S
C1026 C1029 1.409 . S
C1027 H1019 0.930 . S
C1027 C1028 1.355 . S
C1027 C1029 1.415 . S
C1028 C1027 1.355 . S
C1028 C1030 1.419 . S
C1029 C1024 1.425 . S
C1029 C1026 1.409 . S
C1029 C1027 1.415 . S
C1030 H1020 0.930 . S
C1030 C1028 1.419 . S
C1030 C1031 1.362 . S
C1031 H1021 0.930 . S
C1031 C1024 1.409 . S
C1031 C1030 1.362 . S
H1032 C1038 0.930 . S
H1033 C1041 0.930 . S
H1034 C1042 0.930 . S
H1035 C1043 0.930 . S
H1036 C1046 0.930 . S
H1037 C1047 0.930 . S
C1038 H1032 0.930 . S
C1038 C1039 1.355 . S
C1038 C1040 1.415 . S
C1039 C1038 1.355 . S
C1039 C1041 1.419 . S
C1040 C1038 1.415 . S
C1040 C1045 1.425 . S
C1040 C1047 1.409 . S
C1041 H1033 0.930 . S
C1041 C1039 1.419 . S
C1041 C1042 1.362 . S
C1042 H1034 0.930 . S
C1042 C1041 1.362 . S
C1042 C1045 1.409 . S
C1043 H1035 0.930 . S
C1043 C1044 1.355 . S
C1043 C1045 1.415 . S
C1044 C1043 1.355 . S
C1044 C1046 1.419 . S
C1045 C1040 1.425 . S
C1045 C1042 1.409 . S
C1045 C1043 1.415 . S
C1046 H1036 0.930 . S
C1046 C1044 1.419 . S
C1046 C1047 1.362 . S
C1047 H1037 0.930 . S
C1047 C1040 1.409 . S
C1047 C1046 1.362 . S
H1048 C1054 0.930 . S
H1049 C1057 0.930 . S
H1050 C1058 0.930 . S
H1051 C1059 0.930 . S
H1052 C1062 0.930 . S
H1053 C1063 0.930 . S
C1054 H1048 0.930 . S
C1054 C1055 1.355 . S
C1054 C1056 1.415 . S
C1055 C1054 1.355 . S
C1055 C1057 1.419 . S
C1056 C1054 1.415 . S
C1056 C1061 1.425 . S
C1056 C1063 1.409 . S
C1057 H1049 0.930 . S
C1057 C1055 1.419 . S
C1057 C1058 1.362 . S
C1058 H1050 0.930 . S
C1058 C1057 1.362 . S
C1058 C1061 1.409 . S
C1059 H1051 0.930 . S
C1059 C1060 1.355 . S
C1059 C1061 1.415 . S
C1060 C1059 1.355 . S
C1060 C1062 1.419 . S
C1061 C1056 1.425 . S
C1061 C1058 1.409 . S
C1061 C1059 1.415 . S
C1062 H1052 0.930 . S
C1062 C1060 1.419 . S
C1062 C1063 1.362 . S
C1063 H1053 0.930 . S
C1063 C1056 1.409 . S
C1063 C1062 1.362 . S
H1064 C1070 0.930 . S
H1065 C1073 0.930 . S
H1066 C1074 0.930 . S
H1067 C1075 0.930 . S
H1068 C1078 0.930 . S
H1069 C1079 0.930 . S
C1070 H1064 0.930 . S
C1070 C1071 1.355 . S
C1070 C1072 1.415 . S
C1071 C1070 1.355 . S
C1071 C1073 1.419 . S
C1072 C1070 1.415 . S
C1072 C1077 1.425 . S
C1072 C1079 1.409 . S
C1073 H1065 0.930 . S
C1073 C1071 1.419 . S
C1073 C1074 1.362 . S
C1074 H1066 0.930 . S
C1074 C1073 1.362 . S
C1074 C1077 1.409 . S
C1075 H1067 0.930 . S
C1075 C1076 1.355 . S
C1075 C1077 1.415 . S
C1076 C1075 1.355 . S
C1076 C1078 1.419 . S
C1077 C1072 1.425 . S
C1077 C1074 1.409 . S
C1077 C1075 1.415 . S
C1078 H1068 0.930 . S
C1078 C1076 1.419 . S
C1078 C1079 1.362 . S
C1079 H1069 0.930 . S
C1079 C1072 1.409 . S
C1079 C1078 1.362 . S
H1080 C1086 0.930 . S
H1081 C1089 0.930 . S
H1082 C1090 0.930 . S
H1083 C1091 0.930 . S
H1084 C1094 0.930 . S
H1085 C1095 0.930 . S
C1086 H1080 0.930 . S
C1086 C1087 1.355 . S
C1086 C1088 1.415 . S
C1087 C1086 1.355 . S
C1087 C1089 1.419 . S
C1088 C1086 1.415 . S
C1088 C1093 1.425 . S
C1088 C1095 1.409 . S
C1089 H1081 0.930 . S
C1089 C1087 1.419 . S
C1089 C1090 1.362 . S
C1090 H1082 0.930 . S
C1090 C1089 1.362 . S
C1090 C1093 1.409 . S
C1091 H1083 0.930 . S
C1091 C1092 1.355 . S
C1091 C1093 1.415 . S
C1092 C1091 1.355 . S
C1092 C1094 1.419 . S
C1093 C1088 1.425 . S
C1093 C1090 1.409 . S
C1093 C1091 1.415 . S
C1094 H1084 0.930 . S
C1094 C1092 1.419 . S
C1094 C1095 1.362 . S
C1095 H1085 0.930 . S
C1095 C1088 1.409 . S
C1095 C1094 1.362 . S
H1096 C1102 0.930 . S
H1097 C1105 0.930 . S
H1098 C1106 0.930 . S
H1099 C1107 0.930 . S
H1100 C1110 0.930 . S
H1101 C1111 0.930 . S
C1102 H1096 0.930 . S
C1102 C1103 1.355 . S
C1102 C1104 1.415 . S
C1103 C1102 1.355 . S
C1103 C1105 1.419 . S
C1104 C1102 1.415 . S
C1104 C1109 1.425 . S
C1104 C1111 1.409 . S
C1105 H1097 0.930 . S
C1105 C1103 1.419 . S
C1105 C1106 1.362 . S
C1106 H1098 0.930 . S
C1106 C1105 1.362 . S
C1106 C1109 1.409 . S
C1107 H1099 0.930 . S
C1107 C1108 1.355 . S
C1107 C1109 1.415 . S
C1108 C1107 1.355 . S
C1108 C1110 1.419 . S
C1109 C1104 1.425 . S
C1109 C1106 1.409 . S
C1109 C1107 1.415 . S
C1110 H1100 0.930 . S
C1110 C1108 1.419 . S
C1110 C1111 1.362 . S
C1111 H1101 0.930 . S
C1111 C1104 1.409 . S
C1111 C1110 1.362 . S
H1112 C1118 0.930 . S
H1113 C1121 0.930 . S
H1114 C1122 0.930 . S
H1115 C1123 0.930 . S
H1116 C1126 0.930 . S
H1117 C1127 0.930 . S
C1118 H1112 0.930 . S
C1118 C1119 1.355 . S
C1118 C1120 1.415 . S
C1119 C1118 1.355 . S
C1119 C1121 1.419 . S
C1120 C1118 1.415 . S
C1120 C1125 1.425 . S
C1120 C1127 1.409 . S
C1121 H1113 0.930 . S
C1121 C1119 1.419 . S
C1121 C1122 1.362 . S
C1122 H1114 0.930 . S
C1122 C1121 1.362 . S
C1122 C1125 1.409 . S
C1123 H1115 0.930 . S
C1123 C1124 1.355 . S
C1123 C1125 1.415 . S
C1124 C1123 1.355 . S
C1124 C1126 1.419 . S
C1125 C1120 1.425 . S
C1125 C1122 1.409 . S
C1125 C1123 1.415 . S
C1126 H1116 0.930 . S
C1126 C1124 1.419 . S
C1126 C1127 1.362 . S
C1127 H1117 0.930 . S
C1127 C1120 1.409 . S
C1127 C1126 1.362 . S
H1128 C1134 0.930 . S
H1129 C1137 0.930 . S
H1130 C1138 0.930 . S
H1131 C1139 0.930 . S
H1132 C1142 0.930 . S
H1133 C1143 0.930 . S
C1134 H1128 0.930 . S
C1134 C1135 1.355 . S
C1134 C1136 1.415 . S
C1135 C1134 1.355 . S
C1135 C1137 1.419 . S
C1136 C1134 1.415 . S
C1136 C1141 1.425 . S
C1136 C1143 1.409 . S
C1137 H1129 0.930 . S
C1137 C1135 1.419 . S
C1137 C1138 1.362 . S
C1138 H1130 0.930 . S
C1138 C1137 1.362 . S
C1138 C1141 1.409 . S
C1139 H1131 0.930 . S
C1139 C1140 1.355 . S
C1139 C1141 1.415 . S
C1140 C1139 1.355 . S
C1140 C1142 1.419 . S
C1141 C1136 1.425 . S
C1141 C1138 1.409 . S
C1141 C1139 1.415 . S
C1142 H1132 0.930 . S
C1142 C1140 1.419 . S
C1142 C1143 1.362 . S
C1143 H1133 0.930 . S
C1143 C1136 1.409 . S
C1143 C1142 1.362 . S
H1144 C1150 0.930 . S
H1145 C1153 0.930 . S
H1146 C1154 0.930 . S
H1147 C1155 0.930 . S
H1148 C1158 0.930 . S
H1149 C1159 0.930 . S
C1150 H1144 0.930 . S
C1150 C1151 1.355 . S
C1150 C1152 1.415 . S
C1151 C1150 1.355 . S
C1151 C1153 1.419 . S
C1152 C1150 1.415 . S
C1152 C1157 1.425 . S
C1152 C1159 1.409 . S
C1153 H1145 0.930 . S
C1153 C1151 1.419 . S
C1153 C1154 1.362 . S
C1154 H1146 0.930 . S
C1154 C1153 1.362 . S
C1154 C1157 1.409 . S
C1155 H1147 0.930 . S
C1155 C1156 1.355 . S
C1155 C1157 1.415 . S
C1156 C1155 1.355 . S
C1156 C1158 1.419 . S
C1157 C1152 1.425 . S
C1157 C1154 1.409 . S
C1157 C1155 1.415 . S
C1158 H1148 0.930 . S
C1158 C1156 1.419 . S
C1158 C1159 1.362 . S
C1159 H1149 0.930 . S
C1159 C1152 1.409 . S
C1159 C1158 1.362 . S
H1160 C1166 0.930 . S
H1161 C1169 0.930 . S
H1162 C1170 0.930 . S
H1163 C1171 0.930 . S
H1164 C1174 0.930 . S
H1165 C1175 0.930 . S
C1166 H1160 0.930 . S
C1166 C1167 1.355 . S
C1166 C1168 1.415 . S
C1167 C1166 1.355 . S
C1167 C1169 1.419 . S
C1168 C1166 1.415 . S
C1168 C1173 1.425 . S
C1168 C1175 1.409 . S
C1169 H1161 0.930 . S
C1169 C1167 1.419 . S
C1169 C1170 1.362 . S
C1170 H1162 0.930 . S
C1170 C1169 1.362 . S
C1170 C1173 1.409 . S
C1171 H1163 0.930 . S
C1171 C1172 1.355 . S
C1171 C1173 1.415 . S
C1172 C1171 1.355 . S
C1172 C1174 1.419 . S
C1173 C1168 1.425 . S
C1173 C1170 1.409 . S
C1173 C1171 1.415 . S
C1174 H1164 0.930 . S
C1174 C1172 1.419 . S
C1174 C1175 1.362 . S
C1175 H1165 0.930 . S
C1175 C1168 1.409 . S
C1175 C1174 1.362 . S
H1176 C1182 0.930 . S
H1177 C1185 0.930 . S
H1178 C1186 0.930 . S
H1179 C1187 0.930 . S
H1180 C1190 0.930 . S
H1181 C1191 0.930 . S
C1182 H1176 0.930 . S
C1182 C1183 1.355 . S
C1182 C1184 1.415 . S
C1183 C1182 1.355 . S
C1183 C1185 1.419 . S
C1184 C1182 1.415 . S
C1184 C1189 1.425 . S
C1184 C1191 1.409 . S
C1185 H1177 0.930 . S
C1185 C1183 1.419 . S
C1185 C1186 1.362 . S
C1186 H1178 0.930 . S
C1186 C1185 1.362 . S
C1186 C1189 1.409 . S
C1187 H1179 0.930 . S
C1187 C1188 1.355 . S
C1187 C1189 1.415 . S
C1188 C1187 1.355 . S
C1188 C1190 1.419 . S
C1189 C1184 1.425 . S
C1189 C1186 1.409 . S
C1189 C1187 1.415 . S
C1190 H1180 0.930 . S
C1190 C1188 1.419 . S
C1190 C1191 1.362 . S
C1191 H1181 0.930 . S
C1191 C1184 1.409 . S
C1191 C1190 1.362 . S
H1192 C1198 0.930 . S
H1193 C1201 0.930 . S
H1194 C1202 0.930 . S
H1195 C1203 0.930 . S
H1196 C1206 0.930 . S
H1197 C1207 0.930 . S
C1198 H1192 0.930 . S
C1198 C1199 1.355 . S
C1198 C1200 1.415 . S
C1199 C1198 1.355 . S
C1199 C1201 1.419 . S
C1200 C1198 1.415 . S
C1200 C1205 1.425 . S
C1200 C1207 1.409 . S
C1201 H1193 0.930 . S
C1201 C1199 1.419 . S
C1201 C1202 1.362 . S
C1202 H1194 0.930 . S
C1202 C1201 1.362 . S
C1202 C1205 1.409 . S
C1203 H1195 0.930 . S
C1203 C1204 1.355 . S
C1203 C1205 1.415 . S
C1204 C1203 1.355 . S
C1204 C1206 1.419 . S
C1205 C1200 1.425 . S
C1205 C1202 1.409 . S
C1205 C1203 1.415 . S
C1206 H1196 0.930 . S
C1206 C1204 1.419 . S
C1206 C1207 1.362 . S
C1207 H1197 0.930 . S
C1207 C1200 1.409 . S
C1207 C1206 1.362 . S
H1208 C1214 0.930 . S
H1209 C1217 0.930 . S
H1210 C1218 0.930 . S
H1211 C1219 0.930 . S
H1212 C1222 0.930 . S
H1213 C1223 0.930 . S
C1214 H1208 0.930 . S
C1214 C1215 1.355 . S
C1214 C1216 1.415 . S
C1215 C1214 1.355 . S
C1215 C1217 1.419 . S
C1216 C1214 1.415 . S
C1216 C1221 1.425 . S
C1216 C1223 1.409 . S
C1217 H1209 0.930 . S
C1217 C1215 1.419 . S
C1217 C1218 1.362 . S
C1218 H1210 0.930 . S
C1218 C1217 1.362 . S
C1218 C1221 1.409 . S
C1219 H1211 0.930 . S
C1219 C1220 1.355 . S
C1219 C1221 1.415 . S
C1220 C1219 1.355 . S
C1220 C1222 1.419 . S
C1221 C1216 1.425 . S
C1221 C1218 1.409 . S
C1221 C1219 1.415 . S
C1222 H1212 0.930 . S
C1222 C1220 1.419 . S
C1222 C1223 1.362 . S
C1223 H1213 0.930 . S
C1223 C1216 1.409 . S
C1223 C1222 1.362 . S
H1224 C1230 0.930 . S
H1225 C1233 0.930 . S
H1226 C1234 0.930 . S
H1227 C1235 0.930 . S
H1228 C1238 0.930 . S
H1229 C1239 0.930 . S
C1230 H1224 0.930 . S
C1230 C1231 1.355 . S
C1230 C1232 1.415 . S
C1231 C1230 1.355 . S
C1231 C1233 1.419 . S
C1232 C1230 1.415 . S
C1232 C1237 1.425 . S
C1232 C1239 1.409 . S
C1233 H1225 0.930 . S
C1233 C1231 1.419 . S
C1233 C1234 1.362 . S
C1234 H1226 0.930 . S
C1234 C1233 1.362 . S
C1234 C1237 1.409 . S
C1235 H1227 0.930 . S
C1235 C1236 1.355 . S
C1235 C1237 1.415 . S
C1236 C1235 1.355 . S
C1236 C1238 1.419 . S
C1237 C1232 1.425 . S
C1237 C1234 1.409 . S
C1237 C1235 1.415 . S
C1238 H1228 0.930 . S
C1238 C1236 1.419 . S
C1238 C1239 1.362 . S
C1239 H1229 0.930 . S
C1239 C1232 1.409 . S
C1239 C1238 1.362 . S
H1240 C1246 0.930 . S
H1241 C1249 0.930 . S
H1242 C1250 0.930 . S
H1243 C1251 0.930 . S
H1244 C1254 0.930 . S
H1245 C1255 0.930 . S
C1246 H1240 0.930 . S
C1246 C1247 1.355 . S
C1246 C1248 1.415 . S
C1247 C1246 1.355 . S
C1247 C1249 1.419 . S
C1248 C1246 1.415 . S
C1248 C1253 1.425 . S
C1248 C1255 1.409 . S
C1249 H1241 0.930 . S
C1249 C1247 1.419 . S
C1249 C1250 1.362 . S
C1250 H1242 0.930 . S
C1250 C1249 1.362 . S
C1250 C1253 1.409 . S
C1251 H1243 0.930 . S
C1251 C1252 1.355 . S
C1251 C1253 1.415 . S
C1252 C1251 1.355 . S
C1252 C1254 1.419 . S
C1253 C1248 1.425 . S
C1253 C1250 1.409 . S
C1253 C1251 1.415 . S
C1254 H1244 0.930 . S
C1254 C1252 1.419 . S
C1254 C1255 1.362 . S
C1255 H1245 0.930 . S
C1255 C1248 1.409 . S
C1255 C1254 1.362 . S
H1256 C1262 0.930 . S
H1257 C1265 0.930 . S
H1258 C1266 0.930 . S
H1259 C1267 0.930 . S
H1260 C1270 0.930 . S
H1261 C1271 0.930 . S
C1262 H1256 0.930 . S
C1262 C1263 1.355 . S
C1262 C1264 1.415 . S
C1263 C1262 1.355 . S
C1263 C1265 1.419 . S
C1264 C1262 1.415 . S
C1264 C1269 1.425 . S
C1264 C1271 1.409 . S
C1265 H1257 0.930 . S
C1265 C1263 1.419 . S
C1265 C1266 1.362 . S
C1266 H1258 0.930 . S
C1266 C1265 1.362 . S
C1266 C1269 1.409 . S
C1267 H1259 0.930 . S
C1267 C1268 1.355 . S
C1267 C1269 1.415 . S
C1268 C1267 1.355 . S
C1268 C1270 1.419 . S
C1269 C1264 1.425 . S
C1269 C1266 1.409 . S
C1269 C1267 1.415 . S
C1270 H1260 0.930 . S
C1270 C1268 1.419 . S
C1270 C1271 1.362 . S
C1271 H1261 0.930 . S
C1271 C1264 1.409 . S
C1271 C1270 1.362 . S
H1272 C1278 0.930 . S
H1273 C1281 0.930 . S
H1274 C1282 0.930 . S
H1275 C1283 0.930 . S
H1276 C1286 0.930 . S
H1277 C1287 0.930 . S
C1278 H1272 0.930 . S
C1278 C1279 1.355 . S
C1278 C1280 1.415 . S
C1279 C1278 1.355 . S
C1279 C1281 1.419 . S
C1280 C1278 1.415 . S
C1280 C1285 1.425 . S
C1280 C1287 1.409 . S
C1281 H1273 0.930 . S
C1281 C1279 1.419 . S
C1281 C1282 1.362 . S
C1282 H1274 0.930 . S
C1282 C1281 1.362 . S
C1282 C1285 1.409 . S
C1283 H1275 0.930 . S
C1283 C1284 1.355 . S
C1283 C1285 1.415 . S
C1284 C1283 1.355 . S
C1284 C1286 1.419 . S
C1285 C1280 1.425 . S
C1285 C1282 1.409 . S
C1285 C1283 1.415 . S
C1286 H1276 0.930 . S
C1286 C1284 1.419 . S
C1286 C1287 1.362 . S
C1287 H1277 0.930 . S
C1287 C1280 1.409 . S
C1287 C1286 1.362 . S
H1288 C1294 0.930 . S
H1289 C1297 0.930 . S
H1290 C1298 0.930 . S
H1291 C1299 0.930 . S
H1292 C1302 0.930 . S
H1293 C1303 0.930 . S
C1294 H1288 0.930 . S
C1294 C1295 1.355 1_565 S
C1294 C1296 1.415 . S
C1295 C1294 1.355 1_545 S
C1295 C1297 1.419 . S
C1296 C1294 1.415 . S
C1296 C1301 1.425 1_565 S
C1296 C1303 1.409 . S
C1297 H1289 0.930 . S
C1297 C1295 1.419 . S
C1297 C1298 1.362 . S
C1298 H1290 0.930 . S
C1298 C1297 1.362 . S
C1298 C1301 1.409 . S
C1299 H1291 0.930 . S
C1299 C1300 1.355 1_545 S
C1299 C1301 1.415 . S
C1300 C1299 1.355 1_565 S
C1300 C1302 1.419 . S
C1301 C1296 1.425 1_545 S
C1301 C1298 1.409 . S
C1301 C1299 1.415 . S
C1302 H1292 0.930 . S
C1302 C1300 1.419 . S
C1302 C1303 1.362 . S
C1303 H1293 0.930 . S
C1303 C1296 1.409 . S
C1303 C1302 1.362 . S
H1304 C1310 0.930 . S
H1305 C1313 0.930 . S
H1306 C1314 0.930 . S
H1307 C1315 0.930 . S
H1308 C1318 0.930 . S
H1309 C1319 0.930 . S
C1310 H1304 0.930 . S
C1310 C1311 1.355 . S
C1310 C1312 1.415 . S
C1311 C1310 1.355 . S
C1311 C1313 1.419 1_455 S
C1312 C1310 1.415 . S
C1312 C1317 1.425 1_455 S
C1312 C1319 1.409 . S
C1313 H1305 0.930 . S
C1313 C1311 1.419 1_655 S
C1313 C1314 1.362 . S
C1314 H1306 0.930 . S
C1314 C1313 1.362 . S
C1314 C1317 1.409 . S
C1315 H1307 0.930 . S
C1315 C1316 1.355 . S
C1315 C1317 1.415 . S
C1316 C1315 1.355 . S
C1316 C1318 1.419 1_655 S
C1317 C1312 1.425 1_655 S
C1317 C1314 1.409 . S
C1317 C1315 1.415 . S
C1318 H1308 0.930 . S
C1318 C1316 1.419 1_455 S
C1318 C1319 1.362 . S
C1319 H1309 0.930 . S
C1319 C1312 1.409 . S
C1319 C1318 1.362 . S
H1320 C1326 0.930 . S
H1321 C1329 0.930 . S
H1322 C1330 0.930 . S
H1323 C1331 0.930 . S
H1324 C1334 0.930 . S
H1325 C1335 0.930 . S
C1326 H1320 0.930 . S
C1326 C1327 1.355 . S
C1326 C1328 1.415 . S
C1327 C1326 1.355 . S
C1327 C1329 1.419 . S
C1328 C1326 1.415 . S
C1328 C1333 1.425 . S
C1328 C1335 1.409 . S
C1329 H1321 0.930 . S
C1329 C1327 1.419 . S
C1329 C1330 1.362 . S
C1330 H1322 0.930 . S
C1330 C1329 1.362 . S
C1330 C1333 1.409 . S
C1331 H1323 0.930 . S
C1331 C1332 1.355 . S
C1331 C1333 1.415 . S
C1332 C1331 1.355 . S
C1332 C1334 1.419 . S
C1333 C1328 1.425 . S
C1333 C1330 1.409 . S
C1333 C1331 1.415 . S
C1334 H1324 0.930 . S
C1334 C1332 1.419 . S
C1334 C1335 1.362 . S
C1335 H1325 0.930 . S
C1335 C1328 1.409 . S
C1335 C1334 1.362 . S
H1336 C1342 0.930 . S
H1337 C1345 0.924 . S
H1338 C1346 0.930 . S
H1339 C1347 0.930 . S
H1340 C1350 0.924 . S
H1341 C1351 0.930 . S
C1342 H1336 0.930 . S
C1342 C1343 1.355 . S
C1342 C1344 1.415 . S
C1343 C1342 1.355 . S
C1343 C1345 1.416 1_565 S
C1344 C1342 1.415 . S
C1344 C1349 1.425 1_565 S
C1344 C1351 1.409 . S
C1345 H1337 0.924 . S
C1345 C1343 1.416 1_545 S
C1345 C1346 1.373 . S
C1346 H1338 0.930 . S
C1346 C1345 1.373 . S
C1346 C1349 1.409 . S
C1347 H1339 0.930 . S
C1347 C1348 1.355 . S
C1347 C1349 1.415 . S
C1348 C1347 1.355 . S
C1348 C1350 1.416 1_545 S
C1349 C1344 1.425 1_545 S
C1349 C1346 1.409 . S
C1349 C1347 1.415 . S
C1350 H1340 0.924 . S
C1350 C1348 1.416 1_565 S
C1350 C1351 1.373 . S
C1351 H1341 0.930 . S
C1351 C1344 1.409 . S
C1351 C1350 1.373 . S
H1352 C1358 0.930 . S
H1353 C1361 0.930 . S
H1354 C1362 0.930 . S
H1355 C1363 0.930 . S
H1356 C1366 0.930 . S
H1357 C1367 0.930 . S
C1358 H1352 0.930 . S
C1358 C1359 1.355 . S
C1358 C1360 1.413 1_455 S
C1359 C1358 1.355 . S
C1359 C1361 1.419 . S
C1360 C1358 1.413 1_655 S
C1360 C1365 1.415 1_655 S
C1360 C1367 1.416 . S
C1361 H1353 0.930 . S
C1361 C1359 1.419 . S
C1361 C1362 1.362 . S
C1362 H1354 0.930 . S
C1362 C1361 1.362 . S
C1362 C1365 1.416 . S
C1363 H1355 0.930 . S
C1363 C1364 1.355 . S
C1363 C1365 1.413 1_655 S
C1364 C1363 1.355 . S
C1364 C1366 1.419 . S
C1365 C1360 1.415 1_455 S
C1365 C1362 1.416 . S
C1365 C1363 1.413 1_455 S
C1366 H1356 0.930 . S
C1366 C1364 1.419 . S
C1366 C1367 1.362 . S
C1367 H1357 0.930 . S
C1367 C1360 1.416 . S
C1367 C1366 1.362 . S
H1368 C1374 0.930 . S
H1369 C1377 0.930 . S
H1370 C1378 0.930 . S
H1371 C1379 0.930 . S
H1372 C1382 0.930 . S
H1373 C1383 0.930 . S
C1374 H1368 0.930 . S
C1374 C1375 1.355 . S
C1374 C1376 1.415 . S
C1375 C1374 1.355 . S
C1375 C1377 1.419 . S
C1376 C1374 1.415 . S
C1376 C1381 1.425 . S
C1376 C1383 1.409 . S
C1377 H1369 0.930 . S
C1377 C1375 1.419 . S
C1377 C1378 1.362 . S
C1378 H1370 0.930 . S
C1378 C1377 1.362 . S
C1378 C1381 1.409 . S
C1379 H1371 0.930 . S
C1379 C1380 1.355 . S
C1379 C1381 1.415 . S
C1380 C1379 1.355 . S
C1380 C1382 1.419 . S
C1381 C1376 1.425 . S
C1381 C1378 1.409 . S
C1381 C1379 1.415 . S
C1382 H1372 0.930 . S
C1382 C1380 1.419 . S
C1382 C1383 1.362 . S
C1383 H1373 0.930 . S
C1383 C1376 1.409 . S
C1383 C1382 1.362 . S
H1384 C1390 0.930 . S
H1385 C1393 0.930 . S
H1386 C1394 0.930 . S
H1387 C1395 0.930 . S
H1388 C1398 0.930 . S
H1389 C1399 0.930 . S
C1390 H1384 0.930 . S
C1390 C1391 1.355 . S
C1390 C1392 1.415 . S
C1391 C1390 1.355 . S
C1391 C1393 1.419 . S
C1392 C1390 1.415 . S
C1392 C1397 1.425 . S
C1392 C1399 1.409 . S
C1393 H1385 0.930 . S
C1393 C1391 1.419 . S
C1393 C1394 1.362 . S
C1394 H1386 0.930 . S
C1394 C1393 1.362 . S
C1394 C1397 1.409 . S
C1395 H1387 0.930 . S
C1395 C1396 1.355 . S
C1395 C1397 1.415 . S
C1396 C1395 1.355 . S
C1396 C1398 1.419 . S
C1397 C1392 1.425 . S
C1397 C1394 1.409 . S
C1397 C1395 1.415 . S
C1398 H1388 0.930 . S
C1398 C1396 1.419 . S
C1398 C1399 1.362 . S
C1399 H1389 0.930 . S
C1399 C1392 1.409 . S
C1399 C1398 1.362 . S
H1400 C1406 0.930 . S
H1401 C1409 0.930 . S
H1402 C1410 0.930 . S
H1403 C1411 0.930 . S
H1404 C1414 0.930 . S
H1405 C1415 0.930 . S
C1406 H1400 0.930 . S
C1406 C1407 1.355 . S
C1406 C1408 1.415 . S
C1407 C1406 1.355 . S
C1407 C1409 1.419 . S
C1408 C1406 1.415 . S
C1408 C1413 1.425 . S
C1408 C1415 1.409 . S
C1409 H1401 0.930 . S
C1409 C1407 1.419 . S
C1409 C1410 1.362 . S
C1410 H1402 0.930 . S
C1410 C1409 1.362 . S
C1410 C1413 1.409 . S
C1411 H1403 0.930 . S
C1411 C1412 1.355 . S
C1411 C1413 1.415 . S
C1412 C1411 1.355 . S
C1412 C1414 1.419 . S
C1413 C1408 1.425 . S
C1413 C1410 1.409 . S
C1413 C1411 1.415 . S
C1414 H1404 0.930 . S
C1414 C1412 1.419 . S
C1414 C1415 1.362 . S
C1415 H1405 0.930 . S
C1415 C1408 1.409 . S
C1415 C1414 1.362 . S
H1416 C1422 0.930 . S
H1417 C1425 0.930 . S
H1418 C1426 0.930 . S
H1419 C1427 0.930 . S
H1420 C1430 0.930 . S
H1421 C1431 0.930 . S
C1422 H1416 0.930 . S
C1422 C1423 1.355 . S
C1422 C1424 1.415 . S
C1423 C1422 1.355 . S
C1423 C1425 1.419 . S
C1424 C1422 1.415 . S
C1424 C1429 1.425 . S
C1424 C1431 1.409 . S
C1425 H1417 0.930 . S
C1425 C1423 1.419 . S
C1425 C1426 1.362 . S
C1426 H1418 0.930 . S
C1426 C1425 1.362 . S
C1426 C1429 1.409 . S
C1427 H1419 0.930 . S
C1427 C1428 1.355 . S
C1427 C1429 1.415 . S
C1428 C1427 1.355 . S
C1428 C1430 1.419 . S
C1429 C1424 1.425 . S
C1429 C1426 1.409 . S
C1429 C1427 1.415 . S
C1430 H1420 0.930 . S
C1430 C1428 1.419 . S
C1430 C1431 1.362 . S
C1431 H1421 0.930 . S
C1431 C1424 1.409 . S
C1431 C1430 1.362 . S
H1432 C1438 0.930 . S
H1433 C1441 0.930 . S
H1434 C1442 0.930 . S
H1435 C1443 0.930 . S
H1436 C1446 0.930 . S
H1437 C1447 0.930 . S
C1438 H1432 0.930 . S
C1438 C1439 1.355 . S
C1438 C1440 1.415 . S
C1439 C1438 1.355 . S
C1439 C1441 1.419 . S
C1440 C1438 1.415 . S
C1440 C1445 1.425 . S
C1440 C1447 1.409 . S
C1441 H1433 0.930 . S
C1441 C1439 1.419 . S
C1441 C1442 1.362 . S
C1442 H1434 0.930 . S
C1442 C1441 1.362 . S
C1442 C1445 1.409 . S
C1443 H1435 0.930 . S
C1443 C1444 1.355 . S
C1443 C1445 1.415 . S
C1444 C1443 1.355 . S
C1444 C1446 1.419 . S
C1445 C1440 1.425 . S
C1445 C1442 1.409 . S
C1445 C1443 1.415 . S
C1446 H1436 0.930 . S
C1446 C1444 1.419 . S
C1446 C1447 1.362 . S
C1447 H1437 0.930 . S
C1447 C1440 1.409 . S
C1447 C1446 1.362 . S
H1448 C1454 0.930 . S
H1449 C1457 0.930 . S
H1450 C1458 0.930 . S
H1451 C1459 0.930 . S
H1452 C1462 0.930 . S
H1453 C1463 0.930 . S
C1454 H1448 0.930 . S
C1454 C1455 1.355 . S
C1454 C1456 1.415 . S
C1455 C1454 1.355 . S
C1455 C1457 1.419 . S
C1456 C1454 1.415 . S
C1456 C1461 1.425 . S
C1456 C1463 1.409 . S
C1457 H1449 0.930 . S
C1457 C1455 1.419 . S
C1457 C1458 1.362 . S
C1458 H1450 0.930 . S
C1458 C1457 1.362 . S
C1458 C1461 1.409 . S
C1459 H1451 0.930 . S
C1459 C1460 1.355 . S
C1459 C1461 1.415 . S
C1460 C1459 1.355 . S
C1460 C1462 1.419 . S
C1461 C1456 1.425 . S
C1461 C1458 1.409 . S
C1461 C1459 1.415 . S
C1462 H1452 0.930 . S
C1462 C1460 1.419 . S
C1462 C1463 1.362 . S
C1463 H1453 0.930 . S
C1463 C1456 1.409 . S
C1463 C1462 1.362 . S
H1464 C1470 0.930 . S
H1465 C1473 0.930 . S
H1466 C1474 0.930 . S
H1467 C1475 0.930 . S
H1468 C1478 0.930 . S
H1469 C1479 0.930 . S
C1470 H1464 0.930 . S
C1470 C1471 1.355 . S
C1470 C1472 1.415 . S
C1471 C1470 1.355 . S
C1471 C1473 1.419 . S
C1472 C1470 1.415 . S
C1472 C1477 1.425 . S
C1472 C1479 1.409 . S
C1473 H1465 0.930 . S
C1473 C1471 1.419 . S
C1473 C1474 1.362 . S
C1474 H1466 0.930 . S
C1474 C1473 1.362 . S
C1474 C1477 1.409 . S
C1475 H1467 0.930 . S
C1475 C1476 1.355 . S
C1475 C1477 1.415 . S
C1476 C1475 1.355 . S
C1476 C1478 1.419 . S
C1477 C1472 1.425 . S
C1477 C1474 1.409 . S
C1477 C1475 1.415 . S
C1478 H1468 0.930 . S
C1478 C1476 1.419 . S
C1478 C1479 1.362 . S
C1479 H1469 0.930 . S
C1479 C1472 1.409 . S
C1479 C1478 1.362 . S
H1480 C1486 0.930 . S
H1481 C1489 0.930 . S
H1482 C1490 0.930 . S
H1483 C1491 0.930 . S
H1484 C1494 0.930 . S
H1485 C1495 0.930 . S
C1486 H1480 0.930 . S
C1486 C1487 1.355 . S
C1486 C1488 1.415 . S
C1487 C1486 1.355 . S
C1487 C1489 1.419 . S
C1488 C1486 1.415 . S
C1488 C1493 1.425 . S
C1488 C1495 1.409 . S
C1489 H1481 0.930 . S
C1489 C1487 1.419 . S
C1489 C1490 1.362 . S
C1490 H1482 0.930 . S
C1490 C1489 1.362 . S
C1490 C1493 1.409 . S
C1491 H1483 0.930 . S
C1491 C1492 1.355 . S
C1491 C1493 1.415 . S
C1492 C1491 1.355 . S
C1492 C1494 1.419 . S
C1493 C1488 1.425 . S
C1493 C1490 1.409 . S
C1493 C1491 1.415 . S
C1494 H1484 0.930 . S
C1494 C1492 1.419 . S
C1494 C1495 1.362 . S
C1495 H1485 0.930 . S
C1495 C1488 1.409 . S
C1495 C1494 1.362 . S
H1496 C1502 0.930 . S
H1497 C1505 0.930 . S
H1498 C1506 0.930 . S
H1499 C1507 0.930 . S
H1500 C1510 0.930 . S
H1501 C1511 0.930 . S
C1502 H1496 0.930 . S
C1502 C1503 1.355 . S
C1502 C1504 1.415 . S
C1503 C1502 1.355 . S
C1503 C1505 1.419 . S
C1504 C1502 1.415 . S
C1504 C1509 1.425 . S
C1504 C1511 1.409 . S
C1505 H1497 0.930 . S
C1505 C1503 1.419 . S
C1505 C1506 1.362 . S
C1506 H1498 0.930 . S
C1506 C1505 1.362 . S
C1506 C1509 1.409 . S
C1507 H1499 0.930 . S
C1507 C1508 1.355 . S
C1507 C1509 1.415 . S
C1508 C1507 1.355 . S
C1508 C1510 1.419 . S
C1509 C1504 1.425 . S
C1509 C1506 1.409 . S
C1509 C1507 1.415 . S
C1510 H1500 0.930 . S
C1510 C1508 1.419 . S
C1510 C1511 1.362 . S
C1511 H1501 0.930 . S
C1511 C1504 1.409 . S
C1511 C1510 1.362 . S
H1512 C1518 0.930 . S
H1513 C1521 0.930 . S
H1514 C1522 0.930 . S
H1515 C1523 0.930 . S
H1516 C1526 0.930 . S
H1517 C1527 0.930 . S
C1518 H1512 0.930 . S
C1518 C1519 1.355 . S
C1518 C1520 1.415 . S
C1519 C1518 1.355 . S
C1519 C1521 1.419 . S
C1520 C1518 1.415 . S
C1520 C1525 1.425 . S
C1520 C1527 1.409 . S
C1521 H1513 0.930 . S
C1521 C1519 1.419 . S
C1521 C1522 1.362 . S
C1522 H1514 0.930 . S
C1522 C1521 1.362 . S
C1522 C1525 1.409 . S
C1523 H1515 0.930 . S
C1523 C1524 1.355 . S
C1523 C1525 1.415 . S
C1524 C1523 1.355 . S
C1524 C1526 1.419 . S
C1525 C1520 1.425 . S
C1525 C1522 1.409 . S
C1525 C1523 1.415 . S
C1526 H1516 0.930 . S
C1526 C1524 1.419 . S
C1526 C1527 1.362 . S
C1527 H1517 0.930 . S
C1527 C1520 1.409 . S
C1527 C1526 1.362 . S
H1528 C1534 0.930 . S
H1529 C1537 0.930 . S
H1530 C1538 0.930 . S
H1531 C1539 0.930 . S
H1532 C1542 0.930 . S
H1533 C1543 0.930 . S
C1534 H1528 0.930 . S
C1534 C1535 1.355 . S
C1534 C1536 1.415 . S
C1535 C1534 1.355 . S
C1535 C1537 1.419 . S
C1536 C1534 1.415 . S
C1536 C1541 1.425 . S
C1536 C1543 1.409 . S
C1537 H1529 0.930 . S
C1537 C1535 1.419 . S
C1537 C1538 1.362 . S
C1538 H1530 0.930 . S
C1538 C1537 1.362 . S
C1538 C1541 1.409 . S
C1539 H1531 0.930 . S
C1539 C1540 1.355 . S
C1539 C1541 1.415 . S
C1540 C1539 1.355 . S
C1540 C1542 1.419 . S
C1541 C1536 1.425 . S
C1541 C1538 1.409 . S
C1541 C1539 1.415 . S
C1542 H1532 0.930 . S
C1542 C1540 1.419 . S
C1542 C1543 1.362 . S
C1543 H1533 0.930 . S
C1543 C1536 1.409 . S
C1543 C1542 1.362 . S
H1544 C1550 0.930 . S
H1545 C1553 0.930 . S
H1546 C1554 0.930 . S
H1547 C1555 0.930 . S
H1548 C1558 0.930 . S
H1549 C1559 0.930 . S
C1550 H1544 0.930 . S
C1550 C1551 1.355 . S
C1550 C1552 1.415 . S
C1551 C1550 1.355 . S
C1551 C1553 1.419 . S
C1552 C1550 1.415 . S
C1552 C1557 1.425 . S
C1552 C1559 1.409 . S
C1553 H1545 0.930 . S
C1553 C1551 1.419 . S
C1553 C1554 1.362 . S
C1554 H1546 0.930 . S
C1554 C1553 1.362 . S
C1554 C1557 1.409 . S
C1555 H1547 0.930 . S
C1555 C1556 1.355 . S
C1555 C1557 1.415 . S
C1556 C1555 1.355 . S
C1556 C1558 1.419 . S
C1557 C1552 1.425 . S
C1557 C1554 1.409 . S
C1557 C1555 1.415 . S
C1558 H1548 0.930 . S
C1558 C1556 1.419 . S
C1558 C1559 1.362 . S
C1559 H1549 0.930 . S
C1559 C1552 1.409 . S
C1559 C1558 1.362 . S
H1560 C1566 0.930 . S
H1561 C1569 0.930 . S
H1562 C1570 0.930 . S
H1563 C1571 0.930 . S
H1564 C1574 0.930 . S
H1565 C1575 0.930 . S
C1566 H1560 0.930 . S
C1566 C1567 1.355 . S
C1566 C1568 1.415 . S
C1567 C1566 1.355 . S
C1567 C1569 1.419 . S
C1568 C1566 1.415 . S
C1568 C1573 1.425 1_455 S
C1568 C1575 1.409 . S
C1569 H1561 0.930 . S
C1569 C1567 1.419 . S
C1569 C1570 1.362 1_455 S
C1570 H1562 0.930 . S
C1570 C1569 1.362 1_655 S
C1570 C1573 1.409 . S
C1571 H1563 0.930 . S
C1571 C1572 1.355 . S
C1571 C1573 1.415 . S
C1572 C1571 1.355 . S
C1572 C1574 1.419 . S
C1573 C1568 1.425 1_655 S
C1573 C1570 1.409 . S
C1573 C1571 1.415 . S
C1574 H1564 0.930 . S
C1574 C1572 1.419 . S
C1574 C1575 1.362 1_655 S
C1575 H1565 0.930 . S
C1575 C1568 1.409 . S
C1575 C1574 1.362 1_455 S
H1576 C1582 0.930 . S
H1577 C1585 0.930 . S
H1578 C1586 0.930 . S
H1579 C1587 0.930 . S
H1580 C1590 0.930 . S
H1581 C1591 0.930 . S
C1582 H1576 0.930 . S
C1582 C1583 1.355 . S
C1582 C1584 1.415 . S
C1583 C1582 1.355 . S
C1583 C1585 1.419 . S
C1584 C1582 1.415 . S
C1584 C1589 1.425 . S
C1584 C1591 1.409 . S
C1585 H1577 0.930 . S
C1585 C1583 1.419 . S
C1585 C1586 1.362 . S
C1586 H1578 0.930 . S
C1586 C1585 1.362 . S
C1586 C1589 1.409 . S
C1587 H1579 0.930 . S
C1587 C1588 1.355 . S
C1587 C1589 1.415 . S
C1588 C1587 1.355 . S
C1588 C1590 1.419 . S
C1589 C1584 1.425 . S
C1589 C1586 1.409 . S
C1589 C1587 1.415 . S
C1590 H1580 0.930 . S
C1590 C1588 1.419 . S
C1590 C1591 1.362 . S
C1591 H1581 0.930 . S
C1591 C1584 1.409 . S
C1591 C1590 1.362 . S
H1592 C1598 0.930 . S
H1593 C1601 0.930 . S
H1594 C1602 0.930 1_565 S
H1595 C1603 0.930 . S
H1596 C1606 0.930 . S
H1597 C1607 0.930 1_545 S
C1598 H1592 0.930 . S
C1598 C1599 1.355 . S
C1598 C1600 1.415 . S
C1599 C1598 1.355 . S
C1599 C1601 1.419 . S
C1600 C1598 1.415 . S
C1600 C1605 1.425 1_545 S
C1600 C1607 1.409 1_545 S
C1601 H1593 0.930 . S
C1601 C1599 1.419 . S
C1601 C1602 1.362 . S
C1602 H1594 0.930 1_545 S
C1602 C1601 1.362 . S
C1602 C1605 1.409 1_545 S
C1603 H1595 0.930 . S
C1603 C1604 1.355 . S
C1603 C1605 1.415 . S
C1604 C1603 1.355 . S
C1604 C1606 1.419 . S
C1605 C1600 1.425 1_565 S
C1605 C1602 1.409 1_565 S
C1605 C1603 1.415 . S
C1606 H1596 0.930 . S
C1606 C1604 1.419 . S
C1606 C1607 1.362 . S
C1607 H1597 0.930 1_565 S
C1607 C1600 1.409 1_565 S
C1607 C1606 1.362 . S
H1608 C1614 0.930 . S
H1609 C1617 0.930 . S
H1610 C1618 0.930 . S
H1611 C1619 0.930 . S
H1612 C1622 0.930 . S
H1613 C1623 0.930 . S
C1614 H1608 0.930 . S
C1614 C1615 1.355 . S
C1614 C1616 1.415 . S
C1615 C1614 1.355 . S
C1615 C1617 1.419 . S
C1616 C1614 1.415 . S
C1616 C1621 1.425 1_565 S
C1616 C1623 1.409 1_565 S
C1617 H1609 0.930 . S
C1617 C1615 1.419 . S
C1617 C1618 1.362 . S
C1618 H1610 0.930 . S
C1618 C1617 1.362 . S
C1618 C1621 1.409 1_565 S
C1619 H1611 0.930 . S
C1619 C1620 1.355 . S
C1619 C1621 1.415 . S
C1620 C1619 1.355 . S
C1620 C1622 1.419 . S
C1621 C1616 1.425 1_545 S
C1621 C1618 1.409 1_545 S
C1621 C1619 1.415 . S
C1622 H1612 0.930 . S
C1622 C1620 1.419 . S
C1622 C1623 1.362 . S
C1623 H1613 0.930 . S
C1623 C1616 1.409 1_545 S
C1623 C1622 1.362 . S
H1624 C1630 0.930 . S
H1625 C1633 0.930 . S
H1626 C1634 0.930 1_455 S
H1627 C1635 0.930 . S
H1628 C1638 0.930 . S
H1629 C1639 0.930 1_655 S
C1630 H1624 0.930 . S
C1630 C1631 1.355 . S
C1630 C1632 1.415 . S
C1631 C1630 1.355 . S
C1631 C1633 1.419 . S
C1632 C1630 1.415 . S
C1632 C1637 1.425 1_655 S
C1632 C1639 1.409 1_655 S
C1633 H1625 0.930 . S
C1633 C1631 1.419 . S
C1633 C1634 1.362 . S
C1634 H1626 0.930 1_655 S
C1634 C1633 1.362 . S
C1634 C1637 1.409 1_655 S
C1635 H1627 0.930 . S
C1635 C1636 1.355 . S
C1635 C1637 1.415 . S
C1636 C1635 1.355 . S
C1636 C1638 1.419 . S
C1637 C1632 1.425 1_455 S
C1637 C1634 1.409 1_455 S
C1637 C1635 1.415 . S
C1638 H1628 0.930 . S
C1638 C1636 1.419 . S
C1638 C1639 1.362 . S
C1639 H1629 0.930 1_455 S
C1639 C1632 1.409 1_455 S
C1639 C1638 1.362 . S
H1640 C1646 0.930 . S
H1641 C1649 0.930 . S
H1642 C1650 0.930 . S
H1643 C1651 0.930 . S
H1644 C1654 0.930 . S
H1645 C1655 0.930 . S
C1646 H1640 0.930 . S
C1646 C1647 1.355 . S
C1646 C1648 1.415 . S
C1647 C1646 1.355 . S
C1647 C1649 1.419 . S
C1648 C1646 1.415 . S
C1648 C1653 1.425 . S
C1648 C1655 1.409 . S
C1649 H1641 0.930 . S
C1649 C1647 1.419 . S
C1649 C1650 1.362 . S
C1650 H1642 0.930 . S
C1650 C1649 1.362 . S
C1650 C1653 1.409 . S
C1651 H1643 0.930 . S
C1651 C1652 1.355 . S
C1651 C1653 1.415 . S
C1652 C1651 1.355 . S
C1652 C1654 1.419 . S
C1653 C1648 1.425 . S
C1653 C1650 1.409 . S
C1653 C1651 1.415 . S
C1654 H1644 0.930 . S
C1654 C1652 1.419 . S
C1654 C1655 1.362 . S
C1655 H1645 0.930 . S
C1655 C1648 1.409 . S
C1655 C1654 1.362 . S
C511 C68 1.267 . S
C516 C13 1.235 . S
C527 C83 1.235 . S
C532 C26 1.285 . S
C543 C42 1.232 . S
C548 C29 1.281 . S
C559 C153 1.285 . S
C564 C84 1.260 . S
C575 C110 1.258 . S
C580 C166 1.286 . S
C591 C139 1.236 . S
C596 C124 1.287 . S
C607 C169 1.309 . S
C612 C236 1.260 . S
C623 C251 1.267 . S
C628 C195 1.307 1_565 S
C639 C208 1.298 1_455 S
C644 C210 1.274 . S
C655 C264 1.262 . S
C660 C309 1.310 1_565 S
C671 C322 1.308 1_455 S
C676 C266 1.266 . S
C687 C280 1.277 . S
C692 C306 1.298 . S
C703 C404 1.262 1_545 S
C708 C349 1.310 . S
C719 C363 1.309 . S
C724 C407 1.267 1_655 S
C735 C390 1.281 . S
C740 C365 1.289 . S
C751 C489 1.290 . S
C756 C432 1.281 . S
C767 C446 1.270 1_545 S
C772 C502 1.303 . S
C783 C448 1.274 1_655 S
C788 C475 1.301 . S
C799 C167 1.690 . S
C804 C12 1.677 1_554 S
C815 C27 1.672 . S
C820 C138 1.699 . S
C831 C152 1.672 . S
C836 C28 1.698 . S
C847 C111 1.695 . S
C852 C43 1.674 . S
C863 C69 1.698 . S
C868 C125 1.670 . S
C879 C85 1.673 . S
C884 C82 1.695 . S
C895 C168 1.734 . S
C900 C323 1.755 . S
C911 C307 1.735 . S
C916 C194 1.754 . S
C927 C308 1.758 . S
C932 C209 1.734 . S
C943 C211 1.732 . S
C948 C267 1.716 . S
C959 C237 1.736 . S
C964 C281 1.711 . S
C975 C250 1.738 . S
C980 C265 1.709 . S
C991 C503 1.717 . S
C996 C348 1.730 . S
C1007 C362 1.710 . S
C1012 C474 1.738 . S
C1023 C364 1.737 . S
C1028 C488 1.712 . S
C1039 C447 1.729 . S
C1044 C391 1.761 . S
C1055 C449 1.730 . S
C1060 C405 1.761 . S
C1071 C433 1.739 . S
C1076 C406 1.751 . S
C1087 C223 1.659 . S
C1092 C0 1.677 . S
C1103 C225 1.661 . S
C1108 C15 1.685 . S
C1119 C40 1.676 . S
C1124 C238 1.684 . S
C1135 C55 1.668 . S
C1140 C336 1.682 . S
C1151 C57 1.683 . S
C1156 C350 1.656 . S
C1167 C70 1.681 . S
C1172 C376 1.681 . S
C1183 C97 1.686 . S
C1188 C462 1.655 . S
C1199 C99 1.669 . S
C1204 C476 1.677 . S
C1215 C113 1.670 . S
C1220 C491 1.671 . S
C1231 C126 1.688 . S
C1236 C253 1.670 . S
C1247 C279 1.688 . S
C1252 C140 1.669 . S
C1263 C293 1.683 . S
C1268 C155 1.679 . S
C1279 C379 1.952 . S
C1284 C180 1.940 . S
C1295 C182 1.944 . S
C1300 C393 1.934 . S
C1311 C418 1.947 . S
C1316 C197 1.948 . S
C1327 C295 1.939 . S
C1332 C421 1.939 . S
C1343 C435 1.953 . S
C1348 C320 1.934 . S
C1359 C461 1.935 . S
C1364 C335 1.953 . S
C1375 C1 1.892 . S
C1380 C419 1.895 . S
C1391 C14 1.841 . S
C1396 C378 1.867 . S
C1407 C41 1.891 . S
C1412 C392 1.877 . S
C1423 C54 1.876 . S
C1428 C183 1.901 . S
C1439 C196 1.893 . S
C1444 C56 1.862 . S
C1455 C181 1.897 . S
C1460 C71 1.873 . S
C1471 C334 1.897 . S
C1476 C96 1.871 . S
C1487 C294 1.858 . S
C1492 C98 1.841 . S
C1503 C321 1.896 . S
C1508 C112 1.893 . S
C1519 C434 1.898 . S
C1524 C127 1.886 . S
C1535 C460 1.847 . S
C1540 C141 1.864 . S
C1551 C420 1.849 . S
C1556 C154 1.869 . S
C1567 C222 1.600 . S
C1572 C351 1.615 . S
C1583 C377 1.626 . S
C1588 C224 1.658 . S
C1599 C337 1.617 . S
C1604 C239 1.649 . S
C1615 C252 1.657 . S
C1620 C490 1.628 . S
C1631 C463 1.603 . S
C1636 C278 1.626 . S
C1647 C292 1.618 . S
C1652 C477 1.601 . S
