# Generated by pormake.
# Topology sof, (5)-cn, num edge types: 1
# Building blocks:
#     Node 0, Type 0, BuildingBlock: XOMCOT_clean_sbu_1, # of connection points: 5
#     Node 1, Type 0, BuildingBlock: XOMCOT_clean_sbu_1, # of connection points: 5
#     Node 2, Type 0, BuildingBlock: XOMCOT_clean_sbu_1, # of connection points: 5
#     Node 3, Type 0, BuildingBlock: XOMCOT_clean_sbu_1, # of connection points: 5
#     Node 4, Type 0, BuildingBlock: XOMCOT_clean_sbu_1, # of connection points: 5
#     Node 5, Type 0, BuildingBlock: XOMCOT_clean_sbu_1, # of connection points: 5
#     Node 6, Type 0, BuildingBlock: XOMCOT_clean_sbu_1, # of connection points: 5
#     Node 7, Type 0, BuildingBlock: XOMCOT_clean_sbu_1, # of connection points: 5
#     Edge 8, Type (0, 0), BuildingBlock: ZUJKAS_clean_linker_0, # of connection points: 2
#     Edge 9, Type (0, 0), BuildingBlock: ZUJKAS_clean_linker_0, # of connection points: 2
#     Edge 10, Type (0, 0), BuildingBlock: ZUJKAS_clean_linker_0, # of connection points: 2
#     Edge 11, Type (0, 0), BuildingBlock: ZUJKAS_clean_linker_0, # of connection points: 2
#     Edge 12, Type (0, 0), BuildingBlock: ZUJKAS_clean_linker_0, # of connection points: 2
#     Edge 13, Type (0, 0), BuildingBlock: ZUJKAS_clean_linker_0, # of connection points: 2
#     Edge 14, Type (0, 0), BuildingBlock: ZUJKAS_clean_linker_0, # of connection points: 2
#     Edge 15, Type (0, 0), BuildingBlock: ZUJKAS_clean_linker_0, # of connection points: 2
#     Edge 16, Type (0, 0), BuildingBlock: ZUJKAS_clean_linker_0, # of connection points: 2
#     Edge 17, Type (0, 0), BuildingBlock: ZUJKAS_clean_linker_0, # of connection points: 2
#     Edge 18, Type (0, 0), BuildingBlock: ZUJKAS_clean_linker_0, # of connection points: 2
#     Edge 19, Type (0, 0), BuildingBlock: ZUJKAS_clean_linker_0, # of connection points: 2
#     Edge 20, Type (0, 0), BuildingBlock: ZUJKAS_clean_linker_0, # of connection points: 2
#     Edge 21, Type (0, 0), BuildingBlock: ZUJKAS_clean_linker_0, # of connection points: 2
#     Edge 22, Type (0, 0), BuildingBlock: ZUJKAS_clean_linker_0, # of connection points: 2
#     Edge 23, Type (0, 0), BuildingBlock: ZUJKAS_clean_linker_0, # of connection points: 2
#     Edge 24, Type (0, 0), BuildingBlock: ZUJKAS_clean_linker_0, # of connection points: 2
#     Edge 25, Type (0, 0), BuildingBlock: ZUJKAS_clean_linker_0, # of connection points: 2
#     Edge 26, Type (0, 0), BuildingBlock: ZUJKAS_clean_linker_0, # of connection points: 2
#     Edge 27, Type (0, 0), BuildingBlock: ZUJKAS_clean_linker_0, # of connection points: 2
# Relax obj value: 0.147
# Max RMSD: 0.157
# Mean RMSD: 0.157
data_MOF--net-sof--node1-XOMCOT_clean_sbu_1--edge1-ZUJKAS_clean_linker_0
_symmetry_space_group_name_H-M    P1
_symmetry_Int_Tables_number       1
_symmetry_cell_setting            triclinic
loop_
_symmetry_equiv_pos_as_xyz
'x, y, z'
_cell_length_a     72.065021
_cell_length_b     21.982642
_cell_length_c     62.963439
_cell_angle_alpha  90.008104
_cell_angle_beta   90.019726
_cell_angle_gamma 89.977985
loop_
_atom_site_label
_atom_site_type_symbol
_atom_site_fract_x
_atom_site_fract_y
_atom_site_fract_z
_atom_type_partial_charge
C0 C 0.11167 0.13866 0.09839 0.0
C1 C 0.11384 0.20058 0.09651 0.0
N2 N 0.10077 0.22797 0.10846 0.0
N3 N 0.09741 0.12705 0.11162 0.0
C4 C 0.09093 0.1823 0.11736 0.0
H5 H 0.11998 0.1042 0.09065 0.0
Co6 Co 0.08925 0.05019 0.11953 0.0
C7 C 0.07963 0.06197 0.1649 0.0
O8 O 0.08783 0.00931 0.16806 0.0
N9 N 0.08044 0.97197 0.12696 0.0
C10 C 0.06016 0.90055 0.13652 0.0
C11 C 0.06315 0.96191 0.13447 0.0
C12 C 0.08747 0.91542 0.12402 0.0
N13 N 0.07548 0.87116 0.12987 0.0
O14 O 0.06656 0.06347 0.1044 0.0
H15 H 0.05313 0.9972 0.13794 0.0
H16 H 0.1007 0.90613 0.1168 0.0
O17 O 0.07881 0.08406 0.14609 0.0
C18 C 0.06938 0.04785 0.08515 0.0
O19 O 0.08608 0.02917 0.07986 0.0
N20 N 0.11264 0.03647 0.13212 0.0
C21 C 0.1503 0.02395 0.14192 0.0
C22 C 0.13892 0.06291 0.15382 0.0
C23 C 0.12022 0.06979 0.1483 0.0
C24 C 0.12373 1.00031 0.11998 0.0
C25 C 0.1424 0.99211 0.12489 0.0
H26 H 0.11231 0.10471 0.15623 0.0
H27 H 0.11833 0.98064 0.10552 0.0
H28 H 0.07938 0.18895 0.12808 0.0
H29 H 0.12409 0.22359 0.08685 0.0
H30 H 0.04758 0.87945 0.1423 0.0
H31 H 0.14465 0.09059 0.16645 0.0
H32 H 0.15073 0.96268 0.11491 0.0
C33 C 0.38617 0.85859 0.0953 0.0
C34 C 0.38403 0.79669 0.09327 0.0
N35 N 0.39693 0.76911 0.10542 0.0
N36 N 0.40025 0.87002 0.10881 0.0
C37 C 0.40666 0.81467 0.11457 0.0
H38 H 0.37795 0.89317 0.0875 0.0
Co39 Co 0.40824 0.94679 0.11708 0.0
C40 C 0.41748 0.93353 0.16254 0.0
O41 O 0.40913 0.98585 0.16589 0.0
N42 N 0.41689 0.02499 0.12489 0.0
C43 C 0.43695 0.09652 0.13499 0.0
C44 C 0.43402 0.03514 0.13288 0.0
C45 C 0.40992 0.08153 0.12173 0.0
N46 N 0.42176 0.12585 0.12791 0.0
O47 O 0.43109 0.93435 0.10216 0.0
H48 H 0.44399 0.9999 0.13658 0.0
H49 H 0.39687 0.09079 0.11406 0.0
O50 O 0.41851 0.91229 0.14363 0.0
C51 C 0.42837 0.95128 0.08303 0.0
O52 O 0.41168 0.97011 0.07776 0.0
N53 N 0.38474 0.95988 0.12944 0.0
C54 C 0.34717 0.9744 0.13935 0.0
C55 C 0.35834 0.93419 0.15103 0.0
C56 C 0.377 0.92639 0.14547 0.0
C57 C 0.37381 0.99666 0.11735 0.0
C58 C 0.35521 0.006 0.12235 0.0
H59 H 0.38478 0.89102 0.15332 0.0
H60 H 0.37929 0.01637 0.10296 0.0
H61 H 0.41805 0.80787 0.12551 0.0
H62 H 0.3739 0.77381 0.08341 0.0
H63 H 0.44941 0.11767 0.14109 0.0
H64 H 0.3525 0.90663 0.16362 0.0
H65 H 0.3471 0.03653 0.11255 0.0
C66 C 0.10973 0.37002 0.41539 0.0
C67 C 0.11142 0.30811 0.41785 0.0
N68 N 0.09881 0.28071 0.40522 0.0
N69 N 0.0962 0.38169 0.40121 0.0
C70 C 0.0897 0.32655 0.39541 0.0
H71 H 0.11799 0.40443 0.42321 0.0
Co72 Co 0.08908 0.45848 0.39214 0.0
C73 C 0.08045 0.4435 0.34668 0.0
O74 O 0.08948 0.49455 0.34333 0.0
N75 N 0.08128 0.53694 0.38355 0.0
C76 C 0.06198 0.60978 0.37255 0.0
C77 C 0.06436 0.54826 0.37512 0.0
C78 C 0.08864 0.59297 0.38659 0.0
N79 N 0.07727 0.63787 0.37985 0.0
O80 O 0.066 0.4496 0.40687 0.0
H81 H 0.05409 0.51382 0.3716 0.0
H82 H 0.1018 0.60163 0.39408 0.0
O83 O 0.07872 0.42333 0.36569 0.0
C84 C 0.0686 0.46864 0.42578 0.0
O85 O 0.0853 0.48761 0.43096 0.0
N86 N 0.11284 0.46773 0.37992 0.0
C87 C 0.15065 0.47466 0.36998 0.0
C88 C 0.13895 0.43396 0.35922 0.0
C89 C 0.12019 0.43023 0.36474 0.0
C90 C 0.12424 0.50497 0.39124 0.0
C91 C 0.14297 0.51075 0.38611 0.0
H92 H 0.11197 0.39457 0.35767 0.0
H93 H 0.11906 0.52763 0.40524 0.0
H94 H 0.07842 0.32023 0.3843 0.0
H95 H 0.12147 0.28522 0.42781 0.0
H96 H 0.04964 0.63219 0.36665 0.0
H97 H 0.1444 0.40282 0.34745 0.0
H98 H 0.15142 0.54191 0.39525 0.0
C99 C 0.38677 0.61448 0.41036 0.0
C100 C 0.38464 0.67627 0.41288 0.0
N101 N 0.39732 0.70463 0.40064 0.0
N102 N 0.40061 0.6039 0.39647 0.0
C103 C 0.4069 0.6596 0.39096 0.0
H104 H 0.37866 0.57937 0.41801 0.0
Co105 Co 0.40826 0.52744 0.38747 0.0
C106 C 0.41759 0.54401 0.34228 0.0
O107 O 0.4088 0.49269 0.33859 0.0
N108 N 0.41662 0.44913 0.37902 0.0
C109 C 0.43638 0.3773 0.36831 0.0
C110 C 0.43348 0.43874 0.37034 0.0
C111 C 0.40989 0.3926 0.38285 0.0
N112 N 0.42151 0.3481 0.37624 0.0
O113 O 0.43093 0.53726 0.40297 0.0
H114 H 0.44338 0.47379 0.36625 0.0
H115 H 0.39734 0.38347 0.39151 0.0
O116 O 0.41905 0.56358 0.36139 0.0
C117 C 0.42827 0.51458 0.42137 0.0
O118 O 0.41184 0.49164 0.42559 0.0
N119 N 0.38485 0.51728 0.37436 0.0
C120 C 0.34789 0.50581 0.36168 0.0
C121 C 0.35933 0.55007 0.35251 0.0
C122 C 0.37772 0.55576 0.35933 0.0
C123 C 0.37339 0.47749 0.3845 0.0
C124 C 0.35509 0.46942 0.37794 0.0
H125 H 0.38585 0.59304 0.35319 0.0
H126 H 0.37806 0.45471 0.39869 0.0
H127 H 0.41805 0.66707 0.37977 0.0
H128 H 0.37464 0.69851 0.42308 0.0
H129 H 0.44865 0.35603 0.36178 0.0
H130 H 0.35398 0.58091 0.34056 0.0
H131 H 0.34632 0.43742 0.38634 0.0
C132 C 0.88759 0.87275 0.91398 0.0
C133 C 0.88592 0.81079 0.91632 0.0
N134 N 0.89869 0.78362 0.90385 0.0
N135 N 0.90127 0.88467 0.90003 0.0
C136 C 0.90787 0.82963 0.89425 0.0
H137 H 0.87923 0.90701 0.92175 0.0
Co138 Co 0.90862 0.96151 0.8912 0.0
C139 C 0.91679 0.94723 0.8456 0.0
O140 O 0.90791 0.99867 0.84242 0.0
N141 N 0.91668 0.03987 0.8828 0.0
C142 C 0.93615 0.1121 0.87175 0.0
C143 C 0.93359 0.05064 0.87429 0.0
C144 C 0.9095 0.09615 0.88589 0.0
N145 N 0.92098 0.14069 0.87913 0.0
O146 O 0.93179 0.95107 0.90566 0.0
H147 H 0.94371 0.01583 0.87064 0.0
H148 H 0.89637 0.10528 0.89336 0.0
O149 O 0.91858 0.92666 0.86454 0.0
C150 C 0.92923 0.96818 0.9248 0.0
O151 O 0.91255 0.98661 0.93028 0.0
N152 N 0.8848 0.97238 0.87932 0.0
C153 C 0.84688 0.98229 0.87017 0.0
C154 C 0.85817 0.94122 0.85898 0.0
C155 C 0.87701 0.93607 0.86409 0.0
C156 C 0.8738 0.00982 0.89106 0.0
C157 C 0.85506 0.01721 0.88631 0.0
H158 H 0.88493 0.90029 0.85664 0.0
H159 H 0.87933 0.03148 0.90509 0.0
H160 H 0.91931 0.82351 0.88334 0.0
H161 H 0.87579 0.78772 0.92611 0.0
H162 H 0.94853 0.13409 0.86577 0.0
H163 H 0.85236 0.91092 0.84717 0.0
H164 H 0.84699 0.04877 0.89573 0.0
C165 C 0.61059 0.13193 0.91105 0.0
C166 C 0.61233 0.19382 0.91363 0.0
N167 N 0.59907 0.22145 0.90198 0.0
N168 N 0.59637 0.12052 0.89776 0.0
C169 C 0.58954 0.17579 0.89261 0.0
H170 H 0.61926 0.09736 0.9182 0.0
Co171 Co 0.5886 0.04399 0.88898 0.0
C172 C 0.57901 0.06044 0.8438 0.0
O173 O 0.58768 0.00893 0.84 0.0
N174 N 0.5801 0.9659 0.8807 0.0
C175 C 0.56003 0.89458 0.87036 0.0
C176 C 0.56309 0.95594 0.87232 0.0
C177 C 0.58678 0.90922 0.88437 0.0
N178 N 0.57496 0.86508 0.878 0.0
O179 O 0.56597 0.05424 0.90449 0.0
H180 H 0.55321 0.99124 0.86841 0.0
H181 H 0.59948 0.89968 0.89272 0.0
O182 O 0.57777 0.08001 0.86293 0.0
C183 C 0.56894 0.03617 0.92344 0.0
O184 O 0.58573 0.01748 0.92834 0.0
N185 N 0.61193 0.03319 0.87581 0.0
C186 C 0.64891 0.02099 0.86332 0.0
C187 C 0.63753 0.06508 0.85393 0.0
C188 C 0.61912 0.0711 0.86063 0.0
C189 C 0.62333 0.99348 0.8861 0.0
C190 C 0.64164 0.98503 0.87964 0.0
H191 H 0.61102 0.1083 0.85435 0.0
H192 H 0.61861 0.97113 0.90035 0.0
H193 H 0.57766 0.18234 0.88236 0.0
H194 H 0.6228 0.21658 0.92304 0.0
H195 H 0.54761 0.87353 0.8641 0.0
H196 H 0.64296 0.09563 0.84195 0.0
H197 H 0.65037 0.9532 0.88818 0.0
C198 C 0.8869 0.64099 0.59457 0.0
C199 C 0.88454 0.70281 0.59261 0.0
N200 N 0.89532 0.73064 0.60719 0.0
N201 N 0.89908 0.62975 0.6103 0.0
C202 C 0.90403 0.68512 0.61765 0.0
H203 H 0.88019 0.60631 0.58511 0.0
Co204 Co 0.90662 0.55281 0.61871 0.0
C205 C 0.91661 0.56472 0.66397 0.0
O206 O 0.90822 0.51248 0.66727 0.0
N207 N 0.91475 0.47425 0.62659 0.0
C208 C 0.93465 0.40108 0.63557 0.0
C209 C 0.93229 0.46255 0.63301 0.0
C210 C 0.90683 0.41856 0.62506 0.0
N211 N 0.91861 0.37327 0.63052 0.0
O212 O 0.92943 0.56351 0.60352 0.0
H213 H 0.94291 0.49672 0.63522 0.0
H214 H 0.89286 0.41067 0.6197 0.0
O215 O 0.91738 0.58655 0.64512 0.0
C216 C 0.92681 0.54414 0.58465 0.0
O217 O 0.91026 0.52346 0.57969 0.0
N218 N 0.88314 0.54191 0.63126 0.0
C219 C 0.84537 0.53347 0.64089 0.0
C220 C 0.85713 0.57064 0.653 0.0
C221 C 0.87589 0.57556 0.64756 0.0
C222 C 0.8717 0.50751 0.61892 0.0
C223 C 0.85293 0.50143 0.62371 0.0
H224 H 0.88415 0.60922 0.65567 0.0
H225 H 0.87703 0.4869 0.60457 0.0
H226 H 0.91367 0.69189 0.63059 0.0
H227 H 0.87576 0.72529 0.5811 0.0
H228 H 0.94745 0.37862 0.63997 0.0
H229 H 0.85167 0.59841 0.66576 0.0
H230 H 0.84431 0.47325 0.61362 0.0
C231 C 0.60724 0.38412 0.59654 0.0
C232 C 0.60914 0.32225 0.59409 0.0
N233 N 0.59691 0.29434 0.60704 0.0
N234 N 0.59395 0.39529 0.61105 0.0
C235 C 0.58781 0.33988 0.61705 0.0
H236 H 0.61517 0.41884 0.58845 0.0
Co237 Co 0.58662 0.4719 0.62015 0.0
C238 C 0.57805 0.45632 0.66567 0.0
O239 O 0.58678 0.50783 0.66921 0.0
N240 N 0.57865 0.55022 0.62879 0.0
C241 C 0.55931 0.62284 0.63985 0.0
C242 C 0.56175 0.56131 0.63731 0.0
C243 C 0.58593 0.60635 0.6257 0.0
N244 N 0.57452 0.65114 0.63246 0.0
O245 O 0.56351 0.46199 0.60551 0.0
H246 H 0.55156 0.52673 0.6409 0.0
H247 H 0.59906 0.61509 0.61815 0.0
O248 O 0.57654 0.43637 0.64662 0.0
C249 C 0.56581 0.48471 0.58705 0.0
O250 O 0.58219 0.50751 0.58242 0.0
N251 N 0.6104 0.48232 0.63212 0.0
C252 C 0.64823 0.49297 0.64134 0.0
C253 C 0.63694 0.45307 0.65297 0.0
C254 C 0.61814 0.44718 0.64773 0.0
C255 C 0.62143 0.51885 0.62007 0.0
C256 C 0.64018 0.52621 0.62472 0.0
H257 H 0.61022 0.41196 0.65548 0.0
H258 H 0.61586 0.53993 0.60595 0.0
H259 H 0.57674 0.33312 0.62841 0.0
H260 H 0.61907 0.29978 0.58386 0.0
H261 H 0.54695 0.6451 0.64579 0.0
H262 H 0.64277 0.42431 0.66524 0.0
H263 H 0.64838 0.55652 0.61496 0.0
H264 H 0.178 0.0251 0.11248 0.0
H265 H 0.21136 0.01933 0.1185 0.0
H266 H 0.20223 0.01295 0.18614 0.0
H267 H 0.16854 0.01717 0.18021 0.0
H268 H 0.23333 0.10205 0.14271 0.0
H269 H 0.23667 0.86492 0.17384 0.0
H270 H 0.21679 0.89308 0.1594 0.0
H271 H 0.22064 0.91657 0.18632 0.0
C272 C 0.18302 0.0215 0.12865 0.0
C273 C 0.1706 0.02072 0.14586 0.0
C274 C 0.20211 0.01874 0.13206 0.0
C275 C 0.20923 0.01506 0.15273 0.0
C276 C 0.19696 0.01491 0.17004 0.0
H277 H 0.32952 0.97949 0.17806 0.0
H278 H 0.29611 0.99194 0.18468 0.0
C279 C 0.17777 0.0178 0.16664 0.0
C280 C 0.22959 0.01237 0.15577 0.0
H281 H 0.26501 0.91559 0.16841 0.0
C282 C 0.24026 0.06163 0.14862 0.0
C283 C 0.23855 0.95969 0.1636 0.0
C284 C 0.22767 0.90524 0.17115 0.0
C285 C 0.25968 0.05868 0.14827 0.0
C286 C 0.26862 0.00481 0.155 0.0
C287 C 0.25804 0.95674 0.16324 0.0
C288 C 0.2887 0.99548 0.15142 0.0
C289 C 0.2705 0.11263 0.14015 0.0
C290 C 0.29541 0.9919 0.13057 0.0
C291 C 0.31432 0.98433 0.12675 0.0
C292 C 0.32697 0.98034 0.14372 0.0
C293 C 0.32014 0.98237 0.16466 0.0
C294 C 0.30111 0.98971 0.16847 0.0
H295 H 0.26226 0.15527 0.14113 0.0
H296 H 0.28358 0.11868 0.14924 0.0
H297 H 0.27415 0.10493 0.12324 0.0
H298 H 0.28598 0.99493 0.11721 0.0
H299 H 0.31899 0.98117 0.11044 0.0
H300 H 0.32877 0.4041 0.35034 0.0
H301 H 0.29522 0.3944 0.34499 0.0
H302 H 0.2887 0.58668 0.35681 0.0
H303 H 0.32227 0.59674 0.36118 0.0
H304 H 0.27002 0.41014 0.37309 0.0
H305 H 0.25441 0.56985 0.30793 0.0
H306 H 0.27783 0.54716 0.31428 0.0
H307 H 0.26676 0.60803 0.32871 0.0
C308 C 0.32015 0.44441 0.35128 0.0
C309 C 0.32803 0.5012 0.35602 0.0
C310 C 0.30101 0.4389 0.34825 0.0
C311 C 0.28938 0.48995 0.35018 0.0
C312 C 0.29736 0.54696 0.35454 0.0
H313 H 0.17893 0.48863 0.39871 0.0
H314 H 0.2121 0.49043 0.39193 0.0
C315 C 0.31653 0.55266 0.35717 0.0
C316 C 0.26888 0.48246 0.34998 0.0
H317 H 0.22868 0.54452 0.33107 0.0
C318 C 0.26103 0.43893 0.36361 0.0
C319 C 0.25705 0.51914 0.33738 0.0
C320 C 0.26448 0.56313 0.32109 0.0
C321 C 0.24176 0.4329 0.36568 0.0
C322 C 0.22996 0.47301 0.35442 0.0
C323 C 0.23774 0.51455 0.34002 0.0
C324 C 0.20963 0.47424 0.35814 0.0
C325 C 0.23429 0.3835 0.37997 0.0
C326 C 0.19709 0.46732 0.34124 0.0
C327 C 0.17794 0.46805 0.34498 0.0
C328 C 0.17098 0.47581 0.3657 0.0
C329 C 0.18366 0.48352 0.38249 0.0
C330 C 0.20272 0.48346 0.37871 0.0
H331 H 0.2442 0.34492 0.38124 0.0
H332 H 0.23224 0.40217 0.39618 0.0
H333 H 0.2208 0.36578 0.37411 0.0
H334 H 0.20212 0.46078 0.32519 0.0
H335 H 0.16861 0.46283 0.33162 0.0
H336 H 0.82805 0.9706 0.83226 0.0
H337 H 0.79448 0.97258 0.8266 0.0
H338 H 0.78604 0.00558 0.89344 0.0
H339 H 0.81922 0.999 0.8995 0.0
H340 H 0.76305 0.92272 0.88011 0.0
H341 H 0.76064 0.11683 0.82384 0.0
H342 H 0.77474 0.05464 0.81487 0.0
H343 H 0.78139 0.09656 0.8382 0.0
C344 C 0.81905 0.97782 0.84579 0.0
C345 C 0.82648 0.98535 0.86632 0.0
C346 C 0.79984 0.97987 0.84246 0.0
C347 C 0.78771 0.99055 0.85952 0.0
C348 C 0.7951 0.99781 0.87998 0.0
H349 H 0.67453 0.11184 0.86355 0.0
H350 H 0.70824 0.10143 0.86017 0.0
C351 C 0.81419 0.99482 0.88337 0.0
C352 C 0.76727 0.99222 0.85651 0.0
H353 H 0.73225 0.06629 0.83062 0.0
C354 C 0.75632 0.95407 0.86925 0.0
C355 C 0.75849 0.03352 0.84247 0.0
C356 C 0.76939 0.07814 0.82921 0.0
C357 C 0.73689 0.95698 0.86878 0.0
C358 C 0.72808 0.99744 0.85446 0.0
C359 C 0.73901 0.03483 0.84141 0.0
C360 C 0.70759 0.00453 0.85394 0.0
C361 C 0.72611 0.91867 0.88441 0.0
C362 C 0.69596 0.95405 0.85078 0.0
C363 C 0.67675 0.95977 0.85312 0.0
C364 C 0.66883 0.01644 0.85798 0.0
C365 C 0.68034 0.06774 0.85968 0.0
C366 C 0.69957 0.06177 0.85777 0.0
H367 H 0.7349 0.90367 0.89793 0.0
H368 H 0.71404 0.94404 0.89087 0.0
H369 H 0.72091 0.87729 0.87626 0.0
H370 H 0.70177 0.90983 0.84716 0.0
H371 H 0.6681 0.91973 0.85155 0.0
H372 H 0.676 0.49794 0.61193 0.0
H373 H 0.70923 0.50843 0.61813 0.0
H374 H 0.7 0.5055 0.68576 0.0
H375 H 0.66643 0.49602 0.67971 0.0
H376 H 0.7265 0.60661 0.64293 0.0
H377 H 0.74133 0.37383 0.67378 0.0
H378 H 0.72085 0.3903 0.65826 0.0
H379 H 0.72235 0.41588 0.68524 0.0
C380 C 0.68095 0.50008 0.62815 0.0
C381 C 0.66852 0.49688 0.64534 0.0
C382 C 0.69997 0.50566 0.63165 0.0
C383 C 0.70703 0.50758 0.65237 0.0
C384 C 0.69479 0.50349 0.66964 0.0
H385 H 0.82723 0.52492 0.67914 0.0
H386 H 0.79352 0.52328 0.68519 0.0
C387 C 0.67566 0.49802 0.66615 0.0
C388 C 0.72722 0.51559 0.65552 0.0
H389 H 0.76685 0.43846 0.66811 0.0
C390 C 0.73533 0.57019 0.64872 0.0
C391 C 0.73861 0.46812 0.66322 0.0
C392 C 0.73047 0.40847 0.6705 0.0
C393 C 0.75463 0.57779 0.64864 0.0
C394 C 0.7661 0.52907 0.65517 0.0
C395 C 0.75798 0.4756 0.66305 0.0
C396 C 0.78643 0.53071 0.65191 0.0
C397 C 0.76261 0.63748 0.64113 0.0
C398 C 0.79351 0.53468 0.63122 0.0
C399 C 0.81261 0.5356 0.62773 0.0
C400 C 0.82507 0.53217 0.64488 0.0
C401 C 0.81796 0.52802 0.66564 0.0
C402 C 0.79876 0.52684 0.66911 0.0
H403 H 0.75246 0.67519 0.64293 0.0
H404 H 0.77543 0.64921 0.65002 0.0
H405 H 0.76617 0.63375 0.62403 0.0
H406 H 0.78422 0.53681 0.6177 0.0
H407 H 0.81761 0.5397 0.61158 0.0
H408 H 0.07367 0.0361 0.0426 0.0
H409 H 0.04976 0.02442 0.01562 0.0
H410 H 0.0074 0.0429 0.06356 0.0
H411 H 0.03149 0.05549 0.0909 0.0
H412 H 0.02363 0.93304 0.01378 0.0
H413 H 0.9899 0.16011 0.01709 0.0
H414 H 0.01229 0.14534 0.02888 0.0
H415 H 0.99147 0.12132 0.04214 0.0
C416 C 0.05927 0.03833 0.04747 0.0
C417 C 0.05448 0.04666 0.06894 0.0
C418 C 0.04561 0.03154 0.03198 0.0
C419 C 0.0268 0.03303 0.03751 0.0
C420 C 0.02185 0.04255 0.05887 0.0
H421 H 0.92542 0.98199 0.96732 0.0
H422 H 0.94961 0.99475 0.99389 0.0
C423 C 0.0356 0.04964 0.07449 0.0
C424 C 0.01257 0.02178 0.02088 0.0
H425 H 0.97568 0.08585 0.99525 0.0
C426 C 0.01316 0.9665 0.00967 0.0
C427 C -0.00101 0.06556 0.0155 0.0
C428 C -0.00185 0.12667 0.02637 0.0
C429 C 0.00033 0.95333 0.9935 0.0
C430 C 0.98672 0.99706 0.98816 0.0
C431 C 0.98616 0.05241 0.99933 0.0
C432 C 0.97234 0.98551 0.97172 0.0
C433 C 0.00116 0.89217 0.98267 0.0
C434 C 0.97706 0.97531 0.95032 0.0
C435 C 0.96315 0.96755 0.93494 0.0
C436 C 0.94434 0.97056 0.94075 0.0
C437 C 0.93977 0.97973 0.96224 0.0
C438 C 0.95359 0.98714 0.97751 0.0
H439 H 0.00948 0.85882 0.99191 0.0
H440 H 0.98701 0.87337 0.98028 0.0
H441 H 0.00774 0.89748 0.96685 0.0
H442 H 0.99146 0.97484 0.94544 0.0
H443 H 0.96708 0.96104 0.9185 0.0
H444 H 0.46621 0.94027 0.08889 0.0
H445 H 0.49054 0.95517 0.06191 0.0
H446 H 0.44854 0.9835 0.01415 0.0
H447 H 0.42441 0.96924 0.04069 0.0
H448 H 0.49685 0.89342 0.02211 0.0
H449 H 0.48066 0.13783 0.01012 0.0
H450 H 0.47252 0.09552 0.03286 0.0
H451 H 0.46095 0.08836 0.00768 0.0
C452 C 0.46222 0.94921 0.0726 0.0
C453 C 0.44339 0.95418 0.06699 0.0
C454 C 0.47609 0.95788 0.05724 0.0
C455 C 0.47131 0.97185 0.03613 0.0
C456 C 0.45254 0.97432 0.03042 0.0
H457 H 0.53106 0.04796 0.91823 0.0
H458 H 0.50702 0.03231 0.94547 0.0
C459 C 0.43876 0.96582 0.04566 0.0
C460 C 0.48575 0.98404 0.01988 0.0
H461 H 0.50106 0.09229 0.98506 0.0
C462 C 0.49789 0.937 0.01412 0.0
C463 C 0.48695 0.04084 0.00935 0.0
C464 C 0.4747 0.09376 0.01541 0.0
C465 C 0.51098 0.94486 0.99781 0.0
C466 C 0.51217 1.00166 0.98727 0.0
C467 C 0.50004 0.04872 0.99306 0.0
C468 C 0.52649 0.01376 0.97086 0.0
C469 C 0.52317 0.89182 0.9917 0.0
C470 C 0.54532 0.0104 0.97626 0.0
C471 C 0.55895 0.01926 0.96086 0.0
C472 C 0.5541 0.03224 0.93968 0.0
C473 C 0.53522 0.03797 0.93439 0.0
C474 C 0.52151 0.02888 0.94991 0.0
H475 H 0.51713 0.84779 0.99692 0.0
H476 H 0.52537 0.89021 0.97426 0.0
H477 H 0.5369 0.8969 0.99949 0.0
H478 H 0.54949 1.00041 0.99241 0.0
H479 H 0.57335 0.01523 0.96559 0.0
H480 H 0.03091 0.45219 0.42018 0.0
H481 H 0.00644 0.46644 0.44702 0.0
H482 H 0.04802 0.50771 0.4941 0.0
H483 H 0.07228 0.49426 0.4677 0.0
H484 H 0.00122 0.40766 0.48711 0.0
H485 H 0.01329 0.65521 0.4972 0.0
H486 H 0.02227 0.61288 0.47487 0.0
H487 H 0.03383 0.60975 0.50016 0.0
C488 C 0.03479 0.46406 0.43627 0.0
C489 C 0.05353 0.47266 0.44173 0.0
C490 C 0.02082 0.47232 0.45156 0.0
C491 C 0.02542 0.48951 0.47243 0.0
C492 C 0.04412 0.49603 0.47799 0.0
H493 H 0.96449 0.56154 0.58999 0.0
H494 H 0.98883 0.5483 0.56292 0.0
C495 C 0.058 0.48796 0.46283 0.0
C496 C 0.01084 0.5002 0.48866 0.0
H497 H 0.99385 0.60758 0.52281 0.0
C498 C -0.0005 0.45146 0.4948 0.0
C499 C 0.00873 0.5573 0.49881 0.0
C500 C 0.02005 0.61197 0.49232 0.0
C501 C 0.98633 0.45795 0.5111 0.0
C502 C 0.98424 0.51504 0.52126 0.0
C503 C 0.99557 0.5638 0.51511 0.0
C504 C 0.96973 0.5256 0.53758 0.0
C505 C 0.97502 0.40327 0.51759 0.0
C506 C 0.951 0.51903 0.53214 0.0
C507 C 0.9372 0.52652 0.54743 0.0
C508 C 0.94178 0.54127 0.56855 0.0
C509 C 0.96054 0.5501 0.57388 0.0
C510 C 0.97442 0.54241 0.55846 0.0
H511 H 0.98174 0.36004 0.51263 0.0
H512 H 0.97288 0.40223 0.53505 0.0
H513 H 0.96121 0.40562 0.50983 0.0
H514 H 0.94703 0.50764 0.51602 0.0
H515 H 0.9229 0.5201 0.54266 0.0
H516 H 0.46395 0.56049 0.42 0.0
H517 H 0.48759 0.55461 0.4482 0.0
H518 H 0.44901 0.45796 0.48817 0.0
H519 H 0.42563 0.46314 0.46042 0.0
H520 H 0.48485 0.59862 0.49122 0.0
H521 H 0.49532 0.34862 0.48875 0.0
H522 H 0.48435 0.3901 0.4674 0.0
H523 H 0.47147 0.37146 0.49097 0.0
C524 C 0.46059 0.53781 0.43477 0.0
C525 C 0.44293 0.5121 0.43789 0.0
C526 C 0.47406 0.5345 0.45085 0.0
C527 C 0.47013 0.50491 0.47014 0.0
C528 C 0.45249 0.47985 0.47328 0.0
H529 H 0.53016 0.43856 0.58911 0.0
H530 H 0.5061 0.44453 0.56137 0.0
C531 C 0.43908 0.48325 0.45736 0.0
C532 C 0.48412 0.50137 0.4874 0.0
H533 H 0.50824 0.4009 0.51833 0.0
C534 C 0.49008 0.55546 0.49705 0.0
C535 C 0.49075 0.44492 0.49514 0.0
C536 C 0.48529 0.38545 0.48493 0.0
C537 C 0.50231 0.55458 0.51443 0.0
C538 C 0.50898 0.49814 0.52214 0.0
C539 C 0.50298 0.44405 0.51252 0.0
C540 C 0.52318 0.49468 0.53917 0.0
C541 C 0.50777 0.61407 0.52463 0.0
C542 C 0.54075 0.51997 0.53574 0.0
C543 C 0.55439 0.51652 0.55138 0.0
C544 C 0.55086 0.48738 0.57088 0.0
C545 C 0.53328 0.46148 0.57431 0.0
C546 C 0.51956 0.46484 0.5585 0.0
H547 H 0.49762 0.65069 0.521 0.0
H548 H 0.50892 0.6093 0.54214 0.0
H549 H 0.52148 0.62844 0.51839 0.0
H550 H 0.54399 0.54204 0.52081 0.0
H551 H 0.56777 0.5368 0.54807 0.0
H552 H 0.09706 0.44293 0.30817 0.0
H553 H 0.09042 0.37842 0.27784 0.0
H554 H 0.0456 0.29373 0.31236 0.0
H555 H 0.05314 0.35624 0.34361 0.0
H556 H 0.06234 0.21117 0.29256 0.0
H557 H 0.05284 0.3916 0.2334 0.0
H558 H 0.07524 0.40173 0.24508 0.0
H559 H 0.05467 0.40853 0.26133 0.0
C560 C 0.08562 0.41111 0.30928 0.0
C561 C 0.07544 0.40527 0.32819 0.0
C562 C 0.0817 0.37452 0.29176 0.0
C563 C 0.06702 0.33254 0.29234 0.0
C564 C 0.05683 0.32629 0.31132 0.0
H565 H 0.05342 0.1527 0.16775 0.0
H566 H 0.04604 0.21494 0.19908 0.0
C567 C 0.06111 0.36202 0.32917 0.0
C568 C 0.06341 0.29271 0.27356 0.0
H569 H 0.06353 0.29393 0.21931 0.0
C570 C 0.06221 0.22952 0.27657 0.0
C571 C 0.0625 0.31601 0.25257 0.0
C572 C 0.06114 0.38325 0.24799 0.0
C573 C 0.06154 0.18917 0.25926 0.0
C574 C 0.06311 0.21228 0.23829 0.0
C575 C 0.06287 0.2756 0.23528 0.0
C576 C 0.06642 0.17202 0.21955 0.0
C577 C 0.05914 0.12223 0.2638 0.0
C578 C 0.0804 0.12756 0.22036 0.0
C579 C 0.0842 0.09109 0.20276 0.0
C580 C 0.07461 0.09953 0.18356 0.0
C581 C 0.06093 0.14496 0.18241 0.0
C582 C 0.05675 0.18053 0.20031 0.0
H583 H 0.05047 0.11522 0.27819 0.0
H584 H 0.05256 0.09796 0.2503 0.0
H585 H 0.07291 0.10158 0.26705 0.0
H586 H 0.08875 0.12173 0.23451 0.0
H587 H 0.09514 0.05745 0.20403 0.0
H588 H 0.40109 0.54559 0.30371 0.0
H589 H 0.40754 0.61173 0.27377 0.0
H590 H 0.45196 0.6967 0.30892 0.0
H591 H 0.4446 0.63244 0.33979 0.0
H592 H 0.43488 0.77947 0.28952 0.0
H593 H 0.44525 0.60218 0.22939 0.0
H594 H 0.42287 0.59053 0.24095 0.0
H595 H 0.44345 0.58391 0.25722 0.0
C596 C 0.41241 0.5778 0.30504 0.0
C597 C 0.42254 0.5832 0.32402 0.0
C598 C 0.41622 0.61535 0.28774 0.0
C599 C 0.43073 0.65792 0.2886 0.0
C600 C 0.44086 0.66371 0.30765 0.0
H601 H 0.44398 0.84372 0.1651 0.0
H602 H 0.45146 0.78048 0.19615 0.0
C603 C 0.43669 0.62699 0.32528 0.0
C604 C 0.43421 0.69876 0.27007 0.0
H605 H 0.43419 0.69999 0.21582 0.0
C606 C 0.43512 0.76187 0.27343 0.0
C607 C 0.43525 0.67646 0.24895 0.0
C608 C 0.43689 0.6095 0.244 0.0
C609 C 0.43565 0.80302 0.25635 0.0
C610 C 0.43423 0.78079 0.23525 0.0
C611 C 0.43474 0.71763 0.23189 0.0
C612 C 0.43084 0.82174 0.2167 0.0
C613 C 0.43775 0.86985 0.26128 0.0
C614 C 0.4167 0.86563 0.21766 0.0
C615 C 0.41283 0.90268 0.20022 0.0
C616 C 0.42254 0.8954 0.18104 0.0
C617 C 0.43638 0.85055 0.17974 0.0
C618 C 0.44062 0.81441 0.19749 0.0
H619 H 0.44633 0.87662 0.27575 0.0
H620 H 0.44428 0.89502 0.24795 0.0
H621 H 0.42388 0.88973 0.26455 0.0
H622 H 0.40827 0.87054 0.23179 0.0
H623 H 0.40178 0.93585 0.20159 0.0
H624 H 0.94415 0.86032 0.84213 0.0
H625 H 0.95145 0.79803 0.81077 0.0
H626 H 0.90618 0.88236 0.77684 0.0
H627 H 0.89978 0.94677 0.8073 0.0
H628 H 0.9347 0.71539 0.79125 0.0
H629 H 0.94315 0.89567 0.73183 0.0
H630 H 0.94157 0.91274 0.75977 0.0
H631 H 0.92085 0.90533 0.7438 0.0
C632 C 0.93602 0.86607 0.82779 0.0
C633 C 0.92164 0.90918 0.82701 0.0
C634 C 0.94016 0.83047 0.80987 0.0
C635 C 0.92978 0.83665 0.79102 0.0
C636 C 0.91505 0.87851 0.79065 0.0
H637 H 0.90149 0.56022 0.70329 0.0
H638 H 0.90798 0.62497 0.7336 0.0
C639 C 0.91126 0.91503 0.80824 0.0
C640 C 0.93324 0.7968 0.77221 0.0
H641 H 0.9326 0.79762 0.71796 0.0
C642 C 0.93463 0.73365 0.77525 0.0
C643 C 0.93388 0.81997 0.75119 0.0
C644 C 0.93502 0.88721 0.74654 0.0
C645 C 0.93526 0.69321 0.75797 0.0
C646 C 0.93343 0.71613 0.73701 0.0
C647 C 0.93345 0.77943 0.73394 0.0
C648 C 0.93006 0.67562 0.71834 0.0
C649 C 0.93788 0.62636 0.76254 0.0
C650 C 0.93954 0.68415 0.69899 0.0
C651 C 0.93531 0.64824 0.68118 0.0
C652 C 0.92175 0.60249 0.68254 0.0
C653 C 0.91234 0.59407 0.70185 0.0
C654 C 0.9162 0.63083 0.71936 0.0
H655 H 0.9467 0.61969 0.77683 0.0
H656 H 0.92421 0.60536 0.76595 0.0
H657 H 0.94442 0.60219 0.74898 0.0
H658 H 0.95015 0.71881 0.69761 0.0
H659 H 0.94267 0.65602 0.66644 0.0
H660 H 0.55245 0.15039 0.84199 0.0
H661 H 0.54493 0.21554 0.81142 0.0
H662 H 0.58814 0.12797 0.77509 0.0
H663 H 0.59471 0.06091 0.80477 0.0
H664 H 0.56215 0.29735 0.79204 0.0
H665 H 0.54982 0.12298 0.73136 0.0
H666 H 0.55196 0.10355 0.75906 0.0
H667 H 0.57231 0.10949 0.7424 0.0
C668 C 0.56005 0.14452 0.82729 0.0
C669 C 0.57391 0.0998 0.82563 0.0
C670 C 0.55579 0.18177 0.80983 0.0
C671 C 0.56554 0.17562 0.79054 0.0
C672 C 0.57973 0.13197 0.78926 0.0
H673 H 0.59455 0.45539 0.70429 0.0
H674 H 0.58832 0.38881 0.7342 0.0
C675 C 0.58362 0.09388 0.8064 0.0
C676 C 0.56205 0.21732 0.77223 0.0
H677 H 0.56121 0.2206 0.71799 0.0
C678 C 0.56155 0.28034 0.77589 0.0
C679 C 0.56056 0.19587 0.75104 0.0
C680 C 0.55845 0.12922 0.74582 0.0
C681 C 0.56096 0.32215 0.75901 0.0
C682 C 0.56192 0.30063 0.73779 0.0
C683 C 0.56102 0.23765 0.73415 0.0
C684 C 0.56521 0.34211 0.71937 0.0
C685 C 0.5593 0.38891 0.76428 0.0
C686 C 0.55505 0.33631 0.70035 0.0
C687 C 0.55912 0.37321 0.68274 0.0
C688 C 0.57319 0.41728 0.684 0.0
C689 C 0.58331 0.4229 0.70297 0.0
C690 C 0.5796 0.38511 0.72025 0.0
H691 H 0.551 0.39563 0.77897 0.0
H692 H 0.57332 0.40785 0.76734 0.0
H693 H 0.55267 0.41495 0.75121 0.0
H694 H 0.54402 0.30306 0.69906 0.0
H695 H 0.5512 0.36761 0.66825 0.0
H696 H 0.04875 0.78413 0.12748 0.0
H697 H 0.05323 0.67446 0.12524 0.0
H698 H 0.11255 0.69995 0.12529 0.0
H699 H 0.10824 0.80969 0.12856 0.0
H700 H 0.07005 0.60844 0.09441 0.0
H701 H 0.10632 0.57267 0.1711 0.0
H702 H 0.09453 0.64276 0.16472 0.0
H703 H 0.11737 0.62798 0.1544 0.0
C704 C 0.06277 0.76663 0.1274 0.0
C705 C 0.07813 0.80614 0.12836 0.0
C706 C 0.0653 0.70377 0.12594 0.0
C707 C 0.08322 0.67888 0.12544 0.0
C708 C 0.09859 0.71802 0.12613 0.0
H709 H 0.12697 0.31608 0.10645 0.0
H710 H 0.12228 0.42572 0.11052 0.0
C711 C 0.09608 0.78095 0.1277 0.0
C712 C 0.08574 0.6121 0.1235 0.0
H713 H 0.10576 0.48866 0.14724 0.0
C714 C 0.07776 0.5822 0.10603 0.0
C715 C 0.09578 0.57791 0.13871 0.0
C716 C 0.10384 0.60681 0.1584 0.0
C717 C 0.07983 0.51925 0.10315 0.0
C718 C 0.09003 0.48531 0.11822 0.0
C719 C 0.09799 0.51502 0.1357 0.0
C720 C 0.09274 0.41889 0.11597 0.0
C721 C 0.07141 0.48957 0.0838 0.0
C722 C 0.07769 0.37882 0.11793 0.0
C723 C 0.08032 0.31613 0.11561 0.0
C724 C 0.09805 0.29247 0.11123 0.0
C725 C 0.11311 0.33288 0.10949 0.0
C726 C 0.11048 0.39547 0.11194 0.0
H727 H 0.0671 0.52355 0.07171 0.0
H728 H 0.08141 0.45743 0.07643 0.0
H729 H 0.05898 0.46323 0.08862 0.0
H730 H 0.06391 0.39609 0.12126 0.0
H731 H 0.06843 0.28632 0.11691 0.0
H732 H 0.44852 0.21297 0.12621 0.0
H733 H 0.44405 0.32262 0.1237 0.0
H734 H 0.38476 0.29692 0.12205 0.0
H735 H 0.38903 0.18723 0.12558 0.0
H736 H 0.42789 0.38832 0.09231 0.0
H737 H 0.38993 0.42471 0.16787 0.0
H738 H 0.40188 0.35459 0.16192 0.0
H739 H 0.37927 0.36921 0.15091 0.0
C740 C 0.4345 0.23042 0.1257 0.0
C741 C 0.41914 0.19087 0.12625 0.0
C742 C 0.43198 0.29327 0.12409 0.0
C743 C 0.41408 0.31811 0.12303 0.0
C744 C 0.3987 0.27891 0.12332 0.0
H745 H 0.37074 0.6811 0.10274 0.0
H746 H 0.3753 0.57143 0.10691 0.0
C747 C 0.40119 0.216 0.12504 0.0
C748 C 0.41158 0.38488 0.12094 0.0
H749 H 0.39102 0.50851 0.14396 0.0
C750 C 0.41993 0.41464 0.10368 0.0
C751 C 0.40119 0.41919 0.13581 0.0
C752 C 0.3927 0.39046 0.15528 0.0
C753 C 0.41791 0.47757 0.10067 0.0
C754 C 0.40739 0.51164 0.11541 0.0
C755 C 0.39904 0.48206 0.13268 0.0
C756 C 0.40475 0.57809 0.11304 0.0
C757 C 0.42673 0.50707 0.08154 0.0
C758 C 0.41979 0.61809 0.11535 0.0
C759 C 0.41723 0.6808 0.11297 0.0
C760 C 0.39959 0.70457 0.10819 0.0
C761 C 0.38454 0.66423 0.10609 0.0
C762 C 0.38709 0.60162 0.1086 0.0
H763 H 0.43124 0.47298 0.06958 0.0
H764 H 0.41692 0.5393 0.07389 0.0
H765 H 0.43911 0.53325 0.08668 0.0
H766 H 0.43349 0.60076 0.11901 0.0
H767 H 0.42911 0.71054 0.11455 0.0
H768 H 0.08342 0.22361 0.37115 0.0
H769 H 0.07942 0.11418 0.3662 0.0
H770 H 0.10448 0.08104 0.42727 0.0
H771 H 0.10818 0.19037 0.43265 0.0
H772 H 0.11911 0.01023 0.39157 0.0
H773 H 0.04219 1.00084 0.39849 0.0
H774 H 0.05144 0.05685 0.38056 0.0
H775 H 0.05568 0.06386 0.40854 0.0
C776 C 0.08783 0.19332 0.38371 0.0
C777 C 0.0961 0.21614 0.40235 0.0
C778 C 0.08558 0.1307 0.3808 0.0
C779 C 0.09153 0.08972 0.39645 0.0
C780 C 0.0998 0.11208 0.41502 0.0
H781 H 0.09696 0.69761 0.41005 0.0
H782 H 0.10096 0.80757 0.41341 0.0
C783 C 0.10199 0.17464 0.418 0.0
C784 C 0.08956 0.02336 0.39326 0.0
H785 H 0.05752 0.90968 0.38926 0.0
C786 C 0.10567 0.98809 0.39108 0.0
C787 C 0.07199 0.99495 0.39253 0.0
C788 C 0.05429 0.03079 0.39529 0.0
C789 C 0.10468 0.92495 0.38796 0.0
C790 C 0.0871 0.89627 0.38755 0.0
C791 C 0.07098 0.93174 0.3896 0.0
C792 C 0.08508 0.82945 0.38524 0.0
C793 C 0.12244 0.88983 0.38469 0.0
C794 C 0.07446 0.80522 0.36858 0.0
C795 C 0.07204 0.74238 0.36672 0.0
C796 C 0.08019 0.70254 0.38149 0.0
C797 C 0.09083 0.72695 0.39817 0.0
C798 C 0.09314 0.78983 0.4001 0.0
H799 H 0.13388 0.91985 0.37922 0.0
H800 H 0.12676 0.86915 0.4 0.0
H801 H 0.12055 0.85276 0.37291 0.0
H802 H 0.06807 0.83499 0.35698 0.0
H803 H 0.06389 0.72489 0.35363 0.0
H804 H 0.42912 0.76422 0.39061 0.0
H805 H 0.43322 0.87418 0.38662 0.0
H806 H 0.37524 0.9018 0.40054 0.0
H807 H 0.37108 0.79219 0.40467 0.0
H808 H 0.41684 0.95405 0.35907 0.0
H809 H 0.39964 0.01761 0.44199 0.0
H810 H 0.40414 0.94006 0.43412 0.0
H811 H 0.3818 0.97387 0.42927 0.0
C812 C 0.41724 0.79368 0.39277 0.0
C813 C 0.3998 0.76938 0.39814 0.0
C814 C 0.41961 0.85654 0.39056 0.0
C815 C 0.40462 0.89636 0.39369 0.0
C816 C 0.38713 0.87216 0.39864 0.0
H817 H 0.38898 0.2866 0.38073 0.0
H818 H 0.38495 0.17674 0.38472 0.0
C819 C 0.38477 0.80941 0.40098 0.0
C820 C 0.40716 0.96306 0.39128 0.0
H821 H 0.40205 0.09877 0.41714 0.0
C822 C 0.41371 0.98565 0.37181 0.0
C823 C 0.40308 0.00431 0.40792 0.0
C824 C 0.39695 0.98279 0.42957 0.0
C825 C 0.41598 0.04837 0.36842 0.0
C826 C 0.41172 0.08949 0.38498 0.0
C827 C 0.40519 0.06704 0.40444 0.0
C828 C 0.41422 0.15602 0.38252 0.0
C829 C 0.4226 0.07036 0.34703 0.0
C830 C 0.43203 0.18075 0.38024 0.0
C831 C 0.43442 0.24358 0.3782 0.0
C832 C 0.41903 0.2831 0.37839 0.0
C833 C 0.40118 0.25792 0.38077 0.0
C834 C 0.39882 0.19504 0.38292 0.0
H835 H 0.42149 0.03442 0.33468 0.0
H836 H 0.41449 0.11067 0.34181 0.0
H837 H 0.43737 0.08412 0.34826 0.0
H838 H 0.44412 0.15145 0.38027 0.0
H839 H 0.44839 0.26103 0.3768 0.0
H840 H 0.88919 0.69303 0.93111 0.0
H841 H 0.89316 0.58379 0.92575 0.0
H842 H 0.91876 0.61753 0.86504 0.0
H843 H 0.91452 0.72689 0.86997 0.0
H844 H 0.87899 0.51285 0.89 0.0
H845 H 0.95588 0.50458 0.89757 0.0
H846 H 0.94224 0.56751 0.90743 0.0
H847 H 0.94667 0.5603 0.87949 0.0
C848 C 0.89557 0.67745 0.91654 0.0
C849 C 0.90154 0.71909 0.90099 0.0
C850 C 0.89791 0.61493 0.91357 0.0
C851 C 0.90641 0.59277 0.89511 0.0
C852 C 0.91244 0.6339 0.87956 0.0
H853 H 0.93458 0.22736 0.85291 0.0
H854 H 0.93042 0.33754 0.85606 0.0
C855 C 0.91004 0.69647 0.88246 0.0
C856 C 0.90851 0.52642 0.89193 0.0
H857 H 0.94074 0.41314 0.88829 0.0
C858 C 0.89247 0.49091 0.88965 0.0
C859 C 0.92613 0.49825 0.89135 0.0
C860 C 0.94376 0.53435 0.89423 0.0
C861 C 0.89358 0.42775 0.8866 0.0
C862 C 0.9112 0.3993 0.88637 0.0
C863 C 0.92725 0.43502 0.88849 0.0
C864 C 0.91331 0.33246 0.88424 0.0
C865 C 0.87588 0.39236 0.88323 0.0
C866 C 0.90522 0.29308 0.89914 0.0
C867 C 0.90753 0.23017 0.89733 0.0
C868 C 0.91819 0.20545 0.88073 0.0
C869 C 0.92641 0.24506 0.86594 0.0
C870 C 0.924 0.30796 0.86768 0.0
H871 H 0.86443 0.42217 0.8776 0.0
H872 H 0.8779 0.35516 0.87153 0.0
H873 H 0.8715 0.37184 0.89853 0.0
H874 H 0.89735 0.31103 0.91238 0.0
H875 H 0.90134 0.20104 0.90922 0.0
H876 H 0.60742 0.80255 0.88058 0.0
H877 H 0.61127 0.69269 0.88464 0.0
H878 H 0.55187 0.66966 0.8837 0.0
H879 H 0.54785 0.77944 0.88051 0.0
H880 H 0.56838 0.60438 0.91548 0.0
H881 H 0.6044 0.56371 0.83893 0.0
H882 H 0.61546 0.61977 0.85536 0.0
H883 H 0.59267 0.63422 0.84488 0.0
C884 C 0.59516 0.77426 0.88139 0.0
C885 C 0.57732 0.8001 0.88013 0.0
C886 C 0.5974 0.71132 0.88344 0.0
C887 C 0.58186 0.67287 0.8841 0.0
C888 C 0.56406 0.69845 0.88305 0.0
H889 H 0.58238 0.27966 0.869 0.0
H890 H 0.57745 0.38905 0.86512 0.0
C891 C 0.56179 0.76132 0.88105 0.0
C892 C 0.58409 0.60607 0.88641 0.0
H893 H 0.60336 0.48074 0.86312 0.0
C894 C 0.57598 0.57729 0.90401 0.0
C895 C 0.59379 0.5707 0.87126 0.0
C896 C 0.60193 0.59848 0.85143 0.0
C897 C 0.57754 0.51422 0.90705 0.0
C898 C 0.58779 0.47916 0.8923 0.0
C899 C 0.59565 0.50778 0.87452 0.0
C900 C 0.59047 0.41266 0.89497 0.0
C901 C 0.56791 0.48561 0.92585 0.0
C902 C 0.59954 0.38958 0.91297 0.0
C903 C 0.60223 0.32697 0.91534 0.0
C904 C 0.59603 0.28607 0.89967 0.0
C905 C 0.58706 0.30951 0.88156 0.0
C906 C 0.58436 0.37216 0.87923 0.0
H907 H 0.55662 0.5151 0.93204 0.0
H908 H 0.56195 0.44065 0.9216 0.0
H909 H 0.57813 0.47875 0.93882 0.0
H910 H 0.60469 0.42006 0.92513 0.0
H911 H 0.60906 0.3107 0.92954 0.0
H912 H 0.92391 0.78961 0.62657 0.0
H913 H 0.92684 0.89877 0.63259 0.0
H914 H 0.87451 0.92868 0.60106 0.0
H915 H 0.87098 0.81949 0.59586 0.0
H916 H 0.92889 0.98923 0.60345 0.0
H917 H 0.86753 0.02555 0.65499 0.0
H918 H 0.8765 0.95076 0.64912 0.0
H919 H 0.8619 0.98944 0.63026 0.0
C920 C 0.91283 0.81906 0.62124 0.0
C921 C 0.89714 0.79528 0.6108 0.0
C922 C 0.91461 0.88164 0.62457 0.0
C923 C 0.90076 0.9218 0.61759 0.0
C924 C 0.88518 0.89844 0.60702 0.0
H925 H 0.89266 0.31344 0.60696 0.0
H926 H 0.88813 0.20352 0.60464 0.0
C927 C 0.88332 0.83587 0.60379 0.0
C928 C 0.90301 0.98832 0.62054 0.0
H929 H 0.88217 0.11469 0.64133 0.0
C930 C 0.91875 0.01655 0.61187 0.0
C931 C 0.88975 0.02392 0.63155 0.0
C932 C 0.87306 0.99583 0.6422 0.0
C933 C 0.92142 0.07958 0.61357 0.0
C934 C 0.90804 0.1151 0.62429 0.0
C935 C 0.89233 0.08708 0.63303 0.0
C936 C 0.91022 0.1816 0.62658 0.0
C937 C 0.93834 0.10807 0.60358 0.0
C938 C 0.9239 0.20543 0.64001 0.0
C939 C 0.92641 0.26826 0.64159 0.0
C940 C 0.91531 0.30851 0.62969 0.0
C941 C 0.90134 0.28419 0.61655 0.0
C942 C 0.89878 0.22129 0.61509 0.0
H943 H 0.94574 0.07596 0.5929 0.0
H944 H 0.9344 0.14916 0.59436 0.0
H945 H 0.94808 0.12253 0.61627 0.0
H946 H 0.9327 0.17534 0.6492 0.0
H947 H 0.93705 0.28519 0.65217 0.0
H948 H 0.56125 0.73817 0.65875 0.0
H949 H 0.56508 0.84829 0.65518 0.0
H950 H 0.59772 0.82119 0.59856 0.0
H951 H 0.59408 0.71104 0.60217 0.0
H952 H 0.61316 0.90522 0.62513 0.0
H953 H 0.53853 0.95687 0.61308 0.0
H954 H 0.5432 0.91602 0.63717 0.0
H955 H 0.54762 0.88045 0.61193 0.0
C956 C 0.56915 0.75573 0.64547 0.0
C957 C 0.57729 0.7159 0.63069 0.0
C958 C 0.57128 0.81865 0.64341 0.0
C959 C 0.58137 0.84304 0.62636 0.0
C960 C 0.58981 0.80337 0.61179 0.0
H961 H 0.60631 0.20431 0.57946 0.0
H962 H 0.60291 0.09491 0.58476 0.0
C963 C 0.58779 0.7404 0.61393 0.0
C964 C 0.58333 0.90986 0.62381 0.0
H965 H 0.55863 0.04147 0.61773 0.0
C966 C 0.60124 0.93497 0.62343 0.0
C967 C 0.56775 0.94864 0.62157 0.0
C968 C 0.5482 0.92417 0.62074 0.0
C969 C 0.60399 0.99785 0.62113 0.0
C970 C 0.58842 0.0365 0.619 0.0
C971 C 0.57051 0.01159 0.61947 0.0
C972 C 0.59047 0.10291 0.61588 0.0
C973 C 0.6235 0.02269 0.62129 0.0
C974 C 0.5843 0.14367 0.63148 0.0
C975 C 0.58634 0.2064 0.6286 0.0
C976 C 0.59445 0.22961 0.60992 0.0
C977 C 0.60033 0.18834 0.59419 0.0
C978 C 0.59836 0.12568 0.59716 0.0
H979 H 0.63363 0.98907 0.62757 0.0
H980 H 0.62763 0.03449 0.60482 0.0
H981 H 0.62431 0.06472 0.63103 0.0
H982 H 0.57812 0.12686 0.64603 0.0
H983 H 0.58184 0.23647 0.64118 0.0
loop_
_geom_bond_atom_site_label_1
_geom_bond_atom_site_label_2
_geom_bond_distance
_geom_bond_site_symmetry_2
_ccdc_geom_bond_type
C0 C1 1.351 . S
C0 N3 1.368 . S
C0 H5 0.931 . S
C1 C0 1.351 . S
C1 N2 1.373 . S
C1 H29 0.930 . S
N2 C1 1.373 . S
N2 C4 1.340 . S
N3 C0 1.368 . S
N3 C4 1.321 . S
N3 Co6 2.135 . S
C4 N2 1.340 . S
C4 N3 1.321 . S
C4 H28 0.930 . S
H5 C0 0.931 . S
Co6 N3 2.135 . S
Co6 N9 2.132 . S
Co6 O14 2.055 . S
Co6 O17 2.039 . S
Co6 N20 2.140 . S
C7 O8 1.227 . S
C7 O17 1.265 . S
O8 C7 1.227 . S
N9 Co6 2.132 . S
N9 C11 1.371 1_545 S
N9 C12 1.304 1_545 S
C10 C11 1.338 . S
C10 N13 1.377 . S
C10 H30 0.930 . S
C11 N9 1.371 1_565 S
C11 C10 1.338 . S
C11 H15 0.931 1_565 S
C12 N9 1.304 1_565 S
C12 N13 1.344 . S
C12 H16 0.930 . S
N13 C10 1.377 . S
N13 C12 1.344 . S
O14 Co6 2.055 . S
O14 C18 1.253 . S
H15 C11 0.931 1_545 S
H16 C12 0.930 . S
O17 Co6 2.039 . S
O17 C7 1.265 . S
C18 O14 1.253 . S
C18 O19 1.227 . S
O19 C18 1.227 . S
N20 Co6 2.140 . S
N20 C23 1.346 . S
N20 C24 1.345 . S
C21 C22 1.387 . S
C21 C25 1.391 . S
C22 C21 1.387 . S
C22 C23 1.369 . S
C22 H31 0.929 . S
C23 N20 1.346 . S
C23 C22 1.369 . S
C23 H26 0.928 . S
C24 N20 1.345 . S
C24 C25 1.371 . S
C24 H27 0.931 . S
C25 C21 1.391 . S
C25 C24 1.371 . S
C25 H32 0.930 1_545 S
H26 C23 0.928 . S
H27 C24 0.931 . S
H28 C4 0.930 . S
H29 C1 0.930 . S
H30 C10 0.930 . S
H31 C22 0.929 . S
H32 C25 0.930 1_565 S
C33 C34 1.351 . S
C33 N36 1.368 . S
C33 H38 0.931 . S
C34 C33 1.351 . S
C34 N35 1.373 . S
C34 H62 0.930 . S
N35 C34 1.373 . S
N35 C37 1.340 . S
N36 C33 1.368 . S
N36 C37 1.321 . S
N36 Co39 2.135 . S
C37 N35 1.340 . S
C37 N36 1.321 . S
C37 H61 0.930 . S
H38 C33 0.931 . S
Co39 N36 2.135 . S
Co39 N42 2.132 . S
Co39 O47 2.055 . S
Co39 O50 2.039 . S
Co39 N53 2.140 . S
C40 O41 1.227 . S
C40 O50 1.265 . S
O41 C40 1.227 . S
N42 Co39 2.132 . S
N42 C44 1.371 1_565 S
N42 C45 1.304 1_565 S
C43 C44 1.338 . S
C43 N46 1.377 . S
C43 H63 0.930 . S
C44 N42 1.371 1_545 S
C44 C43 1.338 . S
C44 H48 0.931 1_545 S
C45 N42 1.304 1_545 S
C45 N46 1.344 . S
C45 H49 0.930 . S
N46 C43 1.377 . S
N46 C45 1.344 . S
O47 Co39 2.055 . S
O47 C51 1.253 . S
H48 C44 0.931 1_565 S
H49 C45 0.930 . S
O50 Co39 2.039 . S
O50 C40 1.265 . S
C51 O47 1.253 . S
C51 O52 1.227 . S
O52 C51 1.227 . S
N53 Co39 2.140 . S
N53 C56 1.346 . S
N53 C57 1.345 . S
C54 C55 1.387 . S
C54 C58 1.391 . S
C55 C54 1.387 . S
C55 C56 1.369 . S
C55 H64 0.929 . S
C56 N53 1.346 . S
C56 C55 1.369 . S
C56 H59 0.928 . S
C57 N53 1.345 . S
C57 C58 1.371 . S
C57 H60 0.931 . S
C58 C54 1.391 . S
C58 C57 1.371 . S
C58 H65 0.930 1_565 S
H59 C56 0.928 . S
H60 C57 0.931 . S
H61 C37 0.930 . S
H62 C34 0.930 . S
H63 C43 0.930 . S
H64 C55 0.929 . S
H65 C58 0.930 1_545 S
C66 C67 1.351 . S
C66 N69 1.368 . S
C66 H71 0.931 . S
C67 C66 1.351 . S
C67 N68 1.373 . S
C67 H95 0.930 . S
N68 C67 1.373 . S
N68 C70 1.340 . S
N69 C66 1.368 . S
N69 C70 1.321 . S
N69 Co72 2.135 . S
C70 N68 1.340 . S
C70 N69 1.321 . S
C70 H94 0.930 . S
H71 C66 0.931 . S
Co72 N69 2.135 . S
Co72 N75 2.121 . S
Co72 O80 2.055 . S
Co72 O83 2.039 . S
Co72 N86 2.140 . S
C73 O74 1.227 . S
C73 O83 1.265 . S
O74 C73 1.227 . S
N75 Co72 2.121 . S
N75 C77 1.375 . S
N75 C78 1.313 . S
C76 C77 1.338 . S
C76 N79 1.377 . S
C76 H96 0.930 . S
C77 N75 1.375 . S
C77 C76 1.338 . S
C77 H81 0.931 . S
C78 N75 1.313 . S
C78 N79 1.344 . S
C78 H82 0.930 . S
N79 C76 1.377 . S
N79 C78 1.344 . S
O80 Co72 2.055 . S
O80 C84 1.253 . S
H81 C77 0.931 . S
H82 C78 0.930 . S
O83 Co72 2.039 . S
O83 C73 1.265 . S
C84 O80 1.253 . S
C84 O85 1.227 . S
O85 C84 1.227 . S
N86 Co72 2.140 . S
N86 C89 1.346 . S
N86 C90 1.345 . S
C87 C88 1.387 . S
C87 C91 1.391 . S
C88 C87 1.387 . S
C88 C89 1.369 . S
C88 H97 0.929 . S
C89 N86 1.346 . S
C89 C88 1.369 . S
C89 H92 0.928 . S
C90 N86 1.345 . S
C90 C91 1.371 . S
C90 H93 0.931 . S
C91 C87 1.391 . S
C91 C90 1.371 . S
C91 H98 0.930 . S
H92 C89 0.928 . S
H93 C90 0.931 . S
H94 C70 0.930 . S
H95 C67 0.930 . S
H96 C76 0.930 . S
H97 C88 0.929 . S
H98 C91 0.930 . S
C99 C100 1.351 . S
C99 N102 1.368 . S
C99 H104 0.931 . S
C100 C99 1.351 . S
C100 N101 1.373 . S
C100 H128 0.930 . S
N101 C100 1.373 . S
N101 C103 1.340 . S
N102 C99 1.368 . S
N102 C103 1.321 . S
N102 Co105 2.135 . S
C103 N101 1.340 . S
C103 N102 1.321 . S
C103 H127 0.930 . S
H104 C99 0.931 . S
Co105 N102 2.135 . S
Co105 N108 2.121 . S
Co105 O113 2.055 . S
Co105 O116 2.039 . S
Co105 N119 2.140 . S
C106 O107 1.227 . S
C106 O116 1.265 . S
O107 C106 1.227 . S
N108 Co105 2.121 . S
N108 C110 1.375 . S
N108 C111 1.313 . S
C109 C110 1.338 . S
C109 N112 1.377 . S
C109 H129 0.930 . S
C110 N108 1.375 . S
C110 C109 1.338 . S
C110 H114 0.931 . S
C111 N108 1.313 . S
C111 N112 1.344 . S
C111 H115 0.930 . S
N112 C109 1.377 . S
N112 C111 1.344 . S
O113 Co105 2.055 . S
O113 C117 1.253 . S
H114 C110 0.931 . S
H115 C111 0.930 . S
O116 Co105 2.039 . S
O116 C106 1.265 . S
C117 O113 1.253 . S
C117 O118 1.227 . S
O118 C117 1.227 . S
N119 Co105 2.140 . S
N119 C122 1.346 . S
N119 C123 1.345 . S
C120 C121 1.387 . S
C120 C124 1.391 . S
C121 C120 1.387 . S
C121 C122 1.369 . S
C121 H130 0.929 . S
C122 N119 1.346 . S
C122 C121 1.369 . S
C122 H125 0.928 . S
C123 N119 1.345 . S
C123 C124 1.371 . S
C123 H126 0.931 . S
C124 C120 1.391 . S
C124 C123 1.371 . S
C124 H131 0.930 . S
H125 C122 0.928 . S
H126 C123 0.931 . S
H127 C103 0.930 . S
H128 C100 0.930 . S
H129 C109 0.930 . S
H130 C121 0.929 . S
H131 C124 0.930 . S
C132 C133 1.351 . S
C132 N135 1.368 . S
C132 H137 0.931 . S
C133 C132 1.351 . S
C133 N134 1.373 . S
C133 H161 0.930 . S
N134 C133 1.373 . S
N134 C136 1.340 . S
N135 C132 1.368 . S
N135 C136 1.321 . S
N135 Co138 2.135 . S
C136 N134 1.340 . S
C136 N135 1.321 . S
C136 H160 0.930 . S
H137 C132 0.931 . S
Co138 N135 2.135 . S
Co138 N141 2.132 . S
Co138 O146 2.055 . S
Co138 O149 2.039 . S
Co138 N152 2.140 . S
C139 O140 1.227 . S
C139 O149 1.265 . S
O140 C139 1.227 . S
N141 Co138 2.132 . S
N141 C143 1.371 1_565 S
N141 C144 1.304 1_565 S
C142 C143 1.338 . S
C142 N145 1.377 . S
C142 H162 0.930 . S
C143 N141 1.371 1_545 S
C143 C142 1.338 . S
C143 H147 0.931 1_545 S
C144 N141 1.304 1_545 S
C144 N145 1.344 . S
C144 H148 0.930 . S
N145 C142 1.377 . S
N145 C144 1.344 . S
O146 Co138 2.055 . S
O146 C150 1.253 . S
H147 C143 0.931 1_565 S
H148 C144 0.930 . S
O149 Co138 2.039 . S
O149 C139 1.265 . S
C150 O146 1.253 . S
C150 O151 1.227 . S
O151 C150 1.227 . S
N152 Co138 2.140 . S
N152 C155 1.346 . S
N152 C156 1.345 . S
C153 C154 1.387 . S
C153 C157 1.391 . S
C154 C153 1.387 . S
C154 C155 1.369 . S
C154 H163 0.929 . S
C155 N152 1.346 . S
C155 C154 1.369 . S
C155 H158 0.928 . S
C156 N152 1.345 . S
C156 C157 1.371 . S
C156 H159 0.931 . S
C157 C153 1.391 . S
C157 C156 1.371 . S
C157 H164 0.930 1_565 S
H158 C155 0.928 . S
H159 C156 0.931 . S
H160 C136 0.930 . S
H161 C133 0.930 . S
H162 C142 0.930 . S
H163 C154 0.929 . S
H164 C157 0.930 1_545 S
C165 C166 1.351 . S
C165 N168 1.368 . S
C165 H170 0.931 . S
C166 C165 1.351 . S
C166 N167 1.373 . S
C166 H194 0.930 . S
N167 C166 1.373 . S
N167 C169 1.340 . S
N168 C165 1.368 . S
N168 C169 1.321 . S
N168 Co171 2.135 . S
C169 N167 1.340 . S
C169 N168 1.321 . S
C169 H193 0.930 . S
H170 C165 0.931 . S
Co171 N168 2.135 . S
Co171 N174 2.132 . S
Co171 O179 2.055 . S
Co171 O182 2.039 . S
Co171 N185 2.140 . S
C172 O173 1.227 . S
C172 O182 1.265 . S
O173 C172 1.227 . S
N174 Co171 2.132 . S
N174 C176 1.371 1_545 S
N174 C177 1.304 1_545 S
C175 C176 1.338 . S
C175 N178 1.377 . S
C175 H195 0.930 . S
C176 N174 1.371 1_565 S
C176 C175 1.338 . S
C176 H180 0.931 1_565 S
C177 N174 1.304 1_565 S
C177 N178 1.344 . S
C177 H181 0.930 . S
N178 C175 1.377 . S
N178 C177 1.344 . S
O179 Co171 2.055 . S
O179 C183 1.253 . S
H180 C176 0.931 1_545 S
H181 C177 0.930 . S
O182 Co171 2.039 . S
O182 C172 1.265 . S
C183 O179 1.253 . S
C183 O184 1.227 . S
O184 C183 1.227 . S
N185 Co171 2.140 . S
N185 C188 1.346 . S
N185 C189 1.345 . S
C186 C187 1.387 . S
C186 C190 1.391 . S
C187 C186 1.387 . S
C187 C188 1.369 . S
C187 H196 0.929 . S
C188 N185 1.346 . S
C188 C187 1.369 . S
C188 H191 0.928 . S
C189 N185 1.345 . S
C189 C190 1.371 . S
C189 H192 0.931 . S
C190 C186 1.391 . S
C190 C189 1.371 . S
C190 H197 0.930 1_545 S
H191 C188 0.928 . S
H192 C189 0.931 . S
H193 C169 0.930 . S
H194 C166 0.930 . S
H195 C175 0.930 . S
H196 C187 0.929 . S
H197 C190 0.930 1_565 S
C198 C199 1.351 . S
C198 N201 1.368 . S
C198 H203 0.931 . S
C199 C198 1.351 . S
C199 N200 1.373 . S
C199 H227 0.930 . S
N200 C199 1.373 . S
N200 C202 1.340 . S
N201 C198 1.368 . S
N201 C202 1.321 . S
N201 Co204 2.135 . S
C202 N200 1.340 . S
C202 N201 1.321 . S
C202 H226 0.930 . S
H203 C198 0.931 . S
Co204 N201 2.135 . S
Co204 N207 2.121 . S
Co204 O212 2.055 . S
Co204 O215 2.039 . S
Co204 N218 2.140 . S
C205 O206 1.227 . S
C205 O215 1.265 . S
O206 C205 1.227 . S
N207 Co204 2.121 . S
N207 C209 1.375 . S
N207 C210 1.313 . S
C208 C209 1.338 . S
C208 N211 1.377 . S
C208 H228 0.930 . S
C209 N207 1.375 . S
C209 C208 1.338 . S
C209 H213 0.931 . S
C210 N207 1.313 . S
C210 N211 1.344 . S
C210 H214 0.930 . S
N211 C208 1.377 . S
N211 C210 1.344 . S
O212 Co204 2.055 . S
O212 C216 1.253 . S
H213 C209 0.931 . S
H214 C210 0.930 . S
O215 Co204 2.039 . S
O215 C205 1.265 . S
C216 O212 1.253 . S
C216 O217 1.227 . S
O217 C216 1.227 . S
N218 Co204 2.140 . S
N218 C221 1.346 . S
N218 C222 1.345 . S
C219 C220 1.387 . S
C219 C223 1.391 . S
C220 C219 1.387 . S
C220 C221 1.369 . S
C220 H229 0.929 . S
C221 N218 1.346 . S
C221 C220 1.369 . S
C221 H224 0.928 . S
C222 N218 1.345 . S
C222 C223 1.371 . S
C222 H225 0.931 . S
C223 C219 1.391 . S
C223 C222 1.371 . S
C223 H230 0.930 . S
H224 C221 0.928 . S
H225 C222 0.931 . S
H226 C202 0.930 . S
H227 C199 0.930 . S
H228 C208 0.930 . S
H229 C220 0.929 . S
H230 C223 0.930 . S
C231 C232 1.351 . S
C231 N234 1.368 . S
C231 H236 0.931 . S
C232 C231 1.351 . S
C232 N233 1.373 . S
C232 H260 0.930 . S
N233 C232 1.373 . S
N233 C235 1.340 . S
N234 C231 1.368 . S
N234 C235 1.321 . S
N234 Co237 2.135 . S
C235 N233 1.340 . S
C235 N234 1.321 . S
C235 H259 0.930 . S
H236 C231 0.931 . S
Co237 N234 2.135 . S
Co237 N240 2.121 . S
Co237 O245 2.055 . S
Co237 O248 2.039 . S
Co237 N251 2.140 . S
C238 O239 1.227 . S
C238 O248 1.265 . S
O239 C238 1.227 . S
N240 Co237 2.121 . S
N240 C242 1.375 . S
N240 C243 1.313 . S
C241 C242 1.338 . S
C241 N244 1.377 . S
C241 H261 0.930 . S
C242 N240 1.375 . S
C242 C241 1.338 . S
C242 H246 0.931 . S
C243 N240 1.313 . S
C243 N244 1.344 . S
C243 H247 0.930 . S
N244 C241 1.377 . S
N244 C243 1.344 . S
O245 Co237 2.055 . S
O245 C249 1.253 . S
H246 C242 0.931 . S
H247 C243 0.930 . S
O248 Co237 2.039 . S
O248 C238 1.265 . S
C249 O245 1.253 . S
C249 O250 1.227 . S
O250 C249 1.227 . S
N251 Co237 2.140 . S
N251 C254 1.346 . S
N251 C255 1.345 . S
C252 C253 1.387 . S
C252 C256 1.391 . S
C253 C252 1.387 . S
C253 C254 1.369 . S
C253 H262 0.929 . S
C254 N251 1.346 . S
C254 C253 1.369 . S
C254 H257 0.928 . S
C255 N251 1.345 . S
C255 C256 1.371 . S
C255 H258 0.931 . S
C256 C252 1.391 . S
C256 C255 1.371 . S
C256 H263 0.930 . S
H257 C254 0.928 . S
H258 C255 0.931 . S
H259 C235 0.930 . S
H260 C232 0.930 . S
H261 C241 0.930 . S
H262 C253 0.929 . S
H263 C256 0.930 . S
H264 C272 0.929 . S
H265 C274 0.930 . S
H266 C276 0.930 1_565 S
H267 C279 0.929 . S
H268 C282 0.930 . S
H269 C284 0.960 . S
H270 C284 0.960 . S
H271 C284 0.960 . S
C272 H264 0.929 . S
C272 C273 1.377 . S
C272 C274 1.384 . S
C273 C272 1.377 . S
C273 C279 1.390 . S
C274 H265 0.930 . S
C274 C272 1.384 . S
C274 C275 1.372 . S
C275 C274 1.372 . S
C275 C276 1.400 . S
C275 C280 1.490 . S
C276 H266 0.930 1_545 S
C276 C275 1.400 . S
C276 C279 1.386 . S
H277 C293 0.930 . S
H278 C294 0.931 . S
C279 H267 0.929 . S
C279 C273 1.390 . S
C279 C276 1.386 . S
C280 C275 1.490 . S
C280 C282 1.395 . S
C280 C283 1.403 1_545 S
H281 C287 0.930 . S
C282 H268 0.930 . S
C282 C280 1.395 . S
C282 C285 1.403 . S
C283 C280 1.403 1_565 S
C283 C284 1.524 . S
C283 C287 1.400 . S
C284 H269 0.960 . S
C284 H270 0.960 . S
C284 H271 0.960 . S
C284 C283 1.524 . S
C285 C282 1.403 . S
C285 C286 1.392 1_545 S
C285 C289 1.495 . S
C286 C285 1.392 1_565 S
C286 C287 1.385 . S
C286 C288 1.478 . S
C287 H281 0.930 . S
C287 C283 1.400 . S
C287 C286 1.385 . S
C288 C286 1.478 . S
C288 C290 1.381 . S
C288 C294 1.383 . S
C289 C285 1.495 . S
C289 H295 0.959 . S
C289 H296 0.961 . S
C289 H297 0.960 . S
C290 C288 1.381 . S
C290 C291 1.394 . S
C290 H298 0.930 1_565 S
C291 C290 1.394 . S
C291 C292 1.383 . S
C291 H299 0.929 . S
C292 C291 1.383 . S
C292 C293 1.377 . S
C293 H277 0.930 . S
C293 C292 1.377 . S
C293 C294 1.379 . S
C294 H278 0.931 . S
C294 C288 1.383 . S
C294 C293 1.379 . S
H295 C289 0.959 . S
H296 C289 0.961 . S
H297 C289 0.960 . S
H298 C290 0.930 1_545 S
H299 C291 0.929 . S
H300 C308 0.929 . S
H301 C310 0.930 . S
H302 C312 0.930 . S
H303 C315 0.929 . S
H304 C318 0.930 . S
H305 C320 0.960 . S
H306 C320 0.960 . S
H307 C320 0.960 . S
C308 H300 0.929 . S
C308 C309 1.377 . S
C308 C310 1.384 . S
C309 C308 1.377 . S
C309 C315 1.390 . S
C310 H301 0.930 . S
C310 C308 1.384 . S
C310 C311 1.372 . S
C311 C310 1.372 . S
C311 C312 1.400 . S
C311 C316 1.490 . S
C312 H302 0.930 . S
C312 C311 1.400 . S
C312 C315 1.386 . S
H313 C329 0.930 . S
H314 C330 0.931 . S
C315 H303 0.929 . S
C315 C309 1.390 . S
C315 C312 1.386 . S
C316 C311 1.490 . S
C316 C318 1.395 . S
C316 C319 1.403 . S
H317 C323 0.930 . S
C318 H304 0.930 . S
C318 C316 1.395 . S
C318 C321 1.403 . S
C319 C316 1.403 . S
C319 C320 1.524 . S
C319 C323 1.400 . S
C320 H305 0.960 . S
C320 H306 0.960 . S
C320 H307 0.960 . S
C320 C319 1.524 . S
C321 C318 1.403 . S
C321 C322 1.392 . S
C321 C325 1.495 . S
C322 C321 1.392 . S
C322 C323 1.385 . S
C322 C324 1.478 . S
C323 H317 0.930 . S
C323 C319 1.400 . S
C323 C322 1.385 . S
C324 C322 1.478 . S
C324 C326 1.381 . S
C324 C330 1.383 . S
C325 C321 1.495 . S
C325 H331 0.959 . S
C325 H332 0.961 . S
C325 H333 0.960 . S
C326 C324 1.381 . S
C326 C327 1.394 . S
C326 H334 0.930 . S
C327 C326 1.394 . S
C327 C328 1.383 . S
C327 H335 0.929 . S
C328 C327 1.383 . S
C328 C329 1.377 . S
C329 H313 0.930 . S
C329 C328 1.377 . S
C329 C330 1.379 . S
C330 H314 0.931 . S
C330 C324 1.383 . S
C330 C329 1.379 . S
H331 C325 0.959 . S
H332 C325 0.961 . S
H333 C325 0.960 . S
H334 C326 0.930 . S
H335 C327 0.929 . S
H336 C344 0.929 . S
H337 C346 0.930 . S
H338 C348 0.930 . S
H339 C351 0.929 1_545 S
H340 C354 0.930 . S
H341 C356 0.960 . S
H342 C356 0.960 . S
H343 C356 0.960 . S
C344 H336 0.929 . S
C344 C345 1.377 . S
C344 C346 1.384 . S
C345 C344 1.377 . S
C345 C351 1.390 . S
C346 H337 0.930 . S
C346 C344 1.384 . S
C346 C347 1.372 . S
C347 C346 1.372 . S
C347 C348 1.400 1_565 S
C347 C352 1.490 . S
C348 H338 0.930 . S
C348 C347 1.400 1_545 S
C348 C351 1.386 1_545 S
H349 C365 0.930 . S
H350 C366 0.931 . S
C351 H339 0.929 1_565 S
C351 C345 1.390 . S
C351 C348 1.386 1_565 S
C352 C347 1.490 . S
C352 C354 1.395 . S
C352 C355 1.403 1_565 S
H353 C359 0.930 . S
C354 H340 0.930 . S
C354 C352 1.395 . S
C354 C357 1.403 . S
C355 C352 1.403 1_545 S
C355 C356 1.524 . S
C355 C359 1.400 . S
C356 H341 0.960 . S
C356 H342 0.960 . S
C356 H343 0.960 . S
C356 C355 1.524 . S
C357 C354 1.403 . S
C357 C358 1.392 1_565 S
C357 C361 1.495 . S
C358 C357 1.392 1_545 S
C358 C359 1.385 . S
C358 C360 1.478 . S
C359 H353 0.930 . S
C359 C355 1.400 . S
C359 C358 1.385 . S
C360 C358 1.478 . S
C360 C362 1.381 1_545 S
C360 C366 1.383 . S
C361 C357 1.495 . S
C361 H367 0.959 . S
C361 H368 0.961 . S
C361 H369 0.960 . S
C362 C360 1.381 1_565 S
C362 C363 1.394 1_565 S
C362 H370 0.930 . S
C363 C362 1.394 1_545 S
C363 C364 1.383 . S
C363 H371 0.929 1_545 S
C364 C363 1.383 . S
C364 C365 1.377 . S
C365 H349 0.930 . S
C365 C364 1.377 . S
C365 C366 1.379 . S
C366 H350 0.931 . S
C366 C360 1.383 . S
C366 C365 1.379 . S
H367 C361 0.959 . S
H368 C361 0.961 . S
H369 C361 0.960 . S
H370 C362 0.930 . S
H371 C363 0.929 1_565 S
H372 C380 0.929 . S
H373 C382 0.930 . S
H374 C384 0.930 . S
H375 C387 0.929 . S
H376 C390 0.930 . S
H377 C392 0.960 . S
H378 C392 0.960 . S
H379 C392 0.960 . S
C380 H372 0.929 . S
C380 C381 1.377 . S
C380 C382 1.384 . S
C381 C380 1.377 . S
C381 C387 1.390 . S
C382 H373 0.930 . S
C382 C380 1.384 . S
C382 C383 1.372 . S
C383 C382 1.372 . S
C383 C384 1.400 . S
C383 C388 1.490 . S
C384 H374 0.930 . S
C384 C383 1.400 . S
C384 C387 1.386 . S
H385 C401 0.930 . S
H386 C402 0.931 . S
C387 H375 0.929 . S
C387 C381 1.390 . S
C387 C384 1.386 . S
C388 C383 1.490 . S
C388 C390 1.395 . S
C388 C391 1.403 . S
H389 C395 0.930 . S
C390 H376 0.930 . S
C390 C388 1.395 . S
C390 C393 1.403 . S
C391 C388 1.403 . S
C391 C392 1.524 . S
C391 C395 1.400 . S
C392 H377 0.960 . S
C392 H378 0.960 . S
C392 H379 0.960 . S
C392 C391 1.524 . S
C393 C390 1.403 . S
C393 C394 1.392 . S
C393 C397 1.495 . S
C394 C393 1.392 . S
C394 C395 1.385 . S
C394 C396 1.478 . S
C395 H389 0.930 . S
C395 C391 1.400 . S
C395 C394 1.385 . S
C396 C394 1.478 . S
C396 C398 1.381 . S
C396 C402 1.383 . S
C397 C393 1.495 . S
C397 H403 0.959 . S
C397 H404 0.961 . S
C397 H405 0.960 . S
C398 C396 1.381 . S
C398 C399 1.394 . S
C398 H406 0.930 . S
C399 C398 1.394 . S
C399 C400 1.383 . S
C399 H407 0.929 . S
C400 C399 1.383 . S
C400 C401 1.377 . S
C401 H385 0.930 . S
C401 C400 1.377 . S
C401 C402 1.379 . S
C402 H386 0.931 . S
C402 C396 1.383 . S
C402 C401 1.379 . S
H403 C397 0.959 . S
H404 C397 0.961 . S
H405 C397 0.960 . S
H406 C398 0.930 . S
H407 C399 0.929 . S
H408 C416 0.929 . S
H409 C418 0.930 . S
H410 C420 0.930 . S
H411 C423 0.929 1_565 S
H412 C426 0.930 . S
H413 C428 0.960 1_565 S
H414 C428 0.960 . S
H415 C428 0.960 1_565 S
C416 H408 0.929 . S
C416 C417 1.377 . S
C416 C418 1.384 . S
C417 C416 1.377 . S
C417 C423 1.390 . S
C418 H409 0.930 . S
C418 C416 1.384 . S
C418 C419 1.372 . S
C419 C418 1.372 . S
C419 C420 1.400 1_545 S
C419 C424 1.490 . S
C420 H410 0.930 . S
C420 C419 1.400 1_565 S
C420 C423 1.386 1_565 S
H421 C437 0.930 . S
H422 C438 0.931 . S
C423 H411 0.929 1_545 S
C423 C417 1.390 . S
C423 C420 1.386 1_545 S
C424 C419 1.490 . S
C424 C426 1.395 1_554 S
C424 C427 1.403 1_455 S
H425 C431 0.930 . S
C426 H412 0.930 . S
C426 C424 1.395 1_556 S
C426 C429 1.403 . S
C427 C424 1.403 1_655 S
C427 C428 1.524 . S
C427 C431 1.400 1_545 S
C428 H413 0.960 1_545 S
C428 H414 0.960 . S
C428 H415 0.960 1_545 S
C428 C427 1.524 . S
C429 C426 1.403 . S
C429 C430 1.392 1_445 S
C429 C433 1.496 . S
C430 C429 1.392 1_665 S
C430 C431 1.385 1_556 S
C430 C432 1.478 . S
C431 H425 0.930 . S
C431 C427 1.400 1_565 S
C431 C430 1.385 1_554 S
C432 C430 1.478 . S
C432 C434 1.381 1_565 S
C432 C438 1.383 . S
C433 C429 1.496 . S
C433 H439 0.963 . S
C433 H440 0.946 1_545 S
C433 H441 0.971 . S
C434 C432 1.381 1_545 S
C434 C435 1.397 . S
C434 H442 0.930 . S
C435 C434 1.397 . S
C435 C436 1.374 1_545 S
C435 H443 0.936 . S
C436 C435 1.374 1_565 S
C436 C437 1.377 . S
C437 H421 0.930 . S
C437 C436 1.377 . S
C437 C438 1.379 . S
C438 H422 0.931 . S
C438 C432 1.383 . S
C438 C437 1.379 . S
H439 C433 0.963 . S
H440 C433 0.946 1_565 S
H441 C433 0.971 . S
H442 C434 0.930 . S
H443 C435 0.936 . S
H444 C452 0.929 1_545 S
H445 C454 0.930 1_545 S
H446 C456 0.930 . S
H447 C459 0.929 . S
H448 C462 0.930 . S
H449 C464 0.960 . S
H450 C464 0.979 . S
H451 C464 0.960 . S
C452 H444 0.929 1_565 S
C452 C453 1.377 . S
C452 C454 1.384 . S
C453 C452 1.377 . S
C453 C459 1.390 . S
C454 H445 0.930 1_565 S
C454 C452 1.384 . S
C454 C455 1.372 . S
C455 C454 1.372 . S
C455 C456 1.400 . S
C455 C460 1.490 . S
C456 H446 0.930 . S
C456 C455 1.400 . S
C456 C459 1.386 . S
H457 C473 0.930 1_565 S
H458 C474 0.931 . S
C459 H447 0.929 . S
C459 C453 1.390 . S
C459 C456 1.386 . S
C460 C455 1.490 . S
C460 C462 1.395 . S
C460 C463 1.403 1_564 S
H461 C467 0.930 . S
C462 H448 0.930 . S
C462 C460 1.395 . S
C462 C465 1.403 . S
C463 C460 1.403 1_546 S
C463 C464 1.524 . S
C463 C467 1.400 . S
C464 H449 0.960 . S
C464 H450 0.979 . S
C464 H451 0.960 . S
C464 C463 1.524 . S
C465 C462 1.403 . S
C465 C466 1.392 1_564 S
C465 C469 1.495 . S
C466 C465 1.392 1_546 S
C466 C467 1.385 . S
C466 C468 1.478 . S
C467 H461 0.930 . S
C467 C463 1.400 . S
C467 C466 1.385 . S
C468 C466 1.478 . S
C468 C470 1.381 . S
C468 C474 1.383 1_545 S
C469 C465 1.495 . S
C469 H475 0.959 . S
C469 H476 0.961 . S
C469 H477 0.960 1_565 S
C470 C468 1.381 . S
C470 C471 1.394 . S
C470 H478 0.930 . S
C471 C470 1.394 . S
C471 C472 1.383 . S
C471 H479 0.929 . S
C472 C471 1.383 . S
C472 C473 1.377 . S
C473 H457 0.930 1_545 S
C473 C472 1.377 . S
C473 C474 1.379 1_545 S
C474 H458 0.931 . S
C474 C468 1.383 1_565 S
C474 C473 1.379 1_565 S
H475 C469 0.959 . S
H476 C469 0.961 . S
H477 C469 0.960 1_545 S
H478 C470 0.930 . S
H479 C471 0.929 . S
H480 C488 0.929 . S
H481 C490 0.930 . S
H482 C492 0.930 . S
H483 C495 0.929 . S
H484 C498 0.930 . S
H485 C500 0.960 . S
H486 C500 0.960 . S
H487 C500 0.960 . S
C488 H480 0.929 . S
C488 C489 1.377 . S
C488 C490 1.384 . S
C489 C488 1.377 . S
C489 C495 1.390 . S
C490 H481 0.930 . S
C490 C488 1.384 . S
C490 C491 1.372 . S
C491 C490 1.372 . S
C491 C492 1.400 . S
C491 C496 1.490 . S
C492 H482 0.930 . S
C492 C491 1.400 . S
C492 C495 1.386 . S
H493 C509 0.930 . S
H494 C510 0.931 . S
C495 H483 0.929 . S
C495 C489 1.390 . S
C495 C492 1.386 . S
C496 C491 1.490 . S
C496 C498 1.395 1_455 S
C496 C499 1.403 . S
H497 C503 0.928 1_455 S
C498 H484 0.930 . S
C498 C496 1.395 1_655 S
C498 C501 1.403 . S
C499 C496 1.403 . S
C499 C500 1.524 . S
C499 C503 1.388 1_455 S
C500 H485 0.960 . S
C500 H486 0.960 . S
C500 H487 0.960 . S
C500 C499 1.524 . S
C501 C498 1.403 . S
C501 C502 1.392 . S
C501 C505 1.495 . S
C502 C501 1.392 . S
C502 C503 1.398 . S
C502 C504 1.478 . S
C503 H497 0.928 1_655 S
C503 C499 1.388 1_655 S
C503 C502 1.398 . S
C504 C502 1.478 . S
C504 C506 1.381 . S
C504 C510 1.383 . S
C505 C501 1.495 . S
C505 H511 0.959 . S
C505 H512 0.961 . S
C505 H513 0.960 . S
C506 C504 1.381 . S
C506 C507 1.394 . S
C506 H514 0.930 . S
C507 C506 1.394 . S
C507 C508 1.383 . S
C507 H515 0.929 . S
C508 C507 1.383 . S
C508 C509 1.377 . S
C509 H493 0.930 . S
C509 C508 1.377 . S
C509 C510 1.379 . S
C510 H494 0.931 . S
C510 C504 1.383 . S
C510 C509 1.379 . S
H511 C505 0.959 . S
H512 C505 0.961 . S
H513 C505 0.960 . S
H514 C506 0.930 . S
H515 C507 0.929 . S
H516 C524 0.929 . S
H517 C526 0.930 . S
H518 C528 0.930 . S
H519 C531 0.929 . S
H520 C534 0.930 . S
H521 C536 0.960 . S
H522 C536 0.960 . S
H523 C536 0.960 . S
C524 H516 0.929 . S
C524 C525 1.377 . S
C524 C526 1.384 . S
C525 C524 1.377 . S
C525 C531 1.390 . S
C526 H517 0.930 . S
C526 C524 1.384 . S
C526 C527 1.372 . S
C527 C526 1.372 . S
C527 C528 1.400 . S
C527 C532 1.490 . S
C528 H518 0.930 . S
C528 C527 1.400 . S
C528 C531 1.386 . S
H529 C545 0.930 . S
H530 C546 0.931 . S
C531 H519 0.929 . S
C531 C525 1.390 . S
C531 C528 1.386 . S
C532 C527 1.490 . S
C532 C534 1.395 . S
C532 C535 1.403 . S
H533 C539 0.930 . S
C534 H520 0.930 . S
C534 C532 1.395 . S
C534 C537 1.403 . S
C535 C532 1.403 . S
C535 C536 1.524 . S
C535 C539 1.400 . S
C536 H521 0.960 . S
C536 H522 0.960 . S
C536 H523 0.960 . S
C536 C535 1.524 . S
C537 C534 1.403 . S
C537 C538 1.392 . S
C537 C541 1.495 . S
C538 C537 1.392 . S
C538 C539 1.385 . S
C538 C540 1.478 . S
C539 H533 0.930 . S
C539 C535 1.400 . S
C539 C538 1.385 . S
C540 C538 1.478 . S
C540 C542 1.381 . S
C540 C546 1.383 . S
C541 C537 1.495 . S
C541 H547 0.959 . S
C541 H548 0.961 . S
C541 H549 0.960 . S
C542 C540 1.381 . S
C542 C543 1.394 . S
C542 H550 0.930 . S
C543 C542 1.394 . S
C543 C544 1.383 . S
C543 H551 0.929 . S
C544 C543 1.383 . S
C544 C545 1.377 . S
C545 H529 0.930 . S
C545 C544 1.377 . S
C545 C546 1.379 . S
C546 H530 0.931 . S
C546 C540 1.383 . S
C546 C545 1.379 . S
H547 C541 0.959 . S
H548 C541 0.961 . S
H549 C541 0.960 . S
H550 C542 0.930 . S
H551 C543 0.929 . S
H552 C560 0.929 . S
H553 C562 0.930 . S
H554 C564 0.930 . S
H555 C567 0.929 . S
H556 C570 0.930 . S
H557 C572 0.960 . S
H558 C572 0.960 . S
H559 C572 0.960 . S
C560 H552 0.929 . S
C560 C561 1.377 . S
C560 C562 1.384 . S
C561 C560 1.377 . S
C561 C567 1.390 . S
C562 H553 0.930 . S
C562 C560 1.384 . S
C562 C563 1.372 . S
C563 C562 1.372 . S
C563 C564 1.400 . S
C563 C568 1.490 . S
C564 H554 0.930 . S
C564 C563 1.400 . S
C564 C567 1.386 . S
H565 C581 0.930 . S
H566 C582 0.931 . S
C567 H555 0.929 . S
C567 C561 1.390 . S
C567 C564 1.386 . S
C568 C563 1.490 . S
C568 C570 1.395 . S
C568 C571 1.403 . S
H569 C575 0.930 . S
C570 H556 0.930 . S
C570 C568 1.395 . S
C570 C573 1.403 . S
C571 C568 1.403 . S
C571 C572 1.524 . S
C571 C575 1.400 . S
C572 H557 0.960 . S
C572 H558 0.960 . S
C572 H559 0.960 . S
C572 C571 1.524 . S
C573 C570 1.403 . S
C573 C574 1.392 . S
C573 C577 1.495 . S
C574 C573 1.392 . S
C574 C575 1.385 . S
C574 C576 1.478 . S
C575 H569 0.930 . S
C575 C571 1.400 . S
C575 C574 1.385 . S
C576 C574 1.478 . S
C576 C578 1.381 . S
C576 C582 1.383 . S
C577 C573 1.495 . S
C577 H583 0.959 . S
C577 H584 0.961 . S
C577 H585 0.960 . S
C578 C576 1.381 . S
C578 C579 1.394 . S
C578 H586 0.930 . S
C579 C578 1.394 . S
C579 C580 1.383 . S
C579 H587 0.929 . S
C580 C579 1.383 . S
C580 C581 1.377 . S
C581 H565 0.930 . S
C581 C580 1.377 . S
C581 C582 1.379 . S
C582 H566 0.931 . S
C582 C576 1.383 . S
C582 C581 1.379 . S
H583 C577 0.959 . S
H584 C577 0.961 . S
H585 C577 0.960 . S
H586 C578 0.930 . S
H587 C579 0.929 . S
H588 C596 0.929 . S
H589 C598 0.930 . S
H590 C600 0.930 . S
H591 C603 0.929 . S
H592 C606 0.930 . S
H593 C608 0.960 . S
H594 C608 0.960 . S
H595 C608 0.960 . S
C596 H588 0.929 . S
C596 C597 1.377 . S
C596 C598 1.384 . S
C597 C596 1.377 . S
C597 C603 1.390 . S
C598 H589 0.930 . S
C598 C596 1.384 . S
C598 C599 1.372 . S
C599 C598 1.372 . S
C599 C600 1.400 . S
C599 C604 1.490 . S
C600 H590 0.930 . S
C600 C599 1.400 . S
C600 C603 1.386 . S
H601 C617 0.930 . S
H602 C618 0.931 . S
C603 H591 0.929 . S
C603 C597 1.390 . S
C603 C600 1.386 . S
C604 C599 1.490 . S
C604 C606 1.395 . S
C604 C607 1.403 . S
H605 C611 0.930 . S
C606 H592 0.930 . S
C606 C604 1.395 . S
C606 C609 1.403 . S
C607 C604 1.403 . S
C607 C608 1.524 . S
C607 C611 1.400 . S
C608 H593 0.960 . S
C608 H594 0.960 . S
C608 H595 0.960 . S
C608 C607 1.524 . S
C609 C606 1.403 . S
C609 C610 1.392 . S
C609 C613 1.495 . S
C610 C609 1.392 . S
C610 C611 1.385 . S
C610 C612 1.478 . S
C611 H605 0.930 . S
C611 C607 1.400 . S
C611 C610 1.385 . S
C612 C610 1.478 . S
C612 C614 1.381 . S
C612 C618 1.383 . S
C613 C609 1.495 . S
C613 H619 0.959 . S
C613 H620 0.961 . S
C613 H621 0.960 . S
C614 C612 1.381 . S
C614 C615 1.394 . S
C614 H622 0.930 . S
C615 C614 1.394 . S
C615 C616 1.383 . S
C615 H623 0.929 . S
C616 C615 1.383 . S
C616 C617 1.377 . S
C617 H601 0.930 . S
C617 C616 1.377 . S
C617 C618 1.379 . S
C618 H602 0.931 . S
C618 C612 1.383 . S
C618 C617 1.379 . S
H619 C613 0.959 . S
H620 C613 0.961 . S
H621 C613 0.960 . S
H622 C614 0.930 . S
H623 C615 0.929 . S
H624 C632 0.929 . S
H625 C634 0.930 . S
H626 C636 0.930 . S
H627 C639 0.929 . S
H628 C642 0.930 . S
H629 C644 0.960 . S
H630 C644 0.960 . S
H631 C644 0.960 . S
C632 H624 0.929 . S
C632 C633 1.377 . S
C632 C634 1.384 . S
C633 C632 1.377 . S
C633 C639 1.390 . S
C634 H625 0.930 . S
C634 C632 1.384 . S
C634 C635 1.372 . S
C635 C634 1.372 . S
C635 C636 1.400 . S
C635 C640 1.490 . S
C636 H626 0.930 . S
C636 C635 1.400 . S
C636 C639 1.386 . S
H637 C653 0.930 . S
H638 C654 0.931 . S
C639 H627 0.929 . S
C639 C633 1.390 . S
C639 C636 1.386 . S
C640 C635 1.490 . S
C640 C642 1.395 . S
C640 C643 1.403 . S
H641 C647 0.930 . S
C642 H628 0.930 . S
C642 C640 1.395 . S
C642 C645 1.403 . S
C643 C640 1.403 . S
C643 C644 1.524 . S
C643 C647 1.400 . S
C644 H629 0.960 . S
C644 H630 0.960 . S
C644 H631 0.960 . S
C644 C643 1.524 . S
C645 C642 1.403 . S
C645 C646 1.392 . S
C645 C649 1.495 . S
C646 C645 1.392 . S
C646 C647 1.385 . S
C646 C648 1.478 . S
C647 H641 0.930 . S
C647 C643 1.400 . S
C647 C646 1.385 . S
C648 C646 1.478 . S
C648 C650 1.381 . S
C648 C654 1.383 . S
C649 C645 1.495 . S
C649 H655 0.959 . S
C649 H656 0.961 . S
C649 H657 0.960 . S
C650 C648 1.381 . S
C650 C651 1.394 . S
C650 H658 0.930 . S
C651 C650 1.394 . S
C651 C652 1.383 . S
C651 H659 0.929 . S
C652 C651 1.383 . S
C652 C653 1.377 . S
C653 H637 0.930 . S
C653 C652 1.377 . S
C653 C654 1.379 . S
C654 H638 0.931 . S
C654 C648 1.383 . S
C654 C653 1.379 . S
H655 C649 0.959 . S
H656 C649 0.961 . S
H657 C649 0.960 . S
H658 C650 0.930 . S
H659 C651 0.929 . S
H660 C668 0.929 . S
H661 C670 0.930 . S
H662 C672 0.930 . S
H663 C675 0.929 . S
H664 C678 0.930 . S
H665 C680 0.960 . S
H666 C680 0.960 . S
H667 C680 0.960 . S
C668 H660 0.929 . S
C668 C669 1.377 . S
C668 C670 1.384 . S
C669 C668 1.377 . S
C669 C675 1.390 . S
C670 H661 0.930 . S
C670 C668 1.384 . S
C670 C671 1.372 . S
C671 C670 1.372 . S
C671 C672 1.400 . S
C671 C676 1.490 . S
C672 H662 0.930 . S
C672 C671 1.400 . S
C672 C675 1.386 . S
H673 C689 0.930 . S
H674 C690 0.931 . S
C675 H663 0.929 . S
C675 C669 1.390 . S
C675 C672 1.386 . S
C676 C671 1.490 . S
C676 C678 1.395 . S
C676 C679 1.403 . S
H677 C683 0.930 . S
C678 H664 0.930 . S
C678 C676 1.395 . S
C678 C681 1.403 . S
C679 C676 1.403 . S
C679 C680 1.524 . S
C679 C683 1.400 . S
C680 H665 0.960 . S
C680 H666 0.960 . S
C680 H667 0.960 . S
C680 C679 1.524 . S
C681 C678 1.403 . S
C681 C682 1.392 . S
C681 C685 1.495 . S
C682 C681 1.392 . S
C682 C683 1.385 . S
C682 C684 1.478 . S
C683 H677 0.930 . S
C683 C679 1.400 . S
C683 C682 1.385 . S
C684 C682 1.478 . S
C684 C686 1.381 . S
C684 C690 1.383 . S
C685 C681 1.495 . S
C685 H691 0.959 . S
C685 H692 0.961 . S
C685 H693 0.960 . S
C686 C684 1.381 . S
C686 C687 1.394 . S
C686 H694 0.930 . S
C687 C686 1.394 . S
C687 C688 1.383 . S
C687 H695 0.929 . S
C688 C687 1.383 . S
C688 C689 1.377 . S
C689 H673 0.930 . S
C689 C688 1.377 . S
C689 C690 1.379 . S
C690 H674 0.931 . S
C690 C684 1.383 . S
C690 C689 1.379 . S
H691 C685 0.959 . S
H692 C685 0.961 . S
H693 C685 0.960 . S
H694 C686 0.930 . S
H695 C687 0.929 . S
H696 C704 0.929 . S
H697 C706 0.930 . S
H698 C708 0.930 . S
H699 C711 0.929 . S
H700 C714 0.930 . S
H701 C716 0.960 . S
H702 C716 0.960 . S
H703 C716 0.960 . S
C704 H696 0.929 . S
C704 C705 1.377 . S
C704 C706 1.384 . S
C705 C704 1.377 . S
C705 C711 1.390 . S
C706 H697 0.930 . S
C706 C704 1.384 . S
C706 C707 1.372 . S
C707 C706 1.372 . S
C707 C708 1.400 . S
C707 C712 1.490 . S
C708 H698 0.930 . S
C708 C707 1.400 . S
C708 C711 1.386 . S
H709 C725 0.930 . S
H710 C726 0.931 . S
C711 H699 0.929 . S
C711 C705 1.390 . S
C711 C708 1.386 . S
C712 C707 1.490 . S
C712 C714 1.395 . S
C712 C715 1.403 . S
H713 C719 0.930 . S
C714 H700 0.930 . S
C714 C712 1.395 . S
C714 C717 1.403 . S
C715 C712 1.403 . S
C715 C716 1.524 . S
C715 C719 1.400 . S
C716 H701 0.960 . S
C716 H702 0.960 . S
C716 H703 0.960 . S
C716 C715 1.524 . S
C717 C714 1.403 . S
C717 C718 1.392 . S
C717 C721 1.495 . S
C718 C717 1.392 . S
C718 C719 1.385 . S
C718 C720 1.478 . S
C719 H713 0.930 . S
C719 C715 1.400 . S
C719 C718 1.385 . S
C720 C718 1.478 . S
C720 C722 1.381 . S
C720 C726 1.383 . S
C721 C717 1.495 . S
C721 H727 0.959 . S
C721 H728 0.961 . S
C721 H729 0.960 . S
C722 C720 1.381 . S
C722 C723 1.394 . S
C722 H730 0.930 . S
C723 C722 1.394 . S
C723 C724 1.383 . S
C723 H731 0.929 . S
C724 C723 1.383 . S
C724 C725 1.377 . S
C725 H709 0.930 . S
C725 C724 1.377 . S
C725 C726 1.379 . S
C726 H710 0.931 . S
C726 C720 1.383 . S
C726 C725 1.379 . S
H727 C721 0.959 . S
H728 C721 0.961 . S
H729 C721 0.960 . S
H730 C722 0.930 . S
H731 C723 0.929 . S
H732 C740 0.929 . S
H733 C742 0.930 . S
H734 C744 0.930 . S
H735 C747 0.929 . S
H736 C750 0.930 . S
H737 C752 0.960 . S
H738 C752 0.960 . S
H739 C752 0.960 . S
C740 H732 0.929 . S
C740 C741 1.377 . S
C740 C742 1.384 . S
C741 C740 1.377 . S
C741 C747 1.390 . S
C742 H733 0.930 . S
C742 C740 1.384 . S
C742 C743 1.372 . S
C743 C742 1.372 . S
C743 C744 1.400 . S
C743 C748 1.490 . S
C744 H734 0.930 . S
C744 C743 1.400 . S
C744 C747 1.386 . S
H745 C761 0.930 . S
H746 C762 0.931 . S
C747 H735 0.929 . S
C747 C741 1.390 . S
C747 C744 1.386 . S
C748 C743 1.490 . S
C748 C750 1.395 . S
C748 C751 1.403 . S
H749 C755 0.930 . S
C750 H736 0.930 . S
C750 C748 1.395 . S
C750 C753 1.403 . S
C751 C748 1.403 . S
C751 C752 1.524 . S
C751 C755 1.400 . S
C752 H737 0.960 . S
C752 H738 0.960 . S
C752 H739 0.960 . S
C752 C751 1.524 . S
C753 C750 1.403 . S
C753 C754 1.392 . S
C753 C757 1.495 . S
C754 C753 1.392 . S
C754 C755 1.385 . S
C754 C756 1.478 . S
C755 H749 0.930 . S
C755 C751 1.400 . S
C755 C754 1.385 . S
C756 C754 1.478 . S
C756 C758 1.381 . S
C756 C762 1.383 . S
C757 C753 1.495 . S
C757 H763 0.959 . S
C757 H764 0.961 . S
C757 H765 0.960 . S
C758 C756 1.381 . S
C758 C759 1.394 . S
C758 H766 0.930 . S
C759 C758 1.394 . S
C759 C760 1.383 . S
C759 H767 0.929 . S
C760 C759 1.383 . S
C760 C761 1.377 . S
C761 H745 0.930 . S
C761 C760 1.377 . S
C761 C762 1.379 . S
C762 H746 0.931 . S
C762 C756 1.383 . S
C762 C761 1.379 . S
H763 C757 0.959 . S
H764 C757 0.961 . S
H765 C757 0.960 . S
H766 C758 0.930 . S
H767 C759 0.929 . S
H768 C776 0.929 . S
H769 C778 0.930 . S
H770 C780 0.930 . S
H771 C783 0.929 . S
H772 C786 0.930 . S
H773 C788 0.960 . S
H774 C788 0.960 . S
H775 C788 0.950 1_545 S
C776 H768 0.929 . S
C776 C777 1.377 . S
C776 C778 1.384 . S
C777 C776 1.377 . S
C777 C783 1.390 . S
C778 H769 0.930 . S
C778 C776 1.384 . S
C778 C779 1.372 . S
C779 C778 1.372 . S
C779 C780 1.400 . S
C779 C784 1.490 1_545 S
C780 H770 0.930 . S
C780 C779 1.400 . S
C780 C783 1.386 . S
H781 C797 0.930 . S
H782 C798 0.931 . S
C783 H771 0.929 . S
C783 C777 1.390 . S
C783 C780 1.386 . S
C784 C779 1.490 1_565 S
C784 C786 1.395 . S
C784 C787 1.403 . S
H785 C791 0.930 . S
C786 H772 0.930 . S
C786 C784 1.395 . S
C786 C789 1.403 . S
C787 C784 1.403 . S
C787 C788 1.524 . S
C787 C791 1.400 . S
C788 H773 0.960 . S
C788 H774 0.960 . S
C788 H775 0.950 1_565 S
C788 C787 1.524 . S
C789 C786 1.403 . S
C789 C790 1.392 . S
C789 C793 1.495 . S
C790 C789 1.392 . S
C790 C791 1.385 . S
C790 C792 1.478 . S
C791 H785 0.930 . S
C791 C787 1.400 . S
C791 C790 1.385 . S
C792 C790 1.478 . S
C792 C794 1.381 . S
C792 C798 1.383 . S
C793 C789 1.495 . S
C793 H799 0.959 . S
C793 H800 0.961 . S
C793 H801 0.960 . S
C794 C792 1.381 . S
C794 C795 1.394 . S
C794 H802 0.930 . S
C795 C794 1.394 . S
C795 C796 1.383 . S
C795 H803 0.929 . S
C796 C795 1.383 . S
C796 C797 1.377 . S
C797 H781 0.930 . S
C797 C796 1.377 . S
C797 C798 1.379 . S
C798 H782 0.931 . S
C798 C792 1.383 . S
C798 C797 1.379 . S
H799 C793 0.959 . S
H800 C793 0.961 . S
H801 C793 0.960 . S
H802 C794 0.930 . S
H803 C795 0.929 . S
H804 C812 0.929 . S
H805 C814 0.930 . S
H806 C816 0.930 . S
H807 C819 0.929 . S
H808 C822 0.930 . S
H809 C824 0.960 . S
H810 C824 0.960 . S
H811 C824 0.960 . S
C812 H804 0.929 . S
C812 C813 1.377 . S
C812 C814 1.384 . S
C813 C812 1.377 . S
C813 C819 1.390 . S
C814 H805 0.930 . S
C814 C812 1.384 . S
C814 C815 1.372 . S
C815 C814 1.372 . S
C815 C816 1.400 . S
C815 C820 1.490 1_565 S
C816 H806 0.930 . S
C816 C815 1.400 . S
C816 C819 1.386 . S
H817 C833 0.930 . S
H818 C834 0.931 . S
C819 H807 0.929 . S
C819 C813 1.390 . S
C819 C816 1.386 . S
C820 C815 1.490 1_545 S
C820 C822 1.395 . S
C820 C823 1.403 . S
H821 C827 0.930 . S
C822 H808 0.930 . S
C822 C820 1.395 . S
C822 C825 1.403 . S
C823 C820 1.403 . S
C823 C824 1.524 . S
C823 C827 1.400 . S
C824 H809 0.960 . S
C824 H810 0.960 . S
C824 H811 0.960 . S
C824 C823 1.524 . S
C825 C822 1.403 . S
C825 C826 1.392 . S
C825 C829 1.495 . S
C826 C825 1.392 . S
C826 C827 1.385 . S
C826 C828 1.478 . S
C827 H821 0.930 . S
C827 C823 1.400 . S
C827 C826 1.385 . S
C828 C826 1.478 . S
C828 C830 1.381 . S
C828 C834 1.383 . S
C829 C825 1.495 . S
C829 H835 0.959 . S
C829 H836 0.961 . S
C829 H837 0.960 . S
C830 C828 1.381 . S
C830 C831 1.394 . S
C830 H838 0.930 . S
C831 C830 1.394 . S
C831 C832 1.383 . S
C831 H839 0.929 . S
C832 C831 1.383 . S
C832 C833 1.377 . S
C833 H817 0.930 . S
C833 C832 1.377 . S
C833 C834 1.379 . S
C834 H818 0.931 . S
C834 C828 1.383 . S
C834 C833 1.379 . S
H835 C829 0.959 . S
H836 C829 0.961 . S
H837 C829 0.960 . S
H838 C830 0.930 . S
H839 C831 0.929 . S
H840 C848 0.929 . S
H841 C850 0.930 . S
H842 C852 0.930 . S
H843 C855 0.929 . S
H844 C858 0.930 . S
H845 C860 0.960 . S
H846 C860 0.960 . S
H847 C860 0.960 . S
C848 H840 0.929 . S
C848 C849 1.377 . S
C848 C850 1.384 . S
C849 C848 1.377 . S
C849 C855 1.390 . S
C850 H841 0.930 . S
C850 C848 1.384 . S
C850 C851 1.372 . S
C851 C850 1.372 . S
C851 C852 1.400 . S
C851 C856 1.490 . S
C852 H842 0.930 . S
C852 C851 1.400 . S
C852 C855 1.386 . S
H853 C869 0.930 . S
H854 C870 0.931 . S
C855 H843 0.929 . S
C855 C849 1.390 . S
C855 C852 1.386 . S
C856 C851 1.490 . S
C856 C858 1.395 . S
C856 C859 1.403 . S
H857 C863 0.930 . S
C858 H844 0.930 . S
C858 C856 1.395 . S
C858 C861 1.403 . S
C859 C856 1.403 . S
C859 C860 1.524 . S
C859 C863 1.400 . S
C860 H845 0.960 . S
C860 H846 0.960 . S
C860 H847 0.960 . S
C860 C859 1.524 . S
C861 C858 1.403 . S
C861 C862 1.392 . S
C861 C865 1.495 . S
C862 C861 1.392 . S
C862 C863 1.385 . S
C862 C864 1.478 . S
C863 H857 0.930 . S
C863 C859 1.400 . S
C863 C862 1.385 . S
C864 C862 1.478 . S
C864 C866 1.381 . S
C864 C870 1.383 . S
C865 C861 1.495 . S
C865 H871 0.959 . S
C865 H872 0.961 . S
C865 H873 0.960 . S
C866 C864 1.381 . S
C866 C867 1.394 . S
C866 H874 0.930 . S
C867 C866 1.394 . S
C867 C868 1.383 . S
C867 H875 0.929 . S
C868 C867 1.383 . S
C868 C869 1.377 . S
C869 H853 0.930 . S
C869 C868 1.377 . S
C869 C870 1.379 . S
C870 H854 0.931 . S
C870 C864 1.383 . S
C870 C869 1.379 . S
H871 C865 0.959 . S
H872 C865 0.961 . S
H873 C865 0.960 . S
H874 C866 0.930 . S
H875 C867 0.929 . S
H876 C884 0.929 . S
H877 C886 0.930 . S
H878 C888 0.930 . S
H879 C891 0.929 . S
H880 C894 0.930 . S
H881 C896 0.960 . S
H882 C896 0.960 . S
H883 C896 0.960 . S
C884 H876 0.929 . S
C884 C885 1.377 . S
C884 C886 1.384 . S
C885 C884 1.377 . S
C885 C891 1.390 . S
C886 H877 0.930 . S
C886 C884 1.384 . S
C886 C887 1.372 . S
C887 C886 1.372 . S
C887 C888 1.400 . S
C887 C892 1.490 . S
C888 H878 0.930 . S
C888 C887 1.400 . S
C888 C891 1.386 . S
H889 C905 0.930 . S
H890 C906 0.931 . S
C891 H879 0.929 . S
C891 C885 1.390 . S
C891 C888 1.386 . S
C892 C887 1.490 . S
C892 C894 1.395 . S
C892 C895 1.403 . S
H893 C899 0.930 . S
C894 H880 0.930 . S
C894 C892 1.395 . S
C894 C897 1.403 . S
C895 C892 1.403 . S
C895 C896 1.524 . S
C895 C899 1.400 . S
C896 H881 0.960 . S
C896 H882 0.960 . S
C896 H883 0.960 . S
C896 C895 1.524 . S
C897 C894 1.403 . S
C897 C898 1.392 . S
C897 C901 1.495 . S
C898 C897 1.392 . S
C898 C899 1.385 . S
C898 C900 1.478 . S
C899 H893 0.930 . S
C899 C895 1.400 . S
C899 C898 1.385 . S
C900 C898 1.478 . S
C900 C902 1.381 . S
C900 C906 1.383 . S
C901 C897 1.495 . S
C901 H907 0.959 . S
C901 H908 0.961 . S
C901 H909 0.960 . S
C902 C900 1.381 . S
C902 C903 1.394 . S
C902 H910 0.930 . S
C903 C902 1.394 . S
C903 C904 1.383 . S
C903 H911 0.929 . S
C904 C903 1.383 . S
C904 C905 1.377 . S
C905 H889 0.930 . S
C905 C904 1.377 . S
C905 C906 1.379 . S
C906 H890 0.931 . S
C906 C900 1.383 . S
C906 C905 1.379 . S
H907 C901 0.959 . S
H908 C901 0.961 . S
H909 C901 0.960 . S
H910 C902 0.930 . S
H911 C903 0.929 . S
H912 C920 0.929 . S
H913 C922 0.930 . S
H914 C924 0.930 . S
H915 C927 0.929 . S
H916 C930 0.930 . S
H917 C932 0.960 . S
H918 C932 0.960 . S
H919 C932 0.960 . S
C920 H912 0.929 . S
C920 C921 1.377 . S
C920 C922 1.384 . S
C921 C920 1.377 . S
C921 C927 1.390 . S
C922 H913 0.930 . S
C922 C920 1.384 . S
C922 C923 1.372 . S
C923 C922 1.372 . S
C923 C924 1.400 . S
C923 C928 1.490 1_565 S
C924 H914 0.930 . S
C924 C923 1.400 . S
C924 C927 1.386 . S
H925 C941 0.930 . S
H926 C942 0.931 . S
C927 H915 0.929 . S
C927 C921 1.390 . S
C927 C924 1.386 . S
C928 C923 1.490 1_545 S
C928 C930 1.395 . S
C928 C931 1.403 . S
H929 C935 0.930 . S
C930 H916 0.930 . S
C930 C928 1.395 . S
C930 C933 1.403 . S
C931 C928 1.403 . S
C931 C932 1.524 . S
C931 C935 1.400 . S
C932 H917 0.960 . S
C932 H918 0.960 . S
C932 H919 0.960 . S
C932 C931 1.524 . S
C933 C930 1.403 . S
C933 C934 1.392 . S
C933 C937 1.495 . S
C934 C933 1.392 . S
C934 C935 1.385 . S
C934 C936 1.478 . S
C935 H929 0.930 . S
C935 C931 1.400 . S
C935 C934 1.385 . S
C936 C934 1.478 . S
C936 C938 1.381 . S
C936 C942 1.383 . S
C937 C933 1.495 . S
C937 H943 0.959 . S
C937 H944 0.961 . S
C937 H945 0.960 . S
C938 C936 1.381 . S
C938 C939 1.394 . S
C938 H946 0.930 . S
C939 C938 1.394 . S
C939 C940 1.383 . S
C939 H947 0.929 . S
C940 C939 1.383 . S
C940 C941 1.377 . S
C941 H925 0.930 . S
C941 C940 1.377 . S
C941 C942 1.379 . S
C942 H926 0.931 . S
C942 C936 1.383 . S
C942 C941 1.379 . S
H943 C937 0.959 . S
H944 C937 0.961 . S
H945 C937 0.960 . S
H946 C938 0.930 . S
H947 C939 0.929 . S
H948 C956 0.929 . S
H949 C958 0.930 . S
H950 C960 0.930 . S
H951 C963 0.929 . S
H952 C966 0.930 . S
H953 C968 0.960 . S
H954 C968 0.960 . S
H955 C968 0.960 . S
C956 H948 0.929 . S
C956 C957 1.377 . S
C956 C958 1.384 . S
C957 C956 1.377 . S
C957 C963 1.390 . S
C958 H949 0.930 . S
C958 C956 1.384 . S
C958 C959 1.372 . S
C959 C958 1.372 . S
C959 C960 1.400 . S
C959 C964 1.490 . S
C960 H950 0.930 . S
C960 C959 1.400 . S
C960 C963 1.386 . S
H961 C977 0.930 . S
H962 C978 0.931 . S
C963 H951 0.929 . S
C963 C957 1.390 . S
C963 C960 1.386 . S
C964 C959 1.490 . S
C964 C966 1.395 . S
C964 C967 1.403 . S
H965 C971 0.930 . S
C966 H952 0.930 . S
C966 C964 1.395 . S
C966 C969 1.403 . S
C967 C964 1.403 . S
C967 C968 1.524 . S
C967 C971 1.400 . S
C968 H953 0.960 . S
C968 H954 0.960 . S
C968 H955 0.960 . S
C968 C967 1.524 . S
C969 C966 1.403 . S
C969 C970 1.392 . S
C969 C973 1.495 . S
C970 C969 1.392 . S
C970 C971 1.385 . S
C970 C972 1.478 1_565 S
C971 H965 0.930 . S
C971 C967 1.400 . S
C971 C970 1.385 . S
C972 C970 1.478 1_545 S
C972 C974 1.381 . S
C972 C978 1.383 . S
C973 C969 1.495 . S
C973 H979 0.959 . S
C973 H980 0.961 . S
C973 H981 0.960 . S
C974 C972 1.381 . S
C974 C975 1.394 . S
C974 H982 0.930 . S
C975 C974 1.394 . S
C975 C976 1.383 . S
C975 H983 0.929 . S
C976 C975 1.383 . S
C976 C977 1.377 . S
C977 H961 0.930 . S
C977 C976 1.377 . S
C977 C978 1.379 . S
C978 H962 0.931 . S
C978 C972 1.383 . S
C978 C977 1.379 . S
H979 C973 0.959 . S
H980 C973 0.961 . S
H981 C973 0.960 . S
H982 C974 0.930 . S
H983 C975 0.929 . S
C273 C21 1.483 . S
C292 C54 1.470 . S
C309 C120 1.480 . S
C328 C87 1.492 . S
C345 C153 1.480 . S
C364 C186 1.479 . S
C381 C252 1.484 . S
C400 C219 1.485 . S
C417 C18 1.062 . S
C436 C150 1.056 . S
C453 C51 1.059 . S
C472 C183 1.058 . S
C489 C84 1.059 . S
C508 C216 1.055 . S
C525 C117 1.062 . S
C544 C249 1.056 . S
C561 C73 1.372 . S
C580 C7 1.379 . S
C597 C106 1.369 . S
C616 C40 1.390 . S
C633 C139 1.376 . S
C652 C205 1.392 . S
C669 C172 1.374 . S
C688 C238 1.390 . S
C705 N13 1.196 . S
C724 N2 1.170 . S
C741 N46 1.197 . S
C760 N35 1.172 . S
C777 N68 1.199 . S
C796 N79 1.190 . S
C813 N101 1.191 . S
C832 N112 1.172 . S
C849 N134 1.191 . S
C868 N145 1.172 . S
C885 N178 1.197 . S
C904 N167 1.173 . S
C921 N200 1.199 . S
C940 N211 1.217 . S
C957 N244 1.193 . S
C976 N233 1.195 . S
