# Generated by pormake.
# Topology uni, (4)-cn, num edge types: 1
# Building blocks:
#     Node 0, Type 0, BuildingBlock: KUFVIS_clean_sbu_0, # of connection points: 4
#     Node 1, Type 0, BuildingBlock: KUFVIS_clean_sbu_0, # of connection points: 4
#     Node 2, Type 0, BuildingBlock: KUFVIS_clean_sbu_0, # of connection points: 4
#     Node 3, Type 0, BuildingBlock: KUFVIS_clean_sbu_0, # of connection points: 4
#     Node 4, Type 0, BuildingBlock: KUFVIS_clean_sbu_0, # of connection points: 4
#     Node 5, Type 0, BuildingBlock: KUFVIS_clean_sbu_0, # of connection points: 4
#     Edge 6, Type (0, 0), BuildingBlock: CIFDUS_clean_linker_0, # of connection points: 2
#     Edge 7, Type (0, 0), BuildingBlock: CIFDUS_clean_linker_0, # of connection points: 2
#     Edge 8, Type (0, 0), BuildingBlock: CIFDUS_clean_linker_0, # of connection points: 2
#     Edge 9, Type (0, 0), BuildingBlock: CIFDUS_clean_linker_0, # of connection points: 2
#     Edge 10, Type (0, 0), BuildingBlock: CIFDUS_clean_linker_0, # of connection points: 2
#     Edge 11, Type (0, 0), BuildingBlock: CIFDUS_clean_linker_0, # of connection points: 2
#     Edge 12, Type (0, 0), BuildingBlock: CIFDUS_clean_linker_0, # of connection points: 2
#     Edge 13, Type (0, 0), BuildingBlock: CIFDUS_clean_linker_0, # of connection points: 2
#     Edge 14, Type (0, 0), BuildingBlock: CIFDUS_clean_linker_0, # of connection points: 2
#     Edge 15, Type (0, 0), BuildingBlock: CIFDUS_clean_linker_0, # of connection points: 2
#     Edge 16, Type (0, 0), BuildingBlock: CIFDUS_clean_linker_0, # of connection points: 2
#     Edge 17, Type (0, 0), BuildingBlock: CIFDUS_clean_linker_0, # of connection points: 2
# Relax obj value: 0.055
# Max RMSD: 0.074
# Mean RMSD: 0.074
data_MOF--net-uni--node1-KUFVIS_clean_sbu_0--edge1-CIFDUS_clean_linker_0
_symmetry_space_group_name_H-M    P1
_symmetry_Int_Tables_number       1
_symmetry_cell_setting            triclinic
loop_
_symmetry_equiv_pos_as_xyz
'x, y, z'
_cell_length_a     33.215717
_cell_length_b     33.197601
_cell_length_c     20.082646
_cell_angle_alpha  90.166913
_cell_angle_beta   90.146898
_cell_angle_gamma 119.77233
loop_
_atom_site_label
_atom_site_type_symbol
_atom_site_fract_x
_atom_site_fract_y
_atom_site_fract_z
_atom_type_partial_charge
Mn0 Mn 0.65408 0.02215 0.07228 0.0
Mn1 Mn 0.65744 0.12413 0.10065 0.0
C2 C 0.60834 0.0279 0.15478 0.0
C3 C 0.68174 0.97093 0.09319 0.0
C4 C 0.60875 0.06174 0.98177 0.0
O5 O 0.71365 0.06939 0.02551 0.0
O6 O 0.71638 0.13599 0.05845 0.0
C7 C 0.73207 0.1643 0.20231 0.0
N8 N 0.68753 0.15015 0.18374 0.0
C9 C 0.67105 0.17211 0.29018 0.0
C10 C 0.71686 0.18726 0.31022 0.0
C11 C 0.74746 0.18324 0.26613 0.0
C12 C 0.65777 0.15377 0.22583 0.0
H13 H 0.75558 0.16102 0.16874 0.0
C14 C 0.7337 0.11364 0.02944 0.0
O15 O 0.65982 0.9686 0.03839 0.0
O16 O 0.68945 1.00435 0.13411 0.0
N17 N 0.60252 0.11712 0.14234 0.0
C18 C 0.55883 0.09861 0.11669 0.0
C19 C 0.52365 0.09863 0.15528 0.0
C20 C 0.53377 0.11792 0.21964 0.0
C21 C 0.57906 0.13714 0.24476 0.0
C22 C 0.61279 0.13647 0.20379 0.0
H23 H 0.5508 0.08373 0.0673 0.0
O24 O 0.59779 0.98774 0.12983 0.0
O25 O 0.64522 0.06314 0.13086 0.0
O26 O 0.61487 0.02819 0.99854 0.0
O27 O 0.62459 0.09965 0.01463 0.0
C28 C 0.59185 0.15615 0.3093 0.0
C29 C 0.6378 0.17359 0.33202 0.0
H30 H 0.72879 0.20161 0.35956 0.0
H31 H 0.78279 0.19459 0.28137 0.0
H32 H 0.48875 0.08364 0.13558 0.0
H33 H 0.50642 0.11741 0.24953 0.0
H34 H 0.56646 0.15693 0.34221 0.0
H35 H 0.64705 0.18751 0.38207 0.0
Mn36 Mn 0.66947 0.64787 0.21351 0.0
Mn37 Mn 0.577 0.65702 0.26264 0.0
C38 C 0.62409 0.60425 0.30197 0.0
C39 C 0.74776 0.66903 0.21961 0.0
C40 C 0.57713 0.60515 0.13816 0.0
O41 O 0.68196 0.70883 0.17082 0.0
O42 O 0.62091 0.71332 0.21208 0.0
C43 C 0.6247 0.73515 0.35787 0.0
N44 N 0.59116 0.69065 0.34484 0.0
C45 C 0.56429 0.67994 0.45809 0.0
C46 C 0.59834 0.72578 0.47254 0.0
C47 C 0.62873 0.75346 0.42223 0.0
C48 C 0.56185 0.66365 0.39296 0.0
H49 H 0.64824 0.75645 0.31947 0.0
C50 C 0.65846 0.7295 0.17833 0.0
O51 O 0.72273 0.64864 0.16732 0.0
O52 O 0.72801 0.67967 0.26681 0.0
N53 N 0.53224 0.60509 0.3128 0.0
C54 C 0.50263 0.56102 0.29146 0.0
C55 C 0.47054 0.52856 0.33616 0.0
C56 C 0.46898 0.54183 0.40215 0.0
C57 C 0.49943 0.58751 0.42278 0.0
C58 C 0.53042 0.61843 0.37587 0.0
H59 H 0.5036 0.55065 0.24083 0.0
O60 O 0.64899 0.59087 0.26914 0.0
O61 O 0.62612 0.64229 0.28166 0.0
O62 O 0.61801 0.61161 0.1453 0.0
O63 O 0.55834 0.62071 0.17842 0.0
C64 C 0.50077 0.60336 0.48835 0.0
C65 C 0.53324 0.64951 0.50602 0.0
H66 H 0.60171 0.73996 0.52221 0.0
H67 H 0.65527 0.7888 0.43309 0.0
H68 H 0.4472 0.49335 0.31986 0.0
H69 H 0.44453 0.51656 0.43668 0.0
H70 H 0.47742 0.58016 0.52579 0.0
H71 H 0.53436 0.66112 0.55681 0.0
Mn72 Mn 0.05422 0.67125 0.40892 0.0
Mn73 Mn 0.95579 0.56746 0.4212 0.0
C74 C 0.05269 0.61344 0.47429 0.0
C75 C 0.10348 0.74695 0.44629 0.0
C76 C 1.02051 0.59363 0.30409 0.0
O77 O 1.00524 0.68593 0.37426 0.0
O78 O 0.9422 0.61463 0.38259 0.0
C79 C 0.90995 0.59435 0.52444 0.0
N80 N 0.92612 0.56601 0.5033 0.0
C81 C 0.90082 0.52125 0.60404 0.0
C82 C 0.88361 0.54977 0.62669 0.0
C83 C 0.88831 0.58654 0.58678 0.0
C84 C 0.92195 0.53065 0.54143 0.0
H85 H 0.91359 0.62273 0.49402 0.0
C86 C 0.96198 0.65762 0.36691 0.0
O87 O 0.10585 0.73445 0.38572 0.0
O88 O 0.07075 0.71636 0.4834 0.0
N89 N 0.96317 0.51837 0.45793 0.0
C90 C 0.98365 0.49554 0.43026 0.0
C91 C 0.98334 0.45869 0.46486 0.0
C92 C 0.96149 0.44532 0.52708 0.0
C93 C 0.93995 0.4688 0.55402 0.0
C94 C 0.94124 0.50516 0.51715 0.0
H95 H 1.00048 0.50565 0.38244 0.0
O96 O 0.09162 0.64671 0.45199 0.0
O97 O 1.01548 0.61507 0.45838 0.0
O98 O 0.0495 0.63471 0.32352 0.0
O99 O 0.98461 0.56546 0.33672 0.0
C100 C 0.91806 0.45816 0.6166 0.0
C101 C 0.89853 0.48438 0.64161 0.0
H102 H 0.86708 0.54399 0.67486 0.0
H103 H 0.87532 0.60885 0.60407 0.0
H104 H 1.0 0.44071 0.4437 0.0
H105 H 0.96167 0.41714 0.55387 0.0
H106 H 0.91668 0.43034 0.64636 0.0
H107 H 0.88242 0.47632 0.69022 0.0
Mn108 Mn 0.42487 0.05796 0.57538 0.0
Mn109 Mn 0.4281 0.95904 0.60062 0.0
C110 C 0.48119 0.05828 0.64421 0.0
C111 C 0.39841 0.10856 0.60718 0.0
C112 C 0.46167 0.01579 0.47392 0.0
O113 O 0.36144 1.00796 0.54189 0.0
O114 O 0.36506 0.94381 0.56934 0.0
C115 C 0.3637 0.92209 0.71469 0.0
N116 N 0.40621 0.93597 0.68796 0.0
C117 C 0.43277 0.9177 0.78899 0.0
C118 C 0.38911 0.90278 0.81738 0.0
C119 C 0.35448 0.90513 0.78011 0.0
C120 C 0.43986 0.93409 0.72349 0.0
H121 H 0.33711 0.9241 0.68634 0.0
C122 C 0.34367 0.964 0.54609 0.0
O123 O 0.4131 0.10905 0.54709 0.0
O124 O 0.39679 0.07715 0.64697 0.0
N125 N 0.48684 0.96872 0.63153 0.0
C126 C 0.52795 0.98733 0.59845 0.0
C127 C 0.56681 0.98951 0.62987 0.0
C128 C 0.56292 0.97222 0.69471 0.0
C129 C 0.52013 0.95276 0.72748 0.0
C130 C 0.48255 0.95131 0.69352 0.0
H131 H 0.53114 1.00066 0.54866 0.0
O132 O 0.48714 0.09649 0.61807 0.0
O133 O 0.44234 0.02106 0.62959 0.0
O134 O 0.45474 0.04876 0.49172 0.0
O135 O 0.45234 0.98061 0.50998 0.0
C136 C 0.51352 0.93555 0.79296 0.0
C137 C 0.46985 0.91796 0.82366 0.0
H138 H 0.38196 0.88996 0.86797 0.0
H139 H 0.3208 0.894 0.80184 0.0
H140 H 0.59972 1.00461 0.60425 0.0
H141 H 0.59307 0.97432 0.71899 0.0
H142 H 0.54198 0.93635 0.82055 0.0
H143 H 0.46541 0.90556 0.87442 0.0
Mn144 Mn 0.40963 0.43466 0.71401 0.0
Mn145 Mn 0.50411 0.42926 0.76378 0.0
C146 C 0.46031 0.4874 0.79188 0.0
C147 C 0.3315 0.41306 0.7247 0.0
C148 C 0.49636 0.46698 0.62973 0.0
O149 O 0.39543 0.37034 0.68231 0.0
O150 O 0.45651 0.36784 0.72779 0.0
C151 C 0.46254 0.36466 0.87685 0.0
N152 N 0.49568 0.40635 0.85283 0.0
C153 C 0.53157 0.42999 0.96087 0.0
C154 C 0.49809 0.3871 0.98662 0.0
C155 C 0.46332 0.35438 0.94446 0.0
C156 C 0.52901 0.43827 0.8931 0.0
H157 H 0.43564 0.33957 0.84467 0.0
C158 C 0.41803 0.34943 0.69552 0.0
O159 O 0.35347 0.42867 0.66898 0.0
O160 O 0.35438 0.40797 0.77336 0.0
N161 N 0.55278 0.48614 0.80013 0.0
C162 C 0.5811 0.52666 0.76821 0.0
C163 C 0.61697 0.56356 0.8038 0.0
C164 C 0.62363 0.55829 0.87163 0.0
C165 C 0.59444 0.51607 0.90321 0.0
C166 C 0.55945 0.48043 0.86507 0.0
H167 H 0.57626 0.53086 0.71607 0.0
O168 O 0.43274 0.49671 0.75783 0.0
O169 O 0.45713 0.44745 0.77975 0.0
O170 O 0.45697 0.46366 0.63937 0.0
O171 O 0.51676 0.45431 0.67183 0.0
C172 C 0.59826 0.50817 0.97124 0.0
C173 C 0.56684 0.46517 1.00006 0.0
H174 H 0.49847 0.37911 0.0388 0.0
H175 H 0.43716 0.32134 0.96407 0.0
H176 H 0.63938 0.59603 0.77905 0.0
H177 H 0.65109 0.58696 0.89906 0.0
H178 H 0.6248 0.53518 1.00208 0.0
H179 H 0.56965 0.45979 0.05265 0.0
Mn180 Mn 1.02188 0.40659 0.9058 0.0
Mn181 Mn 0.11989 0.51058 0.92403 0.0
C182 C 1.02239 0.46284 0.97455 0.0
C183 C 0.97319 0.32954 0.93693 0.0
C184 C 0.05633 0.48545 0.80453 0.0
O185 O 0.07169 0.39351 0.87017 0.0
O186 O 0.13481 0.46404 0.88653 0.0
C187 C 0.16474 0.48416 0.02953 0.0
N188 N 0.14852 0.51223 1.00743 0.0
C189 C 0.17325 0.55774 0.10818 0.0
C190 C 0.19049 0.52951 0.13183 0.0
C191 C 0.18607 0.49247 0.09241 0.0
C192 C 0.15235 0.54779 0.04512 0.0
H193 H 0.16139 0.45566 0.9994 0.0
C194 C 0.11526 0.42163 0.86743 0.0
O195 O 0.97123 0.34406 0.87771 0.0
O196 O 1.00497 0.35924 0.97679 0.0
N197 N 0.11125 0.55915 0.96024 0.0
C198 C 0.09057 0.5815 0.93171 0.0
C199 C 0.09044 0.61843 0.96581 0.0
C200 C 0.1121 0.6324 0.02839 0.0
C201 C 0.13384 0.6094 0.05624 0.0
C202 C 0.13292 0.57288 0.01989 0.0
H203 H 0.07398 0.57101 0.88356 0.0
O204 O 0.98371 0.42962 0.95076 0.0
O205 O 0.0599 0.46196 0.9584 0.0
O206 O 0.02663 0.44463 0.82296 0.0
O207 O 0.09245 0.51284 0.83795 0.0
C208 C 0.15561 0.62068 0.1192 0.0
C209 C 0.17529 0.59487 0.14516 0.0
H210 H 0.20684 0.53571 0.1804 0.0
H211 H 0.19909 0.47039 0.11047 0.0
H212 H 0.07363 0.63604 0.94394 0.0
H213 H 0.11163 0.66068 0.05475 0.0
H214 H 0.15673 0.64865 0.14855 0.0
H215 H 0.19125 0.60339 0.19408 0.0
H216 H 0.51728 0.9965 0.18044 0.0
H217 H 0.65305 0.06332 0.27074 0.0
H218 H 0.61997 0.06714 0.37767 0.0
H219 H 0.55211 0.0509 0.44584 0.0
H220 H 0.41613 0.98464 0.35649 0.0
H221 H 0.44926 0.98202 0.24842 0.0
C222 C 0.53937 1.01203 0.22367 0.0
C223 C 0.58748 0.03067 0.21789 0.0
C224 C 0.52007 1.01448 0.2848 0.0
C225 C 0.61598 0.04985 0.27411 0.0
C226 C 0.59709 0.05187 0.33516 0.0
C227 C 0.52998 0.03621 0.40241 0.0
C228 C 0.48202 0.01813 0.40829 0.0
C229 C 0.54924 0.03449 0.34105 0.0
C230 C 0.45329 0.999 0.35233 0.0
C231 C 0.47217 0.99726 0.2909 0.0
H232 H 0.56429 0.51429 0.33264 0.0
H233 H 0.64555 0.65049 0.41891 0.0
H234 H 0.61541 0.61975 0.52953 0.0
H235 H 0.56251 0.55459 0.60094 0.0
H236 H 0.47843 0.41896 0.51446 0.0
H237 H 0.51232 0.44864 0.40467 0.0
C238 C 0.57527 0.53697 0.3759 0.0
C239 C 0.60589 0.58462 0.36796 0.0
C240 C 0.5571 0.51912 0.4391 0.0
C241 C 0.6209 0.61382 0.42408 0.0
C242 C 0.60388 0.59625 0.48723 0.0
C243 C 0.55219 0.53164 0.55801 0.0
C244 C 0.51858 0.48478 0.56512 0.0
C245 C 0.57139 0.54911 0.49521 0.0
C246 C 0.5046 0.45518 0.50951 0.0
C247 C 0.52393 0.47211 0.44699 0.0
H248 H 0.09103 0.49347 0.68042 0.0
H249 H 1.00012 0.52189 0.79913 0.0
H250 H 0.99021 0.56399 0.70638 0.0
H251 H 1.01117 0.5964 0.5938 0.0
H252 H 0.09979 0.56614 0.4729 0.0
H253 H 0.10733 0.5212 0.564 0.0
C254 C 0.06844 0.50823 0.68508 0.0
C255 C 0.046 0.50463 0.74563 0.0
C256 C 0.06278 0.5321 0.63147 0.0
C257 C 1.01723 0.52412 0.75228 0.0
C258 C 1.01186 0.54837 0.69961 0.0
C259 C 0.03105 0.57884 0.58703 0.0
C260 C 0.05359 0.58295 0.52643 0.0
C261 C 0.03486 0.55299 0.63927 0.0
C262 C 0.08133 0.56232 0.51896 0.0
C263 C 0.08565 0.53676 0.5709 0.0
H264 H 0.63612 0.09413 0.85685 0.0
H265 H 0.51532 0.0154 0.97824 0.0
H266 H 0.46473 1.00741 0.88409 0.0
H267 H 0.45511 0.02414 0.76774 0.0
H268 H 0.57531 0.10066 0.64457 0.0
H269 H 0.62621 0.10851 0.7385 0.0
C270 C 0.59869 0.07503 0.86212 0.0
C271 C 0.57912 0.05538 0.92379 0.0
C272 C 0.56994 0.07015 0.80754 0.0
C273 C 0.53078 0.0307 0.93084 0.0
C274 C 0.50199 0.02628 0.87723 0.0
C275 C 0.49244 0.04167 0.76136 0.0
C276 C 0.51163 0.06038 0.69914 0.0
C277 C 0.52118 0.04586 0.8154 0.0
C278 C 0.55999 0.08507 0.69189 0.0
C279 C 0.58896 0.0896 0.7455 0.0
H280 H 0.58339 0.63434 0.01126 0.0
H281 H 0.51079 0.51453 0.1367 0.0
H282 H 0.46729 0.46739 0.04028 0.0
H283 H 0.45178 0.45988 0.91953 0.0
H284 H 0.52232 0.57988 0.79402 0.0
H285 H 0.56459 0.62772 0.89086 0.0
C286 C 0.5578 0.59796 0.01712 0.0
C287 C 0.54994 0.57768 0.08046 0.0
C288 C 0.53283 0.57128 0.96153 0.0
C289 C 0.51688 0.53069 0.08822 0.0
C290 C 0.49214 0.50382 0.0332 0.0
C291 C 0.47666 0.49649 0.91365 0.0
C292 C 0.48547 0.51625 0.84991 0.0
C293 C 0.50015 0.52364 0.96956 0.0
C294 C 0.51607 0.56396 0.84272 0.0
C295 C 0.54009 0.5912 0.89797 0.0
H296 H 0.06353 0.47989 0.09494 0.0
H297 H 0.97522 0.51012 0.97282 0.0
H298 H 0.96875 0.55641 0.06327 0.0
H299 H 0.98618 0.5857 0.17934 0.0
H300 H 0.07662 0.5571 0.29936 0.0
H301 H 0.08521 0.51336 0.20742 0.0
C302 C 0.04386 0.49764 0.08783 0.0
C303 C 1.0212 0.49321 0.027 0.0
C304 C 0.04075 0.52435 0.13966 0.0
C305 C 0.99375 0.51413 0.01907 0.0
C306 C 0.9901 0.54053 0.07062 0.0
C307 C 1.00857 0.57073 0.18436 0.0
C308 C 0.03134 0.57487 0.24504 0.0
C309 C 1.01336 0.54577 0.13125 0.0
C310 C 0.05952 0.55475 0.25229 0.0
C311 C 0.06404 0.52945 0.20013 0.0
H312 H 0.69997 0.81335 0.23768 0.0
H313 H 0.64879 0.7453 0.04855 0.0
H314 H 0.65663 0.81704 1.00165 0.0
H315 H 0.66787 0.89557 0.01991 0.0
H316 H 0.71796 0.96259 0.2107 0.0
H317 H 0.72133 0.89522 0.25129 0.0
C318 C 0.69176 0.81478 0.18574 0.0
C319 C 0.6741 0.77457 0.14629 0.0
C320 C 0.6956 0.85578 0.15978 0.0
C321 C 0.66308 0.77629 0.07929 0.0
C322 C 0.66714 0.8171 0.0528 0.0
C323 C 0.6804 0.8958 0.06991 0.0
C324 C 0.692 0.93386 0.11246 0.0
C325 C 0.68184 0.8566 0.09331 0.0
C326 C 0.70848 0.93369 0.17697 0.0
C327 C 0.71029 0.89506 0.2004 0.0
H328 H 0.91534 0.63318 0.25079 0.0
H329 H 0.94006 0.71803 0.42535 0.0
H330 H 0.87797 0.73355 0.39159 0.0
H331 H 0.81073 0.7149 0.31885 0.0
H332 H 0.78806 0.63142 0.14256 0.0
H333 H 0.85581 0.62429 0.16957 0.0
C334 C 0.90772 0.65597 0.28038 0.0
C335 C 0.93188 0.67456 0.34021 0.0
C336 C 0.87221 0.6647 0.26053 0.0
C337 C 0.92197 0.70384 0.3787 0.0
C338 C 0.88631 0.71238 0.35963 0.0
C339 C 0.82118 0.69595 0.28567 0.0
C340 C 0.79393 0.67319 0.22926 0.0
C341 C 0.8603 0.69187 0.30158 0.0
C342 C 0.8082 0.64912 0.18645 0.0
C343 C 0.84685 0.64477 0.20203 0.0
H344 H 0.16908 0.82362 0.38078 0.0
H345 H 0.1216 0.76863 0.57744 0.0
H346 H 0.19038 0.8336 0.62667 0.0
H347 H 0.26845 0.90094 0.61311 0.0
H348 H 0.31521 0.95871 0.41817 0.0
H349 H 0.24228 0.89823 0.36891 0.0
C350 C 0.17341 0.8264 0.43444 0.0
C351 C 0.14053 0.79099 0.47523 0.0
C352 C 0.21312 0.86418 0.4627 0.0
C353 C 0.14637 0.79529 0.54477 0.0
C354 C 0.18588 0.83234 0.57308 0.0
C355 C 0.26209 0.90073 0.56008 0.0
C356 C 0.29682 0.93382 0.51908 0.0
C357 C 0.22011 0.86618 0.53245 0.0
C358 C 0.28854 0.93358 0.4505 0.0
C359 C 0.24707 0.89886 0.42238 0.0
H360 H 0.40233 0.27375 0.76493 0.0
H361 H 0.39859 0.32072 0.56662 0.0
H362 H 0.388 0.24757 0.52016 0.0
H363 H 0.38956 0.17429 0.53633 0.0
H364 H 0.3901 0.12719 0.73636 0.0
H365 H 0.39145 0.19585 0.78175 0.0
C366 C 0.39808 0.2674 0.71169 0.0
C367 C 0.40134 0.3023 0.6691 0.0
C368 C 0.39188 0.22541 0.68565 0.0
C369 C 0.39574 0.29395 0.60022 0.0
C370 C 0.39012 0.25236 0.57372 0.0
C371 C 0.38909 0.17869 0.58979 0.0
C372 C 0.39043 0.14593 0.63277 0.0
C373 C 0.38958 0.21839 0.61591 0.0
C374 C 0.3893 0.15188 0.70199 0.0
C375 C 0.39028 0.19131 0.72817 0.0
H376 H 0.15544 0.43633 0.74699 0.0
H377 H 0.14577 0.3723 0.93679 0.0
H378 H 0.20998 0.35933 0.9067 0.0
H379 H 0.2746 0.37498 0.83144 0.0
H380 H 0.28365 0.43879 0.64098 0.0
H381 H 0.21354 0.44227 0.66547 0.0
C382 C 0.16672 0.41838 0.78074 0.0
C383 C 0.14608 0.40487 0.84359 0.0
C384 C 0.20377 0.41146 0.76319 0.0
C385 C 0.16102 0.38229 0.88774 0.0
C386 C 0.1979 0.37527 0.87074 0.0
C387 C 0.26075 0.38887 0.79481 0.0
C388 C 0.28471 0.40716 0.73486 0.0
C389 C 0.22043 0.39098 0.80936 0.0
C390 C 0.26607 0.42467 0.68766 0.0
C391 C 0.22604 0.42688 0.70172 0.0
H392 H 0.90259 0.26009 0.86563 0.0
H393 H 0.96201 0.29596 0.06312 0.0
H394 H 0.89479 0.22768 0.10821 0.0
H395 H 0.81465 0.16412 0.09395 0.0
H396 H 0.75419 0.128 0.89782 0.0
H397 H 0.82646 0.18944 0.84938 0.0
C398 C 0.90124 0.25245 0.91831 0.0
C399 C 0.93701 0.28353 0.96105 0.0
C400 C 0.86214 0.21319 0.94416 0.0
C401 C 0.93489 0.27288 0.0291 0.0
C402 C 0.89633 0.23388 0.05507 0.0
C403 C 0.81787 0.1691 0.04048 0.0
C404 C 0.77958 0.1419 0.99926 0.0
C405 C 0.85912 0.20476 0.01345 0.0
C406 C 0.78367 0.1484 0.93013 0.0
C407 C 0.82476 0.18376 0.90266 0.0
loop_
_geom_bond_atom_site_label_1
_geom_bond_atom_site_label_2
_geom_bond_distance
_geom_bond_site_symmetry_2
_ccdc_geom_bond_type
Mn0 O5 2.095 . S
Mn0 O15 2.162 1_545 S
Mn0 O16 2.297 1_545 S
Mn0 O24 2.385 1_545 S
Mn0 O25 2.209 . S
Mn0 O26 2.093 1_544 S
Mn1 O6 2.121 . S
Mn1 N8 2.257 . S
Mn1 N17 2.282 . S
Mn1 O25 2.215 . S
Mn1 O27 2.117 1_554 S
C2 O24 1.234 1_545 S
C2 O25 1.283 . S
C3 O15 1.281 . S
C3 O16 1.236 . S
C4 O26 1.243 1_545 S
C4 O27 1.264 . S
O5 Mn0 2.095 . S
O5 C14 1.250 . S
O6 Mn1 2.121 . S
O6 C14 1.258 . S
C7 N8 1.326 . S
C7 C11 1.460 . S
C7 H13 0.929 . S
N8 Mn1 2.257 . S
N8 C7 1.326 . S
N8 C12 1.362 . S
C9 C10 1.258 . S
C9 C12 1.431 . S
C9 C29 1.449 . S
C10 C9 1.258 . S
C10 C11 1.477 . S
C10 H30 0.931 . S
C11 C7 1.460 . S
C11 C10 1.477 . S
C11 H31 0.930 . S
C12 N8 1.362 . S
C12 C9 1.431 . S
C12 C22 1.476 . S
H13 C7 0.929 . S
C14 O5 1.250 . S
C14 O6 1.258 . S
O15 Mn0 2.162 1_565 S
O15 C3 1.281 . S
O16 Mn0 2.297 1_565 S
O16 C3 1.236 . S
N17 Mn1 2.282 . S
N17 C18 1.328 . S
N17 C22 1.318 . S
C18 N17 1.328 . S
C18 C19 1.457 . S
C18 H23 0.929 . S
C19 C18 1.457 . S
C19 C20 1.291 . S
C19 H32 0.931 . S
C20 C19 1.291 . S
C20 C21 1.373 . S
C20 H33 0.929 . S
C21 C20 1.373 . S
C21 C22 1.396 . S
C21 C28 1.403 . S
C22 C12 1.476 . S
C22 N17 1.318 . S
C22 C21 1.396 . S
H23 C18 0.929 . S
O24 Mn0 2.385 1_565 S
O24 C2 1.234 1_565 S
O25 Mn0 2.209 . S
O25 Mn1 2.215 . S
O25 C2 1.283 . S
O26 Mn0 2.093 1_566 S
O26 C4 1.243 1_565 S
O27 Mn1 2.117 1_556 S
O27 C4 1.264 . S
C28 C21 1.403 . S
C28 C29 1.399 . S
C28 H34 0.929 . S
C29 C9 1.449 . S
C29 C28 1.399 . S
C29 H35 0.930 . S
H30 C10 0.931 . S
H31 C11 0.930 . S
H32 C19 0.931 . S
H33 C20 0.929 . S
H34 C28 0.929 . S
H35 C29 0.930 . S
Mn36 O41 2.095 . S
Mn36 O51 2.162 . S
Mn36 O52 2.297 . S
Mn36 O60 2.385 . S
Mn36 O61 2.209 . S
Mn36 O62 2.094 . S
Mn37 O42 2.121 . S
Mn37 N44 2.257 . S
Mn37 N53 2.282 . S
Mn37 O61 2.215 . S
Mn37 O63 2.117 . S
C38 O60 1.234 . S
C38 O61 1.283 . S
C39 O51 1.281 . S
C39 O52 1.236 . S
C40 O62 1.240 . S
C40 O63 1.264 . S
O41 Mn36 2.095 . S
O41 C50 1.250 . S
O42 Mn37 2.121 . S
O42 C50 1.258 . S
C43 N44 1.326 . S
C43 C47 1.460 . S
C43 H49 0.929 . S
N44 Mn37 2.257 . S
N44 C43 1.326 . S
N44 C48 1.362 . S
C45 C46 1.258 . S
C45 C48 1.431 . S
C45 C65 1.449 . S
C46 C45 1.258 . S
C46 C47 1.477 . S
C46 H66 0.931 . S
C47 C43 1.460 . S
C47 C46 1.477 . S
C47 H67 0.930 . S
C48 N44 1.362 . S
C48 C45 1.431 . S
C48 C58 1.476 . S
H49 C43 0.929 . S
C50 O41 1.250 . S
C50 O42 1.258 . S
O51 Mn36 2.162 . S
O51 C39 1.281 . S
O52 Mn36 2.297 . S
O52 C39 1.236 . S
N53 Mn37 2.282 . S
N53 C54 1.328 . S
N53 C58 1.318 . S
C54 N53 1.328 . S
C54 C55 1.457 . S
C54 H59 0.929 . S
C55 C54 1.457 . S
C55 C56 1.291 . S
C55 H68 0.931 . S
C56 C55 1.291 . S
C56 C57 1.373 . S
C56 H69 0.929 . S
C57 C56 1.373 . S
C57 C58 1.396 . S
C57 C64 1.403 . S
C58 C48 1.476 . S
C58 N53 1.318 . S
C58 C57 1.396 . S
H59 C54 0.929 . S
O60 Mn36 2.385 . S
O60 C38 1.234 . S
O61 Mn36 2.209 . S
O61 Mn37 2.215 . S
O61 C38 1.283 . S
O62 Mn36 2.094 . S
O62 C40 1.240 . S
O63 Mn37 2.117 . S
O63 C40 1.264 . S
C64 C57 1.403 . S
C64 C65 1.399 . S
C64 H70 0.929 . S
C65 C45 1.449 . S
C65 C64 1.399 . S
C65 H71 0.930 . S
H66 C46 0.931 . S
H67 C47 0.930 . S
H68 C55 0.931 . S
H69 C56 0.929 . S
H70 C64 0.929 . S
H71 C65 0.930 . S
Mn72 O77 2.095 1_455 S
Mn72 O87 2.162 . S
Mn72 O88 2.297 . S
Mn72 O96 2.385 . S
Mn72 O97 2.209 1_455 S
Mn72 O98 2.094 . S
Mn73 O78 2.121 . S
Mn73 N80 2.257 . S
Mn73 N89 2.282 . S
Mn73 O97 2.215 . S
Mn73 O99 2.117 . S
C74 O96 1.234 . S
C74 O97 1.283 1_455 S
C75 O87 1.281 . S
C75 O88 1.236 . S
C76 O98 1.240 . S
C76 O99 1.264 1_455 S
O77 Mn72 2.095 1_655 S
O77 C86 1.250 . S
O78 Mn73 2.121 . S
O78 C86 1.258 . S
C79 N80 1.326 . S
C79 C83 1.460 . S
C79 H85 0.929 . S
N80 Mn73 2.257 . S
N80 C79 1.326 . S
N80 C84 1.362 . S
C81 C82 1.258 . S
C81 C84 1.431 . S
C81 C101 1.449 . S
C82 C81 1.258 . S
C82 C83 1.477 . S
C82 H102 0.931 . S
C83 C79 1.460 . S
C83 C82 1.477 . S
C83 H103 0.930 . S
C84 N80 1.362 . S
C84 C81 1.431 . S
C84 C94 1.476 . S
H85 C79 0.929 . S
C86 O77 1.250 . S
C86 O78 1.258 . S
O87 Mn72 2.162 . S
O87 C75 1.281 . S
O88 Mn72 2.297 . S
O88 C75 1.236 . S
N89 Mn73 2.282 . S
N89 C90 1.328 . S
N89 C94 1.318 . S
C90 N89 1.328 . S
C90 C91 1.457 . S
C90 H95 0.929 . S
C91 C90 1.457 . S
C91 C92 1.291 . S
C91 H104 0.931 . S
C92 C91 1.291 . S
C92 C93 1.373 . S
C92 H105 0.929 . S
C93 C92 1.373 . S
C93 C94 1.396 . S
C93 C100 1.403 . S
C94 C84 1.476 . S
C94 N89 1.318 . S
C94 C93 1.396 . S
H95 C90 0.929 . S
O96 Mn72 2.385 . S
O96 C74 1.234 . S
O97 Mn72 2.209 1_655 S
O97 Mn73 2.215 . S
O97 C74 1.283 1_655 S
O98 Mn72 2.094 . S
O98 C76 1.240 . S
O99 Mn73 2.117 . S
O99 C76 1.264 1_655 S
C100 C93 1.403 . S
C100 C101 1.399 . S
C100 H106 0.929 . S
C101 C81 1.449 . S
C101 C100 1.399 . S
C101 H107 0.930 . S
H102 C82 0.931 . S
H103 C83 0.930 . S
H104 C91 0.931 . S
H105 C92 0.929 . S
H106 C100 0.929 . S
H107 C101 0.930 . S
Mn108 O113 2.095 1_545 S
Mn108 O123 2.162 . S
Mn108 O124 2.297 . S
Mn108 O132 2.385 . S
Mn108 O133 2.209 . S
Mn108 O134 2.094 . S
Mn109 O114 2.121 . S
Mn109 N116 2.257 . S
Mn109 N125 2.282 . S
Mn109 O133 2.215 1_565 S
Mn109 O135 2.117 . S
C110 O132 1.234 . S
C110 O133 1.283 . S
C111 O123 1.281 . S
C111 O124 1.236 . S
C112 O134 1.240 . S
C112 O135 1.264 1_545 S
O113 Mn108 2.095 1_565 S
O113 C122 1.250 . S
O114 Mn109 2.121 . S
O114 C122 1.258 . S
C115 N116 1.326 . S
C115 C119 1.460 . S
C115 H121 0.929 . S
N116 Mn109 2.257 . S
N116 C115 1.326 . S
N116 C120 1.362 . S
C117 C118 1.258 . S
C117 C120 1.431 . S
C117 C137 1.449 . S
C118 C117 1.258 . S
C118 C119 1.477 . S
C118 H138 0.931 . S
C119 C115 1.460 . S
C119 C118 1.477 . S
C119 H139 0.930 . S
C120 N116 1.362 . S
C120 C117 1.431 . S
C120 C130 1.476 . S
H121 C115 0.929 . S
C122 O113 1.250 . S
C122 O114 1.258 . S
O123 Mn108 2.162 . S
O123 C111 1.281 . S
O124 Mn108 2.297 . S
O124 C111 1.236 . S
N125 Mn109 2.282 . S
N125 C126 1.328 . S
N125 C130 1.318 . S
C126 N125 1.328 . S
C126 C127 1.457 . S
C126 H131 0.942 . S
C127 C126 1.457 . S
C127 C128 1.291 . S
C127 H140 0.931 1_565 S
C128 C127 1.291 . S
C128 C129 1.373 . S
C128 H141 0.929 . S
C129 C128 1.373 . S
C129 C130 1.396 . S
C129 C136 1.403 . S
C130 C120 1.476 . S
C130 N125 1.318 . S
C130 C129 1.396 . S
H131 C126 0.942 . S
O132 Mn108 2.385 . S
O132 C110 1.234 . S
O133 Mn108 2.209 . S
O133 Mn109 2.215 1_545 S
O133 C110 1.283 . S
O134 Mn108 2.094 . S
O134 C112 1.240 . S
O135 Mn109 2.117 . S
O135 C112 1.264 1_565 S
C136 C129 1.403 . S
C136 C137 1.399 . S
C136 H142 0.929 . S
C137 C117 1.449 . S
C137 C136 1.399 . S
C137 H143 0.930 . S
H138 C118 0.931 . S
H139 C119 0.930 . S
H140 C127 0.931 1_545 S
H141 C128 0.929 . S
H142 C136 0.929 . S
H143 C137 0.930 . S
Mn144 O149 2.095 . S
Mn144 O159 2.162 . S
Mn144 O160 2.297 . S
Mn144 O168 2.385 . S
Mn144 O169 2.209 . S
Mn144 O170 2.094 . S
Mn145 O150 2.121 . S
Mn145 N152 2.257 . S
Mn145 N161 2.282 . S
Mn145 O169 2.215 . S
Mn145 O171 2.117 . S
C146 O168 1.234 . S
C146 O169 1.283 . S
C147 O159 1.281 . S
C147 O160 1.236 . S
C148 O170 1.240 . S
C148 O171 1.264 . S
O149 Mn144 2.095 . S
O149 C158 1.250 . S
O150 Mn145 2.121 . S
O150 C158 1.258 . S
C151 N152 1.326 . S
C151 C155 1.460 . S
C151 H157 0.929 . S
N152 Mn145 2.257 . S
N152 C151 1.326 . S
N152 C156 1.362 . S
C153 C154 1.258 . S
C153 C156 1.431 . S
C153 C173 1.449 . S
C154 C153 1.258 . S
C154 C155 1.477 . S
C154 H174 0.931 . S
C155 C151 1.460 . S
C155 C154 1.477 . S
C155 H175 0.930 . S
C156 N152 1.362 . S
C156 C153 1.431 . S
C156 C166 1.476 . S
H157 C151 0.929 . S
C158 O149 1.250 . S
C158 O150 1.258 . S
O159 Mn144 2.162 . S
O159 C147 1.281 . S
O160 Mn144 2.297 . S
O160 C147 1.236 . S
N161 Mn145 2.282 . S
N161 C162 1.328 . S
N161 C166 1.318 . S
C162 N161 1.328 . S
C162 C163 1.457 . S
C162 H167 0.929 . S
C163 C162 1.457 . S
C163 C164 1.291 . S
C163 H176 0.931 . S
C164 C163 1.291 . S
C164 C165 1.373 . S
C164 H177 0.929 . S
C165 C164 1.373 . S
C165 C166 1.396 . S
C165 C172 1.403 . S
C166 C156 1.476 . S
C166 N161 1.318 . S
C166 C165 1.396 . S
H167 C162 0.929 . S
O168 Mn144 2.385 . S
O168 C146 1.234 . S
O169 Mn144 2.209 . S
O169 Mn145 2.215 . S
O169 C146 1.283 . S
O170 Mn144 2.094 . S
O170 C148 1.240 . S
O171 Mn145 2.117 . S
O171 C148 1.264 . S
C172 C165 1.403 . S
C172 C173 1.399 . S
C172 H178 0.929 . S
C173 C153 1.449 . S
C173 C172 1.399 . S
C173 H179 0.930 . S
H174 C154 0.931 . S
H175 C155 0.930 . S
H176 C163 0.931 . S
H177 C164 0.929 . S
H178 C172 0.929 . S
H179 C173 0.930 . S
Mn180 O185 2.095 1_655 S
Mn180 O195 2.162 . S
Mn180 O196 2.297 . S
Mn180 O204 2.385 . S
Mn180 O205 2.209 1_655 S
Mn180 O206 2.094 . S
Mn181 O186 2.121 . S
Mn181 N188 2.257 . S
Mn181 N197 2.282 . S
Mn181 O205 2.215 . S
Mn181 O207 2.117 . S
C182 O204 1.234 1_455 S
C182 O205 1.283 . S
C183 O195 1.281 . S
C183 O196 1.236 . S
C184 O206 1.240 1_455 S
C184 O207 1.264 . S
O185 Mn180 2.095 1_455 S
O185 C194 1.250 . S
O186 Mn181 2.121 . S
O186 C194 1.258 . S
C187 N188 1.326 1_554 S
C187 C191 1.460 . S
C187 H193 0.929 1_554 S
N188 Mn181 2.257 . S
N188 C187 1.326 1_556 S
N188 C192 1.362 1_556 S
C189 C190 1.258 . S
C189 C192 1.431 . S
C189 C209 1.449 . S
C190 C189 1.258 . S
C190 C191 1.477 . S
C190 H210 0.931 . S
C191 C187 1.460 . S
C191 C190 1.477 . S
C191 H211 0.930 . S
C192 N188 1.362 1_554 S
C192 C189 1.431 . S
C192 C202 1.476 1_554 S
H193 C187 0.929 1_556 S
C194 O185 1.250 . S
C194 O186 1.258 . S
O195 Mn180 2.162 . S
O195 C183 1.281 . S
O196 Mn180 2.297 . S
O196 C183 1.236 . S
N197 Mn181 2.282 . S
N197 C198 1.328 . S
N197 C202 1.318 . S
C198 N197 1.328 . S
C198 C199 1.457 . S
C198 H203 0.929 . S
C199 C198 1.457 . S
C199 C200 1.282 1_556 S
C199 H212 0.931 . S
C200 C199 1.282 1_554 S
C200 C201 1.377 . S
C200 H213 0.935 . S
C201 C200 1.377 . S
C201 C202 1.396 1_554 S
C201 C208 1.403 . S
C202 C192 1.476 1_556 S
C202 N197 1.318 . S
C202 C201 1.396 1_556 S
H203 C198 0.929 . S
O204 Mn180 2.385 . S
O204 C182 1.234 1_655 S
O205 Mn180 2.209 1_455 S
O205 Mn181 2.215 . S
O205 C182 1.283 . S
O206 Mn180 2.094 . S
O206 C184 1.240 1_655 S
O207 Mn181 2.117 . S
O207 C184 1.264 . S
C208 C201 1.403 . S
C208 C209 1.399 . S
C208 H214 0.929 . S
C209 C189 1.449 . S
C209 C208 1.399 . S
C209 H215 0.930 . S
H210 C190 0.931 . S
H211 C191 0.930 . S
H212 C199 0.931 . S
H213 C200 0.935 . S
H214 C208 0.929 . S
H215 C209 0.930 . S
H216 C222 0.930 1_565 S
H217 C225 0.930 . S
H218 C226 0.930 . S
H219 C227 0.930 . S
H220 C230 0.930 . S
H221 C231 0.930 . S
C222 H216 0.930 1_545 S
C222 C223 1.355 . S
C222 C224 1.415 . S
C223 C222 1.355 . S
C223 C225 1.419 . S
C224 C222 1.415 . S
C224 C229 1.425 . S
C224 C231 1.409 1_545 S
C225 H217 0.930 . S
C225 C223 1.419 . S
C225 C226 1.362 . S
C226 H218 0.930 . S
C226 C225 1.362 . S
C226 C229 1.409 . S
C227 H219 0.930 . S
C227 C228 1.355 . S
C227 C229 1.415 . S
C228 C227 1.355 . S
C228 C230 1.419 1_545 S
C229 C224 1.425 . S
C229 C226 1.409 . S
C229 C227 1.415 . S
C230 H220 0.930 . S
C230 C228 1.419 1_565 S
C230 C231 1.362 . S
C231 H221 0.930 . S
C231 C224 1.409 1_565 S
C231 C230 1.362 . S
H232 C238 0.930 . S
H233 C241 0.930 . S
H234 C242 0.930 . S
H235 C243 0.930 . S
H236 C246 0.930 . S
H237 C247 0.930 . S
C238 H232 0.930 . S
C238 C239 1.355 . S
C238 C240 1.415 . S
C239 C238 1.355 . S
C239 C241 1.419 . S
C240 C238 1.415 . S
C240 C245 1.425 . S
C240 C247 1.409 . S
C241 H233 0.930 . S
C241 C239 1.419 . S
C241 C242 1.362 . S
C242 H234 0.930 . S
C242 C241 1.362 . S
C242 C245 1.409 . S
C243 H235 0.930 . S
C243 C244 1.355 . S
C243 C245 1.415 . S
C244 C243 1.355 . S
C244 C246 1.419 . S
C245 C240 1.425 . S
C245 C242 1.409 . S
C245 C243 1.415 . S
C246 H236 0.930 . S
C246 C244 1.419 . S
C246 C247 1.362 . S
C247 H237 0.930 . S
C247 C240 1.409 . S
C247 C246 1.362 . S
H248 C254 0.930 . S
H249 C257 0.930 . S
H250 C258 0.930 . S
H251 C259 0.930 . S
H252 C262 0.930 . S
H253 C263 0.930 . S
C254 H248 0.930 . S
C254 C255 1.355 . S
C254 C256 1.415 . S
C255 C254 1.355 . S
C255 C257 1.419 1_455 S
C256 C254 1.415 . S
C256 C261 1.425 1_455 S
C256 C263 1.409 . S
C257 H249 0.930 . S
C257 C255 1.419 1_655 S
C257 C258 1.362 . S
C258 H250 0.930 . S
C258 C257 1.362 . S
C258 C261 1.409 . S
C259 H251 0.930 . S
C259 C260 1.355 1_655 S
C259 C261 1.415 . S
C260 C259 1.355 1_455 S
C260 C262 1.419 . S
C261 C256 1.425 1_655 S
C261 C258 1.409 . S
C261 C259 1.415 . S
C262 H252 0.930 . S
C262 C260 1.419 . S
C262 C263 1.362 . S
C263 H253 0.930 . S
C263 C256 1.409 . S
C263 C262 1.362 . S
H264 C270 0.930 . S
H265 C273 0.930 . S
H266 C274 0.930 . S
H267 C275 0.930 1_565 S
H268 C278 0.930 . S
H269 C279 0.930 . S
C270 H264 0.930 . S
C270 C271 1.355 . S
C270 C272 1.415 . S
C271 C270 1.355 . S
C271 C273 1.419 1_545 S
C272 C270 1.415 . S
C272 C277 1.425 . S
C272 C279 1.409 . S
C273 H265 0.930 . S
C273 C271 1.419 1_565 S
C273 C274 1.362 . S
C274 H266 0.930 . S
C274 C273 1.362 . S
C274 C277 1.409 1_565 S
C275 H267 0.930 1_545 S
C275 C276 1.355 . S
C275 C277 1.415 . S
C276 C275 1.355 . S
C276 C278 1.419 . S
C277 C272 1.425 . S
C277 C274 1.409 1_545 S
C277 C275 1.415 . S
C278 H268 0.930 . S
C278 C276 1.419 . S
C278 C279 1.362 . S
C279 H269 0.930 . S
C279 C272 1.409 . S
C279 C278 1.362 . S
H280 C286 0.930 . S
H281 C289 0.930 . S
H282 C290 0.930 . S
H283 C291 0.930 . S
H284 C294 0.930 . S
H285 C295 0.930 . S
C286 H280 0.930 . S
C286 C287 1.355 . S
C286 C288 1.415 1_554 S
C287 C286 1.355 . S
C287 C289 1.419 . S
C288 C286 1.415 1_556 S
C288 C293 1.425 . S
C288 C295 1.409 . S
C289 H281 0.930 . S
C289 C287 1.419 . S
C289 C290 1.362 . S
C290 H282 0.930 . S
C290 C289 1.362 . S
C290 C293 1.409 1_554 S
C291 H283 0.930 . S
C291 C292 1.355 . S
C291 C293 1.415 . S
C292 C291 1.355 . S
C292 C294 1.419 . S
C293 C288 1.425 . S
C293 C290 1.409 1_556 S
C293 C291 1.415 . S
C294 H284 0.930 . S
C294 C292 1.419 . S
C294 C295 1.362 . S
C295 H285 0.930 . S
C295 C288 1.409 . S
C295 C294 1.362 . S
H296 C302 0.930 . S
H297 C305 0.930 . S
H298 C306 0.930 . S
H299 C307 0.930 . S
H300 C310 0.930 . S
H301 C311 0.930 . S
C302 H296 0.930 . S
C302 C303 1.355 . S
C302 C304 1.415 . S
C303 C302 1.355 . S
C303 C305 1.419 1_455 S
C304 C302 1.415 . S
C304 C309 1.425 1_455 S
C304 C311 1.409 . S
C305 H297 0.930 . S
C305 C303 1.419 1_655 S
C305 C306 1.362 . S
C306 H298 0.930 . S
C306 C305 1.362 . S
C306 C309 1.409 . S
C307 H299 0.930 . S
C307 C308 1.355 1_655 S
C307 C309 1.415 . S
C308 C307 1.355 1_455 S
C308 C310 1.419 . S
C309 C304 1.425 1_655 S
C309 C306 1.409 . S
C309 C307 1.415 . S
C310 H300 0.930 . S
C310 C308 1.419 . S
C310 C311 1.362 . S
C311 H301 0.930 . S
C311 C304 1.409 . S
C311 C310 1.362 . S
H312 C318 0.930 . S
H313 C321 0.930 . S
H314 C322 0.930 . S
H315 C323 0.930 . S
H316 C326 0.930 . S
H317 C327 0.930 . S
C318 H312 0.930 . S
C318 C319 1.355 . S
C318 C320 1.415 . S
C319 C318 1.355 . S
C319 C321 1.419 . S
C320 C318 1.415 . S
C320 C325 1.425 . S
C320 C327 1.409 . S
C321 H313 0.930 . S
C321 C319 1.419 . S
C321 C322 1.362 . S
C322 H314 0.930 . S
C322 C321 1.362 . S
C322 C325 1.409 . S
C323 H315 0.930 . S
C323 C324 1.355 . S
C323 C325 1.415 . S
C324 C323 1.355 . S
C324 C326 1.419 . S
C325 C320 1.425 . S
C325 C322 1.409 . S
C325 C323 1.415 . S
C326 H316 0.930 . S
C326 C324 1.419 . S
C326 C327 1.362 . S
C327 H317 0.930 . S
C327 C320 1.409 . S
C327 C326 1.362 . S
H328 C334 0.930 . S
H329 C337 0.930 . S
H330 C338 0.930 . S
H331 C339 0.930 . S
H332 C342 0.930 . S
H333 C343 0.930 . S
C334 H328 0.930 . S
C334 C335 1.355 . S
C334 C336 1.415 . S
C335 C334 1.355 . S
C335 C337 1.419 . S
C336 C334 1.415 . S
C336 C341 1.425 . S
C336 C343 1.409 . S
C337 H329 0.930 . S
C337 C335 1.419 . S
C337 C338 1.362 . S
C338 H330 0.930 . S
C338 C337 1.362 . S
C338 C341 1.409 . S
C339 H331 0.930 . S
C339 C340 1.355 . S
C339 C341 1.415 . S
C340 C339 1.355 . S
C340 C342 1.419 . S
C341 C336 1.425 . S
C341 C338 1.409 . S
C341 C339 1.415 . S
C342 H332 0.930 . S
C342 C340 1.419 . S
C342 C343 1.362 . S
C343 H333 0.930 . S
C343 C336 1.409 . S
C343 C342 1.362 . S
H344 C350 0.930 . S
H345 C353 0.930 . S
H346 C354 0.930 . S
H347 C355 0.930 . S
H348 C358 0.930 . S
H349 C359 0.930 . S
C350 H344 0.930 . S
C350 C351 1.355 . S
C350 C352 1.415 . S
C351 C350 1.355 . S
C351 C353 1.419 . S
C352 C350 1.415 . S
C352 C357 1.425 . S
C352 C359 1.409 . S
C353 H345 0.930 . S
C353 C351 1.419 . S
C353 C354 1.362 . S
C354 H346 0.930 . S
C354 C353 1.362 . S
C354 C357 1.409 . S
C355 H347 0.930 . S
C355 C356 1.355 . S
C355 C357 1.415 . S
C356 C355 1.355 . S
C356 C358 1.419 . S
C357 C352 1.425 . S
C357 C354 1.409 . S
C357 C355 1.415 . S
C358 H348 0.930 . S
C358 C356 1.419 . S
C358 C359 1.362 . S
C359 H349 0.930 . S
C359 C352 1.409 . S
C359 C358 1.362 . S
H360 C366 0.930 . S
H361 C369 0.930 . S
H362 C370 0.930 . S
H363 C371 0.930 . S
H364 C374 0.930 . S
H365 C375 0.930 . S
C366 H360 0.930 . S
C366 C367 1.355 . S
C366 C368 1.415 . S
C367 C366 1.355 . S
C367 C369 1.419 . S
C368 C366 1.415 . S
C368 C373 1.425 . S
C368 C375 1.409 . S
C369 H361 0.930 . S
C369 C367 1.419 . S
C369 C370 1.362 . S
C370 H362 0.930 . S
C370 C369 1.362 . S
C370 C373 1.409 . S
C371 H363 0.930 . S
C371 C372 1.355 . S
C371 C373 1.415 . S
C372 C371 1.355 . S
C372 C374 1.419 . S
C373 C368 1.425 . S
C373 C370 1.409 . S
C373 C371 1.415 . S
C374 H364 0.930 . S
C374 C372 1.419 . S
C374 C375 1.362 . S
C375 H365 0.930 . S
C375 C368 1.409 . S
C375 C374 1.362 . S
H376 C382 0.930 . S
H377 C385 0.930 . S
H378 C386 0.930 . S
H379 C387 0.930 . S
H380 C390 0.930 . S
H381 C391 0.930 . S
C382 H376 0.930 . S
C382 C383 1.355 . S
C382 C384 1.415 . S
C383 C382 1.355 . S
C383 C385 1.419 . S
C384 C382 1.415 . S
C384 C389 1.425 . S
C384 C391 1.409 . S
C385 H377 0.930 . S
C385 C383 1.419 . S
C385 C386 1.362 . S
C386 H378 0.930 . S
C386 C385 1.362 . S
C386 C389 1.409 . S
C387 H379 0.930 . S
C387 C388 1.355 . S
C387 C389 1.415 . S
C388 C387 1.355 . S
C388 C390 1.419 . S
C389 C384 1.425 . S
C389 C386 1.409 . S
C389 C387 1.415 . S
C390 H380 0.930 . S
C390 C388 1.419 . S
C390 C391 1.362 . S
C391 H381 0.930 . S
C391 C384 1.409 . S
C391 C390 1.362 . S
H392 C398 0.930 . S
H393 C401 0.930 . S
H394 C402 0.930 . S
H395 C403 0.930 . S
H396 C406 0.930 . S
H397 C407 0.930 . S
C398 H392 0.930 . S
C398 C399 1.355 . S
C398 C400 1.415 . S
C399 C398 1.355 . S
C399 C401 1.419 . S
C400 C398 1.415 . S
C400 C405 1.425 . S
C400 C407 1.409 . S
C401 H393 0.930 . S
C401 C399 1.419 . S
C401 C402 1.362 . S
C402 H394 0.930 . S
C402 C401 1.362 . S
C402 C405 1.409 . S
C403 H395 0.930 . S
C403 C404 1.355 . S
C403 C405 1.415 1_554 S
C404 C403 1.355 . S
C404 C406 1.419 . S
C405 C400 1.425 . S
C405 C402 1.409 . S
C405 C403 1.415 1_556 S
C406 H396 0.930 . S
C406 C404 1.419 . S
C406 C407 1.362 1_554 S
C407 H397 0.930 . S
C407 C400 1.409 . S
C407 C406 1.362 1_556 S
C223 C2 1.587 . S
C228 C112 1.575 . S
C239 C38 1.585 . S
C244 C148 1.571 . S
C255 C184 1.576 . S
C260 C74 1.553 . S
C271 C4 1.570 . S
C276 C110 1.554 . S
C287 C40 1.573 . S
C292 C146 1.553 . S
C303 C182 1.566 1_554 S
C308 C76 1.588 . S
C319 C50 1.276 . S
C324 C3 1.404 . S
C335 C86 1.347 . S
C340 C39 1.381 . S
C351 C75 1.381 . S
C356 C122 1.367 . S
C367 C158 1.293 . S
C372 C111 1.403 . S
C383 C194 1.348 . S
C388 C147 1.381 . S
C399 C183 1.404 . S
C404 C14 1.276 . S
