# Generated by pormake.
# Topology acs-h, (5)-cn, num edge types: 1
# Building blocks:
#     Node 0, Type 0, BuildingBlock: XOMCOT_clean_sbu_1, # of connection points: 5
#     Node 1, Type 0, BuildingBlock: XOMCOT_clean_sbu_1, # of connection points: 5
#     Node 2, Type 0, BuildingBlock: XOMCOT_clean_sbu_1, # of connection points: 5
#     Node 3, Type 0, BuildingBlock: XOMCOT_clean_sbu_1, # of connection points: 5
#     Node 4, Type 0, BuildingBlock: XOMCOT_clean_sbu_1, # of connection points: 5
#     Node 5, Type 0, BuildingBlock: XOMCOT_clean_sbu_1, # of connection points: 5
#     Node 6, Type 0, BuildingBlock: XOMCOT_clean_sbu_1, # of connection points: 5
#     Node 7, Type 0, BuildingBlock: XOMCOT_clean_sbu_1, # of connection points: 5
#     Node 8, Type 0, BuildingBlock: XOMCOT_clean_sbu_1, # of connection points: 5
#     Node 9, Type 0, BuildingBlock: XOMCOT_clean_sbu_1, # of connection points: 5
#     Node 10, Type 0, BuildingBlock: XOMCOT_clean_sbu_1, # of connection points: 5
#     Node 11, Type 0, BuildingBlock: XOMCOT_clean_sbu_1, # of connection points: 5
#     Edge 12, Type (0, 0), BuildingBlock: AJUNOK_clean_linker_0, # of connection points: 2
#     Edge 13, Type (0, 0), BuildingBlock: AJUNOK_clean_linker_0, # of connection points: 2
#     Edge 14, Type (0, 0), BuildingBlock: AJUNOK_clean_linker_0, # of connection points: 2
#     Edge 15, Type (0, 0), BuildingBlock: AJUNOK_clean_linker_0, # of connection points: 2
#     Edge 16, Type (0, 0), BuildingBlock: AJUNOK_clean_linker_0, # of connection points: 2
#     Edge 17, Type (0, 0), BuildingBlock: AJUNOK_clean_linker_0, # of connection points: 2
#     Edge 18, Type (0, 0), BuildingBlock: AJUNOK_clean_linker_0, # of connection points: 2
#     Edge 19, Type (0, 0), BuildingBlock: AJUNOK_clean_linker_0, # of connection points: 2
#     Edge 20, Type (0, 0), BuildingBlock: AJUNOK_clean_linker_0, # of connection points: 2
#     Edge 21, Type (0, 0), BuildingBlock: AJUNOK_clean_linker_0, # of connection points: 2
#     Edge 22, Type (0, 0), BuildingBlock: AJUNOK_clean_linker_0, # of connection points: 2
#     Edge 23, Type (0, 0), BuildingBlock: AJUNOK_clean_linker_0, # of connection points: 2
#     Edge 24, Type (0, 0), BuildingBlock: AJUNOK_clean_linker_0, # of connection points: 2
#     Edge 25, Type (0, 0), BuildingBlock: AJUNOK_clean_linker_0, # of connection points: 2
#     Edge 26, Type (0, 0), BuildingBlock: AJUNOK_clean_linker_0, # of connection points: 2
#     Edge 27, Type (0, 0), BuildingBlock: AJUNOK_clean_linker_0, # of connection points: 2
#     Edge 28, Type (0, 0), BuildingBlock: AJUNOK_clean_linker_0, # of connection points: 2
#     Edge 29, Type (0, 0), BuildingBlock: AJUNOK_clean_linker_0, # of connection points: 2
#     Edge 30, Type (0, 0), BuildingBlock: AJUNOK_clean_linker_0, # of connection points: 2
#     Edge 31, Type (0, 0), BuildingBlock: AJUNOK_clean_linker_0, # of connection points: 2
#     Edge 32, Type (0, 0), BuildingBlock: AJUNOK_clean_linker_0, # of connection points: 2
#     Edge 33, Type (0, 0), BuildingBlock: AJUNOK_clean_linker_0, # of connection points: 2
#     Edge 34, Type (0, 0), BuildingBlock: AJUNOK_clean_linker_0, # of connection points: 2
#     Edge 35, Type (0, 0), BuildingBlock: AJUNOK_clean_linker_0, # of connection points: 2
#     Edge 36, Type (0, 0), BuildingBlock: AJUNOK_clean_linker_0, # of connection points: 2
#     Edge 37, Type (0, 0), BuildingBlock: AJUNOK_clean_linker_0, # of connection points: 2
#     Edge 38, Type (0, 0), BuildingBlock: AJUNOK_clean_linker_0, # of connection points: 2
#     Edge 39, Type (0, 0), BuildingBlock: AJUNOK_clean_linker_0, # of connection points: 2
#     Edge 40, Type (0, 0), BuildingBlock: AJUNOK_clean_linker_0, # of connection points: 2
#     Edge 41, Type (0, 0), BuildingBlock: AJUNOK_clean_linker_0, # of connection points: 2
# Relax obj value: 0.914
# Max RMSD: 0.280
# Mean RMSD: 0.280
data_MOF--net-acs-h--node1-XOMCOT_clean_sbu_1--edge1-AJUNOK_clean_linker_0
_symmetry_space_group_name_H-M    P1
_symmetry_Int_Tables_number       1
_symmetry_cell_setting            triclinic
loop_
_symmetry_equiv_pos_as_xyz
'x, y, z'
_cell_length_a     37.445947
_cell_length_b     37.323924
_cell_length_c     30.573391
_cell_angle_alpha  90.087419
_cell_angle_beta   89.927327
_cell_angle_gamma 119.93699
loop_
_atom_site_label
_atom_site_type_symbol
_atom_site_fract_x
_atom_site_fract_y
_atom_site_fract_z
_atom_type_partial_charge
C0 C 0.52515 0.17382 0.97472 0.0
C1 C 0.56622 0.18719 0.96708 0.0
N2 N 0.58688 0.2026 0.00477 0.0
N3 N 0.52006 0.18025 0.01718 0.0
C4 C 0.5584 0.19889 0.03405 0.0
H5 H 0.50076 0.16021 0.95075 0.0
Co6 Co 0.47208 0.16615 0.04861 0.0
C7 C 0.5014 0.17402 0.14096 0.0
O8 O 0.48203 0.1933 0.15411 0.0
N9 N 0.42402 0.1521 0.08036 0.0
C10 C 0.37889 0.12783 0.13491 0.0
C11 C 0.40349 0.11993 0.10791 0.0
C12 C 0.40947 0.1778 0.08966 0.0
N13 N 0.38349 0.16491 0.12417 0.0
O14 O 0.49304 0.22361 0.05943 0.0
H15 H 0.40969 0.09487 0.11226 0.0
H16 H 0.42142 0.20795 0.075 0.0
O17 O 0.49907 0.16288 0.1012 0.0
C18 C 0.49256 0.24531 0.0276 0.0
O19 O 0.47464 0.22643 0.991 0.0
N20 N 0.45271 0.11054 0.03571 0.0
C21 C 0.44848 0.04167 -0.00301 0.0
C22 C 0.4596 0.05044 0.04095 0.0
C23 C 0.46197 0.08539 0.05973 0.0
C24 C 0.43581 0.09887 0.99511 0.0
C25 C 0.4343 0.06475 0.97445 0.0
H26 H 0.47386 0.0931 0.09255 0.0
H27 H 0.42815 0.11892 0.97682 0.0
H28 H 0.56548 0.20935 0.06752 0.0
H29 H 0.57973 0.18597 0.9362 0.0
H30 H 0.3638 0.11047 0.16412 0.0
H31 H 0.47044 0.0329 0.05931 0.0
H32 H 0.42531 0.05845 0.94041 0.0
C33 C 0.83579 0.37443 0.01801 0.0
C34 C 0.82787 0.40615 0.00999 0.0
N35 N 0.81177 0.41254 0.04661 0.0
N36 N 0.82481 0.36117 0.05948 0.0
C37 C 0.80995 0.38471 0.07578 0.0
H38 H 0.84852 0.36169 0.99507 0.0
Co39 Co 0.82956 0.31977 0.08764 0.0
C40 C 0.83609 0.34259 0.18259 0.0
O41 O 0.85946 0.32652 0.1915 0.0
N42 N 0.83408 0.27716 0.11545 0.0
C43 C 0.85473 0.2349 0.14253 0.0
C44 C 0.86678 0.27126 0.12029 0.0
C45 C 0.80275 0.2439 0.13497 0.0
N46 N 0.81436 0.2178 0.15121 0.0
O47 O 0.77179 0.28597 0.08346 0.0
H48 H 0.89773 0.29195 0.10908 0.0
H49 H 0.77191 0.23907 0.13842 0.0
O50 O 0.82269 0.34035 0.14379 0.0
C51 C 0.75748 0.26483 0.04871 0.0
O52 O 0.78318 0.26399 0.01999 0.0
N53 N 0.88624 0.35433 0.08773 0.0
C54 C 0.95803 0.41832 0.05359 0.0
C55 C 0.94267 0.42343 0.09332 0.0
C56 C 0.9061 0.39119 0.10952 0.0
C57 C 0.90355 0.34745 0.0518 0.0
C58 C 0.93974 0.37923 0.03404 0.0
H59 H 0.8917 0.39862 0.13559 0.0
H60 H 0.88648 0.31879 0.03385 0.0
H61 H 0.79793 0.38173 0.10851 0.0
H62 H 0.83251 0.42233 0.97932 0.0
H63 H 0.87397 0.22201 0.15149 0.0
H64 H 0.95546 0.45363 0.10848 0.0
H65 H 0.95073 0.3746 0.00292 0.0
C66 C 0.65475 0.48149 0.01496 0.0
C67 C 0.62665 0.44294 -0.00066 0.0
N68 N 0.60001 0.42193 0.03177 0.0
N69 N 0.64595 0.48469 0.05706 0.0
C70 C 0.61222 0.44792 0.06622 0.0
H71 H 0.68086 0.50521 -0.00275 0.0
Co72 Co 0.67842 0.52976 0.09306 0.0
C73 C 0.64761 0.47142 0.16968 0.0
O74 O 0.67782 0.46325 0.16722 0.0
N75 N 0.71131 0.5748 0.12736 0.0
C76 C 0.76087 0.63779 0.14576 0.0
C77 C 0.73531 0.61367 0.1125 0.0
C78 C 0.72212 0.57596 0.16945 0.0
N79 N 0.752 0.6139 0.18155 0.0
O80 O 0.71566 0.50993 0.09901 0.0
H81 H 0.73602 0.62306 0.07891 0.0
H82 H 0.71125 0.54885 0.18983 0.0
O83 O 0.64671 0.49759 0.14357 0.0
C84 C 0.74564 0.52125 0.07264 0.0
O85 O 0.75351 0.5509 0.04456 0.0
N86 N 0.64245 0.54949 0.08524 0.0
C87 C 0.5737 0.55258 0.05976 0.0
C88 C 0.5804 0.54899 0.10416 0.0
C89 C 0.6158 0.54826 0.11649 0.0
C90 C 0.63985 0.55996 0.0433 0.0
C91 C 0.60527 0.56143 0.02961 0.0
H92 H 0.61977 0.54316 0.15046 0.0
H93 H 0.66238 0.56257 0.01946 0.0
H94 H 0.59711 0.43961 0.09767 0.0
H95 H 0.62719 0.43057 0.96746 0.0
H96 H 0.78568 0.66949 0.14319 0.0
H97 H 0.55685 0.54294 0.12831 0.0
H98 H 0.60118 0.56444 0.995 0.0
C99 C 0.79413 0.42404 0.44331 0.0
C100 C 0.77744 0.38175 0.44624 0.0
N101 N 0.77526 0.36681 0.40558 0.0
N102 N 0.80254 0.43538 0.40105 0.0
C103 C 0.79109 0.39989 0.37909 0.0
H104 H 0.79883 0.44502 0.46997 0.0
Co105 Co 0.82131 0.4876 0.37765 0.0
C106 C 0.84948 0.47751 0.28924 0.0
O107 O 0.88458 0.51246 0.29183 0.0
N108 N 0.83985 0.54083 0.35345 0.0
C109 C 0.87575 0.60579 0.32883 0.0
C110 C 0.87794 0.57472 0.35075 0.0
C111 C 0.8155 0.55235 0.33249 0.0
N112 N 0.83619 0.59163 0.31814 0.0
O113 O 0.76591 0.47214 0.36812 0.0
H114 H 0.90617 0.5767 0.36207 0.0
H115 H 0.78336 0.5317 0.32521 0.0
O116 O 0.8235 0.4667 0.32032 0.0
C117 C 0.7497 0.48117 0.3997 0.0
O118 O 0.77346 0.50591 0.43076 0.0
N119 N 0.87412 0.50075 0.39231 0.0
C120 C 0.93616 0.5036 0.44363 0.0
C121 C 0.92384 0.4797 0.40544 0.0
C122 C 0.89216 0.47821 0.38037 0.0
C123 C 0.88695 0.52535 0.42846 0.0
C124 C 0.91856 0.52786 0.45424 0.0
H125 H 0.87933 0.45544 0.35468 0.0
H126 H 0.87038 0.54068 0.43905 0.0
H127 H 0.79404 0.39792 0.3442 0.0
H128 H 0.76646 0.3633 0.47568 0.0
H129 H 0.9013 0.63581 0.32013 0.0
H130 H 0.93578 0.45938 0.39733 0.0
H131 H 0.92711 0.54623 0.48389 0.0
C132 C 0.51129 0.37406 0.44368 0.0
C133 C 0.55162 0.39583 0.45773 0.0
N134 N 0.57517 0.39162 0.42725 0.0
N135 N 0.51005 0.35765 0.40388 0.0
C136 C 0.54928 0.36811 0.39553 0.0
H137 H 0.48497 0.3716 0.4609 0.0
Co138 Co 0.46675 0.33016 0.36475 0.0
C139 C 0.50212 0.37203 0.27802 0.0
O140 O 0.46708 0.36928 0.26627 0.0
N141 N 0.42287 0.30156 0.32603 0.0
C142 C 0.36264 0.27006 0.29092 0.0
C143 C 0.38354 0.29394 0.32665 0.0
C144 C 0.42478 0.28147 0.29026 0.0
N145 N 0.38897 0.26265 0.26815 0.0
O146 O 0.4806 0.28778 0.35998 0.0
H147 H 0.37041 0.30474 0.35117 0.0
H148 H 0.45221 0.28079 0.28036 0.0
O149 O 0.50491 0.35849 0.31553 0.0
C150 C 0.4764 0.26405 0.39172 0.0
O151 O 0.45668 0.26494 0.42692 0.0
N152 N 0.454 0.37224 0.37208 0.0
C153 C 0.45526 0.4359 0.41981 0.0
C154 C 0.48058 0.4447 0.38319 0.0
C155 C 0.48008 0.41236 0.36011 0.0
C156 C 0.42558 0.36329 0.40431 0.0
C157 C 0.42569 0.39486 0.42882 0.0
H158 H 0.50484 0.42059 0.33737 0.0
H159 H 0.40706 0.33175 0.41549 0.0
H160 H 0.55896 0.35984 0.36592 0.0
H161 H 0.56285 0.41397 0.48738 0.0
H162 H 0.33098 0.25964 0.28202 0.0
H163 H 0.50447 0.47611 0.37611 0.0
H164 H 0.40618 0.38715 0.45748 0.0
C165 C 0.5971 0.14179 0.42537 0.0
C166 C 0.5776 0.16314 0.43835 0.0
N167 N 0.57297 0.18214 0.40303 0.0
N168 N 0.60414 0.14688 0.38201 0.0
C169 C 0.58999 0.17211 0.36973 0.0
H170 H 0.60477 0.12305 0.4459 0.0
Co171 Co 0.62657 0.12391 0.34456 0.0
C172 C 0.60536 0.14313 0.2587 0.0
O173 O 0.64397 0.15837 0.24673 0.0
N174 N 0.64925 0.10102 0.30706 0.0
C175 C 0.65665 0.06636 0.25203 0.0
C176 C 0.62907 0.06764 0.28089 0.0
C177 C 0.68896 0.11855 0.29452 0.0
N178 N 0.69431 0.09874 0.26046 0.0
O179 O 0.66951 0.1782 0.3326 0.0
H180 H 0.59597 0.04775 0.2801 0.0
H181 H 0.71282 0.14818 0.3064 0.0
O182 O 0.59388 0.12677 0.29641 0.0
C183 C 0.69552 0.1935 0.3636 0.0
O184 O 0.69417 0.16867 0.39481 0.0
N185 N 0.58553 0.07203 0.36026 0.0
C186 C 0.53306 0.01969 0.42313 0.0
C187 C 0.51769 0.0338 0.38963 0.0
C188 C 0.54475 0.06026 0.35803 0.0
C189 C 0.59948 0.05366 0.3885 0.0
C190 C 0.57341 0.02686 0.42037 0.0
H191 H 0.53404 0.07558 0.33617 0.0
H192 H 0.6321 0.06414 0.39012 0.0
H193 H 0.59131 0.18181 0.33645 0.0
H194 H 0.56718 0.16403 0.47114 0.0
H195 H 0.64892 0.0458 0.22423 0.0
H196 H 0.48653 0.02859 0.39087 0.0
H197 H 0.58584 0.01567 0.44543 0.0
C198 C 0.47205 0.80543 0.00094 0.0
C199 C 0.4334 0.79729 0.01347 0.0
N200 N 0.41377 0.80049 0.97801 0.0
N201 N 0.47675 0.81354 0.95775 0.0
C202 C 0.44093 0.81059 0.94488 0.0
H203 H 0.49527 0.80549 0.02196 0.0
Co204 Co 0.52364 0.82709 0.92474 0.0
C205 C 0.49291 0.81658 0.83012 0.0
O206 O 0.52823 0.82767 0.81079 0.0
N207 N 0.5714 0.8405 0.8929 0.0
C208 C 0.6327 0.87279 0.86013 0.0
C209 C 0.60647 0.87729 0.88835 0.0
C210 C 0.57794 0.81401 0.86883 0.0
N211 N 0.61464 0.8328 0.84836 0.0
O212 O 0.50848 0.77065 0.92471 0.0
H213 H 0.6123 0.90596 0.90336 0.0
H214 H 0.55476 0.78209 0.86313 0.0
O215 O 0.49067 0.81653 0.87176 0.0
C216 C 0.51576 0.75132 0.95429 0.0
O217 O 0.53859 0.77174 0.98802 0.0
N218 N 0.53669 0.88237 0.9259 0.0
C219 C 0.52 0.94545 0.94004 0.0
C220 C 0.52307 0.93394 0.89729 0.0
C221 C 0.53213 0.90237 0.89083 0.0
C222 C 0.5411 0.89827 0.96691 0.0
C223 C 0.53202 0.92956 0.97493 0.0
H224 H 0.53218 0.89213 0.85794 0.0
H225 H 0.54642 0.88311 0.99418 0.0
H226 H 0.4345 0.81478 0.91158 0.0
H227 H 0.42065 0.78915 0.0461 0.0
H228 H 0.66193 0.89715 0.84785 0.0
H229 H 0.51503 0.94651 0.86953 0.0
H230 H 0.53106 0.93879 0.00833 0.0
C231 C 0.17356 0.62528 0.97798 0.0
C232 C 0.18387 0.5947 0.97937 0.0
N233 N 0.19919 0.59308 0.94001 0.0
N234 N 0.18186 0.64233 0.93774 0.0
C235 C 0.1978 0.62229 0.91553 0.0
H236 H 0.15962 0.63365 0.00412 0.0
Co237 Co 0.16844 0.68092 0.91713 0.0
C238 C 0.15365 0.66164 0.82171 0.0
O239 O 0.12561 0.67293 0.82037 0.0
N240 N 0.15497 0.72045 0.89692 0.0
C241 C 0.12468 0.75569 0.87388 0.0
C242 C 0.11862 0.72011 0.89426 0.0
C243 C 0.18235 0.75674 0.87858 0.0
N244 N 0.16501 0.77875 0.86504 0.0
O245 O 0.2254 0.72094 0.91748 0.0
H246 H 0.08898 0.69488 0.90404 0.0
H247 H 0.21424 0.76609 0.87226 0.0
O248 O 0.17331 0.66581 0.85716 0.0
C249 C 0.23989 0.73522 0.95514 0.0
O250 O 0.2147 0.72356 0.98878 0.0
N251 N 0.11337 0.64039 0.92081 0.0
C252 C 0.04996 0.57004 0.95809 0.0
C253 C 0.06516 0.56793 0.91708 0.0
C254 C 0.09759 0.60344 0.8993 0.0
C255 C 0.09578 0.64358 0.95857 0.0
C256 C 0.06362 0.60855 0.97783 0.0
H257 H 0.11336 0.5992 0.87223 0.0
H258 H 0.11001 0.67249 0.9764 0.0
H259 H 0.20658 0.6276 0.88145 0.0
H260 H 0.17997 0.57487 0.00691 0.0
H261 H 0.10131 0.76325 0.86474 0.0
H262 H 0.05577 0.53838 0.90162 0.0
H263 H 0.05236 0.61093 0.00974 0.0
C264 C 0.33739 0.52361 0.96363 0.0
C265 C 0.36656 0.56143 0.97988 0.0
N266 N 0.39823 0.57833 0.95143 0.0
N267 N 0.35057 0.51702 0.92502 0.0
C268 C 0.3878 0.55084 0.91857 0.0
H269 H 0.30819 0.50245 0.97868 0.0
Co270 Co 0.32228 0.47019 0.89056 0.0
C271 C 0.36873 0.49448 0.80396 0.0
O272 O 0.35565 0.45644 0.79067 0.0
N273 N 0.29288 0.42277 0.85749 0.0
C274 C 0.2487 0.35704 0.8412 0.0
C275 C 0.27793 0.38331 0.87075 0.0
C276 C 0.27273 0.41977 0.82008 0.0
N277 N 0.2461 0.38033 0.80926 0.0
O278 O 0.2862 0.48932 0.87411 0.0
H279 H 0.28494 0.3744 0.90178 0.0
H280 H 0.27462 0.44615 0.80318 0.0
O281 O 0.35761 0.50115 0.84111 0.0
C282 C 0.25407 0.47833 0.89697 0.0
O283 O 0.24261 0.44746 0.92447 0.0
N284 N 0.3576 0.45233 0.91029 0.0
C285 C 0.42267 0.47072 0.96475 0.0
C286 C 0.4282 0.47222 0.91939 0.0
C287 C 0.39483 0.46259 0.89233 0.0
C288 C 0.35013 0.44246 0.9535 0.0
C289 C 0.38278 0.4522 0.98188 0.0
H290 H 0.40059 0.46789 0.85798 0.0
H291 H 0.32019 0.4339 0.96699 0.0
H292 H 0.40704 0.55557 0.89028 0.0
H293 H 0.36386 0.57612 0.00927 0.0
H294 H 0.22865 0.32401 0.84471 0.0
H295 H 0.45867 0.48469 0.90524 0.0
H296 H 0.3775 0.44984 0.01687 0.0
C297 C 0.15763 0.55363 0.56136 0.0
C298 C 0.17288 0.59525 0.55453 0.0
N299 N 0.19467 0.61588 0.59018 0.0
N300 N 0.1692 0.54821 0.60142 0.0
C301 C 0.19239 0.58668 0.61764 0.0
H302 H 0.13764 0.52886 0.53953 0.0
Co303 Co 0.15248 0.49916 0.63171 0.0
C304 C 0.13301 0.52182 0.71908 0.0
O305 O 0.09828 0.48671 0.72319 0.0
N306 N 0.13565 0.44911 0.66252 0.0
C307 C 0.10041 0.38812 0.69638 0.0
C308 C 0.09754 0.41877 0.67449 0.0
C309 C 0.16084 0.4357 0.6775 0.0
N310 N 0.14039 0.399 0.69806 0.0
O311 O 0.2085 0.51461 0.63792 0.0
H312 H 0.06915 0.41895 0.66893 0.0
H313 H 0.19401 0.45306 0.6752 0.0
O314 O 0.15563 0.52812 0.68563 0.0
C315 C 0.22353 0.50983 0.60255 0.0
O316 O 0.1991 0.49312 0.5687 0.0
N317 N 0.09842 0.48483 0.62109 0.0
C318 C 0.03372 0.47812 0.57192 0.0
C319 C 0.04909 0.50612 0.60673 0.0
C320 C 0.08214 0.5095 0.63074 0.0
C321 C 0.08139 0.4551 0.58963 0.0
C322 C 0.04846 0.45081 0.56486 0.0
H323 H 0.09762 0.53541 0.65272 0.0
H324 H 0.09608 0.43741 0.58092 0.0
H325 H 0.20673 0.5932 0.64956 0.0
H326 H 0.16653 0.60886 0.52653 0.0
H327 H 0.07521 0.3605 0.71058 0.0
H328 H 0.03877 0.52822 0.61214 0.0
H329 H 0.03716 0.42902 0.53792 0.0
C330 C 0.46099 0.62601 0.54844 0.0
C331 C 0.41971 0.60028 0.5405 0.0
N332 N 0.39908 0.59532 0.57821 0.0
N333 N 0.46624 0.63689 0.59102 0.0
C334 C 0.42796 0.61846 0.60804 0.0
H335 H 0.48561 0.63577 0.52483 0.0
Co336 Co 0.51582 0.6683 0.61998 0.0
C337 C 0.5014 0.63008 0.70853 0.0
O338 O 0.5396 0.63768 0.71035 0.0
N339 N 0.56628 0.70082 0.6489 0.0
C340 C 0.62988 0.72955 0.67659 0.0
C341 C 0.60302 0.70201 0.64618 0.0
C342 C 0.572 0.72826 0.68071 0.0
N343 N 0.61015 0.74613 0.69761 0.0
O344 O 0.50083 0.70946 0.62932 0.0
H345 H 0.60987 0.68302 0.62513 0.0
H346 H 0.54793 0.73352 0.6932 0.0
O347 O 0.48928 0.6418 0.67529 0.0
C348 C 0.50221 0.72936 0.59503 0.0
O349 O 0.51878 0.72416 0.55941 0.0
N350 N 0.52884 0.62734 0.60655 0.0
C351 C 0.51887 0.56438 0.55095 0.0
C352 C 0.49913 0.55503 0.59156 0.0
C353 C 0.50408 0.58702 0.61879 0.0
C354 C 0.55206 0.63669 0.56948 0.0
C355 C 0.54789 0.60549 0.54127 0.0
H356 H 0.48278 0.57865 0.64553 0.0
H357 H 0.56958 0.66849 0.55874 0.0
H358 H 0.42137 0.62263 0.64149 0.0
H359 H 0.40602 0.586 0.50951 0.0
H360 H 0.66075 0.73576 0.68383 0.0
H361 H 0.47609 0.52359 0.5998 0.0
H362 H 0.56398 0.61369 0.51021 0.0
C363 C 0.37291 0.84378 0.57319 0.0
C364 C 0.39556 0.82669 0.5574 0.0
N365 N 0.40191 0.8067 0.59052 0.0
N366 N 0.36564 0.83512 0.61617 0.0
C367 C 0.38299 0.81187 0.62546 0.0
H368 H 0.36414 0.86303 0.55506 0.0
Co369 Co 0.3426 0.85613 0.6555 0.0
C370 C 0.36379 0.82811 0.73651 0.0
O371 O 0.32466 0.80611 0.7471 0.0
N372 N 0.31984 0.87773 0.6952 0.0
C373 C 0.3122 0.91817 0.74349 0.0
C374 C 0.3388 0.91536 0.71462 0.0
C375 C 0.28178 0.85842 0.71295 0.0
N376 N 0.27646 0.88206 0.74276 0.0
O377 O 0.29899 0.80137 0.66436 0.0
H378 H 0.37056 0.93897 0.70968 0.0
H379 H 0.25912 0.82648 0.70661 0.0
O380 O 0.37435 0.85072 0.70235 0.0
C381 C 0.27457 0.78936 0.63184 0.0
O382 O 0.27793 0.817 0.60307 0.0
N383 N 0.38418 0.90861 0.64193 0.0
C384 C 0.43866 0.96474 0.58277 0.0
C385 C 0.45306 0.94928 0.61588 0.0
C386 C 0.42501 0.92089 0.64551 0.0
C387 C 0.3708 0.92769 0.61392 0.0
C388 C 0.3978 0.95622 0.58385 0.0
H389 H 0.43527 0.90485 0.66674 0.0
H390 H 0.33814 0.91665 0.61102 0.0
H391 H 0.38268 0.79966 0.65757 0.0
H392 H 0.40822 0.83072 0.52478 0.0
H393 H 0.31934 0.94407 0.76478 0.0
H394 H 0.48439 0.95494 0.61555 0.0
H395 H 0.38591 0.96787 0.55869 0.0
C396 C 0.58544 0.15505 0.18454 0.0
C397 C 0.57639 0.148 0.22942 0.0
C398 C 0.56058 0.16266 0.15624 0.0
C399 C 0.52642 0.16502 0.17182 0.0
H400 H 0.612 0.15468 0.171 0.0
H401 H 0.5688 0.16743 0.12197 0.0
S402 S 0.4876 0.14642 0.28592 0.0
N403 N 0.52855 0.14072 0.28747 0.0
N404 N 0.48362 0.15787 0.23467 0.0
C405 C 0.51661 0.15757 0.21646 0.0
C406 C 0.54108 0.1483 0.24512 0.0
C407 C 0.87415 0.40193 0.23361 0.0
C408 C 0.83732 0.375 0.21162 0.0
C409 C 0.87844 0.43631 0.25674 0.0
C410 C 0.84576 0.44455 0.25961 0.0
H411 H 0.90037 0.39714 0.23192 0.0
H412 H 0.90724 0.45599 0.27347 0.0
S413 S 0.74292 0.38373 0.20824 0.0
N414 N 0.76775 0.35935 0.19368 0.0
N415 N 0.77528 0.42303 0.23903 0.0
C416 C 0.80859 0.41766 0.23837 0.0
C417 C 0.80453 0.38317 0.21385 0.0
C418 C 0.57468 0.44726 0.19251 0.0
C419 C 0.61169 0.44674 0.19886 0.0
C420 C 0.5395 0.4226 0.21774 0.0
C421 C 0.53968 0.39637 0.25068 0.0
H422 H 0.57247 0.46643 0.16734 0.0
H423 H 0.51203 0.42449 0.21147 0.0
S424 S 0.62877 0.38336 0.28044 0.0
N425 N 0.64646 0.41795 0.24088 0.0
N426 N 0.58019 0.37084 0.28741 0.0
C427 C 0.57646 0.3954 0.25727 0.0
C428 C 0.61242 0.42073 0.23165 0.0
C429 C 0.46844 0.8444 0.77067 0.0
C430 C 0.45902 0.81586 0.8047 0.0
C431 C 0.43748 0.84828 0.74941 0.0
C432 C 0.39566 0.8236 0.76101 0.0
H433 H 0.50018 0.86496 0.76124 0.0
H434 H 0.44672 0.87117 0.72384 0.0
S435 S 0.35452 0.74067 0.84516 0.0
N436 N 0.40496 0.7602 0.8471 0.0
N437 N 0.34643 0.76724 0.80717 0.0
C438 C 0.38569 0.7939 0.79424 0.0
C439 C 0.41742 0.79009 0.81603 0.0
C440 C 0.1058 0.56272 0.75613 0.0
C441 C 0.13974 0.55813 0.74506 0.0
C442 C 0.11108 0.59802 0.77804 0.0
C443 C 0.15044 0.62966 0.79075 0.0
H444 H 0.07485 0.53905 0.74738 0.0
H445 H 0.08384 0.59953 0.78691 0.0
S446 S 0.24951 0.63357 0.76776 0.0
N447 N 0.21431 0.58925 0.74618 0.0
N448 N 0.22405 0.65486 0.7894 0.0
C449 C 0.18473 0.62581 0.77933 0.0
C450 C 0.17943 0.59026 0.75596 0.0
C451 C 0.43588 0.59997 0.75208 0.0
C452 C 0.46971 0.59711 0.73637 0.0
C453 C 0.40361 0.56696 0.77492 0.0
C454 C 0.4032 0.52936 0.78079 0.0
H455 H 0.43432 0.62782 0.74654 0.0
H456 H 0.37822 0.57039 0.78688 0.0
S457 S 0.48456 0.50629 0.74624 0.0
N458 N 0.50135 0.55413 0.72958 0.0
N459 N 0.43987 0.49164 0.77029 0.0
C460 C 0.43687 0.52623 0.76537 0.0
C461 C 0.47032 0.56022 0.74366 0.0
C462 C 0.4452 0.974 0.98914 0.0
C463 C 0.46008 0.01444 0.97393 0.0
C464 C 0.46417 0.95149 0.97668 0.0
C465 C 0.49881 0.9689 0.94898 0.0
H466 H 0.42017 0.9606 0.01259 0.0
H467 H 0.45248 0.92069 0.98989 0.0
S468 S 0.54843 0.07304 0.89903 0.0
N469 N 0.51022 0.0705 0.92848 0.0
N470 N 0.5459 0.02783 0.90492 0.0
C471 C 0.51261 0.00841 0.93168 0.0
C472 C 0.4932 0.03133 0.94425 0.0
C473 C 0.9698 0.46119 0.98778 0.0
C474 C 0.98469 0.45532 0.0278 0.0
C475 C 0.99062 0.49884 0.96569 0.0
C476 C 0.02666 0.53179 0.98323 0.0
H477 H 0.94106 0.43701 0.97424 0.0
H478 H 0.97831 0.50241 0.93498 0.0
S479 S 0.08009 0.53071 0.08487 0.0
N480 N 0.03852 0.48439 0.08282 0.0
N481 N 0.07825 0.55543 0.04094 0.0
C482 C 0.04247 0.52597 0.02259 0.0
C483 C 0.02129 0.48762 0.04502 0.0
C484 C 0.46568 0.47433 0.02847 0.0
C485 C 0.45847 0.49397 0.99338 0.0
C486 C 0.50187 0.49528 0.05298 0.0
C487 C 0.53162 0.53646 0.04315 0.0
H488 H 0.44435 0.44207 0.03548 0.0
H489 H 0.50795 0.47817 0.07763 0.0
S490 S 0.52303 0.60358 0.95983 0.0
N491 N 0.48061 0.55835 0.95397 0.0
N492 N 0.54899 0.59761 6e-05 0.0
C493 C 0.52302 0.55736 0.01054 0.0
C494 C 0.48629 0.53609 0.98558 0.0
C495 C 0.97104 0.48039 0.55019 0.0
C496 C 0.00841 0.48293 0.53853 0.0
C497 C 0.94806 0.48762 0.51917 0.0
C498 C 0.9621 0.49808 0.47579 0.0
H499 H 0.95955 0.47269 0.58339 0.0
H500 H 0.91885 0.48453 0.52905 0.0
S501 S 0.05978 0.51182 0.4302 0.0
N502 N 0.0597 0.49853 0.48172 0.0
N503 N 0.0163 0.51231 0.42326 0.0
C504 C -0.00032 0.50119 0.46393 0.0
C505 C 0.02297 0.49364 0.49543 0.0
C506 C 0.48083 0.46151 0.49451 0.0
C507 C 0.46745 0.46783 0.45376 0.0
C508 C 0.49845 0.49324 0.52547 0.0
C509 C 0.50342 0.53236 0.51658 0.0
H510 H 0.47881 0.43218 0.50199 0.0
H511 H 0.50852 0.48726 0.55644 0.0
S512 S 0.47027 0.56332 0.41597 0.0
N513 N 0.45865 0.51509 0.40668 0.0
N514 N 0.49092 0.57482 0.46531 0.0
C515 C 0.48932 0.53877 0.47626 0.0
C516 C 0.47155 0.50646 0.44471 0.0
C517 C 0.46881 0.97312 0.46396 0.0
C518 C 0.50997 0.0051 0.46436 0.0
C519 C 0.44569 0.96109 0.50249 0.0
C520 C 0.4629 0.98098 0.54248 0.0
H521 H 0.45454 0.95725 0.43374 0.0
H522 H 0.41433 0.93546 0.50113 0.0
S523 S 0.56836 0.06851 0.56017 0.0
N524 N 0.56646 0.05796 0.50747 0.0
N525 N 0.52268 0.0349 0.58006 0.0
C526 C 0.5038 0.01328 0.54325 0.0
C527 C 0.52742 0.02551 0.50409 0.0
C528 C 0.41328 0.25659 0.19585 0.0
C529 C 0.38226 0.24065 0.22776 0.0
C530 C 0.41175 0.23283 0.15995 0.0
C531 C 0.37904 0.19197 0.15458 0.0
H532 H 0.44003 0.28704 0.1999 0.0
H533 H 0.43807 0.24576 0.13823 0.0
S534 S 0.2872 0.13818 0.2261 0.0
N535 N 0.31586 0.18351 0.24991 0.0
N536 N 0.31247 0.13857 0.18158 0.0
C537 C 0.34614 0.17691 0.18452 0.0
C538 C 0.34779 0.20132 0.22128 0.0
C539 C 0.71857 0.12318 0.18605 0.0
C540 C 0.72754 0.11901 0.22977 0.0
C541 C 0.74839 0.15376 0.1592 0.0
C542 C 0.7882 0.18072 0.17495 0.0
H543 H 0.68737 0.1055 0.17378 0.0
H544 H 0.73958 0.15823 0.12681 0.0
S545 S 0.82892 0.1781 0.28442 0.0
N546 N 0.78028 0.14069 0.28574 0.0
N547 N 0.83659 0.19836 0.23491 0.0
C548 C 0.79879 0.17421 0.21698 0.0
C549 C 0.76832 0.14322 0.24448 0.0
C550 C 0.83986 0.62842 0.25015 0.0
C551 C 0.81949 0.60993 0.28945 0.0
C552 C 0.81864 0.63434 0.21575 0.0
C553 C 0.77663 0.62183 0.21993 0.0
H554 H 0.87094 0.63453 0.24443 0.0
H555 H 0.8339 0.64475 0.18443 0.0
S556 S 0.71252 0.58094 0.31938 0.0
N557 N 0.75764 0.58653 0.33332 0.0
N558 N 0.71756 0.59678 0.26814 0.0
C559 C 0.75755 0.6079 0.26063 0.0
C560 C 0.77909 0.6022 0.29562 0.0
C561 C 0.63377 0.83439 0.77132 0.0
C562 C 0.62529 0.81516 0.81252 0.0
C563 C 0.63214 0.81247 0.73343 0.0
C564 C 0.62292 0.77121 0.73597 0.0
H565 H 0.63798 0.86515 0.76802 0.0
H566 H 0.63532 0.82676 0.70178 0.0
S567 S 0.60285 0.70863 0.83611 0.0
N568 N 0.61086 0.7539 0.85388 0.0
N569 N 0.60837 0.71296 0.7824 0.0
C570 C 0.61768 0.75282 0.77706 0.0
C571 C 0.61882 0.77483 0.81551 0.0
C572 C 0.1749 0.81085 0.79325 0.0
C573 C 0.18561 0.81428 0.83761 0.0
C574 C 0.20378 0.83666 0.76218 0.0
C575 C 0.24399 0.86653 0.77472 0.0
H576 H 0.1459 0.78522 0.78213 0.0
H577 H 0.19593 0.8308 0.72783 0.0
S578 S 0.28337 0.89221 0.88847 0.0
N579 N 0.23579 0.8533 0.89357 0.0
N580 N 0.29052 0.90187 0.83553 0.0
C581 C 0.25304 0.87344 0.81964 0.0
C582 C 0.2236 0.84719 0.85106 0.0
C583 C 0.19631 0.38346 0.70672 0.0
C584 C 0.15964 0.38048 0.72263 0.0
C585 C 0.22292 0.37827 0.7346 0.0
C586 C 0.21328 0.36916 0.77894 0.0
H587 H 0.20611 0.3934 0.67342 0.0
H588 H 0.25286 0.38508 0.72251 0.0
S589 S 0.11904 0.35284 0.83563 0.0
N590 N 0.11327 0.36373 0.78469 0.0
N591 N 0.16326 0.35311 0.83675 0.0
C592 C 0.17485 0.36166 0.79418 0.0
C593 C 0.14788 0.36744 0.766 0.0
C594 C 0.54011 0.31094 0.06711 0.0
C595 C 0.51601 0.29115 0.02996 0.0
C596 C 0.56635 0.3539 0.06813 0.0
C597 C 0.56963 0.37864 0.032 0.0
H598 H 0.5398 0.29307 0.09515 0.0
H599 H 0.5855 0.36763 0.09669 0.0
S600 S 0.50946 0.34334 0.92932 0.0
N601 N 0.49437 0.30056 0.95776 0.0
N602 N 0.54392 0.38123 0.96004 0.0
C603 C 0.54436 0.3597 0.99562 0.0
C604 C 0.51744 0.316 0.99455 0.0
C605 C 0.69113 0.26447 0.05627 0.0
C606 C 0.71348 0.24717 0.03772 0.0
C607 C 0.65018 0.25036 0.04447 0.0
C608 C 0.62984 0.2182 0.01394 0.0
H609 H 0.70558 0.28974 0.07946 0.0
H610 H 0.63438 0.26499 0.05919 0.0
S611 S 0.67369 0.16035 0.95844 0.0
N612 N 0.71196 0.19518 0.9885 0.0
N613 N 0.63439 0.16787 0.96721 0.0
C614 C 0.65161 0.2002 0.99556 0.0
C615 C 0.69355 0.21484 0.00731 0.0
C616 C 0.76193 0.42924 0.07961 0.0
C617 C 0.79697 0.44103 0.05348 0.0
C618 C 0.74657 0.456 0.08681 0.0
C619 C 0.76555 0.49572 0.06808 0.0
H620 H 0.74558 0.39862 0.09382 0.0
H621 H 0.71879 0.44476 0.10615 0.0
S622 S 0.86048 0.54291 0.00028 0.0
N623 N 0.85202 0.49601 0.01132 0.0
N624 N 0.82279 0.54644 0.02424 0.0
C625 C 0.80127 0.50836 0.04272 0.0
C626 C 0.81702 0.48098 0.03549 0.0
C627 C 0.68475 0.47769 0.42459 0.0
C628 C 0.70493 0.45805 0.40621 0.0
C629 C 0.64233 0.45547 0.43314 0.0
C630 C 0.61918 0.41292 0.42416 0.0
H631 H 0.70174 0.5105 0.43173 0.0
H632 H 0.62733 0.47179 0.4456 0.0
S633 S 0.65882 0.34607 0.38298 0.0
N634 N 0.69944 0.39304 0.38333 0.0
N635 N 0.61995 0.35124 0.40059 0.0
C636 C 0.63938 0.3927 0.40767 0.0
C637 C 0.68226 0.4153 0.39833 0.0
C638 C 0.51806 0.19515 0.42998 0.0
C639 C 0.54994 0.20375 0.39999 0.0
C640 C 0.49383 0.21398 0.42642 0.0
C641 C 0.49997 0.24177 0.39235 0.0
H642 H 0.51123 0.17323 0.45618 0.0
H643 H 0.47006 0.20663 0.4507 0.0
S644 S 0.57927 0.27515 0.30497 0.0
N645 N 0.58723 0.24367 0.33582 0.0
N646 N 0.5399 0.27651 0.32739 0.0
C647 C 0.53132 0.25028 0.36169 0.0
C648 C 0.55675 0.232 0.36598 0.0
C649 C 0.76277 0.29649 0.41899 0.0
C650 C 0.75769 0.32426 0.39249 0.0
C651 C 0.74449 0.2546 0.40791 0.0
C652 C 0.71999 0.23879 0.37011 0.0
H653 H 0.78081 0.30722 0.4487 0.0
H654 H 0.7486 0.2343 0.43002 0.0
S655 S 0.69765 0.29904 0.28918 0.0
N656 N 0.72717 0.33333 0.32611 0.0
N657 N 0.69267 0.25465 0.30539 0.0
C658 C 0.71567 0.26653 0.34256 0.0
C659 C 0.7345 0.30925 0.35374 0.0
C660 C 0.4441 0.64331 0.91339 0.0
C661 C 0.43244 0.61986 0.95201 0.0
C662 C 0.47329 0.68542 0.91413 0.0
C663 C 0.4921 0.70563 0.9535 0.0
H664 H 0.42892 0.62956 0.88275 0.0
H665 H 0.47979 0.70263 0.88384 0.0
S666 S 0.47723 0.65589 0.06217 0.0
N667 N 0.44544 0.61812 0.02949 0.0
N668 N 0.50054 0.69762 0.03122 0.0
C669 C 0.48304 0.68175 0.99179 0.0
C670 C 0.45297 0.63879 0.991 0.0
C671 C 0.29957 0.74274 -0.00264 0.0
C672 C 0.28455 0.756 0.96264 0.0
C673 C 0.34184 0.7585 0.00302 0.0
C674 C 0.37082 0.78871 0.97463 0.0
H675 H 0.27841 0.71856 0.0192 0.0
H676 H 0.35163 0.74551 0.02879 0.0
S677 S 0.34669 0.83848 0.88285 0.0
N678 N 0.30117 0.80321 0.90164 0.0
N679 N 0.38105 0.8352 0.91382 0.0
C680 C 0.35605 0.80414 0.94132 0.0
C681 C 0.3128 0.78714 0.9349 0.0
C682 C 0.18933 0.52273 0.93947 0.0
C683 C 0.21159 0.56416 0.9259 0.0
C684 C 0.20187 0.49444 0.92757 0.0
C685 C 0.23726 0.5066 0.90179 0.0
H686 H 0.16221 0.51223 0.95977 0.0
H687 H 0.18436 0.46311 0.93984 0.0
S688 S 0.30603 0.612 0.85757 0.0
N689 N 0.27026 0.61611 0.88503 0.0
N690 N 0.29383 0.56313 0.86207 0.0
C691 C 0.259 0.54779 0.88671 0.0
C692 C 0.24621 0.57655 0.89898 0.0
C693 C 0.3286 0.56831 0.55053 0.0
C694 C 0.35521 0.57177 0.58469 0.0
C695 C 0.28591 0.54716 0.55643 0.0
C696 C 0.26832 0.52913 0.59686 0.0
H697 H 0.34086 0.58298 0.51931 0.0
H698 H 0.26665 0.54609 0.52946 0.0
S699 S 0.32373 0.52495 0.69519 0.0
N700 N 0.36047 0.55165 0.65918 0.0
N701 N 0.28001 0.51339 0.67066 0.0
C702 C 0.29428 0.5314 0.63104 0.0
C703 C 0.33782 0.55236 0.62486 0.0
C704 C 0.4499 0.78973 0.6284 0.0
C705 C 0.42746 0.78788 0.59062 0.0
C706 C 0.47449 0.77119 0.62952 0.0
C707 C 0.47811 0.75076 0.59266 0.0
H708 H 0.44869 0.80585 0.65733 0.0
H709 H 0.49092 0.773 0.65935 0.0
S710 S 0.42334 0.73426 0.48695 0.0
N711 N 0.40858 0.76162 0.5165 0.0
N712 N 0.45574 0.72787 0.51804 0.0
C713 C 0.45588 0.74861 0.5547 0.0
C714 C 0.43038 0.76696 0.55379 0.0
C715 C 0.23345 0.7151 0.65322 0.0
C716 C 0.2516 0.74515 0.6204 0.0
C717 C 0.21423 0.67292 0.64296 0.0
C718 C 0.21325 0.65937 0.59963 0.0
H719 H 0.23415 0.72425 0.68701 0.0
H720 H 0.20006 0.6508 0.66922 0.0
S721 S 0.26012 0.72623 0.50261 0.0
N722 N 0.26917 0.75883 0.54324 0.0
N723 N 0.23426 0.67963 0.52432 0.0
C724 C 0.23173 0.68924 0.56666 0.0
C725 C 0.25069 0.73213 0.57698 0.0
loop_
_geom_bond_atom_site_label_1
_geom_bond_atom_site_label_2
_geom_bond_distance
_geom_bond_site_symmetry_2
_ccdc_geom_bond_type
C0 C1 1.351 . S
C0 N3 1.368 . S
C0 H5 0.931 . S
C1 C0 1.351 . S
C1 N2 1.373 . S
C1 H29 0.930 1_554 S
N2 C1 1.373 . S
N2 C4 1.340 . S
N3 C0 1.368 . S
N3 C4 1.321 . S
N3 Co6 2.135 . S
C4 N2 1.340 . S
C4 N3 1.321 . S
C4 H28 0.930 . S
H5 C0 0.931 . S
Co6 N3 2.135 . S
Co6 N9 2.121 . S
Co6 O14 2.055 . S
Co6 O17 2.039 . S
Co6 N20 2.140 . S
C7 O8 1.227 . S
C7 O17 1.265 . S
O8 C7 1.227 . S
N9 Co6 2.121 . S
N9 C11 1.375 . S
N9 C12 1.313 . S
C10 C11 1.338 . S
C10 N13 1.377 . S
C10 H30 0.930 . S
C11 N9 1.375 . S
C11 C10 1.338 . S
C11 H15 0.931 . S
C12 N9 1.313 . S
C12 N13 1.344 . S
C12 H16 0.930 . S
N13 C10 1.377 . S
N13 C12 1.344 . S
O14 Co6 2.055 . S
O14 C18 1.253 . S
H15 C11 0.931 . S
H16 C12 0.930 . S
O17 Co6 2.039 . S
O17 C7 1.265 . S
C18 O14 1.253 . S
C18 O19 1.227 . S
O19 C18 1.227 . S
N20 Co6 2.140 . S
N20 C23 1.346 . S
N20 C24 1.345 . S
C21 C22 1.387 . S
C21 C25 1.391 . S
C22 C21 1.387 . S
C22 C23 1.369 . S
C22 H31 0.929 . S
C23 N20 1.346 . S
C23 C22 1.369 . S
C23 H26 0.928 . S
C24 N20 1.345 . S
C24 C25 1.371 . S
C24 H27 0.931 . S
C25 C21 1.391 . S
C25 C24 1.371 . S
C25 H32 0.930 . S
H26 C23 0.928 . S
H27 C24 0.931 . S
H28 C4 0.930 . S
H29 C1 0.930 1_556 S
H30 C10 0.930 . S
H31 C22 0.929 . S
H32 C25 0.930 . S
C33 C34 1.351 . S
C33 N36 1.368 . S
C33 H38 0.931 . S
C34 C33 1.351 . S
C34 N35 1.373 . S
C34 H62 0.930 1_554 S
N35 C34 1.373 . S
N35 C37 1.340 . S
N36 C33 1.368 . S
N36 C37 1.321 . S
N36 Co39 2.135 . S
C37 N35 1.340 . S
C37 N36 1.321 . S
C37 H61 0.930 . S
H38 C33 0.931 . S
Co39 N36 2.135 . S
Co39 N42 2.121 . S
Co39 O47 2.055 . S
Co39 O50 2.039 . S
Co39 N53 2.140 . S
C40 O41 1.227 . S
C40 O50 1.265 . S
O41 C40 1.227 . S
N42 Co39 2.121 . S
N42 C44 1.375 . S
N42 C45 1.313 . S
C43 C44 1.338 . S
C43 N46 1.377 . S
C43 H63 0.930 . S
C44 N42 1.375 . S
C44 C43 1.338 . S
C44 H48 0.931 . S
C45 N42 1.313 . S
C45 N46 1.344 . S
C45 H49 0.930 . S
N46 C43 1.377 . S
N46 C45 1.344 . S
O47 Co39 2.055 . S
O47 C51 1.253 . S
H48 C44 0.931 . S
H49 C45 0.930 . S
O50 Co39 2.039 . S
O50 C40 1.265 . S
C51 O47 1.253 . S
C51 O52 1.227 . S
O52 C51 1.227 . S
N53 Co39 2.140 . S
N53 C56 1.346 . S
N53 C57 1.345 . S
C54 C55 1.387 . S
C54 C58 1.391 . S
C55 C54 1.387 . S
C55 C56 1.369 . S
C55 H64 0.929 . S
C56 N53 1.346 . S
C56 C55 1.369 . S
C56 H59 0.928 . S
C57 N53 1.345 . S
C57 C58 1.371 . S
C57 H60 0.931 . S
C58 C54 1.391 . S
C58 C57 1.371 . S
C58 H65 0.930 . S
H59 C56 0.928 . S
H60 C57 0.931 . S
H61 C37 0.930 . S
H62 C34 0.930 1_556 S
H63 C43 0.930 . S
H64 C55 0.929 . S
H65 C58 0.930 . S
C66 C67 1.351 . S
C66 N69 1.368 . S
C66 H71 0.931 . S
C67 C66 1.351 . S
C67 N68 1.373 . S
C67 H95 0.930 1_554 S
N68 C67 1.373 . S
N68 C70 1.340 . S
N69 C66 1.368 . S
N69 C70 1.321 . S
N69 Co72 2.135 . S
C70 N68 1.340 . S
C70 N69 1.321 . S
C70 H94 0.930 . S
H71 C66 0.931 . S
Co72 N69 2.135 . S
Co72 N75 2.121 . S
Co72 O80 2.055 . S
Co72 O83 2.039 . S
Co72 N86 2.140 . S
C73 O74 1.227 . S
C73 O83 1.265 . S
O74 C73 1.227 . S
N75 Co72 2.121 . S
N75 C77 1.375 . S
N75 C78 1.313 . S
C76 C77 1.338 . S
C76 N79 1.377 . S
C76 H96 0.930 . S
C77 N75 1.375 . S
C77 C76 1.338 . S
C77 H81 0.931 . S
C78 N75 1.313 . S
C78 N79 1.344 . S
C78 H82 0.930 . S
N79 C76 1.377 . S
N79 C78 1.344 . S
O80 Co72 2.055 . S
O80 C84 1.253 . S
H81 C77 0.931 . S
H82 C78 0.930 . S
O83 Co72 2.039 . S
O83 C73 1.265 . S
C84 O80 1.253 . S
C84 O85 1.227 . S
O85 C84 1.227 . S
N86 Co72 2.140 . S
N86 C89 1.346 . S
N86 C90 1.345 . S
C87 C88 1.387 . S
C87 C91 1.391 . S
C88 C87 1.387 . S
C88 C89 1.369 . S
C88 H97 0.929 . S
C89 N86 1.346 . S
C89 C88 1.369 . S
C89 H92 0.928 . S
C90 N86 1.345 . S
C90 C91 1.371 . S
C90 H93 0.931 . S
C91 C87 1.391 . S
C91 C90 1.371 . S
C91 H98 0.930 . S
H92 C89 0.928 . S
H93 C90 0.931 . S
H94 C70 0.930 . S
H95 C67 0.930 1_556 S
H96 C76 0.930 . S
H97 C88 0.929 . S
H98 C91 0.930 . S
C99 C100 1.351 . S
C99 N102 1.368 . S
C99 H104 0.931 . S
C100 C99 1.351 . S
C100 N101 1.373 . S
C100 H128 0.930 . S
N101 C100 1.373 . S
N101 C103 1.340 . S
N102 C99 1.368 . S
N102 C103 1.321 . S
N102 Co105 2.135 . S
C103 N101 1.340 . S
C103 N102 1.321 . S
C103 H127 0.930 . S
H104 C99 0.931 . S
Co105 N102 2.135 . S
Co105 N108 2.121 . S
Co105 O113 2.055 . S
Co105 O116 2.039 . S
Co105 N119 2.140 . S
C106 O107 1.227 . S
C106 O116 1.265 . S
O107 C106 1.227 . S
N108 Co105 2.121 . S
N108 C110 1.375 . S
N108 C111 1.313 . S
C109 C110 1.338 . S
C109 N112 1.377 . S
C109 H129 0.930 . S
C110 N108 1.375 . S
C110 C109 1.338 . S
C110 H114 0.931 . S
C111 N108 1.313 . S
C111 N112 1.344 . S
C111 H115 0.930 . S
N112 C109 1.377 . S
N112 C111 1.344 . S
O113 Co105 2.055 . S
O113 C117 1.253 . S
H114 C110 0.931 . S
H115 C111 0.930 . S
O116 Co105 2.039 . S
O116 C106 1.265 . S
C117 O113 1.253 . S
C117 O118 1.227 . S
O118 C117 1.227 . S
N119 Co105 2.140 . S
N119 C122 1.346 . S
N119 C123 1.345 . S
C120 C121 1.387 . S
C120 C124 1.391 . S
C121 C120 1.387 . S
C121 C122 1.369 . S
C121 H130 0.929 . S
C122 N119 1.346 . S
C122 C121 1.369 . S
C122 H125 0.928 . S
C123 N119 1.345 . S
C123 C124 1.371 . S
C123 H126 0.931 . S
C124 C120 1.391 . S
C124 C123 1.371 . S
C124 H131 0.930 . S
H125 C122 0.928 . S
H126 C123 0.931 . S
H127 C103 0.930 . S
H128 C100 0.930 . S
H129 C109 0.930 . S
H130 C121 0.929 . S
H131 C124 0.930 . S
C132 C133 1.351 . S
C132 N135 1.368 . S
C132 H137 0.931 . S
C133 C132 1.351 . S
C133 N134 1.373 . S
C133 H161 0.930 . S
N134 C133 1.373 . S
N134 C136 1.340 . S
N135 C132 1.368 . S
N135 C136 1.321 . S
N135 Co138 2.135 . S
C136 N134 1.340 . S
C136 N135 1.321 . S
C136 H160 0.930 . S
H137 C132 0.931 . S
Co138 N135 2.135 . S
Co138 N141 2.121 . S
Co138 O146 2.055 . S
Co138 O149 2.039 . S
Co138 N152 2.140 . S
C139 O140 1.227 . S
C139 O149 1.265 . S
O140 C139 1.227 . S
N141 Co138 2.121 . S
N141 C143 1.375 . S
N141 C144 1.313 . S
C142 C143 1.338 . S
C142 N145 1.377 . S
C142 H162 0.930 . S
C143 N141 1.375 . S
C143 C142 1.338 . S
C143 H147 0.931 . S
C144 N141 1.313 . S
C144 N145 1.344 . S
C144 H148 0.930 . S
N145 C142 1.377 . S
N145 C144 1.344 . S
O146 Co138 2.055 . S
O146 C150 1.253 . S
H147 C143 0.931 . S
H148 C144 0.930 . S
O149 Co138 2.039 . S
O149 C139 1.265 . S
C150 O146 1.253 . S
C150 O151 1.227 . S
O151 C150 1.227 . S
N152 Co138 2.140 . S
N152 C155 1.346 . S
N152 C156 1.345 . S
C153 C154 1.387 . S
C153 C157 1.391 . S
C154 C153 1.387 . S
C154 C155 1.369 . S
C154 H163 0.929 . S
C155 N152 1.346 . S
C155 C154 1.369 . S
C155 H158 0.928 . S
C156 N152 1.345 . S
C156 C157 1.371 . S
C156 H159 0.931 . S
C157 C153 1.391 . S
C157 C156 1.371 . S
C157 H164 0.930 . S
H158 C155 0.928 . S
H159 C156 0.931 . S
H160 C136 0.930 . S
H161 C133 0.930 . S
H162 C142 0.930 . S
H163 C154 0.929 . S
H164 C157 0.930 . S
C165 C166 1.351 . S
C165 N168 1.368 . S
C165 H170 0.931 . S
C166 C165 1.351 . S
C166 N167 1.373 . S
C166 H194 0.930 . S
N167 C166 1.373 . S
N167 C169 1.340 . S
N168 C165 1.368 . S
N168 C169 1.321 . S
N168 Co171 2.135 . S
C169 N167 1.340 . S
C169 N168 1.321 . S
C169 H193 0.930 . S
H170 C165 0.931 . S
Co171 N168 2.135 . S
Co171 N174 2.121 . S
Co171 O179 2.055 . S
Co171 O182 2.039 . S
Co171 N185 2.140 . S
C172 O173 1.227 . S
C172 O182 1.265 . S
O173 C172 1.227 . S
N174 Co171 2.121 . S
N174 C176 1.375 . S
N174 C177 1.313 . S
C175 C176 1.338 . S
C175 N178 1.377 . S
C175 H195 0.930 . S
C176 N174 1.375 . S
C176 C175 1.338 . S
C176 H180 0.931 . S
C177 N174 1.313 . S
C177 N178 1.344 . S
C177 H181 0.930 . S
N178 C175 1.377 . S
N178 C177 1.344 . S
O179 Co171 2.055 . S
O179 C183 1.253 . S
H180 C176 0.931 . S
H181 C177 0.930 . S
O182 Co171 2.039 . S
O182 C172 1.265 . S
C183 O179 1.253 . S
C183 O184 1.227 . S
O184 C183 1.227 . S
N185 Co171 2.140 . S
N185 C188 1.346 . S
N185 C189 1.345 . S
C186 C187 1.387 . S
C186 C190 1.391 . S
C187 C186 1.387 . S
C187 C188 1.369 . S
C187 H196 0.929 . S
C188 N185 1.346 . S
C188 C187 1.369 . S
C188 H191 0.928 . S
C189 N185 1.345 . S
C189 C190 1.371 . S
C189 H192 0.931 . S
C190 C186 1.391 . S
C190 C189 1.371 . S
C190 H197 0.930 . S
H191 C188 0.928 . S
H192 C189 0.931 . S
H193 C169 0.930 . S
H194 C166 0.930 . S
H195 C175 0.930 . S
H196 C187 0.929 . S
H197 C190 0.930 . S
C198 C199 1.351 . S
C198 N201 1.368 . S
C198 H203 0.931 . S
C199 C198 1.351 . S
C199 N200 1.373 . S
C199 H227 0.930 1_556 S
N200 C199 1.373 . S
N200 C202 1.340 . S
N201 C198 1.368 . S
N201 C202 1.321 . S
N201 Co204 2.135 . S
C202 N200 1.340 . S
C202 N201 1.321 . S
C202 H226 0.930 . S
H203 C198 0.931 . S
Co204 N201 2.135 . S
Co204 N207 2.121 . S
Co204 O212 2.055 . S
Co204 O215 2.039 . S
Co204 N218 2.140 . S
C205 O206 1.227 . S
C205 O215 1.265 . S
O206 C205 1.227 . S
N207 Co204 2.121 . S
N207 C209 1.375 . S
N207 C210 1.313 . S
C208 C209 1.338 . S
C208 N211 1.377 . S
C208 H228 0.930 . S
C209 N207 1.375 . S
C209 C208 1.338 . S
C209 H213 0.931 . S
C210 N207 1.313 . S
C210 N211 1.344 . S
C210 H214 0.930 . S
N211 C208 1.377 . S
N211 C210 1.344 . S
O212 Co204 2.055 . S
O212 C216 1.253 . S
H213 C209 0.931 . S
H214 C210 0.930 . S
O215 Co204 2.039 . S
O215 C205 1.265 . S
C216 O212 1.253 . S
C216 O217 1.227 . S
O217 C216 1.227 . S
N218 Co204 2.140 . S
N218 C221 1.346 . S
N218 C222 1.345 . S
C219 C220 1.387 . S
C219 C223 1.391 . S
C220 C219 1.387 . S
C220 C221 1.369 . S
C220 H229 0.929 . S
C221 N218 1.346 . S
C221 C220 1.369 . S
C221 H224 0.928 . S
C222 N218 1.345 . S
C222 C223 1.371 . S
C222 H225 0.931 . S
C223 C219 1.391 . S
C223 C222 1.371 . S
C223 H230 0.930 . S
H224 C221 0.928 . S
H225 C222 0.931 . S
H226 C202 0.930 . S
H227 C199 0.930 1_554 S
H228 C208 0.930 . S
H229 C220 0.929 . S
H230 C223 0.930 . S
C231 C232 1.351 . S
C231 N234 1.368 . S
C231 H236 0.931 . S
C232 C231 1.351 . S
C232 N233 1.373 . S
C232 H260 0.930 1_556 S
N233 C232 1.373 . S
N233 C235 1.340 . S
N234 C231 1.368 . S
N234 C235 1.321 . S
N234 Co237 2.135 . S
C235 N233 1.340 . S
C235 N234 1.321 . S
C235 H259 0.930 . S
H236 C231 0.931 . S
Co237 N234 2.135 . S
Co237 N240 2.121 . S
Co237 O245 2.055 . S
Co237 O248 2.039 . S
Co237 N251 2.140 . S
C238 O239 1.227 . S
C238 O248 1.265 . S
O239 C238 1.227 . S
N240 Co237 2.121 . S
N240 C242 1.375 . S
N240 C243 1.313 . S
C241 C242 1.338 . S
C241 N244 1.377 . S
C241 H261 0.930 . S
C242 N240 1.375 . S
C242 C241 1.338 . S
C242 H246 0.931 . S
C243 N240 1.313 . S
C243 N244 1.344 . S
C243 H247 0.930 . S
N244 C241 1.377 . S
N244 C243 1.344 . S
O245 Co237 2.055 . S
O245 C249 1.253 . S
H246 C242 0.931 . S
H247 C243 0.930 . S
O248 Co237 2.039 . S
O248 C238 1.265 . S
C249 O245 1.253 . S
C249 O250 1.227 . S
O250 C249 1.227 . S
N251 Co237 2.140 . S
N251 C254 1.346 . S
N251 C255 1.345 . S
C252 C253 1.387 . S
C252 C256 1.391 . S
C253 C252 1.387 . S
C253 C254 1.369 . S
C253 H262 0.929 . S
C254 N251 1.346 . S
C254 C253 1.369 . S
C254 H257 0.928 . S
C255 N251 1.345 . S
C255 C256 1.371 . S
C255 H258 0.931 . S
C256 C252 1.391 . S
C256 C255 1.371 . S
C256 H263 0.930 . S
H257 C254 0.928 . S
H258 C255 0.931 . S
H259 C235 0.930 . S
H260 C232 0.930 1_554 S
H261 C241 0.930 . S
H262 C253 0.929 . S
H263 C256 0.930 . S
C264 C265 1.351 . S
C264 N267 1.368 . S
C264 H269 0.931 . S
C265 C264 1.351 . S
C265 N266 1.373 . S
C265 H293 0.930 1_556 S
N266 C265 1.373 . S
N266 C268 1.340 . S
N267 C264 1.368 . S
N267 C268 1.321 . S
N267 Co270 2.135 . S
C268 N266 1.340 . S
C268 N267 1.321 . S
C268 H292 0.930 . S
H269 C264 0.931 . S
Co270 N267 2.135 . S
Co270 N273 2.121 . S
Co270 O278 2.055 . S
Co270 O281 2.039 . S
Co270 N284 2.140 . S
C271 O272 1.227 . S
C271 O281 1.265 . S
O272 C271 1.227 . S
N273 Co270 2.121 . S
N273 C275 1.375 . S
N273 C276 1.313 . S
C274 C275 1.338 . S
C274 N277 1.377 . S
C274 H294 0.930 . S
C275 N273 1.375 . S
C275 C274 1.338 . S
C275 H279 0.931 . S
C276 N273 1.313 . S
C276 N277 1.344 . S
C276 H280 0.930 . S
N277 C274 1.377 . S
N277 C276 1.344 . S
O278 Co270 2.055 . S
O278 C282 1.253 . S
H279 C275 0.931 . S
H280 C276 0.930 . S
O281 Co270 2.039 . S
O281 C271 1.265 . S
C282 O278 1.253 . S
C282 O283 1.227 . S
O283 C282 1.227 . S
N284 Co270 2.140 . S
N284 C287 1.346 . S
N284 C288 1.345 . S
C285 C286 1.387 . S
C285 C289 1.391 . S
C286 C285 1.387 . S
C286 C287 1.369 . S
C286 H295 0.929 . S
C287 N284 1.346 . S
C287 C286 1.369 . S
C287 H290 0.928 . S
C288 N284 1.345 . S
C288 C289 1.371 . S
C288 H291 0.931 . S
C289 C285 1.391 . S
C289 C288 1.371 . S
C289 H296 0.930 . S
H290 C287 0.928 . S
H291 C288 0.931 . S
H292 C268 0.930 . S
H293 C265 0.930 1_554 S
H294 C274 0.930 . S
H295 C286 0.929 . S
H296 C289 0.930 . S
C297 C298 1.351 . S
C297 N300 1.368 . S
C297 H302 0.931 . S
C298 C297 1.351 . S
C298 N299 1.373 . S
C298 H326 0.930 . S
N299 C298 1.373 . S
N299 C301 1.340 . S
N300 C297 1.368 . S
N300 C301 1.321 . S
N300 Co303 2.135 . S
C301 N299 1.340 . S
C301 N300 1.321 . S
C301 H325 0.930 . S
H302 C297 0.931 . S
Co303 N300 2.135 . S
Co303 N306 2.121 . S
Co303 O311 2.055 . S
Co303 O314 2.039 . S
Co303 N317 2.140 . S
C304 O305 1.227 . S
C304 O314 1.265 . S
O305 C304 1.227 . S
N306 Co303 2.121 . S
N306 C308 1.375 . S
N306 C309 1.313 . S
C307 C308 1.338 . S
C307 N310 1.377 . S
C307 H327 0.930 . S
C308 N306 1.375 . S
C308 C307 1.338 . S
C308 H312 0.931 . S
C309 N306 1.313 . S
C309 N310 1.344 . S
C309 H313 0.930 . S
N310 C307 1.377 . S
N310 C309 1.344 . S
O311 Co303 2.055 . S
O311 C315 1.253 . S
H312 C308 0.931 . S
H313 C309 0.930 . S
O314 Co303 2.039 . S
O314 C304 1.265 . S
C315 O311 1.253 . S
C315 O316 1.227 . S
O316 C315 1.227 . S
N317 Co303 2.140 . S
N317 C320 1.346 . S
N317 C321 1.345 . S
C318 C319 1.387 . S
C318 C322 1.391 . S
C319 C318 1.387 . S
C319 C320 1.369 . S
C319 H328 0.929 . S
C320 N317 1.346 . S
C320 C319 1.369 . S
C320 H323 0.928 . S
C321 N317 1.345 . S
C321 C322 1.371 . S
C321 H324 0.931 . S
C322 C318 1.391 . S
C322 C321 1.371 . S
C322 H329 0.930 . S
H323 C320 0.928 . S
H324 C321 0.931 . S
H325 C301 0.930 . S
H326 C298 0.930 . S
H327 C307 0.930 . S
H328 C319 0.929 . S
H329 C322 0.930 . S
C330 C331 1.351 . S
C330 N333 1.368 . S
C330 H335 0.931 . S
C331 C330 1.351 . S
C331 N332 1.373 . S
C331 H359 0.930 . S
N332 C331 1.373 . S
N332 C334 1.340 . S
N333 C330 1.368 . S
N333 C334 1.321 . S
N333 Co336 2.135 . S
C334 N332 1.340 . S
C334 N333 1.321 . S
C334 H358 0.930 . S
H335 C330 0.931 . S
Co336 N333 2.135 . S
Co336 N339 2.121 . S
Co336 O344 2.055 . S
Co336 O347 2.039 . S
Co336 N350 2.140 . S
C337 O338 1.227 . S
C337 O347 1.265 . S
O338 C337 1.227 . S
N339 Co336 2.121 . S
N339 C341 1.375 . S
N339 C342 1.313 . S
C340 C341 1.338 . S
C340 N343 1.377 . S
C340 H360 0.930 . S
C341 N339 1.375 . S
C341 C340 1.338 . S
C341 H345 0.931 . S
C342 N339 1.313 . S
C342 N343 1.344 . S
C342 H346 0.930 . S
N343 C340 1.377 . S
N343 C342 1.344 . S
O344 Co336 2.055 . S
O344 C348 1.253 . S
H345 C341 0.931 . S
H346 C342 0.930 . S
O347 Co336 2.039 . S
O347 C337 1.265 . S
C348 O344 1.253 . S
C348 O349 1.227 . S
O349 C348 1.227 . S
N350 Co336 2.140 . S
N350 C353 1.346 . S
N350 C354 1.345 . S
C351 C352 1.387 . S
C351 C355 1.391 . S
C352 C351 1.387 . S
C352 C353 1.369 . S
C352 H361 0.929 . S
C353 N350 1.346 . S
C353 C352 1.369 . S
C353 H356 0.928 . S
C354 N350 1.345 . S
C354 C355 1.371 . S
C354 H357 0.931 . S
C355 C351 1.391 . S
C355 C354 1.371 . S
C355 H362 0.930 . S
H356 C353 0.928 . S
H357 C354 0.931 . S
H358 C334 0.930 . S
H359 C331 0.930 . S
H360 C340 0.930 . S
H361 C352 0.929 . S
H362 C355 0.930 . S
C363 C364 1.351 . S
C363 N366 1.368 . S
C363 H368 0.931 . S
C364 C363 1.351 . S
C364 N365 1.373 . S
C364 H392 0.930 . S
N365 C364 1.373 . S
N365 C367 1.340 . S
N366 C363 1.368 . S
N366 C367 1.321 . S
N366 Co369 2.135 . S
C367 N365 1.340 . S
C367 N366 1.321 . S
C367 H391 0.930 . S
H368 C363 0.931 . S
Co369 N366 2.135 . S
Co369 N372 2.121 . S
Co369 O377 2.055 . S
Co369 O380 2.039 . S
Co369 N383 2.140 . S
C370 O371 1.227 . S
C370 O380 1.265 . S
O371 C370 1.227 . S
N372 Co369 2.121 . S
N372 C374 1.375 . S
N372 C375 1.313 . S
C373 C374 1.338 . S
C373 N376 1.377 . S
C373 H393 0.930 . S
C374 N372 1.375 . S
C374 C373 1.338 . S
C374 H378 0.931 . S
C375 N372 1.313 . S
C375 N376 1.344 . S
C375 H379 0.930 . S
N376 C373 1.377 . S
N376 C375 1.344 . S
O377 Co369 2.055 . S
O377 C381 1.253 . S
H378 C374 0.931 . S
H379 C375 0.930 . S
O380 Co369 2.039 . S
O380 C370 1.265 . S
C381 O377 1.253 . S
C381 O382 1.227 . S
O382 C381 1.227 . S
N383 Co369 2.140 . S
N383 C386 1.346 . S
N383 C387 1.345 . S
C384 C385 1.387 . S
C384 C388 1.391 . S
C385 C384 1.387 . S
C385 C386 1.369 . S
C385 H394 0.929 . S
C386 N383 1.346 . S
C386 C385 1.369 . S
C386 H389 0.928 . S
C387 N383 1.345 . S
C387 C388 1.371 . S
C387 H390 0.931 . S
C388 C384 1.391 . S
C388 C387 1.371 . S
C388 H395 0.930 . S
H389 C386 0.928 . S
H390 C387 0.931 . S
H391 C367 0.930 . S
H392 C364 0.930 . S
H393 C373 0.930 . S
H394 C385 0.929 . S
H395 C388 0.930 . S
C396 C397 1.369 . S
C396 C398 1.419 . S
C396 H400 0.930 . S
C397 C396 1.369 . S
C397 C406 1.429 . S
C398 C396 1.419 . S
C398 C399 1.363 . S
C398 H401 0.929 . S
C399 C398 1.363 . S
C399 C405 1.428 . S
H400 C396 0.930 . S
H401 C398 0.929 . S
S402 N403 1.613 . S
S402 N404 1.610 . S
N403 S402 1.613 . S
N403 C406 1.350 . S
N404 S402 1.610 . S
N404 C405 1.351 . S
C405 C399 1.428 . S
C405 N404 1.351 . S
C405 C406 1.434 . S
C406 C397 1.429 . S
C406 N403 1.350 . S
C406 C405 1.434 . S
C407 C408 1.369 . S
C407 C409 1.419 . S
C407 H411 0.930 . S
C408 C407 1.369 . S
C408 C417 1.429 . S
C409 C407 1.419 . S
C409 C410 1.363 . S
C409 H412 0.929 . S
C410 C409 1.363 . S
C410 C416 1.428 . S
H411 C407 0.930 . S
H412 C409 0.929 . S
S413 N414 1.613 . S
S413 N415 1.610 . S
N414 S413 1.613 . S
N414 C417 1.350 . S
N415 S413 1.610 . S
N415 C416 1.351 . S
C416 C410 1.428 . S
C416 N415 1.351 . S
C416 C417 1.434 . S
C417 C408 1.429 . S
C417 N414 1.350 . S
C417 C416 1.434 . S
C418 C419 1.369 . S
C418 C420 1.419 . S
C418 H422 0.930 . S
C419 C418 1.369 . S
C419 C428 1.429 . S
C420 C418 1.419 . S
C420 C421 1.363 . S
C420 H423 0.929 . S
C421 C420 1.363 . S
C421 C427 1.428 . S
H422 C418 0.930 . S
H423 C420 0.929 . S
S424 N425 1.613 . S
S424 N426 1.610 . S
N425 S424 1.613 . S
N425 C428 1.350 . S
N426 S424 1.610 . S
N426 C427 1.351 . S
C427 C421 1.428 . S
C427 N426 1.351 . S
C427 C428 1.434 . S
C428 C419 1.429 . S
C428 N425 1.350 . S
C428 C427 1.434 . S
C429 C430 1.369 . S
C429 C431 1.419 . S
C429 H433 0.930 . S
C430 C429 1.369 . S
C430 C439 1.429 . S
C431 C429 1.419 . S
C431 C432 1.363 . S
C431 H434 0.929 . S
C432 C431 1.363 . S
C432 C438 1.428 . S
H433 C429 0.930 . S
H434 C431 0.929 . S
S435 N436 1.613 . S
S435 N437 1.610 . S
N436 S435 1.613 . S
N436 C439 1.350 . S
N437 S435 1.610 . S
N437 C438 1.351 . S
C438 C432 1.428 . S
C438 N437 1.351 . S
C438 C439 1.434 . S
C439 C430 1.429 . S
C439 N436 1.350 . S
C439 C438 1.434 . S
C440 C441 1.369 . S
C440 C442 1.419 . S
C440 H444 0.930 . S
C441 C440 1.369 . S
C441 C450 1.429 . S
C442 C440 1.419 . S
C442 C443 1.363 . S
C442 H445 0.929 . S
C443 C442 1.363 . S
C443 C449 1.428 . S
H444 C440 0.930 . S
H445 C442 0.929 . S
S446 N447 1.613 . S
S446 N448 1.610 . S
N447 S446 1.613 . S
N447 C450 1.350 . S
N448 S446 1.610 . S
N448 C449 1.351 . S
C449 C443 1.428 . S
C449 N448 1.351 . S
C449 C450 1.434 . S
C450 C441 1.429 . S
C450 N447 1.350 . S
C450 C449 1.434 . S
C451 C452 1.369 . S
C451 C453 1.419 . S
C451 H455 0.930 . S
C452 C451 1.369 . S
C452 C461 1.429 . S
C453 C451 1.419 . S
C453 C454 1.363 . S
C453 H456 0.929 . S
C454 C453 1.363 . S
C454 C460 1.428 . S
H455 C451 0.930 . S
H456 C453 0.929 . S
S457 N458 1.613 . S
S457 N459 1.610 . S
N458 S457 1.613 . S
N458 C461 1.350 . S
N459 S457 1.610 . S
N459 C460 1.351 . S
C460 C454 1.428 . S
C460 N459 1.351 . S
C460 C461 1.434 . S
C461 C452 1.429 . S
C461 N458 1.350 . S
C461 C460 1.434 . S
C462 C463 1.369 1_564 S
C462 C464 1.419 . S
C462 H466 0.930 . S
C463 C462 1.369 1_546 S
C463 C472 1.429 . S
C464 C462 1.419 . S
C464 C465 1.349 1_554 S
C464 H467 0.929 . S
C465 C464 1.349 1_556 S
C465 C471 1.443 1_565 S
H466 C462 0.930 . S
H467 C464 0.929 . S
S468 N469 1.613 . S
S468 N470 1.610 . S
N469 S468 1.613 . S
N469 C472 1.350 . S
N470 S468 1.610 . S
N470 C471 1.351 . S
C471 C465 1.443 1_545 S
C471 N470 1.351 . S
C471 C472 1.434 . S
C472 C463 1.429 . S
C472 N469 1.350 . S
C472 C471 1.434 . S
C473 C474 1.351 1_456 S
C473 C475 1.419 . S
C473 H477 0.930 . S
C474 C473 1.351 1_654 S
C474 C483 1.447 . S
C475 C473 1.419 . S
C475 C476 1.363 . S
C475 H478 0.929 . S
C476 C475 1.363 . S
C476 C482 1.429 1_456 S
H477 C473 0.930 . S
H478 C475 0.929 . S
S479 N480 1.613 . S
S479 N481 1.610 . S
N480 S479 1.613 . S
N480 C483 1.350 . S
N481 S479 1.610 . S
N481 C482 1.351 . S
C482 C476 1.429 1_654 S
C482 N481 1.351 . S
C482 C483 1.434 . S
C483 C474 1.447 . S
C483 N480 1.350 . S
C483 C482 1.434 . S
C484 C485 1.358 1_554 S
C484 C486 1.419 . S
C484 H488 0.930 . S
C485 C484 1.358 1_556 S
C485 C494 1.440 . S
C486 C484 1.419 . S
C486 C487 1.363 . S
C486 H489 0.929 . S
C487 C486 1.363 . S
C487 C493 1.429 1_554 S
H488 C484 0.930 . S
H489 C486 0.929 . S
S490 N491 1.613 . S
S490 N492 1.610 . S
N491 S490 1.613 . S
N491 C494 1.350 . S
N492 S490 1.610 . S
N492 C493 1.351 . S
C493 C487 1.429 1_556 S
C493 N492 1.351 . S
C493 C494 1.434 . S
C494 C485 1.440 . S
C494 N491 1.350 . S
C494 C493 1.434 . S
C495 C496 1.369 1_655 S
C495 C497 1.419 . S
C495 H499 0.930 . S
C496 C495 1.369 1_455 S
C496 C505 1.429 . S
C497 C495 1.419 . S
C497 C498 1.363 . S
C497 H500 0.929 . S
C498 C497 1.363 . S
C498 C504 1.428 1_655 S
H499 C495 0.930 . S
H500 C497 0.929 . S
S501 N502 1.613 . S
S501 N503 1.610 . S
N502 S501 1.613 . S
N502 C505 1.350 . S
N503 S501 1.610 . S
N503 C504 1.351 . S
C504 C498 1.428 1_455 S
C504 N503 1.351 . S
C504 C505 1.434 . S
C505 C496 1.429 . S
C505 N502 1.350 . S
C505 C504 1.434 . S
C506 C507 1.369 . S
C506 C508 1.419 . S
C506 H510 0.930 . S
C507 C506 1.369 . S
C507 C516 1.429 . S
C508 C506 1.419 . S
C508 C509 1.363 . S
C508 H511 0.929 . S
C509 C508 1.363 . S
C509 C515 1.428 . S
H510 C506 0.930 . S
H511 C508 0.929 . S
S512 N513 1.613 . S
S512 N514 1.610 . S
N513 S512 1.613 . S
N513 C516 1.350 . S
N514 S512 1.610 . S
N514 C515 1.351 . S
C515 C509 1.428 . S
C515 N514 1.351 . S
C515 C516 1.434 . S
C516 C507 1.429 . S
C516 N513 1.350 . S
C516 C515 1.434 . S
C517 C518 1.369 1_565 S
C517 C519 1.419 . S
C517 H521 0.930 . S
C518 C517 1.369 1_545 S
C518 C527 1.429 . S
C519 C517 1.419 . S
C519 C520 1.363 . S
C519 H522 0.929 . S
C520 C519 1.363 . S
C520 C526 1.428 1_565 S
H521 C517 0.930 . S
H522 C519 0.929 . S
S523 N524 1.613 . S
S523 N525 1.610 . S
N524 S523 1.613 . S
N524 C527 1.350 . S
N525 S523 1.610 . S
N525 C526 1.351 . S
C526 C520 1.428 1_545 S
C526 N525 1.351 . S
C526 C527 1.434 . S
C527 C518 1.429 . S
C527 N524 1.350 . S
C527 C526 1.434 . S
C528 C529 1.369 . S
C528 C530 1.419 . S
C528 H532 0.930 . S
C529 C528 1.369 . S
C529 C538 1.429 . S
C530 C528 1.419 . S
C530 C531 1.363 . S
C530 H533 0.929 . S
C531 C530 1.363 . S
C531 C537 1.428 . S
H532 C528 0.930 . S
H533 C530 0.929 . S
S534 N535 1.613 . S
S534 N536 1.610 . S
N535 S534 1.613 . S
N535 C538 1.350 . S
N536 S534 1.610 . S
N536 C537 1.351 . S
C537 C531 1.428 . S
C537 N536 1.351 . S
C537 C538 1.434 . S
C538 C529 1.429 . S
C538 N535 1.350 . S
C538 C537 1.434 . S
C539 C540 1.369 . S
C539 C541 1.419 . S
C539 H543 0.930 . S
C540 C539 1.369 . S
C540 C549 1.429 . S
C541 C539 1.419 . S
C541 C542 1.363 . S
C541 H544 0.929 . S
C542 C541 1.363 . S
C542 C548 1.428 . S
H543 C539 0.930 . S
H544 C541 0.929 . S
S545 N546 1.613 . S
S545 N547 1.610 . S
N546 S545 1.613 . S
N546 C549 1.350 . S
N547 S545 1.610 . S
N547 C548 1.351 . S
C548 C542 1.428 . S
C548 N547 1.351 . S
C548 C549 1.434 . S
C549 C540 1.429 . S
C549 N546 1.350 . S
C549 C548 1.434 . S
C550 C551 1.369 . S
C550 C552 1.419 . S
C550 H554 0.930 . S
C551 C550 1.369 . S
C551 C560 1.429 . S
C552 C550 1.419 . S
C552 C553 1.363 . S
C552 H555 0.929 . S
C553 C552 1.363 . S
C553 C559 1.428 . S
H554 C550 0.930 . S
H555 C552 0.929 . S
S556 N557 1.613 . S
S556 N558 1.610 . S
N557 S556 1.613 . S
N557 C560 1.350 . S
N558 S556 1.610 . S
N558 C559 1.351 . S
C559 C553 1.428 . S
C559 N558 1.351 . S
C559 C560 1.434 . S
C560 C551 1.429 . S
C560 N557 1.350 . S
C560 C559 1.434 . S
C561 C562 1.369 . S
C561 C563 1.419 . S
C561 H565 0.930 . S
C562 C561 1.369 . S
C562 C571 1.429 . S
C563 C561 1.419 . S
C563 C564 1.363 . S
C563 H566 0.929 . S
C564 C563 1.363 . S
C564 C570 1.428 . S
H565 C561 0.930 . S
H566 C563 0.929 . S
S567 N568 1.613 . S
S567 N569 1.610 . S
N568 S567 1.613 . S
N568 C571 1.350 . S
N569 S567 1.610 . S
N569 C570 1.351 . S
C570 C564 1.428 . S
C570 N569 1.351 . S
C570 C571 1.434 . S
C571 C562 1.429 . S
C571 N568 1.350 . S
C571 C570 1.434 . S
C572 C573 1.369 . S
C572 C574 1.419 . S
C572 H576 0.930 . S
C573 C572 1.369 . S
C573 C582 1.429 . S
C574 C572 1.419 . S
C574 C575 1.363 . S
C574 H577 0.929 . S
C575 C574 1.363 . S
C575 C581 1.428 . S
H576 C572 0.930 . S
H577 C574 0.929 . S
S578 N579 1.613 . S
S578 N580 1.610 . S
N579 S578 1.613 . S
N579 C582 1.350 . S
N580 S578 1.610 . S
N580 C581 1.351 . S
C581 C575 1.428 . S
C581 N580 1.351 . S
C581 C582 1.434 . S
C582 C573 1.429 . S
C582 N579 1.350 . S
C582 C581 1.434 . S
C583 C584 1.369 . S
C583 C585 1.419 . S
C583 H587 0.930 . S
C584 C583 1.369 . S
C584 C593 1.429 . S
C585 C583 1.419 . S
C585 C586 1.363 . S
C585 H588 0.929 . S
C586 C585 1.363 . S
C586 C592 1.428 . S
H587 C583 0.930 . S
H588 C585 0.929 . S
S589 N590 1.613 . S
S589 N591 1.610 . S
N590 S589 1.613 . S
N590 C593 1.350 . S
N591 S589 1.610 . S
N591 C592 1.351 . S
C592 C586 1.428 . S
C592 N591 1.351 . S
C592 C593 1.434 . S
C593 C584 1.429 . S
C593 N590 1.350 . S
C593 C592 1.434 . S
C594 C595 1.369 . S
C594 C596 1.419 . S
C594 H598 0.930 . S
C595 C594 1.369 . S
C595 C604 1.429 . S
C596 C594 1.419 . S
C596 C597 1.363 . S
C596 H599 0.929 . S
C597 C596 1.363 . S
C597 C603 1.428 . S
H598 C594 0.930 . S
H599 C596 0.929 . S
S600 N601 1.613 1_556 S
S600 N602 1.610 1_556 S
N601 S600 1.613 1_554 S
N601 C604 1.350 . S
N602 S600 1.610 1_554 S
N602 C603 1.351 . S
C603 C597 1.428 . S
C603 N602 1.351 . S
C603 C604 1.434 . S
C604 C595 1.429 . S
C604 N601 1.350 . S
C604 C603 1.434 . S
C605 C606 1.369 . S
C605 C607 1.419 . S
C605 H609 0.930 . S
C606 C605 1.369 . S
C606 C615 1.429 . S
C607 C605 1.419 . S
C607 C608 1.363 . S
C607 H610 0.929 . S
C608 C607 1.363 . S
C608 C614 1.428 . S
H609 C605 0.930 . S
H610 C607 0.929 . S
S611 N612 1.613 1_556 S
S611 N613 1.610 1_556 S
N612 S611 1.613 1_554 S
N612 C615 1.350 . S
N613 S611 1.610 1_554 S
N613 C614 1.351 . S
C614 C608 1.428 . S
C614 N613 1.351 . S
C614 C615 1.434 . S
C615 C606 1.429 . S
C615 N612 1.350 . S
C615 C614 1.434 . S
C616 C617 1.369 . S
C616 C618 1.419 . S
C616 H620 0.930 . S
C617 C616 1.369 . S
C617 C626 1.429 . S
C618 C616 1.419 . S
C618 C619 1.363 . S
C618 H621 0.929 . S
C619 C618 1.363 . S
C619 C625 1.428 . S
H620 C616 0.930 . S
H621 C618 0.929 . S
S622 N623 1.613 . S
S622 N624 1.610 . S
N623 S622 1.613 . S
N623 C626 1.350 1_556 S
N624 S622 1.610 . S
N624 C625 1.351 1_556 S
C625 C619 1.428 . S
C625 N624 1.351 1_554 S
C625 C626 1.434 . S
C626 C617 1.429 . S
C626 N623 1.350 1_554 S
C626 C625 1.434 . S
C627 C628 1.369 . S
C627 C629 1.419 . S
C627 H631 0.930 . S
C628 C627 1.369 . S
C628 C637 1.429 . S
C629 C627 1.419 . S
C629 C630 1.363 . S
C629 H632 0.929 . S
C630 C629 1.363 . S
C630 C636 1.428 . S
H631 C627 0.930 . S
H632 C629 0.929 . S
S633 N634 1.613 . S
S633 N635 1.610 . S
N634 S633 1.613 . S
N634 C637 1.350 . S
N635 S633 1.610 . S
N635 C636 1.351 . S
C636 C630 1.428 . S
C636 N635 1.351 . S
C636 C637 1.434 . S
C637 C628 1.429 . S
C637 N634 1.350 . S
C637 C636 1.434 . S
C638 C639 1.369 . S
C638 C640 1.419 . S
C638 H642 0.930 . S
C639 C638 1.369 . S
C639 C648 1.429 . S
C640 C638 1.419 . S
C640 C641 1.363 . S
C640 H643 0.929 . S
C641 C640 1.363 . S
C641 C647 1.428 . S
H642 C638 0.930 . S
H643 C640 0.929 . S
S644 N645 1.613 . S
S644 N646 1.610 . S
N645 S644 1.613 . S
N645 C648 1.350 . S
N646 S644 1.610 . S
N646 C647 1.351 . S
C647 C641 1.428 . S
C647 N646 1.351 . S
C647 C648 1.434 . S
C648 C639 1.429 . S
C648 N645 1.350 . S
C648 C647 1.434 . S
C649 C650 1.369 . S
C649 C651 1.419 . S
C649 H653 0.930 . S
C650 C649 1.369 . S
C650 C659 1.429 . S
C651 C649 1.419 . S
C651 C652 1.363 . S
C651 H654 0.929 . S
C652 C651 1.363 . S
C652 C658 1.428 . S
H653 C649 0.930 . S
H654 C651 0.929 . S
S655 N656 1.613 . S
S655 N657 1.610 . S
N656 S655 1.613 . S
N656 C659 1.350 . S
N657 S655 1.610 . S
N657 C658 1.351 . S
C658 C652 1.428 . S
C658 N657 1.351 . S
C658 C659 1.434 . S
C659 C650 1.429 . S
C659 N656 1.350 . S
C659 C658 1.434 . S
C660 C661 1.369 . S
C660 C662 1.419 . S
C660 H664 0.930 . S
C661 C660 1.369 . S
C661 C670 1.429 . S
C662 C660 1.419 . S
C662 C663 1.363 . S
C662 H665 0.929 . S
C663 C662 1.363 . S
C663 C669 1.428 . S
H664 C660 0.930 . S
H665 C662 0.929 . S
S666 N667 1.613 . S
S666 N668 1.610 . S
N667 S666 1.613 . S
N667 C670 1.350 . S
N668 S666 1.610 . S
N668 C669 1.351 . S
C669 C663 1.428 . S
C669 N668 1.351 . S
C669 C670 1.434 . S
C670 C661 1.429 . S
C670 N667 1.350 . S
C670 C669 1.434 . S
C671 C672 1.369 . S
C671 C673 1.419 . S
C671 H675 0.930 . S
C672 C671 1.369 . S
C672 C681 1.429 . S
C673 C671 1.419 . S
C673 C674 1.363 . S
C673 H676 0.929 . S
C674 C673 1.363 . S
C674 C680 1.428 . S
H675 C671 0.930 . S
H676 C673 0.929 . S
S677 N678 1.613 . S
S677 N679 1.610 . S
N678 S677 1.613 . S
N678 C681 1.350 . S
N679 S677 1.610 . S
N679 C680 1.351 . S
C680 C674 1.428 . S
C680 N679 1.351 . S
C680 C681 1.434 . S
C681 C672 1.429 . S
C681 N678 1.350 . S
C681 C680 1.434 . S
C682 C683 1.369 . S
C682 C684 1.419 . S
C682 H686 0.930 1_556 S
C683 C682 1.369 . S
C683 C692 1.429 . S
C684 C682 1.419 . S
C684 C685 1.363 . S
C684 H687 0.929 . S
C685 C684 1.363 . S
C685 C691 1.428 . S
H686 C682 0.930 1_554 S
H687 C684 0.929 . S
S688 N689 1.613 . S
S688 N690 1.610 . S
N689 S688 1.613 . S
N689 C692 1.350 . S
N690 S688 1.610 . S
N690 C691 1.351 . S
C691 C685 1.428 . S
C691 N690 1.351 . S
C691 C692 1.434 . S
C692 C683 1.429 . S
C692 N689 1.350 . S
C692 C691 1.434 . S
C693 C694 1.369 . S
C693 C695 1.419 . S
C693 H697 0.930 . S
C694 C693 1.369 . S
C694 C703 1.429 . S
C695 C693 1.419 . S
C695 C696 1.363 . S
C695 H698 0.929 . S
C696 C695 1.363 . S
C696 C702 1.428 . S
H697 C693 0.930 . S
H698 C695 0.929 . S
S699 N700 1.613 . S
S699 N701 1.610 . S
N700 S699 1.613 . S
N700 C703 1.350 . S
N701 S699 1.610 . S
N701 C702 1.351 . S
C702 C696 1.428 . S
C702 N701 1.351 . S
C702 C703 1.434 . S
C703 C694 1.429 . S
C703 N700 1.350 . S
C703 C702 1.434 . S
C704 C705 1.369 . S
C704 C706 1.419 . S
C704 H708 0.930 . S
C705 C704 1.369 . S
C705 C714 1.429 . S
C706 C704 1.419 . S
C706 C707 1.363 . S
C706 H709 0.929 . S
C707 C706 1.363 . S
C707 C713 1.428 . S
H708 C704 0.930 . S
H709 C706 0.929 . S
S710 N711 1.613 . S
S710 N712 1.610 . S
N711 S710 1.613 . S
N711 C714 1.350 . S
N712 S710 1.610 . S
N712 C713 1.351 . S
C713 C707 1.428 . S
C713 N712 1.351 . S
C713 C714 1.434 . S
C714 C705 1.429 . S
C714 N711 1.350 . S
C714 C713 1.434 . S
C715 C716 1.369 . S
C715 C717 1.419 . S
C715 H719 0.930 . S
C716 C715 1.369 . S
C716 C725 1.429 . S
C717 C715 1.419 . S
C717 C718 1.363 . S
C717 H720 0.929 . S
C718 C717 1.363 . S
C718 C724 1.428 . S
H719 C715 0.930 . S
H720 C717 0.929 . S
S721 N722 1.613 . S
S721 N723 1.610 . S
N722 S721 1.613 . S
N722 C725 1.350 . S
N723 S721 1.610 . S
N723 C724 1.351 . S
C724 C718 1.428 . S
C724 N723 1.351 . S
C724 C725 1.434 . S
C725 C716 1.429 . S
C725 N722 1.350 . S
C725 C724 1.434 . S
C397 C172 1.203 . S
C399 C7 1.208 . S
C408 C40 1.201 . S
C410 C106 1.207 . S
C419 C73 1.205 . S
C421 C139 1.203 . S
C430 C205 1.202 . S
C432 C370 1.206 . S
C441 C304 1.207 . S
C443 C238 1.202 . S
C452 C337 1.203 . S
C454 C271 1.208 . S
C463 C21 2.503 1_556 S
C465 C219 2.505 . S
C474 C54 2.502 . S
C476 C252 2.507 . S
C485 C285 2.502 . S
C487 C87 2.506 . S
C496 C318 2.498 . S
C498 C120 2.506 . S
C507 C153 2.497 . S
C509 C351 2.506 . S
C518 C186 2.501 . S
C520 C384 2.504 . S
C529 N145 1.698 . S
C531 N13 1.693 . S
C540 N178 1.694 . S
C542 N46 1.688 . S
C551 N112 1.695 . S
C553 N79 1.688 . S
C562 N211 1.691 . S
C564 N343 1.686 . S
C573 N244 1.696 . S
C575 N376 1.688 . S
C584 N310 1.691 . S
C586 N277 1.696 . S
C595 C18 1.085 . S
C597 N68 1.035 . S
C606 C51 1.085 . S
C608 N2 1.035 . S
C617 N35 1.037 . S
C619 C84 1.084 . S
C628 C117 1.077 . S
C630 N134 1.023 . S
C639 N167 1.021 . S
C641 C150 1.078 . S
C650 N101 1.021 . S
C652 C183 1.078 . S
C661 N266 1.038 . S
C663 C216 1.085 . S
C672 C249 1.084 . S
C674 N200 1.033 . S
C683 N233 1.027 . S
C685 C282 1.081 . S
C694 N332 1.036 . S
C696 C315 1.084 . S
C705 N365 1.022 . S
C707 C348 1.079 . S
C716 C381 1.083 . S
C718 N299 1.031 . S
