# Generated by pormake.
# Topology kfi, (4)-cn, num edge types: 1
# Building blocks:
#     Node 0, Type 0, BuildingBlock: TATPOV_clean_sbu_0, # of connection points: 4
#     Node 1, Type 0, BuildingBlock: TATPOV_clean_sbu_0, # of connection points: 4
#     Node 2, Type 0, BuildingBlock: TATPOV_clean_sbu_0, # of connection points: 4
#     Node 3, Type 0, BuildingBlock: TATPOV_clean_sbu_0, # of connection points: 4
#     Node 4, Type 0, BuildingBlock: TATPOV_clean_sbu_0, # of connection points: 4
#     Node 5, Type 0, BuildingBlock: TATPOV_clean_sbu_0, # of connection points: 4
#     Node 6, Type 0, BuildingBlock: TATPOV_clean_sbu_0, # of connection points: 4
#     Node 7, Type 0, BuildingBlock: TATPOV_clean_sbu_0, # of connection points: 4
#     Node 8, Type 0, BuildingBlock: TATPOV_clean_sbu_0, # of connection points: 4
#     Node 9, Type 0, BuildingBlock: TATPOV_clean_sbu_0, # of connection points: 4
#     Node 10, Type 0, BuildingBlock: TATPOV_clean_sbu_0, # of connection points: 4
#     Node 11, Type 0, BuildingBlock: TATPOV_clean_sbu_0, # of connection points: 4
#     Node 12, Type 0, BuildingBlock: TATPOV_clean_sbu_0, # of connection points: 4
#     Node 13, Type 0, BuildingBlock: TATPOV_clean_sbu_0, # of connection points: 4
#     Node 14, Type 0, BuildingBlock: TATPOV_clean_sbu_0, # of connection points: 4
#     Node 15, Type 0, BuildingBlock: TATPOV_clean_sbu_0, # of connection points: 4
#     Node 16, Type 0, BuildingBlock: TATPOV_clean_sbu_0, # of connection points: 4
#     Node 17, Type 0, BuildingBlock: TATPOV_clean_sbu_0, # of connection points: 4
#     Node 18, Type 0, BuildingBlock: TATPOV_clean_sbu_0, # of connection points: 4
#     Node 19, Type 0, BuildingBlock: TATPOV_clean_sbu_0, # of connection points: 4
#     Node 20, Type 0, BuildingBlock: TATPOV_clean_sbu_0, # of connection points: 4
#     Node 21, Type 0, BuildingBlock: TATPOV_clean_sbu_0, # of connection points: 4
#     Node 22, Type 0, BuildingBlock: TATPOV_clean_sbu_0, # of connection points: 4
#     Node 23, Type 0, BuildingBlock: TATPOV_clean_sbu_0, # of connection points: 4
#     Node 24, Type 0, BuildingBlock: TATPOV_clean_sbu_0, # of connection points: 4
#     Node 25, Type 0, BuildingBlock: TATPOV_clean_sbu_0, # of connection points: 4
#     Node 26, Type 0, BuildingBlock: TATPOV_clean_sbu_0, # of connection points: 4
#     Node 27, Type 0, BuildingBlock: TATPOV_clean_sbu_0, # of connection points: 4
#     Node 28, Type 0, BuildingBlock: TATPOV_clean_sbu_0, # of connection points: 4
#     Node 29, Type 0, BuildingBlock: TATPOV_clean_sbu_0, # of connection points: 4
#     Node 30, Type 0, BuildingBlock: TATPOV_clean_sbu_0, # of connection points: 4
#     Node 31, Type 0, BuildingBlock: TATPOV_clean_sbu_0, # of connection points: 4
#     Node 32, Type 0, BuildingBlock: TATPOV_clean_sbu_0, # of connection points: 4
#     Node 33, Type 0, BuildingBlock: TATPOV_clean_sbu_0, # of connection points: 4
#     Node 34, Type 0, BuildingBlock: TATPOV_clean_sbu_0, # of connection points: 4
#     Node 35, Type 0, BuildingBlock: TATPOV_clean_sbu_0, # of connection points: 4
#     Node 36, Type 0, BuildingBlock: TATPOV_clean_sbu_0, # of connection points: 4
#     Node 37, Type 0, BuildingBlock: TATPOV_clean_sbu_0, # of connection points: 4
#     Node 38, Type 0, BuildingBlock: TATPOV_clean_sbu_0, # of connection points: 4
#     Node 39, Type 0, BuildingBlock: TATPOV_clean_sbu_0, # of connection points: 4
#     Node 40, Type 0, BuildingBlock: TATPOV_clean_sbu_0, # of connection points: 4
#     Node 41, Type 0, BuildingBlock: TATPOV_clean_sbu_0, # of connection points: 4
#     Node 42, Type 0, BuildingBlock: TATPOV_clean_sbu_0, # of connection points: 4
#     Node 43, Type 0, BuildingBlock: TATPOV_clean_sbu_0, # of connection points: 4
#     Node 44, Type 0, BuildingBlock: TATPOV_clean_sbu_0, # of connection points: 4
#     Node 45, Type 0, BuildingBlock: TATPOV_clean_sbu_0, # of connection points: 4
#     Node 46, Type 0, BuildingBlock: TATPOV_clean_sbu_0, # of connection points: 4
#     Node 47, Type 0, BuildingBlock: TATPOV_clean_sbu_0, # of connection points: 4
#     Node 48, Type 0, BuildingBlock: TATPOV_clean_sbu_0, # of connection points: 4
#     Node 49, Type 0, BuildingBlock: TATPOV_clean_sbu_0, # of connection points: 4
#     Node 50, Type 0, BuildingBlock: TATPOV_clean_sbu_0, # of connection points: 4
#     Node 51, Type 0, BuildingBlock: TATPOV_clean_sbu_0, # of connection points: 4
#     Node 52, Type 0, BuildingBlock: TATPOV_clean_sbu_0, # of connection points: 4
#     Node 53, Type 0, BuildingBlock: TATPOV_clean_sbu_0, # of connection points: 4
#     Node 54, Type 0, BuildingBlock: TATPOV_clean_sbu_0, # of connection points: 4
#     Node 55, Type 0, BuildingBlock: TATPOV_clean_sbu_0, # of connection points: 4
#     Node 56, Type 0, BuildingBlock: TATPOV_clean_sbu_0, # of connection points: 4
#     Node 57, Type 0, BuildingBlock: TATPOV_clean_sbu_0, # of connection points: 4
#     Node 58, Type 0, BuildingBlock: TATPOV_clean_sbu_0, # of connection points: 4
#     Node 59, Type 0, BuildingBlock: TATPOV_clean_sbu_0, # of connection points: 4
#     Node 60, Type 0, BuildingBlock: TATPOV_clean_sbu_0, # of connection points: 4
#     Node 61, Type 0, BuildingBlock: TATPOV_clean_sbu_0, # of connection points: 4
#     Node 62, Type 0, BuildingBlock: TATPOV_clean_sbu_0, # of connection points: 4
#     Node 63, Type 0, BuildingBlock: TATPOV_clean_sbu_0, # of connection points: 4
#     Node 64, Type 0, BuildingBlock: TATPOV_clean_sbu_0, # of connection points: 4
#     Node 65, Type 0, BuildingBlock: TATPOV_clean_sbu_0, # of connection points: 4
#     Node 66, Type 0, BuildingBlock: TATPOV_clean_sbu_0, # of connection points: 4
#     Node 67, Type 0, BuildingBlock: TATPOV_clean_sbu_0, # of connection points: 4
#     Node 68, Type 0, BuildingBlock: TATPOV_clean_sbu_0, # of connection points: 4
#     Node 69, Type 0, BuildingBlock: TATPOV_clean_sbu_0, # of connection points: 4
#     Node 70, Type 0, BuildingBlock: TATPOV_clean_sbu_0, # of connection points: 4
#     Node 71, Type 0, BuildingBlock: TATPOV_clean_sbu_0, # of connection points: 4
#     Node 72, Type 0, BuildingBlock: TATPOV_clean_sbu_0, # of connection points: 4
#     Node 73, Type 0, BuildingBlock: TATPOV_clean_sbu_0, # of connection points: 4
#     Node 74, Type 0, BuildingBlock: TATPOV_clean_sbu_0, # of connection points: 4
#     Node 75, Type 0, BuildingBlock: TATPOV_clean_sbu_0, # of connection points: 4
#     Node 76, Type 0, BuildingBlock: TATPOV_clean_sbu_0, # of connection points: 4
#     Node 77, Type 0, BuildingBlock: TATPOV_clean_sbu_0, # of connection points: 4
#     Node 78, Type 0, BuildingBlock: TATPOV_clean_sbu_0, # of connection points: 4
#     Node 79, Type 0, BuildingBlock: TATPOV_clean_sbu_0, # of connection points: 4
#     Node 80, Type 0, BuildingBlock: TATPOV_clean_sbu_0, # of connection points: 4
#     Node 81, Type 0, BuildingBlock: TATPOV_clean_sbu_0, # of connection points: 4
#     Node 82, Type 0, BuildingBlock: TATPOV_clean_sbu_0, # of connection points: 4
#     Node 83, Type 0, BuildingBlock: TATPOV_clean_sbu_0, # of connection points: 4
#     Node 84, Type 0, BuildingBlock: TATPOV_clean_sbu_0, # of connection points: 4
#     Node 85, Type 0, BuildingBlock: TATPOV_clean_sbu_0, # of connection points: 4
#     Node 86, Type 0, BuildingBlock: TATPOV_clean_sbu_0, # of connection points: 4
#     Node 87, Type 0, BuildingBlock: TATPOV_clean_sbu_0, # of connection points: 4
#     Node 88, Type 0, BuildingBlock: TATPOV_clean_sbu_0, # of connection points: 4
#     Node 89, Type 0, BuildingBlock: TATPOV_clean_sbu_0, # of connection points: 4
#     Node 90, Type 0, BuildingBlock: TATPOV_clean_sbu_0, # of connection points: 4
#     Node 91, Type 0, BuildingBlock: TATPOV_clean_sbu_0, # of connection points: 4
#     Node 92, Type 0, BuildingBlock: TATPOV_clean_sbu_0, # of connection points: 4
#     Node 93, Type 0, BuildingBlock: TATPOV_clean_sbu_0, # of connection points: 4
#     Node 94, Type 0, BuildingBlock: TATPOV_clean_sbu_0, # of connection points: 4
#     Node 95, Type 0, BuildingBlock: TATPOV_clean_sbu_0, # of connection points: 4
#     Edge 96, Type (0, 0), BuildingBlock: OJICUG_clean_linker_0, # of connection points: 2
#     Edge 97, Type (0, 0), BuildingBlock: OJICUG_clean_linker_0, # of connection points: 2
#     Edge 98, Type (0, 0), BuildingBlock: OJICUG_clean_linker_0, # of connection points: 2
#     Edge 99, Type (0, 0), BuildingBlock: OJICUG_clean_linker_0, # of connection points: 2
#     Edge 100, Type (0, 0), BuildingBlock: OJICUG_clean_linker_0, # of connection points: 2
#     Edge 101, Type (0, 0), BuildingBlock: OJICUG_clean_linker_0, # of connection points: 2
#     Edge 102, Type (0, 0), BuildingBlock: OJICUG_clean_linker_0, # of connection points: 2
#     Edge 103, Type (0, 0), BuildingBlock: OJICUG_clean_linker_0, # of connection points: 2
#     Edge 104, Type (0, 0), BuildingBlock: OJICUG_clean_linker_0, # of connection points: 2
#     Edge 105, Type (0, 0), BuildingBlock: OJICUG_clean_linker_0, # of connection points: 2
#     Edge 106, Type (0, 0), BuildingBlock: OJICUG_clean_linker_0, # of connection points: 2
#     Edge 107, Type (0, 0), BuildingBlock: OJICUG_clean_linker_0, # of connection points: 2
#     Edge 108, Type (0, 0), BuildingBlock: OJICUG_clean_linker_0, # of connection points: 2
#     Edge 109, Type (0, 0), BuildingBlock: OJICUG_clean_linker_0, # of connection points: 2
#     Edge 110, Type (0, 0), BuildingBlock: OJICUG_clean_linker_0, # of connection points: 2
#     Edge 111, Type (0, 0), BuildingBlock: OJICUG_clean_linker_0, # of connection points: 2
#     Edge 112, Type (0, 0), BuildingBlock: OJICUG_clean_linker_0, # of connection points: 2
#     Edge 113, Type (0, 0), BuildingBlock: OJICUG_clean_linker_0, # of connection points: 2
#     Edge 114, Type (0, 0), BuildingBlock: OJICUG_clean_linker_0, # of connection points: 2
#     Edge 115, Type (0, 0), BuildingBlock: OJICUG_clean_linker_0, # of connection points: 2
#     Edge 116, Type (0, 0), BuildingBlock: OJICUG_clean_linker_0, # of connection points: 2
#     Edge 117, Type (0, 0), BuildingBlock: OJICUG_clean_linker_0, # of connection points: 2
#     Edge 118, Type (0, 0), BuildingBlock: OJICUG_clean_linker_0, # of connection points: 2
#     Edge 119, Type (0, 0), BuildingBlock: OJICUG_clean_linker_0, # of connection points: 2
#     Edge 120, Type (0, 0), BuildingBlock: OJICUG_clean_linker_0, # of connection points: 2
#     Edge 121, Type (0, 0), BuildingBlock: OJICUG_clean_linker_0, # of connection points: 2
#     Edge 122, Type (0, 0), BuildingBlock: OJICUG_clean_linker_0, # of connection points: 2
#     Edge 123, Type (0, 0), BuildingBlock: OJICUG_clean_linker_0, # of connection points: 2
#     Edge 124, Type (0, 0), BuildingBlock: OJICUG_clean_linker_0, # of connection points: 2
#     Edge 125, Type (0, 0), BuildingBlock: OJICUG_clean_linker_0, # of connection points: 2
#     Edge 126, Type (0, 0), BuildingBlock: OJICUG_clean_linker_0, # of connection points: 2
#     Edge 127, Type (0, 0), BuildingBlock: OJICUG_clean_linker_0, # of connection points: 2
#     Edge 128, Type (0, 0), BuildingBlock: OJICUG_clean_linker_0, # of connection points: 2
#     Edge 129, Type (0, 0), BuildingBlock: OJICUG_clean_linker_0, # of connection points: 2
#     Edge 130, Type (0, 0), BuildingBlock: OJICUG_clean_linker_0, # of connection points: 2
#     Edge 131, Type (0, 0), BuildingBlock: OJICUG_clean_linker_0, # of connection points: 2
#     Edge 132, Type (0, 0), BuildingBlock: OJICUG_clean_linker_0, # of connection points: 2
#     Edge 133, Type (0, 0), BuildingBlock: OJICUG_clean_linker_0, # of connection points: 2
#     Edge 134, Type (0, 0), BuildingBlock: OJICUG_clean_linker_0, # of connection points: 2
#     Edge 135, Type (0, 0), BuildingBlock: OJICUG_clean_linker_0, # of connection points: 2
#     Edge 136, Type (0, 0), BuildingBlock: OJICUG_clean_linker_0, # of connection points: 2
#     Edge 137, Type (0, 0), BuildingBlock: OJICUG_clean_linker_0, # of connection points: 2
#     Edge 138, Type (0, 0), BuildingBlock: OJICUG_clean_linker_0, # of connection points: 2
#     Edge 139, Type (0, 0), BuildingBlock: OJICUG_clean_linker_0, # of connection points: 2
#     Edge 140, Type (0, 0), BuildingBlock: OJICUG_clean_linker_0, # of connection points: 2
#     Edge 141, Type (0, 0), BuildingBlock: OJICUG_clean_linker_0, # of connection points: 2
#     Edge 142, Type (0, 0), BuildingBlock: OJICUG_clean_linker_0, # of connection points: 2
#     Edge 143, Type (0, 0), BuildingBlock: OJICUG_clean_linker_0, # of connection points: 2
#     Edge 144, Type (0, 0), BuildingBlock: OJICUG_clean_linker_0, # of connection points: 2
#     Edge 145, Type (0, 0), BuildingBlock: OJICUG_clean_linker_0, # of connection points: 2
#     Edge 146, Type (0, 0), BuildingBlock: OJICUG_clean_linker_0, # of connection points: 2
#     Edge 147, Type (0, 0), BuildingBlock: OJICUG_clean_linker_0, # of connection points: 2
#     Edge 148, Type (0, 0), BuildingBlock: OJICUG_clean_linker_0, # of connection points: 2
#     Edge 149, Type (0, 0), BuildingBlock: OJICUG_clean_linker_0, # of connection points: 2
#     Edge 150, Type (0, 0), BuildingBlock: OJICUG_clean_linker_0, # of connection points: 2
#     Edge 151, Type (0, 0), BuildingBlock: OJICUG_clean_linker_0, # of connection points: 2
#     Edge 152, Type (0, 0), BuildingBlock: OJICUG_clean_linker_0, # of connection points: 2
#     Edge 153, Type (0, 0), BuildingBlock: OJICUG_clean_linker_0, # of connection points: 2
#     Edge 154, Type (0, 0), BuildingBlock: OJICUG_clean_linker_0, # of connection points: 2
#     Edge 155, Type (0, 0), BuildingBlock: OJICUG_clean_linker_0, # of connection points: 2
#     Edge 156, Type (0, 0), BuildingBlock: OJICUG_clean_linker_0, # of connection points: 2
#     Edge 157, Type (0, 0), BuildingBlock: OJICUG_clean_linker_0, # of connection points: 2
#     Edge 158, Type (0, 0), BuildingBlock: OJICUG_clean_linker_0, # of connection points: 2
#     Edge 159, Type (0, 0), BuildingBlock: OJICUG_clean_linker_0, # of connection points: 2
#     Edge 160, Type (0, 0), BuildingBlock: OJICUG_clean_linker_0, # of connection points: 2
#     Edge 161, Type (0, 0), BuildingBlock: OJICUG_clean_linker_0, # of connection points: 2
#     Edge 162, Type (0, 0), BuildingBlock: OJICUG_clean_linker_0, # of connection points: 2
#     Edge 163, Type (0, 0), BuildingBlock: OJICUG_clean_linker_0, # of connection points: 2
#     Edge 164, Type (0, 0), BuildingBlock: OJICUG_clean_linker_0, # of connection points: 2
#     Edge 165, Type (0, 0), BuildingBlock: OJICUG_clean_linker_0, # of connection points: 2
#     Edge 166, Type (0, 0), BuildingBlock: OJICUG_clean_linker_0, # of connection points: 2
#     Edge 167, Type (0, 0), BuildingBlock: OJICUG_clean_linker_0, # of connection points: 2
#     Edge 168, Type (0, 0), BuildingBlock: OJICUG_clean_linker_0, # of connection points: 2
#     Edge 169, Type (0, 0), BuildingBlock: OJICUG_clean_linker_0, # of connection points: 2
#     Edge 170, Type (0, 0), BuildingBlock: OJICUG_clean_linker_0, # of connection points: 2
#     Edge 171, Type (0, 0), BuildingBlock: OJICUG_clean_linker_0, # of connection points: 2
#     Edge 172, Type (0, 0), BuildingBlock: OJICUG_clean_linker_0, # of connection points: 2
#     Edge 173, Type (0, 0), BuildingBlock: OJICUG_clean_linker_0, # of connection points: 2
#     Edge 174, Type (0, 0), BuildingBlock: OJICUG_clean_linker_0, # of connection points: 2
#     Edge 175, Type (0, 0), BuildingBlock: OJICUG_clean_linker_0, # of connection points: 2
#     Edge 176, Type (0, 0), BuildingBlock: OJICUG_clean_linker_0, # of connection points: 2
#     Edge 177, Type (0, 0), BuildingBlock: OJICUG_clean_linker_0, # of connection points: 2
#     Edge 178, Type (0, 0), BuildingBlock: OJICUG_clean_linker_0, # of connection points: 2
#     Edge 179, Type (0, 0), BuildingBlock: OJICUG_clean_linker_0, # of connection points: 2
#     Edge 180, Type (0, 0), BuildingBlock: OJICUG_clean_linker_0, # of connection points: 2
#     Edge 181, Type (0, 0), BuildingBlock: OJICUG_clean_linker_0, # of connection points: 2
#     Edge 182, Type (0, 0), BuildingBlock: OJICUG_clean_linker_0, # of connection points: 2
#     Edge 183, Type (0, 0), BuildingBlock: OJICUG_clean_linker_0, # of connection points: 2
#     Edge 184, Type (0, 0), BuildingBlock: OJICUG_clean_linker_0, # of connection points: 2
#     Edge 185, Type (0, 0), BuildingBlock: OJICUG_clean_linker_0, # of connection points: 2
#     Edge 186, Type (0, 0), BuildingBlock: OJICUG_clean_linker_0, # of connection points: 2
#     Edge 187, Type (0, 0), BuildingBlock: OJICUG_clean_linker_0, # of connection points: 2
#     Edge 188, Type (0, 0), BuildingBlock: OJICUG_clean_linker_0, # of connection points: 2
#     Edge 189, Type (0, 0), BuildingBlock: OJICUG_clean_linker_0, # of connection points: 2
#     Edge 190, Type (0, 0), BuildingBlock: OJICUG_clean_linker_0, # of connection points: 2
#     Edge 191, Type (0, 0), BuildingBlock: OJICUG_clean_linker_0, # of connection points: 2
#     Edge 192, Type (0, 0), BuildingBlock: OJICUG_clean_linker_0, # of connection points: 2
#     Edge 193, Type (0, 0), BuildingBlock: OJICUG_clean_linker_0, # of connection points: 2
#     Edge 194, Type (0, 0), BuildingBlock: OJICUG_clean_linker_0, # of connection points: 2
#     Edge 195, Type (0, 0), BuildingBlock: OJICUG_clean_linker_0, # of connection points: 2
#     Edge 196, Type (0, 0), BuildingBlock: OJICUG_clean_linker_0, # of connection points: 2
#     Edge 197, Type (0, 0), BuildingBlock: OJICUG_clean_linker_0, # of connection points: 2
#     Edge 198, Type (0, 0), BuildingBlock: OJICUG_clean_linker_0, # of connection points: 2
#     Edge 199, Type (0, 0), BuildingBlock: OJICUG_clean_linker_0, # of connection points: 2
#     Edge 200, Type (0, 0), BuildingBlock: OJICUG_clean_linker_0, # of connection points: 2
#     Edge 201, Type (0, 0), BuildingBlock: OJICUG_clean_linker_0, # of connection points: 2
#     Edge 202, Type (0, 0), BuildingBlock: OJICUG_clean_linker_0, # of connection points: 2
#     Edge 203, Type (0, 0), BuildingBlock: OJICUG_clean_linker_0, # of connection points: 2
#     Edge 204, Type (0, 0), BuildingBlock: OJICUG_clean_linker_0, # of connection points: 2
#     Edge 205, Type (0, 0), BuildingBlock: OJICUG_clean_linker_0, # of connection points: 2
#     Edge 206, Type (0, 0), BuildingBlock: OJICUG_clean_linker_0, # of connection points: 2
#     Edge 207, Type (0, 0), BuildingBlock: OJICUG_clean_linker_0, # of connection points: 2
#     Edge 208, Type (0, 0), BuildingBlock: OJICUG_clean_linker_0, # of connection points: 2
#     Edge 209, Type (0, 0), BuildingBlock: OJICUG_clean_linker_0, # of connection points: 2
#     Edge 210, Type (0, 0), BuildingBlock: OJICUG_clean_linker_0, # of connection points: 2
#     Edge 211, Type (0, 0), BuildingBlock: OJICUG_clean_linker_0, # of connection points: 2
#     Edge 212, Type (0, 0), BuildingBlock: OJICUG_clean_linker_0, # of connection points: 2
#     Edge 213, Type (0, 0), BuildingBlock: OJICUG_clean_linker_0, # of connection points: 2
#     Edge 214, Type (0, 0), BuildingBlock: OJICUG_clean_linker_0, # of connection points: 2
#     Edge 215, Type (0, 0), BuildingBlock: OJICUG_clean_linker_0, # of connection points: 2
#     Edge 216, Type (0, 0), BuildingBlock: OJICUG_clean_linker_0, # of connection points: 2
#     Edge 217, Type (0, 0), BuildingBlock: OJICUG_clean_linker_0, # of connection points: 2
#     Edge 218, Type (0, 0), BuildingBlock: OJICUG_clean_linker_0, # of connection points: 2
#     Edge 219, Type (0, 0), BuildingBlock: OJICUG_clean_linker_0, # of connection points: 2
#     Edge 220, Type (0, 0), BuildingBlock: OJICUG_clean_linker_0, # of connection points: 2
#     Edge 221, Type (0, 0), BuildingBlock: OJICUG_clean_linker_0, # of connection points: 2
#     Edge 222, Type (0, 0), BuildingBlock: OJICUG_clean_linker_0, # of connection points: 2
#     Edge 223, Type (0, 0), BuildingBlock: OJICUG_clean_linker_0, # of connection points: 2
#     Edge 224, Type (0, 0), BuildingBlock: OJICUG_clean_linker_0, # of connection points: 2
#     Edge 225, Type (0, 0), BuildingBlock: OJICUG_clean_linker_0, # of connection points: 2
#     Edge 226, Type (0, 0), BuildingBlock: OJICUG_clean_linker_0, # of connection points: 2
#     Edge 227, Type (0, 0), BuildingBlock: OJICUG_clean_linker_0, # of connection points: 2
#     Edge 228, Type (0, 0), BuildingBlock: OJICUG_clean_linker_0, # of connection points: 2
#     Edge 229, Type (0, 0), BuildingBlock: OJICUG_clean_linker_0, # of connection points: 2
#     Edge 230, Type (0, 0), BuildingBlock: OJICUG_clean_linker_0, # of connection points: 2
#     Edge 231, Type (0, 0), BuildingBlock: OJICUG_clean_linker_0, # of connection points: 2
#     Edge 232, Type (0, 0), BuildingBlock: OJICUG_clean_linker_0, # of connection points: 2
#     Edge 233, Type (0, 0), BuildingBlock: OJICUG_clean_linker_0, # of connection points: 2
#     Edge 234, Type (0, 0), BuildingBlock: OJICUG_clean_linker_0, # of connection points: 2
#     Edge 235, Type (0, 0), BuildingBlock: OJICUG_clean_linker_0, # of connection points: 2
#     Edge 236, Type (0, 0), BuildingBlock: OJICUG_clean_linker_0, # of connection points: 2
#     Edge 237, Type (0, 0), BuildingBlock: OJICUG_clean_linker_0, # of connection points: 2
#     Edge 238, Type (0, 0), BuildingBlock: OJICUG_clean_linker_0, # of connection points: 2
#     Edge 239, Type (0, 0), BuildingBlock: OJICUG_clean_linker_0, # of connection points: 2
#     Edge 240, Type (0, 0), BuildingBlock: OJICUG_clean_linker_0, # of connection points: 2
#     Edge 241, Type (0, 0), BuildingBlock: OJICUG_clean_linker_0, # of connection points: 2
#     Edge 242, Type (0, 0), BuildingBlock: OJICUG_clean_linker_0, # of connection points: 2
#     Edge 243, Type (0, 0), BuildingBlock: OJICUG_clean_linker_0, # of connection points: 2
#     Edge 244, Type (0, 0), BuildingBlock: OJICUG_clean_linker_0, # of connection points: 2
#     Edge 245, Type (0, 0), BuildingBlock: OJICUG_clean_linker_0, # of connection points: 2
#     Edge 246, Type (0, 0), BuildingBlock: OJICUG_clean_linker_0, # of connection points: 2
#     Edge 247, Type (0, 0), BuildingBlock: OJICUG_clean_linker_0, # of connection points: 2
#     Edge 248, Type (0, 0), BuildingBlock: OJICUG_clean_linker_0, # of connection points: 2
#     Edge 249, Type (0, 0), BuildingBlock: OJICUG_clean_linker_0, # of connection points: 2
#     Edge 250, Type (0, 0), BuildingBlock: OJICUG_clean_linker_0, # of connection points: 2
#     Edge 251, Type (0, 0), BuildingBlock: OJICUG_clean_linker_0, # of connection points: 2
#     Edge 252, Type (0, 0), BuildingBlock: OJICUG_clean_linker_0, # of connection points: 2
#     Edge 253, Type (0, 0), BuildingBlock: OJICUG_clean_linker_0, # of connection points: 2
#     Edge 254, Type (0, 0), BuildingBlock: OJICUG_clean_linker_0, # of connection points: 2
#     Edge 255, Type (0, 0), BuildingBlock: OJICUG_clean_linker_0, # of connection points: 2
#     Edge 256, Type (0, 0), BuildingBlock: OJICUG_clean_linker_0, # of connection points: 2
#     Edge 257, Type (0, 0), BuildingBlock: OJICUG_clean_linker_0, # of connection points: 2
#     Edge 258, Type (0, 0), BuildingBlock: OJICUG_clean_linker_0, # of connection points: 2
#     Edge 259, Type (0, 0), BuildingBlock: OJICUG_clean_linker_0, # of connection points: 2
#     Edge 260, Type (0, 0), BuildingBlock: OJICUG_clean_linker_0, # of connection points: 2
#     Edge 261, Type (0, 0), BuildingBlock: OJICUG_clean_linker_0, # of connection points: 2
#     Edge 262, Type (0, 0), BuildingBlock: OJICUG_clean_linker_0, # of connection points: 2
#     Edge 263, Type (0, 0), BuildingBlock: OJICUG_clean_linker_0, # of connection points: 2
#     Edge 264, Type (0, 0), BuildingBlock: OJICUG_clean_linker_0, # of connection points: 2
#     Edge 265, Type (0, 0), BuildingBlock: OJICUG_clean_linker_0, # of connection points: 2
#     Edge 266, Type (0, 0), BuildingBlock: OJICUG_clean_linker_0, # of connection points: 2
#     Edge 267, Type (0, 0), BuildingBlock: OJICUG_clean_linker_0, # of connection points: 2
#     Edge 268, Type (0, 0), BuildingBlock: OJICUG_clean_linker_0, # of connection points: 2
#     Edge 269, Type (0, 0), BuildingBlock: OJICUG_clean_linker_0, # of connection points: 2
#     Edge 270, Type (0, 0), BuildingBlock: OJICUG_clean_linker_0, # of connection points: 2
#     Edge 271, Type (0, 0), BuildingBlock: OJICUG_clean_linker_0, # of connection points: 2
#     Edge 272, Type (0, 0), BuildingBlock: OJICUG_clean_linker_0, # of connection points: 2
#     Edge 273, Type (0, 0), BuildingBlock: OJICUG_clean_linker_0, # of connection points: 2
#     Edge 274, Type (0, 0), BuildingBlock: OJICUG_clean_linker_0, # of connection points: 2
#     Edge 275, Type (0, 0), BuildingBlock: OJICUG_clean_linker_0, # of connection points: 2
#     Edge 276, Type (0, 0), BuildingBlock: OJICUG_clean_linker_0, # of connection points: 2
#     Edge 277, Type (0, 0), BuildingBlock: OJICUG_clean_linker_0, # of connection points: 2
#     Edge 278, Type (0, 0), BuildingBlock: OJICUG_clean_linker_0, # of connection points: 2
#     Edge 279, Type (0, 0), BuildingBlock: OJICUG_clean_linker_0, # of connection points: 2
#     Edge 280, Type (0, 0), BuildingBlock: OJICUG_clean_linker_0, # of connection points: 2
#     Edge 281, Type (0, 0), BuildingBlock: OJICUG_clean_linker_0, # of connection points: 2
#     Edge 282, Type (0, 0), BuildingBlock: OJICUG_clean_linker_0, # of connection points: 2
#     Edge 283, Type (0, 0), BuildingBlock: OJICUG_clean_linker_0, # of connection points: 2
#     Edge 284, Type (0, 0), BuildingBlock: OJICUG_clean_linker_0, # of connection points: 2
#     Edge 285, Type (0, 0), BuildingBlock: OJICUG_clean_linker_0, # of connection points: 2
#     Edge 286, Type (0, 0), BuildingBlock: OJICUG_clean_linker_0, # of connection points: 2
#     Edge 287, Type (0, 0), BuildingBlock: OJICUG_clean_linker_0, # of connection points: 2
# Relax obj value: 0.154
# Max RMSD: 0.122
# Mean RMSD: 0.122
data_MOF--net-kfi--node1-TATPOV_clean_sbu_0--edge1-OJICUG_clean_linker_0
_symmetry_space_group_name_H-M    P1
_symmetry_Int_Tables_number       1
_symmetry_cell_setting            triclinic
loop_
_symmetry_equiv_pos_as_xyz
'x, y, z'
_cell_length_a     65.748717
_cell_length_b     65.723847
_cell_length_c     65.565839
_cell_angle_alpha  90.005152
_cell_angle_beta   89.965621
_cell_angle_gamma 90.099563
loop_
_atom_site_label
_atom_site_type_symbol
_atom_site_fract_x
_atom_site_fract_y
_atom_site_fract_z
_atom_type_partial_charge
Zn0 Zn 0.04934 0.21542 0.316 0.0
Zn1 Zn 0.07021 0.18573 0.3073 0.0
O2 O 0.04233 0.1733 0.31614 0.0
O3 O 0.03061 0.19916 0.33364 0.0
O4 O 0.08854 0.16149 0.30398 0.0
O5 O 0.07117 0.23215 0.32882 0.0
O6 O 0.08653 0.20253 0.32875 0.0
C7 C 0.02914 0.18075 0.32827 0.0
C8 C 0.05511 0.21196 0.27332 0.0
O9 O 0.0689 0.19962 0.27903 0.0
O10 O 0.04288 0.21925 0.28631 0.0
C11 C 0.09072 0.15027 0.28835 0.0
O12 O 0.07992 0.15395 0.27191 0.0
C13 C 0.08586 0.22111 0.33437 0.0
Zn14 Zn 0.76016 0.04409 0.32036 0.0
Zn15 Zn 0.78918 0.06603 0.31072 0.0
O16 O 0.80269 0.03855 0.31893 0.0
O17 O 0.77771 0.02549 0.33682 0.0
O18 O 0.81285 0.08496 0.30638 0.0
O19 O 0.74376 0.06545 0.3343 0.0
O20 O 0.77283 0.08189 0.33281 0.0
C21 C 0.79602 0.02487 0.33099 0.0
C22 C 0.76165 0.05067 0.27765 0.0
O23 O 0.77421 0.06444 0.28305 0.0
O24 O 0.75495 0.03818 0.29074 0.0
C25 C 0.82361 0.08682 0.29037 0.0
O26 O 0.81967 0.07538 0.27442 0.0
C27 C 0.75455 0.08056 0.33927 0.0
Zn28 Zn 0.92972 0.75969 0.32089 0.0
Zn29 Zn 0.90786 0.78776 0.30914 0.0
O30 O 0.93462 0.80214 0.31845 0.0
O31 O 0.94699 0.77807 0.33792 0.0
O32 O 0.88859 0.81054 0.30222 0.0
O33 O 0.90793 0.74322 0.33403 0.0
O34 O 0.89105 0.77186 0.33096 0.0
C35 C 0.94771 0.79617 0.33147 0.0
C36 C 0.92576 0.75937 0.27801 0.0
O37 O 0.91148 0.77177 0.28226 0.0
O38 O 0.93766 0.75347 0.29197 0.0
C39 C 0.89353 0.82838 0.29657 0.0
O40 O 0.91284 0.83299 0.29422 0.0
C41 C 0.89239 0.75378 0.33795 0.0
Zn42 Zn 0.21472 0.92688 0.31715 0.0
Zn43 Zn 0.18606 0.90535 0.30662 0.0
O44 O 0.17227 0.93224 0.31629 0.0
O45 O 0.19718 0.94413 0.33503 0.0
O46 O 0.16299 0.88604 0.30082 0.0
O47 O 0.2316 0.90502 0.32958 0.0
O48 O 0.20247 0.88873 0.32809 0.0
C49 C 0.17889 0.94514 0.32922 0.0
C50 C 0.21332 0.92294 0.27437 0.0
O51 O 0.20114 0.90861 0.27913 0.0
O52 O 0.21971 0.93494 0.28804 0.0
C53 C 0.14507 0.89079 0.29535 0.0
O54 O 0.1405 0.91001 0.29235 0.0
C55 C 0.22085 0.88979 0.33427 0.0
Zn56 Zn 0.0479 0.76145 0.66234 0.0
Zn57 Zn 0.06982 0.7901 0.67286 0.0
O58 O 0.04268 0.80399 0.66401 0.0
O59 O 0.02996 0.77929 0.64548 0.0
O60 O 0.08916 0.81322 0.67844 0.0
O61 O 0.06949 0.74494 0.64888 0.0
O62 O 0.08607 0.7739 0.65091 0.0
C63 C 0.02928 0.79755 0.65151 0.0
C64 C 0.05314 0.76234 0.70516 0.0
O65 O 0.06722 0.77475 0.70026 0.0
O66 O 0.04093 0.75596 0.69167 0.0
C67 C 0.08443 0.83102 0.68433 0.0
O68 O 0.06527 0.83538 0.68797 0.0
C69 C 0.08476 0.75567 0.6443 0.0
Zn70 Zn 0.2139 0.04797 0.66129 0.0
Zn71 Zn 0.18551 0.06988 0.67188 0.0
O72 O 0.17136 0.04297 0.66264 0.0
O73 O 0.19599 0.03054 0.64389 0.0
O74 O 0.16261 0.08935 0.67768 0.0
O75 O 0.23083 0.06959 0.64838 0.0
O76 O 0.20195 0.08621 0.65012 0.0
C77 C 0.17772 0.02981 0.64986 0.0
C78 C 0.21293 0.0525 0.70407 0.0
O79 O 0.20077 0.06679 0.69927 0.0
O80 O 0.21914 0.04033 0.69047 0.0
C81 C 0.14472 0.08465 0.68337 0.0
O82 O 0.14012 0.06547 0.68662 0.0
C83 C 0.22025 0.0849 0.64373 0.0
Zn84 Zn 0.92967 0.21626 0.65744 0.0
Zn85 Zn 0.90763 0.18821 0.66925 0.0
O86 O 0.93432 0.17374 0.66005 0.0
O87 O 0.94692 0.19774 0.64057 0.0
O88 O 0.88819 0.16552 0.67614 0.0
O89 O 0.90795 0.2327 0.6442 0.0
O90 O 0.89097 0.20408 0.64738 0.0
C91 C 0.94751 0.17965 0.64707 0.0
C92 C 0.92551 0.21668 0.70033 0.0
O93 O 0.91123 0.20426 0.69609 0.0
O94 O 0.93748 0.22256 0.68639 0.0
C95 C 0.89295 0.14787 0.68245 0.0
O96 O 0.91217 0.14342 0.68555 0.0
C97 C 0.89238 0.22213 0.64033 0.0
Zn98 Zn 0.76168 0.93166 0.65925 0.0
Zn99 Zn 0.79011 0.90955 0.66963 0.0
O100 O 0.8043 0.93676 0.66135 0.0
O101 O 0.77981 0.94978 0.64285 0.0
O102 O 0.81299 0.89005 0.67537 0.0
O103 O 0.74521 0.91037 0.64527 0.0
O104 O 0.77406 0.89371 0.64721 0.0
C105 C 0.79801 0.95035 0.649 0.0
C106 C 0.76199 0.92581 0.70192 0.0
O107 O 0.77445 0.91184 0.69689 0.0
O108 O 0.75578 0.93824 0.68858 0.0
C109 C 0.83021 0.89445 0.683 0.0
O110 O 0.83411 0.91333 0.68833 0.0
C111 C 0.75591 0.89518 0.64047 0.0
Zn112 Zn 0.31686 0.04713 0.21698 0.0
Zn113 Zn 0.30578 0.06937 0.18882 0.0
O114 O 0.31447 0.04252 0.17424 0.0
O115 O 0.33341 0.02957 0.19846 0.0
O116 O 0.29949 0.089 0.1661 0.0
O117 O 0.33054 0.06855 0.23355 0.0
O118 O 0.32802 0.08548 0.2048 0.0
C119 C 0.32711 0.02912 0.18025 0.0
C120 C 0.27418 0.05209 0.2171 0.0
O121 O 0.27879 0.06634 0.20476 0.0
O122 O 0.28779 0.03987 0.22306 0.0
C123 C 0.29315 0.08438 0.14838 0.0
O124 O 0.2896 0.06523 0.14387 0.0
C125 C 0.33495 0.08395 0.22292 0.0
Zn126 Zn 0.92604 0.31246 0.21578 0.0
Zn127 Zn 0.90528 0.3039 0.18585 0.0
O128 O 0.93316 0.31283 0.17349 0.0
O129 O 0.94481 0.33012 0.19958 0.0
O130 O 0.88693 0.30088 0.16151 0.0
O131 O 0.90418 0.32523 0.2325 0.0
O132 O 0.88897 0.32523 0.20271 0.0
C133 C 0.9463 0.32493 0.18109 0.0
C134 C 0.92021 0.26989 0.2121 0.0
O135 O 0.90649 0.27563 0.19966 0.0
O136 O 0.93242 0.28282 0.21953 0.0
C137 C 0.884 0.28524 0.15048 0.0
O138 O 0.89402 0.26841 0.1544 0.0
C139 C 0.88957 0.3308 0.22136 0.0
Zn140 Zn 0.65956 0.93126 0.21565 0.0
Zn141 Zn 0.66926 0.90947 0.18659 0.0
O142 O 0.66075 0.93676 0.17277 0.0
O143 O 0.64291 0.94953 0.19796 0.0
O144 O 0.67446 0.89003 0.16346 0.0
O145 O 0.64587 0.90975 0.23216 0.0
O146 O 0.64716 0.89354 0.20291 0.0
C147 C 0.64858 0.95026 0.17955 0.0
C148 C 0.70206 0.92536 0.2143 0.0
O149 O 0.69673 0.91156 0.20174 0.0
O150 O 0.68893 0.93775 0.221 0.0
C151 C 0.68143 0.89434 0.1459 0.0
O152 O 0.68641 0.91324 0.14164 0.0
C153 C 0.6408 0.89474 0.22127 0.0
Zn154 Zn 0.04706 0.65694 0.21663 0.0
Zn155 Zn 0.0692 0.6685 0.18858 0.0
O156 O 0.0425 0.6594 0.174 0.0
O157 O 0.02985 0.64001 0.19807 0.0
O158 O 0.08875 0.67511 0.16587 0.0
O159 O 0.06863 0.64376 0.23332 0.0
O160 O 0.08565 0.64664 0.20464 0.0
C161 C 0.0293 0.64645 0.17992 0.0
C162 C 0.05135 0.69971 0.21687 0.0
O163 O 0.06571 0.69538 0.20454 0.0
O164 O 0.03929 0.68586 0.22272 0.0
C165 C 0.08408 0.68108 0.14804 0.0
O166 O 0.06488 0.68408 0.14341 0.0
C167 C 0.08417 0.63971 0.22277 0.0
Zn168 Zn 0.31751 0.93046 0.76274 0.0
Zn169 Zn 0.30602 0.90816 0.79075 0.0
O170 O 0.31477 0.93494 0.80543 0.0
O171 O 0.33405 0.94789 0.78143 0.0
O172 O 0.29953 0.88843 0.81333 0.0
O173 O 0.33112 0.90906 0.74614 0.0
O174 O 0.32813 0.89198 0.77477 0.0
C175 C 0.32755 0.94833 0.79957 0.0
C176 C 0.27479 0.92567 0.76231 0.0
O177 O 0.27917 0.91139 0.77469 0.0
O178 O 0.28855 0.93784 0.75647 0.0
C179 C 0.29349 0.89287 0.8312 0.0
O180 O 0.2903 0.912 0.83602 0.0
C181 C 0.33522 0.89355 0.7567 0.0
Zn182 Zn 0.04677 0.31861 0.76116 0.0
Zn183 Zn 0.06862 0.30741 0.78955 0.0
O184 O 0.04186 0.31669 0.80387 0.0
O185 O 0.02946 0.33572 0.77942 0.0
O186 O 0.08802 0.30102 0.81241 0.0
O187 O 0.06854 0.33165 0.74453 0.0
O188 O 0.08524 0.32914 0.77341 0.0
C189 C 0.02876 0.32956 0.79767 0.0
C190 C 0.05095 0.27587 0.76145 0.0
O191 O 0.0652 0.28035 0.77384 0.0
O192 O 0.03898 0.28962 0.75533 0.0
C193 C 0.08326 0.29526 0.8303 0.0
O194 O 0.06403 0.29236 0.83493 0.0
C195 C 0.08396 0.33588 0.75519 0.0
Zn196 Zn 0.65871 0.04547 0.76267 0.0
Zn197 Zn 0.66845 0.06746 0.79166 0.0
O198 O 0.65998 0.04025 0.80565 0.0
O199 O 0.64214 0.02723 0.78059 0.0
O200 O 0.67311 0.08701 0.81476 0.0
O201 O 0.64496 0.06679 0.74602 0.0
O202 O 0.64646 0.0832 0.77514 0.0
C203 C 0.64783 0.02666 0.79899 0.0
C204 C 0.70134 0.05157 0.76423 0.0
O205 O 0.69605 0.06543 0.77675 0.0
O206 O 0.68817 0.03923 0.75749 0.0
C207 C 0.68416 0.08446 0.83044 0.0
O208 O 0.69431 0.06741 0.83265 0.0
C209 C 0.64 0.08188 0.75683 0.0
Zn210 Zn 0.92718 0.66111 0.76332 0.0
Zn211 Zn 0.90566 0.67107 0.79224 0.0
O212 O 0.93277 0.66182 0.80593 0.0
O213 O 0.94484 0.64355 0.78074 0.0
O214 O 0.88633 0.6764 0.81546 0.0
O215 O 0.90547 0.64836 0.7464 0.0
O216 O 0.88934 0.64941 0.77571 0.0
C217 C 0.94585 0.64922 0.79913 0.0
C218 C 0.92263 0.70373 0.76509 0.0
O219 O 0.90844 0.69867 0.77733 0.0
O220 O 0.93475 0.69032 0.75848 0.0
C221 C 0.891 0.68218 0.83336 0.0
O222 O 0.91013 0.68581 0.83785 0.0
C223 C 0.8904 0.64333 0.75725 0.0
Zn224 Zn 0.21538 0.31882 0.04637 0.0
Zn225 Zn 0.18646 0.30917 0.06843 0.0
O226 O 0.17262 0.31777 0.0412 0.0
O227 O 0.19767 0.3356 0.02819 0.0
O228 O 0.16318 0.30465 0.08777 0.0
O229 O 0.23211 0.33238 0.0678 0.0
O230 O 0.20309 0.33101 0.08433 0.0
C231 C 0.17929 0.32997 0.02763 0.0
C232 C 0.21356 0.27616 0.05237 0.0
O233 O 0.20116 0.28149 0.06633 0.0
O234 O 0.22029 0.28932 0.03998 0.0
C235 C 0.1498 0.2907 0.08704 0.0
O236 O 0.15044 0.27717 0.0723 0.0
C237 C 0.22141 0.33735 0.08298 0.0
Zn238 Zn 0.21529 0.65812 0.93128 0.0
Zn239 Zn 0.18634 0.66768 0.90954 0.0
O240 O 0.17284 0.65908 0.93701 0.0
O241 O 0.19789 0.64107 0.94956 0.0
O242 O 0.16273 0.6719 0.89053 0.0
O243 O 0.23203 0.64479 0.90975 0.0
O244 O 0.20287 0.64586 0.8935 0.0
C245 C 0.17958 0.6468 0.95043 0.0
C246 C 0.21348 0.70075 0.92542 0.0
O247 O 0.20111 0.69542 0.91144 0.0
O248 O 0.22014 0.68759 0.93782 0.0
C249 C 0.15123 0.68737 0.88923 0.0
O250 O 0.15423 0.70295 0.90142 0.0
C251 C 0.22123 0.63969 0.89468 0.0
Zn252 Zn 0.3165 0.21567 0.93184 0.0
Zn253 Zn 0.30601 0.18705 0.90989 0.0
O254 O 0.31472 0.17307 0.93708 0.0
O255 O 0.33324 0.19774 0.94981 0.0
O256 O 0.30015 0.16404 0.89048 0.0
O257 O 0.32998 0.23215 0.91018 0.0
O258 O 0.32803 0.20316 0.89364 0.0
C259 C 0.32719 0.17949 0.9505 0.0
C260 C 0.27389 0.21498 0.92653 0.0
O261 O 0.27881 0.20253 0.91247 0.0
O262 O 0.2873 0.22132 0.93884 0.0
C263 C 0.29381 0.14637 0.89521 0.0
O264 O 0.29001 0.14207 0.91441 0.0
C265 C 0.33462 0.2214 0.89492 0.0
Zn266 Zn 0.76076 0.31501 0.92694 0.0
Zn267 Zn 0.78939 0.30466 0.90546 0.0
O268 O 0.80312 0.31438 0.93244 0.0
O269 O 0.77816 0.3331 0.94414 0.0
O270 O 0.81256 0.29901 0.88621 0.0
O271 O 0.74373 0.32718 0.90501 0.0
O272 O 0.77293 0.32608 0.88882 0.0
C273 C 0.79646 0.32735 0.94525 0.0
C274 C 0.76234 0.27236 0.92314 0.0
O275 O 0.77438 0.27716 0.90869 0.0
O276 O 0.756 0.28598 0.93521 0.0
C277 C 0.83044 0.29357 0.89115 0.0
O278 O 0.83481 0.2905 0.91045 0.0
C279 C 0.75449 0.33206 0.88983 0.0
Zn280 Zn 0.65612 0.75995 0.92972 0.0
Zn281 Zn 0.66806 0.78799 0.90766 0.0
O282 O 0.65903 0.80234 0.93456 0.0
O283 O 0.6395 0.77844 0.94724 0.0
O284 O 0.67492 0.81082 0.88833 0.0
O285 O 0.64269 0.74365 0.90796 0.0
O286 O 0.64618 0.77218 0.89089 0.0
C287 C 0.64615 0.79649 0.94787 0.0
C288 C 0.69897 0.75949 0.92548 0.0
O289 O 0.69483 0.77194 0.91118 0.0
O290 O 0.685 0.75357 0.93739 0.0
C291 C 0.68088 0.82855 0.89332 0.0
O292 O 0.68366 0.83292 0.91267 0.0
C293 C 0.63894 0.7542 0.89232 0.0
Zn294 Zn 0.7618 0.66143 0.05061 0.0
Zn295 Zn 0.7903 0.67222 0.07221 0.0
O296 O 0.80418 0.66268 0.04522 0.0
O297 O 0.77946 0.64371 0.03332 0.0
O298 O 0.81339 0.67805 0.09151 0.0
O299 O 0.74487 0.64895 0.07251 0.0
O300 O 0.77391 0.65073 0.08892 0.0
C301 C 0.79771 0.64971 0.0323 0.0
C302 C 0.76296 0.70416 0.05452 0.0
O303 O 0.77512 0.69955 0.06892 0.0
O304 O 0.75671 0.69044 0.04251 0.0
C305 C 0.83131 0.6835 0.08665 0.0
O306 O 0.83581 0.68654 0.06736 0.0
C307 C 0.75556 0.64442 0.08783 0.0
Zn308 Zn 0.31761 0.76113 0.04699 0.0
Zn309 Zn 0.30718 0.78973 0.06886 0.0
O310 O 0.31585 0.80364 0.0416 0.0
O311 O 0.33445 0.77903 0.029 0.0
O312 O 0.30144 0.81277 0.08824 0.0
O313 O 0.33099 0.74462 0.06862 0.0
O314 O 0.32918 0.77365 0.0851 0.0
C315 C 0.32835 0.79723 0.0282 0.0
C316 C 0.275 0.7618 0.05228 0.0
O317 O 0.27994 0.77423 0.06636 0.0
O318 O 0.28841 0.7555 0.03996 0.0
C319 C 0.29465 0.83027 0.08361 0.0
O320 O 0.29023 0.83438 0.06451 0.0
C321 C 0.33569 0.7554 0.08385 0.0
Zn322 Zn 0.65724 0.21667 0.04908 0.0
Zn323 Zn 0.6687 0.18869 0.07123 0.0
O324 O 0.65978 0.17421 0.04435 0.0
O325 O 0.64047 0.19821 0.03164 0.0
O326 O 0.67529 0.16598 0.09074 0.0
O327 O 0.64385 0.23319 0.07069 0.0
O328 O 0.64666 0.20454 0.08768 0.0
C329 C 0.64694 0.18012 0.03105 0.0
C330 C 0.69998 0.217 0.05353 0.0
O331 O 0.6956 0.2047 0.06791 0.0
O332 O 0.68619 0.22284 0.04142 0.0
C333 C 0.68157 0.14833 0.08593 0.0
O334 O 0.68486 0.14395 0.06666 0.0
C335 C 0.63968 0.2226 0.08621 0.0
Zn336 Zn 0.92918 0.76279 0.66276 0.0
Zn337 Zn 0.90761 0.79166 0.67269 0.0
O338 O 0.93497 0.8053 0.66394 0.0
O339 O 0.94728 0.78027 0.64564 0.0
O340 O 0.88825 0.81482 0.67775 0.0
O341 O 0.90761 0.74607 0.6495 0.0
O342 O 0.89148 0.77526 0.65079 0.0
C343 C 0.94827 0.79856 0.6515 0.0
C344 C 0.92377 0.76422 0.70545 0.0
O345 O 0.9098 0.7766 0.70028 0.0
O346 O 0.93608 0.75769 0.69214 0.0
C347 C 0.89252 0.83238 0.68465 0.0
O348 O 0.91136 0.83665 0.68982 0.0
C349 C 0.89257 0.7569 0.64453 0.0
Zn350 Zn 0.21466 0.93114 0.65874 0.0
Zn351 Zn 0.1865 0.90886 0.66984 0.0
O352 O 0.17206 0.93573 0.66113 0.0
O353 O 0.19625 0.94875 0.64216 0.0
O354 O 0.16381 0.88923 0.67619 0.0
O355 O 0.23115 0.90973 0.64505 0.0
O356 O 0.2025 0.8927 0.64767 0.0
C357 C 0.1781 0.94919 0.64849 0.0
C358 C 0.21474 0.92607 0.70152 0.0
O359 O 0.20234 0.91189 0.69689 0.0
O360 O 0.22076 0.93831 0.68789 0.0
C361 C 0.14617 0.89378 0.68268 0.0
O362 O 0.14171 0.91291 0.68633 0.0
C363 C 0.22059 0.89426 0.64073 0.0
Zn364 Zn 0.04629 0.21572 0.65821 0.0
Zn365 Zn 0.06813 0.1874 0.66941 0.0
O366 O 0.04126 0.17314 0.66026 0.0
O367 O 0.02883 0.1975 0.64118 0.0
O368 O 0.08747 0.16456 0.67585 0.0
O369 O 0.06803 0.23225 0.645 0.0
O370 O 0.08467 0.20342 0.64749 0.0
C371 C 0.0281 0.17932 0.64741 0.0
C372 C 0.0507 0.21554 0.70103 0.0
O373 O 0.06489 0.20315 0.69649 0.0
O374 O 0.03866 0.22163 0.68728 0.0
C375 C 0.08265 0.14686 0.68201 0.0
O376 O 0.06343 0.14244 0.68526 0.0
C377 C 0.0834 0.22158 0.64071 0.0
Zn378 Zn 0.76156 0.04903 0.662 0.0
Zn379 Zn 0.78979 0.07102 0.67289 0.0
O380 O 0.80398 0.04418 0.66358 0.0
O381 O 0.77954 0.03179 0.64455 0.0
O382 O 0.8127 0.09051 0.67884 0.0
O383 O 0.74463 0.07065 0.64919 0.0
O384 O 0.77345 0.08744 0.65119 0.0
C385 C 0.79775 0.03108 0.65067 0.0
C386 C 0.76226 0.05333 0.70483 0.0
O387 O 0.77439 0.06775 0.70019 0.0
O388 O 0.75621 0.04119 0.69112 0.0
C389 C 0.83058 0.08579 0.68447 0.0
O390 O 0.83512 0.06659 0.68761 0.0
C391 C 0.75518 0.08608 0.64472 0.0
Zn392 Zn 0.9271 0.21511 0.31476 0.0
Zn393 Zn 0.90627 0.18501 0.30687 0.0
O394 O 0.93419 0.17281 0.31566 0.0
O395 O 0.94609 0.19917 0.33233 0.0
O396 O 0.88793 0.16065 0.30397 0.0
O397 O 0.90529 0.23173 0.32776 0.0
O398 O 0.89022 0.20191 0.32841 0.0
C399 C 0.94747 0.18062 0.32748 0.0
C400 C 0.9208 0.21099 0.27227 0.0
O401 O 0.90721 0.19858 0.2784 0.0
O402 O 0.93315 0.21864 0.28494 0.0
C403 C 0.88551 0.14953 0.28829 0.0
O404 O 0.89602 0.15341 0.27169 0.0
C405 C 0.89084 0.22058 0.33377 0.0
Zn406 Zn 0.76137 0.92534 0.31696 0.0
Zn407 Zn 0.78996 0.90429 0.30573 0.0
O408 O 0.80355 0.93123 0.31571 0.0
O409 O 0.77883 0.94243 0.33509 0.0
O410 O 0.81317 0.8853 0.29953 0.0
O411 O 0.74458 0.90315 0.32902 0.0
O412 O 0.77375 0.88708 0.32696 0.0
C413 C 0.79701 0.94383 0.32897 0.0
C414 C 0.76248 0.92231 0.27407 0.0
O415 O 0.7747 0.90791 0.27841 0.0
O416 O 0.75621 0.93398 0.28806 0.0
C417 C 0.83124 0.89031 0.29478 0.0
O418 O 0.83592 0.90965 0.29278 0.0
C419 C 0.75539 0.88788 0.33328 0.0
Zn420 Zn 0.04632 0.75956 0.32058 0.0
Zn421 Zn 0.06832 0.78794 0.30932 0.0
O422 O 0.04153 0.80222 0.31848 0.0
O423 O 0.02881 0.77786 0.33744 0.0
O424 O 0.08771 0.81079 0.30282 0.0
O425 O 0.06801 0.74318 0.33394 0.0
O426 O 0.08482 0.77196 0.33122 0.0
C427 C 0.02826 0.79606 0.33126 0.0
C428 C 0.05091 0.7597 0.27772 0.0
O429 O 0.06505 0.77219 0.28225 0.0
O430 O 0.03887 0.75353 0.29148 0.0
C431 C 0.08289 0.8285 0.29673 0.0
O432 O 0.06365 0.83291 0.29363 0.0
C433 C 0.08345 0.75384 0.33811 0.0
Zn434 Zn 0.21556 0.04499 0.32079 0.0
Zn435 Zn 0.18686 0.0669 0.31065 0.0
O436 O 0.17312 0.03955 0.31904 0.0
O437 O 0.19777 0.02671 0.33744 0.0
O438 O 0.16335 0.08587 0.30605 0.0
O439 O 0.2321 0.06641 0.33451 0.0
O440 O 0.2032 0.08298 0.33263 0.0
C441 C 0.17955 0.02601 0.33136 0.0
C442 C 0.21444 0.05096 0.27796 0.0
O443 O 0.20198 0.0649 0.28307 0.0
O444 O 0.2209 0.03863 0.29129 0.0
C445 C 0.15244 0.08757 0.29015 0.0
O446 O 0.15608 0.07587 0.27432 0.0
C447 C 0.22141 0.08164 0.33922 0.0
Zn448 Zn 0.65915 0.9278 0.76228 0.0
Zn449 Zn 0.6705 0.90597 0.79056 0.0
O450 O 0.66119 0.93279 0.80483 0.0
O451 O 0.64201 0.9451 0.78048 0.0
O452 O 0.67678 0.88653 0.81344 0.0
O453 O 0.64616 0.90608 0.74559 0.0
O454 O 0.64884 0.88928 0.7744 0.0
C455 C 0.64828 0.94587 0.79868 0.0
C456 C 0.70194 0.92378 0.76252 0.0
O457 O 0.69756 0.90944 0.77487 0.0
O458 O 0.68811 0.9357 0.75646 0.0
C459 C 0.68212 0.89121 0.83147 0.0
O460 O 0.68472 0.91045 0.83628 0.0
C461 C 0.64205 0.89059 0.75621 0.0
Zn462 Zn 0.0461 0.65908 0.76282 0.0
Zn463 Zn 0.06788 0.6686 0.79189 0.0
O464 O 0.04041 0.6602 0.80543 0.0
O465 O 0.02767 0.64227 0.7803 0.0
O466 O 0.08695 0.67258 0.81553 0.0
O467 O 0.06744 0.64553 0.74604 0.0
O468 O 0.08371 0.64673 0.77524 0.0
C469 C 0.02687 0.64804 0.79867 0.0
C470 C 0.05229 0.70175 0.76477 0.0
O471 O 0.06618 0.69638 0.7772 0.0
O472 O 0.03991 0.68862 0.75801 0.0
C473 C 0.08863 0.68798 0.82713 0.0
O474 O 0.07676 0.70378 0.82428 0.0
C475 C 0.08247 0.64046 0.75686 0.0
Zn476 Zn 0.31562 0.0471 0.76371 0.0
Zn477 Zn 0.30513 0.0691 0.79223 0.0
O478 O 0.31401 0.04216 0.80647 0.0
O479 O 0.3326 0.02951 0.78179 0.0
O480 O 0.29935 0.08863 0.81517 0.0
O481 O 0.32889 0.06864 0.74694 0.0
O482 O 0.3271 0.08525 0.77594 0.0
C483 C 0.32662 0.02889 0.8001 0.0
C484 C 0.273 0.05206 0.76445 0.0
O485 O 0.27788 0.06624 0.77677 0.0
O486 O 0.28645 0.0398 0.75821 0.0
C487 C 0.29328 0.08401 0.83299 0.0
O488 O 0.28962 0.06487 0.8375 0.0
C489 C 0.33361 0.0839 0.75764 0.0
Zn490 Zn 0.9302 0.32017 0.76079 0.0
Zn491 Zn 0.90814 0.3086 0.78903 0.0
O492 O 0.93491 0.31763 0.80351 0.0
O493 O 0.94764 0.33686 0.77936 0.0
O494 O 0.88865 0.30186 0.81174 0.0
O495 O 0.90854 0.33357 0.74438 0.0
O496 O 0.89165 0.33053 0.77312 0.0
C497 C 0.9482 0.33044 0.79752 0.0
C498 C 0.92572 0.2774 0.76054 0.0
O499 O 0.91153 0.28175 0.77304 0.0
O500 O 0.93773 0.29122 0.75451 0.0
C501 C 0.89331 0.29571 0.82951 0.0
O502 O 0.91251 0.2927 0.83414 0.0
C503 C 0.89305 0.33757 0.75502 0.0
Zn504 Zn 0.65925 0.04915 0.21709 0.0
Zn505 Zn 0.67067 0.07116 0.18888 0.0
O506 O 0.66156 0.04431 0.17451 0.0
O507 O 0.64229 0.03176 0.19874 0.0
O508 O 0.67693 0.09066 0.16603 0.0
O509 O 0.64607 0.07076 0.2338 0.0
O510 O 0.64887 0.08763 0.20503 0.0
C511 C 0.64868 0.03109 0.18057 0.0
C512 C 0.70208 0.05348 0.21688 0.0
O513 O 0.69772 0.06784 0.20459 0.0
O514 O 0.68824 0.04149 0.22291 0.0
C515 C 0.68266 0.08599 0.14811 0.0
O516 O 0.68571 0.0668 0.14346 0.0
C517 C 0.64197 0.08624 0.22318 0.0
Zn518 Zn 0.93096 0.65632 0.21684 0.0
Zn519 Zn 0.90882 0.66783 0.18874 0.0
O520 O 0.93555 0.65898 0.17408 0.0
O521 O 0.94839 0.6398 0.19817 0.0
O522 O 0.88928 0.67464 0.16611 0.0
O523 O 0.9094 0.64268 0.23325 0.0
O524 O 0.89243 0.64568 0.20457 0.0
C525 C 0.94886 0.6462 0.18 0.0
C526 C 0.92636 0.69901 0.21739 0.0
O527 O 0.91217 0.69462 0.20491 0.0
O528 O 0.93845 0.68526 0.22329 0.0
C529 C 0.89396 0.68109 0.14844 0.0
O530 O 0.91316 0.68435 0.14391 0.0
C531 C 0.89392 0.63858 0.22263 0.0
Zn532 Zn 0.3159 0.92976 0.21518 0.0
Zn533 Zn 0.30582 0.90786 0.18646 0.0
O534 O 0.31452 0.93504 0.17247 0.0
O535 O 0.33288 0.94767 0.19734 0.0
O536 O 0.30042 0.88835 0.16342 0.0
O537 O 0.32921 0.9083 0.23196 0.0
O538 O 0.32778 0.89187 0.20284 0.0
C539 C 0.32697 0.94841 0.17902 0.0
C540 C 0.27332 0.92435 0.21406 0.0
O541 O 0.27842 0.91027 0.20171 0.0
O542 O 0.28664 0.93671 0.22047 0.0
C543 C 0.29391 0.89277 0.14572 0.0
O544 O 0.2895 0.91177 0.14133 0.0
C545 C 0.33412 0.89316 0.2212 0.0
Zn546 Zn 0.04775 0.31402 0.21696 0.0
Zn547 Zn 0.06907 0.30566 0.18722 0.0
O548 O 0.04134 0.31403 0.17431 0.0
O549 O 0.02889 0.331 0.20024 0.0
O550 O 0.08797 0.30242 0.16336 0.0
O551 O 0.06922 0.32751 0.23369 0.0
O552 O 0.08479 0.32745 0.20407 0.0
C553 C 0.02783 0.32582 0.18171 0.0
C554 C 0.05434 0.27155 0.21365 0.0
O555 O 0.06799 0.27748 0.20119 0.0
O556 O 0.04191 0.28428 0.221 0.0
C557 C 0.0877 0.28872 0.14968 0.0
O558 O 0.07366 0.27448 0.15025 0.0
C559 C 0.08387 0.33323 0.22263 0.0
Zn560 Zn 0.7602 0.65683 0.93295 0.0
Zn561 Zn 0.78836 0.66801 0.91063 0.0
O562 O 0.80272 0.65972 0.93775 0.0
O563 O 0.77865 0.64073 0.95095 0.0
O564 O 0.81115 0.67438 0.89107 0.0
O565 O 0.74398 0.64276 0.91152 0.0
O566 O 0.77264 0.64558 0.89452 0.0
C567 C 0.79675 0.64723 0.95138 0.0
C568 C 0.75964 0.69945 0.92734 0.0
O569 O 0.7722 0.69484 0.91328 0.0
O570 O 0.75371 0.68591 0.93973 0.0
C571 C 0.82882 0.6807 0.89579 0.0
O572 O 0.83322 0.6842 0.91502 0.0
C573 C 0.75462 0.63846 0.89608 0.0
Zn574 Zn 0.75943 0.32032 0.0453 0.0
Zn575 Zn 0.78799 0.31003 0.06739 0.0
O576 O 0.80185 0.31812 0.03996 0.0
O577 O 0.77741 0.3366 0.02688 0.0
O578 O 0.81148 0.30506 0.08637 0.0
O579 O 0.74312 0.33434 0.06669 0.0
O580 O 0.77197 0.33226 0.0834 0.0
C581 C 0.79557 0.33037 0.02628 0.0
C582 C 0.75995 0.27765 0.05155 0.0
O583 O 0.77249 0.28272 0.06549 0.0
O584 O 0.75365 0.29092 0.03909 0.0
C585 C 0.82192 0.28888 0.08803 0.0
O586 O 0.81768 0.27318 0.07637 0.0
C587 C 0.75383 0.33902 0.08196 0.0
Zn588 Zn 0.65989 0.76177 0.04765 0.0
Zn589 Zn 0.66959 0.79083 0.0693 0.0
O590 O 0.66049 0.8045 0.04208 0.0
O591 O 0.64262 0.77918 0.02967 0.0
O592 O 0.6748 0.81406 0.08861 0.0
O593 O 0.64682 0.74508 0.06941 0.0
O594 O 0.64783 0.77435 0.08552 0.0
C595 C 0.64809 0.7976 0.02882 0.0
C596 C 0.70243 0.76359 0.05286 0.0
O597 O 0.69718 0.77598 0.06685 0.0
O598 O 0.68919 0.75685 0.04058 0.0
C599 C 0.68163 0.83157 0.08402 0.0
O600 O 0.68648 0.83559 0.06499 0.0
C601 C 0.64172 0.75593 0.08445 0.0
Zn602 Zn 0.21579 0.65873 0.0498 0.0
Zn603 Zn 0.18738 0.66961 0.07154 0.0
O604 O 0.17339 0.66015 0.0446 0.0
O605 O 0.19795 0.64117 0.03248 0.0
O606 O 0.16439 0.6757 0.09088 0.0
O607 O 0.23259 0.64612 0.07166 0.0
O608 O 0.20363 0.64808 0.08823 0.0
C609 C 0.17975 0.64725 0.03156 0.0
C610 C 0.21494 0.70146 0.05379 0.0
O611 O 0.20274 0.69687 0.06818 0.0
O612 O 0.22114 0.68774 0.04177 0.0
C613 C 0.14663 0.68157 0.08603 0.0
O614 O 0.14224 0.68476 0.06675 0.0
C615 C 0.22192 0.64168 0.08704 0.0
Zn616 Zn 0.31547 0.21588 0.04971 0.0
Zn617 Zn 0.30445 0.18759 0.07161 0.0
O618 O 0.31361 0.17343 0.04464 0.0
O619 O 0.3327 0.19786 0.03229 0.0
O620 O 0.29837 0.16466 0.09107 0.0
O621 O 0.32843 0.23268 0.07142 0.0
O622 O 0.32625 0.20378 0.08808 0.0
C623 C 0.32649 0.17967 0.0315 0.0
C624 C 0.27275 0.21531 0.05406 0.0
O625 O 0.27731 0.2031 0.06844 0.0
O626 O 0.28645 0.22139 0.04194 0.0
C627 C 0.29242 0.14687 0.08631 0.0
O628 O 0.28906 0.14243 0.06707 0.0
C629 C 0.33286 0.22202 0.0868 0.0
Zn630 Zn 0.21486 0.31798 0.92846 0.0
Zn631 Zn 0.18651 0.30698 0.90677 0.0
O632 O 0.17252 0.3165 0.93369 0.0
O633 O 0.19706 0.33566 0.94565 0.0
O634 O 0.16352 0.30079 0.88746 0.0
O635 O 0.23179 0.33046 0.90657 0.0
O636 O 0.20283 0.32851 0.89003 0.0
C637 C 0.17886 0.32952 0.94664 0.0
C638 C 0.21395 0.27525 0.9247 0.0
O639 O 0.20182 0.27977 0.91025 0.0
O640 O 0.2201 0.28903 0.93669 0.0
C641 C 0.1457 0.29507 0.89235 0.0
O642 O 0.14124 0.2921 0.91166 0.0
C643 C 0.22114 0.33489 0.89119 0.0
Zn644 Zn 0.65935 0.21491 0.93118 0.0
Zn645 Zn 0.66864 0.18586 0.90932 0.0
O646 O 0.65996 0.17212 0.93663 0.0
O647 O 0.64234 0.19739 0.94939 0.0
O648 O 0.6731 0.16266 0.88987 0.0
O649 O 0.646 0.23172 0.90972 0.0
O650 O 0.64683 0.20252 0.89347 0.0
C651 C 0.64778 0.17897 0.95011 0.0
C652 C 0.70189 0.21284 0.92524 0.0
O653 O 0.69641 0.20048 0.91131 0.0
O654 O 0.68884 0.21965 0.93767 0.0
C655 C 0.68419 0.14708 0.89256 0.0
O656 O 0.69444 0.1451 0.90964 0.0
C657 C 0.64075 0.22092 0.89468 0.0
Zn658 Zn 0.31589 0.76045 0.92878 0.0
Zn659 Zn 0.30524 0.78897 0.9069 0.0
O660 O 0.31442 0.80301 0.93393 0.0
O661 O 0.33304 0.77836 0.94643 0.0
O662 O 0.2993 0.81203 0.88759 0.0
O663 O 0.329 0.74384 0.90702 0.0
O664 O 0.32703 0.77279 0.89043 0.0
C665 C 0.3271 0.79662 0.94716 0.0
C666 C 0.2732 0.76124 0.92413 0.0
O667 O 0.27796 0.77355 0.90989 0.0
O668 O 0.28677 0.75496 0.93627 0.0
C669 C 0.29313 0.82967 0.89254 0.0
O670 O 0.28953 0.83381 0.91181 0.0
C671 C 0.33356 0.75455 0.8917 0.0
Zn672 Zn 0.54724 0.71425 0.81428 0.0
Zn673 Zn 0.56885 0.68495 0.80561 0.0
O674 O 0.5413 0.67152 0.81406 0.0
O675 O 0.52866 0.69715 0.83129 0.0
O676 O 0.58821 0.6616 0.80187 0.0
O677 O 0.56854 0.73116 0.82781 0.0
O678 O 0.58439 0.70179 0.82758 0.0
C679 C 0.52778 0.67867 0.82602 0.0
C680 C 0.55371 0.71153 0.77172 0.0
O681 O 0.56749 0.69922 0.77753 0.0
O682 O 0.54119 0.71855 0.78458 0.0
C683 C 0.58605 0.64601 0.79063 0.0
O684 O 0.56951 0.64399 0.77957 0.0
C685 C 0.5833 0.72028 0.83348 0.0
Zn686 Zn 0.26116 0.54535 0.81977 0.0
Zn687 Zn 0.28914 0.56769 0.8084 0.0
O688 O 0.30367 0.54082 0.81698 0.0
O689 O 0.27971 0.52776 0.83622 0.0
O690 O 0.31181 0.58731 0.80194 0.0
O691 O 0.24472 0.56673 0.83355 0.0
O692 O 0.27328 0.58385 0.83067 0.0
C693 C 0.29779 0.52735 0.82969 0.0
C694 C 0.26065 0.55043 0.77698 0.0
O695 O 0.27306 0.56465 0.78149 0.0
O696 O 0.25483 0.53816 0.79068 0.0
C697 C 0.32949 0.58272 0.79559 0.0
O698 O 0.33399 0.56357 0.79208 0.0
C699 C 0.25526 0.58224 0.83775 0.0
Zn700 Zn 0.42927 0.26108 0.82037 0.0
Zn701 Zn 0.40734 0.28922 0.80894 0.0
O702 O 0.43417 0.30362 0.81797 0.0
O703 O 0.44668 0.27948 0.83726 0.0
O704 O 0.388 0.31199 0.80227 0.0
O705 O 0.40757 0.24459 0.83368 0.0
O706 O 0.39081 0.27333 0.83096 0.0
C707 C 0.44735 0.2976 0.83087 0.0
C708 C 0.42487 0.26089 0.77755 0.0
O709 O 0.41064 0.27327 0.78199 0.0
O710 O 0.43693 0.25496 0.79135 0.0
C711 C 0.39287 0.3296 0.79588 0.0
O712 O 0.4121 0.33392 0.79257 0.0
C713 C 0.39215 0.25522 0.83786 0.0
Zn714 Zn 0.71413 0.42731 0.817 0.0
Zn715 Zn 0.68576 0.40571 0.80575 0.0
O716 O 0.67179 0.43253 0.81544 0.0
O717 O 0.69628 0.44442 0.83472 0.0
O718 O 0.66275 0.38642 0.79953 0.0
O719 O 0.73091 0.4054 0.82947 0.0
O720 O 0.70198 0.38883 0.82717 0.0
C721 C 0.6781 0.44539 0.82855 0.0
C722 C 0.71347 0.42368 0.77412 0.0
O723 O 0.70123 0.40928 0.77853 0.0
O724 O 0.71957 0.43557 0.78802 0.0
C725 C 0.64479 0.39124 0.79429 0.0
O726 O 0.64016 0.41051 0.79174 0.0
C727 C 0.72025 0.38997 0.83367 0.0
Zn728 Zn 0.54634 0.26229 0.16246 0.0
Zn729 Zn 0.56797 0.29153 0.17169 0.0
O730 O 0.54051 0.30489 0.16311 0.0
O731 O 0.52792 0.2795 0.14546 0.0
O732 O 0.58714 0.31509 0.17548 0.0
O733 O 0.56775 0.24554 0.149 0.0
O734 O 0.58384 0.27482 0.14988 0.0
C735 C 0.52706 0.2979 0.15097 0.0
C736 C 0.55247 0.26462 0.20517 0.0
O737 O 0.5663 0.27708 0.19966 0.0
O738 O 0.5401 0.25771 0.1921 0.0
C739 C 0.58666 0.32895 0.18898 0.0
O740 O 0.57218 0.32881 0.2028 0.0
C741 C 0.58272 0.25641 0.14377 0.0
Zn742 Zn 0.71491 0.55025 0.16203 0.0
Zn743 Zn 0.68663 0.57192 0.1731 0.0
O744 O 0.67256 0.54506 0.16355 0.0
O745 O 0.69705 0.53307 0.14436 0.0
O746 O 0.66364 0.5912 0.1792 0.0
O747 O 0.73184 0.57206 0.14945 0.0
O748 O 0.70293 0.5886 0.1515 0.0
C749 C 0.67885 0.53215 0.1505 0.0
C750 C 0.71409 0.55408 0.2049 0.0
O751 O 0.702 0.56852 0.20039 0.0
O752 O 0.72017 0.5421 0.19107 0.0
C753 C 0.64578 0.58629 0.18479 0.0
O754 O 0.64131 0.56703 0.18775 0.0
C755 C 0.72122 0.58742 0.14504 0.0
Zn756 Zn 0.43013 0.71582 0.1585 0.0
Zn757 Zn 0.40801 0.68771 0.16998 0.0
O758 O 0.43478 0.67324 0.16099 0.0
O759 O 0.44752 0.69735 0.14172 0.0
O760 O 0.38854 0.66498 0.17667 0.0
O761 O 0.40853 0.73226 0.14507 0.0
O762 O 0.3916 0.70357 0.14791 0.0
C763 C 0.44804 0.67922 0.14812 0.0
C764 C 0.42556 0.71618 0.20131 0.0
O765 O 0.41132 0.70375 0.19689 0.0
O766 O 0.43768 0.72207 0.18752 0.0
C767 C 0.39333 0.64737 0.18309 0.0
O768 O 0.41254 0.64306 0.18646 0.0
C769 C 0.39306 0.72165 0.14092 0.0
Zn770 Zn 0.26149 0.43144 0.15828 0.0
Zn771 Zn 0.28938 0.40907 0.16962 0.0
O772 O 0.30401 0.43599 0.16117 0.0
O773 O 0.28014 0.44912 0.14197 0.0
O774 O 0.31196 0.38943 0.17613 0.0
O775 O 0.24507 0.4101 0.14435 0.0
O776 O 0.27358 0.39298 0.14722 0.0
C777 C 0.2982 0.44951 0.14852 0.0
C778 C 0.26077 0.42618 0.20102 0.0
O779 O 0.27318 0.41201 0.19648 0.0
O780 O 0.25501 0.4385 0.18737 0.0
C781 C 0.32967 0.39404 0.18241 0.0
O782 O 0.33427 0.41321 0.18576 0.0
C783 C 0.25558 0.39462 0.1401 0.0
Zn784 Zn 0.81693 0.54818 0.71689 0.0
Zn785 Zn 0.80567 0.57019 0.68861 0.0
O786 O 0.81492 0.54344 0.67421 0.0
O787 O 0.83398 0.5309 0.69855 0.0
O788 O 0.79942 0.58973 0.66583 0.0
O789 O 0.83 0.56987 0.73362 0.0
O790 O 0.82735 0.58675 0.70484 0.0
C791 C 0.82776 0.53027 0.68033 0.0
C792 C 0.77414 0.55239 0.71657 0.0
O793 O 0.77859 0.56672 0.70425 0.0
O794 O 0.78792 0.54042 0.72264 0.0
C795 C 0.7938 0.58514 0.64786 0.0
O796 O 0.7909 0.56595 0.64305 0.0
C797 C 0.83413 0.58538 0.72303 0.0
Zn798 Zn 0.42855 0.81768 0.71709 0.0
Zn799 Zn 0.40722 0.80839 0.68772 0.0
O800 O 0.43487 0.81697 0.67469 0.0
O801 O 0.44709 0.83486 0.70011 0.0
O802 O 0.38851 0.8045 0.66378 0.0
O803 O 0.40695 0.83086 0.73381 0.0
O804 O 0.39113 0.83007 0.70435 0.0
C805 C 0.44824 0.82917 0.68173 0.0
C806 C 0.4227 0.77503 0.71458 0.0
O807 O 0.40884 0.78047 0.70216 0.0
O808 O 0.43497 0.78815 0.72157 0.0
C809 C 0.38669 0.78887 0.6525 0.0
O810 O 0.39814 0.77287 0.65592 0.0
C811 C 0.39209 0.83609 0.72284 0.0
Zn812 Zn 0.15941 0.42947 0.71511 0.0
Zn813 Zn 0.16983 0.40765 0.68641 0.0
O814 O 0.1607 0.43458 0.67232 0.0
O815 O 0.14223 0.44703 0.69719 0.0
O816 O 0.17564 0.38822 0.66342 0.0
O817 O 0.14633 0.40778 0.73186 0.0
O818 O 0.14805 0.39132 0.70276 0.0
C819 C 0.14808 0.44777 0.67884 0.0
C820 C 0.20205 0.42478 0.71404 0.0
O821 O 0.19716 0.41063 0.70168 0.0
O822 O 0.18856 0.43692 0.72046 0.0
C823 C 0.18172 0.39287 0.64561 0.0
O824 O 0.18531 0.41202 0.64111 0.0
C825 C 0.14163 0.39255 0.72111 0.0
Zn826 Zn 0.54535 0.15639 0.7176 0.0
Zn827 Zn 0.56741 0.16783 0.68934 0.0
O828 O 0.54059 0.15895 0.67485 0.0
O829 O 0.52781 0.1398 0.69905 0.0
O830 O 0.58694 0.17448 0.66662 0.0
O831 O 0.56693 0.14282 0.73397 0.0
O832 O 0.58376 0.14573 0.70518 0.0
C833 C 0.52726 0.14618 0.68088 0.0
C834 C 0.55003 0.19912 0.71791 0.0
O835 O 0.56419 0.19471 0.70539 0.0
O836 O 0.53796 0.18535 0.72393 0.0
C837 C 0.58231 0.18076 0.64889 0.0
O838 O 0.56314 0.18401 0.64433 0.0
C839 C 0.58234 0.13868 0.72327 0.0
Zn840 Zn 0.816 0.42583 0.26077 0.0
Zn841 Zn 0.8048 0.40441 0.28937 0.0
O842 O 0.81451 0.4313 0.30326 0.0
O843 O 0.8336 0.44313 0.27855 0.0
O844 O 0.79849 0.38529 0.31253 0.0
O845 O 0.8286 0.40387 0.24411 0.0
O846 O 0.82627 0.38752 0.27322 0.0
C847 C 0.82753 0.44418 0.29681 0.0
C848 C 0.77321 0.4222 0.26164 0.0
O849 O 0.7776 0.40788 0.27396 0.0
O850 O 0.78709 0.43398 0.25532 0.0
C851 C 0.79302 0.39028 0.33044 0.0
O852 O 0.7904 0.40958 0.33489 0.0
C853 C 0.83285 0.38857 0.25492 0.0
Zn854 Zn 0.54555 0.82066 0.26074 0.0
Zn855 Zn 0.5676 0.80921 0.28903 0.0
O856 O 0.54091 0.81826 0.3036 0.0
O857 O 0.52812 0.83728 0.27934 0.0
O858 O 0.58705 0.80242 0.31171 0.0
O859 O 0.56725 0.83416 0.24437 0.0
O860 O 0.58414 0.83116 0.2731 0.0
C861 C 0.52762 0.831 0.29756 0.0
C862 C 0.55 0.77791 0.26055 0.0
O863 O 0.56414 0.78233 0.27308 0.0
O864 O 0.53803 0.79168 0.25445 0.0
C865 C 0.58239 0.79553 0.32922 0.0
O866 O 0.56323 0.7918 0.33356 0.0
C867 C 0.58273 0.8382 0.255 0.0
Zn868 Zn 0.15949 0.54634 0.263 0.0
Zn869 Zn 0.16973 0.56818 0.29179 0.0
O870 O 0.16062 0.54114 0.30576 0.0
O871 O 0.14231 0.52858 0.28082 0.0
O872 O 0.17535 0.58754 0.31492 0.0
O873 O 0.14641 0.56798 0.24628 0.0
O874 O 0.14799 0.58442 0.27539 0.0
C875 C 0.14808 0.52786 0.29918 0.0
C876 C 0.20212 0.55134 0.26421 0.0
O877 O 0.19714 0.56543 0.27659 0.0
O878 O 0.1887 0.53914 0.25772 0.0
C879 C 0.1813 0.5828 0.33274 0.0
O880 O 0.18489 0.56364 0.33712 0.0
C881 C 0.14165 0.58318 0.25703 0.0
Zn882 Zn 0.42939 0.15918 0.26235 0.0
Zn883 Zn 0.40761 0.16916 0.29138 0.0
O884 O 0.43491 0.16063 0.30514 0.0
O885 O 0.44766 0.14258 0.28011 0.0
O886 O 0.38822 0.1742 0.31457 0.0
O887 O 0.40788 0.14553 0.24584 0.0
O888 O 0.39152 0.14724 0.27499 0.0
C889 C 0.44843 0.14844 0.29845 0.0
C890 C 0.42368 0.20186 0.26376 0.0
O891 O 0.40981 0.19669 0.27633 0.0
O892 O 0.4359 0.18859 0.25703 0.0
C893 C 0.39207 0.18275 0.33152 0.0
O894 O 0.41047 0.18972 0.33508 0.0
C895 C 0.39274 0.14075 0.25668 0.0
Zn896 Zn 0.71656 0.81976 0.54584 0.0
Zn897 Zn 0.68775 0.80969 0.56782 0.0
O898 O 0.67425 0.8176 0.54018 0.0
O899 O 0.69887 0.83598 0.52716 0.0
O900 O 0.66406 0.80511 0.58669 0.0
O901 O 0.73289 0.8338 0.56724 0.0
O902 O 0.70392 0.83184 0.58382 0.0
C903 C 0.6807 0.82972 0.52643 0.0
C904 C 0.71551 0.77707 0.55235 0.0
O905 O 0.70295 0.78226 0.56621 0.0
O906 O 0.72204 0.79026 0.53988 0.0
C907 C 0.65364 0.78894 0.58878 0.0
O908 O 0.65798 0.77291 0.57762 0.0
C909 C 0.72212 0.83853 0.58246 0.0
Zn910 Zn 0.7149 0.15615 0.43335 0.0
Zn911 Zn 0.68671 0.16705 0.41104 0.0
O912 O 0.67231 0.1586 0.43812 0.0
O913 O 0.69649 0.13983 0.45128 0.0
O914 O 0.66398 0.17331 0.39144 0.0
O915 O 0.73126 0.14224 0.41195 0.0
O916 O 0.7026 0.14475 0.39496 0.0
C917 C 0.67835 0.14614 0.45172 0.0
C918 C 0.71518 0.19876 0.42786 0.0
O919 O 0.70269 0.19402 0.41377 0.0
O920 O 0.72118 0.18527 0.44022 0.0
C921 C 0.64638 0.17982 0.3961 0.0
O922 O 0.642 0.18352 0.4153 0.0
C923 C 0.72066 0.1378 0.39653 0.0
Zn924 Zn 0.81552 0.71391 0.43064 0.0
Zn925 Zn 0.80698 0.68426 0.40946 0.0
O926 O 0.81572 0.67155 0.43723 0.0
O927 O 0.83301 0.69743 0.44927 0.0
O928 O 0.80351 0.66017 0.39088 0.0
O929 O 0.82848 0.73067 0.40885 0.0
O930 O 0.82854 0.70108 0.39332 0.0
C931 C 0.8278 0.67895 0.4505 0.0
C932 C 0.77306 0.71062 0.42462 0.0
O933 O 0.77888 0.69827 0.41083 0.0
O934 O 0.7859 0.71785 0.43704 0.0
C935 C 0.78764 0.64938 0.38839 0.0
O936 O 0.77117 0.6535 0.39897 0.0
C937 C 0.83414 0.71968 0.39413 0.0
Zn938 Zn 0.26116 0.816 0.42881 0.0
Zn939 Zn 0.28966 0.80525 0.40722 0.0
O940 O 0.30352 0.81484 0.43419 0.0
O941 O 0.27882 0.83377 0.44609 0.0
O942 O 0.3127 0.79935 0.38788 0.0
O943 O 0.24429 0.82843 0.40691 0.0
O944 O 0.27334 0.82669 0.3905 0.0
C945 C 0.29705 0.8278 0.44712 0.0
C946 C 0.26222 0.77329 0.42495 0.0
O947 O 0.27441 0.77792 0.41055 0.0
O948 O 0.25598 0.78701 0.43696 0.0
C949 C 0.33065 0.79404 0.39266 0.0
O950 O 0.33529 0.79126 0.41195 0.0
C951 C 0.25501 0.83296 0.39159 0.0
Zn952 Zn 0.16008 0.26109 0.42913 0.0
Zn953 Zn 0.17128 0.28935 0.40721 0.0
O954 O 0.16208 0.30354 0.43416 0.0
O955 O 0.14295 0.27917 0.44657 0.0
O956 O 0.17751 0.31227 0.38778 0.0
O957 O 0.14699 0.24442 0.40742 0.0
O958 O 0.14949 0.27323 0.39065 0.0
C959 C 0.1492 0.29735 0.44731 0.0
C960 C 0.20282 0.26143 0.42482 0.0
O961 O 0.19836 0.27372 0.41048 0.0
O962 O 0.18906 0.25536 0.43688 0.0
C963 C 0.18311 0.33015 0.39261 0.0
O964 O 0.18601 0.3347 0.41191 0.0
C965 C 0.14273 0.25505 0.39198 0.0
Zn966 Zn 0.26143 0.1588 0.54923 0.0
Zn967 Zn 0.28952 0.16996 0.57138 0.0
O968 O 0.30391 0.16077 0.54456 0.0
O969 O 0.27967 0.14161 0.53198 0.0
O970 O 0.31227 0.17617 0.59096 0.0
O971 O 0.24452 0.14584 0.57086 0.0
O972 O 0.27319 0.14824 0.58785 0.0
C973 C 0.29784 0.14788 0.53136 0.0
C974 C 0.26189 0.20157 0.55349 0.0
O975 O 0.27403 0.19707 0.56794 0.0
O976 O 0.25589 0.18781 0.54139 0.0
C977 C 0.33006 0.18216 0.58626 0.0
O978 O 0.33461 0.18546 0.56703 0.0
C979 C 0.255 0.14158 0.58641 0.0
Zn980 Zn 0.81593 0.26184 0.54749 0.0
Zn981 Zn 0.8059 0.29059 0.56934 0.0
O982 O 0.81479 0.30446 0.54213 0.0
O983 O 0.83301 0.27955 0.52955 0.0
O984 O 0.80041 0.3137 0.58873 0.0
O985 O 0.82917 0.24522 0.56913 0.0
O986 O 0.82785 0.27435 0.58547 0.0
C987 C 0.82726 0.29787 0.5288 0.0
C988 C 0.77339 0.26291 0.55282 0.0
O989 O 0.7785 0.27529 0.56688 0.0
O990 O 0.78669 0.2565 0.54044 0.0
C991 C 0.79446 0.33147 0.58394 0.0
O992 O 0.79078 0.33577 0.56473 0.0
C993 C 0.83414 0.25602 0.58425 0.0
Zn994 Zn 0.15988 0.71585 0.55013 0.0
Zn995 Zn 0.17053 0.68738 0.57213 0.0
O996 O 0.16148 0.67326 0.54509 0.0
O997 O 0.14288 0.69784 0.53242 0.0
O998 O 0.17635 0.66438 0.59153 0.0
O999 O 0.14664 0.73247 0.5718 0.0
O1000 O 0.14868 0.70357 0.58848 0.0
C1001 C 0.14886 0.67959 0.53178 0.0
C1002 C 0.2026 0.71511 0.55497 0.0
O1003 O 0.19782 0.7028 0.56921 0.0
O1004 O 0.18905 0.72137 0.5428 0.0
C1005 C 0.18246 0.64668 0.58671 0.0
O1006 O 0.18613 0.64242 0.56748 0.0
C1007 C 0.14209 0.72179 0.58715 0.0
Zn1008 Zn 0.42718 0.26187 0.16139 0.0
Zn1009 Zn 0.40562 0.29037 0.17221 0.0
O1010 O 0.43281 0.30415 0.16318 0.0
O1011 O 0.4449 0.2796 0.14412 0.0
O1012 O 0.38642 0.3135 0.17805 0.0
O1013 O 0.40544 0.24519 0.1484 0.0
O1014 O 0.3891 0.27423 0.15038 0.0
C1015 C 0.44594 0.29775 0.15039 0.0
C1016 C 0.42263 0.26262 0.20421 0.0
O1017 O 0.40842 0.27491 0.19952 0.0
O1018 O 0.43473 0.25642 0.19055 0.0
C1019 C 0.39127 0.33135 0.18376 0.0
O1020 O 0.41049 0.33577 0.18702 0.0
C1021 C 0.39021 0.25595 0.14387 0.0
Zn1022 Zn 0.71435 0.43211 0.15888 0.0
Zn1023 Zn 0.68549 0.41012 0.1685 0.0
O1024 O 0.67176 0.43757 0.16051 0.0
O1025 O 0.69666 0.45063 0.1425 0.0
O1026 O 0.66218 0.3908 0.17303 0.0
O1027 O 0.73087 0.41095 0.14479 0.0
O1028 O 0.70181 0.39451 0.14617 0.0
C1029 C 0.67838 0.45126 0.14843 0.0
C1030 C 0.71312 0.42548 0.20151 0.0
O1031 O 0.70059 0.41168 0.19609 0.0
O1032 O 0.71969 0.43806 0.18845 0.0
C1033 C 0.64883 0.39148 0.18704 0.0
O1034 O 0.64948 0.40618 0.2006 0.0
C1035 C 0.72007 0.3959 0.13968 0.0
Zn1036 Zn 0.54631 0.71594 0.15789 0.0
Zn1037 Zn 0.56835 0.68814 0.1699 0.0
O1038 O 0.54167 0.67348 0.16084 0.0
O1039 O 0.52917 0.69724 0.14107 0.0
O1040 O 0.58783 0.6656 0.17693 0.0
O1041 O 0.56799 0.73245 0.1446 0.0
O1042 O 0.58501 0.70393 0.1479 0.0
C1043 C 0.52854 0.67922 0.14776 0.0
C1044 C 0.55035 0.71673 0.20075 0.0
O1045 O 0.5647 0.70439 0.19661 0.0
O1046 O 0.53836 0.72238 0.18676 0.0
C1047 C 0.58312 0.64785 0.18306 0.0
O1048 O 0.56389 0.64318 0.1859 0.0
C1049 C 0.58358 0.72194 0.14076 0.0
Zn1050 Zn 0.26246 0.54793 0.16175 0.0
Zn1051 Zn 0.29068 0.56991 0.17272 0.0
O1052 O 0.30498 0.54314 0.16344 0.0
O1053 O 0.28056 0.53075 0.14437 0.0
O1054 O 0.31347 0.58949 0.17879 0.0
O1055 O 0.24558 0.56953 0.14886 0.0
O1056 O 0.27442 0.58628 0.15094 0.0
C1057 C 0.29876 0.53006 0.15049 0.0
C1058 C 0.26297 0.55219 0.20456 0.0
O1059 O 0.27515 0.56659 0.19995 0.0
O1060 O 0.25695 0.54006 0.19083 0.0
C1061 C 0.33134 0.5849 0.18456 0.0
O1062 O 0.33598 0.56573 0.18777 0.0
C1063 C 0.25618 0.58493 0.1444 0.0
Zn1064 Zn 0.4277 0.71499 0.8164 0.0
Zn1065 Zn 0.40593 0.6863 0.80602 0.0
O1066 O 0.43325 0.6726 0.81467 0.0
O1067 O 0.44579 0.69732 0.83327 0.0
O1068 O 0.38666 0.66311 0.80048 0.0
O1069 O 0.40611 0.73149 0.82985 0.0
O1070 O 0.38969 0.70244 0.82802 0.0
C1071 C 0.44664 0.67912 0.82714 0.0
C1072 C 0.42234 0.71406 0.77363 0.0
O1073 O 0.40828 0.70166 0.77861 0.0
O1074 O 0.43462 0.72044 0.78706 0.0
C1075 C 0.39137 0.64536 0.79443 0.0
O1076 O 0.41051 0.64104 0.79065 0.0
C1077 C 0.39091 0.72071 0.83455 0.0
Zn1078 Zn 0.26202 0.42877 0.8166 0.0
Zn1079 Zn 0.29029 0.40687 0.80573 0.0
O1080 O 0.30454 0.4337 0.81504 0.0
O1081 O 0.28005 0.44604 0.83402 0.0
O1082 O 0.3131 0.38736 0.79976 0.0
O1083 O 0.24509 0.40712 0.82945 0.0
O1084 O 0.27393 0.39045 0.82746 0.0
C1085 C 0.29828 0.44678 0.82795 0.0
C1086 C 0.26272 0.42445 0.7738 0.0
O1087 O 0.27488 0.41011 0.77846 0.0
O1088 O 0.25664 0.43658 0.78749 0.0
C1089 C 0.33102 0.392 0.79413 0.0
O1090 O 0.33573 0.41119 0.79101 0.0
C1091 C 0.25566 0.39175 0.83394 0.0
Zn1092 Zn 0.54575 0.26073 0.8208 0.0
Zn1093 Zn 0.56786 0.28869 0.80904 0.0
O1094 O 0.54112 0.30321 0.81806 0.0
O1095 O 0.52842 0.27927 0.83755 0.0
O1096 O 0.58731 0.31138 0.80211 0.0
O1097 O 0.56737 0.24434 0.83423 0.0
O1098 O 0.58439 0.27295 0.83113 0.0
C1099 C 0.52789 0.29734 0.83101 0.0
C1100 C 0.55014 0.26005 0.77798 0.0
O1101 O 0.56442 0.27247 0.78225 0.0
O1102 O 0.53806 0.25429 0.79186 0.0
C1103 C 0.58248 0.3291 0.79604 0.0
O1104 O 0.56323 0.33359 0.79322 0.0
C1105 C 0.58291 0.25492 0.83822 0.0
Zn1106 Zn 0.71496 0.54477 0.81999 0.0
Zn1107 Zn 0.68646 0.56691 0.80969 0.0
O1108 O 0.67224 0.53978 0.81803 0.0
O1109 O 0.69678 0.5267 0.83644 0.0
O1110 O 0.66353 0.58644 0.80451 0.0
O1111 O 0.73158 0.56605 0.83388 0.0
O1112 O 0.70274 0.58273 0.83189 0.0
C1113 C 0.67854 0.52618 0.83036 0.0
C1114 C 0.71423 0.55066 0.77722 0.0
O1115 O 0.70179 0.56463 0.78227 0.0
O1116 O 0.72057 0.53829 0.79057 0.0
C1117 C 0.64829 0.58381 0.79288 0.0
O1118 O 0.64657 0.56678 0.78252 0.0
C1119 C 0.72091 0.58129 0.8386 0.0
Zn1120 Zn 0.15723 0.42915 0.26181 0.0
Zn1121 Zn 0.16902 0.4072 0.28998 0.0
O1122 O 0.15996 0.43396 0.30446 0.0
O1123 O 0.1406 0.44657 0.2804 0.0
O1124 O 0.17585 0.3878 0.31274 0.0
O1125 O 0.14376 0.40742 0.24551 0.0
O1126 O 0.14709 0.3905 0.27419 0.0
C1127 C 0.1471 0.44719 0.29852 0.0
C1128 C 0.20002 0.42495 0.26131 0.0
O1129 O 0.19581 0.41073 0.27385 0.0
O1130 O 0.18611 0.43683 0.25535 0.0
C1131 C 0.18186 0.39258 0.33053 0.0
O1132 O 0.18472 0.41183 0.33511 0.0
C1133 C 0.1399 0.39188 0.25616 0.0
Zn1134 Zn 0.54857 0.16184 0.26293 0.0
Zn1135 Zn 0.57002 0.17164 0.2921 0.0
O1136 O 0.54273 0.16245 0.3056 0.0
O1137 O 0.53051 0.14448 0.28023 0.0
O1138 O 0.58925 0.17667 0.31547 0.0
O1139 O 0.57031 0.14888 0.24619 0.0
O1140 O 0.58631 0.15001 0.27555 0.0
C1141 C 0.52952 0.15003 0.29866 0.0
C1142 C 0.55362 0.2045 0.26494 0.0
O1143 O 0.56762 0.19935 0.27732 0.0
O1144 O 0.5415 0.19116 0.25812 0.0
C1145 C 0.58453 0.18223 0.33343 0.0
O1146 O 0.5654 0.18586 0.3379 0.0
C1147 C 0.58531 0.14388 0.2571 0.0
Zn1148 Zn 0.81757 0.54495 0.26174 0.0
Zn1149 Zn 0.80839 0.56638 0.29125 0.0
O1150 O 0.81677 0.53873 0.30431 0.0
O1151 O 0.83437 0.52623 0.27884 0.0
O1152 O 0.80442 0.58497 0.31527 0.0
O1153 O 0.83114 0.5666 0.24531 0.0
O1154 O 0.83023 0.58248 0.27476 0.0
C1155 C 0.82879 0.52525 0.29726 0.0
C1156 C 0.77501 0.55127 0.26403 0.0
O1157 O 0.78058 0.56494 0.27664 0.0
O1158 O 0.78797 0.53891 0.25699 0.0
C1159 C 0.78842 0.58715 0.32593 0.0
O1160 O 0.7722 0.57626 0.32168 0.0
C1161 C 0.83636 0.58149 0.25631 0.0
Zn1162 Zn 0.42916 0.81976 0.26127 0.0
Zn1163 Zn 0.40724 0.80833 0.28958 0.0
O1164 O 0.43398 0.81766 0.30394 0.0
O1165 O 0.44646 0.83684 0.27961 0.0
O1166 O 0.38789 0.80167 0.31246 0.0
O1167 O 0.40741 0.83281 0.24471 0.0
O1168 O 0.39059 0.83005 0.27352 0.0
C1169 C 0.44712 0.83057 0.29782 0.0
C1170 C 0.42501 0.77699 0.26137 0.0
O1171 O 0.41075 0.78136 0.27378 0.0
O1172 O 0.43697 0.79083 0.25529 0.0
C1173 C 0.39276 0.79566 0.33023 0.0
O1174 O 0.41202 0.79274 0.33466 0.0
C1175 C 0.39194 0.83689 0.25534 0.0
Zn1176 Zn 0.15706 0.54615 0.71672 0.0
Zn1177 Zn 0.16844 0.56851 0.68864 0.0
O1178 O 0.15963 0.54177 0.67393 0.0
O1179 O 0.14055 0.52869 0.69802 0.0
O1180 O 0.17492 0.58823 0.66605 0.0
O1181 O 0.14343 0.56755 0.7333 0.0
O1182 O 0.14636 0.58468 0.70469 0.0
C1183 C 0.14693 0.52833 0.67984 0.0
C1184 C 0.1998 0.55099 0.71695 0.0
O1185 O 0.19535 0.56524 0.70457 0.0
O1186 O 0.18607 0.53884 0.72291 0.0
C1187 C 0.18132 0.58374 0.64832 0.0
O1188 O 0.18484 0.56462 0.64369 0.0
C1189 C 0.13929 0.58307 0.72277 0.0
Zn1190 Zn 0.42877 0.15751 0.71749 0.0
Zn1191 Zn 0.40683 0.16884 0.68918 0.0
O1192 O 0.43356 0.15961 0.67477 0.0
O1193 O 0.44607 0.14052 0.69911 0.0
O1194 O 0.38742 0.17531 0.66635 0.0
O1195 O 0.40702 0.14439 0.7341 0.0
O1196 O 0.39021 0.14708 0.70529 0.0
C1197 C 0.44671 0.14676 0.68089 0.0
C1198 C 0.42455 0.20028 0.71733 0.0
O1199 O 0.41031 0.19584 0.70493 0.0
O1200 O 0.43651 0.1865 0.72342 0.0
C1201 C 0.39218 0.18151 0.64862 0.0
O1202 O 0.41139 0.18482 0.64417 0.0
C1203 C 0.39154 0.14026 0.72348 0.0
Zn1204 Zn 0.81696 0.43077 0.71564 0.0
Zn1205 Zn 0.80679 0.40896 0.68676 0.0
O1206 O 0.81561 0.43612 0.67284 0.0
O1207 O 0.83384 0.44878 0.6978 0.0
O1208 O 0.80117 0.38953 0.6637 0.0
O1209 O 0.83036 0.40918 0.73219 0.0
O1210 O 0.82874 0.39285 0.70301 0.0
C1211 C 0.82801 0.44952 0.67945 0.0
C1212 C 0.77437 0.42541 0.71455 0.0
O1213 O 0.77942 0.41145 0.70206 0.0
O1214 O 0.78771 0.43766 0.72111 0.0
C1215 C 0.79503 0.39412 0.6459 0.0
O1216 O 0.79129 0.41323 0.64142 0.0
C1217 C 0.83519 0.39407 0.72134 0.0
Zn1218 Zn 0.54935 0.81422 0.71622 0.0
Zn1219 Zn 0.57029 0.80571 0.68641 0.0
O1220 O 0.54267 0.8149 0.67382 0.0
O1221 O 0.53097 0.83212 0.69993 0.0
O1222 O 0.58877 0.80244 0.66218 0.0
O1223 O 0.57122 0.82678 0.73312 0.0
O1224 O 0.58659 0.82699 0.7034 0.0
C1225 C 0.52962 0.82709 0.68137 0.0
C1226 C 0.55474 0.77169 0.7125 0.0
O1227 O 0.56862 0.77743 0.7002 0.0
O1228 O 0.54256 0.78464 0.71986 0.0
C1229 C 0.59152 0.78665 0.65134 0.0
O1230 O 0.58128 0.76996 0.65545 0.0
C1231 C 0.5859 0.83245 0.72207 0.0
Zn1232 Zn 0.26166 0.15825 0.43221 0.0
Zn1233 Zn 0.29016 0.16835 0.4099 0.0
O1234 O 0.30446 0.15988 0.43698 0.0
O1235 O 0.27976 0.14169 0.45016 0.0
O1236 O 0.31297 0.17371 0.39015 0.0
O1237 O 0.24494 0.14446 0.41096 0.0
O1238 O 0.2738 0.14614 0.39417 0.0
C1239 C 0.29807 0.14756 0.45058 0.0
C1240 C 0.26251 0.20082 0.42639 0.0
O1241 O 0.27486 0.19571 0.41232 0.0
O1242 O 0.25617 0.18756 0.43886 0.0
C1243 C 0.32986 0.18232 0.39401 0.0
O1244 O 0.33346 0.1891 0.41251 0.0
C1245 C 0.25558 0.13956 0.3957 0.0
Zn1246 Zn 0.26074 0.81819 0.54732 0.0
Zn1247 Zn 0.28959 0.80863 0.56928 0.0
O1248 O 0.30323 0.81698 0.54182 0.0
O1249 O 0.27831 0.83496 0.52894 0.0
O1250 O 0.31314 0.80452 0.58839 0.0
O1251 O 0.24401 0.83178 0.56868 0.0
O1252 O 0.27305 0.83056 0.58514 0.0
C1253 C 0.29661 0.82916 0.52823 0.0
C1254 C 0.2624 0.77555 0.55355 0.0
O1255 O 0.27477 0.78092 0.56751 0.0
O1256 O 0.2558 0.78866 0.54107 0.0
C1257 C 0.3245 0.78898 0.59 0.0
O1258 O 0.32135 0.77319 0.57813 0.0
C1259 C 0.25473 0.83685 0.58382 0.0
Zn1260 Zn 0.15907 0.26117 0.54678 0.0
Zn1261 Zn 0.16969 0.28971 0.5688 0.0
O1262 O 0.16099 0.30377 0.54166 0.0
O1263 O 0.14237 0.27921 0.52887 0.0
O1264 O 0.17558 0.3127 0.58823 0.0
O1265 O 0.14554 0.2447 0.56841 0.0
O1266 O 0.14764 0.27362 0.58505 0.0
C1267 C 0.14848 0.29744 0.52823 0.0
C1268 C 0.2017 0.26172 0.55206 0.0
O1269 O 0.19684 0.27417 0.56615 0.0
O1270 O 0.18825 0.25545 0.53976 0.0
C1271 C 0.1817 0.33043 0.58346 0.0
O1272 O 0.1853 0.33479 0.56424 0.0
C1273 C 0.14097 0.25541 0.58371 0.0
Zn1274 Zn 0.71415 0.16004 0.55053 0.0
Zn1275 Zn 0.6858 0.1708 0.57242 0.0
O1276 O 0.67168 0.16126 0.54557 0.0
O1277 O 0.69627 0.14241 0.53331 0.0
O1278 O 0.66283 0.1767 0.59186 0.0
O1279 O 0.73111 0.14746 0.5723 0.0
O1280 O 0.70222 0.1493 0.589 0.0
C1281 C 0.67802 0.14835 0.53253 0.0
C1282 C 0.71318 0.20277 0.55457 0.0
O1283 O 0.70105 0.19813 0.56901 0.0
O1284 O 0.71936 0.18907 0.54251 0.0
C1285 C 0.64501 0.18241 0.58704 0.0
O1286 O 0.64059 0.18564 0.56777 0.0
C1287 C 0.72052 0.14296 0.58772 0.0
Zn1288 Zn 0.81803 0.717 0.55001 0.0
Zn1289 Zn 0.80684 0.68875 0.57197 0.0
O1290 O 0.81596 0.6746 0.54499 0.0
O1291 O 0.83507 0.69892 0.53248 0.0
O1292 O 0.80048 0.66577 0.59127 0.0
O1293 O 0.83117 0.73361 0.57174 0.0
O1294 O 0.8287 0.70479 0.58851 0.0
C1295 C 0.82877 0.68077 0.53175 0.0
C1296 C 0.77529 0.71666 0.55443 0.0
O1297 O 0.77979 0.70439 0.56878 0.0
O1298 O 0.78903 0.72273 0.54234 0.0
C1299 C 0.79441 0.64809 0.58628 0.0
O1300 O 0.79121 0.64385 0.56697 0.0
C1301 C 0.83547 0.72297 0.58716 0.0
Zn1302 Zn 0.71538 0.81243 0.42656 0.0
Zn1303 Zn 0.68628 0.80261 0.40536 0.0
O1304 O 0.67288 0.81249 0.43247 0.0
O1305 O 0.6984 0.8306 0.44406 0.0
O1306 O 0.66295 0.79751 0.38618 0.0
O1307 O 0.73238 0.8246 0.40452 0.0
O1308 O 0.70297 0.82387 0.38871 0.0
C1309 C 0.67996 0.82528 0.44526 0.0
C1310 C 0.71291 0.76981 0.42255 0.0
O1311 O 0.70076 0.77485 0.40829 0.0
O1312 O 0.71969 0.78328 0.43455 0.0
C1313 C 0.64504 0.79198 0.39096 0.0
O1314 O 0.64062 0.78836 0.41016 0.0
C1315 C 0.72149 0.82968 0.38951 0.0
Zn1316 Zn 0.15926 0.71446 0.43177 0.0
Zn1317 Zn 0.16939 0.68567 0.41002 0.0
O1318 O 0.16063 0.67192 0.43734 0.0
O1319 O 0.14228 0.69678 0.44984 0.0
O1320 O 0.17496 0.66257 0.39065 0.0
O1321 O 0.14596 0.73099 0.41009 0.0
O1322 O 0.14746 0.70184 0.3938 0.0
C1323 C 0.1482 0.67852 0.45071 0.0
C1324 C 0.20184 0.71339 0.42647 0.0
O1325 O 0.19677 0.70096 0.41244 0.0
O1326 O 0.18851 0.71987 0.43877 0.0
C1327 C 0.18103 0.64483 0.39532 0.0
O1328 O 0.18475 0.64041 0.4145 0.0
C1329 C 0.14109 0.72015 0.39496 0.0
Zn1330 Zn 0.81816 0.26018 0.43009 0.0
Zn1331 Zn 0.80612 0.28807 0.40796 0.0
O1332 O 0.81527 0.30263 0.43471 0.0
O1333 O 0.83486 0.27885 0.44738 0.0
O1334 O 0.79923 0.31071 0.38847 0.0
O1335 O 0.83151 0.2438 0.40835 0.0
O1336 O 0.82793 0.27225 0.39118 0.0
C1337 C 0.82824 0.29688 0.44794 0.0
C1338 C 0.77531 0.2595 0.42605 0.0
O1339 O 0.77939 0.27192 0.41168 0.0
O1340 O 0.78931 0.25372 0.43794 0.0
C1341 C 0.79361 0.32858 0.39325 0.0
O1342 O 0.79116 0.33332 0.41256 0.0
C1343 C 0.83518 0.2543 0.39265 0.0
C1344 C 0.10423 0.25091 0.34935 0.0
C1345 C 0.10161 0.2297 0.34791 0.0
H1346 H 0.1196 0.27558 0.36419 0.0
C1347 C 0.1135 0.21693 0.36019 0.0
H1348 H 0.09536 0.26113 0.33995 0.0
C1349 C 0.12713 0.22522 0.37426 0.0
C1350 C 0.12941 0.24643 0.37604 0.0
H1351 H 0.11181 0.20055 0.35941 0.0
H1352 H 0.13574 0.215 0.38391 0.0
C1353 C 0.11816 0.25919 0.36315 0.0
C1354 C 0.75044 0.12219 0.37884 0.0
C1355 C 0.72923 0.12421 0.38082 0.0
H1356 H 0.77511 0.10704 0.36386 0.0
C1357 C 0.71646 0.11254 0.36829 0.0
H1358 H 0.76066 0.13112 0.38822 0.0
C1359 C 0.72474 0.09851 0.35461 0.0
C1360 C 0.74595 0.09622 0.3529 0.0
H1361 H 0.70008 0.11378 0.36951 0.0
H1362 H 0.71452 0.08935 0.34545 0.0
C1363 C 0.75873 0.10848 0.36485 0.0
C1364 C 0.84928 0.74953 0.37593 0.0
C1365 C 0.84784 0.72832 0.37851 0.0
H1366 H 0.86429 0.77425 0.36076 0.0
C1367 C 0.8603 0.71558 0.36675 0.0
H1368 H 0.83975 0.75972 0.38471 0.0
C1369 C 0.87453 0.72392 0.35331 0.0
C1370 C 0.8763 0.74513 0.35108 0.0
H1371 H 0.85952 0.6992 0.36842 0.0
H1372 H 0.88431 0.71373 0.3448 0.0
C1373 C 0.86325 0.75786 0.36218 0.0
C1374 C 0.25072 0.87176 0.34928 0.0
C1375 C 0.22951 0.8739 0.34756 0.0
H1376 H 0.27546 0.85681 0.36433 0.0
C1377 C 0.21679 0.8615 0.35944 0.0
H1378 H 0.2609 0.88104 0.34018 0.0
C1379 C 0.22513 0.84789 0.37347 0.0
C1380 C 0.24635 0.84613 0.37558 0.0
H1381 H 0.2004 0.86283 0.35843 0.0
H1382 H 0.21496 0.83891 0.38287 0.0
C1383 C 0.25907 0.85785 0.36303 0.0
C1384 C 0.1168 0.71759 0.61536 0.0
C1385 C 0.12861 0.73038 0.60296 0.0
H1386 H 0.09345 0.71564 0.63804 0.0
C1387 C 0.12675 0.75159 0.60509 0.0
H1388 H 0.11791 0.7012 0.61402 0.0
C1389 C 0.11301 0.75987 0.61907 0.0
C1390 C 0.10058 0.74709 0.63084 0.0
H1391 H 0.13579 0.76182 0.59581 0.0
H1392 H 0.11166 0.77626 0.62015 0.0
C1393 C 0.10275 0.72587 0.62902 0.0
C1394 C 0.25877 0.11671 0.61502 0.0
C1395 C 0.24618 0.12836 0.60233 0.0
H1396 H 0.26036 0.09362 0.63797 0.0
C1397 C 0.22494 0.12656 0.60427 0.0
H1398 H 0.27518 0.11778 0.61384 0.0
C1399 C 0.21645 0.113 0.61831 0.0
C1400 C 0.22905 0.10068 0.63035 0.0
H1401 H 0.21487 0.13549 0.59476 0.0
H1402 H 0.20005 0.11165 0.61922 0.0
C1403 C 0.25028 0.10283 0.62875 0.0
C1404 C 0.86009 0.26023 0.61179 0.0
C1405 C 0.84781 0.24744 0.59987 0.0
H1406 H 0.88402 0.26216 0.63382 0.0
C1407 C 0.84944 0.22623 0.60225 0.0
H1408 H 0.85917 0.27662 0.61026 0.0
C1409 C 0.86341 0.21795 0.61597 0.0
C1410 C 0.87631 0.23073 0.62723 0.0
H1411 H 0.84004 0.21601 0.59333 0.0
H1412 H 0.86458 0.20156 0.61724 0.0
C1413 C 0.87436 0.25194 0.62519 0.0
C1414 C 0.72614 0.87753 0.62467 0.0
C1415 C 0.74735 0.87965 0.62665 0.0
H1416 H 0.7015 0.86257 0.60938 0.0
C1417 C 0.76015 0.86743 0.6147 0.0
H1418 H 0.7159 0.88667 0.6338 0.0
C1419 C 0.75189 0.85391 0.60049 0.0
C1420 C 0.73069 0.85204 0.59827 0.0
H1421 H 0.77653 0.86876 0.6159 0.0
H1422 H 0.76213 0.84498 0.59114 0.0
C1423 C 0.71789 0.86369 0.61076 0.0
C1424 C 0.35072 0.1016 0.25273 0.0
C1425 C 0.34862 0.09961 0.23147 0.0
H1426 H 0.36609 0.11647 0.2774 0.0
C1427 C 0.36035 0.11201 0.21861 0.0
H1428 H 0.34176 0.09231 0.26302 0.0
C1429 C 0.37452 0.12557 0.22686 0.0
C1430 C 0.3769 0.12728 0.24811 0.0
H1431 H 0.35905 0.11078 0.20219 0.0
H1432 H 0.38373 0.13462 0.21657 0.0
C1433 C 0.36458 0.11547 0.26098 0.0
C1434 C 0.86191 0.35648 0.21696 0.0
C1435 C 0.87381 0.34434 0.22987 0.0
H1436 H 0.83969 0.38013 0.21484 0.0
C1437 C 0.87121 0.34594 0.25111 0.0
H1438 H 0.86358 0.35558 0.20055 0.0
C1439 C 0.85731 0.35978 0.2593 0.0
C1440 C 0.84606 0.37253 0.24641 0.0
H1441 H 0.88009 0.33665 0.26143 0.0
H1442 H 0.8559 0.36096 0.27572 0.0
C1443 C 0.8483 0.37058 0.22516 0.0
C1444 C 0.62535 0.8767 0.25107 0.0
C1445 C 0.62706 0.87913 0.22981 0.0
H1446 H 0.61023 0.86152 0.27573 0.0
C1447 C 0.6149 0.86717 0.21694 0.0
H1448 H 0.63466 0.88564 0.26136 0.0
C1449 C 0.6007 0.85364 0.22519 0.0
C1450 C 0.5987 0.85151 0.24645 0.0
H1451 H 0.61589 0.86873 0.20052 0.0
H1452 H 0.59115 0.84496 0.2149 0.0
C1453 C 0.61145 0.86285 0.25931 0.0
C1454 C 0.11281 0.61504 0.21871 0.0
C1455 C 0.10009 0.6265 0.23146 0.0
H1456 H 0.13585 0.59214 0.21688 0.0
C1457 C 0.10202 0.62454 0.25274 0.0
H1458 H 0.11165 0.61625 0.20228 0.0
C1459 C 0.11609 0.61102 0.26112 0.0
C1460 C 0.12819 0.5989 0.24836 0.0
H1461 H 0.09249 0.63332 0.26294 0.0
H1462 H 0.117 0.60955 0.27755 0.0
C1463 C 0.12659 0.6012 0.22708 0.0
C1464 C 0.35092 0.87595 0.72685 0.0
C1465 C 0.34863 0.87774 0.7481 0.0
H1466 H 0.36621 0.86107 0.70215 0.0
C1467 C 0.35989 0.86492 0.76093 0.0
H1468 H 0.3423 0.88555 0.71658 0.0
C1469 C 0.37381 0.85115 0.75266 0.0
C1470 C 0.3764 0.84966 0.73141 0.0
H1471 H 0.35843 0.86598 0.77735 0.0
H1472 H 0.38268 0.84179 0.76293 0.0
C1473 C 0.36453 0.86189 0.71857 0.0
C1474 C 0.11617 0.36456 0.71695 0.0
C1475 C 0.12814 0.37678 0.72974 0.0
H1476 H 0.09261 0.34213 0.71505 0.0
C1477 C 0.12638 0.37455 0.75101 0.0
H1478 H 0.1172 0.36597 0.70052 0.0
C1479 C 0.11256 0.36068 0.75934 0.0
C1480 C 0.09995 0.34911 0.74655 0.0
H1481 H 0.13554 0.3837 0.76124 0.0
H1482 H 0.11126 0.35953 0.77578 0.0
C1483 C 0.10205 0.35099 0.72528 0.0
C1484 C 0.61071 0.11374 0.71884 0.0
C1485 C 0.59819 0.12526 0.73175 0.0
H1486 H 0.63363 0.09074 0.71673 0.0
C1487 C 0.6003 0.12321 0.753 0.0
H1488 H 0.60939 0.11501 0.70242 0.0
C1489 C 0.61439 0.1096 0.76119 0.0
C1490 C 0.62632 0.09748 0.74829 0.0
H1491 H 0.59093 0.13203 0.76331 0.0
H1492 H 0.61547 0.10812 0.77761 0.0
C1493 C 0.6245 0.09981 0.72704 0.0
C1494 C 0.87234 0.62821 0.72733 0.0
C1495 C 0.87471 0.62977 0.7486 0.0
H1496 H 0.85733 0.61316 0.70254 0.0
C1497 C 0.86274 0.61751 0.76137 0.0
H1498 H 0.8813 0.63759 0.71712 0.0
C1499 C 0.84929 0.60331 0.753 0.0
C1500 C 0.84727 0.6014 0.73173 0.0
H1501 H 0.86426 0.61838 0.77779 0.0
H1502 H 0.84062 0.59366 0.76321 0.0
C1503 C 0.85859 0.61429 0.71897 0.0
C1504 C 0.25131 0.35259 0.10094 0.0
C1505 C 0.2301 0.35093 0.09866 0.0
H1506 H 0.27605 0.36747 0.11618 0.0
C1507 C 0.21738 0.36295 0.11088 0.0
H1508 H 0.26149 0.34338 0.0918 0.0
C1509 C 0.22573 0.37696 0.12455 0.0
C1510 C 0.24694 0.37888 0.12657 0.0
H1511 H 0.20099 0.362 0.10943 0.0
H1512 H 0.21555 0.38639 0.13345 0.0
C1513 C 0.25966 0.36629 0.11494 0.0
C1514 C 0.25107 0.62455 0.87659 0.0
C1515 C 0.22986 0.6261 0.879 0.0
H1516 H 0.27577 0.60969 0.86133 0.0
C1517 C 0.21711 0.61393 0.86693 0.0
H1518 H 0.26126 0.63387 0.88562 0.0
C1519 C 0.22543 0.59987 0.85331 0.0
C1520 C 0.24664 0.59803 0.8512 0.0
H1521 H 0.20073 0.61479 0.86847 0.0
H1522 H 0.21523 0.59031 0.84454 0.0
C1523 C 0.25938 0.61079 0.86265 0.0
C1524 C 0.37412 0.22544 0.8532 0.0
C1525 C 0.37623 0.24665 0.85123 0.0
H1526 H 0.35898 0.20078 0.86831 0.0
C1527 C 0.36371 0.25945 0.86285 0.0
H1528 H 0.38349 0.2152 0.8443 0.0
C1529 C 0.34994 0.25118 0.87683 0.0
C1530 C 0.34815 0.22997 0.87912 0.0
H1531 H 0.36503 0.27584 0.86165 0.0
H1532 H 0.34083 0.26142 0.886 0.0
C1533 C 0.36004 0.21717 0.86686 0.0
C1534 C 0.71623 0.36099 0.85807 0.0
C1535 C 0.72893 0.37382 0.84664 0.0
H1536 H 0.71444 0.33777 0.88088 0.0
C1537 C 0.75015 0.37182 0.84845 0.0
H1538 H 0.69984 0.3622 0.85697 0.0
C1539 C 0.75853 0.35762 0.86188 0.0
C1540 C 0.74582 0.34546 0.87402 0.0
H1541 H 0.76032 0.38142 0.83968 0.0
H1542 H 0.77492 0.3567 0.86328 0.0
C1543 C 0.7246 0.34707 0.8718 0.0
C1544 C 0.61033 0.71612 0.85994 0.0
C1545 C 0.59867 0.7289 0.84744 0.0
H1546 H 0.63208 0.71419 0.8841 0.0
C1547 C 0.60117 0.75011 0.84901 0.0
H1548 H 0.60871 0.69974 0.85906 0.0
C1549 C 0.61481 0.75839 0.86312 0.0
C1550 C 0.62585 0.74562 0.87618 0.0
H1551 H 0.59246 0.76033 0.83946 0.0
H1552 H 0.61621 0.77478 0.86423 0.0
C1553 C 0.62363 0.72441 0.87432 0.0
C1554 C 0.75955 0.61939 0.11626 0.0
C1555 C 0.74686 0.63121 0.10381 0.0
H1556 H 0.7613 0.59609 0.13898 0.0
C1557 C 0.72564 0.62951 0.10601 0.0
H1558 H 0.77594 0.62039 0.11489 0.0
C1559 C 0.71725 0.61586 0.12002 0.0
C1560 C 0.72993 0.60336 0.13178 0.0
H1561 H 0.71549 0.63856 0.0967 0.0
H1562 H 0.70085 0.61457 0.1211 0.0
C1563 C 0.75115 0.60544 0.12997 0.0
C1564 C 0.35088 0.72564 0.10198 0.0
C1565 C 0.34919 0.74685 0.09964 0.0
H1566 H 0.36585 0.701 0.11721 0.0
C1567 C 0.36115 0.75967 0.11185 0.0
H1568 H 0.34172 0.7154 0.09285 0.0
C1569 C 0.37519 0.75142 0.12551 0.0
C1570 C 0.3772 0.7302 0.12753 0.0
H1571 H 0.36017 0.77605 0.11036 0.0
H1572 H 0.38462 0.76166 0.13437 0.0
C1573 C 0.36461 0.71739 0.11597 0.0
C1574 C 0.62414 0.25237 0.10399 0.0
C1575 C 0.62626 0.23116 0.10208 0.0
H1576 H 0.60895 0.27701 0.11897 0.0
C1577 C 0.61477 0.21836 0.11477 0.0
H1578 H 0.63293 0.26261 0.09449 0.0
C1579 C 0.6008 0.22661 0.12853 0.0
C1580 C 0.59839 0.24782 0.13015 0.0
H1581 H 0.61609 0.20197 0.11361 0.0
H1582 H 0.59176 0.21638 0.1378 0.0
C1583 C 0.61049 0.26063 0.11805 0.0
C1584 C 0.87444 0.72708 0.62934 0.0
C1585 C 0.8768 0.7483 0.63102 0.0
H1586 H 0.85918 0.7024 0.61439 0.0
C1587 C 0.8646 0.76107 0.61906 0.0
H1588 H 0.88356 0.71686 0.63851 0.0
C1589 C 0.8509 0.75278 0.60505 0.0
C1590 C 0.84886 0.73156 0.60305 0.0
H1591 H 0.8661 0.77746 0.62003 0.0
H1592 H 0.84205 0.763 0.59562 0.0
C1593 C 0.86044 0.71879 0.61563 0.0
C1594 C 0.21651 0.86584 0.61567 0.0
C1595 C 0.22923 0.8785 0.62726 0.0
H1596 H 0.21467 0.84285 0.59261 0.0
C1597 C 0.25045 0.87659 0.62527 0.0
H1598 H 0.20012 0.867 0.61689 0.0
C1599 C 0.25879 0.86255 0.61164 0.0
C1600 C 0.24607 0.85047 0.59946 0.0
H1601 H 0.26063 0.88607 0.63414 0.0
H1602 H 0.27518 0.86162 0.61021 0.0
C1603 C 0.22485 0.8521 0.60173 0.0
C1604 C 0.10151 0.25137 0.62547 0.0
C1605 C 0.09933 0.23015 0.62736 0.0
H1606 H 0.11672 0.27603 0.61043 0.0
C1607 C 0.11179 0.21735 0.61568 0.0
H1608 H 0.09218 0.2616 0.63441 0.0
C1609 C 0.12557 0.22563 0.60171 0.0
C1610 C 0.12744 0.24684 0.5995 0.0
H1611 H 0.11042 0.20097 0.61682 0.0
H1612 H 0.13464 0.21539 0.5925 0.0
C1613 C 0.1156 0.25964 0.61182 0.0
C1614 C 0.72516 0.1039 0.62976 0.0
C1615 C 0.7464 0.10193 0.63146 0.0
H1616 H 0.70029 0.11876 0.61484 0.0
C1617 C 0.75901 0.11449 0.61964 0.0
H1618 H 0.71507 0.0945 0.63882 0.0
C1619 C 0.75054 0.12812 0.60569 0.0
C1620 C 0.7293 0.12974 0.60362 0.0
H1621 H 0.77541 0.11329 0.62063 0.0
H1622 H 0.76063 0.13724 0.59633 0.0
C1623 C 0.71669 0.11784 0.61612 0.0
C1624 C 0.87254 0.25028 0.34895 0.0
C1625 C 0.87537 0.2291 0.34766 0.0
H1626 H 0.85729 0.27489 0.36398 0.0
C1627 C 0.86401 0.21629 0.36047 0.0
H1628 H 0.881 0.26052 0.33916 0.0
C1629 C 0.85072 0.22453 0.37487 0.0
C1630 C 0.84822 0.24573 0.37647 0.0
H1631 H 0.86589 0.19993 0.35983 0.0
H1632 H 0.84252 0.2143 0.38489 0.0
C1633 C 0.85893 0.25851 0.36309 0.0
C1634 C 0.72561 0.86942 0.34808 0.0
C1635 C 0.74682 0.87162 0.34623 0.0
H1636 H 0.70094 0.85412 0.36297 0.0
C1637 C 0.75959 0.85892 0.35765 0.0
H1638 H 0.71539 0.87892 0.33932 0.0
C1639 C 0.75131 0.84494 0.37141 0.0
C1640 C 0.7301 0.84314 0.37368 0.0
H1641 H 0.77598 0.86028 0.35653 0.0
H1642 H 0.76153 0.83573 0.38049 0.0
C1643 C 0.71733 0.85517 0.36154 0.0
C1644 C 0.11548 0.71585 0.3671 0.0
C1645 C 0.12753 0.72868 0.37921 0.0
H1646 H 0.0919 0.71383 0.34471 0.0
C1647 C 0.12584 0.74988 0.37683 0.0
H1648 H 0.11646 0.69946 0.36862 0.0
C1649 C 0.11204 0.75812 0.36291 0.0
C1650 C 0.09937 0.74529 0.35144 0.0
H1651 H 0.13507 0.76014 0.38588 0.0
H1652 H 0.11081 0.7745 0.36164 0.0
C1653 C 0.10138 0.72408 0.35349 0.0
C1654 C 0.21735 0.10997 0.36437 0.0
C1655 C 0.23007 0.09746 0.35265 0.0
H1656 H 0.21552 0.13299 0.38738 0.0
C1657 C 0.25129 0.09964 0.35441 0.0
H1658 H 0.20096 0.1086 0.36333 0.0
C1659 C 0.25963 0.11383 0.3679 0.0
C1660 C 0.24691 0.12578 0.38019 0.0
H1661 H 0.26147 0.09028 0.34543 0.0
H1662 H 0.27602 0.11498 0.36915 0.0
C1663 C 0.22569 0.12385 0.37817 0.0
C1664 C 0.61785 0.86145 0.76031 0.0
C1665 C 0.62894 0.87452 0.74754 0.0
H1666 H 0.59534 0.83795 0.7622 0.0
C1667 C 0.62673 0.87276 0.72627 0.0
H1668 H 0.61926 0.86247 0.77674 0.0
C1669 C 0.6133 0.85854 0.71793 0.0
C1670 C 0.60155 0.84607 0.73072 0.0
H1671 H 0.63523 0.88255 0.71605 0.0
H1672 H 0.61164 0.85779 0.70151 0.0
C1673 C 0.60412 0.84749 0.75197 0.0
C1674 C 0.11442 0.61154 0.71862 0.0
C1675 C 0.12587 0.59885 0.73141 0.0
H1676 H 0.09149 0.63454 0.71671 0.0
C1677 C 0.12375 0.60072 0.75268 0.0
H1678 H 0.11575 0.6104 0.70219 0.0
C1679 C 0.11014 0.61475 0.76101 0.0
C1680 C 0.09809 0.62686 0.74821 0.0
H1681 H 0.1325 0.59121 0.76291 0.0
H1682 H 0.1086 0.61565 0.77743 0.0
C1683 C 0.1005 0.62527 0.72695 0.0
C1684 C 0.35925 0.11174 0.76176 0.0
C1685 C 0.3472 0.09957 0.74898 0.0
H1686 H 0.38292 0.13405 0.76363 0.0
C1687 C 0.34897 0.10177 0.72771 0.0
H1688 H 0.35821 0.11035 0.77819 0.0
C1689 C 0.36285 0.11557 0.71936 0.0
C1690 C 0.37552 0.12709 0.73213 0.0
H1691 H 0.33975 0.09266 0.71749 0.0
H1692 H 0.36414 0.1167 0.70293 0.0
C1693 C 0.37343 0.12522 0.75341 0.0
C1694 C 0.87506 0.3529 0.72522 0.0
C1695 C 0.87709 0.35082 0.74648 0.0
H1696 H 0.85989 0.36795 0.70057 0.0
C1697 C 0.86439 0.36218 0.75935 0.0
H1698 H 0.88456 0.3442 0.71493 0.0
C1699 C 0.85053 0.37601 0.75112 0.0
C1700 C 0.8488 0.37841 0.72987 0.0
H1701 H 0.86564 0.36089 0.77578 0.0
H1702 H 0.84128 0.38498 0.76142 0.0
C1703 C 0.86089 0.36641 0.71699 0.0
C1704 C 0.61739 0.11495 0.21898 0.0
C1705 C 0.62871 0.10218 0.2318 0.0
H1706 H 0.59458 0.13806 0.217 0.0
C1707 C 0.62656 0.1041 0.25306 0.0
H1708 H 0.61873 0.11379 0.20255 0.0
C1709 C 0.61301 0.1182 0.26135 0.0
C1710 C 0.60104 0.13036 0.24852 0.0
H1711 H 0.63523 0.09453 0.26332 0.0
H1712 H 0.61141 0.1191 0.27777 0.0
C1713 C 0.60352 0.12876 0.22726 0.0
C1714 C 0.87619 0.62284 0.25243 0.0
C1715 C 0.87807 0.62512 0.23117 0.0
H1716 H 0.86124 0.6075 0.27708 0.0
C1717 C 0.86533 0.61377 0.21831 0.0
H1718 H 0.88574 0.63152 0.26272 0.0
C1719 C 0.85156 0.59978 0.22653 0.0
C1720 C 0.84998 0.5972 0.24778 0.0
H1721 H 0.86646 0.61521 0.20189 0.0
H1722 H 0.84226 0.59085 0.21624 0.0
C1723 C 0.86213 0.60916 0.26066 0.0
C1724 C 0.34942 0.8753 0.25113 0.0
C1725 C 0.34772 0.87754 0.22985 0.0
H1726 H 0.36451 0.86035 0.27591 0.0
C1727 C 0.35979 0.86543 0.21707 0.0
H1728 H 0.34018 0.88436 0.26135 0.0
C1729 C 0.37393 0.85196 0.22542 0.0
C1730 C 0.37595 0.85004 0.24669 0.0
H1731 H 0.3588 0.86684 0.20064 0.0
H1732 H 0.38343 0.84317 0.2152 0.0
C1733 C 0.36326 0.86151 0.25947 0.0
C1734 C 0.12437 0.37393 0.22643 0.0
C1735 C 0.1267 0.3758 0.24767 0.0
H1736 H 0.10925 0.35873 0.20183 0.0
C1737 C 0.11569 0.36278 0.26057 0.0
H1738 H 0.13279 0.38368 0.21611 0.0
C1739 C 0.10197 0.34873 0.25239 0.0
C1740 C 0.09933 0.34715 0.23115 0.0
H1741 H 0.11719 0.3639 0.27699 0.0
H1742 H 0.09328 0.3392 0.2627 0.0
C1743 C 0.11096 0.3596 0.21824 0.0
C1744 C 0.72491 0.6229 0.87819 0.0
C1745 C 0.74611 0.62489 0.88032 0.0
H1746 H 0.70029 0.6078 0.86302 0.0
C1747 C 0.75893 0.6132 0.86787 0.0
H1748 H 0.71466 0.63185 0.8875 0.0
C1749 C 0.75069 0.59919 0.85413 0.0
C1750 C 0.72949 0.59695 0.85226 0.0
H1751 H 0.77531 0.61441 0.86921 0.0
H1752 H 0.76093 0.59 0.84504 0.0
C1753 C 0.71667 0.60922 0.86413 0.0
C1754 C 0.72408 0.35457 0.09977 0.0
C1755 C 0.74528 0.35261 0.09769 0.0
H1756 H 0.69945 0.36957 0.11498 0.0
C1757 C 0.75809 0.36426 0.11021 0.0
H1758 H 0.71383 0.34566 0.0904 0.0
C1759 C 0.74984 0.37818 0.12402 0.0
C1760 C 0.72863 0.38038 0.12587 0.0
H1761 H 0.77447 0.36306 0.10891 0.0
H1762 H 0.76008 0.38731 0.13319 0.0
C1763 C 0.71583 0.36818 0.11389 0.0
C1764 C 0.61578 0.76009 0.11202 0.0
C1765 C 0.62808 0.74732 0.10012 0.0
H1766 H 0.59187 0.76198 0.13408 0.0
C1767 C 0.62651 0.72611 0.10259 0.0
H1768 H 0.61666 0.77647 0.11042 0.0
C1769 C 0.61256 0.7178 0.11637 0.0
C1770 C 0.59964 0.73056 0.1276 0.0
H1771 H 0.63592 0.71591 0.0937 0.0
H1772 H 0.61142 0.70141 0.11771 0.0
C1773 C 0.60154 0.75178 0.12547 0.0
C1774 C 0.22627 0.60275 0.12922 0.0
C1775 C 0.24749 0.60075 0.13104 0.0
H1776 H 0.2015 0.6176 0.11412 0.0
C1777 C 0.26018 0.61325 0.11925 0.0
H1778 H 0.21611 0.59339 0.13826 0.0
C1779 C 0.25181 0.62685 0.1052 0.0
C1780 C 0.23059 0.62849 0.10302 0.0
H1781 H 0.27658 0.61203 0.12033 0.0
H1782 H 0.26197 0.63592 0.09588 0.0
C1783 C 0.21789 0.61665 0.11549 0.0
C1784 C 0.35794 0.21786 0.11514 0.0
C1785 C 0.34625 0.23063 0.10267 0.0
H1786 H 0.38121 0.21593 0.13786 0.0
C1787 C 0.34821 0.25185 0.10475 0.0
H1788 H 0.35675 0.20147 0.11385 0.0
C1789 C 0.36195 0.26015 0.11871 0.0
C1790 C 0.37429 0.24737 0.13054 0.0
H1791 H 0.33926 0.26207 0.09541 0.0
H1792 H 0.36341 0.27654 0.11974 0.0
C1793 C 0.37199 0.22615 0.1288 0.0
C1794 C 0.25954 0.36337 0.85904 0.0
C1795 C 0.2469 0.37589 0.84726 0.0
H1796 H 0.26122 0.34067 0.88236 0.0
C1797 C 0.22566 0.37386 0.84905 0.0
H1798 H 0.27594 0.36462 0.85796 0.0
C1799 C 0.21723 0.35993 0.86276 0.0
C1800 C 0.22987 0.34808 0.87521 0.0
H1801 H 0.21555 0.38323 0.84003 0.0
H1802 H 0.20083 0.35897 0.86411 0.0
C1803 C 0.2511 0.34974 0.87304 0.0
C1804 C 0.61488 0.2168 0.86706 0.0
C1805 C 0.62708 0.22957 0.87909 0.0
H1806 H 0.59116 0.2149 0.84482 0.0
C1807 C 0.62548 0.25078 0.87674 0.0
H1808 H 0.61579 0.20042 0.86856 0.0
C1809 C 0.61163 0.25909 0.8629 0.0
C1810 C 0.59884 0.24633 0.8515 0.0
H1811 H 0.63482 0.26099 0.88573 0.0
H1812 H 0.61048 0.27548 0.86163 0.0
C1813 C 0.60074 0.22511 0.85355 0.0
C1814 C 0.35882 0.75876 0.86346 0.0
C1815 C 0.34702 0.74597 0.87587 0.0
H1816 H 0.38216 0.76073 0.84078 0.0
C1817 C 0.34892 0.72475 0.87375 0.0
H1818 H 0.35769 0.77515 0.86479 0.0
C1819 C 0.36267 0.71648 0.85979 0.0
C1820 C 0.37509 0.72928 0.84801 0.0
H1821 H 0.3399 0.71452 0.88304 0.0
H1822 H 0.36405 0.70009 0.85872 0.0
C1823 C 0.37288 0.75049 0.84981 0.0
C1824 C 0.0363 0.22796 0.24495 0.0
C1825 C 0.05484 0.22073 0.25266 0.0
H1826 H 0.02168 0.2497 0.22576 0.0
C1827 C 0.07307 0.22651 0.24305 0.0
H1828 H 0.02203 0.22352 0.25194 0.0
C1829 C 0.07287 0.24162 0.22795 0.0
C1830 C 0.05444 0.25094 0.22246 0.0
H1831 H 0.08756 0.22114 0.24877 0.0
H1832 H 0.08721 0.24755 0.22236 0.0
C1833 C 0.03611 0.24294 0.22997 0.0
C1834 C 0.74309 0.03271 0.25015 0.0
C1835 C 0.75207 0.05073 0.25732 0.0
H1836 H 0.72033 0.01949 0.23108 0.0
C1837 C 0.74796 0.06914 0.24722 0.0
H1838 H 0.74625 0.01827 0.25745 0.0
C1839 C 0.73301 0.06984 0.23199 0.0
C1840 C 0.72213 0.05214 0.22683 0.0
H1841 H 0.75472 0.08325 0.25246 0.0
H1842 H 0.72859 0.08447 0.22583 0.0
C1843 C 0.72825 0.03342 0.23504 0.0
C1844 C 0.94542 0.72484 0.23729 0.0
C1845 C 0.92725 0.71894 0.2277 0.0
H1846 H 0.95921 0.74286 0.26058 0.0
C1847 C 0.90942 0.7301 0.23152 0.0
H1848 H 0.95947 0.71674 0.23437 0.0
C1849 C 0.90928 0.74518 0.24664 0.0
C1850 C 0.92696 0.74916 0.25802 0.0
H1851 H 0.89522 0.72589 0.22428 0.0
H1852 H 0.89496 0.75223 0.25071 0.0
C1853 C 0.94527 0.7398 0.2523 0.0
C1854 C 0.22761 0.90621 0.24323 0.0
C1855 C 0.22292 0.92405 0.25408 0.0
H1856 H 0.24757 0.89232 0.2214 0.0
C1857 C 0.23141 0.9426 0.24772 0.0
H1858 H 0.22123 0.89171 0.24784 0.0
C1859 C 0.24637 0.94295 0.2327 0.0
C1860 C 0.25311 0.92475 0.22379 0.0
H1861 H 0.22781 0.95663 0.25561 0.0
H1862 H 0.25392 0.95724 0.22938 0.0
C1863 C 0.24268 0.90656 0.22811 0.0
C1864 C 0.07027 0.73226 0.75068 0.0
C1865 C 0.05202 0.72213 0.75541 0.0
H1866 H 0.08495 0.75363 0.73071 0.0
C1867 C 0.03372 0.72929 0.74708 0.0
H1868 H 0.08458 0.72702 0.75691 0.0
C1869 C 0.03393 0.74438 0.7322 0.0
C1870 C 0.05244 0.7526 0.7254 0.0
H1871 H 0.0194 0.72195 0.75073 0.0
H1872 H 0.01977 0.7483 0.72473 0.0
C1873 C 0.07048 0.74748 0.73568 0.0
C1874 C 0.24226 0.06942 0.75022 0.0
C1875 C 0.25286 0.05138 0.75459 0.0
H1876 H 0.22067 0.08393 0.73048 0.0
C1877 C 0.24633 0.03308 0.74569 0.0
H1878 H 0.24698 0.08374 0.75692 0.0
C1879 C 0.23138 0.03319 0.73068 0.0
C1880 C 0.22269 0.0516 0.72429 0.0
H1881 H 0.25402 0.01889 0.74906 0.0
H1882 H 0.22791 0.01908 0.72284 0.0
C1883 C 0.2272 0.06953 0.73509 0.0
C1884 C 0.90894 0.2461 0.74662 0.0
C1885 C 0.92672 0.2574 0.75038 0.0
H1886 H 0.89461 0.22375 0.72754 0.0
C1887 C 0.94494 0.25156 0.74089 0.0
H1888 H 0.8947 0.25026 0.7538 0.0
C1889 C 0.94489 0.23649 0.72597 0.0
C1890 C 0.92663 0.22699 0.72027 0.0
H1891 H 0.95895 0.25978 0.74378 0.0
H1892 H 0.95887 0.23348 0.71775 0.0
C1893 C 0.9089 0.23092 0.73159 0.0
C1894 C 0.73298 0.90736 0.74777 0.0
C1895 C 0.72198 0.92507 0.75251 0.0
H1896 H 0.75489 0.89371 0.72772 0.0
C1897 C 0.72801 0.94366 0.74387 0.0
H1898 H 0.72863 0.89283 0.75426 0.0
C1899 C 0.74292 0.94417 0.7288 0.0
C1900 C 0.75206 0.92608 0.72209 0.0
H1901 H 0.72 0.9576 0.74751 0.0
H1902 H 0.74604 0.95848 0.72121 0.0
C1903 C 0.748 0.90787 0.73258 0.0
C1904 C 0.22853 0.06878 0.24728 0.0
C1905 C 0.22413 0.05059 0.25768 0.0
H1906 H 0.24815 0.08354 0.22564 0.0
C1907 C 0.23288 0.03236 0.25083 0.0
H1908 H 0.22196 0.08304 0.25227 0.0
C1909 C 0.24776 0.03264 0.23573 0.0
C1910 C 0.25415 0.05116 0.22719 0.0
H1911 H 0.2295 0.01807 0.25837 0.0
H1912 H 0.25547 0.01857 0.23199 0.0
C1913 C 0.24352 0.06906 0.23205 0.0
C1914 C 0.93887 0.24151 0.22813 0.0
C1915 C 0.92037 0.24928 0.2209 0.0
H1916 H 0.95344 0.22249 0.25009 0.0
C1917 C 0.90209 0.23986 0.22684 0.0
H1918 H 0.95318 0.24837 0.22358 0.0
C1919 C 0.90224 0.22494 0.24213 0.0
C1920 C 0.92067 0.21944 0.25147 0.0
H1921 H 0.88762 0.24563 0.22148 0.0
H1922 H 0.88788 0.21954 0.24819 0.0
C1923 C 0.93902 0.22671 0.24331 0.0
C1924 C 0.74442 0.94261 0.24798 0.0
C1925 C 0.75275 0.92387 0.25389 0.0
H1926 H 0.72194 0.95779 0.23014 0.0
C1927 C 0.74777 0.90628 0.24275 0.0
H1928 H 0.74825 0.95645 0.25612 0.0
C1929 C 0.73258 0.90705 0.22777 0.0
C1930 C 0.72233 0.9254 0.2239 0.0
H1931 H 0.75402 0.89165 0.24701 0.0
H1932 H 0.72748 0.89298 0.22083 0.0
C1933 C 0.72934 0.94337 0.23311 0.0
C1934 C 0.06801 0.73085 0.23127 0.0
C1935 C 0.05025 0.71964 0.22713 0.0
H1936 H 0.08214 0.75291 0.25083 0.0
C1937 C 0.03192 0.72543 0.23644 0.0
H1938 H 0.08233 0.72672 0.22425 0.0
C1939 C 0.03181 0.74031 0.25155 0.0
C1940 C 0.05003 0.74968 0.25762 0.0
H1941 H 0.01793 0.71729 0.23326 0.0
H1942 H 0.01774 0.74325 0.25964 0.0
C1943 C 0.06789 0.74584 0.24648 0.0
C1944 C 0.22885 0.9089 0.73254 0.0
C1945 C 0.22481 0.92684 0.72161 0.0
H1946 H 0.24813 0.89444 0.7546 0.0
C1947 C 0.234 0.9451 0.72785 0.0
H1948 H 0.22192 0.89462 0.72805 0.0
C1949 C 0.24888 0.945 0.74293 0.0
C1950 C 0.25486 0.92664 0.75205 0.0
H1951 H 0.23089 0.95923 0.71992 0.0
H1952 H 0.25687 0.95905 0.74624 0.0
C1953 C 0.24385 0.9088 0.74773 0.0
C1954 C 0.06764 0.22963 0.73219 0.0
C1955 C 0.04978 0.22559 0.72112 0.0
H1956 H 0.08203 0.24901 0.75425 0.0
C1957 C 0.03152 0.23484 0.72718 0.0
H1958 H 0.08191 0.22265 0.72784 0.0
C1959 C 0.03159 0.24982 0.74219 0.0
C1960 C 0.04991 0.25581 0.75141 0.0
H1961 H 0.01746 0.23174 0.71914 0.0
H1962 H 0.01757 0.25788 0.74534 0.0
C1963 C 0.0677 0.24471 0.74731 0.0
C1964 C 0.72873 0.03318 0.74605 0.0
C1965 C 0.72169 0.05135 0.75479 0.0
H1966 H 0.74779 0.01959 0.7235 0.0
C1967 C 0.73201 0.06962 0.75056 0.0
H1968 H 0.72126 0.01884 0.74931 0.0
C1969 C 0.74732 0.07006 0.73567 0.0
C1970 C 0.75234 0.05222 0.72497 0.0
H1971 H 0.72688 0.08384 0.75715 0.0
H1972 H 0.75362 0.0846 0.73111 0.0
C1973 C 0.74393 0.03361 0.73127 0.0
C1974 C 0.94206 0.73086 0.74754 0.0
C1975 C 0.92352 0.7241 0.75573 0.0
H1976 H 0.95667 0.74958 0.72531 0.0
C1977 C 0.90557 0.73463 0.75089 0.0
H1978 H 0.95616 0.7232 0.75127 0.0
C1979 C 0.90586 0.74986 0.73591 0.0
C1980 C 0.9241 0.75457 0.72574 0.0
H1981 H 0.89107 0.72971 0.75703 0.0
H1982 H 0.89158 0.75631 0.73084 0.0
C1983 C 0.94235 0.74597 0.73268 0.0
C1984 C 0.22714 0.24551 0.07042 0.0
C1985 C 0.22294 0.25581 0.05211 0.0
H1986 H 0.24652 0.22393 0.08541 0.0
C1987 C 0.23168 0.24878 0.0339 0.0
H1988 H 0.22056 0.25063 0.08467 0.0
C1989 C 0.24642 0.23362 0.03432 0.0
C1990 C 0.25268 0.22522 0.05296 0.0
H1991 H 0.22844 0.25624 0.01952 0.0
H1992 H 0.25419 0.22977 0.02026 0.0
C1993 C 0.24199 0.23023 0.07084 0.0
C1994 C 0.23155 0.72814 0.94399 0.0
C1995 C 0.22295 0.7211 0.92571 0.0
H1996 H 0.25413 0.74702 0.95779 0.0
C1997 C 0.22745 0.73131 0.90741 0.0
H1998 H 0.22809 0.72074 0.95835 0.0
C1999 C 0.24247 0.74649 0.90709 0.0
C2000 C 0.25302 0.75148 0.92506 0.0
H2001 H 0.22099 0.72618 0.89311 0.0
H2002 H 0.24723 0.75271 0.89255 0.0
C2003 C 0.24646 0.74318 0.94367 0.0
C2004 C 0.22823 0.24401 0.90826 0.0
C2005 C 0.22368 0.25511 0.92601 0.0
H2006 H 0.24801 0.22197 0.89451 0.0
C2007 C 0.2323 0.24906 0.94463 0.0
H2008 H 0.22175 0.24836 0.89372 0.0
C2009 C 0.24721 0.23407 0.94508 0.0
C2010 C 0.25378 0.22486 0.92693 0.0
H2011 H 0.22879 0.25714 0.95861 0.0
H2012 H 0.25483 0.23096 0.9594 0.0
C2013 C 0.24326 0.22891 0.90872 0.0
C2014 C 0.73242 0.22648 0.90698 0.0
C2015 C 0.7223 0.22216 0.92537 0.0
H2016 H 0.75375 0.2461 0.89183 0.0
C2017 C 0.7295 0.23083 0.94355 0.0
H2018 H 0.72717 0.21995 0.89275 0.0
C2019 C 0.74461 0.24568 0.94302 0.0
C2020 C 0.75276 0.25211 0.92431 0.0
H2021 H 0.72218 0.2275 0.95798 0.0
H2022 H 0.74855 0.25344 0.95707 0.0
C2023 C 0.74764 0.24144 0.90645 0.0
C2024 C 0.72466 0.74043 0.9454 0.0
C2025 C 0.71892 0.74936 0.92683 0.0
H2026 H 0.74267 0.71781 0.96014 0.0
C2027 C 0.73026 0.74505 0.90917 0.0
H2028 H 0.71641 0.74374 0.95931 0.0
C2029 C 0.74541 0.73007 0.90964 0.0
C2030 C 0.74929 0.71935 0.92778 0.0
H2031 H 0.72615 0.75178 0.89467 0.0
H2032 H 0.75263 0.72559 0.89548 0.0
C2033 C 0.73971 0.72558 0.94587 0.0
C2034 C 0.74836 0.73512 0.07119 0.0
C2035 C 0.75322 0.72431 0.05334 0.0
H2036 H 0.72813 0.7567 0.08502 0.0
C2037 C 0.74476 0.73053 0.03471 0.0
H2038 H 0.75471 0.73063 0.08575 0.0
C2039 C 0.72966 0.74533 0.0343 0.0
C2040 C 0.72276 0.75418 0.05251 0.0
H2041 H 0.7485 0.72266 0.02068 0.0
H2042 H 0.72213 0.74852 0.01995 0.0
C2043 C 0.73315 0.75004 0.07077 0.0
C2044 C 0.22926 0.73263 0.0704 0.0
C2045 C 0.2247 0.72163 0.05259 0.0
H2046 H 0.24908 0.75462 0.08427 0.0
C2047 C 0.23334 0.7278 0.034 0.0
H2048 H 0.22276 0.72819 0.08492 0.0
C2049 C 0.24829 0.74281 0.03363 0.0
C2050 C 0.25486 0.75192 0.05183 0.0
H2051 H 0.22982 0.71979 0.01998 0.0
H2052 H 0.25592 0.74601 0.01932 0.0
C2053 C 0.24432 0.74776 0.07002 0.0
C2054 C 0.73089 0.23195 0.07011 0.0
C2055 C 0.71997 0.22712 0.05233 0.0
H2056 H 0.75274 0.25205 0.08382 0.0
C2057 C 0.72607 0.23568 0.03368 0.0
H2058 H 0.72649 0.22553 0.08468 0.0
C2059 C 0.74098 0.25072 0.03319 0.0
C2060 C 0.75005 0.25751 0.05133 0.0
H2061 H 0.71813 0.23196 0.01968 0.0
H2062 H 0.74416 0.25823 0.01882 0.0
C2063 C 0.74591 0.24712 0.06962 0.0
C2064 C 0.57251 0.74129 0.72677 0.0
C2065 C 0.55433 0.75103 0.72118 0.0
H2066 H 0.58657 0.72035 0.74755 0.0
C2067 C 0.53577 0.74338 0.72848 0.0
H2068 H 0.58702 0.74694 0.72134 0.0
C2069 C 0.53551 0.72829 0.74336 0.0
C2070 C 0.55381 0.72061 0.75118 0.0
H2071 H 0.52153 0.75047 0.72418 0.0
H2072 H 0.52107 0.72409 0.75017 0.0
C2073 C 0.57225 0.72607 0.74177 0.0
C2074 C 0.22587 0.5316 0.73607 0.0
C2075 C 0.21983 0.54998 0.72702 0.0
H2076 H 0.24415 0.51732 0.75881 0.0
C2077 C 0.23095 0.56779 0.73118 0.0
H2078 H 0.21779 0.51758 0.73286 0.0
C2079 C 0.24616 0.56765 0.74617 0.0
C2080 C 0.25031 0.54969 0.75704 0.0
H2081 H 0.22662 0.58215 0.72436 0.0
H2082 H 0.25319 0.58191 0.75055 0.0
C2083 C 0.24097 0.53146 0.75093 0.0
C2084 C 0.44395 0.22626 0.73665 0.0
C2085 C 0.42564 0.22033 0.72738 0.0
H2086 H 0.45808 0.24438 0.75967 0.0
C2087 C 0.40788 0.23153 0.73137 0.0
H2088 H 0.45794 0.21812 0.73359 0.0
C2089 C 0.40796 0.24668 0.74642 0.0
C2090 C 0.4258 0.25068 0.75754 0.0
H2091 H 0.39357 0.22728 0.72437 0.0
H2092 H 0.39371 0.25375 0.75067 0.0
C2093 C 0.44403 0.2413 0.75159 0.0
C2094 C 0.72815 0.40725 0.743 0.0
C2095 C 0.72346 0.42497 0.75403 0.0
H2096 H 0.74828 0.39349 0.72122 0.0
C2097 C 0.73224 0.44353 0.74808 0.0
H2098 H 0.72156 0.39274 0.74728 0.0
C2099 C 0.74742 0.44395 0.73329 0.0
C2100 C 0.7541 0.42583 0.72418 0.0
H2101 H 0.72864 0.45748 0.75611 0.0
H2102 H 0.75514 0.45823 0.73028 0.0
C2103 C 0.74345 0.40767 0.7281 0.0
C2104 C 0.53436 0.23195 0.24788 0.0
C2105 C 0.55293 0.22492 0.2557 0.0
H2106 H 0.51969 0.2508 0.22586 0.0
C2107 C 0.57097 0.23518 0.25047 0.0
H2108 H 0.5202 0.22449 0.25191 0.0
C2109 C 0.57068 0.25035 0.23543 0.0
C2110 C 0.55234 0.25529 0.22561 0.0
H2111 H 0.58549 0.23003 0.2563 0.0
H2112 H 0.58498 0.25654 0.23001 0.0
C2113 C 0.53407 0.24702 0.23298 0.0
C2114 C 0.74456 0.56976 0.25068 0.0
C2115 C 0.75458 0.55134 0.25478 0.0
H2116 H 0.72317 0.58511 0.23134 0.0
C2117 C 0.74723 0.5333 0.24599 0.0
H2118 H 0.74994 0.58387 0.2573 0.0
C2119 C 0.73203 0.534 0.23125 0.0
C2120 C 0.72392 0.55274 0.22505 0.0
H2121 H 0.75448 0.51885 0.24915 0.0
H2122 H 0.72794 0.52007 0.2234 0.0
C2123 C 0.72924 0.57046 0.23582 0.0
C2124 C 0.40856 0.73043 0.23237 0.0
C2125 C 0.42643 0.72648 0.22128 0.0
H2126 H 0.39409 0.74981 0.25435 0.0
C2127 C 0.44462 0.73599 0.2272 0.0
H2128 H 0.39433 0.72325 0.22814 0.0
C2129 C 0.44449 0.75108 0.24208 0.0
C2130 C 0.42615 0.75694 0.25134 0.0
H2131 H 0.4587 0.73296 0.21914 0.0
H2132 H 0.45846 0.75931 0.24513 0.0
C2133 C 0.40842 0.74563 0.24737 0.0
C2134 C 0.24643 0.40883 0.2319 0.0
C2135 C 0.25037 0.42681 0.22096 0.0
H2136 H 0.22712 0.39413 0.25384 0.0
C2137 C 0.24085 0.44493 0.22704 0.0
H2138 H 0.25362 0.39466 0.22755 0.0
C2139 C 0.22579 0.44462 0.24196 0.0
C2140 C 0.21998 0.42619 0.25111 0.0
H2141 H 0.24386 0.45909 0.21911 0.0
H2142 H 0.21757 0.45854 0.24515 0.0
C2143 C 0.23127 0.40853 0.24695 0.0
C2144 C 0.72815 0.5685 0.74648 0.0
C2145 C 0.72402 0.55031 0.75699 0.0
H2146 H 0.74756 0.58344 0.72479 0.0
C2147 C 0.73307 0.53217 0.75027 0.0
H2148 H 0.72133 0.58268 0.75135 0.0
C2149 C 0.74797 0.53261 0.73519 0.0
C2150 C 0.75408 0.55117 0.72655 0.0
H2151 H 0.7299 0.51788 0.75788 0.0
H2152 H 0.75592 0.51863 0.73156 0.0
C2153 C 0.74315 0.56893 0.73128 0.0
C2154 C 0.40486 0.74436 0.72845 0.0
C2155 C 0.42306 0.75454 0.72366 0.0
H2156 H 0.39033 0.72285 0.74837 0.0
C2157 C 0.44144 0.74731 0.73176 0.0
H2158 H 0.39049 0.74966 0.72238 0.0
C2159 C 0.44135 0.73209 0.74651 0.0
C2160 C 0.42289 0.72385 0.75342 0.0
H2161 H 0.45572 0.75469 0.72807 0.0
H2162 H 0.45557 0.72812 0.75384 0.0
C2163 C 0.40477 0.72902 0.74332 0.0
C2164 C 0.24827 0.40749 0.74283 0.0
C2165 C 0.25277 0.4254 0.75367 0.0
H2166 H 0.22837 0.39326 0.72114 0.0
C2167 C 0.24388 0.44378 0.74747 0.0
H2168 H 0.25496 0.39312 0.74729 0.0
C2169 C 0.22876 0.44386 0.73263 0.0
C2170 C 0.22228 0.42556 0.7237 0.0
H2171 H 0.24733 0.45787 0.75535 0.0
H2172 H 0.22094 0.45801 0.72942 0.0
C2173 C 0.23305 0.40757 0.72786 0.0
C2174 C 0.56692 0.24557 0.7469 0.0
C2175 C 0.54913 0.24964 0.75807 0.0
H2176 H 0.58117 0.22609 0.72484 0.0
C2177 C 0.53086 0.2402 0.75228 0.0
H2178 H 0.58121 0.25269 0.75103 0.0
C2179 C 0.53084 0.22509 0.73741 0.0
C2180 C 0.54909 0.21913 0.72804 0.0
H2181 H 0.51684 0.24331 0.7604 0.0
H2182 H 0.51681 0.21694 0.73444 0.0
C2183 C 0.5669 0.23035 0.73191 0.0
C2184 C 0.74694 0.44246 0.24388 0.0
C2185 C 0.75304 0.42368 0.25197 0.0
H2186 H 0.7288 0.45777 0.2217 0.0
C2187 C 0.74202 0.40605 0.24687 0.0
H2188 H 0.75498 0.45633 0.24781 0.0
C2189 C 0.72693 0.40688 0.23179 0.0
C2190 C 0.72283 0.42533 0.22177 0.0
H2191 H 0.74644 0.39138 0.25294 0.0
H2192 H 0.72007 0.39281 0.22657 0.0
C2193 C 0.73195 0.44329 0.22893 0.0
C2194 C 0.56678 0.74656 0.24685 0.0
C2195 C 0.54901 0.75787 0.25048 0.0
H2196 H 0.58115 0.72408 0.228 0.0
C2197 C 0.53083 0.75194 0.24096 0.0
H2198 H 0.581 0.75079 0.25406 0.0
C2199 C 0.53091 0.73676 0.22616 0.0
C2200 C 0.54918 0.72722 0.2206 0.0
H2201 H 0.51682 0.76016 0.24375 0.0
H2202 H 0.51696 0.73366 0.21792 0.0
C2203 C 0.56687 0.73127 0.23194 0.0
C2204 C 0.24412 0.5327 0.23082 0.0
C2205 C 0.25296 0.55116 0.22466 0.0
H2206 H 0.22119 0.51828 0.24882 0.0
C2207 C 0.24836 0.56902 0.23552 0.0
H2208 H 0.24765 0.51865 0.22293 0.0
C2209 C 0.23309 0.5688 0.25046 0.0
C2210 C 0.22238 0.55074 0.25458 0.0
H2211 H 0.255 0.58345 0.23108 0.0
H2212 H 0.22833 0.58308 0.25719 0.0
C2213 C 0.22897 0.53249 0.24565 0.0
C2214 C 0.44233 0.22913 0.24559 0.0
C2215 C 0.42408 0.22218 0.25427 0.0
H2216 H 0.45615 0.24809 0.22306 0.0
C2217 C 0.4059 0.23253 0.24993 0.0
H2218 H 0.4566 0.22162 0.24894 0.0
C2219 C 0.40564 0.2478 0.23499 0.0
C2220 C 0.42356 0.25275 0.22437 0.0
H2221 H 0.39162 0.22746 0.25645 0.0
H2222 H 0.39117 0.25414 0.23034 0.0
C2223 C 0.44207 0.24429 0.23078 0.0
C2224 C 0.74898 0.73487 0.53458 0.0
C2225 C 0.75522 0.72655 0.55326 0.0
H2226 H 0.73085 0.75727 0.51965 0.0
C2227 C 0.74444 0.73152 0.5711 0.0
H2228 H 0.75683 0.73104 0.52056 0.0
C2229 C 0.72945 0.74666 0.57058 0.0
C2230 C 0.72521 0.75687 0.55222 0.0
H2231 H 0.74895 0.72528 0.58569 0.0
H2232 H 0.72275 0.75175 0.58479 0.0
C2233 C 0.7341 0.74989 0.53407 0.0
C2234 C 0.74976 0.24014 0.44598 0.0
C2235 C 0.75542 0.24919 0.42743 0.0
H2236 H 0.73198 0.21723 0.46069 0.0
C2237 C 0.74411 0.24479 0.40978 0.0
H2238 H 0.758 0.24351 0.45989 0.0
C2239 C 0.7291 0.22962 0.41023 0.0
C2240 C 0.72534 0.21878 0.42834 0.0
H2241 H 0.74815 0.25161 0.39529 0.0
H2242 H 0.72191 0.22509 0.39608 0.0
C2243 C 0.73486 0.22508 0.44643 0.0
C2244 C 0.74491 0.72777 0.44279 0.0
C2245 C 0.75251 0.71952 0.42457 0.0
H2246 H 0.72566 0.75012 0.45637 0.0
C2247 C 0.74274 0.72415 0.40608 0.0
H2248 H 0.75199 0.72421 0.45728 0.0
C2249 C 0.72754 0.73909 0.40557 0.0
C2250 C 0.72211 0.74941 0.42353 0.0
H2251 H 0.74832 0.71796 0.39183 0.0
H2252 H 0.72178 0.74406 0.39092 0.0
C2253 C 0.72984 0.7426 0.44227 0.0
C2254 C 0.22882 0.73203 0.4451 0.0
C2255 C 0.22208 0.72306 0.42688 0.0
H2256 H 0.2475 0.75485 0.45876 0.0
C2257 C 0.23258 0.72722 0.40866 0.0
H2258 H 0.22121 0.72882 0.45941 0.0
C2259 C 0.24775 0.74223 0.40828 0.0
C2260 C 0.25246 0.75312 0.42613 0.0
H2261 H 0.2277 0.72046 0.39441 0.0
H2262 H 0.2542 0.7467 0.39375 0.0
C2263 C 0.24388 0.74692 0.44473 0.0
C2264 C 0.24863 0.23146 0.40849 0.0
C2265 C 0.25278 0.22102 0.42673 0.0
H2266 H 0.22926 0.25308 0.39356 0.0
C2267 C 0.24384 0.22781 0.44494 0.0
H2268 H 0.25537 0.22654 0.39424 0.0
C2269 C 0.229 0.24289 0.44455 0.0
C2270 C 0.22286 0.25146 0.42594 0.0
H2271 H 0.24703 0.22026 0.45928 0.0
H2272 H 0.22112 0.24657 0.45859 0.0
C2273 C 0.23369 0.24666 0.4081 0.0
C2274 C 0.2283 0.24264 0.53337 0.0
C2275 C 0.22179 0.25181 0.55157 0.0
H2276 H 0.24673 0.21967 0.51971 0.0
C2277 C 0.2324 0.24774 0.56973 0.0
H2278 H 0.22061 0.24577 0.51909 0.0
C2279 C 0.24747 0.23268 0.57009 0.0
C2280 C 0.25198 0.22164 0.55229 0.0
H2281 H 0.2277 0.25465 0.58397 0.0
H2282 H 0.25403 0.22834 0.58459 0.0
C2283 C 0.24326 0.2277 0.53373 0.0
C2284 C 0.74276 0.24896 0.57073 0.0
C2285 C 0.75318 0.25316 0.55248 0.0
H2286 H 0.72127 0.2294 0.58573 0.0
C2287 C 0.74643 0.24414 0.53429 0.0
H2288 H 0.74766 0.25575 0.58497 0.0
C2289 C 0.73143 0.22917 0.53473 0.0
C2290 C 0.72293 0.22296 0.55336 0.0
H2291 H 0.75397 0.24736 0.51994 0.0
H2292 H 0.7278 0.22122 0.52071 0.0
C2293 C 0.72766 0.23388 0.57117 0.0
C2294 C 0.24431 0.74811 0.53508 0.0
C2295 C 0.25288 0.75522 0.55334 0.0
H2296 H 0.22176 0.72918 0.52131 0.0
C2297 C 0.24831 0.7451 0.57168 0.0
H2298 H 0.24782 0.75543 0.52069 0.0
C2299 C 0.23328 0.72994 0.57203 0.0
C2300 C 0.22278 0.72487 0.55406 0.0
H2301 H 0.25474 0.7503 0.58597 0.0
H2302 H 0.22848 0.72379 0.58659 0.0
C2303 C 0.22939 0.73307 0.53543 0.0
C2304 C -0.00092 0.16145 0.31582 0.0
C2305 C 0.00955 0.17052 0.33216 0.0
H2306 H 0.96999 0.15712 0.30169 0.0
C2307 C -0.00133 0.17588 0.34978 0.0
H2308 H 0.00713 0.15717 0.30206 0.0
C2309 C 0.97747 0.17586 0.34957 0.0
C2310 C 0.96696 0.17045 0.33174 0.0
H2311 H 0.00643 0.18268 0.36268 0.0
H2312 H 0.96944 0.18266 0.3623 0.0
C2313 C 0.97776 0.16142 0.31562 0.0
C2314 C 0.80319 0.97327 0.35151 0.0
C2315 C 0.80769 0.96309 0.33323 0.0
H2316 H 0.79652 0.00194 0.36531 0.0
C2317 C 0.81587 0.97425 0.31687 0.0
H2318 H 0.79712 0.96496 0.36444 0.0
C2319 C 0.81554 -0.00443 0.31739 0.0
C2320 C 0.80705 0.00565 0.33426 0.0
H2321 H 0.81954 0.96676 0.30262 0.0
H2322 H 0.81899 0.00386 0.30352 0.0
C2323 C 0.80284 -0.00553 0.35201 0.0
C2324 C 0.97736 0.8154 0.31819 0.0
C2325 C 0.96676 0.80747 0.33503 0.0
H2326 H 0.00654 0.81849 0.30394 0.0
C2327 C 0.97745 0.80368 0.35317 0.0
H2328 H 0.96946 0.81855 0.30405 0.0
C2329 C -0.00134 0.80362 0.3531 0.0
C2330 C 0.0093 0.80739 0.33492 0.0
H2331 H 0.96957 0.79783 0.36646 0.0
H2332 H 0.00655 0.79773 0.36635 0.0
C2333 C -0.00132 0.81537 0.31813 0.0
C2334 C 0.16008 -0.00334 0.31768 0.0
C2335 C 0.16845 0.00678 0.3346 0.0
H2336 H 0.15631 0.96785 0.30285 0.0
C2337 C 0.17258 -0.00439 0.35237 0.0
H2338 H 0.1567 0.00495 0.30381 0.0
C2339 C 0.17233 0.9744 0.35183 0.0
C2340 C 0.16799 0.96423 0.33351 0.0
H2341 H 0.17879 0.00311 0.36571 0.0
H2342 H 0.17839 0.96613 0.36476 0.0
C2343 C 0.15985 0.97534 0.31714 0.0
C2344 C -0.00032 0.81694 0.66463 0.0
C2345 C 0.01019 0.80869 0.64789 0.0
H2346 H 0.97051 0.82071 0.67872 0.0
C2347 C -0.00054 0.80472 0.62982 0.0
H2348 H 0.00761 0.82018 0.67874 0.0
C2349 C 0.97826 0.80505 0.6298 0.0
C2350 C 0.96762 0.80933 0.64786 0.0
H2351 H 0.00727 0.79858 0.61662 0.0
H2352 H 0.97029 0.79913 0.61659 0.0
C2353 C 0.97836 0.81726 0.66461 0.0
C2354 C 0.17041 0.00043 0.62761 0.0
C2355 C 0.16653 0.01078 0.64594 0.0
H2356 H 0.17643 0.9716 0.61385 0.0
C2357 C 0.15864 -0.00017 0.66257 0.0
H2358 H 0.17627 0.00859 0.61449 0.0
C2359 C 0.15874 0.9785 0.66221 0.0
C2360 C 0.16674 0.96822 0.64522 0.0
H2361 H 0.15545 0.00746 0.67687 0.0
H2362 H 0.15563 0.97036 0.67625 0.0
C2363 C 0.1705 0.97922 0.62725 0.0
C2364 C 0.97727 0.17198 0.62545 0.0
C2365 C 0.96649 0.16828 0.64358 0.0
H2366 H 0.00646 0.1777 0.61229 0.0
C2367 C 0.97698 0.16032 0.66045 0.0
H2368 H 0.96948 0.17785 0.61214 0.0
C2369 C -0.0017 0.16023 0.66054 0.0
C2370 C 0.00904 0.16809 0.64374 0.0
H2371 H 0.96901 0.15724 0.67459 0.0
H2372 H 0.0061 0.15708 0.67474 0.0
C2373 C -0.00152 0.17189 0.62554 0.0
C2374 C 0.81692 0.00119 0.66335 0.0
C2375 C 0.80899 0.01211 0.64673 0.0
H2376 H 0.82016 0.97171 0.67691 0.0
C2377 C 0.80523 0.00179 0.62837 0.0
H2378 H 0.82 0.00881 0.67767 0.0
C2379 C 0.80534 0.98057 0.62792 0.0
C2380 C 0.80918 0.96955 0.64584 0.0
H2381 H 0.79935 0.00991 0.61526 0.0
H2382 H 0.79953 0.97293 0.61448 0.0
C2383 C 0.81702 0.97986 0.6629 0.0
C2384 C 0.34865 0.97825 0.17195 0.0
C2385 C 0.33054 0.96763 0.168 0.0
H2386 H 0.36194 0.00725 0.17828 0.0
C2387 C 0.31374 0.97837 0.16032 0.0
H2388 H 0.36189 0.97027 0.17767 0.0
C2389 C 0.31376 -0.0003 0.16069 0.0
C2390 C 0.33059 0.01019 0.16873 0.0
H2391 H 0.2996 0.97052 0.15711 0.0
H2392 H 0.29964 0.00763 0.15773 0.0
C2393 C 0.34868 -0.00054 0.17232 0.0
C2394 C 0.97631 0.34698 0.17608 0.0
C2395 C 0.96583 0.3291 0.17087 0.0
H2396 H 0.00523 0.36017 0.18294 0.0
C2397 C 0.97668 0.31291 0.16208 0.0
H2398 H 0.96824 0.35976 0.18268 0.0
C2399 C -0.002 0.31315 0.16223 0.0
C2400 C 0.00841 0.32958 0.17117 0.0
H2401 H 0.96894 0.29895 0.15792 0.0
H2402 H 0.00607 0.29936 0.15819 0.0
C2403 C -0.00249 0.34722 0.17622 0.0
C2404 C 0.66179 0.98022 0.16075 0.0
C2405 C 0.64501 0.96949 0.1686 0.0
H2406 H 0.67596 0.00947 0.15794 0.0
C2407 C 0.62697 0.98012 0.1727 0.0
H2408 H 0.67588 0.97236 0.15742 0.0
C2409 C 0.62701 0.00133 0.173 0.0
C2410 C 0.6451 0.01206 0.16922 0.0
H2411 H 0.61375 0.97214 0.17855 0.0
H2412 H 0.61381 0.00913 0.17905 0.0
C2413 C 0.66183 0.00155 0.16106 0.0
C2414 C -0.00029 0.65976 0.16073 0.0
C2415 C 0.01034 0.64292 0.16848 0.0
H2416 H 0.97049 0.67386 0.15782 0.0
C2417 C -0.0003 0.62472 0.17201 0.0
H2418 H 0.00758 0.67396 0.15779 0.0
C2419 C 0.97849 0.62465 0.17202 0.0
C2420 C 0.9678 0.64279 0.1685 0.0
H2421 H 0.0076 0.61143 0.17772 0.0
H2422 H 0.97063 0.61132 0.17774 0.0
C2423 C 0.97839 0.6597 0.16075 0.0
C2424 C 0.31389 0.97765 0.81898 0.0
C2425 C 0.33085 0.96731 0.81106 0.0
H2426 H 0.29941 0.00666 0.82222 0.0
C2427 C 0.34886 0.97825 0.80747 0.0
H2428 H 0.29983 0.96956 0.82197 0.0
C2429 C 0.34861 -0.00054 0.8076 0.0
C2430 C 0.33036 0.00986 0.81136 0.0
H2431 H 0.36222 0.97058 0.80163 0.0
H2432 H 0.36179 0.00756 0.80184 0.0
C2433 C 0.31365 -0.00102 0.81913 0.0
C2434 C -0.00065 0.35159 0.80515 0.0
C2435 C 0.00977 0.33336 0.80897 0.0
H2436 H 0.97045 0.36516 0.79922 0.0
C2437 C -0.00108 0.31671 0.81691 0.0
H2438 H 0.00742 0.36474 0.79928 0.0
C2439 C 0.97761 0.31694 0.81688 0.0
C2440 C 0.96723 0.33384 0.80889 0.0
H2441 H 0.00662 0.30249 0.82007 0.0
H2442 H 0.96954 0.3029 0.82001 0.0
C2443 C 0.97814 0.35183 0.80512 0.0
C2444 C 0.66109 -0.00303 0.8181 0.0
C2445 C 0.6443 0.00749 0.8101 0.0
H2446 H 0.67536 0.96785 0.82124 0.0
C2447 C 0.62631 -0.00331 0.80607 0.0
H2448 H 0.67514 0.00496 0.82138 0.0
C2449 C 0.62643 0.97548 0.80601 0.0
C2450 C 0.64455 0.96492 0.80993 0.0
H2451 H 0.61308 0.00451 0.80011 0.0
H2452 H 0.61328 0.96752 0.8 0.0
C2453 C 0.66121 0.97564 0.81802 0.0
C2454 C 0.97541 0.62705 0.80548 0.0
C2455 C 0.96504 0.64516 0.80996 0.0
H2456 H 0.00424 0.61357 0.799 0.0
C2457 C 0.97598 0.66159 0.81823 0.0
H2458 H 0.96726 0.61409 0.79931 0.0
C2459 C -0.0027 0.66129 0.81806 0.0
C2460 C 0.0076 0.64457 0.80962 0.0
H2461 H 0.96833 0.67573 0.82185 0.0
H2462 H 0.00544 0.67521 0.82157 0.0
C2463 C -0.00339 0.62676 0.8053 0.0
C2464 C 0.17236 0.35159 -0.00232 0.0
C2465 C 0.16815 0.33364 0.0085 0.0
H2466 H 0.1783 0.36457 0.9684 0.0
C2467 C 0.15978 0.31697 -0.002 0.0
H2468 H 0.17859 0.36473 0.00548 0.0
C2469 C 0.15963 0.31686 0.97662 0.0
C2470 C 0.16787 0.33342 0.96583 0.0
H2471 H 0.15634 0.30296 0.00601 0.0
H2472 H 0.15609 0.30277 0.96882 0.0
C2473 C 0.17218 0.35149 0.97641 0.0
C2474 C 0.17297 0.6252 0.98051 0.0
C2475 C 0.16868 0.64314 0.96972 0.0
H2476 H 0.17913 0.61224 0.00973 0.0
C2477 C 0.1604 0.65978 0.9803 0.0
H2478 H 0.17913 0.61207 0.97265 0.0
C2479 C 0.16042 0.65989 0.00168 0.0
C2480 C 0.16872 0.64335 0.0124 0.0
H2481 H 0.1569 0.67378 0.97232 0.0
H2482 H 0.15693 0.67397 0.00952 0.0
C2483 C 0.17297 0.6253 0.00177 0.0
C2484 C 0.34842 0.17245 0.00182 0.0
C2485 C 0.33026 0.1685 0.01238 0.0
H2486 H 0.36188 0.17837 0.97275 0.0
C2487 C 0.31362 0.16042 0.00161 0.0
H2488 H 0.36155 0.17844 0.00983 0.0
C2489 C 0.31382 0.16037 0.98023 0.0
C2490 C 0.33064 0.16839 0.96971 0.0
H2491 H 0.29945 0.15717 0.00941 0.0
H2492 H 0.29979 0.15708 0.97221 0.0
C2493 C 0.34861 0.1724 0.98056 0.0
C2494 C 0.80302 0.3502 0.97437 0.0
C2495 C 0.80732 0.3318 0.96439 0.0
H2496 H 0.79655 0.36439 0.00295 0.0
C2497 C 0.81536 0.31556 0.97574 0.0
H2498 H 0.79705 0.36302 0.9659 0.0
C2499 C 0.81506 0.31634 -0.0029 0.0
C2500 C 0.80674 0.33336 0.00702 0.0
H2501 H 0.81885 0.30122 0.96838 0.0
H2502 H 0.81837 0.30258 0.00556 0.0
C2503 C 0.80273 0.35097 -0.00439 0.0
C2504 C 0.66039 0.81646 -0.00151 0.0
C2505 C 0.64395 0.8085 0.00965 0.0
H2506 H 0.6738 0.81935 0.96884 0.0
C2507 C 0.62566 0.80427 -0.00055 0.0
H2508 H 0.67465 0.81989 0.00602 0.0
C2509 C 0.62516 0.80396 0.97819 0.0
C2510 C 0.64296 0.80784 0.967 0.0
H2511 H 0.61269 0.79834 0.00777 0.0
H2512 H 0.6118 0.79783 0.9707 0.0
C2513 C 0.6599 0.81613 0.97712 0.0
C2514 C 0.81648 0.66201 0.0019 0.0
C2515 C 0.80868 0.64555 0.01315 0.0
H2516 H 0.81928 0.67526 0.97217 0.0
C2517 C 0.80468 0.62714 0.00305 0.0
H2518 H 0.81975 0.67637 0.00935 0.0
C2519 C 0.80442 0.6265 0.9818 0.0
C2520 C 0.80813 0.64427 0.97051 0.0
H2521 H 0.79889 0.61416 0.01144 0.0
H2522 H 0.79844 0.61303 0.97438 0.0
C2523 C 0.81621 0.66137 0.98053 0.0
C2524 C 0.34958 0.8041 -0.00208 0.0
C2525 C 0.3317 0.8082 0.00888 0.0
H2526 H 0.36229 0.79785 0.96859 0.0
C2527 C 0.31484 0.81617 -0.00156 0.0
H2528 H 0.36287 0.79819 0.00567 0.0
C2529 C 0.31451 0.81599 0.97706 0.0
C2530 C 0.33104 0.80784 0.96621 0.0
H2531 H 0.30088 0.81952 0.00655 0.0
H2532 H 0.3003 0.81921 0.96935 0.0
C2533 C 0.34924 0.80391 0.97666 0.0
C2534 C 0.62578 0.17217 0.9798 0.0
C2535 C 0.64393 0.16804 0.96934 0.0
H2536 H 0.61228 0.17854 0.00875 0.0
C2537 C 0.66055 0.1602 0.98026 0.0
H2538 H 0.61268 0.17802 0.97167 0.0
C2539 C 0.66034 0.16053 0.00164 0.0
C2540 C 0.64351 0.16872 0.012 0.0
H2541 H 0.67472 0.15685 0.97252 0.0
H2542 H 0.67436 0.15742 0.00972 0.0
C2543 C 0.62556 0.17248 0.00107 0.0
C2544 C 0.47687 0.6724 0.8484 0.0
C2545 C 0.46592 0.6682 0.83051 0.0
H2546 H 0.50618 0.67836 0.86116 0.0
C2547 C 0.47627 0.65996 0.81367 0.0
H2548 H 0.4692 0.67855 0.86167 0.0
C2549 C 0.4976 0.65983 0.81339 0.0
C2550 C 0.5085 0.66792 0.82994 0.0
H2551 H 0.46817 0.65656 0.79969 0.0
H2552 H 0.50529 0.65634 0.79919 0.0
C2553 C 0.49808 0.67227 0.84811 0.0
C2554 C 0.31713 0.49814 0.81572 0.0
C2555 C 0.30921 0.50833 0.83281 0.0
H2556 H 0.32038 0.46926 0.80091 0.0
C2557 C 0.3056 0.49725 0.85076 0.0
H2558 H 0.32014 0.50636 0.80171 0.0
C2559 C 0.30574 0.47604 0.8503 0.0
C2560 C 0.30951 0.46579 0.8319 0.0
H2561 H 0.29975 0.5048 0.86423 0.0
H2562 H 0.29998 0.46782 0.86343 0.0
C2563 C 0.31728 0.47682 0.81527 0.0
C2564 C 0.4984 0.31657 0.81754 0.0
C2565 C 0.50893 0.30876 0.83447 0.0
H2566 H 0.46925 0.31965 0.80329 0.0
C2567 C 0.4982 0.30522 0.85265 0.0
H2568 H 0.50633 0.31952 0.80336 0.0
C2569 C 0.47699 0.30529 0.85261 0.0
C2570 C 0.46639 0.30892 0.83439 0.0
H2571 H 0.50603 0.29947 0.86599 0.0
H2572 H 0.46905 0.29959 0.86593 0.0
C2573 C 0.47708 0.31665 0.81751 0.0
C2574 C 0.67111 0.47472 0.85097 0.0
C2575 C 0.66707 0.46447 0.83262 0.0
H2576 H 0.67725 0.5035 0.86484 0.0
C2577 C 0.65909 0.47549 0.81611 0.0
H2578 H 0.67703 0.46652 0.86401 0.0
C2579 C 0.65921 0.49682 0.81658 0.0
C2580 C 0.66731 0.50703 0.83358 0.0
H2581 H 0.65578 0.46793 0.8018 0.0
H2582 H 0.65599 0.50503 0.80263 0.0
C2583 C 0.67123 0.49593 0.85144 0.0
C2584 C 0.47575 0.31687 0.16359 0.0
C2585 C 0.46524 0.30864 0.14684 0.0
H2586 H 0.50485 0.32038 0.17789 0.0
C2587 C 0.47607 0.30438 0.12888 0.0
H2588 H 0.46774 0.32034 0.17762 0.0
C2589 C 0.49728 0.30438 0.12905 0.0
C2590 C 0.50782 0.3087 0.14715 0.0
H2591 H 0.46829 0.29825 0.11566 0.0
H2592 H 0.50527 0.29825 0.11596 0.0
C2593 C 0.49707 0.3169 0.16375 0.0
C2594 C 0.65945 0.48078 0.16233 0.0
C2595 C 0.66743 0.47055 0.1453 0.0
H2596 H 0.65633 0.50964 0.17721 0.0
C2597 C 0.67153 0.48167 0.12748 0.0
H2598 H 0.65611 0.47253 0.17625 0.0
C2599 C 0.67166 0.50288 0.12803 0.0
C2600 C 0.6677 0.51311 0.1464 0.0
H2601 H 0.67748 0.47409 0.11407 0.0
H2602 H 0.6777 0.51108 0.11501 0.0
C2603 C 0.65958 0.5021 0.16288 0.0
C2604 C 0.49879 0.6713 0.12622 0.0
C2605 C 0.50952 0.6678 0.14439 0.0
H2606 H 0.46967 0.677 0.113 0.0
C2607 C 0.49896 0.6601 0.16137 0.0
H2608 H 0.50664 0.67697 0.11283 0.0
C2609 C 0.47764 0.66011 0.16146 0.0
C2610 C 0.46699 0.66781 0.14457 0.0
H2611 H 0.50689 0.65717 0.17554 0.0
H2612 H 0.46981 0.65719 0.17571 0.0
C2613 C 0.47759 0.67131 0.12631 0.0
C2614 C 0.31752 0.47871 0.16265 0.0
C2615 C 0.30969 0.46855 0.1455 0.0
H2616 H 0.3207 0.50756 0.17756 0.0
C2617 C 0.30619 0.47968 0.12757 0.0
H2618 H 0.32043 0.47047 0.17666 0.0
C2619 C 0.30634 0.50089 0.12809 0.0
C2620 C 0.31001 0.5111 0.14653 0.0
H2621 H 0.30041 0.47215 0.11405 0.0
H2622 H 0.30066 0.50913 0.11496 0.0
C2623 C 0.31768 0.50003 0.16317 0.0
C2624 C 0.81481 0.50068 0.66073 0.0
C2625 C 0.83148 0.51129 0.66895 0.0
H2626 H 0.80081 0.47143 0.6571 0.0
C2627 C 0.84957 0.50066 0.67282 0.0
H2628 H 0.80069 0.50854 0.65754 0.0
C2629 C 0.84964 0.47945 0.67257 0.0
C2630 C 0.83162 0.46873 0.66843 0.0
H2631 H 0.86272 0.50855 0.67891 0.0
H2632 H 0.86284 0.47156 0.67849 0.0
C2633 C 0.81488 0.47935 0.66047 0.0
C2634 C 0.49919 0.81554 0.66218 0.0
C2635 C 0.51028 0.83158 0.67099 0.0
H2636 H 0.4696 0.80239 0.65823 0.0
C2637 C 0.5001 0.84963 0.6761 0.0
H2638 H 0.5067 0.80146 0.65809 0.0
C2639 C 0.47891 0.85018 0.67617 0.0
C2640 C 0.46772 0.83266 0.67117 0.0
H2641 H 0.50837 0.8623 0.6827 0.0
H2642 H 0.4714 0.86326 0.68282 0.0
C2643 C 0.47787 0.81608 0.66227 0.0
C2644 C 0.12565 0.49838 0.67196 0.0
C2645 C 0.1436 0.50939 0.66828 0.0
H2646 H 0.11283 0.46901 0.6775 0.0
C2647 C 0.16052 0.49913 0.66016 0.0
H2648 H 0.11231 0.50599 0.67796 0.0
C2649 C 0.16081 0.47781 0.65987 0.0
C2650 C 0.14419 0.46684 0.66771 0.0
H2651 H 0.17453 0.50728 0.6571 0.0
H2652 H 0.17504 0.47018 0.65662 0.0
C2653 C 0.12594 0.47717 0.67168 0.0
C2654 C 0.47645 0.15981 0.66164 0.0
C2655 C 0.46569 0.14307 0.66953 0.0
H2656 H 0.50577 0.17376 0.65855 0.0
C2657 C 0.4762 0.12487 0.67324 0.0
H2658 H 0.46869 0.17401 0.65857 0.0
C2659 C 0.49741 0.12472 0.67322 0.0
C2660 C 0.50823 0.14277 0.66951 0.0
H2661 H 0.4682 0.11166 0.67907 0.0
H2662 H 0.50517 0.11139 0.67904 0.0
C2663 C 0.49777 0.15966 0.66163 0.0
C2664 C 0.84975 0.47376 0.30339 0.0
C2665 C 0.83164 0.4633 0.30781 0.0
H2666 H 0.86323 0.50271 0.29716 0.0
C2667 C 0.81527 0.47412 0.3163 0.0
H2668 H 0.86268 0.46571 0.29708 0.0
C2669 C 0.8156 0.49544 0.31638 0.0
C2670 C 0.83229 0.50587 0.30797 0.0
H2671 H 0.80114 0.4664 0.31991 0.0
H2672 H 0.80172 0.50352 0.32006 0.0
C2673 C 0.85006 0.49497 0.30343 0.0
C2674 C 0.49792 0.85257 0.30528 0.0
C2675 C 0.50866 0.83451 0.30901 0.0
H2676 H 0.46877 0.86566 0.29949 0.0
C2677 C 0.49813 0.81767 0.317 0.0
H2678 H 0.50575 0.86585 0.29938 0.0
C2679 C 0.47681 0.81756 0.31707 0.0
C2680 C 0.46612 0.83428 0.30914 0.0
H2681 H 0.50607 0.80357 0.3201 0.0
H2682 H 0.46899 0.80338 0.32022 0.0
C2683 C 0.47671 0.85246 0.30534 0.0
C2684 C 0.16055 0.47659 0.31805 0.0
C2685 C 0.1437 0.46621 0.30992 0.0
H2686 H 0.175 0.50563 0.32153 0.0
C2687 C 0.12574 0.47711 0.30611 0.0
H2688 H 0.17456 0.46853 0.32121 0.0
C2689 C 0.126 0.49832 0.30628 0.0
C2690 C 0.1442 0.50877 0.3103 0.0
H2691 H 0.11244 0.4694 0.30011 0.0
H2692 H 0.11291 0.50639 0.30038 0.0
C2693 C 0.1608 0.49792 0.31824 0.0
C2694 C 0.49935 0.16233 0.31775 0.0
C2695 C 0.51029 0.14593 0.30948 0.0
H2696 H 0.46988 0.17579 0.32122 0.0
C2697 C 0.49994 0.12776 0.30508 0.0
H2698 H 0.50699 0.17651 0.3213 0.0
C2699 C 0.47874 0.12734 0.30504 0.0
C2700 C 0.46772 0.1451 0.30939 0.0
H2701 H 0.50808 0.11482 0.2989 0.0
H2702 H 0.4711 0.11409 0.29883 0.0
C2703 C 0.47803 0.16191 0.31771 0.0
C2704 C 0.661 0.81417 0.47601 0.0
C2705 C 0.66926 0.83013 0.46439 0.0
H2706 H 0.65771 0.80174 0.50605 0.0
C2707 C 0.67385 0.84863 0.47406 0.0
H2708 H 0.6573 0.79975 0.46889 0.0
C2709 C 0.6741 0.84977 0.49529 0.0
C2710 C 0.66977 0.83242 0.507 0.0
H2711 H 0.68003 0.86124 0.46537 0.0
H2712 H 0.68044 0.86325 0.5024 0.0
C2713 C 0.66125 0.81531 0.49735 0.0
C2714 C 0.67077 0.12525 0.48207 0.0
C2715 C 0.667 0.14306 0.47086 0.0
H2716 H 0.67656 0.11284 0.51161 0.0
C2717 C 0.65902 0.1601 0.48102 0.0
H2718 H 0.67668 0.11182 0.47454 0.0
C2719 C 0.65894 0.16068 0.50239 0.0
C2720 C 0.66684 0.14421 0.51351 0.0
H2721 H 0.6559 0.174 0.47272 0.0
H2722 H 0.65576 0.17502 0.5099 0.0
C2723 C 0.6707 0.12584 0.50333 0.0
C2724 C 0.85016 0.67376 0.5016 0.0
C2725 C 0.83234 0.66952 0.51263 0.0
H2726 H 0.86285 0.67944 0.47214 0.0
C2727 C 0.81568 0.66084 0.50237 0.0
H2728 H 0.86331 0.6802 0.50921 0.0
C2729 C 0.81544 0.66035 0.481 0.0
C2730 C 0.83185 0.66855 0.46997 0.0
H2731 H 0.80177 0.65736 0.51053 0.0
H2732 H 0.80135 0.65653 0.47333 0.0
C2733 C 0.84991 0.6733 0.48035 0.0
C2734 C 0.31615 0.81547 0.47728 0.0
C2735 C 0.30797 0.8319 0.46631 0.0
H2736 H 0.3194 0.80189 0.50681 0.0
C2737 C 0.30365 0.85007 0.47669 0.0
H2738 H 0.31967 0.8013 0.46961 0.0
C2739 C 0.30347 0.8504 0.49795 0.0
C2740 C 0.30765 0.83258 0.50897 0.0
H2741 H 0.29758 0.86304 0.46853 0.0
H2742 H 0.29727 0.86363 0.50561 0.0
C2743 C 0.31598 0.81581 0.49865 0.0
C2744 C 0.1621 0.31658 0.47717 0.0
C2745 C 0.14544 0.30857 0.4664 0.0
H2746 H 0.17596 0.31982 0.50657 0.0
C2747 C 0.12726 0.30469 0.47695 0.0
H2748 H 0.17629 0.31978 0.46937 0.0
C2749 C 0.12707 0.3047 0.49822 0.0
C2750 C 0.14506 0.30861 0.50906 0.0
H2751 H 0.11411 0.29876 0.46894 0.0
H2752 H 0.11379 0.29878 0.50602 0.0
C2753 C 0.16191 0.3166 0.49855 0.0
C2754 C 0.31716 0.16098 0.50163 0.0
C2755 C 0.30918 0.14423 0.51232 0.0
H2756 H 0.3204 0.175 0.4723 0.0
C2757 C 0.30541 0.12607 0.50168 0.0
H2758 H 0.32027 0.17514 0.5095 0.0
C2759 C 0.3055 0.12599 0.48041 0.0
C2760 C 0.30935 0.14405 0.46966 0.0
H2761 H 0.2995 0.11286 0.50962 0.0
H2762 H 0.29963 0.11272 0.47254 0.0
C2763 C 0.31725 0.16089 0.48025 0.0
C2764 C 0.84956 0.30469 0.47792 0.0
C2765 C 0.83159 0.30835 0.46697 0.0
H2766 H 0.86243 0.29916 0.50732 0.0
C2767 C 0.81471 0.31643 0.47733 0.0
H2768 H 0.86288 0.29873 0.47024 0.0
C2769 C 0.81446 0.31671 0.49871 0.0
C2770 C 0.8311 0.30891 0.50963 0.0
H2771 H 0.80069 0.31948 0.46923 0.0
H2772 H 0.80025 0.31995 0.50642 0.0
C2773 C 0.84931 0.30495 0.49919 0.0
C2774 C 0.16164 0.66006 0.50205 0.0
C2775 C 0.14505 0.66831 0.51273 0.0
H2776 H 0.17546 0.6563 0.47269 0.0
C2777 C 0.12693 0.67222 0.50214 0.0
H2778 H 0.17578 0.65685 0.50989 0.0
C2779 C 0.12674 0.67188 0.48087 0.0
C2780 C 0.14468 0.66766 0.47006 0.0
H2781 H 0.11384 0.67835 0.51008 0.0
H2782 H 0.11351 0.67778 0.473 0.0
C2783 C 0.16145 0.65973 0.48067 0.0
C2784 C 0.13238 0.11521 0.30683 0.0
C2785 C 0.13612 0.10308 0.28958 0.0
H2786 H 0.11522 0.1394 0.31997 0.0
C2787 C 0.1244 0.10623 0.27193 0.0
H2788 H 0.14106 0.11319 0.32072 0.0
C2789 C 0.10945 0.12141 0.27149 0.0
C2790 C 0.10595 0.13368 0.28871 0.0
H2791 H 0.12688 0.09713 0.25839 0.0
H2792 H 0.10078 0.12362 0.25763 0.0
C2793 C 0.11751 0.13028 0.3064 0.0
C2794 C 0.86647 0.12083 0.27145 0.0
C2795 C 0.87029 0.13289 0.28876 0.0
H2796 H 0.84872 0.09675 0.25833 0.0
C2797 C 0.85903 0.12924 0.30662 0.0
H2798 H 0.8749 0.12324 0.25746 0.0
C2799 C 0.84411 0.11415 0.30711 0.0
C2800 C 0.84003 0.10228 0.28976 0.0
H2801 H 0.86158 0.13818 0.32027 0.0
H2802 H 0.83565 0.11195 0.32112 0.0
C2803 C 0.85148 0.10566 0.27195 0.0
C2804 C 0.857 0.8389 0.29663 0.0
C2805 C 0.8776 0.84413 0.29427 0.0
H2806 H 0.82629 0.84927 0.29848 0.0
C2807 C 0.88276 0.8646 0.29072 0.0
H2808 H 0.85245 0.82327 0.29926 0.0
C2809 C 0.86767 0.87961 0.29028 0.0
C2810 C 0.84713 0.87442 0.29336 0.0
H2811 H 0.89849 0.86912 0.28878 0.0
H2812 H 0.87216 0.89531 0.28802 0.0
C2813 C 0.84196 0.85385 0.29617 0.0
C2814 C 0.11934 0.83932 0.29795 0.0
C2815 C 0.09883 0.84432 0.29468 0.0
H2816 H 0.14993 0.84994 0.30059 0.0
C2817 C 0.09375 0.86465 0.29039 0.0
H2818 H 0.12383 0.8238 0.30118 0.0
C2819 C 0.10882 0.87975 0.29005 0.0
C2820 C 0.12924 0.87478 0.29399 0.0
H2821 H 0.0781 0.86901 0.28775 0.0
H2822 H 0.10438 0.89534 0.28716 0.0
C2823 C 0.13435 0.85434 0.29761 0.0
C2824 C 0.13559 0.85727 0.68077 0.0
C2825 C 0.13052 0.87767 0.68469 0.0
H2826 H 0.12514 0.82664 0.67772 0.0
C2827 C 0.11028 0.88248 0.68965 0.0
H2828 H 0.15104 0.85298 0.67701 0.0
C2829 C 0.09532 0.86727 0.69006 0.0
C2830 C 0.10033 0.84698 0.68552 0.0
H2831 H 0.10588 0.89804 0.69279 0.0
H2832 H 0.07979 0.87151 0.69351 0.0
C2833 C 0.1207 0.84213 0.68119 0.0
C2834 C 0.13406 0.12107 0.68086 0.0
C2835 C 0.12894 0.10066 0.68471 0.0
H2836 H 0.12357 0.15158 0.6771 0.0
C2837 C 0.10854 0.09571 0.68888 0.0
H2838 H 0.14963 0.12547 0.67769 0.0
C2839 C 0.0935 0.11078 0.68855 0.0
C2840 C 0.09858 0.13108 0.68403 0.0
H2841 H 0.10409 0.08013 0.69196 0.0
H2842 H 0.07786 0.10643 0.69138 0.0
C2843 C 0.11908 0.13608 0.68051 0.0
C2844 C 0.88195 0.11184 0.68925 0.0
C2845 C 0.87694 0.13214 0.68473 0.0
H2846 H 0.87123 0.08122 0.6928 0.0
C2847 C 0.85644 0.13718 0.68142 0.0
H2848 H 0.8976 0.10746 0.69193 0.0
C2849 C 0.84139 0.12221 0.68193 0.0
C2850 C 0.84643 0.10179 0.68575 0.0
H2851 H 0.85201 0.15268 0.67802 0.0
H2852 H 0.82582 0.12662 0.67889 0.0
C2853 C 0.86684 0.0968 0.68975 0.0
C2854 C 0.85651 0.84339 0.67945 0.0
C2855 C 0.87645 0.84814 0.68557 0.0
H2856 H 0.8264 0.85415 0.67393 0.0
C2857 C 0.88089 0.86815 0.69178 0.0
H2858 H 0.85251 0.82813 0.67464 0.0
C2859 C 0.8658 0.88317 0.69138 0.0
C2860 C 0.846 0.87847 0.68474 0.0
H2861 H 0.89608 0.8723 0.69663 0.0
H2862 H 0.86975 0.89852 0.69592 0.0
C2863 C 0.8415 0.85835 0.67903 0.0
C2864 C 0.29491 0.13595 0.12276 0.0
C2865 C 0.29091 0.13101 0.10229 0.0
H2866 H 0.29863 0.12522 0.15327 0.0
C2867 C 0.28643 0.11069 0.09726 0.0
H2868 H 0.29831 0.15146 0.12722 0.0
C2869 C 0.28661 0.09555 0.1123 0.0
C2870 C 0.29128 0.10045 0.13264 0.0
H2871 H 0.28323 0.10638 0.08164 0.0
H2872 H 0.28355 0.07997 0.10787 0.0
C2873 C 0.2951 0.12087 0.13773 0.0
C2874 C 0.86443 0.26893 0.12179 0.0
C2875 C 0.86872 0.28606 0.13391 0.0
H2876 H 0.84628 0.25633 0.0977 0.0
C2877 C 0.85786 0.30413 0.1304 0.0
H2878 H 0.87254 0.25479 0.12409 0.0
C2879 C 0.84288 0.305 0.11539 0.0
C2880 C 0.83835 0.28784 0.10344 0.0
H2881 H 0.86076 0.31765 0.1394 0.0
H2882 H 0.83475 0.31916 0.1133 0.0
C2883 C 0.84939 0.26981 0.10668 0.0
C2884 C 0.67735 0.8581 0.13505 0.0
C2885 C 0.68278 0.87821 0.13017 0.0
H2886 H 0.67283 0.82772 0.12445 0.0
C2887 C 0.68877 0.88273 0.11008 0.0
H2888 H 0.67273 0.85404 0.15039 0.0
C2889 C 0.68883 0.86753 0.09509 0.0
C2890 C 0.68289 0.84753 0.09993 0.0
H2891 H 0.69309 0.89806 0.10582 0.0
H2892 H 0.69318 0.87153 0.07967 0.0
C2893 C 0.6774 0.84297 0.12014 0.0
C2894 C 0.13569 0.67962 0.12251 0.0
C2895 C 0.13074 0.6832 0.10197 0.0
H2896 H 0.12496 0.67629 0.15307 0.0
C2897 C 0.1104 0.68735 0.09685 0.0
H2898 H 0.15121 0.67649 0.12704 0.0
C2899 C 0.09525 0.68724 0.11187 0.0
C2900 C 0.10015 0.68297 0.1323 0.0
H2901 H 0.10608 0.69023 0.08117 0.0
H2902 H 0.07965 0.69003 0.10739 0.0
C2903 C 0.1206 0.67951 0.13748 0.0
C2904 C 0.28714 0.88127 0.86719 0.0
C2905 C 0.29169 0.87662 0.84676 0.0
H2906 H 0.28395 0.87007 0.89774 0.0
C2907 C 0.29548 0.85627 0.8414 0.0
H2908 H 0.2841 0.89679 0.87182 0.0
C2909 C 0.29541 0.84102 0.8562 0.0
C2910 C 0.29153 0.84571 0.87675 0.0
H2911 H 0.29892 0.8521 0.82579 0.0
H2912 H 0.29879 0.82558 0.85154 0.0
C2913 C 0.28706 0.86595 0.88205 0.0
C2914 C 0.10944 0.28936 0.88157 0.0
C2915 C 0.12982 0.29337 0.87642 0.0
H2916 H 0.07868 0.28673 0.87104 0.0
C2917 C 0.13484 0.29673 0.85585 0.0
H2918 H 0.10507 0.28665 0.89727 0.0
C2919 C 0.11977 0.29678 0.84088 0.0
C2920 C 0.09929 0.29346 0.84607 0.0
H2921 H 0.15039 0.29975 0.8513 0.0
H2922 H 0.12418 0.29983 0.82525 0.0
C2923 C 0.09431 0.28941 0.86654 0.0
C2924 C 0.67369 0.13361 0.85853 0.0
C2925 C 0.68491 0.13114 0.87659 0.0
H2926 H 0.66471 0.12098 0.82995 0.0
C2927 C 0.69637 0.11328 0.87923 0.0
H2928 H 0.66471 0.14717 0.85593 0.0
C2929 C 0.69637 0.09812 0.86418 0.0
C2930 C 0.6849 0.10056 0.84625 0.0
H2931 H 0.70521 0.11093 0.89296 0.0
H2932 H 0.7052 0.08446 0.86669 0.0
C2933 C 0.67369 0.11854 0.84357 0.0
C2934 C 0.85464 0.67918 0.84421 0.0
C2935 C 0.875 0.68337 0.84925 0.0
H2936 H 0.82419 0.67517 0.85484 0.0
C2937 C 0.8799 0.68782 0.86964 0.0
H2938 H 0.85028 0.6758 0.82865 0.0
C2939 C 0.86484 0.68746 0.88476 0.0
C2940 C 0.84459 0.68266 0.87976 0.0
H2941 H 0.89543 0.69116 0.87402 0.0
H2942 H 0.86915 0.69054 0.9004 0.0
C2943 C 0.83964 0.67882 0.85927 0.0
C2944 C 0.11875 0.27461 0.10283 0.0
C2945 C 0.13371 0.28994 0.10286 0.0
H2946 H 0.0924 0.26214 0.11761 0.0
C2947 C 0.13328 0.30475 0.11831 0.0
H2948 H 0.11866 0.26297 0.09113 0.0
C2949 C 0.11833 0.30428 0.13337 0.0
C2950 C 0.10337 0.28898 0.13344 0.0
H2951 H 0.14454 0.31679 0.11883 0.0
H2952 H 0.11856 0.31598 0.14501 0.0
C2953 C 0.10371 0.27413 0.11799 0.0
C2954 C 0.12218 0.70474 0.8713 0.0
C2955 C 0.13484 0.68769 0.87372 0.0
H2956 H 0.09757 0.71828 0.85467 0.0
C2957 C 0.13191 0.67077 0.86094 0.0
H2958 H 0.12403 0.71802 0.88091 0.0
C2959 C 0.11684 0.67092 0.846 0.0
C2960 C 0.10426 0.68799 0.8434 0.0
H2961 H 0.14135 0.65735 0.86237 0.0
H2962 H 0.11516 0.6576 0.8364 0.0
C2963 C 0.10702 0.70489 0.85627 0.0
C2964 C 0.28728 0.11029 0.88423 0.0
C2965 C 0.29212 0.13053 0.87923 0.0
H2966 H 0.28377 0.07965 0.87354 0.0
C2967 C 0.29621 0.13544 0.85876 0.0
H2968 H 0.284 0.10601 0.89984 0.0
C2969 C 0.29606 0.1204 0.84375 0.0
C2970 C 0.29184 0.10005 0.8488 0.0
H2971 H 0.29989 0.15089 0.85433 0.0
H2972 H 0.29964 0.12473 0.82822 0.0
C2973 C 0.28714 0.09518 0.86915 0.0
C2974 C 0.85673 0.29659 0.83989 0.0
C2975 C 0.8772 0.29345 0.84516 0.0
H2976 H 0.826 0.29894 0.85016 0.0
C2977 C 0.88207 0.28908 0.86557 0.0
H2978 H 0.8524 0.29986 0.8243 0.0
C2979 C 0.86683 0.28856 0.88051 0.0
C2980 C 0.84645 0.29237 0.87529 0.0
H2981 H 0.89769 0.28653 0.87012 0.0
H2982 H 0.87111 0.28562 0.89618 0.0
C2983 C 0.84155 0.29605 0.85476 0.0
C2984 C 0.68037 0.85464 0.84188 0.0
C2985 C 0.68365 0.87511 0.8472 0.0
H2986 H 0.67704 0.82399 0.85216 0.0
C2987 C 0.68734 0.87999 0.86775 0.0
H2988 H 0.67758 0.8503 0.82619 0.0
C2989 C 0.68704 0.8648 0.88273 0.0
C2990 C 0.68303 0.84445 0.87745 0.0
H2991 H 0.68998 0.8956 0.87235 0.0
H2992 H 0.68946 0.86911 0.89849 0.0
C2993 C 0.68005 0.83952 0.85681 0.0
C2994 C 0.86765 0.68861 0.09745 0.0
C2995 C 0.84725 0.68465 0.10257 0.0
H2996 H 0.89847 0.69067 0.10793 0.0
C2997 C 0.84229 0.68076 0.12306 0.0
H2998 H 0.87199 0.69171 0.08182 0.0
C2999 C 0.85741 0.68015 0.13796 0.0
C3000 C 0.8779 0.68343 0.13278 0.0
H3001 H 0.82672 0.67775 0.12759 0.0
H3002 H 0.85303 0.6767 0.15352 0.0
C3003 C 0.88283 0.68802 0.11242 0.0
C3004 C 0.28744 0.86619 0.09467 0.0
C3005 C 0.29301 0.84613 0.09958 0.0
H3006 H 0.28327 0.89672 0.10541 0.0
C3007 C 0.29783 0.84143 0.11992 0.0
H3008 H 0.28359 0.8703 0.07915 0.0
C3009 C 0.29765 0.8565 0.13489 0.0
C3010 C 0.29264 0.87668 0.12994 0.0
H3011 H 0.3021 0.82612 0.12428 0.0
H3012 H 0.30178 0.85233 0.15033 0.0
C3013 C 0.28725 0.88133 0.10972 0.0
C3014 C 0.68014 0.1375 0.12247 0.0
C3015 C 0.68362 0.13253 0.10191 0.0
H3016 H 0.67727 0.12682 0.15309 0.0
C3017 C 0.68807 0.11224 0.0968 0.0
H3018 H 0.67678 0.15299 0.12698 0.0
C3019 C 0.68834 0.09714 0.11187 0.0
C3020 C 0.68418 0.10205 0.13232 0.0
H3021 H 0.69087 0.10792 0.08111 0.0
H3022 H 0.69135 0.08157 0.1074 0.0
C3023 C 0.68043 0.12246 0.13747 0.0
C3024 C 0.59998 0.61231 0.77887 0.0
C3025 C 0.60204 0.63014 0.79055 0.0
H3026 H 0.613 0.58361 0.77037 0.0
C3027 C 0.61955 0.63268 0.80258 0.0
H3028 H 0.58669 0.6099 0.76942 0.0
C3029 C 0.63453 0.61772 0.80311 0.0
C3030 C 0.63245 0.59977 0.79165 0.0
H3031 H 0.62168 0.64623 0.81175 0.0
H3032 H 0.64773 0.62022 0.81269 0.0
C3033 C 0.61506 0.59725 0.77941 0.0
C3034 C 0.34014 0.61921 0.79764 0.0
C3035 C 0.34518 0.59882 0.79367 0.0
H3036 H 0.35065 0.6498 0.80087 0.0
C3037 C 0.36544 0.59398 0.78879 0.0
H3038 H 0.32468 0.62352 0.80135 0.0
C3039 C 0.38043 0.60915 0.78851 0.0
C3040 C 0.37545 0.62944 0.79311 0.0
H3041 H 0.36982 0.57842 0.7856 0.0
H3042 H 0.39597 0.60489 0.78512 0.0
C3043 C 0.35507 0.63432 0.79737 0.0
C3044 C 0.38216 0.36569 0.78914 0.0
C3045 C 0.37699 0.34542 0.79371 0.0
H3046 H 0.37169 0.39636 0.78562 0.0
C3047 C 0.35646 0.34049 0.79713 0.0
H3048 H 0.39783 0.36998 0.78638 0.0
C3049 C 0.34154 0.35554 0.79668 0.0
C3050 C 0.34675 0.37593 0.79282 0.0
H3051 H 0.35191 0.32502 0.80057 0.0
H3052 H 0.32594 0.35121 0.7998 0.0
C3053 C 0.36718 0.38081 0.78871 0.0
C3054 C 0.61901 0.33977 0.79667 0.0
C3055 C 0.59846 0.34487 0.79377 0.0
H3056 H 0.64966 0.35031 0.79895 0.0
C3057 C 0.59338 0.36524 0.78969 0.0
H3058 H 0.6235 0.32422 0.79972 0.0
C3059 C 0.60847 0.3803 0.78926 0.0
C3060 C 0.62893 0.37526 0.79288 0.0
H3061 H 0.57769 0.36966 0.78733 0.0
H3062 H 0.60403 0.39593 0.78658 0.0
C3063 C 0.63405 0.35477 0.79622 0.0
C3064 C 0.63256 0.36 0.17322 0.0
C3065 C 0.63279 0.37563 0.18784 0.0
H3066 H 0.61798 0.33318 0.16214 0.0
C3067 C 0.61765 0.37583 0.20301 0.0
H3068 H 0.64396 0.35933 0.16131 0.0
C3069 C 0.6026 0.3607 0.20349 0.0
C3070 C 0.60243 0.34509 0.18881 0.0
H3071 H 0.6174 0.38766 0.21451 0.0
H3072 H 0.59113 0.36123 0.21534 0.0
C3073 C 0.61761 0.34495 0.1737 0.0
C3074 C 0.61969 0.6375 0.1822 0.0
C3075 C 0.59919 0.63225 0.18533 0.0
H3076 H 0.65038 0.62722 0.17972 0.0
C3077 C 0.59426 0.61187 0.18962 0.0
H3078 H 0.62407 0.65307 0.17898 0.0
C3079 C 0.60944 0.59695 0.19004 0.0
C3080 C 0.62984 0.60214 0.18619 0.0
H3081 H 0.57862 0.60732 0.19215 0.0
H3082 H 0.60511 0.5813 0.19289 0.0
C3083 C 0.63482 0.62264 0.18263 0.0
C3084 C 0.38249 0.61129 0.18984 0.0
C3085 C 0.3774 0.63155 0.18521 0.0
H3086 H 0.37193 0.58061 0.19335 0.0
C3087 C 0.35691 0.63644 0.18165 0.0
H3088 H 0.39813 0.60702 0.19271 0.0
C3089 C 0.34194 0.62137 0.18203 0.0
C3090 C 0.34708 0.60099 0.18596 0.0
H3091 H 0.35241 0.6519 0.17816 0.0
H3092 H 0.32638 0.62568 0.1788 0.0
C3093 C 0.36747 0.59616 0.1902 0.0
C3094 C 0.35497 0.34237 0.18115 0.0
C3095 C 0.37541 0.34728 0.1851 0.0
H3096 H 0.32459 0.35316 0.17732 0.0
C3097 C 0.38053 0.36763 0.18937 0.0
H3098 H 0.35045 0.32685 0.1779 0.0
C3099 C 0.36561 0.38281 0.18904 0.0
C3100 C 0.34529 0.37793 0.18443 0.0
H3101 H 0.39612 0.37192 0.19252 0.0
H3102 H 0.37009 0.3984 0.19195 0.0
C3103 C 0.34011 0.35749 0.18081 0.0
C3104 C 0.78829 0.6118 0.59679 0.0
C3105 C 0.79251 0.6321 0.6021 0.0
H3106 H 0.7853 0.58098 0.60708 0.0
C3107 C 0.79589 0.63692 0.62271 0.0
H3108 H 0.78556 0.60759 0.58105 0.0
C3109 C 0.79573 0.62173 0.63757 0.0
C3110 C 0.79219 0.60132 0.63221 0.0
H3111 H 0.79908 0.65241 0.62737 0.0
H3112 H 0.7988 0.62598 0.65323 0.0
C3113 C 0.78813 0.59655 0.61171 0.0
C3114 C 0.34402 0.80602 0.61788 0.0
C3115 C 0.34085 0.78881 0.60555 0.0
H3116 H 0.36087 0.81952 0.64217 0.0
C3117 C 0.3532 0.77161 0.60848 0.0
H3118 H 0.33484 0.81956 0.61604 0.0
C3119 C 0.36826 0.77159 0.62361 0.0
C3120 C 0.37124 0.78877 0.63605 0.0
H3121 H 0.35115 0.75812 0.59922 0.0
H3122 H 0.37745 0.75808 0.62563 0.0
C3123 C 0.35901 0.806 0.63291 0.0
C3124 C 0.18792 0.36659 0.59439 0.0
C3125 C 0.1833 0.3463 0.59943 0.0
H3126 H 0.19112 0.39727 0.60504 0.0
C3127 C 0.17929 0.34137 0.6199 0.0
H3128 H 0.19112 0.37088 0.57877 0.0
C3129 C 0.17929 0.35644 0.63489 0.0
C3130 C 0.18329 0.37683 0.62981 0.0
H3131 H 0.17578 0.32589 0.62436 0.0
H3132 H 0.17578 0.35209 0.65044 0.0
C3133 C 0.18792 0.38171 0.60945 0.0
C3134 C 0.60873 0.18788 0.59785 0.0
C3135 C 0.62907 0.18373 0.60297 0.0
H3136 H 0.57794 0.19027 0.60836 0.0
C3137 C 0.63399 0.17985 0.62346 0.0
H3138 H 0.60444 0.19098 0.58222 0.0
C3139 C 0.61885 0.17943 0.63838 0.0
C3140 C 0.59841 0.1829 0.63321 0.0
H3141 H 0.64951 0.1767 0.62798 0.0
H3142 H 0.62319 0.17599 0.65394 0.0
C3143 C 0.59354 0.18747 0.61284 0.0
C3144 C 0.79445 0.33897 0.35657 0.0
C3145 C 0.79159 0.34426 0.37714 0.0
H3146 H 0.797 0.34925 0.32578 0.0
C3147 C 0.78785 0.36472 0.38212 0.0
H3148 H 0.79724 0.32334 0.35215 0.0
C3149 C 0.78772 0.37968 0.3669 0.0
C3150 C 0.79131 0.37444 0.34642 0.0
H3151 H 0.78554 0.36929 0.39782 0.0
H3152 H 0.7853 0.39538 0.37127 0.0
C3153 C 0.79431 0.35387 0.34141 0.0
C3154 C 0.60871 0.78693 0.38003 0.0
C3155 C 0.62907 0.79124 0.37504 0.0
H3156 H 0.57793 0.78481 0.36946 0.0
C3157 C 0.634 0.79582 0.35469 0.0
H3158 H 0.60442 0.78329 0.39556 0.0
C3159 C 0.61889 0.79672 0.3398 0.0
C3160 C 0.59844 0.79303 0.34486 0.0
H3161 H 0.64953 0.79913 0.35025 0.0
H3162 H 0.62324 0.80067 0.32436 0.0
C3163 C 0.59353 0.7878 0.36507 0.0
C3164 C 0.18727 0.60876 0.38415 0.0
C3165 C 0.18259 0.62905 0.37926 0.0
H3166 H 0.19061 0.57817 0.37329 0.0
C3167 C 0.17857 0.63408 0.35882 0.0
H3168 H 0.19048 0.60438 0.39975 0.0
C3169 C 0.17864 0.61913 0.34373 0.0
C3170 C 0.18274 0.59873 0.34866 0.0
H3171 H 0.17501 0.64957 0.35447 0.0
H3172 H 0.17513 0.62356 0.32821 0.0
C3173 C 0.18734 0.59374 0.36899 0.0
C3174 C 0.34151 0.17596 0.35829 0.0
C3175 C 0.34561 0.1836 0.37788 0.0
H3176 H 0.35282 0.16977 0.32842 0.0
C3177 C 0.36497 0.19179 0.38193 0.0
H3178 H 0.32676 0.1696 0.35459 0.0
C3179 C 0.38004 0.19189 0.3668 0.0
C3180 C 0.37602 0.1838 0.34735 0.0
H3181 H 0.3686 0.19784 0.39686 0.0
H3182 H 0.3949 0.19802 0.37045 0.0
C3183 C 0.35651 0.17605 0.34324 0.0
C3184 C 0.63268 0.80567 0.61576 0.0
C3185 C 0.63717 0.78824 0.60419 0.0
H3186 H 0.61485 0.81883 0.63952 0.0
C3187 C 0.62608 0.77029 0.60784 0.0
H3188 H 0.64086 0.81978 0.61335 0.0
C3189 C 0.61103 0.76974 0.62298 0.0
C3190 C 0.6068 0.78713 0.63473 0.0
H3191 H 0.62915 0.75661 0.59917 0.0
H3192 H 0.60288 0.75565 0.62561 0.0
C3193 C 0.61771 0.80512 0.63081 0.0
C3194 C 0.59552 0.18753 0.36979 0.0
C3195 C 0.60046 0.18313 0.34939 0.0
H3196 H 0.60615 0.19002 0.40059 0.0
C3197 C 0.62078 0.17869 0.34442 0.0
H3198 H 0.58002 0.19105 0.37412 0.0
C3199 C 0.63569 0.17809 0.35954 0.0
C3200 C 0.63069 0.18192 0.38003 0.0
H3201 H 0.62516 0.17531 0.32886 0.0
H3202 H 0.65111 0.17428 0.35516 0.0
C3203 C 0.6105 0.18694 0.38496 0.0
C3204 C 0.77039 0.60619 0.35391 0.0
C3205 C 0.78814 0.60245 0.34253 0.0
H3206 H 0.75626 0.62396 0.3774 0.0
C3207 C 0.80573 0.61384 0.34682 0.0
H3208 H 0.75659 0.59765 0.35099 0.0
C3209 C 0.80554 0.62882 0.36187 0.0
C3210 C 0.78776 0.63284 0.37305 0.0
H3211 H 0.8197 0.61134 0.33841 0.0
H3212 H 0.81937 0.63739 0.36457 0.0
C3213 C 0.7702 0.62125 0.36903 0.0
C3214 C 0.3563 0.79656 0.34104 0.0
C3215 C 0.37684 0.79351 0.34608 0.0
H3216 H 0.3257 0.79897 0.35168 0.0
C3217 C 0.38197 0.78935 0.36648 0.0
H3218 H 0.35177 0.79968 0.32547 0.0
C3219 C 0.36692 0.78896 0.38161 0.0
C3220 C 0.34647 0.79269 0.37662 0.0
H3221 H 0.39765 0.78688 0.37086 0.0
H3222 H 0.37139 0.78619 0.39726 0.0
C3223 C 0.34131 0.79615 0.35611 0.0
C3224 C 0.18818 0.38158 0.3667 0.0
C3225 C 0.18399 0.37656 0.34628 0.0
H3226 H 0.19128 0.37085 0.39741 0.0
C3227 C 0.18083 0.35604 0.34112 0.0
H3228 H 0.19074 0.39724 0.37117 0.0
C3229 C 0.18115 0.34097 0.3561 0.0
C3230 C 0.18462 0.34602 0.37664 0.0
H3231 H 0.17768 0.3516 0.32553 0.0
H3232 H 0.17823 0.32538 0.35159 0.0
C3233 C 0.18849 0.36645 0.38174 0.0
C3234 C 0.35575 0.17977 0.63783 0.0
C3235 C 0.37622 0.18343 0.6328 0.0
H3236 H 0.32522 0.17664 0.62719 0.0
C3237 C 0.38125 0.18794 0.61245 0.0
H3238 H 0.3513 0.17636 0.65337 0.0
C3239 C 0.3662 0.1881 0.59734 0.0
C3240 C 0.34584 0.18376 0.60231 0.0
H3241 H 0.39687 0.19088 0.60808 0.0
H3242 H 0.3706 0.19116 0.58172 0.0
C3243 C 0.34076 0.17993 0.62278 0.0
C3244 C 0.79747 0.35767 0.63525 0.0
C3245 C 0.79342 0.37804 0.63015 0.0
H3246 H 0.80085 0.3271 0.62479 0.0
C3247 C 0.78864 0.38284 0.60981 0.0
H3248 H 0.8011 0.35339 0.65078 0.0
C3249 C 0.78849 0.36767 0.59481 0.0
C3250 C 0.79312 0.3474 0.59987 0.0
H3251 H 0.7854 0.39838 0.60538 0.0
H3252 H 0.78515 0.3719 0.5792 0.0
C3253 C 0.79732 0.34256 0.62031 0.0
C3254 C 0.18813 0.59519 0.61236 0.0
C3255 C 0.18328 0.59992 0.6327 0.0
H3256 H 0.19174 0.60626 0.58181 0.0
C3257 C 0.17939 0.62029 0.63791 0.0
H3258 H 0.19126 0.57966 0.60785 0.0
C3259 C 0.17967 0.63548 0.62305 0.0
C3260 C 0.18385 0.6307 0.60258 0.0
H3261 H 0.17572 0.62452 0.65346 0.0
H3262 H 0.1762 0.65093 0.6276 0.0
C3263 C 0.1884 0.61044 0.59743 0.0
loop_
_geom_bond_atom_site_label_1
_geom_bond_atom_site_label_2
_geom_bond_distance
_geom_bond_site_symmetry_2
_ccdc_geom_bond_type
Zn0 O3 2.031 . S
Zn0 O5 2.049 . S
Zn0 O10 2.067 . S
Zn1 O2 1.962 . S
Zn1 O4 1.986 . S
Zn1 O6 1.996 . S
Zn1 O9 1.943 . S
O2 Zn1 1.962 . S
O2 C7 1.254 . S
O3 Zn0 2.031 . S
O3 C7 1.269 . S
O4 Zn1 1.986 . S
O4 C11 1.262 . S
O5 Zn0 2.049 . S
O5 C13 1.260 . S
O6 Zn1 1.996 . S
O6 C13 1.257 . S
C7 O2 1.254 . S
C7 O3 1.269 . S
C8 O9 1.249 . S
C8 O10 1.270 . S
O9 Zn1 1.943 . S
O9 C8 1.249 . S
O10 Zn0 2.067 . S
O10 C8 1.270 . S
C11 O4 1.262 . S
C11 O12 1.232 . S
O12 C11 1.232 . S
C13 O5 1.260 . S
C13 O6 1.257 . S
Zn14 O17 2.031 . S
Zn14 O19 2.049 . S
Zn14 O24 2.067 . S
Zn15 O16 1.962 . S
Zn15 O18 1.986 . S
Zn15 O20 1.996 . S
Zn15 O23 1.943 . S
O16 Zn15 1.962 . S
O16 C21 1.254 . S
O17 Zn14 2.031 . S
O17 C21 1.269 . S
O18 Zn15 1.986 . S
O18 C25 1.262 . S
O19 Zn14 2.049 . S
O19 C27 1.260 . S
O20 Zn15 1.996 . S
O20 C27 1.257 . S
C21 O16 1.254 . S
C21 O17 1.269 . S
C22 O23 1.249 . S
C22 O24 1.270 . S
O23 Zn15 1.943 . S
O23 C22 1.249 . S
O24 Zn14 2.067 . S
O24 C22 1.270 . S
C25 O18 1.262 . S
C25 O26 1.232 . S
O26 C25 1.232 . S
C27 O19 1.260 . S
C27 O20 1.257 . S
Zn28 O31 2.031 . S
Zn28 O33 2.049 . S
Zn28 O38 2.067 . S
Zn29 O30 1.962 . S
Zn29 O32 1.986 . S
Zn29 O34 1.996 . S
Zn29 O37 1.943 . S
O30 Zn29 1.962 . S
O30 C35 1.254 . S
O31 Zn28 2.031 . S
O31 C35 1.269 . S
O32 Zn29 1.986 . S
O32 C39 1.262 . S
O33 Zn28 2.049 . S
O33 C41 1.260 . S
O34 Zn29 1.996 . S
O34 C41 1.257 . S
C35 O30 1.254 . S
C35 O31 1.269 . S
C36 O37 1.249 . S
C36 O38 1.270 . S
O37 Zn29 1.943 . S
O37 C36 1.249 . S
O38 Zn28 2.067 . S
O38 C36 1.270 . S
C39 O32 1.262 . S
C39 O40 1.232 . S
O40 C39 1.232 . S
C41 O33 1.260 . S
C41 O34 1.257 . S
Zn42 O45 2.031 . S
Zn42 O47 2.049 . S
Zn42 O52 2.067 . S
Zn43 O44 1.962 . S
Zn43 O46 1.986 . S
Zn43 O48 1.996 . S
Zn43 O51 1.943 . S
O44 Zn43 1.962 . S
O44 C49 1.254 . S
O45 Zn42 2.031 . S
O45 C49 1.269 . S
O46 Zn43 1.986 . S
O46 C53 1.262 . S
O47 Zn42 2.049 . S
O47 C55 1.260 . S
O48 Zn43 1.996 . S
O48 C55 1.257 . S
C49 O44 1.254 . S
C49 O45 1.269 . S
C50 O51 1.249 . S
C50 O52 1.270 . S
O51 Zn43 1.943 . S
O51 C50 1.249 . S
O52 Zn42 2.067 . S
O52 C50 1.270 . S
C53 O46 1.262 . S
C53 O54 1.232 . S
O54 C53 1.232 . S
C55 O47 1.260 . S
C55 O48 1.257 . S
Zn56 O59 2.031 . S
Zn56 O61 2.049 . S
Zn56 O66 2.067 . S
Zn57 O58 1.962 . S
Zn57 O60 1.986 . S
Zn57 O62 1.996 . S
Zn57 O65 1.943 . S
O58 Zn57 1.962 . S
O58 C63 1.254 . S
O59 Zn56 2.031 . S
O59 C63 1.269 . S
O60 Zn57 1.986 . S
O60 C67 1.262 . S
O61 Zn56 2.049 . S
O61 C69 1.260 . S
O62 Zn57 1.996 . S
O62 C69 1.257 . S
C63 O58 1.254 . S
C63 O59 1.269 . S
C64 O65 1.249 . S
C64 O66 1.270 . S
O65 Zn57 1.943 . S
O65 C64 1.249 . S
O66 Zn56 2.067 . S
O66 C64 1.270 . S
C67 O60 1.262 . S
C67 O68 1.232 . S
O68 C67 1.232 . S
C69 O61 1.260 . S
C69 O62 1.257 . S
Zn70 O73 2.031 . S
Zn70 O75 2.049 . S
Zn70 O80 2.067 . S
Zn71 O72 1.962 . S
Zn71 O74 1.986 . S
Zn71 O76 1.996 . S
Zn71 O79 1.943 . S
O72 Zn71 1.962 . S
O72 C77 1.254 . S
O73 Zn70 2.031 . S
O73 C77 1.269 . S
O74 Zn71 1.986 . S
O74 C81 1.262 . S
O75 Zn70 2.049 . S
O75 C83 1.260 . S
O76 Zn71 1.996 . S
O76 C83 1.257 . S
C77 O72 1.254 . S
C77 O73 1.269 . S
C78 O79 1.249 . S
C78 O80 1.270 . S
O79 Zn71 1.943 . S
O79 C78 1.249 . S
O80 Zn70 2.067 . S
O80 C78 1.270 . S
C81 O74 1.262 . S
C81 O82 1.232 . S
O82 C81 1.232 . S
C83 O75 1.260 . S
C83 O76 1.257 . S
Zn84 O87 2.031 . S
Zn84 O89 2.049 . S
Zn84 O94 2.067 . S
Zn85 O86 1.962 . S
Zn85 O88 1.986 . S
Zn85 O90 1.996 . S
Zn85 O93 1.943 . S
O86 Zn85 1.962 . S
O86 C91 1.254 . S
O87 Zn84 2.031 . S
O87 C91 1.269 . S
O88 Zn85 1.986 . S
O88 C95 1.262 . S
O89 Zn84 2.049 . S
O89 C97 1.260 . S
O90 Zn85 1.996 . S
O90 C97 1.257 . S
C91 O86 1.254 . S
C91 O87 1.269 . S
C92 O93 1.249 . S
C92 O94 1.270 . S
O93 Zn85 1.943 . S
O93 C92 1.249 . S
O94 Zn84 2.067 . S
O94 C92 1.270 . S
C95 O88 1.262 . S
C95 O96 1.232 . S
O96 C95 1.232 . S
C97 O89 1.260 . S
C97 O90 1.257 . S
Zn98 O101 2.031 . S
Zn98 O103 2.049 . S
Zn98 O108 2.067 . S
Zn99 O100 1.962 . S
Zn99 O102 1.986 . S
Zn99 O104 1.996 . S
Zn99 O107 1.943 . S
O100 Zn99 1.962 . S
O100 C105 1.254 . S
O101 Zn98 2.031 . S
O101 C105 1.269 . S
O102 Zn99 1.986 . S
O102 C109 1.262 . S
O103 Zn98 2.049 . S
O103 C111 1.260 . S
O104 Zn99 1.996 . S
O104 C111 1.257 . S
C105 O100 1.254 . S
C105 O101 1.269 . S
C106 O107 1.249 . S
C106 O108 1.270 . S
O107 Zn99 1.943 . S
O107 C106 1.249 . S
O108 Zn98 2.067 . S
O108 C106 1.270 . S
C109 O102 1.262 . S
C109 O110 1.232 . S
O110 C109 1.232 . S
C111 O103 1.260 . S
C111 O104 1.257 . S
Zn112 O115 2.031 . S
Zn112 O117 2.049 . S
Zn112 O122 2.067 . S
Zn113 O114 1.962 . S
Zn113 O116 1.986 . S
Zn113 O118 1.996 . S
Zn113 O121 1.943 . S
O114 Zn113 1.962 . S
O114 C119 1.254 . S
O115 Zn112 2.031 . S
O115 C119 1.269 . S
O116 Zn113 1.986 . S
O116 C123 1.262 . S
O117 Zn112 2.049 . S
O117 C125 1.260 . S
O118 Zn113 1.996 . S
O118 C125 1.257 . S
C119 O114 1.254 . S
C119 O115 1.269 . S
C120 O121 1.249 . S
C120 O122 1.270 . S
O121 Zn113 1.943 . S
O121 C120 1.249 . S
O122 Zn112 2.067 . S
O122 C120 1.270 . S
C123 O116 1.262 . S
C123 O124 1.232 . S
O124 C123 1.232 . S
C125 O117 1.260 . S
C125 O118 1.257 . S
Zn126 O129 2.031 . S
Zn126 O131 2.049 . S
Zn126 O136 2.067 . S
Zn127 O128 1.962 . S
Zn127 O130 1.986 . S
Zn127 O132 1.996 . S
Zn127 O135 1.943 . S
O128 Zn127 1.962 . S
O128 C133 1.254 . S
O129 Zn126 2.031 . S
O129 C133 1.269 . S
O130 Zn127 1.986 . S
O130 C137 1.262 . S
O131 Zn126 2.049 . S
O131 C139 1.260 . S
O132 Zn127 1.996 . S
O132 C139 1.257 . S
C133 O128 1.254 . S
C133 O129 1.269 . S
C134 O135 1.249 . S
C134 O136 1.270 . S
O135 Zn127 1.943 . S
O135 C134 1.249 . S
O136 Zn126 2.067 . S
O136 C134 1.270 . S
C137 O130 1.262 . S
C137 O138 1.232 . S
O138 C137 1.232 . S
C139 O131 1.260 . S
C139 O132 1.257 . S
Zn140 O143 2.031 . S
Zn140 O145 2.049 . S
Zn140 O150 2.067 . S
Zn141 O142 1.962 . S
Zn141 O144 1.986 . S
Zn141 O146 1.996 . S
Zn141 O149 1.943 . S
O142 Zn141 1.962 . S
O142 C147 1.254 . S
O143 Zn140 2.031 . S
O143 C147 1.269 . S
O144 Zn141 1.986 . S
O144 C151 1.262 . S
O145 Zn140 2.049 . S
O145 C153 1.260 . S
O146 Zn141 1.996 . S
O146 C153 1.257 . S
C147 O142 1.254 . S
C147 O143 1.269 . S
C148 O149 1.249 . S
C148 O150 1.270 . S
O149 Zn141 1.943 . S
O149 C148 1.249 . S
O150 Zn140 2.067 . S
O150 C148 1.270 . S
C151 O144 1.262 . S
C151 O152 1.232 . S
O152 C151 1.232 . S
C153 O145 1.260 . S
C153 O146 1.257 . S
Zn154 O157 2.031 . S
Zn154 O159 2.049 . S
Zn154 O164 2.067 . S
Zn155 O156 1.962 . S
Zn155 O158 1.986 . S
Zn155 O160 1.996 . S
Zn155 O163 1.943 . S
O156 Zn155 1.962 . S
O156 C161 1.254 . S
O157 Zn154 2.031 . S
O157 C161 1.269 . S
O158 Zn155 1.986 . S
O158 C165 1.262 . S
O159 Zn154 2.049 . S
O159 C167 1.260 . S
O160 Zn155 1.996 . S
O160 C167 1.257 . S
C161 O156 1.254 . S
C161 O157 1.269 . S
C162 O163 1.249 . S
C162 O164 1.270 . S
O163 Zn155 1.943 . S
O163 C162 1.249 . S
O164 Zn154 2.067 . S
O164 C162 1.270 . S
C165 O158 1.262 . S
C165 O166 1.232 . S
O166 C165 1.232 . S
C167 O159 1.260 . S
C167 O160 1.257 . S
Zn168 O171 2.031 . S
Zn168 O173 2.049 . S
Zn168 O178 2.067 . S
Zn169 O170 1.962 . S
Zn169 O172 1.986 . S
Zn169 O174 1.996 . S
Zn169 O177 1.943 . S
O170 Zn169 1.962 . S
O170 C175 1.254 . S
O171 Zn168 2.031 . S
O171 C175 1.269 . S
O172 Zn169 1.986 . S
O172 C179 1.262 . S
O173 Zn168 2.049 . S
O173 C181 1.260 . S
O174 Zn169 1.996 . S
O174 C181 1.257 . S
C175 O170 1.254 . S
C175 O171 1.269 . S
C176 O177 1.249 . S
C176 O178 1.270 . S
O177 Zn169 1.943 . S
O177 C176 1.249 . S
O178 Zn168 2.067 . S
O178 C176 1.270 . S
C179 O172 1.262 . S
C179 O180 1.232 . S
O180 C179 1.232 . S
C181 O173 1.260 . S
C181 O174 1.257 . S
Zn182 O185 2.031 . S
Zn182 O187 2.049 . S
Zn182 O192 2.067 . S
Zn183 O184 1.962 . S
Zn183 O186 1.986 . S
Zn183 O188 1.996 . S
Zn183 O191 1.943 . S
O184 Zn183 1.962 . S
O184 C189 1.254 . S
O185 Zn182 2.031 . S
O185 C189 1.269 . S
O186 Zn183 1.986 . S
O186 C193 1.262 . S
O187 Zn182 2.049 . S
O187 C195 1.260 . S
O188 Zn183 1.996 . S
O188 C195 1.257 . S
C189 O184 1.254 . S
C189 O185 1.269 . S
C190 O191 1.249 . S
C190 O192 1.270 . S
O191 Zn183 1.943 . S
O191 C190 1.249 . S
O192 Zn182 2.067 . S
O192 C190 1.270 . S
C193 O186 1.262 . S
C193 O194 1.232 . S
O194 C193 1.232 . S
C195 O187 1.260 . S
C195 O188 1.257 . S
Zn196 O199 2.031 . S
Zn196 O201 2.049 . S
Zn196 O206 2.067 . S
Zn197 O198 1.962 . S
Zn197 O200 1.986 . S
Zn197 O202 1.996 . S
Zn197 O205 1.943 . S
O198 Zn197 1.962 . S
O198 C203 1.254 . S
O199 Zn196 2.031 . S
O199 C203 1.269 . S
O200 Zn197 1.986 . S
O200 C207 1.262 . S
O201 Zn196 2.049 . S
O201 C209 1.260 . S
O202 Zn197 1.996 . S
O202 C209 1.257 . S
C203 O198 1.254 . S
C203 O199 1.269 . S
C204 O205 1.249 . S
C204 O206 1.270 . S
O205 Zn197 1.943 . S
O205 C204 1.249 . S
O206 Zn196 2.067 . S
O206 C204 1.270 . S
C207 O200 1.262 . S
C207 O208 1.232 . S
O208 C207 1.232 . S
C209 O201 1.260 . S
C209 O202 1.257 . S
Zn210 O213 2.031 . S
Zn210 O215 2.049 . S
Zn210 O220 2.067 . S
Zn211 O212 1.962 . S
Zn211 O214 1.986 . S
Zn211 O216 1.996 . S
Zn211 O219 1.943 . S
O212 Zn211 1.962 . S
O212 C217 1.254 . S
O213 Zn210 2.031 . S
O213 C217 1.269 . S
O214 Zn211 1.986 . S
O214 C221 1.262 . S
O215 Zn210 2.049 . S
O215 C223 1.260 . S
O216 Zn211 1.996 . S
O216 C223 1.257 . S
C217 O212 1.254 . S
C217 O213 1.269 . S
C218 O219 1.249 . S
C218 O220 1.270 . S
O219 Zn211 1.943 . S
O219 C218 1.249 . S
O220 Zn210 2.067 . S
O220 C218 1.270 . S
C221 O214 1.262 . S
C221 O222 1.232 . S
O222 C221 1.232 . S
C223 O215 1.260 . S
C223 O216 1.257 . S
Zn224 O227 2.031 . S
Zn224 O229 2.049 . S
Zn224 O234 2.067 . S
Zn225 O226 1.962 . S
Zn225 O228 1.986 . S
Zn225 O230 1.996 . S
Zn225 O233 1.943 . S
O226 Zn225 1.962 . S
O226 C231 1.254 . S
O227 Zn224 2.031 . S
O227 C231 1.269 . S
O228 Zn225 1.986 . S
O228 C235 1.262 . S
O229 Zn224 2.049 . S
O229 C237 1.260 . S
O230 Zn225 1.996 . S
O230 C237 1.257 . S
C231 O226 1.254 . S
C231 O227 1.269 . S
C232 O233 1.249 . S
C232 O234 1.270 . S
O233 Zn225 1.943 . S
O233 C232 1.249 . S
O234 Zn224 2.067 . S
O234 C232 1.270 . S
C235 O228 1.262 . S
C235 O236 1.232 . S
O236 C235 1.232 . S
C237 O229 1.260 . S
C237 O230 1.257 . S
Zn238 O241 2.031 . S
Zn238 O243 2.049 . S
Zn238 O248 2.067 . S
Zn239 O240 1.962 . S
Zn239 O242 1.986 . S
Zn239 O244 1.996 . S
Zn239 O247 1.943 . S
O240 Zn239 1.962 . S
O240 C245 1.254 . S
O241 Zn238 2.031 . S
O241 C245 1.269 . S
O242 Zn239 1.986 . S
O242 C249 1.262 . S
O243 Zn238 2.049 . S
O243 C251 1.260 . S
O244 Zn239 1.996 . S
O244 C251 1.257 . S
C245 O240 1.254 . S
C245 O241 1.269 . S
C246 O247 1.249 . S
C246 O248 1.270 . S
O247 Zn239 1.943 . S
O247 C246 1.249 . S
O248 Zn238 2.067 . S
O248 C246 1.270 . S
C249 O242 1.262 . S
C249 O250 1.232 . S
O250 C249 1.232 . S
C251 O243 1.260 . S
C251 O244 1.257 . S
Zn252 O255 2.031 . S
Zn252 O257 2.049 . S
Zn252 O262 2.067 . S
Zn253 O254 1.962 . S
Zn253 O256 1.986 . S
Zn253 O258 1.996 . S
Zn253 O261 1.943 . S
O254 Zn253 1.962 . S
O254 C259 1.254 . S
O255 Zn252 2.031 . S
O255 C259 1.269 . S
O256 Zn253 1.986 . S
O256 C263 1.262 . S
O257 Zn252 2.049 . S
O257 C265 1.260 . S
O258 Zn253 1.996 . S
O258 C265 1.257 . S
C259 O254 1.254 . S
C259 O255 1.269 . S
C260 O261 1.249 . S
C260 O262 1.270 . S
O261 Zn253 1.943 . S
O261 C260 1.249 . S
O262 Zn252 2.067 . S
O262 C260 1.270 . S
C263 O256 1.262 . S
C263 O264 1.232 . S
O264 C263 1.232 . S
C265 O257 1.260 . S
C265 O258 1.257 . S
Zn266 O269 2.031 . S
Zn266 O271 2.049 . S
Zn266 O276 2.067 . S
Zn267 O268 1.962 . S
Zn267 O270 1.986 . S
Zn267 O272 1.996 . S
Zn267 O275 1.943 . S
O268 Zn267 1.962 . S
O268 C273 1.254 . S
O269 Zn266 2.031 . S
O269 C273 1.269 . S
O270 Zn267 1.986 . S
O270 C277 1.262 . S
O271 Zn266 2.049 . S
O271 C279 1.260 . S
O272 Zn267 1.996 . S
O272 C279 1.257 . S
C273 O268 1.254 . S
C273 O269 1.269 . S
C274 O275 1.249 . S
C274 O276 1.270 . S
O275 Zn267 1.943 . S
O275 C274 1.249 . S
O276 Zn266 2.067 . S
O276 C274 1.270 . S
C277 O270 1.262 . S
C277 O278 1.232 . S
O278 C277 1.232 . S
C279 O271 1.260 . S
C279 O272 1.257 . S
Zn280 O283 2.031 . S
Zn280 O285 2.049 . S
Zn280 O290 2.067 . S
Zn281 O282 1.962 . S
Zn281 O284 1.986 . S
Zn281 O286 1.996 . S
Zn281 O289 1.943 . S
O282 Zn281 1.962 . S
O282 C287 1.254 . S
O283 Zn280 2.031 . S
O283 C287 1.269 . S
O284 Zn281 1.986 . S
O284 C291 1.262 . S
O285 Zn280 2.049 . S
O285 C293 1.260 . S
O286 Zn281 1.996 . S
O286 C293 1.257 . S
C287 O282 1.254 . S
C287 O283 1.269 . S
C288 O289 1.249 . S
C288 O290 1.270 . S
O289 Zn281 1.943 . S
O289 C288 1.249 . S
O290 Zn280 2.067 . S
O290 C288 1.270 . S
C291 O284 1.262 . S
C291 O292 1.232 . S
O292 C291 1.232 . S
C293 O285 1.260 . S
C293 O286 1.257 . S
Zn294 O297 2.031 . S
Zn294 O299 2.049 . S
Zn294 O304 2.067 . S
Zn295 O296 1.962 . S
Zn295 O298 1.986 . S
Zn295 O300 1.996 . S
Zn295 O303 1.943 . S
O296 Zn295 1.962 . S
O296 C301 1.254 . S
O297 Zn294 2.031 . S
O297 C301 1.269 . S
O298 Zn295 1.986 . S
O298 C305 1.262 . S
O299 Zn294 2.049 . S
O299 C307 1.260 . S
O300 Zn295 1.996 . S
O300 C307 1.257 . S
C301 O296 1.254 . S
C301 O297 1.269 . S
C302 O303 1.249 . S
C302 O304 1.270 . S
O303 Zn295 1.943 . S
O303 C302 1.249 . S
O304 Zn294 2.067 . S
O304 C302 1.270 . S
C305 O298 1.262 . S
C305 O306 1.232 . S
O306 C305 1.232 . S
C307 O299 1.260 . S
C307 O300 1.257 . S
Zn308 O311 2.031 . S
Zn308 O313 2.049 . S
Zn308 O318 2.067 . S
Zn309 O310 1.962 . S
Zn309 O312 1.986 . S
Zn309 O314 1.996 . S
Zn309 O317 1.943 . S
O310 Zn309 1.962 . S
O310 C315 1.254 . S
O311 Zn308 2.031 . S
O311 C315 1.269 . S
O312 Zn309 1.986 . S
O312 C319 1.262 . S
O313 Zn308 2.049 . S
O313 C321 1.260 . S
O314 Zn309 1.996 . S
O314 C321 1.257 . S
C315 O310 1.254 . S
C315 O311 1.269 . S
C316 O317 1.249 . S
C316 O318 1.270 . S
O317 Zn309 1.943 . S
O317 C316 1.249 . S
O318 Zn308 2.067 . S
O318 C316 1.270 . S
C319 O312 1.262 . S
C319 O320 1.232 . S
O320 C319 1.232 . S
C321 O313 1.260 . S
C321 O314 1.257 . S
Zn322 O325 2.031 . S
Zn322 O327 2.049 . S
Zn322 O332 2.067 . S
Zn323 O324 1.962 . S
Zn323 O326 1.986 . S
Zn323 O328 1.996 . S
Zn323 O331 1.943 . S
O324 Zn323 1.962 . S
O324 C329 1.254 . S
O325 Zn322 2.031 . S
O325 C329 1.269 . S
O326 Zn323 1.986 . S
O326 C333 1.262 . S
O327 Zn322 2.049 . S
O327 C335 1.260 . S
O328 Zn323 1.996 . S
O328 C335 1.257 . S
C329 O324 1.254 . S
C329 O325 1.269 . S
C330 O331 1.249 . S
C330 O332 1.270 . S
O331 Zn323 1.943 . S
O331 C330 1.249 . S
O332 Zn322 2.067 . S
O332 C330 1.270 . S
C333 O326 1.262 . S
C333 O334 1.232 . S
O334 C333 1.232 . S
C335 O327 1.260 . S
C335 O328 1.257 . S
Zn336 O339 2.031 . S
Zn336 O341 2.049 . S
Zn336 O346 2.067 . S
Zn337 O338 1.962 . S
Zn337 O340 1.986 . S
Zn337 O342 1.996 . S
Zn337 O345 1.943 . S
O338 Zn337 1.962 . S
O338 C343 1.254 . S
O339 Zn336 2.031 . S
O339 C343 1.269 . S
O340 Zn337 1.986 . S
O340 C347 1.262 . S
O341 Zn336 2.049 . S
O341 C349 1.260 . S
O342 Zn337 1.996 . S
O342 C349 1.257 . S
C343 O338 1.254 . S
C343 O339 1.269 . S
C344 O345 1.249 . S
C344 O346 1.270 . S
O345 Zn337 1.943 . S
O345 C344 1.249 . S
O346 Zn336 2.067 . S
O346 C344 1.270 . S
C347 O340 1.262 . S
C347 O348 1.232 . S
O348 C347 1.232 . S
C349 O341 1.260 . S
C349 O342 1.257 . S
Zn350 O353 2.031 . S
Zn350 O355 2.049 . S
Zn350 O360 2.067 . S
Zn351 O352 1.962 . S
Zn351 O354 1.986 . S
Zn351 O356 1.996 . S
Zn351 O359 1.943 . S
O352 Zn351 1.962 . S
O352 C357 1.254 . S
O353 Zn350 2.031 . S
O353 C357 1.269 . S
O354 Zn351 1.986 . S
O354 C361 1.262 . S
O355 Zn350 2.049 . S
O355 C363 1.260 . S
O356 Zn351 1.996 . S
O356 C363 1.257 . S
C357 O352 1.254 . S
C357 O353 1.269 . S
C358 O359 1.249 . S
C358 O360 1.270 . S
O359 Zn351 1.943 . S
O359 C358 1.249 . S
O360 Zn350 2.067 . S
O360 C358 1.270 . S
C361 O354 1.262 . S
C361 O362 1.232 . S
O362 C361 1.232 . S
C363 O355 1.260 . S
C363 O356 1.257 . S
Zn364 O367 2.031 . S
Zn364 O369 2.049 . S
Zn364 O374 2.067 . S
Zn365 O366 1.962 . S
Zn365 O368 1.986 . S
Zn365 O370 1.996 . S
Zn365 O373 1.943 . S
O366 Zn365 1.962 . S
O366 C371 1.254 . S
O367 Zn364 2.031 . S
O367 C371 1.269 . S
O368 Zn365 1.986 . S
O368 C375 1.262 . S
O369 Zn364 2.049 . S
O369 C377 1.260 . S
O370 Zn365 1.996 . S
O370 C377 1.257 . S
C371 O366 1.254 . S
C371 O367 1.269 . S
C372 O373 1.249 . S
C372 O374 1.270 . S
O373 Zn365 1.943 . S
O373 C372 1.249 . S
O374 Zn364 2.067 . S
O374 C372 1.270 . S
C375 O368 1.262 . S
C375 O376 1.232 . S
O376 C375 1.232 . S
C377 O369 1.260 . S
C377 O370 1.257 . S
Zn378 O381 2.031 . S
Zn378 O383 2.049 . S
Zn378 O388 2.067 . S
Zn379 O380 1.962 . S
Zn379 O382 1.986 . S
Zn379 O384 1.996 . S
Zn379 O387 1.943 . S
O380 Zn379 1.962 . S
O380 C385 1.254 . S
O381 Zn378 2.031 . S
O381 C385 1.269 . S
O382 Zn379 1.986 . S
O382 C389 1.262 . S
O383 Zn378 2.049 . S
O383 C391 1.260 . S
O384 Zn379 1.996 . S
O384 C391 1.257 . S
C385 O380 1.254 . S
C385 O381 1.269 . S
C386 O387 1.249 . S
C386 O388 1.270 . S
O387 Zn379 1.943 . S
O387 C386 1.249 . S
O388 Zn378 2.067 . S
O388 C386 1.270 . S
C389 O382 1.262 . S
C389 O390 1.232 . S
O390 C389 1.232 . S
C391 O383 1.260 . S
C391 O384 1.257 . S
Zn392 O395 2.031 . S
Zn392 O397 2.049 . S
Zn392 O402 2.067 . S
Zn393 O394 1.962 . S
Zn393 O396 1.986 . S
Zn393 O398 1.996 . S
Zn393 O401 1.943 . S
O394 Zn393 1.962 . S
O394 C399 1.254 . S
O395 Zn392 2.031 . S
O395 C399 1.269 . S
O396 Zn393 1.986 . S
O396 C403 1.262 . S
O397 Zn392 2.049 . S
O397 C405 1.260 . S
O398 Zn393 1.996 . S
O398 C405 1.257 . S
C399 O394 1.254 . S
C399 O395 1.269 . S
C400 O401 1.249 . S
C400 O402 1.270 . S
O401 Zn393 1.943 . S
O401 C400 1.249 . S
O402 Zn392 2.067 . S
O402 C400 1.270 . S
C403 O396 1.262 . S
C403 O404 1.232 . S
O404 C403 1.232 . S
C405 O397 1.260 . S
C405 O398 1.257 . S
Zn406 O409 2.031 . S
Zn406 O411 2.049 . S
Zn406 O416 2.067 . S
Zn407 O408 1.962 . S
Zn407 O410 1.986 . S
Zn407 O412 1.996 . S
Zn407 O415 1.943 . S
O408 Zn407 1.962 . S
O408 C413 1.254 . S
O409 Zn406 2.031 . S
O409 C413 1.269 . S
O410 Zn407 1.986 . S
O410 C417 1.262 . S
O411 Zn406 2.049 . S
O411 C419 1.260 . S
O412 Zn407 1.996 . S
O412 C419 1.257 . S
C413 O408 1.254 . S
C413 O409 1.269 . S
C414 O415 1.249 . S
C414 O416 1.270 . S
O415 Zn407 1.943 . S
O415 C414 1.249 . S
O416 Zn406 2.067 . S
O416 C414 1.270 . S
C417 O410 1.262 . S
C417 O418 1.232 . S
O418 C417 1.232 . S
C419 O411 1.260 . S
C419 O412 1.257 . S
Zn420 O423 2.031 . S
Zn420 O425 2.049 . S
Zn420 O430 2.067 . S
Zn421 O422 1.962 . S
Zn421 O424 1.986 . S
Zn421 O426 1.996 . S
Zn421 O429 1.943 . S
O422 Zn421 1.962 . S
O422 C427 1.254 . S
O423 Zn420 2.031 . S
O423 C427 1.269 . S
O424 Zn421 1.986 . S
O424 C431 1.262 . S
O425 Zn420 2.049 . S
O425 C433 1.260 . S
O426 Zn421 1.996 . S
O426 C433 1.257 . S
C427 O422 1.254 . S
C427 O423 1.269 . S
C428 O429 1.249 . S
C428 O430 1.270 . S
O429 Zn421 1.943 . S
O429 C428 1.249 . S
O430 Zn420 2.067 . S
O430 C428 1.270 . S
C431 O424 1.262 . S
C431 O432 1.232 . S
O432 C431 1.232 . S
C433 O425 1.260 . S
C433 O426 1.257 . S
Zn434 O437 2.031 . S
Zn434 O439 2.049 . S
Zn434 O444 2.067 . S
Zn435 O436 1.962 . S
Zn435 O438 1.986 . S
Zn435 O440 1.996 . S
Zn435 O443 1.943 . S
O436 Zn435 1.962 . S
O436 C441 1.254 . S
O437 Zn434 2.031 . S
O437 C441 1.269 . S
O438 Zn435 1.986 . S
O438 C445 1.262 . S
O439 Zn434 2.049 . S
O439 C447 1.260 . S
O440 Zn435 1.996 . S
O440 C447 1.257 . S
C441 O436 1.254 . S
C441 O437 1.269 . S
C442 O443 1.249 . S
C442 O444 1.270 . S
O443 Zn435 1.943 . S
O443 C442 1.249 . S
O444 Zn434 2.067 . S
O444 C442 1.270 . S
C445 O438 1.262 . S
C445 O446 1.232 . S
O446 C445 1.232 . S
C447 O439 1.260 . S
C447 O440 1.257 . S
Zn448 O451 2.031 . S
Zn448 O453 2.049 . S
Zn448 O458 2.067 . S
Zn449 O450 1.962 . S
Zn449 O452 1.986 . S
Zn449 O454 1.996 . S
Zn449 O457 1.943 . S
O450 Zn449 1.962 . S
O450 C455 1.254 . S
O451 Zn448 2.031 . S
O451 C455 1.269 . S
O452 Zn449 1.986 . S
O452 C459 1.262 . S
O453 Zn448 2.049 . S
O453 C461 1.260 . S
O454 Zn449 1.996 . S
O454 C461 1.257 . S
C455 O450 1.254 . S
C455 O451 1.269 . S
C456 O457 1.249 . S
C456 O458 1.270 . S
O457 Zn449 1.943 . S
O457 C456 1.249 . S
O458 Zn448 2.067 . S
O458 C456 1.270 . S
C459 O452 1.262 . S
C459 O460 1.232 . S
O460 C459 1.232 . S
C461 O453 1.260 . S
C461 O454 1.257 . S
Zn462 O465 2.031 . S
Zn462 O467 2.049 . S
Zn462 O472 2.067 . S
Zn463 O464 1.962 . S
Zn463 O466 1.986 . S
Zn463 O468 1.996 . S
Zn463 O471 1.943 . S
O464 Zn463 1.962 . S
O464 C469 1.254 . S
O465 Zn462 2.031 . S
O465 C469 1.269 . S
O466 Zn463 1.986 . S
O466 C473 1.262 . S
O467 Zn462 2.049 . S
O467 C475 1.260 . S
O468 Zn463 1.996 . S
O468 C475 1.257 . S
C469 O464 1.254 . S
C469 O465 1.269 . S
C470 O471 1.249 . S
C470 O472 1.270 . S
O471 Zn463 1.943 . S
O471 C470 1.249 . S
O472 Zn462 2.067 . S
O472 C470 1.270 . S
C473 O466 1.262 . S
C473 O474 1.232 . S
O474 C473 1.232 . S
C475 O467 1.260 . S
C475 O468 1.257 . S
Zn476 O479 2.031 . S
Zn476 O481 2.049 . S
Zn476 O486 2.067 . S
Zn477 O478 1.962 . S
Zn477 O480 1.986 . S
Zn477 O482 1.996 . S
Zn477 O485 1.943 . S
O478 Zn477 1.962 . S
O478 C483 1.254 . S
O479 Zn476 2.031 . S
O479 C483 1.269 . S
O480 Zn477 1.986 . S
O480 C487 1.262 . S
O481 Zn476 2.049 . S
O481 C489 1.260 . S
O482 Zn477 1.996 . S
O482 C489 1.257 . S
C483 O478 1.254 . S
C483 O479 1.269 . S
C484 O485 1.249 . S
C484 O486 1.270 . S
O485 Zn477 1.943 . S
O485 C484 1.249 . S
O486 Zn476 2.067 . S
O486 C484 1.270 . S
C487 O480 1.262 . S
C487 O488 1.232 . S
O488 C487 1.232 . S
C489 O481 1.260 . S
C489 O482 1.257 . S
Zn490 O493 2.031 . S
Zn490 O495 2.049 . S
Zn490 O500 2.067 . S
Zn491 O492 1.962 . S
Zn491 O494 1.986 . S
Zn491 O496 1.996 . S
Zn491 O499 1.943 . S
O492 Zn491 1.962 . S
O492 C497 1.254 . S
O493 Zn490 2.031 . S
O493 C497 1.269 . S
O494 Zn491 1.986 . S
O494 C501 1.262 . S
O495 Zn490 2.049 . S
O495 C503 1.260 . S
O496 Zn491 1.996 . S
O496 C503 1.257 . S
C497 O492 1.254 . S
C497 O493 1.269 . S
C498 O499 1.249 . S
C498 O500 1.270 . S
O499 Zn491 1.943 . S
O499 C498 1.249 . S
O500 Zn490 2.067 . S
O500 C498 1.270 . S
C501 O494 1.262 . S
C501 O502 1.232 . S
O502 C501 1.232 . S
C503 O495 1.260 . S
C503 O496 1.257 . S
Zn504 O507 2.031 . S
Zn504 O509 2.049 . S
Zn504 O514 2.067 . S
Zn505 O506 1.962 . S
Zn505 O508 1.986 . S
Zn505 O510 1.996 . S
Zn505 O513 1.943 . S
O506 Zn505 1.962 . S
O506 C511 1.254 . S
O507 Zn504 2.031 . S
O507 C511 1.269 . S
O508 Zn505 1.986 . S
O508 C515 1.262 . S
O509 Zn504 2.049 . S
O509 C517 1.260 . S
O510 Zn505 1.996 . S
O510 C517 1.257 . S
C511 O506 1.254 . S
C511 O507 1.269 . S
C512 O513 1.249 . S
C512 O514 1.270 . S
O513 Zn505 1.943 . S
O513 C512 1.249 . S
O514 Zn504 2.067 . S
O514 C512 1.270 . S
C515 O508 1.262 . S
C515 O516 1.232 . S
O516 C515 1.232 . S
C517 O509 1.260 . S
C517 O510 1.257 . S
Zn518 O521 2.031 . S
Zn518 O523 2.049 . S
Zn518 O528 2.067 . S
Zn519 O520 1.962 . S
Zn519 O522 1.986 . S
Zn519 O524 1.996 . S
Zn519 O527 1.943 . S
O520 Zn519 1.962 . S
O520 C525 1.254 . S
O521 Zn518 2.031 . S
O521 C525 1.269 . S
O522 Zn519 1.986 . S
O522 C529 1.262 . S
O523 Zn518 2.049 . S
O523 C531 1.260 . S
O524 Zn519 1.996 . S
O524 C531 1.257 . S
C525 O520 1.254 . S
C525 O521 1.269 . S
C526 O527 1.249 . S
C526 O528 1.270 . S
O527 Zn519 1.943 . S
O527 C526 1.249 . S
O528 Zn518 2.067 . S
O528 C526 1.270 . S
C529 O522 1.262 . S
C529 O530 1.232 . S
O530 C529 1.232 . S
C531 O523 1.260 . S
C531 O524 1.257 . S
Zn532 O535 2.031 . S
Zn532 O537 2.049 . S
Zn532 O542 2.067 . S
Zn533 O534 1.962 . S
Zn533 O536 1.986 . S
Zn533 O538 1.996 . S
Zn533 O541 1.943 . S
O534 Zn533 1.962 . S
O534 C539 1.254 . S
O535 Zn532 2.031 . S
O535 C539 1.269 . S
O536 Zn533 1.986 . S
O536 C543 1.262 . S
O537 Zn532 2.049 . S
O537 C545 1.260 . S
O538 Zn533 1.996 . S
O538 C545 1.257 . S
C539 O534 1.254 . S
C539 O535 1.269 . S
C540 O541 1.249 . S
C540 O542 1.270 . S
O541 Zn533 1.943 . S
O541 C540 1.249 . S
O542 Zn532 2.067 . S
O542 C540 1.270 . S
C543 O536 1.262 . S
C543 O544 1.232 . S
O544 C543 1.232 . S
C545 O537 1.260 . S
C545 O538 1.257 . S
Zn546 O549 2.031 . S
Zn546 O551 2.049 . S
Zn546 O556 2.067 . S
Zn547 O548 1.962 . S
Zn547 O550 1.986 . S
Zn547 O552 1.996 . S
Zn547 O555 1.943 . S
O548 Zn547 1.962 . S
O548 C553 1.254 . S
O549 Zn546 2.031 . S
O549 C553 1.269 . S
O550 Zn547 1.986 . S
O550 C557 1.262 . S
O551 Zn546 2.049 . S
O551 C559 1.260 . S
O552 Zn547 1.996 . S
O552 C559 1.257 . S
C553 O548 1.254 . S
C553 O549 1.269 . S
C554 O555 1.249 . S
C554 O556 1.270 . S
O555 Zn547 1.943 . S
O555 C554 1.249 . S
O556 Zn546 2.067 . S
O556 C554 1.270 . S
C557 O550 1.262 . S
C557 O558 1.232 . S
O558 C557 1.232 . S
C559 O551 1.260 . S
C559 O552 1.257 . S
Zn560 O563 2.031 . S
Zn560 O565 2.049 . S
Zn560 O570 2.067 . S
Zn561 O562 1.962 . S
Zn561 O564 1.986 . S
Zn561 O566 1.996 . S
Zn561 O569 1.943 . S
O562 Zn561 1.962 . S
O562 C567 1.254 . S
O563 Zn560 2.031 . S
O563 C567 1.269 . S
O564 Zn561 1.986 . S
O564 C571 1.262 . S
O565 Zn560 2.049 . S
O565 C573 1.260 . S
O566 Zn561 1.996 . S
O566 C573 1.257 . S
C567 O562 1.254 . S
C567 O563 1.269 . S
C568 O569 1.249 . S
C568 O570 1.270 . S
O569 Zn561 1.943 . S
O569 C568 1.249 . S
O570 Zn560 2.067 . S
O570 C568 1.270 . S
C571 O564 1.262 . S
C571 O572 1.232 . S
O572 C571 1.232 . S
C573 O565 1.260 . S
C573 O566 1.257 . S
Zn574 O577 2.031 . S
Zn574 O579 2.049 . S
Zn574 O584 2.067 . S
Zn575 O576 1.962 . S
Zn575 O578 1.986 . S
Zn575 O580 1.996 . S
Zn575 O583 1.943 . S
O576 Zn575 1.962 . S
O576 C581 1.254 . S
O577 Zn574 2.031 . S
O577 C581 1.269 . S
O578 Zn575 1.986 . S
O578 C585 1.262 . S
O579 Zn574 2.049 . S
O579 C587 1.260 . S
O580 Zn575 1.996 . S
O580 C587 1.257 . S
C581 O576 1.254 . S
C581 O577 1.269 . S
C582 O583 1.249 . S
C582 O584 1.270 . S
O583 Zn575 1.943 . S
O583 C582 1.249 . S
O584 Zn574 2.067 . S
O584 C582 1.270 . S
C585 O578 1.262 . S
C585 O586 1.232 . S
O586 C585 1.232 . S
C587 O579 1.260 . S
C587 O580 1.257 . S
Zn588 O591 2.031 . S
Zn588 O593 2.049 . S
Zn588 O598 2.067 . S
Zn589 O590 1.962 . S
Zn589 O592 1.986 . S
Zn589 O594 1.996 . S
Zn589 O597 1.943 . S
O590 Zn589 1.962 . S
O590 C595 1.254 . S
O591 Zn588 2.031 . S
O591 C595 1.269 . S
O592 Zn589 1.986 . S
O592 C599 1.262 . S
O593 Zn588 2.049 . S
O593 C601 1.260 . S
O594 Zn589 1.996 . S
O594 C601 1.257 . S
C595 O590 1.254 . S
C595 O591 1.269 . S
C596 O597 1.249 . S
C596 O598 1.270 . S
O597 Zn589 1.943 . S
O597 C596 1.249 . S
O598 Zn588 2.067 . S
O598 C596 1.270 . S
C599 O592 1.262 . S
C599 O600 1.232 . S
O600 C599 1.232 . S
C601 O593 1.260 . S
C601 O594 1.257 . S
Zn602 O605 2.031 . S
Zn602 O607 2.049 . S
Zn602 O612 2.067 . S
Zn603 O604 1.962 . S
Zn603 O606 1.986 . S
Zn603 O608 1.996 . S
Zn603 O611 1.943 . S
O604 Zn603 1.962 . S
O604 C609 1.254 . S
O605 Zn602 2.031 . S
O605 C609 1.269 . S
O606 Zn603 1.986 . S
O606 C613 1.262 . S
O607 Zn602 2.049 . S
O607 C615 1.260 . S
O608 Zn603 1.996 . S
O608 C615 1.257 . S
C609 O604 1.254 . S
C609 O605 1.269 . S
C610 O611 1.249 . S
C610 O612 1.270 . S
O611 Zn603 1.943 . S
O611 C610 1.249 . S
O612 Zn602 2.067 . S
O612 C610 1.270 . S
C613 O606 1.262 . S
C613 O614 1.232 . S
O614 C613 1.232 . S
C615 O607 1.260 . S
C615 O608 1.257 . S
Zn616 O619 2.031 . S
Zn616 O621 2.049 . S
Zn616 O626 2.067 . S
Zn617 O618 1.962 . S
Zn617 O620 1.986 . S
Zn617 O622 1.996 . S
Zn617 O625 1.943 . S
O618 Zn617 1.962 . S
O618 C623 1.254 . S
O619 Zn616 2.031 . S
O619 C623 1.269 . S
O620 Zn617 1.986 . S
O620 C627 1.262 . S
O621 Zn616 2.049 . S
O621 C629 1.260 . S
O622 Zn617 1.996 . S
O622 C629 1.257 . S
C623 O618 1.254 . S
C623 O619 1.269 . S
C624 O625 1.249 . S
C624 O626 1.270 . S
O625 Zn617 1.943 . S
O625 C624 1.249 . S
O626 Zn616 2.067 . S
O626 C624 1.270 . S
C627 O620 1.262 . S
C627 O628 1.232 . S
O628 C627 1.232 . S
C629 O621 1.260 . S
C629 O622 1.257 . S
Zn630 O633 2.031 . S
Zn630 O635 2.049 . S
Zn630 O640 2.067 . S
Zn631 O632 1.962 . S
Zn631 O634 1.986 . S
Zn631 O636 1.996 . S
Zn631 O639 1.943 . S
O632 Zn631 1.962 . S
O632 C637 1.254 . S
O633 Zn630 2.031 . S
O633 C637 1.269 . S
O634 Zn631 1.986 . S
O634 C641 1.262 . S
O635 Zn630 2.049 . S
O635 C643 1.260 . S
O636 Zn631 1.996 . S
O636 C643 1.257 . S
C637 O632 1.254 . S
C637 O633 1.269 . S
C638 O639 1.249 . S
C638 O640 1.270 . S
O639 Zn631 1.943 . S
O639 C638 1.249 . S
O640 Zn630 2.067 . S
O640 C638 1.270 . S
C641 O634 1.262 . S
C641 O642 1.232 . S
O642 C641 1.232 . S
C643 O635 1.260 . S
C643 O636 1.257 . S
Zn644 O647 2.031 . S
Zn644 O649 2.049 . S
Zn644 O654 2.067 . S
Zn645 O646 1.962 . S
Zn645 O648 1.986 . S
Zn645 O650 1.996 . S
Zn645 O653 1.943 . S
O646 Zn645 1.962 . S
O646 C651 1.254 . S
O647 Zn644 2.031 . S
O647 C651 1.269 . S
O648 Zn645 1.986 . S
O648 C655 1.262 . S
O649 Zn644 2.049 . S
O649 C657 1.260 . S
O650 Zn645 1.996 . S
O650 C657 1.257 . S
C651 O646 1.254 . S
C651 O647 1.269 . S
C652 O653 1.249 . S
C652 O654 1.270 . S
O653 Zn645 1.943 . S
O653 C652 1.249 . S
O654 Zn644 2.067 . S
O654 C652 1.270 . S
C655 O648 1.262 . S
C655 O656 1.232 . S
O656 C655 1.232 . S
C657 O649 1.260 . S
C657 O650 1.257 . S
Zn658 O661 2.031 . S
Zn658 O663 2.049 . S
Zn658 O668 2.067 . S
Zn659 O660 1.962 . S
Zn659 O662 1.986 . S
Zn659 O664 1.996 . S
Zn659 O667 1.943 . S
O660 Zn659 1.962 . S
O660 C665 1.254 . S
O661 Zn658 2.031 . S
O661 C665 1.269 . S
O662 Zn659 1.986 . S
O662 C669 1.262 . S
O663 Zn658 2.049 . S
O663 C671 1.260 . S
O664 Zn659 1.996 . S
O664 C671 1.257 . S
C665 O660 1.254 . S
C665 O661 1.269 . S
C666 O667 1.249 . S
C666 O668 1.270 . S
O667 Zn659 1.943 . S
O667 C666 1.249 . S
O668 Zn658 2.067 . S
O668 C666 1.270 . S
C669 O662 1.262 . S
C669 O670 1.232 . S
O670 C669 1.232 . S
C671 O663 1.260 . S
C671 O664 1.257 . S
Zn672 O675 2.031 . S
Zn672 O677 2.049 . S
Zn672 O682 2.067 . S
Zn673 O674 1.962 . S
Zn673 O676 1.986 . S
Zn673 O678 1.996 . S
Zn673 O681 1.943 . S
O674 Zn673 1.962 . S
O674 C679 1.254 . S
O675 Zn672 2.031 . S
O675 C679 1.269 . S
O676 Zn673 1.986 . S
O676 C683 1.262 . S
O677 Zn672 2.049 . S
O677 C685 1.260 . S
O678 Zn673 1.996 . S
O678 C685 1.257 . S
C679 O674 1.254 . S
C679 O675 1.269 . S
C680 O681 1.249 . S
C680 O682 1.270 . S
O681 Zn673 1.943 . S
O681 C680 1.249 . S
O682 Zn672 2.067 . S
O682 C680 1.270 . S
C683 O676 1.262 . S
C683 O684 1.232 . S
O684 C683 1.232 . S
C685 O677 1.260 . S
C685 O678 1.257 . S
Zn686 O689 2.031 . S
Zn686 O691 2.049 . S
Zn686 O696 2.067 . S
Zn687 O688 1.962 . S
Zn687 O690 1.986 . S
Zn687 O692 1.996 . S
Zn687 O695 1.943 . S
O688 Zn687 1.962 . S
O688 C693 1.254 . S
O689 Zn686 2.031 . S
O689 C693 1.269 . S
O690 Zn687 1.986 . S
O690 C697 1.262 . S
O691 Zn686 2.049 . S
O691 C699 1.260 . S
O692 Zn687 1.996 . S
O692 C699 1.257 . S
C693 O688 1.254 . S
C693 O689 1.269 . S
C694 O695 1.249 . S
C694 O696 1.270 . S
O695 Zn687 1.943 . S
O695 C694 1.249 . S
O696 Zn686 2.067 . S
O696 C694 1.270 . S
C697 O690 1.262 . S
C697 O698 1.232 . S
O698 C697 1.232 . S
C699 O691 1.260 . S
C699 O692 1.257 . S
Zn700 O703 2.031 . S
Zn700 O705 2.049 . S
Zn700 O710 2.067 . S
Zn701 O702 1.962 . S
Zn701 O704 1.986 . S
Zn701 O706 1.996 . S
Zn701 O709 1.943 . S
O702 Zn701 1.962 . S
O702 C707 1.254 . S
O703 Zn700 2.031 . S
O703 C707 1.269 . S
O704 Zn701 1.986 . S
O704 C711 1.262 . S
O705 Zn700 2.049 . S
O705 C713 1.260 . S
O706 Zn701 1.996 . S
O706 C713 1.257 . S
C707 O702 1.254 . S
C707 O703 1.269 . S
C708 O709 1.249 . S
C708 O710 1.270 . S
O709 Zn701 1.943 . S
O709 C708 1.249 . S
O710 Zn700 2.067 . S
O710 C708 1.270 . S
C711 O704 1.262 . S
C711 O712 1.232 . S
O712 C711 1.232 . S
C713 O705 1.260 . S
C713 O706 1.257 . S
Zn714 O717 2.031 . S
Zn714 O719 2.049 . S
Zn714 O724 2.067 . S
Zn715 O716 1.962 . S
Zn715 O718 1.986 . S
Zn715 O720 1.996 . S
Zn715 O723 1.943 . S
O716 Zn715 1.962 . S
O716 C721 1.254 . S
O717 Zn714 2.031 . S
O717 C721 1.269 . S
O718 Zn715 1.986 . S
O718 C725 1.262 . S
O719 Zn714 2.049 . S
O719 C727 1.260 . S
O720 Zn715 1.996 . S
O720 C727 1.257 . S
C721 O716 1.254 . S
C721 O717 1.269 . S
C722 O723 1.249 . S
C722 O724 1.270 . S
O723 Zn715 1.943 . S
O723 C722 1.249 . S
O724 Zn714 2.067 . S
O724 C722 1.270 . S
C725 O718 1.262 . S
C725 O726 1.232 . S
O726 C725 1.232 . S
C727 O719 1.260 . S
C727 O720 1.257 . S
Zn728 O731 2.031 . S
Zn728 O733 2.049 . S
Zn728 O738 2.067 . S
Zn729 O730 1.962 . S
Zn729 O732 1.986 . S
Zn729 O734 1.996 . S
Zn729 O737 1.943 . S
O730 Zn729 1.962 . S
O730 C735 1.254 . S
O731 Zn728 2.031 . S
O731 C735 1.269 . S
O732 Zn729 1.986 . S
O732 C739 1.262 . S
O733 Zn728 2.049 . S
O733 C741 1.260 . S
O734 Zn729 1.996 . S
O734 C741 1.257 . S
C735 O730 1.254 . S
C735 O731 1.269 . S
C736 O737 1.249 . S
C736 O738 1.270 . S
O737 Zn729 1.943 . S
O737 C736 1.249 . S
O738 Zn728 2.067 . S
O738 C736 1.270 . S
C739 O732 1.262 . S
C739 O740 1.232 . S
O740 C739 1.232 . S
C741 O733 1.260 . S
C741 O734 1.257 . S
Zn742 O745 2.031 . S
Zn742 O747 2.049 . S
Zn742 O752 2.067 . S
Zn743 O744 1.962 . S
Zn743 O746 1.986 . S
Zn743 O748 1.996 . S
Zn743 O751 1.943 . S
O744 Zn743 1.962 . S
O744 C749 1.254 . S
O745 Zn742 2.031 . S
O745 C749 1.269 . S
O746 Zn743 1.986 . S
O746 C753 1.262 . S
O747 Zn742 2.049 . S
O747 C755 1.260 . S
O748 Zn743 1.996 . S
O748 C755 1.257 . S
C749 O744 1.254 . S
C749 O745 1.269 . S
C750 O751 1.249 . S
C750 O752 1.270 . S
O751 Zn743 1.943 . S
O751 C750 1.249 . S
O752 Zn742 2.067 . S
O752 C750 1.270 . S
C753 O746 1.262 . S
C753 O754 1.232 . S
O754 C753 1.232 . S
C755 O747 1.260 . S
C755 O748 1.257 . S
Zn756 O759 2.031 . S
Zn756 O761 2.049 . S
Zn756 O766 2.067 . S
Zn757 O758 1.962 . S
Zn757 O760 1.986 . S
Zn757 O762 1.996 . S
Zn757 O765 1.943 . S
O758 Zn757 1.962 . S
O758 C763 1.254 . S
O759 Zn756 2.031 . S
O759 C763 1.269 . S
O760 Zn757 1.986 . S
O760 C767 1.262 . S
O761 Zn756 2.049 . S
O761 C769 1.260 . S
O762 Zn757 1.996 . S
O762 C769 1.257 . S
C763 O758 1.254 . S
C763 O759 1.269 . S
C764 O765 1.249 . S
C764 O766 1.270 . S
O765 Zn757 1.943 . S
O765 C764 1.249 . S
O766 Zn756 2.067 . S
O766 C764 1.270 . S
C767 O760 1.262 . S
C767 O768 1.232 . S
O768 C767 1.232 . S
C769 O761 1.260 . S
C769 O762 1.257 . S
Zn770 O773 2.031 . S
Zn770 O775 2.049 . S
Zn770 O780 2.067 . S
Zn771 O772 1.962 . S
Zn771 O774 1.986 . S
Zn771 O776 1.996 . S
Zn771 O779 1.943 . S
O772 Zn771 1.962 . S
O772 C777 1.254 . S
O773 Zn770 2.031 . S
O773 C777 1.269 . S
O774 Zn771 1.986 . S
O774 C781 1.262 . S
O775 Zn770 2.049 . S
O775 C783 1.260 . S
O776 Zn771 1.996 . S
O776 C783 1.257 . S
C777 O772 1.254 . S
C777 O773 1.269 . S
C778 O779 1.249 . S
C778 O780 1.270 . S
O779 Zn771 1.943 . S
O779 C778 1.249 . S
O780 Zn770 2.067 . S
O780 C778 1.270 . S
C781 O774 1.262 . S
C781 O782 1.232 . S
O782 C781 1.232 . S
C783 O775 1.260 . S
C783 O776 1.257 . S
Zn784 O787 2.031 . S
Zn784 O789 2.049 . S
Zn784 O794 2.067 . S
Zn785 O786 1.962 . S
Zn785 O788 1.986 . S
Zn785 O790 1.996 . S
Zn785 O793 1.943 . S
O786 Zn785 1.962 . S
O786 C791 1.254 . S
O787 Zn784 2.031 . S
O787 C791 1.269 . S
O788 Zn785 1.986 . S
O788 C795 1.262 . S
O789 Zn784 2.049 . S
O789 C797 1.260 . S
O790 Zn785 1.996 . S
O790 C797 1.257 . S
C791 O786 1.254 . S
C791 O787 1.269 . S
C792 O793 1.249 . S
C792 O794 1.270 . S
O793 Zn785 1.943 . S
O793 C792 1.249 . S
O794 Zn784 2.067 . S
O794 C792 1.270 . S
C795 O788 1.262 . S
C795 O796 1.232 . S
O796 C795 1.232 . S
C797 O789 1.260 . S
C797 O790 1.257 . S
Zn798 O801 2.031 . S
Zn798 O803 2.049 . S
Zn798 O808 2.067 . S
Zn799 O800 1.962 . S
Zn799 O802 1.986 . S
Zn799 O804 1.996 . S
Zn799 O807 1.943 . S
O800 Zn799 1.962 . S
O800 C805 1.254 . S
O801 Zn798 2.031 . S
O801 C805 1.269 . S
O802 Zn799 1.986 . S
O802 C809 1.262 . S
O803 Zn798 2.049 . S
O803 C811 1.260 . S
O804 Zn799 1.996 . S
O804 C811 1.257 . S
C805 O800 1.254 . S
C805 O801 1.269 . S
C806 O807 1.249 . S
C806 O808 1.270 . S
O807 Zn799 1.943 . S
O807 C806 1.249 . S
O808 Zn798 2.067 . S
O808 C806 1.270 . S
C809 O802 1.262 . S
C809 O810 1.232 . S
O810 C809 1.232 . S
C811 O803 1.260 . S
C811 O804 1.257 . S
Zn812 O815 2.031 . S
Zn812 O817 2.049 . S
Zn812 O822 2.067 . S
Zn813 O814 1.962 . S
Zn813 O816 1.986 . S
Zn813 O818 1.996 . S
Zn813 O821 1.943 . S
O814 Zn813 1.962 . S
O814 C819 1.254 . S
O815 Zn812 2.031 . S
O815 C819 1.269 . S
O816 Zn813 1.986 . S
O816 C823 1.262 . S
O817 Zn812 2.049 . S
O817 C825 1.260 . S
O818 Zn813 1.996 . S
O818 C825 1.257 . S
C819 O814 1.254 . S
C819 O815 1.269 . S
C820 O821 1.249 . S
C820 O822 1.270 . S
O821 Zn813 1.943 . S
O821 C820 1.249 . S
O822 Zn812 2.067 . S
O822 C820 1.270 . S
C823 O816 1.262 . S
C823 O824 1.232 . S
O824 C823 1.232 . S
C825 O817 1.260 . S
C825 O818 1.257 . S
Zn826 O829 2.031 . S
Zn826 O831 2.049 . S
Zn826 O836 2.067 . S
Zn827 O828 1.962 . S
Zn827 O830 1.986 . S
Zn827 O832 1.996 . S
Zn827 O835 1.943 . S
O828 Zn827 1.962 . S
O828 C833 1.254 . S
O829 Zn826 2.031 . S
O829 C833 1.269 . S
O830 Zn827 1.986 . S
O830 C837 1.262 . S
O831 Zn826 2.049 . S
O831 C839 1.260 . S
O832 Zn827 1.996 . S
O832 C839 1.257 . S
C833 O828 1.254 . S
C833 O829 1.269 . S
C834 O835 1.249 . S
C834 O836 1.270 . S
O835 Zn827 1.943 . S
O835 C834 1.249 . S
O836 Zn826 2.067 . S
O836 C834 1.270 . S
C837 O830 1.262 . S
C837 O838 1.232 . S
O838 C837 1.232 . S
C839 O831 1.260 . S
C839 O832 1.257 . S
Zn840 O843 2.031 . S
Zn840 O845 2.049 . S
Zn840 O850 2.067 . S
Zn841 O842 1.962 . S
Zn841 O844 1.986 . S
Zn841 O846 1.996 . S
Zn841 O849 1.943 . S
O842 Zn841 1.962 . S
O842 C847 1.254 . S
O843 Zn840 2.031 . S
O843 C847 1.269 . S
O844 Zn841 1.986 . S
O844 C851 1.262 . S
O845 Zn840 2.049 . S
O845 C853 1.260 . S
O846 Zn841 1.996 . S
O846 C853 1.257 . S
C847 O842 1.254 . S
C847 O843 1.269 . S
C848 O849 1.249 . S
C848 O850 1.270 . S
O849 Zn841 1.943 . S
O849 C848 1.249 . S
O850 Zn840 2.067 . S
O850 C848 1.270 . S
C851 O844 1.262 . S
C851 O852 1.232 . S
O852 C851 1.232 . S
C853 O845 1.260 . S
C853 O846 1.257 . S
Zn854 O857 2.031 . S
Zn854 O859 2.049 . S
Zn854 O864 2.067 . S
Zn855 O856 1.962 . S
Zn855 O858 1.986 . S
Zn855 O860 1.996 . S
Zn855 O863 1.943 . S
O856 Zn855 1.962 . S
O856 C861 1.254 . S
O857 Zn854 2.031 . S
O857 C861 1.269 . S
O858 Zn855 1.986 . S
O858 C865 1.262 . S
O859 Zn854 2.049 . S
O859 C867 1.260 . S
O860 Zn855 1.996 . S
O860 C867 1.257 . S
C861 O856 1.254 . S
C861 O857 1.269 . S
C862 O863 1.249 . S
C862 O864 1.270 . S
O863 Zn855 1.943 . S
O863 C862 1.249 . S
O864 Zn854 2.067 . S
O864 C862 1.270 . S
C865 O858 1.262 . S
C865 O866 1.232 . S
O866 C865 1.232 . S
C867 O859 1.260 . S
C867 O860 1.257 . S
Zn868 O871 2.031 . S
Zn868 O873 2.049 . S
Zn868 O878 2.067 . S
Zn869 O870 1.962 . S
Zn869 O872 1.986 . S
Zn869 O874 1.996 . S
Zn869 O877 1.943 . S
O870 Zn869 1.962 . S
O870 C875 1.254 . S
O871 Zn868 2.031 . S
O871 C875 1.269 . S
O872 Zn869 1.986 . S
O872 C879 1.262 . S
O873 Zn868 2.049 . S
O873 C881 1.260 . S
O874 Zn869 1.996 . S
O874 C881 1.257 . S
C875 O870 1.254 . S
C875 O871 1.269 . S
C876 O877 1.249 . S
C876 O878 1.270 . S
O877 Zn869 1.943 . S
O877 C876 1.249 . S
O878 Zn868 2.067 . S
O878 C876 1.270 . S
C879 O872 1.262 . S
C879 O880 1.232 . S
O880 C879 1.232 . S
C881 O873 1.260 . S
C881 O874 1.257 . S
Zn882 O885 2.031 . S
Zn882 O887 2.049 . S
Zn882 O892 2.067 . S
Zn883 O884 1.962 . S
Zn883 O886 1.986 . S
Zn883 O888 1.996 . S
Zn883 O891 1.943 . S
O884 Zn883 1.962 . S
O884 C889 1.254 . S
O885 Zn882 2.031 . S
O885 C889 1.269 . S
O886 Zn883 1.986 . S
O886 C893 1.262 . S
O887 Zn882 2.049 . S
O887 C895 1.260 . S
O888 Zn883 1.996 . S
O888 C895 1.257 . S
C889 O884 1.254 . S
C889 O885 1.269 . S
C890 O891 1.249 . S
C890 O892 1.270 . S
O891 Zn883 1.943 . S
O891 C890 1.249 . S
O892 Zn882 2.067 . S
O892 C890 1.270 . S
C893 O886 1.262 . S
C893 O894 1.232 . S
O894 C893 1.232 . S
C895 O887 1.260 . S
C895 O888 1.257 . S
Zn896 O899 2.031 . S
Zn896 O901 2.049 . S
Zn896 O906 2.067 . S
Zn897 O898 1.962 . S
Zn897 O900 1.986 . S
Zn897 O902 1.996 . S
Zn897 O905 1.943 . S
O898 Zn897 1.962 . S
O898 C903 1.254 . S
O899 Zn896 2.031 . S
O899 C903 1.269 . S
O900 Zn897 1.986 . S
O900 C907 1.262 . S
O901 Zn896 2.049 . S
O901 C909 1.260 . S
O902 Zn897 1.996 . S
O902 C909 1.257 . S
C903 O898 1.254 . S
C903 O899 1.269 . S
C904 O905 1.249 . S
C904 O906 1.270 . S
O905 Zn897 1.943 . S
O905 C904 1.249 . S
O906 Zn896 2.067 . S
O906 C904 1.270 . S
C907 O900 1.262 . S
C907 O908 1.232 . S
O908 C907 1.232 . S
C909 O901 1.260 . S
C909 O902 1.257 . S
Zn910 O913 2.031 . S
Zn910 O915 2.049 . S
Zn910 O920 2.067 . S
Zn911 O912 1.962 . S
Zn911 O914 1.986 . S
Zn911 O916 1.996 . S
Zn911 O919 1.943 . S
O912 Zn911 1.962 . S
O912 C917 1.254 . S
O913 Zn910 2.031 . S
O913 C917 1.269 . S
O914 Zn911 1.986 . S
O914 C921 1.262 . S
O915 Zn910 2.049 . S
O915 C923 1.260 . S
O916 Zn911 1.996 . S
O916 C923 1.257 . S
C917 O912 1.254 . S
C917 O913 1.269 . S
C918 O919 1.249 . S
C918 O920 1.270 . S
O919 Zn911 1.943 . S
O919 C918 1.249 . S
O920 Zn910 2.067 . S
O920 C918 1.270 . S
C921 O914 1.262 . S
C921 O922 1.232 . S
O922 C921 1.232 . S
C923 O915 1.260 . S
C923 O916 1.257 . S
Zn924 O927 2.031 . S
Zn924 O929 2.049 . S
Zn924 O934 2.067 . S
Zn925 O926 1.962 . S
Zn925 O928 1.986 . S
Zn925 O930 1.996 . S
Zn925 O933 1.943 . S
O926 Zn925 1.962 . S
O926 C931 1.254 . S
O927 Zn924 2.031 . S
O927 C931 1.269 . S
O928 Zn925 1.986 . S
O928 C935 1.262 . S
O929 Zn924 2.049 . S
O929 C937 1.260 . S
O930 Zn925 1.996 . S
O930 C937 1.257 . S
C931 O926 1.254 . S
C931 O927 1.269 . S
C932 O933 1.249 . S
C932 O934 1.270 . S
O933 Zn925 1.943 . S
O933 C932 1.249 . S
O934 Zn924 2.067 . S
O934 C932 1.270 . S
C935 O928 1.262 . S
C935 O936 1.232 . S
O936 C935 1.232 . S
C937 O929 1.260 . S
C937 O930 1.257 . S
Zn938 O941 2.031 . S
Zn938 O943 2.049 . S
Zn938 O948 2.067 . S
Zn939 O940 1.962 . S
Zn939 O942 1.986 . S
Zn939 O944 1.996 . S
Zn939 O947 1.943 . S
O940 Zn939 1.962 . S
O940 C945 1.254 . S
O941 Zn938 2.031 . S
O941 C945 1.269 . S
O942 Zn939 1.986 . S
O942 C949 1.262 . S
O943 Zn938 2.049 . S
O943 C951 1.260 . S
O944 Zn939 1.996 . S
O944 C951 1.257 . S
C945 O940 1.254 . S
C945 O941 1.269 . S
C946 O947 1.249 . S
C946 O948 1.270 . S
O947 Zn939 1.943 . S
O947 C946 1.249 . S
O948 Zn938 2.067 . S
O948 C946 1.270 . S
C949 O942 1.262 . S
C949 O950 1.232 . S
O950 C949 1.232 . S
C951 O943 1.260 . S
C951 O944 1.257 . S
Zn952 O955 2.031 . S
Zn952 O957 2.049 . S
Zn952 O962 2.067 . S
Zn953 O954 1.962 . S
Zn953 O956 1.986 . S
Zn953 O958 1.996 . S
Zn953 O961 1.943 . S
O954 Zn953 1.962 . S
O954 C959 1.254 . S
O955 Zn952 2.031 . S
O955 C959 1.269 . S
O956 Zn953 1.986 . S
O956 C963 1.262 . S
O957 Zn952 2.049 . S
O957 C965 1.260 . S
O958 Zn953 1.996 . S
O958 C965 1.257 . S
C959 O954 1.254 . S
C959 O955 1.269 . S
C960 O961 1.249 . S
C960 O962 1.270 . S
O961 Zn953 1.943 . S
O961 C960 1.249 . S
O962 Zn952 2.067 . S
O962 C960 1.270 . S
C963 O956 1.262 . S
C963 O964 1.232 . S
O964 C963 1.232 . S
C965 O957 1.260 . S
C965 O958 1.257 . S
Zn966 O969 2.031 . S
Zn966 O971 2.049 . S
Zn966 O976 2.067 . S
Zn967 O968 1.962 . S
Zn967 O970 1.986 . S
Zn967 O972 1.996 . S
Zn967 O975 1.943 . S
O968 Zn967 1.962 . S
O968 C973 1.254 . S
O969 Zn966 2.031 . S
O969 C973 1.269 . S
O970 Zn967 1.986 . S
O970 C977 1.262 . S
O971 Zn966 2.049 . S
O971 C979 1.260 . S
O972 Zn967 1.996 . S
O972 C979 1.257 . S
C973 O968 1.254 . S
C973 O969 1.269 . S
C974 O975 1.249 . S
C974 O976 1.270 . S
O975 Zn967 1.943 . S
O975 C974 1.249 . S
O976 Zn966 2.067 . S
O976 C974 1.270 . S
C977 O970 1.262 . S
C977 O978 1.232 . S
O978 C977 1.232 . S
C979 O971 1.260 . S
C979 O972 1.257 . S
Zn980 O983 2.031 . S
Zn980 O985 2.049 . S
Zn980 O990 2.067 . S
Zn981 O982 1.962 . S
Zn981 O984 1.986 . S
Zn981 O986 1.996 . S
Zn981 O989 1.943 . S
O982 Zn981 1.962 . S
O982 C987 1.254 . S
O983 Zn980 2.031 . S
O983 C987 1.269 . S
O984 Zn981 1.986 . S
O984 C991 1.262 . S
O985 Zn980 2.049 . S
O985 C993 1.260 . S
O986 Zn981 1.996 . S
O986 C993 1.257 . S
C987 O982 1.254 . S
C987 O983 1.269 . S
C988 O989 1.249 . S
C988 O990 1.270 . S
O989 Zn981 1.943 . S
O989 C988 1.249 . S
O990 Zn980 2.067 . S
O990 C988 1.270 . S
C991 O984 1.262 . S
C991 O992 1.232 . S
O992 C991 1.232 . S
C993 O985 1.260 . S
C993 O986 1.257 . S
Zn994 O997 2.031 . S
Zn994 O999 2.049 . S
Zn994 O1004 2.067 . S
Zn995 O996 1.962 . S
Zn995 O998 1.986 . S
Zn995 O1000 1.996 . S
Zn995 O1003 1.943 . S
O996 Zn995 1.962 . S
O996 C1001 1.254 . S
O997 Zn994 2.031 . S
O997 C1001 1.269 . S
O998 Zn995 1.986 . S
O998 C1005 1.262 . S
O999 Zn994 2.049 . S
O999 C1007 1.260 . S
O1000 Zn995 1.996 . S
O1000 C1007 1.257 . S
C1001 O996 1.254 . S
C1001 O997 1.269 . S
C1002 O1003 1.249 . S
C1002 O1004 1.270 . S
O1003 Zn995 1.943 . S
O1003 C1002 1.249 . S
O1004 Zn994 2.067 . S
O1004 C1002 1.270 . S
C1005 O998 1.262 . S
C1005 O1006 1.232 . S
O1006 C1005 1.232 . S
C1007 O999 1.260 . S
C1007 O1000 1.257 . S
Zn1008 O1011 2.031 . S
Zn1008 O1013 2.049 . S
Zn1008 O1018 2.067 . S
Zn1009 O1010 1.962 . S
Zn1009 O1012 1.986 . S
Zn1009 O1014 1.996 . S
Zn1009 O1017 1.943 . S
O1010 Zn1009 1.962 . S
O1010 C1015 1.254 . S
O1011 Zn1008 2.031 . S
O1011 C1015 1.269 . S
O1012 Zn1009 1.986 . S
O1012 C1019 1.262 . S
O1013 Zn1008 2.049 . S
O1013 C1021 1.260 . S
O1014 Zn1009 1.996 . S
O1014 C1021 1.257 . S
C1015 O1010 1.254 . S
C1015 O1011 1.269 . S
C1016 O1017 1.249 . S
C1016 O1018 1.270 . S
O1017 Zn1009 1.943 . S
O1017 C1016 1.249 . S
O1018 Zn1008 2.067 . S
O1018 C1016 1.270 . S
C1019 O1012 1.262 . S
C1019 O1020 1.232 . S
O1020 C1019 1.232 . S
C1021 O1013 1.260 . S
C1021 O1014 1.257 . S
Zn1022 O1025 2.031 . S
Zn1022 O1027 2.049 . S
Zn1022 O1032 2.067 . S
Zn1023 O1024 1.962 . S
Zn1023 O1026 1.986 . S
Zn1023 O1028 1.996 . S
Zn1023 O1031 1.943 . S
O1024 Zn1023 1.962 . S
O1024 C1029 1.254 . S
O1025 Zn1022 2.031 . S
O1025 C1029 1.269 . S
O1026 Zn1023 1.986 . S
O1026 C1033 1.262 . S
O1027 Zn1022 2.049 . S
O1027 C1035 1.260 . S
O1028 Zn1023 1.996 . S
O1028 C1035 1.257 . S
C1029 O1024 1.254 . S
C1029 O1025 1.269 . S
C1030 O1031 1.249 . S
C1030 O1032 1.270 . S
O1031 Zn1023 1.943 . S
O1031 C1030 1.249 . S
O1032 Zn1022 2.067 . S
O1032 C1030 1.270 . S
C1033 O1026 1.262 . S
C1033 O1034 1.232 . S
O1034 C1033 1.232 . S
C1035 O1027 1.260 . S
C1035 O1028 1.257 . S
Zn1036 O1039 2.031 . S
Zn1036 O1041 2.049 . S
Zn1036 O1046 2.067 . S
Zn1037 O1038 1.962 . S
Zn1037 O1040 1.986 . S
Zn1037 O1042 1.996 . S
Zn1037 O1045 1.943 . S
O1038 Zn1037 1.962 . S
O1038 C1043 1.254 . S
O1039 Zn1036 2.031 . S
O1039 C1043 1.269 . S
O1040 Zn1037 1.986 . S
O1040 C1047 1.262 . S
O1041 Zn1036 2.049 . S
O1041 C1049 1.260 . S
O1042 Zn1037 1.996 . S
O1042 C1049 1.257 . S
C1043 O1038 1.254 . S
C1043 O1039 1.269 . S
C1044 O1045 1.249 . S
C1044 O1046 1.270 . S
O1045 Zn1037 1.943 . S
O1045 C1044 1.249 . S
O1046 Zn1036 2.067 . S
O1046 C1044 1.270 . S
C1047 O1040 1.262 . S
C1047 O1048 1.232 . S
O1048 C1047 1.232 . S
C1049 O1041 1.260 . S
C1049 O1042 1.257 . S
Zn1050 O1053 2.031 . S
Zn1050 O1055 2.049 . S
Zn1050 O1060 2.067 . S
Zn1051 O1052 1.962 . S
Zn1051 O1054 1.986 . S
Zn1051 O1056 1.996 . S
Zn1051 O1059 1.943 . S
O1052 Zn1051 1.962 . S
O1052 C1057 1.254 . S
O1053 Zn1050 2.031 . S
O1053 C1057 1.269 . S
O1054 Zn1051 1.986 . S
O1054 C1061 1.262 . S
O1055 Zn1050 2.049 . S
O1055 C1063 1.260 . S
O1056 Zn1051 1.996 . S
O1056 C1063 1.257 . S
C1057 O1052 1.254 . S
C1057 O1053 1.269 . S
C1058 O1059 1.249 . S
C1058 O1060 1.270 . S
O1059 Zn1051 1.943 . S
O1059 C1058 1.249 . S
O1060 Zn1050 2.067 . S
O1060 C1058 1.270 . S
C1061 O1054 1.262 . S
C1061 O1062 1.232 . S
O1062 C1061 1.232 . S
C1063 O1055 1.260 . S
C1063 O1056 1.257 . S
Zn1064 O1067 2.031 . S
Zn1064 O1069 2.049 . S
Zn1064 O1074 2.067 . S
Zn1065 O1066 1.962 . S
Zn1065 O1068 1.986 . S
Zn1065 O1070 1.996 . S
Zn1065 O1073 1.943 . S
O1066 Zn1065 1.962 . S
O1066 C1071 1.254 . S
O1067 Zn1064 2.031 . S
O1067 C1071 1.269 . S
O1068 Zn1065 1.986 . S
O1068 C1075 1.262 . S
O1069 Zn1064 2.049 . S
O1069 C1077 1.260 . S
O1070 Zn1065 1.996 . S
O1070 C1077 1.257 . S
C1071 O1066 1.254 . S
C1071 O1067 1.269 . S
C1072 O1073 1.249 . S
C1072 O1074 1.270 . S
O1073 Zn1065 1.943 . S
O1073 C1072 1.249 . S
O1074 Zn1064 2.067 . S
O1074 C1072 1.270 . S
C1075 O1068 1.262 . S
C1075 O1076 1.232 . S
O1076 C1075 1.232 . S
C1077 O1069 1.260 . S
C1077 O1070 1.257 . S
Zn1078 O1081 2.031 . S
Zn1078 O1083 2.049 . S
Zn1078 O1088 2.067 . S
Zn1079 O1080 1.962 . S
Zn1079 O1082 1.986 . S
Zn1079 O1084 1.996 . S
Zn1079 O1087 1.943 . S
O1080 Zn1079 1.962 . S
O1080 C1085 1.254 . S
O1081 Zn1078 2.031 . S
O1081 C1085 1.269 . S
O1082 Zn1079 1.986 . S
O1082 C1089 1.262 . S
O1083 Zn1078 2.049 . S
O1083 C1091 1.260 . S
O1084 Zn1079 1.996 . S
O1084 C1091 1.257 . S
C1085 O1080 1.254 . S
C1085 O1081 1.269 . S
C1086 O1087 1.249 . S
C1086 O1088 1.270 . S
O1087 Zn1079 1.943 . S
O1087 C1086 1.249 . S
O1088 Zn1078 2.067 . S
O1088 C1086 1.270 . S
C1089 O1082 1.262 . S
C1089 O1090 1.232 . S
O1090 C1089 1.232 . S
C1091 O1083 1.260 . S
C1091 O1084 1.257 . S
Zn1092 O1095 2.031 . S
Zn1092 O1097 2.049 . S
Zn1092 O1102 2.067 . S
Zn1093 O1094 1.962 . S
Zn1093 O1096 1.986 . S
Zn1093 O1098 1.996 . S
Zn1093 O1101 1.943 . S
O1094 Zn1093 1.962 . S
O1094 C1099 1.254 . S
O1095 Zn1092 2.031 . S
O1095 C1099 1.269 . S
O1096 Zn1093 1.986 . S
O1096 C1103 1.262 . S
O1097 Zn1092 2.049 . S
O1097 C1105 1.260 . S
O1098 Zn1093 1.996 . S
O1098 C1105 1.257 . S
C1099 O1094 1.254 . S
C1099 O1095 1.269 . S
C1100 O1101 1.249 . S
C1100 O1102 1.270 . S
O1101 Zn1093 1.943 . S
O1101 C1100 1.249 . S
O1102 Zn1092 2.067 . S
O1102 C1100 1.270 . S
C1103 O1096 1.262 . S
C1103 O1104 1.232 . S
O1104 C1103 1.232 . S
C1105 O1097 1.260 . S
C1105 O1098 1.257 . S
Zn1106 O1109 2.031 . S
Zn1106 O1111 2.049 . S
Zn1106 O1116 2.067 . S
Zn1107 O1108 1.962 . S
Zn1107 O1110 1.986 . S
Zn1107 O1112 1.996 . S
Zn1107 O1115 1.943 . S
O1108 Zn1107 1.962 . S
O1108 C1113 1.254 . S
O1109 Zn1106 2.031 . S
O1109 C1113 1.269 . S
O1110 Zn1107 1.986 . S
O1110 C1117 1.262 . S
O1111 Zn1106 2.049 . S
O1111 C1119 1.260 . S
O1112 Zn1107 1.996 . S
O1112 C1119 1.257 . S
C1113 O1108 1.254 . S
C1113 O1109 1.269 . S
C1114 O1115 1.249 . S
C1114 O1116 1.270 . S
O1115 Zn1107 1.943 . S
O1115 C1114 1.249 . S
O1116 Zn1106 2.067 . S
O1116 C1114 1.270 . S
C1117 O1110 1.262 . S
C1117 O1118 1.232 . S
O1118 C1117 1.232 . S
C1119 O1111 1.260 . S
C1119 O1112 1.257 . S
Zn1120 O1123 2.031 . S
Zn1120 O1125 2.049 . S
Zn1120 O1130 2.067 . S
Zn1121 O1122 1.962 . S
Zn1121 O1124 1.986 . S
Zn1121 O1126 1.996 . S
Zn1121 O1129 1.943 . S
O1122 Zn1121 1.962 . S
O1122 C1127 1.254 . S
O1123 Zn1120 2.031 . S
O1123 C1127 1.269 . S
O1124 Zn1121 1.986 . S
O1124 C1131 1.262 . S
O1125 Zn1120 2.049 . S
O1125 C1133 1.260 . S
O1126 Zn1121 1.996 . S
O1126 C1133 1.257 . S
C1127 O1122 1.254 . S
C1127 O1123 1.269 . S
C1128 O1129 1.249 . S
C1128 O1130 1.270 . S
O1129 Zn1121 1.943 . S
O1129 C1128 1.249 . S
O1130 Zn1120 2.067 . S
O1130 C1128 1.270 . S
C1131 O1124 1.262 . S
C1131 O1132 1.232 . S
O1132 C1131 1.232 . S
C1133 O1125 1.260 . S
C1133 O1126 1.257 . S
Zn1134 O1137 2.031 . S
Zn1134 O1139 2.049 . S
Zn1134 O1144 2.067 . S
Zn1135 O1136 1.962 . S
Zn1135 O1138 1.986 . S
Zn1135 O1140 1.996 . S
Zn1135 O1143 1.943 . S
O1136 Zn1135 1.962 . S
O1136 C1141 1.254 . S
O1137 Zn1134 2.031 . S
O1137 C1141 1.269 . S
O1138 Zn1135 1.986 . S
O1138 C1145 1.262 . S
O1139 Zn1134 2.049 . S
O1139 C1147 1.260 . S
O1140 Zn1135 1.996 . S
O1140 C1147 1.257 . S
C1141 O1136 1.254 . S
C1141 O1137 1.269 . S
C1142 O1143 1.249 . S
C1142 O1144 1.270 . S
O1143 Zn1135 1.943 . S
O1143 C1142 1.249 . S
O1144 Zn1134 2.067 . S
O1144 C1142 1.270 . S
C1145 O1138 1.262 . S
C1145 O1146 1.232 . S
O1146 C1145 1.232 . S
C1147 O1139 1.260 . S
C1147 O1140 1.257 . S
Zn1148 O1151 2.031 . S
Zn1148 O1153 2.049 . S
Zn1148 O1158 2.067 . S
Zn1149 O1150 1.962 . S
Zn1149 O1152 1.986 . S
Zn1149 O1154 1.996 . S
Zn1149 O1157 1.943 . S
O1150 Zn1149 1.962 . S
O1150 C1155 1.254 . S
O1151 Zn1148 2.031 . S
O1151 C1155 1.269 . S
O1152 Zn1149 1.986 . S
O1152 C1159 1.262 . S
O1153 Zn1148 2.049 . S
O1153 C1161 1.260 . S
O1154 Zn1149 1.996 . S
O1154 C1161 1.257 . S
C1155 O1150 1.254 . S
C1155 O1151 1.269 . S
C1156 O1157 1.249 . S
C1156 O1158 1.270 . S
O1157 Zn1149 1.943 . S
O1157 C1156 1.249 . S
O1158 Zn1148 2.067 . S
O1158 C1156 1.270 . S
C1159 O1152 1.262 . S
C1159 O1160 1.232 . S
O1160 C1159 1.232 . S
C1161 O1153 1.260 . S
C1161 O1154 1.257 . S
Zn1162 O1165 2.031 . S
Zn1162 O1167 2.049 . S
Zn1162 O1172 2.067 . S
Zn1163 O1164 1.962 . S
Zn1163 O1166 1.986 . S
Zn1163 O1168 1.996 . S
Zn1163 O1171 1.943 . S
O1164 Zn1163 1.962 . S
O1164 C1169 1.254 . S
O1165 Zn1162 2.031 . S
O1165 C1169 1.269 . S
O1166 Zn1163 1.986 . S
O1166 C1173 1.262 . S
O1167 Zn1162 2.049 . S
O1167 C1175 1.260 . S
O1168 Zn1163 1.996 . S
O1168 C1175 1.257 . S
C1169 O1164 1.254 . S
C1169 O1165 1.269 . S
C1170 O1171 1.249 . S
C1170 O1172 1.270 . S
O1171 Zn1163 1.943 . S
O1171 C1170 1.249 . S
O1172 Zn1162 2.067 . S
O1172 C1170 1.270 . S
C1173 O1166 1.262 . S
C1173 O1174 1.232 . S
O1174 C1173 1.232 . S
C1175 O1167 1.260 . S
C1175 O1168 1.257 . S
Zn1176 O1179 2.031 . S
Zn1176 O1181 2.049 . S
Zn1176 O1186 2.067 . S
Zn1177 O1178 1.962 . S
Zn1177 O1180 1.986 . S
Zn1177 O1182 1.996 . S
Zn1177 O1185 1.943 . S
O1178 Zn1177 1.962 . S
O1178 C1183 1.254 . S
O1179 Zn1176 2.031 . S
O1179 C1183 1.269 . S
O1180 Zn1177 1.986 . S
O1180 C1187 1.262 . S
O1181 Zn1176 2.049 . S
O1181 C1189 1.260 . S
O1182 Zn1177 1.996 . S
O1182 C1189 1.257 . S
C1183 O1178 1.254 . S
C1183 O1179 1.269 . S
C1184 O1185 1.249 . S
C1184 O1186 1.270 . S
O1185 Zn1177 1.943 . S
O1185 C1184 1.249 . S
O1186 Zn1176 2.067 . S
O1186 C1184 1.270 . S
C1187 O1180 1.262 . S
C1187 O1188 1.232 . S
O1188 C1187 1.232 . S
C1189 O1181 1.260 . S
C1189 O1182 1.257 . S
Zn1190 O1193 2.031 . S
Zn1190 O1195 2.049 . S
Zn1190 O1200 2.067 . S
Zn1191 O1192 1.962 . S
Zn1191 O1194 1.986 . S
Zn1191 O1196 1.996 . S
Zn1191 O1199 1.943 . S
O1192 Zn1191 1.962 . S
O1192 C1197 1.254 . S
O1193 Zn1190 2.031 . S
O1193 C1197 1.269 . S
O1194 Zn1191 1.986 . S
O1194 C1201 1.262 . S
O1195 Zn1190 2.049 . S
O1195 C1203 1.260 . S
O1196 Zn1191 1.996 . S
O1196 C1203 1.257 . S
C1197 O1192 1.254 . S
C1197 O1193 1.269 . S
C1198 O1199 1.249 . S
C1198 O1200 1.270 . S
O1199 Zn1191 1.943 . S
O1199 C1198 1.249 . S
O1200 Zn1190 2.067 . S
O1200 C1198 1.270 . S
C1201 O1194 1.262 . S
C1201 O1202 1.232 . S
O1202 C1201 1.232 . S
C1203 O1195 1.260 . S
C1203 O1196 1.257 . S
Zn1204 O1207 2.031 . S
Zn1204 O1209 2.049 . S
Zn1204 O1214 2.067 . S
Zn1205 O1206 1.962 . S
Zn1205 O1208 1.986 . S
Zn1205 O1210 1.996 . S
Zn1205 O1213 1.943 . S
O1206 Zn1205 1.962 . S
O1206 C1211 1.254 . S
O1207 Zn1204 2.031 . S
O1207 C1211 1.269 . S
O1208 Zn1205 1.986 . S
O1208 C1215 1.262 . S
O1209 Zn1204 2.049 . S
O1209 C1217 1.260 . S
O1210 Zn1205 1.996 . S
O1210 C1217 1.257 . S
C1211 O1206 1.254 . S
C1211 O1207 1.269 . S
C1212 O1213 1.249 . S
C1212 O1214 1.270 . S
O1213 Zn1205 1.943 . S
O1213 C1212 1.249 . S
O1214 Zn1204 2.067 . S
O1214 C1212 1.270 . S
C1215 O1208 1.262 . S
C1215 O1216 1.232 . S
O1216 C1215 1.232 . S
C1217 O1209 1.260 . S
C1217 O1210 1.257 . S
Zn1218 O1221 2.031 . S
Zn1218 O1223 2.049 . S
Zn1218 O1228 2.067 . S
Zn1219 O1220 1.962 . S
Zn1219 O1222 1.986 . S
Zn1219 O1224 1.996 . S
Zn1219 O1227 1.943 . S
O1220 Zn1219 1.962 . S
O1220 C1225 1.254 . S
O1221 Zn1218 2.031 . S
O1221 C1225 1.269 . S
O1222 Zn1219 1.986 . S
O1222 C1229 1.262 . S
O1223 Zn1218 2.049 . S
O1223 C1231 1.260 . S
O1224 Zn1219 1.996 . S
O1224 C1231 1.257 . S
C1225 O1220 1.254 . S
C1225 O1221 1.269 . S
C1226 O1227 1.249 . S
C1226 O1228 1.270 . S
O1227 Zn1219 1.943 . S
O1227 C1226 1.249 . S
O1228 Zn1218 2.067 . S
O1228 C1226 1.270 . S
C1229 O1222 1.262 . S
C1229 O1230 1.232 . S
O1230 C1229 1.232 . S
C1231 O1223 1.260 . S
C1231 O1224 1.257 . S
Zn1232 O1235 2.031 . S
Zn1232 O1237 2.049 . S
Zn1232 O1242 2.067 . S
Zn1233 O1234 1.962 . S
Zn1233 O1236 1.986 . S
Zn1233 O1238 1.996 . S
Zn1233 O1241 1.943 . S
O1234 Zn1233 1.962 . S
O1234 C1239 1.254 . S
O1235 Zn1232 2.031 . S
O1235 C1239 1.269 . S
O1236 Zn1233 1.986 . S
O1236 C1243 1.262 . S
O1237 Zn1232 2.049 . S
O1237 C1245 1.260 . S
O1238 Zn1233 1.996 . S
O1238 C1245 1.257 . S
C1239 O1234 1.254 . S
C1239 O1235 1.269 . S
C1240 O1241 1.249 . S
C1240 O1242 1.270 . S
O1241 Zn1233 1.943 . S
O1241 C1240 1.249 . S
O1242 Zn1232 2.067 . S
O1242 C1240 1.270 . S
C1243 O1236 1.262 . S
C1243 O1244 1.232 . S
O1244 C1243 1.232 . S
C1245 O1237 1.260 . S
C1245 O1238 1.257 . S
Zn1246 O1249 2.031 . S
Zn1246 O1251 2.049 . S
Zn1246 O1256 2.067 . S
Zn1247 O1248 1.962 . S
Zn1247 O1250 1.986 . S
Zn1247 O1252 1.996 . S
Zn1247 O1255 1.943 . S
O1248 Zn1247 1.962 . S
O1248 C1253 1.254 . S
O1249 Zn1246 2.031 . S
O1249 C1253 1.269 . S
O1250 Zn1247 1.986 . S
O1250 C1257 1.262 . S
O1251 Zn1246 2.049 . S
O1251 C1259 1.260 . S
O1252 Zn1247 1.996 . S
O1252 C1259 1.257 . S
C1253 O1248 1.254 . S
C1253 O1249 1.269 . S
C1254 O1255 1.249 . S
C1254 O1256 1.270 . S
O1255 Zn1247 1.943 . S
O1255 C1254 1.249 . S
O1256 Zn1246 2.067 . S
O1256 C1254 1.270 . S
C1257 O1250 1.262 . S
C1257 O1258 1.232 . S
O1258 C1257 1.232 . S
C1259 O1251 1.260 . S
C1259 O1252 1.257 . S
Zn1260 O1263 2.031 . S
Zn1260 O1265 2.049 . S
Zn1260 O1270 2.067 . S
Zn1261 O1262 1.962 . S
Zn1261 O1264 1.986 . S
Zn1261 O1266 1.996 . S
Zn1261 O1269 1.943 . S
O1262 Zn1261 1.962 . S
O1262 C1267 1.254 . S
O1263 Zn1260 2.031 . S
O1263 C1267 1.269 . S
O1264 Zn1261 1.986 . S
O1264 C1271 1.262 . S
O1265 Zn1260 2.049 . S
O1265 C1273 1.260 . S
O1266 Zn1261 1.996 . S
O1266 C1273 1.257 . S
C1267 O1262 1.254 . S
C1267 O1263 1.269 . S
C1268 O1269 1.249 . S
C1268 O1270 1.270 . S
O1269 Zn1261 1.943 . S
O1269 C1268 1.249 . S
O1270 Zn1260 2.067 . S
O1270 C1268 1.270 . S
C1271 O1264 1.262 . S
C1271 O1272 1.232 . S
O1272 C1271 1.232 . S
C1273 O1265 1.260 . S
C1273 O1266 1.257 . S
Zn1274 O1277 2.031 . S
Zn1274 O1279 2.049 . S
Zn1274 O1284 2.067 . S
Zn1275 O1276 1.962 . S
Zn1275 O1278 1.986 . S
Zn1275 O1280 1.996 . S
Zn1275 O1283 1.943 . S
O1276 Zn1275 1.962 . S
O1276 C1281 1.254 . S
O1277 Zn1274 2.031 . S
O1277 C1281 1.269 . S
O1278 Zn1275 1.986 . S
O1278 C1285 1.262 . S
O1279 Zn1274 2.049 . S
O1279 C1287 1.260 . S
O1280 Zn1275 1.996 . S
O1280 C1287 1.257 . S
C1281 O1276 1.254 . S
C1281 O1277 1.269 . S
C1282 O1283 1.249 . S
C1282 O1284 1.270 . S
O1283 Zn1275 1.943 . S
O1283 C1282 1.249 . S
O1284 Zn1274 2.067 . S
O1284 C1282 1.270 . S
C1285 O1278 1.262 . S
C1285 O1286 1.232 . S
O1286 C1285 1.232 . S
C1287 O1279 1.260 . S
C1287 O1280 1.257 . S
Zn1288 O1291 2.031 . S
Zn1288 O1293 2.049 . S
Zn1288 O1298 2.067 . S
Zn1289 O1290 1.962 . S
Zn1289 O1292 1.986 . S
Zn1289 O1294 1.996 . S
Zn1289 O1297 1.943 . S
O1290 Zn1289 1.962 . S
O1290 C1295 1.254 . S
O1291 Zn1288 2.031 . S
O1291 C1295 1.269 . S
O1292 Zn1289 1.986 . S
O1292 C1299 1.262 . S
O1293 Zn1288 2.049 . S
O1293 C1301 1.260 . S
O1294 Zn1289 1.996 . S
O1294 C1301 1.257 . S
C1295 O1290 1.254 . S
C1295 O1291 1.269 . S
C1296 O1297 1.249 . S
C1296 O1298 1.270 . S
O1297 Zn1289 1.943 . S
O1297 C1296 1.249 . S
O1298 Zn1288 2.067 . S
O1298 C1296 1.270 . S
C1299 O1292 1.262 . S
C1299 O1300 1.232 . S
O1300 C1299 1.232 . S
C1301 O1293 1.260 . S
C1301 O1294 1.257 . S
Zn1302 O1305 2.031 . S
Zn1302 O1307 2.049 . S
Zn1302 O1312 2.067 . S
Zn1303 O1304 1.962 . S
Zn1303 O1306 1.986 . S
Zn1303 O1308 1.996 . S
Zn1303 O1311 1.943 . S
O1304 Zn1303 1.962 . S
O1304 C1309 1.254 . S
O1305 Zn1302 2.031 . S
O1305 C1309 1.269 . S
O1306 Zn1303 1.986 . S
O1306 C1313 1.262 . S
O1307 Zn1302 2.049 . S
O1307 C1315 1.260 . S
O1308 Zn1303 1.996 . S
O1308 C1315 1.257 . S
C1309 O1304 1.254 . S
C1309 O1305 1.269 . S
C1310 O1311 1.249 . S
C1310 O1312 1.270 . S
O1311 Zn1303 1.943 . S
O1311 C1310 1.249 . S
O1312 Zn1302 2.067 . S
O1312 C1310 1.270 . S
C1313 O1306 1.262 . S
C1313 O1314 1.232 . S
O1314 C1313 1.232 . S
C1315 O1307 1.260 . S
C1315 O1308 1.257 . S
Zn1316 O1319 2.031 . S
Zn1316 O1321 2.049 . S
Zn1316 O1326 2.067 . S
Zn1317 O1318 1.962 . S
Zn1317 O1320 1.986 . S
Zn1317 O1322 1.996 . S
Zn1317 O1325 1.943 . S
O1318 Zn1317 1.962 . S
O1318 C1323 1.254 . S
O1319 Zn1316 2.031 . S
O1319 C1323 1.269 . S
O1320 Zn1317 1.986 . S
O1320 C1327 1.262 . S
O1321 Zn1316 2.049 . S
O1321 C1329 1.260 . S
O1322 Zn1317 1.996 . S
O1322 C1329 1.257 . S
C1323 O1318 1.254 . S
C1323 O1319 1.269 . S
C1324 O1325 1.249 . S
C1324 O1326 1.270 . S
O1325 Zn1317 1.943 . S
O1325 C1324 1.249 . S
O1326 Zn1316 2.067 . S
O1326 C1324 1.270 . S
C1327 O1320 1.262 . S
C1327 O1328 1.232 . S
O1328 C1327 1.232 . S
C1329 O1321 1.260 . S
C1329 O1322 1.257 . S
Zn1330 O1333 2.031 . S
Zn1330 O1335 2.049 . S
Zn1330 O1340 2.067 . S
Zn1331 O1332 1.962 . S
Zn1331 O1334 1.986 . S
Zn1331 O1336 1.996 . S
Zn1331 O1339 1.943 . S
O1332 Zn1331 1.962 . S
O1332 C1337 1.254 . S
O1333 Zn1330 2.031 . S
O1333 C1337 1.269 . S
O1334 Zn1331 1.986 . S
O1334 C1341 1.262 . S
O1335 Zn1330 2.049 . S
O1335 C1343 1.260 . S
O1336 Zn1331 1.996 . S
O1336 C1343 1.257 . S
C1337 O1332 1.254 . S
C1337 O1333 1.269 . S
C1338 O1339 1.249 . S
C1338 O1340 1.270 . S
O1339 Zn1331 1.943 . S
O1339 C1338 1.249 . S
O1340 Zn1330 2.067 . S
O1340 C1338 1.270 . S
C1341 O1334 1.262 . S
C1341 O1342 1.232 . S
O1342 C1341 1.232 . S
C1343 O1335 1.260 . S
C1343 O1336 1.257 . S
C1344 C1345 1.387 . S
C1344 H1348 0.950 . S
C1344 C1353 1.390 . S
C1345 C1344 1.387 . S
C1345 C1347 1.387 . S
H1346 C1353 0.950 . S
C1347 C1345 1.387 . S
C1347 C1349 1.390 . S
C1347 H1351 0.950 . S
H1348 C1344 0.950 . S
C1349 C1347 1.390 . S
C1349 C1350 1.387 . S
C1349 H1352 0.950 . S
C1350 C1349 1.387 . S
C1350 C1353 1.387 . S
H1351 C1347 0.950 . S
H1352 C1349 0.950 . S
C1353 C1344 1.390 . S
C1353 H1346 0.950 . S
C1353 C1350 1.387 . S
C1354 C1355 1.387 . S
C1354 H1358 0.950 . S
C1354 C1363 1.390 . S
C1355 C1354 1.387 . S
C1355 C1357 1.387 . S
H1356 C1363 0.950 . S
C1357 C1355 1.387 . S
C1357 C1359 1.390 . S
C1357 H1361 0.950 . S
H1358 C1354 0.950 . S
C1359 C1357 1.390 . S
C1359 C1360 1.387 . S
C1359 H1362 0.950 . S
C1360 C1359 1.387 . S
C1360 C1363 1.387 . S
H1361 C1357 0.950 . S
H1362 C1359 0.950 . S
C1363 C1354 1.390 . S
C1363 H1356 0.950 . S
C1363 C1360 1.387 . S
C1364 C1365 1.387 . S
C1364 H1368 0.950 . S
C1364 C1373 1.390 . S
C1365 C1364 1.387 . S
C1365 C1367 1.387 . S
H1366 C1373 0.950 . S
C1367 C1365 1.387 . S
C1367 C1369 1.390 . S
C1367 H1371 0.950 . S
H1368 C1364 0.950 . S
C1369 C1367 1.390 . S
C1369 C1370 1.387 . S
C1369 H1372 0.950 . S
C1370 C1369 1.387 . S
C1370 C1373 1.387 . S
H1371 C1367 0.950 . S
H1372 C1369 0.950 . S
C1373 C1364 1.390 . S
C1373 H1366 0.950 . S
C1373 C1370 1.387 . S
C1374 C1375 1.387 . S
C1374 H1378 0.950 . S
C1374 C1383 1.390 . S
C1375 C1374 1.387 . S
C1375 C1377 1.387 . S
H1376 C1383 0.950 . S
C1377 C1375 1.387 . S
C1377 C1379 1.390 . S
C1377 H1381 0.950 . S
H1378 C1374 0.950 . S
C1379 C1377 1.390 . S
C1379 C1380 1.387 . S
C1379 H1382 0.950 . S
C1380 C1379 1.387 . S
C1380 C1383 1.387 . S
H1381 C1377 0.950 . S
H1382 C1379 0.950 . S
C1383 C1374 1.390 . S
C1383 H1376 0.950 . S
C1383 C1380 1.387 . S
C1384 C1385 1.387 . S
C1384 H1388 0.950 . S
C1384 C1393 1.390 . S
C1385 C1384 1.387 . S
C1385 C1387 1.387 . S
H1386 C1393 0.950 . S
C1387 C1385 1.387 . S
C1387 C1389 1.390 . S
C1387 H1391 0.950 . S
H1388 C1384 0.950 . S
C1389 C1387 1.390 . S
C1389 C1390 1.387 . S
C1389 H1392 0.950 . S
C1390 C1389 1.387 . S
C1390 C1393 1.387 . S
H1391 C1387 0.950 . S
H1392 C1389 0.950 . S
C1393 C1384 1.390 . S
C1393 H1386 0.950 . S
C1393 C1390 1.387 . S
C1394 C1395 1.387 . S
C1394 H1398 0.950 . S
C1394 C1403 1.390 . S
C1395 C1394 1.387 . S
C1395 C1397 1.387 . S
H1396 C1403 0.950 . S
C1397 C1395 1.387 . S
C1397 C1399 1.390 . S
C1397 H1401 0.950 . S
H1398 C1394 0.950 . S
C1399 C1397 1.390 . S
C1399 C1400 1.387 . S
C1399 H1402 0.950 . S
C1400 C1399 1.387 . S
C1400 C1403 1.387 . S
H1401 C1397 0.950 . S
H1402 C1399 0.950 . S
C1403 C1394 1.390 . S
C1403 H1396 0.950 . S
C1403 C1400 1.387 . S
C1404 C1405 1.387 . S
C1404 H1408 0.950 . S
C1404 C1413 1.390 . S
C1405 C1404 1.387 . S
C1405 C1407 1.387 . S
H1406 C1413 0.950 . S
C1407 C1405 1.387 . S
C1407 C1409 1.390 . S
C1407 H1411 0.950 . S
H1408 C1404 0.950 . S
C1409 C1407 1.390 . S
C1409 C1410 1.387 . S
C1409 H1412 0.950 . S
C1410 C1409 1.387 . S
C1410 C1413 1.387 . S
H1411 C1407 0.950 . S
H1412 C1409 0.950 . S
C1413 C1404 1.390 . S
C1413 H1406 0.950 . S
C1413 C1410 1.387 . S
C1414 C1415 1.387 . S
C1414 H1418 0.950 . S
C1414 C1423 1.390 . S
C1415 C1414 1.387 . S
C1415 C1417 1.387 . S
H1416 C1423 0.950 . S
C1417 C1415 1.387 . S
C1417 C1419 1.390 . S
C1417 H1421 0.950 . S
H1418 C1414 0.950 . S
C1419 C1417 1.390 . S
C1419 C1420 1.387 . S
C1419 H1422 0.950 . S
C1420 C1419 1.387 . S
C1420 C1423 1.387 . S
H1421 C1417 0.950 . S
H1422 C1419 0.950 . S
C1423 C1414 1.390 . S
C1423 H1416 0.950 . S
C1423 C1420 1.387 . S
C1424 C1425 1.387 . S
C1424 H1428 0.950 . S
C1424 C1433 1.390 . S
C1425 C1424 1.387 . S
C1425 C1427 1.387 . S
H1426 C1433 0.950 . S
C1427 C1425 1.387 . S
C1427 C1429 1.390 . S
C1427 H1431 0.950 . S
H1428 C1424 0.950 . S
C1429 C1427 1.390 . S
C1429 C1430 1.387 . S
C1429 H1432 0.950 . S
C1430 C1429 1.387 . S
C1430 C1433 1.387 . S
H1431 C1427 0.950 . S
H1432 C1429 0.950 . S
C1433 C1424 1.390 . S
C1433 H1426 0.950 . S
C1433 C1430 1.387 . S
C1434 C1435 1.387 . S
C1434 H1438 0.950 . S
C1434 C1443 1.390 . S
C1435 C1434 1.387 . S
C1435 C1437 1.387 . S
H1436 C1443 0.950 . S
C1437 C1435 1.387 . S
C1437 C1439 1.390 . S
C1437 H1441 0.950 . S
H1438 C1434 0.950 . S
C1439 C1437 1.390 . S
C1439 C1440 1.387 . S
C1439 H1442 0.950 . S
C1440 C1439 1.387 . S
C1440 C1443 1.387 . S
H1441 C1437 0.950 . S
H1442 C1439 0.950 . S
C1443 C1434 1.390 . S
C1443 H1436 0.950 . S
C1443 C1440 1.387 . S
C1444 C1445 1.387 . S
C1444 H1448 0.950 . S
C1444 C1453 1.390 . S
C1445 C1444 1.387 . S
C1445 C1447 1.387 . S
H1446 C1453 0.950 . S
C1447 C1445 1.387 . S
C1447 C1449 1.390 . S
C1447 H1451 0.950 . S
H1448 C1444 0.950 . S
C1449 C1447 1.390 . S
C1449 C1450 1.387 . S
C1449 H1452 0.950 . S
C1450 C1449 1.387 . S
C1450 C1453 1.387 . S
H1451 C1447 0.950 . S
H1452 C1449 0.950 . S
C1453 C1444 1.390 . S
C1453 H1446 0.950 . S
C1453 C1450 1.387 . S
C1454 C1455 1.387 . S
C1454 H1458 0.950 . S
C1454 C1463 1.390 . S
C1455 C1454 1.387 . S
C1455 C1457 1.387 . S
H1456 C1463 0.950 . S
C1457 C1455 1.387 . S
C1457 C1459 1.390 . S
C1457 H1461 0.950 . S
H1458 C1454 0.950 . S
C1459 C1457 1.390 . S
C1459 C1460 1.387 . S
C1459 H1462 0.950 . S
C1460 C1459 1.387 . S
C1460 C1463 1.387 . S
H1461 C1457 0.950 . S
H1462 C1459 0.950 . S
C1463 C1454 1.390 . S
C1463 H1456 0.950 . S
C1463 C1460 1.387 . S
C1464 C1465 1.387 . S
C1464 H1468 0.950 . S
C1464 C1473 1.390 . S
C1465 C1464 1.387 . S
C1465 C1467 1.387 . S
H1466 C1473 0.950 . S
C1467 C1465 1.387 . S
C1467 C1469 1.390 . S
C1467 H1471 0.950 . S
H1468 C1464 0.950 . S
C1469 C1467 1.390 . S
C1469 C1470 1.387 . S
C1469 H1472 0.950 . S
C1470 C1469 1.387 . S
C1470 C1473 1.387 . S
H1471 C1467 0.950 . S
H1472 C1469 0.950 . S
C1473 C1464 1.390 . S
C1473 H1466 0.950 . S
C1473 C1470 1.387 . S
C1474 C1475 1.387 . S
C1474 H1478 0.950 . S
C1474 C1483 1.390 . S
C1475 C1474 1.387 . S
C1475 C1477 1.387 . S
H1476 C1483 0.950 . S
C1477 C1475 1.387 . S
C1477 C1479 1.390 . S
C1477 H1481 0.950 . S
H1478 C1474 0.950 . S
C1479 C1477 1.390 . S
C1479 C1480 1.387 . S
C1479 H1482 0.950 . S
C1480 C1479 1.387 . S
C1480 C1483 1.387 . S
H1481 C1477 0.950 . S
H1482 C1479 0.950 . S
C1483 C1474 1.390 . S
C1483 H1476 0.950 . S
C1483 C1480 1.387 . S
C1484 C1485 1.387 . S
C1484 H1488 0.950 . S
C1484 C1493 1.390 . S
C1485 C1484 1.387 . S
C1485 C1487 1.387 . S
H1486 C1493 0.950 . S
C1487 C1485 1.387 . S
C1487 C1489 1.390 . S
C1487 H1491 0.950 . S
H1488 C1484 0.950 . S
C1489 C1487 1.390 . S
C1489 C1490 1.387 . S
C1489 H1492 0.950 . S
C1490 C1489 1.387 . S
C1490 C1493 1.387 . S
H1491 C1487 0.950 . S
H1492 C1489 0.950 . S
C1493 C1484 1.390 . S
C1493 H1486 0.950 . S
C1493 C1490 1.387 . S
C1494 C1495 1.387 . S
C1494 H1498 0.950 . S
C1494 C1503 1.390 . S
C1495 C1494 1.387 . S
C1495 C1497 1.387 . S
H1496 C1503 0.950 . S
C1497 C1495 1.387 . S
C1497 C1499 1.390 . S
C1497 H1501 0.950 . S
H1498 C1494 0.950 . S
C1499 C1497 1.390 . S
C1499 C1500 1.387 . S
C1499 H1502 0.950 . S
C1500 C1499 1.387 . S
C1500 C1503 1.387 . S
H1501 C1497 0.950 . S
H1502 C1499 0.950 . S
C1503 C1494 1.390 . S
C1503 H1496 0.950 . S
C1503 C1500 1.387 . S
C1504 C1505 1.387 . S
C1504 H1508 0.950 . S
C1504 C1513 1.390 . S
C1505 C1504 1.387 . S
C1505 C1507 1.387 . S
H1506 C1513 0.950 . S
C1507 C1505 1.387 . S
C1507 C1509 1.390 . S
C1507 H1511 0.950 . S
H1508 C1504 0.950 . S
C1509 C1507 1.390 . S
C1509 C1510 1.387 . S
C1509 H1512 0.950 . S
C1510 C1509 1.387 . S
C1510 C1513 1.387 . S
H1511 C1507 0.950 . S
H1512 C1509 0.950 . S
C1513 C1504 1.390 . S
C1513 H1506 0.950 . S
C1513 C1510 1.387 . S
C1514 C1515 1.387 . S
C1514 H1518 0.950 . S
C1514 C1523 1.390 . S
C1515 C1514 1.387 . S
C1515 C1517 1.387 . S
H1516 C1523 0.950 . S
C1517 C1515 1.387 . S
C1517 C1519 1.390 . S
C1517 H1521 0.950 . S
H1518 C1514 0.950 . S
C1519 C1517 1.390 . S
C1519 C1520 1.387 . S
C1519 H1522 0.950 . S
C1520 C1519 1.387 . S
C1520 C1523 1.387 . S
H1521 C1517 0.950 . S
H1522 C1519 0.950 . S
C1523 C1514 1.390 . S
C1523 H1516 0.950 . S
C1523 C1520 1.387 . S
C1524 C1525 1.387 . S
C1524 H1528 0.950 . S
C1524 C1533 1.390 . S
C1525 C1524 1.387 . S
C1525 C1527 1.387 . S
H1526 C1533 0.950 . S
C1527 C1525 1.387 . S
C1527 C1529 1.390 . S
C1527 H1531 0.950 . S
H1528 C1524 0.950 . S
C1529 C1527 1.390 . S
C1529 C1530 1.387 . S
C1529 H1532 0.950 . S
C1530 C1529 1.387 . S
C1530 C1533 1.387 . S
H1531 C1527 0.950 . S
H1532 C1529 0.950 . S
C1533 C1524 1.390 . S
C1533 H1526 0.950 . S
C1533 C1530 1.387 . S
C1534 C1535 1.387 . S
C1534 H1538 0.950 . S
C1534 C1543 1.390 . S
C1535 C1534 1.387 . S
C1535 C1537 1.387 . S
H1536 C1543 0.950 . S
C1537 C1535 1.387 . S
C1537 C1539 1.390 . S
C1537 H1541 0.950 . S
H1538 C1534 0.950 . S
C1539 C1537 1.390 . S
C1539 C1540 1.387 . S
C1539 H1542 0.950 . S
C1540 C1539 1.387 . S
C1540 C1543 1.387 . S
H1541 C1537 0.950 . S
H1542 C1539 0.950 . S
C1543 C1534 1.390 . S
C1543 H1536 0.950 . S
C1543 C1540 1.387 . S
C1544 C1545 1.387 . S
C1544 H1548 0.950 . S
C1544 C1553 1.390 . S
C1545 C1544 1.387 . S
C1545 C1547 1.387 . S
H1546 C1553 0.950 . S
C1547 C1545 1.387 . S
C1547 C1549 1.390 . S
C1547 H1551 0.950 . S
H1548 C1544 0.950 . S
C1549 C1547 1.390 . S
C1549 C1550 1.387 . S
C1549 H1552 0.950 . S
C1550 C1549 1.387 . S
C1550 C1553 1.387 . S
H1551 C1547 0.950 . S
H1552 C1549 0.950 . S
C1553 C1544 1.390 . S
C1553 H1546 0.950 . S
C1553 C1550 1.387 . S
C1554 C1555 1.387 . S
C1554 H1558 0.950 . S
C1554 C1563 1.390 . S
C1555 C1554 1.387 . S
C1555 C1557 1.387 . S
H1556 C1563 0.950 . S
C1557 C1555 1.387 . S
C1557 C1559 1.390 . S
C1557 H1561 0.950 . S
H1558 C1554 0.950 . S
C1559 C1557 1.390 . S
C1559 C1560 1.387 . S
C1559 H1562 0.950 . S
C1560 C1559 1.387 . S
C1560 C1563 1.387 . S
H1561 C1557 0.950 . S
H1562 C1559 0.950 . S
C1563 C1554 1.390 . S
C1563 H1556 0.950 . S
C1563 C1560 1.387 . S
C1564 C1565 1.387 . S
C1564 H1568 0.950 . S
C1564 C1573 1.390 . S
C1565 C1564 1.387 . S
C1565 C1567 1.387 . S
H1566 C1573 0.950 . S
C1567 C1565 1.387 . S
C1567 C1569 1.390 . S
C1567 H1571 0.950 . S
H1568 C1564 0.950 . S
C1569 C1567 1.390 . S
C1569 C1570 1.387 . S
C1569 H1572 0.950 . S
C1570 C1569 1.387 . S
C1570 C1573 1.387 . S
H1571 C1567 0.950 . S
H1572 C1569 0.950 . S
C1573 C1564 1.390 . S
C1573 H1566 0.950 . S
C1573 C1570 1.387 . S
C1574 C1575 1.387 . S
C1574 H1578 0.950 . S
C1574 C1583 1.390 . S
C1575 C1574 1.387 . S
C1575 C1577 1.387 . S
H1576 C1583 0.950 . S
C1577 C1575 1.387 . S
C1577 C1579 1.390 . S
C1577 H1581 0.950 . S
H1578 C1574 0.950 . S
C1579 C1577 1.390 . S
C1579 C1580 1.387 . S
C1579 H1582 0.950 . S
C1580 C1579 1.387 . S
C1580 C1583 1.387 . S
H1581 C1577 0.950 . S
H1582 C1579 0.950 . S
C1583 C1574 1.390 . S
C1583 H1576 0.950 . S
C1583 C1580 1.387 . S
C1584 C1585 1.387 . S
C1584 H1588 0.950 . S
C1584 C1593 1.390 . S
C1585 C1584 1.387 . S
C1585 C1587 1.387 . S
H1586 C1593 0.950 . S
C1587 C1585 1.387 . S
C1587 C1589 1.390 . S
C1587 H1591 0.950 . S
H1588 C1584 0.950 . S
C1589 C1587 1.390 . S
C1589 C1590 1.387 . S
C1589 H1592 0.950 . S
C1590 C1589 1.387 . S
C1590 C1593 1.387 . S
H1591 C1587 0.950 . S
H1592 C1589 0.950 . S
C1593 C1584 1.390 . S
C1593 H1586 0.950 . S
C1593 C1590 1.387 . S
C1594 C1595 1.387 . S
C1594 H1598 0.950 . S
C1594 C1603 1.390 . S
C1595 C1594 1.387 . S
C1595 C1597 1.387 . S
H1596 C1603 0.950 . S
C1597 C1595 1.387 . S
C1597 C1599 1.390 . S
C1597 H1601 0.950 . S
H1598 C1594 0.950 . S
C1599 C1597 1.390 . S
C1599 C1600 1.387 . S
C1599 H1602 0.950 . S
C1600 C1599 1.387 . S
C1600 C1603 1.387 . S
H1601 C1597 0.950 . S
H1602 C1599 0.950 . S
C1603 C1594 1.390 . S
C1603 H1596 0.950 . S
C1603 C1600 1.387 . S
C1604 C1605 1.387 . S
C1604 H1608 0.950 . S
C1604 C1613 1.390 . S
C1605 C1604 1.387 . S
C1605 C1607 1.387 . S
H1606 C1613 0.950 . S
C1607 C1605 1.387 . S
C1607 C1609 1.390 . S
C1607 H1611 0.950 . S
H1608 C1604 0.950 . S
C1609 C1607 1.390 . S
C1609 C1610 1.387 . S
C1609 H1612 0.950 . S
C1610 C1609 1.387 . S
C1610 C1613 1.387 . S
H1611 C1607 0.950 . S
H1612 C1609 0.950 . S
C1613 C1604 1.390 . S
C1613 H1606 0.950 . S
C1613 C1610 1.387 . S
C1614 C1615 1.387 . S
C1614 H1618 0.950 . S
C1614 C1623 1.390 . S
C1615 C1614 1.387 . S
C1615 C1617 1.387 . S
H1616 C1623 0.950 . S
C1617 C1615 1.387 . S
C1617 C1619 1.390 . S
C1617 H1621 0.950 . S
H1618 C1614 0.950 . S
C1619 C1617 1.390 . S
C1619 C1620 1.387 . S
C1619 H1622 0.950 . S
C1620 C1619 1.387 . S
C1620 C1623 1.387 . S
H1621 C1617 0.950 . S
H1622 C1619 0.950 . S
C1623 C1614 1.390 . S
C1623 H1616 0.950 . S
C1623 C1620 1.387 . S
C1624 C1625 1.387 . S
C1624 H1628 0.950 . S
C1624 C1633 1.390 . S
C1625 C1624 1.387 . S
C1625 C1627 1.387 . S
H1626 C1633 0.950 . S
C1627 C1625 1.387 . S
C1627 C1629 1.390 . S
C1627 H1631 0.950 . S
H1628 C1624 0.950 . S
C1629 C1627 1.390 . S
C1629 C1630 1.387 . S
C1629 H1632 0.950 . S
C1630 C1629 1.387 . S
C1630 C1633 1.387 . S
H1631 C1627 0.950 . S
H1632 C1629 0.950 . S
C1633 C1624 1.390 . S
C1633 H1626 0.950 . S
C1633 C1630 1.387 . S
C1634 C1635 1.387 . S
C1634 H1638 0.950 . S
C1634 C1643 1.390 . S
C1635 C1634 1.387 . S
C1635 C1637 1.387 . S
H1636 C1643 0.950 . S
C1637 C1635 1.387 . S
C1637 C1639 1.390 . S
C1637 H1641 0.950 . S
H1638 C1634 0.950 . S
C1639 C1637 1.390 . S
C1639 C1640 1.387 . S
C1639 H1642 0.950 . S
C1640 C1639 1.387 . S
C1640 C1643 1.387 . S
H1641 C1637 0.950 . S
H1642 C1639 0.950 . S
C1643 C1634 1.390 . S
C1643 H1636 0.950 . S
C1643 C1640 1.387 . S
C1644 C1645 1.387 . S
C1644 H1648 0.950 . S
C1644 C1653 1.390 . S
C1645 C1644 1.387 . S
C1645 C1647 1.387 . S
H1646 C1653 0.950 . S
C1647 C1645 1.387 . S
C1647 C1649 1.390 . S
C1647 H1651 0.950 . S
H1648 C1644 0.950 . S
C1649 C1647 1.390 . S
C1649 C1650 1.387 . S
C1649 H1652 0.950 . S
C1650 C1649 1.387 . S
C1650 C1653 1.387 . S
H1651 C1647 0.950 . S
H1652 C1649 0.950 . S
C1653 C1644 1.390 . S
C1653 H1646 0.950 . S
C1653 C1650 1.387 . S
C1654 C1655 1.387 . S
C1654 H1658 0.950 . S
C1654 C1663 1.390 . S
C1655 C1654 1.387 . S
C1655 C1657 1.387 . S
H1656 C1663 0.950 . S
C1657 C1655 1.387 . S
C1657 C1659 1.390 . S
C1657 H1661 0.950 . S
H1658 C1654 0.950 . S
C1659 C1657 1.390 . S
C1659 C1660 1.387 . S
C1659 H1662 0.950 . S
C1660 C1659 1.387 . S
C1660 C1663 1.387 . S
H1661 C1657 0.950 . S
H1662 C1659 0.950 . S
C1663 C1654 1.390 . S
C1663 H1656 0.950 . S
C1663 C1660 1.387 . S
C1664 C1665 1.387 . S
C1664 H1668 0.950 . S
C1664 C1673 1.390 . S
C1665 C1664 1.387 . S
C1665 C1667 1.387 . S
H1666 C1673 0.950 . S
C1667 C1665 1.387 . S
C1667 C1669 1.390 . S
C1667 H1671 0.950 . S
H1668 C1664 0.950 . S
C1669 C1667 1.390 . S
C1669 C1670 1.387 . S
C1669 H1672 0.950 . S
C1670 C1669 1.387 . S
C1670 C1673 1.387 . S
H1671 C1667 0.950 . S
H1672 C1669 0.950 . S
C1673 C1664 1.390 . S
C1673 H1666 0.950 . S
C1673 C1670 1.387 . S
C1674 C1675 1.387 . S
C1674 H1678 0.950 . S
C1674 C1683 1.390 . S
C1675 C1674 1.387 . S
C1675 C1677 1.387 . S
H1676 C1683 0.950 . S
C1677 C1675 1.387 . S
C1677 C1679 1.390 . S
C1677 H1681 0.950 . S
H1678 C1674 0.950 . S
C1679 C1677 1.390 . S
C1679 C1680 1.387 . S
C1679 H1682 0.950 . S
C1680 C1679 1.387 . S
C1680 C1683 1.387 . S
H1681 C1677 0.950 . S
H1682 C1679 0.950 . S
C1683 C1674 1.390 . S
C1683 H1676 0.950 . S
C1683 C1680 1.387 . S
C1684 C1685 1.387 . S
C1684 H1688 0.950 . S
C1684 C1693 1.390 . S
C1685 C1684 1.387 . S
C1685 C1687 1.387 . S
H1686 C1693 0.950 . S
C1687 C1685 1.387 . S
C1687 C1689 1.390 . S
C1687 H1691 0.950 . S
H1688 C1684 0.950 . S
C1689 C1687 1.390 . S
C1689 C1690 1.387 . S
C1689 H1692 0.950 . S
C1690 C1689 1.387 . S
C1690 C1693 1.387 . S
H1691 C1687 0.950 . S
H1692 C1689 0.950 . S
C1693 C1684 1.390 . S
C1693 H1686 0.950 . S
C1693 C1690 1.387 . S
C1694 C1695 1.387 . S
C1694 H1698 0.950 . S
C1694 C1703 1.390 . S
C1695 C1694 1.387 . S
C1695 C1697 1.387 . S
H1696 C1703 0.950 . S
C1697 C1695 1.387 . S
C1697 C1699 1.390 . S
C1697 H1701 0.950 . S
H1698 C1694 0.950 . S
C1699 C1697 1.390 . S
C1699 C1700 1.387 . S
C1699 H1702 0.950 . S
C1700 C1699 1.387 . S
C1700 C1703 1.387 . S
H1701 C1697 0.950 . S
H1702 C1699 0.950 . S
C1703 C1694 1.390 . S
C1703 H1696 0.950 . S
C1703 C1700 1.387 . S
C1704 C1705 1.387 . S
C1704 H1708 0.950 . S
C1704 C1713 1.390 . S
C1705 C1704 1.387 . S
C1705 C1707 1.387 . S
H1706 C1713 0.950 . S
C1707 C1705 1.387 . S
C1707 C1709 1.390 . S
C1707 H1711 0.950 . S
H1708 C1704 0.950 . S
C1709 C1707 1.390 . S
C1709 C1710 1.387 . S
C1709 H1712 0.950 . S
C1710 C1709 1.387 . S
C1710 C1713 1.387 . S
H1711 C1707 0.950 . S
H1712 C1709 0.950 . S
C1713 C1704 1.390 . S
C1713 H1706 0.950 . S
C1713 C1710 1.387 . S
C1714 C1715 1.387 . S
C1714 H1718 0.950 . S
C1714 C1723 1.390 . S
C1715 C1714 1.387 . S
C1715 C1717 1.387 . S
H1716 C1723 0.950 . S
C1717 C1715 1.387 . S
C1717 C1719 1.390 . S
C1717 H1721 0.950 . S
H1718 C1714 0.950 . S
C1719 C1717 1.390 . S
C1719 C1720 1.387 . S
C1719 H1722 0.950 . S
C1720 C1719 1.387 . S
C1720 C1723 1.387 . S
H1721 C1717 0.950 . S
H1722 C1719 0.950 . S
C1723 C1714 1.390 . S
C1723 H1716 0.950 . S
C1723 C1720 1.387 . S
C1724 C1725 1.387 . S
C1724 H1728 0.950 . S
C1724 C1733 1.390 . S
C1725 C1724 1.387 . S
C1725 C1727 1.387 . S
H1726 C1733 0.950 . S
C1727 C1725 1.387 . S
C1727 C1729 1.390 . S
C1727 H1731 0.950 . S
H1728 C1724 0.950 . S
C1729 C1727 1.390 . S
C1729 C1730 1.387 . S
C1729 H1732 0.950 . S
C1730 C1729 1.387 . S
C1730 C1733 1.387 . S
H1731 C1727 0.950 . S
H1732 C1729 0.950 . S
C1733 C1724 1.390 . S
C1733 H1726 0.950 . S
C1733 C1730 1.387 . S
C1734 C1735 1.387 . S
C1734 H1738 0.950 . S
C1734 C1743 1.390 . S
C1735 C1734 1.387 . S
C1735 C1737 1.387 . S
H1736 C1743 0.950 . S
C1737 C1735 1.387 . S
C1737 C1739 1.390 . S
C1737 H1741 0.950 . S
H1738 C1734 0.950 . S
C1739 C1737 1.390 . S
C1739 C1740 1.387 . S
C1739 H1742 0.950 . S
C1740 C1739 1.387 . S
C1740 C1743 1.387 . S
H1741 C1737 0.950 . S
H1742 C1739 0.950 . S
C1743 C1734 1.390 . S
C1743 H1736 0.950 . S
C1743 C1740 1.387 . S
C1744 C1745 1.387 . S
C1744 H1748 0.950 . S
C1744 C1753 1.390 . S
C1745 C1744 1.387 . S
C1745 C1747 1.387 . S
H1746 C1753 0.950 . S
C1747 C1745 1.387 . S
C1747 C1749 1.390 . S
C1747 H1751 0.950 . S
H1748 C1744 0.950 . S
C1749 C1747 1.390 . S
C1749 C1750 1.387 . S
C1749 H1752 0.950 . S
C1750 C1749 1.387 . S
C1750 C1753 1.387 . S
H1751 C1747 0.950 . S
H1752 C1749 0.950 . S
C1753 C1744 1.390 . S
C1753 H1746 0.950 . S
C1753 C1750 1.387 . S
C1754 C1755 1.387 . S
C1754 H1758 0.950 . S
C1754 C1763 1.390 . S
C1755 C1754 1.387 . S
C1755 C1757 1.387 . S
H1756 C1763 0.950 . S
C1757 C1755 1.387 . S
C1757 C1759 1.390 . S
C1757 H1761 0.950 . S
H1758 C1754 0.950 . S
C1759 C1757 1.390 . S
C1759 C1760 1.387 . S
C1759 H1762 0.950 . S
C1760 C1759 1.387 . S
C1760 C1763 1.387 . S
H1761 C1757 0.950 . S
H1762 C1759 0.950 . S
C1763 C1754 1.390 . S
C1763 H1756 0.950 . S
C1763 C1760 1.387 . S
C1764 C1765 1.387 . S
C1764 H1768 0.950 . S
C1764 C1773 1.390 . S
C1765 C1764 1.387 . S
C1765 C1767 1.387 . S
H1766 C1773 0.950 . S
C1767 C1765 1.387 . S
C1767 C1769 1.390 . S
C1767 H1771 0.950 . S
H1768 C1764 0.950 . S
C1769 C1767 1.390 . S
C1769 C1770 1.387 . S
C1769 H1772 0.950 . S
C1770 C1769 1.387 . S
C1770 C1773 1.387 . S
H1771 C1767 0.950 . S
H1772 C1769 0.950 . S
C1773 C1764 1.390 . S
C1773 H1766 0.950 . S
C1773 C1770 1.387 . S
C1774 C1775 1.387 . S
C1774 H1778 0.950 . S
C1774 C1783 1.390 . S
C1775 C1774 1.387 . S
C1775 C1777 1.387 . S
H1776 C1783 0.950 . S
C1777 C1775 1.387 . S
C1777 C1779 1.390 . S
C1777 H1781 0.950 . S
H1778 C1774 0.950 . S
C1779 C1777 1.390 . S
C1779 C1780 1.387 . S
C1779 H1782 0.950 . S
C1780 C1779 1.387 . S
C1780 C1783 1.387 . S
H1781 C1777 0.950 . S
H1782 C1779 0.950 . S
C1783 C1774 1.390 . S
C1783 H1776 0.950 . S
C1783 C1780 1.387 . S
C1784 C1785 1.387 . S
C1784 H1788 0.950 . S
C1784 C1793 1.390 . S
C1785 C1784 1.387 . S
C1785 C1787 1.387 . S
H1786 C1793 0.950 . S
C1787 C1785 1.387 . S
C1787 C1789 1.390 . S
C1787 H1791 0.950 . S
H1788 C1784 0.950 . S
C1789 C1787 1.390 . S
C1789 C1790 1.387 . S
C1789 H1792 0.950 . S
C1790 C1789 1.387 . S
C1790 C1793 1.387 . S
H1791 C1787 0.950 . S
H1792 C1789 0.950 . S
C1793 C1784 1.390 . S
C1793 H1786 0.950 . S
C1793 C1790 1.387 . S
C1794 C1795 1.387 . S
C1794 H1798 0.950 . S
C1794 C1803 1.390 . S
C1795 C1794 1.387 . S
C1795 C1797 1.387 . S
H1796 C1803 0.950 . S
C1797 C1795 1.387 . S
C1797 C1799 1.390 . S
C1797 H1801 0.950 . S
H1798 C1794 0.950 . S
C1799 C1797 1.390 . S
C1799 C1800 1.387 . S
C1799 H1802 0.950 . S
C1800 C1799 1.387 . S
C1800 C1803 1.387 . S
H1801 C1797 0.950 . S
H1802 C1799 0.950 . S
C1803 C1794 1.390 . S
C1803 H1796 0.950 . S
C1803 C1800 1.387 . S
C1804 C1805 1.387 . S
C1804 H1808 0.950 . S
C1804 C1813 1.390 . S
C1805 C1804 1.387 . S
C1805 C1807 1.387 . S
H1806 C1813 0.950 . S
C1807 C1805 1.387 . S
C1807 C1809 1.390 . S
C1807 H1811 0.950 . S
H1808 C1804 0.950 . S
C1809 C1807 1.390 . S
C1809 C1810 1.387 . S
C1809 H1812 0.950 . S
C1810 C1809 1.387 . S
C1810 C1813 1.387 . S
H1811 C1807 0.950 . S
H1812 C1809 0.950 . S
C1813 C1804 1.390 . S
C1813 H1806 0.950 . S
C1813 C1810 1.387 . S
C1814 C1815 1.387 . S
C1814 H1818 0.950 . S
C1814 C1823 1.390 . S
C1815 C1814 1.387 . S
C1815 C1817 1.387 . S
H1816 C1823 0.950 . S
C1817 C1815 1.387 . S
C1817 C1819 1.390 . S
C1817 H1821 0.950 . S
H1818 C1814 0.950 . S
C1819 C1817 1.390 . S
C1819 C1820 1.387 . S
C1819 H1822 0.950 . S
C1820 C1819 1.387 . S
C1820 C1823 1.387 . S
H1821 C1817 0.950 . S
H1822 C1819 0.950 . S
C1823 C1814 1.390 . S
C1823 H1816 0.950 . S
C1823 C1820 1.387 . S
C1824 C1825 1.387 . S
C1824 H1828 0.950 . S
C1824 C1833 1.390 . S
C1825 C1824 1.387 . S
C1825 C1827 1.387 . S
H1826 C1833 0.950 . S
C1827 C1825 1.387 . S
C1827 C1829 1.390 . S
C1827 H1831 0.950 . S
H1828 C1824 0.950 . S
C1829 C1827 1.390 . S
C1829 C1830 1.387 . S
C1829 H1832 0.950 . S
C1830 C1829 1.387 . S
C1830 C1833 1.387 . S
H1831 C1827 0.950 . S
H1832 C1829 0.950 . S
C1833 C1824 1.390 . S
C1833 H1826 0.950 . S
C1833 C1830 1.387 . S
C1834 C1835 1.387 . S
C1834 H1838 0.950 . S
C1834 C1843 1.390 . S
C1835 C1834 1.387 . S
C1835 C1837 1.387 . S
H1836 C1843 0.950 . S
C1837 C1835 1.387 . S
C1837 C1839 1.390 . S
C1837 H1841 0.950 . S
H1838 C1834 0.950 . S
C1839 C1837 1.390 . S
C1839 C1840 1.387 . S
C1839 H1842 0.950 . S
C1840 C1839 1.387 . S
C1840 C1843 1.387 . S
H1841 C1837 0.950 . S
H1842 C1839 0.950 . S
C1843 C1834 1.390 . S
C1843 H1836 0.950 . S
C1843 C1840 1.387 . S
C1844 C1845 1.387 . S
C1844 H1848 0.950 . S
C1844 C1853 1.390 . S
C1845 C1844 1.387 . S
C1845 C1847 1.387 . S
H1846 C1853 0.950 . S
C1847 C1845 1.387 . S
C1847 C1849 1.390 . S
C1847 H1851 0.950 . S
H1848 C1844 0.950 . S
C1849 C1847 1.390 . S
C1849 C1850 1.387 . S
C1849 H1852 0.950 . S
C1850 C1849 1.387 . S
C1850 C1853 1.387 . S
H1851 C1847 0.950 . S
H1852 C1849 0.950 . S
C1853 C1844 1.390 . S
C1853 H1846 0.950 . S
C1853 C1850 1.387 . S
C1854 C1855 1.387 . S
C1854 H1858 0.950 . S
C1854 C1863 1.390 . S
C1855 C1854 1.387 . S
C1855 C1857 1.387 . S
H1856 C1863 0.950 . S
C1857 C1855 1.387 . S
C1857 C1859 1.390 . S
C1857 H1861 0.950 . S
H1858 C1854 0.950 . S
C1859 C1857 1.390 . S
C1859 C1860 1.387 . S
C1859 H1862 0.950 . S
C1860 C1859 1.387 . S
C1860 C1863 1.387 . S
H1861 C1857 0.950 . S
H1862 C1859 0.950 . S
C1863 C1854 1.390 . S
C1863 H1856 0.950 . S
C1863 C1860 1.387 . S
C1864 C1865 1.387 . S
C1864 H1868 0.950 . S
C1864 C1873 1.390 . S
C1865 C1864 1.387 . S
C1865 C1867 1.387 . S
H1866 C1873 0.950 . S
C1867 C1865 1.387 . S
C1867 C1869 1.390 . S
C1867 H1871 0.950 . S
H1868 C1864 0.950 . S
C1869 C1867 1.390 . S
C1869 C1870 1.387 . S
C1869 H1872 0.950 . S
C1870 C1869 1.387 . S
C1870 C1873 1.387 . S
H1871 C1867 0.950 . S
H1872 C1869 0.950 . S
C1873 C1864 1.390 . S
C1873 H1866 0.950 . S
C1873 C1870 1.387 . S
C1874 C1875 1.387 . S
C1874 H1878 0.950 . S
C1874 C1883 1.390 . S
C1875 C1874 1.387 . S
C1875 C1877 1.387 . S
H1876 C1883 0.950 . S
C1877 C1875 1.387 . S
C1877 C1879 1.390 . S
C1877 H1881 0.950 . S
H1878 C1874 0.950 . S
C1879 C1877 1.390 . S
C1879 C1880 1.387 . S
C1879 H1882 0.950 . S
C1880 C1879 1.387 . S
C1880 C1883 1.387 . S
H1881 C1877 0.950 . S
H1882 C1879 0.950 . S
C1883 C1874 1.390 . S
C1883 H1876 0.950 . S
C1883 C1880 1.387 . S
C1884 C1885 1.387 . S
C1884 H1888 0.950 . S
C1884 C1893 1.390 . S
C1885 C1884 1.387 . S
C1885 C1887 1.387 . S
H1886 C1893 0.950 . S
C1887 C1885 1.387 . S
C1887 C1889 1.390 . S
C1887 H1891 0.950 . S
H1888 C1884 0.950 . S
C1889 C1887 1.390 . S
C1889 C1890 1.387 . S
C1889 H1892 0.950 . S
C1890 C1889 1.387 . S
C1890 C1893 1.387 . S
H1891 C1887 0.950 . S
H1892 C1889 0.950 . S
C1893 C1884 1.390 . S
C1893 H1886 0.950 . S
C1893 C1890 1.387 . S
C1894 C1895 1.387 . S
C1894 H1898 0.950 . S
C1894 C1903 1.390 . S
C1895 C1894 1.387 . S
C1895 C1897 1.387 . S
H1896 C1903 0.950 . S
C1897 C1895 1.387 . S
C1897 C1899 1.390 . S
C1897 H1901 0.950 . S
H1898 C1894 0.950 . S
C1899 C1897 1.390 . S
C1899 C1900 1.387 . S
C1899 H1902 0.950 . S
C1900 C1899 1.387 . S
C1900 C1903 1.387 . S
H1901 C1897 0.950 . S
H1902 C1899 0.950 . S
C1903 C1894 1.390 . S
C1903 H1896 0.950 . S
C1903 C1900 1.387 . S
C1904 C1905 1.387 . S
C1904 H1908 0.950 . S
C1904 C1913 1.390 . S
C1905 C1904 1.387 . S
C1905 C1907 1.387 . S
H1906 C1913 0.950 . S
C1907 C1905 1.387 . S
C1907 C1909 1.390 . S
C1907 H1911 0.950 . S
H1908 C1904 0.950 . S
C1909 C1907 1.390 . S
C1909 C1910 1.387 . S
C1909 H1912 0.950 . S
C1910 C1909 1.387 . S
C1910 C1913 1.387 . S
H1911 C1907 0.950 . S
H1912 C1909 0.950 . S
C1913 C1904 1.390 . S
C1913 H1906 0.950 . S
C1913 C1910 1.387 . S
C1914 C1915 1.387 . S
C1914 H1918 0.950 . S
C1914 C1923 1.390 . S
C1915 C1914 1.387 . S
C1915 C1917 1.387 . S
H1916 C1923 0.950 . S
C1917 C1915 1.387 . S
C1917 C1919 1.390 . S
C1917 H1921 0.950 . S
H1918 C1914 0.950 . S
C1919 C1917 1.390 . S
C1919 C1920 1.387 . S
C1919 H1922 0.950 . S
C1920 C1919 1.387 . S
C1920 C1923 1.387 . S
H1921 C1917 0.950 . S
H1922 C1919 0.950 . S
C1923 C1914 1.390 . S
C1923 H1916 0.950 . S
C1923 C1920 1.387 . S
C1924 C1925 1.387 . S
C1924 H1928 0.950 . S
C1924 C1933 1.390 . S
C1925 C1924 1.387 . S
C1925 C1927 1.387 . S
H1926 C1933 0.950 . S
C1927 C1925 1.387 . S
C1927 C1929 1.390 . S
C1927 H1931 0.950 . S
H1928 C1924 0.950 . S
C1929 C1927 1.390 . S
C1929 C1930 1.387 . S
C1929 H1932 0.950 . S
C1930 C1929 1.387 . S
C1930 C1933 1.387 . S
H1931 C1927 0.950 . S
H1932 C1929 0.950 . S
C1933 C1924 1.390 . S
C1933 H1926 0.950 . S
C1933 C1930 1.387 . S
C1934 C1935 1.387 . S
C1934 H1938 0.950 . S
C1934 C1943 1.390 . S
C1935 C1934 1.387 . S
C1935 C1937 1.387 . S
H1936 C1943 0.950 . S
C1937 C1935 1.387 . S
C1937 C1939 1.390 . S
C1937 H1941 0.950 . S
H1938 C1934 0.950 . S
C1939 C1937 1.390 . S
C1939 C1940 1.387 . S
C1939 H1942 0.950 . S
C1940 C1939 1.387 . S
C1940 C1943 1.387 . S
H1941 C1937 0.950 . S
H1942 C1939 0.950 . S
C1943 C1934 1.390 . S
C1943 H1936 0.950 . S
C1943 C1940 1.387 . S
C1944 C1945 1.387 . S
C1944 H1948 0.950 . S
C1944 C1953 1.390 . S
C1945 C1944 1.387 . S
C1945 C1947 1.387 . S
H1946 C1953 0.950 . S
C1947 C1945 1.387 . S
C1947 C1949 1.390 . S
C1947 H1951 0.950 . S
H1948 C1944 0.950 . S
C1949 C1947 1.390 . S
C1949 C1950 1.387 . S
C1949 H1952 0.950 . S
C1950 C1949 1.387 . S
C1950 C1953 1.387 . S
H1951 C1947 0.950 . S
H1952 C1949 0.950 . S
C1953 C1944 1.390 . S
C1953 H1946 0.950 . S
C1953 C1950 1.387 . S
C1954 C1955 1.387 . S
C1954 H1958 0.950 . S
C1954 C1963 1.390 . S
C1955 C1954 1.387 . S
C1955 C1957 1.387 . S
H1956 C1963 0.950 . S
C1957 C1955 1.387 . S
C1957 C1959 1.390 . S
C1957 H1961 0.950 . S
H1958 C1954 0.950 . S
C1959 C1957 1.390 . S
C1959 C1960 1.387 . S
C1959 H1962 0.950 . S
C1960 C1959 1.387 . S
C1960 C1963 1.387 . S
H1961 C1957 0.950 . S
H1962 C1959 0.950 . S
C1963 C1954 1.390 . S
C1963 H1956 0.950 . S
C1963 C1960 1.387 . S
C1964 C1965 1.387 . S
C1964 H1968 0.950 . S
C1964 C1973 1.390 . S
C1965 C1964 1.387 . S
C1965 C1967 1.387 . S
H1966 C1973 0.950 . S
C1967 C1965 1.387 . S
C1967 C1969 1.390 . S
C1967 H1971 0.950 . S
H1968 C1964 0.950 . S
C1969 C1967 1.390 . S
C1969 C1970 1.387 . S
C1969 H1972 0.950 . S
C1970 C1969 1.387 . S
C1970 C1973 1.387 . S
H1971 C1967 0.950 . S
H1972 C1969 0.950 . S
C1973 C1964 1.390 . S
C1973 H1966 0.950 . S
C1973 C1970 1.387 . S
C1974 C1975 1.387 . S
C1974 H1978 0.950 . S
C1974 C1983 1.390 . S
C1975 C1974 1.387 . S
C1975 C1977 1.387 . S
H1976 C1983 0.950 . S
C1977 C1975 1.387 . S
C1977 C1979 1.390 . S
C1977 H1981 0.950 . S
H1978 C1974 0.950 . S
C1979 C1977 1.390 . S
C1979 C1980 1.387 . S
C1979 H1982 0.950 . S
C1980 C1979 1.387 . S
C1980 C1983 1.387 . S
H1981 C1977 0.950 . S
H1982 C1979 0.950 . S
C1983 C1974 1.390 . S
C1983 H1976 0.950 . S
C1983 C1980 1.387 . S
C1984 C1985 1.387 . S
C1984 H1988 0.950 . S
C1984 C1993 1.390 . S
C1985 C1984 1.387 . S
C1985 C1987 1.387 . S
H1986 C1993 0.950 . S
C1987 C1985 1.387 . S
C1987 C1989 1.390 . S
C1987 H1991 0.950 . S
H1988 C1984 0.950 . S
C1989 C1987 1.390 . S
C1989 C1990 1.387 . S
C1989 H1992 0.950 . S
C1990 C1989 1.387 . S
C1990 C1993 1.387 . S
H1991 C1987 0.950 . S
H1992 C1989 0.950 . S
C1993 C1984 1.390 . S
C1993 H1986 0.950 . S
C1993 C1990 1.387 . S
C1994 C1995 1.387 . S
C1994 H1998 0.950 . S
C1994 C2003 1.390 . S
C1995 C1994 1.387 . S
C1995 C1997 1.387 . S
H1996 C2003 0.950 . S
C1997 C1995 1.387 . S
C1997 C1999 1.390 . S
C1997 H2001 0.950 . S
H1998 C1994 0.950 . S
C1999 C1997 1.390 . S
C1999 C2000 1.387 . S
C1999 H2002 0.950 . S
C2000 C1999 1.387 . S
C2000 C2003 1.387 . S
H2001 C1997 0.950 . S
H2002 C1999 0.950 . S
C2003 C1994 1.390 . S
C2003 H1996 0.950 . S
C2003 C2000 1.387 . S
C2004 C2005 1.387 . S
C2004 H2008 0.950 . S
C2004 C2013 1.390 . S
C2005 C2004 1.387 . S
C2005 C2007 1.387 . S
H2006 C2013 0.950 . S
C2007 C2005 1.387 . S
C2007 C2009 1.390 . S
C2007 H2011 0.950 . S
H2008 C2004 0.950 . S
C2009 C2007 1.390 . S
C2009 C2010 1.387 . S
C2009 H2012 0.950 . S
C2010 C2009 1.387 . S
C2010 C2013 1.387 . S
H2011 C2007 0.950 . S
H2012 C2009 0.950 . S
C2013 C2004 1.390 . S
C2013 H2006 0.950 . S
C2013 C2010 1.387 . S
C2014 C2015 1.387 . S
C2014 H2018 0.950 . S
C2014 C2023 1.390 . S
C2015 C2014 1.387 . S
C2015 C2017 1.387 . S
H2016 C2023 0.950 . S
C2017 C2015 1.387 . S
C2017 C2019 1.390 . S
C2017 H2021 0.950 . S
H2018 C2014 0.950 . S
C2019 C2017 1.390 . S
C2019 C2020 1.387 . S
C2019 H2022 0.950 . S
C2020 C2019 1.387 . S
C2020 C2023 1.387 . S
H2021 C2017 0.950 . S
H2022 C2019 0.950 . S
C2023 C2014 1.390 . S
C2023 H2016 0.950 . S
C2023 C2020 1.387 . S
C2024 C2025 1.387 . S
C2024 H2028 0.950 . S
C2024 C2033 1.390 . S
C2025 C2024 1.387 . S
C2025 C2027 1.387 . S
H2026 C2033 0.950 . S
C2027 C2025 1.387 . S
C2027 C2029 1.390 . S
C2027 H2031 0.950 . S
H2028 C2024 0.950 . S
C2029 C2027 1.390 . S
C2029 C2030 1.387 . S
C2029 H2032 0.950 . S
C2030 C2029 1.387 . S
C2030 C2033 1.387 . S
H2031 C2027 0.950 . S
H2032 C2029 0.950 . S
C2033 C2024 1.390 . S
C2033 H2026 0.950 . S
C2033 C2030 1.387 . S
C2034 C2035 1.387 . S
C2034 H2038 0.950 . S
C2034 C2043 1.390 . S
C2035 C2034 1.387 . S
C2035 C2037 1.387 . S
H2036 C2043 0.950 . S
C2037 C2035 1.387 . S
C2037 C2039 1.390 . S
C2037 H2041 0.950 . S
H2038 C2034 0.950 . S
C2039 C2037 1.390 . S
C2039 C2040 1.387 . S
C2039 H2042 0.950 . S
C2040 C2039 1.387 . S
C2040 C2043 1.387 . S
H2041 C2037 0.950 . S
H2042 C2039 0.950 . S
C2043 C2034 1.390 . S
C2043 H2036 0.950 . S
C2043 C2040 1.387 . S
C2044 C2045 1.387 . S
C2044 H2048 0.950 . S
C2044 C2053 1.390 . S
C2045 C2044 1.387 . S
C2045 C2047 1.387 . S
H2046 C2053 0.950 . S
C2047 C2045 1.387 . S
C2047 C2049 1.390 . S
C2047 H2051 0.950 . S
H2048 C2044 0.950 . S
C2049 C2047 1.390 . S
C2049 C2050 1.387 . S
C2049 H2052 0.950 . S
C2050 C2049 1.387 . S
C2050 C2053 1.387 . S
H2051 C2047 0.950 . S
H2052 C2049 0.950 . S
C2053 C2044 1.390 . S
C2053 H2046 0.950 . S
C2053 C2050 1.387 . S
C2054 C2055 1.387 . S
C2054 H2058 0.950 . S
C2054 C2063 1.390 . S
C2055 C2054 1.387 . S
C2055 C2057 1.387 . S
H2056 C2063 0.950 . S
C2057 C2055 1.387 . S
C2057 C2059 1.390 . S
C2057 H2061 0.950 . S
H2058 C2054 0.950 . S
C2059 C2057 1.390 . S
C2059 C2060 1.387 . S
C2059 H2062 0.950 . S
C2060 C2059 1.387 . S
C2060 C2063 1.387 . S
H2061 C2057 0.950 . S
H2062 C2059 0.950 . S
C2063 C2054 1.390 . S
C2063 H2056 0.950 . S
C2063 C2060 1.387 . S
C2064 C2065 1.387 . S
C2064 H2068 0.950 . S
C2064 C2073 1.390 . S
C2065 C2064 1.387 . S
C2065 C2067 1.387 . S
H2066 C2073 0.950 . S
C2067 C2065 1.387 . S
C2067 C2069 1.390 . S
C2067 H2071 0.950 . S
H2068 C2064 0.950 . S
C2069 C2067 1.390 . S
C2069 C2070 1.387 . S
C2069 H2072 0.950 . S
C2070 C2069 1.387 . S
C2070 C2073 1.387 . S
H2071 C2067 0.950 . S
H2072 C2069 0.950 . S
C2073 C2064 1.390 . S
C2073 H2066 0.950 . S
C2073 C2070 1.387 . S
C2074 C2075 1.387 . S
C2074 H2078 0.950 . S
C2074 C2083 1.390 . S
C2075 C2074 1.387 . S
C2075 C2077 1.387 . S
H2076 C2083 0.950 . S
C2077 C2075 1.387 . S
C2077 C2079 1.390 . S
C2077 H2081 0.950 . S
H2078 C2074 0.950 . S
C2079 C2077 1.390 . S
C2079 C2080 1.387 . S
C2079 H2082 0.950 . S
C2080 C2079 1.387 . S
C2080 C2083 1.387 . S
H2081 C2077 0.950 . S
H2082 C2079 0.950 . S
C2083 C2074 1.390 . S
C2083 H2076 0.950 . S
C2083 C2080 1.387 . S
C2084 C2085 1.387 . S
C2084 H2088 0.950 . S
C2084 C2093 1.390 . S
C2085 C2084 1.387 . S
C2085 C2087 1.387 . S
H2086 C2093 0.950 . S
C2087 C2085 1.387 . S
C2087 C2089 1.390 . S
C2087 H2091 0.950 . S
H2088 C2084 0.950 . S
C2089 C2087 1.390 . S
C2089 C2090 1.387 . S
C2089 H2092 0.950 . S
C2090 C2089 1.387 . S
C2090 C2093 1.387 . S
H2091 C2087 0.950 . S
H2092 C2089 0.950 . S
C2093 C2084 1.390 . S
C2093 H2086 0.950 . S
C2093 C2090 1.387 . S
C2094 C2095 1.387 . S
C2094 H2098 0.950 . S
C2094 C2103 1.390 . S
C2095 C2094 1.387 . S
C2095 C2097 1.387 . S
H2096 C2103 0.950 . S
C2097 C2095 1.387 . S
C2097 C2099 1.390 . S
C2097 H2101 0.950 . S
H2098 C2094 0.950 . S
C2099 C2097 1.390 . S
C2099 C2100 1.387 . S
C2099 H2102 0.950 . S
C2100 C2099 1.387 . S
C2100 C2103 1.387 . S
H2101 C2097 0.950 . S
H2102 C2099 0.950 . S
C2103 C2094 1.390 . S
C2103 H2096 0.950 . S
C2103 C2100 1.387 . S
C2104 C2105 1.387 . S
C2104 H2108 0.950 . S
C2104 C2113 1.390 . S
C2105 C2104 1.387 . S
C2105 C2107 1.387 . S
H2106 C2113 0.950 . S
C2107 C2105 1.387 . S
C2107 C2109 1.390 . S
C2107 H2111 0.950 . S
H2108 C2104 0.950 . S
C2109 C2107 1.390 . S
C2109 C2110 1.387 . S
C2109 H2112 0.950 . S
C2110 C2109 1.387 . S
C2110 C2113 1.387 . S
H2111 C2107 0.950 . S
H2112 C2109 0.950 . S
C2113 C2104 1.390 . S
C2113 H2106 0.950 . S
C2113 C2110 1.387 . S
C2114 C2115 1.387 . S
C2114 H2118 0.950 . S
C2114 C2123 1.390 . S
C2115 C2114 1.387 . S
C2115 C2117 1.387 . S
H2116 C2123 0.950 . S
C2117 C2115 1.387 . S
C2117 C2119 1.390 . S
C2117 H2121 0.950 . S
H2118 C2114 0.950 . S
C2119 C2117 1.390 . S
C2119 C2120 1.387 . S
C2119 H2122 0.950 . S
C2120 C2119 1.387 . S
C2120 C2123 1.387 . S
H2121 C2117 0.950 . S
H2122 C2119 0.950 . S
C2123 C2114 1.390 . S
C2123 H2116 0.950 . S
C2123 C2120 1.387 . S
C2124 C2125 1.387 . S
C2124 H2128 0.950 . S
C2124 C2133 1.390 . S
C2125 C2124 1.387 . S
C2125 C2127 1.387 . S
H2126 C2133 0.950 . S
C2127 C2125 1.387 . S
C2127 C2129 1.390 . S
C2127 H2131 0.950 . S
H2128 C2124 0.950 . S
C2129 C2127 1.390 . S
C2129 C2130 1.387 . S
C2129 H2132 0.950 . S
C2130 C2129 1.387 . S
C2130 C2133 1.387 . S
H2131 C2127 0.950 . S
H2132 C2129 0.950 . S
C2133 C2124 1.390 . S
C2133 H2126 0.950 . S
C2133 C2130 1.387 . S
C2134 C2135 1.387 . S
C2134 H2138 0.950 . S
C2134 C2143 1.390 . S
C2135 C2134 1.387 . S
C2135 C2137 1.387 . S
H2136 C2143 0.950 . S
C2137 C2135 1.387 . S
C2137 C2139 1.390 . S
C2137 H2141 0.950 . S
H2138 C2134 0.950 . S
C2139 C2137 1.390 . S
C2139 C2140 1.387 . S
C2139 H2142 0.950 . S
C2140 C2139 1.387 . S
C2140 C2143 1.387 . S
H2141 C2137 0.950 . S
H2142 C2139 0.950 . S
C2143 C2134 1.390 . S
C2143 H2136 0.950 . S
C2143 C2140 1.387 . S
C2144 C2145 1.387 . S
C2144 H2148 0.950 . S
C2144 C2153 1.390 . S
C2145 C2144 1.387 . S
C2145 C2147 1.387 . S
H2146 C2153 0.950 . S
C2147 C2145 1.387 . S
C2147 C2149 1.390 . S
C2147 H2151 0.950 . S
H2148 C2144 0.950 . S
C2149 C2147 1.390 . S
C2149 C2150 1.387 . S
C2149 H2152 0.950 . S
C2150 C2149 1.387 . S
C2150 C2153 1.387 . S
H2151 C2147 0.950 . S
H2152 C2149 0.950 . S
C2153 C2144 1.390 . S
C2153 H2146 0.950 . S
C2153 C2150 1.387 . S
C2154 C2155 1.387 . S
C2154 H2158 0.950 . S
C2154 C2163 1.390 . S
C2155 C2154 1.387 . S
C2155 C2157 1.387 . S
H2156 C2163 0.950 . S
C2157 C2155 1.387 . S
C2157 C2159 1.390 . S
C2157 H2161 0.950 . S
H2158 C2154 0.950 . S
C2159 C2157 1.390 . S
C2159 C2160 1.387 . S
C2159 H2162 0.950 . S
C2160 C2159 1.387 . S
C2160 C2163 1.387 . S
H2161 C2157 0.950 . S
H2162 C2159 0.950 . S
C2163 C2154 1.390 . S
C2163 H2156 0.950 . S
C2163 C2160 1.387 . S
C2164 C2165 1.387 . S
C2164 H2168 0.950 . S
C2164 C2173 1.390 . S
C2165 C2164 1.387 . S
C2165 C2167 1.387 . S
H2166 C2173 0.950 . S
C2167 C2165 1.387 . S
C2167 C2169 1.390 . S
C2167 H2171 0.950 . S
H2168 C2164 0.950 . S
C2169 C2167 1.390 . S
C2169 C2170 1.387 . S
C2169 H2172 0.950 . S
C2170 C2169 1.387 . S
C2170 C2173 1.387 . S
H2171 C2167 0.950 . S
H2172 C2169 0.950 . S
C2173 C2164 1.390 . S
C2173 H2166 0.950 . S
C2173 C2170 1.387 . S
C2174 C2175 1.387 . S
C2174 H2178 0.950 . S
C2174 C2183 1.390 . S
C2175 C2174 1.387 . S
C2175 C2177 1.387 . S
H2176 C2183 0.950 . S
C2177 C2175 1.387 . S
C2177 C2179 1.390 . S
C2177 H2181 0.950 . S
H2178 C2174 0.950 . S
C2179 C2177 1.390 . S
C2179 C2180 1.387 . S
C2179 H2182 0.950 . S
C2180 C2179 1.387 . S
C2180 C2183 1.387 . S
H2181 C2177 0.950 . S
H2182 C2179 0.950 . S
C2183 C2174 1.390 . S
C2183 H2176 0.950 . S
C2183 C2180 1.387 . S
C2184 C2185 1.387 . S
C2184 H2188 0.950 . S
C2184 C2193 1.390 . S
C2185 C2184 1.387 . S
C2185 C2187 1.387 . S
H2186 C2193 0.950 . S
C2187 C2185 1.387 . S
C2187 C2189 1.390 . S
C2187 H2191 0.950 . S
H2188 C2184 0.950 . S
C2189 C2187 1.390 . S
C2189 C2190 1.387 . S
C2189 H2192 0.950 . S
C2190 C2189 1.387 . S
C2190 C2193 1.387 . S
H2191 C2187 0.950 . S
H2192 C2189 0.950 . S
C2193 C2184 1.390 . S
C2193 H2186 0.950 . S
C2193 C2190 1.387 . S
C2194 C2195 1.387 . S
C2194 H2198 0.950 . S
C2194 C2203 1.390 . S
C2195 C2194 1.387 . S
C2195 C2197 1.387 . S
H2196 C2203 0.950 . S
C2197 C2195 1.387 . S
C2197 C2199 1.390 . S
C2197 H2201 0.950 . S
H2198 C2194 0.950 . S
C2199 C2197 1.390 . S
C2199 C2200 1.387 . S
C2199 H2202 0.950 . S
C2200 C2199 1.387 . S
C2200 C2203 1.387 . S
H2201 C2197 0.950 . S
H2202 C2199 0.950 . S
C2203 C2194 1.390 . S
C2203 H2196 0.950 . S
C2203 C2200 1.387 . S
C2204 C2205 1.387 . S
C2204 H2208 0.950 . S
C2204 C2213 1.390 . S
C2205 C2204 1.387 . S
C2205 C2207 1.387 . S
H2206 C2213 0.950 . S
C2207 C2205 1.387 . S
C2207 C2209 1.390 . S
C2207 H2211 0.950 . S
H2208 C2204 0.950 . S
C2209 C2207 1.390 . S
C2209 C2210 1.387 . S
C2209 H2212 0.950 . S
C2210 C2209 1.387 . S
C2210 C2213 1.387 . S
H2211 C2207 0.950 . S
H2212 C2209 0.950 . S
C2213 C2204 1.390 . S
C2213 H2206 0.950 . S
C2213 C2210 1.387 . S
C2214 C2215 1.387 . S
C2214 H2218 0.950 . S
C2214 C2223 1.390 . S
C2215 C2214 1.387 . S
C2215 C2217 1.387 . S
H2216 C2223 0.950 . S
C2217 C2215 1.387 . S
C2217 C2219 1.390 . S
C2217 H2221 0.950 . S
H2218 C2214 0.950 . S
C2219 C2217 1.390 . S
C2219 C2220 1.387 . S
C2219 H2222 0.950 . S
C2220 C2219 1.387 . S
C2220 C2223 1.387 . S
H2221 C2217 0.950 . S
H2222 C2219 0.950 . S
C2223 C2214 1.390 . S
C2223 H2216 0.950 . S
C2223 C2220 1.387 . S
C2224 C2225 1.387 . S
C2224 H2228 0.950 . S
C2224 C2233 1.390 . S
C2225 C2224 1.387 . S
C2225 C2227 1.387 . S
H2226 C2233 0.950 . S
C2227 C2225 1.387 . S
C2227 C2229 1.390 . S
C2227 H2231 0.950 . S
H2228 C2224 0.950 . S
C2229 C2227 1.390 . S
C2229 C2230 1.387 . S
C2229 H2232 0.950 . S
C2230 C2229 1.387 . S
C2230 C2233 1.387 . S
H2231 C2227 0.950 . S
H2232 C2229 0.950 . S
C2233 C2224 1.390 . S
C2233 H2226 0.950 . S
C2233 C2230 1.387 . S
C2234 C2235 1.387 . S
C2234 H2238 0.950 . S
C2234 C2243 1.390 . S
C2235 C2234 1.387 . S
C2235 C2237 1.387 . S
H2236 C2243 0.950 . S
C2237 C2235 1.387 . S
C2237 C2239 1.390 . S
C2237 H2241 0.950 . S
H2238 C2234 0.950 . S
C2239 C2237 1.390 . S
C2239 C2240 1.387 . S
C2239 H2242 0.950 . S
C2240 C2239 1.387 . S
C2240 C2243 1.387 . S
H2241 C2237 0.950 . S
H2242 C2239 0.950 . S
C2243 C2234 1.390 . S
C2243 H2236 0.950 . S
C2243 C2240 1.387 . S
C2244 C2245 1.387 . S
C2244 H2248 0.950 . S
C2244 C2253 1.390 . S
C2245 C2244 1.387 . S
C2245 C2247 1.387 . S
H2246 C2253 0.950 . S
C2247 C2245 1.387 . S
C2247 C2249 1.390 . S
C2247 H2251 0.950 . S
H2248 C2244 0.950 . S
C2249 C2247 1.390 . S
C2249 C2250 1.387 . S
C2249 H2252 0.950 . S
C2250 C2249 1.387 . S
C2250 C2253 1.387 . S
H2251 C2247 0.950 . S
H2252 C2249 0.950 . S
C2253 C2244 1.390 . S
C2253 H2246 0.950 . S
C2253 C2250 1.387 . S
C2254 C2255 1.387 . S
C2254 H2258 0.950 . S
C2254 C2263 1.390 . S
C2255 C2254 1.387 . S
C2255 C2257 1.387 . S
H2256 C2263 0.950 . S
C2257 C2255 1.387 . S
C2257 C2259 1.390 . S
C2257 H2261 0.950 . S
H2258 C2254 0.950 . S
C2259 C2257 1.390 . S
C2259 C2260 1.387 . S
C2259 H2262 0.950 . S
C2260 C2259 1.387 . S
C2260 C2263 1.387 . S
H2261 C2257 0.950 . S
H2262 C2259 0.950 . S
C2263 C2254 1.390 . S
C2263 H2256 0.950 . S
C2263 C2260 1.387 . S
C2264 C2265 1.387 . S
C2264 H2268 0.950 . S
C2264 C2273 1.390 . S
C2265 C2264 1.387 . S
C2265 C2267 1.387 . S
H2266 C2273 0.950 . S
C2267 C2265 1.387 . S
C2267 C2269 1.390 . S
C2267 H2271 0.950 . S
H2268 C2264 0.950 . S
C2269 C2267 1.390 . S
C2269 C2270 1.387 . S
C2269 H2272 0.950 . S
C2270 C2269 1.387 . S
C2270 C2273 1.387 . S
H2271 C2267 0.950 . S
H2272 C2269 0.950 . S
C2273 C2264 1.390 . S
C2273 H2266 0.950 . S
C2273 C2270 1.387 . S
C2274 C2275 1.387 . S
C2274 H2278 0.950 . S
C2274 C2283 1.390 . S
C2275 C2274 1.387 . S
C2275 C2277 1.387 . S
H2276 C2283 0.950 . S
C2277 C2275 1.387 . S
C2277 C2279 1.390 . S
C2277 H2281 0.950 . S
H2278 C2274 0.950 . S
C2279 C2277 1.390 . S
C2279 C2280 1.387 . S
C2279 H2282 0.950 . S
C2280 C2279 1.387 . S
C2280 C2283 1.387 . S
H2281 C2277 0.950 . S
H2282 C2279 0.950 . S
C2283 C2274 1.390 . S
C2283 H2276 0.950 . S
C2283 C2280 1.387 . S
C2284 C2285 1.387 . S
C2284 H2288 0.950 . S
C2284 C2293 1.390 . S
C2285 C2284 1.387 . S
C2285 C2287 1.387 . S
H2286 C2293 0.950 . S
C2287 C2285 1.387 . S
C2287 C2289 1.390 . S
C2287 H2291 0.950 . S
H2288 C2284 0.950 . S
C2289 C2287 1.390 . S
C2289 C2290 1.387 . S
C2289 H2292 0.950 . S
C2290 C2289 1.387 . S
C2290 C2293 1.387 . S
H2291 C2287 0.950 . S
H2292 C2289 0.950 . S
C2293 C2284 1.390 . S
C2293 H2286 0.950 . S
C2293 C2290 1.387 . S
C2294 C2295 1.387 . S
C2294 H2298 0.950 . S
C2294 C2303 1.390 . S
C2295 C2294 1.387 . S
C2295 C2297 1.387 . S
H2296 C2303 0.950 . S
C2297 C2295 1.387 . S
C2297 C2299 1.390 . S
C2297 H2301 0.950 . S
H2298 C2294 0.950 . S
C2299 C2297 1.390 . S
C2299 C2300 1.387 . S
C2299 H2302 0.950 . S
C2300 C2299 1.387 . S
C2300 C2303 1.387 . S
H2301 C2297 0.950 . S
H2302 C2299 0.950 . S
C2303 C2294 1.390 . S
C2303 H2296 0.950 . S
C2303 C2300 1.387 . S
C2304 C2305 1.387 . S
C2304 H2308 0.950 . S
C2304 C2313 1.390 1_455 S
C2305 C2304 1.387 . S
C2305 C2307 1.387 . S
H2306 C2313 0.950 . S
C2307 C2305 1.387 . S
C2307 C2309 1.390 1_455 S
C2307 H2311 0.950 . S
H2308 C2304 0.950 . S
C2309 C2307 1.390 1_655 S
C2309 C2310 1.387 . S
C2309 H2312 0.950 . S
C2310 C2309 1.387 . S
C2310 C2313 1.387 . S
H2311 C2307 0.950 . S
H2312 C2309 0.950 . S
C2313 C2304 1.390 1_655 S
C2313 H2306 0.950 . S
C2313 C2310 1.387 . S
C2314 C2315 1.387 . S
C2314 H2318 0.950 . S
C2314 C2323 1.390 1_565 S
C2315 C2314 1.387 . S
C2315 C2317 1.387 . S
H2316 C2323 0.950 . S
C2317 C2315 1.387 . S
C2317 C2319 1.390 1_565 S
C2317 H2321 0.950 . S
H2318 C2314 0.950 . S
C2319 C2317 1.390 1_545 S
C2319 C2320 1.387 . S
C2319 H2322 0.950 . S
C2320 C2319 1.387 . S
C2320 C2323 1.387 . S
H2321 C2317 0.950 . S
H2322 C2319 0.950 . S
C2323 C2314 1.390 1_545 S
C2323 H2316 0.950 . S
C2323 C2320 1.387 . S
C2324 C2325 1.387 . S
C2324 H2328 0.950 . S
C2324 C2333 1.390 1_655 S
C2325 C2324 1.387 . S
C2325 C2327 1.387 . S
H2326 C2333 0.950 . S
C2327 C2325 1.387 . S
C2327 C2329 1.390 1_655 S
C2327 H2331 0.950 . S
H2328 C2324 0.950 . S
C2329 C2327 1.390 1_455 S
C2329 C2330 1.387 . S
C2329 H2332 0.950 . S
C2330 C2329 1.387 . S
C2330 C2333 1.387 . S
H2331 C2327 0.950 . S
H2332 C2329 0.950 . S
C2333 C2324 1.390 1_455 S
C2333 H2326 0.950 . S
C2333 C2330 1.387 . S
C2334 C2335 1.387 . S
C2334 H2338 0.950 . S
C2334 C2343 1.390 1_545 S
C2335 C2334 1.387 . S
C2335 C2337 1.387 . S
H2336 C2343 0.950 . S
C2337 C2335 1.387 . S
C2337 C2339 1.390 1_545 S
C2337 H2341 0.950 . S
H2338 C2334 0.950 . S
C2339 C2337 1.390 1_565 S
C2339 C2340 1.387 . S
C2339 H2342 0.950 . S
C2340 C2339 1.387 . S
C2340 C2343 1.387 . S
H2341 C2337 0.950 . S
H2342 C2339 0.950 . S
C2343 C2334 1.390 1_565 S
C2343 H2336 0.950 . S
C2343 C2340 1.387 . S
C2344 C2345 1.387 . S
C2344 H2348 0.950 . S
C2344 C2353 1.390 1_455 S
C2345 C2344 1.387 . S
C2345 C2347 1.387 . S
H2346 C2353 0.950 . S
C2347 C2345 1.387 . S
C2347 C2349 1.390 1_455 S
C2347 H2351 0.950 . S
H2348 C2344 0.950 . S
C2349 C2347 1.390 1_655 S
C2349 C2350 1.387 . S
C2349 H2352 0.950 . S
C2350 C2349 1.387 . S
C2350 C2353 1.387 . S
H2351 C2347 0.950 . S
H2352 C2349 0.950 . S
C2353 C2344 1.390 1_655 S
C2353 H2346 0.950 . S
C2353 C2350 1.387 . S
C2354 C2355 1.387 . S
C2354 H2358 0.950 . S
C2354 C2363 1.390 1_545 S
C2355 C2354 1.387 . S
C2355 C2357 1.387 . S
H2356 C2363 0.950 . S
C2357 C2355 1.387 . S
C2357 C2359 1.390 1_545 S
C2357 H2361 0.950 . S
H2358 C2354 0.950 . S
C2359 C2357 1.390 1_565 S
C2359 C2360 1.387 . S
C2359 H2362 0.950 . S
C2360 C2359 1.387 . S
C2360 C2363 1.387 . S
H2361 C2357 0.950 . S
H2362 C2359 0.950 . S
C2363 C2354 1.390 1_565 S
C2363 H2356 0.950 . S
C2363 C2360 1.387 . S
C2364 C2365 1.387 . S
C2364 H2368 0.950 . S
C2364 C2373 1.390 1_655 S
C2365 C2364 1.387 . S
C2365 C2367 1.387 . S
H2366 C2373 0.950 . S
C2367 C2365 1.387 . S
C2367 C2369 1.390 1_655 S
C2367 H2371 0.950 . S
H2368 C2364 0.950 . S
C2369 C2367 1.390 1_455 S
C2369 C2370 1.387 . S
C2369 H2372 0.950 . S
C2370 C2369 1.387 . S
C2370 C2373 1.387 . S
H2371 C2367 0.950 . S
H2372 C2369 0.950 . S
C2373 C2364 1.390 1_455 S
C2373 H2366 0.950 . S
C2373 C2370 1.387 . S
C2374 C2375 1.387 . S
C2374 H2378 0.950 . S
C2374 C2383 1.390 1_545 S
C2375 C2374 1.387 . S
C2375 C2377 1.387 . S
H2376 C2383 0.950 . S
C2377 C2375 1.387 . S
C2377 C2379 1.390 1_545 S
C2377 H2381 0.950 . S
H2378 C2374 0.950 . S
C2379 C2377 1.390 1_565 S
C2379 C2380 1.387 . S
C2379 H2382 0.950 . S
C2380 C2379 1.387 . S
C2380 C2383 1.387 . S
H2381 C2377 0.950 . S
H2382 C2379 0.950 . S
C2383 C2374 1.390 1_565 S
C2383 H2376 0.950 . S
C2383 C2380 1.387 . S
C2384 C2385 1.387 . S
C2384 H2388 0.950 . S
C2384 C2393 1.390 1_565 S
C2385 C2384 1.387 . S
C2385 C2387 1.387 . S
H2386 C2393 0.950 . S
C2387 C2385 1.387 . S
C2387 C2389 1.390 1_565 S
C2387 H2391 0.950 . S
H2388 C2384 0.950 . S
C2389 C2387 1.390 1_545 S
C2389 C2390 1.387 . S
C2389 H2392 0.950 . S
C2390 C2389 1.387 . S
C2390 C2393 1.387 . S
H2391 C2387 0.950 . S
H2392 C2389 0.950 . S
C2393 C2384 1.390 1_545 S
C2393 H2386 0.950 . S
C2393 C2390 1.387 . S
C2394 C2395 1.387 . S
C2394 H2398 0.950 . S
C2394 C2403 1.390 1_655 S
C2395 C2394 1.387 . S
C2395 C2397 1.387 . S
H2396 C2403 0.950 . S
C2397 C2395 1.387 . S
C2397 C2399 1.390 1_655 S
C2397 H2401 0.950 . S
H2398 C2394 0.950 . S
C2399 C2397 1.390 1_455 S
C2399 C2400 1.387 . S
C2399 H2402 0.950 . S
C2400 C2399 1.387 . S
C2400 C2403 1.387 . S
H2401 C2397 0.950 . S
H2402 C2399 0.950 . S
C2403 C2394 1.390 1_455 S
C2403 H2396 0.950 . S
C2403 C2400 1.387 . S
C2404 C2405 1.387 . S
C2404 H2408 0.950 . S
C2404 C2413 1.390 1_565 S
C2405 C2404 1.387 . S
C2405 C2407 1.387 . S
H2406 C2413 0.950 . S
C2407 C2405 1.387 . S
C2407 C2409 1.390 1_565 S
C2407 H2411 0.950 . S
H2408 C2404 0.950 . S
C2409 C2407 1.390 1_545 S
C2409 C2410 1.387 . S
C2409 H2412 0.950 . S
C2410 C2409 1.387 . S
C2410 C2413 1.387 . S
H2411 C2407 0.950 . S
H2412 C2409 0.950 . S
C2413 C2404 1.390 1_545 S
C2413 H2406 0.950 . S
C2413 C2410 1.387 . S
C2414 C2415 1.387 . S
C2414 H2418 0.950 . S
C2414 C2423 1.390 1_455 S
C2415 C2414 1.387 . S
C2415 C2417 1.387 . S
H2416 C2423 0.950 . S
C2417 C2415 1.387 . S
C2417 C2419 1.390 1_455 S
C2417 H2421 0.950 . S
H2418 C2414 0.950 . S
C2419 C2417 1.390 1_655 S
C2419 C2420 1.387 . S
C2419 H2422 0.950 . S
C2420 C2419 1.387 . S
C2420 C2423 1.387 . S
H2421 C2417 0.950 . S
H2422 C2419 0.950 . S
C2423 C2414 1.390 1_655 S
C2423 H2416 0.950 . S
C2423 C2420 1.387 . S
C2424 C2425 1.387 . S
C2424 H2428 0.950 . S
C2424 C2433 1.390 1_565 S
C2425 C2424 1.387 . S
C2425 C2427 1.387 . S
H2426 C2433 0.950 . S
C2427 C2425 1.387 . S
C2427 C2429 1.390 1_565 S
C2427 H2431 0.950 . S
H2428 C2424 0.950 . S
C2429 C2427 1.390 1_545 S
C2429 C2430 1.387 . S
C2429 H2432 0.950 . S
C2430 C2429 1.387 . S
C2430 C2433 1.387 . S
H2431 C2427 0.950 . S
H2432 C2429 0.950 . S
C2433 C2424 1.390 1_545 S
C2433 H2426 0.950 . S
C2433 C2430 1.387 . S
C2434 C2435 1.387 . S
C2434 H2438 0.950 . S
C2434 C2443 1.390 1_455 S
C2435 C2434 1.387 . S
C2435 C2437 1.387 . S
H2436 C2443 0.950 . S
C2437 C2435 1.387 . S
C2437 C2439 1.390 1_455 S
C2437 H2441 0.950 . S
H2438 C2434 0.950 . S
C2439 C2437 1.390 1_655 S
C2439 C2440 1.387 . S
C2439 H2442 0.950 . S
C2440 C2439 1.387 . S
C2440 C2443 1.387 . S
H2441 C2437 0.950 . S
H2442 C2439 0.950 . S
C2443 C2434 1.390 1_655 S
C2443 H2436 0.950 . S
C2443 C2440 1.387 . S
C2444 C2445 1.387 . S
C2444 H2448 0.950 . S
C2444 C2453 1.390 1_545 S
C2445 C2444 1.387 . S
C2445 C2447 1.387 . S
H2446 C2453 0.950 . S
C2447 C2445 1.387 . S
C2447 C2449 1.390 1_545 S
C2447 H2451 0.950 . S
H2448 C2444 0.950 . S
C2449 C2447 1.390 1_565 S
C2449 C2450 1.387 . S
C2449 H2452 0.950 . S
C2450 C2449 1.387 . S
C2450 C2453 1.387 . S
H2451 C2447 0.950 . S
H2452 C2449 0.950 . S
C2453 C2444 1.390 1_565 S
C2453 H2446 0.950 . S
C2453 C2450 1.387 . S
C2454 C2455 1.387 . S
C2454 H2458 0.950 . S
C2454 C2463 1.390 1_655 S
C2455 C2454 1.387 . S
C2455 C2457 1.387 . S
H2456 C2463 0.950 . S
C2457 C2455 1.387 . S
C2457 C2459 1.390 1_655 S
C2457 H2461 0.950 . S
H2458 C2454 0.950 . S
C2459 C2457 1.390 1_455 S
C2459 C2460 1.387 . S
C2459 H2462 0.950 . S
C2460 C2459 1.387 . S
C2460 C2463 1.387 . S
H2461 C2457 0.950 . S
H2462 C2459 0.950 . S
C2463 C2454 1.390 1_455 S
C2463 H2456 0.950 . S
C2463 C2460 1.387 . S
C2464 C2465 1.387 . S
C2464 H2468 0.950 . S
C2464 C2473 1.390 1_554 S
C2465 C2464 1.387 . S
C2465 C2467 1.387 . S
H2466 C2473 0.950 . S
C2467 C2465 1.387 . S
C2467 C2469 1.390 1_554 S
C2467 H2471 0.950 . S
H2468 C2464 0.950 . S
C2469 C2467 1.390 1_556 S
C2469 C2470 1.387 . S
C2469 H2472 0.950 . S
C2470 C2469 1.387 . S
C2470 C2473 1.387 . S
H2471 C2467 0.950 . S
H2472 C2469 0.950 . S
C2473 C2464 1.390 1_556 S
C2473 H2466 0.950 . S
C2473 C2470 1.387 . S
C2474 C2475 1.387 . S
C2474 H2478 0.950 . S
C2474 C2483 1.390 1_556 S
C2475 C2474 1.387 . S
C2475 C2477 1.387 . S
H2476 C2483 0.950 . S
C2477 C2475 1.387 . S
C2477 C2479 1.390 1_556 S
C2477 H2481 0.950 . S
H2478 C2474 0.950 . S
C2479 C2477 1.390 1_554 S
C2479 C2480 1.387 . S
C2479 H2482 0.950 . S
C2480 C2479 1.387 . S
C2480 C2483 1.387 . S
H2481 C2477 0.950 . S
H2482 C2479 0.950 . S
C2483 C2474 1.390 1_554 S
C2483 H2476 0.950 . S
C2483 C2480 1.387 . S
C2484 C2485 1.387 . S
C2484 H2488 0.950 . S
C2484 C2493 1.390 1_554 S
C2485 C2484 1.387 . S
C2485 C2487 1.387 . S
H2486 C2493 0.950 . S
C2487 C2485 1.387 . S
C2487 C2489 1.390 1_554 S
C2487 H2491 0.950 . S
H2488 C2484 0.950 . S
C2489 C2487 1.390 1_556 S
C2489 C2490 1.387 . S
C2489 H2492 0.950 . S
C2490 C2489 1.387 . S
C2490 C2493 1.387 . S
H2491 C2487 0.950 . S
H2492 C2489 0.950 . S
C2493 C2484 1.390 1_556 S
C2493 H2486 0.950 . S
C2493 C2490 1.387 . S
C2494 C2495 1.387 . S
C2494 H2498 0.950 . S
C2494 C2503 1.390 1_556 S
C2495 C2494 1.387 . S
C2495 C2497 1.387 . S
H2496 C2503 0.950 . S
C2497 C2495 1.387 . S
C2497 C2499 1.390 1_556 S
C2497 H2501 0.950 . S
H2498 C2494 0.950 . S
C2499 C2497 1.390 1_554 S
C2499 C2500 1.387 . S
C2499 H2502 0.950 . S
C2500 C2499 1.387 . S
C2500 C2503 1.387 . S
H2501 C2497 0.950 . S
H2502 C2499 0.950 . S
C2503 C2494 1.390 1_554 S
C2503 H2496 0.950 . S
C2503 C2500 1.387 . S
C2504 C2505 1.387 . S
C2504 H2508 0.950 . S
C2504 C2513 1.390 1_554 S
C2505 C2504 1.387 . S
C2505 C2507 1.387 . S
H2506 C2513 0.950 . S
C2507 C2505 1.387 . S
C2507 C2509 1.390 1_554 S
C2507 H2511 0.950 . S
H2508 C2504 0.950 . S
C2509 C2507 1.390 1_556 S
C2509 C2510 1.387 . S
C2509 H2512 0.950 . S
C2510 C2509 1.387 . S
C2510 C2513 1.387 . S
H2511 C2507 0.950 . S
H2512 C2509 0.950 . S
C2513 C2504 1.390 1_556 S
C2513 H2506 0.950 . S
C2513 C2510 1.387 . S
C2514 C2515 1.387 . S
C2514 H2518 0.950 . S
C2514 C2523 1.390 1_554 S
C2515 C2514 1.387 . S
C2515 C2517 1.387 . S
H2516 C2523 0.950 . S
C2517 C2515 1.387 . S
C2517 C2519 1.390 1_554 S
C2517 H2521 0.950 . S
H2518 C2514 0.950 . S
C2519 C2517 1.390 1_556 S
C2519 C2520 1.387 . S
C2519 H2522 0.950 . S
C2520 C2519 1.387 . S
C2520 C2523 1.387 . S
H2521 C2517 0.950 . S
H2522 C2519 0.950 . S
C2523 C2514 1.390 1_556 S
C2523 H2516 0.950 . S
C2523 C2520 1.387 . S
C2524 C2525 1.387 . S
C2524 H2528 0.950 . S
C2524 C2533 1.390 1_554 S
C2525 C2524 1.387 . S
C2525 C2527 1.387 . S
H2526 C2533 0.950 . S
C2527 C2525 1.387 . S
C2527 C2529 1.390 1_554 S
C2527 H2531 0.950 . S
H2528 C2524 0.950 . S
C2529 C2527 1.390 1_556 S
C2529 C2530 1.387 . S
C2529 H2532 0.950 . S
C2530 C2529 1.387 . S
C2530 C2533 1.387 . S
H2531 C2527 0.950 . S
H2532 C2529 0.950 . S
C2533 C2524 1.390 1_556 S
C2533 H2526 0.950 . S
C2533 C2530 1.387 . S
C2534 C2535 1.387 . S
C2534 H2538 0.950 . S
C2534 C2543 1.390 1_556 S
C2535 C2534 1.387 . S
C2535 C2537 1.387 . S
H2536 C2543 0.950 . S
C2537 C2535 1.387 . S
C2537 C2539 1.390 1_556 S
C2537 H2541 0.950 . S
H2538 C2534 0.950 . S
C2539 C2537 1.390 1_554 S
C2539 C2540 1.387 . S
C2539 H2542 0.950 . S
C2540 C2539 1.387 . S
C2540 C2543 1.387 . S
H2541 C2537 0.950 . S
H2542 C2539 0.950 . S
C2543 C2534 1.390 1_554 S
C2543 H2536 0.950 . S
C2543 C2540 1.387 . S
C2544 C2545 1.387 . S
C2544 H2548 0.950 . S
C2544 C2553 1.390 . S
C2545 C2544 1.387 . S
C2545 C2547 1.387 . S
H2546 C2553 0.950 . S
C2547 C2545 1.387 . S
C2547 C2549 1.390 . S
C2547 H2551 0.950 . S
H2548 C2544 0.950 . S
C2549 C2547 1.390 . S
C2549 C2550 1.387 . S
C2549 H2552 0.950 . S
C2550 C2549 1.387 . S
C2550 C2553 1.387 . S
H2551 C2547 0.950 . S
H2552 C2549 0.950 . S
C2553 C2544 1.390 . S
C2553 H2546 0.950 . S
C2553 C2550 1.387 . S
C2554 C2555 1.387 . S
C2554 H2558 0.950 . S
C2554 C2563 1.390 . S
C2555 C2554 1.387 . S
C2555 C2557 1.387 . S
H2556 C2563 0.950 . S
C2557 C2555 1.387 . S
C2557 C2559 1.390 . S
C2557 H2561 0.950 . S
H2558 C2554 0.950 . S
C2559 C2557 1.390 . S
C2559 C2560 1.387 . S
C2559 H2562 0.950 . S
C2560 C2559 1.387 . S
C2560 C2563 1.387 . S
H2561 C2557 0.950 . S
H2562 C2559 0.950 . S
C2563 C2554 1.390 . S
C2563 H2556 0.950 . S
C2563 C2560 1.387 . S
C2564 C2565 1.387 . S
C2564 H2568 0.950 . S
C2564 C2573 1.390 . S
C2565 C2564 1.387 . S
C2565 C2567 1.387 . S
H2566 C2573 0.950 . S
C2567 C2565 1.387 . S
C2567 C2569 1.390 . S
C2567 H2571 0.950 . S
H2568 C2564 0.950 . S
C2569 C2567 1.390 . S
C2569 C2570 1.387 . S
C2569 H2572 0.950 . S
C2570 C2569 1.387 . S
C2570 C2573 1.387 . S
H2571 C2567 0.950 . S
H2572 C2569 0.950 . S
C2573 C2564 1.390 . S
C2573 H2566 0.950 . S
C2573 C2570 1.387 . S
C2574 C2575 1.387 . S
C2574 H2578 0.950 . S
C2574 C2583 1.390 . S
C2575 C2574 1.387 . S
C2575 C2577 1.387 . S
H2576 C2583 0.950 . S
C2577 C2575 1.387 . S
C2577 C2579 1.390 . S
C2577 H2581 0.950 . S
H2578 C2574 0.950 . S
C2579 C2577 1.390 . S
C2579 C2580 1.387 . S
C2579 H2582 0.950 . S
C2580 C2579 1.387 . S
C2580 C2583 1.387 . S
H2581 C2577 0.950 . S
H2582 C2579 0.950 . S
C2583 C2574 1.390 . S
C2583 H2576 0.950 . S
C2583 C2580 1.387 . S
C2584 C2585 1.387 . S
C2584 H2588 0.950 . S
C2584 C2593 1.390 . S
C2585 C2584 1.387 . S
C2585 C2587 1.387 . S
H2586 C2593 0.950 . S
C2587 C2585 1.387 . S
C2587 C2589 1.390 . S
C2587 H2591 0.950 . S
H2588 C2584 0.950 . S
C2589 C2587 1.390 . S
C2589 C2590 1.387 . S
C2589 H2592 0.950 . S
C2590 C2589 1.387 . S
C2590 C2593 1.387 . S
H2591 C2587 0.950 . S
H2592 C2589 0.950 . S
C2593 C2584 1.390 . S
C2593 H2586 0.950 . S
C2593 C2590 1.387 . S
C2594 C2595 1.387 . S
C2594 H2598 0.950 . S
C2594 C2603 1.390 . S
C2595 C2594 1.387 . S
C2595 C2597 1.387 . S
H2596 C2603 0.950 . S
C2597 C2595 1.387 . S
C2597 C2599 1.390 . S
C2597 H2601 0.950 . S
H2598 C2594 0.950 . S
C2599 C2597 1.390 . S
C2599 C2600 1.387 . S
C2599 H2602 0.950 . S
C2600 C2599 1.387 . S
C2600 C2603 1.387 . S
H2601 C2597 0.950 . S
H2602 C2599 0.950 . S
C2603 C2594 1.390 . S
C2603 H2596 0.950 . S
C2603 C2600 1.387 . S
C2604 C2605 1.387 . S
C2604 H2608 0.950 . S
C2604 C2613 1.390 . S
C2605 C2604 1.387 . S
C2605 C2607 1.387 . S
H2606 C2613 0.950 . S
C2607 C2605 1.387 . S
C2607 C2609 1.390 . S
C2607 H2611 0.950 . S
H2608 C2604 0.950 . S
C2609 C2607 1.390 . S
C2609 C2610 1.387 . S
C2609 H2612 0.950 . S
C2610 C2609 1.387 . S
C2610 C2613 1.387 . S
H2611 C2607 0.950 . S
H2612 C2609 0.950 . S
C2613 C2604 1.390 . S
C2613 H2606 0.950 . S
C2613 C2610 1.387 . S
C2614 C2615 1.387 . S
C2614 H2618 0.950 . S
C2614 C2623 1.390 . S
C2615 C2614 1.387 . S
C2615 C2617 1.387 . S
H2616 C2623 0.950 . S
C2617 C2615 1.387 . S
C2617 C2619 1.390 . S
C2617 H2621 0.950 . S
H2618 C2614 0.950 . S
C2619 C2617 1.390 . S
C2619 C2620 1.387 . S
C2619 H2622 0.950 . S
C2620 C2619 1.387 . S
C2620 C2623 1.387 . S
H2621 C2617 0.950 . S
H2622 C2619 0.950 . S
C2623 C2614 1.390 . S
C2623 H2616 0.950 . S
C2623 C2620 1.387 . S
C2624 C2625 1.387 . S
C2624 H2628 0.950 . S
C2624 C2633 1.390 . S
C2625 C2624 1.387 . S
C2625 C2627 1.387 . S
H2626 C2633 0.950 . S
C2627 C2625 1.387 . S
C2627 C2629 1.390 . S
C2627 H2631 0.950 . S
H2628 C2624 0.950 . S
C2629 C2627 1.390 . S
C2629 C2630 1.387 . S
C2629 H2632 0.950 . S
C2630 C2629 1.387 . S
C2630 C2633 1.387 . S
H2631 C2627 0.950 . S
H2632 C2629 0.950 . S
C2633 C2624 1.390 . S
C2633 H2626 0.950 . S
C2633 C2630 1.387 . S
C2634 C2635 1.387 . S
C2634 H2638 0.950 . S
C2634 C2643 1.390 . S
C2635 C2634 1.387 . S
C2635 C2637 1.387 . S
H2636 C2643 0.950 . S
C2637 C2635 1.387 . S
C2637 C2639 1.390 . S
C2637 H2641 0.950 . S
H2638 C2634 0.950 . S
C2639 C2637 1.390 . S
C2639 C2640 1.387 . S
C2639 H2642 0.950 . S
C2640 C2639 1.387 . S
C2640 C2643 1.387 . S
H2641 C2637 0.950 . S
H2642 C2639 0.950 . S
C2643 C2634 1.390 . S
C2643 H2636 0.950 . S
C2643 C2640 1.387 . S
C2644 C2645 1.387 . S
C2644 H2648 0.950 . S
C2644 C2653 1.390 . S
C2645 C2644 1.387 . S
C2645 C2647 1.387 . S
H2646 C2653 0.950 . S
C2647 C2645 1.387 . S
C2647 C2649 1.390 . S
C2647 H2651 0.950 . S
H2648 C2644 0.950 . S
C2649 C2647 1.390 . S
C2649 C2650 1.387 . S
C2649 H2652 0.950 . S
C2650 C2649 1.387 . S
C2650 C2653 1.387 . S
H2651 C2647 0.950 . S
H2652 C2649 0.950 . S
C2653 C2644 1.390 . S
C2653 H2646 0.950 . S
C2653 C2650 1.387 . S
C2654 C2655 1.387 . S
C2654 H2658 0.950 . S
C2654 C2663 1.390 . S
C2655 C2654 1.387 . S
C2655 C2657 1.387 . S
H2656 C2663 0.950 . S
C2657 C2655 1.387 . S
C2657 C2659 1.390 . S
C2657 H2661 0.950 . S
H2658 C2654 0.950 . S
C2659 C2657 1.390 . S
C2659 C2660 1.387 . S
C2659 H2662 0.950 . S
C2660 C2659 1.387 . S
C2660 C2663 1.387 . S
H2661 C2657 0.950 . S
H2662 C2659 0.950 . S
C2663 C2654 1.390 . S
C2663 H2656 0.950 . S
C2663 C2660 1.387 . S
C2664 C2665 1.387 . S
C2664 H2668 0.950 . S
C2664 C2673 1.390 . S
C2665 C2664 1.387 . S
C2665 C2667 1.387 . S
H2666 C2673 0.950 . S
C2667 C2665 1.387 . S
C2667 C2669 1.390 . S
C2667 H2671 0.950 . S
H2668 C2664 0.950 . S
C2669 C2667 1.390 . S
C2669 C2670 1.387 . S
C2669 H2672 0.950 . S
C2670 C2669 1.387 . S
C2670 C2673 1.387 . S
H2671 C2667 0.950 . S
H2672 C2669 0.950 . S
C2673 C2664 1.390 . S
C2673 H2666 0.950 . S
C2673 C2670 1.387 . S
C2674 C2675 1.387 . S
C2674 H2678 0.950 . S
C2674 C2683 1.390 . S
C2675 C2674 1.387 . S
C2675 C2677 1.387 . S
H2676 C2683 0.950 . S
C2677 C2675 1.387 . S
C2677 C2679 1.390 . S
C2677 H2681 0.950 . S
H2678 C2674 0.950 . S
C2679 C2677 1.390 . S
C2679 C2680 1.387 . S
C2679 H2682 0.950 . S
C2680 C2679 1.387 . S
C2680 C2683 1.387 . S
H2681 C2677 0.950 . S
H2682 C2679 0.950 . S
C2683 C2674 1.390 . S
C2683 H2676 0.950 . S
C2683 C2680 1.387 . S
C2684 C2685 1.387 . S
C2684 H2688 0.950 . S
C2684 C2693 1.390 . S
C2685 C2684 1.387 . S
C2685 C2687 1.387 . S
H2686 C2693 0.950 . S
C2687 C2685 1.387 . S
C2687 C2689 1.390 . S
C2687 H2691 0.950 . S
H2688 C2684 0.950 . S
C2689 C2687 1.390 . S
C2689 C2690 1.387 . S
C2689 H2692 0.950 . S
C2690 C2689 1.387 . S
C2690 C2693 1.387 . S
H2691 C2687 0.950 . S
H2692 C2689 0.950 . S
C2693 C2684 1.390 . S
C2693 H2686 0.950 . S
C2693 C2690 1.387 . S
C2694 C2695 1.387 . S
C2694 H2698 0.950 . S
C2694 C2703 1.390 . S
C2695 C2694 1.387 . S
C2695 C2697 1.387 . S
H2696 C2703 0.950 . S
C2697 C2695 1.387 . S
C2697 C2699 1.390 . S
C2697 H2701 0.950 . S
H2698 C2694 0.950 . S
C2699 C2697 1.390 . S
C2699 C2700 1.387 . S
C2699 H2702 0.950 . S
C2700 C2699 1.387 . S
C2700 C2703 1.387 . S
H2701 C2697 0.950 . S
H2702 C2699 0.950 . S
C2703 C2694 1.390 . S
C2703 H2696 0.950 . S
C2703 C2700 1.387 . S
C2704 C2705 1.387 . S
C2704 H2708 0.950 . S
C2704 C2713 1.390 . S
C2705 C2704 1.387 . S
C2705 C2707 1.387 . S
H2706 C2713 0.950 . S
C2707 C2705 1.387 . S
C2707 C2709 1.390 . S
C2707 H2711 0.950 . S
H2708 C2704 0.950 . S
C2709 C2707 1.390 . S
C2709 C2710 1.387 . S
C2709 H2712 0.950 . S
C2710 C2709 1.387 . S
C2710 C2713 1.387 . S
H2711 C2707 0.950 . S
H2712 C2709 0.950 . S
C2713 C2704 1.390 . S
C2713 H2706 0.950 . S
C2713 C2710 1.387 . S
C2714 C2715 1.387 . S
C2714 H2718 0.950 . S
C2714 C2723 1.390 . S
C2715 C2714 1.387 . S
C2715 C2717 1.387 . S
H2716 C2723 0.950 . S
C2717 C2715 1.387 . S
C2717 C2719 1.390 . S
C2717 H2721 0.950 . S
H2718 C2714 0.950 . S
C2719 C2717 1.390 . S
C2719 C2720 1.387 . S
C2719 H2722 0.950 . S
C2720 C2719 1.387 . S
C2720 C2723 1.387 . S
H2721 C2717 0.950 . S
H2722 C2719 0.950 . S
C2723 C2714 1.390 . S
C2723 H2716 0.950 . S
C2723 C2720 1.387 . S
C2724 C2725 1.387 . S
C2724 H2728 0.950 . S
C2724 C2733 1.390 . S
C2725 C2724 1.387 . S
C2725 C2727 1.387 . S
H2726 C2733 0.950 . S
C2727 C2725 1.387 . S
C2727 C2729 1.390 . S
C2727 H2731 0.950 . S
H2728 C2724 0.950 . S
C2729 C2727 1.390 . S
C2729 C2730 1.387 . S
C2729 H2732 0.950 . S
C2730 C2729 1.387 . S
C2730 C2733 1.387 . S
H2731 C2727 0.950 . S
H2732 C2729 0.950 . S
C2733 C2724 1.390 . S
C2733 H2726 0.950 . S
C2733 C2730 1.387 . S
C2734 C2735 1.387 . S
C2734 H2738 0.950 . S
C2734 C2743 1.390 . S
C2735 C2734 1.387 . S
C2735 C2737 1.387 . S
H2736 C2743 0.950 . S
C2737 C2735 1.387 . S
C2737 C2739 1.390 . S
C2737 H2741 0.950 . S
H2738 C2734 0.950 . S
C2739 C2737 1.390 . S
C2739 C2740 1.387 . S
C2739 H2742 0.950 . S
C2740 C2739 1.387 . S
C2740 C2743 1.387 . S
H2741 C2737 0.950 . S
H2742 C2739 0.950 . S
C2743 C2734 1.390 . S
C2743 H2736 0.950 . S
C2743 C2740 1.387 . S
C2744 C2745 1.387 . S
C2744 H2748 0.950 . S
C2744 C2753 1.390 . S
C2745 C2744 1.387 . S
C2745 C2747 1.387 . S
H2746 C2753 0.950 . S
C2747 C2745 1.387 . S
C2747 C2749 1.390 . S
C2747 H2751 0.950 . S
H2748 C2744 0.950 . S
C2749 C2747 1.390 . S
C2749 C2750 1.387 . S
C2749 H2752 0.950 . S
C2750 C2749 1.387 . S
C2750 C2753 1.387 . S
H2751 C2747 0.950 . S
H2752 C2749 0.950 . S
C2753 C2744 1.390 . S
C2753 H2746 0.950 . S
C2753 C2750 1.387 . S
C2754 C2755 1.387 . S
C2754 H2758 0.950 . S
C2754 C2763 1.390 . S
C2755 C2754 1.387 . S
C2755 C2757 1.387 . S
H2756 C2763 0.950 . S
C2757 C2755 1.387 . S
C2757 C2759 1.390 . S
C2757 H2761 0.950 . S
H2758 C2754 0.950 . S
C2759 C2757 1.390 . S
C2759 C2760 1.387 . S
C2759 H2762 0.950 . S
C2760 C2759 1.387 . S
C2760 C2763 1.387 . S
H2761 C2757 0.950 . S
H2762 C2759 0.950 . S
C2763 C2754 1.390 . S
C2763 H2756 0.950 . S
C2763 C2760 1.387 . S
C2764 C2765 1.387 . S
C2764 H2768 0.950 . S
C2764 C2773 1.390 . S
C2765 C2764 1.387 . S
C2765 C2767 1.387 . S
H2766 C2773 0.950 . S
C2767 C2765 1.387 . S
C2767 C2769 1.390 . S
C2767 H2771 0.950 . S
H2768 C2764 0.950 . S
C2769 C2767 1.390 . S
C2769 C2770 1.387 . S
C2769 H2772 0.950 . S
C2770 C2769 1.387 . S
C2770 C2773 1.387 . S
H2771 C2767 0.950 . S
H2772 C2769 0.950 . S
C2773 C2764 1.390 . S
C2773 H2766 0.950 . S
C2773 C2770 1.387 . S
C2774 C2775 1.387 . S
C2774 H2778 0.950 . S
C2774 C2783 1.390 . S
C2775 C2774 1.387 . S
C2775 C2777 1.387 . S
H2776 C2783 0.950 . S
C2777 C2775 1.387 . S
C2777 C2779 1.390 . S
C2777 H2781 0.950 . S
H2778 C2774 0.950 . S
C2779 C2777 1.390 . S
C2779 C2780 1.387 . S
C2779 H2782 0.950 . S
C2780 C2779 1.387 . S
C2780 C2783 1.387 . S
H2781 C2777 0.950 . S
H2782 C2779 0.950 . S
C2783 C2774 1.390 . S
C2783 H2776 0.950 . S
C2783 C2780 1.387 . S
C2784 C2785 1.387 . S
C2784 H2788 0.950 . S
C2784 C2793 1.390 . S
C2785 C2784 1.387 . S
C2785 C2787 1.387 . S
H2786 C2793 0.950 . S
C2787 C2785 1.387 . S
C2787 C2789 1.390 . S
C2787 H2791 0.950 . S
H2788 C2784 0.950 . S
C2789 C2787 1.390 . S
C2789 C2790 1.387 . S
C2789 H2792 0.950 . S
C2790 C2789 1.387 . S
C2790 C2793 1.387 . S
H2791 C2787 0.950 . S
H2792 C2789 0.950 . S
C2793 C2784 1.390 . S
C2793 H2786 0.950 . S
C2793 C2790 1.387 . S
C2794 C2795 1.387 . S
C2794 H2798 0.950 . S
C2794 C2803 1.390 . S
C2795 C2794 1.387 . S
C2795 C2797 1.387 . S
H2796 C2803 0.950 . S
C2797 C2795 1.387 . S
C2797 C2799 1.390 . S
C2797 H2801 0.950 . S
H2798 C2794 0.950 . S
C2799 C2797 1.390 . S
C2799 C2800 1.387 . S
C2799 H2802 0.950 . S
C2800 C2799 1.387 . S
C2800 C2803 1.387 . S
H2801 C2797 0.950 . S
H2802 C2799 0.950 . S
C2803 C2794 1.390 . S
C2803 H2796 0.950 . S
C2803 C2800 1.387 . S
C2804 C2805 1.387 . S
C2804 H2808 0.950 . S
C2804 C2813 1.390 . S
C2805 C2804 1.387 . S
C2805 C2807 1.387 . S
H2806 C2813 0.950 . S
C2807 C2805 1.387 . S
C2807 C2809 1.390 . S
C2807 H2811 0.950 . S
H2808 C2804 0.950 . S
C2809 C2807 1.390 . S
C2809 C2810 1.387 . S
C2809 H2812 0.950 . S
C2810 C2809 1.387 . S
C2810 C2813 1.387 . S
H2811 C2807 0.950 . S
H2812 C2809 0.950 . S
C2813 C2804 1.390 . S
C2813 H2806 0.950 . S
C2813 C2810 1.387 . S
C2814 C2815 1.387 . S
C2814 H2818 0.950 . S
C2814 C2823 1.390 . S
C2815 C2814 1.387 . S
C2815 C2817 1.387 . S
H2816 C2823 0.950 . S
C2817 C2815 1.387 . S
C2817 C2819 1.390 . S
C2817 H2821 0.950 . S
H2818 C2814 0.950 . S
C2819 C2817 1.390 . S
C2819 C2820 1.387 . S
C2819 H2822 0.950 . S
C2820 C2819 1.387 . S
C2820 C2823 1.387 . S
H2821 C2817 0.950 . S
H2822 C2819 0.950 . S
C2823 C2814 1.390 . S
C2823 H2816 0.950 . S
C2823 C2820 1.387 . S
C2824 C2825 1.387 . S
C2824 H2828 0.950 . S
C2824 C2833 1.390 . S
C2825 C2824 1.387 . S
C2825 C2827 1.387 . S
H2826 C2833 0.950 . S
C2827 C2825 1.387 . S
C2827 C2829 1.390 . S
C2827 H2831 0.950 . S
H2828 C2824 0.950 . S
C2829 C2827 1.390 . S
C2829 C2830 1.387 . S
C2829 H2832 0.950 . S
C2830 C2829 1.387 . S
C2830 C2833 1.387 . S
H2831 C2827 0.950 . S
H2832 C2829 0.950 . S
C2833 C2824 1.390 . S
C2833 H2826 0.950 . S
C2833 C2830 1.387 . S
C2834 C2835 1.387 . S
C2834 H2838 0.950 . S
C2834 C2843 1.390 . S
C2835 C2834 1.387 . S
C2835 C2837 1.387 . S
H2836 C2843 0.950 . S
C2837 C2835 1.387 . S
C2837 C2839 1.390 . S
C2837 H2841 0.950 . S
H2838 C2834 0.950 . S
C2839 C2837 1.390 . S
C2839 C2840 1.387 . S
C2839 H2842 0.950 . S
C2840 C2839 1.387 . S
C2840 C2843 1.387 . S
H2841 C2837 0.950 . S
H2842 C2839 0.950 . S
C2843 C2834 1.390 . S
C2843 H2836 0.950 . S
C2843 C2840 1.387 . S
C2844 C2845 1.387 . S
C2844 H2848 0.950 . S
C2844 C2853 1.390 . S
C2845 C2844 1.387 . S
C2845 C2847 1.387 . S
H2846 C2853 0.950 . S
C2847 C2845 1.387 . S
C2847 C2849 1.390 . S
C2847 H2851 0.950 . S
H2848 C2844 0.950 . S
C2849 C2847 1.390 . S
C2849 C2850 1.387 . S
C2849 H2852 0.950 . S
C2850 C2849 1.387 . S
C2850 C2853 1.387 . S
H2851 C2847 0.950 . S
H2852 C2849 0.950 . S
C2853 C2844 1.390 . S
C2853 H2846 0.950 . S
C2853 C2850 1.387 . S
C2854 C2855 1.387 . S
C2854 H2858 0.950 . S
C2854 C2863 1.390 . S
C2855 C2854 1.387 . S
C2855 C2857 1.387 . S
H2856 C2863 0.950 . S
C2857 C2855 1.387 . S
C2857 C2859 1.390 . S
C2857 H2861 0.950 . S
H2858 C2854 0.950 . S
C2859 C2857 1.390 . S
C2859 C2860 1.387 . S
C2859 H2862 0.950 . S
C2860 C2859 1.387 . S
C2860 C2863 1.387 . S
H2861 C2857 0.950 . S
H2862 C2859 0.950 . S
C2863 C2854 1.390 . S
C2863 H2856 0.950 . S
C2863 C2860 1.387 . S
C2864 C2865 1.387 . S
C2864 H2868 0.950 . S
C2864 C2873 1.390 . S
C2865 C2864 1.387 . S
C2865 C2867 1.387 . S
H2866 C2873 0.950 . S
C2867 C2865 1.387 . S
C2867 C2869 1.390 . S
C2867 H2871 0.950 . S
H2868 C2864 0.950 . S
C2869 C2867 1.390 . S
C2869 C2870 1.387 . S
C2869 H2872 0.950 . S
C2870 C2869 1.387 . S
C2870 C2873 1.387 . S
H2871 C2867 0.950 . S
H2872 C2869 0.950 . S
C2873 C2864 1.390 . S
C2873 H2866 0.950 . S
C2873 C2870 1.387 . S
C2874 C2875 1.387 . S
C2874 H2878 0.950 . S
C2874 C2883 1.390 . S
C2875 C2874 1.387 . S
C2875 C2877 1.387 . S
H2876 C2883 0.950 . S
C2877 C2875 1.387 . S
C2877 C2879 1.390 . S
C2877 H2881 0.950 . S
H2878 C2874 0.950 . S
C2879 C2877 1.390 . S
C2879 C2880 1.387 . S
C2879 H2882 0.950 . S
C2880 C2879 1.387 . S
C2880 C2883 1.387 . S
H2881 C2877 0.950 . S
H2882 C2879 0.950 . S
C2883 C2874 1.390 . S
C2883 H2876 0.950 . S
C2883 C2880 1.387 . S
C2884 C2885 1.387 . S
C2884 H2888 0.950 . S
C2884 C2893 1.390 . S
C2885 C2884 1.387 . S
C2885 C2887 1.387 . S
H2886 C2893 0.950 . S
C2887 C2885 1.387 . S
C2887 C2889 1.390 . S
C2887 H2891 0.950 . S
H2888 C2884 0.950 . S
C2889 C2887 1.390 . S
C2889 C2890 1.387 . S
C2889 H2892 0.950 . S
C2890 C2889 1.387 . S
C2890 C2893 1.387 . S
H2891 C2887 0.950 . S
H2892 C2889 0.950 . S
C2893 C2884 1.390 . S
C2893 H2886 0.950 . S
C2893 C2890 1.387 . S
C2894 C2895 1.387 . S
C2894 H2898 0.950 . S
C2894 C2903 1.390 . S
C2895 C2894 1.387 . S
C2895 C2897 1.387 . S
H2896 C2903 0.950 . S
C2897 C2895 1.387 . S
C2897 C2899 1.390 . S
C2897 H2901 0.950 . S
H2898 C2894 0.950 . S
C2899 C2897 1.390 . S
C2899 C2900 1.387 . S
C2899 H2902 0.950 . S
C2900 C2899 1.387 . S
C2900 C2903 1.387 . S
H2901 C2897 0.950 . S
H2902 C2899 0.950 . S
C2903 C2894 1.390 . S
C2903 H2896 0.950 . S
C2903 C2900 1.387 . S
C2904 C2905 1.387 . S
C2904 H2908 0.950 . S
C2904 C2913 1.390 . S
C2905 C2904 1.387 . S
C2905 C2907 1.387 . S
H2906 C2913 0.950 . S
C2907 C2905 1.387 . S
C2907 C2909 1.390 . S
C2907 H2911 0.950 . S
H2908 C2904 0.950 . S
C2909 C2907 1.390 . S
C2909 C2910 1.387 . S
C2909 H2912 0.950 . S
C2910 C2909 1.387 . S
C2910 C2913 1.387 . S
H2911 C2907 0.950 . S
H2912 C2909 0.950 . S
C2913 C2904 1.390 . S
C2913 H2906 0.950 . S
C2913 C2910 1.387 . S
C2914 C2915 1.387 . S
C2914 H2918 0.950 . S
C2914 C2923 1.390 . S
C2915 C2914 1.387 . S
C2915 C2917 1.387 . S
H2916 C2923 0.950 . S
C2917 C2915 1.387 . S
C2917 C2919 1.390 . S
C2917 H2921 0.950 . S
H2918 C2914 0.950 . S
C2919 C2917 1.390 . S
C2919 C2920 1.387 . S
C2919 H2922 0.950 . S
C2920 C2919 1.387 . S
C2920 C2923 1.387 . S
H2921 C2917 0.950 . S
H2922 C2919 0.950 . S
C2923 C2914 1.390 . S
C2923 H2916 0.950 . S
C2923 C2920 1.387 . S
C2924 C2925 1.387 . S
C2924 H2928 0.950 . S
C2924 C2933 1.390 . S
C2925 C2924 1.387 . S
C2925 C2927 1.387 . S
H2926 C2933 0.950 . S
C2927 C2925 1.387 . S
C2927 C2929 1.390 . S
C2927 H2931 0.950 . S
H2928 C2924 0.950 . S
C2929 C2927 1.390 . S
C2929 C2930 1.387 . S
C2929 H2932 0.950 . S
C2930 C2929 1.387 . S
C2930 C2933 1.387 . S
H2931 C2927 0.950 . S
H2932 C2929 0.950 . S
C2933 C2924 1.390 . S
C2933 H2926 0.950 . S
C2933 C2930 1.387 . S
C2934 C2935 1.387 . S
C2934 H2938 0.950 . S
C2934 C2943 1.390 . S
C2935 C2934 1.387 . S
C2935 C2937 1.387 . S
H2936 C2943 0.950 . S
C2937 C2935 1.387 . S
C2937 C2939 1.390 . S
C2937 H2941 0.950 . S
H2938 C2934 0.950 . S
C2939 C2937 1.390 . S
C2939 C2940 1.387 . S
C2939 H2942 0.950 . S
C2940 C2939 1.387 . S
C2940 C2943 1.387 . S
H2941 C2937 0.950 . S
H2942 C2939 0.950 . S
C2943 C2934 1.390 . S
C2943 H2936 0.950 . S
C2943 C2940 1.387 . S
C2944 C2945 1.387 . S
C2944 H2948 0.950 . S
C2944 C2953 1.390 . S
C2945 C2944 1.387 . S
C2945 C2947 1.387 . S
H2946 C2953 0.950 . S
C2947 C2945 1.387 . S
C2947 C2949 1.390 . S
C2947 H2951 0.950 . S
H2948 C2944 0.950 . S
C2949 C2947 1.390 . S
C2949 C2950 1.387 . S
C2949 H2952 0.950 . S
C2950 C2949 1.387 . S
C2950 C2953 1.387 . S
H2951 C2947 0.950 . S
H2952 C2949 0.950 . S
C2953 C2944 1.390 . S
C2953 H2946 0.950 . S
C2953 C2950 1.387 . S
C2954 C2955 1.387 . S
C2954 H2958 0.950 . S
C2954 C2963 1.390 . S
C2955 C2954 1.387 . S
C2955 C2957 1.387 . S
H2956 C2963 0.950 . S
C2957 C2955 1.387 . S
C2957 C2959 1.390 . S
C2957 H2961 0.950 . S
H2958 C2954 0.950 . S
C2959 C2957 1.390 . S
C2959 C2960 1.387 . S
C2959 H2962 0.950 . S
C2960 C2959 1.387 . S
C2960 C2963 1.387 . S
H2961 C2957 0.950 . S
H2962 C2959 0.950 . S
C2963 C2954 1.390 . S
C2963 H2956 0.950 . S
C2963 C2960 1.387 . S
C2964 C2965 1.387 . S
C2964 H2968 0.950 . S
C2964 C2973 1.390 . S
C2965 C2964 1.387 . S
C2965 C2967 1.387 . S
H2966 C2973 0.950 . S
C2967 C2965 1.387 . S
C2967 C2969 1.390 . S
C2967 H2971 0.950 . S
H2968 C2964 0.950 . S
C2969 C2967 1.390 . S
C2969 C2970 1.387 . S
C2969 H2972 0.950 . S
C2970 C2969 1.387 . S
C2970 C2973 1.387 . S
H2971 C2967 0.950 . S
H2972 C2969 0.950 . S
C2973 C2964 1.390 . S
C2973 H2966 0.950 . S
C2973 C2970 1.387 . S
C2974 C2975 1.387 . S
C2974 H2978 0.950 . S
C2974 C2983 1.390 . S
C2975 C2974 1.387 . S
C2975 C2977 1.387 . S
H2976 C2983 0.950 . S
C2977 C2975 1.387 . S
C2977 C2979 1.390 . S
C2977 H2981 0.950 . S
H2978 C2974 0.950 . S
C2979 C2977 1.390 . S
C2979 C2980 1.387 . S
C2979 H2982 0.950 . S
C2980 C2979 1.387 . S
C2980 C2983 1.387 . S
H2981 C2977 0.950 . S
H2982 C2979 0.950 . S
C2983 C2974 1.390 . S
C2983 H2976 0.950 . S
C2983 C2980 1.387 . S
C2984 C2985 1.387 . S
C2984 H2988 0.950 . S
C2984 C2993 1.390 . S
C2985 C2984 1.387 . S
C2985 C2987 1.387 . S
H2986 C2993 0.950 . S
C2987 C2985 1.387 . S
C2987 C2989 1.390 . S
C2987 H2991 0.950 . S
H2988 C2984 0.950 . S
C2989 C2987 1.390 . S
C2989 C2990 1.387 . S
C2989 H2992 0.950 . S
C2990 C2989 1.387 . S
C2990 C2993 1.387 . S
H2991 C2987 0.950 . S
H2992 C2989 0.950 . S
C2993 C2984 1.390 . S
C2993 H2986 0.950 . S
C2993 C2990 1.387 . S
C2994 C2995 1.387 . S
C2994 H2998 0.950 . S
C2994 C3003 1.390 . S
C2995 C2994 1.387 . S
C2995 C2997 1.387 . S
H2996 C3003 0.950 . S
C2997 C2995 1.387 . S
C2997 C2999 1.390 . S
C2997 H3001 0.950 . S
H2998 C2994 0.950 . S
C2999 C2997 1.390 . S
C2999 C3000 1.387 . S
C2999 H3002 0.950 . S
C3000 C2999 1.387 . S
C3000 C3003 1.387 . S
H3001 C2997 0.950 . S
H3002 C2999 0.950 . S
C3003 C2994 1.390 . S
C3003 H2996 0.950 . S
C3003 C3000 1.387 . S
C3004 C3005 1.387 . S
C3004 H3008 0.950 . S
C3004 C3013 1.390 . S
C3005 C3004 1.387 . S
C3005 C3007 1.387 . S
H3006 C3013 0.950 . S
C3007 C3005 1.387 . S
C3007 C3009 1.390 . S
C3007 H3011 0.950 . S
H3008 C3004 0.950 . S
C3009 C3007 1.390 . S
C3009 C3010 1.387 . S
C3009 H3012 0.950 . S
C3010 C3009 1.387 . S
C3010 C3013 1.387 . S
H3011 C3007 0.950 . S
H3012 C3009 0.950 . S
C3013 C3004 1.390 . S
C3013 H3006 0.950 . S
C3013 C3010 1.387 . S
C3014 C3015 1.387 . S
C3014 H3018 0.950 . S
C3014 C3023 1.390 . S
C3015 C3014 1.387 . S
C3015 C3017 1.387 . S
H3016 C3023 0.950 . S
C3017 C3015 1.387 . S
C3017 C3019 1.390 . S
C3017 H3021 0.950 . S
H3018 C3014 0.950 . S
C3019 C3017 1.390 . S
C3019 C3020 1.387 . S
C3019 H3022 0.950 . S
C3020 C3019 1.387 . S
C3020 C3023 1.387 . S
H3021 C3017 0.950 . S
H3022 C3019 0.950 . S
C3023 C3014 1.390 . S
C3023 H3016 0.950 . S
C3023 C3020 1.387 . S
C3024 C3025 1.387 . S
C3024 H3028 0.950 . S
C3024 C3033 1.390 . S
C3025 C3024 1.387 . S
C3025 C3027 1.387 . S
H3026 C3033 0.950 . S
C3027 C3025 1.387 . S
C3027 C3029 1.390 . S
C3027 H3031 0.950 . S
H3028 C3024 0.950 . S
C3029 C3027 1.390 . S
C3029 C3030 1.387 . S
C3029 H3032 0.950 . S
C3030 C3029 1.387 . S
C3030 C3033 1.387 . S
H3031 C3027 0.950 . S
H3032 C3029 0.950 . S
C3033 C3024 1.390 . S
C3033 H3026 0.950 . S
C3033 C3030 1.387 . S
C3034 C3035 1.387 . S
C3034 H3038 0.950 . S
C3034 C3043 1.390 . S
C3035 C3034 1.387 . S
C3035 C3037 1.387 . S
H3036 C3043 0.950 . S
C3037 C3035 1.387 . S
C3037 C3039 1.390 . S
C3037 H3041 0.950 . S
H3038 C3034 0.950 . S
C3039 C3037 1.390 . S
C3039 C3040 1.387 . S
C3039 H3042 0.950 . S
C3040 C3039 1.387 . S
C3040 C3043 1.387 . S
H3041 C3037 0.950 . S
H3042 C3039 0.950 . S
C3043 C3034 1.390 . S
C3043 H3036 0.950 . S
C3043 C3040 1.387 . S
C3044 C3045 1.387 . S
C3044 H3048 0.950 . S
C3044 C3053 1.390 . S
C3045 C3044 1.387 . S
C3045 C3047 1.387 . S
H3046 C3053 0.950 . S
C3047 C3045 1.387 . S
C3047 C3049 1.390 . S
C3047 H3051 0.950 . S
H3048 C3044 0.950 . S
C3049 C3047 1.390 . S
C3049 C3050 1.387 . S
C3049 H3052 0.950 . S
C3050 C3049 1.387 . S
C3050 C3053 1.387 . S
H3051 C3047 0.950 . S
H3052 C3049 0.950 . S
C3053 C3044 1.390 . S
C3053 H3046 0.950 . S
C3053 C3050 1.387 . S
C3054 C3055 1.387 . S
C3054 H3058 0.950 . S
C3054 C3063 1.390 . S
C3055 C3054 1.387 . S
C3055 C3057 1.387 . S
H3056 C3063 0.950 . S
C3057 C3055 1.387 . S
C3057 C3059 1.390 . S
C3057 H3061 0.950 . S
H3058 C3054 0.950 . S
C3059 C3057 1.390 . S
C3059 C3060 1.387 . S
C3059 H3062 0.950 . S
C3060 C3059 1.387 . S
C3060 C3063 1.387 . S
H3061 C3057 0.950 . S
H3062 C3059 0.950 . S
C3063 C3054 1.390 . S
C3063 H3056 0.950 . S
C3063 C3060 1.387 . S
C3064 C3065 1.387 . S
C3064 H3068 0.950 . S
C3064 C3073 1.390 . S
C3065 C3064 1.387 . S
C3065 C3067 1.387 . S
H3066 C3073 0.950 . S
C3067 C3065 1.387 . S
C3067 C3069 1.390 . S
C3067 H3071 0.950 . S
H3068 C3064 0.950 . S
C3069 C3067 1.390 . S
C3069 C3070 1.387 . S
C3069 H3072 0.950 . S
C3070 C3069 1.387 . S
C3070 C3073 1.387 . S
H3071 C3067 0.950 . S
H3072 C3069 0.950 . S
C3073 C3064 1.390 . S
C3073 H3066 0.950 . S
C3073 C3070 1.387 . S
C3074 C3075 1.387 . S
C3074 H3078 0.950 . S
C3074 C3083 1.390 . S
C3075 C3074 1.387 . S
C3075 C3077 1.387 . S
H3076 C3083 0.950 . S
C3077 C3075 1.387 . S
C3077 C3079 1.390 . S
C3077 H3081 0.950 . S
H3078 C3074 0.950 . S
C3079 C3077 1.390 . S
C3079 C3080 1.387 . S
C3079 H3082 0.950 . S
C3080 C3079 1.387 . S
C3080 C3083 1.387 . S
H3081 C3077 0.950 . S
H3082 C3079 0.950 . S
C3083 C3074 1.390 . S
C3083 H3076 0.950 . S
C3083 C3080 1.387 . S
C3084 C3085 1.387 . S
C3084 H3088 0.950 . S
C3084 C3093 1.390 . S
C3085 C3084 1.387 . S
C3085 C3087 1.387 . S
H3086 C3093 0.950 . S
C3087 C3085 1.387 . S
C3087 C3089 1.390 . S
C3087 H3091 0.950 . S
H3088 C3084 0.950 . S
C3089 C3087 1.390 . S
C3089 C3090 1.387 . S
C3089 H3092 0.950 . S
C3090 C3089 1.387 . S
C3090 C3093 1.387 . S
H3091 C3087 0.950 . S
H3092 C3089 0.950 . S
C3093 C3084 1.390 . S
C3093 H3086 0.950 . S
C3093 C3090 1.387 . S
C3094 C3095 1.387 . S
C3094 H3098 0.950 . S
C3094 C3103 1.390 . S
C3095 C3094 1.387 . S
C3095 C3097 1.387 . S
H3096 C3103 0.950 . S
C3097 C3095 1.387 . S
C3097 C3099 1.390 . S
C3097 H3101 0.950 . S
H3098 C3094 0.950 . S
C3099 C3097 1.390 . S
C3099 C3100 1.387 . S
C3099 H3102 0.950 . S
C3100 C3099 1.387 . S
C3100 C3103 1.387 . S
H3101 C3097 0.950 . S
H3102 C3099 0.950 . S
C3103 C3094 1.390 . S
C3103 H3096 0.950 . S
C3103 C3100 1.387 . S
C3104 C3105 1.387 . S
C3104 H3108 0.950 . S
C3104 C3113 1.390 . S
C3105 C3104 1.387 . S
C3105 C3107 1.387 . S
H3106 C3113 0.950 . S
C3107 C3105 1.387 . S
C3107 C3109 1.390 . S
C3107 H3111 0.950 . S
H3108 C3104 0.950 . S
C3109 C3107 1.390 . S
C3109 C3110 1.387 . S
C3109 H3112 0.950 . S
C3110 C3109 1.387 . S
C3110 C3113 1.387 . S
H3111 C3107 0.950 . S
H3112 C3109 0.950 . S
C3113 C3104 1.390 . S
C3113 H3106 0.950 . S
C3113 C3110 1.387 . S
C3114 C3115 1.387 . S
C3114 H3118 0.950 . S
C3114 C3123 1.390 . S
C3115 C3114 1.387 . S
C3115 C3117 1.387 . S
H3116 C3123 0.950 . S
C3117 C3115 1.387 . S
C3117 C3119 1.390 . S
C3117 H3121 0.950 . S
H3118 C3114 0.950 . S
C3119 C3117 1.390 . S
C3119 C3120 1.387 . S
C3119 H3122 0.950 . S
C3120 C3119 1.387 . S
C3120 C3123 1.387 . S
H3121 C3117 0.950 . S
H3122 C3119 0.950 . S
C3123 C3114 1.390 . S
C3123 H3116 0.950 . S
C3123 C3120 1.387 . S
C3124 C3125 1.387 . S
C3124 H3128 0.950 . S
C3124 C3133 1.390 . S
C3125 C3124 1.387 . S
C3125 C3127 1.387 . S
H3126 C3133 0.950 . S
C3127 C3125 1.387 . S
C3127 C3129 1.390 . S
C3127 H3131 0.950 . S
H3128 C3124 0.950 . S
C3129 C3127 1.390 . S
C3129 C3130 1.387 . S
C3129 H3132 0.950 . S
C3130 C3129 1.387 . S
C3130 C3133 1.387 . S
H3131 C3127 0.950 . S
H3132 C3129 0.950 . S
C3133 C3124 1.390 . S
C3133 H3126 0.950 . S
C3133 C3130 1.387 . S
C3134 C3135 1.387 . S
C3134 H3138 0.950 . S
C3134 C3143 1.390 . S
C3135 C3134 1.387 . S
C3135 C3137 1.387 . S
H3136 C3143 0.950 . S
C3137 C3135 1.387 . S
C3137 C3139 1.390 . S
C3137 H3141 0.950 . S
H3138 C3134 0.950 . S
C3139 C3137 1.390 . S
C3139 C3140 1.387 . S
C3139 H3142 0.950 . S
C3140 C3139 1.387 . S
C3140 C3143 1.387 . S
H3141 C3137 0.950 . S
H3142 C3139 0.950 . S
C3143 C3134 1.390 . S
C3143 H3136 0.950 . S
C3143 C3140 1.387 . S
C3144 C3145 1.387 . S
C3144 H3148 0.950 . S
C3144 C3153 1.390 . S
C3145 C3144 1.387 . S
C3145 C3147 1.387 . S
H3146 C3153 0.950 . S
C3147 C3145 1.387 . S
C3147 C3149 1.390 . S
C3147 H3151 0.950 . S
H3148 C3144 0.950 . S
C3149 C3147 1.390 . S
C3149 C3150 1.387 . S
C3149 H3152 0.950 . S
C3150 C3149 1.387 . S
C3150 C3153 1.387 . S
H3151 C3147 0.950 . S
H3152 C3149 0.950 . S
C3153 C3144 1.390 . S
C3153 H3146 0.950 . S
C3153 C3150 1.387 . S
C3154 C3155 1.387 . S
C3154 H3158 0.950 . S
C3154 C3163 1.390 . S
C3155 C3154 1.387 . S
C3155 C3157 1.387 . S
H3156 C3163 0.950 . S
C3157 C3155 1.387 . S
C3157 C3159 1.390 . S
C3157 H3161 0.950 . S
H3158 C3154 0.950 . S
C3159 C3157 1.390 . S
C3159 C3160 1.387 . S
C3159 H3162 0.950 . S
C3160 C3159 1.387 . S
C3160 C3163 1.387 . S
H3161 C3157 0.950 . S
H3162 C3159 0.950 . S
C3163 C3154 1.390 . S
C3163 H3156 0.950 . S
C3163 C3160 1.387 . S
C3164 C3165 1.387 . S
C3164 H3168 0.950 . S
C3164 C3173 1.390 . S
C3165 C3164 1.387 . S
C3165 C3167 1.387 . S
H3166 C3173 0.950 . S
C3167 C3165 1.387 . S
C3167 C3169 1.390 . S
C3167 H3171 0.950 . S
H3168 C3164 0.950 . S
C3169 C3167 1.390 . S
C3169 C3170 1.387 . S
C3169 H3172 0.950 . S
C3170 C3169 1.387 . S
C3170 C3173 1.387 . S
H3171 C3167 0.950 . S
H3172 C3169 0.950 . S
C3173 C3164 1.390 . S
C3173 H3166 0.950 . S
C3173 C3170 1.387 . S
C3174 C3175 1.387 . S
C3174 H3178 0.950 . S
C3174 C3183 1.390 . S
C3175 C3174 1.387 . S
C3175 C3177 1.387 . S
H3176 C3183 0.950 . S
C3177 C3175 1.387 . S
C3177 C3179 1.390 . S
C3177 H3181 0.950 . S
H3178 C3174 0.950 . S
C3179 C3177 1.390 . S
C3179 C3180 1.387 . S
C3179 H3182 0.950 . S
C3180 C3179 1.387 . S
C3180 C3183 1.387 . S
H3181 C3177 0.950 . S
H3182 C3179 0.950 . S
C3183 C3174 1.390 . S
C3183 H3176 0.950 . S
C3183 C3180 1.387 . S
C3184 C3185 1.387 . S
C3184 H3188 0.950 . S
C3184 C3193 1.390 . S
C3185 C3184 1.387 . S
C3185 C3187 1.387 . S
H3186 C3193 0.950 . S
C3187 C3185 1.387 . S
C3187 C3189 1.390 . S
C3187 H3191 0.950 . S
H3188 C3184 0.950 . S
C3189 C3187 1.390 . S
C3189 C3190 1.387 . S
C3189 H3192 0.950 . S
C3190 C3189 1.387 . S
C3190 C3193 1.387 . S
H3191 C3187 0.950 . S
H3192 C3189 0.950 . S
C3193 C3184 1.390 . S
C3193 H3186 0.950 . S
C3193 C3190 1.387 . S
C3194 C3195 1.387 . S
C3194 H3198 0.950 . S
C3194 C3203 1.390 . S
C3195 C3194 1.387 . S
C3195 C3197 1.387 . S
H3196 C3203 0.950 . S
C3197 C3195 1.387 . S
C3197 C3199 1.390 . S
C3197 H3201 0.950 . S
H3198 C3194 0.950 . S
C3199 C3197 1.390 . S
C3199 C3200 1.387 . S
C3199 H3202 0.950 . S
C3200 C3199 1.387 . S
C3200 C3203 1.387 . S
H3201 C3197 0.950 . S
H3202 C3199 0.950 . S
C3203 C3194 1.390 . S
C3203 H3196 0.950 . S
C3203 C3200 1.387 . S
C3204 C3205 1.387 . S
C3204 H3208 0.950 . S
C3204 C3213 1.390 . S
C3205 C3204 1.387 . S
C3205 C3207 1.387 . S
H3206 C3213 0.950 . S
C3207 C3205 1.387 . S
C3207 C3209 1.390 . S
C3207 H3211 0.950 . S
H3208 C3204 0.950 . S
C3209 C3207 1.390 . S
C3209 C3210 1.387 . S
C3209 H3212 0.950 . S
C3210 C3209 1.387 . S
C3210 C3213 1.387 . S
H3211 C3207 0.950 . S
H3212 C3209 0.950 . S
C3213 C3204 1.390 . S
C3213 H3206 0.950 . S
C3213 C3210 1.387 . S
C3214 C3215 1.387 . S
C3214 H3218 0.950 . S
C3214 C3223 1.390 . S
C3215 C3214 1.387 . S
C3215 C3217 1.387 . S
H3216 C3223 0.950 . S
C3217 C3215 1.387 . S
C3217 C3219 1.390 . S
C3217 H3221 0.950 . S
H3218 C3214 0.950 . S
C3219 C3217 1.390 . S
C3219 C3220 1.387 . S
C3219 H3222 0.950 . S
C3220 C3219 1.387 . S
C3220 C3223 1.387 . S
H3221 C3217 0.950 . S
H3222 C3219 0.950 . S
C3223 C3214 1.390 . S
C3223 H3216 0.950 . S
C3223 C3220 1.387 . S
C3224 C3225 1.387 . S
C3224 H3228 0.950 . S
C3224 C3233 1.390 . S
C3225 C3224 1.387 . S
C3225 C3227 1.387 . S
H3226 C3233 0.950 . S
C3227 C3225 1.387 . S
C3227 C3229 1.390 . S
C3227 H3231 0.950 . S
H3228 C3224 0.950 . S
C3229 C3227 1.390 . S
C3229 C3230 1.387 . S
C3229 H3232 0.950 . S
C3230 C3229 1.387 . S
C3230 C3233 1.387 . S
H3231 C3227 0.950 . S
H3232 C3229 0.950 . S
C3233 C3224 1.390 . S
C3233 H3226 0.950 . S
C3233 C3230 1.387 . S
C3234 C3235 1.387 . S
C3234 H3238 0.950 . S
C3234 C3243 1.390 . S
C3235 C3234 1.387 . S
C3235 C3237 1.387 . S
H3236 C3243 0.950 . S
C3237 C3235 1.387 . S
C3237 C3239 1.390 . S
C3237 H3241 0.950 . S
H3238 C3234 0.950 . S
C3239 C3237 1.390 . S
C3239 C3240 1.387 . S
C3239 H3242 0.950 . S
C3240 C3239 1.387 . S
C3240 C3243 1.387 . S
H3241 C3237 0.950 . S
H3242 C3239 0.950 . S
C3243 C3234 1.390 . S
C3243 H3236 0.950 . S
C3243 C3240 1.387 . S
C3244 C3245 1.387 . S
C3244 H3248 0.950 . S
C3244 C3253 1.390 . S
C3245 C3244 1.387 . S
C3245 C3247 1.387 . S
H3246 C3253 0.950 . S
C3247 C3245 1.387 . S
C3247 C3249 1.390 . S
C3247 H3251 0.950 . S
H3248 C3244 0.950 . S
C3249 C3247 1.390 . S
C3249 C3250 1.387 . S
C3249 H3252 0.950 . S
C3250 C3249 1.387 . S
C3250 C3253 1.387 . S
H3251 C3247 0.950 . S
H3252 C3249 0.950 . S
C3253 C3244 1.390 . S
C3253 H3246 0.950 . S
C3253 C3250 1.387 . S
C3254 C3255 1.387 . S
C3254 H3258 0.950 . S
C3254 C3263 1.390 . S
C3255 C3254 1.387 . S
C3255 C3257 1.387 . S
H3256 C3263 0.950 . S
C3257 C3255 1.387 . S
C3257 C3259 1.390 . S
C3257 H3261 0.950 . S
H3258 C3254 0.950 . S
C3259 C3257 1.390 . S
C3259 C3260 1.387 . S
C3259 H3262 0.950 . S
C3260 C3259 1.387 . S
C3260 C3263 1.387 . S
H3261 C3257 0.950 . S
H3262 C3259 0.950 . S
C3263 C3254 1.390 . S
C3263 H3256 0.950 . S
C3263 C3260 1.387 . S
C1345 C13 1.418 . S
C1350 C965 1.417 . S
C1355 C923 1.416 . S
C1360 C27 1.415 . S
C1365 C937 1.419 . S
C1370 C41 1.417 . S
C1375 C55 1.419 . S
C1380 C951 1.419 . S
C1385 C1007 1.418 . S
C1390 C69 1.419 . S
C1395 C979 1.417 . S
C1400 C83 1.419 . S
C1405 C993 1.417 . S
C1410 C97 1.418 . S
C1415 C111 1.419 . S
C1420 C909 1.419 . S
C1425 C125 1.417 . S
C1430 C895 1.416 . S
C1435 C139 1.417 . S
C1440 C853 1.418 . S
C1445 C153 1.416 . S
C1450 C867 1.415 . S
C1455 C167 1.417 . S
C1460 C881 1.418 . S
C1465 C181 1.416 . S
C1470 C811 1.415 . S
C1475 C825 1.416 . S
C1480 C195 1.415 . S
C1485 C839 1.415 . S
C1490 C209 1.416 . S
C1495 C223 1.418 . S
C1500 C797 1.417 . S
C1505 C237 1.419 . S
C1510 C783 1.419 . S
C1515 C251 1.416 . S
C1520 C699 1.415 . S
C1525 C713 1.418 . S
C1530 C265 1.417 . S
C1535 C727 1.415 . S
C1540 C279 1.416 . S
C1545 C685 1.416 . S
C1550 C293 1.417 . S
C1555 C307 1.415 . S
C1560 C755 1.416 . S
C1565 C321 1.419 . S
C1570 C769 1.417 . S
C1575 C335 1.418 . S
C1580 C741 1.416 . S
C1585 C349 1.415 . S
C1590 C1301 1.416 . S
C1595 C363 1.416 . S
C1600 C1259 1.415 . S
C1605 C377 1.415 . S
C1610 C1273 1.416 . S
C1615 C391 1.418 . S
C1620 C1287 1.419 . S
C1625 C405 1.415 . S
C1630 C1343 1.415 . S
C1635 C419 1.416 . S
C1640 C1315 1.417 . S
C1645 C1329 1.417 . S
C1650 C433 1.416 . S
C1655 C447 1.419 . S
C1660 C1245 1.419 . S
C1665 C461 1.418 . S
C1670 C1231 1.416 . S
C1675 C1189 1.416 . S
C1680 C475 1.415 . S
C1685 C489 1.417 . S
C1690 C1203 1.416 . S
C1695 C503 1.416 . S
C1700 C1217 1.417 . S
C1705 C517 1.416 . S
C1710 C1147 1.415 . S
C1715 C531 1.416 . S
C1720 C1161 1.418 . S
C1725 C545 1.417 . S
C1730 C1175 1.418 . S
C1735 C1133 1.416 . S
C1740 C559 1.418 . S
C1745 C573 1.418 . S
C1750 C1119 1.419 . S
C1755 C587 1.418 . S
C1760 C1035 1.419 . S
C1765 C601 1.418 . S
C1770 C1049 1.417 . S
C1775 C1063 1.415 . S
C1780 C615 1.416 . S
C1785 C629 1.417 . S
C1790 C1021 1.416 . S
C1795 C1091 1.416 . S
C1800 C643 1.415 . S
C1805 C657 1.416 . S
C1810 C1105 1.415 . S
C1815 C671 1.418 . S
C1820 C1077 1.416 . S
C1825 C8 1.563 . S
C1830 C554 1.560 . S
C1835 C22 1.563 . S
C1840 C512 1.560 . S
C1845 C526 1.560 . S
C1850 C36 1.563 . S
C1855 C50 1.560 . S
C1860 C540 1.563 . S
C1865 C470 1.563 . S
C1870 C64 1.560 . S
C1875 C484 1.563 . S
C1880 C78 1.560 . S
C1885 C498 1.563 . S
C1890 C92 1.560 . S
C1895 C456 1.563 . S
C1900 C106 1.560 . S
C1905 C442 1.563 . S
C1910 C120 1.560 . S
C1915 C134 1.563 . S
C1920 C400 1.560 . S
C1925 C414 1.560 . S
C1930 C148 1.563 . S
C1935 C162 1.560 . S
C1940 C428 1.563 . S
C1945 C358 1.563 . S
C1950 C176 1.560 . S
C1955 C372 1.563 . S
C1960 C190 1.560 . S
C1965 C204 1.563 . S
C1970 C386 1.560 . S
C1975 C218 1.563 . S
C1980 C344 1.560 . S
C1985 C232 1.560 . S
C1990 C624 1.563 . S
C1995 C246 1.563 . S
C2000 C666 1.560 . S
C2005 C638 1.563 . S
C2010 C260 1.560 . S
C2015 C652 1.563 . S
C2020 C274 1.560 . S
C2025 C288 1.563 . S
C2030 C568 1.560 . S
C2035 C302 1.560 . S
C2040 C596 1.563 . S
C2045 C610 1.563 . S
C2050 C316 1.560 . S
C2055 C330 1.560 . S
C2060 C582 1.563 . S
C2065 C1226 1.563 . S
C2070 C680 1.560 . S
C2075 C1184 1.560 . S
C2080 C694 1.563 . S
C2085 C1198 1.560 . S
C2090 C708 1.563 . S
C2095 C722 1.560 . S
C2100 C1212 1.563 . S
C2105 C1142 1.560 . S
C2110 C736 1.563 . S
C2115 C1156 1.563 . S
C2120 C750 1.560 . S
C2125 C764 1.560 . S
C2130 C1170 1.563 . S
C2135 C778 1.560 . S
C2140 C1128 1.563 . S
C2145 C1114 1.563 . S
C2150 C792 1.560 . S
C2155 C806 1.560 . S
C2160 C1072 1.563 . S
C2165 C1086 1.563 . S
C2170 C820 1.560 . S
C2175 C1100 1.563 . S
C2180 C834 1.560 . S
C2185 C848 1.563 . S
C2190 C1030 1.560 . S
C2195 C862 1.560 . S
C2200 C1044 1.563 . S
C2205 C1058 1.560 . S
C2210 C876 1.563 . S
C2215 C890 1.563 . S
C2220 C1016 1.560 . S
C2225 C1296 1.560 . S
C2230 C904 1.563 . S
C2235 C1338 1.560 . S
C2240 C918 1.563 . S
C2245 C932 1.563 . S
C2250 C1310 1.560 . S
C2255 C1324 1.560 . S
C2260 C946 1.563 . S
C2265 C1240 1.563 . S
C2270 C960 1.560 . S
C2275 C1268 1.560 . S
C2280 C974 1.563 . S
C2285 C988 1.560 . S
C2290 C1282 1.563 . S
C2295 C1254 1.560 . S
C2300 C1002 1.563 . S
C2305 C7 1.183 . S
C2310 C399 1.182 . S
C2315 C413 1.181 . S
C2320 C21 1.184 . S
C2325 C35 1.181 . S
C2330 C427 1.183 . S
C2335 C441 1.184 . S
C2340 C49 1.181 . S
C2345 C63 1.181 . S
C2350 C343 1.183 . S
C2355 C77 1.184 . S
C2360 C357 1.181 . S
C2365 C91 1.184 . S
C2370 C371 1.181 . S
C2375 C385 1.184 . S
C2380 C105 1.181 . S
C2385 C539 1.182 . S
C2390 C119 1.182 . S
C2395 C133 1.182 . S
C2400 C553 1.183 . S
C2405 C147 1.182 . S
C2410 C511 1.182 . S
C2415 C161 1.181 . S
C2420 C525 1.183 . S
C2425 C175 1.181 . S
C2430 C483 1.184 . S
C2435 C189 1.183 . S
C2440 C497 1.181 . S
C2445 C203 1.182 . S
C2450 C455 1.182 . S
C2455 C217 1.183 . S
C2460 C469 1.182 . S
C2465 C231 1.183 . S
C2470 C637 1.181 . S
C2475 C245 1.183 . S
C2480 C609 1.181 . S
C2485 C623 1.183 . S
C2490 C259 1.182 . S
C2495 C273 1.184 . S
C2500 C581 1.181 . S
C2505 C595 1.184 . S
C2510 C287 1.181 . S
C2515 C301 1.181 . S
C2520 C567 1.184 . S
C2525 C315 1.183 . S
C2530 C665 1.181 . S
C2535 C651 1.182 . S
C2540 C329 1.182 . S
C2545 C1071 1.181 . S
C2550 C679 1.183 . S
C2555 C693 1.181 . S
C2560 C1085 1.183 . S
C2565 C1099 1.183 . S
C2570 C707 1.181 . S
C2575 C721 1.184 . S
C2580 C1113 1.181 . S
C2585 C1015 1.183 . S
C2590 C735 1.181 . S
C2595 C1029 1.184 . S
C2600 C749 1.181 . S
C2605 C1043 1.181 . S
C2610 C763 1.184 . S
C2615 C777 1.181 . S
C2620 C1057 1.184 . S
C2625 C791 1.182 . S
C2630 C1211 1.183 . S
C2635 C1225 1.183 . S
C2640 C805 1.182 . S
C2645 C1183 1.183 . S
C2650 C819 1.182 . S
C2655 C1197 1.183 . S
C2660 C833 1.181 . S
C2665 C847 1.182 . S
C2670 C1155 1.183 . S
C2675 C861 1.183 . S
C2680 C1169 1.182 . S
C2685 C1127 1.183 . S
C2690 C875 1.182 . S
C2695 C1141 1.182 . S
C2700 C889 1.183 . S
C2705 C1309 1.182 . S
C2710 C903 1.183 . S
C2715 C917 1.184 . S
C2720 C1281 1.181 . S
C2725 C1295 1.182 . S
C2730 C931 1.183 . S
C2735 C945 1.181 . S
C2740 C1253 1.184 . S
C2745 C959 1.182 . S
C2750 C1267 1.182 . S
C2755 C973 1.181 . S
C2760 C1239 1.184 . S
C2765 C1337 1.181 . S
C2770 C987 1.183 . S
C2775 C1001 1.181 . S
C2780 C1323 1.183 . S
C2785 C445 1.259 . S
C2790 C11 1.258 . S
C2795 C403 1.258 . S
C2800 C25 1.259 . S
C2805 C39 1.258 . S
C2810 C417 1.259 . S
C2815 C431 1.259 . S
C2820 C53 1.258 . S
C2825 C361 1.259 . S
C2830 C67 1.258 . S
C2835 C81 1.258 . S
C2840 C375 1.259 . S
C2845 C95 1.259 . S
C2850 C389 1.258 . S
C2855 C347 1.259 . S
C2860 C109 1.258 . S
C2865 C627 1.259 . S
C2870 C123 1.258 . S
C2875 C137 1.259 . S
C2880 C585 1.258 . S
C2885 C151 1.258 . S
C2890 C599 1.259 . S
C2895 C613 1.259 . S
C2900 C165 1.258 . S
C2905 C179 1.259 . S
C2910 C669 1.258 . S
C2915 C641 1.258 . S
C2920 C193 1.259 . S
C2925 C655 1.259 . S
C2930 C207 1.258 . S
C2935 C221 1.258 . S
C2940 C571 1.259 . S
C2945 C235 1.259 . S
C2950 C557 1.258 . S
C2955 C249 1.259 . S
C2960 C473 1.258 . S
C2965 C263 1.259 . S
C2970 C487 1.258 . S
C2975 C501 1.259 . S
C2980 C277 1.258 . S
C2985 C459 1.259 . S
C2990 C291 1.258 . S
C2995 C305 1.259 . S
C3000 C529 1.258 . S
C3005 C319 1.259 . S
C3010 C543 1.258 . S
C3015 C333 1.258 . S
C3020 C515 1.259 . S
C3025 C683 1.259 . S
C3030 C1117 1.258 . S
C3035 C697 1.258 . S
C3040 C1075 1.259 . S
C3045 C711 1.259 . S
C3050 C1089 1.258 . S
C3055 C1103 1.259 . S
C3060 C725 1.258 . S
C3065 C1033 1.259 . S
C3070 C739 1.258 . S
C3075 C1047 1.259 . S
C3080 C753 1.258 . S
C3085 C767 1.259 . S
C3090 C1061 1.258 . S
C3095 C1019 1.259 . S
C3100 C781 1.258 . S
C3105 C1299 1.258 . S
C3110 C795 1.259 . S
C3115 C1257 1.259 . S
C3120 C809 1.258 . S
C3125 C1271 1.258 . S
C3130 C823 1.259 . S
C3135 C1285 1.258 . S
C3140 C837 1.259 . S
C3145 C1341 1.259 . S
C3150 C851 1.258 . S
C3155 C1313 1.258 . S
C3160 C865 1.259 . S
C3165 C1327 1.258 . S
C3170 C879 1.259 . S
C3175 C1243 1.259 . S
C3180 C893 1.258 . S
C3185 C907 1.258 . S
C3190 C1229 1.259 . S
C3195 C1145 1.258 . S
C3200 C921 1.259 . S
C3205 C1159 1.258 . S
C3210 C935 1.259 . S
C3215 C1173 1.259 . S
C3220 C949 1.258 . S
C3225 C1131 1.258 . S
C3230 C963 1.259 . S
C3235 C1201 1.259 . S
C3240 C977 1.258 . S
C3245 C1215 1.259 . S
C3250 C991 1.258 . S
C3255 C1187 1.258 . S
C3260 C1005 1.259 . S
