# Generated by pormake.
# Topology wio, (6)-cn, num edge types: 1
# Building blocks:
#     Node 0, Type 0, BuildingBlock: BETDEL_clean_sbu_0, # of connection points: 6
#     Node 1, Type 0, BuildingBlock: BETDEL_clean_sbu_0, # of connection points: 6
#     Node 2, Type 0, BuildingBlock: BETDEL_clean_sbu_0, # of connection points: 6
#     Node 3, Type 0, BuildingBlock: BETDEL_clean_sbu_0, # of connection points: 6
#     Node 4, Type 0, BuildingBlock: BETDEL_clean_sbu_0, # of connection points: 6
#     Node 5, Type 0, BuildingBlock: BETDEL_clean_sbu_0, # of connection points: 6
#     Node 6, Type 0, BuildingBlock: BETDEL_clean_sbu_0, # of connection points: 6
#     Node 7, Type 0, BuildingBlock: BETDEL_clean_sbu_0, # of connection points: 6
#     Node 8, Type 0, BuildingBlock: BETDEL_clean_sbu_0, # of connection points: 6
#     Node 9, Type 0, BuildingBlock: BETDEL_clean_sbu_0, # of connection points: 6
#     Node 10, Type 0, BuildingBlock: BETDEL_clean_sbu_0, # of connection points: 6
#     Node 11, Type 0, BuildingBlock: BETDEL_clean_sbu_0, # of connection points: 6
#     Node 12, Type 0, BuildingBlock: BETDEL_clean_sbu_0, # of connection points: 6
#     Node 13, Type 0, BuildingBlock: BETDEL_clean_sbu_0, # of connection points: 6
#     Node 14, Type 0, BuildingBlock: BETDEL_clean_sbu_0, # of connection points: 6
#     Node 15, Type 0, BuildingBlock: BETDEL_clean_sbu_0, # of connection points: 6
#     Node 16, Type 0, BuildingBlock: BETDEL_clean_sbu_0, # of connection points: 6
#     Node 17, Type 0, BuildingBlock: BETDEL_clean_sbu_0, # of connection points: 6
#     Node 18, Type 0, BuildingBlock: BETDEL_clean_sbu_0, # of connection points: 6
#     Node 19, Type 0, BuildingBlock: BETDEL_clean_sbu_0, # of connection points: 6
#     Node 20, Type 0, BuildingBlock: BETDEL_clean_sbu_0, # of connection points: 6
#     Node 21, Type 0, BuildingBlock: BETDEL_clean_sbu_0, # of connection points: 6
#     Node 22, Type 0, BuildingBlock: BETDEL_clean_sbu_0, # of connection points: 6
#     Node 23, Type 0, BuildingBlock: BETDEL_clean_sbu_0, # of connection points: 6
#     Node 24, Type 0, BuildingBlock: BETDEL_clean_sbu_0, # of connection points: 6
#     Node 25, Type 0, BuildingBlock: BETDEL_clean_sbu_0, # of connection points: 6
#     Node 26, Type 0, BuildingBlock: BETDEL_clean_sbu_0, # of connection points: 6
#     Node 27, Type 0, BuildingBlock: BETDEL_clean_sbu_0, # of connection points: 6
#     Node 28, Type 0, BuildingBlock: BETDEL_clean_sbu_0, # of connection points: 6
#     Node 29, Type 0, BuildingBlock: BETDEL_clean_sbu_0, # of connection points: 6
#     Node 30, Type 0, BuildingBlock: BETDEL_clean_sbu_0, # of connection points: 6
#     Node 31, Type 0, BuildingBlock: BETDEL_clean_sbu_0, # of connection points: 6
#     Edge 32, Type (0, 0), None
#     Edge 33, Type (0, 0), None
#     Edge 34, Type (0, 0), None
#     Edge 35, Type (0, 0), None
#     Edge 36, Type (0, 0), None
#     Edge 37, Type (0, 0), None
#     Edge 38, Type (0, 0), None
#     Edge 39, Type (0, 0), None
#     Edge 40, Type (0, 0), None
#     Edge 41, Type (0, 0), None
#     Edge 42, Type (0, 0), None
#     Edge 43, Type (0, 0), None
#     Edge 44, Type (0, 0), None
#     Edge 45, Type (0, 0), None
#     Edge 46, Type (0, 0), None
#     Edge 47, Type (0, 0), None
#     Edge 48, Type (0, 0), None
#     Edge 49, Type (0, 0), None
#     Edge 50, Type (0, 0), None
#     Edge 51, Type (0, 0), None
#     Edge 52, Type (0, 0), None
#     Edge 53, Type (0, 0), None
#     Edge 54, Type (0, 0), None
#     Edge 55, Type (0, 0), None
#     Edge 56, Type (0, 0), None
#     Edge 57, Type (0, 0), None
#     Edge 58, Type (0, 0), None
#     Edge 59, Type (0, 0), None
#     Edge 60, Type (0, 0), None
#     Edge 61, Type (0, 0), None
#     Edge 62, Type (0, 0), None
#     Edge 63, Type (0, 0), None
#     Edge 64, Type (0, 0), None
#     Edge 65, Type (0, 0), None
#     Edge 66, Type (0, 0), None
#     Edge 67, Type (0, 0), None
#     Edge 68, Type (0, 0), None
#     Edge 69, Type (0, 0), None
#     Edge 70, Type (0, 0), None
#     Edge 71, Type (0, 0), None
#     Edge 72, Type (0, 0), None
#     Edge 73, Type (0, 0), None
#     Edge 74, Type (0, 0), None
#     Edge 75, Type (0, 0), None
#     Edge 76, Type (0, 0), None
#     Edge 77, Type (0, 0), None
#     Edge 78, Type (0, 0), None
#     Edge 79, Type (0, 0), None
#     Edge 80, Type (0, 0), None
#     Edge 81, Type (0, 0), None
#     Edge 82, Type (0, 0), None
#     Edge 83, Type (0, 0), None
#     Edge 84, Type (0, 0), None
#     Edge 85, Type (0, 0), None
#     Edge 86, Type (0, 0), None
#     Edge 87, Type (0, 0), None
#     Edge 88, Type (0, 0), None
#     Edge 89, Type (0, 0), None
#     Edge 90, Type (0, 0), None
#     Edge 91, Type (0, 0), None
#     Edge 92, Type (0, 0), None
#     Edge 93, Type (0, 0), None
#     Edge 94, Type (0, 0), None
#     Edge 95, Type (0, 0), None
#     Edge 96, Type (0, 0), None
#     Edge 97, Type (0, 0), None
#     Edge 98, Type (0, 0), None
#     Edge 99, Type (0, 0), None
#     Edge 100, Type (0, 0), None
#     Edge 101, Type (0, 0), None
#     Edge 102, Type (0, 0), None
#     Edge 103, Type (0, 0), None
#     Edge 104, Type (0, 0), None
#     Edge 105, Type (0, 0), None
#     Edge 106, Type (0, 0), None
#     Edge 107, Type (0, 0), None
#     Edge 108, Type (0, 0), None
#     Edge 109, Type (0, 0), None
#     Edge 110, Type (0, 0), None
#     Edge 111, Type (0, 0), None
#     Edge 112, Type (0, 0), None
#     Edge 113, Type (0, 0), None
#     Edge 114, Type (0, 0), None
#     Edge 115, Type (0, 0), None
#     Edge 116, Type (0, 0), None
#     Edge 117, Type (0, 0), None
#     Edge 118, Type (0, 0), None
#     Edge 119, Type (0, 0), None
#     Edge 120, Type (0, 0), None
#     Edge 121, Type (0, 0), None
#     Edge 122, Type (0, 0), None
#     Edge 123, Type (0, 0), None
#     Edge 124, Type (0, 0), None
#     Edge 125, Type (0, 0), None
#     Edge 126, Type (0, 0), None
#     Edge 127, Type (0, 0), None
# Relax obj value: 0.202
# Max RMSD: 0.233
# Mean RMSD: 0.233
data_MOF--net-wio--node1-BETDEL_clean_sbu_0--edge1-none
_symmetry_space_group_name_H-M    P1
_symmetry_Int_Tables_number       1
_symmetry_cell_setting            triclinic
loop_
_symmetry_equiv_pos_as_xyz
'x, y, z'
_cell_length_a     27.321058
_cell_length_b     27.321964
_cell_length_c     19.284994
_cell_angle_alpha  90.001047
_cell_angle_beta   89.999998
_cell_angle_gamma 89.999976
loop_
_atom_site_label
_atom_site_type_symbol
_atom_site_fract_x
_atom_site_fract_y
_atom_site_fract_z
_atom_type_partial_charge
Dy0 Dy 0.15759 0.08144 0.39505 0.0
C1 C 0.95572 0.08257 0.45086 0.0
C2 C 0.24966 0.07597 0.33918 0.0
Dy3 Dy 0.05087 0.08154 0.40721 0.0
O4 O 0.22889 0.11551 0.36192 0.0
O5 O 0.22099 0.039 0.35076 0.0
O6 O 0.16281 0.13524 0.48024 0.0
O7 O 0.10377 0.14122 0.40941 0.0
C8 C 0.12273 0.15813 0.46443 0.0
C9 C 0.08633 -0.00102 0.34891 0.0
O10 O 0.0526 0.11774 0.30212 0.0
O11 O 0.13134 0.09043 0.28596 0.0
O12 O -0.02687 0.0568 0.40046 0.0
O13 O -0.0101 0.11018 0.47659 0.0
O14 O 0.04679 0.02121 0.32969 0.0
O15 O 0.10442 0.02191 0.39931 0.0
O16 O 0.15712 0.03806 0.49233 0.0
O17 O 0.07495 0.05331 0.51301 0.0
C18 C 0.0904 0.10902 0.26103 0.0
C19 C 0.11808 0.03545 0.53271 0.0
Dy20 Dy 0.11322 0.90756 0.64506 0.0
C21 C 0.11211 0.7057 0.70085 0.0
C22 C 0.11869 -0.00045 0.58907 0.0
Dy23 Dy 0.11313 0.80085 0.65721 0.0
O24 O 0.07914 -0.02115 0.61189 0.0
O25 O 0.15569 0.97093 0.60072 0.0
O26 O 0.05942 0.91279 0.73024 0.0
O27 O 0.05345 0.85375 0.65941 0.0
C28 C 0.03654 0.87271 0.71443 0.0
C29 C 0.19569 0.83631 0.59891 0.0
O30 O 0.07693 0.80258 0.55213 0.0
O31 O 0.10424 0.88132 0.53597 0.0
O32 O 0.13788 0.72311 0.65046 0.0
O33 O 0.08449 0.73987 0.72658 0.0
O34 O 0.17346 0.79677 0.57969 0.0
O35 O 0.17276 0.8544 0.64931 0.0
O36 O 0.15661 0.90711 0.74234 0.0
O37 O 0.14137 0.82493 0.76301 0.0
C38 C 0.08565 0.84037 0.51103 0.0
C39 C 0.15922 0.86807 0.78272 0.0
Dy40 Dy 0.28711 0.86322 0.89507 0.0
C41 C 0.48897 0.86211 0.95087 0.0
C42 C 0.19512 0.86868 0.83907 0.0
Dy43 Dy 0.39383 0.86312 0.90722 0.0
O44 O 0.21582 0.82914 0.8619 0.0
O45 O 0.22373 0.90568 0.85073 0.0
O46 O 0.28188 0.80942 0.98025 0.0
O47 O 0.34093 0.80345 0.90942 0.0
C48 C 0.32196 0.78654 0.96444 0.0
C49 C 0.35836 0.94568 0.84891 0.0
O50 O 0.3921 0.82693 0.80213 0.0
O51 O 0.31335 0.85424 0.78597 0.0
O52 O 0.47156 0.88788 0.90048 0.0
O53 O 0.4548 0.83449 0.97659 0.0
O54 O 0.39791 0.92345 0.82969 0.0
O55 O 0.34027 0.92276 0.89931 0.0
O56 O 0.28756 0.90661 0.99234 0.0
O57 O 0.36974 0.89137 1.01302 0.0
C58 C 0.3543 0.83565 0.76104 0.0
C59 C 0.3266 0.90922 1.03272 0.0
Dy60 Dy 0.33145 0.03711 0.14507 0.0
C61 C 0.33257 0.23897 0.20085 0.0
C62 C 0.32598 0.94512 1.08908 0.0
Dy63 Dy 0.33155 0.14382 0.15722 0.0
O64 O 0.36553 0.96582 0.11191 0.0
O65 O 0.28899 -0.02627 0.10073 0.0
O66 O 0.38526 0.03188 0.23024 0.0
O67 O 0.39122 0.09092 0.15941 0.0
C68 C 0.40814 0.07195 0.21443 0.0
C69 C 0.24899 0.10836 0.09893 0.0
O70 O 0.36775 0.14209 1.05213 0.0
O71 O 0.34043 0.06335 1.03598 0.0
O72 O 0.30679 0.22156 0.15047 0.0
O73 O 0.36019 0.2048 0.22658 0.0
O74 O 0.27123 0.14789 1.0797 0.0
O75 O 0.27192 0.09027 0.14933 0.0
O76 O 0.28809 0.03756 0.24237 0.0
O77 O 0.30332 0.11974 0.26303 0.0
C78 C 0.35903 0.10429 1.01104 0.0
C79 C 0.2855 0.0766 0.28275 0.0
Dy80 Dy 0.15761 0.86321 0.30092 0.0
C81 C 0.95574 0.86212 0.24512 0.0
C82 C 0.24969 0.86872 0.35678 0.0
Dy83 Dy 0.05089 0.86313 0.28876 0.0
O84 O 0.22894 0.82918 0.33402 0.0
O85 O 0.22099 0.90567 0.34524 0.0
O86 O 0.16283 0.80939 0.21576 0.0
O87 O 0.10378 0.80344 0.28659 0.0
C88 C 0.12275 0.78652 0.23158 0.0
C89 C 0.0863 0.94568 0.34695 0.0
O90 O 0.0526 0.82693 0.39384 0.0
O91 O 0.13136 0.85422 0.41001 0.0
O92 O -0.02684 0.8879 0.2955 0.0
O93 O -0.01009 0.83449 0.2194 0.0
O94 O 0.04679 0.92346 0.36629 0.0
O95 O 0.10446 0.92276 0.2966 0.0
O96 O 0.15715 0.90658 0.20362 0.0
O97 O 0.07497 0.89134 0.18294 0.0
C98 C 0.09041 0.83562 0.43493 0.0
C99 C 0.11811 0.90918 0.16323 0.0
Dy100 Dy 0.33146 0.90759 0.55092 0.0
C101 C 0.33255 0.70573 0.49514 0.0
C102 C 0.32595 -0.00033 0.60678 0.0
Dy103 Dy 0.33155 0.80088 0.53876 0.0
O104 O 0.36549 -0.02108 0.58402 0.0
O105 O 0.289 0.97098 0.59523 0.0
O106 O 0.38529 0.91282 0.46577 0.0
O107 O 0.39123 0.85377 0.5366 0.0
C108 C 0.40816 0.87274 0.48159 0.0
C109 C 0.24899 0.83629 0.59694 0.0
O110 O 0.36774 0.8026 0.64384 0.0
O111 O 0.34044 0.88135 0.66001 0.0
O112 O 0.30677 0.72316 0.54551 0.0
O113 O 0.36019 0.73989 0.46942 0.0
O114 O 0.27121 0.79678 0.6163 0.0
O115 O 0.27191 0.85445 0.54659 0.0
O116 O 0.28811 0.90713 0.4536 0.0
O117 O 0.30336 0.82495 0.43293 0.0
C118 C 0.35905 0.84041 0.68493 0.0
C119 C 0.28554 0.8681 0.4132 0.0
Dy120 Dy 0.28709 0.08144 0.80091 0.0
C121 C 0.48895 0.08254 0.74512 0.0
C122 C 0.195 0.07594 0.85677 0.0
Dy123 Dy 0.3938 0.08153 0.78876 0.0
O124 O 0.21576 0.11548 0.83401 0.0
O125 O 0.22369 0.03899 0.84522 0.0
O126 O 0.28186 0.13527 0.71577 0.0
O127 O 0.34091 0.14121 0.78659 0.0
C128 C 0.32194 0.15814 0.73159 0.0
C129 C 0.35839 -0.00102 0.84694 0.0
O130 O 0.39208 0.11772 0.89385 0.0
O131 O 0.31333 0.09043 0.91001 0.0
O132 O 0.47153 0.05676 0.79548 0.0
O133 O 0.45479 0.11018 0.71941 0.0
O134 O 0.39791 0.0212 0.86629 0.0
O135 O 0.34023 0.0219 0.79659 0.0
O136 O 0.28754 0.0381 0.70359 0.0
O137 O 0.36972 0.05333 0.68293 0.0
C138 C 0.35427 0.10903 0.93493 0.0
C139 C 0.32658 0.03552 0.6632 0.0
Dy140 Dy 0.11323 0.03708 1.0509 0.0
C141 C 0.11215 0.23895 0.99513 0.0
C142 C 0.11873 0.94509 0.10688 0.0
Dy143 Dy 0.11314 0.1438 1.03875 0.0
O144 O 0.07917 0.96577 1.08403 0.0
O145 O 0.15571 -0.02628 1.09527 0.0
O146 O 0.0594 0.03185 0.96576 0.0
O147 O 0.05346 0.0909 1.03659 0.0
C148 C 0.03653 0.07193 0.98158 0.0
C149 C 0.19569 0.10838 1.09694 0.0
O150 O 0.07695 0.14208 0.14384 0.0
O151 O 0.10425 0.06333 0.16 0.0
O152 O 0.13793 0.22152 1.04549 0.0
O153 O 0.0845 0.20479 0.96941 0.0
O154 O 0.17347 0.1479 0.11629 0.0
O155 O 0.17278 0.09023 1.04658 0.0
O156 O 0.15658 0.03753 0.95358 0.0
O157 O 0.14134 0.11971 0.93293 0.0
C158 C 0.08565 0.10427 0.18492 0.0
C159 C 0.15916 0.07657 0.9132 0.0
Dy160 Dy 0.89372 0.8631 0.78881 0.0
C161 C 0.69483 0.8687 0.85679 0.0
C162 C -0.01119 0.86218 0.74515 0.0
Dy163 Dy 0.78688 0.86321 0.80096 0.0
O164 O 0.97139 0.88801 0.79545 0.0
O165 O 0.95473 0.83436 0.7196 0.0
O166 O 0.89808 0.92345 0.86609 0.0
O167 O 0.84007 0.92274 0.79687 0.0
C168 C 0.8585 0.94568 0.84706 0.0
C169 C 0.8219 0.78666 0.7316 0.0
O170 O 0.78747 0.90658 0.70369 0.0
O171 O 0.86963 0.89121 0.683 0.0
O172 O 0.71561 0.82914 0.83415 0.0
O173 O 0.72346 0.90568 0.8451 0.0
O174 O 0.78183 0.80951 0.71569 0.0
O175 O 0.84074 0.80349 0.78679 0.0
O176 O 0.89195 0.82694 0.89388 0.0
O177 O 0.81321 0.85432 0.91004 0.0
C178 C 0.82651 0.90911 0.66331 0.0
C179 C 0.85416 0.83573 0.93497 0.0
Dy180 Dy 0.83162 0.14376 0.53884 0.0
C181 C 0.82595 0.94495 0.6069 0.0
C182 C 0.83265 0.23887 0.49521 0.0
Dy183 Dy 0.83147 0.03692 0.55098 0.0
O184 O 0.80687 0.22148 0.5456 0.0
O185 O 0.8603 0.20471 0.4695 0.0
O186 O 0.77124 0.14816 0.61607 0.0
O187 O 0.77196 0.09013 0.54689 0.0
C188 C 0.74901 0.10858 0.59706 0.0
C189 C 0.90806 0.0719 0.48173 0.0
O190 O 0.78812 0.03751 0.45369 0.0
O191 O 0.80348 0.11967 0.43303 0.0
O192 O 0.86553 0.96565 0.58418 0.0
O193 O 0.78896 -0.02645 0.59517 0.0
O194 O 0.88519 0.03185 0.46573 0.0
O195 O 0.89121 0.09077 0.53688 0.0
O196 O 0.86777 0.14196 0.64392 0.0
O197 O 0.84034 0.06324 0.66006 0.0
C198 C 0.78559 0.07656 0.41332 0.0
C199 C 0.85894 0.10418 0.68501 0.0
Dy200 Dy 0.55096 0.08157 0.2888 0.0
C201 C 0.74977 0.07598 0.3569 0.0
C202 C 0.45587 0.08249 0.24514 0.0
Dy203 Dy 0.6578 0.08146 0.30095 0.0
O204 O 0.4733 0.05665 0.29543 0.0
O205 O 0.48995 0.11031 0.2196 0.0
O206 O 0.5466 0.02123 0.36609 0.0
O207 O 0.60462 0.02194 0.29687 0.0
C208 C 0.58618 -0.001 0.34706 0.0
C209 C 0.62278 0.15801 0.23159 0.0
O210 O 0.65723 0.03809 0.20367 0.0
O211 O 0.57506 0.05345 0.18299 0.0
O212 O 0.72905 0.11556 0.33418 0.0
O213 O 0.72119 0.03898 0.34513 0.0
O214 O 0.66286 0.13516 0.21569 0.0
O215 O 0.60394 0.14118 0.28678 0.0
O216 O 0.55273 0.11773 0.39388 0.0
O217 O 0.63147 0.09035 0.41002 0.0
C218 C 0.61818 0.03556 0.1633 0.0
C219 C 0.59052 0.10894 0.43496 0.0
Dy220 Dy 0.61308 0.80091 1.03883 0.0
C221 C 0.61875 -0.00027 0.10689 0.0
C222 C 0.61205 0.70579 0.9952 0.0
Dy223 Dy 0.61324 0.90775 1.05097 0.0
O224 O 0.63783 0.72319 1.04558 0.0
O225 O 0.5844 0.73996 0.96949 0.0
O226 O 0.67346 0.79651 0.11606 0.0
O227 O 0.67275 0.85454 1.04687 0.0
C228 C 0.69569 0.83609 1.09705 0.0
C229 C 0.53664 0.87278 0.98173 0.0
O230 O 0.65657 0.90717 0.95366 0.0
O231 O 0.64121 0.82499 0.93301 0.0
O232 O 0.57917 -0.02098 1.08417 0.0
O233 O 0.65575 0.97113 1.09515 0.0
O234 O 0.55951 0.91282 0.96573 0.0
O235 O 0.5535 0.85391 1.03688 0.0
O236 O 0.57693 0.80272 0.14392 0.0
O237 O 0.60438 0.88143 0.16005 0.0
C238 C 0.65906 0.86812 0.91329 0.0
C239 C 0.58577 0.8405 0.185 0.0
Dy240 Dy 0.8937 0.08157 0.90723 0.0
C241 C 0.6948 0.07595 0.83926 0.0
C242 C -0.0112 0.08247 0.95088 0.0
Dy243 Dy 0.78686 0.08147 0.89508 0.0
O244 O 0.97136 0.05662 0.90061 0.0
O245 O 0.95472 0.11031 0.97642 0.0
O246 O 0.89809 0.02121 0.82994 0.0
O247 O 0.84003 0.02193 0.89923 0.0
C248 C 0.85853 -0.001 0.84909 0.0
C249 C 0.82189 0.15803 0.96441 0.0
O250 O 0.78744 0.03812 0.99237 0.0
O251 O 0.8696 0.05348 1.01306 0.0
O252 O 0.71557 0.11551 0.86192 0.0
O253 O 0.72346 0.03899 0.85092 0.0
O254 O 0.7818 0.13519 0.98031 0.0
O255 O 0.84073 0.14118 0.90923 0.0
O256 O 0.89195 0.11773 0.80216 0.0
O257 O 0.8132 0.09037 0.786 0.0
C258 C 0.82649 0.03559 1.03276 0.0
C259 C 0.85415 0.10896 0.76109 0.0
Dy260 Dy 0.61309 0.14373 0.6572 0.0
C261 C 0.61879 0.94483 0.58926 0.0
C262 C 0.61207 0.23885 0.70081 0.0
Dy263 Dy 0.61324 0.03689 0.64505 0.0
O264 O 0.63786 0.22144 0.65045 0.0
O265 O 0.5844 0.2047 0.72651 0.0
O266 O 0.67348 0.14816 0.57996 0.0
O267 O 0.67275 0.09009 0.64923 0.0
C268 C 0.6957 0.1086 0.5991 0.0
C269 C 0.53662 0.07187 0.71426 0.0
O270 O 0.65654 0.03748 0.74239 0.0
O271 O 0.64118 0.11965 0.76304 0.0
O272 O 0.57922 0.96558 0.61192 0.0
O273 O 0.65574 -0.0265 0.60089 0.0
O274 O 0.55949 0.03182 0.73026 0.0
O275 O 0.55349 0.09074 0.65913 0.0
O276 O 0.57694 0.14194 0.55212 0.0
O277 O 0.60436 0.06321 0.53597 0.0
C278 C 0.65903 0.07653 0.78277 0.0
C279 C 0.58574 0.10415 0.51105 0.0
Dy280 Dy 0.55099 0.86311 0.40724 0.0
C281 C 0.74989 0.86873 0.33927 0.0
C282 C 0.45589 0.86221 0.45089 0.0
Dy283 Dy 0.65783 0.86322 0.39508 0.0
O284 O 0.47333 0.88806 0.40062 0.0
O285 O 0.48997 0.83436 0.47641 0.0
O286 O 0.5466 0.92347 0.32994 0.0
O287 O 0.60466 0.92275 0.39924 0.0
C288 C 0.58616 0.94568 0.3491 0.0
C289 C 0.62281 0.78665 0.4644 0.0
O290 O 0.65725 0.90655 0.4924 0.0
O291 O 0.57508 0.89119 0.51308 0.0
O292 O 0.72912 0.82917 0.36192 0.0
O293 O 0.72124 0.90569 0.35093 0.0
O294 O 0.66289 0.80949 0.48031 0.0
O295 O 0.60396 0.8035 0.40922 0.0
O296 O 0.55275 0.82696 0.30216 0.0
O297 O 0.6315 0.85433 0.28601 0.0
C298 C 0.61821 0.90904 0.53279 0.0
C299 C 0.59055 0.83573 0.26109 0.0
Dy300 Dy 0.8316 0.80093 0.15721 0.0
C301 C 0.82592 -0.00025 1.08916 0.0
C302 C 0.83262 0.70581 0.20083 0.0
Dy303 Dy 0.83146 0.90777 0.14506 0.0
O304 O 0.80682 0.72322 0.15047 0.0
O305 O 0.8603 0.73996 0.22652 0.0
O306 O 0.77122 0.7965 1.07996 0.0
O307 O 0.77194 0.85457 0.14923 0.0
C308 C 0.74901 0.83606 0.0991 0.0
C309 C 0.90807 0.87279 0.21427 0.0
O310 O 0.78815 0.90719 0.2424 0.0
O311 O 0.80351 0.82502 0.26304 0.0
O312 O 0.8655 -0.02094 0.1119 0.0
O313 O 0.78894 0.97113 0.10086 0.0
O314 O 0.88521 0.91284 0.23027 0.0
O315 O 0.8912 0.85392 0.15914 0.0
O316 O 0.86775 0.80272 1.05212 0.0
O317 O 0.84033 0.88145 1.03599 0.0
C318 C 0.78566 0.86814 0.28277 0.0
C319 C 0.85894 0.84051 1.01106 0.0
Dy320 Dy 0.65757 0.58145 0.89503 0.0
C321 C 0.45571 0.58257 0.95082 0.0
C322 C 0.74966 0.57593 0.83919 0.0
Dy323 Dy 0.55085 0.58155 0.90718 0.0
O324 O 0.72891 0.61548 0.86195 0.0
O325 O 0.72096 0.53898 0.85073 0.0
O326 O 0.6628 0.63527 0.9802 0.0
O327 O 0.60376 0.64123 0.90932 0.0
C328 C 0.62274 0.65816 0.96431 0.0
C329 C 0.58632 0.49898 0.84891 0.0
O330 O 0.55259 0.61773 0.80209 0.0
O331 O 0.63134 0.59043 0.78593 0.0
O332 O 0.47311 0.55681 0.90042 0.0
O333 O 0.48988 0.61019 0.97656 0.0
O334 O 0.54678 0.52121 0.82968 0.0
O335 O 0.60441 0.52192 0.8993 0.0
O336 O 0.6571 0.53808 0.99233 0.0
O337 O 0.57493 0.55334 1.013 0.0
C338 C 0.59039 0.60902 0.761 0.0
C339 C 0.61806 0.53548 1.03271 0.0
Dy340 Dy 0.61322 0.4076 0.14508 0.0
C341 C 0.61226 0.20576 0.20091 0.0
C342 C 0.61868 0.49959 1.08907 0.0
Dy343 Dy 0.61316 0.30088 0.15724 0.0
O344 O 0.57913 0.47889 0.1119 0.0
O345 O 0.65567 0.47098 0.10072 0.0
O346 O 0.55941 0.41282 0.23026 0.0
O347 O 0.55347 0.35377 0.15944 0.0
C348 C 0.53655 0.37273 0.21446 0.0
C349 C 0.69569 0.33639 0.09891 0.0
O350 O 0.57696 0.30258 1.05215 0.0
O351 O 0.60421 0.38134 1.03599 0.0
O352 O 0.6381 0.22321 0.15061 0.0
O353 O 0.58446 0.23986 0.22646 0.0
O354 O 0.67346 0.29685 1.07967 0.0
O355 O 0.67276 0.35446 0.14932 0.0
O356 O 0.65661 0.40715 0.24235 0.0
O357 O 0.64135 0.32498 0.26305 0.0
C358 C 0.58565 0.34039 1.01106 0.0
C359 C 0.65922 0.36812 0.28274 0.0
Dy360 Dy 0.78712 0.36322 0.39505 0.0
C361 C -0.01101 0.3621 0.45083 0.0
C362 C 0.69512 0.36872 0.33908 0.0
Dy363 Dy 0.89384 0.36312 0.4072 0.0
O364 O 0.7158 0.32917 0.36192 0.0
O365 O 0.72377 0.4057 0.35069 0.0
O366 O 0.7819 0.3094 0.48021 0.0
O367 O 0.84094 0.30344 0.40933 0.0
C368 C 0.82195 0.2865 0.46432 0.0
C369 C 0.85837 0.44568 0.34891 0.0
O370 O 0.89211 0.32694 0.3021 0.0
O371 O 0.81336 0.35423 0.28595 0.0
O372 O 0.97158 0.38787 0.40045 0.0
O373 O 0.95482 0.33448 0.47656 0.0
O374 O 0.89792 0.42345 0.32969 0.0
O375 O 0.84029 0.42275 0.39931 0.0
O376 O 0.78758 0.40658 0.49234 0.0
O377 O 0.86976 0.39134 0.51301 0.0
C378 C 0.85431 0.33566 0.26101 0.0
C379 C 0.82662 0.40919 0.53272 0.0
Dy380 Dy 0.83146 0.53706 0.64509 0.0
C381 C 0.83242 0.73891 0.70091 0.0
C382 C 0.826 0.44508 0.58908 0.0
Dy383 Dy 0.83152 0.64379 0.65725 0.0
O384 O 0.86555 0.46578 0.61192 0.0
O385 O 0.789 0.47369 0.60074 0.0
O386 O 0.88527 0.53184 0.73026 0.0
O387 O 0.89121 0.5909 0.65944 0.0
C388 C 0.90813 0.57193 0.71446 0.0
C389 C 0.74899 0.60828 0.59892 0.0
O390 O 0.86771 0.64208 0.55216 0.0
O391 O 0.84046 0.56332 0.536 0.0
O392 O 0.80658 0.72146 0.65062 0.0
O393 O 0.86023 0.70482 0.72646 0.0
O394 O 0.77122 0.64782 0.57968 0.0
O395 O 0.77191 0.59021 0.64934 0.0
O396 O 0.78808 0.53752 0.74238 0.0
O397 O 0.80334 0.61969 0.76306 0.0
C398 C 0.85903 0.60427 0.51107 0.0
C399 C 0.78551 0.57655 0.78277 0.0
Dy400 Dy 0.6576 0.36321 0.80094 0.0
C401 C 0.45573 0.36212 0.74516 0.0
C402 C 0.74969 0.36876 0.85677 0.0
Dy403 Dy 0.55088 0.36312 0.78878 0.0
O404 O 0.72896 0.32921 0.83399 0.0
O405 O 0.72097 0.4057 0.84526 0.0
O406 O 0.66283 0.30937 0.7158 0.0
O407 O 0.60378 0.30344 0.78667 0.0
C408 C 0.62277 0.28649 0.7317 0.0
C409 C 0.5863 0.44568 0.84696 0.0
O410 O 0.5526 0.32694 0.89387 0.0
O411 O 0.63136 0.35422 0.91004 0.0
O412 O 0.47316 0.3879 0.79553 0.0
O413 O 0.4899 0.33449 0.71944 0.0
O414 O 0.54678 0.42346 0.86631 0.0
O415 O 0.60445 0.42276 0.79661 0.0
O416 O 0.65713 0.40656 0.70362 0.0
O417 O 0.57496 0.39131 0.68295 0.0
C418 C 0.59041 0.33563 0.93495 0.0
C419 C 0.6181 0.40916 0.66324 0.0
Dy420 Dy 0.83147 0.40763 1.0509 0.0
C421 C 0.8324 0.20579 0.99508 0.0
C422 C 0.82597 0.49971 0.10677 0.0
Dy423 Dy 0.83152 0.30091 1.03874 0.0
O424 O 0.86551 0.47896 1.084 0.0
O425 O 0.78901 0.47101 1.09523 0.0
O426 O 0.8853 0.41285 0.96575 0.0
O427 O 0.89122 0.35379 1.03656 0.0
C428 C 0.90816 0.37276 0.98156 0.0
C429 C 0.74899 0.33637 1.09694 0.0
O430 O 0.86772 0.3026 0.14381 0.0
O431 O 0.84048 0.38138 0.15999 0.0
O432 O 0.80655 0.22325 1.04535 0.0
O433 O 0.86023 0.23987 0.96954 0.0
O434 O 0.77121 0.29686 0.11631 0.0
O435 O 0.77191 0.3545 1.04657 0.0
O436 O 0.78811 0.40717 0.95359 0.0
O437 O 0.80337 0.325 0.9329 0.0
C438 C 0.85906 0.34042 0.1849 0.0
C439 C 0.78554 0.36814 0.91318 0.0
Dy440 Dy 0.78709 0.58144 0.30093 0.0
C441 C -0.01104 0.58254 0.24516 0.0
C442 C 0.695 0.5759 0.35676 0.0
Dy443 Dy 0.89381 0.58153 0.28878 0.0
O444 O 0.71573 0.61544 0.33399 0.0
O445 O 0.72372 0.53896 0.34525 0.0
O446 O 0.78186 0.63529 0.2158 0.0
O447 O 0.84091 0.64122 0.28668 0.0
C448 C 0.82192 0.65817 0.2317 0.0
C449 C 0.8584 0.49898 0.34694 0.0
O450 O 0.89209 0.61771 0.39388 0.0
O451 O 0.81333 0.59042 0.41003 0.0
O452 O 0.97154 0.55676 0.29552 0.0
O453 O 0.9548 0.61018 0.21944 0.0
O454 O 0.89791 0.5212 0.3663 0.0
O455 O 0.84024 0.5219 0.29659 0.0
O456 O 0.78756 0.53811 0.2036 0.0
O457 O 0.86974 0.55336 0.18294 0.0
C458 C 0.85427 0.60902 0.43496 0.0
C459 C 0.82659 0.53555 0.16321 0.0
Dy460 Dy 0.61322 0.53704 0.55089 0.0
C461 C 0.61229 0.73889 0.49507 0.0
C462 C 0.61871 0.44505 0.60688 0.0
Dy463 Dy 0.61317 0.64376 0.53872 0.0
O464 O 0.57916 0.46573 0.58402 0.0
O465 O 0.65569 0.47369 0.59526 0.0
O466 O 0.55939 0.53182 0.46574 0.0
O467 O 0.55347 0.59088 0.53655 0.0
C468 C 0.53653 0.57192 0.48155 0.0
C469 C 0.69569 0.60831 0.59694 0.0
O470 O 0.57698 0.64208 0.64381 0.0
O471 O 0.60421 0.5633 0.65997 0.0
O472 O 0.63814 0.72143 0.54533 0.0
O473 O 0.58446 0.70481 0.46953 0.0
O474 O 0.67347 0.64782 0.61631 0.0
O475 O 0.67278 0.59017 0.54657 0.0
O476 O 0.65657 0.53749 0.45357 0.0
O477 O 0.64132 0.61966 0.43289 0.0
C478 C 0.58564 0.60426 0.68489 0.0
C479 C 0.65915 0.57652 0.41318 0.0
Dy480 Dy 0.39373 0.3631 0.28883 0.0
C481 C 0.19483 0.36874 0.35679 0.0
C482 C 0.48883 0.36219 0.24518 0.0
Dy483 Dy 0.28689 0.36321 0.30098 0.0
O484 O 0.4714 0.38802 0.29548 0.0
O485 O 0.45474 0.33436 0.21963 0.0
O486 O 0.39809 0.42346 0.3661 0.0
O487 O 0.34008 0.42274 0.29688 0.0
C488 C 0.35851 0.44569 0.34706 0.0
C489 C 0.32189 0.28663 0.23172 0.0
O490 O 0.28748 0.40657 0.2037 0.0
O491 O 0.36964 0.39119 0.18301 0.0
O492 O 0.2156 0.32917 0.33413 0.0
O493 O 0.22349 0.4057 0.34513 0.0
O494 O 0.28184 0.30949 0.21573 0.0
O495 O 0.34076 0.30349 0.28687 0.0
O496 O 0.39196 0.32695 0.39391 0.0
O497 O 0.31322 0.35432 0.41006 0.0
C498 C 0.32653 0.40909 0.16332 0.0
C499 C 0.35417 0.33574 0.435 0.0
Dy500 Dy 0.33159 0.64373 1.03882 0.0
C501 C 0.32596 0.44492 0.1069 0.0
C502 C 0.3325 0.73882 0.99516 0.0
Dy503 Dy 0.33147 0.53689 1.05097 0.0
O504 O 0.30665 0.72139 1.04544 0.0
O505 O 0.36033 0.70474 0.96963 0.0
O506 O 0.27123 0.64809 0.1161 0.0
O507 O 0.27195 0.59008 1.04688 0.0
C508 C 0.249 0.60851 1.09706 0.0
C509 C 0.40805 0.57189 0.9817 0.0
O510 O 0.28812 0.53747 0.95369 0.0
O511 O 0.30349 0.61963 0.933 0.0
O512 O 0.36554 0.46561 1.08417 0.0
O513 O 0.28897 0.47352 1.09518 0.0
O514 O 0.38519 0.53183 0.96572 0.0
O515 O 0.39119 0.59076 1.03685 0.0
O516 O 0.36773 0.64196 0.1439 0.0
O517 O 0.34037 0.56322 0.16005 0.0
C518 C 0.2856 0.57652 0.91331 0.0
C519 C 0.35894 0.60418 0.18499 0.0
Dy520 Dy 0.05095 0.58157 0.78882 0.0
C521 C 0.24977 0.57595 0.85689 0.0
C522 C 0.95585 0.58248 0.74518 0.0
Dy523 Dy 0.15779 0.58146 0.80097 0.0
O524 O -0.02671 0.55664 0.79546 0.0
O525 O -0.01007 0.61031 0.71963 0.0
O526 O 0.04659 0.52122 0.8661 0.0
O527 O 0.10461 0.52194 0.79687 0.0
C528 C 0.08618 0.49899 0.84706 0.0
C529 C 0.12279 0.65804 0.73171 0.0
O530 O 0.15721 0.53811 0.70368 0.0
O531 O 0.07505 0.55348 0.683 0.0
O532 O 0.22907 0.61553 0.83416 0.0
O533 O 0.22117 0.53896 0.84517 0.0
O534 O 0.16285 0.63518 0.71572 0.0
O535 O 0.10392 0.64118 0.78686 0.0
O536 O 0.05272 0.61772 0.89391 0.0
O537 O 0.13147 0.59035 0.91005 0.0
C538 C 0.11817 0.53558 0.66331 0.0
C539 C 0.09051 0.60893 0.93499 0.0
Dy540 Dy 0.11311 0.30094 0.53881 0.0
C541 C 0.11874 0.49976 0.60689 0.0
C542 C 0.1122 0.20585 0.49515 0.0
Dy543 Dy 0.11323 0.40778 0.55096 0.0
O544 O 0.13805 0.22328 0.54543 0.0
O545 O 0.08436 0.23993 0.46962 0.0
O546 O 0.17347 0.29658 0.61609 0.0
O547 O 0.17275 0.35459 0.54686 0.0
C548 C 0.1957 0.33616 0.59705 0.0
C549 C 0.03665 0.37279 0.48171 0.0
O550 O 0.15657 0.4072 0.45366 0.0
O551 O 0.14119 0.32504 0.43298 0.0
O552 O 0.07916 0.47905 0.58416 0.0
O553 O 0.15573 0.47116 0.59516 0.0
O554 O 0.05951 0.41284 0.46572 0.0
O555 O 0.05351 0.35392 0.53685 0.0
O556 O 0.07697 0.30272 0.6439 0.0
O557 O 0.10435 0.38145 0.66004 0.0
C558 C 0.15906 0.36816 0.41328 0.0
C559 C 0.08577 0.3405 0.68498 0.0
Dy560 Dy 0.39371 0.58158 0.40721 0.0
C561 C 0.1948 0.57591 0.33927 0.0
C562 C 0.48881 0.58247 0.45085 0.0
Dy563 Dy 0.28687 0.58147 0.39506 0.0
O564 O 0.47136 0.55662 0.40058 0.0
O565 O 0.45474 0.61031 0.47638 0.0
O566 O 0.39809 0.52121 0.32993 0.0
O567 O 0.34004 0.52194 0.39923 0.0
C568 C 0.35853 0.499 0.34909 0.0
C569 C 0.32187 0.65806 0.46429 0.0
O570 O 0.28746 0.53814 0.49237 0.0
O571 O 0.36961 0.55352 0.51306 0.0
O572 O 0.21554 0.61548 0.36195 0.0
O573 O 0.22349 0.53896 0.35089 0.0
O574 O 0.28181 0.63521 0.48028 0.0
O575 O 0.34074 0.64119 0.40915 0.0
O576 O 0.39195 0.61773 0.30214 0.0
O577 O 0.31319 0.59037 0.28598 0.0
C578 C 0.3265 0.53562 0.53276 0.0
C579 C 0.35415 0.60896 0.26107 0.0
Dy580 Dy 0.11311 0.6437 0.15723 0.0
C581 C 0.11878 0.44479 1.08927 0.0
C582 C 0.11221 0.73879 0.20087 0.0
Dy583 Dy 0.11322 0.53685 0.14507 0.0
O584 O 0.13807 0.72135 0.15061 0.0
O585 O 0.08436 0.70472 0.22639 0.0
O586 O 0.17347 0.64808 1.07994 0.0
O587 O 0.17275 0.59003 0.14924 0.0
C588 C 0.19569 0.60853 0.0991 0.0
C589 C 0.03663 0.57185 0.2143 0.0
O590 O 0.15654 0.53744 0.24239 0.0
O591 O 0.14116 0.61961 0.26308 0.0
O592 O 0.0792 0.46554 0.11194 0.0
O593 O 0.15573 0.47347 0.1009 0.0
O594 O 0.05947 0.53179 0.23028 0.0
O595 O 0.0535 0.59072 0.15916 0.0
O596 O 0.07696 0.64193 1.05215 0.0
O597 O 0.10433 0.56318 1.03599 0.0
C598 C 0.15902 0.57648 0.28279 0.0
C599 C 0.08573 0.60414 1.01107 0.0
Dy600 Dy 0.05098 0.3631 0.90722 0.0
C601 C 0.24989 0.36877 0.83928 0.0
C602 C 0.95588 0.36221 0.95085 0.0
Dy603 Dy 0.15783 0.36321 0.89507 0.0
O604 O -0.02667 0.38806 0.90059 0.0
O605 O -0.01005 0.33436 0.97638 0.0
O606 O 0.0466 0.42346 0.82994 0.0
O607 O 0.10465 0.42274 0.89924 0.0
C608 C 0.08616 0.44568 0.8491 0.0
C609 C 0.12283 0.28662 0.96428 0.0
O610 O 0.15724 0.40653 0.9924 0.0
O611 O 0.07507 0.39115 1.01307 0.0
O612 O 0.22914 0.3292 0.86195 0.0
O613 O 0.22121 0.40572 0.8509 0.0
O614 O 0.16289 0.30946 0.98028 0.0
O615 O 0.10396 0.30349 0.90915 0.0
O616 O 0.05275 0.32696 0.80213 0.0
O617 O 0.1315 0.35432 0.78599 0.0
C618 C 0.1182 0.40901 1.03279 0.0
C619 C 0.09055 0.33573 0.76107 0.0
Dy620 Dy 0.33158 0.30096 0.65724 0.0
C621 C 0.32593 0.49979 0.58916 0.0
C622 C 0.33248 0.20587 0.70088 0.0
Dy623 Dy 0.33147 0.40781 0.64508 0.0
O624 O 0.30661 0.22331 0.65063 0.0
O625 O 0.36034 0.23994 0.7264 0.0
O626 O 0.27123 0.29658 0.57994 0.0
O627 O 0.27195 0.35463 0.64925 0.0
C628 C 0.24901 0.33614 0.5991 0.0
C629 C 0.40807 0.37281 0.71431 0.0
O630 O 0.28816 0.40723 0.74241 0.0
O631 O 0.30353 0.32507 0.76308 0.0
O632 O 0.36551 0.4791 0.61192 0.0
O633 O 0.28895 0.47117 0.60087 0.0
O634 O 0.38522 0.41287 0.73029 0.0
O635 O 0.39119 0.35394 0.65917 0.0
O636 O 0.36773 0.30273 0.55215 0.0
O637 O 0.34037 0.38148 0.53601 0.0
C638 C 0.28567 0.36819 0.78279 0.0
C639 C 0.35895 0.34052 0.51108 0.0
loop_
_geom_bond_atom_site_label_1
_geom_bond_atom_site_label_2
_geom_bond_distance
_geom_bond_site_symmetry_2
_ccdc_geom_bond_type
Dy0 O4 2.398 . S
Dy0 O5 2.491 . S
Dy0 O6 2.403 . S
Dy0 O7 2.664 . S
Dy0 O11 2.326 . S
Dy0 O15 2.310 . S
Dy0 O16 2.351 . S
C1 O12 1.185 . S
C1 O13 1.355 1_655 S
C2 O4 1.185 . S
C2 O5 1.355 . S
Dy3 O7 2.310 . S
Dy3 O10 2.351 . S
Dy3 O12 2.398 1_455 S
Dy3 O13 2.491 . S
Dy3 O14 2.403 . S
Dy3 O15 2.664 . S
Dy3 O17 2.326 . S
O4 Dy0 2.398 . S
O4 C2 1.185 . S
O5 Dy0 2.491 . S
O5 C2 1.355 . S
O6 Dy0 2.403 . S
O6 C8 1.254 . S
O7 Dy0 2.664 . S
O7 Dy3 2.310 . S
O7 C8 1.268 . S
C8 O6 1.254 . S
C8 O7 1.268 . S
C9 O14 1.254 . S
C9 O15 1.268 . S
O10 Dy3 2.351 . S
O10 C18 1.249 . S
O11 Dy0 2.326 . S
O11 C18 1.267 . S
O12 C1 1.185 . S
O12 Dy3 2.398 1_655 S
O13 C1 1.355 1_455 S
O13 Dy3 2.491 . S
O14 Dy3 2.403 . S
O14 C9 1.254 . S
O15 Dy0 2.310 . S
O15 Dy3 2.664 . S
O15 C9 1.268 . S
O16 Dy0 2.351 . S
O16 C19 1.249 . S
O17 Dy3 2.326 . S
O17 C19 1.267 . S
C18 O10 1.249 . S
C18 O11 1.267 . S
C19 O16 1.249 . S
C19 O17 1.267 . S
Dy20 O24 2.398 1_565 S
Dy20 O25 2.491 . S
Dy20 O26 2.403 . S
Dy20 O27 2.664 . S
Dy20 O31 2.326 . S
Dy20 O35 2.310 . S
Dy20 O36 2.351 . S
C21 O32 1.185 . S
C21 O33 1.355 . S
C22 O24 1.185 . S
C22 O25 1.355 1_545 S
Dy23 O27 2.310 . S
Dy23 O30 2.351 . S
Dy23 O32 2.398 . S
Dy23 O33 2.491 . S
Dy23 O34 2.403 . S
Dy23 O35 2.664 . S
Dy23 O37 2.326 . S
O24 Dy20 2.398 1_545 S
O24 C22 1.185 . S
O25 Dy20 2.491 . S
O25 C22 1.355 1_565 S
O26 Dy20 2.403 . S
O26 C28 1.254 . S
O27 Dy20 2.664 . S
O27 Dy23 2.310 . S
O27 C28 1.268 . S
C28 O26 1.254 . S
C28 O27 1.268 . S
C29 O34 1.254 . S
C29 O35 1.268 . S
O30 Dy23 2.351 . S
O30 C38 1.249 . S
O31 Dy20 2.326 . S
O31 C38 1.267 . S
O32 C21 1.185 . S
O32 Dy23 2.398 . S
O33 C21 1.355 . S
O33 Dy23 2.491 . S
O34 Dy23 2.403 . S
O34 C29 1.254 . S
O35 Dy20 2.310 . S
O35 Dy23 2.664 . S
O35 C29 1.268 . S
O36 Dy20 2.351 . S
O36 C39 1.249 . S
O37 Dy23 2.326 . S
O37 C39 1.267 . S
C38 O30 1.249 . S
C38 O31 1.267 . S
C39 O36 1.249 . S
C39 O37 1.267 . S
Dy40 O44 2.398 . S
Dy40 O45 2.491 . S
Dy40 O46 2.403 . S
Dy40 O47 2.664 . S
Dy40 O51 2.326 . S
Dy40 O55 2.310 . S
Dy40 O56 2.351 . S
C41 O52 1.185 . S
C41 O53 1.355 . S
C42 O44 1.185 . S
C42 O45 1.355 . S
Dy43 O47 2.310 . S
Dy43 O50 2.351 . S
Dy43 O52 2.398 . S
Dy43 O53 2.491 . S
Dy43 O54 2.403 . S
Dy43 O55 2.664 . S
Dy43 O57 2.326 . S
O44 Dy40 2.398 . S
O44 C42 1.185 . S
O45 Dy40 2.491 . S
O45 C42 1.355 . S
O46 Dy40 2.403 . S
O46 C48 1.254 . S
O47 Dy40 2.664 . S
O47 Dy43 2.310 . S
O47 C48 1.268 . S
C48 O46 1.254 . S
C48 O47 1.268 . S
C49 O54 1.254 . S
C49 O55 1.268 . S
O50 Dy43 2.351 . S
O50 C58 1.249 . S
O51 Dy40 2.326 . S
O51 C58 1.267 . S
O52 C41 1.185 . S
O52 Dy43 2.398 . S
O53 C41 1.355 . S
O53 Dy43 2.491 . S
O54 Dy43 2.403 . S
O54 C49 1.254 . S
O55 Dy40 2.310 . S
O55 Dy43 2.664 . S
O55 C49 1.268 . S
O56 Dy40 2.351 . S
O56 C59 1.249 . S
O57 Dy43 2.326 . S
O57 C59 1.267 . S
C58 O50 1.249 . S
C58 O51 1.267 . S
C59 O56 1.249 . S
C59 O57 1.267 . S
Dy60 O64 2.398 1_544 S
Dy60 O65 2.491 1_554 S
Dy60 O66 2.403 . S
Dy60 O67 2.664 . S
Dy60 O71 2.326 1_554 S
Dy60 O75 2.310 1_554 S
Dy60 O76 2.351 . S
C61 O72 1.185 . S
C61 O73 1.355 . S
C62 O64 1.185 . S
C62 O65 1.355 1_565 S
Dy63 O67 2.310 . S
Dy63 O70 2.351 1_554 S
Dy63 O72 2.398 . S
Dy63 O73 2.491 . S
Dy63 O74 2.403 . S
Dy63 O75 2.664 1_554 S
Dy63 O77 2.326 . S
O64 Dy60 2.398 1_566 S
O64 C62 1.185 . S
O65 Dy60 2.491 1_556 S
O65 C62 1.355 1_545 S
O66 Dy60 2.403 . S
O66 C68 1.254 . S
O67 Dy60 2.664 . S
O67 Dy63 2.310 . S
O67 C68 1.268 . S
C68 O66 1.254 . S
C68 O67 1.268 . S
C69 O74 1.254 1_556 S
C69 O75 1.268 . S
O70 Dy63 2.351 1_556 S
O70 C78 1.249 . S
O71 Dy60 2.326 1_556 S
O71 C78 1.267 . S
O72 C61 1.185 . S
O72 Dy63 2.398 . S
O73 C61 1.355 . S
O73 Dy63 2.491 . S
O74 Dy63 2.403 . S
O74 C69 1.254 1_554 S
O75 Dy60 2.310 1_556 S
O75 Dy63 2.664 1_556 S
O75 C69 1.268 . S
O76 Dy60 2.351 . S
O76 C79 1.249 . S
O77 Dy63 2.326 . S
O77 C79 1.267 . S
C78 O70 1.249 . S
C78 O71 1.267 . S
C79 O76 1.249 . S
C79 O77 1.267 . S
Dy80 O84 2.398 . S
Dy80 O85 2.491 . S
Dy80 O86 2.403 . S
Dy80 O87 2.664 . S
Dy80 O91 2.326 . S
Dy80 O95 2.310 . S
Dy80 O96 2.351 . S
C81 O92 1.185 . S
C81 O93 1.355 1_655 S
C82 O84 1.185 . S
C82 O85 1.355 . S
Dy83 O87 2.310 . S
Dy83 O90 2.351 . S
Dy83 O92 2.398 1_455 S
Dy83 O93 2.491 . S
Dy83 O94 2.403 . S
Dy83 O95 2.664 . S
Dy83 O97 2.326 . S
O84 Dy80 2.398 . S
O84 C82 1.185 . S
O85 Dy80 2.491 . S
O85 C82 1.355 . S
O86 Dy80 2.403 . S
O86 C88 1.254 . S
O87 Dy80 2.664 . S
O87 Dy83 2.310 . S
O87 C88 1.268 . S
C88 O86 1.254 . S
C88 O87 1.268 . S
C89 O94 1.254 . S
C89 O95 1.268 . S
O90 Dy83 2.351 . S
O90 C98 1.249 . S
O91 Dy80 2.326 . S
O91 C98 1.267 . S
O92 C81 1.185 . S
O92 Dy83 2.398 1_655 S
O93 C81 1.355 1_455 S
O93 Dy83 2.491 . S
O94 Dy83 2.403 . S
O94 C89 1.254 . S
O95 Dy80 2.310 . S
O95 Dy83 2.664 . S
O95 C89 1.268 . S
O96 Dy80 2.351 . S
O96 C99 1.249 . S
O97 Dy83 2.326 . S
O97 C99 1.267 . S
C98 O90 1.249 . S
C98 O91 1.267 . S
C99 O96 1.249 . S
C99 O97 1.267 . S
Dy100 O104 2.398 1_565 S
Dy100 O105 2.491 . S
Dy100 O106 2.403 . S
Dy100 O107 2.664 . S
Dy100 O111 2.326 . S
Dy100 O115 2.310 . S
Dy100 O116 2.351 . S
C101 O112 1.185 . S
C101 O113 1.355 . S
C102 O104 1.185 . S
C102 O105 1.355 1_545 S
Dy103 O107 2.310 . S
Dy103 O110 2.351 . S
Dy103 O112 2.398 . S
Dy103 O113 2.491 . S
Dy103 O114 2.403 . S
Dy103 O115 2.664 . S
Dy103 O117 2.326 . S
O104 Dy100 2.398 1_545 S
O104 C102 1.185 . S
O105 Dy100 2.491 . S
O105 C102 1.355 1_565 S
O106 Dy100 2.403 . S
O106 C108 1.254 . S
O107 Dy100 2.664 . S
O107 Dy103 2.310 . S
O107 C108 1.268 . S
C108 O106 1.254 . S
C108 O107 1.268 . S
C109 O114 1.254 . S
C109 O115 1.268 . S
O110 Dy103 2.351 . S
O110 C118 1.249 . S
O111 Dy100 2.326 . S
O111 C118 1.267 . S
O112 C101 1.185 . S
O112 Dy103 2.398 . S
O113 C101 1.355 . S
O113 Dy103 2.491 . S
O114 Dy103 2.403 . S
O114 C109 1.254 . S
O115 Dy100 2.310 . S
O115 Dy103 2.664 . S
O115 C109 1.268 . S
O116 Dy100 2.351 . S
O116 C119 1.249 . S
O117 Dy103 2.326 . S
O117 C119 1.267 . S
C118 O110 1.249 . S
C118 O111 1.267 . S
C119 O116 1.249 . S
C119 O117 1.267 . S
Dy120 O124 2.398 . S
Dy120 O125 2.491 . S
Dy120 O126 2.403 . S
Dy120 O127 2.664 . S
Dy120 O131 2.326 . S
Dy120 O135 2.310 . S
Dy120 O136 2.351 . S
C121 O132 1.185 . S
C121 O133 1.355 . S
C122 O124 1.185 . S
C122 O125 1.355 . S
Dy123 O127 2.310 . S
Dy123 O130 2.351 . S
Dy123 O132 2.398 . S
Dy123 O133 2.491 . S
Dy123 O134 2.403 . S
Dy123 O135 2.664 . S
Dy123 O137 2.326 . S
O124 Dy120 2.398 . S
O124 C122 1.185 . S
O125 Dy120 2.491 . S
O125 C122 1.355 . S
O126 Dy120 2.403 . S
O126 C128 1.254 . S
O127 Dy120 2.664 . S
O127 Dy123 2.310 . S
O127 C128 1.268 . S
C128 O126 1.254 . S
C128 O127 1.268 . S
C129 O134 1.254 . S
C129 O135 1.268 . S
O130 Dy123 2.351 . S
O130 C138 1.249 . S
O131 Dy120 2.326 . S
O131 C138 1.267 . S
O132 C121 1.185 . S
O132 Dy123 2.398 . S
O133 C121 1.355 . S
O133 Dy123 2.491 . S
O134 Dy123 2.403 . S
O134 C129 1.254 . S
O135 Dy120 2.310 . S
O135 Dy123 2.664 . S
O135 C129 1.268 . S
O136 Dy120 2.351 . S
O136 C139 1.249 . S
O137 Dy123 2.326 . S
O137 C139 1.267 . S
C138 O130 1.249 . S
C138 O131 1.267 . S
C139 O136 1.249 . S
C139 O137 1.267 . S
Dy140 O144 2.398 1_546 S
Dy140 O145 2.491 1_556 S
Dy140 O146 2.403 . S
Dy140 O147 2.664 . S
Dy140 O151 2.326 1_556 S
Dy140 O155 2.310 1_556 S
Dy140 O156 2.351 . S
C141 O152 1.185 . S
C141 O153 1.355 . S
C142 O144 1.185 . S
C142 O145 1.355 1_565 S
Dy143 O147 2.310 . S
Dy143 O150 2.351 1_556 S
Dy143 O152 2.398 . S
Dy143 O153 2.491 . S
Dy143 O154 2.403 . S
Dy143 O155 2.664 1_556 S
Dy143 O157 2.326 . S
O144 Dy140 2.398 1_564 S
O144 C142 1.185 . S
O145 Dy140 2.491 1_554 S
O145 C142 1.355 1_545 S
O146 Dy140 2.403 . S
O146 C148 1.254 . S
O147 Dy140 2.664 . S
O147 Dy143 2.310 . S
O147 C148 1.268 . S
C148 O146 1.254 . S
C148 O147 1.268 . S
C149 O154 1.254 1_554 S
C149 O155 1.268 . S
O150 Dy143 2.351 1_554 S
O150 C158 1.249 . S
O151 Dy140 2.326 1_554 S
O151 C158 1.267 . S
O152 C141 1.185 . S
O152 Dy143 2.398 . S
O153 C141 1.355 . S
O153 Dy143 2.491 . S
O154 Dy143 2.403 . S
O154 C149 1.254 1_556 S
O155 Dy140 2.310 1_554 S
O155 Dy143 2.664 1_554 S
O155 C149 1.268 . S
O156 Dy140 2.351 . S
O156 C159 1.249 . S
O157 Dy143 2.326 . S
O157 C159 1.267 . S
C158 O150 1.249 . S
C158 O151 1.267 . S
C159 O156 1.249 . S
C159 O157 1.267 . S
Dy160 O164 2.398 1_655 S
Dy160 O165 2.491 . S
Dy160 O166 2.403 . S
Dy160 O167 2.664 . S
Dy160 O171 2.326 . S
Dy160 O175 2.310 . S
Dy160 O176 2.351 . S
C161 O172 1.185 . S
C161 O173 1.355 . S
C162 O164 1.185 . S
C162 O165 1.355 1_455 S
Dy163 O167 2.310 . S
Dy163 O170 2.351 . S
Dy163 O172 2.398 . S
Dy163 O173 2.491 . S
Dy163 O174 2.403 . S
Dy163 O175 2.664 . S
Dy163 O177 2.326 . S
O164 Dy160 2.398 1_455 S
O164 C162 1.185 . S
O165 Dy160 2.491 . S
O165 C162 1.355 1_655 S
O166 Dy160 2.403 . S
O166 C168 1.254 . S
O167 Dy160 2.664 . S
O167 Dy163 2.310 . S
O167 C168 1.268 . S
C168 O166 1.254 . S
C168 O167 1.268 . S
C169 O174 1.254 . S
C169 O175 1.268 . S
O170 Dy163 2.351 . S
O170 C178 1.249 . S
O171 Dy160 2.326 . S
O171 C178 1.267 . S
O172 C161 1.185 . S
O172 Dy163 2.398 . S
O173 C161 1.355 . S
O173 Dy163 2.491 . S
O174 Dy163 2.403 . S
O174 C169 1.254 . S
O175 Dy160 2.310 . S
O175 Dy163 2.664 . S
O175 C169 1.268 . S
O176 Dy160 2.351 . S
O176 C179 1.249 . S
O177 Dy163 2.326 . S
O177 C179 1.267 . S
C178 O170 1.249 . S
C178 O171 1.267 . S
C179 O176 1.249 . S
C179 O177 1.267 . S
Dy180 O184 2.398 . S
Dy180 O185 2.491 . S
Dy180 O186 2.403 . S
Dy180 O187 2.664 . S
Dy180 O191 2.326 . S
Dy180 O195 2.310 . S
Dy180 O196 2.351 . S
C181 O192 1.185 . S
C181 O193 1.355 1_565 S
C182 O184 1.185 . S
C182 O185 1.355 . S
Dy183 O187 2.310 . S
Dy183 O190 2.351 . S
Dy183 O192 2.398 1_545 S
Dy183 O193 2.491 . S
Dy183 O194 2.403 . S
Dy183 O195 2.664 . S
Dy183 O197 2.326 . S
O184 Dy180 2.398 . S
O184 C182 1.185 . S
O185 Dy180 2.491 . S
O185 C182 1.355 . S
O186 Dy180 2.403 . S
O186 C188 1.254 . S
O187 Dy180 2.664 . S
O187 Dy183 2.310 . S
O187 C188 1.268 . S
C188 O186 1.254 . S
C188 O187 1.268 . S
C189 O194 1.254 . S
C189 O195 1.268 . S
O190 Dy183 2.351 . S
O190 C198 1.249 . S
O191 Dy180 2.326 . S
O191 C198 1.267 . S
O192 C181 1.185 . S
O192 Dy183 2.398 1_565 S
O193 C181 1.355 1_545 S
O193 Dy183 2.491 . S
O194 Dy183 2.403 . S
O194 C189 1.254 . S
O195 Dy180 2.310 . S
O195 Dy183 2.664 . S
O195 C189 1.268 . S
O196 Dy180 2.351 . S
O196 C199 1.249 . S
O197 Dy183 2.326 . S
O197 C199 1.267 . S
C198 O190 1.249 . S
C198 O191 1.267 . S
C199 O196 1.249 . S
C199 O197 1.267 . S
Dy200 O204 2.398 . S
Dy200 O205 2.491 . S
Dy200 O206 2.403 . S
Dy200 O207 2.664 . S
Dy200 O211 2.326 . S
Dy200 O215 2.310 . S
Dy200 O216 2.351 . S
C201 O212 1.185 . S
C201 O213 1.355 . S
C202 O204 1.185 . S
C202 O205 1.355 . S
Dy203 O207 2.310 . S
Dy203 O210 2.351 . S
Dy203 O212 2.398 . S
Dy203 O213 2.491 . S
Dy203 O214 2.403 . S
Dy203 O215 2.664 . S
Dy203 O217 2.326 . S
O204 Dy200 2.398 . S
O204 C202 1.185 . S
O205 Dy200 2.491 . S
O205 C202 1.355 . S
O206 Dy200 2.403 . S
O206 C208 1.254 . S
O207 Dy200 2.664 . S
O207 Dy203 2.310 . S
O207 C208 1.268 . S
C208 O206 1.254 . S
C208 O207 1.268 . S
C209 O214 1.254 . S
C209 O215 1.268 . S
O210 Dy203 2.351 . S
O210 C218 1.249 . S
O211 Dy200 2.326 . S
O211 C218 1.267 . S
O212 C201 1.185 . S
O212 Dy203 2.398 . S
O213 C201 1.355 . S
O213 Dy203 2.491 . S
O214 Dy203 2.403 . S
O214 C209 1.254 . S
O215 Dy200 2.310 . S
O215 Dy203 2.664 . S
O215 C209 1.268 . S
O216 Dy200 2.351 . S
O216 C219 1.249 . S
O217 Dy203 2.326 . S
O217 C219 1.267 . S
C218 O210 1.249 . S
C218 O211 1.267 . S
C219 O216 1.249 . S
C219 O217 1.267 . S
Dy220 O224 2.398 . S
Dy220 O225 2.491 . S
Dy220 O226 2.403 . S
Dy220 O227 2.664 1_556 S
Dy220 O231 2.326 . S
Dy220 O235 2.310 . S
Dy220 O236 2.351 1_556 S
C221 O232 1.185 . S
C221 O233 1.355 1_545 S
C222 O224 1.185 . S
C222 O225 1.355 . S
Dy223 O227 2.310 1_556 S
Dy223 O230 2.351 . S
Dy223 O232 2.398 1_566 S
Dy223 O233 2.491 1_556 S
Dy223 O234 2.403 . S
Dy223 O235 2.664 . S
Dy223 O237 2.326 1_556 S
O224 Dy220 2.398 . S
O224 C222 1.185 . S
O225 Dy220 2.491 . S
O225 C222 1.355 . S
O226 Dy220 2.403 . S
O226 C228 1.254 1_556 S
O227 Dy220 2.664 1_554 S
O227 Dy223 2.310 1_554 S
O227 C228 1.268 . S
C228 O226 1.254 1_554 S
C228 O227 1.268 . S
C229 O234 1.254 . S
C229 O235 1.268 . S
O230 Dy223 2.351 . S
O230 C238 1.249 . S
O231 Dy220 2.326 . S
O231 C238 1.267 . S
O232 C221 1.185 . S
O232 Dy223 2.398 1_544 S
O233 C221 1.355 1_565 S
O233 Dy223 2.491 1_554 S
O234 Dy223 2.403 . S
O234 C229 1.254 . S
O235 Dy220 2.310 . S
O235 Dy223 2.664 . S
O235 C229 1.268 . S
O236 Dy220 2.351 1_554 S
O236 C239 1.249 . S
O237 Dy223 2.326 1_554 S
O237 C239 1.267 . S
C238 O230 1.249 . S
C238 O231 1.267 . S
C239 O236 1.249 . S
C239 O237 1.267 . S
Dy240 O244 2.398 1_655 S
Dy240 O245 2.491 . S
Dy240 O246 2.403 . S
Dy240 O247 2.664 . S
Dy240 O251 2.326 . S
Dy240 O255 2.310 . S
Dy240 O256 2.351 . S
C241 O252 1.185 . S
C241 O253 1.355 . S
C242 O244 1.185 . S
C242 O245 1.355 1_455 S
Dy243 O247 2.310 . S
Dy243 O250 2.351 . S
Dy243 O252 2.398 . S
Dy243 O253 2.491 . S
Dy243 O254 2.403 . S
Dy243 O255 2.664 . S
Dy243 O257 2.326 . S
O244 Dy240 2.398 1_455 S
O244 C242 1.185 . S
O245 Dy240 2.491 . S
O245 C242 1.355 1_655 S
O246 Dy240 2.403 . S
O246 C248 1.254 . S
O247 Dy240 2.664 . S
O247 Dy243 2.310 . S
O247 C248 1.268 . S
C248 O246 1.254 . S
C248 O247 1.268 . S
C249 O254 1.254 . S
C249 O255 1.268 . S
O250 Dy243 2.351 . S
O250 C258 1.249 . S
O251 Dy240 2.326 . S
O251 C258 1.267 . S
O252 C241 1.185 . S
O252 Dy243 2.398 . S
O253 C241 1.355 . S
O253 Dy243 2.491 . S
O254 Dy243 2.403 . S
O254 C249 1.254 . S
O255 Dy240 2.310 . S
O255 Dy243 2.664 . S
O255 C249 1.268 . S
O256 Dy240 2.351 . S
O256 C259 1.249 . S
O257 Dy243 2.326 . S
O257 C259 1.267 . S
C258 O250 1.249 . S
C258 O251 1.267 . S
C259 O256 1.249 . S
C259 O257 1.267 . S
Dy260 O264 2.398 . S
Dy260 O265 2.491 . S
Dy260 O266 2.403 . S
Dy260 O267 2.664 . S
Dy260 O271 2.326 . S
Dy260 O275 2.310 . S
Dy260 O276 2.351 . S
C261 O272 1.185 . S
C261 O273 1.355 1_565 S
C262 O264 1.185 . S
C262 O265 1.355 . S
Dy263 O267 2.310 . S
Dy263 O270 2.351 . S
Dy263 O272 2.398 1_545 S
Dy263 O273 2.491 . S
Dy263 O274 2.403 . S
Dy263 O275 2.664 . S
Dy263 O277 2.326 . S
O264 Dy260 2.398 . S
O264 C262 1.185 . S
O265 Dy260 2.491 . S
O265 C262 1.355 . S
O266 Dy260 2.403 . S
O266 C268 1.254 . S
O267 Dy260 2.664 . S
O267 Dy263 2.310 . S
O267 C268 1.268 . S
C268 O266 1.254 . S
C268 O267 1.268 . S
C269 O274 1.254 . S
C269 O275 1.268 . S
O270 Dy263 2.351 . S
O270 C278 1.249 . S
O271 Dy260 2.326 . S
O271 C278 1.267 . S
O272 C261 1.185 . S
O272 Dy263 2.398 1_565 S
O273 C261 1.355 1_545 S
O273 Dy263 2.491 . S
O274 Dy263 2.403 . S
O274 C269 1.254 . S
O275 Dy260 2.310 . S
O275 Dy263 2.664 . S
O275 C269 1.268 . S
O276 Dy260 2.351 . S
O276 C279 1.249 . S
O277 Dy263 2.326 . S
O277 C279 1.267 . S
C278 O270 1.249 . S
C278 O271 1.267 . S
C279 O276 1.249 . S
C279 O277 1.267 . S
Dy280 O284 2.398 . S
Dy280 O285 2.491 . S
Dy280 O286 2.403 . S
Dy280 O287 2.664 . S
Dy280 O291 2.326 . S
Dy280 O295 2.310 . S
Dy280 O296 2.351 . S
C281 O292 1.185 . S
C281 O293 1.355 . S
C282 O284 1.185 . S
C282 O285 1.355 . S
Dy283 O287 2.310 . S
Dy283 O290 2.351 . S
Dy283 O292 2.398 . S
Dy283 O293 2.491 . S
Dy283 O294 2.403 . S
Dy283 O295 2.664 . S
Dy283 O297 2.326 . S
O284 Dy280 2.398 . S
O284 C282 1.185 . S
O285 Dy280 2.491 . S
O285 C282 1.355 . S
O286 Dy280 2.403 . S
O286 C288 1.254 . S
O287 Dy280 2.664 . S
O287 Dy283 2.310 . S
O287 C288 1.268 . S
C288 O286 1.254 . S
C288 O287 1.268 . S
C289 O294 1.254 . S
C289 O295 1.268 . S
O290 Dy283 2.351 . S
O290 C298 1.249 . S
O291 Dy280 2.326 . S
O291 C298 1.267 . S
O292 C281 1.185 . S
O292 Dy283 2.398 . S
O293 C281 1.355 . S
O293 Dy283 2.491 . S
O294 Dy283 2.403 . S
O294 C289 1.254 . S
O295 Dy280 2.310 . S
O295 Dy283 2.664 . S
O295 C289 1.268 . S
O296 Dy280 2.351 . S
O296 C299 1.249 . S
O297 Dy283 2.326 . S
O297 C299 1.267 . S
C298 O290 1.249 . S
C298 O291 1.267 . S
C299 O296 1.249 . S
C299 O297 1.267 . S
Dy300 O304 2.398 . S
Dy300 O305 2.491 . S
Dy300 O306 2.403 . S
Dy300 O307 2.664 1_554 S
Dy300 O311 2.326 . S
Dy300 O315 2.310 . S
Dy300 O316 2.351 1_554 S
C301 O312 1.185 . S
C301 O313 1.355 1_545 S
C302 O304 1.185 . S
C302 O305 1.355 . S
Dy303 O307 2.310 1_554 S
Dy303 O310 2.351 . S
Dy303 O312 2.398 1_564 S
Dy303 O313 2.491 1_554 S
Dy303 O314 2.403 . S
Dy303 O315 2.664 . S
Dy303 O317 2.326 1_554 S
O304 Dy300 2.398 . S
O304 C302 1.185 . S
O305 Dy300 2.491 . S
O305 C302 1.355 . S
O306 Dy300 2.403 . S
O306 C308 1.254 1_554 S
O307 Dy300 2.664 1_556 S
O307 Dy303 2.310 1_556 S
O307 C308 1.268 . S
C308 O306 1.254 1_556 S
C308 O307 1.268 . S
C309 O314 1.254 . S
C309 O315 1.268 . S
O310 Dy303 2.351 . S
O310 C318 1.249 . S
O311 Dy300 2.326 . S
O311 C318 1.267 . S
O312 C301 1.185 . S
O312 Dy303 2.398 1_546 S
O313 C301 1.355 1_565 S
O313 Dy303 2.491 1_556 S
O314 Dy303 2.403 . S
O314 C309 1.254 . S
O315 Dy300 2.310 . S
O315 Dy303 2.664 . S
O315 C309 1.268 . S
O316 Dy300 2.351 1_556 S
O316 C319 1.249 . S
O317 Dy303 2.326 1_556 S
O317 C319 1.267 . S
C318 O310 1.249 . S
C318 O311 1.267 . S
C319 O316 1.249 . S
C319 O317 1.267 . S
Dy320 O324 2.398 . S
Dy320 O325 2.491 . S
Dy320 O326 2.403 . S
Dy320 O327 2.664 . S
Dy320 O331 2.326 . S
Dy320 O335 2.310 . S
Dy320 O336 2.351 . S
C321 O332 1.185 . S
C321 O333 1.355 . S
C322 O324 1.185 . S
C322 O325 1.355 . S
Dy323 O327 2.310 . S
Dy323 O330 2.351 . S
Dy323 O332 2.398 . S
Dy323 O333 2.491 . S
Dy323 O334 2.403 . S
Dy323 O335 2.664 . S
Dy323 O337 2.326 . S
O324 Dy320 2.398 . S
O324 C322 1.185 . S
O325 Dy320 2.491 . S
O325 C322 1.355 . S
O326 Dy320 2.403 . S
O326 C328 1.254 . S
O327 Dy320 2.664 . S
O327 Dy323 2.310 . S
O327 C328 1.268 . S
C328 O326 1.254 . S
C328 O327 1.268 . S
C329 O334 1.254 . S
C329 O335 1.268 . S
O330 Dy323 2.351 . S
O330 C338 1.249 . S
O331 Dy320 2.326 . S
O331 C338 1.267 . S
O332 C321 1.185 . S
O332 Dy323 2.398 . S
O333 C321 1.355 . S
O333 Dy323 2.491 . S
O334 Dy323 2.403 . S
O334 C329 1.254 . S
O335 Dy320 2.310 . S
O335 Dy323 2.664 . S
O335 C329 1.268 . S
O336 Dy320 2.351 . S
O336 C339 1.249 . S
O337 Dy323 2.326 . S
O337 C339 1.267 . S
C338 O330 1.249 . S
C338 O331 1.267 . S
C339 O336 1.249 . S
C339 O337 1.267 . S
Dy340 O344 2.398 1_554 S
Dy340 O345 2.491 1_554 S
Dy340 O346 2.403 . S
Dy340 O347 2.664 . S
Dy340 O351 2.326 1_554 S
Dy340 O355 2.310 1_554 S
Dy340 O356 2.351 . S
C341 O352 1.185 . S
C341 O353 1.355 . S
C342 O344 1.185 . S
C342 O345 1.355 . S
Dy343 O347 2.310 . S
Dy343 O350 2.351 1_554 S
Dy343 O352 2.398 . S
Dy343 O353 2.491 . S
Dy343 O354 2.403 . S
Dy343 O355 2.664 1_554 S
Dy343 O357 2.326 . S
O344 Dy340 2.398 1_556 S
O344 C342 1.185 . S
O345 Dy340 2.491 1_556 S
O345 C342 1.355 . S
O346 Dy340 2.403 . S
O346 C348 1.254 . S
O347 Dy340 2.664 . S
O347 Dy343 2.310 . S
O347 C348 1.268 . S
C348 O346 1.254 . S
C348 O347 1.268 . S
C349 O354 1.254 1_556 S
C349 O355 1.268 . S
O350 Dy343 2.351 1_556 S
O350 C358 1.249 . S
O351 Dy340 2.326 1_556 S
O351 C358 1.267 . S
O352 C341 1.185 . S
O352 Dy343 2.398 . S
O353 C341 1.355 . S
O353 Dy343 2.491 . S
O354 Dy343 2.403 . S
O354 C349 1.254 1_554 S
O355 Dy340 2.310 1_556 S
O355 Dy343 2.664 1_556 S
O355 C349 1.268 . S
O356 Dy340 2.351 . S
O356 C359 1.249 . S
O357 Dy343 2.326 . S
O357 C359 1.267 . S
C358 O350 1.249 . S
C358 O351 1.267 . S
C359 O356 1.249 . S
C359 O357 1.267 . S
Dy360 O364 2.398 . S
Dy360 O365 2.491 . S
Dy360 O366 2.403 . S
Dy360 O367 2.664 . S
Dy360 O371 2.326 . S
Dy360 O375 2.310 . S
Dy360 O376 2.351 . S
C361 O372 1.185 . S
C361 O373 1.355 1_455 S
C362 O364 1.185 . S
C362 O365 1.355 . S
Dy363 O367 2.310 . S
Dy363 O370 2.351 . S
Dy363 O372 2.398 1_655 S
Dy363 O373 2.491 . S
Dy363 O374 2.403 . S
Dy363 O375 2.664 . S
Dy363 O377 2.326 . S
O364 Dy360 2.398 . S
O364 C362 1.185 . S
O365 Dy360 2.491 . S
O365 C362 1.355 . S
O366 Dy360 2.403 . S
O366 C368 1.254 . S
O367 Dy360 2.664 . S
O367 Dy363 2.310 . S
O367 C368 1.268 . S
C368 O366 1.254 . S
C368 O367 1.268 . S
C369 O374 1.254 . S
C369 O375 1.268 . S
O370 Dy363 2.351 . S
O370 C378 1.249 . S
O371 Dy360 2.326 . S
O371 C378 1.267 . S
O372 C361 1.185 . S
O372 Dy363 2.398 1_455 S
O373 C361 1.355 1_655 S
O373 Dy363 2.491 . S
O374 Dy363 2.403 . S
O374 C369 1.254 . S
O375 Dy360 2.310 . S
O375 Dy363 2.664 . S
O375 C369 1.268 . S
O376 Dy360 2.351 . S
O376 C379 1.249 . S
O377 Dy363 2.326 . S
O377 C379 1.267 . S
C378 O370 1.249 . S
C378 O371 1.267 . S
C379 O376 1.249 . S
C379 O377 1.267 . S
Dy380 O384 2.398 . S
Dy380 O385 2.491 . S
Dy380 O386 2.403 . S
Dy380 O387 2.664 . S
Dy380 O391 2.326 . S
Dy380 O395 2.310 . S
Dy380 O396 2.351 . S
C381 O392 1.185 . S
C381 O393 1.355 . S
C382 O384 1.185 . S
C382 O385 1.355 . S
Dy383 O387 2.310 . S
Dy383 O390 2.351 . S
Dy383 O392 2.398 . S
Dy383 O393 2.491 . S
Dy383 O394 2.403 . S
Dy383 O395 2.664 . S
Dy383 O397 2.326 . S
O384 Dy380 2.398 . S
O384 C382 1.185 . S
O385 Dy380 2.491 . S
O385 C382 1.355 . S
O386 Dy380 2.403 . S
O386 C388 1.254 . S
O387 Dy380 2.664 . S
O387 Dy383 2.310 . S
O387 C388 1.268 . S
C388 O386 1.254 . S
C388 O387 1.268 . S
C389 O394 1.254 . S
C389 O395 1.268 . S
O390 Dy383 2.351 . S
O390 C398 1.249 . S
O391 Dy380 2.326 . S
O391 C398 1.267 . S
O392 C381 1.185 . S
O392 Dy383 2.398 . S
O393 C381 1.355 . S
O393 Dy383 2.491 . S
O394 Dy383 2.403 . S
O394 C389 1.254 . S
O395 Dy380 2.310 . S
O395 Dy383 2.664 . S
O395 C389 1.268 . S
O396 Dy380 2.351 . S
O396 C399 1.249 . S
O397 Dy383 2.326 . S
O397 C399 1.267 . S
C398 O390 1.249 . S
C398 O391 1.267 . S
C399 O396 1.249 . S
C399 O397 1.267 . S
Dy400 O404 2.398 . S
Dy400 O405 2.491 . S
Dy400 O406 2.403 . S
Dy400 O407 2.664 . S
Dy400 O411 2.326 . S
Dy400 O415 2.310 . S
Dy400 O416 2.351 . S
C401 O412 1.185 . S
C401 O413 1.355 . S
C402 O404 1.185 . S
C402 O405 1.355 . S
Dy403 O407 2.310 . S
Dy403 O410 2.351 . S
Dy403 O412 2.398 . S
Dy403 O413 2.491 . S
Dy403 O414 2.403 . S
Dy403 O415 2.664 . S
Dy403 O417 2.326 . S
O404 Dy400 2.398 . S
O404 C402 1.185 . S
O405 Dy400 2.491 . S
O405 C402 1.355 . S
O406 Dy400 2.403 . S
O406 C408 1.254 . S
O407 Dy400 2.664 . S
O407 Dy403 2.310 . S
O407 C408 1.268 . S
C408 O406 1.254 . S
C408 O407 1.268 . S
C409 O414 1.254 . S
C409 O415 1.268 . S
O410 Dy403 2.351 . S
O410 C418 1.249 . S
O411 Dy400 2.326 . S
O411 C418 1.267 . S
O412 C401 1.185 . S
O412 Dy403 2.398 . S
O413 C401 1.355 . S
O413 Dy403 2.491 . S
O414 Dy403 2.403 . S
O414 C409 1.254 . S
O415 Dy400 2.310 . S
O415 Dy403 2.664 . S
O415 C409 1.268 . S
O416 Dy400 2.351 . S
O416 C419 1.249 . S
O417 Dy403 2.326 . S
O417 C419 1.267 . S
C418 O410 1.249 . S
C418 O411 1.267 . S
C419 O416 1.249 . S
C419 O417 1.267 . S
Dy420 O424 2.398 1_556 S
Dy420 O425 2.491 1_556 S
Dy420 O426 2.403 . S
Dy420 O427 2.664 . S
Dy420 O431 2.326 1_556 S
Dy420 O435 2.310 1_556 S
Dy420 O436 2.351 . S
C421 O432 1.185 . S
C421 O433 1.355 . S
C422 O424 1.185 . S
C422 O425 1.355 . S
Dy423 O427 2.310 . S
Dy423 O430 2.351 1_556 S
Dy423 O432 2.398 . S
Dy423 O433 2.491 . S
Dy423 O434 2.403 . S
Dy423 O435 2.664 1_556 S
Dy423 O437 2.326 . S
O424 Dy420 2.398 1_554 S
O424 C422 1.185 . S
O425 Dy420 2.491 1_554 S
O425 C422 1.355 . S
O426 Dy420 2.403 . S
O426 C428 1.254 . S
O427 Dy420 2.664 . S
O427 Dy423 2.310 . S
O427 C428 1.268 . S
C428 O426 1.254 . S
C428 O427 1.268 . S
C429 O434 1.254 1_554 S
C429 O435 1.268 . S
O430 Dy423 2.351 1_554 S
O430 C438 1.249 . S
O431 Dy420 2.326 1_554 S
O431 C438 1.267 . S
O432 C421 1.185 . S
O432 Dy423 2.398 . S
O433 C421 1.355 . S
O433 Dy423 2.491 . S
O434 Dy423 2.403 . S
O434 C429 1.254 1_556 S
O435 Dy420 2.310 1_554 S
O435 Dy423 2.664 1_554 S
O435 C429 1.268 . S
O436 Dy420 2.351 . S
O436 C439 1.249 . S
O437 Dy423 2.326 . S
O437 C439 1.267 . S
C438 O430 1.249 . S
C438 O431 1.267 . S
C439 O436 1.249 . S
C439 O437 1.267 . S
Dy440 O444 2.398 . S
Dy440 O445 2.491 . S
Dy440 O446 2.403 . S
Dy440 O447 2.664 . S
Dy440 O451 2.326 . S
Dy440 O455 2.310 . S
Dy440 O456 2.351 . S
C441 O452 1.185 . S
C441 O453 1.355 1_455 S
C442 O444 1.185 . S
C442 O445 1.355 . S
Dy443 O447 2.310 . S
Dy443 O450 2.351 . S
Dy443 O452 2.398 1_655 S
Dy443 O453 2.491 . S
Dy443 O454 2.403 . S
Dy443 O455 2.664 . S
Dy443 O457 2.326 . S
O444 Dy440 2.398 . S
O444 C442 1.185 . S
O445 Dy440 2.491 . S
O445 C442 1.355 . S
O446 Dy440 2.403 . S
O446 C448 1.254 . S
O447 Dy440 2.664 . S
O447 Dy443 2.310 . S
O447 C448 1.268 . S
C448 O446 1.254 . S
C448 O447 1.268 . S
C449 O454 1.254 . S
C449 O455 1.268 . S
O450 Dy443 2.351 . S
O450 C458 1.249 . S
O451 Dy440 2.326 . S
O451 C458 1.267 . S
O452 C441 1.185 . S
O452 Dy443 2.398 1_455 S
O453 C441 1.355 1_655 S
O453 Dy443 2.491 . S
O454 Dy443 2.403 . S
O454 C449 1.254 . S
O455 Dy440 2.310 . S
O455 Dy443 2.664 . S
O455 C449 1.268 . S
O456 Dy440 2.351 . S
O456 C459 1.249 . S
O457 Dy443 2.326 . S
O457 C459 1.267 . S
C458 O450 1.249 . S
C458 O451 1.267 . S
C459 O456 1.249 . S
C459 O457 1.267 . S
Dy460 O464 2.398 . S
Dy460 O465 2.491 . S
Dy460 O466 2.403 . S
Dy460 O467 2.664 . S
Dy460 O471 2.326 . S
Dy460 O475 2.310 . S
Dy460 O476 2.351 . S
C461 O472 1.185 . S
C461 O473 1.355 . S
C462 O464 1.185 . S
C462 O465 1.355 . S
Dy463 O467 2.310 . S
Dy463 O470 2.351 . S
Dy463 O472 2.398 . S
Dy463 O473 2.491 . S
Dy463 O474 2.403 . S
Dy463 O475 2.664 . S
Dy463 O477 2.326 . S
O464 Dy460 2.398 . S
O464 C462 1.185 . S
O465 Dy460 2.491 . S
O465 C462 1.355 . S
O466 Dy460 2.403 . S
O466 C468 1.254 . S
O467 Dy460 2.664 . S
O467 Dy463 2.310 . S
O467 C468 1.268 . S
C468 O466 1.254 . S
C468 O467 1.268 . S
C469 O474 1.254 . S
C469 O475 1.268 . S
O470 Dy463 2.351 . S
O470 C478 1.249 . S
O471 Dy460 2.326 . S
O471 C478 1.267 . S
O472 C461 1.185 . S
O472 Dy463 2.398 . S
O473 C461 1.355 . S
O473 Dy463 2.491 . S
O474 Dy463 2.403 . S
O474 C469 1.254 . S
O475 Dy460 2.310 . S
O475 Dy463 2.664 . S
O475 C469 1.268 . S
O476 Dy460 2.351 . S
O476 C479 1.249 . S
O477 Dy463 2.326 . S
O477 C479 1.267 . S
C478 O470 1.249 . S
C478 O471 1.267 . S
C479 O476 1.249 . S
C479 O477 1.267 . S
Dy480 O484 2.398 . S
Dy480 O485 2.491 . S
Dy480 O486 2.403 . S
Dy480 O487 2.664 . S
Dy480 O491 2.326 . S
Dy480 O495 2.310 . S
Dy480 O496 2.351 . S
C481 O492 1.185 . S
C481 O493 1.355 . S
C482 O484 1.185 . S
C482 O485 1.355 . S
Dy483 O487 2.310 . S
Dy483 O490 2.351 . S
Dy483 O492 2.398 . S
Dy483 O493 2.491 . S
Dy483 O494 2.403 . S
Dy483 O495 2.664 . S
Dy483 O497 2.326 . S
O484 Dy480 2.398 . S
O484 C482 1.185 . S
O485 Dy480 2.491 . S
O485 C482 1.355 . S
O486 Dy480 2.403 . S
O486 C488 1.254 . S
O487 Dy480 2.664 . S
O487 Dy483 2.310 . S
O487 C488 1.268 . S
C488 O486 1.254 . S
C488 O487 1.268 . S
C489 O494 1.254 . S
C489 O495 1.268 . S
O490 Dy483 2.351 . S
O490 C498 1.249 . S
O491 Dy480 2.326 . S
O491 C498 1.267 . S
O492 C481 1.185 . S
O492 Dy483 2.398 . S
O493 C481 1.355 . S
O493 Dy483 2.491 . S
O494 Dy483 2.403 . S
O494 C489 1.254 . S
O495 Dy480 2.310 . S
O495 Dy483 2.664 . S
O495 C489 1.268 . S
O496 Dy480 2.351 . S
O496 C499 1.249 . S
O497 Dy483 2.326 . S
O497 C499 1.267 . S
C498 O490 1.249 . S
C498 O491 1.267 . S
C499 O496 1.249 . S
C499 O497 1.267 . S
Dy500 O504 2.398 . S
Dy500 O505 2.491 . S
Dy500 O506 2.403 . S
Dy500 O507 2.664 1_556 S
Dy500 O511 2.326 . S
Dy500 O515 2.310 . S
Dy500 O516 2.351 1_556 S
C501 O512 1.185 . S
C501 O513 1.355 . S
C502 O504 1.185 . S
C502 O505 1.355 . S
Dy503 O507 2.310 1_556 S
Dy503 O510 2.351 . S
Dy503 O512 2.398 1_556 S
Dy503 O513 2.491 1_556 S
Dy503 O514 2.403 . S
Dy503 O515 2.664 . S
Dy503 O517 2.326 1_556 S
O504 Dy500 2.398 . S
O504 C502 1.185 . S
O505 Dy500 2.491 . S
O505 C502 1.355 . S
O506 Dy500 2.403 . S
O506 C508 1.254 1_556 S
O507 Dy500 2.664 1_554 S
O507 Dy503 2.310 1_554 S
O507 C508 1.268 . S
C508 O506 1.254 1_554 S
C508 O507 1.268 . S
C509 O514 1.254 . S
C509 O515 1.268 . S
O510 Dy503 2.351 . S
O510 C518 1.249 . S
O511 Dy500 2.326 . S
O511 C518 1.267 . S
O512 C501 1.185 . S
O512 Dy503 2.398 1_554 S
O513 C501 1.355 . S
O513 Dy503 2.491 1_554 S
O514 Dy503 2.403 . S
O514 C509 1.254 . S
O515 Dy500 2.310 . S
O515 Dy503 2.664 . S
O515 C509 1.268 . S
O516 Dy500 2.351 1_554 S
O516 C519 1.249 . S
O517 Dy503 2.326 1_554 S
O517 C519 1.267 . S
C518 O510 1.249 . S
C518 O511 1.267 . S
C519 O516 1.249 . S
C519 O517 1.267 . S
Dy520 O524 2.398 1_455 S
Dy520 O525 2.491 . S
Dy520 O526 2.403 . S
Dy520 O527 2.664 . S
Dy520 O531 2.326 . S
Dy520 O535 2.310 . S
Dy520 O536 2.351 . S
C521 O532 1.185 . S
C521 O533 1.355 . S
C522 O524 1.185 . S
C522 O525 1.355 1_655 S
Dy523 O527 2.310 . S
Dy523 O530 2.351 . S
Dy523 O532 2.398 . S
Dy523 O533 2.491 . S
Dy523 O534 2.403 . S
Dy523 O535 2.664 . S
Dy523 O537 2.326 . S
O524 Dy520 2.398 1_655 S
O524 C522 1.185 . S
O525 Dy520 2.491 . S
O525 C522 1.355 1_455 S
O526 Dy520 2.403 . S
O526 C528 1.254 . S
O527 Dy520 2.664 . S
O527 Dy523 2.310 . S
O527 C528 1.268 . S
C528 O526 1.254 . S
C528 O527 1.268 . S
C529 O534 1.254 . S
C529 O535 1.268 . S
O530 Dy523 2.351 . S
O530 C538 1.249 . S
O531 Dy520 2.326 . S
O531 C538 1.267 . S
O532 C521 1.185 . S
O532 Dy523 2.398 . S
O533 C521 1.355 . S
O533 Dy523 2.491 . S
O534 Dy523 2.403 . S
O534 C529 1.254 . S
O535 Dy520 2.310 . S
O535 Dy523 2.664 . S
O535 C529 1.268 . S
O536 Dy520 2.351 . S
O536 C539 1.249 . S
O537 Dy523 2.326 . S
O537 C539 1.267 . S
C538 O530 1.249 . S
C538 O531 1.267 . S
C539 O536 1.249 . S
C539 O537 1.267 . S
Dy540 O544 2.398 . S
Dy540 O545 2.491 . S
Dy540 O546 2.403 . S
Dy540 O547 2.664 . S
Dy540 O551 2.326 . S
Dy540 O555 2.310 . S
Dy540 O556 2.351 . S
C541 O552 1.185 . S
C541 O553 1.355 . S
C542 O544 1.185 . S
C542 O545 1.355 . S
Dy543 O547 2.310 . S
Dy543 O550 2.351 . S
Dy543 O552 2.398 . S
Dy543 O553 2.491 . S
Dy543 O554 2.403 . S
Dy543 O555 2.664 . S
Dy543 O557 2.326 . S
O544 Dy540 2.398 . S
O544 C542 1.185 . S
O545 Dy540 2.491 . S
O545 C542 1.355 . S
O546 Dy540 2.403 . S
O546 C548 1.254 . S
O547 Dy540 2.664 . S
O547 Dy543 2.310 . S
O547 C548 1.268 . S
C548 O546 1.254 . S
C548 O547 1.268 . S
C549 O554 1.254 . S
C549 O555 1.268 . S
O550 Dy543 2.351 . S
O550 C558 1.249 . S
O551 Dy540 2.326 . S
O551 C558 1.267 . S
O552 C541 1.185 . S
O552 Dy543 2.398 . S
O553 C541 1.355 . S
O553 Dy543 2.491 . S
O554 Dy543 2.403 . S
O554 C549 1.254 . S
O555 Dy540 2.310 . S
O555 Dy543 2.664 . S
O555 C549 1.268 . S
O556 Dy540 2.351 . S
O556 C559 1.249 . S
O557 Dy543 2.326 . S
O557 C559 1.267 . S
C558 O550 1.249 . S
C558 O551 1.267 . S
C559 O556 1.249 . S
C559 O557 1.267 . S
Dy560 O564 2.398 . S
Dy560 O565 2.491 . S
Dy560 O566 2.403 . S
Dy560 O567 2.664 . S
Dy560 O571 2.326 . S
Dy560 O575 2.310 . S
Dy560 O576 2.351 . S
C561 O572 1.185 . S
C561 O573 1.355 . S
C562 O564 1.185 . S
C562 O565 1.355 . S
Dy563 O567 2.310 . S
Dy563 O570 2.351 . S
Dy563 O572 2.398 . S
Dy563 O573 2.491 . S
Dy563 O574 2.403 . S
Dy563 O575 2.664 . S
Dy563 O577 2.326 . S
O564 Dy560 2.398 . S
O564 C562 1.185 . S
O565 Dy560 2.491 . S
O565 C562 1.355 . S
O566 Dy560 2.403 . S
O566 C568 1.254 . S
O567 Dy560 2.664 . S
O567 Dy563 2.310 . S
O567 C568 1.268 . S
C568 O566 1.254 . S
C568 O567 1.268 . S
C569 O574 1.254 . S
C569 O575 1.268 . S
O570 Dy563 2.351 . S
O570 C578 1.249 . S
O571 Dy560 2.326 . S
O571 C578 1.267 . S
O572 C561 1.185 . S
O572 Dy563 2.398 . S
O573 C561 1.355 . S
O573 Dy563 2.491 . S
O574 Dy563 2.403 . S
O574 C569 1.254 . S
O575 Dy560 2.310 . S
O575 Dy563 2.664 . S
O575 C569 1.268 . S
O576 Dy560 2.351 . S
O576 C579 1.249 . S
O577 Dy563 2.326 . S
O577 C579 1.267 . S
C578 O570 1.249 . S
C578 O571 1.267 . S
C579 O576 1.249 . S
C579 O577 1.267 . S
Dy580 O584 2.398 . S
Dy580 O585 2.491 . S
Dy580 O586 2.403 . S
Dy580 O587 2.664 1_554 S
Dy580 O591 2.326 . S
Dy580 O595 2.310 . S
Dy580 O596 2.351 1_554 S
C581 O592 1.185 . S
C581 O593 1.355 . S
C582 O584 1.185 . S
C582 O585 1.355 . S
Dy583 O587 2.310 1_554 S
Dy583 O590 2.351 . S
Dy583 O592 2.398 1_554 S
Dy583 O593 2.491 1_554 S
Dy583 O594 2.403 . S
Dy583 O595 2.664 . S
Dy583 O597 2.326 1_554 S
O584 Dy580 2.398 . S
O584 C582 1.185 . S
O585 Dy580 2.491 . S
O585 C582 1.355 . S
O586 Dy580 2.403 . S
O586 C588 1.254 1_554 S
O587 Dy580 2.664 1_556 S
O587 Dy583 2.310 1_556 S
O587 C588 1.268 . S
C588 O586 1.254 1_556 S
C588 O587 1.268 . S
C589 O594 1.254 . S
C589 O595 1.268 . S
O590 Dy583 2.351 . S
O590 C598 1.249 . S
O591 Dy580 2.326 . S
O591 C598 1.267 . S
O592 C581 1.185 . S
O592 Dy583 2.398 1_556 S
O593 C581 1.355 . S
O593 Dy583 2.491 1_556 S
O594 Dy583 2.403 . S
O594 C589 1.254 . S
O595 Dy580 2.310 . S
O595 Dy583 2.664 . S
O595 C589 1.268 . S
O596 Dy580 2.351 1_556 S
O596 C599 1.249 . S
O597 Dy583 2.326 1_556 S
O597 C599 1.267 . S
C598 O590 1.249 . S
C598 O591 1.267 . S
C599 O596 1.249 . S
C599 O597 1.267 . S
Dy600 O604 2.398 1_455 S
Dy600 O605 2.491 . S
Dy600 O606 2.403 . S
Dy600 O607 2.664 . S
Dy600 O611 2.326 . S
Dy600 O615 2.310 . S
Dy600 O616 2.351 . S
C601 O612 1.185 . S
C601 O613 1.355 . S
C602 O604 1.185 . S
C602 O605 1.355 1_655 S
Dy603 O607 2.310 . S
Dy603 O610 2.351 . S
Dy603 O612 2.398 . S
Dy603 O613 2.491 . S
Dy603 O614 2.403 . S
Dy603 O615 2.664 . S
Dy603 O617 2.326 . S
O604 Dy600 2.398 1_655 S
O604 C602 1.185 . S
O605 Dy600 2.491 . S
O605 C602 1.355 1_455 S
O606 Dy600 2.403 . S
O606 C608 1.254 . S
O607 Dy600 2.664 . S
O607 Dy603 2.310 . S
O607 C608 1.268 . S
C608 O606 1.254 . S
C608 O607 1.268 . S
C609 O614 1.254 . S
C609 O615 1.268 . S
O610 Dy603 2.351 . S
O610 C618 1.249 . S
O611 Dy600 2.326 . S
O611 C618 1.267 . S
O612 C601 1.185 . S
O612 Dy603 2.398 . S
O613 C601 1.355 . S
O613 Dy603 2.491 . S
O614 Dy603 2.403 . S
O614 C609 1.254 . S
O615 Dy600 2.310 . S
O615 Dy603 2.664 . S
O615 C609 1.268 . S
O616 Dy600 2.351 . S
O616 C619 1.249 . S
O617 Dy603 2.326 . S
O617 C619 1.267 . S
C618 O610 1.249 . S
C618 O611 1.267 . S
C619 O616 1.249 . S
C619 O617 1.267 . S
Dy620 O624 2.398 . S
Dy620 O625 2.491 . S
Dy620 O626 2.403 . S
Dy620 O627 2.664 . S
Dy620 O631 2.326 . S
Dy620 O635 2.310 . S
Dy620 O636 2.351 . S
C621 O632 1.185 . S
C621 O633 1.355 . S
C622 O624 1.185 . S
C622 O625 1.355 . S
Dy623 O627 2.310 . S
Dy623 O630 2.351 . S
Dy623 O632 2.398 . S
Dy623 O633 2.491 . S
Dy623 O634 2.403 . S
Dy623 O635 2.664 . S
Dy623 O637 2.326 . S
O624 Dy620 2.398 . S
O624 C622 1.185 . S
O625 Dy620 2.491 . S
O625 C622 1.355 . S
O626 Dy620 2.403 . S
O626 C628 1.254 . S
O627 Dy620 2.664 . S
O627 Dy623 2.310 . S
O627 C628 1.268 . S
C628 O626 1.254 . S
C628 O627 1.268 . S
C629 O634 1.254 . S
C629 O635 1.268 . S
O630 Dy623 2.351 . S
O630 C638 1.249 . S
O631 Dy620 2.326 . S
O631 C638 1.267 . S
O632 C621 1.185 . S
O632 Dy623 2.398 . S
O633 C621 1.355 . S
O633 Dy623 2.491 . S
O634 Dy623 2.403 . S
O634 C629 1.254 . S
O635 Dy620 2.310 . S
O635 Dy623 2.664 . S
O635 C629 1.268 . S
O636 Dy620 2.351 . S
O636 C639 1.249 . S
O637 Dy623 2.326 . S
O637 C639 1.267 . S
C638 O630 1.249 . S
C638 O631 1.267 . S
C639 O636 1.249 . S
C639 O637 1.267 . S
C2 C79 1.310 . S
C19 C22 1.310 . S
C42 C39 1.310 . S
C59 C62 1.310 . S
C119 C82 1.310 . S
C102 C139 1.310 . S
C159 C122 1.310 . S
C99 C142 1.310 . S
C161 C238 1.310 . S
C181 C178 1.310 . S
C201 C198 1.310 . S
C221 C218 1.310 . S
C241 C278 1.310 . S
C261 C298 1.310 . S
C318 C281 1.310 . S
C258 C301 1.310 . S
C322 C399 1.310 . S
C339 C342 1.310 . S
C359 C362 1.310 . S
C382 C379 1.310 . S
C402 C439 1.310 . S
C459 C422 1.310 . S
C442 C479 1.310 . S
C419 C462 1.310 . S
C558 C481 1.310 . S
C498 C501 1.310 . S
C521 C518 1.310 . S
C538 C541 1.310 . S
C598 C561 1.310 . S
C618 C581 1.310 . S
C638 C601 1.310 . S
C621 C578 1.310 . S
C542 C8 1.430 . S
C28 C162 1.430 . S
C48 C502 1.430 . S
C68 C202 1.430 . S
C88 C582 1.430 . S
C282 C108 1.430 . S
C622 C128 1.430 . S
C148 C242 1.430 . S
C169 C381 1.430 . S
C1 C189 1.430 . S
C341 C209 1.430 . S
C41 C229 1.430 . S
C421 C249 1.430 . S
C121 C269 1.430 . S
C289 C461 1.430 . S
C309 C81 1.430 . S
C328 C222 1.430 . S
C348 C482 1.430 . S
C368 C182 1.430 . S
C388 C522 1.430 . S
C408 C262 1.430 . S
C428 C602 1.430 . S
C302 C448 1.430 . S
C468 C562 1.430 . S
C61 C489 1.430 . S
C321 C509 1.430 . S
C21 C529 1.430 . S
C361 C549 1.430 . S
C101 C569 1.430 . S
C589 C441 1.430 . S
C609 C141 1.430 . S
C401 C629 1.430 . S
C9 C89 0.870 1_545 S
C29 C109 0.869 . S
C49 C129 0.870 1_565 S
C149 C69 0.869 1_554 S
C248 C168 0.869 1_545 S
C268 C188 0.869 . S
C208 C288 0.869 1_545 S
C228 C308 0.869 1_554 S
C329 C409 0.869 . S
C429 C349 0.869 1_554 S
C449 C369 0.869 . S
C469 C389 0.869 . S
C568 C488 0.869 . S
C508 C588 0.869 1_554 S
C608 C528 0.869 . S
C548 C628 0.869 . S
C158 C18 2.507 . S
C38 C98 2.507 . S
C58 C118 2.507 . S
C138 C78 2.507 . S
C179 C319 2.507 . S
C259 C199 2.507 . S
C279 C219 2.507 . S
C239 C299 2.507 . S
C338 C478 2.507 . S
C418 C358 2.507 . S
C438 C378 2.507 . S
C458 C398 2.507 . S
C499 C639 2.507 . S
C579 C519 2.507 . S
C539 C599 2.507 . S
C619 C559 2.507 . S
