# Generated by pormake.
# Topology whk, (6)-cn, num edge types: 1
# Building blocks:
#     Node 0, Type 0, BuildingBlock: UKALOJ_clean_sbu_0, # of connection points: 6
#     Node 1, Type 0, BuildingBlock: UKALOJ_clean_sbu_0, # of connection points: 6
#     Node 2, Type 0, BuildingBlock: UKALOJ_clean_sbu_0, # of connection points: 6
#     Node 3, Type 0, BuildingBlock: UKALOJ_clean_sbu_0, # of connection points: 6
#     Node 4, Type 0, BuildingBlock: UKALOJ_clean_sbu_0, # of connection points: 6
#     Node 5, Type 0, BuildingBlock: UKALOJ_clean_sbu_0, # of connection points: 6
#     Node 6, Type 0, BuildingBlock: UKALOJ_clean_sbu_0, # of connection points: 6
#     Node 7, Type 0, BuildingBlock: UKALOJ_clean_sbu_0, # of connection points: 6
#     Node 8, Type 0, BuildingBlock: UKALOJ_clean_sbu_0, # of connection points: 6
#     Node 9, Type 0, BuildingBlock: UKALOJ_clean_sbu_0, # of connection points: 6
#     Node 10, Type 0, BuildingBlock: UKALOJ_clean_sbu_0, # of connection points: 6
#     Node 11, Type 0, BuildingBlock: UKALOJ_clean_sbu_0, # of connection points: 6
#     Node 12, Type 0, BuildingBlock: UKALOJ_clean_sbu_0, # of connection points: 6
#     Node 13, Type 0, BuildingBlock: UKALOJ_clean_sbu_0, # of connection points: 6
#     Node 14, Type 0, BuildingBlock: UKALOJ_clean_sbu_0, # of connection points: 6
#     Node 15, Type 0, BuildingBlock: UKALOJ_clean_sbu_0, # of connection points: 6
#     Edge 16, Type (0, 0), BuildingBlock: AJUNOK_clean_linker_0, # of connection points: 2
#     Edge 17, Type (0, 0), BuildingBlock: AJUNOK_clean_linker_0, # of connection points: 2
#     Edge 18, Type (0, 0), BuildingBlock: AJUNOK_clean_linker_0, # of connection points: 2
#     Edge 19, Type (0, 0), BuildingBlock: AJUNOK_clean_linker_0, # of connection points: 2
#     Edge 20, Type (0, 0), BuildingBlock: AJUNOK_clean_linker_0, # of connection points: 2
#     Edge 21, Type (0, 0), BuildingBlock: AJUNOK_clean_linker_0, # of connection points: 2
#     Edge 22, Type (0, 0), BuildingBlock: AJUNOK_clean_linker_0, # of connection points: 2
#     Edge 23, Type (0, 0), BuildingBlock: AJUNOK_clean_linker_0, # of connection points: 2
#     Edge 24, Type (0, 0), BuildingBlock: AJUNOK_clean_linker_0, # of connection points: 2
#     Edge 25, Type (0, 0), BuildingBlock: AJUNOK_clean_linker_0, # of connection points: 2
#     Edge 26, Type (0, 0), BuildingBlock: AJUNOK_clean_linker_0, # of connection points: 2
#     Edge 27, Type (0, 0), BuildingBlock: AJUNOK_clean_linker_0, # of connection points: 2
#     Edge 28, Type (0, 0), BuildingBlock: AJUNOK_clean_linker_0, # of connection points: 2
#     Edge 29, Type (0, 0), BuildingBlock: AJUNOK_clean_linker_0, # of connection points: 2
#     Edge 30, Type (0, 0), BuildingBlock: AJUNOK_clean_linker_0, # of connection points: 2
#     Edge 31, Type (0, 0), BuildingBlock: AJUNOK_clean_linker_0, # of connection points: 2
#     Edge 32, Type (0, 0), BuildingBlock: AJUNOK_clean_linker_0, # of connection points: 2
#     Edge 33, Type (0, 0), BuildingBlock: AJUNOK_clean_linker_0, # of connection points: 2
#     Edge 34, Type (0, 0), BuildingBlock: AJUNOK_clean_linker_0, # of connection points: 2
#     Edge 35, Type (0, 0), BuildingBlock: AJUNOK_clean_linker_0, # of connection points: 2
#     Edge 36, Type (0, 0), BuildingBlock: AJUNOK_clean_linker_0, # of connection points: 2
#     Edge 37, Type (0, 0), BuildingBlock: AJUNOK_clean_linker_0, # of connection points: 2
#     Edge 38, Type (0, 0), BuildingBlock: AJUNOK_clean_linker_0, # of connection points: 2
#     Edge 39, Type (0, 0), BuildingBlock: AJUNOK_clean_linker_0, # of connection points: 2
#     Edge 40, Type (0, 0), BuildingBlock: AJUNOK_clean_linker_0, # of connection points: 2
#     Edge 41, Type (0, 0), BuildingBlock: AJUNOK_clean_linker_0, # of connection points: 2
#     Edge 42, Type (0, 0), BuildingBlock: AJUNOK_clean_linker_0, # of connection points: 2
#     Edge 43, Type (0, 0), BuildingBlock: AJUNOK_clean_linker_0, # of connection points: 2
#     Edge 44, Type (0, 0), BuildingBlock: AJUNOK_clean_linker_0, # of connection points: 2
#     Edge 45, Type (0, 0), BuildingBlock: AJUNOK_clean_linker_0, # of connection points: 2
#     Edge 46, Type (0, 0), BuildingBlock: AJUNOK_clean_linker_0, # of connection points: 2
#     Edge 47, Type (0, 0), BuildingBlock: AJUNOK_clean_linker_0, # of connection points: 2
#     Edge 48, Type (0, 0), BuildingBlock: AJUNOK_clean_linker_0, # of connection points: 2
#     Edge 49, Type (0, 0), BuildingBlock: AJUNOK_clean_linker_0, # of connection points: 2
#     Edge 50, Type (0, 0), BuildingBlock: AJUNOK_clean_linker_0, # of connection points: 2
#     Edge 51, Type (0, 0), BuildingBlock: AJUNOK_clean_linker_0, # of connection points: 2
#     Edge 52, Type (0, 0), BuildingBlock: AJUNOK_clean_linker_0, # of connection points: 2
#     Edge 53, Type (0, 0), BuildingBlock: AJUNOK_clean_linker_0, # of connection points: 2
#     Edge 54, Type (0, 0), BuildingBlock: AJUNOK_clean_linker_0, # of connection points: 2
#     Edge 55, Type (0, 0), BuildingBlock: AJUNOK_clean_linker_0, # of connection points: 2
#     Edge 56, Type (0, 0), BuildingBlock: AJUNOK_clean_linker_0, # of connection points: 2
#     Edge 57, Type (0, 0), BuildingBlock: AJUNOK_clean_linker_0, # of connection points: 2
#     Edge 58, Type (0, 0), BuildingBlock: AJUNOK_clean_linker_0, # of connection points: 2
#     Edge 59, Type (0, 0), BuildingBlock: AJUNOK_clean_linker_0, # of connection points: 2
#     Edge 60, Type (0, 0), BuildingBlock: AJUNOK_clean_linker_0, # of connection points: 2
#     Edge 61, Type (0, 0), BuildingBlock: AJUNOK_clean_linker_0, # of connection points: 2
#     Edge 62, Type (0, 0), BuildingBlock: AJUNOK_clean_linker_0, # of connection points: 2
#     Edge 63, Type (0, 0), BuildingBlock: AJUNOK_clean_linker_0, # of connection points: 2
# Relax obj value: 0.444
# Max RMSD: 0.279
# Mean RMSD: 0.279
data_MOF--net-whk--node1-UKALOJ_clean_sbu_0--edge1-AJUNOK_clean_linker_0
_symmetry_space_group_name_H-M    P1
_symmetry_Int_Tables_number       1
_symmetry_cell_setting            triclinic
loop_
_symmetry_equiv_pos_as_xyz
'x, y, z'
_cell_length_a     29.039837
_cell_length_b     29.007914
_cell_length_c     40.302477
_cell_angle_alpha  89.924109
_cell_angle_beta   89.964294
_cell_angle_gamma 89.991004
loop_
_atom_site_label
_atom_site_type_symbol
_atom_site_fract_x
_atom_site_fract_y
_atom_site_fract_z
_atom_type_partial_charge
Zn0 Zn 0.55762 0.21314 0.36875 0.0
O1 O 0.57149 0.18548 0.32186 0.0
C2 C 0.48933 0.13536 0.38033 0.0
Zn3 Zn 0.58691 0.1513 0.39413 0.0
C4 C 0.59081 0.14627 0.31927 0.0
O5 O 0.60112 0.12377 0.34555 0.0
C6 C 0.55367 0.2213 0.44284 0.0
O7 O 0.64986 0.18505 0.39163 0.0
O8 O 0.62351 0.24741 0.36787 0.0
N9 N 0.62102 0.09795 0.41782 0.0
C10 C 0.65563 0.10078 0.44019 0.0
C11 C 0.64156 0.02943 0.43307 0.0
N12 N 0.61238 0.05349 0.41342 0.0
N13 N 0.6696 0.05846 0.44955 0.0
C14 C 0.48667 0.29156 0.35807 0.0
C15 C 0.52428 0.33904 0.32823 0.0
N16 N 0.52638 0.27059 0.34915 0.0
N17 N 0.54948 0.3001 0.33037 0.0
N18 N 0.48456 0.33448 0.34522 0.0
H19 H 0.42421 0.25426 0.3657 0.0
H20 H 0.43408 0.29869 0.3958 0.0
H21 H 0.46558 0.24534 0.39787 0.0
C22 C 0.45103 0.27139 0.38091 0.0
C23 C 0.67465 0.14466 0.45467 0.0
H24 H 0.70696 0.15381 0.44157 0.0
H25 H 0.68311 0.13985 0.48129 0.0
H26 H 0.65079 0.17396 0.45249 0.0
O27 O 0.57115 0.18115 0.44192 0.0
O28 O 0.54496 0.24141 0.41571 0.0
C29 C 0.6573 0.22437 0.37929 0.0
O30 O 0.49389 0.1759 0.36853 0.0
O31 O 0.52347 0.11615 0.39451 0.0
Zn32 Zn 0.35469 0.58744 0.39325 0.0
O33 O 0.32128 0.65039 0.38919 0.0
C34 C 0.28356 0.5565 0.44178 0.0
Zn35 Zn 0.29306 0.55833 0.36781 0.0
C36 C 0.28289 0.65832 0.37568 0.0
O37 O 0.25927 0.6246 0.3648 0.0
C38 C 0.37053 0.48969 0.38126 0.0
O39 O 0.32253 0.57028 0.32101 0.0
O40 O 0.38349 0.6 0.34537 0.0
N41 N 0.2363 0.52647 0.3478 0.0
C42 C 0.21327 0.48866 0.35832 0.0
C43 C 0.17082 0.52221 0.32263 0.0
N44 N 0.20994 0.54704 0.32542 0.0
N45 N 0.17233 0.48522 0.34283 0.0
C46 C 0.40414 0.65802 0.43824 0.0
C47 C 0.47553 0.64439 0.43121 0.0
N48 N 0.40733 0.62249 0.41664 0.0
N49 N 0.4518 0.61419 0.41224 0.0
N50 N 0.4463 0.67287 0.44715 0.0
H51 H 0.35046 0.70878 0.43874 0.0
H52 H 0.36467 0.68637 0.4789 0.0
H53 H 0.33107 0.65277 0.45059 0.0
C54 C 0.36005 0.67703 0.45241 0.0
C55 C 0.22805 0.45729 0.38601 0.0
H56 H 0.23105 0.42158 0.37646 0.0
H57 H 0.20125 0.45697 0.40564 0.0
H58 H 0.26132 0.46719 0.39701 0.0
O59 O 0.33008 0.49416 0.36941 0.0
O60 O 0.38972 0.5242 0.39495 0.0
C61 C 0.36203 0.58908 0.3189 0.0
O62 O 0.32402 0.57305 0.44069 0.0
O63 O 0.26331 0.5476 0.41476 0.0
Zn64 Zn 0.948 0.29534 0.3709 0.0
O65 O 0.93306 0.32236 0.32358 0.0
C66 C 0.01598 0.3739 0.38082 0.0
Zn67 Zn 0.91839 0.35815 0.39489 0.0
C68 C 0.91467 0.362 0.32055 0.0
O69 O 0.90506 0.38534 0.34648 0.0
C70 C 0.95216 0.2895 0.44494 0.0
O71 O 0.85584 0.32478 0.39181 0.0
O72 O 0.88198 0.26051 0.37087 0.0
N73 N 0.88351 0.41158 0.41781 0.0
C74 C 0.84802 0.40875 0.4395 0.0
C75 C 0.86229 0.48006 0.43243 0.0
N76 N 0.89221 0.45602 0.41338 0.0
N77 N 0.83357 0.45107 0.44843 0.0
C78 C 0.0181 0.21564 0.36056 0.0
C79 C 0.98067 0.16933 0.32982 0.0
N80 N 0.97892 0.23743 0.35146 0.0
N81 N 0.95591 0.20858 0.33213 0.0
N82 N 0.02 0.17315 0.34726 0.0
H83 H 0.08486 0.24388 0.36851 0.0
H84 H 0.06526 0.20753 0.40122 0.0
H85 H 0.04233 0.26518 0.39712 0.0
C86 C 0.05414 0.2345 0.38342 0.0
C87 C 0.82868 0.36487 0.45388 0.0
H88 H 0.85276 0.33571 0.45221 0.0
H89 H 0.79687 0.35549 0.44028 0.0
H90 H 0.81936 0.3697 0.48035 0.0
O91 O 0.93289 0.32874 0.44305 0.0
O92 O 0.96237 0.2685 0.41843 0.0
C93 C 0.84817 0.28502 0.38051 0.0
O94 O 0.01129 0.33309 0.36963 0.0
O95 O 0.98203 0.39323 0.39523 0.0
Zn96 Zn 0.14869 0.91818 0.39173 0.0
O97 O 0.18108 0.85521 0.38491 0.0
C98 C 0.21819 0.94693 0.44242 0.0
Zn99 Zn 0.21096 0.95007 0.36878 0.0
C100 C 0.22162 0.84914 0.37439 0.0
O101 O 0.24585 0.8842 0.3667 0.0
C102 C 0.13363 0.01756 0.38229 0.0
O103 O 0.18366 0.9378 0.32131 0.0
O104 O 0.12014 0.90999 0.34353 0.0
N105 N 0.26796 0.98311 0.34974 0.0
C106 C 0.29236 0.01846 0.36265 0.0
C107 C 0.33005 0.99346 0.32109 0.0
N108 N 0.29135 0.96784 0.32372 0.0
N109 N 0.33124 0.02547 0.34523 0.0
C110 C 0.0962 0.84746 0.43497 0.0
C111 C 0.02723 0.87199 0.43532 0.0
N112 N 0.09457 0.88403 0.41418 0.0
N113 N 0.05146 0.89902 0.41425 0.0
N114 N 0.05446 0.83879 0.44807 0.0
H115 H 0.14364 0.79229 0.42705 0.0
H116 H 0.13649 0.8066 0.46978 0.0
H117 H 0.16978 0.84345 0.44352 0.0
C118 C 0.13901 0.82142 0.44449 0.0
C119 C 0.27958 0.04559 0.39296 0.0
H120 H 0.29116 0.08187 0.39026 0.0
H121 H 0.29757 0.03082 0.41479 0.0
H122 H 0.24207 0.04507 0.39755 0.0
O123 O 0.17364 0.01351 0.36968 0.0
O124 O 0.11499 0.98266 0.39599 0.0
C125 C 0.14371 0.92037 0.31786 0.0
O126 O 0.17964 0.92658 0.44 0.0
O127 O 0.23793 0.96119 0.41641 0.0
Zn128 Zn 0.06106 0.79882 0.13328 0.0
O129 O 0.07493 0.82538 0.1805 0.0
C130 C 0.99412 0.87728 0.12327 0.0
Zn131 Zn 0.09275 0.86148 0.11055 0.0
C132 C 0.09317 0.86487 0.18439 0.0
O133 O 0.10477 0.88855 0.15901 0.0
C134 C 0.05901 0.79391 0.05965 0.0
O135 O 0.15593 0.82816 0.11416 0.0
O136 O 0.12716 0.76415 0.13373 0.0
N137 N 0.12689 0.91537 0.08788 0.0
C138 C 0.16217 0.91309 0.06603 0.0
C139 C 0.1461 0.98416 0.07245 0.0
N140 N 0.11701 0.95963 0.09188 0.0
N141 N 0.17534 0.95561 0.05659 0.0
C142 C 0.99266 0.7173 0.14332 0.0
C143 C 0.0307 0.67316 0.17541 0.0
N144 N 0.03068 0.7407 0.15283 0.0
N145 N 0.05395 0.71327 0.17308 0.0
N146 N 0.99204 0.67487 0.15698 0.0
H147 H 0.92436 0.7394 0.1321 0.0
H148 H 0.95158 0.70747 0.09971 0.0
H149 H 0.96756 0.7669 0.10705 0.0
C150 C 0.95751 0.73414 0.11893 0.0
C151 C 0.18244 0.86948 0.05193 0.0
H152 H 0.15931 0.83964 0.05412 0.0
H153 H 0.21475 0.86122 0.0653 0.0
H154 H 0.19113 0.87409 0.02531 0.0
O155 O 0.07926 0.83252 0.06229 0.0
O156 O 0.04734 0.77249 0.0857 0.0
C157 C 0.16208 0.78771 0.12488 0.0
O158 O 0.99767 0.83617 0.13417 0.0
O159 O 0.0289 0.89623 0.10962 0.0
Zn160 Zn 0.71568 0.05982 0.13647 0.0
O161 O 0.68873 0.07559 0.18315 0.0
C162 C 0.64291 0.98862 0.12842 0.0
Zn163 Zn 0.65275 0.08818 0.11202 0.0
C164 C 0.64855 0.09254 0.18642 0.0
O165 O 0.62461 0.10183 0.16061 0.0
C166 C 0.72216 0.05518 0.06259 0.0
O167 O 0.68279 0.15398 0.11168 0.0
O168 O 0.7461 0.12733 0.13407 0.0
N169 N 0.59657 0.11322 0.08669 0.0
C170 C 0.58086 0.15672 0.08288 0.0
C171 C 0.56038 0.11889 0.04021 0.0
N172 N 0.58306 0.08969 0.06034 0.0
N173 N 0.55891 0.16153 0.05343 0.0
C174 C 0.79741 0.99328 0.14839 0.0
C175 C 0.84489 0.03517 0.17497 0.0
N176 N 0.77549 0.03307 0.15593 0.0
N177 N 0.80504 0.05888 0.17266 0.0
N178 N 0.84089 0.99375 0.16014 0.0
H179 H 0.7621 0.92897 0.1444 0.0
H180 H 0.80486 0.93788 0.11284 0.0
H181 H 0.7505 0.96727 0.11071 0.0
C182 C 0.77764 0.95508 0.12766 0.0
C183 C 0.57913 0.19141 0.11039 0.0
H184 H 0.56255 0.1754 0.13239 0.0
H185 H 0.55925 0.22244 0.103 0.0
H186 H 0.61399 0.20165 0.11812 0.0
O187 O 0.68319 0.07485 0.06427 0.0
O188 O 0.74263 0.04452 0.08921 0.0
C189 C 0.72286 0.16129 0.12299 0.0
O190 O 0.68274 0.99492 0.14054 0.0
O191 O 0.62276 0.02139 0.11327 0.0
Zn192 Zn 0.42335 0.65292 0.11277 0.0
O193 O 0.36038 0.68617 0.11722 0.0
C194 C 0.45303 0.72575 0.06544 0.0
Zn195 Zn 0.45213 0.71423 0.139 0.0
C196 C 0.35237 0.7249 0.13027 0.0
O197 O 0.38591 0.74851 0.14148 0.0
C198 C 0.521 0.63726 0.12442 0.0
O199 O 0.44028 0.68522 0.18522 0.0
O200 O 0.41129 0.62343 0.16124 0.0
N201 N 0.4847 0.77106 0.1586 0.0
C202 C 0.52467 0.79075 0.14882 0.0
C203 C 0.49037 0.83901 0.17998 0.0
N204 N 0.46357 0.80106 0.17813 0.0
N205 N 0.52877 0.83347 0.16162 0.0
C206 C 0.35292 0.60292 0.06785 0.0
C207 C 0.36876 0.53168 0.07358 0.0
N208 N 0.3887 0.60008 0.08923 0.0
N209 N 0.3984 0.5557 0.0928 0.0
N210 N 0.33928 0.5606 0.05828 0.0
H211 H 0.30117 0.65557 0.0688 0.0
H212 H 0.32237 0.64268 0.02811 0.0
H213 H 0.35648 0.67628 0.05609 0.0
C214 C 0.33258 0.64692 0.05445 0.0
C215 C 0.56091 0.76738 0.12819 0.0
H216 H 0.57599 0.73865 0.14273 0.0
H217 H 0.58945 0.79104 0.1216 0.0
H218 H 0.54592 0.75292 0.10522 0.0
O219 O 0.5158 0.677 0.13729 0.0
O220 O 0.48695 0.61809 0.11019 0.0
C221 C 0.42223 0.64543 0.18756 0.0
O222 O 0.43676 0.68507 0.06508 0.0
O223 O 0.46294 0.74387 0.09298 0.0
Zn224 Zn 0.80152 0.45114 0.13319 0.0
O225 O 0.826 0.43756 0.18149 0.0
C226 C 0.88207 0.51606 0.12218 0.0
Zn227 Zn 0.86453 0.41725 0.11263 0.0
C228 C 0.86509 0.41898 0.18658 0.0
O229 O 0.89007 0.4075 0.16186 0.0
C230 C 0.79859 0.44912 0.05964 0.0
O231 O 0.82989 0.35591 0.11832 0.0
O232 O 0.76435 0.38616 0.13387 0.0
N233 N 0.91843 0.38032 0.09183 0.0
C234 C 0.91615 0.34312 0.07168 0.0
C235 C 0.98687 0.3613 0.07575 0.0
N236 N 0.96254 0.39141 0.09444 0.0
N237 N 0.95852 0.33004 0.06179 0.0
C238 C 0.7203 0.52057 0.13802 0.0
C239 C 0.68265 0.49678 0.18002 0.0
N240 N 0.74449 0.48529 0.15131 0.0
N241 N 0.72112 0.47079 0.17758 0.0
N242 N 0.68146 0.52819 0.15541 0.0
H243 H 0.72193 0.58391 0.11021 0.0
H244 H 0.71728 0.53263 0.08578 0.0
H245 H 0.7718 0.54753 0.10437 0.0
C246 C 0.73403 0.54775 0.10795 0.0
C247 C 0.87243 0.32139 0.05926 0.0
H248 H 0.86415 0.29094 0.07484 0.0
H249 H 0.87619 0.30967 0.03322 0.0
H250 H 0.84322 0.34531 0.06036 0.0
O251 O 0.8364 0.42761 0.0633 0.0
O252 O 0.77758 0.46364 0.08503 0.0
C253 C 0.78858 0.35073 0.12722 0.0
O254 O 0.84093 0.5137 0.13316 0.0
O255 O 0.90046 0.48022 0.10965 0.0
Zn256 Zn 0.45154 0.79695 0.6352 0.0
O257 O 0.43769 0.82552 0.68136 0.0
C258 C 0.52053 0.87252 0.62558 0.0
Zn259 Zn 0.42129 0.8593 0.61102 0.0
C260 C 0.41897 0.86488 0.68465 0.0
O261 O 0.40752 0.88806 0.65893 0.0
C262 C 0.4538 0.7884 0.56195 0.0
O263 O 0.35644 0.82768 0.61228 0.0
O264 O 0.3842 0.76532 0.63571 0.0
N265 N 0.39499 0.91445 0.58492 0.0
C266 C 0.35097 0.92584 0.57816 0.0
C267 C 0.39192 0.95269 0.53898 0.0
N268 N 0.42046 0.93207 0.56077 0.0
N269 N 0.34789 0.9489 0.54912 0.0
C270 C 0.51787 0.7145 0.64632 0.0
C271 C 0.48094 0.67276 0.68072 0.0
N272 N 0.48022 0.73865 0.65573 0.0
N273 N 0.45757 0.71271 0.67734 0.0
N274 N 0.51903 0.67322 0.66161 0.0
H275 H 0.58664 0.73019 0.63103 0.0
H276 H 0.55244 0.70242 0.60014 0.0
H277 H 0.54371 0.7627 0.60907 0.0
C278 C 0.55164 0.72881 0.62005 0.0
C279 C 0.31088 0.91608 0.60034 0.0
H280 H 0.32263 0.90853 0.62597 0.0
H281 H 0.28737 0.94625 0.60059 0.0
H282 H 0.29109 0.88658 0.59046 0.0
O283 O 0.43532 0.82805 0.56356 0.0
O284 O 0.46442 0.76818 0.58867 0.0
C285 C 0.34979 0.7883 0.6251 0.0
O286 O 0.51655 0.83155 0.63649 0.0
O287 O 0.48613 0.89145 0.61167 0.0
Zn288 Zn 0.65361 0.41891 0.61497 0.0
O289 O 0.69076 0.35799 0.61699 0.0
C290 C 0.72052 0.45568 0.56471 0.0
Zn291 Zn 0.71443 0.45279 0.63856 0.0
C292 C 0.73091 0.35346 0.62847 0.0
O293 O 0.75233 0.38852 0.63953 0.0
C294 C 0.63241 0.51617 0.62801 0.0
O295 O 0.68839 0.43815 0.68572 0.0
O296 O 0.62795 0.40359 0.66409 0.0
N297 N 0.77002 0.48752 0.65787 0.0
C298 C 0.79194 0.52535 0.64627 0.0
C299 C 0.83405 0.49679 0.68428 0.0
N300 N 0.79615 0.47006 0.68172 0.0
N301 N 0.83196 0.53182 0.66238 0.0
C302 C 0.6048 0.3487 0.56897 0.0
C303 C 0.53333 0.36111 0.57673 0.0
N304 N 0.60142 0.38245 0.59199 0.0
N305 N 0.5569 0.38999 0.59682 0.0
N306 N 0.56271 0.33444 0.55935 0.0
H307 H 0.65849 0.29822 0.56696 0.0
H308 H 0.64456 0.32327 0.52749 0.0
H309 H 0.67783 0.35519 0.55691 0.0
C310 C 0.649 0.33085 0.55428 0.0
C311 C 0.7756 0.55578 0.61854 0.0
H312 H 0.77807 0.59236 0.62638 0.0
H313 H 0.79865 0.55166 0.59683 0.0
H314 H 0.73987 0.54829 0.61103 0.0
O315 O 0.67371 0.51471 0.63867 0.0
O316 O 0.61507 0.48025 0.61497 0.0
C317 C 0.65059 0.41671 0.6896 0.0
O318 O 0.68153 0.43592 0.56667 0.0
O319 O 0.74096 0.46644 0.59129 0.0
Zn320 Zn 0.08674 0.65689 0.61354 0.0
O321 O 0.14994 0.69004 0.61689 0.0
C322 C 0.05667 0.72976 0.56685 0.0
Zn323 Zn 0.05945 0.71818 0.64065 0.0
C324 C 0.15891 0.7279 0.63092 0.0
O325 O 0.12602 0.75141 0.64324 0.0
C326 C 0.98964 0.64174 0.6266 0.0
O327 O 0.07126 0.68876 0.68676 0.0
O328 O 0.10027 0.62773 0.66183 0.0
N329 N 0.02726 0.77496 0.6606 0.0
C330 C 0.9873 0.79479 0.651 0.0
C331 C 0.02106 0.8422 0.68308 0.0
N332 N 0.04808 0.80443 0.6807 0.0
N333 N 0.98271 0.83689 0.66468 0.0
C334 C 0.15547 0.60677 0.56716 0.0
C335 C 0.1401 0.53551 0.57338 0.0
N336 N 0.12063 0.60393 0.58937 0.0
N337 N 0.11122 0.55953 0.59324 0.0
N338 N 0.16876 0.56446 0.55731 0.0
H339 H 0.15153 0.68023 0.5557 0.0
H340 H 0.20745 0.6592 0.56652 0.0
H341 H 0.18377 0.6465 0.52658 0.0
C342 C 0.17515 0.65075 0.55323 0.0
C343 C 0.95175 0.77262 0.62911 0.0
H344 H 0.93383 0.74536 0.64348 0.0
H345 H 0.92534 0.79764 0.62073 0.0
H346 H 0.96764 0.75633 0.60715 0.0
O347 O 0.99525 0.68167 0.63909 0.0
O348 O 0.02334 0.62217 0.61221 0.0
C349 C 0.09004 0.64925 0.68852 0.0
O350 O 0.07151 0.68856 0.56615 0.0
O351 O 0.04904 0.74847 0.59459 0.0
Zn352 Zn 0.85486 0.08825 0.61241 0.0
O353 O 0.82257 0.15253 0.61064 0.0
C354 C 0.785 0.05507 0.56443 0.0
Zn355 Zn 0.79296 0.06147 0.63881 0.0
C356 C 0.78436 0.1615 0.62433 0.0
O357 O 0.76198 0.12907 0.63834 0.0
C358 C 0.86728 0.99035 0.62959 0.0
O359 O 0.82083 0.07603 0.68515 0.0
O360 O 0.88245 0.10475 0.66074 0.0
N361 N 0.73456 0.03268 0.65875 0.0
C362 C 0.71343 0.99271 0.65064 0.0
C363 C 0.66684 0.0309 0.68074 0.0
N364 N 0.70562 0.05621 0.67766 0.0
N365 N 0.67112 0.99068 0.66431 0.0
C366 C 0.92195 0.15921 0.58093 0.0
C367 C 0.9519 0.11827 0.5429 0.0
N368 N 0.91001 0.115 0.58696 0.0
N369 N 0.92925 0.08961 0.5635 0.0
N370 N 0.9476 0.1624 0.55296 0.0
H371 H 0.90745 0.18568 0.62972 0.0
H372 H 0.94068 0.22387 0.60317 0.0
H373 H 0.88024 0.21644 0.59642 0.0
C374 C 0.9121 0.19849 0.60399 0.0
C375 C 0.73239 0.95676 0.62749 0.0
H376 H 0.74798 0.9287 0.64247 0.0
H377 H 0.70454 0.94148 0.61222 0.0
H378 H 0.75915 0.97032 0.61076 0.0
O379 O 0.82704 0.99624 0.64124 0.0
O380 O 0.88733 0.0234 0.61479 0.0
C381 C 0.86013 0.09516 0.68726 0.0
O382 O 0.82548 0.07154 0.56515 0.0
O383 O 0.76441 0.04804 0.59165 0.0
Zn384 Zn 0.95212 0.21578 0.87039 0.0
O385 O 0.93618 0.189 0.82362 0.0
C386 C 0.02121 0.13895 0.87775 0.0
Zn387 Zn 0.92306 0.15236 0.89385 0.0
C388 C 0.91745 0.1497 0.81994 0.0
O389 O 0.90717 0.12561 0.8455 0.0
C390 C 0.95819 0.22093 0.94385 0.0
O391 O 0.85928 0.18523 0.89432 0.0
O392 O 0.88559 0.24909 0.87203 0.0
N393 N 0.89539 0.09716 0.91918 0.0
C394 C 0.85118 0.08642 0.92622 0.0
C395 C 0.8929 0.0541 0.96277 0.0
N396 N 0.92121 0.07644 0.94175 0.0
N397 N 0.84851 0.06008 0.95392 0.0
C398 C 0.02104 0.29591 0.85898 0.0
C399 C 0.98555 0.33899 0.82468 0.0
N400 N 0.98198 0.27364 0.85023 0.0
N401 N 0.96021 0.30037 0.82866 0.0
N402 N 0.02414 0.33672 0.84316 0.0
H403 H 0.08919 0.27747 0.87443 0.0
H404 H 0.0561 0.30706 0.90509 0.0
H405 H 0.0451 0.24709 0.89649 0.0
C406 C 0.05426 0.28052 0.88532 0.0
C407 C 0.81115 0.09841 0.90446 0.0
H408 H 0.82264 0.10127 0.87828 0.0
H409 H 0.78393 0.0717 0.90652 0.0
H410 H 0.79613 0.13181 0.91218 0.0
O411 O 0.93952 0.1814 0.94184 0.0
O412 O 0.96706 0.24247 0.9173 0.0
C413 C 0.85201 0.22531 0.88307 0.0
O414 O 0.01637 0.18015 0.86753 0.0
O415 O 0.98736 0.11898 0.89165 0.0
Zn416 Zn 0.35585 0.92036 0.89166 0.0
O417 O 0.31932 0.85861 0.89051 0.0
C418 C 0.28754 0.95623 0.94034 0.0
Zn419 Zn 0.29502 0.95134 0.86637 0.0
C420 C 0.28014 0.85222 0.87781 0.0
O421 O 0.25869 0.88607 0.86495 0.0
C422 C 0.37505 0.01746 0.87759 0.0
O423 O 0.32277 0.93733 0.81982 0.0
O424 O 0.38268 0.9046 0.84356 0.0
N425 N 0.23949 0.98457 0.84592 0.0
C426 C 0.21755 0.02335 0.85569 0.0
C427 C 0.17529 0.99103 0.81941 0.0
N428 N 0.21332 0.96482 0.8231 0.0
N429 N 0.17741 0.02821 0.83935 0.0
C430 C 0.40495 0.85147 0.93819 0.0
C431 C 0.47634 0.86475 0.93099 0.0
N432 N 0.40822 0.88515 0.9151 0.0
N433 N 0.45271 0.8932 0.91054 0.0
N434 N 0.44699 0.83759 0.94798 0.0
H435 H 0.35085 0.80149 0.93712 0.0
H436 H 0.36519 0.8203 0.97801 0.0
H437 H 0.33242 0.85722 0.95135 0.0
C438 C 0.36083 0.83204 0.95201 0.0
C439 C 0.23256 0.05441 0.88343 0.0
H440 H 0.23524 0.09028 0.87409 0.0
H441 H 0.20601 0.0543 0.90323 0.0
H442 H 0.26607 0.04448 0.89409 0.0
O443 O 0.33405 0.01433 0.86657 0.0
O444 O 0.39347 0.98237 0.89112 0.0
C445 C 0.36118 0.91662 0.81732 0.0
O446 O 0.32734 0.93808 0.93917 0.0
O447 O 0.26683 0.96457 0.91338 0.0
Zn448 Zn 0.59 0.35961 0.89787 0.0
O449 O 0.65401 0.32672 0.89926 0.0
C450 C 0.55559 0.29182 0.94785 0.0
Zn451 Zn 0.56046 0.29706 0.87368 0.0
C452 C 0.66135 0.28702 0.8873 0.0
O453 O 0.62755 0.26449 0.87526 0.0
C454 C 0.49148 0.37346 0.88159 0.0
O455 O 0.57641 0.3234 0.82652 0.0
O456 O 0.60563 0.38587 0.84927 0.0
N457 N 0.5314 0.23835 0.85392 0.0
C458 C 0.49284 0.21526 0.86283 0.0
C459 C 0.52908 0.17288 0.82853 0.0
N460 N 0.55365 0.212 0.8324 0.0
N461 N 0.49054 0.17433 0.84712 0.0
C462 C 0.66204 0.42788 0.92582 0.0
C463 C 0.62532 0.45407 0.96733 0.0
N464 N 0.61761 0.41536 0.92207 0.0
N465 N 0.59475 0.43246 0.94766 0.0
N466 N 0.66805 0.45141 0.95443 0.0
H467 H 0.68673 0.40037 0.87897 0.0
H468 H 0.70724 0.45667 0.88979 0.0
H469 H 0.73073 0.40829 0.9107 0.0
C470 C 0.69858 0.42211 0.89984 0.0
C471 C 0.45955 0.23006 0.88926 0.0
H472 H 0.42425 0.23118 0.87887 0.0
H473 H 0.45946 0.20413 0.90954 0.0
H474 H 0.46762 0.26429 0.89956 0.0
O475 O 0.49589 0.33253 0.87069 0.0
O476 O 0.52552 0.39274 0.89568 0.0
C477 C 0.59589 0.36247 0.82336 0.0
O478 O 0.57459 0.33117 0.94588 0.0
O479 O 0.54555 0.27068 0.92136 0.0
Zn480 Zn 0.21631 0.5601 0.86929 0.0
O481 O 0.18867 0.57328 0.82286 0.0
C482 C 0.1389 0.49152 0.87875 0.0
Zn483 Zn 0.15483 0.58901 0.89481 0.0
C484 C 0.15012 0.59363 0.82012 0.0
O485 O 0.12837 0.60599 0.84625 0.0
C486 C 0.2237 0.55516 0.94348 0.0
O487 O 0.18971 0.65153 0.89679 0.0
O488 O 0.24921 0.62734 0.86822 0.0
N489 N 0.10036 0.61847 0.91934 0.0
C490 C 0.09019 0.66323 0.92483 0.0
C491 C 0.05567 0.62398 0.96183 0.0
N492 N 0.0783 0.59414 0.94213 0.0
N493 N 0.06279 0.66777 0.95178 0.0
C494 C 0.2964 0.491 0.86012 0.0
C495 C 0.3382 0.52261 0.82317 0.0
N496 N 0.27372 0.52897 0.84953 0.0
N497 N 0.29968 0.54837 0.82634 0.0
N498 N 0.33659 0.48622 0.84391 0.0
H499 H 0.28098 0.42319 0.87779 0.0
H500 H 0.30639 0.46014 0.90793 0.0
H501 H 0.24671 0.46734 0.89716 0.0
C502 C 0.28112 0.45907 0.88734 0.0
C503 C 0.1042 0.70214 0.90245 0.0
H504 H 0.10944 0.68947 0.87676 0.0
H505 H 0.07744 0.72947 0.9026 0.0
H506 H 0.13678 0.7177 0.91119 0.0
O507 O 0.18313 0.57151 0.94248 0.0
O508 O 0.24451 0.54777 0.91641 0.0
C509 C 0.22792 0.65986 0.88296 0.0
O510 O 0.18021 0.49544 0.86857 0.0
O511 O 0.11959 0.52601 0.89225 0.0
C512 C 0.5843 0.15014 0.25728 0.0
C513 C 0.60283 0.12862 0.28573 0.0
C514 C 0.59786 0.13714 0.2252 0.0
C515 C 0.63096 0.1025 0.22025 0.0
H516 H 0.55958 0.1779 0.25975 0.0
H517 H 0.58347 0.15551 0.2042 0.0
S518 S 0.68743 0.03267 0.28604 0.0
N519 N 0.65396 0.06879 0.30653 0.0
N520 N 0.67967 0.0446 0.24638 0.0
C521 C 0.64859 0.07955 0.24837 0.0
C522 C 0.63445 0.09249 0.28103 0.0
C523 C 0.37491 0.59561 0.22513 0.0
C524 C 0.41139 0.62687 0.22091 0.0
C525 C 0.36008 0.5826 0.25692 0.0
C526 C 0.38145 0.59999 0.28571 0.0
H527 H 0.35638 0.58255 0.2038 0.0
H528 H 0.3309 0.55949 0.25885 0.0
S529 S 0.4819 0.67914 0.28792 0.0
N530 N 0.47099 0.67215 0.24806 0.0
N531 N 0.44331 0.64762 0.30768 0.0
C532 C 0.41952 0.62949 0.28175 0.0
C533 C 0.43439 0.64297 0.2494 0.0
C534 C 0.92522 0.36036 0.25891 0.0
C535 C 0.90372 0.37987 0.28691 0.0
C536 C 0.91374 0.37441 0.22665 0.0
C537 C 0.87982 0.40815 0.22101 0.0
H538 H 0.95091 0.33358 0.26184 0.0
H539 H 0.93065 0.35762 0.20597 0.0
S540 S 0.81445 0.47146 0.28586 0.0
N541 N 0.848 0.43597 0.30687 0.0
N542 N 0.82611 0.46215 0.24633 0.0
C543 C 0.85876 0.42874 0.24882 0.0
C544 C 0.87081 0.41472 0.28171 0.0
C545 C 0.14952 0.92767 0.25613 0.0
C546 C 0.12661 0.90953 0.28409 0.0
C547 C 0.13737 0.91441 0.22387 0.0
C548 C 0.10221 0.88205 0.21833 0.0
H549 H 0.17779 0.95166 0.25913 0.0
H550 H 0.1568 0.9284 0.20323 0.0
S551 S 0.02878 0.82712 0.28269 0.0
N552 N 0.06487 0.85977 0.30382 0.0
N553 N 0.04229 0.83464 0.24327 0.0
C554 C 0.07781 0.86495 0.24593 0.0
C555 C 0.08988 0.87879 0.27877 0.0
C556 C 0.35767 0.92442 0.75556 0.0
C557 C 0.37957 0.90599 0.78386 0.0
C558 C 0.37192 0.91264 0.72347 0.0
C559 C 0.40837 0.88166 0.71842 0.0
H560 H 0.32861 0.94757 0.75811 0.0
H561 H 0.35308 0.92658 0.70254 0.0
S562 S 0.48017 0.82703 0.78385 0.0
N563 N 0.44182 0.85767 0.8045 0.0
N564 N 0.46853 0.83543 0.74423 0.0
C565 C 0.43185 0.86441 0.7464 0.0
C566 C 0.4175 0.87661 0.7791 0.0
C567 C 0.59036 0.35658 0.7614 0.0
C568 C 0.60802 0.37933 0.78959 0.0
C569 C 0.60312 0.36974 0.72916 0.0
C570 C 0.63445 0.40589 0.72374 0.0
H571 H 0.56678 0.32791 0.76418 0.0
H572 H 0.58927 0.35054 0.70841 0.0
S573 S 0.68894 0.47837 0.78883 0.0
N574 N 0.65708 0.4412 0.8097 0.0
N575 N 0.68124 0.46581 0.74929 0.0
C576 C 0.65154 0.42971 0.75164 0.0
C577 C 0.63827 0.41652 0.78447 0.0
C578 C 0.08411 0.65159 0.7504 0.0
C579 C 0.10218 0.63056 0.72166 0.0
C580 C 0.09851 0.63838 0.7822 0.0
C581 C 0.13189 0.60387 0.78655 0.0
H582 H 0.05925 0.67931 0.7484 0.0
H583 H 0.08449 0.65646 0.80343 0.0
S584 S 0.18721 0.53511 0.71967 0.0
N585 N 0.15309 0.57134 0.69983 0.0
N586 N 0.18024 0.54641 0.75949 0.0
C587 C 0.14891 0.5812 0.75811 0.0
C588 C 0.13399 0.5945 0.72572 0.0
C589 C 0.85749 0.08792 0.74913 0.0
C590 C 0.87835 0.10698 0.72062 0.0
C591 C 0.87135 0.10068 0.78115 0.0
C592 C 0.90633 0.13341 0.78599 0.0
H593 H 0.82965 0.06329 0.7468 0.0
H594 H 0.85349 0.08581 0.80221 0.0
S595 S 0.9742 0.19155 0.71983 0.0
N596 N 0.93751 0.15859 0.69951 0.0
N597 N 0.96346 0.18281 0.75957 0.0
C598 C 0.92847 0.15178 0.75775 0.0
C599 C 0.91458 0.13848 0.72512 0.0
C600 C 0.41772 0.12152 0.34711 0.0
C601 C 0.44665 0.1087 0.37372 0.0
C602 C 0.38021 0.09397 0.33763 0.0
C603 C 0.37005 0.05309 0.35468 0.0
H604 H 0.42485 0.15237 0.33283 0.0
H605 H 0.35899 0.10453 0.31689 0.0
S606 S 0.43238 1.00507 0.42695 0.0
N607 N 0.46083 0.05268 0.41762 0.0
N608 N 0.38996 1.00158 0.39979 0.0
C609 C 0.39763 0.04038 0.38171 0.0
C610 C 0.43602 0.06803 0.39125 0.0
C611 C 0.44535 0.44683 0.38147 0.0
C612 C 0.39763 0.44701 0.37497 0.0
C613 C 0.47335 0.40998 0.37158 0.0
C614 C 0.45481 0.37165 0.35512 0.0
H615 H 0.46164 0.47598 0.39344 0.0
H616 H 0.50991 0.4114 0.37678 0.0
S617 S 0.33236 0.35309 0.33355 0.0
N618 N 0.33303 0.40393 0.35196 0.0
N619 N 0.38623 0.33477 0.3336 0.0
C620 C 0.40726 0.37042 0.34928 0.0
C621 C 0.37855 0.40804 0.35918 0.0
C622 C 0.05907 0.44878 0.3791 0.0
C623 C 0.05837 0.40084 0.37325 0.0
C624 C 0.09616 0.47618 0.36866 0.0
C625 C 0.13408 0.45671 0.35228 0.0
H626 H 0.03028 0.46561 0.39115 0.0
H627 H 0.09541 0.51288 0.37353 0.0
S628 S 0.15079 0.33374 0.33144 0.0
N629 N 0.10023 0.33537 0.3502 0.0
N630 N 0.16978 0.38741 0.33102 0.0
C631 C 0.13457 0.40911 0.34676 0.0
C632 C 0.09677 0.38105 0.35715 0.0
C633 C 0.11977 0.09108 0.35103 0.0
C634 C 0.10654 0.06036 0.37655 0.0
C635 C 0.0915 0.12816 0.34161 0.0
C636 C 0.04921 0.1358 0.3574 0.0
H637 H 0.15143 0.08559 0.33737 0.0
H638 H 0.10227 0.15056 0.32154 0.0
S639 S 1.00084 0.07005 0.428 0.0
N640 N 0.0495 0.04318 0.41915 0.0
N641 N 0.99694 0.11314 0.40131 0.0
C642 C 0.03643 0.107 0.38377 0.0
C643 C 0.06496 0.06921 0.3934 0.0
C644 C 0.95196 0.95266 0.12287 0.0
C645 C 0.95226 0.9052 0.13051 0.0
C646 C 0.91576 0.98135 0.13303 0.0
C647 C 0.87828 0.96376 0.15103 0.0
H648 H 0.98039 0.96819 0.10951 0.0
H649 H 0.91687 0.0176 0.12664 0.0
S650 S 0.86108 0.8426 0.17713 0.0
N651 N 0.91061 0.84206 0.15697 0.0
N652 N 0.84289 0.89653 0.17601 0.0
C653 C 0.87749 0.91656 0.15848 0.0
C654 C 0.91433 0.88715 0.14819 0.0
C655 C 0.58561 0.89277 0.17699 0.0
C656 C 0.56045 0.86944 0.15249 0.0
C657 C 0.61433 0.93 0.16866 0.0
C658 C 0.61766 0.94577 0.13569 0.0
H659 H 0.58263 0.88236 0.20271 0.0
H660 H 0.63252 0.94778 0.18832 0.0
S661 S 0.56035 0.89531 0.06233 0.0
N662 N 0.54205 0.86366 0.09381 0.0
N663 N 0.5951 0.93437 0.07841 0.0
C664 C 0.59319 0.9224 0.11098 0.0
C665 C 0.56472 0.88404 0.11932 0.0
C666 C 0.59279 0.62233 0.15717 0.0
C667 C 0.5645 0.61137 0.12981 0.0
C668 C 0.63108 0.59506 0.16545 0.0
C669 C 0.64288 0.5565 0.14633 0.0
H670 H 0.58442 0.65125 0.17304 0.0
H671 H 0.65151 0.60391 0.18699 0.0
S672 S 0.58236 0.51391 0.07159 0.0
N673 N 0.5524 0.5596 0.08313 0.0
N674 N 0.62479 0.50905 0.09864 0.0
C675 C 0.61594 0.54578 0.11853 0.0
C676 C 0.57665 0.57306 0.11026 0.0
C677 C 0.91692 0.63538 0.15276 0.0
C678 C 0.96456 0.63605 0.147 0.0
C679 C 0.89011 0.59716 0.14349 0.0
C680 C 0.90999 0.55846 0.12777 0.0
H681 H 0.90059 0.66418 0.16514 0.0
H682 H 0.85371 0.59762 0.14935 0.0
S683 S 0.03327 0.5465 0.10425 0.0
N684 N 0.03023 0.59712 0.1228 0.0
N685 N 0.98046 0.52542 0.10497 0.0
C686 C 0.95757 0.55993 0.12072 0.0
C687 C 0.9847 0.59863 0.13049 0.0
C688 C 0.59621 0.97775 0.63776 0.0
C689 C 0.63418 0.96028 0.65517 0.0
C690 C 0.56084 0.94864 0.62694 0.0
C691 C 0.56183 0.90082 0.63339 0.0
H692 H 0.59416 0.01424 0.63223 0.0
H693 H 0.53199 0.96411 0.61404 0.0
S694 S 0.65499 0.83835 0.67782 0.0
N695 N 0.67176 0.89277 0.67803 0.0
N696 N 0.60521 0.83749 0.658 0.0
C697 C 0.60023 0.8829 0.65049 0.0
C698 C 0.63638 0.91275 0.66134 0.0
C699 C 0.62224 0.59668 0.64994 0.0
C700 C 0.60332 0.55763 0.63413 0.0
C701 C 0.59457 0.63439 0.65898 0.0
C702 C 0.54701 0.63418 0.65291 0.0
H703 H 0.6586 0.59796 0.65584 0.0
H704 H 0.61024 0.66368 0.67119 0.0
S705 S 0.48042 0.54296 0.61042 0.0
N706 N 0.53364 0.52294 0.61137 0.0
N707 N 0.48229 0.59377 0.62878 0.0
C708 C 0.52772 0.5962 0.63662 0.0
C709 C 0.55571 0.55799 0.62707 0.0
C710 C 0.91816 0.62812 0.66008 0.0
C711 C 0.9464 0.61586 0.63295 0.0
C712 C 0.88059 0.60061 0.66963 0.0
C713 C 0.86973 0.56037 0.65214 0.0
H714 H 0.92606 0.65828 0.67484 0.0
H715 H 0.86017 0.61049 0.69095 0.0
S716 S 0.92958 0.51447 0.57812 0.0
N717 N 0.95876 0.56146 0.58783 0.0
N718 N 0.88787 0.51038 0.60585 0.0
C719 C 0.89639 0.54844 0.62445 0.0
C720 C 0.93479 0.57607 0.61481 0.0
C721 C 0.89101 0.92803 0.66885 0.0
C722 C 0.89307 0.94769 0.63688 0.0
C723 C 0.92032 0.89155 0.67789 0.0
C724 C 0.95166 0.87303 0.65501 0.0
H725 H 0.86802 0.94221 0.6874 0.0
H726 H 0.91883 0.87794 0.7029 0.0
S727 S 0.96779 0.90965 0.56769 0.0
N728 N 0.92757 0.94456 0.58207 0.0
N729 N 0.98172 0.87529 0.59884 0.0
C730 C 0.95292 0.89131 0.62274 0.0
C731 C 0.92378 0.92882 0.61372 0.0
C732 C 0.06395 0.06421 0.87503 0.0
C733 C 0.06356 0.11231 0.86989 0.0
C734 C 0.10103 0.03702 0.86454 0.0
C735 C 0.13927 0.05681 0.84877 0.0
H736 H 0.03496 0.04708 0.88662 0.0
H737 H 0.10003 1.00018 0.86889 0.0
S738 S 0.15692 0.18046 0.83011 0.0
N739 N 0.10602 0.17846 0.84838 0.0
N740 N 0.17568 0.12671 0.82891 0.0
C741 C 0.14011 0.10463 0.84397 0.0
C742 C 0.10226 0.13253 0.85447 0.0
C743 C 0.45052 0.05942 0.87873 0.0
C744 C 0.40297 0.05973 0.87154 0.0
C745 C 0.47889 0.0968 0.87035 0.0
C746 C 0.46086 0.13608 0.85473 0.0
H747 H 0.46632 0.0297 0.89037 0.0
H748 H 0.51523 0.09518 0.87624 0.0
S749 S 0.33944 0.15538 0.83054 0.0
N750 N 0.33938 0.10378 0.84793 0.0
N751 N 0.39325 0.1737 0.83223 0.0
C752 C 0.41362 0.13742 0.84769 0.0
C753 C 0.38456 0.09936 0.8561 0.0
C754 C 0.42052 0.38789 0.84761 0.0
C755 C 0.44933 0.40062 0.87427 0.0
C756 C 0.38382 0.4162 0.83747 0.0
C757 C 0.37469 0.45788 0.85375 0.0
H758 H 0.42713 0.35655 0.83383 0.0
H759 H 0.36256 0.40569 0.81676 0.0
S760 S 0.43631 0.50536 0.92637 0.0
N761 N 0.46383 0.45695 0.91783 0.0
N762 N 0.39474 0.50955 0.89858 0.0
C763 C 0.40203 0.47039 0.88089 0.0
C764 C 0.43937 0.44188 0.89122 0.0
C765 C 0.06355 0.44973 0.87784 0.0
C766 C 0.11131 0.44955 0.87136 0.0
C767 C 0.03531 0.41307 0.86802 0.0
C768 C 0.05365 0.37467 0.85159 0.0
H769 H 0.04748 0.47881 0.89007 0.0
H770 H 0.99882 0.41449 0.8735 0.0
S771 S 0.17573 0.35581 0.82902 0.0
N772 N 0.17549 0.40652 0.84765 0.0
N773 N 0.12179 0.33772 0.82936 0.0
C774 C 0.10109 0.37336 0.84531 0.0
C775 C 0.13007 0.41076 0.85517 0.0
C776 C 0.74198 0.20886 0.3805 0.0
C777 C 0.70554 0.24096 0.37766 0.0
C778 C 0.78818 0.2229 0.38041 0.0
C779 C 0.7997 0.26967 0.37785 0.0
H780 H 0.73484 0.17235 0.38293 0.0
H781 H 0.8149 0.19713 0.38324 0.0
S782 S 0.71779 0.3673 0.36749 0.0
N783 N 0.68451 0.32136 0.37053 0.0
N784 N 0.77114 0.34807 0.37033 0.0
C785 C 0.7637 0.30207 0.37407 0.0
C786 C 0.7167 0.28767 0.37392 0.0
C787 C 0.22095 0.71821 0.37156 0.0
C788 C 0.26784 0.7069 0.37226 0.0
C789 C 0.20669 0.76438 0.3713 0.0
C790 C 0.23872 0.80109 0.37156 0.0
H791 H 0.19509 0.6913 0.37223 0.0
H792 H 0.17004 0.77129 0.37124 0.0
S793 S 0.36568 0.78956 0.36868 0.0
N794 N 0.34656 0.73599 0.36972 0.0
N795 N 0.31943 0.82264 0.36955 0.0
C796 C 0.2857 0.7902 0.3705 0.0
C797 C 0.30031 0.74317 0.37086 0.0
C798 C 0.29305 0.78765 0.12894 0.0
C799 C 0.30392 0.74076 0.13189 0.0
C800 C 0.24705 0.80218 0.12687 0.0
C801 C 0.21007 0.77047 0.12805 0.0
H802 H 0.32021 0.81314 0.12716 0.0
H803 H 0.24053 0.83877 0.1242 0.0
S804 S 0.22044 0.64395 0.13848 0.0
N805 N 0.27412 0.66267 0.13794 0.0
N806 N 0.18785 0.69021 0.13415 0.0
C807 C 0.22054 0.72362 0.13217 0.0
C808 C 0.26738 0.70875 0.13403 0.0
C809 C 0.72652 0.29255 0.11751 0.0
C810 C 0.77064 0.30319 0.12915 0.0
C811 C 0.71193 0.24657 0.11516 0.0
C812 C 0.74047 0.20945 0.12484 0.0
H813 H 0.70378 0.31972 0.10902 0.0
H814 H 0.67803 0.24032 0.10534 0.0
S815 S 0.85899 0.21992 0.15842 0.0
N816 N 0.84276 0.27355 0.15127 0.0
N817 N 0.81499 0.18736 0.14738 0.0
C818 C 0.78451 0.21997 0.13714 0.0
C819 C 0.79957 0.26672 0.1392 0.0
C820 C 0.2193 0.78954 0.63361 0.0
C821 C 0.2077 0.7427 0.63269 0.0
C822 C 0.26546 0.80358 0.63201 0.0
C823 C 0.30179 0.7715 0.62905 0.0
H824 H 0.19258 0.81557 0.63485 0.0
H825 H 0.27264 0.83997 0.63352 0.0
S826 S 0.29004 0.64445 0.63194 0.0
N827 N 0.2366 0.66378 0.63346 0.0
N828 N 0.32311 0.69062 0.62952 0.0
C829 C 0.2908 0.7245 0.6302 0.0
C830 C 0.24383 0.71005 0.63207 0.0
C831 C 0.78392 0.24141 0.60107 0.0
C832 C 0.76925 0.21028 0.62585 0.0
C833 C 0.77411 0.28867 0.60315 0.0
C834 C 0.74968 0.30655 0.63023 0.0
H835 H 0.80257 0.22905 0.57957 0.0
H836 H 0.78443 0.31113 0.58296 0.0
S837 S 0.70252 0.24047 0.70126 0.0
N838 N 0.72857 0.20123 0.67823 0.0
N839 N 0.70963 0.29009 0.68174 0.0
C840 C 0.73448 0.27607 0.65501 0.0
C841 C 0.74433 0.2279 0.65292 0.0
C842 C 0.79174 0.28323 0.89752 0.0
C843 C 0.80411 0.24211 0.88178 0.0
C844 C 0.74544 0.29665 0.89955 0.0
C845 C 0.70966 0.26978 0.88577 0.0
H846 H 0.81782 0.30451 0.90912 0.0
H847 H 0.73776 0.32844 0.91218 0.0
S848 S 0.72542 0.16043 0.83944 0.0
N849 N 0.77804 0.17564 0.85042 0.0
N850 N 0.69095 0.2007 0.85436 0.0
C851 C 0.72199 0.22887 0.86933 0.0
C852 C 0.7692 0.21517 0.86731 0.0
C853 C 0.26698 0.77641 0.8503 0.0
C854 C 0.2617 0.80497 0.87824 0.0
C855 C 0.25823 0.72872 0.85225 0.0
C856 C 0.24396 0.70826 0.88221 0.0
H857 H 0.27905 0.79084 0.82706 0.0
H858 H 0.2617 0.70797 0.83005 0.0
S859 S 0.22795 0.76797 0.96279 0.0
N860 N 0.24359 0.80928 0.93688 0.0
N861 N 0.22643 0.72015 0.94059 0.0
C862 C 0.23902 0.73659 0.91031 0.0
C863 C 0.24818 0.78482 0.90833 0.0
C864 C 0.68683 0.02865 0.50522 0.0
C865 C 0.70224 0.0477 0.47524 0.0
C866 C 0.71504 0.02869 0.53346 0.0
C867 C 0.75973 0.04793 0.53273 0.0
H868 H 0.65169 0.01649 0.50738 0.0
H869 H 0.70072 0.01557 0.55644 0.0
S870 S 0.81797 0.09592 0.45825 0.0
N871 N 0.76622 0.08115 0.445 0.0
N872 N 0.81946 0.08192 0.49799 0.0
C873 C 0.77664 0.06386 0.50203 0.0
C874 C 0.74782 0.0636 0.47331 0.0
C875 C 0.47967 0.71919 0.53001 0.0
C876 C 0.45916 0.76335 0.53003 0.0
C877 C 0.47857 0.69098 0.50183 0.0
C878 C 0.45701 0.70581 0.47263 0.0
H879 H 0.49475 0.70517 0.55242 0.0
H880 H 0.49199 0.65621 0.50351 0.0
S881 S 0.40434 0.8203 0.45758 0.0
N882 N 0.42088 0.82209 0.49677 0.0
N883 N 0.41983 0.76902 0.4437 0.0
C884 C 0.43965 0.75099 0.47132 0.0
C885 C 0.44046 0.77978 0.50005 0.0
C886 C 0.81713 0.48141 0.50392 0.0
C887 C 0.80124 0.46183 0.47433 0.0
C888 C 0.7896 0.48151 0.53247 0.0
C889 C 0.74495 0.46212 0.53253 0.0
H890 H 0.85225 0.49377 0.50558 0.0
H891 H 0.80466 0.49461 0.5551 0.0
S892 S 0.6856 0.41214 0.45938 0.0
N893 N 0.73689 0.42717 0.44529 0.0
N894 N 0.68481 0.42689 0.49896 0.0
C895 C 0.72754 0.4454 0.50225 0.0
C896 C 0.75575 0.44541 0.47316 0.0
C897 C 0.04041 0.73834 0.50571 0.0
C898 C 0.0521 0.75809 0.53646 0.0
C899 C 0.03782 0.7656 0.47683 0.0
C900 C 0.04658 0.81323 0.478 0.0
H901 H 0.03396 0.70165 0.5039 0.0
H902 H 0.03075 0.74924 0.45324 0.0
S903 S 0.0845 0.88033 0.55094 0.0
N904 N 0.07602 0.82776 0.56543 0.0
N905 N 0.07057 0.8782 0.51127 0.0
C906 C 0.05814 0.8332 0.50844 0.0
C907 C 0.06109 0.80581 0.53764 0.0
C908 C 0.2184 0.98334 0.97188 0.0
C909 C 0.26314 0.96422 0.97227 0.0
C910 C 0.19103 0.98444 1.00052 0.0
C911 C 0.20739 0.96659 0.03058 0.0
H912 H 0.20324 0.99533 0.9489 0.0
H913 H 0.15573 0.99619 0.99863 0.0
S914 S 0.32351 0.9191 0.04668 0.0
N915 N 0.32392 0.93156 0.00668 0.0
N916 N 0.27223 0.93449 0.06049 0.0
C917 C 0.25307 0.95098 0.03213 0.0
C918 C 0.28101 0.94952 1.00298 0.0
C919 C 0.51565 0.20311 0.01035 0.0
C920 C 0.55187 0.20237 0.0335 0.0
C921 C 0.51509 0.23482 0.98403 0.0
C922 C 0.55055 0.26741 0.97998 0.0
H923 H 0.48922 0.1768 0.01134 0.0
H924 H 0.48799 0.23215 0.96569 0.0
S925 S 0.65223 0.28187 0.03445 0.0
N926 N 0.62355 0.23837 0.05094 0.0
N927 N 0.62134 0.29909 1.00239 0.0
C928 C 0.58517 0.26945 0.00425 0.0
C929 C 0.58617 0.23662 0.03078 0.0
C930 C 0.29417 0.53053 0.97448 0.0
C931 C 0.24906 0.54876 0.97522 0.0
C932 C 0.32241 0.53102 1.00264 0.0
C933 C 0.30674 0.54984 0.03257 0.0
H934 H 0.30887 0.51791 0.95155 0.0
H935 H 0.35776 0.51949 1.00044 0.0
S936 S 0.19023 0.59615 0.04954 0.0
N937 N 0.18884 0.58193 0.00987 0.0
N938 N 0.24228 0.58237 0.06278 0.0
C939 C 0.2609 0.56503 0.03452 0.0
C940 C 0.23197 0.56461 0.00585 0.0
C941 C 0.9869 0.31547 0.00545 0.0
C942 C 0.96898 0.29844 0.03534 0.0
C943 C 0.98568 0.28891 0.97646 0.0
C944 C 0.9663 0.24424 0.97621 0.0
H945 H 0.99888 0.35077 0.00399 0.0
H946 H 0.99782 0.30467 0.95371 0.0
S947 S 0.92163 0.18156 0.04988 0.0
N948 N 0.93703 0.23252 0.06438 0.0
N949 N 0.93382 0.18243 0.00983 0.0
C950 C 0.95169 0.2255 0.0067 0.0
C951 C 0.95332 0.25262 0.03628 0.0
C952 C 0.29699 0.99035 0.51027 0.0
C953 C 0.3094 0.94945 0.52667 0.0
C954 C 0.26478 0.98991 0.48424 0.0
C955 C 0.24371 0.94858 0.47402 0.0
H956 H 0.31371 0.02244 0.5168 0.0
H957 H 0.25751 0.02179 0.47124 0.0
S958 S 0.26804 0.83167 0.50666 0.0
N959 N 0.30092 0.86615 0.52896 0.0
N960 N 0.23904 0.86571 0.48133 0.0
C961 C 0.25524 0.90767 0.49064 0.0
C962 C 0.28855 0.90797 0.51661 0.0
C963 C 0.57144 0.25856 0.53233 0.0
C964 C 0.5521 0.30303 0.53279 0.0
C965 C 0.5694 0.23092 0.50376 0.0
C966 C 0.54803 0.24692 0.47458 0.0
H967 H 0.59009 0.24601 0.55377 0.0
H968 H 0.58677 0.19787 0.50408 0.0
S969 S 0.48778 0.35933 0.46463 0.0
N970 N 0.50779 0.36037 0.50296 0.0
N971 N 0.50327 0.30891 0.44931 0.0
C972 C 0.52588 0.29028 0.47564 0.0
C973 C 0.52798 0.31818 0.50475 0.0
C974 C 0.2127 0.53345 0.47316 0.0
C975 C 0.25796 0.55129 0.47356 0.0
C976 C 0.18468 0.5346 0.50149 0.0
C977 C 0.20079 0.55362 0.53123 0.0
H978 H 0.19786 0.5204 0.45039 0.0
H979 H 0.14926 0.52321 0.49961 0.0
S980 S 0.31794 0.59882 0.54727 0.0
N981 N 0.31879 0.58418 0.50769 0.0
N982 N 0.26585 0.58582 0.56086 0.0
C983 C 0.24675 0.56847 0.53279 0.0
C984 C 0.27542 0.56742 0.50398 0.0
C985 C 0.92005 0.23493 0.52695 0.0
C986 C 0.95494 0.20162 0.53145 0.0
C987 C 0.92158 0.26651 0.50052 0.0
C988 C 0.95737 0.26512 0.47705 0.0
H989 H 0.88939 0.23438 0.54209 0.0
H990 H 0.8926 0.28948 0.49693 0.0
S991 S 0.05955 0.18848 0.47965 0.0
N992 N 0.02851 0.17263 0.51205 0.0
N993 N 0.0308 0.23103 0.46195 0.0
C994 C 0.99379 0.23406 0.48242 0.0
C995 C 0.99264 0.20252 0.50962 0.0
C996 C 0.77687 0.08799 0.9809 0.0
C997 C 0.80998 0.05299 0.97611 0.0
C998 C 0.74548 0.0863 0.00738 0.0
C999 C 0.74691 0.0503 0.03068 0.0
H1000 H 0.77727 0.11881 0.96591 0.0
H1001 H 0.72253 0.1153 0.01112 0.0
S1002 S 0.8235 0.94806 0.02781 0.0
N1003 N 0.83902 0.97917 0.99532 0.0
N1004 N 0.78126 0.97687 0.04577 0.0
C1005 C 0.77803 0.01394 0.02528 0.0
C1006 C 0.80929 0.01516 0.99793 0.0
C1007 C 0.46028 0.76219 0.97459 0.0
C1008 C 0.45683 0.81042 0.97682 0.0
C1009 C 0.46012 0.73453 0.00334 0.0
C1010 C 0.45622 0.75448 0.03506 0.0
H1011 H 0.46128 0.74586 0.95046 0.0
H1012 H 0.4621 0.69743 1.00071 0.0
S1013 S 0.44082 0.8793 0.05295 0.0
N1014 N 0.44681 0.8767 0.01228 0.0
N1015 N 0.44573 0.82572 0.0663 0.0
C1016 C 0.45276 0.80294 0.03726 0.0
C1017 C 0.45329 0.83066 0.00813 0.0
C1018 C 0.75229 0.49287 0.018 0.0
C1019 C 0.77494 0.45188 0.02723 0.0
C1020 C 0.71981 0.49341 0.99215 0.0
C1021 C 0.70873 0.45296 0.97479 0.0
H1022 H 0.75806 0.52423 0.03194 0.0
H1023 H 0.7013 0.52499 0.98691 0.0
S1024 S 0.75656 0.33631 0.99059 0.0
N1025 N 0.78408 0.37007 0.01685 0.0
N1026 N 0.72158 0.37051 0.96971 0.0
C1027 C 0.73204 0.41206 0.98327 0.0
C1028 C 0.76566 0.41172 0.00907 0.0
C1029 C 0.09241 0.76896 0.00565 0.0
C1030 C 0.0545 0.77054 0.02727 0.0
C1031 C 0.09369 0.73749 0.97926 0.0
C1032 C 0.05661 0.70733 0.973 0.0
H1033 H 0.12288 0.78926 0.01078 0.0
H1034 H 0.1255 0.73427 0.96564 0.0
S1035 S 0.94649 0.70339 0.01932 0.0
N1036 N 0.97707 0.74317 0.03862 0.0
N1037 N 0.97911 0.68481 0.98853 0.0
C1038 C 0.01712 0.7114 0.99288 0.0
C1039 C 0.0161 0.74287 0.02006 0.0
loop_
_geom_bond_atom_site_label_1
_geom_bond_atom_site_label_2
_geom_bond_distance
_geom_bond_site_symmetry_2
_ccdc_geom_bond_type
Zn0 O1 2.055 . S
Zn0 O8 2.046 . S
Zn0 N16 2.036 . S
Zn0 O28 2.053 . S
Zn0 O30 2.066 . S
O1 Zn0 2.055 . S
O1 C4 1.259 . S
C2 O30 1.256 . S
C2 O31 1.244 . S
Zn3 O5 2.046 . S
Zn3 O7 2.055 . S
Zn3 N9 2.036 . S
Zn3 O27 2.066 . S
Zn3 O31 2.053 . S
C4 O1 1.259 . S
C4 O5 1.254 . S
O5 Zn3 2.046 . S
O5 C4 1.254 . S
C6 O27 1.256 . S
C6 O28 1.244 . S
O7 Zn3 2.055 . S
O7 C29 1.259 . S
O8 Zn0 2.046 . S
O8 C29 1.254 . S
N9 Zn3 2.036 . S
N9 C10 1.298 . S
N9 N12 1.398 . S
C10 N9 1.298 . S
C10 N13 1.367 . S
C10 C23 1.481 . S
C11 N12 1.299 . S
C11 N13 1.379 . S
N12 N9 1.398 . S
N12 C11 1.299 . S
N13 C10 1.367 . S
N13 C11 1.379 . S
C14 N16 1.298 . S
C14 N18 1.367 . S
C14 C22 1.481 . S
C15 N17 1.299 . S
C15 N18 1.379 . S
N16 Zn0 2.036 . S
N16 C14 1.298 . S
N16 N17 1.398 . S
N17 C15 1.299 . S
N17 N16 1.398 . S
N18 C14 1.367 . S
N18 C15 1.379 . S
H19 C22 0.980 . S
H20 C22 0.981 . S
H21 C22 0.981 . S
C22 C14 1.481 . S
C22 H19 0.980 . S
C22 H20 0.981 . S
C22 H21 0.981 . S
C23 C10 1.481 . S
C23 H24 0.980 . S
C23 H25 0.981 . S
C23 H26 0.981 . S
H24 C23 0.980 . S
H25 C23 0.981 . S
H26 C23 0.981 . S
O27 Zn3 2.066 . S
O27 C6 1.256 . S
O28 Zn0 2.053 . S
O28 C6 1.244 . S
C29 O7 1.259 . S
C29 O8 1.254 . S
O30 Zn0 2.066 . S
O30 C2 1.256 . S
O31 C2 1.244 . S
O31 Zn3 2.053 . S
Zn32 O33 2.055 . S
Zn32 O40 2.046 . S
Zn32 N48 2.036 . S
Zn32 O60 2.053 . S
Zn32 O62 2.066 . S
O33 Zn32 2.055 . S
O33 C36 1.259 . S
C34 O62 1.256 . S
C34 O63 1.244 . S
Zn35 O37 2.046 . S
Zn35 O39 2.055 . S
Zn35 N41 2.036 . S
Zn35 O59 2.066 . S
Zn35 O63 2.053 . S
C36 O33 1.259 . S
C36 O37 1.254 . S
O37 Zn35 2.046 . S
O37 C36 1.254 . S
C38 O59 1.256 . S
C38 O60 1.244 . S
O39 Zn35 2.055 . S
O39 C61 1.259 . S
O40 Zn32 2.046 . S
O40 C61 1.254 . S
N41 Zn35 2.036 . S
N41 C42 1.298 . S
N41 N44 1.398 . S
C42 N41 1.298 . S
C42 N45 1.367 . S
C42 C55 1.481 . S
C43 N44 1.299 . S
C43 N45 1.379 . S
N44 N41 1.398 . S
N44 C43 1.299 . S
N45 C42 1.367 . S
N45 C43 1.379 . S
C46 N48 1.298 . S
C46 N50 1.367 . S
C46 C54 1.481 . S
C47 N49 1.299 . S
C47 N50 1.379 . S
N48 Zn32 2.036 . S
N48 C46 1.298 . S
N48 N49 1.398 . S
N49 C47 1.299 . S
N49 N48 1.398 . S
N50 C46 1.367 . S
N50 C47 1.379 . S
H51 C54 0.980 . S
H52 C54 0.981 . S
H53 C54 0.981 . S
C54 C46 1.481 . S
C54 H51 0.980 . S
C54 H52 0.981 . S
C54 H53 0.981 . S
C55 C42 1.481 . S
C55 H56 0.980 . S
C55 H57 0.981 . S
C55 H58 0.981 . S
H56 C55 0.980 . S
H57 C55 0.981 . S
H58 C55 0.981 . S
O59 Zn35 2.066 . S
O59 C38 1.256 . S
O60 Zn32 2.053 . S
O60 C38 1.244 . S
C61 O39 1.259 . S
C61 O40 1.254 . S
O62 Zn32 2.066 . S
O62 C34 1.256 . S
O63 C34 1.244 . S
O63 Zn35 2.053 . S
Zn64 O65 2.055 . S
Zn64 O72 2.046 . S
Zn64 N80 2.036 . S
Zn64 O92 2.053 . S
Zn64 O94 2.066 . S
O65 Zn64 2.055 . S
O65 C68 1.259 . S
C66 O94 1.256 . S
C66 O95 1.244 . S
Zn67 O69 2.046 . S
Zn67 O71 2.055 . S
Zn67 N73 2.036 . S
Zn67 O91 2.066 . S
Zn67 O95 2.053 . S
C68 O65 1.259 . S
C68 O69 1.254 . S
O69 Zn67 2.046 . S
O69 C68 1.254 . S
C70 O91 1.256 . S
C70 O92 1.244 . S
O71 Zn67 2.055 . S
O71 C93 1.259 . S
O72 Zn64 2.046 . S
O72 C93 1.254 . S
N73 Zn67 2.036 . S
N73 C74 1.298 . S
N73 N76 1.398 . S
C74 N73 1.298 . S
C74 N77 1.367 . S
C74 C87 1.481 . S
C75 N76 1.299 . S
C75 N77 1.379 . S
N76 N73 1.398 . S
N76 C75 1.299 . S
N77 C74 1.367 . S
N77 C75 1.379 . S
C78 N80 1.298 1_455 S
C78 N82 1.367 . S
C78 C86 1.481 . S
C79 N81 1.299 1_455 S
C79 N82 1.379 . S
N80 Zn64 2.036 . S
N80 C78 1.298 1_655 S
N80 N81 1.398 . S
N81 C79 1.299 1_655 S
N81 N80 1.398 . S
N82 C78 1.367 . S
N82 C79 1.379 . S
H83 C86 0.980 1_655 S
H84 C86 0.981 . S
H85 C86 0.981 . S
C86 C78 1.481 . S
C86 H83 0.980 1_455 S
C86 H84 0.981 . S
C86 H85 0.981 . S
C87 C74 1.481 . S
C87 H88 0.980 . S
C87 H89 0.981 . S
C87 H90 0.981 . S
H88 C87 0.980 . S
H89 C87 0.981 . S
H90 C87 0.981 . S
O91 Zn67 2.066 . S
O91 C70 1.256 . S
O92 Zn64 2.053 . S
O92 C70 1.244 . S
C93 O71 1.259 . S
C93 O72 1.254 . S
O94 Zn64 2.066 . S
O94 C66 1.256 . S
O95 C66 1.244 . S
O95 Zn67 2.053 . S
Zn96 O97 2.055 . S
Zn96 O104 2.046 . S
Zn96 N112 2.036 . S
Zn96 O124 2.053 . S
Zn96 O126 2.066 . S
O97 Zn96 2.055 . S
O97 C100 1.259 . S
C98 O126 1.256 . S
C98 O127 1.244 . S
Zn99 O101 2.046 . S
Zn99 O103 2.055 . S
Zn99 N105 2.036 . S
Zn99 O123 2.066 . S
Zn99 O127 2.053 . S
C100 O97 1.259 . S
C100 O101 1.254 . S
O101 Zn99 2.046 . S
O101 C100 1.254 . S
C102 O123 1.256 . S
C102 O124 1.244 . S
O103 Zn99 2.055 . S
O103 C125 1.259 . S
O104 Zn96 2.046 . S
O104 C125 1.254 . S
N105 Zn99 2.036 . S
N105 C106 1.298 1_565 S
N105 N108 1.398 . S
C106 N105 1.298 1_545 S
C106 N109 1.367 . S
C106 C119 1.481 . S
C107 N108 1.299 1_545 S
C107 N109 1.379 . S
N108 N105 1.398 . S
N108 C107 1.299 1_565 S
N109 C106 1.367 . S
N109 C107 1.379 . S
C110 N112 1.298 . S
C110 N114 1.367 . S
C110 C118 1.481 . S
C111 N113 1.299 . S
C111 N114 1.379 . S
N112 Zn96 2.036 . S
N112 C110 1.298 . S
N112 N113 1.398 . S
N113 C111 1.299 . S
N113 N112 1.398 . S
N114 C110 1.367 . S
N114 C111 1.379 . S
H115 C118 0.980 . S
H116 C118 0.981 . S
H117 C118 0.981 . S
C118 C110 1.481 . S
C118 H115 0.980 . S
C118 H116 0.981 . S
C118 H117 0.981 . S
C119 C106 1.481 . S
C119 H120 0.980 1_545 S
C119 H121 0.981 . S
C119 H122 0.981 . S
H120 C119 0.980 1_565 S
H121 C119 0.981 . S
H122 C119 0.981 . S
O123 Zn99 2.066 . S
O123 C102 1.256 . S
O124 Zn96 2.053 . S
O124 C102 1.244 . S
C125 O103 1.259 . S
C125 O104 1.254 . S
O126 Zn96 2.066 . S
O126 C98 1.256 . S
O127 C98 1.244 . S
O127 Zn99 2.053 . S
Zn128 O129 2.055 . S
Zn128 O136 2.046 . S
Zn128 N144 2.036 . S
Zn128 O156 2.053 . S
Zn128 O158 2.066 . S
O129 Zn128 2.055 . S
O129 C132 1.259 . S
C130 O158 1.256 . S
C130 O159 1.244 . S
Zn131 O133 2.046 . S
Zn131 O135 2.055 . S
Zn131 N137 2.036 . S
Zn131 O155 2.066 . S
Zn131 O159 2.053 . S
C132 O129 1.259 . S
C132 O133 1.254 . S
O133 Zn131 2.046 . S
O133 C132 1.254 . S
C134 O155 1.256 . S
C134 O156 1.244 . S
O135 Zn131 2.055 . S
O135 C157 1.259 . S
O136 Zn128 2.046 . S
O136 C157 1.254 . S
N137 Zn131 2.036 . S
N137 C138 1.298 . S
N137 N140 1.398 . S
C138 N137 1.298 . S
C138 N141 1.367 . S
C138 C151 1.481 . S
C139 N140 1.299 . S
C139 N141 1.379 . S
N140 N137 1.398 . S
N140 C139 1.299 . S
N141 C138 1.367 . S
N141 C139 1.379 . S
C142 N144 1.298 1_655 S
C142 N146 1.367 . S
C142 C150 1.481 . S
C143 N145 1.299 1_655 S
C143 N146 1.379 . S
N144 Zn128 2.036 . S
N144 C142 1.298 1_455 S
N144 N145 1.398 . S
N145 C143 1.299 1_455 S
N145 N144 1.398 . S
N146 C142 1.367 . S
N146 C143 1.379 . S
H147 C150 0.980 1_455 S
H148 C150 0.981 . S
H149 C150 0.981 . S
C150 C142 1.481 . S
C150 H147 0.980 1_655 S
C150 H148 0.981 . S
C150 H149 0.981 . S
C151 C138 1.481 . S
C151 H152 0.980 . S
C151 H153 0.981 . S
C151 H154 0.981 . S
H152 C151 0.980 . S
H153 C151 0.981 . S
H154 C151 0.981 . S
O155 Zn131 2.066 . S
O155 C134 1.256 . S
O156 Zn128 2.053 . S
O156 C134 1.244 . S
C157 O135 1.259 . S
C157 O136 1.254 . S
O158 Zn128 2.066 . S
O158 C130 1.256 . S
O159 C130 1.244 . S
O159 Zn131 2.053 . S
Zn160 O161 2.055 . S
Zn160 O168 2.046 . S
Zn160 N176 2.036 . S
Zn160 O188 2.053 . S
Zn160 O190 2.066 . S
O161 Zn160 2.055 . S
O161 C164 1.259 . S
C162 O190 1.256 . S
C162 O191 1.244 . S
Zn163 O165 2.046 . S
Zn163 O167 2.055 . S
Zn163 N169 2.036 . S
Zn163 O187 2.066 . S
Zn163 O191 2.053 . S
C164 O161 1.259 . S
C164 O165 1.254 . S
O165 Zn163 2.046 . S
O165 C164 1.254 . S
C166 O187 1.256 . S
C166 O188 1.244 . S
O167 Zn163 2.055 . S
O167 C189 1.259 . S
O168 Zn160 2.046 . S
O168 C189 1.254 . S
N169 Zn163 2.036 . S
N169 C170 1.298 . S
N169 N172 1.398 . S
C170 N169 1.298 . S
C170 N173 1.367 . S
C170 C183 1.481 . S
C171 N172 1.299 . S
C171 N173 1.379 . S
N172 N169 1.398 . S
N172 C171 1.299 . S
N173 C170 1.367 . S
N173 C171 1.379 . S
C174 N176 1.298 1_565 S
C174 N178 1.367 . S
C174 C182 1.481 . S
C175 N177 1.299 1_565 S
C175 N178 1.379 . S
N176 Zn160 2.036 . S
N176 C174 1.298 1_545 S
N176 N177 1.398 . S
N177 C175 1.299 1_545 S
N177 N176 1.398 . S
N178 C174 1.367 . S
N178 C175 1.379 . S
H179 C182 0.980 1_545 S
H180 C182 0.981 . S
H181 C182 0.981 . S
C182 C174 1.481 . S
C182 H179 0.980 1_565 S
C182 H180 0.981 . S
C182 H181 0.981 . S
C183 C170 1.481 . S
C183 H184 0.980 . S
C183 H185 0.981 . S
C183 H186 0.981 . S
H184 C183 0.980 . S
H185 C183 0.981 . S
H186 C183 0.981 . S
O187 Zn163 2.066 . S
O187 C166 1.256 . S
O188 Zn160 2.053 . S
O188 C166 1.244 . S
C189 O167 1.259 . S
C189 O168 1.254 . S
O190 Zn160 2.066 . S
O190 C162 1.256 . S
O191 C162 1.244 . S
O191 Zn163 2.053 . S
Zn192 O193 2.055 . S
Zn192 O200 2.046 . S
Zn192 N208 2.036 . S
Zn192 O220 2.053 . S
Zn192 O222 2.066 . S
O193 Zn192 2.055 . S
O193 C196 1.259 . S
C194 O222 1.256 . S
C194 O223 1.244 . S
Zn195 O197 2.046 . S
Zn195 O199 2.055 . S
Zn195 N201 2.036 . S
Zn195 O219 2.066 . S
Zn195 O223 2.053 . S
C196 O193 1.259 . S
C196 O197 1.254 . S
O197 Zn195 2.046 . S
O197 C196 1.254 . S
C198 O219 1.256 . S
C198 O220 1.244 . S
O199 Zn195 2.055 . S
O199 C221 1.259 . S
O200 Zn192 2.046 . S
O200 C221 1.254 . S
N201 Zn195 2.036 . S
N201 C202 1.298 . S
N201 N204 1.398 . S
C202 N201 1.298 . S
C202 N205 1.367 . S
C202 C215 1.481 . S
C203 N204 1.299 . S
C203 N205 1.379 . S
N204 N201 1.398 . S
N204 C203 1.299 . S
N205 C202 1.367 . S
N205 C203 1.379 . S
C206 N208 1.298 . S
C206 N210 1.367 . S
C206 C214 1.481 . S
C207 N209 1.299 . S
C207 N210 1.379 . S
N208 Zn192 2.036 . S
N208 C206 1.298 . S
N208 N209 1.398 . S
N209 C207 1.299 . S
N209 N208 1.398 . S
N210 C206 1.367 . S
N210 C207 1.379 . S
H211 C214 0.980 . S
H212 C214 0.981 . S
H213 C214 0.981 . S
C214 C206 1.481 . S
C214 H211 0.980 . S
C214 H212 0.981 . S
C214 H213 0.981 . S
C215 C202 1.481 . S
C215 H216 0.980 . S
C215 H217 0.981 . S
C215 H218 0.981 . S
H216 C215 0.980 . S
H217 C215 0.981 . S
H218 C215 0.981 . S
O219 Zn195 2.066 . S
O219 C198 1.256 . S
O220 Zn192 2.053 . S
O220 C198 1.244 . S
C221 O199 1.259 . S
C221 O200 1.254 . S
O222 Zn192 2.066 . S
O222 C194 1.256 . S
O223 C194 1.244 . S
O223 Zn195 2.053 . S
Zn224 O225 2.055 . S
Zn224 O232 2.046 . S
Zn224 N240 2.036 . S
Zn224 O252 2.053 . S
Zn224 O254 2.066 . S
O225 Zn224 2.055 . S
O225 C228 1.259 . S
C226 O254 1.256 . S
C226 O255 1.244 . S
Zn227 O229 2.046 . S
Zn227 O231 2.055 . S
Zn227 N233 2.036 . S
Zn227 O251 2.066 . S
Zn227 O255 2.053 . S
C228 O225 1.259 . S
C228 O229 1.254 . S
O229 Zn227 2.046 . S
O229 C228 1.254 . S
C230 O251 1.256 . S
C230 O252 1.244 . S
O231 Zn227 2.055 . S
O231 C253 1.259 . S
O232 Zn224 2.046 . S
O232 C253 1.254 . S
N233 Zn227 2.036 . S
N233 C234 1.298 . S
N233 N236 1.398 . S
C234 N233 1.298 . S
C234 N237 1.367 . S
C234 C247 1.481 . S
C235 N236 1.299 . S
C235 N237 1.379 . S
N236 N233 1.398 . S
N236 C235 1.299 . S
N237 C234 1.367 . S
N237 C235 1.379 . S
C238 N240 1.298 . S
C238 N242 1.367 . S
C238 C246 1.481 . S
C239 N241 1.299 . S
C239 N242 1.379 . S
N240 Zn224 2.036 . S
N240 C238 1.298 . S
N240 N241 1.398 . S
N241 C239 1.299 . S
N241 N240 1.398 . S
N242 C238 1.367 . S
N242 C239 1.379 . S
H243 C246 0.980 . S
H244 C246 0.981 . S
H245 C246 0.981 . S
C246 C238 1.481 . S
C246 H243 0.980 . S
C246 H244 0.981 . S
C246 H245 0.981 . S
C247 C234 1.481 . S
C247 H248 0.980 . S
C247 H249 0.981 . S
C247 H250 0.981 . S
H248 C247 0.980 . S
H249 C247 0.981 . S
H250 C247 0.981 . S
O251 Zn227 2.066 . S
O251 C230 1.256 . S
O252 Zn224 2.053 . S
O252 C230 1.244 . S
C253 O231 1.259 . S
C253 O232 1.254 . S
O254 Zn224 2.066 . S
O254 C226 1.256 . S
O255 C226 1.244 . S
O255 Zn227 2.053 . S
Zn256 O257 2.055 . S
Zn256 O264 2.046 . S
Zn256 N272 2.036 . S
Zn256 O284 2.053 . S
Zn256 O286 2.066 . S
O257 Zn256 2.055 . S
O257 C260 1.259 . S
C258 O286 1.256 . S
C258 O287 1.244 . S
Zn259 O261 2.046 . S
Zn259 O263 2.055 . S
Zn259 N265 2.036 . S
Zn259 O283 2.066 . S
Zn259 O287 2.053 . S
C260 O257 1.259 . S
C260 O261 1.254 . S
O261 Zn259 2.046 . S
O261 C260 1.254 . S
C262 O283 1.256 . S
C262 O284 1.244 . S
O263 Zn259 2.055 . S
O263 C285 1.259 . S
O264 Zn256 2.046 . S
O264 C285 1.254 . S
N265 Zn259 2.036 . S
N265 C266 1.298 . S
N265 N268 1.398 . S
C266 N265 1.298 . S
C266 N269 1.367 . S
C266 C279 1.481 . S
C267 N268 1.299 . S
C267 N269 1.379 . S
N268 N265 1.398 . S
N268 C267 1.299 . S
N269 C266 1.367 . S
N269 C267 1.379 . S
C270 N272 1.298 . S
C270 N274 1.367 . S
C270 C278 1.481 . S
C271 N273 1.299 . S
C271 N274 1.379 . S
N272 Zn256 2.036 . S
N272 C270 1.298 . S
N272 N273 1.398 . S
N273 C271 1.299 . S
N273 N272 1.398 . S
N274 C270 1.367 . S
N274 C271 1.379 . S
H275 C278 0.980 . S
H276 C278 0.981 . S
H277 C278 0.981 . S
C278 C270 1.481 . S
C278 H275 0.980 . S
C278 H276 0.981 . S
C278 H277 0.981 . S
C279 C266 1.481 . S
C279 H280 0.980 . S
C279 H281 0.981 . S
C279 H282 0.981 . S
H280 C279 0.980 . S
H281 C279 0.981 . S
H282 C279 0.981 . S
O283 Zn259 2.066 . S
O283 C262 1.256 . S
O284 Zn256 2.053 . S
O284 C262 1.244 . S
C285 O263 1.259 . S
C285 O264 1.254 . S
O286 Zn256 2.066 . S
O286 C258 1.256 . S
O287 C258 1.244 . S
O287 Zn259 2.053 . S
Zn288 O289 2.055 . S
Zn288 O296 2.046 . S
Zn288 N304 2.036 . S
Zn288 O316 2.053 . S
Zn288 O318 2.066 . S
O289 Zn288 2.055 . S
O289 C292 1.259 . S
C290 O318 1.256 . S
C290 O319 1.244 . S
Zn291 O293 2.046 . S
Zn291 O295 2.055 . S
Zn291 N297 2.036 . S
Zn291 O315 2.066 . S
Zn291 O319 2.053 . S
C292 O289 1.259 . S
C292 O293 1.254 . S
O293 Zn291 2.046 . S
O293 C292 1.254 . S
C294 O315 1.256 . S
C294 O316 1.244 . S
O295 Zn291 2.055 . S
O295 C317 1.259 . S
O296 Zn288 2.046 . S
O296 C317 1.254 . S
N297 Zn291 2.036 . S
N297 C298 1.298 . S
N297 N300 1.398 . S
C298 N297 1.298 . S
C298 N301 1.367 . S
C298 C311 1.481 . S
C299 N300 1.299 . S
C299 N301 1.379 . S
N300 N297 1.398 . S
N300 C299 1.299 . S
N301 C298 1.367 . S
N301 C299 1.379 . S
C302 N304 1.298 . S
C302 N306 1.367 . S
C302 C310 1.481 . S
C303 N305 1.299 . S
C303 N306 1.379 . S
N304 Zn288 2.036 . S
N304 C302 1.298 . S
N304 N305 1.398 . S
N305 C303 1.299 . S
N305 N304 1.398 . S
N306 C302 1.367 . S
N306 C303 1.379 . S
H307 C310 0.980 . S
H308 C310 0.981 . S
H309 C310 0.981 . S
C310 C302 1.481 . S
C310 H307 0.980 . S
C310 H308 0.981 . S
C310 H309 0.981 . S
C311 C298 1.481 . S
C311 H312 0.980 . S
C311 H313 0.981 . S
C311 H314 0.981 . S
H312 C311 0.980 . S
H313 C311 0.981 . S
H314 C311 0.981 . S
O315 Zn291 2.066 . S
O315 C294 1.256 . S
O316 Zn288 2.053 . S
O316 C294 1.244 . S
C317 O295 1.259 . S
C317 O296 1.254 . S
O318 Zn288 2.066 . S
O318 C290 1.256 . S
O319 C290 1.244 . S
O319 Zn291 2.053 . S
Zn320 O321 2.055 . S
Zn320 O328 2.046 . S
Zn320 N336 2.036 . S
Zn320 O348 2.053 . S
Zn320 O350 2.066 . S
O321 Zn320 2.055 . S
O321 C324 1.259 . S
C322 O350 1.256 . S
C322 O351 1.244 . S
Zn323 O325 2.046 . S
Zn323 O327 2.055 . S
Zn323 N329 2.036 . S
Zn323 O347 2.066 . S
Zn323 O351 2.053 . S
C324 O321 1.259 . S
C324 O325 1.254 . S
O325 Zn323 2.046 . S
O325 C324 1.254 . S
C326 O347 1.256 . S
C326 O348 1.244 . S
O327 Zn323 2.055 . S
O327 C349 1.259 . S
O328 Zn320 2.046 . S
O328 C349 1.254 . S
N329 Zn323 2.036 . S
N329 C330 1.298 1_455 S
N329 N332 1.398 . S
C330 N329 1.298 1_655 S
C330 N333 1.367 . S
C330 C343 1.481 . S
C331 N332 1.299 1_655 S
C331 N333 1.379 . S
N332 N329 1.398 . S
N332 C331 1.299 1_455 S
N333 C330 1.367 . S
N333 C331 1.379 . S
C334 N336 1.298 . S
C334 N338 1.367 . S
C334 C342 1.481 . S
C335 N337 1.299 . S
C335 N338 1.379 . S
N336 Zn320 2.036 . S
N336 C334 1.298 . S
N336 N337 1.398 . S
N337 C335 1.299 . S
N337 N336 1.398 . S
N338 C334 1.367 . S
N338 C335 1.379 . S
H339 C342 0.980 . S
H340 C342 0.981 . S
H341 C342 0.981 . S
C342 C334 1.481 . S
C342 H339 0.980 . S
C342 H340 0.981 . S
C342 H341 0.981 . S
C343 C330 1.481 . S
C343 H344 0.980 1_655 S
C343 H345 0.981 . S
C343 H346 0.981 . S
H344 C343 0.980 1_455 S
H345 C343 0.981 . S
H346 C343 0.981 . S
O347 Zn323 2.066 . S
O347 C326 1.256 . S
O348 Zn320 2.053 . S
O348 C326 1.244 . S
C349 O327 1.259 . S
C349 O328 1.254 . S
O350 Zn320 2.066 . S
O350 C322 1.256 . S
O351 C322 1.244 . S
O351 Zn323 2.053 . S
Zn352 O353 2.055 . S
Zn352 O360 2.046 . S
Zn352 N368 2.036 . S
Zn352 O380 2.053 . S
Zn352 O382 2.066 . S
O353 Zn352 2.055 . S
O353 C356 1.259 . S
C354 O382 1.256 . S
C354 O383 1.244 . S
Zn355 O357 2.046 . S
Zn355 O359 2.055 . S
Zn355 N361 2.036 . S
Zn355 O379 2.066 . S
Zn355 O383 2.053 . S
C356 O353 1.259 . S
C356 O357 1.254 . S
O357 Zn355 2.046 . S
O357 C356 1.254 . S
C358 O379 1.256 . S
C358 O380 1.244 . S
O359 Zn355 2.055 . S
O359 C381 1.259 . S
O360 Zn352 2.046 . S
O360 C381 1.254 . S
N361 Zn355 2.036 . S
N361 C362 1.298 1_545 S
N361 N364 1.398 . S
C362 N361 1.298 1_565 S
C362 N365 1.367 . S
C362 C375 1.481 . S
C363 N364 1.299 1_565 S
C363 N365 1.379 . S
N364 N361 1.398 . S
N364 C363 1.299 1_545 S
N365 C362 1.367 . S
N365 C363 1.379 . S
C366 N368 1.298 . S
C366 N370 1.367 . S
C366 C374 1.481 . S
C367 N369 1.299 . S
C367 N370 1.379 . S
N368 Zn352 2.036 . S
N368 C366 1.298 . S
N368 N369 1.398 . S
N369 C367 1.299 . S
N369 N368 1.398 . S
N370 C366 1.367 . S
N370 C367 1.379 . S
H371 C374 0.980 . S
H372 C374 0.981 . S
H373 C374 0.981 . S
C374 C366 1.481 . S
C374 H371 0.980 . S
C374 H372 0.981 . S
C374 H373 0.981 . S
C375 C362 1.481 . S
C375 H376 0.980 1_565 S
C375 H377 0.981 . S
C375 H378 0.981 . S
H376 C375 0.980 1_545 S
H377 C375 0.981 . S
H378 C375 0.981 . S
O379 Zn355 2.066 . S
O379 C358 1.256 . S
O380 Zn352 2.053 . S
O380 C358 1.244 . S
C381 O359 1.259 . S
C381 O360 1.254 . S
O382 Zn352 2.066 . S
O382 C354 1.256 . S
O383 C354 1.244 . S
O383 Zn355 2.053 . S
Zn384 O385 2.055 . S
Zn384 O392 2.046 . S
Zn384 N400 2.036 . S
Zn384 O412 2.053 . S
Zn384 O414 2.066 . S
O385 Zn384 2.055 . S
O385 C388 1.259 . S
C386 O414 1.256 . S
C386 O415 1.244 . S
Zn387 O389 2.046 . S
Zn387 O391 2.055 . S
Zn387 N393 2.036 . S
Zn387 O411 2.066 . S
Zn387 O415 2.053 . S
C388 O385 1.259 . S
C388 O389 1.254 . S
O389 Zn387 2.046 . S
O389 C388 1.254 . S
C390 O411 1.256 . S
C390 O412 1.244 . S
O391 Zn387 2.055 . S
O391 C413 1.259 . S
O392 Zn384 2.046 . S
O392 C413 1.254 . S
N393 Zn387 2.036 . S
N393 C394 1.298 . S
N393 N396 1.398 . S
C394 N393 1.298 . S
C394 N397 1.367 . S
C394 C407 1.481 . S
C395 N396 1.299 . S
C395 N397 1.379 . S
N396 N393 1.398 . S
N396 C395 1.299 . S
N397 C394 1.367 . S
N397 C395 1.379 . S
C398 N400 1.298 1_455 S
C398 N402 1.367 . S
C398 C406 1.481 . S
C399 N401 1.299 1_455 S
C399 N402 1.379 . S
N400 Zn384 2.036 . S
N400 C398 1.298 1_655 S
N400 N401 1.398 . S
N401 C399 1.299 1_655 S
N401 N400 1.398 . S
N402 C398 1.367 . S
N402 C399 1.379 . S
H403 C406 0.980 1_655 S
H404 C406 0.981 . S
H405 C406 0.981 . S
C406 C398 1.481 . S
C406 H403 0.980 1_455 S
C406 H404 0.981 . S
C406 H405 0.981 . S
C407 C394 1.481 . S
C407 H408 0.980 . S
C407 H409 0.981 . S
C407 H410 0.981 . S
H408 C407 0.980 . S
H409 C407 0.981 . S
H410 C407 0.981 . S
O411 Zn387 2.066 . S
O411 C390 1.256 . S
O412 Zn384 2.053 . S
O412 C390 1.244 . S
C413 O391 1.259 . S
C413 O392 1.254 . S
O414 Zn384 2.066 . S
O414 C386 1.256 . S
O415 C386 1.244 . S
O415 Zn387 2.053 . S
Zn416 O417 2.055 . S
Zn416 O424 2.046 . S
Zn416 N432 2.036 . S
Zn416 O444 2.053 . S
Zn416 O446 2.066 . S
O417 Zn416 2.055 . S
O417 C420 1.259 . S
C418 O446 1.256 . S
C418 O447 1.244 . S
Zn419 O421 2.046 . S
Zn419 O423 2.055 . S
Zn419 N425 2.036 . S
Zn419 O443 2.066 . S
Zn419 O447 2.053 . S
C420 O417 1.259 . S
C420 O421 1.254 . S
O421 Zn419 2.046 . S
O421 C420 1.254 . S
C422 O443 1.256 . S
C422 O444 1.244 . S
O423 Zn419 2.055 . S
O423 C445 1.259 . S
O424 Zn416 2.046 . S
O424 C445 1.254 . S
N425 Zn419 2.036 . S
N425 C426 1.298 1_565 S
N425 N428 1.398 . S
C426 N425 1.298 1_545 S
C426 N429 1.367 . S
C426 C439 1.481 . S
C427 N428 1.299 1_545 S
C427 N429 1.379 . S
N428 N425 1.398 . S
N428 C427 1.299 1_565 S
N429 C426 1.367 . S
N429 C427 1.379 . S
C430 N432 1.298 . S
C430 N434 1.367 . S
C430 C438 1.481 . S
C431 N433 1.299 . S
C431 N434 1.379 . S
N432 Zn416 2.036 . S
N432 C430 1.298 . S
N432 N433 1.398 . S
N433 C431 1.299 . S
N433 N432 1.398 . S
N434 C430 1.367 . S
N434 C431 1.379 . S
H435 C438 0.980 . S
H436 C438 0.981 . S
H437 C438 0.981 . S
C438 C430 1.481 . S
C438 H435 0.980 . S
C438 H436 0.981 . S
C438 H437 0.981 . S
C439 C426 1.481 . S
C439 H440 0.980 1_545 S
C439 H441 0.981 . S
C439 H442 0.981 . S
H440 C439 0.980 1_565 S
H441 C439 0.981 . S
H442 C439 0.981 . S
O443 Zn419 2.066 . S
O443 C422 1.256 . S
O444 Zn416 2.053 . S
O444 C422 1.244 . S
C445 O423 1.259 . S
C445 O424 1.254 . S
O446 Zn416 2.066 . S
O446 C418 1.256 . S
O447 C418 1.244 . S
O447 Zn419 2.053 . S
Zn448 O449 2.055 . S
Zn448 O456 2.046 . S
Zn448 N464 2.036 . S
Zn448 O476 2.053 . S
Zn448 O478 2.066 . S
O449 Zn448 2.055 . S
O449 C452 1.259 . S
C450 O478 1.256 . S
C450 O479 1.244 . S
Zn451 O453 2.046 . S
Zn451 O455 2.055 . S
Zn451 N457 2.036 . S
Zn451 O475 2.066 . S
Zn451 O479 2.053 . S
C452 O449 1.259 . S
C452 O453 1.254 . S
O453 Zn451 2.046 . S
O453 C452 1.254 . S
C454 O475 1.256 . S
C454 O476 1.244 . S
O455 Zn451 2.055 . S
O455 C477 1.259 . S
O456 Zn448 2.046 . S
O456 C477 1.254 . S
N457 Zn451 2.036 . S
N457 C458 1.298 . S
N457 N460 1.398 . S
C458 N457 1.298 . S
C458 N461 1.367 . S
C458 C471 1.481 . S
C459 N460 1.299 . S
C459 N461 1.379 . S
N460 N457 1.398 . S
N460 C459 1.299 . S
N461 C458 1.367 . S
N461 C459 1.379 . S
C462 N464 1.298 . S
C462 N466 1.367 . S
C462 C470 1.481 . S
C463 N465 1.299 . S
C463 N466 1.379 . S
N464 Zn448 2.036 . S
N464 C462 1.298 . S
N464 N465 1.398 . S
N465 C463 1.299 . S
N465 N464 1.398 . S
N466 C462 1.367 . S
N466 C463 1.379 . S
H467 C470 0.980 . S
H468 C470 0.981 . S
H469 C470 0.981 . S
C470 C462 1.481 . S
C470 H467 0.980 . S
C470 H468 0.981 . S
C470 H469 0.981 . S
C471 C458 1.481 . S
C471 H472 0.980 . S
C471 H473 0.981 . S
C471 H474 0.981 . S
H472 C471 0.980 . S
H473 C471 0.981 . S
H474 C471 0.981 . S
O475 Zn451 2.066 . S
O475 C454 1.256 . S
O476 Zn448 2.053 . S
O476 C454 1.244 . S
C477 O455 1.259 . S
C477 O456 1.254 . S
O478 Zn448 2.066 . S
O478 C450 1.256 . S
O479 C450 1.244 . S
O479 Zn451 2.053 . S
Zn480 O481 2.055 . S
Zn480 O488 2.046 . S
Zn480 N496 2.036 . S
Zn480 O508 2.053 . S
Zn480 O510 2.066 . S
O481 Zn480 2.055 . S
O481 C484 1.259 . S
C482 O510 1.256 . S
C482 O511 1.244 . S
Zn483 O485 2.046 . S
Zn483 O487 2.055 . S
Zn483 N489 2.036 . S
Zn483 O507 2.066 . S
Zn483 O511 2.053 . S
C484 O481 1.259 . S
C484 O485 1.254 . S
O485 Zn483 2.046 . S
O485 C484 1.254 . S
C486 O507 1.256 . S
C486 O508 1.244 . S
O487 Zn483 2.055 . S
O487 C509 1.259 . S
O488 Zn480 2.046 . S
O488 C509 1.254 . S
N489 Zn483 2.036 . S
N489 C490 1.298 . S
N489 N492 1.398 . S
C490 N489 1.298 . S
C490 N493 1.367 . S
C490 C503 1.481 . S
C491 N492 1.299 . S
C491 N493 1.379 . S
N492 N489 1.398 . S
N492 C491 1.299 . S
N493 C490 1.367 . S
N493 C491 1.379 . S
C494 N496 1.298 . S
C494 N498 1.367 . S
C494 C502 1.481 . S
C495 N497 1.299 . S
C495 N498 1.379 . S
N496 Zn480 2.036 . S
N496 C494 1.298 . S
N496 N497 1.398 . S
N497 C495 1.299 . S
N497 N496 1.398 . S
N498 C494 1.367 . S
N498 C495 1.379 . S
H499 C502 0.980 . S
H500 C502 0.981 . S
H501 C502 0.981 . S
C502 C494 1.481 . S
C502 H499 0.980 . S
C502 H500 0.981 . S
C502 H501 0.981 . S
C503 C490 1.481 . S
C503 H504 0.980 . S
C503 H505 0.981 . S
C503 H506 0.981 . S
H504 C503 0.980 . S
H505 C503 0.981 . S
H506 C503 0.981 . S
O507 Zn483 2.066 . S
O507 C486 1.256 . S
O508 Zn480 2.053 . S
O508 C486 1.244 . S
C509 O487 1.259 . S
C509 O488 1.254 . S
O510 Zn480 2.066 . S
O510 C482 1.256 . S
O511 C482 1.244 . S
O511 Zn483 2.053 . S
C512 C513 1.369 . S
C512 C514 1.419 . S
C512 H516 0.930 . S
C513 C512 1.369 . S
C513 C522 1.429 . S
C514 C512 1.419 . S
C514 C515 1.363 . S
C514 H517 0.929 . S
C515 C514 1.363 . S
C515 C521 1.428 . S
H516 C512 0.930 . S
H517 C514 0.929 . S
S518 N519 1.613 . S
S518 N520 1.610 . S
N519 S518 1.613 . S
N519 C522 1.350 . S
N520 S518 1.610 . S
N520 C521 1.351 . S
C521 C515 1.428 . S
C521 N520 1.351 . S
C521 C522 1.434 . S
C522 C513 1.429 . S
C522 N519 1.350 . S
C522 C521 1.434 . S
C523 C524 1.369 . S
C523 C525 1.419 . S
C523 H527 0.930 . S
C524 C523 1.369 . S
C524 C533 1.429 . S
C525 C523 1.419 . S
C525 C526 1.363 . S
C525 H528 0.929 . S
C526 C525 1.363 . S
C526 C532 1.428 . S
H527 C523 0.930 . S
H528 C525 0.929 . S
S529 N530 1.613 . S
S529 N531 1.610 . S
N530 S529 1.613 . S
N530 C533 1.350 . S
N531 S529 1.610 . S
N531 C532 1.351 . S
C532 C526 1.428 . S
C532 N531 1.351 . S
C532 C533 1.434 . S
C533 C524 1.429 . S
C533 N530 1.350 . S
C533 C532 1.434 . S
C534 C535 1.369 . S
C534 C536 1.419 . S
C534 H538 0.930 . S
C535 C534 1.369 . S
C535 C544 1.429 . S
C536 C534 1.419 . S
C536 C537 1.363 . S
C536 H539 0.929 . S
C537 C536 1.363 . S
C537 C543 1.428 . S
H538 C534 0.930 . S
H539 C536 0.929 . S
S540 N541 1.613 . S
S540 N542 1.610 . S
N541 S540 1.613 . S
N541 C544 1.350 . S
N542 S540 1.610 . S
N542 C543 1.351 . S
C543 C537 1.428 . S
C543 N542 1.351 . S
C543 C544 1.434 . S
C544 C535 1.429 . S
C544 N541 1.350 . S
C544 C543 1.434 . S
C545 C546 1.369 . S
C545 C547 1.419 . S
C545 H549 0.930 . S
C546 C545 1.369 . S
C546 C555 1.429 . S
C547 C545 1.419 . S
C547 C548 1.363 . S
C547 H550 0.929 . S
C548 C547 1.363 . S
C548 C554 1.428 . S
H549 C545 0.930 . S
H550 C547 0.929 . S
S551 N552 1.613 . S
S551 N553 1.610 . S
N552 S551 1.613 . S
N552 C555 1.350 . S
N553 S551 1.610 . S
N553 C554 1.351 . S
C554 C548 1.428 . S
C554 N553 1.351 . S
C554 C555 1.434 . S
C555 C546 1.429 . S
C555 N552 1.350 . S
C555 C554 1.434 . S
C556 C557 1.369 . S
C556 C558 1.419 . S
C556 H560 0.930 . S
C557 C556 1.369 . S
C557 C566 1.429 . S
C558 C556 1.419 . S
C558 C559 1.363 . S
C558 H561 0.929 . S
C559 C558 1.363 . S
C559 C565 1.428 . S
H560 C556 0.930 . S
H561 C558 0.929 . S
S562 N563 1.613 . S
S562 N564 1.610 . S
N563 S562 1.613 . S
N563 C566 1.350 . S
N564 S562 1.610 . S
N564 C565 1.351 . S
C565 C559 1.428 . S
C565 N564 1.351 . S
C565 C566 1.434 . S
C566 C557 1.429 . S
C566 N563 1.350 . S
C566 C565 1.434 . S
C567 C568 1.369 . S
C567 C569 1.419 . S
C567 H571 0.930 . S
C568 C567 1.369 . S
C568 C577 1.429 . S
C569 C567 1.419 . S
C569 C570 1.363 . S
C569 H572 0.929 . S
C570 C569 1.363 . S
C570 C576 1.428 . S
H571 C567 0.930 . S
H572 C569 0.929 . S
S573 N574 1.613 . S
S573 N575 1.610 . S
N574 S573 1.613 . S
N574 C577 1.350 . S
N575 S573 1.610 . S
N575 C576 1.351 . S
C576 C570 1.428 . S
C576 N575 1.351 . S
C576 C577 1.434 . S
C577 C568 1.429 . S
C577 N574 1.350 . S
C577 C576 1.434 . S
C578 C579 1.369 . S
C578 C580 1.419 . S
C578 H582 0.930 . S
C579 C578 1.369 . S
C579 C588 1.429 . S
C580 C578 1.419 . S
C580 C581 1.363 . S
C580 H583 0.929 . S
C581 C580 1.363 . S
C581 C587 1.428 . S
H582 C578 0.930 . S
H583 C580 0.929 . S
S584 N585 1.613 . S
S584 N586 1.610 . S
N585 S584 1.613 . S
N585 C588 1.350 . S
N586 S584 1.610 . S
N586 C587 1.351 . S
C587 C581 1.428 . S
C587 N586 1.351 . S
C587 C588 1.434 . S
C588 C579 1.429 . S
C588 N585 1.350 . S
C588 C587 1.434 . S
C589 C590 1.369 . S
C589 C591 1.419 . S
C589 H593 0.930 . S
C590 C589 1.369 . S
C590 C599 1.429 . S
C591 C589 1.419 . S
C591 C592 1.363 . S
C591 H594 0.929 . S
C592 C591 1.363 . S
C592 C598 1.428 . S
H593 C589 0.930 . S
H594 C591 0.929 . S
S595 N596 1.613 . S
S595 N597 1.610 . S
N596 S595 1.613 . S
N596 C599 1.350 . S
N597 S595 1.610 . S
N597 C598 1.351 . S
C598 C592 1.428 . S
C598 N597 1.351 . S
C598 C599 1.434 . S
C599 C590 1.429 . S
C599 N596 1.350 . S
C599 C598 1.434 . S
C600 C601 1.369 . S
C600 C602 1.419 . S
C600 H604 0.930 . S
C601 C600 1.369 . S
C601 C610 1.429 . S
C602 C600 1.419 . S
C602 C603 1.363 . S
C602 H605 0.929 . S
C603 C602 1.363 . S
C603 C609 1.428 . S
H604 C600 0.930 . S
H605 C602 0.929 . S
S606 N607 1.613 . S
S606 N608 1.610 . S
N607 S606 1.613 . S
N607 C610 1.350 . S
N608 S606 1.610 . S
N608 C609 1.351 . S
C609 C603 1.428 . S
C609 N608 1.351 . S
C609 C610 1.434 . S
C610 C601 1.429 . S
C610 N607 1.350 . S
C610 C609 1.434 . S
C611 C612 1.369 . S
C611 C613 1.419 . S
C611 H615 0.930 . S
C612 C611 1.369 . S
C612 C621 1.429 . S
C613 C611 1.419 . S
C613 C614 1.363 . S
C613 H616 0.929 . S
C614 C613 1.363 . S
C614 C620 1.428 . S
H615 C611 0.930 . S
H616 C613 0.929 . S
S617 N618 1.613 . S
S617 N619 1.610 . S
N618 S617 1.613 . S
N618 C621 1.350 . S
N619 S617 1.610 . S
N619 C620 1.351 . S
C620 C614 1.428 . S
C620 N619 1.351 . S
C620 C621 1.434 . S
C621 C612 1.429 . S
C621 N618 1.350 . S
C621 C620 1.434 . S
C622 C623 1.369 . S
C622 C624 1.419 . S
C622 H626 0.930 . S
C623 C622 1.369 . S
C623 C632 1.429 . S
C624 C622 1.419 . S
C624 C625 1.363 . S
C624 H627 0.929 . S
C625 C624 1.363 . S
C625 C631 1.428 . S
H626 C622 0.930 . S
H627 C624 0.929 . S
S628 N629 1.613 . S
S628 N630 1.610 . S
N629 S628 1.613 . S
N629 C632 1.350 . S
N630 S628 1.610 . S
N630 C631 1.351 . S
C631 C625 1.428 . S
C631 N630 1.351 . S
C631 C632 1.434 . S
C632 C623 1.429 . S
C632 N629 1.350 . S
C632 C631 1.434 . S
C633 C634 1.369 . S
C633 C635 1.419 . S
C633 H637 0.930 . S
C634 C633 1.369 . S
C634 C643 1.429 . S
C635 C633 1.419 . S
C635 C636 1.363 . S
C635 H638 0.929 . S
C636 C635 1.363 . S
C636 C642 1.428 . S
H637 C633 0.930 . S
H638 C635 0.929 . S
S639 N640 1.613 . S
S639 N641 1.610 . S
N640 S639 1.613 . S
N640 C643 1.350 . S
N641 S639 1.610 . S
N641 C642 1.351 . S
C642 C636 1.428 . S
C642 N641 1.351 . S
C642 C643 1.434 . S
C643 C634 1.429 . S
C643 N640 1.350 . S
C643 C642 1.434 . S
C644 C645 1.369 . S
C644 C646 1.419 . S
C644 H648 0.930 . S
C645 C644 1.369 . S
C645 C654 1.429 . S
C646 C644 1.419 . S
C646 C647 1.363 . S
C646 H649 0.929 . S
C647 C646 1.363 . S
C647 C653 1.428 . S
H648 C644 0.930 . S
H649 C646 0.929 . S
S650 N651 1.610 1_655 S
S650 N652 1.610 . S
N651 S650 1.610 1_455 S
N651 C654 1.326 1_455 S
N652 S650 1.610 . S
N652 C653 1.351 . S
C653 C647 1.428 . S
C653 N652 1.351 . S
C653 C654 1.434 . S
C654 C645 1.429 . S
C654 N651 1.326 1_655 S
C654 C653 1.434 . S
C655 C656 1.369 . S
C655 C657 1.419 . S
C655 H659 0.930 . S
C656 C655 1.369 . S
C656 C665 1.429 . S
C657 C655 1.419 . S
C657 C658 1.363 . S
C657 H660 0.929 . S
C658 C657 1.363 . S
C658 C664 1.428 . S
H659 C655 0.930 . S
H660 C657 0.929 . S
S661 N662 1.613 . S
S661 N663 1.610 . S
N662 S661 1.613 . S
N662 C665 1.350 . S
N663 S661 1.610 . S
N663 C664 1.351 . S
C664 C658 1.428 . S
C664 N663 1.351 . S
C664 C665 1.434 . S
C665 C656 1.429 . S
C665 N662 1.350 . S
C665 C664 1.434 . S
C666 C667 1.369 . S
C666 C668 1.419 . S
C666 H670 0.930 . S
C667 C666 1.369 . S
C667 C676 1.429 . S
C668 C666 1.419 . S
C668 C669 1.363 . S
C668 H671 0.929 . S
C669 C668 1.363 . S
C669 C675 1.428 . S
H670 C666 0.930 . S
H671 C668 0.929 . S
S672 N673 1.613 . S
S672 N674 1.610 . S
N673 S672 1.613 . S
N673 C676 1.350 . S
N674 S672 1.610 . S
N674 C675 1.351 . S
C675 C669 1.428 . S
C675 N674 1.351 . S
C675 C676 1.434 . S
C676 C667 1.429 . S
C676 N673 1.350 . S
C676 C675 1.434 . S
C677 C678 1.369 . S
C677 C679 1.419 . S
C677 H681 0.930 . S
C678 C677 1.369 . S
C678 C687 1.429 . S
C679 C677 1.419 . S
C679 C680 1.363 . S
C679 H682 0.929 . S
C680 C679 1.363 . S
C680 C686 1.428 . S
H681 C677 0.930 . S
H682 C679 0.929 . S
S683 N684 1.613 . S
S683 N685 1.610 . S
N684 S683 1.613 . S
N684 C687 1.350 . S
N685 S683 1.610 . S
N685 C686 1.351 . S
C686 C680 1.428 . S
C686 N685 1.351 . S
C686 C687 1.434 . S
C687 C678 1.429 . S
C687 N684 1.350 . S
C687 C686 1.434 . S
C688 C689 1.369 . S
C688 C690 1.419 . S
C688 H692 0.930 . S
C689 C688 1.369 . S
C689 C698 1.429 . S
C690 C688 1.419 . S
C690 C691 1.363 . S
C690 H693 0.929 . S
C691 C690 1.363 . S
C691 C697 1.428 . S
H692 C688 0.930 . S
H693 C690 0.929 . S
S694 N695 1.613 . S
S694 N696 1.610 . S
N695 S694 1.613 . S
N695 C698 1.350 . S
N696 S694 1.610 . S
N696 C697 1.351 . S
C697 C691 1.428 . S
C697 N696 1.351 . S
C697 C698 1.434 . S
C698 C689 1.429 . S
C698 N695 1.350 . S
C698 C697 1.434 . S
C699 C700 1.369 . S
C699 C701 1.419 . S
C699 H703 0.930 . S
C700 C699 1.369 . S
C700 C709 1.429 . S
C701 C699 1.419 . S
C701 C702 1.363 . S
C701 H704 0.929 . S
C702 C701 1.363 . S
C702 C708 1.428 . S
H703 C699 0.930 . S
H704 C701 0.929 . S
S705 N706 1.613 . S
S705 N707 1.610 . S
N706 S705 1.613 . S
N706 C709 1.350 . S
N707 S705 1.610 . S
N707 C708 1.351 . S
C708 C702 1.428 . S
C708 N707 1.351 . S
C708 C709 1.434 . S
C709 C700 1.429 . S
C709 N706 1.350 . S
C709 C708 1.434 . S
C710 C711 1.369 . S
C710 C712 1.419 . S
C710 H714 0.930 . S
C711 C710 1.369 . S
C711 C720 1.429 . S
C712 C710 1.419 . S
C712 C713 1.363 . S
C712 H715 0.929 . S
C713 C712 1.363 . S
C713 C719 1.428 . S
H714 C710 0.930 . S
H715 C712 0.929 . S
S716 N717 1.613 . S
S716 N718 1.610 . S
N717 S716 1.613 . S
N717 C720 1.350 . S
N718 S716 1.610 . S
N718 C719 1.351 . S
C719 C713 1.428 . S
C719 N718 1.351 . S
C719 C720 1.434 . S
C720 C711 1.429 . S
C720 N717 1.350 . S
C720 C719 1.434 . S
C721 C722 1.369 . S
C721 C723 1.419 . S
C721 H725 0.930 . S
C722 C721 1.369 . S
C722 C731 1.429 . S
C723 C721 1.419 . S
C723 C724 1.363 . S
C723 H726 0.929 . S
C724 C723 1.363 . S
C724 C730 1.428 . S
H725 C721 0.930 . S
H726 C723 0.929 . S
S727 N728 1.613 . S
S727 N729 1.610 . S
N728 S727 1.613 . S
N728 C731 1.350 . S
N729 S727 1.610 . S
N729 C730 1.351 . S
C730 C724 1.428 . S
C730 N729 1.351 . S
C730 C731 1.434 . S
C731 C722 1.429 . S
C731 N728 1.350 . S
C731 C730 1.434 . S
C732 C733 1.369 . S
C732 C734 1.419 . S
C732 H736 0.930 . S
C733 C732 1.369 . S
C733 C742 1.429 . S
C734 C732 1.419 . S
C734 C735 1.363 . S
C734 H737 0.929 . S
C735 C734 1.363 . S
C735 C741 1.428 . S
H736 C732 0.930 . S
H737 C734 0.929 . S
S738 N739 1.613 1_565 S
S738 N740 1.610 1_565 S
N739 S738 1.613 1_545 S
N739 C742 1.350 . S
N740 S738 1.610 1_545 S
N740 C741 1.351 . S
C741 C735 1.428 . S
C741 N740 1.351 . S
C741 C742 1.434 . S
C742 C733 1.429 . S
C742 N739 1.350 . S
C742 C741 1.434 . S
C743 C744 1.369 . S
C743 C745 1.419 . S
C743 H747 0.930 . S
C744 C743 1.369 . S
C744 C753 1.429 . S
C745 C743 1.419 . S
C745 C746 1.363 . S
C745 H748 0.929 . S
C746 C745 1.363 . S
C746 C752 1.428 . S
H747 C743 0.930 . S
H748 C745 0.929 . S
S749 N750 1.613 . S
S749 N751 1.610 . S
N750 S749 1.613 . S
N750 C753 1.350 . S
N751 S749 1.610 . S
N751 C752 1.351 . S
C752 C746 1.428 . S
C752 N751 1.351 . S
C752 C753 1.434 . S
C753 C744 1.429 . S
C753 N750 1.350 . S
C753 C752 1.434 . S
C754 C755 1.369 . S
C754 C756 1.419 . S
C754 H758 0.930 . S
C755 C754 1.369 . S
C755 C764 1.429 . S
C756 C754 1.419 . S
C756 C757 1.363 . S
C756 H759 0.929 . S
C757 C756 1.363 . S
C757 C763 1.428 . S
H758 C754 0.930 . S
H759 C756 0.929 . S
S760 N761 1.613 . S
S760 N762 1.610 . S
N761 S760 1.613 . S
N761 C764 1.350 . S
N762 S760 1.610 . S
N762 C763 1.351 . S
C763 C757 1.428 . S
C763 N762 1.351 . S
C763 C764 1.434 . S
C764 C755 1.429 . S
C764 N761 1.350 . S
C764 C763 1.434 . S
C765 C766 1.369 . S
C765 C767 1.419 . S
C765 H769 0.930 . S
C766 C765 1.369 . S
C766 C775 1.429 . S
C767 C765 1.419 . S
C767 C768 1.363 . S
C767 H770 0.929 . S
C768 C767 1.363 . S
C768 C774 1.428 . S
H769 C765 0.930 . S
H770 C767 0.929 . S
S771 N772 1.613 . S
S771 N773 1.610 . S
N772 S771 1.613 . S
N772 C775 1.350 . S
N773 S771 1.610 . S
N773 C774 1.351 . S
C774 C768 1.428 . S
C774 N773 1.351 . S
C774 C775 1.434 . S
C775 C766 1.429 . S
C775 N772 1.350 . S
C775 C774 1.434 . S
C776 C777 1.369 . S
C776 C778 1.419 . S
C776 H780 0.930 . S
C777 C776 1.369 . S
C777 C786 1.429 . S
C778 C776 1.419 . S
C778 C779 1.363 . S
C778 H781 0.929 . S
C779 C778 1.363 . S
C779 C785 1.428 . S
H780 C776 0.930 . S
H781 C778 0.929 . S
S782 N783 1.613 . S
S782 N784 1.610 . S
N783 S782 1.613 . S
N783 C786 1.350 . S
N784 S782 1.610 . S
N784 C785 1.351 . S
C785 C779 1.428 . S
C785 N784 1.351 . S
C785 C786 1.434 . S
C786 C777 1.429 . S
C786 N783 1.350 . S
C786 C785 1.434 . S
C787 C788 1.369 . S
C787 C789 1.419 . S
C787 H791 0.930 . S
C788 C787 1.369 . S
C788 C797 1.429 . S
C789 C787 1.419 . S
C789 C790 1.363 . S
C789 H792 0.929 . S
C790 C789 1.363 . S
C790 C796 1.428 . S
H791 C787 0.930 . S
H792 C789 0.929 . S
S793 N794 1.613 . S
S793 N795 1.610 . S
N794 S793 1.613 . S
N794 C797 1.350 . S
N795 S793 1.610 . S
N795 C796 1.351 . S
C796 C790 1.428 . S
C796 N795 1.351 . S
C796 C797 1.434 . S
C797 C788 1.429 . S
C797 N794 1.350 . S
C797 C796 1.434 . S
C798 C799 1.369 . S
C798 C800 1.419 . S
C798 H802 0.930 . S
C799 C798 1.369 . S
C799 C808 1.429 . S
C800 C798 1.419 . S
C800 C801 1.363 . S
C800 H803 0.929 . S
C801 C800 1.363 . S
C801 C807 1.428 . S
H802 C798 0.930 . S
H803 C800 0.929 . S
S804 N805 1.613 . S
S804 N806 1.610 . S
N805 S804 1.613 . S
N805 C808 1.350 . S
N806 S804 1.610 . S
N806 C807 1.351 . S
C807 C801 1.428 . S
C807 N806 1.351 . S
C807 C808 1.434 . S
C808 C799 1.429 . S
C808 N805 1.350 . S
C808 C807 1.434 . S
C809 C810 1.369 . S
C809 C811 1.419 . S
C809 H813 0.930 . S
C810 C809 1.369 . S
C810 C819 1.429 . S
C811 C809 1.419 . S
C811 C812 1.363 . S
C811 H814 0.929 . S
C812 C811 1.363 . S
C812 C818 1.428 . S
H813 C809 0.930 . S
H814 C811 0.929 . S
S815 N816 1.613 . S
S815 N817 1.610 . S
N816 S815 1.613 . S
N816 C819 1.350 . S
N817 S815 1.610 . S
N817 C818 1.351 . S
C818 C812 1.428 . S
C818 N817 1.351 . S
C818 C819 1.434 . S
C819 C810 1.429 . S
C819 N816 1.350 . S
C819 C818 1.434 . S
C820 C821 1.369 . S
C820 C822 1.419 . S
C820 H824 0.930 . S
C821 C820 1.369 . S
C821 C830 1.429 . S
C822 C820 1.419 . S
C822 C823 1.363 . S
C822 H825 0.929 . S
C823 C822 1.363 . S
C823 C829 1.428 . S
H824 C820 0.930 . S
H825 C822 0.929 . S
S826 N827 1.613 . S
S826 N828 1.610 . S
N827 S826 1.613 . S
N827 C830 1.350 . S
N828 S826 1.610 . S
N828 C829 1.351 . S
C829 C823 1.428 . S
C829 N828 1.351 . S
C829 C830 1.434 . S
C830 C821 1.429 . S
C830 N827 1.350 . S
C830 C829 1.434 . S
C831 C832 1.369 . S
C831 C833 1.419 . S
C831 H835 0.930 . S
C832 C831 1.369 . S
C832 C841 1.429 . S
C833 C831 1.419 . S
C833 C834 1.363 . S
C833 H836 0.929 . S
C834 C833 1.363 . S
C834 C840 1.428 . S
H835 C831 0.930 . S
H836 C833 0.929 . S
S837 N838 1.613 . S
S837 N839 1.610 . S
N838 S837 1.613 . S
N838 C841 1.350 . S
N839 S837 1.610 . S
N839 C840 1.351 . S
C840 C834 1.428 . S
C840 N839 1.351 . S
C840 C841 1.434 . S
C841 C832 1.429 . S
C841 N838 1.350 . S
C841 C840 1.434 . S
C842 C843 1.369 . S
C842 C844 1.419 . S
C842 H846 0.930 . S
C843 C842 1.369 . S
C843 C852 1.429 . S
C844 C842 1.419 . S
C844 C845 1.363 . S
C844 H847 0.929 . S
C845 C844 1.363 . S
C845 C851 1.428 . S
H846 C842 0.930 . S
H847 C844 0.929 . S
S848 N849 1.613 . S
S848 N850 1.610 . S
N849 S848 1.613 . S
N849 C852 1.350 . S
N850 S848 1.610 . S
N850 C851 1.351 . S
C851 C845 1.428 . S
C851 N850 1.351 . S
C851 C852 1.434 . S
C852 C843 1.429 . S
C852 N849 1.350 . S
C852 C851 1.434 . S
C853 C854 1.369 . S
C853 C855 1.419 . S
C853 H857 0.930 . S
C854 C853 1.369 . S
C854 C863 1.429 . S
C855 C853 1.419 . S
C855 C856 1.363 . S
C855 H858 0.929 . S
C856 C855 1.363 . S
C856 C862 1.428 . S
H857 C853 0.930 . S
H858 C855 0.929 . S
S859 N860 1.613 . S
S859 N861 1.610 . S
N860 S859 1.613 . S
N860 C863 1.350 . S
N861 S859 1.610 . S
N861 C862 1.351 . S
C862 C856 1.428 . S
C862 N861 1.351 . S
C862 C863 1.434 . S
C863 C854 1.429 . S
C863 N860 1.350 . S
C863 C862 1.434 . S
C864 C865 1.369 . S
C864 C866 1.419 . S
C864 H868 0.930 . S
C865 C864 1.369 . S
C865 C874 1.429 . S
C866 C864 1.419 . S
C866 C867 1.363 . S
C866 H869 0.929 . S
C867 C866 1.363 . S
C867 C873 1.428 . S
H868 C864 0.930 . S
H869 C866 0.929 . S
S870 N871 1.613 . S
S870 N872 1.610 . S
N871 S870 1.613 . S
N871 C874 1.350 . S
N872 S870 1.610 . S
N872 C873 1.351 . S
C873 C867 1.428 . S
C873 N872 1.351 . S
C873 C874 1.434 . S
C874 C865 1.429 . S
C874 N871 1.350 . S
C874 C873 1.434 . S
C875 C876 1.369 . S
C875 C877 1.419 . S
C875 H879 0.930 . S
C876 C875 1.369 . S
C876 C885 1.429 . S
C877 C875 1.419 . S
C877 C878 1.363 . S
C877 H880 0.929 . S
C878 C877 1.363 . S
C878 C884 1.428 . S
H879 C875 0.930 . S
H880 C877 0.929 . S
S881 N882 1.613 . S
S881 N883 1.610 . S
N882 S881 1.613 . S
N882 C885 1.350 . S
N883 S881 1.610 . S
N883 C884 1.351 . S
C884 C878 1.428 . S
C884 N883 1.351 . S
C884 C885 1.434 . S
C885 C876 1.429 . S
C885 N882 1.350 . S
C885 C884 1.434 . S
C886 C887 1.369 . S
C886 C888 1.419 . S
C886 H890 0.930 . S
C887 C886 1.369 . S
C887 C896 1.429 . S
C888 C886 1.419 . S
C888 C889 1.363 . S
C888 H891 0.929 . S
C889 C888 1.363 . S
C889 C895 1.428 . S
H890 C886 0.930 . S
H891 C888 0.929 . S
S892 N893 1.613 . S
S892 N894 1.610 . S
N893 S892 1.613 . S
N893 C896 1.350 . S
N894 S892 1.610 . S
N894 C895 1.351 . S
C895 C889 1.428 . S
C895 N894 1.351 . S
C895 C896 1.434 . S
C896 C887 1.429 . S
C896 N893 1.350 . S
C896 C895 1.434 . S
C897 C898 1.369 . S
C897 C899 1.419 . S
C897 H901 0.930 . S
C898 C897 1.369 . S
C898 C907 1.429 . S
C899 C897 1.419 . S
C899 C900 1.363 . S
C899 H902 0.929 1_455 S
C900 C899 1.363 . S
C900 C906 1.428 . S
H901 C897 0.930 . S
H902 C899 0.929 1_655 S
S903 N904 1.613 . S
S903 N905 1.610 . S
N904 S903 1.613 . S
N904 C907 1.350 . S
N905 S903 1.610 . S
N905 C906 1.351 . S
C906 C900 1.428 . S
C906 N905 1.351 . S
C906 C907 1.434 . S
C907 C898 1.429 . S
C907 N904 1.350 . S
C907 C906 1.434 . S
C908 C909 1.369 . S
C908 C910 1.419 1_556 S
C908 H912 0.930 . S
C909 C908 1.369 . S
C909 C918 1.429 . S
C910 C908 1.419 1_554 S
C910 C911 1.363 . S
C910 H913 0.929 . S
C911 C910 1.363 . S
C911 C917 1.428 . S
H912 C908 0.930 . S
H913 C910 0.929 . S
S914 N915 1.613 1_554 S
S914 N916 1.610 . S
N915 S914 1.613 1_556 S
N915 C918 1.350 . S
N916 S914 1.610 . S
N916 C917 1.351 . S
C917 C911 1.428 . S
C917 N916 1.351 . S
C917 C918 1.434 1_554 S
C918 C909 1.429 . S
C918 N915 1.350 . S
C918 C917 1.434 1_556 S
C919 C920 1.369 . S
C919 C921 1.419 1_554 S
C919 H923 0.930 . S
C920 C919 1.369 . S
C920 C929 1.429 . S
C921 C919 1.419 1_556 S
C921 C922 1.363 . S
C921 H924 0.929 . S
C922 C921 1.363 . S
C922 C928 1.428 . S
H923 C919 0.930 . S
H924 C921 0.929 . S
S925 N926 1.613 . S
S925 N927 1.610 1_554 S
N926 S925 1.613 . S
N926 C929 1.350 . S
N927 S925 1.610 1_556 S
N927 C928 1.351 . S
C928 C922 1.428 . S
C928 N927 1.351 . S
C928 C929 1.434 1_556 S
C929 C920 1.429 . S
C929 N926 1.350 . S
C929 C928 1.434 1_554 S
C930 C931 1.369 . S
C930 C932 1.419 1_556 S
C930 H934 0.930 . S
C931 C930 1.369 . S
C931 C940 1.429 . S
C932 C930 1.419 1_554 S
C932 C933 1.363 . S
C932 H935 0.929 . S
C933 C932 1.363 . S
C933 C939 1.428 . S
H934 C930 0.930 . S
H935 C932 0.929 . S
S936 N937 1.613 1_554 S
S936 N938 1.610 . S
N937 S936 1.613 1_556 S
N937 C940 1.350 . S
N938 S936 1.610 . S
N938 C939 1.351 . S
C939 C933 1.428 . S
C939 N938 1.351 . S
C939 C940 1.434 1_554 S
C940 C931 1.429 . S
C940 N937 1.350 . S
C940 C939 1.434 1_556 S
C941 C942 1.369 1_556 S
C941 C943 1.419 . S
C941 H945 0.930 . S
C942 C941 1.369 1_554 S
C942 C951 1.429 . S
C943 C941 1.419 . S
C943 C944 1.363 . S
C943 H946 0.929 . S
C944 C943 1.363 . S
C944 C950 1.428 . S
H945 C941 0.930 . S
H946 C943 0.929 . S
S947 N948 1.613 . S
S947 N949 1.610 1_554 S
N948 S947 1.613 . S
N948 C951 1.350 . S
N949 S947 1.610 1_556 S
N949 C950 1.351 . S
C950 C944 1.428 . S
C950 N949 1.351 . S
C950 C951 1.434 1_556 S
C951 C942 1.429 . S
C951 N948 1.350 . S
C951 C950 1.434 1_554 S
C952 C953 1.369 . S
C952 C954 1.419 . S
C952 H956 0.930 . S
C953 C952 1.369 . S
C953 C962 1.429 . S
C954 C952 1.419 . S
C954 C955 1.363 . S
C954 H957 0.929 . S
C955 C954 1.363 . S
C955 C961 1.428 . S
H956 C952 0.930 . S
H957 C954 0.929 . S
S958 N959 1.613 . S
S958 N960 1.610 . S
N959 S958 1.613 . S
N959 C962 1.350 . S
N960 S958 1.610 . S
N960 C961 1.351 . S
C961 C955 1.428 . S
C961 N960 1.351 . S
C961 C962 1.434 . S
C962 C953 1.429 . S
C962 N959 1.350 . S
C962 C961 1.434 . S
C963 C964 1.369 . S
C963 C965 1.419 . S
C963 H967 0.930 . S
C964 C963 1.369 . S
C964 C973 1.429 . S
C965 C963 1.419 . S
C965 C966 1.363 . S
C965 H968 0.929 . S
C966 C965 1.363 . S
C966 C972 1.428 . S
H967 C963 0.930 . S
H968 C965 0.929 . S
S969 N970 1.613 . S
S969 N971 1.610 . S
N970 S969 1.613 . S
N970 C973 1.350 . S
N971 S969 1.610 . S
N971 C972 1.351 . S
C972 C966 1.428 . S
C972 N971 1.351 . S
C972 C973 1.434 . S
C973 C964 1.429 . S
C973 N970 1.350 . S
C973 C972 1.434 . S
C974 C975 1.369 . S
C974 C976 1.419 . S
C974 H978 0.930 . S
C975 C974 1.369 . S
C975 C984 1.429 . S
C976 C974 1.419 . S
C976 C977 1.363 . S
C976 H979 0.929 . S
C977 C976 1.363 . S
C977 C983 1.428 . S
H978 C974 0.930 . S
H979 C976 0.929 . S
S980 N981 1.613 . S
S980 N982 1.610 . S
N981 S980 1.613 . S
N981 C984 1.350 . S
N982 S980 1.610 . S
N982 C983 1.351 . S
C983 C977 1.428 . S
C983 N982 1.351 . S
C983 C984 1.434 . S
C984 C975 1.429 . S
C984 N981 1.350 . S
C984 C983 1.434 . S
C985 C986 1.369 . S
C985 C987 1.419 . S
C985 H989 0.930 . S
C986 C985 1.369 . S
C986 C995 1.429 . S
C987 C985 1.419 . S
C987 C988 1.363 . S
C987 H990 0.929 . S
C988 C987 1.363 . S
C988 C994 1.428 . S
H989 C985 0.930 . S
H990 C987 0.929 . S
S991 N992 1.613 . S
S991 N993 1.610 1_455 S
N992 S991 1.613 . S
N992 C995 1.350 1_455 S
N993 S991 1.610 1_655 S
N993 C994 1.351 . S
C994 C988 1.428 . S
C994 N993 1.351 . S
C994 C995 1.434 . S
C995 C986 1.429 . S
C995 N992 1.350 1_655 S
C995 C994 1.434 . S
C996 C997 1.369 . S
C996 C998 1.419 1_556 S
C996 H1000 0.930 . S
C997 C996 1.369 . S
C997 C1006 1.423 1_556 S
C998 C996 1.419 1_554 S
C998 C999 1.363 . S
C998 H1001 0.929 . S
C999 C998 1.363 . S
C999 C1005 1.428 . S
H1000 C996 0.930 . S
H1001 C998 0.929 . S
S1002 N1003 1.613 1_554 S
S1002 N1004 1.610 . S
N1003 S1002 1.613 1_556 S
N1003 C1006 1.349 1_566 S
N1004 S1002 1.610 . S
N1004 C1005 1.351 1_565 S
C1005 C999 1.428 . S
C1005 N1004 1.351 1_545 S
C1005 C1006 1.441 . S
C1006 C997 1.423 1_554 S
C1006 N1003 1.349 1_544 S
C1006 C1005 1.441 . S
C1007 C1008 1.369 . S
C1007 C1009 1.419 1_556 S
C1007 H1011 0.930 . S
C1008 C1007 1.369 . S
C1008 C1017 1.429 1_556 S
C1009 C1007 1.419 1_554 S
C1009 C1010 1.363 . S
C1009 H1012 0.929 . S
C1010 C1009 1.363 . S
C1010 C1016 1.428 . S
H1011 C1007 0.930 . S
H1012 C1009 0.929 . S
S1013 N1014 1.613 . S
S1013 N1015 1.610 . S
N1014 S1013 1.613 . S
N1014 C1017 1.350 . S
N1015 S1013 1.610 . S
N1015 C1016 1.351 . S
C1016 C1010 1.428 . S
C1016 N1015 1.351 . S
C1016 C1017 1.434 . S
C1017 C1008 1.429 1_554 S
C1017 N1014 1.350 . S
C1017 C1016 1.434 . S
C1018 C1019 1.369 . S
C1018 C1020 1.419 1_554 S
C1018 H1022 0.930 . S
C1019 C1018 1.369 . S
C1019 C1028 1.429 . S
C1020 C1018 1.419 1_556 S
C1020 C1021 1.363 . S
C1020 H1023 0.929 . S
C1021 C1020 1.363 . S
C1021 C1027 1.428 . S
H1022 C1018 0.930 . S
H1023 C1020 0.929 . S
S1024 N1025 1.613 1_556 S
S1024 N1026 1.610 . S
N1025 S1024 1.613 1_554 S
N1025 C1028 1.350 . S
N1026 S1024 1.610 . S
N1026 C1027 1.351 . S
C1027 C1021 1.428 . S
C1027 N1026 1.351 . S
C1027 C1028 1.434 1_556 S
C1028 C1019 1.429 . S
C1028 N1025 1.350 . S
C1028 C1027 1.434 1_554 S
C1029 C1030 1.369 . S
C1029 C1031 1.419 1_554 S
C1029 H1033 0.930 . S
C1030 C1029 1.369 . S
C1030 C1039 1.429 . S
C1031 C1029 1.419 1_556 S
C1031 C1032 1.363 . S
C1031 H1034 0.929 . S
C1032 C1031 1.363 . S
C1032 C1038 1.431 . S
H1033 C1029 0.930 . S
H1034 C1031 0.929 . S
S1035 N1036 1.613 . S
S1035 N1037 1.610 1_554 S
N1036 S1035 1.613 . S
N1036 C1039 1.350 1_655 S
N1037 S1035 1.610 1_556 S
N1037 C1038 1.351 1_655 S
C1038 C1032 1.431 . S
C1038 N1037 1.351 1_455 S
C1038 C1039 1.431 1_556 S
C1039 C1030 1.429 . S
C1039 N1036 1.350 1_455 S
C1039 C1038 1.431 1_554 S
C513 C4 1.600 . S
C515 C164 1.602 . S
C524 C221 1.602 . S
C526 C61 1.602 . S
C535 C68 1.594 . S
C537 C228 1.597 . S
C546 C125 1.594 . S
C548 C132 1.597 . S
C557 C445 1.596 . S
C559 C260 1.599 . S
C568 C477 1.596 . S
C570 C317 1.599 . S
C579 C349 1.600 . S
C581 C484 1.601 . S
C590 C381 1.595 . S
C592 C388 1.597 . S
C601 C2 2.102 . S
C603 N109 1.805 . S
C612 C38 2.097 . S
C614 N18 1.809 . S
C623 C66 2.100 1_455 S
C625 N45 1.800 . S
C634 C102 2.103 1_545 S
C636 N82 1.802 . S
C645 C130 2.097 1_655 S
C647 N178 1.806 . S
C656 N205 1.797 . S
C658 C162 2.102 1_565 S
C667 C198 2.103 . S
C669 N242 1.799 . S
C678 N146 1.799 . S
C680 C226 2.103 . S
C689 N365 1.810 . S
C691 C258 2.097 . S
C700 C294 2.101 . S
C702 N274 1.806 . S
C711 C326 2.103 1_655 S
C713 N301 1.800 . S
C722 C358 2.103 1_565 S
C724 N333 1.799 . S
C733 C386 2.103 1_455 S
C735 N429 1.799 . S
C744 C422 2.098 1_545 S
C746 N461 1.805 . S
C755 C454 2.101 . S
C757 N498 1.805 . S
C766 C482 2.097 . S
C768 N402 1.808 . S
C777 C29 1.308 . S
C779 C93 1.297 . S
C788 C36 1.297 . S
C790 C100 1.306 . S
C799 C196 1.296 . S
C801 C157 1.306 . S
C810 C253 1.299 . S
C812 C189 1.302 . S
C821 C324 1.296 . S
C823 C285 1.306 . S
C832 C356 1.305 . S
C834 C292 1.299 . S
C843 C413 1.297 . S
C845 C452 1.305 . S
C854 C420 1.300 . S
C856 C509 1.304 . S
C865 N13 1.498 . S
C867 C354 1.542 . S
C876 C262 1.541 . S
C878 N50 1.497 . S
C887 N77 1.498 . S
C889 C290 1.542 . S
C898 C322 1.545 . S
C900 N114 1.490 . S
C909 C418 1.542 . S
C911 N141 1.496 . S
C920 N173 1.491 . S
C922 C450 1.545 . S
C931 C486 1.542 . S
C933 N210 1.496 . S
C942 N237 1.498 . S
C944 C390 1.542 . S
C953 N269 1.490 . S
C955 C98 1.545 . S
C964 N306 1.491 . S
C966 C6 1.544 . S
C975 C34 1.543 . S
C977 N338 1.495 . S
C986 N370 1.497 . S
C988 C70 1.542 . S
C997 N397 1.498 . S
C999 C166 1.542 . S
C1008 N434 1.493 . S
C1010 C194 1.543 . S
C1019 C230 1.545 . S
C1021 N466 1.491 . S
C1030 C134 1.542 . S
C1032 N493 1.495 . S
