# Generated by pormake.
# Topology pcl, (4)-cn, num edge types: 1
# Building blocks:
#     Node 0, Type 0, BuildingBlock: AZAVOO_clean_sbu_0, # of connection points: 4
#     Node 1, Type 0, BuildingBlock: AZAVOO_clean_sbu_0, # of connection points: 4
#     Node 2, Type 0, BuildingBlock: AZAVOO_clean_sbu_0, # of connection points: 4
#     Node 3, Type 0, BuildingBlock: AZAVOO_clean_sbu_0, # of connection points: 4
#     Node 4, Type 0, BuildingBlock: AZAVOO_clean_sbu_0, # of connection points: 4
#     Node 5, Type 0, BuildingBlock: AZAVOO_clean_sbu_0, # of connection points: 4
#     Node 6, Type 0, BuildingBlock: AZAVOO_clean_sbu_0, # of connection points: 4
#     Node 7, Type 0, BuildingBlock: AZAVOO_clean_sbu_0, # of connection points: 4
#     Node 8, Type 0, BuildingBlock: AZAVOO_clean_sbu_0, # of connection points: 4
#     Node 9, Type 0, BuildingBlock: AZAVOO_clean_sbu_0, # of connection points: 4
#     Node 10, Type 0, BuildingBlock: AZAVOO_clean_sbu_0, # of connection points: 4
#     Node 11, Type 0, BuildingBlock: AZAVOO_clean_sbu_0, # of connection points: 4
#     Node 12, Type 0, BuildingBlock: AZAVOO_clean_sbu_0, # of connection points: 4
#     Node 13, Type 0, BuildingBlock: AZAVOO_clean_sbu_0, # of connection points: 4
#     Node 14, Type 0, BuildingBlock: AZAVOO_clean_sbu_0, # of connection points: 4
#     Node 15, Type 0, BuildingBlock: AZAVOO_clean_sbu_0, # of connection points: 4
#     Edge 16, Type (0, 0), BuildingBlock: UVAHIK_clean_linker_0, # of connection points: 2
#     Edge 17, Type (0, 0), BuildingBlock: UVAHIK_clean_linker_0, # of connection points: 2
#     Edge 18, Type (0, 0), BuildingBlock: UVAHIK_clean_linker_0, # of connection points: 2
#     Edge 19, Type (0, 0), BuildingBlock: UVAHIK_clean_linker_0, # of connection points: 2
#     Edge 20, Type (0, 0), BuildingBlock: UVAHIK_clean_linker_0, # of connection points: 2
#     Edge 21, Type (0, 0), BuildingBlock: UVAHIK_clean_linker_0, # of connection points: 2
#     Edge 22, Type (0, 0), BuildingBlock: UVAHIK_clean_linker_0, # of connection points: 2
#     Edge 23, Type (0, 0), BuildingBlock: UVAHIK_clean_linker_0, # of connection points: 2
#     Edge 24, Type (0, 0), BuildingBlock: UVAHIK_clean_linker_0, # of connection points: 2
#     Edge 25, Type (0, 0), BuildingBlock: UVAHIK_clean_linker_0, # of connection points: 2
#     Edge 26, Type (0, 0), BuildingBlock: UVAHIK_clean_linker_0, # of connection points: 2
#     Edge 27, Type (0, 0), BuildingBlock: UVAHIK_clean_linker_0, # of connection points: 2
#     Edge 28, Type (0, 0), BuildingBlock: UVAHIK_clean_linker_0, # of connection points: 2
#     Edge 29, Type (0, 0), BuildingBlock: UVAHIK_clean_linker_0, # of connection points: 2
#     Edge 30, Type (0, 0), BuildingBlock: UVAHIK_clean_linker_0, # of connection points: 2
#     Edge 31, Type (0, 0), BuildingBlock: UVAHIK_clean_linker_0, # of connection points: 2
#     Edge 32, Type (0, 0), BuildingBlock: UVAHIK_clean_linker_0, # of connection points: 2
#     Edge 33, Type (0, 0), BuildingBlock: UVAHIK_clean_linker_0, # of connection points: 2
#     Edge 34, Type (0, 0), BuildingBlock: UVAHIK_clean_linker_0, # of connection points: 2
#     Edge 35, Type (0, 0), BuildingBlock: UVAHIK_clean_linker_0, # of connection points: 2
#     Edge 36, Type (0, 0), BuildingBlock: UVAHIK_clean_linker_0, # of connection points: 2
#     Edge 37, Type (0, 0), BuildingBlock: UVAHIK_clean_linker_0, # of connection points: 2
#     Edge 38, Type (0, 0), BuildingBlock: UVAHIK_clean_linker_0, # of connection points: 2
#     Edge 39, Type (0, 0), BuildingBlock: UVAHIK_clean_linker_0, # of connection points: 2
#     Edge 40, Type (0, 0), BuildingBlock: UVAHIK_clean_linker_0, # of connection points: 2
#     Edge 41, Type (0, 0), BuildingBlock: UVAHIK_clean_linker_0, # of connection points: 2
#     Edge 42, Type (0, 0), BuildingBlock: UVAHIK_clean_linker_0, # of connection points: 2
#     Edge 43, Type (0, 0), BuildingBlock: UVAHIK_clean_linker_0, # of connection points: 2
#     Edge 44, Type (0, 0), BuildingBlock: UVAHIK_clean_linker_0, # of connection points: 2
#     Edge 45, Type (0, 0), BuildingBlock: UVAHIK_clean_linker_0, # of connection points: 2
#     Edge 46, Type (0, 0), BuildingBlock: UVAHIK_clean_linker_0, # of connection points: 2
#     Edge 47, Type (0, 0), BuildingBlock: UVAHIK_clean_linker_0, # of connection points: 2
# Relax obj value: 0.077
# Max RMSD: 0.071
# Mean RMSD: 0.070
data_MOF--net-pcl--node1-AZAVOO_clean_sbu_0--edge1-UVAHIK_clean_linker_0
_symmetry_space_group_name_H-M    P1
_symmetry_Int_Tables_number       1
_symmetry_cell_setting            triclinic
loop_
_symmetry_equiv_pos_as_xyz
'x, y, z'
_cell_length_a     50.749572
_cell_length_b     66.345868
_cell_length_c     59.055685
_cell_angle_alpha  89.983947
_cell_angle_beta   90.056248
_cell_angle_gamma 90.024049
loop_
_atom_site_label
_atom_site_type_symbol
_atom_site_fract_x
_atom_site_fract_y
_atom_site_fract_z
_atom_type_partial_charge
Mg0 Mg 0.21641 0.36586 0.06552 0.0
O1 O 0.17157 0.36664 0.06091 0.0
O2 O 0.162 0.36596 0.02401 0.0
Mg3 Mg 0.20108 0.36433 0.00497 0.0
C4 C 0.15489 0.36666 0.04472 0.0
C5 C 0.19692 0.37244 0.11403 0.0
O6 O 0.18734 0.38819 0.10336 0.0
O7 O 0.21671 0.33252 0.05727 0.0
O8 O 0.20826 0.33274 0.02012 0.0
O9 O 0.21767 0.39904 0.06355 0.0
O10 O 0.22113 0.37914 0.03365 0.0
C11 C 0.2133 0.32333 0.03853 0.0
C12 C 0.21896 0.39711 0.04177 0.0
O13 O 0.21034 0.35961 0.10297 0.0
Mg14 Mg 0.79014 0.62553 0.56266 0.0
O15 O 0.83455 0.62613 0.55642 0.0
O16 O 0.84271 0.6255 0.51933 0.0
Mg17 Mg 0.8025 0.6245 0.50176 0.0
C18 C 0.85062 0.62604 0.53984 0.0
C19 C 0.81338 0.62301 0.61027 0.0
O20 O 0.82392 0.60728 0.60025 0.0
O21 O 0.78706 0.6581 0.55225 0.0
O22 O 0.79328 0.65661 0.51483 0.0
O23 O 0.79062 0.59236 0.56313 0.0
O24 O 0.78451 0.61047 0.53206 0.0
C25 C 0.78848 0.66655 0.53292 0.0
C26 C 0.78764 0.59302 0.54137 0.0
O27 O 0.7978 0.63424 0.59912 0.0
Mg28 Mg 0.2069 0.62159 0.91439 0.0
O29 O 0.16229 0.61901 0.91901 0.0
O30 O 0.15356 0.60845 0.9541 0.0
Mg31 Mg 0.19307 0.60519 0.97232 0.0
C32 C 0.146 0.61387 0.93441 0.0
C33 C 0.21856 0.64016 0.86746 0.0
O34 O 0.24218 0.6339 0.87327 0.0
O35 O 0.2072 0.65085 0.93444 0.0
O36 O 0.2003 0.63929 0.96948 0.0
O37 O 0.20877 0.58915 0.90454 0.0
O38 O 0.21293 0.60024 0.93965 0.0
C39 C 0.20476 0.65376 0.95571 0.0
C40 C 0.2112 0.58523 0.92592 0.0
O41 O 0.19971 0.63802 0.88135 0.0
Mg42 Mg 0.79038 0.36858 0.40917 0.0
O43 O 0.83492 0.37108 0.41472 0.0
O44 O 0.84283 0.37794 0.45112 0.0
Mg45 Mg 0.8029 0.37869 0.46896 0.0
C46 C 0.85084 0.37469 0.43097 0.0
C47 C 0.77906 0.3513 0.36152 0.0
O48 O 0.75484 0.35443 0.36853 0.0
O49 O 0.79071 0.33774 0.42515 0.0
O50 O 0.79756 0.34469 0.46171 0.0
O51 O 0.78793 0.40144 0.40311 0.0
O52 O 0.78361 0.38716 0.43679 0.0
C53 C 0.79359 0.33213 0.44564 0.0
C54 C 0.78519 0.40336 0.42481 0.0
O55 O 0.79813 0.35528 0.37468 0.0
Mg56 Mg 0.80728 0.61917 0.89232 0.0
O57 O 0.85227 0.62249 0.89352 0.0
O58 O 0.86353 0.65065 0.87514 0.0
Mg59 Mg 0.82563 0.66636 0.86418 0.0
C60 C 0.86966 0.63474 0.8861 0.0
C61 C 0.81072 0.57571 0.91115 0.0
O62 O 0.80996 0.57218 0.88928 0.0
O63 O 0.8033 0.64255 0.92005 0.0
O64 O 0.81465 0.67072 0.90166 0.0
O65 O 0.81064 0.60417 0.85882 0.0
O66 O 0.80564 0.63702 0.86336 0.0
C67 C 0.80727 0.66153 0.9196 0.0
C68 C 0.80968 0.62202 0.85002 0.0
O69 O 0.8099 0.59381 0.91812 0.0
Mg70 Mg 0.19059 0.36651 0.39897 0.0
O71 O 0.14567 0.36276 0.3992 0.0
O72 O 0.13503 0.33624 0.37777 0.0
Mg73 Mg 0.1734 0.32211 0.36529 0.0
C74 C 0.12854 0.35108 0.39033 0.0
C75 C 0.17284 0.40465 0.42514 0.0
O76 O 0.15947 0.40681 0.40624 0.0
O77 O 0.1949 0.34058 0.42371 0.0
O78 O 0.18478 0.31405 0.402 0.0
O79 O 0.18777 0.3847 0.36738 0.0
O80 O 0.19293 0.35161 0.3681 0.0
C81 C 0.19184 0.32165 0.42096 0.0
C82 C 0.18933 0.3678 0.35649 0.0
O83 O 0.18746 0.38926 0.4276 0.0
Mg84 Mg 0.81597 0.36391 0.08198 0.0
O85 O 0.86101 0.3608 0.08325 0.0
O86 O 0.8706 0.33109 0.09905 0.0
Mg87 Mg 0.83203 0.3152 0.10768 0.0
C88 C 0.87771 0.34773 0.09008 0.0
C89 C 0.82143 0.40832 0.06563 0.0
O90 O 0.82139 0.41121 0.08763 0.0
O91 O 0.81414 0.34203 0.05253 0.0
O92 O 0.82307 0.31271 0.06958 0.0
O93 O 0.81599 0.37717 0.11651 0.0
O94 O 0.81218 0.34459 0.1095 0.0
C95 C 0.81734 0.32297 0.05192 0.0
C96 C 0.81432 0.35891 0.12408 0.0
O97 O 0.81984 0.39047 0.05797 0.0
Mg98 Mg 0.18728 0.61848 0.59075 0.0
O99 O 0.14334 0.62587 0.58671 0.0
O100 O 0.13634 0.65725 0.59894 0.0
Mg101 Mg 0.17594 0.67016 0.61004 0.0
C102 C 0.12797 0.6407 0.59059 0.0
C103 C 0.19121 0.57391 0.57561 0.0
O104 O 0.20454 0.5733 0.59469 0.0
O105 O 0.19717 0.63745 0.55988 0.0
O106 O 0.18982 0.66862 0.57299 0.0
O107 O 0.18017 0.60822 0.62604 0.0
O108 O 0.19063 0.6395 0.61674 0.0
C109 C 0.19656 0.65652 0.55718 0.0
C110 C 0.18411 0.62673 0.63217 0.0
O111 O 0.18153 0.59058 0.56908 0.0
Mg112 Mg 0.70995 0.86486 0.07047 0.0
O113 O 0.66531 0.86095 0.06578 0.0
O114 O 0.65577 0.86647 0.02933 0.0
Mg115 Mg 0.69451 0.87198 0.01068 0.0
C116 C 0.64871 0.8624 0.04958 0.0
C117 C 0.72397 0.85948 0.11933 0.0
O118 O 0.74052 0.87315 0.11175 0.0
O119 O 0.71689 0.83419 0.05532 0.0
O120 O 0.70751 0.83937 0.01879 0.0
O121 O 0.7039 0.89751 0.07581 0.0
O122 O 0.71156 0.88351 0.04239 0.0
C123 C 0.71477 0.82787 0.03503 0.0
C124 C 0.70575 0.89933 0.05404 0.0
O125 O 0.70748 0.85181 0.10566 0.0
Mg126 Mg 0.30004 0.11914 0.57487 0.0
O127 O 0.34423 0.12104 0.56746 0.0
O128 O 0.35122 0.1136 0.53108 0.0
Mg129 Mg 0.31081 0.10806 0.51504 0.0
C130 C 0.35971 0.11844 0.55069 0.0
C131 C 0.28734 0.13774 0.62129 0.0
O132 O 0.26359 0.1335 0.61379 0.0
O133 O 0.29352 0.14912 0.55759 0.0
O134 O 0.29943 0.14135 0.5211 0.0
O135 O 0.30364 0.08643 0.5822 0.0
O136 O 0.29493 0.09907 0.54833 0.0
C137 C 0.29397 0.15403 0.53672 0.0
C138 C 0.29964 0.08352 0.56079 0.0
O139 O 0.30702 0.13416 0.60868 0.0
Mg140 Mg 0.70584 0.12001 0.91748 0.0
O141 O 0.66197 0.12457 0.92438 0.0
O142 O 0.6544 0.1237 0.96158 0.0
Mg143 Mg 0.69465 0.11993 0.97855 0.0
C144 C 0.64625 0.12526 0.9412 0.0
C145 C 0.68202 0.1193 0.86984 0.0
O146 O 0.66929 0.10451 0.8798 0.0
O147 O 0.71423 0.15215 0.92769 0.0
O148 O 0.70729 0.15117 0.96505 0.0
O149 O 0.69901 0.08726 0.91723 0.0
O150 O 0.70973 0.10458 0.94803 0.0
C151 C 0.71355 0.1607 0.947 0.0
C152 C 0.70243 0.0878 0.93894 0.0
O153 O 0.69894 0.12927 0.88107 0.0
Mg154 Mg 0.28064 0.86291 0.42281 0.0
O155 O 0.32588 0.86367 0.42425 0.0
O156 O 0.33841 0.86311 0.46051 0.0
Mg157 Mg 0.30138 0.86086 0.48207 0.0
C158 C 0.34383 0.86381 0.43943 0.0
C159 C 0.27176 0.87083 0.37284 0.0
O160 O 0.25771 0.88486 0.38285 0.0
O161 O 0.28077 0.82954 0.4306 0.0
O162 O 0.29377 0.82928 0.46685 0.0
O163 O 0.27985 0.89589 0.42495 0.0
O164 O 0.27874 0.87604 0.45506 0.0
C165 C 0.28674 0.82018 0.44874 0.0
C166 C 0.28014 0.89402 0.44674 0.0
O167 O 0.28318 0.85764 0.38495 0.0
Mg168 Mg 0.30751 0.11989 0.90091 0.0
O169 O 0.35208 0.1262 0.90244 0.0
O170 O 0.35904 0.15694 0.88813 0.0
Mg171 Mg 0.31945 0.1705 0.87828 0.0
C172 C 0.36752 0.14061 0.89694 0.0
C173 C 0.30219 0.07606 0.91548 0.0
O174 O 0.28965 0.07671 0.89602 0.0
O175 O 0.30108 0.14023 0.93144 0.0
O176 O 0.30839 0.17053 0.91599 0.0
O177 O 0.31179 0.10813 0.86589 0.0
O178 O 0.30352 0.14 0.87404 0.0
C179 C 0.30259 0.15939 0.93293 0.0
C180 C 0.30856 0.12649 0.85902 0.0
O181 O 0.31255 0.09214 0.92309 0.0
Mg182 Mg 0.68058 0.86765 0.39852 0.0
O183 O 0.63578 0.86392 0.39556 0.0
O184 O 0.62763 0.8338 0.38018 0.0
Mg185 Mg 0.66702 0.81865 0.37265 0.0
C186 C 0.61972 0.85047 0.38853 0.0
C187 C 0.68916 0.90971 0.41804 0.0
O188 O 0.70611 0.90913 0.40125 0.0
O189 O 0.68168 0.84595 0.42807 0.0
O190 O 0.6751 0.81631 0.41094 0.0
O191 O 0.68258 0.88117 0.36433 0.0
O192 O 0.68605 0.84847 0.3711 0.0
C193 C 0.67963 0.8268 0.42868 0.0
C194 C 0.68503 0.86299 0.35663 0.0
O195 O 0.67495 0.89433 0.42189 0.0
Mg196 Mg 0.3119 0.86966 0.09274 0.0
O197 O 0.35615 0.86249 0.09149 0.0
O198 O 0.36376 0.83738 0.11592 0.0
Mg199 Mg 0.32483 0.82854 0.13264 0.0
C200 C 0.37178 0.85011 0.10123 0.0
C201 C 0.2961 0.90146 0.05871 0.0
O202 O 0.27647 0.90092 0.07319 0.0
O203 O 0.30302 0.84139 0.0721 0.0
O204 O 0.30889 0.81766 0.09848 0.0
O205 O 0.31793 0.8915 0.12106 0.0
O206 O 0.31023 0.859 0.12579 0.0
C207 C 0.30228 0.82301 0.07848 0.0
C208 C 0.31558 0.87626 0.13459 0.0
O209 O 0.31508 0.8892 0.06132 0.0
Mg210 Mg 0.69823 0.12148 0.58726 0.0
O211 O 0.65405 0.12856 0.5844 0.0
O212 O 0.64551 0.15653 0.60413 0.0
Mg213 Mg 0.68473 0.16849 0.61748 0.0
C214 C 0.63795 0.14175 0.59192 0.0
C215 C 0.67709 0.08373 0.56231 0.0
O216 O 0.66175 0.08375 0.58022 0.0
O217 O 0.70738 0.14557 0.56129 0.0
O218 O 0.69855 0.17368 0.58081 0.0
O219 O 0.69077 0.10514 0.61942 0.0
O220 O 0.70041 0.13762 0.61728 0.0
C221 C 0.70593 0.16472 0.56273 0.0
C222 C 0.69361 0.12237 0.62943 0.0
O223 O 0.69407 0.09765 0.56002 0.0
C224 C 0.11786 0.37026 0.07254 0.0
C225 C 0.12641 0.36719 0.05016 0.0
C226 C 0.091 0.37022 0.07775 0.0
C227 C 0.02453 0.37413 0.05167 0.0
H228 H 0.00239 0.34657 0.10634 0.0
C229 C 0.92485 0.3367 0.0922 0.0
C230 C 0.90623 0.35173 0.0871 0.0
C231 C 0.95168 0.34012 0.08877 0.0
C232 C 0.00822 0.35424 0.09094 0.0
H233 H 0.11332 0.36182 0.01569 0.0
H234 H 0.06663 0.36131 0.02484 0.0
H235 H 0.04911 0.34953 0.0978 0.0
H236 H 0.90139 0.38233 0.07475 0.0
H237 H 0.94833 0.38838 0.0691 0.0
H238 H 0.98357 0.37808 0.04435 0.0
C239 C 0.08063 0.36415 0.03832 0.0
C240 C 0.03505 0.35617 0.08619 0.0
C241 C 0.10746 0.36431 0.03309 0.0
C242 C 0.91517 0.37037 0.07876 0.0
C243 C 0.94207 0.37382 0.0754 0.0
C244 C 0.99767 0.37211 0.05637 0.0
C245 C 0.07206 0.367 0.06073 0.0
C246 C 0.04354 0.36596 0.06638 0.0
C247 C 0.96064 0.35868 0.08026 0.0
C248 C 0.98919 0.36194 0.07594 0.0
H249 H 0.1319 0.37268 0.08611 0.0
H250 H 0.08509 0.37277 0.09513 0.0
H251 H 0.03038 0.382 0.03642 0.0
H252 H 0.91872 0.32213 0.09855 0.0
H253 H 0.96537 0.328 0.09233 0.0
C254 C 0.88844 0.62563 0.56715 0.0
C255 C 0.87927 0.6267 0.5447 0.0
C256 C 0.91537 0.62658 0.57188 0.0
C257 C 0.9812 0.62055 0.54583 0.0
H258 H 0.00397 0.65167 0.59786 0.0
C259 C 0.08265 0.65543 0.58723 0.0
C260 C 0.09957 0.63875 0.58511 0.0
C261 C 0.0559 0.65369 0.58205 0.0
C262 C 0.99798 0.64305 0.58316 0.0
H263 H 0.89137 0.6295 0.50961 0.0
H264 H 0.93836 0.63148 0.51791 0.0
H265 H 0.95726 0.64942 0.58893 0.0
H266 H 0.1015 0.60711 0.57586 0.0
H267 H 0.0547 0.60403 0.56717 0.0
H268 H 0.02205 0.61464 0.53974 0.0
C269 C 0.92469 0.6296 0.53184 0.0
C270 C 0.97115 0.64154 0.5782 0.0
C271 C 0.89773 0.62858 0.52708 0.0
C272 C 0.08906 0.6203 0.57764 0.0
C273 C 0.06225 0.61854 0.57252 0.0
C274 C 0.00808 0.6221 0.55076 0.0
C275 C 0.93382 0.62871 0.55431 0.0
C276 C 0.96242 0.63026 0.55949 0.0
C277 C 0.04535 0.63522 0.5747 0.0
C278 C 0.01678 0.63339 0.56948 0.0
H279 H 0.87483 0.62404 0.58117 0.0
H280 H 0.92173 0.6255 0.58935 0.0
H281 H 0.97513 0.61157 0.53142 0.0
H282 H 0.09005 0.66991 0.59279 0.0
H283 H 0.04354 0.66692 0.58356 0.0
C284 C 0.9175 0.64089 0.87844 0.0
C285 C 0.89784 0.6305 0.89048 0.0
C286 C 0.94411 0.63722 0.8828 0.0
C287 C 0.98889 0.62032 0.92713 0.0
H288 H 0.03856 0.61335 0.8779 0.0
C289 C 0.09923 0.60474 0.9436 0.0
C290 C 0.11745 0.61426 0.92922 0.0
C291 C 0.0723 0.60517 0.93866 0.0
C292 C 0.02502 0.61551 0.89185 0.0
H293 H 0.89074 0.60805 0.91651 0.0
H294 H 0.93736 0.60189 0.92433 0.0
H295 H 0.99173 0.617 0.86958 0.0
H296 H 0.1216 0.63181 0.89841 0.0
H297 H 0.07471 0.63308 0.89018 0.0
H298 H 0.0221 0.6195 0.9494 0.0
C299 C 0.93205 0.61282 0.91149 0.0
C300 C 0.9982 0.6175 0.88706 0.0
C301 C 0.9054 0.61629 0.90692 0.0
C302 C 0.10813 0.6242 0.90979 0.0
C303 C 0.0812 0.62481 0.90497 0.0
C304 C 0.01576 0.61854 0.93192 0.0
C305 C 0.95165 0.62327 0.89948 0.0
C306 C 0.9799 0.62008 0.90464 0.0
C307 C 0.06292 0.61529 0.91933 0.0
C308 C 0.0342 0.61628 0.91433 0.0
H309 H 0.91237 0.65188 0.86561 0.0
H310 H 0.95882 0.64563 0.87345 0.0
H311 H 0.97522 0.62251 0.94099 0.0
H312 H 0.10577 0.5968 0.95862 0.0
H313 H 0.05886 0.5974 0.94991 0.0
C314 C 0.08086 0.34567 0.38109 0.0
C315 C 0.10023 0.35499 0.39453 0.0
C316 C 0.05416 0.34945 0.38488 0.0
C317 C 0.00758 0.3646 0.4286 0.0
H318 H 0.96123 0.37665 0.37815 0.0
C319 C 0.89743 0.38244 0.44224 0.0
C320 C 0.87952 0.37453 0.42639 0.0
C321 C 0.92454 0.38168 0.43818 0.0
C322 C 0.9738 0.37306 0.39242 0.0
H323 H 0.10669 0.37557 0.42258 0.0
H324 H 0.05991 0.38188 0.4294 0.0
H325 H 0.00822 0.37189 0.37147 0.0
H326 H 0.87608 0.35966 0.3938 0.0
H327 H 0.92323 0.35778 0.38704 0.0
H328 H 0.97323 0.36506 0.4495 0.0
C329 C 0.06552 0.37171 0.41589 0.0
C330 C 0.00074 0.37042 0.38857 0.0
C331 C 0.09227 0.36814 0.41191 0.0
C332 C 0.88932 0.36602 0.40631 0.0
C333 C 0.91642 0.36505 0.40237 0.0
C334 C 0.9806 0.36699 0.43243 0.0
C335 C 0.04623 0.36244 0.40236 0.0
C336 C 0.01785 0.36605 0.4066 0.0
C337 C 0.93441 0.3728 0.41828 0.0
C338 C 0.96331 0.37113 0.41436 0.0
H339 H 0.0863 0.33552 0.36751 0.0
H340 H 0.03967 0.34197 0.37434 0.0
H341 H 0.02033 0.36103 0.44278 0.0
H342 H 0.89052 0.38926 0.4578 0.0
H343 H 0.93775 0.38813 0.45063 0.0
C344 C 0.40919 0.86108 0.0763 0.0
C345 C 0.40018 0.85058 0.09548 0.0
C346 C 0.43604 0.8615 0.071 0.0
C347 C 0.50135 0.85692 0.0967 0.0
H348 H 0.5252 0.8465 0.03546 0.0
C349 C 0.61193 0.85141 0.07512 0.0
C350 C 0.6203 0.85978 0.05448 0.0
C351 C 0.58508 0.84939 0.07989 0.0
C352 C 0.51888 0.84971 0.0526 0.0
H353 H 0.4124 0.83233 0.12416 0.0
H354 H 0.45922 0.8333 0.115 0.0
H355 H 0.47824 0.84515 0.04413 0.0
H356 H 0.60697 0.87262 0.02267 0.0
H357 H 0.5603 0.86964 0.03123 0.0
H358 H 0.54176 0.86201 0.10517 0.0
C359 C 0.44547 0.84117 0.10409 0.0
C360 C 0.49198 0.84887 0.05754 0.0
C361 C 0.41863 0.84054 0.10924 0.0
C362 C 0.60122 0.86598 0.03868 0.0
C363 C 0.5744 0.86415 0.04354 0.0
C364 C 0.52822 0.85798 0.09172 0.0
C365 C 0.45444 0.85164 0.08493 0.0
C366 C 0.48296 0.85246 0.07964 0.0
C367 C 0.56596 0.85588 0.06424 0.0
C368 C 0.53736 0.85439 0.0696 0.0
H369 H 0.39551 0.86892 0.06531 0.0
H370 H 0.44246 0.86981 0.05622 0.0
H371 H 0.4949 0.85999 0.11384 0.0
H372 H 0.62611 0.84634 0.0876 0.0
H373 H 0.57935 0.84261 0.09582 0.0
C374 C 0.59073 0.15073 0.59894 0.0
C375 C 0.60954 0.13962 0.58671 0.0
C376 C 0.56387 0.14835 0.59455 0.0
C377 C 0.51663 0.13299 0.55119 0.0
H378 H 0.46959 0.12401 0.60189 0.0
C379 C 0.40658 0.11328 0.53853 0.0
C380 C 0.3884 0.12105 0.5542 0.0
C381 C 0.43367 0.11543 0.54214 0.0
C382 C 0.48233 0.12683 0.58754 0.0
H383 H 0.61483 0.11755 0.55997 0.0
H384 H 0.56779 0.11367 0.55209 0.0
H385 H 0.51659 0.12834 0.60867 0.0
H386 H 0.38442 0.1376 0.58568 0.0
H387 H 0.43149 0.14193 0.5916 0.0
H388 H 0.48242 0.13201 0.53005 0.0
C389 C 0.57397 0.12414 0.56513 0.0
C390 C 0.50928 0.12921 0.59145 0.0
C391 C 0.60086 0.1263 0.56973 0.0
C392 C 0.3979 0.13125 0.57339 0.0
C393 C 0.42495 0.13363 0.57685 0.0
C394 C 0.48959 0.13087 0.54727 0.0
C395 C 0.55523 0.13502 0.57764 0.0
C396 C 0.52669 0.13232 0.57333 0.0
C397 C 0.44322 0.12561 0.56137 0.0
C398 C 0.47207 0.12778 0.56541 0.0
H399 H 0.59671 0.16109 0.61216 0.0
H400 H 0.54983 0.15705 0.60429 0.0
H401 H 0.52963 0.13557 0.53693 0.0
H402 H 0.39991 0.10523 0.52363 0.0
H403 H 0.4471 0.10879 0.53002 0.0
C404 C 0.5997 0.12977 0.95468 0.0
C405 C 0.61764 0.1273 0.93676 0.0
C406 C 0.57267 0.13117 0.95039 0.0
C407 C 0.52482 0.14205 0.9046 0.0
H408 H 0.47536 0.11567 0.94492 0.0
C409 C 0.40697 0.12035 0.90899 0.0
C410 C 0.39618 0.13861 0.90124 0.0
C411 C 0.434 0.1187 0.91323 0.0
C412 C 0.48892 0.12296 0.93337 0.0
H413 H 0.62113 0.1243 0.90026 0.0
H414 H 0.57411 0.12638 0.8929 0.0
H415 H 0.5225 0.11318 0.95235 0.0
H416 H 0.40544 0.16952 0.89208 0.0
H417 H 0.45227 0.16673 0.89984 0.0
H418 H 0.49135 0.15137 0.88527 0.0
C419 C 0.58092 0.12762 0.91022 0.0
C420 C 0.51593 0.12177 0.93781 0.0
C421 C 0.60792 0.12633 0.91448 0.0
C422 C 0.41304 0.15517 0.89787 0.0
C423 C 0.43998 0.15354 0.90221 0.0
C424 C 0.49785 0.14317 0.90012 0.0
C425 C 0.56295 0.13004 0.92812 0.0
C426 C 0.5342 0.13133 0.92349 0.0
C427 C 0.45082 0.1353 0.90991 0.0
C428 C 0.47955 0.1337 0.91448 0.0
H429 H 0.60651 0.13066 0.97203 0.0
H430 H 0.5594 0.13334 0.96454 0.0
H431 H 0.5383 0.14979 0.89336 0.0
H432 H 0.39457 0.10727 0.9117 0.0
H433 H 0.44176 0.10435 0.91887 0.0
C434 C 0.39196 0.86272 0.44872 0.0
C435 C 0.37185 0.86459 0.43245 0.0
C436 C 0.41839 0.86309 0.44226 0.0
C437 C 0.4619 0.85503 0.39312 0.0
H438 H 0.51362 0.88039 0.4322 0.0
C439 C 0.58134 0.87283 0.39786 0.0
C440 C 0.59101 0.85403 0.39072 0.0
C441 C 0.55431 0.87583 0.40089 0.0
C442 C 0.49945 0.87348 0.4209 0.0
H443 H 0.36388 0.86857 0.39661 0.0
H444 H 0.41013 0.86951 0.38541 0.0
H445 H 0.46704 0.88312 0.44128 0.0
H446 H 0.57972 0.82372 0.3808 0.0
H447 H 0.5328 0.82881 0.38655 0.0
H448 H 0.49434 0.84562 0.37256 0.0
C449 C 0.40537 0.86745 0.40313 0.0
C450 C 0.47273 0.8748 0.42628 0.0
C451 C 0.37886 0.867 0.40958 0.0
C452 C 0.57299 0.83842 0.38626 0.0
C453 C 0.546 0.84138 0.38941 0.0
C454 C 0.48864 0.85377 0.38767 0.0
C455 C 0.42545 0.86545 0.41941 0.0
C456 C 0.45366 0.86532 0.41267 0.0
C457 C 0.53634 0.86006 0.39696 0.0
C458 C 0.50778 0.86272 0.40169 0.0
H459 H 0.38734 0.86073 0.46647 0.0
H460 H 0.43331 0.86113 0.45521 0.0
H461 H 0.44777 0.84743 0.38234 0.0
H462 H 0.59464 0.88524 0.40128 0.0
H463 H 0.5475 0.8905 0.40638 0.0
C464 C 0.18161 0.38593 0.15123 0.0
C465 C 0.19297 0.3702 0.13867 0.0
C466 C 0.17887 0.38431 0.17467 0.0
C467 C 0.20618 0.35689 0.2237 0.0
H468 H 0.14629 0.38014 0.255 0.0
C469 C 0.19226 0.34902 0.31996 0.0
C470 C 0.18646 0.36692 0.33164 0.0
C471 C 0.19098 0.34835 0.29638 0.0
C472 C 0.16317 0.37367 0.24646 0.0
H473 H 0.2096 0.34014 0.14073 0.0
H474 H 0.2043 0.33712 0.18163 0.0
H475 H 0.14752 0.38039 0.21367 0.0
H476 H 0.17413 0.39803 0.32783 0.0
H477 H 0.17183 0.39684 0.28651 0.0
H478 H 0.22176 0.35016 0.25651 0.0
C479 C 0.19805 0.35091 0.17342 0.0
C480 C 0.16393 0.37384 0.22281 0.0
C481 C 0.20097 0.3526 0.14997 0.0
C482 C 0.17875 0.38403 0.31929 0.0
C483 C 0.17727 0.38332 0.29567 0.0
C484 C 0.20531 0.35659 0.24731 0.0
C485 C 0.18723 0.36685 0.18608 0.0
C486 C 0.18558 0.36563 0.21116 0.0
C487 C 0.18372 0.36554 0.28399 0.0
C488 C 0.18392 0.36513 0.25892 0.0
H489 H 0.17529 0.39972 0.14304 0.0
H490 H 0.17083 0.39699 0.18389 0.0
H491 H 0.22338 0.35077 0.21532 0.0
H492 H 0.19834 0.33559 0.32898 0.0
H493 H 0.1958 0.3344 0.28781 0.0
C494 C 0.83164 0.61238 0.64763 0.0
C495 C 0.81842 0.62683 0.63449 0.0
C496 C 0.83468 0.61516 0.67088 0.0
C497 C 0.80367 0.64191 0.71831 0.0
H498 H 0.86346 0.62071 0.75162 0.0
C499 C 0.80899 0.64398 0.8157 0.0
C500 C 0.81463 0.62525 0.82571 0.0
C501 C 0.81269 0.64684 0.79251 0.0
C502 C 0.84668 0.62671 0.74249 0.0
H503 H 0.79925 0.65604 0.63512 0.0
H504 H 0.80508 0.66112 0.67572 0.0
H505 H 0.86478 0.6217 0.7103 0.0
H506 H 0.82923 0.59504 0.81952 0.0
H507 H 0.83574 0.60008 0.77897 0.0
H508 H 0.7855 0.64672 0.75052 0.0
C509 C 0.81252 0.6474 0.66814 0.0
C510 C 0.84738 0.62724 0.71887 0.0
C511 C 0.80926 0.64453 0.64488 0.0
C512 C 0.82463 0.6096 0.81224 0.0
C513 C 0.82857 0.61254 0.78909 0.0
C514 C 0.80309 0.64156 0.74191 0.0
C515 C 0.8248 0.63256 0.68148 0.0
C516 C 0.8256 0.63439 0.7065 0.0
C517 C 0.82233 0.6311 0.77898 0.0
C518 C 0.82434 0.63354 0.75418 0.0
H519 H 0.83893 0.59858 0.64011 0.0
H520 H 0.84389 0.60328 0.68066 0.0
H521 H 0.78639 0.64723 0.70935 0.0
H522 H 0.8012 0.65631 0.82566 0.0
H523 H 0.80785 0.66132 0.78512 0.0
C524 C 0.18745 0.65208 0.83737 0.0
C525 C 0.21313 0.64672 0.84399 0.0
C526 C 0.18149 0.65536 0.81456 0.0
C527 C 0.17142 0.64352 0.76581 0.0
H528 H 0.22093 0.66566 0.72249 0.0
C529 C 0.17439 0.61888 0.67272 0.0
C530 C 0.18156 0.63297 0.65608 0.0
C531 C 0.17447 0.62425 0.69558 0.0
C532 C 0.20662 0.65972 0.73434 0.0
H533 H 0.25304 0.64188 0.83206 0.0
H534 H 0.2426 0.64727 0.79234 0.0
H535 H 0.22879 0.67017 0.76286 0.0
H536 H 0.19351 0.66396 0.65031 0.0
H537 H 0.19325 0.67339 0.69017 0.0
H538 H 0.14939 0.63289 0.7373 0.0
C539 C 0.22707 0.64914 0.80473 0.0
C540 C 0.2113 0.66212 0.75749 0.0
C541 C 0.23304 0.64592 0.82752 0.0
C542 C 0.18786 0.65274 0.6627 0.0
C543 C 0.18791 0.65812 0.68557 0.0
C544 C 0.16671 0.64116 0.74267 0.0
C545 C 0.20108 0.65333 0.79792 0.0
C546 C 0.19414 0.65357 0.77349 0.0
C547 C 0.1817 0.64383 0.70229 0.0
C548 C 0.18464 0.64874 0.72668 0.0
H549 H 0.17169 0.65303 0.84969 0.0
H550 H 0.16137 0.65892 0.8099 0.0
H551 H 0.15788 0.63659 0.77766 0.0
H552 H 0.16945 0.60352 0.66817 0.0
H553 H 0.16992 0.61279 0.70804 0.0
C554 C 0.81071 0.33495 0.15662 0.0
C555 C 0.81516 0.35459 0.14857 0.0
C556 C 0.80979 0.3311 0.17984 0.0
C557 C 0.78967 0.33122 0.2283 0.0
H558 H 0.83597 0.35893 0.27026 0.0
C559 C 0.76385 0.34515 0.32183 0.0
C560 C 0.78433 0.34553 0.33782 0.0
C561 C 0.76939 0.34228 0.2989 0.0
C562 C 0.82313 0.35079 0.25881 0.0
H563 H 0.82272 0.38553 0.1585 0.0
H564 H 0.82084 0.37888 0.19901 0.0
H565 H 0.84382 0.36168 0.22974 0.0
H566 H 0.82647 0.34177 0.34259 0.0
H567 H 0.83605 0.33649 0.30263 0.0
H568 H 0.76887 0.32044 0.25742 0.0
C569 C 0.8184 0.36639 0.18739 0.0
C570 C 0.82745 0.35258 0.23558 0.0
C571 C 0.81929 0.37023 0.16418 0.0
C572 C 0.81027 0.34181 0.33062 0.0
C573 C 0.81579 0.33887 0.30773 0.0
C574 C 0.78535 0.32941 0.25156 0.0
C575 C 0.81333 0.34683 0.19547 0.0
C576 C 0.81045 0.34317 0.22008 0.0
C577 C 0.79551 0.33964 0.29155 0.0
C578 C 0.80174 0.3395 0.26704 0.0
H579 H 0.80735 0.32258 0.14502 0.0
H580 H 0.80611 0.31585 0.18557 0.0
H581 H 0.77611 0.32389 0.21677 0.0
H582 H 0.74365 0.34792 0.32685 0.0
H583 H 0.75334 0.34314 0.28684 0.0
C584 C 0.69666 0.87478 0.31796 0.0
C585 C 0.68774 0.85924 0.33217 0.0
C586 C 0.70162 0.87102 0.29515 0.0
C587 C 0.68305 0.8426 0.247 0.0
H588 H 0.75383 0.85279 0.22501 0.0
C589 C 0.7072 0.83882 0.15179 0.0
C590 C 0.72306 0.85461 0.14368 0.0
C591 C 0.70482 0.83541 0.17505 0.0
C592 C 0.73393 0.84999 0.23082 0.0
H593 H 0.67608 0.8278 0.33347 0.0
H594 H 0.68389 0.82147 0.29317 0.0
H595 H 0.74455 0.85523 0.26544 0.0
H596 H 0.74944 0.87883 0.15348 0.0
H597 H 0.74464 0.87341 0.1938 0.0
H598 H 0.67183 0.83871 0.21241 0.0
C599 C 0.68745 0.83639 0.29997 0.0
C600 C 0.72873 0.85127 0.25394 0.0
C601 C 0.68303 0.84003 0.32297 0.0
C602 C 0.73712 0.8665 0.15918 0.0
C603 C 0.73452 0.86326 0.18237 0.0
C604 C 0.68812 0.84169 0.22378 0.0
C605 C 0.69721 0.85179 0.28607 0.0
C606 C 0.70316 0.848 0.26209 0.0
C607 C 0.71807 0.84786 0.19063 0.0
C608 C 0.71349 0.84589 0.21537 0.0
H609 H 0.70059 0.8897 0.32461 0.0
H610 H 0.70896 0.88313 0.28457 0.0
H611 H 0.66317 0.8401 0.25306 0.0
H612 H 0.6963 0.8293 0.14019 0.0
H613 H 0.69233 0.82322 0.18082 0.0
C614 C 0.31789 0.11705 0.81887 0.0
C615 C 0.3111 0.13182 0.83485 0.0
C616 C 0.31867 0.12174 0.79585 0.0
C617 C 0.32993 0.13732 0.74877 0.0
H618 H 0.27109 0.16809 0.72503 0.0
C619 C 0.31691 0.14817 0.65312 0.0
C620 C 0.29144 0.1439 0.64506 0.0
C621 C 0.32131 0.15127 0.6762 0.0
C622 C 0.28767 0.15951 0.73141 0.0
H623 H 0.3003 0.16323 0.83924 0.0
H624 H 0.3021 0.17149 0.79907 0.0
H625 H 0.27592 0.16387 0.76581 0.0
H626 H 0.25041 0.14071 0.65467 0.0
H627 H 0.25813 0.1457 0.69491 0.0
H628 H 0.34086 0.13198 0.71439 0.0
C629 C 0.30654 0.15622 0.80434 0.0
C630 C 0.29061 0.15728 0.75479 0.0
C631 C 0.30571 0.15151 0.82738 0.0
C632 C 0.27027 0.14391 0.66035 0.0
C633 C 0.27469 0.14692 0.68344 0.0
C634 C 0.32694 0.1395 0.72541 0.0
C635 C 0.3127 0.14132 0.7883 0.0
C636 C 0.31142 0.14575 0.7637 0.0
C637 C 0.30036 0.15008 0.6917 0.0
C638 C 0.30543 0.15022 0.71645 0.0
H639 H 0.3221 0.10173 0.82408 0.0
H640 H 0.32309 0.10983 0.78391 0.0
H641 H 0.34639 0.12861 0.75513 0.0
H642 H 0.33361 0.14849 0.64172 0.0
H643 H 0.34124 0.15405 0.68199 0.0
C644 C 0.6639 0.10955 0.8321 0.0
C645 C 0.67812 0.12325 0.84549 0.0
C646 C 0.66213 0.11226 0.80873 0.0
C647 C 0.69785 0.13677 0.76209 0.0
H648 H 0.63715 0.11985 0.72692 0.0
C649 C 0.69552 0.14257 0.66501 0.0
C650 C 0.68813 0.12477 0.65378 0.0
C651 C 0.69151 0.14457 0.68826 0.0
C652 C 0.65422 0.1246 0.73657 0.0
H653 H 0.70039 0.15116 0.84514 0.0
H654 H 0.69675 0.15619 0.80437 0.0
H655 H 0.63457 0.12022 0.76823 0.0
H656 H 0.67007 0.09537 0.65788 0.0
H657 H 0.66304 0.09891 0.69861 0.0
H658 H 0.7175 0.14103 0.73044 0.0
C659 C 0.68757 0.14304 0.81184 0.0
C660 C 0.65279 0.12478 0.76019 0.0
C661 C 0.68955 0.14021 0.8352 0.0
C662 C 0.67604 0.10922 0.66612 0.0
C663 C 0.67183 0.11131 0.68936 0.0
C664 C 0.69917 0.13676 0.73852 0.0
C665 C 0.67433 0.12885 0.79827 0.0
C666 C 0.67476 0.13055 0.77322 0.0
C667 C 0.67987 0.12889 0.70068 0.0
C668 C 0.67752 0.13038 0.72556 0.0
H669 H 0.65487 0.09631 0.83954 0.0
H670 H 0.65208 0.1009 0.79879 0.0
H671 H 0.7153 0.14093 0.77156 0.0
H672 H 0.70494 0.1548 0.65596 0.0
H673 H 0.69771 0.15834 0.69657 0.0
C674 C 0.31075 0.89688 0.16967 0.0
C675 C 0.3179 0.87863 0.15932 0.0
C676 C 0.30898 0.89817 0.19324 0.0
C677 C 0.32766 0.87331 0.24676 0.0
H678 H 0.25956 0.89189 0.2679 0.0
C679 C 0.29088 0.85675 0.33709 0.0
C680 C 0.27675 0.87199 0.34825 0.0
C681 C 0.29718 0.8587 0.31417 0.0
C682 C 0.27885 0.88696 0.26238 0.0
H683 H 0.33107 0.84806 0.16552 0.0
H684 H 0.3281 0.8503 0.2065 0.0
H685 H 0.27065 0.89479 0.22795 0.0
H686 H 0.258 0.90116 0.34411 0.0
H687 H 0.26942 0.90474 0.30439 0.0
H688 H 0.3359 0.86544 0.28116 0.0
C689 C 0.32357 0.86353 0.19646 0.0
C690 C 0.2852 0.88866 0.23949 0.0
C691 C 0.32498 0.86217 0.17295 0.0
C692 C 0.26874 0.88906 0.33597 0.0
C693 C 0.27523 0.8911 0.31315 0.0
C694 C 0.32141 0.87178 0.26972 0.0
C695 C 0.31479 0.88134 0.2068 0.0
C696 C 0.3095 0.8816 0.23141 0.0
C697 C 0.28966 0.87601 0.30199 0.0
C698 C 0.29677 0.87833 0.27775 0.0
H699 H 0.30523 0.90982 0.15954 0.0
H700 H 0.3024 0.91214 0.20085 0.0
H701 H 0.34661 0.86787 0.24095 0.0
H702 H 0.29727 0.84339 0.3461 0.0
H703 H 0.30787 0.84661 0.30599 0.0
C704 C 0.307 0.18847 0.95919 0.0
C705 C 0.29619 0.16945 0.9545 0.0
C706 C 0.29811 0.19967 0.97759 0.0
C707 C 0.23739 0.20848 0.00688 0.0
H708 H 0.28049 0.24735 0.03905 0.0
C709 C 0.23051 0.29101 0.05497 0.0
C710 C 0.21694 0.30123 0.03763 0.0
C711 C 0.23713 0.27066 0.05249 0.0
C712 C 0.26806 0.23635 0.03072 0.0
H713 H 0.26881 0.14662 0.96616 0.0
H714 H 0.2527 0.16656 -0.00172 0.0
H715 H 0.30113 0.218 0.02175 0.0
H716 H 0.1979 0.29772 0.00496 0.0
H717 H 0.20943 0.26242 0.00064 0.0
H718 H 0.20453 0.22747 0.01469 0.0
C719 C 0.2682 0.17267 0.98771 0.0
C720 C 0.27992 0.21961 0.02067 0.0
C721 C 0.27745 0.16127 0.96941 0.0
C722 C 0.20859 0.29036 0.01853 0.0
C723 C 0.21496 0.27003 0.01617 0.0
C724 C 0.22553 0.22526 0.01686 0.0
C725 C 0.27797 0.1922 0.99158 0.0
C726 C 0.26489 0.20611 0.00766 0.0
C727 C 0.22997 0.26012 0.03279 0.0
C728 C 0.24095 0.23989 0.02786 0.0
H729 H 0.32165 0.19506 0.94809 0.0
H730 H 0.30582 0.21475 0.97992 0.0
H731 H 0.22529 0.19836 -0.00308 0.0
H732 H 0.23714 0.29895 0.06995 0.0
H733 H 0.2486 0.26336 0.06561 0.0
C734 C 0.76811 0.69797 0.54853 0.0
C735 C 0.78207 0.68822 0.53111 0.0
C736 C 0.75853 0.71751 0.54542 0.0
C737 C 0.72185 0.74805 0.52274 0.0
H738 H 0.75903 0.78995 0.48997 0.0
C739 C 0.6772 0.79612 0.45297 0.0
C740 C 0.68566 0.81609 0.44996 0.0
C741 C 0.68707 0.78455 0.47076 0.0
C742 C 0.74845 0.77866 0.49961 0.0
H743 H 0.79867 0.69186 0.49753 0.0
H744 H 0.78215 0.72599 0.49221 0.0
H745 H 0.78374 0.76211 0.5067 0.0
H746 H 0.70953 0.84011 0.46416 0.0
H747 H 0.72728 0.81963 0.49506 0.0
H748 H 0.68639 0.76389 0.51429 0.0
C749 C 0.77854 0.71851 0.50821 0.0
C750 C 0.76257 0.76266 0.509 0.0
C751 C 0.78781 0.69889 0.51118 0.0
C752 C 0.70268 0.82474 0.46605 0.0
C753 C 0.71291 0.81304 0.48368 0.0
C754 C 0.70769 0.76394 0.51314 0.0
C755 C 0.76313 0.72776 0.52501 0.0
C756 C 0.74929 0.74682 0.51985 0.0
C757 C 0.70585 0.79265 0.4857 0.0
C758 C 0.72079 0.77894 0.50071 0.0
H759 H 0.7634 0.69017 0.56412 0.0
H760 H 0.74677 0.72436 0.55864 0.0
H761 H 0.7111 0.73597 0.53093 0.0
H762 H 0.66393 0.78912 0.44093 0.0
H763 H 0.68145 0.76882 0.47179 0.0
C764 C 0.28793 0.81129 0.03976 0.0
C765 C 0.29252 0.80726 0.06282 0.0
C766 C 0.27834 0.79612 0.02542 0.0
C767 C 0.27231 0.74051 0.02241 0.0
H768 H 0.21658 0.75064 0.97885 0.0
C769 C 0.20902 0.67694 0.98879 0.0
C770 C 0.20982 0.67406 0.96521 0.0
C771 C 0.21787 0.69489 -0.00166 0.0
C772 C 0.2323 0.74773 0.99083 0.0
H773 H 0.28999 0.78427 0.08895 0.0
H774 H 0.27295 0.75831 0.06432 0.0
H775 H 0.23595 0.7789 -1e-05 0.0
H776 H 0.21863 0.68849 0.93307 0.0
H777 H 0.23389 0.72016 0.95002 0.0
H778 H 0.26801 0.70936 0.01398 0.0
C779 C 0.2774 0.7729 0.05704 0.0
C780 C 0.24346 0.76384 0.00283 0.0
C781 C 0.28709 0.78789 0.07123 0.0
C782 C 0.21791 0.69016 0.95131 0.0
C783 C 0.22659 0.70829 0.96094 0.0
C784 C 0.26099 0.72451 0.0107 0.0
C785 C 0.27313 0.77672 0.03393 0.0
C786 C 0.26317 0.76029 0.01916 0.0
C787 C 0.22746 0.71045 0.98456 0.0
C788 C 0.24055 0.72791 -0.00481 0.0
H789 H 0.29187 0.82608 0.03277 0.0
H790 H 0.27534 0.7995 0.00766 0.0
H791 H 0.28796 0.7373 0.03436 0.0
H792 H 0.20264 0.66501 5e-05 0.0
H793 H 0.21807 0.69637 0.01661 0.0
C794 C 0.70376 0.19655 0.54051 0.0
C795 C 0.71426 0.17715 0.54335 0.0
C796 C 0.71342 0.20923 0.52364 0.0
C797 C 0.77367 0.22145 0.4958 0.0
H798 H 0.72914 0.25581 0.45889 0.0
C799 C 0.79759 0.30325 0.47269 0.0
C800 C 0.7905 0.31053 0.45119 0.0
C801 C 0.79189 0.28342 0.47883 0.0
C802 C 0.74193 0.24609 0.46872 0.0
H803 H 0.7425 0.15551 0.53042 0.0
H804 H 0.76005 0.17811 0.5012 0.0
H805 H 0.70996 0.22685 0.47839 0.0
H806 H 0.77314 0.30237 0.41883 0.0
H807 H 0.76277 0.26779 0.42982 0.0
H808 H 0.80533 0.24145 0.48726 0.0
C809 C 0.74409 0.18328 0.51189 0.0
C810 C 0.73092 0.22962 0.47995 0.0
C811 C 0.73402 0.17039 0.52851 0.0
C812 C 0.77877 0.29726 0.43557 0.0
C813 C 0.77278 0.27748 0.44183 0.0
C814 C 0.78463 0.23809 0.48479 0.0
C815 C 0.73407 0.20289 0.50955 0.0
C816 C 0.74654 0.21756 0.49412 0.0
C817 C 0.77877 0.27054 0.46368 0.0
C818 C 0.76867 0.2509 0.47173 0.0
H819 H 0.68843 0.20209 0.55164 0.0
H820 H 0.70557 0.22438 0.52232 0.0
H821 H 0.78606 0.21242 0.50677 0.0
H822 H 0.80684 0.31304 0.48504 0.0
H823 H 0.79649 0.2785 0.49588 0.0
C824 C 0.71448 0.79796 0.0093 0.0
C825 C 0.72191 0.80677 0.02997 0.0
C826 C 0.72268 0.77851 0.00385 0.0
C827 C 0.77718 0.74469 0.01304 0.0
H828 H 0.73258 0.70664 0.98108 0.0
C829 C 0.7833 0.66685 0.95615 0.0
C830 C 0.80149 0.67366 0.93993 0.0
C831 C 0.77483 0.67972 0.97342 0.0
C832 C 0.74521 0.71687 0.9904 0.0
H833 H 0.74316 0.80184 0.06143 0.0
H834 H 0.75791 0.76789 0.05159 0.0
H835 H 0.7128 0.73577 -0.00027 0.0
H836 H 0.82668 0.69858 0.93008 0.0
H837 H 0.8121 0.72089 0.96025 0.0
H838 H 0.80974 0.72637 0.00262 0.0
C839 C 0.74561 0.77609 0.03975 0.0
C840 C 0.73391 0.73361 0.00087 0.0
C841 C 0.73711 0.79548 0.04535 0.0
C842 C 0.81244 0.69299 0.94222 0.0
C843 C 0.80428 0.7057 0.95962 0.0
C844 C 0.78851 0.72804 0.00237 0.0
C845 C 0.7387 0.76753 0.01884 0.0
C846 C 0.74989 0.74801 0.01161 0.0
C847 C 0.78478 0.69943 0.97494 0.0
C848 C 0.7727 0.71437 0.99031 0.0
H849 H 0.70266 0.80622 -0.00285 0.0
H850 H 0.71734 0.77236 0.98748 0.0
H851 H 0.78995 0.75562 0.02113 0.0
H852 H 0.77456 0.652 0.95482 0.0
H853 H 0.75984 0.67452 0.9851 0.0
C854 C 0.29289 0.18235 0.50878 0.0
C855 C 0.28618 0.17469 0.53019 0.0
C856 C 0.28349 0.20111 0.50178 0.0
C857 C 0.22713 0.23352 0.50817 0.0
H858 H 0.27016 0.27297 0.47682 0.0
C859 C 0.21678 0.31377 0.45647 0.0
C860 C 0.19878 0.30781 0.43963 0.0
C861 C 0.22636 0.29974 0.4721 0.0
C862 C 0.25795 0.26225 0.48584 0.0
H863 H 0.26492 0.1809 0.56129 0.0
H864 H 0.248 0.21357 0.54874 0.0
H865 H 0.29119 0.24431 0.4956 0.0
H866 H 0.17532 0.28291 0.42695 0.0
H867 H 0.1917 0.25855 0.45451 0.0
H868 H 0.19379 0.25093 0.49741 0.0
C869 C 0.26071 0.20506 0.53753 0.0
C870 C 0.26996 0.24582 0.49642 0.0
C871 C 0.27049 0.18643 0.54471 0.0
C872 C 0.18931 0.28791 0.43963 0.0
C873 C 0.19854 0.274 0.45548 0.0
C874 C 0.21509 0.24979 0.49729 0.0
C875 C 0.26689 0.21243 0.5159 0.0
C876 C 0.25461 0.23112 0.50729 0.0
C877 C 0.21771 0.27965 0.47143 0.0
C878 C 0.23038 0.26408 0.48567 0.0
H879 H 0.30502 0.17369 0.49726 0.0
H880 H 0.28834 0.20641 0.48493 0.0
H881 H 0.21486 0.22229 0.51631 0.0
H882 H 0.22447 0.32899 0.45688 0.0
H883 H 0.24106 0.30445 0.48433 0.0
C884 C 0.79521 0.32017 0.01411 0.0
C885 C 0.81204 0.31199 0.03065 0.0
C886 C 0.78625 0.30823 -0.00382 0.0
C887 C 0.79481 0.25883 0.96745 0.0
H888 H 0.71854 0.25615 0.9704 0.0
C889 C 0.71488 0.19327 0.96814 0.0
C890 C 0.72149 0.18206 0.94881 0.0
C891 C 0.72438 0.21284 0.97091 0.0
C892 C 0.73981 0.25691 0.96908 0.0
H893 H 0.83474 0.28563 0.0402 0.0
H894 H 0.81927 0.2649 0.009 0.0
H895 H 0.74154 0.28464 0.98741 0.0
H896 H 0.7424 0.18285 0.91676 0.0
H897 H 0.75951 0.21703 0.92193 0.0
H898 H 0.79311 0.23036 0.95049 0.0
C899 C 0.81286 0.28045 0.00983 0.0
C900 C 0.75298 0.27331 0.97863 0.0
C901 C 0.82153 0.29227 0.02786 0.0
C902 C 0.73699 0.19111 0.93187 0.0
C903 C 0.74681 0.21063 0.93481 0.0
C904 C 0.78161 0.2425 0.95775 0.0
C905 C 0.79433 0.28804 -0.00567 0.0
C906 C 0.78066 0.27392 0.97887 0.0
C907 C 0.74091 0.22154 0.95453 0.0
C908 C 0.75408 0.24094 0.95947 0.0
H909 H 0.78764 0.33536 0.01578 0.0
H910 H 0.77208 0.31446 0.98437 0.0
H911 H 0.81616 0.25904 0.96725 0.0
H912 H 0.70285 0.18678 0.98141 0.0
H913 H 0.7198 0.2208 0.98643 0.0
C914 C 0.2297 0.65861 0.52615 0.0
C915 C 0.20599 0.6653 0.53582 0.0
C916 C 0.24165 0.66979 0.50889 0.0
C917 C 0.235 0.70816 0.46569 0.0
H918 H 0.29092 0.73752 0.49585 0.0
C919 C 0.25972 0.78952 0.44219 0.0
C920 C 0.28337 0.79821 0.44957 0.0
C921 C 0.25449 0.76921 0.44645 0.0
C922 C 0.27608 0.72923 0.48657 0.0
H923 H 0.17497 0.68763 0.53397 0.0
H924 H 0.19535 0.7067 0.50315 0.0
H925 H 0.27301 0.70752 0.51324 0.0
H926 H 0.32119 0.79243 0.46513 0.0
H927 H 0.31319 0.75659 0.47095 0.0
H928 H 0.23791 0.7297 0.43893 0.0
C929 C 0.2048 0.69303 0.50906 0.0
C930 C 0.26573 0.712 0.49673 0.0
C931 C 0.19326 0.68223 0.52673 0.0
C932 C 0.30263 0.78601 0.45961 0.0
C933 C 0.29784 0.76551 0.46313 0.0
C934 C 0.24591 0.72509 0.45511 0.0
C935 C 0.22955 0.68734 0.50066 0.0
C936 C 0.24443 0.70187 0.48684 0.0
C937 C 0.27318 0.75699 0.45762 0.0
C938 C 0.26572 0.73649 0.46596 0.0
H939 H 0.23994 0.64567 0.53306 0.0
H940 H 0.26091 0.66535 0.50277 0.0
H941 H 0.21852 0.70049 0.45783 0.0
H942 H 0.24454 0.79874 0.43448 0.0
H943 H 0.23513 0.76356 0.44217 0.0
C944 C 0.21241 0.56078 0.95797 0.0
C945 C 0.21009 0.56436 0.93461 0.0
C946 C 0.21055 0.54129 0.96654 0.0
C947 C 0.22179 0.489 0.95431 0.0
H948 H 0.17485 0.48016 0.00516 0.0
C949 C 0.21695 0.41307 0.00322 0.0
C950 C 0.2159 0.41487 0.02692 0.0
C951 C 0.21369 0.43005 0.98943 0.0
C952 C 0.18815 0.48239 0.99105 0.0
H953 H 0.205 0.55015 0.90179 0.0
H954 H 0.20242 0.51574 0.91695 0.0
H955 H 0.17406 0.51234 0.9853 0.0
H956 H 0.21104 0.43591 0.05474 0.0
H957 H 0.20596 0.46538 0.03086 0.0
H958 H 0.23685 0.45939 0.96077 0.0
C959 C 0.20521 0.52824 0.92851 0.0
C960 C 0.18757 0.50075 0.97963 0.0
C961 C 0.20666 0.54788 0.9199 0.0
C962 C 0.21178 0.43396 0.03654 0.0
C963 C 0.20861 0.45086 0.02282 0.0
C964 C 0.22258 0.47062 0.96591 0.0
C965 C 0.20679 0.52488 0.95194 0.0
C966 C 0.20485 0.50441 0.96157 0.0
C967 C 0.20936 0.44911 -0.00089 0.0
C968 C 0.20628 0.46737 0.98483 0.0
H969 H 0.21574 0.57298 0.96975 0.0
H970 H 0.21235 0.53901 0.98464 0.0
H971 H 0.23537 0.49156 0.94046 0.0
H972 H 0.22031 0.3986 -0.00471 0.0
H973 H 0.21431 0.42821 0.97121 0.0
C974 C 0.78951 0.55558 0.53887 0.0
C975 C 0.78812 0.57433 0.52786 0.0
C976 C 0.78867 0.53774 0.52645 0.0
C977 C 0.80122 0.51594 0.47098 0.0
H978 H 0.75348 0.47407 0.49144 0.0
C979 C 0.7873 0.44099 0.42235 0.0
C980 C 0.78509 0.42344 0.43555 0.0
C981 C 0.78688 0.45998 0.43255 0.0
C982 C 0.76713 0.48551 0.48565 0.0
H983 H 0.78512 0.58907 0.49516 0.0
H984 H 0.78412 0.55772 0.47338 0.0
H985 H 0.75478 0.50625 0.51125 0.0
H986 H 0.7805 0.41209 0.46978 0.0
H987 H 0.78067 0.44504 0.48758 0.0
H988 H 0.81413 0.49503 0.44575 0.0
C989 C 0.78581 0.55697 0.49165 0.0
C990 C 0.76778 0.50394 0.49694 0.0
C991 C 0.78637 0.57487 0.50412 0.0
C992 C 0.78245 0.42527 0.45912 0.0
C993 C 0.78223 0.44421 0.46932 0.0
C994 C 0.80076 0.4974 0.45977 0.0
C995 C 0.78663 0.53826 0.50276 0.0
C996 C 0.78504 0.51923 0.48988 0.0
C997 C 0.78432 0.4618 0.45616 0.0
C998 C 0.78392 0.48189 0.46717 0.0
H999 H 0.79089 0.55463 0.55714 0.0
H1000 H 0.78967 0.5235 0.53539 0.0
H1001 H 0.81481 0.52749 0.46531 0.0
H1002 H 0.7892 0.44008 0.40411 0.0
H1003 H 0.78821 0.47324 0.4219 0.0
C1004 C 0.82186 0.42262 0.02641 0.0
C1005 C 0.82202 0.42568 0.04996 0.0
C1006 C 0.8213 0.43901 0.01161 0.0
C1007 C 0.83455 0.4936 0.00808 0.0
H1008 H 0.78791 0.49086 0.95611 0.0
C1009 C 0.81307 0.56234 0.9508 0.0
C1010 C 0.81238 0.55878 0.92734 0.0
C1011 C 0.8145 0.54624 0.96601 0.0
C1012 C 0.80124 0.49177 0.97041 0.0
H1013 H 0.82208 0.44837 0.07643 0.0
H1014 H 0.82087 0.47698 0.05055 0.0
H1015 H 0.79036 0.46244 0.98214 0.0
H1016 H 0.81284 0.53556 0.90146 0.0
H1017 H 0.81556 0.50756 0.92797 0.0
H1018 H 0.84538 0.52298 -0.00368 0.0
C1019 C 0.82145 0.46189 0.04355 0.0
C1020 C 0.80266 0.47549 0.98531 0.0
C1021 C 0.82202 0.44549 0.05837 0.0
C1022 C 0.81324 0.53882 0.91942 0.0
C1023 C 0.81464 0.52276 0.93462 0.0
C1024 C 0.83312 0.50991 -0.00683 0.0
C1025 C 0.82088 0.45882 0.02002 0.0
C1026 C 0.81939 0.47619 0.00427 0.0
C1027 C 0.81523 0.52628 0.95807 0.0
C1028 C 0.81651 0.50913 0.97413 0.0
H1029 H 0.82198 0.40754 0.01938 0.0
H1030 H 0.82129 0.43616 -0.00645 0.0
H1031 H 0.84786 0.49449 0.0224 0.0
H1032 H 0.8124 0.57754 0.95744 0.0
H1033 H 0.81464 0.54941 0.984 0.0
C1034 C 0.18642 0.41828 0.46297 0.0
C1035 C 0.17207 0.42049 0.44275 0.0
C1036 C 0.18687 0.43375 0.47901 0.0
C1037 C 0.15254 0.48054 0.49651 0.0
H1038 H 0.22019 0.49401 0.52312 0.0
C1039 C 0.17236 0.55595 0.542 0.0
C1040 C 0.18765 0.55549 0.56185 0.0
C1041 C 0.16928 0.53863 0.52884 0.0
C1042 C 0.20109 0.49027 0.51608 0.0
H1043 H 0.14643 0.44048 0.42376 0.0
H1044 H 0.14752 0.46755 0.45157 0.0
H1045 H 0.21665 0.46513 0.49784 0.0
H1046 H 0.21145 0.53639 0.58359 0.0
H1047 H 0.20603 0.50614 0.56058 0.0
H1048 H 0.13713 0.50596 0.51448 0.0
C1049 C 0.15817 0.45377 0.45518 0.0
C1050 C 0.19904 0.4737 0.50162 0.0
C1051 C 0.15768 0.43829 0.43916 0.0
C1052 C 0.19962 0.53728 0.56835 0.0
C1053 C 0.19661 0.51997 0.55513 0.0
C1054 C 0.15461 0.49715 0.51094 0.0
C1055 C 0.17301 0.45177 0.47517 0.0
C1056 C 0.17479 0.46874 0.49151 0.0
C1057 C 0.18148 0.52048 0.53519 0.0
C1058 C 0.17896 0.5023 0.52073 0.0
H1059 H 0.19759 0.40469 0.46632 0.0
H1060 H 0.19816 0.43161 0.49439 0.0
H1061 H 0.13349 0.47693 0.48929 0.0
H1062 H 0.16286 0.56974 0.53652 0.0
H1063 H 0.15776 0.53956 0.51342 0.0
C1064 C 0.70967 0.06707 0.9736 0.0
C1065 C 0.69673 0.06998 0.95287 0.0
C1066 C 0.70598 0.04924 0.98577 0.0
C1067 C 0.68408 -0.00346 0.97669 0.0
H1068 H 0.6935 0.99357 0.04172 0.0
C1069 C 0.70915 0.92209 0.02066 0.0
C1070 C 0.70031 0.91869 0.04282 0.0
C1071 C 0.70508 0.94071 0.01028 0.0
C1072 C 0.69034 -0.0059 0.0236 0.0
H1073 H 0.66838 0.05743 0.92932 0.0
H1074 H 0.66081 0.02682 0.95106 0.0
H1075 H 0.69112 0.0263 0.02341 0.0
H1076 H 0.67954 0.93176 0.07131 0.0
H1077 H 0.67148 0.96407 0.05288 0.0
H1078 H 0.68228 0.96443 0.97694 0.0
C1079 C 0.67477 0.03775 0.95751 0.0
C1080 C 0.68941 0.01291 0.01302 0.0
C1081 C 0.67897 0.05534 0.94509 0.0
C1082 C 0.68677 0.93407 0.05426 0.0
C1083 C 0.68229 0.95261 0.04373 0.0
C1084 C 0.6845 0.97778 0.9873 0.0
C1085 C 0.68879 0.03419 0.97769 0.0
C1086 C 0.6869 0.01437 0.98936 0.0
C1087 C 0.69165 0.95623 0.02168 0.0
C1088 C 0.68834 0.97628 0.0108 0.0
H1089 H 0.72349 0.07818 0.97991 0.0
H1090 H 0.71742 0.04699 0.00104 0.0
H1091 H 0.68244 -0.00307 0.95842 0.0
H1092 H 0.71983 0.91054 0.01152 0.0
H1093 H 0.71312 0.94303 -0.00649 0.0
C1094 C 0.28546 0.91062 0.48481 0.0
C1095 C 0.28286 0.91207 0.46116 0.0
C1096 C 0.28746 0.92808 0.49804 0.0
C1097 C 0.26942 0.98135 0.497 0.0
H1098 H 0.32631 0.99004 0.53981 0.0
C1099 C 0.29465 0.06029 0.52786 0.0
C1100 C 0.30006 0.06306 0.55096 0.0
C1101 C 0.2929 0.04097 0.51878 0.0
C1102 C 0.3101 0.9877 0.52815 0.0
H1103 H 0.28056 0.93292 0.43285 0.0
H1104 H 0.28379 0.9631 0.45584 0.0
H1105 H 0.32181 0.95726 0.521 0.0
H1106 H 0.30859 0.04772 0.58258 0.0
H1107 H 0.30524 0.01379 0.56666 0.0
H1108 H 0.25768 0.01162 0.50384 0.0
C1109 C 0.28419 0.94855 0.46418 0.0
C1110 C 0.30754 0.96898 0.51744 0.0
C1111 C 0.28247 0.93123 0.45102 0.0
C1112 C 0.3044 0.04606 0.56469 0.0
C1113 C 0.30257 0.02665 0.55559 0.0
C1114 C 0.27188 -7e-05 0.50772 0.0
C1115 C 0.2865 0.94718 0.48779 0.0
C1116 C 0.28755 0.96587 0.50136 0.0
C1117 C 0.29633 0.02393 0.53261 0.0
C1118 C 0.29264 0.0035 0.52295 0.0
H1119 H 0.28575 0.89608 0.49311 0.0
H1120 H 0.28919 0.92668 0.51626 0.0
H1121 H 0.25354 0.97918 0.48496 0.0
H1122 H 0.29118 0.07302 0.51679 0.0
H1123 H 0.28863 0.03937 0.50089 0.0
C1124 C 0.31923 0.91955 0.02711 0.0
C1125 C 0.29697 0.91722 0.04101 0.0
C1126 C 0.32064 0.93547 0.0116 0.0
C1127 C 0.27961 0.97297 0.98142 0.0
H1128 H 0.34436 0.00395 0.97859 0.0
C1129 C 0.31618 0.05613 0.94957 0.0
C1130 C 0.30361 0.05697 0.92837 0.0
C1131 C 0.31669 0.03815 0.96192 0.0
C1132 C 0.32613 -0.00452 0.97926 0.0
H1133 H 0.25847 0.92946 0.04914 0.0
H1134 H 0.261 0.95716 0.0223 0.0
H1135 H 0.34221 0.97393 0.00246 0.0
H1136 H 0.2823 0.03946 0.90328 0.0
H1137 H 0.28339 0.00815 0.92471 0.0
H1138 H 0.26323 -0.00519 0.95882 0.0
C1139 C 0.27728 0.94664 0.02319 0.0
C1140 C 0.32499 0.97816 -0.00729 0.0
C1141 C 0.2759 0.9308 0.03868 0.0
C1142 C 0.29199 0.03938 0.91962 0.0
C1143 C 0.29251 0.02144 0.93195 0.0
C1144 C 0.28076 0.99025 0.96797 0.0
C1145 C 0.29976 0.94929 0.00964 0.0
C1146 C 0.30162 0.96685 -0.00587 0.0
C1147 C 0.30464 0.02065 0.95332 0.0
C1148 C 0.30394 0.00181 0.96689 0.0
H1149 H 0.33578 0.90932 0.02848 0.0
H1150 H 0.33809 0.93699 0.00121 0.0
H1151 H 0.2614 0.96447 0.98197 0.0
H1152 H 0.32532 0.06942 0.95677 0.0
H1153 H 0.32596 0.03809 0.97844 0.0
C1154 C 0.65841 0.05082 0.54913 0.0
C1155 C 0.67591 0.06698 0.54585 0.0
C1156 C 0.65858 0.03436 0.53439 0.0
C1157 C 0.70222 0.00803 0.49458 0.0
H1158 H 0.63799 0.98164 0.47482 0.0
C1159 C 0.70278 0.94483 0.42795 0.0
C1160 C 0.6867 0.928 0.43215 0.0
C1161 C 0.70068 0.96208 0.44132 0.0
C1162 C 0.65609 0.98875 0.48038 0.0
H1163 H 0.70667 0.07887 0.52409 0.0
H1164 H 0.70674 0.05025 0.4983 0.0
H1165 H 0.63535 0.01159 0.49876 0.0
H1166 H 0.65565 0.91612 0.45359 0.0
H1167 H 0.65216 0.94624 0.47709 0.0
H1168 H 0.72298 0.98519 0.47635 0.0
C1169 C 0.69321 0.05015 0.51247 0.0
C1170 C 0.65457 0.00589 0.49406 0.0
C1171 C 0.69306 0.0666 0.52719 0.0
C1172 C 0.66833 0.92884 0.44992 0.0
C1173 C 0.6662 0.94613 0.46329 0.0
C1174 C 0.70373 0.99092 0.48092 0.0
C1175 C 0.67624 0.03372 0.51609 0.0
C1176 C 0.67764 0.01571 0.50129 0.0
C1177 C 0.68244 0.9629 0.45918 0.0
C1178 C 0.68069 0.9811 0.47366 0.0
H1179 H 0.64495 0.05067 0.56334 0.0
H1180 H 0.64541 0.02186 0.53773 0.0
H1181 H 0.72036 0.01502 0.50022 0.0
H1182 H 0.71705 0.9447 0.41432 0.0
H1183 H 0.71321 0.97487 0.43755 0.0
loop_
_geom_bond_atom_site_label_1
_geom_bond_atom_site_label_2
_geom_bond_distance
_geom_bond_site_symmetry_2
_ccdc_geom_bond_type
Mg0 O1 2.028 . S
Mg0 O7 1.986 . S
Mg0 O9 2.114 . S
Mg0 O10 2.251 . S
Mg0 O13 2.010 . S
O1 Mg0 2.028 . S
O1 C4 1.250 . S
O2 Mg3 2.028 . S
O2 C4 1.248 . S
Mg3 O2 2.028 . S
Mg3 O8 2.032 . S
Mg3 O10 2.079 . S
C4 O1 1.250 . S
C4 O2 1.248 . S
C5 O6 1.264 . S
C5 O13 1.249 . S
O6 C5 1.264 . S
O7 Mg0 1.986 . S
O7 C11 1.246 . S
O8 Mg3 2.032 . S
O8 C11 1.259 . S
O9 Mg0 2.114 . S
O9 C12 1.252 . S
O10 Mg0 2.251 . S
O10 Mg3 2.079 . S
O10 C12 1.273 . S
C11 O7 1.246 . S
C11 O8 1.259 . S
C12 O9 1.252 . S
C12 O10 1.273 . S
O13 Mg0 2.010 . S
O13 C5 1.249 . S
Mg14 O15 2.028 . S
Mg14 O21 1.986 . S
Mg14 O23 2.114 . S
Mg14 O24 2.251 . S
Mg14 O27 2.010 . S
O15 Mg14 2.028 . S
O15 C18 1.250 . S
O16 Mg17 2.028 . S
O16 C18 1.248 . S
Mg17 O16 2.028 . S
Mg17 O22 2.032 . S
Mg17 O24 2.079 . S
C18 O15 1.250 . S
C18 O16 1.248 . S
C19 O20 1.264 . S
C19 O27 1.249 . S
O20 C19 1.264 . S
O21 Mg14 1.986 . S
O21 C25 1.246 . S
O22 Mg17 2.032 . S
O22 C25 1.259 . S
O23 Mg14 2.114 . S
O23 C26 1.252 . S
O24 Mg14 2.251 . S
O24 Mg17 2.079 . S
O24 C26 1.273 . S
C25 O21 1.246 . S
C25 O22 1.259 . S
C26 O23 1.252 . S
C26 O24 1.273 . S
O27 Mg14 2.010 . S
O27 C19 1.249 . S
Mg28 O29 2.028 . S
Mg28 O35 1.986 . S
Mg28 O37 2.114 . S
Mg28 O38 2.251 . S
Mg28 O41 2.010 . S
O29 Mg28 2.028 . S
O29 C32 1.250 . S
O30 Mg31 2.028 . S
O30 C32 1.248 . S
Mg31 O30 2.028 . S
Mg31 O36 2.032 . S
Mg31 O38 2.079 . S
C32 O29 1.250 . S
C32 O30 1.248 . S
C33 O34 1.264 . S
C33 O41 1.249 . S
O34 C33 1.264 . S
O35 Mg28 1.986 . S
O35 C39 1.246 . S
O36 Mg31 2.032 . S
O36 C39 1.259 . S
O37 Mg28 2.114 . S
O37 C40 1.252 . S
O38 Mg28 2.251 . S
O38 Mg31 2.079 . S
O38 C40 1.273 . S
C39 O35 1.246 . S
C39 O36 1.259 . S
C40 O37 1.252 . S
C40 O38 1.273 . S
O41 Mg28 2.010 . S
O41 C33 1.249 . S
Mg42 O43 2.028 . S
Mg42 O49 1.986 . S
Mg42 O51 2.114 . S
Mg42 O52 2.251 . S
Mg42 O55 2.010 . S
O43 Mg42 2.028 . S
O43 C46 1.250 . S
O44 Mg45 2.028 . S
O44 C46 1.248 . S
Mg45 O44 2.028 . S
Mg45 O50 2.032 . S
Mg45 O52 2.079 . S
C46 O43 1.250 . S
C46 O44 1.248 . S
C47 O48 1.264 . S
C47 O55 1.249 . S
O48 C47 1.264 . S
O49 Mg42 1.986 . S
O49 C53 1.246 . S
O50 Mg45 2.032 . S
O50 C53 1.259 . S
O51 Mg42 2.114 . S
O51 C54 1.252 . S
O52 Mg42 2.251 . S
O52 Mg45 2.079 . S
O52 C54 1.273 . S
C53 O49 1.246 . S
C53 O50 1.259 . S
C54 O51 1.252 . S
C54 O52 1.273 . S
O55 Mg42 2.010 . S
O55 C47 1.249 . S
Mg56 O57 2.028 . S
Mg56 O63 1.986 . S
Mg56 O65 2.114 . S
Mg56 O66 2.251 . S
Mg56 O69 2.010 . S
O57 Mg56 2.028 . S
O57 C60 1.250 . S
O58 Mg59 2.028 . S
O58 C60 1.248 . S
Mg59 O58 2.028 . S
Mg59 O64 2.032 . S
Mg59 O66 2.079 . S
C60 O57 1.250 . S
C60 O58 1.248 . S
C61 O62 1.264 . S
C61 O69 1.249 . S
O62 C61 1.264 . S
O63 Mg56 1.986 . S
O63 C67 1.246 . S
O64 Mg59 2.032 . S
O64 C67 1.259 . S
O65 Mg56 2.114 . S
O65 C68 1.252 . S
O66 Mg56 2.251 . S
O66 Mg59 2.079 . S
O66 C68 1.273 . S
C67 O63 1.246 . S
C67 O64 1.259 . S
C68 O65 1.252 . S
C68 O66 1.273 . S
O69 Mg56 2.010 . S
O69 C61 1.249 . S
Mg70 O71 2.028 . S
Mg70 O77 1.986 . S
Mg70 O79 2.114 . S
Mg70 O80 2.251 . S
Mg70 O83 2.010 . S
O71 Mg70 2.028 . S
O71 C74 1.250 . S
O72 Mg73 2.028 . S
O72 C74 1.248 . S
Mg73 O72 2.028 . S
Mg73 O78 2.032 . S
Mg73 O80 2.079 . S
C74 O71 1.250 . S
C74 O72 1.248 . S
C75 O76 1.264 . S
C75 O83 1.249 . S
O76 C75 1.264 . S
O77 Mg70 1.986 . S
O77 C81 1.246 . S
O78 Mg73 2.032 . S
O78 C81 1.259 . S
O79 Mg70 2.114 . S
O79 C82 1.252 . S
O80 Mg70 2.251 . S
O80 Mg73 2.079 . S
O80 C82 1.273 . S
C81 O77 1.246 . S
C81 O78 1.259 . S
C82 O79 1.252 . S
C82 O80 1.273 . S
O83 Mg70 2.010 . S
O83 C75 1.249 . S
Mg84 O85 2.028 . S
Mg84 O91 1.986 . S
Mg84 O93 2.114 . S
Mg84 O94 2.251 . S
Mg84 O97 2.010 . S
O85 Mg84 2.028 . S
O85 C88 1.250 . S
O86 Mg87 2.028 . S
O86 C88 1.248 . S
Mg87 O86 2.028 . S
Mg87 O92 2.032 . S
Mg87 O94 2.079 . S
C88 O85 1.250 . S
C88 O86 1.248 . S
C89 O90 1.264 . S
C89 O97 1.249 . S
O90 C89 1.264 . S
O91 Mg84 1.986 . S
O91 C95 1.246 . S
O92 Mg87 2.032 . S
O92 C95 1.259 . S
O93 Mg84 2.114 . S
O93 C96 1.252 . S
O94 Mg84 2.251 . S
O94 Mg87 2.079 . S
O94 C96 1.273 . S
C95 O91 1.246 . S
C95 O92 1.259 . S
C96 O93 1.252 . S
C96 O94 1.273 . S
O97 Mg84 2.010 . S
O97 C89 1.249 . S
Mg98 O99 2.028 . S
Mg98 O105 1.986 . S
Mg98 O107 2.114 . S
Mg98 O108 2.251 . S
Mg98 O111 2.010 . S
O99 Mg98 2.028 . S
O99 C102 1.250 . S
O100 Mg101 2.028 . S
O100 C102 1.248 . S
Mg101 O100 2.028 . S
Mg101 O106 2.032 . S
Mg101 O108 2.079 . S
C102 O99 1.250 . S
C102 O100 1.248 . S
C103 O104 1.264 . S
C103 O111 1.249 . S
O104 C103 1.264 . S
O105 Mg98 1.986 . S
O105 C109 1.246 . S
O106 Mg101 2.032 . S
O106 C109 1.259 . S
O107 Mg98 2.114 . S
O107 C110 1.252 . S
O108 Mg98 2.251 . S
O108 Mg101 2.079 . S
O108 C110 1.273 . S
C109 O105 1.246 . S
C109 O106 1.259 . S
C110 O107 1.252 . S
C110 O108 1.273 . S
O111 Mg98 2.010 . S
O111 C103 1.249 . S
Mg112 O113 2.028 . S
Mg112 O119 1.986 . S
Mg112 O121 2.114 . S
Mg112 O122 2.251 . S
Mg112 O125 2.010 . S
O113 Mg112 2.028 . S
O113 C116 1.250 . S
O114 Mg115 2.028 . S
O114 C116 1.248 . S
Mg115 O114 2.028 . S
Mg115 O120 2.032 . S
Mg115 O122 2.079 . S
C116 O113 1.250 . S
C116 O114 1.248 . S
C117 O118 1.264 . S
C117 O125 1.249 . S
O118 C117 1.264 . S
O119 Mg112 1.986 . S
O119 C123 1.246 . S
O120 Mg115 2.032 . S
O120 C123 1.259 . S
O121 Mg112 2.114 . S
O121 C124 1.252 . S
O122 Mg112 2.251 . S
O122 Mg115 2.079 . S
O122 C124 1.273 . S
C123 O119 1.246 . S
C123 O120 1.259 . S
C124 O121 1.252 . S
C124 O122 1.273 . S
O125 Mg112 2.010 . S
O125 C117 1.249 . S
Mg126 O127 2.028 . S
Mg126 O133 1.986 . S
Mg126 O135 2.114 . S
Mg126 O136 2.251 . S
Mg126 O139 2.010 . S
O127 Mg126 2.028 . S
O127 C130 1.250 . S
O128 Mg129 2.028 . S
O128 C130 1.248 . S
Mg129 O128 2.028 . S
Mg129 O134 2.032 . S
Mg129 O136 2.079 . S
C130 O127 1.250 . S
C130 O128 1.248 . S
C131 O132 1.264 . S
C131 O139 1.249 . S
O132 C131 1.264 . S
O133 Mg126 1.986 . S
O133 C137 1.246 . S
O134 Mg129 2.032 . S
O134 C137 1.259 . S
O135 Mg126 2.114 . S
O135 C138 1.252 . S
O136 Mg126 2.251 . S
O136 Mg129 2.079 . S
O136 C138 1.273 . S
C137 O133 1.246 . S
C137 O134 1.259 . S
C138 O135 1.252 . S
C138 O136 1.273 . S
O139 Mg126 2.010 . S
O139 C131 1.249 . S
Mg140 O141 2.028 . S
Mg140 O147 1.986 . S
Mg140 O149 2.114 . S
Mg140 O150 2.251 . S
Mg140 O153 2.010 . S
O141 Mg140 2.028 . S
O141 C144 1.250 . S
O142 Mg143 2.028 . S
O142 C144 1.248 . S
Mg143 O142 2.028 . S
Mg143 O148 2.032 . S
Mg143 O150 2.079 . S
C144 O141 1.250 . S
C144 O142 1.248 . S
C145 O146 1.264 . S
C145 O153 1.249 . S
O146 C145 1.264 . S
O147 Mg140 1.986 . S
O147 C151 1.246 . S
O148 Mg143 2.032 . S
O148 C151 1.259 . S
O149 Mg140 2.114 . S
O149 C152 1.252 . S
O150 Mg140 2.251 . S
O150 Mg143 2.079 . S
O150 C152 1.273 . S
C151 O147 1.246 . S
C151 O148 1.259 . S
C152 O149 1.252 . S
C152 O150 1.273 . S
O153 Mg140 2.010 . S
O153 C145 1.249 . S
Mg154 O155 2.028 . S
Mg154 O161 1.986 . S
Mg154 O163 2.114 . S
Mg154 O164 2.251 . S
Mg154 O167 2.010 . S
O155 Mg154 2.028 . S
O155 C158 1.250 . S
O156 Mg157 2.028 . S
O156 C158 1.248 . S
Mg157 O156 2.028 . S
Mg157 O162 2.032 . S
Mg157 O164 2.079 . S
C158 O155 1.250 . S
C158 O156 1.248 . S
C159 O160 1.264 . S
C159 O167 1.249 . S
O160 C159 1.264 . S
O161 Mg154 1.986 . S
O161 C165 1.246 . S
O162 Mg157 2.032 . S
O162 C165 1.259 . S
O163 Mg154 2.114 . S
O163 C166 1.252 . S
O164 Mg154 2.251 . S
O164 Mg157 2.079 . S
O164 C166 1.273 . S
C165 O161 1.246 . S
C165 O162 1.259 . S
C166 O163 1.252 . S
C166 O164 1.273 . S
O167 Mg154 2.010 . S
O167 C159 1.249 . S
Mg168 O169 2.028 . S
Mg168 O175 1.986 . S
Mg168 O177 2.114 . S
Mg168 O178 2.251 . S
Mg168 O181 2.010 . S
O169 Mg168 2.028 . S
O169 C172 1.250 . S
O170 Mg171 2.028 . S
O170 C172 1.248 . S
Mg171 O170 2.028 . S
Mg171 O176 2.032 . S
Mg171 O178 2.079 . S
C172 O169 1.250 . S
C172 O170 1.248 . S
C173 O174 1.264 . S
C173 O181 1.249 . S
O174 C173 1.264 . S
O175 Mg168 1.986 . S
O175 C179 1.246 . S
O176 Mg171 2.032 . S
O176 C179 1.259 . S
O177 Mg168 2.114 . S
O177 C180 1.252 . S
O178 Mg168 2.251 . S
O178 Mg171 2.079 . S
O178 C180 1.273 . S
C179 O175 1.246 . S
C179 O176 1.259 . S
C180 O177 1.252 . S
C180 O178 1.273 . S
O181 Mg168 2.010 . S
O181 C173 1.249 . S
Mg182 O183 2.028 . S
Mg182 O189 1.986 . S
Mg182 O191 2.114 . S
Mg182 O192 2.251 . S
Mg182 O195 2.010 . S
O183 Mg182 2.028 . S
O183 C186 1.250 . S
O184 Mg185 2.028 . S
O184 C186 1.248 . S
Mg185 O184 2.028 . S
Mg185 O190 2.032 . S
Mg185 O192 2.079 . S
C186 O183 1.250 . S
C186 O184 1.248 . S
C187 O188 1.264 . S
C187 O195 1.249 . S
O188 C187 1.264 . S
O189 Mg182 1.986 . S
O189 C193 1.246 . S
O190 Mg185 2.032 . S
O190 C193 1.259 . S
O191 Mg182 2.114 . S
O191 C194 1.252 . S
O192 Mg182 2.251 . S
O192 Mg185 2.079 . S
O192 C194 1.273 . S
C193 O189 1.246 . S
C193 O190 1.259 . S
C194 O191 1.252 . S
C194 O192 1.273 . S
O195 Mg182 2.010 . S
O195 C187 1.249 . S
Mg196 O197 2.028 . S
Mg196 O203 1.986 . S
Mg196 O205 2.114 . S
Mg196 O206 2.251 . S
Mg196 O209 2.010 . S
O197 Mg196 2.028 . S
O197 C200 1.250 . S
O198 Mg199 2.028 . S
O198 C200 1.248 . S
Mg199 O198 2.028 . S
Mg199 O204 2.032 . S
Mg199 O206 2.079 . S
C200 O197 1.250 . S
C200 O198 1.248 . S
C201 O202 1.264 . S
C201 O209 1.249 . S
O202 C201 1.264 . S
O203 Mg196 1.986 . S
O203 C207 1.246 . S
O204 Mg199 2.032 . S
O204 C207 1.259 . S
O205 Mg196 2.114 . S
O205 C208 1.252 . S
O206 Mg196 2.251 . S
O206 Mg199 2.079 . S
O206 C208 1.273 . S
C207 O203 1.246 . S
C207 O204 1.259 . S
C208 O205 1.252 . S
C208 O206 1.273 . S
O209 Mg196 2.010 . S
O209 C201 1.249 . S
Mg210 O211 2.028 . S
Mg210 O217 1.986 . S
Mg210 O219 2.114 . S
Mg210 O220 2.251 . S
Mg210 O223 2.010 . S
O211 Mg210 2.028 . S
O211 C214 1.250 . S
O212 Mg213 2.028 . S
O212 C214 1.248 . S
Mg213 O212 2.028 . S
Mg213 O218 2.032 . S
Mg213 O220 2.079 . S
C214 O211 1.250 . S
C214 O212 1.248 . S
C215 O216 1.264 . S
C215 O223 1.249 . S
O216 C215 1.264 . S
O217 Mg210 1.986 . S
O217 C221 1.246 . S
O218 Mg213 2.032 . S
O218 C221 1.259 . S
O219 Mg210 2.114 . S
O219 C222 1.252 . S
O220 Mg210 2.251 . S
O220 Mg213 2.079 . S
O220 C222 1.273 . S
C221 O217 1.246 . S
C221 O218 1.259 . S
C222 O219 1.252 . S
C222 O220 1.273 . S
O223 Mg210 2.010 . S
O223 C215 1.249 . S
C224 C225 1.349 . S
C224 C226 1.327 . S
C224 H249 0.950 . S
C225 C224 1.349 . S
C225 C241 1.349 . S
C226 C224 1.327 . S
C226 C245 1.429 . S
C226 H250 0.950 . S
C227 C244 1.574 1_455 S
C227 C246 1.368 . S
C227 H251 0.949 . S
H228 C232 0.949 . S
C229 C230 1.349 . S
C229 C231 1.327 . S
C229 H252 0.950 . S
C230 C229 1.349 . S
C230 C242 1.349 . S
C231 C229 1.327 . S
C231 C247 1.429 . S
C231 H253 0.950 . S
C232 H228 0.949 . S
C232 C240 1.574 1_655 S
C232 C248 1.368 . S
H233 C241 0.950 . S
H234 C239 0.950 . S
H235 C240 0.949 . S
H236 C242 0.950 . S
H237 C243 0.950 . S
H238 C244 0.949 . S
C239 H234 0.950 . S
C239 C241 1.327 . S
C239 C245 1.429 . S
C240 C232 1.574 1_455 S
C240 H235 0.949 . S
C240 C246 1.368 . S
C241 C225 1.349 . S
C241 H233 0.950 . S
C241 C239 1.327 . S
C242 C230 1.349 . S
C242 H236 0.950 . S
C242 C243 1.327 . S
C243 H237 0.950 . S
C243 C242 1.327 . S
C243 C247 1.429 . S
C244 C227 1.574 1_655 S
C244 H238 0.949 . S
C244 C248 1.368 . S
C245 C226 1.429 . S
C245 C239 1.429 . S
C245 C246 1.523 . S
C246 C227 1.368 . S
C246 C240 1.368 . S
C246 C245 1.523 . S
C247 C231 1.429 . S
C247 C243 1.429 . S
C247 C248 1.523 . S
C248 C232 1.368 . S
C248 C244 1.368 . S
C248 C247 1.523 . S
H249 C224 0.950 . S
H250 C226 0.950 . S
H251 C227 0.949 . S
H252 C229 0.950 . S
H253 C231 0.950 . S
C254 C255 1.349 . S
C254 C256 1.327 . S
C254 H279 0.950 . S
C255 C254 1.349 . S
C255 C271 1.349 . S
C256 C254 1.327 . S
C256 C275 1.429 . S
C256 H280 0.950 . S
C257 C274 1.574 1_655 S
C257 C276 1.368 . S
C257 H281 0.949 . S
H258 C262 0.949 . S
C259 C260 1.349 . S
C259 C261 1.327 . S
C259 H282 0.950 . S
C260 C259 1.349 . S
C260 C272 1.349 . S
C261 C259 1.327 . S
C261 C277 1.429 . S
C261 H283 0.950 . S
C262 H258 0.949 . S
C262 C270 1.574 1_455 S
C262 C278 1.368 . S
H263 C271 0.950 . S
H264 C269 0.950 . S
H265 C270 0.949 . S
H266 C272 0.950 . S
H267 C273 0.950 . S
H268 C274 0.949 . S
C269 H264 0.950 . S
C269 C271 1.327 . S
C269 C275 1.429 . S
C270 C262 1.574 1_655 S
C270 H265 0.949 . S
C270 C276 1.368 . S
C271 C255 1.349 . S
C271 H263 0.950 . S
C271 C269 1.327 . S
C272 C260 1.349 . S
C272 H266 0.950 . S
C272 C273 1.327 . S
C273 H267 0.950 . S
C273 C272 1.327 . S
C273 C277 1.429 . S
C274 C257 1.574 1_455 S
C274 H268 0.949 . S
C274 C278 1.368 . S
C275 C256 1.429 . S
C275 C269 1.429 . S
C275 C276 1.523 . S
C276 C257 1.368 . S
C276 C270 1.368 . S
C276 C275 1.523 . S
C277 C261 1.429 . S
C277 C273 1.429 . S
C277 C278 1.523 . S
C278 C262 1.368 . S
C278 C274 1.368 . S
C278 C277 1.523 . S
H279 C254 0.950 . S
H280 C256 0.950 . S
H281 C257 0.949 . S
H282 C259 0.950 . S
H283 C261 0.950 . S
C284 C285 1.349 . S
C284 C286 1.327 . S
C284 H309 0.950 . S
C285 C284 1.349 . S
C285 C301 1.349 . S
C286 C284 1.327 . S
C286 C305 1.429 . S
C286 H310 0.950 . S
C287 C304 1.574 1_655 S
C287 C306 1.368 . S
C287 H311 0.949 . S
H288 C292 0.949 . S
C289 C290 1.349 . S
C289 C291 1.327 . S
C289 H312 0.950 . S
C290 C289 1.349 . S
C290 C302 1.349 . S
C291 C289 1.327 . S
C291 C307 1.429 . S
C291 H313 0.950 . S
C292 H288 0.949 . S
C292 C300 1.574 1_455 S
C292 C308 1.368 . S
H293 C301 0.950 . S
H294 C299 0.950 . S
H295 C300 0.949 . S
H296 C302 0.950 . S
H297 C303 0.950 . S
H298 C304 0.949 . S
C299 H294 0.950 . S
C299 C301 1.327 . S
C299 C305 1.429 . S
C300 C292 1.574 1_655 S
C300 H295 0.949 . S
C300 C306 1.368 . S
C301 C285 1.349 . S
C301 H293 0.950 . S
C301 C299 1.327 . S
C302 C290 1.349 . S
C302 H296 0.950 . S
C302 C303 1.327 . S
C303 H297 0.950 . S
C303 C302 1.327 . S
C303 C307 1.429 . S
C304 C287 1.574 1_455 S
C304 H298 0.949 . S
C304 C308 1.368 . S
C305 C286 1.429 . S
C305 C299 1.429 . S
C305 C306 1.523 . S
C306 C287 1.368 . S
C306 C300 1.368 . S
C306 C305 1.523 . S
C307 C291 1.429 . S
C307 C303 1.429 . S
C307 C308 1.523 . S
C308 C292 1.368 . S
C308 C304 1.368 . S
C308 C307 1.523 . S
H309 C284 0.950 . S
H310 C286 0.950 . S
H311 C287 0.949 . S
H312 C289 0.950 . S
H313 C291 0.950 . S
C314 C315 1.349 . S
C314 C316 1.327 . S
C314 H339 0.950 . S
C315 C314 1.349 . S
C315 C331 1.349 . S
C316 C314 1.327 . S
C316 C335 1.429 . S
C316 H340 0.950 . S
C317 C334 1.574 1_455 S
C317 C336 1.368 . S
C317 H341 0.949 . S
H318 C322 0.949 . S
C319 C320 1.349 . S
C319 C321 1.327 . S
C319 H342 0.950 . S
C320 C319 1.349 . S
C320 C332 1.349 . S
C321 C319 1.327 . S
C321 C337 1.429 . S
C321 H343 0.950 . S
C322 H318 0.949 . S
C322 C330 1.574 1_655 S
C322 C338 1.368 . S
H323 C331 0.950 . S
H324 C329 0.950 . S
H325 C330 0.949 . S
H326 C332 0.950 . S
H327 C333 0.950 . S
H328 C334 0.949 . S
C329 H324 0.950 . S
C329 C331 1.327 . S
C329 C335 1.429 . S
C330 C322 1.574 1_455 S
C330 H325 0.949 . S
C330 C336 1.368 . S
C331 C315 1.349 . S
C331 H323 0.950 . S
C331 C329 1.327 . S
C332 C320 1.349 . S
C332 H326 0.950 . S
C332 C333 1.327 . S
C333 H327 0.950 . S
C333 C332 1.327 . S
C333 C337 1.429 . S
C334 C317 1.574 1_655 S
C334 H328 0.949 . S
C334 C338 1.368 . S
C335 C316 1.429 . S
C335 C329 1.429 . S
C335 C336 1.523 . S
C336 C317 1.368 . S
C336 C330 1.368 . S
C336 C335 1.523 . S
C337 C321 1.429 . S
C337 C333 1.429 . S
C337 C338 1.523 . S
C338 C322 1.368 . S
C338 C334 1.368 . S
C338 C337 1.523 . S
H339 C314 0.950 . S
H340 C316 0.950 . S
H341 C317 0.949 . S
H342 C319 0.950 . S
H343 C321 0.950 . S
C344 C345 1.349 . S
C344 C346 1.327 . S
C344 H369 0.950 . S
C345 C344 1.349 . S
C345 C361 1.349 . S
C346 C344 1.327 . S
C346 C365 1.429 . S
C346 H370 0.950 . S
C347 C364 1.574 . S
C347 C366 1.368 . S
C347 H371 0.949 . S
H348 C352 0.949 . S
C349 C350 1.349 . S
C349 C351 1.327 . S
C349 H372 0.950 . S
C350 C349 1.349 . S
C350 C362 1.349 . S
C351 C349 1.327 . S
C351 C367 1.429 . S
C351 H373 0.950 . S
C352 H348 0.949 . S
C352 C360 1.574 . S
C352 C368 1.368 . S
H353 C361 0.950 . S
H354 C359 0.950 . S
H355 C360 0.949 . S
H356 C362 0.950 . S
H357 C363 0.950 . S
H358 C364 0.949 . S
C359 H354 0.950 . S
C359 C361 1.327 . S
C359 C365 1.429 . S
C360 C352 1.574 . S
C360 H355 0.949 . S
C360 C366 1.368 . S
C361 C345 1.349 . S
C361 H353 0.950 . S
C361 C359 1.327 . S
C362 C350 1.349 . S
C362 H356 0.950 . S
C362 C363 1.327 . S
C363 H357 0.950 . S
C363 C362 1.327 . S
C363 C367 1.429 . S
C364 C347 1.574 . S
C364 H358 0.949 . S
C364 C368 1.368 . S
C365 C346 1.429 . S
C365 C359 1.429 . S
C365 C366 1.523 . S
C366 C347 1.368 . S
C366 C360 1.368 . S
C366 C365 1.523 . S
C367 C351 1.429 . S
C367 C363 1.429 . S
C367 C368 1.523 . S
C368 C352 1.368 . S
C368 C364 1.368 . S
C368 C367 1.523 . S
H369 C344 0.950 . S
H370 C346 0.950 . S
H371 C347 0.949 . S
H372 C349 0.950 . S
H373 C351 0.950 . S
C374 C375 1.349 . S
C374 C376 1.327 . S
C374 H399 0.950 . S
C375 C374 1.349 . S
C375 C391 1.349 . S
C376 C374 1.327 . S
C376 C395 1.429 . S
C376 H400 0.950 . S
C377 C394 1.574 . S
C377 C396 1.368 . S
C377 H401 0.949 . S
H378 C382 0.949 . S
C379 C380 1.349 . S
C379 C381 1.327 . S
C379 H402 0.950 . S
C380 C379 1.349 . S
C380 C392 1.349 . S
C381 C379 1.327 . S
C381 C397 1.429 . S
C381 H403 0.950 . S
C382 H378 0.949 . S
C382 C390 1.574 . S
C382 C398 1.368 . S
H383 C391 0.950 . S
H384 C389 0.950 . S
H385 C390 0.949 . S
H386 C392 0.950 . S
H387 C393 0.950 . S
H388 C394 0.949 . S
C389 H384 0.950 . S
C389 C391 1.327 . S
C389 C395 1.429 . S
C390 C382 1.574 . S
C390 H385 0.949 . S
C390 C396 1.368 . S
C391 C375 1.349 . S
C391 H383 0.950 . S
C391 C389 1.327 . S
C392 C380 1.349 . S
C392 H386 0.950 . S
C392 C393 1.327 . S
C393 H387 0.950 . S
C393 C392 1.327 . S
C393 C397 1.429 . S
C394 C377 1.574 . S
C394 H388 0.949 . S
C394 C398 1.368 . S
C395 C376 1.429 . S
C395 C389 1.429 . S
C395 C396 1.523 . S
C396 C377 1.368 . S
C396 C390 1.368 . S
C396 C395 1.523 . S
C397 C381 1.429 . S
C397 C393 1.429 . S
C397 C398 1.523 . S
C398 C382 1.368 . S
C398 C394 1.368 . S
C398 C397 1.523 . S
H399 C374 0.950 . S
H400 C376 0.950 . S
H401 C377 0.949 . S
H402 C379 0.950 . S
H403 C381 0.950 . S
C404 C405 1.349 . S
C404 C406 1.327 . S
C404 H429 0.950 . S
C405 C404 1.349 . S
C405 C421 1.349 . S
C406 C404 1.327 . S
C406 C425 1.429 . S
C406 H430 0.950 . S
C407 C424 1.574 . S
C407 C426 1.368 . S
C407 H431 0.949 . S
H408 C412 0.949 . S
C409 C410 1.349 . S
C409 C411 1.327 . S
C409 H432 0.950 . S
C410 C409 1.349 . S
C410 C422 1.349 . S
C411 C409 1.327 . S
C411 C427 1.429 . S
C411 H433 0.950 . S
C412 H408 0.949 . S
C412 C420 1.574 . S
C412 C428 1.368 . S
H413 C421 0.950 . S
H414 C419 0.950 . S
H415 C420 0.949 . S
H416 C422 0.950 . S
H417 C423 0.950 . S
H418 C424 0.949 . S
C419 H414 0.950 . S
C419 C421 1.327 . S
C419 C425 1.429 . S
C420 C412 1.574 . S
C420 H415 0.949 . S
C420 C426 1.368 . S
C421 C405 1.349 . S
C421 H413 0.950 . S
C421 C419 1.327 . S
C422 C410 1.349 . S
C422 H416 0.950 . S
C422 C423 1.327 . S
C423 H417 0.950 . S
C423 C422 1.327 . S
C423 C427 1.429 . S
C424 C407 1.574 . S
C424 H418 0.949 . S
C424 C428 1.368 . S
C425 C406 1.429 . S
C425 C419 1.429 . S
C425 C426 1.523 . S
C426 C407 1.368 . S
C426 C420 1.368 . S
C426 C425 1.523 . S
C427 C411 1.429 . S
C427 C423 1.429 . S
C427 C428 1.523 . S
C428 C412 1.368 . S
C428 C424 1.368 . S
C428 C427 1.523 . S
H429 C404 0.950 . S
H430 C406 0.950 . S
H431 C407 0.949 . S
H432 C409 0.950 . S
H433 C411 0.950 . S
C434 C435 1.349 . S
C434 C436 1.327 . S
C434 H459 0.950 . S
C435 C434 1.349 . S
C435 C451 1.349 . S
C436 C434 1.327 . S
C436 C455 1.429 . S
C436 H460 0.950 . S
C437 C454 1.574 . S
C437 C456 1.368 . S
C437 H461 0.949 . S
H438 C442 0.949 . S
C439 C440 1.349 . S
C439 C441 1.327 . S
C439 H462 0.950 . S
C440 C439 1.349 . S
C440 C452 1.349 . S
C441 C439 1.327 . S
C441 C457 1.429 . S
C441 H463 0.950 . S
C442 H438 0.949 . S
C442 C450 1.574 . S
C442 C458 1.368 . S
H443 C451 0.950 . S
H444 C449 0.950 . S
H445 C450 0.949 . S
H446 C452 0.950 . S
H447 C453 0.950 . S
H448 C454 0.949 . S
C449 H444 0.950 . S
C449 C451 1.327 . S
C449 C455 1.429 . S
C450 C442 1.574 . S
C450 H445 0.949 . S
C450 C456 1.368 . S
C451 C435 1.349 . S
C451 H443 0.950 . S
C451 C449 1.327 . S
C452 C440 1.349 . S
C452 H446 0.950 . S
C452 C453 1.327 . S
C453 H447 0.950 . S
C453 C452 1.327 . S
C453 C457 1.429 . S
C454 C437 1.574 . S
C454 H448 0.949 . S
C454 C458 1.368 . S
C455 C436 1.429 . S
C455 C449 1.429 . S
C455 C456 1.523 . S
C456 C437 1.368 . S
C456 C450 1.368 . S
C456 C455 1.523 . S
C457 C441 1.429 . S
C457 C453 1.429 . S
C457 C458 1.523 . S
C458 C442 1.368 . S
C458 C454 1.368 . S
C458 C457 1.523 . S
H459 C434 0.950 . S
H460 C436 0.950 . S
H461 C437 0.949 . S
H462 C439 0.950 . S
H463 C441 0.950 . S
C464 C465 1.349 . S
C464 C466 1.327 . S
C464 H489 0.950 . S
C465 C464 1.349 . S
C465 C481 1.349 . S
C466 C464 1.327 . S
C466 C485 1.429 . S
C466 H490 0.950 . S
C467 C484 1.574 . S
C467 C486 1.368 . S
C467 H491 0.949 . S
H468 C472 0.949 . S
C469 C470 1.349 . S
C469 C471 1.327 . S
C469 H492 0.950 . S
C470 C469 1.349 . S
C470 C482 1.349 . S
C471 C469 1.327 . S
C471 C487 1.429 . S
C471 H493 0.950 . S
C472 H468 0.949 . S
C472 C480 1.574 . S
C472 C488 1.368 . S
H473 C481 0.950 . S
H474 C479 0.950 . S
H475 C480 0.949 . S
H476 C482 0.950 . S
H477 C483 0.950 . S
H478 C484 0.949 . S
C479 H474 0.950 . S
C479 C481 1.327 . S
C479 C485 1.429 . S
C480 C472 1.574 . S
C480 H475 0.949 . S
C480 C486 1.368 . S
C481 C465 1.349 . S
C481 H473 0.950 . S
C481 C479 1.327 . S
C482 C470 1.349 . S
C482 H476 0.950 . S
C482 C483 1.327 . S
C483 H477 0.950 . S
C483 C482 1.327 . S
C483 C487 1.429 . S
C484 C467 1.574 . S
C484 H478 0.949 . S
C484 C488 1.368 . S
C485 C466 1.429 . S
C485 C479 1.429 . S
C485 C486 1.523 . S
C486 C467 1.368 . S
C486 C480 1.368 . S
C486 C485 1.523 . S
C487 C471 1.429 . S
C487 C483 1.429 . S
C487 C488 1.523 . S
C488 C472 1.368 . S
C488 C484 1.368 . S
C488 C487 1.523 . S
H489 C464 0.950 . S
H490 C466 0.950 . S
H491 C467 0.949 . S
H492 C469 0.950 . S
H493 C471 0.950 . S
C494 C495 1.349 . S
C494 C496 1.327 . S
C494 H519 0.950 . S
C495 C494 1.349 . S
C495 C511 1.349 . S
C496 C494 1.327 . S
C496 C515 1.429 . S
C496 H520 0.950 . S
C497 C514 1.574 . S
C497 C516 1.368 . S
C497 H521 0.949 . S
H498 C502 0.949 . S
C499 C500 1.349 . S
C499 C501 1.327 . S
C499 H522 0.950 . S
C500 C499 1.349 . S
C500 C512 1.349 . S
C501 C499 1.327 . S
C501 C517 1.429 . S
C501 H523 0.950 . S
C502 H498 0.949 . S
C502 C510 1.574 . S
C502 C518 1.368 . S
H503 C511 0.950 . S
H504 C509 0.950 . S
H505 C510 0.949 . S
H506 C512 0.950 . S
H507 C513 0.950 . S
H508 C514 0.949 . S
C509 H504 0.950 . S
C509 C511 1.327 . S
C509 C515 1.429 . S
C510 C502 1.574 . S
C510 H505 0.949 . S
C510 C516 1.368 . S
C511 C495 1.349 . S
C511 H503 0.950 . S
C511 C509 1.327 . S
C512 C500 1.349 . S
C512 H506 0.950 . S
C512 C513 1.327 . S
C513 H507 0.950 . S
C513 C512 1.327 . S
C513 C517 1.429 . S
C514 C497 1.574 . S
C514 H508 0.949 . S
C514 C518 1.368 . S
C515 C496 1.429 . S
C515 C509 1.429 . S
C515 C516 1.523 . S
C516 C497 1.368 . S
C516 C510 1.368 . S
C516 C515 1.523 . S
C517 C501 1.429 . S
C517 C513 1.429 . S
C517 C518 1.523 . S
C518 C502 1.368 . S
C518 C514 1.368 . S
C518 C517 1.523 . S
H519 C494 0.950 . S
H520 C496 0.950 . S
H521 C497 0.949 . S
H522 C499 0.950 . S
H523 C501 0.950 . S
C524 C525 1.349 . S
C524 C526 1.327 . S
C524 H549 0.950 . S
C525 C524 1.349 . S
C525 C541 1.349 . S
C526 C524 1.327 . S
C526 C545 1.429 . S
C526 H550 0.950 . S
C527 C544 1.574 . S
C527 C546 1.368 . S
C527 H551 0.949 . S
H528 C532 0.949 . S
C529 C530 1.349 . S
C529 C531 1.327 . S
C529 H552 0.950 . S
C530 C529 1.349 . S
C530 C542 1.349 . S
C531 C529 1.327 . S
C531 C547 1.429 . S
C531 H553 0.950 . S
C532 H528 0.949 . S
C532 C540 1.574 . S
C532 C548 1.368 . S
H533 C541 0.950 . S
H534 C539 0.950 . S
H535 C540 0.949 . S
H536 C542 0.950 . S
H537 C543 0.950 . S
H538 C544 0.949 . S
C539 H534 0.950 . S
C539 C541 1.327 . S
C539 C545 1.429 . S
C540 C532 1.574 . S
C540 H535 0.949 . S
C540 C546 1.368 . S
C541 C525 1.349 . S
C541 H533 0.950 . S
C541 C539 1.327 . S
C542 C530 1.349 . S
C542 H536 0.950 . S
C542 C543 1.327 . S
C543 H537 0.950 . S
C543 C542 1.327 . S
C543 C547 1.429 . S
C544 C527 1.574 . S
C544 H538 0.949 . S
C544 C548 1.368 . S
C545 C526 1.429 . S
C545 C539 1.429 . S
C545 C546 1.523 . S
C546 C527 1.368 . S
C546 C540 1.368 . S
C546 C545 1.523 . S
C547 C531 1.429 . S
C547 C543 1.429 . S
C547 C548 1.523 . S
C548 C532 1.368 . S
C548 C544 1.368 . S
C548 C547 1.523 . S
H549 C524 0.950 . S
H550 C526 0.950 . S
H551 C527 0.949 . S
H552 C529 0.950 . S
H553 C531 0.950 . S
C554 C555 1.349 . S
C554 C556 1.327 . S
C554 H579 0.950 . S
C555 C554 1.349 . S
C555 C571 1.349 . S
C556 C554 1.327 . S
C556 C575 1.429 . S
C556 H580 0.950 . S
C557 C574 1.574 . S
C557 C576 1.368 . S
C557 H581 0.949 . S
H558 C562 0.949 . S
C559 C560 1.349 . S
C559 C561 1.327 . S
C559 H582 0.950 . S
C560 C559 1.349 . S
C560 C572 1.349 . S
C561 C559 1.327 . S
C561 C577 1.429 . S
C561 H583 0.950 . S
C562 H558 0.949 . S
C562 C570 1.574 . S
C562 C578 1.368 . S
H563 C571 0.950 . S
H564 C569 0.950 . S
H565 C570 0.949 . S
H566 C572 0.950 . S
H567 C573 0.950 . S
H568 C574 0.949 . S
C569 H564 0.950 . S
C569 C571 1.327 . S
C569 C575 1.429 . S
C570 C562 1.574 . S
C570 H565 0.949 . S
C570 C576 1.368 . S
C571 C555 1.349 . S
C571 H563 0.950 . S
C571 C569 1.327 . S
C572 C560 1.349 . S
C572 H566 0.950 . S
C572 C573 1.327 . S
C573 H567 0.950 . S
C573 C572 1.327 . S
C573 C577 1.429 . S
C574 C557 1.574 . S
C574 H568 0.949 . S
C574 C578 1.368 . S
C575 C556 1.429 . S
C575 C569 1.429 . S
C575 C576 1.523 . S
C576 C557 1.368 . S
C576 C570 1.368 . S
C576 C575 1.523 . S
C577 C561 1.429 . S
C577 C573 1.429 . S
C577 C578 1.523 . S
C578 C562 1.368 . S
C578 C574 1.368 . S
C578 C577 1.523 . S
H579 C554 0.950 . S
H580 C556 0.950 . S
H581 C557 0.949 . S
H582 C559 0.950 . S
H583 C561 0.950 . S
C584 C585 1.349 . S
C584 C586 1.327 . S
C584 H609 0.950 . S
C585 C584 1.349 . S
C585 C601 1.349 . S
C586 C584 1.327 . S
C586 C605 1.429 . S
C586 H610 0.950 . S
C587 C604 1.574 . S
C587 C606 1.368 . S
C587 H611 0.949 . S
H588 C592 0.949 . S
C589 C590 1.349 . S
C589 C591 1.327 . S
C589 H612 0.950 . S
C590 C589 1.349 . S
C590 C602 1.349 . S
C591 C589 1.327 . S
C591 C607 1.429 . S
C591 H613 0.950 . S
C592 H588 0.949 . S
C592 C600 1.574 . S
C592 C608 1.368 . S
H593 C601 0.950 . S
H594 C599 0.950 . S
H595 C600 0.949 . S
H596 C602 0.950 . S
H597 C603 0.950 . S
H598 C604 0.949 . S
C599 H594 0.950 . S
C599 C601 1.327 . S
C599 C605 1.429 . S
C600 C592 1.574 . S
C600 H595 0.949 . S
C600 C606 1.368 . S
C601 C585 1.349 . S
C601 H593 0.950 . S
C601 C599 1.327 . S
C602 C590 1.349 . S
C602 H596 0.950 . S
C602 C603 1.327 . S
C603 H597 0.950 . S
C603 C602 1.327 . S
C603 C607 1.429 . S
C604 C587 1.574 . S
C604 H598 0.949 . S
C604 C608 1.368 . S
C605 C586 1.429 . S
C605 C599 1.429 . S
C605 C606 1.523 . S
C606 C587 1.368 . S
C606 C600 1.368 . S
C606 C605 1.523 . S
C607 C591 1.429 . S
C607 C603 1.429 . S
C607 C608 1.523 . S
C608 C592 1.368 . S
C608 C604 1.368 . S
C608 C607 1.523 . S
H609 C584 0.950 . S
H610 C586 0.950 . S
H611 C587 0.949 . S
H612 C589 0.950 . S
H613 C591 0.950 . S
C614 C615 1.349 . S
C614 C616 1.327 . S
C614 H639 0.950 . S
C615 C614 1.349 . S
C615 C631 1.349 . S
C616 C614 1.327 . S
C616 C635 1.429 . S
C616 H640 0.950 . S
C617 C634 1.574 . S
C617 C636 1.368 . S
C617 H641 0.949 . S
H618 C622 0.949 . S
C619 C620 1.349 . S
C619 C621 1.327 . S
C619 H642 0.950 . S
C620 C619 1.349 . S
C620 C632 1.349 . S
C621 C619 1.327 . S
C621 C637 1.429 . S
C621 H643 0.950 . S
C622 H618 0.949 . S
C622 C630 1.574 . S
C622 C638 1.368 . S
H623 C631 0.950 . S
H624 C629 0.950 . S
H625 C630 0.949 . S
H626 C632 0.950 . S
H627 C633 0.950 . S
H628 C634 0.949 . S
C629 H624 0.950 . S
C629 C631 1.327 . S
C629 C635 1.429 . S
C630 C622 1.574 . S
C630 H625 0.949 . S
C630 C636 1.368 . S
C631 C615 1.349 . S
C631 H623 0.950 . S
C631 C629 1.327 . S
C632 C620 1.349 . S
C632 H626 0.950 . S
C632 C633 1.327 . S
C633 H627 0.950 . S
C633 C632 1.327 . S
C633 C637 1.429 . S
C634 C617 1.574 . S
C634 H628 0.949 . S
C634 C638 1.368 . S
C635 C616 1.429 . S
C635 C629 1.429 . S
C635 C636 1.523 . S
C636 C617 1.368 . S
C636 C630 1.368 . S
C636 C635 1.523 . S
C637 C621 1.429 . S
C637 C633 1.429 . S
C637 C638 1.523 . S
C638 C622 1.368 . S
C638 C634 1.368 . S
C638 C637 1.523 . S
H639 C614 0.950 . S
H640 C616 0.950 . S
H641 C617 0.949 . S
H642 C619 0.950 . S
H643 C621 0.950 . S
C644 C645 1.349 . S
C644 C646 1.327 . S
C644 H669 0.950 . S
C645 C644 1.349 . S
C645 C661 1.349 . S
C646 C644 1.327 . S
C646 C665 1.429 . S
C646 H670 0.950 . S
C647 C664 1.574 . S
C647 C666 1.368 . S
C647 H671 0.949 . S
H648 C652 0.949 . S
C649 C650 1.349 . S
C649 C651 1.327 . S
C649 H672 0.950 . S
C650 C649 1.349 . S
C650 C662 1.349 . S
C651 C649 1.327 . S
C651 C667 1.429 . S
C651 H673 0.950 . S
C652 H648 0.949 . S
C652 C660 1.574 . S
C652 C668 1.368 . S
H653 C661 0.950 . S
H654 C659 0.950 . S
H655 C660 0.949 . S
H656 C662 0.950 . S
H657 C663 0.950 . S
H658 C664 0.949 . S
C659 H654 0.950 . S
C659 C661 1.327 . S
C659 C665 1.429 . S
C660 C652 1.574 . S
C660 H655 0.949 . S
C660 C666 1.368 . S
C661 C645 1.349 . S
C661 H653 0.950 . S
C661 C659 1.327 . S
C662 C650 1.349 . S
C662 H656 0.950 . S
C662 C663 1.327 . S
C663 H657 0.950 . S
C663 C662 1.327 . S
C663 C667 1.429 . S
C664 C647 1.574 . S
C664 H658 0.949 . S
C664 C668 1.368 . S
C665 C646 1.429 . S
C665 C659 1.429 . S
C665 C666 1.523 . S
C666 C647 1.368 . S
C666 C660 1.368 . S
C666 C665 1.523 . S
C667 C651 1.429 . S
C667 C663 1.429 . S
C667 C668 1.523 . S
C668 C652 1.368 . S
C668 C664 1.368 . S
C668 C667 1.523 . S
H669 C644 0.950 . S
H670 C646 0.950 . S
H671 C647 0.949 . S
H672 C649 0.950 . S
H673 C651 0.950 . S
C674 C675 1.349 . S
C674 C676 1.327 . S
C674 H699 0.950 . S
C675 C674 1.349 . S
C675 C691 1.349 . S
C676 C674 1.327 . S
C676 C695 1.429 . S
C676 H700 0.950 . S
C677 C694 1.574 . S
C677 C696 1.368 . S
C677 H701 0.949 . S
H678 C682 0.949 . S
C679 C680 1.349 . S
C679 C681 1.327 . S
C679 H702 0.950 . S
C680 C679 1.349 . S
C680 C692 1.349 . S
C681 C679 1.327 . S
C681 C697 1.429 . S
C681 H703 0.950 . S
C682 H678 0.949 . S
C682 C690 1.574 . S
C682 C698 1.368 . S
H683 C691 0.950 . S
H684 C689 0.950 . S
H685 C690 0.949 . S
H686 C692 0.950 . S
H687 C693 0.950 . S
H688 C694 0.949 . S
C689 H684 0.950 . S
C689 C691 1.327 . S
C689 C695 1.429 . S
C690 C682 1.574 . S
C690 H685 0.949 . S
C690 C696 1.368 . S
C691 C675 1.349 . S
C691 H683 0.950 . S
C691 C689 1.327 . S
C692 C680 1.349 . S
C692 H686 0.950 . S
C692 C693 1.327 . S
C693 H687 0.950 . S
C693 C692 1.327 . S
C693 C697 1.429 . S
C694 C677 1.574 . S
C694 H688 0.949 . S
C694 C698 1.368 . S
C695 C676 1.429 . S
C695 C689 1.429 . S
C695 C696 1.523 . S
C696 C677 1.368 . S
C696 C690 1.368 . S
C696 C695 1.523 . S
C697 C681 1.429 . S
C697 C693 1.429 . S
C697 C698 1.523 . S
C698 C682 1.368 . S
C698 C694 1.368 . S
C698 C697 1.523 . S
H699 C674 0.950 . S
H700 C676 0.950 . S
H701 C677 0.949 . S
H702 C679 0.950 . S
H703 C681 0.950 . S
C704 C705 1.349 . S
C704 C706 1.327 . S
C704 H729 0.950 . S
C705 C704 1.349 . S
C705 C721 1.349 . S
C706 C704 1.327 . S
C706 C725 1.429 . S
C706 H730 0.950 . S
C707 C724 1.574 . S
C707 C726 1.368 1_554 S
C707 H731 0.949 . S
H708 C712 0.949 . S
C709 C710 1.349 . S
C709 C711 1.327 . S
C709 H732 0.950 . S
C710 C709 1.349 . S
C710 C722 1.349 . S
C711 C709 1.327 . S
C711 C727 1.429 . S
C711 H733 0.950 . S
C712 H708 0.949 . S
C712 C720 1.574 . S
C712 C728 1.368 1_556 S
H713 C721 0.950 . S
H714 C719 0.950 1_554 S
H715 C720 0.949 . S
H716 C722 0.950 . S
H717 C723 0.950 1_556 S
H718 C724 0.949 . S
C719 H714 0.950 1_556 S
C719 C721 1.327 . S
C719 C725 1.429 . S
C720 C712 1.574 . S
C720 H715 0.949 . S
C720 C726 1.368 . S
C721 C705 1.349 . S
C721 H713 0.950 . S
C721 C719 1.327 . S
C722 C710 1.349 . S
C722 H716 0.950 . S
C722 C723 1.327 . S
C723 H717 0.950 1_554 S
C723 C722 1.327 . S
C723 C727 1.429 . S
C724 C707 1.574 . S
C724 H718 0.949 . S
C724 C728 1.368 . S
C725 C706 1.429 . S
C725 C719 1.429 . S
C725 C726 1.523 . S
C726 C707 1.368 1_556 S
C726 C720 1.368 . S
C726 C725 1.523 . S
C727 C711 1.429 . S
C727 C723 1.429 . S
C727 C728 1.523 . S
C728 C712 1.368 1_554 S
C728 C724 1.368 . S
C728 C727 1.523 . S
H729 C704 0.950 . S
H730 C706 0.950 . S
H731 C707 0.949 . S
H732 C709 0.950 . S
H733 C711 0.950 . S
C734 C735 1.349 . S
C734 C736 1.327 . S
C734 H759 0.950 . S
C735 C734 1.349 . S
C735 C751 1.349 . S
C736 C734 1.327 . S
C736 C755 1.429 . S
C736 H760 0.950 . S
C737 C754 1.574 . S
C737 C756 1.368 . S
C737 H761 0.949 . S
H738 C742 0.949 . S
C739 C740 1.349 . S
C739 C741 1.327 . S
C739 H762 0.950 . S
C740 C739 1.349 . S
C740 C752 1.349 . S
C741 C739 1.327 . S
C741 C757 1.429 . S
C741 H763 0.950 . S
C742 H738 0.949 . S
C742 C750 1.574 . S
C742 C758 1.368 . S
H743 C751 0.950 . S
H744 C749 0.950 . S
H745 C750 0.949 . S
H746 C752 0.950 . S
H747 C753 0.950 . S
H748 C754 0.949 . S
C749 H744 0.950 . S
C749 C751 1.327 . S
C749 C755 1.429 . S
C750 C742 1.574 . S
C750 H745 0.949 . S
C750 C756 1.368 . S
C751 C735 1.349 . S
C751 H743 0.950 . S
C751 C749 1.327 . S
C752 C740 1.349 . S
C752 H746 0.950 . S
C752 C753 1.327 . S
C753 H747 0.950 . S
C753 C752 1.327 . S
C753 C757 1.429 . S
C754 C737 1.574 . S
C754 H748 0.949 . S
C754 C758 1.368 . S
C755 C736 1.429 . S
C755 C749 1.429 . S
C755 C756 1.523 . S
C756 C737 1.368 . S
C756 C750 1.368 . S
C756 C755 1.523 . S
C757 C741 1.429 . S
C757 C753 1.429 . S
C757 C758 1.523 . S
C758 C742 1.368 . S
C758 C754 1.368 . S
C758 C757 1.523 . S
H759 C734 0.950 . S
H760 C736 0.950 . S
H761 C737 0.949 . S
H762 C739 0.950 . S
H763 C741 0.950 . S
C764 C765 1.349 . S
C764 C766 1.327 . S
C764 H789 0.950 . S
C765 C764 1.349 . S
C765 C781 1.349 . S
C766 C764 1.327 . S
C766 C785 1.429 . S
C766 H790 0.950 . S
C767 C784 1.574 . S
C767 C786 1.368 . S
C767 H791 0.949 . S
H768 C772 0.949 . S
C769 C770 1.349 . S
C769 C771 1.327 . S
C769 H792 0.950 . S
C770 C769 1.349 . S
C770 C782 1.349 . S
C771 C769 1.327 . S
C771 C787 1.429 . S
C771 H793 0.950 . S
C772 H768 0.949 . S
C772 C780 1.574 . S
C772 C788 1.368 . S
H773 C781 0.950 . S
H774 C779 0.950 . S
H775 C780 0.949 . S
H776 C782 0.950 . S
H777 C783 0.950 . S
H778 C784 0.949 . S
C779 H774 0.950 . S
C779 C781 1.327 . S
C779 C785 1.429 . S
C780 C772 1.574 . S
C780 H775 0.949 . S
C780 C786 1.368 1_556 S
C781 C765 1.349 . S
C781 H773 0.950 . S
C781 C779 1.327 . S
C782 C770 1.349 . S
C782 H776 0.950 . S
C782 C783 1.327 . S
C783 H777 0.950 . S
C783 C782 1.327 . S
C783 C787 1.429 . S
C784 C767 1.574 . S
C784 H778 0.949 . S
C784 C788 1.368 1_554 S
C785 C766 1.429 . S
C785 C779 1.429 . S
C785 C786 1.523 . S
C786 C767 1.368 . S
C786 C780 1.368 1_554 S
C786 C785 1.523 . S
C787 C771 1.429 . S
C787 C783 1.429 . S
C787 C788 1.523 . S
C788 C772 1.368 . S
C788 C784 1.368 1_556 S
C788 C787 1.523 . S
H789 C764 0.950 . S
H790 C766 0.950 . S
H791 C767 0.949 . S
H792 C769 0.950 . S
H793 C771 0.950 . S
C794 C795 1.349 . S
C794 C796 1.327 . S
C794 H819 0.950 . S
C795 C794 1.349 . S
C795 C811 1.349 . S
C796 C794 1.327 . S
C796 C815 1.429 . S
C796 H820 0.950 . S
C797 C814 1.574 . S
C797 C816 1.368 . S
C797 H821 0.949 . S
H798 C802 0.949 . S
C799 C800 1.349 . S
C799 C801 1.327 . S
C799 H822 0.950 . S
C800 C799 1.349 . S
C800 C812 1.349 . S
C801 C799 1.327 . S
C801 C817 1.429 . S
C801 H823 0.950 . S
C802 H798 0.949 . S
C802 C810 1.574 . S
C802 C818 1.368 . S
H803 C811 0.950 . S
H804 C809 0.950 . S
H805 C810 0.949 . S
H806 C812 0.950 . S
H807 C813 0.950 . S
H808 C814 0.949 . S
C809 H804 0.950 . S
C809 C811 1.327 . S
C809 C815 1.429 . S
C810 C802 1.574 . S
C810 H805 0.949 . S
C810 C816 1.368 . S
C811 C795 1.349 . S
C811 H803 0.950 . S
C811 C809 1.327 . S
C812 C800 1.349 . S
C812 H806 0.950 . S
C812 C813 1.327 . S
C813 H807 0.950 . S
C813 C812 1.327 . S
C813 C817 1.429 . S
C814 C797 1.574 . S
C814 H808 0.949 . S
C814 C818 1.368 . S
C815 C796 1.429 . S
C815 C809 1.429 . S
C815 C816 1.523 . S
C816 C797 1.368 . S
C816 C810 1.368 . S
C816 C815 1.523 . S
C817 C801 1.429 . S
C817 C813 1.429 . S
C817 C818 1.523 . S
C818 C802 1.368 . S
C818 C814 1.368 . S
C818 C817 1.523 . S
H819 C794 0.950 . S
H820 C796 0.950 . S
H821 C797 0.949 . S
H822 C799 0.950 . S
H823 C801 0.950 . S
C824 C825 1.349 . S
C824 C826 1.327 . S
C824 H849 0.950 . S
C825 C824 1.349 . S
C825 C841 1.349 . S
C826 C824 1.327 . S
C826 C845 1.429 . S
C826 H850 0.950 . S
C827 C844 1.574 . S
C827 C846 1.368 . S
C827 H851 0.949 . S
H828 C832 0.949 . S
C829 C830 1.349 . S
C829 C831 1.327 . S
C829 H852 0.950 . S
C830 C829 1.349 . S
C830 C842 1.349 . S
C831 C829 1.327 . S
C831 C847 1.429 . S
C831 H853 0.950 . S
C832 H828 0.949 . S
C832 C840 1.574 . S
C832 C848 1.368 . S
H833 C841 0.950 . S
H834 C839 0.950 . S
H835 C840 0.949 . S
H836 C842 0.950 . S
H837 C843 0.950 . S
H838 C844 0.949 . S
C839 H834 0.950 . S
C839 C841 1.327 . S
C839 C845 1.429 . S
C840 C832 1.574 . S
C840 H835 0.949 . S
C840 C846 1.368 1_556 S
C841 C825 1.349 . S
C841 H833 0.950 . S
C841 C839 1.327 . S
C842 C830 1.349 . S
C842 H836 0.950 . S
C842 C843 1.327 . S
C843 H837 0.950 . S
C843 C842 1.327 . S
C843 C847 1.429 . S
C844 C827 1.574 . S
C844 H838 0.949 . S
C844 C848 1.368 1_554 S
C845 C826 1.429 . S
C845 C839 1.429 . S
C845 C846 1.523 . S
C846 C827 1.368 . S
C846 C840 1.368 1_554 S
C846 C845 1.523 . S
C847 C831 1.429 . S
C847 C843 1.429 . S
C847 C848 1.523 . S
C848 C832 1.368 . S
C848 C844 1.368 1_556 S
C848 C847 1.523 . S
H849 C824 0.950 . S
H850 C826 0.950 . S
H851 C827 0.949 . S
H852 C829 0.950 . S
H853 C831 0.950 . S
C854 C855 1.349 . S
C854 C856 1.327 . S
C854 H879 0.950 . S
C855 C854 1.349 . S
C855 C871 1.349 . S
C856 C854 1.327 . S
C856 C875 1.429 . S
C856 H880 0.950 . S
C857 C874 1.574 . S
C857 C876 1.368 . S
C857 H881 0.949 . S
H858 C862 0.949 . S
C859 C860 1.349 . S
C859 C861 1.327 . S
C859 H882 0.950 . S
C860 C859 1.349 . S
C860 C872 1.349 . S
C861 C859 1.327 . S
C861 C877 1.429 . S
C861 H883 0.950 . S
C862 H858 0.949 . S
C862 C870 1.574 . S
C862 C878 1.368 . S
H863 C871 0.950 . S
H864 C869 0.950 . S
H865 C870 0.949 . S
H866 C872 0.950 . S
H867 C873 0.950 . S
H868 C874 0.949 . S
C869 H864 0.950 . S
C869 C871 1.327 . S
C869 C875 1.429 . S
C870 C862 1.574 . S
C870 H865 0.949 . S
C870 C876 1.368 . S
C871 C855 1.349 . S
C871 H863 0.950 . S
C871 C869 1.327 . S
C872 C860 1.349 . S
C872 H866 0.950 . S
C872 C873 1.327 . S
C873 H867 0.950 . S
C873 C872 1.327 . S
C873 C877 1.429 . S
C874 C857 1.574 . S
C874 H868 0.949 . S
C874 C878 1.368 . S
C875 C856 1.429 . S
C875 C869 1.429 . S
C875 C876 1.523 . S
C876 C857 1.368 . S
C876 C870 1.368 . S
C876 C875 1.523 . S
C877 C861 1.429 . S
C877 C873 1.429 . S
C877 C878 1.523 . S
C878 C862 1.368 . S
C878 C874 1.368 . S
C878 C877 1.523 . S
H879 C854 0.950 . S
H880 C856 0.950 . S
H881 C857 0.949 . S
H882 C859 0.950 . S
H883 C861 0.950 . S
C884 C885 1.349 . S
C884 C886 1.327 . S
C884 H909 0.950 . S
C885 C884 1.349 . S
C885 C901 1.349 . S
C886 C884 1.327 . S
C886 C905 1.429 . S
C886 H910 0.950 1_554 S
C887 C904 1.574 . S
C887 C906 1.368 . S
C887 H911 0.949 . S
H888 C892 0.949 . S
C889 C890 1.349 . S
C889 C891 1.327 . S
C889 H912 0.950 . S
C890 C889 1.349 . S
C890 C902 1.349 . S
C891 C889 1.327 . S
C891 C907 1.429 . S
C891 H913 0.950 1_556 S
C892 H888 0.949 . S
C892 C900 1.574 . S
C892 C908 1.368 . S
H893 C901 0.950 . S
H894 C899 0.950 . S
H895 C900 0.949 . S
H896 C902 0.950 . S
H897 C903 0.950 . S
H898 C904 0.949 . S
C899 H894 0.950 . S
C899 C901 1.327 . S
C899 C905 1.429 . S
C900 C892 1.574 . S
C900 H895 0.949 . S
C900 C906 1.368 1_556 S
C901 C885 1.349 . S
C901 H893 0.950 . S
C901 C899 1.327 . S
C902 C890 1.349 . S
C902 H896 0.950 . S
C902 C903 1.327 . S
C903 H897 0.950 . S
C903 C902 1.327 . S
C903 C907 1.429 . S
C904 C887 1.574 . S
C904 H898 0.949 . S
C904 C908 1.368 1_554 S
C905 C886 1.429 . S
C905 C899 1.429 . S
C905 C906 1.523 . S
C906 C887 1.368 . S
C906 C900 1.368 1_554 S
C906 C905 1.523 . S
C907 C891 1.429 . S
C907 C903 1.429 . S
C907 C908 1.523 . S
C908 C892 1.368 . S
C908 C904 1.368 1_556 S
C908 C907 1.523 . S
H909 C884 0.950 . S
H910 C886 0.950 1_556 S
H911 C887 0.949 . S
H912 C889 0.950 . S
H913 C891 0.950 1_554 S
C914 C915 1.349 . S
C914 C916 1.327 . S
C914 H939 0.950 . S
C915 C914 1.349 . S
C915 C931 1.349 . S
C916 C914 1.327 . S
C916 C935 1.429 . S
C916 H940 0.950 . S
C917 C934 1.574 . S
C917 C936 1.368 . S
C917 H941 0.949 . S
H918 C922 0.949 . S
C919 C920 1.349 . S
C919 C921 1.327 . S
C919 H942 0.950 . S
C920 C919 1.349 . S
C920 C932 1.349 . S
C921 C919 1.327 . S
C921 C937 1.429 . S
C921 H943 0.950 . S
C922 H918 0.949 . S
C922 C930 1.574 . S
C922 C938 1.368 . S
H923 C931 0.950 . S
H924 C929 0.950 . S
H925 C930 0.949 . S
H926 C932 0.950 . S
H927 C933 0.950 . S
H928 C934 0.949 . S
C929 H924 0.950 . S
C929 C931 1.327 . S
C929 C935 1.429 . S
C930 C922 1.574 . S
C930 H925 0.949 . S
C930 C936 1.368 . S
C931 C915 1.349 . S
C931 H923 0.950 . S
C931 C929 1.327 . S
C932 C920 1.349 . S
C932 H926 0.950 . S
C932 C933 1.327 . S
C933 H927 0.950 . S
C933 C932 1.327 . S
C933 C937 1.429 . S
C934 C917 1.574 . S
C934 H928 0.949 . S
C934 C938 1.368 . S
C935 C916 1.429 . S
C935 C929 1.429 . S
C935 C936 1.523 . S
C936 C917 1.368 . S
C936 C930 1.368 . S
C936 C935 1.523 . S
C937 C921 1.429 . S
C937 C933 1.429 . S
C937 C938 1.523 . S
C938 C922 1.368 . S
C938 C934 1.368 . S
C938 C937 1.523 . S
H939 C914 0.950 . S
H940 C916 0.950 . S
H941 C917 0.949 . S
H942 C919 0.950 . S
H943 C921 0.950 . S
C944 C945 1.349 . S
C944 C946 1.327 . S
C944 H969 0.950 . S
C945 C944 1.349 . S
C945 C961 1.349 . S
C946 C944 1.327 . S
C946 C965 1.429 . S
C946 H970 0.950 . S
C947 C964 1.574 . S
C947 C966 1.368 . S
C947 H971 0.949 . S
H948 C952 0.949 . S
C949 C950 1.349 . S
C949 C951 1.327 . S
C949 H972 0.950 . S
C950 C949 1.349 . S
C950 C962 1.349 . S
C951 C949 1.327 . S
C951 C967 1.429 . S
C951 H973 0.950 . S
C952 H948 0.949 . S
C952 C960 1.574 . S
C952 C968 1.368 . S
H953 C961 0.950 . S
H954 C959 0.950 . S
H955 C960 0.949 . S
H956 C962 0.950 . S
H957 C963 0.950 . S
H958 C964 0.949 . S
C959 H954 0.950 . S
C959 C961 1.327 . S
C959 C965 1.429 . S
C960 C952 1.574 . S
C960 H955 0.949 . S
C960 C966 1.368 1_554 S
C961 C945 1.349 . S
C961 H953 0.950 . S
C961 C959 1.327 . S
C962 C950 1.349 . S
C962 H956 0.950 . S
C962 C963 1.327 . S
C963 H957 0.950 . S
C963 C962 1.327 . S
C963 C967 1.429 . S
C964 C947 1.574 . S
C964 H958 0.949 . S
C964 C968 1.368 1_556 S
C965 C946 1.429 . S
C965 C959 1.429 . S
C965 C966 1.523 . S
C966 C947 1.368 . S
C966 C960 1.368 1_556 S
C966 C965 1.523 . S
C967 C951 1.429 . S
C967 C963 1.429 . S
C967 C968 1.523 . S
C968 C952 1.368 . S
C968 C964 1.368 1_554 S
C968 C967 1.523 . S
H969 C944 0.950 . S
H970 C946 0.950 . S
H971 C947 0.949 . S
H972 C949 0.950 . S
H973 C951 0.950 . S
C974 C975 1.349 . S
C974 C976 1.327 . S
C974 H999 0.950 . S
C975 C974 1.349 . S
C975 C991 1.349 . S
C976 C974 1.327 . S
C976 C995 1.429 . S
C976 H1000 0.950 . S
C977 C994 1.574 . S
C977 C996 1.368 . S
C977 H1001 0.949 . S
H978 C982 0.949 . S
C979 C980 1.349 . S
C979 C981 1.327 . S
C979 H1002 0.950 . S
C980 C979 1.349 . S
C980 C992 1.349 . S
C981 C979 1.327 . S
C981 C997 1.429 . S
C981 H1003 0.950 . S
C982 H978 0.949 . S
C982 C990 1.574 . S
C982 C998 1.368 . S
H983 C991 0.950 . S
H984 C989 0.950 . S
H985 C990 0.949 . S
H986 C992 0.950 . S
H987 C993 0.950 . S
H988 C994 0.949 . S
C989 H984 0.950 . S
C989 C991 1.327 . S
C989 C995 1.429 . S
C990 C982 1.574 . S
C990 H985 0.949 . S
C990 C996 1.368 . S
C991 C975 1.349 . S
C991 H983 0.950 . S
C991 C989 1.327 . S
C992 C980 1.349 . S
C992 H986 0.950 . S
C992 C993 1.327 . S
C993 H987 0.950 . S
C993 C992 1.327 . S
C993 C997 1.429 . S
C994 C977 1.574 . S
C994 H988 0.949 . S
C994 C998 1.368 . S
C995 C976 1.429 . S
C995 C989 1.429 . S
C995 C996 1.523 . S
C996 C977 1.368 . S
C996 C990 1.368 . S
C996 C995 1.523 . S
C997 C981 1.429 . S
C997 C993 1.429 . S
C997 C998 1.523 . S
C998 C982 1.368 . S
C998 C994 1.368 . S
C998 C997 1.523 . S
H999 C974 0.950 . S
H1000 C976 0.950 . S
H1001 C977 0.949 . S
H1002 C979 0.950 . S
H1003 C981 0.950 . S
C1004 C1005 1.349 . S
C1004 C1006 1.327 . S
C1004 H1029 0.950 . S
C1005 C1004 1.349 . S
C1005 C1021 1.349 . S
C1006 C1004 1.327 . S
C1006 C1025 1.429 . S
C1006 H1030 0.961 . S
C1007 C1024 1.574 . S
C1007 C1026 1.368 . S
C1007 H1031 0.949 . S
H1008 C1012 0.949 . S
C1009 C1010 1.349 . S
C1009 C1011 1.327 . S
C1009 H1032 0.950 . S
C1010 C1009 1.349 . S
C1010 C1022 1.349 . S
C1011 C1009 1.327 . S
C1011 C1027 1.429 . S
C1011 H1033 0.961 . S
C1012 H1008 0.949 . S
C1012 C1020 1.574 . S
C1012 C1028 1.368 . S
H1013 C1021 0.950 . S
H1014 C1019 0.950 . S
H1015 C1020 0.949 . S
H1016 C1022 0.950 . S
H1017 C1023 0.950 . S
H1018 C1024 0.949 . S
C1019 H1014 0.950 . S
C1019 C1021 1.327 . S
C1019 C1025 1.429 . S
C1020 C1012 1.574 . S
C1020 H1015 0.949 . S
C1020 C1026 1.368 1_556 S
C1021 C1005 1.349 . S
C1021 H1013 0.950 . S
C1021 C1019 1.327 . S
C1022 C1010 1.349 . S
C1022 H1016 0.950 . S
C1022 C1023 1.327 . S
C1023 H1017 0.950 . S
C1023 C1022 1.327 . S
C1023 C1027 1.429 . S
C1024 C1007 1.574 . S
C1024 H1018 0.949 . S
C1024 C1028 1.368 1_554 S
C1025 C1006 1.429 . S
C1025 C1019 1.429 . S
C1025 C1026 1.523 . S
C1026 C1007 1.368 . S
C1026 C1020 1.368 1_554 S
C1026 C1025 1.523 . S
C1027 C1011 1.429 . S
C1027 C1023 1.429 . S
C1027 C1028 1.523 . S
C1028 C1012 1.368 . S
C1028 C1024 1.368 1_556 S
C1028 C1027 1.523 . S
H1029 C1004 0.950 . S
H1030 C1006 0.961 . S
H1031 C1007 0.949 . S
H1032 C1009 0.950 . S
H1033 C1011 0.961 . S
C1034 C1035 1.349 . S
C1034 C1036 1.327 . S
C1034 H1059 0.950 . S
C1035 C1034 1.349 . S
C1035 C1051 1.349 . S
C1036 C1034 1.327 . S
C1036 C1055 1.429 . S
C1036 H1060 0.950 . S
C1037 C1054 1.574 . S
C1037 C1056 1.368 . S
C1037 H1061 0.949 . S
H1038 C1042 0.949 . S
C1039 C1040 1.349 . S
C1039 C1041 1.327 . S
C1039 H1062 0.950 . S
C1040 C1039 1.349 . S
C1040 C1052 1.349 . S
C1041 C1039 1.327 . S
C1041 C1057 1.429 . S
C1041 H1063 0.950 . S
C1042 H1038 0.949 . S
C1042 C1050 1.574 . S
C1042 C1058 1.368 . S
H1043 C1051 0.950 . S
H1044 C1049 0.950 . S
H1045 C1050 0.949 . S
H1046 C1052 0.950 . S
H1047 C1053 0.950 . S
H1048 C1054 0.949 . S
C1049 H1044 0.950 . S
C1049 C1051 1.327 . S
C1049 C1055 1.429 . S
C1050 C1042 1.574 . S
C1050 H1045 0.949 . S
C1050 C1056 1.368 . S
C1051 C1035 1.349 . S
C1051 H1043 0.950 . S
C1051 C1049 1.327 . S
C1052 C1040 1.349 . S
C1052 H1046 0.950 . S
C1052 C1053 1.327 . S
C1053 H1047 0.950 . S
C1053 C1052 1.327 . S
C1053 C1057 1.429 . S
C1054 C1037 1.574 . S
C1054 H1048 0.949 . S
C1054 C1058 1.368 . S
C1055 C1036 1.429 . S
C1055 C1049 1.429 . S
C1055 C1056 1.523 . S
C1056 C1037 1.368 . S
C1056 C1050 1.368 . S
C1056 C1055 1.523 . S
C1057 C1041 1.429 . S
C1057 C1053 1.429 . S
C1057 C1058 1.523 . S
C1058 C1042 1.368 . S
C1058 C1054 1.368 . S
C1058 C1057 1.523 . S
H1059 C1034 0.950 . S
H1060 C1036 0.950 . S
H1061 C1037 0.949 . S
H1062 C1039 0.950 . S
H1063 C1041 0.950 . S
C1064 C1065 1.349 . S
C1064 C1066 1.327 . S
C1064 H1089 0.950 . S
C1065 C1064 1.349 . S
C1065 C1081 1.349 . S
C1066 C1064 1.327 . S
C1066 C1085 1.429 . S
C1066 H1090 0.950 1_556 S
C1067 C1084 1.523 1_545 S
C1067 C1086 1.415 . S
C1067 H1091 0.955 . S
H1068 C1072 0.955 . S
C1069 C1070 1.349 . S
C1069 C1071 1.327 . S
C1069 H1092 0.950 . S
C1070 C1069 1.349 . S
C1070 C1082 1.349 . S
C1071 C1069 1.327 . S
C1071 C1087 1.429 . S
C1071 H1093 0.950 1_554 S
C1072 H1068 0.955 . S
C1072 C1080 1.523 1_565 S
C1072 C1088 1.415 . S
H1073 C1081 0.950 . S
H1074 C1079 0.950 . S
H1075 C1080 0.949 . S
H1076 C1082 0.950 . S
H1077 C1083 0.950 . S
H1078 C1084 0.949 . S
C1079 H1074 0.950 . S
C1079 C1081 1.327 . S
C1079 C1085 1.429 . S
C1080 C1072 1.523 1_545 S
C1080 H1075 0.949 . S
C1080 C1086 1.368 1_554 S
C1081 C1065 1.349 . S
C1081 H1073 0.950 . S
C1081 C1079 1.327 . S
C1082 C1070 1.349 . S
C1082 H1076 0.950 . S
C1082 C1083 1.327 . S
C1083 H1077 0.950 . S
C1083 C1082 1.327 . S
C1083 C1087 1.429 . S
C1084 C1067 1.523 1_565 S
C1084 H1078 0.949 . S
C1084 C1088 1.368 1_556 S
C1085 C1066 1.429 . S
C1085 C1079 1.429 . S
C1085 C1086 1.523 . S
C1086 C1067 1.415 . S
C1086 C1080 1.368 1_556 S
C1086 C1085 1.523 . S
C1087 C1071 1.429 . S
C1087 C1083 1.429 . S
C1087 C1088 1.523 . S
C1088 C1072 1.415 . S
C1088 C1084 1.368 1_554 S
C1088 C1087 1.523 . S
H1089 C1064 0.950 . S
H1090 C1066 0.950 1_554 S
H1091 C1067 0.955 . S
H1092 C1069 0.950 . S
H1093 C1071 0.950 1_556 S
C1094 C1095 1.349 . S
C1094 C1096 1.327 . S
C1094 H1119 0.950 . S
C1095 C1094 1.349 . S
C1095 C1111 1.349 . S
C1096 C1094 1.327 . S
C1096 C1115 1.429 . S
C1096 H1120 0.950 . S
C1097 C1114 1.574 1_565 S
C1097 C1116 1.368 . S
C1097 H1121 0.949 . S
H1098 C1102 0.949 . S
C1099 C1100 1.349 . S
C1099 C1101 1.327 . S
C1099 H1122 0.950 . S
C1100 C1099 1.349 . S
C1100 C1112 1.349 . S
C1101 C1099 1.327 . S
C1101 C1117 1.429 . S
C1101 H1123 0.950 . S
C1102 H1098 0.949 . S
C1102 C1110 1.574 1_545 S
C1102 C1118 1.368 . S
H1103 C1111 0.950 . S
H1104 C1109 0.950 . S
H1105 C1110 0.949 . S
H1106 C1112 0.950 . S
H1107 C1113 0.950 . S
H1108 C1114 0.949 . S
C1109 H1104 0.950 . S
C1109 C1111 1.327 . S
C1109 C1115 1.429 . S
C1110 C1102 1.574 1_565 S
C1110 H1105 0.949 . S
C1110 C1116 1.368 . S
C1111 C1095 1.349 . S
C1111 H1103 0.950 . S
C1111 C1109 1.327 . S
C1112 C1100 1.349 . S
C1112 H1106 0.950 . S
C1112 C1113 1.327 . S
C1113 H1107 0.950 . S
C1113 C1112 1.327 . S
C1113 C1117 1.429 . S
C1114 C1097 1.574 1_545 S
C1114 H1108 0.949 . S
C1114 C1118 1.368 . S
C1115 C1096 1.429 . S
C1115 C1109 1.429 . S
C1115 C1116 1.523 . S
C1116 C1097 1.368 . S
C1116 C1110 1.368 . S
C1116 C1115 1.523 . S
C1117 C1101 1.429 . S
C1117 C1113 1.429 . S
C1117 C1118 1.523 . S
C1118 C1102 1.368 . S
C1118 C1114 1.368 . S
C1118 C1117 1.523 . S
H1119 C1094 0.950 . S
H1120 C1096 0.950 . S
H1121 C1097 0.949 . S
H1122 C1099 0.950 . S
H1123 C1101 0.950 . S
C1124 C1125 1.349 . S
C1124 C1126 1.327 . S
C1124 H1149 0.950 . S
C1125 C1124 1.349 . S
C1125 C1141 1.349 . S
C1126 C1124 1.327 . S
C1126 C1145 1.429 . S
C1126 H1150 0.950 . S
C1127 C1144 1.574 1_565 S
C1127 C1146 1.368 . S
C1127 H1151 0.949 . S
H1128 C1132 0.949 . S
C1129 C1130 1.349 . S
C1129 C1131 1.327 . S
C1129 H1152 0.950 . S
C1130 C1129 1.349 . S
C1130 C1142 1.349 . S
C1131 C1129 1.327 . S
C1131 C1147 1.429 . S
C1131 H1153 0.950 . S
C1132 H1128 0.949 . S
C1132 C1140 1.574 1_545 S
C1132 C1148 1.368 . S
H1133 C1141 0.950 . S
H1134 C1139 0.950 . S
H1135 C1140 0.949 . S
H1136 C1142 0.950 . S
H1137 C1143 0.950 . S
H1138 C1144 0.949 . S
C1139 H1134 0.950 . S
C1139 C1141 1.327 . S
C1139 C1145 1.429 . S
C1140 C1132 1.574 1_565 S
C1140 H1135 0.949 . S
C1140 C1146 1.368 1_556 S
C1141 C1125 1.349 . S
C1141 H1133 0.950 . S
C1141 C1139 1.327 . S
C1142 C1130 1.349 . S
C1142 H1136 0.950 . S
C1142 C1143 1.327 . S
C1143 H1137 0.950 . S
C1143 C1142 1.327 . S
C1143 C1147 1.429 . S
C1144 C1127 1.574 1_545 S
C1144 H1138 0.949 . S
C1144 C1148 1.368 1_554 S
C1145 C1126 1.429 . S
C1145 C1139 1.429 . S
C1145 C1146 1.523 . S
C1146 C1127 1.368 . S
C1146 C1140 1.368 1_554 S
C1146 C1145 1.523 . S
C1147 C1131 1.429 . S
C1147 C1143 1.429 . S
C1147 C1148 1.523 . S
C1148 C1132 1.368 . S
C1148 C1144 1.368 1_556 S
C1148 C1147 1.523 . S
H1149 C1124 0.950 . S
H1150 C1126 0.950 . S
H1151 C1127 0.949 . S
H1152 C1129 0.950 . S
H1153 C1131 0.950 . S
C1154 C1155 1.349 . S
C1154 C1156 1.327 . S
C1154 H1179 0.950 . S
C1155 C1154 1.349 . S
C1155 C1171 1.349 . S
C1156 C1154 1.327 . S
C1156 C1175 1.429 . S
C1156 H1180 0.950 . S
C1157 C1174 1.574 1_545 S
C1157 C1176 1.368 . S
C1157 H1181 0.949 . S
H1158 C1162 0.949 . S
C1159 C1160 1.349 . S
C1159 C1161 1.327 . S
C1159 H1182 0.950 . S
C1160 C1159 1.349 . S
C1160 C1172 1.349 . S
C1161 C1159 1.327 . S
C1161 C1177 1.429 . S
C1161 H1183 0.950 . S
C1162 H1158 0.949 . S
C1162 C1170 1.574 1_565 S
C1162 C1178 1.368 . S
H1163 C1171 0.950 . S
H1164 C1169 0.950 . S
H1165 C1170 0.949 . S
H1166 C1172 0.950 . S
H1167 C1173 0.950 . S
H1168 C1174 0.949 . S
C1169 H1164 0.950 . S
C1169 C1171 1.327 . S
C1169 C1175 1.429 . S
C1170 C1162 1.574 1_545 S
C1170 H1165 0.949 . S
C1170 C1176 1.368 . S
C1171 C1155 1.349 . S
C1171 H1163 0.950 . S
C1171 C1169 1.327 . S
C1172 C1160 1.349 . S
C1172 H1166 0.950 . S
C1172 C1173 1.327 . S
C1173 H1167 0.950 . S
C1173 C1172 1.327 . S
C1173 C1177 1.429 . S
C1174 C1157 1.574 1_565 S
C1174 H1168 0.949 . S
C1174 C1178 1.368 . S
C1175 C1156 1.429 . S
C1175 C1169 1.429 . S
C1175 C1176 1.523 . S
C1176 C1157 1.368 . S
C1176 C1170 1.368 . S
C1176 C1175 1.523 . S
C1177 C1161 1.429 . S
C1177 C1173 1.429 . S
C1177 C1178 1.523 . S
C1178 C1162 1.368 . S
C1178 C1174 1.368 . S
C1178 C1177 1.523 . S
H1179 C1154 0.950 . S
H1180 C1156 0.950 . S
H1181 C1157 0.949 . S
H1182 C1159 0.950 . S
H1183 C1161 0.950 . S
C225 C4 1.461 . S
C230 C88 1.462 . S
C255 C18 1.461 . S
C260 C102 1.462 . S
C285 C60 1.462 . S
C290 C32 1.461 . S
C315 C74 1.462 . S
C320 C46 1.461 . S
C345 C200 1.462 . S
C350 C116 1.461 . S
C375 C214 1.462 . S
C380 C130 1.461 . S
C405 C144 1.461 . S
C410 C172 1.462 . S
C435 C158 1.461 . S
C440 C186 1.462 . S
C465 C5 1.255 . S
C470 C82 1.393 . S
C495 C19 1.255 . S
C500 C68 1.393 . S
C525 C33 1.255 . S
C530 C110 1.393 . S
C555 C96 1.393 . S
C560 C47 1.255 . S
C585 C194 1.393 . S
C590 C117 1.255 . S
C615 C180 1.393 . S
C620 C131 1.255 . S
C645 C145 1.255 . S
C650 C222 1.393 . S
C675 C208 1.393 . S
C680 C159 1.255 . S
C705 C179 1.287 . S
C710 C11 1.284 . S
C735 C25 1.284 . S
C740 C193 1.287 . S
C765 C207 1.287 . S
C770 C39 1.284 . S
C795 C221 1.287 . S
C800 C53 1.284 . S
C825 C123 1.284 . S
C830 C67 1.287 . S
C855 C137 1.284 . S
C860 C81 1.287 . S
C885 C95 1.287 . S
C890 C151 1.284 . S
C915 C109 1.287 . S
C920 C165 1.284 . S
C945 C40 1.523 . S
C950 C12 1.523 . S
C975 C26 1.523 . S
C980 C54 1.523 . S
C1005 C89 1.137 . S
C1010 C61 1.137 . S
C1035 C75 1.137 . S
C1040 C103 1.137 . S
C1065 C152 1.523 . S
C1070 C124 1.523 . S
C1095 C166 1.523 . S
C1100 C138 1.523 . S
C1125 C201 1.137 . S
C1130 C173 1.137 . S
C1155 C215 1.137 . S
C1160 C187 1.137 . S
