# Generated by pormake.
# Topology yfj, (5)-cn, num edge types: 1
# Building blocks:
#     Node 0, Type 0, BuildingBlock: BEQFEK_clean_sbu_0, # of connection points: 5
#     Node 1, Type 0, BuildingBlock: BEQFEK_clean_sbu_0, # of connection points: 5
#     Node 2, Type 0, BuildingBlock: BEQFEK_clean_sbu_0, # of connection points: 5
#     Node 3, Type 0, BuildingBlock: BEQFEK_clean_sbu_0, # of connection points: 5
#     Node 4, Type 0, BuildingBlock: BEQFEK_clean_sbu_0, # of connection points: 5
#     Node 5, Type 0, BuildingBlock: BEQFEK_clean_sbu_0, # of connection points: 5
#     Node 6, Type 0, BuildingBlock: BEQFEK_clean_sbu_0, # of connection points: 5
#     Node 7, Type 0, BuildingBlock: BEQFEK_clean_sbu_0, # of connection points: 5
#     Node 8, Type 0, BuildingBlock: BEQFEK_clean_sbu_0, # of connection points: 5
#     Node 9, Type 0, BuildingBlock: BEQFEK_clean_sbu_0, # of connection points: 5
#     Node 10, Type 0, BuildingBlock: BEQFEK_clean_sbu_0, # of connection points: 5
#     Node 11, Type 0, BuildingBlock: BEQFEK_clean_sbu_0, # of connection points: 5
#     Node 12, Type 0, BuildingBlock: BEQFEK_clean_sbu_0, # of connection points: 5
#     Node 13, Type 0, BuildingBlock: BEQFEK_clean_sbu_0, # of connection points: 5
#     Node 14, Type 0, BuildingBlock: BEQFEK_clean_sbu_0, # of connection points: 5
#     Node 15, Type 0, BuildingBlock: BEQFEK_clean_sbu_0, # of connection points: 5
#     Edge 16, Type (0, 0), BuildingBlock: TEMPAE_clean_linker_10, # of connection points: 2
#     Edge 17, Type (0, 0), BuildingBlock: TEMPAE_clean_linker_10, # of connection points: 2
#     Edge 18, Type (0, 0), BuildingBlock: TEMPAE_clean_linker_10, # of connection points: 2
#     Edge 19, Type (0, 0), BuildingBlock: TEMPAE_clean_linker_10, # of connection points: 2
#     Edge 20, Type (0, 0), BuildingBlock: TEMPAE_clean_linker_10, # of connection points: 2
#     Edge 21, Type (0, 0), BuildingBlock: TEMPAE_clean_linker_10, # of connection points: 2
#     Edge 22, Type (0, 0), BuildingBlock: TEMPAE_clean_linker_10, # of connection points: 2
#     Edge 23, Type (0, 0), BuildingBlock: TEMPAE_clean_linker_10, # of connection points: 2
#     Edge 24, Type (0, 0), BuildingBlock: TEMPAE_clean_linker_10, # of connection points: 2
#     Edge 25, Type (0, 0), BuildingBlock: TEMPAE_clean_linker_10, # of connection points: 2
#     Edge 26, Type (0, 0), BuildingBlock: TEMPAE_clean_linker_10, # of connection points: 2
#     Edge 27, Type (0, 0), BuildingBlock: TEMPAE_clean_linker_10, # of connection points: 2
#     Edge 28, Type (0, 0), BuildingBlock: TEMPAE_clean_linker_10, # of connection points: 2
#     Edge 29, Type (0, 0), BuildingBlock: TEMPAE_clean_linker_10, # of connection points: 2
#     Edge 30, Type (0, 0), BuildingBlock: TEMPAE_clean_linker_10, # of connection points: 2
#     Edge 31, Type (0, 0), BuildingBlock: TEMPAE_clean_linker_10, # of connection points: 2
#     Edge 32, Type (0, 0), BuildingBlock: TEMPAE_clean_linker_10, # of connection points: 2
#     Edge 33, Type (0, 0), BuildingBlock: TEMPAE_clean_linker_10, # of connection points: 2
#     Edge 34, Type (0, 0), BuildingBlock: TEMPAE_clean_linker_10, # of connection points: 2
#     Edge 35, Type (0, 0), BuildingBlock: TEMPAE_clean_linker_10, # of connection points: 2
#     Edge 36, Type (0, 0), BuildingBlock: TEMPAE_clean_linker_10, # of connection points: 2
#     Edge 37, Type (0, 0), BuildingBlock: TEMPAE_clean_linker_10, # of connection points: 2
#     Edge 38, Type (0, 0), BuildingBlock: TEMPAE_clean_linker_10, # of connection points: 2
#     Edge 39, Type (0, 0), BuildingBlock: TEMPAE_clean_linker_10, # of connection points: 2
#     Edge 40, Type (0, 0), BuildingBlock: TEMPAE_clean_linker_10, # of connection points: 2
#     Edge 41, Type (0, 0), BuildingBlock: TEMPAE_clean_linker_10, # of connection points: 2
#     Edge 42, Type (0, 0), BuildingBlock: TEMPAE_clean_linker_10, # of connection points: 2
#     Edge 43, Type (0, 0), BuildingBlock: TEMPAE_clean_linker_10, # of connection points: 2
#     Edge 44, Type (0, 0), BuildingBlock: TEMPAE_clean_linker_10, # of connection points: 2
#     Edge 45, Type (0, 0), BuildingBlock: TEMPAE_clean_linker_10, # of connection points: 2
#     Edge 46, Type (0, 0), BuildingBlock: TEMPAE_clean_linker_10, # of connection points: 2
#     Edge 47, Type (0, 0), BuildingBlock: TEMPAE_clean_linker_10, # of connection points: 2
#     Edge 48, Type (0, 0), BuildingBlock: TEMPAE_clean_linker_10, # of connection points: 2
#     Edge 49, Type (0, 0), BuildingBlock: TEMPAE_clean_linker_10, # of connection points: 2
#     Edge 50, Type (0, 0), BuildingBlock: TEMPAE_clean_linker_10, # of connection points: 2
#     Edge 51, Type (0, 0), BuildingBlock: TEMPAE_clean_linker_10, # of connection points: 2
#     Edge 52, Type (0, 0), BuildingBlock: TEMPAE_clean_linker_10, # of connection points: 2
#     Edge 53, Type (0, 0), BuildingBlock: TEMPAE_clean_linker_10, # of connection points: 2
#     Edge 54, Type (0, 0), BuildingBlock: TEMPAE_clean_linker_10, # of connection points: 2
#     Edge 55, Type (0, 0), BuildingBlock: TEMPAE_clean_linker_10, # of connection points: 2
# Relax obj value: 0.520
# Max RMSD: 0.226
# Mean RMSD: 0.226
data_MOF--net-yfj--node1-BEQFEK_clean_sbu_0--edge1-TEMPAE_clean_linker_10
_symmetry_space_group_name_H-M    P1
_symmetry_Int_Tables_number       1
_symmetry_cell_setting            triclinic
loop_
_symmetry_equiv_pos_as_xyz
'x, y, z'
_cell_length_a     46.430271
_cell_length_b     46.442686
_cell_length_c     50.160395
_cell_angle_alpha  89.980356
_cell_angle_beta   90.01532
_cell_angle_gamma 89.982097
loop_
_atom_site_label
_atom_site_type_symbol
_atom_site_fract_x
_atom_site_fract_y
_atom_site_fract_z
_atom_type_partial_charge
Co0 Co 0.09881 0.13139 0.35994 0.0
Co1 Co 0.12302 0.14805 0.30285 0.0
C2 C 0.15823 0.11537 0.34248 0.0
O3 O 0.13796 0.11493 0.35951 0.0
O4 O 0.15533 0.12777 0.32003 0.0
C5 C 0.08705 0.09537 0.40546 0.0
O6 O 0.10177 0.07601 0.39208 0.0
C7 C 0.15233 0.13905 0.25112 0.0
C8 C 0.13837 0.17698 0.22793 0.0
C9 C 0.15571 0.15273 0.22664 0.0
N10 N 0.13369 0.15441 0.26605 0.0
N11 N 0.12524 0.1769 0.25191 0.0
C12 C 0.16896 0.11375 0.26143 0.0
H13 H 0.18711 0.12171 0.27379 0.0
H14 H 0.15497 0.10023 0.27426 0.0
H15 H 0.17796 0.10048 0.24511 0.0
C16 C 0.05739 0.09929 0.32732 0.0
N17 N 0.07839 0.11905 0.3295 0.0
N18 N 0.08876 0.12484 0.30562 0.0
C19 C 0.07487 0.10823 0.2876 0.0
C20 C 0.05468 0.09138 0.30082 0.0
C21 C 0.04278 0.08526 0.35051 0.0
H22 H 0.03856 0.10137 0.36634 0.0
H23 H 0.05695 0.06817 0.35866 0.0
H24 H 0.02215 0.07521 0.34429 0.0
O25 O 0.10187 0.17356 0.3611 0.0
O26 O 0.12 0.1864 0.32181 0.0
H27 H 0.08531 0.12699 0.24985 0.0
H28 H 0.06777 0.09225 0.24767 0.0
C29 C 0.08357 0.10534 0.25903 0.0
H30 H 0.10497 0.09482 0.25791 0.0
H31 H 0.11117 0.19269 0.25893 0.0
O32 O 0.08168 0.11958 0.39466 0.0
C33 C 0.11108 0.19276 0.34518 0.0
Co34 Co 0.88227 0.60082 0.61322 0.0
Co35 Co 0.85594 0.61901 0.5574 0.0
C36 C 0.89183 0.65883 0.59233 0.0
O37 O 0.89724 0.63973 0.60972 0.0
O38 O 0.87572 0.65357 0.57234 0.0
C39 C 0.9186 0.59431 0.65967 0.0
O40 O 0.93527 0.61312 0.64765 0.0
C41 C 0.86107 0.64738 0.50508 0.0
C42 C 0.82555 0.62846 0.48173 0.0
C43 C 0.84788 0.64819 0.48027 0.0
N44 N 0.84716 0.62825 0.52064 0.0
N45 N 0.82591 0.61701 0.50649 0.0
C46 C 0.88749 0.66349 0.51338 0.0
H47 H 0.90118 0.64965 0.52622 0.0
H48 H 0.90011 0.67064 0.49578 0.0
H49 H 0.88101 0.68277 0.52499 0.0
C50 C 0.91284 0.5593 0.57968 0.0
N51 N 0.89234 0.57939 0.58284 0.0
N52 N 0.88123 0.58611 0.55949 0.0
C53 C 0.89409 0.56974 0.54064 0.0
C54 C 0.91458 0.55213 0.55281 0.0
C55 C 0.93332 0.55099 0.60147 0.0
H56 H 0.93866 0.57018 0.6135 0.0
H57 H 0.95377 0.54202 0.59372 0.0
H58 H 0.92284 0.53494 0.61468 0.0
O59 O 0.84027 0.60322 0.61756 0.0
O60 O 0.81945 0.61399 0.57903 0.0
H61 H 0.89627 0.55287 0.50049 0.0
H62 H 0.89676 0.59172 0.50332 0.0
C63 C 0.88742 0.57159 0.51152 0.0
H64 H 0.86378 0.57234 0.50861 0.0
H65 H 0.81161 0.60154 0.51373 0.0
O66 O 0.89641 0.58479 0.64766 0.0
C67 C 0.81773 0.60827 0.60392 0.0
Co68 Co 0.40049 0.36225 0.86177 0.0
Co69 Co 0.37704 0.34526 0.80436 0.0
C70 C 0.34106 0.37754 0.84329 0.0
O71 O 0.36113 0.37825 0.86052 0.0
O72 O 0.34419 0.36491 0.82101 0.0
C73 C 0.41046 0.39995 0.90609 0.0
O74 O 0.39638 0.41852 0.89123 0.0
C75 C 0.34506 0.34922 0.75322 0.0
C76 C 0.37278 0.32466 0.72565 0.0
C77 C 0.3475 0.34044 0.72685 0.0
N78 N 0.36775 0.33896 0.7671 0.0
N79 N 0.38414 0.32417 0.75043 0.0
C80 C 0.32283 0.36916 0.76448 0.0
H81 H 0.33361 0.38674 0.77563 0.0
H82 H 0.30921 0.37883 0.74868 0.0
H83 H 0.30893 0.35705 0.77854 0.0
C84 C 0.44178 0.39483 0.82978 0.0
N85 N 0.42103 0.3748 0.83156 0.0
N86 N 0.41038 0.36972 0.80766 0.0
C87 C 0.4234 0.38752 0.79003 0.0
C88 C 0.44362 0.40418 0.80355 0.0
C89 C 0.45836 0.40608 0.85316 0.0
H90 H 0.46203 0.38858 0.86783 0.0
H91 H 0.44588 0.42342 0.86299 0.0
H92 H 0.47939 0.41506 0.8467 0.0
O93 O 0.39824 0.32014 0.86312 0.0
O94 O 0.38079 0.30692 0.82364 0.0
H95 H 0.41947 0.37282 0.74989 0.0
H96 H 0.42266 0.41141 0.75284 0.0
C97 C 0.41326 0.39181 0.76199 0.0
H98 H 0.38945 0.39359 0.76169 0.0
H99 H 0.40337 0.31412 0.75587 0.0
O100 O 0.41647 0.37526 0.89659 0.0
C101 C 0.38961 0.30076 0.84712 0.0
Co102 Co 0.63647 0.89994 0.1103 0.0
Co103 Co 0.65178 0.87476 0.05327 0.0
C104 C 0.618 0.84118 0.09282 0.0
O105 O 0.62047 0.8609 0.11019 0.0
O106 O 0.62842 0.84367 0.06948 0.0
C107 C 0.60078 0.91162 0.15602 0.0
O108 O 0.5817 0.8961 0.14309 0.0
C109 C 0.64263 0.84762 1.00058 0.0
C110 C 0.684 0.8561 0.98037 0.0
C111 C 0.65781 0.84221 0.9772 0.0
N112 N 0.65907 0.86403 0.01671 0.0
N113 N 0.68362 0.8693 1.00431 0.0
C114 C 0.61451 0.83468 0.0089 0.0
H115 H 0.61877 0.81432 0.01981 0.0
H116 H 0.60294 0.84955 0.02251 0.0
H117 H 0.60072 0.82968 0.99149 0.0
C118 C 0.60533 0.94206 0.07717 0.0
N119 N 0.62431 0.92033 0.07959 0.0
N120 N 0.63101 0.91045 0.05576 0.0
C121 C 0.61653 0.92592 0.03731 0.0
C122 C 0.59952 0.94637 0.05018 0.0
C123 C 0.5895 0.95438 0.1006 0.0
H124 H 0.60507 0.95987 0.11656 0.0
H125 H 0.5745 0.93786 0.10841 0.0
H126 H 0.57672 0.97372 0.09575 0.0
O127 O 0.6785 0.89583 0.11186 0.0
O128 O 0.68959 0.87479 0.07339 0.0
H129 H 0.64027 0.91607 1.00184 0.0
H130 H 0.60902 0.93857 0.99643 0.0
C131 C 0.6177 0.92013 0.00799 0.0
H132 H 0.60482 0.90065 1.00342 0.0
H133 H 0.70059 0.88099 0.01261 0.0
O134 O 0.62476 0.91738 0.14495 0.0
C135 C 0.69677 0.88433 0.09632 0.0
Co136 Co 0.08877 0.368 0.89761 0.0
Co137 Co 0.11141 0.35299 0.9558 0.0
C138 C 0.14775 0.38472 0.91682 0.0
O139 O 0.12812 0.38411 0.89913 0.0
O140 O 0.14417 0.37336 0.93965 0.0
C141 C 0.07947 0.40384 0.85171 0.0
O142 O 0.09344 0.42311 0.86586 0.0
C143 C 0.14384 0.35404 0.00684 0.0
C144 C 0.11189 0.33803 0.0358 0.0
C145 C 0.1396 0.34893 0.0339 0.0
N146 N 0.11957 0.34726 0.99347 0.0
N147 N 0.10068 0.33739 0.01096 0.0
C148 C 0.17132 0.36282 0.99356 0.0
H149 H 0.17477 0.34921 0.97571 0.0
H150 H 0.16969 0.38563 0.98714 0.0
H151 H 0.19014 0.36027 0.00698 0.0
C152 C 0.04709 0.40174 0.9279 0.0
N153 N 0.06748 0.38123 0.92713 0.0
N154 N 0.07788 0.37715 0.95129 0.0
C155 C 0.06521 0.39623 0.96797 0.0
C156 C 0.04531 0.41251 0.95364 0.0
C157 C 0.03119 0.41245 0.9039 0.0
H158 H 0.02731 0.39447 0.8898 0.0
H159 H 0.04424 0.42908 0.89367 0.0
H160 H 0.0103 0.42222 0.90976 0.0
O161 O 0.09157 0.32599 0.89711 0.0
O162 O 0.1093 0.31423 0.93685 0.0
H163 H 0.06672 0.38636 0.0095 0.0
H164 H 0.06919 0.42424 1.00236 0.0
C165 C 0.07582 0.4025 0.99556 0.0
H166 H 0.09964 0.40096 0.99621 0.0
H167 H 0.07989 0.33071 0.00603 0.0
O168 O 0.07334 0.37965 0.86221 0.0
C169 C 0.10082 0.30724 0.91345 0.0
Co170 Co 0.63518 0.5856 0.14891 0.0
Co171 Co 0.63907 0.61881 0.20373 0.0
C172 C 0.60929 0.64514 0.159 0.0
O173 O 0.61686 0.62386 0.14462 0.0
O174 O 0.61508 0.64619 0.18378 0.0
C175 C 0.60221 0.56803 0.10392 0.0
O176 O 0.58146 0.58109 0.11701 0.0
C177 C 0.63304 0.65476 0.25276 0.0
C178 C 0.65309 0.6267 0.28311 0.0
C179 C 0.63935 0.65293 0.27987 0.0
N180 N 0.64271 0.63071 0.24061 0.0
N181 N 0.65483 0.61418 0.25892 0.0
C182 C 0.6159 0.67762 0.23893 0.0
H183 H 0.59698 0.6676 0.22912 0.0
H184 H 0.60817 0.6944 0.25291 0.0
H185 H 0.6293 0.68766 0.22314 0.0
C186 C 0.60207 0.5452 0.18143 0.0
N187 N 0.62055 0.56738 0.17957 0.0
N188 N 0.62025 0.58205 0.20201 0.0
C189 C 0.60032 0.57036 0.21839 0.0
C190 C 0.58798 0.54664 0.20582 0.0
C191 C 0.59606 0.52445 0.15929 0.0
H192 H 0.61575 0.52105 0.14718 0.0
H193 H 0.57894 0.53318 0.1462 0.0
H194 H 0.58849 0.50355 0.16743 0.0
O195 O 0.67667 0.59178 0.15086 0.0
O196 O 0.6786 0.6209 0.18598 0.0
H197 H 0.60435 0.58068 0.25968 0.0
H198 H 0.56761 0.57723 0.24864 0.0
C199 C 0.58933 0.58503 0.24296 0.0
H200 H 0.5885 0.60864 0.23971 0.0
H201 H 0.66382 0.59403 0.25498 0.0
O202 O 0.62679 0.56537 0.11487 0.0
C203 C 0.69057 0.60874 0.16595 0.0
Co204 Co 0.40759 0.13938 0.40519 0.0
Co205 Co 0.38218 0.15595 0.46175 0.0
C206 C 0.34851 0.12148 0.42255 0.0
O207 O 0.369 0.12156 0.40571 0.0
O208 O 0.35062 0.13432 0.44486 0.0
C209 C 0.42075 0.10334 0.36003 0.0
O210 O 0.40638 0.0836 0.37326 0.0
C211 C 0.35284 0.14776 0.51371 0.0
C212 C 0.36847 0.18496 0.53698 0.0
C213 C 0.35053 0.16118 0.53841 0.0
N214 N 0.37152 0.16276 0.49851 0.0
N215 N 0.3809 0.18486 0.51268 0.0
C216 C 0.33533 0.12297 0.50364 0.0
H217 H 0.31799 0.13139 0.49056 0.0
H218 H 0.34899 0.10842 0.49152 0.0
H219 H 0.3252 0.11065 0.52006 0.0
C220 C 0.44905 0.10832 0.43811 0.0
N221 N 0.42814 0.12815 0.43586 0.0
N222 N 0.41695 0.13323 0.45955 0.0
C223 C 0.43005 0.11582 0.47749 0.0
C224 C 0.45051 0.0991 0.46437 0.0
C225 C 0.46514 0.09588 0.41496 0.0
H226 H 0.46956 0.11288 0.39999 0.0
H227 H 0.45197 0.07881 0.4055 0.0
H228 H 0.48577 0.08615 0.42163 0.0
O229 O 0.40309 0.18121 0.40316 0.0
O230 O 0.38393 0.19416 0.44193 0.0
H231 H 0.41793 0.13299 0.51546 0.0
H232 H 0.43491 0.09799 0.51712 0.0
C233 C 0.4199 0.11175 0.50554 0.0
H234 H 0.39838 0.10145 0.50533 0.0
H235 H 0.39537 0.20024 0.50555 0.0
O236 O 0.42536 0.12769 0.37083 0.0
C237 C 0.39287 0.20038 0.41852 0.0
Co238 Co 0.86549 0.91136 0.64911 0.0
Co239 Co 0.84529 0.88578 0.7048 0.0
C240 C 0.88115 0.85193 0.6664 0.0
O241 O 0.88259 0.87284 0.65014 0.0
O242 O 0.86695 0.85377 0.68806 0.0
C243 C 0.90371 0.92272 0.60548 0.0
O244 O 0.92223 0.90829 0.62011 0.0
C245 C 0.84891 0.85433 0.75652 0.0
C246 C 0.81849 0.87863 0.78174 0.0
C247 C 0.83775 0.85584 0.78227 0.0
N248 N 0.83721 0.87558 0.74168 0.0
N249 N 0.81896 0.88993 0.75695 0.0
C250 C 0.86853 0.83172 0.74543 0.0
H251 H 0.85788 0.82134 0.72816 0.0
H252 H 0.8887 0.84194 0.73827 0.0
H253 H 0.87368 0.8147 0.76015 0.0
C254 C 0.89556 0.95178 0.68351 0.0
N255 N 0.87541 0.93137 0.6803 0.0
N256 N 0.86917 0.91983 0.7036 0.0
C257 C 0.8863 0.93203 0.72229 0.0
C258 C 0.90378 0.95251 0.71008 0.0
C259 C 0.90917 0.96798 0.661 0.0
H260 H 0.89288 0.97274 0.64544 0.0
H261 H 0.92648 0.9547 0.65203 0.0
H262 H 0.91883 0.98842 0.66822 0.0
O263 O 0.82402 0.90686 0.64561 0.0
O264 O 0.80762 0.88939 0.68387 0.0
H265 H 0.86896 0.9233 0.76088 0.0
H266 H 0.90686 0.93198 0.76112 0.0
C267 C 0.88958 0.92064 0.75003 0.0
H268 H 0.89463 0.89732 0.74922 0.0
H269 H 0.80694 0.9076 0.7505 0.0
O270 O 0.87907 0.92871 0.61511 0.0
C271 C 0.80332 0.89779 0.65987 0.0
Co272 Co 0.60096 0.61607 0.86199 0.0
Co273 Co 0.62304 0.63985 0.80656 0.0
C274 C 0.65969 0.60304 0.84253 0.0
O275 O 0.63961 0.59946 0.85939 0.0
O276 O 0.65626 0.6188 0.82201 0.0
C277 C 0.59097 0.57718 0.9058 0.0
O278 O 0.60619 0.55901 0.89151 0.0
C279 C 0.65097 0.63389 0.75399 0.0
C280 C 0.64027 0.67504 0.73431 0.0
C281 C 0.65552 0.64966 0.7308 0.0
N282 N 0.63368 0.64915 0.77032 0.0
N283 N 0.62715 0.67361 0.75827 0.0
C284 C 0.6655 0.6064 0.76194 0.0
H285 H 0.68588 0.61164 0.77244 0.0
H286 H 0.65159 0.59399 0.77575 0.0
H287 H 0.67082 0.59296 0.74439 0.0
C288 C 0.5592 0.58714 0.82784 0.0
N289 N 0.57985 0.60701 0.83114 0.0
N290 N 0.58935 0.61548 0.80764 0.0
C291 C 0.5751 0.60053 0.78859 0.0
C292 C 0.55583 0.58181 0.80085 0.0
C293 C 0.54526 0.57106 0.85026 0.0
H294 H 0.54064 0.58595 0.86698 0.0
H295 H 0.56014 0.55406 0.85744 0.0
H296 H 0.52491 0.56073 0.84363 0.0
O297 O 0.60459 0.65769 0.86665 0.0
O298 O 0.6186 0.67664 0.82821 0.0
H299 H 0.58539 0.62367 0.75289 0.0
H300 H 0.56549 0.59067 0.74747 0.0
C301 C 0.58253 0.60111 0.75959 0.0
H302 H 0.60304 0.58939 0.75641 0.0
H303 H 0.6145 0.68977 0.76676 0.0
O304 O 0.58441 0.60157 0.89596 0.0
C305 C 0.61155 0.67946 0.85273 0.0
Co306 Co 0.38595 0.09995 0.11432 0.0
Co307 Co 0.36041 0.11785 0.05807 0.0
C308 C 0.39703 0.15734 0.09269 0.0
O309 O 0.40192 0.13835 0.11032 0.0
O310 O 0.38082 0.15224 0.07273 0.0
C311 C 0.42136 0.09365 0.16144 0.0
O312 O 0.43862 0.11191 0.14941 0.0
C313 C 0.36459 0.1464 0.00556 0.0
C314 C 0.32983 0.12595 0.98235 0.0
C315 C 0.35126 0.14662 0.9808 0.0
N316 N 0.35161 0.12667 0.02118 0.0
N317 N 0.3308 0.11452 0.0071 0.0
C318 C 0.39019 0.16383 0.01379 0.0
H319 H 0.4049 0.15048 0.0261 0.0
H320 H 0.40204 0.17213 0.99618 0.0
H321 H 0.38283 0.18239 0.02594 0.0
C322 C 0.41612 0.05751 0.08154 0.0
N323 N 0.39578 0.07784 0.08429 0.0
N324 N 0.38514 0.08452 0.06073 0.0
C325 C 0.39815 0.06789 0.04217 0.0
C326 C 0.41826 0.05014 0.05474 0.0
C327 C 0.43621 0.04922 0.10365 0.0
H328 H 0.44134 0.06841 0.11574 0.0
H329 H 0.45679 0.04024 0.0962 0.0
H330 H 0.4255 0.03318 0.1167 0.0
O331 O 0.34402 0.10353 0.11835 0.0
O332 O 0.32368 0.11377 0.07952 0.0
H333 H 0.40138 0.05117 1.00201 0.0
H334 H 0.40129 0.09004 1.00496 0.0
C335 C 0.39209 0.06974 0.01294 0.0
H336 H 0.3685 0.07018 0.00963 0.0
H337 H 0.31717 0.0985 0.01441 0.0
O338 O 0.39926 0.08426 0.1492 0.0
C339 C 0.32168 0.10873 0.10451 0.0
Co340 Co 0.90807 0.86099 0.36446 0.0
Co341 Co 0.88351 0.84748 0.30686 0.0
C342 C 0.84823 0.87816 0.34669 0.0
O343 O 0.86845 0.87676 0.36377 0.0
O344 O 0.85096 0.86766 0.32341 0.0
C345 C 0.91858 0.8985 0.40849 0.0
O346 O 0.9054 0.91728 0.39315 0.0
C347 C 0.84856 0.84393 0.25772 0.0
C348 C 0.88158 0.84016 0.22634 0.0
C349 C 0.85213 0.84368 0.23002 0.0
N350 N 0.87461 0.84195 0.26944 0.0
N351 N 0.89416 0.83895 0.25052 0.0
C352 C 0.82099 0.84348 0.27317 0.0
H353 H 0.82419 0.83208 0.29239 0.0
H354 H 0.81417 0.8659 0.27748 0.0
H355 H 0.80377 0.83234 0.26183 0.0
C356 C 0.94958 0.89456 0.33384 0.0
N357 N 0.92865 0.87462 0.33469 0.0
N358 N 0.91697 0.87192 0.31087 0.0
C359 C 0.9291 0.89172 0.29452 0.0
C360 C 0.95028 0.90656 0.30854 0.0
C361 C 0.96753 0.90313 0.35733 0.0
H362 H 0.97058 0.88449 0.37087 0.0
H363 H 0.95658 0.92057 0.36847 0.0
H364 H 0.98883 0.91128 0.35068 0.0
O365 O 0.90581 0.81899 0.3648 0.0
O366 O 0.88615 0.80858 0.32552 0.0
H367 H 0.92807 0.88881 0.25204 0.0
H368 H 0.91987 0.92397 0.26465 0.0
C369 C 0.91677 0.90058 0.26817 0.0
H370 H 0.89344 0.89566 0.26731 0.0
H371 H 0.91622 0.837 0.25408 0.0
O372 O 0.92387 0.87345 0.39946 0.0
C373 C 0.89565 0.80084 0.34837 0.0
Co374 Co 0.13049 0.40374 0.60811 0.0
Co375 Co 0.15034 0.38028 0.55157 0.0
C376 C 0.11374 0.34561 0.58909 0.0
O377 O 0.11273 0.36562 0.6063 0.0
O378 O 0.128 0.34832 0.56758 0.0
C379 C 0.09365 0.41427 0.65326 0.0
O380 O 0.07496 0.39899 0.6396 0.0
C381 C 0.14435 0.34967 0.50015 0.0
C382 C 0.17808 0.36963 0.47529 0.0
C383 C 0.15669 0.34886 0.47498 0.0
N384 N 0.15784 0.3699 0.51483 0.0
N385 N 0.17804 0.3817 0.49978 0.0
C386 C 0.11912 0.33244 0.5096 0.0
H387 H 0.10428 0.3464 0.52114 0.0
H388 H 0.10723 0.3227 0.49265 0.0
H389 H 0.12687 0.31495 0.52286 0.0
C390 C 0.10094 0.4462 0.57458 0.0
N391 N 0.12022 0.42482 0.57742 0.0
N392 N 0.12808 0.41531 0.55376 0.0
C393 C 0.11387 0.43059 0.53498 0.0
C394 C 0.09606 0.45063 0.54748 0.0
C395 C 0.08387 0.45783 0.59755 0.0
H396 H 0.09861 0.46322 0.6142 0.0
H397 H 0.06877 0.44095 0.6045 0.0
H398 H 0.07107 0.4771 0.59248 0.0
O399 O 0.17253 0.39912 0.611 0.0
O400 O 0.18777 0.38204 0.57208 0.0
H401 H 0.13884 0.42436 0.49968 0.0
H402 H 0.10461 0.44153 0.49387 0.0
C403 C 0.1159 0.42479 0.5057 0.0
H404 H 0.10641 0.40339 0.50131 0.0
H405 H 0.19182 0.39803 0.50622 0.0
O406 O 0.11777 0.4206 0.64271 0.0
C407 C 0.19268 0.39006 0.59602 0.0
Co408 Co 0.59423 0.87244 0.40038 0.0
Co409 Co 0.61462 0.85099 0.45727 0.0
C410 C 0.65358 0.88343 0.42028 0.0
O411 O 0.6341 0.8865 0.4027 0.0
O412 O 0.64894 0.86973 0.44181 0.0
C413 C 0.58663 0.90955 0.3546 0.0
O414 O 0.60231 0.92798 0.36816 0.0
C415 C 0.64057 0.85869 0.51055 0.0
C416 C 0.63057 0.81755 0.53052 0.0
C417 C 0.64485 0.84346 0.53404 0.0
N418 N 0.62426 0.84268 0.49397 0.0
N419 N 0.61815 0.8182 0.50619 0.0
C420 C 0.65443 0.88657 0.50287 0.0
H421 H 0.67674 0.88226 0.49603 0.0
H422 H 0.64235 0.89704 0.48644 0.0
H423 H 0.65558 0.90135 0.52019 0.0
C424 C 0.55381 0.90576 0.43265 0.0
N425 N 0.57343 0.88466 0.43056 0.0
N426 N 0.58202 0.87685 0.45456 0.0
C427 C 0.56808 0.89335 0.47271 0.0
C428 C 0.55015 0.91257 0.45934 0.0
C429 C 0.5407 0.92096 0.40929 0.0
H430 H 0.5356 0.90522 0.39335 0.0
H431 H 0.55631 0.93682 0.4013 0.0
H432 H 0.52074 0.9325 0.41515 0.0
O433 O 0.59472 0.83041 0.39758 0.0
O434 O 0.60954 0.81361 0.43673 0.0
H435 H 0.57776 0.87116 0.50914 0.0
H436 H 0.55695 0.90371 0.51341 0.0
C437 C 0.57459 0.89348 0.50192 0.0
H438 H 0.59459 0.90591 0.50548 0.0
H439 H 0.60632 0.80151 0.49759 0.0
O440 O 0.57904 0.88603 0.36552 0.0
C441 C 0.60146 0.80949 0.41266 0.0
Co442 Co 0.12458 0.09742 0.65 0.0
Co443 Co 0.14575 0.12163 0.70585 0.0
C444 C 0.10916 0.15607 0.66773 0.0
O445 O 0.10636 0.1354 0.65135 0.0
O446 O 0.12447 0.15365 0.68868 0.0
C447 C 0.08879 0.08495 0.60434 0.0
O448 O 0.06918 0.09986 0.6172 0.0
C449 C 0.14067 0.15409 0.7567 0.0
C450 C 0.17076 0.13093 0.78316 0.0
C451 C 0.15153 0.15373 0.78252 0.0
N452 N 0.15302 0.13263 0.74262 0.0
N453 N 0.17108 0.11897 0.75863 0.0
C454 C 0.11723 0.17313 0.74622 0.0
H455 H 0.10166 0.16019 0.7345 0.0
H456 H 0.10554 0.18415 0.76259 0.0
H457 H 0.12681 0.18959 0.73288 0.0
C458 C 0.09512 0.05619 0.68406 0.0
N459 N 0.1152 0.07669 0.68097 0.0
N460 N 0.12209 0.08744 0.70445 0.0
C461 C 0.10563 0.07444 0.72319 0.0
C462 C 0.08781 0.05439 0.71081 0.0
C463 C 0.08036 0.04133 0.66138 0.0
H464 H 0.0962 0.03618 0.64554 0.0
H465 H 0.06373 0.05582 0.6529 0.0
H466 H 0.06975 0.02121 0.6682 0.0
O467 O 0.16594 0.10332 0.64678 0.0
O468 O 0.18364 0.11813 0.68543 0.0
H469 H 0.12457 0.08232 0.7613 0.0
H470 H 0.08711 0.07202 0.76279 0.0
C471 C 0.10333 0.08455 0.75142 0.0
H472 H 0.09727 0.10764 0.75167 0.0
H473 H 0.18338 0.1012 0.75291 0.0
O474 O 0.11268 0.07948 0.61571 0.0
C475 C 0.18716 0.11133 0.66092 0.0
Co476 Co 0.9039 0.63641 0.90276 0.0
Co477 Co 0.87743 0.65596 0.95802 0.0
C478 C 0.84734 0.61433 0.9217 0.0
O479 O 0.86816 0.61388 0.90523 0.0
O480 O 0.84787 0.63025 0.94239 0.0
C481 C 0.92012 0.60067 0.85807 0.0
O482 O 0.90712 0.57998 0.87126 0.0
C483 C 0.84038 0.65997 0.00597 0.0
C484 C 0.87186 0.66885 0.0378 0.0
C485 C 0.84298 0.66227 0.03375 0.0
N486 N 0.86652 0.66366 0.99475 0.0
N487 N 0.88504 0.66979 0.01389 0.0
C488 C 0.81353 0.65664 0.98978 0.0
H489 H 0.81678 0.66568 0.96953 0.0
H490 H 0.80824 0.63344 0.98787 0.0
H491 H 0.79526 0.66812 0.99928 0.0
C492 C 0.94787 0.61191 0.93665 0.0
N493 N 0.92608 0.63069 0.93373 0.0
N494 N 0.91349 0.63491 0.95696 0.0
C495 C 0.92582 0.61696 0.97495 0.0
C496 C 0.94824 0.60209 0.96271 0.0
C497 C 0.96421 0.59901 0.91389 0.0
H498 H 0.96776 0.61537 0.89813 0.0
H499 H 0.95171 0.58083 0.90546 0.0
H500 H 0.98529 0.59052 0.9208 0.0
O501 O 0.89284 0.67634 0.89787 0.0
O502 O 0.87664 0.69339 0.93631 0.0
H503 H 0.92091 0.62296 0.01691 0.0
H504 H 0.91748 0.58626 0.00653 0.0
C505 C 0.91229 0.60882 1.001 0.0
H506 H 0.88857 0.61131 0.99997 0.0
H507 H 0.90694 0.67355 0.01075 0.0
O508 O 0.92286 0.62533 0.86881 0.0
C509 C 0.88242 0.69679 0.91157 0.0
Co510 Co 0.36316 0.40474 0.14925 0.0
Co511 Co 0.34469 0.37968 0.20564 0.0
C512 C 0.38386 0.34794 0.16785 0.0
O513 O 0.38463 0.36867 0.15136 0.0
O514 O 0.3685 0.34907 0.18888 0.0
C515 C 0.39882 0.41855 0.10417 0.0
O516 O 0.41899 0.40575 0.11822 0.0
C517 C 0.35094 0.34813 0.25702 0.0
C518 C 0.3207 0.37137 0.28325 0.0
C519 C 0.34032 0.3489 0.28292 0.0
N520 N 0.33811 0.36908 0.24262 0.0
N521 N 0.31994 0.38276 0.2585 0.0
C522 C 0.37451 0.32918 0.2467 0.0
H523 H 0.39019 0.34225 0.23522 0.0
H524 H 0.38605 0.31804 0.2631 0.0
H525 H 0.36511 0.31285 0.23312 0.0
C526 C 0.38972 0.44865 0.18282 0.0
N527 N 0.37094 0.42685 0.17997 0.0
N528 N 0.3654 0.41558 0.20355 0.0
C529 C 0.38149 0.42946 0.22197 0.0
C530 C 0.39745 0.45087 0.20942 0.0
C531 C 0.40438 0.4634 0.16003 0.0
H532 H 0.38897 0.46673 0.14343 0.0
H533 H 0.42243 0.44978 0.15292 0.0
H534 H 0.41332 0.48448 0.1664 0.0
O535 O 0.32246 0.39443 0.14594 0.0
O536 O 0.3066 0.38007 0.18557 0.0
H537 H 0.36504 0.42027 0.26079 0.0
H538 H 0.40206 0.43205 0.26067 0.0
C539 C 0.38576 0.419 0.2499 0.0
H540 H 0.39273 0.39616 0.24955 0.0
H541 H 0.3073 0.40019 0.25253 0.0
O542 O 0.37414 0.42257 0.11459 0.0
C543 C 0.30233 0.38532 0.16087 0.0
C544 C 0.08033 0.06297 0.44492 0.0
C545 C 0.08098 0.09083 0.43414 0.0
C546 C 0.07822 0.05863 0.4726 0.0
C547 C 0.07764 0.08274 0.48987 0.0
C548 C 0.07726 0.11089 0.47899 0.0
C549 C 0.07854 0.11457 0.45125 0.0
C550 C 0.07771 0.02829 0.48338 0.0
C551 C 0.07721 0.13721 0.49668 0.0
C552 C 0.05814 0.07994 0.56346 0.0
C553 C 0.08547 0.07968 0.57538 0.0
C554 C 0.05512 0.07909 0.53557 0.0
C555 C 0.08003 0.07887 0.51929 0.0
C556 C 0.10762 0.07746 0.53128 0.0
C557 C 0.10997 0.07748 0.55916 0.0
C558 C 0.02532 0.07963 0.52356 0.0
C559 C 0.13478 0.07774 0.5147 0.0
H560 H 0.08199 0.04455 0.43175 0.0
H561 H 0.07921 0.13617 0.44306 0.0
H562 H 0.0985 0.02347 0.49332 0.0
H563 H 0.06049 0.02594 0.49856 0.0
H564 H 0.0742 0.01212 0.46739 0.0
H565 H 0.07576 0.15755 0.48508 0.0
H566 H 0.05886 0.13636 0.5108 0.0
H567 H 0.09726 0.13771 0.50872 0.0
H568 H 0.03913 0.08145 0.57592 0.0
H569 H 0.13118 0.07746 0.56821 0.0
H570 H 0.02345 0.06328 0.50753 0.0
H571 H 0.02127 0.101 0.5144 0.0
H572 H 0.00834 0.07554 0.5387 0.0
H573 H 0.13429 0.06014 0.49979 0.0
H574 H 0.15451 0.07532 0.52705 0.0
H575 H 0.13623 0.09835 0.50357 0.0
C576 C 0.92595 0.62099 0.81245 0.0
C577 C 0.92662 0.59701 0.82942 0.0
C578 C 0.92748 0.6177 0.78471 0.0
C579 C 0.93063 0.58981 0.77368 0.0
C580 C 0.93323 0.56569 0.7908 0.0
C581 C 0.93069 0.56952 0.8185 0.0
C582 C 0.92401 0.64396 0.7672 0.0
C583 C 0.93762 0.53576 0.77982 0.0
C584 C 0.8989 0.58211 0.70445 0.0
C585 C 0.92278 0.58825 0.68834 0.0
C586 C 0.90142 0.58135 0.73231 0.0
C587 C 0.92867 0.58599 0.74428 0.0
C588 C 0.95324 0.59002 0.72799 0.0
C589 C 0.94992 0.5916 0.70018 0.0
C590 C 0.87455 0.57758 0.74892 0.0
C591 C 0.98279 0.59403 0.73996 0.0
H592 H 0.9226 0.64227 0.82075 0.0
H593 H 0.93141 0.55095 0.83159 0.0
H594 H 0.9424 0.64576 0.7532 0.0
H595 H 0.90415 0.64183 0.75503 0.0
H596 H 0.92258 0.66419 0.77894 0.0
H597 H 0.94345 0.52009 0.79567 0.0
H598 H 0.91754 0.52828 0.77006 0.0
H599 H 0.95482 0.53579 0.76446 0.0
H600 H 0.87783 0.57968 0.69541 0.0
H601 H 0.96847 0.59612 0.68773 0.0
H602 H 0.87028 0.59764 0.76029 0.0
H603 H 0.87753 0.56001 0.76363 0.0
H604 H 0.85532 0.57264 0.73656 0.0
H605 H 0.98425 0.61564 0.74927 0.0
H606 H 8e-05 0.5922 0.72473 0.0
H607 H 0.98672 0.57785 0.75583 0.0
C608 C 0.37918 0.4232 0.05803 0.0
C609 C 0.40303 0.42298 0.07519 0.0
C610 C 0.38277 0.4222 0.03027 0.0
C611 C 0.41091 0.42169 0.01936 0.0
C612 C 0.43505 0.42348 0.03653 0.0
C613 C 0.43083 0.42371 0.06429 0.0
C614 C 0.35643 0.41988 0.01272 0.0
C615 C 0.46536 0.42388 0.02566 0.0
C616 C 0.41743 0.38312 0.95294 0.0
C617 C 0.4149 0.40595 0.9348 0.0
C618 C 0.41707 0.38807 0.98054 0.0
C619 C 0.41485 0.41662 0.99025 0.0
C620 C 0.41413 0.4399 0.97202 0.0
C621 C 0.41377 0.43426 0.94449 0.0
C622 C 0.41743 0.36258 0.99926 0.0
C623 C 0.41261 0.47067 0.98159 0.0
H624 H 0.35762 0.42247 0.0663 0.0
H625 H 0.44935 0.42374 0.07746 0.0
H626 H 0.35687 0.43669 0.99702 0.0
H627 H 0.35636 0.39866 1.00253 0.0
H628 H 0.33608 0.42207 0.02419 0.0
H629 H 0.48144 0.42945 0.04123 0.0
H630 H 0.47081 0.40237 0.0175 0.0
H631 H 0.46717 0.43961 0.00908 0.0
H632 H 0.41815 0.36117 0.94562 0.0
H633 H 0.41202 0.45202 0.93054 0.0
H634 H 0.39684 0.36166 0.01046 0.0
H635 H 0.43499 0.36494 0.01408 0.0
H636 H 0.4204 0.34184 0.98857 0.0
H637 H 0.39116 0.47485 0.99051 0.0
H638 H 0.41608 0.48631 0.96513 0.0
H639 H 0.42896 0.47457 0.99732 0.0
C640 C 0.58446 0.9409 0.31395 0.0
C641 C 0.58266 0.91348 0.32554 0.0
C642 C 0.58442 0.9443 0.28609 0.0
C643 C 0.58353 0.91962 0.26952 0.0
C644 C 0.58078 0.89197 0.28117 0.0
C645 C 0.57994 0.88929 0.30901 0.0
C646 C 0.58634 0.97419 0.27441 0.0
C647 C 0.58036 0.86502 0.26431 0.0
C648 C 0.56834 0.91997 0.19509 0.0
C649 C 0.59625 0.91824 0.18456 0.0
C650 C 0.56384 0.92245 0.22271 0.0
C651 C 0.5878 0.92218 0.24018 0.0
C652 C 0.61606 0.92152 0.22953 0.0
C653 C 0.61993 0.91999 0.20182 0.0
C654 C 0.53343 0.92413 0.23322 0.0
C655 C 0.64221 0.92057 0.24743 0.0
H656 H 0.58639 0.95968 0.32667 0.0
H657 H 0.57876 0.86801 0.31782 0.0
H658 H 0.60796 0.97746 0.26551 0.0
H659 H 0.57027 0.97692 0.25822 0.0
H660 H 0.58276 0.99114 0.28968 0.0
H661 H 0.5773 0.84523 0.27643 0.0
H662 H 0.56284 0.86623 0.24933 0.0
H663 H 0.60098 0.86309 0.25325 0.0
H664 H 0.54998 0.91885 0.18176 0.0
H665 H 0.64155 0.91846 0.19379 0.0
H666 H 0.53163 0.94127 0.24855 0.0
H667 H 0.52763 0.90346 0.24291 0.0
H668 H 0.51758 0.9285 0.21712 0.0
H669 H 0.6418 0.93877 0.26173 0.0
H670 H 0.66268 0.92149 0.23601 0.0
H671 H 0.64197 0.90037 0.25927 0.0
C672 C 0.06075 0.41907 0.69252 0.0
C673 C 0.08873 0.4195 0.682 0.0
C674 C 0.05609 0.41993 0.7202 0.0
C675 C 0.08002 0.42033 0.73771 0.0
C676 C 0.10826 0.4219 0.72713 0.0
C677 C 0.11224 0.42186 0.6994 0.0
C678 C 0.02564 0.41919 0.73069 0.0
C679 C 0.13441 0.42182 0.74506 0.0
C680 C 0.07532 0.43621 0.81196 0.0
C681 C 0.07536 0.40835 0.82275 0.0
C682 C 0.07513 0.44054 0.78422 0.0
C683 C 0.07589 0.41644 0.76695 0.0
C684 C 0.07495 0.38828 0.77779 0.0
C685 C 0.07429 0.3846 0.80554 0.0
C686 C 0.07516 0.47088 0.77342 0.0
C687 C 0.07627 0.36196 0.76013 0.0
H688 H 0.0425 0.41745 0.67913 0.0
H689 H 0.13393 0.42201 0.69139 0.0
H690 H 0.02123 0.39783 0.7397 0.0
H691 H 0.0227 0.43558 0.74656 0.0
H692 H 0.00954 0.42311 0.71471 0.0
H693 H 0.1548 0.4245 0.73374 0.0
H694 H 0.13285 0.43935 0.75999 0.0
H695 H 0.13542 0.40118 0.75618 0.0
H696 H 0.07595 0.45463 0.82521 0.0
H697 H 0.07452 0.363 0.81375 0.0
H698 H 0.05887 0.47317 0.75736 0.0
H699 H 0.09649 0.47578 0.76457 0.0
H700 H 0.07061 0.48705 0.78919 0.0
H701 H 0.0588 0.36263 0.74507 0.0
H702 H 0.07434 0.34161 0.77164 0.0
H703 H 0.09703 0.36167 0.74916 0.0
C704 C 0.58907 0.54379 0.94503 0.0
C705 C 0.58639 0.57168 0.93457 0.0
C706 C 0.58881 0.53901 0.97272 0.0
C707 C 0.58662 0.56279 0.99027 0.0
C708 C 0.58275 0.59083 0.97976 0.0
C709 C 0.5823 0.59487 0.95206 0.0
C710 C 0.59205 0.50871 0.98316 0.0
C711 C 0.58075 0.61686 0.99774 0.0
C712 C 0.5708 0.55834 0.06441 0.0
C713 C 0.59845 0.56146 0.07528 0.0
C714 C 0.5667 0.55666 0.03669 0.0
C715 C 0.59076 0.55899 0.0195 0.0
C716 C 0.61884 0.56074 0.03045 0.0
C717 C 0.62236 0.56157 0.05822 0.0
C718 C 0.53652 0.55384 0.02582 0.0
C719 C 0.64507 0.56373 0.01285 0.0
H720 H 0.59203 0.52575 0.9316 0.0
H721 H 0.58035 0.61651 0.94415 0.0
H722 H 0.61378 0.50599 0.99202 0.0
H723 H 0.57607 0.50446 0.99913 0.0
H724 H 0.58931 0.49238 0.96718 0.0
H725 H 0.57671 0.63704 0.98644 0.0
H726 H 0.56322 0.61398 0.0125 0.0
H727 H 0.60116 0.61933 0.00905 0.0
H728 H 0.55226 0.558 0.07755 0.0
H729 H 0.64379 0.56412 0.06648 0.0
H730 H 0.53579 0.53751 0.0097 0.0
H731 H 0.52962 0.57468 0.01709 0.0
H732 H 0.52084 0.54771 0.04156 0.0
H733 H 0.64557 0.54631 0.99775 0.0
H734 H 0.66547 0.56308 0.02441 0.0
H735 H 0.64405 0.5845 1.00194 0.0
C736 C 0.42981 0.07133 0.32076 0.0
C737 C 0.42712 0.09909 0.33143 0.0
C738 C 0.43241 0.0671 0.29311 0.0
C739 C 0.43127 0.09115 0.27577 0.0
C740 C 0.42943 0.11928 0.28656 0.0
C741 C 0.42783 0.12291 0.31427 0.0
C742 C 0.43538 0.03687 0.28241 0.0
C743 C 0.42751 0.1455 0.2688 0.0
C744 C 0.45181 0.09066 0.2025 0.0
C745 C 0.42475 0.08825 0.19031 0.0
C746 C 0.45457 0.0896 0.23038 0.0
C747 C 0.42956 0.08711 0.24637 0.0
C748 C 0.40232 0.08356 0.23407 0.0
C749 C 0.40032 0.08372 0.20617 0.0
C750 C 0.48409 0.09239 0.24272 0.0
C751 C 0.37502 0.08151 0.25034 0.0
H752 H 0.42947 0.05288 0.334 0.0
H753 H 0.42553 0.14442 0.32239 0.0
H754 H 0.41514 0.03043 0.27231 0.0
H755 H 0.45289 0.03584 0.26738 0.0
H756 H 0.44 0.02104 0.29847 0.0
H757 H 0.42696 0.16589 0.28036 0.0
H758 H 0.44613 0.14623 0.25499 0.0
H759 H 0.40772 0.14425 0.25644 0.0
H760 H 0.47076 0.09397 0.19024 0.0
H761 H 0.37932 0.08208 0.19684 0.0
H762 H 0.48702 0.07619 0.25877 0.0
H763 H 0.48638 0.11398 0.25192 0.0
H764 H 0.50152 0.08964 0.22776 0.0
H765 H 0.37679 0.06397 0.26525 0.0
H766 H 0.35573 0.0775 0.23777 0.0
H767 H 0.37171 0.1019 0.26147 0.0
C768 C 0.9235 0.88255 0.45577 0.0
C769 C 0.92301 0.90498 0.43708 0.0
C770 C 0.92303 0.88832 0.48322 0.0
C771 C 0.92285 0.91724 0.49221 0.0
C772 C 0.92429 0.93996 0.47343 0.0
C773 C 0.92392 0.93357 0.44604 0.0
C774 C 0.92102 0.86343 0.50254 0.0
C775 C 0.92507 0.97103 0.48222 0.0
C776 C 0.88591 0.92831 0.55883 0.0
C777 C 0.90915 0.92649 0.57661 0.0
C778 C 0.89022 0.92643 0.5312 0.0
C779 C 0.91853 0.92343 0.52106 0.0
C780 C 0.94224 0.92372 0.53882 0.0
C781 C 0.93725 0.92483 0.56644 0.0
C782 C 0.86428 0.92576 0.51301 0.0
C783 C 0.97279 0.9215 0.52874 0.0
H784 H 0.92263 0.86041 0.44897 0.0
H785 H 0.92378 0.95098 0.43164 0.0
H786 H 0.93838 0.86487 0.51767 0.0
H787 H 0.90017 0.86442 0.51332 0.0
H788 H 0.9226 0.84223 0.4924 0.0
H789 H 0.93032 0.98581 0.4655 0.0
H790 H 0.90378 0.97723 0.49044 0.0
H791 H 0.94121 0.97404 0.49831 0.0
H792 H 0.86413 0.92944 0.56652 0.0
H793 H 0.9553 0.92362 0.58011 0.0
H794 H 0.86282 0.90438 0.50323 0.0
H795 H 0.86649 0.9421 0.49703 0.0
H796 H 0.84385 0.92983 0.52391 0.0
H797 H 0.97686 0.89936 0.52138 0.0
H798 H 0.98878 0.92643 0.54458 0.0
H799 H 0.97624 0.93644 0.51177 0.0
C800 C 0.293 0.10623 0.14662 0.0
C801 C 0.29372 0.11144 0.119 0.0
C802 C 0.26842 0.11211 0.16189 0.0
C803 C 0.24344 0.1231 0.14935 0.0
C804 C 0.24338 0.12712 0.12129 0.0
C805 C 0.26858 0.12141 0.10644 0.0
C806 C 0.26967 0.10765 0.19173 0.0
C807 C 0.21699 0.1383 0.10711 0.0
C808 C 0.17672 0.11831 0.1933 0.0
C809 C 0.17625 0.14573 0.20494 0.0
C810 C 0.19742 0.11109 0.17392 0.0
C811 C 0.21827 0.13175 0.16615 0.0
C812 C 0.21697 0.15991 0.17702 0.0
C813 C 0.19581 0.16661 0.19609 0.0
C814 C 0.19765 0.08103 0.16251 0.0
C815 C 0.23888 0.18254 0.16959 0.0
H816 H 0.31211 0.09837 0.15669 0.0
H817 H 0.26881 0.1255 0.08517 0.0
H818 H 0.26666 0.12857 0.20205 0.0
H819 H 0.25198 0.09323 0.19824 0.0
H820 H 0.29046 0.09819 0.19833 0.0
H821 H 0.21925 0.1372 0.08509 0.0
H822 H 0.19769 0.12581 0.11314 0.0
H823 H 0.21316 0.16104 0.11286 0.0
H824 H 0.16104 0.1024 0.19958 0.0
H825 H 0.19529 0.18791 0.20492 0.0
H826 H 0.21674 0.06919 0.17005 0.0
H827 H 0.19937 0.08182 0.14046 0.0
H828 H 0.17801 0.06872 0.16799 0.0
H829 H 0.26043 0.17598 0.177 0.0
H830 H 0.23355 0.20396 0.17812 0.0
H831 H 0.24041 0.18459 0.14761 0.0
C832 C 0.85891 0.65643 0.43189 0.0
C833 C 0.85455 0.66752 0.45756 0.0
C834 C 0.86612 0.6747 0.41046 0.0
C835 C 0.86807 0.70482 0.41469 0.0
C836 C 0.8628 0.71608 0.44052 0.0
C837 C 0.85648 0.69727 0.46166 0.0
C838 C 0.87231 0.66176 0.38348 0.0
C839 C 0.8639 0.74806 0.44591 0.0
C840 C 0.91189 0.75758 0.37355 0.0
C841 C 0.89042 0.77146 0.35868 0.0
C842 C 0.9053 0.73402 0.39006 0.0
C843 C 0.87632 0.72483 0.39257 0.0
C844 C 0.85487 0.73764 0.37628 0.0
C845 C 0.86228 0.76059 0.35924 0.0
C846 C 0.92904 0.72044 0.40633 0.0
C847 C 0.82363 0.72906 0.37868 0.0
H848 H 0.85743 0.63338 0.42876 0.0
H849 H 0.85266 0.70588 0.48144 0.0
H850 H 0.858 0.67138 0.36818 0.0
H851 H 0.8948 0.66674 0.37757 0.0
H852 H 0.86938 0.63802 0.38332 0.0
H853 H 0.85753 0.75344 0.46666 0.0
H854 H 0.88604 0.75622 0.44246 0.0
H855 H 0.84938 0.75964 0.43197 0.0
H856 H 0.93362 0.76614 0.37332 0.0
H857 H 0.84552 0.77169 0.34822 0.0
H858 H 0.92717 0.69662 0.40604 0.0
H859 H 0.92718 0.72751 0.42738 0.0
H860 H 0.95073 0.72658 0.39889 0.0
H861 H 0.82132 0.7053 0.37872 0.0
H862 H 0.81035 0.73807 0.36225 0.0
H863 H 0.81496 0.73711 0.39791 0.0
C864 C 0.29813 0.34101 0.70705 0.0
C865 C 0.32762 0.3466 0.70442 0.0
C866 C 0.27874 0.34777 0.68647 0.0
C867 C 0.28902 0.36089 0.66278 0.0
C868 C 0.31895 0.36603 0.65982 0.0
C869 C 0.33796 0.35847 0.68057 0.0
C870 C 0.24713 0.34136 0.69033 0.0
C871 C 0.33074 0.3804 0.63515 0.0
C872 C 0.2364 0.35978 0.60437 0.0
C873 C 0.22126 0.38552 0.60852 0.0
C874 C 0.25952 0.35197 0.62108 0.0
C875 C 0.26804 0.37065 0.64202 0.0
C876 C 0.25423 0.39769 0.64481 0.0
C877 C 0.2308 0.4046 0.62829 0.0
C878 C 0.2733 0.32278 0.61762 0.0
C879 C 0.263 0.41861 0.66637 0.0
H880 H 0.29022 0.33138 0.72533 0.0
H881 H 0.36081 0.36274 0.67854 0.0
H882 H 0.23478 0.3618 0.69105 0.0
H883 H 0.2388 0.32869 0.67324 0.0
H884 H 0.24293 0.3292 0.70901 0.0
H885 H 0.35465 0.38139 0.63522 0.0
H886 H 0.32359 0.36874 0.61702 0.0
H887 H 0.32218 0.40266 0.63374 0.0
H888 H 0.22882 0.34477 0.58938 0.0
H889 H 0.21913 0.42451 0.63157 0.0
H890 H 0.26669 0.30855 0.63432 0.0
H891 H 0.29711 0.32451 0.61825 0.0
H892 H 0.2669 0.3124 0.59857 0.0
H893 H 0.25654 0.41 0.68612 0.0
H894 H 0.2528 0.44006 0.6637 0.0
H895 H 0.28673 0.42136 0.66662 0.0
C896 C 0.66949 0.79975 0.9488 0.0
C897 C 0.65044 0.82204 0.95533 0.0
C898 C 0.66235 0.77919 0.92934 0.0
C899 C 0.63572 0.78131 0.91563 0.0
C900 C 0.61709 0.80475 0.92118 0.0
C901 C 0.6246 0.82475 0.94111 0.0
C902 C 0.68272 0.7544 0.9244 0.0
C903 C 0.58883 0.80819 0.90667 0.0
C904 C 0.62804 0.7314 0.85538 0.0
C905 C 0.61402 0.70764 0.86683 0.0
C906 C 0.63405 0.75627 0.87059 0.0
C907 C 0.62616 0.75723 0.89792 0.0
C908 C 0.61081 0.73388 0.90912 0.0
C909 C 0.60475 0.70964 0.89347 0.0
C910 C 0.64991 0.78098 0.85774 0.0
C911 C 0.60209 0.73375 0.93816 0.0
H912 H 0.68958 0.79776 0.95968 0.0
H913 H 0.61022 0.84247 0.94564 0.0
H914 H 0.67239 0.73396 0.93071 0.0
H915 H 0.68756 0.75252 0.90282 0.0
H916 H 0.70332 0.75684 0.93544 0.0
H917 H 0.5785 0.82928 0.9109 0.0
H918 H 0.59211 0.80615 0.88484 0.0
H919 H 0.57382 0.79083 0.91281 0.0
H920 H 0.63526 0.73018 0.83486 0.0
H921 H 0.59363 0.69165 0.9026 0.0
H922 H 0.67223 0.7819 0.86559 0.0
H923 H 0.63937 0.80174 0.86271 0.0
H924 H 0.65093 0.77875 0.83571 0.0
H925 H 0.62163 0.73411 0.95091 0.0
H926 H 0.58912 0.71451 0.94352 0.0
H927 H 0.58938 0.7533 0.94294 0.0
C928 C 0.16217 0.33501 0.07756 0.0
C929 C 0.15964 0.35464 0.05644 0.0
C930 C 0.18247 0.33931 0.09807 0.0
C931 C 0.20044 0.36398 0.09757 0.0
C932 C 0.1967 0.38467 0.07708 0.0
C933 C 0.1763 0.37981 0.05688 0.0
C934 C 0.18567 0.31673 0.11951 0.0
C935 C 0.21517 0.41139 0.07579 0.0
C936 C 0.24813 0.38656 0.1563 0.0
C937 C 0.27514 0.37705 0.14749 0.0
C938 C 0.22321 0.38168 0.14075 0.0
C939 C 0.22548 0.36656 0.11621 0.0
C940 C 0.25256 0.35559 0.10819 0.0
C941 C 0.27697 0.36121 0.12376 0.0
C942 C 0.19479 0.39389 0.14989 0.0
C943 C 0.25608 0.33895 0.08252 0.0
H944 H 0.14902 0.31573 0.07753 0.0
H945 H 0.17364 0.39563 0.04119 0.0
H946 H 0.20634 0.30512 0.11673 0.0
H947 H 0.18631 0.32691 0.1395 0.0
H948 H 0.16786 0.30077 0.11906 0.0
H949 H 0.20777 0.42665 0.06015 0.0
H950 H 0.21511 0.42264 0.09529 0.0
H951 H 0.23778 0.40525 0.07139 0.0
H952 H 0.24673 0.39895 0.17456 0.0
H953 H 0.29784 0.3536 0.11704 0.0
H954 H 0.17765 0.37731 0.14868 0.0
H955 H 0.18841 0.41184 0.13653 0.0
H956 H 0.19587 0.40217 0.17064 0.0
H957 H 0.24033 0.32102 0.08162 0.0
H958 H 0.27809 0.32989 0.08027 0.0
H959 H 0.25172 0.35331 0.0653 0.0
C960 C 0.58286 0.773 0.38068 0.0
C961 C 0.60331 0.78073 0.39999 0.0
C962 C 0.58758 0.74973 0.36335 0.0
C963 C 0.61377 0.73417 0.36483 0.0
C964 C 0.6338 0.74084 0.38531 0.0
C965 C 0.62818 0.7639 0.40284 0.0
C966 C 0.56529 0.743 0.34234 0.0
C967 C 0.66214 0.7251 0.38743 0.0
C968 C 0.6205 0.66409 0.32549 0.0
C969 C 0.63281 0.6737 0.30155 0.0
C970 C 0.61428 0.68341 0.34634 0.0
C971 C 0.6212 0.71296 0.34344 0.0
C972 C 0.63434 0.72259 0.3195 0.0
C973 C 0.63983 0.70288 0.29883 0.0
C974 C 0.59984 0.67231 0.37126 0.0
C975 C 0.64254 0.75377 0.31569 0.0
H976 H 0.56366 0.78607 0.37834 0.0
H977 H 0.64428 0.77012 0.41739 0.0
H978 H 0.57355 0.74942 0.32245 0.0
H979 H 0.56093 0.71952 0.34167 0.0
H980 H 0.54468 0.75453 0.34596 0.0
H981 H 0.67383 0.73048 0.4061 0.0
H982 H 0.65875 0.70148 0.38664 0.0
H983 H 0.67597 0.73098 0.37023 0.0
H984 H 0.61523 0.64147 0.32769 0.0
H985 H 0.65003 0.71022 0.28061 0.0
H986 H 0.57867 0.68304 0.37384 0.0
H987 H 0.61303 0.6776 0.38903 0.0
H988 H 0.5964 0.64865 0.37066 0.0
H989 H 0.62295 0.76745 0.31619 0.0
H990 H 0.65385 0.75753 0.29648 0.0
H991 H 0.65673 0.76092 0.33222 0.0
C992 C 0.21642 0.11105 0.61917 0.0
C993 C 0.21522 0.11558 0.6469 0.0
C994 C 0.24084 0.11823 0.60421 0.0
C995 C 0.26534 0.12965 0.61716 0.0
C996 C 0.26502 0.13302 0.6453 0.0
C997 C 0.23983 0.12624 0.65984 0.0
C998 C 0.23989 0.11458 0.57425 0.0
C999 C 0.291 0.14444 0.65991 0.0
C1000 C 0.33123 0.12639 0.57223 0.0
C1001 C 0.331 0.15393 0.56082 0.0
C1002 C 0.31133 0.11878 0.59218 0.0
C1003 C 0.29044 0.1391 0.60063 0.0
C1004 C 0.29117 0.16742 0.59006 0.0
C1005 C 0.31165 0.17456 0.57049 0.0
C1006 C 0.31179 0.08858 0.60328 0.0
C1007 C 0.26913 0.18968 0.59812 0.0
H1008 H 0.19774 0.10278 0.60873 0.0
H1009 H 0.23925 0.1298 0.68119 0.0
H1010 H 0.24291 0.13577 0.56441 0.0
H1011 H 0.25769 0.10038 0.56758 0.0
H1012 H 0.21921 0.10523 0.56725 0.0
H1013 H 0.28858 0.14272 0.68189 0.0
H1014 H 0.31063 0.13255 0.65376 0.0
H1015 H 0.29435 0.16741 0.65469 0.0
H1016 H 0.34673 0.11064 0.56523 0.0
H1017 H 0.31167 0.19595 0.56183 0.0
H1018 H 0.29315 0.07632 0.59537 0.0
H1019 H 0.30978 0.089 0.62532 0.0
H1020 H 0.33183 0.07691 0.59785 0.0
H1021 H 0.24763 0.18323 0.59051 0.0
H1022 H 0.27433 0.21139 0.59015 0.0
H1023 H 0.26756 0.19103 0.62014 0.0
C1024 C 0.86736 0.72064 0.8695 0.0
C1025 C 0.87426 0.72333 0.89668 0.0
C1026 C 0.86063 0.74461 0.85378 0.0
C1027 C 0.86102 0.77242 0.86523 0.0
C1028 C 0.86738 0.77544 0.89282 0.0
C1029 C 0.87369 0.75077 0.90834 0.0
C1030 C 0.85353 0.74008 0.82465 0.0
C1031 C 0.86819 0.80475 0.90571 0.0
C1032 C 0.87251 0.82939 0.81189 0.0
C1033 C 0.84411 0.83716 0.80567 0.0
C1034 C 0.87852 0.80982 0.83257 0.0
C1035 C 0.8556 0.7979 0.84764 0.0
C1036 C 0.82705 0.80732 0.84264 0.0
C1037 C 0.82167 0.82693 0.8218 0.0
C1038 C 0.9093 0.80065 0.83725 0.0
C1039 C 0.80194 0.79529 0.85816 0.0
H1040 H 0.86715 0.6995 0.86034 0.0
H1041 H 0.87894 0.75302 0.92929 0.0
H1042 H 0.83221 0.74961 0.81996 0.0
H1043 H 0.86973 0.75114 0.81202 0.0
H1044 H 0.85312 0.71694 0.81907 0.0
H1045 H 0.87152 0.80342 0.92761 0.0
H1046 H 0.88594 0.81762 0.89692 0.0
H1047 H 0.84785 0.81653 0.90173 0.0
H1048 H 0.89005 0.83818 0.80019 0.0
H1049 H 0.79972 0.83329 0.81737 0.0
H1050 H 0.91219 0.7781 0.83043 0.0
H1051 H 0.9145 0.80127 0.85883 0.0
H1052 H 0.92488 0.81448 0.82637 0.0
H1053 H 0.79811 0.77266 0.85203 0.0
H1054 H 0.78186 0.80777 0.8547 0.0
H1055 H 0.80671 0.79518 0.87983 0.0
C1056 C 0.67373 0.61727 0.69444 0.0
C1057 C 0.67556 0.64325 0.70855 0.0
C1058 C 0.69381 0.61043 0.67439 0.0
C1059 C 0.7164 0.62995 0.66848 0.0
C1060 C 0.71754 0.65675 0.68199 0.0
C1061 C 0.69695 0.66316 0.70167 0.0
C1062 C 0.69144 0.5819 0.66017 0.0
C1063 C 0.74135 0.67811 0.6766 0.0
C1064 C 0.78888 0.60146 0.64549 0.0
C1065 C 0.78987 0.61012 0.61863 0.0
C1066 C 0.76478 0.60698 0.66153 0.0
C1067 C 0.74061 0.62123 0.65053 0.0
C1068 C 0.74066 0.62859 0.62306 0.0
C1069 C 0.76535 0.62306 0.60743 0.0
C1070 C 0.76584 0.59877 0.69068 0.0
C1071 C 0.71513 0.64338 0.61046 0.0
H1072 H 0.65666 0.60221 0.69921 0.0
H1073 H 0.69824 0.68336 0.71244 0.0
H1074 H 0.69298 0.58505 0.63828 0.0
H1075 H 0.70958 0.56777 0.66619 0.0
H1076 H 0.67092 0.57067 0.66478 0.0
H1077 H 0.73807 0.69874 0.68738 0.0
H1078 H 0.76229 0.66879 0.6829 0.0
H1079 H 0.74286 0.68268 0.65494 0.0
H1080 H 0.8075 0.59119 0.65442 0.0
H1081 H 0.76582 0.62986 0.58676 0.0
H1082 H 0.74694 0.58534 0.69596 0.0
H1083 H 0.76489 0.61848 0.70316 0.0
H1084 H 0.78573 0.58671 0.6959 0.0
H1085 H 0.6949 0.63201 0.61573 0.0
H1086 H 0.71698 0.64441 0.5884 0.0
H1087 H 0.71338 0.66565 0.61827 0.0
C1088 C 0.36169 0.15548 0.93241 0.0
C1089 C 0.3568 0.1663 0.95809 0.0
C1090 C 0.36768 0.17413 0.91093 0.0
C1091 C 0.36782 0.20432 0.91513 0.0
C1092 C 0.36203 0.21526 0.94098 0.0
C1093 C 0.35698 0.19612 0.96216 0.0
C1094 C 0.37451 0.16155 0.88394 0.0
C1095 C 0.3612 0.24726 0.94632 0.0
C1096 C 0.40822 0.25921 0.87331 0.0
C1097 C 0.38594 0.27152 0.85829 0.0
C1098 C 0.40309 0.23559 0.89019 0.0
C1099 C 0.37472 0.22474 0.89293 0.0
C1100 C 0.35246 0.23608 0.87662 0.0
C1101 C 0.35845 0.25912 0.85921 0.0
C1102 C 0.42767 0.22364 0.90649 0.0
C1103 C 0.3218 0.22572 0.87929 0.0
H1104 H 0.36156 0.13238 0.92929 0.0
H1105 H 0.35275 0.2045 0.98195 0.0
H1106 H 0.35947 0.17016 0.86872 0.0
H1107 H 0.39657 0.16799 0.87786 0.0
H1108 H 0.37316 0.13766 0.88384 0.0
H1109 H 0.35463 0.25227 0.96711 0.0
H1110 H 0.38278 0.25675 0.94276 0.0
H1111 H 0.34593 0.25791 0.93244 0.0
H1112 H 0.42943 0.26897 0.87281 0.0
H1113 H 0.34106 0.26904 0.84807 0.0
H1114 H 0.42731 0.19975 0.9063 0.0
H1115 H 0.42539 0.23067 0.92751 0.0
H1116 H 0.44892 0.23109 0.89899 0.0
H1117 H 0.32087 0.20186 0.87932 0.0
H1118 H 0.30783 0.23396 0.86299 0.0
H1119 H 0.31288 0.23323 0.8986 0.0
C1120 C 0.83752 0.84019 0.18181 0.0
C1121 C 0.83069 0.8483 0.20809 0.0
C1122 C 0.81851 0.84557 0.1605 0.0
C1123 C 0.79155 0.85871 0.16555 0.0
C1124 C 0.78445 0.8669 0.19194 0.0
C1125 C 0.80435 0.86236 0.21263 0.0
C1126 C 0.82741 0.83752 0.13254 0.0
C1127 C 0.75573 0.88055 0.1984 0.0
C1128 C 0.74534 0.89738 0.11398 0.0
C1129 C 0.7247 0.87635 0.10815 0.0
C1130 C 0.76863 0.89122 0.13105 0.0
C1131 C 0.77047 0.86382 0.14348 0.0
C1132 C 0.75016 0.84223 0.13677 0.0
C1133 C 0.72773 0.8487 0.11893 0.0
C1134 C 0.79034 0.91455 0.1369 0.0
C1135 C 0.75064 0.81307 0.15008 0.0
H1136 H 0.85797 0.82981 0.17778 0.0
H1137 H 0.79925 0.87058 0.23217 0.0
H1138 H 0.81225 0.82139 0.12424 0.0
H1139 H 0.82642 0.85676 0.11944 0.0
H1140 H 0.84955 0.82848 0.13177 0.0
H1141 H 0.75264 0.88367 0.22017 0.0
H1142 H 0.75401 0.9018 0.18846 0.0
H1143 H 0.73792 0.86691 0.19076 0.0
H1144 H 0.74264 0.91892 0.10602 0.0
H1145 H 0.71126 0.8327 0.11493 0.0
H1146 H 0.81255 0.90573 0.13645 0.0
H1147 H 0.78655 0.92328 0.15718 0.0
H1148 H 0.78884 0.93259 0.12242 0.0
H1149 H 0.73482 0.79796 0.14111 0.0
H1150 H 0.74549 0.81559 0.17156 0.0
H1151 H 0.77239 0.80333 0.14875 0.0
C1152 C 0.14281 0.23457 0.35549 0.0
C1153 C 0.11542 0.22193 0.35629 0.0
C1154 C 0.14977 0.25784 0.37229 0.0
C1155 C 0.12856 0.26918 0.38972 0.0
C1156 C 0.10016 0.25805 0.38877 0.0
C1157 C 0.0941 0.23421 0.37246 0.0
C1158 C 0.18046 0.2685 0.37306 0.0
C1159 C 0.07663 0.27001 0.40632 0.0
C1160 C 0.15059 0.29903 0.45737 0.0
C1161 C 0.15011 0.32877 0.45287 0.0
C1162 C 0.14438 0.27951 0.43678 0.0
C1163 C 0.13674 0.28999 0.41118 0.0
C1164 C 0.13624 0.32011 0.40655 0.0
C1165 C 0.14341 0.33915 0.42739 0.0
C1166 C 0.14591 0.24761 0.44251 0.0
C1167 C 0.12746 0.33218 0.37983 0.0
H1168 H 0.15949 0.22473 0.34341 0.0
H1169 H 0.07295 0.22433 0.37322 0.0
H1170 H 0.18115 0.29236 0.37268 0.0
H1171 H 0.19072 0.26142 0.39195 0.0
H1172 H 0.1934 0.2601 0.35613 0.0
H1173 H 0.05499 0.26222 0.40021 0.0
H1174 H 0.08044 0.26335 0.42727 0.0
H1175 H 0.07671 0.2939 0.40578 0.0
H1176 H 0.15616 0.29103 0.47702 0.0
H1177 H 0.14302 0.3622 0.42397 0.0
H1178 H 0.16029 0.23688 0.42789 0.0
H1179 H 0.12423 0.23786 0.44037 0.0
H1180 H 0.15398 0.243 0.46292 0.0
H1181 H 0.1415 0.32343 0.36389 0.0
H1182 H 0.12861 0.35607 0.3793 0.0
H1183 H 0.10509 0.32548 0.37515 0.0
C1184 C 0.68759 0.83357 0.56275 0.0
C1185 C 0.66395 0.85107 0.55663 0.0
C1186 C 0.7074 0.84158 0.58262 0.0
C1187 C 0.70302 0.86737 0.59722 0.0
C1188 C 0.67815 0.88422 0.59211 0.0
C1189 C 0.65909 0.87605 0.57162 0.0
C1190 C 0.73386 0.82326 0.58692 0.0
C1191 C 0.6722 0.91139 0.60763 0.0
C1192 C 0.75281 0.87718 0.6574 0.0
C1193 C 0.77496 0.89389 0.6463 0.0
C1194 C 0.72836 0.86955 0.64218 0.0
C1195 C 0.72631 0.87841 0.61515 0.0
C1196 C 0.7479 0.89645 0.60437 0.0
C1197 C 0.7716 0.90421 0.6201 0.0
C1198 C 0.70537 0.85099 0.65466 0.0
C1199 C 0.74693 0.90623 0.57563 0.0
H1200 H 0.69126 0.8142 0.55117 0.0
H1201 H 0.64047 0.8893 0.56717 0.0
H1202 H 0.75333 0.83556 0.58099 0.0
H1203 H 0.73621 0.81775 0.60832 0.0
H1204 H 0.73319 0.80298 0.57519 0.0
H1205 H 0.65009 0.91969 0.60403 0.0
H1206 H 0.67499 0.9075 0.62931 0.0
H1207 H 0.68782 0.92831 0.60176 0.0
H1208 H 0.75506 0.8691 0.67757 0.0
H1209 H 0.78831 0.91741 0.61125 0.0
H1210 H 0.7067 0.82889 0.64638 0.0
H1211 H 0.68364 0.85951 0.64988 0.0
H1212 H 0.70773 0.84967 0.67666 0.0
H1213 H 0.74802 0.88723 0.56226 0.0
H1214 H 0.76497 0.92095 0.57054 0.0
H1215 H 0.72635 0.91745 0.57143 0.0
C1216 C 0.08534 0.26554 0.88578 0.0
C1217 C 0.10593 0.27802 0.90264 0.0
C1218 C 0.09238 0.24218 0.86919 0.0
C1219 C 0.121 0.23161 0.86877 0.0
C1220 C 0.14144 0.24299 0.88697 0.0
C1221 C 0.13354 0.26587 0.90393 0.0
C1222 C 0.06964 0.23024 0.85074 0.0
C1223 C 0.1723 0.23281 0.88692 0.0
C1224 C 0.13728 0.16254 0.83008 0.0
C1225 C 0.14458 0.17346 0.80491 0.0
C1226 C 0.12967 0.1811 0.85117 0.0
C1227 C 0.13019 0.21132 0.84717 0.0
C1228 C 0.13852 0.22237 0.82195 0.0
C1229 C 0.14534 0.20333 0.80111 0.0
C1230 C 0.12035 0.16839 0.87747 0.0
C1231 C 0.14002 0.2544 0.81688 0.0
H1232 H 0.06404 0.27505 0.88458 0.0
H1233 H 0.1497 0.27586 0.91651 0.0
H1234 H 0.07414 0.23729 0.83002 0.0
H1235 H 0.07002 0.20635 0.85095 0.0
H1236 H 0.04769 0.23766 0.85626 0.0
H1237 H 0.18446 0.2409 0.90447 0.0
H1238 H 0.17337 0.20896 0.88672 0.0
H1239 H 0.18313 0.24063 0.86857 0.0
H1240 H 0.13673 0.13942 0.83304 0.0
H1241 H 0.1515 0.21181 0.7818 0.0
H1242 H 0.0977 0.17455 0.88163 0.0
H1243 H 0.13371 0.17716 0.89391 0.0
H1244 H 0.12199 0.14452 0.87769 0.0
H1245 H 0.11822 0.26398 0.8187 0.0
H1246 H 0.1486 0.25951 0.79676 0.0
H1247 H 0.15393 0.26486 0.83204 0.0
C1248 C 0.82834 0.66465 0.08208 0.0
C1249 C 0.82161 0.65675 0.05569 0.0
C1250 C 0.80983 0.65808 0.1035 0.0
C1251 C 0.78333 0.64404 0.09851 0.0
C1252 C 0.77612 0.63639 0.07201 0.0
C1253 C 0.79561 0.64201 0.05119 0.0
C1254 C 0.81897 0.66553 0.13155 0.0
C1255 C 0.74782 0.6219 0.06557 0.0
C1256 C 0.74014 0.60004 0.14847 0.0
C1257 C 0.71836 0.61944 0.15559 0.0
C1258 C 0.76297 0.60857 0.13178 0.0
C1259 C 0.76316 0.63674 0.12082 0.0
C1260 C 0.74189 0.65678 0.12902 0.0
C1261 C 0.72004 0.64799 0.14667 0.0
C1262 C 0.78582 0.58683 0.12454 0.0
C1263 C 0.74052 0.68666 0.11722 0.0
H1264 H 0.84846 0.6756 0.08619 0.0
H1265 H 0.79041 0.63398 0.03166 0.0
H1266 H 0.80292 0.68001 0.14092 0.0
H1267 H 0.81989 0.64565 0.14382 0.0
H1268 H 0.84039 0.67617 0.13218 0.0
H1269 H 0.74413 0.62002 0.04375 0.0
H1270 H 0.74742 0.59998 0.07433 0.0
H1271 H 0.72967 0.63416 0.07443 0.0
H1272 H 0.73861 0.57784 0.15502 0.0
H1273 H 0.70274 0.66279 0.15155 0.0
H1274 H 0.8075 0.59688 0.1249 0.0
H1275 H 0.78198 0.57881 0.10403 0.0
H1276 H 0.78574 0.56809 0.13832 0.0
H1277 H 0.76192 0.69721 0.11797 0.0
H1278 H 0.72467 0.70057 0.12769 0.0
H1279 H 0.73419 0.68514 0.09593 0.0
C1280 C 0.35512 0.34165 0.33055 0.0
C1281 C 0.34778 0.3299 0.30572 0.0
C1282 C 0.36298 0.32381 0.3521 0.0
C1283 C 0.36267 0.29348 0.34893 0.0
C1284 C 0.35438 0.28158 0.32403 0.0
C1285 C 0.3473 0.29993 0.30271 0.0
C1286 C 0.37228 0.3374 0.37803 0.0
C1287 C 0.35312 0.24941 0.31984 0.0
C1288 C 0.4079 0.24101 0.38927 0.0
C1289 C 0.3874 0.22902 0.40653 0.0
C1290 C 0.40068 0.26363 0.37189 0.0
C1291 C 0.37197 0.27395 0.37109 0.0
C1292 C 0.35161 0.26309 0.38964 0.0
C1293 C 0.35968 0.24096 0.40737 0.0
C1294 C 0.42333 0.27505 0.35307 0.0
C1295 C 0.32067 0.27304 0.38924 0.0
H1296 H 0.35544 0.36485 0.3329 0.0
H1297 H 0.34111 0.29081 0.28366 0.0
H1298 H 0.35889 0.3292 0.39469 0.0
H1299 H 0.39492 0.33136 0.38242 0.0
H1300 H 0.37066 0.36126 0.37754 0.0
H1301 H 0.34462 0.24361 0.29985 0.0
H1302 H 0.37498 0.24004 0.32197 0.0
H1303 H 0.33925 0.23932 0.33525 0.0
H1304 H 0.42929 0.23168 0.38844 0.0
H1305 H 0.34361 0.23135 0.42029 0.0
H1306 H 0.42282 0.29893 0.35255 0.0
H1307 H 0.41885 0.26726 0.33258 0.0
H1308 H 0.44533 0.26795 0.3588 0.0
H1309 H 0.31944 0.29687 0.38844 0.0
H1310 H 0.30851 0.26537 0.40694 0.0
H1311 H 0.30996 0.26464 0.37105 0.0
C1312 C 0.05443 0.03817 0.30122 0.0
C1313 C 0.04226 0.06381 0.29186 0.0
C1314 C 0.03983 0.01196 0.29862 0.0
C1315 C 0.01248 0.01144 0.28614 0.0
C1316 C 0.00132 0.03696 0.27452 0.0
C1317 C 0.01633 0.06305 0.27772 0.0
C1318 C 0.05248 0.98541 0.31149 0.0
C1319 C 0.97254 0.03717 0.26057 0.0
C1320 C 0.98045 0.9365 0.2776 0.0
C1321 C 0.96427 0.93407 0.30105 0.0
C1322 C 0.99523 0.96217 0.27157 0.0
C1323 C 0.99384 0.98564 0.28959 0.0
C1324 C 0.97638 0.98356 0.31265 0.0
C1325 C 0.96157 0.95795 0.31789 0.0
C1326 C 0.01311 0.9638 0.24652 0.0
C1327 C 0.97425 0.00799 0.33246 0.0
H1328 H 0.07458 0.03897 0.31215 0.0
H1329 H 0.00702 0.08302 0.27054 0.0
H1330 H 0.03979 0.97984 0.32951 0.0
H1331 H 0.05135 0.96677 0.29772 0.0
H1332 H 0.07528 0.98863 0.31753 0.0
H1333 H 0.96971 0.05677 0.24814 0.0
H1334 H 0.97008 0.01786 0.24775 0.0
H1335 H 0.95507 0.03665 0.27564 0.0
H1336 H 0.98216 0.91811 0.26438 0.0
H1337 H 0.94808 0.95649 0.33545 0.0
H1338 H 0.0363 0.96337 0.25181 0.0
H1339 H 0.00898 0.98433 0.23585 0.0
H1340 H 0.00862 0.94557 0.2328 0.0
H1341 H 0.99577 0.01235 0.34121 0.0
H1342 H 0.959 0.0032 0.34895 0.0
H1343 H 0.96708 0.02796 0.32232 0.0
C1344 C 0.0673 0.49575 0.54416 0.0
C1345 C 0.07196 0.46741 0.53581 0.0
C1346 C 0.04061 0.50916 0.54012 0.0
C1347 C 0.01887 0.4946 0.52554 0.0
C1348 C 0.02525 0.46779 0.51348 0.0
C1349 C 0.05143 0.45403 0.51946 0.0
C1350 C 0.03487 0.53765 0.55365 0.0
C1351 C 0.00385 0.45264 0.49574 0.0
C1352 C 0.94431 0.50765 0.55309 0.0
C1353 C 0.93694 0.53353 0.54054 0.0
C1354 C 0.97044 0.49386 0.54747 0.0
C1355 C 0.98859 0.50506 0.52725 0.0
C1356 C 0.97911 0.5288 0.51181 0.0
C1357 C 0.95375 0.54334 0.51916 0.0
C1358 C 0.97972 0.46901 0.56496 0.0
C1359 C 0.99641 0.54012 0.48863 0.0
H1360 H 0.08369 0.50646 0.55595 0.0
H1361 H 0.05499 0.4322 0.51258 0.0
H1362 H 0.02923 0.55417 0.5386 0.0
H1363 H 0.0163 0.53558 0.56747 0.0
H1364 H 0.05375 0.54547 0.56517 0.0
H1365 H 0.01513 0.43955 0.48042 0.0
H1366 H 0.99055 0.43773 0.50785 0.0
H1367 H 0.98931 0.46813 0.48558 0.0
H1368 H 0.93084 0.49963 0.56912 0.0
H1369 H 0.94815 0.56325 0.50916 0.0
H1370 H 0.00057 0.47409 0.57474 0.0
H1371 H 0.98294 0.44944 0.55272 0.0
H1372 H 0.96367 0.464 0.58071 0.0
H1373 H 0.0099 0.55843 0.49536 0.0
H1374 H 0.98188 0.54837 0.47276 0.0
H1375 H 0.01064 0.52336 0.47996 0.0
C1376 C 0.45391 0.45627 0.80935 0.0
C1377 C 0.45775 0.43105 0.79449 0.0
C1378 C 0.47004 0.48101 0.80398 0.0
C1379 C 0.48982 0.48093 0.78248 0.0
C1380 C 0.49187 0.45634 0.76584 0.0
C1381 C 0.47603 0.43143 0.77228 0.0
C1382 C 0.46727 0.50654 0.82249 0.0
C1383 C 0.5118 0.45578 0.74212 0.0
C1384 C 0.51882 0.55642 0.77311 0.0
C1385 C 0.54296 0.55531 0.78976 0.0
C1386 C 0.50273 0.53135 0.7679 0.0
C1387 C 0.51074 0.50507 0.78027 0.0
C1388 C 0.53666 0.50359 0.79509 0.0
C1389 C 0.55262 0.5287 0.79934 0.0
C1390 C 0.47598 0.53351 0.75097 0.0
C1391 C 0.54598 0.47621 0.8089 0.0
H1392 H 0.43892 0.45632 0.8259 0.0
H1393 H 0.47869 0.41201 0.76054 0.0
H1394 H 0.48804 0.51026 0.8329 0.0
H1395 H 0.4622 0.52629 0.811 0.0
H1396 H 0.45023 0.50339 0.83777 0.0
H1397 H 0.50558 0.43872 0.7277 0.0
H1398 H 0.5119 0.47687 0.73171 0.0
H1399 H 0.53409 0.45133 0.74893 0.0
H1400 H 0.51156 0.57705 0.76552 0.0
H1401 H 0.57163 0.52794 0.8119 0.0
H1402 H 0.45682 0.53538 0.76406 0.0
H1403 H 0.47324 0.51393 0.73854 0.0
H1404 H 0.47662 0.55271 0.73777 0.0
H1405 H 0.53067 0.47119 0.82525 0.0
H1406 H 0.56794 0.47801 0.81755 0.0
H1407 H 0.54567 0.45784 0.79482 0.0
C1408 C 0.44774 0.00548 0.05572 0.0
C1409 C 0.44075 0.03134 0.04292 0.0
C1410 C 0.47384 0.99145 0.05052 0.0
C1411 C 0.49239 0.00234 0.03047 0.0
C1412 C 0.48339 0.02613 0.01485 0.0
C1413 C 0.45804 0.04093 0.02179 0.0
C1414 C 0.48263 0.96661 0.06824 0.0
C1415 C 0.50116 0.03721 0.99187 0.0
C1416 C 0.57102 0.9918 0.04744 0.0
C1417 C 0.57532 0.96343 0.03899 0.0
C1418 C 0.54446 0.00555 0.04355 0.0
C1419 C 0.5225 0.99134 0.02896 0.0
C1420 C 0.52849 0.96447 0.01684 0.0
C1421 C 0.55453 0.95037 0.02269 0.0
C1422 C 0.53913 0.0341 0.05712 0.0
C1423 C 0.50686 0.94966 0.99909 0.0
H1424 H 0.43394 0.99766 0.07159 0.0
H1425 H 0.45279 0.06085 0.01165 0.0
H1426 H 0.4858 0.94692 0.05614 0.0
H1427 H 0.5034 0.97154 0.07821 0.0
H1428 H 0.46632 0.96187 0.08384 0.0
H1429 H 0.48696 0.04564 0.97583 0.0
H1430 H 0.51481 0.05532 0.99875 0.0
H1431 H 0.51527 0.02025 0.98336 0.0
H1432 H 0.58765 0.00236 0.05904 0.0
H1433 H 0.55779 0.92855 0.01569 0.0
H1434 H 0.52041 0.03234 0.07079 0.0
H1435 H 0.53394 0.05076 0.04206 0.0
H1436 H 0.55806 0.04152 0.0688 0.0
H1437 H 0.49308 0.93525 0.01124 0.0
H1438 H 0.51789 0.93614 0.98394 0.0
H1439 H 0.49279 0.96542 0.98871 0.0
C1440 C 0.01412 0.44277 0.98351 0.0
C1441 C 0.03231 0.44045 0.96134 0.0
C1442 C 0.0002 0.46897 0.98939 0.0
C1443 C 0.00443 0.49307 0.97247 0.0
C1444 C 0.02382 0.49099 0.95078 0.0
C1445 C 0.03777 0.46484 0.94574 0.0
C1446 C 0.98023 0.47057 0.01305 0.0
C1447 C 0.02891 0.51603 0.93209 0.0
C1448 C 0.94719 0.54896 0.959 0.0
C1449 C 0.95951 0.57353 0.97041 0.0
C1450 C 0.9606 0.52206 0.9612 0.0
C1451 C 0.98682 0.51968 0.97547 0.0
C1452 C 0.99805 0.54408 0.98891 0.0
C1453 C 0.98433 0.57094 0.98601 0.0
C1454 C 0.94798 0.49679 0.94628 0.0
C1455 C 0.02558 0.54229 1.00479 0.0
H1456 H 0.01022 0.42395 0.99577 0.0
H1457 H 0.05266 0.46334 0.92917 0.0
H1458 H 0.98452 0.49034 0.02482 0.0
H1459 H 0.95761 0.47175 0.00602 0.0
H1460 H 0.98245 0.45152 0.0263 0.0
H1461 H 0.04534 0.51109 0.91666 0.0
H1462 H 0.00848 0.52182 0.92192 0.0
H1463 H 0.03609 0.5352 0.94346 0.0
H1464 H 0.92788 0.55118 0.94699 0.0
H1465 H 0.99373 0.59006 0.99482 0.0
H1466 H 0.94684 0.47756 0.95934 0.0
H1467 H 0.96212 0.4913 0.92918 0.0
H1468 H 0.92606 0.50146 0.93851 0.0
H1469 H 0.026 0.52243 0.0171 0.0
H1470 H 0.02839 0.56126 0.01802 0.0
H1471 H 0.0442 0.54133 0.99096 0.0
C1472 C 0.42696 0.48973 0.23038 0.0
C1473 C 0.42532 0.46261 0.21841 0.0
C1474 C 0.45376 0.50337 0.23384 0.0
C1475 C 0.47915 0.48965 0.22456 0.0
C1476 C 0.47754 0.46137 0.21411 0.0
C1477 C 0.4506 0.44815 0.21128 0.0
C1478 C 0.45462 0.53326 0.24555 0.0
C1479 C 0.50391 0.44605 0.20365 0.0
C1480 C 0.53743 0.53543 0.19325 0.0
C1481 C 0.55976 0.53333 0.21193 0.0
C1482 C 0.51094 0.52184 0.19751 0.0
C1483 C 0.50633 0.5063 0.22141 0.0
C1484 C 0.52832 0.50528 0.24101 0.0
C1485 C 0.55495 0.51876 0.23596 0.0
C1486 C 0.4882 0.52344 0.17598 0.0
C1487 C 0.52395 0.48941 0.26694 0.0
H1488 H 0.40726 0.50083 0.23578 0.0
H1489 H 0.44909 0.42716 0.2019 0.0
H1490 H 0.47305 0.53555 0.25948 0.0
H1491 H 0.4576 0.54922 0.22932 0.0
H1492 H 0.4344 0.53857 0.25632 0.0
H1493 H 0.49957 0.42303 0.19915 0.0
H1494 H 0.51128 0.45674 0.18507 0.0
H1495 H 0.5218 0.4473 0.21825 0.0
H1496 H 0.54076 0.54764 0.17511 0.0
H1497 H 0.57214 0.51753 0.25055 0.0
H1498 H 0.46803 0.53269 0.18416 0.0
H1499 H 0.48311 0.50146 0.16869 0.0
H1500 H 0.49513 0.53675 0.15873 0.0
H1501 H 0.5034 0.49612 0.27637 0.0
H1502 H 0.54185 0.49323 0.2812 0.0
H1503 H 0.52245 0.46595 0.26303 0.0
C1504 C 0.51572 0.94045 0.48816 0.0
C1505 C 0.53803 0.93999 0.46939 0.0
C1506 C 0.50146 0.96639 0.4943 0.0
C1507 C 0.50929 0.99203 0.48076 0.0
C1508 C 0.53311 0.9918 0.46313 0.0
C1509 C 0.54741 0.96587 0.45802 0.0
C1510 C 0.47693 0.96595 0.514 0.0
C1511 C 0.54207 0.01842 0.44792 0.0
C1512 C 0.45361 0.04618 0.45869 0.0
C1513 C 0.46204 0.07079 0.47279 0.0
C1514 C 0.46771 0.01986 0.46235 0.0
C1515 C 0.49025 0.01784 0.48127 0.0
C1516 C 0.49695 0.04198 0.49746 0.0
C1517 C 0.48295 0.06843 0.49277 0.0
C1518 C 0.46 0.99492 0.44436 0.0
C1519 C 0.52 0.04035 0.51859 0.0
H1520 H 0.50859 0.92043 0.49709 0.0
H1521 H 0.56516 0.96555 0.44397 0.0
H1522 H 0.477 0.98569 0.52647 0.0
H1523 H 0.45617 0.96529 0.50308 0.0
H1524 H 0.47802 0.94679 0.52722 0.0
H1525 H 0.56208 0.01499 0.43621 0.0
H1526 H 0.52461 0.02479 0.43398 0.0
H1527 H 0.5456 0.03666 0.46178 0.0
H1528 H 0.43685 0.04792 0.44372 0.0
H1529 H 0.48921 0.08744 0.50388 0.0
H1530 H 0.45546 0.97538 0.45634 0.0
H1531 H 0.47849 0.98991 0.43112 0.0
H1532 H 0.44093 -0.0004 0.43171 0.0
H1533 H 0.51898 0.01951 0.52937 0.0
H1534 H 0.51801 0.0582 0.53322 0.0
H1535 H 0.5415 0.04186 0.50907 0.0
C1536 C 0.05985 0.02037 0.73979 0.0
C1537 C 0.06035 0.04253 0.72089 0.0
C1538 C 0.03404 0.00563 0.74538 0.0
C1539 C 0.00861 0.01299 0.73125 0.0
C1540 C 0.00878 0.03692 0.71375 0.0
C1541 C 0.0346 0.05159 0.70908 0.0
C1542 C 0.03448 0.98101 0.76498 0.0
C1543 C 0.98236 0.04547 0.69802 0.0
C1544 C 0.95685 0.95651 0.70652 0.0
C1545 C 0.9315 0.96414 0.71985 0.0
C1546 C 0.9827 0.97103 0.71141 0.0
C1547 C 0.9834 0.99321 0.73077 0.0
C1548 C 0.95849 0.99898 0.74624 0.0
C1549 C 0.93258 0.98454 0.74035 0.0
C1550 C 0.00855 0.96424 0.69422 0.0
C1551 C 0.95868 0.02162 0.76777 0.0
H1552 H 0.07981 0.01363 0.74913 0.0
H1553 H 0.03501 0.06921 0.69488 0.0
H1554 H 0.01431 0.98041 0.77684 0.0
H1555 H 0.03616 0.96036 0.75398 0.0
H1556 H 0.05314 0.98256 0.77877 0.0
H1557 H 0.98557 0.06583 0.68677 0.0
H1558 H 0.97694 0.02817 0.6836 0.0
H1559 H 0.96361 0.04818 0.71146 0.0
H1560 H 0.9561 0.9401 0.69116 0.0
H1561 H 0.91298 0.99012 0.7509 0.0
H1562 H 0.02772 0.96006 0.7068 0.0
H1563 H 0.01356 0.98303 0.68134 0.0
H1564 H 0.0049 0.94523 0.68122 0.0
H1565 H 0.97925 0.02117 0.77904 0.0
H1566 H 0.94052 0.01866 0.78193 0.0
H1567 H 0.95658 0.04324 0.75857 0.0
C1568 C 0.31872 0.08834 0.39474 0.0
C1569 C 0.32045 0.10975 0.41437 0.0
C1570 C 0.29218 0.08111 0.3832 0.0
C1571 C 0.26723 0.09656 0.39077 0.0
C1572 C 0.26862 0.11673 0.41193 0.0
C1573 C 0.2952 0.12269 0.4238 0.0
C1574 C 0.29125 0.05839 0.36172 0.0
C1575 C 0.2426 0.13403 0.42038 0.0
C1576 C 0.21142 0.11877 0.34044 0.0
C1577 C 0.1869 0.10509 0.35058 0.0
C1578 C 0.23836 0.11458 0.35228 0.0
C1579 C 0.24088 0.09546 0.37417 0.0
C1580 C 0.2168 0.07911 0.38247 0.0
C1581 C 0.18984 0.08456 0.3709 0.0
C1582 C 0.26343 0.13276 0.34301 0.0
C1583 C 0.21902 0.0574 0.40476 0.0
H1584 H 0.33824 0.07797 0.38774 0.0
H1585 H 0.2965 0.13923 0.439 0.0
H1586 H 0.27103 0.04571 0.36284 0.0
H1587 H 0.29203 0.06887 0.34186 0.0
H1588 H 0.30989 0.04347 0.36323 0.0
H1589 H 0.24704 0.14772 0.43807 0.0
H1590 H 0.23568 0.14818 0.40372 0.0
H1591 H 0.22434 0.11956 0.42515 0.0
H1592 H 0.2092 0.13461 0.32468 0.0
H1593 H 0.17091 0.07359 0.37846 0.0
H1594 H 0.28245 0.11905 0.33886 0.0
H1595 H 0.26957 0.1481 0.35901 0.0
H1596 H 0.25827 0.14527 0.32474 0.0
H1597 H 0.23976 0.04556 0.40381 0.0
H1598 H 0.20103 0.04165 0.40408 0.0
H1599 H 0.2181 0.06869 0.42422 0.0
C1600 C 0.92293 0.694 0.61637 0.0
C1601 C 0.90106 0.6886 0.59772 0.0
C1602 C 0.9272 0.72173 0.62659 0.0
C1603 C 0.90872 0.74421 0.61835 0.0
C1604 C 0.88855 0.73943 0.59762 0.0
C1605 C 0.88518 0.71164 0.58732 0.0
C1606 C 0.94979 0.72635 0.64781 0.0
C1607 C 0.86847 0.76294 0.58821 0.0
C1608 C 0.88108 0.79847 0.66793 0.0
C1609 C 0.89308 0.82397 0.65806 0.0
C1610 C 0.88745 0.77197 0.65609 0.0
C1611 C 0.90673 0.77099 0.63421 0.0
C1612 C 0.92101 0.79629 0.62582 0.0
C1613 C 0.91375 0.82263 0.63767 0.0
C1614 C 0.87171 0.74541 0.66563 0.0
C1615 C 0.94244 0.79593 0.60321 0.0
H1616 H 0.93569 0.67628 0.62406 0.0
H1617 H 0.8684 0.7076 0.57276 0.0
H1618 H 0.96067 0.74742 0.64514 0.0
H1619 H 0.93937 0.72644 0.66771 0.0
H1620 H 0.96627 0.709 0.6476 0.0
H1621 H 0.85614 0.75651 0.57018 0.0
H1622 H 0.85292 0.76816 0.60431 0.0
H1623 H 0.88067 0.78284 0.58363 0.0
H1624 H 0.86507 0.7994 0.68362 0.0
H1625 H 0.92339 0.84231 0.63022 0.0
H1626 H 0.88719 0.72782 0.66989 0.0
H1627 H 0.85697 0.7377 0.64973 0.0
H1628 H 0.85883 0.74955 0.68389 0.0
H1629 H 0.95615 0.77638 0.60401 0.0
H1630 H 0.95652 0.81528 0.60354 0.0
H1631 H 0.93073 0.7957 0.58393 0.0
C1632 C 0.18006 0.41463 0.88824 0.0
C1633 C 0.17658 0.395 0.90924 0.0
C1634 C 0.20739 0.4199 0.8774 0.0
C1635 C 0.23134 0.40433 0.88722 0.0
C1636 C 0.2282 0.38623 0.90975 0.0
C1637 C 0.20085 0.38212 0.92071 0.0
C1638 C 0.21022 0.4405 0.85428 0.0
C1639 C 0.25312 0.36889 0.92066 0.0
C1640 C 0.28787 0.37497 0.84098 0.0
C1641 C 0.31255 0.38878 0.85059 0.0
C1642 C 0.26076 0.38134 0.85154 0.0
C1643 C 0.25831 0.40268 0.8716 0.0
C1644 C 0.28279 0.41875 0.87937 0.0
C1645 C 0.30985 0.41117 0.86914 0.0
C1646 C 0.23526 0.36336 0.84297 0.0
C1647 C 0.28075 0.4426 0.8997 0.0
H1648 H 0.1613 0.42497 0.8796 0.0
H1649 H 0.19826 0.36687 0.93684 0.0
H1650 H 0.23078 0.45262 0.85537 0.0
H1651 H 0.21014 0.42823 0.83531 0.0
H1652 H 0.19204 0.45605 0.8537 0.0
H1653 H 0.24742 0.35734 0.93933 0.0
H1654 H 0.26 0.35276 0.90563 0.0
H1655 H 0.27182 0.38303 0.92477 0.0
H1656 H 0.28997 0.35763 0.82665 0.0
H1657 H 0.32896 0.42218 0.87624 0.0
H1658 H 0.21707 0.37737 0.83693 0.0
H1659 H 0.22781 0.35001 0.85999 0.0
H1660 H 0.24054 0.34882 0.82608 0.0
H1661 H 0.26054 0.45506 0.89718 0.0
H1662 H 0.29937 0.45754 0.89825 0.0
H1663 H 0.28065 0.43322 0.92004 0.0
C1664 C 0.58474 0.79905 0.09027 0.0
C1665 C 0.60839 0.81289 0.10181 0.0
C1666 C 0.57679 0.77129 0.09868 0.0
C1667 C 0.594 0.75689 0.11786 0.0
C1668 C 0.61788 0.77114 0.12951 0.0
C1669 C 0.62434 0.79923 0.12171 0.0
C1670 C 0.55056 0.75741 0.08646 0.0
C1671 C 0.63752 0.75633 0.14932 0.0
C1672 C 0.58159 0.69123 0.15978 0.0
C1673 C 0.59803 0.67104 0.14572 0.0
C1674 C 0.57643 0.71863 0.14902 0.0
C1675 C 0.5893 0.72617 0.12442 0.0
C1676 C 0.60352 0.70493 0.10908 0.0
C1677 C 0.60725 0.67738 0.11977 0.0
C1678 C 0.55938 0.74023 0.16498 0.0
C1679 C 0.61779 0.71214 0.08286 0.0
H1680 H 0.57245 0.80993 0.07489 0.0
H1681 H 0.64278 0.81016 0.13035 0.0
H1682 H 0.55683 0.74625 0.0678 0.0
H1683 H 0.54057 0.74143 0.10006 0.0
H1684 H 0.53418 0.7739 0.08115 0.0
H1685 H 0.65583 0.7702 0.15552 0.0
H1686 H 0.62525 0.7502 0.1674 0.0
H1687 H 0.64637 0.73628 0.14049 0.0
H1688 H 0.57389 0.68609 0.17963 0.0
H1689 H 0.6198 0.66169 0.10875 0.0
H1690 H 0.54585 0.75372 0.15165 0.0
H1691 H 0.57434 0.75474 0.17578 0.0
H1692 H 0.54533 0.72949 0.17989 0.0
H1693 H 0.60243 0.72328 0.06946 0.0
H1694 H 0.62605 0.69267 0.0725 0.0
H1695 H 0.63613 0.72698 0.08644 0.0
C1696 C 0.69205 0.57016 0.86804 0.0
C1697 C 0.68862 0.59221 0.84917 0.0
C1698 C 0.71908 0.56455 0.87938 0.0
C1699 C 0.74273 0.58207 0.87223 0.0
C1700 C 0.73993 0.60232 0.85124 0.0
C1701 C 0.71289 0.60684 0.83967 0.0
C1702 C 0.72164 0.54163 0.90056 0.0
C1703 C 0.76467 0.62147 0.84298 0.0
C1704 C 0.79409 0.61084 0.92354 0.0
C1705 C 0.82029 0.5999 0.91415 0.0
C1706 C 0.76812 0.60325 0.91134 0.0
C1707 C 0.7684 0.58366 0.88969 0.0
C1708 C 0.79434 0.56981 0.88237 0.0
C1709 C 0.82017 0.57845 0.89445 0.0
C1710 C 0.74089 0.61858 0.91982 0.0
C1711 C 0.79527 0.54767 0.86039 0.0
H1712 H 0.67338 0.55832 0.87499 0.0
H1713 H 0.71037 0.62369 0.82488 0.0
H1714 H 0.74301 0.53096 0.89981 0.0
H1715 H 0.71924 0.55162 0.92052 0.0
H1716 H 0.70456 0.52504 0.89837 0.0
H1717 H 0.75952 0.63445 0.82498 0.0
H1718 H 0.77001 0.63644 0.85951 0.0
H1719 H 0.78414 0.60844 0.8388 0.0
H1720 H 0.79401 0.62731 0.9388 0.0
H1721 H 0.84039 0.56951 0.88747 0.0
H1722 H 0.72341 0.60286 0.92359 0.0
H1723 H 0.73359 0.63308 0.90357 0.0
H1724 H 0.74406 0.63166 0.93813 0.0
H1725 H 0.7753 0.53454 0.86 0.0
H1726 H 0.8141 0.53312 0.86268 0.0
H1727 H 0.79726 0.55873 0.84087 0.0
C1728 C 0.42917 0.19195 0.11619 0.0
C1729 C 0.40681 0.18694 0.09796 0.0
C1730 C 0.43374 0.21947 0.12677 0.0
C1731 C 0.41503 0.24209 0.11935 0.0
C1732 C 0.39444 0.23777 0.09888 0.0
C1733 C 0.3908 0.2102 0.08818 0.0
C1734 C 0.45684 0.22364 0.14758 0.0
C1735 C 0.37413 0.26145 0.0903 0.0
C1736 C 0.38672 0.29461 0.17004 0.0
C1737 C 0.39758 0.32059 0.16011 0.0
C1738 C 0.394 0.26844 0.15803 0.0
C1739 C 0.41306 0.26834 0.13596 0.0
C1740 C 0.42657 0.29414 0.12782 0.0
C1741 C 0.41841 0.32012 0.13984 0.0
C1742 C 0.37914 0.2413 0.16738 0.0
C1743 C 0.44789 0.29473 0.10512 0.0
H1744 H 0.44202 0.17405 0.12337 0.0
H1745 H 0.37365 0.20644 0.07393 0.0
H1746 H 0.46721 0.24506 0.14551 0.0
H1747 H 0.44703 0.22253 0.16772 0.0
H1748 H 0.47366 0.20668 0.14625 0.0
H1749 H 0.36137 0.25538 0.07242 0.0
H1750 H 0.35898 0.26635 0.1068 0.0
H1751 H 0.38622 0.28145 0.0858 0.0
H1752 H 0.37069 0.29486 0.18574 0.0
H1753 H 0.42725 0.34018 0.13241 0.0
H1754 H 0.39512 0.224 0.17103 0.0
H1755 H 0.3642 0.23359 0.15165 0.0
H1756 H 0.3666 0.24476 0.18597 0.0
H1757 H 0.46165 0.27519 0.10514 0.0
H1758 H 0.46191 0.31408 0.10613 0.0
H1759 H 0.43606 0.29535 0.08591 0.0
C1760 C 0.79495 0.87667 0.34445 0.0
C1761 C 0.8199 0.88884 0.3553 0.0
C1762 C 0.768 0.88194 0.35588 0.0
C1763 C 0.76596 0.90053 0.37818 0.0
C1764 C 0.79075 0.91499 0.38763 0.0
C1765 C 0.81763 0.90853 0.37637 0.0
C1766 C 0.74214 0.86569 0.34542 0.0
C1767 C 0.7892 0.93593 0.41059 0.0
C1768 C 0.68802 0.91428 0.39496 0.0
C1769 C 0.68311 0.89261 0.41388 0.0
C1770 C 0.71577 0.91927 0.38496 0.0
C1771 C 0.73869 0.90142 0.39345 0.0
C1772 C 0.73418 0.88097 0.41398 0.0
C1773 C 0.70645 0.87715 0.42427 0.0
C1774 C 0.7201 0.94222 0.36404 0.0
C1775 C 0.75799 0.86121 0.42334 0.0
H1776 H 0.79667 0.86133 0.32826 0.0
H1777 H 0.83694 0.91823 0.38456 0.0
H1778 H 0.73425 0.85059 0.36094 0.0
H1779 H 0.72433 0.88078 0.34079 0.0
H1780 H 0.7472 0.85314 0.32716 0.0
H1781 H 0.80838 0.95022 0.41119 0.0
H1782 H 0.76952 0.94943 0.40927 0.0
H1783 H 0.78826 0.92385 0.42964 0.0
H1784 H 0.67001 0.9266 0.38723 0.0
H1785 H 0.70271 0.86044 0.43897 0.0
H1786 H 0.72086 0.93209 0.34403 0.0
H1787 H 0.74081 0.95366 0.36717 0.0
H1788 H 0.70228 0.95819 0.36415 0.0
H1789 H 0.76426 0.84654 0.40686 0.0
H1790 H 0.75141 0.84794 0.44073 0.0
H1791 H 0.77734 0.8738 0.42893 0.0
C1792 C 0.07672 0.18712 0.64039 0.0
C1793 C 0.09806 0.18459 0.66005 0.0
C1794 C 0.07079 0.21382 0.62854 0.0
C1795 C 0.08723 0.23809 0.63608 0.0
C1796 C 0.10694 0.23609 0.65757 0.0
C1797 C 0.11184 0.20935 0.66954 0.0
C1798 C 0.04859 0.21545 0.60662 0.0
C1799 C 0.125 0.26151 0.66621 0.0
C1800 C 0.11415 0.29231 0.58641 0.0
C1801 C 0.10136 0.31748 0.59613 0.0
C1802 C 0.10786 0.26561 0.59791 0.0
C1803 C 0.08775 0.26415 0.61912 0.0
C1804 C 0.07224 0.289 0.62674 0.0
C1805 C 0.07957 0.31559 0.61541 0.0
C1806 C 0.12496 0.23956 0.58922 0.0
C1807 C 0.04963 0.28801 0.64833 0.0
H1808 H 0.06562 0.16804 0.63334 0.0
H1809 H 0.12828 0.20751 0.68479 0.0
H1810 H 0.03696 0.23632 0.60707 0.0
H1811 H 0.05945 0.21362 0.587 0.0
H1812 H 0.03268 0.19766 0.60821 0.0
H1813 H 0.13782 0.25681 0.68441 0.0
H1814 H 0.14006 0.26748 0.64994 0.0
H1815 H 0.11115 0.28045 0.67023 0.0
H1816 H 0.13091 0.29372 0.57142 0.0
H1817 H 0.06923 0.33504 0.62258 0.0
H1818 H 0.11043 0.22115 0.58514 0.0
H1819 H 0.13978 0.23299 0.6055 0.0
H1820 H 0.13796 0.24386 0.57105 0.0
H1821 H 0.03697 0.26778 0.64727 0.0
H1822 H 0.03467 0.30663 0.64692 0.0
H1823 H 0.06024 0.28878 0.66813 0.0
loop_
_geom_bond_atom_site_label_1
_geom_bond_atom_site_label_2
_geom_bond_distance
_geom_bond_site_symmetry_2
_ccdc_geom_bond_type
Co0 O3 1.970 . S
Co0 N17 1.989 . S
Co0 O25 1.967 . S
Co0 O32 1.920 . S
Co1 O4 1.966 . S
Co1 N10 2.022 . S
Co1 N18 1.993 . S
Co1 O26 1.941 . S
C2 O3 1.258 . S
C2 O4 1.263 . S
O3 Co0 1.970 . S
O3 C2 1.258 . S
O4 Co1 1.966 . S
O4 C2 1.263 . S
C5 O6 1.235 . S
C5 O32 1.289 . S
O6 C5 1.235 . S
C7 C9 1.400 . S
C7 N10 1.351 . S
C7 C12 1.501 . S
C8 C9 1.387 . S
C8 N11 1.341 . S
C9 C7 1.400 . S
C9 C8 1.387 . S
N10 Co1 2.022 . S
N10 C7 1.351 . S
N10 N11 1.365 . S
N11 C8 1.341 . S
N11 N10 1.365 . S
N11 H31 0.862 . S
C12 C7 1.501 . S
C12 H13 0.961 . S
C12 H14 0.961 . S
C12 H15 0.960 . S
H13 C12 0.961 . S
H14 C12 0.961 . S
H15 C12 0.960 . S
C16 N17 1.342 . S
C16 C20 1.401 . S
C16 C21 1.499 . S
N17 Co0 1.989 . S
N17 C16 1.342 . S
N17 N18 1.388 . S
N18 Co1 1.993 . S
N18 N17 1.388 . S
N18 C19 1.346 . S
C19 N18 1.346 . S
C19 C20 1.396 . S
C19 C29 1.510 . S
C20 C16 1.401 . S
C20 C19 1.396 . S
C21 C16 1.499 . S
C21 H22 0.959 . S
C21 H23 0.960 . S
C21 H24 0.961 . S
H22 C21 0.959 . S
H23 C21 0.960 . S
H24 C21 0.961 . S
O25 Co0 1.967 . S
O25 C33 1.258 . S
O26 Co1 1.941 . S
O26 C33 1.266 . S
H27 C29 0.959 . S
H28 C29 0.961 . S
C29 C19 1.510 . S
C29 H27 0.959 . S
C29 H28 0.961 . S
C29 H30 0.960 . S
H30 C29 0.960 . S
H31 N11 0.862 . S
O32 Co0 1.920 . S
O32 C5 1.289 . S
C33 O25 1.258 . S
C33 O26 1.266 . S
Co34 O37 1.970 . S
Co34 N51 1.989 . S
Co34 O59 1.967 . S
Co34 O66 1.920 . S
Co35 O38 1.966 . S
Co35 N44 2.022 . S
Co35 N52 1.993 . S
Co35 O60 1.941 . S
C36 O37 1.258 . S
C36 O38 1.263 . S
O37 Co34 1.970 . S
O37 C36 1.258 . S
O38 Co35 1.966 . S
O38 C36 1.263 . S
C39 O40 1.235 . S
C39 O66 1.289 . S
O40 C39 1.235 . S
C41 C43 1.400 . S
C41 N44 1.351 . S
C41 C46 1.501 . S
C42 C43 1.387 . S
C42 N45 1.341 . S
C43 C41 1.400 . S
C43 C42 1.387 . S
N44 Co35 2.022 . S
N44 C41 1.351 . S
N44 N45 1.365 . S
N45 C42 1.341 . S
N45 N44 1.365 . S
N45 H65 0.862 . S
C46 C41 1.501 . S
C46 H47 0.961 . S
C46 H48 0.961 . S
C46 H49 0.960 . S
H47 C46 0.961 . S
H48 C46 0.961 . S
H49 C46 0.960 . S
C50 N51 1.342 . S
C50 C54 1.401 . S
C50 C55 1.499 . S
N51 Co34 1.989 . S
N51 C50 1.342 . S
N51 N52 1.388 . S
N52 Co35 1.993 . S
N52 N51 1.388 . S
N52 C53 1.346 . S
C53 N52 1.346 . S
C53 C54 1.396 . S
C53 C63 1.510 . S
C54 C50 1.401 . S
C54 C53 1.396 . S
C55 C50 1.499 . S
C55 H56 0.959 . S
C55 H57 0.960 . S
C55 H58 0.961 . S
H56 C55 0.959 . S
H57 C55 0.960 . S
H58 C55 0.961 . S
O59 Co34 1.967 . S
O59 C67 1.258 . S
O60 Co35 1.941 . S
O60 C67 1.266 . S
H61 C63 0.959 . S
H62 C63 0.961 . S
C63 C53 1.510 . S
C63 H61 0.959 . S
C63 H62 0.961 . S
C63 H64 0.960 . S
H64 C63 0.960 . S
H65 N45 0.862 . S
O66 Co34 1.920 . S
O66 C39 1.289 . S
C67 O59 1.258 . S
C67 O60 1.266 . S
Co68 O71 1.970 . S
Co68 N85 1.989 . S
Co68 O93 1.967 . S
Co68 O100 1.920 . S
Co69 O72 1.966 . S
Co69 N78 2.022 . S
Co69 N86 1.993 . S
Co69 O94 1.941 . S
C70 O71 1.258 . S
C70 O72 1.263 . S
O71 Co68 1.970 . S
O71 C70 1.258 . S
O72 Co69 1.966 . S
O72 C70 1.263 . S
C73 O74 1.235 . S
C73 O100 1.289 . S
O74 C73 1.235 . S
C75 C77 1.400 . S
C75 N78 1.351 . S
C75 C80 1.501 . S
C76 C77 1.387 . S
C76 N79 1.341 . S
C77 C75 1.400 . S
C77 C76 1.387 . S
N78 Co69 2.022 . S
N78 C75 1.351 . S
N78 N79 1.365 . S
N79 C76 1.341 . S
N79 N78 1.365 . S
N79 H99 0.862 . S
C80 C75 1.501 . S
C80 H81 0.961 . S
C80 H82 0.961 . S
C80 H83 0.960 . S
H81 C80 0.961 . S
H82 C80 0.961 . S
H83 C80 0.960 . S
C84 N85 1.342 . S
C84 C88 1.401 . S
C84 C89 1.499 . S
N85 Co68 1.989 . S
N85 C84 1.342 . S
N85 N86 1.388 . S
N86 Co69 1.993 . S
N86 N85 1.388 . S
N86 C87 1.346 . S
C87 N86 1.346 . S
C87 C88 1.396 . S
C87 C97 1.510 . S
C88 C84 1.401 . S
C88 C87 1.396 . S
C89 C84 1.499 . S
C89 H90 0.959 . S
C89 H91 0.960 . S
C89 H92 0.961 . S
H90 C89 0.959 . S
H91 C89 0.960 . S
H92 C89 0.961 . S
O93 Co68 1.967 . S
O93 C101 1.258 . S
O94 Co69 1.941 . S
O94 C101 1.266 . S
H95 C97 0.959 . S
H96 C97 0.961 . S
C97 C87 1.510 . S
C97 H95 0.959 . S
C97 H96 0.961 . S
C97 H98 0.960 . S
H98 C97 0.960 . S
H99 N79 0.862 . S
O100 Co68 1.920 . S
O100 C73 1.289 . S
C101 O93 1.258 . S
C101 O94 1.266 . S
Co102 O105 1.970 . S
Co102 N119 1.989 . S
Co102 O127 1.967 . S
Co102 O134 1.920 . S
Co103 O106 1.966 . S
Co103 N112 2.022 . S
Co103 N120 1.993 . S
Co103 O128 1.941 . S
C104 O105 1.258 . S
C104 O106 1.263 . S
O105 Co102 1.970 . S
O105 C104 1.258 . S
O106 Co103 1.966 . S
O106 C104 1.263 . S
C107 O108 1.235 . S
C107 O134 1.289 . S
O108 C107 1.235 . S
C109 C111 1.379 1_554 S
C109 N112 1.365 . S
C109 C114 1.509 . S
C110 C111 1.387 . S
C110 N113 1.326 1_556 S
C111 C109 1.379 1_556 S
C111 C110 1.387 . S
N112 Co103 2.022 . S
N112 C109 1.365 . S
N112 N113 1.375 . S
N113 C110 1.326 1_554 S
N113 N112 1.375 . S
N113 H133 0.867 . S
C114 C109 1.509 . S
C114 H115 0.961 . S
C114 H116 0.961 . S
C114 H117 0.960 . S
H115 C114 0.961 . S
H116 C114 0.961 . S
H117 C114 0.960 . S
C118 N119 1.342 . S
C118 C122 1.401 . S
C118 C123 1.499 . S
N119 Co102 1.989 . S
N119 C118 1.342 . S
N119 N120 1.388 . S
N120 Co103 1.993 . S
N120 N119 1.388 . S
N120 C121 1.346 . S
C121 N120 1.346 . S
C121 C122 1.396 . S
C121 C131 1.510 . S
C122 C118 1.401 . S
C122 C121 1.396 . S
C123 C118 1.499 . S
C123 H124 0.959 . S
C123 H125 0.960 . S
C123 H126 0.961 . S
H124 C123 0.959 . S
H125 C123 0.960 . S
H126 C123 0.961 . S
O127 Co102 1.967 . S
O127 C135 1.258 . S
O128 Co103 1.941 . S
O128 C135 1.266 . S
H129 C131 0.959 . S
H130 C131 0.961 . S
C131 C121 1.510 . S
C131 H129 0.959 . S
C131 H130 0.961 . S
C131 H132 0.960 . S
H132 C131 0.960 . S
H133 N113 0.867 . S
O134 Co102 1.920 . S
O134 C107 1.289 . S
C135 O127 1.258 . S
C135 O128 1.266 . S
Co136 O139 1.970 . S
Co136 N153 1.989 . S
Co136 O161 1.967 . S
Co136 O168 1.920 . S
Co137 O140 1.966 . S
Co137 N146 2.022 . S
Co137 N154 1.993 . S
Co137 O162 1.941 . S
C138 O139 1.258 . S
C138 O140 1.263 . S
O139 Co136 1.970 . S
O139 C138 1.258 . S
O140 Co137 1.966 . S
O140 C138 1.263 . S
C141 O142 1.235 . S
C141 O168 1.289 . S
O142 C141 1.235 . S
C143 C145 1.379 1_556 S
C143 N146 1.365 . S
C143 C148 1.509 . S
C144 C145 1.387 . S
C144 N147 1.326 1_554 S
C145 C143 1.379 1_554 S
C145 C144 1.387 . S
N146 Co137 2.022 . S
N146 C143 1.365 . S
N146 N147 1.375 . S
N147 C144 1.326 1_556 S
N147 N146 1.375 . S
N147 H167 0.867 . S
C148 C143 1.509 . S
C148 H149 0.961 . S
C148 H150 0.961 . S
C148 H151 0.960 . S
H149 C148 0.961 . S
H150 C148 0.961 . S
H151 C148 0.960 . S
C152 N153 1.342 . S
C152 C156 1.401 . S
C152 C157 1.499 . S
N153 Co136 1.989 . S
N153 C152 1.342 . S
N153 N154 1.388 . S
N154 Co137 1.993 . S
N154 N153 1.388 . S
N154 C155 1.346 . S
C155 N154 1.346 . S
C155 C156 1.396 . S
C155 C165 1.510 . S
C156 C152 1.401 . S
C156 C155 1.396 . S
C157 C152 1.499 . S
C157 H158 0.959 . S
C157 H159 0.960 . S
C157 H160 0.961 . S
H158 C157 0.959 . S
H159 C157 0.960 . S
H160 C157 0.961 . S
O161 Co136 1.967 . S
O161 C169 1.258 . S
O162 Co137 1.941 . S
O162 C169 1.266 . S
H163 C165 0.959 . S
H164 C165 0.961 . S
C165 C155 1.510 . S
C165 H163 0.959 . S
C165 H164 0.961 . S
C165 H166 0.960 . S
H166 C165 0.960 . S
H167 N147 0.867 . S
O168 Co136 1.920 . S
O168 C141 1.289 . S
C169 O161 1.258 . S
C169 O162 1.266 . S
Co170 O173 1.970 . S
Co170 N187 1.989 . S
Co170 O195 1.967 . S
Co170 O202 1.920 . S
Co171 O174 1.966 . S
Co171 N180 2.022 . S
Co171 N188 1.993 . S
Co171 O196 1.941 . S
C172 O173 1.258 . S
C172 O174 1.263 . S
O173 Co170 1.970 . S
O173 C172 1.258 . S
O174 Co171 1.966 . S
O174 C172 1.263 . S
C175 O176 1.235 . S
C175 O202 1.289 . S
O176 C175 1.235 . S
C177 C179 1.400 . S
C177 N180 1.351 . S
C177 C182 1.501 . S
C178 C179 1.387 . S
C178 N181 1.341 . S
C179 C177 1.400 . S
C179 C178 1.387 . S
N180 Co171 2.022 . S
N180 C177 1.351 . S
N180 N181 1.365 . S
N181 C178 1.341 . S
N181 N180 1.365 . S
N181 H201 0.862 . S
C182 C177 1.501 . S
C182 H183 0.961 . S
C182 H184 0.961 . S
C182 H185 0.960 . S
H183 C182 0.961 . S
H184 C182 0.961 . S
H185 C182 0.960 . S
C186 N187 1.342 . S
C186 C190 1.401 . S
C186 C191 1.499 . S
N187 Co170 1.989 . S
N187 C186 1.342 . S
N187 N188 1.388 . S
N188 Co171 1.993 . S
N188 N187 1.388 . S
N188 C189 1.346 . S
C189 N188 1.346 . S
C189 C190 1.396 . S
C189 C199 1.510 . S
C190 C186 1.401 . S
C190 C189 1.396 . S
C191 C186 1.499 . S
C191 H192 0.959 . S
C191 H193 0.960 . S
C191 H194 0.961 . S
H192 C191 0.959 . S
H193 C191 0.960 . S
H194 C191 0.961 . S
O195 Co170 1.967 . S
O195 C203 1.258 . S
O196 Co171 1.941 . S
O196 C203 1.266 . S
H197 C199 0.959 . S
H198 C199 0.961 . S
C199 C189 1.510 . S
C199 H197 0.959 . S
C199 H198 0.961 . S
C199 H200 0.960 . S
H200 C199 0.960 . S
H201 N181 0.862 . S
O202 Co170 1.920 . S
O202 C175 1.289 . S
C203 O195 1.258 . S
C203 O196 1.266 . S
Co204 O207 1.970 . S
Co204 N221 1.989 . S
Co204 O229 1.967 . S
Co204 O236 1.920 . S
Co205 O208 1.966 . S
Co205 N214 2.022 . S
Co205 N222 1.993 . S
Co205 O230 1.941 . S
C206 O207 1.258 . S
C206 O208 1.263 . S
O207 Co204 1.970 . S
O207 C206 1.258 . S
O208 Co205 1.966 . S
O208 C206 1.263 . S
C209 O210 1.235 . S
C209 O236 1.289 . S
O210 C209 1.235 . S
C211 C213 1.400 . S
C211 N214 1.351 . S
C211 C216 1.501 . S
C212 C213 1.387 . S
C212 N215 1.341 . S
C213 C211 1.400 . S
C213 C212 1.387 . S
N214 Co205 2.022 . S
N214 C211 1.351 . S
N214 N215 1.365 . S
N215 C212 1.341 . S
N215 N214 1.365 . S
N215 H235 0.862 . S
C216 C211 1.501 . S
C216 H217 0.961 . S
C216 H218 0.961 . S
C216 H219 0.960 . S
H217 C216 0.961 . S
H218 C216 0.961 . S
H219 C216 0.960 . S
C220 N221 1.342 . S
C220 C224 1.401 . S
C220 C225 1.499 . S
N221 Co204 1.989 . S
N221 C220 1.342 . S
N221 N222 1.388 . S
N222 Co205 1.993 . S
N222 N221 1.388 . S
N222 C223 1.346 . S
C223 N222 1.346 . S
C223 C224 1.396 . S
C223 C233 1.510 . S
C224 C220 1.401 . S
C224 C223 1.396 . S
C225 C220 1.499 . S
C225 H226 0.959 . S
C225 H227 0.960 . S
C225 H228 0.961 . S
H226 C225 0.959 . S
H227 C225 0.960 . S
H228 C225 0.961 . S
O229 Co204 1.967 . S
O229 C237 1.258 . S
O230 Co205 1.941 . S
O230 C237 1.266 . S
H231 C233 0.959 . S
H232 C233 0.961 . S
C233 C223 1.510 . S
C233 H231 0.959 . S
C233 H232 0.961 . S
C233 H234 0.960 . S
H234 C233 0.960 . S
H235 N215 0.862 . S
O236 Co204 1.920 . S
O236 C209 1.289 . S
C237 O229 1.258 . S
C237 O230 1.266 . S
Co238 O241 1.970 . S
Co238 N255 1.989 . S
Co238 O263 1.967 . S
Co238 O270 1.920 . S
Co239 O242 1.966 . S
Co239 N248 2.022 . S
Co239 N256 1.993 . S
Co239 O264 1.941 . S
C240 O241 1.258 . S
C240 O242 1.263 . S
O241 Co238 1.970 . S
O241 C240 1.258 . S
O242 Co239 1.966 . S
O242 C240 1.263 . S
C243 O244 1.235 . S
C243 O270 1.289 . S
O244 C243 1.235 . S
C245 C247 1.400 . S
C245 N248 1.351 . S
C245 C250 1.501 . S
C246 C247 1.387 . S
C246 N249 1.341 . S
C247 C245 1.400 . S
C247 C246 1.387 . S
N248 Co239 2.022 . S
N248 C245 1.351 . S
N248 N249 1.365 . S
N249 C246 1.341 . S
N249 N248 1.365 . S
N249 H269 0.862 . S
C250 C245 1.501 . S
C250 H251 0.961 . S
C250 H252 0.961 . S
C250 H253 0.960 . S
H251 C250 0.961 . S
H252 C250 0.961 . S
H253 C250 0.960 . S
C254 N255 1.342 . S
C254 C258 1.401 . S
C254 C259 1.499 . S
N255 Co238 1.989 . S
N255 C254 1.342 . S
N255 N256 1.388 . S
N256 Co239 1.993 . S
N256 N255 1.388 . S
N256 C257 1.346 . S
C257 N256 1.346 . S
C257 C258 1.396 . S
C257 C267 1.510 . S
C258 C254 1.401 . S
C258 C257 1.396 . S
C259 C254 1.499 . S
C259 H260 0.959 . S
C259 H261 0.960 . S
C259 H262 0.961 . S
H260 C259 0.959 . S
H261 C259 0.960 . S
H262 C259 0.961 . S
O263 Co238 1.967 . S
O263 C271 1.258 . S
O264 Co239 1.941 . S
O264 C271 1.266 . S
H265 C267 0.959 . S
H266 C267 0.961 . S
C267 C257 1.510 . S
C267 H265 0.959 . S
C267 H266 0.961 . S
C267 H268 0.960 . S
H268 C267 0.960 . S
H269 N249 0.862 . S
O270 Co238 1.920 . S
O270 C243 1.289 . S
C271 O263 1.258 . S
C271 O264 1.266 . S
Co272 O275 1.970 . S
Co272 N289 1.989 . S
Co272 O297 1.967 . S
Co272 O304 1.920 . S
Co273 O276 1.966 . S
Co273 N282 2.022 . S
Co273 N290 1.993 . S
Co273 O298 1.941 . S
C274 O275 1.258 . S
C274 O276 1.263 . S
O275 Co272 1.970 . S
O275 C274 1.258 . S
O276 Co273 1.966 . S
O276 C274 1.263 . S
C277 O278 1.235 . S
C277 O304 1.289 . S
O278 C277 1.235 . S
C279 C281 1.400 . S
C279 N282 1.351 . S
C279 C284 1.501 . S
C280 C281 1.387 . S
C280 N283 1.341 . S
C281 C279 1.400 . S
C281 C280 1.387 . S
N282 Co273 2.022 . S
N282 C279 1.351 . S
N282 N283 1.365 . S
N283 C280 1.341 . S
N283 N282 1.365 . S
N283 H303 0.862 . S
C284 C279 1.501 . S
C284 H285 0.961 . S
C284 H286 0.961 . S
C284 H287 0.960 . S
H285 C284 0.961 . S
H286 C284 0.961 . S
H287 C284 0.960 . S
C288 N289 1.342 . S
C288 C292 1.401 . S
C288 C293 1.499 . S
N289 Co272 1.989 . S
N289 C288 1.342 . S
N289 N290 1.388 . S
N290 Co273 1.993 . S
N290 N289 1.388 . S
N290 C291 1.346 . S
C291 N290 1.346 . S
C291 C292 1.396 . S
C291 C301 1.510 . S
C292 C288 1.401 . S
C292 C291 1.396 . S
C293 C288 1.499 . S
C293 H294 0.959 . S
C293 H295 0.960 . S
C293 H296 0.961 . S
H294 C293 0.959 . S
H295 C293 0.960 . S
H296 C293 0.961 . S
O297 Co272 1.967 . S
O297 C305 1.258 . S
O298 Co273 1.941 . S
O298 C305 1.266 . S
H299 C301 0.959 . S
H300 C301 0.961 . S
C301 C291 1.510 . S
C301 H299 0.959 . S
C301 H300 0.961 . S
C301 H302 0.960 . S
H302 C301 0.960 . S
H303 N283 0.862 . S
O304 Co272 1.920 . S
O304 C277 1.289 . S
C305 O297 1.258 . S
C305 O298 1.266 . S
Co306 O309 1.970 . S
Co306 N323 1.989 . S
Co306 O331 1.967 . S
Co306 O338 1.920 . S
Co307 O310 1.966 . S
Co307 N316 2.022 . S
Co307 N324 1.993 . S
Co307 O332 1.941 . S
C308 O309 1.258 . S
C308 O310 1.263 . S
O309 Co306 1.970 . S
O309 C308 1.258 . S
O310 Co307 1.966 . S
O310 C308 1.263 . S
C311 O312 1.235 . S
C311 O338 1.289 . S
O312 C311 1.235 . S
C313 C315 1.379 1_554 S
C313 N316 1.365 . S
C313 C318 1.509 . S
C314 C315 1.387 . S
C314 N317 1.326 1_556 S
C315 C313 1.379 1_556 S
C315 C314 1.387 . S
N316 Co307 2.022 . S
N316 C313 1.365 . S
N316 N317 1.375 . S
N317 C314 1.326 1_554 S
N317 N316 1.375 . S
N317 H337 0.867 . S
C318 C313 1.509 . S
C318 H319 0.961 . S
C318 H320 0.961 . S
C318 H321 0.960 . S
H319 C318 0.961 . S
H320 C318 0.961 . S
H321 C318 0.960 . S
C322 N323 1.342 . S
C322 C326 1.401 . S
C322 C327 1.499 . S
N323 Co306 1.989 . S
N323 C322 1.342 . S
N323 N324 1.388 . S
N324 Co307 1.993 . S
N324 N323 1.388 . S
N324 C325 1.346 . S
C325 N324 1.346 . S
C325 C326 1.396 . S
C325 C335 1.510 . S
C326 C322 1.401 . S
C326 C325 1.396 . S
C327 C322 1.499 . S
C327 H328 0.959 . S
C327 H329 0.960 . S
C327 H330 0.961 . S
H328 C327 0.959 . S
H329 C327 0.960 . S
H330 C327 0.961 . S
O331 Co306 1.967 . S
O331 C339 1.258 . S
O332 Co307 1.941 . S
O332 C339 1.266 . S
H333 C335 0.959 . S
H334 C335 0.961 . S
C335 C325 1.510 . S
C335 H333 0.959 . S
C335 H334 0.961 . S
C335 H336 0.960 . S
H336 C335 0.960 . S
H337 N317 0.867 . S
O338 Co306 1.920 . S
O338 C311 1.289 . S
C339 O331 1.258 . S
C339 O332 1.266 . S
Co340 O343 1.970 . S
Co340 N357 1.989 . S
Co340 O365 1.967 . S
Co340 O372 1.920 . S
Co341 O344 1.966 . S
Co341 N350 2.022 . S
Co341 N358 1.993 . S
Co341 O366 1.941 . S
C342 O343 1.258 . S
C342 O344 1.263 . S
O343 Co340 1.970 . S
O343 C342 1.258 . S
O344 Co341 1.966 . S
O344 C342 1.263 . S
C345 O346 1.235 . S
C345 O372 1.289 . S
O346 C345 1.235 . S
C347 C349 1.400 . S
C347 N350 1.351 . S
C347 C352 1.501 . S
C348 C349 1.387 . S
C348 N351 1.341 . S
C349 C347 1.400 . S
C349 C348 1.387 . S
N350 Co341 2.022 . S
N350 C347 1.351 . S
N350 N351 1.365 . S
N351 C348 1.341 . S
N351 N350 1.365 . S
N351 H371 0.862 . S
C352 C347 1.501 . S
C352 H353 0.961 . S
C352 H354 0.961 . S
C352 H355 0.960 . S
H353 C352 0.961 . S
H354 C352 0.961 . S
H355 C352 0.960 . S
C356 N357 1.342 . S
C356 C360 1.401 . S
C356 C361 1.499 . S
N357 Co340 1.989 . S
N357 C356 1.342 . S
N357 N358 1.388 . S
N358 Co341 1.993 . S
N358 N357 1.388 . S
N358 C359 1.346 . S
C359 N358 1.346 . S
C359 C360 1.396 . S
C359 C369 1.510 . S
C360 C356 1.401 . S
C360 C359 1.396 . S
C361 C356 1.499 . S
C361 H362 0.959 . S
C361 H363 0.960 . S
C361 H364 0.961 . S
H362 C361 0.959 . S
H363 C361 0.960 . S
H364 C361 0.961 . S
O365 Co340 1.967 . S
O365 C373 1.258 . S
O366 Co341 1.941 . S
O366 C373 1.266 . S
H367 C369 0.959 . S
H368 C369 0.961 . S
C369 C359 1.510 . S
C369 H367 0.959 . S
C369 H368 0.961 . S
C369 H370 0.960 . S
H370 C369 0.960 . S
H371 N351 0.862 . S
O372 Co340 1.920 . S
O372 C345 1.289 . S
C373 O365 1.258 . S
C373 O366 1.266 . S
Co374 O377 1.970 . S
Co374 N391 1.989 . S
Co374 O399 1.967 . S
Co374 O406 1.920 . S
Co375 O378 1.966 . S
Co375 N384 2.022 . S
Co375 N392 1.993 . S
Co375 O400 1.941 . S
C376 O377 1.258 . S
C376 O378 1.263 . S
O377 Co374 1.970 . S
O377 C376 1.258 . S
O378 Co375 1.966 . S
O378 C376 1.263 . S
C379 O380 1.235 . S
C379 O406 1.289 . S
O380 C379 1.235 . S
C381 C383 1.400 . S
C381 N384 1.351 . S
C381 C386 1.501 . S
C382 C383 1.387 . S
C382 N385 1.341 . S
C383 C381 1.400 . S
C383 C382 1.387 . S
N384 Co375 2.022 . S
N384 C381 1.351 . S
N384 N385 1.365 . S
N385 C382 1.341 . S
N385 N384 1.365 . S
N385 H405 0.862 . S
C386 C381 1.501 . S
C386 H387 0.961 . S
C386 H388 0.961 . S
C386 H389 0.960 . S
H387 C386 0.961 . S
H388 C386 0.961 . S
H389 C386 0.960 . S
C390 N391 1.342 . S
C390 C394 1.401 . S
C390 C395 1.499 . S
N391 Co374 1.989 . S
N391 C390 1.342 . S
N391 N392 1.388 . S
N392 Co375 1.993 . S
N392 N391 1.388 . S
N392 C393 1.346 . S
C393 N392 1.346 . S
C393 C394 1.396 . S
C393 C403 1.510 . S
C394 C390 1.401 . S
C394 C393 1.396 . S
C395 C390 1.499 . S
C395 H396 0.959 . S
C395 H397 0.960 . S
C395 H398 0.961 . S
H396 C395 0.959 . S
H397 C395 0.960 . S
H398 C395 0.961 . S
O399 Co374 1.967 . S
O399 C407 1.258 . S
O400 Co375 1.941 . S
O400 C407 1.266 . S
H401 C403 0.959 . S
H402 C403 0.961 . S
C403 C393 1.510 . S
C403 H401 0.959 . S
C403 H402 0.961 . S
C403 H404 0.960 . S
H404 C403 0.960 . S
H405 N385 0.862 . S
O406 Co374 1.920 . S
O406 C379 1.289 . S
C407 O399 1.258 . S
C407 O400 1.266 . S
Co408 O411 1.970 . S
Co408 N425 1.989 . S
Co408 O433 1.967 . S
Co408 O440 1.920 . S
Co409 O412 1.966 . S
Co409 N418 2.022 . S
Co409 N426 1.993 . S
Co409 O434 1.941 . S
C410 O411 1.258 . S
C410 O412 1.263 . S
O411 Co408 1.970 . S
O411 C410 1.258 . S
O412 Co409 1.966 . S
O412 C410 1.263 . S
C413 O414 1.235 . S
C413 O440 1.289 . S
O414 C413 1.235 . S
C415 C417 1.400 . S
C415 N418 1.351 . S
C415 C420 1.501 . S
C416 C417 1.387 . S
C416 N419 1.341 . S
C417 C415 1.400 . S
C417 C416 1.387 . S
N418 Co409 2.022 . S
N418 C415 1.351 . S
N418 N419 1.365 . S
N419 C416 1.341 . S
N419 N418 1.365 . S
N419 H439 0.862 . S
C420 C415 1.501 . S
C420 H421 0.961 . S
C420 H422 0.961 . S
C420 H423 0.960 . S
H421 C420 0.961 . S
H422 C420 0.961 . S
H423 C420 0.960 . S
C424 N425 1.342 . S
C424 C428 1.401 . S
C424 C429 1.499 . S
N425 Co408 1.989 . S
N425 C424 1.342 . S
N425 N426 1.388 . S
N426 Co409 1.993 . S
N426 N425 1.388 . S
N426 C427 1.346 . S
C427 N426 1.346 . S
C427 C428 1.396 . S
C427 C437 1.510 . S
C428 C424 1.401 . S
C428 C427 1.396 . S
C429 C424 1.499 . S
C429 H430 0.959 . S
C429 H431 0.960 . S
C429 H432 0.961 . S
H430 C429 0.959 . S
H431 C429 0.960 . S
H432 C429 0.961 . S
O433 Co408 1.967 . S
O433 C441 1.258 . S
O434 Co409 1.941 . S
O434 C441 1.266 . S
H435 C437 0.959 . S
H436 C437 0.961 . S
C437 C427 1.510 . S
C437 H435 0.959 . S
C437 H436 0.961 . S
C437 H438 0.960 . S
H438 C437 0.960 . S
H439 N419 0.862 . S
O440 Co408 1.920 . S
O440 C413 1.289 . S
C441 O433 1.258 . S
C441 O434 1.266 . S
Co442 O445 1.970 . S
Co442 N459 1.989 . S
Co442 O467 1.967 . S
Co442 O474 1.920 . S
Co443 O446 1.966 . S
Co443 N452 2.022 . S
Co443 N460 1.993 . S
Co443 O468 1.941 . S
C444 O445 1.258 . S
C444 O446 1.263 . S
O445 Co442 1.970 . S
O445 C444 1.258 . S
O446 Co443 1.966 . S
O446 C444 1.263 . S
C447 O448 1.235 . S
C447 O474 1.289 . S
O448 C447 1.235 . S
C449 C451 1.400 . S
C449 N452 1.351 . S
C449 C454 1.501 . S
C450 C451 1.387 . S
C450 N453 1.341 . S
C451 C449 1.400 . S
C451 C450 1.387 . S
N452 Co443 2.022 . S
N452 C449 1.351 . S
N452 N453 1.365 . S
N453 C450 1.341 . S
N453 N452 1.365 . S
N453 H473 0.862 . S
C454 C449 1.501 . S
C454 H455 0.961 . S
C454 H456 0.961 . S
C454 H457 0.960 . S
H455 C454 0.961 . S
H456 C454 0.961 . S
H457 C454 0.960 . S
C458 N459 1.342 . S
C458 C462 1.401 . S
C458 C463 1.499 . S
N459 Co442 1.989 . S
N459 C458 1.342 . S
N459 N460 1.388 . S
N460 Co443 1.993 . S
N460 N459 1.388 . S
N460 C461 1.346 . S
C461 N460 1.346 . S
C461 C462 1.396 . S
C461 C471 1.510 . S
C462 C458 1.401 . S
C462 C461 1.396 . S
C463 C458 1.499 . S
C463 H464 0.959 . S
C463 H465 0.960 . S
C463 H466 0.961 . S
H464 C463 0.959 . S
H465 C463 0.960 . S
H466 C463 0.961 . S
O467 Co442 1.967 . S
O467 C475 1.258 . S
O468 Co443 1.941 . S
O468 C475 1.266 . S
H469 C471 0.959 . S
H470 C471 0.961 . S
C471 C461 1.510 . S
C471 H469 0.959 . S
C471 H470 0.961 . S
C471 H472 0.960 . S
H472 C471 0.960 . S
H473 N453 0.862 . S
O474 Co442 1.920 . S
O474 C447 1.289 . S
C475 O467 1.258 . S
C475 O468 1.266 . S
Co476 O479 1.970 . S
Co476 N493 1.989 . S
Co476 O501 1.967 . S
Co476 O508 1.920 . S
Co477 O480 1.966 . S
Co477 N486 2.022 . S
Co477 N494 1.993 . S
Co477 O502 1.941 . S
C478 O479 1.258 . S
C478 O480 1.263 . S
O479 Co476 1.970 . S
O479 C478 1.258 . S
O480 Co477 1.966 . S
O480 C478 1.263 . S
C481 O482 1.235 . S
C481 O508 1.289 . S
O482 C481 1.235 . S
C483 C485 1.379 1_556 S
C483 N486 1.365 . S
C483 C488 1.509 . S
C484 C485 1.387 . S
C484 N487 1.326 1_554 S
C485 C483 1.379 1_554 S
C485 C484 1.387 . S
N486 Co477 2.022 . S
N486 C483 1.365 . S
N486 N487 1.375 . S
N487 C484 1.326 1_556 S
N487 N486 1.375 . S
N487 H507 0.867 . S
C488 C483 1.509 . S
C488 H489 0.961 . S
C488 H490 0.961 . S
C488 H491 0.960 . S
H489 C488 0.961 . S
H490 C488 0.961 . S
H491 C488 0.960 . S
C492 N493 1.342 . S
C492 C496 1.401 . S
C492 C497 1.499 . S
N493 Co476 1.989 . S
N493 C492 1.342 . S
N493 N494 1.388 . S
N494 Co477 1.993 . S
N494 N493 1.388 . S
N494 C495 1.346 . S
C495 N494 1.346 . S
C495 C496 1.396 . S
C495 C505 1.510 . S
C496 C492 1.401 . S
C496 C495 1.396 . S
C497 C492 1.499 . S
C497 H498 0.959 . S
C497 H499 0.960 . S
C497 H500 0.961 . S
H498 C497 0.959 . S
H499 C497 0.960 . S
H500 C497 0.961 . S
O501 Co476 1.967 . S
O501 C509 1.258 . S
O502 Co477 1.941 . S
O502 C509 1.266 . S
H503 C505 0.959 . S
H504 C505 0.961 . S
C505 C495 1.510 . S
C505 H503 0.959 . S
C505 H504 0.961 . S
C505 H506 0.960 . S
H506 C505 0.960 . S
H507 N487 0.867 . S
O508 Co476 1.920 . S
O508 C481 1.289 . S
C509 O501 1.258 . S
C509 O502 1.266 . S
Co510 O513 1.970 . S
Co510 N527 1.989 . S
Co510 O535 1.967 . S
Co510 O542 1.920 . S
Co511 O514 1.966 . S
Co511 N520 2.022 . S
Co511 N528 1.993 . S
Co511 O536 1.941 . S
C512 O513 1.258 . S
C512 O514 1.263 . S
O513 Co510 1.970 . S
O513 C512 1.258 . S
O514 Co511 1.966 . S
O514 C512 1.263 . S
C515 O516 1.235 . S
C515 O542 1.289 . S
O516 C515 1.235 . S
C517 C519 1.400 . S
C517 N520 1.351 . S
C517 C522 1.501 . S
C518 C519 1.387 . S
C518 N521 1.341 . S
C519 C517 1.400 . S
C519 C518 1.387 . S
N520 Co511 2.022 . S
N520 C517 1.351 . S
N520 N521 1.365 . S
N521 C518 1.341 . S
N521 N520 1.365 . S
N521 H541 0.862 . S
C522 C517 1.501 . S
C522 H523 0.961 . S
C522 H524 0.961 . S
C522 H525 0.960 . S
H523 C522 0.961 . S
H524 C522 0.961 . S
H525 C522 0.960 . S
C526 N527 1.342 . S
C526 C530 1.401 . S
C526 C531 1.499 . S
N527 Co510 1.989 . S
N527 C526 1.342 . S
N527 N528 1.388 . S
N528 Co511 1.993 . S
N528 N527 1.388 . S
N528 C529 1.346 . S
C529 N528 1.346 . S
C529 C530 1.396 . S
C529 C539 1.510 . S
C530 C526 1.401 . S
C530 C529 1.396 . S
C531 C526 1.499 . S
C531 H532 0.959 . S
C531 H533 0.960 . S
C531 H534 0.961 . S
H532 C531 0.959 . S
H533 C531 0.960 . S
H534 C531 0.961 . S
O535 Co510 1.967 . S
O535 C543 1.258 . S
O536 Co511 1.941 . S
O536 C543 1.266 . S
H537 C539 0.959 . S
H538 C539 0.961 . S
C539 C529 1.510 . S
C539 H537 0.959 . S
C539 H538 0.961 . S
C539 H540 0.960 . S
H540 C539 0.960 . S
H541 N521 0.862 . S
O542 Co510 1.920 . S
O542 C515 1.289 . S
C543 O535 1.258 . S
C543 O536 1.266 . S
C544 C545 1.391 . S
C544 C546 1.394 . S
C544 H560 0.931 . S
C545 C544 1.391 . S
C545 C549 1.376 . S
C546 C544 1.394 . S
C546 C547 1.369 . S
C546 C550 1.531 . S
C547 C546 1.369 . S
C547 C548 1.410 . S
C547 C555 1.503 . S
C548 C547 1.410 . S
C548 C549 1.392 . S
C548 C551 1.511 . S
C549 C545 1.376 . S
C549 C548 1.392 . S
C549 H561 0.929 . S
C550 C546 1.531 . S
C550 H562 0.960 . S
C550 H563 0.962 . S
C550 H564 0.960 . S
C551 C548 1.511 . S
C551 H565 0.961 . S
C551 H566 0.961 . S
C551 H567 0.961 . S
C552 C553 1.370 . S
C552 C554 1.363 . S
C552 H568 0.931 . S
C553 C552 1.370 . S
C553 C557 1.408 . S
C554 C552 1.363 . S
C554 C555 1.370 . S
C554 C558 1.524 . S
C555 C547 1.503 . S
C555 C554 1.370 . S
C555 C556 1.403 . S
C556 C555 1.403 . S
C556 C557 1.404 . S
C556 C559 1.539 . S
C557 C553 1.408 . S
C557 C556 1.404 . S
C557 H569 0.930 . S
C558 C554 1.524 . S
C558 H570 0.956 . S
C558 H571 0.961 . S
C558 H572 0.961 . S
C559 C556 1.539 . S
C559 H573 0.958 . S
C559 H574 0.961 . S
C559 H575 0.960 . S
H560 C544 0.931 . S
H561 C549 0.929 . S
H562 C550 0.960 . S
H563 C550 0.962 . S
H564 C550 0.960 . S
H565 C551 0.961 . S
H566 C551 0.961 . S
H567 C551 0.961 . S
H568 C552 0.931 . S
H569 C557 0.930 . S
H570 C558 0.956 . S
H571 C558 0.961 . S
H572 C558 0.961 . S
H573 C559 0.958 . S
H574 C559 0.961 . S
H575 C559 0.960 . S
C576 C577 1.391 . S
C576 C578 1.394 . S
C576 H592 0.931 . S
C577 C576 1.391 . S
C577 C581 1.376 . S
C578 C576 1.394 . S
C578 C579 1.369 . S
C578 C582 1.531 . S
C579 C578 1.369 . S
C579 C580 1.410 . S
C579 C587 1.503 . S
C580 C579 1.410 . S
C580 C581 1.392 . S
C580 C583 1.511 . S
C581 C577 1.376 . S
C581 C580 1.392 . S
C581 H593 0.929 . S
C582 C578 1.531 . S
C582 H594 0.960 . S
C582 H595 0.962 . S
C582 H596 0.960 . S
C583 C580 1.511 . S
C583 H597 0.961 . S
C583 H598 0.961 . S
C583 H599 0.961 . S
C584 C585 1.370 . S
C584 C586 1.363 . S
C584 H600 0.931 . S
C585 C584 1.370 . S
C585 C589 1.408 . S
C586 C584 1.363 . S
C586 C587 1.370 . S
C586 C590 1.524 . S
C587 C579 1.503 . S
C587 C586 1.370 . S
C587 C588 1.403 . S
C588 C587 1.403 . S
C588 C589 1.404 . S
C588 C591 1.539 . S
C589 C585 1.408 . S
C589 C588 1.404 . S
C589 H601 0.930 . S
C590 C586 1.524 . S
C590 H602 0.956 . S
C590 H603 0.961 . S
C590 H604 0.961 . S
C591 C588 1.539 . S
C591 H605 0.958 . S
C591 H606 0.961 . S
C591 H607 0.960 . S
H592 C576 0.931 . S
H593 C581 0.929 . S
H594 C582 0.960 . S
H595 C582 0.962 . S
H596 C582 0.960 . S
H597 C583 0.961 . S
H598 C583 0.961 . S
H599 C583 0.961 . S
H600 C584 0.931 . S
H601 C589 0.930 . S
H602 C590 0.956 . S
H603 C590 0.961 . S
H604 C590 0.961 . S
H605 C591 0.958 . S
H606 C591 0.961 . S
H607 C591 0.960 . S
C608 C609 1.391 . S
C608 C610 1.394 . S
C608 H624 0.931 . S
C609 C608 1.391 . S
C609 C613 1.376 . S
C610 C608 1.394 . S
C610 C611 1.369 . S
C610 C614 1.531 . S
C611 C610 1.369 . S
C611 C612 1.410 . S
C611 C619 1.503 1_554 S
C612 C611 1.410 . S
C612 C613 1.392 . S
C612 C615 1.511 . S
C613 C609 1.376 . S
C613 C612 1.392 . S
C613 H625 0.929 . S
C614 C610 1.531 . S
C614 H626 0.960 1_554 S
C614 H627 0.962 . S
C614 H628 0.960 . S
C615 C612 1.511 . S
C615 H629 0.961 . S
C615 H630 0.961 . S
C615 H631 0.961 . S
C616 C617 1.370 . S
C616 C618 1.363 . S
C616 H632 0.931 . S
C617 C616 1.370 . S
C617 C621 1.408 . S
C618 C616 1.363 . S
C618 C619 1.370 . S
C618 C622 1.524 . S
C619 C611 1.503 1_556 S
C619 C618 1.370 . S
C619 C620 1.403 . S
C620 C619 1.403 . S
C620 C621 1.404 . S
C620 C623 1.539 . S
C621 C617 1.408 . S
C621 C620 1.404 . S
C621 H633 0.930 . S
C622 C618 1.524 . S
C622 H634 0.956 . S
C622 H635 0.961 1_556 S
C622 H636 0.961 . S
C623 C620 1.539 . S
C623 H637 0.958 . S
C623 H638 0.961 . S
C623 H639 0.969 . S
H624 C608 0.931 . S
H625 C613 0.929 . S
H626 C614 0.960 1_556 S
H627 C614 0.962 . S
H628 C614 0.960 . S
H629 C615 0.961 . S
H630 C615 0.961 . S
H631 C615 0.961 . S
H632 C616 0.931 . S
H633 C621 0.930 . S
H634 C622 0.956 . S
H635 C622 0.961 1_554 S
H636 C622 0.961 . S
H637 C623 0.958 . S
H638 C623 0.961 . S
H639 C623 0.969 . S
C640 C641 1.391 . S
C640 C642 1.394 . S
C640 H656 0.931 . S
C641 C640 1.391 . S
C641 C645 1.376 . S
C642 C640 1.394 . S
C642 C643 1.369 . S
C642 C646 1.531 . S
C643 C642 1.369 . S
C643 C644 1.410 . S
C643 C651 1.503 . S
C644 C643 1.410 . S
C644 C645 1.392 . S
C644 C647 1.511 . S
C645 C641 1.376 . S
C645 C644 1.392 . S
C645 H657 0.929 . S
C646 C642 1.531 . S
C646 H658 0.960 . S
C646 H659 0.962 . S
C646 H660 0.960 . S
C647 C644 1.511 . S
C647 H661 0.961 . S
C647 H662 0.961 . S
C647 H663 0.961 . S
C648 C649 1.370 . S
C648 C650 1.363 . S
C648 H664 0.931 . S
C649 C648 1.370 . S
C649 C653 1.408 . S
C650 C648 1.363 . S
C650 C651 1.370 . S
C650 C654 1.524 . S
C651 C643 1.503 . S
C651 C650 1.370 . S
C651 C652 1.403 . S
C652 C651 1.403 . S
C652 C653 1.404 . S
C652 C655 1.539 . S
C653 C649 1.408 . S
C653 C652 1.404 . S
C653 H665 0.930 . S
C654 C650 1.524 . S
C654 H666 0.956 . S
C654 H667 0.961 . S
C654 H668 0.961 . S
C655 C652 1.539 . S
C655 H669 0.958 . S
C655 H670 0.961 . S
C655 H671 0.960 . S
H656 C640 0.931 . S
H657 C645 0.929 . S
H658 C646 0.960 . S
H659 C646 0.962 . S
H660 C646 0.960 . S
H661 C647 0.961 . S
H662 C647 0.961 . S
H663 C647 0.961 . S
H664 C648 0.931 . S
H665 C653 0.930 . S
H666 C654 0.956 . S
H667 C654 0.961 . S
H668 C654 0.961 . S
H669 C655 0.958 . S
H670 C655 0.961 . S
H671 C655 0.960 . S
C672 C673 1.391 . S
C672 C674 1.394 . S
C672 H688 0.931 . S
C673 C672 1.391 . S
C673 C677 1.376 . S
C674 C672 1.394 . S
C674 C675 1.369 . S
C674 C678 1.531 . S
C675 C674 1.369 . S
C675 C676 1.410 . S
C675 C683 1.503 . S
C676 C675 1.410 . S
C676 C677 1.392 . S
C676 C679 1.511 . S
C677 C673 1.376 . S
C677 C676 1.392 . S
C677 H689 0.929 . S
C678 C674 1.531 . S
C678 H690 0.960 . S
C678 H691 0.962 . S
C678 H692 0.960 . S
C679 C676 1.511 . S
C679 H693 0.961 . S
C679 H694 0.961 . S
C679 H695 0.961 . S
C680 C681 1.370 . S
C680 C682 1.363 . S
C680 H696 0.931 . S
C681 C680 1.370 . S
C681 C685 1.408 . S
C682 C680 1.363 . S
C682 C683 1.370 . S
C682 C686 1.524 . S
C683 C675 1.503 . S
C683 C682 1.370 . S
C683 C684 1.403 . S
C684 C683 1.403 . S
C684 C685 1.404 . S
C684 C687 1.539 . S
C685 C681 1.408 . S
C685 C684 1.404 . S
C685 H697 0.930 . S
C686 C682 1.524 . S
C686 H698 0.956 . S
C686 H699 0.961 . S
C686 H700 0.961 . S
C687 C684 1.539 . S
C687 H701 0.958 . S
C687 H702 0.961 . S
C687 H703 0.960 . S
H688 C672 0.931 . S
H689 C677 0.929 . S
H690 C678 0.960 . S
H691 C678 0.962 . S
H692 C678 0.960 . S
H693 C679 0.961 . S
H694 C679 0.961 . S
H695 C679 0.961 . S
H696 C680 0.931 . S
H697 C685 0.930 . S
H698 C686 0.956 . S
H699 C686 0.961 . S
H700 C686 0.961 . S
H701 C687 0.958 . S
H702 C687 0.961 . S
H703 C687 0.960 . S
C704 C705 1.391 . S
C704 C706 1.394 . S
C704 H720 0.931 . S
C705 C704 1.391 . S
C705 C709 1.376 . S
C706 C704 1.394 . S
C706 C707 1.369 . S
C706 C710 1.531 . S
C707 C706 1.369 . S
C707 C708 1.410 . S
C707 C715 1.503 1_556 S
C708 C707 1.410 . S
C708 C709 1.392 . S
C708 C711 1.511 . S
C709 C705 1.376 . S
C709 C708 1.392 . S
C709 H721 0.929 . S
C710 C706 1.531 . S
C710 H722 0.960 1_556 S
C710 H723 0.962 . S
C710 H724 0.960 . S
C711 C708 1.511 . S
C711 H725 0.961 . S
C711 H726 0.961 1_556 S
C711 H727 0.961 . S
C712 C713 1.370 . S
C712 C714 1.363 . S
C712 H728 0.931 . S
C713 C712 1.370 . S
C713 C717 1.408 . S
C714 C712 1.363 . S
C714 C715 1.370 . S
C714 C718 1.524 . S
C715 C707 1.503 1_554 S
C715 C714 1.370 . S
C715 C716 1.403 . S
C716 C715 1.403 . S
C716 C717 1.404 . S
C716 C719 1.539 . S
C717 C713 1.408 . S
C717 C716 1.404 . S
C717 H729 0.930 . S
C718 C714 1.524 . S
C718 H730 0.956 . S
C718 H731 0.961 . S
C718 H732 0.961 . S
C719 C716 1.539 . S
C719 H733 0.958 . S
C719 H734 0.961 . S
C719 H735 0.960 1_554 S
H720 C704 0.931 . S
H721 C709 0.929 . S
H722 C710 0.960 1_554 S
H723 C710 0.962 . S
H724 C710 0.960 . S
H725 C711 0.961 . S
H726 C711 0.961 1_554 S
H727 C711 0.961 . S
H728 C712 0.931 . S
H729 C717 0.930 . S
H730 C718 0.956 . S
H731 C718 0.961 . S
H732 C718 0.961 . S
H733 C719 0.958 . S
H734 C719 0.961 . S
H735 C719 0.960 1_556 S
C736 C737 1.391 . S
C736 C738 1.394 . S
C736 H752 0.931 . S
C737 C736 1.391 . S
C737 C741 1.376 . S
C738 C736 1.394 . S
C738 C739 1.369 . S
C738 C742 1.531 . S
C739 C738 1.369 . S
C739 C740 1.410 . S
C739 C747 1.503 . S
C740 C739 1.410 . S
C740 C741 1.392 . S
C740 C743 1.511 . S
C741 C737 1.376 . S
C741 C740 1.392 . S
C741 H753 0.929 . S
C742 C738 1.531 . S
C742 H754 0.960 . S
C742 H755 0.962 . S
C742 H756 0.960 . S
C743 C740 1.511 . S
C743 H757 0.961 . S
C743 H758 0.961 . S
C743 H759 0.961 . S
C744 C745 1.370 . S
C744 C746 1.363 . S
C744 H760 0.931 . S
C745 C744 1.370 . S
C745 C749 1.408 . S
C746 C744 1.363 . S
C746 C747 1.370 . S
C746 C750 1.524 . S
C747 C739 1.503 . S
C747 C746 1.370 . S
C747 C748 1.403 . S
C748 C747 1.403 . S
C748 C749 1.404 . S
C748 C751 1.539 . S
C749 C745 1.408 . S
C749 C748 1.404 . S
C749 H761 0.930 . S
C750 C746 1.524 . S
C750 H762 0.956 . S
C750 H763 0.961 . S
C750 H764 0.961 . S
C751 C748 1.539 . S
C751 H765 0.958 . S
C751 H766 0.961 . S
C751 H767 0.960 . S
H752 C736 0.931 . S
H753 C741 0.929 . S
H754 C742 0.960 . S
H755 C742 0.962 . S
H756 C742 0.960 . S
H757 C743 0.961 . S
H758 C743 0.961 . S
H759 C743 0.961 . S
H760 C744 0.931 . S
H761 C749 0.930 . S
H762 C750 0.956 . S
H763 C750 0.961 . S
H764 C750 0.961 . S
H765 C751 0.958 . S
H766 C751 0.961 . S
H767 C751 0.960 . S
C768 C769 1.391 . S
C768 C770 1.394 . S
C768 H784 0.931 . S
C769 C768 1.391 . S
C769 C773 1.376 . S
C770 C768 1.394 . S
C770 C771 1.369 . S
C770 C774 1.531 . S
C771 C770 1.369 . S
C771 C772 1.410 . S
C771 C779 1.503 . S
C772 C771 1.410 . S
C772 C773 1.392 . S
C772 C775 1.511 . S
C773 C769 1.376 . S
C773 C772 1.392 . S
C773 H785 0.929 . S
C774 C770 1.531 . S
C774 H786 0.960 . S
C774 H787 0.962 . S
C774 H788 0.960 . S
C775 C772 1.511 . S
C775 H789 0.961 . S
C775 H790 0.961 . S
C775 H791 0.961 . S
C776 C777 1.370 . S
C776 C778 1.363 . S
C776 H792 0.931 . S
C777 C776 1.370 . S
C777 C781 1.408 . S
C778 C776 1.363 . S
C778 C779 1.370 . S
C778 C782 1.524 . S
C779 C771 1.503 . S
C779 C778 1.370 . S
C779 C780 1.403 . S
C780 C779 1.403 . S
C780 C781 1.404 . S
C780 C783 1.539 . S
C781 C777 1.408 . S
C781 C780 1.404 . S
C781 H793 0.930 . S
C782 C778 1.524 . S
C782 H794 0.956 . S
C782 H795 0.961 . S
C782 H796 0.961 . S
C783 C780 1.539 . S
C783 H797 0.958 . S
C783 H798 0.961 . S
C783 H799 0.960 . S
H784 C768 0.931 . S
H785 C773 0.929 . S
H786 C774 0.960 . S
H787 C774 0.962 . S
H788 C774 0.960 . S
H789 C775 0.961 . S
H790 C775 0.961 . S
H791 C775 0.961 . S
H792 C776 0.931 . S
H793 C781 0.930 . S
H794 C782 0.956 . S
H795 C782 0.961 . S
H796 C782 0.961 . S
H797 C783 0.958 . S
H798 C783 0.961 . S
H799 C783 0.960 . S
C800 C801 1.391 . S
C800 C802 1.394 . S
C800 H816 0.931 . S
C801 C800 1.391 . S
C801 C805 1.376 . S
C802 C800 1.394 . S
C802 C803 1.369 . S
C802 C806 1.531 . S
C803 C802 1.369 . S
C803 C804 1.410 . S
C803 C811 1.503 . S
C804 C803 1.410 . S
C804 C805 1.392 . S
C804 C807 1.511 . S
C805 C801 1.376 . S
C805 C804 1.392 . S
C805 H817 0.929 . S
C806 C802 1.531 . S
C806 H818 0.960 . S
C806 H819 0.962 . S
C806 H820 0.960 . S
C807 C804 1.511 . S
C807 H821 0.961 . S
C807 H822 0.961 . S
C807 H823 0.961 . S
C808 C809 1.370 . S
C808 C810 1.363 . S
C808 H824 0.931 . S
C809 C808 1.370 . S
C809 C813 1.408 . S
C810 C808 1.363 . S
C810 C811 1.370 . S
C810 C814 1.524 . S
C811 C803 1.503 . S
C811 C810 1.370 . S
C811 C812 1.403 . S
C812 C811 1.403 . S
C812 C813 1.404 . S
C812 C815 1.539 . S
C813 C809 1.408 . S
C813 C812 1.404 . S
C813 H825 0.930 . S
C814 C810 1.524 . S
C814 H826 0.956 . S
C814 H827 0.961 . S
C814 H828 0.961 . S
C815 C812 1.539 . S
C815 H829 0.958 . S
C815 H830 0.961 . S
C815 H831 0.960 . S
H816 C800 0.931 . S
H817 C805 0.929 . S
H818 C806 0.960 . S
H819 C806 0.962 . S
H820 C806 0.960 . S
H821 C807 0.961 . S
H822 C807 0.961 . S
H823 C807 0.961 . S
H824 C808 0.931 . S
H825 C813 0.930 . S
H826 C814 0.956 . S
H827 C814 0.961 . S
H828 C814 0.961 . S
H829 C815 0.958 . S
H830 C815 0.961 . S
H831 C815 0.960 . S
C832 C833 1.391 . S
C832 C834 1.394 . S
C832 H848 0.931 . S
C833 C832 1.391 . S
C833 C837 1.376 . S
C834 C832 1.394 . S
C834 C835 1.369 . S
C834 C838 1.531 . S
C835 C834 1.369 . S
C835 C836 1.410 . S
C835 C843 1.503 . S
C836 C835 1.410 . S
C836 C837 1.392 . S
C836 C839 1.511 . S
C837 C833 1.376 . S
C837 C836 1.392 . S
C837 H849 0.929 . S
C838 C834 1.531 . S
C838 H850 0.960 . S
C838 H851 0.962 . S
C838 H852 0.960 . S
C839 C836 1.511 . S
C839 H853 0.961 . S
C839 H854 0.961 . S
C839 H855 0.961 . S
C840 C841 1.370 . S
C840 C842 1.363 . S
C840 H856 0.931 . S
C841 C840 1.370 . S
C841 C845 1.408 . S
C842 C840 1.363 . S
C842 C843 1.370 . S
C842 C846 1.524 . S
C843 C835 1.503 . S
C843 C842 1.370 . S
C843 C844 1.403 . S
C844 C843 1.403 . S
C844 C845 1.404 . S
C844 C847 1.539 . S
C845 C841 1.408 . S
C845 C844 1.404 . S
C845 H857 0.930 . S
C846 C842 1.524 . S
C846 H858 0.956 . S
C846 H859 0.961 . S
C846 H860 0.961 . S
C847 C844 1.539 . S
C847 H861 0.958 . S
C847 H862 0.961 . S
C847 H863 0.960 . S
H848 C832 0.931 . S
H849 C837 0.929 . S
H850 C838 0.960 . S
H851 C838 0.962 . S
H852 C838 0.960 . S
H853 C839 0.961 . S
H854 C839 0.961 . S
H855 C839 0.961 . S
H856 C840 0.931 . S
H857 C845 0.930 . S
H858 C846 0.956 . S
H859 C846 0.961 . S
H860 C846 0.961 . S
H861 C847 0.958 . S
H862 C847 0.961 . S
H863 C847 0.960 . S
C864 C865 1.391 . S
C864 C866 1.394 . S
C864 H880 0.931 . S
C865 C864 1.391 . S
C865 C869 1.376 . S
C866 C864 1.394 . S
C866 C867 1.369 . S
C866 C870 1.531 . S
C867 C866 1.369 . S
C867 C868 1.410 . S
C867 C875 1.503 . S
C868 C867 1.410 . S
C868 C869 1.392 . S
C868 C871 1.511 . S
C869 C865 1.376 . S
C869 C868 1.392 . S
C869 H881 0.929 . S
C870 C866 1.531 . S
C870 H882 0.960 . S
C870 H883 0.962 . S
C870 H884 0.960 . S
C871 C868 1.511 . S
C871 H885 0.961 . S
C871 H886 0.961 . S
C871 H887 0.961 . S
C872 C873 1.370 . S
C872 C874 1.363 . S
C872 H888 0.931 . S
C873 C872 1.370 . S
C873 C877 1.408 . S
C874 C872 1.363 . S
C874 C875 1.370 . S
C874 C878 1.524 . S
C875 C867 1.503 . S
C875 C874 1.370 . S
C875 C876 1.403 . S
C876 C875 1.403 . S
C876 C877 1.404 . S
C876 C879 1.539 . S
C877 C873 1.408 . S
C877 C876 1.404 . S
C877 H889 0.930 . S
C878 C874 1.524 . S
C878 H890 0.956 . S
C878 H891 0.961 . S
C878 H892 0.961 . S
C879 C876 1.539 . S
C879 H893 0.958 . S
C879 H894 0.961 . S
C879 H895 0.960 . S
H880 C864 0.931 . S
H881 C869 0.929 . S
H882 C870 0.960 . S
H883 C870 0.962 . S
H884 C870 0.960 . S
H885 C871 0.961 . S
H886 C871 0.961 . S
H887 C871 0.961 . S
H888 C872 0.931 . S
H889 C877 0.930 . S
H890 C878 0.956 . S
H891 C878 0.961 . S
H892 C878 0.961 . S
H893 C879 0.958 . S
H894 C879 0.961 . S
H895 C879 0.960 . S
C896 C897 1.391 . S
C896 C898 1.394 . S
C896 H912 0.931 . S
C897 C896 1.391 . S
C897 C901 1.376 . S
C898 C896 1.394 . S
C898 C899 1.369 . S
C898 C902 1.531 . S
C899 C898 1.369 . S
C899 C900 1.410 . S
C899 C907 1.503 . S
C900 C899 1.410 . S
C900 C901 1.392 . S
C900 C903 1.511 . S
C901 C897 1.376 . S
C901 C900 1.392 . S
C901 H913 0.929 . S
C902 C898 1.531 . S
C902 H914 0.960 . S
C902 H915 0.962 . S
C902 H916 0.960 . S
C903 C900 1.511 . S
C903 H917 0.961 . S
C903 H918 0.961 . S
C903 H919 0.961 . S
C904 C905 1.370 . S
C904 C906 1.363 . S
C904 H920 0.931 . S
C905 C904 1.370 . S
C905 C909 1.408 . S
C906 C904 1.363 . S
C906 C907 1.370 . S
C906 C910 1.524 . S
C907 C899 1.503 . S
C907 C906 1.370 . S
C907 C908 1.403 . S
C908 C907 1.403 . S
C908 C909 1.404 . S
C908 C911 1.539 . S
C909 C905 1.408 . S
C909 C908 1.404 . S
C909 H921 0.930 . S
C910 C906 1.524 . S
C910 H922 0.956 . S
C910 H923 0.961 . S
C910 H924 0.961 . S
C911 C908 1.539 . S
C911 H925 0.958 . S
C911 H926 0.961 . S
C911 H927 0.960 . S
H912 C896 0.931 . S
H913 C901 0.929 . S
H914 C902 0.960 . S
H915 C902 0.962 . S
H916 C902 0.960 . S
H917 C903 0.961 . S
H918 C903 0.961 . S
H919 C903 0.961 . S
H920 C904 0.931 . S
H921 C909 0.930 . S
H922 C910 0.956 . S
H923 C910 0.961 . S
H924 C910 0.961 . S
H925 C911 0.958 . S
H926 C911 0.961 . S
H927 C911 0.960 . S
C928 C929 1.391 . S
C928 C930 1.394 . S
C928 H944 0.931 . S
C929 C928 1.391 . S
C929 C933 1.376 . S
C930 C928 1.394 . S
C930 C931 1.369 . S
C930 C934 1.531 . S
C931 C930 1.369 . S
C931 C932 1.410 . S
C931 C939 1.503 . S
C932 C931 1.410 . S
C932 C933 1.392 . S
C932 C935 1.511 . S
C933 C929 1.376 . S
C933 C932 1.392 . S
C933 H945 0.929 . S
C934 C930 1.531 . S
C934 H946 0.960 . S
C934 H947 0.962 . S
C934 H948 0.960 . S
C935 C932 1.511 . S
C935 H949 0.961 . S
C935 H950 0.961 . S
C935 H951 0.961 . S
C936 C937 1.370 . S
C936 C938 1.363 . S
C936 H952 0.931 . S
C937 C936 1.370 . S
C937 C941 1.408 . S
C938 C936 1.363 . S
C938 C939 1.370 . S
C938 C942 1.524 . S
C939 C931 1.503 . S
C939 C938 1.370 . S
C939 C940 1.403 . S
C940 C939 1.403 . S
C940 C941 1.404 . S
C940 C943 1.539 . S
C941 C937 1.408 . S
C941 C940 1.404 . S
C941 H953 0.930 . S
C942 C938 1.524 . S
C942 H954 0.956 . S
C942 H955 0.961 . S
C942 H956 0.961 . S
C943 C940 1.539 . S
C943 H957 0.958 . S
C943 H958 0.961 . S
C943 H959 0.960 . S
H944 C928 0.931 . S
H945 C933 0.929 . S
H946 C934 0.960 . S
H947 C934 0.962 . S
H948 C934 0.960 . S
H949 C935 0.961 . S
H950 C935 0.961 . S
H951 C935 0.961 . S
H952 C936 0.931 . S
H953 C941 0.930 . S
H954 C942 0.956 . S
H955 C942 0.961 . S
H956 C942 0.961 . S
H957 C943 0.958 . S
H958 C943 0.961 . S
H959 C943 0.960 . S
C960 C961 1.391 . S
C960 C962 1.394 . S
C960 H976 0.931 . S
C961 C960 1.391 . S
C961 C965 1.376 . S
C962 C960 1.394 . S
C962 C963 1.369 . S
C962 C966 1.531 . S
C963 C962 1.369 . S
C963 C964 1.410 . S
C963 C971 1.503 . S
C964 C963 1.410 . S
C964 C965 1.392 . S
C964 C967 1.511 . S
C965 C961 1.376 . S
C965 C964 1.392 . S
C965 H977 0.929 . S
C966 C962 1.531 . S
C966 H978 0.960 . S
C966 H979 0.962 . S
C966 H980 0.960 . S
C967 C964 1.511 . S
C967 H981 0.961 . S
C967 H982 0.961 . S
C967 H983 0.961 . S
C968 C969 1.370 . S
C968 C970 1.363 . S
C968 H984 0.931 . S
C969 C968 1.370 . S
C969 C973 1.408 . S
C970 C968 1.363 . S
C970 C971 1.370 . S
C970 C974 1.524 . S
C971 C963 1.503 . S
C971 C970 1.370 . S
C971 C972 1.403 . S
C972 C971 1.403 . S
C972 C973 1.404 . S
C972 C975 1.539 . S
C973 C969 1.408 . S
C973 C972 1.404 . S
C973 H985 0.930 . S
C974 C970 1.524 . S
C974 H986 0.956 . S
C974 H987 0.961 . S
C974 H988 0.961 . S
C975 C972 1.539 . S
C975 H989 0.958 . S
C975 H990 0.961 . S
C975 H991 0.960 . S
H976 C960 0.931 . S
H977 C965 0.929 . S
H978 C966 0.960 . S
H979 C966 0.962 . S
H980 C966 0.960 . S
H981 C967 0.961 . S
H982 C967 0.961 . S
H983 C967 0.961 . S
H984 C968 0.931 . S
H985 C973 0.930 . S
H986 C974 0.956 . S
H987 C974 0.961 . S
H988 C974 0.961 . S
H989 C975 0.958 . S
H990 C975 0.961 . S
H991 C975 0.960 . S
C992 C993 1.391 . S
C992 C994 1.394 . S
C992 H1008 0.931 . S
C993 C992 1.391 . S
C993 C997 1.376 . S
C994 C992 1.394 . S
C994 C995 1.369 . S
C994 C998 1.531 . S
C995 C994 1.369 . S
C995 C996 1.410 . S
C995 C1003 1.503 . S
C996 C995 1.410 . S
C996 C997 1.392 . S
C996 C999 1.511 . S
C997 C993 1.376 . S
C997 C996 1.392 . S
C997 H1009 0.929 . S
C998 C994 1.531 . S
C998 H1010 0.960 . S
C998 H1011 0.962 . S
C998 H1012 0.960 . S
C999 C996 1.511 . S
C999 H1013 0.961 . S
C999 H1014 0.961 . S
C999 H1015 0.961 . S
C1000 C1001 1.370 . S
C1000 C1002 1.363 . S
C1000 H1016 0.931 . S
C1001 C1000 1.370 . S
C1001 C1005 1.408 . S
C1002 C1000 1.363 . S
C1002 C1003 1.370 . S
C1002 C1006 1.524 . S
C1003 C995 1.503 . S
C1003 C1002 1.370 . S
C1003 C1004 1.403 . S
C1004 C1003 1.403 . S
C1004 C1005 1.404 . S
C1004 C1007 1.539 . S
C1005 C1001 1.408 . S
C1005 C1004 1.404 . S
C1005 H1017 0.930 . S
C1006 C1002 1.524 . S
C1006 H1018 0.956 . S
C1006 H1019 0.961 . S
C1006 H1020 0.961 . S
C1007 C1004 1.539 . S
C1007 H1021 0.958 . S
C1007 H1022 0.961 . S
C1007 H1023 0.960 . S
H1008 C992 0.931 . S
H1009 C997 0.929 . S
H1010 C998 0.960 . S
H1011 C998 0.962 . S
H1012 C998 0.960 . S
H1013 C999 0.961 . S
H1014 C999 0.961 . S
H1015 C999 0.961 . S
H1016 C1000 0.931 . S
H1017 C1005 0.930 . S
H1018 C1006 0.956 . S
H1019 C1006 0.961 . S
H1020 C1006 0.961 . S
H1021 C1007 0.958 . S
H1022 C1007 0.961 . S
H1023 C1007 0.960 . S
C1024 C1025 1.391 . S
C1024 C1026 1.394 . S
C1024 H1040 0.931 . S
C1025 C1024 1.391 . S
C1025 C1029 1.376 . S
C1026 C1024 1.394 . S
C1026 C1027 1.369 . S
C1026 C1030 1.531 . S
C1027 C1026 1.369 . S
C1027 C1028 1.410 . S
C1027 C1035 1.503 . S
C1028 C1027 1.410 . S
C1028 C1029 1.392 . S
C1028 C1031 1.511 . S
C1029 C1025 1.376 . S
C1029 C1028 1.392 . S
C1029 H1041 0.929 . S
C1030 C1026 1.531 . S
C1030 H1042 0.960 . S
C1030 H1043 0.962 . S
C1030 H1044 0.960 . S
C1031 C1028 1.511 . S
C1031 H1045 0.961 . S
C1031 H1046 0.961 . S
C1031 H1047 0.961 . S
C1032 C1033 1.370 . S
C1032 C1034 1.363 . S
C1032 H1048 0.931 . S
C1033 C1032 1.370 . S
C1033 C1037 1.408 . S
C1034 C1032 1.363 . S
C1034 C1035 1.370 . S
C1034 C1038 1.524 . S
C1035 C1027 1.503 . S
C1035 C1034 1.370 . S
C1035 C1036 1.403 . S
C1036 C1035 1.403 . S
C1036 C1037 1.404 . S
C1036 C1039 1.539 . S
C1037 C1033 1.408 . S
C1037 C1036 1.404 . S
C1037 H1049 0.930 . S
C1038 C1034 1.524 . S
C1038 H1050 0.956 . S
C1038 H1051 0.961 . S
C1038 H1052 0.961 . S
C1039 C1036 1.539 . S
C1039 H1053 0.958 . S
C1039 H1054 0.961 . S
C1039 H1055 0.960 . S
H1040 C1024 0.931 . S
H1041 C1029 0.929 . S
H1042 C1030 0.960 . S
H1043 C1030 0.962 . S
H1044 C1030 0.960 . S
H1045 C1031 0.961 . S
H1046 C1031 0.961 . S
H1047 C1031 0.961 . S
H1048 C1032 0.931 . S
H1049 C1037 0.930 . S
H1050 C1038 0.956 . S
H1051 C1038 0.961 . S
H1052 C1038 0.961 . S
H1053 C1039 0.958 . S
H1054 C1039 0.961 . S
H1055 C1039 0.960 . S
C1056 C1057 1.391 . S
C1056 C1058 1.394 . S
C1056 H1072 0.931 . S
C1057 C1056 1.391 . S
C1057 C1061 1.376 . S
C1058 C1056 1.394 . S
C1058 C1059 1.369 . S
C1058 C1062 1.531 . S
C1059 C1058 1.369 . S
C1059 C1060 1.410 . S
C1059 C1067 1.503 . S
C1060 C1059 1.410 . S
C1060 C1061 1.392 . S
C1060 C1063 1.511 . S
C1061 C1057 1.376 . S
C1061 C1060 1.392 . S
C1061 H1073 0.929 . S
C1062 C1058 1.531 . S
C1062 H1074 0.960 . S
C1062 H1075 0.962 . S
C1062 H1076 0.960 . S
C1063 C1060 1.511 . S
C1063 H1077 0.961 . S
C1063 H1078 0.961 . S
C1063 H1079 0.961 . S
C1064 C1065 1.370 . S
C1064 C1066 1.363 . S
C1064 H1080 0.931 . S
C1065 C1064 1.370 . S
C1065 C1069 1.408 . S
C1066 C1064 1.363 . S
C1066 C1067 1.370 . S
C1066 C1070 1.524 . S
C1067 C1059 1.503 . S
C1067 C1066 1.370 . S
C1067 C1068 1.403 . S
C1068 C1067 1.403 . S
C1068 C1069 1.404 . S
C1068 C1071 1.539 . S
C1069 C1065 1.408 . S
C1069 C1068 1.404 . S
C1069 H1081 0.930 . S
C1070 C1066 1.524 . S
C1070 H1082 0.956 . S
C1070 H1083 0.961 . S
C1070 H1084 0.961 . S
C1071 C1068 1.539 . S
C1071 H1085 0.958 . S
C1071 H1086 0.961 . S
C1071 H1087 0.960 . S
H1072 C1056 0.931 . S
H1073 C1061 0.929 . S
H1074 C1062 0.960 . S
H1075 C1062 0.962 . S
H1076 C1062 0.960 . S
H1077 C1063 0.961 . S
H1078 C1063 0.961 . S
H1079 C1063 0.961 . S
H1080 C1064 0.931 . S
H1081 C1069 0.930 . S
H1082 C1070 0.956 . S
H1083 C1070 0.961 . S
H1084 C1070 0.961 . S
H1085 C1071 0.958 . S
H1086 C1071 0.961 . S
H1087 C1071 0.960 . S
C1088 C1089 1.391 . S
C1088 C1090 1.394 . S
C1088 H1104 0.931 . S
C1089 C1088 1.391 . S
C1089 C1093 1.376 . S
C1090 C1088 1.394 . S
C1090 C1091 1.369 . S
C1090 C1094 1.531 . S
C1091 C1090 1.369 . S
C1091 C1092 1.410 . S
C1091 C1099 1.503 . S
C1092 C1091 1.410 . S
C1092 C1093 1.392 . S
C1092 C1095 1.511 . S
C1093 C1089 1.376 . S
C1093 C1092 1.392 . S
C1093 H1105 0.929 . S
C1094 C1090 1.531 . S
C1094 H1106 0.960 . S
C1094 H1107 0.962 . S
C1094 H1108 0.960 . S
C1095 C1092 1.511 . S
C1095 H1109 0.961 . S
C1095 H1110 0.961 . S
C1095 H1111 0.961 . S
C1096 C1097 1.370 . S
C1096 C1098 1.363 . S
C1096 H1112 0.931 . S
C1097 C1096 1.370 . S
C1097 C1101 1.408 . S
C1098 C1096 1.363 . S
C1098 C1099 1.370 . S
C1098 C1102 1.524 . S
C1099 C1091 1.503 . S
C1099 C1098 1.370 . S
C1099 C1100 1.403 . S
C1100 C1099 1.403 . S
C1100 C1101 1.404 . S
C1100 C1103 1.539 . S
C1101 C1097 1.408 . S
C1101 C1100 1.404 . S
C1101 H1113 0.930 . S
C1102 C1098 1.524 . S
C1102 H1114 0.956 . S
C1102 H1115 0.961 . S
C1102 H1116 0.961 . S
C1103 C1100 1.539 . S
C1103 H1117 0.958 . S
C1103 H1118 0.961 . S
C1103 H1119 0.960 . S
H1104 C1088 0.931 . S
H1105 C1093 0.929 . S
H1106 C1094 0.960 . S
H1107 C1094 0.962 . S
H1108 C1094 0.960 . S
H1109 C1095 0.961 . S
H1110 C1095 0.961 . S
H1111 C1095 0.961 . S
H1112 C1096 0.931 . S
H1113 C1101 0.930 . S
H1114 C1102 0.956 . S
H1115 C1102 0.961 . S
H1116 C1102 0.961 . S
H1117 C1103 0.958 . S
H1118 C1103 0.961 . S
H1119 C1103 0.960 . S
C1120 C1121 1.391 . S
C1120 C1122 1.394 . S
C1120 H1136 0.931 . S
C1121 C1120 1.391 . S
C1121 C1125 1.376 . S
C1122 C1120 1.394 . S
C1122 C1123 1.369 . S
C1122 C1126 1.531 . S
C1123 C1122 1.369 . S
C1123 C1124 1.410 . S
C1123 C1131 1.503 . S
C1124 C1123 1.410 . S
C1124 C1125 1.392 . S
C1124 C1127 1.511 . S
C1125 C1121 1.376 . S
C1125 C1124 1.392 . S
C1125 H1137 0.929 . S
C1126 C1122 1.531 . S
C1126 H1138 0.960 . S
C1126 H1139 0.962 . S
C1126 H1140 0.960 . S
C1127 C1124 1.511 . S
C1127 H1141 0.961 . S
C1127 H1142 0.961 . S
C1127 H1143 0.961 . S
C1128 C1129 1.370 . S
C1128 C1130 1.363 . S
C1128 H1144 0.931 . S
C1129 C1128 1.370 . S
C1129 C1133 1.408 . S
C1130 C1128 1.363 . S
C1130 C1131 1.370 . S
C1130 C1134 1.524 . S
C1131 C1123 1.503 . S
C1131 C1130 1.370 . S
C1131 C1132 1.403 . S
C1132 C1131 1.403 . S
C1132 C1133 1.404 . S
C1132 C1135 1.539 . S
C1133 C1129 1.408 . S
C1133 C1132 1.404 . S
C1133 H1145 0.930 . S
C1134 C1130 1.524 . S
C1134 H1146 0.956 . S
C1134 H1147 0.961 . S
C1134 H1148 0.961 . S
C1135 C1132 1.539 . S
C1135 H1149 0.958 . S
C1135 H1150 0.961 . S
C1135 H1151 0.960 . S
H1136 C1120 0.931 . S
H1137 C1125 0.929 . S
H1138 C1126 0.960 . S
H1139 C1126 0.962 . S
H1140 C1126 0.960 . S
H1141 C1127 0.961 . S
H1142 C1127 0.961 . S
H1143 C1127 0.961 . S
H1144 C1128 0.931 . S
H1145 C1133 0.930 . S
H1146 C1134 0.956 . S
H1147 C1134 0.961 . S
H1148 C1134 0.961 . S
H1149 C1135 0.958 . S
H1150 C1135 0.961 . S
H1151 C1135 0.960 . S
C1152 C1153 1.391 . S
C1152 C1154 1.394 . S
C1152 H1168 0.931 . S
C1153 C1152 1.391 . S
C1153 C1157 1.376 . S
C1154 C1152 1.394 . S
C1154 C1155 1.369 . S
C1154 C1158 1.531 . S
C1155 C1154 1.369 . S
C1155 C1156 1.410 . S
C1155 C1163 1.503 . S
C1156 C1155 1.410 . S
C1156 C1157 1.392 . S
C1156 C1159 1.511 . S
C1157 C1153 1.376 . S
C1157 C1156 1.392 . S
C1157 H1169 0.929 . S
C1158 C1154 1.531 . S
C1158 H1170 0.960 . S
C1158 H1171 0.962 . S
C1158 H1172 0.960 . S
C1159 C1156 1.511 . S
C1159 H1173 0.961 . S
C1159 H1174 0.961 . S
C1159 H1175 0.961 . S
C1160 C1161 1.370 . S
C1160 C1162 1.363 . S
C1160 H1176 0.931 . S
C1161 C1160 1.370 . S
C1161 C1165 1.408 . S
C1162 C1160 1.363 . S
C1162 C1163 1.370 . S
C1162 C1166 1.524 . S
C1163 C1155 1.503 . S
C1163 C1162 1.370 . S
C1163 C1164 1.403 . S
C1164 C1163 1.403 . S
C1164 C1165 1.404 . S
C1164 C1167 1.539 . S
C1165 C1161 1.408 . S
C1165 C1164 1.404 . S
C1165 H1177 0.930 . S
C1166 C1162 1.524 . S
C1166 H1178 0.956 . S
C1166 H1179 0.961 . S
C1166 H1180 0.961 . S
C1167 C1164 1.539 . S
C1167 H1181 0.958 . S
C1167 H1182 0.961 . S
C1167 H1183 0.960 . S
H1168 C1152 0.931 . S
H1169 C1157 0.929 . S
H1170 C1158 0.960 . S
H1171 C1158 0.962 . S
H1172 C1158 0.960 . S
H1173 C1159 0.961 . S
H1174 C1159 0.961 . S
H1175 C1159 0.961 . S
H1176 C1160 0.931 . S
H1177 C1165 0.930 . S
H1178 C1166 0.956 . S
H1179 C1166 0.961 . S
H1180 C1166 0.961 . S
H1181 C1167 0.958 . S
H1182 C1167 0.961 . S
H1183 C1167 0.960 . S
C1184 C1185 1.391 . S
C1184 C1186 1.394 . S
C1184 H1200 0.931 . S
C1185 C1184 1.391 . S
C1185 C1189 1.376 . S
C1186 C1184 1.394 . S
C1186 C1187 1.369 . S
C1186 C1190 1.531 . S
C1187 C1186 1.369 . S
C1187 C1188 1.410 . S
C1187 C1195 1.503 . S
C1188 C1187 1.410 . S
C1188 C1189 1.392 . S
C1188 C1191 1.511 . S
C1189 C1185 1.376 . S
C1189 C1188 1.392 . S
C1189 H1201 0.929 . S
C1190 C1186 1.531 . S
C1190 H1202 0.960 . S
C1190 H1203 0.962 . S
C1190 H1204 0.960 . S
C1191 C1188 1.511 . S
C1191 H1205 0.961 . S
C1191 H1206 0.961 . S
C1191 H1207 0.961 . S
C1192 C1193 1.370 . S
C1192 C1194 1.363 . S
C1192 H1208 0.931 . S
C1193 C1192 1.370 . S
C1193 C1197 1.408 . S
C1194 C1192 1.363 . S
C1194 C1195 1.370 . S
C1194 C1198 1.524 . S
C1195 C1187 1.503 . S
C1195 C1194 1.370 . S
C1195 C1196 1.403 . S
C1196 C1195 1.403 . S
C1196 C1197 1.404 . S
C1196 C1199 1.539 . S
C1197 C1193 1.408 . S
C1197 C1196 1.404 . S
C1197 H1209 0.930 . S
C1198 C1194 1.524 . S
C1198 H1210 0.956 . S
C1198 H1211 0.961 . S
C1198 H1212 0.961 . S
C1199 C1196 1.539 . S
C1199 H1213 0.958 . S
C1199 H1214 0.961 . S
C1199 H1215 0.960 . S
H1200 C1184 0.931 . S
H1201 C1189 0.929 . S
H1202 C1190 0.960 . S
H1203 C1190 0.962 . S
H1204 C1190 0.960 . S
H1205 C1191 0.961 . S
H1206 C1191 0.961 . S
H1207 C1191 0.961 . S
H1208 C1192 0.931 . S
H1209 C1197 0.930 . S
H1210 C1198 0.956 . S
H1211 C1198 0.961 . S
H1212 C1198 0.961 . S
H1213 C1199 0.958 . S
H1214 C1199 0.961 . S
H1215 C1199 0.960 . S
C1216 C1217 1.391 . S
C1216 C1218 1.394 . S
C1216 H1232 0.931 . S
C1217 C1216 1.391 . S
C1217 C1221 1.376 . S
C1218 C1216 1.394 . S
C1218 C1219 1.369 . S
C1218 C1222 1.531 . S
C1219 C1218 1.369 . S
C1219 C1220 1.410 . S
C1219 C1227 1.503 . S
C1220 C1219 1.410 . S
C1220 C1221 1.392 . S
C1220 C1223 1.511 . S
C1221 C1217 1.376 . S
C1221 C1220 1.392 . S
C1221 H1233 0.929 . S
C1222 C1218 1.531 . S
C1222 H1234 0.960 . S
C1222 H1235 0.962 . S
C1222 H1236 0.960 . S
C1223 C1220 1.511 . S
C1223 H1237 0.961 . S
C1223 H1238 0.961 . S
C1223 H1239 0.961 . S
C1224 C1225 1.370 . S
C1224 C1226 1.363 . S
C1224 H1240 0.931 . S
C1225 C1224 1.370 . S
C1225 C1229 1.408 . S
C1226 C1224 1.363 . S
C1226 C1227 1.370 . S
C1226 C1230 1.524 . S
C1227 C1219 1.503 . S
C1227 C1226 1.370 . S
C1227 C1228 1.403 . S
C1228 C1227 1.403 . S
C1228 C1229 1.404 . S
C1228 C1231 1.539 . S
C1229 C1225 1.408 . S
C1229 C1228 1.404 . S
C1229 H1241 0.930 . S
C1230 C1226 1.524 . S
C1230 H1242 0.956 . S
C1230 H1243 0.961 . S
C1230 H1244 0.961 . S
C1231 C1228 1.539 . S
C1231 H1245 0.958 . S
C1231 H1246 0.961 . S
C1231 H1247 0.960 . S
H1232 C1216 0.931 . S
H1233 C1221 0.929 . S
H1234 C1222 0.960 . S
H1235 C1222 0.962 . S
H1236 C1222 0.960 . S
H1237 C1223 0.961 . S
H1238 C1223 0.961 . S
H1239 C1223 0.961 . S
H1240 C1224 0.931 . S
H1241 C1229 0.930 . S
H1242 C1230 0.956 . S
H1243 C1230 0.961 . S
H1244 C1230 0.961 . S
H1245 C1231 0.958 . S
H1246 C1231 0.961 . S
H1247 C1231 0.960 . S
C1248 C1249 1.391 . S
C1248 C1250 1.394 . S
C1248 H1264 0.931 . S
C1249 C1248 1.391 . S
C1249 C1253 1.376 . S
C1250 C1248 1.394 . S
C1250 C1251 1.369 . S
C1250 C1254 1.531 . S
C1251 C1250 1.369 . S
C1251 C1252 1.410 . S
C1251 C1259 1.503 . S
C1252 C1251 1.410 . S
C1252 C1253 1.392 . S
C1252 C1255 1.511 . S
C1253 C1249 1.376 . S
C1253 C1252 1.392 . S
C1253 H1265 0.929 . S
C1254 C1250 1.531 . S
C1254 H1266 0.960 . S
C1254 H1267 0.962 . S
C1254 H1268 0.960 . S
C1255 C1252 1.511 . S
C1255 H1269 0.961 . S
C1255 H1270 0.961 . S
C1255 H1271 0.961 . S
C1256 C1257 1.370 . S
C1256 C1258 1.363 . S
C1256 H1272 0.931 . S
C1257 C1256 1.370 . S
C1257 C1261 1.408 . S
C1258 C1256 1.363 . S
C1258 C1259 1.370 . S
C1258 C1262 1.524 . S
C1259 C1251 1.503 . S
C1259 C1258 1.370 . S
C1259 C1260 1.403 . S
C1260 C1259 1.403 . S
C1260 C1261 1.404 . S
C1260 C1263 1.539 . S
C1261 C1257 1.408 . S
C1261 C1260 1.404 . S
C1261 H1273 0.930 . S
C1262 C1258 1.524 . S
C1262 H1274 0.956 . S
C1262 H1275 0.961 . S
C1262 H1276 0.961 . S
C1263 C1260 1.539 . S
C1263 H1277 0.958 . S
C1263 H1278 0.961 . S
C1263 H1279 0.960 . S
H1264 C1248 0.931 . S
H1265 C1253 0.929 . S
H1266 C1254 0.960 . S
H1267 C1254 0.962 . S
H1268 C1254 0.960 . S
H1269 C1255 0.961 . S
H1270 C1255 0.961 . S
H1271 C1255 0.961 . S
H1272 C1256 0.931 . S
H1273 C1261 0.930 . S
H1274 C1262 0.956 . S
H1275 C1262 0.961 . S
H1276 C1262 0.961 . S
H1277 C1263 0.958 . S
H1278 C1263 0.961 . S
H1279 C1263 0.960 . S
C1280 C1281 1.391 . S
C1280 C1282 1.394 . S
C1280 H1296 0.931 . S
C1281 C1280 1.391 . S
C1281 C1285 1.376 . S
C1282 C1280 1.394 . S
C1282 C1283 1.369 . S
C1282 C1286 1.531 . S
C1283 C1282 1.369 . S
C1283 C1284 1.410 . S
C1283 C1291 1.503 . S
C1284 C1283 1.410 . S
C1284 C1285 1.392 . S
C1284 C1287 1.511 . S
C1285 C1281 1.376 . S
C1285 C1284 1.392 . S
C1285 H1297 0.929 . S
C1286 C1282 1.531 . S
C1286 H1298 0.960 . S
C1286 H1299 0.962 . S
C1286 H1300 0.960 . S
C1287 C1284 1.511 . S
C1287 H1301 0.961 . S
C1287 H1302 0.961 . S
C1287 H1303 0.961 . S
C1288 C1289 1.370 . S
C1288 C1290 1.363 . S
C1288 H1304 0.931 . S
C1289 C1288 1.370 . S
C1289 C1293 1.408 . S
C1290 C1288 1.363 . S
C1290 C1291 1.370 . S
C1290 C1294 1.524 . S
C1291 C1283 1.503 . S
C1291 C1290 1.370 . S
C1291 C1292 1.403 . S
C1292 C1291 1.403 . S
C1292 C1293 1.404 . S
C1292 C1295 1.539 . S
C1293 C1289 1.408 . S
C1293 C1292 1.404 . S
C1293 H1305 0.930 . S
C1294 C1290 1.524 . S
C1294 H1306 0.956 . S
C1294 H1307 0.961 . S
C1294 H1308 0.961 . S
C1295 C1292 1.539 . S
C1295 H1309 0.958 . S
C1295 H1310 0.961 . S
C1295 H1311 0.960 . S
H1296 C1280 0.931 . S
H1297 C1285 0.929 . S
H1298 C1286 0.960 . S
H1299 C1286 0.962 . S
H1300 C1286 0.960 . S
H1301 C1287 0.961 . S
H1302 C1287 0.961 . S
H1303 C1287 0.961 . S
H1304 C1288 0.931 . S
H1305 C1293 0.930 . S
H1306 C1294 0.956 . S
H1307 C1294 0.961 . S
H1308 C1294 0.961 . S
H1309 C1295 0.958 . S
H1310 C1295 0.961 . S
H1311 C1295 0.960 . S
C1312 C1313 1.391 . S
C1312 C1314 1.394 . S
C1312 H1328 0.931 . S
C1313 C1312 1.391 . S
C1313 C1317 1.376 . S
C1314 C1312 1.394 . S
C1314 C1315 1.369 . S
C1314 C1318 1.531 1_545 S
C1315 C1314 1.369 . S
C1315 C1316 1.410 1_455 S
C1315 C1323 1.503 1_445 S
C1316 C1315 1.410 1_655 S
C1316 C1317 1.392 1_655 S
C1316 C1319 1.511 . S
C1317 C1313 1.376 . S
C1317 C1316 1.392 1_455 S
C1317 H1329 0.929 1_455 S
C1318 C1314 1.531 1_565 S
C1318 H1330 0.960 . S
C1318 H1331 0.962 . S
C1318 H1332 0.960 . S
C1319 C1316 1.511 . S
C1319 H1333 0.961 . S
C1319 H1334 0.961 . S
C1319 H1335 0.961 . S
C1320 C1321 1.370 . S
C1320 C1322 1.363 . S
C1320 H1336 0.931 . S
C1321 C1320 1.370 . S
C1321 C1325 1.408 . S
C1322 C1320 1.363 . S
C1322 C1323 1.370 . S
C1322 C1326 1.536 . S
C1323 C1315 1.503 1_665 S
C1323 C1322 1.370 . S
C1323 C1324 1.403 . S
C1324 C1323 1.403 . S
C1324 C1325 1.404 . S
C1324 C1327 1.539 . S
C1325 C1321 1.408 . S
C1325 C1324 1.404 . S
C1325 H1337 0.930 . S
C1326 C1322 1.536 . S
C1326 H1338 0.916 1_655 S
C1326 H1339 0.979 1_565 S
C1326 H1340 0.973 . S
C1327 C1324 1.539 . S
C1327 H1341 0.958 1_655 S
C1327 H1342 0.961 . S
C1327 H1343 0.960 1_565 S
H1328 C1312 0.931 . S
H1329 C1317 0.929 1_655 S
H1330 C1318 0.960 . S
H1331 C1318 0.962 . S
H1332 C1318 0.960 . S
H1333 C1319 0.961 . S
H1334 C1319 0.961 . S
H1335 C1319 0.961 . S
H1336 C1320 0.931 . S
H1337 C1325 0.930 . S
H1338 C1326 0.916 1_455 S
H1339 C1326 0.979 1_545 S
H1340 C1326 0.973 . S
H1341 C1327 0.958 1_455 S
H1342 C1327 0.961 . S
H1343 C1327 0.960 1_545 S
C1344 C1345 1.391 . S
C1344 C1346 1.394 . S
C1344 H1360 0.931 . S
C1345 C1344 1.391 . S
C1345 C1349 1.376 . S
C1346 C1344 1.394 . S
C1346 C1347 1.369 . S
C1346 C1350 1.531 . S
C1347 C1346 1.369 . S
C1347 C1348 1.410 . S
C1347 C1355 1.503 1_455 S
C1348 C1347 1.410 . S
C1348 C1349 1.392 . S
C1348 C1351 1.511 1_455 S
C1349 C1345 1.376 . S
C1349 C1348 1.392 . S
C1349 H1361 0.929 . S
C1350 C1346 1.531 . S
C1350 H1362 0.960 . S
C1350 H1363 0.962 . S
C1350 H1364 0.960 . S
C1351 C1348 1.511 1_655 S
C1351 H1365 0.961 . S
C1351 H1366 0.961 . S
C1351 H1367 0.961 . S
C1352 C1353 1.370 . S
C1352 C1354 1.363 . S
C1352 H1368 0.931 . S
C1353 C1352 1.370 . S
C1353 C1357 1.408 . S
C1354 C1352 1.363 . S
C1354 C1355 1.370 . S
C1354 C1358 1.524 . S
C1355 C1347 1.503 1_655 S
C1355 C1354 1.370 . S
C1355 C1356 1.403 . S
C1356 C1355 1.403 . S
C1356 C1357 1.404 . S
C1356 C1359 1.539 . S
C1357 C1353 1.408 . S
C1357 C1356 1.404 . S
C1357 H1369 0.930 . S
C1358 C1354 1.524 . S
C1358 H1370 0.941 1_655 S
C1358 H1371 0.961 . S
C1358 H1372 0.961 . S
C1359 C1356 1.539 . S
C1359 H1373 0.970 . S
C1359 H1374 0.961 . S
C1359 H1375 0.960 1_655 S
H1360 C1344 0.931 . S
H1361 C1349 0.929 . S
H1362 C1350 0.960 . S
H1363 C1350 0.962 . S
H1364 C1350 0.960 . S
H1365 C1351 0.961 . S
H1366 C1351 0.961 . S
H1367 C1351 0.961 . S
H1368 C1352 0.931 . S
H1369 C1357 0.930 . S
H1370 C1358 0.941 1_455 S
H1371 C1358 0.961 . S
H1372 C1358 0.961 . S
H1373 C1359 0.970 . S
H1374 C1359 0.961 . S
H1375 C1359 0.960 1_455 S
C1376 C1377 1.391 . S
C1376 C1378 1.394 . S
C1376 H1392 0.931 . S
C1377 C1376 1.391 . S
C1377 C1381 1.376 . S
C1378 C1376 1.394 . S
C1378 C1379 1.369 . S
C1378 C1382 1.531 . S
C1379 C1378 1.369 . S
C1379 C1380 1.410 . S
C1379 C1387 1.503 . S
C1380 C1379 1.410 . S
C1380 C1381 1.392 . S
C1380 C1383 1.511 . S
C1381 C1377 1.376 . S
C1381 C1380 1.392 . S
C1381 H1393 0.929 . S
C1382 C1378 1.531 . S
C1382 H1394 0.960 . S
C1382 H1395 0.962 . S
C1382 H1396 0.960 . S
C1383 C1380 1.511 . S
C1383 H1397 0.961 . S
C1383 H1398 0.961 . S
C1383 H1399 0.961 . S
C1384 C1385 1.370 . S
C1384 C1386 1.363 . S
C1384 H1400 0.931 . S
C1385 C1384 1.370 . S
C1385 C1389 1.408 . S
C1386 C1384 1.363 . S
C1386 C1387 1.370 . S
C1386 C1390 1.524 . S
C1387 C1379 1.503 . S
C1387 C1386 1.370 . S
C1387 C1388 1.403 . S
C1388 C1387 1.403 . S
C1388 C1389 1.404 . S
C1388 C1391 1.539 . S
C1389 C1385 1.408 . S
C1389 C1388 1.404 . S
C1389 H1401 0.930 . S
C1390 C1386 1.524 . S
C1390 H1402 0.956 . S
C1390 H1403 0.961 . S
C1390 H1404 0.961 . S
C1391 C1388 1.539 . S
C1391 H1405 0.958 . S
C1391 H1406 0.961 . S
C1391 H1407 0.960 . S
H1392 C1376 0.931 . S
H1393 C1381 0.929 . S
H1394 C1382 0.960 . S
H1395 C1382 0.962 . S
H1396 C1382 0.960 . S
H1397 C1383 0.961 . S
H1398 C1383 0.961 . S
H1399 C1383 0.961 . S
H1400 C1384 0.931 . S
H1401 C1389 0.930 . S
H1402 C1390 0.956 . S
H1403 C1390 0.961 . S
H1404 C1390 0.961 . S
H1405 C1391 0.958 . S
H1406 C1391 0.961 . S
H1407 C1391 0.960 . S
C1408 C1409 1.391 . S
C1408 C1410 1.394 1_545 S
C1408 H1424 0.931 . S
C1409 C1408 1.391 . S
C1409 C1413 1.376 . S
C1410 C1408 1.394 1_565 S
C1410 C1411 1.369 1_565 S
C1410 C1414 1.531 . S
C1411 C1410 1.369 1_545 S
C1411 C1412 1.410 . S
C1411 C1419 1.503 1_545 S
C1412 C1411 1.410 . S
C1412 C1413 1.392 . S
C1412 C1415 1.511 . S
C1413 C1409 1.376 . S
C1413 C1412 1.392 . S
C1413 H1425 0.929 . S
C1414 C1410 1.531 . S
C1414 H1426 0.960 . S
C1414 H1427 0.962 . S
C1414 H1428 0.960 . S
C1415 C1412 1.511 . S
C1415 H1429 0.961 . S
C1415 H1430 0.961 . S
C1415 H1431 0.961 . S
C1416 C1417 1.370 . S
C1416 C1418 1.363 1_565 S
C1416 H1432 0.931 1_565 S
C1417 C1416 1.370 . S
C1417 C1421 1.408 . S
C1418 C1416 1.363 1_545 S
C1418 C1419 1.370 1_545 S
C1418 C1422 1.524 . S
C1419 C1411 1.503 1_565 S
C1419 C1418 1.370 1_565 S
C1419 C1420 1.403 . S
C1420 C1419 1.403 . S
C1420 C1421 1.404 . S
C1420 C1423 1.539 . S
C1421 C1417 1.408 . S
C1421 C1420 1.404 . S
C1421 H1433 0.930 . S
C1422 C1418 1.524 . S
C1422 H1434 0.956 . S
C1422 H1435 0.961 . S
C1422 H1436 0.961 . S
C1423 C1420 1.539 . S
C1423 H1437 0.958 . S
C1423 H1438 0.961 . S
C1423 H1439 0.960 . S
H1424 C1408 0.931 . S
H1425 C1413 0.929 . S
H1426 C1414 0.960 . S
H1427 C1414 0.962 . S
H1428 C1414 0.960 . S
H1429 C1415 0.961 . S
H1430 C1415 0.961 . S
H1431 C1415 0.961 . S
H1432 C1416 0.931 1_545 S
H1433 C1421 0.930 . S
H1434 C1422 0.956 . S
H1435 C1422 0.961 . S
H1436 C1422 0.961 . S
H1437 C1423 0.958 . S
H1438 C1423 0.961 . S
H1439 C1423 0.960 . S
C1440 C1441 1.391 . S
C1440 C1442 1.394 . S
C1440 H1456 0.931 . S
C1441 C1440 1.391 . S
C1441 C1445 1.376 . S
C1442 C1440 1.394 . S
C1442 C1443 1.369 . S
C1442 C1446 1.531 1_455 S
C1443 C1442 1.369 . S
C1443 C1444 1.410 . S
C1443 C1451 1.503 1_455 S
C1444 C1443 1.410 . S
C1444 C1445 1.392 . S
C1444 C1447 1.511 . S
C1445 C1441 1.376 . S
C1445 C1444 1.392 . S
C1445 H1457 0.929 . S
C1446 C1442 1.531 1_655 S
C1446 H1458 0.960 . S
C1446 H1459 0.962 . S
C1446 H1460 0.962 . S
C1447 C1444 1.511 . S
C1447 H1461 0.961 . S
C1447 H1462 0.961 . S
C1447 H1463 0.961 . S
C1448 C1449 1.370 . S
C1448 C1450 1.363 . S
C1448 H1464 0.931 . S
C1449 C1448 1.370 . S
C1449 C1453 1.408 . S
C1450 C1448 1.363 . S
C1450 C1451 1.370 . S
C1450 C1454 1.524 . S
C1451 C1443 1.503 1_655 S
C1451 C1450 1.370 . S
C1451 C1452 1.403 1_655 S
C1452 C1451 1.403 1_455 S
C1452 C1453 1.404 1_455 S
C1452 C1455 1.539 . S
C1453 C1449 1.408 . S
C1453 C1452 1.404 1_655 S
C1453 H1465 0.930 1_655 S
C1454 C1450 1.524 . S
C1454 H1466 0.956 . S
C1454 H1467 0.961 . S
C1454 H1468 0.961 . S
C1455 C1452 1.539 . S
C1455 H1469 0.958 . S
C1455 H1470 0.961 . S
C1455 H1471 0.960 . S
H1456 C1440 0.931 . S
H1457 C1445 0.929 . S
H1458 C1446 0.960 . S
H1459 C1446 0.962 . S
H1460 C1446 0.962 . S
H1461 C1447 0.961 . S
H1462 C1447 0.961 . S
H1463 C1447 0.961 . S
H1464 C1448 0.931 . S
H1465 C1453 0.930 1_455 S
H1466 C1454 0.956 . S
H1467 C1454 0.961 . S
H1468 C1454 0.961 . S
H1469 C1455 0.958 . S
H1470 C1455 0.961 . S
H1471 C1455 0.960 . S
C1472 C1473 1.391 . S
C1472 C1474 1.394 . S
C1472 H1488 0.931 . S
C1473 C1472 1.391 . S
C1473 C1477 1.376 . S
C1474 C1472 1.394 . S
C1474 C1475 1.369 . S
C1474 C1478 1.531 . S
C1475 C1474 1.369 . S
C1475 C1476 1.410 . S
C1475 C1483 1.503 . S
C1476 C1475 1.410 . S
C1476 C1477 1.392 . S
C1476 C1479 1.511 . S
C1477 C1473 1.376 . S
C1477 C1476 1.392 . S
C1477 H1489 0.929 . S
C1478 C1474 1.531 . S
C1478 H1490 0.960 . S
C1478 H1491 0.962 . S
C1478 H1492 0.960 . S
C1479 C1476 1.511 . S
C1479 H1493 0.961 . S
C1479 H1494 0.961 . S
C1479 H1495 0.961 . S
C1480 C1481 1.370 . S
C1480 C1482 1.363 . S
C1480 H1496 0.931 . S
C1481 C1480 1.370 . S
C1481 C1485 1.408 . S
C1482 C1480 1.363 . S
C1482 C1483 1.370 . S
C1482 C1486 1.524 . S
C1483 C1475 1.503 . S
C1483 C1482 1.370 . S
C1483 C1484 1.403 . S
C1484 C1483 1.403 . S
C1484 C1485 1.404 . S
C1484 C1487 1.539 . S
C1485 C1481 1.408 . S
C1485 C1484 1.404 . S
C1485 H1497 0.930 . S
C1486 C1482 1.524 . S
C1486 H1498 0.956 . S
C1486 H1499 0.961 . S
C1486 H1500 0.961 . S
C1487 C1484 1.539 . S
C1487 H1501 0.958 . S
C1487 H1502 0.961 . S
C1487 H1503 0.960 . S
H1488 C1472 0.931 . S
H1489 C1477 0.929 . S
H1490 C1478 0.960 . S
H1491 C1478 0.962 . S
H1492 C1478 0.960 . S
H1493 C1479 0.961 . S
H1494 C1479 0.961 . S
H1495 C1479 0.961 . S
H1496 C1480 0.931 . S
H1497 C1485 0.930 . S
H1498 C1486 0.956 . S
H1499 C1486 0.961 . S
H1500 C1486 0.961 . S
H1501 C1487 0.958 . S
H1502 C1487 0.961 . S
H1503 C1487 0.960 . S
C1504 C1505 1.391 . S
C1504 C1506 1.394 . S
C1504 H1520 0.931 . S
C1505 C1504 1.391 . S
C1505 C1509 1.376 . S
C1506 C1504 1.394 . S
C1506 C1507 1.369 . S
C1506 C1510 1.531 . S
C1507 C1506 1.369 . S
C1507 C1508 1.410 . S
C1507 C1515 1.503 1_565 S
C1508 C1507 1.410 . S
C1508 C1509 1.392 . S
C1508 C1511 1.511 1_565 S
C1509 C1505 1.376 . S
C1509 C1508 1.392 . S
C1509 H1521 0.929 . S
C1510 C1506 1.531 . S
C1510 H1522 0.960 . S
C1510 H1523 0.962 . S
C1510 H1524 0.960 . S
C1511 C1508 1.511 1_545 S
C1511 H1525 0.961 . S
C1511 H1526 0.961 . S
C1511 H1527 0.961 . S
C1512 C1513 1.370 . S
C1512 C1514 1.363 . S
C1512 H1528 0.931 . S
C1513 C1512 1.370 . S
C1513 C1517 1.408 . S
C1514 C1512 1.363 . S
C1514 C1515 1.370 . S
C1514 C1518 1.524 . S
C1515 C1507 1.503 1_545 S
C1515 C1514 1.370 . S
C1515 C1516 1.403 . S
C1516 C1515 1.403 . S
C1516 C1517 1.404 . S
C1516 C1519 1.539 . S
C1517 C1513 1.408 . S
C1517 C1516 1.404 . S
C1517 H1529 0.930 . S
C1518 C1514 1.524 . S
C1518 H1530 0.956 1_545 S
C1518 H1531 0.961 . S
C1518 H1532 0.961 . S
C1519 C1516 1.539 . S
C1519 H1533 0.958 . S
C1519 H1534 0.961 . S
C1519 H1535 0.960 . S
H1520 C1504 0.931 . S
H1521 C1509 0.929 . S
H1522 C1510 0.960 . S
H1523 C1510 0.962 . S
H1524 C1510 0.960 . S
H1525 C1511 0.961 . S
H1526 C1511 0.961 . S
H1527 C1511 0.961 . S
H1528 C1512 0.931 . S
H1529 C1517 0.930 . S
H1530 C1518 0.956 1_565 S
H1531 C1518 0.961 . S
H1532 C1518 0.961 . S
H1533 C1519 0.958 . S
H1534 C1519 0.961 . S
H1535 C1519 0.960 . S
C1536 C1537 1.391 . S
C1536 C1538 1.394 1_545 S
C1536 H1552 0.931 1_545 S
C1537 C1536 1.391 . S
C1537 C1541 1.376 . S
C1538 C1536 1.394 1_565 S
C1538 C1539 1.369 1_565 S
C1538 C1542 1.531 . S
C1539 C1538 1.369 1_545 S
C1539 C1540 1.410 . S
C1539 C1547 1.503 1_445 S
C1540 C1539 1.410 . S
C1540 C1541 1.392 . S
C1540 C1543 1.511 1_455 S
C1541 C1537 1.376 . S
C1541 C1540 1.392 . S
C1541 H1553 0.929 . S
C1542 C1538 1.531 . S
C1542 H1554 0.960 . S
C1542 H1555 0.962 . S
C1542 H1556 0.960 . S
C1543 C1540 1.511 1_655 S
C1543 H1557 0.959 . S
C1543 H1558 0.961 . S
C1543 H1559 0.961 . S
C1544 C1545 1.370 . S
C1544 C1546 1.363 . S
C1544 H1560 0.931 . S
C1545 C1544 1.370 . S
C1545 C1549 1.408 . S
C1546 C1544 1.363 . S
C1546 C1547 1.370 . S
C1546 C1550 1.545 . S
C1547 C1539 1.503 1_665 S
C1547 C1546 1.370 . S
C1547 C1548 1.402 . S
C1548 C1547 1.402 . S
C1548 C1549 1.403 . S
C1548 C1551 1.540 1_565 S
C1549 C1545 1.408 . S
C1549 C1548 1.403 . S
C1549 H1561 0.930 . S
C1550 C1546 1.545 . S
C1550 H1562 0.932 1_655 S
C1550 H1563 0.951 1_655 S
C1550 H1564 0.975 . S
C1551 C1548 1.540 1_545 S
C1551 H1565 0.958 . S
C1551 H1566 0.961 . S
C1551 H1567 0.960 . S
H1552 C1536 0.931 1_565 S
H1553 C1541 0.929 . S
H1554 C1542 0.960 . S
H1555 C1542 0.962 . S
H1556 C1542 0.960 . S
H1557 C1543 0.959 . S
H1558 C1543 0.961 . S
H1559 C1543 0.961 . S
H1560 C1544 0.931 . S
H1561 C1549 0.930 . S
H1562 C1550 0.932 1_455 S
H1563 C1550 0.951 1_455 S
H1564 C1550 0.975 . S
H1565 C1551 0.958 . S
H1566 C1551 0.961 . S
H1567 C1551 0.960 . S
C1568 C1569 1.391 . S
C1568 C1570 1.394 . S
C1568 H1584 0.931 . S
C1569 C1568 1.391 . S
C1569 C1573 1.376 . S
C1570 C1568 1.394 . S
C1570 C1571 1.369 . S
C1570 C1574 1.531 . S
C1571 C1570 1.369 . S
C1571 C1572 1.410 . S
C1571 C1579 1.503 . S
C1572 C1571 1.410 . S
C1572 C1573 1.392 . S
C1572 C1575 1.511 . S
C1573 C1569 1.376 . S
C1573 C1572 1.392 . S
C1573 H1585 0.929 . S
C1574 C1570 1.531 . S
C1574 H1586 0.960 . S
C1574 H1587 0.962 . S
C1574 H1588 0.960 . S
C1575 C1572 1.511 . S
C1575 H1589 0.961 . S
C1575 H1590 0.961 . S
C1575 H1591 0.961 . S
C1576 C1577 1.370 . S
C1576 C1578 1.363 . S
C1576 H1592 0.931 . S
C1577 C1576 1.370 . S
C1577 C1581 1.408 . S
C1578 C1576 1.363 . S
C1578 C1579 1.370 . S
C1578 C1582 1.524 . S
C1579 C1571 1.503 . S
C1579 C1578 1.370 . S
C1579 C1580 1.403 . S
C1580 C1579 1.403 . S
C1580 C1581 1.404 . S
C1580 C1583 1.539 . S
C1581 C1577 1.408 . S
C1581 C1580 1.404 . S
C1581 H1593 0.930 . S
C1582 C1578 1.524 . S
C1582 H1594 0.956 . S
C1582 H1595 0.961 . S
C1582 H1596 0.961 . S
C1583 C1580 1.539 . S
C1583 H1597 0.958 . S
C1583 H1598 0.961 . S
C1583 H1599 0.960 . S
H1584 C1568 0.931 . S
H1585 C1573 0.929 . S
H1586 C1574 0.960 . S
H1587 C1574 0.962 . S
H1588 C1574 0.960 . S
H1589 C1575 0.961 . S
H1590 C1575 0.961 . S
H1591 C1575 0.961 . S
H1592 C1576 0.931 . S
H1593 C1581 0.930 . S
H1594 C1582 0.956 . S
H1595 C1582 0.961 . S
H1596 C1582 0.961 . S
H1597 C1583 0.958 . S
H1598 C1583 0.961 . S
H1599 C1583 0.960 . S
C1600 C1601 1.391 . S
C1600 C1602 1.394 . S
C1600 H1616 0.931 . S
C1601 C1600 1.391 . S
C1601 C1605 1.376 . S
C1602 C1600 1.394 . S
C1602 C1603 1.369 . S
C1602 C1606 1.531 . S
C1603 C1602 1.369 . S
C1603 C1604 1.410 . S
C1603 C1611 1.503 . S
C1604 C1603 1.410 . S
C1604 C1605 1.392 . S
C1604 C1607 1.511 . S
C1605 C1601 1.376 . S
C1605 C1604 1.392 . S
C1605 H1617 0.929 . S
C1606 C1602 1.531 . S
C1606 H1618 0.960 . S
C1606 H1619 0.962 . S
C1606 H1620 0.960 . S
C1607 C1604 1.511 . S
C1607 H1621 0.961 . S
C1607 H1622 0.961 . S
C1607 H1623 0.961 . S
C1608 C1609 1.370 . S
C1608 C1610 1.363 . S
C1608 H1624 0.931 . S
C1609 C1608 1.370 . S
C1609 C1613 1.408 . S
C1610 C1608 1.363 . S
C1610 C1611 1.370 . S
C1610 C1614 1.524 . S
C1611 C1603 1.503 . S
C1611 C1610 1.370 . S
C1611 C1612 1.403 . S
C1612 C1611 1.403 . S
C1612 C1613 1.404 . S
C1612 C1615 1.539 . S
C1613 C1609 1.408 . S
C1613 C1612 1.404 . S
C1613 H1625 0.930 . S
C1614 C1610 1.524 . S
C1614 H1626 0.956 . S
C1614 H1627 0.961 . S
C1614 H1628 0.961 . S
C1615 C1612 1.539 . S
C1615 H1629 0.958 . S
C1615 H1630 0.961 . S
C1615 H1631 0.960 . S
H1616 C1600 0.931 . S
H1617 C1605 0.929 . S
H1618 C1606 0.960 . S
H1619 C1606 0.962 . S
H1620 C1606 0.960 . S
H1621 C1607 0.961 . S
H1622 C1607 0.961 . S
H1623 C1607 0.961 . S
H1624 C1608 0.931 . S
H1625 C1613 0.930 . S
H1626 C1614 0.956 . S
H1627 C1614 0.961 . S
H1628 C1614 0.961 . S
H1629 C1615 0.958 . S
H1630 C1615 0.961 . S
H1631 C1615 0.960 . S
C1632 C1633 1.391 . S
C1632 C1634 1.394 . S
C1632 H1648 0.931 . S
C1633 C1632 1.391 . S
C1633 C1637 1.376 . S
C1634 C1632 1.394 . S
C1634 C1635 1.369 . S
C1634 C1638 1.531 . S
C1635 C1634 1.369 . S
C1635 C1636 1.410 . S
C1635 C1643 1.503 . S
C1636 C1635 1.410 . S
C1636 C1637 1.392 . S
C1636 C1639 1.511 . S
C1637 C1633 1.376 . S
C1637 C1636 1.392 . S
C1637 H1649 0.929 . S
C1638 C1634 1.531 . S
C1638 H1650 0.960 . S
C1638 H1651 0.962 . S
C1638 H1652 0.960 . S
C1639 C1636 1.511 . S
C1639 H1653 0.961 . S
C1639 H1654 0.961 . S
C1639 H1655 0.961 . S
C1640 C1641 1.370 . S
C1640 C1642 1.363 . S
C1640 H1656 0.931 . S
C1641 C1640 1.370 . S
C1641 C1645 1.408 . S
C1642 C1640 1.363 . S
C1642 C1643 1.370 . S
C1642 C1646 1.524 . S
C1643 C1635 1.503 . S
C1643 C1642 1.370 . S
C1643 C1644 1.403 . S
C1644 C1643 1.403 . S
C1644 C1645 1.404 . S
C1644 C1647 1.539 . S
C1645 C1641 1.408 . S
C1645 C1644 1.404 . S
C1645 H1657 0.930 . S
C1646 C1642 1.524 . S
C1646 H1658 0.956 . S
C1646 H1659 0.961 . S
C1646 H1660 0.961 . S
C1647 C1644 1.539 . S
C1647 H1661 0.958 . S
C1647 H1662 0.961 . S
C1647 H1663 0.960 . S
H1648 C1632 0.931 . S
H1649 C1637 0.929 . S
H1650 C1638 0.960 . S
H1651 C1638 0.962 . S
H1652 C1638 0.960 . S
H1653 C1639 0.961 . S
H1654 C1639 0.961 . S
H1655 C1639 0.961 . S
H1656 C1640 0.931 . S
H1657 C1645 0.930 . S
H1658 C1646 0.956 . S
H1659 C1646 0.961 . S
H1660 C1646 0.961 . S
H1661 C1647 0.958 . S
H1662 C1647 0.961 . S
H1663 C1647 0.960 . S
C1664 C1665 1.391 . S
C1664 C1666 1.394 . S
C1664 H1680 0.931 . S
C1665 C1664 1.391 . S
C1665 C1669 1.376 . S
C1666 C1664 1.394 . S
C1666 C1667 1.369 . S
C1666 C1670 1.531 . S
C1667 C1666 1.369 . S
C1667 C1668 1.410 . S
C1667 C1675 1.503 . S
C1668 C1667 1.410 . S
C1668 C1669 1.392 . S
C1668 C1671 1.511 . S
C1669 C1665 1.376 . S
C1669 C1668 1.392 . S
C1669 H1681 0.929 . S
C1670 C1666 1.531 . S
C1670 H1682 0.960 . S
C1670 H1683 0.962 . S
C1670 H1684 0.960 . S
C1671 C1668 1.511 . S
C1671 H1685 0.961 . S
C1671 H1686 0.961 . S
C1671 H1687 0.961 . S
C1672 C1673 1.370 . S
C1672 C1674 1.363 . S
C1672 H1688 0.931 . S
C1673 C1672 1.370 . S
C1673 C1677 1.408 . S
C1674 C1672 1.363 . S
C1674 C1675 1.370 . S
C1674 C1678 1.524 . S
C1675 C1667 1.503 . S
C1675 C1674 1.370 . S
C1675 C1676 1.403 . S
C1676 C1675 1.403 . S
C1676 C1677 1.404 . S
C1676 C1679 1.539 . S
C1677 C1673 1.408 . S
C1677 C1676 1.404 . S
C1677 H1689 0.930 . S
C1678 C1674 1.524 . S
C1678 H1690 0.956 . S
C1678 H1691 0.961 . S
C1678 H1692 0.961 . S
C1679 C1676 1.539 . S
C1679 H1693 0.958 . S
C1679 H1694 0.961 . S
C1679 H1695 0.960 . S
H1680 C1664 0.931 . S
H1681 C1669 0.929 . S
H1682 C1670 0.960 . S
H1683 C1670 0.962 . S
H1684 C1670 0.960 . S
H1685 C1671 0.961 . S
H1686 C1671 0.961 . S
H1687 C1671 0.961 . S
H1688 C1672 0.931 . S
H1689 C1677 0.930 . S
H1690 C1678 0.956 . S
H1691 C1678 0.961 . S
H1692 C1678 0.961 . S
H1693 C1679 0.958 . S
H1694 C1679 0.961 . S
H1695 C1679 0.960 . S
C1696 C1697 1.391 . S
C1696 C1698 1.394 . S
C1696 H1712 0.931 . S
C1697 C1696 1.391 . S
C1697 C1701 1.376 . S
C1698 C1696 1.394 . S
C1698 C1699 1.369 . S
C1698 C1702 1.531 . S
C1699 C1698 1.369 . S
C1699 C1700 1.410 . S
C1699 C1707 1.503 . S
C1700 C1699 1.410 . S
C1700 C1701 1.392 . S
C1700 C1703 1.511 . S
C1701 C1697 1.376 . S
C1701 C1700 1.392 . S
C1701 H1713 0.929 . S
C1702 C1698 1.531 . S
C1702 H1714 0.960 . S
C1702 H1715 0.962 . S
C1702 H1716 0.960 . S
C1703 C1700 1.511 . S
C1703 H1717 0.961 . S
C1703 H1718 0.961 . S
C1703 H1719 0.961 . S
C1704 C1705 1.370 . S
C1704 C1706 1.363 . S
C1704 H1720 0.931 . S
C1705 C1704 1.370 . S
C1705 C1709 1.408 . S
C1706 C1704 1.363 . S
C1706 C1707 1.370 . S
C1706 C1710 1.524 . S
C1707 C1699 1.503 . S
C1707 C1706 1.370 . S
C1707 C1708 1.403 . S
C1708 C1707 1.403 . S
C1708 C1709 1.404 . S
C1708 C1711 1.539 . S
C1709 C1705 1.408 . S
C1709 C1708 1.404 . S
C1709 H1721 0.930 . S
C1710 C1706 1.524 . S
C1710 H1722 0.956 . S
C1710 H1723 0.961 . S
C1710 H1724 0.961 . S
C1711 C1708 1.539 . S
C1711 H1725 0.958 . S
C1711 H1726 0.961 . S
C1711 H1727 0.960 . S
H1712 C1696 0.931 . S
H1713 C1701 0.929 . S
H1714 C1702 0.960 . S
H1715 C1702 0.962 . S
H1716 C1702 0.960 . S
H1717 C1703 0.961 . S
H1718 C1703 0.961 . S
H1719 C1703 0.961 . S
H1720 C1704 0.931 . S
H1721 C1709 0.930 . S
H1722 C1710 0.956 . S
H1723 C1710 0.961 . S
H1724 C1710 0.961 . S
H1725 C1711 0.958 . S
H1726 C1711 0.961 . S
H1727 C1711 0.960 . S
C1728 C1729 1.391 . S
C1728 C1730 1.394 . S
C1728 H1744 0.931 . S
C1729 C1728 1.391 . S
C1729 C1733 1.376 . S
C1730 C1728 1.394 . S
C1730 C1731 1.369 . S
C1730 C1734 1.531 . S
C1731 C1730 1.369 . S
C1731 C1732 1.410 . S
C1731 C1739 1.503 . S
C1732 C1731 1.410 . S
C1732 C1733 1.392 . S
C1732 C1735 1.511 . S
C1733 C1729 1.376 . S
C1733 C1732 1.392 . S
C1733 H1745 0.929 . S
C1734 C1730 1.531 . S
C1734 H1746 0.960 . S
C1734 H1747 0.962 . S
C1734 H1748 0.960 . S
C1735 C1732 1.511 . S
C1735 H1749 0.961 . S
C1735 H1750 0.961 . S
C1735 H1751 0.961 . S
C1736 C1737 1.370 . S
C1736 C1738 1.363 . S
C1736 H1752 0.931 . S
C1737 C1736 1.370 . S
C1737 C1741 1.408 . S
C1738 C1736 1.363 . S
C1738 C1739 1.370 . S
C1738 C1742 1.524 . S
C1739 C1731 1.503 . S
C1739 C1738 1.370 . S
C1739 C1740 1.403 . S
C1740 C1739 1.403 . S
C1740 C1741 1.404 . S
C1740 C1743 1.539 . S
C1741 C1737 1.408 . S
C1741 C1740 1.404 . S
C1741 H1753 0.930 . S
C1742 C1738 1.524 . S
C1742 H1754 0.956 . S
C1742 H1755 0.961 . S
C1742 H1756 0.961 . S
C1743 C1740 1.539 . S
C1743 H1757 0.958 . S
C1743 H1758 0.961 . S
C1743 H1759 0.960 . S
H1744 C1728 0.931 . S
H1745 C1733 0.929 . S
H1746 C1734 0.960 . S
H1747 C1734 0.962 . S
H1748 C1734 0.960 . S
H1749 C1735 0.961 . S
H1750 C1735 0.961 . S
H1751 C1735 0.961 . S
H1752 C1736 0.931 . S
H1753 C1741 0.930 . S
H1754 C1742 0.956 . S
H1755 C1742 0.961 . S
H1756 C1742 0.961 . S
H1757 C1743 0.958 . S
H1758 C1743 0.961 . S
H1759 C1743 0.960 . S
C1760 C1761 1.391 . S
C1760 C1762 1.394 . S
C1760 H1776 0.931 . S
C1761 C1760 1.391 . S
C1761 C1765 1.376 . S
C1762 C1760 1.394 . S
C1762 C1763 1.369 . S
C1762 C1766 1.531 . S
C1763 C1762 1.369 . S
C1763 C1764 1.410 . S
C1763 C1771 1.503 . S
C1764 C1763 1.410 . S
C1764 C1765 1.392 . S
C1764 C1767 1.511 . S
C1765 C1761 1.376 . S
C1765 C1764 1.392 . S
C1765 H1777 0.929 . S
C1766 C1762 1.531 . S
C1766 H1778 0.960 . S
C1766 H1779 0.962 . S
C1766 H1780 0.960 . S
C1767 C1764 1.511 . S
C1767 H1781 0.961 . S
C1767 H1782 0.961 . S
C1767 H1783 0.961 . S
C1768 C1769 1.370 . S
C1768 C1770 1.363 . S
C1768 H1784 0.931 . S
C1769 C1768 1.370 . S
C1769 C1773 1.408 . S
C1770 C1768 1.363 . S
C1770 C1771 1.370 . S
C1770 C1774 1.524 . S
C1771 C1763 1.503 . S
C1771 C1770 1.370 . S
C1771 C1772 1.403 . S
C1772 C1771 1.403 . S
C1772 C1773 1.404 . S
C1772 C1775 1.539 . S
C1773 C1769 1.408 . S
C1773 C1772 1.404 . S
C1773 H1785 0.930 . S
C1774 C1770 1.524 . S
C1774 H1786 0.956 . S
C1774 H1787 0.961 . S
C1774 H1788 0.961 . S
C1775 C1772 1.539 . S
C1775 H1789 0.958 . S
C1775 H1790 0.961 . S
C1775 H1791 0.960 . S
H1776 C1760 0.931 . S
H1777 C1765 0.929 . S
H1778 C1766 0.960 . S
H1779 C1766 0.962 . S
H1780 C1766 0.960 . S
H1781 C1767 0.961 . S
H1782 C1767 0.961 . S
H1783 C1767 0.961 . S
H1784 C1768 0.931 . S
H1785 C1773 0.930 . S
H1786 C1774 0.956 . S
H1787 C1774 0.961 . S
H1788 C1774 0.961 . S
H1789 C1775 0.958 . S
H1790 C1775 0.961 . S
H1791 C1775 0.960 . S
C1792 C1793 1.391 . S
C1792 C1794 1.394 . S
C1792 H1808 0.931 . S
C1793 C1792 1.391 . S
C1793 C1797 1.376 . S
C1794 C1792 1.394 . S
C1794 C1795 1.369 . S
C1794 C1798 1.531 . S
C1795 C1794 1.369 . S
C1795 C1796 1.410 . S
C1795 C1803 1.503 . S
C1796 C1795 1.410 . S
C1796 C1797 1.392 . S
C1796 C1799 1.511 . S
C1797 C1793 1.376 . S
C1797 C1796 1.392 . S
C1797 H1809 0.929 . S
C1798 C1794 1.531 . S
C1798 H1810 0.960 . S
C1798 H1811 0.962 . S
C1798 H1812 0.960 . S
C1799 C1796 1.511 . S
C1799 H1813 0.961 . S
C1799 H1814 0.961 . S
C1799 H1815 0.961 . S
C1800 C1801 1.370 . S
C1800 C1802 1.363 . S
C1800 H1816 0.931 . S
C1801 C1800 1.370 . S
C1801 C1805 1.408 . S
C1802 C1800 1.363 . S
C1802 C1803 1.370 . S
C1802 C1806 1.524 . S
C1803 C1795 1.503 . S
C1803 C1802 1.370 . S
C1803 C1804 1.403 . S
C1804 C1803 1.403 . S
C1804 C1805 1.404 . S
C1804 C1807 1.539 . S
C1805 C1801 1.408 . S
C1805 C1804 1.404 . S
C1805 H1817 0.930 . S
C1806 C1802 1.524 . S
C1806 H1818 0.956 . S
C1806 H1819 0.961 . S
C1806 H1820 0.961 . S
C1807 C1804 1.539 . S
C1807 H1821 0.958 . S
C1807 H1822 0.961 . S
C1807 H1823 0.960 . S
H1808 C1792 0.931 . S
H1809 C1797 0.929 . S
H1810 C1798 0.960 . S
H1811 C1798 0.962 . S
H1812 C1798 0.960 . S
H1813 C1799 0.961 . S
H1814 C1799 0.961 . S
H1815 C1799 0.961 . S
H1816 C1800 0.931 . S
H1817 C1805 0.930 . S
H1818 C1806 0.956 . S
H1819 C1806 0.961 . S
H1820 C1806 0.961 . S
H1821 C1807 0.958 . S
H1822 C1807 0.961 . S
H1823 C1807 0.960 . S
C545 C5 0.869 . S
C553 C447 0.911 . S
C577 C481 0.921 . S
C585 C39 0.889 . S
C609 C515 0.927 . S
C617 C73 0.911 . S
C641 C413 0.876 . S
C649 C107 0.914 . S
C673 C379 0.869 . S
C681 C141 0.898 . S
C705 C277 0.876 . S
C713 C175 0.914 . S
C737 C209 0.875 . S
C745 C311 0.914 . S
C769 C345 0.916 . S
C777 C243 0.888 . S
C801 C339 1.721 . S
C809 C9 1.798 . S
C833 C43 1.791 . S
C841 C373 1.705 . S
C865 C77 1.790 . S
C873 C407 1.719 . S
C897 C111 1.774 . S
C905 C305 1.699 . S
C929 C145 1.775 . S
C937 C543 1.697 . S
C961 C441 1.673 . S
C969 C179 1.788 . S
C993 C475 1.698 . S
C1001 C213 1.795 . S
C1025 C509 1.707 . S
C1033 C247 1.796 . S
C1057 C281 1.803 . S
C1065 C67 1.721 . S
C1089 C315 1.792 . S
C1097 C101 1.706 . S
C1121 C349 1.777 . S
C1129 C135 1.697 . S
C1153 C33 1.733 . S
C1161 C383 1.799 . S
C1185 C417 1.774 . S
C1193 C271 1.699 . S
C1217 C169 1.678 . S
C1225 C451 1.787 . S
C1249 C485 1.775 . S
C1257 C203 1.698 . S
C1281 C519 1.796 . S
C1289 C237 1.710 . S
C1313 C20 1.705 . S
C1321 C360 1.712 . S
C1345 C394 1.737 . S
C1353 C54 1.726 . S
C1377 C88 1.712 . S
C1385 C292 1.711 . S
C1409 C326 1.746 . S
C1417 C122 1.718 . S
C1441 C156 1.702 . S
C1449 C496 1.733 . S
C1473 C530 1.727 . S
C1481 C190 1.730 . S
C1505 C428 1.731 . S
C1513 C224 1.729 . S
C1537 C462 1.717 . S
C1545 C258 1.733 . S
C1569 C206 0.838 . S
C1577 C2 0.830 . S
C1601 C36 0.837 . S
C1609 C240 0.830 . S
C1633 C138 0.837 . S
C1641 C70 0.830 . S
C1665 C104 0.866 . S
C1673 C172 0.829 . S
C1697 C274 0.858 . S
C1705 C478 0.824 . S
C1729 C308 0.868 . S
C1737 C512 0.822 . S
C1761 C342 0.834 . S
C1769 C410 0.845 . S
C1793 C444 0.870 . S
C1801 C376 0.826 . S
