# Generated by pormake.
# Topology uog, (4)-cn, num edge types: 1
# Building blocks:
#     Node 0, Type 0, BuildingBlock: GALJAG_clean_sbu_0, # of connection points: 4
#     Node 1, Type 0, BuildingBlock: GALJAG_clean_sbu_0, # of connection points: 4
#     Node 2, Type 0, BuildingBlock: GALJAG_clean_sbu_0, # of connection points: 4
#     Node 3, Type 0, BuildingBlock: GALJAG_clean_sbu_0, # of connection points: 4
#     Node 4, Type 0, BuildingBlock: GALJAG_clean_sbu_0, # of connection points: 4
#     Node 5, Type 0, BuildingBlock: GALJAG_clean_sbu_0, # of connection points: 4
#     Edge 6, Type (0, 0), BuildingBlock: ZUJKAS_clean_linker_0, # of connection points: 2
#     Edge 7, Type (0, 0), BuildingBlock: ZUJKAS_clean_linker_0, # of connection points: 2
#     Edge 8, Type (0, 0), BuildingBlock: ZUJKAS_clean_linker_0, # of connection points: 2
#     Edge 9, Type (0, 0), BuildingBlock: ZUJKAS_clean_linker_0, # of connection points: 2
#     Edge 10, Type (0, 0), BuildingBlock: ZUJKAS_clean_linker_0, # of connection points: 2
#     Edge 11, Type (0, 0), BuildingBlock: ZUJKAS_clean_linker_0, # of connection points: 2
#     Edge 12, Type (0, 0), BuildingBlock: ZUJKAS_clean_linker_0, # of connection points: 2
#     Edge 13, Type (0, 0), BuildingBlock: ZUJKAS_clean_linker_0, # of connection points: 2
#     Edge 14, Type (0, 0), BuildingBlock: ZUJKAS_clean_linker_0, # of connection points: 2
#     Edge 15, Type (0, 0), BuildingBlock: ZUJKAS_clean_linker_0, # of connection points: 2
#     Edge 16, Type (0, 0), BuildingBlock: ZUJKAS_clean_linker_0, # of connection points: 2
#     Edge 17, Type (0, 0), BuildingBlock: ZUJKAS_clean_linker_0, # of connection points: 2
# Relax obj value: 0.035
# Max RMSD: 0.144
# Mean RMSD: 0.144
data_MOF--net-uog--node1-GALJAG_clean_sbu_0--edge1-ZUJKAS_clean_linker_0
_symmetry_space_group_name_H-M    P1
_symmetry_Int_Tables_number       1
_symmetry_cell_setting            triclinic
loop_
_symmetry_equiv_pos_as_xyz
'x, y, z'
_cell_length_a     37.745302
_cell_length_b     37.662153
_cell_length_c     55.588301
_cell_angle_alpha  90.135206
_cell_angle_beta   89.884895
_cell_angle_gamma 119.97239
loop_
_atom_site_label
_atom_site_type_symbol
_atom_site_fract_x
_atom_site_fract_y
_atom_site_fract_z
_atom_type_partial_charge
In0 In 0.58511 0.29677 0.15512 0.0
O1 O 0.53254 0.31017 0.16065 0.0
O2 O 0.59408 0.35806 0.16633 0.0
C3 C 0.55805 0.2175 0.14513 0.0
C4 C 0.61621 0.2965 0.1982 0.0
C5 C 0.61317 0.32755 0.11145 0.0
O6 O 0.53355 0.22994 0.15101 0.0
O7 O 0.59515 0.24516 0.14375 0.0
O8 O 0.637 0.32912 0.12798 0.0
O9 O 0.57577 0.31024 0.11706 0.0
C10 C 0.55664 0.34748 0.16602 0.0
O11 O 0.63875 0.31878 0.1812 0.0
O12 O 0.57862 0.2751 0.1933 0.0
In13 In 0.28783 0.58556 0.49336 0.0
O14 O 0.32281 0.63658 0.5207 0.0
O15 O 0.2862 0.57509 0.53328 0.0
C16 C 0.29693 0.62094 0.45043 0.0
C17 C 0.20756 0.55953 0.4973 0.0
C18 C 0.33817 0.55489 0.48716 0.0
O19 O 0.31227 0.64191 0.46933 0.0
O20 O 0.27749 0.58255 0.45337 0.0
O21 O 0.29995 0.53148 0.48984 0.0
O22 O 0.34992 0.59265 0.48736 0.0
C23 C 0.31008 0.61228 0.53843 0.0
O24 O 0.22046 0.53459 0.49381 0.0
O25 O 0.23512 0.59668 0.49903 0.0
In26 In 0.70092 0.28605 0.82523 0.0
O27 O 0.67752 0.32003 0.84849 0.0
O28 O 0.71306 0.2969 0.86491 0.0
C29 C 0.67847 0.28743 0.77981 0.0
C30 C 0.64788 0.20634 0.83341 0.0
C31 C 0.78179 0.33682 0.82009 0.0
O32 O 0.6722 0.30671 0.79644 0.0
O33 O 0.6961 0.268 0.78625 0.0
O34 O 0.76733 0.2992 0.82508 0.0
O35 O 0.75546 0.34779 0.81738 0.0
C36 C 0.69383 0.31613 0.86745 0.0
O37 O 0.68584 0.21949 0.8308 0.0
O38 O 0.63759 0.23344 0.8323 0.0
In39 In 0.42177 0.71514 0.1626 0.0
O40 O 0.4733 0.69994 0.16703 0.0
O41 O 0.41129 0.65272 0.17215 0.0
C42 C 0.44957 0.79453 0.15271 0.0
C43 C 0.39296 0.71567 0.20644 0.0
C44 C 0.39149 0.68533 0.1191 0.0
O45 O 0.47398 0.78142 0.15728 0.0
O46 O 0.41215 0.76754 0.15284 0.0
O47 O 0.36849 0.68323 0.13635 0.0
O48 O 0.42917 0.70261 0.12397 0.0
C49 C 0.4485 0.66247 0.17162 0.0
O50 O 0.36938 0.69485 0.18939 0.0
O51 O 0.43055 0.73561 0.20121 0.0
In52 In 0.70074 0.41078 0.48919 0.0
O53 O 0.76689 0.46445 0.49213 0.0
O54 O 0.75562 0.40308 0.49401 0.0
C55 C 0.64696 0.43752 0.48494 0.0
C56 C 0.67846 0.37872 0.53324 0.0
C57 C 0.69429 0.38055 0.4448 0.0
O58 O 0.68503 0.46236 0.48704 0.0
O59 O 0.63692 0.40015 0.4847 0.0
O60 O 0.67837 0.35743 0.46284 0.0
O61 O 0.71286 0.41851 0.44931 0.0
C62 C 0.78165 0.44083 0.49426 0.0
O63 O 0.67191 0.35639 0.51484 0.0
O64 O 0.69611 0.41679 0.52922 0.0
In65 In 0.28756 0.69936 0.83003 0.0
O66 O 0.30049 0.76586 0.83294 0.0
O67 O 0.35016 0.75418 0.83486 0.0
C68 C 0.20727 0.64564 0.82597 0.0
C69 C 0.29554 0.67532 0.87387 0.0
C70 C 0.30948 0.69217 0.78533 0.0
O71 O 0.22062 0.68387 0.82791 0.0
O72 O 0.2344 0.63536 0.82591 0.0
O73 O 0.32191 0.68115 0.80343 0.0
O74 O 0.28616 0.70635 0.78996 0.0
C75 C 0.33875 0.78044 0.83509 0.0
O76 O 0.31108 0.66845 0.85547 0.0
O77 O 0.27646 0.69435 0.86996 0.0
H78 H 0.48134 0.14988 0.14973 0.0
H79 H 0.4635 0.07752 0.14802 0.0
H80 H 0.58903 0.11443 0.13209 0.0
H81 H 0.60706 0.1863 0.13361 0.0
H82 H 0.48371 0.03334 0.10704 0.0
H83 H 0.5542 0.0417 0.19632 0.0
H84 H 0.53714 0.07692 0.18761 0.0
H85 H 0.58347 0.08224 0.17525 0.0
C86 C 0.50497 0.1425 0.14559 0.0
C87 C 0.54561 0.17377 0.14192 0.0
C88 C 0.49477 0.10125 0.14464 0.0
C89 C 0.52511 0.09085 0.14019 0.0
C90 C 0.56532 0.12194 0.13577 0.0
H91 H 0.52779 0.86056 0.15111 0.0
H92 H 0.54778 0.93301 0.14591 0.0
C93 C 0.57549 0.16298 0.13659 0.0
C94 C 0.51534 0.04763 0.14092 0.0
H95 H 0.52912 0.9799 0.17469 0.0
C96 C 0.49347 0.0215 0.12183 0.0
C97 C 0.52871 0.03265 0.16009 0.0
C98 C 0.55201 0.05961 0.18111 0.0
C99 C 0.4847 0.98059 0.12134 0.0
C100 C 0.49729 0.96525 0.1408 0.0
C101 C 0.51958 0.99166 0.15977 0.0
C102 C 0.48574 0.92142 0.14253 0.0
C103 C 0.46267 0.95446 0.09978 0.0
C104 C 0.44435 0.89099 0.14254 0.0
C105 C 0.43299 0.84986 0.14534 0.0
C106 C 0.46272 0.83819 0.14854 0.0
C107 C 0.50423 0.86862 0.14857 0.0
C108 C 0.51564 0.90995 0.14563 0.0
H109 H 0.46732 0.97353 0.08358 0.0
H110 H 0.47314 0.93231 0.09567 0.0
H111 H 0.42936 0.93698 0.10358 0.0
H112 H 0.42068 0.89909 0.14089 0.0
H113 H 0.4007 0.82724 0.14544 0.0
H114 H 0.4201 0.6016 0.48066 0.0
H115 H 0.47071 0.57955 0.47887 0.0
H116 H 0.37522 0.45372 0.48704 0.0
H117 H 0.32384 0.47568 0.48874 0.0
H118 H 0.48508 0.53577 0.5155 0.0
H119 H 0.44272 0.45206 0.42824 0.0
H120 H 0.42632 0.488 0.43656 0.0
H121 H 0.40191 0.4377 0.44957 0.0
C122 C 0.40966 0.56915 0.4819 0.0
C123 C 0.3679 0.54033 0.48484 0.0
C124 C 0.43871 0.55664 0.48089 0.0
C125 C 0.42673 0.51505 0.48265 0.0
C126 C 0.38502 0.48597 0.48531 0.0
H127 H 0.56449 0.38794 0.48352 0.0
H128 H 0.51203 0.40766 0.48304 0.0
C129 C 0.35575 0.49852 0.48636 0.0
C130 C 0.45845 0.5028 0.48267 0.0
H131 H 0.4955 0.45108 0.45045 0.0
C132 C 0.48742 0.51726 0.50129 0.0
C133 C 0.46134 0.47867 0.4641 0.0
C134 C 0.43167 0.46336 0.44334 0.0
C135 C 0.519 0.50784 0.50202 0.0
C136 C 0.52227 0.48413 0.48329 0.0
C137 C 0.49312 0.46948 0.46472 0.0
C138 C 0.5548 0.47289 0.48306 0.0
C139 C 0.54794 0.52257 0.52316 0.0
C140 C 0.59646 0.50305 0.48288 0.0
C141 C 0.62673 0.49184 0.48332 0.0
C142 C 0.61574 0.45028 0.48368 0.0
C143 C 0.57402 0.42026 0.48329 0.0
C144 C 0.54393 0.43144 0.48299 0.0
H145 H 0.53495 0.53071 0.53877 0.0
H146 H 0.55544 0.49888 0.52893 0.0
H147 H 0.57679 0.55041 0.51786 0.0
H148 H 0.60558 0.53524 0.4824 0.0
H149 H 0.6586 0.51562 0.48345 0.0
H150 H 0.81697 0.4184 0.81141 0.0
H151 H 0.88957 0.46957 0.81119 0.0
H152 H 0.91973 0.37532 0.82556 0.0
H153 H 0.84659 0.32347 0.82583 0.0
H154 H 0.94498 0.48521 0.85108 0.0
H155 H 0.99269 0.44107 0.76661 0.0
H156 H 0.94 0.42582 0.77293 0.0
H157 H 0.96356 0.40063 0.78775 0.0
C158 C 0.83897 0.40836 0.81434 0.0
C159 C 0.82605 0.36684 0.81863 0.0
C160 C 0.88045 0.43771 0.81424 0.0
C161 C 0.90994 0.42619 0.81821 0.0
C162 C 0.89736 0.38471 0.82217 0.0
H163 H 0.17377 0.5629 0.82557 0.0
H164 H 0.10158 0.51077 0.82388 0.0
C165 C 0.85565 0.35519 0.82239 0.0
C166 C 0.9537 0.45813 0.81911 0.0
H167 H 0.04459 0.49454 0.78953 0.0
C168 C 0.96684 0.48735 0.83764 0.0
C169 C 0.98195 0.46069 0.80154 0.0
C170 C 0.96901 0.43063 0.78094 0.0
C171 C 0.00777 0.51884 0.83929 0.0
C172 C 0.03605 0.52175 0.82156 0.0
C173 C 0.02283 0.49241 0.80304 0.0
C174 C 0.07982 0.55406 0.82235 0.0
C175 C 0.0205 0.54801 0.86036 0.0
C176 C 0.09172 0.59589 0.82178 0.0
C177 C 0.13317 0.62595 0.82294 0.0
C178 C 0.16334 0.61459 0.82438 0.0
C179 C 0.15128 0.5727 0.8245 0.0
C180 C 0.11001 0.5428 0.82349 0.0
H181 H -0.0018 0.5352 0.87541 0.0
H182 H 0.05109 0.55539 0.86714 0.0
H183 H 0.02216 0.57696 0.85454 0.0
H184 H 0.06898 0.60529 0.82035 0.0
H185 H 0.14157 0.65797 0.82264 0.0
H186 H 0.1407 0.48202 0.49426 0.0
H187 H 0.06825 0.46324 0.495 0.0
H188 H 0.10339 0.59039 0.50398 0.0
H189 H 0.17536 0.60936 0.50323 0.0
H190 H 0.02465 0.48158 0.53244 0.0
H191 H 0.02699 0.55179 0.44416 0.0
H192 H 0.06589 0.53983 0.45295 0.0
H193 H 0.06642 0.58442 0.46493 0.0
C194 C 0.13291 0.50589 0.49643 0.0
C195 C 0.16372 0.54715 0.49856 0.0
C196 C 0.0916 0.49515 0.49685 0.0
C197 C 0.08058 0.52554 0.49919 0.0
C198 C 0.11127 0.56658 0.50175 0.0
H199 H 0.84592 0.52016 0.49606 0.0
H200 H 0.91913 0.54239 0.49888 0.0
C201 C 0.1524 0.5773 0.50142 0.0
C202 C 0.03703 0.51458 0.49908 0.0
H203 H 0.96659 0.52695 0.46731 0.0
C204 C 0.01185 0.49133 0.51818 0.0
C205 C 0.02065 0.52782 0.48058 0.0
C206 C 0.0462 0.55209 0.45936 0.0
C207 C 0.97066 0.48116 0.51937 0.0
C208 C 0.95404 0.4938 0.50065 0.0
C209 C 0.97939 0.51742 0.48168 0.0
C210 C 0.90991 0.48085 0.49972 0.0
C211 C 0.94555 0.45753 0.54088 0.0
C212 C 0.88061 0.43905 0.49894 0.0
C213 C 0.8391 0.4264 0.49743 0.0
C214 C 0.82588 0.45529 0.49638 0.0
C215 C 0.8552 0.49724 0.49694 0.0
C216 C 0.89695 0.50992 0.49853 0.0
H217 H 0.96521 0.46161 0.55668 0.0
H218 H 0.92315 0.4672 0.54596 0.0
H219 H 0.92844 0.42438 0.53641 0.0
H220 H 0.88989 0.41608 0.49916 0.0
H221 H 0.81736 0.39383 0.49683 0.0
H222 H 0.42102 0.81534 0.8394 0.0
H223 H 0.47197 0.88798 0.8411 0.0
H224 H 0.3765 0.91887 0.83665 0.0
H225 H 0.32479 0.84557 0.83502 0.0
H226 H 0.48424 0.94705 0.80527 0.0
H227 H 0.44771 0.98648 0.89497 0.0
H228 H 0.43081 0.9343 0.88597 0.0
H229 H 0.40556 0.96036 0.87447 0.0
C230 C 0.41067 0.83747 0.83894 0.0
C231 C 0.36882 0.82471 0.83709 0.0
C232 C 0.43991 0.87901 0.8399 0.0
C233 C 0.42802 0.90875 0.83919 0.0
C234 C 0.38624 0.89629 0.83756 0.0
H235 H 0.56573 0.17352 0.83807 0.0
H236 H 0.51342 0.10128 0.8399 0.0
C237 C 0.35678 0.8545 0.83654 0.0
C238 C 0.45984 0.95269 0.83917 0.0
H239 H 0.49919 0.04077 0.87226 0.0
C240 C 0.48759 0.9676 0.81991 0.0
C241 C 0.46403 0.97928 0.85831 0.0
C242 C 0.43571 0.96443 0.87974 0.0
C243 C 0.51919 0.0086 0.81909 0.0
C244 C 0.52374 0.03517 0.83836 0.0
C245 C 0.49583 0.02027 0.85759 0.0
C246 C 0.55621 0.07896 0.8384 0.0
C247 C 0.54676 0.02332 0.7973 0.0
C248 C 0.59784 0.09052 0.83747 0.0
C249 C 0.628 0.13201 0.8363 0.0
C250 C 0.61693 0.16251 0.83626 0.0
C251 C 0.5753 0.15078 0.83799 0.0
C252 C 0.5453 0.10947 0.83907 0.0
H253 H 0.53293 0.00235 0.7817 0.0
H254 H 0.55362 0.05451 0.79194 0.0
H255 H 0.57606 0.02462 0.80166 0.0
H256 H 0.60699 0.06747 0.83746 0.0
H257 H 0.65982 0.14014 0.83511 0.0
H258 H 0.39855 0.58086 0.17861 0.0
H259 H 0.41715 0.52753 0.18049 0.0
H260 H 0.54448 0.61884 0.17306 0.0
H261 H 0.52606 0.67289 0.17098 0.0
H262 H 0.46499 0.51521 0.14181 0.0
H263 H 0.535 0.54379 0.23296 0.0
H264 H 0.49913 0.56016 0.22459 0.0
H265 H 0.55061 0.58733 0.2135 0.0
C266 C 0.43061 0.58981 0.1776 0.0
C267 C 0.4609 0.63115 0.17463 0.0
C268 C 0.44111 0.55922 0.17866 0.0
C269 C 0.48211 0.5693 0.17703 0.0
C270 C 0.51265 0.61058 0.17458 0.0
H271 H 0.60488 0.42867 0.17532 0.0
H272 H 0.58476 0.48067 0.1786 0.0
C273 C 0.50212 0.64135 0.17335 0.0
C274 C 0.49233 0.53614 0.17666 0.0
H275 H 0.53616 0.49197 0.20963 0.0
C276 C 0.48049 0.50999 0.15662 0.0
C277 C 0.51251 0.52959 0.19603 0.0
C278 C 0.52496 0.55644 0.21812 0.0
C279 C 0.48905 0.4778 0.1552 0.0
C280 C 0.50896 0.4709 0.17468 0.0
C281 C 0.52064 0.49707 0.19479 0.0
C282 C 0.5201 0.43826 0.17396 0.0
C283 C 0.47786 0.45237 0.1325 0.0
C284 C 0.4903 0.39679 0.1708 0.0
C285 C 0.50179 0.3668 0.16871 0.0
C286 C 0.54322 0.37782 0.17005 0.0
C287 C 0.5727 0.41912 0.17413 0.0
C288 C 0.56126 0.44896 0.17605 0.0
H289 H 0.47262 0.46809 0.11718 0.0
H290 H 0.50222 0.44544 0.12738 0.0
H291 H 0.44919 0.42293 0.13558 0.0
H292 H 0.45823 0.38768 0.16971 0.0
H293 H 0.47841 0.33521 0.16572 0.0
H294 H 0.73332 0.3181 0.90858 0.0
H295 H 0.7225 0.33704 0.94879 0.0
H296 H 0.63504 0.36783 0.92035 0.0
H297 H 0.64564 0.34873 0.87979 0.0
H298 H 0.7267 0.41259 0.96814 0.0
H299 H 0.57201 0.27277 0.97021 0.0
H300 H 0.61025 0.27915 0.94842 0.0
H301 H 0.58389 0.30747 0.94537 0.0
C302 C 0.71208 0.32931 0.9108 0.0
C303 C 0.6899 0.33146 0.89114 0.0
C304 C 0.70616 0.34036 0.93375 0.0
C305 C 0.67783 0.35352 0.93746 0.0
C306 C 0.65689 0.35749 0.91775 0.0
H307 H 0.57255 0.34535 0.07779 0.0
H308 H 0.59072 0.36192 0.0355 0.0
C309 C 0.66295 0.34658 0.89467 0.0
C310 C 0.66774 0.3591 0.96231 0.0
H311 H 0.59577 0.31045 0.00577 0.0
C312 C 0.69786 0.39073 0.97638 0.0
C313 C 0.63011 0.33043 0.97286 0.0
C314 C 0.59715 0.29533 0.95859 0.0
C315 C 0.6916 0.39389 0.00101 0.0
C316 C 0.6547 0.36401 0.01181 0.0
C317 C 0.62404 0.33337 -0.00254 0.0
C318 C 0.64783 0.36173 0.03814 0.0
C319 C 0.72463 0.42897 0.01519 0.0
C320 C 0.6744 0.35709 0.05382 0.0
C321 C 0.66429 0.3481 0.07812 0.0
C322 C 0.62705 0.34275 0.0869 0.0
C323 C 0.60132 0.349 0.07141 0.0
C324 C 0.6117 0.35858 0.04728 0.0
H325 H 0.74325 0.45587 0.00347 0.0
H326 H 0.71156 0.43854 0.03008 0.0
H327 H 0.74545 0.41923 0.02301 0.0
H328 H 0.70191 0.35831 0.04707 0.0
H329 H 0.68451 0.34319 0.08968 0.0
H330 H 0.31914 0.66127 0.22625 0.0
H331 H 0.2995 0.65664 0.26863 0.0
H332 H 0.41432 0.76576 0.28424 0.0
H333 H 0.43458 0.7697 0.24217 0.0
H334 H 0.40212 0.70452 0.31264 0.0
H335 H 0.26182 0.71642 0.31252 0.0
H336 H 0.25812 0.67761 0.29224 0.0
H337 H 0.29552 0.7305 0.28683 0.0
C338 C 0.33978 0.68466 0.23867 0.0
C339 C 0.37846 0.71562 0.23104 0.0
C340 C 0.32841 0.68222 0.26283 0.0
C341 C 0.35526 0.71118 0.27955 0.0
C342 C 0.39311 0.74319 0.27164 0.0
H343 H 0.34777 0.70081 0.43745 0.0
H344 H 0.36129 0.72894 0.39649 0.0
C345 C 0.40467 0.74533 0.24762 0.0
C346 C 0.34631 0.7052 0.30563 0.0
H347 H 0.27347 0.68676 0.34799 0.0
C348 C 0.37437 0.70147 0.32044 0.0
C349 C 0.31004 0.70111 0.31575 0.0
C350 C 0.27987 0.70704 0.30103 0.0
C351 C 0.36636 0.69205 0.34489 0.0
C352 C 0.32944 0.68645 0.35478 0.0
C353 C 0.30181 0.69123 0.34023 0.0
C354 C 0.31766 0.67175 0.37965 0.0
C355 C 0.39652 0.68628 0.35978 0.0
C356 C 0.28804 0.63072 0.38356 0.0
C357 C 0.28054 0.61458 0.40675 0.0
C358 C 0.30238 0.63937 0.4264 0.0
C359 C 0.33064 0.68104 0.42259 0.0
C360 C 0.33834 0.69712 0.39929 0.0
H361 H 0.42142 0.68709 0.34867 0.0
H362 H 0.41051 0.71101 0.37345 0.0
H363 H 0.38065 0.65656 0.36947 0.0
H364 H 0.27193 0.61075 0.36854 0.0
H365 H 0.25835 0.58243 0.40919 0.0
H366 H 0.65166 0.33585 0.7595 0.0
H367 H 0.64023 0.34154 0.71666 0.0
H368 H 0.66885 0.24658 0.70037 0.0
H369 H 0.68115 0.24138 0.74296 0.0
H370 H 0.71361 0.31508 0.67412 0.0
H371 H 0.54973 0.27013 0.66967 0.0
H372 H 0.57786 0.30928 0.69162 0.0
H373 H 0.57177 0.2591 0.6954 0.0
C374 C 0.65488 0.31579 0.7468 0.0
C375 C 0.66753 0.28838 0.75449 0.0
C376 C 0.64802 0.31882 0.72238 0.0
C377 C 0.6532 0.2941 0.7054 0.0
C378 C 0.66451 0.26579 0.71321 0.0
H379 H 0.64859 0.29939 0.5478 0.0
H380 H 0.63746 0.27406 0.5894 0.0
C381 C 0.67162 0.26294 0.73753 0.0
C382 C 0.65124 0.30075 0.67935 0.0
H383 H 0.59082 0.30534 0.63522 0.0
C384 C 0.68654 0.31231 0.66556 0.0
C385 C 0.61587 0.2971 0.66825 0.0
C386 C 0.57652 0.28283 0.68194 0.0
C387 C 0.68786 0.32166 0.64111 0.0
C388 C 0.65307 0.31944 0.63027 0.0
C389 C 0.61739 0.30695 0.64377 0.0
C390 C 0.65476 0.33297 0.60529 0.0
C391 C 0.7268 0.33515 0.62708 0.0
C392 C 0.6676 0.37419 0.60076 0.0
C393 C 0.67423 0.38873 0.57721 0.0
C394 C 0.66801 0.36218 0.55784 0.0
C395 C 0.65365 0.32048 0.5624 0.0
C396 C 0.64717 0.30597 0.58606 0.0
H397 H 0.75084 0.33409 0.63803 0.0
H398 H 0.72039 0.31519 0.61106 0.0
H399 H 0.73876 0.36697 0.62055 0.0
H400 H 0.67378 0.39538 0.6155 0.0
H401 H 0.68513 0.42099 0.57423 0.0
H402 H 0.25613 0.67761 0.91424 0.0
H403 H 0.26878 0.66512 0.9556 0.0
H404 H 0.35843 0.63457 0.93046 0.0
H405 H 0.34583 0.64686 0.88881 0.0
H406 H 0.27039 0.59103 0.97828 0.0
H407 H 0.41687 0.74024 0.97653 0.0
H408 H 0.37604 0.72851 0.95551 0.0
H409 H 0.40672 0.70469 0.95224 0.0
C410 C 0.27818 0.66772 0.91746 0.0
C411 C 0.30036 0.66362 0.89838 0.0
C412 C 0.28514 0.66037 0.94105 0.0
C413 C 0.31455 0.6491 0.94593 0.0
C414 C 0.33559 0.64328 0.9269 0.0
H415 H 0.43202 0.672 0.08313 0.0
H416 H 0.41087 0.65512 0.04126 0.0
C417 C 0.32842 0.65035 0.9032 0.0
C418 C 0.32591 0.64764 0.97108 0.0
H419 H 0.39798 0.70451 0.01297 0.0
C420 C 0.29846 0.6155 0.98592 0.0
C421 C 0.36243 0.6798 0.98081 0.0
C422 C 0.39229 0.71549 0.96559 0.0
C423 C 0.30666 0.61481 0.01049 0.0
C424 C 0.34271 0.64763 0.02037 0.0
C425 C 0.37042 0.67931 0.00533 0.0
C426 C 0.3521 0.65105 0.04638 0.0
C427 C 0.27682 0.57898 0.02556 0.0
C428 C 0.32568 0.65356 0.06326 0.0
C429 C 0.33757 0.66287 0.08732 0.0
C430 C 0.37634 0.67051 0.09465 0.0
C431 C 0.40206 0.66654 0.07791 0.0
C432 C 0.39 0.6568 0.05401 0.0
H433 H 0.25838 0.5513 0.01432 0.0
H434 H 0.29285 0.57144 0.03962 0.0
H435 H 0.25541 0.5869 0.03457 0.0
H436 H 0.2967 0.6502 0.05765 0.0
H437 H 0.31729 0.66594 0.09988 0.0
H438 H 0.73192 0.42464 0.40476 0.0
H439 H 0.72307 0.39999 0.36331 0.0
H440 H 0.64076 0.27676 0.38742 0.0
H441 H 0.64941 0.30122 0.42916 0.0
H442 H 0.73309 0.33283 0.34117 0.0
H443 H 0.57501 0.30913 0.33939 0.0
H444 H 0.61195 0.34067 0.36184 0.0
H445 H 0.58777 0.28589 0.36359 0.0
C446 C 0.71218 0.39222 0.4013 0.0
C447 C 0.69099 0.36486 0.42012 0.0
C448 C 0.70738 0.3782 0.37764 0.0
C449 C 0.68116 0.3367 0.37242 0.0
C450 C 0.661 0.30898 0.39121 0.0
H451 H 0.57965 0.23781 0.23222 0.0
H452 H 0.59911 0.24177 0.27441 0.0
C453 C 0.66594 0.32297 0.41496 0.0
C454 C 0.67261 0.32343 0.3471 0.0
H455 H 0.6004 0.29765 0.30359 0.0
C456 C 0.70397 0.32463 0.33291 0.0
C457 C 0.63462 0.31291 0.33654 0.0
C458 C 0.60034 0.31222 0.35098 0.0
C459 C 0.69836 0.31587 0.30819 0.0
C460 C 0.66078 0.30671 0.29745 0.0
C461 C 0.62917 0.30456 0.31186 0.0
C462 C 0.65372 0.30124 0.27118 0.0
C463 C 0.73264 0.31645 0.29387 0.0
C464 C 0.67861 0.33289 0.25519 0.0
C465 C 0.6678 0.33042 0.23094 0.0
C466 C 0.63151 0.29669 0.22254 0.0
C467 C 0.60765 0.26432 0.23832 0.0
C468 C 0.61876 0.26649 0.26239 0.0
H469 H 0.75285 0.31027 0.30551 0.0
H470 H 0.72067 0.29346 0.27913 0.0
H471 H 0.75159 0.34728 0.28582 0.0
H472 H 0.70518 0.36044 0.26167 0.0
H473 H 0.68653 0.35587 0.21913 0.0
H474 H 0.26978 0.69202 0.74491 0.0
H475 H 0.2869 0.68582 0.70347 0.0
H476 H 0.39284 0.68069 0.72775 0.0
H477 H 0.37448 0.68492 0.76966 0.0
H478 H 0.35139 0.73371 0.67686 0.0
H479 H 0.33939 0.58089 0.68594 0.0
H480 H 0.32315 0.6026 0.70946 0.0
H481 H 0.37666 0.62065 0.70486 0.0
C482 C 0.29664 0.68939 0.74145 0.0
C483 C 0.32065 0.6886 0.76043 0.0
C484 C 0.30651 0.68603 0.71775 0.0
C485 C 0.34094 0.68239 0.71248 0.0
C486 C 0.36562 0.68252 0.73141 0.0
H487 H 0.37582 0.68336 0.55469 0.0
H488 H 0.39411 0.70458 0.59676 0.0
C489 C 0.35522 0.68509 0.75529 0.0
C490 C 0.3497 0.67778 0.68703 0.0
H491 H 0.35071 0.6091 0.64734 0.0
C492 C 0.35171 0.70669 0.67036 0.0
C493 C 0.35033 0.64258 0.67869 0.0
C494 C 0.34697 0.6097 0.69559 0.0
C495 C 0.35101 0.69988 0.64552 0.0
C496 C 0.35003 0.66388 0.63716 0.0
C497 C 0.35132 0.63659 0.65384 0.0
C498 C 0.34168 0.65086 0.61164 0.0
C499 C 0.34829 0.72979 0.62864 0.0
C500 C 0.30709 0.61305 0.60609 0.0
C501 C 0.29725 0.60055 0.58227 0.0
C502 C 0.32148 0.62587 0.56347 0.0
C503 C 0.35638 0.66357 0.56891 0.0
C504 C 0.36673 0.67576 0.59289 0.0
H505 H 0.34069 0.75101 0.63827 0.0
H506 H 0.37821 0.74854 0.61958 0.0
H507 H 0.32473 0.71337 0.61461 0.0
H508 H 0.28721 0.59338 0.62023 0.0
H509 H 0.27018 0.57133 0.57858 0.0
loop_
_geom_bond_atom_site_label_1
_geom_bond_atom_site_label_2
_geom_bond_distance
_geom_bond_site_symmetry_2
_ccdc_geom_bond_type
In0 O1 2.294 . S
In0 O2 2.326 . S
In0 O6 2.266 . S
In0 O7 2.326 . S
In0 O8 2.266 . S
In0 O9 2.326 . S
In0 O11 2.294 . S
In0 O12 2.326 . S
O1 In0 2.294 . S
O1 C10 1.240 . S
O2 In0 2.326 . S
O2 C10 1.252 . S
C3 O6 1.252 . S
C3 O7 1.260 . S
C4 O11 1.240 . S
C4 O12 1.252 . S
C5 O8 1.252 . S
C5 O9 1.260 . S
O6 In0 2.266 . S
O6 C3 1.252 . S
O7 In0 2.326 . S
O7 C3 1.260 . S
O8 In0 2.266 . S
O8 C5 1.252 . S
O9 In0 2.326 . S
O9 C5 1.260 . S
C10 O1 1.240 . S
C10 O2 1.252 . S
O11 In0 2.294 . S
O11 C4 1.240 . S
O12 In0 2.326 . S
O12 C4 1.252 . S
In13 O14 2.294 . S
In13 O15 2.326 . S
In13 O19 2.266 . S
In13 O20 2.326 . S
In13 O21 2.266 . S
In13 O22 2.326 . S
In13 O24 2.294 . S
In13 O25 2.326 . S
O14 In13 2.294 . S
O14 C23 1.240 . S
O15 In13 2.326 . S
O15 C23 1.252 . S
C16 O19 1.252 . S
C16 O20 1.260 . S
C17 O24 1.240 . S
C17 O25 1.252 . S
C18 O21 1.252 . S
C18 O22 1.260 . S
O19 In13 2.266 . S
O19 C16 1.252 . S
O20 In13 2.326 . S
O20 C16 1.260 . S
O21 In13 2.266 . S
O21 C18 1.252 . S
O22 In13 2.326 . S
O22 C18 1.260 . S
C23 O14 1.240 . S
C23 O15 1.252 . S
O24 In13 2.294 . S
O24 C17 1.240 . S
O25 In13 2.326 . S
O25 C17 1.252 . S
In26 O27 2.294 . S
In26 O28 2.326 . S
In26 O32 2.266 . S
In26 O33 2.326 . S
In26 O34 2.266 . S
In26 O35 2.326 . S
In26 O37 2.294 . S
In26 O38 2.326 . S
O27 In26 2.294 . S
O27 C36 1.240 . S
O28 In26 2.326 . S
O28 C36 1.252 . S
C29 O32 1.252 . S
C29 O33 1.260 . S
C30 O37 1.240 . S
C30 O38 1.252 . S
C31 O34 1.252 . S
C31 O35 1.260 . S
O32 In26 2.266 . S
O32 C29 1.252 . S
O33 In26 2.326 . S
O33 C29 1.260 . S
O34 In26 2.266 . S
O34 C31 1.252 . S
O35 In26 2.326 . S
O35 C31 1.260 . S
C36 O27 1.240 . S
C36 O28 1.252 . S
O37 In26 2.294 . S
O37 C30 1.240 . S
O38 In26 2.326 . S
O38 C30 1.252 . S
In39 O40 2.294 . S
In39 O41 2.326 . S
In39 O45 2.266 . S
In39 O46 2.326 . S
In39 O47 2.266 . S
In39 O48 2.326 . S
In39 O50 2.294 . S
In39 O51 2.326 . S
O40 In39 2.294 . S
O40 C49 1.240 . S
O41 In39 2.326 . S
O41 C49 1.252 . S
C42 O45 1.252 . S
C42 O46 1.260 . S
C43 O50 1.240 . S
C43 O51 1.252 . S
C44 O47 1.252 . S
C44 O48 1.260 . S
O45 In39 2.266 . S
O45 C42 1.252 . S
O46 In39 2.326 . S
O46 C42 1.260 . S
O47 In39 2.266 . S
O47 C44 1.252 . S
O48 In39 2.326 . S
O48 C44 1.260 . S
C49 O40 1.240 . S
C49 O41 1.252 . S
O50 In39 2.294 . S
O50 C43 1.240 . S
O51 In39 2.326 . S
O51 C43 1.252 . S
In52 O53 2.294 . S
In52 O54 2.326 . S
In52 O58 2.266 . S
In52 O59 2.326 . S
In52 O60 2.266 . S
In52 O61 2.326 . S
In52 O63 2.294 . S
In52 O64 2.326 . S
O53 In52 2.294 . S
O53 C62 1.240 . S
O54 In52 2.326 . S
O54 C62 1.252 . S
C55 O58 1.252 . S
C55 O59 1.260 . S
C56 O63 1.240 . S
C56 O64 1.252 . S
C57 O60 1.252 . S
C57 O61 1.260 . S
O58 In52 2.266 . S
O58 C55 1.252 . S
O59 In52 2.326 . S
O59 C55 1.260 . S
O60 In52 2.266 . S
O60 C57 1.252 . S
O61 In52 2.326 . S
O61 C57 1.260 . S
C62 O53 1.240 . S
C62 O54 1.252 . S
O63 In52 2.294 . S
O63 C56 1.240 . S
O64 In52 2.326 . S
O64 C56 1.252 . S
In65 O66 2.294 . S
In65 O67 2.326 . S
In65 O71 2.266 . S
In65 O72 2.326 . S
In65 O73 2.266 . S
In65 O74 2.326 . S
In65 O76 2.294 . S
In65 O77 2.326 . S
O66 In65 2.294 . S
O66 C75 1.240 . S
O67 In65 2.326 . S
O67 C75 1.252 . S
C68 O71 1.252 . S
C68 O72 1.260 . S
C69 O76 1.240 . S
C69 O77 1.252 . S
C70 O73 1.252 . S
C70 O74 1.260 . S
O71 In65 2.266 . S
O71 C68 1.252 . S
O72 In65 2.326 . S
O72 C68 1.260 . S
O73 In65 2.266 . S
O73 C70 1.252 . S
O74 In65 2.326 . S
O74 C70 1.260 . S
C75 O66 1.240 . S
C75 O67 1.252 . S
O76 In65 2.294 . S
O76 C69 1.240 . S
O77 In65 2.326 . S
O77 C69 1.252 . S
H78 C86 0.929 . S
H79 C88 0.930 . S
H80 C90 0.930 . S
H81 C93 0.929 . S
H82 C96 0.930 . S
H83 C98 0.960 . S
H84 C98 0.960 . S
H85 C98 0.960 . S
C86 H78 0.929 . S
C86 C87 1.377 . S
C86 C88 1.384 . S
C87 C86 1.377 . S
C87 C93 1.390 . S
C88 H79 0.930 . S
C88 C86 1.384 . S
C88 C89 1.372 . S
C89 C88 1.372 . S
C89 C90 1.400 . S
C89 C94 1.490 . S
C90 H80 0.930 . S
C90 C89 1.400 . S
C90 C93 1.386 . S
H91 C107 0.930 . S
H92 C108 0.931 . S
C93 H81 0.929 . S
C93 C87 1.390 . S
C93 C90 1.386 . S
C94 C89 1.490 . S
C94 C96 1.395 . S
C94 C97 1.403 . S
H95 C101 0.930 . S
C96 H82 0.930 . S
C96 C94 1.395 . S
C96 C99 1.403 1_545 S
C97 C94 1.403 . S
C97 C98 1.524 . S
C97 C101 1.400 1_545 S
C98 H83 0.960 . S
C98 H84 0.960 . S
C98 H85 0.960 . S
C98 C97 1.524 . S
C99 C96 1.403 1_565 S
C99 C100 1.392 . S
C99 C103 1.495 . S
C100 C99 1.392 . S
C100 C101 1.385 . S
C100 C102 1.478 . S
C101 H95 0.930 . S
C101 C97 1.400 1_565 S
C101 C100 1.385 . S
C102 C100 1.478 . S
C102 C104 1.381 . S
C102 C108 1.383 . S
C103 C99 1.495 . S
C103 H109 0.959 . S
C103 H110 0.961 . S
C103 H111 0.960 . S
C104 C102 1.381 . S
C104 C105 1.394 . S
C104 H112 0.930 . S
C105 C104 1.394 . S
C105 C106 1.383 . S
C105 H113 0.929 . S
C106 C105 1.383 . S
C106 C107 1.377 . S
C107 H91 0.930 . S
C107 C106 1.377 . S
C107 C108 1.379 . S
C108 H92 0.931 . S
C108 C102 1.383 . S
C108 C107 1.379 . S
H109 C103 0.959 . S
H110 C103 0.961 . S
H111 C103 0.960 . S
H112 C104 0.930 . S
H113 C105 0.929 . S
H114 C122 0.929 . S
H115 C124 0.930 . S
H116 C126 0.930 . S
H117 C129 0.929 . S
H118 C132 0.930 . S
H119 C134 0.960 . S
H120 C134 0.960 . S
H121 C134 0.960 . S
C122 H114 0.929 . S
C122 C123 1.377 . S
C122 C124 1.384 . S
C123 C122 1.377 . S
C123 C129 1.390 . S
C124 H115 0.930 . S
C124 C122 1.384 . S
C124 C125 1.372 . S
C125 C124 1.372 . S
C125 C126 1.400 . S
C125 C130 1.490 . S
C126 H116 0.930 . S
C126 C125 1.400 . S
C126 C129 1.386 . S
H127 C143 0.930 . S
H128 C144 0.931 . S
C129 H117 0.929 . S
C129 C123 1.390 . S
C129 C126 1.386 . S
C130 C125 1.490 . S
C130 C132 1.395 . S
C130 C133 1.403 . S
H131 C137 0.930 . S
C132 H118 0.930 . S
C132 C130 1.395 . S
C132 C135 1.403 . S
C133 C130 1.403 . S
C133 C134 1.524 . S
C133 C137 1.400 . S
C134 H119 0.960 . S
C134 H120 0.960 . S
C134 H121 0.960 . S
C134 C133 1.524 . S
C135 C132 1.403 . S
C135 C136 1.392 . S
C135 C139 1.495 . S
C136 C135 1.392 . S
C136 C137 1.385 . S
C136 C138 1.478 . S
C137 H131 0.930 . S
C137 C133 1.400 . S
C137 C136 1.385 . S
C138 C136 1.478 . S
C138 C140 1.381 . S
C138 C144 1.383 . S
C139 C135 1.495 . S
C139 H145 0.959 . S
C139 H146 0.961 . S
C139 H147 0.960 . S
C140 C138 1.381 . S
C140 C141 1.394 . S
C140 H148 0.930 . S
C141 C140 1.394 . S
C141 C142 1.383 . S
C141 H149 0.929 . S
C142 C141 1.383 . S
C142 C143 1.377 . S
C143 H127 0.930 . S
C143 C142 1.377 . S
C143 C144 1.379 . S
C144 H128 0.931 . S
C144 C138 1.383 . S
C144 C143 1.379 . S
H145 C139 0.959 . S
H146 C139 0.961 . S
H147 C139 0.960 . S
H148 C140 0.930 . S
H149 C141 0.929 . S
H150 C158 0.929 . S
H151 C160 0.930 . S
H152 C162 0.930 . S
H153 C165 0.929 . S
H154 C168 0.930 . S
H155 C170 0.960 1_455 S
H156 C170 0.960 . S
H157 C170 0.960 . S
C158 H150 0.929 . S
C158 C159 1.377 . S
C158 C160 1.384 . S
C159 C158 1.377 . S
C159 C165 1.390 . S
C160 H151 0.930 . S
C160 C158 1.384 . S
C160 C161 1.372 . S
C161 C160 1.372 . S
C161 C162 1.400 . S
C161 C166 1.490 . S
C162 H152 0.930 . S
C162 C161 1.400 . S
C162 C165 1.386 . S
H163 C179 0.930 . S
H164 C180 0.931 . S
C165 H153 0.929 . S
C165 C159 1.390 . S
C165 C162 1.386 . S
C166 C161 1.490 . S
C166 C168 1.395 . S
C166 C169 1.403 . S
H167 C173 0.930 . S
C168 H154 0.930 . S
C168 C166 1.395 . S
C168 C171 1.403 1_655 S
C169 C166 1.403 . S
C169 C170 1.524 . S
C169 C173 1.400 1_655 S
C170 H155 0.960 1_655 S
C170 H156 0.960 . S
C170 H157 0.960 . S
C170 C169 1.524 . S
C171 C168 1.403 1_455 S
C171 C172 1.392 . S
C171 C175 1.495 . S
C172 C171 1.392 . S
C172 C173 1.385 . S
C172 C174 1.478 . S
C173 H167 0.930 . S
C173 C169 1.400 1_455 S
C173 C172 1.385 . S
C174 C172 1.478 . S
C174 C176 1.381 . S
C174 C180 1.383 . S
C175 C171 1.495 . S
C175 H181 0.959 1_455 S
C175 H182 0.961 . S
C175 H183 0.960 . S
C176 C174 1.381 . S
C176 C177 1.394 . S
C176 H184 0.930 . S
C177 C176 1.394 . S
C177 C178 1.383 . S
C177 H185 0.929 . S
C178 C177 1.383 . S
C178 C179 1.377 . S
C179 H163 0.930 . S
C179 C178 1.377 . S
C179 C180 1.379 . S
C180 H164 0.931 . S
C180 C174 1.383 . S
C180 C179 1.379 . S
H181 C175 0.959 1_655 S
H182 C175 0.961 . S
H183 C175 0.960 . S
H184 C176 0.930 . S
H185 C177 0.929 . S
H186 C194 0.929 . S
H187 C196 0.930 . S
H188 C198 0.930 . S
H189 C201 0.929 . S
H190 C204 0.930 . S
H191 C206 0.960 . S
H192 C206 0.960 . S
H193 C206 0.960 . S
C194 H186 0.929 . S
C194 C195 1.377 . S
C194 C196 1.384 . S
C195 C194 1.377 . S
C195 C201 1.390 . S
C196 H187 0.930 . S
C196 C194 1.384 . S
C196 C197 1.372 . S
C197 C196 1.372 . S
C197 C198 1.400 . S
C197 C202 1.490 . S
C198 H188 0.930 . S
C198 C197 1.400 . S
C198 C201 1.386 . S
H199 C215 0.930 . S
H200 C216 0.931 . S
C201 H189 0.929 . S
C201 C195 1.390 . S
C201 C198 1.386 . S
C202 C197 1.490 . S
C202 C204 1.395 . S
C202 C205 1.403 . S
H203 C209 0.930 . S
C204 H190 0.930 . S
C204 C202 1.395 . S
C204 C207 1.403 1_455 S
C205 C202 1.403 . S
C205 C206 1.524 . S
C205 C209 1.400 1_455 S
C206 H191 0.960 . S
C206 H192 0.960 . S
C206 H193 0.960 . S
C206 C205 1.524 . S
C207 C204 1.403 1_655 S
C207 C208 1.392 . S
C207 C211 1.495 . S
C208 C207 1.392 . S
C208 C209 1.385 . S
C208 C210 1.478 . S
C209 H203 0.930 . S
C209 C205 1.400 1_655 S
C209 C208 1.385 . S
C210 C208 1.478 . S
C210 C212 1.381 . S
C210 C216 1.383 . S
C211 C207 1.495 . S
C211 H217 0.959 . S
C211 H218 0.961 . S
C211 H219 0.960 . S
C212 C210 1.381 . S
C212 C213 1.394 . S
C212 H220 0.930 . S
C213 C212 1.394 . S
C213 C214 1.383 . S
C213 H221 0.929 . S
C214 C213 1.383 . S
C214 C215 1.377 . S
C215 H199 0.930 . S
C215 C214 1.377 . S
C215 C216 1.379 . S
C216 H200 0.931 . S
C216 C210 1.383 . S
C216 C215 1.379 . S
H217 C211 0.959 . S
H218 C211 0.961 . S
H219 C211 0.960 . S
H220 C212 0.930 . S
H221 C213 0.929 . S
H222 C230 0.929 . S
H223 C232 0.930 . S
H224 C234 0.930 . S
H225 C237 0.929 . S
H226 C240 0.930 . S
H227 C242 0.960 1_545 S
H228 C242 0.960 . S
H229 C242 0.960 . S
C230 H222 0.929 . S
C230 C231 1.377 . S
C230 C232 1.384 . S
C231 C230 1.377 . S
C231 C237 1.390 . S
C232 H223 0.930 . S
C232 C230 1.384 . S
C232 C233 1.372 . S
C233 C232 1.372 . S
C233 C234 1.400 . S
C233 C238 1.490 . S
C234 H224 0.930 . S
C234 C233 1.400 . S
C234 C237 1.386 . S
H235 C251 0.930 . S
H236 C252 0.931 . S
C237 H225 0.929 . S
C237 C231 1.390 . S
C237 C234 1.386 . S
C238 C233 1.490 . S
C238 C240 1.395 . S
C238 C241 1.403 . S
H239 C245 0.930 . S
C240 H226 0.930 . S
C240 C238 1.395 . S
C240 C243 1.403 1_565 S
C241 C238 1.403 . S
C241 C242 1.524 . S
C241 C245 1.400 1_565 S
C242 H227 0.960 1_565 S
C242 H228 0.960 . S
C242 H229 0.960 . S
C242 C241 1.524 . S
C243 C240 1.403 1_545 S
C243 C244 1.392 . S
C243 C247 1.495 . S
C244 C243 1.392 . S
C244 C245 1.385 . S
C244 C246 1.478 . S
C245 H239 0.930 . S
C245 C241 1.400 1_545 S
C245 C244 1.385 . S
C246 C244 1.478 . S
C246 C248 1.381 . S
C246 C252 1.383 . S
C247 C243 1.495 . S
C247 H253 0.959 1_545 S
C247 H254 0.961 . S
C247 H255 0.960 . S
C248 C246 1.381 . S
C248 C249 1.394 . S
C248 H256 0.930 . S
C249 C248 1.394 . S
C249 C250 1.383 . S
C249 H257 0.929 . S
C250 C249 1.383 . S
C250 C251 1.377 . S
C251 H235 0.930 . S
C251 C250 1.377 . S
C251 C252 1.379 . S
C252 H236 0.931 . S
C252 C246 1.383 . S
C252 C251 1.379 . S
H253 C247 0.959 1_565 S
H254 C247 0.961 . S
H255 C247 0.960 . S
H256 C248 0.930 . S
H257 C249 0.929 . S
H258 C266 0.929 . S
H259 C268 0.930 . S
H260 C270 0.930 . S
H261 C273 0.929 . S
H262 C276 0.930 . S
H263 C278 0.960 . S
H264 C278 0.960 . S
H265 C278 0.960 . S
C266 H258 0.929 . S
C266 C267 1.377 . S
C266 C268 1.384 . S
C267 C266 1.377 . S
C267 C273 1.390 . S
C268 H259 0.930 . S
C268 C266 1.384 . S
C268 C269 1.372 . S
C269 C268 1.372 . S
C269 C270 1.400 . S
C269 C274 1.490 . S
C270 H260 0.930 . S
C270 C269 1.400 . S
C270 C273 1.386 . S
H271 C287 0.930 . S
H272 C288 0.931 . S
C273 H261 0.929 . S
C273 C267 1.390 . S
C273 C270 1.386 . S
C274 C269 1.490 . S
C274 C276 1.395 . S
C274 C277 1.403 . S
H275 C281 0.930 . S
C276 H262 0.930 . S
C276 C274 1.395 . S
C276 C279 1.403 . S
C277 C274 1.403 . S
C277 C278 1.524 . S
C277 C281 1.400 . S
C278 H263 0.960 . S
C278 H264 0.960 . S
C278 H265 0.960 . S
C278 C277 1.524 . S
C279 C276 1.403 . S
C279 C280 1.392 . S
C279 C283 1.495 . S
C280 C279 1.392 . S
C280 C281 1.385 . S
C280 C282 1.478 . S
C281 H275 0.930 . S
C281 C277 1.400 . S
C281 C280 1.385 . S
C282 C280 1.478 . S
C282 C284 1.381 . S
C282 C288 1.383 . S
C283 C279 1.495 . S
C283 H289 0.959 . S
C283 H290 0.961 . S
C283 H291 0.960 . S
C284 C282 1.381 . S
C284 C285 1.394 . S
C284 H292 0.930 . S
C285 C284 1.394 . S
C285 C286 1.383 . S
C285 H293 0.929 . S
C286 C285 1.383 . S
C286 C287 1.377 . S
C287 H271 0.930 . S
C287 C286 1.377 . S
C287 C288 1.379 . S
C288 H272 0.931 . S
C288 C282 1.383 . S
C288 C287 1.379 . S
H289 C283 0.959 . S
H290 C283 0.961 . S
H291 C283 0.960 . S
H292 C284 0.930 . S
H293 C285 0.929 . S
H294 C302 0.929 . S
H295 C304 0.930 . S
H296 C306 0.930 . S
H297 C309 0.929 . S
H298 C312 0.930 . S
H299 C314 0.960 . S
H300 C314 0.960 . S
H301 C314 0.960 . S
C302 H294 0.929 . S
C302 C303 1.377 . S
C302 C304 1.384 . S
C303 C302 1.377 . S
C303 C309 1.390 . S
C304 H295 0.930 . S
C304 C302 1.384 . S
C304 C305 1.372 . S
C305 C304 1.372 . S
C305 C306 1.400 . S
C305 C310 1.490 . S
C306 H296 0.930 . S
C306 C305 1.400 . S
C306 C309 1.386 . S
H307 C323 0.930 . S
H308 C324 0.931 . S
C309 H297 0.929 . S
C309 C303 1.390 . S
C309 C306 1.386 . S
C310 C305 1.490 . S
C310 C312 1.395 . S
C310 C313 1.403 . S
H311 C317 0.930 . S
C312 H298 0.930 . S
C312 C310 1.395 . S
C312 C315 1.403 1_556 S
C313 C310 1.403 . S
C313 C314 1.524 . S
C313 C317 1.400 1_556 S
C314 H299 0.960 . S
C314 H300 0.960 . S
C314 H301 0.960 . S
C314 C313 1.524 . S
C315 C312 1.403 1_554 S
C315 C316 1.392 . S
C315 C319 1.495 . S
C316 C315 1.392 . S
C316 C317 1.385 . S
C316 C318 1.478 . S
C317 H311 0.930 . S
C317 C313 1.400 1_554 S
C317 C316 1.385 . S
C318 C316 1.478 . S
C318 C320 1.381 . S
C318 C324 1.383 . S
C319 C315 1.495 . S
C319 H325 0.959 . S
C319 H326 0.961 . S
C319 H327 0.960 . S
C320 C318 1.381 . S
C320 C321 1.394 . S
C320 H328 0.930 . S
C321 C320 1.394 . S
C321 C322 1.383 . S
C321 H329 0.929 . S
C322 C321 1.383 . S
C322 C323 1.377 . S
C323 H307 0.930 . S
C323 C322 1.377 . S
C323 C324 1.379 . S
C324 H308 0.931 . S
C324 C318 1.383 . S
C324 C323 1.379 . S
H325 C319 0.959 . S
H326 C319 0.961 . S
H327 C319 0.960 . S
H328 C320 0.930 . S
H329 C321 0.929 . S
H330 C338 0.929 . S
H331 C340 0.930 . S
H332 C342 0.930 . S
H333 C345 0.929 . S
H334 C348 0.930 . S
H335 C350 0.960 . S
H336 C350 0.960 . S
H337 C350 0.960 . S
C338 H330 0.929 . S
C338 C339 1.377 . S
C338 C340 1.384 . S
C339 C338 1.377 . S
C339 C345 1.390 . S
C340 H331 0.930 . S
C340 C338 1.384 . S
C340 C341 1.372 . S
C341 C340 1.372 . S
C341 C342 1.400 . S
C341 C346 1.490 . S
C342 H332 0.930 . S
C342 C341 1.400 . S
C342 C345 1.386 . S
H343 C359 0.930 . S
H344 C360 0.931 . S
C345 H333 0.929 . S
C345 C339 1.390 . S
C345 C342 1.386 . S
C346 C341 1.490 . S
C346 C348 1.395 . S
C346 C349 1.403 . S
H347 C353 0.930 . S
C348 H334 0.930 . S
C348 C346 1.395 . S
C348 C351 1.403 . S
C349 C346 1.403 . S
C349 C350 1.524 . S
C349 C353 1.400 . S
C350 H335 0.960 . S
C350 H336 0.960 . S
C350 H337 0.960 . S
C350 C349 1.524 . S
C351 C348 1.403 . S
C351 C352 1.392 . S
C351 C355 1.495 . S
C352 C351 1.392 . S
C352 C353 1.385 . S
C352 C354 1.478 . S
C353 H347 0.930 . S
C353 C349 1.400 . S
C353 C352 1.385 . S
C354 C352 1.478 . S
C354 C356 1.381 . S
C354 C360 1.383 . S
C355 C351 1.495 . S
C355 H361 0.959 . S
C355 H362 0.961 . S
C355 H363 0.960 . S
C356 C354 1.381 . S
C356 C357 1.394 . S
C356 H364 0.930 . S
C357 C356 1.394 . S
C357 C358 1.383 . S
C357 H365 0.929 . S
C358 C357 1.383 . S
C358 C359 1.377 . S
C359 H343 0.930 . S
C359 C358 1.377 . S
C359 C360 1.379 . S
C360 H344 0.931 . S
C360 C354 1.383 . S
C360 C359 1.379 . S
H361 C355 0.959 . S
H362 C355 0.961 . S
H363 C355 0.960 . S
H364 C356 0.930 . S
H365 C357 0.929 . S
H366 C374 0.929 . S
H367 C376 0.930 . S
H368 C378 0.930 . S
H369 C381 0.929 . S
H370 C384 0.930 . S
H371 C386 0.960 . S
H372 C386 0.960 . S
H373 C386 0.960 . S
C374 H366 0.929 . S
C374 C375 1.377 . S
C374 C376 1.384 . S
C375 C374 1.377 . S
C375 C381 1.390 . S
C376 H367 0.930 . S
C376 C374 1.384 . S
C376 C377 1.372 . S
C377 C376 1.372 . S
C377 C378 1.400 . S
C377 C382 1.490 . S
C378 H368 0.930 . S
C378 C377 1.400 . S
C378 C381 1.386 . S
H379 C395 0.930 . S
H380 C396 0.931 . S
C381 H369 0.929 . S
C381 C375 1.390 . S
C381 C378 1.386 . S
C382 C377 1.490 . S
C382 C384 1.395 . S
C382 C385 1.403 . S
H383 C389 0.930 . S
C384 H370 0.930 . S
C384 C382 1.395 . S
C384 C387 1.403 . S
C385 C382 1.403 . S
C385 C386 1.524 . S
C385 C389 1.400 . S
C386 H371 0.960 . S
C386 H372 0.960 . S
C386 H373 0.960 . S
C386 C385 1.524 . S
C387 C384 1.403 . S
C387 C388 1.392 . S
C387 C391 1.495 . S
C388 C387 1.392 . S
C388 C389 1.385 . S
C388 C390 1.478 . S
C389 H383 0.930 . S
C389 C385 1.400 . S
C389 C388 1.385 . S
C390 C388 1.478 . S
C390 C392 1.381 . S
C390 C396 1.383 . S
C391 C387 1.495 . S
C391 H397 0.959 . S
C391 H398 0.961 . S
C391 H399 0.960 . S
C392 C390 1.381 . S
C392 C393 1.394 . S
C392 H400 0.930 . S
C393 C392 1.394 . S
C393 C394 1.383 . S
C393 H401 0.929 . S
C394 C393 1.383 . S
C394 C395 1.377 . S
C395 H379 0.930 . S
C395 C394 1.377 . S
C395 C396 1.379 . S
C396 H380 0.931 . S
C396 C390 1.383 . S
C396 C395 1.379 . S
H397 C391 0.959 . S
H398 C391 0.961 . S
H399 C391 0.960 . S
H400 C392 0.930 . S
H401 C393 0.929 . S
H402 C410 0.929 . S
H403 C412 0.930 . S
H404 C414 0.930 . S
H405 C417 0.929 . S
H406 C420 0.930 . S
H407 C422 0.960 . S
H408 C422 0.960 . S
H409 C422 0.960 . S
C410 H402 0.929 . S
C410 C411 1.377 . S
C410 C412 1.384 . S
C411 C410 1.377 . S
C411 C417 1.390 . S
C412 H403 0.930 . S
C412 C410 1.384 . S
C412 C413 1.372 . S
C413 C412 1.372 . S
C413 C414 1.400 . S
C413 C418 1.490 . S
C414 H404 0.930 . S
C414 C413 1.400 . S
C414 C417 1.386 . S
H415 C431 0.930 . S
H416 C432 0.931 . S
C417 H405 0.929 . S
C417 C411 1.390 . S
C417 C414 1.386 . S
C418 C413 1.490 . S
C418 C420 1.395 . S
C418 C421 1.403 . S
H419 C425 0.930 . S
C420 H406 0.930 . S
C420 C418 1.395 . S
C420 C423 1.403 1_556 S
C421 C418 1.403 . S
C421 C422 1.524 . S
C421 C425 1.400 1_556 S
C422 H407 0.960 . S
C422 H408 0.960 . S
C422 H409 0.960 . S
C422 C421 1.524 . S
C423 C420 1.403 1_554 S
C423 C424 1.392 . S
C423 C427 1.495 . S
C424 C423 1.392 . S
C424 C425 1.385 . S
C424 C426 1.478 . S
C425 H419 0.930 . S
C425 C421 1.400 1_554 S
C425 C424 1.385 . S
C426 C424 1.478 . S
C426 C428 1.381 . S
C426 C432 1.383 . S
C427 C423 1.495 . S
C427 H433 0.959 . S
C427 H434 0.961 . S
C427 H435 0.960 . S
C428 C426 1.381 . S
C428 C429 1.394 . S
C428 H436 0.930 . S
C429 C428 1.394 . S
C429 C430 1.383 . S
C429 H437 0.929 . S
C430 C429 1.383 . S
C430 C431 1.377 . S
C431 H415 0.930 . S
C431 C430 1.377 . S
C431 C432 1.379 . S
C432 H416 0.931 . S
C432 C426 1.383 . S
C432 C431 1.379 . S
H433 C427 0.959 . S
H434 C427 0.961 . S
H435 C427 0.960 . S
H436 C428 0.930 . S
H437 C429 0.929 . S
H438 C446 0.929 . S
H439 C448 0.930 . S
H440 C450 0.930 . S
H441 C453 0.929 . S
H442 C456 0.930 . S
H443 C458 0.960 . S
H444 C458 0.960 . S
H445 C458 0.960 . S
C446 H438 0.929 . S
C446 C447 1.377 . S
C446 C448 1.384 . S
C447 C446 1.377 . S
C447 C453 1.390 . S
C448 H439 0.930 . S
C448 C446 1.384 . S
C448 C449 1.372 . S
C449 C448 1.372 . S
C449 C450 1.400 . S
C449 C454 1.490 . S
C450 H440 0.930 . S
C450 C449 1.400 . S
C450 C453 1.386 . S
H451 C467 0.930 . S
H452 C468 0.931 . S
C453 H441 0.929 . S
C453 C447 1.390 . S
C453 C450 1.386 . S
C454 C449 1.490 . S
C454 C456 1.395 . S
C454 C457 1.403 . S
H455 C461 0.930 . S
C456 H442 0.930 . S
C456 C454 1.395 . S
C456 C459 1.403 . S
C457 C454 1.403 . S
C457 C458 1.524 . S
C457 C461 1.400 . S
C458 H443 0.960 . S
C458 H444 0.960 . S
C458 H445 0.960 . S
C458 C457 1.524 . S
C459 C456 1.403 . S
C459 C460 1.392 . S
C459 C463 1.495 . S
C460 C459 1.392 . S
C460 C461 1.385 . S
C460 C462 1.478 . S
C461 H455 0.930 . S
C461 C457 1.400 . S
C461 C460 1.385 . S
C462 C460 1.478 . S
C462 C464 1.381 . S
C462 C468 1.383 . S
C463 C459 1.495 . S
C463 H469 0.959 . S
C463 H470 0.961 . S
C463 H471 0.960 . S
C464 C462 1.381 . S
C464 C465 1.394 . S
C464 H472 0.930 . S
C465 C464 1.394 . S
C465 C466 1.383 . S
C465 H473 0.929 . S
C466 C465 1.383 . S
C466 C467 1.377 . S
C467 H451 0.930 . S
C467 C466 1.377 . S
C467 C468 1.379 . S
C468 H452 0.931 . S
C468 C462 1.383 . S
C468 C467 1.379 . S
H469 C463 0.959 . S
H470 C463 0.961 . S
H471 C463 0.960 . S
H472 C464 0.930 . S
H473 C465 0.929 . S
H474 C482 0.929 . S
H475 C484 0.930 . S
H476 C486 0.930 . S
H477 C489 0.929 . S
H478 C492 0.930 . S
H479 C494 0.960 . S
H480 C494 0.960 . S
H481 C494 0.960 . S
C482 H474 0.929 . S
C482 C483 1.377 . S
C482 C484 1.384 . S
C483 C482 1.377 . S
C483 C489 1.390 . S
C484 H475 0.930 . S
C484 C482 1.384 . S
C484 C485 1.372 . S
C485 C484 1.372 . S
C485 C486 1.400 . S
C485 C490 1.490 . S
C486 H476 0.930 . S
C486 C485 1.400 . S
C486 C489 1.386 . S
H487 C503 0.930 . S
H488 C504 0.931 . S
C489 H477 0.929 . S
C489 C483 1.390 . S
C489 C486 1.386 . S
C490 C485 1.490 . S
C490 C492 1.395 . S
C490 C493 1.403 . S
H491 C497 0.930 . S
C492 H478 0.930 . S
C492 C490 1.395 . S
C492 C495 1.403 . S
C493 C490 1.403 . S
C493 C494 1.524 . S
C493 C497 1.400 . S
C494 H479 0.960 . S
C494 H480 0.960 . S
C494 H481 0.960 . S
C494 C493 1.524 . S
C495 C492 1.403 . S
C495 C496 1.392 . S
C495 C499 1.495 . S
C496 C495 1.392 . S
C496 C497 1.385 . S
C496 C498 1.478 . S
C497 H491 0.930 . S
C497 C493 1.400 . S
C497 C496 1.385 . S
C498 C496 1.478 . S
C498 C500 1.381 . S
C498 C504 1.383 . S
C499 C495 1.495 . S
C499 H505 0.959 . S
C499 H506 0.961 . S
C499 H507 0.960 . S
C500 C498 1.381 . S
C500 C501 1.394 . S
C500 H508 0.930 . S
C501 C500 1.394 . S
C501 C502 1.383 . S
C501 H509 0.929 . S
C502 C501 1.383 . S
C502 C503 1.377 . S
C503 H487 0.930 . S
C503 C502 1.377 . S
C503 C504 1.379 . S
C504 H488 0.931 . S
C504 C498 1.383 . S
C504 C503 1.379 . S
H505 C499 0.959 . S
H506 C499 0.961 . S
H507 C499 0.960 . S
H508 C500 0.930 . S
H509 C501 0.929 . S
C87 C3 1.365 . S
C106 C42 1.348 . S
C123 C18 1.368 . S
C142 C55 1.379 . S
C159 C31 1.365 . S
C178 C68 1.375 . S
C195 C17 1.341 . S
C214 C62 1.323 . S
C231 C75 1.341 . S
C250 C30 1.353 . S
C267 C49 1.338 . S
C286 C10 1.336 . S
C303 C36 1.284 . S
C322 C5 1.293 . S
C339 C43 1.288 . S
C358 C16 1.279 . S
C375 C29 1.287 . S
C394 C56 1.282 . S
C411 C69 1.283 . S
C430 C44 1.287 . S
C447 C57 1.284 . S
C466 C4 1.293 . S
C483 C70 1.284 . S
C502 C23 1.292 . S
