# Generated by pormake.
# Topology fcq, (5)-cn, num edge types: 1
# Building blocks:
#     Node 0, Type 0, BuildingBlock: BEQFEK_clean_sbu_0, # of connection points: 5
#     Node 1, Type 0, BuildingBlock: BEQFEK_clean_sbu_0, # of connection points: 5
#     Node 2, Type 0, BuildingBlock: BEQFEK_clean_sbu_0, # of connection points: 5
#     Node 3, Type 0, BuildingBlock: BEQFEK_clean_sbu_0, # of connection points: 5
#     Node 4, Type 0, BuildingBlock: BEQFEK_clean_sbu_0, # of connection points: 5
#     Node 5, Type 0, BuildingBlock: BEQFEK_clean_sbu_0, # of connection points: 5
#     Node 6, Type 0, BuildingBlock: BEQFEK_clean_sbu_0, # of connection points: 5
#     Node 7, Type 0, BuildingBlock: BEQFEK_clean_sbu_0, # of connection points: 5
#     Node 8, Type 0, BuildingBlock: BEQFEK_clean_sbu_0, # of connection points: 5
#     Node 9, Type 0, BuildingBlock: BEQFEK_clean_sbu_0, # of connection points: 5
#     Node 10, Type 0, BuildingBlock: BEQFEK_clean_sbu_0, # of connection points: 5
#     Node 11, Type 0, BuildingBlock: BEQFEK_clean_sbu_0, # of connection points: 5
#     Node 12, Type 0, BuildingBlock: BEQFEK_clean_sbu_0, # of connection points: 5
#     Node 13, Type 0, BuildingBlock: BEQFEK_clean_sbu_0, # of connection points: 5
#     Node 14, Type 0, BuildingBlock: BEQFEK_clean_sbu_0, # of connection points: 5
#     Node 15, Type 0, BuildingBlock: BEQFEK_clean_sbu_0, # of connection points: 5
#     Node 16, Type 0, BuildingBlock: BEQFEK_clean_sbu_0, # of connection points: 5
#     Node 17, Type 0, BuildingBlock: BEQFEK_clean_sbu_0, # of connection points: 5
#     Node 18, Type 0, BuildingBlock: BEQFEK_clean_sbu_0, # of connection points: 5
#     Node 19, Type 0, BuildingBlock: BEQFEK_clean_sbu_0, # of connection points: 5
#     Node 20, Type 0, BuildingBlock: BEQFEK_clean_sbu_0, # of connection points: 5
#     Node 21, Type 0, BuildingBlock: BEQFEK_clean_sbu_0, # of connection points: 5
#     Node 22, Type 0, BuildingBlock: BEQFEK_clean_sbu_0, # of connection points: 5
#     Node 23, Type 0, BuildingBlock: BEQFEK_clean_sbu_0, # of connection points: 5
#     Node 24, Type 0, BuildingBlock: BEQFEK_clean_sbu_0, # of connection points: 5
#     Node 25, Type 0, BuildingBlock: BEQFEK_clean_sbu_0, # of connection points: 5
#     Node 26, Type 0, BuildingBlock: BEQFEK_clean_sbu_0, # of connection points: 5
#     Node 27, Type 0, BuildingBlock: BEQFEK_clean_sbu_0, # of connection points: 5
#     Node 28, Type 0, BuildingBlock: BEQFEK_clean_sbu_0, # of connection points: 5
#     Node 29, Type 0, BuildingBlock: BEQFEK_clean_sbu_0, # of connection points: 5
#     Node 30, Type 0, BuildingBlock: BEQFEK_clean_sbu_0, # of connection points: 5
#     Node 31, Type 0, BuildingBlock: BEQFEK_clean_sbu_0, # of connection points: 5
#     Node 32, Type 0, BuildingBlock: BEQFEK_clean_sbu_0, # of connection points: 5
#     Node 33, Type 0, BuildingBlock: BEQFEK_clean_sbu_0, # of connection points: 5
#     Node 34, Type 0, BuildingBlock: BEQFEK_clean_sbu_0, # of connection points: 5
#     Node 35, Type 0, BuildingBlock: BEQFEK_clean_sbu_0, # of connection points: 5
#     Node 36, Type 0, BuildingBlock: BEQFEK_clean_sbu_0, # of connection points: 5
#     Node 37, Type 0, BuildingBlock: BEQFEK_clean_sbu_0, # of connection points: 5
#     Node 38, Type 0, BuildingBlock: BEQFEK_clean_sbu_0, # of connection points: 5
#     Node 39, Type 0, BuildingBlock: BEQFEK_clean_sbu_0, # of connection points: 5
#     Node 40, Type 0, BuildingBlock: BEQFEK_clean_sbu_0, # of connection points: 5
#     Node 41, Type 0, BuildingBlock: BEQFEK_clean_sbu_0, # of connection points: 5
#     Node 42, Type 0, BuildingBlock: BEQFEK_clean_sbu_0, # of connection points: 5
#     Node 43, Type 0, BuildingBlock: BEQFEK_clean_sbu_0, # of connection points: 5
#     Node 44, Type 0, BuildingBlock: BEQFEK_clean_sbu_0, # of connection points: 5
#     Node 45, Type 0, BuildingBlock: BEQFEK_clean_sbu_0, # of connection points: 5
#     Node 46, Type 0, BuildingBlock: BEQFEK_clean_sbu_0, # of connection points: 5
#     Node 47, Type 0, BuildingBlock: BEQFEK_clean_sbu_0, # of connection points: 5
#     Edge 48, Type (0, 0), BuildingBlock: KIFKEQ_clean_linker_1, # of connection points: 2
#     Edge 49, Type (0, 0), BuildingBlock: KIFKEQ_clean_linker_1, # of connection points: 2
#     Edge 50, Type (0, 0), BuildingBlock: KIFKEQ_clean_linker_1, # of connection points: 2
#     Edge 51, Type (0, 0), BuildingBlock: KIFKEQ_clean_linker_1, # of connection points: 2
#     Edge 52, Type (0, 0), BuildingBlock: KIFKEQ_clean_linker_1, # of connection points: 2
#     Edge 53, Type (0, 0), BuildingBlock: KIFKEQ_clean_linker_1, # of connection points: 2
#     Edge 54, Type (0, 0), BuildingBlock: KIFKEQ_clean_linker_1, # of connection points: 2
#     Edge 55, Type (0, 0), BuildingBlock: KIFKEQ_clean_linker_1, # of connection points: 2
#     Edge 56, Type (0, 0), BuildingBlock: KIFKEQ_clean_linker_1, # of connection points: 2
#     Edge 57, Type (0, 0), BuildingBlock: KIFKEQ_clean_linker_1, # of connection points: 2
#     Edge 58, Type (0, 0), BuildingBlock: KIFKEQ_clean_linker_1, # of connection points: 2
#     Edge 59, Type (0, 0), BuildingBlock: KIFKEQ_clean_linker_1, # of connection points: 2
#     Edge 60, Type (0, 0), BuildingBlock: KIFKEQ_clean_linker_1, # of connection points: 2
#     Edge 61, Type (0, 0), BuildingBlock: KIFKEQ_clean_linker_1, # of connection points: 2
#     Edge 62, Type (0, 0), BuildingBlock: KIFKEQ_clean_linker_1, # of connection points: 2
#     Edge 63, Type (0, 0), BuildingBlock: KIFKEQ_clean_linker_1, # of connection points: 2
#     Edge 64, Type (0, 0), BuildingBlock: KIFKEQ_clean_linker_1, # of connection points: 2
#     Edge 65, Type (0, 0), BuildingBlock: KIFKEQ_clean_linker_1, # of connection points: 2
#     Edge 66, Type (0, 0), BuildingBlock: KIFKEQ_clean_linker_1, # of connection points: 2
#     Edge 67, Type (0, 0), BuildingBlock: KIFKEQ_clean_linker_1, # of connection points: 2
#     Edge 68, Type (0, 0), BuildingBlock: KIFKEQ_clean_linker_1, # of connection points: 2
#     Edge 69, Type (0, 0), BuildingBlock: KIFKEQ_clean_linker_1, # of connection points: 2
#     Edge 70, Type (0, 0), BuildingBlock: KIFKEQ_clean_linker_1, # of connection points: 2
#     Edge 71, Type (0, 0), BuildingBlock: KIFKEQ_clean_linker_1, # of connection points: 2
#     Edge 72, Type (0, 0), BuildingBlock: KIFKEQ_clean_linker_1, # of connection points: 2
#     Edge 73, Type (0, 0), BuildingBlock: KIFKEQ_clean_linker_1, # of connection points: 2
#     Edge 74, Type (0, 0), BuildingBlock: KIFKEQ_clean_linker_1, # of connection points: 2
#     Edge 75, Type (0, 0), BuildingBlock: KIFKEQ_clean_linker_1, # of connection points: 2
#     Edge 76, Type (0, 0), BuildingBlock: KIFKEQ_clean_linker_1, # of connection points: 2
#     Edge 77, Type (0, 0), BuildingBlock: KIFKEQ_clean_linker_1, # of connection points: 2
#     Edge 78, Type (0, 0), BuildingBlock: KIFKEQ_clean_linker_1, # of connection points: 2
#     Edge 79, Type (0, 0), BuildingBlock: KIFKEQ_clean_linker_1, # of connection points: 2
#     Edge 80, Type (0, 0), BuildingBlock: KIFKEQ_clean_linker_1, # of connection points: 2
#     Edge 81, Type (0, 0), BuildingBlock: KIFKEQ_clean_linker_1, # of connection points: 2
#     Edge 82, Type (0, 0), BuildingBlock: KIFKEQ_clean_linker_1, # of connection points: 2
#     Edge 83, Type (0, 0), BuildingBlock: KIFKEQ_clean_linker_1, # of connection points: 2
#     Edge 84, Type (0, 0), BuildingBlock: KIFKEQ_clean_linker_1, # of connection points: 2
#     Edge 85, Type (0, 0), BuildingBlock: KIFKEQ_clean_linker_1, # of connection points: 2
#     Edge 86, Type (0, 0), BuildingBlock: KIFKEQ_clean_linker_1, # of connection points: 2
#     Edge 87, Type (0, 0), BuildingBlock: KIFKEQ_clean_linker_1, # of connection points: 2
#     Edge 88, Type (0, 0), BuildingBlock: KIFKEQ_clean_linker_1, # of connection points: 2
#     Edge 89, Type (0, 0), BuildingBlock: KIFKEQ_clean_linker_1, # of connection points: 2
#     Edge 90, Type (0, 0), BuildingBlock: KIFKEQ_clean_linker_1, # of connection points: 2
#     Edge 91, Type (0, 0), BuildingBlock: KIFKEQ_clean_linker_1, # of connection points: 2
#     Edge 92, Type (0, 0), BuildingBlock: KIFKEQ_clean_linker_1, # of connection points: 2
#     Edge 93, Type (0, 0), BuildingBlock: KIFKEQ_clean_linker_1, # of connection points: 2
#     Edge 94, Type (0, 0), BuildingBlock: KIFKEQ_clean_linker_1, # of connection points: 2
#     Edge 95, Type (0, 0), BuildingBlock: KIFKEQ_clean_linker_1, # of connection points: 2
#     Edge 96, Type (0, 0), BuildingBlock: KIFKEQ_clean_linker_1, # of connection points: 2
#     Edge 97, Type (0, 0), BuildingBlock: KIFKEQ_clean_linker_1, # of connection points: 2
#     Edge 98, Type (0, 0), BuildingBlock: KIFKEQ_clean_linker_1, # of connection points: 2
#     Edge 99, Type (0, 0), BuildingBlock: KIFKEQ_clean_linker_1, # of connection points: 2
#     Edge 100, Type (0, 0), BuildingBlock: KIFKEQ_clean_linker_1, # of connection points: 2
#     Edge 101, Type (0, 0), BuildingBlock: KIFKEQ_clean_linker_1, # of connection points: 2
#     Edge 102, Type (0, 0), BuildingBlock: KIFKEQ_clean_linker_1, # of connection points: 2
#     Edge 103, Type (0, 0), BuildingBlock: KIFKEQ_clean_linker_1, # of connection points: 2
#     Edge 104, Type (0, 0), BuildingBlock: KIFKEQ_clean_linker_1, # of connection points: 2
#     Edge 105, Type (0, 0), BuildingBlock: KIFKEQ_clean_linker_1, # of connection points: 2
#     Edge 106, Type (0, 0), BuildingBlock: KIFKEQ_clean_linker_1, # of connection points: 2
#     Edge 107, Type (0, 0), BuildingBlock: KIFKEQ_clean_linker_1, # of connection points: 2
#     Edge 108, Type (0, 0), BuildingBlock: KIFKEQ_clean_linker_1, # of connection points: 2
#     Edge 109, Type (0, 0), BuildingBlock: KIFKEQ_clean_linker_1, # of connection points: 2
#     Edge 110, Type (0, 0), BuildingBlock: KIFKEQ_clean_linker_1, # of connection points: 2
#     Edge 111, Type (0, 0), BuildingBlock: KIFKEQ_clean_linker_1, # of connection points: 2
#     Edge 112, Type (0, 0), BuildingBlock: KIFKEQ_clean_linker_1, # of connection points: 2
#     Edge 113, Type (0, 0), BuildingBlock: KIFKEQ_clean_linker_1, # of connection points: 2
#     Edge 114, Type (0, 0), BuildingBlock: KIFKEQ_clean_linker_1, # of connection points: 2
#     Edge 115, Type (0, 0), BuildingBlock: KIFKEQ_clean_linker_1, # of connection points: 2
#     Edge 116, Type (0, 0), BuildingBlock: KIFKEQ_clean_linker_1, # of connection points: 2
#     Edge 117, Type (0, 0), BuildingBlock: KIFKEQ_clean_linker_1, # of connection points: 2
#     Edge 118, Type (0, 0), BuildingBlock: KIFKEQ_clean_linker_1, # of connection points: 2
#     Edge 119, Type (0, 0), BuildingBlock: KIFKEQ_clean_linker_1, # of connection points: 2
#     Edge 120, Type (0, 0), BuildingBlock: KIFKEQ_clean_linker_1, # of connection points: 2
#     Edge 121, Type (0, 0), BuildingBlock: KIFKEQ_clean_linker_1, # of connection points: 2
#     Edge 122, Type (0, 0), BuildingBlock: KIFKEQ_clean_linker_1, # of connection points: 2
#     Edge 123, Type (0, 0), BuildingBlock: KIFKEQ_clean_linker_1, # of connection points: 2
#     Edge 124, Type (0, 0), BuildingBlock: KIFKEQ_clean_linker_1, # of connection points: 2
#     Edge 125, Type (0, 0), BuildingBlock: KIFKEQ_clean_linker_1, # of connection points: 2
#     Edge 126, Type (0, 0), BuildingBlock: KIFKEQ_clean_linker_1, # of connection points: 2
#     Edge 127, Type (0, 0), BuildingBlock: KIFKEQ_clean_linker_1, # of connection points: 2
#     Edge 128, Type (0, 0), BuildingBlock: KIFKEQ_clean_linker_1, # of connection points: 2
#     Edge 129, Type (0, 0), BuildingBlock: KIFKEQ_clean_linker_1, # of connection points: 2
#     Edge 130, Type (0, 0), BuildingBlock: KIFKEQ_clean_linker_1, # of connection points: 2
#     Edge 131, Type (0, 0), BuildingBlock: KIFKEQ_clean_linker_1, # of connection points: 2
#     Edge 132, Type (0, 0), BuildingBlock: KIFKEQ_clean_linker_1, # of connection points: 2
#     Edge 133, Type (0, 0), BuildingBlock: KIFKEQ_clean_linker_1, # of connection points: 2
#     Edge 134, Type (0, 0), BuildingBlock: KIFKEQ_clean_linker_1, # of connection points: 2
#     Edge 135, Type (0, 0), BuildingBlock: KIFKEQ_clean_linker_1, # of connection points: 2
#     Edge 136, Type (0, 0), BuildingBlock: KIFKEQ_clean_linker_1, # of connection points: 2
#     Edge 137, Type (0, 0), BuildingBlock: KIFKEQ_clean_linker_1, # of connection points: 2
#     Edge 138, Type (0, 0), BuildingBlock: KIFKEQ_clean_linker_1, # of connection points: 2
#     Edge 139, Type (0, 0), BuildingBlock: KIFKEQ_clean_linker_1, # of connection points: 2
#     Edge 140, Type (0, 0), BuildingBlock: KIFKEQ_clean_linker_1, # of connection points: 2
#     Edge 141, Type (0, 0), BuildingBlock: KIFKEQ_clean_linker_1, # of connection points: 2
#     Edge 142, Type (0, 0), BuildingBlock: KIFKEQ_clean_linker_1, # of connection points: 2
#     Edge 143, Type (0, 0), BuildingBlock: KIFKEQ_clean_linker_1, # of connection points: 2
#     Edge 144, Type (0, 0), BuildingBlock: KIFKEQ_clean_linker_1, # of connection points: 2
#     Edge 145, Type (0, 0), BuildingBlock: KIFKEQ_clean_linker_1, # of connection points: 2
#     Edge 146, Type (0, 0), BuildingBlock: KIFKEQ_clean_linker_1, # of connection points: 2
#     Edge 147, Type (0, 0), BuildingBlock: KIFKEQ_clean_linker_1, # of connection points: 2
#     Edge 148, Type (0, 0), BuildingBlock: KIFKEQ_clean_linker_1, # of connection points: 2
#     Edge 149, Type (0, 0), BuildingBlock: KIFKEQ_clean_linker_1, # of connection points: 2
#     Edge 150, Type (0, 0), BuildingBlock: KIFKEQ_clean_linker_1, # of connection points: 2
#     Edge 151, Type (0, 0), BuildingBlock: KIFKEQ_clean_linker_1, # of connection points: 2
#     Edge 152, Type (0, 0), BuildingBlock: KIFKEQ_clean_linker_1, # of connection points: 2
#     Edge 153, Type (0, 0), BuildingBlock: KIFKEQ_clean_linker_1, # of connection points: 2
#     Edge 154, Type (0, 0), BuildingBlock: KIFKEQ_clean_linker_1, # of connection points: 2
#     Edge 155, Type (0, 0), BuildingBlock: KIFKEQ_clean_linker_1, # of connection points: 2
#     Edge 156, Type (0, 0), BuildingBlock: KIFKEQ_clean_linker_1, # of connection points: 2
#     Edge 157, Type (0, 0), BuildingBlock: KIFKEQ_clean_linker_1, # of connection points: 2
#     Edge 158, Type (0, 0), BuildingBlock: KIFKEQ_clean_linker_1, # of connection points: 2
#     Edge 159, Type (0, 0), BuildingBlock: KIFKEQ_clean_linker_1, # of connection points: 2
#     Edge 160, Type (0, 0), BuildingBlock: KIFKEQ_clean_linker_1, # of connection points: 2
#     Edge 161, Type (0, 0), BuildingBlock: KIFKEQ_clean_linker_1, # of connection points: 2
#     Edge 162, Type (0, 0), BuildingBlock: KIFKEQ_clean_linker_1, # of connection points: 2
#     Edge 163, Type (0, 0), BuildingBlock: KIFKEQ_clean_linker_1, # of connection points: 2
#     Edge 164, Type (0, 0), BuildingBlock: KIFKEQ_clean_linker_1, # of connection points: 2
#     Edge 165, Type (0, 0), BuildingBlock: KIFKEQ_clean_linker_1, # of connection points: 2
#     Edge 166, Type (0, 0), BuildingBlock: KIFKEQ_clean_linker_1, # of connection points: 2
#     Edge 167, Type (0, 0), BuildingBlock: KIFKEQ_clean_linker_1, # of connection points: 2
# Relax obj value: 0.400
# Max RMSD: 0.236
# Mean RMSD: 0.236
data_MOF--net-fcq--node1-BEQFEK_clean_sbu_0--edge1-KIFKEQ_clean_linker_1
_symmetry_space_group_name_H-M    P1
_symmetry_Int_Tables_number       1
_symmetry_cell_setting            triclinic
loop_
_symmetry_equiv_pos_as_xyz
'x, y, z'
_cell_length_a     70.377313
_cell_length_b     70.392062
_cell_length_c     70.378772
_cell_angle_alpha  90.00899
_cell_angle_beta   89.997382
_cell_angle_gamma 90.006979
loop_
_atom_site_label
_atom_site_type_symbol
_atom_site_fract_x
_atom_site_fract_y
_atom_site_fract_z
_atom_type_partial_charge
Co0 Co 0.18302 0.19306 0.42344 0.0
Co1 Co 0.15561 0.17165 0.39583 0.0
C2 C 0.15472 0.16485 0.43785 0.0
O3 O 0.16777 0.17702 0.44078 0.0
O4 O 0.14886 0.16125 0.42113 0.0
C5 C 0.19459 0.21465 0.45571 0.0
O6 O 0.17774 0.20996 0.46224 0.0
C7 C 0.1191 0.1587 0.38163 0.0
C8 C 0.12569 0.15008 0.35214 0.0
C9 C 0.11114 0.151 0.36536 0.0
N10 N 0.13749 0.16236 0.37813 0.0
N11 N 0.14135 0.15731 0.36046 0.0
C12 C 0.11015 0.16069 0.40085 0.0
H13 H 0.11618 0.17317 0.40837 0.0
H14 H 0.09453 0.16214 0.40005 0.0
H15 H 0.1134 0.14781 0.40932 0.0
C16 C 0.16383 0.22629 0.40717 0.0
N17 N 0.16714 0.20751 0.4077 0.0
N18 N 0.15527 0.19876 0.39621 0.0
C19 C 0.14382 0.21183 0.38807 0.0
C20 C 0.1488 0.22967 0.39494 0.0
C21 C 0.17466 0.24067 0.4185 0.0
H22 H 0.19005 0.23738 0.41798 0.0
H23 H 0.16992 0.24007 0.43352 0.0
H24 H 0.17237 0.25526 0.41298 0.0
O25 O 0.19999 0.17676 0.40841 0.0
O26 O 0.18091 0.16115 0.38876 0.0
H27 H 0.13195 0.19782 0.36383 0.0
H28 H 0.12032 0.21992 0.36978 0.0
C29 C 0.12722 0.20707 0.37567 0.0
H30 H 0.11654 0.19917 0.38412 0.0
H31 H 0.15476 0.15841 0.35423 0.0
O32 O 0.19945 0.20939 0.43915 0.0
C33 C 0.19743 0.16462 0.39528 0.0
Co34 Co 0.44317 0.56033 0.82158 0.0
Co35 Co 0.42307 0.58947 0.84836 0.0
C36 C 0.41534 0.58912 0.80667 0.0
O37 O 0.42706 0.57556 0.80411 0.0
O38 O 0.41228 0.59586 0.82317 0.0
C39 C 0.46632 0.54862 0.79042 0.0
O40 O 0.46497 0.56651 0.78528 0.0
C41 C 0.40898 0.62559 0.86335 0.0
C42 C 0.41055 0.62098 0.89439 0.0
C43 C 0.40608 0.6344 0.88072 0.0
N44 N 0.41528 0.60788 0.86659 0.0
N45 N 0.41608 0.60515 0.88516 0.0
C46 C 0.40465 0.63319 0.84396 0.0
H47 H 0.3939 0.6239 0.83719 0.0
H48 H 0.41769 0.63282 0.8351 0.0
H49 H 0.39881 0.64779 0.84429 0.0
C50 C 0.4774 0.57883 0.837 0.0
N51 N 0.45848 0.57621 0.83656 0.0
N52 N 0.45018 0.58923 0.84708 0.0
C53 C 0.4636 0.60104 0.85401 0.0
C54 C 0.4813 0.59482 0.8478 0.0
C55 C 0.49152 0.56615 0.82739 0.0
H56 H 0.48653 0.55122 0.82776 0.0
H57 H 0.49315 0.57061 0.81237 0.0
H58 H 0.50561 0.56707 0.83442 0.0
O59 O 0.42694 0.5442 0.83744 0.0
O60 O 0.41208 0.56457 0.85636 0.0
H61 H 0.45409 0.61588 0.87873 0.0
H62 H 0.47196 0.62851 0.86534 0.0
C63 C 0.45932 0.61919 0.86424 0.0
H64 H 0.44802 0.627 0.85656 0.0
H65 H 0.42063 0.59256 0.89152 0.0
O66 O 0.4585 0.54321 0.80575 0.0
C67 C 0.41506 0.54768 0.85059 0.0
Co68 Co 0.8091 0.30126 0.41978 0.0
Co69 Co 0.84118 0.32121 0.39649 0.0
C70 C 0.83928 0.32584 0.43828 0.0
O71 O 0.82441 0.31551 0.43894 0.0
O72 O 0.84763 0.32923 0.42259 0.0
C73 C 0.79544 0.27711 0.44909 0.0
O74 O 0.81331 0.27731 0.45449 0.0
C75 C 0.87733 0.33682 0.38285 0.0
C76 C 0.87462 0.3333 0.35175 0.0
C77 C 0.88687 0.33948 0.36584 0.0
N78 N 0.86032 0.32906 0.37904 0.0
N79 N 0.85873 0.32708 0.36043 0.0
C80 C 0.88344 0.34295 0.40226 0.0
H81 H 0.88489 0.3303 0.41154 0.0
H82 H 0.89698 0.35098 0.40206 0.0
H83 H 0.87231 0.35228 0.40833 0.0
C84 C 0.82668 0.26709 0.40331 0.0
N85 N 0.82487 0.28605 0.4046 0.0
N86 N 0.83912 0.29424 0.39572 0.0
C87 C 0.85098 0.28066 0.38921 0.0
C88 C 0.84345 0.26299 0.39382 0.0
C89 C 0.8127 0.25313 0.41118 0.0
H90 H 0.79809 0.25893 0.4102 0.0
H91 H 0.81605 0.25034 0.42632 0.0
H92 H 0.81342 0.23946 0.40334 0.0
O93 O 0.79454 0.31914 0.40422 0.0
O94 O 0.81737 0.33469 0.38896 0.0
H95 H 0.86913 0.28884 0.36631 0.0
H96 H 0.87978 0.272 0.38241 0.0
C97 C 0.87039 0.28461 0.38143 0.0
H98 H 0.87703 0.29646 0.3894 0.0
H99 H 0.84685 0.32134 0.35367 0.0
O100 O 0.79066 0.28595 0.43411 0.0
C101 C 0.7999 0.33207 0.39284 0.0
Co102 Co 0.55127 0.93093 0.82054 0.0
Co103 Co 0.57232 0.90542 0.85017 0.0
C104 C 0.57948 0.90203 0.80825 0.0
O105 O 0.56688 0.9143 0.80413 0.0
O106 O 0.58338 0.89784 0.82538 0.0
C107 C 0.53012 0.94123 0.78746 0.0
O108 O 0.53535 0.92439 0.78134 0.0
C109 C 0.58451 0.86925 0.86547 0.0
C110 C 0.59344 0.8764 0.89472 0.0
C111 C 0.59208 0.86152 0.8819 0.0
N112 N 0.58132 0.8878 0.8685 0.0
N113 N 0.58655 0.89201 0.88604 0.0
C114 C 0.58222 0.8599 0.84647 0.0
H115 H 0.56977 0.86597 0.83893 0.0
H116 H 0.58052 0.84433 0.84761 0.0
H117 H 0.59508 0.86277 0.83781 0.0
C118 C 0.51782 0.91293 0.83754 0.0
N119 N 0.53661 0.91619 0.8371 0.0
N120 N 0.54517 0.90502 0.84939 0.0
C121 C 0.53194 0.89411 0.85802 0.0
C122 C 0.51421 0.89868 0.85059 0.0
C123 C 0.50364 0.923 0.82528 0.0
H124 H 0.50674 0.93843 0.82513 0.0
H125 H 0.50474 0.91754 0.81054 0.0
H126 H 0.48892 0.92081 0.83049 0.0
O127 O 0.56789 0.94855 0.83467 0.0
O128 O 0.58261 0.93095 0.85633 0.0
H129 H 0.54592 0.88365 0.88293 0.0
H130 H 0.52346 0.87221 0.87801 0.0
C131 C 0.53644 0.87832 0.87153 0.0
H132 H 0.54396 0.86688 0.86378 0.0
H133 H 0.58581 0.9056 0.89192 0.0
O134 O 0.53504 0.9466 0.80397 0.0
C135 C 0.57955 0.94692 0.8484 0.0
Co136 Co 0.1834 0.8032 0.07295 0.0
Co137 Co 0.15573 0.82489 0.10007 0.0
C138 C 0.15536 0.83123 0.05791 0.0
O139 O 0.16837 0.81897 0.05517 0.0
O140 O 0.14944 0.83502 0.07456 0.0
C141 C 0.19503 0.7808 0.0413 0.0
O142 O 0.17831 0.78555 0.03451 0.0
C143 C 0.11926 0.83926 0.11284 0.0
C144 C 0.12386 0.84439 0.14347 0.0
C145 C 0.11045 0.84581 0.12913 0.0
N146 N 0.13716 0.83436 0.11722 0.0
N147 N 0.13986 0.83745 0.13555 0.0
C148 C 0.11041 0.83631 0.09372 0.0
H149 H 0.11685 0.82382 0.08658 0.0
H150 H 0.09484 0.83412 0.09497 0.0
H151 H 0.11299 0.84905 0.08482 0.0
C152 C 0.16394 0.77016 0.08932 0.0
N153 N 0.16732 0.78893 0.08866 0.0
N154 N 0.15537 0.7978 0.09997 0.0
C155 C 0.1438 0.78483 0.1081 0.0
C156 C 0.1488 0.76693 0.10144 0.0
C157 C 0.17471 0.75561 0.07816 0.0
H158 H 0.19014 0.75872 0.0788 0.0
H159 H 0.1701 0.75617 0.0631 0.0
H160 H 0.1722 0.74107 0.08373 0.0
O161 O 0.20018 0.81974 0.08797 0.0
O162 O 0.18094 0.83548 0.10741 0.0
H163 H 0.13195 0.7983 0.13262 0.0
H164 H 0.11973 0.77682 0.12564 0.0
C165 C 0.12712 0.78968 0.12035 0.0
H166 H 0.1169 0.79829 0.11204 0.0
H167 H 0.15261 0.83479 0.14265 0.0
O168 O 0.19989 0.78651 0.05771 0.0
C169 C 0.19752 0.83198 0.10101 0.0
Co170 Co 0.05327 0.56084 0.17063 0.0
Co171 Co 0.07434 0.59107 0.14581 0.0
C172 C 0.07882 0.59039 0.18802 0.0
O173 O 0.06758 0.57627 0.18948 0.0
O174 O 0.08279 0.59756 0.17189 0.0
C175 C 0.02832 0.54747 0.19981 0.0
O176 O 0.02872 0.5652 0.20566 0.0
C177 C 0.09046 0.62691 0.1321 0.0
C178 C 0.08634 0.62463 0.10106 0.0
C179 C 0.09265 0.63675 0.1152 0.0
N180 N 0.08273 0.60991 0.12822 0.0
N181 N 0.08049 0.60854 0.10962 0.0
C182 C 0.09691 0.63282 0.15146 0.0
H183 H 0.10609 0.62147 0.15734 0.0
H184 H 0.08438 0.63451 0.16089 0.0
H185 H 0.10524 0.64617 0.15122 0.0
C186 C 0.01972 0.57869 0.15331 0.0
N187 N 0.03863 0.57648 0.1548 0.0
N188 N 0.04724 0.59003 0.14524 0.0
C189 C 0.03396 0.60185 0.13803 0.0
C190 C 0.01609 0.59501 0.14293 0.0
C191 C 0.00535 0.56543 0.16169 0.0
H192 H 0.01069 0.55063 0.16117 0.0
H193 H 0.00274 0.56938 0.17671 0.0
H194 H 0.99168 0.56628 0.15387 0.0
O195 O 0.07097 0.5455 0.15574 0.0
O196 O 0.08668 0.56656 0.13833 0.0
H197 H 0.04265 0.61838 0.11412 0.0
H198 H 0.02586 0.63028 0.12934 0.0
C199 C 0.03833 0.62066 0.1291 0.0
H200 H 0.0502 0.6276 0.13676 0.0
H201 H 0.07458 0.59676 0.10281 0.0
O202 O 0.03738 0.54287 0.1849 0.0
C203 C 0.08368 0.54949 0.14357 0.0
Co204 Co 0.81103 0.69235 0.07441 0.0
Co205 Co 0.83956 0.67082 0.1008 0.0
C206 C 0.83987 0.66517 0.05873 0.0
O207 O 0.82635 0.67695 0.05642 0.0
O208 O 0.84633 0.66147 0.07519 0.0
C209 C 0.79916 0.71418 0.04259 0.0
O210 O 0.81611 0.70967 0.03619 0.0
C211 C 0.87641 0.65783 0.1135 0.0
C212 C 0.87145 0.65013 0.14353 0.0
C213 C 0.88522 0.65051 0.12946 0.0
N214 N 0.85821 0.66144 0.1178 0.0
N215 N 0.85527 0.65684 0.13578 0.0
C216 C 0.88536 0.66252 0.09477 0.0
H217 H 0.87831 0.67508 0.08837 0.0
H218 H 0.90077 0.66544 0.09645 0.0
H219 H 0.88357 0.65029 0.08499 0.0
C220 C 0.82928 0.7256 0.09204 0.0
N221 N 0.82676 0.70673 0.09045 0.0
N222 N 0.83892 0.69787 0.10154 0.0
C223 C 0.84973 0.71094 0.11048 0.0
C224 C 0.84395 0.7289 0.10475 0.0
C225 C 0.81921 0.73992 0.07995 0.0
H226 H 0.82334 0.73773 0.06491 0.0
H227 H 0.82272 0.75472 0.08397 0.0
H228 H 0.80364 0.73776 0.0811 0.0
O229 O 0.79456 0.67519 0.08928 0.0
O230 O 0.8148 0.6591 0.10744 0.0
H231 H 0.87084 0.71926 0.13125 0.0
H232 H 0.87743 0.69978 0.1159 0.0
C233 C 0.86556 0.70635 0.1239 0.0
H234 H 0.86054 0.69602 0.13466 0.0
H235 H 0.84224 0.65823 0.14271 0.0
O236 O 0.79423 0.7088 0.05911 0.0
C237 C 0.798 0.6625 0.10167 0.0
Co238 Co 0.94155 0.93508 0.1693 0.0
Co239 Co 0.92097 0.90508 0.1437 0.0
C240 C 0.91473 0.90596 0.18552 0.0
O241 O 0.926 0.91997 0.18741 0.0
O242 O 0.91146 0.89872 0.1693 0.0
C243 C 0.96357 0.9466 0.20088 0.0
O244 O 0.96005 0.92914 0.20643 0.0
C245 C 0.90867 0.86773 0.13089 0.0
C246 C 0.90051 0.87301 0.10102 0.0
C247 C 0.9013 0.85903 0.11485 0.0
N248 N 0.91224 0.88599 0.12669 0.0
N249 N 0.90748 0.88905 0.10878 0.0
C250 C 0.91039 0.85959 0.15049 0.0
H251 H 0.92301 0.86561 0.15776 0.0
H252 H 0.91141 0.84391 0.1504 0.0
H253 H 0.89758 0.86357 0.15876 0.0
C254 C 0.9754 0.91678 0.15306 0.0
N255 N 0.95647 0.9191 0.15403 0.0
N256 N 0.94807 0.90611 0.14355 0.0
C257 C 0.9615 0.89481 0.1358 0.0
C258 C 0.97926 0.90115 0.14173 0.0
C259 C 0.98952 0.92921 0.16298 0.0
H260 H 0.98489 0.94425 0.16225 0.0
H261 H 0.99045 0.92496 0.17812 0.0
H262 H 0.00383 0.92793 0.15646 0.0
O263 O 0.9246 0.95092 0.15367 0.0
O264 O 0.9089 0.92964 0.13635 0.0
H265 H 0.94833 0.88073 0.1123 0.0
H266 H 0.97028 0.86979 0.11995 0.0
C267 C 0.95722 0.87712 0.12479 0.0
H268 H 0.94906 0.86721 0.13389 0.0
H269 H 0.90857 0.90219 0.10201 0.0
O270 O 0.95747 0.95216 0.18482 0.0
C271 C 0.91201 0.94674 0.1414 0.0
Co272 Co 0.42386 0.18146 0.19511 0.0
Co273 Co 0.39545 0.15528 0.17306 0.0
C274 C 0.43741 0.15416 0.16581 0.0
O275 O 0.44095 0.16618 0.17882 0.0
O276 O 0.42051 0.14924 0.16176 0.0
C277 C 0.45638 0.1921 0.21686 0.0
O278 O 0.46271 0.17531 0.21174 0.0
C279 C 0.38081 0.11986 0.15738 0.0
C280 C 0.34988 0.12521 0.15586 0.0
C281 C 0.36364 0.11153 0.15253 0.0
N282 N 0.37733 0.13754 0.16366 0.0
N283 N 0.35884 0.1407 0.16265 0.0
C284 C 0.4004 0.1119 0.15486 0.0
H285 H 0.40801 0.12042 0.14401 0.0
H286 H 0.40836 0.11307 0.16842 0.0
H287 H 0.40037 0.09697 0.14996 0.0
C288 C 0.40747 0.16167 0.22786 0.0
N289 N 0.40798 0.16545 0.20917 0.0
N290 N 0.39651 0.15379 0.20013 0.0
C291 C 0.38856 0.14187 0.21288 0.0
C292 C 0.39535 0.14646 0.23085 0.0
C293 C 0.41852 0.17242 0.24253 0.0
H294 H 0.41814 0.18782 0.23928 0.0
H295 H 0.43353 0.16762 0.24225 0.0
H296 H 0.41266 0.17011 0.25699 0.0
O297 O 0.40895 0.19904 0.17924 0.0
O298 O 0.38812 0.18094 0.16396 0.0
H299 H 0.36307 0.13031 0.20111 0.0
H300 H 0.37304 0.11619 0.2201 0.0
C301 C 0.37645 0.12519 0.20764 0.0
H302 H 0.38404 0.11638 0.19702 0.0
H303 H 0.35235 0.1534 0.1667 0.0
O304 O 0.43986 0.19727 0.21178 0.0
C305 C 0.39525 0.19717 0.16758 0.0
Co306 Co 0.43352 0.32009 0.05198 0.0
Co307 Co 0.40596 0.34826 0.07261 0.0
C308 C 0.40583 0.3067 0.08139 0.0
O309 O 0.41874 0.30343 0.06916 0.0
O310 O 0.39973 0.32345 0.08432 0.0
C311 C 0.44402 0.28699 0.03133 0.0
O312 O 0.42708 0.28111 0.03655 0.0
C313 C 0.3699 0.36305 0.08665 0.0
C314 C 0.37518 0.39398 0.08806 0.0
C315 C 0.36139 0.38026 0.09103 0.0
N316 N 0.3878 0.36647 0.081 0.0
N317 N 0.39091 0.38497 0.0819 0.0
C318 C 0.3619 0.34348 0.08917 0.0
H319 H 0.36415 0.33509 0.07601 0.0
H320 H 0.34665 0.34349 0.09295 0.0
H321 H 0.36967 0.33636 0.10085 0.0
C322 C 0.41367 0.33469 0.01835 0.0
N323 N 0.41717 0.3349 0.03711 0.0
N324 N 0.4051 0.34637 0.04558 0.0
C325 C 0.3932 0.3536 0.03239 0.0
C326 C 0.39822 0.34633 0.01473 0.0
C327 C 0.42488 0.32347 0.00418 0.0
H328 H 0.44022 0.3242 0.00769 0.0
H329 H 0.42031 0.3084 0.00473 0.0
H330 H 0.42273 0.32892 0.98954 0.0
O331 O 0.45064 0.33611 0.06715 0.0
O332 O 0.43143 0.35613 0.08218 0.0
H333 H 0.38078 0.379 0.04351 0.0
H334 H 0.36745 0.36856 0.0242 0.0
C335 C 0.37613 0.36545 0.03696 0.0
H336 H 0.36713 0.3578 0.04735 0.0
H337 H 0.40375 0.39143 0.07827 0.0
O338 O 0.44949 0.30353 0.03601 0.0
C339 C 0.44803 0.34977 0.0787 0.0
Co340 Co 0.57285 0.3121 0.19124 0.0
Co341 Co 0.60047 0.33916 0.16939 0.0
C342 C 0.55818 0.34043 0.16341 0.0
O343 O 0.55523 0.32751 0.1757 0.0
O344 O 0.57494 0.34597 0.15952 0.0
C345 C 0.54086 0.30004 0.21305 0.0
O346 O 0.5338 0.3165 0.2078 0.0
C347 C 0.6134 0.37591 0.15636 0.0
C348 C 0.64339 0.37087 0.14858 0.0
C349 C 0.62938 0.38469 0.14906 0.0
N350 N 0.61762 0.35767 0.15988 0.0
N351 N 0.63558 0.35469 0.15523 0.0
C352 C 0.59475 0.38494 0.16116 0.0
H353 H 0.58829 0.3778 0.17365 0.0
H354 H 0.59655 0.4003 0.16424 0.0
H355 H 0.58495 0.38338 0.14892 0.0
C356 C 0.59075 0.3303 0.22426 0.0
N357 N 0.58914 0.32768 0.20542 0.0
N358 N 0.60078 0.33924 0.19647 0.0
C359 C 0.61016 0.34976 0.20947 0.0
C360 C 0.60413 0.34438 0.22746 0.0
C361 C 0.57829 0.32078 0.23864 0.0
H362 H 0.57975 0.30515 0.23729 0.0
H363 H 0.56328 0.32454 0.23573 0.0
H364 H 0.58173 0.32509 0.25338 0.0
O365 O 0.58753 0.29514 0.17448 0.0
O366 O 0.60739 0.31392 0.15869 0.0
H367 H 0.63498 0.35904 0.19456 0.0
H368 H 0.63202 0.36977 0.2177 0.0
C369 C 0.62447 0.36477 0.2048 0.0
H370 H 0.61717 0.37699 0.19806 0.0
H371 H 0.64246 0.34163 0.15656 0.0
O372 O 0.5576 0.29558 0.208 0.0
C373 C 0.60063 0.2975 0.16224 0.0
Co374 Co 0.56249 0.16831 0.05276 0.0
Co375 Co 0.59138 0.14266 0.07468 0.0
C376 C 0.59108 0.18486 0.07965 0.0
O377 O 0.57747 0.18676 0.06791 0.0
O378 O 0.5978 0.16856 0.08358 0.0
C379 C 0.55012 0.19958 0.03047 0.0
O380 O 0.56702 0.20624 0.03477 0.0
C381 C 0.62892 0.13036 0.08613 0.0
C382 C 0.62356 0.10222 0.099 0.0
C383 C 0.63775 0.11538 0.09536 0.0
N384 N 0.61041 0.12617 0.0843 0.0
N385 N 0.60728 0.10926 0.09182 0.0
C386 C 0.63719 0.14932 0.0811 0.0
H387 H 0.6293 0.15564 0.06901 0.0
H388 H 0.65241 0.14835 0.07738 0.0
H389 H 0.63582 0.15893 0.09353 0.0
C390 C 0.581 0.15054 0.01977 0.0
N391 N 0.5785 0.15236 0.03862 0.0
N392 N 0.59073 0.14147 0.04763 0.0
C393 C 0.60153 0.13236 0.03467 0.0
C394 C 0.59571 0.13783 0.01664 0.0
C395 C 0.57088 0.16242 0.00532 0.0
H396 H 0.57476 0.17753 0.00748 0.0
H397 H 0.57457 0.15843 0.99055 0.0
H398 H 0.55531 0.16103 0.00735 0.0
O399 O 0.54623 0.15327 0.06994 0.0
O400 O 0.56667 0.13569 0.08641 0.0
H401 H 0.62181 0.1107 0.02671 0.0
H402 H 0.62968 0.12715 0.04471 0.0
C403 C 0.61733 0.11895 0.03938 0.0
H404 H 0.6127 0.10899 0.05066 0.0
H405 H 0.59395 0.10282 0.09258 0.0
O406 O 0.54543 0.18309 0.03612 0.0
C407 C 0.54979 0.14108 0.08279 0.0
Co408 Co 0.41992 0.81015 0.30161 0.0
Co409 Co 0.39409 0.84004 0.32206 0.0
C410 C 0.43564 0.83941 0.3289 0.0
O411 O 0.43752 0.82529 0.31775 0.0
O412 O 0.41946 0.84687 0.33192 0.0
C413 C 0.45208 0.79935 0.28014 0.0
O414 O 0.45742 0.81679 0.28411 0.0
C415 C 0.37908 0.87579 0.337 0.0
C416 C 0.34803 0.87144 0.33494 0.0
C417 C 0.36175 0.88461 0.33997 0.0
N418 N 0.37581 0.85831 0.33011 0.0
N419 N 0.35723 0.85573 0.329 0.0
C420 C 0.39844 0.8831 0.34192 0.0
H421 H 0.40507 0.87322 0.3522 0.0
H422 H 0.4074 0.88346 0.32895 0.0
H423 H 0.39807 0.89736 0.34855 0.0
C424 C 0.40474 0.82913 0.26771 0.0
N425 N 0.40498 0.82625 0.28659 0.0
N426 N 0.39469 0.83937 0.29501 0.0
C427 C 0.38799 0.85143 0.28169 0.0
C428 C 0.39419 0.84531 0.26397 0.0
C429 C 0.41486 0.81688 0.25357 0.0
H430 H 0.41392 0.80177 0.25788 0.0
H431 H 0.43005 0.82104 0.25303 0.0
H432 H 0.40865 0.81854 0.23917 0.0
O433 O 0.40409 0.79396 0.31794 0.0
O434 O 0.38702 0.81528 0.3338 0.0
H435 H 0.3637 0.86684 0.29136 0.0
H436 H 0.37737 0.87924 0.27356 0.0
C437 C 0.37826 0.86981 0.28614 0.0
H438 H 0.38615 0.87733 0.29751 0.0
H439 H 0.35084 0.84332 0.32401 0.0
O440 O 0.43595 0.79353 0.28578 0.0
C441 C 0.39187 0.79816 0.33057 0.0
Co442 Co 0.06029 0.32368 0.942 0.0
Co443 Co 0.09193 0.34781 0.9221 0.0
C444 C 0.09078 0.3058 0.91757 0.0
O445 O 0.07596 0.30472 0.92794 0.0
O446 O 0.09867 0.32171 0.91415 0.0
C447 C 0.04601 0.29421 0.966 0.0
O448 O 0.06373 0.28833 0.96593 0.0
C449 C 0.12801 0.36162 0.9064 0.0
C450 C 0.12517 0.39271 0.9097 0.0
C451 C 0.13748 0.37864 0.90359 0.0
N452 N 0.111 0.36538 0.91417 0.0
N453 N 0.10933 0.384 0.91601 0.0
C454 C 0.13413 0.34223 0.90022 0.0
H455 H 0.13557 0.33291 0.91286 0.0
H456 H 0.14766 0.34243 0.89218 0.0
H457 H 0.12298 0.33622 0.89087 0.0
C458 C 0.07752 0.3405 0.97623 0.0
N459 N 0.07579 0.33915 0.95725 0.0
N460 N 0.0897 0.34859 0.94908 0.0
C461 C 0.1012 0.35566 0.9627 0.0
C462 C 0.09381 0.35076 0.98035 0.0
C463 C 0.064 0.33188 0.99019 0.0
H464 H 0.04929 0.33253 0.9846 0.0
H465 H 0.06787 0.3168 0.99256 0.0
H466 H 0.06463 0.33943 0.00403 0.0
O467 O 0.04566 0.33902 0.92394 0.0
O468 O 0.06808 0.35507 0.90859 0.0
H469 H 0.11822 0.37934 0.95435 0.0
H470 H 0.12947 0.36412 0.9716 0.0
C471 C 0.12022 0.36438 0.95885 0.0
H472 H 0.12742 0.35658 0.94722 0.0
H473 H 0.09742 0.39075 0.92172 0.0
O474 O 0.04169 0.30934 0.95718 0.0
C475 C 0.05073 0.35069 0.91116 0.0
Co476 Co 0.57484 0.68408 0.30342 0.0
Co477 Co 0.60051 0.65373 0.32321 0.0
C478 C 0.5588 0.65493 0.33024 0.0
O479 O 0.55679 0.66899 0.31905 0.0
O480 O 0.57503 0.64761 0.33322 0.0
C481 C 0.5432 0.69602 0.28185 0.0
O482 O 0.53749 0.6786 0.28537 0.0
C483 C 0.61268 0.61648 0.33612 0.0
C484 C 0.64371 0.61993 0.3395 0.0
C485 C 0.62901 0.60699 0.34149 0.0
N486 N 0.61739 0.63433 0.33135 0.0
N487 N 0.63596 0.63634 0.33338 0.0
C488 C 0.59313 0.60832 0.33412 0.0
H489 H 0.58568 0.61493 0.32191 0.0
H490 H 0.59368 0.59271 0.33197 0.0
H491 H 0.58493 0.61132 0.34723 0.0
C492 C 0.59018 0.66584 0.26908 0.0
N493 N 0.58965 0.66811 0.28803 0.0
N494 N 0.60017 0.65497 0.29614 0.0
C495 C 0.60751 0.64365 0.2825 0.0
C496 C 0.60128 0.65014 0.26492 0.0
C497 C 0.57999 0.67831 0.25519 0.0
H498 H 0.58092 0.69335 0.25978 0.0
H499 H 0.56481 0.67413 0.25463 0.0
H500 H 0.58615 0.67696 0.24073 0.0
O501 O 0.59087 0.69957 0.32034 0.0
O502 O 0.6084 0.67802 0.33541 0.0
H503 H 0.63167 0.6294 0.29412 0.0
H504 H 0.62202 0.61802 0.27322 0.0
C505 C 0.61841 0.62581 0.28642 0.0
H506 H 0.60981 0.61637 0.29561 0.0
H507 H 0.64333 0.64889 0.33056 0.0
O508 O 0.55933 0.70143 0.28786 0.0
C509 C 0.60337 0.69518 0.33263 0.0
Co510 Co 0.93126 0.1714 0.94256 0.0
Co511 Co 0.90312 0.14496 0.92054 0.0
C512 C 0.90224 0.18735 0.91598 0.0
O513 O 0.91555 0.18964 0.928 0.0
O514 O 0.89624 0.17083 0.9117 0.0
C515 C 0.94362 0.20176 0.9667 0.0
O516 O 0.92599 0.20769 0.96507 0.0
C517 C 0.86648 0.13116 0.90689 0.0
C518 C 0.8727 0.10119 0.89983 0.0
C519 C 0.85834 0.11465 0.89981 0.0
N520 N 0.88474 0.12752 0.91108 0.0
N521 N 0.88837 0.10958 0.90691 0.0
C522 C 0.858 0.15066 0.90782 0.0
H523 H 0.86424 0.15937 0.8963 0.0
H524 H 0.8617 0.1574 0.92159 0.0
H525 H 0.84242 0.15074 0.90589 0.0
C526 C 0.9139 0.15229 0.97552 0.0
N527 N 0.91602 0.15468 0.95669 0.0
N528 N 0.90374 0.14388 0.94762 0.0
C529 C 0.89306 0.13456 0.96054 0.0
C530 C 0.89924 0.13953 0.97859 0.0
C531 C 0.92448 0.16346 0.99021 0.0
H532 H 0.93986 0.16353 0.98677 0.0
H533 H 0.91929 0.17833 0.99007 0.0
H534 H 0.92245 0.15765 0.0047 0.0
O535 O 0.94761 0.15723 0.92495 0.0
O536 O 0.92808 0.13833 0.90894 0.0
H537 H 0.88192 0.11032 0.94603 0.0
H538 H 0.87071 0.11501 0.96864 0.0
C539 C 0.87687 0.12165 0.95573 0.0
H540 H 0.86569 0.12987 0.94828 0.0
H541 H 0.90162 0.10315 0.90866 0.0
O542 O 0.94848 0.18626 0.95884 0.0
C543 C 0.9447 0.14467 0.91229 0.0
Co544 Co 0.19487 0.42264 0.18285 0.0
Co545 Co 0.17366 0.39705 0.15341 0.0
C546 C 0.16862 0.43922 0.15354 0.0
O547 O 0.18012 0.44105 0.1674 0.0
O548 O 0.16469 0.42293 0.1467 0.0
C549 C 0.21924 0.45256 0.19573 0.0
O550 O 0.21825 0.45847 0.17805 0.0
C551 C 0.15887 0.38269 0.11727 0.0
C552 C 0.15687 0.35182 0.12272 0.0
C553 C 0.15381 0.36556 0.10898 0.0
N554 N 0.16491 0.37922 0.13503 0.0
N555 N 0.16371 0.36075 0.13821 0.0
C556 C 0.15631 0.40226 0.10937 0.0
H557 H 0.16968 0.41045 0.11101 0.0
H558 H 0.15187 0.40227 0.09429 0.0
H559 H 0.14509 0.4095 0.11768 0.0
C560 C 0.22835 0.40565 0.1645 0.0
N561 N 0.20948 0.4068 0.16716 0.0
N562 N 0.20076 0.39665 0.15412 0.0
C563 C 0.21389 0.38917 0.1423 0.0
C564 C 0.23181 0.39474 0.14849 0.0
C565 C 0.24285 0.41505 0.17689 0.0
H566 H 0.23816 0.41471 0.19192 0.0
H567 H 0.24456 0.43006 0.17243 0.0
H568 H 0.25683 0.40786 0.17568 0.0
O569 O 0.17751 0.40778 0.19871 0.0
O570 O 0.16178 0.38981 0.17816 0.0
H571 H 0.20243 0.36531 0.12745 0.0
H572 H 0.22192 0.37669 0.11523 0.0
C573 C 0.20917 0.37916 0.12414 0.0
H574 H 0.19887 0.38778 0.11594 0.0
H575 H 0.16747 0.35426 0.151 0.0
O576 O 0.21079 0.43734 0.20045 0.0
C577 C 0.1649 0.39538 0.1951 0.0
Co578 Co 0.19288 0.57341 0.31106 0.0
Co579 Co 0.17167 0.59882 0.34059 0.0
C580 C 0.16652 0.55662 0.33995 0.0
O581 O 0.17824 0.55473 0.32629 0.0
O582 O 0.16255 0.57292 0.34669 0.0
C583 C 0.2176 0.54391 0.29797 0.0
O584 O 0.21682 0.538 0.31566 0.0
C585 C 0.15718 0.61137 0.37732 0.0
C586 C 0.15369 0.64228 0.37311 0.0
C587 C 0.15132 0.62785 0.38626 0.0
N588 N 0.16261 0.61575 0.35957 0.0
N589 N 0.16049 0.63425 0.35711 0.0
C590 C 0.15902 0.59202 0.38595 0.0
H591 H 0.17145 0.58448 0.37987 0.0
H592 H 0.16067 0.59292 0.4016 0.0
H593 H 0.14603 0.58371 0.38274 0.0
C594 C 0.22636 0.59074 0.32924 0.0
N595 N 0.20748 0.58922 0.32685 0.0
N596 N 0.19875 0.59943 0.33985 0.0
C597 C 0.21192 0.60741 0.3513 0.0
C598 C 0.22984 0.60203 0.34497 0.0
C599 C 0.24087 0.58153 0.31671 0.0
H600 H 0.23601 0.58174 0.30174 0.0
H601 H 0.24288 0.56657 0.32121 0.0
H602 H 0.25475 0.58896 0.31772 0.0
O603 O 0.17535 0.58838 0.29543 0.0
O604 O 0.15976 0.60645 0.31603 0.0
H605 H 0.19974 0.63138 0.36539 0.0
H606 H 0.22019 0.6216 0.37744 0.0
C607 C 0.2073 0.61807 0.36911 0.0
H608 H 0.19773 0.60937 0.37808 0.0
H609 H 0.16374 0.64139 0.34453 0.0
O610 O 0.20885 0.55897 0.29329 0.0
C611 C 0.16281 0.60084 0.29909 0.0
Co612 Co 0.82135 0.55474 0.92936 0.0
Co613 Co 0.85148 0.5761 0.90463 0.0
C614 C 0.80951 0.58402 0.90158 0.0
O615 O 0.80515 0.57097 0.91327 0.0
O616 O 0.82672 0.58783 0.8976 0.0
C617 C 0.78773 0.53454 0.93986 0.0
O618 O 0.78147 0.54073 0.9234 0.0
C619 C 0.86703 0.58649 0.86801 0.0
C620 C 0.8933 0.60192 0.87557 0.0
C621 C 0.88195 0.59679 0.86031 0.0
N622 N 0.86949 0.58554 0.8869 0.0
N623 N 0.88535 0.59455 0.89135 0.0
C624 C 0.84959 0.57953 0.85799 0.0
H625 H 0.83975 0.57245 0.86803 0.0
H626 H 0.85352 0.56909 0.8469 0.0
H627 H 0.84233 0.59162 0.85092 0.0
C628 C 0.83891 0.52145 0.91149 0.0
N629 N 0.83785 0.54029 0.91432 0.0
N630 N 0.85066 0.54897 0.90383 0.0
C631 C 0.86045 0.53572 0.89399 0.0
C632 C 0.85329 0.51792 0.89853 0.0
C633 C 0.82527 0.50744 0.91986 0.0
H634 H 0.82636 0.50785 0.93558 0.0
H635 H 0.81059 0.51155 0.91591 0.0
H636 H 0.82789 0.49276 0.91481 0.0
O637 O 0.8358 0.57085 0.94735 0.0
O638 O 0.85794 0.58557 0.93033 0.0
H639 H 0.88552 0.55146 0.88664 0.0
H640 H 0.88549 0.52705 0.87854 0.0
C641 C 0.87659 0.53987 0.88081 0.0
H642 H 0.87085 0.54445 0.86688 0.0
H643 H 0.89029 0.59639 0.90521 0.0
O644 O 0.80466 0.53833 0.94488 0.0
C645 C 0.84981 0.58225 0.94615 0.0
Co646 Co 0.80218 0.92327 0.31173 0.0
Co647 Co 0.82311 0.89476 0.33851 0.0
C648 C 0.8299 0.9369 0.34035 0.0
O649 O 0.81726 0.9406 0.32797 0.0
O650 O 0.83388 0.91992 0.34505 0.0
C651 C 0.77865 0.95442 0.29939 0.0
O652 O 0.77999 0.96035 0.31705 0.0
C653 C 0.83529 0.88107 0.37539 0.0
C654 C 0.84431 0.85158 0.36942 0.0
C655 C 0.84292 0.86499 0.38377 0.0
N656 N 0.83209 0.87728 0.35698 0.0
N657 N 0.83739 0.85961 0.35348 0.0
C658 C 0.83291 0.9004 0.38399 0.0
H659 H 0.82042 0.90764 0.37764 0.0
H660 H 0.83124 0.89984 0.39961 0.0
H661 H 0.84573 0.909 0.38077 0.0
C662 C 0.76852 0.90617 0.32958 0.0
N663 N 0.78737 0.90699 0.32674 0.0
N664 N 0.79595 0.89533 0.33857 0.0
C665 C 0.7827 0.88691 0.34961 0.0
C666 C 0.7649 0.8937 0.34436 0.0
C667 C 0.75419 0.91727 0.31845 0.0
H668 H 0.75831 0.91764 0.30326 0.0
H669 H 0.75367 0.93203 0.32393 0.0
H670 H 0.73982 0.9109 0.3197 0.0
O671 O 0.81927 0.90868 0.29506 0.0
O672 O 0.83379 0.88754 0.31341 0.0
H673 H 0.79662 0.86255 0.36133 0.0
H674 H 0.77428 0.86819 0.37267 0.0
C675 C 0.78722 0.87426 0.3661 0.0
H676 H 0.79488 0.88258 0.37704 0.0
H677 H 0.83667 0.85318 0.34013 0.0
O678 O 0.78654 0.9389 0.29463 0.0
C679 C 0.83091 0.89502 0.29719 0.0
Co680 Co 0.67141 0.44141 0.43248 0.0
Co681 Co 0.64516 0.41878 0.40476 0.0
C682 C 0.68758 0.41424 0.40451 0.0
O683 O 0.69004 0.42699 0.41708 0.0
O684 O 0.67105 0.40941 0.39905 0.0
C685 C 0.70111 0.46639 0.44478 0.0
O686 O 0.7071 0.46493 0.42715 0.0
C687 C 0.63304 0.40487 0.36782 0.0
C688 C 0.603 0.39708 0.37277 0.0
C689 C 0.61705 0.39753 0.35899 0.0
N690 N 0.62857 0.40883 0.38594 0.0
N691 N 0.6106 0.40419 0.38884 0.0
C692 C 0.65276 0.4065 0.35994 0.0
H693 H 0.66152 0.39474 0.36572 0.0
H694 H 0.65926 0.4201 0.36458 0.0
H695 H 0.65313 0.40553 0.34426 0.0
C696 C 0.65352 0.47395 0.41337 0.0
N697 N 0.65504 0.45521 0.41662 0.0
N698 N 0.6444 0.44591 0.40438 0.0
C699 C 0.63601 0.45856 0.39264 0.0
C700 C 0.64171 0.47672 0.3979 0.0
C701 C 0.66346 0.48897 0.42468 0.0
H702 H 0.66353 0.48508 0.43993 0.0
H703 H 0.67835 0.49024 0.41968 0.0
H704 H 0.65639 0.50296 0.42298 0.0
O705 O 0.65702 0.42393 0.4489 0.0
O706 O 0.63761 0.40807 0.42977 0.0
H707 H 0.61264 0.44392 0.37986 0.0
H708 H 0.6189 0.46581 0.368 0.0
C709 C 0.62459 0.45321 0.37551 0.0
H710 H 0.63371 0.44515 0.36553 0.0
H711 H 0.60359 0.40572 0.40182 0.0
O712 O 0.68589 0.45803 0.44967 0.0
C713 C 0.64412 0.41155 0.44629 0.0
Co714 Co 0.30062 0.57129 0.68145 0.0
Co715 Co 0.3223 0.59934 0.65477 0.0
C716 C 0.32885 0.55729 0.65328 0.0
O717 O 0.31607 0.55392 0.6656 0.0
O718 O 0.33308 0.57415 0.6484 0.0
C719 C 0.27848 0.53921 0.69226 0.0
O720 O 0.28296 0.53308 0.67521 0.0
C721 C 0.33722 0.61266 0.61875 0.0
C722 C 0.34051 0.64355 0.62326 0.0
C723 C 0.34304 0.62924 0.60999 0.0
N724 N 0.33165 0.61686 0.6365 0.0
N725 N 0.33368 0.63534 0.63917 0.0
C726 C 0.33539 0.59338 0.60992 0.0
H727 H 0.3227 0.58597 0.61562 0.0
H728 H 0.33416 0.59436 0.59423 0.0
H729 H 0.34816 0.58484 0.61348 0.0
C730 C 0.26753 0.58814 0.66264 0.0
N731 N 0.28631 0.58744 0.66593 0.0
N732 N 0.29517 0.59881 0.65404 0.0
C733 C 0.28219 0.60692 0.64247 0.0
C734 C 0.26426 0.60026 0.64749 0.0
C735 C 0.25303 0.57721 0.67371 0.0
H736 H 0.25666 0.57749 0.68903 0.0
H737 H 0.25299 0.56223 0.66883 0.0
H738 H 0.23859 0.58325 0.6718 0.0
O739 O 0.31734 0.58583 0.69859 0.0
O740 O 0.33243 0.60652 0.68016 0.0
H741 H 0.29457 0.63204 0.63074 0.0
H742 H 0.27437 0.62329 0.61749 0.0
C743 C 0.2871 0.6191 0.62575 0.0
H744 H 0.29685 0.61121 0.61624 0.0
H745 H 0.33027 0.64235 0.65178 0.0
O746 O 0.28413 0.55549 0.6976 0.0
C747 C 0.32919 0.59932 0.69645 0.0
Co748 Co 0.82186 0.44126 0.56043 0.0
Co749 Co 0.84673 0.42039 0.59078 0.0
C750 C 0.80447 0.41656 0.59074 0.0
O751 O 0.80301 0.42745 0.57635 0.0
O752 O 0.82062 0.41255 0.59784 0.0
C753 C 0.79269 0.46618 0.54689 0.0
O754 O 0.78691 0.46601 0.56464 0.0
C755 C 0.86072 0.40464 0.62669 0.0
C756 C 0.89178 0.40825 0.62391 0.0
C757 C 0.87771 0.40233 0.63632 0.0
N758 N 0.86446 0.41206 0.60952 0.0
N759 N 0.88307 0.41399 0.60785 0.0
C760 C 0.84135 0.39856 0.63296 0.0
H761 H 0.83213 0.41124 0.63459 0.0
H762 H 0.84167 0.39045 0.64645 0.0
H763 H 0.83519 0.38928 0.62184 0.0
C764 C 0.83982 0.47488 0.5776 0.0
N765 N 0.83809 0.45596 0.57565 0.0
N766 N 0.84772 0.44743 0.5892 0.0
C767 C 0.85523 0.46077 0.60076 0.0
C768 C 0.85047 0.4786 0.59374 0.0
C769 C 0.83127 0.48915 0.56436 0.0
H770 H 0.83159 0.48371 0.54959 0.0
H771 H 0.81629 0.49177 0.56849 0.0
H772 H 0.8391 0.50283 0.56502 0.0
O773 O 0.83634 0.42307 0.5452 0.0
O774 O 0.85359 0.40742 0.56644 0.0
H775 H 0.87912 0.45197 0.61727 0.0
H776 H 0.8642 0.46913 0.62904 0.0
C777 C 0.86422 0.45653 0.61958 0.0
H778 H 0.85642 0.44487 0.62672 0.0
H779 H 0.8898 0.41962 0.59589 0.0
O780 O 0.80755 0.45702 0.54234 0.0
C781 C 0.84828 0.41019 0.54936 0.0
Co782 Co 0.17107 0.05127 0.56348 0.0
Co783 Co 0.14325 0.07334 0.59017 0.0
C784 C 0.18542 0.07959 0.59162 0.0
O785 O 0.18842 0.06716 0.57885 0.0
O786 O 0.16865 0.0835 0.59709 0.0
C787 C 0.20329 0.02932 0.55274 0.0
O788 O 0.20961 0.03448 0.56953 0.0
C789 C 0.12893 0.08664 0.6265 0.0
C790 C 0.09916 0.09427 0.61997 0.0
C791 C 0.11242 0.09381 0.63452 0.0
N792 N 0.12548 0.08284 0.60813 0.0
N793 N 0.10766 0.08734 0.60429 0.0
C794 C 0.1483 0.08521 0.63524 0.0
H795 H 0.15515 0.07172 0.6308 0.0
H796 H 0.1481 0.08613 0.6509 0.0
H797 H 0.15712 0.09712 0.6299 0.0
C798 C 0.15318 0.0184 0.58195 0.0
N799 N 0.15473 0.03721 0.5791 0.0
N800 N 0.14315 0.04627 0.59064 0.0
C801 C 0.13395 0.03337 0.60144 0.0
C802 C 0.13997 0.01534 0.59621 0.0
C803 C 0.16558 0.00392 0.57249 0.0
H804 H 0.18053 0.00639 0.57679 0.0
H805 H 0.16165 0.98919 0.57639 0.0
H806 H 0.16464 0.00561 0.55685 0.0
O807 O 0.15651 0.06767 0.54612 0.0
O808 O 0.13655 0.08356 0.56468 0.0
H809 H 0.11279 0.02528 0.62226 0.0
H810 H 0.12741 0.04544 0.6285 0.0
C811 C 0.11994 0.03818 0.61668 0.0
H812 H 0.10906 0.048 0.61094 0.0
H813 H 0.1014 0.08591 0.59093 0.0
O814 O 0.18679 0.03444 0.54754 0.0
C815 C 0.14336 0.07988 0.54831 0.0
Co816 Co 0.68228 0.6943 0.92146 0.0
Co817 Co 0.65494 0.67315 0.89335 0.0
C818 C 0.65401 0.6657 0.93516 0.0
O819 O 0.66674 0.67807 0.9385 0.0
O820 O 0.64847 0.66209 0.91836 0.0
C821 C 0.6933 0.71501 0.95439 0.0
O822 O 0.67644 0.70981 0.96048 0.0
C823 C 0.6187 0.65944 0.87884 0.0
C824 C 0.62468 0.65503 0.84831 0.0
C825 C 0.6105 0.65362 0.86189 0.0
N826 N 0.63681 0.66433 0.87535 0.0
N827 N 0.64032 0.66169 0.85709 0.0
C828 C 0.61037 0.65867 0.89843 0.0
H829 H 0.61741 0.64709 0.90647 0.0
H830 H 0.61326 0.67223 0.90594 0.0
H831 H 0.59494 0.65574 0.89847 0.0
C832 C 0.66361 0.72778 0.90499 0.0
N833 N 0.66652 0.70892 0.90579 0.0
N834 N 0.65461 0.70026 0.89427 0.0
C835 C 0.64348 0.71344 0.88594 0.0
C836 C 0.64889 0.73127 0.89241 0.0
C837 C 0.67344 0.74184 0.91757 0.0
H838 H 0.68904 0.73987 0.91649 0.0
H839 H 0.6692 0.7392 0.93251 0.0
H840 H 0.6698 0.7567 0.91391 0.0
O841 O 0.69945 0.6783 0.90601 0.0
O842 O 0.6802 0.66296 0.88618 0.0
H843 H 0.63318 0.70029 0.86057 0.0
H844 H 0.62124 0.72219 0.86653 0.0
C845 C 0.62766 0.70906 0.87242 0.0
H846 H 0.61656 0.70077 0.87992 0.0
H847 H 0.65343 0.66431 0.85068 0.0
O848 O 0.69846 0.71048 0.9377 0.0
C849 C 0.69674 0.66646 0.89261 0.0
Co850 Co 0.94377 0.06042 0.32553 0.0
Co851 Co 0.92301 0.08941 0.35214 0.0
C852 C 0.91662 0.08982 0.31035 0.0
O853 O 0.92798 0.07594 0.30807 0.0
O854 O 0.91334 0.09661 0.32677 0.0
C855 C 0.96489 0.04955 0.29306 0.0
O856 O 0.96062 0.06688 0.28762 0.0
C857 C 0.91038 0.12603 0.36657 0.0
C858 C 0.90325 0.11955 0.39648 0.0
C859 C 0.90343 0.13405 0.38317 0.0
N860 N 0.91429 0.10769 0.36999 0.0
N861 N 0.91013 0.10389 0.3879 0.0
C862 C 0.91136 0.13475 0.34717 0.0
H863 H 0.89915 0.12954 0.33868 0.0
H864 H 0.92461 0.13019 0.33994 0.0
H865 H 0.91064 0.15043 0.34744 0.0
C866 C 0.97754 0.07837 0.34247 0.0
N867 N 0.95862 0.07604 0.34124 0.0
N868 N 0.95007 0.08848 0.35226 0.0
C869 C 0.96338 0.09937 0.3607 0.0
C870 C 0.98119 0.09329 0.35479 0.0
C871 C 0.99158 0.06789 0.3304 0.0
H872 H 0.98989 0.07248 0.31542 0.0
H873 H 0.00644 0.07063 0.33478 0.0
H874 H 0.98869 0.05242 0.33115 0.0
O875 O 0.92705 0.04394 0.34085 0.0
O876 O 0.91125 0.06463 0.35878 0.0
H877 H 0.9723 0.12144 0.38022 0.0
H878 H 0.95197 0.12707 0.36556 0.0
C879 C 0.95916 0.11566 0.3737 0.0
H880 H 0.94945 0.11089 0.38514 0.0
H881 H 0.91165 0.09054 0.39415 0.0
O882 O 0.95971 0.04388 0.3094 0.0
C883 C 0.9145 0.0477 0.3533 0.0
Co884 Co 0.31345 0.79941 0.92505 0.0
Co885 Co 0.34014 0.82144 0.89707 0.0
C886 C 0.3405 0.82874 0.93905 0.0
O887 O 0.32838 0.81577 0.94245 0.0
O888 O 0.34572 0.83265 0.92222 0.0
C889 C 0.30264 0.77735 0.95722 0.0
O890 O 0.31945 0.78235 0.96362 0.0
C891 C 0.37525 0.83854 0.88293 0.0
C892 C 0.37217 0.8356 0.85181 0.0
C893 C 0.38462 0.8415 0.86587 0.0
N894 N 0.35823 0.83074 0.87917 0.0
N895 N 0.35637 0.82922 0.86054 0.0
C896 C 0.38173 0.84402 0.90246 0.0
H897 H 0.37099 0.85353 0.90897 0.0
H898 H 0.38296 0.8311 0.9114 0.0
H899 H 0.39542 0.85177 0.90234 0.0
C900 C 0.3338 0.76668 0.90932 0.0
N901 N 0.32981 0.78533 0.90952 0.0
N902 N 0.34175 0.79438 0.89834 0.0
C903 C 0.35411 0.78168 0.89099 0.0
C904 C 0.34946 0.76374 0.89778 0.0
C905 C 0.32292 0.75198 0.92018 0.0
H906 H 0.3075 0.75513 0.9195 0.0
H907 H 0.32745 0.75228 0.93527 0.0
H908 H 0.32543 0.73754 0.91439 0.0
O909 O 0.29609 0.81522 0.90981 0.0
O910 O 0.31455 0.83051 0.88931 0.0
H911 H 0.36682 0.79177 0.86535 0.0
H912 H 0.38124 0.77479 0.87805 0.0
C913 C 0.37132 0.78692 0.87965 0.0
H914 H 0.37891 0.79875 0.88675 0.0
H915 H 0.34449 0.82343 0.85382 0.0
O916 O 0.29748 0.78269 0.94078 0.0
C917 C 0.29819 0.82688 0.89616 0.0
Co918 Co 0.05231 0.4331 0.3213 0.0
Co919 Co 0.07365 0.40412 0.34736 0.0
C920 C 0.07909 0.40414 0.30513 0.0
O921 O 0.06739 0.41779 0.30307 0.0
O922 O 0.08293 0.3975 0.32152 0.0
C923 C 0.02795 0.44553 0.2912 0.0
O924 O 0.02918 0.42784 0.28538 0.0
C925 C 0.08869 0.36814 0.36182 0.0
C926 C 0.08786 0.37258 0.3929 0.0
C927 C 0.09211 0.35926 0.37906 0.0
N928 N 0.08227 0.38576 0.36531 0.0
N929 N 0.08194 0.38839 0.3839 0.0
C930 C 0.09286 0.3608 0.34231 0.0
H931 H 0.0796 0.36061 0.33378 0.0
H932 H 0.0994 0.3465 0.34241 0.0
H933 H 0.10302 0.37061 0.3354 0.0
C934 C 0.01888 0.41459 0.3383 0.0
N935 N 0.03774 0.41734 0.33709 0.0
N936 N 0.04653 0.4046 0.34757 0.0
C937 C 0.03344 0.39296 0.35539 0.0
C938 C 0.01552 0.39895 0.34971 0.0
C939 C 0.00427 0.42651 0.32846 0.0
H940 H 0.00868 0.44162 0.32853 0.0
H941 H 0.00282 0.42167 0.31354 0.0
H942 H 0.99022 0.4252 0.33551 0.0
O943 O 0.0694 0.44918 0.33629 0.0
O944 O 0.08515 0.42899 0.35465 0.0
H945 H 0.04423 0.37888 0.37999 0.0
H946 H 0.02536 0.36612 0.36825 0.0
C947 C 0.03809 0.37513 0.36598 0.0
H948 H 0.04879 0.36685 0.35792 0.0
H949 H 0.07741 0.4009 0.39045 0.0
O950 O 0.0363 0.45045 0.30642 0.0
C951 C 0.08189 0.44583 0.34889 0.0
Co952 Co 0.68351 0.30211 0.57461 0.0
Co953 Co 0.65326 0.32218 0.60018 0.0
C954 C 0.65388 0.32822 0.55827 0.0
O955 O 0.66794 0.317 0.55639 0.0
O956 O 0.64674 0.33166 0.57453 0.0
C957 C 0.696 0.27846 0.54429 0.0
O958 O 0.67807 0.27929 0.53913 0.0
C959 C 0.61647 0.33561 0.61403 0.0
C960 C 0.62119 0.3373 0.64504 0.0
C961 C 0.60764 0.34006 0.63105 0.0
N962 N 0.63436 0.33016 0.6178 0.0
N963 N 0.63711 0.33119 0.63636 0.0
C964 C 0.60882 0.33804 0.59432 0.0
H965 H 0.6169 0.34952 0.58721 0.0
H966 H 0.61098 0.32476 0.5861 0.0
H967 H 0.59362 0.34203 0.59408 0.0
C968 C 0.6659 0.26793 0.59097 0.0
N969 N 0.66799 0.28688 0.59002 0.0
N970 N 0.65454 0.29511 0.60004 0.0
C971 C 0.64298 0.28156 0.60716 0.0
C972 C 0.64979 0.26389 0.60154 0.0
C973 C 0.67904 0.2539 0.58187 0.0
H974 H 0.69384 0.25926 0.58232 0.0
H975 H 0.67484 0.25181 0.56683 0.0
H976 H 0.67835 0.23997 0.58922 0.0
O977 O 0.69886 0.31947 0.58998 0.0
O978 O 0.67765 0.33449 0.60785 0.0
H979 H 0.62739 0.29217 0.63095 0.0
H980 H 0.61582 0.27269 0.61888 0.0
C981 C 0.62451 0.28566 0.61689 0.0
H982 H 0.61626 0.29596 0.60832 0.0
H983 H 0.64988 0.32777 0.64307 0.0
O984 O 0.70123 0.28678 0.55942 0.0
C985 C 0.69473 0.33183 0.60248 0.0
Co986 Co 0.55159 0.06064 0.67052 0.0
Co987 Co 0.57353 0.08847 0.64358 0.0
C988 C 0.57803 0.09001 0.68589 0.0
O989 O 0.5659 0.0769 0.68863 0.0
O990 O 0.58247 0.09545 0.66925 0.0
C991 C 0.52909 0.0484 0.70188 0.0
O992 O 0.53331 0.06526 0.70867 0.0
C993 C 0.58728 0.12502 0.6299 0.0
C994 C 0.59299 0.11932 0.59953 0.0
C995 C 0.59358 0.13344 0.61324 0.0
N996 N 0.58287 0.10684 0.62612 0.0
N997 N 0.58631 0.10349 0.60797 0.0
C998 C 0.58714 0.13326 0.64954 0.0
H999 H 0.5982 0.12607 0.65815 0.0
H1000 H 0.57316 0.13052 0.65631 0.0
H1001 H 0.59025 0.14865 0.64981 0.0
C1002 C 0.51861 0.07806 0.65182 0.0
N1003 N 0.53747 0.07564 0.65365 0.0
N1004 N 0.54644 0.08776 0.64262 0.0
C1005 C 0.53344 0.09859 0.6336 0.0
C1006 C 0.51542 0.09271 0.63908 0.0
C1007 C 0.50417 0.06808 0.66383 0.0
H1008 H 0.50651 0.05252 0.66304 0.0
H1009 H 0.50598 0.07256 0.67882 0.0
H1010 H 0.48942 0.07133 0.6594 0.0
O1011 O 0.56951 0.04409 0.6566 0.0
O1012 O 0.58532 0.06363 0.63744 0.0
H1013 H 0.54762 0.10974 0.60917 0.0
H1014 H 0.52519 0.12108 0.61428 0.0
C1015 C 0.53815 0.1148 0.62069 0.0
H1016 H 0.54583 0.12589 0.62885 0.0
H1017 H 0.58417 0.09039 0.60137 0.0
O1018 O 0.53496 0.04375 0.68546 0.0
C1019 C 0.58211 0.04709 0.644 0.0
Co1020 Co 0.31326 0.19001 0.57357 0.0
Co1021 Co 0.339 0.16842 0.60257 0.0
C1022 C 0.34057 0.16078 0.56051 0.0
O1023 O 0.32871 0.17383 0.55664 0.0
O1024 O 0.34513 0.15685 0.57754 0.0
C1025 C 0.30223 0.21139 0.54089 0.0
O1026 O 0.31884 0.20598 0.53429 0.0
C1027 C 0.37581 0.15632 0.61603 0.0
C1028 C 0.36993 0.14559 0.64496 0.0
C1029 C 0.38429 0.14796 0.63169 0.0
N1030 N 0.35734 0.15897 0.61993 0.0
N1031 N 0.35388 0.15268 0.63728 0.0
C1032 C 0.38438 0.15983 0.59686 0.0
H1033 H 0.37695 0.17175 0.58969 0.0
H1034 H 0.39973 0.16308 0.59773 0.0
H1035 H 0.38263 0.14688 0.58804 0.0
C1036 C 0.33282 0.22303 0.5897 0.0
N1037 N 0.32907 0.20433 0.58941 0.0
N1038 N 0.34021 0.19555 0.60159 0.0
C1039 C 0.35149 0.20857 0.61007 0.0
C1040 C 0.34727 0.22634 0.60259 0.0
C1041 C 0.32294 0.23741 0.57753 0.0
H1042 H 0.3074 0.23487 0.57784 0.0
H1043 H 0.32795 0.23592 0.56266 0.0
H1044 H 0.32579 0.25211 0.58247 0.0
O1045 O 0.29575 0.17407 0.5886 0.0
O1046 O 0.31343 0.15912 0.61003 0.0
H1047 H 0.3618 0.19382 0.63463 0.0
H1048 H 0.37271 0.21676 0.63084 0.0
C1049 C 0.3671 0.20388 0.62373 0.0
H1050 H 0.37891 0.19701 0.61592 0.0
H1051 H 0.3405 0.15278 0.64367 0.0
O1052 O 0.2973 0.20653 0.55755 0.0
C1053 C 0.29734 0.16263 0.60252 0.0
Co1054 Co 0.44154 0.43544 0.66659 0.0
Co1055 Co 0.42036 0.40435 0.64285 0.0
C1056 C 0.41541 0.40696 0.68476 0.0
O1057 O 0.42705 0.42077 0.686 0.0
O1058 O 0.41134 0.39941 0.66887 0.0
C1059 C 0.46607 0.44909 0.69567 0.0
O1060 O 0.46536 0.43138 0.70154 0.0
C1061 C 0.4042 0.36783 0.63109 0.0
C1062 C 0.4079 0.3688 0.59991 0.0
C1063 C 0.40183 0.35725 0.61465 0.0
N1064 N 0.41181 0.38468 0.62635 0.0
N1065 N 0.41378 0.38527 0.60768 0.0
C1066 C 0.39828 0.36264 0.65086 0.0
H1067 H 0.3894 0.37419 0.65683 0.0
H1068 H 0.41109 0.36107 0.65992 0.0
H1069 H 0.38981 0.34938 0.65128 0.0
C1070 C 0.47507 0.41629 0.65063 0.0
N1071 N 0.45618 0.41896 0.65162 0.0
N1072 N 0.44749 0.40512 0.64254 0.0
C1073 C 0.46066 0.39274 0.63612 0.0
C1074 C 0.47855 0.39946 0.64108 0.0
C1075 C 0.48958 0.42945 0.65892 0.0
H1076 H 0.4846 0.44435 0.65792 0.0
H1077 H 0.49187 0.42582 0.67407 0.0
H1078 H 0.50336 0.42805 0.65137 0.0
O1079 O 0.42397 0.45033 0.65083 0.0
O1080 O 0.40828 0.42844 0.63436 0.0
H1081 H 0.45137 0.37542 0.61301 0.0
H1082 H 0.46858 0.36403 0.62817 0.0
C1083 C 0.4561 0.37365 0.62793 0.0
H1084 H 0.44441 0.367 0.63613 0.0
H1085 H 0.41953 0.39676 0.60028 0.0
O1086 O 0.45738 0.45372 0.68055 0.0
C1087 C 0.41135 0.4457 0.63878 0.0
Co1088 Co 0.91772 0.68505 0.69179 0.0
Co1089 Co 0.89257 0.65502 0.671 0.0
C1090 C 0.93479 0.65539 0.66636 0.0
O1091 O 0.93657 0.66945 0.67762 0.0
O1092 O 0.91853 0.64847 0.66257 0.0
C1093 C 0.94748 0.69883 0.71576 0.0
O1094 O 0.95358 0.6812 0.71497 0.0
C1095 C 0.88047 0.61766 0.65832 0.0
C1096 C 0.85029 0.62221 0.65095 0.0
C1097 C 0.86454 0.60864 0.65116 0.0
N1098 N 0.87596 0.63581 0.66199 0.0
N1099 N 0.85789 0.63847 0.65761 0.0
C1100 C 0.89937 0.60896 0.66274 0.0
H1101 H 0.90589 0.6161 0.67519 0.0
H1102 H 0.89793 0.59354 0.66569 0.0
H1103 H 0.90894 0.61084 0.65036 0.0
C1104 C 0.89958 0.66783 0.72555 0.0
N1105 N 0.90159 0.66968 0.70662 0.0
N1106 N 0.89128 0.65668 0.698 0.0
C1107 C 0.88268 0.64585 0.71126 0.0
C1108 C 0.88765 0.65258 0.72912 0.0
C1109 C 0.91053 0.67912 0.73987 0.0
H1110 H 0.9106 0.69432 0.73576 0.0
H1111 H 0.9254 0.67394 0.74021 0.0
H1112 H 0.90451 0.67774 0.75434 0.0
O1113 O 0.9029 0.70038 0.67366 0.0
O1114 O 0.8855 0.67912 0.6581 0.0
H1115 H 0.85933 0.63289 0.69676 0.0
H1116 H 0.86386 0.62316 0.72006 0.0
C1117 C 0.87059 0.62889 0.707 0.0
H1118 H 0.87948 0.61768 0.70043 0.0
H1119 H 0.85079 0.65141 0.65906 0.0
O1120 O 0.93211 0.70324 0.70741 0.0
C1121 C 0.89081 0.69616 0.66093 0.0
Co1122 Co 0.93214 0.8238 0.55031 0.0
Co1123 Co 0.90445 0.85069 0.57237 0.0
C1124 C 0.90386 0.80857 0.57804 0.0
O1125 O 0.91666 0.80584 0.56558 0.0
O1126 O 0.8982 0.82517 0.58229 0.0
C1127 C 0.94353 0.79204 0.52815 0.0
O1128 O 0.92652 0.7858 0.53265 0.0
C1129 C 0.86786 0.86306 0.58638 0.0
C1130 C 0.8724 0.89341 0.59297 0.0
C1131 C 0.85895 0.87904 0.5935 0.0
N1132 N 0.88583 0.86763 0.582 0.0
N1133 N 0.88852 0.88579 0.58595 0.0
C1134 C 0.85914 0.84403 0.58259 0.0
H1135 H 0.8656 0.83756 0.56975 0.0
H1136 H 0.84355 0.84524 0.58056 0.0
H1137 H 0.86191 0.83455 0.59488 0.0
C1138 C 0.91367 0.84165 0.51738 0.0
N1139 N 0.9164 0.84001 0.53621 0.0
N1140 N 0.9044 0.85111 0.54527 0.0
C1141 C 0.8934 0.86005 0.53237 0.0
C1142 C 0.89897 0.85438 0.51432 0.0
C1143 C 0.9236 0.82968 0.50287 0.0
H1144 H 0.93919 0.83065 0.50502 0.0
H1145 H 0.91931 0.81465 0.50483 0.0
H1146 H 0.9201 0.83397 0.48814 0.0
O1147 O 0.94897 0.83856 0.56732 0.0
O1148 O 0.92945 0.85765 0.58326 0.0
H1149 H 0.88293 0.88455 0.54697 0.0
H1150 H 0.87166 0.88028 0.52431 0.0
C1151 C 0.87759 0.87341 0.5372 0.0
H1152 H 0.86614 0.86549 0.54457 0.0
H1153 H 0.90133 0.89296 0.58388 0.0
O1154 O 0.94866 0.80846 0.53363 0.0
C1155 C 0.94605 0.85139 0.57973 0.0
Co1156 Co 0.07234 0.81163 0.69186 0.0
Co1157 Co 0.10047 0.83866 0.67076 0.0
C1158 C 0.05847 0.8392 0.66319 0.0
O1159 O 0.05493 0.82705 0.67608 0.0
O1160 O 0.07536 0.84429 0.65932 0.0
C1161 C 0.04109 0.79992 0.71522 0.0
O1162 O 0.03554 0.81766 0.71352 0.0
C1163 C 0.11342 0.87564 0.65827 0.0
C1164 C 0.14333 0.87045 0.65016 0.0
C1165 C 0.12948 0.88441 0.65104 0.0
N1166 N 0.11764 0.85738 0.66174 0.0
N1167 N 0.13555 0.85433 0.65696 0.0
C1168 C 0.0938 0.88371 0.66013 0.0
H1169 H 0.08662 0.87757 0.67274 0.0
H1170 H 0.09383 0.89938 0.66122 0.0
H1171 H 0.08546 0.87975 0.64735 0.0
C1172 C 0.08867 0.83044 0.7254 0.0
N1173 N 0.08795 0.82739 0.70658 0.0
N1174 N 0.09944 0.83932 0.6979 0.0
C1175 C 0.10764 0.85063 0.71106 0.0
C1176 C 0.1009 0.84543 0.72888 0.0
C1177 C 0.07796 0.81909 0.73985 0.0
H1178 H 0.07775 0.8039 0.7357 0.0
H1179 H 0.06313 0.82434 0.74062 0.0
H1180 H 0.08451 0.8204 0.75413 0.0
O1181 O 0.08771 0.79494 0.67552 0.0
O1182 O 0.10861 0.81351 0.66092 0.0
H1183 H 0.13219 0.86231 0.69742 0.0
H1184 H 0.12591 0.8741 0.71936 0.0
C1185 C 0.12022 0.86715 0.70644 0.0
H1186 H 0.11196 0.87782 0.69834 0.0
H1187 H 0.14234 0.8412 0.65803 0.0
O1188 O 0.05661 0.79474 0.70761 0.0
C1189 C 0.10155 0.79716 0.6641 0.0
Co1190 Co 0.05983 0.672 0.55287 0.0
Co1191 Co 0.08761 0.64457 0.57408 0.0
C1192 C 0.08869 0.6866 0.58045 0.0
O1193 O 0.07547 0.68947 0.56846 0.0
O1194 O 0.09449 0.6699 0.58413 0.0
C1195 C 0.04898 0.70402 0.53079 0.0
O1196 O 0.06612 0.70999 0.53518 0.0
C1197 C 0.12404 0.63115 0.58801 0.0
C1198 C 0.11933 0.60038 0.59201 0.0
C1199 C 0.13282 0.61459 0.59383 0.0
N1200 N 0.10607 0.62706 0.58311 0.0
N1201 N 0.10329 0.60864 0.58556 0.0
C1202 C 0.13307 0.65027 0.58557 0.0
H1203 H 0.12675 0.65776 0.57323 0.0
H1204 H 0.14863 0.64897 0.58339 0.0
H1205 H 0.13051 0.65885 0.59853 0.0
C1206 C 0.07824 0.65507 0.51945 0.0
N1207 N 0.07538 0.65599 0.5383 0.0
N1208 N 0.08751 0.64474 0.54698 0.0
C1209 C 0.09879 0.63651 0.53382 0.0
C1210 C 0.09332 0.64292 0.51595 0.0
C1211 C 0.06683 0.66583 0.50508 0.0
H1212 H 0.05158 0.66552 0.50902 0.0
H1213 H 0.07164 0.68084 0.50484 0.0
H1214 H 0.06851 0.6597 0.49065 0.0
O1215 O 0.04308 0.65721 0.56966 0.0
O1216 O 0.06244 0.63765 0.58512 0.0
H1217 H 0.11101 0.61169 0.54636 0.0
H1218 H 0.12363 0.62007 0.52562 0.0
C1219 C 0.11571 0.6245 0.53848 0.0
H1220 H 0.12547 0.63264 0.54776 0.0
H1221 H 0.0905 0.60171 0.5827 0.0
O1222 O 0.0435 0.68781 0.53651 0.0
C1223 C 0.04586 0.6442 0.5819 0.0
Co1224 Co 0.92142 0.3122 0.80233 0.0
Co1225 Co 0.89528 0.34027 0.82468 0.0
C1226 C 0.93769 0.34009 0.82951 0.0
O1227 O 0.94007 0.32743 0.81684 0.0
O1228 O 0.92119 0.34576 0.83423 0.0
C1229 C 0.95119 0.29984 0.77762 0.0
O1230 O 0.95711 0.31748 0.77913 0.0
C1231 C 0.88337 0.37731 0.83868 0.0
C1232 C 0.85297 0.37283 0.84524 0.0
C1233 C 0.86726 0.38637 0.84546 0.0
N1234 N 0.87874 0.35931 0.83437 0.0
N1235 N 0.86057 0.35669 0.8383 0.0
C1236 C 0.90327 0.38484 0.83785 0.0
H1237 H 0.90988 0.38091 0.82409 0.0
H1238 H 0.90401 0.40041 0.83984 0.0
H1239 H 0.91171 0.37814 0.84936 0.0
C1240 C 0.90403 0.3314 0.76957 0.0
N1241 N 0.90536 0.32819 0.78834 0.0
N1242 N 0.89472 0.34052 0.79752 0.0
C1243 C 0.88649 0.35224 0.78476 0.0
C1244 C 0.89229 0.34689 0.76667 0.0
C1245 C 0.91412 0.32014 0.75463 0.0
H1246 H 0.91416 0.30488 0.75847 0.0
H1247 H 0.92901 0.32517 0.75351 0.0
H1248 H 0.9072 0.32189 0.74056 0.0
O1249 O 0.90671 0.29598 0.81974 0.0
O1250 O 0.88739 0.31535 0.83543 0.0
H1251 H 0.86288 0.3651 0.79892 0.0
H1252 H 0.86966 0.37694 0.77717 0.0
C1253 C 0.87506 0.36941 0.78991 0.0
H1254 H 0.88404 0.37933 0.79821 0.0
H1255 H 0.85339 0.34386 0.83636 0.0
O1256 O 0.93592 0.2949 0.78588 0.0
C1257 C 0.89375 0.29875 0.83203 0.0
Co1258 Co 0.56193 0.82275 0.44277 0.0
Co1259 Co 0.58897 0.84972 0.42004 0.0
C1260 C 0.59004 0.80711 0.41568 0.0
O1261 O 0.57771 0.80423 0.42858 0.0
O1262 O 0.59495 0.82381 0.41087 0.0
C1263 C 0.54892 0.79305 0.46764 0.0
O1264 O 0.56629 0.78639 0.46605 0.0
C1265 C 0.62535 0.86253 0.40475 0.0
C1266 C 0.62079 0.89343 0.40139 0.0
C1267 C 0.63428 0.87924 0.39934 0.0
N1268 N 0.60753 0.86674 0.41018 0.0
N1269 N 0.60484 0.8852 0.408 0.0
C1270 C 0.63277 0.84263 0.40326 0.0
H1271 H 0.62378 0.83459 0.39312 0.0
H1272 H 0.63179 0.83558 0.41733 0.0
H1273 H 0.64753 0.84194 0.39792 0.0
C1274 C 0.57994 0.84197 0.4753 0.0
N1275 N 0.57726 0.83971 0.45652 0.0
N1276 N 0.58914 0.85069 0.44715 0.0
C1277 C 0.60012 0.86003 0.4598 0.0
C1278 C 0.59456 0.85487 0.47801 0.0
C1279 C 0.57006 0.83043 0.49019 0.0
H1280 H 0.5752 0.81557 0.48938 0.0
H1281 H 0.5728 0.83579 0.50472 0.0
H1282 H 0.55454 0.83048 0.48751 0.0
O1283 O 0.54538 0.83667 0.42496 0.0
O1284 O 0.56391 0.85677 0.40926 0.0
H1285 H 0.62302 0.8792 0.46735 0.0
H1286 H 0.62663 0.86537 0.44596 0.0
C1287 C 0.616 0.87316 0.45459 0.0
H1288 H 0.61031 0.88498 0.44589 0.0
H1289 H 0.59216 0.89218 0.41121 0.0
O1290 O 0.54458 0.8085 0.45941 0.0
C1291 C 0.54761 0.84971 0.41264 0.0
Co1292 Co 0.07327 0.18512 0.80253 0.0
Co1293 Co 0.09826 0.15459 0.82276 0.0
C1294 C 0.05628 0.15574 0.82843 0.0
O1295 O 0.05458 0.16976 0.81712 0.0
O1296 O 0.07247 0.14855 0.83207 0.0
C1297 C 0.04366 0.19858 0.77832 0.0
O1298 O 0.03795 0.18081 0.77877 0.0
C1299 C 0.11098 0.11757 0.83651 0.0
C1300 C 0.14211 0.12137 0.83822 0.0
C1301 C 0.12767 0.10835 0.84127 0.0
N1302 N 0.11527 0.13533 0.83105 0.0
N1303 N 0.1339 0.13755 0.83213 0.0
C1304 C 0.09145 0.10917 0.83559 0.0
H1305 H 0.08342 0.11532 0.82352 0.0
H1306 H 0.09205 0.09351 0.83392 0.0
H1307 H 0.08378 0.11254 0.84894 0.0
C1308 C 0.08986 0.16745 0.76844 0.0
N1309 N 0.08867 0.16945 0.78739 0.0
N1310 N 0.09846 0.15588 0.79568 0.0
C1311 C 0.10568 0.14433 0.78217 0.0
C1312 C 0.10035 0.15127 0.76445 0.0
C1313 C 0.08116 0.1808 0.75436 0.0
H1314 H 0.08178 0.19556 0.7598 0.0
H1315 H 0.06608 0.17685 0.75205 0.0
H1316 H 0.08868 0.18007 0.74052 0.0
O1317 O 0.08865 0.20019 0.82016 0.0
O1318 O 0.10629 0.1788 0.83518 0.0
H1319 H 0.12935 0.12868 0.79294 0.0
H1320 H 0.11743 0.11716 0.77335 0.0
C1321 C 0.11534 0.12584 0.78631 0.0
H1322 H 0.10668 0.11758 0.79651 0.0
H1323 H 0.141 0.15006 0.82856 0.0
O1324 O 0.05872 0.20326 0.78709 0.0
C1325 C 0.10106 0.19593 0.83257 0.0
Co1326 Co 0.43322 0.67254 0.44305 0.0
Co1327 Co 0.40606 0.64498 0.42141 0.0
C1328 C 0.40548 0.68716 0.4149 0.0
O1329 O 0.4177 0.69043 0.42781 0.0
O1330 O 0.40041 0.67034 0.41068 0.0
C1331 C 0.44559 0.70301 0.46732 0.0
O1332 O 0.428 0.70911 0.46587 0.0
C1333 C 0.36969 0.63247 0.40658 0.0
C1334 C 0.37381 0.6016 0.40267 0.0
C1335 C 0.36068 0.6161 0.40048 0.0
N1336 N 0.38741 0.62794 0.41197 0.0
N1337 N 0.38984 0.60947 0.40957 0.0
C1338 C 0.36118 0.65185 0.4088 0.0
H1339 H 0.36731 0.65908 0.42139 0.0
H1340 H 0.34552 0.65103 0.41042 0.0
H1341 H 0.36452 0.66045 0.39601 0.0
C1342 C 0.41427 0.65563 0.47625 0.0
N1343 N 0.41748 0.65657 0.45746 0.0
N1344 N 0.4054 0.64543 0.44853 0.0
C1345 C 0.39379 0.63731 0.46147 0.0
C1346 C 0.39898 0.64367 0.47944 0.0
C1347 C 0.42565 0.66599 0.49093 0.0
H1348 H 0.44087 0.66607 0.48689 0.0
H1349 H 0.42056 0.68086 0.4919 0.0
H1350 H 0.42415 0.65924 0.5051 0.0
O1351 O 0.44986 0.65766 0.42616 0.0
O1352 O 0.43117 0.63713 0.41121 0.0
H1353 H 0.38172 0.61251 0.44877 0.0
H1354 H 0.36873 0.62102 0.46923 0.0
C1355 C 0.37691 0.62536 0.4565 0.0
H1356 H 0.36739 0.6335 0.44697 0.0
H1357 H 0.40239 0.60225 0.41275 0.0
O1358 O 0.45032 0.68763 0.45917 0.0
C1359 C 0.44755 0.64414 0.4144 0.0
Co1360 Co 0.69092 0.91654 0.68513 0.0
Co1361 Co 0.67005 0.89092 0.65544 0.0
C1362 C 0.66349 0.93277 0.657 0.0
O1363 O 0.67562 0.93498 0.67021 0.0
O1364 O 0.65963 0.91646 0.65031 0.0
C1365 C 0.71428 0.94712 0.69743 0.0
O1366 O 0.71306 0.95225 0.67952 0.0
C1367 C 0.6576 0.87936 0.61784 0.0
C1368 C 0.64956 0.84929 0.62205 0.0
C1369 C 0.65033 0.86361 0.60858 0.0
N1370 N 0.66119 0.87452 0.63594 0.0
N1371 N 0.65646 0.85651 0.63838 0.0
C1372 C 0.65934 0.89922 0.61038 0.0
H1373 H 0.67204 0.90622 0.61656 0.0
H1374 H 0.66023 0.89964 0.59469 0.0
H1375 H 0.64662 0.90742 0.61477 0.0
C1376 C 0.72468 0.9006 0.66625 0.0
N1377 N 0.70579 0.90154 0.66886 0.0
N1378 N 0.69721 0.89122 0.65583 0.0
C1379 C 0.71049 0.88367 0.64422 0.0
C1380 C 0.72832 0.88954 0.65039 0.0
C1381 C 0.73903 0.91012 0.67873 0.0
H1382 H 0.73424 0.90977 0.69373 0.0
H1383 H 0.74066 0.92514 0.67427 0.0
H1384 H 0.75307 0.90303 0.67763 0.0
O1385 O 0.67405 0.90056 0.70077 0.0
O1386 O 0.65884 0.88239 0.67988 0.0
H1387 H 0.69707 0.86033 0.6301 0.0
H1388 H 0.71895 0.86794 0.61901 0.0
C1389 C 0.70599 0.8728 0.6265 0.0
H1390 H 0.69781 0.88201 0.61672 0.0
H1391 H 0.6576 0.84928 0.65128 0.0
O1392 O 0.70647 0.93174 0.70274 0.0
C1393 C 0.66198 0.88769 0.69688 0.0
Co1394 Co 0.68973 0.07556 0.80807 0.0
Co1395 Co 0.67027 0.10052 0.83922 0.0
C1396 C 0.66368 0.05878 0.83755 0.0
O1397 O 0.67471 0.05706 0.82331 0.0
O1398 O 0.66064 0.07489 0.84513 0.0
C1399 C 0.71295 0.04524 0.79501 0.0
O1400 O 0.71245 0.04022 0.81299 0.0
C1401 C 0.65859 0.11269 0.87702 0.0
C1402 C 0.65186 0.14306 0.87265 0.0
C1403 C 0.65207 0.12881 0.88622 0.0
N1404 N 0.66228 0.11723 0.85887 0.0
N1405 N 0.65836 0.13542 0.85635 0.0
C1406 C 0.65948 0.09283 0.88464 0.0
H1407 H 0.67206 0.08536 0.87878 0.0
H1408 H 0.66 0.09244 0.90034 0.0
H1409 H 0.64657 0.08506 0.88001 0.0
C1410 C 0.72433 0.09148 0.82561 0.0
N1411 N 0.70534 0.09046 0.82384 0.0
N1412 N 0.69733 0.10044 0.83747 0.0
C1413 C 0.71106 0.10772 0.84871 0.0
C1414 C 0.72864 0.10216 0.84159 0.0
C1415 C 0.73815 0.08246 0.8122 0.0
H1416 H 0.73255 0.08296 0.79749 0.0
H1417 H 0.74032 0.06741 0.81629 0.0
H1418 H 0.7521 0.08982 0.81268 0.0
O1419 O 0.6723 0.09155 0.79322 0.0
O1420 O 0.65754 0.10867 0.81529 0.0
H1421 H 0.69909 0.13097 0.86419 0.0
H1422 H 0.72041 0.12139 0.87483 0.0
C1423 C 0.70722 0.11778 0.86706 0.0
H1424 H 0.69844 0.10856 0.87629 0.0
H1425 H 0.65974 0.14252 0.8434 0.0
O1426 O 0.70467 0.06043 0.78988 0.0
C1427 C 0.66004 0.10391 0.79802 0.0
Co1428 Co 0.3224 0.05037 0.43528 0.0
Co1429 Co 0.34896 0.07104 0.40632 0.0
C1430 C 0.30732 0.07878 0.40717 0.0
O1431 O 0.30484 0.067 0.42067 0.0
O1432 O 0.32375 0.0818 0.4003 0.0
C1433 C 0.29019 0.02899 0.44678 0.0
O1434 O 0.28396 0.03358 0.42979 0.0
C1435 C 0.36227 0.08523 0.36988 0.0
C1436 C 0.39329 0.08754 0.37417 0.0
C1437 C 0.37899 0.09041 0.36096 0.0
N1438 N 0.3664 0.0797 0.38765 0.0
N1439 N 0.38496 0.08114 0.39018 0.0
C1440 C 0.34288 0.084 0.36119 0.0
H1441 H 0.33488 0.0719 0.36733 0.0
H1442 H 0.34377 0.08219 0.34555 0.0
H1443 H 0.33501 0.09729 0.36428 0.0
C1444 C 0.33713 0.01668 0.41551 0.0
N1445 N 0.33705 0.03549 0.41874 0.0
N1446 N 0.348 0.04399 0.40622 0.0
C1447 C 0.35523 0.03077 0.39435 0.0
C1448 C 0.34844 0.01306 0.39982 0.0
C1449 C 0.32633 0.00245 0.42705 0.0
H1450 H 0.32733 0.00608 0.44234 0.0
H1451 H 0.31116 0.00276 0.42278 0.0
H1452 H 0.33192 0.98787 0.42486 0.0
O1453 O 0.33865 0.06609 0.45176 0.0
O1454 O 0.35686 0.08175 0.43125 0.0
H1455 H 0.37991 0.04257 0.38115 0.0
H1456 H 0.37013 0.02241 0.36862 0.0
C1457 C 0.36659 0.03529 0.37694 0.0
H1458 H 0.35836 0.04505 0.36775 0.0
H1459 H 0.39194 0.07762 0.40278 0.0
O1460 O 0.30664 0.03433 0.45192 0.0
C1461 C 0.35155 0.07822 0.44818 0.0
Co1462 Co 0.30431 0.4222 0.81136 0.0
Co1463 Co 0.32459 0.39581 0.84087 0.0
C1464 C 0.33005 0.43779 0.84186 0.0
O1465 O 0.31915 0.43994 0.82757 0.0
O1466 O 0.33341 0.42138 0.8487 0.0
C1467 C 0.28221 0.4538 0.7993 0.0
O1468 O 0.28611 0.46025 0.81638 0.0
C1469 C 0.33864 0.38018 0.87674 0.0
C1470 C 0.33781 0.34925 0.87134 0.0
C1471 C 0.34183 0.36267 0.88515 0.0
N1472 N 0.3326 0.37726 0.85889 0.0
N1473 N 0.33224 0.35875 0.85569 0.0
C1474 C 0.34269 0.39944 0.88479 0.0
H1475 H 0.32941 0.40795 0.88503 0.0
H1476 H 0.34893 0.39886 0.89921 0.0
H1477 H 0.35301 0.40671 0.87541 0.0
C1478 C 0.27032 0.40524 0.82861 0.0
N1479 N 0.28926 0.40616 0.82637 0.0
N1480 N 0.29756 0.39547 0.83926 0.0
C1481 C 0.28405 0.38772 0.85045 0.0
C1482 C 0.26636 0.3937 0.84404 0.0
C1483 C 0.25628 0.4158 0.81663 0.0
H1484 H 0.26062 0.41521 0.8015 0.0
H1485 H 0.25591 0.43089 0.82117 0.0
H1486 H 0.2418 0.40971 0.81807 0.0
O1487 O 0.32199 0.40764 0.79535 0.0
O1488 O 0.33738 0.38976 0.81635 0.0
H1489 H 0.29422 0.363 0.86481 0.0
H1490 H 0.27514 0.37493 0.87707 0.0
C1491 C 0.28811 0.37707 0.8684 0.0
H1492 H 0.29868 0.38501 0.87696 0.0
H1493 H 0.32797 0.35261 0.84288 0.0
O1494 O 0.28835 0.43759 0.79431 0.0
C1495 C 0.33465 0.39542 0.79939 0.0
Co1496 Co 0.17355 0.94206 0.93157 0.0
Co1497 Co 0.14598 0.92011 0.90463 0.0
C1498 C 0.18784 0.91247 0.90462 0.0
O1499 O 0.19081 0.92515 0.91715 0.0
O1500 O 0.17113 0.90889 0.89872 0.0
C1501 C 0.20584 0.96407 0.94174 0.0
O1502 O 0.21186 0.95897 0.92482 0.0
C1503 C 0.13243 0.90478 0.86888 0.0
C1504 C 0.10149 0.90203 0.87354 0.0
C1505 C 0.11572 0.89915 0.86024 0.0
N1506 N 0.12838 0.91059 0.88658 0.0
N1507 N 0.10988 0.90887 0.88935 0.0
C1508 C 0.15167 0.9063 0.85993 0.0
H1509 H 0.15943 0.91872 0.86575 0.0
H1510 H 0.15057 0.90778 0.84427 0.0
H1511 H 0.15992 0.89327 0.86319 0.0
C1512 C 0.15752 0.9749 0.91143 0.0
N1513 N 0.15821 0.95618 0.91502 0.0
N1514 N 0.14687 0.94715 0.90323 0.0
C1515 C 0.13877 0.95995 0.89146 0.0
C1516 C 0.14538 0.97793 0.89624 0.0
C1517 C 0.16819 0.98961 0.92249 0.0
H1518 H 0.16771 0.98616 0.93785 0.0
H1519 H 0.18325 0.98968 0.91783 0.0
H1520 H 0.1621 0.00399 0.92031 0.0
O1521 O 0.15805 0.9267 0.949 0.0
O1522 O 0.13828 0.91084 0.93021 0.0
H1523 H 0.11339 0.94767 0.88015 0.0
H1524 H 0.12238 0.9674 0.86638 0.0
C1525 C 0.12642 0.95482 0.87492 0.0
H1526 H 0.13412 0.94474 0.8656 0.0
H1527 H 0.10296 0.91255 0.90194 0.0
O1528 O 0.18951 0.9588 0.94729 0.0
C1529 C 0.14466 0.91477 0.94669 0.0
Co1530 Co 0.80333 0.0753 0.18344 0.0
Co1531 Co 0.82627 0.10241 0.1569 0.0
C1532 C 0.83046 0.05979 0.15529 0.0
O1533 O 0.81744 0.05689 0.16749 0.0
O1534 O 0.83547 0.07651 0.15062 0.0
C1535 C 0.77843 0.04549 0.19629 0.0
O1536 O 0.77998 0.03892 0.17888 0.0
C1537 C 0.83826 0.11489 0.11966 0.0
C1538 C 0.85135 0.14289 0.12527 0.0
C1539 C 0.84757 0.12989 0.11096 0.0
N1540 N 0.83646 0.11892 0.13821 0.0
N1541 N 0.84416 0.13572 0.1415 0.0
C1542 C 0.83301 0.09606 0.11122 0.0
H1543 H 0.82053 0.09005 0.11877 0.0
H1544 H 0.82981 0.09709 0.09588 0.0
H1545 H 0.84512 0.08613 0.11302 0.0
C1546 C 0.77095 0.09491 0.1656 0.0
N1547 N 0.7897 0.09248 0.16828 0.0
N1548 N 0.79916 0.10371 0.15671 0.0
C1549 C 0.78659 0.11351 0.14606 0.0
C1550 C 0.76836 0.10826 0.15139 0.0
C1551 C 0.75594 0.08323 0.17514 0.0
H1552 H 0.7568 0.06844 0.1698 0.0
H1553 H 0.74145 0.0887 0.17232 0.0
H1554 H 0.75847 0.08305 0.19069 0.0
O1555 O 0.82116 0.08901 0.20018 0.0
O1556 O 0.83706 0.10931 0.18201 0.0
H1557 H 0.77931 0.13577 0.12619 0.0
H1558 H 0.79729 0.11932 0.11827 0.0
C1559 C 0.7918 0.12726 0.13072 0.0
H1560 H 0.8031 0.13695 0.13584 0.0
H1561 H 0.84493 0.14206 0.15489 0.0
O1562 O 0.78663 0.06095 0.20068 0.0
C1563 C 0.83354 0.10205 0.19821 0.0
Co1564 Co 0.32438 0.94341 0.06049 0.0
Co1565 Co 0.35017 0.92372 0.09086 0.0
C1566 C 0.30854 0.91665 0.0901 0.0
O1567 O 0.30658 0.92761 0.07583 0.0
O1568 O 0.32476 0.91384 0.09759 0.0
C1569 C 0.29255 0.96479 0.04802 0.0
O1570 O 0.2862 0.961 0.06516 0.0
C1571 C 0.36489 0.90991 0.12717 0.0
C1572 C 0.39594 0.91011 0.12232 0.0
C1573 C 0.38218 0.90621 0.13583 0.0
N1574 N 0.36827 0.91604 0.10943 0.0
N1575 N 0.38684 0.91611 0.10659 0.0
C1576 C 0.34539 0.90618 0.13482 0.0
H1577 H 0.33858 0.89511 0.12596 0.0
H1578 H 0.33671 0.91929 0.13378 0.0
H1579 H 0.34551 0.90102 0.14967 0.0
C1580 C 0.33955 0.97777 0.07865 0.0
N1581 N 0.33921 0.95883 0.07632 0.0
N1582 N 0.34952 0.95075 0.08964 0.0
C1583 C 0.35637 0.96438 0.10126 0.0
C1584 C 0.35021 0.98195 0.09467 0.0
C1585 C 0.32959 0.99159 0.06592 0.0
H1586 H 0.33077 0.98691 0.05093 0.0
H1587 H 0.31433 0.99217 0.06982 0.0
H1588 H 0.33573 0.00605 0.06729 0.0
O1589 O 0.34035 0.92675 0.04479 0.0
O1590 O 0.35759 0.91153 0.06642 0.0
H1591 H 0.38072 0.95468 0.11657 0.0
H1592 H 0.36773 0.97329 0.12856 0.0
C1593 C 0.36635 0.9604 0.11962 0.0
H1594 H 0.35834 0.94951 0.12769 0.0
H1595 H 0.39329 0.92027 0.0939 0.0
O1596 O 0.3089 0.95893 0.04313 0.0
C1597 C 0.35272 0.91437 0.04924 0.0
Co1598 Co 0.66875 0.55319 0.05915 0.0
Co1599 Co 0.64276 0.5742 0.08868 0.0
C1600 C 0.68462 0.58054 0.08768 0.0
O1601 O 0.68698 0.56859 0.07432 0.0
O1602 O 0.66825 0.58428 0.0943 0.0
C1603 C 0.7003 0.53134 0.04653 0.0
O1604 O 0.70676 0.53506 0.06364 0.0
C1605 C 0.62974 0.58963 0.12502 0.0
C1606 C 0.5985 0.58897 0.12183 0.0
C1607 C 0.6129 0.59344 0.13447 0.0
N1608 N 0.6255 0.58283 0.10769 0.0
N1609 N 0.60681 0.58257 0.10582 0.0
C1610 C 0.64959 0.5936 0.13165 0.0
H1611 H 0.65798 0.58025 0.13137 0.0
H1612 H 0.65005 0.59989 0.14605 0.0
H1613 H 0.65635 0.60383 0.12176 0.0
C1614 C 0.65294 0.51962 0.07813 0.0
N1615 N 0.65354 0.53848 0.07531 0.0
N1616 N 0.64328 0.54706 0.08837 0.0
C1617 C 0.63625 0.53383 0.10034 0.0
C1618 C 0.6422 0.51599 0.09423 0.0
C1619 C 0.66266 0.50539 0.06566 0.0
H1620 H 0.66156 0.50981 0.05058 0.0
H1621 H 0.67792 0.50465 0.06956 0.0
H1622 H 0.65628 0.49106 0.06729 0.0
O1623 O 0.65313 0.57012 0.04324 0.0
O1624 O 0.63495 0.58551 0.06399 0.0
H1625 H 0.6118 0.5439 0.11524 0.0
H1626 H 0.62492 0.52585 0.12792 0.0
C1627 C 0.62621 0.53842 0.11852 0.0
H1628 H 0.63412 0.54965 0.12621 0.0
H1629 H 0.59974 0.57786 0.09366 0.0
O1630 O 0.6839 0.53719 0.04181 0.0
C1631 C 0.64042 0.58238 0.04703 0.0
H1632 H 0.11857 0.34749 0.40452 0.0
H1633 H 0.07968 0.32687 0.36181 0.0
H1634 H 0.1309 0.31525 0.4088 0.0
H1635 H 0.09234 0.29476 0.36568 0.0
H1636 H 0.14015 0.24819 0.36204 0.0
H1637 H 0.12464 0.27923 0.35884 0.0
H1638 H 0.1194 0.28286 0.41989 0.0
H1639 H 0.13449 0.25174 0.42298 0.0
C1640 C 0.11267 0.33603 0.3961 0.0
C1641 C 0.09868 0.33968 0.3824 0.0
C1642 C 0.11967 0.31764 0.39854 0.0
C1643 C 0.11273 0.30263 0.38735 0.0
C1644 C 0.0982 0.30618 0.37417 0.0
C1645 C 0.09107 0.32452 0.37189 0.0
C1646 C 0.13536 0.25555 0.37468 0.0
C1647 C 0.13848 0.24774 0.39273 0.0
C1648 C 0.12655 0.27324 0.37289 0.0
C1649 C 0.12094 0.28341 0.38915 0.0
C1650 C 0.1238 0.27539 0.40717 0.0
C1651 C 0.13241 0.25765 0.40893 0.0
H1652 H 0.49815 0.60822 0.88005 0.0
H1653 H 0.50593 0.60344 0.8194 0.0
H1654 H 0.52923 0.62377 0.88274 0.0
H1655 H 0.53713 0.61838 0.82213 0.0
H1656 H 0.60054 0.6224 0.84165 0.0
H1657 H 0.56871 0.60892 0.83776 0.0
H1658 H 0.54517 0.65493 0.87082 0.0
H1659 H 0.57692 0.66876 0.8741 0.0
C1660 C 0.50649 0.61058 0.86733 0.0
C1661 C 0.4998 0.60454 0.84956 0.0
C1662 C 0.5242 0.61944 0.86885 0.0
C1663 C 0.53554 0.62215 0.85263 0.0
C1664 C 0.52874 0.61622 0.83486 0.0
C1665 C 0.51097 0.60762 0.83333 0.0
C1666 C 0.58852 0.62967 0.84794 0.0
C1667 C 0.59117 0.64622 0.85872 0.0
C1668 C 0.57037 0.62199 0.84573 0.0
C1669 C 0.5546 0.63076 0.85427 0.0
C1670 C 0.55718 0.64769 0.86449 0.0
C1671 C 0.57531 0.65549 0.86647 0.0
H1672 H 0.86028 0.24698 0.36279 0.0
H1673 H 0.84827 0.23725 0.42215 0.0
H1674 H 0.87592 0.21587 0.36096 0.0
H1675 H 0.86328 0.20609 0.4202 0.0
H1676 H 0.87003 0.14341 0.39982 0.0
H1677 H 0.85596 0.17505 0.40276 0.0
H1678 H 0.90541 0.19955 0.37594 0.0
H1679 H 0.91975 0.16794 0.37362 0.0
C1680 C 0.86099 0.23816 0.37539 0.0
C1681 C 0.85287 0.24431 0.39252 0.0
C1682 C 0.86992 0.22046 0.37437 0.0
C1683 C 0.87066 0.20861 0.39043 0.0
C1684 C 0.86263 0.21485 0.40757 0.0
C1685 C 0.85395 0.2326 0.40863 0.0
C1686 C 0.87792 0.1556 0.39471 0.0
C1687 C 0.89566 0.15327 0.38594 0.0
C1688 C 0.86989 0.17364 0.39637 0.0
C1689 C 0.87951 0.18963 0.38929 0.0
C1690 C 0.89755 0.18736 0.38109 0.0
C1691 C 0.90567 0.16933 0.37966 0.0
H1692 H 0.4165 0.83113 0.88523 0.0
H1693 H 0.39684 0.86662 0.83924 0.0
H1694 H 0.4485 0.84412 0.8817 0.0
H1695 H 0.42903 0.87929 0.83534 0.0
H1696 H 0.49304 0.8824 0.82296 0.0
H1697 H 0.46186 0.86745 0.82613 0.0
H1698 H 0.46359 0.87688 0.88676 0.0
H1699 H 0.49473 0.8922 0.88346 0.0
C1700 C 0.41902 0.84189 0.87452 0.0
C1701 C 0.40414 0.84844 0.86294 0.0
C1702 C 0.43731 0.84921 0.87244 0.0
C1703 C 0.44113 0.86285 0.85843 0.0
C1704 C 0.42643 0.86876 0.84626 0.0
C1705 C 0.40806 0.86157 0.84849 0.0
C1706 C 0.48671 0.88125 0.83694 0.0
C1707 C 0.49612 0.88844 0.85298 0.0
C1708 C 0.46892 0.87275 0.83874 0.0
C1709 C 0.46034 0.87111 0.85665 0.0
C1710 C 0.47001 0.87785 0.8728 0.0
C1711 C 0.48776 0.88655 0.87095 0.0
H1712 H 0.13357 0.74558 0.0734 0.0
H1713 H 0.14088 0.74791 0.1342 0.0
H1714 H 0.11854 0.71443 0.07624 0.0
H1715 H 0.12586 0.71662 0.13718 0.0
H1716 H 0.08271 0.66795 0.13579 0.0
H1717 H 0.09499 0.70023 0.13248 0.0
H1718 H 0.12915 0.6822 0.08474 0.0
H1719 H 0.11687 0.64987 0.08818 0.0
C1720 C 0.13186 0.73936 0.08738 0.0
C1721 C 0.13837 0.74894 0.1036 0.0
C1722 C 0.12335 0.72157 0.089 0.0
C1723 C 0.12117 0.71305 0.10691 0.0
C1724 C 0.12721 0.72293 0.12321 0.0
C1725 C 0.13579 0.74076 0.12156 0.0
C1726 C 0.09303 0.67089 0.12475 0.0
C1727 C 0.09933 0.6564 0.11257 0.0
C1728 C 0.09999 0.68934 0.12282 0.0
C1729 C 0.11317 0.69368 0.1085 0.0
C1730 C 0.11892 0.67929 0.09586 0.0
C1731 C 0.11198 0.66081 0.09784 0.0
H1732 H 0.90451 0.62825 0.10445 0.0
H1733 H 0.90982 0.65659 0.15856 0.0
H1734 H 0.93676 0.61616 0.10745 0.0
H1735 H 0.9424 0.64495 0.16146 0.0
H1736 H 0.99012 0.60205 0.1705 0.0
H1737 H 0.95876 0.61606 0.167 0.0
H1738 H 0.96955 0.62495 0.10714 0.0
H1739 H 0.00065 0.60976 0.11061 0.0
C1740 C 0.91277 0.6322 0.11681 0.0
C1741 C 0.90487 0.64355 0.13116 0.0
C1742 C 0.93126 0.62531 0.11853 0.0
C1743 C 0.94224 0.62967 0.13463 0.0
C1744 C 0.93427 0.64112 0.14897 0.0
C1745 C 0.91567 0.64785 0.14732 0.0
C1746 C 0.98567 0.6068 0.15656 0.0
C1747 C -0.00242 0.60457 0.14074 0.0
C1748 C 0.96782 0.61512 0.1546 0.0
C1749 C 0.9616 0.62163 0.13678 0.0
C1750 C 0.97379 0.61982 0.12101 0.0
C1751 C 0.99162 0.61131 0.12298 0.0
H1752 H 0.8666 0.84864 0.10192 0.0
H1753 H 0.9193 0.82582 0.12334 0.0
H1754 H 0.85325 0.81662 0.10051 0.0
H1755 H 0.90579 0.79381 0.12268 0.0
H1756 H 0.88065 0.73823 0.09765 0.0
H1757 H 0.89525 0.76967 0.1002 0.0
H1758 H 0.84265 0.79208 0.12268 0.0
H1759 H 0.82813 0.76063 0.11984 0.0
C1760 C 0.87527 0.83672 0.10637 0.0
C1761 C 0.89376 0.83961 0.11315 0.0
C1762 C 0.8676 0.81844 0.10576 0.0
C1763 C 0.87836 0.80273 0.11179 0.0
C1764 C 0.89713 0.80563 0.11799 0.0
C1765 C 0.90478 0.82392 0.11858 0.0
C1766 C 0.8724 0.74988 0.10341 0.0
C1767 C 0.85333 0.74721 0.10849 0.0
C1768 C 0.8807 0.76784 0.10487 0.0
C1769 C 0.87003 0.78339 0.11144 0.0
C1770 C 0.85112 0.78046 0.1172 0.0
C1771 C 0.84284 0.7625 0.11573 0.0
H1772 H 0.9968 0.8902 0.10892 0.0
H1773 H 0.00341 0.89089 0.16984 0.0
H1774 H 0.02806 0.87536 0.1057 0.0
H1775 H 0.03503 0.87729 0.16675 0.0
H1776 H 0.08463 0.83766 0.15664 0.0
H1777 H 0.05208 0.84948 0.15922 0.0
H1778 H 0.06061 0.88347 0.10872 0.0
H1779 H 0.09279 0.8711 0.10593 0.0
C1780 C 0.00497 0.88711 0.12159 0.0
C1781 C -0.00218 0.89166 0.13959 0.0
C1782 C 0.02294 0.87884 0.11978 0.0
C1783 C 0.03414 0.8752 0.13597 0.0
C1784 C 0.02675 0.87962 0.15399 0.0
C1785 C 0.00874 0.88765 0.15577 0.0
C1786 C 0.07942 0.84763 0.14613 0.0
C1787 C 0.091 0.85328 0.13095 0.0
C1788 C 0.06084 0.85446 0.1476 0.0
C1789 C 0.05365 0.86737 0.13411 0.0
C1790 C 0.06547 0.87319 0.11909 0.0
C1791 C 0.08393 0.86617 0.11751 0.0
H1792 H 0.4227 0.13298 0.25431 0.0
H1793 H 0.36188 0.13676 0.24772 0.0
H1794 H 0.4186 0.1187 0.28553 0.0
H1795 H 0.35758 0.12138 0.2786 0.0
H1796 H 0.35797 0.11761 0.34346 0.0
H1797 H 0.36152 0.12956 0.31121 0.0
H1798 H 0.40877 0.09127 0.30234 0.0
H1799 H 0.40544 0.07978 0.33495 0.0
C1800 C 0.40843 0.13053 0.25954 0.0
C1801 C 0.39258 0.1361 0.24883 0.0
C1802 C 0.40606 0.12214 0.27731 0.0
C1803 C 0.38776 0.11896 0.28463 0.0
C1804 C 0.37188 0.12394 0.27352 0.0
C1805 C 0.37429 0.13252 0.25579 0.0
C1806 C 0.36897 0.11165 0.33451 0.0
C1807 C 0.3813 0.09764 0.3415 0.0
C1808 C 0.37098 0.11842 0.31601 0.0
C1809 C 0.38532 0.11125 0.3041 0.0
C1810 C 0.3977 0.09724 0.31119 0.0
C1811 C 0.3958 0.09062 0.32981 0.0
H1812 H 0.38819 0.37898 0.9966 0.0
H1813 H 0.38549 0.31791 0.99207 0.0
H1814 H 0.37266 0.38193 0.96558 0.0
H1815 H 0.37029 0.32077 0.96096 0.0
H1816 H 0.36859 0.33734 0.89652 0.0
H1817 H 0.38083 0.33264 0.92874 0.0
H1818 H 0.341 0.37425 0.94994 0.0
H1819 H 0.32855 0.37861 0.91781 0.0
C1820 C 0.38407 0.36624 0.98901 0.0
C1821 C 0.38804 0.34825 0.99655 0.0
C1822 C 0.37522 0.36789 0.97133 0.0
C1823 C 0.37037 0.35156 0.9609 0.0
C1824 C 0.3741 0.33357 0.96863 0.0
C1825 C 0.38278 0.33194 0.98636 0.0
C1826 C 0.36238 0.34531 0.90814 0.0
C1827 C 0.34811 0.35877 0.90471 0.0
C1828 C 0.36932 0.34262 0.92652 0.0
C1829 C 0.36203 0.35332 0.94173 0.0
C1830 C 0.34714 0.36615 0.93838 0.0
C1831 C 0.34011 0.3687 0.92004 0.0
H1832 H 0.59932 0.38124 0.23762 0.0
H1833 H 0.61881 0.32707 0.25853 0.0
H1834 H 0.60272 0.39484 0.26945 0.0
H1835 H 0.62259 0.34059 0.29032 0.0
H1836 H 0.60282 0.36368 0.34754 0.0
H1837 H 0.60095 0.35139 0.31511 0.0
H1838 H 0.62546 0.4036 0.29398 0.0
H1839 H 0.62657 0.41607 0.32638 0.0
C1840 C 0.60472 0.37241 0.24901 0.0
C1841 C 0.60875 0.35318 0.24584 0.0
C1842 C 0.60666 0.38014 0.26719 0.0
C1843 C 0.6127 0.36871 0.28244 0.0
C1844 C 0.61752 0.34964 0.27895 0.0
C1845 C 0.61554 0.34194 0.2608 0.0
C1846 C 0.60771 0.37249 0.3359 0.0
C1847 C 0.61528 0.39057 0.33937 0.0
C1848 C 0.60683 0.36543 0.31739 0.0
C1849 C 0.61337 0.37641 0.30202 0.0
C1850 C 0.62036 0.39478 0.30551 0.0
C1851 C 0.62121 0.40183 0.32403 0.0
H1852 H 0.67015 0.11895 0.91897 0.0
H1853 H 0.6179 0.1425 0.89725 0.0
H1854 H 0.657 0.11925 0.95116 0.0
H1855 H 0.60486 0.14338 0.92945 0.0
H1856 H 0.57977 0.12277 0.98496 0.0
H1857 H 0.59417 0.12014 0.95342 0.0
H1858 H 0.64702 0.14198 0.97585 0.0
H1859 H 0.63253 0.14444 0.00737 0.0
C1860 C 0.65582 0.12413 0.92116 0.0
C1861 C 0.6448 0.13029 0.90574 0.0
C1862 C 0.64837 0.12448 0.93954 0.0
C1863 C 0.62981 0.13108 0.94276 0.0
C1864 C 0.61905 0.13782 0.92733 0.0
C1865 C 0.62654 0.13751 0.90898 0.0
C1866 C 0.59452 0.12677 0.98308 0.0
C1867 C 0.60508 0.13389 -0.00163 0.0
C1868 C 0.60271 0.12541 0.96509 0.0
C1869 C 0.62163 0.1311 0.96214 0.0
C1870 C 0.63244 0.13741 0.97772 0.0
C1871 C 0.6242 0.13879 0.99571 0.0
H1872 H 0.36708 0.9194 0.16889 0.0
H1873 H 0.4054 0.87728 0.14619 0.0
H1874 H 0.37044 0.90552 0.20057 0.0
H1875 H 0.40899 0.86346 0.17789 0.0
H1876 H 0.42337 0.85514 0.24078 0.0
H1877 H 0.42157 0.87116 0.21006 0.0
H1878 H 0.36053 0.87481 0.21566 0.0
H1879 H 0.36241 0.85856 0.2464 0.0
C1880 C 0.37614 0.9071 0.17073 0.0
C1881 C 0.38555 0.89899 0.15514 0.0
C1882 C 0.37809 0.89921 0.1888 0.0
C1883 C 0.38975 0.88327 0.1916 0.0
C1884 C 0.39993 0.87577 0.17613 0.0
C1885 C 0.39788 0.88362 0.15803 0.0
C1886 C 0.40958 0.85925 0.23533 0.0
C1887 C 0.39298 0.8555 0.24573 0.0
C1888 C 0.40855 0.86843 0.21782 0.0
C1889 C 0.39092 0.87416 0.21049 0.0
C1890 C 0.37433 0.87071 0.22109 0.0
C1891 C 0.37537 0.8614 0.23859 0.0
H1892 H 0.123 0.34439 0.0997 0.0
H1893 H 0.16745 0.37884 0.0753 0.0
H1894 H 0.1087 0.34052 0.06825 0.0
H1895 H 0.15312 0.3752 0.04386 0.0
H1896 H 0.10802 0.38291 0.99651 0.0
H1897 H 0.12336 0.3859 0.02764 0.0
H1898 H 0.11577 0.32571 0.03705 0.0
H1899 H 0.10069 0.32279 0.00598 0.0
C1900 C 0.12971 0.35105 0.08756 0.0
C1901 C 0.14596 0.36233 0.08988 0.0
C1902 C 0.12158 0.34884 0.0696 0.0
C1903 C 0.12968 0.35779 0.05367 0.0
C1904 C 0.14634 0.36852 0.05596 0.0
C1905 C 0.1545 0.37064 0.0739 0.0
C1906 C 0.10974 0.37038 0.00528 0.0
C1907 C 0.10304 0.3527 -0.00095 0.0
C1908 C 0.11852 0.37204 0.023 0.0
C1909 C 0.12067 0.35603 0.03476 0.0
C1910 C 0.11403 0.33833 0.02841 0.0
C1911 C 0.10536 0.33667 0.01069 0.0
H1912 H 0.57246 0.63948 0.24177 0.0
H1913 H 0.63359 0.63949 0.24638 0.0
H1914 H 0.57469 0.62491 0.21037 0.0
H1915 H 0.63592 0.62471 0.21491 0.0
H1916 H 0.63041 0.58095 0.16665 0.0
H1917 H 0.6276 0.5941 0.19867 0.0
H1918 H 0.58607 0.63447 0.17834 0.0
H1919 H 0.58912 0.62141 0.14625 0.0
C1920 C 0.58637 0.63638 0.23597 0.0
C1921 C 0.60287 0.64063 0.24632 0.0
C1922 C 0.58765 0.62807 0.21804 0.0
C1923 C 0.60547 0.62375 0.21019 0.0
C1924 C 0.62199 0.62773 0.22072 0.0
C1925 C 0.62069 0.63617 0.23865 0.0
C1926 C 0.62089 0.59281 0.16903 0.0
C1927 C 0.61039 0.6006 0.15398 0.0
C1928 C 0.61924 0.60027 0.18732 0.0
C1929 C 0.6068 0.61544 0.19093 0.0
C1930 C 0.59574 0.62273 0.17597 0.0
C1931 C 0.59748 0.61532 0.15764 0.0
H1932 H 0.86367 0.14898 0.98983 0.0
H1933 H 0.91488 0.12107 0.0085 0.0
H1934 H 0.85039 0.14626 0.02184 0.0
H1935 H 0.90158 0.11783 0.04045 0.0
H1936 H 0.88308 0.13847 0.09898 0.0
H1937 H 0.89479 0.13938 0.06633 0.0
H1938 H 0.83872 0.12479 0.04588 0.0
H1939 H 0.82692 0.12487 0.07853 0.0
C1940 C 0.87185 0.14187 0.00077 0.0
C1941 C 0.89023 0.13526 0.99694 0.0
C1942 C 0.8643 0.14029 0.01905 0.0
C1943 C 0.87503 0.13202 0.03374 0.0
C1944 C 0.89312 0.12463 0.02955 0.0
C1945 C 0.90067 0.12629 0.0113 0.0
C1946 C 0.8733 0.13555 0.08745 0.0
C1947 C 0.85426 0.1311 0.09119 0.0
C1948 C 0.88002 0.13585 0.06879 0.0
C1949 C 0.86776 0.1318 0.05353 0.0
C1950 C 0.84854 0.1279 0.05731 0.0
C1951 C 0.84184 0.12766 0.07599 0.0
H1952 H 0.32839 0.36625 0.07637 0.0
H1953 H 0.35058 0.40253 0.12054 0.0
H1954 H 0.29636 0.36982 0.08942 0.0
H1955 H 0.31849 0.40651 0.13336 0.0
H1956 H 0.25579 0.4232 0.13865 0.0
H1957 H 0.28693 0.42051 0.12364 0.0
H1958 H 0.27993 0.35964 0.12016 0.0
H1959 H 0.24878 0.36237 0.13559 0.0
C1960 C 0.32638 0.37485 0.08898 0.0
C1961 C 0.34192 0.38362 0.09789 0.0
C1962 C 0.3081 0.37695 0.09636 0.0
C1963 C 0.30504 0.38823 0.11252 0.0
C1964 C 0.32049 0.39774 0.12087 0.0
C1965 C 0.3388 0.39548 0.11358 0.0
C1966 C 0.26099 0.40924 0.13479 0.0
C1967 C 0.25009 0.39294 0.13843 0.0
C1968 C 0.27875 0.40772 0.12618 0.0
C1969 C 0.28584 0.38987 0.12085 0.0
C1970 C 0.2747 0.37358 0.12402 0.0
C1971 C 0.25696 0.37511 0.13282 0.0
H1972 H 0.3429 0.63898 0.37489 0.0
H1973 H 0.33491 0.58873 0.40908 0.0
H1974 H 0.31065 0.63598 0.36269 0.0
H1975 H 0.30238 0.58587 0.39729 0.0
H1976 H 0.25445 0.57433 0.35513 0.0
H1977 H 0.28592 0.57792 0.36893 0.0
H1978 H 0.27781 0.63878 0.37134 0.0
H1979 H 0.24656 0.63508 0.35647 0.0
C1980 C 0.33408 0.62747 0.38002 0.0
C1981 C 0.34121 0.61422 0.39309 0.0
C1982 C 0.31559 0.62577 0.37309 0.0
C1983 C 0.30386 0.61077 0.37912 0.0
C1984 C 0.3111 0.59748 0.39219 0.0
C1985 C 0.32967 0.59911 0.39898 0.0
C1986 C 0.25948 0.58847 0.35853 0.0
C1987 C 0.24827 0.60446 0.35462 0.0
C1988 C 0.2774 0.59052 0.36666 0.0
C1989 C 0.28442 0.60864 0.37125 0.0
C1990 C 0.27293 0.62464 0.36773 0.0
C1991 C 0.25501 0.62256 0.35942 0.0
H1992 H 0.85081 0.39796 0.87827 0.0
H1993 H 0.87884 0.41894 0.82797 0.0
H1994 H 0.84869 0.4303 0.89063 0.0
H1995 H 0.87767 0.45122 0.84065 0.0
H1996 H 0.85207 0.50822 0.86125 0.0
H1997 H 0.85573 0.47642 0.84773 0.0
H1998 H 0.86923 0.45448 0.90352 0.0
H1999 H 0.86503 0.48624 0.91692 0.0
C2000 C 0.85663 0.40953 0.86996 0.0
C2001 C 0.86547 0.406 0.85247 0.0
C2002 C 0.85562 0.428 0.87709 0.0
C2003 C 0.86334 0.4433 0.86679 0.0
C2004 C 0.87163 0.43976 0.84897 0.0
C2005 C 0.87255 0.42128 0.84182 0.0
C2006 C 0.85612 0.49658 0.87046 0.0
C2007 C 0.85818 0.49946 0.89006 0.0
C2008 C 0.85822 0.4784 0.86278 0.0
C2009 C 0.86253 0.46286 0.8746 0.0
C2010 C 0.86546 0.46606 0.89411 0.0
C2011 C 0.86326 0.4842 0.90177 0.0
H2012 H 0.64619 0.90181 0.37047 0.0
H2013 H 0.66676 0.86361 0.41383 0.0
H2014 H 0.67862 0.90547 0.3584 0.0
H2015 H 0.69902 0.86657 0.40119 0.0
H2016 H 0.74638 0.86068 0.35298 0.0
H2017 H 0.71498 0.85748 0.3679 0.0
H2018 H 0.71081 0.91852 0.37215 0.0
H2019 H 0.74233 0.92167 0.35795 0.0
C2020 C 0.65764 0.89415 0.37733 0.0
C2021 C 0.65394 0.88189 0.3926 0.0
C2022 C 0.67612 0.89623 0.37045 0.0
C2023 C 0.69116 0.88604 0.37873 0.0
C2024 C 0.68755 0.87422 0.39435 0.0
C2025 C 0.66912 0.87241 0.40143 0.0
C2026 C 0.73885 0.87333 0.35747 0.0
C2027 C 0.74663 0.8914 0.35433 0.0
C2028 C 0.72095 0.87152 0.3659 0.0
C2029 C 0.71054 0.88779 0.371 0.0
C2030 C 0.7185 0.90581 0.36813 0.0
C2031 C 0.73646 0.90759 0.36 0.0
H2032 H 0.66954 0.49971 0.38485 0.0
H2033 H 0.60858 0.49392 0.38739 0.0
H2034 H 0.66618 0.53083 0.37025 0.0
H2035 H 0.60502 0.52475 0.37167 0.0
H2036 H 0.60676 0.58974 0.36785 0.0
H2037 H 0.60925 0.55736 0.37969 0.0
H2038 H 0.65728 0.54763 0.34256 0.0
H2039 H 0.65501 0.58038 0.33121 0.0
C2040 C 0.6554 0.5051 0.38203 0.0
C2041 C 0.6393 0.49462 0.38734 0.0
C2042 C 0.65345 0.52281 0.37346 0.0
C2043 C 0.63533 0.53034 0.36981 0.0
C2044 C 0.61919 0.51949 0.37455 0.0
C2045 C 0.62117 0.50179 0.38334 0.0
C2046 C 0.6177 0.58057 0.36209 0.0
C2047 C 0.63057 0.58737 0.34849 0.0
C2048 C 0.61909 0.56199 0.3688 0.0
C2049 C 0.63337 0.54981 0.36197 0.0
C2050 C 0.64624 0.55669 0.34828 0.0
C2051 C 0.64495 0.57538 0.34174 0.0
H2052 H 0.24676 0.63347 0.63784 0.0
H2053 H 0.241 0.57256 0.63446 0.0
H2054 H 0.21555 0.63722 0.62299 0.0
H2055 H 0.20945 0.57609 0.62085 0.0
H2056 H 0.1587 0.58792 0.58336 0.0
H2057 H 0.19161 0.58513 0.5941 0.0
H2058 H 0.18328 0.63322 0.63149 0.0
H2059 H 0.15076 0.63629 0.62014 0.0
C2060 C 0.23881 0.62093 0.6338 0.0
C2061 C 0.24611 0.60276 0.63734 0.0
C2062 C 0.22087 0.62302 0.62553 0.0
C2063 C 0.20987 0.60695 0.62088 0.0
C2064 C 0.21754 0.58878 0.62402 0.0
C2065 C 0.23552 0.58674 0.63204 0.0
C2066 C 0.16403 0.59784 0.59385 0.0
C2067 C 0.15241 0.61243 0.60079 0.0
C2068 C 0.18282 0.59626 0.60005 0.0
C2069 C 0.19017 0.60904 0.61359 0.0
C2070 C 0.1783 0.62345 0.6207 0.0
C2071 C 0.15964 0.62516 0.6143 0.0
H2072 H 0.83562 0.58381 0.657 0.0
H2073 H 0.88966 0.58973 0.62864 0.0
H2074 H 0.83267 0.55151 0.64462 0.0
H2075 H 0.88661 0.55776 0.61583 0.0
H2076 H 0.88304 0.49386 0.60814 0.0
H2077 H 0.88679 0.52472 0.62373 0.0
H2078 H 0.82696 0.53599 0.6153 0.0
H2079 H 0.82317 0.50485 0.60089 0.0
C2080 C 0.84685 0.57814 0.64812 0.0
C2081 C 0.86299 0.58904 0.64401 0.0
C2082 C 0.84516 0.55972 0.64096 0.0
C2083 C 0.85944 0.55202 0.62925 0.0
C2084 C 0.87557 0.56305 0.62515 0.0
C2085 C 0.87733 0.58137 0.63248 0.0
C2086 C 0.87074 0.50295 0.60983 0.0
C2087 C 0.85289 0.49716 0.60316 0.0
C2088 C 0.87287 0.52065 0.61858 0.0
C2089 C 0.85718 0.53288 0.62071 0.0
C2090 C 0.8393 0.52688 0.61414 0.0
C2091 C 0.83717 0.50917 0.60558 0.0
H2092 H 0.14625 0.00574 0.63299 0.0
H2093 H 0.12468 0.98404 0.57992 0.0
H2094 H 0.14362 0.97407 0.6471 0.0
H2095 H 0.12167 0.95241 0.59396 0.0
H2096 H 0.14267 0.89563 0.61671 0.0
H2097 H 0.144 0.92795 0.60412 0.0
H2098 H 0.12145 0.94945 0.65707 0.0
H2099 H 0.1209 0.91714 0.66982 0.0
C2100 C 0.14055 0.99421 0.62453 0.0
C2101 C 0.13572 0.9971 0.60544 0.0
C2102 C 0.13906 0.97612 0.63255 0.0
C2103 C 0.13267 0.9607 0.62155 0.0
C2104 C 0.12702 0.96391 0.60266 0.0
C2105 C 0.12856 0.98197 0.59467 0.0
C2106 C 0.13813 0.90733 0.62563 0.0
C2107 C 0.13125 0.90399 0.644 0.0
C2108 C 0.13869 0.92578 0.6184 0.0
C2109 C 0.13249 0.94121 0.62949 0.0
C2110 C 0.12625 0.93786 0.64816 0.0
C2111 C 0.12572 0.9194 0.65538 0.0
H2112 H 0.61247 0.74059 0.9008 0.0
H2113 H 0.66437 0.76304 0.87726 0.0
H2114 H 0.59793 0.77213 0.89907 0.0
H2115 H 0.64987 0.79453 0.87506 0.0
H2116 H 0.62691 0.85135 0.89468 0.0
H2117 H 0.64003 0.81928 0.89692 0.0
H2118 H 0.58663 0.79614 0.87724 0.0
H2119 H 0.57336 0.82819 0.8759 0.0
C2120 C 0.62057 0.75228 0.89492 0.0
C2121 C 0.63945 0.7496 0.88917 0.0
C2122 C 0.61231 0.77029 0.89393 0.0
C2123 C 0.62283 0.78587 0.88712 0.0
C2124 C 0.64154 0.78291 0.88076 0.0
C2125 C 0.64978 0.76493 0.88182 0.0
C2126 C 0.61799 0.83934 0.89104 0.0
C2127 C 0.59934 0.84213 0.88465 0.0
C2128 C 0.62552 0.82103 0.8921 0.0
C2129 C 0.61448 0.8052 0.88689 0.0
C2130 C 0.59552 0.80803 0.88129 0.0
C2131 C 0.58799 0.82635 0.88029 0.0
H2132 H 0.01296 0.07784 0.37013 0.0
H2133 H 0.99069 0.12955 0.346 0.0
H2134 H 0.04444 0.09242 0.3725 0.0
H2135 H 0.02216 0.14418 0.34805 0.0
H2136 H 0.07763 0.16913 0.37204 0.0
H2137 H 0.04572 0.1555 0.37067 0.0
H2138 H 0.0694 0.10251 0.35056 0.0
H2139 H 0.10133 0.11603 0.35272 0.0
C2140 C 0.01488 0.09238 0.36545 0.0
C2141 C -0.00039 0.10265 0.35788 0.0
C2142 C 0.03285 0.10067 0.36665 0.0
C2143 C 0.03581 0.11938 0.36028 0.0
C2144 C 0.0203 0.1298 0.35321 0.0
C2145 C 0.00233 0.12148 0.35203 0.0
C2146 C 0.07594 0.15451 0.36756 0.0
C2147 C 0.09183 0.1434 0.36298 0.0
C2148 C 0.0577 0.14678 0.36655 0.0
C2149 C 0.05507 0.12785 0.36076 0.0
C2150 C 0.07101 0.117 0.35549 0.0
C2151 C 0.08923 0.12476 0.35652 0.0
H2152 H 0.41909 0.66685 0.86411 0.0
H2153 H 0.37954 0.64605 0.90609 0.0
H2154 H 0.40695 0.6991 0.86854 0.0
H2155 H 0.36753 0.67832 0.91077 0.0
H2156 H 0.36251 0.74091 0.9259 0.0
H2157 H 0.37796 0.71001 0.92262 0.0
H2158 H 0.37609 0.71567 0.86151 0.0
H2159 H 0.36045 0.74659 0.86489 0.0
C2160 C 0.40768 0.66921 0.87416 0.0
C2161 C 0.39976 0.65399 0.88434 0.0
C2162 C 0.40081 0.68762 0.87675 0.0
C2163 C 0.38617 0.69114 0.88983 0.0
C2164 C 0.37888 0.676 0.90064 0.0
C2165 C 0.38568 0.65757 0.89795 0.0
C2166 C 0.36542 0.73549 0.91179 0.0
C2167 C 0.36016 0.74589 0.89562 0.0
C2168 C 0.37424 0.71787 0.90992 0.0
C2169 C 0.37808 0.71042 0.89182 0.0
C2170 C 0.37341 0.72117 0.87563 0.0
C2171 C 0.36447 0.73878 0.87753 0.0
H2172 H 0.89795 0.36565 0.33985 0.0
H2173 H 0.91912 0.32984 0.38486 0.0
H2174 H 0.92958 0.37941 0.33589 0.0
H2175 H 0.95082 0.34339 0.38088 0.0
H2176 H -0.0018 0.38882 0.38277 0.0
H2177 H 0.96713 0.37353 0.38642 0.0
H2178 H 0.96128 0.37117 0.3253 0.0
H2179 H 0.99211 0.38664 0.32183 0.0
C2180 C 0.90944 0.36069 0.3488 0.0
C2181 C 0.90612 0.34709 0.36294 0.0
C2182 C 0.92754 0.36848 0.34652 0.0
C2183 C 0.94266 0.36259 0.3582 0.0
C2184 C 0.93937 0.34852 0.37197 0.0
C2185 C 0.92127 0.34078 0.37426 0.0
C2186 C 0.99022 0.38489 0.3702 0.0
C2187 C -0.00271 0.38898 0.35206 0.0
C2188 C 0.97253 0.37611 0.37224 0.0
C2189 C 0.96172 0.37125 0.35612 0.0
C2190 C 0.9691 0.37506 0.33797 0.0
C2191 C 0.98672 0.38386 0.33597 0.0
H2192 H 0.57721 0.16651 0.62523 0.0
H2193 H 0.62517 0.14432 0.59409 0.0
H2194 H 0.59035 0.19861 0.62267 0.0
H2195 H 0.63794 0.17651 0.59088 0.0
H2196 H 0.64191 0.23946 0.57283 0.0
H2197 H 0.62761 0.20796 0.57504 0.0
H2198 H 0.62112 0.21517 0.63563 0.0
H2199 H 0.6361 0.24661 0.63347 0.0
C2200 C 0.59067 0.16851 0.61804 0.0
C2201 C 0.60058 0.15295 0.61045 0.0
C2202 C 0.59808 0.18683 0.61647 0.0
C2203 C 0.61524 0.18991 0.60681 0.0
C2204 C 0.62468 0.17445 0.59843 0.0
C2205 C 0.6174 0.1561 0.60024 0.0
C2206 C 0.63763 0.23422 0.58664 0.0
C2207 C 0.64027 0.24528 0.60303 0.0
C2208 C 0.62939 0.21627 0.58788 0.0
C2209 C 0.62337 0.20919 0.6055 0.0
C2210 C 0.62557 0.22043 0.62186 0.0
C2211 C 0.63408 0.23833 0.62065 0.0
H2212 H 0.41718 0.16744 0.62547 0.0
H2213 H 0.39538 0.11264 0.64212 0.0
H2214 H 0.44947 0.15467 0.62531 0.0
H2215 H 0.4277 0.09998 0.64286 0.0
H2216 H 0.48421 0.07747 0.62253 0.0
H2217 H 0.45252 0.0916 0.62042 0.0
H2218 H 0.47387 0.14295 0.64654 0.0
H2219 H 0.50558 0.12881 0.6482 0.0
C2220 C 0.41936 0.15262 0.629 0.0
C2221 C 0.40388 0.14082 0.63327 0.0
C2222 C 0.43783 0.14537 0.62916 0.0
C2223 C 0.44112 0.12623 0.63378 0.0
C2224 C 0.42559 0.11466 0.63877 0.0
C2225 C 0.40714 0.12192 0.63857 0.0
C2226 C 0.48206 0.09188 0.6275 0.0
C2227 C 0.49713 0.10214 0.63549 0.0
C2228 C 0.46396 0.0999 0.6265 0.0
C2229 C 0.46064 0.11831 0.63355 0.0
C2230 C 0.47599 0.12881 0.64087 0.0
C2231 C 0.49411 0.12077 0.64181 0.0
H2232 H 0.35304 0.24641 0.63522 0.0
H2233 H 0.36474 0.24653 0.57505 0.0
H2234 H 0.36784 0.27784 0.63813 0.0
H2235 H 0.37937 0.27788 0.57783 0.0
H2236 H 0.37836 0.34289 0.58766 0.0
H2237 H 0.36674 0.31027 0.58489 0.0
H2238 H 0.3995 0.29438 0.63431 0.0
H2239 H 0.41137 0.32691 0.63682 0.0
C2240 C 0.35909 0.25307 0.62273 0.0
C2241 C 0.3578 0.24425 0.60494 0.0
C2242 C 0.3675 0.27099 0.62435 0.0
C2243 C 0.37458 0.28032 0.60816 0.0
C2244 C 0.37376 0.27113 0.59047 0.0
C2245 C 0.36548 0.25323 0.5889 0.0
C2246 C 0.38308 0.33238 0.59786 0.0
C2247 C 0.39524 0.33748 0.61279 0.0
C2248 C 0.37651 0.31374 0.59627 0.0
C2249 C 0.3821 0.29988 0.60952 0.0
C2250 C 0.39468 0.30489 0.62415 0.0
C2251 C 0.40134 0.3235 0.62566 0.0
H2252 H 0.50252 0.39188 0.67023 0.0
H2253 H 0.49538 0.38392 0.60987 0.0
H2254 H 0.53342 0.37625 0.66879 0.0
H2255 H 0.52638 0.3681 0.60833 0.0
H2256 H 0.57474 0.32532 0.61698 0.0
H2257 H 0.54279 0.33874 0.61974 0.0
H2258 H 0.56494 0.38374 0.65516 0.0
H2259 H 0.59686 0.37036 0.6522 0.0
C2260 C 0.50769 0.38687 0.65663 0.0
C2261 C 0.49682 0.38929 0.64009 0.0
C2262 C 0.52531 0.37791 0.65581 0.0
C2263 C 0.53234 0.37108 0.63844 0.0
C2264 C 0.52122 0.3731 0.62194 0.0
C2265 C 0.50358 0.38216 0.62277 0.0
C2266 C 0.57272 0.33817 0.6252 0.0
C2267 C 0.58821 0.34718 0.63395 0.0
C2268 C 0.5545 0.34581 0.62681 0.0
C2269 C 0.55145 0.3624 0.63746 0.0
C2270 C 0.56687 0.3709 0.64691 0.0
C2271 C 0.5851 0.36329 0.64521 0.0
H2272 H 0.8702 0.66698 0.76035 0.0
H2273 H 0.89919 0.61732 0.73925 0.0
H2274 H 0.86877 0.65277 0.79206 0.0
H2275 H 0.89815 0.60311 0.77094 0.0
H2276 H 0.87761 0.57711 0.82702 0.0
H2277 H 0.87718 0.59007 0.79489 0.0
H2278 H 0.8913 0.64551 0.81724 0.0
H2279 H 0.89073 0.63265 0.84943 0.0
C2280 C 0.87612 0.65294 0.76257 0.0
C2281 C 0.88481 0.64318 0.74757 0.0
C2282 C 0.87546 0.64487 0.78067 0.0
C2283 C 0.88355 0.6269 0.78406 0.0
C2284 C 0.89167 0.6169 0.76878 0.0
C2285 C 0.89227 0.62498 0.75068 0.0
C2286 C 0.88024 0.59212 0.82507 0.0
C2287 C 0.88363 0.60401 0.84071 0.0
C2288 C 0.8803 0.5995 0.80665 0.0
C2289 C 0.88392 0.61888 0.80354 0.0
C2290 C 0.88801 0.6306 0.8192 0.0
C2291 C 0.88793 0.62322 0.8376 0.0
H2292 H 0.8241 0.87207 0.41684 0.0
H2293 H 0.87778 0.85278 0.39444 0.0
H2294 H 0.83712 0.87123 0.44904 0.0
H2295 H 0.89069 0.85116 0.42664 0.0
H2296 H 0.91456 0.87047 0.48304 0.0
H2297 H 0.90024 0.87331 0.4515 0.0
H2298 H 0.84812 0.849 0.47313 0.0
H2299 H 0.86249 0.84654 0.5047 0.0
C2300 C 0.83872 0.86772 0.41888 0.0
C2301 C 0.85016 0.86298 0.40326 0.0
C2302 C 0.84611 0.86703 0.43728 0.0
C2303 C 0.86502 0.86141 0.44035 0.0
C2304 C 0.8762 0.85598 0.42469 0.0
C2305 C 0.8688 0.8567 0.40631 0.0
C2306 C 0.89996 0.86601 0.48098 0.0
C2307 C 0.88956 0.85829 0.49608 0.0
C2308 C 0.89182 0.86745 0.46297 0.0
C2309 C 0.87314 0.86114 0.45978 0.0
C2310 C 0.8625 0.85409 0.47516 0.0
C2311 C 0.87067 0.85269 0.4932 0.0
H2312 H 0.08946 0.90994 0.83413 0.0
H2313 H 0.13659 0.87177 0.84292 0.0
H2314 H 0.08652 0.89881 0.80137 0.0
H2315 H 0.13335 0.86006 0.81052 0.0
H2316 H 0.13419 0.85391 0.74687 0.0
H2317 H 0.13799 0.86846 0.77821 0.0
H2318 H 0.07686 0.87203 0.78374 0.0
H2319 H 0.07331 0.85869 0.75205 0.0
C2320 C 0.09906 0.89904 0.82903 0.0
C2321 C 0.11337 0.89183 0.84083 0.0
C2322 C 0.09739 0.89262 0.81033 0.0
C2323 C 0.1098 0.87861 0.80324 0.0
C2324 C 0.12389 0.8712 0.81531 0.0
C2325 C 0.12569 0.8778 0.83389 0.0
C2326 C 0.12167 0.85822 0.75472 0.0
C2327 C 0.10349 0.85525 0.74718 0.0
C2328 C 0.12378 0.86629 0.77273 0.0
C2329 C 0.10771 0.87129 0.78358 0.0
C2330 C 0.08955 0.8686 0.77574 0.0
C2331 C 0.08748 0.86076 0.75769 0.0
H2332 H 0.10295 0.6096 0.49866 0.0
H2333 H 0.10581 0.67046 0.49219 0.0
H2334 H 0.11852 0.60559 0.46784 0.0
H2335 H 0.12016 0.66666 0.46099 0.0
H2336 H 0.16046 0.65458 0.41252 0.0
H2337 H 0.14801 0.65762 0.44478 0.0
H2338 H 0.11152 0.60911 0.43508 0.0
H2339 H 0.12452 0.60581 0.40319 0.0
C2340 C 0.10697 0.62208 0.49061 0.0
C2341 C 0.10319 0.6403 0.49766 0.0
C2342 C 0.11566 0.61984 0.47289 0.0
C2343 C 0.12052 0.63581 0.46186 0.0
C2344 C 0.11688 0.65404 0.46916 0.0
C2345 C 0.10843 0.65624 0.48692 0.0
C2346 C 0.14982 0.64459 0.41741 0.0
C2347 C 0.14362 0.62982 0.40559 0.0
C2348 C 0.14263 0.64633 0.43582 0.0
C2349 C 0.1288 0.63354 0.44259 0.0
C2350 C 0.12248 0.61891 0.43055 0.0
C2351 C 0.12986 0.61704 0.41226 0.0
H2352 H 0.85787 0.41311 0.66772 0.0
H2353 H 0.90435 0.37763 0.64927 0.0
H2354 H 0.86141 0.40113 0.70009 0.0
H2355 H 0.90799 0.3656 0.68167 0.0
H2356 H 0.92031 0.36117 0.74469 0.0
H2357 H 0.91731 0.37611 0.71355 0.0
H2358 H 0.85621 0.37077 0.71704 0.0
H2359 H 0.85937 0.35588 0.74838 0.0
C2360 C 0.86872 0.40258 0.67061 0.0
C2361 C 0.88051 0.39584 0.656 0.0
C2362 C 0.87077 0.39578 0.68911 0.0
C2363 C 0.88483 0.3823 0.69336 0.0
C2364 C 0.89709 0.37608 0.67883 0.0
C2365 C 0.89499 0.38288 0.66031 0.0
C2366 C 0.90626 0.3633 0.73877 0.0
C2367 C 0.89005 0.35736 0.74872 0.0
C2368 C 0.90454 0.37177 0.72097 0.0
C2369 C 0.88655 0.37446 0.7128 0.0
C2370 C 0.87026 0.36902 0.72307 0.0
C2371 C 0.87202 0.36051 0.74093 0.0
H2372 H 0.63102 0.84704 0.48766 0.0
H2373 H 0.57918 0.87175 0.509 0.0
H2374 H 0.64539 0.84975 0.51923 0.0
H2375 H 0.59345 0.87461 0.54059 0.0
H2376 H 0.61559 0.85158 0.59736 0.0
H2377 H 0.60279 0.8511 0.56506 0.0
H2378 H 0.65613 0.87271 0.54363 0.0
H2379 H 0.66901 0.87268 0.57595 0.0
C2380 C 0.62291 0.85343 0.49908 0.0
C2381 C 0.60406 0.85915 0.49612 0.0
C2382 C 0.63107 0.85496 0.5171 0.0
C2383 C 0.62044 0.86217 0.5324 0.0
C2384 C 0.60184 0.86867 0.52913 0.0
C2385 C 0.59373 0.86719 0.51111 0.0
C2386 C 0.62454 0.85613 0.58568 0.0
C2387 C 0.64309 0.86252 0.58903 0.0
C2388 C 0.61719 0.85605 0.56727 0.0
C2389 C 0.62838 0.86216 0.55188 0.0
C2390 C 0.64718 0.86799 0.55522 0.0
C2391 C 0.65448 0.86814 0.57367 0.0
H2392 H 0.13227 0.13695 0.7476 0.0
H2393 H 0.07189 0.1441 0.7395 0.0
H2394 H 0.13455 0.12173 0.71626 0.0
H2395 H 0.07429 0.12973 0.70803 0.0
H2396 H 0.09534 0.12679 0.64464 0.0
H2397 H 0.09207 0.14002 0.67665 0.0
H2398 H 0.11972 0.09053 0.70001 0.0
H2399 H 0.12212 0.07686 0.6681 0.0
C2400 C 0.11954 0.1352 0.73913 0.0
C2401 C 0.10195 0.1418 0.74581 0.0
C2402 C 0.12082 0.12657 0.72129 0.0
C2403 C 0.10459 0.12472 0.70981 0.0
C2404 C 0.08702 0.13122 0.71656 0.0
C2405 C 0.08569 0.13952 0.73448 0.0
C2406 C 0.10056 0.1187 0.65665 0.0
C2407 C 0.1096 0.10115 0.65392 0.0
C2408 C 0.09874 0.12626 0.67489 0.0
C2409 C 0.10597 0.11639 0.69064 0.0
C2410 C 0.11445 0.09856 0.68799 0.0
C2411 C 0.11597 0.09086 0.66977 0.0
H2412 H 0.36987 0.60758 0.59269 0.0
H2413 H 0.33322 0.6559 0.58388 0.0
H2414 H 0.38199 0.61069 0.56043 0.0
H2415 H 0.34482 0.65877 0.55127 0.0
H2416 H 0.38631 0.67137 0.50287 0.0
H2417 H 0.37231 0.66781 0.53425 0.0
H2418 H 0.37383 0.6067 0.52785 0.0
H2419 H 0.38899 0.61045 0.49677 0.0
C2420 C 0.36423 0.6187 0.58368 0.0
C2421 C 0.3505 0.63139 0.59058 0.0
C2422 C 0.37108 0.62044 0.56517 0.0
C2423 C 0.36426 0.63486 0.55316 0.0
C2424 C 0.35054 0.64762 0.56019 0.0
C2425 C 0.34386 0.64599 0.57881 0.0
C2426 C 0.38368 0.65719 0.50825 0.0
C2427 C 0.38883 0.64116 0.49759 0.0
C2428 C 0.37544 0.65513 0.52612 0.0
C2429 C 0.37197 0.63697 0.53364 0.0
C2430 C 0.3766 0.6209 0.52262 0.0
C2431 C 0.38505 0.623 0.50477 0.0
H2432 H 0.84157 0.85496 0.61809 0.0
H2433 H 0.83288 0.90651 0.58612 0.0
H2434 H 0.80948 0.85722 0.63078 0.0
H2435 H 0.80038 0.90853 0.59818 0.0
H2436 H 0.75214 0.91795 0.64028 0.0
H2437 H 0.78357 0.9153 0.6262 0.0
H2438 H 0.77691 0.85426 0.6232 0.0
H2439 H 0.74587 0.85701 0.6386 0.0
C2440 C 0.8326 0.86661 0.61355 0.0
C2441 C 0.8395 0.88046 0.60101 0.0
C2442 C 0.81418 0.86787 0.62074 0.0
C2443 C 0.80224 0.88298 0.61541 0.0
C2444 C 0.80925 0.89684 0.60279 0.0
C2445 C 0.8278 0.89569 0.59582 0.0
C2446 C 0.7575 0.90397 0.63671 0.0
C2447 C 0.74673 0.88766 0.64058 0.0
C2448 C 0.7754 0.90245 0.62839 0.0
C2449 C 0.78282 0.88457 0.62352 0.0
C2450 C 0.77176 0.86825 0.62702 0.0
C2451 C 0.75392 0.86979 0.6356 0.0
H2452 H 0.8486 0.09672 0.86715 0.0
H2453 H 0.82456 0.12538 0.91577 0.0
H2454 H 0.81679 0.09339 0.85344 0.0
H2455 H 0.79288 0.12287 0.90161 0.0
H2456 H 0.74594 0.13436 0.8547 0.0
H2457 H 0.77725 0.1368 0.8699 0.0
H2458 H 0.78507 0.07632 0.86346 0.0
H2459 H 0.75359 0.07377 0.84908 0.0
C2460 C 0.83651 0.10236 0.87484 0.0
C2461 C 0.83904 0.11192 0.89215 0.0
C2462 C 0.81838 0.10048 0.86701 0.0
C2463 C 0.80254 0.10819 0.87635 0.0
C2464 C 0.80498 0.11723 0.89395 0.0
C2465 C 0.82307 0.1188 0.90193 0.0
C2466 C 0.7543 0.12161 0.85678 0.0
C2467 C 0.74745 0.1039 0.85072 0.0
C2468 C 0.77214 0.123 0.8654 0.0
C2469 C 0.78348 0.10674 0.86775 0.0
C2470 C 0.77663 0.08906 0.86162 0.0
C2471 C 0.75871 0.08764 0.85333 0.0
H2472 H 0.31951 0.99092 0.38739 0.0
H2473 H 0.38069 0.99455 0.38917 0.0
H2474 H 0.32168 0.96013 0.37149 0.0
H2475 H 0.38295 0.96377 0.37307 0.0
H2476 H 0.37869 0.91721 0.328 0.0
H2477 H 0.37508 0.949 0.3415 0.0
H2478 H 0.33267 0.92755 0.38038 0.0
H2479 H 0.33653 0.89569 0.36697 0.0
C2480 C 0.33342 0.98505 0.38436 0.0
C2481 C 0.34996 0.99492 0.38951 0.0
C2482 C 0.33465 0.96749 0.37529 0.0
C2483 C 0.35247 0.95959 0.3711 0.0
C2484 C 0.36903 0.96966 0.37596 0.0
C2485 C 0.36777 0.98719 0.38516 0.0
C2486 C 0.36873 0.91933 0.33954 0.0
C2487 C 0.3583 0.90402 0.34692 0.0
C2488 C 0.36663 0.93747 0.34721 0.0
C2489 C 0.35381 0.94064 0.36215 0.0
C2490 C 0.34265 0.92548 0.36884 0.0
C2491 C 0.34485 0.9073 0.36123 0.0
H2492 H 0.16978 0.35971 0.91319 0.0
H2493 H 0.14848 0.40455 0.87723 0.0
H2494 H 0.20137 0.36346 0.89934 0.0
H2495 H 0.18005 0.40832 0.86322 0.0
H2496 H 0.243 0.42188 0.85593 0.0
H2497 H 0.21203 0.41874 0.87121 0.0
H2498 H 0.21726 0.35759 0.86896 0.0
H2499 H 0.24843 0.36088 0.8538 0.0
C2500 C 0.17188 0.37024 0.90216 0.0
C2501 C 0.1567 0.38154 0.89588 0.0
C2502 C 0.18992 0.37239 0.89425 0.0
C2503 C 0.19315 0.38603 0.88004 0.0
C2504 C 0.17804 0.39776 0.87422 0.0
C2505 C 0.15999 0.39559 0.88217 0.0
C2506 C 0.23742 0.40779 0.85865 0.0
C2507 C 0.24788 0.39159 0.85362 0.0
C2508 C 0.21972 0.40599 0.86735 0.0
C2509 C 0.21216 0.38793 0.87121 0.0
C2510 C 0.22281 0.3717 0.86636 0.0
C2511 C 0.24055 0.37354 0.85765 0.0
H2512 H 0.11163 0.99461 0.88713 0.0
H2513 H 0.17235 0.00188 0.88292 0.0
H2514 H 0.10688 0.02556 0.87204 0.0
H2515 H 0.16781 0.03315 0.86889 0.0
H2516 H 0.15393 0.0824 0.83013 0.0
H2517 H 0.15753 0.04979 0.84146 0.0
H2518 H 0.1106 0.05826 0.88024 0.0
H2519 H 0.1068 0.09056 0.86847 0.0
C2520 C 0.12392 0.00284 0.88285 0.0
C2521 C 0.14232 0.99602 0.88617 0.0
C2522 C 0.12125 0.02061 0.87443 0.0
C2523 C 0.13697 0.03191 0.86936 0.0
C2524 C 0.15538 0.02478 0.87237 0.0
C2525 C 0.15801 0.00697 0.88061 0.0
C2526 C 0.1444 0.07717 0.84102 0.0
C2527 C 0.12994 0.08878 0.84825 0.0
C2528 C 0.14646 0.05855 0.84756 0.0
C2529 C 0.13427 0.05136 0.8617 0.0
C2530 C 0.11992 0.06316 0.86902 0.0
C2531 C 0.11776 0.08168 0.86234 0.0
H2532 H 0.75886 0.09975 0.11511 0.0
H2533 H 0.73753 0.12587 0.16624 0.0
H2534 H 0.72733 0.10196 0.10069 0.0
H2535 H 0.70606 0.12871 0.15178 0.0
H2536 H 0.64891 0.10675 0.1311 0.0
H2537 H 0.68116 0.1067 0.1438 0.0
H2538 H 0.70291 0.12244 0.08854 0.0
H2539 H 0.67068 0.12137 0.07569 0.0
C2540 C 0.74745 0.10642 0.12301 0.0
C2541 C 0.75038 0.1126 0.14171 0.0
C2542 C 0.72943 0.1077 0.11481 0.0
C2543 C 0.71411 0.11528 0.12518 0.0
C2544 C 0.71744 0.12239 0.14357 0.0
C2545 C 0.73543 0.12098 0.15179 0.0
C2546 C 0.66064 0.11009 0.1217 0.0
C2547 C 0.65736 0.11458 0.10258 0.0
C2548 C 0.67907 0.1103 0.12899 0.0
C2549 C 0.69458 0.11496 0.11727 0.0
C2550 C 0.69128 0.11889 0.09796 0.0
C2551 C 0.67283 0.11857 0.09066 0.0
H2552 H 0.37759 0.07839 0.16674 0.0
H2553 H 0.34151 0.10114 0.12271 0.0
H2554 H 0.37412 0.04657 0.15325 0.0
H2555 H 0.33767 0.06923 0.10937 0.0
H2556 H 0.32146 0.00609 0.10346 0.0
H2557 H 0.3238 0.03738 0.11827 0.0
H2558 H 0.38467 0.0307 0.1226 0.0
H2559 H 0.38229 -0.00054 0.10739 0.0
C2560 C 0.36905 0.07655 0.15407 0.0
C2561 C 0.36032 0.09219 0.14532 0.0
C2562 C 0.36701 0.05839 0.14642 0.0
C2563 C 0.35586 0.05553 0.13013 0.0
C2564 C 0.34636 0.07107 0.12195 0.0
C2565 C 0.34855 0.08928 0.12952 0.0
C2566 C 0.33534 0.01142 0.10743 0.0
C2567 C 0.35174 0.00055 0.10419 0.0
C2568 C 0.33667 0.02926 0.11592 0.0
C2569 C 0.35441 0.03644 0.12152 0.0
C2570 C 0.3708 0.0254 0.11856 0.0
C2571 C 0.36947 0.0076 0.10989 0.0
H2572 H 0.60474 0.4038 0.12633 0.0
H2573 H 0.65809 0.40957 0.15595 0.0
H2574 H 0.60764 0.43613 0.11447 0.0
H2575 H 0.66081 0.4423 0.14471 0.0
H2576 H 0.67021 0.49099 0.10295 0.0
H2577 H 0.66695 0.45953 0.1168 0.0
H2578 H 0.60645 0.46861 0.12287 0.0
H2579 H 0.60972 0.49969 0.10771 0.0
C2580 C 0.61692 0.41219 0.13059 0.0
C2581 C 0.63109 0.40437 0.14221 0.0
C2582 C 0.61857 0.43075 0.12386 0.0
C2583 C 0.63439 0.44193 0.12872 0.0
C2584 C 0.64855 0.43404 0.14046 0.0
C2585 C 0.647 0.41535 0.14697 0.0
C2586 C 0.6562 0.48615 0.1071 0.0
C2587 C 0.64016 0.49758 0.10405 0.0
C2588 C 0.65435 0.46823 0.11531 0.0
C2589 C 0.63643 0.46145 0.12094 0.0
C2590 C 0.62043 0.47322 0.11841 0.0
C2591 C 0.62229 0.49109 0.10994 0.0
H2592 H 0.30806 0.10998 0.38402 0.0
H2593 H 0.26957 0.07286 0.41425 0.0
H2594 H 0.28144 0.13031 0.37514 0.0
H2595 H 0.24304 0.0933 0.40546 0.0
H2596 H 0.19666 0.12865 0.38058 0.0
H2597 H 0.22348 0.10663 0.37846 0.0
H2598 H 0.26163 0.1515 0.39568 0.0
H2599 H 0.23498 0.17341 0.39782 0.0
C2600 C 0.29391 0.10596 0.38851 0.0
C2601 C 0.29097 0.0899 0.40002 0.0
C2602 C 0.27868 0.11764 0.38344 0.0
C2603 C 0.26019 0.11341 0.38964 0.0
C2604 C 0.25711 0.09681 0.40029 0.0
C2605 C 0.27234 0.0852 0.40549 0.0
C2606 C 0.21085 0.13393 0.38335 0.0
C2607 C 0.21372 0.15269 0.38957 0.0
C2608 C 0.22616 0.12129 0.38228 0.0
C2609 C 0.24458 0.12731 0.38711 0.0
C2610 C 0.24761 0.14647 0.39177 0.0
C2611 C 0.23233 0.15901 0.39309 0.0
H2612 H 0.32337 0.47532 0.83429 0.0
H2613 H 0.36009 0.43821 0.86662 0.0
H2614 H 0.3433 0.5023 0.84279 0.0
H2615 H 0.37983 0.46526 0.87528 0.0
H2616 H 0.4235 0.51002 0.85061 0.0
H2617 H 0.40134 0.48377 0.85422 0.0
H2618 H 0.35663 0.5233 0.86851 0.0
H2619 H 0.37895 0.54974 0.8649 0.0
C2620 C 0.33545 0.47295 0.84354 0.0
C2621 C 0.34025 0.45452 0.84956 0.0
C2622 C 0.34677 0.48847 0.84856 0.0
C2623 C 0.36319 0.48587 0.85962 0.0
C2624 C 0.36734 0.46765 0.86662 0.0
C2625 C 0.35595 0.45215 0.8617 0.0
C2626 C 0.40908 0.51309 0.85504 0.0
C2627 C 0.40291 0.53193 0.85727 0.0
C2628 C 0.39639 0.49803 0.85721 0.0
C2629 C 0.3772 0.5015 0.86147 0.0
C2630 C 0.37132 0.52025 0.86505 0.0
C2631 C 0.38412 0.53535 0.86312 0.0
H2632 H 0.68943 0.37687 0.39568 0.0
H2633 H 0.72297 0.42813 0.39687 0.0
H2634 H 0.71739 0.35852 0.38786 0.0
H2635 H 0.75092 0.41017 0.38716 0.0
H2636 H 0.80009 0.36947 0.40064 0.0
H2637 H 0.77312 0.39079 0.39926 0.0
H2638 H 0.74086 0.34767 0.36935 0.0
H2639 H 0.76752 0.32582 0.37274 0.0
C2640 C 0.70279 0.38427 0.39368 0.0
C2641 C 0.70415 0.40382 0.39713 0.0
C2642 C 0.71892 0.37377 0.38895 0.0
C2643 C 0.73676 0.38267 0.38693 0.0
C2644 C 0.73771 0.40257 0.38914 0.0
C2645 C 0.72166 0.41296 0.39455 0.0
C2646 C 0.78733 0.36481 0.39337 0.0
C2647 C 0.78573 0.3461 0.38685 0.0
C2648 C 0.77176 0.37707 0.39248 0.0
C2649 C 0.75438 0.371 0.38454 0.0
C2650 C 0.75361 0.35274 0.37629 0.0
C2651 C 0.76898 0.34026 0.37787 0.0
H2652 H 0.63241 0.05841 0.86055 0.0
H2653 H 0.67062 0.0213 0.82997 0.0
H2654 H 0.61239 0.03126 0.86849 0.0
H2655 H 0.65054 0.99417 0.83799 0.0
H2656 H 0.61528 0.94707 0.86364 0.0
H2657 H 0.63694 0.97424 0.8656 0.0
H2658 H 0.59214 0.01127 0.846 0.0
H2659 H 0.57062 0.98424 0.84384 0.0
C2660 C 0.63677 0.04443 0.85585 0.0
C2661 C 0.65303 0.04203 0.84447 0.0
C2662 C 0.62525 0.02891 0.86036 0.0
C2663 C 0.6299 0.01066 0.85381 0.0
C2664 C 0.64672 0.00807 0.84338 0.0
C2665 C 0.65813 0.02363 0.83865 0.0
C2666 C 0.60994 0.9611 0.86024 0.0
C2667 C 0.59131 0.96354 0.85345 0.0
C2668 C 0.62236 0.97659 0.86124 0.0
C2669 C 0.61623 0.9948 0.85584 0.0
C2670 C 0.59722 -0.00258 0.85038 0.0
C2671 C 0.58492 0.98193 0.84906 0.0
H2672 H 0.19671 0.8682 0.11508 0.0
H2673 H 0.23505 0.82301 0.09913 0.0
H2674 H 0.22363 0.89011 0.11739 0.0
H2675 H 0.2618 0.84479 0.10148 0.0
H2676 H 0.27101 0.92309 0.08232 0.0
H2677 H 0.24402 0.90308 0.09075 0.0
H2678 H 0.28127 0.86599 0.12235 0.0
H2679 H 0.30831 0.88584 0.11381 0.0
C2680 C 0.21092 0.86281 0.11264 0.0
C2681 C 0.21378 0.84395 0.10675 0.0
C2682 C 0.22628 0.87539 0.11381 0.0
C2683 C 0.24476 0.8692 0.10944 0.0
C2684 C 0.24774 0.84996 0.10505 0.0
C2685 C 0.23241 0.83749 0.10362 0.0
C2686 C 0.27342 0.91084 0.09131 0.0
C2687 C 0.29187 0.90599 0.09725 0.0
C2688 C 0.25792 0.89948 0.09629 0.0
C2689 C 0.26056 0.88294 0.10717 0.0
C2690 C 0.27885 0.87859 0.11387 0.0
C2691 C 0.29432 0.89004 0.10902 0.0
H2692 H 0.13956 0.44061 0.12766 0.0
H2693 H 0.17487 0.47647 0.16286 0.0
H2694 H 0.1204 0.46799 0.11892 0.0
H2695 H 0.15542 0.50379 0.15438 0.0
H2696 H 0.12083 0.55214 0.13222 0.0
H2697 H 0.14343 0.52583 0.12927 0.0
H2698 H 0.09786 0.48582 0.13877 0.0
H2699 H 0.07545 0.5119 0.14162 0.0
C2700 C 0.14348 0.45434 0.13328 0.0
C2701 C 0.15863 0.45624 0.14617 0.0
C2702 C 0.13243 0.47005 0.1283 0.0
C2703 C 0.1363 0.48802 0.13608 0.0
C2704 C 0.15217 0.49017 0.148 0.0
C2705 C 0.16321 0.47445 0.15302 0.0
C2706 C 0.1156 0.53769 0.13308 0.0
C2707 C 0.09643 0.53404 0.13734 0.0
C2708 C 0.12855 0.52266 0.13155 0.0
C2709 C 0.12246 0.50378 0.13397 0.0
C2710 C 0.10301 0.50017 0.13669 0.0
C2711 C 0.09017 0.51513 0.13844 0.0
H2712 H 0.68624 0.61835 0.09376 0.0
H2713 H 0.71969 0.5672 0.09713 0.0
H2714 H 0.71392 0.63724 0.10141 0.0
H2715 H 0.74725 0.58571 0.10691 0.0
H2716 H 0.79769 0.62486 0.0955 0.0
H2717 H 0.77029 0.60413 0.09561 0.0
H2718 H 0.73641 0.64949 0.11995 0.0
H2719 H 0.76372 0.67067 0.11766 0.0
C2720 C 0.69953 0.61116 0.09671 0.0
C2721 C 0.701 0.59143 0.09465 0.0
C2722 C 0.71549 0.62197 0.10136 0.0
C2723 C 0.7332 0.61322 0.10476 0.0
C2724 C 0.73419 0.5932 0.10382 0.0
C2725 C 0.71837 0.58248 0.0984 0.0
C2726 C 0.78442 0.63018 0.10121 0.0
C2727 C 0.78267 0.64926 0.10653 0.0
C2728 C 0.76858 0.61826 0.1014 0.0
C2729 C 0.75072 0.62501 0.10749 0.0
C2730 C 0.74958 0.64381 0.11442 0.0
C2731 C 0.76529 0.65594 0.11348 0.0
H2732 H 0.87419 0.94683 0.14682 0.0
H2733 H 0.92009 0.98061 0.12454 0.0
H2734 H 0.85339 0.9742 0.14616 0.0
H2735 H 0.89888 0.00782 0.12175 0.0
H2736 H 0.86825 0.05798 0.14867 0.0
H2737 H 0.88685 0.03031 0.1405 0.0
H2738 H 0.83507 -0.00257 0.13478 0.0
H2739 H 0.81677 0.025 0.14495 0.0
C2740 C 0.87952 0.96002 0.14093 0.0
C2741 C 0.89866 0.96174 0.13579 0.0
C2742 C 0.86756 0.97584 0.14044 0.0
C2743 C 0.87436 0.99365 0.13426 0.0
C2744 C 0.89317 0.9947 0.12736 0.0
C2745 C 0.90532 0.97903 0.12859 0.0
C2746 C 0.8609 0.04483 0.1455 0.0
C2747 C 0.84115 0.04351 0.14766 0.0
C2748 C 0.87156 0.02886 0.14057 0.0
C2749 C 0.86267 0.01125 0.13702 0.0
C2750 C 0.84265 0.01041 0.13797 0.0
C2751 C 0.83206 0.02626 0.14362 0.0
H2752 H 0.40079 0.23445 0.17629 0.0
H2753 H 0.37718 0.19767 0.13316 0.0
H2754 H 0.39808 0.2614 0.15483 0.0
H2755 H 0.37444 0.22479 0.11163 0.0
H2756 H 0.40962 0.26868 0.07474 0.0
H2757 H 0.40106 0.24266 0.09587 0.0
H2758 H 0.3771 0.2827 0.13572 0.0
H2759 H 0.38584 0.30883 0.11467 0.0
C2760 C 0.39457 0.23222 0.16239 0.0
C2761 C 0.38945 0.2139 0.15632 0.0
C2762 C 0.39291 0.24769 0.15013 0.0
C2763 C 0.38625 0.24514 0.13149 0.0
C2764 C 0.37981 0.22709 0.12587 0.0
C2765 C 0.38127 0.21161 0.13824 0.0
C2766 C 0.40228 0.27194 0.08787 0.0
C2767 C 0.39856 0.29084 0.0931 0.0
C2768 C 0.3972 0.257 0.09989 0.0
C2769 C 0.38843 0.26067 0.11745 0.0
C2770 C 0.38393 0.27949 0.1223 0.0
C2771 C 0.38887 0.29443 0.1102 0.0
H2772 H 0.52031 0.33542 0.17042 0.0
H2773 H 0.55926 0.36276 0.13157 0.0
H2774 H 0.49382 0.34414 0.14998 0.0
H2775 H 0.53264 0.37157 0.11117 0.0
H2776 H 0.44756 0.36677 0.11367 0.0
H2777 H 0.47457 0.37032 0.13527 0.0
H2778 H 0.51235 0.35048 0.09116 0.0
H2779 H 0.48552 0.34697 0.06967 0.0
C2780 C 0.5232 0.34359 0.15771 0.0
C2781 C 0.54193 0.34814 0.1525 0.0
C2782 C 0.50798 0.34876 0.14607 0.0
C2783 C 0.51117 0.35847 0.12893 0.0
C2784 C 0.52979 0.36396 0.12424 0.0
C2785 C 0.54501 0.35894 0.13596 0.0
C2786 C 0.46171 0.36374 0.10842 0.0
C2787 C 0.46441 0.35635 0.09007 0.0
C2788 C 0.47714 0.36564 0.12083 0.0
C2789 C 0.49552 0.36046 0.11497 0.0
C2790 C 0.49838 0.35469 0.09608 0.0
C2791 C 0.48298 0.35257 0.08378 0.0
H2792 H 0.5836 0.22224 0.07218 0.0
H2793 H 0.61467 0.1857 0.11056 0.0
H2794 H 0.59171 0.24962 0.09175 0.0
H2795 H 0.62278 0.21319 0.13009 0.0
H2796 H 0.59818 0.26013 0.1717 0.0
H2797 H 0.60109 0.23298 0.15048 0.0
H2798 H 0.61815 0.27031 0.10487 0.0
H2799 H 0.6153 0.29763 0.12622 0.0
C2800 C 0.59243 0.22008 0.0846 0.0
C2801 C 0.59826 0.20174 0.08994 0.0
C2802 C 0.59722 0.23581 0.09572 0.0
C2803 C 0.60781 0.2335 0.11249 0.0
C2804 C 0.61449 0.21533 0.1173 0.0
C2805 C 0.60986 0.19961 0.10608 0.0
C2806 C 0.60301 0.26251 0.15728 0.0
C2807 C 0.60633 0.28101 0.15057 0.0
C2808 C 0.60478 0.24694 0.14514 0.0
C2809 C 0.6097 0.24956 0.12598 0.0
C2810 C 0.61419 0.26793 0.11955 0.0
C2811 C 0.61268 0.28352 0.1318 0.0
H2812 H 0.47154 0.14092 0.17819 0.0
H2813 H 0.43865 0.15103 0.12756 0.0
H2814 H 0.4985 0.13106 0.15887 0.0
H2815 H 0.46589 0.14327 0.10804 0.0
H2816 H 0.51486 0.12742 0.07335 0.0
H2817 H 0.48741 0.12455 0.09424 0.0
H2818 H 0.52225 0.14291 0.14163 0.0
H2819 H 0.54972 0.14364 0.12098 0.0
C2820 C 0.4702 0.14107 0.16285 0.0
C2821 C 0.45318 0.14679 0.15428 0.0
C2822 C 0.4857 0.13562 0.15169 0.0
C2823 C 0.48479 0.1366 0.13168 0.0
C2824 C 0.46736 0.14185 0.12327 0.0
C2825 C 0.45167 0.14655 0.13445 0.0
C2826 C 0.51659 0.13016 0.0884 0.0
C2827 C 0.53428 0.13568 0.09565 0.0
C2828 C 0.50081 0.12887 0.1004 0.0
C2829 C 0.50221 0.13401 0.11973 0.0
C2830 C 0.52033 0.13855 0.12702 0.0
C2831 C 0.53621 0.13908 0.11516 0.0
H2832 H 0.40079 0.68805 0.37684 0.0
H2833 H 0.39372 0.72188 0.42739 0.0
H2834 H 0.39266 0.7151 0.3573 0.0
H2835 H 0.3835 0.74874 0.40811 0.0
H2836 H 0.39548 0.79896 0.3686 0.0
H2837 H 0.3948 0.772 0.38987 0.0
H2838 H 0.37375 0.73666 0.34399 0.0
H2839 H 0.37662 0.76355 0.32237 0.0
C2840 C 0.39692 0.70125 0.38375 0.0
C2841 C 0.39811 0.70304 0.40352 0.0
C2842 C 0.39198 0.71684 0.37255 0.0
C2843 C 0.38744 0.73448 0.38091 0.0
C2844 C 0.38747 0.73575 0.40093 0.0
C2845 C 0.39315 0.72031 0.41208 0.0
C2846 C 0.39032 0.78547 0.36326 0.0
C2847 C 0.3862 0.7832 0.34393 0.0
C2848 C 0.38982 0.76988 0.37549 0.0
C2849 C 0.38461 0.75173 0.36877 0.0
C2850 C 0.37865 0.75007 0.34968 0.0
C2851 C 0.37992 0.76554 0.33728 0.0
H2852 H 0.97305 0.34757 0.81557 0.0
H2853 H 0.93969 0.34871 0.86695 0.0
H2854 H 0.00116 0.35687 0.8335 0.0
H2855 H 0.96781 0.35612 0.88528 0.0
H2856 H 0.01841 0.37077 0.91776 0.0
H2857 H 0.99157 0.37431 0.89616 0.0
H2858 H 0.02328 0.34431 0.85269 0.0
H2859 H 0.05044 0.34275 0.87378 0.0
C2860 C 0.97182 0.34979 0.83076 0.0
C2861 C 0.95432 0.34731 0.83994 0.0
C2862 C 0.98796 0.35495 0.84113 0.0
C2863 C 0.98711 0.357 0.86106 0.0
C2864 C 0.96927 0.35511 0.87001 0.0
C2865 C 0.95305 0.35063 0.85953 0.0
C2866 C 0.0197 0.36564 0.9033 0.0
C2867 C 0.03637 0.35661 0.89729 0.0
C2868 C 0.00423 0.36732 0.89096 0.0
C2869 C 0.00481 0.35913 0.87266 0.0
C2870 C 0.02208 0.35107 0.86644 0.0
C2871 C 0.03775 0.35006 0.87856 0.0
H2872 H 0.59688 0.80574 0.37793 0.0
H2873 H 0.59991 0.77202 0.42896 0.0
H2874 H 0.60498 0.77828 0.35901 0.0
H2875 H 0.61004 0.74464 0.41036 0.0
H2876 H 0.5979 0.69471 0.37041 0.0
H2877 H 0.59872 0.72174 0.39163 0.0
H2878 H 0.6236 0.75585 0.34676 0.0
H2879 H 0.62062 0.72899 0.3251 0.0
C2880 C 0.59988 0.79246 0.38512 0.0
C2881 C 0.59755 0.79088 0.40483 0.0
C2882 C 0.60478 0.77661 0.37427 0.0
C2883 C 0.60814 0.75885 0.38293 0.0
C2884 C 0.607 0.75774 0.40293 0.0
C2885 C 0.60138 0.77348 0.41371 0.0
C2886 C 0.60394 0.70792 0.36531 0.0
C2887 C 0.60915 0.7099 0.34621 0.0
C2888 C 0.60451 0.72355 0.37751 0.0
C2889 C 0.61086 0.74142 0.37101 0.0
C2890 C 0.61785 0.74269 0.35224 0.0
C2891 C 0.61652 0.72723 0.33984 0.0
H2892 H 0.9435 0.13203 0.87553 0.0
H2893 H 0.98225 0.14561 0.92115 0.0
H2894 H 0.97037 0.12971 0.85351 0.0
H2895 H 0.00892 0.14325 0.8993 0.0
H2896 H 0.0552 0.13092 0.85831 0.0
H2897 H 0.02779 0.1224 0.87766 0.0
H2898 H 0.99161 0.156 0.84126 0.0
H2899 H 0.01897 0.16442 0.82175 0.0
C2900 C 0.95777 0.13398 0.88096 0.0
C2901 C 0.96079 0.13918 0.9 0.0
C2902 C 0.9731 0.13278 0.86834 0.0
C2903 C 0.9917 0.13644 0.87467 0.0
C2904 C 0.99478 0.14021 0.89402 0.0
C2905 C 0.97949 0.14167 0.90653 0.0
C2906 C 0.04136 0.13619 0.85417 0.0
C2907 C 0.03932 0.14855 0.8386 0.0
C2908 C 0.02567 0.13133 0.86531 0.0
C2909 C 0.0076 0.13862 0.86103 0.0
C2910 C 0.00534 0.15003 0.8448 0.0
C2911 C 0.02106 0.15499 0.83373 0.0
H2912 H 0.07253 0.41238 0.26769 0.0
H2913 H 0.1094 0.37972 0.30435 0.0
H2914 H 0.09251 0.40435 0.24058 0.0
H2915 H 0.1291 0.37143 0.2772 0.0
H2916 H 0.17303 0.39522 0.23281 0.0
H2917 H 0.1507 0.3921 0.25894 0.0
H2918 H 0.10575 0.37922 0.21917 0.0
H2919 H 0.12826 0.38242 0.19282 0.0
C2920 C 0.08466 0.40317 0.26994 0.0
C2921 C 0.08948 0.39691 0.28829 0.0
C2922 C 0.09601 0.39842 0.25435 0.0
C2923 C 0.11245 0.38735 0.25679 0.0
C2924 C 0.11662 0.38014 0.27492 0.0
C2925 C 0.10525 0.38484 0.29049 0.0
C2926 C 0.15849 0.39126 0.22965 0.0
C2927 C 0.15235 0.38927 0.21077 0.0
C2928 C 0.1457 0.38936 0.24465 0.0
C2929 C 0.12642 0.38558 0.2411 0.0
C2930 C 0.1205 0.38233 0.22229 0.0
C2931 C 0.1334 0.38401 0.20724 0.0
H2932 H 0.17128 0.60258 0.26151 0.0
H2933 H 0.12561 0.61186 0.30145 0.0
H2934 H 0.14896 0.60521 0.23526 0.0
H2935 H 0.10311 0.61441 0.275 0.0
H2936 H 0.07287 0.5799 0.22503 0.0
H2937 H 0.09203 0.58838 0.25261 0.0
H2938 H 0.12588 0.62581 0.21775 0.0
H2939 H 0.10688 0.61731 0.19017 0.0
C2940 C 0.15653 0.60569 0.26464 0.0
C2941 C 0.15015 0.60687 0.2835 0.0
C2942 C 0.14374 0.60728 0.24959 0.0
C2943 C 0.12426 0.60986 0.2531 0.0
C2944 C 0.11804 0.61228 0.27193 0.0
C2945 C 0.13092 0.61097 0.28703 0.0
C2946 C 0.08419 0.59019 0.22328 0.0
C2947 C 0.08852 0.59766 0.20526 0.0
C2948 C 0.09506 0.59517 0.23914 0.0
C2949 C 0.11053 0.60766 0.23729 0.0
C2950 C 0.11414 0.61601 0.21954 0.0
C2951 C 0.10321 0.61112 0.20372 0.0
H2952 H 0.83443 0.67302 0.02108 0.0
H2953 H 0.86142 0.63285 0.05891 0.0
H2954 H 0.84242 0.65286 0.99406 0.0
H2955 H 0.86929 0.61268 0.0318 0.0
H2956 H 0.84366 0.57303 0.98322 0.0
H2957 H 0.84642 0.59393 0.01069 0.0
H2958 H 0.86977 0.63799 0.97497 0.0
H2959 H 0.86719 0.61697 0.94738 0.0
C2960 C 0.84234 0.66006 0.0236 0.0
C2961 C 0.84709 0.65443 0.04217 0.0
C2962 C 0.84705 0.6486 0.0081 0.0
C2963 C 0.85641 0.63119 0.01087 0.0
C2964 C 0.86198 0.62599 0.02931 0.0
C2965 C 0.8575 0.63758 0.0448 0.0
C2966 C 0.84982 0.58701 0.9813 0.0
C2967 C 0.85505 0.59342 0.96313 0.0
C2968 C 0.85149 0.59894 0.99704 0.0
C2969 C 0.85818 0.61761 0.9949 0.0
C2970 C 0.86446 0.62368 0.97695 0.0
C2971 C 0.86307 0.61162 0.96121 0.0
H2972 H 0.88386 0.88239 0.18596 0.0
H2973 H 0.92164 0.91361 0.223 0.0
H2974 H 0.86412 0.87402 0.21318 0.0
H2975 H 0.90181 0.90525 0.25016 0.0
H2976 H 0.86691 0.8804 0.29757 0.0
H2977 H 0.88865 0.87818 0.27047 0.0
H2978 H 0.84345 0.89573 0.23288 0.0
H2979 H 0.82188 0.89808 0.2598 0.0
C2980 C 0.88818 0.88716 0.19993 0.0
C2981 C 0.90422 0.89884 0.20228 0.0
C2982 C 0.87683 0.88239 0.2155 0.0
C2983 C 0.88141 0.88903 0.23374 0.0
C2984 C 0.89805 0.89977 0.23628 0.0
C2985 C 0.9093 0.9047 0.22069 0.0
C2986 C 0.86152 0.88325 0.28344 0.0
C2987 C 0.84276 0.88955 0.28078 0.0
C2988 C 0.87398 0.88211 0.26798 0.0
C2989 C 0.86776 0.8869 0.24962 0.0
C2990 C 0.84862 0.89181 0.24684 0.0
C2991 C 0.83628 0.89324 0.26227 0.0
H2992 H 0.62981 0.37539 0.44569 0.0
H2993 H 0.64618 0.42068 0.48375 0.0
H2994 H 0.627 0.35375 0.47279 0.0
H2995 H 0.64337 0.39919 0.51065 0.0
H2996 H 0.63043 0.35922 0.55755 0.0
H2997 H 0.62209 0.37868 0.53018 0.0
H2998 H 0.65308 0.34047 0.49353 0.0
H2999 H 0.66125 0.32081 0.52085 0.0
C3000 C 0.63228 0.38085 0.45986 0.0
C3001 C 0.63841 0.39966 0.46261 0.0
C3002 C 0.6308 0.36845 0.47533 0.0
C3003 C 0.63511 0.37475 0.49379 0.0
C3004 C 0.63981 0.39394 0.49662 0.0
C3005 C 0.64153 0.40623 0.48119 0.0
C3006 C 0.63509 0.35468 0.54363 0.0
C3007 C 0.64666 0.33854 0.54143 0.0
C3008 C 0.63037 0.3659 0.52796 0.0
C3009 C 0.63701 0.36115 0.50975 0.0
C3010 C 0.6476 0.34439 0.50737 0.0
C3011 C 0.65243 0.33323 0.52305 0.0
H3012 H 0.38299 0.61067 0.80754 0.0
H3013 H 0.42206 0.58331 0.76885 0.0
H3014 H 0.3624 0.61888 0.78093 0.0
H3015 H 0.40133 0.59139 0.7423 0.0
H3016 H 0.36461 0.61539 0.69616 0.0
H3017 H 0.38651 0.61786 0.72306 0.0
H3018 H 0.3425 0.59749 0.76066 0.0
H3019 H 0.32072 0.595 0.73393 0.0
C3020 C 0.3874 0.60674 0.79335 0.0
C3021 C 0.40411 0.5962 0.79035 0.0
C3022 C 0.37554 0.61138 0.77812 0.0
C3023 C 0.38022 0.60572 0.75957 0.0
C3024 C 0.39744 0.59612 0.75642 0.0
C3025 C 0.40923 0.59133 0.77167 0.0
C3026 C 0.35947 0.61196 0.71026 0.0
C3027 C 0.34101 0.60482 0.71292 0.0
C3028 C 0.37205 0.61323 0.72561 0.0
C3029 C 0.36626 0.6077 0.74391 0.0
C3030 C 0.34735 0.60197 0.74676 0.0
C3031 C 0.33489 0.60045 0.73142 0.0
H3032 H 0.85727 0.37252 0.55246 0.0
H3033 H 0.8518 0.41815 0.51182 0.0
H3034 H 0.85994 0.34965 0.5263 0.0
H3035 H 0.8546 0.39548 0.48586 0.0
H3036 H 0.86751 0.35242 0.44177 0.0
H3037 H 0.87534 0.37127 0.46968 0.0
H3038 H 0.83435 0.33968 0.50258 0.0
H3039 H 0.82645 0.32073 0.47467 0.0
C3040 C 0.85724 0.37771 0.53797 0.0
C3041 C 0.8542 0.39706 0.53412 0.0
C3042 C 0.85862 0.36463 0.52303 0.0
C3043 C 0.85736 0.37079 0.50407 0.0
C3044 C 0.85578 0.39032 0.50031 0.0
C3045 C 0.85408 0.4033 0.51518 0.0
C3046 C 0.86037 0.34922 0.45498 0.0
C3047 C 0.84609 0.33526 0.45585 0.0
C3048 C 0.86489 0.36005 0.47098 0.0
C3049 C 0.85537 0.35704 0.48825 0.0
C3050 C 0.84203 0.34223 0.48949 0.0
C3051 C 0.8374 0.33148 0.47344 0.0
H3052 H 0.14748 0.07098 0.5109 0.0
H3053 H 0.12712 0.11521 0.54829 0.0
H3054 H 0.14487 0.09247 0.48397 0.0
H3055 H 0.12448 0.1368 0.52118 0.0
H3056 H 0.15978 0.1718 0.47571 0.0
H3057 H 0.15106 0.15133 0.5022 0.0
H3058 H 0.1239 0.11238 0.46333 0.0
H3059 H 0.13271 0.13279 0.43672 0.0
C3060 C 0.142 0.08516 0.51329 0.0
C3061 C 0.13774 0.09148 0.53174 0.0
C3062 C 0.14039 0.09745 0.49783 0.0
C3063 C 0.13465 0.11637 0.50052 0.0
C3064 C 0.12912 0.12233 0.51876 0.0
C3065 C 0.13052 0.10994 0.53424 0.0
C3066 C 0.15169 0.15903 0.47281 0.0
C3067 C 0.14717 0.15381 0.45407 0.0
C3068 C 0.14653 0.14739 0.48802 0.0
C3069 C 0.13686 0.13023 0.48481 0.0
C3070 C 0.13147 0.12548 0.46619 0.0
C3071 C 0.13648 0.1372 0.45097 0.0
H3072 H 0.77657 0.57284 0.88477 0.0
H3073 H 0.80827 0.62233 0.90188 0.0
H3074 H 0.74987 0.59289 0.8757 0.0
H3075 H 0.78118 0.64235 0.89494 0.0
H3076 H 0.73205 0.67799 0.88178 0.0
H3077 H 0.75998 0.65802 0.87741 0.0
H3078 H 0.72545 0.60825 0.88867 0.0
H3079 H 0.69759 0.62823 0.89088 0.0
C3080 C 0.77773 0.58809 0.88654 0.0
C3081 C 0.79432 0.59613 0.89402 0.0
C3082 C 0.76235 0.59965 0.88159 0.0
C3083 C 0.76291 0.61942 0.8849 0.0
C3084 C 0.78 0.62737 0.89176 0.0
C3085 C 0.7956 0.61588 0.89595 0.0
C3086 C 0.73052 0.6627 0.88267 0.0
C3087 C 0.7128 0.65457 0.88663 0.0
C3088 C 0.74656 0.65119 0.88049 0.0
C3089 C 0.74537 0.63135 0.88316 0.0
C3090 C 0.72725 0.6233 0.88618 0.0
C3091 C 0.71113 0.63477 0.88758 0.0
H3092 H 0.868 0.93745 0.34452 0.0
H3093 H 0.81775 0.97131 0.35331 0.0
H3094 H 0.88782 0.96433 0.35253 0.0
H3095 H 0.83736 -0.00203 0.36345 0.0
H3096 H 0.92327 0.01283 0.36757 0.0
H3097 H 0.90181 0.98587 0.37092 0.0
H3098 H 0.85519 0.02127 0.35171 0.0
H3099 H 0.87638 0.04829 0.35057 0.0
C3100 C 0.86123 0.95061 0.34879 0.0
C3101 C 0.84144 0.95249 0.34807 0.0
C3102 C 0.8726 0.9661 0.35364 0.0
C3103 C 0.86441 0.98373 0.35855 0.0
C3104 C 0.84439 0.98501 0.35913 0.0
C3105 C 0.83306 0.96968 0.35352 0.0
C3106 C 0.90826 0.01479 0.36474 0.0
C3107 C 0.90137 0.03249 0.35885 0.0
C3108 C 0.89594 -0.00071 0.36631 0.0
C3109 C 0.87665 0.00096 0.36105 0.0
C3110 C 0.86973 0.01913 0.35616 0.0
C3111 C 0.88192 0.03475 0.35538 0.0
H3112 H 0.29795 0.86147 0.87842 0.0
H3113 H 0.26081 0.81799 0.90077 0.0
H3114 H 0.27079 0.8829 0.8752 0.0
H3115 H 0.23381 0.83934 0.89757 0.0
H3116 H 0.18646 0.87941 0.88417 0.0
H3117 H 0.21295 0.85852 0.8761 0.0
H3118 H 0.2521 0.89838 0.90145 0.0
H3119 H 0.22574 0.91931 0.90944 0.0
C3120 C 0.28393 0.8563 0.88212 0.0
C3121 C 0.28154 0.83814 0.89008 0.0
C3122 C 0.26843 0.86861 0.8804 0.0
C3123 C 0.25024 0.86285 0.88633 0.0
C3124 C 0.24763 0.84415 0.89278 0.0
C3125 C 0.26312 0.83195 0.89471 0.0
C3126 C 0.20075 0.8839 0.88771 0.0
C3127 C 0.20397 0.90093 0.89765 0.0
C3128 C 0.21589 0.8719 0.88311 0.0
C3129 C 0.23456 0.8768 0.88819 0.0
C3130 C 0.23789 0.89432 0.89716 0.0
C3131 C 0.22275 0.90623 0.90191 0.0
H3132 H 0.07329 0.48344 0.34874 0.0
H3133 H 0.1184 0.44407 0.3622 0.0
H3134 H 0.0953 0.50985 0.35186 0.0
H3135 H 0.14059 0.4707 0.36537 0.0
H3136 H 0.13628 0.55575 0.36436 0.0
H3137 H 0.11673 0.52845 0.37271 0.0
H3138 H 0.15355 0.49201 0.33984 0.0
H3139 H 0.17332 0.51923 0.33168 0.0
C3140 C 0.08783 0.48048 0.35284 0.0
C3141 C 0.09417 0.46169 0.35502 0.0
C3142 C 0.10043 0.49563 0.35475 0.0
C3143 C 0.11972 0.49233 0.3587 0.0
C3144 C 0.12582 0.47362 0.36214 0.0
C3145 C 0.11311 0.45842 0.36047 0.0
C3146 C 0.14049 0.54187 0.35925 0.0
C3147 C 0.15626 0.53973 0.34716 0.0
C3148 C 0.12923 0.52624 0.364 0.0
C3149 C 0.13353 0.50812 0.35684 0.0
C3150 C 0.14997 0.50576 0.34574 0.0
C3151 C 0.16119 0.52141 0.34091 0.0
H3152 H 0.80221 0.39014 0.61927 0.0
H3153 H 0.76751 0.42163 0.57958 0.0
H3154 H 0.77477 0.37121 0.6283 0.0
H3155 H 0.74005 0.40258 0.58866 0.0
H3156 H 0.69142 0.36918 0.61255 0.0
H3157 H 0.71739 0.39225 0.61497 0.0
H3158 H 0.75815 0.3469 0.60813 0.0
H3159 H 0.73235 0.32402 0.60558 0.0
C3160 C 0.78872 0.39328 0.61267 0.0
C3161 C 0.78722 0.40718 0.59839 0.0
C3162 C 0.77298 0.38241 0.61789 0.0
C3163 C 0.75533 0.38531 0.60908 0.0
C3164 C 0.75345 0.40011 0.59581 0.0
C3165 C 0.76925 0.41092 0.59049 0.0
C3166 C 0.70595 0.36411 0.61219 0.0
C3167 C 0.70992 0.34486 0.60873 0.0
C3168 C 0.72077 0.37732 0.61342 0.0
C3169 C 0.73975 0.37138 0.61158 0.0
C3170 C 0.74368 0.35189 0.60974 0.0
C3171 C 0.72891 0.33879 0.6082 0.0
H3172 H 0.67691 0.96794 0.64812 0.0
H3173 H 0.62561 0.93463 0.65103 0.0
H3174 H 0.65847 0.99575 0.639 0.0
H3175 H 0.60681 0.96256 0.64397 0.0
H3176 H 0.57382 0.01294 0.62785 0.0
H3177 H 0.59476 0.98544 0.62564 0.0
H3178 H 0.64009 0.0186 0.65097 0.0
H3179 H 0.6196 0.04623 0.65109 0.0
C3180 C 0.66161 0.96669 0.64688 0.0
C3181 C 0.65261 0.94928 0.65031 0.0
C3182 C 0.65094 0.98267 0.64184 0.0
C3183 C 0.63091 0.98178 0.64096 0.0
C3184 C 0.6221 0.96404 0.64402 0.0
C3185 C 0.63285 0.94794 0.6483 0.0
C3186 C 0.58849 0.01431 0.6323 0.0
C3187 C 0.59525 0.03157 0.63949 0.0
C3188 C 0.60048 -0.00151 0.63139 0.0
C3189 C 0.61921 -0.00061 0.63854 0.0
C3190 C 0.62602 0.0171 0.64499 0.0
C3191 C 0.61424 0.03305 0.64519 0.0
H3192 H 0.22324 0.07163 0.588 0.0
H3193 H 0.18438 0.11253 0.61229 0.0
H3194 H 0.24993 0.09187 0.59666 0.0
H3195 H 0.21119 0.13271 0.62108 0.0
H3196 H 0.26025 0.17212 0.59715 0.0
H3197 H 0.2328 0.15131 0.59995 0.0
H3198 H 0.26854 0.10712 0.62308 0.0
H3199 H 0.29617 0.12804 0.62026 0.0
C3200 C 0.2204 0.08477 0.59549 0.0
C3201 C 0.20166 0.09057 0.59925 0.0
C3202 C 0.23572 0.09629 0.60062 0.0
C3203 C 0.23263 0.1139 0.60949 0.0
C3204 C 0.21397 0.11925 0.61414 0.0
C3205 C 0.19863 0.10765 0.60915 0.0
C3206 C 0.26219 0.15814 0.60328 0.0
C3207 C 0.2804 0.15163 0.60826 0.0
C3208 C 0.24643 0.14624 0.60499 0.0
C3209 C 0.24857 0.12752 0.61156 0.0
C3210 C 0.26655 0.12144 0.6178 0.0
C3211 C 0.28232 0.13345 0.6163 0.0
H3212 H 0.37337 0.44519 0.64309 0.0
H3213 H 0.41941 0.47963 0.62211 0.0
H3214 H 0.35236 0.47237 0.64229 0.0
H3215 H 0.39802 0.50668 0.6192 0.0
H3216 H 0.36676 0.55602 0.64718 0.0
H3217 H 0.38566 0.52867 0.63843 0.0
H3218 H 0.33414 0.49572 0.63097 0.0
H3219 H 0.31557 0.52284 0.64174 0.0
C3220 C 0.37869 0.45848 0.63741 0.0
C3221 C 0.39793 0.46045 0.63274 0.0
C3222 C 0.36661 0.47419 0.63686 0.0
C3223 C 0.37341 0.49214 0.63107 0.0
C3224 C 0.39232 0.49344 0.62451 0.0
C3225 C 0.40457 0.47787 0.62581 0.0
C3226 C 0.35956 0.54291 0.64352 0.0
C3227 C 0.33981 0.54136 0.64539 0.0
C3228 C 0.37038 0.52716 0.63825 0.0
C3229 C 0.36163 0.50961 0.63405 0.0
C3230 C 0.34161 0.50863 0.63467 0.0
C3231 C 0.33087 0.52422 0.64067 0.0
H3232 H 0.89786 0.6961 0.6234 0.0
H3233 H 0.87309 0.72976 0.6681 0.0
H3234 H 0.8972 0.72323 0.60226 0.0
H3235 H 0.87034 0.75668 0.64649 0.0
H3236 H 0.89647 0.80723 0.61572 0.0
H3237 H 0.8888 0.77958 0.63462 0.0
H3238 H 0.88533 0.74571 0.58328 0.0
H3239 H 0.89501 0.77328 0.56476 0.0
C3240 C 0.89146 0.7092 0.62836 0.0
C3241 C 0.88556 0.71098 0.64727 0.0
C3242 C 0.89096 0.72486 0.61621 0.0
C3243 C 0.88401 0.74256 0.62257 0.0
C3244 C 0.8765 0.74366 0.64114 0.0
C3245 C 0.87772 0.72816 0.6535 0.0
C3246 C 0.89391 0.79385 0.60854 0.0
C3247 C 0.89655 0.79226 0.58887 0.0
C3248 C 0.88927 0.7779 0.61936 0.0
C3249 C 0.88651 0.76004 0.61069 0.0
C3250 C 0.88793 0.7589 0.59071 0.0
C3251 C 0.89329 0.77475 0.57999 0.0
H3252 H 0.0245 0.85333 0.67507 0.0
H3253 H 0.05728 0.84082 0.62491 0.0
H3254 H -0.00232 0.8628 0.65535 0.0
H3255 H 0.03016 0.84815 0.60507 0.0
H3256 H 0.98141 0.86351 0.56971 0.0
H3257 H 0.00895 0.86651 0.59046 0.0
H3258 H 0.97375 0.8508 0.63853 0.0
H3259 H 0.94624 0.84999 0.61795 0.0
C3260 C 0.02584 0.85257 0.65975 0.0
C3261 C 0.04279 0.84632 0.65142 0.0
C3262 C 0.01041 0.85778 0.64836 0.0
C3263 C 0.01133 0.85601 0.6284 0.0
C3264 C 0.0287 0.8502 0.62022 0.0
C3265 C 0.04431 0.84575 0.6316 0.0
C3266 C 0.97964 0.86135 0.58485 0.0
C3267 C 0.96183 0.8566 0.59233 0.0
C3268 C 0.99546 0.86272 0.59678 0.0
C3269 C 0.99397 0.85841 0.61632 0.0
C3270 C 0.97576 0.85455 0.62377 0.0
C3271 C 0.95986 0.85396 0.61194 0.0
H3272 H 0.11768 0.79723 0.62874 0.0
H3273 H 0.09838 0.75985 0.67343 0.0
H3274 H 0.12022 0.77004 0.6072 0.0
H3275 H 0.1009 0.73286 0.65203 0.0
H3276 H 0.08372 0.72445 0.57333 0.0
H3277 H 0.09329 0.75102 0.59332 0.0
H3278 H 0.12126 0.71222 0.63174 0.0
H3279 H 0.11152 0.68555 0.61189 0.0
C3280 C 0.11456 0.78316 0.63413 0.0
C3281 C 0.1076 0.78066 0.65268 0.0
C3282 C 0.11589 0.76764 0.62177 0.0
C3283 C 0.11056 0.74939 0.62788 0.0
C3284 C 0.10521 0.74672 0.64693 0.0
C3285 C 0.10367 0.76221 0.65917 0.0
C3286 C 0.09216 0.72159 0.58587 0.0
C3287 C 0.09664 0.70286 0.59113 0.0
C3288 C 0.09782 0.73684 0.59722 0.0
C3289 C 0.10798 0.73367 0.61412 0.0
C3290 C 0.11335 0.71505 0.61884 0.0
C3291 C 0.10779 0.69979 0.60743 0.0
H3292 H 0.04712 0.63092 0.61841 0.0
H3293 H 0.00825 0.64559 0.57324 0.0
H3294 H 0.02038 0.62864 0.64058 0.0
H3295 H 0.98168 0.64322 0.59526 0.0
H3296 H 0.93559 0.63052 0.63652 0.0
H3297 H 0.96283 0.62202 0.6169 0.0
H3298 H -0.00057 0.65525 0.65322 0.0
H3299 H 0.97224 0.66373 0.67297 0.0
C3300 C 0.03284 0.63309 0.6131 0.0
C3301 C 0.02976 0.63858 0.59414 0.0
C3302 C 0.01758 0.63193 0.62581 0.0
C3303 C -0.00101 0.63589 0.61967 0.0
C3304 C 0.99582 0.63995 0.60039 0.0
C3305 C 0.01105 0.64139 0.58778 0.0
C3306 C 0.94949 0.63571 0.6406 0.0
C3307 C 0.95169 0.648 0.65621 0.0
C3308 C 0.96507 0.63086 0.6293 0.0
C3309 C 0.98321 0.63806 0.63346 0.0
C3310 C 0.98564 0.64935 0.64975 0.0
C3311 C 0.97003 0.65434 0.66098 0.0
H3312 H 0.87847 0.29956 0.86783 0.0
H3313 H 0.89606 0.26123 0.82322 0.0
H3314 H 0.87503 0.27259 0.88953 0.0
H3315 H 0.8927 0.23449 0.84478 0.0
H3316 H 0.87963 0.18764 0.88434 0.0
H3317 H 0.87138 0.21485 0.86463 0.0
H3318 H 0.90028 0.25207 0.90393 0.0
H3319 H 0.90827 0.22493 0.92386 0.0
C3320 C 0.8811 0.28536 0.86252 0.0
C3321 C 0.88774 0.28251 0.84389 0.0
C3322 C 0.87926 0.26996 0.87497 0.0
C3323 C 0.88375 0.25146 0.8689 0.0
C3324 C 0.88898 0.24853 0.84986 0.0
C3325 C 0.89103 0.26389 0.83753 0.0
C3326 C 0.88382 0.20165 0.88906 0.0
C3327 C 0.89478 0.20406 0.9056 0.0
C3328 C 0.87916 0.21724 0.8777 0.0
C3329 C 0.88531 0.23557 0.88265 0.0
C3330 C 0.89519 0.23814 0.89981 0.0
C3331 C 0.89992 0.22255 0.91115 0.0
H3332 H 0.4362 0.86257 0.36013 0.0
H3333 H 0.47307 0.83186 0.32179 0.0
H3334 H 0.46348 0.87073 0.37983 0.0
H3335 H 0.5003 0.83994 0.34162 0.0
H3336 H 0.5479 0.86415 0.37655 0.0
H3337 H 0.52073 0.86657 0.35494 0.0
H3338 H 0.48322 0.84909 0.40024 0.0
H3339 H 0.5102 0.84661 0.42172 0.0
C3340 C 0.45014 0.85788 0.35567 0.0
C3341 C 0.45241 0.84641 0.33947 0.0
C3342 C 0.46575 0.86251 0.36702 0.0
C3343 C 0.48398 0.85591 0.36229 0.0
C3344 C 0.48643 0.84538 0.34551 0.0
C3345 C 0.4708 0.84061 0.33425 0.0
C3346 C 0.53378 0.86133 0.38199 0.0
C3347 C 0.53116 0.85501 0.40075 0.0
C3348 C 0.51828 0.86259 0.3696 0.0
C3349 C 0.49992 0.85789 0.37589 0.0
C3350 C 0.49718 0.85294 0.39502 0.0
C3351 C 0.51265 0.85141 0.4073 0.0
H3352 H 0.07866 0.26911 0.92232 0.0
H3353 H 0.11937 0.30305 0.89128 0.0
H3354 H 0.08726 0.24153 0.90319 0.0
H3355 H 0.12789 0.27548 0.87224 0.0
H3356 H 0.10466 0.23351 0.8248 0.0
H3357 H 0.10743 0.25926 0.84772 0.0
H3358 H 0.11339 0.21841 0.8931 0.0
H3359 H 0.11078 0.19248 0.87 0.0
C3360 C 0.08968 0.27065 0.91168 0.0
C3361 C 0.09806 0.28844 0.90811 0.0
C3362 C 0.09472 0.25479 0.90084 0.0
C3363 C 0.10815 0.25642 0.88615 0.0
C3364 C 0.11737 0.27388 0.88337 0.0
C3365 C 0.11245 0.28969 0.8943 0.0
C3366 C 0.10713 0.23003 0.83959 0.0
C3367 C 0.10738 0.21103 0.84565 0.0
C3368 C 0.10879 0.24477 0.85272 0.0
C3369 C 0.11047 0.24081 0.87221 0.0
C3370 C 0.11199 0.22181 0.87816 0.0
C3371 C 0.11065 0.20701 0.86494 0.0
H3372 H 0.55871 0.63142 0.36117 0.0
H3373 H 0.52125 0.66245 0.32366 0.0
H3374 H 0.53166 0.62289 0.38108 0.0
H3375 H 0.49427 0.65394 0.34366 0.0
H3376 H 0.48498 0.64679 0.42354 0.0
H3377 H 0.51189 0.64428 0.40195 0.0
H3378 H 0.47419 0.62685 0.35679 0.0
H3379 H 0.44712 0.62926 0.37851 0.0
C3380 C 0.54468 0.63612 0.35695 0.0
C3381 C 0.54216 0.64778 0.34092 0.0
C3382 C 0.52921 0.63126 0.3684 0.0
C3383 C 0.5109 0.63778 0.36394 0.0
C3384 C 0.50821 0.64853 0.34733 0.0
C3385 C 0.5237 0.65356 0.33598 0.0
C3386 C 0.48248 0.64192 0.40914 0.0
C3387 C 0.46394 0.63839 0.40265 0.0
C3388 C 0.49791 0.6404 0.3968 0.0
C3389 C 0.49509 0.63554 0.37765 0.0
C3390 C 0.47671 0.63077 0.37146 0.0
C3391 C 0.46126 0.63202 0.38391 0.0
H3392 H 0.61762 0.89795 0.80725 0.0
H3393 H 0.5668 0.88756 0.77473 0.0
H3394 H 0.63698 0.88906 0.78026 0.0
H3395 H 0.58594 0.87657 0.74807 0.0
H3396 H 0.62378 0.88917 0.69668 0.0
H3397 H 0.6031 0.88801 0.72408 0.0
H3398 H 0.65066 0.87009 0.75892 0.0
H3399 H 0.67157 0.87344 0.73153 0.0
C3400 C 0.61065 0.89312 0.7944 0.0
C3401 C 0.59082 0.89366 0.79287 0.0
C3402 C 0.62174 0.88777 0.77886 0.0
C3403 C 0.61322 0.8822 0.76157 0.0
C3404 C 0.5932 0.88139 0.76073 0.0
C3405 C 0.58214 0.88748 0.77606 0.0
C3406 C 0.62963 0.88456 0.71016 0.0
C3407 C 0.64919 0.88151 0.71213 0.0
C3408 C 0.61775 0.88379 0.72601 0.0
C3409 C 0.62509 0.87935 0.74413 0.0
C3410 C 0.64446 0.87436 0.74552 0.0
C3411 C 0.65647 0.87591 0.72977 0.0
H3412 H 0.61535 0.09895 0.68743 0.0
H3413 H 0.56415 0.09863 0.72106 0.0
H3414 H 0.63377 0.1074 0.71514 0.0
H3415 H 0.58214 0.10908 0.74872 0.0
H3416 H 0.62254 0.0969 0.79831 0.0
H3417 H 0.60132 0.0978 0.77129 0.0
H3418 H 0.64504 0.12592 0.73822 0.0
H3419 H 0.6668 0.12291 0.76501 0.0
C3420 C 0.60798 0.1013 0.70075 0.0
C3421 C 0.58843 0.0979 0.70223 0.0
C3422 C 0.61853 0.1064 0.71674 0.0
C3423 C 0.60967 0.10886 0.73455 0.0
C3424 C 0.58974 0.10673 0.73557 0.0
C3425 C 0.57931 0.10092 0.71968 0.0
C3426 C 0.62736 0.10367 0.78534 0.0
C3427 C 0.6462 0.10979 0.7836 0.0
C3428 C 0.61515 0.1043 0.76973 0.0
C3429 C 0.62139 0.11158 0.75212 0.0
C3430 C 0.63981 0.11947 0.75115 0.0
C3431 C 0.65225 0.11812 0.76659 0.0
H3432 H 0.36454 0.06775 0.48309 0.0
H3433 H 0.35157 0.11647 0.4484 0.0
H3434 H 0.36834 0.08826 0.51071 0.0
H3435 H 0.3532 0.13685 0.47601 0.0
H3436 H 0.35552 0.17281 0.52699 0.0
H3437 H 0.36534 0.15326 0.50017 0.0
H3438 H 0.34996 0.10281 0.53201 0.0
H3439 H 0.34225 0.12246 0.55917 0.0
C3440 C 0.36275 0.08295 0.48142 0.0
C3441 C 0.35782 0.09062 0.46374 0.0
C3442 C 0.36456 0.09475 0.4973 0.0
C3443 C 0.36053 0.11435 0.496 0.0
C3444 C 0.3567 0.12201 0.47787 0.0
C3445 C 0.35566 0.1103 0.4619 0.0
C3446 C 0.3547 0.15748 0.52821 0.0
C3447 C 0.34808 0.14906 0.54497 0.0
C3448 C 0.36011 0.1462 0.51278 0.0
C3449 C 0.35818 0.12626 0.51349 0.0
C3450 C 0.3521 0.11796 0.53071 0.0
C3451 C 0.34744 0.12923 0.54635 0.0
H3452 H 0.37065 0.40763 0.7978 0.0
H3453 H 0.32948 0.37392 0.7676 0.0
H3454 H 0.39156 0.40707 0.77047 0.0
H3455 H 0.3511 0.37153 0.74057 0.0
H3456 H 0.37861 0.39611 0.6873 0.0
H3457 H 0.3606 0.38928 0.71579 0.0
H3458 H 0.41198 0.39475 0.74932 0.0
H3459 H 0.42944 0.40341 0.72071 0.0
C3460 C 0.36651 0.39939 0.78546 0.0
C3461 C 0.3486 0.39079 0.78467 0.0
C3462 C 0.37854 0.39894 0.76972 0.0
C3463 C 0.37311 0.38944 0.75293 0.0
C3464 C 0.35564 0.37955 0.75287 0.0
C3465 C 0.34333 0.38059 0.76844 0.0
C3466 C 0.38602 0.3957 0.70079 0.0
C3467 C 0.40531 0.4005 0.7019 0.0
C3468 C 0.37573 0.39157 0.71723 0.0
C3469 C 0.38464 0.39153 0.73518 0.0
C3470 C 0.40434 0.3952 0.73598 0.0
C3471 C 0.41447 0.40001 0.71957 0.0
H3472 H 0.14782 0.92433 0.98403 0.0
H3473 H 0.12818 0.87956 0.94688 0.0
H3474 H 0.14495 0.90314 0.01117 0.0
H3475 H 0.12527 0.85828 0.9742 0.0
H3476 H 0.16064 0.824 0.02012 0.0
H3477 H 0.15179 0.84414 0.99343 0.0
H3478 H 0.12425 0.88323 0.03188 0.0
H3479 H 0.13323 0.86319 0.05869 0.0
C3480 C 0.14239 0.9101 0.98174 0.0
C3481 C 0.13847 0.90352 0.9633 0.0
C3482 C 0.14065 0.89798 -0.00269 0.0
C3483 C 0.1351 0.87899 0.99476 0.0
C3484 C 0.12978 0.87281 0.97652 0.0
C3485 C 0.13132 0.88503 0.96092 0.0
C3486 C 0.15244 0.83673 0.02288 0.0
C3487 C 0.14785 0.8421 0.04156 0.0
C3488 C 0.14721 0.84818 0.00755 0.0
C3489 C 0.13737 0.86529 0.01058 0.0
C3490 C 0.13193 0.87017 0.02915 0.0
C3491 C 0.13705 0.85865 0.04449 0.0
H3492 H 0.8695 0.11687 0.19849 0.0
H3493 H 0.8242 0.09821 0.23549 0.0
H3494 H 0.89086 0.11901 0.22588 0.0
H3495 H 0.84543 0.10039 0.26268 0.0
H3496 H 0.88525 0.11279 0.31035 0.0
H3497 H 0.86557 0.12152 0.28317 0.0
H3498 H 0.90427 0.09216 0.24569 0.0
H3499 H 0.92401 0.0835 0.27276 0.0
C3500 C 0.86397 0.11373 0.21251 0.0
C3501 C 0.84525 0.10717 0.21485 0.0
C3502 C 0.87622 0.11485 0.22814 0.0
C3503 C 0.86984 0.10973 0.24636 0.0
C3504 C 0.85072 0.10456 0.24884 0.0
C3505 C 0.83859 0.10319 0.23324 0.0
C3506 C 0.88979 0.10853 0.29628 0.0
C3507 C 0.9061 0.09728 0.29374 0.0
C3508 C 0.87848 0.1135 0.28074 0.0
C3509 C 0.88336 0.10747 0.26234 0.0
C3510 C 0.90025 0.09718 0.25968 0.0
C3511 C 0.91147 0.09207 0.27522 0.0
H3512 H 0.34925 0.87634 0.05042 0.0
H3513 H 0.3683 0.92225 0.01471 0.0
H3514 H 0.35025 0.8548 0.02366 0.0
H3515 H 0.37147 0.90038 0.98806 0.0
H3516 H 0.345 0.86685 0.93951 0.0
H3517 H 0.3528 0.88675 0.96643 0.0
H3518 H 0.36192 0.83639 0.00072 0.0
H3519 H 0.35204 0.81676 0.97399 0.0
C3520 C 0.35453 0.88156 0.03692 0.0
C3521 C 0.35862 0.90087 0.03449 0.0
C3522 C 0.3552 0.86917 0.02145 0.0
C3523 C 0.36057 0.87573 0.00328 0.0
C3524 C 0.36648 0.89481 0.00149 0.0
C3525 C 0.36504 0.90735 0.01682 0.0
C3526 C 0.34879 0.86013 0.95283 0.0
C3527 C 0.34768 0.84037 0.95484 0.0
C3528 C 0.35353 0.87153 0.96834 0.0
C3529 C 0.35795 0.86339 0.98613 0.0
C3530 C 0.35802 0.8434 0.98761 0.0
C3531 C 0.35254 0.83205 0.97225 0.0
H3532 H 0.64181 0.67828 0.96962 0.0
H3533 H 0.64958 0.62759 0.93619 0.0
H3534 H 0.63165 0.65912 0.99658 0.0
H3535 H 0.64155 0.60815 0.9634 0.0
H3536 H 0.62572 0.57353 0.01234 0.0
H3537 H 0.62292 0.59472 0.98512 0.0
H3538 H 0.64299 0.64133 0.02007 0.0
H3539 H 0.64361 0.62044 0.04734 0.0
C3540 C 0.64139 0.66296 0.96817 0.0
C3541 C 0.64652 0.65433 0.95099 0.0
C3542 C 0.63577 0.65188 0.98367 0.0
C3543 C 0.63601 0.63185 0.98259 0.0
C3544 C 0.64069 0.6234 0.96501 0.0
C3545 C 0.64555 0.63454 0.94933 0.0
C3546 C 0.62881 0.5885 0.01417 0.0
C3547 C 0.63477 0.59546 0.03182 0.0
C3548 C 0.62758 0.60066 -0.00149 0.0
C3549 C 0.63326 0.61985 -3e-05 0.0
C3550 C 0.63821 0.62687 0.01809 0.0
C3551 C 0.63866 0.61486 0.03386 0.0
H3552 H 0.22745 0.23267 0.44582 0.0
H3553 H 0.19441 0.21487 0.49437 0.0
H3554 H 0.25418 0.23993 0.46662 0.0
H3555 H 0.22123 0.22113 0.51501 0.0
H3556 H 0.27035 0.23098 0.55097 0.0
H3557 H 0.24405 0.23991 0.53028 0.0
H3558 H 0.27578 0.21961 0.48168 0.0
H3559 H 0.30223 0.21167 0.50223 0.0
C3560 C 0.22582 0.2306 0.46099 0.0
C3561 C 0.20902 0.22286 0.46847 0.0
C3562 C 0.24116 0.23466 0.4729 0.0
C3563 C 0.24008 0.23071 0.49246 0.0
C3564 C 0.22264 0.22452 0.50007 0.0
C3565 C 0.20722 0.22077 0.4882 0.0
C3566 C 0.27182 0.22891 0.53579 0.0
C3567 C 0.28815 0.22029 0.52822 0.0
C3568 C 0.25673 0.23393 0.52394 0.0
C3569 C 0.25756 0.23011 0.50434 0.0
C3570 C 0.27459 0.22294 0.49665 0.0
C3571 C 0.28978 0.21822 0.50847 0.0
H3572 H 0.48385 0.55464 0.75618 0.0
H3573 H 0.4675 0.51029 0.79537 0.0
H3574 H 0.49197 0.53065 0.73252 0.0
H3575 H 0.47476 0.48653 0.77168 0.0
H3576 H 0.48667 0.44454 0.72834 0.0
H3577 H 0.49491 0.4692 0.75126 0.0
H3578 H 0.4718 0.51177 0.71346 0.0
H3579 H 0.46441 0.48738 0.69041 0.0
C3580 C 0.48226 0.53978 0.75985 0.0
C3581 C 0.4746 0.53437 0.77746 0.0
C3582 C 0.48685 0.52603 0.74628 0.0
C3583 C 0.48369 0.50665 0.75002 0.0
C3584 C 0.47756 0.50126 0.76826 0.0
C3585 C 0.47316 0.51496 0.78184 0.0
C3586 C 0.4838 0.45923 0.72477 0.0
C3587 C 0.47447 0.46399 0.7078 0.0
C3588 C 0.48847 0.47336 0.73792 0.0
C3589 C 0.48366 0.49244 0.73441 0.0
C3590 C 0.47586 0.49729 0.71667 0.0
C3591 C 0.47141 0.48322 0.70347 0.0
H3592 H 0.73439 0.27825 0.54913 0.0
H3593 H 0.69024 0.2599 0.51058 0.0
H3594 H 0.75823 0.27073 0.52555 0.0
H3595 H 0.71431 0.2516 0.48706 0.0
H3596 H 0.7571 0.27861 0.44406 0.0
H3597 H 0.73286 0.27179 0.46746 0.0
H3598 H 0.77573 0.24992 0.50566 0.0
H3599 H 0.80023 0.25752 0.48235 0.0
C3600 C 0.72979 0.2721 0.53578 0.0
C3601 C 0.7104 0.27014 0.53152 0.0
C3602 C 0.74353 0.26758 0.52228 0.0
C3603 C 0.7382 0.26081 0.50425 0.0
C3604 C 0.71887 0.25719 0.50066 0.0
C3605 C 0.70507 0.26189 0.51415 0.0
C3606 C 0.76136 0.272 0.4573 0.0
C3607 C 0.78063 0.26908 0.46157 0.0
C3608 C 0.74738 0.26788 0.4707 0.0
C3609 C 0.75235 0.26058 0.48861 0.0
C3610 C 0.77148 0.25595 0.49216 0.0
C3611 C 0.78551 0.26025 0.47879 0.0
H3612 H 0.51204 0.01524 0.69123 0.0
H3613 H 0.52712 0.0486 0.74047 0.0
H3614 H 0.5041 0.98849 0.71176 0.0
H3615 H 0.52024 0.02179 0.76086 0.0
H3616 H 0.50976 0.97287 0.79661 0.0
H3617 H 0.50124 -0.00111 0.7754 0.0
H3618 H 0.52366 0.96706 0.72781 0.0
H3619 H 0.53111 0.94085 0.74883 0.0
C3620 C 0.51338 0.01692 0.70647 0.0
C3621 C 0.52056 0.03383 0.71425 0.0
C3622 C 0.50893 0.00158 0.71823 0.0
C3623 C 0.51193 0.00275 0.73796 0.0
C3624 C 0.51757 0.02029 0.74579 0.0
C3625 C 0.52169 0.03571 0.73406 0.0
C3626 C 0.51237 0.97132 0.78151 0.0
C3627 C 0.52143 0.95504 0.77438 0.0
C3628 C 0.50759 0.98625 0.76937 0.0
C3629 C 0.51216 0.98534 0.74993 0.0
C3630 C 0.51975 0.96832 0.74263 0.0
C3631 C 0.52419 0.95327 0.75473 0.0
H3632 H 0.22695 0.76177 0.05228 0.0
H3633 H 0.19521 0.77906 0.0027 0.0
H3634 H 0.25344 0.75229 0.03206 0.0
H3635 H 0.22184 0.77061 0.98261 0.0
H3636 H 0.27049 0.75807 0.94746 0.0
H3637 H 0.24389 0.75039 0.96828 0.0
H3638 H 0.27612 0.77082 0.01649 0.0
H3639 H 0.30284 0.77746 0.99586 0.0
C3640 C 0.22556 0.76328 0.03702 0.0
C3641 C 0.20923 0.77151 0.02905 0.0
C3642 C 0.24075 0.75793 0.02544 0.0
C3643 C 0.24002 0.76108 0.00572 0.0
C3644 C 0.22297 0.7678 -0.00232 0.0
C3645 C 0.20767 0.77282 0.00924 0.0
C3646 C 0.272 0.76039 0.96261 0.0
C3647 C 0.28853 0.76874 0.97003 0.0
C3648 C 0.25674 0.75608 0.97453 0.0
C3649 C 0.25761 0.76043 0.99402 0.0
C3650 C 0.27487 0.76714 0.00161 0.0
C3651 C 0.29023 0.7711 0.98974 0.0
H3652 H 0.00938 0.44072 0.25732 0.0
H3653 H 0.02693 0.48366 0.29756 0.0
H3654 H 0.00092 0.46553 0.23465 0.0
H3655 H 0.01937 0.50823 0.27482 0.0
H3656 H 0.02895 0.50933 0.1935 0.0
H3657 H 0.02116 0.48452 0.21589 0.0
H3658 H -0.00056 0.52656 0.25512 0.0
H3659 H 0.00812 0.55165 0.23283 0.0
C3660 C 0.01115 0.45544 0.26144 0.0
C3661 C 0.01929 0.46023 0.27901 0.0
C3662 C 0.00636 0.46966 0.24843 0.0
C3663 C 0.00984 0.48889 0.25271 0.0
C3664 C 0.01635 0.49364 0.27099 0.0
C3665 C 0.02093 0.47947 0.28402 0.0
C3666 C 0.02218 0.51331 0.20674 0.0
C3667 C 0.01967 0.53249 0.21164 0.0
C3668 C 0.01748 0.499 0.21956 0.0
C3669 C 0.00996 0.50352 0.23751 0.0
C3670 C 0.00566 0.52262 0.2416 0.0
C3671 C 0.01057 0.53699 0.22882 0.0
H3672 H 0.72604 0.73395 0.94577 0.0
H3673 H 0.69224 0.71417 0.993 0.0
H3674 H 0.75192 0.74162 0.96748 0.0
H3675 H 0.71825 0.72077 0.01451 0.0
H3676 H 0.76592 0.73174 0.05219 0.0
H3677 H 0.73981 0.73983 0.03091 0.0
H3678 H 0.77392 0.72226 0.98286 0.0
H3679 H 0.80013 0.71525 0.00399 0.0
C3680 C 0.72407 0.73149 0.96083 0.0
C3681 C 0.7073 0.72313 0.96768 0.0
C3682 C 0.73892 0.73578 0.97327 0.0
C3683 C 0.73742 0.73143 0.99273 0.0
C3684 C 0.71999 0.7245 -0.00031 0.0
C3685 C 0.70503 0.72055 0.98731 0.0
C3686 C 0.76792 0.73009 0.03702 0.0
C3687 C 0.7849 0.72253 0.02975 0.0
C3688 C 0.75294 0.73462 0.02482 0.0
C3689 C 0.75453 0.73132 0.00516 0.0
C3690 C 0.77212 0.72518 -0.00215 0.0
C3691 C 0.78718 0.72099 0.01001 0.0
H3692 H 0.96397 0.05195 0.25456 0.0
H3693 H 0.98305 0.0161 0.30053 0.0
H3694 H 0.97015 0.02667 0.2321 0.0
H3695 H 0.99043 0.99095 0.27786 0.0
H3696 H 0.96462 0.94419 0.23938 0.0
H3697 H 0.97145 0.9696 0.26153 0.0
H3698 H 0.98869 0.0057 0.21482 0.0
H3699 H 0.98065 0.98041 0.19254 0.0
C3700 C 0.97012 0.03884 0.25978 0.0
C3701 C 0.97266 0.03582 0.27931 0.0
C3702 C 0.97384 0.0243 0.24684 0.0
C3703 C 0.98051 0.00652 0.25313 0.0
C3704 C 0.98476 0.00422 0.27255 0.0
C3705 C 0.98066 0.01865 0.28554 0.0
C3706 C 0.97023 0.95742 0.23388 0.0
C3707 C 0.97171 0.96049 0.21425 0.0
C3708 C 0.97432 0.97203 0.24662 0.0
C3709 C 0.98033 0.98994 0.24001 0.0
C3710 C 0.98354 0.99232 0.22041 0.0
C3711 C 0.97906 0.97781 0.20763 0.0
H3712 H 0.49503 0.19188 0.2161 0.0
H3713 H 0.447 0.22439 0.2361 0.0
H3714 H 0.51582 0.21859 0.22233 0.0
H3715 H 0.46798 0.25099 0.24334 0.0
H3716 H 0.50224 0.29967 0.21465 0.0
H3717 H 0.48218 0.27296 0.22287 0.0
H3718 H 0.53167 0.24123 0.24083 0.0
H3719 H 0.55187 0.26783 0.23163 0.0
C3720 C 0.48903 0.20453 0.2225 0.0
C3721 C 0.46936 0.20626 0.22518 0.0
C3722 C 0.501 0.21989 0.22621 0.0
C3723 C 0.49355 0.23718 0.23298 0.0
C3724 C 0.47412 0.2381 0.2376 0.0
C3725 C 0.46211 0.22284 0.23355 0.0
C3726 C 0.50881 0.28715 0.22075 0.0
C3727 C 0.52863 0.28564 0.22207 0.0
C3728 C 0.49727 0.27181 0.22564 0.0
C3729 C 0.50531 0.25472 0.23224 0.0
C3730 C 0.52504 0.25396 0.23531 0.0
C3731 C 0.53662 0.26922 0.23012 0.0
H3732 H 0.47596 0.29549 0.01112 0.0
H3733 H 0.44311 0.2484 0.03272 0.0
H3734 H 0.50166 0.2738 0.00281 0.0
H3735 H 0.469 0.2269 0.02548 0.0
H3736 H 0.51658 0.18941 0.0138 0.0
H3737 H 0.49011 0.21036 0.006 0.0
H3738 H 0.52432 0.25894 0.02179 0.0
H3739 H 0.55085 0.23814 0.02853 0.0
C3740 C 0.47416 0.28044 0.01384 0.0
C3741 C 0.45774 0.27364 0.02289 0.0
C3742 C 0.4889 0.26802 0.00918 0.0
C3743 C 0.48766 0.24863 0.01386 0.0
C3744 C 0.47051 0.24167 0.02149 0.0
C3745 C 0.45564 0.25404 0.0258 0.0
C3746 C 0.51852 0.20463 0.0151 0.0
C3747 C 0.53562 0.21215 0.02212 0.0
C3748 C 0.50334 0.21663 0.01074 0.0
C3749 C 0.50486 0.23635 0.01366 0.0
C3750 C 0.52255 0.24389 0.01918 0.0
C3751 C 0.53781 0.23192 0.02321 0.0
H3752 H 0.55197 0.72955 0.2645 0.0
H3753 H 0.50468 0.694 0.28072 0.0
H3754 H 0.53 0.75499 0.25612 0.0
H3755 H 0.48284 0.71955 0.27353 0.0
H3756 H 0.44438 0.76616 0.2617 0.0
H3757 H 0.46687 0.74089 0.2542 0.0
H3758 H 0.51289 0.77627 0.27455 0.0
H3759 H 0.49059 0.80168 0.28084 0.0
C3760 C 0.53685 0.72713 0.26606 0.0
C3761 C 0.53001 0.70997 0.27357 0.0
C3762 C 0.52425 0.74172 0.26137 0.0
C3763 C 0.50462 0.73957 0.26452 0.0
C3764 C 0.49779 0.7218 0.27069 0.0
C3765 C 0.51035 0.70711 0.27499 0.0
C3766 C 0.45939 0.76862 0.26406 0.0
C3767 C 0.46575 0.78569 0.27216 0.0
C3768 C 0.47228 0.75412 0.25989 0.0
C3769 C 0.49169 0.75628 0.26418 0.0
C3770 C 0.49813 0.77401 0.27086 0.0
C3771 C 0.48529 0.78862 0.27463 0.0
H3772 H 0.00782 0.30006 0.96386 0.0
H3773 H 0.04974 0.26114 0.98617 0.0
H3774 H 0.9829 0.27753 0.97108 0.0
H3775 H 0.02454 0.23873 0.99421 0.0
H3776 H 0.98181 0.19554 0.96773 0.0
H3777 H 0.00638 0.21859 0.97445 0.0
H3778 H 0.96365 0.25927 0.99165 0.0
H3779 H 0.93885 0.23626 0.98407 0.0
C3780 C 0.01167 0.28687 0.9708 0.0
C3781 C 0.0308 0.28217 0.97399 0.0
C3782 C -0.0027 0.27397 0.97515 0.0
C3783 C 0.0017 0.25613 0.98299 0.0
C3784 C 0.02071 0.25216 0.98777 0.0
C3785 C 0.03514 0.26502 0.98323 0.0
C3786 C 0.97762 0.20926 0.97329 0.0
C3787 C 0.95836 0.21426 0.97488 0.0
C3788 C 0.99178 0.22249 0.97735 0.0
C3789 C 0.98702 0.24096 0.98329 0.0
C3790 C 0.96779 0.24532 0.98664 0.0
C3791 C 0.95358 0.23211 0.98239 0.0
H3792 H 0.21955 0.44611 0.23386 0.0
H3793 H 0.23793 0.48643 0.19135 0.0
H3794 H 0.22667 0.46879 0.25863 0.0
H3795 H 0.24595 0.50904 0.21638 0.0
H3796 H 0.21746 0.55021 0.25981 0.0
H3797 H 0.22545 0.52779 0.23507 0.0
H3798 H 0.24631 0.4884 0.27736 0.0
H3799 H 0.23744 0.51072 0.30237 0.0
C3800 C 0.22565 0.45966 0.22982 0.0
C3801 C 0.22765 0.4647 0.21062 0.0
C3802 C 0.22996 0.47265 0.24411 0.0
C3803 C 0.23658 0.49093 0.23952 0.0
C3804 C 0.24042 0.49525 0.22037 0.0
C3805 C 0.23589 0.48228 0.20603 0.0
C3806 C 0.22408 0.53692 0.26387 0.0
C3807 C 0.22631 0.532 0.28307 0.0
C3808 C 0.22889 0.52408 0.2496 0.0
C3809 C 0.23625 0.50609 0.2542 0.0
C3810 C 0.24024 0.50195 0.27336 0.0
C3811 C 0.23521 0.51475 0.28768 0.0
H3812 H 0.73893 0.53 0.04723 0.0
H3813 H 0.69044 0.51525 0.01264 0.0
H3814 H 0.75986 0.52413 0.02056 0.0
H3815 H 0.71151 0.50832 0.98602 0.0
H3816 H 0.79649 0.51421 0.97172 0.0
H3817 H 0.77497 0.50567 -0.0025 0.0
H3818 H 0.72781 0.52844 0.96531 0.0
H3819 H 0.74911 0.53596 0.93936 0.0
C3820 C 0.7328 0.52486 0.03408 0.0
C3821 C 0.71304 0.5235 0.03187 0.0
C3822 C 0.74485 0.52134 0.01874 0.0
C3823 C 0.73739 0.51607 0.00093 0.0
C3824 C 0.71771 0.51289 -0.00066 0.0
C3825 C 0.70564 0.51675 0.01461 0.0
C3826 C 0.78143 0.51693 0.97004 0.0
C3827 C 0.7745 0.52607 0.95371 0.0
C3828 C 0.76911 0.51214 0.98484 0.0
C3829 C 0.74967 0.51672 0.98373 0.0
C3830 C 0.74261 0.5245 0.96671 0.0
C3831 C 0.75488 0.52898 0.95181 0.0
H3832 H 0.77877 0.05235 0.23437 0.0
H3833 H 0.75902 0.01195 0.19256 0.0
H3834 H 0.77163 0.03006 0.25948 0.0
H3835 H 0.7509 0.98978 0.21794 0.0
H3836 H 0.76048 0.98859 0.30385 0.0
H3837 H 0.7522 0.01111 0.27883 0.0
H3838 H 0.77082 0.97062 0.23651 0.0
H3839 H 0.77815 0.94803 0.26126 0.0
C3840 C 0.77235 0.03889 0.23056 0.0
C3841 C 0.76997 0.03369 0.21144 0.0
C3842 C 0.76804 0.02611 0.24505 0.0
C3843 C 0.76101 0.00791 0.24077 0.0
C3844 C 0.75679 0.00348 0.22171 0.0
C3845 C 0.76136 0.01621 0.20717 0.0
C3846 C 0.76235 0.98439 0.28916 0.0
C3847 C 0.77039 0.96672 0.28454 0.0
C3848 C 0.75768 -0.00269 0.27482 0.0
C3849 C 0.76117 0.99288 0.25562 0.0
C3850 C 0.76774 0.97458 0.25105 0.0
C3851 C 0.77219 0.96162 0.26533 0.0
H3852 H 0.73506 0.48484 0.44001 0.0
H3853 H 0.69467 0.46755 0.48291 0.0
H3854 H 0.75778 0.49314 0.46485 0.0
H3855 H 0.71745 0.47496 0.50751 0.0
H3856 H 0.75963 0.48634 0.55096 0.0
H3857 H 0.73729 0.49482 0.52584 0.0
H3858 H 0.7764 0.47278 0.48388 0.0
H3859 H 0.79885 0.46516 0.50871 0.0
C3860 C 0.73091 0.48311 0.45473 0.0
C3861 C 0.71328 0.47508 0.4595 0.0
C3862 C 0.74395 0.48779 0.46897 0.0
C3863 C 0.73964 0.48433 0.48819 0.0
C3864 C 0.72131 0.47795 0.49293 0.0
C3865 C 0.70825 0.47348 0.47874 0.0
C3866 C 0.76361 0.48377 0.53631 0.0
C3867 C 0.78078 0.47465 0.53184 0.0
C3868 C 0.75078 0.48857 0.52192 0.0
C3869 C 0.75484 0.48415 0.50284 0.0
C3870 C 0.77276 0.47656 0.49834 0.0
C3871 C 0.78562 0.47195 0.51267 0.0
H3872 H 0.25962 0.54852 0.72478 0.0
H3873 H 0.2788 0.5006 0.69163 0.0
H3874 H 0.25225 0.52736 0.7512 0.0
H3875 H 0.27255 0.47963 0.71816 0.0
H3876 H 0.26372 0.44316 0.76698 0.0
H3877 H 0.25436 0.46366 0.74068 0.0
H3878 H 0.27237 0.51277 0.77302 0.0
H3879 H 0.28061 0.49237 0.79947 0.0
C3880 C 0.26197 0.5334 0.72307 0.0
C3881 C 0.27013 0.52621 0.70635 0.0
C3882 C 0.25786 0.52129 0.73822 0.0
C3883 C 0.26225 0.50182 0.73707 0.0
C3884 C 0.26882 0.49447 0.71965 0.0
C3885 C 0.27256 0.50654 0.70439 0.0
C3886 C 0.26519 0.4584 0.76856 0.0
C3887 C 0.27322 0.46619 0.78507 0.0
C3888 C 0.25992 0.47015 0.75348 0.0
C3889 C 0.26298 0.48987 0.75448 0.0
C3890 C 0.2696 0.49771 0.77168 0.0
C3891 C 0.2745 0.48598 0.78687 0.0
H3892 H 0.24191 0.0288 0.5536 0.0
H3893 H 0.19378 0.01029 0.52033 0.0
H3894 H 0.26296 0.02146 0.52741 0.0
H3895 H 0.215 0.00191 0.49425 0.0
H3896 H 0.25157 0.02852 0.446 0.0
H3897 H 0.23054 0.02129 0.47225 0.0
H3898 H 0.27854 0.00205 0.50549 0.0
H3899 H 0.29974 0.01033 0.47937 0.0
C3900 C 0.23591 0.02252 0.54089 0.0
C3901 C 0.21619 0.02055 0.5388 0.0
C3902 C 0.24802 0.01814 0.52584 0.0
C3903 C 0.24067 0.01141 0.50848 0.0
C3904 C 0.22109 0.00758 0.50719 0.0
C3905 C 0.20894 0.01229 0.52215 0.0
C3906 C 0.25758 0.02234 0.45875 0.0
C3907 C 0.2773 0.02042 0.46085 0.0
C3908 C 0.24548 0.01802 0.47383 0.0
C3909 C 0.25285 0.0114 0.49122 0.0
C3910 C 0.27244 0.00764 0.49253 0.0
C3911 C 0.28458 0.0123 0.47755 0.0
H3912 H 0.04665 0.76168 0.71645 0.0
H3913 H 0.0067 0.8054 0.73264 0.0
H3914 H 0.02332 0.73754 0.72364 0.0
H3915 H 0.98341 0.78103 0.74073 0.0
H3916 H 0.98058 0.69484 0.73582 0.0
H3917 H 0.00325 0.71985 0.74368 0.0
H3918 H 0.96457 0.76178 0.72084 0.0
H3919 H 0.94177 0.73704 0.71388 0.0
C3920 C 0.03303 0.76613 0.72207 0.0
C3921 C 0.02833 0.78547 0.72349 0.0
C3922 C 0.01965 0.75221 0.72642 0.0
C3923 C 0.00131 0.7573 0.7325 0.0
C3924 C -0.00276 0.77663 0.73563 0.0
C3925 C 0.01061 0.7906 0.73107 0.0
C3926 C 0.97678 0.70946 0.73292 0.0
C3927 C 0.9596 0.71393 0.72382 0.0
C3928 C 0.98979 0.72379 0.73736 0.0
C3929 C 0.98594 0.74282 0.73254 0.0
C3930 C 0.96804 0.74736 0.72492 0.0
C3931 C 0.95498 0.73309 0.72071 0.0
H3932 H 0.05014 0.74261 0.53036 0.0
H3933 H 0.01656 0.69479 0.51168 0.0
H3934 H 0.02427 0.76393 0.52263 0.0
H3935 H 0.99086 0.71625 0.5028 0.0
H3936 H 0.94235 0.75345 0.52753 0.0
H3937 H 0.96857 0.73216 0.52119 0.0
H3938 H 0.00295 0.77978 0.503 0.0
H3939 H 0.97681 0.80126 0.51047 0.0
C3940 C 0.03743 0.73674 0.52396 0.0
C3941 C 0.03516 0.71704 0.52202 0.0
C3942 C 0.02257 0.749 0.51935 0.0
C3943 C 0.00523 0.74183 0.51239 0.0
C3944 C 0.00377 0.72224 0.50866 0.0
C3945 C 0.01851 0.70994 0.51364 0.0
C3946 C 0.95535 0.75934 0.52177 0.0
C3947 C 0.95771 0.77903 0.51992 0.0
C3948 C 0.97044 0.74707 0.51796 0.0
C3949 C 0.98811 0.75424 0.51191 0.0
C3950 C 0.98976 0.77381 0.50819 0.0
C3951 C 0.97476 0.78612 0.51235 0.0
H3952 H 0.01061 0.1941 0.75827 0.0
H3953 H 0.04944 0.23681 0.77923 0.0
H3954 H 0.98803 0.21895 0.74965 0.0
H3955 H 0.02676 0.26139 0.77147 0.0
H3956 H 0.98507 0.30479 0.75911 0.0
H3957 H 0.00799 0.2801 0.75095 0.0
H3958 H 0.96804 0.23721 0.76941 0.0
H3959 H 0.94505 0.26166 0.7767 0.0
C3960 C 0.01444 0.20879 0.76078 0.0
C3961 C 0.03158 0.21347 0.76985 0.0
C3962 C 0.00149 0.22303 0.75589 0.0
C3963 C 0.00538 0.24216 0.7602 0.0
C3964 C 0.02326 0.24687 0.76778 0.0
C3965 C 0.03624 0.2327 0.77245 0.0
C3966 C 0.98105 0.29005 0.76094 0.0
C3967 C 0.96346 0.28518 0.76901 0.0
C3968 C 0.9942 0.2759 0.75633 0.0
C3969 C 0.99005 0.25667 0.75992 0.0
C3970 C 0.97177 0.25181 0.76633 0.0
C3971 C 0.95859 0.2659 0.77073 0.0
H3972 H 0.44121 0.73697 0.48589 0.0
H3973 H 0.48364 0.69622 0.46829 0.0
H3974 H 0.46633 0.75926 0.49453 0.0
H3975 H 0.50849 0.71857 0.47596 0.0
H3976 H 0.55261 0.75968 0.48733 0.0
H3977 H 0.52716 0.73772 0.4958 0.0
H3978 H 0.48572 0.77807 0.47502 0.0
H3979 H 0.5109 0.80015 0.46754 0.0
C3980 C 0.45588 0.73267 0.48413 0.0
C3981 C 0.46044 0.71505 0.47596 0.0
C3982 C 0.47028 0.74545 0.48901 0.0
C3983 C 0.48947 0.74092 0.48558 0.0
C3984 C 0.49396 0.72261 0.47897 0.0
C3985 C 0.47962 0.7098 0.47433 0.0
C3986 C 0.53801 0.764 0.48505 0.0
C3987 C 0.53378 0.78142 0.47631 0.0
C3988 C 0.52342 0.7514 0.48983 0.0
C3989 C 0.50437 0.75589 0.48569 0.0
C3990 C 0.50014 0.77407 0.47856 0.0
C3991 C 0.51467 0.78672 0.47404 0.0
H3992 H 0.71382 0.94304 0.73594 0.0
H3993 H 0.73206 0.98118 0.6914 0.0
H3994 H 0.72007 0.96735 0.75944 0.0
H3995 H 0.7391 0.00543 0.71514 0.0
H3996 H 0.73228 0.012 0.80074 0.0
H3997 H 0.74007 0.98806 0.77692 0.0
H3998 H 0.71823 0.02499 0.73294 0.0
H3999 H 0.71121 0.04902 0.75652 0.0
C4000 C 0.71968 0.95646 0.7312 0.0
C4001 C 0.72199 0.96036 0.71177 0.0
C4002 C 0.72346 0.9704 0.74475 0.0
C4003 C 0.72982 0.98851 0.73918 0.0
C4004 C 0.73379 0.99179 0.71986 0.0
C4005 C 0.72983 0.97787 0.70627 0.0
C4006 C 0.72956 0.01513 0.78592 0.0
C4007 C 0.72077 0.03222 0.78055 0.0
C4008 C 0.73396 0.0014 0.77228 0.0
C4009 C 0.72949 0.00443 0.75303 0.0
C4010 C 0.72205 0.02215 0.74757 0.0
C4011 C 0.71783 0.03592 0.76116 0.0
H4012 H 0.25395 0.96598 0.04856 0.0
H4013 H 0.30263 0.98225 0.01494 0.0
H4014 H 0.23317 0.973 0.02205 0.0
H4015 H 0.28172 0.99034 0.98853 0.0
H4016 H 0.24446 0.96371 0.94083 0.0
H4017 H 0.26567 0.971 0.96692 0.0
H4018 H 0.21818 0.9923 -0.00034 0.0
H4019 H 0.19678 0.98393 0.97373 0.0
C4020 C 0.26014 0.97169 0.03568 0.0
C4021 C 0.2799 0.97315 0.03362 0.0
C4022 C 0.24819 0.97589 0.02044 0.0
C4023 C 0.25577 0.98195 0.00293 0.0
C4024 C 0.27544 0.9852 0.0016 0.0
C4025 C 0.28742 0.98065 0.01674 0.0
C4026 C 0.23862 0.97037 0.95342 0.0
C4027 C 0.21896 0.97284 0.95547 0.0
C4028 C 0.25082 0.97471 0.96841 0.0
C4029 C 0.24362 0.98191 0.98564 0.0
C4030 C 0.22414 0.98624 0.98684 0.0
C4031 C 0.21189 0.98156 0.97196 0.0
loop_
_geom_bond_atom_site_label_1
_geom_bond_atom_site_label_2
_geom_bond_distance
_geom_bond_site_symmetry_2
_ccdc_geom_bond_type
Co0 O3 1.970 . S
Co0 N17 1.989 . S
Co0 O25 1.967 . S
Co0 O32 1.920 . S
Co1 O4 1.966 . S
Co1 N10 2.022 . S
Co1 N18 1.993 . S
Co1 O26 1.941 . S
C2 O3 1.258 . S
C2 O4 1.263 . S
O3 Co0 1.970 . S
O3 C2 1.258 . S
O4 Co1 1.966 . S
O4 C2 1.263 . S
C5 O6 1.235 . S
C5 O32 1.289 . S
O6 C5 1.235 . S
C7 C9 1.400 . S
C7 N10 1.351 . S
C7 C12 1.501 . S
C8 C9 1.387 . S
C8 N11 1.341 . S
C9 C7 1.400 . S
C9 C8 1.387 . S
N10 Co1 2.022 . S
N10 C7 1.351 . S
N10 N11 1.365 . S
N11 C8 1.341 . S
N11 N10 1.365 . S
N11 H31 0.862 . S
C12 C7 1.501 . S
C12 H13 0.961 . S
C12 H14 0.961 . S
C12 H15 0.960 . S
H13 C12 0.961 . S
H14 C12 0.961 . S
H15 C12 0.960 . S
C16 N17 1.342 . S
C16 C20 1.401 . S
C16 C21 1.499 . S
N17 Co0 1.989 . S
N17 C16 1.342 . S
N17 N18 1.388 . S
N18 Co1 1.993 . S
N18 N17 1.388 . S
N18 C19 1.346 . S
C19 N18 1.346 . S
C19 C20 1.396 . S
C19 C29 1.510 . S
C20 C16 1.401 . S
C20 C19 1.396 . S
C21 C16 1.499 . S
C21 H22 0.959 . S
C21 H23 0.960 . S
C21 H24 0.961 . S
H22 C21 0.959 . S
H23 C21 0.960 . S
H24 C21 0.961 . S
O25 Co0 1.967 . S
O25 C33 1.258 . S
O26 Co1 1.941 . S
O26 C33 1.266 . S
H27 C29 0.959 . S
H28 C29 0.961 . S
C29 C19 1.510 . S
C29 H27 0.959 . S
C29 H28 0.961 . S
C29 H30 0.960 . S
H30 C29 0.960 . S
H31 N11 0.862 . S
O32 Co0 1.920 . S
O32 C5 1.289 . S
C33 O25 1.258 . S
C33 O26 1.266 . S
Co34 O37 1.970 . S
Co34 N51 1.989 . S
Co34 O59 1.967 . S
Co34 O66 1.920 . S
Co35 O38 1.966 . S
Co35 N44 2.022 . S
Co35 N52 1.993 . S
Co35 O60 1.941 . S
C36 O37 1.258 . S
C36 O38 1.263 . S
O37 Co34 1.970 . S
O37 C36 1.258 . S
O38 Co35 1.966 . S
O38 C36 1.263 . S
C39 O40 1.235 . S
C39 O66 1.289 . S
O40 C39 1.235 . S
C41 C43 1.400 . S
C41 N44 1.351 . S
C41 C46 1.501 . S
C42 C43 1.387 . S
C42 N45 1.341 . S
C43 C41 1.400 . S
C43 C42 1.387 . S
N44 Co35 2.022 . S
N44 C41 1.351 . S
N44 N45 1.365 . S
N45 C42 1.341 . S
N45 N44 1.365 . S
N45 H65 0.862 . S
C46 C41 1.501 . S
C46 H47 0.961 . S
C46 H48 0.961 . S
C46 H49 0.960 . S
H47 C46 0.961 . S
H48 C46 0.961 . S
H49 C46 0.960 . S
C50 N51 1.342 . S
C50 C54 1.401 . S
C50 C55 1.499 . S
N51 Co34 1.989 . S
N51 C50 1.342 . S
N51 N52 1.388 . S
N52 Co35 1.993 . S
N52 N51 1.388 . S
N52 C53 1.346 . S
C53 N52 1.346 . S
C53 C54 1.396 . S
C53 C63 1.510 . S
C54 C50 1.401 . S
C54 C53 1.396 . S
C55 C50 1.499 . S
C55 H56 0.959 . S
C55 H57 0.960 . S
C55 H58 0.961 . S
H56 C55 0.959 . S
H57 C55 0.960 . S
H58 C55 0.961 . S
O59 Co34 1.967 . S
O59 C67 1.258 . S
O60 Co35 1.941 . S
O60 C67 1.266 . S
H61 C63 0.959 . S
H62 C63 0.961 . S
C63 C53 1.510 . S
C63 H61 0.959 . S
C63 H62 0.961 . S
C63 H64 0.960 . S
H64 C63 0.960 . S
H65 N45 0.862 . S
O66 Co34 1.920 . S
O66 C39 1.289 . S
C67 O59 1.258 . S
C67 O60 1.266 . S
Co68 O71 1.970 . S
Co68 N85 1.989 . S
Co68 O93 1.967 . S
Co68 O100 1.920 . S
Co69 O72 1.966 . S
Co69 N78 2.022 . S
Co69 N86 1.993 . S
Co69 O94 1.941 . S
C70 O71 1.258 . S
C70 O72 1.263 . S
O71 Co68 1.970 . S
O71 C70 1.258 . S
O72 Co69 1.966 . S
O72 C70 1.263 . S
C73 O74 1.235 . S
C73 O100 1.289 . S
O74 C73 1.235 . S
C75 C77 1.400 . S
C75 N78 1.351 . S
C75 C80 1.501 . S
C76 C77 1.387 . S
C76 N79 1.341 . S
C77 C75 1.400 . S
C77 C76 1.387 . S
N78 Co69 2.022 . S
N78 C75 1.351 . S
N78 N79 1.365 . S
N79 C76 1.341 . S
N79 N78 1.365 . S
N79 H99 0.862 . S
C80 C75 1.501 . S
C80 H81 0.961 . S
C80 H82 0.961 . S
C80 H83 0.960 . S
H81 C80 0.961 . S
H82 C80 0.961 . S
H83 C80 0.960 . S
C84 N85 1.342 . S
C84 C88 1.401 . S
C84 C89 1.499 . S
N85 Co68 1.989 . S
N85 C84 1.342 . S
N85 N86 1.388 . S
N86 Co69 1.993 . S
N86 N85 1.388 . S
N86 C87 1.346 . S
C87 N86 1.346 . S
C87 C88 1.396 . S
C87 C97 1.510 . S
C88 C84 1.401 . S
C88 C87 1.396 . S
C89 C84 1.499 . S
C89 H90 0.959 . S
C89 H91 0.960 . S
C89 H92 0.961 . S
H90 C89 0.959 . S
H91 C89 0.960 . S
H92 C89 0.961 . S
O93 Co68 1.967 . S
O93 C101 1.258 . S
O94 Co69 1.941 . S
O94 C101 1.266 . S
H95 C97 0.959 . S
H96 C97 0.961 . S
C97 C87 1.510 . S
C97 H95 0.959 . S
C97 H96 0.961 . S
C97 H98 0.960 . S
H98 C97 0.960 . S
H99 N79 0.862 . S
O100 Co68 1.920 . S
O100 C73 1.289 . S
C101 O93 1.258 . S
C101 O94 1.266 . S
Co102 O105 1.970 . S
Co102 N119 1.989 . S
Co102 O127 1.967 . S
Co102 O134 1.920 . S
Co103 O106 1.966 . S
Co103 N112 2.022 . S
Co103 N120 1.993 . S
Co103 O128 1.941 . S
C104 O105 1.258 . S
C104 O106 1.263 . S
O105 Co102 1.970 . S
O105 C104 1.258 . S
O106 Co103 1.966 . S
O106 C104 1.263 . S
C107 O108 1.235 . S
C107 O134 1.289 . S
O108 C107 1.235 . S
C109 C111 1.400 . S
C109 N112 1.351 . S
C109 C114 1.501 . S
C110 C111 1.387 . S
C110 N113 1.341 . S
C111 C109 1.400 . S
C111 C110 1.387 . S
N112 Co103 2.022 . S
N112 C109 1.351 . S
N112 N113 1.365 . S
N113 C110 1.341 . S
N113 N112 1.365 . S
N113 H133 0.862 . S
C114 C109 1.501 . S
C114 H115 0.961 . S
C114 H116 0.961 . S
C114 H117 0.960 . S
H115 C114 0.961 . S
H116 C114 0.961 . S
H117 C114 0.960 . S
C118 N119 1.342 . S
C118 C122 1.401 . S
C118 C123 1.499 . S
N119 Co102 1.989 . S
N119 C118 1.342 . S
N119 N120 1.388 . S
N120 Co103 1.993 . S
N120 N119 1.388 . S
N120 C121 1.346 . S
C121 N120 1.346 . S
C121 C122 1.396 . S
C121 C131 1.510 . S
C122 C118 1.401 . S
C122 C121 1.396 . S
C123 C118 1.499 . S
C123 H124 0.959 . S
C123 H125 0.960 . S
C123 H126 0.961 . S
H124 C123 0.959 . S
H125 C123 0.960 . S
H126 C123 0.961 . S
O127 Co102 1.967 . S
O127 C135 1.258 . S
O128 Co103 1.941 . S
O128 C135 1.266 . S
H129 C131 0.959 . S
H130 C131 0.961 . S
C131 C121 1.510 . S
C131 H129 0.959 . S
C131 H130 0.961 . S
C131 H132 0.960 . S
H132 C131 0.960 . S
H133 N113 0.862 . S
O134 Co102 1.920 . S
O134 C107 1.289 . S
C135 O127 1.258 . S
C135 O128 1.266 . S
Co136 O139 1.970 . S
Co136 N153 1.989 . S
Co136 O161 1.967 . S
Co136 O168 1.920 . S
Co137 O140 1.966 . S
Co137 N146 2.022 . S
Co137 N154 1.993 . S
Co137 O162 1.941 . S
C138 O139 1.258 . S
C138 O140 1.263 . S
O139 Co136 1.970 . S
O139 C138 1.258 . S
O140 Co137 1.966 . S
O140 C138 1.263 . S
C141 O142 1.235 . S
C141 O168 1.289 . S
O142 C141 1.235 . S
C143 C145 1.400 . S
C143 N146 1.351 . S
C143 C148 1.501 . S
C144 C145 1.387 . S
C144 N147 1.341 . S
C145 C143 1.400 . S
C145 C144 1.387 . S
N146 Co137 2.022 . S
N146 C143 1.351 . S
N146 N147 1.365 . S
N147 C144 1.341 . S
N147 N146 1.365 . S
N147 H167 0.862 . S
C148 C143 1.501 . S
C148 H149 0.961 . S
C148 H150 0.961 . S
C148 H151 0.960 . S
H149 C148 0.961 . S
H150 C148 0.961 . S
H151 C148 0.960 . S
C152 N153 1.342 . S
C152 C156 1.401 . S
C152 C157 1.499 . S
N153 Co136 1.989 . S
N153 C152 1.342 . S
N153 N154 1.388 . S
N154 Co137 1.993 . S
N154 N153 1.388 . S
N154 C155 1.346 . S
C155 N154 1.346 . S
C155 C156 1.396 . S
C155 C165 1.510 . S
C156 C152 1.401 . S
C156 C155 1.396 . S
C157 C152 1.499 . S
C157 H158 0.959 . S
C157 H159 0.960 . S
C157 H160 0.961 . S
H158 C157 0.959 . S
H159 C157 0.960 . S
H160 C157 0.961 . S
O161 Co136 1.967 . S
O161 C169 1.258 . S
O162 Co137 1.941 . S
O162 C169 1.266 . S
H163 C165 0.959 . S
H164 C165 0.961 . S
C165 C155 1.510 . S
C165 H163 0.959 . S
C165 H164 0.961 . S
C165 H166 0.960 . S
H166 C165 0.960 . S
H167 N147 0.862 . S
O168 Co136 1.920 . S
O168 C141 1.289 . S
C169 O161 1.258 . S
C169 O162 1.266 . S
Co170 O173 1.970 . S
Co170 N187 1.989 . S
Co170 O195 1.967 . S
Co170 O202 1.920 . S
Co171 O174 1.966 . S
Co171 N180 2.022 . S
Co171 N188 1.993 . S
Co171 O196 1.941 . S
C172 O173 1.258 . S
C172 O174 1.263 . S
O173 Co170 1.970 . S
O173 C172 1.258 . S
O174 Co171 1.966 . S
O174 C172 1.263 . S
C175 O176 1.235 . S
C175 O202 1.289 . S
O176 C175 1.235 . S
C177 C179 1.400 . S
C177 N180 1.351 . S
C177 C182 1.501 . S
C178 C179 1.387 . S
C178 N181 1.341 . S
C179 C177 1.400 . S
C179 C178 1.387 . S
N180 Co171 2.022 . S
N180 C177 1.351 . S
N180 N181 1.365 . S
N181 C178 1.341 . S
N181 N180 1.365 . S
N181 H201 0.862 . S
C182 C177 1.501 . S
C182 H183 0.961 . S
C182 H184 0.961 . S
C182 H185 0.960 . S
H183 C182 0.961 . S
H184 C182 0.961 . S
H185 C182 0.960 . S
C186 N187 1.342 . S
C186 C190 1.401 . S
C186 C191 1.499 . S
N187 Co170 1.989 . S
N187 C186 1.342 . S
N187 N188 1.388 . S
N188 Co171 1.993 . S
N188 N187 1.388 . S
N188 C189 1.346 . S
C189 N188 1.346 . S
C189 C190 1.396 . S
C189 C199 1.510 . S
C190 C186 1.401 . S
C190 C189 1.396 . S
C191 C186 1.499 . S
C191 H192 0.959 . S
C191 H193 0.960 . S
C191 H194 0.961 . S
H192 C191 0.959 . S
H193 C191 0.960 . S
H194 C191 0.961 . S
O195 Co170 1.967 . S
O195 C203 1.258 . S
O196 Co171 1.941 . S
O196 C203 1.266 . S
H197 C199 0.959 . S
H198 C199 0.961 . S
C199 C189 1.510 . S
C199 H197 0.959 . S
C199 H198 0.961 . S
C199 H200 0.960 . S
H200 C199 0.960 . S
H201 N181 0.862 . S
O202 Co170 1.920 . S
O202 C175 1.289 . S
C203 O195 1.258 . S
C203 O196 1.266 . S
Co204 O207 1.970 . S
Co204 N221 1.989 . S
Co204 O229 1.967 . S
Co204 O236 1.920 . S
Co205 O208 1.966 . S
Co205 N214 2.022 . S
Co205 N222 1.993 . S
Co205 O230 1.941 . S
C206 O207 1.258 . S
C206 O208 1.263 . S
O207 Co204 1.970 . S
O207 C206 1.258 . S
O208 Co205 1.966 . S
O208 C206 1.263 . S
C209 O210 1.235 . S
C209 O236 1.289 . S
O210 C209 1.235 . S
C211 C213 1.400 . S
C211 N214 1.351 . S
C211 C216 1.501 . S
C212 C213 1.387 . S
C212 N215 1.341 . S
C213 C211 1.400 . S
C213 C212 1.387 . S
N214 Co205 2.022 . S
N214 C211 1.351 . S
N214 N215 1.365 . S
N215 C212 1.341 . S
N215 N214 1.365 . S
N215 H235 0.862 . S
C216 C211 1.501 . S
C216 H217 0.961 . S
C216 H218 0.961 . S
C216 H219 0.960 . S
H217 C216 0.961 . S
H218 C216 0.961 . S
H219 C216 0.960 . S
C220 N221 1.342 . S
C220 C224 1.401 . S
C220 C225 1.499 . S
N221 Co204 1.989 . S
N221 C220 1.342 . S
N221 N222 1.388 . S
N222 Co205 1.993 . S
N222 N221 1.388 . S
N222 C223 1.346 . S
C223 N222 1.346 . S
C223 C224 1.396 . S
C223 C233 1.510 . S
C224 C220 1.401 . S
C224 C223 1.396 . S
C225 C220 1.499 . S
C225 H226 0.959 . S
C225 H227 0.960 . S
C225 H228 0.961 . S
H226 C225 0.959 . S
H227 C225 0.960 . S
H228 C225 0.961 . S
O229 Co204 1.967 . S
O229 C237 1.258 . S
O230 Co205 1.941 . S
O230 C237 1.266 . S
H231 C233 0.959 . S
H232 C233 0.961 . S
C233 C223 1.510 . S
C233 H231 0.959 . S
C233 H232 0.961 . S
C233 H234 0.960 . S
H234 C233 0.960 . S
H235 N215 0.862 . S
O236 Co204 1.920 . S
O236 C209 1.289 . S
C237 O229 1.258 . S
C237 O230 1.266 . S
Co238 O241 1.970 . S
Co238 N255 1.989 . S
Co238 O263 1.967 . S
Co238 O270 1.920 . S
Co239 O242 1.966 . S
Co239 N248 2.022 . S
Co239 N256 1.993 . S
Co239 O264 1.941 . S
C240 O241 1.258 . S
C240 O242 1.263 . S
O241 Co238 1.970 . S
O241 C240 1.258 . S
O242 Co239 1.966 . S
O242 C240 1.263 . S
C243 O244 1.235 . S
C243 O270 1.289 . S
O244 C243 1.235 . S
C245 C247 1.400 . S
C245 N248 1.351 . S
C245 C250 1.501 . S
C246 C247 1.387 . S
C246 N249 1.341 . S
C247 C245 1.400 . S
C247 C246 1.387 . S
N248 Co239 2.022 . S
N248 C245 1.351 . S
N248 N249 1.365 . S
N249 C246 1.341 . S
N249 N248 1.365 . S
N249 H269 0.862 . S
C250 C245 1.501 . S
C250 H251 0.961 . S
C250 H252 0.961 . S
C250 H253 0.960 . S
H251 C250 0.961 . S
H252 C250 0.961 . S
H253 C250 0.960 . S
C254 N255 1.342 . S
C254 C258 1.401 . S
C254 C259 1.499 . S
N255 Co238 1.989 . S
N255 C254 1.342 . S
N255 N256 1.388 . S
N256 Co239 1.993 . S
N256 N255 1.388 . S
N256 C257 1.346 . S
C257 N256 1.346 . S
C257 C258 1.396 . S
C257 C267 1.510 . S
C258 C254 1.401 . S
C258 C257 1.396 . S
C259 C254 1.499 . S
C259 H260 0.959 . S
C259 H261 0.960 . S
C259 H262 0.961 . S
H260 C259 0.959 . S
H261 C259 0.960 . S
H262 C259 0.961 . S
O263 Co238 1.967 . S
O263 C271 1.258 . S
O264 Co239 1.941 . S
O264 C271 1.266 . S
H265 C267 0.959 . S
H266 C267 0.961 . S
C267 C257 1.510 . S
C267 H265 0.959 . S
C267 H266 0.961 . S
C267 H268 0.960 . S
H268 C267 0.960 . S
H269 N249 0.862 . S
O270 Co238 1.920 . S
O270 C243 1.289 . S
C271 O263 1.258 . S
C271 O264 1.266 . S
Co272 O275 1.970 . S
Co272 N289 1.989 . S
Co272 O297 1.967 . S
Co272 O304 1.920 . S
Co273 O276 1.966 . S
Co273 N282 2.022 . S
Co273 N290 1.993 . S
Co273 O298 1.941 . S
C274 O275 1.258 . S
C274 O276 1.263 . S
O275 Co272 1.970 . S
O275 C274 1.258 . S
O276 Co273 1.966 . S
O276 C274 1.263 . S
C277 O278 1.235 . S
C277 O304 1.289 . S
O278 C277 1.235 . S
C279 C281 1.400 . S
C279 N282 1.351 . S
C279 C284 1.501 . S
C280 C281 1.387 . S
C280 N283 1.341 . S
C281 C279 1.400 . S
C281 C280 1.387 . S
N282 Co273 2.022 . S
N282 C279 1.351 . S
N282 N283 1.365 . S
N283 C280 1.341 . S
N283 N282 1.365 . S
N283 H303 0.862 . S
C284 C279 1.501 . S
C284 H285 0.961 . S
C284 H286 0.961 . S
C284 H287 0.960 . S
H285 C284 0.961 . S
H286 C284 0.961 . S
H287 C284 0.960 . S
C288 N289 1.342 . S
C288 C292 1.401 . S
C288 C293 1.499 . S
N289 Co272 1.989 . S
N289 C288 1.342 . S
N289 N290 1.388 . S
N290 Co273 1.993 . S
N290 N289 1.388 . S
N290 C291 1.346 . S
C291 N290 1.346 . S
C291 C292 1.396 . S
C291 C301 1.510 . S
C292 C288 1.401 . S
C292 C291 1.396 . S
C293 C288 1.499 . S
C293 H294 0.959 . S
C293 H295 0.960 . S
C293 H296 0.961 . S
H294 C293 0.959 . S
H295 C293 0.960 . S
H296 C293 0.961 . S
O297 Co272 1.967 . S
O297 C305 1.258 . S
O298 Co273 1.941 . S
O298 C305 1.266 . S
H299 C301 0.959 . S
H300 C301 0.961 . S
C301 C291 1.510 . S
C301 H299 0.959 . S
C301 H300 0.961 . S
C301 H302 0.960 . S
H302 C301 0.960 . S
H303 N283 0.862 . S
O304 Co272 1.920 . S
O304 C277 1.289 . S
C305 O297 1.258 . S
C305 O298 1.266 . S
Co306 O309 1.970 . S
Co306 N323 1.989 . S
Co306 O331 1.967 . S
Co306 O338 1.920 . S
Co307 O310 1.966 . S
Co307 N316 2.022 . S
Co307 N324 1.993 . S
Co307 O332 1.941 . S
C308 O309 1.258 . S
C308 O310 1.263 . S
O309 Co306 1.970 . S
O309 C308 1.258 . S
O310 Co307 1.966 . S
O310 C308 1.263 . S
C311 O312 1.235 . S
C311 O338 1.289 . S
O312 C311 1.235 . S
C313 C315 1.400 . S
C313 N316 1.351 . S
C313 C318 1.501 . S
C314 C315 1.387 . S
C314 N317 1.341 . S
C315 C313 1.400 . S
C315 C314 1.387 . S
N316 Co307 2.022 . S
N316 C313 1.351 . S
N316 N317 1.365 . S
N317 C314 1.341 . S
N317 N316 1.365 . S
N317 H337 0.862 . S
C318 C313 1.501 . S
C318 H319 0.961 . S
C318 H320 0.961 . S
C318 H321 0.960 . S
H319 C318 0.961 . S
H320 C318 0.961 . S
H321 C318 0.960 . S
C322 N323 1.342 . S
C322 C326 1.401 . S
C322 C327 1.499 . S
N323 Co306 1.989 . S
N323 C322 1.342 . S
N323 N324 1.388 . S
N324 Co307 1.993 . S
N324 N323 1.388 . S
N324 C325 1.346 . S
C325 N324 1.346 . S
C325 C326 1.396 . S
C325 C335 1.510 . S
C326 C322 1.401 . S
C326 C325 1.396 . S
C327 C322 1.499 . S
C327 H328 0.959 . S
C327 H329 0.960 . S
C327 H330 0.961 . S
H328 C327 0.959 . S
H329 C327 0.960 . S
H330 C327 0.961 . S
O331 Co306 1.967 . S
O331 C339 1.258 . S
O332 Co307 1.941 . S
O332 C339 1.266 . S
H333 C335 0.959 . S
H334 C335 0.961 . S
C335 C325 1.510 . S
C335 H333 0.959 . S
C335 H334 0.961 . S
C335 H336 0.960 . S
H336 C335 0.960 . S
H337 N317 0.862 . S
O338 Co306 1.920 . S
O338 C311 1.289 . S
C339 O331 1.258 . S
C339 O332 1.266 . S
Co340 O343 1.970 . S
Co340 N357 1.989 . S
Co340 O365 1.967 . S
Co340 O372 1.920 . S
Co341 O344 1.966 . S
Co341 N350 2.022 . S
Co341 N358 1.993 . S
Co341 O366 1.941 . S
C342 O343 1.258 . S
C342 O344 1.263 . S
O343 Co340 1.970 . S
O343 C342 1.258 . S
O344 Co341 1.966 . S
O344 C342 1.263 . S
C345 O346 1.235 . S
C345 O372 1.289 . S
O346 C345 1.235 . S
C347 C349 1.400 . S
C347 N350 1.351 . S
C347 C352 1.501 . S
C348 C349 1.387 . S
C348 N351 1.341 . S
C349 C347 1.400 . S
C349 C348 1.387 . S
N350 Co341 2.022 . S
N350 C347 1.351 . S
N350 N351 1.365 . S
N351 C348 1.341 . S
N351 N350 1.365 . S
N351 H371 0.862 . S
C352 C347 1.501 . S
C352 H353 0.961 . S
C352 H354 0.961 . S
C352 H355 0.960 . S
H353 C352 0.961 . S
H354 C352 0.961 . S
H355 C352 0.960 . S
C356 N357 1.342 . S
C356 C360 1.401 . S
C356 C361 1.499 . S
N357 Co340 1.989 . S
N357 C356 1.342 . S
N357 N358 1.388 . S
N358 Co341 1.993 . S
N358 N357 1.388 . S
N358 C359 1.346 . S
C359 N358 1.346 . S
C359 C360 1.396 . S
C359 C369 1.510 . S
C360 C356 1.401 . S
C360 C359 1.396 . S
C361 C356 1.499 . S
C361 H362 0.959 . S
C361 H363 0.960 . S
C361 H364 0.961 . S
H362 C361 0.959 . S
H363 C361 0.960 . S
H364 C361 0.961 . S
O365 Co340 1.967 . S
O365 C373 1.258 . S
O366 Co341 1.941 . S
O366 C373 1.266 . S
H367 C369 0.959 . S
H368 C369 0.961 . S
C369 C359 1.510 . S
C369 H367 0.959 . S
C369 H368 0.961 . S
C369 H370 0.960 . S
H370 C369 0.960 . S
H371 N351 0.862 . S
O372 Co340 1.920 . S
O372 C345 1.289 . S
C373 O365 1.258 . S
C373 O366 1.266 . S
Co374 O377 1.970 . S
Co374 N391 1.989 . S
Co374 O399 1.967 . S
Co374 O406 1.920 . S
Co375 O378 1.966 . S
Co375 N384 2.022 . S
Co375 N392 1.993 . S
Co375 O400 1.941 . S
C376 O377 1.258 . S
C376 O378 1.263 . S
O377 Co374 1.970 . S
O377 C376 1.258 . S
O378 Co375 1.966 . S
O378 C376 1.263 . S
C379 O380 1.235 . S
C379 O406 1.289 . S
O380 C379 1.235 . S
C381 C383 1.400 . S
C381 N384 1.351 . S
C381 C386 1.501 . S
C382 C383 1.387 . S
C382 N385 1.341 . S
C383 C381 1.400 . S
C383 C382 1.387 . S
N384 Co375 2.022 . S
N384 C381 1.351 . S
N384 N385 1.365 . S
N385 C382 1.341 . S
N385 N384 1.365 . S
N385 H405 0.862 . S
C386 C381 1.501 . S
C386 H387 0.961 . S
C386 H388 0.961 . S
C386 H389 0.960 . S
H387 C386 0.961 . S
H388 C386 0.961 . S
H389 C386 0.960 . S
C390 N391 1.342 . S
C390 C394 1.401 . S
C390 C395 1.499 . S
N391 Co374 1.989 . S
N391 C390 1.342 . S
N391 N392 1.388 . S
N392 Co375 1.993 . S
N392 N391 1.388 . S
N392 C393 1.346 . S
C393 N392 1.346 . S
C393 C394 1.396 . S
C393 C403 1.510 . S
C394 C390 1.401 . S
C394 C393 1.396 . S
C395 C390 1.499 . S
C395 H396 0.959 . S
C395 H397 0.960 . S
C395 H398 0.961 . S
H396 C395 0.959 . S
H397 C395 0.960 . S
H398 C395 0.961 . S
O399 Co374 1.967 . S
O399 C407 1.258 . S
O400 Co375 1.941 . S
O400 C407 1.266 . S
H401 C403 0.959 . S
H402 C403 0.961 . S
C403 C393 1.510 . S
C403 H401 0.959 . S
C403 H402 0.961 . S
C403 H404 0.960 . S
H404 C403 0.960 . S
H405 N385 0.862 . S
O406 Co374 1.920 . S
O406 C379 1.289 . S
C407 O399 1.258 . S
C407 O400 1.266 . S
Co408 O411 1.970 . S
Co408 N425 1.989 . S
Co408 O433 1.967 . S
Co408 O440 1.920 . S
Co409 O412 1.966 . S
Co409 N418 2.022 . S
Co409 N426 1.993 . S
Co409 O434 1.941 . S
C410 O411 1.258 . S
C410 O412 1.263 . S
O411 Co408 1.970 . S
O411 C410 1.258 . S
O412 Co409 1.966 . S
O412 C410 1.263 . S
C413 O414 1.235 . S
C413 O440 1.289 . S
O414 C413 1.235 . S
C415 C417 1.400 . S
C415 N418 1.351 . S
C415 C420 1.501 . S
C416 C417 1.387 . S
C416 N419 1.341 . S
C417 C415 1.400 . S
C417 C416 1.387 . S
N418 Co409 2.022 . S
N418 C415 1.351 . S
N418 N419 1.365 . S
N419 C416 1.341 . S
N419 N418 1.365 . S
N419 H439 0.862 . S
C420 C415 1.501 . S
C420 H421 0.961 . S
C420 H422 0.961 . S
C420 H423 0.960 . S
H421 C420 0.961 . S
H422 C420 0.961 . S
H423 C420 0.960 . S
C424 N425 1.342 . S
C424 C428 1.401 . S
C424 C429 1.499 . S
N425 Co408 1.989 . S
N425 C424 1.342 . S
N425 N426 1.388 . S
N426 Co409 1.993 . S
N426 N425 1.388 . S
N426 C427 1.346 . S
C427 N426 1.346 . S
C427 C428 1.396 . S
C427 C437 1.510 . S
C428 C424 1.401 . S
C428 C427 1.396 . S
C429 C424 1.499 . S
C429 H430 0.959 . S
C429 H431 0.960 . S
C429 H432 0.961 . S
H430 C429 0.959 . S
H431 C429 0.960 . S
H432 C429 0.961 . S
O433 Co408 1.967 . S
O433 C441 1.258 . S
O434 Co409 1.941 . S
O434 C441 1.266 . S
H435 C437 0.959 . S
H436 C437 0.961 . S
C437 C427 1.510 . S
C437 H435 0.959 . S
C437 H436 0.961 . S
C437 H438 0.960 . S
H438 C437 0.960 . S
H439 N419 0.862 . S
O440 Co408 1.920 . S
O440 C413 1.289 . S
C441 O433 1.258 . S
C441 O434 1.266 . S
Co442 O445 1.970 . S
Co442 N459 1.989 . S
Co442 O467 1.967 . S
Co442 O474 1.920 . S
Co443 O446 1.966 . S
Co443 N452 2.022 . S
Co443 N460 1.993 . S
Co443 O468 1.941 . S
C444 O445 1.258 . S
C444 O446 1.263 . S
O445 Co442 1.970 . S
O445 C444 1.258 . S
O446 Co443 1.966 . S
O446 C444 1.263 . S
C447 O448 1.235 . S
C447 O474 1.289 . S
O448 C447 1.235 . S
C449 C451 1.400 . S
C449 N452 1.351 . S
C449 C454 1.501 . S
C450 C451 1.387 . S
C450 N453 1.341 . S
C451 C449 1.400 . S
C451 C450 1.387 . S
N452 Co443 2.022 . S
N452 C449 1.351 . S
N452 N453 1.365 . S
N453 C450 1.341 . S
N453 N452 1.365 . S
N453 H473 0.862 . S
C454 C449 1.501 . S
C454 H455 0.961 . S
C454 H456 0.961 . S
C454 H457 0.960 . S
H455 C454 0.961 . S
H456 C454 0.961 . S
H457 C454 0.960 . S
C458 N459 1.342 . S
C458 C462 1.401 . S
C458 C463 1.499 . S
N459 Co442 1.989 . S
N459 C458 1.342 . S
N459 N460 1.388 . S
N460 Co443 1.993 . S
N460 N459 1.388 . S
N460 C461 1.346 . S
C461 N460 1.346 . S
C461 C462 1.396 . S
C461 C471 1.510 . S
C462 C458 1.401 . S
C462 C461 1.396 . S
C463 C458 1.499 . S
C463 H464 0.959 . S
C463 H465 0.960 . S
C463 H466 0.961 . S
H464 C463 0.959 . S
H465 C463 0.960 . S
H466 C463 0.961 . S
O467 Co442 1.967 . S
O467 C475 1.258 . S
O468 Co443 1.941 . S
O468 C475 1.266 . S
H469 C471 0.959 . S
H470 C471 0.961 . S
C471 C461 1.510 . S
C471 H469 0.959 . S
C471 H470 0.961 . S
C471 H472 0.960 . S
H472 C471 0.960 . S
H473 N453 0.862 . S
O474 Co442 1.920 . S
O474 C447 1.289 . S
C475 O467 1.258 . S
C475 O468 1.266 . S
Co476 O479 1.970 . S
Co476 N493 1.989 . S
Co476 O501 1.967 . S
Co476 O508 1.920 . S
Co477 O480 1.966 . S
Co477 N486 2.022 . S
Co477 N494 1.993 . S
Co477 O502 1.941 . S
C478 O479 1.258 . S
C478 O480 1.263 . S
O479 Co476 1.970 . S
O479 C478 1.258 . S
O480 Co477 1.966 . S
O480 C478 1.263 . S
C481 O482 1.235 . S
C481 O508 1.289 . S
O482 C481 1.235 . S
C483 C485 1.400 . S
C483 N486 1.351 . S
C483 C488 1.501 . S
C484 C485 1.387 . S
C484 N487 1.341 . S
C485 C483 1.400 . S
C485 C484 1.387 . S
N486 Co477 2.022 . S
N486 C483 1.351 . S
N486 N487 1.365 . S
N487 C484 1.341 . S
N487 N486 1.365 . S
N487 H507 0.862 . S
C488 C483 1.501 . S
C488 H489 0.961 . S
C488 H490 0.961 . S
C488 H491 0.960 . S
H489 C488 0.961 . S
H490 C488 0.961 . S
H491 C488 0.960 . S
C492 N493 1.342 . S
C492 C496 1.401 . S
C492 C497 1.499 . S
N493 Co476 1.989 . S
N493 C492 1.342 . S
N493 N494 1.388 . S
N494 Co477 1.993 . S
N494 N493 1.388 . S
N494 C495 1.346 . S
C495 N494 1.346 . S
C495 C496 1.396 . S
C495 C505 1.510 . S
C496 C492 1.401 . S
C496 C495 1.396 . S
C497 C492 1.499 . S
C497 H498 0.959 . S
C497 H499 0.960 . S
C497 H500 0.961 . S
H498 C497 0.959 . S
H499 C497 0.960 . S
H500 C497 0.961 . S
O501 Co476 1.967 . S
O501 C509 1.258 . S
O502 Co477 1.941 . S
O502 C509 1.266 . S
H503 C505 0.959 . S
H504 C505 0.961 . S
C505 C495 1.510 . S
C505 H503 0.959 . S
C505 H504 0.961 . S
C505 H506 0.960 . S
H506 C505 0.960 . S
H507 N487 0.862 . S
O508 Co476 1.920 . S
O508 C481 1.289 . S
C509 O501 1.258 . S
C509 O502 1.266 . S
Co510 O513 1.970 . S
Co510 N527 1.989 . S
Co510 O535 1.967 . S
Co510 O542 1.920 . S
Co511 O514 1.966 . S
Co511 N520 2.022 . S
Co511 N528 1.993 . S
Co511 O536 1.941 . S
C512 O513 1.258 . S
C512 O514 1.263 . S
O513 Co510 1.970 . S
O513 C512 1.258 . S
O514 Co511 1.966 . S
O514 C512 1.263 . S
C515 O516 1.235 . S
C515 O542 1.289 . S
O516 C515 1.235 . S
C517 C519 1.400 . S
C517 N520 1.351 . S
C517 C522 1.501 . S
C518 C519 1.387 . S
C518 N521 1.341 . S
C519 C517 1.400 . S
C519 C518 1.387 . S
N520 Co511 2.022 . S
N520 C517 1.351 . S
N520 N521 1.365 . S
N521 C518 1.341 . S
N521 N520 1.365 . S
N521 H541 0.862 . S
C522 C517 1.501 . S
C522 H523 0.961 . S
C522 H524 0.961 . S
C522 H525 0.960 . S
H523 C522 0.961 . S
H524 C522 0.961 . S
H525 C522 0.960 . S
C526 N527 1.342 . S
C526 C530 1.401 . S
C526 C531 1.499 . S
N527 Co510 1.989 . S
N527 C526 1.342 . S
N527 N528 1.388 . S
N528 Co511 1.993 . S
N528 N527 1.388 . S
N528 C529 1.346 . S
C529 N528 1.346 . S
C529 C530 1.396 . S
C529 C539 1.510 . S
C530 C526 1.401 . S
C530 C529 1.396 . S
C531 C526 1.499 . S
C531 H532 0.959 . S
C531 H533 0.960 . S
C531 H534 0.961 . S
H532 C531 0.959 . S
H533 C531 0.960 . S
H534 C531 0.961 . S
O535 Co510 1.967 . S
O535 C543 1.258 . S
O536 Co511 1.941 . S
O536 C543 1.266 . S
H537 C539 0.959 . S
H538 C539 0.961 . S
C539 C529 1.510 . S
C539 H537 0.959 . S
C539 H538 0.961 . S
C539 H540 0.960 . S
H540 C539 0.960 . S
H541 N521 0.862 . S
O542 Co510 1.920 . S
O542 C515 1.289 . S
C543 O535 1.258 . S
C543 O536 1.266 . S
Co544 O547 1.970 . S
Co544 N561 1.989 . S
Co544 O569 1.967 . S
Co544 O576 1.920 . S
Co545 O548 1.966 . S
Co545 N554 2.022 . S
Co545 N562 1.993 . S
Co545 O570 1.941 . S
C546 O547 1.258 . S
C546 O548 1.263 . S
O547 Co544 1.970 . S
O547 C546 1.258 . S
O548 Co545 1.966 . S
O548 C546 1.263 . S
C549 O550 1.235 . S
C549 O576 1.289 . S
O550 C549 1.235 . S
C551 C553 1.400 . S
C551 N554 1.351 . S
C551 C556 1.501 . S
C552 C553 1.387 . S
C552 N555 1.341 . S
C553 C551 1.400 . S
C553 C552 1.387 . S
N554 Co545 2.022 . S
N554 C551 1.351 . S
N554 N555 1.365 . S
N555 C552 1.341 . S
N555 N554 1.365 . S
N555 H575 0.862 . S
C556 C551 1.501 . S
C556 H557 0.961 . S
C556 H558 0.961 . S
C556 H559 0.960 . S
H557 C556 0.961 . S
H558 C556 0.961 . S
H559 C556 0.960 . S
C560 N561 1.342 . S
C560 C564 1.401 . S
C560 C565 1.499 . S
N561 Co544 1.989 . S
N561 C560 1.342 . S
N561 N562 1.388 . S
N562 Co545 1.993 . S
N562 N561 1.388 . S
N562 C563 1.346 . S
C563 N562 1.346 . S
C563 C564 1.396 . S
C563 C573 1.510 . S
C564 C560 1.401 . S
C564 C563 1.396 . S
C565 C560 1.499 . S
C565 H566 0.959 . S
C565 H567 0.960 . S
C565 H568 0.961 . S
H566 C565 0.959 . S
H567 C565 0.960 . S
H568 C565 0.961 . S
O569 Co544 1.967 . S
O569 C577 1.258 . S
O570 Co545 1.941 . S
O570 C577 1.266 . S
H571 C573 0.959 . S
H572 C573 0.961 . S
C573 C563 1.510 . S
C573 H571 0.959 . S
C573 H572 0.961 . S
C573 H574 0.960 . S
H574 C573 0.960 . S
H575 N555 0.862 . S
O576 Co544 1.920 . S
O576 C549 1.289 . S
C577 O569 1.258 . S
C577 O570 1.266 . S
Co578 O581 1.970 . S
Co578 N595 1.989 . S
Co578 O603 1.967 . S
Co578 O610 1.920 . S
Co579 O582 1.966 . S
Co579 N588 2.022 . S
Co579 N596 1.993 . S
Co579 O604 1.941 . S
C580 O581 1.258 . S
C580 O582 1.263 . S
O581 Co578 1.970 . S
O581 C580 1.258 . S
O582 Co579 1.966 . S
O582 C580 1.263 . S
C583 O584 1.235 . S
C583 O610 1.289 . S
O584 C583 1.235 . S
C585 C587 1.400 . S
C585 N588 1.351 . S
C585 C590 1.501 . S
C586 C587 1.387 . S
C586 N589 1.341 . S
C587 C585 1.400 . S
C587 C586 1.387 . S
N588 Co579 2.022 . S
N588 C585 1.351 . S
N588 N589 1.365 . S
N589 C586 1.341 . S
N589 N588 1.365 . S
N589 H609 0.862 . S
C590 C585 1.501 . S
C590 H591 0.961 . S
C590 H592 0.961 . S
C590 H593 0.960 . S
H591 C590 0.961 . S
H592 C590 0.961 . S
H593 C590 0.960 . S
C594 N595 1.342 . S
C594 C598 1.401 . S
C594 C599 1.499 . S
N595 Co578 1.989 . S
N595 C594 1.342 . S
N595 N596 1.388 . S
N596 Co579 1.993 . S
N596 N595 1.388 . S
N596 C597 1.346 . S
C597 N596 1.346 . S
C597 C598 1.396 . S
C597 C607 1.510 . S
C598 C594 1.401 . S
C598 C597 1.396 . S
C599 C594 1.499 . S
C599 H600 0.959 . S
C599 H601 0.960 . S
C599 H602 0.961 . S
H600 C599 0.959 . S
H601 C599 0.960 . S
H602 C599 0.961 . S
O603 Co578 1.967 . S
O603 C611 1.258 . S
O604 Co579 1.941 . S
O604 C611 1.266 . S
H605 C607 0.959 . S
H606 C607 0.961 . S
C607 C597 1.510 . S
C607 H605 0.959 . S
C607 H606 0.961 . S
C607 H608 0.960 . S
H608 C607 0.960 . S
H609 N589 0.862 . S
O610 Co578 1.920 . S
O610 C583 1.289 . S
C611 O603 1.258 . S
C611 O604 1.266 . S
Co612 O615 1.970 . S
Co612 N629 1.989 . S
Co612 O637 1.967 . S
Co612 O644 1.920 . S
Co613 O616 1.966 . S
Co613 N622 2.022 . S
Co613 N630 1.993 . S
Co613 O638 1.941 . S
C614 O615 1.258 . S
C614 O616 1.263 . S
O615 Co612 1.970 . S
O615 C614 1.258 . S
O616 Co613 1.966 . S
O616 C614 1.263 . S
C617 O618 1.235 . S
C617 O644 1.289 . S
O618 C617 1.235 . S
C619 C621 1.400 . S
C619 N622 1.351 . S
C619 C624 1.501 . S
C620 C621 1.387 . S
C620 N623 1.341 . S
C621 C619 1.400 . S
C621 C620 1.387 . S
N622 Co613 2.022 . S
N622 C619 1.351 . S
N622 N623 1.365 . S
N623 C620 1.341 . S
N623 N622 1.365 . S
N623 H643 0.862 . S
C624 C619 1.501 . S
C624 H625 0.961 . S
C624 H626 0.961 . S
C624 H627 0.960 . S
H625 C624 0.961 . S
H626 C624 0.961 . S
H627 C624 0.960 . S
C628 N629 1.342 . S
C628 C632 1.401 . S
C628 C633 1.499 . S
N629 Co612 1.989 . S
N629 C628 1.342 . S
N629 N630 1.388 . S
N630 Co613 1.993 . S
N630 N629 1.388 . S
N630 C631 1.346 . S
C631 N630 1.346 . S
C631 C632 1.396 . S
C631 C641 1.510 . S
C632 C628 1.401 . S
C632 C631 1.396 . S
C633 C628 1.499 . S
C633 H634 0.959 . S
C633 H635 0.960 . S
C633 H636 0.961 . S
H634 C633 0.959 . S
H635 C633 0.960 . S
H636 C633 0.961 . S
O637 Co612 1.967 . S
O637 C645 1.258 . S
O638 Co613 1.941 . S
O638 C645 1.266 . S
H639 C641 0.959 . S
H640 C641 0.961 . S
C641 C631 1.510 . S
C641 H639 0.959 . S
C641 H640 0.961 . S
C641 H642 0.960 . S
H642 C641 0.960 . S
H643 N623 0.862 . S
O644 Co612 1.920 . S
O644 C617 1.289 . S
C645 O637 1.258 . S
C645 O638 1.266 . S
Co646 O649 1.970 . S
Co646 N663 1.989 . S
Co646 O671 1.967 . S
Co646 O678 1.920 . S
Co647 O650 1.966 . S
Co647 N656 2.022 . S
Co647 N664 1.993 . S
Co647 O672 1.941 . S
C648 O649 1.258 . S
C648 O650 1.263 . S
O649 Co646 1.970 . S
O649 C648 1.258 . S
O650 Co647 1.966 . S
O650 C648 1.263 . S
C651 O652 1.235 . S
C651 O678 1.289 . S
O652 C651 1.235 . S
C653 C655 1.400 . S
C653 N656 1.351 . S
C653 C658 1.501 . S
C654 C655 1.387 . S
C654 N657 1.341 . S
C655 C653 1.400 . S
C655 C654 1.387 . S
N656 Co647 2.022 . S
N656 C653 1.351 . S
N656 N657 1.365 . S
N657 C654 1.341 . S
N657 N656 1.365 . S
N657 H677 0.862 . S
C658 C653 1.501 . S
C658 H659 0.961 . S
C658 H660 0.961 . S
C658 H661 0.960 . S
H659 C658 0.961 . S
H660 C658 0.961 . S
H661 C658 0.960 . S
C662 N663 1.342 . S
C662 C666 1.401 . S
C662 C667 1.499 . S
N663 Co646 1.989 . S
N663 C662 1.342 . S
N663 N664 1.388 . S
N664 Co647 1.993 . S
N664 N663 1.388 . S
N664 C665 1.346 . S
C665 N664 1.346 . S
C665 C666 1.396 . S
C665 C675 1.510 . S
C666 C662 1.401 . S
C666 C665 1.396 . S
C667 C662 1.499 . S
C667 H668 0.959 . S
C667 H669 0.960 . S
C667 H670 0.961 . S
H668 C667 0.959 . S
H669 C667 0.960 . S
H670 C667 0.961 . S
O671 Co646 1.967 . S
O671 C679 1.258 . S
O672 Co647 1.941 . S
O672 C679 1.266 . S
H673 C675 0.959 . S
H674 C675 0.961 . S
C675 C665 1.510 . S
C675 H673 0.959 . S
C675 H674 0.961 . S
C675 H676 0.960 . S
H676 C675 0.960 . S
H677 N657 0.862 . S
O678 Co646 1.920 . S
O678 C651 1.289 . S
C679 O671 1.258 . S
C679 O672 1.266 . S
Co680 O683 1.970 . S
Co680 N697 1.989 . S
Co680 O705 1.967 . S
Co680 O712 1.920 . S
Co681 O684 1.966 . S
Co681 N690 2.022 . S
Co681 N698 1.993 . S
Co681 O706 1.941 . S
C682 O683 1.258 . S
C682 O684 1.263 . S
O683 Co680 1.970 . S
O683 C682 1.258 . S
O684 Co681 1.966 . S
O684 C682 1.263 . S
C685 O686 1.235 . S
C685 O712 1.289 . S
O686 C685 1.235 . S
C687 C689 1.400 . S
C687 N690 1.351 . S
C687 C692 1.501 . S
C688 C689 1.387 . S
C688 N691 1.341 . S
C689 C687 1.400 . S
C689 C688 1.387 . S
N690 Co681 2.022 . S
N690 C687 1.351 . S
N690 N691 1.365 . S
N691 C688 1.341 . S
N691 N690 1.365 . S
N691 H711 0.862 . S
C692 C687 1.501 . S
C692 H693 0.961 . S
C692 H694 0.961 . S
C692 H695 0.960 . S
H693 C692 0.961 . S
H694 C692 0.961 . S
H695 C692 0.960 . S
C696 N697 1.342 . S
C696 C700 1.401 . S
C696 C701 1.499 . S
N697 Co680 1.989 . S
N697 C696 1.342 . S
N697 N698 1.388 . S
N698 Co681 1.993 . S
N698 N697 1.388 . S
N698 C699 1.346 . S
C699 N698 1.346 . S
C699 C700 1.396 . S
C699 C709 1.510 . S
C700 C696 1.401 . S
C700 C699 1.396 . S
C701 C696 1.499 . S
C701 H702 0.959 . S
C701 H703 0.960 . S
C701 H704 0.961 . S
H702 C701 0.959 . S
H703 C701 0.960 . S
H704 C701 0.961 . S
O705 Co680 1.967 . S
O705 C713 1.258 . S
O706 Co681 1.941 . S
O706 C713 1.266 . S
H707 C709 0.959 . S
H708 C709 0.961 . S
C709 C699 1.510 . S
C709 H707 0.959 . S
C709 H708 0.961 . S
C709 H710 0.960 . S
H710 C709 0.960 . S
H711 N691 0.862 . S
O712 Co680 1.920 . S
O712 C685 1.289 . S
C713 O705 1.258 . S
C713 O706 1.266 . S
Co714 O717 1.970 . S
Co714 N731 1.989 . S
Co714 O739 1.967 . S
Co714 O746 1.920 . S
Co715 O718 1.966 . S
Co715 N724 2.022 . S
Co715 N732 1.993 . S
Co715 O740 1.941 . S
C716 O717 1.258 . S
C716 O718 1.263 . S
O717 Co714 1.970 . S
O717 C716 1.258 . S
O718 Co715 1.966 . S
O718 C716 1.263 . S
C719 O720 1.235 . S
C719 O746 1.289 . S
O720 C719 1.235 . S
C721 C723 1.400 . S
C721 N724 1.351 . S
C721 C726 1.501 . S
C722 C723 1.387 . S
C722 N725 1.341 . S
C723 C721 1.400 . S
C723 C722 1.387 . S
N724 Co715 2.022 . S
N724 C721 1.351 . S
N724 N725 1.365 . S
N725 C722 1.341 . S
N725 N724 1.365 . S
N725 H745 0.862 . S
C726 C721 1.501 . S
C726 H727 0.961 . S
C726 H728 0.961 . S
C726 H729 0.960 . S
H727 C726 0.961 . S
H728 C726 0.961 . S
H729 C726 0.960 . S
C730 N731 1.342 . S
C730 C734 1.401 . S
C730 C735 1.499 . S
N731 Co714 1.989 . S
N731 C730 1.342 . S
N731 N732 1.388 . S
N732 Co715 1.993 . S
N732 N731 1.388 . S
N732 C733 1.346 . S
C733 N732 1.346 . S
C733 C734 1.396 . S
C733 C743 1.510 . S
C734 C730 1.401 . S
C734 C733 1.396 . S
C735 C730 1.499 . S
C735 H736 0.959 . S
C735 H737 0.960 . S
C735 H738 0.961 . S
H736 C735 0.959 . S
H737 C735 0.960 . S
H738 C735 0.961 . S
O739 Co714 1.967 . S
O739 C747 1.258 . S
O740 Co715 1.941 . S
O740 C747 1.266 . S
H741 C743 0.959 . S
H742 C743 0.961 . S
C743 C733 1.510 . S
C743 H741 0.959 . S
C743 H742 0.961 . S
C743 H744 0.960 . S
H744 C743 0.960 . S
H745 N725 0.862 . S
O746 Co714 1.920 . S
O746 C719 1.289 . S
C747 O739 1.258 . S
C747 O740 1.266 . S
Co748 O751 1.970 . S
Co748 N765 1.989 . S
Co748 O773 1.967 . S
Co748 O780 1.920 . S
Co749 O752 1.966 . S
Co749 N758 2.022 . S
Co749 N766 1.993 . S
Co749 O774 1.941 . S
C750 O751 1.258 . S
C750 O752 1.263 . S
O751 Co748 1.970 . S
O751 C750 1.258 . S
O752 Co749 1.966 . S
O752 C750 1.263 . S
C753 O754 1.235 . S
C753 O780 1.289 . S
O754 C753 1.235 . S
C755 C757 1.400 . S
C755 N758 1.351 . S
C755 C760 1.501 . S
C756 C757 1.387 . S
C756 N759 1.341 . S
C757 C755 1.400 . S
C757 C756 1.387 . S
N758 Co749 2.022 . S
N758 C755 1.351 . S
N758 N759 1.365 . S
N759 C756 1.341 . S
N759 N758 1.365 . S
N759 H779 0.862 . S
C760 C755 1.501 . S
C760 H761 0.961 . S
C760 H762 0.961 . S
C760 H763 0.960 . S
H761 C760 0.961 . S
H762 C760 0.961 . S
H763 C760 0.960 . S
C764 N765 1.342 . S
C764 C768 1.401 . S
C764 C769 1.499 . S
N765 Co748 1.989 . S
N765 C764 1.342 . S
N765 N766 1.388 . S
N766 Co749 1.993 . S
N766 N765 1.388 . S
N766 C767 1.346 . S
C767 N766 1.346 . S
C767 C768 1.396 . S
C767 C777 1.510 . S
C768 C764 1.401 . S
C768 C767 1.396 . S
C769 C764 1.499 . S
C769 H770 0.959 . S
C769 H771 0.960 . S
C769 H772 0.961 . S
H770 C769 0.959 . S
H771 C769 0.960 . S
H772 C769 0.961 . S
O773 Co748 1.967 . S
O773 C781 1.258 . S
O774 Co749 1.941 . S
O774 C781 1.266 . S
H775 C777 0.959 . S
H776 C777 0.961 . S
C777 C767 1.510 . S
C777 H775 0.959 . S
C777 H776 0.961 . S
C777 H778 0.960 . S
H778 C777 0.960 . S
H779 N759 0.862 . S
O780 Co748 1.920 . S
O780 C753 1.289 . S
C781 O773 1.258 . S
C781 O774 1.266 . S
Co782 O785 1.970 . S
Co782 N799 1.989 . S
Co782 O807 1.967 . S
Co782 O814 1.920 . S
Co783 O786 1.966 . S
Co783 N792 2.022 . S
Co783 N800 1.993 . S
Co783 O808 1.941 . S
C784 O785 1.258 . S
C784 O786 1.263 . S
O785 Co782 1.970 . S
O785 C784 1.258 . S
O786 Co783 1.966 . S
O786 C784 1.263 . S
C787 O788 1.235 . S
C787 O814 1.289 . S
O788 C787 1.235 . S
C789 C791 1.400 . S
C789 N792 1.351 . S
C789 C794 1.501 . S
C790 C791 1.387 . S
C790 N793 1.341 . S
C791 C789 1.400 . S
C791 C790 1.387 . S
N792 Co783 2.022 . S
N792 C789 1.351 . S
N792 N793 1.365 . S
N793 C790 1.341 . S
N793 N792 1.365 . S
N793 H813 0.862 . S
C794 C789 1.501 . S
C794 H795 0.961 . S
C794 H796 0.961 . S
C794 H797 0.960 . S
H795 C794 0.961 . S
H796 C794 0.961 . S
H797 C794 0.960 . S
C798 N799 1.342 . S
C798 C802 1.401 . S
C798 C803 1.499 . S
N799 Co782 1.989 . S
N799 C798 1.342 . S
N799 N800 1.388 . S
N800 Co783 1.993 . S
N800 N799 1.388 . S
N800 C801 1.346 . S
C801 N800 1.346 . S
C801 C802 1.396 . S
C801 C811 1.510 . S
C802 C798 1.401 . S
C802 C801 1.396 . S
C803 C798 1.499 . S
C803 H804 0.959 . S
C803 H805 0.960 . S
C803 H806 0.961 . S
H804 C803 0.959 . S
H805 C803 0.960 . S
H806 C803 0.961 . S
O807 Co782 1.967 . S
O807 C815 1.258 . S
O808 Co783 1.941 . S
O808 C815 1.266 . S
H809 C811 0.959 . S
H810 C811 0.961 . S
C811 C801 1.510 . S
C811 H809 0.959 . S
C811 H810 0.961 . S
C811 H812 0.960 . S
H812 C811 0.960 . S
H813 N793 0.862 . S
O814 Co782 1.920 . S
O814 C787 1.289 . S
C815 O807 1.258 . S
C815 O808 1.266 . S
Co816 O819 1.970 . S
Co816 N833 1.989 . S
Co816 O841 1.967 . S
Co816 O848 1.920 . S
Co817 O820 1.966 . S
Co817 N826 2.022 . S
Co817 N834 1.993 . S
Co817 O842 1.941 . S
C818 O819 1.258 . S
C818 O820 1.263 . S
O819 Co816 1.970 . S
O819 C818 1.258 . S
O820 Co817 1.966 . S
O820 C818 1.263 . S
C821 O822 1.235 . S
C821 O848 1.289 . S
O822 C821 1.235 . S
C823 C825 1.400 . S
C823 N826 1.351 . S
C823 C828 1.501 . S
C824 C825 1.387 . S
C824 N827 1.341 . S
C825 C823 1.400 . S
C825 C824 1.387 . S
N826 Co817 2.022 . S
N826 C823 1.351 . S
N826 N827 1.365 . S
N827 C824 1.341 . S
N827 N826 1.365 . S
N827 H847 0.862 . S
C828 C823 1.501 . S
C828 H829 0.961 . S
C828 H830 0.961 . S
C828 H831 0.960 . S
H829 C828 0.961 . S
H830 C828 0.961 . S
H831 C828 0.960 . S
C832 N833 1.342 . S
C832 C836 1.401 . S
C832 C837 1.499 . S
N833 Co816 1.989 . S
N833 C832 1.342 . S
N833 N834 1.388 . S
N834 Co817 1.993 . S
N834 N833 1.388 . S
N834 C835 1.346 . S
C835 N834 1.346 . S
C835 C836 1.396 . S
C835 C845 1.510 . S
C836 C832 1.401 . S
C836 C835 1.396 . S
C837 C832 1.499 . S
C837 H838 0.959 . S
C837 H839 0.960 . S
C837 H840 0.961 . S
H838 C837 0.959 . S
H839 C837 0.960 . S
H840 C837 0.961 . S
O841 Co816 1.967 . S
O841 C849 1.258 . S
O842 Co817 1.941 . S
O842 C849 1.266 . S
H843 C845 0.959 . S
H844 C845 0.961 . S
C845 C835 1.510 . S
C845 H843 0.959 . S
C845 H844 0.961 . S
C845 H846 0.960 . S
H846 C845 0.960 . S
H847 N827 0.862 . S
O848 Co816 1.920 . S
O848 C821 1.289 . S
C849 O841 1.258 . S
C849 O842 1.266 . S
Co850 O853 1.970 . S
Co850 N867 1.989 . S
Co850 O875 1.967 . S
Co850 O882 1.920 . S
Co851 O854 1.966 . S
Co851 N860 2.022 . S
Co851 N868 1.993 . S
Co851 O876 1.941 . S
C852 O853 1.258 . S
C852 O854 1.263 . S
O853 Co850 1.970 . S
O853 C852 1.258 . S
O854 Co851 1.966 . S
O854 C852 1.263 . S
C855 O856 1.235 . S
C855 O882 1.289 . S
O856 C855 1.235 . S
C857 C859 1.400 . S
C857 N860 1.351 . S
C857 C862 1.501 . S
C858 C859 1.387 . S
C858 N861 1.341 . S
C859 C857 1.400 . S
C859 C858 1.387 . S
N860 Co851 2.022 . S
N860 C857 1.351 . S
N860 N861 1.365 . S
N861 C858 1.341 . S
N861 N860 1.365 . S
N861 H881 0.862 . S
C862 C857 1.501 . S
C862 H863 0.961 . S
C862 H864 0.961 . S
C862 H865 0.960 . S
H863 C862 0.961 . S
H864 C862 0.961 . S
H865 C862 0.960 . S
C866 N867 1.342 . S
C866 C870 1.401 . S
C866 C871 1.499 . S
N867 Co850 1.989 . S
N867 C866 1.342 . S
N867 N868 1.388 . S
N868 Co851 1.993 . S
N868 N867 1.388 . S
N868 C869 1.346 . S
C869 N868 1.346 . S
C869 C870 1.396 . S
C869 C879 1.510 . S
C870 C866 1.401 . S
C870 C869 1.396 . S
C871 C866 1.499 . S
C871 H872 0.959 . S
C871 H873 0.960 . S
C871 H874 0.961 . S
H872 C871 0.959 . S
H873 C871 0.960 . S
H874 C871 0.961 . S
O875 Co850 1.967 . S
O875 C883 1.258 . S
O876 Co851 1.941 . S
O876 C883 1.266 . S
H877 C879 0.959 . S
H878 C879 0.961 . S
C879 C869 1.510 . S
C879 H877 0.959 . S
C879 H878 0.961 . S
C879 H880 0.960 . S
H880 C879 0.960 . S
H881 N861 0.862 . S
O882 Co850 1.920 . S
O882 C855 1.289 . S
C883 O875 1.258 . S
C883 O876 1.266 . S
Co884 O887 1.970 . S
Co884 N901 1.989 . S
Co884 O909 1.967 . S
Co884 O916 1.920 . S
Co885 O888 1.966 . S
Co885 N894 2.022 . S
Co885 N902 1.993 . S
Co885 O910 1.941 . S
C886 O887 1.258 . S
C886 O888 1.263 . S
O887 Co884 1.970 . S
O887 C886 1.258 . S
O888 Co885 1.966 . S
O888 C886 1.263 . S
C889 O890 1.235 . S
C889 O916 1.289 . S
O890 C889 1.235 . S
C891 C893 1.400 . S
C891 N894 1.351 . S
C891 C896 1.501 . S
C892 C893 1.387 . S
C892 N895 1.341 . S
C893 C891 1.400 . S
C893 C892 1.387 . S
N894 Co885 2.022 . S
N894 C891 1.351 . S
N894 N895 1.365 . S
N895 C892 1.341 . S
N895 N894 1.365 . S
N895 H915 0.862 . S
C896 C891 1.501 . S
C896 H897 0.961 . S
C896 H898 0.961 . S
C896 H899 0.960 . S
H897 C896 0.961 . S
H898 C896 0.961 . S
H899 C896 0.960 . S
C900 N901 1.342 . S
C900 C904 1.401 . S
C900 C905 1.499 . S
N901 Co884 1.989 . S
N901 C900 1.342 . S
N901 N902 1.388 . S
N902 Co885 1.993 . S
N902 N901 1.388 . S
N902 C903 1.346 . S
C903 N902 1.346 . S
C903 C904 1.396 . S
C903 C913 1.510 . S
C904 C900 1.401 . S
C904 C903 1.396 . S
C905 C900 1.499 . S
C905 H906 0.959 . S
C905 H907 0.960 . S
C905 H908 0.961 . S
H906 C905 0.959 . S
H907 C905 0.960 . S
H908 C905 0.961 . S
O909 Co884 1.967 . S
O909 C917 1.258 . S
O910 Co885 1.941 . S
O910 C917 1.266 . S
H911 C913 0.959 . S
H912 C913 0.961 . S
C913 C903 1.510 . S
C913 H911 0.959 . S
C913 H912 0.961 . S
C913 H914 0.960 . S
H914 C913 0.960 . S
H915 N895 0.862 . S
O916 Co884 1.920 . S
O916 C889 1.289 . S
C917 O909 1.258 . S
C917 O910 1.266 . S
Co918 O921 1.970 . S
Co918 N935 1.989 . S
Co918 O943 1.967 . S
Co918 O950 1.920 . S
Co919 O922 1.966 . S
Co919 N928 2.022 . S
Co919 N936 1.993 . S
Co919 O944 1.941 . S
C920 O921 1.258 . S
C920 O922 1.263 . S
O921 Co918 1.970 . S
O921 C920 1.258 . S
O922 Co919 1.966 . S
O922 C920 1.263 . S
C923 O924 1.235 . S
C923 O950 1.289 . S
O924 C923 1.235 . S
C925 C927 1.400 . S
C925 N928 1.351 . S
C925 C930 1.501 . S
C926 C927 1.387 . S
C926 N929 1.341 . S
C927 C925 1.400 . S
C927 C926 1.387 . S
N928 Co919 2.022 . S
N928 C925 1.351 . S
N928 N929 1.365 . S
N929 C926 1.341 . S
N929 N928 1.365 . S
N929 H949 0.862 . S
C930 C925 1.501 . S
C930 H931 0.961 . S
C930 H932 0.961 . S
C930 H933 0.960 . S
H931 C930 0.961 . S
H932 C930 0.961 . S
H933 C930 0.960 . S
C934 N935 1.342 . S
C934 C938 1.401 . S
C934 C939 1.499 . S
N935 Co918 1.989 . S
N935 C934 1.342 . S
N935 N936 1.388 . S
N936 Co919 1.993 . S
N936 N935 1.388 . S
N936 C937 1.346 . S
C937 N936 1.346 . S
C937 C938 1.396 . S
C937 C947 1.510 . S
C938 C934 1.401 . S
C938 C937 1.396 . S
C939 C934 1.499 . S
C939 H940 0.959 . S
C939 H941 0.960 . S
C939 H942 0.961 . S
H940 C939 0.959 . S
H941 C939 0.960 . S
H942 C939 0.961 . S
O943 Co918 1.967 . S
O943 C951 1.258 . S
O944 Co919 1.941 . S
O944 C951 1.266 . S
H945 C947 0.959 . S
H946 C947 0.961 . S
C947 C937 1.510 . S
C947 H945 0.959 . S
C947 H946 0.961 . S
C947 H948 0.960 . S
H948 C947 0.960 . S
H949 N929 0.862 . S
O950 Co918 1.920 . S
O950 C923 1.289 . S
C951 O943 1.258 . S
C951 O944 1.266 . S
Co952 O955 1.970 . S
Co952 N969 1.989 . S
Co952 O977 1.967 . S
Co952 O984 1.920 . S
Co953 O956 1.966 . S
Co953 N962 2.022 . S
Co953 N970 1.993 . S
Co953 O978 1.941 . S
C954 O955 1.258 . S
C954 O956 1.263 . S
O955 Co952 1.970 . S
O955 C954 1.258 . S
O956 Co953 1.966 . S
O956 C954 1.263 . S
C957 O958 1.235 . S
C957 O984 1.289 . S
O958 C957 1.235 . S
C959 C961 1.400 . S
C959 N962 1.351 . S
C959 C964 1.501 . S
C960 C961 1.387 . S
C960 N963 1.341 . S
C961 C959 1.400 . S
C961 C960 1.387 . S
N962 Co953 2.022 . S
N962 C959 1.351 . S
N962 N963 1.365 . S
N963 C960 1.341 . S
N963 N962 1.365 . S
N963 H983 0.862 . S
C964 C959 1.501 . S
C964 H965 0.961 . S
C964 H966 0.961 . S
C964 H967 0.960 . S
H965 C964 0.961 . S
H966 C964 0.961 . S
H967 C964 0.960 . S
C968 N969 1.342 . S
C968 C972 1.401 . S
C968 C973 1.499 . S
N969 Co952 1.989 . S
N969 C968 1.342 . S
N969 N970 1.388 . S
N970 Co953 1.993 . S
N970 N969 1.388 . S
N970 C971 1.346 . S
C971 N970 1.346 . S
C971 C972 1.396 . S
C971 C981 1.510 . S
C972 C968 1.401 . S
C972 C971 1.396 . S
C973 C968 1.499 . S
C973 H974 0.959 . S
C973 H975 0.960 . S
C973 H976 0.961 . S
H974 C973 0.959 . S
H975 C973 0.960 . S
H976 C973 0.961 . S
O977 Co952 1.967 . S
O977 C985 1.258 . S
O978 Co953 1.941 . S
O978 C985 1.266 . S
H979 C981 0.959 . S
H980 C981 0.961 . S
C981 C971 1.510 . S
C981 H979 0.959 . S
C981 H980 0.961 . S
C981 H982 0.960 . S
H982 C981 0.960 . S
H983 N963 0.862 . S
O984 Co952 1.920 . S
O984 C957 1.289 . S
C985 O977 1.258 . S
C985 O978 1.266 . S
Co986 O989 1.970 . S
Co986 N1003 1.989 . S
Co986 O1011 1.967 . S
Co986 O1018 1.920 . S
Co987 O990 1.966 . S
Co987 N996 2.022 . S
Co987 N1004 1.993 . S
Co987 O1012 1.941 . S
C988 O989 1.258 . S
C988 O990 1.263 . S
O989 Co986 1.970 . S
O989 C988 1.258 . S
O990 Co987 1.966 . S
O990 C988 1.263 . S
C991 O992 1.235 . S
C991 O1018 1.289 . S
O992 C991 1.235 . S
C993 C995 1.400 . S
C993 N996 1.351 . S
C993 C998 1.501 . S
C994 C995 1.387 . S
C994 N997 1.341 . S
C995 C993 1.400 . S
C995 C994 1.387 . S
N996 Co987 2.022 . S
N996 C993 1.351 . S
N996 N997 1.365 . S
N997 C994 1.341 . S
N997 N996 1.365 . S
N997 H1017 0.862 . S
C998 C993 1.501 . S
C998 H999 0.961 . S
C998 H1000 0.961 . S
C998 H1001 0.960 . S
H999 C998 0.961 . S
H1000 C998 0.961 . S
H1001 C998 0.960 . S
C1002 N1003 1.342 . S
C1002 C1006 1.401 . S
C1002 C1007 1.499 . S
N1003 Co986 1.989 . S
N1003 C1002 1.342 . S
N1003 N1004 1.388 . S
N1004 Co987 1.993 . S
N1004 N1003 1.388 . S
N1004 C1005 1.346 . S
C1005 N1004 1.346 . S
C1005 C1006 1.396 . S
C1005 C1015 1.510 . S
C1006 C1002 1.401 . S
C1006 C1005 1.396 . S
C1007 C1002 1.499 . S
C1007 H1008 0.959 . S
C1007 H1009 0.960 . S
C1007 H1010 0.961 . S
H1008 C1007 0.959 . S
H1009 C1007 0.960 . S
H1010 C1007 0.961 . S
O1011 Co986 1.967 . S
O1011 C1019 1.258 . S
O1012 Co987 1.941 . S
O1012 C1019 1.266 . S
H1013 C1015 0.959 . S
H1014 C1015 0.961 . S
C1015 C1005 1.510 . S
C1015 H1013 0.959 . S
C1015 H1014 0.961 . S
C1015 H1016 0.960 . S
H1016 C1015 0.960 . S
H1017 N997 0.862 . S
O1018 Co986 1.920 . S
O1018 C991 1.289 . S
C1019 O1011 1.258 . S
C1019 O1012 1.266 . S
Co1020 O1023 1.970 . S
Co1020 N1037 1.989 . S
Co1020 O1045 1.967 . S
Co1020 O1052 1.920 . S
Co1021 O1024 1.966 . S
Co1021 N1030 2.022 . S
Co1021 N1038 1.993 . S
Co1021 O1046 1.941 . S
C1022 O1023 1.258 . S
C1022 O1024 1.263 . S
O1023 Co1020 1.970 . S
O1023 C1022 1.258 . S
O1024 Co1021 1.966 . S
O1024 C1022 1.263 . S
C1025 O1026 1.235 . S
C1025 O1052 1.289 . S
O1026 C1025 1.235 . S
C1027 C1029 1.400 . S
C1027 N1030 1.351 . S
C1027 C1032 1.501 . S
C1028 C1029 1.387 . S
C1028 N1031 1.341 . S
C1029 C1027 1.400 . S
C1029 C1028 1.387 . S
N1030 Co1021 2.022 . S
N1030 C1027 1.351 . S
N1030 N1031 1.365 . S
N1031 C1028 1.341 . S
N1031 N1030 1.365 . S
N1031 H1051 0.862 . S
C1032 C1027 1.501 . S
C1032 H1033 0.961 . S
C1032 H1034 0.961 . S
C1032 H1035 0.960 . S
H1033 C1032 0.961 . S
H1034 C1032 0.961 . S
H1035 C1032 0.960 . S
C1036 N1037 1.342 . S
C1036 C1040 1.401 . S
C1036 C1041 1.499 . S
N1037 Co1020 1.989 . S
N1037 C1036 1.342 . S
N1037 N1038 1.388 . S
N1038 Co1021 1.993 . S
N1038 N1037 1.388 . S
N1038 C1039 1.346 . S
C1039 N1038 1.346 . S
C1039 C1040 1.396 . S
C1039 C1049 1.510 . S
C1040 C1036 1.401 . S
C1040 C1039 1.396 . S
C1041 C1036 1.499 . S
C1041 H1042 0.959 . S
C1041 H1043 0.960 . S
C1041 H1044 0.961 . S
H1042 C1041 0.959 . S
H1043 C1041 0.960 . S
H1044 C1041 0.961 . S
O1045 Co1020 1.967 . S
O1045 C1053 1.258 . S
O1046 Co1021 1.941 . S
O1046 C1053 1.266 . S
H1047 C1049 0.959 . S
H1048 C1049 0.961 . S
C1049 C1039 1.510 . S
C1049 H1047 0.959 . S
C1049 H1048 0.961 . S
C1049 H1050 0.960 . S
H1050 C1049 0.960 . S
H1051 N1031 0.862 . S
O1052 Co1020 1.920 . S
O1052 C1025 1.289 . S
C1053 O1045 1.258 . S
C1053 O1046 1.266 . S
Co1054 O1057 1.970 . S
Co1054 N1071 1.989 . S
Co1054 O1079 1.967 . S
Co1054 O1086 1.920 . S
Co1055 O1058 1.966 . S
Co1055 N1064 2.022 . S
Co1055 N1072 1.993 . S
Co1055 O1080 1.941 . S
C1056 O1057 1.258 . S
C1056 O1058 1.263 . S
O1057 Co1054 1.970 . S
O1057 C1056 1.258 . S
O1058 Co1055 1.966 . S
O1058 C1056 1.263 . S
C1059 O1060 1.235 . S
C1059 O1086 1.289 . S
O1060 C1059 1.235 . S
C1061 C1063 1.400 . S
C1061 N1064 1.351 . S
C1061 C1066 1.501 . S
C1062 C1063 1.387 . S
C1062 N1065 1.341 . S
C1063 C1061 1.400 . S
C1063 C1062 1.387 . S
N1064 Co1055 2.022 . S
N1064 C1061 1.351 . S
N1064 N1065 1.365 . S
N1065 C1062 1.341 . S
N1065 N1064 1.365 . S
N1065 H1085 0.862 . S
C1066 C1061 1.501 . S
C1066 H1067 0.961 . S
C1066 H1068 0.961 . S
C1066 H1069 0.960 . S
H1067 C1066 0.961 . S
H1068 C1066 0.961 . S
H1069 C1066 0.960 . S
C1070 N1071 1.342 . S
C1070 C1074 1.401 . S
C1070 C1075 1.499 . S
N1071 Co1054 1.989 . S
N1071 C1070 1.342 . S
N1071 N1072 1.388 . S
N1072 Co1055 1.993 . S
N1072 N1071 1.388 . S
N1072 C1073 1.346 . S
C1073 N1072 1.346 . S
C1073 C1074 1.396 . S
C1073 C1083 1.510 . S
C1074 C1070 1.401 . S
C1074 C1073 1.396 . S
C1075 C1070 1.499 . S
C1075 H1076 0.959 . S
C1075 H1077 0.960 . S
C1075 H1078 0.961 . S
H1076 C1075 0.959 . S
H1077 C1075 0.960 . S
H1078 C1075 0.961 . S
O1079 Co1054 1.967 . S
O1079 C1087 1.258 . S
O1080 Co1055 1.941 . S
O1080 C1087 1.266 . S
H1081 C1083 0.959 . S
H1082 C1083 0.961 . S
C1083 C1073 1.510 . S
C1083 H1081 0.959 . S
C1083 H1082 0.961 . S
C1083 H1084 0.960 . S
H1084 C1083 0.960 . S
H1085 N1065 0.862 . S
O1086 Co1054 1.920 . S
O1086 C1059 1.289 . S
C1087 O1079 1.258 . S
C1087 O1080 1.266 . S
Co1088 O1091 1.970 . S
Co1088 N1105 1.989 . S
Co1088 O1113 1.967 . S
Co1088 O1120 1.920 . S
Co1089 O1092 1.966 . S
Co1089 N1098 2.022 . S
Co1089 N1106 1.993 . S
Co1089 O1114 1.941 . S
C1090 O1091 1.258 . S
C1090 O1092 1.263 . S
O1091 Co1088 1.970 . S
O1091 C1090 1.258 . S
O1092 Co1089 1.966 . S
O1092 C1090 1.263 . S
C1093 O1094 1.235 . S
C1093 O1120 1.289 . S
O1094 C1093 1.235 . S
C1095 C1097 1.400 . S
C1095 N1098 1.351 . S
C1095 C1100 1.501 . S
C1096 C1097 1.387 . S
C1096 N1099 1.341 . S
C1097 C1095 1.400 . S
C1097 C1096 1.387 . S
N1098 Co1089 2.022 . S
N1098 C1095 1.351 . S
N1098 N1099 1.365 . S
N1099 C1096 1.341 . S
N1099 N1098 1.365 . S
N1099 H1119 0.862 . S
C1100 C1095 1.501 . S
C1100 H1101 0.961 . S
C1100 H1102 0.961 . S
C1100 H1103 0.960 . S
H1101 C1100 0.961 . S
H1102 C1100 0.961 . S
H1103 C1100 0.960 . S
C1104 N1105 1.342 . S
C1104 C1108 1.401 . S
C1104 C1109 1.499 . S
N1105 Co1088 1.989 . S
N1105 C1104 1.342 . S
N1105 N1106 1.388 . S
N1106 Co1089 1.993 . S
N1106 N1105 1.388 . S
N1106 C1107 1.346 . S
C1107 N1106 1.346 . S
C1107 C1108 1.396 . S
C1107 C1117 1.510 . S
C1108 C1104 1.401 . S
C1108 C1107 1.396 . S
C1109 C1104 1.499 . S
C1109 H1110 0.959 . S
C1109 H1111 0.960 . S
C1109 H1112 0.961 . S
H1110 C1109 0.959 . S
H1111 C1109 0.960 . S
H1112 C1109 0.961 . S
O1113 Co1088 1.967 . S
O1113 C1121 1.258 . S
O1114 Co1089 1.941 . S
O1114 C1121 1.266 . S
H1115 C1117 0.959 . S
H1116 C1117 0.961 . S
C1117 C1107 1.510 . S
C1117 H1115 0.959 . S
C1117 H1116 0.961 . S
C1117 H1118 0.960 . S
H1118 C1117 0.960 . S
H1119 N1099 0.862 . S
O1120 Co1088 1.920 . S
O1120 C1093 1.289 . S
C1121 O1113 1.258 . S
C1121 O1114 1.266 . S
Co1122 O1125 1.970 . S
Co1122 N1139 1.989 . S
Co1122 O1147 1.967 . S
Co1122 O1154 1.920 . S
Co1123 O1126 1.966 . S
Co1123 N1132 2.022 . S
Co1123 N1140 1.993 . S
Co1123 O1148 1.941 . S
C1124 O1125 1.258 . S
C1124 O1126 1.263 . S
O1125 Co1122 1.970 . S
O1125 C1124 1.258 . S
O1126 Co1123 1.966 . S
O1126 C1124 1.263 . S
C1127 O1128 1.235 . S
C1127 O1154 1.289 . S
O1128 C1127 1.235 . S
C1129 C1131 1.400 . S
C1129 N1132 1.351 . S
C1129 C1134 1.501 . S
C1130 C1131 1.387 . S
C1130 N1133 1.341 . S
C1131 C1129 1.400 . S
C1131 C1130 1.387 . S
N1132 Co1123 2.022 . S
N1132 C1129 1.351 . S
N1132 N1133 1.365 . S
N1133 C1130 1.341 . S
N1133 N1132 1.365 . S
N1133 H1153 0.862 . S
C1134 C1129 1.501 . S
C1134 H1135 0.961 . S
C1134 H1136 0.961 . S
C1134 H1137 0.960 . S
H1135 C1134 0.961 . S
H1136 C1134 0.961 . S
H1137 C1134 0.960 . S
C1138 N1139 1.342 . S
C1138 C1142 1.401 . S
C1138 C1143 1.499 . S
N1139 Co1122 1.989 . S
N1139 C1138 1.342 . S
N1139 N1140 1.388 . S
N1140 Co1123 1.993 . S
N1140 N1139 1.388 . S
N1140 C1141 1.346 . S
C1141 N1140 1.346 . S
C1141 C1142 1.396 . S
C1141 C1151 1.510 . S
C1142 C1138 1.401 . S
C1142 C1141 1.396 . S
C1143 C1138 1.499 . S
C1143 H1144 0.959 . S
C1143 H1145 0.960 . S
C1143 H1146 0.961 . S
H1144 C1143 0.959 . S
H1145 C1143 0.960 . S
H1146 C1143 0.961 . S
O1147 Co1122 1.967 . S
O1147 C1155 1.258 . S
O1148 Co1123 1.941 . S
O1148 C1155 1.266 . S
H1149 C1151 0.959 . S
H1150 C1151 0.961 . S
C1151 C1141 1.510 . S
C1151 H1149 0.959 . S
C1151 H1150 0.961 . S
C1151 H1152 0.960 . S
H1152 C1151 0.960 . S
H1153 N1133 0.862 . S
O1154 Co1122 1.920 . S
O1154 C1127 1.289 . S
C1155 O1147 1.258 . S
C1155 O1148 1.266 . S
Co1156 O1159 1.970 . S
Co1156 N1173 1.989 . S
Co1156 O1181 1.967 . S
Co1156 O1188 1.920 . S
Co1157 O1160 1.966 . S
Co1157 N1166 2.022 . S
Co1157 N1174 1.993 . S
Co1157 O1182 1.941 . S
C1158 O1159 1.258 . S
C1158 O1160 1.263 . S
O1159 Co1156 1.970 . S
O1159 C1158 1.258 . S
O1160 Co1157 1.966 . S
O1160 C1158 1.263 . S
C1161 O1162 1.235 . S
C1161 O1188 1.289 . S
O1162 C1161 1.235 . S
C1163 C1165 1.400 . S
C1163 N1166 1.351 . S
C1163 C1168 1.501 . S
C1164 C1165 1.387 . S
C1164 N1167 1.341 . S
C1165 C1163 1.400 . S
C1165 C1164 1.387 . S
N1166 Co1157 2.022 . S
N1166 C1163 1.351 . S
N1166 N1167 1.365 . S
N1167 C1164 1.341 . S
N1167 N1166 1.365 . S
N1167 H1187 0.862 . S
C1168 C1163 1.501 . S
C1168 H1169 0.961 . S
C1168 H1170 0.961 . S
C1168 H1171 0.960 . S
H1169 C1168 0.961 . S
H1170 C1168 0.961 . S
H1171 C1168 0.960 . S
C1172 N1173 1.342 . S
C1172 C1176 1.401 . S
C1172 C1177 1.499 . S
N1173 Co1156 1.989 . S
N1173 C1172 1.342 . S
N1173 N1174 1.388 . S
N1174 Co1157 1.993 . S
N1174 N1173 1.388 . S
N1174 C1175 1.346 . S
C1175 N1174 1.346 . S
C1175 C1176 1.396 . S
C1175 C1185 1.510 . S
C1176 C1172 1.401 . S
C1176 C1175 1.396 . S
C1177 C1172 1.499 . S
C1177 H1178 0.959 . S
C1177 H1179 0.960 . S
C1177 H1180 0.961 . S
H1178 C1177 0.959 . S
H1179 C1177 0.960 . S
H1180 C1177 0.961 . S
O1181 Co1156 1.967 . S
O1181 C1189 1.258 . S
O1182 Co1157 1.941 . S
O1182 C1189 1.266 . S
H1183 C1185 0.959 . S
H1184 C1185 0.961 . S
C1185 C1175 1.510 . S
C1185 H1183 0.959 . S
C1185 H1184 0.961 . S
C1185 H1186 0.960 . S
H1186 C1185 0.960 . S
H1187 N1167 0.862 . S
O1188 Co1156 1.920 . S
O1188 C1161 1.289 . S
C1189 O1181 1.258 . S
C1189 O1182 1.266 . S
Co1190 O1193 1.970 . S
Co1190 N1207 1.989 . S
Co1190 O1215 1.967 . S
Co1190 O1222 1.920 . S
Co1191 O1194 1.966 . S
Co1191 N1200 2.022 . S
Co1191 N1208 1.993 . S
Co1191 O1216 1.941 . S
C1192 O1193 1.258 . S
C1192 O1194 1.263 . S
O1193 Co1190 1.970 . S
O1193 C1192 1.258 . S
O1194 Co1191 1.966 . S
O1194 C1192 1.263 . S
C1195 O1196 1.235 . S
C1195 O1222 1.289 . S
O1196 C1195 1.235 . S
C1197 C1199 1.400 . S
C1197 N1200 1.351 . S
C1197 C1202 1.501 . S
C1198 C1199 1.387 . S
C1198 N1201 1.341 . S
C1199 C1197 1.400 . S
C1199 C1198 1.387 . S
N1200 Co1191 2.022 . S
N1200 C1197 1.351 . S
N1200 N1201 1.365 . S
N1201 C1198 1.341 . S
N1201 N1200 1.365 . S
N1201 H1221 0.862 . S
C1202 C1197 1.501 . S
C1202 H1203 0.961 . S
C1202 H1204 0.961 . S
C1202 H1205 0.960 . S
H1203 C1202 0.961 . S
H1204 C1202 0.961 . S
H1205 C1202 0.960 . S
C1206 N1207 1.342 . S
C1206 C1210 1.401 . S
C1206 C1211 1.499 . S
N1207 Co1190 1.989 . S
N1207 C1206 1.342 . S
N1207 N1208 1.388 . S
N1208 Co1191 1.993 . S
N1208 N1207 1.388 . S
N1208 C1209 1.346 . S
C1209 N1208 1.346 . S
C1209 C1210 1.396 . S
C1209 C1219 1.510 . S
C1210 C1206 1.401 . S
C1210 C1209 1.396 . S
C1211 C1206 1.499 . S
C1211 H1212 0.959 . S
C1211 H1213 0.960 . S
C1211 H1214 0.961 . S
H1212 C1211 0.959 . S
H1213 C1211 0.960 . S
H1214 C1211 0.961 . S
O1215 Co1190 1.967 . S
O1215 C1223 1.258 . S
O1216 Co1191 1.941 . S
O1216 C1223 1.266 . S
H1217 C1219 0.959 . S
H1218 C1219 0.961 . S
C1219 C1209 1.510 . S
C1219 H1217 0.959 . S
C1219 H1218 0.961 . S
C1219 H1220 0.960 . S
H1220 C1219 0.960 . S
H1221 N1201 0.862 . S
O1222 Co1190 1.920 . S
O1222 C1195 1.289 . S
C1223 O1215 1.258 . S
C1223 O1216 1.266 . S
Co1224 O1227 1.970 . S
Co1224 N1241 1.989 . S
Co1224 O1249 1.967 . S
Co1224 O1256 1.920 . S
Co1225 O1228 1.966 . S
Co1225 N1234 2.022 . S
Co1225 N1242 1.993 . S
Co1225 O1250 1.941 . S
C1226 O1227 1.258 . S
C1226 O1228 1.263 . S
O1227 Co1224 1.970 . S
O1227 C1226 1.258 . S
O1228 Co1225 1.966 . S
O1228 C1226 1.263 . S
C1229 O1230 1.235 . S
C1229 O1256 1.289 . S
O1230 C1229 1.235 . S
C1231 C1233 1.400 . S
C1231 N1234 1.351 . S
C1231 C1236 1.501 . S
C1232 C1233 1.387 . S
C1232 N1235 1.341 . S
C1233 C1231 1.400 . S
C1233 C1232 1.387 . S
N1234 Co1225 2.022 . S
N1234 C1231 1.351 . S
N1234 N1235 1.365 . S
N1235 C1232 1.341 . S
N1235 N1234 1.365 . S
N1235 H1255 0.862 . S
C1236 C1231 1.501 . S
C1236 H1237 0.961 . S
C1236 H1238 0.961 . S
C1236 H1239 0.960 . S
H1237 C1236 0.961 . S
H1238 C1236 0.961 . S
H1239 C1236 0.960 . S
C1240 N1241 1.342 . S
C1240 C1244 1.401 . S
C1240 C1245 1.499 . S
N1241 Co1224 1.989 . S
N1241 C1240 1.342 . S
N1241 N1242 1.388 . S
N1242 Co1225 1.993 . S
N1242 N1241 1.388 . S
N1242 C1243 1.346 . S
C1243 N1242 1.346 . S
C1243 C1244 1.396 . S
C1243 C1253 1.510 . S
C1244 C1240 1.401 . S
C1244 C1243 1.396 . S
C1245 C1240 1.499 . S
C1245 H1246 0.959 . S
C1245 H1247 0.960 . S
C1245 H1248 0.961 . S
H1246 C1245 0.959 . S
H1247 C1245 0.960 . S
H1248 C1245 0.961 . S
O1249 Co1224 1.967 . S
O1249 C1257 1.258 . S
O1250 Co1225 1.941 . S
O1250 C1257 1.266 . S
H1251 C1253 0.959 . S
H1252 C1253 0.961 . S
C1253 C1243 1.510 . S
C1253 H1251 0.959 . S
C1253 H1252 0.961 . S
C1253 H1254 0.960 . S
H1254 C1253 0.960 . S
H1255 N1235 0.862 . S
O1256 Co1224 1.920 . S
O1256 C1229 1.289 . S
C1257 O1249 1.258 . S
C1257 O1250 1.266 . S
Co1258 O1261 1.970 . S
Co1258 N1275 1.989 . S
Co1258 O1283 1.967 . S
Co1258 O1290 1.920 . S
Co1259 O1262 1.966 . S
Co1259 N1268 2.022 . S
Co1259 N1276 1.993 . S
Co1259 O1284 1.941 . S
C1260 O1261 1.258 . S
C1260 O1262 1.263 . S
O1261 Co1258 1.970 . S
O1261 C1260 1.258 . S
O1262 Co1259 1.966 . S
O1262 C1260 1.263 . S
C1263 O1264 1.235 . S
C1263 O1290 1.289 . S
O1264 C1263 1.235 . S
C1265 C1267 1.400 . S
C1265 N1268 1.351 . S
C1265 C1270 1.501 . S
C1266 C1267 1.387 . S
C1266 N1269 1.341 . S
C1267 C1265 1.400 . S
C1267 C1266 1.387 . S
N1268 Co1259 2.022 . S
N1268 C1265 1.351 . S
N1268 N1269 1.365 . S
N1269 C1266 1.341 . S
N1269 N1268 1.365 . S
N1269 H1289 0.862 . S
C1270 C1265 1.501 . S
C1270 H1271 0.961 . S
C1270 H1272 0.961 . S
C1270 H1273 0.960 . S
H1271 C1270 0.961 . S
H1272 C1270 0.961 . S
H1273 C1270 0.960 . S
C1274 N1275 1.342 . S
C1274 C1278 1.401 . S
C1274 C1279 1.499 . S
N1275 Co1258 1.989 . S
N1275 C1274 1.342 . S
N1275 N1276 1.388 . S
N1276 Co1259 1.993 . S
N1276 N1275 1.388 . S
N1276 C1277 1.346 . S
C1277 N1276 1.346 . S
C1277 C1278 1.396 . S
C1277 C1287 1.510 . S
C1278 C1274 1.401 . S
C1278 C1277 1.396 . S
C1279 C1274 1.499 . S
C1279 H1280 0.959 . S
C1279 H1281 0.960 . S
C1279 H1282 0.961 . S
H1280 C1279 0.959 . S
H1281 C1279 0.960 . S
H1282 C1279 0.961 . S
O1283 Co1258 1.967 . S
O1283 C1291 1.258 . S
O1284 Co1259 1.941 . S
O1284 C1291 1.266 . S
H1285 C1287 0.959 . S
H1286 C1287 0.961 . S
C1287 C1277 1.510 . S
C1287 H1285 0.959 . S
C1287 H1286 0.961 . S
C1287 H1288 0.960 . S
H1288 C1287 0.960 . S
H1289 N1269 0.862 . S
O1290 Co1258 1.920 . S
O1290 C1263 1.289 . S
C1291 O1283 1.258 . S
C1291 O1284 1.266 . S
Co1292 O1295 1.970 . S
Co1292 N1309 1.989 . S
Co1292 O1317 1.967 . S
Co1292 O1324 1.920 . S
Co1293 O1296 1.966 . S
Co1293 N1302 2.022 . S
Co1293 N1310 1.993 . S
Co1293 O1318 1.941 . S
C1294 O1295 1.258 . S
C1294 O1296 1.263 . S
O1295 Co1292 1.970 . S
O1295 C1294 1.258 . S
O1296 Co1293 1.966 . S
O1296 C1294 1.263 . S
C1297 O1298 1.235 . S
C1297 O1324 1.289 . S
O1298 C1297 1.235 . S
C1299 C1301 1.400 . S
C1299 N1302 1.351 . S
C1299 C1304 1.501 . S
C1300 C1301 1.387 . S
C1300 N1303 1.341 . S
C1301 C1299 1.400 . S
C1301 C1300 1.387 . S
N1302 Co1293 2.022 . S
N1302 C1299 1.351 . S
N1302 N1303 1.365 . S
N1303 C1300 1.341 . S
N1303 N1302 1.365 . S
N1303 H1323 0.862 . S
C1304 C1299 1.501 . S
C1304 H1305 0.961 . S
C1304 H1306 0.961 . S
C1304 H1307 0.960 . S
H1305 C1304 0.961 . S
H1306 C1304 0.961 . S
H1307 C1304 0.960 . S
C1308 N1309 1.342 . S
C1308 C1312 1.401 . S
C1308 C1313 1.499 . S
N1309 Co1292 1.989 . S
N1309 C1308 1.342 . S
N1309 N1310 1.388 . S
N1310 Co1293 1.993 . S
N1310 N1309 1.388 . S
N1310 C1311 1.346 . S
C1311 N1310 1.346 . S
C1311 C1312 1.396 . S
C1311 C1321 1.510 . S
C1312 C1308 1.401 . S
C1312 C1311 1.396 . S
C1313 C1308 1.499 . S
C1313 H1314 0.959 . S
C1313 H1315 0.960 . S
C1313 H1316 0.961 . S
H1314 C1313 0.959 . S
H1315 C1313 0.960 . S
H1316 C1313 0.961 . S
O1317 Co1292 1.967 . S
O1317 C1325 1.258 . S
O1318 Co1293 1.941 . S
O1318 C1325 1.266 . S
H1319 C1321 0.959 . S
H1320 C1321 0.961 . S
C1321 C1311 1.510 . S
C1321 H1319 0.959 . S
C1321 H1320 0.961 . S
C1321 H1322 0.960 . S
H1322 C1321 0.960 . S
H1323 N1303 0.862 . S
O1324 Co1292 1.920 . S
O1324 C1297 1.289 . S
C1325 O1317 1.258 . S
C1325 O1318 1.266 . S
Co1326 O1329 1.970 . S
Co1326 N1343 1.989 . S
Co1326 O1351 1.967 . S
Co1326 O1358 1.920 . S
Co1327 O1330 1.966 . S
Co1327 N1336 2.022 . S
Co1327 N1344 1.993 . S
Co1327 O1352 1.941 . S
C1328 O1329 1.258 . S
C1328 O1330 1.263 . S
O1329 Co1326 1.970 . S
O1329 C1328 1.258 . S
O1330 Co1327 1.966 . S
O1330 C1328 1.263 . S
C1331 O1332 1.235 . S
C1331 O1358 1.289 . S
O1332 C1331 1.235 . S
C1333 C1335 1.400 . S
C1333 N1336 1.351 . S
C1333 C1338 1.501 . S
C1334 C1335 1.387 . S
C1334 N1337 1.341 . S
C1335 C1333 1.400 . S
C1335 C1334 1.387 . S
N1336 Co1327 2.022 . S
N1336 C1333 1.351 . S
N1336 N1337 1.365 . S
N1337 C1334 1.341 . S
N1337 N1336 1.365 . S
N1337 H1357 0.862 . S
C1338 C1333 1.501 . S
C1338 H1339 0.961 . S
C1338 H1340 0.961 . S
C1338 H1341 0.960 . S
H1339 C1338 0.961 . S
H1340 C1338 0.961 . S
H1341 C1338 0.960 . S
C1342 N1343 1.342 . S
C1342 C1346 1.401 . S
C1342 C1347 1.499 . S
N1343 Co1326 1.989 . S
N1343 C1342 1.342 . S
N1343 N1344 1.388 . S
N1344 Co1327 1.993 . S
N1344 N1343 1.388 . S
N1344 C1345 1.346 . S
C1345 N1344 1.346 . S
C1345 C1346 1.396 . S
C1345 C1355 1.510 . S
C1346 C1342 1.401 . S
C1346 C1345 1.396 . S
C1347 C1342 1.499 . S
C1347 H1348 0.959 . S
C1347 H1349 0.960 . S
C1347 H1350 0.961 . S
H1348 C1347 0.959 . S
H1349 C1347 0.960 . S
H1350 C1347 0.961 . S
O1351 Co1326 1.967 . S
O1351 C1359 1.258 . S
O1352 Co1327 1.941 . S
O1352 C1359 1.266 . S
H1353 C1355 0.959 . S
H1354 C1355 0.961 . S
C1355 C1345 1.510 . S
C1355 H1353 0.959 . S
C1355 H1354 0.961 . S
C1355 H1356 0.960 . S
H1356 C1355 0.960 . S
H1357 N1337 0.862 . S
O1358 Co1326 1.920 . S
O1358 C1331 1.289 . S
C1359 O1351 1.258 . S
C1359 O1352 1.266 . S
Co1360 O1363 1.970 . S
Co1360 N1377 1.989 . S
Co1360 O1385 1.967 . S
Co1360 O1392 1.920 . S
Co1361 O1364 1.966 . S
Co1361 N1370 2.022 . S
Co1361 N1378 1.993 . S
Co1361 O1386 1.941 . S
C1362 O1363 1.258 . S
C1362 O1364 1.263 . S
O1363 Co1360 1.970 . S
O1363 C1362 1.258 . S
O1364 Co1361 1.966 . S
O1364 C1362 1.263 . S
C1365 O1366 1.235 . S
C1365 O1392 1.289 . S
O1366 C1365 1.235 . S
C1367 C1369 1.400 . S
C1367 N1370 1.351 . S
C1367 C1372 1.501 . S
C1368 C1369 1.387 . S
C1368 N1371 1.341 . S
C1369 C1367 1.400 . S
C1369 C1368 1.387 . S
N1370 Co1361 2.022 . S
N1370 C1367 1.351 . S
N1370 N1371 1.365 . S
N1371 C1368 1.341 . S
N1371 N1370 1.365 . S
N1371 H1391 0.862 . S
C1372 C1367 1.501 . S
C1372 H1373 0.961 . S
C1372 H1374 0.961 . S
C1372 H1375 0.960 . S
H1373 C1372 0.961 . S
H1374 C1372 0.961 . S
H1375 C1372 0.960 . S
C1376 N1377 1.342 . S
C1376 C1380 1.401 . S
C1376 C1381 1.499 . S
N1377 Co1360 1.989 . S
N1377 C1376 1.342 . S
N1377 N1378 1.388 . S
N1378 Co1361 1.993 . S
N1378 N1377 1.388 . S
N1378 C1379 1.346 . S
C1379 N1378 1.346 . S
C1379 C1380 1.396 . S
C1379 C1389 1.510 . S
C1380 C1376 1.401 . S
C1380 C1379 1.396 . S
C1381 C1376 1.499 . S
C1381 H1382 0.959 . S
C1381 H1383 0.960 . S
C1381 H1384 0.961 . S
H1382 C1381 0.959 . S
H1383 C1381 0.960 . S
H1384 C1381 0.961 . S
O1385 Co1360 1.967 . S
O1385 C1393 1.258 . S
O1386 Co1361 1.941 . S
O1386 C1393 1.266 . S
H1387 C1389 0.959 . S
H1388 C1389 0.961 . S
C1389 C1379 1.510 . S
C1389 H1387 0.959 . S
C1389 H1388 0.961 . S
C1389 H1390 0.960 . S
H1390 C1389 0.960 . S
H1391 N1371 0.862 . S
O1392 Co1360 1.920 . S
O1392 C1365 1.289 . S
C1393 O1385 1.258 . S
C1393 O1386 1.266 . S
Co1394 O1397 1.970 . S
Co1394 N1411 1.989 . S
Co1394 O1419 1.967 . S
Co1394 O1426 1.920 . S
Co1395 O1398 1.966 . S
Co1395 N1404 2.022 . S
Co1395 N1412 1.993 . S
Co1395 O1420 1.941 . S
C1396 O1397 1.258 . S
C1396 O1398 1.263 . S
O1397 Co1394 1.970 . S
O1397 C1396 1.258 . S
O1398 Co1395 1.966 . S
O1398 C1396 1.263 . S
C1399 O1400 1.235 . S
C1399 O1426 1.289 . S
O1400 C1399 1.235 . S
C1401 C1403 1.400 . S
C1401 N1404 1.351 . S
C1401 C1406 1.501 . S
C1402 C1403 1.387 . S
C1402 N1405 1.341 . S
C1403 C1401 1.400 . S
C1403 C1402 1.387 . S
N1404 Co1395 2.022 . S
N1404 C1401 1.351 . S
N1404 N1405 1.365 . S
N1405 C1402 1.341 . S
N1405 N1404 1.365 . S
N1405 H1425 0.862 . S
C1406 C1401 1.501 . S
C1406 H1407 0.961 . S
C1406 H1408 0.961 . S
C1406 H1409 0.960 . S
H1407 C1406 0.961 . S
H1408 C1406 0.961 . S
H1409 C1406 0.960 . S
C1410 N1411 1.342 . S
C1410 C1414 1.401 . S
C1410 C1415 1.499 . S
N1411 Co1394 1.989 . S
N1411 C1410 1.342 . S
N1411 N1412 1.388 . S
N1412 Co1395 1.993 . S
N1412 N1411 1.388 . S
N1412 C1413 1.346 . S
C1413 N1412 1.346 . S
C1413 C1414 1.396 . S
C1413 C1423 1.510 . S
C1414 C1410 1.401 . S
C1414 C1413 1.396 . S
C1415 C1410 1.499 . S
C1415 H1416 0.959 . S
C1415 H1417 0.960 . S
C1415 H1418 0.961 . S
H1416 C1415 0.959 . S
H1417 C1415 0.960 . S
H1418 C1415 0.961 . S
O1419 Co1394 1.967 . S
O1419 C1427 1.258 . S
O1420 Co1395 1.941 . S
O1420 C1427 1.266 . S
H1421 C1423 0.959 . S
H1422 C1423 0.961 . S
C1423 C1413 1.510 . S
C1423 H1421 0.959 . S
C1423 H1422 0.961 . S
C1423 H1424 0.960 . S
H1424 C1423 0.960 . S
H1425 N1405 0.862 . S
O1426 Co1394 1.920 . S
O1426 C1399 1.289 . S
C1427 O1419 1.258 . S
C1427 O1420 1.266 . S
Co1428 O1431 1.970 . S
Co1428 N1445 1.989 . S
Co1428 O1453 1.967 . S
Co1428 O1460 1.920 . S
Co1429 O1432 1.966 . S
Co1429 N1438 2.022 . S
Co1429 N1446 1.993 . S
Co1429 O1454 1.941 . S
C1430 O1431 1.258 . S
C1430 O1432 1.263 . S
O1431 Co1428 1.970 . S
O1431 C1430 1.258 . S
O1432 Co1429 1.966 . S
O1432 C1430 1.263 . S
C1433 O1434 1.235 . S
C1433 O1460 1.289 . S
O1434 C1433 1.235 . S
C1435 C1437 1.400 . S
C1435 N1438 1.351 . S
C1435 C1440 1.501 . S
C1436 C1437 1.387 . S
C1436 N1439 1.341 . S
C1437 C1435 1.400 . S
C1437 C1436 1.387 . S
N1438 Co1429 2.022 . S
N1438 C1435 1.351 . S
N1438 N1439 1.365 . S
N1439 C1436 1.341 . S
N1439 N1438 1.365 . S
N1439 H1459 0.862 . S
C1440 C1435 1.501 . S
C1440 H1441 0.961 . S
C1440 H1442 0.961 . S
C1440 H1443 0.960 . S
H1441 C1440 0.961 . S
H1442 C1440 0.961 . S
H1443 C1440 0.960 . S
C1444 N1445 1.342 . S
C1444 C1448 1.401 . S
C1444 C1449 1.499 . S
N1445 Co1428 1.989 . S
N1445 C1444 1.342 . S
N1445 N1446 1.388 . S
N1446 Co1429 1.993 . S
N1446 N1445 1.388 . S
N1446 C1447 1.346 . S
C1447 N1446 1.346 . S
C1447 C1448 1.396 . S
C1447 C1457 1.510 . S
C1448 C1444 1.401 . S
C1448 C1447 1.396 . S
C1449 C1444 1.499 . S
C1449 H1450 0.959 . S
C1449 H1451 0.960 . S
C1449 H1452 0.961 . S
H1450 C1449 0.959 . S
H1451 C1449 0.960 . S
H1452 C1449 0.961 . S
O1453 Co1428 1.967 . S
O1453 C1461 1.258 . S
O1454 Co1429 1.941 . S
O1454 C1461 1.266 . S
H1455 C1457 0.959 . S
H1456 C1457 0.961 . S
C1457 C1447 1.510 . S
C1457 H1455 0.959 . S
C1457 H1456 0.961 . S
C1457 H1458 0.960 . S
H1458 C1457 0.960 . S
H1459 N1439 0.862 . S
O1460 Co1428 1.920 . S
O1460 C1433 1.289 . S
C1461 O1453 1.258 . S
C1461 O1454 1.266 . S
Co1462 O1465 1.970 . S
Co1462 N1479 1.989 . S
Co1462 O1487 1.967 . S
Co1462 O1494 1.920 . S
Co1463 O1466 1.966 . S
Co1463 N1472 2.022 . S
Co1463 N1480 1.993 . S
Co1463 O1488 1.941 . S
C1464 O1465 1.258 . S
C1464 O1466 1.263 . S
O1465 Co1462 1.970 . S
O1465 C1464 1.258 . S
O1466 Co1463 1.966 . S
O1466 C1464 1.263 . S
C1467 O1468 1.235 . S
C1467 O1494 1.289 . S
O1468 C1467 1.235 . S
C1469 C1471 1.400 . S
C1469 N1472 1.351 . S
C1469 C1474 1.501 . S
C1470 C1471 1.387 . S
C1470 N1473 1.341 . S
C1471 C1469 1.400 . S
C1471 C1470 1.387 . S
N1472 Co1463 2.022 . S
N1472 C1469 1.351 . S
N1472 N1473 1.365 . S
N1473 C1470 1.341 . S
N1473 N1472 1.365 . S
N1473 H1493 0.862 . S
C1474 C1469 1.501 . S
C1474 H1475 0.961 . S
C1474 H1476 0.961 . S
C1474 H1477 0.960 . S
H1475 C1474 0.961 . S
H1476 C1474 0.961 . S
H1477 C1474 0.960 . S
C1478 N1479 1.342 . S
C1478 C1482 1.401 . S
C1478 C1483 1.499 . S
N1479 Co1462 1.989 . S
N1479 C1478 1.342 . S
N1479 N1480 1.388 . S
N1480 Co1463 1.993 . S
N1480 N1479 1.388 . S
N1480 C1481 1.346 . S
C1481 N1480 1.346 . S
C1481 C1482 1.396 . S
C1481 C1491 1.510 . S
C1482 C1478 1.401 . S
C1482 C1481 1.396 . S
C1483 C1478 1.499 . S
C1483 H1484 0.959 . S
C1483 H1485 0.960 . S
C1483 H1486 0.961 . S
H1484 C1483 0.959 . S
H1485 C1483 0.960 . S
H1486 C1483 0.961 . S
O1487 Co1462 1.967 . S
O1487 C1495 1.258 . S
O1488 Co1463 1.941 . S
O1488 C1495 1.266 . S
H1489 C1491 0.959 . S
H1490 C1491 0.961 . S
C1491 C1481 1.510 . S
C1491 H1489 0.959 . S
C1491 H1490 0.961 . S
C1491 H1492 0.960 . S
H1492 C1491 0.960 . S
H1493 N1473 0.862 . S
O1494 Co1462 1.920 . S
O1494 C1467 1.289 . S
C1495 O1487 1.258 . S
C1495 O1488 1.266 . S
Co1496 O1499 1.970 . S
Co1496 N1513 1.989 . S
Co1496 O1521 1.967 . S
Co1496 O1528 1.920 . S
Co1497 O1500 1.966 . S
Co1497 N1506 2.022 . S
Co1497 N1514 1.993 . S
Co1497 O1522 1.941 . S
C1498 O1499 1.258 . S
C1498 O1500 1.263 . S
O1499 Co1496 1.970 . S
O1499 C1498 1.258 . S
O1500 Co1497 1.966 . S
O1500 C1498 1.263 . S
C1501 O1502 1.235 . S
C1501 O1528 1.289 . S
O1502 C1501 1.235 . S
C1503 C1505 1.400 . S
C1503 N1506 1.351 . S
C1503 C1508 1.501 . S
C1504 C1505 1.387 . S
C1504 N1507 1.341 . S
C1505 C1503 1.400 . S
C1505 C1504 1.387 . S
N1506 Co1497 2.022 . S
N1506 C1503 1.351 . S
N1506 N1507 1.365 . S
N1507 C1504 1.341 . S
N1507 N1506 1.365 . S
N1507 H1527 0.862 . S
C1508 C1503 1.501 . S
C1508 H1509 0.961 . S
C1508 H1510 0.961 . S
C1508 H1511 0.960 . S
H1509 C1508 0.961 . S
H1510 C1508 0.961 . S
H1511 C1508 0.960 . S
C1512 N1513 1.342 . S
C1512 C1516 1.401 . S
C1512 C1517 1.499 . S
N1513 Co1496 1.989 . S
N1513 C1512 1.342 . S
N1513 N1514 1.388 . S
N1514 Co1497 1.993 . S
N1514 N1513 1.388 . S
N1514 C1515 1.346 . S
C1515 N1514 1.346 . S
C1515 C1516 1.396 . S
C1515 C1525 1.510 . S
C1516 C1512 1.401 . S
C1516 C1515 1.396 . S
C1517 C1512 1.499 . S
C1517 H1518 0.959 . S
C1517 H1519 0.960 . S
C1517 H1520 0.961 . S
H1518 C1517 0.959 . S
H1519 C1517 0.960 . S
H1520 C1517 0.961 . S
O1521 Co1496 1.967 . S
O1521 C1529 1.258 . S
O1522 Co1497 1.941 . S
O1522 C1529 1.266 . S
H1523 C1525 0.959 . S
H1524 C1525 0.961 . S
C1525 C1515 1.510 . S
C1525 H1523 0.959 . S
C1525 H1524 0.961 . S
C1525 H1526 0.960 . S
H1526 C1525 0.960 . S
H1527 N1507 0.862 . S
O1528 Co1496 1.920 . S
O1528 C1501 1.289 . S
C1529 O1521 1.258 . S
C1529 O1522 1.266 . S
Co1530 O1533 1.970 . S
Co1530 N1547 1.989 . S
Co1530 O1555 1.967 . S
Co1530 O1562 1.920 . S
Co1531 O1534 1.966 . S
Co1531 N1540 2.022 . S
Co1531 N1548 1.993 . S
Co1531 O1556 1.941 . S
C1532 O1533 1.258 . S
C1532 O1534 1.263 . S
O1533 Co1530 1.970 . S
O1533 C1532 1.258 . S
O1534 Co1531 1.966 . S
O1534 C1532 1.263 . S
C1535 O1536 1.235 . S
C1535 O1562 1.289 . S
O1536 C1535 1.235 . S
C1537 C1539 1.400 . S
C1537 N1540 1.351 . S
C1537 C1542 1.501 . S
C1538 C1539 1.387 . S
C1538 N1541 1.341 . S
C1539 C1537 1.400 . S
C1539 C1538 1.387 . S
N1540 Co1531 2.022 . S
N1540 C1537 1.351 . S
N1540 N1541 1.365 . S
N1541 C1538 1.341 . S
N1541 N1540 1.365 . S
N1541 H1561 0.862 . S
C1542 C1537 1.501 . S
C1542 H1543 0.961 . S
C1542 H1544 0.961 . S
C1542 H1545 0.960 . S
H1543 C1542 0.961 . S
H1544 C1542 0.961 . S
H1545 C1542 0.960 . S
C1546 N1547 1.342 . S
C1546 C1550 1.401 . S
C1546 C1551 1.499 . S
N1547 Co1530 1.989 . S
N1547 C1546 1.342 . S
N1547 N1548 1.388 . S
N1548 Co1531 1.993 . S
N1548 N1547 1.388 . S
N1548 C1549 1.346 . S
C1549 N1548 1.346 . S
C1549 C1550 1.396 . S
C1549 C1559 1.510 . S
C1550 C1546 1.401 . S
C1550 C1549 1.396 . S
C1551 C1546 1.499 . S
C1551 H1552 0.959 . S
C1551 H1553 0.960 . S
C1551 H1554 0.961 . S
H1552 C1551 0.959 . S
H1553 C1551 0.960 . S
H1554 C1551 0.961 . S
O1555 Co1530 1.967 . S
O1555 C1563 1.258 . S
O1556 Co1531 1.941 . S
O1556 C1563 1.266 . S
H1557 C1559 0.959 . S
H1558 C1559 0.961 . S
C1559 C1549 1.510 . S
C1559 H1557 0.959 . S
C1559 H1558 0.961 . S
C1559 H1560 0.960 . S
H1560 C1559 0.960 . S
H1561 N1541 0.862 . S
O1562 Co1530 1.920 . S
O1562 C1535 1.289 . S
C1563 O1555 1.258 . S
C1563 O1556 1.266 . S
Co1564 O1567 1.970 . S
Co1564 N1581 1.989 . S
Co1564 O1589 1.967 . S
Co1564 O1596 1.920 . S
Co1565 O1568 1.966 . S
Co1565 N1574 2.022 . S
Co1565 N1582 1.993 . S
Co1565 O1590 1.941 . S
C1566 O1567 1.258 . S
C1566 O1568 1.263 . S
O1567 Co1564 1.970 . S
O1567 C1566 1.258 . S
O1568 Co1565 1.966 . S
O1568 C1566 1.263 . S
C1569 O1570 1.235 . S
C1569 O1596 1.289 . S
O1570 C1569 1.235 . S
C1571 C1573 1.400 . S
C1571 N1574 1.351 . S
C1571 C1576 1.501 . S
C1572 C1573 1.387 . S
C1572 N1575 1.341 . S
C1573 C1571 1.400 . S
C1573 C1572 1.387 . S
N1574 Co1565 2.022 . S
N1574 C1571 1.351 . S
N1574 N1575 1.365 . S
N1575 C1572 1.341 . S
N1575 N1574 1.365 . S
N1575 H1595 0.862 . S
C1576 C1571 1.501 . S
C1576 H1577 0.961 . S
C1576 H1578 0.961 . S
C1576 H1579 0.960 . S
H1577 C1576 0.961 . S
H1578 C1576 0.961 . S
H1579 C1576 0.960 . S
C1580 N1581 1.342 . S
C1580 C1584 1.401 . S
C1580 C1585 1.499 . S
N1581 Co1564 1.989 . S
N1581 C1580 1.342 . S
N1581 N1582 1.388 . S
N1582 Co1565 1.993 . S
N1582 N1581 1.388 . S
N1582 C1583 1.346 . S
C1583 N1582 1.346 . S
C1583 C1584 1.396 . S
C1583 C1593 1.510 . S
C1584 C1580 1.401 . S
C1584 C1583 1.396 . S
C1585 C1580 1.499 . S
C1585 H1586 0.959 . S
C1585 H1587 0.960 . S
C1585 H1588 0.961 . S
H1586 C1585 0.959 . S
H1587 C1585 0.960 . S
H1588 C1585 0.961 . S
O1589 Co1564 1.967 . S
O1589 C1597 1.258 . S
O1590 Co1565 1.941 . S
O1590 C1597 1.266 . S
H1591 C1593 0.959 . S
H1592 C1593 0.961 . S
C1593 C1583 1.510 . S
C1593 H1591 0.959 . S
C1593 H1592 0.961 . S
C1593 H1594 0.960 . S
H1594 C1593 0.960 . S
H1595 N1575 0.862 . S
O1596 Co1564 1.920 . S
O1596 C1569 1.289 . S
C1597 O1589 1.258 . S
C1597 O1590 1.266 . S
Co1598 O1601 1.970 . S
Co1598 N1615 1.989 . S
Co1598 O1623 1.967 . S
Co1598 O1630 1.920 . S
Co1599 O1602 1.966 . S
Co1599 N1608 2.022 . S
Co1599 N1616 1.993 . S
Co1599 O1624 1.941 . S
C1600 O1601 1.258 . S
C1600 O1602 1.263 . S
O1601 Co1598 1.970 . S
O1601 C1600 1.258 . S
O1602 Co1599 1.966 . S
O1602 C1600 1.263 . S
C1603 O1604 1.235 . S
C1603 O1630 1.289 . S
O1604 C1603 1.235 . S
C1605 C1607 1.400 . S
C1605 N1608 1.351 . S
C1605 C1610 1.501 . S
C1606 C1607 1.387 . S
C1606 N1609 1.341 . S
C1607 C1605 1.400 . S
C1607 C1606 1.387 . S
N1608 Co1599 2.022 . S
N1608 C1605 1.351 . S
N1608 N1609 1.365 . S
N1609 C1606 1.341 . S
N1609 N1608 1.365 . S
N1609 H1629 0.862 . S
C1610 C1605 1.501 . S
C1610 H1611 0.961 . S
C1610 H1612 0.961 . S
C1610 H1613 0.960 . S
H1611 C1610 0.961 . S
H1612 C1610 0.961 . S
H1613 C1610 0.960 . S
C1614 N1615 1.342 . S
C1614 C1618 1.401 . S
C1614 C1619 1.499 . S
N1615 Co1598 1.989 . S
N1615 C1614 1.342 . S
N1615 N1616 1.388 . S
N1616 Co1599 1.993 . S
N1616 N1615 1.388 . S
N1616 C1617 1.346 . S
C1617 N1616 1.346 . S
C1617 C1618 1.396 . S
C1617 C1627 1.510 . S
C1618 C1614 1.401 . S
C1618 C1617 1.396 . S
C1619 C1614 1.499 . S
C1619 H1620 0.959 . S
C1619 H1621 0.960 . S
C1619 H1622 0.961 . S
H1620 C1619 0.959 . S
H1621 C1619 0.960 . S
H1622 C1619 0.961 . S
O1623 Co1598 1.967 . S
O1623 C1631 1.258 . S
O1624 Co1599 1.941 . S
O1624 C1631 1.266 . S
H1625 C1627 0.959 . S
H1626 C1627 0.961 . S
C1627 C1617 1.510 . S
C1627 H1625 0.959 . S
C1627 H1626 0.961 . S
C1627 H1628 0.960 . S
H1628 C1627 0.960 . S
H1629 N1609 0.862 . S
O1630 Co1598 1.920 . S
O1630 C1603 1.289 . S
C1631 O1623 1.258 . S
C1631 O1624 1.266 . S
H1632 C1640 0.950 . S
H1633 C1645 0.950 . S
H1634 C1642 0.950 . S
H1635 C1644 0.950 . S
H1636 C1646 0.950 . S
H1637 C1648 0.950 . S
H1638 C1650 0.950 . S
H1639 C1651 0.950 . S
C1640 H1632 0.950 . S
C1640 C1641 1.386 . S
C1640 C1642 1.391 . S
C1641 C1640 1.386 . S
C1641 C1645 1.393 . S
C1642 H1634 0.950 . S
C1642 C1640 1.391 . S
C1642 C1643 1.400 . S
C1643 C1642 1.400 . S
C1643 C1644 1.398 . S
C1643 C1649 1.491 . S
C1644 H1635 0.950 . S
C1644 C1643 1.398 . S
C1644 C1645 1.391 . S
C1645 H1633 0.950 . S
C1645 C1641 1.393 . S
C1645 C1644 1.391 . S
C1646 H1636 0.950 . S
C1646 C1647 1.386 . S
C1646 C1648 1.391 . S
C1647 C1646 1.386 . S
C1647 C1651 1.393 . S
C1648 H1637 0.950 . S
C1648 C1646 1.391 . S
C1648 C1649 1.400 . S
C1649 C1643 1.491 . S
C1649 C1648 1.400 . S
C1649 C1650 1.398 . S
C1650 H1638 0.950 . S
C1650 C1649 1.398 . S
C1650 C1651 1.391 . S
C1651 H1639 0.950 . S
C1651 C1647 1.393 . S
C1651 C1650 1.391 . S
H1652 C1660 0.950 . S
H1653 C1665 0.950 . S
H1654 C1662 0.950 . S
H1655 C1664 0.950 . S
H1656 C1666 0.950 . S
H1657 C1668 0.950 . S
H1658 C1670 0.950 . S
H1659 C1671 0.950 . S
C1660 H1652 0.950 . S
C1660 C1661 1.386 . S
C1660 C1662 1.391 . S
C1661 C1660 1.386 . S
C1661 C1665 1.393 . S
C1662 H1654 0.950 . S
C1662 C1660 1.391 . S
C1662 C1663 1.400 . S
C1663 C1662 1.400 . S
C1663 C1664 1.398 . S
C1663 C1669 1.491 . S
C1664 H1655 0.950 . S
C1664 C1663 1.398 . S
C1664 C1665 1.391 . S
C1665 H1653 0.950 . S
C1665 C1661 1.393 . S
C1665 C1664 1.391 . S
C1666 H1656 0.950 . S
C1666 C1667 1.386 . S
C1666 C1668 1.391 . S
C1667 C1666 1.386 . S
C1667 C1671 1.393 . S
C1668 H1657 0.950 . S
C1668 C1666 1.391 . S
C1668 C1669 1.400 . S
C1669 C1663 1.491 . S
C1669 C1668 1.400 . S
C1669 C1670 1.398 . S
C1670 H1658 0.950 . S
C1670 C1669 1.398 . S
C1670 C1671 1.391 . S
C1671 H1659 0.950 . S
C1671 C1667 1.393 . S
C1671 C1670 1.391 . S
H1672 C1680 0.950 . S
H1673 C1685 0.950 . S
H1674 C1682 0.950 . S
H1675 C1684 0.950 . S
H1676 C1686 0.950 . S
H1677 C1688 0.950 . S
H1678 C1690 0.950 . S
H1679 C1691 0.950 . S
C1680 H1672 0.950 . S
C1680 C1681 1.386 . S
C1680 C1682 1.391 . S
C1681 C1680 1.386 . S
C1681 C1685 1.393 . S
C1682 H1674 0.950 . S
C1682 C1680 1.391 . S
C1682 C1683 1.400 . S
C1683 C1682 1.400 . S
C1683 C1684 1.398 . S
C1683 C1689 1.491 . S
C1684 H1675 0.950 . S
C1684 C1683 1.398 . S
C1684 C1685 1.391 . S
C1685 H1673 0.950 . S
C1685 C1681 1.393 . S
C1685 C1684 1.391 . S
C1686 H1676 0.950 . S
C1686 C1687 1.386 . S
C1686 C1688 1.391 . S
C1687 C1686 1.386 . S
C1687 C1691 1.393 . S
C1688 H1677 0.950 . S
C1688 C1686 1.391 . S
C1688 C1689 1.400 . S
C1689 C1683 1.491 . S
C1689 C1688 1.400 . S
C1689 C1690 1.398 . S
C1690 H1678 0.950 . S
C1690 C1689 1.398 . S
C1690 C1691 1.391 . S
C1691 H1679 0.950 . S
C1691 C1687 1.393 . S
C1691 C1690 1.391 . S
H1692 C1700 0.950 . S
H1693 C1705 0.950 . S
H1694 C1702 0.950 . S
H1695 C1704 0.950 . S
H1696 C1706 0.950 . S
H1697 C1708 0.950 . S
H1698 C1710 0.950 . S
H1699 C1711 0.950 . S
C1700 H1692 0.950 . S
C1700 C1701 1.386 . S
C1700 C1702 1.391 . S
C1701 C1700 1.386 . S
C1701 C1705 1.393 . S
C1702 H1694 0.950 . S
C1702 C1700 1.391 . S
C1702 C1703 1.400 . S
C1703 C1702 1.400 . S
C1703 C1704 1.398 . S
C1703 C1709 1.491 . S
C1704 H1695 0.950 . S
C1704 C1703 1.398 . S
C1704 C1705 1.391 . S
C1705 H1693 0.950 . S
C1705 C1701 1.393 . S
C1705 C1704 1.391 . S
C1706 H1696 0.950 . S
C1706 C1707 1.386 . S
C1706 C1708 1.391 . S
C1707 C1706 1.386 . S
C1707 C1711 1.393 . S
C1708 H1697 0.950 . S
C1708 C1706 1.391 . S
C1708 C1709 1.400 . S
C1709 C1703 1.491 . S
C1709 C1708 1.400 . S
C1709 C1710 1.398 . S
C1710 H1698 0.950 . S
C1710 C1709 1.398 . S
C1710 C1711 1.391 . S
C1711 H1699 0.950 . S
C1711 C1707 1.393 . S
C1711 C1710 1.391 . S
H1712 C1720 0.950 . S
H1713 C1725 0.950 . S
H1714 C1722 0.950 . S
H1715 C1724 0.950 . S
H1716 C1726 0.950 . S
H1717 C1728 0.950 . S
H1718 C1730 0.950 . S
H1719 C1731 0.950 . S
C1720 H1712 0.950 . S
C1720 C1721 1.386 . S
C1720 C1722 1.391 . S
C1721 C1720 1.386 . S
C1721 C1725 1.393 . S
C1722 H1714 0.950 . S
C1722 C1720 1.391 . S
C1722 C1723 1.400 . S
C1723 C1722 1.400 . S
C1723 C1724 1.398 . S
C1723 C1729 1.491 . S
C1724 H1715 0.950 . S
C1724 C1723 1.398 . S
C1724 C1725 1.391 . S
C1725 H1713 0.950 . S
C1725 C1721 1.393 . S
C1725 C1724 1.391 . S
C1726 H1716 0.950 . S
C1726 C1727 1.386 . S
C1726 C1728 1.391 . S
C1727 C1726 1.386 . S
C1727 C1731 1.393 . S
C1728 H1717 0.950 . S
C1728 C1726 1.391 . S
C1728 C1729 1.400 . S
C1729 C1723 1.491 . S
C1729 C1728 1.400 . S
C1729 C1730 1.398 . S
C1730 H1718 0.950 . S
C1730 C1729 1.398 . S
C1730 C1731 1.391 . S
C1731 H1719 0.950 . S
C1731 C1727 1.393 . S
C1731 C1730 1.391 . S
H1732 C1740 0.950 . S
H1733 C1745 0.950 . S
H1734 C1742 0.950 . S
H1735 C1744 0.950 . S
H1736 C1746 0.950 . S
H1737 C1748 0.950 . S
H1738 C1750 0.950 . S
H1739 C1751 0.947 1_455 S
C1740 H1732 0.950 . S
C1740 C1741 1.386 . S
C1740 C1742 1.391 . S
C1741 C1740 1.386 . S
C1741 C1745 1.393 . S
C1742 H1734 0.950 . S
C1742 C1740 1.391 . S
C1742 C1743 1.400 . S
C1743 C1742 1.400 . S
C1743 C1744 1.398 . S
C1743 C1749 1.491 . S
C1744 H1735 0.950 . S
C1744 C1743 1.398 . S
C1744 C1745 1.391 . S
C1745 H1733 0.950 . S
C1745 C1741 1.393 . S
C1745 C1744 1.391 . S
C1746 H1736 0.950 . S
C1746 C1747 1.386 . S
C1746 C1748 1.391 1_455 S
C1747 C1746 1.386 . S
C1747 C1751 1.389 1_455 S
C1748 H1737 0.950 . S
C1748 C1746 1.391 1_655 S
C1748 C1749 1.400 . S
C1749 C1743 1.491 . S
C1749 C1748 1.400 . S
C1749 C1750 1.398 . S
C1750 H1738 0.950 . S
C1750 C1749 1.398 . S
C1750 C1751 1.397 . S
C1751 H1739 0.947 1_655 S
C1751 C1747 1.389 1_655 S
C1751 C1750 1.397 . S
H1752 C1760 0.950 . S
H1753 C1765 0.950 . S
H1754 C1762 0.950 . S
H1755 C1764 0.950 . S
H1756 C1766 0.950 . S
H1757 C1768 0.950 . S
H1758 C1770 0.950 . S
H1759 C1771 0.950 . S
C1760 H1752 0.950 . S
C1760 C1761 1.386 . S
C1760 C1762 1.391 . S
C1761 C1760 1.386 . S
C1761 C1765 1.393 . S
C1762 H1754 0.950 . S
C1762 C1760 1.391 . S
C1762 C1763 1.400 . S
C1763 C1762 1.400 . S
C1763 C1764 1.398 . S
C1763 C1769 1.491 . S
C1764 H1755 0.950 . S
C1764 C1763 1.398 . S
C1764 C1765 1.391 . S
C1765 H1753 0.950 . S
C1765 C1761 1.393 . S
C1765 C1764 1.391 . S
C1766 H1756 0.950 . S
C1766 C1767 1.386 . S
C1766 C1768 1.391 . S
C1767 C1766 1.386 . S
C1767 C1771 1.393 . S
C1768 H1757 0.950 . S
C1768 C1766 1.391 . S
C1768 C1769 1.400 . S
C1769 C1763 1.491 . S
C1769 C1768 1.400 . S
C1769 C1770 1.398 . S
C1770 H1758 0.950 . S
C1770 C1769 1.398 . S
C1770 C1771 1.391 . S
C1771 H1759 0.950 . S
C1771 C1767 1.393 . S
C1771 C1770 1.391 . S
H1772 C1780 0.950 . S
H1773 C1785 0.950 . S
H1774 C1782 0.950 . S
H1775 C1784 0.950 . S
H1776 C1786 0.950 . S
H1777 C1788 0.950 . S
H1778 C1790 0.950 . S
H1779 C1791 0.950 . S
C1780 H1772 0.950 . S
C1780 C1781 1.386 . S
C1780 C1782 1.391 1_655 S
C1781 C1780 1.386 . S
C1781 C1785 1.393 . S
C1782 H1774 0.950 . S
C1782 C1780 1.391 1_455 S
C1782 C1783 1.400 . S
C1783 C1782 1.400 . S
C1783 C1784 1.398 . S
C1783 C1789 1.491 . S
C1784 H1775 0.950 . S
C1784 C1783 1.398 . S
C1784 C1785 1.391 1_455 S
C1785 H1773 0.950 . S
C1785 C1781 1.393 . S
C1785 C1784 1.391 1_655 S
C1786 H1776 0.950 . S
C1786 C1787 1.386 . S
C1786 C1788 1.391 . S
C1787 C1786 1.386 . S
C1787 C1791 1.393 . S
C1788 H1777 0.950 . S
C1788 C1786 1.391 . S
C1788 C1789 1.400 . S
C1789 C1783 1.491 . S
C1789 C1788 1.400 . S
C1789 C1790 1.398 . S
C1790 H1778 0.950 . S
C1790 C1789 1.398 . S
C1790 C1791 1.391 . S
C1791 H1779 0.950 . S
C1791 C1787 1.393 . S
C1791 C1790 1.391 . S
H1792 C1800 0.950 . S
H1793 C1805 0.950 . S
H1794 C1802 0.950 . S
H1795 C1804 0.950 . S
H1796 C1806 0.950 . S
H1797 C1808 0.950 . S
H1798 C1810 0.950 . S
H1799 C1811 0.950 . S
C1800 H1792 0.950 . S
C1800 C1801 1.386 . S
C1800 C1802 1.391 . S
C1801 C1800 1.386 . S
C1801 C1805 1.393 . S
C1802 H1794 0.950 . S
C1802 C1800 1.391 . S
C1802 C1803 1.400 . S
C1803 C1802 1.400 . S
C1803 C1804 1.398 . S
C1803 C1809 1.491 . S
C1804 H1795 0.950 . S
C1804 C1803 1.398 . S
C1804 C1805 1.391 . S
C1805 H1793 0.950 . S
C1805 C1801 1.393 . S
C1805 C1804 1.391 . S
C1806 H1796 0.950 . S
C1806 C1807 1.386 . S
C1806 C1808 1.391 . S
C1807 C1806 1.386 . S
C1807 C1811 1.393 . S
C1808 H1797 0.950 . S
C1808 C1806 1.391 . S
C1808 C1809 1.400 . S
C1809 C1803 1.491 . S
C1809 C1808 1.400 . S
C1809 C1810 1.398 . S
C1810 H1798 0.950 . S
C1810 C1809 1.398 . S
C1810 C1811 1.391 . S
C1811 H1799 0.950 . S
C1811 C1807 1.393 . S
C1811 C1810 1.391 . S
H1812 C1820 0.950 . S
H1813 C1825 0.950 . S
H1814 C1822 0.950 . S
H1815 C1824 0.950 . S
H1816 C1826 0.950 . S
H1817 C1828 0.950 . S
H1818 C1830 0.950 . S
H1819 C1831 0.950 . S
C1820 H1812 0.950 . S
C1820 C1821 1.386 . S
C1820 C1822 1.391 1_554 S
C1821 C1820 1.386 . S
C1821 C1825 1.393 1_554 S
C1822 H1814 0.950 . S
C1822 C1820 1.391 1_556 S
C1822 C1823 1.400 . S
C1823 C1822 1.400 . S
C1823 C1824 1.398 . S
C1823 C1829 1.491 . S
C1824 H1815 0.950 . S
C1824 C1823 1.398 . S
C1824 C1825 1.391 . S
C1825 H1813 0.950 . S
C1825 C1821 1.393 1_556 S
C1825 C1824 1.391 . S
C1826 H1816 0.950 . S
C1826 C1827 1.386 . S
C1826 C1828 1.391 . S
C1827 C1826 1.386 . S
C1827 C1831 1.393 . S
C1828 H1817 0.950 . S
C1828 C1826 1.391 . S
C1828 C1829 1.400 . S
C1829 C1823 1.491 . S
C1829 C1828 1.400 . S
C1829 C1830 1.398 . S
C1830 H1818 0.950 . S
C1830 C1829 1.398 . S
C1830 C1831 1.391 . S
C1831 H1819 0.950 . S
C1831 C1827 1.393 . S
C1831 C1830 1.391 . S
H1832 C1840 0.950 . S
H1833 C1845 0.950 . S
H1834 C1842 0.950 . S
H1835 C1844 0.950 . S
H1836 C1846 0.950 . S
H1837 C1848 0.950 . S
H1838 C1850 0.950 . S
H1839 C1851 0.950 . S
C1840 H1832 0.950 . S
C1840 C1841 1.386 . S
C1840 C1842 1.391 . S
C1841 C1840 1.386 . S
C1841 C1845 1.393 . S
C1842 H1834 0.950 . S
C1842 C1840 1.391 . S
C1842 C1843 1.400 . S
C1843 C1842 1.400 . S
C1843 C1844 1.398 . S
C1843 C1849 1.491 . S
C1844 H1835 0.950 . S
C1844 C1843 1.398 . S
C1844 C1845 1.391 . S
C1845 H1833 0.950 . S
C1845 C1841 1.393 . S
C1845 C1844 1.391 . S
C1846 H1836 0.950 . S
C1846 C1847 1.386 . S
C1846 C1848 1.391 . S
C1847 C1846 1.386 . S
C1847 C1851 1.393 . S
C1848 H1837 0.950 . S
C1848 C1846 1.391 . S
C1848 C1849 1.400 . S
C1849 C1843 1.491 . S
C1849 C1848 1.400 . S
C1849 C1850 1.398 . S
C1850 H1838 0.950 . S
C1850 C1849 1.398 . S
C1850 C1851 1.391 . S
C1851 H1839 0.950 . S
C1851 C1847 1.393 . S
C1851 C1850 1.391 . S
H1852 C1860 0.950 . S
H1853 C1865 0.950 . S
H1854 C1862 0.950 . S
H1855 C1864 0.950 . S
H1856 C1866 0.950 . S
H1857 C1868 0.950 . S
H1858 C1870 0.950 . S
H1859 C1871 0.950 . S
C1860 H1852 0.950 . S
C1860 C1861 1.386 . S
C1860 C1862 1.391 . S
C1861 C1860 1.386 . S
C1861 C1865 1.393 . S
C1862 H1854 0.950 . S
C1862 C1860 1.391 . S
C1862 C1863 1.400 . S
C1863 C1862 1.400 . S
C1863 C1864 1.398 . S
C1863 C1869 1.491 . S
C1864 H1855 0.950 . S
C1864 C1863 1.398 . S
C1864 C1865 1.391 . S
C1865 H1853 0.950 . S
C1865 C1861 1.393 . S
C1865 C1864 1.391 . S
C1866 H1856 0.950 . S
C1866 C1867 1.386 1_556 S
C1866 C1868 1.391 . S
C1867 C1866 1.386 1_554 S
C1867 C1871 1.393 . S
C1868 H1857 0.950 . S
C1868 C1866 1.391 . S
C1868 C1869 1.400 . S
C1869 C1863 1.491 . S
C1869 C1868 1.400 . S
C1869 C1870 1.398 . S
C1870 H1858 0.950 . S
C1870 C1869 1.398 . S
C1870 C1871 1.391 1_556 S
C1871 H1859 0.950 . S
C1871 C1867 1.393 . S
C1871 C1870 1.391 1_554 S
H1872 C1880 0.950 . S
H1873 C1885 0.950 . S
H1874 C1882 0.950 . S
H1875 C1884 0.950 . S
H1876 C1886 0.950 . S
H1877 C1888 0.950 . S
H1878 C1890 0.950 . S
H1879 C1891 0.950 . S
C1880 H1872 0.950 . S
C1880 C1881 1.386 . S
C1880 C1882 1.391 . S
C1881 C1880 1.386 . S
C1881 C1885 1.393 . S
C1882 H1874 0.950 . S
C1882 C1880 1.391 . S
C1882 C1883 1.400 . S
C1883 C1882 1.400 . S
C1883 C1884 1.398 . S
C1883 C1889 1.491 . S
C1884 H1875 0.950 . S
C1884 C1883 1.398 . S
C1884 C1885 1.391 . S
C1885 H1873 0.950 . S
C1885 C1881 1.393 . S
C1885 C1884 1.391 . S
C1886 H1876 0.950 . S
C1886 C1887 1.386 . S
C1886 C1888 1.391 . S
C1887 C1886 1.386 . S
C1887 C1891 1.393 . S
C1888 H1877 0.950 . S
C1888 C1886 1.391 . S
C1888 C1889 1.400 . S
C1889 C1883 1.491 . S
C1889 C1888 1.400 . S
C1889 C1890 1.398 . S
C1890 H1878 0.950 . S
C1890 C1889 1.398 . S
C1890 C1891 1.391 . S
C1891 H1879 0.950 . S
C1891 C1887 1.393 . S
C1891 C1890 1.391 . S
H1892 C1900 0.950 . S
H1893 C1905 0.950 . S
H1894 C1902 0.950 . S
H1895 C1904 0.950 . S
H1896 C1906 0.950 . S
H1897 C1908 0.950 . S
H1898 C1910 0.950 . S
H1899 C1911 0.950 . S
C1900 H1892 0.950 . S
C1900 C1901 1.386 . S
C1900 C1902 1.391 . S
C1901 C1900 1.386 . S
C1901 C1905 1.393 . S
C1902 H1894 0.950 . S
C1902 C1900 1.391 . S
C1902 C1903 1.400 . S
C1903 C1902 1.400 . S
C1903 C1904 1.398 . S
C1903 C1909 1.491 . S
C1904 H1895 0.950 . S
C1904 C1903 1.398 . S
C1904 C1905 1.391 . S
C1905 H1893 0.950 . S
C1905 C1901 1.393 . S
C1905 C1904 1.391 . S
C1906 H1896 0.950 . S
C1906 C1907 1.386 . S
C1906 C1908 1.391 1_556 S
C1907 C1906 1.386 . S
C1907 C1911 1.393 1_556 S
C1908 H1897 0.950 . S
C1908 C1906 1.391 1_554 S
C1908 C1909 1.400 . S
C1909 C1903 1.491 . S
C1909 C1908 1.400 . S
C1909 C1910 1.398 . S
C1910 H1898 0.950 . S
C1910 C1909 1.398 . S
C1910 C1911 1.391 . S
C1911 H1899 0.950 . S
C1911 C1907 1.393 1_554 S
C1911 C1910 1.391 . S
H1912 C1920 0.950 . S
H1913 C1925 0.950 . S
H1914 C1922 0.950 . S
H1915 C1924 0.950 . S
H1916 C1926 0.950 . S
H1917 C1928 0.950 . S
H1918 C1930 0.950 . S
H1919 C1931 0.950 . S
C1920 H1912 0.950 . S
C1920 C1921 1.386 . S
C1920 C1922 1.391 . S
C1921 C1920 1.386 . S
C1921 C1925 1.393 . S
C1922 H1914 0.950 . S
C1922 C1920 1.391 . S
C1922 C1923 1.400 . S
C1923 C1922 1.400 . S
C1923 C1924 1.398 . S
C1923 C1929 1.491 . S
C1924 H1915 0.950 . S
C1924 C1923 1.398 . S
C1924 C1925 1.391 . S
C1925 H1913 0.950 . S
C1925 C1921 1.393 . S
C1925 C1924 1.391 . S
C1926 H1916 0.950 . S
C1926 C1927 1.386 . S
C1926 C1928 1.391 . S
C1927 C1926 1.386 . S
C1927 C1931 1.393 . S
C1928 H1917 0.950 . S
C1928 C1926 1.391 . S
C1928 C1929 1.400 . S
C1929 C1923 1.491 . S
C1929 C1928 1.400 . S
C1929 C1930 1.398 . S
C1930 H1918 0.950 . S
C1930 C1929 1.398 . S
C1930 C1931 1.391 . S
C1931 H1919 0.950 . S
C1931 C1927 1.393 . S
C1931 C1930 1.391 . S
H1932 C1940 0.950 . S
H1933 C1945 0.948 1_556 S
H1934 C1942 0.950 . S
H1935 C1944 0.950 . S
H1936 C1946 0.950 . S
H1937 C1948 0.950 . S
H1938 C1950 0.950 . S
H1939 C1951 0.950 . S
C1940 H1932 0.950 . S
C1940 C1941 1.386 . S
C1940 C1942 1.391 1_556 S
C1941 C1940 1.386 . S
C1941 C1945 1.393 1_556 S
C1942 H1934 0.950 . S
C1942 C1940 1.391 1_554 S
C1942 C1943 1.400 . S
C1943 C1942 1.400 . S
C1943 C1944 1.398 . S
C1943 C1949 1.491 . S
C1944 H1935 0.950 . S
C1944 C1943 1.398 . S
C1944 C1945 1.391 . S
C1945 H1933 0.948 1_554 S
C1945 C1941 1.393 1_554 S
C1945 C1944 1.391 . S
C1946 H1936 0.950 . S
C1946 C1947 1.386 . S
C1946 C1948 1.391 . S
C1947 C1946 1.386 . S
C1947 C1951 1.393 . S
C1948 H1937 0.950 . S
C1948 C1946 1.391 . S
C1948 C1949 1.400 . S
C1949 C1943 1.491 . S
C1949 C1948 1.400 . S
C1949 C1950 1.398 . S
C1950 H1938 0.950 . S
C1950 C1949 1.398 . S
C1950 C1951 1.391 . S
C1951 H1939 0.950 . S
C1951 C1947 1.393 . S
C1951 C1950 1.391 . S
H1952 C1960 0.950 . S
H1953 C1965 0.950 . S
H1954 C1962 0.950 . S
H1955 C1964 0.950 . S
H1956 C1966 0.950 . S
H1957 C1968 0.950 . S
H1958 C1970 0.950 . S
H1959 C1971 0.950 . S
C1960 H1952 0.950 . S
C1960 C1961 1.386 . S
C1960 C1962 1.391 . S
C1961 C1960 1.386 . S
C1961 C1965 1.393 . S
C1962 H1954 0.950 . S
C1962 C1960 1.391 . S
C1962 C1963 1.400 . S
C1963 C1962 1.400 . S
C1963 C1964 1.398 . S
C1963 C1969 1.491 . S
C1964 H1955 0.950 . S
C1964 C1963 1.398 . S
C1964 C1965 1.391 . S
C1965 H1953 0.950 . S
C1965 C1961 1.393 . S
C1965 C1964 1.391 . S
C1966 H1956 0.950 . S
C1966 C1967 1.386 . S
C1966 C1968 1.391 . S
C1967 C1966 1.386 . S
C1967 C1971 1.393 . S
C1968 H1957 0.950 . S
C1968 C1966 1.391 . S
C1968 C1969 1.400 . S
C1969 C1963 1.491 . S
C1969 C1968 1.400 . S
C1969 C1970 1.398 . S
C1970 H1958 0.950 . S
C1970 C1969 1.398 . S
C1970 C1971 1.391 . S
C1971 H1959 0.950 . S
C1971 C1967 1.393 . S
C1971 C1970 1.391 . S
H1972 C1980 0.950 . S
H1973 C1985 0.950 . S
H1974 C1982 0.950 . S
H1975 C1984 0.950 . S
H1976 C1986 0.950 . S
H1977 C1988 0.950 . S
H1978 C1990 0.950 . S
H1979 C1991 0.950 . S
C1980 H1972 0.950 . S
C1980 C1981 1.386 . S
C1980 C1982 1.391 . S
C1981 C1980 1.386 . S
C1981 C1985 1.393 . S
C1982 H1974 0.950 . S
C1982 C1980 1.391 . S
C1982 C1983 1.400 . S
C1983 C1982 1.400 . S
C1983 C1984 1.398 . S
C1983 C1989 1.491 . S
C1984 H1975 0.950 . S
C1984 C1983 1.398 . S
C1984 C1985 1.391 . S
C1985 H1973 0.950 . S
C1985 C1981 1.393 . S
C1985 C1984 1.391 . S
C1986 H1976 0.950 . S
C1986 C1987 1.386 . S
C1986 C1988 1.391 . S
C1987 C1986 1.386 . S
C1987 C1991 1.393 . S
C1988 H1977 0.950 . S
C1988 C1986 1.391 . S
C1988 C1989 1.400 . S
C1989 C1983 1.491 . S
C1989 C1988 1.400 . S
C1989 C1990 1.398 . S
C1990 H1978 0.950 . S
C1990 C1989 1.398 . S
C1990 C1991 1.391 . S
C1991 H1979 0.950 . S
C1991 C1987 1.393 . S
C1991 C1990 1.391 . S
H1992 C2000 0.950 . S
H1993 C2005 0.950 . S
H1994 C2002 0.950 . S
H1995 C2004 0.950 . S
H1996 C2006 0.950 . S
H1997 C2008 0.950 . S
H1998 C2010 0.950 . S
H1999 C2011 0.950 . S
C2000 H1992 0.950 . S
C2000 C2001 1.386 . S
C2000 C2002 1.391 . S
C2001 C2000 1.386 . S
C2001 C2005 1.393 . S
C2002 H1994 0.950 . S
C2002 C2000 1.391 . S
C2002 C2003 1.400 . S
C2003 C2002 1.400 . S
C2003 C2004 1.398 . S
C2003 C2009 1.491 . S
C2004 H1995 0.950 . S
C2004 C2003 1.398 . S
C2004 C2005 1.391 . S
C2005 H1993 0.950 . S
C2005 C2001 1.393 . S
C2005 C2004 1.391 . S
C2006 H1996 0.950 . S
C2006 C2007 1.386 . S
C2006 C2008 1.391 . S
C2007 C2006 1.386 . S
C2007 C2011 1.393 . S
C2008 H1997 0.950 . S
C2008 C2006 1.391 . S
C2008 C2009 1.400 . S
C2009 C2003 1.491 . S
C2009 C2008 1.400 . S
C2009 C2010 1.398 . S
C2010 H1998 0.950 . S
C2010 C2009 1.398 . S
C2010 C2011 1.391 . S
C2011 H1999 0.950 . S
C2011 C2007 1.393 . S
C2011 C2010 1.391 . S
H2012 C2020 0.950 . S
H2013 C2025 0.950 . S
H2014 C2022 0.950 . S
H2015 C2024 0.950 . S
H2016 C2026 0.950 . S
H2017 C2028 0.950 . S
H2018 C2030 0.950 . S
H2019 C2031 0.950 . S
C2020 H2012 0.950 . S
C2020 C2021 1.386 . S
C2020 C2022 1.391 . S
C2021 C2020 1.386 . S
C2021 C2025 1.393 . S
C2022 H2014 0.950 . S
C2022 C2020 1.391 . S
C2022 C2023 1.400 . S
C2023 C2022 1.400 . S
C2023 C2024 1.398 . S
C2023 C2029 1.491 . S
C2024 H2015 0.950 . S
C2024 C2023 1.398 . S
C2024 C2025 1.391 . S
C2025 H2013 0.950 . S
C2025 C2021 1.393 . S
C2025 C2024 1.391 . S
C2026 H2016 0.950 . S
C2026 C2027 1.386 . S
C2026 C2028 1.391 . S
C2027 C2026 1.386 . S
C2027 C2031 1.393 . S
C2028 H2017 0.950 . S
C2028 C2026 1.391 . S
C2028 C2029 1.400 . S
C2029 C2023 1.491 . S
C2029 C2028 1.400 . S
C2029 C2030 1.398 . S
C2030 H2018 0.950 . S
C2030 C2029 1.398 . S
C2030 C2031 1.391 . S
C2031 H2019 0.950 . S
C2031 C2027 1.393 . S
C2031 C2030 1.391 . S
H2032 C2040 0.950 . S
H2033 C2045 0.950 . S
H2034 C2042 0.950 . S
H2035 C2044 0.950 . S
H2036 C2046 0.950 . S
H2037 C2048 0.950 . S
H2038 C2050 0.950 . S
H2039 C2051 0.950 . S
C2040 H2032 0.950 . S
C2040 C2041 1.386 . S
C2040 C2042 1.391 . S
C2041 C2040 1.386 . S
C2041 C2045 1.393 . S
C2042 H2034 0.950 . S
C2042 C2040 1.391 . S
C2042 C2043 1.400 . S
C2043 C2042 1.400 . S
C2043 C2044 1.398 . S
C2043 C2049 1.491 . S
C2044 H2035 0.950 . S
C2044 C2043 1.398 . S
C2044 C2045 1.391 . S
C2045 H2033 0.950 . S
C2045 C2041 1.393 . S
C2045 C2044 1.391 . S
C2046 H2036 0.950 . S
C2046 C2047 1.386 . S
C2046 C2048 1.391 . S
C2047 C2046 1.386 . S
C2047 C2051 1.393 . S
C2048 H2037 0.950 . S
C2048 C2046 1.391 . S
C2048 C2049 1.400 . S
C2049 C2043 1.491 . S
C2049 C2048 1.400 . S
C2049 C2050 1.398 . S
C2050 H2038 0.950 . S
C2050 C2049 1.398 . S
C2050 C2051 1.391 . S
C2051 H2039 0.950 . S
C2051 C2047 1.393 . S
C2051 C2050 1.391 . S
H2052 C2060 0.950 . S
H2053 C2065 0.950 . S
H2054 C2062 0.950 . S
H2055 C2064 0.950 . S
H2056 C2066 0.950 . S
H2057 C2068 0.950 . S
H2058 C2070 0.950 . S
H2059 C2071 0.950 . S
C2060 H2052 0.950 . S
C2060 C2061 1.386 . S
C2060 C2062 1.391 . S
C2061 C2060 1.386 . S
C2061 C2065 1.393 . S
C2062 H2054 0.950 . S
C2062 C2060 1.391 . S
C2062 C2063 1.400 . S
C2063 C2062 1.400 . S
C2063 C2064 1.398 . S
C2063 C2069 1.491 . S
C2064 H2055 0.950 . S
C2064 C2063 1.398 . S
C2064 C2065 1.391 . S
C2065 H2053 0.950 . S
C2065 C2061 1.393 . S
C2065 C2064 1.391 . S
C2066 H2056 0.950 . S
C2066 C2067 1.386 . S
C2066 C2068 1.391 . S
C2067 C2066 1.386 . S
C2067 C2071 1.393 . S
C2068 H2057 0.950 . S
C2068 C2066 1.391 . S
C2068 C2069 1.400 . S
C2069 C2063 1.491 . S
C2069 C2068 1.400 . S
C2069 C2070 1.398 . S
C2070 H2058 0.950 . S
C2070 C2069 1.398 . S
C2070 C2071 1.391 . S
C2071 H2059 0.950 . S
C2071 C2067 1.393 . S
C2071 C2070 1.391 . S
H2072 C2080 0.950 . S
H2073 C2085 0.950 . S
H2074 C2082 0.950 . S
H2075 C2084 0.950 . S
H2076 C2086 0.950 . S
H2077 C2088 0.950 . S
H2078 C2090 0.950 . S
H2079 C2091 0.950 . S
C2080 H2072 0.950 . S
C2080 C2081 1.386 . S
C2080 C2082 1.391 . S
C2081 C2080 1.386 . S
C2081 C2085 1.393 . S
C2082 H2074 0.950 . S
C2082 C2080 1.391 . S
C2082 C2083 1.400 . S
C2083 C2082 1.400 . S
C2083 C2084 1.398 . S
C2083 C2089 1.491 . S
C2084 H2075 0.950 . S
C2084 C2083 1.398 . S
C2084 C2085 1.391 . S
C2085 H2073 0.950 . S
C2085 C2081 1.393 . S
C2085 C2084 1.391 . S
C2086 H2076 0.950 . S
C2086 C2087 1.386 . S
C2086 C2088 1.391 . S
C2087 C2086 1.386 . S
C2087 C2091 1.393 . S
C2088 H2077 0.950 . S
C2088 C2086 1.391 . S
C2088 C2089 1.400 . S
C2089 C2083 1.491 . S
C2089 C2088 1.400 . S
C2089 C2090 1.398 . S
C2090 H2078 0.950 . S
C2090 C2089 1.398 . S
C2090 C2091 1.391 . S
C2091 H2079 0.950 . S
C2091 C2087 1.393 . S
C2091 C2090 1.391 . S
H2092 C2100 0.950 . S
H2093 C2105 0.950 . S
H2094 C2102 0.950 . S
H2095 C2104 0.950 . S
H2096 C2106 0.950 . S
H2097 C2108 0.950 . S
H2098 C2110 0.950 . S
H2099 C2111 0.950 . S
C2100 H2092 0.950 . S
C2100 C2101 1.386 . S
C2100 C2102 1.391 1_545 S
C2101 C2100 1.386 . S
C2101 C2105 1.393 1_545 S
C2102 H2094 0.950 . S
C2102 C2100 1.391 1_565 S
C2102 C2103 1.400 . S
C2103 C2102 1.400 . S
C2103 C2104 1.398 . S
C2103 C2109 1.491 . S
C2104 H2095 0.950 . S
C2104 C2103 1.398 . S
C2104 C2105 1.391 . S
C2105 H2093 0.950 . S
C2105 C2101 1.393 1_565 S
C2105 C2104 1.391 . S
C2106 H2096 0.950 . S
C2106 C2107 1.386 . S
C2106 C2108 1.391 . S
C2107 C2106 1.386 . S
C2107 C2111 1.393 . S
C2108 H2097 0.950 . S
C2108 C2106 1.391 . S
C2108 C2109 1.400 . S
C2109 C2103 1.491 . S
C2109 C2108 1.400 . S
C2109 C2110 1.398 . S
C2110 H2098 0.950 . S
C2110 C2109 1.398 . S
C2110 C2111 1.391 . S
C2111 H2099 0.950 . S
C2111 C2107 1.393 . S
C2111 C2110 1.391 . S
H2112 C2120 0.950 . S
H2113 C2125 0.950 . S
H2114 C2122 0.950 . S
H2115 C2124 0.950 . S
H2116 C2126 0.950 . S
H2117 C2128 0.950 . S
H2118 C2130 0.950 . S
H2119 C2131 0.950 . S
C2120 H2112 0.950 . S
C2120 C2121 1.386 . S
C2120 C2122 1.391 . S
C2121 C2120 1.386 . S
C2121 C2125 1.393 . S
C2122 H2114 0.950 . S
C2122 C2120 1.391 . S
C2122 C2123 1.400 . S
C2123 C2122 1.400 . S
C2123 C2124 1.398 . S
C2123 C2129 1.491 . S
C2124 H2115 0.950 . S
C2124 C2123 1.398 . S
C2124 C2125 1.391 . S
C2125 H2113 0.950 . S
C2125 C2121 1.393 . S
C2125 C2124 1.391 . S
C2126 H2116 0.950 . S
C2126 C2127 1.386 . S
C2126 C2128 1.391 . S
C2127 C2126 1.386 . S
C2127 C2131 1.393 . S
C2128 H2117 0.950 . S
C2128 C2126 1.391 . S
C2128 C2129 1.400 . S
C2129 C2123 1.491 . S
C2129 C2128 1.400 . S
C2129 C2130 1.398 . S
C2130 H2118 0.950 . S
C2130 C2129 1.398 . S
C2130 C2131 1.391 . S
C2131 H2119 0.950 . S
C2131 C2127 1.393 . S
C2131 C2130 1.391 . S
H2132 C2140 0.950 . S
H2133 C2145 0.950 . S
H2134 C2142 0.950 . S
H2135 C2144 0.950 . S
H2136 C2146 0.950 . S
H2137 C2148 0.950 . S
H2138 C2150 0.950 . S
H2139 C2151 0.950 . S
C2140 H2132 0.950 . S
C2140 C2141 1.386 1_455 S
C2140 C2142 1.391 . S
C2141 C2140 1.386 1_655 S
C2141 C2145 1.393 . S
C2142 H2134 0.950 . S
C2142 C2140 1.391 . S
C2142 C2143 1.400 . S
C2143 C2142 1.400 . S
C2143 C2144 1.398 . S
C2143 C2149 1.491 . S
C2144 H2135 0.950 . S
C2144 C2143 1.398 . S
C2144 C2145 1.391 1_455 S
C2145 H2133 0.950 . S
C2145 C2141 1.393 . S
C2145 C2144 1.391 1_655 S
C2146 H2136 0.950 . S
C2146 C2147 1.386 . S
C2146 C2148 1.391 . S
C2147 C2146 1.386 . S
C2147 C2151 1.393 . S
C2148 H2137 0.950 . S
C2148 C2146 1.391 . S
C2148 C2149 1.400 . S
C2149 C2143 1.491 . S
C2149 C2148 1.400 . S
C2149 C2150 1.398 . S
C2150 H2138 0.950 . S
C2150 C2149 1.398 . S
C2150 C2151 1.391 . S
C2151 H2139 0.950 . S
C2151 C2147 1.393 . S
C2151 C2150 1.391 . S
H2152 C2160 0.950 . S
H2153 C2165 0.950 . S
H2154 C2162 0.950 . S
H2155 C2164 0.950 . S
H2156 C2166 0.950 . S
H2157 C2168 0.950 . S
H2158 C2170 0.950 . S
H2159 C2171 0.950 . S
C2160 H2152 0.950 . S
C2160 C2161 1.386 . S
C2160 C2162 1.391 . S
C2161 C2160 1.386 . S
C2161 C2165 1.393 . S
C2162 H2154 0.950 . S
C2162 C2160 1.391 . S
C2162 C2163 1.400 . S
C2163 C2162 1.400 . S
C2163 C2164 1.398 . S
C2163 C2169 1.491 . S
C2164 H2155 0.950 . S
C2164 C2163 1.398 . S
C2164 C2165 1.391 . S
C2165 H2153 0.950 . S
C2165 C2161 1.393 . S
C2165 C2164 1.391 . S
C2166 H2156 0.950 . S
C2166 C2167 1.386 . S
C2166 C2168 1.391 . S
C2167 C2166 1.386 . S
C2167 C2171 1.393 . S
C2168 H2157 0.950 . S
C2168 C2166 1.391 . S
C2168 C2169 1.400 . S
C2169 C2163 1.491 . S
C2169 C2168 1.400 . S
C2169 C2170 1.398 . S
C2170 H2158 0.950 . S
C2170 C2169 1.398 . S
C2170 C2171 1.391 . S
C2171 H2159 0.950 . S
C2171 C2167 1.393 . S
C2171 C2170 1.391 . S
H2172 C2180 0.950 . S
H2173 C2185 0.950 . S
H2174 C2182 0.950 . S
H2175 C2184 0.950 . S
H2176 C2186 0.950 . S
H2177 C2188 0.950 . S
H2178 C2190 0.950 . S
H2179 C2191 0.950 . S
C2180 H2172 0.950 . S
C2180 C2181 1.386 . S
C2180 C2182 1.391 . S
C2181 C2180 1.386 . S
C2181 C2185 1.393 . S
C2182 H2174 0.950 . S
C2182 C2180 1.391 . S
C2182 C2183 1.400 . S
C2183 C2182 1.400 . S
C2183 C2184 1.398 . S
C2183 C2189 1.491 . S
C2184 H2175 0.950 . S
C2184 C2183 1.398 . S
C2184 C2185 1.391 . S
C2185 H2173 0.950 . S
C2185 C2181 1.393 . S
C2185 C2184 1.391 . S
C2186 H2176 0.950 . S
C2186 C2187 1.386 . S
C2186 C2188 1.391 1_455 S
C2187 C2186 1.386 . S
C2187 C2191 1.393 1_455 S
C2188 H2177 0.950 . S
C2188 C2186 1.391 1_655 S
C2188 C2189 1.400 . S
C2189 C2183 1.491 . S
C2189 C2188 1.400 . S
C2189 C2190 1.398 . S
C2190 H2178 0.950 . S
C2190 C2189 1.398 . S
C2190 C2191 1.391 . S
C2191 H2179 0.950 . S
C2191 C2187 1.393 1_655 S
C2191 C2190 1.391 . S
H2192 C2200 0.950 . S
H2193 C2205 0.950 . S
H2194 C2202 0.950 . S
H2195 C2204 0.950 . S
H2196 C2206 0.950 . S
H2197 C2208 0.950 . S
H2198 C2210 0.950 . S
H2199 C2211 0.950 . S
C2200 H2192 0.950 . S
C2200 C2201 1.386 . S
C2200 C2202 1.391 . S
C2201 C2200 1.386 . S
C2201 C2205 1.393 . S
C2202 H2194 0.950 . S
C2202 C2200 1.391 . S
C2202 C2203 1.400 . S
C2203 C2202 1.400 . S
C2203 C2204 1.398 . S
C2203 C2209 1.491 . S
C2204 H2195 0.950 . S
C2204 C2203 1.398 . S
C2204 C2205 1.391 . S
C2205 H2193 0.950 . S
C2205 C2201 1.393 . S
C2205 C2204 1.391 . S
C2206 H2196 0.950 . S
C2206 C2207 1.386 . S
C2206 C2208 1.391 . S
C2207 C2206 1.386 . S
C2207 C2211 1.393 . S
C2208 H2197 0.950 . S
C2208 C2206 1.391 . S
C2208 C2209 1.400 . S
C2209 C2203 1.491 . S
C2209 C2208 1.400 . S
C2209 C2210 1.398 . S
C2210 H2198 0.950 . S
C2210 C2209 1.398 . S
C2210 C2211 1.391 . S
C2211 H2199 0.950 . S
C2211 C2207 1.393 . S
C2211 C2210 1.391 . S
H2212 C2220 0.950 . S
H2213 C2225 0.950 . S
H2214 C2222 0.950 . S
H2215 C2224 0.950 . S
H2216 C2226 0.950 . S
H2217 C2228 0.950 . S
H2218 C2230 0.950 . S
H2219 C2231 0.950 . S
C2220 H2212 0.950 . S
C2220 C2221 1.386 . S
C2220 C2222 1.391 . S
C2221 C2220 1.386 . S
C2221 C2225 1.393 . S
C2222 H2214 0.950 . S
C2222 C2220 1.391 . S
C2222 C2223 1.400 . S
C2223 C2222 1.400 . S
C2223 C2224 1.398 . S
C2223 C2229 1.491 . S
C2224 H2215 0.950 . S
C2224 C2223 1.398 . S
C2224 C2225 1.391 . S
C2225 H2213 0.950 . S
C2225 C2221 1.393 . S
C2225 C2224 1.391 . S
C2226 H2216 0.950 . S
C2226 C2227 1.386 . S
C2226 C2228 1.391 . S
C2227 C2226 1.386 . S
C2227 C2231 1.393 . S
C2228 H2217 0.950 . S
C2228 C2226 1.391 . S
C2228 C2229 1.400 . S
C2229 C2223 1.491 . S
C2229 C2228 1.400 . S
C2229 C2230 1.398 . S
C2230 H2218 0.950 . S
C2230 C2229 1.398 . S
C2230 C2231 1.391 . S
C2231 H2219 0.950 . S
C2231 C2227 1.393 . S
C2231 C2230 1.391 . S
H2232 C2240 0.950 . S
H2233 C2245 0.950 . S
H2234 C2242 0.950 . S
H2235 C2244 0.950 . S
H2236 C2246 0.950 . S
H2237 C2248 0.950 . S
H2238 C2250 0.950 . S
H2239 C2251 0.950 . S
C2240 H2232 0.950 . S
C2240 C2241 1.386 . S
C2240 C2242 1.391 . S
C2241 C2240 1.386 . S
C2241 C2245 1.393 . S
C2242 H2234 0.950 . S
C2242 C2240 1.391 . S
C2242 C2243 1.400 . S
C2243 C2242 1.400 . S
C2243 C2244 1.398 . S
C2243 C2249 1.491 . S
C2244 H2235 0.950 . S
C2244 C2243 1.398 . S
C2244 C2245 1.391 . S
C2245 H2233 0.950 . S
C2245 C2241 1.393 . S
C2245 C2244 1.391 . S
C2246 H2236 0.950 . S
C2246 C2247 1.386 . S
C2246 C2248 1.391 . S
C2247 C2246 1.386 . S
C2247 C2251 1.393 . S
C2248 H2237 0.950 . S
C2248 C2246 1.391 . S
C2248 C2249 1.400 . S
C2249 C2243 1.491 . S
C2249 C2248 1.400 . S
C2249 C2250 1.398 . S
C2250 H2238 0.950 . S
C2250 C2249 1.398 . S
C2250 C2251 1.391 . S
C2251 H2239 0.950 . S
C2251 C2247 1.393 . S
C2251 C2250 1.391 . S
H2252 C2260 0.950 . S
H2253 C2265 0.950 . S
H2254 C2262 0.950 . S
H2255 C2264 0.950 . S
H2256 C2266 0.950 . S
H2257 C2268 0.950 . S
H2258 C2270 0.950 . S
H2259 C2271 0.950 . S
C2260 H2252 0.950 . S
C2260 C2261 1.386 . S
C2260 C2262 1.391 . S
C2261 C2260 1.386 . S
C2261 C2265 1.393 . S
C2262 H2254 0.950 . S
C2262 C2260 1.391 . S
C2262 C2263 1.400 . S
C2263 C2262 1.400 . S
C2263 C2264 1.398 . S
C2263 C2269 1.491 . S
C2264 H2255 0.950 . S
C2264 C2263 1.398 . S
C2264 C2265 1.391 . S
C2265 H2253 0.950 . S
C2265 C2261 1.393 . S
C2265 C2264 1.391 . S
C2266 H2256 0.950 . S
C2266 C2267 1.386 . S
C2266 C2268 1.391 . S
C2267 C2266 1.386 . S
C2267 C2271 1.393 . S
C2268 H2257 0.950 . S
C2268 C2266 1.391 . S
C2268 C2269 1.400 . S
C2269 C2263 1.491 . S
C2269 C2268 1.400 . S
C2269 C2270 1.398 . S
C2270 H2258 0.950 . S
C2270 C2269 1.398 . S
C2270 C2271 1.391 . S
C2271 H2259 0.950 . S
C2271 C2267 1.393 . S
C2271 C2270 1.391 . S
H2272 C2280 0.950 . S
H2273 C2285 0.950 . S
H2274 C2282 0.950 . S
H2275 C2284 0.950 . S
H2276 C2286 0.950 . S
H2277 C2288 0.950 . S
H2278 C2290 0.950 . S
H2279 C2291 0.950 . S
C2280 H2272 0.950 . S
C2280 C2281 1.386 . S
C2280 C2282 1.391 . S
C2281 C2280 1.386 . S
C2281 C2285 1.393 . S
C2282 H2274 0.950 . S
C2282 C2280 1.391 . S
C2282 C2283 1.400 . S
C2283 C2282 1.400 . S
C2283 C2284 1.398 . S
C2283 C2289 1.491 . S
C2284 H2275 0.950 . S
C2284 C2283 1.398 . S
C2284 C2285 1.391 . S
C2285 H2273 0.950 . S
C2285 C2281 1.393 . S
C2285 C2284 1.391 . S
C2286 H2276 0.950 . S
C2286 C2287 1.386 . S
C2286 C2288 1.391 . S
C2287 C2286 1.386 . S
C2287 C2291 1.393 . S
C2288 H2277 0.950 . S
C2288 C2286 1.391 . S
C2288 C2289 1.400 . S
C2289 C2283 1.491 . S
C2289 C2288 1.400 . S
C2289 C2290 1.398 . S
C2290 H2278 0.950 . S
C2290 C2289 1.398 . S
C2290 C2291 1.391 . S
C2291 H2279 0.950 . S
C2291 C2287 1.393 . S
C2291 C2290 1.391 . S
H2292 C2300 0.950 . S
H2293 C2305 0.950 . S
H2294 C2302 0.950 . S
H2295 C2304 0.950 . S
H2296 C2306 0.950 . S
H2297 C2308 0.950 . S
H2298 C2310 0.950 . S
H2299 C2311 0.950 . S
C2300 H2292 0.950 . S
C2300 C2301 1.386 . S
C2300 C2302 1.391 . S
C2301 C2300 1.386 . S
C2301 C2305 1.393 . S
C2302 H2294 0.950 . S
C2302 C2300 1.391 . S
C2302 C2303 1.400 . S
C2303 C2302 1.400 . S
C2303 C2304 1.398 . S
C2303 C2309 1.491 . S
C2304 H2295 0.950 . S
C2304 C2303 1.398 . S
C2304 C2305 1.391 . S
C2305 H2293 0.950 . S
C2305 C2301 1.393 . S
C2305 C2304 1.391 . S
C2306 H2296 0.950 . S
C2306 C2307 1.386 . S
C2306 C2308 1.391 . S
C2307 C2306 1.386 . S
C2307 C2311 1.393 . S
C2308 H2297 0.950 . S
C2308 C2306 1.391 . S
C2308 C2309 1.400 . S
C2309 C2303 1.491 . S
C2309 C2308 1.400 . S
C2309 C2310 1.398 . S
C2310 H2298 0.950 . S
C2310 C2309 1.398 . S
C2310 C2311 1.391 . S
C2311 H2299 0.950 . S
C2311 C2307 1.393 . S
C2311 C2310 1.391 . S
H2312 C2320 0.950 . S
H2313 C2325 0.950 . S
H2314 C2322 0.950 . S
H2315 C2324 0.950 . S
H2316 C2326 0.950 . S
H2317 C2328 0.950 . S
H2318 C2330 0.950 . S
H2319 C2331 0.950 . S
C2320 H2312 0.950 . S
C2320 C2321 1.386 . S
C2320 C2322 1.391 . S
C2321 C2320 1.386 . S
C2321 C2325 1.393 . S
C2322 H2314 0.950 . S
C2322 C2320 1.391 . S
C2322 C2323 1.400 . S
C2323 C2322 1.400 . S
C2323 C2324 1.398 . S
C2323 C2329 1.491 . S
C2324 H2315 0.950 . S
C2324 C2323 1.398 . S
C2324 C2325 1.391 . S
C2325 H2313 0.950 . S
C2325 C2321 1.393 . S
C2325 C2324 1.391 . S
C2326 H2316 0.950 . S
C2326 C2327 1.386 . S
C2326 C2328 1.391 . S
C2327 C2326 1.386 . S
C2327 C2331 1.393 . S
C2328 H2317 0.950 . S
C2328 C2326 1.391 . S
C2328 C2329 1.400 . S
C2329 C2323 1.491 . S
C2329 C2328 1.400 . S
C2329 C2330 1.398 . S
C2330 H2318 0.950 . S
C2330 C2329 1.398 . S
C2330 C2331 1.391 . S
C2331 H2319 0.950 . S
C2331 C2327 1.393 . S
C2331 C2330 1.391 . S
H2332 C2340 0.950 . S
H2333 C2345 0.950 . S
H2334 C2342 0.950 . S
H2335 C2344 0.950 . S
H2336 C2346 0.950 . S
H2337 C2348 0.950 . S
H2338 C2350 0.950 . S
H2339 C2351 0.950 . S
C2340 H2332 0.950 . S
C2340 C2341 1.386 . S
C2340 C2342 1.391 . S
C2341 C2340 1.386 . S
C2341 C2345 1.393 . S
C2342 H2334 0.950 . S
C2342 C2340 1.391 . S
C2342 C2343 1.400 . S
C2343 C2342 1.400 . S
C2343 C2344 1.398 . S
C2343 C2349 1.491 . S
C2344 H2335 0.950 . S
C2344 C2343 1.398 . S
C2344 C2345 1.391 . S
C2345 H2333 0.950 . S
C2345 C2341 1.393 . S
C2345 C2344 1.391 . S
C2346 H2336 0.950 . S
C2346 C2347 1.386 . S
C2346 C2348 1.391 . S
C2347 C2346 1.386 . S
C2347 C2351 1.393 . S
C2348 H2337 0.950 . S
C2348 C2346 1.391 . S
C2348 C2349 1.400 . S
C2349 C2343 1.491 . S
C2349 C2348 1.400 . S
C2349 C2350 1.398 . S
C2350 H2338 0.950 . S
C2350 C2349 1.398 . S
C2350 C2351 1.391 . S
C2351 H2339 0.950 . S
C2351 C2347 1.393 . S
C2351 C2350 1.391 . S
H2352 C2360 0.950 . S
H2353 C2365 0.950 . S
H2354 C2362 0.950 . S
H2355 C2364 0.950 . S
H2356 C2366 0.950 . S
H2357 C2368 0.950 . S
H2358 C2370 0.950 . S
H2359 C2371 0.950 . S
C2360 H2352 0.950 . S
C2360 C2361 1.386 . S
C2360 C2362 1.391 . S
C2361 C2360 1.386 . S
C2361 C2365 1.393 . S
C2362 H2354 0.950 . S
C2362 C2360 1.391 . S
C2362 C2363 1.400 . S
C2363 C2362 1.400 . S
C2363 C2364 1.398 . S
C2363 C2369 1.491 . S
C2364 H2355 0.950 . S
C2364 C2363 1.398 . S
C2364 C2365 1.391 . S
C2365 H2353 0.950 . S
C2365 C2361 1.393 . S
C2365 C2364 1.391 . S
C2366 H2356 0.950 . S
C2366 C2367 1.386 . S
C2366 C2368 1.391 . S
C2367 C2366 1.386 . S
C2367 C2371 1.393 . S
C2368 H2357 0.950 . S
C2368 C2366 1.391 . S
C2368 C2369 1.400 . S
C2369 C2363 1.491 . S
C2369 C2368 1.400 . S
C2369 C2370 1.398 . S
C2370 H2358 0.950 . S
C2370 C2369 1.398 . S
C2370 C2371 1.391 . S
C2371 H2359 0.950 . S
C2371 C2367 1.393 . S
C2371 C2370 1.391 . S
H2372 C2380 0.950 . S
H2373 C2385 0.950 . S
H2374 C2382 0.950 . S
H2375 C2384 0.950 . S
H2376 C2386 0.950 . S
H2377 C2388 0.950 . S
H2378 C2390 0.950 . S
H2379 C2391 0.950 . S
C2380 H2372 0.950 . S
C2380 C2381 1.386 . S
C2380 C2382 1.391 . S
C2381 C2380 1.386 . S
C2381 C2385 1.393 . S
C2382 H2374 0.950 . S
C2382 C2380 1.391 . S
C2382 C2383 1.400 . S
C2383 C2382 1.400 . S
C2383 C2384 1.398 . S
C2383 C2389 1.491 . S
C2384 H2375 0.950 . S
C2384 C2383 1.398 . S
C2384 C2385 1.391 . S
C2385 H2373 0.950 . S
C2385 C2381 1.393 . S
C2385 C2384 1.391 . S
C2386 H2376 0.950 . S
C2386 C2387 1.386 . S
C2386 C2388 1.391 . S
C2387 C2386 1.386 . S
C2387 C2391 1.393 . S
C2388 H2377 0.950 . S
C2388 C2386 1.391 . S
C2388 C2389 1.400 . S
C2389 C2383 1.491 . S
C2389 C2388 1.400 . S
C2389 C2390 1.398 . S
C2390 H2378 0.950 . S
C2390 C2389 1.398 . S
C2390 C2391 1.391 . S
C2391 H2379 0.950 . S
C2391 C2387 1.393 . S
C2391 C2390 1.391 . S
H2392 C2400 0.950 . S
H2393 C2405 0.950 . S
H2394 C2402 0.950 . S
H2395 C2404 0.950 . S
H2396 C2406 0.950 . S
H2397 C2408 0.950 . S
H2398 C2410 0.950 . S
H2399 C2411 0.950 . S
C2400 H2392 0.950 . S
C2400 C2401 1.386 . S
C2400 C2402 1.391 . S
C2401 C2400 1.386 . S
C2401 C2405 1.393 . S
C2402 H2394 0.950 . S
C2402 C2400 1.391 . S
C2402 C2403 1.400 . S
C2403 C2402 1.400 . S
C2403 C2404 1.398 . S
C2403 C2409 1.491 . S
C2404 H2395 0.950 . S
C2404 C2403 1.398 . S
C2404 C2405 1.391 . S
C2405 H2393 0.950 . S
C2405 C2401 1.393 . S
C2405 C2404 1.391 . S
C2406 H2396 0.950 . S
C2406 C2407 1.386 . S
C2406 C2408 1.391 . S
C2407 C2406 1.386 . S
C2407 C2411 1.393 . S
C2408 H2397 0.950 . S
C2408 C2406 1.391 . S
C2408 C2409 1.400 . S
C2409 C2403 1.491 . S
C2409 C2408 1.400 . S
C2409 C2410 1.398 . S
C2410 H2398 0.950 . S
C2410 C2409 1.398 . S
C2410 C2411 1.391 . S
C2411 H2399 0.950 . S
C2411 C2407 1.393 . S
C2411 C2410 1.391 . S
H2412 C2420 0.950 . S
H2413 C2425 0.950 . S
H2414 C2422 0.950 . S
H2415 C2424 0.950 . S
H2416 C2426 0.950 . S
H2417 C2428 0.950 . S
H2418 C2430 0.950 . S
H2419 C2431 0.950 . S
C2420 H2412 0.950 . S
C2420 C2421 1.386 . S
C2420 C2422 1.391 . S
C2421 C2420 1.386 . S
C2421 C2425 1.393 . S
C2422 H2414 0.950 . S
C2422 C2420 1.391 . S
C2422 C2423 1.400 . S
C2423 C2422 1.400 . S
C2423 C2424 1.398 . S
C2423 C2429 1.491 . S
C2424 H2415 0.950 . S
C2424 C2423 1.398 . S
C2424 C2425 1.391 . S
C2425 H2413 0.950 . S
C2425 C2421 1.393 . S
C2425 C2424 1.391 . S
C2426 H2416 0.950 . S
C2426 C2427 1.386 . S
C2426 C2428 1.391 . S
C2427 C2426 1.386 . S
C2427 C2431 1.393 . S
C2428 H2417 0.950 . S
C2428 C2426 1.391 . S
C2428 C2429 1.400 . S
C2429 C2423 1.491 . S
C2429 C2428 1.400 . S
C2429 C2430 1.398 . S
C2430 H2418 0.950 . S
C2430 C2429 1.398 . S
C2430 C2431 1.391 . S
C2431 H2419 0.950 . S
C2431 C2427 1.393 . S
C2431 C2430 1.391 . S
H2432 C2440 0.950 . S
H2433 C2445 0.950 . S
H2434 C2442 0.950 . S
H2435 C2444 0.950 . S
H2436 C2446 0.950 . S
H2437 C2448 0.950 . S
H2438 C2450 0.950 . S
H2439 C2451 0.950 . S
C2440 H2432 0.950 . S
C2440 C2441 1.386 . S
C2440 C2442 1.391 . S
C2441 C2440 1.386 . S
C2441 C2445 1.393 . S
C2442 H2434 0.950 . S
C2442 C2440 1.391 . S
C2442 C2443 1.400 . S
C2443 C2442 1.400 . S
C2443 C2444 1.398 . S
C2443 C2449 1.491 . S
C2444 H2435 0.950 . S
C2444 C2443 1.398 . S
C2444 C2445 1.391 . S
C2445 H2433 0.950 . S
C2445 C2441 1.393 . S
C2445 C2444 1.391 . S
C2446 H2436 0.950 . S
C2446 C2447 1.386 . S
C2446 C2448 1.391 . S
C2447 C2446 1.386 . S
C2447 C2451 1.393 . S
C2448 H2437 0.950 . S
C2448 C2446 1.391 . S
C2448 C2449 1.400 . S
C2449 C2443 1.491 . S
C2449 C2448 1.400 . S
C2449 C2450 1.398 . S
C2450 H2438 0.950 . S
C2450 C2449 1.398 . S
C2450 C2451 1.391 . S
C2451 H2439 0.950 . S
C2451 C2447 1.393 . S
C2451 C2450 1.391 . S
H2452 C2460 0.950 . S
H2453 C2465 0.950 . S
H2454 C2462 0.950 . S
H2455 C2464 0.950 . S
H2456 C2466 0.950 . S
H2457 C2468 0.950 . S
H2458 C2470 0.950 . S
H2459 C2471 0.950 . S
C2460 H2452 0.950 . S
C2460 C2461 1.386 . S
C2460 C2462 1.391 . S
C2461 C2460 1.386 . S
C2461 C2465 1.393 . S
C2462 H2454 0.950 . S
C2462 C2460 1.391 . S
C2462 C2463 1.400 . S
C2463 C2462 1.400 . S
C2463 C2464 1.398 . S
C2463 C2469 1.491 . S
C2464 H2455 0.950 . S
C2464 C2463 1.398 . S
C2464 C2465 1.391 . S
C2465 H2453 0.950 . S
C2465 C2461 1.393 . S
C2465 C2464 1.391 . S
C2466 H2456 0.950 . S
C2466 C2467 1.386 . S
C2466 C2468 1.391 . S
C2467 C2466 1.386 . S
C2467 C2471 1.393 . S
C2468 H2457 0.950 . S
C2468 C2466 1.391 . S
C2468 C2469 1.400 . S
C2469 C2463 1.491 . S
C2469 C2468 1.400 . S
C2469 C2470 1.398 . S
C2470 H2458 0.950 . S
C2470 C2469 1.398 . S
C2470 C2471 1.391 . S
C2471 H2459 0.950 . S
C2471 C2467 1.393 . S
C2471 C2470 1.391 . S
H2472 C2480 0.950 . S
H2473 C2485 0.950 . S
H2474 C2482 0.950 . S
H2475 C2484 0.950 . S
H2476 C2486 0.950 . S
H2477 C2488 0.950 . S
H2478 C2490 0.950 . S
H2479 C2491 0.950 . S
C2480 H2472 0.950 . S
C2480 C2481 1.386 1_565 S
C2480 C2482 1.391 . S
C2481 C2480 1.386 1_545 S
C2481 C2485 1.393 . S
C2482 H2474 0.950 . S
C2482 C2480 1.391 . S
C2482 C2483 1.400 . S
C2483 C2482 1.400 . S
C2483 C2484 1.398 . S
C2483 C2489 1.491 . S
C2484 H2475 0.950 . S
C2484 C2483 1.398 . S
C2484 C2485 1.391 1_565 S
C2485 H2473 0.950 . S
C2485 C2481 1.393 . S
C2485 C2484 1.391 1_545 S
C2486 H2476 0.950 . S
C2486 C2487 1.386 . S
C2486 C2488 1.391 . S
C2487 C2486 1.386 . S
C2487 C2491 1.393 . S
C2488 H2477 0.950 . S
C2488 C2486 1.391 . S
C2488 C2489 1.400 . S
C2489 C2483 1.491 . S
C2489 C2488 1.400 . S
C2489 C2490 1.398 . S
C2490 H2478 0.950 . S
C2490 C2489 1.398 . S
C2490 C2491 1.391 . S
C2491 H2479 0.950 . S
C2491 C2487 1.393 . S
C2491 C2490 1.391 . S
H2492 C2500 0.950 . S
H2493 C2505 0.950 . S
H2494 C2502 0.950 . S
H2495 C2504 0.950 . S
H2496 C2506 0.950 . S
H2497 C2508 0.950 . S
H2498 C2510 0.950 . S
H2499 C2511 0.950 . S
C2500 H2492 0.950 . S
C2500 C2501 1.386 . S
C2500 C2502 1.391 . S
C2501 C2500 1.386 . S
C2501 C2505 1.393 . S
C2502 H2494 0.950 . S
C2502 C2500 1.391 . S
C2502 C2503 1.400 . S
C2503 C2502 1.400 . S
C2503 C2504 1.398 . S
C2503 C2509 1.491 . S
C2504 H2495 0.950 . S
C2504 C2503 1.398 . S
C2504 C2505 1.391 . S
C2505 H2493 0.950 . S
C2505 C2501 1.393 . S
C2505 C2504 1.391 . S
C2506 H2496 0.950 . S
C2506 C2507 1.386 . S
C2506 C2508 1.391 . S
C2507 C2506 1.386 . S
C2507 C2511 1.393 . S
C2508 H2497 0.950 . S
C2508 C2506 1.391 . S
C2508 C2509 1.400 . S
C2509 C2503 1.491 . S
C2509 C2508 1.400 . S
C2509 C2510 1.398 . S
C2510 H2498 0.950 . S
C2510 C2509 1.398 . S
C2510 C2511 1.391 . S
C2511 H2499 0.950 . S
C2511 C2507 1.393 . S
C2511 C2510 1.391 . S
H2512 C2520 0.950 . S
H2513 C2525 0.950 . S
H2514 C2522 0.950 . S
H2515 C2524 0.950 . S
H2516 C2526 0.950 . S
H2517 C2528 0.950 . S
H2518 C2530 0.950 . S
H2519 C2531 0.950 . S
C2520 H2512 0.950 . S
C2520 C2521 1.386 . S
C2520 C2522 1.391 1_565 S
C2521 C2520 1.386 . S
C2521 C2525 1.393 . S
C2522 H2514 0.950 . S
C2522 C2520 1.391 1_545 S
C2522 C2523 1.400 . S
C2523 C2522 1.400 . S
C2523 C2524 1.398 . S
C2523 C2529 1.491 . S
C2524 H2515 0.950 . S
C2524 C2523 1.398 . S
C2524 C2525 1.391 1_545 S
C2525 H2513 0.950 . S
C2525 C2521 1.393 . S
C2525 C2524 1.391 1_565 S
C2526 H2516 0.950 . S
C2526 C2527 1.386 . S
C2526 C2528 1.391 . S
C2527 C2526 1.386 . S
C2527 C2531 1.393 . S
C2528 H2517 0.950 . S
C2528 C2526 1.391 . S
C2528 C2529 1.400 . S
C2529 C2523 1.491 . S
C2529 C2528 1.400 . S
C2529 C2530 1.398 . S
C2530 H2518 0.950 . S
C2530 C2529 1.398 . S
C2530 C2531 1.391 . S
C2531 H2519 0.950 . S
C2531 C2527 1.393 . S
C2531 C2530 1.391 . S
H2532 C2540 0.950 . S
H2533 C2545 0.950 . S
H2534 C2542 0.950 . S
H2535 C2544 0.950 . S
H2536 C2546 0.950 . S
H2537 C2548 0.950 . S
H2538 C2550 0.950 . S
H2539 C2551 0.950 . S
C2540 H2532 0.950 . S
C2540 C2541 1.386 . S
C2540 C2542 1.391 . S
C2541 C2540 1.386 . S
C2541 C2545 1.393 . S
C2542 H2534 0.950 . S
C2542 C2540 1.391 . S
C2542 C2543 1.400 . S
C2543 C2542 1.400 . S
C2543 C2544 1.398 . S
C2543 C2549 1.491 . S
C2544 H2535 0.950 . S
C2544 C2543 1.398 . S
C2544 C2545 1.391 . S
C2545 H2533 0.950 . S
C2545 C2541 1.393 . S
C2545 C2544 1.391 . S
C2546 H2536 0.950 . S
C2546 C2547 1.386 . S
C2546 C2548 1.391 . S
C2547 C2546 1.386 . S
C2547 C2551 1.393 . S
C2548 H2537 0.950 . S
C2548 C2546 1.391 . S
C2548 C2549 1.400 . S
C2549 C2543 1.491 . S
C2549 C2548 1.400 . S
C2549 C2550 1.398 . S
C2550 H2538 0.950 . S
C2550 C2549 1.398 . S
C2550 C2551 1.391 . S
C2551 H2539 0.950 . S
C2551 C2547 1.393 . S
C2551 C2550 1.391 . S
H2552 C2560 0.950 . S
H2553 C2565 0.950 . S
H2554 C2562 0.950 . S
H2555 C2564 0.950 . S
H2556 C2566 0.950 . S
H2557 C2568 0.950 . S
H2558 C2570 0.950 . S
H2559 C2571 0.950 . S
C2560 H2552 0.950 . S
C2560 C2561 1.386 . S
C2560 C2562 1.391 . S
C2561 C2560 1.386 . S
C2561 C2565 1.393 . S
C2562 H2554 0.950 . S
C2562 C2560 1.391 . S
C2562 C2563 1.400 . S
C2563 C2562 1.400 . S
C2563 C2564 1.398 . S
C2563 C2569 1.491 . S
C2564 H2555 0.950 . S
C2564 C2563 1.398 . S
C2564 C2565 1.391 . S
C2565 H2553 0.950 . S
C2565 C2561 1.393 . S
C2565 C2564 1.391 . S
C2566 H2556 0.950 . S
C2566 C2567 1.386 1_545 S
C2566 C2568 1.391 . S
C2567 C2566 1.386 1_565 S
C2567 C2571 1.393 . S
C2568 H2557 0.950 . S
C2568 C2566 1.391 . S
C2568 C2569 1.400 . S
C2569 C2563 1.491 . S
C2569 C2568 1.400 . S
C2569 C2570 1.398 . S
C2570 H2558 0.950 . S
C2570 C2569 1.398 . S
C2570 C2571 1.391 1_545 S
C2571 H2559 0.950 . S
C2571 C2567 1.393 . S
C2571 C2570 1.391 1_565 S
H2572 C2580 0.950 . S
H2573 C2585 0.950 . S
H2574 C2582 0.950 . S
H2575 C2584 0.950 . S
H2576 C2586 0.950 . S
H2577 C2588 0.950 . S
H2578 C2590 0.950 . S
H2579 C2591 0.950 . S
C2580 H2572 0.950 . S
C2580 C2581 1.386 . S
C2580 C2582 1.391 . S
C2581 C2580 1.386 . S
C2581 C2585 1.393 . S
C2582 H2574 0.950 . S
C2582 C2580 1.391 . S
C2582 C2583 1.400 . S
C2583 C2582 1.400 . S
C2583 C2584 1.398 . S
C2583 C2589 1.491 . S
C2584 H2575 0.950 . S
C2584 C2583 1.398 . S
C2584 C2585 1.391 . S
C2585 H2573 0.950 . S
C2585 C2581 1.393 . S
C2585 C2584 1.391 . S
C2586 H2576 0.950 . S
C2586 C2587 1.386 . S
C2586 C2588 1.391 . S
C2587 C2586 1.386 . S
C2587 C2591 1.393 . S
C2588 H2577 0.950 . S
C2588 C2586 1.391 . S
C2588 C2589 1.400 . S
C2589 C2583 1.491 . S
C2589 C2588 1.400 . S
C2589 C2590 1.398 . S
C2590 H2578 0.950 . S
C2590 C2589 1.398 . S
C2590 C2591 1.391 . S
C2591 H2579 0.950 . S
C2591 C2587 1.393 . S
C2591 C2590 1.391 . S
H2592 C2600 0.950 . S
H2593 C2605 0.950 . S
H2594 C2602 0.950 . S
H2595 C2604 0.950 . S
H2596 C2606 0.950 . S
H2597 C2608 0.950 . S
H2598 C2610 0.950 . S
H2599 C2611 0.950 . S
C2600 H2592 0.950 . S
C2600 C2601 1.386 . S
C2600 C2602 1.391 . S
C2601 C2600 1.386 . S
C2601 C2605 1.393 . S
C2602 H2594 0.950 . S
C2602 C2600 1.391 . S
C2602 C2603 1.400 . S
C2603 C2602 1.400 . S
C2603 C2604 1.398 . S
C2603 C2609 1.491 . S
C2604 H2595 0.950 . S
C2604 C2603 1.398 . S
C2604 C2605 1.391 . S
C2605 H2593 0.950 . S
C2605 C2601 1.393 . S
C2605 C2604 1.391 . S
C2606 H2596 0.950 . S
C2606 C2607 1.386 . S
C2606 C2608 1.391 . S
C2607 C2606 1.386 . S
C2607 C2611 1.393 . S
C2608 H2597 0.950 . S
C2608 C2606 1.391 . S
C2608 C2609 1.400 . S
C2609 C2603 1.491 . S
C2609 C2608 1.400 . S
C2609 C2610 1.398 . S
C2610 H2598 0.950 . S
C2610 C2609 1.398 . S
C2610 C2611 1.391 . S
C2611 H2599 0.950 . S
C2611 C2607 1.393 . S
C2611 C2610 1.391 . S
H2612 C2620 0.950 . S
H2613 C2625 0.950 . S
H2614 C2622 0.950 . S
H2615 C2624 0.950 . S
H2616 C2626 0.950 . S
H2617 C2628 0.950 . S
H2618 C2630 0.950 . S
H2619 C2631 0.950 . S
C2620 H2612 0.950 . S
C2620 C2621 1.386 . S
C2620 C2622 1.391 . S
C2621 C2620 1.386 . S
C2621 C2625 1.393 . S
C2622 H2614 0.950 . S
C2622 C2620 1.391 . S
C2622 C2623 1.400 . S
C2623 C2622 1.400 . S
C2623 C2624 1.398 . S
C2623 C2629 1.491 . S
C2624 H2615 0.950 . S
C2624 C2623 1.398 . S
C2624 C2625 1.391 . S
C2625 H2613 0.950 . S
C2625 C2621 1.393 . S
C2625 C2624 1.391 . S
C2626 H2616 0.950 . S
C2626 C2627 1.386 . S
C2626 C2628 1.391 . S
C2627 C2626 1.386 . S
C2627 C2631 1.393 . S
C2628 H2617 0.950 . S
C2628 C2626 1.391 . S
C2628 C2629 1.400 . S
C2629 C2623 1.491 . S
C2629 C2628 1.400 . S
C2629 C2630 1.398 . S
C2630 H2618 0.950 . S
C2630 C2629 1.398 . S
C2630 C2631 1.391 . S
C2631 H2619 0.950 . S
C2631 C2627 1.393 . S
C2631 C2630 1.391 . S
H2632 C2640 0.950 . S
H2633 C2645 0.950 . S
H2634 C2642 0.950 . S
H2635 C2644 0.950 . S
H2636 C2646 0.950 . S
H2637 C2648 0.950 . S
H2638 C2650 0.950 . S
H2639 C2651 0.950 . S
C2640 H2632 0.950 . S
C2640 C2641 1.386 . S
C2640 C2642 1.391 . S
C2641 C2640 1.386 . S
C2641 C2645 1.393 . S
C2642 H2634 0.950 . S
C2642 C2640 1.391 . S
C2642 C2643 1.400 . S
C2643 C2642 1.400 . S
C2643 C2644 1.398 . S
C2643 C2649 1.491 . S
C2644 H2635 0.950 . S
C2644 C2643 1.398 . S
C2644 C2645 1.391 . S
C2645 H2633 0.950 . S
C2645 C2641 1.393 . S
C2645 C2644 1.391 . S
C2646 H2636 0.950 . S
C2646 C2647 1.386 . S
C2646 C2648 1.391 . S
C2647 C2646 1.386 . S
C2647 C2651 1.393 . S
C2648 H2637 0.950 . S
C2648 C2646 1.391 . S
C2648 C2649 1.400 . S
C2649 C2643 1.491 . S
C2649 C2648 1.400 . S
C2649 C2650 1.398 . S
C2650 H2638 0.950 . S
C2650 C2649 1.398 . S
C2650 C2651 1.391 . S
C2651 H2639 0.950 . S
C2651 C2647 1.393 . S
C2651 C2650 1.391 . S
H2652 C2660 0.950 . S
H2653 C2665 0.950 . S
H2654 C2662 0.950 . S
H2655 C2664 0.950 1_565 S
H2656 C2666 0.950 . S
H2657 C2668 0.950 . S
H2658 C2670 0.950 . S
H2659 C2671 0.950 . S
C2660 H2652 0.950 . S
C2660 C2661 1.386 . S
C2660 C2662 1.391 . S
C2661 C2660 1.386 . S
C2661 C2665 1.393 . S
C2662 H2654 0.950 . S
C2662 C2660 1.391 . S
C2662 C2663 1.400 . S
C2663 C2662 1.400 . S
C2663 C2664 1.398 . S
C2663 C2669 1.491 1_545 S
C2664 H2655 0.950 1_545 S
C2664 C2663 1.398 . S
C2664 C2665 1.391 . S
C2665 H2653 0.950 . S
C2665 C2661 1.393 . S
C2665 C2664 1.391 . S
C2666 H2656 0.950 . S
C2666 C2667 1.386 . S
C2666 C2668 1.391 . S
C2667 C2666 1.386 . S
C2667 C2671 1.393 . S
C2668 H2657 0.950 . S
C2668 C2666 1.391 . S
C2668 C2669 1.400 . S
C2669 C2663 1.491 1_565 S
C2669 C2668 1.400 . S
C2669 C2670 1.398 . S
C2670 H2658 0.950 . S
C2670 C2669 1.398 . S
C2670 C2671 1.391 . S
C2671 H2659 0.950 . S
C2671 C2667 1.393 . S
C2671 C2670 1.391 . S
H2672 C2680 0.950 . S
H2673 C2685 0.950 . S
H2674 C2682 0.950 . S
H2675 C2684 0.950 . S
H2676 C2686 0.950 . S
H2677 C2688 0.950 . S
H2678 C2690 0.950 . S
H2679 C2691 0.950 . S
C2680 H2672 0.950 . S
C2680 C2681 1.386 . S
C2680 C2682 1.391 . S
C2681 C2680 1.386 . S
C2681 C2685 1.393 . S
C2682 H2674 0.950 . S
C2682 C2680 1.391 . S
C2682 C2683 1.400 . S
C2683 C2682 1.400 . S
C2683 C2684 1.398 . S
C2683 C2689 1.491 . S
C2684 H2675 0.950 . S
C2684 C2683 1.398 . S
C2684 C2685 1.391 . S
C2685 H2673 0.950 . S
C2685 C2681 1.393 . S
C2685 C2684 1.391 . S
C2686 H2676 0.950 . S
C2686 C2687 1.386 . S
C2686 C2688 1.391 . S
C2687 C2686 1.386 . S
C2687 C2691 1.393 . S
C2688 H2677 0.950 . S
C2688 C2686 1.391 . S
C2688 C2689 1.400 . S
C2689 C2683 1.491 . S
C2689 C2688 1.400 . S
C2689 C2690 1.398 . S
C2690 H2678 0.950 . S
C2690 C2689 1.398 . S
C2690 C2691 1.391 . S
C2691 H2679 0.950 . S
C2691 C2687 1.393 . S
C2691 C2690 1.391 . S
H2692 C2700 0.950 . S
H2693 C2705 0.950 . S
H2694 C2702 0.950 . S
H2695 C2704 0.950 . S
H2696 C2706 0.950 . S
H2697 C2708 0.950 . S
H2698 C2710 0.950 . S
H2699 C2711 0.950 . S
C2700 H2692 0.950 . S
C2700 C2701 1.386 . S
C2700 C2702 1.391 . S
C2701 C2700 1.386 . S
C2701 C2705 1.393 . S
C2702 H2694 0.950 . S
C2702 C2700 1.391 . S
C2702 C2703 1.400 . S
C2703 C2702 1.400 . S
C2703 C2704 1.398 . S
C2703 C2709 1.491 . S
C2704 H2695 0.950 . S
C2704 C2703 1.398 . S
C2704 C2705 1.391 . S
C2705 H2693 0.950 . S
C2705 C2701 1.393 . S
C2705 C2704 1.391 . S
C2706 H2696 0.950 . S
C2706 C2707 1.386 . S
C2706 C2708 1.391 . S
C2707 C2706 1.386 . S
C2707 C2711 1.393 . S
C2708 H2697 0.950 . S
C2708 C2706 1.391 . S
C2708 C2709 1.400 . S
C2709 C2703 1.491 . S
C2709 C2708 1.400 . S
C2709 C2710 1.398 . S
C2710 H2698 0.950 . S
C2710 C2709 1.398 . S
C2710 C2711 1.391 . S
C2711 H2699 0.950 . S
C2711 C2707 1.393 . S
C2711 C2710 1.391 . S
H2712 C2720 0.950 . S
H2713 C2725 0.950 . S
H2714 C2722 0.950 . S
H2715 C2724 0.950 . S
H2716 C2726 0.950 . S
H2717 C2728 0.950 . S
H2718 C2730 0.950 . S
H2719 C2731 0.950 . S
C2720 H2712 0.950 . S
C2720 C2721 1.386 . S
C2720 C2722 1.391 . S
C2721 C2720 1.386 . S
C2721 C2725 1.393 . S
C2722 H2714 0.950 . S
C2722 C2720 1.391 . S
C2722 C2723 1.400 . S
C2723 C2722 1.400 . S
C2723 C2724 1.398 . S
C2723 C2729 1.491 . S
C2724 H2715 0.950 . S
C2724 C2723 1.398 . S
C2724 C2725 1.391 . S
C2725 H2713 0.950 . S
C2725 C2721 1.393 . S
C2725 C2724 1.391 . S
C2726 H2716 0.950 . S
C2726 C2727 1.386 . S
C2726 C2728 1.391 . S
C2727 C2726 1.386 . S
C2727 C2731 1.393 . S
C2728 H2717 0.950 . S
C2728 C2726 1.391 . S
C2728 C2729 1.400 . S
C2729 C2723 1.491 . S
C2729 C2728 1.400 . S
C2729 C2730 1.398 . S
C2730 H2718 0.950 . S
C2730 C2729 1.398 . S
C2730 C2731 1.391 . S
C2731 H2719 0.950 . S
C2731 C2727 1.393 . S
C2731 C2730 1.391 . S
H2732 C2740 0.950 . S
H2733 C2745 0.950 . S
H2734 C2742 0.950 . S
H2735 C2744 0.950 . S
H2736 C2746 0.950 . S
H2737 C2748 0.950 . S
H2738 C2750 0.950 1_565 S
H2739 C2751 0.950 . S
C2740 H2732 0.950 . S
C2740 C2741 1.386 . S
C2740 C2742 1.391 . S
C2741 C2740 1.386 . S
C2741 C2745 1.393 . S
C2742 H2734 0.950 . S
C2742 C2740 1.391 . S
C2742 C2743 1.400 . S
C2743 C2742 1.400 . S
C2743 C2744 1.398 . S
C2743 C2749 1.491 1_565 S
C2744 H2735 0.950 . S
C2744 C2743 1.398 . S
C2744 C2745 1.391 . S
C2745 H2733 0.950 . S
C2745 C2741 1.393 . S
C2745 C2744 1.391 . S
C2746 H2736 0.950 . S
C2746 C2747 1.386 . S
C2746 C2748 1.391 . S
C2747 C2746 1.386 . S
C2747 C2751 1.393 . S
C2748 H2737 0.950 . S
C2748 C2746 1.391 . S
C2748 C2749 1.400 . S
C2749 C2743 1.491 1_545 S
C2749 C2748 1.400 . S
C2749 C2750 1.398 . S
C2750 H2738 0.950 1_545 S
C2750 C2749 1.398 . S
C2750 C2751 1.391 . S
C2751 H2739 0.950 . S
C2751 C2747 1.393 . S
C2751 C2750 1.391 . S
H2752 C2760 0.950 . S
H2753 C2765 0.950 . S
H2754 C2762 0.950 . S
H2755 C2764 0.950 . S
H2756 C2766 0.950 . S
H2757 C2768 0.950 . S
H2758 C2770 0.950 . S
H2759 C2771 0.950 . S
C2760 H2752 0.950 . S
C2760 C2761 1.386 . S
C2760 C2762 1.391 . S
C2761 C2760 1.386 . S
C2761 C2765 1.393 . S
C2762 H2754 0.950 . S
C2762 C2760 1.391 . S
C2762 C2763 1.400 . S
C2763 C2762 1.400 . S
C2763 C2764 1.398 . S
C2763 C2769 1.491 . S
C2764 H2755 0.950 . S
C2764 C2763 1.398 . S
C2764 C2765 1.391 . S
C2765 H2753 0.950 . S
C2765 C2761 1.393 . S
C2765 C2764 1.391 . S
C2766 H2756 0.950 . S
C2766 C2767 1.386 . S
C2766 C2768 1.391 . S
C2767 C2766 1.386 . S
C2767 C2771 1.393 . S
C2768 H2757 0.950 . S
C2768 C2766 1.391 . S
C2768 C2769 1.400 . S
C2769 C2763 1.491 . S
C2769 C2768 1.400 . S
C2769 C2770 1.398 . S
C2770 H2758 0.950 . S
C2770 C2769 1.398 . S
C2770 C2771 1.391 . S
C2771 H2759 0.950 . S
C2771 C2767 1.393 . S
C2771 C2770 1.391 . S
H2772 C2780 0.950 . S
H2773 C2785 0.950 . S
H2774 C2782 0.950 . S
H2775 C2784 0.950 . S
H2776 C2786 0.950 . S
H2777 C2788 0.950 . S
H2778 C2790 0.950 . S
H2779 C2791 0.950 . S
C2780 H2772 0.950 . S
C2780 C2781 1.386 . S
C2780 C2782 1.391 . S
C2781 C2780 1.386 . S
C2781 C2785 1.393 . S
C2782 H2774 0.950 . S
C2782 C2780 1.391 . S
C2782 C2783 1.400 . S
C2783 C2782 1.400 . S
C2783 C2784 1.398 . S
C2783 C2789 1.491 . S
C2784 H2775 0.950 . S
C2784 C2783 1.398 . S
C2784 C2785 1.391 . S
C2785 H2773 0.950 . S
C2785 C2781 1.393 . S
C2785 C2784 1.391 . S
C2786 H2776 0.950 . S
C2786 C2787 1.386 . S
C2786 C2788 1.391 . S
C2787 C2786 1.386 . S
C2787 C2791 1.393 . S
C2788 H2777 0.950 . S
C2788 C2786 1.391 . S
C2788 C2789 1.400 . S
C2789 C2783 1.491 . S
C2789 C2788 1.400 . S
C2789 C2790 1.398 . S
C2790 H2778 0.950 . S
C2790 C2789 1.398 . S
C2790 C2791 1.391 . S
C2791 H2779 0.950 . S
C2791 C2787 1.393 . S
C2791 C2790 1.391 . S
H2792 C2800 0.950 . S
H2793 C2805 0.950 . S
H2794 C2802 0.950 . S
H2795 C2804 0.950 . S
H2796 C2806 0.950 . S
H2797 C2808 0.950 . S
H2798 C2810 0.950 . S
H2799 C2811 0.950 . S
C2800 H2792 0.950 . S
C2800 C2801 1.386 . S
C2800 C2802 1.391 . S
C2801 C2800 1.386 . S
C2801 C2805 1.393 . S
C2802 H2794 0.950 . S
C2802 C2800 1.391 . S
C2802 C2803 1.400 . S
C2803 C2802 1.400 . S
C2803 C2804 1.398 . S
C2803 C2809 1.491 . S
C2804 H2795 0.950 . S
C2804 C2803 1.398 . S
C2804 C2805 1.391 . S
C2805 H2793 0.950 . S
C2805 C2801 1.393 . S
C2805 C2804 1.391 . S
C2806 H2796 0.950 . S
C2806 C2807 1.386 . S
C2806 C2808 1.391 . S
C2807 C2806 1.386 . S
C2807 C2811 1.393 . S
C2808 H2797 0.950 . S
C2808 C2806 1.391 . S
C2808 C2809 1.400 . S
C2809 C2803 1.491 . S
C2809 C2808 1.400 . S
C2809 C2810 1.398 . S
C2810 H2798 0.950 . S
C2810 C2809 1.398 . S
C2810 C2811 1.391 . S
C2811 H2799 0.950 . S
C2811 C2807 1.393 . S
C2811 C2810 1.391 . S
H2812 C2820 0.950 . S
H2813 C2825 0.950 . S
H2814 C2822 0.950 . S
H2815 C2824 0.950 . S
H2816 C2826 0.950 . S
H2817 C2828 0.950 . S
H2818 C2830 0.950 . S
H2819 C2831 0.950 . S
C2820 H2812 0.950 . S
C2820 C2821 1.386 . S
C2820 C2822 1.391 . S
C2821 C2820 1.386 . S
C2821 C2825 1.393 . S
C2822 H2814 0.950 . S
C2822 C2820 1.391 . S
C2822 C2823 1.400 . S
C2823 C2822 1.400 . S
C2823 C2824 1.398 . S
C2823 C2829 1.491 . S
C2824 H2815 0.950 . S
C2824 C2823 1.398 . S
C2824 C2825 1.391 . S
C2825 H2813 0.950 . S
C2825 C2821 1.393 . S
C2825 C2824 1.391 . S
C2826 H2816 0.950 . S
C2826 C2827 1.386 . S
C2826 C2828 1.391 . S
C2827 C2826 1.386 . S
C2827 C2831 1.393 . S
C2828 H2817 0.950 . S
C2828 C2826 1.391 . S
C2828 C2829 1.400 . S
C2829 C2823 1.491 . S
C2829 C2828 1.400 . S
C2829 C2830 1.398 . S
C2830 H2818 0.950 . S
C2830 C2829 1.398 . S
C2830 C2831 1.391 . S
C2831 H2819 0.950 . S
C2831 C2827 1.393 . S
C2831 C2830 1.391 . S
H2832 C2840 0.950 . S
H2833 C2845 0.950 . S
H2834 C2842 0.950 . S
H2835 C2844 0.950 . S
H2836 C2846 0.950 . S
H2837 C2848 0.950 . S
H2838 C2850 0.950 . S
H2839 C2851 0.950 . S
C2840 H2832 0.950 . S
C2840 C2841 1.386 . S
C2840 C2842 1.391 . S
C2841 C2840 1.386 . S
C2841 C2845 1.393 . S
C2842 H2834 0.950 . S
C2842 C2840 1.391 . S
C2842 C2843 1.400 . S
C2843 C2842 1.400 . S
C2843 C2844 1.398 . S
C2843 C2849 1.491 . S
C2844 H2835 0.950 . S
C2844 C2843 1.398 . S
C2844 C2845 1.391 . S
C2845 H2833 0.950 . S
C2845 C2841 1.393 . S
C2845 C2844 1.391 . S
C2846 H2836 0.950 . S
C2846 C2847 1.386 . S
C2846 C2848 1.391 . S
C2847 C2846 1.386 . S
C2847 C2851 1.393 . S
C2848 H2837 0.950 . S
C2848 C2846 1.391 . S
C2848 C2849 1.400 . S
C2849 C2843 1.491 . S
C2849 C2848 1.400 . S
C2849 C2850 1.398 . S
C2850 H2838 0.950 . S
C2850 C2849 1.398 . S
C2850 C2851 1.391 . S
C2851 H2839 0.950 . S
C2851 C2847 1.393 . S
C2851 C2850 1.391 . S
H2852 C2860 0.950 . S
H2853 C2865 0.950 . S
H2854 C2862 0.950 1_455 S
H2855 C2864 0.950 . S
H2856 C2866 0.950 . S
H2857 C2868 0.950 . S
H2858 C2870 0.950 . S
H2859 C2871 0.950 . S
C2860 H2852 0.950 . S
C2860 C2861 1.386 . S
C2860 C2862 1.391 . S
C2861 C2860 1.386 . S
C2861 C2865 1.393 . S
C2862 H2854 0.950 1_655 S
C2862 C2860 1.391 . S
C2862 C2863 1.400 . S
C2863 C2862 1.400 . S
C2863 C2864 1.398 . S
C2863 C2869 1.491 1_655 S
C2864 H2855 0.950 . S
C2864 C2863 1.398 . S
C2864 C2865 1.391 . S
C2865 H2853 0.950 . S
C2865 C2861 1.393 . S
C2865 C2864 1.391 . S
C2866 H2856 0.950 . S
C2866 C2867 1.386 . S
C2866 C2868 1.391 . S
C2867 C2866 1.386 . S
C2867 C2871 1.393 . S
C2868 H2857 0.950 . S
C2868 C2866 1.391 . S
C2868 C2869 1.400 . S
C2869 C2863 1.491 1_455 S
C2869 C2868 1.400 . S
C2869 C2870 1.398 . S
C2870 H2858 0.950 . S
C2870 C2869 1.398 . S
C2870 C2871 1.391 . S
C2871 H2859 0.950 . S
C2871 C2867 1.393 . S
C2871 C2870 1.391 . S
H2872 C2880 0.950 . S
H2873 C2885 0.950 . S
H2874 C2882 0.950 . S
H2875 C2884 0.950 . S
H2876 C2886 0.950 . S
H2877 C2888 0.950 . S
H2878 C2890 0.950 . S
H2879 C2891 0.950 . S
C2880 H2872 0.950 . S
C2880 C2881 1.386 . S
C2880 C2882 1.391 . S
C2881 C2880 1.386 . S
C2881 C2885 1.393 . S
C2882 H2874 0.950 . S
C2882 C2880 1.391 . S
C2882 C2883 1.400 . S
C2883 C2882 1.400 . S
C2883 C2884 1.398 . S
C2883 C2889 1.491 . S
C2884 H2875 0.950 . S
C2884 C2883 1.398 . S
C2884 C2885 1.391 . S
C2885 H2873 0.950 . S
C2885 C2881 1.393 . S
C2885 C2884 1.391 . S
C2886 H2876 0.950 . S
C2886 C2887 1.386 . S
C2886 C2888 1.391 . S
C2887 C2886 1.386 . S
C2887 C2891 1.393 . S
C2888 H2877 0.950 . S
C2888 C2886 1.391 . S
C2888 C2889 1.400 . S
C2889 C2883 1.491 . S
C2889 C2888 1.400 . S
C2889 C2890 1.398 . S
C2890 H2878 0.950 . S
C2890 C2889 1.398 . S
C2890 C2891 1.391 . S
C2891 H2879 0.950 . S
C2891 C2887 1.393 . S
C2891 C2890 1.391 . S
H2892 C2900 0.950 . S
H2893 C2905 0.950 . S
H2894 C2902 0.950 . S
H2895 C2904 0.950 . S
H2896 C2906 0.950 . S
H2897 C2908 0.950 . S
H2898 C2910 0.950 1_655 S
H2899 C2911 0.950 . S
C2900 H2892 0.950 . S
C2900 C2901 1.386 . S
C2900 C2902 1.391 . S
C2901 C2900 1.386 . S
C2901 C2905 1.393 . S
C2902 H2894 0.950 . S
C2902 C2900 1.391 . S
C2902 C2903 1.400 . S
C2903 C2902 1.400 . S
C2903 C2904 1.398 . S
C2903 C2909 1.491 1_655 S
C2904 H2895 0.950 . S
C2904 C2903 1.398 . S
C2904 C2905 1.391 . S
C2905 H2893 0.950 . S
C2905 C2901 1.393 . S
C2905 C2904 1.391 . S
C2906 H2896 0.950 . S
C2906 C2907 1.386 . S
C2906 C2908 1.391 . S
C2907 C2906 1.386 . S
C2907 C2911 1.393 . S
C2908 H2897 0.950 . S
C2908 C2906 1.391 . S
C2908 C2909 1.400 . S
C2909 C2903 1.491 1_455 S
C2909 C2908 1.400 . S
C2909 C2910 1.398 . S
C2910 H2898 0.950 1_455 S
C2910 C2909 1.398 . S
C2910 C2911 1.391 . S
C2911 H2899 0.950 . S
C2911 C2907 1.393 . S
C2911 C2910 1.391 . S
H2912 C2920 0.950 . S
H2913 C2925 0.950 . S
H2914 C2922 0.950 . S
H2915 C2924 0.950 . S
H2916 C2926 0.950 . S
H2917 C2928 0.950 . S
H2918 C2930 0.950 . S
H2919 C2931 0.950 . S
C2920 H2912 0.950 . S
C2920 C2921 1.386 . S
C2920 C2922 1.391 . S
C2921 C2920 1.386 . S
C2921 C2925 1.393 . S
C2922 H2914 0.950 . S
C2922 C2920 1.391 . S
C2922 C2923 1.400 . S
C2923 C2922 1.400 . S
C2923 C2924 1.398 . S
C2923 C2929 1.491 . S
C2924 H2915 0.950 . S
C2924 C2923 1.398 . S
C2924 C2925 1.391 . S
C2925 H2913 0.950 . S
C2925 C2921 1.393 . S
C2925 C2924 1.391 . S
C2926 H2916 0.950 . S
C2926 C2927 1.386 . S
C2926 C2928 1.391 . S
C2927 C2926 1.386 . S
C2927 C2931 1.393 . S
C2928 H2917 0.950 . S
C2928 C2926 1.391 . S
C2928 C2929 1.400 . S
C2929 C2923 1.491 . S
C2929 C2928 1.400 . S
C2929 C2930 1.398 . S
C2930 H2918 0.950 . S
C2930 C2929 1.398 . S
C2930 C2931 1.391 . S
C2931 H2919 0.950 . S
C2931 C2927 1.393 . S
C2931 C2930 1.391 . S
H2932 C2940 0.950 . S
H2933 C2945 0.950 . S
H2934 C2942 0.950 . S
H2935 C2944 0.950 . S
H2936 C2946 0.950 . S
H2937 C2948 0.950 . S
H2938 C2950 0.950 . S
H2939 C2951 0.950 . S
C2940 H2932 0.950 . S
C2940 C2941 1.386 . S
C2940 C2942 1.391 . S
C2941 C2940 1.386 . S
C2941 C2945 1.393 . S
C2942 H2934 0.950 . S
C2942 C2940 1.391 . S
C2942 C2943 1.400 . S
C2943 C2942 1.400 . S
C2943 C2944 1.398 . S
C2943 C2949 1.491 . S
C2944 H2935 0.950 . S
C2944 C2943 1.398 . S
C2944 C2945 1.391 . S
C2945 H2933 0.950 . S
C2945 C2941 1.393 . S
C2945 C2944 1.391 . S
C2946 H2936 0.950 . S
C2946 C2947 1.386 . S
C2946 C2948 1.391 . S
C2947 C2946 1.386 . S
C2947 C2951 1.393 . S
C2948 H2937 0.950 . S
C2948 C2946 1.391 . S
C2948 C2949 1.400 . S
C2949 C2943 1.491 . S
C2949 C2948 1.400 . S
C2949 C2950 1.398 . S
C2950 H2938 0.950 . S
C2950 C2949 1.398 . S
C2950 C2951 1.391 . S
C2951 H2939 0.950 . S
C2951 C2947 1.393 . S
C2951 C2950 1.391 . S
H2952 C2960 0.950 . S
H2953 C2965 0.950 . S
H2954 C2962 0.950 1_556 S
H2955 C2964 0.950 . S
H2956 C2966 0.950 . S
H2957 C2968 0.950 . S
H2958 C2970 0.950 . S
H2959 C2971 0.950 . S
C2960 H2952 0.950 . S
C2960 C2961 1.386 . S
C2960 C2962 1.391 . S
C2961 C2960 1.386 . S
C2961 C2965 1.393 . S
C2962 H2954 0.950 1_554 S
C2962 C2960 1.391 . S
C2962 C2963 1.400 . S
C2963 C2962 1.400 . S
C2963 C2964 1.398 . S
C2963 C2969 1.491 1_554 S
C2964 H2955 0.950 . S
C2964 C2963 1.398 . S
C2964 C2965 1.391 . S
C2965 H2953 0.950 . S
C2965 C2961 1.393 . S
C2965 C2964 1.391 . S
C2966 H2956 0.950 . S
C2966 C2967 1.386 . S
C2966 C2968 1.391 . S
C2967 C2966 1.386 . S
C2967 C2971 1.393 . S
C2968 H2957 0.950 . S
C2968 C2966 1.391 . S
C2968 C2969 1.400 . S
C2969 C2963 1.491 1_556 S
C2969 C2968 1.400 . S
C2969 C2970 1.398 . S
C2970 H2958 0.950 . S
C2970 C2969 1.398 . S
C2970 C2971 1.391 . S
C2971 H2959 0.950 . S
C2971 C2967 1.393 . S
C2971 C2970 1.391 . S
H2972 C2980 0.950 . S
H2973 C2985 0.950 . S
H2974 C2982 0.950 . S
H2975 C2984 0.950 . S
H2976 C2986 0.950 . S
H2977 C2988 0.950 . S
H2978 C2990 0.950 . S
H2979 C2991 0.950 . S
C2980 H2972 0.950 . S
C2980 C2981 1.386 . S
C2980 C2982 1.391 . S
C2981 C2980 1.386 . S
C2981 C2985 1.393 . S
C2982 H2974 0.950 . S
C2982 C2980 1.391 . S
C2982 C2983 1.400 . S
C2983 C2982 1.400 . S
C2983 C2984 1.398 . S
C2983 C2989 1.491 . S
C2984 H2975 0.950 . S
C2984 C2983 1.398 . S
C2984 C2985 1.391 . S
C2985 H2973 0.950 . S
C2985 C2981 1.393 . S
C2985 C2984 1.391 . S
C2986 H2976 0.950 . S
C2986 C2987 1.386 . S
C2986 C2988 1.391 . S
C2987 C2986 1.386 . S
C2987 C2991 1.393 . S
C2988 H2977 0.950 . S
C2988 C2986 1.391 . S
C2988 C2989 1.400 . S
C2989 C2983 1.491 . S
C2989 C2988 1.400 . S
C2989 C2990 1.398 . S
C2990 H2978 0.950 . S
C2990 C2989 1.398 . S
C2990 C2991 1.391 . S
C2991 H2979 0.950 . S
C2991 C2987 1.393 . S
C2991 C2990 1.391 . S
H2992 C3000 0.950 . S
H2993 C3005 0.950 . S
H2994 C3002 0.950 . S
H2995 C3004 0.950 . S
H2996 C3006 0.950 . S
H2997 C3008 0.950 . S
H2998 C3010 0.950 . S
H2999 C3011 0.950 . S
C3000 H2992 0.950 . S
C3000 C3001 1.386 . S
C3000 C3002 1.391 . S
C3001 C3000 1.386 . S
C3001 C3005 1.393 . S
C3002 H2994 0.950 . S
C3002 C3000 1.391 . S
C3002 C3003 1.400 . S
C3003 C3002 1.400 . S
C3003 C3004 1.398 . S
C3003 C3009 1.491 . S
C3004 H2995 0.950 . S
C3004 C3003 1.398 . S
C3004 C3005 1.391 . S
C3005 H2993 0.950 . S
C3005 C3001 1.393 . S
C3005 C3004 1.391 . S
C3006 H2996 0.950 . S
C3006 C3007 1.386 . S
C3006 C3008 1.391 . S
C3007 C3006 1.386 . S
C3007 C3011 1.393 . S
C3008 H2997 0.950 . S
C3008 C3006 1.391 . S
C3008 C3009 1.400 . S
C3009 C3003 1.491 . S
C3009 C3008 1.400 . S
C3009 C3010 1.398 . S
C3010 H2998 0.950 . S
C3010 C3009 1.398 . S
C3010 C3011 1.391 . S
C3011 H2999 0.950 . S
C3011 C3007 1.393 . S
C3011 C3010 1.391 . S
H3012 C3020 0.950 . S
H3013 C3025 0.950 . S
H3014 C3022 0.950 . S
H3015 C3024 0.950 . S
H3016 C3026 0.950 . S
H3017 C3028 0.950 . S
H3018 C3030 0.950 . S
H3019 C3031 0.950 . S
C3020 H3012 0.950 . S
C3020 C3021 1.386 . S
C3020 C3022 1.391 . S
C3021 C3020 1.386 . S
C3021 C3025 1.393 . S
C3022 H3014 0.950 . S
C3022 C3020 1.391 . S
C3022 C3023 1.400 . S
C3023 C3022 1.400 . S
C3023 C3024 1.398 . S
C3023 C3029 1.491 . S
C3024 H3015 0.950 . S
C3024 C3023 1.398 . S
C3024 C3025 1.391 . S
C3025 H3013 0.950 . S
C3025 C3021 1.393 . S
C3025 C3024 1.391 . S
C3026 H3016 0.950 . S
C3026 C3027 1.386 . S
C3026 C3028 1.391 . S
C3027 C3026 1.386 . S
C3027 C3031 1.393 . S
C3028 H3017 0.950 . S
C3028 C3026 1.391 . S
C3028 C3029 1.400 . S
C3029 C3023 1.491 . S
C3029 C3028 1.400 . S
C3029 C3030 1.398 . S
C3030 H3018 0.950 . S
C3030 C3029 1.398 . S
C3030 C3031 1.391 . S
C3031 H3019 0.950 . S
C3031 C3027 1.393 . S
C3031 C3030 1.391 . S
H3032 C3040 0.950 . S
H3033 C3045 0.950 . S
H3034 C3042 0.950 . S
H3035 C3044 0.950 . S
H3036 C3046 0.950 . S
H3037 C3048 0.950 . S
H3038 C3050 0.950 . S
H3039 C3051 0.950 . S
C3040 H3032 0.950 . S
C3040 C3041 1.386 . S
C3040 C3042 1.391 . S
C3041 C3040 1.386 . S
C3041 C3045 1.393 . S
C3042 H3034 0.950 . S
C3042 C3040 1.391 . S
C3042 C3043 1.400 . S
C3043 C3042 1.400 . S
C3043 C3044 1.398 . S
C3043 C3049 1.491 . S
C3044 H3035 0.950 . S
C3044 C3043 1.398 . S
C3044 C3045 1.391 . S
C3045 H3033 0.950 . S
C3045 C3041 1.393 . S
C3045 C3044 1.391 . S
C3046 H3036 0.950 . S
C3046 C3047 1.386 . S
C3046 C3048 1.391 . S
C3047 C3046 1.386 . S
C3047 C3051 1.393 . S
C3048 H3037 0.950 . S
C3048 C3046 1.391 . S
C3048 C3049 1.400 . S
C3049 C3043 1.491 . S
C3049 C3048 1.400 . S
C3049 C3050 1.398 . S
C3050 H3038 0.950 . S
C3050 C3049 1.398 . S
C3050 C3051 1.391 . S
C3051 H3039 0.950 . S
C3051 C3047 1.393 . S
C3051 C3050 1.391 . S
H3052 C3060 0.950 . S
H3053 C3065 0.950 . S
H3054 C3062 0.950 . S
H3055 C3064 0.950 . S
H3056 C3066 0.950 . S
H3057 C3068 0.950 . S
H3058 C3070 0.950 . S
H3059 C3071 0.950 . S
C3060 H3052 0.950 . S
C3060 C3061 1.386 . S
C3060 C3062 1.391 . S
C3061 C3060 1.386 . S
C3061 C3065 1.393 . S
C3062 H3054 0.950 . S
C3062 C3060 1.391 . S
C3062 C3063 1.400 . S
C3063 C3062 1.400 . S
C3063 C3064 1.398 . S
C3063 C3069 1.491 . S
C3064 H3055 0.950 . S
C3064 C3063 1.398 . S
C3064 C3065 1.391 . S
C3065 H3053 0.950 . S
C3065 C3061 1.393 . S
C3065 C3064 1.391 . S
C3066 H3056 0.950 . S
C3066 C3067 1.386 . S
C3066 C3068 1.391 . S
C3067 C3066 1.386 . S
C3067 C3071 1.393 . S
C3068 H3057 0.950 . S
C3068 C3066 1.391 . S
C3068 C3069 1.400 . S
C3069 C3063 1.491 . S
C3069 C3068 1.400 . S
C3069 C3070 1.398 . S
C3070 H3058 0.950 . S
C3070 C3069 1.398 . S
C3070 C3071 1.391 . S
C3071 H3059 0.950 . S
C3071 C3067 1.393 . S
C3071 C3070 1.391 . S
H3072 C3080 0.950 . S
H3073 C3085 0.950 . S
H3074 C3082 0.950 . S
H3075 C3084 0.950 . S
H3076 C3086 0.950 . S
H3077 C3088 0.950 . S
H3078 C3090 0.950 . S
H3079 C3091 0.950 . S
C3080 H3072 0.950 . S
C3080 C3081 1.386 . S
C3080 C3082 1.391 . S
C3081 C3080 1.386 . S
C3081 C3085 1.393 . S
C3082 H3074 0.950 . S
C3082 C3080 1.391 . S
C3082 C3083 1.400 . S
C3083 C3082 1.400 . S
C3083 C3084 1.398 . S
C3083 C3089 1.491 . S
C3084 H3075 0.950 . S
C3084 C3083 1.398 . S
C3084 C3085 1.391 . S
C3085 H3073 0.950 . S
C3085 C3081 1.393 . S
C3085 C3084 1.391 . S
C3086 H3076 0.950 . S
C3086 C3087 1.386 . S
C3086 C3088 1.391 . S
C3087 C3086 1.386 . S
C3087 C3091 1.393 . S
C3088 H3077 0.950 . S
C3088 C3086 1.391 . S
C3088 C3089 1.400 . S
C3089 C3083 1.491 . S
C3089 C3088 1.400 . S
C3089 C3090 1.398 . S
C3090 H3078 0.950 . S
C3090 C3089 1.398 . S
C3090 C3091 1.391 . S
C3091 H3079 0.950 . S
C3091 C3087 1.393 . S
C3091 C3090 1.391 . S
H3092 C3100 0.950 . S
H3093 C3105 0.950 . S
H3094 C3102 0.950 . S
H3095 C3104 0.950 . S
H3096 C3106 0.950 . S
H3097 C3108 0.950 . S
H3098 C3110 0.950 . S
H3099 C3111 0.950 . S
C3100 H3092 0.950 . S
C3100 C3101 1.386 . S
C3100 C3102 1.391 . S
C3101 C3100 1.386 . S
C3101 C3105 1.393 . S
C3102 H3094 0.950 . S
C3102 C3100 1.391 . S
C3102 C3103 1.400 . S
C3103 C3102 1.400 . S
C3103 C3104 1.398 . S
C3103 C3109 1.491 1_565 S
C3104 H3095 0.950 . S
C3104 C3103 1.398 . S
C3104 C3105 1.391 . S
C3105 H3093 0.950 . S
C3105 C3101 1.393 . S
C3105 C3104 1.391 . S
C3106 H3096 0.950 . S
C3106 C3107 1.386 . S
C3106 C3108 1.391 . S
C3107 C3106 1.386 . S
C3107 C3111 1.393 . S
C3108 H3097 0.950 . S
C3108 C3106 1.391 . S
C3108 C3109 1.400 . S
C3109 C3103 1.491 1_545 S
C3109 C3108 1.400 . S
C3109 C3110 1.398 . S
C3110 H3098 0.950 . S
C3110 C3109 1.398 . S
C3110 C3111 1.391 . S
C3111 H3099 0.950 . S
C3111 C3107 1.393 . S
C3111 C3110 1.391 . S
H3112 C3120 0.950 . S
H3113 C3125 0.950 . S
H3114 C3122 0.950 . S
H3115 C3124 0.950 . S
H3116 C3126 0.950 . S
H3117 C3128 0.950 . S
H3118 C3130 0.950 . S
H3119 C3131 0.950 . S
C3120 H3112 0.950 . S
C3120 C3121 1.386 . S
C3120 C3122 1.391 . S
C3121 C3120 1.386 . S
C3121 C3125 1.393 . S
C3122 H3114 0.950 . S
C3122 C3120 1.391 . S
C3122 C3123 1.400 . S
C3123 C3122 1.400 . S
C3123 C3124 1.398 . S
C3123 C3129 1.491 . S
C3124 H3115 0.950 . S
C3124 C3123 1.398 . S
C3124 C3125 1.391 . S
C3125 H3113 0.950 . S
C3125 C3121 1.393 . S
C3125 C3124 1.391 . S
C3126 H3116 0.950 . S
C3126 C3127 1.386 . S
C3126 C3128 1.391 . S
C3127 C3126 1.386 . S
C3127 C3131 1.393 . S
C3128 H3117 0.950 . S
C3128 C3126 1.391 . S
C3128 C3129 1.400 . S
C3129 C3123 1.491 . S
C3129 C3128 1.400 . S
C3129 C3130 1.398 . S
C3130 H3118 0.950 . S
C3130 C3129 1.398 . S
C3130 C3131 1.391 . S
C3131 H3119 0.950 . S
C3131 C3127 1.393 . S
C3131 C3130 1.391 . S
H3132 C3140 0.950 . S
H3133 C3145 0.950 . S
H3134 C3142 0.950 . S
H3135 C3144 0.950 . S
H3136 C3146 0.950 . S
H3137 C3148 0.950 . S
H3138 C3150 0.950 . S
H3139 C3151 0.950 . S
C3140 H3132 0.950 . S
C3140 C3141 1.386 . S
C3140 C3142 1.391 . S
C3141 C3140 1.386 . S
C3141 C3145 1.393 . S
C3142 H3134 0.950 . S
C3142 C3140 1.391 . S
C3142 C3143 1.400 . S
C3143 C3142 1.400 . S
C3143 C3144 1.398 . S
C3143 C3149 1.491 . S
C3144 H3135 0.950 . S
C3144 C3143 1.398 . S
C3144 C3145 1.391 . S
C3145 H3133 0.950 . S
C3145 C3141 1.393 . S
C3145 C3144 1.391 . S
C3146 H3136 0.950 . S
C3146 C3147 1.386 . S
C3146 C3148 1.391 . S
C3147 C3146 1.386 . S
C3147 C3151 1.393 . S
C3148 H3137 0.950 . S
C3148 C3146 1.391 . S
C3148 C3149 1.400 . S
C3149 C3143 1.491 . S
C3149 C3148 1.400 . S
C3149 C3150 1.398 . S
C3150 H3138 0.950 . S
C3150 C3149 1.398 . S
C3150 C3151 1.391 . S
C3151 H3139 0.950 . S
C3151 C3147 1.393 . S
C3151 C3150 1.391 . S
H3152 C3160 0.950 . S
H3153 C3165 0.950 . S
H3154 C3162 0.950 . S
H3155 C3164 0.950 . S
H3156 C3166 0.950 . S
H3157 C3168 0.950 . S
H3158 C3170 0.950 . S
H3159 C3171 0.950 . S
C3160 H3152 0.950 . S
C3160 C3161 1.386 . S
C3160 C3162 1.391 . S
C3161 C3160 1.386 . S
C3161 C3165 1.393 . S
C3162 H3154 0.950 . S
C3162 C3160 1.391 . S
C3162 C3163 1.400 . S
C3163 C3162 1.400 . S
C3163 C3164 1.398 . S
C3163 C3169 1.491 . S
C3164 H3155 0.950 . S
C3164 C3163 1.398 . S
C3164 C3165 1.391 . S
C3165 H3153 0.950 . S
C3165 C3161 1.393 . S
C3165 C3164 1.391 . S
C3166 H3156 0.950 . S
C3166 C3167 1.386 . S
C3166 C3168 1.391 . S
C3167 C3166 1.386 . S
C3167 C3171 1.393 . S
C3168 H3157 0.950 . S
C3168 C3166 1.391 . S
C3168 C3169 1.400 . S
C3169 C3163 1.491 . S
C3169 C3168 1.400 . S
C3169 C3170 1.398 . S
C3170 H3158 0.950 . S
C3170 C3169 1.398 . S
C3170 C3171 1.391 . S
C3171 H3159 0.950 . S
C3171 C3167 1.393 . S
C3171 C3170 1.391 . S
H3172 C3180 0.950 . S
H3173 C3185 0.950 . S
H3174 C3182 0.950 1_545 S
H3175 C3184 0.950 . S
H3176 C3186 0.950 . S
H3177 C3188 0.950 . S
H3178 C3190 0.950 . S
H3179 C3191 0.950 . S
C3180 H3172 0.950 . S
C3180 C3181 1.386 . S
C3180 C3182 1.391 . S
C3181 C3180 1.386 . S
C3181 C3185 1.393 . S
C3182 H3174 0.950 1_565 S
C3182 C3180 1.391 . S
C3182 C3183 1.400 . S
C3183 C3182 1.400 . S
C3183 C3184 1.398 . S
C3183 C3189 1.491 1_565 S
C3184 H3175 0.950 . S
C3184 C3183 1.398 . S
C3184 C3185 1.391 . S
C3185 H3173 0.950 . S
C3185 C3181 1.393 . S
C3185 C3184 1.391 . S
C3186 H3176 0.950 . S
C3186 C3187 1.386 . S
C3186 C3188 1.391 . S
C3187 C3186 1.386 . S
C3187 C3191 1.393 . S
C3188 H3177 0.950 . S
C3188 C3186 1.391 . S
C3188 C3189 1.400 . S
C3189 C3183 1.491 1_545 S
C3189 C3188 1.400 . S
C3189 C3190 1.398 . S
C3190 H3178 0.950 . S
C3190 C3189 1.398 . S
C3190 C3191 1.391 . S
C3191 H3179 0.950 . S
C3191 C3187 1.393 . S
C3191 C3190 1.391 . S
H3192 C3200 0.950 . S
H3193 C3205 0.950 . S
H3194 C3202 0.950 . S
H3195 C3204 0.950 . S
H3196 C3206 0.950 . S
H3197 C3208 0.950 . S
H3198 C3210 0.950 . S
H3199 C3211 0.950 . S
C3200 H3192 0.950 . S
C3200 C3201 1.386 . S
C3200 C3202 1.391 . S
C3201 C3200 1.386 . S
C3201 C3205 1.393 . S
C3202 H3194 0.950 . S
C3202 C3200 1.391 . S
C3202 C3203 1.400 . S
C3203 C3202 1.400 . S
C3203 C3204 1.398 . S
C3203 C3209 1.491 . S
C3204 H3195 0.950 . S
C3204 C3203 1.398 . S
C3204 C3205 1.391 . S
C3205 H3193 0.950 . S
C3205 C3201 1.393 . S
C3205 C3204 1.391 . S
C3206 H3196 0.950 . S
C3206 C3207 1.386 . S
C3206 C3208 1.391 . S
C3207 C3206 1.386 . S
C3207 C3211 1.393 . S
C3208 H3197 0.950 . S
C3208 C3206 1.391 . S
C3208 C3209 1.400 . S
C3209 C3203 1.491 . S
C3209 C3208 1.400 . S
C3209 C3210 1.398 . S
C3210 H3198 0.950 . S
C3210 C3209 1.398 . S
C3210 C3211 1.391 . S
C3211 H3199 0.950 . S
C3211 C3207 1.393 . S
C3211 C3210 1.391 . S
H3212 C3220 0.950 . S
H3213 C3225 0.950 . S
H3214 C3222 0.950 . S
H3215 C3224 0.950 . S
H3216 C3226 0.950 . S
H3217 C3228 0.950 . S
H3218 C3230 0.950 . S
H3219 C3231 0.950 . S
C3220 H3212 0.950 . S
C3220 C3221 1.386 . S
C3220 C3222 1.391 . S
C3221 C3220 1.386 . S
C3221 C3225 1.393 . S
C3222 H3214 0.950 . S
C3222 C3220 1.391 . S
C3222 C3223 1.400 . S
C3223 C3222 1.400 . S
C3223 C3224 1.398 . S
C3223 C3229 1.491 . S
C3224 H3215 0.950 . S
C3224 C3223 1.398 . S
C3224 C3225 1.391 . S
C3225 H3213 0.950 . S
C3225 C3221 1.393 . S
C3225 C3224 1.391 . S
C3226 H3216 0.950 . S
C3226 C3227 1.386 . S
C3226 C3228 1.391 . S
C3227 C3226 1.386 . S
C3227 C3231 1.393 . S
C3228 H3217 0.950 . S
C3228 C3226 1.391 . S
C3228 C3229 1.400 . S
C3229 C3223 1.491 . S
C3229 C3228 1.400 . S
C3229 C3230 1.398 . S
C3230 H3218 0.950 . S
C3230 C3229 1.398 . S
C3230 C3231 1.391 . S
C3231 H3219 0.950 . S
C3231 C3227 1.393 . S
C3231 C3230 1.391 . S
H3232 C3240 0.950 . S
H3233 C3245 0.950 . S
H3234 C3242 0.950 . S
H3235 C3244 0.950 . S
H3236 C3246 0.950 . S
H3237 C3248 0.950 . S
H3238 C3250 0.950 . S
H3239 C3251 0.950 . S
C3240 H3232 0.950 . S
C3240 C3241 1.386 . S
C3240 C3242 1.391 . S
C3241 C3240 1.386 . S
C3241 C3245 1.393 . S
C3242 H3234 0.950 . S
C3242 C3240 1.391 . S
C3242 C3243 1.400 . S
C3243 C3242 1.400 . S
C3243 C3244 1.398 . S
C3243 C3249 1.491 . S
C3244 H3235 0.950 . S
C3244 C3243 1.398 . S
C3244 C3245 1.391 . S
C3245 H3233 0.950 . S
C3245 C3241 1.393 . S
C3245 C3244 1.391 . S
C3246 H3236 0.950 . S
C3246 C3247 1.386 . S
C3246 C3248 1.391 . S
C3247 C3246 1.386 . S
C3247 C3251 1.393 . S
C3248 H3237 0.950 . S
C3248 C3246 1.391 . S
C3248 C3249 1.400 . S
C3249 C3243 1.491 . S
C3249 C3248 1.400 . S
C3249 C3250 1.398 . S
C3250 H3238 0.950 . S
C3250 C3249 1.398 . S
C3250 C3251 1.391 . S
C3251 H3239 0.950 . S
C3251 C3247 1.393 . S
C3251 C3250 1.391 . S
H3252 C3260 0.950 . S
H3253 C3265 0.950 . S
H3254 C3262 0.950 1_655 S
H3255 C3264 0.950 . S
H3256 C3266 0.950 . S
H3257 C3268 0.950 . S
H3258 C3270 0.950 . S
H3259 C3271 0.950 . S
C3260 H3252 0.950 . S
C3260 C3261 1.386 . S
C3260 C3262 1.391 . S
C3261 C3260 1.386 . S
C3261 C3265 1.393 . S
C3262 H3254 0.950 1_455 S
C3262 C3260 1.391 . S
C3262 C3263 1.400 . S
C3263 C3262 1.400 . S
C3263 C3264 1.398 . S
C3263 C3269 1.491 1_455 S
C3264 H3255 0.950 . S
C3264 C3263 1.398 . S
C3264 C3265 1.391 . S
C3265 H3253 0.950 . S
C3265 C3261 1.393 . S
C3265 C3264 1.391 . S
C3266 H3256 0.950 . S
C3266 C3267 1.386 . S
C3266 C3268 1.391 . S
C3267 C3266 1.386 . S
C3267 C3271 1.393 . S
C3268 H3257 0.950 . S
C3268 C3266 1.391 . S
C3268 C3269 1.400 . S
C3269 C3263 1.491 1_655 S
C3269 C3268 1.400 . S
C3269 C3270 1.398 . S
C3270 H3258 0.950 . S
C3270 C3269 1.398 . S
C3270 C3271 1.391 . S
C3271 H3259 0.950 . S
C3271 C3267 1.393 . S
C3271 C3270 1.391 . S
H3272 C3280 0.950 . S
H3273 C3285 0.950 . S
H3274 C3282 0.950 . S
H3275 C3284 0.950 . S
H3276 C3286 0.950 . S
H3277 C3288 0.950 . S
H3278 C3290 0.950 . S
H3279 C3291 0.950 . S
C3280 H3272 0.950 . S
C3280 C3281 1.386 . S
C3280 C3282 1.391 . S
C3281 C3280 1.386 . S
C3281 C3285 1.393 . S
C3282 H3274 0.950 . S
C3282 C3280 1.391 . S
C3282 C3283 1.400 . S
C3283 C3282 1.400 . S
C3283 C3284 1.398 . S
C3283 C3289 1.491 . S
C3284 H3275 0.950 . S
C3284 C3283 1.398 . S
C3284 C3285 1.391 . S
C3285 H3273 0.950 . S
C3285 C3281 1.393 . S
C3285 C3284 1.391 . S
C3286 H3276 0.950 . S
C3286 C3287 1.386 . S
C3286 C3288 1.391 . S
C3287 C3286 1.386 . S
C3287 C3291 1.393 . S
C3288 H3277 0.950 . S
C3288 C3286 1.391 . S
C3288 C3289 1.400 . S
C3289 C3283 1.491 . S
C3289 C3288 1.400 . S
C3289 C3290 1.398 . S
C3290 H3278 0.950 . S
C3290 C3289 1.398 . S
C3290 C3291 1.391 . S
C3291 H3279 0.950 . S
C3291 C3287 1.393 . S
C3291 C3290 1.391 . S
H3292 C3300 0.950 . S
H3293 C3305 0.950 . S
H3294 C3302 0.950 . S
H3295 C3304 0.950 . S
H3296 C3306 0.950 . S
H3297 C3308 0.950 . S
H3298 C3310 0.950 1_455 S
H3299 C3311 0.950 . S
C3300 H3292 0.950 . S
C3300 C3301 1.386 . S
C3300 C3302 1.391 . S
C3301 C3300 1.386 . S
C3301 C3305 1.393 . S
C3302 H3294 0.950 . S
C3302 C3300 1.391 . S
C3302 C3303 1.400 . S
C3303 C3302 1.400 . S
C3303 C3304 1.398 . S
C3303 C3309 1.491 1_455 S
C3304 H3295 0.950 . S
C3304 C3303 1.398 . S
C3304 C3305 1.391 . S
C3305 H3293 0.950 . S
C3305 C3301 1.393 . S
C3305 C3304 1.391 . S
C3306 H3296 0.950 . S
C3306 C3307 1.386 . S
C3306 C3308 1.391 . S
C3307 C3306 1.386 . S
C3307 C3311 1.393 . S
C3308 H3297 0.950 . S
C3308 C3306 1.391 . S
C3308 C3309 1.400 . S
C3309 C3303 1.491 1_655 S
C3309 C3308 1.400 . S
C3309 C3310 1.398 . S
C3310 H3298 0.950 1_655 S
C3310 C3309 1.398 . S
C3310 C3311 1.391 . S
C3311 H3299 0.950 . S
C3311 C3307 1.393 . S
C3311 C3310 1.391 . S
H3312 C3320 0.950 . S
H3313 C3325 0.950 . S
H3314 C3322 0.950 . S
H3315 C3324 0.950 . S
H3316 C3326 0.950 . S
H3317 C3328 0.950 . S
H3318 C3330 0.950 . S
H3319 C3331 0.950 . S
C3320 H3312 0.950 . S
C3320 C3321 1.386 . S
C3320 C3322 1.391 . S
C3321 C3320 1.386 . S
C3321 C3325 1.393 . S
C3322 H3314 0.950 . S
C3322 C3320 1.391 . S
C3322 C3323 1.400 . S
C3323 C3322 1.400 . S
C3323 C3324 1.398 . S
C3323 C3329 1.491 . S
C3324 H3315 0.950 . S
C3324 C3323 1.398 . S
C3324 C3325 1.391 . S
C3325 H3313 0.950 . S
C3325 C3321 1.393 . S
C3325 C3324 1.391 . S
C3326 H3316 0.950 . S
C3326 C3327 1.386 . S
C3326 C3328 1.391 . S
C3327 C3326 1.386 . S
C3327 C3331 1.393 . S
C3328 H3317 0.950 . S
C3328 C3326 1.391 . S
C3328 C3329 1.400 . S
C3329 C3323 1.491 . S
C3329 C3328 1.400 . S
C3329 C3330 1.398 . S
C3330 H3318 0.950 . S
C3330 C3329 1.398 . S
C3330 C3331 1.391 . S
C3331 H3319 0.950 . S
C3331 C3327 1.393 . S
C3331 C3330 1.391 . S
H3332 C3340 0.950 . S
H3333 C3345 0.950 . S
H3334 C3342 0.950 . S
H3335 C3344 0.950 . S
H3336 C3346 0.950 . S
H3337 C3348 0.950 . S
H3338 C3350 0.950 . S
H3339 C3351 0.950 . S
C3340 H3332 0.950 . S
C3340 C3341 1.386 . S
C3340 C3342 1.391 . S
C3341 C3340 1.386 . S
C3341 C3345 1.393 . S
C3342 H3334 0.950 . S
C3342 C3340 1.391 . S
C3342 C3343 1.400 . S
C3343 C3342 1.400 . S
C3343 C3344 1.398 . S
C3343 C3349 1.491 . S
C3344 H3335 0.950 . S
C3344 C3343 1.398 . S
C3344 C3345 1.391 . S
C3345 H3333 0.950 . S
C3345 C3341 1.393 . S
C3345 C3344 1.391 . S
C3346 H3336 0.950 . S
C3346 C3347 1.386 . S
C3346 C3348 1.391 . S
C3347 C3346 1.386 . S
C3347 C3351 1.393 . S
C3348 H3337 0.950 . S
C3348 C3346 1.391 . S
C3348 C3349 1.400 . S
C3349 C3343 1.491 . S
C3349 C3348 1.400 . S
C3349 C3350 1.398 . S
C3350 H3338 0.950 . S
C3350 C3349 1.398 . S
C3350 C3351 1.391 . S
C3351 H3339 0.950 . S
C3351 C3347 1.393 . S
C3351 C3350 1.391 . S
H3352 C3360 0.950 . S
H3353 C3365 0.950 . S
H3354 C3362 0.950 . S
H3355 C3364 0.950 . S
H3356 C3366 0.950 . S
H3357 C3368 0.950 . S
H3358 C3370 0.950 . S
H3359 C3371 0.950 . S
C3360 H3352 0.950 . S
C3360 C3361 1.386 . S
C3360 C3362 1.391 . S
C3361 C3360 1.386 . S
C3361 C3365 1.393 . S
C3362 H3354 0.950 . S
C3362 C3360 1.391 . S
C3362 C3363 1.400 . S
C3363 C3362 1.400 . S
C3363 C3364 1.398 . S
C3363 C3369 1.491 . S
C3364 H3355 0.950 . S
C3364 C3363 1.398 . S
C3364 C3365 1.391 . S
C3365 H3353 0.950 . S
C3365 C3361 1.393 . S
C3365 C3364 1.391 . S
C3366 H3356 0.950 . S
C3366 C3367 1.386 . S
C3366 C3368 1.391 . S
C3367 C3366 1.386 . S
C3367 C3371 1.393 . S
C3368 H3357 0.950 . S
C3368 C3366 1.391 . S
C3368 C3369 1.400 . S
C3369 C3363 1.491 . S
C3369 C3368 1.400 . S
C3369 C3370 1.398 . S
C3370 H3358 0.950 . S
C3370 C3369 1.398 . S
C3370 C3371 1.391 . S
C3371 H3359 0.950 . S
C3371 C3367 1.393 . S
C3371 C3370 1.391 . S
H3372 C3380 0.950 . S
H3373 C3385 0.950 . S
H3374 C3382 0.950 . S
H3375 C3384 0.950 . S
H3376 C3386 0.950 . S
H3377 C3388 0.950 . S
H3378 C3390 0.950 . S
H3379 C3391 0.950 . S
C3380 H3372 0.950 . S
C3380 C3381 1.386 . S
C3380 C3382 1.391 . S
C3381 C3380 1.386 . S
C3381 C3385 1.393 . S
C3382 H3374 0.950 . S
C3382 C3380 1.391 . S
C3382 C3383 1.400 . S
C3383 C3382 1.400 . S
C3383 C3384 1.398 . S
C3383 C3389 1.491 . S
C3384 H3375 0.950 . S
C3384 C3383 1.398 . S
C3384 C3385 1.391 . S
C3385 H3373 0.950 . S
C3385 C3381 1.393 . S
C3385 C3384 1.391 . S
C3386 H3376 0.950 . S
C3386 C3387 1.386 . S
C3386 C3388 1.391 . S
C3387 C3386 1.386 . S
C3387 C3391 1.393 . S
C3388 H3377 0.950 . S
C3388 C3386 1.391 . S
C3388 C3389 1.400 . S
C3389 C3383 1.491 . S
C3389 C3388 1.400 . S
C3389 C3390 1.398 . S
C3390 H3378 0.950 . S
C3390 C3389 1.398 . S
C3390 C3391 1.391 . S
C3391 H3379 0.950 . S
C3391 C3387 1.393 . S
C3391 C3390 1.391 . S
H3392 C3400 0.950 . S
H3393 C3405 0.950 . S
H3394 C3402 0.950 . S
H3395 C3404 0.950 . S
H3396 C3406 0.950 . S
H3397 C3408 0.950 . S
H3398 C3410 0.950 . S
H3399 C3411 0.950 . S
C3400 H3392 0.950 . S
C3400 C3401 1.386 . S
C3400 C3402 1.391 . S
C3401 C3400 1.386 . S
C3401 C3405 1.393 . S
C3402 H3394 0.950 . S
C3402 C3400 1.391 . S
C3402 C3403 1.400 . S
C3403 C3402 1.400 . S
C3403 C3404 1.398 . S
C3403 C3409 1.491 . S
C3404 H3395 0.950 . S
C3404 C3403 1.398 . S
C3404 C3405 1.391 . S
C3405 H3393 0.950 . S
C3405 C3401 1.393 . S
C3405 C3404 1.391 . S
C3406 H3396 0.950 . S
C3406 C3407 1.386 . S
C3406 C3408 1.391 . S
C3407 C3406 1.386 . S
C3407 C3411 1.393 . S
C3408 H3397 0.950 . S
C3408 C3406 1.391 . S
C3408 C3409 1.400 . S
C3409 C3403 1.491 . S
C3409 C3408 1.400 . S
C3409 C3410 1.398 . S
C3410 H3398 0.950 . S
C3410 C3409 1.398 . S
C3410 C3411 1.391 . S
C3411 H3399 0.950 . S
C3411 C3407 1.393 . S
C3411 C3410 1.391 . S
H3412 C3420 0.950 . S
H3413 C3425 0.950 . S
H3414 C3422 0.950 . S
H3415 C3424 0.950 . S
H3416 C3426 0.950 . S
H3417 C3428 0.950 . S
H3418 C3430 0.950 . S
H3419 C3431 0.950 . S
C3420 H3412 0.950 . S
C3420 C3421 1.386 . S
C3420 C3422 1.391 . S
C3421 C3420 1.386 . S
C3421 C3425 1.393 . S
C3422 H3414 0.950 . S
C3422 C3420 1.391 . S
C3422 C3423 1.400 . S
C3423 C3422 1.400 . S
C3423 C3424 1.398 . S
C3423 C3429 1.491 . S
C3424 H3415 0.950 . S
C3424 C3423 1.398 . S
C3424 C3425 1.391 . S
C3425 H3413 0.950 . S
C3425 C3421 1.393 . S
C3425 C3424 1.391 . S
C3426 H3416 0.950 . S
C3426 C3427 1.386 . S
C3426 C3428 1.391 . S
C3427 C3426 1.386 . S
C3427 C3431 1.393 . S
C3428 H3417 0.950 . S
C3428 C3426 1.391 . S
C3428 C3429 1.400 . S
C3429 C3423 1.491 . S
C3429 C3428 1.400 . S
C3429 C3430 1.398 . S
C3430 H3418 0.950 . S
C3430 C3429 1.398 . S
C3430 C3431 1.391 . S
C3431 H3419 0.950 . S
C3431 C3427 1.393 . S
C3431 C3430 1.391 . S
H3432 C3440 0.950 . S
H3433 C3445 0.950 . S
H3434 C3442 0.950 . S
H3435 C3444 0.950 . S
H3436 C3446 0.950 . S
H3437 C3448 0.950 . S
H3438 C3450 0.950 . S
H3439 C3451 0.950 . S
C3440 H3432 0.950 . S
C3440 C3441 1.386 . S
C3440 C3442 1.391 . S
C3441 C3440 1.386 . S
C3441 C3445 1.393 . S
C3442 H3434 0.950 . S
C3442 C3440 1.391 . S
C3442 C3443 1.400 . S
C3443 C3442 1.400 . S
C3443 C3444 1.398 . S
C3443 C3449 1.491 . S
C3444 H3435 0.950 . S
C3444 C3443 1.398 . S
C3444 C3445 1.391 . S
C3445 H3433 0.950 . S
C3445 C3441 1.393 . S
C3445 C3444 1.391 . S
C3446 H3436 0.950 . S
C3446 C3447 1.386 . S
C3446 C3448 1.391 . S
C3447 C3446 1.386 . S
C3447 C3451 1.393 . S
C3448 H3437 0.950 . S
C3448 C3446 1.391 . S
C3448 C3449 1.400 . S
C3449 C3443 1.491 . S
C3449 C3448 1.400 . S
C3449 C3450 1.398 . S
C3450 H3438 0.950 . S
C3450 C3449 1.398 . S
C3450 C3451 1.391 . S
C3451 H3439 0.950 . S
C3451 C3447 1.393 . S
C3451 C3450 1.391 . S
H3452 C3460 0.950 . S
H3453 C3465 0.950 . S
H3454 C3462 0.950 . S
H3455 C3464 0.950 . S
H3456 C3466 0.950 . S
H3457 C3468 0.950 . S
H3458 C3470 0.950 . S
H3459 C3471 0.950 . S
C3460 H3452 0.950 . S
C3460 C3461 1.386 . S
C3460 C3462 1.391 . S
C3461 C3460 1.386 . S
C3461 C3465 1.393 . S
C3462 H3454 0.950 . S
C3462 C3460 1.391 . S
C3462 C3463 1.400 . S
C3463 C3462 1.400 . S
C3463 C3464 1.398 . S
C3463 C3469 1.491 . S
C3464 H3455 0.950 . S
C3464 C3463 1.398 . S
C3464 C3465 1.391 . S
C3465 H3453 0.950 . S
C3465 C3461 1.393 . S
C3465 C3464 1.391 . S
C3466 H3456 0.950 . S
C3466 C3467 1.386 . S
C3466 C3468 1.391 . S
C3467 C3466 1.386 . S
C3467 C3471 1.393 . S
C3468 H3457 0.950 . S
C3468 C3466 1.391 . S
C3468 C3469 1.400 . S
C3469 C3463 1.491 . S
C3469 C3468 1.400 . S
C3469 C3470 1.398 . S
C3470 H3458 0.950 . S
C3470 C3469 1.398 . S
C3470 C3471 1.391 . S
C3471 H3459 0.950 . S
C3471 C3467 1.393 . S
C3471 C3470 1.391 . S
H3472 C3480 0.950 . S
H3473 C3485 0.950 . S
H3474 C3482 0.950 . S
H3475 C3484 0.950 . S
H3476 C3486 0.950 . S
H3477 C3488 0.950 1_556 S
H3478 C3490 0.950 . S
H3479 C3491 0.950 . S
C3480 H3472 0.950 . S
C3480 C3481 1.386 . S
C3480 C3482 1.391 . S
C3481 C3480 1.386 . S
C3481 C3485 1.393 . S
C3482 H3474 0.950 . S
C3482 C3480 1.391 . S
C3482 C3483 1.400 . S
C3483 C3482 1.400 . S
C3483 C3484 1.398 . S
C3483 C3489 1.491 1_556 S
C3484 H3475 0.950 . S
C3484 C3483 1.398 . S
C3484 C3485 1.391 . S
C3485 H3473 0.950 . S
C3485 C3481 1.393 . S
C3485 C3484 1.391 . S
C3486 H3476 0.950 . S
C3486 C3487 1.386 . S
C3486 C3488 1.391 . S
C3487 C3486 1.386 . S
C3487 C3491 1.393 . S
C3488 H3477 0.950 1_554 S
C3488 C3486 1.391 . S
C3488 C3489 1.400 . S
C3489 C3483 1.491 1_554 S
C3489 C3488 1.400 . S
C3489 C3490 1.398 . S
C3490 H3478 0.950 . S
C3490 C3489 1.398 . S
C3490 C3491 1.391 . S
C3491 H3479 0.950 . S
C3491 C3487 1.393 . S
C3491 C3490 1.391 . S
H3492 C3500 0.950 . S
H3493 C3505 0.950 . S
H3494 C3502 0.950 . S
H3495 C3504 0.950 . S
H3496 C3506 0.950 . S
H3497 C3508 0.950 . S
H3498 C3510 0.950 . S
H3499 C3511 0.950 . S
C3500 H3492 0.950 . S
C3500 C3501 1.386 . S
C3500 C3502 1.391 . S
C3501 C3500 1.386 . S
C3501 C3505 1.393 . S
C3502 H3494 0.950 . S
C3502 C3500 1.391 . S
C3502 C3503 1.400 . S
C3503 C3502 1.400 . S
C3503 C3504 1.398 . S
C3503 C3509 1.491 . S
C3504 H3495 0.950 . S
C3504 C3503 1.398 . S
C3504 C3505 1.391 . S
C3505 H3493 0.950 . S
C3505 C3501 1.393 . S
C3505 C3504 1.391 . S
C3506 H3496 0.950 . S
C3506 C3507 1.386 . S
C3506 C3508 1.391 . S
C3507 C3506 1.386 . S
C3507 C3511 1.393 . S
C3508 H3497 0.950 . S
C3508 C3506 1.391 . S
C3508 C3509 1.400 . S
C3509 C3503 1.491 . S
C3509 C3508 1.400 . S
C3509 C3510 1.398 . S
C3510 H3498 0.950 . S
C3510 C3509 1.398 . S
C3510 C3511 1.391 . S
C3511 H3499 0.950 . S
C3511 C3507 1.393 . S
C3511 C3510 1.391 . S
H3512 C3520 0.950 . S
H3513 C3525 0.950 . S
H3514 C3522 0.950 . S
H3515 C3524 0.950 . S
H3516 C3526 0.950 . S
H3517 C3528 0.950 . S
H3518 C3530 0.950 1_554 S
H3519 C3531 0.950 . S
C3520 H3512 0.950 . S
C3520 C3521 1.386 . S
C3520 C3522 1.391 . S
C3521 C3520 1.386 . S
C3521 C3525 1.393 . S
C3522 H3514 0.950 . S
C3522 C3520 1.391 . S
C3522 C3523 1.400 . S
C3523 C3522 1.400 . S
C3523 C3524 1.398 . S
C3523 C3529 1.491 1_554 S
C3524 H3515 0.950 . S
C3524 C3523 1.398 . S
C3524 C3525 1.391 . S
C3525 H3513 0.950 . S
C3525 C3521 1.393 . S
C3525 C3524 1.391 . S
C3526 H3516 0.950 . S
C3526 C3527 1.386 . S
C3526 C3528 1.391 . S
C3527 C3526 1.386 . S
C3527 C3531 1.393 . S
C3528 H3517 0.950 . S
C3528 C3526 1.391 . S
C3528 C3529 1.400 . S
C3529 C3523 1.491 1_556 S
C3529 C3528 1.400 . S
C3529 C3530 1.398 . S
C3530 H3518 0.950 1_556 S
C3530 C3529 1.398 . S
C3530 C3531 1.391 . S
C3531 H3519 0.950 . S
C3531 C3527 1.393 . S
C3531 C3530 1.391 . S
H3532 C3540 0.950 . S
H3533 C3545 0.950 . S
H3534 C3542 0.950 1_554 S
H3535 C3544 0.950 . S
H3536 C3546 0.950 . S
H3537 C3548 0.950 . S
H3538 C3550 0.950 . S
H3539 C3551 0.950 . S
C3540 H3532 0.950 . S
C3540 C3541 1.386 . S
C3540 C3542 1.391 . S
C3541 C3540 1.386 . S
C3541 C3545 1.393 . S
C3542 H3534 0.950 1_556 S
C3542 C3540 1.391 . S
C3542 C3543 1.400 . S
C3543 C3542 1.400 . S
C3543 C3544 1.398 . S
C3543 C3549 1.491 1_556 S
C3544 H3535 0.950 . S
C3544 C3543 1.398 . S
C3544 C3545 1.391 . S
C3545 H3533 0.950 . S
C3545 C3541 1.393 . S
C3545 C3544 1.391 . S
C3546 H3536 0.950 . S
C3546 C3547 1.386 . S
C3546 C3548 1.391 . S
C3547 C3546 1.386 . S
C3547 C3551 1.393 . S
C3548 H3537 0.950 . S
C3548 C3546 1.391 . S
C3548 C3549 1.400 . S
C3549 C3543 1.491 1_554 S
C3549 C3548 1.400 . S
C3549 C3550 1.398 . S
C3550 H3538 0.950 . S
C3550 C3549 1.398 . S
C3550 C3551 1.391 . S
C3551 H3539 0.950 . S
C3551 C3547 1.393 . S
C3551 C3550 1.391 . S
H3552 C3560 0.950 . S
H3553 C3565 0.950 . S
H3554 C3562 0.950 . S
H3555 C3564 0.950 . S
H3556 C3566 0.950 . S
H3557 C3568 0.950 . S
H3558 C3570 0.950 . S
H3559 C3571 0.950 . S
C3560 H3552 0.950 . S
C3560 C3561 1.386 . S
C3560 C3562 1.391 . S
C3561 C3560 1.386 . S
C3561 C3565 1.393 . S
C3562 H3554 0.950 . S
C3562 C3560 1.391 . S
C3562 C3563 1.400 . S
C3563 C3562 1.400 . S
C3563 C3564 1.398 . S
C3563 C3569 1.491 . S
C3564 H3555 0.950 . S
C3564 C3563 1.398 . S
C3564 C3565 1.391 . S
C3565 H3553 0.950 . S
C3565 C3561 1.393 . S
C3565 C3564 1.391 . S
C3566 H3556 0.950 . S
C3566 C3567 1.386 . S
C3566 C3568 1.391 . S
C3567 C3566 1.386 . S
C3567 C3571 1.393 . S
C3568 H3557 0.950 . S
C3568 C3566 1.391 . S
C3568 C3569 1.400 . S
C3569 C3563 1.491 . S
C3569 C3568 1.400 . S
C3569 C3570 1.398 . S
C3570 H3558 0.950 . S
C3570 C3569 1.398 . S
C3570 C3571 1.391 . S
C3571 H3559 0.950 . S
C3571 C3567 1.393 . S
C3571 C3570 1.391 . S
H3572 C3580 0.950 . S
H3573 C3585 0.950 . S
H3574 C3582 0.950 . S
H3575 C3584 0.950 . S
H3576 C3586 0.950 . S
H3577 C3588 0.950 . S
H3578 C3590 0.950 . S
H3579 C3591 0.950 . S
C3580 H3572 0.950 . S
C3580 C3581 1.386 . S
C3580 C3582 1.391 . S
C3581 C3580 1.386 . S
C3581 C3585 1.393 . S
C3582 H3574 0.950 . S
C3582 C3580 1.391 . S
C3582 C3583 1.400 . S
C3583 C3582 1.400 . S
C3583 C3584 1.398 . S
C3583 C3589 1.491 . S
C3584 H3575 0.950 . S
C3584 C3583 1.398 . S
C3584 C3585 1.391 . S
C3585 H3573 0.950 . S
C3585 C3581 1.393 . S
C3585 C3584 1.391 . S
C3586 H3576 0.950 . S
C3586 C3587 1.386 . S
C3586 C3588 1.391 . S
C3587 C3586 1.386 . S
C3587 C3591 1.393 . S
C3588 H3577 0.950 . S
C3588 C3586 1.391 . S
C3588 C3589 1.400 . S
C3589 C3583 1.491 . S
C3589 C3588 1.400 . S
C3589 C3590 1.398 . S
C3590 H3578 0.950 . S
C3590 C3589 1.398 . S
C3590 C3591 1.391 . S
C3591 H3579 0.950 . S
C3591 C3587 1.393 . S
C3591 C3590 1.391 . S
H3592 C3600 0.950 . S
H3593 C3605 0.950 . S
H3594 C3602 0.950 . S
H3595 C3604 0.950 . S
H3596 C3606 0.950 . S
H3597 C3608 0.950 . S
H3598 C3610 0.950 . S
H3599 C3611 0.950 . S
C3600 H3592 0.950 . S
C3600 C3601 1.386 . S
C3600 C3602 1.391 . S
C3601 C3600 1.386 . S
C3601 C3605 1.393 . S
C3602 H3594 0.950 . S
C3602 C3600 1.391 . S
C3602 C3603 1.400 . S
C3603 C3602 1.400 . S
C3603 C3604 1.398 . S
C3603 C3609 1.491 . S
C3604 H3595 0.950 . S
C3604 C3603 1.398 . S
C3604 C3605 1.391 . S
C3605 H3593 0.950 . S
C3605 C3601 1.393 . S
C3605 C3604 1.391 . S
C3606 H3596 0.950 . S
C3606 C3607 1.386 . S
C3606 C3608 1.391 . S
C3607 C3606 1.386 . S
C3607 C3611 1.393 . S
C3608 H3597 0.950 . S
C3608 C3606 1.391 . S
C3608 C3609 1.400 . S
C3609 C3603 1.491 . S
C3609 C3608 1.400 . S
C3609 C3610 1.398 . S
C3610 H3598 0.950 . S
C3610 C3609 1.398 . S
C3610 C3611 1.391 . S
C3611 H3599 0.950 . S
C3611 C3607 1.393 . S
C3611 C3610 1.391 . S
H3612 C3620 0.950 . S
H3613 C3625 0.950 . S
H3614 C3622 0.950 1_565 S
H3615 C3624 0.950 . S
H3616 C3626 0.950 . S
H3617 C3628 0.950 1_545 S
H3618 C3630 0.950 . S
H3619 C3631 0.950 . S
C3620 H3612 0.950 . S
C3620 C3621 1.386 . S
C3620 C3622 1.391 . S
C3621 C3620 1.386 . S
C3621 C3625 1.393 . S
C3622 H3614 0.950 1_545 S
C3622 C3620 1.391 . S
C3622 C3623 1.400 . S
C3623 C3622 1.400 . S
C3623 C3624 1.398 . S
C3623 C3629 1.491 1_545 S
C3624 H3615 0.950 . S
C3624 C3623 1.398 . S
C3624 C3625 1.391 . S
C3625 H3613 0.950 . S
C3625 C3621 1.393 . S
C3625 C3624 1.391 . S
C3626 H3616 0.950 . S
C3626 C3627 1.386 . S
C3626 C3628 1.391 . S
C3627 C3626 1.386 . S
C3627 C3631 1.393 . S
C3628 H3617 0.950 1_565 S
C3628 C3626 1.391 . S
C3628 C3629 1.400 . S
C3629 C3623 1.491 1_565 S
C3629 C3628 1.400 . S
C3629 C3630 1.398 . S
C3630 H3618 0.950 . S
C3630 C3629 1.398 . S
C3630 C3631 1.391 . S
C3631 H3619 0.950 . S
C3631 C3627 1.393 . S
C3631 C3630 1.391 . S
H3632 C3640 0.950 . S
H3633 C3645 0.950 . S
H3634 C3642 0.950 . S
H3635 C3644 0.950 1_556 S
H3636 C3646 0.950 . S
H3637 C3648 0.950 . S
H3638 C3650 0.950 1_554 S
H3639 C3651 0.950 . S
C3640 H3632 0.950 . S
C3640 C3641 1.386 . S
C3640 C3642 1.391 . S
C3641 C3640 1.386 . S
C3641 C3645 1.393 . S
C3642 H3634 0.950 . S
C3642 C3640 1.391 . S
C3642 C3643 1.400 . S
C3643 C3642 1.400 . S
C3643 C3644 1.398 . S
C3643 C3649 1.491 1_554 S
C3644 H3635 0.950 1_554 S
C3644 C3643 1.398 . S
C3644 C3645 1.391 . S
C3645 H3633 0.950 . S
C3645 C3641 1.393 . S
C3645 C3644 1.391 . S
C3646 H3636 0.950 . S
C3646 C3647 1.386 . S
C3646 C3648 1.391 . S
C3647 C3646 1.386 . S
C3647 C3651 1.393 . S
C3648 H3637 0.950 . S
C3648 C3646 1.391 . S
C3648 C3649 1.400 . S
C3649 C3643 1.491 1_556 S
C3649 C3648 1.400 . S
C3649 C3650 1.398 . S
C3650 H3638 0.950 1_556 S
C3650 C3649 1.398 . S
C3650 C3651 1.391 . S
C3651 H3639 0.950 . S
C3651 C3647 1.393 . S
C3651 C3650 1.391 . S
H3652 C3660 0.950 . S
H3653 C3665 0.950 . S
H3654 C3662 0.950 . S
H3655 C3664 0.950 . S
H3656 C3666 0.950 . S
H3657 C3668 0.950 . S
H3658 C3670 0.950 . S
H3659 C3671 0.950 . S
C3660 H3652 0.950 . S
C3660 C3661 1.386 . S
C3660 C3662 1.391 . S
C3661 C3660 1.386 . S
C3661 C3665 1.393 . S
C3662 H3654 0.950 . S
C3662 C3660 1.391 . S
C3662 C3663 1.400 . S
C3663 C3662 1.400 . S
C3663 C3664 1.398 . S
C3663 C3669 1.491 . S
C3664 H3655 0.950 . S
C3664 C3663 1.398 . S
C3664 C3665 1.391 . S
C3665 H3653 0.950 . S
C3665 C3661 1.393 . S
C3665 C3664 1.391 . S
C3666 H3656 0.950 . S
C3666 C3667 1.386 . S
C3666 C3668 1.391 . S
C3667 C3666 1.386 . S
C3667 C3671 1.393 . S
C3668 H3657 0.950 . S
C3668 C3666 1.391 . S
C3668 C3669 1.400 . S
C3669 C3663 1.491 . S
C3669 C3668 1.400 . S
C3669 C3670 1.398 . S
C3670 H3658 0.950 . S
C3670 C3669 1.398 . S
C3670 C3671 1.391 . S
C3671 H3659 0.950 . S
C3671 C3667 1.393 . S
C3671 C3670 1.391 . S
H3672 C3680 0.950 . S
H3673 C3685 0.950 . S
H3674 C3682 0.950 . S
H3675 C3684 0.950 1_554 S
H3676 C3686 0.950 . S
H3677 C3688 0.950 . S
H3678 C3690 0.950 1_556 S
H3679 C3691 0.950 . S
C3680 H3672 0.950 . S
C3680 C3681 1.386 . S
C3680 C3682 1.391 . S
C3681 C3680 1.386 . S
C3681 C3685 1.393 . S
C3682 H3674 0.950 . S
C3682 C3680 1.391 . S
C3682 C3683 1.400 . S
C3683 C3682 1.400 . S
C3683 C3684 1.398 . S
C3683 C3689 1.491 1_556 S
C3684 H3675 0.950 1_556 S
C3684 C3683 1.398 . S
C3684 C3685 1.391 . S
C3685 H3673 0.950 . S
C3685 C3681 1.393 . S
C3685 C3684 1.391 . S
C3686 H3676 0.950 . S
C3686 C3687 1.386 . S
C3686 C3688 1.391 . S
C3687 C3686 1.386 . S
C3687 C3691 1.393 . S
C3688 H3677 0.950 . S
C3688 C3686 1.391 . S
C3688 C3689 1.400 . S
C3689 C3683 1.491 1_554 S
C3689 C3688 1.400 . S
C3689 C3690 1.398 . S
C3690 H3678 0.950 1_554 S
C3690 C3689 1.398 . S
C3690 C3691 1.391 . S
C3691 H3679 0.950 . S
C3691 C3687 1.393 . S
C3691 C3690 1.391 . S
H3692 C3700 0.950 . S
H3693 C3705 0.950 . S
H3694 C3702 0.950 . S
H3695 C3704 0.950 1_565 S
H3696 C3706 0.950 . S
H3697 C3708 0.950 . S
H3698 C3710 0.950 1_545 S
H3699 C3711 0.950 . S
C3700 H3692 0.950 . S
C3700 C3701 1.386 . S
C3700 C3702 1.391 . S
C3701 C3700 1.386 . S
C3701 C3705 1.393 . S
C3702 H3694 0.950 . S
C3702 C3700 1.391 . S
C3702 C3703 1.400 . S
C3703 C3702 1.400 . S
C3703 C3704 1.398 . S
C3703 C3709 1.491 1_545 S
C3704 H3695 0.950 1_545 S
C3704 C3703 1.398 . S
C3704 C3705 1.391 . S
C3705 H3693 0.950 . S
C3705 C3701 1.393 . S
C3705 C3704 1.391 . S
C3706 H3696 0.950 . S
C3706 C3707 1.386 . S
C3706 C3708 1.391 . S
C3707 C3706 1.386 . S
C3707 C3711 1.393 . S
C3708 H3697 0.950 . S
C3708 C3706 1.391 . S
C3708 C3709 1.400 . S
C3709 C3703 1.491 1_565 S
C3709 C3708 1.400 . S
C3709 C3710 1.398 . S
C3710 H3698 0.950 1_565 S
C3710 C3709 1.398 . S
C3710 C3711 1.391 . S
C3711 H3699 0.950 . S
C3711 C3707 1.393 . S
C3711 C3710 1.391 . S
H3712 C3720 0.950 . S
H3713 C3725 0.950 . S
H3714 C3722 0.950 . S
H3715 C3724 0.950 . S
H3716 C3726 0.950 . S
H3717 C3728 0.950 . S
H3718 C3730 0.950 . S
H3719 C3731 0.950 . S
C3720 H3712 0.950 . S
C3720 C3721 1.386 . S
C3720 C3722 1.391 . S
C3721 C3720 1.386 . S
C3721 C3725 1.393 . S
C3722 H3714 0.950 . S
C3722 C3720 1.391 . S
C3722 C3723 1.400 . S
C3723 C3722 1.400 . S
C3723 C3724 1.398 . S
C3723 C3729 1.491 . S
C3724 H3715 0.950 . S
C3724 C3723 1.398 . S
C3724 C3725 1.391 . S
C3725 H3713 0.950 . S
C3725 C3721 1.393 . S
C3725 C3724 1.391 . S
C3726 H3716 0.950 . S
C3726 C3727 1.386 . S
C3726 C3728 1.391 . S
C3727 C3726 1.386 . S
C3727 C3731 1.393 . S
C3728 H3717 0.950 . S
C3728 C3726 1.391 . S
C3728 C3729 1.400 . S
C3729 C3723 1.491 . S
C3729 C3728 1.400 . S
C3729 C3730 1.398 . S
C3730 H3718 0.950 . S
C3730 C3729 1.398 . S
C3730 C3731 1.391 . S
C3731 H3719 0.950 . S
C3731 C3727 1.393 . S
C3731 C3730 1.391 . S
H3732 C3740 0.950 . S
H3733 C3745 0.950 . S
H3734 C3742 0.950 . S
H3735 C3744 0.950 . S
H3736 C3746 0.950 . S
H3737 C3748 0.950 . S
H3738 C3750 0.950 . S
H3739 C3751 0.950 . S
C3740 H3732 0.950 . S
C3740 C3741 1.386 . S
C3740 C3742 1.391 . S
C3741 C3740 1.386 . S
C3741 C3745 1.393 . S
C3742 H3734 0.950 . S
C3742 C3740 1.391 . S
C3742 C3743 1.400 . S
C3743 C3742 1.400 . S
C3743 C3744 1.398 . S
C3743 C3749 1.491 . S
C3744 H3735 0.950 . S
C3744 C3743 1.398 . S
C3744 C3745 1.391 . S
C3745 H3733 0.950 . S
C3745 C3741 1.393 . S
C3745 C3744 1.391 . S
C3746 H3736 0.950 . S
C3746 C3747 1.386 . S
C3746 C3748 1.391 . S
C3747 C3746 1.386 . S
C3747 C3751 1.393 . S
C3748 H3737 0.950 . S
C3748 C3746 1.391 . S
C3748 C3749 1.400 . S
C3749 C3743 1.491 . S
C3749 C3748 1.400 . S
C3749 C3750 1.398 . S
C3750 H3738 0.950 . S
C3750 C3749 1.398 . S
C3750 C3751 1.391 . S
C3751 H3739 0.950 . S
C3751 C3747 1.393 . S
C3751 C3750 1.391 . S
H3752 C3760 0.950 . S
H3753 C3765 0.950 . S
H3754 C3762 0.950 . S
H3755 C3764 0.950 . S
H3756 C3766 0.950 . S
H3757 C3768 0.950 . S
H3758 C3770 0.950 . S
H3759 C3771 0.950 . S
C3760 H3752 0.950 . S
C3760 C3761 1.386 . S
C3760 C3762 1.391 . S
C3761 C3760 1.386 . S
C3761 C3765 1.393 . S
C3762 H3754 0.950 . S
C3762 C3760 1.391 . S
C3762 C3763 1.400 . S
C3763 C3762 1.400 . S
C3763 C3764 1.398 . S
C3763 C3769 1.491 . S
C3764 H3755 0.950 . S
C3764 C3763 1.398 . S
C3764 C3765 1.391 . S
C3765 H3753 0.950 . S
C3765 C3761 1.393 . S
C3765 C3764 1.391 . S
C3766 H3756 0.950 . S
C3766 C3767 1.386 . S
C3766 C3768 1.391 . S
C3767 C3766 1.386 . S
C3767 C3771 1.393 . S
C3768 H3757 0.950 . S
C3768 C3766 1.391 . S
C3768 C3769 1.400 . S
C3769 C3763 1.491 . S
C3769 C3768 1.400 . S
C3769 C3770 1.398 . S
C3770 H3758 0.950 . S
C3770 C3769 1.398 . S
C3770 C3771 1.391 . S
C3771 H3759 0.950 . S
C3771 C3767 1.393 . S
C3771 C3770 1.391 . S
H3772 C3780 0.950 . S
H3773 C3785 0.950 . S
H3774 C3782 0.950 . S
H3775 C3784 0.950 . S
H3776 C3786 0.950 . S
H3777 C3788 0.950 . S
H3778 C3790 0.950 . S
H3779 C3791 0.950 . S
C3780 H3772 0.950 . S
C3780 C3781 1.386 . S
C3780 C3782 1.391 . S
C3781 C3780 1.386 . S
C3781 C3785 1.393 . S
C3782 H3774 0.950 . S
C3782 C3780 1.391 . S
C3782 C3783 1.400 . S
C3783 C3782 1.400 . S
C3783 C3784 1.398 . S
C3783 C3789 1.491 1_455 S
C3784 H3775 0.950 . S
C3784 C3783 1.398 . S
C3784 C3785 1.391 . S
C3785 H3773 0.950 . S
C3785 C3781 1.393 . S
C3785 C3784 1.391 . S
C3786 H3776 0.950 . S
C3786 C3787 1.386 . S
C3786 C3788 1.391 . S
C3787 C3786 1.386 . S
C3787 C3791 1.393 . S
C3788 H3777 0.950 . S
C3788 C3786 1.391 . S
C3788 C3789 1.400 . S
C3789 C3783 1.491 1_655 S
C3789 C3788 1.400 . S
C3789 C3790 1.398 . S
C3790 H3778 0.950 . S
C3790 C3789 1.398 . S
C3790 C3791 1.391 . S
C3791 H3779 0.950 . S
C3791 C3787 1.393 . S
C3791 C3790 1.391 . S
H3792 C3800 0.950 . S
H3793 C3805 0.950 . S
H3794 C3802 0.950 . S
H3795 C3804 0.950 . S
H3796 C3806 0.950 . S
H3797 C3808 0.950 . S
H3798 C3810 0.950 . S
H3799 C3811 0.950 . S
C3800 H3792 0.950 . S
C3800 C3801 1.386 . S
C3800 C3802 1.391 . S
C3801 C3800 1.386 . S
C3801 C3805 1.393 . S
C3802 H3794 0.950 . S
C3802 C3800 1.391 . S
C3802 C3803 1.400 . S
C3803 C3802 1.400 . S
C3803 C3804 1.398 . S
C3803 C3809 1.491 . S
C3804 H3795 0.950 . S
C3804 C3803 1.398 . S
C3804 C3805 1.391 . S
C3805 H3793 0.950 . S
C3805 C3801 1.393 . S
C3805 C3804 1.391 . S
C3806 H3796 0.950 . S
C3806 C3807 1.386 . S
C3806 C3808 1.391 . S
C3807 C3806 1.386 . S
C3807 C3811 1.393 . S
C3808 H3797 0.950 . S
C3808 C3806 1.391 . S
C3808 C3809 1.400 . S
C3809 C3803 1.491 . S
C3809 C3808 1.400 . S
C3809 C3810 1.398 . S
C3810 H3798 0.950 . S
C3810 C3809 1.398 . S
C3810 C3811 1.391 . S
C3811 H3799 0.950 . S
C3811 C3807 1.393 . S
C3811 C3810 1.391 . S
H3812 C3820 0.950 . S
H3813 C3825 0.950 . S
H3814 C3822 0.950 . S
H3815 C3824 0.950 . S
H3816 C3826 0.950 . S
H3817 C3828 0.950 . S
H3818 C3830 0.950 . S
H3819 C3831 0.950 . S
C3820 H3812 0.950 . S
C3820 C3821 1.386 . S
C3820 C3822 1.391 . S
C3821 C3820 1.386 . S
C3821 C3825 1.393 . S
C3822 H3814 0.950 . S
C3822 C3820 1.391 . S
C3822 C3823 1.400 . S
C3823 C3822 1.400 . S
C3823 C3824 1.398 . S
C3823 C3829 1.491 1_554 S
C3824 H3815 0.950 . S
C3824 C3823 1.398 . S
C3824 C3825 1.391 . S
C3825 H3813 0.950 . S
C3825 C3821 1.393 . S
C3825 C3824 1.391 . S
C3826 H3816 0.950 . S
C3826 C3827 1.386 . S
C3826 C3828 1.391 . S
C3827 C3826 1.386 . S
C3827 C3831 1.393 . S
C3828 H3817 0.950 . S
C3828 C3826 1.391 . S
C3828 C3829 1.400 . S
C3829 C3823 1.491 1_556 S
C3829 C3828 1.400 . S
C3829 C3830 1.398 . S
C3830 H3818 0.950 . S
C3830 C3829 1.398 . S
C3830 C3831 1.391 . S
C3831 H3819 0.950 . S
C3831 C3827 1.393 . S
C3831 C3830 1.391 . S
H3832 C3840 0.950 . S
H3833 C3845 0.950 . S
H3834 C3842 0.950 . S
H3835 C3844 0.950 . S
H3836 C3846 0.950 . S
H3837 C3848 0.950 . S
H3838 C3850 0.950 . S
H3839 C3851 0.950 . S
C3840 H3832 0.950 . S
C3840 C3841 1.386 . S
C3840 C3842 1.391 . S
C3841 C3840 1.386 . S
C3841 C3845 1.393 . S
C3842 H3834 0.950 . S
C3842 C3840 1.391 . S
C3842 C3843 1.400 . S
C3843 C3842 1.400 . S
C3843 C3844 1.398 . S
C3843 C3849 1.491 1_545 S
C3844 H3835 0.950 . S
C3844 C3843 1.398 . S
C3844 C3845 1.391 . S
C3845 H3833 0.950 . S
C3845 C3841 1.393 . S
C3845 C3844 1.391 . S
C3846 H3836 0.950 . S
C3846 C3847 1.386 . S
C3846 C3848 1.391 . S
C3847 C3846 1.386 . S
C3847 C3851 1.393 . S
C3848 H3837 0.950 . S
C3848 C3846 1.391 . S
C3848 C3849 1.400 . S
C3849 C3843 1.491 1_565 S
C3849 C3848 1.400 . S
C3849 C3850 1.398 . S
C3850 H3838 0.950 . S
C3850 C3849 1.398 . S
C3850 C3851 1.391 . S
C3851 H3839 0.950 . S
C3851 C3847 1.393 . S
C3851 C3850 1.391 . S
H3852 C3860 0.950 . S
H3853 C3865 0.950 . S
H3854 C3862 0.950 . S
H3855 C3864 0.950 . S
H3856 C3866 0.950 . S
H3857 C3868 0.950 . S
H3858 C3870 0.950 . S
H3859 C3871 0.950 . S
C3860 H3852 0.950 . S
C3860 C3861 1.386 . S
C3860 C3862 1.391 . S
C3861 C3860 1.386 . S
C3861 C3865 1.393 . S
C3862 H3854 0.950 . S
C3862 C3860 1.391 . S
C3862 C3863 1.400 . S
C3863 C3862 1.400 . S
C3863 C3864 1.398 . S
C3863 C3869 1.491 . S
C3864 H3855 0.950 . S
C3864 C3863 1.398 . S
C3864 C3865 1.391 . S
C3865 H3853 0.950 . S
C3865 C3861 1.393 . S
C3865 C3864 1.391 . S
C3866 H3856 0.950 . S
C3866 C3867 1.386 . S
C3866 C3868 1.391 . S
C3867 C3866 1.386 . S
C3867 C3871 1.393 . S
C3868 H3857 0.950 . S
C3868 C3866 1.391 . S
C3868 C3869 1.400 . S
C3869 C3863 1.491 . S
C3869 C3868 1.400 . S
C3869 C3870 1.398 . S
C3870 H3858 0.950 . S
C3870 C3869 1.398 . S
C3870 C3871 1.391 . S
C3871 H3859 0.950 . S
C3871 C3867 1.393 . S
C3871 C3870 1.391 . S
H3872 C3880 0.950 . S
H3873 C3885 0.950 . S
H3874 C3882 0.950 . S
H3875 C3884 0.950 . S
H3876 C3886 0.950 . S
H3877 C3888 0.950 . S
H3878 C3890 0.950 . S
H3879 C3891 0.950 . S
C3880 H3872 0.950 . S
C3880 C3881 1.386 . S
C3880 C3882 1.391 . S
C3881 C3880 1.386 . S
C3881 C3885 1.393 . S
C3882 H3874 0.950 . S
C3882 C3880 1.391 . S
C3882 C3883 1.400 . S
C3883 C3882 1.400 . S
C3883 C3884 1.398 . S
C3883 C3889 1.491 . S
C3884 H3875 0.950 . S
C3884 C3883 1.398 . S
C3884 C3885 1.391 . S
C3885 H3873 0.950 . S
C3885 C3881 1.393 . S
C3885 C3884 1.391 . S
C3886 H3876 0.950 . S
C3886 C3887 1.386 . S
C3886 C3888 1.391 . S
C3887 C3886 1.386 . S
C3887 C3891 1.393 . S
C3888 H3877 0.950 . S
C3888 C3886 1.391 . S
C3888 C3889 1.400 . S
C3889 C3883 1.491 . S
C3889 C3888 1.400 . S
C3889 C3890 1.398 . S
C3890 H3878 0.950 . S
C3890 C3889 1.398 . S
C3890 C3891 1.391 . S
C3891 H3879 0.950 . S
C3891 C3887 1.393 . S
C3891 C3890 1.391 . S
H3892 C3900 0.950 . S
H3893 C3905 0.950 . S
H3894 C3902 0.950 . S
H3895 C3904 0.950 . S
H3896 C3906 0.950 . S
H3897 C3908 0.950 . S
H3898 C3910 0.950 . S
H3899 C3911 0.950 . S
C3900 H3892 0.950 . S
C3900 C3901 1.386 . S
C3900 C3902 1.391 . S
C3901 C3900 1.386 . S
C3901 C3905 1.393 . S
C3902 H3894 0.950 . S
C3902 C3900 1.391 . S
C3902 C3903 1.400 . S
C3903 C3902 1.400 . S
C3903 C3904 1.398 . S
C3903 C3909 1.491 . S
C3904 H3895 0.950 . S
C3904 C3903 1.398 . S
C3904 C3905 1.391 . S
C3905 H3893 0.950 . S
C3905 C3901 1.393 . S
C3905 C3904 1.391 . S
C3906 H3896 0.950 . S
C3906 C3907 1.386 . S
C3906 C3908 1.391 . S
C3907 C3906 1.386 . S
C3907 C3911 1.393 . S
C3908 H3897 0.950 . S
C3908 C3906 1.391 . S
C3908 C3909 1.400 . S
C3909 C3903 1.491 . S
C3909 C3908 1.400 . S
C3909 C3910 1.398 . S
C3910 H3898 0.950 . S
C3910 C3909 1.398 . S
C3910 C3911 1.391 . S
C3911 H3899 0.950 . S
C3911 C3907 1.393 . S
C3911 C3910 1.391 . S
H3912 C3920 0.950 . S
H3913 C3925 0.950 . S
H3914 C3922 0.950 . S
H3915 C3924 0.950 . S
H3916 C3926 0.950 . S
H3917 C3928 0.950 . S
H3918 C3930 0.950 . S
H3919 C3931 0.950 . S
C3920 H3912 0.950 . S
C3920 C3921 1.386 . S
C3920 C3922 1.391 . S
C3921 C3920 1.386 . S
C3921 C3925 1.393 . S
C3922 H3914 0.950 . S
C3922 C3920 1.391 . S
C3922 C3923 1.400 . S
C3923 C3922 1.400 . S
C3923 C3924 1.398 . S
C3923 C3929 1.491 1_455 S
C3924 H3915 0.950 . S
C3924 C3923 1.398 . S
C3924 C3925 1.391 . S
C3925 H3913 0.950 . S
C3925 C3921 1.393 . S
C3925 C3924 1.391 . S
C3926 H3916 0.950 . S
C3926 C3927 1.386 . S
C3926 C3928 1.391 . S
C3927 C3926 1.386 . S
C3927 C3931 1.393 . S
C3928 H3917 0.950 . S
C3928 C3926 1.391 . S
C3928 C3929 1.400 . S
C3929 C3923 1.491 1_655 S
C3929 C3928 1.400 . S
C3929 C3930 1.398 . S
C3930 H3918 0.950 . S
C3930 C3929 1.398 . S
C3930 C3931 1.391 . S
C3931 H3919 0.950 . S
C3931 C3927 1.393 . S
C3931 C3930 1.391 . S
H3932 C3940 0.950 . S
H3933 C3945 0.950 . S
H3934 C3942 0.950 . S
H3935 C3944 0.950 1_655 S
H3936 C3946 0.950 . S
H3937 C3948 0.950 . S
H3938 C3950 0.950 1_455 S
H3939 C3951 0.950 . S
C3940 H3932 0.950 . S
C3940 C3941 1.386 . S
C3940 C3942 1.391 . S
C3941 C3940 1.386 . S
C3941 C3945 1.393 . S
C3942 H3934 0.950 . S
C3942 C3940 1.391 . S
C3942 C3943 1.400 . S
C3943 C3942 1.400 . S
C3943 C3944 1.398 . S
C3943 C3949 1.491 1_455 S
C3944 H3935 0.950 1_455 S
C3944 C3943 1.398 . S
C3944 C3945 1.391 . S
C3945 H3933 0.950 . S
C3945 C3941 1.393 . S
C3945 C3944 1.391 . S
C3946 H3936 0.950 . S
C3946 C3947 1.386 . S
C3946 C3948 1.391 . S
C3947 C3946 1.386 . S
C3947 C3951 1.393 . S
C3948 H3937 0.950 . S
C3948 C3946 1.391 . S
C3948 C3949 1.400 . S
C3949 C3943 1.491 1_655 S
C3949 C3948 1.400 . S
C3949 C3950 1.398 . S
C3950 H3938 0.950 1_655 S
C3950 C3949 1.398 . S
C3950 C3951 1.391 . S
C3951 H3939 0.950 . S
C3951 C3947 1.393 . S
C3951 C3950 1.391 . S
H3952 C3960 0.950 . S
H3953 C3965 0.950 . S
H3954 C3962 0.929 1_655 S
H3955 C3964 0.950 . S
H3956 C3966 0.950 . S
H3957 C3968 0.928 1_455 S
H3958 C3970 0.950 . S
H3959 C3971 0.950 . S
C3960 H3952 0.950 . S
C3960 C3961 1.386 . S
C3960 C3962 1.391 . S
C3961 C3960 1.386 . S
C3961 C3965 1.393 . S
C3962 H3954 0.929 1_455 S
C3962 C3960 1.391 . S
C3962 C3963 1.400 . S
C3963 C3962 1.400 . S
C3963 C3964 1.398 . S
C3963 C3969 1.491 1_455 S
C3964 H3955 0.950 . S
C3964 C3963 1.398 . S
C3964 C3965 1.391 . S
C3965 H3953 0.950 . S
C3965 C3961 1.393 . S
C3965 C3964 1.391 . S
C3966 H3956 0.950 . S
C3966 C3967 1.386 . S
C3966 C3968 1.391 . S
C3967 C3966 1.386 . S
C3967 C3971 1.393 . S
C3968 H3957 0.928 1_655 S
C3968 C3966 1.391 . S
C3968 C3969 1.400 . S
C3969 C3963 1.491 1_655 S
C3969 C3968 1.400 . S
C3969 C3970 1.398 . S
C3970 H3958 0.950 . S
C3970 C3969 1.398 . S
C3970 C3971 1.391 . S
C3971 H3959 0.950 . S
C3971 C3967 1.393 . S
C3971 C3970 1.391 . S
H3972 C3980 0.950 . S
H3973 C3985 0.950 . S
H3974 C3982 0.950 . S
H3975 C3984 0.950 . S
H3976 C3986 0.950 . S
H3977 C3988 0.950 . S
H3978 C3990 0.950 . S
H3979 C3991 0.950 . S
C3980 H3972 0.950 . S
C3980 C3981 1.386 . S
C3980 C3982 1.391 . S
C3981 C3980 1.386 . S
C3981 C3985 1.393 . S
C3982 H3974 0.950 . S
C3982 C3980 1.391 . S
C3982 C3983 1.400 . S
C3983 C3982 1.400 . S
C3983 C3984 1.398 . S
C3983 C3989 1.491 . S
C3984 H3975 0.950 . S
C3984 C3983 1.398 . S
C3984 C3985 1.391 . S
C3985 H3973 0.950 . S
C3985 C3981 1.393 . S
C3985 C3984 1.391 . S
C3986 H3976 0.950 . S
C3986 C3987 1.386 . S
C3986 C3988 1.391 . S
C3987 C3986 1.386 . S
C3987 C3991 1.393 . S
C3988 H3977 0.950 . S
C3988 C3986 1.391 . S
C3988 C3989 1.400 . S
C3989 C3983 1.491 . S
C3989 C3988 1.400 . S
C3989 C3990 1.398 . S
C3990 H3978 0.950 . S
C3990 C3989 1.398 . S
C3990 C3991 1.391 . S
C3991 H3979 0.950 . S
C3991 C3987 1.393 . S
C3991 C3990 1.391 . S
H3992 C4000 0.950 . S
H3993 C4005 0.950 . S
H3994 C4002 0.950 . S
H3995 C4004 0.950 . S
H3996 C4006 0.950 . S
H3997 C4008 0.950 . S
H3998 C4010 0.950 . S
H3999 C4011 0.950 . S
C4000 H3992 0.950 . S
C4000 C4001 1.386 . S
C4000 C4002 1.391 . S
C4001 C4000 1.386 . S
C4001 C4005 1.393 . S
C4002 H3994 0.950 . S
C4002 C4000 1.391 . S
C4002 C4003 1.400 . S
C4003 C4002 1.400 . S
C4003 C4004 1.398 . S
C4003 C4009 1.491 1_565 S
C4004 H3995 0.950 . S
C4004 C4003 1.398 . S
C4004 C4005 1.391 . S
C4005 H3993 0.950 . S
C4005 C4001 1.393 . S
C4005 C4004 1.391 . S
C4006 H3996 0.950 . S
C4006 C4007 1.386 . S
C4006 C4008 1.391 . S
C4007 C4006 1.386 . S
C4007 C4011 1.393 . S
C4008 H3997 0.950 . S
C4008 C4006 1.391 . S
C4008 C4009 1.400 . S
C4009 C4003 1.491 1_545 S
C4009 C4008 1.400 . S
C4009 C4010 1.398 . S
C4010 H3998 0.950 . S
C4010 C4009 1.398 . S
C4010 C4011 1.391 . S
C4011 H3999 0.950 . S
C4011 C4007 1.393 . S
C4011 C4010 1.391 . S
H4012 C4020 0.950 . S
H4013 C4025 0.950 . S
H4014 C4022 0.950 . S
H4015 C4024 0.950 1_556 S
H4016 C4026 0.950 . S
H4017 C4028 0.950 . S
H4018 C4030 0.950 1_554 S
H4019 C4031 0.950 . S
C4020 H4012 0.950 . S
C4020 C4021 1.386 . S
C4020 C4022 1.391 . S
C4021 C4020 1.386 . S
C4021 C4025 1.393 . S
C4022 H4014 0.950 . S
C4022 C4020 1.391 . S
C4022 C4023 1.400 . S
C4023 C4022 1.400 . S
C4023 C4024 1.398 . S
C4023 C4029 1.491 1_554 S
C4024 H4015 0.950 1_554 S
C4024 C4023 1.398 . S
C4024 C4025 1.391 . S
C4025 H4013 0.950 . S
C4025 C4021 1.393 . S
C4025 C4024 1.391 . S
C4026 H4016 0.950 . S
C4026 C4027 1.386 . S
C4026 C4028 1.391 . S
C4027 C4026 1.386 . S
C4027 C4031 1.393 . S
C4028 H4017 0.950 . S
C4028 C4026 1.391 . S
C4028 C4029 1.400 . S
C4029 C4023 1.491 1_556 S
C4029 C4028 1.400 . S
C4029 C4030 1.398 . S
C4030 H4018 0.950 1_556 S
C4030 C4029 1.398 . S
C4030 C4031 1.391 . S
C4031 H4019 0.950 . S
C4031 C4027 1.393 . S
C4031 C4030 1.391 . S
C1641 C927 1.281 . S
C1647 C20 1.328 . S
C1661 C54 1.329 . S
C1667 C825 1.289 . S
C1681 C88 1.316 . S
C1687 C859 1.286 . S
C1701 C893 1.281 . S
C1707 C122 1.328 . S
C1721 C156 1.328 . S
C1727 C179 1.286 . S
C1741 C213 1.302 . S
C1747 C190 1.323 . S
C1761 C247 1.278 . S
C1767 C224 1.327 . S
C1781 C258 1.323 . S
C1787 C145 1.302 . S
C1801 C292 1.323 . S
C1807 C1437 1.302 . S
C1821 C326 1.328 . S
C1827 C1471 1.285 . S
C1841 C360 1.321 . S
C1847 C689 1.302 . S
C1861 C1403 1.276 . S
C1867 C394 1.326 . S
C1881 C1573 1.290 . S
C1887 C428 1.316 . S
C1901 C553 1.298 . S
C1907 C462 1.317 . S
C1921 C496 1.328 . S
C1927 C1607 1.280 . S
C1941 C530 1.325 . S
C1947 C1539 1.275 . S
C1961 C315 1.293 . S
C1967 C564 1.316 . S
C1981 C1335 1.277 . S
C1987 C598 1.319 . S
C2001 C1233 1.301 . S
C2007 C632 1.319 . S
C2021 C1267 1.293 . S
C2027 C666 1.328 . S
C2041 C700 1.323 . S
C2047 C485 1.274 . S
C2061 C734 1.320 . S
C2067 C1199 1.276 . S
C2081 C1097 1.275 . S
C2087 C768 1.322 . S
C2101 C802 1.328 . S
C2107 C1165 1.281 . S
C2121 C836 1.320 . S
C2127 C111 1.302 . S
C2141 C870 1.317 . S
C2147 C9 1.298 . S
C2161 C43 1.287 . S
C2167 C904 1.316 . S
C2181 C77 1.290 . S
C2187 C938 1.316 . S
C2201 C995 1.285 . S
C2207 C972 1.316 . S
C2221 C1029 1.275 . S
C2227 C1006 1.324 . S
C2241 C1040 1.316 . S
C2247 C1063 1.284 . S
C2261 C1074 1.317 . S
C2267 C961 1.281 . S
C2281 C1108 1.324 . S
C2287 C621 1.275 . S
C2301 C655 1.274 . S
C2307 C1142 1.323 . S
C2321 C1505 1.302 . S
C2327 C1176 1.320 . S
C2341 C1210 1.326 . S
C2347 C587 1.299 . S
C2361 C757 1.291 . S
C2367 C1244 1.316 . S
C2381 C1278 1.328 . S
C2387 C1369 1.279 . S
C2401 C1312 1.316 . S
C2407 C791 1.292 . S
C2421 C723 1.300 . S
C2427 C1346 1.325 . S
C2441 C1131 1.274 . S
C2447 C1380 1.323 . S
C2461 C519 1.291 . S
C2467 C1414 1.329 . S
C2481 C1448 1.316 . S
C2487 C417 1.284 . S
C2501 C451 1.289 . S
C2507 C1482 1.316 . S
C2521 C1516 1.323 . S
C2527 C1301 1.302 . S
C2541 C1550 1.319 . S
C2547 C383 1.301 . S
C2561 C281 1.290 . S
C2567 C1584 1.329 . S
C2581 C349 1.300 . S
C2587 C1618 1.325 . S
C2601 C1430 0.836 . S
C2607 C33 0.819 . S
C2621 C1464 0.854 . S
C2627 C67 0.828 . S
C2641 C682 0.844 . S
C2647 C101 0.814 . S
C2661 C1396 0.825 . S
C2667 C135 0.837 . S
C2681 C169 0.843 . S
C2687 C1566 0.824 . S
C2701 C546 0.837 . S
C2707 C203 0.854 . S
C2721 C1600 0.840 . S
C2727 C237 0.816 . S
C2741 C271 0.815 . S
C2747 C1532 0.850 . S
C2761 C305 0.819 . S
C2767 C308 0.836 . S
C2781 C342 0.824 . S
C2787 C339 0.841 . S
C2801 C376 0.845 . S
C2807 C373 0.848 . S
C2821 C274 0.853 . S
C2827 C407 0.820 . S
C2841 C1328 0.851 . S
C2847 C441 0.816 . S
C2861 C1226 0.852 . S
C2867 C475 0.818 . S
C2881 C1260 0.841 . S
C2887 C509 0.815 . S
C2901 C543 0.822 . S
C2907 C1294 0.832 . S
C2921 C920 0.844 . S
C2927 C577 0.848 . S
C2941 C611 0.829 . S
C2947 C172 0.828 . S
C2961 C206 0.854 . S
C2967 C645 0.828 . S
C2981 C240 0.854 . S
C2987 C679 0.829 . S
C3001 C713 0.830 . S
C3007 C954 0.827 . S
C3021 C36 0.826 . S
C3027 C747 0.835 . S
C3041 C781 0.819 . S
C3047 C70 0.835 . S
C3061 C815 0.840 . S
C3067 C2 0.850 . S
C3081 C614 0.826 . S
C3087 C849 0.852 . S
C3101 C648 0.829 . S
C3107 C883 0.827 . S
C3121 C917 0.851 . S
C3127 C1498 0.841 . S
C3141 C951 0.844 . S
C3147 C580 0.824 . S
C3161 C750 0.825 . S
C3167 C985 0.838 . S
C3181 C1362 0.852 . S
C3187 C1019 0.818 . S
C3201 C784 0.849 . S
C3207 C1053 0.843 . S
C3221 C1087 0.814 . S
C3227 C716 0.844 . S
C3241 C1121 0.854 . S
C3247 C1124 0.830 . S
C3261 C1158 0.848 . S
C3267 C1155 0.815 . S
C3281 C1189 0.841 . S
C3287 C1192 0.824 . S
C3301 C1223 0.822 . S
C3307 C1090 0.832 . S
C3321 C1257 0.846 . S
C3327 C512 0.846 . S
C3341 C410 0.842 . S
C3347 C1291 0.850 . S
C3361 C444 0.853 . S
C3367 C1325 0.832 . S
C3381 C478 0.854 . S
C3387 C1359 0.826 . S
C3401 C104 0.847 . S
C3407 C1393 0.814 . S
C3421 C988 0.842 . S
C3427 C1427 0.815 . S
C3441 C1461 0.851 . S
C3447 C1022 0.826 . S
C3461 C1495 0.854 . S
C3467 C1056 0.829 . S
C3481 C1529 0.850 . S
C3487 C138 0.842 . S
C3501 C1563 0.836 . S
C3507 C852 0.825 . S
C3521 C1597 0.815 . S
C3527 C886 0.848 . S
C3541 C818 0.849 . S
C3547 C1631 0.815 . S
C3561 C5 0.823 . S
C3567 C1025 0.796 . S
C3581 C39 0.819 . S
C3587 C1059 0.796 . S
C3601 C957 0.822 . S
C3607 C73 0.795 . S
C3621 C991 0.798 . S
C3627 C107 0.830 . S
C3641 C141 0.835 . S
C3647 C889 0.811 . S
C3661 C923 0.826 . S
C3667 C175 0.828 . S
C3681 C821 0.835 . S
C3687 C209 0.814 . S
C3701 C855 0.833 . S
C3707 C243 0.802 . S
C3721 C277 0.810 . S
C3727 C345 0.835 . S
C3741 C311 0.816 . S
C3747 C379 0.834 . S
C3761 C481 0.835 . S
C3767 C413 0.809 . S
C3781 C447 0.799 . S
C3787 C515 0.811 . S
C3801 C549 0.824 . S
C3807 C583 0.796 . S
C3821 C1603 0.809 . S
C3827 C617 0.800 . S
C3841 C1535 0.828 . S
C3847 C651 0.826 . S
C3861 C685 0.812 . S
C3867 C753 0.798 . S
C3881 C719 0.822 . S
C3887 C1467 0.795 . S
C3901 C787 0.835 . S
C3907 C1433 0.806 . S
C3921 C1161 0.828 . S
C3927 C1093 0.827 . S
C3941 C1195 0.834 . S
C3947 C1127 0.816 . S
C3961 C1297 0.797 . S
C3967 C1229 0.814 . S
C3981 C1331 0.822 . S
C3987 C1263 0.796 . S
C4001 C1365 0.827 . S
C4007 C1399 0.827 . S
C4021 C1569 0.835 . S
C4027 C1501 0.812 . S
