# Generated by pormake.
# Topology wio, (6)-cn, num edge types: 1
# Building blocks:
#     Node 0, Type 0, BuildingBlock: BETGAK_clean_sbu_0, # of connection points: 6
#     Node 1, Type 0, BuildingBlock: BETGAK_clean_sbu_0, # of connection points: 6
#     Node 2, Type 0, BuildingBlock: BETGAK_clean_sbu_0, # of connection points: 6
#     Node 3, Type 0, BuildingBlock: BETGAK_clean_sbu_0, # of connection points: 6
#     Node 4, Type 0, BuildingBlock: BETGAK_clean_sbu_0, # of connection points: 6
#     Node 5, Type 0, BuildingBlock: BETGAK_clean_sbu_0, # of connection points: 6
#     Node 6, Type 0, BuildingBlock: BETGAK_clean_sbu_0, # of connection points: 6
#     Node 7, Type 0, BuildingBlock: BETGAK_clean_sbu_0, # of connection points: 6
#     Node 8, Type 0, BuildingBlock: BETGAK_clean_sbu_0, # of connection points: 6
#     Node 9, Type 0, BuildingBlock: BETGAK_clean_sbu_0, # of connection points: 6
#     Node 10, Type 0, BuildingBlock: BETGAK_clean_sbu_0, # of connection points: 6
#     Node 11, Type 0, BuildingBlock: BETGAK_clean_sbu_0, # of connection points: 6
#     Node 12, Type 0, BuildingBlock: BETGAK_clean_sbu_0, # of connection points: 6
#     Node 13, Type 0, BuildingBlock: BETGAK_clean_sbu_0, # of connection points: 6
#     Node 14, Type 0, BuildingBlock: BETGAK_clean_sbu_0, # of connection points: 6
#     Node 15, Type 0, BuildingBlock: BETGAK_clean_sbu_0, # of connection points: 6
#     Node 16, Type 0, BuildingBlock: BETGAK_clean_sbu_0, # of connection points: 6
#     Node 17, Type 0, BuildingBlock: BETGAK_clean_sbu_0, # of connection points: 6
#     Node 18, Type 0, BuildingBlock: BETGAK_clean_sbu_0, # of connection points: 6
#     Node 19, Type 0, BuildingBlock: BETGAK_clean_sbu_0, # of connection points: 6
#     Node 20, Type 0, BuildingBlock: BETGAK_clean_sbu_0, # of connection points: 6
#     Node 21, Type 0, BuildingBlock: BETGAK_clean_sbu_0, # of connection points: 6
#     Node 22, Type 0, BuildingBlock: BETGAK_clean_sbu_0, # of connection points: 6
#     Node 23, Type 0, BuildingBlock: BETGAK_clean_sbu_0, # of connection points: 6
#     Node 24, Type 0, BuildingBlock: BETGAK_clean_sbu_0, # of connection points: 6
#     Node 25, Type 0, BuildingBlock: BETGAK_clean_sbu_0, # of connection points: 6
#     Node 26, Type 0, BuildingBlock: BETGAK_clean_sbu_0, # of connection points: 6
#     Node 27, Type 0, BuildingBlock: BETGAK_clean_sbu_0, # of connection points: 6
#     Node 28, Type 0, BuildingBlock: BETGAK_clean_sbu_0, # of connection points: 6
#     Node 29, Type 0, BuildingBlock: BETGAK_clean_sbu_0, # of connection points: 6
#     Node 30, Type 0, BuildingBlock: BETGAK_clean_sbu_0, # of connection points: 6
#     Node 31, Type 0, BuildingBlock: BETGAK_clean_sbu_0, # of connection points: 6
#     Edge 32, Type (0, 0), None
#     Edge 33, Type (0, 0), None
#     Edge 34, Type (0, 0), None
#     Edge 35, Type (0, 0), None
#     Edge 36, Type (0, 0), None
#     Edge 37, Type (0, 0), None
#     Edge 38, Type (0, 0), None
#     Edge 39, Type (0, 0), None
#     Edge 40, Type (0, 0), None
#     Edge 41, Type (0, 0), None
#     Edge 42, Type (0, 0), None
#     Edge 43, Type (0, 0), None
#     Edge 44, Type (0, 0), None
#     Edge 45, Type (0, 0), None
#     Edge 46, Type (0, 0), None
#     Edge 47, Type (0, 0), None
#     Edge 48, Type (0, 0), None
#     Edge 49, Type (0, 0), None
#     Edge 50, Type (0, 0), None
#     Edge 51, Type (0, 0), None
#     Edge 52, Type (0, 0), None
#     Edge 53, Type (0, 0), None
#     Edge 54, Type (0, 0), None
#     Edge 55, Type (0, 0), None
#     Edge 56, Type (0, 0), None
#     Edge 57, Type (0, 0), None
#     Edge 58, Type (0, 0), None
#     Edge 59, Type (0, 0), None
#     Edge 60, Type (0, 0), None
#     Edge 61, Type (0, 0), None
#     Edge 62, Type (0, 0), None
#     Edge 63, Type (0, 0), None
#     Edge 64, Type (0, 0), None
#     Edge 65, Type (0, 0), None
#     Edge 66, Type (0, 0), None
#     Edge 67, Type (0, 0), None
#     Edge 68, Type (0, 0), None
#     Edge 69, Type (0, 0), None
#     Edge 70, Type (0, 0), None
#     Edge 71, Type (0, 0), None
#     Edge 72, Type (0, 0), None
#     Edge 73, Type (0, 0), None
#     Edge 74, Type (0, 0), None
#     Edge 75, Type (0, 0), None
#     Edge 76, Type (0, 0), None
#     Edge 77, Type (0, 0), None
#     Edge 78, Type (0, 0), None
#     Edge 79, Type (0, 0), None
#     Edge 80, Type (0, 0), None
#     Edge 81, Type (0, 0), None
#     Edge 82, Type (0, 0), None
#     Edge 83, Type (0, 0), None
#     Edge 84, Type (0, 0), None
#     Edge 85, Type (0, 0), None
#     Edge 86, Type (0, 0), None
#     Edge 87, Type (0, 0), None
#     Edge 88, Type (0, 0), None
#     Edge 89, Type (0, 0), None
#     Edge 90, Type (0, 0), None
#     Edge 91, Type (0, 0), None
#     Edge 92, Type (0, 0), None
#     Edge 93, Type (0, 0), None
#     Edge 94, Type (0, 0), None
#     Edge 95, Type (0, 0), None
#     Edge 96, Type (0, 0), None
#     Edge 97, Type (0, 0), None
#     Edge 98, Type (0, 0), None
#     Edge 99, Type (0, 0), None
#     Edge 100, Type (0, 0), None
#     Edge 101, Type (0, 0), None
#     Edge 102, Type (0, 0), None
#     Edge 103, Type (0, 0), None
#     Edge 104, Type (0, 0), None
#     Edge 105, Type (0, 0), None
#     Edge 106, Type (0, 0), None
#     Edge 107, Type (0, 0), None
#     Edge 108, Type (0, 0), None
#     Edge 109, Type (0, 0), None
#     Edge 110, Type (0, 0), None
#     Edge 111, Type (0, 0), None
#     Edge 112, Type (0, 0), None
#     Edge 113, Type (0, 0), None
#     Edge 114, Type (0, 0), None
#     Edge 115, Type (0, 0), None
#     Edge 116, Type (0, 0), None
#     Edge 117, Type (0, 0), None
#     Edge 118, Type (0, 0), None
#     Edge 119, Type (0, 0), None
#     Edge 120, Type (0, 0), None
#     Edge 121, Type (0, 0), None
#     Edge 122, Type (0, 0), None
#     Edge 123, Type (0, 0), None
#     Edge 124, Type (0, 0), None
#     Edge 125, Type (0, 0), None
#     Edge 126, Type (0, 0), None
#     Edge 127, Type (0, 0), None
# Relax obj value: 0.282
# Max RMSD: 0.266
# Mean RMSD: 0.266
data_MOF--net-wio--node1-BETGAK_clean_sbu_0--edge1-none
_symmetry_space_group_name_H-M    P1
_symmetry_Int_Tables_number       1
_symmetry_cell_setting            triclinic
loop_
_symmetry_equiv_pos_as_xyz
'x, y, z'
_cell_length_a     33.2692
_cell_length_b     33.296439
_cell_length_c     26.651799
_cell_angle_alpha  90.046132
_cell_angle_beta   90.025285
_cell_angle_gamma 90.132541
loop_
_atom_site_label
_atom_site_type_symbol
_atom_site_fract_x
_atom_site_fract_y
_atom_site_fract_z
_atom_type_partial_charge
La0 La 0.22641 0.1389 0.38281 0.0
La1 La 0.13925 0.15861 0.38565 0.0
C2 C 0.29594 0.11124 0.37505 0.0
C3 C 0.33102 0.13114 0.35418 0.0
C4 C 0.32993 0.17293 0.34646 0.0
C5 C 0.35569 0.19058 0.31185 0.0
C6 C 0.38187 0.16618 0.28476 0.0
C7 C 0.38796 0.12614 0.29935 0.0
C8 C 0.36188 0.10832 0.33341 0.0
C9 C 0.21369 0.21291 0.41594 0.0
C10 C 0.18618 0.16958 0.27989 0.0
C11 C 0.07229 0.18565 0.41731 0.0
C12 C 1.04564 0.17665 0.46152 0.0
C13 C 1.02184 0.14192 0.46205 0.0
C14 C 0.99681 0.13332 0.50276 0.0
C15 C 0.9938 0.15921 0.54472 0.0
C16 C 1.01811 0.19382 0.54501 0.0
C17 C 1.04356 0.20256 0.5037 0.0
C18 C 0.15563 0.07849 0.37281 0.0
C19 C 0.18579 0.13586 0.48455 0.0
O20 O 0.28231 0.12813 0.41571 0.0
O21 O 0.26729 0.10329 0.34258 0.0
O22 O 0.24611 0.19251 0.4216 0.0
O23 O 0.19269 0.19439 0.38307 0.0
O24 O 0.21554 0.1495 0.30235 0.0
O25 O 0.15312 0.17981 0.30617 0.0
O26 O 0.0757 0.15849 0.38193 0.0
O27 O 0.10705 0.20176 0.42726 0.0
O28 O 0.12435 0.09749 0.35611 0.0
O29 O 0.17394 0.10418 0.39873 0.0
O30 O 0.15536 0.15604 0.46582 0.0
O31 O 0.21036 0.1161 0.45506 0.0
H32 H 0.30626 0.19108 0.3624 0.0
H33 H 0.35047 0.22142 0.3006 0.0
H34 H 0.408 0.10694 0.27817 0.0
H35 H 0.36295 0.07616 0.3387 0.0
H36 H 1.02243 0.12105 0.43087 0.0
H37 H 0.97938 0.10587 0.50081 0.0
H38 H 1.01783 0.21381 0.57702 0.0
H39 H 0.06171 0.22959 0.5048 0.0
La40 La 0.21977 0.97112 0.6329 0.0
La41 La 0.20584 0.88363 0.62957 0.0
C42 C 0.24356 1.04238 0.62871 0.0
C43 C 0.22329 0.07689 0.60727 0.0
C44 C 0.18244 0.07361 0.5943 0.0
C45 C 0.16589 0.10013 0.55975 0.0
C46 C 0.19054 0.12919 0.53778 0.0
C47 C 0.22909 0.13655 0.55725 0.0
C48 C 0.24571 0.11002 0.5917 0.0
C49 C 0.14768 0.95274 0.66768 0.0
C50 C 0.19034 0.93335 0.52749 0.0
C51 C 0.18523 0.8135 0.65742 0.0
C52 C 0.18585 0.79317 0.70768 0.0
C53 C 0.21924 0.79681 0.73977 0.0
C54 C 0.2222 0.77347 0.7835 0.0
C55 C 0.19175 0.7461 0.7973 0.0
C56 C 0.15677 0.7451 0.7674 0.0
C57 C 0.15396 0.7682 0.72309 0.0
C58 C 0.28418 0.90573 0.61495 0.0
C59 C 0.226 0.92742 0.73081 0.0
O60 O 0.22525 1.02712 0.6675 0.0
O61 O 0.25443 1.01486 0.59613 0.0
O62 O 0.16682 0.98551 0.67664 0.0
O63 O 0.16601 0.93426 0.63242 0.0
O64 O 0.20696 0.96388 0.55204 0.0
O65 O 0.18473 0.89795 0.5508 0.0
O66 O 0.21996 0.82227 0.63741 0.0
O67 O 0.1599 0.8429 0.65122 0.0
O68 O 0.26566 0.87594 0.59337 0.0
O69 O 0.25854 0.92071 0.64421 0.0
O70 O 0.2063 0.89743 0.71037 0.0
O71 O 0.24545 0.95316 0.70265 0.0
H72 H 0.16471 1.04806 0.6064 0.0
H73 H 0.13631 0.09381 0.54457 0.0
H74 H 0.24856 0.15871 0.54003 0.0
H75 H 0.27714 0.11289 0.60171 0.0
H76 H 0.24417 0.81621 0.7298 0.0
H77 H 0.24989 0.77481 0.80488 0.0
H78 H 0.13278 0.72441 0.77548 0.0
H79 H 0.12757 0.76503 0.69958 0.0
La80 La 0.38477 0.96886 0.87924 0.0
La81 La 0.47168 0.95041 0.8832 0.0
C82 C 0.3143 0.99378 0.87073 0.0
C83 C 0.28066 0.97094 0.8508 0.0
C84 C 0.28634 0.93002 0.83984 0.0
C85 C 0.26041 0.91044 0.80714 0.0
C86 C 0.22983 0.93234 0.78435 0.0
C87 C 0.21962 0.97056 0.80277 0.0
C88 C 0.24565 0.99032 0.83546 0.0
C89 C 0.39807 0.89499 0.91288 0.0
C90 C 0.4258 0.93918 0.77669 0.0
C91 C 0.53898 0.92429 0.91514 0.0
C92 C 0.56577 0.9335 0.95916 0.0
C93 C 0.59053 0.96757 0.95872 0.0
C94 C 0.61578 0.97628 0.99924 0.0
C95 C 0.61804 0.95113 1.0419 0.0
C96 C 0.59291 0.91714 1.04306 0.0
C97 C 0.56725 0.90829 1.00198 0.0
C98 C 0.45486 1.03059 0.87069 0.0
C99 C 0.42373 0.97231 0.98117 0.0
O100 O 0.32872 0.97893 0.91215 0.0
O101 O 0.34261 1.00221 0.83803 0.0
O102 O 0.36571 0.91539 0.91859 0.0
O103 O 0.41899 0.9135 0.87992 0.0
O104 O 0.39632 0.95919 0.79887 0.0
O105 O 0.45867 0.92905 0.80342 0.0
O106 O 0.53525 0.9513 0.87973 0.0
O107 O 0.50437 0.90799 0.92529 0.0
O108 O 0.48626 1.01171 0.85419 0.0
O109 O 0.43647 1.00468 0.89615 0.0
O110 O 0.45435 0.95203 0.9631 0.0
O111 O 0.40016 0.99267 0.9511 0.0
H112 H 0.31324 0.91453 0.85156 0.0
H113 H 0.26867 0.88102 0.79308 0.0
H114 H 0.19573 0.98765 0.78526 0.0
H115 H 0.2407 1.0217 0.84421 0.0
H116 H 0.59051 0.98781 0.92693 0.0
H117 H 0.63394 1.00322 0.99663 0.0
H118 H 0.59268 0.89775 1.0756 0.0
H119 H 0.54845 0.88173 1.00378 0.0
La120 La 0.38851 0.13439 0.13028 0.0
La121 La 0.40882 0.22119 0.13422 0.0
C122 C 0.3611 0.06471 1.12218 0.0
C123 C 0.38162 1.02993 1.10169 0.0
C124 C 0.42311 1.03252 1.09203 0.0
C125 C 0.44098 1.00593 1.05865 0.0
C126 C 0.417 0.97758 1.03429 0.0
C127 C 0.37748 0.97059 1.05077 0.0
C128 C 0.35951 0.99724 1.08406 0.0
C129 C 0.46252 0.1466 0.16463 0.0
C130 C 0.42082 0.17422 1.0285 0.0
C131 C 0.43552 0.28823 0.16684 0.0
C132 C 0.42616 0.3151 0.21079 0.0
C133 C 0.39145 0.33883 0.2109 0.0
C134 C 0.38285 0.36433 0.25124 0.0
C135 C 0.40871 0.36783 0.29321 0.0
C136 C 0.44318 0.34347 0.29398 0.0
C137 C 0.45194 0.31763 0.25308 0.0
C138 C 0.32837 0.20538 1.12035 0.0
C139 C 0.3857 0.17399 0.23176 0.0
O140 O 0.37745 0.07855 0.16313 0.0
O141 O 0.35334 0.09324 1.08959 0.0
O142 O 0.44143 0.11456 0.17029 0.0
O143 O 0.44456 0.16779 0.13151 0.0
O144 O 0.39964 0.14522 1.05008 0.0
O145 O 0.43122 0.20703 1.0553 0.0
O146 O 0.40894 0.28477 0.13078 0.0
O147 O 0.45118 0.25348 0.17727 0.0
O148 O 0.34792 0.23658 1.10432 0.0
O149 O 0.35377 0.18674 0.14628 0.0
O150 O 0.40723 0.20378 0.21386 0.0
O151 O 0.36454 0.15107 0.20161 0.0
H152 H 0.44067 0.05765 1.10559 0.0
H153 H 0.47134 1.01193 1.04588 0.0
H154 H 0.35856 0.94889 1.03171 0.0
H155 H 0.32759 0.99484 1.09151 0.0
H156 H 0.37067 0.3379 0.17963 0.0
H157 H 0.35549 0.38177 0.24899 0.0
H158 H 0.46313 0.34409 0.32603 0.0
H159 H 0.47894 0.29955 0.25454 0.0
La160 La 0.22141 0.9697 0.36571 0.0
La161 La 0.13386 0.95568 0.36898 0.0
C162 C 0.29265 0.99361 0.37028 0.0
C163 C 0.32719 0.97355 0.39199 0.0
C164 C 0.32443 0.9325 0.40386 0.0
C165 C 0.35066 0.91595 0.43879 0.0
C166 C 0.37901 0.94074 0.462 0.0
C167 C 0.38601 0.97962 0.44365 0.0
C168 C 0.35961 0.99631 0.40917 0.0
C169 C 0.20293 0.89783 0.33039 0.0
C170 C 0.18373 0.93996 0.47097 0.0
C171 C 0.0637 0.93491 0.34114 0.0
C172 C 1.04313 0.9358 0.29103 0.0
C173 C 1.04632 0.96949 0.25945 0.0
C174 C 1.02287 0.97253 0.21578 0.0
C175 C 0.99584 0.94189 0.20155 0.0
C176 C 0.99521 0.90673 0.23099 0.0
C177 C 1.01844 0.9038 0.27522 0.0
C178 C 0.15594 1.03386 0.38414 0.0
C179 C 0.17748 0.97667 0.26786 0.0
O180 O 0.27754 0.97521 0.33142 0.0
O181 O 0.265 1.00446 0.40271 0.0
O182 O 0.23565 0.91705 0.32134 0.0
O183 O 0.18457 0.91595 0.36592 0.0
O184 O 0.21428 0.95659 0.44649 0.0
O185 O 0.14828 0.93442 0.44763 0.0
O186 O 0.07234 0.96949 0.36163 0.0
O187 O 0.09333 0.90975 0.34675 0.0
O188 O 0.12608 1.01537 0.40555 0.0
O189 O 0.17092 1.00836 0.35476 0.0
O190 O 0.14754 0.95673 0.28809 0.0
O191 O 0.20332 0.99584 0.29626 0.0
H192 H 0.29938 0.91451 0.39064 0.0
H193 H 0.34463 0.88607 0.45312 0.0
H194 H 0.40761 0.99919 0.46188 0.0
H195 H 0.3619 1.02796 0.40062 0.0
H196 H 0.06549 0.99452 0.26973 0.0
H197 H 1.02389 1.00037 0.19476 0.0
H198 H 0.97471 0.88263 0.22262 0.0
H199 H 1.0156 0.87721 0.29835 0.0
La200 La 0.39056 0.9751 0.61702 0.0
La201 La 0.40883 0.88787 0.61306 0.0
C202 C 0.36608 1.04557 0.62659 0.0
C203 C 0.38929 0.07867 0.64731 0.0
C204 C 0.42999 0.07221 0.65898 0.0
C205 C 0.44976 0.09782 0.69192 0.0
C206 C 0.42829 0.12897 0.71422 0.0
C207 C 0.39038 0.13975 0.69525 0.0
C208 C 0.37042 0.11403 0.66235 0.0
C209 C 0.46401 0.96156 0.58238 0.0
C210 C 0.4206 0.93394 0.71941 0.0
C211 C 0.43522 0.82075 0.58074 0.0
C212 C 0.42641 0.7937 0.5367 0.0
C213 C 0.39265 0.76852 0.53721 0.0
C214 C 0.38454 0.74263 0.4971 0.0
C215 C 0.40996 0.74016 0.45463 0.0
C216 C 0.44366 0.76574 0.45335 0.0
C217 C 0.4519 0.79203 0.49408 0.0
C218 C 0.32883 0.90514 0.62663 0.0
C219 C 0.38562 0.93525 0.51507 0.0
O220 O 0.38088 1.03149 0.58493 0.0
O221 O 0.35722 1.01698 0.6587 0.0
O222 O 0.44382 0.99411 0.57731 0.0
O223 O 0.44572 0.94062 0.61553 0.0
O224 O 0.40087 0.96359 0.69724 0.0
O225 O 0.43036 0.90092 0.69277 0.0
O226 O 0.40803 0.82432 0.61603 0.0
O227 O 0.45144 0.85542 0.57077 0.0
O228 O 0.3476 0.87354 0.64276 0.0
O229 O 0.35467 0.92339 0.6009 0.0
O230 O 0.4057 0.90452 0.53314 0.0
O231 O 0.36638 0.95983 0.54515 0.0
H232 H 0.44508 1.04501 0.64746 0.0
H233 H 0.47891 0.08905 0.70641 0.0
H234 H 0.37357 0.16401 0.71239 0.0
H235 H 0.33924 0.11959 0.65308 0.0
H236 H 0.37222 0.76858 0.56884 0.0
H237 H 0.35786 0.72411 0.49994 0.0
H238 H 0.46334 0.76575 0.42106 0.0
H239 H 0.47829 0.81108 0.49223 0.0
La240 La 0.38949 0.1398 0.86591 0.0
La241 La 0.47711 0.15345 0.86914 0.0
C242 C 0.31824 0.11602 0.87082 0.0
C243 C 0.28412 0.13613 0.89344 0.0
C244 C 0.28742 0.1771 0.90568 0.0
C245 C 0.26218 0.19361 0.94173 0.0
C246 C 0.23429 0.16886 0.96574 0.0
C247 C 0.22675 0.13 0.94745 0.0
C248 C 0.25199 0.11342 0.91149 0.0
C249 C 0.40804 0.2117 0.83104 0.0
C250 C 0.42771 0.16872 0.97168 0.0
C251 C 0.5471 0.17444 0.84095 0.0
C252 C 0.56723 0.17426 0.79054 0.0
C253 C 0.56334 0.14123 0.75794 0.0
C254 C 0.58652 0.13864 0.71401 0.0
C255 C 0.61398 0.1691 0.70053 0.0
C256 C 0.61519 0.20376 0.73096 0.0
C257 C 0.59224 0.20621 0.77545 0.0
C258 C 0.45477 0.07513 0.88299 0.0
C259 C 0.43304 0.13329 0.76776 0.0
O260 O 0.3331 0.13474 0.83209 0.0
O261 O 0.34613 0.10467 0.90266 0.0
O262 O 0.37517 0.19265 0.82212 0.0
O263 O 0.42652 0.19338 0.86634 0.0
O264 O 0.39697 0.15278 0.94672 0.0
O265 O 0.46327 0.17394 0.94849 0.0
O266 O 0.53852 0.13957 0.86062 0.0
O267 O 0.51761 0.1996 0.84762 0.0
O268 O 0.48481 0.0933 0.90453 0.0
O269 O 0.43979 0.10105 0.85421 0.0
O270 O 0.46324 0.15276 0.78822 0.0
O271 O 0.40703 0.1142 0.79593 0.0
H272 H 0.31224 0.19503 0.89179 0.0
H273 H 0.26864 0.22343 0.95603 0.0
H274 H 0.20548 0.11048 0.9663 0.0
H275 H 0.24918 0.08187 0.90216 0.0
H276 H 0.54391 0.11628 0.76765 0.0
H277 H 0.58503 0.11117 0.69223 0.0
H278 H 0.63594 0.22775 0.72312 0.0
H279 H 0.59558 0.23234 0.79935 0.0
La280 La 0.22243 0.13476 1.12007 0.0
La281 La 0.20338 0.22145 1.11689 0.0
C282 C 0.24669 0.0642 0.12933 0.0
C283 C 0.2229 1.03115 0.149 0.0
C284 C 0.18213 1.03798 0.15993 0.0
C285 C 0.16165 1.01234 0.19208 0.0
C286 C 0.18251 0.98079 0.21435 0.0
C287 C 0.22048 0.96965 0.19591 0.0
C288 C 0.24117 0.99543 0.16385 0.0
C289 C 0.14908 0.14787 1.08438 0.0
C290 C 0.19175 0.17508 0.22274 0.0
C291 C 0.17608 0.28821 1.08484 0.0
C292 C 0.18447 0.31504 1.04063 0.0
C293 C 0.21837 0.34001 1.04047 0.0
C294 C 0.22639 0.3653 0.99986 0.0
C295 C 0.20072 0.36738 0.95758 0.0
C296 C 0.16675 0.34216 0.9571 0.0
C297 C 0.15862 0.31643 0.99832 0.0
C298 C 0.28357 0.20536 0.13144 0.0
C299 C 0.22815 0.17479 1.01884 0.0
O300 O 0.23271 0.07862 1.08745 0.0
O301 O 0.2551 0.09255 0.16201 0.0
O302 O 0.17007 0.11597 1.0782 0.0
O303 O 0.16668 0.1685 1.11848 0.0
O304 O 0.21179 0.14571 0.2004 0.0
O305 O 0.18172 0.20805 0.1963 0.0
O306 O 0.2035 0.28499 1.11991 0.0
O307 O 0.16016 0.25337 1.07504 0.0
O308 O 0.26418 0.23664 0.14744 0.0
O309 O 0.25821 0.18677 1.1052 0.0
O310 O 0.2072 0.20498 1.03685 0.0
O311 O 0.2477 0.15064 1.04908 0.0
H312 H 0.1675 0.06546 0.14857 0.0
H313 H 0.13246 1.02136 0.20617 0.0
H314 H 0.2368 0.94506 0.21303 0.0
H315 H 0.27241 0.98961 0.15517 0.0
H316 H 0.23906 0.34013 1.07186 0.0
H317 H 0.25327 0.38359 1.00209 0.0
H318 H 0.14687 0.34189 0.92497 0.0
H319 H 0.13211 0.29751 0.99703 0.0
La320 La 0.97584 0.95572 0.8688 0.0
La321 La 0.88825 0.96953 0.86561 0.0
C322 C 1.04592 0.9351 0.8409 0.0
C323 C 0.06615 0.93531 0.79055 0.0
C324 C 0.06244 0.96836 0.75804 0.0
C325 C 0.08581 0.97109 0.71428 0.0
C326 C 0.11327 0.94073 0.7009 0.0
C327 C 0.11432 0.90604 0.73119 0.0
C328 C 0.09119 0.90346 0.77552 0.0
C329 C 0.95418 1.03393 0.88352 0.0
C330 C 0.93201 0.97585 0.76771 0.0
C331 C 0.81701 0.99323 0.86962 0.0
C332 C 0.78231 0.97303 0.89096 0.0
C333 C 0.78522 0.93214 0.9035 0.0
C334 C 0.75877 0.91562 0.93824 0.0
C335 C 0.73016 0.94034 0.96082 0.0
C336 C 0.72305 0.97898 0.94172 0.0
C337 C 0.74951 0.99557 0.90708 0.0
C338 C 0.90658 0.8975 0.83063 0.0
C339 C 0.92603 0.94021 0.97096 0.0
O340 O 1.03722 0.96997 0.86043 0.0
O341 O 1.01651 0.90974 0.84764 0.0
O342 O 0.98398 1.01547 0.90494 0.0
O343 O 0.93881 1.00836 0.85436 0.0
O344 O 0.96192 0.95609 0.78802 0.0
O345 O 0.90643 0.99533 0.796 0.0
O346 O 0.83228 0.97491 0.83088 0.0
O347 O 0.84453 1.00411 0.90231 0.0
O348 O 0.8738 0.91654 0.8217 0.0
O349 O 0.92497 0.91596 0.86594 0.0
O350 O 0.89549 0.95671 0.94644 0.0
O351 O 0.96146 0.93474 0.94762 0.0
H352 H 1.04299 0.99324 0.76771 0.0
H353 H 0.08444 0.99857 0.69258 0.0
H354 H 0.13506 0.88213 0.72337 0.0
H355 H 0.09441 0.87734 0.79937 0.0
H356 H 0.81051 0.91431 0.89096 0.0
H357 H 0.76487 0.88595 0.95308 0.0
H358 H 0.70122 0.9985 0.95938 0.0
H359 H 0.74693 1.02705 0.89742 0.0
La360 La 0.90983 0.22106 0.61511 0.0
La361 La 0.89074 0.13422 0.61933 0.0
C362 C 0.93641 0.28815 0.58287 0.0
C363 C 0.92702 0.31505 0.5391 0.0
C364 C 0.89289 0.3396 0.53986 0.0
C365 C 0.88407 0.36497 0.49957 0.0
C366 C 0.90913 0.36752 0.45681 0.0
C367 C 0.94315 0.34256 0.45533 0.0
C368 C 0.95212 0.31681 0.49617 0.0
C369 C 0.8295 0.20471 0.62755 0.0
C370 C 0.88755 0.17292 0.51733 0.0
C371 C 0.86548 0.06383 0.62802 0.0
C372 C 0.88824 1.03027 0.64792 0.0
C373 C 0.92926 1.03596 0.65863 0.0
C374 C 0.94886 1.01011 0.69123 0.0
C375 C 0.9269 0.97958 0.71419 0.0
C376 C 0.88853 0.96935 0.69603 0.0
C377 C 0.86874 0.99531 0.66344 0.0
C378 C 0.96474 0.1474 0.58554 0.0
C379 C 0.92078 0.17537 0.72173 0.0
O380 O 0.90977 0.28459 0.61879 0.0
O381 O 0.95216 0.25346 0.57229 0.0
O382 O 0.84862 0.23614 0.64376 0.0
O383 O 0.85523 0.18591 0.60233 0.0
O384 O 0.90812 0.20347 0.53529 0.0
O385 O 0.86697 0.14953 0.54748 0.0
O386 O 0.8803 0.07817 0.58652 0.0
O387 O 0.85723 0.09218 0.66071 0.0
O388 O 0.94416 0.11506 0.57991 0.0
O389 O 0.94632 0.16829 0.61854 0.0
O390 O 0.90049 0.14595 0.69962 0.0
O391 O 0.93117 0.20813 0.69493 0.0
H392 H 0.87271 0.33935 0.57173 0.0
H393 H 0.85713 0.383 0.50244 0.0
H394 H 0.96248 0.34256 0.4227 0.0
H395 H 0.9787 0.29816 0.49412 0.0
H396 H 0.94485 0.06281 0.6468 0.0
H397 H 0.9784 1.01838 0.70509 0.0
H398 H 0.87137 0.94551 0.71368 0.0
H399 H 0.83728 0.99035 0.65491 0.0
La400 La 0.63881 0.15788 0.36407 0.0
La401 La 0.72564 0.13771 0.36797 0.0
C402 C 0.57187 0.18463 0.33154 0.0
C403 C 0.54496 0.17535 0.28755 0.0
C404 C 0.52125 0.14053 0.28714 0.0
C405 C 0.49574 0.13199 0.24673 0.0
C406 C 0.49223 0.15801 0.205 0.0
C407 C 0.51656 0.19261 0.20455 0.0
C408 C 0.54241 0.2013 0.24551 0.0
C409 C 0.65417 0.07755 0.3779 0.0
C410 C 0.68598 0.13471 0.26659 0.0
C411 C 0.79531 0.11039 0.37573 0.0
C412 C 0.83029 0.13074 0.39624 0.0
C413 C 0.8282 0.17227 0.40557 0.0
C414 C 0.85469 0.19002 0.4393 0.0
C415 C 0.88247 0.16592 0.46423 0.0
C416 C 0.88909 0.12628 0.44809 0.0
C417 C 0.86251 0.10842 0.41451 0.0
C418 C 0.71346 0.21168 0.33358 0.0
C419 C 0.6859 0.16995 0.4698 0.0
O420 O 0.57518 0.15803 0.36751 0.0
O421 O 0.60673 0.20026 0.32114 0.0
O422 O 0.62297 0.09708 0.39378 0.0
O423 O 0.67316 0.10283 0.35207 0.0
O424 O 0.65629 0.15631 0.28444 0.0
O425 O 0.70867 0.1135 0.29682 0.0
O426 O 0.78147 0.12687 0.33494 0.0
O427 O 0.76678 0.10257 0.40839 0.0
O428 O 0.74548 0.19067 0.3278 0.0
O429 O 0.69241 0.19359 0.36678 0.0
O430 O 0.71488 0.14885 0.44819 0.0
O431 O 0.65308 0.18027 0.44303 0.0
H432 H 0.52221 0.11962 0.31822 0.0
H433 H 0.47831 0.10455 0.24874 0.0
H434 H 0.51592 0.21269 0.17269 0.0
H435 H 0.56047 0.22839 0.2443 0.0
H436 H 0.80344 0.18998 0.39152 0.0
H437 H 0.84899 0.22048 0.45181 0.0
H438 H 0.91035 0.10727 0.4676 0.0
H439 H 0.86449 0.07646 0.4074 0.0
La440 La 0.70085 0.88866 1.11272 0.0
La441 La 0.7211 0.97581 1.11596 0.0
C442 C 0.6735 0.8218 1.08084 0.0
C443 C 0.68273 0.79505 1.03681 0.0
C444 C 0.71742 0.77131 1.03668 0.0
C445 C 0.72625 0.74625 0.99608 0.0
C446 C 0.70064 0.74318 0.95384 0.0
C447 C 0.66608 0.76741 0.95317 0.0
C448 C 0.6571 0.79287 0.99436 0.0
C449 C 0.78108 0.90474 0.1254 0.0
C450 C 0.72372 0.93536 1.01405 0.0
C451 C 0.74918 1.04527 1.12376 0.0
C452 C 0.72942 0.08043 0.14442 0.0
C453 C 0.6875 0.07964 0.15142 0.0
C454 C 0.66976 0.10534 0.18597 0.0
C455 C 0.6942 0.1312 0.21365 0.0
C456 C 0.73449 0.13708 0.19976 0.0
C457 C 0.7524 0.11101 0.16584 0.0
C458 C 0.64691 0.96312 1.08283 0.0
C459 C 0.6903 0.93545 0.2187 0.0
O460 O 0.70034 0.82518 1.11663 0.0
O461 O 0.65777 0.85658 1.07056 0.0
O462 O 0.76191 0.87342 0.14181 0.0
O463 O 0.75554 0.92338 1.09976 0.0
O464 O 0.70335 0.90495 1.03265 0.0
O465 O 0.74374 0.95978 1.04361 0.0
O466 O 0.73238 1.03157 1.08302 0.0
O467 O 0.7568 1.0167 0.15636 0.0
O468 O 0.66741 0.9956 1.07747 0.0
O469 O 0.66546 0.94216 1.11558 0.0
O470 O 0.71064 0.96475 0.19637 0.0
O471 O 0.67972 0.90252 0.19227 0.0
H472 H 0.73808 0.77199 1.06809 0.0
H473 H 0.75364 0.72886 0.99832 0.0
H474 H 0.6463 0.76705 0.92095 0.0
H475 H 0.63011 0.81096 0.99295 0.0
H476 H 0.66921 0.05621 0.13499 0.0
H477 H 0.63872 0.10029 0.19669 0.0
H478 H 0.75372 0.15686 0.22144 0.0
H479 H 0.78467 0.11182 0.1612 0.0
La480 La 0.97177 0.15857 0.8856 0.0
La481 La 0.88447 0.13989 0.8811 0.0
C482 C 1.03882 0.18529 0.91831 0.0
C483 C 0.06596 0.17633 0.96216 0.0
C484 C 0.0911 0.14266 0.96128 0.0
C485 C 0.11699 0.13439 1.00131 0.0
C486 C 0.1195 0.15955 1.04404 0.0
C487 C 0.094 0.19317 1.04564 0.0
C488 C 0.06771 0.20158 1.00502 0.0
C489 C 0.95482 0.07856 0.87199 0.0
C490 C 0.9239 0.13516 0.9832 0.0
C491 C 0.8139 0.11525 0.87135 0.0
C492 C 0.78081 0.13841 0.85079 0.0
C493 C 0.7873 0.17917 0.83957 0.0
C494 C 0.76178 0.19899 0.80672 0.0
C495 C 0.7307 0.17751 0.78403 0.0
C496 C 0.71983 0.13949 0.8026 0.0
C497 C 0.74546 0.11948 0.83541 0.0
C498 C 0.89806 0.21343 0.91591 0.0
C499 C 0.92595 0.17015 0.77902 0.0
O500 O 1.03538 0.15846 0.88255 0.0
O501 O 1.00403 0.20102 0.92863 0.0
O502 O 0.98653 0.09749 0.85625 0.0
O503 O 0.93614 0.10421 0.89745 0.0
O504 O 0.95467 0.15548 0.9654 0.0
O505 O 0.8996 0.11566 0.95288 0.0
O506 O 0.828 0.12994 0.91311 0.0
O507 O 0.84251 0.1066 0.83918 0.0
O508 O 0.86548 0.19311 0.92091 0.0
O509 O 0.91895 0.1951 0.88281 0.0
O510 O 0.89627 0.1502 0.80099 0.0
O511 O 0.9589 0.1801 0.80585 0.0
H512 H 0.09098 0.12242 0.92945 0.0
H513 H 0.13545 0.10778 0.99823 0.0
H514 H 0.09402 0.21265 1.07814 0.0
H515 H 1.0487 0.22788 1.00715 0.0
H516 H 0.81448 0.19432 0.85133 0.0
H517 H 0.7706 0.22823 0.79255 0.0
H518 H 0.69561 0.12267 0.78517 0.0
H519 H 0.73987 0.08824 0.84433 0.0
La520 La 0.70657 0.22637 0.62924 0.0
La521 La 0.7203 0.13882 0.63234 0.0
C522 C 0.68551 0.29621 0.65746 0.0
C523 C 0.68547 0.31631 0.70791 0.0
C524 C 0.71824 0.3123 0.74088 0.0
C525 C 0.72077 0.33553 0.7848 0.0
C526 C 0.69047 0.36317 0.79789 0.0
C527 C 0.65601 0.36451 0.7671 0.0
C528 C 0.65364 0.3415 0.72262 0.0
C529 C 0.78492 0.20458 0.61542 0.0
C530 C 0.72668 0.18244 0.7305 0.0
C531 C 0.74413 0.06774 0.62761 0.0
C532 C 0.724 1.03347 0.60517 0.0
C533 C 0.68292 1.03646 0.59326 0.0
C534 C 0.66634 1.01124 0.55715 0.0
C535 C 0.69112 0.98368 0.53278 0.0
C536 C 0.7301 0.97637 0.55076 0.0
C537 C 0.74675 1.00161 0.58677 0.0
C538 C 0.64831 0.15714 0.66725 0.0
C539 C 0.69142 0.17688 0.52662 0.0
O540 O 0.72051 0.28775 0.63808 0.0
O541 O 0.66031 0.26668 0.65048 0.0
O542 O 0.76676 0.23456 0.59402 0.0
O543 O 0.75905 0.18925 0.64408 0.0
O544 O 0.7071 0.21246 0.71011 0.0
O545 O 0.74593 0.15665 0.70227 0.0
O546 O 0.72546 0.08261 0.66635 0.0
O547 O 0.75543 0.09556 0.59563 0.0
O548 O 0.66732 0.12435 0.67612 0.0
O549 O 0.66673 0.17553 0.63195 0.0
O550 O 0.70737 0.14624 0.55153 0.0
O551 O 0.68616 0.21239 0.54985 0.0
H552 H 0.7431 0.29274 0.73145 0.0
H553 H 0.74809 0.33396 0.80687 0.0
H554 H 0.63217 0.38541 0.77466 0.0
H555 H 0.62771 0.34496 0.69842 0.0
H556 H 0.66495 0.06108 0.60743 0.0
H557 H 0.63642 1.0175 0.5431 0.0
H558 H 0.74963 0.95535 0.53163 0.0
H559 H 0.77839 0.99904 0.59581 0.0
La560 La 0.63844 0.95252 0.38173 0.0
La561 La 0.72513 0.97209 0.37848 0.0
C562 C 0.57166 0.92487 0.41382 0.0
C563 C 0.54478 0.93331 0.45796 0.0
C564 C 0.51991 0.96716 0.45805 0.0
C565 C 0.49466 0.97527 0.49868 0.0
C566 C 0.49254 0.94975 0.54104 0.0
C567 C 0.51764 0.91582 0.54156 0.0
C568 C 0.54332 0.90759 0.50033 0.0
C569 C 0.65418 1.03271 0.36715 0.0
C570 C 0.685 0.97768 0.47968 0.0
C571 C 0.79574 0.99685 0.3694 0.0
C572 C 0.8291 0.97349 0.34991 0.0
C573 C 0.82293 0.93245 0.33996 0.0
C574 C 0.84846 0.91221 0.30749 0.0
C575 C 0.87924 0.93351 0.284 0.0
C576 C 0.88995 0.97192 0.30155 0.0
C577 C 0.86424 0.99239 0.33383 0.0
C578 C 0.71207 0.89876 0.41439 0.0
C579 C 0.68481 0.94102 0.27586 0.0
O580 O 0.57485 0.9521 0.37858 0.0
O581 O 0.60657 0.90928 0.42377 0.0
O582 O 0.62291 1.01308 0.35131 0.0
O583 O 0.67308 1.00765 0.39331 0.0
O584 O 0.6549 0.95645 0.46173 0.0
O585 O 0.70905 0.99741 0.44939 0.0
O586 O 0.78124 0.9828 0.41123 0.0
O587 O 0.76743 1.00489 0.33658 0.0
O588 O 0.74392 0.91998 0.42059 0.0
O589 O 0.69152 0.91618 0.38018 0.0
O590 O 0.71419 0.96123 0.29817 0.0
O591 O 0.65183 0.93084 0.30233 0.0
H592 H 0.51985 0.98775 0.4266 0.0
H593 H 0.47647 1.00212 0.49642 0.0
H594 H 0.51787 0.89605 0.57376 0.0
H595 H 0.56217 0.88114 0.50168 0.0
H596 H 0.79592 0.91731 0.35226 0.0
H597 H 0.8398 0.88266 0.29416 0.0
H598 H 0.91396 0.9886 0.28353 0.0
H599 H 0.86954 1.02387 0.34167 0.0
La600 La 0.90397 0.88396 0.12974 0.0
La601 La 0.88953 0.97147 0.13259 0.0
C602 C 0.9248 0.814 0.15773 0.0
C603 C 0.9248 0.79368 0.20801 0.0
C604 C 0.89191 0.79739 0.24084 0.0
C605 C 0.88924 0.77376 0.28438 0.0
C606 C 0.91953 0.74606 0.29725 0.0
C607 C 0.95406 0.74496 0.26661 0.0
C608 C 0.95657 0.76834 0.22249 0.0
C609 C 0.82575 0.90522 1.11432 0.0
C610 C 0.88286 0.92782 0.23053 0.0
C611 C 0.86511 1.04237 0.12794 0.0
C612 C 0.88493 0.07715 1.10634 0.0
C613 C 0.92622 0.07516 1.09533 0.0
C614 C 0.94281 0.10134 1.06032 0.0
C615 C 0.91783 0.1289 1.03625 0.0
C616 C 0.87856 0.13524 1.05369 0.0
C617 C 0.86184 0.10885 1.08818 0.0
C618 C 0.96154 0.95366 0.1681 0.0
C619 C 0.91943 0.93367 1.0275 0.0
O620 O 0.88981 0.82265 0.13846 0.0
O621 O 0.95011 0.84345 0.15086 0.0
O622 O 0.84439 0.87545 1.0931 0.0
O623 O 0.85109 0.92071 0.14363 0.0
O624 O 0.90323 0.89818 0.2105 0.0
O625 O 0.86332 0.95313 0.20195 0.0
O626 O 0.88351 1.02752 0.16689 0.0
O627 O 0.85457 1.0146 1.09544 0.0
O628 O 0.94227 0.98634 0.17682 0.0
O629 O 0.94336 0.93511 0.1327 0.0
O630 O 0.90272 0.96416 1.05187 0.0
O631 O 0.92507 0.89834 1.05094 0.0
H632 H 0.86708 0.81702 0.23156 0.0
H633 H 0.86186 0.77513 0.30632 0.0
H634 H 0.97787 0.72397 0.27396 0.0
H635 H 0.98255 0.76505 0.19836 0.0
H636 H 0.94446 1.05067 1.10926 0.0
H637 H 0.97298 0.09582 1.04666 0.0
H638 H 0.85885 0.15619 1.03473 0.0
H639 H 0.82999 0.11047 1.09592 0.0
La640 La 0.726 0.64041 0.87921 0.0
La641 La 0.63905 0.65885 0.88327 0.0
C642 C 0.79647 0.61554 0.87059 0.0
C643 C 0.83005 0.6384 0.85062 0.0
C644 C 0.82431 0.67931 0.83972 0.0
C645 C 0.85016 0.69889 0.80699 0.0
C646 C 0.88072 0.67701 0.78409 0.0
C647 C 0.89101 0.63884 0.80251 0.0
C648 C 0.86506 0.61906 0.83522 0.0
C649 C 0.71264 0.71419 0.91308 0.0
C650 C 0.68487 0.67018 0.77675 0.0
C651 C 0.57183 0.68507 0.9153 0.0
C652 C 0.54498 0.67587 0.95923 0.0
C653 C 0.5202 0.64181 0.95865 0.0
C654 C 0.49488 0.63313 0.99906 0.0
C655 C 0.49257 0.65828 1.04176 0.0
C656 C 0.51773 0.69226 1.04306 0.0
C657 C 0.54345 0.70108 1.00209 0.0
C658 C 0.65585 0.57865 0.8707 0.0
C659 C 0.68712 0.63683 0.98118 0.0
O660 O 0.7821 0.63042 0.91204 0.0
O661 O 0.76811 0.60705 0.83792 0.0
O662 O 0.74505 0.69386 0.91875 0.0
O663 O 0.69174 0.69574 0.88001 0.0
O664 O 0.7144 0.6502 0.79888 0.0
O665 O 0.65199 0.68021 0.8035 0.0
O666 O 0.57547 0.65813 0.87975 0.0
O667 O 0.60648 0.70123 0.9256 0.0
O668 O 0.62439 0.59751 0.8543 0.0
O669 O 0.6743 0.60462 0.89608 0.0
O670 O 0.65645 0.65709 0.96318 0.0
O671 O 0.71071 0.61656 0.95102 0.0
H672 H 0.79741 0.69478 0.85151 0.0
H673 H 0.84184 0.7283 0.79299 0.0
H674 H 0.91489 0.62175 0.78495 0.0
H675 H 0.87007 0.5877 0.84396 0.0
H676 H 0.52025 0.62156 0.92683 0.0
H677 H 0.4767 0.60621 0.99634 0.0
H678 H 0.51792 0.71166 1.07564 0.0
H679 H 0.56227 0.72763 1.00399 0.0
La680 La 0.72215 0.47467 0.13056 0.0
La681 La 0.70189 0.38785 0.13425 0.0
C682 C 0.74954 0.54434 1.12247 0.0
C683 C 0.72906 0.57906 1.10179 0.0
C684 C 0.6876 0.57643 1.09189 0.0
C685 C 0.66981 0.60299 1.05845 0.0
C686 C 0.69381 0.63138 1.03428 0.0
C687 C 0.73331 0.63836 1.05092 0.0
C688 C 0.75121 0.61173 1.08426 0.0
C689 C 0.64818 0.46243 0.16488 0.0
C690 C 0.68983 0.43489 1.02864 0.0
C691 C 0.67529 0.32077 0.16676 0.0
C692 C 0.6846 0.29395 0.21075 0.0
C693 C 0.71928 0.27017 0.21093 0.0
C694 C 0.72784 0.24471 0.25129 0.0
C695 C 0.70197 0.24128 0.29322 0.0
C696 C 0.66751 0.26567 0.29391 0.0
C697 C 0.6588 0.29148 0.25299 0.0
C698 C 0.78231 0.40372 1.12042 0.0
C699 C 0.72502 0.43503 0.23194 0.0
O700 O 0.73308 0.5306 0.16336 0.0
O701 O 0.75742 0.51573 1.08999 0.0
O702 O 0.66926 0.49449 0.17059 0.0
O703 O 0.66611 0.44124 0.13171 0.0
O704 O 0.71096 0.4639 1.05033 0.0
O705 O 0.67948 0.40203 1.05532 0.0
O706 O 0.70194 0.32426 0.13083 0.0
O707 O 0.65951 0.35549 0.17711 0.0
O708 O 0.76277 0.37253 1.10427 0.0
O709 O 0.75693 0.42232 0.14643 0.0
O710 O 0.70351 0.40523 0.21393 0.0
O711 O 0.74614 0.45801 0.20187 0.0
H712 H 0.67002 0.5513 1.10536 0.0
H713 H 0.63948 0.59698 1.04552 0.0
H714 H 0.75226 0.66008 1.03199 0.0
H715 H 0.78311 0.61415 1.09185 0.0
H716 H 0.74008 0.27104 0.17969 0.0
H717 H 0.75519 0.22726 0.24909 0.0
H718 H 0.64755 0.26512 0.32593 0.0
H719 H 0.63181 0.30958 0.2544 0.0
La720 La 0.8844 0.47045 0.38286 0.0
La721 La 0.97151 0.4508 0.38556 0.0
C722 C 0.81484 0.49804 0.37508 0.0
C723 C 0.7798 0.47802 0.35422 0.0
C724 C 0.78103 0.43624 0.3464 0.0
C725 C 0.75523 0.41848 0.31187 0.0
C726 C 0.72885 0.44278 0.28497 0.0
C727 C 0.72265 0.4828 0.29963 0.0
C728 C 0.74879 0.50072 0.3336 0.0
C729 C 0.89713 0.39659 0.41622 0.0
C730 C 0.92452 0.4397 0.27987 0.0
C731 C 1.03855 0.42387 0.41708 0.0
C732 C 0.06517 0.4328 0.46139 0.0
C733 C 0.089 0.4675 0.46206 0.0
C734 C 0.114 0.47607 0.50286 0.0
C735 C 0.11694 0.45016 0.54476 0.0
C736 C 0.09259 0.41558 0.5449 0.0
C737 C 0.06718 0.40687 0.50351 0.0
C738 C 0.95504 0.53091 0.37269 0.0
C739 C 0.92517 0.47361 0.48452 0.0
O740 O 0.82853 0.48127 0.41576 0.0
O741 O 0.84347 0.50596 0.3426 0.0
O742 O 0.86473 0.41702 0.42186 0.0
O743 O 0.9181 0.41491 0.38317 0.0
O744 O 0.89515 0.45975 0.30238 0.0
O745 O 0.95761 0.42952 0.3061 0.0
O746 O 1.03506 0.45113 0.38191 0.0
O747 O 1.00385 0.4076 0.42688 0.0
O748 O 0.98628 0.51188 0.35589 0.0
O749 O 0.93683 0.50525 0.3987 0.0
O750 O 0.95554 0.45338 0.46575 0.0
O751 O 0.90059 0.49338 0.45507 0.0
H752 H 0.80484 0.41818 0.3622 0.0
H753 H 0.76054 0.38767 0.30051 0.0
H754 H 0.70248 0.50193 0.27855 0.0
H755 H 0.74763 0.53288 0.33892 0.0
H756 H 0.08847 0.48838 0.43093 0.0
H757 H 0.13145 0.5035 0.50102 0.0
H758 H 0.09282 0.39557 0.57686 0.0
H759 H 1.049 0.37986 0.50449 0.0
La760 La 0.89077 0.63823 0.63261 0.0
La761 La 0.90469 0.72572 0.62943 0.0
C762 C 0.86701 0.56695 0.62841 0.0
C763 C 0.88741 0.53244 0.60714 0.0
C764 C 0.92827 0.53581 0.59433 0.0
C765 C 0.94495 0.50931 0.55984 0.0
C766 C 0.92041 0.48017 0.53777 0.0
C767 C 0.88187 0.47268 0.55715 0.0
C768 C 0.86511 0.4992 0.59154 0.0
C769 C 0.96287 0.65662 0.66745 0.0
C770 C 0.9202 0.67599 0.52729 0.0
C771 C 0.9253 0.79586 0.65732 0.0
C772 C 0.92463 0.81622 0.70759 0.0
C773 C 0.89122 0.81254 0.73961 0.0
C774 C 0.88823 0.83587 0.78338 0.0
C775 C 0.91866 0.86326 0.79727 0.0
C776 C 0.95364 0.86431 0.76743 0.0
C777 C 0.95649 0.84121 0.72309 0.0
C778 C 0.82634 0.70359 0.61478 0.0
C779 C 0.88454 0.68197 0.73057 0.0
O780 O 0.88517 0.58231 0.66729 0.0
O781 O 0.85622 0.5944 0.59571 0.0
O782 O 0.94374 0.62384 0.67633 0.0
O783 O 0.94452 0.67509 0.63222 0.0
O784 O 0.90355 0.64547 0.55176 0.0
O785 O 0.9258 0.71139 0.55067 0.0
O786 O 0.89059 0.78709 0.63721 0.0
O787 O 0.95062 0.76643 0.65121 0.0
O788 O 0.84482 0.73339 0.59326 0.0
O789 O 0.85201 0.68863 0.64399 0.0
O790 O 0.90424 0.71196 0.71021 0.0
O791 O 0.86508 0.65623 0.70234 0.0
H792 H 0.94591 0.56144 0.60648 0.0
H793 H 0.97453 0.51571 0.54475 0.0
H794 H 0.8625 0.45043 0.53986 0.0
H795 H 0.83368 0.49625 0.60145 0.0
H796 H 0.86632 0.79312 0.72957 0.0
H797 H 0.86054 0.8345 0.80473 0.0
H798 H 0.97761 0.88501 0.77559 0.0
H799 H 0.98289 0.8444 0.69964 0.0
La800 La 0.72117 0.46939 0.86615 0.0
La801 La 0.63353 0.45583 0.86928 0.0
C802 C 0.79245 0.49309 0.87111 0.0
C803 C 0.82655 0.47288 0.89361 0.0
C804 C 0.82314 0.43192 0.90577 0.0
C805 C 0.8484 0.41533 0.94172 0.0
C806 C 0.87642 0.43998 0.96571 0.0
C807 C 0.88408 0.47881 0.94746 0.0
C808 C 0.85881 0.49547 0.91159 0.0
C809 C 0.70253 0.39754 0.83115 0.0
C810 C 0.68295 0.44043 0.97181 0.0
C811 C 0.56351 0.43488 0.84109 0.0
C812 C 0.54329 0.43519 0.79073 0.0
C813 C 0.54708 0.46832 0.75835 0.0
C814 C 0.52388 0.47096 0.71442 0.0
C815 C 0.4965 0.44046 0.70074 0.0
C816 C 0.49535 0.40575 0.73098 0.0
C817 C 0.51833 0.40323 0.77546 0.0
C818 C 0.65595 0.53416 0.88311 0.0
C819 C 0.6776 0.47592 0.76793 0.0
O820 O 0.77752 0.47446 0.8323 0.0
O821 O 0.7646 0.50444 0.90303 0.0
O822 O 0.73545 0.41651 0.82233 0.0
O823 O 0.68408 0.41586 0.86647 0.0
O824 O 0.71369 0.45638 0.94693 0.0
O825 O 0.64738 0.43529 0.94859 0.0
O826 O 0.57209 0.46969 0.861 0.0
O827 O 0.59304 0.40972 0.84751 0.0
O828 O 0.62588 0.51605 0.90462 0.0
O829 O 0.67092 0.50816 0.8544 0.0
O830 O 0.64734 0.45656 0.78835 0.0
O831 O 0.70368 0.49493 0.79614 0.0
H832 H 0.79822 0.41408 0.89191 0.0
H833 H 0.84186 0.38554 0.95598 0.0
H834 H 0.90546 0.49825 0.9663 0.0
H835 H 0.86173 0.52702 0.9023 0.0
H836 H 0.56647 0.49328 0.76821 0.0
H837 H 0.52532 0.49848 0.69278 0.0
H838 H 0.47464 0.38175 0.72302 0.0
H839 H 0.51506 0.37704 0.7992 0.0
La840 La 0.88821 0.47434 1.12002 0.0
La841 La 0.90732 0.38768 1.11691 0.0
C842 C 0.86383 0.54489 0.12913 0.0
C843 C 0.88754 0.5781 0.14865 0.0
C844 C 0.9284 0.57151 0.15935 0.0
C845 C 0.94881 0.59722 0.19155 0.0
C846 C 0.92783 0.62857 0.21412 0.0
C847 C 0.88977 0.63954 0.1958 0.0
C848 C 0.86912 0.61368 0.16372 0.0
C849 C 0.96154 0.46129 1.08431 0.0
C850 C 0.91892 0.43417 0.22272 0.0
C851 C 0.9346 0.32084 1.08499 0.0
C852 C 0.92624 0.29402 1.04071 0.0
C853 C 0.89241 0.26895 1.04052 0.0
C854 C 0.88435 0.24375 0.99979 0.0
C855 C 0.90992 0.24185 0.95742 0.0
C856 C 0.94384 0.26713 0.95701 0.0
C857 C 0.95201 0.29277 0.99835 0.0
C858 C 0.82713 0.40377 0.13146 0.0
C859 C 0.88252 0.4341 1.01882 0.0
O860 O 0.87778 0.53036 1.08727 0.0
O861 O 0.85556 0.51663 0.16191 0.0
O862 O 0.94051 0.49314 1.07816 0.0
O863 O 0.94401 0.44066 1.11842 0.0
O864 O 0.89886 0.4635 0.20038 0.0
O865 O 0.929 0.40119 0.1963 0.0
O866 O 0.9071 0.32415 1.11992 0.0
O867 O 0.95062 0.35565 1.0753 0.0
O868 O 0.84655 0.37255 0.14752 0.0
O869 O 0.85245 0.4223 1.10517 0.0
O870 O 0.90353 0.40398 1.03686 0.0
O871 O 0.86292 0.45825 1.04904 0.0
H872 H 0.94316 0.54414 0.14781 0.0
H873 H 0.9781 0.58835 0.20548 0.0
H874 H 0.87335 0.664 0.2131 0.0
H875 H 0.83781 0.61933 0.15524 0.0
H876 H 0.87179 0.26872 1.07196 0.0
H877 H 0.8575 0.22542 1.00196 0.0
H878 H 0.96364 0.26752 0.92483 0.0
H879 H 0.97847 0.31177 0.99709 0.0
La880 La 0.88914 0.63965 0.36543 0.0
La881 La 0.97665 0.65376 0.36875 0.0
C882 C 0.81791 0.61568 0.37 0.0
C883 C 0.78336 0.63563 0.39186 0.0
C884 C 0.786 0.67669 0.40381 0.0
C885 C 0.75977 0.69315 0.43883 0.0
C886 C 0.73154 0.66826 0.46202 0.0
C887 C 0.72467 0.62934 0.44364 0.0
C888 C 0.75107 0.61275 0.40909 0.0
C889 C 0.90755 0.7115 0.33014 0.0
C890 C 0.92681 0.6694 0.47076 0.0
C891 C 1.04674 0.67465 0.3409 0.0
C892 C 0.06721 0.67399 0.29073 0.0
C893 C 0.06375 0.64055 0.25872 0.0
C894 C 0.0872 0.63761 0.21506 0.0
C895 C 0.11449 0.66812 0.20126 0.0
C896 C 0.11536 0.7031 0.23111 0.0
C897 C 0.09214 0.70591 0.27534 0.0
C898 C 0.9547 0.57557 0.38392 0.0
C899 C 0.93299 0.63264 0.26763 0.0
O900 O 0.83294 0.63418 0.33121 0.0
O901 O 0.84562 0.6048 0.40234 0.0
O902 O 0.87486 0.69223 0.32102 0.0
O903 O 0.92591 0.69345 0.36571 0.0
O904 O 0.89626 0.65278 0.44622 0.0
O905 O 0.96225 0.67497 0.44746 0.0
O906 O 1.03814 0.63997 0.36106 0.0
O907 O 1.01714 0.6998 0.34684 0.0
O908 O 0.98454 0.59415 0.40535 0.0
O909 O 0.93966 0.601 0.35451 0.0
O910 O 0.96286 0.65271 0.28786 0.0
O911 O 0.90724 0.61341 0.29602 0.0
H912 H 0.81095 0.69477 0.39057 0.0
H913 H 0.76571 0.72305 0.45319 0.0
H914 H 0.70317 0.6097 0.46187 0.0
H915 H 0.7489 0.58109 0.40053 0.0
H916 H 1.0444 0.6156 0.26868 0.0
H917 H 0.086 0.60991 0.19371 0.0
H918 H 0.13603 0.72711 0.22305 0.0
H919 H 0.09518 0.73232 0.29881 0.0
La920 La 0.72 0.63412 0.61709 0.0
La921 La 0.7017 0.72139 0.61306 0.0
C922 C 0.74447 0.56368 0.6268 0.0
C923 C 0.72125 0.53068 0.64767 0.0
C924 C 0.68062 0.5373 0.65956 0.0
C925 C 0.66084 0.51168 0.69243 0.0
C926 C 0.68223 0.48035 0.7144 0.0
C927 C 0.72008 0.4695 0.69531 0.0
C928 C 0.74004 0.49522 0.66247 0.0
C929 C 0.64651 0.64764 0.58253 0.0
C930 C 0.69003 0.6754 0.71946 0.0
C931 C 0.67524 0.78844 0.58065 0.0
C932 C 0.68405 0.81551 0.53668 0.0
C933 C 0.71774 0.84079 0.53734 0.0
C934 C 0.72585 0.86668 0.49728 0.0
C935 C 0.7005 0.86909 0.45472 0.0
C936 C 0.66684 0.84344 0.45332 0.0
C937 C 0.6586 0.81714 0.49398 0.0
C938 C 0.78171 0.70418 0.62654 0.0
C939 C 0.72488 0.67379 0.51509 0.0
O940 O 0.7296 0.57764 0.58512 0.0
O941 O 0.75343 0.59237 0.6588 0.0
O942 O 0.66666 0.61506 0.57747 0.0
O943 O 0.66487 0.66862 0.61563 0.0
O944 O 0.70975 0.64574 0.69729 0.0
O945 O 0.68025 0.7084 0.69282 0.0
O946 O 0.70237 0.78495 0.61605 0.0
O947 O 0.65912 0.75372 0.57058 0.0
O948 O 0.76297 0.73582 0.64263 0.0
O949 O 0.75584 0.68584 0.60091 0.0
O950 O 0.70485 0.70457 0.53315 0.0
O951 O 0.7441 0.64922 0.54518 0.0
H952 H 0.6656 0.56458 0.64824 0.0
H953 H 0.63177 0.52052 0.70707 0.0
H954 H 0.73685 0.44514 0.71227 0.0
H955 H 0.77116 0.48956 0.65302 0.0
H956 H 0.73813 0.84077 0.56903 0.0
H957 H 0.7525 0.88524 0.50022 0.0
H958 H 0.64721 0.84336 0.42095 0.0
H959 H 0.63226 0.79802 0.49201 0.0
La960 La 0.47186 0.45132 0.36415 0.0
La961 La 0.38498 0.47144 0.36796 0.0
C962 C 0.53878 0.42453 0.33163 0.0
C963 C 0.5657 0.43377 0.28768 0.0
C964 C 0.58937 0.46862 0.28728 0.0
C965 C 0.61488 0.47713 0.2469 0.0
C966 C 0.61844 0.45105 0.20519 0.0
C967 C 0.59415 0.41642 0.20472 0.0
C968 C 0.5683 0.40776 0.24565 0.0
C969 C 0.45646 0.53166 0.37789 0.0
C970 C 0.42472 0.47444 0.26657 0.0
C971 C 0.31532 0.49877 0.37572 0.0
C972 C 0.28037 0.47846 0.3963 0.0
C973 C 0.28247 0.43695 0.40566 0.0
C974 C 0.25602 0.41925 0.43943 0.0
C975 C 0.22828 0.4434 0.46441 0.0
C976 C 0.22166 0.483 0.44823 0.0
C977 C 0.24818 0.50081 0.41458 0.0
C978 C 0.39723 0.39755 0.33346 0.0
C979 C 0.42472 0.43923 0.46982 0.0
O980 O 0.5355 0.45113 0.36764 0.0
O981 O 0.50391 0.40892 0.32117 0.0
O982 O 0.48769 0.51219 0.39378 0.0
O983 O 0.43746 0.5063 0.35211 0.0
O984 O 0.45447 0.45296 0.28446 0.0
O985 O 0.40185 0.49552 0.29675 0.0
O986 O 0.32911 0.48219 0.33495 0.0
O987 O 0.34388 0.50669 0.40834 0.0
O988 O 0.36515 0.41847 0.32772 0.0
O989 O 0.41827 0.41561 0.36674 0.0
O990 O 0.3957 0.46024 0.44817 0.0
O991 O 0.4576 0.429 0.4431 0.0
H992 H 0.58837 0.48959 0.31834 0.0
H993 H 0.63227 0.5046 0.24893 0.0
H994 H 0.59483 0.39629 0.17287 0.0
H995 H 0.55027 0.38065 0.24442 0.0
H996 H 0.30721 0.4192 0.39158 0.0
H997 H 0.26173 0.38882 0.45193 0.0
H998 H 0.20042 0.50205 0.46773 0.0
H999 H 0.24616 0.53275 0.4074 0.0
La1000 La 0.40969 0.72074 1.11272 0.0
La1001 La 0.38949 0.63363 1.11575 0.0
C1002 C 0.437 0.7876 1.08086 0.0
C1003 C 0.42783 0.81427 1.03677 0.0
C1004 C 0.39308 0.83792 1.03644 0.0
C1005 C 0.38431 0.86293 0.9958 0.0
C1006 C 0.41005 0.86607 0.95372 0.0
C1007 C 0.44468 0.84192 0.95325 0.0
C1008 C 0.45359 0.81651 0.99447 0.0
C1009 C 0.32947 0.70467 0.12541 0.0
C1010 C 0.38672 0.67405 1.01394 0.0
C1011 C 0.36162 0.56412 1.1237 0.0
C1012 C 0.38158 0.52916 0.14455 0.0
C1013 C 0.42341 0.53044 0.15222 0.0
C1014 C 0.44118 0.50468 0.18663 0.0
C1015 C 0.41685 0.47827 0.21358 0.0
C1016 C 0.37673 0.47206 0.19909 0.0
C1017 C 0.35879 0.49817 0.16526 0.0
C1018 C 0.46361 0.64632 1.08256 0.0
C1019 C 0.42037 0.67394 0.21859 0.0
O1020 O 0.4101 0.78424 1.11654 0.0
O1021 O 0.4528 0.75282 1.07068 0.0
O1022 O 0.34868 0.73595 0.14192 0.0
O1023 O 0.35497 0.68603 1.09968 0.0
O1024 O 0.40712 0.70443 1.03262 0.0
O1025 O 0.36673 0.6496 1.04345 0.0
O1026 O 0.37838 0.57774 1.08294 0.0
O1027 O 0.35383 0.59278 0.15614 0.0
O1028 O 0.44307 0.61389 1.07704 0.0
O1029 O 0.44515 0.66727 1.11543 0.0
O1030 O 0.40005 0.64464 0.19615 0.0
O1031 O 0.43087 0.70691 0.19227 0.0
H1032 H 0.37231 0.83721 1.06771 0.0
H1033 H 0.35685 0.88022 0.99788 0.0
H1034 H 0.46455 0.84228 0.92114 0.0
H1035 H 0.48062 0.79848 0.99321 0.0
H1036 H 0.44154 0.55424 0.13638 0.0
H1037 H 0.47206 0.51001 0.19786 0.0
H1038 H 0.35756 0.45189 0.22022 0.0
H1039 H 0.32658 0.49698 0.1601 0.0
La1040 La 0.13461 0.65363 0.86874 0.0
La1041 La 0.22215 0.63982 0.8655 0.0
C1042 C 0.06452 0.67424 0.84086 0.0
C1043 C 1.04432 0.67404 0.79049 0.0
C1044 C 1.04807 0.641 0.75789 0.0
C1045 C 1.02473 0.63829 0.71408 0.0
C1046 C 0.99726 0.66864 0.70072 0.0
C1047 C 0.99619 0.70332 0.73109 0.0
C1048 C 1.01928 0.70589 0.77549 0.0
C1049 C 0.15628 0.57541 0.8834 0.0
C1050 C 0.1783 0.63349 0.76763 0.0
C1051 C 0.29339 0.61612 0.86946 0.0
C1052 C 0.32809 0.63634 0.89082 0.0
C1053 C 0.32514 0.67724 0.90345 0.0
C1054 C 0.35161 0.69378 0.93822 0.0
C1055 C 0.38028 0.66908 0.96069 0.0
C1056 C 0.38741 0.63044 0.94155 0.0
C1057 C 0.36093 0.61383 0.9069 0.0
C1058 C 0.2038 0.7118 0.83053 0.0
C1059 C 0.18446 0.66918 0.97089 0.0
O1060 O 0.07323 0.63937 0.86031 0.0
O1061 O 0.09394 0.69961 0.84768 0.0
O1062 O 0.12651 0.5939 0.90486 0.0
O1063 O 0.1716 0.60095 0.85423 0.0
O1064 O 0.14844 0.65329 0.78798 0.0
O1065 O 0.20388 0.61398 0.79587 0.0
O1066 O 0.27809 0.63441 0.83074 0.0
O1067 O 0.2659 0.60525 0.90214 0.0
O1068 O 0.23656 0.69275 0.82158 0.0
O1069 O 0.18546 0.69342 0.86589 0.0
O1070 O 0.21499 0.65268 0.94635 0.0
O1071 O 0.14902 0.67465 0.94757 0.0
H1072 H 0.06752 0.61613 0.76753 0.0
H1073 H 1.02612 0.61082 0.6923 0.0
H1074 H 0.97545 0.72724 0.72329 0.0
H1075 H 1.01604 0.73201 0.79939 0.0
H1076 H 0.29982 0.69503 0.89097 0.0
H1077 H 0.34549 0.72344 0.95313 0.0
H1078 H 0.40928 0.61095 0.95916 0.0
H1079 H 0.36351 0.58235 0.89719 0.0
La1080 La 0.2008 0.38823 0.6151 0.0
La1081 La 0.21995 0.47506 0.61959 0.0
C1082 C 0.17415 0.32116 0.5828 0.0
C1083 C 0.18355 0.29419 0.53907 0.0
C1084 C 0.21752 0.26944 0.54004 0.0
C1085 C 0.22641 0.24409 0.49972 0.0
C1086 C 0.20154 0.24176 0.45674 0.0
C1087 C 0.16764 0.26686 0.45509 0.0
C1088 C 0.15862 0.2926 0.49595 0.0
C1089 C 0.28114 0.40453 0.62761 0.0
C1090 C 0.22313 0.4364 0.51747 0.0
C1091 C 0.24522 0.54545 0.62845 0.0
C1092 C 0.22233 0.57901 0.64818 0.0
C1093 C 0.18132 0.57323 0.65877 0.0
C1094 C 0.16156 0.59915 0.69115 0.0
C1095 C 0.18339 0.62981 0.7141 0.0
C1096 C 0.22174 0.64012 0.69601 0.0
C1097 C 0.24168 0.6141 0.66361 0.0
C1098 C 0.14594 0.46195 0.58569 0.0
C1099 C 0.18992 0.43388 0.72183 0.0
O1100 O 0.20076 0.32471 0.6188 0.0
O1101 O 0.15848 0.35587 0.57216 0.0
O1102 O 0.26203 0.37309 0.6437 0.0
O1103 O 0.25541 0.42337 0.60247 0.0
O1104 O 0.20255 0.40583 0.53532 0.0
O1105 O 0.24371 0.45977 0.54772 0.0
O1106 O 0.23057 0.53106 0.58684 0.0
O1107 O 0.25335 0.51714 0.66118 0.0
O1108 O 0.16655 0.49427 0.58018 0.0
O1109 O 0.16435 0.44104 0.61865 0.0
O1110 O 0.21027 0.46327 0.69984 0.0
O1111 O 0.17947 0.40117 0.69492 0.0
H1112 H 0.23756 0.26955 0.57208 0.0
H1113 H 0.25325 0.22594 0.50271 0.0
H1114 H 0.14846 0.26701 0.4223 0.0
H1115 H 0.13214 0.31139 0.49375 0.0
H1116 H 0.16584 0.54627 0.64703 0.0
H1117 H 0.13203 0.59082 0.70494 0.0
H1118 H 0.23879 0.66408 0.71363 0.0
H1119 H 0.27313 0.61914 0.65515 0.0
La1120 La 0.47211 0.65668 0.38169 0.0
La1121 La 0.38545 0.63712 0.37816 0.0
C1122 C 0.53886 0.68435 0.41397 0.0
C1123 C 0.56577 0.67591 0.45808 0.0
C1124 C 0.59074 0.64213 0.45803 0.0
C1125 C 0.616 0.63401 0.49866 0.0
C1126 C 0.61804 0.65947 0.54114 0.0
C1127 C 0.59286 0.69334 0.54179 0.0
C1128 C 0.56717 0.70156 0.50057 0.0
C1129 C 0.4564 0.57646 0.36702 0.0
C1130 C 0.42542 0.63152 0.47946 0.0
C1131 C 0.31482 0.61252 0.36876 0.0
C1132 C 0.28164 0.63617 0.34935 0.0
C1133 C 0.28824 0.67709 0.33919 0.0
C1134 C 0.26265 0.69757 0.30705 0.0
C1135 C 0.23142 0.67659 0.28399 0.0
C1136 C 0.22037 0.63838 0.30179 0.0
C1137 C 0.24611 0.61767 0.33381 0.0
C1138 C 0.39847 0.71037 0.41435 0.0
C1139 C 0.42584 0.6683 0.27575 0.0
O1140 O 0.5357 0.65716 0.37861 0.0
O1141 O 0.50393 0.69987 0.42398 0.0
O1142 O 0.48769 0.5961 0.35129 0.0
O1143 O 0.43746 0.60156 0.3931 0.0
O1144 O 0.45554 0.65276 0.46165 0.0
O1145 O 0.40143 0.61177 0.44905 0.0
O1146 O 0.32932 0.62636 0.41073 0.0
O1147 O 0.34314 0.60447 0.33597 0.0
O1148 O 0.36661 0.68916 0.42043 0.0
O1149 O 0.41904 0.69304 0.38008 0.0
O1150 O 0.39646 0.64804 0.29792 0.0
O1151 O 0.4588 0.67844 0.30232 0.0
H1152 H 0.59085 0.6216 0.42649 0.0
H1153 H 0.63427 0.60722 0.49631 0.0
H1154 H 0.59258 0.71305 0.57407 0.0
H1155 H 0.54825 0.72797 0.502 0.0
H1156 H 0.31556 0.69192 0.35107 0.0
H1157 H 0.27158 0.72697 0.29354 0.0
H1158 H 0.19599 0.62196 0.28413 0.0
H1159 H 0.24045 0.58629 0.34188 0.0
La1160 La 0.20657 0.72565 0.12962 0.0
La1161 La 0.22084 0.63818 0.13265 0.0
C1162 C 0.18566 0.79561 0.15756 0.0
C1163 C 0.18568 0.81592 0.20787 0.0
C1164 C 0.21852 0.8121 0.24077 0.0
C1165 C 0.22117 0.83562 0.28444 0.0
C1166 C 0.19091 0.86334 0.29734 0.0
C1167 C 0.1564 0.86455 0.26662 0.0
C1168 C 0.15392 0.84126 0.22239 0.0
C1169 C 0.28477 0.70426 1.11432 0.0
C1170 C 0.22766 0.68205 0.23051 0.0
C1171 C 0.24501 0.56718 0.1282 0.0
C1172 C 0.22505 0.53245 1.10661 0.0
C1173 C 0.18383 0.53469 1.09525 0.0
C1174 C 0.16724 0.5085 1.06019 0.0
C1175 C 0.19215 0.48069 1.03641 0.0
C1176 C 0.23126 0.4741 1.05428 0.0
C1177 C 0.24799 0.5005 1.08882 0.0
C1178 C 0.14887 0.65623 0.16803 0.0
C1179 C 0.19108 0.67579 1.02743 0.0
O1180 O 0.22064 0.787 0.13825 0.0
O1181 O 0.16039 0.76611 0.15071 0.0
O1182 O 0.26618 0.73403 1.09307 0.0
O1183 O 0.25941 0.68887 0.14364 0.0
O1184 O 0.20735 0.71167 0.21041 0.0
O1185 O 0.24713 0.65661 0.20199 0.0
O1186 O 0.22664 0.5822 0.16707 0.0
O1187 O 0.25568 0.59483 1.09567 0.0
O1188 O 0.16811 0.62358 0.17694 0.0
O1189 O 0.16705 0.67461 0.13257 0.0
O1190 O 0.20772 0.64532 1.05188 0.0
O1191 O 0.18549 0.71117 1.05082 0.0
H1192 H 0.24334 0.79245 0.23146 0.0
H1193 H 0.24852 0.83417 0.30646 0.0
H1194 H 0.13261 0.88555 0.27402 0.0
H1195 H 0.12796 0.84462 0.1982 0.0
H1196 H 0.16571 0.55937 1.10891 0.0
H1197 H 0.13718 0.51419 1.04624 0.0
H1198 H 0.2509 0.45292 1.0356 0.0
H1199 H 0.27978 0.49867 1.09686 0.0
La1200 La 0.13873 0.45074 0.88552 0.0
La1201 La 0.22601 0.46945 0.8814 0.0
C1202 C 0.07165 0.42405 0.91803 0.0
C1203 C 1.04459 0.43296 0.96196 0.0
C1204 C 1.01955 0.46671 0.96131 0.0
C1205 C 0.99372 0.47494 1.0014 0.0
C1206 C 0.99115 0.44966 1.04396 0.0
C1207 C 1.01658 0.41598 1.04536 0.0
C1208 C 1.04281 0.40761 1.00467 0.0
C1209 C 0.15568 0.53075 0.87194 0.0
C1210 C 0.18631 0.4743 0.98334 0.0
C1211 C 0.29655 0.49417 0.87176 0.0
C1212 C 0.32967 0.47112 0.85106 0.0
C1213 C 0.32329 0.43032 0.83979 0.0
C1214 C 0.34878 0.4106 0.80677 0.0
C1215 C 0.37974 0.43218 0.78404 0.0
C1216 C 0.39049 0.47026 0.8026 0.0
C1217 C 0.36488 0.49018 0.83554 0.0
C1218 C 0.21244 0.39607 0.91635 0.0
C1219 C 0.18469 0.43907 0.77912 0.0
O1220 O 0.07513 0.45098 0.88245 0.0
O1221 O 0.10641 0.4082 0.92822 0.0
O1222 O 0.12404 0.51177 0.85602 0.0
O1223 O 0.17431 0.50515 0.89752 0.0
O1224 O 0.1556 0.45397 0.96538 0.0
O1225 O 0.21074 0.49373 0.95317 0.0
O1226 O 0.2825 0.47938 0.91344 0.0
O1227 O 0.2679 0.50285 0.83964 0.0
O1228 O 0.24501 0.41641 0.92144 0.0
O1229 O 0.19158 0.41419 0.88305 0.0
O1230 O 0.21439 0.45894 0.80125 0.0
O1231 O 0.15168 0.42919 0.80579 0.0
H1232 H 1.01971 0.48704 0.92961 0.0
H1233 H 0.97534 0.50162 0.99849 0.0
H1234 H 1.01654 0.39641 1.07774 0.0
H1235 H 0.06175 0.38124 1.00663 0.0
H1236 H 0.29622 0.41507 0.85167 0.0
H1237 H 0.34003 0.38132 0.7926 0.0
H1238 H 0.4146 0.48718 0.78511 0.0
H1239 H 0.37037 0.52145 0.84446 0.0
La1240 La 0.40405 0.38297 0.62933 0.0
La1241 La 0.39023 0.47057 0.63229 0.0
C1242 C 0.42513 0.31315 0.65761 0.0
C1243 C 0.42515 0.29304 0.70802 0.0
C1244 C 0.3923 0.29694 0.74088 0.0
C1245 C 0.38974 0.27366 0.78471 0.0
C1246 C 0.42007 0.24606 0.79782 0.0
C1247 C 0.45458 0.24481 0.76716 0.0
C1248 C 0.45699 0.26787 0.72276 0.0
C1249 C 0.3257 0.40467 0.61544 0.0
C1250 C 0.38383 0.42714 0.73052 0.0
C1251 C 0.36627 0.54159 0.62738 0.0
C1252 C 0.38634 0.57584 0.60487 0.0
C1253 C 0.42744 0.57292 0.59309 0.0
C1254 C 0.44401 0.5981 0.557 0.0
C1255 C 0.4192 0.62557 0.53254 0.0
C1256 C 0.38015 0.63279 0.55032 0.0
C1257 C 0.36351 0.60759 0.58632 0.0
C1258 C 0.46222 0.45237 0.66732 0.0
C1259 C 0.4192 0.43235 0.52666 0.0
O1260 O 0.39014 0.32159 0.63816 0.0
O1261 O 0.45031 0.34269 0.65071 0.0
O1262 O 0.34386 0.37464 0.59411 0.0
O1263 O 0.35158 0.4201 0.64406 0.0
O1264 O 0.40343 0.39707 0.7102 0.0
O1265 O 0.36461 0.45288 0.70222 0.0
O1266 O 0.38499 0.52686 0.66617 0.0
O1267 O 0.35501 0.51366 0.59546 0.0
O1268 O 0.44322 0.48519 0.67607 0.0
O1269 O 0.4438 0.43387 0.63205 0.0
O1270 O 0.40322 0.46302 0.55152 0.0
O1271 O 0.42445 0.39687 0.54993 0.0
H1272 H 0.36743 0.31647 0.73143 0.0
H1273 H 0.36238 0.27517 0.80669 0.0
H1274 H 0.47845 0.22395 0.77475 0.0
H1275 H 0.48296 0.26448 0.69865 0.0
H1276 H 0.44545 0.54838 0.60736 0.0
H1277 H 0.47397 0.5919 0.54307 0.0
H1278 H 0.3606 0.65372 0.53109 0.0
H1279 H 0.33185 0.61009 0.59525 0.0
loop_
_geom_bond_atom_site_label_1
_geom_bond_atom_site_label_2
_geom_bond_distance
_geom_bond_site_symmetry_2
_ccdc_geom_bond_type
La0 C2 2.928 . S
La0 O20 2.521 . S
La0 O21 2.628 . S
La0 O22 2.554 . S
La0 O23 2.757 . S
La0 O24 2.470 . S
La0 O29 2.482 . S
La0 O31 2.503 . S
La1 C11 2.928 . S
La1 O23 2.482 . S
La1 O25 2.503 . S
La1 O26 2.521 . S
La1 O27 2.628 . S
La1 O28 2.554 . S
La1 O29 2.757 . S
La1 O30 2.470 . S
C2 La0 2.928 . S
C2 C3 1.503 . S
C2 O20 1.261 . S
C2 O21 1.243 . S
C3 C2 1.503 . S
C3 C4 1.394 . S
C3 C8 1.373 . S
C4 C3 1.394 . S
C4 C5 1.380 . S
C4 H32 0.930 . S
C5 C4 1.380 . S
C5 C6 1.376 . S
C5 H33 0.930 . S
C6 C5 1.376 . S
C6 C7 1.370 . S
C7 C6 1.370 . S
C7 C8 1.396 . S
C7 H34 0.929 . S
C8 C3 1.373 . S
C8 C7 1.396 . S
C8 H35 0.929 . S
C9 O22 1.240 . S
C9 O23 1.289 . S
C10 O24 1.258 . S
C10 O25 1.256 . S
C11 La1 2.928 . S
C11 C12 1.503 1_455 S
C11 O26 1.261 . S
C11 O27 1.243 . S
C12 C11 1.503 1_655 S
C12 C13 1.394 . S
C12 C17 1.373 . S
C13 C12 1.394 . S
C13 C14 1.380 . S
C13 H36 0.930 . S
C14 C13 1.380 . S
C14 C15 1.376 . S
C14 H37 0.930 . S
C15 C14 1.376 . S
C15 C16 1.370 . S
C16 C15 1.370 . S
C16 C17 1.396 . S
C16 H38 0.929 . S
C17 C12 1.373 . S
C17 C16 1.396 . S
C17 H39 0.929 1_655 S
C18 O28 1.240 . S
C18 O29 1.289 . S
C19 O30 1.258 . S
C19 O31 1.256 . S
O20 La0 2.521 . S
O20 C2 1.261 . S
O21 La0 2.628 . S
O21 C2 1.243 . S
O22 La0 2.554 . S
O22 C9 1.240 . S
O23 La0 2.757 . S
O23 La1 2.482 . S
O23 C9 1.289 . S
O24 La0 2.470 . S
O24 C10 1.258 . S
O25 La1 2.503 . S
O25 C10 1.256 . S
O26 La1 2.521 . S
O26 C11 1.261 . S
O27 La1 2.628 . S
O27 C11 1.243 . S
O28 La1 2.554 . S
O28 C18 1.240 . S
O29 La0 2.482 . S
O29 La1 2.757 . S
O29 C18 1.289 . S
O30 La1 2.470 . S
O30 C19 1.258 . S
O31 La0 2.503 . S
O31 C19 1.256 . S
H32 C4 0.930 . S
H33 C5 0.930 . S
H34 C7 0.929 . S
H35 C8 0.929 . S
H36 C13 0.930 . S
H37 C14 0.930 . S
H38 C16 0.929 . S
H39 C17 0.929 1_455 S
La40 C42 2.928 . S
La40 O60 2.521 . S
La40 O61 2.628 . S
La40 O62 2.554 . S
La40 O63 2.757 . S
La40 O64 2.470 . S
La40 O69 2.482 . S
La40 O71 2.503 . S
La41 C51 2.928 . S
La41 O63 2.482 . S
La41 O65 2.503 . S
La41 O66 2.521 . S
La41 O67 2.628 . S
La41 O68 2.554 . S
La41 O69 2.757 . S
La41 O70 2.470 . S
C42 La40 2.928 . S
C42 C43 1.503 1_565 S
C42 O60 1.261 . S
C42 O61 1.243 . S
C43 C42 1.503 1_545 S
C43 C44 1.394 . S
C43 C48 1.373 . S
C44 C43 1.394 . S
C44 C45 1.380 . S
C44 H72 0.930 . S
C45 C44 1.380 . S
C45 C46 1.376 . S
C45 H73 0.930 . S
C46 C45 1.376 . S
C46 C47 1.370 . S
C47 C46 1.370 . S
C47 C48 1.396 . S
C47 H74 0.929 . S
C48 C43 1.373 . S
C48 C47 1.396 . S
C48 H75 0.929 1_545 S
C49 O62 1.240 . S
C49 O63 1.289 . S
C50 O64 1.258 . S
C50 O65 1.256 . S
C51 La41 2.928 . S
C51 C52 1.503 . S
C51 O66 1.261 . S
C51 O67 1.243 . S
C52 C51 1.503 . S
C52 C53 1.394 . S
C52 C57 1.373 . S
C53 C52 1.394 . S
C53 C54 1.380 . S
C53 H76 0.930 . S
C54 C53 1.380 . S
C54 C55 1.376 . S
C54 H77 0.930 . S
C55 C54 1.376 . S
C55 C56 1.370 . S
C56 C55 1.370 . S
C56 C57 1.396 . S
C56 H78 0.929 . S
C57 C52 1.373 . S
C57 C56 1.396 . S
C57 H79 0.929 . S
C58 O68 1.240 . S
C58 O69 1.289 . S
C59 O70 1.258 . S
C59 O71 1.256 . S
O60 La40 2.521 . S
O60 C42 1.261 . S
O61 La40 2.628 . S
O61 C42 1.243 . S
O62 La40 2.554 . S
O62 C49 1.240 . S
O63 La40 2.757 . S
O63 La41 2.482 . S
O63 C49 1.289 . S
O64 La40 2.470 . S
O64 C50 1.258 . S
O65 La41 2.503 . S
O65 C50 1.256 . S
O66 La41 2.521 . S
O66 C51 1.261 . S
O67 La41 2.628 . S
O67 C51 1.243 . S
O68 La41 2.554 . S
O68 C58 1.240 . S
O69 La40 2.482 . S
O69 La41 2.757 . S
O69 C58 1.289 . S
O70 La41 2.470 . S
O70 C59 1.258 . S
O71 La40 2.503 . S
O71 C59 1.256 . S
H72 C44 0.930 . S
H73 C45 0.930 . S
H74 C47 0.929 . S
H75 C48 0.929 1_565 S
H76 C53 0.930 . S
H77 C54 0.930 . S
H78 C56 0.929 . S
H79 C57 0.929 . S
La80 C82 2.928 . S
La80 O100 2.521 . S
La80 O101 2.628 . S
La80 O102 2.554 . S
La80 O103 2.757 . S
La80 O104 2.470 . S
La80 O109 2.482 . S
La80 O111 2.503 . S
La81 C91 2.928 . S
La81 O103 2.482 . S
La81 O105 2.503 . S
La81 O106 2.521 . S
La81 O107 2.628 . S
La81 O108 2.554 . S
La81 O109 2.757 . S
La81 O110 2.470 . S
C82 La80 2.928 . S
C82 C83 1.503 . S
C82 O100 1.261 . S
C82 O101 1.243 . S
C83 C82 1.503 . S
C83 C84 1.394 . S
C83 C88 1.373 . S
C84 C83 1.394 . S
C84 C85 1.380 . S
C84 H112 0.930 . S
C85 C84 1.380 . S
C85 C86 1.376 . S
C85 H113 0.930 . S
C86 C85 1.376 . S
C86 C87 1.370 . S
C87 C86 1.370 . S
C87 C88 1.396 . S
C87 H114 0.929 . S
C88 C83 1.373 . S
C88 C87 1.396 . S
C88 H115 0.929 . S
C89 O102 1.240 . S
C89 O103 1.289 . S
C90 O104 1.258 . S
C90 O105 1.256 . S
C91 La81 2.928 . S
C91 C92 1.503 . S
C91 O106 1.261 . S
C91 O107 1.243 . S
C92 C91 1.503 . S
C92 C93 1.394 . S
C92 C97 1.373 . S
C93 C92 1.394 . S
C93 C94 1.380 . S
C93 H116 0.930 . S
C94 C93 1.380 . S
C94 C95 1.376 . S
C94 H117 0.930 . S
C95 C94 1.376 . S
C95 C96 1.370 . S
C96 C95 1.370 . S
C96 C97 1.396 . S
C96 H118 0.929 . S
C97 C92 1.373 . S
C97 C96 1.396 . S
C97 H119 0.929 . S
C98 O108 1.240 . S
C98 O109 1.289 . S
C99 O110 1.258 . S
C99 O111 1.256 . S
O100 La80 2.521 . S
O100 C82 1.261 . S
O101 La80 2.628 . S
O101 C82 1.243 . S
O102 La80 2.554 . S
O102 C89 1.240 . S
O103 La80 2.757 . S
O103 La81 2.482 . S
O103 C89 1.289 . S
O104 La80 2.470 . S
O104 C90 1.258 . S
O105 La81 2.503 . S
O105 C90 1.256 . S
O106 La81 2.521 . S
O106 C91 1.261 . S
O107 La81 2.628 . S
O107 C91 1.243 . S
O108 La81 2.554 . S
O108 C98 1.240 . S
O109 La80 2.482 . S
O109 La81 2.757 . S
O109 C98 1.289 . S
O110 La81 2.470 . S
O110 C99 1.258 . S
O111 La80 2.503 . S
O111 C99 1.256 . S
H112 C84 0.930 . S
H113 C85 0.930 . S
H114 C87 0.929 . S
H115 C88 0.929 . S
H116 C93 0.930 . S
H117 C94 0.930 . S
H118 C96 0.929 . S
H119 C97 0.929 . S
La120 C122 2.928 1_554 S
La120 O140 2.521 1_554 S
La120 O141 2.628 1_554 S
La120 O142 2.554 . S
La120 O143 2.757 . S
La120 O144 2.470 1_554 S
La120 O149 2.482 1_554 S
La120 O151 2.503 . S
La121 C131 2.928 . S
La121 O143 2.482 . S
La121 O145 2.503 1_554 S
La121 O146 2.521 . S
La121 O147 2.628 . S
La121 O148 2.554 1_554 S
La121 O149 2.757 1_554 S
La121 O150 2.470 . S
C122 La120 2.928 1_556 S
C122 C123 1.503 1_545 S
C122 O140 1.261 . S
C122 O141 1.243 . S
C123 C122 1.503 1_565 S
C123 C124 1.394 . S
C123 C128 1.373 . S
C124 C123 1.394 . S
C124 C125 1.380 . S
C124 H152 0.930 . S
C125 C124 1.380 . S
C125 C126 1.376 . S
C125 H153 0.930 . S
C126 C125 1.376 . S
C126 C127 1.370 . S
C127 C126 1.370 . S
C127 C128 1.396 . S
C127 H154 0.929 . S
C128 C123 1.373 . S
C128 C127 1.396 . S
C128 H155 0.929 1_565 S
C129 O142 1.240 . S
C129 O143 1.289 . S
C130 O144 1.258 . S
C130 O145 1.256 . S
C131 La121 2.928 . S
C131 C132 1.503 . S
C131 O146 1.261 . S
C131 O147 1.243 . S
C132 C131 1.503 . S
C132 C133 1.394 . S
C132 C137 1.373 . S
C133 C132 1.394 . S
C133 C134 1.380 . S
C133 H156 0.930 . S
C134 C133 1.380 . S
C134 C135 1.376 . S
C134 H157 0.930 . S
C135 C134 1.376 . S
C135 C136 1.370 . S
C136 C135 1.370 . S
C136 C137 1.396 . S
C136 H158 0.929 . S
C137 C132 1.373 . S
C137 C136 1.396 . S
C137 H159 0.929 . S
C138 O148 1.240 . S
C138 O149 1.289 . S
C139 O150 1.258 . S
C139 O151 1.256 . S
O140 La120 2.521 1_556 S
O140 C122 1.261 . S
O141 La120 2.628 1_556 S
O141 C122 1.243 . S
O142 La120 2.554 . S
O142 C129 1.240 . S
O143 La120 2.757 . S
O143 La121 2.482 . S
O143 C129 1.289 . S
O144 La120 2.470 1_556 S
O144 C130 1.258 . S
O145 La121 2.503 1_556 S
O145 C130 1.256 . S
O146 La121 2.521 . S
O146 C131 1.261 . S
O147 La121 2.628 . S
O147 C131 1.243 . S
O148 La121 2.554 1_556 S
O148 C138 1.240 . S
O149 La120 2.482 1_556 S
O149 La121 2.757 1_556 S
O149 C138 1.289 . S
O150 La121 2.470 . S
O150 C139 1.258 . S
O151 La120 2.503 . S
O151 C139 1.256 . S
H152 C124 0.930 . S
H153 C125 0.930 . S
H154 C127 0.929 . S
H155 C128 0.929 1_545 S
H156 C133 0.930 . S
H157 C134 0.930 . S
H158 C136 0.929 . S
H159 C137 0.929 . S
La160 C162 2.928 . S
La160 O180 2.521 . S
La160 O181 2.628 . S
La160 O182 2.554 . S
La160 O183 2.757 . S
La160 O184 2.470 . S
La160 O189 2.482 . S
La160 O191 2.503 . S
La161 C171 2.928 . S
La161 O183 2.482 . S
La161 O185 2.503 . S
La161 O186 2.521 . S
La161 O187 2.628 . S
La161 O188 2.554 . S
La161 O189 2.757 . S
La161 O190 2.470 . S
C162 La160 2.928 . S
C162 C163 1.503 . S
C162 O180 1.261 . S
C162 O181 1.243 . S
C163 C162 1.503 . S
C163 C164 1.394 . S
C163 C168 1.373 . S
C164 C163 1.394 . S
C164 C165 1.380 . S
C164 H192 0.930 . S
C165 C164 1.380 . S
C165 C166 1.376 . S
C165 H193 0.930 . S
C166 C165 1.376 . S
C166 C167 1.370 . S
C167 C166 1.370 . S
C167 C168 1.396 . S
C167 H194 0.929 . S
C168 C163 1.373 . S
C168 C167 1.396 . S
C168 H195 0.929 . S
C169 O182 1.240 . S
C169 O183 1.289 . S
C170 O184 1.258 . S
C170 O185 1.256 . S
C171 La161 2.928 . S
C171 C172 1.503 1_455 S
C171 O186 1.261 . S
C171 O187 1.243 . S
C172 C171 1.503 1_655 S
C172 C173 1.394 . S
C172 C177 1.373 . S
C173 C172 1.394 . S
C173 C174 1.380 . S
C173 H196 0.930 . S
C174 C173 1.380 . S
C174 C175 1.376 . S
C174 H197 0.930 . S
C175 C174 1.376 . S
C175 C176 1.370 . S
C176 C175 1.370 . S
C176 C177 1.396 . S
C176 H198 0.929 . S
C177 C172 1.373 . S
C177 C176 1.396 . S
C177 H199 0.929 1_655 S
C178 O188 1.240 . S
C178 O189 1.289 . S
C179 O190 1.258 . S
C179 O191 1.256 . S
O180 La160 2.521 . S
O180 C162 1.261 . S
O181 La160 2.628 . S
O181 C162 1.243 . S
O182 La160 2.554 . S
O182 C169 1.240 . S
O183 La160 2.757 . S
O183 La161 2.482 . S
O183 C169 1.289 . S
O184 La160 2.470 . S
O184 C170 1.258 . S
O185 La161 2.503 . S
O185 C170 1.256 . S
O186 La161 2.521 . S
O186 C171 1.261 . S
O187 La161 2.628 . S
O187 C171 1.243 . S
O188 La161 2.554 . S
O188 C178 1.240 . S
O189 La160 2.482 . S
O189 La161 2.757 . S
O189 C178 1.289 . S
O190 La161 2.470 . S
O190 C179 1.258 . S
O191 La160 2.503 . S
O191 C179 1.256 . S
H192 C164 0.930 . S
H193 C165 0.930 . S
H194 C167 0.929 . S
H195 C168 0.929 . S
H196 C173 0.930 . S
H197 C174 0.930 . S
H198 C176 0.929 . S
H199 C177 0.929 1_455 S
La200 C202 2.928 . S
La200 O220 2.521 . S
La200 O221 2.628 . S
La200 O222 2.554 . S
La200 O223 2.757 . S
La200 O224 2.470 . S
La200 O229 2.482 . S
La200 O231 2.503 . S
La201 C211 2.928 . S
La201 O223 2.482 . S
La201 O225 2.503 . S
La201 O226 2.521 . S
La201 O227 2.628 . S
La201 O228 2.554 . S
La201 O229 2.757 . S
La201 O230 2.470 . S
C202 La200 2.928 . S
C202 C203 1.503 1_565 S
C202 O220 1.261 . S
C202 O221 1.243 . S
C203 C202 1.503 1_545 S
C203 C204 1.394 . S
C203 C208 1.373 . S
C204 C203 1.394 . S
C204 C205 1.380 . S
C204 H232 0.930 . S
C205 C204 1.380 . S
C205 C206 1.376 . S
C205 H233 0.930 . S
C206 C205 1.376 . S
C206 C207 1.370 . S
C207 C206 1.370 . S
C207 C208 1.396 . S
C207 H234 0.929 . S
C208 C203 1.373 . S
C208 C207 1.396 . S
C208 H235 0.929 1_545 S
C209 O222 1.240 . S
C209 O223 1.289 . S
C210 O224 1.258 . S
C210 O225 1.256 . S
C211 La201 2.928 . S
C211 C212 1.503 . S
C211 O226 1.261 . S
C211 O227 1.243 . S
C212 C211 1.503 . S
C212 C213 1.394 . S
C212 C217 1.373 . S
C213 C212 1.394 . S
C213 C214 1.380 . S
C213 H236 0.930 . S
C214 C213 1.380 . S
C214 C215 1.376 . S
C214 H237 0.930 . S
C215 C214 1.376 . S
C215 C216 1.370 . S
C216 C215 1.370 . S
C216 C217 1.396 . S
C216 H238 0.929 . S
C217 C212 1.373 . S
C217 C216 1.396 . S
C217 H239 0.929 . S
C218 O228 1.240 . S
C218 O229 1.289 . S
C219 O230 1.258 . S
C219 O231 1.256 . S
O220 La200 2.521 . S
O220 C202 1.261 . S
O221 La200 2.628 . S
O221 C202 1.243 . S
O222 La200 2.554 . S
O222 C209 1.240 . S
O223 La200 2.757 . S
O223 La201 2.482 . S
O223 C209 1.289 . S
O224 La200 2.470 . S
O224 C210 1.258 . S
O225 La201 2.503 . S
O225 C210 1.256 . S
O226 La201 2.521 . S
O226 C211 1.261 . S
O227 La201 2.628 . S
O227 C211 1.243 . S
O228 La201 2.554 . S
O228 C218 1.240 . S
O229 La200 2.482 . S
O229 La201 2.757 . S
O229 C218 1.289 . S
O230 La201 2.470 . S
O230 C219 1.258 . S
O231 La200 2.503 . S
O231 C219 1.256 . S
H232 C204 0.930 . S
H233 C205 0.930 . S
H234 C207 0.929 . S
H235 C208 0.929 1_565 S
H236 C213 0.930 . S
H237 C214 0.930 . S
H238 C216 0.929 . S
H239 C217 0.929 . S
La240 C242 2.928 . S
La240 O260 2.521 . S
La240 O261 2.628 . S
La240 O262 2.554 . S
La240 O263 2.757 . S
La240 O264 2.470 . S
La240 O269 2.482 . S
La240 O271 2.503 . S
La241 C251 2.928 . S
La241 O263 2.482 . S
La241 O265 2.503 . S
La241 O266 2.521 . S
La241 O267 2.628 . S
La241 O268 2.554 . S
La241 O269 2.757 . S
La241 O270 2.470 . S
C242 La240 2.928 . S
C242 C243 1.503 . S
C242 O260 1.261 . S
C242 O261 1.243 . S
C243 C242 1.503 . S
C243 C244 1.394 . S
C243 C248 1.373 . S
C244 C243 1.394 . S
C244 C245 1.380 . S
C244 H272 0.930 . S
C245 C244 1.380 . S
C245 C246 1.376 . S
C245 H273 0.930 . S
C246 C245 1.376 . S
C246 C247 1.370 . S
C247 C246 1.370 . S
C247 C248 1.396 . S
C247 H274 0.929 . S
C248 C243 1.373 . S
C248 C247 1.396 . S
C248 H275 0.929 . S
C249 O262 1.240 . S
C249 O263 1.289 . S
C250 O264 1.258 . S
C250 O265 1.256 . S
C251 La241 2.928 . S
C251 C252 1.503 . S
C251 O266 1.261 . S
C251 O267 1.243 . S
C252 C251 1.503 . S
C252 C253 1.394 . S
C252 C257 1.373 . S
C253 C252 1.394 . S
C253 C254 1.380 . S
C253 H276 0.930 . S
C254 C253 1.380 . S
C254 C255 1.376 . S
C254 H277 0.930 . S
C255 C254 1.376 . S
C255 C256 1.370 . S
C256 C255 1.370 . S
C256 C257 1.396 . S
C256 H278 0.929 . S
C257 C252 1.373 . S
C257 C256 1.396 . S
C257 H279 0.929 . S
C258 O268 1.240 . S
C258 O269 1.289 . S
C259 O270 1.258 . S
C259 O271 1.256 . S
O260 La240 2.521 . S
O260 C242 1.261 . S
O261 La240 2.628 . S
O261 C242 1.243 . S
O262 La240 2.554 . S
O262 C249 1.240 . S
O263 La240 2.757 . S
O263 La241 2.482 . S
O263 C249 1.289 . S
O264 La240 2.470 . S
O264 C250 1.258 . S
O265 La241 2.503 . S
O265 C250 1.256 . S
O266 La241 2.521 . S
O266 C251 1.261 . S
O267 La241 2.628 . S
O267 C251 1.243 . S
O268 La241 2.554 . S
O268 C258 1.240 . S
O269 La240 2.482 . S
O269 La241 2.757 . S
O269 C258 1.289 . S
O270 La241 2.470 . S
O270 C259 1.258 . S
O271 La240 2.503 . S
O271 C259 1.256 . S
H272 C244 0.930 . S
H273 C245 0.930 . S
H274 C247 0.929 . S
H275 C248 0.929 . S
H276 C253 0.930 . S
H277 C254 0.930 . S
H278 C256 0.929 . S
H279 C257 0.929 . S
La280 C282 2.928 1_556 S
La280 O300 2.521 1_556 S
La280 O301 2.628 1_556 S
La280 O302 2.554 . S
La280 O303 2.757 . S
La280 O304 2.470 1_556 S
La280 O309 2.482 1_556 S
La280 O311 2.503 . S
La281 C291 2.928 . S
La281 O303 2.482 . S
La281 O305 2.503 1_556 S
La281 O306 2.521 . S
La281 O307 2.628 . S
La281 O308 2.554 1_556 S
La281 O309 2.757 1_556 S
La281 O310 2.470 . S
C282 La280 2.928 1_554 S
C282 C283 1.503 1_545 S
C282 O300 1.261 . S
C282 O301 1.243 . S
C283 C282 1.503 1_565 S
C283 C284 1.394 . S
C283 C288 1.373 . S
C284 C283 1.394 . S
C284 C285 1.380 . S
C284 H312 0.930 . S
C285 C284 1.380 . S
C285 C286 1.376 . S
C285 H313 0.930 . S
C286 C285 1.376 . S
C286 C287 1.370 . S
C287 C286 1.370 . S
C287 C288 1.396 . S
C287 H314 0.929 . S
C288 C283 1.373 . S
C288 C287 1.396 . S
C288 H315 0.929 1_565 S
C289 O302 1.240 . S
C289 O303 1.289 . S
C290 O304 1.258 . S
C290 O305 1.256 . S
C291 La281 2.928 . S
C291 C292 1.503 . S
C291 O306 1.261 . S
C291 O307 1.243 . S
C292 C291 1.503 . S
C292 C293 1.394 . S
C292 C297 1.373 . S
C293 C292 1.394 . S
C293 C294 1.380 . S
C293 H316 0.930 . S
C294 C293 1.380 . S
C294 C295 1.376 . S
C294 H317 0.930 . S
C295 C294 1.376 . S
C295 C296 1.370 . S
C296 C295 1.370 . S
C296 C297 1.396 . S
C296 H318 0.929 . S
C297 C292 1.373 . S
C297 C296 1.396 . S
C297 H319 0.929 . S
C298 O308 1.240 . S
C298 O309 1.289 . S
C299 O310 1.258 . S
C299 O311 1.256 . S
O300 La280 2.521 1_554 S
O300 C282 1.261 . S
O301 La280 2.628 1_554 S
O301 C282 1.243 . S
O302 La280 2.554 . S
O302 C289 1.240 . S
O303 La280 2.757 . S
O303 La281 2.482 . S
O303 C289 1.289 . S
O304 La280 2.470 1_554 S
O304 C290 1.258 . S
O305 La281 2.503 1_554 S
O305 C290 1.256 . S
O306 La281 2.521 . S
O306 C291 1.261 . S
O307 La281 2.628 . S
O307 C291 1.243 . S
O308 La281 2.554 1_554 S
O308 C298 1.240 . S
O309 La280 2.482 1_554 S
O309 La281 2.757 1_554 S
O309 C298 1.289 . S
O310 La281 2.470 . S
O310 C299 1.258 . S
O311 La280 2.503 . S
O311 C299 1.256 . S
H312 C284 0.930 . S
H313 C285 0.930 . S
H314 C287 0.929 . S
H315 C288 0.929 1_545 S
H316 C293 0.930 . S
H317 C294 0.930 . S
H318 C296 0.929 . S
H319 C297 0.929 . S
La320 C322 2.928 . S
La320 O340 2.521 . S
La320 O341 2.628 . S
La320 O342 2.554 . S
La320 O343 2.757 . S
La320 O344 2.470 . S
La320 O349 2.482 . S
La320 O351 2.503 . S
La321 C331 2.928 . S
La321 O343 2.482 . S
La321 O345 2.503 . S
La321 O346 2.521 . S
La321 O347 2.628 . S
La321 O348 2.554 . S
La321 O349 2.757 . S
La321 O350 2.470 . S
C322 La320 2.928 . S
C322 C323 1.503 1_655 S
C322 O340 1.261 . S
C322 O341 1.243 . S
C323 C322 1.503 1_455 S
C323 C324 1.394 . S
C323 C328 1.373 . S
C324 C323 1.394 . S
C324 C325 1.380 . S
C324 H352 0.930 . S
C325 C324 1.380 . S
C325 C326 1.376 . S
C325 H353 0.930 . S
C326 C325 1.376 . S
C326 C327 1.370 . S
C327 C326 1.370 . S
C327 C328 1.396 . S
C327 H354 0.929 . S
C328 C323 1.373 . S
C328 C327 1.396 . S
C328 H355 0.929 1_455 S
C329 O342 1.240 . S
C329 O343 1.289 . S
C330 O344 1.258 . S
C330 O345 1.256 . S
C331 La321 2.928 . S
C331 C332 1.503 . S
C331 O346 1.261 . S
C331 O347 1.243 . S
C332 C331 1.503 . S
C332 C333 1.394 . S
C332 C337 1.373 . S
C333 C332 1.394 . S
C333 C334 1.380 . S
C333 H356 0.930 . S
C334 C333 1.380 . S
C334 C335 1.376 . S
C334 H357 0.930 . S
C335 C334 1.376 . S
C335 C336 1.370 . S
C336 C335 1.370 . S
C336 C337 1.396 . S
C336 H358 0.929 . S
C337 C332 1.373 . S
C337 C336 1.396 . S
C337 H359 0.929 . S
C338 O348 1.240 . S
C338 O349 1.289 . S
C339 O350 1.258 . S
C339 O351 1.256 . S
O340 La320 2.521 . S
O340 C322 1.261 . S
O341 La320 2.628 . S
O341 C322 1.243 . S
O342 La320 2.554 . S
O342 C329 1.240 . S
O343 La320 2.757 . S
O343 La321 2.482 . S
O343 C329 1.289 . S
O344 La320 2.470 . S
O344 C330 1.258 . S
O345 La321 2.503 . S
O345 C330 1.256 . S
O346 La321 2.521 . S
O346 C331 1.261 . S
O347 La321 2.628 . S
O347 C331 1.243 . S
O348 La321 2.554 . S
O348 C338 1.240 . S
O349 La320 2.482 . S
O349 La321 2.757 . S
O349 C338 1.289 . S
O350 La321 2.470 . S
O350 C339 1.258 . S
O351 La320 2.503 . S
O351 C339 1.256 . S
H352 C324 0.930 . S
H353 C325 0.930 . S
H354 C327 0.929 . S
H355 C328 0.929 1_655 S
H356 C333 0.930 . S
H357 C334 0.930 . S
H358 C336 0.929 . S
H359 C337 0.929 . S
La360 C362 2.928 . S
La360 O380 2.521 . S
La360 O381 2.628 . S
La360 O382 2.554 . S
La360 O383 2.757 . S
La360 O384 2.470 . S
La360 O389 2.482 . S
La360 O391 2.503 . S
La361 C371 2.928 . S
La361 O383 2.482 . S
La361 O385 2.503 . S
La361 O386 2.521 . S
La361 O387 2.628 . S
La361 O388 2.554 . S
La361 O389 2.757 . S
La361 O390 2.470 . S
C362 La360 2.928 . S
C362 C363 1.503 . S
C362 O380 1.261 . S
C362 O381 1.243 . S
C363 C362 1.503 . S
C363 C364 1.394 . S
C363 C368 1.373 . S
C364 C363 1.394 . S
C364 C365 1.380 . S
C364 H392 0.930 . S
C365 C364 1.380 . S
C365 C366 1.376 . S
C365 H393 0.930 . S
C366 C365 1.376 . S
C366 C367 1.370 . S
C367 C366 1.370 . S
C367 C368 1.396 . S
C367 H394 0.929 . S
C368 C363 1.373 . S
C368 C367 1.396 . S
C368 H395 0.929 . S
C369 O382 1.240 . S
C369 O383 1.289 . S
C370 O384 1.258 . S
C370 O385 1.256 . S
C371 La361 2.928 . S
C371 C372 1.503 1_545 S
C371 O386 1.261 . S
C371 O387 1.243 . S
C372 C371 1.503 1_565 S
C372 C373 1.394 . S
C372 C377 1.373 . S
C373 C372 1.394 . S
C373 C374 1.380 . S
C373 H396 0.930 . S
C374 C373 1.380 . S
C374 C375 1.376 . S
C374 H397 0.930 . S
C375 C374 1.376 . S
C375 C376 1.370 . S
C376 C375 1.370 . S
C376 C377 1.396 . S
C376 H398 0.929 . S
C377 C372 1.373 . S
C377 C376 1.396 . S
C377 H399 0.929 1_565 S
C378 O388 1.240 . S
C378 O389 1.289 . S
C379 O390 1.258 . S
C379 O391 1.256 . S
O380 La360 2.521 . S
O380 C362 1.261 . S
O381 La360 2.628 . S
O381 C362 1.243 . S
O382 La360 2.554 . S
O382 C369 1.240 . S
O383 La360 2.757 . S
O383 La361 2.482 . S
O383 C369 1.289 . S
O384 La360 2.470 . S
O384 C370 1.258 . S
O385 La361 2.503 . S
O385 C370 1.256 . S
O386 La361 2.521 . S
O386 C371 1.261 . S
O387 La361 2.628 . S
O387 C371 1.243 . S
O388 La361 2.554 . S
O388 C378 1.240 . S
O389 La360 2.482 . S
O389 La361 2.757 . S
O389 C378 1.289 . S
O390 La361 2.470 . S
O390 C379 1.258 . S
O391 La360 2.503 . S
O391 C379 1.256 . S
H392 C364 0.930 . S
H393 C365 0.930 . S
H394 C367 0.929 . S
H395 C368 0.929 . S
H396 C373 0.930 . S
H397 C374 0.930 . S
H398 C376 0.929 . S
H399 C377 0.929 1_545 S
La400 C402 2.928 . S
La400 O420 2.521 . S
La400 O421 2.628 . S
La400 O422 2.554 . S
La400 O423 2.757 . S
La400 O424 2.470 . S
La400 O429 2.482 . S
La400 O431 2.503 . S
La401 C411 2.928 . S
La401 O423 2.482 . S
La401 O425 2.503 . S
La401 O426 2.521 . S
La401 O427 2.628 . S
La401 O428 2.554 . S
La401 O429 2.757 . S
La401 O430 2.470 . S
C402 La400 2.928 . S
C402 C403 1.503 . S
C402 O420 1.261 . S
C402 O421 1.243 . S
C403 C402 1.503 . S
C403 C404 1.394 . S
C403 C408 1.373 . S
C404 C403 1.394 . S
C404 C405 1.380 . S
C404 H432 0.930 . S
C405 C404 1.380 . S
C405 C406 1.376 . S
C405 H433 0.930 . S
C406 C405 1.376 . S
C406 C407 1.370 . S
C407 C406 1.370 . S
C407 C408 1.396 . S
C407 H434 0.929 . S
C408 C403 1.373 . S
C408 C407 1.396 . S
C408 H435 0.929 . S
C409 O422 1.240 . S
C409 O423 1.289 . S
C410 O424 1.258 . S
C410 O425 1.256 . S
C411 La401 2.928 . S
C411 C412 1.503 . S
C411 O426 1.261 . S
C411 O427 1.243 . S
C412 C411 1.503 . S
C412 C413 1.394 . S
C412 C417 1.373 . S
C413 C412 1.394 . S
C413 C414 1.380 . S
C413 H436 0.930 . S
C414 C413 1.380 . S
C414 C415 1.376 . S
C414 H437 0.930 . S
C415 C414 1.376 . S
C415 C416 1.370 . S
C416 C415 1.370 . S
C416 C417 1.396 . S
C416 H438 0.929 . S
C417 C412 1.373 . S
C417 C416 1.396 . S
C417 H439 0.929 . S
C418 O428 1.240 . S
C418 O429 1.289 . S
C419 O430 1.258 . S
C419 O431 1.256 . S
O420 La400 2.521 . S
O420 C402 1.261 . S
O421 La400 2.628 . S
O421 C402 1.243 . S
O422 La400 2.554 . S
O422 C409 1.240 . S
O423 La400 2.757 . S
O423 La401 2.482 . S
O423 C409 1.289 . S
O424 La400 2.470 . S
O424 C410 1.258 . S
O425 La401 2.503 . S
O425 C410 1.256 . S
O426 La401 2.521 . S
O426 C411 1.261 . S
O427 La401 2.628 . S
O427 C411 1.243 . S
O428 La401 2.554 . S
O428 C418 1.240 . S
O429 La400 2.482 . S
O429 La401 2.757 . S
O429 C418 1.289 . S
O430 La401 2.470 . S
O430 C419 1.258 . S
O431 La400 2.503 . S
O431 C419 1.256 . S
H432 C404 0.930 . S
H433 C405 0.930 . S
H434 C407 0.929 . S
H435 C408 0.929 . S
H436 C413 0.930 . S
H437 C414 0.930 . S
H438 C416 0.929 . S
H439 C417 0.929 . S
La440 C442 2.928 . S
La440 O460 2.521 . S
La440 O461 2.628 . S
La440 O462 2.554 1_556 S
La440 O463 2.757 1_556 S
La440 O464 2.470 . S
La440 O469 2.482 . S
La440 O471 2.503 1_556 S
La441 C451 2.928 1_556 S
La441 O463 2.482 1_556 S
La441 O465 2.503 . S
La441 O466 2.521 1_556 S
La441 O467 2.628 1_556 S
La441 O468 2.554 . S
La441 O469 2.757 . S
La441 O470 2.470 1_556 S
C442 La440 2.928 . S
C442 C443 1.503 . S
C442 O460 1.261 . S
C442 O461 1.243 . S
C443 C442 1.503 . S
C443 C444 1.394 . S
C443 C448 1.373 . S
C444 C443 1.394 . S
C444 C445 1.380 . S
C444 H472 0.930 . S
C445 C444 1.380 . S
C445 C446 1.376 . S
C445 H473 0.930 . S
C446 C445 1.376 . S
C446 C447 1.370 . S
C447 C446 1.370 . S
C447 C448 1.396 . S
C447 H474 0.929 . S
C448 C443 1.373 . S
C448 C447 1.396 . S
C448 H475 0.929 . S
C449 O462 1.240 . S
C449 O463 1.289 . S
C450 O464 1.258 . S
C450 O465 1.256 . S
C451 La441 2.928 1_554 S
C451 C452 1.503 1_565 S
C451 O466 1.261 . S
C451 O467 1.243 . S
C452 C451 1.503 1_545 S
C452 C453 1.394 . S
C452 C457 1.373 . S
C453 C452 1.394 . S
C453 C454 1.380 . S
C453 H476 0.930 . S
C454 C453 1.380 . S
C454 C455 1.376 . S
C454 H477 0.930 . S
C455 C454 1.376 . S
C455 C456 1.370 . S
C456 C455 1.370 . S
C456 C457 1.396 . S
C456 H478 0.929 . S
C457 C452 1.373 . S
C457 C456 1.396 . S
C457 H479 0.929 1_545 S
C458 O468 1.240 . S
C458 O469 1.289 . S
C459 O470 1.258 . S
C459 O471 1.256 . S
O460 La440 2.521 . S
O460 C442 1.261 . S
O461 La440 2.628 . S
O461 C442 1.243 . S
O462 La440 2.554 1_554 S
O462 C449 1.240 . S
O463 La440 2.757 1_554 S
O463 La441 2.482 1_554 S
O463 C449 1.289 . S
O464 La440 2.470 . S
O464 C450 1.258 . S
O465 La441 2.503 . S
O465 C450 1.256 . S
O466 La441 2.521 1_554 S
O466 C451 1.261 . S
O467 La441 2.628 1_554 S
O467 C451 1.243 . S
O468 La441 2.554 . S
O468 C458 1.240 . S
O469 La440 2.482 . S
O469 La441 2.757 . S
O469 C458 1.289 . S
O470 La441 2.470 1_554 S
O470 C459 1.258 . S
O471 La440 2.503 1_554 S
O471 C459 1.256 . S
H472 C444 0.930 . S
H473 C445 0.930 . S
H474 C447 0.929 . S
H475 C448 0.929 . S
H476 C453 0.930 . S
H477 C454 0.930 . S
H478 C456 0.929 . S
H479 C457 0.929 1_565 S
La480 C482 2.928 . S
La480 O500 2.521 . S
La480 O501 2.628 . S
La480 O502 2.554 . S
La480 O503 2.757 . S
La480 O504 2.470 . S
La480 O509 2.482 . S
La480 O511 2.503 . S
La481 C491 2.928 . S
La481 O503 2.482 . S
La481 O505 2.503 . S
La481 O506 2.521 . S
La481 O507 2.628 . S
La481 O508 2.554 . S
La481 O509 2.757 . S
La481 O510 2.470 . S
C482 La480 2.928 . S
C482 C483 1.503 1_655 S
C482 O500 1.261 . S
C482 O501 1.243 . S
C483 C482 1.503 1_455 S
C483 C484 1.394 . S
C483 C488 1.373 . S
C484 C483 1.394 . S
C484 C485 1.380 . S
C484 H512 0.930 . S
C485 C484 1.380 . S
C485 C486 1.376 . S
C485 H513 0.930 . S
C486 C485 1.376 . S
C486 C487 1.370 . S
C487 C486 1.370 . S
C487 C488 1.396 . S
C487 H514 0.929 . S
C488 C483 1.373 . S
C488 C487 1.396 . S
C488 H515 0.929 1_455 S
C489 O502 1.240 . S
C489 O503 1.289 . S
C490 O504 1.258 . S
C490 O505 1.256 . S
C491 La481 2.928 . S
C491 C492 1.503 . S
C491 O506 1.261 . S
C491 O507 1.243 . S
C492 C491 1.503 . S
C492 C493 1.394 . S
C492 C497 1.373 . S
C493 C492 1.394 . S
C493 C494 1.380 . S
C493 H516 0.930 . S
C494 C493 1.380 . S
C494 C495 1.376 . S
C494 H517 0.930 . S
C495 C494 1.376 . S
C495 C496 1.370 . S
C496 C495 1.370 . S
C496 C497 1.396 . S
C496 H518 0.929 . S
C497 C492 1.373 . S
C497 C496 1.396 . S
C497 H519 0.929 . S
C498 O508 1.240 . S
C498 O509 1.289 . S
C499 O510 1.258 . S
C499 O511 1.256 . S
O500 La480 2.521 . S
O500 C482 1.261 . S
O501 La480 2.628 . S
O501 C482 1.243 . S
O502 La480 2.554 . S
O502 C489 1.240 . S
O503 La480 2.757 . S
O503 La481 2.482 . S
O503 C489 1.289 . S
O504 La480 2.470 . S
O504 C490 1.258 . S
O505 La481 2.503 . S
O505 C490 1.256 . S
O506 La481 2.521 . S
O506 C491 1.261 . S
O507 La481 2.628 . S
O507 C491 1.243 . S
O508 La481 2.554 . S
O508 C498 1.240 . S
O509 La480 2.482 . S
O509 La481 2.757 . S
O509 C498 1.289 . S
O510 La481 2.470 . S
O510 C499 1.258 . S
O511 La480 2.503 . S
O511 C499 1.256 . S
H512 C484 0.930 . S
H513 C485 0.930 . S
H514 C487 0.929 . S
H515 C488 0.929 1_655 S
H516 C493 0.930 . S
H517 C494 0.930 . S
H518 C496 0.929 . S
H519 C497 0.929 . S
La520 C522 2.928 . S
La520 O540 2.521 . S
La520 O541 2.628 . S
La520 O542 2.554 . S
La520 O543 2.757 . S
La520 O544 2.470 . S
La520 O549 2.482 . S
La520 O551 2.503 . S
La521 C531 2.928 . S
La521 O543 2.482 . S
La521 O545 2.503 . S
La521 O546 2.521 . S
La521 O547 2.628 . S
La521 O548 2.554 . S
La521 O549 2.757 . S
La521 O550 2.470 . S
C522 La520 2.928 . S
C522 C523 1.503 . S
C522 O540 1.261 . S
C522 O541 1.243 . S
C523 C522 1.503 . S
C523 C524 1.394 . S
C523 C528 1.373 . S
C524 C523 1.394 . S
C524 C525 1.380 . S
C524 H552 0.930 . S
C525 C524 1.380 . S
C525 C526 1.376 . S
C525 H553 0.930 . S
C526 C525 1.376 . S
C526 C527 1.370 . S
C527 C526 1.370 . S
C527 C528 1.396 . S
C527 H554 0.929 . S
C528 C523 1.373 . S
C528 C527 1.396 . S
C528 H555 0.929 . S
C529 O542 1.240 . S
C529 O543 1.289 . S
C530 O544 1.258 . S
C530 O545 1.256 . S
C531 La521 2.928 . S
C531 C532 1.503 1_545 S
C531 O546 1.261 . S
C531 O547 1.243 . S
C532 C531 1.503 1_565 S
C532 C533 1.394 . S
C532 C537 1.373 . S
C533 C532 1.394 . S
C533 C534 1.380 . S
C533 H556 0.930 . S
C534 C533 1.380 . S
C534 C535 1.376 . S
C534 H557 0.930 . S
C535 C534 1.376 . S
C535 C536 1.370 . S
C536 C535 1.370 . S
C536 C537 1.396 . S
C536 H558 0.929 . S
C537 C532 1.373 . S
C537 C536 1.396 . S
C537 H559 0.929 1_565 S
C538 O548 1.240 . S
C538 O549 1.289 . S
C539 O550 1.258 . S
C539 O551 1.256 . S
O540 La520 2.521 . S
O540 C522 1.261 . S
O541 La520 2.628 . S
O541 C522 1.243 . S
O542 La520 2.554 . S
O542 C529 1.240 . S
O543 La520 2.757 . S
O543 La521 2.482 . S
O543 C529 1.289 . S
O544 La520 2.470 . S
O544 C530 1.258 . S
O545 La521 2.503 . S
O545 C530 1.256 . S
O546 La521 2.521 . S
O546 C531 1.261 . S
O547 La521 2.628 . S
O547 C531 1.243 . S
O548 La521 2.554 . S
O548 C538 1.240 . S
O549 La520 2.482 . S
O549 La521 2.757 . S
O549 C538 1.289 . S
O550 La521 2.470 . S
O550 C539 1.258 . S
O551 La520 2.503 . S
O551 C539 1.256 . S
H552 C524 0.930 . S
H553 C525 0.930 . S
H554 C527 0.929 . S
H555 C528 0.929 . S
H556 C533 0.930 . S
H557 C534 0.930 . S
H558 C536 0.929 . S
H559 C537 0.929 1_545 S
La560 C562 2.928 . S
La560 O580 2.521 . S
La560 O581 2.628 . S
La560 O582 2.554 . S
La560 O583 2.757 . S
La560 O584 2.470 . S
La560 O589 2.482 . S
La560 O591 2.503 . S
La561 C571 2.928 . S
La561 O583 2.482 . S
La561 O585 2.503 . S
La561 O586 2.521 . S
La561 O587 2.628 . S
La561 O588 2.554 . S
La561 O589 2.757 . S
La561 O590 2.470 . S
C562 La560 2.928 . S
C562 C563 1.503 . S
C562 O580 1.261 . S
C562 O581 1.243 . S
C563 C562 1.503 . S
C563 C564 1.394 . S
C563 C568 1.373 . S
C564 C563 1.394 . S
C564 C565 1.380 . S
C564 H592 0.930 . S
C565 C564 1.380 . S
C565 C566 1.376 . S
C565 H593 0.930 . S
C566 C565 1.376 . S
C566 C567 1.370 . S
C567 C566 1.370 . S
C567 C568 1.396 . S
C567 H594 0.929 . S
C568 C563 1.373 . S
C568 C567 1.396 . S
C568 H595 0.929 . S
C569 O582 1.240 . S
C569 O583 1.289 . S
C570 O584 1.258 . S
C570 O585 1.256 . S
C571 La561 2.928 . S
C571 C572 1.503 . S
C571 O586 1.261 . S
C571 O587 1.243 . S
C572 C571 1.503 . S
C572 C573 1.394 . S
C572 C577 1.373 . S
C573 C572 1.394 . S
C573 C574 1.380 . S
C573 H596 0.930 . S
C574 C573 1.380 . S
C574 C575 1.376 . S
C574 H597 0.930 . S
C575 C574 1.376 . S
C575 C576 1.370 . S
C576 C575 1.370 . S
C576 C577 1.396 . S
C576 H598 0.929 . S
C577 C572 1.373 . S
C577 C576 1.396 . S
C577 H599 0.929 . S
C578 O588 1.240 . S
C578 O589 1.289 . S
C579 O590 1.258 . S
C579 O591 1.256 . S
O580 La560 2.521 . S
O580 C562 1.261 . S
O581 La560 2.628 . S
O581 C562 1.243 . S
O582 La560 2.554 . S
O582 C569 1.240 . S
O583 La560 2.757 . S
O583 La561 2.482 . S
O583 C569 1.289 . S
O584 La560 2.470 . S
O584 C570 1.258 . S
O585 La561 2.503 . S
O585 C570 1.256 . S
O586 La561 2.521 . S
O586 C571 1.261 . S
O587 La561 2.628 . S
O587 C571 1.243 . S
O588 La561 2.554 . S
O588 C578 1.240 . S
O589 La560 2.482 . S
O589 La561 2.757 . S
O589 C578 1.289 . S
O590 La561 2.470 . S
O590 C579 1.258 . S
O591 La560 2.503 . S
O591 C579 1.256 . S
H592 C564 0.930 . S
H593 C565 0.930 . S
H594 C567 0.929 . S
H595 C568 0.929 . S
H596 C573 0.930 . S
H597 C574 0.930 . S
H598 C576 0.929 . S
H599 C577 0.929 . S
La600 C602 2.928 . S
La600 O620 2.521 . S
La600 O621 2.628 . S
La600 O622 2.554 1_554 S
La600 O623 2.757 1_554 S
La600 O624 2.470 . S
La600 O629 2.482 . S
La600 O631 2.503 1_554 S
La601 C611 2.928 1_554 S
La601 O623 2.482 1_554 S
La601 O625 2.503 . S
La601 O626 2.521 1_554 S
La601 O627 2.628 1_554 S
La601 O628 2.554 . S
La601 O629 2.757 . S
La601 O630 2.470 1_554 S
C602 La600 2.928 . S
C602 C603 1.503 . S
C602 O620 1.261 . S
C602 O621 1.243 . S
C603 C602 1.503 . S
C603 C604 1.394 . S
C603 C608 1.373 . S
C604 C603 1.394 . S
C604 C605 1.380 . S
C604 H632 0.930 . S
C605 C604 1.380 . S
C605 C606 1.376 . S
C605 H633 0.930 . S
C606 C605 1.376 . S
C606 C607 1.370 . S
C607 C606 1.370 . S
C607 C608 1.396 . S
C607 H634 0.929 . S
C608 C603 1.373 . S
C608 C607 1.396 . S
C608 H635 0.929 . S
C609 O622 1.240 . S
C609 O623 1.289 . S
C610 O624 1.258 . S
C610 O625 1.256 . S
C611 La601 2.928 1_556 S
C611 C612 1.503 1_565 S
C611 O626 1.261 . S
C611 O627 1.243 . S
C612 C611 1.503 1_545 S
C612 C613 1.394 . S
C612 C617 1.373 . S
C613 C612 1.394 . S
C613 C614 1.380 . S
C613 H636 0.930 . S
C614 C613 1.380 . S
C614 C615 1.376 . S
C614 H637 0.930 . S
C615 C614 1.376 . S
C615 C616 1.370 . S
C616 C615 1.370 . S
C616 C617 1.396 . S
C616 H638 0.929 . S
C617 C612 1.373 . S
C617 C616 1.396 . S
C617 H639 0.929 1_545 S
C618 O628 1.240 . S
C618 O629 1.289 . S
C619 O630 1.258 . S
C619 O631 1.256 . S
O620 La600 2.521 . S
O620 C602 1.261 . S
O621 La600 2.628 . S
O621 C602 1.243 . S
O622 La600 2.554 1_556 S
O622 C609 1.240 . S
O623 La600 2.757 1_556 S
O623 La601 2.482 1_556 S
O623 C609 1.289 . S
O624 La600 2.470 . S
O624 C610 1.258 . S
O625 La601 2.503 . S
O625 C610 1.256 . S
O626 La601 2.521 1_556 S
O626 C611 1.261 . S
O627 La601 2.628 1_556 S
O627 C611 1.243 . S
O628 La601 2.554 . S
O628 C618 1.240 . S
O629 La600 2.482 . S
O629 La601 2.757 . S
O629 C618 1.289 . S
O630 La601 2.470 1_556 S
O630 C619 1.258 . S
O631 La600 2.503 1_556 S
O631 C619 1.256 . S
H632 C604 0.930 . S
H633 C605 0.930 . S
H634 C607 0.929 . S
H635 C608 0.929 . S
H636 C613 0.930 . S
H637 C614 0.930 . S
H638 C616 0.929 . S
H639 C617 0.929 1_565 S
La640 C642 2.928 . S
La640 O660 2.521 . S
La640 O661 2.628 . S
La640 O662 2.554 . S
La640 O663 2.757 . S
La640 O664 2.470 . S
La640 O669 2.482 . S
La640 O671 2.503 . S
La641 C651 2.928 . S
La641 O663 2.482 . S
La641 O665 2.503 . S
La641 O666 2.521 . S
La641 O667 2.628 . S
La641 O668 2.554 . S
La641 O669 2.757 . S
La641 O670 2.470 . S
C642 La640 2.928 . S
C642 C643 1.503 . S
C642 O660 1.261 . S
C642 O661 1.243 . S
C643 C642 1.503 . S
C643 C644 1.394 . S
C643 C648 1.373 . S
C644 C643 1.394 . S
C644 C645 1.380 . S
C644 H672 0.930 . S
C645 C644 1.380 . S
C645 C646 1.376 . S
C645 H673 0.930 . S
C646 C645 1.376 . S
C646 C647 1.370 . S
C647 C646 1.370 . S
C647 C648 1.396 . S
C647 H674 0.929 . S
C648 C643 1.373 . S
C648 C647 1.396 . S
C648 H675 0.929 . S
C649 O662 1.240 . S
C649 O663 1.289 . S
C650 O664 1.258 . S
C650 O665 1.256 . S
C651 La641 2.928 . S
C651 C652 1.503 . S
C651 O666 1.261 . S
C651 O667 1.243 . S
C652 C651 1.503 . S
C652 C653 1.394 . S
C652 C657 1.373 . S
C653 C652 1.394 . S
C653 C654 1.380 . S
C653 H676 0.930 . S
C654 C653 1.380 . S
C654 C655 1.376 . S
C654 H677 0.930 . S
C655 C654 1.376 . S
C655 C656 1.370 . S
C656 C655 1.370 . S
C656 C657 1.396 . S
C656 H678 0.929 . S
C657 C652 1.373 . S
C657 C656 1.396 . S
C657 H679 0.929 . S
C658 O668 1.240 . S
C658 O669 1.289 . S
C659 O670 1.258 . S
C659 O671 1.256 . S
O660 La640 2.521 . S
O660 C642 1.261 . S
O661 La640 2.628 . S
O661 C642 1.243 . S
O662 La640 2.554 . S
O662 C649 1.240 . S
O663 La640 2.757 . S
O663 La641 2.482 . S
O663 C649 1.289 . S
O664 La640 2.470 . S
O664 C650 1.258 . S
O665 La641 2.503 . S
O665 C650 1.256 . S
O666 La641 2.521 . S
O666 C651 1.261 . S
O667 La641 2.628 . S
O667 C651 1.243 . S
O668 La641 2.554 . S
O668 C658 1.240 . S
O669 La640 2.482 . S
O669 La641 2.757 . S
O669 C658 1.289 . S
O670 La641 2.470 . S
O670 C659 1.258 . S
O671 La640 2.503 . S
O671 C659 1.256 . S
H672 C644 0.930 . S
H673 C645 0.930 . S
H674 C647 0.929 . S
H675 C648 0.929 . S
H676 C653 0.930 . S
H677 C654 0.930 . S
H678 C656 0.929 . S
H679 C657 0.929 . S
La680 C682 2.928 1_554 S
La680 O700 2.521 1_554 S
La680 O701 2.628 1_554 S
La680 O702 2.554 . S
La680 O703 2.757 . S
La680 O704 2.470 1_554 S
La680 O709 2.482 1_554 S
La680 O711 2.503 . S
La681 C691 2.928 . S
La681 O703 2.482 . S
La681 O705 2.503 1_554 S
La681 O706 2.521 . S
La681 O707 2.628 . S
La681 O708 2.554 1_554 S
La681 O709 2.757 1_554 S
La681 O710 2.470 . S
C682 La680 2.928 1_556 S
C682 C683 1.503 . S
C682 O700 1.261 . S
C682 O701 1.243 . S
C683 C682 1.503 . S
C683 C684 1.394 . S
C683 C688 1.373 . S
C684 C683 1.394 . S
C684 C685 1.380 . S
C684 H712 0.930 . S
C685 C684 1.380 . S
C685 C686 1.376 . S
C685 H713 0.930 . S
C686 C685 1.376 . S
C686 C687 1.370 . S
C687 C686 1.370 . S
C687 C688 1.396 . S
C687 H714 0.929 . S
C688 C683 1.373 . S
C688 C687 1.396 . S
C688 H715 0.929 . S
C689 O702 1.240 . S
C689 O703 1.289 . S
C690 O704 1.258 . S
C690 O705 1.256 . S
C691 La681 2.928 . S
C691 C692 1.503 . S
C691 O706 1.261 . S
C691 O707 1.243 . S
C692 C691 1.503 . S
C692 C693 1.394 . S
C692 C697 1.373 . S
C693 C692 1.394 . S
C693 C694 1.380 . S
C693 H716 0.930 . S
C694 C693 1.380 . S
C694 C695 1.376 . S
C694 H717 0.930 . S
C695 C694 1.376 . S
C695 C696 1.370 . S
C696 C695 1.370 . S
C696 C697 1.396 . S
C696 H718 0.929 . S
C697 C692 1.373 . S
C697 C696 1.396 . S
C697 H719 0.929 . S
C698 O708 1.240 . S
C698 O709 1.289 . S
C699 O710 1.258 . S
C699 O711 1.256 . S
O700 La680 2.521 1_556 S
O700 C682 1.261 . S
O701 La680 2.628 1_556 S
O701 C682 1.243 . S
O702 La680 2.554 . S
O702 C689 1.240 . S
O703 La680 2.757 . S
O703 La681 2.482 . S
O703 C689 1.289 . S
O704 La680 2.470 1_556 S
O704 C690 1.258 . S
O705 La681 2.503 1_556 S
O705 C690 1.256 . S
O706 La681 2.521 . S
O706 C691 1.261 . S
O707 La681 2.628 . S
O707 C691 1.243 . S
O708 La681 2.554 1_556 S
O708 C698 1.240 . S
O709 La680 2.482 1_556 S
O709 La681 2.757 1_556 S
O709 C698 1.289 . S
O710 La681 2.470 . S
O710 C699 1.258 . S
O711 La680 2.503 . S
O711 C699 1.256 . S
H712 C684 0.930 . S
H713 C685 0.930 . S
H714 C687 0.929 . S
H715 C688 0.929 . S
H716 C693 0.930 . S
H717 C694 0.930 . S
H718 C696 0.929 . S
H719 C697 0.929 . S
La720 C722 2.928 . S
La720 O740 2.521 . S
La720 O741 2.628 . S
La720 O742 2.554 . S
La720 O743 2.757 . S
La720 O744 2.470 . S
La720 O749 2.482 . S
La720 O751 2.503 . S
La721 C731 2.928 . S
La721 O743 2.482 . S
La721 O745 2.503 . S
La721 O746 2.521 . S
La721 O747 2.628 . S
La721 O748 2.554 . S
La721 O749 2.757 . S
La721 O750 2.470 . S
C722 La720 2.928 . S
C722 C723 1.503 . S
C722 O740 1.261 . S
C722 O741 1.243 . S
C723 C722 1.503 . S
C723 C724 1.394 . S
C723 C728 1.373 . S
C724 C723 1.394 . S
C724 C725 1.380 . S
C724 H752 0.930 . S
C725 C724 1.380 . S
C725 C726 1.376 . S
C725 H753 0.930 . S
C726 C725 1.376 . S
C726 C727 1.370 . S
C727 C726 1.370 . S
C727 C728 1.396 . S
C727 H754 0.929 . S
C728 C723 1.373 . S
C728 C727 1.396 . S
C728 H755 0.929 . S
C729 O742 1.240 . S
C729 O743 1.289 . S
C730 O744 1.258 . S
C730 O745 1.256 . S
C731 La721 2.928 . S
C731 C732 1.503 1_655 S
C731 O746 1.261 . S
C731 O747 1.243 . S
C732 C731 1.503 1_455 S
C732 C733 1.394 . S
C732 C737 1.373 . S
C733 C732 1.394 . S
C733 C734 1.380 . S
C733 H756 0.930 . S
C734 C733 1.380 . S
C734 C735 1.376 . S
C734 H757 0.930 . S
C735 C734 1.376 . S
C735 C736 1.370 . S
C736 C735 1.370 . S
C736 C737 1.396 . S
C736 H758 0.929 . S
C737 C732 1.373 . S
C737 C736 1.396 . S
C737 H759 0.929 1_455 S
C738 O748 1.240 . S
C738 O749 1.289 . S
C739 O750 1.258 . S
C739 O751 1.256 . S
O740 La720 2.521 . S
O740 C722 1.261 . S
O741 La720 2.628 . S
O741 C722 1.243 . S
O742 La720 2.554 . S
O742 C729 1.240 . S
O743 La720 2.757 . S
O743 La721 2.482 . S
O743 C729 1.289 . S
O744 La720 2.470 . S
O744 C730 1.258 . S
O745 La721 2.503 . S
O745 C730 1.256 . S
O746 La721 2.521 . S
O746 C731 1.261 . S
O747 La721 2.628 . S
O747 C731 1.243 . S
O748 La721 2.554 . S
O748 C738 1.240 . S
O749 La720 2.482 . S
O749 La721 2.757 . S
O749 C738 1.289 . S
O750 La721 2.470 . S
O750 C739 1.258 . S
O751 La720 2.503 . S
O751 C739 1.256 . S
H752 C724 0.930 . S
H753 C725 0.930 . S
H754 C727 0.929 . S
H755 C728 0.929 . S
H756 C733 0.930 . S
H757 C734 0.930 . S
H758 C736 0.929 . S
H759 C737 0.929 1_655 S
La760 C762 2.928 . S
La760 O780 2.521 . S
La760 O781 2.628 . S
La760 O782 2.554 . S
La760 O783 2.757 . S
La760 O784 2.470 . S
La760 O789 2.482 . S
La760 O791 2.503 . S
La761 C771 2.928 . S
La761 O783 2.482 . S
La761 O785 2.503 . S
La761 O786 2.521 . S
La761 O787 2.628 . S
La761 O788 2.554 . S
La761 O789 2.757 . S
La761 O790 2.470 . S
C762 La760 2.928 . S
C762 C763 1.503 . S
C762 O780 1.261 . S
C762 O781 1.243 . S
C763 C762 1.503 . S
C763 C764 1.394 . S
C763 C768 1.373 . S
C764 C763 1.394 . S
C764 C765 1.380 . S
C764 H792 0.930 . S
C765 C764 1.380 . S
C765 C766 1.376 . S
C765 H793 0.930 . S
C766 C765 1.376 . S
C766 C767 1.370 . S
C767 C766 1.370 . S
C767 C768 1.396 . S
C767 H794 0.929 . S
C768 C763 1.373 . S
C768 C767 1.396 . S
C768 H795 0.929 . S
C769 O782 1.240 . S
C769 O783 1.289 . S
C770 O784 1.258 . S
C770 O785 1.256 . S
C771 La761 2.928 . S
C771 C772 1.503 . S
C771 O786 1.261 . S
C771 O787 1.243 . S
C772 C771 1.503 . S
C772 C773 1.394 . S
C772 C777 1.373 . S
C773 C772 1.394 . S
C773 C774 1.380 . S
C773 H796 0.930 . S
C774 C773 1.380 . S
C774 C775 1.376 . S
C774 H797 0.930 . S
C775 C774 1.376 . S
C775 C776 1.370 . S
C776 C775 1.370 . S
C776 C777 1.396 . S
C776 H798 0.929 . S
C777 C772 1.373 . S
C777 C776 1.396 . S
C777 H799 0.929 . S
C778 O788 1.240 . S
C778 O789 1.289 . S
C779 O790 1.258 . S
C779 O791 1.256 . S
O780 La760 2.521 . S
O780 C762 1.261 . S
O781 La760 2.628 . S
O781 C762 1.243 . S
O782 La760 2.554 . S
O782 C769 1.240 . S
O783 La760 2.757 . S
O783 La761 2.482 . S
O783 C769 1.289 . S
O784 La760 2.470 . S
O784 C770 1.258 . S
O785 La761 2.503 . S
O785 C770 1.256 . S
O786 La761 2.521 . S
O786 C771 1.261 . S
O787 La761 2.628 . S
O787 C771 1.243 . S
O788 La761 2.554 . S
O788 C778 1.240 . S
O789 La760 2.482 . S
O789 La761 2.757 . S
O789 C778 1.289 . S
O790 La761 2.470 . S
O790 C779 1.258 . S
O791 La760 2.503 . S
O791 C779 1.256 . S
H792 C764 0.930 . S
H793 C765 0.930 . S
H794 C767 0.929 . S
H795 C768 0.929 . S
H796 C773 0.930 . S
H797 C774 0.930 . S
H798 C776 0.929 . S
H799 C777 0.929 . S
La800 C802 2.928 . S
La800 O820 2.521 . S
La800 O821 2.628 . S
La800 O822 2.554 . S
La800 O823 2.757 . S
La800 O824 2.470 . S
La800 O829 2.482 . S
La800 O831 2.503 . S
La801 C811 2.928 . S
La801 O823 2.482 . S
La801 O825 2.503 . S
La801 O826 2.521 . S
La801 O827 2.628 . S
La801 O828 2.554 . S
La801 O829 2.757 . S
La801 O830 2.470 . S
C802 La800 2.928 . S
C802 C803 1.503 . S
C802 O820 1.261 . S
C802 O821 1.243 . S
C803 C802 1.503 . S
C803 C804 1.394 . S
C803 C808 1.373 . S
C804 C803 1.394 . S
C804 C805 1.380 . S
C804 H832 0.930 . S
C805 C804 1.380 . S
C805 C806 1.376 . S
C805 H833 0.930 . S
C806 C805 1.376 . S
C806 C807 1.370 . S
C807 C806 1.370 . S
C807 C808 1.396 . S
C807 H834 0.929 . S
C808 C803 1.373 . S
C808 C807 1.396 . S
C808 H835 0.929 . S
C809 O822 1.240 . S
C809 O823 1.289 . S
C810 O824 1.258 . S
C810 O825 1.256 . S
C811 La801 2.928 . S
C811 C812 1.503 . S
C811 O826 1.261 . S
C811 O827 1.243 . S
C812 C811 1.503 . S
C812 C813 1.394 . S
C812 C817 1.373 . S
C813 C812 1.394 . S
C813 C814 1.380 . S
C813 H836 0.930 . S
C814 C813 1.380 . S
C814 C815 1.376 . S
C814 H837 0.930 . S
C815 C814 1.376 . S
C815 C816 1.370 . S
C816 C815 1.370 . S
C816 C817 1.396 . S
C816 H838 0.929 . S
C817 C812 1.373 . S
C817 C816 1.396 . S
C817 H839 0.929 . S
C818 O828 1.240 . S
C818 O829 1.289 . S
C819 O830 1.258 . S
C819 O831 1.256 . S
O820 La800 2.521 . S
O820 C802 1.261 . S
O821 La800 2.628 . S
O821 C802 1.243 . S
O822 La800 2.554 . S
O822 C809 1.240 . S
O823 La800 2.757 . S
O823 La801 2.482 . S
O823 C809 1.289 . S
O824 La800 2.470 . S
O824 C810 1.258 . S
O825 La801 2.503 . S
O825 C810 1.256 . S
O826 La801 2.521 . S
O826 C811 1.261 . S
O827 La801 2.628 . S
O827 C811 1.243 . S
O828 La801 2.554 . S
O828 C818 1.240 . S
O829 La800 2.482 . S
O829 La801 2.757 . S
O829 C818 1.289 . S
O830 La801 2.470 . S
O830 C819 1.258 . S
O831 La800 2.503 . S
O831 C819 1.256 . S
H832 C804 0.930 . S
H833 C805 0.930 . S
H834 C807 0.929 . S
H835 C808 0.929 . S
H836 C813 0.930 . S
H837 C814 0.930 . S
H838 C816 0.929 . S
H839 C817 0.929 . S
La840 C842 2.928 1_556 S
La840 O860 2.521 1_556 S
La840 O861 2.628 1_556 S
La840 O862 2.554 . S
La840 O863 2.757 . S
La840 O864 2.470 1_556 S
La840 O869 2.482 1_556 S
La840 O871 2.503 . S
La841 C851 2.928 . S
La841 O863 2.482 . S
La841 O865 2.503 1_556 S
La841 O866 2.521 . S
La841 O867 2.628 . S
La841 O868 2.554 1_556 S
La841 O869 2.757 1_556 S
La841 O870 2.470 . S
C842 La840 2.928 1_554 S
C842 C843 1.503 . S
C842 O860 1.261 . S
C842 O861 1.243 . S
C843 C842 1.503 . S
C843 C844 1.394 . S
C843 C848 1.373 . S
C844 C843 1.394 . S
C844 C845 1.380 . S
C844 H872 0.930 . S
C845 C844 1.380 . S
C845 C846 1.376 . S
C845 H873 0.930 . S
C846 C845 1.376 . S
C846 C847 1.370 . S
C847 C846 1.370 . S
C847 C848 1.396 . S
C847 H874 0.929 . S
C848 C843 1.373 . S
C848 C847 1.396 . S
C848 H875 0.929 . S
C849 O862 1.240 . S
C849 O863 1.289 . S
C850 O864 1.258 . S
C850 O865 1.256 . S
C851 La841 2.928 . S
C851 C852 1.503 . S
C851 O866 1.261 . S
C851 O867 1.243 . S
C852 C851 1.503 . S
C852 C853 1.394 . S
C852 C857 1.373 . S
C853 C852 1.394 . S
C853 C854 1.380 . S
C853 H876 0.930 . S
C854 C853 1.380 . S
C854 C855 1.376 . S
C854 H877 0.930 . S
C855 C854 1.376 . S
C855 C856 1.370 . S
C856 C855 1.370 . S
C856 C857 1.396 . S
C856 H878 0.929 . S
C857 C852 1.373 . S
C857 C856 1.396 . S
C857 H879 0.929 . S
C858 O868 1.240 . S
C858 O869 1.289 . S
C859 O870 1.258 . S
C859 O871 1.256 . S
O860 La840 2.521 1_554 S
O860 C842 1.261 . S
O861 La840 2.628 1_554 S
O861 C842 1.243 . S
O862 La840 2.554 . S
O862 C849 1.240 . S
O863 La840 2.757 . S
O863 La841 2.482 . S
O863 C849 1.289 . S
O864 La840 2.470 1_554 S
O864 C850 1.258 . S
O865 La841 2.503 1_554 S
O865 C850 1.256 . S
O866 La841 2.521 . S
O866 C851 1.261 . S
O867 La841 2.628 . S
O867 C851 1.243 . S
O868 La841 2.554 1_554 S
O868 C858 1.240 . S
O869 La840 2.482 1_554 S
O869 La841 2.757 1_554 S
O869 C858 1.289 . S
O870 La841 2.470 . S
O870 C859 1.258 . S
O871 La840 2.503 . S
O871 C859 1.256 . S
H872 C844 0.930 . S
H873 C845 0.930 . S
H874 C847 0.929 . S
H875 C848 0.929 . S
H876 C853 0.930 . S
H877 C854 0.930 . S
H878 C856 0.929 . S
H879 C857 0.929 . S
La880 C882 2.928 . S
La880 O900 2.521 . S
La880 O901 2.628 . S
La880 O902 2.554 . S
La880 O903 2.757 . S
La880 O904 2.470 . S
La880 O909 2.482 . S
La880 O911 2.503 . S
La881 C891 2.928 . S
La881 O903 2.482 . S
La881 O905 2.503 . S
La881 O906 2.521 . S
La881 O907 2.628 . S
La881 O908 2.554 . S
La881 O909 2.757 . S
La881 O910 2.470 . S
C882 La880 2.928 . S
C882 C883 1.503 . S
C882 O900 1.261 . S
C882 O901 1.243 . S
C883 C882 1.503 . S
C883 C884 1.394 . S
C883 C888 1.373 . S
C884 C883 1.394 . S
C884 C885 1.380 . S
C884 H912 0.930 . S
C885 C884 1.380 . S
C885 C886 1.376 . S
C885 H913 0.930 . S
C886 C885 1.376 . S
C886 C887 1.370 . S
C887 C886 1.370 . S
C887 C888 1.396 . S
C887 H914 0.929 . S
C888 C883 1.373 . S
C888 C887 1.396 . S
C888 H915 0.929 . S
C889 O902 1.240 . S
C889 O903 1.289 . S
C890 O904 1.258 . S
C890 O905 1.256 . S
C891 La881 2.928 . S
C891 C892 1.503 1_655 S
C891 O906 1.261 . S
C891 O907 1.243 . S
C892 C891 1.503 1_455 S
C892 C893 1.394 . S
C892 C897 1.373 . S
C893 C892 1.394 . S
C893 C894 1.380 . S
C893 H916 0.930 . S
C894 C893 1.380 . S
C894 C895 1.376 . S
C894 H917 0.930 . S
C895 C894 1.376 . S
C895 C896 1.370 . S
C896 C895 1.370 . S
C896 C897 1.396 . S
C896 H918 0.929 . S
C897 C892 1.373 . S
C897 C896 1.396 . S
C897 H919 0.929 1_455 S
C898 O908 1.240 . S
C898 O909 1.289 . S
C899 O910 1.258 . S
C899 O911 1.256 . S
O900 La880 2.521 . S
O900 C882 1.261 . S
O901 La880 2.628 . S
O901 C882 1.243 . S
O902 La880 2.554 . S
O902 C889 1.240 . S
O903 La880 2.757 . S
O903 La881 2.482 . S
O903 C889 1.289 . S
O904 La880 2.470 . S
O904 C890 1.258 . S
O905 La881 2.503 . S
O905 C890 1.256 . S
O906 La881 2.521 . S
O906 C891 1.261 . S
O907 La881 2.628 . S
O907 C891 1.243 . S
O908 La881 2.554 . S
O908 C898 1.240 . S
O909 La880 2.482 . S
O909 La881 2.757 . S
O909 C898 1.289 . S
O910 La881 2.470 . S
O910 C899 1.258 . S
O911 La880 2.503 . S
O911 C899 1.256 . S
H912 C884 0.930 . S
H913 C885 0.930 . S
H914 C887 0.929 . S
H915 C888 0.929 . S
H916 C893 0.930 . S
H917 C894 0.930 . S
H918 C896 0.929 . S
H919 C897 0.929 1_655 S
La920 C922 2.928 . S
La920 O940 2.521 . S
La920 O941 2.628 . S
La920 O942 2.554 . S
La920 O943 2.757 . S
La920 O944 2.470 . S
La920 O949 2.482 . S
La920 O951 2.503 . S
La921 C931 2.928 . S
La921 O943 2.482 . S
La921 O945 2.503 . S
La921 O946 2.521 . S
La921 O947 2.628 . S
La921 O948 2.554 . S
La921 O949 2.757 . S
La921 O950 2.470 . S
C922 La920 2.928 . S
C922 C923 1.503 . S
C922 O940 1.261 . S
C922 O941 1.243 . S
C923 C922 1.503 . S
C923 C924 1.394 . S
C923 C928 1.373 . S
C924 C923 1.394 . S
C924 C925 1.380 . S
C924 H952 0.930 . S
C925 C924 1.380 . S
C925 C926 1.376 . S
C925 H953 0.930 . S
C926 C925 1.376 . S
C926 C927 1.370 . S
C927 C926 1.370 . S
C927 C928 1.396 . S
C927 H954 0.929 . S
C928 C923 1.373 . S
C928 C927 1.396 . S
C928 H955 0.929 . S
C929 O942 1.240 . S
C929 O943 1.289 . S
C930 O944 1.258 . S
C930 O945 1.256 . S
C931 La921 2.928 . S
C931 C932 1.503 . S
C931 O946 1.261 . S
C931 O947 1.243 . S
C932 C931 1.503 . S
C932 C933 1.394 . S
C932 C937 1.373 . S
C933 C932 1.394 . S
C933 C934 1.380 . S
C933 H956 0.930 . S
C934 C933 1.380 . S
C934 C935 1.376 . S
C934 H957 0.930 . S
C935 C934 1.376 . S
C935 C936 1.370 . S
C936 C935 1.370 . S
C936 C937 1.396 . S
C936 H958 0.929 . S
C937 C932 1.373 . S
C937 C936 1.396 . S
C937 H959 0.929 . S
C938 O948 1.240 . S
C938 O949 1.289 . S
C939 O950 1.258 . S
C939 O951 1.256 . S
O940 La920 2.521 . S
O940 C922 1.261 . S
O941 La920 2.628 . S
O941 C922 1.243 . S
O942 La920 2.554 . S
O942 C929 1.240 . S
O943 La920 2.757 . S
O943 La921 2.482 . S
O943 C929 1.289 . S
O944 La920 2.470 . S
O944 C930 1.258 . S
O945 La921 2.503 . S
O945 C930 1.256 . S
O946 La921 2.521 . S
O946 C931 1.261 . S
O947 La921 2.628 . S
O947 C931 1.243 . S
O948 La921 2.554 . S
O948 C938 1.240 . S
O949 La920 2.482 . S
O949 La921 2.757 . S
O949 C938 1.289 . S
O950 La921 2.470 . S
O950 C939 1.258 . S
O951 La920 2.503 . S
O951 C939 1.256 . S
H952 C924 0.930 . S
H953 C925 0.930 . S
H954 C927 0.929 . S
H955 C928 0.929 . S
H956 C933 0.930 . S
H957 C934 0.930 . S
H958 C936 0.929 . S
H959 C937 0.929 . S
La960 C962 2.928 . S
La960 O980 2.521 . S
La960 O981 2.628 . S
La960 O982 2.554 . S
La960 O983 2.757 . S
La960 O984 2.470 . S
La960 O989 2.482 . S
La960 O991 2.503 . S
La961 C971 2.928 . S
La961 O983 2.482 . S
La961 O985 2.503 . S
La961 O986 2.521 . S
La961 O987 2.628 . S
La961 O988 2.554 . S
La961 O989 2.757 . S
La961 O990 2.470 . S
C962 La960 2.928 . S
C962 C963 1.503 . S
C962 O980 1.261 . S
C962 O981 1.243 . S
C963 C962 1.503 . S
C963 C964 1.394 . S
C963 C968 1.373 . S
C964 C963 1.394 . S
C964 C965 1.380 . S
C964 H992 0.930 . S
C965 C964 1.380 . S
C965 C966 1.376 . S
C965 H993 0.930 . S
C966 C965 1.376 . S
C966 C967 1.370 . S
C967 C966 1.370 . S
C967 C968 1.396 . S
C967 H994 0.929 . S
C968 C963 1.373 . S
C968 C967 1.396 . S
C968 H995 0.929 . S
C969 O982 1.240 . S
C969 O983 1.289 . S
C970 O984 1.258 . S
C970 O985 1.256 . S
C971 La961 2.928 . S
C971 C972 1.503 . S
C971 O986 1.261 . S
C971 O987 1.243 . S
C972 C971 1.503 . S
C972 C973 1.394 . S
C972 C977 1.373 . S
C973 C972 1.394 . S
C973 C974 1.380 . S
C973 H996 0.930 . S
C974 C973 1.380 . S
C974 C975 1.376 . S
C974 H997 0.930 . S
C975 C974 1.376 . S
C975 C976 1.370 . S
C976 C975 1.370 . S
C976 C977 1.396 . S
C976 H998 0.929 . S
C977 C972 1.373 . S
C977 C976 1.396 . S
C977 H999 0.929 . S
C978 O988 1.240 . S
C978 O989 1.289 . S
C979 O990 1.258 . S
C979 O991 1.256 . S
O980 La960 2.521 . S
O980 C962 1.261 . S
O981 La960 2.628 . S
O981 C962 1.243 . S
O982 La960 2.554 . S
O982 C969 1.240 . S
O983 La960 2.757 . S
O983 La961 2.482 . S
O983 C969 1.289 . S
O984 La960 2.470 . S
O984 C970 1.258 . S
O985 La961 2.503 . S
O985 C970 1.256 . S
O986 La961 2.521 . S
O986 C971 1.261 . S
O987 La961 2.628 . S
O987 C971 1.243 . S
O988 La961 2.554 . S
O988 C978 1.240 . S
O989 La960 2.482 . S
O989 La961 2.757 . S
O989 C978 1.289 . S
O990 La961 2.470 . S
O990 C979 1.258 . S
O991 La960 2.503 . S
O991 C979 1.256 . S
H992 C964 0.930 . S
H993 C965 0.930 . S
H994 C967 0.929 . S
H995 C968 0.929 . S
H996 C973 0.930 . S
H997 C974 0.930 . S
H998 C976 0.929 . S
H999 C977 0.929 . S
La1000 C1002 2.928 . S
La1000 O1020 2.521 . S
La1000 O1021 2.628 . S
La1000 O1022 2.554 1_556 S
La1000 O1023 2.757 1_556 S
La1000 O1024 2.470 . S
La1000 O1029 2.482 . S
La1000 O1031 2.503 1_556 S
La1001 C1011 2.928 1_556 S
La1001 O1023 2.482 1_556 S
La1001 O1025 2.503 . S
La1001 O1026 2.521 1_556 S
La1001 O1027 2.628 1_556 S
La1001 O1028 2.554 . S
La1001 O1029 2.757 . S
La1001 O1030 2.470 1_556 S
C1002 La1000 2.928 . S
C1002 C1003 1.503 . S
C1002 O1020 1.261 . S
C1002 O1021 1.243 . S
C1003 C1002 1.503 . S
C1003 C1004 1.394 . S
C1003 C1008 1.373 . S
C1004 C1003 1.394 . S
C1004 C1005 1.380 . S
C1004 H1032 0.930 . S
C1005 C1004 1.380 . S
C1005 C1006 1.376 . S
C1005 H1033 0.930 . S
C1006 C1005 1.376 . S
C1006 C1007 1.370 . S
C1007 C1006 1.370 . S
C1007 C1008 1.396 . S
C1007 H1034 0.929 . S
C1008 C1003 1.373 . S
C1008 C1007 1.396 . S
C1008 H1035 0.929 . S
C1009 O1022 1.240 . S
C1009 O1023 1.289 . S
C1010 O1024 1.258 . S
C1010 O1025 1.256 . S
C1011 La1001 2.928 1_554 S
C1011 C1012 1.503 . S
C1011 O1026 1.261 . S
C1011 O1027 1.243 . S
C1012 C1011 1.503 . S
C1012 C1013 1.394 . S
C1012 C1017 1.373 . S
C1013 C1012 1.394 . S
C1013 C1014 1.380 . S
C1013 H1036 0.930 . S
C1014 C1013 1.380 . S
C1014 C1015 1.376 . S
C1014 H1037 0.930 . S
C1015 C1014 1.376 . S
C1015 C1016 1.370 . S
C1016 C1015 1.370 . S
C1016 C1017 1.396 . S
C1016 H1038 0.929 . S
C1017 C1012 1.373 . S
C1017 C1016 1.396 . S
C1017 H1039 0.929 . S
C1018 O1028 1.240 . S
C1018 O1029 1.289 . S
C1019 O1030 1.258 . S
C1019 O1031 1.256 . S
O1020 La1000 2.521 . S
O1020 C1002 1.261 . S
O1021 La1000 2.628 . S
O1021 C1002 1.243 . S
O1022 La1000 2.554 1_554 S
O1022 C1009 1.240 . S
O1023 La1000 2.757 1_554 S
O1023 La1001 2.482 1_554 S
O1023 C1009 1.289 . S
O1024 La1000 2.470 . S
O1024 C1010 1.258 . S
O1025 La1001 2.503 . S
O1025 C1010 1.256 . S
O1026 La1001 2.521 1_554 S
O1026 C1011 1.261 . S
O1027 La1001 2.628 1_554 S
O1027 C1011 1.243 . S
O1028 La1001 2.554 . S
O1028 C1018 1.240 . S
O1029 La1000 2.482 . S
O1029 La1001 2.757 . S
O1029 C1018 1.289 . S
O1030 La1001 2.470 1_554 S
O1030 C1019 1.258 . S
O1031 La1000 2.503 1_554 S
O1031 C1019 1.256 . S
H1032 C1004 0.930 . S
H1033 C1005 0.930 . S
H1034 C1007 0.929 . S
H1035 C1008 0.929 . S
H1036 C1013 0.930 . S
H1037 C1014 0.930 . S
H1038 C1016 0.929 . S
H1039 C1017 0.929 . S
La1040 C1042 2.928 . S
La1040 O1060 2.521 . S
La1040 O1061 2.628 . S
La1040 O1062 2.554 . S
La1040 O1063 2.757 . S
La1040 O1064 2.470 . S
La1040 O1069 2.482 . S
La1040 O1071 2.503 . S
La1041 C1051 2.928 . S
La1041 O1063 2.482 . S
La1041 O1065 2.503 . S
La1041 O1066 2.521 . S
La1041 O1067 2.628 . S
La1041 O1068 2.554 . S
La1041 O1069 2.757 . S
La1041 O1070 2.470 . S
C1042 La1040 2.928 . S
C1042 C1043 1.503 1_455 S
C1042 O1060 1.261 . S
C1042 O1061 1.243 . S
C1043 C1042 1.503 1_655 S
C1043 C1044 1.394 . S
C1043 C1048 1.373 . S
C1044 C1043 1.394 . S
C1044 C1045 1.380 . S
C1044 H1072 0.930 . S
C1045 C1044 1.380 . S
C1045 C1046 1.376 . S
C1045 H1073 0.930 . S
C1046 C1045 1.376 . S
C1046 C1047 1.370 . S
C1047 C1046 1.370 . S
C1047 C1048 1.396 . S
C1047 H1074 0.929 . S
C1048 C1043 1.373 . S
C1048 C1047 1.396 . S
C1048 H1075 0.929 1_655 S
C1049 O1062 1.240 . S
C1049 O1063 1.289 . S
C1050 O1064 1.258 . S
C1050 O1065 1.256 . S
C1051 La1041 2.928 . S
C1051 C1052 1.503 . S
C1051 O1066 1.261 . S
C1051 O1067 1.243 . S
C1052 C1051 1.503 . S
C1052 C1053 1.394 . S
C1052 C1057 1.373 . S
C1053 C1052 1.394 . S
C1053 C1054 1.380 . S
C1053 H1076 0.930 . S
C1054 C1053 1.380 . S
C1054 C1055 1.376 . S
C1054 H1077 0.930 . S
C1055 C1054 1.376 . S
C1055 C1056 1.370 . S
C1056 C1055 1.370 . S
C1056 C1057 1.396 . S
C1056 H1078 0.929 . S
C1057 C1052 1.373 . S
C1057 C1056 1.396 . S
C1057 H1079 0.929 . S
C1058 O1068 1.240 . S
C1058 O1069 1.289 . S
C1059 O1070 1.258 . S
C1059 O1071 1.256 . S
O1060 La1040 2.521 . S
O1060 C1042 1.261 . S
O1061 La1040 2.628 . S
O1061 C1042 1.243 . S
O1062 La1040 2.554 . S
O1062 C1049 1.240 . S
O1063 La1040 2.757 . S
O1063 La1041 2.482 . S
O1063 C1049 1.289 . S
O1064 La1040 2.470 . S
O1064 C1050 1.258 . S
O1065 La1041 2.503 . S
O1065 C1050 1.256 . S
O1066 La1041 2.521 . S
O1066 C1051 1.261 . S
O1067 La1041 2.628 . S
O1067 C1051 1.243 . S
O1068 La1041 2.554 . S
O1068 C1058 1.240 . S
O1069 La1040 2.482 . S
O1069 La1041 2.757 . S
O1069 C1058 1.289 . S
O1070 La1041 2.470 . S
O1070 C1059 1.258 . S
O1071 La1040 2.503 . S
O1071 C1059 1.256 . S
H1072 C1044 0.930 . S
H1073 C1045 0.930 . S
H1074 C1047 0.929 . S
H1075 C1048 0.929 1_455 S
H1076 C1053 0.930 . S
H1077 C1054 0.930 . S
H1078 C1056 0.929 . S
H1079 C1057 0.929 . S
La1080 C1082 2.928 . S
La1080 O1100 2.521 . S
La1080 O1101 2.628 . S
La1080 O1102 2.554 . S
La1080 O1103 2.757 . S
La1080 O1104 2.470 . S
La1080 O1109 2.482 . S
La1080 O1111 2.503 . S
La1081 C1091 2.928 . S
La1081 O1103 2.482 . S
La1081 O1105 2.503 . S
La1081 O1106 2.521 . S
La1081 O1107 2.628 . S
La1081 O1108 2.554 . S
La1081 O1109 2.757 . S
La1081 O1110 2.470 . S
C1082 La1080 2.928 . S
C1082 C1083 1.503 . S
C1082 O1100 1.261 . S
C1082 O1101 1.243 . S
C1083 C1082 1.503 . S
C1083 C1084 1.394 . S
C1083 C1088 1.373 . S
C1084 C1083 1.394 . S
C1084 C1085 1.380 . S
C1084 H1112 0.930 . S
C1085 C1084 1.380 . S
C1085 C1086 1.376 . S
C1085 H1113 0.930 . S
C1086 C1085 1.376 . S
C1086 C1087 1.370 . S
C1087 C1086 1.370 . S
C1087 C1088 1.396 . S
C1087 H1114 0.929 . S
C1088 C1083 1.373 . S
C1088 C1087 1.396 . S
C1088 H1115 0.929 . S
C1089 O1102 1.240 . S
C1089 O1103 1.289 . S
C1090 O1104 1.258 . S
C1090 O1105 1.256 . S
C1091 La1081 2.928 . S
C1091 C1092 1.503 . S
C1091 O1106 1.261 . S
C1091 O1107 1.243 . S
C1092 C1091 1.503 . S
C1092 C1093 1.394 . S
C1092 C1097 1.373 . S
C1093 C1092 1.394 . S
C1093 C1094 1.380 . S
C1093 H1116 0.930 . S
C1094 C1093 1.380 . S
C1094 C1095 1.376 . S
C1094 H1117 0.930 . S
C1095 C1094 1.376 . S
C1095 C1096 1.370 . S
C1096 C1095 1.370 . S
C1096 C1097 1.396 . S
C1096 H1118 0.929 . S
C1097 C1092 1.373 . S
C1097 C1096 1.396 . S
C1097 H1119 0.929 . S
C1098 O1108 1.240 . S
C1098 O1109 1.289 . S
C1099 O1110 1.258 . S
C1099 O1111 1.256 . S
O1100 La1080 2.521 . S
O1100 C1082 1.261 . S
O1101 La1080 2.628 . S
O1101 C1082 1.243 . S
O1102 La1080 2.554 . S
O1102 C1089 1.240 . S
O1103 La1080 2.757 . S
O1103 La1081 2.482 . S
O1103 C1089 1.289 . S
O1104 La1080 2.470 . S
O1104 C1090 1.258 . S
O1105 La1081 2.503 . S
O1105 C1090 1.256 . S
O1106 La1081 2.521 . S
O1106 C1091 1.261 . S
O1107 La1081 2.628 . S
O1107 C1091 1.243 . S
O1108 La1081 2.554 . S
O1108 C1098 1.240 . S
O1109 La1080 2.482 . S
O1109 La1081 2.757 . S
O1109 C1098 1.289 . S
O1110 La1081 2.470 . S
O1110 C1099 1.258 . S
O1111 La1080 2.503 . S
O1111 C1099 1.256 . S
H1112 C1084 0.930 . S
H1113 C1085 0.930 . S
H1114 C1087 0.929 . S
H1115 C1088 0.929 . S
H1116 C1093 0.930 . S
H1117 C1094 0.930 . S
H1118 C1096 0.929 . S
H1119 C1097 0.929 . S
La1120 C1122 2.928 . S
La1120 O1140 2.521 . S
La1120 O1141 2.628 . S
La1120 O1142 2.554 . S
La1120 O1143 2.757 . S
La1120 O1144 2.470 . S
La1120 O1149 2.482 . S
La1120 O1151 2.503 . S
La1121 C1131 2.928 . S
La1121 O1143 2.482 . S
La1121 O1145 2.503 . S
La1121 O1146 2.521 . S
La1121 O1147 2.628 . S
La1121 O1148 2.554 . S
La1121 O1149 2.757 . S
La1121 O1150 2.470 . S
C1122 La1120 2.928 . S
C1122 C1123 1.503 . S
C1122 O1140 1.261 . S
C1122 O1141 1.243 . S
C1123 C1122 1.503 . S
C1123 C1124 1.394 . S
C1123 C1128 1.373 . S
C1124 C1123 1.394 . S
C1124 C1125 1.380 . S
C1124 H1152 0.930 . S
C1125 C1124 1.380 . S
C1125 C1126 1.376 . S
C1125 H1153 0.930 . S
C1126 C1125 1.376 . S
C1126 C1127 1.370 . S
C1127 C1126 1.370 . S
C1127 C1128 1.396 . S
C1127 H1154 0.929 . S
C1128 C1123 1.373 . S
C1128 C1127 1.396 . S
C1128 H1155 0.929 . S
C1129 O1142 1.240 . S
C1129 O1143 1.289 . S
C1130 O1144 1.258 . S
C1130 O1145 1.256 . S
C1131 La1121 2.928 . S
C1131 C1132 1.503 . S
C1131 O1146 1.261 . S
C1131 O1147 1.243 . S
C1132 C1131 1.503 . S
C1132 C1133 1.394 . S
C1132 C1137 1.373 . S
C1133 C1132 1.394 . S
C1133 C1134 1.380 . S
C1133 H1156 0.930 . S
C1134 C1133 1.380 . S
C1134 C1135 1.376 . S
C1134 H1157 0.930 . S
C1135 C1134 1.376 . S
C1135 C1136 1.370 . S
C1136 C1135 1.370 . S
C1136 C1137 1.396 . S
C1136 H1158 0.929 . S
C1137 C1132 1.373 . S
C1137 C1136 1.396 . S
C1137 H1159 0.929 . S
C1138 O1148 1.240 . S
C1138 O1149 1.289 . S
C1139 O1150 1.258 . S
C1139 O1151 1.256 . S
O1140 La1120 2.521 . S
O1140 C1122 1.261 . S
O1141 La1120 2.628 . S
O1141 C1122 1.243 . S
O1142 La1120 2.554 . S
O1142 C1129 1.240 . S
O1143 La1120 2.757 . S
O1143 La1121 2.482 . S
O1143 C1129 1.289 . S
O1144 La1120 2.470 . S
O1144 C1130 1.258 . S
O1145 La1121 2.503 . S
O1145 C1130 1.256 . S
O1146 La1121 2.521 . S
O1146 C1131 1.261 . S
O1147 La1121 2.628 . S
O1147 C1131 1.243 . S
O1148 La1121 2.554 . S
O1148 C1138 1.240 . S
O1149 La1120 2.482 . S
O1149 La1121 2.757 . S
O1149 C1138 1.289 . S
O1150 La1121 2.470 . S
O1150 C1139 1.258 . S
O1151 La1120 2.503 . S
O1151 C1139 1.256 . S
H1152 C1124 0.930 . S
H1153 C1125 0.930 . S
H1154 C1127 0.929 . S
H1155 C1128 0.929 . S
H1156 C1133 0.930 . S
H1157 C1134 0.930 . S
H1158 C1136 0.929 . S
H1159 C1137 0.929 . S
La1160 C1162 2.928 . S
La1160 O1180 2.521 . S
La1160 O1181 2.628 . S
La1160 O1182 2.554 1_554 S
La1160 O1183 2.757 1_554 S
La1160 O1184 2.470 . S
La1160 O1189 2.482 . S
La1160 O1191 2.503 1_554 S
La1161 C1171 2.928 1_554 S
La1161 O1183 2.482 1_554 S
La1161 O1185 2.503 . S
La1161 O1186 2.521 1_554 S
La1161 O1187 2.628 1_554 S
La1161 O1188 2.554 . S
La1161 O1189 2.757 . S
La1161 O1190 2.470 1_554 S
C1162 La1160 2.928 . S
C1162 C1163 1.503 . S
C1162 O1180 1.261 . S
C1162 O1181 1.243 . S
C1163 C1162 1.503 . S
C1163 C1164 1.394 . S
C1163 C1168 1.373 . S
C1164 C1163 1.394 . S
C1164 C1165 1.380 . S
C1164 H1192 0.930 . S
C1165 C1164 1.380 . S
C1165 C1166 1.376 . S
C1165 H1193 0.930 . S
C1166 C1165 1.376 . S
C1166 C1167 1.370 . S
C1167 C1166 1.370 . S
C1167 C1168 1.396 . S
C1167 H1194 0.929 . S
C1168 C1163 1.373 . S
C1168 C1167 1.396 . S
C1168 H1195 0.929 . S
C1169 O1182 1.240 . S
C1169 O1183 1.289 . S
C1170 O1184 1.258 . S
C1170 O1185 1.256 . S
C1171 La1161 2.928 1_556 S
C1171 C1172 1.503 . S
C1171 O1186 1.261 . S
C1171 O1187 1.243 . S
C1172 C1171 1.503 . S
C1172 C1173 1.394 . S
C1172 C1177 1.373 . S
C1173 C1172 1.394 . S
C1173 C1174 1.380 . S
C1173 H1196 0.930 . S
C1174 C1173 1.380 . S
C1174 C1175 1.376 . S
C1174 H1197 0.930 . S
C1175 C1174 1.376 . S
C1175 C1176 1.370 . S
C1176 C1175 1.370 . S
C1176 C1177 1.396 . S
C1176 H1198 0.929 . S
C1177 C1172 1.373 . S
C1177 C1176 1.396 . S
C1177 H1199 0.929 . S
C1178 O1188 1.240 . S
C1178 O1189 1.289 . S
C1179 O1190 1.258 . S
C1179 O1191 1.256 . S
O1180 La1160 2.521 . S
O1180 C1162 1.261 . S
O1181 La1160 2.628 . S
O1181 C1162 1.243 . S
O1182 La1160 2.554 1_556 S
O1182 C1169 1.240 . S
O1183 La1160 2.757 1_556 S
O1183 La1161 2.482 1_556 S
O1183 C1169 1.289 . S
O1184 La1160 2.470 . S
O1184 C1170 1.258 . S
O1185 La1161 2.503 . S
O1185 C1170 1.256 . S
O1186 La1161 2.521 1_556 S
O1186 C1171 1.261 . S
O1187 La1161 2.628 1_556 S
O1187 C1171 1.243 . S
O1188 La1161 2.554 . S
O1188 C1178 1.240 . S
O1189 La1160 2.482 . S
O1189 La1161 2.757 . S
O1189 C1178 1.289 . S
O1190 La1161 2.470 1_556 S
O1190 C1179 1.258 . S
O1191 La1160 2.503 1_556 S
O1191 C1179 1.256 . S
H1192 C1164 0.930 . S
H1193 C1165 0.930 . S
H1194 C1167 0.929 . S
H1195 C1168 0.929 . S
H1196 C1173 0.930 . S
H1197 C1174 0.930 . S
H1198 C1176 0.929 . S
H1199 C1177 0.929 . S
La1200 C1202 2.928 . S
La1200 O1220 2.521 . S
La1200 O1221 2.628 . S
La1200 O1222 2.554 . S
La1200 O1223 2.757 . S
La1200 O1224 2.470 . S
La1200 O1229 2.482 . S
La1200 O1231 2.503 . S
La1201 C1211 2.928 . S
La1201 O1223 2.482 . S
La1201 O1225 2.503 . S
La1201 O1226 2.521 . S
La1201 O1227 2.628 . S
La1201 O1228 2.554 . S
La1201 O1229 2.757 . S
La1201 O1230 2.470 . S
C1202 La1200 2.928 . S
C1202 C1203 1.503 1_455 S
C1202 O1220 1.261 . S
C1202 O1221 1.243 . S
C1203 C1202 1.503 1_655 S
C1203 C1204 1.394 . S
C1203 C1208 1.373 . S
C1204 C1203 1.394 . S
C1204 C1205 1.380 . S
C1204 H1232 0.930 . S
C1205 C1204 1.380 . S
C1205 C1206 1.376 . S
C1205 H1233 0.930 . S
C1206 C1205 1.376 . S
C1206 C1207 1.370 . S
C1207 C1206 1.370 . S
C1207 C1208 1.396 . S
C1207 H1234 0.929 . S
C1208 C1203 1.373 . S
C1208 C1207 1.396 . S
C1208 H1235 0.929 1_655 S
C1209 O1222 1.240 . S
C1209 O1223 1.289 . S
C1210 O1224 1.258 . S
C1210 O1225 1.256 . S
C1211 La1201 2.928 . S
C1211 C1212 1.503 . S
C1211 O1226 1.261 . S
C1211 O1227 1.243 . S
C1212 C1211 1.503 . S
C1212 C1213 1.394 . S
C1212 C1217 1.373 . S
C1213 C1212 1.394 . S
C1213 C1214 1.380 . S
C1213 H1236 0.930 . S
C1214 C1213 1.380 . S
C1214 C1215 1.376 . S
C1214 H1237 0.930 . S
C1215 C1214 1.376 . S
C1215 C1216 1.370 . S
C1216 C1215 1.370 . S
C1216 C1217 1.396 . S
C1216 H1238 0.929 . S
C1217 C1212 1.373 . S
C1217 C1216 1.396 . S
C1217 H1239 0.929 . S
C1218 O1228 1.240 . S
C1218 O1229 1.289 . S
C1219 O1230 1.258 . S
C1219 O1231 1.256 . S
O1220 La1200 2.521 . S
O1220 C1202 1.261 . S
O1221 La1200 2.628 . S
O1221 C1202 1.243 . S
O1222 La1200 2.554 . S
O1222 C1209 1.240 . S
O1223 La1200 2.757 . S
O1223 La1201 2.482 . S
O1223 C1209 1.289 . S
O1224 La1200 2.470 . S
O1224 C1210 1.258 . S
O1225 La1201 2.503 . S
O1225 C1210 1.256 . S
O1226 La1201 2.521 . S
O1226 C1211 1.261 . S
O1227 La1201 2.628 . S
O1227 C1211 1.243 . S
O1228 La1201 2.554 . S
O1228 C1218 1.240 . S
O1229 La1200 2.482 . S
O1229 La1201 2.757 . S
O1229 C1218 1.289 . S
O1230 La1201 2.470 . S
O1230 C1219 1.258 . S
O1231 La1200 2.503 . S
O1231 C1219 1.256 . S
H1232 C1204 0.930 . S
H1233 C1205 0.930 . S
H1234 C1207 0.929 . S
H1235 C1208 0.929 1_455 S
H1236 C1213 0.930 . S
H1237 C1214 0.930 . S
H1238 C1216 0.929 . S
H1239 C1217 0.929 . S
La1240 C1242 2.928 . S
La1240 O1260 2.521 . S
La1240 O1261 2.628 . S
La1240 O1262 2.554 . S
La1240 O1263 2.757 . S
La1240 O1264 2.470 . S
La1240 O1269 2.482 . S
La1240 O1271 2.503 . S
La1241 C1251 2.928 . S
La1241 O1263 2.482 . S
La1241 O1265 2.503 . S
La1241 O1266 2.521 . S
La1241 O1267 2.628 . S
La1241 O1268 2.554 . S
La1241 O1269 2.757 . S
La1241 O1270 2.470 . S
C1242 La1240 2.928 . S
C1242 C1243 1.503 . S
C1242 O1260 1.261 . S
C1242 O1261 1.243 . S
C1243 C1242 1.503 . S
C1243 C1244 1.394 . S
C1243 C1248 1.373 . S
C1244 C1243 1.394 . S
C1244 C1245 1.380 . S
C1244 H1272 0.930 . S
C1245 C1244 1.380 . S
C1245 C1246 1.376 . S
C1245 H1273 0.930 . S
C1246 C1245 1.376 . S
C1246 C1247 1.370 . S
C1247 C1246 1.370 . S
C1247 C1248 1.396 . S
C1247 H1274 0.929 . S
C1248 C1243 1.373 . S
C1248 C1247 1.396 . S
C1248 H1275 0.929 . S
C1249 O1262 1.240 . S
C1249 O1263 1.289 . S
C1250 O1264 1.258 . S
C1250 O1265 1.256 . S
C1251 La1241 2.928 . S
C1251 C1252 1.503 . S
C1251 O1266 1.261 . S
C1251 O1267 1.243 . S
C1252 C1251 1.503 . S
C1252 C1253 1.394 . S
C1252 C1257 1.373 . S
C1253 C1252 1.394 . S
C1253 C1254 1.380 . S
C1253 H1276 0.930 . S
C1254 C1253 1.380 . S
C1254 C1255 1.376 . S
C1254 H1277 0.930 . S
C1255 C1254 1.376 . S
C1255 C1256 1.370 . S
C1256 C1255 1.370 . S
C1256 C1257 1.396 . S
C1256 H1278 0.929 . S
C1257 C1252 1.373 . S
C1257 C1256 1.396 . S
C1257 H1279 0.929 . S
C1258 O1268 1.240 . S
C1258 O1269 1.289 . S
C1259 O1270 1.258 . S
C1259 O1271 1.256 . S
O1260 La1240 2.521 . S
O1260 C1242 1.261 . S
O1261 La1240 2.628 . S
O1261 C1242 1.243 . S
O1262 La1240 2.554 . S
O1262 C1249 1.240 . S
O1263 La1240 2.757 . S
O1263 La1241 2.482 . S
O1263 C1249 1.289 . S
O1264 La1240 2.470 . S
O1264 C1250 1.258 . S
O1265 La1241 2.503 . S
O1265 C1250 1.256 . S
O1266 La1241 2.521 . S
O1266 C1251 1.261 . S
O1267 La1241 2.628 . S
O1267 C1251 1.243 . S
O1268 La1241 2.554 . S
O1268 C1258 1.240 . S
O1269 La1240 2.482 . S
O1269 La1241 2.757 . S
O1269 C1258 1.289 . S
O1270 La1241 2.470 . S
O1270 C1259 1.258 . S
O1271 La1240 2.503 . S
O1271 C1259 1.256 . S
H1272 C1244 0.930 . S
H1273 C1245 0.930 . S
H1274 C1247 0.929 . S
H1275 C1248 0.929 . S
H1276 C1253 0.930 . S
H1277 C1254 0.930 . S
H1278 C1256 0.929 . S
H1279 C1257 0.929 . S
C6 C139 0.558 . S
C19 C46 0.558 . S
C86 C59 0.558 . S
C99 C126 0.558 . S
C219 C166 0.558 . S
C206 C259 0.558 . S
C299 C246 0.558 . S
C179 C286 0.558 . S
C335 C450 0.558 . S
C375 C330 0.558 . S
C415 C370 0.558 . S
C455 C410 0.558 . S
C495 C530 0.558 . S
C535 C570 0.558 . S
C610 C575 0.558 . S
C490 C615 0.558 . S
C646 C779 0.558 . S
C659 C686 0.558 . S
C699 C726 0.558 . S
C766 C739 0.558 . S
C806 C859 0.558 . S
C899 C846 0.558 . S
C886 C939 0.558 . S
C819 C926 0.558 . S
C1090 C975 0.558 . S
C970 C1015 0.558 . S
C1055 C1010 0.558 . S
C1050 C1095 0.558 . S
C1170 C1135 0.558 . S
C1210 C1175 0.558 . S
C1250 C1215 0.558 . S
C1255 C1130 0.558 . S
C1086 C9 1.901 . S
C49 C326 1.902 . S
C89 C1006 1.902 . S
C129 C406 1.902 . S
C169 C1166 1.902 . S
C566 C209 1.902 . S
C1246 C249 1.902 . S
C289 C486 1.902 . S
C338 C775 1.902 . S
C15 C378 1.902 . S
C695 C418 1.902 . S
C95 C458 1.902 . S
C855 C498 1.902 . S
C255 C538 1.902 . S
C578 C935 1.902 . S
C618 C175 1.902 . S
C649 C446 1.902 . S
C689 C966 1.902 . S
C729 C366 1.901 . S
C769 C1046 1.902 . S
C809 C526 1.902 . S
C849 C1206 1.902 . S
C606 C889 1.902 . S
C929 C1126 1.902 . S
C135 C978 1.902 . S
C655 C1018 1.902 . S
C55 C1058 1.902 . S
C735 C1098 1.902 . S
C215 C1138 1.902 . S
C1178 C895 1.902 . S
C1218 C295 1.902 . S
C815 C1258 1.902 . S
C18 C178 2.896 1_545 S
C58 C218 2.897 . S
C98 C258 2.896 1_565 S
C298 C138 2.897 1_554 S
C489 C329 2.896 1_545 S
C529 C369 2.897 . S
C409 C569 2.896 1_545 S
C449 C609 2.897 1_554 S
C658 C818 2.896 . S
C858 C698 2.897 1_554 S
C898 C738 2.896 . S
C938 C778 2.897 . S
C1129 C969 2.896 . S
C1009 C1169 2.897 1_554 S
C1209 C1049 2.896 . S
C1089 C1249 2.897 . S
C290 C10 3.871 . S
C50 C170 3.871 . S
C90 C210 3.871 . S
C250 C130 3.871 . S
C339 C619 3.871 . S
C499 C379 3.871 . S
C539 C419 3.871 . S
C459 C579 3.871 . S
C650 C930 3.871 . S
C810 C690 3.871 . S
C850 C730 3.871 . S
C890 C770 3.871 . S
C979 C1259 3.871 . S
C1139 C1019 3.871 . S
C1059 C1179 3.871 . S
C1219 C1099 3.871 . S
