# Generated by pormake.
# Topology wio, (6)-cn, num edge types: 1
# Building blocks:
#     Node 0, Type 0, BuildingBlock: BETFEN_clean_sbu_0, # of connection points: 6
#     Node 1, Type 0, BuildingBlock: BETFEN_clean_sbu_0, # of connection points: 6
#     Node 2, Type 0, BuildingBlock: BETFEN_clean_sbu_0, # of connection points: 6
#     Node 3, Type 0, BuildingBlock: BETFEN_clean_sbu_0, # of connection points: 6
#     Node 4, Type 0, BuildingBlock: BETFEN_clean_sbu_0, # of connection points: 6
#     Node 5, Type 0, BuildingBlock: BETFEN_clean_sbu_0, # of connection points: 6
#     Node 6, Type 0, BuildingBlock: BETFEN_clean_sbu_0, # of connection points: 6
#     Node 7, Type 0, BuildingBlock: BETFEN_clean_sbu_0, # of connection points: 6
#     Node 8, Type 0, BuildingBlock: BETFEN_clean_sbu_0, # of connection points: 6
#     Node 9, Type 0, BuildingBlock: BETFEN_clean_sbu_0, # of connection points: 6
#     Node 10, Type 0, BuildingBlock: BETFEN_clean_sbu_0, # of connection points: 6
#     Node 11, Type 0, BuildingBlock: BETFEN_clean_sbu_0, # of connection points: 6
#     Node 12, Type 0, BuildingBlock: BETFEN_clean_sbu_0, # of connection points: 6
#     Node 13, Type 0, BuildingBlock: BETFEN_clean_sbu_0, # of connection points: 6
#     Node 14, Type 0, BuildingBlock: BETFEN_clean_sbu_0, # of connection points: 6
#     Node 15, Type 0, BuildingBlock: BETFEN_clean_sbu_0, # of connection points: 6
#     Node 16, Type 0, BuildingBlock: BETFEN_clean_sbu_0, # of connection points: 6
#     Node 17, Type 0, BuildingBlock: BETFEN_clean_sbu_0, # of connection points: 6
#     Node 18, Type 0, BuildingBlock: BETFEN_clean_sbu_0, # of connection points: 6
#     Node 19, Type 0, BuildingBlock: BETFEN_clean_sbu_0, # of connection points: 6
#     Node 20, Type 0, BuildingBlock: BETFEN_clean_sbu_0, # of connection points: 6
#     Node 21, Type 0, BuildingBlock: BETFEN_clean_sbu_0, # of connection points: 6
#     Node 22, Type 0, BuildingBlock: BETFEN_clean_sbu_0, # of connection points: 6
#     Node 23, Type 0, BuildingBlock: BETFEN_clean_sbu_0, # of connection points: 6
#     Node 24, Type 0, BuildingBlock: BETFEN_clean_sbu_0, # of connection points: 6
#     Node 25, Type 0, BuildingBlock: BETFEN_clean_sbu_0, # of connection points: 6
#     Node 26, Type 0, BuildingBlock: BETFEN_clean_sbu_0, # of connection points: 6
#     Node 27, Type 0, BuildingBlock: BETFEN_clean_sbu_0, # of connection points: 6
#     Node 28, Type 0, BuildingBlock: BETFEN_clean_sbu_0, # of connection points: 6
#     Node 29, Type 0, BuildingBlock: BETFEN_clean_sbu_0, # of connection points: 6
#     Node 30, Type 0, BuildingBlock: BETFEN_clean_sbu_0, # of connection points: 6
#     Node 31, Type 0, BuildingBlock: BETFEN_clean_sbu_0, # of connection points: 6
#     Edge 32, Type (0, 0), BuildingBlock: XUDNAN_clean_linker_2, # of connection points: 2
#     Edge 33, Type (0, 0), BuildingBlock: XUDNAN_clean_linker_2, # of connection points: 2
#     Edge 34, Type (0, 0), BuildingBlock: XUDNAN_clean_linker_2, # of connection points: 2
#     Edge 35, Type (0, 0), BuildingBlock: XUDNAN_clean_linker_2, # of connection points: 2
#     Edge 36, Type (0, 0), BuildingBlock: XUDNAN_clean_linker_2, # of connection points: 2
#     Edge 37, Type (0, 0), BuildingBlock: XUDNAN_clean_linker_2, # of connection points: 2
#     Edge 38, Type (0, 0), BuildingBlock: XUDNAN_clean_linker_2, # of connection points: 2
#     Edge 39, Type (0, 0), BuildingBlock: XUDNAN_clean_linker_2, # of connection points: 2
#     Edge 40, Type (0, 0), BuildingBlock: XUDNAN_clean_linker_2, # of connection points: 2
#     Edge 41, Type (0, 0), BuildingBlock: XUDNAN_clean_linker_2, # of connection points: 2
#     Edge 42, Type (0, 0), BuildingBlock: XUDNAN_clean_linker_2, # of connection points: 2
#     Edge 43, Type (0, 0), BuildingBlock: XUDNAN_clean_linker_2, # of connection points: 2
#     Edge 44, Type (0, 0), BuildingBlock: XUDNAN_clean_linker_2, # of connection points: 2
#     Edge 45, Type (0, 0), BuildingBlock: XUDNAN_clean_linker_2, # of connection points: 2
#     Edge 46, Type (0, 0), BuildingBlock: XUDNAN_clean_linker_2, # of connection points: 2
#     Edge 47, Type (0, 0), BuildingBlock: XUDNAN_clean_linker_2, # of connection points: 2
#     Edge 48, Type (0, 0), BuildingBlock: XUDNAN_clean_linker_2, # of connection points: 2
#     Edge 49, Type (0, 0), BuildingBlock: XUDNAN_clean_linker_2, # of connection points: 2
#     Edge 50, Type (0, 0), BuildingBlock: XUDNAN_clean_linker_2, # of connection points: 2
#     Edge 51, Type (0, 0), BuildingBlock: XUDNAN_clean_linker_2, # of connection points: 2
#     Edge 52, Type (0, 0), BuildingBlock: XUDNAN_clean_linker_2, # of connection points: 2
#     Edge 53, Type (0, 0), BuildingBlock: XUDNAN_clean_linker_2, # of connection points: 2
#     Edge 54, Type (0, 0), BuildingBlock: XUDNAN_clean_linker_2, # of connection points: 2
#     Edge 55, Type (0, 0), BuildingBlock: XUDNAN_clean_linker_2, # of connection points: 2
#     Edge 56, Type (0, 0), BuildingBlock: XUDNAN_clean_linker_2, # of connection points: 2
#     Edge 57, Type (0, 0), BuildingBlock: XUDNAN_clean_linker_2, # of connection points: 2
#     Edge 58, Type (0, 0), BuildingBlock: XUDNAN_clean_linker_2, # of connection points: 2
#     Edge 59, Type (0, 0), BuildingBlock: XUDNAN_clean_linker_2, # of connection points: 2
#     Edge 60, Type (0, 0), BuildingBlock: XUDNAN_clean_linker_2, # of connection points: 2
#     Edge 61, Type (0, 0), BuildingBlock: XUDNAN_clean_linker_2, # of connection points: 2
#     Edge 62, Type (0, 0), BuildingBlock: XUDNAN_clean_linker_2, # of connection points: 2
#     Edge 63, Type (0, 0), BuildingBlock: XUDNAN_clean_linker_2, # of connection points: 2
#     Edge 64, Type (0, 0), BuildingBlock: XUDNAN_clean_linker_2, # of connection points: 2
#     Edge 65, Type (0, 0), BuildingBlock: XUDNAN_clean_linker_2, # of connection points: 2
#     Edge 66, Type (0, 0), BuildingBlock: XUDNAN_clean_linker_2, # of connection points: 2
#     Edge 67, Type (0, 0), BuildingBlock: XUDNAN_clean_linker_2, # of connection points: 2
#     Edge 68, Type (0, 0), BuildingBlock: XUDNAN_clean_linker_2, # of connection points: 2
#     Edge 69, Type (0, 0), BuildingBlock: XUDNAN_clean_linker_2, # of connection points: 2
#     Edge 70, Type (0, 0), BuildingBlock: XUDNAN_clean_linker_2, # of connection points: 2
#     Edge 71, Type (0, 0), BuildingBlock: XUDNAN_clean_linker_2, # of connection points: 2
#     Edge 72, Type (0, 0), BuildingBlock: XUDNAN_clean_linker_2, # of connection points: 2
#     Edge 73, Type (0, 0), BuildingBlock: XUDNAN_clean_linker_2, # of connection points: 2
#     Edge 74, Type (0, 0), BuildingBlock: XUDNAN_clean_linker_2, # of connection points: 2
#     Edge 75, Type (0, 0), BuildingBlock: XUDNAN_clean_linker_2, # of connection points: 2
#     Edge 76, Type (0, 0), BuildingBlock: XUDNAN_clean_linker_2, # of connection points: 2
#     Edge 77, Type (0, 0), BuildingBlock: XUDNAN_clean_linker_2, # of connection points: 2
#     Edge 78, Type (0, 0), BuildingBlock: XUDNAN_clean_linker_2, # of connection points: 2
#     Edge 79, Type (0, 0), BuildingBlock: XUDNAN_clean_linker_2, # of connection points: 2
#     Edge 80, Type (0, 0), BuildingBlock: XUDNAN_clean_linker_2, # of connection points: 2
#     Edge 81, Type (0, 0), BuildingBlock: XUDNAN_clean_linker_2, # of connection points: 2
#     Edge 82, Type (0, 0), BuildingBlock: XUDNAN_clean_linker_2, # of connection points: 2
#     Edge 83, Type (0, 0), BuildingBlock: XUDNAN_clean_linker_2, # of connection points: 2
#     Edge 84, Type (0, 0), BuildingBlock: XUDNAN_clean_linker_2, # of connection points: 2
#     Edge 85, Type (0, 0), BuildingBlock: XUDNAN_clean_linker_2, # of connection points: 2
#     Edge 86, Type (0, 0), BuildingBlock: XUDNAN_clean_linker_2, # of connection points: 2
#     Edge 87, Type (0, 0), BuildingBlock: XUDNAN_clean_linker_2, # of connection points: 2
#     Edge 88, Type (0, 0), BuildingBlock: XUDNAN_clean_linker_2, # of connection points: 2
#     Edge 89, Type (0, 0), BuildingBlock: XUDNAN_clean_linker_2, # of connection points: 2
#     Edge 90, Type (0, 0), BuildingBlock: XUDNAN_clean_linker_2, # of connection points: 2
#     Edge 91, Type (0, 0), BuildingBlock: XUDNAN_clean_linker_2, # of connection points: 2
#     Edge 92, Type (0, 0), BuildingBlock: XUDNAN_clean_linker_2, # of connection points: 2
#     Edge 93, Type (0, 0), BuildingBlock: XUDNAN_clean_linker_2, # of connection points: 2
#     Edge 94, Type (0, 0), BuildingBlock: XUDNAN_clean_linker_2, # of connection points: 2
#     Edge 95, Type (0, 0), BuildingBlock: XUDNAN_clean_linker_2, # of connection points: 2
#     Edge 96, Type (0, 0), BuildingBlock: XUDNAN_clean_linker_2, # of connection points: 2
#     Edge 97, Type (0, 0), BuildingBlock: XUDNAN_clean_linker_2, # of connection points: 2
#     Edge 98, Type (0, 0), BuildingBlock: XUDNAN_clean_linker_2, # of connection points: 2
#     Edge 99, Type (0, 0), BuildingBlock: XUDNAN_clean_linker_2, # of connection points: 2
#     Edge 100, Type (0, 0), BuildingBlock: XUDNAN_clean_linker_2, # of connection points: 2
#     Edge 101, Type (0, 0), BuildingBlock: XUDNAN_clean_linker_2, # of connection points: 2
#     Edge 102, Type (0, 0), BuildingBlock: XUDNAN_clean_linker_2, # of connection points: 2
#     Edge 103, Type (0, 0), BuildingBlock: XUDNAN_clean_linker_2, # of connection points: 2
#     Edge 104, Type (0, 0), BuildingBlock: XUDNAN_clean_linker_2, # of connection points: 2
#     Edge 105, Type (0, 0), BuildingBlock: XUDNAN_clean_linker_2, # of connection points: 2
#     Edge 106, Type (0, 0), BuildingBlock: XUDNAN_clean_linker_2, # of connection points: 2
#     Edge 107, Type (0, 0), BuildingBlock: XUDNAN_clean_linker_2, # of connection points: 2
#     Edge 108, Type (0, 0), BuildingBlock: XUDNAN_clean_linker_2, # of connection points: 2
#     Edge 109, Type (0, 0), BuildingBlock: XUDNAN_clean_linker_2, # of connection points: 2
#     Edge 110, Type (0, 0), BuildingBlock: XUDNAN_clean_linker_2, # of connection points: 2
#     Edge 111, Type (0, 0), BuildingBlock: XUDNAN_clean_linker_2, # of connection points: 2
#     Edge 112, Type (0, 0), BuildingBlock: XUDNAN_clean_linker_2, # of connection points: 2
#     Edge 113, Type (0, 0), BuildingBlock: XUDNAN_clean_linker_2, # of connection points: 2
#     Edge 114, Type (0, 0), BuildingBlock: XUDNAN_clean_linker_2, # of connection points: 2
#     Edge 115, Type (0, 0), BuildingBlock: XUDNAN_clean_linker_2, # of connection points: 2
#     Edge 116, Type (0, 0), BuildingBlock: XUDNAN_clean_linker_2, # of connection points: 2
#     Edge 117, Type (0, 0), BuildingBlock: XUDNAN_clean_linker_2, # of connection points: 2
#     Edge 118, Type (0, 0), BuildingBlock: XUDNAN_clean_linker_2, # of connection points: 2
#     Edge 119, Type (0, 0), BuildingBlock: XUDNAN_clean_linker_2, # of connection points: 2
#     Edge 120, Type (0, 0), BuildingBlock: XUDNAN_clean_linker_2, # of connection points: 2
#     Edge 121, Type (0, 0), BuildingBlock: XUDNAN_clean_linker_2, # of connection points: 2
#     Edge 122, Type (0, 0), BuildingBlock: XUDNAN_clean_linker_2, # of connection points: 2
#     Edge 123, Type (0, 0), BuildingBlock: XUDNAN_clean_linker_2, # of connection points: 2
#     Edge 124, Type (0, 0), BuildingBlock: XUDNAN_clean_linker_2, # of connection points: 2
#     Edge 125, Type (0, 0), BuildingBlock: XUDNAN_clean_linker_2, # of connection points: 2
#     Edge 126, Type (0, 0), BuildingBlock: XUDNAN_clean_linker_2, # of connection points: 2
#     Edge 127, Type (0, 0), BuildingBlock: XUDNAN_clean_linker_2, # of connection points: 2
# Relax obj value: 0.202
# Max RMSD: 0.236
# Mean RMSD: 0.236
data_MOF--net-wio--node1-BETFEN_clean_sbu_0--edge1-XUDNAN_clean_linker_2
_symmetry_space_group_name_H-M    P1
_symmetry_Int_Tables_number       1
_symmetry_cell_setting            triclinic
loop_
_symmetry_equiv_pos_as_xyz
'x, y, z'
_cell_length_a     62.49926
_cell_length_b     62.562413
_cell_length_c     55.410658
_cell_angle_alpha  89.984402
_cell_angle_beta   89.797722
_cell_angle_gamma 90.006167
loop_
_atom_site_label
_atom_site_type_symbol
_atom_site_fract_x
_atom_site_fract_y
_atom_site_fract_z
_atom_type_partial_charge
Pr0 Pr 0.14722 0.11622 0.28463 0.0
Pr1 Pr 0.09955 0.12267 0.29171 0.0
C2 C 0.18798 0.10983 0.26956 0.0
C3 C 0.20232 0.11172 0.24819 0.0
C4 C 0.21931 0.12648 0.24844 0.0
C5 C 0.23436 0.12703 0.22963 0.0
C6 C 0.23291 0.11263 0.21025 0.0
C7 C 0.21545 0.09842 0.20953 0.0
C8 C 0.20032 0.09797 0.22824 0.0
C9 C 0.13615 0.15345 0.3096 0.0
C10 C 0.1174 0.13232 0.23749 0.0
C11 C 0.0608 0.13382 0.30986 0.0
C12 C 0.04773 0.13147 0.33208 0.0
C13 C 0.04987 0.11368 0.34736 0.0
C14 C 0.03707 0.11173 0.36812 0.0
C15 C 0.02189 0.12757 0.37419 0.0
C16 C 0.02005 0.14546 0.35887 0.0
C17 C 0.03279 0.14735 0.3381 0.0
C18 C 0.11002 0.08328 0.27104 0.0
C19 C 0.12804 0.09775 0.33515 0.0
O20 O 0.17338 0.09482 0.26966 0.0
O21 O 0.18146 0.12753 0.2797 0.0
O22 O 0.12701 0.14684 0.29065 0.0
O23 O 0.15157 0.14081 0.31603 0.0
O24 O 0.10203 0.13761 0.25284 0.0
O25 O 0.13469 0.12214 0.24496 0.0
O26 O 0.0777 0.14606 0.31124 0.0
O27 O 0.06403 0.1167 0.29681 0.0
O28 O 0.11979 0.09202 0.28827 0.0
O29 O 0.09384 0.09481 0.26407 0.0
O30 O 0.14392 0.09539 0.31956 0.0
O31 O 0.11113 0.10959 0.32972 0.0
H32 H 0.22134 0.1372 0.26362 0.0
H33 H 0.2477 0.13804 0.23082 0.0
H34 H 0.21373 0.08729 0.19469 0.0
H35 H 0.1874 0.08646 0.22735 0.0
H36 H 0.06135 0.10124 0.34317 0.0
H37 H 0.03886 0.09759 0.3792 0.0
H38 H 0.00891 0.1582 0.36304 0.0
H39 H 0.03097 0.16129 0.32669 0.0
Pr40 Pr 0.14662 0.90262 0.53185 0.0
Pr41 Pr 0.14369 0.85538 0.54485 0.0
C42 C 0.15572 0.94351 0.51969 0.0
C43 C 0.15014 0.96015 0.50173 0.0
C44 C 0.16655 0.97235 0.49118 0.0
C45 C 0.16187 0.98828 0.47423 0.0
C46 C 0.1406 0.99247 0.46747 0.0
C47 C 0.12417 0.98005 0.47792 0.0
C48 C 0.12889 0.96402 0.49481 0.0
C49 C 0.10618 0.88919 0.54887 0.0
C50 C 0.1331 0.86987 0.4886 0.0
C51 C 0.13537 0.81666 0.56489 0.0
C52 C 0.13447 0.8039 0.58767 0.0
C53 C 0.11465 0.79735 0.59723 0.0
C54 C 0.11362 0.78323 0.61692 0.0
C55 C 0.1324 0.77513 0.62756 0.0
C56 C 0.15224 0.78212 0.61832 0.0
C57 C 0.15326 0.79626 0.59867 0.0
C58 C 0.18229 0.86594 0.52164 0.0
C59 C 0.16722 0.88806 0.5846 0.0
O60 O 0.16652 0.92709 0.51162 0.0
O61 O 0.14142 0.93835 0.53602 0.0
O62 O 0.12403 0.88409 0.55744 0.0
O63 O 0.1087 0.9015 0.53015 0.0
O64 O 0.12699 0.85651 0.50599 0.0
O65 O 0.14422 0.88706 0.49389 0.0
O66 O 0.12046 0.83092 0.56074 0.0
O67 O 0.15414 0.82241 0.55669 0.0
O68 O 0.17264 0.87699 0.53728 0.0
O69 O 0.1708 0.8492 0.51645 0.0
O70 O 0.16343 0.90393 0.56946 0.0
O71 O 0.1612 0.86819 0.57983 0.0
H72 H 0.18307 0.96963 0.4962 0.0
H73 H 0.17491 0.99763 0.4668 0.0
H74 H 0.10764 0.9826 0.4729 0.0
H75 H 0.11592 0.9547 0.50245 0.0
H76 H 0.09986 0.80267 0.58903 0.0
H77 H 0.09803 0.77811 0.62326 0.0
H78 H 0.16706 0.77658 0.6262 0.0
H79 H 0.16885 0.80082 0.5918 0.0
Pr80 Pr 0.3648 0.8933 0.78377 0.0
Pr81 Pr 0.41206 0.88534 0.79328 0.0
C82 C 0.32507 0.90211 0.76711 0.0
C83 C 0.31076 0.90057 0.74572 0.0
C84 C 0.29581 0.88381 0.74379 0.0
C85 C 0.28046 0.88375 0.72537 0.0
C86 C 0.27952 0.90058 0.70858 0.0
C87 C 0.29501 0.91688 0.70995 0.0
C88 C 0.31038 0.91691 0.72828 0.0
C89 C 0.37381 0.85531 0.80843 0.0
C90 C 0.39579 0.87601 0.73833 0.0
C91 C 0.44955 0.87246 0.81307 0.0
C92 C 0.46368 0.87646 0.83402 0.0
C93 C 0.46333 0.89596 0.84656 0.0
C94 C 0.47691 0.89929 0.86636 0.0
C95 C 0.49108 0.88314 0.87417 0.0
C96 C 0.49122 0.86361 0.86152 0.0
C97 C 0.47769 0.86035 0.84172 0.0
C98 C 0.4039 0.92656 0.77485 0.0
C99 C 0.38237 0.91044 0.83554 0.0
O100 O 0.34088 0.91582 0.76649 0.0
O101 O 0.3299 0.8845 0.77857 0.0
O102 O 0.38399 0.86209 0.79015 0.0
O103 O 0.35819 0.86804 0.8141 0.0
O104 O 0.41034 0.8702 0.75434 0.0
O105 O 0.37873 0.88698 0.74496 0.0
O106 O 0.43121 0.86321 0.8175 0.0
O107 O 0.44819 0.88739 0.79662 0.0
O108 O 0.39261 0.91668 0.79007 0.0
O109 O 0.42045 0.91499 0.76908 0.0
O110 O 0.3675 0.91355 0.81902 0.0
O111 O 0.39921 0.89818 0.831 0.0
H112 H 0.29547 0.87108 0.75704 0.0
H113 H 0.26869 0.87105 0.72498 0.0
H114 H 0.29494 0.92995 0.69713 0.0
H115 H 0.32155 0.93012 0.72919 0.0
H116 H 0.4526 0.90864 0.84101 0.0
H117 H 0.47645 0.91464 0.87536 0.0
H118 H 0.50155 0.85065 0.86711 0.0
H119 H 0.47813 0.84512 0.83242 0.0
Pr120 Pr 0.36314 0.10899 0.03161 0.0
Pr121 Pr 0.36891 0.15598 0.04306 0.0
C122 C 0.35452 0.07001 1.01299 0.0
C123 C 0.36074 0.0545 0.99406 0.0
C124 C 0.38203 0.04772 0.99109 0.0
C125 C 0.38709 0.03153 0.97456 0.0
C126 C 0.37099 0.02181 0.96062 0.0
C127 C 0.34983 0.02916 0.96309 0.0
C128 C 0.34478 0.04528 0.97966 0.0
C129 C 0.40068 0.11846 0.05687 0.0
C130 C 0.38131 0.14131 0.98765 0.0
C131 C 0.38053 0.19362 0.06335 0.0
C132 C 0.37955 0.20718 0.08534 0.0
C133 C 0.36005 0.2138 0.09566 0.0
C134 C 0.35981 0.22782 0.11548 0.0
C135 C 0.37906 0.23549 0.12546 0.0
C136 C 0.3985 0.2286 0.11516 0.0
C137 C 0.39872 0.21467 0.09539 0.0
C138 C 0.3303 0.14703 1.02014 0.0
C139 C 0.34255 0.12412 0.08268 0.0
O140 O 0.34463 0.0874 1.00616 0.0
O141 O 0.36775 0.07315 0.03087 0.0
O142 O 0.39352 0.12907 0.03922 0.0
O143 O 0.38878 0.10194 0.06137 0.0
O144 O 0.38408 0.15669 1.00379 0.0
O145 O 0.37274 0.12284 0.99386 0.0
O146 O 0.3924 0.17641 0.06412 0.0
O147 O 0.3632 0.1912 0.05046 0.0
O148 O 0.33846 0.13597 0.0368 0.0
O149 O 0.34212 0.16356 1.01496 0.0
O150 O 0.34144 0.10974 0.0654 0.0
O151 O 0.35344 0.14218 0.07963 0.0
H152 H 0.39471 0.05463 1.00184 0.0
H153 H 0.4036 0.02649 0.97285 0.0
H154 H 0.33699 0.02192 0.95286 0.0
H155 H 0.32824 0.05018 0.98169 0.0
H156 H 0.34497 0.20833 0.08832 0.0
H157 H 0.34454 0.23256 0.12306 0.0
H158 H 0.41365 0.23438 0.12201 0.0
H159 H 0.41397 0.21002 0.08765 0.0
Pr160 Pr 0.15529 0.88955 0.26415 0.0
Pr161 Pr 0.10811 0.88662 0.25439 0.0
C162 C 0.19593 0.89285 0.28031 0.0
C163 C 0.20955 0.89174 0.30211 0.0
C164 C 0.22743 0.87813 0.30208 0.0
C165 C 0.24184 0.87821 0.32137 0.0
C166 C 0.23876 0.89207 0.34102 0.0
C167 C 0.22035 0.90505 0.3415 0.0
C168 C 0.20585 0.90487 0.32227 0.0
C169 C 0.14302 0.85306 0.23864 0.0
C170 C 0.1229 0.87719 0.31014 0.0
C171 C 0.06977 0.87619 0.23492 0.0
C172 C 0.0556 0.8788 0.21366 0.0
C173 C 0.03371 0.88281 0.21725 0.0
C174 C 0.01951 0.88306 0.19772 0.0
C175 C 0.02682 0.87919 0.17405 0.0
C176 C 0.04889 0.87575 0.17042 0.0
C177 C 0.06311 0.87557 0.18998 0.0
C178 C 0.11961 0.92676 0.27309 0.0
C179 C 0.14063 0.90952 0.21236 0.0
O180 O 0.18318 0.90929 0.27771 0.0
O181 O 0.18764 0.87497 0.27257 0.0
O182 O 0.13341 0.86031 0.25707 0.0
O183 O 0.15948 0.86467 0.23307 0.0
O184 O 0.10786 0.87264 0.29416 0.0
O185 O 0.14099 0.88616 0.30319 0.0
O186 O 0.08717 0.86483 0.23213 0.0
O187 O 0.07231 0.8924 0.24953 0.0
O188 O 0.13017 0.91596 0.25793 0.0
O189 O 0.10256 0.9162 0.27953 0.0
O190 O 0.15624 0.90878 0.22831 0.0
O191 O 0.12153 0.90116 0.2172 0.0
H192 H 0.23063 0.86788 0.28673 0.0
H193 H 0.25592 0.86816 0.32035 0.0
H194 H 0.21739 0.91571 0.35656 0.0
H195 H 0.19209 0.91538 0.32294 0.0
H196 H 0.02747 0.88516 0.23532 0.0
H197 H 1.00265 0.88555 0.20131 0.0
H198 H 0.05519 0.87305 0.15245 0.0
H199 H 0.07991 0.87248 0.18659 0.0
Pr200 Pr 0.37399 0.89851 0.51521 0.0
Pr201 Pr 0.37591 0.85124 0.50489 0.0
C202 C 0.37213 0.93927 0.5311 0.0
C203 C 0.36844 0.95369 0.5518 0.0
C204 C 0.3789 0.95097 0.57402 0.0
C205 C 0.3763 0.96608 0.59251 0.0
C206 C 0.36311 0.98407 0.58911 0.0
C207 C 0.35248 0.98647 0.56694 0.0
C208 C 0.35514 0.97148 0.54853 0.0
C209 C 0.40859 0.88611 0.48625 0.0
C210 C 0.38649 0.86602 0.56033 0.0
C211 C 0.38458 0.81236 0.48553 0.0
C212 C 0.38365 0.79896 0.46335 0.0
C213 C 0.36414 0.79211 0.45336 0.0
C214 C 0.36387 0.77808 0.43355 0.0
C215 C 0.38309 0.77056 0.42323 0.0
C216 C 0.40255 0.77765 0.43317 0.0
C217 C 0.40281 0.7916 0.45293 0.0
C218 C 0.33869 0.86267 0.52949 0.0
C219 C 0.3508 0.88413 0.46548 0.0
O220 O 0.35562 0.92927 0.52203 0.0
O221 O 0.38972 0.92795 0.53072 0.0
O222 O 0.40244 0.87645 0.50507 0.0
O223 O 0.39697 0.90282 0.48211 0.0
O224 O 0.39119 0.85122 0.54403 0.0
O225 O 0.37694 0.8839 0.55391 0.0
O226 O 0.39839 0.82806 0.486 0.0
O227 O 0.36678 0.81684 0.49691 0.0
O228 O 0.34711 0.87334 0.51256 0.0
O229 O 0.3497 0.84551 0.53423 0.0
O230 O 0.35227 0.89939 0.48173 0.0
O231 O 0.35982 0.86513 0.46895 0.0
H232 H 0.38926 0.93735 0.57702 0.0
H233 H 0.38452 0.96366 0.60947 0.0
H234 H 0.34245 1.00027 0.56357 0.0
H235 H 0.34709 0.97402 0.53148 0.0
H236 H 0.34906 0.79739 0.46097 0.0
H237 H 0.34858 0.77319 0.42626 0.0
H238 H 0.41769 0.772 0.42607 0.0
H239 H 0.41809 0.79633 0.46041 0.0
Pr240 Pr 0.35745 0.11578 0.76795 0.0
Pr241 Pr 0.40402 0.1202 0.75387 0.0
C242 C 0.31688 0.10587 0.78106 0.0
C243 C 0.29931 0.11152 0.79798 0.0
C244 C 0.27823 0.11223 0.78943 0.0
C245 C 0.2611 0.11594 0.80524 0.0
C246 C 0.26459 0.119 0.8301 0.0
C247 C 0.28579 0.11848 0.83864 0.0
C248 C 0.30297 0.11482 0.82276 0.0
C249 C 0.3688 0.15632 0.74941 0.0
C250 C 0.38997 0.13217 0.80985 0.0
C251 C 0.44226 0.12919 0.73284 0.0
C252 C 0.45475 0.13036 0.70985 0.0
C253 C 0.46179 0.15024 0.70103 0.0
C254 C 0.47575 0.15147 0.68115 0.0
C255 C 0.48319 0.13282 0.66958 0.0
C256 C 0.47571 0.11294 0.67808 0.0
C257 C 0.46172 0.11172 0.69791 0.0
C258 C 0.39618 0.08327 0.78083 0.0
C259 C 0.37187 0.09379 0.71617 0.0
O260 O 0.33385 0.09674 0.79017 0.0
O261 O 0.32134 0.11912 0.76346 0.0
O262 O 0.37448 0.13852 0.74106 0.0
O263 O 0.35721 0.15368 0.76871 0.0
O264 O 0.4028 0.13833 0.79197 0.0
O265 O 0.37318 0.12022 0.80535 0.0
O266 O 0.42781 0.14384 0.73741 0.0
O267 O 0.43692 0.11031 0.74101 0.0
O268 O 0.38421 0.09032 0.76425 0.0
O269 O 0.41224 0.09607 0.78451 0.0
O270 O 0.35613 0.09739 0.73153 0.0
O271 O 0.39153 0.10082 0.7201 0.0
H272 H 0.27495 0.10951 0.77048 0.0
H273 H 0.24503 0.1159 0.798 0.0
H274 H 0.28914 0.12101 0.85759 0.0
H275 H 0.31907 0.11436 0.82991 0.0
H276 H 0.457 0.16489 0.70996 0.0
H277 H 0.48127 0.16707 0.67539 0.0
H278 H 0.48075 0.09824 0.66947 0.0
H279 H 0.45676 0.09609 0.70419 0.0
Pr280 Pr 0.13942 0.10741 1.01228 0.0
Pr281 Pr 0.13216 0.15494 1.00329 0.0
C282 C 0.14747 0.06726 0.02836 0.0
C283 C 0.1465 0.05276 0.04971 0.0
C284 C 0.13071 0.03673 0.05111 0.0
C285 C 0.13118 0.02126 0.06947 0.0
C286 C 0.1476 0.02127 0.08675 0.0
C287 C 0.1629 0.03781 0.08589 0.0
C288 C 0.16238 0.05332 0.06763 0.0
C289 C 0.10126 0.11719 0.98838 0.0
C290 C 0.12419 0.13854 0.0586 0.0
C291 C 0.12012 0.19314 0.98452 0.0
C292 C 0.12315 0.20764 0.96349 0.0
C293 C 0.12592 0.22965 0.96741 0.0
C294 C 0.12708 0.24397 0.94794 0.0
C295 C 0.12537 0.23666 0.92399 0.0
C296 C 0.12309 0.2145 0.9201 0.0
C297 C 0.12202 0.20016 0.93959 0.0
C298 C 0.17348 0.14547 1.02063 0.0
C299 C 0.15602 0.1253 0.96005 0.0
O300 O 0.16182 0.08252 0.02801 0.0
O301 O 0.12948 0.07287 1.01822 0.0
O302 O 0.10835 0.12724 1.00656 0.0
O303 O 0.11373 0.10142 0.98253 0.0
O304 O 0.11817 0.15322 0.04281 0.0
O305 O 0.13456 0.12124 0.0515 0.0
O306 O 0.10968 0.17528 0.98103 0.0
O307 O 0.13591 0.19107 0.99975 0.0
O308 O 0.16301 0.13484 1.00544 0.0
O309 O 0.16239 0.16212 0.0271 0.0
O310 O 0.15929 0.11023 0.9764 0.0
O311 O 0.14395 0.14217 0.96507 0.0
H312 H 0.11837 0.03568 0.03748 0.0
H313 H 0.11925 0.0087 0.06944 0.0
H314 H 0.17561 0.0385 0.0991 0.0
H315 H 0.17482 0.06536 0.06719 0.0
H316 H 0.12672 0.23587 0.98563 0.0
H317 H 0.12861 0.26088 0.95174 0.0
H318 H 0.12206 0.20819 0.90195 0.0
H319 H 0.12 0.18328 0.93594 0.0
Pr320 Pr 0.91503 0.88622 0.7511 0.0
Pr321 Pr 0.86798 0.89865 0.76171 0.0
C322 C 0.95166 0.86777 0.73562 0.0
C323 C 0.96667 0.87143 0.71524 0.0
C324 C 0.96517 0.88994 0.70101 0.0
C325 C 0.97851 0.89273 0.68082 0.0
C326 C 0.99362 0.877 0.67419 0.0
C327 C 0.99519 0.85858 0.68875 0.0
C328 C 0.98185 0.85583 0.70899 0.0
C329 C 0.90939 0.93029 0.755 0.0
C330 C 0.88648 0.91191 0.70936 0.0
C331 C 0.82923 0.91039 0.77923 0.0
C332 C 0.81577 0.90803 0.80112 0.0
C333 C 0.81638 0.8892 0.81494 0.0
C334 C 0.80119 0.88563 0.83312 0.0
C335 C 0.78521 0.90088 0.83805 0.0
C336 C 0.78552 0.92032 0.82531 0.0
C337 C 0.80061 0.9238 0.8069 0.0
C338 C 0.87416 0.8603 0.7361 0.0
C339 C 0.89751 0.87998 0.80773 0.0
O340 O 0.9326 0.86089 0.72963 0.0
O341 O 0.95113 0.8823 0.75269 0.0
O342 O 0.89974 0.91669 0.76813 0.0
O343 O 0.92358 0.92119 0.74134 0.0
O344 O 0.87337 0.91825 0.72665 0.0
O345 O 0.90064 0.89645 0.71316 0.0
O346 O 0.84605 0.92279 0.78037 0.0
O347 O 0.83264 0.89301 0.76674 0.0
O348 O 0.88461 0.86617 0.75442 0.0
O349 O 0.85978 0.8744 0.73047 0.0
O350 O 0.91416 0.87792 0.79293 0.0
O351 O 0.87875 0.8868 0.79997 0.0
H352 H 0.95349 0.90216 0.70535 0.0
H353 H 0.97696 0.9073 0.67043 0.0
H354 H 0.00634 0.84596 0.68418 0.0
H355 H 0.98315 0.84132 0.71955 0.0
H356 H 0.82805 0.87686 0.81101 0.0
H357 H 0.8015 0.8706 0.84285 0.0
H358 H 0.77337 0.93231 0.82863 0.0
H359 H 0.79985 0.93844 0.79649 0.0
Pr360 Pr 0.86984 0.15257 0.50013 0.0
Pr361 Pr 0.86632 0.1058 0.513 0.0
C362 C 0.87889 0.19125 0.48057 0.0
C363 C 0.8803 0.2039 0.45784 0.0
C364 C 0.90025 0.21139 0.44963 0.0
C365 C 0.90162 0.22547 0.42996 0.0
C366 C 0.88304 0.23257 0.41808 0.0
C367 C 0.86313 0.22459 0.42591 0.0
C368 C 0.86176 0.21046 0.44551 0.0
C369 C 0.8312 0.14292 0.52369 0.0
C370 C 0.84612 0.12049 0.46016 0.0
C371 C 0.85732 0.06485 0.52477 0.0
C372 C 0.86336 0.04795 0.54222 0.0
C373 C 0.88479 0.04214 0.54616 0.0
C374 C 0.88986 0.02591 0.56266 0.0
C375 C 0.87364 0.01527 0.57567 0.0
C376 C 0.85225 0.02129 0.57177 0.0
C377 C 0.84719 0.03739 0.55521 0.0
C378 C 0.90716 0.11873 0.49688 0.0
C379 C 0.88028 0.13827 0.55623 0.0
O380 O 0.89359 0.17685 0.48498 0.0
O381 O 0.85991 0.18565 0.48828 0.0
O382 O 0.84035 0.13157 0.5079 0.0
O383 O 0.84316 0.15933 0.52879 0.0
O384 O 0.84954 0.10465 0.47543 0.0
O385 O 0.85245 0.14026 0.46489 0.0
O386 O 0.84684 0.08122 0.53351 0.0
O387 O 0.87111 0.07013 0.50795 0.0
O388 O 0.88952 0.12379 0.48771 0.0
O389 O 0.90417 0.10679 0.51579 0.0
O390 O 0.88659 0.15145 0.53882 0.0
O391 O 0.86885 0.12127 0.55097 0.0
H392 H 0.9148 0.20685 0.45888 0.0
H393 H 0.91722 0.23139 0.42465 0.0
H394 H 0.8485 0.22938 0.417 0.0
H395 H 0.84609 0.2051 0.45132 0.0
H396 H 0.89762 0.05011 0.53654 0.0
H397 H 0.90652 0.02186 0.56542 0.0
H398 H 0.83933 0.01328 0.5812 0.0
H399 H 0.83054 0.04155 0.55245 0.0
Pr400 Pr 0.60295 0.12328 0.25006 0.0
Pr401 Pr 0.65038 0.11612 0.25922 0.0
C402 C 0.56486 0.13572 0.23149 0.0
C403 C 0.55018 0.133 0.21067 0.0
C404 C 0.52836 0.12904 0.2149 0.0
C405 C 0.51377 0.12841 0.19573 0.0
C406 C 0.52062 0.13187 0.17181 0.0
C407 C 0.5426 0.13527 0.16756 0.0
C408 C 0.55721 0.1358 0.18673 0.0
C409 C 0.61249 0.08164 0.26633 0.0
C410 C 0.63303 0.10047 0.20641 0.0
C411 C 0.6902 0.10724 0.27551 0.0
C412 C 0.70452 0.10889 0.29687 0.0
C413 C 0.72028 0.12495 0.29798 0.0
C414 C 0.73552 0.12506 0.31653 0.0
C415 C 0.73552 0.10896 0.33423 0.0
C416 C 0.71925 0.0934 0.33363 0.0
C417 C 0.70398 0.09334 0.3152 0.0
C418 C 0.6407 0.15471 0.23623 0.0
C419 C 0.61907 0.13181 0.3054 0.0
O420 O 0.58286 0.1459 0.22778 0.0
O421 O 0.56674 0.11991 0.24679 0.0
O422 O 0.62323 0.09255 0.25158 0.0
O423 O 0.59566 0.0924 0.27297 0.0
O424 O 0.64794 0.097 0.22286 0.0
O425 O 0.61599 0.11229 0.21157 0.0
O426 O 0.67434 0.09358 0.27631 0.0
O427 O 0.68539 0.1248 0.26395 0.0
O428 O 0.63054 0.14715 0.25416 0.0
O429 O 0.65668 0.14256 0.23025 0.0
O430 O 0.6043 0.13732 0.28952 0.0
O431 O 0.63652 0.12155 0.29848 0.0
H432 H 0.52248 0.12697 0.23316 0.0
H433 H 0.49698 0.12594 0.19978 0.0
H434 H 0.54854 0.13767 0.14937 0.0
H435 H 0.57394 0.13879 0.18282 0.0
H436 H 0.72131 0.13705 0.28404 0.0
H437 H 0.74791 0.13717 0.31634 0.0
H438 H 0.71862 0.08093 0.34717 0.0
H439 H 0.69215 0.0807 0.31496 0.0
Pr440 Pr 0.64118 0.85814 0.99936 0.0
Pr441 Pr 0.64925 0.90584 1.00985 0.0
C442 C 0.62975 0.81963 0.9812 0.0
C443 C 0.628 0.80643 0.9589 0.0
C444 C 0.64634 0.7992 0.94653 0.0
C445 C 0.6446 0.78462 0.92741 0.0
C446 C 0.6245 0.77686 0.92009 0.0
C447 C 0.60613 0.78463 0.932 0.0
C448 C 0.60787 0.79916 0.95119 0.0
C449 C 0.6791 0.86623 0.02436 0.0
C450 C 0.66946 0.88619 0.95881 0.0
C451 C 0.66153 0.94588 0.0219 0.0
C452 C 0.65599 0.96318 0.03923 0.0
C453 C 0.63495 0.97078 0.04198 0.0
C454 C 0.6303 0.98711 0.05858 0.0
C455 C 0.64654 0.99617 0.07294 0.0
C456 C 0.66753 0.98834 0.07027 0.0
C457 C 0.67217 0.97211 0.05361 0.0
C458 C 0.60771 0.89567 0.99353 0.0
C459 C 0.63088 0.87565 0.05392 0.0
O460 O 0.616 0.83515 0.98474 0.0
O461 O 0.64893 0.8241 0.98913 0.0
O462 O 0.67185 0.87708 1.00711 0.0
O463 O 0.66646 0.85033 0.02947 0.0
O464 O 0.66883 0.90288 0.97351 0.0
O465 O 0.65919 0.86821 0.96389 0.0
O466 O 0.67004 0.92863 0.03115 0.0
O467 O 0.64833 0.94181 1.00412 0.0
O468 O 0.625 0.88848 0.98527 0.0
O469 O 0.61143 0.90874 1.01124 0.0
O470 O 0.62358 0.86261 0.03699 0.0
O471 O 0.64389 0.89149 0.04831 0.0
H472 H 0.66214 0.80441 0.95193 0.0
H473 H 0.65909 0.77932 0.91845 0.0
H474 H 0.59038 0.77892 0.92707 0.0
H475 H 0.59347 0.80424 0.96048 0.0
H476 H 0.62207 0.96409 0.03136 0.0
H477 H 0.61391 0.99251 0.06033 0.0
H478 H 0.6805 0.99503 0.08073 0.0
H479 H 0.68852 0.96654 0.05188 0.0
Pr480 Pr 0.90262 0.12061 0.78988 0.0
Pr481 Pr 0.85576 0.12 0.77871 0.0
C482 C 0.94245 0.12713 0.80769 0.0
C483 C 0.95619 0.12837 0.82941 0.0
C484 C 0.97797 0.12337 0.82709 0.0
C485 C 0.99168 0.12446 0.84698 0.0
C486 C 0.98397 0.13052 0.8699 0.0
C487 C 0.96203 0.13557 0.87218 0.0
C488 C 0.94827 0.1345 0.85215 0.0
C489 C 0.89072 0.0847 0.76328 0.0
C490 C 0.87007 0.09806 0.83039 0.0
C491 C 0.81405 0.11394 0.76759 0.0
C492 C 0.79921 0.11685 0.74692 0.0
C493 C 0.78043 0.12903 0.7497 0.0
C494 C 0.76515 0.12992 0.7312 0.0
C495 C 0.76825 0.1184 0.7097 0.0
C496 C 0.78743 0.10699 0.70653 0.0
C497 C 0.80278 0.10631 0.72483 0.0
C498 C 0.87109 0.15954 0.79578 0.0
C499 C 0.8875 0.13291 0.73447 0.0
O500 O 0.92883 0.14262 0.8036 0.0
O501 O 0.93518 0.10834 0.80151 0.0
O502 O 0.88027 0.09237 0.78079 0.0
O503 O 0.90772 0.09598 0.75866 0.0
O504 O 0.85393 0.10421 0.81675 0.0
O505 O 0.89016 0.10212 0.82431 0.0
O506 O 0.82875 0.0992 0.76543 0.0
O507 O 0.82093 0.131 0.77875 0.0
O508 O 0.87534 0.14148 0.80451 0.0
O509 O 0.85937 0.15756 0.7766 0.0
O510 O 0.90137 0.13829 0.75155 0.0
O511 O 0.87007 0.12227 0.74016 0.0
H512 H 0.98448 0.11872 0.80971 0.0
H513 H 0.00846 0.12085 0.84423 0.0
H514 H 0.95539 0.14011 0.88951 0.0
H515 H 0.9315 0.13839 0.85442 0.0
H516 H 0.77725 0.13729 0.76652 0.0
H517 H 0.75044 0.13871 0.73417 0.0
H518 H 0.79029 0.09807 0.69007 0.0
H519 H 0.81713 0.09694 0.72191 0.0
Pr520 Pr 0.63474 0.1563 0.54003 0.0
Pr521 Pr 0.64131 0.10924 0.5289 0.0
C522 C 0.62264 0.19377 0.56073 0.0
C523 C 0.62684 0.20811 0.58157 0.0
C524 C 0.62443 0.23031 0.57885 0.0
C525 C 0.62776 0.24421 0.59839 0.0
C526 C 0.63362 0.23626 0.62122 0.0
C527 C 0.63592 0.21392 0.62384 0.0
C528 C 0.63263 0.20004 0.60428 0.0
C529 C 0.6744 0.14794 0.51891 0.0
C530 C 0.66086 0.12487 0.58029 0.0
C531 C 0.65041 0.06995 0.51108 0.0
C532 C 0.64498 0.05351 0.49276 0.0
C533 C 0.639 0.03303 0.5006 0.0
C534 C 0.63512 0.01666 0.48401 0.0
C535 C 0.63718 0.02028 0.45904 0.0
C536 C 0.64317 0.04084 0.45112 0.0
C537 C 0.64699 0.05731 0.4678 0.0
C538 C 0.60287 0.11872 0.55305 0.0
C539 C 0.62478 0.14107 0.48415 0.0
O540 O 0.61338 0.17541 0.56516 0.0
O541 O 0.6373 0.19248 0.54389 0.0
O542 O 0.66561 0.13647 0.53488 0.0
O543 O 0.66276 0.16454 0.51373 0.0
O544 O 0.66217 0.11023 0.56327 0.0
O545 O 0.65023 0.14298 0.5767 0.0
O546 O 0.6601 0.0874 0.504 0.0
O547 O 0.63684 0.0732 0.5287 0.0
O548 O 0.61045 0.12921 0.53546 0.0
O549 O 0.61476 0.1023 0.55791 0.0
O550 O 0.62022 0.15601 0.50039 0.0
O551 O 0.63402 0.12304 0.4906 0.0
H552 H 0.61994 0.23694 0.56153 0.0
H553 H 0.62611 0.26124 0.59543 0.0
H554 H 0.6401 0.20705 0.64113 0.0
H555 H 0.63452 0.18299 0.60695 0.0
H556 H 0.63764 0.02955 0.51971 0.0
H557 H 0.63089 1.00099 0.49082 0.0
H558 H 0.64472 0.04426 0.43203 0.0
H559 H 0.65167 0.07292 0.46116 0.0
Pr560 Pr 0.60427 0.88573 0.28604 0.0
Pr561 Pr 0.6518 0.89292 0.27983 0.0
C562 C 0.56525 0.87386 0.30267 0.0
C563 C 0.55179 0.87331 0.32481 0.0
C564 C 0.54584 0.89207 0.33713 0.0
C565 C 0.53207 0.8911 0.35716 0.0
C566 C 0.52401 0.87137 0.3654 0.0
C567 C 0.53026 0.85263 0.35322 0.0
C568 C 0.54392 0.85362 0.33316 0.0
C569 C 0.61399 0.92483 0.26428 0.0
C570 C 0.63139 0.91181 0.32944 0.0
C571 C 0.69278 0.89962 0.26548 0.0
C572 C 0.70763 0.89842 0.24441 0.0
C573 C 0.72266 0.88171 0.24274 0.0
C574 C 0.73839 0.88168 0.22459 0.0
C575 C 0.73964 0.89852 0.20783 0.0
C576 C 0.7241 0.9148 0.20897 0.0
C577 C 0.70833 0.91478 0.22701 0.0
C578 C 0.6409 0.85599 0.30569 0.0
C579 C 0.6228 0.87632 0.23227 0.0
O580 O 0.58164 0.8609 0.30173 0.0
O581 O 0.56908 0.89239 0.29262 0.0
O582 O 0.62388 0.9168 0.2819 0.0
O583 O 0.59835 0.91259 0.25734 0.0
O584 O 0.64736 0.91444 0.31403 0.0
O585 O 0.61506 0.89914 0.32414 0.0
O586 O 0.6782 0.91465 0.26588 0.0
O587 O 0.68605 0.88167 0.27487 0.0
O588 O 0.63212 0.86201 0.28629 0.0
O589 O 0.65593 0.86908 0.31214 0.0
O590 O 0.6072 0.87105 0.24726 0.0
O591 O 0.63998 0.88648 0.24006 0.0
H592 H 0.55166 0.90752 0.33121 0.0
H593 H 0.52781 0.90582 0.36626 0.0
H594 H 0.52418 0.83719 0.35881 0.0
H595 H 0.54811 0.83893 0.32392 0.0
H596 H 0.72272 0.86896 0.25597 0.0
H597 H 0.75018 0.869 0.2244 0.0
H598 H 0.72441 0.92787 0.19615 0.0
H599 H 0.69707 0.92792 0.22769 0.0
Pr600 Pr 0.87603 0.85516 0.04205 0.0
Pr601 Pr 0.87172 0.90227 0.03112 0.0
C602 C 0.88723 0.81736 0.06238 0.0
C603 C 0.88331 0.80265 0.08305 0.0
C604 C 0.8804 0.78072 0.07871 0.0
C605 C 0.87898 0.76614 0.0979 0.0
C606 C 0.88057 0.77311 0.122 0.0
C607 C 0.88284 0.7952 0.12631 0.0
C608 C 0.88418 0.80979 0.1071 0.0
C609 C 0.83577 0.86513 0.0228 0.0
C610 C 0.85221 0.88767 0.08333 0.0
C611 C 0.86707 0.94276 1.01502 0.0
C612 C 0.8635 0.95734 0.99446 0.0
C613 C 0.87373 0.95453 0.97204 0.0
C614 C 0.87139 0.96987 0.95372 0.0
C615 C 0.85873 0.98821 0.95751 0.0
C616 C 0.84832 0.99067 0.97991 0.0
C617 C 0.85068 0.97542 0.9981 0.0
C618 C 0.90843 0.89135 0.05707 0.0
C619 C 0.88449 0.86986 0.98602 0.0
O620 O 0.89691 0.83549 0.06681 0.0
O621 O 0.87259 0.81897 0.04567 0.0
O622 O 0.84614 0.87638 0.03762 0.0
O623 O 0.8466 0.848 1.01742 0.0
O624 O 0.8531 0.90327 0.06736 0.0
O625 O 0.86049 0.86854 0.07866 0.0
O626 O 0.85099 0.93123 0.0228 0.0
O627 O 0.88553 0.93302 1.01646 0.0
O628 O 0.90155 0.88126 0.03887 0.0
O629 O 0.8965 0.9077 0.06198 0.0
O630 O 0.89077 0.85586 1.00252 0.0
O631 O 0.87368 0.88703 0.99246 0.0
H632 H 0.87984 0.77475 0.06037 0.0
H633 H 0.87743 0.74929 0.0938 0.0
H634 H 0.88377 0.80125 0.14458 0.0
H635 H 0.88634 0.82659 0.1111 0.0
H636 H 0.88373 0.94068 0.96879 0.0
H637 H 0.87943 0.96735 0.93661 0.0
H638 H 0.83874 0.00471 0.98366 0.0
H639 H 0.84283 0.97802 1.01533 0.0
Pr640 Pr 0.65212 0.62114 0.77814 0.0
Pr641 Pr 0.60445 0.62113 0.78946 0.0
C642 C 0.69297 0.62194 0.76233 0.0
C643 C 0.70782 0.62006 0.74166 0.0
C644 C 0.72436 0.63509 0.73936 0.0
C645 C 0.73975 0.63308 0.72115 0.0
C646 C 0.739 0.61589 0.70484 0.0
C647 C 0.72202 0.60114 0.70676 0.0
C648 C 0.70655 0.60321 0.72499 0.0
C649 C 0.63808 0.65522 0.80718 0.0
C650 C 0.61885 0.62935 0.73207 0.0
C651 C 0.56419 0.63144 0.80326 0.0
C652 C 0.54917 0.62821 0.82373 0.0
C653 C 0.52701 0.62864 0.81975 0.0
C654 C 0.51259 0.62804 0.83923 0.0
C655 C 0.52005 0.62717 0.86317 0.0
C656 C 0.5423 0.62598 0.86701 0.0
C657 C 0.55668 0.62644 0.84753 0.0
C658 C 0.62027 0.58034 0.78092 0.0
C659 C 0.63827 0.6009 0.82973 0.0
O660 O 0.68369 0.60461 0.77065 0.0
O661 O 0.6808 0.63893 0.76325 0.0
O662 O 0.62874 0.64852 0.78848 0.0
O663 O 0.65511 0.64413 0.81147 0.0
O664 O 0.60263 0.62943 0.7476 0.0
O665 O 0.63864 0.62594 0.73923 0.0
O666 O 0.581 0.64329 0.80766 0.0
O667 O 0.5684 0.61513 0.78918 0.0
O668 O 0.62565 0.59665 0.76866 0.0
O669 O 0.6058 0.58464 0.79705 0.0
O670 O 0.65241 0.59961 0.81209 0.0
O671 O 0.61997 0.61141 0.82703 0.0
H672 H 0.72567 0.64818 0.75207 0.0
H673 H 0.75269 0.64458 0.72042 0.0
H674 H 0.7208 0.58788 0.69427 0.0
H675 H 0.69384 0.59148 0.72628 0.0
H676 H 0.52083 0.6301 0.80158 0.0
H677 H 0.49561 0.62912 0.83558 0.0
H678 H 0.54863 0.62494 0.88514 0.0
H679 H 0.5737 0.62597 0.85113 0.0
Pr680 Pr 0.63695 0.40157 0.02687 0.0
Pr681 Pr 0.63539 0.35363 0.03785 0.0
C682 C 0.63912 0.4424 1.011 0.0
C683 C 0.64254 0.45774 0.99098 0.0
C684 C 0.6305 0.45706 0.96957 0.0
C685 C 0.63274 0.47319 0.95209 0.0
C686 C 0.64708 0.49027 0.95566 0.0
C687 C 0.65923 0.49066 0.977 0.0
C688 C 0.65697 0.47462 0.99438 0.0
C689 C 0.60157 0.38849 0.0543 0.0
C690 C 0.62619 0.36801 0.98171 0.0
C691 C 0.62526 0.31531 0.05776 0.0
C692 C 0.62561 0.30193 0.07996 0.0
C693 C 0.60623 0.29385 0.08907 0.0
C694 C 0.60593 0.28002 0.10895 0.0
C695 C 0.62505 0.27378 0.12032 0.0
C696 C 0.6445 0.28206 0.11132 0.0
C697 C 0.64478 0.29597 0.09139 0.0
C698 C 0.6737 0.36596 1.01573 0.0
C699 C 0.65858 0.38716 0.07811 0.0
O700 O 0.65564 0.43215 1.01969 0.0
O701 O 0.62144 0.43119 1.01139 0.0
O702 O 0.60877 0.37883 0.03591 0.0
O703 O 0.61249 0.40564 0.05867 0.0
O704 O 0.62153 0.35318 0.99802 0.0
O705 O 0.63507 0.38627 0.98819 0.0
O706 O 0.61218 0.33162 0.05736 0.0
O707 O 0.64318 0.31892 0.04618 0.0
O708 O 0.6636 0.37661 0.0314 0.0
O709 O 0.66445 0.3476 1.01184 0.0
O710 O 0.65711 0.4026 0.06196 0.0
O711 O 0.65027 0.36792 0.07415 0.0
H712 H 0.61917 0.44426 0.96647 0.0
H713 H 0.62331 0.47225 0.93577 0.0
H714 H 0.67016 0.50369 0.98061 0.0
H715 H 0.66621 0.47569 1.01086 0.0
H716 H 0.59123 0.29795 0.08048 0.0
H717 H 0.59067 0.27378 0.115 0.0
H718 H 0.65953 0.27784 0.11974 0.0
H719 H 0.66001 0.30189 0.08482 0.0
Pr720 Pr 0.85602 0.39033 0.27941 0.0
Pr721 Pr 0.90345 0.38664 0.29122 0.0
C722 C 0.81587 0.39458 0.2617 0.0
C723 C 0.80191 0.39396 0.24 0.0
C724 C 0.78574 0.37838 0.23842 0.0
C725 C 0.7706 0.37898 0.21981 0.0
C726 C 0.77113 0.39533 0.2024 0.0
C727 C 0.78786 0.41042 0.20343 0.0
C728 C 0.80305 0.40976 0.22199 0.0
C729 C 0.86755 0.35323 0.30436 0.0
C730 C 0.88996 0.37805 0.2349 0.0
C731 C 0.94102 0.37549 0.31225 0.0
C732 C 0.95469 0.37674 0.33422 0.0
C733 C 0.96083 0.3577 0.34571 0.0
C734 C 0.97477 0.35797 0.36546 0.0
C735 C 0.98309 0.37733 0.3744 0.0
C736 C 0.97684 0.39648 0.36293 0.0
C737 C 0.96282 0.39619 0.34309 0.0
C738 C 0.89277 0.42689 0.27224 0.0
C739 C 0.8696 0.4093 0.33199 0.0
O740 O 0.82902 0.41068 0.26453 0.0
O741 O 0.8236 0.37651 0.26966 0.0
O742 O 0.87772 0.361 0.28662 0.0
O743 O 0.85077 0.36457 0.30948 0.0
O744 O 0.90446 0.37304 0.25134 0.0
O745 O 0.87179 0.38724 0.24115 0.0
O746 O 0.92367 0.36385 0.31345 0.0
O747 O 0.9388 0.3924 0.29858 0.0
O748 O 0.88164 0.41611 0.28692 0.0
O749 O 0.91009 0.41636 0.26667 0.0
O750 O 0.85446 0.40915 0.31545 0.0
O751 O 0.88865 0.40055 0.32786 0.0
H752 H 0.78432 0.3661 0.25213 0.0
H753 H 0.75788 0.36722 0.21974 0.0
H754 H 0.78896 0.42305 0.19011 0.0
H755 H 0.8153 0.42199 0.22258 0.0
H756 H 0.95509 0.34244 0.33912 0.0
H757 H 0.97942 0.34284 0.37337 0.0
H758 H 0.98268 0.41173 0.36938 0.0
H759 H 0.95848 0.41118 0.33463 0.0
Pr760 Pr 0.87321 0.60899 0.5294 0.0
Pr761 Pr 0.87273 0.65702 0.54043 0.0
C762 C 0.87318 0.56823 0.51315 0.0
C763 C 0.87156 0.55365 0.49219 0.0
C764 C 0.88642 0.53693 0.48993 0.0
C765 C 0.88426 0.52154 0.47177 0.0
C766 C 0.86709 0.52245 0.45547 0.0
C767 C 0.85263 0.53969 0.45724 0.0
C768 C 0.85483 0.55513 0.47541 0.0
C769 C 0.90774 0.62332 0.557 0.0
C770 C 0.8815 0.64317 0.48411 0.0
C771 C 0.88049 0.69614 0.55983 0.0
C772 C 0.88048 0.70966 0.58205 0.0
C773 C 0.8618 0.72 0.59025 0.0
C774 C 0.86253 0.7344 0.60972 0.0
C775 C 0.88197 0.73891 0.6215 0.0
C776 C 0.90057 0.72837 0.61337 0.0
C777 C 0.89984 0.71403 0.59395 0.0
C778 C 0.8348 0.64276 0.51913 0.0
C779 C 0.85187 0.62231 0.58101 0.0
O780 O 0.85591 0.57815 0.52058 0.0
O781 O 0.89059 0.57966 0.51528 0.0
O782 O 0.90045 0.63292 0.53862 0.0
O783 O 0.89741 0.60574 0.56112 0.0
O784 O 0.88563 0.65827 0.50021 0.0
O785 O 0.87404 0.62436 0.49084 0.0
O786 O 0.89502 0.68118 0.55779 0.0
O787 O 0.86223 0.69078 0.5501 0.0
O788 O 0.84557 0.6327 0.53463 0.0
O789 O 0.84315 0.6615 0.51493 0.0
O790 O 0.85319 0.60707 0.56461 0.0
O791 O 0.85975 0.64173 0.57708 0.0
H792 H 0.89941 0.5354 0.50272 0.0
H793 H 0.89557 0.50843 0.47114 0.0
H794 H 0.83941 0.54109 0.44475 0.0
H795 H 0.84321 0.56794 0.47663 0.0
H796 H 0.84663 0.71726 0.58139 0.0
H797 H 0.84782 0.74197 0.61555 0.0
H798 H 0.91592 0.73163 0.62158 0.0
H799 H 0.91462 0.70671 0.58788 0.0
Pr800 Pr 0.65508 0.39385 0.76223 0.0
Pr801 Pr 0.60549 0.38548 0.74478 0.0
C802 C 0.69112 0.40996 0.78177 0.0
C803 C 0.70917 0.40385 0.79767 0.0
C804 C 0.73014 0.40378 0.78849 0.0
C805 C 0.74751 0.39924 0.80352 0.0
C806 C 0.74434 0.39485 0.82818 0.0
C807 C 0.72332 0.39478 0.83735 0.0
C808 C 0.70593 0.39919 0.82228 0.0
C809 C 0.65088 0.35332 0.73994 0.0
C810 C 0.62076 0.37511 0.80309 0.0
C811 C 0.56831 0.36881 0.72869 0.0
C812 C 0.5528 0.37027 0.70843 0.0
C813 C 0.53092 0.37298 0.71343 0.0
C814 C 0.5158 0.37302 0.69476 0.0
C815 C 0.52217 0.37025 0.67056 0.0
C816 C 0.54418 0.36788 0.66556 0.0
C817 C 0.5593 0.36789 0.68424 0.0
C818 C 0.6156 0.4273 0.75703 0.0
C819 C 0.63879 0.41187 0.70847 0.0
O820 O 0.67218 0.41176 0.79173 0.0
O821 O 0.69055 0.40174 0.76002 0.0
O822 O 0.63659 0.36711 0.74347 0.0
O823 O 0.66855 0.36004 0.74962 0.0
O824 O 0.60517 0.37452 0.78658 0.0
O825 O 0.64051 0.381 0.79783 0.0
O826 O 0.58712 0.3604 0.7241 0.0
O827 O 0.56908 0.38477 0.74402 0.0
O828 O 0.62261 0.4107 0.76739 0.0
O829 O 0.60112 0.42257 0.74102 0.0
O830 O 0.65191 0.41404 0.72702 0.0
O831 O 0.62153 0.39942 0.70926 0.0
H832 H 0.73314 0.40755 0.76969 0.0
H833 H 0.7635 0.39968 0.79593 0.0
H834 H 0.72029 0.39122 0.85618 0.0
H835 H 0.68999 0.39912 0.83001 0.0
H836 H 0.52544 0.37468 0.7319 0.0
H837 H 0.49904 0.37463 0.69941 0.0
H838 H 0.54978 0.36602 0.64717 0.0
H839 H 0.57605 0.36581 0.67971 0.0
Pr840 Pr 0.86493 0.40034 1.01134 0.0
Pr841 Pr 0.8723 0.35162 1.00121 0.0
C842 C 0.8532 0.43909 0.02841 0.0
C843 C 0.85852 0.45511 0.04704 0.0
C844 C 0.84222 0.46804 0.05654 0.0
C845 C 0.8469 0.48403 0.07338 0.0
C846 C 0.86807 0.48747 0.08105 0.0
C847 C 0.88434 0.47415 0.07183 0.0
C848 C 0.87961 0.45809 0.05503 0.0
C849 C 0.90437 0.39053 0.99042 0.0
C850 C 0.881 0.36834 0.05682 0.0
C851 C 0.88569 0.31412 0.98183 0.0
C852 C 0.88294 0.3002 0.96045 0.0
C853 C 0.8657 0.30279 0.94455 0.0
C854 C 0.86368 0.28954 0.92421 0.0
C855 C 0.87892 0.27344 0.91924 0.0
C856 C 0.89614 0.27099 0.93535 0.0
C857 C 0.8981 0.2842 0.95566 0.0
C858 C 0.83074 0.3623 1.01664 0.0
C859 C 0.85068 0.38265 0.95809 0.0
O860 O 0.84453 0.4212 0.03581 0.0
O861 O 0.8669 0.43644 1.01073 0.0
O862 O 0.89549 0.37969 1.00701 0.0
O863 O 0.89365 0.4078 0.98573 0.0
O864 O 0.88542 0.35291 0.04116 0.0
O865 O 0.87193 0.38641 0.04994 0.0
O866 O 0.89551 0.33233 0.97838 0.0
O867 O 0.86966 0.31561 0.997 0.0
O868 O 0.84252 0.37283 1.00266 0.0
O869 O 0.83972 0.3441 0.02185 0.0
O870 O 0.84621 0.39692 0.97501 0.0
O871 O 0.86279 0.36577 0.96286 0.0
H872 H 0.82584 0.46599 0.05061 0.0
H873 H 0.83401 0.49408 0.07989 0.0
H874 H 0.90075 0.47613 0.07761 0.0
H875 H 0.89243 0.44816 0.04812 0.0
H876 H 0.85383 0.31508 0.94783 0.0
H877 H 0.85004 0.29182 0.9125 0.0
H878 H 0.90839 0.2591 0.93205 0.0
H879 H 0.91162 0.282 0.9676 0.0
Pr880 Pr 0.85855 0.61344 0.25991 0.0
Pr881 Pr 0.90578 0.624 0.25167 0.0
C882 C 0.81973 0.60066 0.27625 0.0
C883 C 0.80218 0.60535 0.29357 0.0
C884 C 0.78116 0.60677 0.28491 0.0
C885 C 0.76401 0.61009 0.30075 0.0
C886 C 0.76738 0.61203 0.32576 0.0
C887 C 0.78848 0.61056 0.33449 0.0
C888 C 0.80572 0.6073 0.31856 0.0
C889 C 0.866 0.65251 0.23658 0.0
C890 C 0.88731 0.63411 0.30581 0.0
C891 C 0.94321 0.63862 0.23316 0.0
C892 C 0.95732 0.63781 0.21154 0.0
C893 C 0.96545 0.65698 0.20204 0.0
C894 C 0.97954 0.65684 0.18232 0.0
C895 C 0.98596 0.63748 0.17155 0.0
C896 C 0.97763 0.61825 0.18097 0.0
C897 C 0.96344 0.61841 0.2007 0.0
C898 C 0.89861 0.58376 0.27221 0.0
C899 C 0.87893 0.59642 0.20925 0.0
O900 O 0.83784 0.59343 0.28477 0.0
O901 O 0.82222 0.61353 0.25784 0.0
O902 O 0.87631 0.64562 0.25458 0.0
O903 O 0.85061 0.63957 0.23085 0.0
O904 O 0.90267 0.63919 0.29035 0.0
O905 O 0.87028 0.62323 0.29884 0.0
O906 O 0.92509 0.6489 0.23114 0.0
O907 O 0.94175 0.62157 0.24675 0.0
O908 O 0.88798 0.59193 0.25531 0.0
O909 O 0.91413 0.59631 0.27885 0.0
O910 O 0.86417 0.59229 0.22571 0.0
O911 O 0.89454 0.6102 0.21377 0.0
H912 H 0.77795 0.60505 0.2658 0.0
H913 H 0.748 0.61079 0.29338 0.0
H914 H 0.79169 0.61218 0.3536 0.0
H915 H 0.82175 0.60623 0.32581 0.0
H916 H 0.96109 0.67215 0.21011 0.0
H917 H 0.98578 0.67195 0.17586 0.0
H918 H 0.98198 0.60305 0.173 0.0
H919 H 0.95736 0.60335 0.20754 0.0
Pr920 Pr 0.64186 0.60486 0.50841 0.0
Pr921 Pr 0.63896 0.65325 0.49881 0.0
C922 C 0.64971 0.56339 0.51877 0.0
C923 C 0.64552 0.54836 0.53899 0.0
C924 C 0.63997 0.52698 0.53431 0.0
C925 C 0.63866 0.51205 0.55321 0.0
C926 C 0.64315 0.51823 0.57705 0.0
C927 C 0.64769 0.53981 0.58183 0.0
C928 C 0.64868 0.55475 0.56306 0.0
C929 C 0.60097 0.61958 0.49486 0.0
C930 C 0.62911 0.63586 0.55379 0.0
C931 C 0.63132 0.69314 0.48185 0.0
C932 C 0.62976 0.70641 0.45954 0.0
C933 C 0.6097 0.71287 0.45069 0.0
C934 C 0.60823 0.72717 0.43122 0.0
C935 C 0.62678 0.73553 0.4202 0.0
C936 C 0.64682 0.7287 0.42878 0.0
C937 C 0.64829 0.71439 0.44816 0.0
C938 C 0.67786 0.64004 0.51928 0.0
C939 C 0.65899 0.62248 0.45503 0.0
O940 O 0.66308 0.57896 0.52327 0.0
O941 O 0.63353 0.56938 0.50544 0.0
O942 O 0.61847 0.62512 0.48548 0.0
O943 O 0.60427 0.60645 0.51259 0.0
O944 O 0.62252 0.6498 0.53737 0.0
O945 O 0.64065 0.61916 0.54737 0.0
O946 O 0.61599 0.67949 0.4868 0.0
O947 O 0.65025 0.6862 0.48806 0.0
O948 O 0.66743 0.6305 0.50323 0.0
O949 O 0.66841 0.65786 0.52507 0.0
O950 O 0.65832 0.60595 0.46999 0.0
O951 O 0.65114 0.64138 0.46103 0.0
H952 H 0.63743 0.52166 0.51594 0.0
H953 H 0.63531 0.49547 0.54905 0.0
H954 H 0.65119 0.54499 0.60006 0.0
H955 H 0.65275 0.57115 0.56733 0.0
H956 H 0.59511 0.70729 0.4592 0.0
H957 H 0.59252 0.73219 0.42532 0.0
H958 H 0.66145 0.7345 0.42055 0.0
H959 H 0.66404 0.70992 0.4545 0.0
Pr960 Pr 0.40126 0.38507 0.25106 0.0
Pr961 Pr 0.35459 0.39385 0.2637 0.0
C962 C 0.43727 0.36973 0.22988 0.0
C963 C 0.45194 0.37074 0.20876 0.0
C964 C 0.4596 0.39016 0.19929 0.0
C965 C 0.47431 0.39026 0.18 0.0
C966 C 0.48164 0.37096 0.16973 0.0
C967 C 0.47377 0.35162 0.17929 0.0
C968 C 0.45914 0.35154 0.19848 0.0
C969 C 0.3951 0.42593 0.27037 0.0
C970 C 0.37004 0.41185 0.2112 0.0
C971 C 0.3161 0.40487 0.28228 0.0
C972 C 0.2991 0.39862 0.29954 0.0
C973 C 0.27791 0.39767 0.29138 0.0
C974 C 0.2612 0.39288 0.3073 0.0
C975 C 0.26525 0.38895 0.33186 0.0
C976 C 0.28655 0.3898 0.34005 0.0
C977 C 0.30334 0.39455 0.32403 0.0
C978 C 0.36214 0.35431 0.2414 0.0
C979 C 0.38678 0.37626 0.30764 0.0
O980 O 0.41832 0.36133 0.22663 0.0
O981 O 0.43724 0.38555 0.24532 0.0
O982 O 0.38268 0.41664 0.25584 0.0
O983 O 0.41164 0.41394 0.27489 0.0
O984 O 0.35594 0.41421 0.22873 0.0
O985 O 0.3877 0.40034 0.21434 0.0
O986 O 0.33429 0.41184 0.29086 0.0
O987 O 0.31831 0.39327 0.26281 0.0
O988 O 0.37328 0.36233 0.25805 0.0
O989 O 0.34582 0.36633 0.23658 0.0
O990 O 0.40128 0.37131 0.29101 0.0
O991 O 0.36893 0.38617 0.30175 0.0
H992 H 0.45431 0.40524 0.20684 0.0
H993 H 0.47978 0.40548 0.17301 0.0
H994 H 0.47924 0.33641 0.17227 0.0
H995 H 0.45364 0.33634 0.20556 0.0
H996 H 0.27421 0.40096 0.27265 0.0
H997 H 0.24501 0.39274 0.30041 0.0
H998 H 0.29026 0.38668 0.35881 0.0
H999 H 0.31955 0.39516 0.33085 0.0
Pr1000 Pr 0.37723 0.65866 1.0037 0.0
Pr1001 Pr 0.36777 0.61077 1.0135 0.0
C1002 C 0.39496 0.69601 0.98931 0.0
C1003 C 0.39371 0.71196 0.96949 0.0
C1004 C 0.37414 0.71836 0.95931 0.0
C1005 C 0.37375 0.73291 0.93994 0.0
C1006 C 0.39291 0.74118 0.93019 0.0
C1007 C 0.41239 0.73482 0.94066 0.0
C1008 C 0.41276 0.72043 0.96003 0.0
C1009 C 0.33447 0.65069 1.01429 0.0
C1010 C 0.34901 0.63055 0.96369 0.0
C1011 C 0.36235 0.57015 0.02902 0.0
C1012 C 0.35934 0.55484 0.0492 0.0
C1013 C 0.3702 0.55695 0.07129 0.0
C1014 C 0.36896 0.54073 0.08885 0.0
C1015 C 0.35684 0.52209 0.08467 0.0
C1016 C 0.34584 0.52031 0.06259 0.0
C1017 C 0.34706 0.53647 0.04518 0.0
C1018 C 0.40327 0.61959 0.98381 0.0
C1019 C 0.38387 0.64144 0.06008 0.0
O1020 O 0.4027 0.67725 0.98351 0.0
O1021 O 0.37914 0.69494 1.0049 0.0
O1022 O 0.35005 0.64153 0.02459 0.0
O1023 O 0.3408 0.66552 0.99946 0.0
O1024 O 0.34477 0.61649 0.98089 0.0
O1025 O 0.36407 0.64533 0.96654 0.0
O1026 O 0.34629 0.58216 0.02209 0.0
O1027 O 0.38099 0.57951 0.02702 0.0
O1028 O 0.39867 0.62907 1.00323 0.0
O1029 O 0.38923 0.60499 0.97901 0.0
O1030 O 0.38737 0.65749 0.0449 0.0
O1031 O 0.37579 0.62306 0.05262 0.0
H1032 H 0.3592 0.71194 0.96611 0.0
H1033 H 0.35846 0.73727 0.93222 0.0
H1034 H 0.42745 0.74105 0.93396 0.0
H1035 H 0.42805 0.71576 0.96754 0.0
H1036 H 0.37991 0.57094 0.07482 0.0
H1037 H 0.37744 0.54281 0.1057 0.0
H1038 H 0.33666 0.50612 0.05841 0.0
H1039 H 0.33883 0.53429 0.02817 0.0
Pr1040 Pr 0.10749 0.62387 0.75274 0.0
Pr1041 Pr 0.15445 0.61407 0.76276 0.0
C1042 C 0.07065 0.63883 0.73332 0.0
C1043 C 0.05594 0.63719 0.71233 0.0
C1044 C 0.03421 0.63258 0.71625 0.0
C1045 C 0.01958 0.63285 0.69711 0.0
C1046 C 0.02628 0.63789 0.67349 0.0
C1047 C 0.04817 0.64211 0.6695 0.0
C1048 C 0.06281 0.64175 0.68866 0.0
C1049 C 0.1143 0.58183 0.76937 0.0
C1050 C 0.13661 0.59872 0.71026 0.0
C1051 C 0.19311 0.6025 0.78052 0.0
C1052 C 0.20974 0.60828 0.79852 0.0
C1053 C 0.23098 0.61091 0.79077 0.0
C1054 C 0.24727 0.61541 0.80729 0.0
C1055 C 0.24282 0.61738 0.83212 0.0
C1056 C 0.22151 0.61467 0.83995 0.0
C1057 C 0.20514 0.61022 0.82334 0.0
C1058 C 0.14688 0.65413 0.7416 0.0
C1059 C 0.12328 0.6311 0.80843 0.0
O1060 O 0.08937 0.64772 0.72991 0.0
O1061 O 0.07121 0.62299 0.74872 0.0
O1062 O 0.12603 0.59198 0.75483 0.0
O1063 O 0.09786 0.59348 0.77525 0.0
O1064 O 0.15043 0.59384 0.72744 0.0
O1065 O 0.1208 0.61234 0.71457 0.0
O1066 O 0.17495 0.59475 0.78843 0.0
O1067 O 0.19085 0.61493 0.76171 0.0
O1068 O 0.13609 0.6461 0.75872 0.0
O1069 O 0.1628 0.64184 0.73581 0.0
O1070 O 0.10875 0.63716 0.79251 0.0
O1071 O 0.14062 0.62066 0.8016 0.0
H1072 H 0.0284 0.62923 0.73431 0.0
H1073 H 1.00288 0.62975 0.70099 0.0
H1074 H 0.054 0.64574 0.65154 0.0
H1075 H 0.07945 0.64537 0.68495 0.0
H1076 H 0.23505 0.60924 0.77184 0.0
H1077 H 0.26348 0.61702 0.80057 0.0
H1078 H 0.21742 0.61625 0.85887 0.0
H1079 H 0.18892 0.60824 0.82995 0.0
Pr1080 Pr 0.13142 0.35355 0.50365 0.0
Pr1081 Pr 0.1414 0.40041 0.51313 0.0
C1082 C 0.11626 0.31658 0.48483 0.0
C1083 C 0.11737 0.30221 0.46355 0.0
C1084 C 0.09826 0.29521 0.45294 0.0
C1085 C 0.09856 0.28093 0.4335 0.0
C1086 C 0.11804 0.27318 0.42413 0.0
C1087 C 0.13724 0.28031 0.43471 0.0
C1088 C 0.13692 0.29471 0.45417 0.0
C1089 C 0.1736 0.36045 0.51992 0.0
C1090 C 0.15639 0.38204 0.46068 0.0
C1091 C 0.15361 0.43911 0.53006 0.0
C1092 C 0.1488 0.4554 0.5488 0.0
C1093 C 0.12844 0.4648 0.55093 0.0
C1094 C 0.12483 0.48137 0.56749 0.0
C1095 C 0.14144 0.48893 0.58234 0.0
C1096 C 0.16162 0.47904 0.58064 0.0
C1097 C 0.16524 0.46253 0.56403 0.0
C1098 C 0.10162 0.39303 0.49141 0.0
C1099 C 0.12432 0.36973 0.55923 0.0
O1100 O 0.1068 0.33505 0.48199 0.0
O1101 O 0.13277 0.31752 0.49924 0.0
O1102 O 0.16341 0.37195 0.5053 0.0
O1103 O 0.16189 0.34415 0.52614 0.0
O1104 O 0.16134 0.39601 0.47767 0.0
O1105 O 0.14279 0.36628 0.46525 0.0
O1106 O 0.16227 0.42115 0.53715 0.0
O1107 O 0.13993 0.43658 0.51247 0.0
O1108 O 0.10919 0.38236 0.50885 0.0
O1109 O 0.11424 0.40868 0.4856 0.0
O1110 O 0.11842 0.35497 0.54352 0.0
O1111 O 0.13451 0.38713 0.55217 0.0
H1112 H 0.08297 0.30063 0.45992 0.0
H1113 H 0.08344 0.2756 0.42614 0.0
H1114 H 0.15255 0.2749 0.42782 0.0
H1115 H 0.15195 0.29986 0.46192 0.0
H1116 H 0.11538 0.4596 0.53956 0.0
H1117 H 0.109 0.48836 0.56855 0.0
H1118 H 0.17485 0.48454 0.59157 0.0
H1119 H 0.18111 0.45564 0.56269 0.0
Pr1120 Pr 0.40398 0.62104 0.29464 0.0
Pr1121 Pr 0.35715 0.61354 0.2826 0.0
C1122 C 0.44063 0.6346 0.31579 0.0
C1123 C 0.45482 0.63175 0.33692 0.0
C1124 C 0.45408 0.61328 0.35131 0.0
C1125 C 0.46791 0.61104 0.3711 0.0
C1126 C 0.48277 0.62722 0.37697 0.0
C1127 C 0.4833 0.6457 0.36244 0.0
C1128 C 0.4695 0.6479 0.34271 0.0
C1129 C 0.39704 0.58221 0.27165 0.0
C1130 C 0.37276 0.59259 0.3334 0.0
C1131 C 0.31822 0.604 0.26431 0.0
C1132 C 0.30134 0.61026 0.24699 0.0
C1133 C 0.2804 0.61319 0.25556 0.0
C1134 C 0.26368 0.61759 0.23963 0.0
C1135 C 0.26744 0.61912 0.21464 0.0
C1136 C 0.28849 0.61634 0.20603 0.0
C1137 C 0.3053 0.61199 0.22204 0.0
C1138 C 0.36568 0.65199 0.30692 0.0
C1139 C 0.38928 0.63177 0.23873 0.0
O1140 O 0.42199 0.64353 0.31957 0.0
O1141 O 0.43993 0.61921 0.29984 0.0
O1142 O 0.38509 0.58998 0.28788 0.0
O1143 O 0.41354 0.59436 0.26738 0.0
O1144 O 0.35842 0.5915 0.3161 0.0
O1145 O 0.39062 0.60391 0.33059 0.0
O1146 O 0.33612 0.59612 0.25585 0.0
O1147 O 0.3209 0.61594 0.28342 0.0
O1148 O 0.3764 0.64457 0.28949 0.0
O1149 O 0.34943 0.63983 0.31176 0.0
O1150 O 0.4039 0.63625 0.2553 0.0
O1151 O 0.37131 0.62202 0.24461 0.0
H1152 H 0.44288 0.60059 0.3472 0.0
H1153 H 0.46713 0.59647 0.38161 0.0
H1154 H 0.49418 0.65866 0.36651 0.0
H1155 H 0.47029 0.66233 0.33192 0.0
H1156 H 0.27687 0.61168 0.27464 0.0
H1157 H 0.24766 0.61927 0.24691 0.0
H1158 H 0.292 0.61761 0.18693 0.0
H1159 H 0.32129 0.60976 0.21487 0.0
Pr1160 Pr 0.13692 0.65482 0.042 0.0
Pr1161 Pr 0.14365 0.60637 0.0339 0.0
C1162 C 0.12438 0.69323 0.05965 0.0
C1163 C 0.12484 0.70712 0.0814 0.0
C1164 C 0.14412 0.71374 0.09209 0.0
C1165 C 0.14395 0.72783 0.11183 0.0
C1166 C 0.12451 0.73557 0.1214 0.0
C1167 C 0.10528 0.72868 0.11077 0.0
C1168 C 0.10547 0.71469 0.09104 0.0
C1169 C 0.1779 0.64356 0.02546 0.0
C1170 C 0.15901 0.62547 0.08603 0.0
C1171 C 0.1541 0.5667 1.01856 0.0
C1172 C 0.14872 0.55008 1.00052 0.0
C1173 C 0.14497 0.52911 1.00844 0.0
C1174 C 0.14062 0.5128 0.99192 0.0
C1175 C 0.13999 0.51703 0.96699 0.0
C1176 C 0.14378 0.53808 0.95902 0.0
C1177 C 0.14803 0.55447 0.97562 0.0
C1178 C 0.10463 0.61705 0.05548 0.0
C1179 C 0.12841 0.63731 0.98703 0.0
O1180 O 0.11247 0.67606 0.06062 0.0
O1181 O 0.14212 0.69039 0.04745 0.0
O1182 O 0.16687 0.63366 0.04077 0.0
O1183 O 0.16821 0.66099 1.01872 0.0
O1184 O 0.16318 0.61067 0.06962 0.0
O1185 O 0.1466 0.64201 0.08081 0.0
O1186 O 0.16369 0.58406 1.01097 0.0
O1187 O 0.14021 0.57027 0.0358 0.0
O1188 O 0.11306 0.62706 0.03796 0.0
O1189 O 0.11572 0.60027 0.06112 0.0
O1190 O 0.12414 0.65311 1.00219 0.0
O1191 O 0.137 0.61919 0.99455 0.0
H1192 H 0.15935 0.70818 0.08513 0.0
H1193 H 0.15907 0.73256 0.1197 0.0
H1194 H 0.09001 0.73449 0.11734 0.0
H1195 H 0.09038 0.71 0.08305 0.0
H1196 H 0.1456 0.52528 0.0275 0.0
H1197 H 0.1381 0.49676 0.9987 0.0
H1198 H 0.1432 0.54194 0.93998 0.0
H1199 H 0.15084 0.57051 0.96896 0.0
Pr1200 Pr 0.10204 0.38499 0.79211 0.0
Pr1201 Pr 0.14903 0.39465 0.78387 0.0
C1202 C 0.06419 0.37145 0.81055 0.0
C1203 C 0.05009 0.3729 0.83213 0.0
C1204 C 0.02831 0.37765 0.82909 0.0
C1205 C 0.01429 0.37781 0.84887 0.0
C1206 C 0.02167 0.37311 0.87226 0.0
C1207 C 0.04359 0.36863 0.87533 0.0
C1208 C 0.05765 0.36857 0.85551 0.0
C1209 C 0.10947 0.42503 0.77127 0.0
C1210 C 0.12941 0.41201 0.83449 0.0
C1211 C 0.1883 0.40557 0.7671 0.0
C1212 C 0.20482 0.39973 0.74891 0.0
C1213 C 0.22563 0.39497 0.75669 0.0
C1214 C 0.24183 0.39022 0.74004 0.0
C1215 C 0.23771 0.3902 0.71508 0.0
C1216 C 0.21686 0.39506 0.70723 0.0
C1217 C 0.20056 0.39971 0.72396 0.0
C1218 C 0.14092 0.35585 0.80762 0.0
C1219 C 0.11975 0.37518 0.73783 0.0
O1220 O 0.08209 0.36075 0.81254 0.0
O1221 O 0.066 0.38839 0.79688 0.0
O1222 O 0.12016 0.41698 0.78825 0.0
O1223 O 0.09399 0.41243 0.76467 0.0
O1224 O 0.14405 0.41618 0.81791 0.0
O1225 O 0.11373 0.39831 0.83002 0.0
O1226 O 0.17055 0.4143 0.75948 0.0
O1227 O 0.18533 0.39251 0.78524 0.0
O1228 O 0.13093 0.3626 0.78931 0.0
O1229 O 0.15616 0.36888 0.81358 0.0
O1230 O 0.10455 0.3699 0.75339 0.0
O1231 O 0.1369 0.38579 0.74486 0.0
H1232 H 0.02204 0.3809 0.81126 0.0
H1233 H 0.99752 0.38108 0.84571 0.0
H1234 H 0.04991 0.36521 0.89309 0.0
H1235 H 0.07438 0.36491 0.85848 0.0
H1236 H 0.22943 0.3951 0.77575 0.0
H1237 H 0.25773 0.38687 0.74676 0.0
H1238 H 0.21306 0.395 0.68818 0.0
H1239 H 0.18469 0.40335 0.71733 0.0
Pr1240 Pr 0.36981 0.34673 0.54049 0.0
Pr1241 Pr 0.36304 0.39431 0.53272 0.0
C1242 C 0.38115 0.30842 0.5597 0.0
C1243 C 0.37884 0.29533 0.58197 0.0
C1244 C 0.36092 0.29717 0.59721 0.0
C1245 C 0.359 0.28428 0.61791 0.0
C1246 C 0.37499 0.26927 0.62399 0.0
C1247 C 0.39296 0.26766 0.60866 0.0
C1248 C 0.39484 0.2805 0.58797 0.0
C1249 C 0.33063 0.35625 0.51889 0.0
C1250 C 0.34355 0.37575 0.5829 0.0
C1251 C 0.357 0.43488 0.51685 0.0
C1252 C 0.35934 0.44928 0.49554 0.0
C1253 C 0.37482 0.46564 0.49567 0.0
C1254 C 0.3756 0.48096 0.47715 0.0
C1255 C 0.36073 0.48044 0.45818 0.0
C1256 C 0.34583 0.46355 0.45754 0.0
C1257 C 0.34513 0.44818 0.47595 0.0
C1258 C 0.4001 0.38357 0.55832 0.0
C1259 C 0.37983 0.36414 0.48606 0.0
O1260 O 0.39312 0.32552 0.56099 0.0
O1261 O 0.36414 0.31126 0.5464 0.0
O1262 O 0.33894 0.36662 0.53601 0.0
O1263 O 0.34254 0.34011 0.51257 0.0
O1264 O 0.34139 0.39139 0.56707 0.0
O1265 O 0.35567 0.35888 0.57797 0.0
O1266 O 0.34205 0.42022 0.51658 0.0
O1267 O 0.37442 0.42852 0.52765 0.0
O1268 O 0.39377 0.37437 0.53928 0.0
O1269 O 0.38723 0.39889 0.56456 0.0
O1270 O 0.38507 0.34886 0.50151 0.0
O1271 O 0.3695 0.38139 0.49341 0.0
H1272 H 0.34835 0.30849 0.59306 0.0
H1273 H 0.34477 0.28592 0.62895 0.0
H1274 H 0.40581 0.25666 0.61278 0.0
H1275 H 0.40886 0.27884 0.57658 0.0
H1276 H 0.3859 0.46705 0.51057 0.0
H1277 H 0.38717 0.49381 0.47832 0.0
H1278 H 0.33431 0.46251 0.44303 0.0
H1279 H 0.33302 0.43582 0.47515 0.0
H1280 H 0.25365 0.14519 0.18529 0.0
H1281 H 0.25215 0.07628 0.19432 0.0
H1282 H 0.28173 0.07263 0.16515 0.0
H1283 H 0.26376 0.14417 0.12158 0.0
H1284 H 0.28144 0.16693 0.12119 0.0
H1285 H 0.26086 0.1649 0.14391 0.0
H1286 H 0.28899 0.16849 0.17767 0.0
H1287 H 0.30984 0.17084 0.15526 0.0
H1288 H 0.31154 0.15054 0.17826 0.0
H1289 H 0.31069 0.07587 0.13511 0.0
H1290 H 0.33602 0.08551 0.10285 0.0
H1291 H 0.31961 0.15247 0.11163 0.0
C1292 C 0.25968 0.12937 0.18119 0.0
C1293 C 0.25051 0.11098 0.19208 0.0
C1294 C 0.25868 0.09055 0.18603 0.0
C1295 C 0.27563 0.08833 0.16963 0.0
C1296 C 0.28431 0.10668 0.15927 0.0
C1297 C 0.27658 0.12682 0.16456 0.0
C1298 C 0.28828 0.14372 0.14976 0.0
C1299 C 0.27266 0.15564 0.13312 0.0
C1300 C 0.30038 0.15933 0.16623 0.0
C1301 C 0.30373 0.12986 0.13535 0.0
C1302 C 0.30117 0.10857 0.14142 0.0
C1303 C 0.31293 0.09248 0.13027 0.0
C1304 C 0.32732 0.09814 0.11198 0.0
C1305 C 0.32995 0.11974 0.10486 0.0
C1306 C 0.31827 0.13589 0.11705 0.0
H1307 H 0.15549 0.06538 0.3491 0.0
H1308 H 0.09945 0.10092 0.37253 0.0
H1309 H 0.09686 0.07821 0.40877 0.0
H1310 H 0.13721 0.0137 0.36875 0.0
H1311 H 0.16338 0.005 0.378 0.0
H1312 H 0.16075 0.02447 0.35426 0.0
H1313 H 0.18544 0.05014 0.37844 0.0
H1314 H 0.1875 0.03071 0.40233 0.0
H1315 H 0.17819 0.05735 0.4089 0.0
H1316 H 0.09939 0.05076 0.44183 0.0
H1317 H 0.10774 0.02145 0.47008 0.0
H1318 H 0.16209 1.00347 0.42551 0.0
C1319 C 0.14286 0.06861 0.36202 0.0
C1320 C 0.12776 0.08512 0.35794 0.0
C1321 C 0.11129 0.0885 0.37519 0.0
C1322 C 0.10964 0.07563 0.39587 0.0
C1323 C 0.12458 0.05937 0.39918 0.0
C1324 C 0.14094 0.05586 0.38281 0.0
C1325 C 0.1547 0.03707 0.39055 0.0
C1326 C 0.15396 0.019 0.37175 0.0
C1327 C 0.17783 0.04425 0.39534 0.0
C1328 C 0.14348 0.03054 0.41375 0.0
C1329 C 0.12611 0.04359 0.41834 0.0
C1330 C 0.11299 0.04047 0.43843 0.0
C1331 C 0.11777 0.02364 0.4543 0.0
C1332 C 0.13555 0.01005 0.45011 0.0
C1333 C 0.14853 0.01368 0.42947 0.0
H1334 H 0.26176 0.86871 0.68003 0.0
H1335 H 0.25616 0.93608 0.69771 0.0
H1336 H 0.22584 0.93938 0.6697 0.0
H1337 H 0.24944 0.87454 0.61655 0.0
H1338 H 0.23453 0.84995 0.61471 0.0
H1339 H 0.25572 0.85263 0.63644 0.0
H1340 H 0.22923 0.84269 0.67075 0.0
H1341 H 0.20793 0.84016 0.6491 0.0
H1342 H 0.20498 0.85795 0.67447 0.0
H1343 H 0.19659 0.9359 0.6397 0.0
H1344 H 0.17104 0.92616 0.60777 0.0
H1345 H 0.19458 0.8609 0.609 0.0
C1346 C 0.25407 0.88412 0.67806 0.0
C1347 C 0.26148 0.90219 0.69105 0.0
C1348 C 0.25107 0.9221 0.68775 0.0
C1349 C 0.23369 0.9241 0.67201 0.0
C1350 C 0.22678 0.90606 0.65955 0.0
C1351 C 0.23668 0.88646 0.6622 0.0
C1352 C 0.22632 0.86981 0.64598 0.0
C1353 C 0.24246 0.86123 0.62732 0.0
C1354 C 0.21653 0.85157 0.66098 0.0
C1355 C 0.20904 0.88315 0.63395 0.0
C1356 C 0.20964 0.904 0.64215 0.0
C1357 C 0.19588 0.91959 0.63323 0.0
C1358 C 0.18138 0.91389 0.6151 0.0
C1359 C 0.18061 0.89273 0.60604 0.0
C1360 C 0.19445 0.87709 0.61591 0.0
H1361 H 0.36008 0.94748 0.84368 0.0
H1362 H 0.40499 0.90375 0.87716 0.0
H1363 H 0.40716 0.92758 0.91268 0.0
H1364 H 0.38624 0.99515 0.86322 0.0
H1365 H 0.36179 0.00992 0.86777 0.0
H1366 H 0.36289 0.98892 0.84557 0.0
H1367 H 0.33065 0.97008 0.86601 0.0
H1368 H 0.32932 0.99109 0.88817 0.0
H1369 H 0.33183 0.96366 0.89771 0.0
H1370 H 0.40487 0.9566 0.94424 0.0
H1371 H 0.39775 0.98808 0.96988 0.0
H1372 H 0.3553 0.0135 0.91506 0.0
C1373 C 0.37006 0.94268 0.85867 0.0
C1374 C 0.38214 0.92357 0.85779 0.0
C1375 C 0.39546 0.91821 0.87752 0.0
C1376 C 0.39684 0.93168 0.89774 0.0
C1377 C 0.38496 0.95055 0.89785 0.0
C1378 C 0.37183 0.95606 0.87883 0.0
C1379 C 0.36133 0.97759 0.88301 0.0
C1380 C 0.3685 0.99385 0.86375 0.0
C1381 C 0.33683 0.97547 0.88378 0.0
C1382 C 0.37029 0.98318 0.9076 0.0
C1383 C 0.38398 0.96744 0.91577 0.0
C1384 C 0.39422 0.96905 0.938 0.0
C1385 C 0.39019 0.98709 0.95236 0.0
C1386 C 0.37601 1.00335 0.94452 0.0
C1387 C 0.36607 1.00131 0.92172 0.0
H1388 H 0.32839 0.85536 0.43679 0.0
H1389 H 0.3411 0.92298 0.4471 0.0
H1390 H 0.31408 0.93187 0.41666 0.0
H1391 H 0.31886 0.85871 0.37103 0.0
H1392 H 0.29765 0.83919 0.37163 0.0
H1393 H 0.31897 0.83777 0.39339 0.0
H1394 H 0.2911 0.83871 0.42825 0.0
H1395 H 0.26984 0.84006 0.40644 0.0
H1396 H 0.27198 0.86026 0.42946 0.0
H1397 H 0.28417 0.93408 0.38787 0.0
H1398 H 0.25491 0.92925 0.35871 0.0
H1399 H 0.26113 0.86038 0.36522 0.0
C1400 C 0.32582 0.87197 0.43217 0.0
C1401 C 0.33694 0.88847 0.44435 0.0
C1402 C 0.3328 0.91005 0.43811 0.0
C1403 C 0.31743 0.91531 0.42084 0.0
C1404 C 0.30629 0.89883 0.40972 0.0
C1405 C 0.3104 0.87758 0.41479 0.0
C1406 C 0.29563 0.86316 0.40033 0.0
C1407 C 0.30855 0.84886 0.38307 0.0
C1408 C 0.2813 0.84975 0.41713 0.0
C1409 C 0.28261 0.87967 0.38658 0.0
C1410 C 0.28901 0.90013 0.3925 0.0
C1411 C 0.27908 0.91814 0.38292 0.0
C1412 C 0.26233 0.91524 0.36653 0.0
C1413 C 0.25566 0.89447 0.35971 0.0
C1414 C 0.26598 0.87645 0.36996 0.0
H1415 H 0.39408 1.00186 0.61841 0.0
H1416 H 0.326 1.00356 0.60319 0.0
H1417 H 0.32145 0.03265 0.63273 0.0
H1418 H 0.38886 0.01191 0.6829 0.0
H1419 H 0.41255 0.02827 0.68453 0.0
H1420 H 0.41074 0.00738 0.66225 0.0
H1421 H 0.41824 0.03482 0.62831 0.0
H1422 H 0.42008 0.0559 0.65035 0.0
H1423 H 0.40149 0.05816 0.62568 0.0
H1424 H 0.32402 0.06152 0.66331 0.0
H1425 H 0.33327 0.08759 0.69489 0.0
H1426 H 0.39977 0.06782 0.69085 0.0
C1427 C 0.37819 0.00819 0.62152 0.0
C1428 C 0.36041 1.00051 0.60831 0.0
C1429 C 0.33991 0.00938 0.61277 0.0
C1430 C 0.33714 0.02587 0.62958 0.0
C1431 C 0.35502 0.03336 0.64188 0.0
C1432 C 0.37512 0.02475 0.63827 0.0
C1433 C 0.39158 0.03579 0.65407 0.0
C1434 C 0.40152 0.01989 0.672 0.0
C1435 C 0.40887 0.04682 0.63868 0.0
C1436 C 0.37758 0.05204 0.66694 0.0
C1437 C 0.35654 0.05026 0.65961 0.0
C1438 C 0.34044 0.0631 0.66918 0.0
C1439 C 0.34588 0.0779 0.68709 0.0
C1440 C 0.36726 0.07987 0.69521 0.0
C1441 C 0.38336 0.06694 0.68471 0.0
H1442 H 0.19417 0.10488 0.95082 0.0
H1443 H 0.14692 0.14655 0.91817 0.0
H1444 H 0.16944 0.14936 0.88154 0.0
H1445 H 0.23969 0.13332 0.92844 0.0
H1446 H 0.25578 0.10978 0.92366 0.0
H1447 H 0.23543 0.10989 0.94677 0.0
H1448 H 0.21793 0.07636 0.92779 0.0
H1449 H 0.23833 0.07599 0.90476 0.0
H1450 H 0.2105 0.07673 0.89638 0.0
H1451 H 0.19749 0.14831 0.84878 0.0
H1452 H 0.22879 0.14339 0.82214 0.0
H1453 H 0.25837 0.10286 0.87618 0.0
C1454 C 0.18835 0.11424 0.93577 0.0
C1455 C 0.16858 0.12524 0.93723 0.0
C1456 C 0.16188 0.13784 0.9174 0.0
C1457 C 0.1746 0.13956 0.89653 0.0
C1458 C 0.19413 0.12879 0.89581 0.0
C1459 C 0.20101 0.11638 0.9149 0.0
C1460 C 0.22307 0.10717 0.9099 0.0
C1461 C 0.23946 0.11554 0.92828 0.0
C1462 C 0.22241 0.0826 0.90969 0.0
C1463 C 0.22741 0.11609 0.88486 0.0
C1464 C 0.2105 0.12854 0.87711 0.0
C1465 C 0.21076 0.1385 0.85462 0.0
C1466 C 0.22861 0.13551 0.83954 0.0
C1467 C 0.2461 0.12262 0.84688 0.0
C1468 C 0.24542 0.11296 0.87002 0.0
H1469 H 0.11165 0.93404 0.18646 0.0
H1470 H 0.17842 0.91525 0.18919 0.0
H1471 H 0.18686 0.94082 0.15673 0.0
H1472 H 0.10942 0.94341 0.12021 0.0
H1473 H 0.09223 0.96638 0.12326 0.0
H1474 H 0.09089 0.94509 0.14514 0.0
H1475 H 0.09764 0.97241 0.17922 0.0
H1476 H 0.09948 0.9938 0.15758 0.0
H1477 H 0.1212 0.98902 0.1782 0.0
H1478 H 0.18897 0.9701 0.12662 0.0
H1479 H 0.1843 1.00022 0.09853 0.0
H1480 H 0.11624 1.00115 0.11443 0.0
C1481 C 0.1279 0.93489 0.17969 0.0
C1482 C 0.14436 0.92243 0.19021 0.0
C1483 C 0.16555 0.9245 0.18135 0.0
C1484 C 0.17052 0.93903 0.16292 0.0
C1485 C 0.15414 0.95152 0.15342 0.0
C1486 C 0.13321 0.94954 0.16127 0.0
C1487 C 0.11897 0.96578 0.14865 0.0
C1488 C 0.10186 0.95449 0.13341 0.0
C1489 C 0.10873 0.98117 0.16701 0.0
C1490 C 0.13524 0.97726 0.13274 0.0
C1491 C 0.1554 0.96869 0.13588 0.0
C1492 C 0.17324 0.97686 0.12388 0.0
C1493 C 0.17044 0.99414 0.10809 0.0
C1494 C 0.14995 1.00322 0.10427 0.0
C1495 C 0.13209 0.99451 0.11678 0.0
H1496 H 0.76809 0.9248 0.87559 0.0
H1497 H 0.76105 0.86482 0.83715 0.0
H1498 H 0.72993 0.85564 0.8626 0.0
H1499 H 0.75488 0.90322 0.93417 0.0
H1500 H 0.74041 0.92638 0.94456 0.0
H1501 H 0.76177 0.92933 0.9229 0.0
H1502 H 0.7365 0.94837 0.89313 0.0
H1503 H 0.71493 0.94606 0.91464 0.0
H1504 H 0.71177 0.93569 0.88451 0.0
H1505 H 0.69933 0.85307 0.8912 0.0
H1506 H 0.67277 0.85558 0.92388 0.0
H1507 H 0.69974 0.91659 0.94572 0.0
C1508 C 0.75994 0.90977 0.87258 0.0
C1509 C 0.76702 0.89548 0.8544 0.0
C1510 C 0.75607 0.87588 0.85112 0.0
C1511 C 0.73828 0.8706 0.86537 0.0
C1512 C 0.73165 0.88498 0.88306 0.0
C1513 C 0.74224 0.90406 0.88698 0.0
C1514 C 0.73216 0.91618 0.90792 0.0
C1515 C 0.74825 0.91894 0.92862 0.0
C1516 C 0.72331 0.93786 0.89954 0.0
C1517 C 0.71418 0.90099 0.91494 0.0
C1518 C 0.71416 0.88321 0.90017 0.0
C1519 C 0.69921 0.86689 0.90294 0.0
C1520 C 0.68411 0.86853 0.92158 0.0
C1521 C 0.68401 0.88631 0.93746 0.0
C1522 C 0.69918 0.90288 0.93382 0.0
H1523 H 0.85614 0.0079 0.62061 0.0
H1524 H 0.90295 0.98291 0.56993 0.0
H1525 H 0.91101 0.9534 0.59815 0.0
H1526 H 0.88568 0.99598 0.67401 0.0
H1527 H 0.86272 0.98849 0.6919 0.0
H1528 H 0.85995 0.00768 0.66786 0.0
H1529 H 0.83061 0.98499 0.64764 0.0
H1530 H 0.83249 0.9658 0.67178 0.0
H1531 H 0.83572 0.95726 0.64091 0.0
H1532 H 0.91359 0.92613 0.63201 0.0
H1533 H 0.91139 0.90435 0.66919 0.0
H1534 H 0.86267 0.94719 0.69733 0.0
C1535 C 0.868 0.99615 0.61534 0.0
C1536 C 0.87889 0.99775 0.59297 0.0
C1537 C 0.89455 0.9822 0.58703 0.0
C1538 C 0.89914 0.96528 0.60289 0.0
C1539 C 0.88799 0.96412 0.6247 0.0
C1540 C 0.87281 0.97921 0.63097 0.0
C1541 C 0.8633 0.97453 0.65561 0.0
C1542 C 0.86821 0.99274 0.67341 0.0
C1543 C 0.8391 0.97039 0.65387 0.0
C1544 C 0.87532 0.95431 0.66212 0.0
C1545 C 0.88951 0.94854 0.64409 0.0
C1546 C 0.90249 0.93049 0.64621 0.0
C1547 C 0.90106 0.91815 0.66738 0.0
C1548 C 0.88672 0.92386 0.68616 0.0
C1549 C 0.87364 0.94216 0.68327 0.0
H1550 H 0.75429 0.14101 0.36166 0.0
H1551 H 0.75732 0.07296 0.34676 0.0
H1552 H 0.78715 0.06932 0.37539 0.0
H1553 H 0.81155 0.1496 0.36812 0.0
H1554 H 0.80886 0.16827 0.39272 0.0
H1555 H 0.7879 0.16597 0.37061 0.0
H1556 H 0.76035 0.15822 0.40455 0.0
H1557 H 0.78119 0.16064 0.42675 0.0
H1558 H 0.76527 0.13666 0.4254 0.0
H1559 H 0.81603 0.07252 0.40576 0.0
H1560 H 0.84126 0.08205 0.43803 0.0
H1561 H 0.8204 0.14815 0.4341 0.0
C1562 C 0.76134 0.12539 0.36436 0.0
C1563 C 0.75334 0.10723 0.35199 0.0
C1564 C 0.76289 0.08703 0.35622 0.0
C1565 C 0.77999 0.08483 0.37232 0.0
C1566 C 0.78746 0.10295 0.38418 0.0
C1567 C 0.77841 0.12284 0.3806 0.0
C1568 C 0.78916 0.13952 0.39647 0.0
C1569 C 0.80001 0.15687 0.38105 0.0
C1570 C 0.77303 0.14933 0.41435 0.0
C1571 C 0.80561 0.12584 0.40944 0.0
C1572 C 0.80434 0.10482 0.40192 0.0
C1573 C 0.81726 0.08894 0.41172 0.0
C1574 C 0.83157 0.09454 0.43006 0.0
C1575 C 0.83298 0.11586 0.4385 0.0
C1576 C 0.82002 0.13179 0.42772 0.0
H1577 H 0.66252 1.00255 0.11897 0.0
H1578 H 0.61982 0.03049 0.06601 0.0
H1579 H 0.61229 0.06036 0.09387 0.0
H1580 H 0.63109 0.01711 0.17158 0.0
H1581 H 0.65413 0.02256 0.19002 0.0
H1582 H 0.65588 1.00318 0.16605 0.0
H1583 H 0.68803 0.0238 0.14768 0.0
H1584 H 0.68627 0.0433 0.17152 0.0
H1585 H 0.68513 0.05175 0.14045 0.0
H1586 H 0.60923 0.08737 0.12774 0.0
H1587 H 0.61058 0.10895 0.16509 0.0
H1588 H 0.65607 0.06414 0.19561 0.0
C1589 C 0.65168 0.015 0.11313 0.0
C1590 C 0.64175 0.01404 0.09017 0.0
C1591 C 0.62742 0.0306 0.08354 0.0
C1592 C 0.62314 0.04775 0.09921 0.0
C1593 C 0.63326 0.04824 0.12159 0.0
C1594 C 0.64717 0.03225 0.12861 0.0
C1595 C 0.65579 0.0365 0.15376 0.0
C1596 C 0.6488 0.01878 0.17139 0.0
C1597 C 0.68026 0.03899 0.15331 0.0
C1598 C 0.64482 0.05752 0.15963 0.0
C1599 C 0.63177 0.06395 0.1409 0.0
C1600 C 0.61949 0.08253 0.14245 0.0
C1601 C 0.62039 0.09472 0.16374 0.0
C1602 C 0.63363 0.08846 0.18321 0.0
C1603 C 0.6461 0.06965 0.18092 0.0
H1604 H 0.74572 0.15014 0.68555 0.0
H1605 H 0.75133 0.08137 0.6934 0.0
H1606 H 0.72247 0.07627 0.66376 0.0
H1607 H 0.68769 0.15232 0.67687 0.0
H1608 H 0.68889 0.17282 0.65403 0.0
H1609 H 0.70919 0.17154 0.67702 0.0
H1610 H 0.73862 0.16953 0.64405 0.0
H1611 H 0.71843 0.17091 0.62099 0.0
H1612 H 0.73716 0.14901 0.62128 0.0
H1613 H 0.69422 0.07807 0.63306 0.0
H1614 H 0.66936 0.08646 0.60014 0.0
H1615 H 0.68144 0.15421 0.61008 0.0
C1616 C 0.74066 0.13406 0.68111 0.0
C1617 C 0.75071 0.1161 0.6918 0.0
C1618 C 0.74393 0.0953 0.68534 0.0
C1619 C 0.72746 0.09225 0.66864 0.0
C1620 C 0.71793 0.11017 0.65835 0.0
C1621 C 0.72433 0.13069 0.66406 0.0
C1622 C 0.71211 0.147 0.64902 0.0
C1623 C 0.69867 0.1618 0.66521 0.0
C1624 C 0.7275 0.15987 0.63288 0.0
C1625 C 0.69792 0.13238 0.63405 0.0
C1626 C 0.70155 0.11123 0.64 0.0
C1627 C 0.69115 0.09456 0.6283 0.0
C1628 C 0.67703 0.09952 0.60961 0.0
C1629 C 0.67332 0.12098 0.60261 0.0
C1630 C 0.68363 0.13769 0.61534 0.0
H1631 H 0.65989 0.00967 0.41768 0.0
H1632 H 0.60494 0.99069 0.46079 0.0
H1633 H 0.59859 0.96036 0.43335 0.0
H1634 H 0.63688 0.99724 0.36019 0.0
H1635 H 0.66126 0.98706 0.347 0.0
H1636 H 0.66239 0.00714 0.37022 0.0
H1637 H 0.68664 0.98309 0.3962 0.0
H1638 H 0.68611 0.96289 0.37303 0.0
H1639 H 0.67816 0.9563 0.40344 0.0
H1640 H 0.59805 0.93203 0.40152 0.0
H1641 H 0.60237 0.9084 0.36628 0.0
H1642 H 0.65735 0.94562 0.34291 0.0
C1643 C 0.64642 0.99924 0.42124 0.0
C1644 C 0.633 1.00256 0.44158 0.0
C1645 C 0.61566 0.98836 0.44563 0.0
C1646 C 0.61187 0.97109 0.43008 0.0
C1647 C 0.62553 0.96812 0.41045 0.0
C1648 C 0.64241 0.98181 0.40589 0.0
C1649 C 0.65452 0.97503 0.38333 0.0
C1650 C 0.65371 0.99266 0.36402 0.0
C1651 C 0.67773 0.96897 0.38937 0.0
C1652 C 0.64167 0.95551 0.37583 0.0
C1653 C 0.62511 0.95178 0.39186 0.0
C1654 C 0.61097 0.93478 0.38884 0.0
C1655 C 0.61361 0.92139 0.36875 0.0
C1656 C 0.63027 0.92499 0.35179 0.0
C1657 C 0.64458 0.94224 0.35561 0.0
H1658 H 0.82565 0.85967 0.10803 0.0
H1659 H 0.84884 0.92503 0.1076 0.0
H1660 H 0.8235 0.93422 0.14013 0.0
H1661 H 0.77129 0.87271 0.11599 0.0
H1662 H 0.76478 0.85074 0.13574 0.0
H1663 H 0.78632 0.84818 0.11427 0.0
H1664 H 0.81262 0.83852 0.14851 0.0
H1665 H 0.79112 0.84066 0.17015 0.0
H1666 H 0.8152 0.85613 0.17408 0.0
H1667 H 0.79406 0.93743 0.16998 0.0
H1668 H 0.76325 0.93401 0.19753 0.0
H1669 H 0.75795 0.86672 0.17937 0.0
C1670 C 0.82581 0.87571 0.11537 0.0
C1671 C 0.83945 0.89159 0.10552 0.0
C1672 C 0.83868 0.9126 0.115 0.0
C1673 C 0.8243 0.91799 0.13346 0.0
C1674 C 0.81064 0.90223 0.1423 0.0
C1675 C 0.81131 0.88146 0.1338 0.0
C1676 C 0.79393 0.86802 0.1457 0.0
C1677 C 0.77815 0.85941 0.1268 0.0
C1678 C 0.80381 0.84975 0.16049 0.0
C1679 C 0.78336 0.88454 0.162 0.0
C1680 C 0.79332 0.90415 0.15965 0.0
C1681 C 0.78619 0.92213 0.17211 0.0
C1682 C 0.76853 0.92006 0.18758 0.0
C1683 C 0.75804 0.90015 0.19061 0.0
C1684 C 0.76569 0.88213 0.17762 0.0
H1685 H 0.89704 0.07035 0.85441 0.0
H1686 H 0.83182 0.09427 0.85379 0.0
H1687 H 0.82206 0.06866 0.88575 0.0
H1688 H 0.88334 0.01543 0.8627 0.0
H1689 H 0.90552 0.00954 0.88229 0.0
H1690 H 0.90783 0.03051 0.86015 0.0
H1691 H 0.91778 0.05747 0.8939 0.0
H1692 H 0.91556 0.03648 0.91604 0.0
H1693 H 0.90014 0.06064 0.91946 0.0
H1694 H 0.81865 0.03949 0.91609 0.0
H1695 H 0.82236 0.00987 0.94506 0.0
H1696 H 0.88981 0.00462 0.92695 0.0
C1697 C 0.88082 0.07049 0.86135 0.0
C1698 C 0.86522 0.08446 0.85166 0.0
C1699 C 0.84407 0.0838 0.86092 0.0
C1700 C 0.83833 0.06926 0.87906 0.0
C1701 C 0.8539 0.05538 0.88779 0.0
C1702 C 0.87475 0.05592 0.87944 0.0
C1703 C 0.88818 0.03883 0.89163 0.0
C1704 C 0.89672 0.02262 0.87308 0.0
C1705 C 0.9065 0.04896 0.90612 0.0
C1706 C 0.8716 0.02868 0.90814 0.0
C1707 C 0.85194 0.03846 0.90551 0.0
C1708 C 0.83403 0.03184 0.91851 0.0
C1709 C 0.83632 0.01502 0.93501 0.0
C1710 C 0.85641 0.00499 0.93855 0.0
C1711 C 0.87421 0.01182 0.92462 0.0
H1712 H 0.7593 0.64642 0.67693 0.0
H1713 H 0.75867 0.57838 0.69237 0.0
H1714 H 0.78888 0.57317 0.66422 0.0
H1715 H 0.77189 0.64158 0.61359 0.0
H1716 H 0.78884 0.66488 0.61303 0.0
H1717 H 0.76714 0.66322 0.63441 0.0
H1718 H 0.79383 0.66971 0.66936 0.0
H1719 H 0.81565 0.67112 0.64807 0.0
H1720 H 0.81661 0.65228 0.67267 0.0
H1721 H 0.81883 0.57514 0.63431 0.0
H1722 H 0.84528 0.58385 0.60264 0.0
H1723 H 0.82746 0.65076 0.60712 0.0
C1724 C 0.76558 0.63043 0.67448 0.0
C1725 C 0.75654 0.61278 0.68689 0.0
C1726 C 0.76507 0.5921 0.68287 0.0
C1727 C 0.78238 0.58901 0.66707 0.0
C1728 C 0.79104 0.60675 0.65539 0.0
C1729 C 0.78286 0.62704 0.65872 0.0
C1730 C 0.79483 0.64329 0.64343 0.0
C1731 C 0.77978 0.65386 0.62502 0.0
C1732 C 0.80589 0.66009 0.65934 0.0
C1733 C 0.81107 0.62895 0.63105 0.0
C1734 C 0.80858 0.60793 0.63827 0.0
C1735 C 0.82103 0.59155 0.62864 0.0
C1736 C 0.83605 0.59666 0.61071 0.0
C1737 C 0.83862 0.618 0.60265 0.0
C1738 C 0.82622 0.63439 0.61333 0.0
H1739 H 0.60988 0.57759 0.85745 0.0
H1740 H 0.67686 0.59468 0.85053 0.0
H1741 H 0.68605 0.56896 0.88259 0.0
H1742 H 0.60985 0.56789 0.92359 0.0
H1743 H 0.5921 0.54528 0.92123 0.0
H1744 H 0.59044 0.56676 0.89963 0.0
H1745 H 0.59553 0.53951 0.86492 0.0
H1746 H 0.59761 0.51798 0.88636 0.0
H1747 H 0.61876 0.52243 0.86472 0.0
H1748 H 0.68859 0.53965 0.9127 0.0
H1749 H 0.68419 0.50957 0.94094 0.0
H1750 H 0.61557 0.51054 0.92889 0.0
C1751 C 0.62635 0.57639 0.86332 0.0
C1752 C 0.64265 0.5884 0.85184 0.0
C1753 C 0.66414 0.58581 0.8593 0.0
C1754 C 0.66951 0.57119 0.87743 0.0
C1755 C 0.65324 0.55909 0.88789 0.0
C1756 C 0.63207 0.56158 0.8813 0.0
C1757 C 0.61796 0.54555 0.89448 0.0
C1758 C 0.60162 0.55706 0.9107 0.0
C1759 C 0.60681 0.53048 0.87655 0.0
C1760 C 0.63454 0.53368 0.90936 0.0
C1761 C 0.65476 0.54183 0.90524 0.0
C1762 C 0.67279 0.53331 0.91635 0.0
C1763 C 0.67011 0.51623 0.93245 0.0
C1764 C 0.64952 0.50775 0.93745 0.0
C1765 C 0.63154 0.51655 0.92546 0.0
H1766 H 0.68309 0.35862 0.10455 0.0
H1767 H 0.66529 0.42552 0.0996 0.0
H1768 H 0.69141 0.4344 0.13122 0.0
H1769 H 0.69301 0.35786 0.17043 0.0
H1770 H 0.71574 0.34029 0.16772 0.0
H1771 H 0.6943 0.33875 0.14612 0.0
H1772 H 0.72154 0.34443 0.11138 0.0
H1773 H 0.74303 0.34624 0.13286 0.0
H1774 H 0.73861 0.36765 0.11168 0.0
H1775 H 0.72098 0.43678 0.16095 0.0
H1776 H 0.75099 0.43221 0.18916 0.0
H1777 H 0.75071 0.36387 0.17549 0.0
C1778 C 0.68431 0.37502 0.11063 0.0
C1779 C 0.67196 0.39137 0.09972 0.0
C1780 C 0.67447 0.41273 0.10771 0.0
C1781 C 0.68931 0.41795 0.12566 0.0
C1782 C 0.70167 0.40166 0.13554 0.0
C1783 C 0.69927 0.38059 0.12853 0.0
C1784 C 0.71538 0.36642 0.14143 0.0
C1785 C 0.70392 0.34985 0.15737 0.0
C1786 C 0.73053 0.35554 0.12325 0.0
C1787 C 0.7272 0.38285 0.15663 0.0
C1788 C 0.71899 0.40307 0.15283 0.0
C1789 C 0.72749 0.42101 0.16417 0.0
C1790 C 0.74471 0.41827 0.18003 0.0
C1791 C 0.75338 0.39772 0.18455 0.0
C1792 C 0.74439 0.37978 0.17261 0.0
H1793 H 0.89712 0.50088 0.42774 0.0
H1794 H 0.82905 0.50369 0.4434 0.0
H1795 H 0.82289 0.47361 0.41556 0.0
H1796 H 0.89193 0.48824 0.36444 0.0
H1797 H 0.91469 0.47056 0.36404 0.0
H1798 H 0.91366 0.49234 0.38524 0.0
H1799 H 0.91926 0.46539 0.42026 0.0
H1800 H 0.9199 0.44357 0.39905 0.0
H1801 H 0.90102 0.44326 0.42371 0.0
H1802 H 0.8238 0.44369 0.38577 0.0
H1803 H 0.83151 0.41709 0.35405 0.0
H1804 H 0.89907 0.4326 0.35796 0.0
C1805 C 0.88093 0.4951 0.42541 0.0
C1806 C 0.86355 0.50479 0.43779 0.0
C1807 C 0.84259 0.49684 0.43392 0.0
C1808 C 0.83895 0.4796 0.4183 0.0
C1809 C 0.8564 0.47035 0.40659 0.0
C1810 C 0.87697 0.47788 0.40979 0.0
C1811 C 0.8928 0.46534 0.39444 0.0
C1812 C 0.90392 0.48 0.37595 0.0
C1813 C 0.90921 0.4537 0.41032 0.0
C1814 C 0.87788 0.44962 0.38214 0.0
C1815 C 0.85697 0.4528 0.38951 0.0
C1816 C 0.84013 0.44094 0.38 0.0
C1817 C 0.84468 0.42582 0.36203 0.0
C1818 C 0.8659 0.42254 0.35378 0.0
C1819 C 0.88276 0.43435 0.36434 0.0
H1820 H 0.75109 0.41029 0.87401 0.0
H1821 H 0.77965 0.37006 0.81884 0.0
H1822 H 0.81071 0.36356 0.84536 0.0
H1823 H 0.79983 0.43449 0.89446 0.0
H1824 H 0.79192 0.43478 0.92577 0.0
H1825 H 0.7719 0.4362 0.90252 0.0
H1826 H 0.75282 0.40302 0.92057 0.0
H1827 H 0.77269 0.4016 0.94397 0.0
H1828 H 0.76776 0.37871 0.92506 0.0
H1829 H 0.83821 0.36046 0.87871 0.0
H1830 H 0.86001 0.36155 0.91591 0.0
H1831 H 0.81384 0.40468 0.94851 0.0
C1832 C 0.76379 0.39997 0.86756 0.0
C1833 C 0.76291 0.39068 0.84431 0.0
C1834 C 0.78005 0.37754 0.83646 0.0
C1835 C 0.79773 0.37368 0.85143 0.0
C1836 C 0.79812 0.38317 0.87419 0.0
C1837 C 0.7816 0.39607 0.8822 0.0
C1838 C 0.78591 0.40439 0.9074 0.0
C1839 C 0.78749 0.42892 0.90753 0.0
C1840 C 0.76878 0.39645 0.9253 0.0
C1841 C 0.80743 0.39417 0.91232 0.0
C1842 C 0.81417 0.38188 0.89302 0.0
C1843 C 0.83317 0.3702 0.89383 0.0
C1844 C 0.84547 0.37094 0.91501 0.0
C1845 C 0.83883 0.38345 0.93498 0.0
C1846 C 0.81964 0.39534 0.93339 0.0
H1847 H 0.85136 0.56438 0.1953 0.0
H1848 H 0.90892 0.59802 0.17298 0.0
H1849 H 0.91226 0.574 0.13784 0.0
H1850 H 0.8686 0.51171 0.17885 0.0
H1851 H 0.84253 0.50357 0.16869 0.0
H1852 H 0.84492 0.52374 0.19169 0.0
H1853 H 0.82206 0.54931 0.16516 0.0
H1854 H 0.82028 0.52915 0.14205 0.0
H1855 H 0.83072 0.55524 0.13482 0.0
H1856 H 0.9103 0.54522 0.10604 0.0
H1857 H 0.90203 0.51517 0.07873 0.0
H1858 H 0.84564 0.50038 0.12152 0.0
C1859 C 0.86454 0.56691 0.18289 0.0
C1860 C 0.87983 0.58323 0.18693 0.0
C1861 C 0.89692 0.58577 0.17029 0.0
C1862 C 0.899 0.57214 0.15028 0.0
C1863 C 0.88384 0.55606 0.14704 0.0
C1864 C 0.86684 0.55348 0.16278 0.0
C1865 C 0.85278 0.53488 0.15521 0.0
C1866 C 0.85218 0.51746 0.17479 0.0
C1867 C 0.83012 0.54261 0.14893 0.0
C1868 C 0.86467 0.52725 0.13292 0.0
C1869 C 0.88256 0.53965 0.12855 0.0
C1870 C 0.89629 0.53544 0.10926 0.0
C1871 C 0.89155 0.51821 0.09395 0.0
C1872 C 0.8732 0.50534 0.09792 0.0
C1873 C 0.85965 0.51002 0.11777 0.0
H1874 H 0.75944 0.59403 0.37066 0.0
H1875 H 0.73334 0.63876 0.31858 0.0
H1876 H 0.70192 0.64434 0.34481 0.0
H1877 H 0.70922 0.57019 0.38855 0.0
H1878 H 0.71625 0.56788 0.41996 0.0
H1879 H 0.73684 0.56709 0.39714 0.0
H1880 H 0.75651 0.59851 0.41793 0.0
H1881 H 0.7361 0.59924 0.44094 0.0
H1882 H 0.74223 0.62299 0.42387 0.0
H1883 H 0.67384 0.64613 0.37699 0.0
H1884 H 0.65126 0.6445 0.4136 0.0
H1885 H 0.6946 0.59807 0.44492 0.0
C1886 C 0.74718 0.6051 0.36485 0.0
C1887 C 0.74886 0.61582 0.34237 0.0
C1888 C 0.73232 0.63006 0.33545 0.0
C1889 C 0.71441 0.63341 0.35029 0.0
C1890 C 0.71312 0.6224 0.37209 0.0
C1891 C 0.72906 0.60859 0.37946 0.0
C1892 C 0.72374 0.599 0.40397 0.0
C1893 C 0.72137 0.57459 0.40229 0.0
C1894 C 0.74065 0.60532 0.42278 0.0
C1895 C 0.70236 0.60964 0.4092 0.0
C1896 C 0.6966 0.62311 0.39055 0.0
C1897 C 0.67808 0.63549 0.39161 0.0
C1898 C 0.66532 0.63442 0.41245 0.0
C1899 C 0.67095 0.6209 0.43193 0.0
C1900 C 0.68957 0.60811 0.43006 0.0
H1901 H 0.61101 0.42605 0.6725 0.0
H1902 H 0.67705 0.42931 0.69645 0.0
H1903 H 0.68489 0.45588 0.66511 0.0
H1904 H 0.62293 0.43261 0.60729 0.0
H1905 H 0.59969 0.44897 0.60192 0.0
H1906 H 0.59918 0.42904 0.62542 0.0
H1907 H 0.5886 0.45811 0.65651 0.0
H1908 H 0.58927 0.47816 0.63318 0.0
H1909 H 0.60529 0.48141 0.65991 0.0
H1910 H 0.68544 0.48411 0.63421 0.0
H1911 H 0.67927 0.51077 0.60217 0.0
H1912 H 0.61357 0.4893 0.59554 0.0
C1913 C 0.62721 0.43199 0.67073 0.0
C1914 C 0.64341 0.42548 0.68703 0.0
C1915 C 0.66431 0.434 0.68435 0.0
C1916 C 0.66898 0.44916 0.66655 0.0
C1917 C 0.65265 0.45568 0.65127 0.0
C1918 C 0.63225 0.44726 0.65283 0.0
C1919 C 0.61768 0.4577 0.63427 0.0
C1920 C 0.60938 0.44109 0.61615 0.0
C1921 C 0.59911 0.46954 0.64672 0.0
C1922 C 0.63311 0.47331 0.62228 0.0
C1923 C 0.65314 0.47188 0.63262 0.0
C1924 C 0.66992 0.48522 0.62572 0.0
C1925 C 0.66625 0.50037 0.60761 0.0
C1926 C 0.64603 0.502 0.59635 0.0
C1927 C 0.62924 0.4882 0.60371 0.0
H1928 H 0.19476 0.40181 0.45187 0.0
H1929 H 0.14747 0.36035 0.41889 0.0
H1930 H 0.17049 0.35705 0.38266 0.0
H1931 H 0.21146 0.42962 0.39797 0.0
H1932 H 0.23921 0.43041 0.40667 0.0
H1933 H 0.21861 0.42999 0.42946 0.0
H1934 H 0.23602 0.39646 0.44862 0.0
H1935 H 0.25656 0.39661 0.42573 0.0
H1936 H 0.24045 0.37305 0.43034 0.0
H1937 H 0.19895 0.35797 0.35027 0.0
H1938 H 0.23022 0.36359 0.3237 0.0
H1939 H 0.25916 0.40412 0.37814 0.0
C1940 C 0.18904 0.39232 0.43688 0.0
C1941 C 0.16915 0.38155 0.43809 0.0
C1942 C 0.16255 0.36887 0.4183 0.0
C1943 C 0.17555 0.36685 0.39769 0.0
C1944 C 0.1952 0.37744 0.39725 0.0
C1945 C 0.20191 0.38993 0.41633 0.0
C1946 C 0.22396 0.39919 0.41162 0.0
C1947 C 0.22326 0.42376 0.41141 0.0
C1948 C 0.2402 0.39082 0.43018 0.0
C1949 C 0.22847 0.39028 0.38668 0.0
C1950 C 0.21172 0.37769 0.37878 0.0
C1951 C 0.21211 0.36786 0.35624 0.0
C1952 C 0.22992 0.37123 0.34122 0.0
C1953 C 0.24715 0.38439 0.34872 0.0
C1954 C 0.24641 0.3938 0.37193 0.0
H1955 H 0.39755 0.43906 0.18664 0.0
H1956 H 0.33303 0.41362 0.18667 0.0
H1957 H 0.32314 0.43854 0.15407 0.0
H1958 H 0.38236 0.49303 0.17863 0.0
H1959 H 0.40434 0.50031 0.15916 0.0
H1960 H 0.40745 0.47896 0.18069 0.0
H1961 H 0.41858 0.45305 0.14644 0.0
H1962 H 0.41582 0.4744 0.12483 0.0
H1963 H 0.40135 0.44976 0.12068 0.0
H1964 H 0.31909 0.46773 0.12427 0.0
H1965 H 0.32159 0.49831 0.09654 0.0
H1966 H 0.38874 0.50588 0.11464 0.0
C1967 C 0.3816 0.4383 0.17912 0.0
C1968 C 0.36613 0.42408 0.18876 0.0
C1969 C 0.34516 0.42415 0.17924 0.0
C1970 C 0.33937 0.43831 0.16081 0.0
C1971 C 0.35469 0.45255 0.15213 0.0
C1972 C 0.37543 0.45263 0.16075 0.0
C1973 C 0.3883 0.47053 0.14899 0.0
C1974 C 0.39607 0.48666 0.168 0.0
C1975 C 0.40713 0.46138 0.13436 0.0
C1976 C 0.37151 0.48043 0.13255 0.0
C1977 C 0.35227 0.46974 0.13478 0.0
C1978 C 0.33417 0.47603 0.12206 0.0
C1979 C 0.33579 0.49343 0.10622 0.0
C1980 C 0.35542 0.50445 0.10295 0.0
C1981 C 0.37347 0.49791 0.11664 0.0
H1982 H 0.24974 0.60073 0.87791 0.0
H1983 H 0.27591 0.64563 0.82586 0.0
H1984 H 0.30591 0.65319 0.85331 0.0
H1985 H 0.26336 0.63158 0.93062 0.0
H1986 H 0.27022 0.6089 0.94914 0.0
H1987 H 0.25063 0.60616 0.92555 0.0
H1988 H 0.2721 0.57549 0.90596 0.0
H1989 H 0.29169 0.57743 0.92963 0.0
H1990 H 0.29992 0.57949 0.8985 0.0
H1991 H 0.33333 0.6559 0.88623 0.0
H1992 H 0.3558 0.6541 0.92267 0.0
H1993 H 0.3121 0.6077 0.95398 0.0
C1994 C 0.26167 0.61228 0.87236 0.0
C1995 C 0.26044 0.62244 0.8495 0.0
C1996 C 0.27658 0.63733 0.84299 0.0
C1997 C 0.29368 0.64183 0.85854 0.0
C1998 C 0.29456 0.63136 0.88071 0.0
C1999 C 0.27897 0.61694 0.88769 0.0
C2000 C 0.28375 0.60799 0.91261 0.0
C2001 C 0.26593 0.61401 0.93056 0.0
C2002 C 0.28706 0.58366 0.9116 0.0
C2003 C 0.30451 0.61953 0.91843 0.0
C2004 C 0.31041 0.63296 0.89977 0.0
C2005 C 0.32887 0.64542 0.90095 0.0
C2006 C 0.34158 0.64426 0.92177 0.0
C2007 C 0.3359 0.63067 0.94125 0.0
C2008 C 0.31708 0.6181 0.93938 0.0
H2009 H 0.15531 0.55966 0.70209 0.0
H2010 H 0.11644 0.60836 0.66776 0.0
H2011 H 0.11342 0.58561 0.63141 0.0
H2012 H 0.18407 0.54185 0.64901 0.0
H2013 H 0.18344 0.51409 0.65774 0.0
H2014 H 0.18325 0.53464 0.68051 0.0
H2015 H 0.14845 0.5187 0.69863 0.0
H2016 H 0.14843 0.49818 0.67583 0.0
H2017 H 0.1254 0.51522 0.6796 0.0
H2018 H 0.11415 0.55716 0.59902 0.0
H2019 H 0.11898 0.52563 0.57282 0.0
H2020 H 0.15643 0.49489 0.6288 0.0
C2021 C 0.14648 0.56574 0.68676 0.0
C2022 C 0.13636 0.58597 0.68765 0.0
C2023 C 0.12448 0.59302 0.66743 0.0
C2024 C 0.12263 0.58018 0.64673 0.0
C2025 C 0.13258 0.56021 0.64658 0.0
C2026 C 0.14426 0.55302 0.66608 0.0
C2027 C 0.15274 0.53062 0.66169 0.0
C2028 C 0.17734 0.53029 0.66227 0.0
C2029 C 0.14319 0.51475 0.68002 0.0
C2030 C 0.14436 0.52646 0.63646 0.0
C2031 C 0.13267 0.54369 0.62814 0.0
C2032 C 0.12324 0.54357 0.60539 0.0
C2033 C 0.12595 0.52548 0.59069 0.0
C2034 C 0.13803 0.50766 0.59868 0.0
C2035 C 0.14727 0.50827 0.62199 0.0
H2036 H 0.19533 0.60267 0.09671 0.0
H2037 H 0.15145 0.6497 0.12637 0.0
H2038 H 0.17441 0.65316 0.16238 0.0
H2039 H 0.20959 0.57703 0.15348 0.0
H2040 H 0.23717 0.5734 0.14477 0.0
H2041 H 0.21659 0.57377 0.1221 0.0
H2042 H 0.23657 0.60426 0.09977 0.0
H2043 H 0.25709 0.60415 0.12251 0.0
H2044 H 0.24292 0.62851 0.11578 0.0
H2045 H 0.20284 0.6525 0.19446 0.0
H2046 H 0.23402 0.64701 0.22092 0.0
H2047 H 0.25964 0.60057 0.17028 0.0
C2048 C 0.19028 0.61339 0.11098 0.0
C2049 C 0.17141 0.62575 0.10881 0.0
C2050 C 0.16572 0.63995 0.12768 0.0
C2051 C 0.1787 0.64207 0.14818 0.0
C2052 C 0.1974 0.62997 0.14952 0.0
C2053 C 0.20315 0.61584 0.13147 0.0
C2054 C 0.22443 0.60525 0.13694 0.0
C2055 C 0.22178 0.58092 0.13948 0.0
C2056 C 0.24124 0.61088 0.1176 0.0
C2057 C 0.22972 0.61556 0.16096 0.0
C2058 C 0.21392 0.62978 0.16786 0.0
C2059 C 0.21523 0.6413 0.18931 0.0
C2060 C 0.23299 0.638 0.20428 0.0
C2061 C 0.24929 0.62326 0.19782 0.0
C2062 C 0.24761 0.61209 0.17569 0.0
H2063 H 0.15395 0.44708 0.84649 0.0
H2064 H 0.10334 0.40597 0.87375 0.0
H2065 H 0.10067 0.42827 0.91035 0.0
H2066 H 0.17927 0.457 0.90435 0.0
H2067 H 0.1856 0.48444 0.89745 0.0
H2068 H 0.18393 0.46503 0.87352 0.0
H2069 H 0.15547 0.48835 0.85165 0.0
H2070 H 0.15776 0.50785 0.8754 0.0
H2071 H 0.13199 0.4968 0.86814 0.0
H2072 H 0.10269 0.45557 0.94352 0.0
H2073 H 0.1099 0.48541 0.97143 0.0
H2074 H 0.15944 0.5088 0.92308 0.0
C2075 C 0.14247 0.4426 0.86027 0.0
C2076 C 0.12893 0.42463 0.85723 0.0
C2077 C 0.11394 0.41956 0.87562 0.0
C2078 C 0.11228 0.43217 0.89649 0.0
C2079 C 0.12568 0.44986 0.89879 0.0
C2080 C 0.14054 0.45506 0.88123 0.0
C2081 C 0.1529 0.47505 0.88812 0.0
C2082 C 0.17684 0.47007 0.89104 0.0
C2083 C 0.14931 0.49307 0.86971 0.0
C2084 C 0.14254 0.48034 0.91219 0.0
C2085 C 0.1269 0.46558 0.91799 0.0
C2086 C 0.11499 0.46714 0.93922 0.0
C2087 C 0.11927 0.48413 0.95502 0.0
C2088 C 0.13531 0.49945 0.94958 0.0
C2089 C 0.14697 0.49749 0.92772 0.0
H2090 H 0.30965 0.40211 0.59508 0.0
H2091 H 0.34754 0.34893 0.62162 0.0
H2092 H 0.32469 0.34699 0.65791 0.0
H2093 H 0.3002 0.42709 0.65339 0.0
H2094 H 0.27316 0.43488 0.64637 0.0
H2095 H 0.29276 0.43254 0.62259 0.0
H2096 H 0.26826 0.40559 0.59992 0.0
H2097 H 0.24862 0.40859 0.62353 0.0
H2098 H 0.25843 0.3824 0.61585 0.0
H2099 H 0.29735 0.35011 0.69096 0.0
H2100 H 0.26773 0.35852 0.71891 0.0
H2101 H 0.24723 0.40974 0.67146 0.0
C2102 C 0.31332 0.39023 0.60866 0.0
C2103 C 0.33058 0.37578 0.6055 0.0
C2104 C 0.33454 0.36026 0.62358 0.0
C2105 C 0.3216 0.35899 0.64429 0.0
C2106 C 0.30464 0.3733 0.64674 0.0
C2107 C 0.30046 0.38866 0.62946 0.0
C2108 C 0.28101 0.40191 0.63647 0.0
C2109 C 0.28716 0.42551 0.63991 0.0
C2110 C 0.26303 0.39947 0.61781 0.0
C2111 C 0.2749 0.39154 0.6603 0.0
C2112 C 0.28879 0.37509 0.66586 0.0
C2113 C 0.28645 0.36304 0.68685 0.0
C2114 C 0.2696 0.36801 0.70269 0.0
C2115 C 0.25515 0.38488 0.69754 0.0
C2116 C 0.25786 0.39666 0.67589 0.0
H2117 H 0.39349 0.50089 0.43284 0.0
H2118 H 0.32466 0.50103 0.44372 0.0
H2119 H 0.32127 0.53117 0.41545 0.0
H2120 H 0.40025 0.55865 0.42729 0.0
H2121 H 0.42007 0.55697 0.40365 0.0
H2122 H 0.41762 0.53569 0.42543 0.0
H2123 H 0.41251 0.5084 0.3909 0.0
H2124 H 0.41485 0.52949 0.3689 0.0
H2125 H 0.39153 0.51254 0.36916 0.0
H2126 H 0.32468 0.56056 0.38603 0.0
H2127 H 0.33438 0.58635 0.35433 0.0
H2128 H 0.40114 0.56831 0.36092 0.0
C2129 C 0.37774 0.50738 0.42933 0.0
C2130 C 0.35929 0.49846 0.4405 0.0
C2131 C 0.33898 0.5073 0.43521 0.0
C2132 C 0.3369 0.52459 0.41931 0.0
C2133 C 0.35528 0.53298 0.40865 0.0
C2134 C 0.37533 0.52464 0.41319 0.0
C2135 C 0.39226 0.53626 0.39826 0.0
C2136 C 0.40851 0.54756 0.41464 0.0
C2137 C 0.40345 0.52075 0.38076 0.0
C2138 C 0.37854 0.55238 0.38471 0.0
C2139 C 0.35728 0.55016 0.39124 0.0
C2140 C 0.34128 0.56253 0.38086 0.0
C2141 C 0.34697 0.57719 0.36288 0.0
C2142 C 0.36851 0.57955 0.35532 0.0
C2143 C 0.38461 0.56722 0.36672 0.0
H2144 H 0.14386 0.23773 0.41782 0.0
H2145 H 0.09237 0.27315 0.38392 0.0
H2146 H 0.09134 0.24666 0.35092 0.0
H2147 H 0.17107 0.22258 0.3624 0.0
H2148 H 0.17838 0.1965 0.37349 0.0
H2149 H 0.1752 0.21844 0.39424 0.0
H2150 H 0.14755 0.19637 0.41873 0.0
H2151 H 0.15059 0.17441 0.398 0.0
H2152 H 0.12445 0.18554 0.40365 0.0
H2153 H 0.09557 0.21564 0.32159 0.0
H2154 H 0.10515 0.18303 0.29852 0.0
H2155 H 0.154 0.16826 0.35136 0.0
C2156 C 0.13254 0.2401 0.40332 0.0
C2157 C 0.11815 0.25759 0.40362 0.0
C2158 C 0.10338 0.25979 0.38438 0.0
C2159 C 0.10274 0.24487 0.36544 0.0
C2160 C 0.11699 0.22774 0.36584 0.0
C2161 C 0.13166 0.22533 0.38426 0.0
C2162 C 0.14505 0.20536 0.38061 0.0
C2163 C 0.16884 0.21107 0.37749 0.0
C2164 C 0.1417 0.18948 0.40149 0.0
C2165 C 0.13562 0.19691 0.35729 0.0
C2166 C 0.11945 0.21002 0.34902 0.0
C2167 C 0.10826 0.2053 0.3279 0.0
C2168 C 0.11378 0.18675 0.31491 0.0
C2169 C 0.13032 0.17313 0.32309 0.0
C2170 C 0.14132 0.17838 0.34457 0.0
H2171 H 0.10064 0.87079 0.59338 0.0
H2172 H 0.06611 0.90365 0.53666 0.0
H2173 H 0.03327 0.90295 0.56187 0.0
H2174 H 0.0566 0.83668 0.61386 0.0
H2175 H 0.06402 0.83879 0.64517 0.0
H2176 H 0.08421 0.84065 0.62197 0.0
H2177 H 0.09622 0.87726 0.63902 0.0
H2178 H 0.07601 0.87559 0.66218 0.0
H2179 H 0.07685 0.89842 0.64235 0.0
H2180 H 1.00454 0.90001 0.59431 0.0
H2181 H 0.98225 0.89489 0.63064 0.0
H2182 H 0.03596 0.86495 0.66691 0.0
C2183 C 0.08609 0.87759 0.5861 0.0
C2184 C 0.08593 0.88722 0.56294 0.0
C2185 C 0.0666 0.89611 0.55425 0.0
C2186 C 0.04788 0.8958 0.56848 0.0
C2187 C 0.04871 0.88652 0.5914 0.0
C2188 C 0.06732 0.87751 0.60011 0.0
C2189 C 0.06422 0.86926 0.62568 0.0
C2190 C 0.06745 0.8449 0.62672 0.0
C2191 C 0.07921 0.88083 0.64335 0.0
C2192 C 0.04099 0.87524 0.63017 0.0
C2193 C 0.03231 0.88509 0.61013 0.0
C2194 C 0.01122 0.89233 0.61008 0.0
C2195 C 0.99871 0.88951 0.63099 0.0
C2196 C 0.00723 0.87963 0.65194 0.0
C2197 C 0.02873 0.87235 0.65127 0.0
H2198 H 0.35481 0.84125 0.85013 0.0
H2199 H 0.40609 0.82635 0.79997 0.0
H2200 H 0.41619 0.79524 0.82521 0.0
H2201 H 0.38316 0.8278 0.90412 0.0
H2202 H 0.3601 0.81667 0.91917 0.0
H2203 H 0.35674 0.83735 0.89689 0.0
H2204 H 0.33093 0.81295 0.87294 0.0
H2205 H 0.33421 0.79218 0.89513 0.0
H2206 H 0.33969 0.78672 0.86378 0.0
H2207 H 0.42093 0.76596 0.8566 0.0
H2208 H 0.42004 0.741 0.89109 0.0
H2209 H 0.36562 0.77513 0.92099 0.0
C2210 C 0.3681 0.83137 0.84435 0.0
C2211 C 0.37966 0.83622 0.82301 0.0
C2212 C 0.397 0.82294 0.8162 0.0
C2213 C 0.40283 0.80524 0.83045 0.0
C2214 C 0.39114 0.80097 0.85144 0.0
C2215 C 0.3741 0.81366 0.85834 0.0
C2216 C 0.3643 0.80583 0.88186 0.0
C2217 C 0.36619 0.82293 0.90168 0.0
C2218 C 0.3409 0.79901 0.8782 0.0
C2219 C 0.37846 0.78671 0.88719 0.0
C2220 C 0.39385 0.7842 0.86943 0.0
C2221 C 0.40895 0.76783 0.87059 0.0
C2222 C 0.40837 0.75378 0.89038 0.0
C2223 C 0.39282 0.75604 0.90894 0.0
C2224 C 0.37759 0.77274 0.90708 0.0
H2225 H 0.41579 0.09853 0.09736 0.0
H2226 H 0.4297 0.15055 0.04801 0.0
H2227 H 0.46214 0.15938 0.0716 0.0
H2228 H 0.4323 0.12552 0.15141 0.0
H2229 H 0.44349 0.10189 0.16504 0.0
H2230 H 0.42171 0.09954 0.14402 0.0
H2231 H 0.44429 0.07366 0.1178 0.0
H2232 H 0.46614 0.07593 0.13874 0.0
H2233 H 0.47033 0.08193 0.10726 0.0
H2234 H 0.49332 0.16231 0.10086 0.0
H2235 H 0.51981 0.15998 0.13372 0.0
H2236 H 0.48533 0.10604 0.16412 0.0
C2237 C 0.4257 0.11174 0.09145 0.0
C2238 C 0.42026 0.12382 0.07076 0.0
C2239 C 0.43357 0.14107 0.06375 0.0
C2240 C 0.45203 0.14618 0.07705 0.0
C2241 C 0.45696 0.13392 0.09736 0.0
C2242 C 0.44411 0.11709 0.10456 0.0
C2243 C 0.45272 0.1066 0.12724 0.0
C2244 C 0.43659 0.10851 0.14816 0.0
C2245 C 0.45873 0.08314 0.12246 0.0
C2246 C 0.47245 0.12013 0.13175 0.0
C2247 C 0.47467 0.13574 0.11425 0.0
C2248 C 0.49173 0.15011 0.11459 0.0
C2249 C 0.50681 0.14855 0.13328 0.0
C2250 C 0.50481 0.13278 0.15157 0.0
C2251 C 0.48731 0.1184 0.15061 0.0
H2252 H 0.16182 0.83777 0.19764 0.0
H2253 H 0.10985 0.82508 0.24769 0.0
H2254 H 0.09962 0.79328 0.22355 0.0
H2255 H 0.13381 0.82288 0.14378 0.0
H2256 H 0.15703 0.81118 0.12962 0.0
H2257 H 0.16017 0.8326 0.15102 0.0
H2258 H 0.18561 0.80894 0.17642 0.0
H2259 H 0.1825 0.78742 0.15513 0.0
H2260 H 0.17661 0.78308 0.18662 0.0
H2261 H 0.09526 0.76269 0.19338 0.0
H2262 H 0.09672 0.73649 0.16006 0.0
H2263 H 0.15145 0.76979 0.12965 0.0
C2264 C 0.14831 0.82828 0.20361 0.0
C2265 C 0.13664 0.83387 0.22461 0.0
C2266 C 0.11902 0.82108 0.23169 0.0
C2267 C 0.11313 0.80299 0.21809 0.0
C2268 C 0.12502 0.79793 0.19746 0.0
C2269 C 0.14224 0.81026 0.19026 0.0
C2270 C 0.15231 0.80163 0.1673 0.0
C2271 C 0.15072 0.81805 0.14672 0.0
C2272 C 0.17564 0.79487 0.17164 0.0
C2273 C 0.13814 0.78242 0.16264 0.0
C2274 C 0.12249 0.78054 0.1802 0.0
C2275 C 0.10744 0.7641 0.17954 0.0
C2276 C 0.10834 0.74932 0.16042 0.0
C2277 C 0.12418 0.75099 0.14209 0.0
C2278 C 0.1393 0.7678 0.14345 0.0
H2279 H 0.49013 0.8981 0.37571 0.0
H2280 H 0.52338 0.84203 0.40237 0.0
H2281 H 0.49762 0.83947 0.43619 0.0
H2282 H 0.47786 0.92106 0.43404 0.0
H2283 H 0.45195 0.93066 0.42486 0.0
H2284 H 0.47315 0.92809 0.40295 0.0
H2285 H 0.44892 0.90388 0.37672 0.0
H2286 H 0.42768 0.90632 0.39858 0.0
H2287 H 0.43718 0.88024 0.38983 0.0
H2288 H 0.46773 0.84302 0.46734 0.0
H2289 H 0.4365 0.85261 0.49286 0.0
H2290 H 0.42308 0.90622 0.44565 0.0
C2291 C 0.49218 0.88542 0.3888 0.0
C2292 C 0.50886 0.87027 0.3863 0.0
C2293 C 0.51065 0.85371 0.40368 0.0
C2294 C 0.49613 0.85217 0.42304 0.0
C2295 C 0.47982 0.8673 0.42486 0.0
C2296 C 0.4778 0.88362 0.40819 0.0
C2297 C 0.45872 0.89768 0.41401 0.0
C2298 C 0.46586 0.92074 0.41928 0.0
C2299 C 0.44215 0.89698 0.39357 0.0
C2300 C 0.45036 0.88679 0.43658 0.0
C2301 C 0.46271 0.86928 0.4426 0.0
C2302 C 0.45797 0.85672 0.46277 0.0
C2303 C 0.4402 0.86224 0.47715 0.0
C2304 C 0.42736 0.88013 0.47125 0.0
C2305 C 0.4326 0.89247 0.45067 0.0
H2306 H 0.38775 0.22708 0.6305 0.0
H2307 H 0.35783 0.28009 0.66829 0.0
H2308 H 0.35399 0.25757 0.70458 0.0
H2309 H 0.35564 0.18565 0.65582 0.0
H2310 H 0.37722 0.16665 0.6581 0.0
H2311 H 0.37796 0.18704 0.63518 0.0
H2312 H 0.41488 0.19966 0.65077 0.0
H2313 H 0.41423 0.17933 0.6738 0.0
H2314 H 0.41782 0.20695 0.68206 0.0
H2315 H 0.35263 0.22871 0.73698 0.0
H2316 H 0.35361 0.19596 0.76211 0.0
H2317 H 0.38541 0.16215 0.70384 0.0
C2318 C 0.38063 0.23413 0.64645 0.0
C2319 C 0.37302 0.25553 0.64623 0.0
C2320 C 0.36348 0.26375 0.66759 0.0
C2321 C 0.36138 0.25109 0.68847 0.0
C2322 C 0.36899 0.23013 0.68799 0.0
C2323 C 0.37849 0.22173 0.66753 0.0
C2324 C 0.38504 0.19861 0.67162 0.0
C2325 C 0.37326 0.18361 0.65414 0.0
C2326 C 0.40944 0.19599 0.66943 0.0
C2327 C 0.37757 0.19526 0.69747 0.0
C2328 C 0.36841 0.21366 0.70664 0.0
C2329 C 0.35988 0.21427 0.72997 0.0
C2330 C 0.36052 0.19559 0.74416 0.0
C2331 C 0.36963 0.17648 0.73505 0.0
C2332 C 0.37845 0.17651 0.71144 0.0
H2333 H 0.08574 0.09669 0.9487 0.0
H2334 H 0.07257 0.15009 0.99633 0.0
H2335 H 0.04057 0.15914 0.97191 0.0
H2336 H 0.07078 0.12231 0.89379 0.0
H2337 H 0.05916 0.09858 0.88083 0.0
H2338 H 0.08051 0.09629 0.90241 0.0
H2339 H 0.0568 0.07185 0.92916 0.0
H2340 H 0.03538 0.07403 0.90765 0.0
H2341 H 0.03082 0.08112 0.93877 0.0
H2342 H 0.00995 0.16242 0.94102 0.0
H2343 H 0.98441 0.15996 0.90712 0.0
H2344 H 0.01776 0.10373 0.88073 0.0
C2345 C 0.07609 0.11026 0.95412 0.0
C2346 C 0.08167 0.12269 0.97448 0.0
C2347 C 0.06862 0.14033 0.98084 0.0
C2348 C 0.05041 0.14557 0.96705 0.0
C2349 C 0.04541 0.13296 0.947 0.0
C2350 C 0.05793 0.11563 0.94064 0.0
C2351 C 0.04943 0.10469 0.91822 0.0
C2352 C 0.06595 0.10553 0.8976 0.0
C2353 C 0.04271 0.08156 0.92379 0.0
C2354 C 0.03018 0.11858 0.91276 0.0
C2355 C 0.02804 0.13479 0.92954 0.0
C2356 C 0.01149 0.1497 0.9279 0.0
C2357 C 0.99693 0.14807 0.90861 0.0
C2358 C 0.99892 0.13166 0.89105 0.0
C2359 C 0.01579 0.11668 0.89349 0.0
H2360 H 0.85564 0.84768 0.69347 0.0
H2361 H 0.9016 0.82764 0.74738 0.0
H2362 H 0.90813 0.79431 0.72444 0.0
H2363 H 0.83323 0.79555 0.68148 0.0
H2364 H 0.83033 0.80015 0.64954 0.0
H2365 H 0.82914 0.8223 0.67028 0.0
H2366 H 0.85966 0.84123 0.64685 0.0
H2367 H 0.86089 0.81918 0.626 0.0
H2368 H 0.8846 0.82741 0.64193 0.0
H2369 H 0.90946 0.7629 0.69553 0.0
H2370 H 0.90632 0.73647 0.66272 0.0
H2371 H 0.86009 0.77727 0.62683 0.0
C2372 C 0.86704 0.83624 0.70048 0.0
C2373 C 0.87808 0.84025 0.7223 0.0
C2374 C 0.89295 0.82493 0.73076 0.0
C2375 C 0.89674 0.80593 0.71784 0.0
C2376 C 0.88557 0.80244 0.69642 0.0
C2377 C 0.87107 0.81721 0.68775 0.0
C2378 C 0.86142 0.80974 0.66407 0.0
C2379 C 0.83709 0.80676 0.6665 0.0
C2380 C 0.86698 0.82532 0.6435 0.0
C2381 C 0.8727 0.78843 0.66077 0.0
C2382 C 0.88653 0.78451 0.67966 0.0
C2383 C 0.89875 0.76589 0.68061 0.0
C2384 C 0.89693 0.75099 0.66173 0.0
C2385 C 0.88304 0.75467 0.64193 0.0
C2386 C 0.87069 0.77371 0.6417 0.0
H2387 H 0.97952 0.1395 0.38011 0.0
H2388 H 0.03272 0.11089 0.41861 0.0
H2389 H 0.00977 0.10674 0.45465 0.0
H2390 H 0.95806 0.16936 0.43133 0.0
H2391 H 0.93064 0.16514 0.42258 0.0
H2392 H 0.95136 0.16621 0.39991 0.0
H2393 H 0.93982 0.12901 0.38405 0.0
H2394 H 0.91905 0.12785 0.4066 0.0
H2395 H 0.93859 0.10673 0.40465 0.0
H2396 H 0.98031 0.10466 0.48652 0.0
H2397 H 0.94691 0.10463 0.51081 0.0
H2398 H 0.91365 0.13585 0.45198 0.0
C2399 C 0.98654 0.13265 0.39618 0.0
C2400 C 0.00807 0.12548 0.39628 0.0
C2401 C 0.01626 0.11622 0.41774 0.0
C2402 C 1.00337 0.11395 0.43846 0.0
C2403 C 0.98226 0.12114 0.43766 0.0
C2404 C 0.97393 0.13038 0.41707 0.0
C2405 C 0.95062 0.13642 0.4207 0.0
C2406 C 0.94749 0.16073 0.4185 0.0
C2407 C 0.93617 0.12427 0.40295 0.0
C2408 C 0.94706 0.12892 0.44644 0.0
C2409 C 0.9655 0.12021 0.45598 0.0
C2410 C 0.96584 0.11159 0.47925 0.0
C2411 C 0.94681 0.11166 0.49295 0.0
C2412 C 0.9277 0.1203 0.48338 0.0
C2413 C 0.92803 0.12927 0.45991 0.0
H2414 H 0.65285 0.2405 0.13003 0.0
H2415 H 0.59599 0.27199 0.15776 0.0
H2416 H 0.59394 0.24557 0.19081 0.0
H2417 H 0.63633 0.18723 0.14223 0.0
H2418 H 0.66253 0.17804 0.1509 0.0
H2419 H 0.6599 0.19984 0.1299 0.0
H2420 H 0.68328 0.22374 0.15743 0.0
H2421 H 0.68604 0.20197 0.17848 0.0
H2422 H 0.67578 0.22736 0.18861 0.0
H2423 H 0.59771 0.21472 0.22077 0.0
H2424 H 0.6072 0.18248 0.24453 0.0
H2425 H 0.66155 0.17158 0.19725 0.0
C2426 C 0.64013 0.24209 0.14323 0.0
C2427 C 0.62456 0.25842 0.14111 0.0
C2428 C 0.60799 0.25954 0.15867 0.0
C2429 C 0.60675 0.24464 0.17765 0.0
C2430 C 0.62222 0.22864 0.17902 0.0
C2431 C 0.63864 0.22733 0.16229 0.0
C2432 C 0.65303 0.20837 0.16751 0.0
C2433 C 0.65293 0.19243 0.14638 0.0
C2434 C 0.67589 0.21581 0.17336 0.0
C2435 C 0.64206 0.19911 0.18962 0.0
C2436 C 0.62436 0.21103 0.1961 0.0
C2437 C 0.6116 0.20534 0.21586 0.0
C2438 C 0.61708 0.18699 0.22926 0.0
C2439 C 0.63509 0.1745 0.22279 0.0
C2440 C 0.6477 0.1808 0.20273 0.0
H2441 H 0.53269 0.86893 0.88072 0.0
H2442 H 0.48228 0.90504 0.91622 0.0
H2443 H 0.506 0.9111 0.95105 0.0
H2444 H 0.55282 0.84297 0.93509 0.0
H2445 H 0.58035 0.84431 0.92543 0.0
H2446 H 0.55931 0.84249 0.90337 0.0
H2447 H 0.57324 0.87694 0.88265 0.0
H2448 H 0.59433 0.87883 0.90459 0.0
H2449 H 0.57631 0.90098 0.90023 0.0
H2450 H 0.53578 0.91401 0.98199 0.0
H2451 H 0.56925 0.91388 1.00581 0.0
H2452 H 0.59977 0.87499 0.9508 0.0
C2453 C 0.52646 0.87788 0.89591 0.0
C2454 C 0.50548 0.88655 0.89549 0.0
C2455 C 0.49831 0.89849 0.91574 0.0
C2456 C 0.51164 0.90188 0.93578 0.0
C2457 C 0.53217 0.89314 0.93554 0.0
C2458 C 0.53953 0.88134 0.91614 0.0
C2459 C 0.56242 0.87403 0.92018 0.0
C2460 C 0.5638 0.84949 0.92107 0.0
C2461 C 0.57746 0.88325 0.90076 0.0
C2462 C 0.56685 0.88376 0.94475 0.0
C2463 C 0.54918 0.89466 0.95337 0.0
C2464 C 0.54966 0.90542 0.97544 0.0
C2465 C 0.56873 0.90525 0.98888 0.0
C2466 C 0.58711 0.8944 0.98025 0.0
C2467 C 0.58596 0.88333 0.95799 0.0
H2468 H 0.88883 0.23041 0.91439 0.0
H2469 H 0.86497 0.28481 0.87391 0.0
H2470 H 0.86165 0.26207 0.83776 0.0
H2471 H 0.92031 0.20742 0.86536 0.0
H2472 H 0.91424 0.18024 0.87375 0.0
H2473 H 0.915 0.20082 0.89648 0.0
H2474 H 0.8764 0.19111 0.90969 0.0
H2475 H 0.87557 0.17048 0.88706 0.0
H2476 H 0.85532 0.191 0.88756 0.0
H2477 H 0.86009 0.23303 0.8059 0.0
H2478 H 0.85992 0.19992 0.78144 0.0
H2479 H 0.88594 0.16474 0.84208 0.0
C2480 C 0.88315 0.23768 0.89789 0.0
C2481 C 0.87709 0.25954 0.89724 0.0
C2482 C 0.86938 0.26812 0.8752 0.0
C2483 C 0.86762 0.25534 0.85442 0.0
C2484 C 0.87371 0.23394 0.85575 0.0
C2485 C 0.88136 0.22517 0.87692 0.0
C2486 C 0.88646 0.20159 0.87364 0.0
C2487 C 0.91043 0.19727 0.87754 0.0
C2488 C 0.87261 0.18773 0.89048 0.0
C2489 C 0.88031 0.19844 0.8474 0.0
C2490 C 0.87305 0.21731 0.83737 0.0
C2491 C 0.86587 0.21821 0.81356 0.0
C2492 C 0.86586 0.19933 0.79977 0.0
C2493 C 0.87298 0.17976 0.80975 0.0
C2494 C 0.88055 0.17948 0.83382 0.0
H2495 H 0.51767 0.10628 0.66036 0.0
H2496 H 0.48503 0.16229 0.63256 0.0
H2497 H 0.51176 0.16492 0.59971 0.0
H2498 H 0.571 0.12406 0.64796 0.0
H2499 H 0.58066 0.09796 0.63952 0.0
H2500 H 0.55885 0.10045 0.66067 0.0
H2501 H 0.53531 0.07629 0.63362 0.0
H2502 H 0.55706 0.07369 0.61242 0.0
H2503 H 0.53141 0.08334 0.6024 0.0
H2504 H 0.54279 0.16148 0.5696 0.0
H2505 H 0.57493 0.15209 0.54541 0.0
H2506 H 0.58667 0.09815 0.59269 0.0
C2507 C 0.51591 0.11897 0.64723 0.0
C2508 C 0.49908 0.13407 0.64921 0.0
C2509 C 0.49782 0.15064 0.63175 0.0
C2510 C 0.5129 0.1522 0.61289 0.0
C2511 C 0.52928 0.13709 0.61157 0.0
C2512 C 0.53084 0.12077 0.6283 0.0
C2513 C 0.55006 0.10668 0.62306 0.0
C2514 C 0.56608 0.10734 0.64405 0.0
C2515 C 0.54303 0.08363 0.61754 0.0
C2516 C 0.55908 0.11754 0.60075 0.0
C2517 C 0.54692 0.13509 0.59437 0.0
C2518 C 0.55236 0.14772 0.57445 0.0
C2519 C 0.57064 0.14229 0.56079 0.0
C2520 C 0.58329 0.12436 0.56706 0.0
C2521 C 0.5773 0.1119 0.58732 0.0
H2522 H 0.65971 0.84109 0.34687 0.0
H2523 H 0.60947 0.82647 0.29569 0.0
H2524 H 0.60001 0.79418 0.31941 0.0
H2525 H 0.67653 0.78677 0.35685 0.0
H2526 H 0.68198 0.79082 0.38844 0.0
H2527 H 0.68442 0.81279 0.36759 0.0
H2528 H 0.65788 0.835 0.39341 0.0
H2529 H 0.65537 0.81312 0.41434 0.0
H2530 H 0.63184 0.82416 0.40034 0.0
H2531 H 0.59608 0.76329 0.34944 0.0
H2532 H 0.59852 0.73645 0.3821 0.0
H2533 H 0.65166 0.77144 0.41319 0.0
C2534 C 0.64671 0.8311 0.34061 0.0
C2535 C 0.63524 0.83637 0.31946 0.0
C2536 C 0.6184 0.82282 0.31189 0.0
C2537 C 0.61294 0.80443 0.32525 0.0
C2538 C 0.62458 0.79972 0.34607 0.0
C2539 C 0.64117 0.81266 0.35363 0.0
C2540 C 0.65135 0.80404 0.37645 0.0
C2541 C 0.67497 0.79826 0.37206 0.0
C2542 C 0.64896 0.82003 0.39737 0.0
C2543 C 0.63791 0.78422 0.38066 0.0
C2544 C 0.6225 0.78199 0.36301 0.0
C2545 C 0.60811 0.76493 0.36331 0.0
C2546 C 0.60955 0.74979 0.38205 0.0
C2547 C 0.62532 0.75168 0.40029 0.0
C2548 C 0.63962 0.76924 0.39941 0.0
H2549 H 0.92291 0.91112 0.09772 0.0
H2550 H 0.93763 0.85912 0.04868 0.0
H2551 H 0.9699 0.85053 0.07282 0.0
H2552 H 0.97701 0.92821 0.10818 0.0
H2553 H 0.97241 0.93432 0.13956 0.0
H2554 H 0.95077 0.93627 0.1183 0.0
H2555 H 0.92815 0.91027 0.14435 0.0
H2556 H 0.94971 0.90825 0.16571 0.0
H2557 H 0.93893 0.88443 0.15207 0.0
H2558 H 1.00089 0.84799 0.10279 0.0
H2559 H 0.02689 0.85079 0.13612 0.0
H2560 H 0.99152 0.90462 0.16534 0.0
C2561 C 0.93294 0.89794 0.09198 0.0
C2562 C 0.92781 0.88583 0.07122 0.0
C2563 C 0.94129 0.86864 0.06446 0.0
C2564 C 0.95964 0.86368 0.07807 0.0
C2565 C 0.96426 0.87602 0.09843 0.0
C2566 C 0.9512 0.89276 0.10536 0.0
C2567 C 0.95943 0.90345 0.12808 0.0
C2568 C 0.96525 0.92696 0.12323 0.0
C2569 C 0.94308 0.90147 0.14877 0.0
C2570 C 0.97922 0.89016 0.13294 0.0
C2571 C 0.9818 0.87446 0.11562 0.0
C2572 C 0.99899 0.86027 0.11638 0.0
C2573 C 0.0138 0.8621 0.13534 0.0
C2574 C 0.0114 0.87797 0.15345 0.0
C2575 C 0.9938 0.89217 0.15202 0.0
H2576 H 0.65802 0.67133 0.84706 0.0
H2577 H 0.60421 0.6825 0.79951 0.0
H2578 H 0.59459 0.71476 0.82318 0.0
H2579 H 0.63211 0.68813 0.90224 0.0
H2580 H 0.65591 0.70035 0.91427 0.0
H2581 H 0.65812 0.67811 0.89379 0.0
H2582 H 0.68238 0.70072 0.86566 0.0
H2583 H 0.68017 0.72307 0.886 0.0
H2584 H 0.6729 0.72616 0.85474 0.0
H2585 H 0.59129 0.74635 0.85231 0.0
H2586 H 0.59446 0.77408 0.88389 0.0
H2587 H 0.65052 0.74189 0.91223 0.0
C2588 C 0.64416 0.68053 0.84163 0.0
C2589 C 0.63182 0.67437 0.82143 0.0
C2590 C 0.61384 0.68687 0.81495 0.0
C2591 C 0.60829 0.70523 0.82828 0.0
C2592 C 0.6209 0.71092 0.84805 0.0
C2593 C 0.63845 0.69888 0.85469 0.0
C2594 C 0.64951 0.70841 0.87651 0.0
C2595 C 0.64886 0.69282 0.89797 0.0
C2596 C 0.67261 0.71498 0.87035 0.0
C2597 C 0.63553 0.7278 0.88112 0.0
C2598 C 0.61907 0.72897 0.86458 0.0
C2599 C 0.6041 0.7455 0.86535 0.0
C2600 C 0.60599 0.76116 0.88347 0.0
C2601 C 0.62276 0.76031 0.90064 0.0
C2602 C 0.63768 0.7433 0.89926 0.0
H2603 H 0.5863 0.40709 0.09557 0.0
H2604 H 0.57333 0.35574 0.04515 0.0
H2605 H 0.54099 0.34597 0.06875 0.0
H2606 H 0.56978 0.37884 0.14925 0.0
H2607 H 0.55832 0.40218 0.16332 0.0
H2608 H 0.58024 0.40501 0.14237 0.0
H2609 H 0.55762 0.43117 0.11672 0.0
H2610 H 0.53559 0.42834 0.13752 0.0
H2611 H 0.53176 0.42284 0.1059 0.0
H2612 H 0.5096 0.34232 0.09787 0.0
H2613 H 0.48266 0.34404 0.13045 0.0
H2614 H 0.51671 0.39738 0.16251 0.0
C2615 C 0.57665 0.39378 0.08946 0.0
C2616 C 0.58232 0.38218 0.06844 0.0
C2617 C 0.56932 0.36483 0.06116 0.0
C2618 C 0.5509 0.35921 0.07445 0.0
C2619 C 0.54571 0.37108 0.09503 0.0
C2620 C 0.55829 0.38794 0.10254 0.0
C2621 C 0.5494 0.39799 0.12542 0.0
C2622 C 0.56539 0.39587 0.14632 0.0
C2623 C 0.54323 0.42148 0.12112 0.0
C2624 C 0.52975 0.38423 0.12962 0.0
C2625 C 0.52789 0.36882 0.11187 0.0
C2626 C 0.51102 0.35425 0.11191 0.0
C2627 C 0.49582 0.3553 0.13064 0.0
C2628 C 0.49749 0.37076 0.14931 0.0
C2629 C 0.51471 0.38549 0.14851 0.0
H2630 H 0.84748 0.33652 0.34392 0.0
H2631 H 0.9015 0.32607 0.29605 0.0
H2632 H 0.91149 0.2939 0.31968 0.0
H2633 H 0.87363 0.32061 0.39869 0.0
H2634 H 0.85009 0.3081 0.41119 0.0
H2635 H 0.84741 0.33007 0.39042 0.0
H2636 H 0.82349 0.30672 0.36288 0.0
H2637 H 0.82614 0.28466 0.38353 0.0
H2638 H 0.83338 0.28133 0.35224 0.0
H2639 H 0.91537 0.26259 0.34919 0.0
H2640 H 0.91286 0.23529 0.38138 0.0
H2641 H 0.85628 0.2668 0.40979 0.0
C2642 C 0.8614 0.32745 0.33834 0.0
C2643 C 0.87373 0.3338 0.31811 0.0
C2644 C 0.89185 0.32151 0.31148 0.0
C2645 C 0.89761 0.30322 0.32481 0.0
C2646 C 0.88507 0.2974 0.34468 0.0
C2647 C 0.86733 0.30921 0.35139 0.0
C2648 C 0.85651 0.29974 0.37347 0.0
C2649 C 0.85695 0.31557 0.3947 0.0
C2650 C 0.83352 0.29269 0.36767 0.0
C2651 C 0.87084 0.28066 0.37818 0.0
C2652 C 0.88726 0.27957 0.36145 0.0
C2653 C 0.90257 0.26336 0.36236 0.0
C2654 C 0.90107 0.24796 0.38082 0.0
C2655 C 0.88434 0.24876 0.3982 0.0
C2656 C 0.86908 0.26543 0.39666 0.0
H2657 H 0.9231 0.60378 0.59728 0.0
H2658 H 0.93503 0.65754 0.5497 0.0
H2659 H 0.96681 0.66728 0.57415 0.0
H2660 H 0.93812 0.62985 0.65258 0.0
H2661 H 0.95009 0.60617 0.66523 0.0
H2662 H 0.92845 0.60379 0.64401 0.0
H2663 H 0.95199 0.57959 0.61682 0.0
H2664 H 0.97372 0.58191 0.63792 0.0
H2665 H 0.97773 0.58912 0.60673 0.0
H2666 H 0.99802 0.67041 0.60404 0.0
H2667 H 0.0246 0.66759 0.63683 0.0
H2668 H 0.99179 0.6115 0.66441 0.0
C2669 C 0.93236 0.61764 0.59195 0.0
C2670 C 0.9266 0.6299 0.57151 0.0
C2671 C 0.93913 0.64794 0.56527 0.0
C2672 C 0.95722 0.65354 0.57905 0.0
C2673 C 0.96252 0.64096 0.59904 0.0
C2674 C 0.95034 0.62343 0.60547 0.0
C2675 C 0.95925 0.61248 0.6277 0.0
C2676 C 0.94301 0.61312 0.64861 0.0
C2677 C 0.96608 0.58941 0.62194 0.0
C2678 C 0.97845 0.62651 0.63285 0.0
C2679 C 0.98014 0.64283 0.61612 0.0
C2680 C 0.99678 0.65767 0.61718 0.0
C2681 C 0.01193 0.65583 0.63582 0.0
C2682 C 0.01042 0.6393 0.65331 0.0
C2683 C 0.99337 0.62448 0.65159 0.0
H2684 H 0.6222 0.34244 0.70364 0.0
H2685 H 0.67621 0.31859 0.74448 0.0
H2686 H 0.67653 0.28578 0.71984 0.0
H2687 H 0.5957 0.29022 0.6941 0.0
H2688 H 0.58766 0.29661 0.66373 0.0
H2689 H 0.59043 0.31759 0.6858 0.0
H2690 H 0.61675 0.33738 0.65752 0.0
H2691 H 0.61426 0.31644 0.63542 0.0
H2692 H 0.64029 0.32372 0.64665 0.0
H2693 H 0.67264 0.25654 0.68965 0.0
H2694 H 0.66471 0.23241 0.65581 0.0
H2695 H 0.61294 0.2743 0.63358 0.0
C2696 C 0.63368 0.33004 0.70776 0.0
C2697 C 0.64898 0.33293 0.7263 0.0
C2698 C 0.66425 0.31666 0.73055 0.0
C2699 C 0.66456 0.29794 0.71662 0.0
C2700 C 0.64956 0.29566 0.69827 0.0
C2701 C 0.63435 0.31119 0.69376 0.0
C2702 C 0.62083 0.30504 0.67203 0.0
C2703 C 0.59725 0.30219 0.67936 0.0
C2704 C 0.62318 0.32164 0.6517 0.0
C2705 C 0.63098 0.28377 0.66499 0.0
C2706 C 0.64744 0.2787 0.68051 0.0
C2707 C 0.65961 0.26021 0.67753 0.0
C2708 C 0.65486 0.24648 0.65825 0.0
C2709 C 0.63803 0.25113 0.64195 0.0
C2710 C 0.62597 0.27017 0.64552 0.0
H2711 H 0.92059 0.4103 0.95064 0.0
H2712 H 0.93169 0.35654 0.99837 0.0
H2713 H 0.96351 0.3464 0.97392 0.0
H2714 H 0.93468 0.38366 0.89586 0.0
H2715 H 0.94697 0.40693 0.88253 0.0
H2716 H 0.92568 0.41002 0.90423 0.0
H2717 H 0.95007 0.43403 0.93051 0.0
H2718 H 0.97144 0.43104 0.90889 0.0
H2719 H 0.97576 0.42411 0.94007 0.0
H2720 H 0.99438 0.34241 0.94344 0.0
H2721 H 0.02031 0.3441 0.90965 0.0
H2722 H 0.98828 0.40057 0.8822 0.0
C2723 C 0.92977 0.39644 0.9561 0.0
C2724 C 0.92372 0.38423 0.9765 0.0
C2725 C 0.93606 0.36612 0.98284 0.0
C2726 C 0.95415 0.36029 0.96906 0.0
C2727 C 0.95963 0.37271 0.94897 0.0
C2728 C 0.9477 0.39038 0.94253 0.0
C2729 C 0.9565 0.40089 0.91993 0.0
C2730 C 0.93998 0.40033 0.89943 0.0
C2731 C 0.96388 0.42388 0.92517 0.0
C2732 C 0.97533 0.38641 0.91453 0.0
C2733 C 0.97698 0.37029 0.9315 0.0
C2734 C 0.9932 0.35502 0.93014 0.0
C2735 C 0.00796 0.35619 0.91092 0.0
C2736 C 0.00643 0.37247 0.89316 0.0
C2737 C 0.98985 0.38778 0.89524 0.0
H2738 H 0.85605 0.73654 0.12791 0.0
H2739 H 0.90601 0.7737 0.16233 0.0
H2740 H 0.90743 0.74745 0.19555 0.0
H2741 H 0.82894 0.7204 0.18274 0.0
H2742 H 0.8227 0.69402 0.17176 0.0
H2743 H 0.82538 0.71593 0.15087 0.0
H2744 H 0.85414 0.69478 0.12701 0.0
H2745 H 0.85154 0.67281 0.14783 0.0
H2746 H 0.87737 0.6848 0.14258 0.0
H2747 H 0.9042 0.71622 0.22475 0.0
H2748 H 0.89566 0.68333 0.24779 0.0
H2749 H 0.84777 0.66666 0.19456 0.0
C2750 C 0.86735 0.73916 0.14239 0.0
C2751 C 0.88086 0.75737 0.14242 0.0
C2752 C 0.89523 0.76016 0.16195 0.0
C2753 C 0.89627 0.74522 0.18088 0.0
C2754 C 0.88279 0.72747 0.18022 0.0
C2755 C 0.86853 0.72443 0.16151 0.0
C2756 C 0.85579 0.704 0.16511 0.0
C2757 C 0.83178 0.70889 0.16778 0.0
C2758 C 0.85997 0.68816 0.1444 0.0
C2759 C 0.86517 0.69597 0.18867 0.0
C2760 C 0.88077 0.7097 0.19709 0.0
C2761 C 0.89193 0.70543 0.21835 0.0
C2762 C 0.88699 0.6867 0.23133 0.0
C2763 C 0.87101 0.67246 0.22307 0.0
C2764 C 0.85999 0.67728 0.20145 0.0
H2765 H 0.59318 0.63726 0.45027 0.0
H2766 H 0.56184 0.60497 0.50997 0.0
H2767 H 0.52799 0.60438 0.48694 0.0
H2768 H 0.54734 0.6699 0.43167 0.0
H2769 H 0.55343 0.66722 0.4 0.0
H2770 H 0.57466 0.66641 0.42191 0.0
H2771 H 0.58683 0.62972 0.40514 0.0
H2772 H 0.56557 0.63033 0.38332 0.0
H2773 H 0.5679 0.60801 0.40373 0.0
H2774 H 0.49792 0.60563 0.45635 0.0
H2775 H 0.47388 0.60944 0.42138 0.0
H2776 H 0.52508 0.64007 0.38103 0.0
C2777 C 0.57911 0.63037 0.45866 0.0
C2778 C 0.58015 0.62122 0.48202 0.0
C2779 C 0.56142 0.61214 0.49219 0.0
C2780 C 0.54212 0.61171 0.4792 0.0
C2781 C 0.54174 0.62044 0.45602 0.0
C2782 C 0.55973 0.62971 0.44589 0.0
C2783 C 0.55528 0.63726 0.42033 0.0
C2784 C 0.55783 0.66165 0.41837 0.0
C2785 C 0.56975 0.62563 0.40206 0.0
C2786 C 0.53204 0.6306 0.41756 0.0
C2787 C 0.52452 0.62099 0.43838 0.0
C2788 C 0.50366 0.61316 0.43998 0.0
C2789 C 0.49015 0.61525 0.41988 0.0
C2790 C 0.49744 0.62502 0.39824 0.0
C2791 C 0.51877 0.63278 0.39728 0.0
H2792 H 0.35197 0.26972 0.13369 0.0
H2793 H 0.40625 0.23618 0.16438 0.0
H2794 H 0.40761 0.26245 0.19755 0.0
H2795 H 0.36978 0.32246 0.1473 0.0
H2796 H 0.34352 0.33253 0.15454 0.0
H2797 H 0.34646 0.3108 0.13348 0.0
H2798 H 0.32084 0.28756 0.15934 0.0
H2799 H 0.31776 0.30925 0.18044 0.0
H2800 H 0.32657 0.28343 0.19086 0.0
H2801 H 0.40375 0.29328 0.22704 0.0
H2802 H 0.39436 0.32565 0.25058 0.0
H2803 H 0.3422 0.33853 0.20125 0.0
C2804 C 0.36396 0.26767 0.14755 0.0
C2805 C 0.37905 0.25081 0.14624 0.0
C2806 C 0.39468 0.24906 0.16466 0.0
C2807 C 0.39552 0.26387 0.18371 0.0
C2808 C 0.38058 0.28039 0.18428 0.0
C2809 C 0.36502 0.28232 0.16673 0.0
C2810 C 0.35104 0.30174 0.17133 0.0
C2811 C 0.35282 0.31783 0.15042 0.0
C2812 C 0.32767 0.29509 0.17576 0.0
C2813 C 0.36118 0.31045 0.19414 0.0
C2814 C 0.37822 0.29794 0.20133 0.0
C2815 C 0.39035 0.30311 0.22163 0.0
C2816 C 0.38492 0.32152 0.2349 0.0
C2817 C 0.36751 0.33455 0.22784 0.0
C2818 C 0.35551 0.3288 0.20722 0.0
H2819 H 0.48092 0.60701 0.86911 0.0
H2820 H 0.5246 0.65077 0.90449 0.0
H2821 H 0.49954 0.65387 0.93885 0.0
H2822 H 0.43204 0.63316 0.8877 0.0
H2823 H 0.41755 0.60856 0.89219 0.0
H2824 H 0.43889 0.60978 0.8703 0.0
H2825 H 0.45775 0.57795 0.89126 0.0
H2826 H 0.43645 0.57662 0.91319 0.0
H2827 H 0.46375 0.57956 0.92301 0.0
H2828 H 0.46928 0.65274 0.96933 0.0
H2829 H 0.43691 0.64613 0.99412 0.0
H2830 H 0.41305 0.60283 0.93935 0.0
C2831 C 0.48518 0.61732 0.88403 0.0
C2832 C 0.50486 0.62859 0.88405 0.0
C2833 C 0.50983 0.64173 0.90413 0.0
C2834 C 0.49561 0.64372 0.92369 0.0
C2835 C 0.4764 0.63242 0.92309 0.0
C2836 C 0.4712 0.61938 0.90384 0.0
C2837 C 0.44966 0.60871 0.90787 0.0
C2838 C 0.43359 0.61546 0.88835 0.0
C2839 C 0.45206 0.58426 0.9089 0.0
C2840 C 0.44356 0.61779 0.93235 0.0
C2841 C 0.45914 0.63153 0.94077 0.0
C2842 C 0.45701 0.64196 0.96292 0.0
C2843 C 0.43855 0.63815 0.97687 0.0
C2844 C 0.42248 0.62395 0.96872 0.0
C2845 C 0.42509 0.61372 0.94611 0.0
H2846 H 0.15832 0.73994 0.63515 0.0
H2847 H 0.10395 0.77368 0.66575 0.0
H2848 H 0.10166 0.74677 0.69832 0.0
H2849 H 0.13959 0.68701 0.64765 0.0
H2850 H 0.16573 0.67668 0.65481 0.0
H2851 H 0.1631 0.69867 0.63406 0.0
H2852 H 0.18869 0.7214 0.66032 0.0
H2853 H 0.19141 0.69946 0.68114 0.0
H2854 H 0.1827 0.72523 0.69188 0.0
H2855 H 0.10526 0.71544 0.72787 0.0
H2856 H 0.11457 0.68289 0.75118 0.0
H2857 H 0.1668 0.67028 0.7015 0.0
C2858 C 0.14607 0.7419 0.64883 0.0
C2859 C 0.13132 0.7591 0.64772 0.0
C2860 C 0.11531 0.76062 0.66588 0.0
C2861 C 0.11395 0.74543 0.6846 0.0
C2862 C 0.1287 0.7287 0.68507 0.0
C2863 C 0.14447 0.72689 0.66763 0.0
C2864 C 0.15826 0.70732 0.67202 0.0
C2865 C 0.15656 0.69149 0.65088 0.0
C2866 C 0.18165 0.71374 0.67662 0.0
C2867 C 0.14787 0.6984 0.69467 0.0
C2868 C 0.13081 0.71091 0.70195 0.0
C2869 C 0.11864 0.70561 0.72231 0.0
C2870 C 0.12403 0.68709 0.73547 0.0
C2871 C 0.14144 0.67406 0.72825 0.0
C2872 C 0.15347 0.67994 0.7076 0.0
H2873 H 0.01886 0.40282 0.38173 0.0
H2874 H 0.98206 0.35172 0.41485 0.0
H2875 H 0.00794 0.35016 0.44831 0.0
H2876 H 0.0706 0.38284 0.39708 0.0
H2877 H 0.0819 0.4088 0.40309 0.0
H2878 H 0.06031 0.40613 0.38187 0.0
H2879 H 0.03804 0.43382 0.40598 0.0
H2880 H 0.05961 0.43662 0.42724 0.0
H2881 H 0.03321 0.42954 0.43771 0.0
H2882 H 0.03883 0.35349 0.47812 0.0
H2883 H 0.07132 0.36232 0.50173 0.0
H2884 H 0.08726 0.41178 0.44986 0.0
C2885 C 0.01602 0.39148 0.39615 0.0
C2886 C 0.99832 0.37731 0.39537 0.0
C2887 C 0.99558 0.36254 0.41462 0.0
C2888 C 0.01017 0.3616 0.43387 0.0
C2889 C 0.02753 0.3756 0.43389 0.0
C2890 C 0.03044 0.39035 0.41558 0.0
C2891 C 0.05052 0.40348 0.41978 0.0
C2892 C 0.06679 0.4001 0.39923 0.0
C2893 C 0.04501 0.42728 0.42286 0.0
C2894 C 0.05845 0.39382 0.44326 0.0
C2895 C 0.04502 0.37771 0.45112 0.0
C2896 C 0.04937 0.36619 0.47216 0.0
C2897 C 0.06786 0.37128 0.48548 0.0
C2898 C 0.08179 0.3878 0.47778 0.0
C2899 C 0.07687 0.39917 0.45638 0.0
H2900 H 0.35611 0.73614 0.41544 0.0
H2901 H 0.41002 0.76996 0.38386 0.0
H2902 H 0.41127 0.74372 0.35065 0.0
H2903 H 0.37403 0.68344 0.40139 0.0
H2904 H 0.34775 0.67329 0.39456 0.0
H2905 H 0.35076 0.69498 0.41563 0.0
H2906 H 0.32489 0.71819 0.39027 0.0
H2907 H 0.32174 0.69652 0.36916 0.0
H2908 H 0.33039 0.7224 0.35866 0.0
H2909 H 0.40729 0.71298 0.32114 0.0
H2910 H 0.3978 0.68073 0.29756 0.0
H2911 H 0.34608 0.6674 0.34774 0.0
C2912 C 0.36801 0.73825 0.40139 0.0
C2913 C 0.38303 0.7552 0.40246 0.0
C2914 C 0.39852 0.75702 0.38378 0.0
C2915 C 0.39929 0.74223 0.3647 0.0
C2916 C 0.38442 0.72563 0.36436 0.0
C2917 C 0.369 0.72361 0.38217 0.0
C2918 C 0.35506 0.70414 0.37773 0.0
C2919 C 0.35702 0.68801 0.39857 0.0
C2920 C 0.33163 0.71071 0.37371 0.0
C2921 C 0.36506 0.6955 0.35472 0.0
C2922 C 0.382 0.70811 0.34729 0.0
C2923 C 0.39397 0.70308 0.32674 0.0
C2924 C 0.38848 0.68472 0.31345 0.0
C2925 C 0.37116 0.6716 0.32071 0.0
C2926 C 0.35933 0.67718 0.34162 0.0
H2927 H 0.08806 0.59821 0.09575 0.0
H2928 H 0.07712 0.65055 0.046 0.0
H2929 H 0.04513 0.66128 0.06978 0.0
H2930 H 0.03274 0.58448 0.10596 0.0
H2931 H 0.03665 0.57837 0.13743 0.0
H2932 H 0.05832 0.57488 0.11628 0.0
H2933 H 0.08232 0.59962 0.14213 0.0
H2934 H 0.06075 0.60317 0.16338 0.0
H2935 H 0.07313 0.62615 0.14953 0.0
H2936 H 0.01428 0.66624 0.09985 0.0
H2937 H 0.98781 0.66532 0.13306 0.0
H2938 H 0.01955 0.60973 0.16314 0.0
C2939 C 0.07889 0.61188 0.08973 0.0
C2940 C 0.08508 0.62356 0.06897 0.0
C2941 C 0.07269 0.6414 0.06184 0.0
C2942 C 0.05449 0.64757 0.07524 0.0
C2943 C 0.04888 0.63569 0.09569 0.0
C2944 C 0.06076 0.61821 0.10286 0.0
C2945 C 0.05167 0.60825 0.12566 0.0
C2946 C 0.04442 0.58512 0.12105 0.0
C2947 C 0.06793 0.60937 0.1464 0.0
C2948 C 0.03272 0.62281 0.1303 0.0
C2949 C 0.03136 0.63855 0.11285 0.0
C2950 C 0.01527 0.65398 0.11358 0.0
C2951 C 1.00035 0.65339 0.13264 0.0
C2952 C 1.00149 0.63747 0.15087 0.0
C2953 C 0.01794 0.62194 0.14942 0.0
H2954 H 0.15872 0.34213 0.84999 0.0
H2955 H 0.11118 0.32498 0.79658 0.0
H2956 H 0.10237 0.29238 0.82005 0.0
H2957 H 0.17735 0.28866 0.86265 0.0
H2958 H 0.18081 0.29355 0.89446 0.0
H2959 H 0.18349 0.3152 0.87323 0.0
H2960 H 0.15463 0.33669 0.89651 0.0
H2961 H 0.15184 0.31511 0.9178 0.0
H2962 H 0.12874 0.32486 0.90183 0.0
H2963 H 0.09888 0.26142 0.8498 0.0
H2964 H 0.1001 0.23556 0.88345 0.0
H2965 H 0.14992 0.27313 0.91758 0.0
C2966 C 0.14652 0.33146 0.84315 0.0
C2967 C 0.13569 0.33606 0.82135 0.0
C2968 C 0.11971 0.32177 0.81317 0.0
C2969 C 0.11462 0.30321 0.8264 0.0
C2970 C 0.12562 0.29915 0.84784 0.0
C2971 C 0.14119 0.31294 0.85618 0.0
C2972 C 0.15041 0.30517 0.87994 0.0
C2973 C 0.17444 0.30036 0.87741 0.0
C2974 C 0.14614 0.32142 0.90022 0.0
C2975 C 0.1376 0.28483 0.88374 0.0
C2976 C 0.12345 0.28158 0.86498 0.0
C2977 C 0.10996 0.26382 0.86451 0.0
C2978 C 0.11089 0.24911 0.88369 0.0
C2979 C 0.12515 0.25214 0.90328 0.0
C2980 C 0.13868 0.27033 0.9031 0.0
H2981 H 0.48538 0.3944 0.66514 0.0
H2982 H 0.52189 0.34365 0.63101 0.0
H2983 H 0.495 0.34153 0.59856 0.0
H2984 H 0.4332 0.37273 0.65235 0.0
H2985 H 0.42121 0.39848 0.64691 0.0
H2986 H 0.44351 0.39617 0.66725 0.0
H2987 H 0.4644 0.42442 0.64238 0.0
H2988 H 0.44217 0.42681 0.62197 0.0
H2989 H 0.46839 0.4203 0.61048 0.0
H2990 H 0.46341 0.34461 0.56976 0.0
H2991 H 0.43041 0.35326 0.54707 0.0
H2992 H 0.41456 0.4017 0.60016 0.0
C2993 C 0.48771 0.38273 0.65095 0.0
C2994 C 0.50592 0.36924 0.65073 0.0
C2995 C 0.50834 0.35441 0.63152 0.0
C2996 C 0.49303 0.35298 0.61303 0.0
C2997 C 0.47529 0.36648 0.61386 0.0
C2998 C 0.4726 0.38111 0.63232 0.0
C2999 C 0.45215 0.39384 0.62898 0.0
C3000 C 0.4366 0.39007 0.65013 0.0
C3001 C 0.45708 0.41776 0.62576 0.0
C3002 C 0.44374 0.38408 0.60581 0.0
C3003 C 0.45728 0.36829 0.59735 0.0
C3004 C 0.45274 0.35698 0.57624 0.0
C3005 C 0.43395 0.36198 0.56346 0.0
C3006 C 0.41992 0.37816 0.57178 0.0
C3007 C 0.42498 0.38927 0.59327 0.0
H3008 H 0.12772 0.05232 0.29959 0.0
H3009 H 0.09559 0.06223 0.23123 0.0
H3010 H 0.09608 0.02319 0.22386 0.0
H3011 H 0.1613 0.00692 0.2815 0.0
H3012 H 0.15799 0.99374 0.31022 0.0
H3013 H 0.15691 0.02249 0.30842 0.0
H3014 H 0.1194 0.02176 0.32904 0.0
H3015 H 0.12071 0.99301 0.33055 0.0
H3016 H 0.09843 0.00583 0.31591 0.0
H3017 H 0.09888 0.98342 0.22461 0.0
H3018 H 0.10294 0.94497 0.2336 0.0
H3019 H 0.1316 0.96034 0.30259 0.0
C3020 C 0.12114 0.04628 0.28286 0.0
C3021 C 0.1118 0.06023 0.26578 0.0
C3022 C 0.1029 0.05176 0.24441 0.0
C3023 C 0.10313 0.02966 0.2401 0.0
C3024 C 0.11211 0.01629 0.2575 0.0
C3025 C 0.1209 0.02424 0.27849 0.0
C3026 C 0.12827 0.00631 0.29496 0.0
C3027 C 0.15256 0.00743 0.29901 0.0
C3028 C 0.11597 0.00675 0.31904 0.0
C3029 C 0.1222 0.98697 0.27997 0.0
C3030 C 0.11307 0.99319 0.25834 0.0
C3031 C 0.10602 0.97836 0.24142 0.0
C3032 C 0.10835 0.95662 0.24671 0.0
C3033 C 0.11747 0.94987 0.26878 0.0
C3034 C 0.12451 0.96519 0.28565 0.0
H3035 H 0.21602 0.8856 0.49801 0.0
H3036 H 0.20015 0.84005 0.55426 0.0
H3037 H 0.23835 0.8366 0.56462 0.0
H3038 H 0.26491 0.859 0.47847 0.0
H3039 H 0.27909 0.88354 0.47259 0.0
H3040 H 0.25041 0.88268 0.46983 0.0
H3041 H 0.24727 0.91417 0.50006 0.0
H3042 H 0.27595 0.91485 0.50317 0.0
H3043 H 0.25922 0.9118 0.52951 0.0
H3044 H 0.2778 0.83768 0.56885 0.0
H3045 H 0.31701 0.84095 0.56438 0.0
H3046 H 0.30806 0.88568 0.50538 0.0
C3047 C 0.22076 0.87474 0.51224 0.0
C3048 C 0.20536 0.86279 0.52514 0.0
C3049 C 0.2119 0.84897 0.54394 0.0
C3050 C 0.23348 0.84707 0.55008 0.0
C3051 C 0.24837 0.85906 0.53718 0.0
C3052 C 0.24242 0.87244 0.51846 0.0
C3053 C 0.2619 0.88299 0.50716 0.0
C3054 C 0.26421 0.87667 0.48044 0.0
C3055 C 0.26102 0.9074 0.51016 0.0
C3056 C 0.27959 0.87331 0.52237 0.0
C3057 C 0.27136 0.85972 0.53971 0.0
C3058 C 0.28449 0.84832 0.55539 0.0
C3059 C 0.30671 0.85032 0.55279 0.0
C3060 C 0.31553 0.8636 0.53465 0.0
C3061 C 0.30176 0.87562 0.51964 0.0
H3062 H 0.37647 0.95799 0.75877 0.0
H3063 H 0.43585 0.94753 0.7972 0.0
H3064 H 0.43833 0.98616 0.80594 0.0
H3065 H 0.39342 0.00804 0.73082 0.0
H3066 H 0.36731 0.02014 0.73265 0.0
H3067 H 0.36978 0.99155 0.73014 0.0
H3068 H 0.34713 0.98705 0.76913 0.0
H3069 H 0.34487 0.01566 0.77196 0.0
H3070 H 0.35556 1.00009 0.7965 0.0
H3071 H 0.43405 0.02539 0.81159 0.0
H3072 H 0.4264 0.06393 0.80856 0.0
H3073 H 0.37092 0.05016 0.76428 0.0
C3074 C 0.39007 0.96399 0.76875 0.0
C3075 C 0.40613 0.94994 0.7771 0.0
C3076 C 0.42362 0.95817 0.79032 0.0
C3077 C 0.42503 0.98002 0.79559 0.0
C3078 C 0.40893 0.9935 0.78729 0.0
C3079 C 0.392 0.98596 0.77372 0.0
C3080 C 0.37755 1.00423 0.76593 0.0
C3081 C 0.37698 0.0061 0.73825 0.0
C3082 C 0.35494 1.00159 0.77652 0.0
C3083 C 0.38905 0.02313 0.77723 0.0
C3084 C 0.40688 0.01646 0.78981 0.0
C3085 C 0.42019 0.03084 0.80169 0.0
C3086 C 0.41566 0.05272 0.79994 0.0
C3087 C 0.39812 0.06011 0.78613 0.0
C3088 C 0.38436 0.04502 0.7751 0.0
H3089 H 0.206 0.12893 0.04849 0.0
H3090 H 0.19289 0.16601 0.98414 0.0
H3091 H 0.23164 0.16848 0.97552 0.0
H3092 H 0.25366 0.15744 0.06625 0.0
H3093 H 0.2676 0.13394 0.07652 0.0
H3094 H 0.23881 0.13482 0.07757 0.0
H3095 H 0.23716 0.10009 0.05217 0.0
H3096 H 0.26597 0.09923 0.05097 0.0
H3097 H 0.25072 0.09901 0.02342 0.0
H3098 H 0.2715 0.16832 0.97468 0.0
H3099 H 0.31044 0.16575 0.98199 0.0
H3100 H 0.29819 0.1277 0.04603 0.0
C3101 C 0.21143 0.13768 0.03276 0.0
C3102 C 0.1967 0.14759 1.01711 0.0
C3103 C 0.20413 0.15863 0.99645 0.0
C3104 C 0.22604 0.16 0.99135 0.0
C3105 C 0.24029 0.15013 1.00706 0.0
C3106 C 0.23337 0.1392 0.02737 0.0
C3107 C 0.25221 0.13024 0.04131 0.0
C3108 C 0.25311 0.13968 0.06692 0.0
C3109 C 0.25146 0.10568 0.042 0.0
C3110 C 0.27069 0.13814 0.02587 0.0
C3111 C 0.26342 0.14952 1.00617 0.0
C3112 C 0.27742 0.15929 0.98992 0.0
C3113 C 0.29947 0.15775 0.99418 0.0
C3114 C 0.30727 0.1464 1.01438 0.0
C3115 C 0.29267 0.13616 0.03018 0.0
H3116 H 0.87686 0.05034 0.7901 0.0
H3117 H 0.90253 0.06819 0.72014 0.0
H3118 H 0.90556 0.03006 0.70915 0.0
H3119 H 0.91184 0.00854 0.80014 0.0
H3120 H 0.89308 0.99106 0.81509 0.0
H3121 H 0.88911 0.01953 0.81592 0.0
H3122 H 0.85121 0.01472 0.79804 0.0
H3123 H 0.85512 0.98617 0.79708 0.0
H3124 H 0.84797 1.00045 0.77002 0.0
H3125 H 0.91101 0.99137 0.70787 0.0
H3126 H 0.91738 0.95334 0.71509 0.0
H3127 H 0.88865 0.95869 0.78631 0.0
C3128 C 0.8824 0.04614 0.77218 0.0
C3129 C 0.88919 0.06213 0.75573 0.0
C3130 C 0.89709 0.05614 0.73281 0.0
C3131 C 0.89883 0.03455 0.72643 0.0
C3132 C 0.89271 0.01913 0.74328 0.0
C3133 C 0.88453 0.02454 0.76564 0.0
C3134 C 0.88131 0.00471 0.7812 0.0
C3135 C 0.89464 0.00604 0.80446 0.0
C3136 C 0.85748 1.00131 0.78692 0.0
C3137 C 0.88971 0.98743 0.76435 0.0
C3138 C 0.89591 0.99626 0.74251 0.0
C3139 C 0.90573 0.98418 0.72461 0.0
C3140 C 0.90944 0.96256 0.72904 0.0
C3141 C 0.90342 0.95297 0.75123 0.0
C3142 C 0.89308 0.96551 0.76904 0.0
H3143 H 0.70528 0.12482 0.54272 0.0
H3144 H 0.69605 0.17111 0.48533 0.0
H3145 H 0.7352 0.17446 0.48065 0.0
H3146 H 0.74945 0.15056 0.56983 0.0
H3147 H 0.76362 0.12639 0.57739 0.0
H3148 H 0.73487 0.12614 0.57519 0.0
H3149 H 0.73678 0.09565 0.54366 0.0
H3150 H 0.76553 0.09556 0.54598 0.0
H3151 H 0.75303 0.09899 0.51697 0.0
H3152 H 0.77468 0.17471 0.48375 0.0
H3153 H 0.81307 0.17 0.49251 0.0
H3154 H 0.79763 0.12331 0.54772 0.0
C3155 C 0.71153 0.13533 0.52886 0.0
C3156 C 0.69767 0.14769 0.51429 0.0
C3157 C 0.70641 0.16151 0.49661 0.0
C3158 C 0.7286 0.16354 0.49387 0.0
C3159 C 0.74182 0.15165 0.50896 0.0
C3160 C 0.7337 0.13764 0.52595 0.0
C3161 C 0.75157 0.12726 0.54032 0.0
C3162 C 0.74976 0.13293 0.56727 0.0
C3163 C 0.75174 0.10292 0.53649 0.0
C3164 C 0.77099 0.13774 0.52879 0.0
C3165 C 0.76487 0.15181 0.51081 0.0
C3166 C 0.77969 0.16374 0.49774 0.0
C3167 C 0.80139 0.16108 0.50295 0.0
C3168 C 0.80811 0.14657 0.52098 0.0
C3169 C 0.79277 0.13469 0.53407 0.0
H3170 H 0.62537 0.04897 0.29641 0.0
H3171 H 0.59695 0.06237 0.2268 0.0
H3172 H 0.59588 0.02372 0.21766 0.0
H3173 H 0.6588 0.0056 0.27607 0.0
H3174 H 0.65539 0.98934 0.30263 0.0
H3175 H 0.65374 0.01804 0.30489 0.0
H3176 H 0.61624 0.01559 0.32405 0.0
H3177 H 0.61742 0.98683 0.32261 0.0
H3178 H 0.59544 1.00087 0.3089 0.0
H3179 H 0.59647 0.98373 0.2167 0.0
H3180 H 0.59914 0.94475 0.22395 0.0
H3181 H 0.62887 0.95704 0.29319 0.0
C3182 C 0.61875 0.04363 0.27941 0.0
C3183 C 0.61091 0.05844 0.2624 0.0
C3184 C 0.60272 0.05109 0.24012 0.0
C3185 C 0.60215 0.02923 0.23475 0.0
C3186 C 0.60999 0.01492 0.2518 0.0
C3187 C 0.61817 0.02175 0.27368 0.0
C3188 C 0.62562 1.00291 0.2887 0.0
C3189 C 0.64982 1.00406 0.29335 0.0
C3190 C 0.61292 1.00147 0.31248 0.0
C3191 C 0.62014 0.98453 0.27198 0.0
C3192 C 0.6111 0.99181 0.25081 0.0
C3193 C 0.60372 0.97781 0.2331 0.0
C3194 C 0.6053 0.95574 0.23733 0.0
C3195 C 0.61439 0.94795 0.25894 0.0
C3196 C 0.6222 0.96256 0.27628 0.0
H3197 H 0.71144 0.88512 0.99891 0.0
H3198 H 0.69867 0.84606 0.06207 0.0
H3199 H 0.73766 0.84248 0.06893 0.0
H3200 H 0.755 0.85435 0.97788 0.0
H3201 H 0.77005 0.87678 0.96648 0.0
H3202 H 0.74127 0.87809 0.96795 0.0
H3203 H 0.74356 0.91257 0.99364 0.0
H3204 H 0.77233 0.91149 0.99206 0.0
H3205 H 0.7591 0.91254 1.021 0.0
H3206 H 0.77765 0.84159 0.0676 0.0
H3207 H 0.81638 0.84389 0.05877 0.0
H3208 H 0.80331 0.88258 0.99562 0.0
C3209 C 0.71684 0.87618 1.0145 0.0
C3210 C 0.70211 0.866 0.03017 0.0
C3211 C 0.70975 0.85405 0.05 0.0
C3212 C 0.73182 0.85193 0.05398 0.0
C3213 C 0.74593 0.86171 0.03782 0.0
C3214 C 0.73876 0.87364 1.0185 0.0
C3215 C 0.75722 0.88141 1.00295 0.0
C3216 C 0.75579 0.8721 0.9773 0.0
C3217 C 0.75811 0.90596 1.0024 0.0
C3218 C 0.77597 0.87206 1.01662 0.0
C3219 C 0.76904 0.86077 0.03668 0.0
C3220 C 0.78326 0.85038 0.05199 0.0
C3221 C 0.80515 0.85166 0.04677 0.0
C3222 C 0.81258 0.86316 0.02641 0.0
C3223 C 0.79788 0.87354 1.01115 0.0
H3224 H 0.61265 0.55385 0.74263 0.0
H3225 H 0.64319 0.55694 0.81252 0.0
H3226 H 0.64965 0.51813 0.8114 0.0
H3227 H 0.58394 0.50874 0.75474 0.0
H3228 H 0.58561 0.49681 0.72518 0.0
H3229 H 0.58772 0.52532 0.72845 0.0
H3230 H 0.62426 0.52489 0.70627 0.0
H3231 H 0.62219 0.49632 0.70272 0.0
H3232 H 0.64535 0.50775 0.71706 0.0
H3233 H 0.64855 0.47863 0.80548 0.0
H3234 H 0.63907 0.44127 0.79551 0.0
H3235 H 0.60754 0.46311 0.73042 0.0
C3236 C 0.62163 0.5464 0.75705 0.0
C3237 C 0.62819 0.55842 0.77725 0.0
C3238 C 0.6387 0.54809 0.79656 0.0
C3239 C 0.64239 0.52602 0.79609 0.0
C3240 C 0.63522 0.5144 0.77627 0.0
C3241 C 0.62511 0.5242 0.757 0.0
C3242 C 0.61639 0.50768 0.73955 0.0
C3243 C 0.59197 0.50977 0.73684 0.0
C3244 C 0.62773 0.50926 0.71494 0.0
C3245 C 0.62241 0.4872 0.75251 0.0
C3246 C 0.63368 0.49141 0.77337 0.0
C3247 C 0.64002 0.47511 0.78899 0.0
C3248 C 0.63456 0.45395 0.78323 0.0
C3249 C 0.62262 0.44936 0.76224 0.0
C3250 C 0.61672 0.4662 0.74659 0.0
H3251 H 0.79737 0.33387 0.0234 0.0
H3252 H 0.81185 0.40094 1.01218 0.0
H3253 H 0.77332 0.40904 1.00974 0.0
H3254 H 0.7545 0.33165 0.98141 0.0
H3255 H 0.7382 0.31359 0.99893 0.0
H3256 H 0.76688 0.31301 1.00188 0.0
H3257 H 0.76351 0.31913 0.04802 0.0
H3258 H 0.73481 0.31933 0.04524 0.0
H3259 H 0.74832 0.34162 0.05905 0.0
H3260 H 0.73331 0.41004 1.00854 0.0
H3261 H 0.69421 0.40363 1.00862 0.0
H3262 H 0.70538 0.33568 1.01729 0.0
C3263 C 0.79236 0.35029 1.02098 0.0
C3264 C 0.80757 0.36687 1.0184 0.0
C3265 C 0.80045 0.38808 1.01456 0.0
C3266 C 0.77859 0.39283 1.01302 0.0
C3267 C 0.76399 0.37613 1.01509 0.0
C3268 C 0.77051 0.35529 1.01902 0.0
C3269 C 0.75144 0.34027 1.01962 0.0
C3270 C 0.75285 0.32365 0.99924 0.0
C3271 C 0.7494 0.32946 0.04446 0.0
C3272 C 0.73328 0.35592 1.01535 0.0
C3273 C 0.74089 0.37655 1.01301 0.0
C3274 C 0.72716 0.39393 1.01009 0.0
C3275 C 0.70503 0.39016 1.01003 0.0
C3276 C 0.69689 0.36918 1.01237 0.0
C3277 C 0.71123 0.35182 1.01474 0.0
H3278 H 0.88156 0.55195 0.24442 0.0
H3279 H 0.91512 0.56341 0.31157 0.0
H3280 H 0.916 0.5244 0.31934 0.0
H3281 H 0.84965 0.50621 0.26385 0.0
H3282 H 0.85262 0.49276 0.23525 0.0
H3283 H 0.85322 0.52154 0.23659 0.0
H3284 H 0.89033 0.52123 0.21502 0.0
H3285 H 0.8895 0.49244 0.21398 0.0
H3286 H 0.91183 0.50584 0.22784 0.0
H3287 H 0.9139 0.48441 0.31927 0.0
H3288 H 0.91009 0.44577 0.31102 0.0
H3289 H 0.8795 0.45996 0.24278 0.0
C3290 C 0.8888 0.54626 0.26095 0.0
C3291 C 0.8981 0.56064 0.2776 0.0
C3292 C 0.90785 0.55261 0.29871 0.0
C3293 C 0.90839 0.53052 0.30325 0.0
C3294 C 0.89933 0.51674 0.28631 0.0
C3295 C 0.88981 0.52427 0.26553 0.0
C3296 C 0.88241 0.50603 0.24955 0.0
C3297 C 0.85802 0.50667 0.24611 0.0
C3298 C 0.89422 0.50641 0.22515 0.0
C3299 C 0.88914 0.48698 0.26465 0.0
C3300 C 0.89876 0.49359 0.28586 0.0
C3301 C 0.90641 0.47906 0.30277 0.0
C3302 C 0.90423 0.4572 0.29791 0.0
C3303 C 0.89464 0.45007 0.27625 0.0
C3304 C 0.88695 0.46511 0.25941 0.0
H3305 H 0.70989 0.66943 0.52742 0.0
H3306 H 0.69814 0.60195 0.51566 0.0
H3307 H 0.73703 0.59527 0.51414 0.0
H3308 H 0.75272 0.67341 0.48606 0.0
H3309 H 0.7682 0.6921 0.50354 0.0
H3310 H 0.73951 0.6915 0.50659 0.0
H3311 H 0.74292 0.68541 0.55271 0.0
H3312 H 0.77163 0.68645 0.54985 0.0
H3313 H 0.75903 0.66359 0.56368 0.0
H3314 H 0.7772 0.59594 0.51312 0.0
H3315 H 0.81598 0.60414 0.51257 0.0
H3316 H 0.80177 0.67151 0.52131 0.0
C3317 C 0.71556 0.65318 0.52522 0.0
C3318 C 0.70103 0.63609 0.52219 0.0
C3319 C 0.70901 0.61517 0.51848 0.0
C3320 C 0.73108 0.61124 0.51745 0.0
C3321 C 0.74501 0.62848 0.51986 0.0
C3322 C 0.73761 0.64904 0.5237 0.0
C3323 C 0.75601 0.66486 0.52426 0.0
C3324 C 0.75398 0.68144 0.5039 0.0
C3325 C 0.75748 0.67571 0.5491 0.0
C3326 C 0.77482 0.65001 0.51993 0.0
C3327 C 0.76813 0.62905 0.51773 0.0
C3328 C 0.78262 0.61232 0.51461 0.0
C3329 C 0.80456 0.6171 0.51417 0.0
C3330 C 0.81174 0.63844 0.51631 0.0
C3331 C 0.79665 0.65511 0.51893 0.0
H3332 H 0.37333 0.55021 0.29251 0.0
H3333 H 0.42158 0.56251 0.23772 0.0
H3334 H 0.42557 0.52368 0.23109 0.0
H3335 H 0.39866 0.50589 0.31853 0.0
H3336 H 0.37454 0.49097 0.32446 0.0
H3337 H 0.37372 0.51972 0.32337 0.0
H3338 H 0.34446 0.51828 0.29042 0.0
H3339 H 0.34492 0.4895 0.29164 0.0
H3340 H 0.34915 0.50305 0.2633 0.0
H3341 H 0.42661 0.48406 0.23273 0.0
H3342 H 0.4228 0.44535 0.24046 0.0
H3343 H 0.37361 0.45817 0.29386 0.0
C3344 C 0.38438 0.54472 0.27875 0.0
C3345 C 0.39715 0.55929 0.26554 0.0
C3346 C 0.41167 0.55156 0.24797 0.0
C3347 C 0.41405 0.52956 0.24411 0.0
C3348 C 0.40176 0.51558 0.25797 0.0
C3349 C 0.38703 0.52279 0.27474 0.0
C3350 C 0.37651 0.50429 0.28794 0.0
C3351 C 0.38114 0.50528 0.31518 0.0
C3352 C 0.35232 0.50375 0.28302 0.0
C3353 C 0.38784 0.48557 0.27615 0.0
C3354 C 0.40236 0.49253 0.25894 0.0
C3355 C 0.41526 0.4784 0.24606 0.0
C3356 C 0.41312 0.45653 0.25069 0.0
C3357 C 0.39817 0.44905 0.26794 0.0
C3358 C 0.38528 0.46367 0.28077 0.0
H3359 H 0.29996 0.67305 0.9982 0.0
H3360 H 0.3176 0.61639 0.03864 0.0
H3361 H 0.27923 0.60724 0.04345 0.0
H3362 H 0.25451 0.68668 0.03442 0.0
H3363 H 0.23892 0.69632 1.00937 0.0
H3364 H 0.26768 0.6977 1.00822 0.0
H3365 H 0.26772 0.67615 0.9681 0.0
H3366 H 0.23892 0.67499 0.96923 0.0
H3367 H 0.25425 0.65069 0.96709 0.0
H3368 H 0.23908 0.60449 0.04384 0.0
H3369 H 0.20002 0.60952 0.04279 0.0
H3370 H 0.2084 0.66885 1.00326 0.0
C3371 C 0.29575 0.65868 1.00804 0.0
C3372 C 0.31169 0.64535 1.01803 0.0
C3373 C 0.30559 0.62679 0.0309 0.0
C3374 C 0.28388 0.62145 0.0336 0.0
C3375 C 0.26855 0.63492 0.02342 0.0
C3376 C 0.2742 0.65326 1.0111 0.0
C3377 C 0.25463 0.66554 1.00284 0.0
C3378 C 0.2539 0.68788 1.01441 0.0
C3379 C 0.25385 0.66693 0.97516 0.0
C3380 C 0.23699 0.6513 1.01254 0.0
C3381 C 0.2454 0.63361 0.02412 0.0
C3382 C 0.23234 0.61827 0.03482 0.0
C3383 C 0.21015 0.62129 0.0341 0.0
C3384 C 0.20116 0.63963 0.023 0.0
C3385 C 0.2148 0.65463 1.01174 0.0
H3386 H 0.12649 0.45725 0.7985 0.0
H3387 H 0.09274 0.44481 0.7317 0.0
H3388 H 0.09126 0.48372 0.72354 0.0
H3389 H 0.09565 0.50302 0.8149 0.0
H3390 H 0.11795 0.51664 0.82855 0.0
H3391 H 0.11738 0.48784 0.82752 0.0
H3392 H 0.15451 0.4882 0.80568 0.0
H3393 H 0.15457 0.51699 0.80685 0.0
H3394 H 0.15756 0.50347 0.7783 0.0
H3395 H 0.09271 0.52385 0.72325 0.0
H3396 H 0.09609 0.56261 0.73122 0.0
H3397 H 0.12733 0.54917 0.79924 0.0
C3398 C 0.1191 0.46271 0.78195 0.0
C3399 C 0.10989 0.44808 0.76555 0.0
C3400 C 0.09995 0.45581 0.74439 0.0
C3401 C 0.09906 0.47784 0.73963 0.0
C3402 C 0.10797 0.49188 0.75638 0.0
C3403 C 0.11775 0.48464 0.77715 0.0
C3404 C 0.12491 0.50309 0.79293 0.0
C3405 C 0.11329 0.50263 0.81743 0.0
C3406 C 0.14934 0.50293 0.79612 0.0
C3407 C 0.1177 0.52192 0.77778 0.0
C3408 C 0.10807 0.51504 0.75669 0.0
C3409 C 0.1001 0.52939 0.73974 0.0
C3410 C 0.102 0.55131 0.74444 0.0
C3411 C 0.11165 0.55867 0.76595 0.0
C3412 C 0.11965 0.54383 0.78282 0.0
H3413 H 0.20654 0.37406 0.5491 0.0
H3414 H 0.19258 0.34166 0.48186 0.0
H3415 H 0.2313 0.33868 0.4731 0.0
H3416 H 0.25154 0.40447 0.52685 0.0
H3417 H 0.2672 0.40202 0.55395 0.0
H3418 H 0.2384 0.4016 0.5557 0.0
H3419 H 0.23939 0.36533 0.5777 0.0
H3420 H 0.26822 0.36525 0.57637 0.0
H3421 H 0.25335 0.34311 0.56419 0.0
H3422 H 0.27137 0.33796 0.47233 0.0
H3423 H 0.31039 0.3397 0.47964 0.0
H3424 H 0.2987 0.37392 0.54647 0.0
C3425 C 0.21177 0.36617 0.53271 0.0
C3426 C 0.19678 0.35774 0.51628 0.0
C3427 C 0.20399 0.34787 0.49477 0.0
C3428 C 0.22589 0.34622 0.48961 0.0
C3429 C 0.24037 0.35465 0.5061 0.0
C3430 C 0.23368 0.36444 0.52722 0.0
C3431 C 0.2527 0.37205 0.54185 0.0
C3432 C 0.25243 0.39649 0.54476 0.0
C3433 C 0.25344 0.36076 0.56649 0.0
C3434 C 0.27102 0.36491 0.52573 0.0
C3435 C 0.26355 0.35487 0.50523 0.0
C3436 C 0.27743 0.34595 0.48822 0.0
C3437 C 0.29953 0.34702 0.49249 0.0
C3438 C 0.30752 0.3571 0.51344 0.0
C3439 C 0.29305 0.36644 0.53006 0.0
H3440 H 0.14308 0.1173 0.09646 0.0
H3441 H 0.09589 0.16621 0.08097 0.0
H3442 H 0.08877 0.17008 0.12482 0.0
H3443 H 0.11574 0.09255 0.1461 0.0
H3444 H 0.1398 0.08774 0.1631 0.0
H3445 H 0.14089 0.08881 0.13064 0.0
H3446 H 0.1698 0.1184 0.13289 0.0
H3447 H 0.16881 0.1174 0.16536 0.0
H3448 H 0.16445 0.14238 0.14991 0.0
H3449 H 0.08606 0.16748 0.17126 0.0
H3450 H 0.08961 0.16027 0.21506 0.0
H3451 H 0.13986 0.11437 0.19974 0.0
C3452 C 0.13118 0.12883 0.10219 0.0
C3453 C 0.11993 0.14137 0.08505 0.0
C3454 C 0.10472 0.1564 0.09359 0.0
C3455 C 0.10054 0.15868 0.11852 0.0
C3456 C 0.11188 0.146 0.13487 0.0
C3457 C 0.12705 0.1315 0.12698 0.0
C3458 C 0.13742 0.12006 0.14811 0.0
C3459 C 0.13321 0.09586 0.14691 0.0
C3460 C 0.16155 0.12485 0.14912 0.0
C3461 C 0.12566 0.13023 0.16921 0.0
C3462 C 0.11086 0.14505 0.16127 0.0
C3463 C 0.09773 0.15601 0.17757 0.0
C3464 C 0.09983 0.15179 0.20249 0.0
C3465 C 0.11512 0.13688 0.21106 0.0
C3466 C 0.12816 0.12606 0.19398 0.0
H3467 H 0.15318 0.88769 0.44966 0.0
H3468 H 0.10173 0.84404 0.46787 0.0
H3469 H 0.09288 0.84084 0.42424 0.0
H3470 H 0.12687 0.91548 0.40249 0.0
H3471 H 0.15065 0.91818 0.38424 0.0
H3472 H 0.15282 0.91641 0.41656 0.0
H3473 H 0.17846 0.88407 0.4122 0.0
H3474 H 0.17646 0.88587 0.37985 0.0
H3475 H 0.17013 0.86112 0.39496 0.0
H3476 H 0.08902 0.84435 0.37702 0.0
H3477 H 0.09227 0.85198 0.33311 0.0
H3478 H 0.1471 0.89243 0.34754 0.0
C3479 C 0.14004 0.87735 0.44463 0.0
C3480 C 0.12808 0.86619 0.46243 0.0
C3481 C 0.11119 0.85272 0.45472 0.0
C3482 C 0.10601 0.8509 0.42992 0.0
C3483 C 0.11801 0.86245 0.41292 0.0
C3484 C 0.13486 0.87522 0.42013 0.0
C3485 C 0.14558 0.88598 0.39873 0.0
C3486 C 0.14387 0.91046 0.40063 0.0
C3487 C 0.16904 0.87883 0.3963 0.0
C3488 C 0.13212 0.87747 0.37817 0.0
C3489 C 0.11618 0.86401 0.38651 0.0
C3490 C 0.10158 0.85477 0.37047 0.0
C3491 C 0.10349 0.85924 0.34548 0.0
C3492 C 0.11999 0.87273 0.3366 0.0
C3493 C 0.13436 0.8819 0.35344 0.0
H3494 H 0.37499 0.89449 0.70026 0.0
H3495 H 0.42225 0.84592 0.7167 0.0
H3496 H 0.42495 0.83715 0.67305 0.0
H3497 H 0.34797 0.86667 0.65312 0.0
H3498 H 0.34374 0.89034 0.6352 0.0
H3499 H 0.34567 0.8924 0.66753 0.0
H3500 H 0.37644 0.91989 0.66297 0.0
H3501 H 0.37457 0.91797 0.63063 0.0
H3502 H 0.39975 0.913 0.64536 0.0
H3503 H 0.4212 0.83327 0.62627 0.0
H3504 H 0.41334 0.83654 0.58245 0.0
H3505 H 0.36966 0.88863 0.5981 0.0
C3506 C 0.38593 0.88194 0.69481 0.0
C3507 C 0.39831 0.87079 0.7121 0.0
C3508 C 0.41258 0.85471 0.70391 0.0
C3509 C 0.41416 0.84958 0.67911 0.0
C3510 C 0.40155 0.86084 0.6626 0.0
C3511 C 0.38788 0.87686 0.67024 0.0
C3512 C 0.37634 0.88705 0.64916 0.0
C3513 C 0.35199 0.88392 0.6514 0.0
C3514 C 0.38213 0.91088 0.6469 0.0
C3515 C 0.38548 0.87424 0.62834 0.0
C3516 C 0.3999 0.85906 0.63628 0.0
C3517 C 0.41 0.84522 0.61998 0.0
C3518 C 0.4054 0.84712 0.59508 0.0
C3519 C 0.39098 0.8629 0.58663 0.0
C3520 C 0.38092 0.87647 0.60372 0.0
H3521 H 0.37559 0.11005 0.84873 0.0
H3522 H 0.41315 0.16595 0.83012 0.0
H3523 H 0.41611 0.17484 0.87387 0.0
H3524 H 0.34558 0.1331 0.89588 0.0
H3525 H 0.34536 0.10913 0.91393 0.0
H3526 H 0.34734 0.10727 0.8816 0.0
H3527 H 0.38223 0.08514 0.88564 0.0
H3528 H 0.38028 0.08685 0.918 0.0
H3529 H 0.40423 0.09576 0.90283 0.0
H3530 H 0.41233 0.17813 0.92152 0.0
H3531 H 0.40438 0.17415 0.96536 0.0
H3532 H 0.37014 0.11541 0.95015 0.0
C3533 C 0.38458 0.12417 0.85367 0.0
C3534 C 0.39404 0.13737 0.83582 0.0
C3535 C 0.40581 0.15553 0.84338 0.0
C3536 C 0.40747 0.16072 0.86823 0.0
C3537 C 0.39749 0.14745 0.88531 0.0
C3538 C 0.38649 0.1294 0.87811 0.0
C3539 C 0.37692 0.11757 0.89938 0.0
C3540 C 0.35235 0.11673 0.89758 0.0
C3541 C 0.3865 0.095 0.90159 0.0
C3542 C 0.38401 0.13176 0.91993 0.0
C3543 C 0.39579 0.14902 0.91175 0.0
C3544 C 0.40328 0.1645 0.92794 0.0
C3545 C 0.39866 0.16215 0.95287 0.0
C3546 C 0.38678 0.14438 0.96148 0.0
C3547 C 0.3795 0.12911 0.94451 0.0
H3548 H 0.87203 0.8945 0.84473 0.0
H3549 H 0.92753 0.8547 0.83095 0.0
H3550 H 0.92978 0.84649 0.87473 0.0
H3551 H 0.89142 0.9171 0.90024 0.0
H3552 H 0.86532 0.91801 0.91412 0.0
H3553 H 0.86787 0.91994 0.88181 0.0
H3554 H 0.84219 0.88777 0.87677 0.0
H3555 H 0.83959 0.88569 0.90907 0.0
H3556 H 0.84819 0.86288 0.8917 0.0
H3557 H 0.92494 0.84205 0.92119 0.0
H3558 H 0.91564 0.8445 0.96473 0.0
H3559 H 0.86463 0.88883 0.94741 0.0
C3560 C 0.88465 0.88396 0.85081 0.0
C3561 C 0.89952 0.8751 0.83416 0.0
C3562 C 0.91593 0.86168 0.84318 0.0
C3563 C 0.91727 0.85687 0.86808 0.0
C3564 C 0.90226 0.86582 0.88393 0.0
C3565 C 0.88643 0.87932 0.87556 0.0
C3566 C 0.87271 0.88765 0.89619 0.0
C3567 C 0.87444 0.91212 0.8982 0.0
C3568 C 0.84929 0.88057 0.89325 0.0
C3569 C 0.88314 0.87668 0.91757 0.0
C3570 C 0.90004 0.86396 0.91024 0.0
C3571 C 0.9118 0.85208 0.92701 0.0
C3572 C 0.90635 0.85349 0.95176 0.0
C3573 C 0.88946 0.8669 0.95971 0.0
C3574 C 0.87773 0.87849 0.94214 0.0
H3575 H 0.86666 0.11498 0.69652 0.0
H3576 H 0.91651 0.16099 0.71257 0.0
H3577 H 0.92045 0.16838 0.66857 0.0
H3578 H 0.89057 0.09349 0.64307 0.0
H3579 H 0.86518 0.08975 0.62833 0.0
H3580 H 0.86678 0.08867 0.66073 0.0
H3581 H 0.83785 0.11823 0.66396 0.0
H3582 H 0.83622 0.11948 0.63157 0.0
H3583 H 0.84193 0.14333 0.64862 0.0
H3584 H 0.91745 0.17086 0.62083 0.0
H3585 H 0.90943 0.16662 0.57708 0.0
H3586 H 0.86215 0.11836 0.59496 0.0
C3587 C 0.87845 0.1267 0.691 0.0
C3588 C 0.89117 0.13752 0.70823 0.0
C3589 C 0.90654 0.15248 0.69984 0.0
C3590 C 0.90882 0.1568 0.67483 0.0
C3591 C 0.89575 0.1459 0.65839 0.0
C3592 C 0.88099 0.13102 0.66639 0.0
C3593 C 0.86891 0.12102 0.64566 0.0
C3594 C 0.87312 0.0968 0.64438 0.0
C3595 C 0.84481 0.12581 0.64757 0.0
C3596 C 0.87897 0.13258 0.6245 0.0
C3597 C 0.89438 0.14698 0.63192 0.0
C3598 C 0.90546 0.15951 0.61502 0.0
C3599 C 0.90077 0.15706 0.59016 0.0
C3600 C 0.88523 0.14208 0.58234 0.0
C3601 C 0.87426 0.12988 0.60002 0.0
H3602 H 0.64323 0.1194 0.44661 0.0
H3603 H 0.59703 0.16946 0.46142 0.0
H3604 H 0.59 0.17265 0.41739 0.0
H3605 H 0.66515 0.14292 0.39258 0.0
H3606 H 0.66913 0.11748 0.37797 0.0
H3607 H 0.67003 0.11931 0.41039 0.0
H3608 H 0.64063 0.09027 0.41371 0.0
H3609 H 0.63959 0.08839 0.38132 0.0
H3610 H 0.61558 0.09405 0.39826 0.0
H3611 H 0.58735 0.16884 0.37051 0.0
H3612 H 0.59119 0.16051 0.32692 0.0
H3613 H 0.64047 0.11415 0.34389 0.0
C3614 C 0.63155 0.13106 0.44075 0.0
C3615 C 0.62053 0.14408 0.45772 0.0
C3616 C 0.60566 0.15929 0.44894 0.0
C3617 C 0.60155 0.16114 0.4239 0.0
C3618 C 0.61262 0.14787 0.40775 0.0
C3619 C 0.6275 0.13329 0.41597 0.0
C3620 C 0.63773 0.12113 0.39522 0.0
C3621 C 0.66194 0.12548 0.39397 0.0
C3622 C 0.6331 0.09704 0.39725 0.0
C3623 C 0.62622 0.13094 0.37386 0.0
C3624 C 0.61166 0.14624 0.38133 0.0
C3625 C 0.59885 0.15699 0.36461 0.0
C3626 C 0.6011 0.15211 0.33981 0.0
C3627 C 0.61623 0.13676 0.33174 0.0
C3628 C 0.62887 0.12612 0.34923 0.0
H3629 H 0.65097 0.89345 0.09285 0.0
H3630 H 0.59965 0.84979 0.07436 0.0
H3631 H 0.5919 0.84464 0.11798 0.0
H3632 H 0.66969 0.86452 0.14468 0.0
H3633 H 0.67613 0.88838 0.16138 0.0
H3634 H 0.6772 0.88859 0.12889 0.0
H3635 H 0.65095 0.92065 0.12804 0.0
H3636 H 0.64984 0.92054 0.16051 0.0
H3637 H 0.62551 0.91851 0.14329 0.0
H3638 H 0.58941 0.84541 0.16469 0.0
H3639 H 0.59326 0.85091 0.20878 0.0
H3640 H 0.64723 0.89297 0.19554 0.0
C3641 C 0.638 0.88283 0.09783 0.0
C3642 C 0.6258 0.87214 0.08001 0.0
C3643 C 0.6092 0.85821 0.08757 0.0
C3644 C 0.60469 0.8552 0.11234 0.0
C3645 C 0.61706 0.86607 0.1294 0.0
C3646 C 0.63348 0.8795 0.12234 0.0
C3647 C 0.64472 0.88916 0.14395 0.0
C3648 C 0.66833 0.88224 0.14477 0.0
C3649 C 0.64262 0.91367 0.14394 0.0
C3650 C 0.63202 0.87924 0.16442 0.0
C3651 C 0.61605 0.86603 0.15578 0.0
C3652 C 0.60197 0.85562 0.17153 0.0
C3653 C 0.60427 0.85885 0.1966 0.0
C3654 C 0.62065 0.87223 0.2058 0.0
C3655 C 0.63468 0.88242 0.18929 0.0
H3656 H 0.64358 0.61412 0.69511 0.0
H3657 H 0.5864 0.65144 0.70888 0.0
H3658 H 0.58274 0.658 0.66482 0.0
H3659 H 0.66493 0.64527 0.64715 0.0
H3660 H 0.67445 0.6226 0.63016 0.0
H3661 H 0.6723 0.62097 0.66252 0.0
H3662 H 0.6481 0.58755 0.65866 0.0
H3663 H 0.65027 0.58896 0.62628 0.0
H3664 H 0.62428 0.58889 0.64046 0.0
H3665 H 0.58703 0.66188 0.61819 0.0
H3666 H 0.59651 0.65957 0.57468 0.0
H3667 H 0.64962 0.61792 0.59244 0.0
C3668 C 0.63023 0.62368 0.68894 0.0
C3669 C 0.61535 0.63242 0.70559 0.0
C3670 C 0.59798 0.64455 0.69656 0.0
C3671 C 0.59586 0.64842 0.67154 0.0
C3672 C 0.61103 0.63976 0.65566 0.0
C3673 C 0.62768 0.62733 0.66412 0.0
C3674 C 0.6416 0.61927 0.64356 0.0
C3675 C 0.66468 0.62753 0.646 0.0
C3676 C 0.64102 0.59472 0.64216 0.0
C3677 C 0.63044 0.62931 0.62211 0.0
C3678 C 0.61293 0.64124 0.62932 0.0
C3679 C 0.60061 0.6524 0.61246 0.0
C3680 C 0.60616 0.65109 0.58775 0.0
C3681 C 0.62373 0.63848 0.57998 0.0
C3682 C 0.63597 0.62757 0.59761 0.0
H3683 H 0.6415 0.39264 0.84129 0.0
H3684 H 0.59057 0.34804 0.82466 0.0
H3685 H 0.58642 0.34033 0.86859 0.0
H3686 H 0.66551 0.36376 0.88922 0.0
H3687 H 0.67145 0.38732 0.90668 0.0
H3688 H 0.67 0.38898 0.87429 0.0
H3689 H 0.64146 0.41886 0.87774 0.0
H3690 H 0.6429 0.41741 0.91015 0.0
H3691 H 0.61753 0.41418 0.89522 0.0
H3692 H 0.58983 0.33662 0.91599 0.0
H3693 H 0.59768 0.34001 0.9598 0.0
H3694 H 0.64514 0.38849 0.94356 0.0
C3695 C 0.62943 0.38116 0.84673 0.0
C3696 C 0.61651 0.37075 0.82931 0.0
C3697 C 0.60069 0.35622 0.83752 0.0
C3698 C 0.59831 0.35169 0.86249 0.0
C3699 C 0.61165 0.36208 0.8791 0.0
C3700 C 0.62668 0.37678 0.87135 0.0
C3701 C 0.63882 0.3864 0.89236 0.0
C3702 C 0.66286 0.3813 0.89052 0.0
C3703 C 0.63494 0.41065 0.89396 0.0
C3704 C 0.62852 0.37475 0.91337 0.0
C3705 C 0.613 0.36061 0.90556 0.0
C3706 C 0.60185 0.34781 0.9221 0.0
C3707 C 0.60648 0.34976 0.94702 0.0
C3708 C 0.62195 0.3646 0.95534 0.0
C3709 C 0.63307 0.3771 0.93803 0.0
H3710 H 0.86437 0.39131 0.09455 0.0
H3711 H 0.90865 0.33973 0.07895 0.0
H3712 H 0.91704 0.33697 0.12264 0.0
H3713 H 0.89435 0.41641 0.14165 0.0
H3714 H 0.87099 0.42291 0.15934 0.0
H3715 H 0.86902 0.42084 0.12701 0.0
H3716 H 0.83883 0.39272 0.13161 0.0
H3717 H 0.84064 0.39479 0.16394 0.0
H3718 H 0.84348 0.36912 0.14952 0.0
H3719 H 0.92103 0.341 0.16938 0.0
H3720 H 0.91781 0.34924 0.21315 0.0
H3721 H 0.86976 0.39705 0.19683 0.0
C3722 C 0.87592 0.37943 0.10018 0.0
C3723 C 0.88596 0.36583 0.08311 0.0
C3724 C 0.90072 0.35035 0.09156 0.0
C3725 C 0.90564 0.34873 0.11639 0.0
C3726 C 0.89551 0.36255 0.13268 0.0
C3727 C 0.88076 0.37744 0.12479 0.0
C3728 C 0.87146 0.39005 0.1457 0.0
C3729 C 0.87678 0.41397 0.14327 0.0
C3730 C 0.84717 0.38644 0.14781 0.0
C3731 C 0.88326 0.38005 0.16672 0.0
C3732 C 0.89725 0.36434 0.159 0.0
C3733 C 0.91001 0.35321 0.17549 0.0
C3734 C 0.90817 0.35805 0.20036 0.0
C3735 C 0.89347 0.37371 0.2086 0.0
C3736 C 0.88106 0.38485 0.19132 0.0
H3737 H 0.86549 0.61662 0.3441 0.0
H3738 H 0.91368 0.6642 0.327 0.0
H3739 H 0.91667 0.67307 0.3705 0.0
H3740 H 0.83949 0.64496 0.39276 0.0
H3741 H 0.8352 0.62117 0.41047 0.0
H3742 H 0.83634 0.61947 0.37804 0.0
H3743 H 0.8666 0.5913 0.38107 0.0
H3744 H 0.86552 0.59289 0.41349 0.0
H3745 H 0.89045 0.59752 0.39788 0.0
H3746 H 0.9138 0.67678 0.41709 0.0
H3747 H 0.90745 0.67289 0.46117 0.0
H3748 H 0.86257 0.6216 0.44689 0.0
C3749 C 0.87657 0.62906 0.34939 0.0
C3750 C 0.88921 0.63986 0.33194 0.0
C3751 C 0.90376 0.65574 0.3399 0.0
C3752 C 0.90552 0.66091 0.36462 0.0
C3753 C 0.8928 0.64993 0.38133 0.0
C3754 C 0.87875 0.63417 0.37394 0.0
C3755 C 0.86751 0.62397 0.39535 0.0
C3756 C 0.8432 0.62762 0.39407 0.0
C3757 C 0.87285 0.60001 0.39704 0.0
C3758 C 0.87739 0.63638 0.41602 0.0
C3759 C 0.89177 0.65147 0.40769 0.0
C3760 C 0.90262 0.66492 0.42371 0.0
C3761 C 0.89887 0.66267 0.44876 0.0
C3762 C 0.88463 0.64687 0.45765 0.0
C3763 C 0.87372 0.63374 0.44084 0.0
H3764 H 0.36521 0.39304 0.34639 0.0
H3765 H 0.41566 0.34807 0.32862 0.0
H3766 H 0.41952 0.33944 0.37218 0.0
H3767 H 0.38909 0.41321 0.40084 0.0
H3768 H 0.36378 0.41622 0.41615 0.0
H3769 H 0.36514 0.41836 0.38377 0.0
H3770 H 0.3365 0.38864 0.37977 0.0
H3771 H 0.33509 0.38637 0.41213 0.0
H3772 H 0.34089 0.36313 0.39404 0.0
H3773 H 0.41649 0.33505 0.41902 0.0
H3774 H 0.40871 0.33726 0.46297 0.0
H3775 H 0.36142 0.38637 0.44886 0.0
C3776 C 0.37711 0.38132 0.35151 0.0
C3777 C 0.39006 0.37113 0.33384 0.0
C3778 C 0.40554 0.35611 0.34165 0.0
C3779 C 0.40779 0.35108 0.36642 0.0
C3780 C 0.39461 0.36136 0.3833 0.0
C3781 C 0.37972 0.37635 0.37604 0.0
C3782 C 0.36769 0.38558 0.39746 0.0
C3783 C 0.37167 0.40977 0.39968 0.0
C3784 C 0.34362 0.38063 0.39574 0.0
C3785 C 0.37799 0.37344 0.41807 0.0
C3786 C 0.39338 0.35938 0.40968 0.0
C3787 C 0.40456 0.34615 0.42565 0.0
C3788 C 0.40001 0.34746 0.45064 0.0
C3789 C 0.38458 0.36209 0.4596 0.0
C3790 C 0.3735 0.37515 0.44285 0.0
H3791 H 0.3698 0.61287 0.20012 0.0
H3792 H 0.41647 0.66169 0.2176 0.0
H3793 H 0.42029 0.67005 0.1739 0.0
H3794 H 0.39613 0.59389 0.14619 0.0
H3795 H 0.37137 0.58867 0.1307 0.0
H3796 H 0.37242 0.58703 0.16312 0.0
H3797 H 0.34143 0.61439 0.16639 0.0
H3798 H 0.3403 0.61614 0.13398 0.0
H3799 H 0.34396 0.63999 0.15173 0.0
H3800 H 0.41728 0.67387 0.12701 0.0
H3801 H 0.41015 0.6707 0.08308 0.0
H3802 H 0.367 0.61789 0.09741 0.0
C3803 C 0.38085 0.62538 0.19489 0.0
C3804 C 0.39271 0.63676 0.21251 0.0
C3805 C 0.40719 0.65275 0.20459 0.0
C3806 C 0.40939 0.65764 0.17975 0.0
C3807 C 0.39725 0.64618 0.16292 0.0
C3808 C 0.38347 0.63018 0.1703 0.0
C3809 C 0.37252 0.61974 0.14892 0.0
C3810 C 0.37847 0.59593 0.14713 0.0
C3811 C 0.34811 0.62275 0.15035 0.0
C3812 C 0.3821 0.63241 0.1282 0.0
C3813 C 0.3962 0.64776 0.1365 0.0
C3814 C 0.4064 0.66175 0.12045 0.0
C3815 C 0.40221 0.65988 0.09547 0.0
C3816 C 0.38815 0.64394 0.08657 0.0
C3817 C 0.37804 0.63011 0.10339 0.0
H3818 H 0.14357 0.61154 0.84634 0.0
H3819 H 0.09627 0.66025 0.83046 0.0
H3820 H 0.09232 0.66746 0.87429 0.0
H3821 H 0.1174 0.59093 0.89961 0.0
H3822 H 0.14213 0.58572 0.91519 0.0
H3823 H 0.14133 0.58483 0.88272 0.0
H3824 H 0.1719 0.61274 0.8805 0.0
H3825 H 0.1728 0.61371 0.91296 0.0
H3826 H 0.16889 0.63793 0.89592 0.0
H3827 H 0.09482 0.67008 0.92071 0.0
H3828 H 0.10164 0.66618 0.96455 0.0
H3829 H 0.14583 0.61438 0.94947 0.0
C3830 C 0.13238 0.6238 0.85198 0.0
C3831 C 0.12032 0.63545 0.83478 0.0
C3832 C 0.1057 0.65111 0.84317 0.0
C3833 C 0.1034 0.65534 0.86807 0.0
C3834 C 0.11562 0.64359 0.88449 0.0
C3835 C 0.12966 0.62797 0.87671 0.0
C3836 C 0.14063 0.61718 0.89787 0.0
C3837 C 0.13503 0.59325 0.8989 0.0
C3838 C 0.165 0.6206 0.89674 0.0
C3839 C 0.13071 0.62923 0.91887 0.0
C3840 C 0.11644 0.64453 0.91086 0.0
C3841 C 0.10584 0.65801 0.92709 0.0
C3842 C 0.10984 0.65571 0.95201 0.0
C3843 C 0.12412 0.63987 0.96063 0.0
C3844 C 0.1346 0.6265 0.94364 0.0
H3845 H 0.14185 0.39295 0.69991 0.0
H3846 H 0.09192 0.34686 0.71596 0.0
H3847 H 0.08781 0.33977 0.67218 0.0
H3848 H 0.11694 0.41501 0.64746 0.0
H3849 H 0.1418 0.41903 0.6315 0.0
H3850 H 0.1413 0.41962 0.66399 0.0
H3851 H 0.17027 0.39006 0.66533 0.0
H3852 H 0.17092 0.38941 0.63284 0.0
H3853 H 0.16579 0.36524 0.64961 0.0
H3854 H 0.08975 0.33758 0.62564 0.0
H3855 H 0.0962 0.3419 0.5817 0.0
H3856 H 0.14353 0.39077 0.59685 0.0
C3857 C 0.13014 0.3812 0.69433 0.0
C3858 C 0.11733 0.37031 0.71155 0.0
C3859 C 0.10199 0.35536 0.70323 0.0
C3860 C 0.09956 0.35122 0.67835 0.0
C3861 C 0.11242 0.36232 0.66188 0.0
C3862 C 0.12731 0.37713 0.66962 0.0
C3863 C 0.13871 0.38752 0.64843 0.0
C3864 C 0.13442 0.41173 0.64781 0.0
C3865 C 0.16285 0.38276 0.6491 0.0
C3866 C 0.12798 0.37625 0.62746 0.0
C3867 C 0.11299 0.36163 0.63549 0.0
C3868 C 0.1014 0.34909 0.61924 0.0
C3869 C 0.10518 0.35163 0.59427 0.0
C3870 C 0.12024 0.36679 0.58565 0.0
C3871 C 0.13172 0.37919 0.60267 0.0
loop_
_geom_bond_atom_site_label_1
_geom_bond_atom_site_label_2
_geom_bond_distance
_geom_bond_site_symmetry_2
_ccdc_geom_bond_type
Pr0 C2 2.880 . S
Pr0 O20 2.562 . S
Pr0 O21 2.490 . S
Pr0 O22 2.695 . S
Pr0 O23 2.512 . S
Pr0 O25 2.437 . S
Pr0 O28 2.436 . S
Pr0 O30 2.438 . S
Pr1 C11 2.880 . S
Pr1 O22 2.436 . S
Pr1 O24 2.438 . S
Pr1 O26 2.562 . S
Pr1 O27 2.490 . S
Pr1 O28 2.695 . S
Pr1 O29 2.512 . S
Pr1 O31 2.437 . S
C2 Pr0 2.880 . S
C2 C3 1.491 . S
C2 O20 1.254 . S
C2 O21 1.225 . S
C3 C2 1.491 . S
C3 C4 1.392 . S
C3 C8 1.356 . S
C4 C3 1.392 . S
C4 C5 1.368 . S
C4 H32 0.929 . S
C5 C4 1.368 . S
C5 C6 1.386 . S
C5 H33 0.929 . S
C6 C5 1.386 . S
C6 C7 1.373 . S
C7 C6 1.373 . S
C7 C8 1.409 . S
C7 H34 0.931 . S
C8 C3 1.356 . S
C8 C7 1.409 . S
C8 H35 0.930 . S
C9 O22 1.270 . S
C9 O23 1.248 . S
C10 O24 1.267 . S
C10 O25 1.278 . S
C11 Pr1 2.880 . S
C11 C12 1.491 . S
C11 O26 1.254 . S
C11 O27 1.225 . S
C12 C11 1.491 . S
C12 C13 1.392 . S
C12 C17 1.356 . S
C13 C12 1.392 . S
C13 C14 1.368 . S
C13 H36 0.929 . S
C14 C13 1.368 . S
C14 C15 1.386 . S
C14 H37 0.929 . S
C15 C14 1.386 . S
C15 C16 1.373 . S
C16 C15 1.373 . S
C16 C17 1.409 . S
C16 H38 0.931 . S
C17 C12 1.356 . S
C17 C16 1.409 . S
C17 H39 0.930 . S
C18 O28 1.270 . S
C18 O29 1.248 . S
C19 O30 1.267 . S
C19 O31 1.278 . S
O20 Pr0 2.562 . S
O20 C2 1.254 . S
O21 Pr0 2.490 . S
O21 C2 1.225 . S
O22 Pr0 2.695 . S
O22 Pr1 2.436 . S
O22 C9 1.270 . S
O23 Pr0 2.512 . S
O23 C9 1.248 . S
O24 Pr1 2.438 . S
O24 C10 1.267 . S
O25 Pr0 2.437 . S
O25 C10 1.278 . S
O26 Pr1 2.562 . S
O26 C11 1.254 . S
O27 Pr1 2.490 . S
O27 C11 1.225 . S
O28 Pr0 2.436 . S
O28 Pr1 2.695 . S
O28 C18 1.270 . S
O29 Pr1 2.512 . S
O29 C18 1.248 . S
O30 Pr0 2.438 . S
O30 C19 1.267 . S
O31 Pr1 2.437 . S
O31 C19 1.278 . S
H32 C4 0.929 . S
H33 C5 0.929 . S
H34 C7 0.931 . S
H35 C8 0.930 . S
H36 C13 0.929 . S
H37 C14 0.929 . S
H38 C16 0.931 . S
H39 C17 0.930 . S
Pr40 C42 2.880 . S
Pr40 O60 2.562 . S
Pr40 O61 2.490 . S
Pr40 O62 2.695 . S
Pr40 O63 2.512 . S
Pr40 O65 2.437 . S
Pr40 O68 2.436 . S
Pr40 O70 2.438 . S
Pr41 C51 2.880 . S
Pr41 O62 2.436 . S
Pr41 O64 2.438 . S
Pr41 O66 2.562 . S
Pr41 O67 2.490 . S
Pr41 O68 2.695 . S
Pr41 O69 2.512 . S
Pr41 O71 2.437 . S
C42 Pr40 2.880 . S
C42 C43 1.491 . S
C42 O60 1.254 . S
C42 O61 1.225 . S
C43 C42 1.491 . S
C43 C44 1.392 . S
C43 C48 1.356 . S
C44 C43 1.392 . S
C44 C45 1.368 . S
C44 H72 0.929 . S
C45 C44 1.368 . S
C45 C46 1.386 . S
C45 H73 0.929 1_565 S
C46 C45 1.386 . S
C46 C47 1.373 . S
C47 C46 1.373 . S
C47 C48 1.409 . S
C47 H74 0.931 . S
C48 C43 1.356 . S
C48 C47 1.409 . S
C48 H75 0.930 . S
C49 O62 1.270 . S
C49 O63 1.248 . S
C50 O64 1.267 . S
C50 O65 1.278 . S
C51 Pr41 2.880 . S
C51 C52 1.491 . S
C51 O66 1.254 . S
C51 O67 1.225 . S
C52 C51 1.491 . S
C52 C53 1.392 . S
C52 C57 1.356 . S
C53 C52 1.392 . S
C53 C54 1.368 . S
C53 H76 0.929 . S
C54 C53 1.368 . S
C54 C55 1.386 . S
C54 H77 0.929 . S
C55 C54 1.386 . S
C55 C56 1.373 . S
C56 C55 1.373 . S
C56 C57 1.409 . S
C56 H78 0.931 . S
C57 C52 1.356 . S
C57 C56 1.409 . S
C57 H79 0.930 . S
C58 O68 1.270 . S
C58 O69 1.248 . S
C59 O70 1.267 . S
C59 O71 1.278 . S
O60 Pr40 2.562 . S
O60 C42 1.254 . S
O61 Pr40 2.490 . S
O61 C42 1.225 . S
O62 Pr40 2.695 . S
O62 Pr41 2.436 . S
O62 C49 1.270 . S
O63 Pr40 2.512 . S
O63 C49 1.248 . S
O64 Pr41 2.438 . S
O64 C50 1.267 . S
O65 Pr40 2.437 . S
O65 C50 1.278 . S
O66 Pr41 2.562 . S
O66 C51 1.254 . S
O67 Pr41 2.490 . S
O67 C51 1.225 . S
O68 Pr40 2.436 . S
O68 Pr41 2.695 . S
O68 C58 1.270 . S
O69 Pr41 2.512 . S
O69 C58 1.248 . S
O70 Pr40 2.438 . S
O70 C59 1.267 . S
O71 Pr41 2.437 . S
O71 C59 1.278 . S
H72 C44 0.929 . S
H73 C45 0.929 1_545 S
H74 C47 0.931 . S
H75 C48 0.930 . S
H76 C53 0.929 . S
H77 C54 0.929 . S
H78 C56 0.931 . S
H79 C57 0.930 . S
Pr80 C82 2.880 . S
Pr80 O100 2.562 . S
Pr80 O101 2.490 . S
Pr80 O102 2.695 . S
Pr80 O103 2.512 . S
Pr80 O105 2.437 . S
Pr80 O108 2.436 . S
Pr80 O110 2.438 . S
Pr81 C91 2.880 . S
Pr81 O102 2.436 . S
Pr81 O104 2.438 . S
Pr81 O106 2.562 . S
Pr81 O107 2.490 . S
Pr81 O108 2.695 . S
Pr81 O109 2.512 . S
Pr81 O111 2.437 . S
C82 Pr80 2.880 . S
C82 C83 1.491 . S
C82 O100 1.254 . S
C82 O101 1.225 . S
C83 C82 1.491 . S
C83 C84 1.392 . S
C83 C88 1.356 . S
C84 C83 1.392 . S
C84 C85 1.368 . S
C84 H112 0.929 . S
C85 C84 1.368 . S
C85 C86 1.386 . S
C85 H113 0.929 . S
C86 C85 1.386 . S
C86 C87 1.373 . S
C87 C86 1.373 . S
C87 C88 1.409 . S
C87 H114 0.931 . S
C88 C83 1.356 . S
C88 C87 1.409 . S
C88 H115 0.930 . S
C89 O102 1.270 . S
C89 O103 1.248 . S
C90 O104 1.267 . S
C90 O105 1.278 . S
C91 Pr81 2.880 . S
C91 C92 1.491 . S
C91 O106 1.254 . S
C91 O107 1.225 . S
C92 C91 1.491 . S
C92 C93 1.392 . S
C92 C97 1.356 . S
C93 C92 1.392 . S
C93 C94 1.368 . S
C93 H116 0.929 . S
C94 C93 1.368 . S
C94 C95 1.386 . S
C94 H117 0.929 . S
C95 C94 1.386 . S
C95 C96 1.373 . S
C96 C95 1.373 . S
C96 C97 1.409 . S
C96 H118 0.931 . S
C97 C92 1.356 . S
C97 C96 1.409 . S
C97 H119 0.930 . S
C98 O108 1.270 . S
C98 O109 1.248 . S
C99 O110 1.267 . S
C99 O111 1.278 . S
O100 Pr80 2.562 . S
O100 C82 1.254 . S
O101 Pr80 2.490 . S
O101 C82 1.225 . S
O102 Pr80 2.695 . S
O102 Pr81 2.436 . S
O102 C89 1.270 . S
O103 Pr80 2.512 . S
O103 C89 1.248 . S
O104 Pr81 2.438 . S
O104 C90 1.267 . S
O105 Pr80 2.437 . S
O105 C90 1.278 . S
O106 Pr81 2.562 . S
O106 C91 1.254 . S
O107 Pr81 2.490 . S
O107 C91 1.225 . S
O108 Pr80 2.436 . S
O108 Pr81 2.695 . S
O108 C98 1.270 . S
O109 Pr81 2.512 . S
O109 C98 1.248 . S
O110 Pr80 2.438 . S
O110 C99 1.267 . S
O111 Pr81 2.437 . S
O111 C99 1.278 . S
H112 C84 0.929 . S
H113 C85 0.929 . S
H114 C87 0.931 . S
H115 C88 0.930 . S
H116 C93 0.929 . S
H117 C94 0.929 . S
H118 C96 0.931 . S
H119 C97 0.930 . S
Pr120 C122 2.880 1_554 S
Pr120 O140 2.562 1_554 S
Pr120 O141 2.490 . S
Pr120 O142 2.695 . S
Pr120 O143 2.512 . S
Pr120 O145 2.437 1_554 S
Pr120 O148 2.436 . S
Pr120 O150 2.438 . S
Pr121 C131 2.880 . S
Pr121 O142 2.436 . S
Pr121 O144 2.438 1_554 S
Pr121 O146 2.562 . S
Pr121 O147 2.490 . S
Pr121 O148 2.695 . S
Pr121 O149 2.512 . S
Pr121 O151 2.437 . S
C122 Pr120 2.880 1_556 S
C122 C123 1.491 . S
C122 O140 1.254 . S
C122 O141 1.225 1_556 S
C123 C122 1.491 . S
C123 C124 1.392 . S
C123 C128 1.356 . S
C124 C123 1.392 . S
C124 C125 1.368 . S
C124 H152 0.929 . S
C125 C124 1.368 . S
C125 C126 1.386 . S
C125 H153 0.929 1_545 S
C126 C125 1.386 . S
C126 C127 1.373 . S
C127 C126 1.373 . S
C127 C128 1.409 . S
C127 H154 0.931 . S
C128 C123 1.356 . S
C128 C127 1.409 . S
C128 H155 0.930 . S
C129 O142 1.270 . S
C129 O143 1.248 . S
C130 O144 1.267 . S
C130 O145 1.278 . S
C131 Pr121 2.880 . S
C131 C132 1.491 . S
C131 O146 1.254 . S
C131 O147 1.225 . S
C132 C131 1.491 . S
C132 C133 1.392 . S
C132 C137 1.356 . S
C133 C132 1.392 . S
C133 C134 1.368 . S
C133 H156 0.929 . S
C134 C133 1.368 . S
C134 C135 1.386 . S
C134 H157 0.929 . S
C135 C134 1.386 . S
C135 C136 1.373 . S
C136 C135 1.373 . S
C136 C137 1.409 . S
C136 H158 0.931 . S
C137 C132 1.356 . S
C137 C136 1.409 . S
C137 H159 0.930 . S
C138 O148 1.270 . S
C138 O149 1.248 . S
C139 O150 1.267 . S
C139 O151 1.278 . S
O140 Pr120 2.562 1_556 S
O140 C122 1.254 . S
O141 Pr120 2.490 . S
O141 C122 1.225 1_554 S
O142 Pr120 2.695 . S
O142 Pr121 2.436 . S
O142 C129 1.270 . S
O143 Pr120 2.512 . S
O143 C129 1.248 . S
O144 Pr121 2.438 1_556 S
O144 C130 1.267 . S
O145 Pr120 2.437 1_556 S
O145 C130 1.278 . S
O146 Pr121 2.562 . S
O146 C131 1.254 . S
O147 Pr121 2.490 . S
O147 C131 1.225 . S
O148 Pr120 2.436 . S
O148 Pr121 2.695 . S
O148 C138 1.270 . S
O149 Pr121 2.512 . S
O149 C138 1.248 . S
O150 Pr120 2.438 . S
O150 C139 1.267 . S
O151 Pr121 2.437 . S
O151 C139 1.278 . S
H152 C124 0.929 . S
H153 C125 0.929 1_565 S
H154 C127 0.931 . S
H155 C128 0.930 . S
H156 C133 0.929 . S
H157 C134 0.929 . S
H158 C136 0.931 . S
H159 C137 0.930 . S
Pr160 C162 2.880 . S
Pr160 O180 2.562 . S
Pr160 O181 2.490 . S
Pr160 O182 2.695 . S
Pr160 O183 2.512 . S
Pr160 O185 2.437 . S
Pr160 O188 2.436 . S
Pr160 O190 2.438 . S
Pr161 C171 2.880 . S
Pr161 O182 2.436 . S
Pr161 O184 2.438 . S
Pr161 O186 2.562 . S
Pr161 O187 2.490 . S
Pr161 O188 2.695 . S
Pr161 O189 2.512 . S
Pr161 O191 2.437 . S
C162 Pr160 2.880 . S
C162 C163 1.491 . S
C162 O180 1.254 . S
C162 O181 1.225 . S
C163 C162 1.491 . S
C163 C164 1.392 . S
C163 C168 1.356 . S
C164 C163 1.392 . S
C164 C165 1.368 . S
C164 H192 0.929 . S
C165 C164 1.368 . S
C165 C166 1.386 . S
C165 H193 0.929 . S
C166 C165 1.386 . S
C166 C167 1.373 . S
C167 C166 1.373 . S
C167 C168 1.409 . S
C167 H194 0.931 . S
C168 C163 1.356 . S
C168 C167 1.409 . S
C168 H195 0.930 . S
C169 O182 1.270 . S
C169 O183 1.248 . S
C170 O184 1.267 . S
C170 O185 1.278 . S
C171 Pr161 2.880 . S
C171 C172 1.491 . S
C171 O186 1.254 . S
C171 O187 1.225 . S
C172 C171 1.491 . S
C172 C173 1.392 . S
C172 C177 1.356 . S
C173 C172 1.392 . S
C173 C174 1.368 . S
C173 H196 0.929 . S
C174 C173 1.368 . S
C174 C175 1.386 . S
C174 H197 0.929 . S
C175 C174 1.386 . S
C175 C176 1.373 . S
C176 C175 1.373 . S
C176 C177 1.409 . S
C176 H198 0.931 . S
C177 C172 1.356 . S
C177 C176 1.409 . S
C177 H199 0.930 . S
C178 O188 1.270 . S
C178 O189 1.248 . S
C179 O190 1.267 . S
C179 O191 1.278 . S
O180 Pr160 2.562 . S
O180 C162 1.254 . S
O181 Pr160 2.490 . S
O181 C162 1.225 . S
O182 Pr160 2.695 . S
O182 Pr161 2.436 . S
O182 C169 1.270 . S
O183 Pr160 2.512 . S
O183 C169 1.248 . S
O184 Pr161 2.438 . S
O184 C170 1.267 . S
O185 Pr160 2.437 . S
O185 C170 1.278 . S
O186 Pr161 2.562 . S
O186 C171 1.254 . S
O187 Pr161 2.490 . S
O187 C171 1.225 . S
O188 Pr160 2.436 . S
O188 Pr161 2.695 . S
O188 C178 1.270 . S
O189 Pr161 2.512 . S
O189 C178 1.248 . S
O190 Pr160 2.438 . S
O190 C179 1.267 . S
O191 Pr161 2.437 . S
O191 C179 1.278 . S
H192 C164 0.929 . S
H193 C165 0.929 . S
H194 C167 0.931 . S
H195 C168 0.930 . S
H196 C173 0.929 . S
H197 C174 0.929 . S
H198 C176 0.931 . S
H199 C177 0.930 . S
Pr200 C202 2.880 . S
Pr200 O220 2.562 . S
Pr200 O221 2.490 . S
Pr200 O222 2.695 . S
Pr200 O223 2.512 . S
Pr200 O225 2.437 . S
Pr200 O228 2.436 . S
Pr200 O230 2.438 . S
Pr201 C211 2.880 . S
Pr201 O222 2.436 . S
Pr201 O224 2.438 . S
Pr201 O226 2.562 . S
Pr201 O227 2.490 . S
Pr201 O228 2.695 . S
Pr201 O229 2.512 . S
Pr201 O231 2.437 . S
C202 Pr200 2.880 . S
C202 C203 1.491 . S
C202 O220 1.254 . S
C202 O221 1.225 . S
C203 C202 1.491 . S
C203 C204 1.392 . S
C203 C208 1.356 . S
C204 C203 1.392 . S
C204 C205 1.368 . S
C204 H232 0.929 . S
C205 C204 1.368 . S
C205 C206 1.386 . S
C205 H233 0.929 1_565 S
C206 C205 1.386 . S
C206 C207 1.373 . S
C207 C206 1.373 . S
C207 C208 1.409 . S
C207 H234 0.931 . S
C208 C203 1.356 . S
C208 C207 1.409 . S
C208 H235 0.930 . S
C209 O222 1.270 . S
C209 O223 1.248 . S
C210 O224 1.267 . S
C210 O225 1.278 . S
C211 Pr201 2.880 . S
C211 C212 1.491 . S
C211 O226 1.254 . S
C211 O227 1.225 . S
C212 C211 1.491 . S
C212 C213 1.392 . S
C212 C217 1.356 . S
C213 C212 1.392 . S
C213 C214 1.368 . S
C213 H236 0.929 . S
C214 C213 1.368 . S
C214 C215 1.386 . S
C214 H237 0.929 . S
C215 C214 1.386 . S
C215 C216 1.373 . S
C216 C215 1.373 . S
C216 C217 1.409 . S
C216 H238 0.931 . S
C217 C212 1.356 . S
C217 C216 1.409 . S
C217 H239 0.930 . S
C218 O228 1.270 . S
C218 O229 1.248 . S
C219 O230 1.267 . S
C219 O231 1.278 . S
O220 Pr200 2.562 . S
O220 C202 1.254 . S
O221 Pr200 2.490 . S
O221 C202 1.225 . S
O222 Pr200 2.695 . S
O222 Pr201 2.436 . S
O222 C209 1.270 . S
O223 Pr200 2.512 . S
O223 C209 1.248 . S
O224 Pr201 2.438 . S
O224 C210 1.267 . S
O225 Pr200 2.437 . S
O225 C210 1.278 . S
O226 Pr201 2.562 . S
O226 C211 1.254 . S
O227 Pr201 2.490 . S
O227 C211 1.225 . S
O228 Pr200 2.436 . S
O228 Pr201 2.695 . S
O228 C218 1.270 . S
O229 Pr201 2.512 . S
O229 C218 1.248 . S
O230 Pr200 2.438 . S
O230 C219 1.267 . S
O231 Pr201 2.437 . S
O231 C219 1.278 . S
H232 C204 0.929 . S
H233 C205 0.929 1_545 S
H234 C207 0.931 . S
H235 C208 0.930 . S
H236 C213 0.929 . S
H237 C214 0.929 . S
H238 C216 0.931 . S
H239 C217 0.930 . S
Pr240 C242 2.880 . S
Pr240 O260 2.562 . S
Pr240 O261 2.490 . S
Pr240 O262 2.695 . S
Pr240 O263 2.512 . S
Pr240 O265 2.437 . S
Pr240 O268 2.436 . S
Pr240 O270 2.438 . S
Pr241 C251 2.880 . S
Pr241 O262 2.436 . S
Pr241 O264 2.438 . S
Pr241 O266 2.562 . S
Pr241 O267 2.490 . S
Pr241 O268 2.695 . S
Pr241 O269 2.512 . S
Pr241 O271 2.437 . S
C242 Pr240 2.880 . S
C242 C243 1.491 . S
C242 O260 1.254 . S
C242 O261 1.225 . S
C243 C242 1.491 . S
C243 C244 1.392 . S
C243 C248 1.356 . S
C244 C243 1.392 . S
C244 C245 1.368 . S
C244 H272 0.929 . S
C245 C244 1.368 . S
C245 C246 1.386 . S
C245 H273 0.929 . S
C246 C245 1.386 . S
C246 C247 1.373 . S
C247 C246 1.373 . S
C247 C248 1.409 . S
C247 H274 0.931 . S
C248 C243 1.356 . S
C248 C247 1.409 . S
C248 H275 0.930 . S
C249 O262 1.270 . S
C249 O263 1.248 . S
C250 O264 1.267 . S
C250 O265 1.278 . S
C251 Pr241 2.880 . S
C251 C252 1.491 . S
C251 O266 1.254 . S
C251 O267 1.225 . S
C252 C251 1.491 . S
C252 C253 1.392 . S
C252 C257 1.356 . S
C253 C252 1.392 . S
C253 C254 1.368 . S
C253 H276 0.929 . S
C254 C253 1.368 . S
C254 C255 1.386 . S
C254 H277 0.929 . S
C255 C254 1.386 . S
C255 C256 1.373 . S
C256 C255 1.373 . S
C256 C257 1.409 . S
C256 H278 0.931 . S
C257 C252 1.356 . S
C257 C256 1.409 . S
C257 H279 0.930 . S
C258 O268 1.270 . S
C258 O269 1.248 . S
C259 O270 1.267 . S
C259 O271 1.278 . S
O260 Pr240 2.562 . S
O260 C242 1.254 . S
O261 Pr240 2.490 . S
O261 C242 1.225 . S
O262 Pr240 2.695 . S
O262 Pr241 2.436 . S
O262 C249 1.270 . S
O263 Pr240 2.512 . S
O263 C249 1.248 . S
O264 Pr241 2.438 . S
O264 C250 1.267 . S
O265 Pr240 2.437 . S
O265 C250 1.278 . S
O266 Pr241 2.562 . S
O266 C251 1.254 . S
O267 Pr241 2.490 . S
O267 C251 1.225 . S
O268 Pr240 2.436 . S
O268 Pr241 2.695 . S
O268 C258 1.270 . S
O269 Pr241 2.512 . S
O269 C258 1.248 . S
O270 Pr240 2.438 . S
O270 C259 1.267 . S
O271 Pr241 2.437 . S
O271 C259 1.278 . S
H272 C244 0.929 . S
H273 C245 0.929 . S
H274 C247 0.931 . S
H275 C248 0.930 . S
H276 C253 0.929 . S
H277 C254 0.929 . S
H278 C256 0.931 . S
H279 C257 0.930 . S
Pr280 C282 2.880 1_556 S
Pr280 O300 2.562 1_556 S
Pr280 O301 2.490 . S
Pr280 O302 2.695 . S
Pr280 O303 2.512 . S
Pr280 O305 2.437 1_556 S
Pr280 O308 2.436 . S
Pr280 O310 2.438 . S
Pr281 C291 2.880 . S
Pr281 O302 2.436 . S
Pr281 O304 2.438 1_556 S
Pr281 O306 2.562 . S
Pr281 O307 2.490 . S
Pr281 O308 2.695 . S
Pr281 O309 2.512 . S
Pr281 O311 2.437 . S
C282 Pr280 2.880 1_554 S
C282 C283 1.491 . S
C282 O300 1.254 . S
C282 O301 1.225 1_554 S
C283 C282 1.491 . S
C283 C284 1.392 . S
C283 C288 1.356 . S
C284 C283 1.392 . S
C284 C285 1.368 . S
C284 H312 0.929 . S
C285 C284 1.368 . S
C285 C286 1.386 . S
C285 H313 0.929 1_545 S
C286 C285 1.386 . S
C286 C287 1.373 . S
C287 C286 1.373 . S
C287 C288 1.409 . S
C287 H314 0.931 . S
C288 C283 1.356 . S
C288 C287 1.409 . S
C288 H315 0.930 . S
C289 O302 1.270 . S
C289 O303 1.248 . S
C290 O304 1.267 . S
C290 O305 1.278 . S
C291 Pr281 2.880 . S
C291 C292 1.491 . S
C291 O306 1.254 . S
C291 O307 1.225 . S
C292 C291 1.491 . S
C292 C293 1.392 . S
C292 C297 1.356 . S
C293 C292 1.392 . S
C293 C294 1.368 . S
C293 H316 0.929 . S
C294 C293 1.368 . S
C294 C295 1.386 . S
C294 H317 0.929 . S
C295 C294 1.386 . S
C295 C296 1.373 . S
C296 C295 1.373 . S
C296 C297 1.409 . S
C296 H318 0.931 . S
C297 C292 1.356 . S
C297 C296 1.409 . S
C297 H319 0.930 . S
C298 O308 1.270 . S
C298 O309 1.248 . S
C299 O310 1.267 . S
C299 O311 1.278 . S
O300 Pr280 2.562 1_554 S
O300 C282 1.254 . S
O301 Pr280 2.490 . S
O301 C282 1.225 1_556 S
O302 Pr280 2.695 . S
O302 Pr281 2.436 . S
O302 C289 1.270 . S
O303 Pr280 2.512 . S
O303 C289 1.248 . S
O304 Pr281 2.438 1_554 S
O304 C290 1.267 . S
O305 Pr280 2.437 1_554 S
O305 C290 1.278 . S
O306 Pr281 2.562 . S
O306 C291 1.254 . S
O307 Pr281 2.490 . S
O307 C291 1.225 . S
O308 Pr280 2.436 . S
O308 Pr281 2.695 . S
O308 C298 1.270 . S
O309 Pr281 2.512 . S
O309 C298 1.248 . S
O310 Pr280 2.438 . S
O310 C299 1.267 . S
O311 Pr281 2.437 . S
O311 C299 1.278 . S
H312 C284 0.929 . S
H313 C285 0.929 1_565 S
H314 C287 0.931 . S
H315 C288 0.930 . S
H316 C293 0.929 . S
H317 C294 0.929 . S
H318 C296 0.931 . S
H319 C297 0.930 . S
Pr320 C322 2.880 . S
Pr320 O340 2.562 . S
Pr320 O341 2.490 . S
Pr320 O342 2.695 . S
Pr320 O343 2.512 . S
Pr320 O345 2.437 . S
Pr320 O348 2.436 . S
Pr320 O350 2.438 . S
Pr321 C331 2.880 . S
Pr321 O342 2.436 . S
Pr321 O344 2.438 . S
Pr321 O346 2.562 . S
Pr321 O347 2.490 . S
Pr321 O348 2.695 . S
Pr321 O349 2.512 . S
Pr321 O351 2.437 . S
C322 Pr320 2.880 . S
C322 C323 1.491 . S
C322 O340 1.254 . S
C322 O341 1.225 . S
C323 C322 1.491 . S
C323 C324 1.392 . S
C323 C328 1.356 . S
C324 C323 1.392 . S
C324 C325 1.368 . S
C324 H352 0.929 . S
C325 C324 1.368 . S
C325 C326 1.386 . S
C325 H353 0.929 . S
C326 C325 1.386 . S
C326 C327 1.373 . S
C327 C326 1.373 . S
C327 C328 1.409 . S
C327 H354 0.931 . S
C328 C323 1.356 . S
C328 C327 1.409 . S
C328 H355 0.930 . S
C329 O342 1.270 . S
C329 O343 1.248 . S
C330 O344 1.267 . S
C330 O345 1.278 . S
C331 Pr321 2.880 . S
C331 C332 1.491 . S
C331 O346 1.254 . S
C331 O347 1.225 . S
C332 C331 1.491 . S
C332 C333 1.392 . S
C332 C337 1.356 . S
C333 C332 1.392 . S
C333 C334 1.368 . S
C333 H356 0.929 . S
C334 C333 1.368 . S
C334 C335 1.386 . S
C334 H357 0.929 . S
C335 C334 1.386 . S
C335 C336 1.373 . S
C336 C335 1.373 . S
C336 C337 1.409 . S
C336 H358 0.931 . S
C337 C332 1.356 . S
C337 C336 1.409 . S
C337 H359 0.930 . S
C338 O348 1.270 . S
C338 O349 1.248 . S
C339 O350 1.267 . S
C339 O351 1.278 . S
O340 Pr320 2.562 . S
O340 C322 1.254 . S
O341 Pr320 2.490 . S
O341 C322 1.225 . S
O342 Pr320 2.695 . S
O342 Pr321 2.436 . S
O342 C329 1.270 . S
O343 Pr320 2.512 . S
O343 C329 1.248 . S
O344 Pr321 2.438 . S
O344 C330 1.267 . S
O345 Pr320 2.437 . S
O345 C330 1.278 . S
O346 Pr321 2.562 . S
O346 C331 1.254 . S
O347 Pr321 2.490 . S
O347 C331 1.225 . S
O348 Pr320 2.436 . S
O348 Pr321 2.695 . S
O348 C338 1.270 . S
O349 Pr321 2.512 . S
O349 C338 1.248 . S
O350 Pr320 2.438 . S
O350 C339 1.267 . S
O351 Pr321 2.437 . S
O351 C339 1.278 . S
H352 C324 0.929 . S
H353 C325 0.929 . S
H354 C327 0.931 . S
H355 C328 0.930 . S
H356 C333 0.929 . S
H357 C334 0.929 . S
H358 C336 0.931 . S
H359 C337 0.930 . S
Pr360 C362 2.880 . S
Pr360 O380 2.562 . S
Pr360 O381 2.490 . S
Pr360 O382 2.695 . S
Pr360 O383 2.512 . S
Pr360 O385 2.437 . S
Pr360 O388 2.436 . S
Pr360 O390 2.438 . S
Pr361 C371 2.880 . S
Pr361 O382 2.436 . S
Pr361 O384 2.438 . S
Pr361 O386 2.562 . S
Pr361 O387 2.490 . S
Pr361 O388 2.695 . S
Pr361 O389 2.512 . S
Pr361 O391 2.437 . S
C362 Pr360 2.880 . S
C362 C363 1.491 . S
C362 O380 1.254 . S
C362 O381 1.225 . S
C363 C362 1.491 . S
C363 C364 1.392 . S
C363 C368 1.356 . S
C364 C363 1.392 . S
C364 C365 1.368 . S
C364 H392 0.929 . S
C365 C364 1.368 . S
C365 C366 1.386 . S
C365 H393 0.929 . S
C366 C365 1.386 . S
C366 C367 1.373 . S
C367 C366 1.373 . S
C367 C368 1.409 . S
C367 H394 0.931 . S
C368 C363 1.356 . S
C368 C367 1.409 . S
C368 H395 0.930 . S
C369 O382 1.270 . S
C369 O383 1.248 . S
C370 O384 1.267 . S
C370 O385 1.278 . S
C371 Pr361 2.880 . S
C371 C372 1.491 . S
C371 O386 1.254 . S
C371 O387 1.225 . S
C372 C371 1.491 . S
C372 C373 1.392 . S
C372 C377 1.356 . S
C373 C372 1.392 . S
C373 C374 1.368 . S
C373 H396 0.929 . S
C374 C373 1.368 . S
C374 C375 1.386 . S
C374 H397 0.929 1_545 S
C375 C374 1.386 . S
C375 C376 1.373 . S
C376 C375 1.373 . S
C376 C377 1.409 . S
C376 H398 0.931 . S
C377 C372 1.356 . S
C377 C376 1.409 . S
C377 H399 0.930 . S
C378 O388 1.270 . S
C378 O389 1.248 . S
C379 O390 1.267 . S
C379 O391 1.278 . S
O380 Pr360 2.562 . S
O380 C362 1.254 . S
O381 Pr360 2.490 . S
O381 C362 1.225 . S
O382 Pr360 2.695 . S
O382 Pr361 2.436 . S
O382 C369 1.270 . S
O383 Pr360 2.512 . S
O383 C369 1.248 . S
O384 Pr361 2.438 . S
O384 C370 1.267 . S
O385 Pr360 2.437 . S
O385 C370 1.278 . S
O386 Pr361 2.562 . S
O386 C371 1.254 . S
O387 Pr361 2.490 . S
O387 C371 1.225 . S
O388 Pr360 2.436 . S
O388 Pr361 2.695 . S
O388 C378 1.270 . S
O389 Pr361 2.512 . S
O389 C378 1.248 . S
O390 Pr360 2.438 . S
O390 C379 1.267 . S
O391 Pr361 2.437 . S
O391 C379 1.278 . S
H392 C364 0.929 . S
H393 C365 0.929 . S
H394 C367 0.931 . S
H395 C368 0.930 . S
H396 C373 0.929 . S
H397 C374 0.929 1_565 S
H398 C376 0.931 . S
H399 C377 0.930 . S
Pr400 C402 2.880 . S
Pr400 O420 2.562 . S
Pr400 O421 2.490 . S
Pr400 O422 2.695 . S
Pr400 O423 2.512 . S
Pr400 O425 2.437 . S
Pr400 O428 2.436 . S
Pr400 O430 2.438 . S
Pr401 C411 2.880 . S
Pr401 O422 2.436 . S
Pr401 O424 2.438 . S
Pr401 O426 2.562 . S
Pr401 O427 2.490 . S
Pr401 O428 2.695 . S
Pr401 O429 2.512 . S
Pr401 O431 2.437 . S
C402 Pr400 2.880 . S
C402 C403 1.491 . S
C402 O420 1.254 . S
C402 O421 1.225 . S
C403 C402 1.491 . S
C403 C404 1.392 . S
C403 C408 1.356 . S
C404 C403 1.392 . S
C404 C405 1.368 . S
C404 H432 0.929 . S
C405 C404 1.368 . S
C405 C406 1.386 . S
C405 H433 0.929 . S
C406 C405 1.386 . S
C406 C407 1.373 . S
C407 C406 1.373 . S
C407 C408 1.409 . S
C407 H434 0.931 . S
C408 C403 1.356 . S
C408 C407 1.409 . S
C408 H435 0.930 . S
C409 O422 1.270 . S
C409 O423 1.248 . S
C410 O424 1.267 . S
C410 O425 1.278 . S
C411 Pr401 2.880 . S
C411 C412 1.491 . S
C411 O426 1.254 . S
C411 O427 1.225 . S
C412 C411 1.491 . S
C412 C413 1.392 . S
C412 C417 1.356 . S
C413 C412 1.392 . S
C413 C414 1.368 . S
C413 H436 0.929 . S
C414 C413 1.368 . S
C414 C415 1.386 . S
C414 H437 0.929 . S
C415 C414 1.386 . S
C415 C416 1.373 . S
C416 C415 1.373 . S
C416 C417 1.409 . S
C416 H438 0.931 . S
C417 C412 1.356 . S
C417 C416 1.409 . S
C417 H439 0.930 . S
C418 O428 1.270 . S
C418 O429 1.248 . S
C419 O430 1.267 . S
C419 O431 1.278 . S
O420 Pr400 2.562 . S
O420 C402 1.254 . S
O421 Pr400 2.490 . S
O421 C402 1.225 . S
O422 Pr400 2.695 . S
O422 Pr401 2.436 . S
O422 C409 1.270 . S
O423 Pr400 2.512 . S
O423 C409 1.248 . S
O424 Pr401 2.438 . S
O424 C410 1.267 . S
O425 Pr400 2.437 . S
O425 C410 1.278 . S
O426 Pr401 2.562 . S
O426 C411 1.254 . S
O427 Pr401 2.490 . S
O427 C411 1.225 . S
O428 Pr400 2.436 . S
O428 Pr401 2.695 . S
O428 C418 1.270 . S
O429 Pr401 2.512 . S
O429 C418 1.248 . S
O430 Pr400 2.438 . S
O430 C419 1.267 . S
O431 Pr401 2.437 . S
O431 C419 1.278 . S
H432 C404 0.929 . S
H433 C405 0.929 . S
H434 C407 0.931 . S
H435 C408 0.930 . S
H436 C413 0.929 . S
H437 C414 0.929 . S
H438 C416 0.931 . S
H439 C417 0.930 . S
Pr440 C442 2.880 . S
Pr440 O460 2.562 . S
Pr440 O461 2.490 . S
Pr440 O462 2.695 . S
Pr440 O463 2.512 . S
Pr440 O465 2.437 . S
Pr440 O468 2.436 . S
Pr440 O470 2.438 1_556 S
Pr441 C451 2.880 1_556 S
Pr441 O462 2.436 . S
Pr441 O464 2.438 . S
Pr441 O466 2.562 1_556 S
Pr441 O467 2.490 . S
Pr441 O468 2.695 . S
Pr441 O469 2.512 . S
Pr441 O471 2.437 1_556 S
C442 Pr440 2.880 . S
C442 C443 1.491 . S
C442 O460 1.254 . S
C442 O461 1.225 . S
C443 C442 1.491 . S
C443 C444 1.392 . S
C443 C448 1.356 . S
C444 C443 1.392 . S
C444 C445 1.368 . S
C444 H472 0.929 . S
C445 C444 1.368 . S
C445 C446 1.386 . S
C445 H473 0.929 . S
C446 C445 1.386 . S
C446 C447 1.373 . S
C447 C446 1.373 . S
C447 C448 1.409 . S
C447 H474 0.931 . S
C448 C443 1.356 . S
C448 C447 1.409 . S
C448 H475 0.930 . S
C449 O462 1.270 . S
C449 O463 1.248 . S
C450 O464 1.267 . S
C450 O465 1.278 . S
C451 Pr441 2.880 1_554 S
C451 C452 1.491 . S
C451 O466 1.254 . S
C451 O467 1.225 1_554 S
C452 C451 1.491 . S
C452 C453 1.392 . S
C452 C457 1.356 . S
C453 C452 1.392 . S
C453 C454 1.368 . S
C453 H476 0.929 . S
C454 C453 1.368 . S
C454 C455 1.386 . S
C454 H477 0.929 1_565 S
C455 C454 1.386 . S
C455 C456 1.373 . S
C456 C455 1.373 . S
C456 C457 1.409 . S
C456 H478 0.931 . S
C457 C452 1.356 . S
C457 C456 1.409 . S
C457 H479 0.930 . S
C458 O468 1.270 . S
C458 O469 1.248 . S
C459 O470 1.267 . S
C459 O471 1.278 . S
O460 Pr440 2.562 . S
O460 C442 1.254 . S
O461 Pr440 2.490 . S
O461 C442 1.225 . S
O462 Pr440 2.695 . S
O462 Pr441 2.436 . S
O462 C449 1.270 . S
O463 Pr440 2.512 . S
O463 C449 1.248 . S
O464 Pr441 2.438 . S
O464 C450 1.267 . S
O465 Pr440 2.437 . S
O465 C450 1.278 . S
O466 Pr441 2.562 1_554 S
O466 C451 1.254 . S
O467 Pr441 2.490 . S
O467 C451 1.225 1_556 S
O468 Pr440 2.436 . S
O468 Pr441 2.695 . S
O468 C458 1.270 . S
O469 Pr441 2.512 . S
O469 C458 1.248 . S
O470 Pr440 2.438 1_554 S
O470 C459 1.267 . S
O471 Pr441 2.437 1_554 S
O471 C459 1.278 . S
H472 C444 0.929 . S
H473 C445 0.929 . S
H474 C447 0.931 . S
H475 C448 0.930 . S
H476 C453 0.929 . S
H477 C454 0.929 1_545 S
H478 C456 0.931 . S
H479 C457 0.930 . S
Pr480 C482 2.880 . S
Pr480 O500 2.562 . S
Pr480 O501 2.490 . S
Pr480 O502 2.695 . S
Pr480 O503 2.512 . S
Pr480 O505 2.437 . S
Pr480 O508 2.436 . S
Pr480 O510 2.438 . S
Pr481 C491 2.880 . S
Pr481 O502 2.436 . S
Pr481 O504 2.438 . S
Pr481 O506 2.562 . S
Pr481 O507 2.490 . S
Pr481 O508 2.695 . S
Pr481 O509 2.512 . S
Pr481 O511 2.437 . S
C482 Pr480 2.880 . S
C482 C483 1.491 . S
C482 O500 1.254 . S
C482 O501 1.225 . S
C483 C482 1.491 . S
C483 C484 1.392 . S
C483 C488 1.356 . S
C484 C483 1.392 . S
C484 C485 1.368 . S
C484 H512 0.929 . S
C485 C484 1.368 . S
C485 C486 1.386 . S
C485 H513 0.929 . S
C486 C485 1.386 . S
C486 C487 1.373 . S
C487 C486 1.373 . S
C487 C488 1.409 . S
C487 H514 0.931 . S
C488 C483 1.356 . S
C488 C487 1.409 . S
C488 H515 0.930 . S
C489 O502 1.270 . S
C489 O503 1.248 . S
C490 O504 1.267 . S
C490 O505 1.278 . S
C491 Pr481 2.880 . S
C491 C492 1.491 . S
C491 O506 1.254 . S
C491 O507 1.225 . S
C492 C491 1.491 . S
C492 C493 1.392 . S
C492 C497 1.356 . S
C493 C492 1.392 . S
C493 C494 1.368 . S
C493 H516 0.929 . S
C494 C493 1.368 . S
C494 C495 1.386 . S
C494 H517 0.929 . S
C495 C494 1.386 . S
C495 C496 1.373 . S
C496 C495 1.373 . S
C496 C497 1.409 . S
C496 H518 0.931 . S
C497 C492 1.356 . S
C497 C496 1.409 . S
C497 H519 0.930 . S
C498 O508 1.270 . S
C498 O509 1.248 . S
C499 O510 1.267 . S
C499 O511 1.278 . S
O500 Pr480 2.562 . S
O500 C482 1.254 . S
O501 Pr480 2.490 . S
O501 C482 1.225 . S
O502 Pr480 2.695 . S
O502 Pr481 2.436 . S
O502 C489 1.270 . S
O503 Pr480 2.512 . S
O503 C489 1.248 . S
O504 Pr481 2.438 . S
O504 C490 1.267 . S
O505 Pr480 2.437 . S
O505 C490 1.278 . S
O506 Pr481 2.562 . S
O506 C491 1.254 . S
O507 Pr481 2.490 . S
O507 C491 1.225 . S
O508 Pr480 2.436 . S
O508 Pr481 2.695 . S
O508 C498 1.270 . S
O509 Pr481 2.512 . S
O509 C498 1.248 . S
O510 Pr480 2.438 . S
O510 C499 1.267 . S
O511 Pr481 2.437 . S
O511 C499 1.278 . S
H512 C484 0.929 . S
H513 C485 0.929 . S
H514 C487 0.931 . S
H515 C488 0.930 . S
H516 C493 0.929 . S
H517 C494 0.929 . S
H518 C496 0.931 . S
H519 C497 0.930 . S
Pr520 C522 2.880 . S
Pr520 O540 2.562 . S
Pr520 O541 2.490 . S
Pr520 O542 2.695 . S
Pr520 O543 2.512 . S
Pr520 O545 2.437 . S
Pr520 O548 2.436 . S
Pr520 O550 2.438 . S
Pr521 C531 2.880 . S
Pr521 O542 2.436 . S
Pr521 O544 2.438 . S
Pr521 O546 2.562 . S
Pr521 O547 2.490 . S
Pr521 O548 2.695 . S
Pr521 O549 2.512 . S
Pr521 O551 2.437 . S
C522 Pr520 2.880 . S
C522 C523 1.491 . S
C522 O540 1.254 . S
C522 O541 1.225 . S
C523 C522 1.491 . S
C523 C524 1.392 . S
C523 C528 1.356 . S
C524 C523 1.392 . S
C524 C525 1.368 . S
C524 H552 0.929 . S
C525 C524 1.368 . S
C525 C526 1.386 . S
C525 H553 0.929 . S
C526 C525 1.386 . S
C526 C527 1.373 . S
C527 C526 1.373 . S
C527 C528 1.409 . S
C527 H554 0.931 . S
C528 C523 1.356 . S
C528 C527 1.409 . S
C528 H555 0.930 . S
C529 O542 1.270 . S
C529 O543 1.248 . S
C530 O544 1.267 . S
C530 O545 1.278 . S
C531 Pr521 2.880 . S
C531 C532 1.491 . S
C531 O546 1.254 . S
C531 O547 1.225 . S
C532 C531 1.491 . S
C532 C533 1.392 . S
C532 C537 1.356 . S
C533 C532 1.392 . S
C533 C534 1.368 . S
C533 H556 0.929 . S
C534 C533 1.368 . S
C534 C535 1.386 . S
C534 H557 0.929 1_545 S
C535 C534 1.386 . S
C535 C536 1.373 . S
C536 C535 1.373 . S
C536 C537 1.409 . S
C536 H558 0.931 . S
C537 C532 1.356 . S
C537 C536 1.409 . S
C537 H559 0.930 . S
C538 O548 1.270 . S
C538 O549 1.248 . S
C539 O550 1.267 . S
C539 O551 1.278 . S
O540 Pr520 2.562 . S
O540 C522 1.254 . S
O541 Pr520 2.490 . S
O541 C522 1.225 . S
O542 Pr520 2.695 . S
O542 Pr521 2.436 . S
O542 C529 1.270 . S
O543 Pr520 2.512 . S
O543 C529 1.248 . S
O544 Pr521 2.438 . S
O544 C530 1.267 . S
O545 Pr520 2.437 . S
O545 C530 1.278 . S
O546 Pr521 2.562 . S
O546 C531 1.254 . S
O547 Pr521 2.490 . S
O547 C531 1.225 . S
O548 Pr520 2.436 . S
O548 Pr521 2.695 . S
O548 C538 1.270 . S
O549 Pr521 2.512 . S
O549 C538 1.248 . S
O550 Pr520 2.438 . S
O550 C539 1.267 . S
O551 Pr521 2.437 . S
O551 C539 1.278 . S
H552 C524 0.929 . S
H553 C525 0.929 . S
H554 C527 0.931 . S
H555 C528 0.930 . S
H556 C533 0.929 . S
H557 C534 0.929 1_565 S
H558 C536 0.931 . S
H559 C537 0.930 . S
Pr560 C562 2.880 . S
Pr560 O580 2.562 . S
Pr560 O581 2.490 . S
Pr560 O582 2.695 . S
Pr560 O583 2.512 . S
Pr560 O585 2.437 . S
Pr560 O588 2.436 . S
Pr560 O590 2.438 . S
Pr561 C571 2.880 . S
Pr561 O582 2.436 . S
Pr561 O584 2.438 . S
Pr561 O586 2.562 . S
Pr561 O587 2.490 . S
Pr561 O588 2.695 . S
Pr561 O589 2.512 . S
Pr561 O591 2.437 . S
C562 Pr560 2.880 . S
C562 C563 1.491 . S
C562 O580 1.254 . S
C562 O581 1.225 . S
C563 C562 1.491 . S
C563 C564 1.392 . S
C563 C568 1.356 . S
C564 C563 1.392 . S
C564 C565 1.368 . S
C564 H592 0.929 . S
C565 C564 1.368 . S
C565 C566 1.386 . S
C565 H593 0.929 . S
C566 C565 1.386 . S
C566 C567 1.373 . S
C567 C566 1.373 . S
C567 C568 1.409 . S
C567 H594 0.931 . S
C568 C563 1.356 . S
C568 C567 1.409 . S
C568 H595 0.930 . S
C569 O582 1.270 . S
C569 O583 1.248 . S
C570 O584 1.267 . S
C570 O585 1.278 . S
C571 Pr561 2.880 . S
C571 C572 1.491 . S
C571 O586 1.254 . S
C571 O587 1.225 . S
C572 C571 1.491 . S
C572 C573 1.392 . S
C572 C577 1.356 . S
C573 C572 1.392 . S
C573 C574 1.368 . S
C573 H596 0.929 . S
C574 C573 1.368 . S
C574 C575 1.386 . S
C574 H597 0.929 . S
C575 C574 1.386 . S
C575 C576 1.373 . S
C576 C575 1.373 . S
C576 C577 1.409 . S
C576 H598 0.931 . S
C577 C572 1.356 . S
C577 C576 1.409 . S
C577 H599 0.930 . S
C578 O588 1.270 . S
C578 O589 1.248 . S
C579 O590 1.267 . S
C579 O591 1.278 . S
O580 Pr560 2.562 . S
O580 C562 1.254 . S
O581 Pr560 2.490 . S
O581 C562 1.225 . S
O582 Pr560 2.695 . S
O582 Pr561 2.436 . S
O582 C569 1.270 . S
O583 Pr560 2.512 . S
O583 C569 1.248 . S
O584 Pr561 2.438 . S
O584 C570 1.267 . S
O585 Pr560 2.437 . S
O585 C570 1.278 . S
O586 Pr561 2.562 . S
O586 C571 1.254 . S
O587 Pr561 2.490 . S
O587 C571 1.225 . S
O588 Pr560 2.436 . S
O588 Pr561 2.695 . S
O588 C578 1.270 . S
O589 Pr561 2.512 . S
O589 C578 1.248 . S
O590 Pr560 2.438 . S
O590 C579 1.267 . S
O591 Pr561 2.437 . S
O591 C579 1.278 . S
H592 C564 0.929 . S
H593 C565 0.929 . S
H594 C567 0.931 . S
H595 C568 0.930 . S
H596 C573 0.929 . S
H597 C574 0.929 . S
H598 C576 0.931 . S
H599 C577 0.930 . S
Pr600 C602 2.880 . S
Pr600 O620 2.562 . S
Pr600 O621 2.490 . S
Pr600 O622 2.695 . S
Pr600 O623 2.512 . S
Pr600 O625 2.437 . S
Pr600 O628 2.436 . S
Pr600 O630 2.438 1_554 S
Pr601 C611 2.880 1_554 S
Pr601 O622 2.436 . S
Pr601 O624 2.438 . S
Pr601 O626 2.562 1_554 S
Pr601 O627 2.490 . S
Pr601 O628 2.695 . S
Pr601 O629 2.512 . S
Pr601 O631 2.437 1_554 S
C602 Pr600 2.880 . S
C602 C603 1.491 . S
C602 O620 1.254 . S
C602 O621 1.225 . S
C603 C602 1.491 . S
C603 C604 1.392 . S
C603 C608 1.356 . S
C604 C603 1.392 . S
C604 C605 1.368 . S
C604 H632 0.929 . S
C605 C604 1.368 . S
C605 C606 1.386 . S
C605 H633 0.929 . S
C606 C605 1.386 . S
C606 C607 1.373 . S
C607 C606 1.373 . S
C607 C608 1.409 . S
C607 H634 0.931 . S
C608 C603 1.356 . S
C608 C607 1.409 . S
C608 H635 0.930 . S
C609 O622 1.270 . S
C609 O623 1.248 . S
C610 O624 1.267 . S
C610 O625 1.278 . S
C611 Pr601 2.880 1_556 S
C611 C612 1.491 . S
C611 O626 1.254 . S
C611 O627 1.225 1_556 S
C612 C611 1.491 . S
C612 C613 1.392 . S
C612 C617 1.356 . S
C613 C612 1.392 . S
C613 C614 1.368 . S
C613 H636 0.929 . S
C614 C613 1.368 . S
C614 C615 1.386 . S
C614 H637 0.929 1_565 S
C615 C614 1.386 . S
C615 C616 1.373 . S
C616 C615 1.373 . S
C616 C617 1.409 . S
C616 H638 0.931 . S
C617 C612 1.356 . S
C617 C616 1.409 . S
C617 H639 0.930 . S
C618 O628 1.270 . S
C618 O629 1.248 . S
C619 O630 1.267 . S
C619 O631 1.278 . S
O620 Pr600 2.562 . S
O620 C602 1.254 . S
O621 Pr600 2.490 . S
O621 C602 1.225 . S
O622 Pr600 2.695 . S
O622 Pr601 2.436 . S
O622 C609 1.270 . S
O623 Pr600 2.512 . S
O623 C609 1.248 . S
O624 Pr601 2.438 . S
O624 C610 1.267 . S
O625 Pr600 2.437 . S
O625 C610 1.278 . S
O626 Pr601 2.562 1_556 S
O626 C611 1.254 . S
O627 Pr601 2.490 . S
O627 C611 1.225 1_554 S
O628 Pr600 2.436 . S
O628 Pr601 2.695 . S
O628 C618 1.270 . S
O629 Pr601 2.512 . S
O629 C618 1.248 . S
O630 Pr600 2.438 1_556 S
O630 C619 1.267 . S
O631 Pr601 2.437 1_556 S
O631 C619 1.278 . S
H632 C604 0.929 . S
H633 C605 0.929 . S
H634 C607 0.931 . S
H635 C608 0.930 . S
H636 C613 0.929 . S
H637 C614 0.929 1_545 S
H638 C616 0.931 . S
H639 C617 0.930 . S
Pr640 C642 2.880 . S
Pr640 O660 2.562 . S
Pr640 O661 2.490 . S
Pr640 O662 2.695 . S
Pr640 O663 2.512 . S
Pr640 O665 2.437 . S
Pr640 O668 2.436 . S
Pr640 O670 2.438 . S
Pr641 C651 2.880 . S
Pr641 O662 2.436 . S
Pr641 O664 2.438 . S
Pr641 O666 2.562 . S
Pr641 O667 2.490 . S
Pr641 O668 2.695 . S
Pr641 O669 2.512 . S
Pr641 O671 2.437 . S
C642 Pr640 2.880 . S
C642 C643 1.491 . S
C642 O660 1.254 . S
C642 O661 1.225 . S
C643 C642 1.491 . S
C643 C644 1.392 . S
C643 C648 1.356 . S
C644 C643 1.392 . S
C644 C645 1.368 . S
C644 H672 0.929 . S
C645 C644 1.368 . S
C645 C646 1.386 . S
C645 H673 0.929 . S
C646 C645 1.386 . S
C646 C647 1.373 . S
C647 C646 1.373 . S
C647 C648 1.409 . S
C647 H674 0.931 . S
C648 C643 1.356 . S
C648 C647 1.409 . S
C648 H675 0.930 . S
C649 O662 1.270 . S
C649 O663 1.248 . S
C650 O664 1.267 . S
C650 O665 1.278 . S
C651 Pr641 2.880 . S
C651 C652 1.491 . S
C651 O666 1.254 . S
C651 O667 1.225 . S
C652 C651 1.491 . S
C652 C653 1.392 . S
C652 C657 1.356 . S
C653 C652 1.392 . S
C653 C654 1.368 . S
C653 H676 0.929 . S
C654 C653 1.368 . S
C654 C655 1.386 . S
C654 H677 0.929 . S
C655 C654 1.386 . S
C655 C656 1.373 . S
C656 C655 1.373 . S
C656 C657 1.409 . S
C656 H678 0.931 . S
C657 C652 1.356 . S
C657 C656 1.409 . S
C657 H679 0.930 . S
C658 O668 1.270 . S
C658 O669 1.248 . S
C659 O670 1.267 . S
C659 O671 1.278 . S
O660 Pr640 2.562 . S
O660 C642 1.254 . S
O661 Pr640 2.490 . S
O661 C642 1.225 . S
O662 Pr640 2.695 . S
O662 Pr641 2.436 . S
O662 C649 1.270 . S
O663 Pr640 2.512 . S
O663 C649 1.248 . S
O664 Pr641 2.438 . S
O664 C650 1.267 . S
O665 Pr640 2.437 . S
O665 C650 1.278 . S
O666 Pr641 2.562 . S
O666 C651 1.254 . S
O667 Pr641 2.490 . S
O667 C651 1.225 . S
O668 Pr640 2.436 . S
O668 Pr641 2.695 . S
O668 C658 1.270 . S
O669 Pr641 2.512 . S
O669 C658 1.248 . S
O670 Pr640 2.438 . S
O670 C659 1.267 . S
O671 Pr641 2.437 . S
O671 C659 1.278 . S
H672 C644 0.929 . S
H673 C645 0.929 . S
H674 C647 0.931 . S
H675 C648 0.930 . S
H676 C653 0.929 . S
H677 C654 0.929 . S
H678 C656 0.931 . S
H679 C657 0.930 . S
Pr680 C682 2.880 1_554 S
Pr680 O700 2.562 1_554 S
Pr680 O701 2.490 . S
Pr680 O702 2.695 . S
Pr680 O703 2.512 . S
Pr680 O705 2.437 1_554 S
Pr680 O708 2.436 . S
Pr680 O710 2.438 . S
Pr681 C691 2.880 . S
Pr681 O702 2.436 . S
Pr681 O704 2.438 1_554 S
Pr681 O706 2.562 . S
Pr681 O707 2.490 . S
Pr681 O708 2.695 . S
Pr681 O709 2.512 . S
Pr681 O711 2.437 . S
C682 Pr680 2.880 1_556 S
C682 C683 1.491 . S
C682 O700 1.254 . S
C682 O701 1.225 1_556 S
C683 C682 1.491 . S
C683 C684 1.392 . S
C683 C688 1.356 . S
C684 C683 1.392 . S
C684 C685 1.368 . S
C684 H712 0.929 . S
C685 C684 1.368 . S
C685 C686 1.386 . S
C685 H713 0.929 . S
C686 C685 1.386 . S
C686 C687 1.373 . S
C687 C686 1.373 . S
C687 C688 1.409 . S
C687 H714 0.931 . S
C688 C683 1.356 . S
C688 C687 1.409 . S
C688 H715 0.930 . S
C689 O702 1.270 . S
C689 O703 1.248 . S
C690 O704 1.267 . S
C690 O705 1.278 . S
C691 Pr681 2.880 . S
C691 C692 1.491 . S
C691 O706 1.254 . S
C691 O707 1.225 . S
C692 C691 1.491 . S
C692 C693 1.392 . S
C692 C697 1.356 . S
C693 C692 1.392 . S
C693 C694 1.368 . S
C693 H716 0.929 . S
C694 C693 1.368 . S
C694 C695 1.386 . S
C694 H717 0.929 . S
C695 C694 1.386 . S
C695 C696 1.373 . S
C696 C695 1.373 . S
C696 C697 1.409 . S
C696 H718 0.931 . S
C697 C692 1.356 . S
C697 C696 1.409 . S
C697 H719 0.930 . S
C698 O708 1.270 . S
C698 O709 1.248 . S
C699 O710 1.267 . S
C699 O711 1.278 . S
O700 Pr680 2.562 1_556 S
O700 C682 1.254 . S
O701 Pr680 2.490 . S
O701 C682 1.225 1_554 S
O702 Pr680 2.695 . S
O702 Pr681 2.436 . S
O702 C689 1.270 . S
O703 Pr680 2.512 . S
O703 C689 1.248 . S
O704 Pr681 2.438 1_556 S
O704 C690 1.267 . S
O705 Pr680 2.437 1_556 S
O705 C690 1.278 . S
O706 Pr681 2.562 . S
O706 C691 1.254 . S
O707 Pr681 2.490 . S
O707 C691 1.225 . S
O708 Pr680 2.436 . S
O708 Pr681 2.695 . S
O708 C698 1.270 . S
O709 Pr681 2.512 . S
O709 C698 1.248 . S
O710 Pr680 2.438 . S
O710 C699 1.267 . S
O711 Pr681 2.437 . S
O711 C699 1.278 . S
H712 C684 0.929 . S
H713 C685 0.929 . S
H714 C687 0.931 . S
H715 C688 0.930 . S
H716 C693 0.929 . S
H717 C694 0.929 . S
H718 C696 0.931 . S
H719 C697 0.930 . S
Pr720 C722 2.880 . S
Pr720 O740 2.562 . S
Pr720 O741 2.490 . S
Pr720 O742 2.695 . S
Pr720 O743 2.512 . S
Pr720 O745 2.437 . S
Pr720 O748 2.436 . S
Pr720 O750 2.438 . S
Pr721 C731 2.880 . S
Pr721 O742 2.436 . S
Pr721 O744 2.438 . S
Pr721 O746 2.562 . S
Pr721 O747 2.490 . S
Pr721 O748 2.695 . S
Pr721 O749 2.512 . S
Pr721 O751 2.437 . S
C722 Pr720 2.880 . S
C722 C723 1.491 . S
C722 O740 1.254 . S
C722 O741 1.225 . S
C723 C722 1.491 . S
C723 C724 1.392 . S
C723 C728 1.356 . S
C724 C723 1.392 . S
C724 C725 1.368 . S
C724 H752 0.929 . S
C725 C724 1.368 . S
C725 C726 1.386 . S
C725 H753 0.929 . S
C726 C725 1.386 . S
C726 C727 1.373 . S
C727 C726 1.373 . S
C727 C728 1.409 . S
C727 H754 0.931 . S
C728 C723 1.356 . S
C728 C727 1.409 . S
C728 H755 0.930 . S
C729 O742 1.270 . S
C729 O743 1.248 . S
C730 O744 1.267 . S
C730 O745 1.278 . S
C731 Pr721 2.880 . S
C731 C732 1.491 . S
C731 O746 1.254 . S
C731 O747 1.225 . S
C732 C731 1.491 . S
C732 C733 1.392 . S
C732 C737 1.356 . S
C733 C732 1.392 . S
C733 C734 1.368 . S
C733 H756 0.929 . S
C734 C733 1.368 . S
C734 C735 1.386 . S
C734 H757 0.929 . S
C735 C734 1.386 . S
C735 C736 1.373 . S
C736 C735 1.373 . S
C736 C737 1.409 . S
C736 H758 0.931 . S
C737 C732 1.356 . S
C737 C736 1.409 . S
C737 H759 0.930 . S
C738 O748 1.270 . S
C738 O749 1.248 . S
C739 O750 1.267 . S
C739 O751 1.278 . S
O740 Pr720 2.562 . S
O740 C722 1.254 . S
O741 Pr720 2.490 . S
O741 C722 1.225 . S
O742 Pr720 2.695 . S
O742 Pr721 2.436 . S
O742 C729 1.270 . S
O743 Pr720 2.512 . S
O743 C729 1.248 . S
O744 Pr721 2.438 . S
O744 C730 1.267 . S
O745 Pr720 2.437 . S
O745 C730 1.278 . S
O746 Pr721 2.562 . S
O746 C731 1.254 . S
O747 Pr721 2.490 . S
O747 C731 1.225 . S
O748 Pr720 2.436 . S
O748 Pr721 2.695 . S
O748 C738 1.270 . S
O749 Pr721 2.512 . S
O749 C738 1.248 . S
O750 Pr720 2.438 . S
O750 C739 1.267 . S
O751 Pr721 2.437 . S
O751 C739 1.278 . S
H752 C724 0.929 . S
H753 C725 0.929 . S
H754 C727 0.931 . S
H755 C728 0.930 . S
H756 C733 0.929 . S
H757 C734 0.929 . S
H758 C736 0.931 . S
H759 C737 0.930 . S
Pr760 C762 2.880 . S
Pr760 O780 2.562 . S
Pr760 O781 2.490 . S
Pr760 O782 2.695 . S
Pr760 O783 2.512 . S
Pr760 O785 2.437 . S
Pr760 O788 2.436 . S
Pr760 O790 2.438 . S
Pr761 C771 2.880 . S
Pr761 O782 2.436 . S
Pr761 O784 2.438 . S
Pr761 O786 2.562 . S
Pr761 O787 2.490 . S
Pr761 O788 2.695 . S
Pr761 O789 2.512 . S
Pr761 O791 2.437 . S
C762 Pr760 2.880 . S
C762 C763 1.491 . S
C762 O780 1.254 . S
C762 O781 1.225 . S
C763 C762 1.491 . S
C763 C764 1.392 . S
C763 C768 1.356 . S
C764 C763 1.392 . S
C764 C765 1.368 . S
C764 H792 0.929 . S
C765 C764 1.368 . S
C765 C766 1.386 . S
C765 H793 0.929 . S
C766 C765 1.386 . S
C766 C767 1.373 . S
C767 C766 1.373 . S
C767 C768 1.409 . S
C767 H794 0.931 . S
C768 C763 1.356 . S
C768 C767 1.409 . S
C768 H795 0.930 . S
C769 O782 1.270 . S
C769 O783 1.248 . S
C770 O784 1.267 . S
C770 O785 1.278 . S
C771 Pr761 2.880 . S
C771 C772 1.491 . S
C771 O786 1.254 . S
C771 O787 1.225 . S
C772 C771 1.491 . S
C772 C773 1.392 . S
C772 C777 1.356 . S
C773 C772 1.392 . S
C773 C774 1.368 . S
C773 H796 0.929 . S
C774 C773 1.368 . S
C774 C775 1.386 . S
C774 H797 0.929 . S
C775 C774 1.386 . S
C775 C776 1.373 . S
C776 C775 1.373 . S
C776 C777 1.409 . S
C776 H798 0.931 . S
C777 C772 1.356 . S
C777 C776 1.409 . S
C777 H799 0.930 . S
C778 O788 1.270 . S
C778 O789 1.248 . S
C779 O790 1.267 . S
C779 O791 1.278 . S
O780 Pr760 2.562 . S
O780 C762 1.254 . S
O781 Pr760 2.490 . S
O781 C762 1.225 . S
O782 Pr760 2.695 . S
O782 Pr761 2.436 . S
O782 C769 1.270 . S
O783 Pr760 2.512 . S
O783 C769 1.248 . S
O784 Pr761 2.438 . S
O784 C770 1.267 . S
O785 Pr760 2.437 . S
O785 C770 1.278 . S
O786 Pr761 2.562 . S
O786 C771 1.254 . S
O787 Pr761 2.490 . S
O787 C771 1.225 . S
O788 Pr760 2.436 . S
O788 Pr761 2.695 . S
O788 C778 1.270 . S
O789 Pr761 2.512 . S
O789 C778 1.248 . S
O790 Pr760 2.438 . S
O790 C779 1.267 . S
O791 Pr761 2.437 . S
O791 C779 1.278 . S
H792 C764 0.929 . S
H793 C765 0.929 . S
H794 C767 0.931 . S
H795 C768 0.930 . S
H796 C773 0.929 . S
H797 C774 0.929 . S
H798 C776 0.931 . S
H799 C777 0.930 . S
Pr800 C802 2.880 . S
Pr800 O820 2.562 . S
Pr800 O821 2.490 . S
Pr800 O822 2.695 . S
Pr800 O823 2.512 . S
Pr800 O825 2.437 . S
Pr800 O828 2.436 . S
Pr800 O830 2.438 . S
Pr801 C811 2.880 . S
Pr801 O822 2.436 . S
Pr801 O824 2.438 . S
Pr801 O826 2.562 . S
Pr801 O827 2.490 . S
Pr801 O828 2.695 . S
Pr801 O829 2.512 . S
Pr801 O831 2.437 . S
C802 Pr800 2.880 . S
C802 C803 1.491 . S
C802 O820 1.254 . S
C802 O821 1.225 . S
C803 C802 1.491 . S
C803 C804 1.392 . S
C803 C808 1.356 . S
C804 C803 1.392 . S
C804 C805 1.368 . S
C804 H832 0.929 . S
C805 C804 1.368 . S
C805 C806 1.386 . S
C805 H833 0.929 . S
C806 C805 1.386 . S
C806 C807 1.373 . S
C807 C806 1.373 . S
C807 C808 1.409 . S
C807 H834 0.931 . S
C808 C803 1.356 . S
C808 C807 1.409 . S
C808 H835 0.930 . S
C809 O822 1.270 . S
C809 O823 1.248 . S
C810 O824 1.267 . S
C810 O825 1.278 . S
C811 Pr801 2.880 . S
C811 C812 1.491 . S
C811 O826 1.254 . S
C811 O827 1.225 . S
C812 C811 1.491 . S
C812 C813 1.392 . S
C812 C817 1.356 . S
C813 C812 1.392 . S
C813 C814 1.368 . S
C813 H836 0.929 . S
C814 C813 1.368 . S
C814 C815 1.386 . S
C814 H837 0.929 . S
C815 C814 1.386 . S
C815 C816 1.373 . S
C816 C815 1.373 . S
C816 C817 1.409 . S
C816 H838 0.931 . S
C817 C812 1.356 . S
C817 C816 1.409 . S
C817 H839 0.930 . S
C818 O828 1.270 . S
C818 O829 1.248 . S
C819 O830 1.267 . S
C819 O831 1.278 . S
O820 Pr800 2.562 . S
O820 C802 1.254 . S
O821 Pr800 2.490 . S
O821 C802 1.225 . S
O822 Pr800 2.695 . S
O822 Pr801 2.436 . S
O822 C809 1.270 . S
O823 Pr800 2.512 . S
O823 C809 1.248 . S
O824 Pr801 2.438 . S
O824 C810 1.267 . S
O825 Pr800 2.437 . S
O825 C810 1.278 . S
O826 Pr801 2.562 . S
O826 C811 1.254 . S
O827 Pr801 2.490 . S
O827 C811 1.225 . S
O828 Pr800 2.436 . S
O828 Pr801 2.695 . S
O828 C818 1.270 . S
O829 Pr801 2.512 . S
O829 C818 1.248 . S
O830 Pr800 2.438 . S
O830 C819 1.267 . S
O831 Pr801 2.437 . S
O831 C819 1.278 . S
H832 C804 0.929 . S
H833 C805 0.929 . S
H834 C807 0.931 . S
H835 C808 0.930 . S
H836 C813 0.929 . S
H837 C814 0.929 . S
H838 C816 0.931 . S
H839 C817 0.930 . S
Pr840 C842 2.880 1_556 S
Pr840 O860 2.562 1_556 S
Pr840 O861 2.490 . S
Pr840 O862 2.695 . S
Pr840 O863 2.512 . S
Pr840 O865 2.437 1_556 S
Pr840 O868 2.436 . S
Pr840 O870 2.438 . S
Pr841 C851 2.880 . S
Pr841 O862 2.436 . S
Pr841 O864 2.438 1_556 S
Pr841 O866 2.562 . S
Pr841 O867 2.490 . S
Pr841 O868 2.695 . S
Pr841 O869 2.512 . S
Pr841 O871 2.437 . S
C842 Pr840 2.880 1_554 S
C842 C843 1.491 . S
C842 O860 1.254 . S
C842 O861 1.225 1_554 S
C843 C842 1.491 . S
C843 C844 1.392 . S
C843 C848 1.356 . S
C844 C843 1.392 . S
C844 C845 1.368 . S
C844 H872 0.929 . S
C845 C844 1.368 . S
C845 C846 1.386 . S
C845 H873 0.929 . S
C846 C845 1.386 . S
C846 C847 1.373 . S
C847 C846 1.373 . S
C847 C848 1.409 . S
C847 H874 0.931 . S
C848 C843 1.356 . S
C848 C847 1.409 . S
C848 H875 0.930 . S
C849 O862 1.270 . S
C849 O863 1.248 . S
C850 O864 1.267 . S
C850 O865 1.278 . S
C851 Pr841 2.880 . S
C851 C852 1.491 . S
C851 O866 1.254 . S
C851 O867 1.225 . S
C852 C851 1.491 . S
C852 C853 1.392 . S
C852 C857 1.356 . S
C853 C852 1.392 . S
C853 C854 1.368 . S
C853 H876 0.929 . S
C854 C853 1.368 . S
C854 C855 1.386 . S
C854 H877 0.929 . S
C855 C854 1.386 . S
C855 C856 1.373 . S
C856 C855 1.373 . S
C856 C857 1.409 . S
C856 H878 0.931 . S
C857 C852 1.356 . S
C857 C856 1.409 . S
C857 H879 0.930 . S
C858 O868 1.270 . S
C858 O869 1.248 . S
C859 O870 1.267 . S
C859 O871 1.278 . S
O860 Pr840 2.562 1_554 S
O860 C842 1.254 . S
O861 Pr840 2.490 . S
O861 C842 1.225 1_556 S
O862 Pr840 2.695 . S
O862 Pr841 2.436 . S
O862 C849 1.270 . S
O863 Pr840 2.512 . S
O863 C849 1.248 . S
O864 Pr841 2.438 1_554 S
O864 C850 1.267 . S
O865 Pr840 2.437 1_554 S
O865 C850 1.278 . S
O866 Pr841 2.562 . S
O866 C851 1.254 . S
O867 Pr841 2.490 . S
O867 C851 1.225 . S
O868 Pr840 2.436 . S
O868 Pr841 2.695 . S
O868 C858 1.270 . S
O869 Pr841 2.512 . S
O869 C858 1.248 . S
O870 Pr840 2.438 . S
O870 C859 1.267 . S
O871 Pr841 2.437 . S
O871 C859 1.278 . S
H872 C844 0.929 . S
H873 C845 0.929 . S
H874 C847 0.931 . S
H875 C848 0.930 . S
H876 C853 0.929 . S
H877 C854 0.929 . S
H878 C856 0.931 . S
H879 C857 0.930 . S
Pr880 C882 2.880 . S
Pr880 O900 2.562 . S
Pr880 O901 2.490 . S
Pr880 O902 2.695 . S
Pr880 O903 2.512 . S
Pr880 O905 2.437 . S
Pr880 O908 2.436 . S
Pr880 O910 2.438 . S
Pr881 C891 2.880 . S
Pr881 O902 2.436 . S
Pr881 O904 2.438 . S
Pr881 O906 2.562 . S
Pr881 O907 2.490 . S
Pr881 O908 2.695 . S
Pr881 O909 2.512 . S
Pr881 O911 2.437 . S
C882 Pr880 2.880 . S
C882 C883 1.491 . S
C882 O900 1.254 . S
C882 O901 1.225 . S
C883 C882 1.491 . S
C883 C884 1.392 . S
C883 C888 1.356 . S
C884 C883 1.392 . S
C884 C885 1.368 . S
C884 H912 0.929 . S
C885 C884 1.368 . S
C885 C886 1.386 . S
C885 H913 0.929 . S
C886 C885 1.386 . S
C886 C887 1.373 . S
C887 C886 1.373 . S
C887 C888 1.409 . S
C887 H914 0.931 . S
C888 C883 1.356 . S
C888 C887 1.409 . S
C888 H915 0.930 . S
C889 O902 1.270 . S
C889 O903 1.248 . S
C890 O904 1.267 . S
C890 O905 1.278 . S
C891 Pr881 2.880 . S
C891 C892 1.491 . S
C891 O906 1.254 . S
C891 O907 1.225 . S
C892 C891 1.491 . S
C892 C893 1.392 . S
C892 C897 1.356 . S
C893 C892 1.392 . S
C893 C894 1.368 . S
C893 H916 0.929 . S
C894 C893 1.368 . S
C894 C895 1.386 . S
C894 H917 0.929 . S
C895 C894 1.386 . S
C895 C896 1.373 . S
C896 C895 1.373 . S
C896 C897 1.409 . S
C896 H918 0.931 . S
C897 C892 1.356 . S
C897 C896 1.409 . S
C897 H919 0.930 . S
C898 O908 1.270 . S
C898 O909 1.248 . S
C899 O910 1.267 . S
C899 O911 1.278 . S
O900 Pr880 2.562 . S
O900 C882 1.254 . S
O901 Pr880 2.490 . S
O901 C882 1.225 . S
O902 Pr880 2.695 . S
O902 Pr881 2.436 . S
O902 C889 1.270 . S
O903 Pr880 2.512 . S
O903 C889 1.248 . S
O904 Pr881 2.438 . S
O904 C890 1.267 . S
O905 Pr880 2.437 . S
O905 C890 1.278 . S
O906 Pr881 2.562 . S
O906 C891 1.254 . S
O907 Pr881 2.490 . S
O907 C891 1.225 . S
O908 Pr880 2.436 . S
O908 Pr881 2.695 . S
O908 C898 1.270 . S
O909 Pr881 2.512 . S
O909 C898 1.248 . S
O910 Pr880 2.438 . S
O910 C899 1.267 . S
O911 Pr881 2.437 . S
O911 C899 1.278 . S
H912 C884 0.929 . S
H913 C885 0.929 . S
H914 C887 0.931 . S
H915 C888 0.930 . S
H916 C893 0.929 . S
H917 C894 0.929 . S
H918 C896 0.931 . S
H919 C897 0.930 . S
Pr920 C922 2.880 . S
Pr920 O940 2.562 . S
Pr920 O941 2.490 . S
Pr920 O942 2.695 . S
Pr920 O943 2.512 . S
Pr920 O945 2.437 . S
Pr920 O948 2.436 . S
Pr920 O950 2.438 . S
Pr921 C931 2.880 . S
Pr921 O942 2.436 . S
Pr921 O944 2.438 . S
Pr921 O946 2.562 . S
Pr921 O947 2.490 . S
Pr921 O948 2.695 . S
Pr921 O949 2.512 . S
Pr921 O951 2.437 . S
C922 Pr920 2.880 . S
C922 C923 1.491 . S
C922 O940 1.254 . S
C922 O941 1.225 . S
C923 C922 1.491 . S
C923 C924 1.392 . S
C923 C928 1.356 . S
C924 C923 1.392 . S
C924 C925 1.368 . S
C924 H952 0.929 . S
C925 C924 1.368 . S
C925 C926 1.386 . S
C925 H953 0.929 . S
C926 C925 1.386 . S
C926 C927 1.373 . S
C927 C926 1.373 . S
C927 C928 1.409 . S
C927 H954 0.931 . S
C928 C923 1.356 . S
C928 C927 1.409 . S
C928 H955 0.930 . S
C929 O942 1.270 . S
C929 O943 1.248 . S
C930 O944 1.267 . S
C930 O945 1.278 . S
C931 Pr921 2.880 . S
C931 C932 1.491 . S
C931 O946 1.254 . S
C931 O947 1.225 . S
C932 C931 1.491 . S
C932 C933 1.392 . S
C932 C937 1.356 . S
C933 C932 1.392 . S
C933 C934 1.368 . S
C933 H956 0.929 . S
C934 C933 1.368 . S
C934 C935 1.386 . S
C934 H957 0.929 . S
C935 C934 1.386 . S
C935 C936 1.373 . S
C936 C935 1.373 . S
C936 C937 1.409 . S
C936 H958 0.931 . S
C937 C932 1.356 . S
C937 C936 1.409 . S
C937 H959 0.930 . S
C938 O948 1.270 . S
C938 O949 1.248 . S
C939 O950 1.267 . S
C939 O951 1.278 . S
O940 Pr920 2.562 . S
O940 C922 1.254 . S
O941 Pr920 2.490 . S
O941 C922 1.225 . S
O942 Pr920 2.695 . S
O942 Pr921 2.436 . S
O942 C929 1.270 . S
O943 Pr920 2.512 . S
O943 C929 1.248 . S
O944 Pr921 2.438 . S
O944 C930 1.267 . S
O945 Pr920 2.437 . S
O945 C930 1.278 . S
O946 Pr921 2.562 . S
O946 C931 1.254 . S
O947 Pr921 2.490 . S
O947 C931 1.225 . S
O948 Pr920 2.436 . S
O948 Pr921 2.695 . S
O948 C938 1.270 . S
O949 Pr921 2.512 . S
O949 C938 1.248 . S
O950 Pr920 2.438 . S
O950 C939 1.267 . S
O951 Pr921 2.437 . S
O951 C939 1.278 . S
H952 C924 0.929 . S
H953 C925 0.929 . S
H954 C927 0.931 . S
H955 C928 0.930 . S
H956 C933 0.929 . S
H957 C934 0.929 . S
H958 C936 0.931 . S
H959 C937 0.930 . S
Pr960 C962 2.880 . S
Pr960 O980 2.562 . S
Pr960 O981 2.490 . S
Pr960 O982 2.695 . S
Pr960 O983 2.512 . S
Pr960 O985 2.437 . S
Pr960 O988 2.436 . S
Pr960 O990 2.438 . S
Pr961 C971 2.880 . S
Pr961 O982 2.436 . S
Pr961 O984 2.438 . S
Pr961 O986 2.562 . S
Pr961 O987 2.490 . S
Pr961 O988 2.695 . S
Pr961 O989 2.512 . S
Pr961 O991 2.437 . S
C962 Pr960 2.880 . S
C962 C963 1.491 . S
C962 O980 1.254 . S
C962 O981 1.225 . S
C963 C962 1.491 . S
C963 C964 1.392 . S
C963 C968 1.356 . S
C964 C963 1.392 . S
C964 C965 1.368 . S
C964 H992 0.929 . S
C965 C964 1.368 . S
C965 C966 1.386 . S
C965 H993 0.929 . S
C966 C965 1.386 . S
C966 C967 1.373 . S
C967 C966 1.373 . S
C967 C968 1.409 . S
C967 H994 0.931 . S
C968 C963 1.356 . S
C968 C967 1.409 . S
C968 H995 0.930 . S
C969 O982 1.270 . S
C969 O983 1.248 . S
C970 O984 1.267 . S
C970 O985 1.278 . S
C971 Pr961 2.880 . S
C971 C972 1.491 . S
C971 O986 1.254 . S
C971 O987 1.225 . S
C972 C971 1.491 . S
C972 C973 1.392 . S
C972 C977 1.356 . S
C973 C972 1.392 . S
C973 C974 1.368 . S
C973 H996 0.929 . S
C974 C973 1.368 . S
C974 C975 1.386 . S
C974 H997 0.929 . S
C975 C974 1.386 . S
C975 C976 1.373 . S
C976 C975 1.373 . S
C976 C977 1.409 . S
C976 H998 0.931 . S
C977 C972 1.356 . S
C977 C976 1.409 . S
C977 H999 0.930 . S
C978 O988 1.270 . S
C978 O989 1.248 . S
C979 O990 1.267 . S
C979 O991 1.278 . S
O980 Pr960 2.562 . S
O980 C962 1.254 . S
O981 Pr960 2.490 . S
O981 C962 1.225 . S
O982 Pr960 2.695 . S
O982 Pr961 2.436 . S
O982 C969 1.270 . S
O983 Pr960 2.512 . S
O983 C969 1.248 . S
O984 Pr961 2.438 . S
O984 C970 1.267 . S
O985 Pr960 2.437 . S
O985 C970 1.278 . S
O986 Pr961 2.562 . S
O986 C971 1.254 . S
O987 Pr961 2.490 . S
O987 C971 1.225 . S
O988 Pr960 2.436 . S
O988 Pr961 2.695 . S
O988 C978 1.270 . S
O989 Pr961 2.512 . S
O989 C978 1.248 . S
O990 Pr960 2.438 . S
O990 C979 1.267 . S
O991 Pr961 2.437 . S
O991 C979 1.278 . S
H992 C964 0.929 . S
H993 C965 0.929 . S
H994 C967 0.931 . S
H995 C968 0.930 . S
H996 C973 0.929 . S
H997 C974 0.929 . S
H998 C976 0.931 . S
H999 C977 0.930 . S
Pr1000 C1002 2.880 . S
Pr1000 O1020 2.562 . S
Pr1000 O1021 2.490 . S
Pr1000 O1022 2.695 . S
Pr1000 O1023 2.512 . S
Pr1000 O1025 2.437 . S
Pr1000 O1028 2.436 . S
Pr1000 O1030 2.438 1_556 S
Pr1001 C1011 2.880 1_556 S
Pr1001 O1022 2.436 . S
Pr1001 O1024 2.438 . S
Pr1001 O1026 2.562 1_556 S
Pr1001 O1027 2.490 . S
Pr1001 O1028 2.695 . S
Pr1001 O1029 2.512 . S
Pr1001 O1031 2.437 1_556 S
C1002 Pr1000 2.880 . S
C1002 C1003 1.491 . S
C1002 O1020 1.254 . S
C1002 O1021 1.225 . S
C1003 C1002 1.491 . S
C1003 C1004 1.392 . S
C1003 C1008 1.356 . S
C1004 C1003 1.392 . S
C1004 C1005 1.368 . S
C1004 H1032 0.929 . S
C1005 C1004 1.368 . S
C1005 C1006 1.386 . S
C1005 H1033 0.929 . S
C1006 C1005 1.386 . S
C1006 C1007 1.373 . S
C1007 C1006 1.373 . S
C1007 C1008 1.409 . S
C1007 H1034 0.931 . S
C1008 C1003 1.356 . S
C1008 C1007 1.409 . S
C1008 H1035 0.930 . S
C1009 O1022 1.270 . S
C1009 O1023 1.248 . S
C1010 O1024 1.267 . S
C1010 O1025 1.278 . S
C1011 Pr1001 2.880 1_554 S
C1011 C1012 1.491 . S
C1011 O1026 1.254 . S
C1011 O1027 1.225 1_554 S
C1012 C1011 1.491 . S
C1012 C1013 1.392 . S
C1012 C1017 1.356 . S
C1013 C1012 1.392 . S
C1013 C1014 1.368 . S
C1013 H1036 0.929 . S
C1014 C1013 1.368 . S
C1014 C1015 1.386 . S
C1014 H1037 0.929 . S
C1015 C1014 1.386 . S
C1015 C1016 1.373 . S
C1016 C1015 1.373 . S
C1016 C1017 1.409 . S
C1016 H1038 0.931 . S
C1017 C1012 1.356 . S
C1017 C1016 1.409 . S
C1017 H1039 0.930 . S
C1018 O1028 1.270 . S
C1018 O1029 1.248 . S
C1019 O1030 1.267 . S
C1019 O1031 1.278 . S
O1020 Pr1000 2.562 . S
O1020 C1002 1.254 . S
O1021 Pr1000 2.490 . S
O1021 C1002 1.225 . S
O1022 Pr1000 2.695 . S
O1022 Pr1001 2.436 . S
O1022 C1009 1.270 . S
O1023 Pr1000 2.512 . S
O1023 C1009 1.248 . S
O1024 Pr1001 2.438 . S
O1024 C1010 1.267 . S
O1025 Pr1000 2.437 . S
O1025 C1010 1.278 . S
O1026 Pr1001 2.562 1_554 S
O1026 C1011 1.254 . S
O1027 Pr1001 2.490 . S
O1027 C1011 1.225 1_556 S
O1028 Pr1000 2.436 . S
O1028 Pr1001 2.695 . S
O1028 C1018 1.270 . S
O1029 Pr1001 2.512 . S
O1029 C1018 1.248 . S
O1030 Pr1000 2.438 1_554 S
O1030 C1019 1.267 . S
O1031 Pr1001 2.437 1_554 S
O1031 C1019 1.278 . S
H1032 C1004 0.929 . S
H1033 C1005 0.929 . S
H1034 C1007 0.931 . S
H1035 C1008 0.930 . S
H1036 C1013 0.929 . S
H1037 C1014 0.929 . S
H1038 C1016 0.931 . S
H1039 C1017 0.930 . S
Pr1040 C1042 2.880 . S
Pr1040 O1060 2.562 . S
Pr1040 O1061 2.490 . S
Pr1040 O1062 2.695 . S
Pr1040 O1063 2.512 . S
Pr1040 O1065 2.437 . S
Pr1040 O1068 2.436 . S
Pr1040 O1070 2.438 . S
Pr1041 C1051 2.880 . S
Pr1041 O1062 2.436 . S
Pr1041 O1064 2.438 . S
Pr1041 O1066 2.562 . S
Pr1041 O1067 2.490 . S
Pr1041 O1068 2.695 . S
Pr1041 O1069 2.512 . S
Pr1041 O1071 2.437 . S
C1042 Pr1040 2.880 . S
C1042 C1043 1.491 . S
C1042 O1060 1.254 . S
C1042 O1061 1.225 . S
C1043 C1042 1.491 . S
C1043 C1044 1.392 . S
C1043 C1048 1.356 . S
C1044 C1043 1.392 . S
C1044 C1045 1.368 . S
C1044 H1072 0.929 . S
C1045 C1044 1.368 . S
C1045 C1046 1.386 . S
C1045 H1073 0.929 . S
C1046 C1045 1.386 . S
C1046 C1047 1.373 . S
C1047 C1046 1.373 . S
C1047 C1048 1.409 . S
C1047 H1074 0.931 . S
C1048 C1043 1.356 . S
C1048 C1047 1.409 . S
C1048 H1075 0.930 . S
C1049 O1062 1.270 . S
C1049 O1063 1.248 . S
C1050 O1064 1.267 . S
C1050 O1065 1.278 . S
C1051 Pr1041 2.880 . S
C1051 C1052 1.491 . S
C1051 O1066 1.254 . S
C1051 O1067 1.225 . S
C1052 C1051 1.491 . S
C1052 C1053 1.392 . S
C1052 C1057 1.356 . S
C1053 C1052 1.392 . S
C1053 C1054 1.368 . S
C1053 H1076 0.929 . S
C1054 C1053 1.368 . S
C1054 C1055 1.386 . S
C1054 H1077 0.929 . S
C1055 C1054 1.386 . S
C1055 C1056 1.373 . S
C1056 C1055 1.373 . S
C1056 C1057 1.409 . S
C1056 H1078 0.931 . S
C1057 C1052 1.356 . S
C1057 C1056 1.409 . S
C1057 H1079 0.930 . S
C1058 O1068 1.270 . S
C1058 O1069 1.248 . S
C1059 O1070 1.267 . S
C1059 O1071 1.278 . S
O1060 Pr1040 2.562 . S
O1060 C1042 1.254 . S
O1061 Pr1040 2.490 . S
O1061 C1042 1.225 . S
O1062 Pr1040 2.695 . S
O1062 Pr1041 2.436 . S
O1062 C1049 1.270 . S
O1063 Pr1040 2.512 . S
O1063 C1049 1.248 . S
O1064 Pr1041 2.438 . S
O1064 C1050 1.267 . S
O1065 Pr1040 2.437 . S
O1065 C1050 1.278 . S
O1066 Pr1041 2.562 . S
O1066 C1051 1.254 . S
O1067 Pr1041 2.490 . S
O1067 C1051 1.225 . S
O1068 Pr1040 2.436 . S
O1068 Pr1041 2.695 . S
O1068 C1058 1.270 . S
O1069 Pr1041 2.512 . S
O1069 C1058 1.248 . S
O1070 Pr1040 2.438 . S
O1070 C1059 1.267 . S
O1071 Pr1041 2.437 . S
O1071 C1059 1.278 . S
H1072 C1044 0.929 . S
H1073 C1045 0.929 . S
H1074 C1047 0.931 . S
H1075 C1048 0.930 . S
H1076 C1053 0.929 . S
H1077 C1054 0.929 . S
H1078 C1056 0.931 . S
H1079 C1057 0.930 . S
Pr1080 C1082 2.880 . S
Pr1080 O1100 2.562 . S
Pr1080 O1101 2.490 . S
Pr1080 O1102 2.695 . S
Pr1080 O1103 2.512 . S
Pr1080 O1105 2.437 . S
Pr1080 O1108 2.436 . S
Pr1080 O1110 2.438 . S
Pr1081 C1091 2.880 . S
Pr1081 O1102 2.436 . S
Pr1081 O1104 2.438 . S
Pr1081 O1106 2.562 . S
Pr1081 O1107 2.490 . S
Pr1081 O1108 2.695 . S
Pr1081 O1109 2.512 . S
Pr1081 O1111 2.437 . S
C1082 Pr1080 2.880 . S
C1082 C1083 1.491 . S
C1082 O1100 1.254 . S
C1082 O1101 1.225 . S
C1083 C1082 1.491 . S
C1083 C1084 1.392 . S
C1083 C1088 1.356 . S
C1084 C1083 1.392 . S
C1084 C1085 1.368 . S
C1084 H1112 0.929 . S
C1085 C1084 1.368 . S
C1085 C1086 1.386 . S
C1085 H1113 0.929 . S
C1086 C1085 1.386 . S
C1086 C1087 1.373 . S
C1087 C1086 1.373 . S
C1087 C1088 1.409 . S
C1087 H1114 0.931 . S
C1088 C1083 1.356 . S
C1088 C1087 1.409 . S
C1088 H1115 0.930 . S
C1089 O1102 1.270 . S
C1089 O1103 1.248 . S
C1090 O1104 1.267 . S
C1090 O1105 1.278 . S
C1091 Pr1081 2.880 . S
C1091 C1092 1.491 . S
C1091 O1106 1.254 . S
C1091 O1107 1.225 . S
C1092 C1091 1.491 . S
C1092 C1093 1.392 . S
C1092 C1097 1.356 . S
C1093 C1092 1.392 . S
C1093 C1094 1.368 . S
C1093 H1116 0.929 . S
C1094 C1093 1.368 . S
C1094 C1095 1.386 . S
C1094 H1117 0.929 . S
C1095 C1094 1.386 . S
C1095 C1096 1.373 . S
C1096 C1095 1.373 . S
C1096 C1097 1.409 . S
C1096 H1118 0.931 . S
C1097 C1092 1.356 . S
C1097 C1096 1.409 . S
C1097 H1119 0.930 . S
C1098 O1108 1.270 . S
C1098 O1109 1.248 . S
C1099 O1110 1.267 . S
C1099 O1111 1.278 . S
O1100 Pr1080 2.562 . S
O1100 C1082 1.254 . S
O1101 Pr1080 2.490 . S
O1101 C1082 1.225 . S
O1102 Pr1080 2.695 . S
O1102 Pr1081 2.436 . S
O1102 C1089 1.270 . S
O1103 Pr1080 2.512 . S
O1103 C1089 1.248 . S
O1104 Pr1081 2.438 . S
O1104 C1090 1.267 . S
O1105 Pr1080 2.437 . S
O1105 C1090 1.278 . S
O1106 Pr1081 2.562 . S
O1106 C1091 1.254 . S
O1107 Pr1081 2.490 . S
O1107 C1091 1.225 . S
O1108 Pr1080 2.436 . S
O1108 Pr1081 2.695 . S
O1108 C1098 1.270 . S
O1109 Pr1081 2.512 . S
O1109 C1098 1.248 . S
O1110 Pr1080 2.438 . S
O1110 C1099 1.267 . S
O1111 Pr1081 2.437 . S
O1111 C1099 1.278 . S
H1112 C1084 0.929 . S
H1113 C1085 0.929 . S
H1114 C1087 0.931 . S
H1115 C1088 0.930 . S
H1116 C1093 0.929 . S
H1117 C1094 0.929 . S
H1118 C1096 0.931 . S
H1119 C1097 0.930 . S
Pr1120 C1122 2.880 . S
Pr1120 O1140 2.562 . S
Pr1120 O1141 2.490 . S
Pr1120 O1142 2.695 . S
Pr1120 O1143 2.512 . S
Pr1120 O1145 2.437 . S
Pr1120 O1148 2.436 . S
Pr1120 O1150 2.438 . S
Pr1121 C1131 2.880 . S
Pr1121 O1142 2.436 . S
Pr1121 O1144 2.438 . S
Pr1121 O1146 2.562 . S
Pr1121 O1147 2.490 . S
Pr1121 O1148 2.695 . S
Pr1121 O1149 2.512 . S
Pr1121 O1151 2.437 . S
C1122 Pr1120 2.880 . S
C1122 C1123 1.491 . S
C1122 O1140 1.254 . S
C1122 O1141 1.225 . S
C1123 C1122 1.491 . S
C1123 C1124 1.392 . S
C1123 C1128 1.356 . S
C1124 C1123 1.392 . S
C1124 C1125 1.368 . S
C1124 H1152 0.929 . S
C1125 C1124 1.368 . S
C1125 C1126 1.386 . S
C1125 H1153 0.929 . S
C1126 C1125 1.386 . S
C1126 C1127 1.373 . S
C1127 C1126 1.373 . S
C1127 C1128 1.409 . S
C1127 H1154 0.931 . S
C1128 C1123 1.356 . S
C1128 C1127 1.409 . S
C1128 H1155 0.930 . S
C1129 O1142 1.270 . S
C1129 O1143 1.248 . S
C1130 O1144 1.267 . S
C1130 O1145 1.278 . S
C1131 Pr1121 2.880 . S
C1131 C1132 1.491 . S
C1131 O1146 1.254 . S
C1131 O1147 1.225 . S
C1132 C1131 1.491 . S
C1132 C1133 1.392 . S
C1132 C1137 1.356 . S
C1133 C1132 1.392 . S
C1133 C1134 1.368 . S
C1133 H1156 0.929 . S
C1134 C1133 1.368 . S
C1134 C1135 1.386 . S
C1134 H1157 0.929 . S
C1135 C1134 1.386 . S
C1135 C1136 1.373 . S
C1136 C1135 1.373 . S
C1136 C1137 1.409 . S
C1136 H1158 0.931 . S
C1137 C1132 1.356 . S
C1137 C1136 1.409 . S
C1137 H1159 0.930 . S
C1138 O1148 1.270 . S
C1138 O1149 1.248 . S
C1139 O1150 1.267 . S
C1139 O1151 1.278 . S
O1140 Pr1120 2.562 . S
O1140 C1122 1.254 . S
O1141 Pr1120 2.490 . S
O1141 C1122 1.225 . S
O1142 Pr1120 2.695 . S
O1142 Pr1121 2.436 . S
O1142 C1129 1.270 . S
O1143 Pr1120 2.512 . S
O1143 C1129 1.248 . S
O1144 Pr1121 2.438 . S
O1144 C1130 1.267 . S
O1145 Pr1120 2.437 . S
O1145 C1130 1.278 . S
O1146 Pr1121 2.562 . S
O1146 C1131 1.254 . S
O1147 Pr1121 2.490 . S
O1147 C1131 1.225 . S
O1148 Pr1120 2.436 . S
O1148 Pr1121 2.695 . S
O1148 C1138 1.270 . S
O1149 Pr1121 2.512 . S
O1149 C1138 1.248 . S
O1150 Pr1120 2.438 . S
O1150 C1139 1.267 . S
O1151 Pr1121 2.437 . S
O1151 C1139 1.278 . S
H1152 C1124 0.929 . S
H1153 C1125 0.929 . S
H1154 C1127 0.931 . S
H1155 C1128 0.930 . S
H1156 C1133 0.929 . S
H1157 C1134 0.929 . S
H1158 C1136 0.931 . S
H1159 C1137 0.930 . S
Pr1160 C1162 2.880 . S
Pr1160 O1180 2.562 . S
Pr1160 O1181 2.490 . S
Pr1160 O1182 2.695 . S
Pr1160 O1183 2.512 . S
Pr1160 O1185 2.437 . S
Pr1160 O1188 2.436 . S
Pr1160 O1190 2.438 1_554 S
Pr1161 C1171 2.880 1_554 S
Pr1161 O1182 2.436 . S
Pr1161 O1184 2.438 . S
Pr1161 O1186 2.562 1_554 S
Pr1161 O1187 2.490 . S
Pr1161 O1188 2.695 . S
Pr1161 O1189 2.512 . S
Pr1161 O1191 2.437 1_554 S
C1162 Pr1160 2.880 . S
C1162 C1163 1.491 . S
C1162 O1180 1.254 . S
C1162 O1181 1.225 . S
C1163 C1162 1.491 . S
C1163 C1164 1.392 . S
C1163 C1168 1.356 . S
C1164 C1163 1.392 . S
C1164 C1165 1.368 . S
C1164 H1192 0.929 . S
C1165 C1164 1.368 . S
C1165 C1166 1.386 . S
C1165 H1193 0.929 . S
C1166 C1165 1.386 . S
C1166 C1167 1.373 . S
C1167 C1166 1.373 . S
C1167 C1168 1.409 . S
C1167 H1194 0.931 . S
C1168 C1163 1.356 . S
C1168 C1167 1.409 . S
C1168 H1195 0.930 . S
C1169 O1182 1.270 . S
C1169 O1183 1.248 . S
C1170 O1184 1.267 . S
C1170 O1185 1.278 . S
C1171 Pr1161 2.880 1_556 S
C1171 C1172 1.491 . S
C1171 O1186 1.254 . S
C1171 O1187 1.225 1_556 S
C1172 C1171 1.491 . S
C1172 C1173 1.392 . S
C1172 C1177 1.356 . S
C1173 C1172 1.392 . S
C1173 C1174 1.368 . S
C1173 H1196 0.929 . S
C1174 C1173 1.368 . S
C1174 C1175 1.386 . S
C1174 H1197 0.929 . S
C1175 C1174 1.386 . S
C1175 C1176 1.373 . S
C1176 C1175 1.373 . S
C1176 C1177 1.409 . S
C1176 H1198 0.931 . S
C1177 C1172 1.356 . S
C1177 C1176 1.409 . S
C1177 H1199 0.930 . S
C1178 O1188 1.270 . S
C1178 O1189 1.248 . S
C1179 O1190 1.267 . S
C1179 O1191 1.278 . S
O1180 Pr1160 2.562 . S
O1180 C1162 1.254 . S
O1181 Pr1160 2.490 . S
O1181 C1162 1.225 . S
O1182 Pr1160 2.695 . S
O1182 Pr1161 2.436 . S
O1182 C1169 1.270 . S
O1183 Pr1160 2.512 . S
O1183 C1169 1.248 . S
O1184 Pr1161 2.438 . S
O1184 C1170 1.267 . S
O1185 Pr1160 2.437 . S
O1185 C1170 1.278 . S
O1186 Pr1161 2.562 1_556 S
O1186 C1171 1.254 . S
O1187 Pr1161 2.490 . S
O1187 C1171 1.225 1_554 S
O1188 Pr1160 2.436 . S
O1188 Pr1161 2.695 . S
O1188 C1178 1.270 . S
O1189 Pr1161 2.512 . S
O1189 C1178 1.248 . S
O1190 Pr1160 2.438 1_556 S
O1190 C1179 1.267 . S
O1191 Pr1161 2.437 1_556 S
O1191 C1179 1.278 . S
H1192 C1164 0.929 . S
H1193 C1165 0.929 . S
H1194 C1167 0.931 . S
H1195 C1168 0.930 . S
H1196 C1173 0.929 . S
H1197 C1174 0.929 . S
H1198 C1176 0.931 . S
H1199 C1177 0.930 . S
Pr1200 C1202 2.880 . S
Pr1200 O1220 2.562 . S
Pr1200 O1221 2.490 . S
Pr1200 O1222 2.695 . S
Pr1200 O1223 2.512 . S
Pr1200 O1225 2.437 . S
Pr1200 O1228 2.436 . S
Pr1200 O1230 2.438 . S
Pr1201 C1211 2.880 . S
Pr1201 O1222 2.436 . S
Pr1201 O1224 2.438 . S
Pr1201 O1226 2.562 . S
Pr1201 O1227 2.490 . S
Pr1201 O1228 2.695 . S
Pr1201 O1229 2.512 . S
Pr1201 O1231 2.437 . S
C1202 Pr1200 2.880 . S
C1202 C1203 1.491 . S
C1202 O1220 1.254 . S
C1202 O1221 1.225 . S
C1203 C1202 1.491 . S
C1203 C1204 1.392 . S
C1203 C1208 1.356 . S
C1204 C1203 1.392 . S
C1204 C1205 1.368 . S
C1204 H1232 0.929 . S
C1205 C1204 1.368 . S
C1205 C1206 1.386 . S
C1205 H1233 0.929 . S
C1206 C1205 1.386 . S
C1206 C1207 1.373 . S
C1207 C1206 1.373 . S
C1207 C1208 1.409 . S
C1207 H1234 0.931 . S
C1208 C1203 1.356 . S
C1208 C1207 1.409 . S
C1208 H1235 0.930 . S
C1209 O1222 1.270 . S
C1209 O1223 1.248 . S
C1210 O1224 1.267 . S
C1210 O1225 1.278 . S
C1211 Pr1201 2.880 . S
C1211 C1212 1.491 . S
C1211 O1226 1.254 . S
C1211 O1227 1.225 . S
C1212 C1211 1.491 . S
C1212 C1213 1.392 . S
C1212 C1217 1.356 . S
C1213 C1212 1.392 . S
C1213 C1214 1.368 . S
C1213 H1236 0.929 . S
C1214 C1213 1.368 . S
C1214 C1215 1.386 . S
C1214 H1237 0.929 . S
C1215 C1214 1.386 . S
C1215 C1216 1.373 . S
C1216 C1215 1.373 . S
C1216 C1217 1.409 . S
C1216 H1238 0.931 . S
C1217 C1212 1.356 . S
C1217 C1216 1.409 . S
C1217 H1239 0.930 . S
C1218 O1228 1.270 . S
C1218 O1229 1.248 . S
C1219 O1230 1.267 . S
C1219 O1231 1.278 . S
O1220 Pr1200 2.562 . S
O1220 C1202 1.254 . S
O1221 Pr1200 2.490 . S
O1221 C1202 1.225 . S
O1222 Pr1200 2.695 . S
O1222 Pr1201 2.436 . S
O1222 C1209 1.270 . S
O1223 Pr1200 2.512 . S
O1223 C1209 1.248 . S
O1224 Pr1201 2.438 . S
O1224 C1210 1.267 . S
O1225 Pr1200 2.437 . S
O1225 C1210 1.278 . S
O1226 Pr1201 2.562 . S
O1226 C1211 1.254 . S
O1227 Pr1201 2.490 . S
O1227 C1211 1.225 . S
O1228 Pr1200 2.436 . S
O1228 Pr1201 2.695 . S
O1228 C1218 1.270 . S
O1229 Pr1201 2.512 . S
O1229 C1218 1.248 . S
O1230 Pr1200 2.438 . S
O1230 C1219 1.267 . S
O1231 Pr1201 2.437 . S
O1231 C1219 1.278 . S
H1232 C1204 0.929 . S
H1233 C1205 0.929 . S
H1234 C1207 0.931 . S
H1235 C1208 0.930 . S
H1236 C1213 0.929 . S
H1237 C1214 0.929 . S
H1238 C1216 0.931 . S
H1239 C1217 0.930 . S
Pr1240 C1242 2.880 . S
Pr1240 O1260 2.562 . S
Pr1240 O1261 2.490 . S
Pr1240 O1262 2.695 . S
Pr1240 O1263 2.512 . S
Pr1240 O1265 2.437 . S
Pr1240 O1268 2.436 . S
Pr1240 O1270 2.438 . S
Pr1241 C1251 2.880 . S
Pr1241 O1262 2.436 . S
Pr1241 O1264 2.438 . S
Pr1241 O1266 2.562 . S
Pr1241 O1267 2.490 . S
Pr1241 O1268 2.695 . S
Pr1241 O1269 2.512 . S
Pr1241 O1271 2.437 . S
C1242 Pr1240 2.880 . S
C1242 C1243 1.491 . S
C1242 O1260 1.254 . S
C1242 O1261 1.225 . S
C1243 C1242 1.491 . S
C1243 C1244 1.392 . S
C1243 C1248 1.356 . S
C1244 C1243 1.392 . S
C1244 C1245 1.368 . S
C1244 H1272 0.929 . S
C1245 C1244 1.368 . S
C1245 C1246 1.386 . S
C1245 H1273 0.929 . S
C1246 C1245 1.386 . S
C1246 C1247 1.373 . S
C1247 C1246 1.373 . S
C1247 C1248 1.409 . S
C1247 H1274 0.931 . S
C1248 C1243 1.356 . S
C1248 C1247 1.409 . S
C1248 H1275 0.930 . S
C1249 O1262 1.270 . S
C1249 O1263 1.248 . S
C1250 O1264 1.267 . S
C1250 O1265 1.278 . S
C1251 Pr1241 2.880 . S
C1251 C1252 1.491 . S
C1251 O1266 1.254 . S
C1251 O1267 1.225 . S
C1252 C1251 1.491 . S
C1252 C1253 1.392 . S
C1252 C1257 1.356 . S
C1253 C1252 1.392 . S
C1253 C1254 1.368 . S
C1253 H1276 0.929 . S
C1254 C1253 1.368 . S
C1254 C1255 1.386 . S
C1254 H1277 0.929 . S
C1255 C1254 1.386 . S
C1255 C1256 1.373 . S
C1256 C1255 1.373 . S
C1256 C1257 1.409 . S
C1256 H1278 0.931 . S
C1257 C1252 1.356 . S
C1257 C1256 1.409 . S
C1257 H1279 0.930 . S
C1258 O1268 1.270 . S
C1258 O1269 1.248 . S
C1259 O1270 1.267 . S
C1259 O1271 1.278 . S
O1260 Pr1240 2.562 . S
O1260 C1242 1.254 . S
O1261 Pr1240 2.490 . S
O1261 C1242 1.225 . S
O1262 Pr1240 2.695 . S
O1262 Pr1241 2.436 . S
O1262 C1249 1.270 . S
O1263 Pr1240 2.512 . S
O1263 C1249 1.248 . S
O1264 Pr1241 2.438 . S
O1264 C1250 1.267 . S
O1265 Pr1240 2.437 . S
O1265 C1250 1.278 . S
O1266 Pr1241 2.562 . S
O1266 C1251 1.254 . S
O1267 Pr1241 2.490 . S
O1267 C1251 1.225 . S
O1268 Pr1240 2.436 . S
O1268 Pr1241 2.695 . S
O1268 C1258 1.270 . S
O1269 Pr1241 2.512 . S
O1269 C1258 1.248 . S
O1270 Pr1240 2.438 . S
O1270 C1259 1.267 . S
O1271 Pr1241 2.437 . S
O1271 C1259 1.278 . S
H1272 C1244 0.929 . S
H1273 C1245 0.929 . S
H1274 C1247 0.931 . S
H1275 C1248 0.930 . S
H1276 C1253 0.929 . S
H1277 C1254 0.929 . S
H1278 C1256 0.931 . S
H1279 C1257 0.930 . S
H1280 C1292 0.930 . S
H1281 C1294 0.930 . S
H1282 C1295 0.930 . S
H1283 C1299 0.959 . S
H1284 C1299 0.959 . S
H1285 C1299 0.961 . S
H1286 C1300 0.960 . S
H1287 C1300 0.961 . S
H1288 C1300 0.959 . S
H1289 C1303 0.929 . S
H1290 C1304 0.931 . S
H1291 C1306 0.930 . S
C1292 H1280 0.930 . S
C1292 C1293 1.399 . S
C1292 C1297 1.399 . S
C1293 C1292 1.399 . S
C1293 C1294 1.376 . S
C1294 H1281 0.930 . S
C1294 C1293 1.376 . S
C1294 C1295 1.388 . S
C1295 H1282 0.930 . S
C1295 C1294 1.388 . S
C1295 C1296 1.390 . S
C1296 C1295 1.390 . S
C1296 C1297 1.394 . S
C1296 C1302 1.465 . S
C1297 C1292 1.399 . S
C1297 C1296 1.394 . S
C1297 C1298 1.516 . S
C1298 C1297 1.516 . S
C1298 C1299 1.502 . S
C1298 C1300 1.561 . S
C1298 C1301 1.526 . S
C1299 H1283 0.959 . S
C1299 H1284 0.959 . S
C1299 H1285 0.961 . S
C1299 C1298 1.502 . S
C1300 H1286 0.960 . S
C1300 H1287 0.961 . S
C1300 H1288 0.959 . S
C1300 C1298 1.561 . S
C1301 C1298 1.526 . S
C1301 C1302 1.396 . S
C1301 C1306 1.390 . S
C1302 C1296 1.465 . S
C1302 C1301 1.396 . S
C1302 C1303 1.399 . S
C1303 H1289 0.929 . S
C1303 C1302 1.399 . S
C1303 C1304 1.385 . S
C1304 H1290 0.931 . S
C1304 C1303 1.385 . S
C1304 C1305 1.389 . S
C1305 C1304 1.389 . S
C1305 C1306 1.387 . S
C1306 H1291 0.930 . S
C1306 C1301 1.390 . S
C1306 C1305 1.387 . S
H1307 C1319 0.930 . S
H1308 C1321 0.930 . S
H1309 C1322 0.930 . S
H1310 C1326 0.959 . S
H1311 C1326 0.959 . S
H1312 C1326 0.961 . S
H1313 C1327 0.960 . S
H1314 C1327 0.961 . S
H1315 C1327 0.959 . S
H1316 C1330 0.929 1_565 S
H1317 C1331 0.931 . S
H1318 C1333 0.930 . S
C1319 H1307 0.930 . S
C1319 C1320 1.399 . S
C1319 C1324 1.399 . S
C1320 C1319 1.399 . S
C1320 C1321 1.376 . S
C1321 H1308 0.930 . S
C1321 C1320 1.376 . S
C1321 C1322 1.388 . S
C1322 H1309 0.930 . S
C1322 C1321 1.388 . S
C1322 C1323 1.390 . S
C1323 C1322 1.390 . S
C1323 C1324 1.394 . S
C1323 C1329 1.465 . S
C1324 C1319 1.399 . S
C1324 C1323 1.394 . S
C1324 C1325 1.516 . S
C1325 C1324 1.516 . S
C1325 C1326 1.502 . S
C1325 C1327 1.561 . S
C1325 C1328 1.526 . S
C1326 H1310 0.959 . S
C1326 H1311 0.959 . S
C1326 H1312 0.961 . S
C1326 C1325 1.502 . S
C1327 H1313 0.960 . S
C1327 H1314 0.961 . S
C1327 H1315 0.959 . S
C1327 C1325 1.561 . S
C1328 C1325 1.526 . S
C1328 C1329 1.396 . S
C1328 C1333 1.390 . S
C1329 C1323 1.465 . S
C1329 C1328 1.396 . S
C1329 C1330 1.399 . S
C1330 H1316 0.929 1_545 S
C1330 C1329 1.399 . S
C1330 C1331 1.385 1_545 S
C1331 H1317 0.931 . S
C1331 C1330 1.385 1_565 S
C1331 C1332 1.390 . S
C1332 C1331 1.390 . S
C1332 C1333 1.386 1_565 S
C1333 H1318 0.930 . S
C1333 C1328 1.390 . S
C1333 C1332 1.386 1_545 S
H1334 C1346 0.930 . S
H1335 C1348 0.930 . S
H1336 C1349 0.930 . S
H1337 C1353 0.959 . S
H1338 C1353 0.959 . S
H1339 C1353 0.961 . S
H1340 C1354 0.960 . S
H1341 C1354 0.961 . S
H1342 C1354 0.959 . S
H1343 C1357 0.929 . S
H1344 C1358 0.931 . S
H1345 C1360 0.930 . S
C1346 H1334 0.930 . S
C1346 C1347 1.399 . S
C1346 C1351 1.399 . S
C1347 C1346 1.399 . S
C1347 C1348 1.376 . S
C1348 H1335 0.930 . S
C1348 C1347 1.376 . S
C1348 C1349 1.388 . S
C1349 H1336 0.930 . S
C1349 C1348 1.388 . S
C1349 C1350 1.390 . S
C1350 C1349 1.390 . S
C1350 C1351 1.394 . S
C1350 C1356 1.465 . S
C1351 C1346 1.399 . S
C1351 C1350 1.394 . S
C1351 C1352 1.516 . S
C1352 C1351 1.516 . S
C1352 C1353 1.502 . S
C1352 C1354 1.561 . S
C1352 C1355 1.526 . S
C1353 H1337 0.959 . S
C1353 H1338 0.959 . S
C1353 H1339 0.961 . S
C1353 C1352 1.502 . S
C1354 H1340 0.960 . S
C1354 H1341 0.961 . S
C1354 H1342 0.959 . S
C1354 C1352 1.561 . S
C1355 C1352 1.526 . S
C1355 C1356 1.396 . S
C1355 C1360 1.390 . S
C1356 C1350 1.465 . S
C1356 C1355 1.396 . S
C1356 C1357 1.399 . S
C1357 H1343 0.929 . S
C1357 C1356 1.399 . S
C1357 C1358 1.385 . S
C1358 H1344 0.931 . S
C1358 C1357 1.385 . S
C1358 C1359 1.389 . S
C1359 C1358 1.389 . S
C1359 C1360 1.387 . S
C1360 H1345 0.930 . S
C1360 C1355 1.390 . S
C1360 C1359 1.387 . S
H1361 C1373 0.930 . S
H1362 C1375 0.930 . S
H1363 C1376 0.930 . S
H1364 C1380 0.959 . S
H1365 C1380 0.959 1_545 S
H1366 C1380 0.961 . S
H1367 C1381 0.960 . S
H1368 C1381 0.961 1_545 S
H1369 C1381 0.959 . S
H1370 C1384 0.929 . S
H1371 C1385 0.931 . S
H1372 C1387 0.930 1_545 S
C1373 H1361 0.930 . S
C1373 C1374 1.399 . S
C1373 C1378 1.399 . S
C1374 C1373 1.399 . S
C1374 C1375 1.376 . S
C1375 H1362 0.930 . S
C1375 C1374 1.376 . S
C1375 C1376 1.388 . S
C1376 H1363 0.930 . S
C1376 C1375 1.388 . S
C1376 C1377 1.390 . S
C1377 C1376 1.390 . S
C1377 C1378 1.394 . S
C1377 C1383 1.465 . S
C1378 C1373 1.399 . S
C1378 C1377 1.394 . S
C1378 C1379 1.516 . S
C1379 C1378 1.516 . S
C1379 C1380 1.502 . S
C1379 C1381 1.561 . S
C1379 C1382 1.526 . S
C1380 H1364 0.959 . S
C1380 H1365 0.959 1_565 S
C1380 H1366 0.961 . S
C1380 C1379 1.502 . S
C1381 H1367 0.960 . S
C1381 H1368 0.961 1_565 S
C1381 H1369 0.959 . S
C1381 C1379 1.561 . S
C1382 C1379 1.526 . S
C1382 C1383 1.396 . S
C1382 C1387 1.390 . S
C1383 C1377 1.465 . S
C1383 C1382 1.396 . S
C1383 C1384 1.399 . S
C1384 H1370 0.929 . S
C1384 C1383 1.399 . S
C1384 C1385 1.385 . S
C1385 H1371 0.931 . S
C1385 C1384 1.385 . S
C1385 C1386 1.389 . S
C1386 C1385 1.389 . S
C1386 C1387 1.387 . S
C1387 H1372 0.930 1_565 S
C1387 C1382 1.390 . S
C1387 C1386 1.387 . S
H1388 C1400 0.930 . S
H1389 C1402 0.930 . S
H1390 C1403 0.930 . S
H1391 C1407 0.959 . S
H1392 C1407 0.959 . S
H1393 C1407 0.961 . S
H1394 C1408 0.960 . S
H1395 C1408 0.961 . S
H1396 C1408 0.959 . S
H1397 C1411 0.929 . S
H1398 C1412 0.931 . S
H1399 C1414 0.930 . S
C1400 H1388 0.930 . S
C1400 C1401 1.399 . S
C1400 C1405 1.399 . S
C1401 C1400 1.399 . S
C1401 C1402 1.376 . S
C1402 H1389 0.930 . S
C1402 C1401 1.376 . S
C1402 C1403 1.388 . S
C1403 H1390 0.930 . S
C1403 C1402 1.388 . S
C1403 C1404 1.390 . S
C1404 C1403 1.390 . S
C1404 C1405 1.394 . S
C1404 C1410 1.465 . S
C1405 C1400 1.399 . S
C1405 C1404 1.394 . S
C1405 C1406 1.516 . S
C1406 C1405 1.516 . S
C1406 C1407 1.502 . S
C1406 C1408 1.561 . S
C1406 C1409 1.526 . S
C1407 H1391 0.959 . S
C1407 H1392 0.959 . S
C1407 H1393 0.961 . S
C1407 C1406 1.502 . S
C1408 H1394 0.960 . S
C1408 H1395 0.961 . S
C1408 H1396 0.959 . S
C1408 C1406 1.561 . S
C1409 C1406 1.526 . S
C1409 C1410 1.396 . S
C1409 C1414 1.390 . S
C1410 C1404 1.465 . S
C1410 C1409 1.396 . S
C1410 C1411 1.399 . S
C1411 H1397 0.929 . S
C1411 C1410 1.399 . S
C1411 C1412 1.385 . S
C1412 H1398 0.931 . S
C1412 C1411 1.385 . S
C1412 C1413 1.389 . S
C1413 C1412 1.389 . S
C1413 C1414 1.387 . S
C1414 H1399 0.930 . S
C1414 C1409 1.390 . S
C1414 C1413 1.387 . S
H1415 C1427 0.930 . S
H1416 C1429 0.930 . S
H1417 C1430 0.930 . S
H1418 C1434 0.959 . S
H1419 C1434 0.959 . S
H1420 C1434 0.961 . S
H1421 C1435 0.960 . S
H1422 C1435 0.961 . S
H1423 C1435 0.959 . S
H1424 C1438 0.929 . S
H1425 C1439 0.931 . S
H1426 C1441 0.930 . S
C1427 H1415 0.930 . S
C1427 C1428 1.422 . S
C1427 C1432 1.399 . S
C1428 C1427 1.422 . S
C1428 C1429 1.369 1_545 S
C1429 H1416 0.930 . S
C1429 C1428 1.369 1_565 S
C1429 C1430 1.388 1_565 S
C1430 H1417 0.930 . S
C1430 C1429 1.388 1_545 S
C1430 C1431 1.390 . S
C1431 C1430 1.390 . S
C1431 C1432 1.394 . S
C1431 C1437 1.465 . S
C1432 C1427 1.399 . S
C1432 C1431 1.394 . S
C1432 C1433 1.516 . S
C1433 C1432 1.516 . S
C1433 C1434 1.502 . S
C1433 C1435 1.561 . S
C1433 C1436 1.526 . S
C1434 H1418 0.959 . S
C1434 H1419 0.959 . S
C1434 H1420 0.961 . S
C1434 C1433 1.502 . S
C1435 H1421 0.960 . S
C1435 H1422 0.961 . S
C1435 H1423 0.959 . S
C1435 C1433 1.561 . S
C1436 C1433 1.526 . S
C1436 C1437 1.396 . S
C1436 C1441 1.390 . S
C1437 C1431 1.465 . S
C1437 C1436 1.396 . S
C1437 C1438 1.399 . S
C1438 H1424 0.929 . S
C1438 C1437 1.399 . S
C1438 C1439 1.385 . S
C1439 H1425 0.931 . S
C1439 C1438 1.385 . S
C1439 C1440 1.389 . S
C1440 C1439 1.389 . S
C1440 C1441 1.387 . S
C1441 H1426 0.930 . S
C1441 C1436 1.390 . S
C1441 C1440 1.387 . S
H1442 C1454 0.930 . S
H1443 C1456 0.930 . S
H1444 C1457 0.930 . S
H1445 C1461 0.959 . S
H1446 C1461 0.959 . S
H1447 C1461 0.961 . S
H1448 C1462 0.960 . S
H1449 C1462 0.961 . S
H1450 C1462 0.959 . S
H1451 C1465 0.929 . S
H1452 C1466 0.931 . S
H1453 C1468 0.930 . S
C1454 H1442 0.930 . S
C1454 C1455 1.399 . S
C1454 C1459 1.399 . S
C1455 C1454 1.399 . S
C1455 C1456 1.376 . S
C1456 H1443 0.930 . S
C1456 C1455 1.376 . S
C1456 C1457 1.388 . S
C1457 H1444 0.930 . S
C1457 C1456 1.388 . S
C1457 C1458 1.390 . S
C1458 C1457 1.390 . S
C1458 C1459 1.394 . S
C1458 C1464 1.465 . S
C1459 C1454 1.399 . S
C1459 C1458 1.394 . S
C1459 C1460 1.516 . S
C1460 C1459 1.516 . S
C1460 C1461 1.502 . S
C1460 C1462 1.561 . S
C1460 C1463 1.526 . S
C1461 H1445 0.959 . S
C1461 H1446 0.959 . S
C1461 H1447 0.961 . S
C1461 C1460 1.502 . S
C1462 H1448 0.960 . S
C1462 H1449 0.961 . S
C1462 H1450 0.959 . S
C1462 C1460 1.561 . S
C1463 C1460 1.526 . S
C1463 C1464 1.396 . S
C1463 C1468 1.390 . S
C1464 C1458 1.465 . S
C1464 C1463 1.396 . S
C1464 C1465 1.399 . S
C1465 H1451 0.929 . S
C1465 C1464 1.399 . S
C1465 C1466 1.385 . S
C1466 H1452 0.931 . S
C1466 C1465 1.385 . S
C1466 C1467 1.389 . S
C1467 C1466 1.389 . S
C1467 C1468 1.387 . S
C1468 H1453 0.930 . S
C1468 C1463 1.390 . S
C1468 C1467 1.387 . S
H1469 C1481 0.930 . S
H1470 C1483 0.930 . S
H1471 C1484 0.930 . S
H1472 C1488 0.959 . S
H1473 C1488 0.959 . S
H1474 C1488 0.961 . S
H1475 C1489 0.960 . S
H1476 C1489 0.961 1_545 S
H1477 C1489 0.959 . S
H1478 C1492 0.929 . S
H1479 C1493 0.931 . S
H1480 C1495 0.930 1_545 S
C1481 H1469 0.930 . S
C1481 C1482 1.399 . S
C1481 C1486 1.399 . S
C1482 C1481 1.399 . S
C1482 C1483 1.376 . S
C1483 H1470 0.930 . S
C1483 C1482 1.376 . S
C1483 C1484 1.388 . S
C1484 H1471 0.930 . S
C1484 C1483 1.388 . S
C1484 C1485 1.390 . S
C1485 C1484 1.390 . S
C1485 C1486 1.394 . S
C1485 C1491 1.465 . S
C1486 C1481 1.399 . S
C1486 C1485 1.394 . S
C1486 C1487 1.516 . S
C1487 C1486 1.516 . S
C1487 C1488 1.502 . S
C1487 C1489 1.561 . S
C1487 C1490 1.526 . S
C1488 H1472 0.959 . S
C1488 H1473 0.959 . S
C1488 H1474 0.961 . S
C1488 C1487 1.502 . S
C1489 H1475 0.960 . S
C1489 H1476 0.961 1_565 S
C1489 H1477 0.959 . S
C1489 C1487 1.561 . S
C1490 C1487 1.526 . S
C1490 C1491 1.396 . S
C1490 C1495 1.390 . S
C1491 C1485 1.465 . S
C1491 C1490 1.396 . S
C1491 C1492 1.399 . S
C1492 H1478 0.929 . S
C1492 C1491 1.399 . S
C1492 C1493 1.385 . S
C1493 H1479 0.931 . S
C1493 C1492 1.385 . S
C1493 C1494 1.389 . S
C1494 C1493 1.389 . S
C1494 C1495 1.387 . S
C1495 H1480 0.930 1_565 S
C1495 C1490 1.390 . S
C1495 C1494 1.387 . S
H1496 C1508 0.930 . S
H1497 C1510 0.930 . S
H1498 C1511 0.930 . S
H1499 C1515 0.959 . S
H1500 C1515 0.959 . S
H1501 C1515 0.961 . S
H1502 C1516 0.960 . S
H1503 C1516 0.961 . S
H1504 C1516 0.959 . S
H1505 C1519 0.929 . S
H1506 C1520 0.931 . S
H1507 C1522 0.930 . S
C1508 H1496 0.930 . S
C1508 C1509 1.399 . S
C1508 C1513 1.399 . S
C1509 C1508 1.399 . S
C1509 C1510 1.376 . S
C1510 H1497 0.930 . S
C1510 C1509 1.376 . S
C1510 C1511 1.388 . S
C1511 H1498 0.930 . S
C1511 C1510 1.388 . S
C1511 C1512 1.390 . S
C1512 C1511 1.390 . S
C1512 C1513 1.394 . S
C1512 C1518 1.465 . S
C1513 C1508 1.399 . S
C1513 C1512 1.394 . S
C1513 C1514 1.516 . S
C1514 C1513 1.516 . S
C1514 C1515 1.502 . S
C1514 C1516 1.561 . S
C1514 C1517 1.526 . S
C1515 H1499 0.959 . S
C1515 H1500 0.959 . S
C1515 H1501 0.961 . S
C1515 C1514 1.502 . S
C1516 H1502 0.960 . S
C1516 H1503 0.961 . S
C1516 H1504 0.959 . S
C1516 C1514 1.561 . S
C1517 C1514 1.526 . S
C1517 C1518 1.396 . S
C1517 C1522 1.390 . S
C1518 C1512 1.465 . S
C1518 C1517 1.396 . S
C1518 C1519 1.399 . S
C1519 H1505 0.929 . S
C1519 C1518 1.399 . S
C1519 C1520 1.385 . S
C1520 H1506 0.931 . S
C1520 C1519 1.385 . S
C1520 C1521 1.389 . S
C1521 C1520 1.389 . S
C1521 C1522 1.387 . S
C1522 H1507 0.930 . S
C1522 C1517 1.390 . S
C1522 C1521 1.387 . S
H1523 C1535 0.930 1_545 S
H1524 C1537 0.930 . S
H1525 C1538 0.930 . S
H1526 C1542 0.959 . S
H1527 C1542 0.959 . S
H1528 C1542 0.961 . S
H1529 C1543 0.960 1_545 S
H1530 C1543 0.961 . S
H1531 C1543 0.959 . S
H1532 C1546 0.929 . S
H1533 C1547 0.931 . S
H1534 C1549 0.930 . S
C1535 H1523 0.930 1_565 S
C1535 C1536 1.399 . S
C1535 C1540 1.399 . S
C1536 C1535 1.399 . S
C1536 C1537 1.376 . S
C1537 H1524 0.930 . S
C1537 C1536 1.376 . S
C1537 C1538 1.388 . S
C1538 H1525 0.930 . S
C1538 C1537 1.388 . S
C1538 C1539 1.390 . S
C1539 C1538 1.390 . S
C1539 C1540 1.394 . S
C1539 C1545 1.465 . S
C1540 C1535 1.399 . S
C1540 C1539 1.394 . S
C1540 C1541 1.516 . S
C1541 C1540 1.516 . S
C1541 C1542 1.502 . S
C1541 C1543 1.561 . S
C1541 C1544 1.526 . S
C1542 H1526 0.959 . S
C1542 H1527 0.959 . S
C1542 H1528 0.961 . S
C1542 C1541 1.502 . S
C1543 H1529 0.960 1_565 S
C1543 H1530 0.961 . S
C1543 H1531 0.959 . S
C1543 C1541 1.561 . S
C1544 C1541 1.526 . S
C1544 C1545 1.396 . S
C1544 C1549 1.390 . S
C1545 C1539 1.465 . S
C1545 C1544 1.396 . S
C1545 C1546 1.399 . S
C1546 H1532 0.929 . S
C1546 C1545 1.399 . S
C1546 C1547 1.385 . S
C1547 H1533 0.931 . S
C1547 C1546 1.385 . S
C1547 C1548 1.389 . S
C1548 C1547 1.389 . S
C1548 C1549 1.387 . S
C1549 H1534 0.930 . S
C1549 C1544 1.390 . S
C1549 C1548 1.387 . S
H1550 C1562 0.930 . S
H1551 C1564 0.930 . S
H1552 C1565 0.930 . S
H1553 C1569 0.959 . S
H1554 C1569 0.959 . S
H1555 C1569 0.961 . S
H1556 C1570 0.960 . S
H1557 C1570 0.961 . S
H1558 C1570 0.959 . S
H1559 C1573 0.929 . S
H1560 C1574 0.931 . S
H1561 C1576 0.930 . S
C1562 H1550 0.930 . S
C1562 C1563 1.399 . S
C1562 C1567 1.399 . S
C1563 C1562 1.399 . S
C1563 C1564 1.376 . S
C1564 H1551 0.930 . S
C1564 C1563 1.376 . S
C1564 C1565 1.388 . S
C1565 H1552 0.930 . S
C1565 C1564 1.388 . S
C1565 C1566 1.390 . S
C1566 C1565 1.390 . S
C1566 C1567 1.394 . S
C1566 C1572 1.465 . S
C1567 C1562 1.399 . S
C1567 C1566 1.394 . S
C1567 C1568 1.516 . S
C1568 C1567 1.516 . S
C1568 C1569 1.502 . S
C1568 C1570 1.561 . S
C1568 C1571 1.526 . S
C1569 H1553 0.959 . S
C1569 H1554 0.959 . S
C1569 H1555 0.961 . S
C1569 C1568 1.502 . S
C1570 H1556 0.960 . S
C1570 H1557 0.961 . S
C1570 H1558 0.959 . S
C1570 C1568 1.561 . S
C1571 C1568 1.526 . S
C1571 C1572 1.396 . S
C1571 C1576 1.390 . S
C1572 C1566 1.465 . S
C1572 C1571 1.396 . S
C1572 C1573 1.399 . S
C1573 H1559 0.929 . S
C1573 C1572 1.399 . S
C1573 C1574 1.385 . S
C1574 H1560 0.931 . S
C1574 C1573 1.385 . S
C1574 C1575 1.389 . S
C1575 C1574 1.389 . S
C1575 C1576 1.387 . S
C1576 H1561 0.930 . S
C1576 C1571 1.390 . S
C1576 C1575 1.387 . S
H1577 C1589 0.930 1_565 S
H1578 C1591 0.930 . S
H1579 C1592 0.930 . S
H1580 C1596 0.959 . S
H1581 C1596 0.959 . S
H1582 C1596 0.961 1_565 S
H1583 C1597 0.960 . S
H1584 C1597 0.961 . S
H1585 C1597 0.959 . S
H1586 C1600 0.929 . S
H1587 C1601 0.931 . S
H1588 C1603 0.930 . S
C1589 H1577 0.930 1_545 S
C1589 C1590 1.399 . S
C1589 C1594 1.399 . S
C1590 C1589 1.399 . S
C1590 C1591 1.376 . S
C1591 H1578 0.930 . S
C1591 C1590 1.376 . S
C1591 C1592 1.388 . S
C1592 H1579 0.930 . S
C1592 C1591 1.388 . S
C1592 C1593 1.390 . S
C1593 C1592 1.390 . S
C1593 C1594 1.394 . S
C1593 C1599 1.465 . S
C1594 C1589 1.399 . S
C1594 C1593 1.394 . S
C1594 C1595 1.516 . S
C1595 C1594 1.516 . S
C1595 C1596 1.502 . S
C1595 C1597 1.561 . S
C1595 C1598 1.526 . S
C1596 H1580 0.959 . S
C1596 H1581 0.959 . S
C1596 H1582 0.961 1_545 S
C1596 C1595 1.502 . S
C1597 H1583 0.960 . S
C1597 H1584 0.961 . S
C1597 H1585 0.959 . S
C1597 C1595 1.561 . S
C1598 C1595 1.526 . S
C1598 C1599 1.396 . S
C1598 C1603 1.390 . S
C1599 C1593 1.465 . S
C1599 C1598 1.396 . S
C1599 C1600 1.399 . S
C1600 H1586 0.929 . S
C1600 C1599 1.399 . S
C1600 C1601 1.385 . S
C1601 H1587 0.931 . S
C1601 C1600 1.385 . S
C1601 C1602 1.389 . S
C1602 C1601 1.389 . S
C1602 C1603 1.387 . S
C1603 H1588 0.930 . S
C1603 C1598 1.390 . S
C1603 C1602 1.387 . S
H1604 C1616 0.930 . S
H1605 C1618 0.930 . S
H1606 C1619 0.930 . S
H1607 C1623 0.959 . S
H1608 C1623 0.959 . S
H1609 C1623 0.961 . S
H1610 C1624 0.960 . S
H1611 C1624 0.961 . S
H1612 C1624 0.959 . S
H1613 C1627 0.929 . S
H1614 C1628 0.931 . S
H1615 C1630 0.930 . S
C1616 H1604 0.930 . S
C1616 C1617 1.399 . S
C1616 C1621 1.399 . S
C1617 C1616 1.399 . S
C1617 C1618 1.376 . S
C1618 H1605 0.930 . S
C1618 C1617 1.376 . S
C1618 C1619 1.388 . S
C1619 H1606 0.930 . S
C1619 C1618 1.388 . S
C1619 C1620 1.390 . S
C1620 C1619 1.390 . S
C1620 C1621 1.394 . S
C1620 C1626 1.465 . S
C1621 C1616 1.399 . S
C1621 C1620 1.394 . S
C1621 C1622 1.516 . S
C1622 C1621 1.516 . S
C1622 C1623 1.502 . S
C1622 C1624 1.561 . S
C1622 C1625 1.526 . S
C1623 H1607 0.959 . S
C1623 H1608 0.959 . S
C1623 H1609 0.961 . S
C1623 C1622 1.502 . S
C1624 H1610 0.960 . S
C1624 H1611 0.961 . S
C1624 H1612 0.959 . S
C1624 C1622 1.561 . S
C1625 C1622 1.526 . S
C1625 C1626 1.396 . S
C1625 C1630 1.390 . S
C1626 C1620 1.465 . S
C1626 C1625 1.396 . S
C1626 C1627 1.399 . S
C1627 H1613 0.929 . S
C1627 C1626 1.399 . S
C1627 C1628 1.385 . S
C1628 H1614 0.931 . S
C1628 C1627 1.385 . S
C1628 C1629 1.389 . S
C1629 C1628 1.389 . S
C1629 C1630 1.387 . S
C1630 H1615 0.930 . S
C1630 C1625 1.390 . S
C1630 C1629 1.387 . S
H1631 C1643 0.930 . S
H1632 C1645 0.930 . S
H1633 C1646 0.930 . S
H1634 C1650 0.959 . S
H1635 C1650 0.959 . S
H1636 C1650 0.961 . S
H1637 C1651 0.960 . S
H1638 C1651 0.961 . S
H1639 C1651 0.959 . S
H1640 C1654 0.929 . S
H1641 C1655 0.931 . S
H1642 C1657 0.930 . S
C1643 H1631 0.930 . S
C1643 C1644 1.399 . S
C1643 C1648 1.399 . S
C1644 C1643 1.399 . S
C1644 C1645 1.376 . S
C1645 H1632 0.930 . S
C1645 C1644 1.376 . S
C1645 C1646 1.388 . S
C1646 H1633 0.930 . S
C1646 C1645 1.388 . S
C1646 C1647 1.390 . S
C1647 C1646 1.390 . S
C1647 C1648 1.394 . S
C1647 C1653 1.465 . S
C1648 C1643 1.399 . S
C1648 C1647 1.394 . S
C1648 C1649 1.516 . S
C1649 C1648 1.516 . S
C1649 C1650 1.502 . S
C1649 C1651 1.561 . S
C1649 C1652 1.526 . S
C1650 H1634 0.959 . S
C1650 H1635 0.959 . S
C1650 H1636 0.961 . S
C1650 C1649 1.502 . S
C1651 H1637 0.960 . S
C1651 H1638 0.961 . S
C1651 H1639 0.959 . S
C1651 C1649 1.561 . S
C1652 C1649 1.526 . S
C1652 C1653 1.396 . S
C1652 C1657 1.390 . S
C1653 C1647 1.465 . S
C1653 C1652 1.396 . S
C1653 C1654 1.399 . S
C1654 H1640 0.929 . S
C1654 C1653 1.399 . S
C1654 C1655 1.385 . S
C1655 H1641 0.931 . S
C1655 C1654 1.385 . S
C1655 C1656 1.389 . S
C1656 C1655 1.389 . S
C1656 C1657 1.387 . S
C1657 H1642 0.930 . S
C1657 C1652 1.390 . S
C1657 C1656 1.387 . S
H1658 C1670 0.930 . S
H1659 C1672 0.930 . S
H1660 C1673 0.930 . S
H1661 C1677 0.959 . S
H1662 C1677 0.959 . S
H1663 C1677 0.961 . S
H1664 C1678 0.960 . S
H1665 C1678 0.961 . S
H1666 C1678 0.959 . S
H1667 C1681 0.929 . S
H1668 C1682 0.931 . S
H1669 C1684 0.930 . S
C1670 H1658 0.930 . S
C1670 C1671 1.399 . S
C1670 C1675 1.399 . S
C1671 C1670 1.399 . S
C1671 C1672 1.376 . S
C1672 H1659 0.930 . S
C1672 C1671 1.376 . S
C1672 C1673 1.388 . S
C1673 H1660 0.930 . S
C1673 C1672 1.388 . S
C1673 C1674 1.390 . S
C1674 C1673 1.390 . S
C1674 C1675 1.394 . S
C1674 C1680 1.465 . S
C1675 C1670 1.399 . S
C1675 C1674 1.394 . S
C1675 C1676 1.516 . S
C1676 C1675 1.516 . S
C1676 C1677 1.502 . S
C1676 C1678 1.561 . S
C1676 C1679 1.526 . S
C1677 H1661 0.959 . S
C1677 H1662 0.959 . S
C1677 H1663 0.961 . S
C1677 C1676 1.502 . S
C1678 H1664 0.960 . S
C1678 H1665 0.961 . S
C1678 H1666 0.959 . S
C1678 C1676 1.561 . S
C1679 C1676 1.526 . S
C1679 C1680 1.396 . S
C1679 C1684 1.390 . S
C1680 C1674 1.465 . S
C1680 C1679 1.396 . S
C1680 C1681 1.399 . S
C1681 H1667 0.929 . S
C1681 C1680 1.399 . S
C1681 C1682 1.385 . S
C1682 H1668 0.931 . S
C1682 C1681 1.385 . S
C1682 C1683 1.389 . S
C1683 C1682 1.389 . S
C1683 C1684 1.387 . S
C1684 H1669 0.930 . S
C1684 C1679 1.390 . S
C1684 C1683 1.387 . S
H1685 C1697 0.930 . S
H1686 C1699 0.930 . S
H1687 C1700 0.930 . S
H1688 C1704 0.959 . S
H1689 C1704 0.959 . S
H1690 C1704 0.961 . S
H1691 C1705 0.960 . S
H1692 C1705 0.961 . S
H1693 C1705 0.959 . S
H1694 C1708 0.935 . S
H1695 C1709 0.931 . S
H1696 C1711 0.930 . S
C1697 H1685 0.930 . S
C1697 C1698 1.399 . S
C1697 C1702 1.399 . S
C1698 C1697 1.399 . S
C1698 C1699 1.376 . S
C1699 H1686 0.930 . S
C1699 C1698 1.376 . S
C1699 C1700 1.388 . S
C1700 H1687 0.930 . S
C1700 C1699 1.388 . S
C1700 C1701 1.390 . S
C1701 C1700 1.390 . S
C1701 C1702 1.394 . S
C1701 C1707 1.465 . S
C1702 C1697 1.399 . S
C1702 C1701 1.394 . S
C1702 C1703 1.516 . S
C1703 C1702 1.516 . S
C1703 C1704 1.502 . S
C1703 C1705 1.561 . S
C1703 C1706 1.526 . S
C1704 H1688 0.959 . S
C1704 H1689 0.959 . S
C1704 H1690 0.961 . S
C1704 C1703 1.502 . S
C1705 H1691 0.960 . S
C1705 H1692 0.961 . S
C1705 H1693 0.959 . S
C1705 C1703 1.561 . S
C1706 C1703 1.526 . S
C1706 C1707 1.396 . S
C1706 C1711 1.390 . S
C1707 C1701 1.465 . S
C1707 C1706 1.396 . S
C1707 C1708 1.399 . S
C1708 H1694 0.935 . S
C1708 C1707 1.399 . S
C1708 C1709 1.385 1_545 S
C1709 H1695 0.931 . S
C1709 C1708 1.385 1_565 S
C1709 C1710 1.390 1_565 S
C1710 C1709 1.390 1_545 S
C1710 C1711 1.385 . S
C1711 H1696 0.930 . S
C1711 C1706 1.390 . S
C1711 C1710 1.385 . S
H1712 C1724 0.930 . S
H1713 C1726 0.930 . S
H1714 C1727 0.930 . S
H1715 C1731 0.959 . S
H1716 C1731 0.959 . S
H1717 C1731 0.961 . S
H1718 C1732 0.960 . S
H1719 C1732 0.961 . S
H1720 C1732 0.959 . S
H1721 C1735 0.929 . S
H1722 C1736 0.931 . S
H1723 C1738 0.930 . S
C1724 H1712 0.930 . S
C1724 C1725 1.399 . S
C1724 C1729 1.399 . S
C1725 C1724 1.399 . S
C1725 C1726 1.376 . S
C1726 H1713 0.930 . S
C1726 C1725 1.376 . S
C1726 C1727 1.388 . S
C1727 H1714 0.930 . S
C1727 C1726 1.388 . S
C1727 C1728 1.390 . S
C1728 C1727 1.390 . S
C1728 C1729 1.394 . S
C1728 C1734 1.465 . S
C1729 C1724 1.399 . S
C1729 C1728 1.394 . S
C1729 C1730 1.516 . S
C1730 C1729 1.516 . S
C1730 C1731 1.502 . S
C1730 C1732 1.561 . S
C1730 C1733 1.526 . S
C1731 H1715 0.959 . S
C1731 H1716 0.959 . S
C1731 H1717 0.961 . S
C1731 C1730 1.502 . S
C1732 H1718 0.960 . S
C1732 H1719 0.961 . S
C1732 H1720 0.959 . S
C1732 C1730 1.561 . S
C1733 C1730 1.526 . S
C1733 C1734 1.396 . S
C1733 C1738 1.390 . S
C1734 C1728 1.465 . S
C1734 C1733 1.396 . S
C1734 C1735 1.399 . S
C1735 H1721 0.929 . S
C1735 C1734 1.399 . S
C1735 C1736 1.385 . S
C1736 H1722 0.931 . S
C1736 C1735 1.385 . S
C1736 C1737 1.389 . S
C1737 C1736 1.389 . S
C1737 C1738 1.387 . S
C1738 H1723 0.930 . S
C1738 C1733 1.390 . S
C1738 C1737 1.387 . S
H1739 C1751 0.930 . S
H1740 C1753 0.930 . S
H1741 C1754 0.930 . S
H1742 C1758 0.959 . S
H1743 C1758 0.959 . S
H1744 C1758 0.961 . S
H1745 C1759 0.960 . S
H1746 C1759 0.961 . S
H1747 C1759 0.959 . S
H1748 C1762 0.929 . S
H1749 C1763 0.931 . S
H1750 C1765 0.930 . S
C1751 H1739 0.930 . S
C1751 C1752 1.399 . S
C1751 C1756 1.399 . S
C1752 C1751 1.399 . S
C1752 C1753 1.376 . S
C1753 H1740 0.930 . S
C1753 C1752 1.376 . S
C1753 C1754 1.388 . S
C1754 H1741 0.930 . S
C1754 C1753 1.388 . S
C1754 C1755 1.390 . S
C1755 C1754 1.390 . S
C1755 C1756 1.394 . S
C1755 C1761 1.465 . S
C1756 C1751 1.399 . S
C1756 C1755 1.394 . S
C1756 C1757 1.516 . S
C1757 C1756 1.516 . S
C1757 C1758 1.502 . S
C1757 C1759 1.561 . S
C1757 C1760 1.526 . S
C1758 H1742 0.959 . S
C1758 H1743 0.959 . S
C1758 H1744 0.961 . S
C1758 C1757 1.502 . S
C1759 H1745 0.960 . S
C1759 H1746 0.961 . S
C1759 H1747 0.959 . S
C1759 C1757 1.561 . S
C1760 C1757 1.526 . S
C1760 C1761 1.396 . S
C1760 C1765 1.390 . S
C1761 C1755 1.465 . S
C1761 C1760 1.396 . S
C1761 C1762 1.399 . S
C1762 H1748 0.929 . S
C1762 C1761 1.399 . S
C1762 C1763 1.385 . S
C1763 H1749 0.931 . S
C1763 C1762 1.385 . S
C1763 C1764 1.389 . S
C1764 C1763 1.389 . S
C1764 C1765 1.387 . S
C1765 H1750 0.930 . S
C1765 C1760 1.390 . S
C1765 C1764 1.387 . S
H1766 C1778 0.930 . S
H1767 C1780 0.930 . S
H1768 C1781 0.930 . S
H1769 C1785 0.959 . S
H1770 C1785 0.959 . S
H1771 C1785 0.961 . S
H1772 C1786 0.960 . S
H1773 C1786 0.961 . S
H1774 C1786 0.959 . S
H1775 C1789 0.929 . S
H1776 C1790 0.931 . S
H1777 C1792 0.930 . S
C1778 H1766 0.930 . S
C1778 C1779 1.399 . S
C1778 C1783 1.399 . S
C1779 C1778 1.399 . S
C1779 C1780 1.376 . S
C1780 H1767 0.930 . S
C1780 C1779 1.376 . S
C1780 C1781 1.388 . S
C1781 H1768 0.930 . S
C1781 C1780 1.388 . S
C1781 C1782 1.390 . S
C1782 C1781 1.390 . S
C1782 C1783 1.394 . S
C1782 C1788 1.465 . S
C1783 C1778 1.399 . S
C1783 C1782 1.394 . S
C1783 C1784 1.516 . S
C1784 C1783 1.516 . S
C1784 C1785 1.502 . S
C1784 C1786 1.561 . S
C1784 C1787 1.526 . S
C1785 H1769 0.959 . S
C1785 H1770 0.959 . S
C1785 H1771 0.961 . S
C1785 C1784 1.502 . S
C1786 H1772 0.960 . S
C1786 H1773 0.961 . S
C1786 H1774 0.959 . S
C1786 C1784 1.561 . S
C1787 C1784 1.526 . S
C1787 C1788 1.396 . S
C1787 C1792 1.390 . S
C1788 C1782 1.465 . S
C1788 C1787 1.396 . S
C1788 C1789 1.399 . S
C1789 H1775 0.929 . S
C1789 C1788 1.399 . S
C1789 C1790 1.385 . S
C1790 H1776 0.931 . S
C1790 C1789 1.385 . S
C1790 C1791 1.389 . S
C1791 C1790 1.389 . S
C1791 C1792 1.387 . S
C1792 H1777 0.930 . S
C1792 C1787 1.390 . S
C1792 C1791 1.387 . S
H1793 C1805 0.930 . S
H1794 C1807 0.930 . S
H1795 C1808 0.930 . S
H1796 C1812 0.959 . S
H1797 C1812 0.959 . S
H1798 C1812 0.961 . S
H1799 C1813 0.960 . S
H1800 C1813 0.961 . S
H1801 C1813 0.959 . S
H1802 C1816 0.929 . S
H1803 C1817 0.931 . S
H1804 C1819 0.930 . S
C1805 H1793 0.930 . S
C1805 C1806 1.399 . S
C1805 C1810 1.399 . S
C1806 C1805 1.399 . S
C1806 C1807 1.376 . S
C1807 H1794 0.930 . S
C1807 C1806 1.376 . S
C1807 C1808 1.388 . S
C1808 H1795 0.930 . S
C1808 C1807 1.388 . S
C1808 C1809 1.390 . S
C1809 C1808 1.390 . S
C1809 C1810 1.394 . S
C1809 C1815 1.465 . S
C1810 C1805 1.399 . S
C1810 C1809 1.394 . S
C1810 C1811 1.516 . S
C1811 C1810 1.516 . S
C1811 C1812 1.502 . S
C1811 C1813 1.561 . S
C1811 C1814 1.526 . S
C1812 H1796 0.959 . S
C1812 H1797 0.959 . S
C1812 H1798 0.961 . S
C1812 C1811 1.502 . S
C1813 H1799 0.960 . S
C1813 H1800 0.961 . S
C1813 H1801 0.959 . S
C1813 C1811 1.561 . S
C1814 C1811 1.526 . S
C1814 C1815 1.396 . S
C1814 C1819 1.390 . S
C1815 C1809 1.465 . S
C1815 C1814 1.396 . S
C1815 C1816 1.399 . S
C1816 H1802 0.929 . S
C1816 C1815 1.399 . S
C1816 C1817 1.385 . S
C1817 H1803 0.931 . S
C1817 C1816 1.385 . S
C1817 C1818 1.389 . S
C1818 C1817 1.389 . S
C1818 C1819 1.387 . S
C1819 H1804 0.930 . S
C1819 C1814 1.390 . S
C1819 C1818 1.387 . S
H1820 C1832 0.930 . S
H1821 C1834 0.930 . S
H1822 C1835 0.930 . S
H1823 C1839 0.959 . S
H1824 C1839 0.959 . S
H1825 C1839 0.961 . S
H1826 C1840 0.960 . S
H1827 C1840 0.961 . S
H1828 C1840 0.959 . S
H1829 C1843 0.929 . S
H1830 C1844 0.931 . S
H1831 C1846 0.930 . S
C1832 H1820 0.930 . S
C1832 C1833 1.399 . S
C1832 C1837 1.399 . S
C1833 C1832 1.399 . S
C1833 C1834 1.376 . S
C1834 H1821 0.930 . S
C1834 C1833 1.376 . S
C1834 C1835 1.388 . S
C1835 H1822 0.930 . S
C1835 C1834 1.388 . S
C1835 C1836 1.390 . S
C1836 C1835 1.390 . S
C1836 C1837 1.394 . S
C1836 C1842 1.465 . S
C1837 C1832 1.399 . S
C1837 C1836 1.394 . S
C1837 C1838 1.516 . S
C1838 C1837 1.516 . S
C1838 C1839 1.502 . S
C1838 C1840 1.561 . S
C1838 C1841 1.526 . S
C1839 H1823 0.959 . S
C1839 H1824 0.959 . S
C1839 H1825 0.961 . S
C1839 C1838 1.502 . S
C1840 H1826 0.960 . S
C1840 H1827 0.961 . S
C1840 H1828 0.959 . S
C1840 C1838 1.561 . S
C1841 C1838 1.526 . S
C1841 C1842 1.396 . S
C1841 C1846 1.390 . S
C1842 C1836 1.465 . S
C1842 C1841 1.396 . S
C1842 C1843 1.399 . S
C1843 H1829 0.929 . S
C1843 C1842 1.399 . S
C1843 C1844 1.385 . S
C1844 H1830 0.931 . S
C1844 C1843 1.385 . S
C1844 C1845 1.389 . S
C1845 C1844 1.389 . S
C1845 C1846 1.387 . S
C1846 H1831 0.930 . S
C1846 C1841 1.390 . S
C1846 C1845 1.387 . S
H1847 C1859 0.930 . S
H1848 C1861 0.930 . S
H1849 C1862 0.930 . S
H1850 C1866 0.959 . S
H1851 C1866 0.959 . S
H1852 C1866 0.961 . S
H1853 C1867 0.960 . S
H1854 C1867 0.961 . S
H1855 C1867 0.959 . S
H1856 C1870 0.929 . S
H1857 C1871 0.931 . S
H1858 C1873 0.930 . S
C1859 H1847 0.930 . S
C1859 C1860 1.399 . S
C1859 C1864 1.399 . S
C1860 C1859 1.399 . S
C1860 C1861 1.376 . S
C1861 H1848 0.930 . S
C1861 C1860 1.376 . S
C1861 C1862 1.388 . S
C1862 H1849 0.930 . S
C1862 C1861 1.388 . S
C1862 C1863 1.390 . S
C1863 C1862 1.390 . S
C1863 C1864 1.394 . S
C1863 C1869 1.465 . S
C1864 C1859 1.399 . S
C1864 C1863 1.394 . S
C1864 C1865 1.516 . S
C1865 C1864 1.516 . S
C1865 C1866 1.502 . S
C1865 C1867 1.561 . S
C1865 C1868 1.526 . S
C1866 H1850 0.959 . S
C1866 H1851 0.959 . S
C1866 H1852 0.961 . S
C1866 C1865 1.502 . S
C1867 H1853 0.960 . S
C1867 H1854 0.961 . S
C1867 H1855 0.959 . S
C1867 C1865 1.561 . S
C1868 C1865 1.526 . S
C1868 C1869 1.396 . S
C1868 C1873 1.390 . S
C1869 C1863 1.465 . S
C1869 C1868 1.396 . S
C1869 C1870 1.399 . S
C1870 H1856 0.929 . S
C1870 C1869 1.399 . S
C1870 C1871 1.385 . S
C1871 H1857 0.931 . S
C1871 C1870 1.385 . S
C1871 C1872 1.389 . S
C1872 C1871 1.389 . S
C1872 C1873 1.387 . S
C1873 H1858 0.930 . S
C1873 C1868 1.390 . S
C1873 C1872 1.387 . S
H1874 C1886 0.930 . S
H1875 C1888 0.930 . S
H1876 C1889 0.930 . S
H1877 C1893 0.959 . S
H1878 C1893 0.959 . S
H1879 C1893 0.961 . S
H1880 C1894 0.960 . S
H1881 C1894 0.961 . S
H1882 C1894 0.959 . S
H1883 C1897 0.929 . S
H1884 C1898 0.931 . S
H1885 C1900 0.930 . S
C1886 H1874 0.930 . S
C1886 C1887 1.399 . S
C1886 C1891 1.399 . S
C1887 C1886 1.399 . S
C1887 C1888 1.376 . S
C1888 H1875 0.930 . S
C1888 C1887 1.376 . S
C1888 C1889 1.388 . S
C1889 H1876 0.930 . S
C1889 C1888 1.388 . S
C1889 C1890 1.390 . S
C1890 C1889 1.390 . S
C1890 C1891 1.394 . S
C1890 C1896 1.465 . S
C1891 C1886 1.399 . S
C1891 C1890 1.394 . S
C1891 C1892 1.516 . S
C1892 C1891 1.516 . S
C1892 C1893 1.502 . S
C1892 C1894 1.561 . S
C1892 C1895 1.526 . S
C1893 H1877 0.959 . S
C1893 H1878 0.959 . S
C1893 H1879 0.961 . S
C1893 C1892 1.502 . S
C1894 H1880 0.960 . S
C1894 H1881 0.961 . S
C1894 H1882 0.959 . S
C1894 C1892 1.561 . S
C1895 C1892 1.526 . S
C1895 C1896 1.396 . S
C1895 C1900 1.390 . S
C1896 C1890 1.465 . S
C1896 C1895 1.396 . S
C1896 C1897 1.399 . S
C1897 H1883 0.929 . S
C1897 C1896 1.399 . S
C1897 C1898 1.385 . S
C1898 H1884 0.931 . S
C1898 C1897 1.385 . S
C1898 C1899 1.389 . S
C1899 C1898 1.389 . S
C1899 C1900 1.387 . S
C1900 H1885 0.930 . S
C1900 C1895 1.390 . S
C1900 C1899 1.387 . S
H1901 C1913 0.930 . S
H1902 C1915 0.930 . S
H1903 C1916 0.930 . S
H1904 C1920 0.959 . S
H1905 C1920 0.959 . S
H1906 C1920 0.961 . S
H1907 C1921 0.960 . S
H1908 C1921 0.961 . S
H1909 C1921 0.959 . S
H1910 C1924 0.929 . S
H1911 C1925 0.931 . S
H1912 C1927 0.930 . S
C1913 H1901 0.930 . S
C1913 C1914 1.399 . S
C1913 C1918 1.399 . S
C1914 C1913 1.399 . S
C1914 C1915 1.376 . S
C1915 H1902 0.930 . S
C1915 C1914 1.376 . S
C1915 C1916 1.388 . S
C1916 H1903 0.930 . S
C1916 C1915 1.388 . S
C1916 C1917 1.390 . S
C1917 C1916 1.390 . S
C1917 C1918 1.394 . S
C1917 C1923 1.465 . S
C1918 C1913 1.399 . S
C1918 C1917 1.394 . S
C1918 C1919 1.516 . S
C1919 C1918 1.516 . S
C1919 C1920 1.502 . S
C1919 C1921 1.561 . S
C1919 C1922 1.526 . S
C1920 H1904 0.959 . S
C1920 H1905 0.959 . S
C1920 H1906 0.961 . S
C1920 C1919 1.502 . S
C1921 H1907 0.960 . S
C1921 H1908 0.961 . S
C1921 H1909 0.959 . S
C1921 C1919 1.561 . S
C1922 C1919 1.526 . S
C1922 C1923 1.396 . S
C1922 C1927 1.390 . S
C1923 C1917 1.465 . S
C1923 C1922 1.396 . S
C1923 C1924 1.399 . S
C1924 H1910 0.929 . S
C1924 C1923 1.399 . S
C1924 C1925 1.385 . S
C1925 H1911 0.931 . S
C1925 C1924 1.385 . S
C1925 C1926 1.389 . S
C1926 C1925 1.389 . S
C1926 C1927 1.387 . S
C1927 H1912 0.930 . S
C1927 C1922 1.390 . S
C1927 C1926 1.387 . S
H1928 C1940 0.930 . S
H1929 C1942 0.930 . S
H1930 C1943 0.930 . S
H1931 C1947 0.959 . S
H1932 C1947 0.959 . S
H1933 C1947 0.961 . S
H1934 C1948 0.960 . S
H1935 C1948 0.961 . S
H1936 C1948 0.959 . S
H1937 C1951 0.929 . S
H1938 C1952 0.931 . S
H1939 C1954 0.930 . S
C1940 H1928 0.930 . S
C1940 C1941 1.399 . S
C1940 C1945 1.399 . S
C1941 C1940 1.399 . S
C1941 C1942 1.376 . S
C1942 H1929 0.930 . S
C1942 C1941 1.376 . S
C1942 C1943 1.388 . S
C1943 H1930 0.930 . S
C1943 C1942 1.388 . S
C1943 C1944 1.390 . S
C1944 C1943 1.390 . S
C1944 C1945 1.394 . S
C1944 C1950 1.465 . S
C1945 C1940 1.399 . S
C1945 C1944 1.394 . S
C1945 C1946 1.516 . S
C1946 C1945 1.516 . S
C1946 C1947 1.502 . S
C1946 C1948 1.561 . S
C1946 C1949 1.526 . S
C1947 H1931 0.959 . S
C1947 H1932 0.959 . S
C1947 H1933 0.961 . S
C1947 C1946 1.502 . S
C1948 H1934 0.960 . S
C1948 H1935 0.961 . S
C1948 H1936 0.959 . S
C1948 C1946 1.561 . S
C1949 C1946 1.526 . S
C1949 C1950 1.396 . S
C1949 C1954 1.390 . S
C1950 C1944 1.465 . S
C1950 C1949 1.396 . S
C1950 C1951 1.399 . S
C1951 H1937 0.929 . S
C1951 C1950 1.399 . S
C1951 C1952 1.385 . S
C1952 H1938 0.931 . S
C1952 C1951 1.385 . S
C1952 C1953 1.389 . S
C1953 C1952 1.389 . S
C1953 C1954 1.387 . S
C1954 H1939 0.930 . S
C1954 C1949 1.390 . S
C1954 C1953 1.387 . S
H1955 C1967 0.930 . S
H1956 C1969 0.930 . S
H1957 C1970 0.930 . S
H1958 C1974 0.959 . S
H1959 C1974 0.959 . S
H1960 C1974 0.961 . S
H1961 C1975 0.960 . S
H1962 C1975 0.961 . S
H1963 C1975 0.959 . S
H1964 C1978 0.929 . S
H1965 C1979 0.931 . S
H1966 C1981 0.930 . S
C1967 H1955 0.930 . S
C1967 C1968 1.399 . S
C1967 C1972 1.399 . S
C1968 C1967 1.399 . S
C1968 C1969 1.376 . S
C1969 H1956 0.930 . S
C1969 C1968 1.376 . S
C1969 C1970 1.388 . S
C1970 H1957 0.930 . S
C1970 C1969 1.388 . S
C1970 C1971 1.390 . S
C1971 C1970 1.390 . S
C1971 C1972 1.394 . S
C1971 C1977 1.465 . S
C1972 C1967 1.399 . S
C1972 C1971 1.394 . S
C1972 C1973 1.516 . S
C1973 C1972 1.516 . S
C1973 C1974 1.502 . S
C1973 C1975 1.561 . S
C1973 C1976 1.526 . S
C1974 H1958 0.959 . S
C1974 H1959 0.959 . S
C1974 H1960 0.961 . S
C1974 C1973 1.502 . S
C1975 H1961 0.960 . S
C1975 H1962 0.961 . S
C1975 H1963 0.959 . S
C1975 C1973 1.561 . S
C1976 C1973 1.526 . S
C1976 C1977 1.396 . S
C1976 C1981 1.390 . S
C1977 C1971 1.465 . S
C1977 C1976 1.396 . S
C1977 C1978 1.399 . S
C1978 H1964 0.929 . S
C1978 C1977 1.399 . S
C1978 C1979 1.385 . S
C1979 H1965 0.931 . S
C1979 C1978 1.385 . S
C1979 C1980 1.389 . S
C1980 C1979 1.389 . S
C1980 C1981 1.387 . S
C1981 H1966 0.930 . S
C1981 C1976 1.390 . S
C1981 C1980 1.387 . S
H1982 C1994 0.930 . S
H1983 C1996 0.930 . S
H1984 C1997 0.930 . S
H1985 C2001 0.959 . S
H1986 C2001 0.959 . S
H1987 C2001 0.961 . S
H1988 C2002 0.960 . S
H1989 C2002 0.961 . S
H1990 C2002 0.959 . S
H1991 C2005 0.929 . S
H1992 C2006 0.931 . S
H1993 C2008 0.930 . S
C1994 H1982 0.930 . S
C1994 C1995 1.399 . S
C1994 C1999 1.399 . S
C1995 C1994 1.399 . S
C1995 C1996 1.376 . S
C1996 H1983 0.930 . S
C1996 C1995 1.376 . S
C1996 C1997 1.388 . S
C1997 H1984 0.930 . S
C1997 C1996 1.388 . S
C1997 C1998 1.390 . S
C1998 C1997 1.390 . S
C1998 C1999 1.394 . S
C1998 C2004 1.465 . S
C1999 C1994 1.399 . S
C1999 C1998 1.394 . S
C1999 C2000 1.516 . S
C2000 C1999 1.516 . S
C2000 C2001 1.502 . S
C2000 C2002 1.561 . S
C2000 C2003 1.526 . S
C2001 H1985 0.959 . S
C2001 H1986 0.959 . S
C2001 H1987 0.961 . S
C2001 C2000 1.502 . S
C2002 H1988 0.960 . S
C2002 H1989 0.961 . S
C2002 H1990 0.959 . S
C2002 C2000 1.561 . S
C2003 C2000 1.526 . S
C2003 C2004 1.396 . S
C2003 C2008 1.390 . S
C2004 C1998 1.465 . S
C2004 C2003 1.396 . S
C2004 C2005 1.399 . S
C2005 H1991 0.929 . S
C2005 C2004 1.399 . S
C2005 C2006 1.385 . S
C2006 H1992 0.931 . S
C2006 C2005 1.385 . S
C2006 C2007 1.389 . S
C2007 C2006 1.389 . S
C2007 C2008 1.387 . S
C2008 H1993 0.930 . S
C2008 C2003 1.390 . S
C2008 C2007 1.387 . S
H2009 C2021 0.930 . S
H2010 C2023 0.930 . S
H2011 C2024 0.930 . S
H2012 C2028 0.959 . S
H2013 C2028 0.959 . S
H2014 C2028 0.961 . S
H2015 C2029 0.960 . S
H2016 C2029 0.961 . S
H2017 C2029 0.959 . S
H2018 C2032 0.929 . S
H2019 C2033 0.931 . S
H2020 C2035 0.930 . S
C2021 H2009 0.930 . S
C2021 C2022 1.399 . S
C2021 C2026 1.399 . S
C2022 C2021 1.399 . S
C2022 C2023 1.376 . S
C2023 H2010 0.930 . S
C2023 C2022 1.376 . S
C2023 C2024 1.388 . S
C2024 H2011 0.930 . S
C2024 C2023 1.388 . S
C2024 C2025 1.390 . S
C2025 C2024 1.390 . S
C2025 C2026 1.394 . S
C2025 C2031 1.465 . S
C2026 C2021 1.399 . S
C2026 C2025 1.394 . S
C2026 C2027 1.516 . S
C2027 C2026 1.516 . S
C2027 C2028 1.502 . S
C2027 C2029 1.561 . S
C2027 C2030 1.526 . S
C2028 H2012 0.959 . S
C2028 H2013 0.959 . S
C2028 H2014 0.961 . S
C2028 C2027 1.502 . S
C2029 H2015 0.960 . S
C2029 H2016 0.961 . S
C2029 H2017 0.959 . S
C2029 C2027 1.561 . S
C2030 C2027 1.526 . S
C2030 C2031 1.396 . S
C2030 C2035 1.390 . S
C2031 C2025 1.465 . S
C2031 C2030 1.396 . S
C2031 C2032 1.399 . S
C2032 H2018 0.929 . S
C2032 C2031 1.399 . S
C2032 C2033 1.385 . S
C2033 H2019 0.931 . S
C2033 C2032 1.385 . S
C2033 C2034 1.389 . S
C2034 C2033 1.389 . S
C2034 C2035 1.387 . S
C2035 H2020 0.930 . S
C2035 C2030 1.390 . S
C2035 C2034 1.387 . S
H2036 C2048 0.930 . S
H2037 C2050 0.930 . S
H2038 C2051 0.930 . S
H2039 C2055 0.959 . S
H2040 C2055 0.959 . S
H2041 C2055 0.961 . S
H2042 C2056 0.960 . S
H2043 C2056 0.961 . S
H2044 C2056 0.959 . S
H2045 C2059 0.929 . S
H2046 C2060 0.931 . S
H2047 C2062 0.930 . S
C2048 H2036 0.930 . S
C2048 C2049 1.399 . S
C2048 C2053 1.399 . S
C2049 C2048 1.399 . S
C2049 C2050 1.376 . S
C2050 H2037 0.930 . S
C2050 C2049 1.376 . S
C2050 C2051 1.388 . S
C2051 H2038 0.930 . S
C2051 C2050 1.388 . S
C2051 C2052 1.390 . S
C2052 C2051 1.390 . S
C2052 C2053 1.394 . S
C2052 C2058 1.465 . S
C2053 C2048 1.399 . S
C2053 C2052 1.394 . S
C2053 C2054 1.516 . S
C2054 C2053 1.516 . S
C2054 C2055 1.502 . S
C2054 C2056 1.561 . S
C2054 C2057 1.526 . S
C2055 H2039 0.959 . S
C2055 H2040 0.959 . S
C2055 H2041 0.961 . S
C2055 C2054 1.502 . S
C2056 H2042 0.960 . S
C2056 H2043 0.961 . S
C2056 H2044 0.959 . S
C2056 C2054 1.561 . S
C2057 C2054 1.526 . S
C2057 C2058 1.396 . S
C2057 C2062 1.390 . S
C2058 C2052 1.465 . S
C2058 C2057 1.396 . S
C2058 C2059 1.399 . S
C2059 H2045 0.929 . S
C2059 C2058 1.399 . S
C2059 C2060 1.385 . S
C2060 H2046 0.931 . S
C2060 C2059 1.385 . S
C2060 C2061 1.389 . S
C2061 C2060 1.389 . S
C2061 C2062 1.387 . S
C2062 H2047 0.930 . S
C2062 C2057 1.390 . S
C2062 C2061 1.387 . S
H2063 C2075 0.930 . S
H2064 C2077 0.930 . S
H2065 C2078 0.930 . S
H2066 C2082 0.959 . S
H2067 C2082 0.959 . S
H2068 C2082 0.961 . S
H2069 C2083 0.960 . S
H2070 C2083 0.961 . S
H2071 C2083 0.959 . S
H2072 C2086 0.929 . S
H2073 C2087 0.931 . S
H2074 C2089 0.930 . S
C2075 H2063 0.930 . S
C2075 C2076 1.399 . S
C2075 C2080 1.399 . S
C2076 C2075 1.399 . S
C2076 C2077 1.376 . S
C2077 H2064 0.930 . S
C2077 C2076 1.376 . S
C2077 C2078 1.388 . S
C2078 H2065 0.930 . S
C2078 C2077 1.388 . S
C2078 C2079 1.390 . S
C2079 C2078 1.390 . S
C2079 C2080 1.394 . S
C2079 C2085 1.465 . S
C2080 C2075 1.399 . S
C2080 C2079 1.394 . S
C2080 C2081 1.516 . S
C2081 C2080 1.516 . S
C2081 C2082 1.502 . S
C2081 C2083 1.561 . S
C2081 C2084 1.526 . S
C2082 H2066 0.959 . S
C2082 H2067 0.959 . S
C2082 H2068 0.961 . S
C2082 C2081 1.502 . S
C2083 H2069 0.960 . S
C2083 H2070 0.961 . S
C2083 H2071 0.959 . S
C2083 C2081 1.561 . S
C2084 C2081 1.526 . S
C2084 C2085 1.396 . S
C2084 C2089 1.390 . S
C2085 C2079 1.465 . S
C2085 C2084 1.396 . S
C2085 C2086 1.399 . S
C2086 H2072 0.929 . S
C2086 C2085 1.399 . S
C2086 C2087 1.385 . S
C2087 H2073 0.931 . S
C2087 C2086 1.385 . S
C2087 C2088 1.389 . S
C2088 C2087 1.389 . S
C2088 C2089 1.387 . S
C2089 H2074 0.930 . S
C2089 C2084 1.390 . S
C2089 C2088 1.387 . S
H2090 C2102 0.930 . S
H2091 C2104 0.930 . S
H2092 C2105 0.930 . S
H2093 C2109 0.959 . S
H2094 C2109 0.959 . S
H2095 C2109 0.961 . S
H2096 C2110 0.960 . S
H2097 C2110 0.961 . S
H2098 C2110 0.959 . S
H2099 C2113 0.929 . S
H2100 C2114 0.931 . S
H2101 C2116 0.930 . S
C2102 H2090 0.930 . S
C2102 C2103 1.399 . S
C2102 C2107 1.399 . S
C2103 C2102 1.399 . S
C2103 C2104 1.376 . S
C2104 H2091 0.930 . S
C2104 C2103 1.376 . S
C2104 C2105 1.388 . S
C2105 H2092 0.930 . S
C2105 C2104 1.388 . S
C2105 C2106 1.390 . S
C2106 C2105 1.390 . S
C2106 C2107 1.394 . S
C2106 C2112 1.465 . S
C2107 C2102 1.399 . S
C2107 C2106 1.394 . S
C2107 C2108 1.516 . S
C2108 C2107 1.516 . S
C2108 C2109 1.502 . S
C2108 C2110 1.561 . S
C2108 C2111 1.526 . S
C2109 H2093 0.959 . S
C2109 H2094 0.959 . S
C2109 H2095 0.961 . S
C2109 C2108 1.502 . S
C2110 H2096 0.960 . S
C2110 H2097 0.961 . S
C2110 H2098 0.959 . S
C2110 C2108 1.561 . S
C2111 C2108 1.526 . S
C2111 C2112 1.396 . S
C2111 C2116 1.390 . S
C2112 C2106 1.465 . S
C2112 C2111 1.396 . S
C2112 C2113 1.399 . S
C2113 H2099 0.929 . S
C2113 C2112 1.399 . S
C2113 C2114 1.385 . S
C2114 H2100 0.931 . S
C2114 C2113 1.385 . S
C2114 C2115 1.389 . S
C2115 C2114 1.389 . S
C2115 C2116 1.387 . S
C2116 H2101 0.930 . S
C2116 C2111 1.390 . S
C2116 C2115 1.387 . S
H2117 C2129 0.930 . S
H2118 C2131 0.930 . S
H2119 C2132 0.930 . S
H2120 C2136 0.959 . S
H2121 C2136 0.959 . S
H2122 C2136 0.961 . S
H2123 C2137 0.960 . S
H2124 C2137 0.961 . S
H2125 C2137 0.959 . S
H2126 C2140 0.929 . S
H2127 C2141 0.931 . S
H2128 C2143 0.930 . S
C2129 H2117 0.930 . S
C2129 C2130 1.399 . S
C2129 C2134 1.399 . S
C2130 C2129 1.399 . S
C2130 C2131 1.376 . S
C2131 H2118 0.930 . S
C2131 C2130 1.376 . S
C2131 C2132 1.388 . S
C2132 H2119 0.930 . S
C2132 C2131 1.388 . S
C2132 C2133 1.390 . S
C2133 C2132 1.390 . S
C2133 C2134 1.394 . S
C2133 C2139 1.465 . S
C2134 C2129 1.399 . S
C2134 C2133 1.394 . S
C2134 C2135 1.516 . S
C2135 C2134 1.516 . S
C2135 C2136 1.502 . S
C2135 C2137 1.561 . S
C2135 C2138 1.526 . S
C2136 H2120 0.959 . S
C2136 H2121 0.959 . S
C2136 H2122 0.961 . S
C2136 C2135 1.502 . S
C2137 H2123 0.960 . S
C2137 H2124 0.961 . S
C2137 H2125 0.959 . S
C2137 C2135 1.561 . S
C2138 C2135 1.526 . S
C2138 C2139 1.396 . S
C2138 C2143 1.390 . S
C2139 C2133 1.465 . S
C2139 C2138 1.396 . S
C2139 C2140 1.399 . S
C2140 H2126 0.929 . S
C2140 C2139 1.399 . S
C2140 C2141 1.385 . S
C2141 H2127 0.931 . S
C2141 C2140 1.385 . S
C2141 C2142 1.389 . S
C2142 C2141 1.389 . S
C2142 C2143 1.387 . S
C2143 H2128 0.930 . S
C2143 C2138 1.390 . S
C2143 C2142 1.387 . S
H2144 C2156 0.930 . S
H2145 C2158 0.930 . S
H2146 C2159 0.930 . S
H2147 C2163 0.959 . S
H2148 C2163 0.959 . S
H2149 C2163 0.961 . S
H2150 C2164 0.960 . S
H2151 C2164 0.961 . S
H2152 C2164 0.959 . S
H2153 C2167 0.929 . S
H2154 C2168 0.931 . S
H2155 C2170 0.930 . S
C2156 H2144 0.930 . S
C2156 C2157 1.399 . S
C2156 C2161 1.399 . S
C2157 C2156 1.399 . S
C2157 C2158 1.376 . S
C2158 H2145 0.930 . S
C2158 C2157 1.376 . S
C2158 C2159 1.388 . S
C2159 H2146 0.930 . S
C2159 C2158 1.388 . S
C2159 C2160 1.390 . S
C2160 C2159 1.390 . S
C2160 C2161 1.394 . S
C2160 C2166 1.465 . S
C2161 C2156 1.399 . S
C2161 C2160 1.394 . S
C2161 C2162 1.516 . S
C2162 C2161 1.516 . S
C2162 C2163 1.502 . S
C2162 C2164 1.561 . S
C2162 C2165 1.526 . S
C2163 H2147 0.959 . S
C2163 H2148 0.959 . S
C2163 H2149 0.961 . S
C2163 C2162 1.502 . S
C2164 H2150 0.960 . S
C2164 H2151 0.961 . S
C2164 H2152 0.959 . S
C2164 C2162 1.561 . S
C2165 C2162 1.526 . S
C2165 C2166 1.396 . S
C2165 C2170 1.390 . S
C2166 C2160 1.465 . S
C2166 C2165 1.396 . S
C2166 C2167 1.399 . S
C2167 H2153 0.929 . S
C2167 C2166 1.399 . S
C2167 C2168 1.385 . S
C2168 H2154 0.931 . S
C2168 C2167 1.385 . S
C2168 C2169 1.389 . S
C2169 C2168 1.389 . S
C2169 C2170 1.387 . S
C2170 H2155 0.930 . S
C2170 C2165 1.390 . S
C2170 C2169 1.387 . S
H2171 C2183 0.930 . S
H2172 C2185 0.930 . S
H2173 C2186 0.930 . S
H2174 C2190 0.959 . S
H2175 C2190 0.959 . S
H2176 C2190 0.961 . S
H2177 C2191 0.960 . S
H2178 C2191 0.961 . S
H2179 C2191 0.959 . S
H2180 C2194 0.929 . S
H2181 C2195 0.931 . S
H2182 C2197 0.928 . S
C2183 H2171 0.930 . S
C2183 C2184 1.399 . S
C2183 C2188 1.399 . S
C2184 C2183 1.399 . S
C2184 C2185 1.376 . S
C2185 H2172 0.930 . S
C2185 C2184 1.376 . S
C2185 C2186 1.388 . S
C2186 H2173 0.930 . S
C2186 C2185 1.388 . S
C2186 C2187 1.390 . S
C2187 C2186 1.390 . S
C2187 C2188 1.394 . S
C2187 C2193 1.465 . S
C2188 C2183 1.399 . S
C2188 C2187 1.394 . S
C2188 C2189 1.516 . S
C2189 C2188 1.516 . S
C2189 C2190 1.502 . S
C2189 C2191 1.561 . S
C2189 C2192 1.526 . S
C2190 H2174 0.959 . S
C2190 H2175 0.959 . S
C2190 H2176 0.961 . S
C2190 C2189 1.502 . S
C2191 H2177 0.960 . S
C2191 H2178 0.961 . S
C2191 H2179 0.959 . S
C2191 C2189 1.561 . S
C2192 C2189 1.526 . S
C2192 C2193 1.396 . S
C2192 C2197 1.390 . S
C2193 C2187 1.465 . S
C2193 C2192 1.396 . S
C2193 C2194 1.399 . S
C2194 H2180 0.929 . S
C2194 C2193 1.399 . S
C2194 C2195 1.385 . S
C2195 H2181 0.931 . S
C2195 C2194 1.385 . S
C2195 C2196 1.389 . S
C2196 C2195 1.389 . S
C2196 C2197 1.387 . S
C2197 H2182 0.928 . S
C2197 C2192 1.390 . S
C2197 C2196 1.387 . S
H2198 C2210 0.930 . S
H2199 C2212 0.930 . S
H2200 C2213 0.930 . S
H2201 C2217 0.959 . S
H2202 C2217 0.959 . S
H2203 C2217 0.961 . S
H2204 C2218 0.960 . S
H2205 C2218 0.961 . S
H2206 C2218 0.959 . S
H2207 C2221 0.929 . S
H2208 C2222 0.931 . S
H2209 C2224 0.930 . S
C2210 H2198 0.930 . S
C2210 C2211 1.399 . S
C2210 C2215 1.399 . S
C2211 C2210 1.399 . S
C2211 C2212 1.376 . S
C2212 H2199 0.930 . S
C2212 C2211 1.376 . S
C2212 C2213 1.388 . S
C2213 H2200 0.930 . S
C2213 C2212 1.388 . S
C2213 C2214 1.390 . S
C2214 C2213 1.390 . S
C2214 C2215 1.394 . S
C2214 C2220 1.465 . S
C2215 C2210 1.399 . S
C2215 C2214 1.394 . S
C2215 C2216 1.516 . S
C2216 C2215 1.516 . S
C2216 C2217 1.502 . S
C2216 C2218 1.561 . S
C2216 C2219 1.526 . S
C2217 H2201 0.959 . S
C2217 H2202 0.959 . S
C2217 H2203 0.961 . S
C2217 C2216 1.502 . S
C2218 H2204 0.960 . S
C2218 H2205 0.961 . S
C2218 H2206 0.959 . S
C2218 C2216 1.561 . S
C2219 C2216 1.526 . S
C2219 C2220 1.396 . S
C2219 C2224 1.390 . S
C2220 C2214 1.465 . S
C2220 C2219 1.396 . S
C2220 C2221 1.399 . S
C2221 H2207 0.929 . S
C2221 C2220 1.399 . S
C2221 C2222 1.385 . S
C2222 H2208 0.931 . S
C2222 C2221 1.385 . S
C2222 C2223 1.389 . S
C2223 C2222 1.389 . S
C2223 C2224 1.387 . S
C2224 H2209 0.930 . S
C2224 C2219 1.390 . S
C2224 C2223 1.387 . S
H2225 C2237 0.930 . S
H2226 C2239 0.930 . S
H2227 C2240 0.930 . S
H2228 C2244 0.959 . S
H2229 C2244 0.959 . S
H2230 C2244 0.961 . S
H2231 C2245 0.960 . S
H2232 C2245 0.961 . S
H2233 C2245 0.959 . S
H2234 C2248 0.929 . S
H2235 C2249 0.931 . S
H2236 C2251 0.930 . S
C2237 H2225 0.930 . S
C2237 C2238 1.399 . S
C2237 C2242 1.399 . S
C2238 C2237 1.399 . S
C2238 C2239 1.376 . S
C2239 H2226 0.930 . S
C2239 C2238 1.376 . S
C2239 C2240 1.388 . S
C2240 H2227 0.930 . S
C2240 C2239 1.388 . S
C2240 C2241 1.390 . S
C2241 C2240 1.390 . S
C2241 C2242 1.394 . S
C2241 C2247 1.465 . S
C2242 C2237 1.399 . S
C2242 C2241 1.394 . S
C2242 C2243 1.516 . S
C2243 C2242 1.516 . S
C2243 C2244 1.502 . S
C2243 C2245 1.561 . S
C2243 C2246 1.526 . S
C2244 H2228 0.959 . S
C2244 H2229 0.959 . S
C2244 H2230 0.961 . S
C2244 C2243 1.502 . S
C2245 H2231 0.960 . S
C2245 H2232 0.961 . S
C2245 H2233 0.959 . S
C2245 C2243 1.561 . S
C2246 C2243 1.526 . S
C2246 C2247 1.396 . S
C2246 C2251 1.390 . S
C2247 C2241 1.465 . S
C2247 C2246 1.396 . S
C2247 C2248 1.399 . S
C2248 H2234 0.929 . S
C2248 C2247 1.399 . S
C2248 C2249 1.385 . S
C2249 H2235 0.931 . S
C2249 C2248 1.385 . S
C2249 C2250 1.389 . S
C2250 C2249 1.389 . S
C2250 C2251 1.387 . S
C2251 H2236 0.930 . S
C2251 C2246 1.390 . S
C2251 C2250 1.387 . S
H2252 C2264 0.930 . S
H2253 C2266 0.930 . S
H2254 C2267 0.930 . S
H2255 C2271 0.959 . S
H2256 C2271 0.959 . S
H2257 C2271 0.961 . S
H2258 C2272 0.960 . S
H2259 C2272 0.961 . S
H2260 C2272 0.959 . S
H2261 C2275 0.929 . S
H2262 C2276 0.931 . S
H2263 C2278 0.930 . S
C2264 H2252 0.930 . S
C2264 C2265 1.399 . S
C2264 C2269 1.399 . S
C2265 C2264 1.399 . S
C2265 C2266 1.376 . S
C2266 H2253 0.930 . S
C2266 C2265 1.376 . S
C2266 C2267 1.388 . S
C2267 H2254 0.930 . S
C2267 C2266 1.388 . S
C2267 C2268 1.390 . S
C2268 C2267 1.390 . S
C2268 C2269 1.394 . S
C2268 C2274 1.465 . S
C2269 C2264 1.399 . S
C2269 C2268 1.394 . S
C2269 C2270 1.516 . S
C2270 C2269 1.516 . S
C2270 C2271 1.502 . S
C2270 C2272 1.561 . S
C2270 C2273 1.526 . S
C2271 H2255 0.959 . S
C2271 H2256 0.959 . S
C2271 H2257 0.961 . S
C2271 C2270 1.502 . S
C2272 H2258 0.960 . S
C2272 H2259 0.961 . S
C2272 H2260 0.959 . S
C2272 C2270 1.561 . S
C2273 C2270 1.526 . S
C2273 C2274 1.396 . S
C2273 C2278 1.390 . S
C2274 C2268 1.465 . S
C2274 C2273 1.396 . S
C2274 C2275 1.399 . S
C2275 H2261 0.929 . S
C2275 C2274 1.399 . S
C2275 C2276 1.385 . S
C2276 H2262 0.931 . S
C2276 C2275 1.385 . S
C2276 C2277 1.389 . S
C2277 C2276 1.389 . S
C2277 C2278 1.387 . S
C2278 H2263 0.930 . S
C2278 C2273 1.390 . S
C2278 C2277 1.387 . S
H2279 C2291 0.930 . S
H2280 C2293 0.930 . S
H2281 C2294 0.930 . S
H2282 C2298 0.959 . S
H2283 C2298 0.959 . S
H2284 C2298 0.961 . S
H2285 C2299 0.960 . S
H2286 C2299 0.961 . S
H2287 C2299 0.959 . S
H2288 C2302 0.929 . S
H2289 C2303 0.931 . S
H2290 C2305 0.930 . S
C2291 H2279 0.930 . S
C2291 C2292 1.399 . S
C2291 C2296 1.399 . S
C2292 C2291 1.399 . S
C2292 C2293 1.376 . S
C2293 H2280 0.930 . S
C2293 C2292 1.376 . S
C2293 C2294 1.388 . S
C2294 H2281 0.930 . S
C2294 C2293 1.388 . S
C2294 C2295 1.390 . S
C2295 C2294 1.390 . S
C2295 C2296 1.394 . S
C2295 C2301 1.465 . S
C2296 C2291 1.399 . S
C2296 C2295 1.394 . S
C2296 C2297 1.516 . S
C2297 C2296 1.516 . S
C2297 C2298 1.502 . S
C2297 C2299 1.561 . S
C2297 C2300 1.526 . S
C2298 H2282 0.959 . S
C2298 H2283 0.959 . S
C2298 H2284 0.961 . S
C2298 C2297 1.502 . S
C2299 H2285 0.960 . S
C2299 H2286 0.961 . S
C2299 H2287 0.959 . S
C2299 C2297 1.561 . S
C2300 C2297 1.526 . S
C2300 C2301 1.396 . S
C2300 C2305 1.390 . S
C2301 C2295 1.465 . S
C2301 C2300 1.396 . S
C2301 C2302 1.399 . S
C2302 H2288 0.929 . S
C2302 C2301 1.399 . S
C2302 C2303 1.385 . S
C2303 H2289 0.931 . S
C2303 C2302 1.385 . S
C2303 C2304 1.389 . S
C2304 C2303 1.389 . S
C2304 C2305 1.387 . S
C2305 H2290 0.930 . S
C2305 C2300 1.390 . S
C2305 C2304 1.387 . S
H2306 C2318 0.930 . S
H2307 C2320 0.930 . S
H2308 C2321 0.930 . S
H2309 C2325 0.959 . S
H2310 C2325 0.959 . S
H2311 C2325 0.961 . S
H2312 C2326 0.960 . S
H2313 C2326 0.961 . S
H2314 C2326 0.959 . S
H2315 C2329 0.929 . S
H2316 C2330 0.931 . S
H2317 C2332 0.930 . S
C2318 H2306 0.930 . S
C2318 C2319 1.399 . S
C2318 C2323 1.399 . S
C2319 C2318 1.399 . S
C2319 C2320 1.376 . S
C2320 H2307 0.930 . S
C2320 C2319 1.376 . S
C2320 C2321 1.388 . S
C2321 H2308 0.930 . S
C2321 C2320 1.388 . S
C2321 C2322 1.390 . S
C2322 C2321 1.390 . S
C2322 C2323 1.394 . S
C2322 C2328 1.465 . S
C2323 C2318 1.399 . S
C2323 C2322 1.394 . S
C2323 C2324 1.516 . S
C2324 C2323 1.516 . S
C2324 C2325 1.502 . S
C2324 C2326 1.561 . S
C2324 C2327 1.526 . S
C2325 H2309 0.959 . S
C2325 H2310 0.959 . S
C2325 H2311 0.961 . S
C2325 C2324 1.502 . S
C2326 H2312 0.960 . S
C2326 H2313 0.961 . S
C2326 H2314 0.959 . S
C2326 C2324 1.561 . S
C2327 C2324 1.526 . S
C2327 C2328 1.396 . S
C2327 C2332 1.390 . S
C2328 C2322 1.465 . S
C2328 C2327 1.396 . S
C2328 C2329 1.399 . S
C2329 H2315 0.929 . S
C2329 C2328 1.399 . S
C2329 C2330 1.385 . S
C2330 H2316 0.931 . S
C2330 C2329 1.385 . S
C2330 C2331 1.389 . S
C2331 C2330 1.389 . S
C2331 C2332 1.387 . S
C2332 H2317 0.930 . S
C2332 C2327 1.390 . S
C2332 C2331 1.387 . S
H2333 C2345 0.930 . S
H2334 C2347 0.930 . S
H2335 C2348 0.930 . S
H2336 C2352 0.959 . S
H2337 C2352 0.959 . S
H2338 C2352 0.961 . S
H2339 C2353 0.960 . S
H2340 C2353 0.961 . S
H2341 C2353 0.959 . S
H2342 C2356 0.929 . S
H2343 C2357 0.931 . S
H2344 C2359 0.935 . S
C2345 H2333 0.930 . S
C2345 C2346 1.399 . S
C2345 C2350 1.399 . S
C2346 C2345 1.399 . S
C2346 C2347 1.376 . S
C2347 H2334 0.930 . S
C2347 C2346 1.376 . S
C2347 C2348 1.388 . S
C2348 H2335 0.930 . S
C2348 C2347 1.388 . S
C2348 C2349 1.390 . S
C2349 C2348 1.390 . S
C2349 C2350 1.394 . S
C2349 C2355 1.465 . S
C2350 C2345 1.399 . S
C2350 C2349 1.394 . S
C2350 C2351 1.516 . S
C2351 C2350 1.516 . S
C2351 C2352 1.502 . S
C2351 C2353 1.561 . S
C2351 C2354 1.526 . S
C2352 H2336 0.959 . S
C2352 H2337 0.959 . S
C2352 H2338 0.961 . S
C2352 C2351 1.502 . S
C2353 H2339 0.960 . S
C2353 H2340 0.961 . S
C2353 H2341 0.959 . S
C2353 C2351 1.561 . S
C2354 C2351 1.526 . S
C2354 C2355 1.396 . S
C2354 C2359 1.390 . S
C2355 C2349 1.465 . S
C2355 C2354 1.396 . S
C2355 C2356 1.399 . S
C2356 H2342 0.929 . S
C2356 C2355 1.399 . S
C2356 C2357 1.385 . S
C2357 H2343 0.931 . S
C2357 C2356 1.385 . S
C2357 C2358 1.389 . S
C2358 C2357 1.389 . S
C2358 C2359 1.387 . S
C2359 H2344 0.935 . S
C2359 C2354 1.390 . S
C2359 C2358 1.387 . S
H2360 C2372 0.930 . S
H2361 C2374 0.930 . S
H2362 C2375 0.930 . S
H2363 C2379 0.959 . S
H2364 C2379 0.959 . S
H2365 C2379 0.961 . S
H2366 C2380 0.960 . S
H2367 C2380 0.961 . S
H2368 C2380 0.959 . S
H2369 C2383 0.929 . S
H2370 C2384 0.931 . S
H2371 C2386 0.930 . S
C2372 H2360 0.930 . S
C2372 C2373 1.399 . S
C2372 C2377 1.399 . S
C2373 C2372 1.399 . S
C2373 C2374 1.376 . S
C2374 H2361 0.930 . S
C2374 C2373 1.376 . S
C2374 C2375 1.388 . S
C2375 H2362 0.930 . S
C2375 C2374 1.388 . S
C2375 C2376 1.390 . S
C2376 C2375 1.390 . S
C2376 C2377 1.394 . S
C2376 C2382 1.465 . S
C2377 C2372 1.399 . S
C2377 C2376 1.394 . S
C2377 C2378 1.516 . S
C2378 C2377 1.516 . S
C2378 C2379 1.502 . S
C2378 C2380 1.561 . S
C2378 C2381 1.526 . S
C2379 H2363 0.959 . S
C2379 H2364 0.959 . S
C2379 H2365 0.961 . S
C2379 C2378 1.502 . S
C2380 H2366 0.960 . S
C2380 H2367 0.961 . S
C2380 H2368 0.959 . S
C2380 C2378 1.561 . S
C2381 C2378 1.526 . S
C2381 C2382 1.396 . S
C2381 C2386 1.390 . S
C2382 C2376 1.465 . S
C2382 C2381 1.396 . S
C2382 C2383 1.399 . S
C2383 H2369 0.929 . S
C2383 C2382 1.399 . S
C2383 C2384 1.385 . S
C2384 H2370 0.931 . S
C2384 C2383 1.385 . S
C2384 C2385 1.389 . S
C2385 C2384 1.389 . S
C2385 C2386 1.387 . S
C2386 H2371 0.930 . S
C2386 C2381 1.390 . S
C2386 C2385 1.387 . S
H2387 C2399 0.930 . S
H2388 C2401 0.930 . S
H2389 C2402 0.930 . S
H2390 C2406 0.959 . S
H2391 C2406 0.959 . S
H2392 C2406 0.961 . S
H2393 C2407 0.960 . S
H2394 C2407 0.961 . S
H2395 C2407 0.959 . S
H2396 C2410 0.929 . S
H2397 C2411 0.931 . S
H2398 C2413 0.930 . S
C2399 H2387 0.930 . S
C2399 C2400 1.399 . S
C2399 C2404 1.399 . S
C2400 C2399 1.399 . S
C2400 C2401 1.376 . S
C2401 H2388 0.930 . S
C2401 C2400 1.376 . S
C2401 C2402 1.388 . S
C2402 H2389 0.930 . S
C2402 C2401 1.388 . S
C2402 C2403 1.390 . S
C2403 C2402 1.390 . S
C2403 C2404 1.394 . S
C2403 C2409 1.465 . S
C2404 C2399 1.399 . S
C2404 C2403 1.394 . S
C2404 C2405 1.516 . S
C2405 C2404 1.516 . S
C2405 C2406 1.502 . S
C2405 C2407 1.561 . S
C2405 C2408 1.526 . S
C2406 H2390 0.959 . S
C2406 H2391 0.959 . S
C2406 H2392 0.961 . S
C2406 C2405 1.502 . S
C2407 H2393 0.960 . S
C2407 H2394 0.961 . S
C2407 H2395 0.959 . S
C2407 C2405 1.561 . S
C2408 C2405 1.526 . S
C2408 C2409 1.396 . S
C2408 C2413 1.390 . S
C2409 C2403 1.465 . S
C2409 C2408 1.396 . S
C2409 C2410 1.399 . S
C2410 H2396 0.929 . S
C2410 C2409 1.399 . S
C2410 C2411 1.385 . S
C2411 H2397 0.931 . S
C2411 C2410 1.385 . S
C2411 C2412 1.389 . S
C2412 C2411 1.389 . S
C2412 C2413 1.387 . S
C2413 H2398 0.930 . S
C2413 C2408 1.390 . S
C2413 C2412 1.387 . S
H2414 C2426 0.930 . S
H2415 C2428 0.930 . S
H2416 C2429 0.930 . S
H2417 C2433 0.959 . S
H2418 C2433 0.959 . S
H2419 C2433 0.961 . S
H2420 C2434 0.960 . S
H2421 C2434 0.961 . S
H2422 C2434 0.959 . S
H2423 C2437 0.929 . S
H2424 C2438 0.931 . S
H2425 C2440 0.930 . S
C2426 H2414 0.930 . S
C2426 C2427 1.399 . S
C2426 C2431 1.399 . S
C2427 C2426 1.399 . S
C2427 C2428 1.376 . S
C2428 H2415 0.930 . S
C2428 C2427 1.376 . S
C2428 C2429 1.388 . S
C2429 H2416 0.930 . S
C2429 C2428 1.388 . S
C2429 C2430 1.390 . S
C2430 C2429 1.390 . S
C2430 C2431 1.394 . S
C2430 C2436 1.465 . S
C2431 C2426 1.399 . S
C2431 C2430 1.394 . S
C2431 C2432 1.516 . S
C2432 C2431 1.516 . S
C2432 C2433 1.502 . S
C2432 C2434 1.561 . S
C2432 C2435 1.526 . S
C2433 H2417 0.959 . S
C2433 H2418 0.959 . S
C2433 H2419 0.961 . S
C2433 C2432 1.502 . S
C2434 H2420 0.960 . S
C2434 H2421 0.961 . S
C2434 H2422 0.959 . S
C2434 C2432 1.561 . S
C2435 C2432 1.526 . S
C2435 C2436 1.396 . S
C2435 C2440 1.390 . S
C2436 C2430 1.465 . S
C2436 C2435 1.396 . S
C2436 C2437 1.399 . S
C2437 H2423 0.929 . S
C2437 C2436 1.399 . S
C2437 C2438 1.385 . S
C2438 H2424 0.931 . S
C2438 C2437 1.385 . S
C2438 C2439 1.389 . S
C2439 C2438 1.389 . S
C2439 C2440 1.387 . S
C2440 H2425 0.930 . S
C2440 C2435 1.390 . S
C2440 C2439 1.387 . S
H2441 C2453 0.930 . S
H2442 C2455 0.930 . S
H2443 C2456 0.930 . S
H2444 C2460 0.959 . S
H2445 C2460 0.959 . S
H2446 C2460 0.961 . S
H2447 C2461 0.960 . S
H2448 C2461 0.961 . S
H2449 C2461 0.959 . S
H2450 C2464 0.929 . S
H2451 C2465 0.931 . S
H2452 C2467 0.930 . S
C2453 H2441 0.930 . S
C2453 C2454 1.399 . S
C2453 C2458 1.399 . S
C2454 C2453 1.399 . S
C2454 C2455 1.376 . S
C2455 H2442 0.930 . S
C2455 C2454 1.376 . S
C2455 C2456 1.388 . S
C2456 H2443 0.930 . S
C2456 C2455 1.388 . S
C2456 C2457 1.390 . S
C2457 C2456 1.390 . S
C2457 C2458 1.394 . S
C2457 C2463 1.465 . S
C2458 C2453 1.399 . S
C2458 C2457 1.394 . S
C2458 C2459 1.516 . S
C2459 C2458 1.516 . S
C2459 C2460 1.502 . S
C2459 C2461 1.561 . S
C2459 C2462 1.526 . S
C2460 H2444 0.959 . S
C2460 H2445 0.959 . S
C2460 H2446 0.961 . S
C2460 C2459 1.502 . S
C2461 H2447 0.960 . S
C2461 H2448 0.961 . S
C2461 H2449 0.959 . S
C2461 C2459 1.561 . S
C2462 C2459 1.526 . S
C2462 C2463 1.396 . S
C2462 C2467 1.390 . S
C2463 C2457 1.465 . S
C2463 C2462 1.396 . S
C2463 C2464 1.399 . S
C2464 H2450 0.929 . S
C2464 C2463 1.399 . S
C2464 C2465 1.385 . S
C2465 H2451 0.931 . S
C2465 C2464 1.385 . S
C2465 C2466 1.389 . S
C2466 C2465 1.389 . S
C2466 C2467 1.387 . S
C2467 H2452 0.930 . S
C2467 C2462 1.390 . S
C2467 C2466 1.387 . S
H2468 C2480 0.930 . S
H2469 C2482 0.930 . S
H2470 C2483 0.930 . S
H2471 C2487 0.959 . S
H2472 C2487 0.959 . S
H2473 C2487 0.961 . S
H2474 C2488 0.960 . S
H2475 C2488 0.961 . S
H2476 C2488 0.959 . S
H2477 C2491 0.929 . S
H2478 C2492 0.931 . S
H2479 C2494 0.930 . S
C2480 H2468 0.930 . S
C2480 C2481 1.399 . S
C2480 C2485 1.399 . S
C2481 C2480 1.399 . S
C2481 C2482 1.376 . S
C2482 H2469 0.930 . S
C2482 C2481 1.376 . S
C2482 C2483 1.388 . S
C2483 H2470 0.930 . S
C2483 C2482 1.388 . S
C2483 C2484 1.390 . S
C2484 C2483 1.390 . S
C2484 C2485 1.394 . S
C2484 C2490 1.465 . S
C2485 C2480 1.399 . S
C2485 C2484 1.394 . S
C2485 C2486 1.516 . S
C2486 C2485 1.516 . S
C2486 C2487 1.502 . S
C2486 C2488 1.561 . S
C2486 C2489 1.526 . S
C2487 H2471 0.959 . S
C2487 H2472 0.959 . S
C2487 H2473 0.961 . S
C2487 C2486 1.502 . S
C2488 H2474 0.960 . S
C2488 H2475 0.961 . S
C2488 H2476 0.959 . S
C2488 C2486 1.561 . S
C2489 C2486 1.526 . S
C2489 C2490 1.396 . S
C2489 C2494 1.390 . S
C2490 C2484 1.465 . S
C2490 C2489 1.396 . S
C2490 C2491 1.399 . S
C2491 H2477 0.929 . S
C2491 C2490 1.399 . S
C2491 C2492 1.385 . S
C2492 H2478 0.931 . S
C2492 C2491 1.385 . S
C2492 C2493 1.389 . S
C2493 C2492 1.389 . S
C2493 C2494 1.387 . S
C2494 H2479 0.930 . S
C2494 C2489 1.390 . S
C2494 C2493 1.387 . S
H2495 C2507 0.930 . S
H2496 C2509 0.930 . S
H2497 C2510 0.930 . S
H2498 C2514 0.959 . S
H2499 C2514 0.959 . S
H2500 C2514 0.961 . S
H2501 C2515 0.960 . S
H2502 C2515 0.961 . S
H2503 C2515 0.959 . S
H2504 C2518 0.929 . S
H2505 C2519 0.931 . S
H2506 C2521 0.930 . S
C2507 H2495 0.930 . S
C2507 C2508 1.399 . S
C2507 C2512 1.399 . S
C2508 C2507 1.399 . S
C2508 C2509 1.376 . S
C2509 H2496 0.930 . S
C2509 C2508 1.376 . S
C2509 C2510 1.388 . S
C2510 H2497 0.930 . S
C2510 C2509 1.388 . S
C2510 C2511 1.390 . S
C2511 C2510 1.390 . S
C2511 C2512 1.394 . S
C2511 C2517 1.465 . S
C2512 C2507 1.399 . S
C2512 C2511 1.394 . S
C2512 C2513 1.516 . S
C2513 C2512 1.516 . S
C2513 C2514 1.502 . S
C2513 C2515 1.561 . S
C2513 C2516 1.526 . S
C2514 H2498 0.959 . S
C2514 H2499 0.959 . S
C2514 H2500 0.961 . S
C2514 C2513 1.502 . S
C2515 H2501 0.960 . S
C2515 H2502 0.961 . S
C2515 H2503 0.959 . S
C2515 C2513 1.561 . S
C2516 C2513 1.526 . S
C2516 C2517 1.396 . S
C2516 C2521 1.390 . S
C2517 C2511 1.465 . S
C2517 C2516 1.396 . S
C2517 C2518 1.399 . S
C2518 H2504 0.929 . S
C2518 C2517 1.399 . S
C2518 C2519 1.385 . S
C2519 H2505 0.931 . S
C2519 C2518 1.385 . S
C2519 C2520 1.389 . S
C2520 C2519 1.389 . S
C2520 C2521 1.387 . S
C2521 H2506 0.930 . S
C2521 C2516 1.390 . S
C2521 C2520 1.387 . S
H2522 C2534 0.930 . S
H2523 C2536 0.930 . S
H2524 C2537 0.930 . S
H2525 C2541 0.959 . S
H2526 C2541 0.959 . S
H2527 C2541 0.961 . S
H2528 C2542 0.960 . S
H2529 C2542 0.961 . S
H2530 C2542 0.959 . S
H2531 C2545 0.929 . S
H2532 C2546 0.931 . S
H2533 C2548 0.930 . S
C2534 H2522 0.930 . S
C2534 C2535 1.399 . S
C2534 C2539 1.399 . S
C2535 C2534 1.399 . S
C2535 C2536 1.376 . S
C2536 H2523 0.930 . S
C2536 C2535 1.376 . S
C2536 C2537 1.388 . S
C2537 H2524 0.930 . S
C2537 C2536 1.388 . S
C2537 C2538 1.390 . S
C2538 C2537 1.390 . S
C2538 C2539 1.394 . S
C2538 C2544 1.465 . S
C2539 C2534 1.399 . S
C2539 C2538 1.394 . S
C2539 C2540 1.516 . S
C2540 C2539 1.516 . S
C2540 C2541 1.502 . S
C2540 C2542 1.561 . S
C2540 C2543 1.526 . S
C2541 H2525 0.959 . S
C2541 H2526 0.959 . S
C2541 H2527 0.961 . S
C2541 C2540 1.502 . S
C2542 H2528 0.960 . S
C2542 H2529 0.961 . S
C2542 H2530 0.959 . S
C2542 C2540 1.561 . S
C2543 C2540 1.526 . S
C2543 C2544 1.396 . S
C2543 C2548 1.390 . S
C2544 C2538 1.465 . S
C2544 C2543 1.396 . S
C2544 C2545 1.399 . S
C2545 H2531 0.929 . S
C2545 C2544 1.399 . S
C2545 C2546 1.385 . S
C2546 H2532 0.931 . S
C2546 C2545 1.385 . S
C2546 C2547 1.389 . S
C2547 C2546 1.389 . S
C2547 C2548 1.387 . S
C2548 H2533 0.930 . S
C2548 C2543 1.390 . S
C2548 C2547 1.387 . S
H2549 C2561 0.930 . S
H2550 C2563 0.930 . S
H2551 C2564 0.930 . S
H2552 C2568 0.959 . S
H2553 C2568 0.959 . S
H2554 C2568 0.961 . S
H2555 C2569 0.960 . S
H2556 C2569 0.961 . S
H2557 C2569 0.959 . S
H2558 C2572 0.929 . S
H2559 C2573 0.931 . S
H2560 C2575 0.930 . S
C2561 H2549 0.930 . S
C2561 C2562 1.399 . S
C2561 C2566 1.399 . S
C2562 C2561 1.399 . S
C2562 C2563 1.376 . S
C2563 H2550 0.930 . S
C2563 C2562 1.376 . S
C2563 C2564 1.388 . S
C2564 H2551 0.930 . S
C2564 C2563 1.388 . S
C2564 C2565 1.390 . S
C2565 C2564 1.390 . S
C2565 C2566 1.394 . S
C2565 C2571 1.465 . S
C2566 C2561 1.399 . S
C2566 C2565 1.394 . S
C2566 C2567 1.516 . S
C2567 C2566 1.516 . S
C2567 C2568 1.502 . S
C2567 C2569 1.561 . S
C2567 C2570 1.526 . S
C2568 H2552 0.959 . S
C2568 H2553 0.959 . S
C2568 H2554 0.961 . S
C2568 C2567 1.502 . S
C2569 H2555 0.960 . S
C2569 H2556 0.961 . S
C2569 H2557 0.959 . S
C2569 C2567 1.561 . S
C2570 C2567 1.526 . S
C2570 C2571 1.396 . S
C2570 C2575 1.390 . S
C2571 C2565 1.465 . S
C2571 C2570 1.396 . S
C2571 C2572 1.399 . S
C2572 H2558 0.929 . S
C2572 C2571 1.399 . S
C2572 C2573 1.385 1_655 S
C2573 H2559 0.931 . S
C2573 C2572 1.385 1_455 S
C2573 C2574 1.388 1_455 S
C2574 C2573 1.388 1_655 S
C2574 C2575 1.404 . S
C2575 H2560 0.930 . S
C2575 C2570 1.390 . S
C2575 C2574 1.404 . S
H2576 C2588 0.930 . S
H2577 C2590 0.930 . S
H2578 C2591 0.930 . S
H2579 C2595 0.959 . S
H2580 C2595 0.959 . S
H2581 C2595 0.961 . S
H2582 C2596 0.960 . S
H2583 C2596 0.961 . S
H2584 C2596 0.959 . S
H2585 C2599 0.929 . S
H2586 C2600 0.931 . S
H2587 C2602 0.930 . S
C2588 H2576 0.930 . S
C2588 C2589 1.399 . S
C2588 C2593 1.399 . S
C2589 C2588 1.399 . S
C2589 C2590 1.376 . S
C2590 H2577 0.930 . S
C2590 C2589 1.376 . S
C2590 C2591 1.388 . S
C2591 H2578 0.930 . S
C2591 C2590 1.388 . S
C2591 C2592 1.390 . S
C2592 C2591 1.390 . S
C2592 C2593 1.394 . S
C2592 C2598 1.465 . S
C2593 C2588 1.399 . S
C2593 C2592 1.394 . S
C2593 C2594 1.516 . S
C2594 C2593 1.516 . S
C2594 C2595 1.502 . S
C2594 C2596 1.561 . S
C2594 C2597 1.526 . S
C2595 H2579 0.959 . S
C2595 H2580 0.959 . S
C2595 H2581 0.961 . S
C2595 C2594 1.502 . S
C2596 H2582 0.960 . S
C2596 H2583 0.961 . S
C2596 H2584 0.959 . S
C2596 C2594 1.561 . S
C2597 C2594 1.526 . S
C2597 C2598 1.396 . S
C2597 C2602 1.390 . S
C2598 C2592 1.465 . S
C2598 C2597 1.396 . S
C2598 C2599 1.399 . S
C2599 H2585 0.929 . S
C2599 C2598 1.399 . S
C2599 C2600 1.385 . S
C2600 H2586 0.931 . S
C2600 C2599 1.385 . S
C2600 C2601 1.389 . S
C2601 C2600 1.389 . S
C2601 C2602 1.387 . S
C2602 H2587 0.930 . S
C2602 C2597 1.390 . S
C2602 C2601 1.387 . S
H2603 C2615 0.930 . S
H2604 C2617 0.930 . S
H2605 C2618 0.930 . S
H2606 C2622 0.959 . S
H2607 C2622 0.959 . S
H2608 C2622 0.961 . S
H2609 C2623 0.960 . S
H2610 C2623 0.961 . S
H2611 C2623 0.959 . S
H2612 C2626 0.929 . S
H2613 C2627 0.931 . S
H2614 C2629 0.930 . S
C2615 H2603 0.930 . S
C2615 C2616 1.399 . S
C2615 C2620 1.399 . S
C2616 C2615 1.399 . S
C2616 C2617 1.376 . S
C2617 H2604 0.930 . S
C2617 C2616 1.376 . S
C2617 C2618 1.388 . S
C2618 H2605 0.930 . S
C2618 C2617 1.388 . S
C2618 C2619 1.390 . S
C2619 C2618 1.390 . S
C2619 C2620 1.394 . S
C2619 C2625 1.465 . S
C2620 C2615 1.399 . S
C2620 C2619 1.394 . S
C2620 C2621 1.516 . S
C2621 C2620 1.516 . S
C2621 C2622 1.502 . S
C2621 C2623 1.561 . S
C2621 C2624 1.526 . S
C2622 H2606 0.959 . S
C2622 H2607 0.959 . S
C2622 H2608 0.961 . S
C2622 C2621 1.502 . S
C2623 H2609 0.960 . S
C2623 H2610 0.961 . S
C2623 H2611 0.959 . S
C2623 C2621 1.561 . S
C2624 C2621 1.526 . S
C2624 C2625 1.396 . S
C2624 C2629 1.390 . S
C2625 C2619 1.465 . S
C2625 C2624 1.396 . S
C2625 C2626 1.399 . S
C2626 H2612 0.929 . S
C2626 C2625 1.399 . S
C2626 C2627 1.385 . S
C2627 H2613 0.931 . S
C2627 C2626 1.385 . S
C2627 C2628 1.389 . S
C2628 C2627 1.389 . S
C2628 C2629 1.387 . S
C2629 H2614 0.930 . S
C2629 C2624 1.390 . S
C2629 C2628 1.387 . S
H2630 C2642 0.930 . S
H2631 C2644 0.930 . S
H2632 C2645 0.930 . S
H2633 C2649 0.959 . S
H2634 C2649 0.959 . S
H2635 C2649 0.961 . S
H2636 C2650 0.960 . S
H2637 C2650 0.961 . S
H2638 C2650 0.959 . S
H2639 C2653 0.929 . S
H2640 C2654 0.931 . S
H2641 C2656 0.930 . S
C2642 H2630 0.930 . S
C2642 C2643 1.399 . S
C2642 C2647 1.399 . S
C2643 C2642 1.399 . S
C2643 C2644 1.376 . S
C2644 H2631 0.930 . S
C2644 C2643 1.376 . S
C2644 C2645 1.388 . S
C2645 H2632 0.930 . S
C2645 C2644 1.388 . S
C2645 C2646 1.390 . S
C2646 C2645 1.390 . S
C2646 C2647 1.394 . S
C2646 C2652 1.465 . S
C2647 C2642 1.399 . S
C2647 C2646 1.394 . S
C2647 C2648 1.516 . S
C2648 C2647 1.516 . S
C2648 C2649 1.502 . S
C2648 C2650 1.561 . S
C2648 C2651 1.526 . S
C2649 H2633 0.959 . S
C2649 H2634 0.959 . S
C2649 H2635 0.961 . S
C2649 C2648 1.502 . S
C2650 H2636 0.960 . S
C2650 H2637 0.961 . S
C2650 H2638 0.959 . S
C2650 C2648 1.561 . S
C2651 C2648 1.526 . S
C2651 C2652 1.396 . S
C2651 C2656 1.390 . S
C2652 C2646 1.465 . S
C2652 C2651 1.396 . S
C2652 C2653 1.399 . S
C2653 H2639 0.929 . S
C2653 C2652 1.399 . S
C2653 C2654 1.385 . S
C2654 H2640 0.931 . S
C2654 C2653 1.385 . S
C2654 C2655 1.389 . S
C2655 C2654 1.389 . S
C2655 C2656 1.387 . S
C2656 H2641 0.930 . S
C2656 C2651 1.390 . S
C2656 C2655 1.387 . S
H2657 C2669 0.930 . S
H2658 C2671 0.930 . S
H2659 C2672 0.930 . S
H2660 C2676 0.959 . S
H2661 C2676 0.959 . S
H2662 C2676 0.961 . S
H2663 C2677 0.960 . S
H2664 C2677 0.961 . S
H2665 C2677 0.959 . S
H2666 C2680 0.929 . S
H2667 C2681 0.931 1_455 S
H2668 C2683 0.930 . S
C2669 H2657 0.930 . S
C2669 C2670 1.399 . S
C2669 C2674 1.399 . S
C2670 C2669 1.399 . S
C2670 C2671 1.376 . S
C2671 H2658 0.930 . S
C2671 C2670 1.376 . S
C2671 C2672 1.388 . S
C2672 H2659 0.930 . S
C2672 C2671 1.388 . S
C2672 C2673 1.390 . S
C2673 C2672 1.390 . S
C2673 C2674 1.394 . S
C2673 C2679 1.465 . S
C2674 C2669 1.399 . S
C2674 C2673 1.394 . S
C2674 C2675 1.516 . S
C2675 C2674 1.516 . S
C2675 C2676 1.502 . S
C2675 C2677 1.561 . S
C2675 C2678 1.526 . S
C2676 H2660 0.959 . S
C2676 H2661 0.959 . S
C2676 H2662 0.961 . S
C2676 C2675 1.502 . S
C2677 H2663 0.960 . S
C2677 H2664 0.961 . S
C2677 H2665 0.959 . S
C2677 C2675 1.561 . S
C2678 C2675 1.526 . S
C2678 C2679 1.396 . S
C2678 C2683 1.390 . S
C2679 C2673 1.465 . S
C2679 C2678 1.396 . S
C2679 C2680 1.399 . S
C2680 H2666 0.929 . S
C2680 C2679 1.399 . S
C2680 C2681 1.385 . S
C2681 H2667 0.931 1_655 S
C2681 C2680 1.385 . S
C2681 C2682 1.390 . S
C2682 C2681 1.390 . S
C2682 C2683 1.404 . S
C2683 H2668 0.930 . S
C2683 C2678 1.390 . S
C2683 C2682 1.404 . S
H2684 C2696 0.930 . S
H2685 C2698 0.930 . S
H2686 C2699 0.930 . S
H2687 C2703 0.959 . S
H2688 C2703 0.959 . S
H2689 C2703 0.961 . S
H2690 C2704 0.960 . S
H2691 C2704 0.961 . S
H2692 C2704 0.959 . S
H2693 C2707 0.929 . S
H2694 C2708 0.931 . S
H2695 C2710 0.930 . S
C2696 H2684 0.930 . S
C2696 C2697 1.399 . S
C2696 C2701 1.399 . S
C2697 C2696 1.399 . S
C2697 C2698 1.376 . S
C2698 H2685 0.930 . S
C2698 C2697 1.376 . S
C2698 C2699 1.388 . S
C2699 H2686 0.930 . S
C2699 C2698 1.388 . S
C2699 C2700 1.390 . S
C2700 C2699 1.390 . S
C2700 C2701 1.394 . S
C2700 C2706 1.465 . S
C2701 C2696 1.399 . S
C2701 C2700 1.394 . S
C2701 C2702 1.516 . S
C2702 C2701 1.516 . S
C2702 C2703 1.502 . S
C2702 C2704 1.561 . S
C2702 C2705 1.526 . S
C2703 H2687 0.959 . S
C2703 H2688 0.959 . S
C2703 H2689 0.961 . S
C2703 C2702 1.502 . S
C2704 H2690 0.960 . S
C2704 H2691 0.961 . S
C2704 H2692 0.959 . S
C2704 C2702 1.561 . S
C2705 C2702 1.526 . S
C2705 C2706 1.396 . S
C2705 C2710 1.390 . S
C2706 C2700 1.465 . S
C2706 C2705 1.396 . S
C2706 C2707 1.399 . S
C2707 H2693 0.929 . S
C2707 C2706 1.399 . S
C2707 C2708 1.385 . S
C2708 H2694 0.931 . S
C2708 C2707 1.385 . S
C2708 C2709 1.389 . S
C2709 C2708 1.389 . S
C2709 C2710 1.387 . S
C2710 H2695 0.930 . S
C2710 C2705 1.390 . S
C2710 C2709 1.387 . S
H2711 C2723 0.930 . S
H2712 C2725 0.930 . S
H2713 C2726 0.930 . S
H2714 C2730 0.959 . S
H2715 C2730 0.959 . S
H2716 C2730 0.961 . S
H2717 C2731 0.960 . S
H2718 C2731 0.961 . S
H2719 C2731 0.959 . S
H2720 C2734 0.929 . S
H2721 C2735 0.943 . S
H2722 C2737 0.930 . S
C2723 H2711 0.930 . S
C2723 C2724 1.399 . S
C2723 C2728 1.399 . S
C2724 C2723 1.399 . S
C2724 C2725 1.376 . S
C2725 H2712 0.930 . S
C2725 C2724 1.376 . S
C2725 C2726 1.388 . S
C2726 H2713 0.930 . S
C2726 C2725 1.388 . S
C2726 C2727 1.390 . S
C2727 C2726 1.390 . S
C2727 C2728 1.394 . S
C2727 C2733 1.465 . S
C2728 C2723 1.399 . S
C2728 C2727 1.394 . S
C2728 C2729 1.516 . S
C2729 C2728 1.516 . S
C2729 C2730 1.502 . S
C2729 C2731 1.561 . S
C2729 C2732 1.526 . S
C2730 H2714 0.959 . S
C2730 H2715 0.959 . S
C2730 H2716 0.961 . S
C2730 C2729 1.502 . S
C2731 H2717 0.960 . S
C2731 H2718 0.961 . S
C2731 H2719 0.959 . S
C2731 C2729 1.561 . S
C2732 C2729 1.526 . S
C2732 C2733 1.396 . S
C2732 C2737 1.390 . S
C2733 C2727 1.465 . S
C2733 C2732 1.396 . S
C2733 C2734 1.399 . S
C2734 H2720 0.929 . S
C2734 C2733 1.399 . S
C2734 C2735 1.374 1_655 S
C2735 H2721 0.943 . S
C2735 C2734 1.374 1_455 S
C2735 C2736 1.389 1_455 S
C2736 C2735 1.389 1_655 S
C2736 C2737 1.398 . S
C2737 H2722 0.930 . S
C2737 C2732 1.390 . S
C2737 C2736 1.398 . S
H2738 C2750 0.930 . S
H2739 C2752 0.930 . S
H2740 C2753 0.930 . S
H2741 C2757 0.959 . S
H2742 C2757 0.959 . S
H2743 C2757 0.961 . S
H2744 C2758 0.960 . S
H2745 C2758 0.961 . S
H2746 C2758 0.959 . S
H2747 C2761 0.929 . S
H2748 C2762 0.931 . S
H2749 C2764 0.930 . S
C2750 H2738 0.930 . S
C2750 C2751 1.399 . S
C2750 C2755 1.399 . S
C2751 C2750 1.399 . S
C2751 C2752 1.376 . S
C2752 H2739 0.930 . S
C2752 C2751 1.376 . S
C2752 C2753 1.388 . S
C2753 H2740 0.930 . S
C2753 C2752 1.388 . S
C2753 C2754 1.390 . S
C2754 C2753 1.390 . S
C2754 C2755 1.394 . S
C2754 C2760 1.465 . S
C2755 C2750 1.399 . S
C2755 C2754 1.394 . S
C2755 C2756 1.516 . S
C2756 C2755 1.516 . S
C2756 C2757 1.502 . S
C2756 C2758 1.561 . S
C2756 C2759 1.526 . S
C2757 H2741 0.959 . S
C2757 H2742 0.959 . S
C2757 H2743 0.961 . S
C2757 C2756 1.502 . S
C2758 H2744 0.960 . S
C2758 H2745 0.961 . S
C2758 H2746 0.959 . S
C2758 C2756 1.561 . S
C2759 C2756 1.526 . S
C2759 C2760 1.396 . S
C2759 C2764 1.390 . S
C2760 C2754 1.465 . S
C2760 C2759 1.396 . S
C2760 C2761 1.399 . S
C2761 H2747 0.929 . S
C2761 C2760 1.399 . S
C2761 C2762 1.385 . S
C2762 H2748 0.931 . S
C2762 C2761 1.385 . S
C2762 C2763 1.389 . S
C2763 C2762 1.389 . S
C2763 C2764 1.387 . S
C2764 H2749 0.930 . S
C2764 C2759 1.390 . S
C2764 C2763 1.387 . S
H2765 C2777 0.930 . S
H2766 C2779 0.930 . S
H2767 C2780 0.930 . S
H2768 C2784 0.959 . S
H2769 C2784 0.959 . S
H2770 C2784 0.961 . S
H2771 C2785 0.960 . S
H2772 C2785 0.961 . S
H2773 C2785 0.959 . S
H2774 C2788 0.929 . S
H2775 C2789 0.931 . S
H2776 C2791 0.930 . S
C2777 H2765 0.930 . S
C2777 C2778 1.399 . S
C2777 C2782 1.399 . S
C2778 C2777 1.399 . S
C2778 C2779 1.376 . S
C2779 H2766 0.930 . S
C2779 C2778 1.376 . S
C2779 C2780 1.388 . S
C2780 H2767 0.930 . S
C2780 C2779 1.388 . S
C2780 C2781 1.390 . S
C2781 C2780 1.390 . S
C2781 C2782 1.394 . S
C2781 C2787 1.465 . S
C2782 C2777 1.399 . S
C2782 C2781 1.394 . S
C2782 C2783 1.516 . S
C2783 C2782 1.516 . S
C2783 C2784 1.502 . S
C2783 C2785 1.561 . S
C2783 C2786 1.526 . S
C2784 H2768 0.959 . S
C2784 H2769 0.959 . S
C2784 H2770 0.961 . S
C2784 C2783 1.502 . S
C2785 H2771 0.960 . S
C2785 H2772 0.961 . S
C2785 H2773 0.959 . S
C2785 C2783 1.561 . S
C2786 C2783 1.526 . S
C2786 C2787 1.396 . S
C2786 C2791 1.390 . S
C2787 C2781 1.465 . S
C2787 C2786 1.396 . S
C2787 C2788 1.399 . S
C2788 H2774 0.929 . S
C2788 C2787 1.399 . S
C2788 C2789 1.385 . S
C2789 H2775 0.931 . S
C2789 C2788 1.385 . S
C2789 C2790 1.389 . S
C2790 C2789 1.389 . S
C2790 C2791 1.387 . S
C2791 H2776 0.930 . S
C2791 C2786 1.390 . S
C2791 C2790 1.387 . S
H2792 C2804 0.930 . S
H2793 C2806 0.930 . S
H2794 C2807 0.930 . S
H2795 C2811 0.959 . S
H2796 C2811 0.959 . S
H2797 C2811 0.961 . S
H2798 C2812 0.960 . S
H2799 C2812 0.961 . S
H2800 C2812 0.959 . S
H2801 C2815 0.929 . S
H2802 C2816 0.931 . S
H2803 C2818 0.930 . S
C2804 H2792 0.930 . S
C2804 C2805 1.399 . S
C2804 C2809 1.399 . S
C2805 C2804 1.399 . S
C2805 C2806 1.376 . S
C2806 H2793 0.930 . S
C2806 C2805 1.376 . S
C2806 C2807 1.388 . S
C2807 H2794 0.930 . S
C2807 C2806 1.388 . S
C2807 C2808 1.390 . S
C2808 C2807 1.390 . S
C2808 C2809 1.394 . S
C2808 C2814 1.465 . S
C2809 C2804 1.399 . S
C2809 C2808 1.394 . S
C2809 C2810 1.516 . S
C2810 C2809 1.516 . S
C2810 C2811 1.502 . S
C2810 C2812 1.561 . S
C2810 C2813 1.526 . S
C2811 H2795 0.959 . S
C2811 H2796 0.959 . S
C2811 H2797 0.961 . S
C2811 C2810 1.502 . S
C2812 H2798 0.960 . S
C2812 H2799 0.961 . S
C2812 H2800 0.959 . S
C2812 C2810 1.561 . S
C2813 C2810 1.526 . S
C2813 C2814 1.396 . S
C2813 C2818 1.390 . S
C2814 C2808 1.465 . S
C2814 C2813 1.396 . S
C2814 C2815 1.399 . S
C2815 H2801 0.929 . S
C2815 C2814 1.399 . S
C2815 C2816 1.385 . S
C2816 H2802 0.931 . S
C2816 C2815 1.385 . S
C2816 C2817 1.389 . S
C2817 C2816 1.389 . S
C2817 C2818 1.387 . S
C2818 H2803 0.930 . S
C2818 C2813 1.390 . S
C2818 C2817 1.387 . S
H2819 C2831 0.930 . S
H2820 C2833 0.930 . S
H2821 C2834 0.930 . S
H2822 C2838 0.959 . S
H2823 C2838 0.959 . S
H2824 C2838 0.961 . S
H2825 C2839 0.960 . S
H2826 C2839 0.961 . S
H2827 C2839 0.959 . S
H2828 C2842 0.929 . S
H2829 C2843 0.931 . S
H2830 C2845 0.930 . S
C2831 H2819 0.930 . S
C2831 C2832 1.399 . S
C2831 C2836 1.399 . S
C2832 C2831 1.399 . S
C2832 C2833 1.376 . S
C2833 H2820 0.930 . S
C2833 C2832 1.376 . S
C2833 C2834 1.388 . S
C2834 H2821 0.930 . S
C2834 C2833 1.388 . S
C2834 C2835 1.390 . S
C2835 C2834 1.390 . S
C2835 C2836 1.394 . S
C2835 C2841 1.465 . S
C2836 C2831 1.399 . S
C2836 C2835 1.394 . S
C2836 C2837 1.516 . S
C2837 C2836 1.516 . S
C2837 C2838 1.502 . S
C2837 C2839 1.561 . S
C2837 C2840 1.526 . S
C2838 H2822 0.959 . S
C2838 H2823 0.959 . S
C2838 H2824 0.961 . S
C2838 C2837 1.502 . S
C2839 H2825 0.960 . S
C2839 H2826 0.961 . S
C2839 H2827 0.959 . S
C2839 C2837 1.561 . S
C2840 C2837 1.526 . S
C2840 C2841 1.396 . S
C2840 C2845 1.390 . S
C2841 C2835 1.465 . S
C2841 C2840 1.396 . S
C2841 C2842 1.399 . S
C2842 H2828 0.929 . S
C2842 C2841 1.399 . S
C2842 C2843 1.385 . S
C2843 H2829 0.931 . S
C2843 C2842 1.385 . S
C2843 C2844 1.389 . S
C2844 C2843 1.389 . S
C2844 C2845 1.387 . S
C2845 H2830 0.930 . S
C2845 C2840 1.390 . S
C2845 C2844 1.387 . S
H2846 C2858 0.930 . S
H2847 C2860 0.930 . S
H2848 C2861 0.930 . S
H2849 C2865 0.959 . S
H2850 C2865 0.959 . S
H2851 C2865 0.961 . S
H2852 C2866 0.960 . S
H2853 C2866 0.961 . S
H2854 C2866 0.959 . S
H2855 C2869 0.929 . S
H2856 C2870 0.931 . S
H2857 C2872 0.930 . S
C2858 H2846 0.930 . S
C2858 C2859 1.399 . S
C2858 C2863 1.399 . S
C2859 C2858 1.399 . S
C2859 C2860 1.376 . S
C2860 H2847 0.930 . S
C2860 C2859 1.376 . S
C2860 C2861 1.388 . S
C2861 H2848 0.930 . S
C2861 C2860 1.388 . S
C2861 C2862 1.390 . S
C2862 C2861 1.390 . S
C2862 C2863 1.394 . S
C2862 C2868 1.465 . S
C2863 C2858 1.399 . S
C2863 C2862 1.394 . S
C2863 C2864 1.516 . S
C2864 C2863 1.516 . S
C2864 C2865 1.502 . S
C2864 C2866 1.561 . S
C2864 C2867 1.526 . S
C2865 H2849 0.959 . S
C2865 H2850 0.959 . S
C2865 H2851 0.961 . S
C2865 C2864 1.502 . S
C2866 H2852 0.960 . S
C2866 H2853 0.961 . S
C2866 H2854 0.959 . S
C2866 C2864 1.561 . S
C2867 C2864 1.526 . S
C2867 C2868 1.396 . S
C2867 C2872 1.390 . S
C2868 C2862 1.465 . S
C2868 C2867 1.396 . S
C2868 C2869 1.399 . S
C2869 H2855 0.929 . S
C2869 C2868 1.399 . S
C2869 C2870 1.385 . S
C2870 H2856 0.931 . S
C2870 C2869 1.385 . S
C2870 C2871 1.389 . S
C2871 C2870 1.389 . S
C2871 C2872 1.387 . S
C2872 H2857 0.930 . S
C2872 C2867 1.390 . S
C2872 C2871 1.387 . S
H2873 C2885 0.930 1_655 S
H2874 C2887 0.930 . S
H2875 C2888 0.930 . S
H2876 C2892 0.959 . S
H2877 C2892 0.959 . S
H2878 C2892 0.961 . S
H2879 C2893 0.960 . S
H2880 C2893 0.961 . S
H2881 C2893 0.959 . S
H2882 C2896 0.929 . S
H2883 C2897 0.931 . S
H2884 C2899 0.930 . S
C2885 H2873 0.930 1_455 S
C2885 C2886 1.399 . S
C2885 C2890 1.399 . S
C2886 C2885 1.399 . S
C2886 C2887 1.376 . S
C2887 H2874 0.930 . S
C2887 C2886 1.376 . S
C2887 C2888 1.388 . S
C2888 H2875 0.930 . S
C2888 C2887 1.388 . S
C2888 C2889 1.390 . S
C2889 C2888 1.390 . S
C2889 C2890 1.394 . S
C2889 C2895 1.465 . S
C2890 C2885 1.399 . S
C2890 C2889 1.394 . S
C2890 C2891 1.516 . S
C2891 C2890 1.516 . S
C2891 C2892 1.502 . S
C2891 C2893 1.561 . S
C2891 C2894 1.526 . S
C2892 H2876 0.959 . S
C2892 H2877 0.959 . S
C2892 H2878 0.961 . S
C2892 C2891 1.502 . S
C2893 H2879 0.960 . S
C2893 H2880 0.961 . S
C2893 H2881 0.959 . S
C2893 C2891 1.561 . S
C2894 C2891 1.526 . S
C2894 C2895 1.396 . S
C2894 C2899 1.390 . S
C2895 C2889 1.465 . S
C2895 C2894 1.396 . S
C2895 C2896 1.399 . S
C2896 H2882 0.929 . S
C2896 C2895 1.399 . S
C2896 C2897 1.385 . S
C2897 H2883 0.931 . S
C2897 C2896 1.385 . S
C2897 C2898 1.389 . S
C2898 C2897 1.389 . S
C2898 C2899 1.387 . S
C2899 H2884 0.930 . S
C2899 C2894 1.390 . S
C2899 C2898 1.387 . S
H2900 C2912 0.930 . S
H2901 C2914 0.930 . S
H2902 C2915 0.930 . S
H2903 C2919 0.959 . S
H2904 C2919 0.959 . S
H2905 C2919 0.961 . S
H2906 C2920 0.960 . S
H2907 C2920 0.961 . S
H2908 C2920 0.959 . S
H2909 C2923 0.929 . S
H2910 C2924 0.931 . S
H2911 C2926 0.930 . S
C2912 H2900 0.930 . S
C2912 C2913 1.399 . S
C2912 C2917 1.399 . S
C2913 C2912 1.399 . S
C2913 C2914 1.376 . S
C2914 H2901 0.930 . S
C2914 C2913 1.376 . S
C2914 C2915 1.388 . S
C2915 H2902 0.930 . S
C2915 C2914 1.388 . S
C2915 C2916 1.390 . S
C2916 C2915 1.390 . S
C2916 C2917 1.394 . S
C2916 C2922 1.465 . S
C2917 C2912 1.399 . S
C2917 C2916 1.394 . S
C2917 C2918 1.516 . S
C2918 C2917 1.516 . S
C2918 C2919 1.502 . S
C2918 C2920 1.561 . S
C2918 C2921 1.526 . S
C2919 H2903 0.959 . S
C2919 H2904 0.959 . S
C2919 H2905 0.961 . S
C2919 C2918 1.502 . S
C2920 H2906 0.960 . S
C2920 H2907 0.961 . S
C2920 H2908 0.959 . S
C2920 C2918 1.561 . S
C2921 C2918 1.526 . S
C2921 C2922 1.396 . S
C2921 C2926 1.390 . S
C2922 C2916 1.465 . S
C2922 C2921 1.396 . S
C2922 C2923 1.399 . S
C2923 H2909 0.929 . S
C2923 C2922 1.399 . S
C2923 C2924 1.385 . S
C2924 H2910 0.931 . S
C2924 C2923 1.385 . S
C2924 C2925 1.389 . S
C2925 C2924 1.389 . S
C2925 C2926 1.387 . S
C2926 H2911 0.930 . S
C2926 C2921 1.390 . S
C2926 C2925 1.387 . S
H2927 C2939 0.930 . S
H2928 C2941 0.930 . S
H2929 C2942 0.930 . S
H2930 C2946 0.959 . S
H2931 C2946 0.959 . S
H2932 C2946 0.961 . S
H2933 C2947 0.960 . S
H2934 C2947 0.961 . S
H2935 C2947 0.959 . S
H2936 C2950 0.929 . S
H2937 C2951 0.931 . S
H2938 C2953 0.930 1_655 S
C2939 H2927 0.930 . S
C2939 C2940 1.399 . S
C2939 C2944 1.399 . S
C2940 C2939 1.399 . S
C2940 C2941 1.376 . S
C2941 H2928 0.930 . S
C2941 C2940 1.376 . S
C2941 C2942 1.388 . S
C2942 H2929 0.930 . S
C2942 C2941 1.388 . S
C2942 C2943 1.390 . S
C2943 C2942 1.390 . S
C2943 C2944 1.394 . S
C2943 C2949 1.465 . S
C2944 C2939 1.399 . S
C2944 C2943 1.394 . S
C2944 C2945 1.516 . S
C2945 C2944 1.516 . S
C2945 C2946 1.502 . S
C2945 C2947 1.561 . S
C2945 C2948 1.526 . S
C2946 H2930 0.959 . S
C2946 H2931 0.959 . S
C2946 H2932 0.961 . S
C2946 C2945 1.502 . S
C2947 H2933 0.960 . S
C2947 H2934 0.961 . S
C2947 H2935 0.959 . S
C2947 C2945 1.561 . S
C2948 C2945 1.526 . S
C2948 C2949 1.396 . S
C2948 C2953 1.390 . S
C2949 C2943 1.465 . S
C2949 C2948 1.396 . S
C2949 C2950 1.399 . S
C2950 H2936 0.929 . S
C2950 C2949 1.399 . S
C2950 C2951 1.385 . S
C2951 H2937 0.931 . S
C2951 C2950 1.385 . S
C2951 C2952 1.389 . S
C2952 C2951 1.389 . S
C2952 C2953 1.387 . S
C2953 H2938 0.930 1_455 S
C2953 C2948 1.390 . S
C2953 C2952 1.387 . S
H2954 C2966 0.930 . S
H2955 C2968 0.930 . S
H2956 C2969 0.930 . S
H2957 C2973 0.959 . S
H2958 C2973 0.959 . S
H2959 C2973 0.961 . S
H2960 C2974 0.960 . S
H2961 C2974 0.961 . S
H2962 C2974 0.959 . S
H2963 C2977 0.929 . S
H2964 C2978 0.931 . S
H2965 C2980 0.930 . S
C2966 H2954 0.930 . S
C2966 C2967 1.399 . S
C2966 C2971 1.399 . S
C2967 C2966 1.399 . S
C2967 C2968 1.376 . S
C2968 H2955 0.930 . S
C2968 C2967 1.376 . S
C2968 C2969 1.388 . S
C2969 H2956 0.930 . S
C2969 C2968 1.388 . S
C2969 C2970 1.390 . S
C2970 C2969 1.390 . S
C2970 C2971 1.394 . S
C2970 C2976 1.465 . S
C2971 C2966 1.399 . S
C2971 C2970 1.394 . S
C2971 C2972 1.516 . S
C2972 C2971 1.516 . S
C2972 C2973 1.502 . S
C2972 C2974 1.561 . S
C2972 C2975 1.526 . S
C2973 H2957 0.959 . S
C2973 H2958 0.959 . S
C2973 H2959 0.961 . S
C2973 C2972 1.502 . S
C2974 H2960 0.960 . S
C2974 H2961 0.961 . S
C2974 H2962 0.959 . S
C2974 C2972 1.561 . S
C2975 C2972 1.526 . S
C2975 C2976 1.396 . S
C2975 C2980 1.390 . S
C2976 C2970 1.465 . S
C2976 C2975 1.396 . S
C2976 C2977 1.399 . S
C2977 H2963 0.929 . S
C2977 C2976 1.399 . S
C2977 C2978 1.385 . S
C2978 H2964 0.931 . S
C2978 C2977 1.385 . S
C2978 C2979 1.389 . S
C2979 C2978 1.389 . S
C2979 C2980 1.387 . S
C2980 H2965 0.930 . S
C2980 C2975 1.390 . S
C2980 C2979 1.387 . S
H2981 C2993 0.930 . S
H2982 C2995 0.930 . S
H2983 C2996 0.930 . S
H2984 C3000 0.959 . S
H2985 C3000 0.959 . S
H2986 C3000 0.961 . S
H2987 C3001 0.960 . S
H2988 C3001 0.961 . S
H2989 C3001 0.959 . S
H2990 C3004 0.929 . S
H2991 C3005 0.931 . S
H2992 C3007 0.930 . S
C2993 H2981 0.930 . S
C2993 C2994 1.399 . S
C2993 C2998 1.399 . S
C2994 C2993 1.399 . S
C2994 C2995 1.376 . S
C2995 H2982 0.930 . S
C2995 C2994 1.376 . S
C2995 C2996 1.388 . S
C2996 H2983 0.930 . S
C2996 C2995 1.388 . S
C2996 C2997 1.390 . S
C2997 C2996 1.390 . S
C2997 C2998 1.394 . S
C2997 C3003 1.465 . S
C2998 C2993 1.399 . S
C2998 C2997 1.394 . S
C2998 C2999 1.516 . S
C2999 C2998 1.516 . S
C2999 C3000 1.502 . S
C2999 C3001 1.561 . S
C2999 C3002 1.526 . S
C3000 H2984 0.959 . S
C3000 H2985 0.959 . S
C3000 H2986 0.961 . S
C3000 C2999 1.502 . S
C3001 H2987 0.960 . S
C3001 H2988 0.961 . S
C3001 H2989 0.959 . S
C3001 C2999 1.561 . S
C3002 C2999 1.526 . S
C3002 C3003 1.396 . S
C3002 C3007 1.390 . S
C3003 C2997 1.465 . S
C3003 C3002 1.396 . S
C3003 C3004 1.399 . S
C3004 H2990 0.929 . S
C3004 C3003 1.399 . S
C3004 C3005 1.385 . S
C3005 H2991 0.931 . S
C3005 C3004 1.385 . S
C3005 C3006 1.389 . S
C3006 C3005 1.389 . S
C3006 C3007 1.387 . S
C3007 H2992 0.930 . S
C3007 C3002 1.390 . S
C3007 C3006 1.387 . S
H3008 C3020 0.930 . S
H3009 C3022 0.930 . S
H3010 C3023 0.930 . S
H3011 C3027 0.959 . S
H3012 C3027 0.959 . S
H3013 C3027 0.961 1_545 S
H3014 C3028 0.960 1_545 S
H3015 C3028 0.961 . S
H3016 C3028 0.959 . S
H3017 C3031 0.929 . S
H3018 C3032 0.931 . S
H3019 C3034 0.930 . S
C3020 H3008 0.930 . S
C3020 C3021 1.399 . S
C3020 C3025 1.399 . S
C3021 C3020 1.399 . S
C3021 C3022 1.376 . S
C3022 H3009 0.930 . S
C3022 C3021 1.376 . S
C3022 C3023 1.388 . S
C3023 H3010 0.930 . S
C3023 C3022 1.388 . S
C3023 C3024 1.390 . S
C3024 C3023 1.390 . S
C3024 C3025 1.394 . S
C3024 C3030 1.465 1_545 S
C3025 C3020 1.399 . S
C3025 C3024 1.394 . S
C3025 C3026 1.516 1_545 S
C3026 C3025 1.516 1_565 S
C3026 C3027 1.502 . S
C3026 C3028 1.561 . S
C3026 C3029 1.526 . S
C3027 H3011 0.959 . S
C3027 H3012 0.959 . S
C3027 H3013 0.961 1_565 S
C3027 C3026 1.502 . S
C3028 H3014 0.960 1_565 S
C3028 H3015 0.961 . S
C3028 H3016 0.959 . S
C3028 C3026 1.561 . S
C3029 C3026 1.526 . S
C3029 C3030 1.396 . S
C3029 C3034 1.390 . S
C3030 C3024 1.465 1_565 S
C3030 C3029 1.396 . S
C3030 C3031 1.399 . S
C3031 H3017 0.929 . S
C3031 C3030 1.399 . S
C3031 C3032 1.385 . S
C3032 H3018 0.931 . S
C3032 C3031 1.385 . S
C3032 C3033 1.389 . S
C3033 C3032 1.389 . S
C3033 C3034 1.387 . S
C3034 H3019 0.930 . S
C3034 C3029 1.390 . S
C3034 C3033 1.387 . S
H3035 C3047 0.930 . S
H3036 C3049 0.930 . S
H3037 C3050 0.930 . S
H3038 C3054 0.959 . S
H3039 C3054 0.959 . S
H3040 C3054 0.961 . S
H3041 C3055 0.960 . S
H3042 C3055 0.961 . S
H3043 C3055 0.959 . S
H3044 C3058 0.929 . S
H3045 C3059 0.931 . S
H3046 C3061 0.930 . S
C3047 H3035 0.930 . S
C3047 C3048 1.399 . S
C3047 C3052 1.399 . S
C3048 C3047 1.399 . S
C3048 C3049 1.376 . S
C3049 H3036 0.930 . S
C3049 C3048 1.376 . S
C3049 C3050 1.388 . S
C3050 H3037 0.930 . S
C3050 C3049 1.388 . S
C3050 C3051 1.390 . S
C3051 C3050 1.390 . S
C3051 C3052 1.394 . S
C3051 C3057 1.465 . S
C3052 C3047 1.399 . S
C3052 C3051 1.394 . S
C3052 C3053 1.516 . S
C3053 C3052 1.516 . S
C3053 C3054 1.502 . S
C3053 C3055 1.561 . S
C3053 C3056 1.526 . S
C3054 H3038 0.959 . S
C3054 H3039 0.959 . S
C3054 H3040 0.961 . S
C3054 C3053 1.502 . S
C3055 H3041 0.960 . S
C3055 H3042 0.961 . S
C3055 H3043 0.959 . S
C3055 C3053 1.561 . S
C3056 C3053 1.526 . S
C3056 C3057 1.396 . S
C3056 C3061 1.390 . S
C3057 C3051 1.465 . S
C3057 C3056 1.396 . S
C3057 C3058 1.399 . S
C3058 H3044 0.929 . S
C3058 C3057 1.399 . S
C3058 C3059 1.385 . S
C3059 H3045 0.931 . S
C3059 C3058 1.385 . S
C3059 C3060 1.389 . S
C3060 C3059 1.389 . S
C3060 C3061 1.387 . S
C3061 H3046 0.930 . S
C3061 C3056 1.390 . S
C3061 C3060 1.387 . S
H3062 C3074 0.930 . S
H3063 C3076 0.930 . S
H3064 C3077 0.930 . S
H3065 C3081 0.959 . S
H3066 C3081 0.959 . S
H3067 C3081 0.961 1_565 S
H3068 C3082 0.960 1_565 S
H3069 C3082 0.961 . S
H3070 C3082 0.959 . S
H3071 C3085 0.929 . S
H3072 C3086 0.931 . S
H3073 C3088 0.930 . S
C3074 H3062 0.930 . S
C3074 C3075 1.399 . S
C3074 C3079 1.399 . S
C3075 C3074 1.399 . S
C3075 C3076 1.376 . S
C3076 H3063 0.930 . S
C3076 C3075 1.376 . S
C3076 C3077 1.388 . S
C3077 H3064 0.930 . S
C3077 C3076 1.388 . S
C3077 C3078 1.390 . S
C3078 C3077 1.390 . S
C3078 C3079 1.394 . S
C3078 C3084 1.465 1_565 S
C3079 C3074 1.399 . S
C3079 C3078 1.394 . S
C3079 C3080 1.516 1_565 S
C3080 C3079 1.516 1_545 S
C3080 C3081 1.502 . S
C3080 C3082 1.561 . S
C3080 C3083 1.526 . S
C3081 H3065 0.959 . S
C3081 H3066 0.959 . S
C3081 H3067 0.961 1_545 S
C3081 C3080 1.502 . S
C3082 H3068 0.960 1_545 S
C3082 H3069 0.961 . S
C3082 H3070 0.959 . S
C3082 C3080 1.561 . S
C3083 C3080 1.526 . S
C3083 C3084 1.396 . S
C3083 C3088 1.390 . S
C3084 C3078 1.465 1_545 S
C3084 C3083 1.396 . S
C3084 C3085 1.399 . S
C3085 H3071 0.929 . S
C3085 C3084 1.399 . S
C3085 C3086 1.385 . S
C3086 H3072 0.931 . S
C3086 C3085 1.385 . S
C3086 C3087 1.389 . S
C3087 C3086 1.389 . S
C3087 C3088 1.387 . S
C3088 H3073 0.930 . S
C3088 C3083 1.390 . S
C3088 C3087 1.387 . S
H3089 C3101 0.930 . S
H3090 C3103 0.930 . S
H3091 C3104 0.930 . S
H3092 C3108 0.959 . S
H3093 C3108 0.959 . S
H3094 C3108 0.961 . S
H3095 C3109 0.966 . S
H3096 C3109 0.961 1_554 S
H3097 C3109 0.959 . S
H3098 C3112 0.929 . S
H3099 C3113 0.931 . S
H3100 C3115 0.930 . S
C3101 H3089 0.930 . S
C3101 C3102 1.399 1_554 S
C3101 C3106 1.399 . S
C3102 C3101 1.399 1_556 S
C3102 C3103 1.376 . S
C3103 H3090 0.930 . S
C3103 C3102 1.376 . S
C3103 C3104 1.388 . S
C3104 H3091 0.930 . S
C3104 C3103 1.388 . S
C3104 C3105 1.390 . S
C3105 C3104 1.390 . S
C3105 C3106 1.394 1_556 S
C3105 C3111 1.465 . S
C3106 C3101 1.399 . S
C3106 C3105 1.394 1_554 S
C3106 C3107 1.516 . S
C3107 C3106 1.516 . S
C3107 C3108 1.502 . S
C3107 C3109 1.561 1_554 S
C3107 C3110 1.526 . S
C3108 H3092 0.959 . S
C3108 H3093 0.959 . S
C3108 H3094 0.961 . S
C3108 C3107 1.502 . S
C3109 H3095 0.966 . S
C3109 H3096 0.961 1_556 S
C3109 H3097 0.959 . S
C3109 C3107 1.561 1_556 S
C3110 C3107 1.526 . S
C3110 C3111 1.396 1_554 S
C3110 C3115 1.390 . S
C3111 C3105 1.465 . S
C3111 C3110 1.396 1_556 S
C3111 C3112 1.399 . S
C3112 H3098 0.929 . S
C3112 C3111 1.399 . S
C3112 C3113 1.385 . S
C3113 H3099 0.931 . S
C3113 C3112 1.385 . S
C3113 C3114 1.389 1_556 S
C3114 C3113 1.389 1_554 S
C3114 C3115 1.387 . S
C3115 H3100 0.930 . S
C3115 C3110 1.390 . S
C3115 C3114 1.387 . S
H3116 C3128 0.930 . S
H3117 C3130 0.930 . S
H3118 C3131 0.930 . S
H3119 C3135 0.961 . S
H3120 C3135 0.967 . S
H3121 C3135 0.952 1_545 S
H3122 C3136 0.960 . S
H3123 C3136 0.961 1_565 S
H3124 C3136 0.961 . S
H3125 C3139 0.929 . S
H3126 C3140 0.931 . S
H3127 C3142 0.930 . S
C3128 H3116 0.930 . S
C3128 C3129 1.399 . S
C3128 C3133 1.399 . S
C3129 C3128 1.399 . S
C3129 C3130 1.376 . S
C3130 H3117 0.930 . S
C3130 C3129 1.376 . S
C3130 C3131 1.388 . S
C3131 H3118 0.930 . S
C3131 C3130 1.388 . S
C3131 C3132 1.390 . S
C3132 C3131 1.390 . S
C3132 C3133 1.394 . S
C3132 C3138 1.465 1_545 S
C3133 C3128 1.399 . S
C3133 C3132 1.394 . S
C3133 C3134 1.535 . S
C3134 C3133 1.535 . S
C3134 C3135 1.501 1_545 S
C3134 C3136 1.562 . S
C3134 C3137 1.506 1_545 S
C3135 H3119 0.961 . S
C3135 H3120 0.967 . S
C3135 H3121 0.952 1_565 S
C3135 C3134 1.501 1_565 S
C3136 H3122 0.960 . S
C3136 H3123 0.961 1_545 S
C3136 H3124 0.961 . S
C3136 C3134 1.562 . S
C3137 C3134 1.506 1_565 S
C3137 C3138 1.396 . S
C3137 C3142 1.390 . S
C3138 C3132 1.465 1_565 S
C3138 C3137 1.396 . S
C3138 C3139 1.399 . S
C3139 H3125 0.929 . S
C3139 C3138 1.399 . S
C3139 C3140 1.385 . S
C3140 H3126 0.931 . S
C3140 C3139 1.385 . S
C3140 C3141 1.389 . S
C3141 C3140 1.389 . S
C3141 C3142 1.387 . S
C3142 H3127 0.930 . S
C3142 C3137 1.390 . S
C3142 C3141 1.387 . S
H3143 C3155 0.930 . S
H3144 C3157 0.930 . S
H3145 C3158 0.930 . S
H3146 C3162 0.959 . S
H3147 C3162 0.959 . S
H3148 C3162 0.961 . S
H3149 C3163 0.960 . S
H3150 C3163 0.961 . S
H3151 C3163 0.959 . S
H3152 C3166 0.929 . S
H3153 C3167 0.931 . S
H3154 C3169 0.930 . S
C3155 H3143 0.930 . S
C3155 C3156 1.399 . S
C3155 C3160 1.399 . S
C3156 C3155 1.399 . S
C3156 C3157 1.376 . S
C3157 H3144 0.930 . S
C3157 C3156 1.376 . S
C3157 C3158 1.388 . S
C3158 H3145 0.930 . S
C3158 C3157 1.388 . S
C3158 C3159 1.390 . S
C3159 C3158 1.390 . S
C3159 C3160 1.394 . S
C3159 C3165 1.465 . S
C3160 C3155 1.399 . S
C3160 C3159 1.394 . S
C3160 C3161 1.516 . S
C3161 C3160 1.516 . S
C3161 C3162 1.502 . S
C3161 C3163 1.561 . S
C3161 C3164 1.526 . S
C3162 H3146 0.959 . S
C3162 H3147 0.959 . S
C3162 H3148 0.961 . S
C3162 C3161 1.502 . S
C3163 H3149 0.960 . S
C3163 H3150 0.961 . S
C3163 H3151 0.959 . S
C3163 C3161 1.561 . S
C3164 C3161 1.526 . S
C3164 C3165 1.396 . S
C3164 C3169 1.390 . S
C3165 C3159 1.465 . S
C3165 C3164 1.396 . S
C3165 C3166 1.399 . S
C3166 H3152 0.929 . S
C3166 C3165 1.399 . S
C3166 C3167 1.385 . S
C3167 H3153 0.931 . S
C3167 C3166 1.385 . S
C3167 C3168 1.389 . S
C3168 C3167 1.389 . S
C3168 C3169 1.387 . S
C3169 H3154 0.930 . S
C3169 C3164 1.390 . S
C3169 C3168 1.387 . S
H3170 C3182 0.930 . S
H3171 C3184 0.930 . S
H3172 C3185 0.930 . S
H3173 C3189 0.953 1_565 S
H3174 C3189 0.919 1_565 S
H3175 C3189 1.009 . S
H3176 C3190 0.960 . S
H3177 C3190 0.961 1_565 S
H3178 C3190 0.959 . S
H3179 C3193 0.929 . S
H3180 C3194 0.931 . S
H3181 C3196 0.930 . S
C3182 H3170 0.930 . S
C3182 C3183 1.399 . S
C3182 C3187 1.399 . S
C3183 C3182 1.399 . S
C3183 C3184 1.376 . S
C3184 H3171 0.930 . S
C3184 C3183 1.376 . S
C3184 C3185 1.388 . S
C3185 H3172 0.930 . S
C3185 C3184 1.388 . S
C3185 C3186 1.390 . S
C3186 C3185 1.390 . S
C3186 C3187 1.394 . S
C3186 C3192 1.465 1_545 S
C3187 C3182 1.399 . S
C3187 C3186 1.394 . S
C3187 C3188 1.558 . S
C3188 C3187 1.558 . S
C3188 C3189 1.502 . S
C3188 C3190 1.564 . S
C3188 C3191 1.482 1_545 S
C3189 H3173 0.953 1_545 S
C3189 H3174 0.919 1_545 S
C3189 H3175 1.009 . S
C3189 C3188 1.502 . S
C3190 H3176 0.960 . S
C3190 H3177 0.961 1_545 S
C3190 H3178 0.959 . S
C3190 C3188 1.564 . S
C3191 C3188 1.482 1_565 S
C3191 C3192 1.396 . S
C3191 C3196 1.390 . S
C3192 C3186 1.465 1_565 S
C3192 C3191 1.396 . S
C3192 C3193 1.399 . S
C3193 H3179 0.929 . S
C3193 C3192 1.399 . S
C3193 C3194 1.385 . S
C3194 H3180 0.931 . S
C3194 C3193 1.385 . S
C3194 C3195 1.389 . S
C3195 C3194 1.389 . S
C3195 C3196 1.387 . S
C3196 H3181 0.930 . S
C3196 C3191 1.390 . S
C3196 C3195 1.387 . S
H3197 C3209 0.930 . S
H3198 C3211 0.930 . S
H3199 C3212 0.930 . S
H3200 C3216 0.959 . S
H3201 C3216 0.959 . S
H3202 C3216 0.961 . S
H3203 C3217 0.960 . S
H3204 C3217 0.961 . S
H3205 C3217 0.959 . S
H3206 C3220 0.929 . S
H3207 C3221 0.931 . S
H3208 C3223 0.930 . S
C3209 H3197 0.930 . S
C3209 C3210 1.397 . S
C3209 C3214 1.399 . S
C3210 C3209 1.397 . S
C3210 C3211 1.380 1_556 S
C3211 H3198 0.930 . S
C3211 C3210 1.380 1_554 S
C3211 C3212 1.388 . S
C3212 H3199 0.930 . S
C3212 C3211 1.388 . S
C3212 C3213 1.390 . S
C3213 C3212 1.390 . S
C3213 C3214 1.394 1_554 S
C3213 C3219 1.465 . S
C3214 C3209 1.399 . S
C3214 C3213 1.394 1_556 S
C3214 C3215 1.516 . S
C3215 C3214 1.516 . S
C3215 C3216 1.502 . S
C3215 C3217 1.561 . S
C3215 C3218 1.526 . S
C3216 H3200 0.959 . S
C3216 H3201 0.959 . S
C3216 H3202 0.961 . S
C3216 C3215 1.502 . S
C3217 H3203 0.960 . S
C3217 H3204 0.961 . S
C3217 H3205 0.959 . S
C3217 C3215 1.561 . S
C3218 C3215 1.526 . S
C3218 C3219 1.396 1_556 S
C3218 C3223 1.390 . S
C3219 C3213 1.465 . S
C3219 C3218 1.396 1_554 S
C3219 C3220 1.399 . S
C3220 H3206 0.929 . S
C3220 C3219 1.399 . S
C3220 C3221 1.385 . S
C3221 H3207 0.931 . S
C3221 C3220 1.385 . S
C3221 C3222 1.389 . S
C3222 C3221 1.389 . S
C3222 C3223 1.387 1_554 S
C3223 H3208 0.930 . S
C3223 C3218 1.390 . S
C3223 C3222 1.387 1_556 S
H3224 C3236 0.930 . S
H3225 C3238 0.930 . S
H3226 C3239 0.930 . S
H3227 C3243 0.959 . S
H3228 C3243 0.959 . S
H3229 C3243 0.961 . S
H3230 C3244 0.960 . S
H3231 C3244 0.961 . S
H3232 C3244 0.959 . S
H3233 C3247 0.929 . S
H3234 C3248 0.931 . S
H3235 C3250 0.930 . S
C3236 H3224 0.930 . S
C3236 C3237 1.399 . S
C3236 C3241 1.399 . S
C3237 C3236 1.399 . S
C3237 C3238 1.376 . S
C3238 H3225 0.930 . S
C3238 C3237 1.376 . S
C3238 C3239 1.388 . S
C3239 H3226 0.930 . S
C3239 C3238 1.388 . S
C3239 C3240 1.390 . S
C3240 C3239 1.390 . S
C3240 C3241 1.394 . S
C3240 C3246 1.465 . S
C3241 C3236 1.399 . S
C3241 C3240 1.394 . S
C3241 C3242 1.516 . S
C3242 C3241 1.516 . S
C3242 C3243 1.502 . S
C3242 C3244 1.561 . S
C3242 C3245 1.526 . S
C3243 H3227 0.959 . S
C3243 H3228 0.959 . S
C3243 H3229 0.961 . S
C3243 C3242 1.502 . S
C3244 H3230 0.960 . S
C3244 H3231 0.961 . S
C3244 H3232 0.959 . S
C3244 C3242 1.561 . S
C3245 C3242 1.526 . S
C3245 C3246 1.396 . S
C3245 C3250 1.390 . S
C3246 C3240 1.465 . S
C3246 C3245 1.396 . S
C3246 C3247 1.399 . S
C3247 H3233 0.929 . S
C3247 C3246 1.399 . S
C3247 C3248 1.385 . S
C3248 H3234 0.931 . S
C3248 C3247 1.385 . S
C3248 C3249 1.389 . S
C3249 C3248 1.389 . S
C3249 C3250 1.387 . S
C3250 H3235 0.930 . S
C3250 C3245 1.390 . S
C3250 C3249 1.387 . S
H3251 C3263 0.930 . S
H3252 C3265 0.930 . S
H3253 C3266 0.930 . S
H3254 C3270 0.959 . S
H3255 C3270 0.959 . S
H3256 C3270 0.961 . S
H3257 C3271 0.960 . S
H3258 C3271 0.961 . S
H3259 C3271 0.959 . S
H3260 C3274 0.929 . S
H3261 C3275 0.931 . S
H3262 C3277 0.930 . S
C3263 H3251 0.930 . S
C3263 C3264 1.398 . S
C3263 C3268 1.399 . S
C3264 C3263 1.398 . S
C3264 C3265 1.378 1_556 S
C3265 H3252 0.930 . S
C3265 C3264 1.378 1_554 S
C3265 C3266 1.388 . S
C3266 H3253 0.930 . S
C3266 C3265 1.388 . S
C3266 C3267 1.390 . S
C3267 C3266 1.390 . S
C3267 C3268 1.394 1_554 S
C3267 C3273 1.465 . S
C3268 C3263 1.399 . S
C3268 C3267 1.394 1_556 S
C3268 C3269 1.516 . S
C3269 C3268 1.516 . S
C3269 C3270 1.502 . S
C3269 C3271 1.561 . S
C3269 C3272 1.526 . S
C3270 H3254 0.959 . S
C3270 H3255 0.959 . S
C3270 H3256 0.961 . S
C3270 C3269 1.502 . S
C3271 H3257 0.960 . S
C3271 H3258 0.961 . S
C3271 H3259 0.959 . S
C3271 C3269 1.561 . S
C3272 C3269 1.526 . S
C3272 C3273 1.396 1_556 S
C3272 C3277 1.390 . S
C3273 C3267 1.465 . S
C3273 C3272 1.396 1_554 S
C3273 C3274 1.399 . S
C3274 H3260 0.929 . S
C3274 C3273 1.399 . S
C3274 C3275 1.385 . S
C3275 H3261 0.931 . S
C3275 C3274 1.385 . S
C3275 C3276 1.389 . S
C3276 C3275 1.389 . S
C3276 C3277 1.387 1_554 S
C3277 H3262 0.930 . S
C3277 C3272 1.390 . S
C3277 C3276 1.387 1_556 S
H3278 C3290 0.930 . S
H3279 C3292 0.930 . S
H3280 C3293 0.930 . S
H3281 C3297 0.959 . S
H3282 C3297 0.959 . S
H3283 C3297 0.961 . S
H3284 C3298 0.960 . S
H3285 C3298 0.961 . S
H3286 C3298 0.959 . S
H3287 C3301 0.929 . S
H3288 C3302 0.931 . S
H3289 C3304 0.930 . S
C3290 H3278 0.930 . S
C3290 C3291 1.399 . S
C3290 C3295 1.399 . S
C3291 C3290 1.399 . S
C3291 C3292 1.376 . S
C3292 H3279 0.930 . S
C3292 C3291 1.376 . S
C3292 C3293 1.388 . S
C3293 H3280 0.930 . S
C3293 C3292 1.388 . S
C3293 C3294 1.390 . S
C3294 C3293 1.390 . S
C3294 C3295 1.394 . S
C3294 C3300 1.465 . S
C3295 C3290 1.399 . S
C3295 C3294 1.394 . S
C3295 C3296 1.516 . S
C3296 C3295 1.516 . S
C3296 C3297 1.502 . S
C3296 C3298 1.561 . S
C3296 C3299 1.526 . S
C3297 H3281 0.959 . S
C3297 H3282 0.959 . S
C3297 H3283 0.961 . S
C3297 C3296 1.502 . S
C3298 H3284 0.960 . S
C3298 H3285 0.961 . S
C3298 H3286 0.959 . S
C3298 C3296 1.561 . S
C3299 C3296 1.526 . S
C3299 C3300 1.396 . S
C3299 C3304 1.390 . S
C3300 C3294 1.465 . S
C3300 C3299 1.396 . S
C3300 C3301 1.399 . S
C3301 H3287 0.929 . S
C3301 C3300 1.399 . S
C3301 C3302 1.385 . S
C3302 H3288 0.931 . S
C3302 C3301 1.385 . S
C3302 C3303 1.389 . S
C3303 C3302 1.389 . S
C3303 C3304 1.387 . S
C3304 H3289 0.930 . S
C3304 C3299 1.390 . S
C3304 C3303 1.387 . S
H3305 C3317 0.930 . S
H3306 C3319 0.930 . S
H3307 C3320 0.930 . S
H3308 C3324 0.959 . S
H3309 C3324 0.959 . S
H3310 C3324 0.961 . S
H3311 C3325 0.960 . S
H3312 C3325 0.961 . S
H3313 C3325 0.959 . S
H3314 C3328 0.929 . S
H3315 C3329 0.931 . S
H3316 C3331 0.930 . S
C3317 H3305 0.930 . S
C3317 C3318 1.399 . S
C3317 C3322 1.399 . S
C3318 C3317 1.399 . S
C3318 C3319 1.376 . S
C3319 H3306 0.930 . S
C3319 C3318 1.376 . S
C3319 C3320 1.388 . S
C3320 H3307 0.930 . S
C3320 C3319 1.388 . S
C3320 C3321 1.390 . S
C3321 C3320 1.390 . S
C3321 C3322 1.394 . S
C3321 C3327 1.465 . S
C3322 C3317 1.399 . S
C3322 C3321 1.394 . S
C3322 C3323 1.516 . S
C3323 C3322 1.516 . S
C3323 C3324 1.502 . S
C3323 C3325 1.561 . S
C3323 C3326 1.526 . S
C3324 H3308 0.959 . S
C3324 H3309 0.959 . S
C3324 H3310 0.961 . S
C3324 C3323 1.502 . S
C3325 H3311 0.960 . S
C3325 H3312 0.961 . S
C3325 H3313 0.959 . S
C3325 C3323 1.561 . S
C3326 C3323 1.526 . S
C3326 C3327 1.396 . S
C3326 C3331 1.390 . S
C3327 C3321 1.465 . S
C3327 C3326 1.396 . S
C3327 C3328 1.399 . S
C3328 H3314 0.929 . S
C3328 C3327 1.399 . S
C3328 C3329 1.385 . S
C3329 H3315 0.931 . S
C3329 C3328 1.385 . S
C3329 C3330 1.389 . S
C3330 C3329 1.389 . S
C3330 C3331 1.387 . S
C3331 H3316 0.930 . S
C3331 C3326 1.390 . S
C3331 C3330 1.387 . S
H3332 C3344 0.930 . S
H3333 C3346 0.930 . S
H3334 C3347 0.930 . S
H3335 C3351 0.959 . S
H3336 C3351 0.959 . S
H3337 C3351 0.961 . S
H3338 C3352 0.960 . S
H3339 C3352 0.961 . S
H3340 C3352 0.959 . S
H3341 C3355 0.929 . S
H3342 C3356 0.931 . S
H3343 C3358 0.930 . S
C3344 H3332 0.930 . S
C3344 C3345 1.399 . S
C3344 C3349 1.399 . S
C3345 C3344 1.399 . S
C3345 C3346 1.376 . S
C3346 H3333 0.930 . S
C3346 C3345 1.376 . S
C3346 C3347 1.388 . S
C3347 H3334 0.930 . S
C3347 C3346 1.388 . S
C3347 C3348 1.390 . S
C3348 C3347 1.390 . S
C3348 C3349 1.394 . S
C3348 C3354 1.465 . S
C3349 C3344 1.399 . S
C3349 C3348 1.394 . S
C3349 C3350 1.516 . S
C3350 C3349 1.516 . S
C3350 C3351 1.502 . S
C3350 C3352 1.561 . S
C3350 C3353 1.526 . S
C3351 H3335 0.959 . S
C3351 H3336 0.959 . S
C3351 H3337 0.961 . S
C3351 C3350 1.502 . S
C3352 H3338 0.960 . S
C3352 H3339 0.961 . S
C3352 H3340 0.959 . S
C3352 C3350 1.561 . S
C3353 C3350 1.526 . S
C3353 C3354 1.396 . S
C3353 C3358 1.390 . S
C3354 C3348 1.465 . S
C3354 C3353 1.396 . S
C3354 C3355 1.399 . S
C3355 H3341 0.929 . S
C3355 C3354 1.399 . S
C3355 C3356 1.385 . S
C3356 H3342 0.931 . S
C3356 C3355 1.385 . S
C3356 C3357 1.389 . S
C3357 C3356 1.389 . S
C3357 C3358 1.387 . S
C3358 H3343 0.930 . S
C3358 C3353 1.390 . S
C3358 C3357 1.387 . S
H3359 C3371 0.930 . S
H3360 C3373 0.930 . S
H3361 C3374 0.930 . S
H3362 C3378 0.959 . S
H3363 C3378 0.959 . S
H3364 C3378 0.961 . S
H3365 C3379 0.960 . S
H3366 C3379 0.961 . S
H3367 C3379 0.959 . S
H3368 C3382 0.929 . S
H3369 C3383 0.931 . S
H3370 C3385 0.930 . S
C3371 H3359 0.930 . S
C3371 C3372 1.408 . S
C3371 C3376 1.399 . S
C3372 C3371 1.408 . S
C3372 C3373 1.364 1_556 S
C3373 H3360 0.930 . S
C3373 C3372 1.364 1_554 S
C3373 C3374 1.388 . S
C3374 H3361 0.930 . S
C3374 C3373 1.388 . S
C3374 C3375 1.390 . S
C3375 C3374 1.390 . S
C3375 C3376 1.394 1_554 S
C3375 C3381 1.465 . S
C3376 C3371 1.399 . S
C3376 C3375 1.394 1_556 S
C3376 C3377 1.516 . S
C3377 C3376 1.516 . S
C3377 C3378 1.502 . S
C3377 C3379 1.561 1_556 S
C3377 C3380 1.526 . S
C3378 H3362 0.959 . S
C3378 H3363 0.959 . S
C3378 H3364 0.961 . S
C3378 C3377 1.502 . S
C3379 H3365 0.960 . S
C3379 H3366 0.961 . S
C3379 H3367 0.959 . S
C3379 C3377 1.561 1_554 S
C3380 C3377 1.526 . S
C3380 C3381 1.396 1_556 S
C3380 C3385 1.390 . S
C3381 C3375 1.465 . S
C3381 C3380 1.396 1_554 S
C3381 C3382 1.399 . S
C3382 H3368 0.929 . S
C3382 C3381 1.399 . S
C3382 C3383 1.385 . S
C3383 H3369 0.931 . S
C3383 C3382 1.385 . S
C3383 C3384 1.389 . S
C3384 C3383 1.389 . S
C3384 C3385 1.387 1_554 S
C3385 H3370 0.930 . S
C3385 C3380 1.390 . S
C3385 C3384 1.387 1_556 S
H3386 C3398 0.930 . S
H3387 C3400 0.930 . S
H3388 C3401 0.930 . S
H3389 C3405 0.959 . S
H3390 C3405 0.959 . S
H3391 C3405 0.961 . S
H3392 C3406 0.960 . S
H3393 C3406 0.961 . S
H3394 C3406 0.959 . S
H3395 C3409 0.929 . S
H3396 C3410 0.931 . S
H3397 C3412 0.930 . S
C3398 H3386 0.930 . S
C3398 C3399 1.399 . S
C3398 C3403 1.399 . S
C3399 C3398 1.399 . S
C3399 C3400 1.376 . S
C3400 H3387 0.930 . S
C3400 C3399 1.376 . S
C3400 C3401 1.388 . S
C3401 H3388 0.930 . S
C3401 C3400 1.388 . S
C3401 C3402 1.390 . S
C3402 C3401 1.390 . S
C3402 C3403 1.394 . S
C3402 C3408 1.465 . S
C3403 C3398 1.399 . S
C3403 C3402 1.394 . S
C3403 C3404 1.516 . S
C3404 C3403 1.516 . S
C3404 C3405 1.502 . S
C3404 C3406 1.561 . S
C3404 C3407 1.526 . S
C3405 H3389 0.959 . S
C3405 H3390 0.959 . S
C3405 H3391 0.961 . S
C3405 C3404 1.502 . S
C3406 H3392 0.960 . S
C3406 H3393 0.961 . S
C3406 H3394 0.959 . S
C3406 C3404 1.561 . S
C3407 C3404 1.526 . S
C3407 C3408 1.396 . S
C3407 C3412 1.390 . S
C3408 C3402 1.465 . S
C3408 C3407 1.396 . S
C3408 C3409 1.399 . S
C3409 H3395 0.929 . S
C3409 C3408 1.399 . S
C3409 C3410 1.385 . S
C3410 H3396 0.931 . S
C3410 C3409 1.385 . S
C3410 C3411 1.389 . S
C3411 C3410 1.389 . S
C3411 C3412 1.387 . S
C3412 H3397 0.930 . S
C3412 C3407 1.390 . S
C3412 C3411 1.387 . S
H3413 C3425 0.930 . S
H3414 C3427 0.930 . S
H3415 C3428 0.930 . S
H3416 C3432 0.959 . S
H3417 C3432 0.959 . S
H3418 C3432 0.961 . S
H3419 C3433 0.960 . S
H3420 C3433 0.961 . S
H3421 C3433 0.959 . S
H3422 C3436 0.929 . S
H3423 C3437 0.931 . S
H3424 C3439 0.930 . S
C3425 H3413 0.930 . S
C3425 C3426 1.399 . S
C3425 C3430 1.399 . S
C3426 C3425 1.399 . S
C3426 C3427 1.376 . S
C3427 H3414 0.930 . S
C3427 C3426 1.376 . S
C3427 C3428 1.388 . S
C3428 H3415 0.930 . S
C3428 C3427 1.388 . S
C3428 C3429 1.390 . S
C3429 C3428 1.390 . S
C3429 C3430 1.394 . S
C3429 C3435 1.465 . S
C3430 C3425 1.399 . S
C3430 C3429 1.394 . S
C3430 C3431 1.516 . S
C3431 C3430 1.516 . S
C3431 C3432 1.502 . S
C3431 C3433 1.561 . S
C3431 C3434 1.526 . S
C3432 H3416 0.959 . S
C3432 H3417 0.959 . S
C3432 H3418 0.961 . S
C3432 C3431 1.502 . S
C3433 H3419 0.960 . S
C3433 H3420 0.961 . S
C3433 H3421 0.959 . S
C3433 C3431 1.561 . S
C3434 C3431 1.526 . S
C3434 C3435 1.396 . S
C3434 C3439 1.390 . S
C3435 C3429 1.465 . S
C3435 C3434 1.396 . S
C3435 C3436 1.399 . S
C3436 H3422 0.929 . S
C3436 C3435 1.399 . S
C3436 C3437 1.385 . S
C3437 H3423 0.931 . S
C3437 C3436 1.385 . S
C3437 C3438 1.389 . S
C3438 C3437 1.389 . S
C3438 C3439 1.387 . S
C3439 H3424 0.930 . S
C3439 C3434 1.390 . S
C3439 C3438 1.387 . S
H3440 C3452 0.930 . S
H3441 C3454 0.930 . S
H3442 C3455 0.930 . S
H3443 C3459 0.959 . S
H3444 C3459 0.959 . S
H3445 C3459 0.961 . S
H3446 C3460 0.960 . S
H3447 C3460 0.961 . S
H3448 C3460 0.959 . S
H3449 C3463 0.929 . S
H3450 C3464 0.931 . S
H3451 C3466 0.930 . S
C3452 H3440 0.930 . S
C3452 C3453 1.399 . S
C3452 C3457 1.399 . S
C3453 C3452 1.399 . S
C3453 C3454 1.376 . S
C3454 H3441 0.930 . S
C3454 C3453 1.376 . S
C3454 C3455 1.388 . S
C3455 H3442 0.930 . S
C3455 C3454 1.388 . S
C3455 C3456 1.390 . S
C3456 C3455 1.390 . S
C3456 C3457 1.394 . S
C3456 C3462 1.465 . S
C3457 C3452 1.399 . S
C3457 C3456 1.394 . S
C3457 C3458 1.516 . S
C3458 C3457 1.516 . S
C3458 C3459 1.502 . S
C3458 C3460 1.561 . S
C3458 C3461 1.526 . S
C3459 H3443 0.959 . S
C3459 H3444 0.959 . S
C3459 H3445 0.961 . S
C3459 C3458 1.502 . S
C3460 H3446 0.960 . S
C3460 H3447 0.961 . S
C3460 H3448 0.959 . S
C3460 C3458 1.561 . S
C3461 C3458 1.526 . S
C3461 C3462 1.396 . S
C3461 C3466 1.390 . S
C3462 C3456 1.465 . S
C3462 C3461 1.396 . S
C3462 C3463 1.399 . S
C3463 H3449 0.929 . S
C3463 C3462 1.399 . S
C3463 C3464 1.385 . S
C3464 H3450 0.931 . S
C3464 C3463 1.385 . S
C3464 C3465 1.389 . S
C3465 C3464 1.389 . S
C3465 C3466 1.387 . S
C3466 H3451 0.930 . S
C3466 C3461 1.390 . S
C3466 C3465 1.387 . S
H3467 C3479 0.930 . S
H3468 C3481 0.930 . S
H3469 C3482 0.930 . S
H3470 C3486 0.959 . S
H3471 C3486 0.959 . S
H3472 C3486 0.961 . S
H3473 C3487 0.960 . S
H3474 C3487 0.961 . S
H3475 C3487 0.959 . S
H3476 C3490 0.929 . S
H3477 C3491 0.931 . S
H3478 C3493 0.930 . S
C3479 H3467 0.930 . S
C3479 C3480 1.399 . S
C3479 C3484 1.399 . S
C3480 C3479 1.399 . S
C3480 C3481 1.376 . S
C3481 H3468 0.930 . S
C3481 C3480 1.376 . S
C3481 C3482 1.388 . S
C3482 H3469 0.930 . S
C3482 C3481 1.388 . S
C3482 C3483 1.390 . S
C3483 C3482 1.390 . S
C3483 C3484 1.394 . S
C3483 C3489 1.465 . S
C3484 C3479 1.399 . S
C3484 C3483 1.394 . S
C3484 C3485 1.516 . S
C3485 C3484 1.516 . S
C3485 C3486 1.502 . S
C3485 C3487 1.561 . S
C3485 C3488 1.526 . S
C3486 H3470 0.959 . S
C3486 H3471 0.959 . S
C3486 H3472 0.961 . S
C3486 C3485 1.502 . S
C3487 H3473 0.960 . S
C3487 H3474 0.961 . S
C3487 H3475 0.959 . S
C3487 C3485 1.561 . S
C3488 C3485 1.526 . S
C3488 C3489 1.396 . S
C3488 C3493 1.390 . S
C3489 C3483 1.465 . S
C3489 C3488 1.396 . S
C3489 C3490 1.399 . S
C3490 H3476 0.929 . S
C3490 C3489 1.399 . S
C3490 C3491 1.385 . S
C3491 H3477 0.931 . S
C3491 C3490 1.385 . S
C3491 C3492 1.389 . S
C3492 C3491 1.389 . S
C3492 C3493 1.387 . S
C3493 H3478 0.930 . S
C3493 C3488 1.390 . S
C3493 C3492 1.387 . S
H3494 C3506 0.930 . S
H3495 C3508 0.930 . S
H3496 C3509 0.930 . S
H3497 C3513 0.959 . S
H3498 C3513 0.959 . S
H3499 C3513 0.961 . S
H3500 C3514 0.960 . S
H3501 C3514 0.961 . S
H3502 C3514 0.959 . S
H3503 C3517 0.929 . S
H3504 C3518 0.931 . S
H3505 C3520 0.930 . S
C3506 H3494 0.930 . S
C3506 C3507 1.399 . S
C3506 C3511 1.399 . S
C3507 C3506 1.399 . S
C3507 C3508 1.376 . S
C3508 H3495 0.930 . S
C3508 C3507 1.376 . S
C3508 C3509 1.388 . S
C3509 H3496 0.930 . S
C3509 C3508 1.388 . S
C3509 C3510 1.390 . S
C3510 C3509 1.390 . S
C3510 C3511 1.394 . S
C3510 C3516 1.465 . S
C3511 C3506 1.399 . S
C3511 C3510 1.394 . S
C3511 C3512 1.516 . S
C3512 C3511 1.516 . S
C3512 C3513 1.502 . S
C3512 C3514 1.561 . S
C3512 C3515 1.526 . S
C3513 H3497 0.959 . S
C3513 H3498 0.959 . S
C3513 H3499 0.961 . S
C3513 C3512 1.502 . S
C3514 H3500 0.960 . S
C3514 H3501 0.961 . S
C3514 H3502 0.959 . S
C3514 C3512 1.561 . S
C3515 C3512 1.526 . S
C3515 C3516 1.396 . S
C3515 C3520 1.390 . S
C3516 C3510 1.465 . S
C3516 C3515 1.396 . S
C3516 C3517 1.399 . S
C3517 H3503 0.929 . S
C3517 C3516 1.399 . S
C3517 C3518 1.385 . S
C3518 H3504 0.931 . S
C3518 C3517 1.385 . S
C3518 C3519 1.389 . S
C3519 C3518 1.389 . S
C3519 C3520 1.387 . S
C3520 H3505 0.930 . S
C3520 C3515 1.390 . S
C3520 C3519 1.387 . S
H3521 C3533 0.930 . S
H3522 C3535 0.930 . S
H3523 C3536 0.930 . S
H3524 C3540 0.959 . S
H3525 C3540 0.959 . S
H3526 C3540 0.961 . S
H3527 C3541 0.960 . S
H3528 C3541 0.961 . S
H3529 C3541 0.959 . S
H3530 C3544 0.929 . S
H3531 C3545 0.931 . S
H3532 C3547 0.930 . S
C3533 H3521 0.930 . S
C3533 C3534 1.399 . S
C3533 C3538 1.399 . S
C3534 C3533 1.399 . S
C3534 C3535 1.376 . S
C3535 H3522 0.930 . S
C3535 C3534 1.376 . S
C3535 C3536 1.388 . S
C3536 H3523 0.930 . S
C3536 C3535 1.388 . S
C3536 C3537 1.390 . S
C3537 C3536 1.390 . S
C3537 C3538 1.394 . S
C3537 C3543 1.465 . S
C3538 C3533 1.399 . S
C3538 C3537 1.394 . S
C3538 C3539 1.516 . S
C3539 C3538 1.516 . S
C3539 C3540 1.502 . S
C3539 C3541 1.561 . S
C3539 C3542 1.526 . S
C3540 H3524 0.959 . S
C3540 H3525 0.959 . S
C3540 H3526 0.961 . S
C3540 C3539 1.502 . S
C3541 H3527 0.960 . S
C3541 H3528 0.961 . S
C3541 H3529 0.959 . S
C3541 C3539 1.561 . S
C3542 C3539 1.526 . S
C3542 C3543 1.396 . S
C3542 C3547 1.390 . S
C3543 C3537 1.465 . S
C3543 C3542 1.396 . S
C3543 C3544 1.399 . S
C3544 H3530 0.929 . S
C3544 C3543 1.399 . S
C3544 C3545 1.385 . S
C3545 H3531 0.931 . S
C3545 C3544 1.385 . S
C3545 C3546 1.389 . S
C3546 C3545 1.389 . S
C3546 C3547 1.387 . S
C3547 H3532 0.930 . S
C3547 C3542 1.390 . S
C3547 C3546 1.387 . S
H3548 C3560 0.930 . S
H3549 C3562 0.930 . S
H3550 C3563 0.930 . S
H3551 C3567 0.959 . S
H3552 C3567 0.959 . S
H3553 C3567 0.961 . S
H3554 C3568 0.960 . S
H3555 C3568 0.961 . S
H3556 C3568 0.959 . S
H3557 C3571 0.929 . S
H3558 C3572 0.931 . S
H3559 C3574 0.930 . S
C3560 H3548 0.930 . S
C3560 C3561 1.399 . S
C3560 C3565 1.399 . S
C3561 C3560 1.399 . S
C3561 C3562 1.376 . S
C3562 H3549 0.930 . S
C3562 C3561 1.376 . S
C3562 C3563 1.388 . S
C3563 H3550 0.930 . S
C3563 C3562 1.388 . S
C3563 C3564 1.390 . S
C3564 C3563 1.390 . S
C3564 C3565 1.394 . S
C3564 C3570 1.465 . S
C3565 C3560 1.399 . S
C3565 C3564 1.394 . S
C3565 C3566 1.516 . S
C3566 C3565 1.516 . S
C3566 C3567 1.502 . S
C3566 C3568 1.561 . S
C3566 C3569 1.526 . S
C3567 H3551 0.959 . S
C3567 H3552 0.959 . S
C3567 H3553 0.961 . S
C3567 C3566 1.502 . S
C3568 H3554 0.960 . S
C3568 H3555 0.961 . S
C3568 H3556 0.959 . S
C3568 C3566 1.561 . S
C3569 C3566 1.526 . S
C3569 C3570 1.396 . S
C3569 C3574 1.390 . S
C3570 C3564 1.465 . S
C3570 C3569 1.396 . S
C3570 C3571 1.399 . S
C3571 H3557 0.929 . S
C3571 C3570 1.399 . S
C3571 C3572 1.385 . S
C3572 H3558 0.931 . S
C3572 C3571 1.385 . S
C3572 C3573 1.389 . S
C3573 C3572 1.389 . S
C3573 C3574 1.387 . S
C3574 H3559 0.930 . S
C3574 C3569 1.390 . S
C3574 C3573 1.387 . S
H3575 C3587 0.930 . S
H3576 C3589 0.930 . S
H3577 C3590 0.930 . S
H3578 C3594 0.959 . S
H3579 C3594 0.959 . S
H3580 C3594 0.961 . S
H3581 C3595 0.960 . S
H3582 C3595 0.961 . S
H3583 C3595 0.959 . S
H3584 C3598 0.929 . S
H3585 C3599 0.931 . S
H3586 C3601 0.930 . S
C3587 H3575 0.930 . S
C3587 C3588 1.399 . S
C3587 C3592 1.399 . S
C3588 C3587 1.399 . S
C3588 C3589 1.376 . S
C3589 H3576 0.930 . S
C3589 C3588 1.376 . S
C3589 C3590 1.388 . S
C3590 H3577 0.930 . S
C3590 C3589 1.388 . S
C3590 C3591 1.390 . S
C3591 C3590 1.390 . S
C3591 C3592 1.394 . S
C3591 C3597 1.465 . S
C3592 C3587 1.399 . S
C3592 C3591 1.394 . S
C3592 C3593 1.516 . S
C3593 C3592 1.516 . S
C3593 C3594 1.502 . S
C3593 C3595 1.561 . S
C3593 C3596 1.526 . S
C3594 H3578 0.959 . S
C3594 H3579 0.959 . S
C3594 H3580 0.961 . S
C3594 C3593 1.502 . S
C3595 H3581 0.960 . S
C3595 H3582 0.961 . S
C3595 H3583 0.959 . S
C3595 C3593 1.561 . S
C3596 C3593 1.526 . S
C3596 C3597 1.396 . S
C3596 C3601 1.390 . S
C3597 C3591 1.465 . S
C3597 C3596 1.396 . S
C3597 C3598 1.399 . S
C3598 H3584 0.929 . S
C3598 C3597 1.399 . S
C3598 C3599 1.385 . S
C3599 H3585 0.931 . S
C3599 C3598 1.385 . S
C3599 C3600 1.389 . S
C3600 C3599 1.389 . S
C3600 C3601 1.387 . S
C3601 H3586 0.930 . S
C3601 C3596 1.390 . S
C3601 C3600 1.387 . S
H3602 C3614 0.930 . S
H3603 C3616 0.930 . S
H3604 C3617 0.930 . S
H3605 C3621 0.959 . S
H3606 C3621 0.959 . S
H3607 C3621 0.961 . S
H3608 C3622 0.960 . S
H3609 C3622 0.961 . S
H3610 C3622 0.959 . S
H3611 C3625 0.929 . S
H3612 C3626 0.931 . S
H3613 C3628 0.930 . S
C3614 H3602 0.930 . S
C3614 C3615 1.399 . S
C3614 C3619 1.399 . S
C3615 C3614 1.399 . S
C3615 C3616 1.376 . S
C3616 H3603 0.930 . S
C3616 C3615 1.376 . S
C3616 C3617 1.388 . S
C3617 H3604 0.930 . S
C3617 C3616 1.388 . S
C3617 C3618 1.390 . S
C3618 C3617 1.390 . S
C3618 C3619 1.394 . S
C3618 C3624 1.465 . S
C3619 C3614 1.399 . S
C3619 C3618 1.394 . S
C3619 C3620 1.516 . S
C3620 C3619 1.516 . S
C3620 C3621 1.502 . S
C3620 C3622 1.561 . S
C3620 C3623 1.526 . S
C3621 H3605 0.959 . S
C3621 H3606 0.959 . S
C3621 H3607 0.961 . S
C3621 C3620 1.502 . S
C3622 H3608 0.960 . S
C3622 H3609 0.961 . S
C3622 H3610 0.959 . S
C3622 C3620 1.561 . S
C3623 C3620 1.526 . S
C3623 C3624 1.396 . S
C3623 C3628 1.390 . S
C3624 C3618 1.465 . S
C3624 C3623 1.396 . S
C3624 C3625 1.399 . S
C3625 H3611 0.929 . S
C3625 C3624 1.399 . S
C3625 C3626 1.385 . S
C3626 H3612 0.931 . S
C3626 C3625 1.385 . S
C3626 C3627 1.389 . S
C3627 C3626 1.389 . S
C3627 C3628 1.387 . S
C3628 H3613 0.930 . S
C3628 C3623 1.390 . S
C3628 C3627 1.387 . S
H3629 C3641 0.930 . S
H3630 C3643 0.930 . S
H3631 C3644 0.930 . S
H3632 C3648 0.959 . S
H3633 C3648 0.959 . S
H3634 C3648 0.961 . S
H3635 C3649 0.960 . S
H3636 C3649 0.961 . S
H3637 C3649 0.959 . S
H3638 C3652 0.929 . S
H3639 C3653 0.931 . S
H3640 C3655 0.930 . S
C3641 H3629 0.930 . S
C3641 C3642 1.399 . S
C3641 C3646 1.399 . S
C3642 C3641 1.399 . S
C3642 C3643 1.376 . S
C3643 H3630 0.930 . S
C3643 C3642 1.376 . S
C3643 C3644 1.388 . S
C3644 H3631 0.930 . S
C3644 C3643 1.388 . S
C3644 C3645 1.390 . S
C3645 C3644 1.390 . S
C3645 C3646 1.394 . S
C3645 C3651 1.465 . S
C3646 C3641 1.399 . S
C3646 C3645 1.394 . S
C3646 C3647 1.516 . S
C3647 C3646 1.516 . S
C3647 C3648 1.502 . S
C3647 C3649 1.561 . S
C3647 C3650 1.526 . S
C3648 H3632 0.959 . S
C3648 H3633 0.959 . S
C3648 H3634 0.961 . S
C3648 C3647 1.502 . S
C3649 H3635 0.960 . S
C3649 H3636 0.961 . S
C3649 H3637 0.959 . S
C3649 C3647 1.561 . S
C3650 C3647 1.526 . S
C3650 C3651 1.396 . S
C3650 C3655 1.390 . S
C3651 C3645 1.465 . S
C3651 C3650 1.396 . S
C3651 C3652 1.399 . S
C3652 H3638 0.929 . S
C3652 C3651 1.399 . S
C3652 C3653 1.385 . S
C3653 H3639 0.931 . S
C3653 C3652 1.385 . S
C3653 C3654 1.389 . S
C3654 C3653 1.389 . S
C3654 C3655 1.387 . S
C3655 H3640 0.930 . S
C3655 C3650 1.390 . S
C3655 C3654 1.387 . S
H3656 C3668 0.930 . S
H3657 C3670 0.930 . S
H3658 C3671 0.930 . S
H3659 C3675 0.959 . S
H3660 C3675 0.959 . S
H3661 C3675 0.961 . S
H3662 C3676 0.960 . S
H3663 C3676 0.961 . S
H3664 C3676 0.959 . S
H3665 C3679 0.929 . S
H3666 C3680 0.931 . S
H3667 C3682 0.930 . S
C3668 H3656 0.930 . S
C3668 C3669 1.399 . S
C3668 C3673 1.399 . S
C3669 C3668 1.399 . S
C3669 C3670 1.376 . S
C3670 H3657 0.930 . S
C3670 C3669 1.376 . S
C3670 C3671 1.388 . S
C3671 H3658 0.930 . S
C3671 C3670 1.388 . S
C3671 C3672 1.390 . S
C3672 C3671 1.390 . S
C3672 C3673 1.394 . S
C3672 C3678 1.465 . S
C3673 C3668 1.399 . S
C3673 C3672 1.394 . S
C3673 C3674 1.516 . S
C3674 C3673 1.516 . S
C3674 C3675 1.502 . S
C3674 C3676 1.561 . S
C3674 C3677 1.526 . S
C3675 H3659 0.959 . S
C3675 H3660 0.959 . S
C3675 H3661 0.961 . S
C3675 C3674 1.502 . S
C3676 H3662 0.960 . S
C3676 H3663 0.961 . S
C3676 H3664 0.959 . S
C3676 C3674 1.561 . S
C3677 C3674 1.526 . S
C3677 C3678 1.396 . S
C3677 C3682 1.390 . S
C3678 C3672 1.465 . S
C3678 C3677 1.396 . S
C3678 C3679 1.399 . S
C3679 H3665 0.929 . S
C3679 C3678 1.399 . S
C3679 C3680 1.385 . S
C3680 H3666 0.931 . S
C3680 C3679 1.385 . S
C3680 C3681 1.389 . S
C3681 C3680 1.389 . S
C3681 C3682 1.387 . S
C3682 H3667 0.930 . S
C3682 C3677 1.390 . S
C3682 C3681 1.387 . S
H3683 C3695 0.930 . S
H3684 C3697 0.930 . S
H3685 C3698 0.930 . S
H3686 C3702 0.959 . S
H3687 C3702 0.959 . S
H3688 C3702 0.961 . S
H3689 C3703 0.960 . S
H3690 C3703 0.961 . S
H3691 C3703 0.959 . S
H3692 C3706 0.929 . S
H3693 C3707 0.931 . S
H3694 C3709 0.930 . S
C3695 H3683 0.930 . S
C3695 C3696 1.399 . S
C3695 C3700 1.399 . S
C3696 C3695 1.399 . S
C3696 C3697 1.376 . S
C3697 H3684 0.930 . S
C3697 C3696 1.376 . S
C3697 C3698 1.388 . S
C3698 H3685 0.930 . S
C3698 C3697 1.388 . S
C3698 C3699 1.390 . S
C3699 C3698 1.390 . S
C3699 C3700 1.394 . S
C3699 C3705 1.465 . S
C3700 C3695 1.399 . S
C3700 C3699 1.394 . S
C3700 C3701 1.516 . S
C3701 C3700 1.516 . S
C3701 C3702 1.502 . S
C3701 C3703 1.561 . S
C3701 C3704 1.526 . S
C3702 H3686 0.959 . S
C3702 H3687 0.959 . S
C3702 H3688 0.961 . S
C3702 C3701 1.502 . S
C3703 H3689 0.960 . S
C3703 H3690 0.961 . S
C3703 H3691 0.959 . S
C3703 C3701 1.561 . S
C3704 C3701 1.526 . S
C3704 C3705 1.396 . S
C3704 C3709 1.390 . S
C3705 C3699 1.465 . S
C3705 C3704 1.396 . S
C3705 C3706 1.399 . S
C3706 H3692 0.929 . S
C3706 C3705 1.399 . S
C3706 C3707 1.385 . S
C3707 H3693 0.931 . S
C3707 C3706 1.385 . S
C3707 C3708 1.389 . S
C3708 C3707 1.389 . S
C3708 C3709 1.387 . S
C3709 H3694 0.930 . S
C3709 C3704 1.390 . S
C3709 C3708 1.387 . S
H3710 C3722 0.930 . S
H3711 C3724 0.930 . S
H3712 C3725 0.930 . S
H3713 C3729 0.959 . S
H3714 C3729 0.959 . S
H3715 C3729 0.961 . S
H3716 C3730 0.960 . S
H3717 C3730 0.961 . S
H3718 C3730 0.959 . S
H3719 C3733 0.929 . S
H3720 C3734 0.931 . S
H3721 C3736 0.930 . S
C3722 H3710 0.930 . S
C3722 C3723 1.399 . S
C3722 C3727 1.399 . S
C3723 C3722 1.399 . S
C3723 C3724 1.376 . S
C3724 H3711 0.930 . S
C3724 C3723 1.376 . S
C3724 C3725 1.388 . S
C3725 H3712 0.930 . S
C3725 C3724 1.388 . S
C3725 C3726 1.390 . S
C3726 C3725 1.390 . S
C3726 C3727 1.394 . S
C3726 C3732 1.465 . S
C3727 C3722 1.399 . S
C3727 C3726 1.394 . S
C3727 C3728 1.516 . S
C3728 C3727 1.516 . S
C3728 C3729 1.502 . S
C3728 C3730 1.561 . S
C3728 C3731 1.526 . S
C3729 H3713 0.959 . S
C3729 H3714 0.959 . S
C3729 H3715 0.961 . S
C3729 C3728 1.502 . S
C3730 H3716 0.960 . S
C3730 H3717 0.961 . S
C3730 H3718 0.959 . S
C3730 C3728 1.561 . S
C3731 C3728 1.526 . S
C3731 C3732 1.396 . S
C3731 C3736 1.390 . S
C3732 C3726 1.465 . S
C3732 C3731 1.396 . S
C3732 C3733 1.399 . S
C3733 H3719 0.929 . S
C3733 C3732 1.399 . S
C3733 C3734 1.385 . S
C3734 H3720 0.931 . S
C3734 C3733 1.385 . S
C3734 C3735 1.389 . S
C3735 C3734 1.389 . S
C3735 C3736 1.387 . S
C3736 H3721 0.930 . S
C3736 C3731 1.390 . S
C3736 C3735 1.387 . S
H3737 C3749 0.930 . S
H3738 C3751 0.930 . S
H3739 C3752 0.930 . S
H3740 C3756 0.959 . S
H3741 C3756 0.959 . S
H3742 C3756 0.961 . S
H3743 C3757 0.960 . S
H3744 C3757 0.961 . S
H3745 C3757 0.959 . S
H3746 C3760 0.929 . S
H3747 C3761 0.931 . S
H3748 C3763 0.930 . S
C3749 H3737 0.930 . S
C3749 C3750 1.399 . S
C3749 C3754 1.399 . S
C3750 C3749 1.399 . S
C3750 C3751 1.376 . S
C3751 H3738 0.930 . S
C3751 C3750 1.376 . S
C3751 C3752 1.388 . S
C3752 H3739 0.930 . S
C3752 C3751 1.388 . S
C3752 C3753 1.390 . S
C3753 C3752 1.390 . S
C3753 C3754 1.394 . S
C3753 C3759 1.465 . S
C3754 C3749 1.399 . S
C3754 C3753 1.394 . S
C3754 C3755 1.516 . S
C3755 C3754 1.516 . S
C3755 C3756 1.502 . S
C3755 C3757 1.561 . S
C3755 C3758 1.526 . S
C3756 H3740 0.959 . S
C3756 H3741 0.959 . S
C3756 H3742 0.961 . S
C3756 C3755 1.502 . S
C3757 H3743 0.960 . S
C3757 H3744 0.961 . S
C3757 H3745 0.959 . S
C3757 C3755 1.561 . S
C3758 C3755 1.526 . S
C3758 C3759 1.396 . S
C3758 C3763 1.390 . S
C3759 C3753 1.465 . S
C3759 C3758 1.396 . S
C3759 C3760 1.399 . S
C3760 H3746 0.929 . S
C3760 C3759 1.399 . S
C3760 C3761 1.385 . S
C3761 H3747 0.931 . S
C3761 C3760 1.385 . S
C3761 C3762 1.389 . S
C3762 C3761 1.389 . S
C3762 C3763 1.387 . S
C3763 H3748 0.930 . S
C3763 C3758 1.390 . S
C3763 C3762 1.387 . S
H3764 C3776 0.930 . S
H3765 C3778 0.930 . S
H3766 C3779 0.930 . S
H3767 C3783 0.959 . S
H3768 C3783 0.959 . S
H3769 C3783 0.961 . S
H3770 C3784 0.960 . S
H3771 C3784 0.961 . S
H3772 C3784 0.959 . S
H3773 C3787 0.929 . S
H3774 C3788 0.931 . S
H3775 C3790 0.930 . S
C3776 H3764 0.930 . S
C3776 C3777 1.399 . S
C3776 C3781 1.399 . S
C3777 C3776 1.399 . S
C3777 C3778 1.376 . S
C3778 H3765 0.930 . S
C3778 C3777 1.376 . S
C3778 C3779 1.388 . S
C3779 H3766 0.930 . S
C3779 C3778 1.388 . S
C3779 C3780 1.390 . S
C3780 C3779 1.390 . S
C3780 C3781 1.394 . S
C3780 C3786 1.465 . S
C3781 C3776 1.399 . S
C3781 C3780 1.394 . S
C3781 C3782 1.516 . S
C3782 C3781 1.516 . S
C3782 C3783 1.502 . S
C3782 C3784 1.561 . S
C3782 C3785 1.526 . S
C3783 H3767 0.959 . S
C3783 H3768 0.959 . S
C3783 H3769 0.961 . S
C3783 C3782 1.502 . S
C3784 H3770 0.960 . S
C3784 H3771 0.961 . S
C3784 H3772 0.959 . S
C3784 C3782 1.561 . S
C3785 C3782 1.526 . S
C3785 C3786 1.396 . S
C3785 C3790 1.390 . S
C3786 C3780 1.465 . S
C3786 C3785 1.396 . S
C3786 C3787 1.399 . S
C3787 H3773 0.929 . S
C3787 C3786 1.399 . S
C3787 C3788 1.385 . S
C3788 H3774 0.931 . S
C3788 C3787 1.385 . S
C3788 C3789 1.389 . S
C3789 C3788 1.389 . S
C3789 C3790 1.387 . S
C3790 H3775 0.930 . S
C3790 C3785 1.390 . S
C3790 C3789 1.387 . S
H3791 C3803 0.930 . S
H3792 C3805 0.930 . S
H3793 C3806 0.930 . S
H3794 C3810 0.959 . S
H3795 C3810 0.959 . S
H3796 C3810 0.961 . S
H3797 C3811 0.960 . S
H3798 C3811 0.961 . S
H3799 C3811 0.959 . S
H3800 C3814 0.929 . S
H3801 C3815 0.931 . S
H3802 C3817 0.930 . S
C3803 H3791 0.930 . S
C3803 C3804 1.399 . S
C3803 C3808 1.399 . S
C3804 C3803 1.399 . S
C3804 C3805 1.376 . S
C3805 H3792 0.930 . S
C3805 C3804 1.376 . S
C3805 C3806 1.388 . S
C3806 H3793 0.930 . S
C3806 C3805 1.388 . S
C3806 C3807 1.390 . S
C3807 C3806 1.390 . S
C3807 C3808 1.394 . S
C3807 C3813 1.465 . S
C3808 C3803 1.399 . S
C3808 C3807 1.394 . S
C3808 C3809 1.516 . S
C3809 C3808 1.516 . S
C3809 C3810 1.502 . S
C3809 C3811 1.561 . S
C3809 C3812 1.526 . S
C3810 H3794 0.959 . S
C3810 H3795 0.959 . S
C3810 H3796 0.961 . S
C3810 C3809 1.502 . S
C3811 H3797 0.960 . S
C3811 H3798 0.961 . S
C3811 H3799 0.959 . S
C3811 C3809 1.561 . S
C3812 C3809 1.526 . S
C3812 C3813 1.396 . S
C3812 C3817 1.390 . S
C3813 C3807 1.465 . S
C3813 C3812 1.396 . S
C3813 C3814 1.399 . S
C3814 H3800 0.929 . S
C3814 C3813 1.399 . S
C3814 C3815 1.385 . S
C3815 H3801 0.931 . S
C3815 C3814 1.385 . S
C3815 C3816 1.389 . S
C3816 C3815 1.389 . S
C3816 C3817 1.387 . S
C3817 H3802 0.930 . S
C3817 C3812 1.390 . S
C3817 C3816 1.387 . S
H3818 C3830 0.930 . S
H3819 C3832 0.930 . S
H3820 C3833 0.930 . S
H3821 C3837 0.959 . S
H3822 C3837 0.959 . S
H3823 C3837 0.961 . S
H3824 C3838 0.960 . S
H3825 C3838 0.961 . S
H3826 C3838 0.959 . S
H3827 C3841 0.929 . S
H3828 C3842 0.931 . S
H3829 C3844 0.930 . S
C3830 H3818 0.930 . S
C3830 C3831 1.399 . S
C3830 C3835 1.399 . S
C3831 C3830 1.399 . S
C3831 C3832 1.376 . S
C3832 H3819 0.930 . S
C3832 C3831 1.376 . S
C3832 C3833 1.388 . S
C3833 H3820 0.930 . S
C3833 C3832 1.388 . S
C3833 C3834 1.390 . S
C3834 C3833 1.390 . S
C3834 C3835 1.394 . S
C3834 C3840 1.465 . S
C3835 C3830 1.399 . S
C3835 C3834 1.394 . S
C3835 C3836 1.516 . S
C3836 C3835 1.516 . S
C3836 C3837 1.502 . S
C3836 C3838 1.561 . S
C3836 C3839 1.526 . S
C3837 H3821 0.959 . S
C3837 H3822 0.959 . S
C3837 H3823 0.961 . S
C3837 C3836 1.502 . S
C3838 H3824 0.960 . S
C3838 H3825 0.961 . S
C3838 H3826 0.959 . S
C3838 C3836 1.561 . S
C3839 C3836 1.526 . S
C3839 C3840 1.396 . S
C3839 C3844 1.390 . S
C3840 C3834 1.465 . S
C3840 C3839 1.396 . S
C3840 C3841 1.399 . S
C3841 H3827 0.929 . S
C3841 C3840 1.399 . S
C3841 C3842 1.385 . S
C3842 H3828 0.931 . S
C3842 C3841 1.385 . S
C3842 C3843 1.389 . S
C3843 C3842 1.389 . S
C3843 C3844 1.387 . S
C3844 H3829 0.930 . S
C3844 C3839 1.390 . S
C3844 C3843 1.387 . S
H3845 C3857 0.930 . S
H3846 C3859 0.930 . S
H3847 C3860 0.930 . S
H3848 C3864 0.959 . S
H3849 C3864 0.959 . S
H3850 C3864 0.961 . S
H3851 C3865 0.960 . S
H3852 C3865 0.961 . S
H3853 C3865 0.959 . S
H3854 C3868 0.929 . S
H3855 C3869 0.931 . S
H3856 C3871 0.930 . S
C3857 H3845 0.930 . S
C3857 C3858 1.399 . S
C3857 C3862 1.399 . S
C3858 C3857 1.399 . S
C3858 C3859 1.376 . S
C3859 H3846 0.930 . S
C3859 C3858 1.376 . S
C3859 C3860 1.388 . S
C3860 H3847 0.930 . S
C3860 C3859 1.388 . S
C3860 C3861 1.390 . S
C3861 C3860 1.390 . S
C3861 C3862 1.394 . S
C3861 C3867 1.465 . S
C3862 C3857 1.399 . S
C3862 C3861 1.394 . S
C3862 C3863 1.516 . S
C3863 C3862 1.516 . S
C3863 C3864 1.502 . S
C3863 C3865 1.561 . S
C3863 C3866 1.526 . S
C3864 H3848 0.959 . S
C3864 H3849 0.959 . S
C3864 H3850 0.961 . S
C3864 C3863 1.502 . S
C3865 H3851 0.960 . S
C3865 H3852 0.961 . S
C3865 H3853 0.959 . S
C3865 C3863 1.561 . S
C3866 C3863 1.526 . S
C3866 C3867 1.396 . S
C3866 C3871 1.390 . S
C3867 C3861 1.465 . S
C3867 C3866 1.396 . S
C3867 C3868 1.399 . S
C3868 H3854 0.929 . S
C3868 C3867 1.399 . S
C3868 C3869 1.385 . S
C3869 H3855 0.931 . S
C3869 C3868 1.385 . S
C3869 C3870 1.389 . S
C3870 C3869 1.389 . S
C3870 C3871 1.387 . S
C3871 H3856 0.930 . S
C3871 C3866 1.390 . S
C3871 C3870 1.387 . S
C1293 C6 1.079 . S
C1305 C139 1.046 . S
C1320 C19 1.007 . S
C1332 C46 1.066 . S
C1347 C86 1.080 . S
C1359 C59 1.052 . S
C1374 C99 1.063 . S
C1386 C126 1.081 1_565 S
C1401 C219 0.999 . S
C1413 C166 1.071 . S
C1428 C206 1.049 1_545 S
C1440 C259 0.978 . S
C1455 C299 1.064 . S
C1467 C246 1.074 . S
C1482 C179 1.022 . S
C1494 C286 1.075 1_565 S
C1509 C335 1.083 . S
C1521 C450 1.091 . S
C1536 C375 1.078 1_565 S
C1548 C330 1.071 . S
C1563 C415 1.064 . S
C1575 C370 0.991 . S
C1590 C455 1.083 1_545 S
C1602 C410 1.091 . S
C1617 C495 1.069 . S
C1629 C530 1.024 . S
C1644 C535 1.081 1_565 S
C1656 C570 1.072 . S
C1671 C610 1.047 . S
C1683 C575 1.073 . S
C1698 C490 0.986 . S
C1710 C615 1.066 1_545 S
C1725 C646 1.079 . S
C1737 C779 1.045 . S
C1752 C659 1.000 . S
C1764 C686 1.065 . S
C1779 C699 0.983 . S
C1791 C726 1.068 . S
C1806 C766 1.069 . S
C1818 C739 0.987 . S
C1833 C806 1.064 . S
C1845 C859 1.001 . S
C1860 C899 0.995 . S
C1872 C846 1.064 . S
C1887 C886 1.065 . S
C1899 C939 1.011 . S
C1914 C819 0.976 . S
C1926 C926 1.067 . S
C1941 C1090 0.997 . S
C1953 C975 1.069 . S
C1968 C970 0.990 . S
C1980 C1015 1.065 . S
C1995 C1055 1.081 . S
C2007 C1010 1.070 . S
C2022 C1050 1.086 . S
C2034 C1095 1.082 . S
C2049 C1170 1.004 . S
C2061 C1135 1.070 . S
C2076 C1210 0.972 . S
C2088 C1175 1.064 . S
C2103 C1250 0.994 . S
C2115 C1215 1.068 . S
C2130 C1255 1.065 . S
C2142 C1130 0.998 . S
C2157 C1086 1.590 . S
C2169 C9 1.511 . S
C2184 C49 1.496 . S
C2196 C326 1.600 1_455 S
C2211 C89 1.511 . S
C2223 C1006 1.605 . S
C2238 C129 1.567 . S
C2250 C406 1.575 . S
C2265 C169 1.513 . S
C2277 C1166 1.604 . S
C2292 C566 1.603 . S
C2304 C209 1.517 . S
C2319 C1246 1.609 . S
C2331 C249 1.490 . S
C2346 C289 1.565 . S
C2358 C486 1.567 1_455 S
C2373 C338 1.532 . S
C2385 C775 1.606 . S
C2400 C15 1.600 1_655 S
C2412 C378 1.490 . S
C2427 C695 1.571 . S
C2439 C418 1.524 . S
C2454 C95 1.600 . S
C2466 C458 1.490 . S
C2481 C855 1.596 . S
C2493 C498 1.490 . S
C2508 C255 1.566 . S
C2520 C538 1.545 . S
C2535 C578 1.497 . S
C2547 C935 1.587 . S
C2562 C618 1.572 . S
C2574 C175 1.557 1_655 S
C2589 C649 1.528 . S
C2601 C446 1.598 . S
C2616 C689 1.550 . S
C2628 C966 1.586 . S
C2643 C729 1.557 . S
C2655 C366 1.569 . S
C2670 C769 1.570 . S
C2682 C1046 1.553 1_655 S
C2697 C809 1.510 . S
C2709 C526 1.605 . S
C2724 C849 1.568 . S
C2736 C1206 1.563 1_655 S
C2751 C606 1.566 . S
C2763 C889 1.572 . S
C2778 C929 1.503 . S
C2790 C1126 1.595 . S
C2805 C135 1.609 . S
C2817 C978 1.500 . S
C2832 C655 1.590 . S
C2844 C1018 1.564 . S
C2859 C55 1.566 . S
C2871 C1058 1.543 . S
C2886 C735 1.567 1_455 S
C2898 C1098 1.539 . S
C2913 C215 1.609 . S
C2925 C1138 1.515 . S
C2940 C1178 1.527 . S
C2952 C895 1.571 1_455 S
C2967 C1218 1.572 . S
C2979 C295 1.573 . S
C2994 C815 1.568 . S
C3006 C1258 1.567 . S
C3021 C18 0.674 . S
C3033 C178 0.598 . S
C3048 C58 0.596 . S
C3060 C218 0.673 . S
C3075 C98 0.670 . S
C3087 C258 0.597 . S
C3102 C298 0.594 . S
C3114 C138 0.667 . S
C3129 C489 0.615 . S
C3141 C329 0.639 . S
C3156 C529 0.691 . S
C3168 C369 0.594 . S
C3183 C409 0.592 . S
C3195 C569 0.701 . S
C3210 C449 0.726 . S
C3222 C609 0.601 . S
C3237 C658 0.598 . S
C3249 C818 0.620 . S
C3264 C858 0.721 . S
C3276 C698 0.631 . S
C3291 C898 0.695 . S
C3303 C738 0.609 . S
C3318 C938 0.714 . S
C3330 C778 0.761 . S
C3345 C1129 0.763 . S
C3357 C969 0.660 . S
C3372 C1009 0.702 . S
C3384 C1169 0.594 . S
C3399 C1209 0.753 . S
C3411 C1049 0.627 . S
C3426 C1089 0.598 . S
C3438 C1249 0.725 . S
C3453 C290 2.718 . S
C3465 C10 2.707 . S
C3480 C50 2.706 . S
C3492 C170 2.719 . S
C3507 C90 2.715 . S
C3519 C210 2.713 . S
C3534 C250 2.712 . S
C3546 C130 2.716 . S
C3561 C339 2.718 . S
C3573 C619 2.707 . S
C3588 C499 2.718 . S
C3600 C379 2.708 . S
C3615 C539 2.715 . S
C3627 C419 2.716 . S
C3642 C459 2.716 . S
C3654 C579 2.716 . S
C3669 C650 2.714 . S
C3681 C930 2.714 . S
C3696 C810 2.710 . S
C3708 C690 2.712 . S
C3723 C850 2.718 . S
C3735 C730 2.708 . S
C3750 C890 2.715 . S
C3762 C770 2.713 . S
C3777 C979 2.718 . S
C3789 C1259 2.707 . S
C3804 C1139 2.706 . S
C3816 C1019 2.717 . S
C3831 C1059 2.707 . S
C3843 C1179 2.717 . S
C3858 C1219 2.707 . S
C3870 C1099 2.718 . S
