# Generated by pormake.
# Topology wfv, (7)-cn, num edge types: 1
# Building blocks:
#     Node 0, Type 0, BuildingBlock: NUHQUE_clean_sbu_2, # of connection points: 7
#     Node 1, Type 0, BuildingBlock: NUHQUE_clean_sbu_2, # of connection points: 7
#     Node 2, Type 0, BuildingBlock: NUHQUE_clean_sbu_2, # of connection points: 7
#     Node 3, Type 0, BuildingBlock: NUHQUE_clean_sbu_2, # of connection points: 7
#     Node 4, Type 0, BuildingBlock: NUHQUE_clean_sbu_2, # of connection points: 7
#     Node 5, Type 0, BuildingBlock: NUHQUE_clean_sbu_2, # of connection points: 7
#     Node 6, Type 0, BuildingBlock: NUHQUE_clean_sbu_2, # of connection points: 7
#     Node 7, Type 0, BuildingBlock: NUHQUE_clean_sbu_2, # of connection points: 7
#     Node 8, Type 0, BuildingBlock: NUHQUE_clean_sbu_2, # of connection points: 7
#     Node 9, Type 0, BuildingBlock: NUHQUE_clean_sbu_2, # of connection points: 7
#     Node 10, Type 0, BuildingBlock: NUHQUE_clean_sbu_2, # of connection points: 7
#     Node 11, Type 0, BuildingBlock: NUHQUE_clean_sbu_2, # of connection points: 7
#     Node 12, Type 0, BuildingBlock: NUHQUE_clean_sbu_2, # of connection points: 7
#     Node 13, Type 0, BuildingBlock: NUHQUE_clean_sbu_2, # of connection points: 7
#     Node 14, Type 0, BuildingBlock: NUHQUE_clean_sbu_2, # of connection points: 7
#     Node 15, Type 0, BuildingBlock: NUHQUE_clean_sbu_2, # of connection points: 7
#     Edge 16, Type (0, 0), BuildingBlock: XUDNAN_clean_linker_2, # of connection points: 2
#     Edge 17, Type (0, 0), BuildingBlock: XUDNAN_clean_linker_2, # of connection points: 2
#     Edge 18, Type (0, 0), BuildingBlock: XUDNAN_clean_linker_2, # of connection points: 2
#     Edge 19, Type (0, 0), BuildingBlock: XUDNAN_clean_linker_2, # of connection points: 2
#     Edge 20, Type (0, 0), BuildingBlock: XUDNAN_clean_linker_2, # of connection points: 2
#     Edge 21, Type (0, 0), BuildingBlock: XUDNAN_clean_linker_2, # of connection points: 2
#     Edge 22, Type (0, 0), BuildingBlock: XUDNAN_clean_linker_2, # of connection points: 2
#     Edge 23, Type (0, 0), BuildingBlock: XUDNAN_clean_linker_2, # of connection points: 2
#     Edge 24, Type (0, 0), BuildingBlock: XUDNAN_clean_linker_2, # of connection points: 2
#     Edge 25, Type (0, 0), BuildingBlock: XUDNAN_clean_linker_2, # of connection points: 2
#     Edge 26, Type (0, 0), BuildingBlock: XUDNAN_clean_linker_2, # of connection points: 2
#     Edge 27, Type (0, 0), BuildingBlock: XUDNAN_clean_linker_2, # of connection points: 2
#     Edge 28, Type (0, 0), BuildingBlock: XUDNAN_clean_linker_2, # of connection points: 2
#     Edge 29, Type (0, 0), BuildingBlock: XUDNAN_clean_linker_2, # of connection points: 2
#     Edge 30, Type (0, 0), BuildingBlock: XUDNAN_clean_linker_2, # of connection points: 2
#     Edge 31, Type (0, 0), BuildingBlock: XUDNAN_clean_linker_2, # of connection points: 2
#     Edge 32, Type (0, 0), BuildingBlock: XUDNAN_clean_linker_2, # of connection points: 2
#     Edge 33, Type (0, 0), BuildingBlock: XUDNAN_clean_linker_2, # of connection points: 2
#     Edge 34, Type (0, 0), BuildingBlock: XUDNAN_clean_linker_2, # of connection points: 2
#     Edge 35, Type (0, 0), BuildingBlock: XUDNAN_clean_linker_2, # of connection points: 2
#     Edge 36, Type (0, 0), BuildingBlock: XUDNAN_clean_linker_2, # of connection points: 2
#     Edge 37, Type (0, 0), BuildingBlock: XUDNAN_clean_linker_2, # of connection points: 2
#     Edge 38, Type (0, 0), BuildingBlock: XUDNAN_clean_linker_2, # of connection points: 2
#     Edge 39, Type (0, 0), BuildingBlock: XUDNAN_clean_linker_2, # of connection points: 2
#     Edge 40, Type (0, 0), BuildingBlock: XUDNAN_clean_linker_2, # of connection points: 2
#     Edge 41, Type (0, 0), BuildingBlock: XUDNAN_clean_linker_2, # of connection points: 2
#     Edge 42, Type (0, 0), BuildingBlock: XUDNAN_clean_linker_2, # of connection points: 2
#     Edge 43, Type (0, 0), BuildingBlock: XUDNAN_clean_linker_2, # of connection points: 2
#     Edge 44, Type (0, 0), BuildingBlock: XUDNAN_clean_linker_2, # of connection points: 2
#     Edge 45, Type (0, 0), BuildingBlock: XUDNAN_clean_linker_2, # of connection points: 2
#     Edge 46, Type (0, 0), BuildingBlock: XUDNAN_clean_linker_2, # of connection points: 2
#     Edge 47, Type (0, 0), BuildingBlock: XUDNAN_clean_linker_2, # of connection points: 2
#     Edge 48, Type (0, 0), BuildingBlock: XUDNAN_clean_linker_2, # of connection points: 2
#     Edge 49, Type (0, 0), BuildingBlock: XUDNAN_clean_linker_2, # of connection points: 2
#     Edge 50, Type (0, 0), BuildingBlock: XUDNAN_clean_linker_2, # of connection points: 2
#     Edge 51, Type (0, 0), BuildingBlock: XUDNAN_clean_linker_2, # of connection points: 2
#     Edge 52, Type (0, 0), BuildingBlock: XUDNAN_clean_linker_2, # of connection points: 2
#     Edge 53, Type (0, 0), BuildingBlock: XUDNAN_clean_linker_2, # of connection points: 2
#     Edge 54, Type (0, 0), BuildingBlock: XUDNAN_clean_linker_2, # of connection points: 2
#     Edge 55, Type (0, 0), BuildingBlock: XUDNAN_clean_linker_2, # of connection points: 2
#     Edge 56, Type (0, 0), BuildingBlock: XUDNAN_clean_linker_2, # of connection points: 2
#     Edge 57, Type (0, 0), BuildingBlock: XUDNAN_clean_linker_2, # of connection points: 2
#     Edge 58, Type (0, 0), BuildingBlock: XUDNAN_clean_linker_2, # of connection points: 2
#     Edge 59, Type (0, 0), BuildingBlock: XUDNAN_clean_linker_2, # of connection points: 2
#     Edge 60, Type (0, 0), BuildingBlock: XUDNAN_clean_linker_2, # of connection points: 2
#     Edge 61, Type (0, 0), BuildingBlock: XUDNAN_clean_linker_2, # of connection points: 2
#     Edge 62, Type (0, 0), BuildingBlock: XUDNAN_clean_linker_2, # of connection points: 2
#     Edge 63, Type (0, 0), BuildingBlock: XUDNAN_clean_linker_2, # of connection points: 2
#     Edge 64, Type (0, 0), BuildingBlock: XUDNAN_clean_linker_2, # of connection points: 2
#     Edge 65, Type (0, 0), BuildingBlock: XUDNAN_clean_linker_2, # of connection points: 2
#     Edge 66, Type (0, 0), BuildingBlock: XUDNAN_clean_linker_2, # of connection points: 2
#     Edge 67, Type (0, 0), BuildingBlock: XUDNAN_clean_linker_2, # of connection points: 2
#     Edge 68, Type (0, 0), BuildingBlock: XUDNAN_clean_linker_2, # of connection points: 2
#     Edge 69, Type (0, 0), BuildingBlock: XUDNAN_clean_linker_2, # of connection points: 2
#     Edge 70, Type (0, 0), BuildingBlock: XUDNAN_clean_linker_2, # of connection points: 2
#     Edge 71, Type (0, 0), BuildingBlock: XUDNAN_clean_linker_2, # of connection points: 2
# Relax obj value: 0.192
# Max RMSD: 0.256
# Mean RMSD: 0.256
data_MOF--net-wfv--node1-NUHQUE_clean_sbu_2--edge1-XUDNAN_clean_linker_2
_symmetry_space_group_name_H-M    P1
_symmetry_Int_Tables_number       1
_symmetry_cell_setting            triclinic
loop_
_symmetry_equiv_pos_as_xyz
'x, y, z'
_cell_length_a     46.533732
_cell_length_b     46.47625
_cell_length_c     42.907011
_cell_angle_alpha  90.033083
_cell_angle_beta   90.135943
_cell_angle_gamma 89.750724
loop_
_atom_site_label
_atom_site_type_symbol
_atom_site_fract_x
_atom_site_fract_y
_atom_site_fract_z
_atom_type_partial_charge
O0 O 0.64445 0.12582 0.09252 0.0
Tb1 Tb 0.6866 0.11861 0.11274 0.0
Eu2 Eu 0.69515 0.01923 0.12639 0.0
C3 C 0.64286 0.13035 0.06225 0.0
O4 O 0.66211 0.11802 0.04426 0.0
C5 C 0.71386 0.06508 0.0781 0.0
O6 O 0.73745 1.00038 0.14258 0.0
C7 C 0.65532 0.98094 0.1181 0.0
C8 C 0.75948 0.01724 0.14825 0.0
O9 O 0.75607 0.04523 0.14588 0.0
C10 C 0.6861 0.0786 0.16822 0.0
C11 C 0.62434 0.97378 0.11477 0.0
C12 C 0.60736 0.98352 0.08951 0.0
C13 C 0.57943 0.9725 0.08471 0.0
C14 C 0.56926 0.95094 0.10475 0.0
C15 C 0.58594 0.9407 0.12984 0.0
C16 C 0.613 0.95318 0.13518 0.0
O17 O 0.71132 0.07953 0.10416 0.0
O18 O 0.71083 0.03704 0.08026 0.0
O19 O 0.70165 0.16022 0.1292 0.0
O20 O 0.70942 0.14794 0.08206 0.0
C21 C 0.71183 0.16855 0.10245 0.0
O22 O 0.67765 0.06117 0.14564 0.0
O23 O 0.68451 0.10632 0.16177 0.0
O24 O 0.6652 0.98804 0.14586 0.0
O25 O 0.66835 0.99409 0.09503 0.0
H26 H 0.61596 0.99918 0.07338 0.0
H27 H 0.54892 0.94087 0.09932 0.0
H28 H 0.62614 0.94585 0.1545 0.0
O29 O 0.37594 0.64057 0.10515 0.0
Tb30 Tb 0.39033 0.67621 0.1344 0.0
Eu31 Eu 0.48995 0.69708 0.14157 0.0
C32 C 0.35696 0.64778 0.08357 0.0
O33 O 0.35062 0.67513 0.0802 0.0
C34 C 0.43799 0.71591 0.10298 0.0
O35 O 0.51057 0.73486 0.16535 0.0
C36 C 0.52713 0.66321 0.11503 0.0
C37 C 0.49639 0.75908 0.16958 0.0
O38 O 0.469 0.76035 0.1622 0.0
C39 C 0.43642 0.6791 0.18593 0.0
C40 C 0.5339 0.63263 0.10803 0.0
C41 C 0.51738 0.6158 0.08723 0.0
C42 C 0.52568 0.58723 0.08039 0.0
C43 C 0.55023 0.57578 0.09478 0.0
C44 C 0.5684 0.59303 0.11301 0.0
C45 C 0.55961 0.62121 0.12014 0.0
O46 O 0.43082 0.69133 0.1157 0.0
O47 O 0.46473 0.72386 0.10712 0.0
O48 O 0.36237 0.71321 0.12412 0.0
O49 O 0.35068 0.68281 0.15918 0.0
C50 C 0.34257 0.70575 0.14419 0.0
O51 O 0.45444 0.67136 0.1638 0.0
O52 O 0.40902 0.67302 0.18135 0.0
O53 O 0.52885 0.67118 0.14443 0.0
O54 O 0.50608 0.67586 0.09971 0.0
H55 H 0.49868 0.62498 0.07582 0.0
H56 H 0.55647 0.55383 0.08953 0.0
H57 H 0.57354 0.63502 0.13374 0.0
O58 O 0.85022 0.36087 0.08242 0.0
Tb59 Tb 0.81732 0.39229 0.09456 0.0
Eu60 Eu 0.81969 0.48237 0.10741 0.0
C61 C 0.85991 0.35976 0.05363 0.0
O62 O 0.85232 0.38013 0.03405 0.0
C63 C 0.80595 0.44647 0.05376 0.0
O64 O 0.78585 0.51475 0.11991 0.0
C65 C 0.87159 0.5011 0.1075 0.0
C66 C 0.75961 0.50486 0.11727 0.0
O67 O 0.75605 0.47816 0.10805 0.0
C68 C 0.80873 0.42687 0.158 0.0
C69 C 0.90113 0.51259 0.10811 0.0
C70 C 0.92328 0.49956 0.09082 0.0
C71 C 0.95001 0.51331 0.08756 0.0
C72 C 0.95431 0.54015 0.10184 0.0
C73 C 0.93266 0.55303 0.12009 0.0
C74 C 0.90637 0.53866 0.12346 0.0
O75 O 0.82314 0.43341 0.0734 0.0
O76 O 0.8023 0.47353 0.05977 0.0
O77 O 0.77941 0.37246 0.11464 0.0
O78 O 0.78257 0.37532 0.06554 0.0
C79 C 0.76694 0.36596 0.08847 0.0
O80 O 0.80575 0.4535 0.14727 0.0
O81 O 0.82246 0.40567 0.14331 0.0
O82 O 0.84928 0.51769 0.11369 0.0
O83 O 0.86578 0.47381 0.10194 0.0
H84 H 0.91932 0.47946 0.07875 0.0
H85 H 0.97454 0.55108 0.09829 0.0
H86 H 0.88951 0.54804 0.13761 0.0
O87 O 0.13431 0.84005 0.09385 0.0
Tb88 Tb 0.10929 0.80174 0.10307 0.0
Eu89 Eu 0.01151 0.80643 0.12458 0.0
C90 C 0.13616 0.84933 0.06495 0.0
O91 O 0.11884 0.83841 0.04384 0.0
C92 C 0.0513 0.78002 0.07339 0.0
O93 O 0.98984 0.77005 0.14943 0.0
C94 C 0.97608 0.84853 0.11274 0.0
C95 C 0.00172 0.74446 0.14765 0.0
O96 O 0.02604 0.74162 0.13256 0.0
C97 C 0.07319 0.80587 0.16071 0.0
C98 C 0.97075 0.87974 0.10777 0.0
C99 C 0.98293 0.89492 0.08255 0.0
C100 C 0.9752 0.92384 0.07682 0.0
C101 C 0.95551 0.93744 0.09672 0.0
C102 C 0.94251 0.92246 0.12116 0.0
C103 C 0.95017 0.89366 0.12661 0.0
O104 O 0.06682 0.80236 0.08184 0.0
O105 O 0.0243 0.77968 0.08261 0.0
O106 O 0.14445 0.78043 0.07861 0.0
O107 O 0.12426 0.7589 0.11595 0.0
C108 C 0.14518 0.75756 0.09598 0.0
O109 O 0.05591 0.819 0.14071 0.0
O110 O 0.10037 0.80428 0.15272 0.0
O111 O 0.98202 0.83966 0.1412 0.0
O112 O 0.98932 0.83367 0.09088 0.0
H113 H 0.99779 0.88415 0.06697 0.0
H114 H 0.94853 0.95927 0.09174 0.0
H115 H 0.93951 0.88185 0.14503 0.0
O116 O 0.63188 0.38665 0.42637 0.0
Tb117 Tb 0.67646 0.39898 0.41887 0.0
Eu118 Eu 0.68716 0.47684 0.40182 0.0
C119 C 0.62275 0.38401 0.45536 0.0
O120 O 0.63385 0.40094 0.47669 0.0
C121 C 0.70782 0.44157 0.46118 0.0
O122 O 0.72451 0.50688 0.39518 0.0
C123 C 0.64198 0.50434 0.42172 0.0
C124 C 0.73297 0.51713 0.36818 0.0
O125 O 0.71785 0.51185 0.34296 0.0
C126 C 0.6946 0.42727 0.35169 0.0
C127 C 0.61244 0.51504 0.41457 0.0
C128 C 0.58858 0.50337 0.43041 0.0
C129 C 0.56084 0.51493 0.42597 0.0
C130 C 0.55711 0.53821 0.40567 0.0
C131 C 0.5805 0.55088 0.39071 0.0
C132 C 0.60817 0.53933 0.39517 0.0
O133 O 0.68382 0.42711 0.45869 0.0
O134 O 0.71625 0.45829 0.43851 0.0
O135 O 0.70701 0.37134 0.4439 0.0
O136 O 0.67767 0.35263 0.4119 0.0
C137 C 0.69816 0.34736 0.43156 0.0
O138 O 0.68329 0.45296 0.35648 0.0
O139 O 0.69711 0.40762 0.37384 0.0
O140 O 0.66352 0.5167 0.40712 0.0
O141 O 0.64608 0.47656 0.42674 0.0
H142 H 0.59164 0.48575 0.44664 0.0
H143 H 0.53595 0.54786 0.4031 0.0
H144 H 0.62626 0.54972 0.38408 0.0
O145 O 0.13538 0.66707 0.421 0.0
Tb146 Tb 0.11053 0.70614 0.41324 0.0
Eu147 Eu 0.01194 0.69737 0.39863 0.0
C148 C 0.13601 0.65654 0.44951 0.0
O149 O 0.11752 0.66656 0.46996 0.0
C150 C 0.05235 0.72423 0.44711 0.0
O151 O 0.99205 0.73836 0.38065 0.0
C152 C 0.97541 0.65677 0.41067 0.0
C153 C 0.00931 0.76061 0.37932 0.0
O154 O 0.03644 0.75678 0.38668 0.0
C155 C 0.06883 0.70245 0.35643 0.0
C156 C 0.96649 0.62612 0.4095 0.0
C157 C 0.98213 0.604 0.42469 0.0
C158 C 0.97123 0.57574 0.42563 0.0
C159 C 0.94443 0.56999 0.41206 0.0
C160 C 0.92818 0.59182 0.3979 0.0
C161 C 0.9396 0.61967 0.39609 0.0
O162 O 0.06827 0.70414 0.43415 0.0
O163 O 0.02472 0.72265 0.44135 0.0
O164 O 0.14021 0.73059 0.44281 0.0
O165 O 0.13492 0.7423 0.39562 0.0
C166 C 0.14977 0.74725 0.42073 0.0
O167 O 0.05349 0.68488 0.37408 0.0
O168 O 0.0954 0.70868 0.36493 0.0
O169 O 0.97473 0.67195 0.38471 0.0
O170 O 0.99601 0.66441 0.43007 0.0
H171 H 0.00243 0.60871 0.43596 0.0
H172 H 0.93568 0.54843 0.41347 0.0
H173 H 0.92681 0.63675 0.38574 0.0
O174 O 0.83939 0.14057 0.43138 0.0
Tb175 Tb 0.80161 0.11472 0.4212 0.0
Eu176 Eu 0.80799 0.01706 0.39207 0.0
C177 C 0.84815 0.14246 0.46056 0.0
O178 O 0.83787 0.12419 0.48101 0.0
C179 C 0.7798 0.05397 0.44308 0.0
O180 O 0.77163 0.99333 0.36871 0.0
C181 C 0.8514 0.98451 0.40724 0.0
C182 C 0.74799 0.00755 0.36165 0.0
O183 O 0.74706 0.03541 0.36656 0.0
C184 C 0.80331 0.08017 0.3598 0.0
C185 C 0.88287 0.98024 0.41114 0.0
C186 C 0.90019 0.99776 0.43062 0.0
C187 C 0.92972 0.99136 0.43434 0.0
C188 C 0.94144 0.9675 0.41895 0.0
C189 C 0.92457 0.94983 0.39995 0.0
C190 C 0.89532 0.95626 0.39623 0.0
O191 O 0.80206 0.06979 0.43519 0.0
O192 O 0.77933 0.02742 0.43266 0.0
O193 O 0.76395 0.14176 0.41225 0.0
O194 O 0.77688 0.13408 0.45881 0.0
C195 C 0.75878 0.14803 0.44125 0.0
O196 O 0.81908 0.06226 0.3767 0.0
O197 O 0.79884 0.10625 0.37116 0.0
O198 O 0.84104 0.98613 0.37865 0.0
O199 O 0.8373 1.0004 0.42755 0.0
H200 H 0.89094 0.0161 0.4426 0.0
H201 H 0.96398 0.96231 0.42245 0.0
H202 H 0.88213 0.94242 0.38176 0.0
O203 O 0.37418 0.83937 0.44013 0.0
Tb204 Tb 0.39879 0.80165 0.4261 0.0
Eu205 Eu 0.499 0.80205 0.40387 0.0
C206 C 0.37067 0.84486 0.47001 0.0
O207 O 0.38689 0.83127 0.49038 0.0
C208 C 0.45737 0.77432 0.45127 0.0
O209 O 0.51964 0.76321 0.38128 0.0
C210 C 0.53611 0.84197 0.41749 0.0
C211 C 0.50409 0.74086 0.3731 0.0
O212 O 0.47605 0.74197 0.37633 0.0
C213 C 0.43679 0.80831 0.36858 0.0
C214 C 0.54279 0.87333 0.41843 0.0
C215 C 0.53268 0.89184 0.44234 0.0
C216 C 0.54116 0.92104 0.44318 0.0
C217 C 0.55979 0.93133 0.42016 0.0
C218 C 0.57097 0.91305 0.39731 0.0
C219 C 0.56249 0.88418 0.3965 0.0
O220 O 0.44249 0.79759 0.44409 0.0
O221 O 0.48479 0.77403 0.44375 0.0
O222 O 0.36709 0.77475 0.45006 0.0
O223 O 0.37578 0.76737 0.40256 0.0
C224 C 0.35892 0.76044 0.42545 0.0
O225 O 0.45547 0.81873 0.38881 0.0
O226 O 0.40958 0.80869 0.37713 0.0
O227 O 0.53389 0.82993 0.38976 0.0
O228 O 0.51854 0.83087 0.43827 0.0
H229 H 0.51867 0.8836 0.46035 0.0
H230 H 0.56731 0.95338 0.4213 0.0
H231 H 0.57184 0.87001 0.37914 0.0
O232 O 0.34989 0.86202 0.93596 0.0
Tb233 Tb 0.314 0.88868 0.92149 0.0
Eu234 Eu 0.31055 0.98628 0.90016 0.0
C235 C 0.35829 0.86339 0.96521 0.0
O236 O 0.34962 0.8852 0.98231 0.0
C237 C 0.29066 0.94543 0.95064 0.0
O238 O 0.27174 0.00485 0.87617 0.0
C239 C 0.34957 0.02366 0.91508 0.0
C240 C 0.25013 0.98788 0.86929 0.0
O241 O 0.25195 0.96037 0.87607 0.0
C242 C 0.31553 0.92601 0.86245 0.0
C243 C 0.38041 0.03162 0.91515 0.0
C244 C 0.40194 0.01594 0.93134 0.0
C245 C 0.4306 0.02593 0.93165 0.0
C246 C 0.43715 0.05176 0.91633 0.0
C247 C 0.41578 0.06811 0.90145 0.0
C248 C 0.38764 0.05762 0.90057 0.0
O249 O 0.3128 0.9328 0.93749 0.0
O250 O 0.28493 0.97177 0.9417 0.0
O251 O 0.27767 0.86365 0.90498 0.0
O252 O 0.28318 0.86927 0.95358 0.0
C253 C 0.26749 0.85713 0.93222 0.0
O254 O 0.32845 0.94465 0.88094 0.0
O255 O 0.31486 0.89895 0.87176 0.0
O256 O 0.33617 0.02356 0.88799 0.0
O257 O 0.34044 0.00382 0.93448 0.0
H258 H 0.39655 0.99629 0.94352 0.0
H259 H 0.45903 0.05968 0.91689 0.0
H260 H 0.37085 0.07045 0.88974 0.0
O261 O 0.63918 0.35726 0.91223 0.0
Tb262 Tb 0.61719 0.31643 0.91081 0.0
Eu263 Eu 0.51862 0.3139 0.90113 0.0
C264 C 0.64126 0.36998 0.9395 0.0
O265 O 0.62351 0.36215 0.96167 0.0
C266 C 0.56377 0.29575 0.94807 0.0
O267 O 0.4966 0.27213 0.89068 0.0
C268 C 0.48522 0.35699 0.91545 0.0
C269 C 0.47571 0.26792 0.87057 0.0
O270 O 0.46602 0.28927 0.8534 0.0
C271 C 0.5738 0.30656 0.85584 0.0
C272 C 0.47858 0.38797 0.90973 0.0
C273 C 0.49073 0.41013 0.92828 0.0
C274 C 0.48238 0.43913 0.92384 0.0
C275 C 0.46163 0.4455 0.90109 0.0
C276 C 0.4489 0.42392 0.88314 0.0
C277 C 0.45731 0.39524 0.88758 0.0
O278 O 0.57522 0.31646 0.93161 0.0
O279 O 0.53642 0.29136 0.94344 0.0
O280 O 0.64848 0.28339 0.89956 0.0
O281 O 0.64239 0.2946 0.94704 0.0
C282 C 0.65749 0.27895 0.92784 0.0
O283 O 0.5565 0.32515 0.86997 0.0
O284 O 0.60095 0.30453 0.86487 0.0
O285 O 0.47973 0.33868 0.89272 0.0
O286 O 0.50843 0.35026 0.93156 0.0
H287 H 0.50634 0.4049 0.94619 0.0
H288 H 0.45398 0.46745 0.89851 0.0
H289 H 0.44671 0.37857 0.87419 0.0
O290 O 0.15462 0.61582 0.93511 0.0
Tb291 Tb 0.19405 0.60733 0.90942 0.0
Eu292 Eu 0.2047 0.50771 0.88412 0.0
C293 C 0.15802 0.62968 0.96166 0.0
O294 O 0.18414 0.63296 0.97256 0.0
C295 C 0.22962 0.54831 0.93504 0.0
O296 O 0.2434 0.48968 0.85946 0.0
C297 C 0.1674 0.46786 0.89598 0.0
C298 C 0.26527 0.50609 0.85213 0.0
O299 O 0.2637 0.53393 0.85723 0.0
C300 C 0.19287 0.5696 0.85062 0.0
C301 C 0.13709 0.45929 0.90111 0.0
C302 C 0.12157 0.46795 0.9278 0.0
C303 C 0.09504 0.45508 0.93475 0.0
C304 C 0.08401 0.43393 0.9148 0.0
C305 C 0.09888 0.42517 0.88797 0.0
C306 C 0.12527 0.43838 0.88113 0.0
O307 O 0.21057 0.56403 0.91965 0.0
O308 O 0.23066 0.52115 0.9264 0.0
O309 O 0.19995 0.65113 0.89296 0.0
O310 O 0.22662 0.63539 0.92955 0.0
C311 C 0.2198 0.6579 0.91296 0.0
O312 O 0.18424 0.5502 0.87093 0.0
O313 O 0.1919 0.59671 0.85971 0.0
O314 O 0.17542 0.47459 0.86749 0.0
O315 O 0.1808 0.48248 0.91787 0.0
H316 H 0.13066 0.48339 0.94393 0.0
H317 H 0.06425 0.42328 0.92133 0.0
H318 H 0.13737 0.43151 0.86089 0.0
O319 O 0.87132 0.14508 0.91875 0.0
Tb320 Tb 0.89466 0.18291 0.90385 0.0
Eu321 Eu 0.99348 0.18348 0.88375 0.0
C322 C 0.86688 0.14356 0.94896 0.0
O323 O 0.88137 0.16115 0.96705 0.0
C324 C 0.95228 0.20492 0.93366 0.0
O325 O 0.01472 0.22072 0.85979 0.0
C326 C 0.02916 0.14188 0.89629 0.0
C327 C 0.00236 0.24619 0.85911 0.0
O328 O 0.97651 0.24923 0.87094 0.0
C329 C 0.93409 0.18375 0.84633 0.0
C330 C 0.03399 0.11033 0.89485 0.0
C331 C 0.01827 0.09056 0.91312 0.0
C332 C 0.0248 0.06091 0.9118 0.0
C333 C 0.04718 0.05141 0.89248 0.0
C334 C 0.06351 0.0708 0.87509 0.0
C335 C 0.05677 0.10017 0.87629 0.0
O336 O 0.93897 0.18378 0.91951 0.0
O337 O 0.97919 0.20901 0.92588 0.0
O338 O 0.87705 0.21544 0.93558 0.0
O339 O 0.86186 0.21311 0.88898 0.0
C340 C 0.85871 0.22601 0.91562 0.0
O341 O 0.95124 0.16816 0.86404 0.0
O342 O 0.90708 0.18692 0.85495 0.0
O343 O 0.02874 0.15574 0.86955 0.0
O344 O 0.01096 0.15231 0.91687 0.0
H345 H 0.00129 0.09809 0.92835 0.0
H346 H 0.05316 0.02882 0.89256 0.0
H347 H 0.06976 0.11526 0.86324 0.0
O348 O 0.35805 0.62244 0.59133 0.0
Tb349 Tb 0.31554 0.60529 0.59876 0.0
Eu350 Eu 0.29716 0.51135 0.62419 0.0
C351 C 0.37175 0.61405 0.56619 0.0
O352 O 0.36278 0.59086 0.55166 0.0
C353 C 0.28309 0.55322 0.57093 0.0
O354 O 0.25899 0.49576 0.65087 0.0
C355 C 0.33441 0.4714 0.61149 0.0
C356 C 0.23631 0.51233 0.65453 0.0
O357 O 0.23644 0.53851 0.64299 0.0
C358 C 0.30889 0.57178 0.65851 0.0
C359 C 0.3656 0.46697 0.60678 0.0
C360 C 0.38138 0.48246 0.58436 0.0
C361 C 0.41093 0.47697 0.58026 0.0
C362 C 0.42445 0.45651 0.59938 0.0
C363 C 0.4087 0.43926 0.62002 0.0
C364 C 0.37929 0.44509 0.62394 0.0
O365 O 0.30803 0.56217 0.58141 0.0
O366 O 0.27334 0.52894 0.58232 0.0
O367 O 0.27904 0.63449 0.60338 0.0
O368 O 0.30212 0.63346 0.56089 0.0
C369 C 0.28128 0.64589 0.57582 0.0
O370 O 0.31889 0.5522 0.63918 0.0
O371 O 0.31037 0.59863 0.64889 0.0
O372 O 0.32622 0.47764 0.64006 0.0
O373 O 0.31989 0.48539 0.58988 0.0
H374 H 0.3707 0.4983 0.56982 0.0
H375 H 0.44723 0.45262 0.59654 0.0
H376 H 0.36654 0.43186 0.63937 0.0
O377 O 0.86878 0.36357 0.61425 0.0
Tb378 Tb 0.89081 0.32254 0.61689 0.0
Eu379 Eu 0.99049 0.31063 0.62626 0.0
C380 C 0.86775 0.37673 0.58719 0.0
O381 O 0.88536 0.36817 0.56512 0.0
C382 C 0.94247 0.2966 0.57926 0.0
O383 O 0.01289 0.27098 0.6441 0.0
C384 C 0.02446 0.35272 0.61208 0.0
C385 C 0.04005 0.27002 0.65233 0.0
O386 O 0.05572 0.2934 0.65089 0.0
C387 C 0.93326 0.31292 0.66952 0.0
C388 C 0.0288 0.38424 0.60907 0.0
C389 C 0.01975 0.4 0.58267 0.0
C390 C 0.02883 0.4287 0.57839 0.0
C391 C 0.04827 0.44064 0.59989 0.0
C392 C 0.05745 0.42536 0.62644 0.0
C393 C 0.04633 0.39768 0.63133 0.0
O394 O 0.93232 0.31932 0.59396 0.0
O395 O 0.96927 0.28931 0.58494 0.0
O396 O 0.86657 0.30048 0.58064 0.0
O397 O 0.86063 0.28849 0.62791 0.0
C398 C 0.85244 0.28381 0.5994 0.0
O399 O 0.9496 0.32588 0.64891 0.0
O400 O 0.90544 0.31373 0.66439 0.0
O401 O 0.02194 0.34221 0.64045 0.0
O402 O 0.00915 0.33891 0.59106 0.0
H403 H 0.00606 0.38992 0.56542 0.0
H404 H 0.05744 0.46141 0.59463 0.0
H405 H 0.05256 0.38566 0.65187 0.0
O406 O 0.14463 0.86985 0.60199 0.0
Tb407 Tb 0.18527 0.88562 0.61949 0.0
Eu408 Eu 0.19562 0.98461 0.63095 0.0
C409 C 0.13544 0.8785 0.5746 0.0
O410 O 0.14718 0.90116 0.56168 0.0
C411 C 0.21361 0.93845 0.58505 0.0
O412 O 0.23673 0.00554 0.64585 0.0
C413 C 0.15675 0.02121 0.61275 0.0
C414 C 0.25992 0.98947 0.64689 0.0
O415 O 0.25702 0.96142 0.64512 0.0
C416 C 0.1927 0.92758 0.67498 0.0
C417 C 0.1266 0.03208 0.61193 0.0
C418 C 0.1071 0.02412 0.58816 0.0
C419 C 0.08075 0.03895 0.58457 0.0
C420 C 0.07475 0.06266 0.60378 0.0
C421 C 0.09445 0.07163 0.6267 0.0
C422 C 0.11939 0.0551 0.63165 0.0
O423 O 0.19169 0.92824 0.60068 0.0
O424 O 0.21951 0.9655 0.59015 0.0
O425 O 0.20279 0.84392 0.63168 0.0
O426 O 0.21947 0.86579 0.592 0.0
C427 C 0.2207 0.84235 0.60854 0.0
O428 O 0.17843 0.94597 0.65715 0.0
O429 O 0.19181 0.9 0.66749 0.0
O430 O 0.17139 0.02378 0.63897 0.0
O431 O 0.16411 0.99857 0.59609 0.0
H432 H 0.11274 0.00724 0.57182 0.0
H433 H 0.05574 0.07544 0.59892 0.0
H434 H 0.13444 0.06158 0.64959 0.0
O435 O 0.62954 0.14731 0.58969 0.0
Tb436 Tb 0.61187 0.18801 0.60506 0.0
Eu437 Eu 0.51343 0.19618 0.62706 0.0
C438 C 0.62072 0.13675 0.56297 0.0
O439 O 0.59778 0.14801 0.54979 0.0
C440 C 0.55621 0.21891 0.57845 0.0
O441 O 0.49283 0.23325 0.65222 0.0
C442 C 0.47815 0.15641 0.60881 0.0
C443 C 0.50791 0.25694 0.65457 0.0
O444 O 0.53456 0.25687 0.64451 0.0
C445 C 0.57411 0.19046 0.66343 0.0
C446 C 0.474 0.1256 0.60136 0.0
C447 C 0.49576 0.10801 0.58809 0.0
C448 C 0.48951 0.07924 0.57998 0.0
C449 C 0.46188 0.06862 0.58485 0.0
C450 C 0.44003 0.08601 0.59688 0.0
C451 C 0.4463 0.11429 0.60577 0.0
O452 O 0.56811 0.19516 0.5891 0.0
O453 O 0.52974 0.22393 0.58752 0.0
O454 O 0.64671 0.21441 0.62205 0.0
O455 O 0.63459 0.2178 0.57438 0.0
C456 C 0.65259 0.22658 0.59563 0.0
O457 O 0.55553 0.17829 0.64438 0.0
O458 O 0.60119 0.19027 0.65458 0.0
O459 O 0.48141 0.16364 0.63829 0.0
O460 O 0.49341 0.17205 0.58945 0.0
H461 H 0.51699 0.11662 0.58383 0.0
H462 H 0.45715 0.04654 0.57836 0.0
H463 H 0.42929 0.1279 0.61489 0.0
H464 H 0.74793 0.33168 0.13486 0.0
H465 H 0.74133 0.346 0.03529 0.0
H466 H 0.71974 0.2979 0.02898 0.0
H467 H 0.77516 0.26638 0.13072 0.0
H468 H 0.75709 0.25043 0.16351 0.0
H469 H 0.76281 0.2886 0.1625 0.0
H470 H 0.70832 0.29842 0.16875 0.0
H471 H 0.70237 0.26018 0.1711 0.0
H472 H 0.68317 0.2814 0.14265 0.0
H473 H 0.7116 0.24426 0.03179 0.0
H474 H 0.70984 0.19254 0.04463 0.0
H475 H 0.72315 0.21274 0.14224 0.0
C476 C 0.74076 0.32516 0.11189 0.0
C477 C 0.74616 0.34242 0.08554 0.0
C478 C 0.73719 0.33303 0.05576 0.0
C479 C 0.72523 0.30561 0.05194 0.0
C480 C 0.72277 0.28792 0.07805 0.0
C481 C 0.72956 0.29763 0.10763 0.0
C482 C 0.72849 0.27354 0.13134 0.0
C483 C 0.75762 0.26952 0.14796 0.0
C484 C 0.70413 0.27869 0.15484 0.0
C485 C 0.7219 0.24841 0.11022 0.0
C486 C 0.71823 0.25713 0.07965 0.0
C487 C 0.71421 0.23734 0.05563 0.0
C488 C 0.71356 0.20799 0.06311 0.0
C489 C 0.71665 0.19883 0.09437 0.0
C490 C 0.72081 0.21929 0.11814 0.0
H491 H 0.19722 0.76331 0.06708 0.0
H492 H 0.15271 0.71543 0.13899 0.0
H493 H 0.19922 0.69837 0.15963 0.0
H494 H 0.25705 0.7095 0.05636 0.0
H495 H 0.28326 0.73734 0.05003 0.0
H496 H 0.24647 0.743 0.03843 0.0
H497 H 0.24448 0.78943 0.07095 0.0
H498 H 0.281 0.78402 0.08365 0.0
H499 H 0.25274 0.78802 0.11201 0.0
H500 H 0.24934 0.69348 0.17771 0.0
H501 H 0.30167 0.69035 0.18519 0.0
H502 H 0.31485 0.73942 0.10038 0.0
C503 C 0.19726 0.74829 0.08637 0.0
C504 C 0.17145 0.74065 0.10154 0.0
C505 C 0.17227 0.72138 0.12701 0.0
C506 C 0.19858 0.7118 0.13905 0.0
C507 C 0.22371 0.72135 0.12496 0.0
C508 C 0.22339 0.73831 0.09854 0.0
C509 C 0.25368 0.74605 0.08859 0.0
C510 C 0.26054 0.73316 0.05645 0.0
C511 C 0.25822 0.77883 0.08883 0.0
C512 C 0.27095 0.7315 0.11413 0.0
C513 C 0.25308 0.71767 0.13496 0.0
C514 C 0.26362 0.70368 0.16124 0.0
C515 C 0.29336 0.70232 0.16545 0.0
C516 C 0.31221 0.71458 0.14332 0.0
C517 C 0.30088 0.73008 0.11778 0.0
H518 H 0.68228 0.29663 0.40467 0.0
H519 H 0.73665 0.33287 0.47681 0.0
H520 H 0.75264 0.28414 0.49121 0.0
H521 H 0.66146 0.23086 0.44607 0.0
H522 H 0.66343 0.2088 0.41156 0.0
H523 H 0.65412 0.24639 0.40839 0.0
H524 H 0.69601 0.25428 0.36958 0.0
H525 H 0.70511 0.21671 0.37223 0.0
H526 H 0.7319 0.24354 0.38059 0.0
H527 H 0.76207 0.2313 0.49885 0.0
H528 H 0.77332 0.18033 0.4911 0.0
H529 H 0.71585 0.17803 0.41142 0.0
C530 C 0.69725 0.29417 0.42386 0.0
C531 C 0.70806 0.31835 0.43996 0.0
C532 C 0.72797 0.31452 0.46445 0.0
C533 C 0.73686 0.28685 0.47308 0.0
C534 C 0.72536 0.2633 0.45734 0.0
C535 C 0.70643 0.26668 0.43278 0.0
C536 C 0.69975 0.23809 0.41743 0.0
C537 C 0.66779 0.2306 0.42109 0.0
C538 C 0.70875 0.23817 0.38292 0.0
C539 C 0.71853 0.21815 0.4367 0.0
C540 C 0.73229 0.23305 0.46026 0.0
C541 C 0.75125 0.21953 0.4807 0.0
C542 C 0.75736 0.19038 0.4762 0.0
C543 C 0.74525 0.17525 0.45081 0.0
C544 C 0.72499 0.18908 0.43132 0.0
H545 H 0.19174 0.74586 0.46652 0.0
H546 H 0.17614 0.76926 0.36996 0.0
H547 H 0.22822 0.77062 0.3606 0.0
H548 H 0.25504 0.79316 0.47504 0.0
H549 H 0.27494 0.7687 0.49931 0.0
H550 H 0.23622 0.76944 0.50121 0.0
H551 H 0.23406 0.71597 0.4904 0.0
H552 H 0.27244 0.71216 0.48598 0.0
H553 H 0.24892 0.7014 0.45494 0.0
H554 H 0.28072 0.76091 0.35919 0.0
H555 H 0.33258 0.75789 0.36924 0.0
H556 H 0.31616 0.74768 0.46822 0.0
C557 C 0.19929 0.75239 0.44376 0.0
C558 C 0.17981 0.75727 0.41891 0.0
C559 C 0.19059 0.7654 0.38935 0.0
C560 C 0.22017 0.7659 0.38367 0.0
C561 C 0.23875 0.75905 0.40802 0.0
C562 C 0.22892 0.75381 0.43781 0.0
C563 C 0.25387 0.74811 0.45985 0.0
C564 C 0.25502 0.77123 0.4854 0.0
C565 C 0.25216 0.71763 0.47366 0.0
C566 C 0.27914 0.75069 0.4377 0.0
C567 C 0.26967 0.75606 0.40774 0.0
C568 C 0.28849 0.75751 0.38269 0.0
C569 C 0.31798 0.75539 0.38867 0.0
C570 C 0.32851 0.75289 0.4196 0.0
C571 C 0.30876 0.74961 0.44436 0.0
H572 H 0.24162 0.8247 0.88815 0.0
H573 H 0.25424 0.83197 0.98795 0.0
H574 H 0.23802 0.78175 0.99452 0.0
H575 H 0.17929 0.77101 0.89083 0.0
H576 H 0.19312 0.75306 0.85673 0.0
H577 H 0.19765 0.79135 0.86122 0.0
H578 H 0.25247 0.78459 0.85378 0.0
H579 H 0.24844 0.7463 0.85057 0.0
H580 H 0.27204 0.76111 0.87978 0.0
H581 H 0.23034 0.72857 0.98876 0.0
H582 H 0.22666 0.67796 0.9721 0.0
H583 H 0.22146 0.70509 0.87564 0.0
C584 C 0.23961 0.81615 0.91151 0.0
C585 C 0.24914 0.83199 0.93754 0.0
C586 C 0.24683 0.82009 0.96775 0.0
C587 C 0.23774 0.79157 0.97166 0.0
C588 C 0.23079 0.77564 0.94513 0.0
C589 C 0.2309 0.78774 0.91568 0.0
C590 C 0.22612 0.76531 0.89062 0.0
C591 C 0.19733 0.77049 0.87387 0.0
C592 C 0.25127 0.76429 0.86735 0.0
C593 C 0.22517 0.73845 0.91035 0.0
C594 C 0.22737 0.74487 0.94174 0.0
C595 C 0.22858 0.72337 0.9643 0.0
C596 C 0.22719 0.69465 0.95454 0.0
C597 C 0.22503 0.68773 0.92251 0.0
C598 C 0.22367 0.70991 0.90024 0.0
H599 H 0.6954 0.2585 0.88571 0.0
H600 H 0.68541 0.27582 0.98444 0.0
H601 H 0.73789 0.26704 0.992 0.0
H602 H 0.75091 0.20339 0.89156 0.0
H603 H 0.76891 0.21622 0.85715 0.0
H604 H 0.73066 0.22074 0.86097 0.0
H605 H 0.73679 0.27556 0.85181 0.0
H606 H 0.77518 0.27135 0.84912 0.0
H607 H 0.76 0.29589 0.87722 0.0
H608 H 0.79174 0.2581 0.98834 0.0
H609 H 0.84166 0.24502 0.97345 0.0
H610 H 0.81491 0.23877 0.8768 0.0
C611 C 0.70397 0.25974 0.90917 0.0
C612 C 0.6864 0.26753 0.93455 0.0
C613 C 0.69853 0.26948 0.96476 0.0
C614 C 0.72817 0.26488 0.96926 0.0
C615 C 0.74512 0.25871 0.94339 0.0
C616 C 0.73333 0.25588 0.91398 0.0
C617 C 0.75605 0.25029 0.88968 0.0
C618 C 0.75136 0.22091 0.87393 0.0
C619 C 0.75705 0.27474 0.86554 0.0
C620 C 0.78255 0.25021 0.91001 0.0
C621 C 0.77599 0.25506 0.94096 0.0
C622 C 0.79713 0.25444 0.96413 0.0
C623 C 0.82542 0.2473 0.95548 0.0
C624 C 0.83203 0.24111 0.924 0.0
C625 C 0.81054 0.24378 0.901 0.0
H626 H 0.20538 0.78907 0.62628 0.0
H627 H 0.26494 0.83515 0.56715 0.0
H628 H 0.28464 0.78865 0.54826 0.0
H629 H 0.25077 0.73109 0.64723 0.0
H630 H 0.22229 0.70494 0.64615 0.0
H631 H 0.21421 0.74194 0.65484 0.0
H632 H 0.1773 0.74264 0.60933 0.0
H633 H 0.18587 0.70579 0.59995 0.0
H634 H 0.1889 0.73331 0.57056 0.0
H635 H 0.29701 0.7366 0.536 0.0
H636 H 0.30515 0.68412 0.53577 0.0
H637 H 0.2355 0.6732 0.60153 0.0
C638 C 0.22263 0.78938 0.60938 0.0
C639 C 0.23409 0.81544 0.59841 0.0
C640 C 0.25625 0.81518 0.57597 0.0
C641 C 0.26713 0.78894 0.56478 0.0
C642 C 0.25464 0.76349 0.57536 0.0
C643 C 0.23293 0.7636 0.59726 0.0
C644 C 0.22342 0.73356 0.60554 0.0
C645 C 0.22797 0.72753 0.6405 0.0
C646 C 0.19201 0.72854 0.59575 0.0
C647 C 0.2438 0.71626 0.58561 0.0
C648 C 0.26136 0.73386 0.56799 0.0
C649 C 0.28303 0.72267 0.5492 0.0
C650 C 0.28738 0.69282 0.54909 0.0
C651 C 0.27072 0.67481 0.56847 0.0
C652 C 0.24811 0.68656 0.58609 0.0
H653 H 0.69403 0.2377 0.63801 0.0
H654 H 0.67427 0.24422 0.53941 0.0
H655 H 0.7249 0.25695 0.52895 0.0
H656 H 0.74661 0.29557 0.64167 0.0
H657 H 0.76856 0.27633 0.66943 0.0
H658 H 0.73031 0.27075 0.66856 0.0
H659 H 0.73932 0.21596 0.66186 0.0
H660 H 0.77759 0.2215 0.66156 0.0
H661 H 0.76048 0.2033 0.62943 0.0
H662 H 0.77907 0.26664 0.52958 0.0
H663 H 0.8296 0.27733 0.54141 0.0
H664 H 0.81333 0.2616 0.63938 0.0
C665 C 0.70019 0.24246 0.61424 0.0
C666 C 0.68037 0.24017 0.58949 0.0
C667 C 0.68921 0.24618 0.55869 0.0
C668 C 0.71797 0.2531 0.55251 0.0
C669 C 0.73739 0.25368 0.57733 0.0
C670 C 0.7287 0.24892 0.60764 0.0
C671 C 0.75361 0.25004 0.63022 0.0
C672 C 0.74953 0.27464 0.65385 0.0
C673 C 0.75799 0.22096 0.64673 0.0
C674 C 0.77783 0.25615 0.60792 0.0
C675 C 0.76816 0.25814 0.57751 0.0
C676 C 0.78668 0.26478 0.55312 0.0
C677 C 0.81545 0.27068 0.56006 0.0
C678 C 0.82522 0.27011 0.59123 0.0
C679 C 0.80645 0.26174 0.61525 0.0
H680 H 0.61458 0.14042 1.00695 0.0
H681 H 0.64397 0.18222 0.09152 0.0
H682 H 0.6302 0.2295 0.06979 0.0
H683 H 0.63622 0.19497 0.95316 0.0
H684 H 0.6049 0.19193 0.9286 0.0
H685 H 0.61743 0.16121 0.95042 0.0
H686 H 0.56734 0.15614 0.97616 0.0
H687 H 0.55464 0.18658 0.95407 0.0
H688 H 0.55169 0.18663 0.99594 0.0
H689 H 0.61575 0.2727 0.03748 0.0
H690 H 0.59401 0.30778 1.00067 0.0
H691 H 0.57008 0.23793 0.93914 0.0
C692 C 0.61753 0.15952 0.02106 0.0
C693 C 0.62993 0.15763 0.05109 0.0
C694 C 0.63389 0.18309 0.06876 0.0
C695 C 0.62647 0.2101 0.05644 0.0
C696 C 0.61462 0.21131 0.02661 0.0
C697 C 0.6095 0.18665 1.00943 0.0
C698 C 0.59535 0.19387 0.9785 0.0
C699 C 0.61463 0.18496 0.95105 0.0
C700 C 0.56548 0.17998 0.97604 0.0
C701 C 0.59318 0.22636 0.98106 0.0
C702 C 0.60507 0.23606 1.00866 0.0
C703 C 0.60619 0.26533 0.01591 0.0
C704 C 0.59401 0.2851 0.99485 0.0
C705 C 0.58064 0.27544 0.96718 0.0
C706 C 0.58041 0.24576 0.96013 0.0
H707 H 0.23137 0.59993 0.96811 0.0
H708 H 0.27545 0.51838 0.95747 0.0
H709 H 0.3112 0.53306 0.99647 0.0
H710 H 0.30333 0.64065 0.97293 0.0
H711 H 0.28542 0.66762 0.99616 0.0
H712 H 0.26598 0.64779 0.96698 0.0
H713 H 0.2299 0.63553 0.0134 0.0
H714 H 0.25313 0.6524 0.04147 0.0
H715 H 0.24356 0.6151 0.04597 0.0
H716 H 0.34336 0.55724 0.03696 0.0
H717 H 0.3699 0.59042 0.07217 0.0
H718 H 0.30781 0.65766 0.05126 0.0
C719 C 0.24925 0.58589 0.97274 0.0
C720 C 0.25086 0.55855 0.95865 0.0
C721 C 0.27355 0.53964 0.96762 0.0
C722 C 0.29416 0.54775 0.98981 0.0
C723 C 0.29241 0.57519 1.00256 0.0
C724 C 0.27091 0.59424 0.99379 0.0
C725 C 0.2752 0.62319 1.00928 0.0
C726 C 0.28289 0.6462 0.98496 0.0
C727 C 0.24888 0.63206 0.02869 0.0
C728 C 0.30107 0.61678 0.02956 0.0
C729 C 0.31108 0.58913 0.02516 0.0
C730 C 0.33568 0.579 0.04053 0.0
C731 C 0.35063 0.59791 0.06048 0.0
C732 C 0.34104 0.62661 0.06441 0.0
C733 C 0.31581 0.63585 0.04885 0.0
H734 H 0.88806 0.35317 0.99782 0.0
H735 H 0.86576 0.30752 0.08256 0.0
H736 H 0.88661 0.26291 0.06072 0.0
H737 H 0.8726 0.29596 0.94488 0.0
H738 H 0.90221 0.3035 0.9192 0.0
H739 H 0.88607 0.33213 0.94152 0.0
H740 H 0.93571 0.34466 0.96541 0.0
H741 H 0.95203 0.31627 0.94289 0.0
H742 H 0.95632 0.31692 0.98465 0.0
H743 H 0.90687 0.22249 0.02824 0.0
H744 H 0.93012 0.19035 0.98959 0.0
H745 H 0.94181 0.26264 0.92731 0.0
C746 C 0.88786 0.33388 0.01196 0.0
C747 C 0.8753 0.33388 0.04198 0.0
C748 C 0.87543 0.30814 0.05964 0.0
C749 C 0.88706 0.28264 0.04734 0.0
C750 C 0.89879 0.28327 0.01748 0.0
C751 C 0.89968 0.30831 1.00018 0.0
C752 C 0.9137 0.30319 0.96874 0.0
C753 C 0.89237 0.30905 0.94201 0.0
C754 C 0.94107 0.32133 0.96523 0.0
C755 C 0.92072 0.27141 0.97116 0.0
C756 C 0.91148 0.26022 0.99926 0.0
C757 C 0.91444 0.23108 1.00633 0.0
C758 C 0.9275 0.21299 0.98427 0.0
C759 C 0.93764 0.22417 0.95575 0.0
C760 C 0.93435 0.25373 0.94914 0.0
H761 H 0.23315 0.93557 0.94329 0.0
H762 H 0.30496 0.92132 1.00592 0.0
H763 H 0.2725 0.8976 0.04364 0.0
H764 H 0.17901 0.94944 1.00062 0.0
H765 H 0.15117 0.92989 0.98056 0.0
H766 H 0.1798 0.94627 0.95875 0.0
H767 H 0.19272 0.89693 0.9336 0.0
H768 H 0.16338 0.88099 0.95465 0.0
H769 H 0.19908 0.86633 0.9585 0.0
H770 H 0.23188 0.87718 0.07517 0.0
H771 H 0.18736 0.85554 0.09554 0.0
H772 H 0.1424 0.88012 0.01084 0.0
C773 C 0.24189 0.9274 0.96499 0.0
C774 C 0.27138 0.93016 0.97198 0.0
C775 C 0.28237 0.91914 1.00031 0.0
C776 C 0.2641 0.90582 0.02184 0.0
C777 C 0.23501 0.90346 0.01442 0.0
C778 C 0.22405 0.91345 0.98643 0.0
C779 C 0.19227 0.90693 0.98354 0.0
C780 C 0.17452 0.9348 0.98071 0.0
C781 C 0.18654 0.88659 0.95593 0.0
C782 C 0.18698 0.89208 0.01444 0.0
C783 C 0.21185 0.89062 0.03204 0.0
C784 C 0.21229 0.8781 0.06155 0.0
C785 C 0.18682 0.86607 0.07304 0.0
C786 C 0.16137 0.86625 0.05486 0.0
C787 C 0.16148 0.87976 0.02533 0.0
H788 H 0.59197 0.37405 0.50863 0.0
H789 H 0.62688 0.33084 0.4274 0.0
H790 H 0.61624 0.28375 0.45129 0.0
H791 H 0.61681 0.32566 0.56588 0.0
H792 H 0.58476 0.32703 0.58937 0.0
H793 H 0.59439 0.35741 0.56562 0.0
H794 H 0.54467 0.35576 0.53901 0.0
H795 H 0.5349 0.32493 0.56205 0.0
H796 H 0.533 0.32308 0.5202 0.0
H797 H 0.60557 0.2409 0.48687 0.0
H798 H 0.58765 0.20643 0.52643 0.0
H799 H 0.55632 0.27757 0.58224 0.0
C800 C 0.59676 0.35469 0.49554 0.0
C801 C 0.61034 0.35626 0.46611 0.0
C802 C 0.61636 0.33035 0.44985 0.0
C803 C 0.61061 0.30341 0.46339 0.0
C804 C 0.59816 0.30265 0.49294 0.0
C805 C 0.59055 0.32765 0.5084 0.0
C806 C 0.57666 0.321 0.5395 0.0
C807 C 0.59422 0.33352 0.56669 0.0
C808 C 0.54544 0.33188 0.54018 0.0
C809 C 0.57795 0.2884 0.53939 0.0
C810 C 0.59086 0.27817 0.51258 0.0
C811 C 0.59517 0.24873 0.50777 0.0
C812 C 0.5852 0.22932 0.53046 0.0
C813 C 0.57089 0.23938 0.55744 0.0
C814 C 0.56739 0.26932 0.56191 0.0
H815 H 0.13901 0.62269 0.50171 0.0
H816 H 0.18962 0.65271 0.42351 0.0
H817 H 0.23301 0.63038 0.44667 0.0
H818 H 0.19188 0.63397 0.56035 0.0
H819 H 0.18314 0.60212 0.58226 0.0
H820 H 0.1559 0.61974 0.55919 0.0
H821 H 0.1462 0.57209 0.52949 0.0
H822 H 0.17317 0.55434 0.55282 0.0
H823 H 0.17565 0.55356 0.5109 0.0
H824 H 0.27168 0.60807 0.48077 0.0
H825 H 0.30138 0.58171 0.51946 0.0
H826 H 0.22512 0.56364 0.57365 0.0
C827 C 0.15912 0.62411 0.48917 0.0
C828 C 0.16087 0.63927 0.46065 0.0
C829 C 0.18764 0.64084 0.4451 0.0
C830 C 0.21247 0.62845 0.45825 0.0
C831 C 0.21011 0.61421 0.48674 0.0
C832 C 0.184 0.61149 0.50172 0.0
C833 C 0.18723 0.59493 0.532 0.0
C834 C 0.17905 0.61383 0.5601 0.0
C835 C 0.16952 0.56708 0.53124 0.0
C836 C 0.2192 0.58862 0.53168 0.0
C837 C 0.23212 0.6004 0.50567 0.0
C838 C 0.26172 0.59848 0.50099 0.0
C839 C 0.27843 0.58364 0.52312 0.0
C840 C 0.26547 0.57069 0.54936 0.0
C841 C 0.23549 0.57324 0.55365 0.0
H842 H 0.87853 0.14871 0.51503 0.0
H843 H 0.85129 0.19529 0.43242 0.0
H844 H 0.87034 0.24033 0.455 0.0
H845 H 0.86229 0.2038 0.57046 0.0
H846 H 0.89328 0.19678 0.5946 0.0
H847 H 0.87769 0.16814 0.57196 0.0
H848 H 0.92691 0.15847 0.54554 0.0
H849 H 0.94266 0.18681 0.56846 0.0
H850 H 0.94531 0.18766 0.52657 0.0
H851 H 0.88945 0.28112 0.48857 0.0
H852 H 0.91407 0.31284 0.52668 0.0
H853 H 0.93176 0.23915 0.58552 0.0
C854 C 0.87696 0.16831 0.50148 0.0
C855 C 0.86352 0.16842 0.47186 0.0
C856 C 0.8618 0.19456 0.45496 0.0
C857 C 0.87229 0.22033 0.46775 0.0
C858 C 0.88481 0.21958 0.49733 0.0
C859 C 0.88773 0.19413 0.51369 0.0
C860 C 0.9027 0.19901 0.54468 0.0
C861 C 0.8828 0.19148 0.57203 0.0
C862 C 0.93108 0.18198 0.5464 0.0
C863 C 0.90797 0.23113 0.54312 0.0
C864 C 0.89691 0.24274 0.51593 0.0
C865 C 0.8984 0.27219 0.50978 0.0
C866 C 0.91221 0.29005 0.53157 0.0
C867 C 0.92459 0.27835 0.55891 0.0
C868 C 0.92234 0.24856 0.56477 0.0
H869 H 0.36361 0.87602 0.52392 0.0
H870 H 0.3182 0.84649 0.4416 0.0
H871 H 0.27263 0.86524 0.46322 0.0
H872 H 0.3099 0.8608 0.57952 0.0
H873 H 0.31496 0.89286 0.60248 0.0
H874 H 0.34454 0.87791 0.58073 0.0
H875 H 0.35203 0.92615 0.55175 0.0
H876 H 0.32337 0.94156 0.57448 0.0
H877 H 0.32192 0.94311 0.53254 0.0
H878 H 0.23138 0.88463 0.49542 0.0
H879 H 0.19873 0.90943 0.53241 0.0
H880 H 0.2712 0.92892 0.5922 0.0
C881 C 0.34413 0.87395 0.51027 0.0
C882 C 0.34447 0.86 0.48097 0.0
C883 C 0.31853 0.85753 0.46384 0.0
C884 C 0.29248 0.86785 0.47608 0.0
C885 C 0.29278 0.88107 0.50526 0.0
C886 C 0.31803 0.88477 0.52182 0.0
C887 C 0.31257 0.90059 0.5522 0.0
C888 C 0.32098 0.88192 0.58039 0.0
C889 C 0.32841 0.92957 0.55275 0.0
C890 C 0.28029 0.90489 0.5503 0.0
C891 C 0.26922 0.89314 0.52323 0.0
C892 C 0.23985 0.89405 0.51658 0.0
C893 C 0.22143 0.90796 0.53776 0.0
C894 C 0.23251 0.92087 0.56507 0.0
C895 C 0.26226 0.9192 0.57142 0.0
H896 H 0.39075 0.86068 0.01849 0.0
H897 H 0.3502 0.80743 0.94807 0.0
H898 H 0.36214 0.76397 0.97866 0.0
H899 H 0.45006 0.81156 0.03389 0.0
H900 H 0.45112 0.81996 0.07491 0.0
H901 H 0.43881 0.84656 0.04743 0.0
H902 H 0.39131 0.85147 0.07852 0.0
H903 H 0.4033 0.82432 0.1056 0.0
H904 H 0.36965 0.82002 0.08526 0.0
H905 H 0.37646 0.72636 0.01838 0.0
H906 H 0.40055 0.69686 0.05893 0.0
H907 H 0.434 0.77426 0.10168 0.0
C908 C 0.38475 0.83982 1.00934 0.0
C909 C 0.36966 0.8374 0.98088 0.0
C910 C 0.36212 0.80977 0.96963 0.0
C911 C 0.36848 0.78498 0.98703 0.0
C912 C 0.38273 0.78815 0.01542 0.0
C913 C 0.39145 0.81481 0.02611 0.0
C914 C 0.40783 0.81219 0.05654 0.0
C915 C 0.43879 0.82321 0.05296 0.0
C916 C 0.39207 0.82794 0.08304 0.0
C917 C 0.40709 0.7799 0.06118 0.0
C918 C 0.39192 0.76646 0.03762 0.0
C919 C 0.38838 0.73665 0.03695 0.0
C920 C 0.40174 0.72009 0.06027 0.0
C921 C 0.41858 0.7334 0.08356 0.0
C922 C 0.42086 0.76366 0.08428 0.0
H923 H 0.74781 0.44607 0.05863 0.0
H924 H 0.81822 0.41506 1.00183 0.0
H925 H 0.78332 0.39474 0.96404 0.0
H926 H 0.70099 0.3847 0.04653 0.0
H927 H 0.66901 0.40665 0.04647 0.0
H928 H 0.70007 0.4178 0.06841 0.0
H929 H 0.69933 0.46653 0.03863 0.0
H930 H 0.66865 0.4549 0.01635 0.0
H931 H 0.70076 0.4665 0.99667 0.0
H932 H 0.74043 0.38016 0.93143 0.0
H933 H 0.69332 0.36559 0.91033 0.0
H934 H 0.65099 0.40482 0.98985 0.0
C935 C 0.75581 0.43472 0.0384 0.0
C936 C 0.78557 0.43163 0.03319 0.0
C937 C 0.79543 0.4169 1.00645 0.0
C938 C 0.77578 0.40567 0.98476 0.0
C939 C 0.74646 0.4094 0.99037 0.0
C940 C 0.73653 0.42311 0.01684 0.0
C941 C 0.70402 0.42366 0.01791 0.0
C942 C 0.69288 0.40721 0.04652 0.0
C943 C 0.69252 0.45474 0.01735 0.0
C944 C 0.69711 0.40804 0.98786 0.0
C945 C 0.72187 0.40043 0.97205 0.0
C946 C 0.72091 0.38592 0.94365 0.0
C947 C 0.694 0.378 0.93168 0.0
C948 C 0.66845 0.3842 0.94837 0.0
C949 C 0.67012 0.39996 0.97647 0.0
H950 H 0.16047 0.68711 0.96913 0.0
H951 H 0.10525 0.61371 0.9844 0.0
H952 H 0.0713 0.64494 0.01384 0.0
H953 H 0.15427 0.7194 0.04077 0.0
H954 H 0.1538 0.75585 0.0259 0.0
H955 H 0.17105 0.72782 1.00416 0.0
H956 H 0.13919 0.74098 0.95675 0.0
H957 H 0.12142 0.76859 0.97915 0.0
H958 H 0.10061 0.74076 0.96063 0.0
H959 H 0.04587 0.68338 0.04473 0.0
H960 H 0.02839 0.7263 0.07233 0.0
H961 H 0.10061 0.77537 0.0373 0.0
C962 C 0.14087 0.67782 0.97817 0.0
C963 C 0.13523 0.64815 0.97463 0.0
C964 C 0.10962 0.63649 0.98669 0.0
C965 C 0.09039 0.65405 1.0035 0.0
C966 C 0.09703 0.68317 1.00739 0.0
C967 C 0.12134 0.6951 0.99444 0.0
C968 C 0.12396 0.72677 1.00249 0.0
C969 C 0.15243 0.7328 0.01943 0.0
C970 C 0.12111 0.74536 0.973 0.0
C971 C 0.09811 0.73059 0.02366 0.0
C972 C 0.08265 0.70525 0.02561 0.0
C973 C 0.05773 0.70331 0.04328 0.0
C974 C 0.04807 0.7279 0.05905 0.0
C975 C 0.06339 0.7542 0.05755 0.0
C976 C 0.08881 0.75546 0.03954 0.0
H977 H 0.75118 0.10983 0.0791 0.0
H978 H 0.71413 0.04586 0.01772 0.0
H979 H 0.74801 0.06024 0.97607 0.0
H980 H 0.76687 0.16476 0.0182 0.0
H981 H 0.79989 0.17485 0.03723 0.0
H982 H 0.76997 0.16232 0.05998 0.0
H983 H 0.80247 0.12307 0.08453 0.0
H984 H 0.83246 0.13493 0.06162 0.0
H985 H 0.82106 0.09796 0.05958 0.0
H986 H 0.78954 0.07922 0.94281 0.0
H987 H 0.83335 0.10189 0.921 0.0
H988 H 0.84301 0.15145 1.0061 0.0
C989 C 0.74918 0.0998 0.05643 0.0
C990 C 0.72945 0.07734 0.05129 0.0
C991 C 0.72873 0.06355 0.02186 0.0
C992 C 0.74794 0.07152 0.99815 0.0
C993 C 0.76775 0.09325 1.00434 0.0
C994 C 0.76821 0.10739 0.03272 0.0
C995 C 0.79292 0.1283 0.03473 0.0
C996 C 0.78174 0.15939 0.03769 0.0
C997 C 0.81343 0.12058 0.06171 0.0
C998 C 0.80688 0.12316 1.00344 0.0
C999 C 0.79195 0.10322 0.98594 0.0
C1000 C 0.80127 0.09498 0.9563 0.0
C1001 C 0.82625 0.10778 0.94417 0.0
C1002 C 0.8418 0.12817 0.96193 0.0
C1003 C 0.83189 0.13569 0.99198 0.0
H1004 H 0.36859 0.67301 0.56674 0.0
H1005 H 0.41451 0.60108 0.52545 0.0
H1006 H 0.4396 0.63457 0.49014 0.0
H1007 H 0.35701 0.71099 0.49591 0.0
H1008 H 0.36176 0.74639 0.51228 0.0
H1009 H 0.34887 0.71752 0.53637 0.0
H1010 H 0.39007 0.72546 0.57575 0.0
H1011 H 0.40285 0.7549 0.55236 0.0
H1012 H 0.42671 0.7256 0.56219 0.0
H1013 H 0.45875 0.67492 0.45902 0.0
H1014 H 0.47357 0.72054 0.43527 0.0
H1015 H 0.41376 0.76716 0.4943 0.0
C1016 C 0.38453 0.66444 0.55086 0.0
C1017 C 0.39012 0.63449 0.54916 0.0
C1018 C 0.4103 0.62396 0.52734 0.0
C1019 C 0.42446 0.64279 0.5071 0.0
C1020 C 0.41786 0.67203 0.50871 0.0
C1021 C 0.39854 0.68293 0.53009 0.0
C1022 C 0.39485 0.71525 0.52618 0.0
C1023 C 0.36378 0.72298 0.51712 0.0
C1024 C 0.40419 0.73125 0.55589 0.0
C1025 C 0.41536 0.72082 0.49944 0.0
C1026 C 0.42826 0.69547 0.48978 0.0
C1027 C 0.44871 0.69487 0.46625 0.0
C1028 C 0.45688 0.72094 0.45281 0.0
C1029 C 0.4445 0.74733 0.46264 0.0
C1030 C 0.42304 0.74723 0.48587 0.0
H1031 H 0.76592 0.44804 0.46189 0.0
H1032 H 0.69433 0.42169 0.51959 0.0
H1033 H 0.72825 0.40982 0.56234 0.0
H1034 H 0.80998 0.39107 0.48226 0.0
H1035 H 0.84305 0.41109 0.48098 0.0
H1036 H 0.813 0.42225 0.45749 0.0
H1037 H 0.81476 0.473 0.48257 0.0
H1038 H 0.84497 0.46191 0.50611 0.0
H1039 H 0.81325 0.47651 0.52436 0.0
H1040 H 0.7703 0.39742 0.59706 0.0
H1041 H 0.81633 0.37928 0.618 0.0
H1042 H 0.86032 0.41093 0.53592 0.0
C1043 C 0.75728 0.44052 0.48383 0.0
C1044 C 0.72746 0.43626 0.4877 0.0
C1045 C 0.71709 0.42538 0.51632 0.0
C1046 C 0.73618 0.41877 0.54074 0.0
C1047 C 0.76554 0.42296 0.53602 0.0
C1048 C 0.77603 0.43331 0.5081 0.0
C1049 C 0.80855 0.43229 0.50725 0.0
C1050 C 0.81926 0.41302 0.48042 0.0
C1051 C 0.82112 0.46274 0.50495 0.0
C1052 C 0.81479 0.41897 0.53873 0.0
C1053 C 0.78977 0.4145 0.55535 0.0
C1054 C 0.79003 0.40108 0.58439 0.0
C1055 C 0.81636 0.39097 0.59618 0.0
C1056 C 0.84196 0.39376 0.57862 0.0
C1057 C 0.84117 0.40875 0.55001 0.0
H1058 H 0.1425 0.82051 0.56764 0.0
H1059 H 0.09127 0.89306 0.53613 0.0
H1060 H 0.06566 0.86124 0.49914 0.0
H1061 H 0.15134 0.78894 0.49109 0.0
H1062 H 0.15007 0.75243 0.50518 0.0
H1063 H 0.16322 0.78065 0.53012 0.0
H1064 H 0.12567 0.76637 0.5718 0.0
H1065 H 0.11245 0.73837 0.54662 0.0
H1066 H 0.08811 0.76537 0.5614 0.0
H1067 H 0.0446 0.82196 0.46786 0.0
H1068 H 0.02996 0.77772 0.44138 0.0
H1069 H 0.09815 0.73038 0.48803 0.0
C1070 C 0.12544 0.82946 0.55336 0.0
C1071 C 0.11815 0.85902 0.55515 0.0
C1072 C 0.09664 0.87037 0.53537 0.0
C1073 C 0.08217 0.8525 0.51427 0.0
C1074 C 0.09008 0.82355 0.51274 0.0
C1075 C 0.11135 0.81205 0.53151 0.0
C1076 C 0.11642 0.78043 0.52407 0.0
C1077 C 0.14708 0.77535 0.51188 0.0
C1078 C 0.11028 0.76152 0.55268 0.0
C1079 C 0.09423 0.77584 0.49853 0.0
C1080 C 0.0793 0.80109 0.49264 0.0
C1081 C 0.05653 0.80223 0.47172 0.0
C1082 C 0.04853 0.77691 0.45655 0.0
C1083 C 0.06369 0.75079 0.46157 0.0
C1084 C 0.08697 0.75028 0.48279 0.0
H1085 H 0.77304 0.08567 0.49685 0.0
H1086 H 0.72617 0.04696 0.4203 0.0
H1087 H 0.68035 0.06154 0.44418 0.0
H1088 H 0.72399 0.06461 0.55656 0.0
H1089 H 0.72699 0.09733 0.57889 0.0
H1090 H 0.75668 0.08528 0.5553 0.0
H1091 H 0.75706 0.13408 0.52529 0.0
H1092 H 0.72845 0.14622 0.55031 0.0
H1093 H 0.72386 0.14726 0.50867 0.0
H1094 H 0.63966 0.08015 0.47585 0.0
H1095 H 0.60642 0.104 0.51257 0.0
H1096 H 0.6789 0.1293 0.57011 0.0
C1097 C 0.75309 0.08093 0.48489 0.0
C1098 C 0.75309 0.06595 0.45627 0.0
C1099 C 0.72663 0.05904 0.44182 0.0
C1100 C 0.70047 0.06706 0.45532 0.0
C1101 C 0.70109 0.08164 0.48362 0.0
C1102 C 0.72663 0.0887 0.49824 0.0
C1103 C 0.72097 0.10412 0.52881 0.0
C1104 C 0.73287 0.08679 0.55653 0.0
C1105 C 0.73335 0.13474 0.52822 0.0
C1106 C 0.68836 0.10468 0.52887 0.0
C1107 C 0.67738 0.09153 0.50258 0.0
C1108 C 0.64795 0.0904 0.49664 0.0
C1109 C 0.62923 0.1039 0.51766 0.0
C1110 C 0.64001 0.11821 0.54433 0.0
C1111 C 0.66994 0.11799 0.55029 0.0
H1112 H 0.76739 0.114 0.32574 0.0
H1113 H 0.80476 0.02839 0.32643 0.0
H1114 H 0.77622 0.0162 0.27903 0.0
H1115 H 0.69711 0.09583 0.29978 0.0
H1116 H 0.69362 0.12755 0.27589 0.0
H1117 H 0.71594 0.12827 0.31021 0.0
H1118 H 0.75948 0.14458 0.27706 0.0
H1119 H 0.73724 0.14428 0.24272 0.0
H1120 H 0.77005 0.12353 0.24366 0.0
H1121 H 0.7397 0.01404 0.23097 0.0
H1122 H 0.70728 0.02452 0.186 0.0
H1123 H 0.69989 0.11288 0.21698 0.0
C1124 C 0.76973 0.09255 0.3162 0.0
C1125 C 0.78794 0.07194 0.33045 0.0
C1126 C 0.79062 0.04444 0.31635 0.0
C1127 C 0.77438 0.03734 0.28944 0.0
C1128 C 0.75608 0.0582 0.27648 0.0
C1129 C 0.7543 0.08541 0.28936 0.0
C1130 C 0.73474 0.10492 0.27073 0.0
C1131 C 0.70882 0.11471 0.29032 0.0
C1132 C 0.75137 0.13085 0.25777 0.0
C1133 C 0.72565 0.08469 0.24504 0.0
C1134 C 0.73753 0.0576 0.24872 0.0
C1135 C 0.73091 0.03543 0.22777 0.0
C1136 C 0.7126 0.04154 0.20213 0.0
C1137 C 0.70201 0.06977 0.19703 0.0
C1138 C 0.70815 0.09118 0.21948 0.0
H1139 H 0.39999 0.70374 0.22789 0.0
H1140 H 0.49045 0.69756 0.20509 0.0
H1141 H 0.50161 0.73193 0.24794 0.0
H1142 H 0.39726 0.77763 0.2483 0.0
H1143 H 0.37246 0.77213 0.27993 0.0
H1144 H 0.37235 0.74805 0.24707 0.0
H1145 H 0.38003 0.70453 0.28407 0.0
H1146 H 0.37992 0.72848 0.31704 0.0
H1147 H 0.40998 0.70459 0.31081 0.0
H1148 H 0.50134 0.76974 0.29424 0.0
H1149 H 0.49024 0.80108 0.33986 0.0
H1150 H 0.40045 0.7775 0.33203 0.0
C1151 C 0.42225 0.70952 0.23167 0.0
C1152 C 0.44429 0.69854 0.21235 0.0
C1153 C 0.47309 0.70641 0.21886 0.0
C1154 C 0.4796 0.72578 0.24333 0.0
C1155 C 0.4571 0.73666 0.26152 0.0
C1156 C 0.42905 0.72828 0.25607 0.0
C1157 C 0.40855 0.74168 0.2792 0.0
C1158 C 0.38636 0.76102 0.26263 0.0
C1159 C 0.39376 0.71844 0.29895 0.0
C1160 C 0.4292 0.75923 0.29857 0.0
C1161 C 0.45715 0.75649 0.28816 0.0
C1162 C 0.47949 0.77164 0.30261 0.0
C1163 C 0.47304 0.78941 0.32855 0.0
C1164 C 0.44459 0.79141 0.34013 0.0
C1165 C 0.42257 0.77635 0.32433 0.0
H1166 H 0.78147 0.46554 0.19669 0.0
H1167 H 0.80286 0.37476 0.18832 0.0
H1168 H 0.77455 0.36485 0.23582 0.0
H1169 H 0.78384 0.46947 0.28114 0.0
H1170 H 0.75405 0.4943 0.2832 0.0
H1171 H 0.77706 0.49414 0.24952 0.0
H1172 H 0.73265 0.48652 0.21399 0.0
H1173 H 0.70954 0.48625 0.2476 0.0
H1174 H 0.70936 0.4563 0.22089 0.0
H1175 H 0.74266 0.36486 0.28375 0.0
H1176 H 0.71256 0.37488 0.32973 0.0
H1177 H 0.71097 0.46559 0.30567 0.0
C1178 C 0.78064 0.44354 0.2049 0.0
C1179 C 0.79474 0.42093 0.18861 0.0
C1180 C 0.79264 0.39253 0.20037 0.0
C1181 C 0.77641 0.38667 0.22727 0.0
C1182 C 0.76234 0.40941 0.24222 0.0
C1183 C 0.76452 0.43732 0.23157 0.0
C1184 C 0.7471 0.45792 0.25157 0.0
C1185 C 0.76668 0.48027 0.26729 0.0
C1186 C 0.72325 0.47261 0.23236 0.0
C1187 C 0.73467 0.43724 0.27524 0.0
C1188 C 0.74372 0.40937 0.26942 0.0
C1189 C 0.73551 0.38661 0.28848 0.0
C1190 C 0.71828 0.39256 0.31456 0.0
C1191 C 0.70926 0.42107 0.32151 0.0
C1192 C 0.71721 0.44355 0.30106 0.0
H1193 H 0.05327 0.81717 0.2196 0.0
H1194 H 0.07635 0.74783 0.15727 0.0
H1195 H 0.06795 0.7124 0.19917 0.0
H1196 H 0.09355 0.79139 0.28063 0.0
H1197 H 0.06959 0.80282 0.31121 0.0
H1198 H 0.06964 0.82153 0.27463 0.0
H1199 H 0.01536 0.81291 0.26969 0.0
H1200 H 0.01404 0.79194 0.30493 0.0
H1201 H 0.0016 0.77671 0.26902 0.0
H1202 H 0.06051 0.68453 0.24981 0.0
H1203 H 0.0641 0.66834 0.30483 0.0
H1204 H 0.05692 0.75686 0.33505 0.0
C1205 C 0.05519 0.79442 0.21453 0.0
C1206 C 0.06325 0.78502 0.1845 0.0
C1207 C 0.06817 0.75527 0.17949 0.0
C1208 C 0.06368 0.735 0.20328 0.0
C1209 C 0.05567 0.74485 0.23271 0.0
C1210 C 0.05219 0.77398 0.23855 0.0
C1211 C 0.04851 0.77942 0.27315 0.0
C1212 C 0.0717 0.79998 0.28563 0.0
C1213 C 0.0181 0.79097 0.27957 0.0
C1214 C 0.05219 0.74915 0.28602 0.0
C1215 C 0.0547 0.72928 0.26226 0.0
C1216 C 0.05836 0.69996 0.26857 0.0
C1217 C 0.06023 0.69089 0.2999 0.0
C1218 C 0.05956 0.71113 0.32453 0.0
C1219 C 0.05568 0.74061 0.31721 0.0
H1220 H 0.21086 0.89207 0.72113 0.0
H1221 H 0.21152 0.98185 0.69416 0.0
H1222 H 0.2437 0.99262 0.73914 0.0
H1223 H 0.20854 0.90557 0.80469 0.0
H1224 H 0.2299 0.87407 0.81312 0.0
H1225 H 0.20693 0.8747 0.77929 0.0
H1226 H 0.25071 0.86228 0.74435 0.0
H1227 H 0.27383 0.86194 0.778 0.0
H1228 H 0.28199 0.88502 0.74549 0.0
H1229 H 0.28031 0.99127 0.78674 0.0
H1230 H 0.31098 0.97922 0.83263 0.0
H1231 H 0.28121 0.89105 0.82796 0.0
C1232 C 0.2176 0.91412 0.72452 0.0
C1233 C 0.2093 0.936 0.70341 0.0
C1234 C 0.21814 0.9646 0.70949 0.0
C1235 C 0.23636 0.97087 0.7351 0.0
C1236 C 0.24483 0.9484 0.75492 0.0
C1237 C 0.23502 0.92073 0.75008 0.0
C1238 C 0.24623 0.90015 0.77454 0.0
C1239 C 0.22142 0.88791 0.79406 0.0
C1240 C 0.26426 0.87593 0.7597 0.0
C1241 C 0.26469 0.92017 0.79364 0.0
C1242 C 0.2639 0.94798 0.78223 0.0
C1243 C 0.28059 0.9696 0.79595 0.0
C1244 C 0.29801 0.96258 0.822 0.0
C1245 C 0.29828 0.93429 0.83438 0.0
C1246 C 0.28144 0.91302 0.81957 0.0
H1247 H 0.61008 0.28743 0.81065 0.0
H1248 H 0.51967 0.29235 0.83342 0.0
H1249 H 0.50831 0.2627 0.78657 0.0
H1250 H 0.60074 0.29369 0.72692 0.0
H1251 H 0.63067 0.27005 0.71908 0.0
H1252 H 0.63043 0.29165 0.75392 0.0
H1253 H 0.6375 0.24564 0.7873 0.0
H1254 H 0.6375 0.22389 0.7526 0.0
H1255 H 0.61237 0.21643 0.78343 0.0
H1256 H 0.50885 0.22785 0.73762 0.0
H1257 H 0.52043 0.19777 0.69123 0.0
H1258 H 0.6101 0.2211 0.70066 0.0
C1259 C 0.58778 0.28249 0.80589 0.0
C1260 C 0.5657 0.29177 0.82619 0.0
C1261 C 0.53688 0.28512 0.81849 0.0
C1262 C 0.53033 0.26831 0.79188 0.0
C1263 C 0.55288 0.25893 0.77277 0.0
C1264 C 0.58097 0.26644 0.77934 0.0
C1265 C 0.60161 0.2545 0.75541 0.0
C1266 C 0.61675 0.27893 0.73779 0.0
C1267 C 0.62352 0.23389 0.7706 0.0
C1268 C 0.58103 0.23851 0.73444 0.0
C1269 C 0.55297 0.24094 0.74464 0.0
C1270 C 0.53074 0.22641 0.72928 0.0
C1271 C 0.53745 0.20943 0.70284 0.0
C1272 C 0.56602 0.2076 0.6916 0.0
C1273 C 0.58789 0.22229 0.70803 0.0
H1274 H 0.28099 0.60901 0.69763 0.0
H1275 H 0.30043 0.51847 0.68536 0.0
H1276 H 0.27003 0.50688 0.73107 0.0
H1277 H 0.28618 0.60712 0.78124 0.0
H1278 H 0.25847 0.63388 0.78652 0.0
H1279 H 0.28007 0.63413 0.75178 0.0
H1280 H 0.23384 0.63189 0.71801 0.0
H1281 H 0.2121 0.63131 0.75267 0.0
H1282 H 0.20861 0.60311 0.72407 0.0
H1283 H 0.23382 0.50587 0.77746 0.0
H1284 H 0.20398 0.51608 0.8242 0.0
H1285 H 0.2148 0.60751 0.80853 0.0
C1286 C 0.27881 0.58668 0.70436 0.0
C1287 C 0.29219 0.5645 0.68704 0.0
C1288 C 0.2895 0.53572 0.69749 0.0
C1289 C 0.27236 0.52897 0.72355 0.0
C1290 C 0.25875 0.55137 0.73955 0.0
C1291 C 0.2625 0.57971 0.73067 0.0
C1292 C 0.24755 0.60015 0.75284 0.0
C1293 C 0.26937 0.61998 0.76906 0.0
C1294 C 0.22413 0.61764 0.73588 0.0
C1295 C 0.23455 0.57901 0.77555 0.0
C1296 C 0.24065 0.55091 0.76733 0.0
C1297 C 0.22956 0.52786 0.7844 0.0
C1298 C 0.21271 0.53382 0.81101 0.0
C1299 C 0.20797 0.56252 0.82091 0.0
C1300 C 0.21856 0.58524 0.80228 0.0
H1301 H 0.92195 0.3162 0.73117 0.0
H1302 H 0.96421 0.26348 0.66228 0.0
H1303 H 0.97746 0.22797 0.70311 0.0
H1304 H 0.96797 0.29738 0.80009 0.0
H1305 H 0.9375 0.29599 0.8259 0.0
H1306 H 0.93733 0.32036 0.79321 0.0
H1307 H 0.88982 0.29834 0.77298 0.0
H1308 H 0.88935 0.2742 0.80566 0.0
H1309 H 0.88775 0.26005 0.76657 0.0
H1310 H 0.98184 0.19601 0.75156 0.0
H1311 H 0.97125 0.16822 0.79963 0.0
H1312 H 0.92033 0.23952 0.83428 0.0
C1313 C 0.93507 0.29773 0.72508 0.0
C1314 C 0.94431 0.29356 0.69412 0.0
C1315 C 0.95961 0.26826 0.68639 0.0
C1316 C 0.9666 0.24776 0.70939 0.0
C1317 C 0.95738 0.2526 0.73994 0.0
C1318 C 0.94162 0.27691 0.74766 0.0
C1319 C 0.93044 0.2752 0.78073 0.0
C1320 C 0.94412 0.29863 0.8012 0.0
C1321 C 0.89739 0.27704 0.7815 0.0
C1322 C 0.94113 0.2456 0.78999 0.0
C1323 C 0.95753 0.23325 0.76669 0.0
C1324 C 0.96914 0.2056 0.76996 0.0
C1325 C 0.96312 0.18999 0.79733 0.0
C1326 C 0.94494 0.20174 0.82047 0.0
C1327 C 0.93429 0.23004 0.81687 0.0
H1328 H 0.43305 0.01147 0.994 0.0
H1329 H 0.48235 0.00918 0.90848 0.0
H1330 H 0.52577 0.99532 0.93817 0.0
H1331 H 0.48608 0.04243 0.04069 0.0
H1332 H 0.47873 0.02187 0.07535 0.0
H1333 H 0.45054 0.02845 0.04741 0.0
H1334 H 0.44161 0.97371 0.04206 0.0
H1335 H 0.46938 0.96695 0.0705 0.0
H1336 H 0.47121 0.95011 0.03271 0.0
H1337 H 0.56508 0.98689 0.97767 0.0
H1338 H 0.5961 0.97813 0.02365 0.0
H1339 H 0.5216 0.9853 0.08379 0.0
C1340 C 0.45275 0.00701 0.98149 0.0
C1341 C 0.45427 0.01113 0.94887 0.0
C1342 C 0.48069 0.00593 0.93341 0.0
C1343 C 0.5055 0.99821 0.95011 0.0
C1344 C 0.50365 0.99554 0.98236 0.0
C1345 C 0.47785 0.99921 0.99789 0.0
C1346 C 0.48208 0.99598 0.03283 0.0
C1347 C 0.47387 0.02385 0.05008 0.0
C1348 C 0.46506 0.97015 0.04526 0.0
C1349 C 0.51426 0.99046 0.03447 0.0
C1350 C 0.52631 0.9904 1.00511 0.0
C1351 C 0.55582 0.9866 1.00077 0.0
C1352 C 0.57336 0.98197 0.02706 0.0
C1353 C 0.56138 0.98103 0.05735 0.0
C1354 C 0.53142 0.98569 0.06093 0.0
H1355 H 0.48852 0.44207 0.98823 0.0
H1356 H 0.50005 0.49166 0.90354 0.0
H1357 H 0.50744 0.5355 0.93473 0.0
H1358 H 0.45134 0.49487 0.03198 0.0
H1359 H 0.4692 0.48773 0.06851 0.0
H1360 H 0.46552 0.45947 0.04003 0.0
H1361 H 0.52065 0.45128 0.03988 0.0
H1362 H 0.52436 0.47892 0.06904 0.0
H1363 H 0.54416 0.48135 0.03309 0.0
H1364 H 0.50958 0.57482 0.97444 0.0
H1365 H 0.51749 0.60538 0.02078 0.0
H1366 H 0.50759 0.53077 0.08037 0.0
C1367 C 0.49334 0.46199 0.97632 0.0
C1368 C 0.49327 0.46342 0.94334 0.0
C1369 C 0.49952 0.49006 0.92872 0.0
C1370 C 0.50362 0.51516 0.94623 0.0
C1371 C 0.502 0.51337 0.97853 0.0
C1372 C 0.49794 0.48738 0.99356 0.0
C1373 C 0.49826 0.49154 0.0287 0.0
C1374 C 0.46936 0.48288 0.04314 0.0
C1375 C 0.52335 0.47478 0.04355 0.0
C1376 C 0.50285 0.52385 0.03089 0.0
C1377 C 0.50445 0.53604 1.00162 0.0
C1378 C 0.50853 0.56552 0.99752 0.0
C1379 C 0.51257 0.58282 0.024 0.0
C1380 C 0.51289 0.57057 0.05418 0.0
C1381 C 0.50714 0.54079 0.05759 0.0
H1382 H 0.06999 0.50585 0.95397 0.0
H1383 H 0.08335 0.41682 0.98042 0.0
H1384 H 0.04941 0.42275 0.02411 0.0
H1385 H 0.06075 0.53452 0.03516 0.0
H1386 H 0.03329 0.55965 0.02313 0.0
H1387 H 0.06139 0.54947 0.99641 0.0
H1388 H 0.02292 0.53381 0.95619 0.0
H1389 H 0.99473 0.5435 0.9829 0.0
H1390 H 0.9964 0.50755 0.96718 0.0
H1391 H 0.00972 0.4362 0.06034 0.0
H1392 H 0.97006 0.45807 0.09062 0.0
H1393 H 0.98249 0.53875 0.04181 0.0
C1394 C 0.06647 0.48801 0.9697 0.0
C1395 C 0.07944 0.46096 0.96416 0.0
C1396 C 0.07375 0.43775 0.98457 0.0
C1397 C 0.05446 0.44089 1.00935 0.0
C1398 C 0.04113 0.46747 0.01357 0.0
C1399 C 0.04717 0.49081 0.9947 0.0
C1400 C 0.02855 0.51648 1.00335 0.0
C1401 C 0.04711 0.54151 0.01523 0.0
C1402 C 0.00953 0.52587 0.97576 0.0
C1403 C 0.01071 0.50367 0.02942 0.0
C1404 C 0.01834 0.47537 0.03492 0.0
C1405 C 0.00385 0.45849 0.05663 0.0
C1406 C 0.98121 0.47098 0.07351 0.0
C1407 C 0.97336 0.50009 0.06872 0.0
C1408 C 0.98836 0.51656 0.04632 0.0
H1409 H 0.01818 0.06178 0.97553 0.0
H1410 H 0.00111 0.01027 0.89333 0.0
H1411 H 0.98796 0.96913 0.92668 0.0
H1412 H 0.05038 0.00749 0.01991 0.0
H1413 H 0.0349 0.01784 0.05675 0.0
H1414 H 0.04031 0.04445 0.02687 0.0
H1415 H 0.98638 0.05843 0.02853 0.0
H1416 H 0.98094 0.03238 0.05901 0.0
H1417 H 0.95956 0.03086 0.02397 0.0
H1418 H 0.98147 0.93211 0.96865 0.0
H1419 H 0.9745 0.90389 0.01687 0.0
H1420 H 0.99514 0.97928 0.07207 0.0
C1421 C 0.01069 0.04216 0.96465 0.0
C1422 C 0.01049 0.03923 0.93185 0.0
C1423 C 0.00129 0.01295 0.91842 0.0
C1424 C 0.99396 0.98942 0.93716 0.0
C1425 C 0.9957 0.99252 0.96938 0.0
C1426 C 0.0032 0.01838 0.98309 0.0
C1427 C 0.00393 0.01566 0.01832 0.0
C1428 C 0.03418 0.02172 0.0312 0.0
C1429 C 0.98135 0.03551 0.03334 0.0
C1430 C 0.99607 0.98421 0.02215 0.0
C1431 C 0.99162 0.9712 0.99362 0.0
C1432 C 0.98467 0.94212 0.99117 0.0
C1433 C 0.98113 0.92614 0.01866 0.0
C1434 C 0.98438 0.93932 0.0482 0.0
C1435 C 0.99249 0.96863 0.0498 0.0
H1436 H 0.46659 0.4969 0.5797 0.0
H1437 H 0.39313 0.48151 0.51959 0.0
H1438 H 0.4238 0.4889 0.4734 0.0
H1439 H 0.5027 0.55053 0.52985 0.0
H1440 H 0.53787 0.53668 0.5394 0.0
H1441 H 0.50913 0.53412 0.5673 0.0
H1442 H 0.51768 0.47907 0.57063 0.0
H1443 H 0.54588 0.48129 0.54209 0.0
H1444 H 0.51583 0.45766 0.53564 0.0
H1445 H 0.46352 0.49292 0.43383 0.0
H1446 H 0.50817 0.4997 0.40363 0.0
H1447 H 0.5562 0.51032 0.48954 0.0
C1448 C 0.45678 0.49571 0.55683 0.0
C1449 C 0.42736 0.48866 0.55333 0.0
C1450 C 0.41542 0.48736 0.52296 0.0
C1451 C 0.43279 0.49115 0.49655 0.0
C1452 C 0.46204 0.49629 0.5009 0.0
C1453 C 0.47385 0.49911 0.53028 0.0
C1454 C 0.5061 0.50345 0.52866 0.0
C1455 C 0.51444 0.53295 0.54209 0.0
C1456 C 0.52232 0.4789 0.54524 0.0
C1457 C 0.5107 0.50228 0.49374 0.0
C1458 C 0.48499 0.49812 0.47816 0.0
C1459 C 0.48372 0.49635 0.44579 0.0
C1460 C 0.50919 0.5 0.42885 0.0
C1461 C 0.53562 0.50525 0.44427 0.0
C1462 C 0.53641 0.50578 0.47718 0.0
H1463 H 0.98665 0.57346 0.48738 0.0
H1464 H 0.98686 0.52363 0.40203 0.0
H1465 H 0.00216 0.48043 0.43147 0.0
H1466 H 0.04867 0.53655 0.52512 0.0
H1467 H 0.03239 0.5383 0.56315 0.0
H1468 H 0.02473 0.56582 0.53472 0.0
H1469 H 0.97027 0.55597 0.54081 0.0
H1470 H 0.97776 0.52808 0.5688 0.0
H1471 H 0.95686 0.52009 0.53447 0.0
H1472 H 0.01352 0.44159 0.47104 0.0
H1473 H 0.02386 0.41122 0.51712 0.0
H1474 H 0.01454 0.48608 0.57682 0.0
C1475 C 0.99092 0.55368 0.47483 0.0
C1476 C 0.98607 0.55193 0.44237 0.0
C1477 C 0.99086 0.52543 0.42684 0.0
C1478 C 0.9994 0.50078 0.44339 0.0
C1479 C 0.00301 0.5029 0.47555 0.0
C1480 C 0.99927 0.52876 0.49108 0.0
C1481 C 0.00306 0.52486 0.52594 0.0
C1482 C 0.02874 0.54242 0.53793 0.0
C1483 C 0.97533 0.53271 0.54353 0.0
C1484 C 0.00914 0.49281 0.52758 0.0
C1485 C 0.00909 0.4805 0.4983 0.0
C1486 C 0.01378 0.45105 0.49409 0.0
C1487 C 0.01932 0.43387 0.52045 0.0
C1488 C 0.02009 0.44616 0.55067 0.0
C1489 C 0.01448 0.476 0.55405 0.0
H1490 H 0.93444 0.99312 0.49831 0.0
H1491 H 0.97224 0.02543 0.41319 0.0
H1492 H 0.01493 0.0415 0.44265 0.0
H1493 H 0.96439 0.0513 0.55091 0.0
H1494 H 0.9699 0.02624 0.58243 0.0
H1495 H 0.94078 0.02092 0.55528 0.0
H1496 H 0.95999 0.96963 0.54393 0.0
H1497 H 0.98961 0.97504 0.57032 0.0
H1498 H 0.99639 0.965 0.53042 0.0
H1499 H 0.05648 0.04701 0.47948 0.0
H1500 H 0.09095 0.04982 0.52346 0.0
H1501 H 0.02608 0.01656 0.58591 0.0
C1502 C 0.9511 0.00488 0.48627 0.0
C1503 C 0.94976 0.00875 0.45358 0.0
C1504 C 0.97256 0.02301 0.43831 0.0
C1505 C 0.99703 0.03189 0.45481 0.0
C1506 C 0.99836 0.0266 0.48674 0.0
C1507 C 0.9757 0.01419 0.50256 0.0
C1508 C 0.98327 0.01001 0.53678 0.0
C1509 C 0.96341 0.02821 0.55758 0.0
C1510 C 0.98225 0.97802 0.54588 0.0
C1511 C 0.01389 0.02127 0.53746 0.0
C1512 C 0.02222 0.03049 0.50825 0.0
C1513 C 0.05003 0.04029 0.50256 0.0
C1514 C 0.06957 0.0415 0.52753 0.0
C1515 C 0.06121 0.0332 0.55787 0.0
C1516 C 0.03301 0.02288 0.56284 0.0
H1517 H 0.51916 0.97565 0.43877 0.0
H1518 H 0.54759 0.91202 0.50602 0.0
H1519 H 0.54402 0.94855 0.54804 0.0
H1520 H 0.55638 0.03578 0.47085 0.0
H1521 H 0.52788 0.06123 0.46327 0.0
H1522 H 0.53212 0.03009 0.43864 0.0
H1523 H 0.47958 0.01466 0.44959 0.0
H1524 H 0.47498 0.04629 0.47328 0.0
H1525 H 0.46763 0.01127 0.48936 0.0
H1526 H 0.53829 0.99293 0.5825 0.0
H1527 H 0.52224 0.03812 0.60775 0.0
H1528 H 0.49793 0.07259 0.51784 0.0
C1529 C 0.52422 0.96931 0.46245 0.0
C1530 C 0.53352 0.94093 0.46919 0.0
C1531 C 0.54 0.93347 0.50042 0.0
C1532 C 0.53846 0.95422 0.52432 0.0
C1533 C 0.53031 0.98232 0.51662 0.0
C1534 C 0.52268 0.98966 0.48651 0.0
C1535 C 0.51351 0.02095 0.48443 0.0
C1536 C 0.53368 0.03801 0.46302 0.0
C1537 C 0.48206 0.02343 0.47354 0.0
C1538 C 0.51697 0.03017 0.51813 0.0
C1539 C 0.52713 0.00771 0.53627 0.0
C1540 C 0.53064 0.0107 0.56842 0.0
C1541 C 0.52197 0.03664 0.58255 0.0
C1542 C 0.50989 0.05923 0.56462 0.0
C1543 C 0.50833 0.05621 0.53189 0.0
H1544 H 0.47755 0.81489 0.16486 0.0
H1545 H 0.55191 0.76304 0.18974 0.0
H1546 H 0.58166 0.80669 0.19151 0.0
H1547 H 0.51056 0.85733 0.11328 0.0
H1548 H 0.49232 0.89056 0.1224 0.0
H1549 H 0.47514 0.85681 0.13021 0.0
H1550 H 0.46877 0.87093 0.1882 0.0
H1551 H 0.48561 0.90507 0.18051 0.0
H1552 H 0.49958 0.88194 0.21073 0.0
H1553 H 0.60503 0.85264 0.17865 0.0
H1554 H 0.62009 0.89819 0.15567 0.0
H1555 H 0.53045 0.92284 0.14341 0.0
C1556 C 0.49982 0.81287 0.17193 0.0
C1557 C 0.51242 0.78557 0.17716 0.0
C1558 C 0.54179 0.78373 0.18563 0.0
C1559 C 0.55886 0.80844 0.18683 0.0
C1560 C 0.54615 0.83489 0.17997 0.0
C1561 C 0.51716 0.8374 0.17327 0.0
C1562 C 0.5096 0.86778 0.16319 0.0
C1563 C 0.49613 0.86811 0.13034 0.0
C1564 C 0.48971 0.88229 0.18709 0.0
C1565 C 0.53914 0.88139 0.16335 0.0
C1566 C 0.55981 0.86214 0.17354 0.0
C1567 C 0.58898 0.86834 0.17178 0.0
C1568 C 0.59733 0.89462 0.15878 0.0
C1569 C 0.5766 0.91479 0.14787 0.0
C1570 C 0.54706 0.90818 0.15128 0.0
H1571 H 0.71249 0.50601 0.0811 0.0
H1572 H 0.74975 0.54428 0.16384 0.0
H1573 H 0.70417 0.57114 0.1732 0.0
H1574 H 0.67442 0.56983 0.05574 0.0
H1575 H 0.64459 0.5495 0.04058 0.0
H1576 H 0.68001 0.53379 0.04131 0.0
H1577 H 0.66039 0.4905 0.07277 0.0
H1578 H 0.62499 0.50623 0.07242 0.0
H1579 H 0.64183 0.49692 0.10894 0.0
H1580 H 0.6522 0.59063 0.17472 0.0
H1581 H 0.60184 0.60551 0.16506 0.0
H1582 H 0.60291 0.55783 0.07784 0.0
C1583 C 0.71108 0.52021 0.10109 0.0
C1584 C 0.73427 0.52317 0.12188 0.0
C1585 C 0.73202 0.54204 0.14762 0.0
C1586 C 0.70625 0.55714 0.15316 0.0
C1587 C 0.68346 0.55338 0.13233 0.0
C1588 C 0.68599 0.53578 0.10647 0.0
C1589 C 0.65903 0.53584 0.08694 0.0
C1590 C 0.66487 0.54798 0.05422 0.0
C1591 C 0.64579 0.50558 0.08519 0.0
C1592 C 0.64062 0.55597 0.10599 0.0
C1593 C 0.65472 0.56563 0.13231 0.0
C1594 C 0.64114 0.58351 0.1539 0.0
C1595 C 0.61253 0.59195 0.14813 0.0
C1596 C 0.598 0.58281 0.12074 0.0
C1597 C 0.61264 0.56471 0.09951 0.0
H1598 H 0.02384 0.69104 0.15742 0.0
H1599 H 0.94386 0.73927 0.15672 0.0
H1600 H 0.91672 0.69384 0.15882 0.0
H1601 H 0.00485 0.64054 0.10718 0.0
H1602 H 0.02236 0.61019 0.12534 0.0
H1603 H 0.03576 0.64584 0.13192 0.0
H1604 H 0.03058 0.63946 0.19161 0.0
H1605 H 0.01777 0.60334 0.18536 0.0
H1606 H 0.99658 0.62851 0.20766 0.0
H1607 H 0.89919 0.64487 0.14683 0.0
H1608 H 0.89191 0.59564 0.12823 0.0
H1609 H 0.9829 0.57766 0.14169 0.0
C1610 C 1.00062 0.69202 0.15897 0.0
C1611 C 0.98587 0.71852 0.15683 0.0
C1612 C 0.95554 0.71914 0.15859 0.0
C1613 C 0.93996 0.69343 0.15976 0.0
C1614 C 0.95513 0.66749 0.15996 0.0
C1615 C 0.98483 0.66659 0.1605 0.0
C1616 C 0.99596 0.63609 0.1572 0.0
C1617 C 0.01589 0.63301 0.12872 0.0
C1618 C 0.01111 0.62627 0.18725 0.0
C1619 C 0.96798 0.62024 0.1524 0.0
C1620 C 0.94468 0.63868 0.15446 0.0
C1621 C 0.91708 0.62992 0.1465 0.0
C1622 C 0.91318 0.60167 0.13602 0.0
C1623 C 0.93672 0.58222 0.13387 0.0
C1624 C 0.96434 0.59171 0.14295 0.0
H1625 H 0.77836 0.96214 0.13732 0.0
H1626 H 0.80598 0.04498 0.17278 0.0
H1627 H 0.85551 0.02635 0.17799 0.0
H1628 H 0.82908 0.91655 0.18451 0.0
H1629 H 0.83487 0.89207 0.15251 0.0
H1630 H 0.80075 0.9102 0.15664 0.0
H1631 H 0.80536 0.93034 0.10058 0.0
H1632 H 0.83934 0.91228 0.09629 0.0
H1633 H 0.83688 0.95058 0.09016 0.0
H1634 H 0.90279 1.00146 0.17204 0.0
H1635 H 0.94431 0.97243 0.15425 0.0
H1636 H 0.88655 0.90545 0.12313 0.0
C1637 C 0.79467 0.97608 0.14706 0.0
C1638 C 0.78828 0.00497 0.15483 0.0
C1639 C 0.81036 0.02277 0.16672 0.0
C1640 C 0.83854 0.01232 0.16994 0.0
C1641 C 0.84432 0.98396 0.16129 0.0
C1642 C 0.82298 0.96602 0.1502 0.0
C1643 C 0.8354 0.93753 0.13929 0.0
C1644 C 0.82437 0.91261 0.15945 0.0
C1645 C 0.82886 0.93241 0.10453 0.0
C1646 C 0.86716 0.94266 0.14483 0.0
C1647 C 0.87179 0.96941 0.15803 0.0
C1648 C 0.89942 0.9802 0.16244 0.0
C1649 C 0.92287 0.9636 0.15234 0.0
C1650 C 0.91855 0.93651 0.13806 0.0
C1651 C 0.8904 0.92564 0.13503 0.0
H1652 H 0.60047 0.60422 0.40543 0.0
H1653 H 0.54615 0.55873 0.3401 0.0
H1654 H 0.52593 0.60495 0.32171 0.0
H1655 H 0.55027 0.65056 0.43008 0.0
H1656 H 0.57265 0.68186 0.4345 0.0
H1657 H 0.58832 0.64656 0.43697 0.0
H1658 H 0.62406 0.65904 0.39288 0.0
H1659 H 0.60879 0.69471 0.39057 0.0
H1660 H 0.61063 0.67246 0.3562 0.0
H1661 H 0.5039 0.65378 0.31935 0.0
H1662 H 0.48444 0.70236 0.33027 0.0
H1663 H 0.5537 0.71736 0.39587 0.0
C1664 C 0.58555 0.60425 0.38603 0.0
C1665 C 0.57533 0.57808 0.37357 0.0
C1666 C 0.55466 0.57866 0.34934 0.0
C1667 C 0.54301 0.60481 0.33887 0.0
C1668 C 0.55239 0.63024 0.35274 0.0
C1669 C 0.57361 0.63026 0.37541 0.0
C1670 C 0.57714 0.66005 0.3894 0.0
C1671 C 0.57176 0.65971 0.42482 0.0
C1672 C 0.60693 0.67229 0.3818 0.0
C1673 C 0.55364 0.67635 0.37226 0.0
C1674 C 0.53981 0.65884 0.35096 0.0
C1675 C 0.51512 0.66796 0.33522 0.0
C1676 C 0.50412 0.69549 0.34166 0.0
C1677 C 0.51793 0.71367 0.36342 0.0
C1678 C 0.54333 0.70419 0.37835 0.0
H1679 H 0.88659 0.5643 0.43078 0.0
H1680 H 0.9025 0.60532 0.34182 0.0
H1681 H 0.85334 0.5922 0.32433 0.0
H1682 H 0.84741 0.50491 0.402 0.0
H1683 H 0.82255 0.50395 0.43411 0.0
H1684 H 0.85828 0.51765 0.43992 0.0
H1685 H 0.83751 0.56565 0.46087 0.0
H1686 H 0.80165 0.55205 0.45561 0.0
H1687 H 0.8119 0.58551 0.43765 0.0
H1688 H 0.80288 0.57119 0.3159 0.0
H1689 H 0.75554 0.54702 0.31843 0.0
H1690 H 0.77356 0.52166 0.41385 0.0
C1691 C 0.87974 0.57055 0.40759 0.0
C1692 C 0.89837 0.5856 0.3875 0.0
C1693 C 0.88848 0.59382 0.35755 0.0
C1694 C 0.86067 0.58637 0.34744 0.0
C1695 C 0.843 0.57107 0.36775 0.0
C1696 C 0.85215 0.56354 0.39733 0.0
C1697 C 0.82938 0.54701 0.41478 0.0
C1698 C 0.84006 0.51659 0.42318 0.0
C1699 C 0.81953 0.56356 0.44395 0.0
C1700 C 0.80597 0.54606 0.39034 0.0
C1701 C 0.81411 0.55991 0.36329 0.0
C1702 C 0.79621 0.56061 0.33713 0.0
C1703 C 0.76937 0.54681 0.33876 0.0
C1704 C 0.76066 0.53272 0.36643 0.0
C1705 C 0.77929 0.53258 0.39247 0.0
H1706 H 0.90448 0.89428 0.39955 0.0
H1707 H 0.97535 0.94734 0.3686 0.0
H1708 H 0.00238 0.90383 0.35355 0.0
H1709 H 0.94434 0.84191 0.43418 0.0
H1710 H 0.92283 0.81154 0.42262 0.0
H1711 H 0.9066 0.84659 0.42584 0.0
H1712 H 0.88883 0.84346 0.36869 0.0
H1713 H 0.90471 0.80813 0.36538 0.0
H1714 H 0.9142 0.83592 0.33804 0.0
H1715 H 0.02533 0.85608 0.3528 0.0
H1716 H 0.041 0.8059 0.35986 0.0
H1717 H 0.95448 0.78205 0.38652 0.0
C1718 C 0.92519 0.89671 0.38843 0.0
C1719 C 0.9379 0.92414 0.38529 0.0
C1720 C 0.96536 0.92649 0.37141 0.0
C1721 C 0.98081 0.90193 0.36265 0.0
C1722 C 0.96829 0.87514 0.36738 0.0
C1723 C 0.94088 0.87229 0.37929 0.0
C1724 C 0.93355 0.84084 0.38437 0.0
C1725 C 0.92642 0.83489 0.41879 0.0
C1726 C 0.90886 0.83154 0.36283 0.0
C1727 C 0.96165 0.82666 0.37496 0.0
C1728 C 0.98131 0.84694 0.36515 0.0
C1729 C 0.00987 0.83984 0.35928 0.0
C1730 C 0.0186 0.81129 0.36351 0.0
C1731 C 0.99874 0.78995 0.37268 0.0
C1732 C 0.96981 0.79772 0.3782 0.0
H1733 H 0.6267 0.89566 0.39669 0.0
H1734 H 0.5676 0.95694 0.35547 0.0
H1735 H 0.60841 0.98297 0.33199 0.0
H1736 H 0.67395 0.94428 0.42177 0.0
H1737 H 0.70639 0.92386 0.41513 0.0
H1738 H 0.67302 0.90549 0.42117 0.0
H1739 H 0.67906 0.8787 0.36863 0.0
H1740 H 0.71276 0.89683 0.3625 0.0
H1741 H 0.68482 0.89899 0.33342 0.0
H1742 H 0.65468 0.00773 0.32292 0.0
H1743 H 0.70277 0.02931 0.32883 0.0
H1744 H 0.73267 0.95246 0.37626 0.0
C1745 C 0.62243 0.91365 0.3813 0.0
C1746 C 0.59414 0.92396 0.37707 0.0
C1747 C 0.58917 0.94845 0.35826 0.0
C1748 C 0.61222 0.9633 0.34487 0.0
C1749 C 0.64007 0.95338 0.35058 0.0
C1750 C 0.64529 0.92891 0.36812 0.0
C1751 C 0.6771 0.92539 0.37497 0.0
C1752 C 0.68293 0.92474 0.41034 0.0
C1753 C 0.68915 0.89837 0.35891 0.0
C1754 C 0.68875 0.95251 0.36014 0.0
C1755 C 0.66712 0.96803 0.34559 0.0
C1756 C 0.67193 0.99543 0.33349 0.0
C1757 C 0.69926 0.00758 0.33707 0.0
C1758 C 0.72142 0.99238 0.35269 0.0
C1759 C 0.71632 0.96417 0.36344 0.0
H1760 H 0.4501 0.10853 0.92856 0.0
H1761 H 0.39584 0.09413 0.84767 0.0
H1762 H 0.40505 0.144 0.83011 0.0
H1763 H 0.4294 0.18011 0.9431 0.0
H1764 H 0.46483 0.19157 0.95461 0.0
H1765 H 0.4543 0.15472 0.96007 0.0
H1766 H 0.49836 0.13764 0.92806 0.0
H1767 H 0.50907 0.17445 0.92249 0.0
H1768 H 0.50366 0.1514 0.88922 0.0
H1769 H 0.41946 0.19681 0.82275 0.0
H1770 H 0.43903 0.24637 0.82558 0.0
H1771 H 0.48456 0.22354 0.91052 0.0
C1772 C 0.44059 0.11551 0.90677 0.0
C1773 C 0.4224 0.09731 0.8894 0.0
C1774 C 0.40973 0.10776 0.86149 0.0
C1775 C 0.41492 0.136 0.85127 0.0
C1776 C 0.43292 0.15338 0.86915 0.0
C1777 C 0.44568 0.14336 0.8962 0.0
C1778 C 0.46385 0.16612 0.9116 0.0
C1779 C 0.45239 0.17356 0.94427 0.0
C1780 C 0.49561 0.15684 0.9129 0.0
C1781 C 0.45928 0.19066 0.88911 0.0
C1782 C 0.44135 0.18312 0.86477 0.0
C1783 C 0.43367 0.20285 0.84163 0.0
C1784 C 0.44478 0.23093 0.84345 0.0
C1785 C 0.4634 0.23877 0.86816 0.0
C1786 C 0.47059 0.21825 0.89114 0.0
H1787 H 0.39457 0.40271 0.8849 0.0
H1788 H 0.44802 0.46492 0.83775 0.0
H1789 H 0.4048 0.4878 0.81511 0.0
H1790 H 0.33373 0.40083 0.82332 0.0
H1791 H 0.30725 0.39799 0.85375 0.0
H1792 H 0.34221 0.3817 0.85872 0.0
H1793 H 0.34878 0.40993 0.91028 0.0
H1794 H 0.31425 0.42662 0.90531 0.0
H1795 H 0.34578 0.44864 0.90993 0.0
H1796 H 0.35699 0.51098 0.80928 0.0
H1797 H 0.30806 0.53046 0.81763 0.0
H1798 H 0.28491 0.45267 0.86705 0.0
C1799 C 0.39714 0.42009 0.86836 0.0
C1800 C 0.4245 0.43186 0.86264 0.0
C1801 C 0.42717 0.45545 0.84203 0.0
C1802 C 0.40274 0.46854 0.82907 0.0
C1803 C 0.37583 0.45757 0.83668 0.0
C1804 C 0.37288 0.43346 0.85535 0.0
C1805 C 0.34169 0.42855 0.8638 0.0
C1806 C 0.33056 0.40061 0.849 0.0
C1807 C 0.3374 0.42846 0.89942 0.0
C1808 C 0.32788 0.45469 0.84883 0.0
C1809 C 0.34783 0.47091 0.83281 0.0
C1810 C 0.34097 0.49801 0.82083 0.0
C1811 C 0.31323 0.50901 0.82585 0.0
C1812 C 0.29273 0.49287 0.84259 0.0
C1813 C 0.29995 0.46507 0.85335 0.0
H1814 H 0.04279 0.40945 0.87594 0.0
H1815 H 0.13104 0.38224 0.86048 0.0
H1816 H 0.11381 0.33607 0.8401 0.0
H1817 H 0.02261 0.3475 0.9098 0.0
H1818 H 0.98646 0.34652 0.89466 0.0
H1819 H 0.00447 0.38037 0.89894 0.0
H1820 H 0.99587 0.39143 0.84043 0.0
H1821 H 0.97772 0.35745 0.83597 0.0
H1822 H 0.00778 0.36607 0.81133 0.0
H1823 H 0.08843 0.28987 0.83126 0.0
H1824 H 0.0574 0.24736 0.83682 0.0
H1825 H 0.98596 0.30281 0.86238 0.0
C1826 C 0.05856 0.3941 0.86764 0.0
C1827 C 0.08837 0.39982 0.86983 0.0
C1828 C 0.1081 0.37899 0.85848 0.0
C1829 C 0.09849 0.35248 0.84693 0.0
C1830 C 0.06908 0.34697 0.84683 0.0
C1831 C 0.04934 0.36728 0.85678 0.0
C1832 C 0.0195 0.3545 0.85928 0.0
C1833 C 0.00759 0.35739 0.89264 0.0
C1834 C 0.99901 0.36819 0.83532 0.0
C1835 C 0.02589 0.32346 0.85106 0.0
C1836 C 0.05441 0.31976 0.84293 0.0
C1837 C 0.06595 0.29259 0.83701 0.0
C1838 C 0.04814 0.26853 0.84034 0.0
C1839 C 0.01924 0.27175 0.85006 0.0
C1840 C 0.00785 0.29967 0.85455 0.0
H1841 H 0.22886 0.04191 0.87787 0.0
H1842 H 0.21009 0.96008 0.834 0.0
H1843 H 0.16154 0.97772 0.82014 0.0
H1844 H 0.16574 0.04812 0.91506 0.0
H1845 H 0.16177 0.08658 0.91153 0.0
H1846 H 0.19694 0.07064 0.91071 0.0
H1847 H 0.20681 0.09473 0.85735 0.0
H1848 H 0.17148 0.11083 0.85803 0.0
H1849 H 0.18232 0.08898 0.82535 0.0
H1850 H 0.11309 1.00027 0.81998 0.0
H1851 H 0.0682 0.02479 0.83567 0.0
H1852 H 0.11784 0.09165 0.88076 0.0
C1853 C 0.21489 0.02818 0.86426 0.0
C1854 C 0.22313 0.99979 0.85674 0.0
C1855 C 0.20406 0.98196 0.83989 0.0
C1856 C 0.17657 0.99189 0.83171 0.0
C1857 C 0.16857 0.01968 0.84056 0.0
C1858 C 0.18723 0.03763 0.85639 0.0
C1859 C 0.17208 0.06461 0.86762 0.0
C1860 C 0.17425 0.06763 0.90333 0.0
C1861 C 0.18388 0.09137 0.85109 0.0
C1862 C 0.14164 0.05828 0.85725 0.0
C1863 C 0.14021 0.03266 0.8409 0.0
C1864 C 0.11401 0.02069 0.83206 0.0
C1865 C 0.08864 0.03469 0.84113 0.0
C1866 C 0.08967 0.06023 0.85909 0.0
C1867 C 0.1165 0.07265 0.8662 0.0
H1868 H 0.51205 0.30336 0.61794 0.0
H1869 H 0.46926 0.27148 0.70041 0.0
H1870 H 0.44161 0.31735 0.70421 0.0
H1871 H 0.51457 0.38014 0.6369 0.0
H1872 H 0.50659 0.38983 0.59713 0.0
H1873 H 0.52569 0.35694 0.60554 0.0
H1874 H 0.48569 0.32803 0.57445 0.0
H1875 H 0.46828 0.36183 0.56646 0.0
H1876 H 0.44875 0.33328 0.58522 0.0
H1877 H 0.41766 0.36725 0.69683 0.0
H1878 H 0.39678 0.41268 0.67675 0.0
H1879 H 0.4514 0.40559 0.59498 0.0
C1880 C 0.49745 0.30639 0.63732 0.0
C1881 C 0.49315 0.2845 0.65938 0.0
C1882 C 0.473 0.28846 0.68363 0.0
C1883 C 0.45734 0.31437 0.68594 0.0
C1884 C 0.46179 0.33554 0.66337 0.0
C1885 C 0.48111 0.33146 0.63929 0.0
C1886 C 0.47956 0.35539 0.61567 0.0
C1887 C 0.5083 0.37152 0.61369 0.0
C1888 C 0.47003 0.34397 0.58357 0.0
C1889 C 0.45653 0.37385 0.63021 0.0
C1890 C 0.44675 0.36255 0.65794 0.0
C1891 C 0.42517 0.37619 0.67506 0.0
C1892 C 0.41324 0.40189 0.66328 0.0
C1893 C 0.42247 0.41328 0.63427 0.0
C1894 C 0.44435 0.39865 0.61776 0.0
H1895 H 0.07319 0.48222 0.63716 0.0
H1896 H 0.09775 0.39426 0.66033 0.0
H1897 H 0.14106 0.41186 0.68524 0.0
H1898 H 0.13688 0.49713 0.60682 0.0
H1899 H 0.13878 0.53437 0.61839 0.0
H1900 H 0.10446 0.51753 0.61374 0.0
H1901 H 0.09102 0.5315 0.67039 0.0
H1902 H 0.12556 0.54843 0.67521 0.0
H1903 H 0.11425 0.52097 0.70212 0.0
H1904 H 0.18644 0.43538 0.69581 0.0
H1905 H 0.2311 0.46193 0.68626 0.0
H1906 H 0.18165 0.53396 0.6502 0.0
C1907 C 0.08728 0.46652 0.64786 0.0
C1908 C 0.08124 0.43667 0.64661 0.0
C1909 C 0.10059 0.41729 0.66152 0.0
C1910 C 0.1257 0.42711 0.67582 0.0
C1911 C 0.1318 0.45635 0.67472 0.0
C1912 C 0.11319 0.47584 0.66096 0.0
C1913 C 0.12757 0.50475 0.65634 0.0
C1914 C 0.1269 0.51394 0.62179 0.0
C1915 C 0.11378 0.52777 0.67727 0.0
C1916 C 0.15778 0.49762 0.66718 0.0
C1917 C 0.15933 0.47002 0.67912 0.0
C1918 C 0.18544 0.45723 0.68715 0.0
C1919 C 0.21074 0.47241 0.68144 0.0
C1920 C 0.20976 0.49988 0.66728 0.0
C1921 C 0.18293 0.51315 0.66147 0.0
H1922 H 0.01305 0.21811 0.6567 0.0
H1923 H 0.097 0.25811 0.66294 0.0
H1924 H 0.11956 0.21009 0.66659 0.0
H1925 H 0.03027 0.15402 0.70832 0.0
H1926 H 0.00876 0.13069 0.68422 0.0
H1927 H 0.9989 0.16804 0.68873 0.0
H1928 H 0.99936 0.17412 0.62871 0.0
H1929 H 0.00954 0.13706 0.62399 0.0
H1930 H 0.03142 0.16497 0.6073 0.0
H1931 H 0.13328 0.15929 0.65868 0.0
H1932 H 0.13769 0.10939 0.64152 0.0
H1933 H 0.04469 0.10075 0.64358 0.0
C1934 C 0.03611 0.21684 0.65982 0.0
C1935 C 0.0533 0.24185 0.65954 0.0
C1936 C 0.08341 0.23925 0.66323 0.0
C1937 C 0.0964 0.21206 0.66544 0.0
C1938 C 0.07891 0.18778 0.66442 0.0
C1939 C 0.04937 0.1899 0.66215 0.0
C1940 C 0.03572 0.16058 0.65805 0.0
C1941 C 0.01733 0.15287 0.68653 0.0
C1942 C 0.01799 0.15912 0.62771 0.0
C1943 C 0.06236 0.14182 0.65628 0.0
C1944 C 0.08697 0.15791 0.66064 0.0
C1945 C 0.1142 0.14621 0.65636 0.0
C1946 C 0.11643 0.11754 0.64677 0.0
C1947 C 0.09154 0.10053 0.64167 0.0
C1948 C 0.06419 0.11287 0.64738 0.0
H1949 H 0.29625 0.02735 0.67667 0.0
H1950 H 0.28231 0.98079 0.59038 0.0
H1951 H 0.32454 0.00417 0.56715 0.0
H1952 H 0.32195 0.0939 0.64251 0.0
H1953 H 0.34934 0.09979 0.67156 0.0
H1954 H 0.31713 0.08051 0.68157 0.0
H1955 H 0.34768 0.03718 0.7006 0.0
H1956 H 0.37995 0.05649 0.69107 0.0
H1957 H 0.37379 0.02132 0.67472 0.0
H1958 H 0.36661 0.03248 0.55276 0.0
H1959 H 0.41201 0.05924 0.54987 0.0
H1960 H 0.40193 0.08612 0.64615 0.0
C1961 C 0.30235 0.02215 0.65298 0.0
C1962 C 0.28647 0.0022 0.63522 0.0
C1963 C 0.2947 0.99571 0.60434 0.0
C1964 C 0.31837 0.00912 0.59086 0.0
C1965 C 0.33362 0.02883 0.60874 0.0
C1966 C 0.32642 0.03503 0.63927 0.0
C1967 C 0.34784 0.05572 0.65365 0.0
C1968 C 0.33318 0.08417 0.66286 0.0
C1969 C 0.36323 0.04184 0.68166 0.0
C1970 C 0.36818 0.05994 0.62643 0.0
C1971 C 0.35907 0.04457 0.60068 0.0
C1972 C 0.37413 0.04449 0.57276 0.0
C1973 C 0.39986 0.0597 0.57138 0.0
C1974 C 0.41053 0.0744 0.59789 0.0
C1975 C 0.3941 0.07519 0.62554 0.0
loop_
_geom_bond_atom_site_label_1
_geom_bond_atom_site_label_2
_geom_bond_distance
_geom_bond_site_symmetry_2
_ccdc_geom_bond_type
O0 Tb1 2.292 . S
O0 C3 1.255 . S
Tb1 O0 2.292 . S
Tb1 O17 2.326 . S
Tb1 O19 2.500 . S
Tb1 O20 2.473 . S
Tb1 O23 2.324 . S
Eu2 O6 2.292 . S
Eu2 C7 2.852 . S
Eu2 O18 2.324 . S
Eu2 O22 2.326 . S
Eu2 O24 2.500 1_545 S
Eu2 O25 2.473 . S
C3 O0 1.255 . S
C3 O4 1.247 . S
O4 C3 1.247 . S
C5 O17 1.242 . S
C5 O18 1.258 . S
O6 Eu2 2.292 . S
O6 C8 1.255 . S
C7 Eu2 2.852 . S
C7 C11 1.503 1_545 S
C7 O24 1.273 1_545 S
C7 O25 1.257 . S
C8 O6 1.255 . S
C8 O9 1.247 . S
O9 C8 1.247 . S
C10 O22 1.242 . S
C10 O23 1.258 . S
C11 C7 1.503 1_565 S
C11 C12 1.379 1_565 S
C11 C16 1.392 . S
C12 C11 1.379 1_545 S
C12 C13 1.405 1_545 S
C12 H26 0.929 . S
C13 C12 1.405 1_565 S
C13 C14 1.386 . S
C14 C13 1.386 . S
C14 C15 1.399 . S
C14 H27 0.931 . S
C15 C14 1.399 . S
C15 C16 1.390 . S
C16 C11 1.392 . S
C16 C15 1.390 . S
C16 H28 0.929 . S
O17 Tb1 2.326 . S
O17 C5 1.242 . S
O18 Eu2 2.324 . S
O18 C5 1.258 . S
O19 Tb1 2.500 . S
O19 C21 1.273 . S
O20 Tb1 2.473 . S
O20 C21 1.257 . S
C21 O19 1.273 . S
C21 O20 1.257 . S
O22 Eu2 2.326 . S
O22 C10 1.242 . S
O23 Tb1 2.324 . S
O23 C10 1.258 . S
O24 Eu2 2.500 1_565 S
O24 C7 1.273 1_565 S
O25 Eu2 2.473 . S
O25 C7 1.257 . S
H26 C12 0.929 . S
H27 C14 0.931 . S
H28 C16 0.929 . S
O29 Tb30 2.292 . S
O29 C32 1.255 . S
Tb30 O29 2.292 . S
Tb30 O46 2.326 . S
Tb30 O48 2.500 . S
Tb30 O49 2.473 . S
Tb30 O52 2.324 . S
Eu31 O35 2.292 . S
Eu31 C36 2.852 . S
Eu31 O47 2.324 . S
Eu31 O51 2.326 . S
Eu31 O53 2.500 . S
Eu31 O54 2.473 . S
C32 O29 1.255 . S
C32 O33 1.247 . S
O33 C32 1.247 . S
C34 O46 1.242 . S
C34 O47 1.258 . S
O35 Eu31 2.292 . S
O35 C37 1.255 . S
C36 Eu31 2.852 . S
C36 C40 1.503 . S
C36 O53 1.273 . S
C36 O54 1.257 . S
C37 O35 1.255 . S
C37 O38 1.247 . S
O38 C37 1.247 . S
C39 O51 1.242 . S
C39 O52 1.258 . S
C40 C36 1.503 . S
C40 C41 1.379 . S
C40 C45 1.392 . S
C41 C40 1.379 . S
C41 C42 1.404 . S
C41 H55 0.929 . S
C42 C41 1.404 . S
C42 C43 1.389 . S
C43 C42 1.389 . S
C43 C44 1.399 . S
C43 H56 0.931 . S
C44 C43 1.399 . S
C44 C45 1.390 . S
C45 C40 1.392 . S
C45 C44 1.390 . S
C45 H57 0.929 . S
O46 Tb30 2.326 . S
O46 C34 1.242 . S
O47 Eu31 2.324 . S
O47 C34 1.258 . S
O48 Tb30 2.500 . S
O48 C50 1.273 . S
O49 Tb30 2.473 . S
O49 C50 1.257 . S
C50 O48 1.273 . S
C50 O49 1.257 . S
O51 Eu31 2.326 . S
O51 C39 1.242 . S
O52 Tb30 2.324 . S
O52 C39 1.258 . S
O53 Eu31 2.500 . S
O53 C36 1.273 . S
O54 Eu31 2.473 . S
O54 C36 1.257 . S
H55 C41 0.929 . S
H56 C43 0.931 . S
H57 C45 0.929 . S
O58 Tb59 2.292 . S
O58 C61 1.255 . S
Tb59 O58 2.292 . S
Tb59 O75 2.326 . S
Tb59 O77 2.500 . S
Tb59 O78 2.473 . S
Tb59 O81 2.324 . S
Eu60 O64 2.292 . S
Eu60 C65 2.852 . S
Eu60 O76 2.324 . S
Eu60 O80 2.326 . S
Eu60 O82 2.500 . S
Eu60 O83 2.473 . S
C61 O58 1.255 . S
C61 O62 1.247 . S
O62 C61 1.247 . S
C63 O75 1.242 . S
C63 O76 1.258 . S
O64 Eu60 2.292 . S
O64 C66 1.255 . S
C65 Eu60 2.852 . S
C65 C69 1.503 . S
C65 O82 1.273 . S
C65 O83 1.257 . S
C66 O64 1.255 . S
C66 O67 1.247 . S
O67 C66 1.247 . S
C68 O80 1.242 . S
C68 O81 1.258 . S
C69 C65 1.503 . S
C69 C70 1.379 . S
C69 C74 1.392 . S
C70 C69 1.379 . S
C70 C71 1.404 . S
C70 H84 0.929 . S
C71 C70 1.404 . S
C71 C72 1.389 . S
C72 C71 1.389 . S
C72 C73 1.399 . S
C72 H85 0.931 . S
C73 C72 1.399 . S
C73 C74 1.390 . S
C74 C69 1.392 . S
C74 C73 1.390 . S
C74 H86 0.929 . S
O75 Tb59 2.326 . S
O75 C63 1.242 . S
O76 Eu60 2.324 . S
O76 C63 1.258 . S
O77 Tb59 2.500 . S
O77 C79 1.273 . S
O78 Tb59 2.473 . S
O78 C79 1.257 . S
C79 O77 1.273 . S
C79 O78 1.257 . S
O80 Eu60 2.326 . S
O80 C68 1.242 . S
O81 Tb59 2.324 . S
O81 C68 1.258 . S
O82 Eu60 2.500 . S
O82 C65 1.273 . S
O83 Eu60 2.473 . S
O83 C65 1.257 . S
H84 C70 0.929 . S
H85 C72 0.931 . S
H86 C74 0.929 . S
O87 Tb88 2.292 . S
O87 C90 1.255 . S
Tb88 O87 2.292 . S
Tb88 O104 2.326 . S
Tb88 O106 2.500 . S
Tb88 O107 2.473 . S
Tb88 O110 2.324 . S
Eu89 O93 2.292 . S
Eu89 C94 2.852 . S
Eu89 O105 2.324 . S
Eu89 O109 2.326 . S
Eu89 O111 2.500 1_455 S
Eu89 O112 2.473 . S
C90 O87 1.255 . S
C90 O91 1.247 . S
O91 C90 1.247 . S
C92 O104 1.242 . S
C92 O105 1.258 . S
O93 Eu89 2.292 . S
O93 C95 1.255 . S
C94 Eu89 2.852 . S
C94 C98 1.503 1_455 S
C94 O111 1.273 1_455 S
C94 O112 1.257 . S
C95 O93 1.255 . S
C95 O96 1.247 . S
O96 C95 1.247 . S
C97 O109 1.242 . S
C97 O110 1.258 . S
C98 C94 1.503 1_655 S
C98 C99 1.379 1_655 S
C98 C103 1.392 . S
C99 C98 1.379 1_455 S
C99 C100 1.405 1_455 S
C99 H113 0.929 . S
C100 C99 1.405 1_655 S
C100 C101 1.386 . S
C101 C100 1.386 . S
C101 C102 1.399 . S
C101 H114 0.931 . S
C102 C101 1.399 . S
C102 C103 1.390 . S
C103 C98 1.392 . S
C103 C102 1.390 . S
C103 H115 0.929 . S
O104 Tb88 2.326 . S
O104 C92 1.242 . S
O105 Eu89 2.324 . S
O105 C92 1.258 . S
O106 Tb88 2.500 . S
O106 C108 1.273 . S
O107 Tb88 2.473 . S
O107 C108 1.257 . S
C108 O106 1.273 . S
C108 O107 1.257 . S
O109 Eu89 2.326 . S
O109 C97 1.242 . S
O110 Tb88 2.324 . S
O110 C97 1.258 . S
O111 Eu89 2.500 1_655 S
O111 C94 1.273 1_655 S
O112 Eu89 2.473 . S
O112 C94 1.257 . S
H113 C99 0.929 . S
H114 C101 0.931 . S
H115 C103 0.929 . S
O116 Tb117 2.292 . S
O116 C119 1.255 . S
Tb117 O116 2.292 . S
Tb117 O133 2.326 . S
Tb117 O135 2.500 . S
Tb117 O136 2.473 . S
Tb117 O139 2.324 . S
Eu118 O122 2.292 . S
Eu118 C123 2.852 . S
Eu118 O134 2.324 . S
Eu118 O138 2.326 . S
Eu118 O140 2.500 . S
Eu118 O141 2.473 . S
C119 O116 1.255 . S
C119 O120 1.247 . S
O120 C119 1.247 . S
C121 O133 1.242 . S
C121 O134 1.258 . S
O122 Eu118 2.292 . S
O122 C124 1.255 . S
C123 Eu118 2.852 . S
C123 C127 1.503 . S
C123 O140 1.273 . S
C123 O141 1.257 . S
C124 O122 1.255 . S
C124 O125 1.247 . S
O125 C124 1.247 . S
C126 O138 1.242 . S
C126 O139 1.258 . S
C127 C123 1.503 . S
C127 C128 1.379 . S
C127 C132 1.392 . S
C128 C127 1.379 . S
C128 C129 1.404 . S
C128 H142 0.929 . S
C129 C128 1.404 . S
C129 C130 1.389 . S
C130 C129 1.389 . S
C130 C131 1.399 . S
C130 H143 0.931 . S
C131 C130 1.399 . S
C131 C132 1.390 . S
C132 C127 1.392 . S
C132 C131 1.390 . S
C132 H144 0.929 . S
O133 Tb117 2.326 . S
O133 C121 1.242 . S
O134 Eu118 2.324 . S
O134 C121 1.258 . S
O135 Tb117 2.500 . S
O135 C137 1.273 . S
O136 Tb117 2.473 . S
O136 C137 1.257 . S
C137 O135 1.273 . S
C137 O136 1.257 . S
O138 Eu118 2.326 . S
O138 C126 1.242 . S
O139 Tb117 2.324 . S
O139 C126 1.258 . S
O140 Eu118 2.500 . S
O140 C123 1.273 . S
O141 Eu118 2.473 . S
O141 C123 1.257 . S
H142 C128 0.929 . S
H143 C130 0.931 . S
H144 C132 0.929 . S
O145 Tb146 2.292 . S
O145 C148 1.255 . S
Tb146 O145 2.292 . S
Tb146 O162 2.326 . S
Tb146 O164 2.500 . S
Tb146 O165 2.473 . S
Tb146 O168 2.324 . S
Eu147 O151 2.292 . S
Eu147 C152 2.852 . S
Eu147 O163 2.324 . S
Eu147 O167 2.326 . S
Eu147 O169 2.500 1_455 S
Eu147 O170 2.473 . S
C148 O145 1.255 . S
C148 O149 1.247 . S
O149 C148 1.247 . S
C150 O162 1.242 . S
C150 O163 1.258 . S
O151 Eu147 2.292 . S
O151 C153 1.255 . S
C152 Eu147 2.852 . S
C152 C156 1.503 1_455 S
C152 O169 1.273 1_455 S
C152 O170 1.257 . S
C153 O151 1.255 . S
C153 O154 1.247 . S
O154 C153 1.247 . S
C155 O167 1.242 . S
C155 O168 1.258 . S
C156 C152 1.503 1_655 S
C156 C157 1.379 1_655 S
C156 C161 1.392 . S
C157 C156 1.379 1_455 S
C157 C158 1.405 1_455 S
C157 H171 0.929 . S
C158 C157 1.405 1_655 S
C158 C159 1.386 . S
C159 C158 1.386 . S
C159 C160 1.399 . S
C159 H172 0.931 . S
C160 C159 1.399 . S
C160 C161 1.390 . S
C161 C156 1.392 . S
C161 C160 1.390 . S
C161 H173 0.929 . S
O162 Tb146 2.326 . S
O162 C150 1.242 . S
O163 Eu147 2.324 . S
O163 C150 1.258 . S
O164 Tb146 2.500 . S
O164 C166 1.273 . S
O165 Tb146 2.473 . S
O165 C166 1.257 . S
C166 O164 1.273 . S
C166 O165 1.257 . S
O167 Eu147 2.326 . S
O167 C155 1.242 . S
O168 Tb146 2.324 . S
O168 C155 1.258 . S
O169 Eu147 2.500 1_655 S
O169 C152 1.273 1_655 S
O170 Eu147 2.473 . S
O170 C152 1.257 . S
H171 C157 0.929 . S
H172 C159 0.931 . S
H173 C161 0.929 . S
O174 Tb175 2.292 . S
O174 C177 1.255 . S
Tb175 O174 2.292 . S
Tb175 O191 2.326 . S
Tb175 O193 2.500 . S
Tb175 O194 2.473 . S
Tb175 O197 2.324 . S
Eu176 O180 2.292 . S
Eu176 C181 2.852 . S
Eu176 O192 2.324 . S
Eu176 O196 2.326 . S
Eu176 O198 2.500 1_545 S
Eu176 O199 2.473 . S
C177 O174 1.255 . S
C177 O178 1.247 . S
O178 C177 1.247 . S
C179 O191 1.242 . S
C179 O192 1.258 . S
O180 Eu176 2.292 . S
O180 C182 1.255 . S
C181 Eu176 2.852 . S
C181 C185 1.503 1_545 S
C181 O198 1.273 1_545 S
C181 O199 1.257 . S
C182 O180 1.255 . S
C182 O183 1.247 . S
O183 C182 1.247 . S
C184 O196 1.242 . S
C184 O197 1.258 . S
C185 C181 1.503 1_565 S
C185 C186 1.379 1_565 S
C185 C190 1.392 . S
C186 C185 1.379 1_545 S
C186 C187 1.405 1_545 S
C186 H200 0.929 . S
C187 C186 1.405 1_565 S
C187 C188 1.386 . S
C188 C187 1.386 . S
C188 C189 1.399 . S
C188 H201 0.931 . S
C189 C188 1.399 . S
C189 C190 1.390 . S
C190 C185 1.392 . S
C190 C189 1.390 . S
C190 H202 0.929 . S
O191 Tb175 2.326 . S
O191 C179 1.242 . S
O192 Eu176 2.324 . S
O192 C179 1.258 . S
O193 Tb175 2.500 . S
O193 C195 1.273 . S
O194 Tb175 2.473 . S
O194 C195 1.257 . S
C195 O193 1.273 . S
C195 O194 1.257 . S
O196 Eu176 2.326 . S
O196 C184 1.242 . S
O197 Tb175 2.324 . S
O197 C184 1.258 . S
O198 Eu176 2.500 1_565 S
O198 C181 1.273 1_565 S
O199 Eu176 2.473 . S
O199 C181 1.257 . S
H200 C186 0.929 . S
H201 C188 0.931 . S
H202 C190 0.929 . S
O203 Tb204 2.292 . S
O203 C206 1.255 . S
Tb204 O203 2.292 . S
Tb204 O220 2.326 . S
Tb204 O222 2.500 . S
Tb204 O223 2.473 . S
Tb204 O226 2.324 . S
Eu205 O209 2.292 . S
Eu205 C210 2.852 . S
Eu205 O221 2.324 . S
Eu205 O225 2.326 . S
Eu205 O227 2.500 . S
Eu205 O228 2.473 . S
C206 O203 1.255 . S
C206 O207 1.247 . S
O207 C206 1.247 . S
C208 O220 1.242 . S
C208 O221 1.258 . S
O209 Eu205 2.292 . S
O209 C211 1.255 . S
C210 Eu205 2.852 . S
C210 C214 1.503 . S
C210 O227 1.273 . S
C210 O228 1.257 . S
C211 O209 1.255 . S
C211 O212 1.247 . S
O212 C211 1.247 . S
C213 O225 1.242 . S
C213 O226 1.258 . S
C214 C210 1.503 . S
C214 C215 1.379 . S
C214 C219 1.392 . S
C215 C214 1.379 . S
C215 C216 1.404 . S
C215 H229 0.929 . S
C216 C215 1.404 . S
C216 C217 1.389 . S
C217 C216 1.389 . S
C217 C218 1.399 . S
C217 H230 0.931 . S
C218 C217 1.399 . S
C218 C219 1.390 . S
C219 C214 1.392 . S
C219 C218 1.390 . S
C219 H231 0.929 . S
O220 Tb204 2.326 . S
O220 C208 1.242 . S
O221 Eu205 2.324 . S
O221 C208 1.258 . S
O222 Tb204 2.500 . S
O222 C224 1.273 . S
O223 Tb204 2.473 . S
O223 C224 1.257 . S
C224 O222 1.273 . S
C224 O223 1.257 . S
O225 Eu205 2.326 . S
O225 C213 1.242 . S
O226 Tb204 2.324 . S
O226 C213 1.258 . S
O227 Eu205 2.500 . S
O227 C210 1.273 . S
O228 Eu205 2.473 . S
O228 C210 1.257 . S
H229 C215 0.929 . S
H230 C217 0.931 . S
H231 C219 0.929 . S
O232 Tb233 2.292 . S
O232 C235 1.255 . S
Tb233 O232 2.292 . S
Tb233 O249 2.326 . S
Tb233 O251 2.500 . S
Tb233 O252 2.473 . S
Tb233 O255 2.324 . S
Eu234 O238 2.292 . S
Eu234 C239 2.852 . S
Eu234 O250 2.324 . S
Eu234 O254 2.326 . S
Eu234 O256 2.500 1_565 S
Eu234 O257 2.473 . S
C235 O232 1.255 . S
C235 O236 1.247 . S
O236 C235 1.247 . S
C237 O249 1.242 . S
C237 O250 1.258 . S
O238 Eu234 2.292 . S
O238 C240 1.255 . S
C239 Eu234 2.852 . S
C239 C243 1.503 1_565 S
C239 O256 1.273 1_565 S
C239 O257 1.257 . S
C240 O238 1.255 . S
C240 O241 1.247 . S
O241 C240 1.247 . S
C242 O254 1.242 . S
C242 O255 1.258 . S
C243 C239 1.503 1_545 S
C243 C244 1.379 1_545 S
C243 C248 1.392 . S
C244 C243 1.379 1_565 S
C244 C245 1.405 1_565 S
C244 H258 0.929 . S
C245 C244 1.405 1_545 S
C245 C246 1.386 . S
C246 C245 1.386 . S
C246 C247 1.399 . S
C246 H259 0.931 . S
C247 C246 1.399 . S
C247 C248 1.390 . S
C248 C243 1.392 . S
C248 C247 1.390 . S
C248 H260 0.929 . S
O249 Tb233 2.326 . S
O249 C237 1.242 . S
O250 Eu234 2.324 . S
O250 C237 1.258 . S
O251 Tb233 2.500 . S
O251 C253 1.273 . S
O252 Tb233 2.473 . S
O252 C253 1.257 . S
C253 O251 1.273 . S
C253 O252 1.257 . S
O254 Eu234 2.326 . S
O254 C242 1.242 . S
O255 Tb233 2.324 . S
O255 C242 1.258 . S
O256 Eu234 2.500 1_545 S
O256 C239 1.273 1_545 S
O257 Eu234 2.473 . S
O257 C239 1.257 . S
H258 C244 0.929 . S
H259 C246 0.931 . S
H260 C248 0.929 . S
O261 Tb262 2.292 . S
O261 C264 1.255 . S
Tb262 O261 2.292 . S
Tb262 O278 2.326 . S
Tb262 O280 2.500 . S
Tb262 O281 2.473 . S
Tb262 O284 2.324 . S
Eu263 O267 2.292 . S
Eu263 C268 2.852 . S
Eu263 O279 2.324 . S
Eu263 O283 2.326 . S
Eu263 O285 2.500 . S
Eu263 O286 2.473 . S
C264 O261 1.255 . S
C264 O265 1.247 . S
O265 C264 1.247 . S
C266 O278 1.242 . S
C266 O279 1.258 . S
O267 Eu263 2.292 . S
O267 C269 1.255 . S
C268 Eu263 2.852 . S
C268 C272 1.503 . S
C268 O285 1.273 . S
C268 O286 1.257 . S
C269 O267 1.255 . S
C269 O270 1.247 . S
O270 C269 1.247 . S
C271 O283 1.242 . S
C271 O284 1.258 . S
C272 C268 1.503 . S
C272 C273 1.379 . S
C272 C277 1.392 . S
C273 C272 1.379 . S
C273 C274 1.404 . S
C273 H287 0.929 . S
C274 C273 1.404 . S
C274 C275 1.389 . S
C275 C274 1.389 . S
C275 C276 1.399 . S
C275 H288 0.931 . S
C276 C275 1.399 . S
C276 C277 1.390 . S
C277 C272 1.392 . S
C277 C276 1.390 . S
C277 H289 0.929 . S
O278 Tb262 2.326 . S
O278 C266 1.242 . S
O279 Eu263 2.324 . S
O279 C266 1.258 . S
O280 Tb262 2.500 . S
O280 C282 1.273 . S
O281 Tb262 2.473 . S
O281 C282 1.257 . S
C282 O280 1.273 . S
C282 O281 1.257 . S
O283 Eu263 2.326 . S
O283 C271 1.242 . S
O284 Tb262 2.324 . S
O284 C271 1.258 . S
O285 Eu263 2.500 . S
O285 C268 1.273 . S
O286 Eu263 2.473 . S
O286 C268 1.257 . S
H287 C273 0.929 . S
H288 C275 0.931 . S
H289 C277 0.929 . S
O290 Tb291 2.292 . S
O290 C293 1.255 . S
Tb291 O290 2.292 . S
Tb291 O307 2.326 . S
Tb291 O309 2.500 . S
Tb291 O310 2.473 . S
Tb291 O313 2.324 . S
Eu292 O296 2.292 . S
Eu292 C297 2.852 . S
Eu292 O308 2.324 . S
Eu292 O312 2.326 . S
Eu292 O314 2.500 . S
Eu292 O315 2.473 . S
C293 O290 1.255 . S
C293 O294 1.247 . S
O294 C293 1.247 . S
C295 O307 1.242 . S
C295 O308 1.258 . S
O296 Eu292 2.292 . S
O296 C298 1.255 . S
C297 Eu292 2.852 . S
C297 C301 1.503 . S
C297 O314 1.273 . S
C297 O315 1.257 . S
C298 O296 1.255 . S
C298 O299 1.247 . S
O299 C298 1.247 . S
C300 O312 1.242 . S
C300 O313 1.258 . S
C301 C297 1.503 . S
C301 C302 1.379 . S
C301 C306 1.392 . S
C302 C301 1.379 . S
C302 C303 1.404 . S
C302 H316 0.929 . S
C303 C302 1.404 . S
C303 C304 1.389 . S
C304 C303 1.389 . S
C304 C305 1.399 . S
C304 H317 0.931 . S
C305 C304 1.399 . S
C305 C306 1.390 . S
C306 C301 1.392 . S
C306 C305 1.390 . S
C306 H318 0.929 . S
O307 Tb291 2.326 . S
O307 C295 1.242 . S
O308 Eu292 2.324 . S
O308 C295 1.258 . S
O309 Tb291 2.500 . S
O309 C311 1.273 . S
O310 Tb291 2.473 . S
O310 C311 1.257 . S
C311 O309 1.273 . S
C311 O310 1.257 . S
O312 Eu292 2.326 . S
O312 C300 1.242 . S
O313 Tb291 2.324 . S
O313 C300 1.258 . S
O314 Eu292 2.500 . S
O314 C297 1.273 . S
O315 Eu292 2.473 . S
O315 C297 1.257 . S
H316 C302 0.929 . S
H317 C304 0.931 . S
H318 C306 0.929 . S
O319 Tb320 2.292 . S
O319 C322 1.255 . S
Tb320 O319 2.292 . S
Tb320 O336 2.326 . S
Tb320 O338 2.500 . S
Tb320 O339 2.473 . S
Tb320 O342 2.324 . S
Eu321 O325 2.292 . S
Eu321 C326 2.852 . S
Eu321 O337 2.324 . S
Eu321 O341 2.326 . S
Eu321 O343 2.500 1_655 S
Eu321 O344 2.473 . S
C322 O319 1.255 . S
C322 O323 1.247 . S
O323 C322 1.247 . S
C324 O336 1.242 . S
C324 O337 1.258 . S
O325 Eu321 2.292 . S
O325 C327 1.255 . S
C326 Eu321 2.852 . S
C326 C330 1.503 1_655 S
C326 O343 1.273 1_655 S
C326 O344 1.257 . S
C327 O325 1.255 . S
C327 O328 1.247 . S
O328 C327 1.247 . S
C329 O341 1.242 . S
C329 O342 1.258 . S
C330 C326 1.503 1_455 S
C330 C331 1.379 1_455 S
C330 C335 1.392 . S
C331 C330 1.379 1_655 S
C331 C332 1.405 1_655 S
C331 H345 0.929 . S
C332 C331 1.405 1_455 S
C332 C333 1.386 . S
C333 C332 1.386 . S
C333 C334 1.399 . S
C333 H346 0.931 . S
C334 C333 1.399 . S
C334 C335 1.390 . S
C335 C330 1.392 . S
C335 C334 1.390 . S
C335 H347 0.929 . S
O336 Tb320 2.326 . S
O336 C324 1.242 . S
O337 Eu321 2.324 . S
O337 C324 1.258 . S
O338 Tb320 2.500 . S
O338 C340 1.273 . S
O339 Tb320 2.473 . S
O339 C340 1.257 . S
C340 O338 1.273 . S
C340 O339 1.257 . S
O341 Eu321 2.326 . S
O341 C329 1.242 . S
O342 Tb320 2.324 . S
O342 C329 1.258 . S
O343 Eu321 2.500 1_455 S
O343 C326 1.273 1_455 S
O344 Eu321 2.473 . S
O344 C326 1.257 . S
H345 C331 0.929 . S
H346 C333 0.931 . S
H347 C335 0.929 . S
O348 Tb349 2.292 . S
O348 C351 1.255 . S
Tb349 O348 2.292 . S
Tb349 O365 2.326 . S
Tb349 O367 2.500 . S
Tb349 O368 2.473 . S
Tb349 O371 2.324 . S
Eu350 O354 2.292 . S
Eu350 C355 2.852 . S
Eu350 O366 2.324 . S
Eu350 O370 2.326 . S
Eu350 O372 2.500 . S
Eu350 O373 2.473 . S
C351 O348 1.255 . S
C351 O352 1.247 . S
O352 C351 1.247 . S
C353 O365 1.242 . S
C353 O366 1.258 . S
O354 Eu350 2.292 . S
O354 C356 1.255 . S
C355 Eu350 2.852 . S
C355 C359 1.503 . S
C355 O372 1.273 . S
C355 O373 1.257 . S
C356 O354 1.255 . S
C356 O357 1.247 . S
O357 C356 1.247 . S
C358 O370 1.242 . S
C358 O371 1.258 . S
C359 C355 1.503 . S
C359 C360 1.379 . S
C359 C364 1.392 . S
C360 C359 1.379 . S
C360 C361 1.404 . S
C360 H374 0.929 . S
C361 C360 1.404 . S
C361 C362 1.389 . S
C362 C361 1.389 . S
C362 C363 1.399 . S
C362 H375 0.931 . S
C363 C362 1.399 . S
C363 C364 1.390 . S
C364 C359 1.392 . S
C364 C363 1.390 . S
C364 H376 0.929 . S
O365 Tb349 2.326 . S
O365 C353 1.242 . S
O366 Eu350 2.324 . S
O366 C353 1.258 . S
O367 Tb349 2.500 . S
O367 C369 1.273 . S
O368 Tb349 2.473 . S
O368 C369 1.257 . S
C369 O367 1.273 . S
C369 O368 1.257 . S
O370 Eu350 2.326 . S
O370 C358 1.242 . S
O371 Tb349 2.324 . S
O371 C358 1.258 . S
O372 Eu350 2.500 . S
O372 C355 1.273 . S
O373 Eu350 2.473 . S
O373 C355 1.257 . S
H374 C360 0.929 . S
H375 C362 0.931 . S
H376 C364 0.929 . S
O377 Tb378 2.292 . S
O377 C380 1.255 . S
Tb378 O377 2.292 . S
Tb378 O394 2.326 . S
Tb378 O396 2.500 . S
Tb378 O397 2.473 . S
Tb378 O400 2.324 . S
Eu379 O383 2.292 . S
Eu379 C384 2.852 . S
Eu379 O395 2.324 . S
Eu379 O399 2.326 . S
Eu379 O401 2.500 1_655 S
Eu379 O402 2.473 . S
C380 O377 1.255 . S
C380 O381 1.247 . S
O381 C380 1.247 . S
C382 O394 1.242 . S
C382 O395 1.258 . S
O383 Eu379 2.292 . S
O383 C385 1.255 . S
C384 Eu379 2.852 . S
C384 C388 1.503 1_655 S
C384 O401 1.273 1_655 S
C384 O402 1.257 . S
C385 O383 1.255 . S
C385 O386 1.247 . S
O386 C385 1.247 . S
C387 O399 1.242 . S
C387 O400 1.258 . S
C388 C384 1.503 1_455 S
C388 C389 1.379 1_455 S
C388 C393 1.392 . S
C389 C388 1.379 1_655 S
C389 C390 1.405 1_655 S
C389 H403 0.929 . S
C390 C389 1.405 1_455 S
C390 C391 1.386 . S
C391 C390 1.386 . S
C391 C392 1.399 . S
C391 H404 0.931 . S
C392 C391 1.399 . S
C392 C393 1.390 . S
C393 C388 1.392 . S
C393 C392 1.390 . S
C393 H405 0.929 . S
O394 Tb378 2.326 . S
O394 C382 1.242 . S
O395 Eu379 2.324 . S
O395 C382 1.258 . S
O396 Tb378 2.500 . S
O396 C398 1.273 . S
O397 Tb378 2.473 . S
O397 C398 1.257 . S
C398 O396 1.273 . S
C398 O397 1.257 . S
O399 Eu379 2.326 . S
O399 C387 1.242 . S
O400 Tb378 2.324 . S
O400 C387 1.258 . S
O401 Eu379 2.500 1_455 S
O401 C384 1.273 1_455 S
O402 Eu379 2.473 . S
O402 C384 1.257 . S
H403 C389 0.929 . S
H404 C391 0.931 . S
H405 C393 0.929 . S
O406 Tb407 2.292 . S
O406 C409 1.255 . S
Tb407 O406 2.292 . S
Tb407 O423 2.326 . S
Tb407 O425 2.500 . S
Tb407 O426 2.473 . S
Tb407 O429 2.324 . S
Eu408 O412 2.292 . S
Eu408 C413 2.852 . S
Eu408 O424 2.324 . S
Eu408 O428 2.326 . S
Eu408 O430 2.500 1_565 S
Eu408 O431 2.473 . S
C409 O406 1.255 . S
C409 O410 1.247 . S
O410 C409 1.247 . S
C411 O423 1.242 . S
C411 O424 1.258 . S
O412 Eu408 2.292 . S
O412 C414 1.255 . S
C413 Eu408 2.852 . S
C413 C417 1.503 1_565 S
C413 O430 1.273 1_565 S
C413 O431 1.257 . S
C414 O412 1.255 . S
C414 O415 1.247 . S
O415 C414 1.247 . S
C416 O428 1.242 . S
C416 O429 1.258 . S
C417 C413 1.503 1_545 S
C417 C418 1.379 1_545 S
C417 C422 1.392 . S
C418 C417 1.379 1_565 S
C418 C419 1.405 1_565 S
C418 H432 0.929 . S
C419 C418 1.405 1_545 S
C419 C420 1.386 . S
C420 C419 1.386 . S
C420 C421 1.399 . S
C420 H433 0.931 . S
C421 C420 1.399 . S
C421 C422 1.390 . S
C422 C417 1.392 . S
C422 C421 1.390 . S
C422 H434 0.929 . S
O423 Tb407 2.326 . S
O423 C411 1.242 . S
O424 Eu408 2.324 . S
O424 C411 1.258 . S
O425 Tb407 2.500 . S
O425 C427 1.273 . S
O426 Tb407 2.473 . S
O426 C427 1.257 . S
C427 O425 1.273 . S
C427 O426 1.257 . S
O428 Eu408 2.326 . S
O428 C416 1.242 . S
O429 Tb407 2.324 . S
O429 C416 1.258 . S
O430 Eu408 2.500 1_545 S
O430 C413 1.273 1_545 S
O431 Eu408 2.473 . S
O431 C413 1.257 . S
H432 C418 0.929 . S
H433 C420 0.931 . S
H434 C422 0.929 . S
O435 Tb436 2.292 . S
O435 C438 1.255 . S
Tb436 O435 2.292 . S
Tb436 O452 2.326 . S
Tb436 O454 2.500 . S
Tb436 O455 2.473 . S
Tb436 O458 2.324 . S
Eu437 O441 2.292 . S
Eu437 C442 2.852 . S
Eu437 O453 2.324 . S
Eu437 O457 2.326 . S
Eu437 O459 2.500 . S
Eu437 O460 2.473 . S
C438 O435 1.255 . S
C438 O439 1.247 . S
O439 C438 1.247 . S
C440 O452 1.242 . S
C440 O453 1.258 . S
O441 Eu437 2.292 . S
O441 C443 1.255 . S
C442 Eu437 2.852 . S
C442 C446 1.503 . S
C442 O459 1.273 . S
C442 O460 1.257 . S
C443 O441 1.255 . S
C443 O444 1.247 . S
O444 C443 1.247 . S
C445 O457 1.242 . S
C445 O458 1.258 . S
C446 C442 1.503 . S
C446 C447 1.379 . S
C446 C451 1.392 . S
C447 C446 1.379 . S
C447 C448 1.404 . S
C447 H461 0.929 . S
C448 C447 1.404 . S
C448 C449 1.389 . S
C449 C448 1.389 . S
C449 C450 1.399 . S
C449 H462 0.931 . S
C450 C449 1.399 . S
C450 C451 1.390 . S
C451 C446 1.392 . S
C451 C450 1.390 . S
C451 H463 0.929 . S
O452 Tb436 2.326 . S
O452 C440 1.242 . S
O453 Eu437 2.324 . S
O453 C440 1.258 . S
O454 Tb436 2.500 . S
O454 C456 1.273 . S
O455 Tb436 2.473 . S
O455 C456 1.257 . S
C456 O454 1.273 . S
C456 O455 1.257 . S
O457 Eu437 2.326 . S
O457 C445 1.242 . S
O458 Tb436 2.324 . S
O458 C445 1.258 . S
O459 Eu437 2.500 . S
O459 C442 1.273 . S
O460 Eu437 2.473 . S
O460 C442 1.257 . S
H461 C447 0.929 . S
H462 C449 0.931 . S
H463 C451 0.929 . S
H464 C476 0.930 . S
H465 C478 0.930 . S
H466 C479 0.930 . S
H467 C483 0.959 . S
H468 C483 0.959 . S
H469 C483 0.961 . S
H470 C484 0.960 . S
H471 C484 0.961 . S
H472 C484 0.959 . S
H473 C487 0.929 . S
H474 C488 0.931 . S
H475 C490 0.930 . S
C476 H464 0.930 . S
C476 C477 1.399 . S
C476 C481 1.399 . S
C477 C476 1.399 . S
C477 C478 1.376 . S
C478 H465 0.930 . S
C478 C477 1.376 . S
C478 C479 1.388 . S
C479 H466 0.930 . S
C479 C478 1.388 . S
C479 C480 1.390 . S
C480 C479 1.390 . S
C480 C481 1.394 . S
C480 C486 1.465 . S
C481 C476 1.399 . S
C481 C480 1.394 . S
C481 C482 1.516 . S
C482 C481 1.516 . S
C482 C483 1.502 . S
C482 C484 1.561 . S
C482 C485 1.526 . S
C483 H467 0.959 . S
C483 H468 0.959 . S
C483 H469 0.961 . S
C483 C482 1.502 . S
C484 H470 0.960 . S
C484 H471 0.961 . S
C484 H472 0.959 . S
C484 C482 1.561 . S
C485 C482 1.526 . S
C485 C486 1.396 . S
C485 C490 1.390 . S
C486 C480 1.465 . S
C486 C485 1.396 . S
C486 C487 1.399 . S
C487 H473 0.929 . S
C487 C486 1.399 . S
C487 C488 1.385 . S
C488 H474 0.931 . S
C488 C487 1.385 . S
C488 C489 1.389 . S
C489 C488 1.389 . S
C489 C490 1.387 . S
C490 H475 0.930 . S
C490 C485 1.390 . S
C490 C489 1.387 . S
H491 C503 0.930 . S
H492 C505 0.930 . S
H493 C506 0.930 . S
H494 C510 0.959 . S
H495 C510 0.959 . S
H496 C510 0.961 . S
H497 C511 0.960 . S
H498 C511 0.961 . S
H499 C511 0.959 . S
H500 C514 0.929 . S
H501 C515 0.931 . S
H502 C517 0.930 . S
C503 H491 0.930 . S
C503 C504 1.399 . S
C503 C508 1.399 . S
C504 C503 1.399 . S
C504 C505 1.376 . S
C505 H492 0.930 . S
C505 C504 1.376 . S
C505 C506 1.388 . S
C506 H493 0.930 . S
C506 C505 1.388 . S
C506 C507 1.390 . S
C507 C506 1.390 . S
C507 C508 1.394 . S
C507 C513 1.465 . S
C508 C503 1.399 . S
C508 C507 1.394 . S
C508 C509 1.516 . S
C509 C508 1.516 . S
C509 C510 1.502 . S
C509 C511 1.561 . S
C509 C512 1.526 . S
C510 H494 0.959 . S
C510 H495 0.959 . S
C510 H496 0.961 . S
C510 C509 1.502 . S
C511 H497 0.960 . S
C511 H498 0.961 . S
C511 H499 0.959 . S
C511 C509 1.561 . S
C512 C509 1.526 . S
C512 C513 1.396 . S
C512 C517 1.390 . S
C513 C507 1.465 . S
C513 C512 1.396 . S
C513 C514 1.399 . S
C514 H500 0.929 . S
C514 C513 1.399 . S
C514 C515 1.385 . S
C515 H501 0.931 . S
C515 C514 1.385 . S
C515 C516 1.389 . S
C516 C515 1.389 . S
C516 C517 1.387 . S
C517 H502 0.930 . S
C517 C512 1.390 . S
C517 C516 1.387 . S
H518 C530 0.930 . S
H519 C532 0.930 . S
H520 C533 0.930 . S
H521 C537 0.959 . S
H522 C537 0.959 . S
H523 C537 0.961 . S
H524 C538 0.960 . S
H525 C538 0.961 . S
H526 C538 0.959 . S
H527 C541 0.929 . S
H528 C542 0.931 . S
H529 C544 0.930 . S
C530 H518 0.930 . S
C530 C531 1.399 . S
C530 C535 1.399 . S
C531 C530 1.399 . S
C531 C532 1.376 . S
C532 H519 0.930 . S
C532 C531 1.376 . S
C532 C533 1.388 . S
C533 H520 0.930 . S
C533 C532 1.388 . S
C533 C534 1.390 . S
C534 C533 1.390 . S
C534 C535 1.394 . S
C534 C540 1.465 . S
C535 C530 1.399 . S
C535 C534 1.394 . S
C535 C536 1.516 . S
C536 C535 1.516 . S
C536 C537 1.502 . S
C536 C538 1.561 . S
C536 C539 1.526 . S
C537 H521 0.959 . S
C537 H522 0.959 . S
C537 H523 0.961 . S
C537 C536 1.502 . S
C538 H524 0.960 . S
C538 H525 0.961 . S
C538 H526 0.959 . S
C538 C536 1.561 . S
C539 C536 1.526 . S
C539 C540 1.396 . S
C539 C544 1.390 . S
C540 C534 1.465 . S
C540 C539 1.396 . S
C540 C541 1.399 . S
C541 H527 0.929 . S
C541 C540 1.399 . S
C541 C542 1.385 . S
C542 H528 0.931 . S
C542 C541 1.385 . S
C542 C543 1.389 . S
C543 C542 1.389 . S
C543 C544 1.387 . S
C544 H529 0.930 . S
C544 C539 1.390 . S
C544 C543 1.387 . S
H545 C557 0.930 . S
H546 C559 0.930 . S
H547 C560 0.930 . S
H548 C564 0.959 . S
H549 C564 0.959 . S
H550 C564 0.961 . S
H551 C565 0.960 . S
H552 C565 0.961 . S
H553 C565 0.959 . S
H554 C568 0.929 . S
H555 C569 0.931 . S
H556 C571 0.930 . S
C557 H545 0.930 . S
C557 C558 1.399 . S
C557 C562 1.399 . S
C558 C557 1.399 . S
C558 C559 1.376 . S
C559 H546 0.930 . S
C559 C558 1.376 . S
C559 C560 1.388 . S
C560 H547 0.930 . S
C560 C559 1.388 . S
C560 C561 1.390 . S
C561 C560 1.390 . S
C561 C562 1.394 . S
C561 C567 1.465 . S
C562 C557 1.399 . S
C562 C561 1.394 . S
C562 C563 1.516 . S
C563 C562 1.516 . S
C563 C564 1.502 . S
C563 C565 1.561 . S
C563 C566 1.526 . S
C564 H548 0.959 . S
C564 H549 0.959 . S
C564 H550 0.961 . S
C564 C563 1.502 . S
C565 H551 0.960 . S
C565 H552 0.961 . S
C565 H553 0.959 . S
C565 C563 1.561 . S
C566 C563 1.526 . S
C566 C567 1.396 . S
C566 C571 1.390 . S
C567 C561 1.465 . S
C567 C566 1.396 . S
C567 C568 1.399 . S
C568 H554 0.929 . S
C568 C567 1.399 . S
C568 C569 1.385 . S
C569 H555 0.931 . S
C569 C568 1.385 . S
C569 C570 1.389 . S
C570 C569 1.389 . S
C570 C571 1.387 . S
C571 H556 0.930 . S
C571 C566 1.390 . S
C571 C570 1.387 . S
H572 C584 0.930 . S
H573 C586 0.930 . S
H574 C587 0.930 . S
H575 C591 0.959 . S
H576 C591 0.959 . S
H577 C591 0.961 . S
H578 C592 0.960 . S
H579 C592 0.961 . S
H580 C592 0.959 . S
H581 C595 0.929 . S
H582 C596 0.931 . S
H583 C598 0.930 . S
C584 H572 0.930 . S
C584 C585 1.399 . S
C584 C589 1.399 . S
C585 C584 1.399 . S
C585 C586 1.376 . S
C586 H573 0.930 . S
C586 C585 1.376 . S
C586 C587 1.388 . S
C587 H574 0.930 . S
C587 C586 1.388 . S
C587 C588 1.390 . S
C588 C587 1.390 . S
C588 C589 1.394 . S
C588 C594 1.465 . S
C589 C584 1.399 . S
C589 C588 1.394 . S
C589 C590 1.516 . S
C590 C589 1.516 . S
C590 C591 1.502 . S
C590 C592 1.561 . S
C590 C593 1.526 . S
C591 H575 0.959 . S
C591 H576 0.959 . S
C591 H577 0.961 . S
C591 C590 1.502 . S
C592 H578 0.960 . S
C592 H579 0.961 . S
C592 H580 0.959 . S
C592 C590 1.561 . S
C593 C590 1.526 . S
C593 C594 1.396 . S
C593 C598 1.390 . S
C594 C588 1.465 . S
C594 C593 1.396 . S
C594 C595 1.399 . S
C595 H581 0.929 . S
C595 C594 1.399 . S
C595 C596 1.385 . S
C596 H582 0.931 . S
C596 C595 1.385 . S
C596 C597 1.389 . S
C597 C596 1.389 . S
C597 C598 1.387 . S
C598 H583 0.930 . S
C598 C593 1.390 . S
C598 C597 1.387 . S
H599 C611 0.930 . S
H600 C613 0.930 . S
H601 C614 0.930 . S
H602 C618 0.959 . S
H603 C618 0.959 . S
H604 C618 0.961 . S
H605 C619 0.960 . S
H606 C619 0.961 . S
H607 C619 0.959 . S
H608 C622 0.929 . S
H609 C623 0.931 . S
H610 C625 0.930 . S
C611 H599 0.930 . S
C611 C612 1.399 . S
C611 C616 1.399 . S
C612 C611 1.399 . S
C612 C613 1.376 . S
C613 H600 0.930 . S
C613 C612 1.376 . S
C613 C614 1.388 . S
C614 H601 0.930 . S
C614 C613 1.388 . S
C614 C615 1.390 . S
C615 C614 1.390 . S
C615 C616 1.394 . S
C615 C621 1.465 . S
C616 C611 1.399 . S
C616 C615 1.394 . S
C616 C617 1.516 . S
C617 C616 1.516 . S
C617 C618 1.502 . S
C617 C619 1.561 . S
C617 C620 1.526 . S
C618 H602 0.959 . S
C618 H603 0.959 . S
C618 H604 0.961 . S
C618 C617 1.502 . S
C619 H605 0.960 . S
C619 H606 0.961 . S
C619 H607 0.959 . S
C619 C617 1.561 . S
C620 C617 1.526 . S
C620 C621 1.396 . S
C620 C625 1.390 . S
C621 C615 1.465 . S
C621 C620 1.396 . S
C621 C622 1.399 . S
C622 H608 0.929 . S
C622 C621 1.399 . S
C622 C623 1.385 . S
C623 H609 0.931 . S
C623 C622 1.385 . S
C623 C624 1.389 . S
C624 C623 1.389 . S
C624 C625 1.387 . S
C625 H610 0.930 . S
C625 C620 1.390 . S
C625 C624 1.387 . S
H626 C638 0.930 . S
H627 C640 0.930 . S
H628 C641 0.930 . S
H629 C645 0.959 . S
H630 C645 0.959 . S
H631 C645 0.961 . S
H632 C646 0.960 . S
H633 C646 0.961 . S
H634 C646 0.959 . S
H635 C649 0.929 . S
H636 C650 0.931 . S
H637 C652 0.930 . S
C638 H626 0.930 . S
C638 C639 1.399 . S
C638 C643 1.399 . S
C639 C638 1.399 . S
C639 C640 1.376 . S
C640 H627 0.930 . S
C640 C639 1.376 . S
C640 C641 1.388 . S
C641 H628 0.930 . S
C641 C640 1.388 . S
C641 C642 1.390 . S
C642 C641 1.390 . S
C642 C643 1.394 . S
C642 C648 1.465 . S
C643 C638 1.399 . S
C643 C642 1.394 . S
C643 C644 1.516 . S
C644 C643 1.516 . S
C644 C645 1.502 . S
C644 C646 1.561 . S
C644 C647 1.526 . S
C645 H629 0.959 . S
C645 H630 0.959 . S
C645 H631 0.961 . S
C645 C644 1.502 . S
C646 H632 0.960 . S
C646 H633 0.961 . S
C646 H634 0.959 . S
C646 C644 1.561 . S
C647 C644 1.526 . S
C647 C648 1.396 . S
C647 C652 1.390 . S
C648 C642 1.465 . S
C648 C647 1.396 . S
C648 C649 1.399 . S
C649 H635 0.929 . S
C649 C648 1.399 . S
C649 C650 1.385 . S
C650 H636 0.931 . S
C650 C649 1.385 . S
C650 C651 1.389 . S
C651 C650 1.389 . S
C651 C652 1.387 . S
C652 H637 0.930 . S
C652 C647 1.390 . S
C652 C651 1.387 . S
H653 C665 0.930 . S
H654 C667 0.930 . S
H655 C668 0.930 . S
H656 C672 0.959 . S
H657 C672 0.959 . S
H658 C672 0.961 . S
H659 C673 0.960 . S
H660 C673 0.961 . S
H661 C673 0.959 . S
H662 C676 0.929 . S
H663 C677 0.931 . S
H664 C679 0.930 . S
C665 H653 0.930 . S
C665 C666 1.399 . S
C665 C670 1.399 . S
C666 C665 1.399 . S
C666 C667 1.376 . S
C667 H654 0.930 . S
C667 C666 1.376 . S
C667 C668 1.388 . S
C668 H655 0.930 . S
C668 C667 1.388 . S
C668 C669 1.390 . S
C669 C668 1.390 . S
C669 C670 1.394 . S
C669 C675 1.465 . S
C670 C665 1.399 . S
C670 C669 1.394 . S
C670 C671 1.516 . S
C671 C670 1.516 . S
C671 C672 1.502 . S
C671 C673 1.561 . S
C671 C674 1.526 . S
C672 H656 0.959 . S
C672 H657 0.959 . S
C672 H658 0.961 . S
C672 C671 1.502 . S
C673 H659 0.960 . S
C673 H660 0.961 . S
C673 H661 0.959 . S
C673 C671 1.561 . S
C674 C671 1.526 . S
C674 C675 1.396 . S
C674 C679 1.390 . S
C675 C669 1.465 . S
C675 C674 1.396 . S
C675 C676 1.399 . S
C676 H662 0.929 . S
C676 C675 1.399 . S
C676 C677 1.385 . S
C677 H663 0.931 . S
C677 C676 1.385 . S
C677 C678 1.389 . S
C678 C677 1.389 . S
C678 C679 1.387 . S
C679 H664 0.930 . S
C679 C674 1.390 . S
C679 C678 1.387 . S
H680 C692 0.930 . S
H681 C694 0.930 . S
H682 C695 0.930 . S
H683 C699 0.959 . S
H684 C699 0.959 . S
H685 C699 0.961 . S
H686 C700 0.960 . S
H687 C700 0.961 . S
H688 C700 0.959 . S
H689 C703 0.929 . S
H690 C704 0.931 . S
H691 C706 0.930 . S
C692 H680 0.930 . S
C692 C693 1.399 . S
C692 C697 1.399 . S
C693 C692 1.399 . S
C693 C694 1.376 . S
C694 H681 0.930 . S
C694 C693 1.376 . S
C694 C695 1.388 . S
C695 H682 0.930 . S
C695 C694 1.388 . S
C695 C696 1.390 . S
C696 C695 1.390 . S
C696 C697 1.394 . S
C696 C702 1.446 1_554 S
C697 C692 1.399 . S
C697 C696 1.394 . S
C697 C698 1.516 . S
C698 C697 1.516 . S
C698 C699 1.502 1_554 S
C698 C700 1.561 . S
C698 C701 1.526 1_554 S
C699 H683 0.959 . S
C699 H684 0.959 . S
C699 H685 0.961 . S
C699 C698 1.502 1_556 S
C700 H686 0.960 . S
C700 H687 0.961 . S
C700 H688 0.959 . S
C700 C698 1.561 . S
C701 C698 1.526 1_556 S
C701 C702 1.405 . S
C701 C706 1.390 . S
C702 C696 1.446 1_556 S
C702 C701 1.405 . S
C702 C703 1.409 . S
C703 H689 0.929 . S
C703 C702 1.409 . S
C703 C704 1.385 . S
C704 H690 0.931 . S
C704 C703 1.385 . S
C704 C705 1.389 . S
C705 C704 1.389 . S
C705 C706 1.387 . S
C706 H691 0.930 . S
C706 C701 1.390 . S
C706 C705 1.387 . S
H707 C719 0.930 . S
H708 C721 0.930 . S
H709 C722 0.930 . S
H710 C726 0.959 . S
H711 C726 0.959 . S
H712 C726 0.961 . S
H713 C727 0.982 . S
H714 C727 0.956 1_554 S
H715 C727 0.935 1_554 S
H716 C730 0.929 . S
H717 C731 0.931 . S
H718 C733 0.930 . S
C719 H707 0.930 . S
C719 C720 1.399 . S
C719 C724 1.399 . S
C720 C719 1.399 . S
C720 C721 1.376 . S
C721 H708 0.930 . S
C721 C720 1.376 . S
C721 C722 1.388 1_556 S
C722 H709 0.930 . S
C722 C721 1.388 1_554 S
C722 C723 1.390 . S
C723 C722 1.390 . S
C723 C724 1.394 1_554 S
C723 C729 1.465 . S
C724 C719 1.399 . S
C724 C723 1.394 1_556 S
C724 C725 1.516 . S
C725 C724 1.516 . S
C725 C726 1.502 . S
C725 C727 1.569 . S
C725 C728 1.526 1_556 S
C726 H710 0.959 . S
C726 H711 0.959 . S
C726 H712 0.961 . S
C726 C725 1.502 . S
C727 H713 0.982 . S
C727 H714 0.956 1_556 S
C727 H715 0.935 1_556 S
C727 C725 1.569 . S
C728 C725 1.526 1_554 S
C728 C729 1.396 . S
C728 C733 1.390 . S
C729 C723 1.465 . S
C729 C728 1.396 . S
C729 C730 1.399 . S
C730 H716 0.929 . S
C730 C729 1.399 . S
C730 C731 1.385 . S
C731 H717 0.931 . S
C731 C730 1.385 . S
C731 C732 1.389 . S
C732 C731 1.389 . S
C732 C733 1.387 . S
C733 H718 0.930 . S
C733 C728 1.390 . S
C733 C732 1.387 . S
H734 C746 0.930 . S
H735 C748 0.930 . S
H736 C749 0.930 . S
H737 C753 0.959 . S
H738 C753 0.959 . S
H739 C753 0.961 . S
H740 C754 0.960 . S
H741 C754 0.961 . S
H742 C754 0.959 . S
H743 C757 0.929 . S
H744 C758 0.931 . S
H745 C760 0.930 . S
C746 H734 0.930 . S
C746 C747 1.399 . S
C746 C751 1.399 . S
C747 C746 1.399 . S
C747 C748 1.376 . S
C748 H735 0.930 . S
C748 C747 1.376 . S
C748 C749 1.388 . S
C749 H736 0.930 . S
C749 C748 1.388 . S
C749 C750 1.390 . S
C750 C749 1.390 . S
C750 C751 1.394 . S
C750 C756 1.465 . S
C751 C746 1.399 . S
C751 C750 1.394 . S
C751 C752 1.516 1_554 S
C752 C751 1.516 1_556 S
C752 C753 1.502 . S
C752 C754 1.561 . S
C752 C755 1.526 . S
C753 H737 0.959 . S
C753 H738 0.959 . S
C753 H739 0.961 . S
C753 C752 1.502 . S
C754 H740 0.960 . S
C754 H741 0.961 . S
C754 H742 0.959 . S
C754 C752 1.561 . S
C755 C752 1.526 . S
C755 C756 1.396 1_556 S
C755 C760 1.390 . S
C756 C750 1.465 . S
C756 C755 1.396 1_554 S
C756 C757 1.399 . S
C757 H743 0.929 . S
C757 C756 1.399 . S
C757 C758 1.385 1_554 S
C758 H744 0.931 . S
C758 C757 1.385 1_556 S
C758 C759 1.389 . S
C759 C758 1.389 . S
C759 C760 1.387 . S
C760 H745 0.930 . S
C760 C755 1.390 . S
C760 C759 1.387 . S
H761 C773 0.930 . S
H762 C775 0.930 . S
H763 C776 0.930 . S
H764 C780 0.959 . S
H765 C780 0.959 . S
H766 C780 0.961 . S
H767 C781 0.960 . S
H768 C781 0.961 . S
H769 C781 0.959 . S
H770 C784 0.929 . S
H771 C785 0.931 . S
H772 C787 0.930 . S
C773 H761 0.930 . S
C773 C774 1.399 . S
C773 C778 1.399 . S
C774 C773 1.399 . S
C774 C775 1.376 . S
C775 H762 0.930 . S
C775 C774 1.376 . S
C775 C776 1.388 1_556 S
C776 H763 0.930 . S
C776 C775 1.388 1_554 S
C776 C777 1.390 . S
C777 C776 1.390 . S
C777 C778 1.394 1_554 S
C777 C783 1.465 . S
C778 C773 1.399 . S
C778 C777 1.394 1_556 S
C778 C779 1.516 . S
C779 C778 1.516 . S
C779 C780 1.502 . S
C779 C781 1.561 . S
C779 C782 1.526 1_556 S
C780 H764 0.959 . S
C780 H765 0.959 . S
C780 H766 0.961 . S
C780 C779 1.502 . S
C781 H767 0.960 . S
C781 H768 0.961 . S
C781 H769 0.959 . S
C781 C779 1.561 . S
C782 C779 1.526 1_554 S
C782 C783 1.396 . S
C782 C787 1.390 . S
C783 C777 1.465 . S
C783 C782 1.396 . S
C783 C784 1.399 . S
C784 H770 0.929 . S
C784 C783 1.399 . S
C784 C785 1.385 . S
C785 H771 0.931 . S
C785 C784 1.385 . S
C785 C786 1.389 . S
C786 C785 1.389 . S
C786 C787 1.387 . S
C787 H772 0.930 . S
C787 C782 1.390 . S
C787 C786 1.387 . S
H788 C800 0.930 . S
H789 C802 0.930 . S
H790 C803 0.930 . S
H791 C807 0.959 . S
H792 C807 0.959 . S
H793 C807 0.961 . S
H794 C808 0.960 . S
H795 C808 0.961 . S
H796 C808 0.959 . S
H797 C811 0.929 . S
H798 C812 0.931 . S
H799 C814 0.930 . S
C800 H788 0.930 . S
C800 C801 1.399 . S
C800 C805 1.399 . S
C801 C800 1.399 . S
C801 C802 1.376 . S
C802 H789 0.930 . S
C802 C801 1.376 . S
C802 C803 1.388 . S
C803 H790 0.930 . S
C803 C802 1.388 . S
C803 C804 1.390 . S
C804 C803 1.390 . S
C804 C805 1.394 . S
C804 C810 1.465 . S
C805 C800 1.399 . S
C805 C804 1.394 . S
C805 C806 1.516 . S
C806 C805 1.516 . S
C806 C807 1.502 . S
C806 C808 1.561 . S
C806 C809 1.526 . S
C807 H791 0.959 . S
C807 H792 0.959 . S
C807 H793 0.961 . S
C807 C806 1.502 . S
C808 H794 0.960 . S
C808 H795 0.961 . S
C808 H796 0.959 . S
C808 C806 1.561 . S
C809 C806 1.526 . S
C809 C810 1.396 . S
C809 C814 1.390 . S
C810 C804 1.465 . S
C810 C809 1.396 . S
C810 C811 1.399 . S
C811 H797 0.929 . S
C811 C810 1.399 . S
C811 C812 1.385 . S
C812 H798 0.931 . S
C812 C811 1.385 . S
C812 C813 1.389 . S
C813 C812 1.389 . S
C813 C814 1.387 . S
C814 H799 0.930 . S
C814 C809 1.390 . S
C814 C813 1.387 . S
H815 C827 0.930 . S
H816 C829 0.930 . S
H817 C830 0.930 . S
H818 C834 0.959 . S
H819 C834 0.959 . S
H820 C834 0.961 . S
H821 C835 0.960 . S
H822 C835 0.961 . S
H823 C835 0.959 . S
H824 C838 0.929 . S
H825 C839 0.931 . S
H826 C841 0.930 . S
C827 H815 0.930 . S
C827 C828 1.399 . S
C827 C832 1.399 . S
C828 C827 1.399 . S
C828 C829 1.376 . S
C829 H816 0.930 . S
C829 C828 1.376 . S
C829 C830 1.388 . S
C830 H817 0.930 . S
C830 C829 1.388 . S
C830 C831 1.390 . S
C831 C830 1.390 . S
C831 C832 1.394 . S
C831 C837 1.465 . S
C832 C827 1.399 . S
C832 C831 1.394 . S
C832 C833 1.516 . S
C833 C832 1.516 . S
C833 C834 1.502 . S
C833 C835 1.561 . S
C833 C836 1.526 . S
C834 H818 0.959 . S
C834 H819 0.959 . S
C834 H820 0.961 . S
C834 C833 1.502 . S
C835 H821 0.960 . S
C835 H822 0.961 . S
C835 H823 0.959 . S
C835 C833 1.561 . S
C836 C833 1.526 . S
C836 C837 1.396 . S
C836 C841 1.390 . S
C837 C831 1.465 . S
C837 C836 1.396 . S
C837 C838 1.399 . S
C838 H824 0.929 . S
C838 C837 1.399 . S
C838 C839 1.385 . S
C839 H825 0.931 . S
C839 C838 1.385 . S
C839 C840 1.389 . S
C840 C839 1.389 . S
C840 C841 1.387 . S
C841 H826 0.930 . S
C841 C836 1.390 . S
C841 C840 1.387 . S
H842 C854 0.930 . S
H843 C856 0.930 . S
H844 C857 0.930 . S
H845 C861 0.959 . S
H846 C861 0.959 . S
H847 C861 0.961 . S
H848 C862 0.960 . S
H849 C862 0.961 . S
H850 C862 0.959 . S
H851 C865 0.929 . S
H852 C866 0.931 . S
H853 C868 0.930 . S
C854 H842 0.930 . S
C854 C855 1.399 . S
C854 C859 1.399 . S
C855 C854 1.399 . S
C855 C856 1.376 . S
C856 H843 0.930 . S
C856 C855 1.376 . S
C856 C857 1.388 . S
C857 H844 0.930 . S
C857 C856 1.388 . S
C857 C858 1.390 . S
C858 C857 1.390 . S
C858 C859 1.394 . S
C858 C864 1.465 . S
C859 C854 1.399 . S
C859 C858 1.394 . S
C859 C860 1.516 . S
C860 C859 1.516 . S
C860 C861 1.502 . S
C860 C862 1.561 . S
C860 C863 1.526 . S
C861 H845 0.959 . S
C861 H846 0.959 . S
C861 H847 0.961 . S
C861 C860 1.502 . S
C862 H848 0.960 . S
C862 H849 0.961 . S
C862 H850 0.959 . S
C862 C860 1.561 . S
C863 C860 1.526 . S
C863 C864 1.396 . S
C863 C868 1.390 . S
C864 C858 1.465 . S
C864 C863 1.396 . S
C864 C865 1.399 . S
C865 H851 0.929 . S
C865 C864 1.399 . S
C865 C866 1.385 . S
C866 H852 0.931 . S
C866 C865 1.385 . S
C866 C867 1.389 . S
C867 C866 1.389 . S
C867 C868 1.387 . S
C868 H853 0.930 . S
C868 C863 1.390 . S
C868 C867 1.387 . S
H869 C881 0.930 . S
H870 C883 0.930 . S
H871 C884 0.930 . S
H872 C888 0.959 . S
H873 C888 0.959 . S
H874 C888 0.961 . S
H875 C889 0.960 . S
H876 C889 0.961 . S
H877 C889 0.959 . S
H878 C892 0.929 . S
H879 C893 0.931 . S
H880 C895 0.930 . S
C881 H869 0.930 . S
C881 C882 1.399 . S
C881 C886 1.399 . S
C882 C881 1.399 . S
C882 C883 1.376 . S
C883 H870 0.930 . S
C883 C882 1.376 . S
C883 C884 1.388 . S
C884 H871 0.930 . S
C884 C883 1.388 . S
C884 C885 1.390 . S
C885 C884 1.390 . S
C885 C886 1.394 . S
C885 C891 1.465 . S
C886 C881 1.399 . S
C886 C885 1.394 . S
C886 C887 1.516 . S
C887 C886 1.516 . S
C887 C888 1.502 . S
C887 C889 1.561 . S
C887 C890 1.526 . S
C888 H872 0.959 . S
C888 H873 0.959 . S
C888 H874 0.961 . S
C888 C887 1.502 . S
C889 H875 0.960 . S
C889 H876 0.961 . S
C889 H877 0.959 . S
C889 C887 1.561 . S
C890 C887 1.526 . S
C890 C891 1.396 . S
C890 C895 1.390 . S
C891 C885 1.465 . S
C891 C890 1.396 . S
C891 C892 1.399 . S
C892 H878 0.929 . S
C892 C891 1.399 . S
C892 C893 1.385 . S
C893 H879 0.931 . S
C893 C892 1.385 . S
C893 C894 1.389 . S
C894 C893 1.389 . S
C894 C895 1.387 . S
C895 H880 0.930 . S
C895 C890 1.390 . S
C895 C894 1.387 . S
H896 C908 0.930 . S
H897 C910 0.930 . S
H898 C911 0.930 . S
H899 C915 0.959 . S
H900 C915 0.959 . S
H901 C915 0.961 . S
H902 C916 0.960 . S
H903 C916 0.961 . S
H904 C916 0.959 . S
H905 C919 0.929 . S
H906 C920 0.931 . S
H907 C922 0.930 . S
C908 H896 0.930 . S
C908 C909 1.399 . S
C908 C913 1.399 . S
C909 C908 1.399 . S
C909 C910 1.376 . S
C910 H897 0.930 . S
C910 C909 1.376 . S
C910 C911 1.388 . S
C911 H898 0.930 . S
C911 C910 1.388 . S
C911 C912 1.390 . S
C912 C911 1.390 . S
C912 C913 1.394 . S
C912 C918 1.465 . S
C913 C908 1.399 . S
C913 C912 1.394 . S
C913 C914 1.516 1_556 S
C914 C913 1.516 1_554 S
C914 C915 1.502 . S
C914 C916 1.561 . S
C914 C917 1.526 . S
C915 H899 0.959 . S
C915 H900 0.959 . S
C915 H901 0.961 . S
C915 C914 1.502 . S
C916 H902 0.960 . S
C916 H903 0.961 . S
C916 H904 0.959 . S
C916 C914 1.561 . S
C917 C914 1.526 . S
C917 C918 1.396 1_554 S
C917 C922 1.390 . S
C918 C912 1.465 . S
C918 C917 1.396 1_556 S
C918 C919 1.399 . S
C919 H905 0.929 . S
C919 C918 1.399 . S
C919 C920 1.385 1_556 S
C920 H906 0.931 . S
C920 C919 1.385 1_554 S
C920 C921 1.389 . S
C921 C920 1.389 . S
C921 C922 1.387 . S
C922 H907 0.930 . S
C922 C917 1.390 . S
C922 C921 1.387 . S
H923 C935 0.930 . S
H924 C937 0.930 . S
H925 C938 0.930 . S
H926 C942 0.959 . S
H927 C942 0.959 1_556 S
H928 C942 0.961 . S
H929 C943 0.960 . S
H930 C943 0.961 . S
H931 C943 0.959 . S
H932 C946 0.929 . S
H933 C947 0.931 . S
H934 C949 0.930 . S
C935 H923 0.930 . S
C935 C936 1.399 . S
C935 C940 1.399 . S
C936 C935 1.399 . S
C936 C937 1.376 . S
C937 H924 0.930 . S
C937 C936 1.376 . S
C937 C938 1.388 . S
C938 H925 0.930 . S
C938 C937 1.388 . S
C938 C939 1.390 . S
C939 C938 1.390 . S
C939 C940 1.394 . S
C939 C945 1.465 1_554 S
C940 C935 1.399 . S
C940 C939 1.394 . S
C940 C941 1.516 1_554 S
C941 C940 1.516 1_556 S
C941 C942 1.502 1_556 S
C941 C943 1.561 . S
C941 C944 1.526 . S
C942 H926 0.959 . S
C942 H927 0.959 1_554 S
C942 H928 0.961 . S
C942 C941 1.502 1_554 S
C943 H929 0.960 . S
C943 H930 0.961 . S
C943 H931 0.959 . S
C943 C941 1.561 . S
C944 C941 1.526 . S
C944 C945 1.396 . S
C944 C949 1.390 . S
C945 C939 1.465 1_556 S
C945 C944 1.396 . S
C945 C946 1.399 . S
C946 H932 0.929 . S
C946 C945 1.399 . S
C946 C947 1.385 . S
C947 H933 0.931 . S
C947 C946 1.385 . S
C947 C948 1.389 . S
C948 C947 1.389 . S
C948 C949 1.387 . S
C949 H934 0.930 . S
C949 C944 1.390 . S
C949 C948 1.387 . S
H950 C962 0.930 . S
H951 C964 0.930 . S
H952 C965 0.930 . S
H953 C969 0.959 1_554 S
H954 C969 0.963 . S
H955 C969 0.961 . S
H956 C970 0.960 . S
H957 C970 0.961 . S
H958 C970 0.959 . S
H959 C973 0.929 . S
H960 C974 0.931 . S
H961 C976 0.930 . S
C962 H950 0.930 . S
C962 C963 1.399 . S
C962 C967 1.399 . S
C963 C962 1.399 . S
C963 C964 1.376 . S
C964 H951 0.930 . S
C964 C963 1.376 . S
C964 C965 1.388 . S
C965 H952 0.930 . S
C965 C964 1.388 . S
C965 C966 1.390 . S
C966 C965 1.390 . S
C966 C967 1.394 . S
C966 C972 1.465 1_556 S
C967 C962 1.399 . S
C967 C966 1.394 . S
C967 C968 1.516 . S
C968 C967 1.516 . S
C968 C969 1.502 . S
C968 C970 1.561 . S
C968 C971 1.526 1_556 S
C969 H953 0.959 1_556 S
C969 H954 0.963 . S
C969 H955 0.961 . S
C969 C968 1.502 . S
C970 H956 0.960 . S
C970 H957 0.961 . S
C970 H958 0.959 . S
C970 C968 1.561 . S
C971 C968 1.526 1_554 S
C971 C972 1.396 . S
C971 C976 1.390 . S
C972 C966 1.465 1_554 S
C972 C971 1.396 . S
C972 C973 1.399 . S
C973 H959 0.929 . S
C973 C972 1.399 . S
C973 C974 1.385 . S
C974 H960 0.931 . S
C974 C973 1.385 . S
C974 C975 1.389 . S
C975 C974 1.389 . S
C975 C976 1.387 . S
C976 H961 0.930 . S
C976 C971 1.390 . S
C976 C975 1.387 . S
H977 C989 0.930 . S
H978 C991 0.930 . S
H979 C992 0.930 . S
H980 C996 0.959 . S
H981 C996 0.959 . S
H982 C996 0.961 . S
H983 C997 0.960 . S
H984 C997 0.961 1_556 S
H985 C997 0.959 . S
H986 C1000 0.929 . S
H987 C1001 0.931 . S
H988 C1003 0.930 . S
C989 H977 0.930 . S
C989 C990 1.399 . S
C989 C994 1.399 . S
C990 C989 1.399 . S
C990 C991 1.376 . S
C991 H978 0.930 . S
C991 C990 1.376 . S
C991 C992 1.388 . S
C992 H979 0.930 . S
C992 C991 1.388 . S
C992 C993 1.390 . S
C993 C992 1.390 . S
C993 C994 1.394 . S
C993 C999 1.465 1_554 S
C994 C989 1.399 . S
C994 C993 1.394 . S
C994 C995 1.516 1_554 S
C995 C994 1.516 1_556 S
C995 C996 1.502 . S
C995 C997 1.561 1_556 S
C995 C998 1.526 . S
C996 H980 0.959 . S
C996 H981 0.959 . S
C996 H982 0.961 . S
C996 C995 1.502 . S
C997 H983 0.960 . S
C997 H984 0.961 1_554 S
C997 H985 0.959 . S
C997 C995 1.561 1_554 S
C998 C995 1.526 . S
C998 C999 1.396 . S
C998 C1003 1.390 . S
C999 C993 1.465 1_556 S
C999 C998 1.396 . S
C999 C1000 1.399 . S
C1000 H986 0.929 . S
C1000 C999 1.399 . S
C1000 C1001 1.385 . S
C1001 H987 0.931 . S
C1001 C1000 1.385 . S
C1001 C1002 1.389 . S
C1002 C1001 1.389 . S
C1002 C1003 1.387 . S
C1003 H988 0.930 . S
C1003 C998 1.390 . S
C1003 C1002 1.387 . S
H1004 C1016 0.930 . S
H1005 C1018 0.930 . S
H1006 C1019 0.930 . S
H1007 C1023 0.959 . S
H1008 C1023 0.959 . S
H1009 C1023 0.961 . S
H1010 C1024 0.960 . S
H1011 C1024 0.961 . S
H1012 C1024 0.959 . S
H1013 C1027 0.929 . S
H1014 C1028 0.931 . S
H1015 C1030 0.930 . S
C1016 H1004 0.930 . S
C1016 C1017 1.399 . S
C1016 C1021 1.399 . S
C1017 C1016 1.399 . S
C1017 C1018 1.376 . S
C1018 H1005 0.930 . S
C1018 C1017 1.376 . S
C1018 C1019 1.388 . S
C1019 H1006 0.930 . S
C1019 C1018 1.388 . S
C1019 C1020 1.390 . S
C1020 C1019 1.390 . S
C1020 C1021 1.394 . S
C1020 C1026 1.465 . S
C1021 C1016 1.399 . S
C1021 C1020 1.394 . S
C1021 C1022 1.516 . S
C1022 C1021 1.516 . S
C1022 C1023 1.502 . S
C1022 C1024 1.561 . S
C1022 C1025 1.526 . S
C1023 H1007 0.959 . S
C1023 H1008 0.959 . S
C1023 H1009 0.961 . S
C1023 C1022 1.502 . S
C1024 H1010 0.960 . S
C1024 H1011 0.961 . S
C1024 H1012 0.959 . S
C1024 C1022 1.561 . S
C1025 C1022 1.526 . S
C1025 C1026 1.396 . S
C1025 C1030 1.390 . S
C1026 C1020 1.465 . S
C1026 C1025 1.396 . S
C1026 C1027 1.399 . S
C1027 H1013 0.929 . S
C1027 C1026 1.399 . S
C1027 C1028 1.385 . S
C1028 H1014 0.931 . S
C1028 C1027 1.385 . S
C1028 C1029 1.389 . S
C1029 C1028 1.389 . S
C1029 C1030 1.387 . S
C1030 H1015 0.930 . S
C1030 C1025 1.390 . S
C1030 C1029 1.387 . S
H1031 C1043 0.930 . S
H1032 C1045 0.930 . S
H1033 C1046 0.930 . S
H1034 C1050 0.959 . S
H1035 C1050 0.959 . S
H1036 C1050 0.961 . S
H1037 C1051 0.960 . S
H1038 C1051 0.961 . S
H1039 C1051 0.959 . S
H1040 C1054 0.929 . S
H1041 C1055 0.931 . S
H1042 C1057 0.930 . S
C1043 H1031 0.930 . S
C1043 C1044 1.399 . S
C1043 C1048 1.399 . S
C1044 C1043 1.399 . S
C1044 C1045 1.376 . S
C1045 H1032 0.930 . S
C1045 C1044 1.376 . S
C1045 C1046 1.388 . S
C1046 H1033 0.930 . S
C1046 C1045 1.388 . S
C1046 C1047 1.390 . S
C1047 C1046 1.390 . S
C1047 C1048 1.394 . S
C1047 C1053 1.465 . S
C1048 C1043 1.399 . S
C1048 C1047 1.394 . S
C1048 C1049 1.516 . S
C1049 C1048 1.516 . S
C1049 C1050 1.502 . S
C1049 C1051 1.561 . S
C1049 C1052 1.526 . S
C1050 H1034 0.959 . S
C1050 H1035 0.959 . S
C1050 H1036 0.961 . S
C1050 C1049 1.502 . S
C1051 H1037 0.960 . S
C1051 H1038 0.961 . S
C1051 H1039 0.959 . S
C1051 C1049 1.561 . S
C1052 C1049 1.526 . S
C1052 C1053 1.396 . S
C1052 C1057 1.390 . S
C1053 C1047 1.465 . S
C1053 C1052 1.396 . S
C1053 C1054 1.399 . S
C1054 H1040 0.929 . S
C1054 C1053 1.399 . S
C1054 C1055 1.385 . S
C1055 H1041 0.931 . S
C1055 C1054 1.385 . S
C1055 C1056 1.389 . S
C1056 C1055 1.389 . S
C1056 C1057 1.387 . S
C1057 H1042 0.930 . S
C1057 C1052 1.390 . S
C1057 C1056 1.387 . S
H1058 C1070 0.930 . S
H1059 C1072 0.930 . S
H1060 C1073 0.930 . S
H1061 C1077 0.959 . S
H1062 C1077 0.959 . S
H1063 C1077 0.961 . S
H1064 C1078 0.960 . S
H1065 C1078 0.961 . S
H1066 C1078 0.959 . S
H1067 C1081 0.929 . S
H1068 C1082 0.931 . S
H1069 C1084 0.930 . S
C1070 H1058 0.930 . S
C1070 C1071 1.399 . S
C1070 C1075 1.399 . S
C1071 C1070 1.399 . S
C1071 C1072 1.376 . S
C1072 H1059 0.930 . S
C1072 C1071 1.376 . S
C1072 C1073 1.388 . S
C1073 H1060 0.930 . S
C1073 C1072 1.388 . S
C1073 C1074 1.390 . S
C1074 C1073 1.390 . S
C1074 C1075 1.394 . S
C1074 C1080 1.465 . S
C1075 C1070 1.399 . S
C1075 C1074 1.394 . S
C1075 C1076 1.516 . S
C1076 C1075 1.516 . S
C1076 C1077 1.502 . S
C1076 C1078 1.561 . S
C1076 C1079 1.526 . S
C1077 H1061 0.959 . S
C1077 H1062 0.959 . S
C1077 H1063 0.961 . S
C1077 C1076 1.502 . S
C1078 H1064 0.960 . S
C1078 H1065 0.961 . S
C1078 H1066 0.959 . S
C1078 C1076 1.561 . S
C1079 C1076 1.526 . S
C1079 C1080 1.396 . S
C1079 C1084 1.390 . S
C1080 C1074 1.465 . S
C1080 C1079 1.396 . S
C1080 C1081 1.399 . S
C1081 H1067 0.929 . S
C1081 C1080 1.399 . S
C1081 C1082 1.385 . S
C1082 H1068 0.931 . S
C1082 C1081 1.385 . S
C1082 C1083 1.389 . S
C1083 C1082 1.389 . S
C1083 C1084 1.387 . S
C1084 H1069 0.930 . S
C1084 C1079 1.390 . S
C1084 C1083 1.387 . S
H1085 C1097 0.930 . S
H1086 C1099 0.930 . S
H1087 C1100 0.930 . S
H1088 C1104 0.959 . S
H1089 C1104 0.959 . S
H1090 C1104 0.961 . S
H1091 C1105 0.960 . S
H1092 C1105 0.961 . S
H1093 C1105 0.959 . S
H1094 C1108 0.929 . S
H1095 C1109 0.931 . S
H1096 C1111 0.930 . S
C1097 H1085 0.930 . S
C1097 C1098 1.399 . S
C1097 C1102 1.399 . S
C1098 C1097 1.399 . S
C1098 C1099 1.376 . S
C1099 H1086 0.930 . S
C1099 C1098 1.376 . S
C1099 C1100 1.388 . S
C1100 H1087 0.930 . S
C1100 C1099 1.388 . S
C1100 C1101 1.390 . S
C1101 C1100 1.390 . S
C1101 C1102 1.394 . S
C1101 C1107 1.465 . S
C1102 C1097 1.399 . S
C1102 C1101 1.394 . S
C1102 C1103 1.516 . S
C1103 C1102 1.516 . S
C1103 C1104 1.502 . S
C1103 C1105 1.561 . S
C1103 C1106 1.526 . S
C1104 H1088 0.959 . S
C1104 H1089 0.959 . S
C1104 H1090 0.961 . S
C1104 C1103 1.502 . S
C1105 H1091 0.960 . S
C1105 H1092 0.961 . S
C1105 H1093 0.959 . S
C1105 C1103 1.561 . S
C1106 C1103 1.526 . S
C1106 C1107 1.396 . S
C1106 C1111 1.390 . S
C1107 C1101 1.465 . S
C1107 C1106 1.396 . S
C1107 C1108 1.399 . S
C1108 H1094 0.929 . S
C1108 C1107 1.399 . S
C1108 C1109 1.385 . S
C1109 H1095 0.931 . S
C1109 C1108 1.385 . S
C1109 C1110 1.389 . S
C1110 C1109 1.389 . S
C1110 C1111 1.387 . S
C1111 H1096 0.930 . S
C1111 C1106 1.390 . S
C1111 C1110 1.387 . S
H1112 C1124 0.930 . S
H1113 C1126 0.930 . S
H1114 C1127 0.930 . S
H1115 C1131 0.959 . S
H1116 C1131 0.959 . S
H1117 C1131 0.961 . S
H1118 C1132 0.960 . S
H1119 C1132 0.961 . S
H1120 C1132 0.959 . S
H1121 C1135 0.929 . S
H1122 C1136 0.931 . S
H1123 C1138 0.930 . S
C1124 H1112 0.930 . S
C1124 C1125 1.399 . S
C1124 C1129 1.399 . S
C1125 C1124 1.399 . S
C1125 C1126 1.376 . S
C1126 H1113 0.930 . S
C1126 C1125 1.376 . S
C1126 C1127 1.388 . S
C1127 H1114 0.930 . S
C1127 C1126 1.388 . S
C1127 C1128 1.390 . S
C1128 C1127 1.390 . S
C1128 C1129 1.394 . S
C1128 C1134 1.465 . S
C1129 C1124 1.399 . S
C1129 C1128 1.394 . S
C1129 C1130 1.516 . S
C1130 C1129 1.516 . S
C1130 C1131 1.502 . S
C1130 C1132 1.561 . S
C1130 C1133 1.526 . S
C1131 H1115 0.959 . S
C1131 H1116 0.959 . S
C1131 H1117 0.961 . S
C1131 C1130 1.502 . S
C1132 H1118 0.960 . S
C1132 H1119 0.961 . S
C1132 H1120 0.959 . S
C1132 C1130 1.561 . S
C1133 C1130 1.526 . S
C1133 C1134 1.396 . S
C1133 C1138 1.390 . S
C1134 C1128 1.465 . S
C1134 C1133 1.396 . S
C1134 C1135 1.399 . S
C1135 H1121 0.929 . S
C1135 C1134 1.399 . S
C1135 C1136 1.385 . S
C1136 H1122 0.931 . S
C1136 C1135 1.385 . S
C1136 C1137 1.389 . S
C1137 C1136 1.389 . S
C1137 C1138 1.387 . S
C1138 H1123 0.930 . S
C1138 C1133 1.390 . S
C1138 C1137 1.387 . S
H1139 C1151 0.930 . S
H1140 C1153 0.930 . S
H1141 C1154 0.930 . S
H1142 C1158 0.959 . S
H1143 C1158 0.959 . S
H1144 C1158 0.961 . S
H1145 C1159 0.960 . S
H1146 C1159 0.961 . S
H1147 C1159 0.959 . S
H1148 C1162 0.929 . S
H1149 C1163 0.931 . S
H1150 C1165 0.930 . S
C1151 H1139 0.930 . S
C1151 C1152 1.399 . S
C1151 C1156 1.399 . S
C1152 C1151 1.399 . S
C1152 C1153 1.376 . S
C1153 H1140 0.930 . S
C1153 C1152 1.376 . S
C1153 C1154 1.388 . S
C1154 H1141 0.930 . S
C1154 C1153 1.388 . S
C1154 C1155 1.390 . S
C1155 C1154 1.390 . S
C1155 C1156 1.394 . S
C1155 C1161 1.465 . S
C1156 C1151 1.399 . S
C1156 C1155 1.394 . S
C1156 C1157 1.516 . S
C1157 C1156 1.516 . S
C1157 C1158 1.502 . S
C1157 C1159 1.561 . S
C1157 C1160 1.526 . S
C1158 H1142 0.959 . S
C1158 H1143 0.959 . S
C1158 H1144 0.961 . S
C1158 C1157 1.502 . S
C1159 H1145 0.960 . S
C1159 H1146 0.961 . S
C1159 H1147 0.959 . S
C1159 C1157 1.561 . S
C1160 C1157 1.526 . S
C1160 C1161 1.396 . S
C1160 C1165 1.390 . S
C1161 C1155 1.465 . S
C1161 C1160 1.396 . S
C1161 C1162 1.399 . S
C1162 H1148 0.929 . S
C1162 C1161 1.399 . S
C1162 C1163 1.385 . S
C1163 H1149 0.931 . S
C1163 C1162 1.385 . S
C1163 C1164 1.389 . S
C1164 C1163 1.389 . S
C1164 C1165 1.387 . S
C1165 H1150 0.930 . S
C1165 C1160 1.390 . S
C1165 C1164 1.387 . S
H1166 C1178 0.930 . S
H1167 C1180 0.930 . S
H1168 C1181 0.930 . S
H1169 C1185 0.959 . S
H1170 C1185 0.959 . S
H1171 C1185 0.961 . S
H1172 C1186 0.960 . S
H1173 C1186 0.961 . S
H1174 C1186 0.959 . S
H1175 C1189 0.929 . S
H1176 C1190 0.931 . S
H1177 C1192 0.930 . S
C1178 H1166 0.930 . S
C1178 C1179 1.399 . S
C1178 C1183 1.399 . S
C1179 C1178 1.399 . S
C1179 C1180 1.376 . S
C1180 H1167 0.930 . S
C1180 C1179 1.376 . S
C1180 C1181 1.388 . S
C1181 H1168 0.930 . S
C1181 C1180 1.388 . S
C1181 C1182 1.390 . S
C1182 C1181 1.390 . S
C1182 C1183 1.394 . S
C1182 C1188 1.465 . S
C1183 C1178 1.399 . S
C1183 C1182 1.394 . S
C1183 C1184 1.516 . S
C1184 C1183 1.516 . S
C1184 C1185 1.502 . S
C1184 C1186 1.561 . S
C1184 C1187 1.526 . S
C1185 H1169 0.959 . S
C1185 H1170 0.959 . S
C1185 H1171 0.961 . S
C1185 C1184 1.502 . S
C1186 H1172 0.960 . S
C1186 H1173 0.961 . S
C1186 H1174 0.959 . S
C1186 C1184 1.561 . S
C1187 C1184 1.526 . S
C1187 C1188 1.396 . S
C1187 C1192 1.390 . S
C1188 C1182 1.465 . S
C1188 C1187 1.396 . S
C1188 C1189 1.399 . S
C1189 H1175 0.929 . S
C1189 C1188 1.399 . S
C1189 C1190 1.385 . S
C1190 H1176 0.931 . S
C1190 C1189 1.385 . S
C1190 C1191 1.389 . S
C1191 C1190 1.389 . S
C1191 C1192 1.387 . S
C1192 H1177 0.930 . S
C1192 C1187 1.390 . S
C1192 C1191 1.387 . S
H1193 C1205 0.930 . S
H1194 C1207 0.930 . S
H1195 C1208 0.930 . S
H1196 C1212 0.959 . S
H1197 C1212 0.959 . S
H1198 C1212 0.961 . S
H1199 C1213 0.960 . S
H1200 C1213 0.961 . S
H1201 C1213 0.959 . S
H1202 C1216 0.929 . S
H1203 C1217 0.931 . S
H1204 C1219 0.930 . S
C1205 H1193 0.930 . S
C1205 C1206 1.399 . S
C1205 C1210 1.399 . S
C1206 C1205 1.399 . S
C1206 C1207 1.376 . S
C1207 H1194 0.930 . S
C1207 C1206 1.376 . S
C1207 C1208 1.388 . S
C1208 H1195 0.930 . S
C1208 C1207 1.388 . S
C1208 C1209 1.390 . S
C1209 C1208 1.390 . S
C1209 C1210 1.394 . S
C1209 C1215 1.465 . S
C1210 C1205 1.399 . S
C1210 C1209 1.394 . S
C1210 C1211 1.516 . S
C1211 C1210 1.516 . S
C1211 C1212 1.502 . S
C1211 C1213 1.561 . S
C1211 C1214 1.526 . S
C1212 H1196 0.959 . S
C1212 H1197 0.959 . S
C1212 H1198 0.961 . S
C1212 C1211 1.502 . S
C1213 H1199 0.960 . S
C1213 H1200 0.961 . S
C1213 H1201 0.959 . S
C1213 C1211 1.561 . S
C1214 C1211 1.526 . S
C1214 C1215 1.396 . S
C1214 C1219 1.390 . S
C1215 C1209 1.465 . S
C1215 C1214 1.396 . S
C1215 C1216 1.399 . S
C1216 H1202 0.929 . S
C1216 C1215 1.399 . S
C1216 C1217 1.385 . S
C1217 H1203 0.931 . S
C1217 C1216 1.385 . S
C1217 C1218 1.389 . S
C1218 C1217 1.389 . S
C1218 C1219 1.387 . S
C1219 H1204 0.930 . S
C1219 C1214 1.390 . S
C1219 C1218 1.387 . S
H1220 C1232 0.930 . S
H1221 C1234 0.930 . S
H1222 C1235 0.930 . S
H1223 C1239 0.959 . S
H1224 C1239 0.959 . S
H1225 C1239 0.961 . S
H1226 C1240 0.960 . S
H1227 C1240 0.961 . S
H1228 C1240 0.959 . S
H1229 C1243 0.929 . S
H1230 C1244 0.931 . S
H1231 C1246 0.930 . S
C1232 H1220 0.930 . S
C1232 C1233 1.399 . S
C1232 C1237 1.399 . S
C1233 C1232 1.399 . S
C1233 C1234 1.376 . S
C1234 H1221 0.930 . S
C1234 C1233 1.376 . S
C1234 C1235 1.388 . S
C1235 H1222 0.930 . S
C1235 C1234 1.388 . S
C1235 C1236 1.390 . S
C1236 C1235 1.390 . S
C1236 C1237 1.394 . S
C1236 C1242 1.465 . S
C1237 C1232 1.399 . S
C1237 C1236 1.394 . S
C1237 C1238 1.516 . S
C1238 C1237 1.516 . S
C1238 C1239 1.502 . S
C1238 C1240 1.561 . S
C1238 C1241 1.526 . S
C1239 H1223 0.959 . S
C1239 H1224 0.959 . S
C1239 H1225 0.961 . S
C1239 C1238 1.502 . S
C1240 H1226 0.960 . S
C1240 H1227 0.961 . S
C1240 H1228 0.959 . S
C1240 C1238 1.561 . S
C1241 C1238 1.526 . S
C1241 C1242 1.396 . S
C1241 C1246 1.390 . S
C1242 C1236 1.465 . S
C1242 C1241 1.396 . S
C1242 C1243 1.399 . S
C1243 H1229 0.929 . S
C1243 C1242 1.399 . S
C1243 C1244 1.385 . S
C1244 H1230 0.931 . S
C1244 C1243 1.385 . S
C1244 C1245 1.389 . S
C1245 C1244 1.389 . S
C1245 C1246 1.387 . S
C1246 H1231 0.930 . S
C1246 C1241 1.390 . S
C1246 C1245 1.387 . S
H1247 C1259 0.930 . S
H1248 C1261 0.930 . S
H1249 C1262 0.930 . S
H1250 C1266 0.959 . S
H1251 C1266 0.959 . S
H1252 C1266 0.961 . S
H1253 C1267 0.960 . S
H1254 C1267 0.961 . S
H1255 C1267 0.959 . S
H1256 C1270 0.929 . S
H1257 C1271 0.931 . S
H1258 C1273 0.930 . S
C1259 H1247 0.930 . S
C1259 C1260 1.399 . S
C1259 C1264 1.399 . S
C1260 C1259 1.399 . S
C1260 C1261 1.376 . S
C1261 H1248 0.930 . S
C1261 C1260 1.376 . S
C1261 C1262 1.388 . S
C1262 H1249 0.930 . S
C1262 C1261 1.388 . S
C1262 C1263 1.390 . S
C1263 C1262 1.390 . S
C1263 C1264 1.394 . S
C1263 C1269 1.465 . S
C1264 C1259 1.399 . S
C1264 C1263 1.394 . S
C1264 C1265 1.516 . S
C1265 C1264 1.516 . S
C1265 C1266 1.502 . S
C1265 C1267 1.561 . S
C1265 C1268 1.526 . S
C1266 H1250 0.959 . S
C1266 H1251 0.959 . S
C1266 H1252 0.961 . S
C1266 C1265 1.502 . S
C1267 H1253 0.960 . S
C1267 H1254 0.961 . S
C1267 H1255 0.959 . S
C1267 C1265 1.561 . S
C1268 C1265 1.526 . S
C1268 C1269 1.396 . S
C1268 C1273 1.390 . S
C1269 C1263 1.465 . S
C1269 C1268 1.396 . S
C1269 C1270 1.399 . S
C1270 H1256 0.929 . S
C1270 C1269 1.399 . S
C1270 C1271 1.385 . S
C1271 H1257 0.931 . S
C1271 C1270 1.385 . S
C1271 C1272 1.389 . S
C1272 C1271 1.389 . S
C1272 C1273 1.387 . S
C1273 H1258 0.930 . S
C1273 C1268 1.390 . S
C1273 C1272 1.387 . S
H1274 C1286 0.930 . S
H1275 C1288 0.930 . S
H1276 C1289 0.930 . S
H1277 C1293 0.959 . S
H1278 C1293 0.959 . S
H1279 C1293 0.961 . S
H1280 C1294 0.960 . S
H1281 C1294 0.961 . S
H1282 C1294 0.959 . S
H1283 C1297 0.929 . S
H1284 C1298 0.931 . S
H1285 C1300 0.930 . S
C1286 H1274 0.930 . S
C1286 C1287 1.399 . S
C1286 C1291 1.399 . S
C1287 C1286 1.399 . S
C1287 C1288 1.376 . S
C1288 H1275 0.930 . S
C1288 C1287 1.376 . S
C1288 C1289 1.388 . S
C1289 H1276 0.930 . S
C1289 C1288 1.388 . S
C1289 C1290 1.390 . S
C1290 C1289 1.390 . S
C1290 C1291 1.394 . S
C1290 C1296 1.465 . S
C1291 C1286 1.399 . S
C1291 C1290 1.394 . S
C1291 C1292 1.516 . S
C1292 C1291 1.516 . S
C1292 C1293 1.502 . S
C1292 C1294 1.561 . S
C1292 C1295 1.526 . S
C1293 H1277 0.959 . S
C1293 H1278 0.959 . S
C1293 H1279 0.961 . S
C1293 C1292 1.502 . S
C1294 H1280 0.960 . S
C1294 H1281 0.961 . S
C1294 H1282 0.959 . S
C1294 C1292 1.561 . S
C1295 C1292 1.526 . S
C1295 C1296 1.396 . S
C1295 C1300 1.390 . S
C1296 C1290 1.465 . S
C1296 C1295 1.396 . S
C1296 C1297 1.399 . S
C1297 H1283 0.929 . S
C1297 C1296 1.399 . S
C1297 C1298 1.385 . S
C1298 H1284 0.931 . S
C1298 C1297 1.385 . S
C1298 C1299 1.389 . S
C1299 C1298 1.389 . S
C1299 C1300 1.387 . S
C1300 H1285 0.930 . S
C1300 C1295 1.390 . S
C1300 C1299 1.387 . S
H1301 C1313 0.930 . S
H1302 C1315 0.930 . S
H1303 C1316 0.930 . S
H1304 C1320 0.959 1_455 S
H1305 C1320 0.955 1_455 S
H1306 C1320 0.961 1_455 S
H1307 C1321 0.960 . S
H1308 C1321 0.961 . S
H1309 C1321 0.959 . S
H1310 C1324 0.929 . S
H1311 C1325 0.931 . S
H1312 C1327 0.930 . S
C1313 H1301 0.930 . S
C1313 C1314 1.399 . S
C1313 C1318 1.399 . S
C1314 C1313 1.399 . S
C1314 C1315 1.376 . S
C1315 H1302 0.930 . S
C1315 C1314 1.376 . S
C1315 C1316 1.388 . S
C1316 H1303 0.930 . S
C1316 C1315 1.388 . S
C1316 C1317 1.390 . S
C1317 C1316 1.390 . S
C1317 C1318 1.394 . S
C1317 C1323 1.465 . S
C1318 C1313 1.399 . S
C1318 C1317 1.394 . S
C1318 C1319 1.516 . S
C1319 C1318 1.516 . S
C1319 C1320 1.502 . S
C1319 C1321 1.561 . S
C1319 C1322 1.526 . S
C1320 H1304 0.959 1_655 S
C1320 H1305 0.955 1_655 S
C1320 H1306 0.961 1_655 S
C1320 C1319 1.502 . S
C1321 H1307 0.960 . S
C1321 H1308 0.961 . S
C1321 H1309 0.959 . S
C1321 C1319 1.561 . S
C1322 C1319 1.526 . S
C1322 C1323 1.396 . S
C1322 C1327 1.390 . S
C1323 C1317 1.465 . S
C1323 C1322 1.396 . S
C1323 C1324 1.399 . S
C1324 H1310 0.929 . S
C1324 C1323 1.399 . S
C1324 C1325 1.385 . S
C1325 H1311 0.931 . S
C1325 C1324 1.385 . S
C1325 C1326 1.389 . S
C1326 C1325 1.389 . S
C1326 C1327 1.387 . S
C1327 H1312 0.930 . S
C1327 C1322 1.390 . S
C1327 C1326 1.387 . S
H1328 C1340 0.930 . S
H1329 C1342 0.930 . S
H1330 C1343 0.930 . S
H1331 C1347 0.959 . S
H1332 C1347 0.959 . S
H1333 C1347 0.961 . S
H1334 C1348 0.960 . S
H1335 C1348 0.961 . S
H1336 C1348 0.959 . S
H1337 C1351 0.929 1_556 S
H1338 C1352 0.931 . S
H1339 C1354 0.930 . S
C1340 H1328 0.930 . S
C1340 C1341 1.399 1_545 S
C1340 C1345 1.399 . S
C1341 C1340 1.399 1_565 S
C1341 C1342 1.376 . S
C1342 H1329 0.930 . S
C1342 C1341 1.376 . S
C1342 C1343 1.388 . S
C1343 H1330 0.930 . S
C1343 C1342 1.388 . S
C1343 C1344 1.390 . S
C1344 C1343 1.390 . S
C1344 C1345 1.394 1_565 S
C1344 C1350 1.465 1_556 S
C1345 C1340 1.399 . S
C1345 C1344 1.394 1_545 S
C1345 C1346 1.516 1_556 S
C1346 C1345 1.516 1_554 S
C1346 C1347 1.502 . S
C1346 C1348 1.561 1_545 S
C1346 C1349 1.526 . S
C1347 H1331 0.959 . S
C1347 H1332 0.959 . S
C1347 H1333 0.961 . S
C1347 C1346 1.502 . S
C1348 H1334 0.960 . S
C1348 H1335 0.961 . S
C1348 H1336 0.959 . S
C1348 C1346 1.561 1_565 S
C1349 C1346 1.526 . S
C1349 C1350 1.396 1_545 S
C1349 C1354 1.390 . S
C1350 C1344 1.465 1_554 S
C1350 C1349 1.396 1_565 S
C1350 C1351 1.399 . S
C1351 H1337 0.929 1_554 S
C1351 C1350 1.399 . S
C1351 C1352 1.385 . S
C1352 H1338 0.931 . S
C1352 C1351 1.385 . S
C1352 C1353 1.389 1_565 S
C1353 C1352 1.389 1_545 S
C1353 C1354 1.387 . S
C1354 H1339 0.930 . S
C1354 C1349 1.390 . S
C1354 C1353 1.387 . S
H1355 C1367 0.930 . S
H1356 C1369 0.930 . S
H1357 C1370 0.930 . S
H1358 C1374 0.959 . S
H1359 C1374 0.959 . S
H1360 C1374 0.961 . S
H1361 C1375 0.960 . S
H1362 C1375 0.961 . S
H1363 C1375 0.959 . S
H1364 C1378 0.921 1_556 S
H1365 C1379 0.931 . S
H1366 C1381 0.930 . S
C1367 H1355 0.930 . S
C1367 C1368 1.399 . S
C1367 C1372 1.399 . S
C1368 C1367 1.399 . S
C1368 C1369 1.376 . S
C1369 H1356 0.930 . S
C1369 C1368 1.376 . S
C1369 C1370 1.388 . S
C1370 H1357 0.930 . S
C1370 C1369 1.388 . S
C1370 C1371 1.390 . S
C1371 C1370 1.390 . S
C1371 C1372 1.394 . S
C1371 C1377 1.465 1_556 S
C1372 C1367 1.399 . S
C1372 C1371 1.394 . S
C1372 C1373 1.516 1_556 S
C1373 C1372 1.516 1_554 S
C1373 C1374 1.502 . S
C1373 C1375 1.561 . S
C1373 C1376 1.526 . S
C1374 H1358 0.959 . S
C1374 H1359 0.959 . S
C1374 H1360 0.961 . S
C1374 C1373 1.502 . S
C1375 H1361 0.960 . S
C1375 H1362 0.961 . S
C1375 H1363 0.959 . S
C1375 C1373 1.561 . S
C1376 C1373 1.526 . S
C1376 C1377 1.396 . S
C1376 C1381 1.390 . S
C1377 C1371 1.465 1_554 S
C1377 C1376 1.396 . S
C1377 C1378 1.399 . S
C1378 H1364 0.921 1_554 S
C1378 C1377 1.399 . S
C1378 C1379 1.393 . S
C1379 H1365 0.931 . S
C1379 C1378 1.393 . S
C1379 C1380 1.389 . S
C1380 C1379 1.389 . S
C1380 C1381 1.387 . S
C1381 H1366 0.930 . S
C1381 C1376 1.390 . S
C1381 C1380 1.387 . S
H1382 C1394 0.930 . S
H1383 C1396 0.930 . S
H1384 C1397 0.930 . S
H1385 C1401 0.959 . S
H1386 C1401 0.959 . S
H1387 C1401 0.961 . S
H1388 C1402 0.960 . S
H1389 C1402 0.961 . S
H1390 C1402 0.959 . S
H1391 C1405 0.929 . S
H1392 C1406 0.931 . S
H1393 C1408 0.930 . S
C1394 H1382 0.930 . S
C1394 C1395 1.399 . S
C1394 C1399 1.399 . S
C1395 C1394 1.399 . S
C1395 C1396 1.376 . S
C1396 H1383 0.930 . S
C1396 C1395 1.376 . S
C1396 C1397 1.388 . S
C1397 H1384 0.930 . S
C1397 C1396 1.388 . S
C1397 C1398 1.390 . S
C1398 C1397 1.390 . S
C1398 C1399 1.394 . S
C1398 C1404 1.465 1_456 S
C1399 C1394 1.399 . S
C1399 C1398 1.394 . S
C1399 C1400 1.500 1_456 S
C1400 C1399 1.500 1_654 S
C1400 C1401 1.486 1_655 S
C1400 C1402 1.580 1_554 S
C1400 C1403 1.543 . S
C1401 H1385 0.959 . S
C1401 H1386 0.959 . S
C1401 H1387 0.961 . S
C1401 C1400 1.486 1_455 S
C1402 H1388 0.960 . S
C1402 H1389 0.961 . S
C1402 H1390 0.959 . S
C1402 C1400 1.580 1_556 S
C1403 C1400 1.543 . S
C1403 C1404 1.396 . S
C1403 C1408 1.390 . S
C1404 C1398 1.465 1_654 S
C1404 C1403 1.396 . S
C1404 C1405 1.399 . S
C1405 H1391 0.929 . S
C1405 C1404 1.399 . S
C1405 C1406 1.385 . S
C1406 H1392 0.931 . S
C1406 C1405 1.385 . S
C1406 C1407 1.389 . S
C1407 C1406 1.389 . S
C1407 C1408 1.387 . S
C1408 H1393 0.930 . S
C1408 C1403 1.390 . S
C1408 C1407 1.387 . S
H1409 C1421 0.930 . S
H1410 C1423 0.930 . S
H1411 C1424 0.930 1_565 S
H1412 C1428 0.959 . S
H1413 C1428 0.959 . S
H1414 C1428 0.961 . S
H1415 C1429 0.960 . S
H1416 C1429 0.961 . S
H1417 C1429 0.959 1_655 S
H1418 C1432 0.929 1_556 S
H1419 C1433 0.931 . S
H1420 C1435 0.930 . S
C1421 H1409 0.930 . S
C1421 C1422 1.399 1_455 S
C1421 C1426 1.399 . S
C1422 C1421 1.399 1_655 S
C1422 C1423 1.376 . S
C1423 H1410 0.930 . S
C1423 C1422 1.376 . S
C1423 C1424 1.388 . S
C1424 H1411 0.930 1_545 S
C1424 C1423 1.388 . S
C1424 C1425 1.390 . S
C1425 C1424 1.390 . S
C1425 C1426 1.394 1_655 S
C1425 C1431 1.465 1_546 S
C1426 C1421 1.399 . S
C1426 C1425 1.394 1_455 S
C1426 C1427 1.516 1_556 S
C1427 C1426 1.516 1_554 S
C1427 C1428 1.502 . S
C1427 C1429 1.561 . S
C1427 C1430 1.526 1_545 S
C1428 H1412 0.959 . S
C1428 H1413 0.959 . S
C1428 H1414 0.961 . S
C1428 C1427 1.502 . S
C1429 H1415 0.960 . S
C1429 H1416 0.961 . S
C1429 H1417 0.959 1_455 S
C1429 C1427 1.561 . S
C1430 C1427 1.526 1_565 S
C1430 C1431 1.396 1_455 S
C1430 C1435 1.390 . S
C1431 C1425 1.465 1_564 S
C1431 C1430 1.396 1_655 S
C1431 C1432 1.399 . S
C1432 H1418 0.929 1_554 S
C1432 C1431 1.399 . S
C1432 C1433 1.385 . S
C1433 H1419 0.931 . S
C1433 C1432 1.385 . S
C1433 C1434 1.389 1_655 S
C1434 C1433 1.389 1_455 S
C1434 C1435 1.387 . S
C1435 H1420 0.930 . S
C1435 C1430 1.390 . S
C1435 C1434 1.387 . S
H1436 C1448 0.930 . S
H1437 C1450 0.930 . S
H1438 C1451 0.930 . S
H1439 C1455 0.959 . S
H1440 C1455 0.959 . S
H1441 C1455 0.961 . S
H1442 C1456 0.960 . S
H1443 C1456 0.961 . S
H1444 C1456 0.959 . S
H1445 C1459 0.929 . S
H1446 C1460 0.931 . S
H1447 C1462 0.930 . S
C1448 H1436 0.930 . S
C1448 C1449 1.399 . S
C1448 C1453 1.399 . S
C1449 C1448 1.399 . S
C1449 C1450 1.376 . S
C1450 H1437 0.930 . S
C1450 C1449 1.376 . S
C1450 C1451 1.388 . S
C1451 H1438 0.930 . S
C1451 C1450 1.388 . S
C1451 C1452 1.390 . S
C1452 C1451 1.390 . S
C1452 C1453 1.394 . S
C1452 C1458 1.465 . S
C1453 C1448 1.399 . S
C1453 C1452 1.394 . S
C1453 C1454 1.516 . S
C1454 C1453 1.516 . S
C1454 C1455 1.502 . S
C1454 C1456 1.561 . S
C1454 C1457 1.526 . S
C1455 H1439 0.959 . S
C1455 H1440 0.959 . S
C1455 H1441 0.961 . S
C1455 C1454 1.502 . S
C1456 H1442 0.960 . S
C1456 H1443 0.961 . S
C1456 H1444 0.959 . S
C1456 C1454 1.561 . S
C1457 C1454 1.526 . S
C1457 C1458 1.396 . S
C1457 C1462 1.390 . S
C1458 C1452 1.465 . S
C1458 C1457 1.396 . S
C1458 C1459 1.399 . S
C1459 H1445 0.929 . S
C1459 C1458 1.399 . S
C1459 C1460 1.385 . S
C1460 H1446 0.931 . S
C1460 C1459 1.385 . S
C1460 C1461 1.389 . S
C1461 C1460 1.389 . S
C1461 C1462 1.387 . S
C1462 H1447 0.930 . S
C1462 C1457 1.390 . S
C1462 C1461 1.387 . S
H1463 C1475 0.930 . S
H1464 C1477 0.930 . S
H1465 C1478 0.930 . S
H1466 C1482 0.959 . S
H1467 C1482 0.959 . S
H1468 C1482 0.961 . S
H1469 C1483 0.960 . S
H1470 C1483 0.961 . S
H1471 C1483 0.959 1_655 S
H1472 C1486 0.929 . S
H1473 C1487 0.931 . S
H1474 C1489 0.930 . S
C1475 H1463 0.930 . S
C1475 C1476 1.399 . S
C1475 C1480 1.399 . S
C1476 C1475 1.399 . S
C1476 C1477 1.376 1_455 S
C1477 H1464 0.930 . S
C1477 C1476 1.376 1_655 S
C1477 C1478 1.388 . S
C1478 H1465 0.930 . S
C1478 C1477 1.388 . S
C1478 C1479 1.390 . S
C1479 C1478 1.390 . S
C1479 C1480 1.394 1_655 S
C1479 C1485 1.465 . S
C1480 C1475 1.399 . S
C1480 C1479 1.394 1_455 S
C1480 C1481 1.516 . S
C1481 C1480 1.516 . S
C1481 C1482 1.502 . S
C1481 C1483 1.561 . S
C1481 C1484 1.526 . S
C1482 H1466 0.959 . S
C1482 H1467 0.959 . S
C1482 H1468 0.961 . S
C1482 C1481 1.502 . S
C1483 H1469 0.960 . S
C1483 H1470 0.961 . S
C1483 H1471 0.959 1_455 S
C1483 C1481 1.561 . S
C1484 C1481 1.526 . S
C1484 C1485 1.396 1_455 S
C1484 C1489 1.390 . S
C1485 C1479 1.465 . S
C1485 C1484 1.396 1_655 S
C1485 C1486 1.399 . S
C1486 H1472 0.929 . S
C1486 C1485 1.399 . S
C1486 C1487 1.385 . S
C1487 H1473 0.931 . S
C1487 C1486 1.385 . S
C1487 C1488 1.389 . S
C1488 C1487 1.389 . S
C1488 C1489 1.387 1_655 S
C1489 H1474 0.930 . S
C1489 C1484 1.390 . S
C1489 C1488 1.387 1_455 S
H1490 C1502 0.930 . S
H1491 C1504 0.930 . S
H1492 C1505 0.930 1_455 S
H1493 C1509 0.959 . S
H1494 C1509 0.959 . S
H1495 C1509 0.961 . S
H1496 C1510 0.948 1_655 S
H1497 C1510 0.966 . S
H1498 C1510 0.972 . S
H1499 C1513 0.929 . S
H1500 C1514 0.931 . S
H1501 C1516 0.930 . S
C1502 H1490 0.930 . S
C1502 C1503 1.399 1_565 S
C1502 C1507 1.399 . S
C1503 C1502 1.399 1_545 S
C1503 C1504 1.376 . S
C1504 H1491 0.930 . S
C1504 C1503 1.376 . S
C1504 C1505 1.388 . S
C1505 H1492 0.930 1_655 S
C1505 C1504 1.388 . S
C1505 C1506 1.390 . S
C1506 C1505 1.390 . S
C1506 C1507 1.394 1_545 S
C1506 C1512 1.465 1_655 S
C1507 C1502 1.399 . S
C1507 C1506 1.394 1_565 S
C1507 C1508 1.516 . S
C1508 C1507 1.516 . S
C1508 C1509 1.502 . S
C1508 C1510 1.555 1_655 S
C1508 C1511 1.526 1_655 S
C1509 H1493 0.959 . S
C1509 H1494 0.959 . S
C1509 H1495 0.961 . S
C1509 C1508 1.502 . S
C1510 H1496 0.948 1_455 S
C1510 H1497 0.966 . S
C1510 H1498 0.972 . S
C1510 C1508 1.555 1_455 S
C1511 C1508 1.526 1_455 S
C1511 C1512 1.396 1_565 S
C1511 C1516 1.390 . S
C1512 C1506 1.465 1_455 S
C1512 C1511 1.396 1_545 S
C1512 C1513 1.399 . S
C1513 H1499 0.929 . S
C1513 C1512 1.399 . S
C1513 C1514 1.385 . S
C1514 H1500 0.931 . S
C1514 C1513 1.385 . S
C1514 C1515 1.389 1_545 S
C1515 C1514 1.389 1_565 S
C1515 C1516 1.387 . S
C1516 H1501 0.930 . S
C1516 C1511 1.390 . S
C1516 C1515 1.387 . S
H1517 C1529 0.930 . S
H1518 C1531 0.930 . S
H1519 C1532 0.930 . S
H1520 C1536 0.959 . S
H1521 C1536 0.959 . S
H1522 C1536 0.961 . S
H1523 C1537 0.960 . S
H1524 C1537 0.961 . S
H1525 C1537 0.959 . S
H1526 C1540 0.929 1_565 S
H1527 C1541 0.931 . S
H1528 C1543 0.930 . S
C1529 H1517 0.930 . S
C1529 C1530 1.399 . S
C1529 C1534 1.399 . S
C1530 C1529 1.399 . S
C1530 C1531 1.376 . S
C1531 H1518 0.930 . S
C1531 C1530 1.376 . S
C1531 C1532 1.388 . S
C1532 H1519 0.930 . S
C1532 C1531 1.388 . S
C1532 C1533 1.390 . S
C1533 C1532 1.390 . S
C1533 C1534 1.394 . S
C1533 C1539 1.465 1_565 S
C1534 C1529 1.399 . S
C1534 C1533 1.394 . S
C1534 C1535 1.516 1_565 S
C1535 C1534 1.516 1_545 S
C1535 C1536 1.502 . S
C1535 C1537 1.561 . S
C1535 C1538 1.526 . S
C1536 H1520 0.959 . S
C1536 H1521 0.959 . S
C1536 H1522 0.961 . S
C1536 C1535 1.502 . S
C1537 H1523 0.960 . S
C1537 H1524 0.961 . S
C1537 H1525 0.959 . S
C1537 C1535 1.561 . S
C1538 C1535 1.526 . S
C1538 C1539 1.396 . S
C1538 C1543 1.390 . S
C1539 C1533 1.465 1_545 S
C1539 C1538 1.396 . S
C1539 C1540 1.399 . S
C1540 H1526 0.929 1_545 S
C1540 C1539 1.399 . S
C1540 C1541 1.385 . S
C1541 H1527 0.931 . S
C1541 C1540 1.385 . S
C1541 C1542 1.389 . S
C1542 C1541 1.389 . S
C1542 C1543 1.387 . S
C1543 H1528 0.930 . S
C1543 C1538 1.390 . S
C1543 C1542 1.387 . S
H1544 C1556 0.930 . S
H1545 C1558 0.930 . S
H1546 C1559 0.930 . S
H1547 C1563 0.959 . S
H1548 C1563 0.959 . S
H1549 C1563 0.961 . S
H1550 C1564 0.960 . S
H1551 C1564 0.961 . S
H1552 C1564 0.959 . S
H1553 C1567 0.929 . S
H1554 C1568 0.931 . S
H1555 C1570 0.930 . S
C1556 H1544 0.930 . S
C1556 C1557 1.399 . S
C1556 C1561 1.399 . S
C1557 C1556 1.399 . S
C1557 C1558 1.376 . S
C1558 H1545 0.930 . S
C1558 C1557 1.376 . S
C1558 C1559 1.388 . S
C1559 H1546 0.930 . S
C1559 C1558 1.388 . S
C1559 C1560 1.390 . S
C1560 C1559 1.390 . S
C1560 C1561 1.394 . S
C1560 C1566 1.465 . S
C1561 C1556 1.399 . S
C1561 C1560 1.394 . S
C1561 C1562 1.516 . S
C1562 C1561 1.516 . S
C1562 C1563 1.502 . S
C1562 C1564 1.561 . S
C1562 C1565 1.526 . S
C1563 H1547 0.959 . S
C1563 H1548 0.959 . S
C1563 H1549 0.961 . S
C1563 C1562 1.502 . S
C1564 H1550 0.960 . S
C1564 H1551 0.961 . S
C1564 H1552 0.959 . S
C1564 C1562 1.561 . S
C1565 C1562 1.526 . S
C1565 C1566 1.396 . S
C1565 C1570 1.390 . S
C1566 C1560 1.465 . S
C1566 C1565 1.396 . S
C1566 C1567 1.399 . S
C1567 H1553 0.929 . S
C1567 C1566 1.399 . S
C1567 C1568 1.385 . S
C1568 H1554 0.931 . S
C1568 C1567 1.385 . S
C1568 C1569 1.389 . S
C1569 C1568 1.389 . S
C1569 C1570 1.387 . S
C1570 H1555 0.930 . S
C1570 C1565 1.390 . S
C1570 C1569 1.387 . S
H1571 C1583 0.930 . S
H1572 C1585 0.930 . S
H1573 C1586 0.930 . S
H1574 C1590 0.959 . S
H1575 C1590 0.959 . S
H1576 C1590 0.961 . S
H1577 C1591 0.960 . S
H1578 C1591 0.961 . S
H1579 C1591 0.959 . S
H1580 C1594 0.929 . S
H1581 C1595 0.931 . S
H1582 C1597 0.930 . S
C1583 H1571 0.930 . S
C1583 C1584 1.399 . S
C1583 C1588 1.399 . S
C1584 C1583 1.399 . S
C1584 C1585 1.376 . S
C1585 H1572 0.930 . S
C1585 C1584 1.376 . S
C1585 C1586 1.388 . S
C1586 H1573 0.930 . S
C1586 C1585 1.388 . S
C1586 C1587 1.390 . S
C1587 C1586 1.390 . S
C1587 C1588 1.394 . S
C1587 C1593 1.465 . S
C1588 C1583 1.399 . S
C1588 C1587 1.394 . S
C1588 C1589 1.516 . S
C1589 C1588 1.516 . S
C1589 C1590 1.502 . S
C1589 C1591 1.561 . S
C1589 C1592 1.526 . S
C1590 H1574 0.959 . S
C1590 H1575 0.959 . S
C1590 H1576 0.961 . S
C1590 C1589 1.502 . S
C1591 H1577 0.960 . S
C1591 H1578 0.961 . S
C1591 H1579 0.959 . S
C1591 C1589 1.561 . S
C1592 C1589 1.526 . S
C1592 C1593 1.396 . S
C1592 C1597 1.390 . S
C1593 C1587 1.465 . S
C1593 C1592 1.396 . S
C1593 C1594 1.399 . S
C1594 H1580 0.929 . S
C1594 C1593 1.399 . S
C1594 C1595 1.385 . S
C1595 H1581 0.931 . S
C1595 C1594 1.385 . S
C1595 C1596 1.389 . S
C1596 C1595 1.389 . S
C1596 C1597 1.387 . S
C1597 H1582 0.930 . S
C1597 C1592 1.390 . S
C1597 C1596 1.387 . S
H1598 C1610 0.930 . S
H1599 C1612 0.930 . S
H1600 C1613 0.930 . S
H1601 C1617 0.959 . S
H1602 C1617 0.959 . S
H1603 C1617 0.961 . S
H1604 C1618 0.960 . S
H1605 C1618 0.961 . S
H1606 C1618 0.959 . S
H1607 C1621 0.929 . S
H1608 C1622 0.931 . S
H1609 C1624 0.930 . S
C1610 H1598 0.930 . S
C1610 C1611 1.399 . S
C1610 C1615 1.399 . S
C1611 C1610 1.399 . S
C1611 C1612 1.376 . S
C1612 H1599 0.930 . S
C1612 C1611 1.376 . S
C1612 C1613 1.388 . S
C1613 H1600 0.930 . S
C1613 C1612 1.388 . S
C1613 C1614 1.390 . S
C1614 C1613 1.390 . S
C1614 C1615 1.394 . S
C1614 C1620 1.465 . S
C1615 C1610 1.399 . S
C1615 C1614 1.394 . S
C1615 C1616 1.516 . S
C1616 C1615 1.516 . S
C1616 C1617 1.502 . S
C1616 C1618 1.561 . S
C1616 C1619 1.526 . S
C1617 H1601 0.959 . S
C1617 H1602 0.959 . S
C1617 H1603 0.961 . S
C1617 C1616 1.502 . S
C1618 H1604 0.960 . S
C1618 H1605 0.961 . S
C1618 H1606 0.959 . S
C1618 C1616 1.561 . S
C1619 C1616 1.526 . S
C1619 C1620 1.396 . S
C1619 C1624 1.390 . S
C1620 C1614 1.465 . S
C1620 C1619 1.396 . S
C1620 C1621 1.399 . S
C1621 H1607 0.929 . S
C1621 C1620 1.399 . S
C1621 C1622 1.385 . S
C1622 H1608 0.931 . S
C1622 C1621 1.385 . S
C1622 C1623 1.389 . S
C1623 C1622 1.389 . S
C1623 C1624 1.387 . S
C1624 H1609 0.930 . S
C1624 C1619 1.390 . S
C1624 C1623 1.387 . S
H1625 C1637 0.930 . S
H1626 C1639 0.930 . S
H1627 C1640 0.930 1_545 S
H1628 C1644 0.959 . S
H1629 C1644 0.959 . S
H1630 C1644 0.961 . S
H1631 C1645 0.960 . S
H1632 C1645 0.961 . S
H1633 C1645 0.959 . S
H1634 C1648 0.929 . S
H1635 C1649 0.931 . S
H1636 C1651 0.930 . S
C1637 H1625 0.930 . S
C1637 C1638 1.399 . S
C1637 C1642 1.399 . S
C1638 C1637 1.399 . S
C1638 C1639 1.376 1_565 S
C1639 H1626 0.930 . S
C1639 C1638 1.376 1_545 S
C1639 C1640 1.388 1_545 S
C1640 H1627 0.930 1_565 S
C1640 C1639 1.388 1_565 S
C1640 C1641 1.390 . S
C1641 C1640 1.390 . S
C1641 C1642 1.394 . S
C1641 C1647 1.465 . S
C1642 C1637 1.399 . S
C1642 C1641 1.394 . S
C1642 C1643 1.516 . S
C1643 C1642 1.516 . S
C1643 C1644 1.502 . S
C1643 C1645 1.561 . S
C1643 C1646 1.526 . S
C1644 H1628 0.959 . S
C1644 H1629 0.959 . S
C1644 H1630 0.961 . S
C1644 C1643 1.502 . S
C1645 H1631 0.960 . S
C1645 H1632 0.961 . S
C1645 H1633 0.959 . S
C1645 C1643 1.561 . S
C1646 C1643 1.526 . S
C1646 C1647 1.396 . S
C1646 C1651 1.390 . S
C1647 C1641 1.465 . S
C1647 C1646 1.396 . S
C1647 C1648 1.399 . S
C1648 H1634 0.929 . S
C1648 C1647 1.399 . S
C1648 C1649 1.385 . S
C1649 H1635 0.931 . S
C1649 C1648 1.385 . S
C1649 C1650 1.389 . S
C1650 C1649 1.389 . S
C1650 C1651 1.387 . S
C1651 H1636 0.930 . S
C1651 C1646 1.390 . S
C1651 C1650 1.387 . S
H1652 C1664 0.930 . S
H1653 C1666 0.930 . S
H1654 C1667 0.930 . S
H1655 C1671 0.959 . S
H1656 C1671 0.959 . S
H1657 C1671 0.961 . S
H1658 C1672 0.960 . S
H1659 C1672 0.961 . S
H1660 C1672 0.959 . S
H1661 C1675 0.929 . S
H1662 C1676 0.931 . S
H1663 C1678 0.930 . S
C1664 H1652 0.930 . S
C1664 C1665 1.399 . S
C1664 C1669 1.399 . S
C1665 C1664 1.399 . S
C1665 C1666 1.376 . S
C1666 H1653 0.930 . S
C1666 C1665 1.376 . S
C1666 C1667 1.388 . S
C1667 H1654 0.930 . S
C1667 C1666 1.388 . S
C1667 C1668 1.390 . S
C1668 C1667 1.390 . S
C1668 C1669 1.394 . S
C1668 C1674 1.465 . S
C1669 C1664 1.399 . S
C1669 C1668 1.394 . S
C1669 C1670 1.516 . S
C1670 C1669 1.516 . S
C1670 C1671 1.502 . S
C1670 C1672 1.561 . S
C1670 C1673 1.526 . S
C1671 H1655 0.959 . S
C1671 H1656 0.959 . S
C1671 H1657 0.961 . S
C1671 C1670 1.502 . S
C1672 H1658 0.960 . S
C1672 H1659 0.961 . S
C1672 H1660 0.959 . S
C1672 C1670 1.561 . S
C1673 C1670 1.526 . S
C1673 C1674 1.396 . S
C1673 C1678 1.390 . S
C1674 C1668 1.465 . S
C1674 C1673 1.396 . S
C1674 C1675 1.399 . S
C1675 H1661 0.929 . S
C1675 C1674 1.399 . S
C1675 C1676 1.385 . S
C1676 H1662 0.931 . S
C1676 C1675 1.385 . S
C1676 C1677 1.389 . S
C1677 C1676 1.389 . S
C1677 C1678 1.387 . S
C1678 H1663 0.930 . S
C1678 C1673 1.390 . S
C1678 C1677 1.387 . S
H1679 C1691 0.930 . S
H1680 C1693 0.930 . S
H1681 C1694 0.930 . S
H1682 C1698 0.959 . S
H1683 C1698 0.959 . S
H1684 C1698 0.961 . S
H1685 C1699 0.960 . S
H1686 C1699 0.961 . S
H1687 C1699 0.959 . S
H1688 C1702 0.929 . S
H1689 C1703 0.931 . S
H1690 C1705 0.930 . S
C1691 H1679 0.930 . S
C1691 C1692 1.399 . S
C1691 C1696 1.399 . S
C1692 C1691 1.399 . S
C1692 C1693 1.376 . S
C1693 H1680 0.930 . S
C1693 C1692 1.376 . S
C1693 C1694 1.388 . S
C1694 H1681 0.930 . S
C1694 C1693 1.388 . S
C1694 C1695 1.390 . S
C1695 C1694 1.390 . S
C1695 C1696 1.394 . S
C1695 C1701 1.465 . S
C1696 C1691 1.399 . S
C1696 C1695 1.394 . S
C1696 C1697 1.516 . S
C1697 C1696 1.516 . S
C1697 C1698 1.502 . S
C1697 C1699 1.561 . S
C1697 C1700 1.526 . S
C1698 H1682 0.959 . S
C1698 H1683 0.959 . S
C1698 H1684 0.961 . S
C1698 C1697 1.502 . S
C1699 H1685 0.960 . S
C1699 H1686 0.961 . S
C1699 H1687 0.959 . S
C1699 C1697 1.561 . S
C1700 C1697 1.526 . S
C1700 C1701 1.396 . S
C1700 C1705 1.390 . S
C1701 C1695 1.465 . S
C1701 C1700 1.396 . S
C1701 C1702 1.399 . S
C1702 H1688 0.929 . S
C1702 C1701 1.399 . S
C1702 C1703 1.385 . S
C1703 H1689 0.931 . S
C1703 C1702 1.385 . S
C1703 C1704 1.389 . S
C1704 C1703 1.389 . S
C1704 C1705 1.387 . S
C1705 H1690 0.930 . S
C1705 C1700 1.390 . S
C1705 C1704 1.387 . S
H1706 C1718 0.930 . S
H1707 C1720 0.930 . S
H1708 C1721 0.930 . S
H1709 C1725 0.959 . S
H1710 C1725 0.959 . S
H1711 C1725 0.961 . S
H1712 C1726 0.960 . S
H1713 C1726 0.961 . S
H1714 C1726 0.959 . S
H1715 C1729 0.929 1_455 S
H1716 C1730 0.931 . S
H1717 C1732 0.930 . S
C1718 H1706 0.930 . S
C1718 C1719 1.399 . S
C1718 C1723 1.399 . S
C1719 C1718 1.399 . S
C1719 C1720 1.376 . S
C1720 H1707 0.930 . S
C1720 C1719 1.376 . S
C1720 C1721 1.388 . S
C1721 H1708 0.930 . S
C1721 C1720 1.388 . S
C1721 C1722 1.390 . S
C1722 C1721 1.390 . S
C1722 C1723 1.394 . S
C1722 C1728 1.465 . S
C1723 C1718 1.399 . S
C1723 C1722 1.394 . S
C1723 C1724 1.516 . S
C1724 C1723 1.516 . S
C1724 C1725 1.502 . S
C1724 C1726 1.561 . S
C1724 C1727 1.526 . S
C1725 H1709 0.959 . S
C1725 H1710 0.959 . S
C1725 H1711 0.961 . S
C1725 C1724 1.502 . S
C1726 H1712 0.960 . S
C1726 H1713 0.961 . S
C1726 H1714 0.959 . S
C1726 C1724 1.561 . S
C1727 C1724 1.526 . S
C1727 C1728 1.396 . S
C1727 C1732 1.390 . S
C1728 C1722 1.465 . S
C1728 C1727 1.396 . S
C1728 C1729 1.399 . S
C1729 H1715 0.929 1_655 S
C1729 C1728 1.399 . S
C1729 C1730 1.385 1_655 S
C1730 H1716 0.931 . S
C1730 C1729 1.385 1_455 S
C1730 C1731 1.389 1_455 S
C1731 C1730 1.389 1_655 S
C1731 C1732 1.387 . S
C1732 H1717 0.930 . S
C1732 C1727 1.390 . S
C1732 C1731 1.387 . S
H1733 C1745 0.930 . S
H1734 C1747 0.930 . S
H1735 C1748 0.930 . S
H1736 C1752 0.959 . S
H1737 C1752 0.959 . S
H1738 C1752 0.961 . S
H1739 C1753 0.960 . S
H1740 C1753 0.961 . S
H1741 C1753 0.959 . S
H1742 C1756 0.929 . S
H1743 C1757 0.931 . S
H1744 C1759 0.930 . S
C1745 H1733 0.930 . S
C1745 C1746 1.399 . S
C1745 C1750 1.399 . S
C1746 C1745 1.399 . S
C1746 C1747 1.376 . S
C1747 H1734 0.930 . S
C1747 C1746 1.376 . S
C1747 C1748 1.388 . S
C1748 H1735 0.930 . S
C1748 C1747 1.388 . S
C1748 C1749 1.390 . S
C1749 C1748 1.390 . S
C1749 C1750 1.394 . S
C1749 C1755 1.465 . S
C1750 C1745 1.399 . S
C1750 C1749 1.394 . S
C1750 C1751 1.516 . S
C1751 C1750 1.516 . S
C1751 C1752 1.502 . S
C1751 C1753 1.561 . S
C1751 C1754 1.526 . S
C1752 H1736 0.959 . S
C1752 H1737 0.959 . S
C1752 H1738 0.961 . S
C1752 C1751 1.502 . S
C1753 H1739 0.960 . S
C1753 H1740 0.961 . S
C1753 H1741 0.959 . S
C1753 C1751 1.561 . S
C1754 C1751 1.526 . S
C1754 C1755 1.396 . S
C1754 C1759 1.390 . S
C1755 C1749 1.465 . S
C1755 C1754 1.396 . S
C1755 C1756 1.399 . S
C1756 H1742 0.929 . S
C1756 C1755 1.399 . S
C1756 C1757 1.385 . S
C1757 H1743 0.931 . S
C1757 C1756 1.385 . S
C1757 C1758 1.389 . S
C1758 C1757 1.389 . S
C1758 C1759 1.387 . S
C1759 H1744 0.930 . S
C1759 C1754 1.390 . S
C1759 C1758 1.387 . S
H1760 C1772 0.930 . S
H1761 C1774 0.930 . S
H1762 C1775 0.930 . S
H1763 C1779 0.959 . S
H1764 C1779 0.959 . S
H1765 C1779 0.961 . S
H1766 C1780 0.960 . S
H1767 C1780 0.961 . S
H1768 C1780 0.959 . S
H1769 C1783 0.929 . S
H1770 C1784 0.931 . S
H1771 C1786 0.930 . S
C1772 H1760 0.930 . S
C1772 C1773 1.399 . S
C1772 C1777 1.399 . S
C1773 C1772 1.399 . S
C1773 C1774 1.376 . S
C1774 H1761 0.930 . S
C1774 C1773 1.376 . S
C1774 C1775 1.388 . S
C1775 H1762 0.930 . S
C1775 C1774 1.388 . S
C1775 C1776 1.390 . S
C1776 C1775 1.390 . S
C1776 C1777 1.394 . S
C1776 C1782 1.465 . S
C1777 C1772 1.399 . S
C1777 C1776 1.394 . S
C1777 C1778 1.516 . S
C1778 C1777 1.516 . S
C1778 C1779 1.502 . S
C1778 C1780 1.561 . S
C1778 C1781 1.526 . S
C1779 H1763 0.959 . S
C1779 H1764 0.959 . S
C1779 H1765 0.961 . S
C1779 C1778 1.502 . S
C1780 H1766 0.960 . S
C1780 H1767 0.961 . S
C1780 H1768 0.959 . S
C1780 C1778 1.561 . S
C1781 C1778 1.526 . S
C1781 C1782 1.396 . S
C1781 C1786 1.390 . S
C1782 C1776 1.465 . S
C1782 C1781 1.396 . S
C1782 C1783 1.399 . S
C1783 H1769 0.929 . S
C1783 C1782 1.399 . S
C1783 C1784 1.385 . S
C1784 H1770 0.931 . S
C1784 C1783 1.385 . S
C1784 C1785 1.389 . S
C1785 C1784 1.389 . S
C1785 C1786 1.387 . S
C1786 H1771 0.930 . S
C1786 C1781 1.390 . S
C1786 C1785 1.387 . S
H1787 C1799 0.930 . S
H1788 C1801 0.930 . S
H1789 C1802 0.930 . S
H1790 C1806 0.959 . S
H1791 C1806 0.959 . S
H1792 C1806 0.961 . S
H1793 C1807 0.960 . S
H1794 C1807 0.961 . S
H1795 C1807 0.959 . S
H1796 C1810 0.929 . S
H1797 C1811 0.931 . S
H1798 C1813 0.930 . S
C1799 H1787 0.930 . S
C1799 C1800 1.399 . S
C1799 C1804 1.399 . S
C1800 C1799 1.399 . S
C1800 C1801 1.376 . S
C1801 H1788 0.930 . S
C1801 C1800 1.376 . S
C1801 C1802 1.388 . S
C1802 H1789 0.930 . S
C1802 C1801 1.388 . S
C1802 C1803 1.390 . S
C1803 C1802 1.390 . S
C1803 C1804 1.394 . S
C1803 C1809 1.465 . S
C1804 C1799 1.399 . S
C1804 C1803 1.394 . S
C1804 C1805 1.516 . S
C1805 C1804 1.516 . S
C1805 C1806 1.502 . S
C1805 C1807 1.561 . S
C1805 C1808 1.526 . S
C1806 H1790 0.959 . S
C1806 H1791 0.959 . S
C1806 H1792 0.961 . S
C1806 C1805 1.502 . S
C1807 H1793 0.960 . S
C1807 H1794 0.961 . S
C1807 H1795 0.959 . S
C1807 C1805 1.561 . S
C1808 C1805 1.526 . S
C1808 C1809 1.396 . S
C1808 C1813 1.390 . S
C1809 C1803 1.465 . S
C1809 C1808 1.396 . S
C1809 C1810 1.399 . S
C1810 H1796 0.929 . S
C1810 C1809 1.399 . S
C1810 C1811 1.385 . S
C1811 H1797 0.931 . S
C1811 C1810 1.385 . S
C1811 C1812 1.389 . S
C1812 C1811 1.389 . S
C1812 C1813 1.387 . S
C1813 H1798 0.930 . S
C1813 C1808 1.390 . S
C1813 C1812 1.387 . S
H1814 C1826 0.930 . S
H1815 C1828 0.930 . S
H1816 C1829 0.930 . S
H1817 C1833 0.959 . S
H1818 C1833 0.959 . S
H1819 C1833 0.961 . S
H1820 C1834 0.960 . S
H1821 C1834 0.961 . S
H1822 C1834 0.959 . S
H1823 C1837 0.929 . S
H1824 C1838 0.931 . S
H1825 C1840 0.930 . S
C1826 H1814 0.930 . S
C1826 C1827 1.399 . S
C1826 C1831 1.399 . S
C1827 C1826 1.399 . S
C1827 C1828 1.376 . S
C1828 H1815 0.930 . S
C1828 C1827 1.376 . S
C1828 C1829 1.388 . S
C1829 H1816 0.930 . S
C1829 C1828 1.388 . S
C1829 C1830 1.390 . S
C1830 C1829 1.390 . S
C1830 C1831 1.394 . S
C1830 C1836 1.465 . S
C1831 C1826 1.399 . S
C1831 C1830 1.394 . S
C1831 C1832 1.516 . S
C1832 C1831 1.516 . S
C1832 C1833 1.502 . S
C1832 C1834 1.561 . S
C1832 C1835 1.526 . S
C1833 H1817 0.959 . S
C1833 H1818 0.959 . S
C1833 H1819 0.961 . S
C1833 C1832 1.502 . S
C1834 H1820 0.960 . S
C1834 H1821 0.961 . S
C1834 H1822 0.959 . S
C1834 C1832 1.561 . S
C1835 C1832 1.526 . S
C1835 C1836 1.396 . S
C1835 C1840 1.390 . S
C1836 C1830 1.465 . S
C1836 C1835 1.396 . S
C1836 C1837 1.399 . S
C1837 H1823 0.929 . S
C1837 C1836 1.399 . S
C1837 C1838 1.385 . S
C1838 H1824 0.931 . S
C1838 C1837 1.385 . S
C1838 C1839 1.389 . S
C1839 C1838 1.389 . S
C1839 C1840 1.387 . S
C1840 H1825 0.930 . S
C1840 C1835 1.390 . S
C1840 C1839 1.387 . S
H1841 C1853 0.930 . S
H1842 C1855 0.930 . S
H1843 C1856 0.930 1_565 S
H1844 C1860 0.959 . S
H1845 C1860 0.959 . S
H1846 C1860 0.961 . S
H1847 C1861 0.960 . S
H1848 C1861 0.961 . S
H1849 C1861 0.959 . S
H1850 C1864 0.929 . S
H1851 C1865 0.931 . S
H1852 C1867 0.930 . S
C1853 H1841 0.930 . S
C1853 C1854 1.399 . S
C1853 C1858 1.399 . S
C1854 C1853 1.399 . S
C1854 C1855 1.376 1_545 S
C1855 H1842 0.930 . S
C1855 C1854 1.376 1_565 S
C1855 C1856 1.388 1_565 S
C1856 H1843 0.930 1_545 S
C1856 C1855 1.388 1_545 S
C1856 C1857 1.390 . S
C1857 C1856 1.390 . S
C1857 C1858 1.394 . S
C1857 C1863 1.465 . S
C1858 C1853 1.399 . S
C1858 C1857 1.394 . S
C1858 C1859 1.516 . S
C1859 C1858 1.516 . S
C1859 C1860 1.502 . S
C1859 C1861 1.561 . S
C1859 C1862 1.526 . S
C1860 H1844 0.959 . S
C1860 H1845 0.959 . S
C1860 H1846 0.961 . S
C1860 C1859 1.502 . S
C1861 H1847 0.960 . S
C1861 H1848 0.961 . S
C1861 H1849 0.959 . S
C1861 C1859 1.561 . S
C1862 C1859 1.526 . S
C1862 C1863 1.396 . S
C1862 C1867 1.390 . S
C1863 C1857 1.465 . S
C1863 C1862 1.396 . S
C1863 C1864 1.399 . S
C1864 H1850 0.929 . S
C1864 C1863 1.399 . S
C1864 C1865 1.385 . S
C1865 H1851 0.931 . S
C1865 C1864 1.385 . S
C1865 C1866 1.389 . S
C1866 C1865 1.389 . S
C1866 C1867 1.387 . S
C1867 H1852 0.930 . S
C1867 C1862 1.390 . S
C1867 C1866 1.387 . S
H1868 C1880 0.930 . S
H1869 C1882 0.930 . S
H1870 C1883 0.930 . S
H1871 C1887 0.959 . S
H1872 C1887 0.959 . S
H1873 C1887 0.961 . S
H1874 C1888 0.960 . S
H1875 C1888 0.961 . S
H1876 C1888 0.959 . S
H1877 C1891 0.929 . S
H1878 C1892 0.931 . S
H1879 C1894 0.930 . S
C1880 H1868 0.930 . S
C1880 C1881 1.399 . S
C1880 C1885 1.399 . S
C1881 C1880 1.399 . S
C1881 C1882 1.376 . S
C1882 H1869 0.930 . S
C1882 C1881 1.376 . S
C1882 C1883 1.388 . S
C1883 H1870 0.930 . S
C1883 C1882 1.388 . S
C1883 C1884 1.390 . S
C1884 C1883 1.390 . S
C1884 C1885 1.394 . S
C1884 C1890 1.465 . S
C1885 C1880 1.399 . S
C1885 C1884 1.394 . S
C1885 C1886 1.516 . S
C1886 C1885 1.516 . S
C1886 C1887 1.502 . S
C1886 C1888 1.561 . S
C1886 C1889 1.526 . S
C1887 H1871 0.959 . S
C1887 H1872 0.959 . S
C1887 H1873 0.961 . S
C1887 C1886 1.502 . S
C1888 H1874 0.960 . S
C1888 H1875 0.961 . S
C1888 H1876 0.959 . S
C1888 C1886 1.561 . S
C1889 C1886 1.526 . S
C1889 C1890 1.396 . S
C1889 C1894 1.390 . S
C1890 C1884 1.465 . S
C1890 C1889 1.396 . S
C1890 C1891 1.399 . S
C1891 H1877 0.929 . S
C1891 C1890 1.399 . S
C1891 C1892 1.385 . S
C1892 H1878 0.931 . S
C1892 C1891 1.385 . S
C1892 C1893 1.389 . S
C1893 C1892 1.389 . S
C1893 C1894 1.387 . S
C1894 H1879 0.930 . S
C1894 C1889 1.390 . S
C1894 C1893 1.387 . S
H1895 C1907 0.930 . S
H1896 C1909 0.930 . S
H1897 C1910 0.930 . S
H1898 C1914 0.959 . S
H1899 C1914 0.959 . S
H1900 C1914 0.961 . S
H1901 C1915 0.960 . S
H1902 C1915 0.961 . S
H1903 C1915 0.959 . S
H1904 C1918 0.929 . S
H1905 C1919 0.931 . S
H1906 C1921 0.930 . S
C1907 H1895 0.930 . S
C1907 C1908 1.399 . S
C1907 C1912 1.399 . S
C1908 C1907 1.399 . S
C1908 C1909 1.376 . S
C1909 H1896 0.930 . S
C1909 C1908 1.376 . S
C1909 C1910 1.388 . S
C1910 H1897 0.930 . S
C1910 C1909 1.388 . S
C1910 C1911 1.390 . S
C1911 C1910 1.390 . S
C1911 C1912 1.394 . S
C1911 C1917 1.465 . S
C1912 C1907 1.399 . S
C1912 C1911 1.394 . S
C1912 C1913 1.516 . S
C1913 C1912 1.516 . S
C1913 C1914 1.502 . S
C1913 C1915 1.561 . S
C1913 C1916 1.526 . S
C1914 H1898 0.959 . S
C1914 H1899 0.959 . S
C1914 H1900 0.961 . S
C1914 C1913 1.502 . S
C1915 H1901 0.960 . S
C1915 H1902 0.961 . S
C1915 H1903 0.959 . S
C1915 C1913 1.561 . S
C1916 C1913 1.526 . S
C1916 C1917 1.396 . S
C1916 C1921 1.390 . S
C1917 C1911 1.465 . S
C1917 C1916 1.396 . S
C1917 C1918 1.399 . S
C1918 H1904 0.929 . S
C1918 C1917 1.399 . S
C1918 C1919 1.385 . S
C1919 H1905 0.931 . S
C1919 C1918 1.385 . S
C1919 C1920 1.389 . S
C1920 C1919 1.389 . S
C1920 C1921 1.387 . S
C1921 H1906 0.930 . S
C1921 C1916 1.390 . S
C1921 C1920 1.387 . S
H1922 C1934 0.930 . S
H1923 C1936 0.930 1_655 S
H1924 C1937 0.930 . S
H1925 C1941 0.959 . S
H1926 C1941 0.959 . S
H1927 C1941 0.961 . S
H1928 C1942 0.960 . S
H1929 C1942 0.961 . S
H1930 C1942 0.959 . S
H1931 C1945 0.929 . S
H1932 C1946 0.931 . S
H1933 C1948 0.930 . S
C1934 H1922 0.930 . S
C1934 C1935 1.399 . S
C1934 C1939 1.399 . S
C1935 C1934 1.399 . S
C1935 C1936 1.376 . S
C1936 H1923 0.930 1_455 S
C1936 C1935 1.376 . S
C1936 C1937 1.388 . S
C1937 H1924 0.930 . S
C1937 C1936 1.388 . S
C1937 C1938 1.390 . S
C1938 C1937 1.390 . S
C1938 C1939 1.394 . S
C1938 C1944 1.465 . S
C1939 C1934 1.399 . S
C1939 C1938 1.394 . S
C1939 C1940 1.516 . S
C1940 C1939 1.516 . S
C1940 C1941 1.502 . S
C1940 C1942 1.561 . S
C1940 C1943 1.526 . S
C1941 H1925 0.959 . S
C1941 H1926 0.959 . S
C1941 H1927 0.961 . S
C1941 C1940 1.502 . S
C1942 H1928 0.960 . S
C1942 H1929 0.961 . S
C1942 H1930 0.959 . S
C1942 C1940 1.561 . S
C1943 C1940 1.526 . S
C1943 C1944 1.396 . S
C1943 C1948 1.390 . S
C1944 C1938 1.465 . S
C1944 C1943 1.396 . S
C1944 C1945 1.399 . S
C1945 H1931 0.929 . S
C1945 C1944 1.399 . S
C1945 C1946 1.385 . S
C1946 H1932 0.931 . S
C1946 C1945 1.385 . S
C1946 C1947 1.389 . S
C1947 C1946 1.389 . S
C1947 C1948 1.387 . S
C1948 H1933 0.930 . S
C1948 C1943 1.390 . S
C1948 C1947 1.387 . S
H1949 C1961 0.930 . S
H1950 C1963 0.930 1_565 S
H1951 C1964 0.930 . S
H1952 C1968 0.959 . S
H1953 C1968 0.959 . S
H1954 C1968 0.961 . S
H1955 C1969 0.960 . S
H1956 C1969 0.961 . S
H1957 C1969 0.959 . S
H1958 C1972 0.929 . S
H1959 C1973 0.931 . S
H1960 C1975 0.930 . S
C1961 H1949 0.930 . S
C1961 C1962 1.399 . S
C1961 C1966 1.399 . S
C1962 C1961 1.399 . S
C1962 C1963 1.376 . S
C1963 H1950 0.930 1_545 S
C1963 C1962 1.376 . S
C1963 C1964 1.388 . S
C1964 H1951 0.930 . S
C1964 C1963 1.388 . S
C1964 C1965 1.390 . S
C1965 C1964 1.390 . S
C1965 C1966 1.394 . S
C1965 C1971 1.465 . S
C1966 C1961 1.399 . S
C1966 C1965 1.394 . S
C1966 C1967 1.516 . S
C1967 C1966 1.516 . S
C1967 C1968 1.502 . S
C1967 C1969 1.561 . S
C1967 C1970 1.526 . S
C1968 H1952 0.959 . S
C1968 H1953 0.959 . S
C1968 H1954 0.961 . S
C1968 C1967 1.502 . S
C1969 H1955 0.960 . S
C1969 H1956 0.961 . S
C1969 H1957 0.959 . S
C1969 C1967 1.561 . S
C1970 C1967 1.526 . S
C1970 C1971 1.396 . S
C1970 C1975 1.390 . S
C1971 C1965 1.465 . S
C1971 C1970 1.396 . S
C1971 C1972 1.399 . S
C1972 H1958 0.929 . S
C1972 C1971 1.399 . S
C1972 C1973 1.385 . S
C1973 H1959 0.931 . S
C1973 C1972 1.385 . S
C1973 C1974 1.389 . S
C1974 C1973 1.389 . S
C1974 C1975 1.387 . S
C1975 H1960 0.930 . S
C1975 C1970 1.390 . S
C1975 C1974 1.387 . S
C477 C79 1.338 . S
C489 C21 1.233 . S
C504 C108 1.327 . S
C516 C50 1.203 . S
C531 C137 1.324 . S
C543 C195 1.254 . S
C558 C166 1.327 . S
C570 C224 1.203 . S
C585 C253 1.230 . S
C597 C311 1.303 . S
C612 C282 1.230 . S
C624 C340 1.303 . S
C639 C427 1.221 . S
C651 C369 1.312 . S
C666 C456 1.213 . S
C678 C398 1.321 . S
C693 C3 1.039 . S
C705 C266 1.037 . S
C720 C295 1.000 . S
C732 C32 1.051 . S
C747 C61 1.053 . S
C759 C324 1.017 . S
C774 C237 1.048 . S
C786 C90 1.045 . S
C801 C119 1.051 . S
C813 C440 1.046 . S
C828 C148 1.032 . S
C840 C353 1.021 . S
C855 C177 1.037 . S
C867 C382 1.032 . S
C882 C206 1.037 . S
C894 C411 1.033 . S
C909 C235 1.038 . S
C921 C34 1.048 . S
C936 C63 1.045 . S
C948 C264 1.031 . S
C963 C293 1.039 . S
C975 C92 0.898 . S
C990 C5 0.881 . S
C1002 C322 1.029 . S
C1017 C351 1.027 . S
C1029 C208 0.883 . S
C1044 C121 0.976 . S
C1056 C380 1.053 . S
C1071 C409 1.034 . S
C1083 C150 0.887 . S
C1098 C179 0.960 . S
C1110 C438 1.012 . S
C1125 C184 1.478 . S
C1137 C10 1.420 . S
C1152 C39 1.448 . S
C1164 C213 1.477 . S
C1179 C68 1.355 . S
C1191 C126 1.397 . S
C1206 C97 1.402 . S
C1218 C155 1.472 . S
C1233 C416 1.409 . S
C1245 C242 1.477 . S
C1260 C271 1.479 . S
C1272 C445 1.405 . S
C1287 C358 1.409 . S
C1299 C300 1.477 . S
C1314 C387 1.359 . S
C1326 C329 1.420 . S
C1341 C245 2.307 1_565 S
C1353 C13 2.245 1_545 S
C1368 C274 2.305 . S
C1380 C42 2.247 . S
C1395 C303 2.260 . S
C1407 C71 2.296 . S
C1422 C332 2.307 1_655 S
C1434 C100 2.243 1_455 S
C1449 C361 2.259 . S
C1461 C129 2.296 . S
C1476 C158 2.255 1_455 S
C1488 C390 2.284 1_655 S
C1503 C187 2.305 1_545 S
C1515 C419 2.241 1_565 S
C1530 C216 2.293 . S
C1542 C448 2.264 . S
C1557 C37 1.949 . S
C1569 C15 2.108 . S
C1584 C66 1.937 . S
C1596 C44 2.105 . S
C1611 C95 1.888 1_655 S
C1623 C73 2.076 . S
C1638 C8 1.856 1_565 S
C1650 C102 2.068 . S
C1665 C131 2.105 . S
C1677 C211 1.935 . S
C1692 C160 2.108 . S
C1704 C124 1.944 . S
C1719 C189 2.083 . S
C1731 C153 1.886 1_655 S
C1746 C218 2.102 . S
C1758 C182 1.928 1_565 S
C1773 C247 2.079 . S
C1785 C269 1.905 . S
C1800 C276 2.072 . S
C1812 C298 1.890 . S
C1827 C305 2.087 . S
C1839 C327 1.885 1_455 S
C1854 C240 1.871 1_545 S
C1866 C334 2.067 . S
C1881 C443 1.949 . S
C1893 C363 2.107 . S
C1908 C392 2.080 . S
C1920 C356 1.873 . S
C1935 C385 1.852 1_455 S
C1947 C421 2.066 . S
C1962 C414 1.853 1_545 S
C1974 C450 2.065 . S
