# Generated by pormake.
# Topology uoy, (4)-cn, num edge types: 1
# Building blocks:
#     Node 0, Type 0, BuildingBlock: GALJAG_clean_sbu_0, # of connection points: 4
#     Node 1, Type 0, BuildingBlock: GALJAG_clean_sbu_0, # of connection points: 4
#     Node 2, Type 0, BuildingBlock: GALJAG_clean_sbu_0, # of connection points: 4
#     Node 3, Type 0, BuildingBlock: GALJAG_clean_sbu_0, # of connection points: 4
#     Node 4, Type 0, BuildingBlock: GALJAG_clean_sbu_0, # of connection points: 4
#     Node 5, Type 0, BuildingBlock: GALJAG_clean_sbu_0, # of connection points: 4
#     Node 6, Type 0, BuildingBlock: GALJAG_clean_sbu_0, # of connection points: 4
#     Node 7, Type 0, BuildingBlock: GALJAG_clean_sbu_0, # of connection points: 4
#     Node 8, Type 0, BuildingBlock: GALJAG_clean_sbu_0, # of connection points: 4
#     Node 9, Type 0, BuildingBlock: GALJAG_clean_sbu_0, # of connection points: 4
#     Node 10, Type 0, BuildingBlock: GALJAG_clean_sbu_0, # of connection points: 4
#     Node 11, Type 0, BuildingBlock: GALJAG_clean_sbu_0, # of connection points: 4
#     Node 12, Type 0, BuildingBlock: GALJAG_clean_sbu_0, # of connection points: 4
#     Node 13, Type 0, BuildingBlock: GALJAG_clean_sbu_0, # of connection points: 4
#     Node 14, Type 0, BuildingBlock: GALJAG_clean_sbu_0, # of connection points: 4
#     Node 15, Type 0, BuildingBlock: GALJAG_clean_sbu_0, # of connection points: 4
#     Edge 16, Type (0, 0), BuildingBlock: XIVTED_clean_linker_0, # of connection points: 2
#     Edge 17, Type (0, 0), BuildingBlock: XIVTED_clean_linker_0, # of connection points: 2
#     Edge 18, Type (0, 0), BuildingBlock: XIVTED_clean_linker_0, # of connection points: 2
#     Edge 19, Type (0, 0), BuildingBlock: XIVTED_clean_linker_0, # of connection points: 2
#     Edge 20, Type (0, 0), BuildingBlock: XIVTED_clean_linker_0, # of connection points: 2
#     Edge 21, Type (0, 0), BuildingBlock: XIVTED_clean_linker_0, # of connection points: 2
#     Edge 22, Type (0, 0), BuildingBlock: XIVTED_clean_linker_0, # of connection points: 2
#     Edge 23, Type (0, 0), BuildingBlock: XIVTED_clean_linker_0, # of connection points: 2
#     Edge 24, Type (0, 0), BuildingBlock: XIVTED_clean_linker_0, # of connection points: 2
#     Edge 25, Type (0, 0), BuildingBlock: XIVTED_clean_linker_0, # of connection points: 2
#     Edge 26, Type (0, 0), BuildingBlock: XIVTED_clean_linker_0, # of connection points: 2
#     Edge 27, Type (0, 0), BuildingBlock: XIVTED_clean_linker_0, # of connection points: 2
#     Edge 28, Type (0, 0), BuildingBlock: XIVTED_clean_linker_0, # of connection points: 2
#     Edge 29, Type (0, 0), BuildingBlock: XIVTED_clean_linker_0, # of connection points: 2
#     Edge 30, Type (0, 0), BuildingBlock: XIVTED_clean_linker_0, # of connection points: 2
#     Edge 31, Type (0, 0), BuildingBlock: XIVTED_clean_linker_0, # of connection points: 2
#     Edge 32, Type (0, 0), BuildingBlock: XIVTED_clean_linker_0, # of connection points: 2
#     Edge 33, Type (0, 0), BuildingBlock: XIVTED_clean_linker_0, # of connection points: 2
#     Edge 34, Type (0, 0), BuildingBlock: XIVTED_clean_linker_0, # of connection points: 2
#     Edge 35, Type (0, 0), BuildingBlock: XIVTED_clean_linker_0, # of connection points: 2
#     Edge 36, Type (0, 0), BuildingBlock: XIVTED_clean_linker_0, # of connection points: 2
#     Edge 37, Type (0, 0), BuildingBlock: XIVTED_clean_linker_0, # of connection points: 2
#     Edge 38, Type (0, 0), BuildingBlock: XIVTED_clean_linker_0, # of connection points: 2
#     Edge 39, Type (0, 0), BuildingBlock: XIVTED_clean_linker_0, # of connection points: 2
#     Edge 40, Type (0, 0), BuildingBlock: XIVTED_clean_linker_0, # of connection points: 2
#     Edge 41, Type (0, 0), BuildingBlock: XIVTED_clean_linker_0, # of connection points: 2
#     Edge 42, Type (0, 0), BuildingBlock: XIVTED_clean_linker_0, # of connection points: 2
#     Edge 43, Type (0, 0), BuildingBlock: XIVTED_clean_linker_0, # of connection points: 2
#     Edge 44, Type (0, 0), BuildingBlock: XIVTED_clean_linker_0, # of connection points: 2
#     Edge 45, Type (0, 0), BuildingBlock: XIVTED_clean_linker_0, # of connection points: 2
#     Edge 46, Type (0, 0), BuildingBlock: XIVTED_clean_linker_0, # of connection points: 2
#     Edge 47, Type (0, 0), BuildingBlock: XIVTED_clean_linker_0, # of connection points: 2
# Relax obj value: 0.037
# Max RMSD: 0.056
# Mean RMSD: 0.056
data_MOF--net-uoy--node1-GALJAG_clean_sbu_0--edge1-XIVTED_clean_linker_0
_symmetry_space_group_name_H-M    P1
_symmetry_Int_Tables_number       1
_symmetry_cell_setting            triclinic
loop_
_symmetry_equiv_pos_as_xyz
'x, y, z'
_cell_length_a     27.858539
_cell_length_b     27.85568
_cell_length_c     111.42413
_cell_angle_alpha  90.002084
_cell_angle_beta   90.047731
_cell_angle_gamma 89.992099
loop_
_atom_site_label
_atom_site_type_symbol
_atom_site_fract_x
_atom_site_fract_y
_atom_site_fract_z
_atom_type_partial_charge
In0 In 0.24381 0.11404 0.1817 0.0
O1 O 0.24134 0.18341 0.17068 0.0
O2 O 0.23937 0.11665 0.16141 0.0
C3 C 0.25334 0.14474 0.20453 0.0
C4 C 0.15689 0.07163 0.18222 0.0
C5 C 0.33112 0.07366 0.17942 0.0
O6 O 0.24408 0.17348 0.19605 0.0
O7 O 0.2567 0.10133 0.20146 0.0
O8 O 0.29303 0.04906 0.17986 0.0
O9 O 0.32498 0.11851 0.17995 0.0
C10 C 0.23925 0.16182 0.16071 0.0
O11 O 0.19518 0.0483 0.18059 0.0
O12 O 0.16253 0.11618 0.18367 0.0
In13 In 0.87571 0.74719 0.43228 0.0
O14 O 0.94123 0.69801 0.43238 0.0
O15 O 0.87199 0.66571 0.43197 0.0
C16 C 0.91837 0.83413 0.43107 0.0
C17 C 0.82939 0.74362 0.41106 0.0
C18 C 0.8383 0.75087 0.45459 0.0
O19 O 0.94209 0.79551 0.43082 0.0
O20 O 0.87362 0.82871 0.43198 0.0
O21 O 0.81351 0.75923 0.44534 0.0
O22 O 0.88153 0.74029 0.45257 0.0
C23 C 0.9169 0.65973 0.43214 0.0
O24 O 0.80756 0.74077 0.42097 0.0
O25 O 0.87431 0.74808 0.4119 0.0
In26 In 0.24232 0.38235 0.68038 0.0
O27 O 0.24412 0.3128 0.66943 0.0
O28 O 0.25065 0.37933 0.66017 0.0
C29 C 0.231 0.35279 0.70324 0.0
C30 C 0.32978 0.42323 0.68179 0.0
C31 C 0.15545 0.42245 0.67699 0.0
O32 O 0.2414 0.32372 0.69492 0.0
O33 O 0.22692 0.39592 0.69999 0.0
O34 O 0.19353 0.44712 0.6774 0.0
O35 O 0.16143 0.37778 0.67818 0.0
C36 C 0.24895 0.33417 0.65949 0.0
O37 O 0.29199 0.44762 0.68033 0.0
O38 O 0.3233 0.37853 0.68253 0.0
In39 In 0.60839 0.74693 0.93067 0.0
O40 O 0.54332 0.79691 0.93075 0.0
O41 O 0.61234 0.82749 0.9336 0.0
C42 C 0.56821 0.66083 0.92634 0.0
C43 C 0.65802 0.7558 0.91009 0.0
C44 C 0.63722 0.73189 0.95345 0.0
O45 O 0.54351 0.69878 0.9272 0.0
O46 O 0.6129 0.66661 0.92755 0.0
O47 O 0.66626 0.745 0.94538 0.0
O48 O 0.59439 0.72703 0.95002 0.0
C49 C 0.56776 0.83434 0.93267 0.0
O50 O 0.6786 0.74912 0.92007 0.0
O51 O 0.61287 0.75832 0.91058 0.0
In52 In 0.24753 0.38318 0.06098 0.0
O53 O 0.24627 0.31361 0.07191 0.0
O54 O 0.23704 0.37995 0.08111 0.0
C55 C 0.26085 0.35368 0.03818 0.0
C56 C 0.1601 0.42394 0.05917 0.0
C57 C 0.33403 0.42325 0.06488 0.0
O58 O 0.24829 0.32486 0.04636 0.0
O59 O 0.26604 0.39658 0.04152 0.0
O60 O 0.29605 0.448 0.06419 0.0
O61 O 0.3281 0.37856 0.06371 0.0
C62 C 0.2399 0.33486 0.08181 0.0
O63 O 0.19773 0.44839 0.06082 0.0
O64 O 0.16675 0.37926 0.05841 0.0
In65 In 0.61937 0.75005 0.30972 0.0
O66 O 0.55398 0.70079 0.30926 0.0
O67 O 0.62324 0.66857 0.30993 0.0
C68 C 0.57579 0.83653 0.31104 0.0
C69 C 0.66557 0.74584 0.33095 0.0
C70 C 0.65729 0.75417 0.28746 0.0
O71 O 0.55257 0.79762 0.31137 0.0
O72 O 0.62055 0.83165 0.30999 0.0
O73 O 0.68172 0.76302 0.29675 0.0
O74 O 0.61416 0.74304 0.28943 0.0
C75 C 0.57836 0.66254 0.30954 0.0
O76 O 0.68746 0.74351 0.32104 0.0
O77 O 0.62064 0.75015 0.33011 0.0
In78 In 0.24986 0.11235 0.55973 0.0
O79 O 0.25055 0.18181 0.57072 0.0
O80 O 0.25586 0.11525 0.58 0.0
C81 C 0.23916 0.1432 0.53694 0.0
C82 C 0.3373 0.07087 0.55893 0.0
C83 C 0.16282 0.07165 0.56236 0.0
O84 O 0.25052 0.17158 0.54533 0.0
O85 O 0.23428 0.1 0.54006 0.0
O86 O 0.20097 0.04712 0.56183 0.0
O87 O 0.16881 0.1165 0.56173 0.0
C88 C 0.25417 0.1604 0.58069 0.0
O89 O 0.29931 0.04699 0.56053 0.0
O90 O 0.33105 0.11542 0.55765 0.0
In91 In 0.88623 0.74392 0.81154 0.0
O92 O 0.81632 0.74631 0.82226 0.0
O93 O 0.88222 0.75588 0.83164 0.0
C94 C 0.8557 0.72859 0.7889 0.0
C95 C 0.92795 0.83068 0.80921 0.0
C96 C 0.92701 0.65814 0.81592 0.0
O97 O 0.82753 0.74291 0.79703 0.0
O98 O 0.89855 0.72264 0.79221 0.0
O99 O 0.95132 0.69634 0.81514 0.0
O100 O 0.8823 0.66348 0.81462 0.0
C101 C 0.83709 0.75334 0.8322 0.0
O102 O 0.95197 0.79289 0.81099 0.0
O103 O 0.88318 0.82455 0.8086 0.0
In104 In 0.74383 0.61468 0.68233 0.0
O105 O 0.69404 0.54962 0.68182 0.0
O106 O 0.66302 0.61819 0.68504 0.0
C107 C 0.82978 0.57377 0.67818 0.0
C108 C 0.73643 0.66496 0.66179 0.0
C109 C 0.75797 0.64301 0.70519 0.0
O110 O 0.79173 0.54934 0.67919 0.0
O111 O 0.82419 0.61857 0.67915 0.0
O112 O 0.74443 0.67209 0.69716 0.0
O113 O 0.76347 0.60037 0.70168 0.0
C114 C 0.6564 0.57371 0.68373 0.0
O115 O 0.74417 0.6852 0.67176 0.0
O116 O 0.73207 0.61995 0.66228 0.0
In117 In 0.37848 0.24896 0.9313 0.0
O118 O 0.30882 0.24563 0.92042 0.0
O119 O 0.37526 0.23708 0.91123 0.0
C120 C 0.3494 0.26539 0.954 0.0
C121 C 0.41933 0.16173 0.93349 0.0
C122 C 0.4185 0.33493 0.92678 0.0
O123 O 0.32049 0.25131 0.94598 0.0
O124 O 0.39217 0.27042 0.95055 0.0
O125 O 0.4433 0.29716 0.92794 0.0
O126 O 0.37374 0.32905 0.9278 0.0
C127 C 0.33012 0.23895 0.91053 0.0
O128 O 0.44366 0.19916 0.93151 0.0
O129 O 0.37475 0.16851 0.93445 0.0
In130 In 0.74373 0.87795 0.18136 0.0
O131 O 0.75416 0.81125 0.16973 0.0
O132 O 0.74076 0.87777 0.16097 0.0
C133 C 0.74035 0.83829 0.20344 0.0
C134 C 0.83021 0.92091 0.18139 0.0
C135 C 0.65667 0.92033 0.18057 0.0
O136 O 0.72987 0.81494 0.19409 0.0
O137 O 0.75283 0.88115 0.20162 0.0
O138 O 0.69519 0.94422 0.18049 0.0
O139 O 0.66224 0.87548 0.18107 0.0
C140 C 0.74875 0.83341 0.15993 0.0
O141 O 0.79145 0.94448 0.18167 0.0
O142 O 0.82516 0.8759 0.18108 0.0
In143 In 0.11219 0.24677 0.43086 0.0
O144 O 0.04689 0.29624 0.42982 0.0
O145 O 0.11497 0.32784 0.43326 0.0
C146 C 0.07149 0.15967 0.42833 0.0
C147 C 0.16036 0.25187 0.40992 0.0
C148 C 0.14268 0.23569 0.45366 0.0
O149 O 0.04698 0.1978 0.42893 0.0
O150 O 0.11637 0.1657 0.42879 0.0
O151 O 0.17139 0.24627 0.44528 0.0
O152 O 0.0994 0.23181 0.45051 0.0
C153 C 0.07055 0.33413 0.43173 0.0
O154 O 0.18173 0.24879 0.41991 0.0
O155 O 0.11518 0.25247 0.41057 0.0
In156 In 0.75016 0.8759 0.5607 0.0
O157 O 0.70138 0.94181 0.56043 0.0
O158 O 0.66877 0.87268 0.56044 0.0
C159 C 0.83711 0.91851 0.56186 0.0
C160 C 0.74394 0.83077 0.58203 0.0
C161 C 0.75535 0.83668 0.53859 0.0
O162 O 0.79855 0.94237 0.56166 0.0
O163 O 0.8316 0.87364 0.56147 0.0
O164 O 0.76505 0.81315 0.54796 0.0
O165 O 0.74279 0.87955 0.54039 0.0
C166 C 0.66299 0.91761 0.56034 0.0
O167 O 0.73991 0.8088 0.57216 0.0
O168 O 0.75118 0.87531 0.58111 0.0
In169 In 0.115 0.24598 0.81009 0.0
O170 O 0.04938 0.19695 0.80967 0.0
O171 O 0.11799 0.16545 0.80688 0.0
C172 C 0.07383 0.33113 0.81491 0.0
C173 C 0.16396 0.23614 0.83079 0.0
C174 C 0.14451 0.2634 0.78746 0.0
O175 O 0.0496 0.29306 0.81365 0.0
O176 O 0.11866 0.32598 0.81384 0.0
O177 O 0.17279 0.24695 0.79533 0.0
O178 O 0.10214 0.27025 0.79101 0.0
C179 C 0.07329 0.15924 0.80772 0.0
O180 O 0.18489 0.24409 0.82092 0.0
O181 O 0.11892 0.23279 0.83012 0.0
In182 In 0.74572 0.61431 0.06003 0.0
O183 O 0.7453 0.68421 0.07083 0.0
O184 O 0.75941 0.6187 0.08002 0.0
C185 C 0.7306 0.64392 0.03732 0.0
C186 C 0.833 0.57335 0.05811 0.0
C187 C 0.65993 0.57348 0.0644 0.0
O188 O 0.74537 0.67233 0.04536 0.0
O189 O 0.72426 0.60129 0.04075 0.0
O190 O 0.69784 0.54896 0.0632 0.0
O191 O 0.66559 0.6183 0.06351 0.0
C192 C 0.75435 0.6636 0.08069 0.0
O193 O 0.79549 0.54914 0.06009 0.0
O194 O 0.82629 0.61791 0.05701 0.0
In195 In 0.38337 0.24963 0.31035 0.0
O196 O 0.31383 0.24956 0.3213 0.0
O197 O 0.38007 0.25756 0.33059 0.0
C198 C 0.35189 0.23701 0.28767 0.0
C199 C 0.42498 0.33694 0.30911 0.0
C200 C 0.42557 0.16341 0.31321 0.0
O201 O 0.32399 0.25038 0.29596 0.0
O202 O 0.39493 0.23112 0.29082 0.0
O203 O 0.44942 0.20186 0.31233 0.0
O204 O 0.38058 0.16869 0.31285 0.0
C205 C 0.33499 0.25474 0.33126 0.0
O206 O 0.44862 0.29916 0.31117 0.0
O207 O 0.38057 0.33058 0.30761 0.0
H208 H 0.22949 0.3742 0.10407 0.0
H209 H 0.23823 0.1219 0.13836 0.0
H210 H 0.24457 0.23798 0.08601 0.0
H211 H 0.23618 0.25876 0.15651 0.0
H212 H 0.23648 0.16358 0.1191 0.0
H213 H 0.22762 0.33234 0.12331 0.0
C214 C 0.23227 0.33541 0.10415 0.0
C215 C 0.23729 0.30949 0.09343 0.0
C216 C 0.23637 0.18455 0.12728 0.0
C217 C 0.23523 0.26132 0.11544 0.0
C218 C 0.23733 0.16078 0.13829 0.0
C219 C 0.23744 0.18696 0.14905 0.0
C220 C 0.2354 0.23492 0.12701 0.0
C221 C 0.23622 0.23722 0.14842 0.0
C222 C 0.23127 0.31155 0.11515 0.0
C223 C 0.24072 0.25933 0.09407 0.0
N224 N 0.23527 0.25959 0.13758 0.0
N225 N 0.23967 0.23687 0.1049 0.0
H226 H 0.73276 0.73862 0.40679 0.0
H227 H 0.76218 0.74087 0.33523 0.0
H228 H 0.86958 0.74583 0.38874 0.0
H229 H 0.62529 0.74674 0.35327 0.0
H230 H 0.80227 0.73901 0.35477 0.0
H231 H 0.69262 0.73788 0.38724 0.0
C232 C 0.75432 0.73996 0.39871 0.0
C233 C 0.80452 0.74236 0.39937 0.0
C234 C 0.76346 0.74067 0.35445 0.0
C235 C 0.75897 0.74151 0.37701 0.0
C236 C 0.74059 0.74168 0.34331 0.0
C237 C 0.69039 0.74403 0.34264 0.0
C238 C 0.73589 0.74188 0.36501 0.0
C239 C 0.66411 0.74501 0.35338 0.0
C240 C 0.73143 0.73959 0.38756 0.0
C241 C 0.83077 0.74403 0.38863 0.0
N242 N 0.68718 0.74393 0.36412 0.0
N243 N 0.80768 0.74358 0.3779 0.0
H244 H 0.25842 0.12083 0.60305 0.0
H245 H 0.25559 0.37369 0.63717 0.0
H246 H 0.25257 0.2574 0.58482 0.0
H247 H 0.24824 0.23713 0.65536 0.0
H248 H 0.25844 0.33172 0.61795 0.0
H249 H 0.25868 0.16278 0.62229 0.0
C250 C 0.25729 0.15971 0.6031 0.0
C251 C 0.25539 0.18572 0.59233 0.0
C252 C 0.25625 0.31088 0.62613 0.0
C253 C 0.25566 0.23398 0.61434 0.0
C254 C 0.25467 0.33481 0.63711 0.0
C255 C 0.2516 0.30881 0.64787 0.0
C256 C 0.25485 0.26051 0.62588 0.0
C257 C 0.25054 0.25854 0.64727 0.0
C258 C 0.25738 0.18362 0.6141 0.0
C259 C 0.254 0.23598 0.59292 0.0
N260 N 0.25215 0.23601 0.63645 0.0
N261 N 0.25414 0.25849 0.60375 0.0
H262 H 0.87522 0.7625 0.85464 0.0
H263 H 0.62023 0.76497 0.88763 0.0
H264 H 0.73992 0.75249 0.83592 0.0
H265 H 0.75526 0.75368 0.90643 0.0
H266 H 0.66361 0.76724 0.86861 0.0
H267 H 0.83197 0.76602 0.87368 0.0
C268 C 0.83636 0.76121 0.85454 0.0
C269 C 0.81106 0.75705 0.84369 0.0
C270 C 0.68379 0.76434 0.87688 0.0
C271 C 0.76137 0.76107 0.86545 0.0
C272 C 0.65907 0.76314 0.88775 0.0
C273 C 0.68423 0.75897 0.89861 0.0
C274 C 0.7341 0.76151 0.87687 0.0
C275 C 0.7345 0.75679 0.89825 0.0
C276 C 0.81171 0.76314 0.86541 0.0
C277 C 0.76079 0.75556 0.84408 0.0
N278 N 0.75781 0.75803 0.88754 0.0
N279 N 0.73756 0.75753 0.85479 0.0
H280 H 0.72699 0.73573 0.58638 0.0
H281 H 0.74835 0.76145 0.65785 0.0
H282 H 0.7532 0.87047 0.60434 0.0
H283 H 0.72002 0.62787 0.63955 0.0
H284 H 0.74814 0.80281 0.63844 0.0
H285 H 0.72249 0.69603 0.6059 0.0
C286 C 0.73176 0.75695 0.59444 0.0
C287 C 0.7406 0.8064 0.59376 0.0
C288 C 0.7418 0.76447 0.63868 0.0
C289 C 0.73552 0.76129 0.61613 0.0
C290 C 0.74187 0.74091 0.64976 0.0
C291 C 0.73433 0.69119 0.65029 0.0
C292 C 0.7342 0.73804 0.6281 0.0
C293 C 0.72611 0.66625 0.63954 0.0
C294 C 0.72915 0.7343 0.60559 0.0
C295 C 0.74639 0.83222 0.60448 0.0
N296 N 0.7264 0.6899 0.6289 0.0
N297 N 0.74386 0.80934 0.61523 0.0
H298 H 0.2331 0.23801 0.90642 0.0
H299 H 0.26095 0.23929 0.83489 0.0
H300 H 0.36969 0.23115 0.88825 0.0
H301 H 0.12488 0.22562 0.85305 0.0
H302 H 0.30165 0.23696 0.85437 0.0
H303 H 0.19258 0.23417 0.88693 0.0
C304 C 0.25452 0.23555 0.89833 0.0
C305 C 0.30477 0.23502 0.89894 0.0
C306 C 0.26289 0.23426 0.85409 0.0
C307 C 0.25883 0.23085 0.87664 0.0
C308 C 0.23969 0.23561 0.84297 0.0
C309 C 0.18952 0.23277 0.84237 0.0
C310 C 0.23564 0.23036 0.86466 0.0
C311 C 0.16366 0.22799 0.85311 0.0
C312 C 0.23142 0.23331 0.88722 0.0
C313 C 0.33083 0.23171 0.88819 0.0
N314 N 0.18699 0.22717 0.86382 0.0
N315 N 0.30758 0.22998 0.87749 0.0
H316 H 0.77462 0.62595 0.10268 0.0
H317 H 0.73673 0.87375 0.13779 0.0
H318 H 0.73996 0.75945 0.08503 0.0
H319 H 0.76712 0.73881 0.15524 0.0
H320 H 0.74066 0.83344 0.11832 0.0
H321 H 0.77539 0.66765 0.12192 0.0
C322 C 0.76734 0.66415 0.10285 0.0
C323 C 0.75706 0.6893 0.09225 0.0
C324 C 0.74654 0.81265 0.1264 0.0
C325 C 0.75769 0.73729 0.11428 0.0
C326 C 0.74429 0.83562 0.13751 0.0
C327 C 0.7515 0.80951 0.14813 0.0
C328 C 0.75611 0.76319 0.1259 0.0
C329 C 0.76123 0.76025 0.14727 0.0
C330 C 0.76773 0.68793 0.11385 0.0
C331 C 0.748 0.73873 0.093 0.0
N332 N 0.7632 0.73868 0.13634 0.0
N333 N 0.74837 0.76112 0.10385 0.0
H334 H 0.12096 0.25487 0.38752 0.0
H335 H 0.37407 0.26255 0.35363 0.0
H336 H 0.25741 0.25366 0.40588 0.0
H337 H 0.23805 0.25053 0.33532 0.0
H338 H 0.33186 0.26335 0.37283 0.0
H339 H 0.16308 0.25718 0.36833 0.0
C340 C 0.15984 0.25517 0.38751 0.0
C341 C 0.18577 0.25399 0.39831 0.0
C342 C 0.31119 0.26058 0.36462 0.0
C343 C 0.23425 0.25666 0.37635 0.0
C344 C 0.33526 0.26018 0.35365 0.0
C345 C 0.30949 0.25638 0.34287 0.0
C346 C 0.26092 0.25724 0.36483 0.0
C347 C 0.25929 0.25345 0.34343 0.0
C348 C 0.18387 0.25644 0.37654 0.0
C349 C 0.23605 0.25446 0.39776 0.0
N350 N 0.23663 0.25391 0.35423 0.0
N351 N 0.25868 0.25575 0.38696 0.0
H352 H 0.23198 0.2312 0.21533 0.0
H353 H 0.39707 0.18059 0.27146 0.0
H354 H 0.29766 0.09338 0.22194 0.0
H355 H 0.27029 0.26777 0.27596 0.0
H356 H 0.37016 0.1594 0.25132 0.0
H357 H 0.25336 0.25572 0.23594 0.0
C358 C 0.25067 0.20616 0.22111 0.0
C359 C 0.26316 0.16025 0.21695 0.0
C360 C 0.34825 0.18322 0.25671 0.0
C361 C 0.28824 0.1882 0.2402 0.0
C362 C 0.36366 0.19554 0.26817 0.0
C363 C 0.33574 0.22586 0.27538 0.0
C364 C 0.30507 0.20207 0.25228 0.0
C365 C 0.29264 0.24405 0.27067 0.0
C366 C 0.26263 0.22007 0.23283 0.0
C367 C 0.28726 0.12906 0.22479 0.0
N368 N 0.27865 0.23214 0.25932 0.0
N369 N 0.2995 0.14381 0.23597 0.0
H370 H 0.75512 0.79462 0.46167 0.0
H371 H 0.80376 0.75568 0.53179 0.0
H372 H 0.87866 0.71908 0.47544 0.0
H373 H 0.7196 0.87288 0.51768 0.0
H374 H 0.81859 0.7281 0.51121 0.0
H375 H 0.72878 0.80965 0.48232 0.0
C376 C 0.77634 0.7807 0.46904 0.0
C377 C 0.81933 0.75599 0.46688 0.0
C378 C 0.79654 0.7596 0.51265 0.0
C379 C 0.78938 0.77275 0.49042 0.0
C380 C 0.78793 0.77522 0.52437 0.0
C381 C 0.7608 0.81683 0.5264 0.0
C382 C 0.77728 0.78543 0.50295 0.0
C383 C 0.74111 0.84087 0.51648 0.0
C384 C 0.76142 0.78943 0.48079 0.0
C385 C 0.84551 0.73869 0.47674 0.0
N386 N 0.74981 0.82487 0.50518 0.0
N387 N 0.83018 0.7475 0.4881 0.0
H388 H 0.25363 0.26722 0.71428 0.0
H389 H 0.10018 0.32493 0.77227 0.0
H390 H 0.18757 0.40501 0.72065 0.0
H391 H 0.22213 0.22989 0.77465 0.0
H392 H 0.12372 0.34594 0.75187 0.0
H393 H 0.23532 0.24437 0.73516 0.0
C394 C 0.2354 0.29259 0.72007 0.0
C395 C 0.22199 0.33801 0.71576 0.0
C396 C 0.1454 0.32054 0.75685 0.0
C397 C 0.20056 0.31203 0.73938 0.0
C398 C 0.1319 0.30836 0.76847 0.0
C399 C 0.15934 0.2757 0.77514 0.0
C400 C 0.18616 0.29925 0.75174 0.0
C401 C 0.20022 0.25543 0.76979 0.0
C402 C 0.22521 0.27964 0.73194 0.0
C403 C 0.1986 0.36966 0.7236 0.0
N404 N 0.21228 0.26724 0.75831 0.0
N405 N 0.18823 0.3559 0.73498 0.0
H406 H 0.7602 0.72517 0.02538 0.0
H407 H 0.58722 0.6807 0.96992 0.0
H408 H 0.67502 0.59687 0.0212 0.0
H409 H 0.71997 0.75827 0.96524 0.0
H410 H 0.61126 0.66083 0.99037 0.0
H411 H 0.73897 0.74849 0.00469 0.0
C412 C 0.73708 0.70203 0.02011 0.0
C413 C 0.71933 0.65904 0.02495 0.0
C414 C 0.63514 0.68221 0.98487 0.0
C415 C 0.69456 0.68569 0.00159 0.0
C416 C 0.62139 0.69375 0.97323 0.0
C417 C 0.65178 0.72101 0.96588 0.0
C418 C 0.67925 0.69871 0.98932 0.0
C419 C 0.6957 0.73691 0.97063 0.0
C420 C 0.72521 0.71521 0.00835 0.0
C421 C 0.68963 0.6302 0.01779 0.0
N422 N 0.70812 0.72574 0.98212 0.0
N423 N 0.67785 0.64425 0.00652 0.0
H424 H 0.23397 0.2705 0.02663 0.0
H425 H 0.39747 0.32113 0.96988 0.0
H426 H 0.31085 0.40335 0.02142 0.0
H427 H 0.26869 0.23628 0.96626 0.0
H428 H 0.37405 0.34156 0.99034 0.0
H429 H 0.25335 0.24766 0.0058 0.0
C430 C 0.25486 0.29476 0.02111 0.0
C431 C 0.27089 0.33884 0.02572 0.0
C432 C 0.35087 0.31849 0.98507 0.0
C433 C 0.29353 0.31279 0.00218 0.0
C434 C 0.36428 0.30664 0.97342 0.0
C435 C 0.33486 0.27708 0.96638 0.0
C436 C 0.30815 0.29997 0.98984 0.0
C437 C 0.29217 0.25942 0.97141 0.0
C438 C 0.26565 0.28184 0.00927 0.0
C439 C 0.29768 0.36909 0.01822 0.0
N440 N 0.28015 0.27086 0.98292 0.0
N441 N 0.30853 0.35532 0.00687 0.0
H442 H 0.74022 0.79854 0.28043 0.0
H443 H 0.69266 0.75702 0.21034 0.0
H444 H 0.61787 0.7212 0.26663 0.0
H445 H 0.77668 0.87463 0.22427 0.0
H446 H 0.67816 0.72972 0.23095 0.0
H447 H 0.76706 0.81289 0.25978 0.0
C448 C 0.71936 0.7841 0.27306 0.0
C449 C 0.67655 0.75908 0.2752 0.0
C450 C 0.70013 0.76124 0.22946 0.0
C451 C 0.70706 0.77506 0.25167 0.0
C452 C 0.70855 0.77669 0.21773 0.0
C453 C 0.7355 0.81837 0.21564 0.0
C454 C 0.71932 0.78734 0.23912 0.0
C455 C 0.7553 0.84257 0.22551 0.0
C456 C 0.73457 0.79243 0.2613 0.0
C457 C 0.65085 0.74109 0.26534 0.0
N458 N 0.7467 0.82678 0.23684 0.0
N459 N 0.66644 0.74953 0.25399 0.0
H460 H 0.0929 0.18671 0.47053 0.0
H461 H 0.26641 0.22696 0.52568 0.0
H462 H 0.22717 0.26066 0.46496 0.0
H463 H 0.18793 0.09525 0.52013 0.0
H464 H 0.24509 0.25197 0.5051 0.0
H465 H 0.1187 0.16589 0.49079 0.0
C466 C 0.12773 0.19889 0.47361 0.0
C467 C 0.15807 0.22527 0.46606 0.0
C468 C 0.23294 0.21755 0.50844 0.0
C469 C 0.18752 0.20188 0.48928 0.0
C470 C 0.24486 0.20338 0.52014 0.0
C471 C 0.22887 0.159 0.52457 0.0
C472 C 0.20386 0.18761 0.50137 0.0
C473 C 0.20114 0.12967 0.51705 0.0
C474 C 0.14247 0.18677 0.48514 0.0
C475 C 0.2029 0.24 0.47051 0.0
N476 N 0.18907 0.14472 0.50588 0.0
N477 N 0.2163 0.22832 0.48192 0.0
H478 H 0.73131 0.72531 0.71714 0.0
H479 H 0.90292 0.6747 0.77246 0.0
H480 H 0.81062 0.59333 0.72144 0.0
H481 H 0.7735 0.75763 0.77727 0.0
H482 H 0.87734 0.65509 0.7521 0.0
H483 H 0.75326 0.74777 0.73784 0.0
C484 C 0.75323 0.70115 0.72244 0.0
C485 C 0.7692 0.65743 0.71761 0.0
C486 C 0.85451 0.67757 0.75761 0.0
C487 C 0.79483 0.68308 0.74099 0.0
C488 C 0.86915 0.68896 0.7692 0.0
C489 C 0.84015 0.71768 0.77655 0.0
C490 C 0.81093 0.69569 0.75322 0.0
C491 C 0.79669 0.73512 0.77187 0.0
C492 C 0.76552 0.71386 0.7342 0.0
C493 C 0.79742 0.62729 0.72482 0.0
N494 N 0.78342 0.72408 0.76043 0.0
N495 N 0.80969 0.64088 0.73609 0.0
H496 H 0.13556 0.9764 0.17964 0.0
H497 H 0.85104 0.01672 0.18297 0.0
H498 H 0.06956 0.11502 0.18482 0.0
H499 H 0.91781 0.8774 0.18007 0.0
H500 H 0.93069 0.05374 0.18327 0.0
H501 H 0.0559 0.9396 0.17943 0.0
C502 C 0.10427 -0.00094 0.18075 0.0
C503 C 0.10911 0.0488 0.18225 0.0
C504 C 0.92792 0.01507 0.18257 0.0
C505 C 0.01788 0.00704 0.18199 0.0
C506 C 0.88248 0.99395 0.18239 0.0
C507 C 0.87788 0.94396 0.1815 0.0
C508 C 0.96901 0.98594 0.18183 0.0
C509 C 0.91975 0.91611 0.18078 0.0
C510 C 0.05881 0.97806 0.18063 0.0
C511 C 0.06741 0.0765 0.18364 0.0
N512 N 0.96355 0.93749 0.18095 0.0
N513 N 0.02353 0.05525 0.18346 0.0
H514 H 0.11503 0.42059 0.43487 0.0
H515 H 0.87176 0.57292 0.43069 0.0
H516 H 0.97557 0.35709 0.42918 0.0
H517 H 0.01233 0.637 0.43353 0.0
H518 H 0.90888 0.49345 0.43071 0.0
H519 H 0.07783 0.50004 0.43503 0.0
C520 C 0.07654 0.42339 0.43367 0.0
C521 C 0.0483 0.38222 0.432 0.0
C522 C 0.93164 0.52485 0.43132 0.0
C523 C 0.00548 0.47303 0.43218 0.0
C524 C 0.91047 0.57024 0.43132 0.0
C525 C 0.93904 0.61158 0.43211 0.0
C526 C 0.98178 0.52074 0.43215 0.0
C527 C 0.98899 0.60603 0.4329 0.0
C528 C 0.05533 0.46876 0.43375 0.0
C529 C -0.00136 0.38792 0.43049 0.0
N530 N 0.00878 0.56142 0.43291 0.0
N531 N 0.9788 0.4325 0.43061 0.0
H532 H 0.416 0.37716 0.6833 0.0
H533 H 0.57017 0.61937 0.68608 0.0
H534 H 0.35322 0.51869 0.68187 0.0
H535 H 0.63285 0.47859 0.68209 0.0
H536 H 0.49035 0.58295 0.68599 0.0
H537 H 0.4957 0.41353 0.68424 0.0
C538 C 0.41901 0.41593 0.6832 0.0
C539 C 0.37799 0.445 0.68248 0.0
C540 C 0.52154 0.56001 0.68514 0.0
C541 C 0.46907 0.48686 0.68358 0.0
C542 C 0.56712 0.58075 0.68522 0.0
C543 C 0.60814 0.55191 0.68407 0.0
C544 C 0.51696 0.51003 0.68395 0.0
C545 C 0.60213 0.50212 0.68298 0.0
C546 C 0.46452 0.43667 0.68372 0.0
C547 C 0.38395 0.49499 0.68239 0.0
N548 N 0.55736 0.48274 0.68295 0.0
N549 N 0.42868 0.51437 0.68294 0.0
H550 H 0.37305 0.07599 0.93599 0.0
H551 H 0.61425 0.92 0.93506 0.0
H552 H 0.51453 0.13763 0.93266 0.0
H553 H 0.47251 0.8585 0.93225 0.0
H554 H 0.57839 -4e-05 0.93598 0.0
H555 H 0.40897 0.99598 0.93646 0.0
C556 C 0.41172 0.07267 0.9354 0.0
C557 C 0.4409 0.11345 0.93424 0.0
C558 C 0.55511 0.96899 0.93517 0.0
C559 C 0.48221 0.02204 0.93477 0.0
C560 C 0.57554 0.92334 0.93467 0.0
C561 C 0.54626 0.88261 0.93353 0.0
C562 C 0.50501 0.97397 0.9346 0.0
C563 C 0.49637 0.88899 0.93308 0.0
C564 C 0.43218 0.02699 0.93564 0.0
C565 C 0.49075 0.1071 0.93353 0.0
N566 N 0.47729 0.93385 0.93361 0.0
N567 N 0.50985 0.06221 0.93379 0.0
H568 H 0.07415 0.37762 0.05728 0.0
H569 H 0.91892 0.61933 0.05558 0.0
H570 H 0.13626 0.51931 0.05928 0.0
H571 H 0.85689 0.47816 0.05929 0.0
H572 H -0.00116 0.58317 0.05527 0.0
H573 H 0.99429 0.4137 0.0564 0.0
C574 C 0.07096 0.41636 0.0575 0.0
C575 C 0.11184 0.44556 0.05839 0.0
C576 C 0.96777 0.56008 0.05614 0.0
C577 C 0.02058 0.48709 0.05737 0.0
C578 C 0.92213 0.58068 0.05628 0.0
C579 C 0.88126 0.55166 0.05749 0.0
C580 C 0.97258 0.51007 0.05716 0.0
C581 C 0.88749 0.50183 0.05837 0.0
C582 C 0.02536 0.43693 0.05702 0.0
C583 C 0.10565 0.49551 0.05863 0.0
N584 N 0.93232 0.48259 0.05819 0.0
N585 N 0.06084 0.51472 0.05813 0.0
H586 H 0.62352 0.57573 0.31096 0.0
H587 H 0.38066 0.42332 0.30564 0.0
H588 H 0.48309 0.63979 0.30763 0.0
H589 H 0.51985 0.35991 0.31181 0.0
H590 H 0.41785 0.50278 0.30555 0.0
H591 H 0.58651 0.49623 0.31057 0.0
C592 C 0.58486 0.57304 0.31015 0.0
C593 C 0.55629 0.61438 0.30934 0.0
C594 C 0.44029 0.47151 0.30692 0.0
C595 C 0.51368 0.52352 0.30886 0.0
C596 C 0.4191 0.42614 0.30695 0.0
C597 C 0.44725 0.38501 0.30876 0.0
C598 C 0.49004 0.4758 0.30868 0.0
C599 C 0.49683 0.39071 0.31041 0.0
C600 C 0.56375 0.52764 0.30993 0.0
C601 C 0.50642 0.60882 0.3083 0.0
N602 N 0.51666 0.43529 0.31033 0.0
N603 N 0.48669 0.56421 0.30808 0.0
H604 H 0.57611 0.87244 0.5608 0.0
H605 H 0.42394 0.11578 0.55659 0.0
H606 H 0.64043 0.01321 0.55917 0.0
H607 H 0.36021 0.97572 0.56102 0.0
H608 H 0.50348 0.07876 0.5568 0.0
H609 H 0.4967 0.9095 0.56023 0.0
C610 C 0.5735 0.9112 0.56032 0.0
C611 C 0.6149 0.93984 0.56004 0.0
C612 C 0.47213 0.05609 0.55772 0.0
C613 C 0.52407 0.98252 0.55937 0.0
C614 C 0.4267 0.0772 0.55758 0.0
C615 C 0.38545 0.04874 0.5588 0.0
C616 C 0.47635 0.00614 0.55906 0.0
C617 C 0.3911 -0.00103 0.56006 0.0
C618 C 0.52814 0.93233 0.56 0.0
C619 C 0.60941 0.98983 0.55942 0.0
N620 N 0.43572 0.97924 0.56016 0.0
N621 N 0.56481 0.0096 0.55909 0.0
H622 H 0.97779 0.13671 0.80837 0.0
H623 H 0.02357 0.85311 0.80901 0.0
H624 H 0.11837 0.07271 0.80542 0.0
H625 H 0.88269 0.91712 0.80709 0.0
H626 H 0.05918 0.93327 0.80783 0.0
H627 H 0.94218 0.05647 0.808 0.0
C628 C 0.00112 0.10575 0.8076 0.0
C629 C 0.05107 0.11128 0.80696 0.0
C630 C 0.02048 0.92977 0.80762 0.0
C631 C 0.01071 0.01945 0.80659 0.0
C632 C 0.00017 0.88405 0.80831 0.0
C633 C 0.95015 0.87856 0.80818 0.0
C634 C 0.9905 0.97025 0.80687 0.0
C635 C 0.92146 0.91978 0.80723 0.0
C636 C 0.98081 0.05997 0.80738 0.0
C637 C 0.07967 0.07001 0.80595 0.0
N638 N 0.94204 0.96391 0.80667 0.0
N639 N 0.05909 0.02581 0.80586 0.0
H640 H 0.56973 0.87535 0.18046 0.0
H641 H 0.41785 0.11933 0.17861 0.0
H642 H 0.63438 0.01607 0.17951 0.0
H643 H 0.35403 0.97819 0.17903 0.0
H644 H 0.49746 0.08239 0.17855 0.0
H645 H 0.49046 0.91253 0.17966 0.0
C646 C 0.56722 0.91413 0.18007 0.0
C647 C 0.60867 0.94271 0.18006 0.0
C648 C 0.46607 0.05948 0.17861 0.0
C649 C 0.51796 0.98557 0.17914 0.0
C650 C 0.42061 0.08054 0.17863 0.0
C651 C 0.37931 0.05174 0.17884 0.0
C652 C 0.47026 0.00923 0.17882 0.0
C653 C 0.38495 0.00172 0.17887 0.0
C654 C 0.52193 0.93534 0.17961 0.0
C655 C 0.60331 0.99274 0.17955 0.0
N656 N 0.42959 0.98205 0.1789 0.0
N657 N 0.55875 0.0126 0.17912 0.0
H658 H 0.8735 0.92112 0.43116 0.0
H659 H 0.11703 0.0729 0.42714 0.0
H660 H 0.01395 0.85631 0.42911 0.0
H661 H 0.976 0.13675 0.42844 0.0
H662 H 0.08013 0.99328 0.42738 0.0
H663 H 0.91054 0.00033 0.42984 0.0
C664 C 0.9122 0.92358 0.43043 0.0
C665 C 0.94074 0.88209 0.43026 0.0
C666 C 0.05723 0.02468 0.42756 0.0
C667 C 0.98344 0.97276 0.42873 0.0
C668 C 0.07826 0.07015 0.42741 0.0
C669 C 0.0495 0.11148 0.42779 0.0
C670 C 0.00704 0.02048 0.42813 0.0
C671 C -0.0005 0.10582 0.42814 0.0
C672 C 0.93333 0.96884 0.42966 0.0
C673 C 0.99065 0.8874 0.42929 0.0
N674 N 0.97987 0.06117 0.42834 0.0
N675 N 0.01045 0.93194 0.42857 0.0
H676 H 0.06903 0.37637 0.67611 0.0
H677 H 0.91585 0.61946 0.6757 0.0
H678 H 0.13232 0.5177 0.67514 0.0
H679 H 0.85248 0.47821 0.67705 0.0
H680 H 0.99523 0.58273 0.67421 0.0
H681 H 0.98936 0.41283 0.67519 0.0
C682 C 0.06615 0.4151 0.67564 0.0
C683 C 0.10732 0.4441 0.67575 0.0
C684 C 0.96399 0.55972 0.67477 0.0
C685 C 0.01621 0.4861 0.67474 0.0
C686 C 0.91864 0.58067 0.67561 0.0
C687 C 0.87756 0.5518 0.67655 0.0
C688 C 0.96836 0.5095 0.6749 0.0
C689 C 0.88325 0.50178 0.67637 0.0
C690 C 0.02064 0.4359 0.67512 0.0
C691 C 0.10149 0.49404 0.6751 0.0
N692 N 0.92785 0.4822 0.67562 0.0
N693 N 0.05676 0.51348 0.67468 0.0
H694 H 0.37216 0.4207 0.92425 0.0
H695 H 0.6145 0.57486 0.92436 0.0
H696 H 0.51381 0.35812 0.9253 0.0
H697 H 0.4729 0.63768 0.92458 0.0
H698 H 0.57829 0.49522 0.92299 0.0
H699 H 0.40837 0.50031 0.92265 0.0
C700 C 0.41092 0.42371 0.92407 0.0
C701 C 0.44006 0.3828 0.92499 0.0
C702 C 0.55509 0.52639 0.92327 0.0
C703 C 0.48176 0.47382 0.92321 0.0
C704 C 0.57575 0.57189 0.92404 0.0
C705 C 0.54661 0.6129 0.92466 0.0
C706 C 0.5049 0.5218 0.92314 0.0
C707 C 0.49666 0.60697 0.92417 0.0
C708 C 0.43157 0.46919 0.92317 0.0
C709 C 0.49003 0.38876 0.92467 0.0
N710 N 0.47736 0.56223 0.92351 0.0
N711 N 0.50931 0.43347 0.92387 0.0
H712 H 0.57409 0.61942 0.06713 0.0
H713 H 0.42016 0.37689 0.06633 0.0
H714 H 0.63694 0.47797 0.06545 0.0
H715 H 0.3573 0.51847 0.06678 0.0
H716 H 0.49987 0.41307 0.06758 0.0
H717 H 0.4946 0.58296 0.0686 0.0
C718 C 0.57117 0.58064 0.06714 0.0
C719 C 0.61213 0.55164 0.0661 0.0
C720 C 0.46867 0.43626 0.06747 0.0
C721 C 0.52119 0.50965 0.06773 0.0
C722 C 0.42314 0.41563 0.06676 0.0
C723 C 0.38209 0.44477 0.06638 0.0
C724 C 0.47324 0.48645 0.06778 0.0
C725 C 0.38803 0.4947 0.06701 0.0
C726 C 0.52575 0.55985 0.06797 0.0
C727 C 0.60626 0.50164 0.0662 0.0
N728 N 0.43279 0.51399 0.06762 0.0
N729 N 0.56159 0.48222 0.06694 0.0
H730 H 0.52143 0.14215 0.31313 0.0
H731 H 0.48006 0.85727 0.3133 0.0
H732 H 0.38154 0.07597 0.31476 0.0
H733 H 0.61935 0.92421 0.31072 0.0
H734 H 0.44325 0.93695 0.31459 0.0
H735 H 0.55813 0.06241 0.31312 0.0
C736 C 0.49847 0.11082 0.31356 0.0
C737 C 0.44839 0.11564 0.31392 0.0
C738 C 0.48188 0.93419 0.31375 0.0
C739 C 0.49006 0.02427 0.31385 0.0
C740 C 0.50286 0.88874 0.31301 0.0
C741 C 0.55278 0.88418 0.31188 0.0
C742 C 0.51106 0.97534 0.31336 0.0
C743 C 0.58068 0.9261 0.31157 0.0
C744 C 0.51941 0.0653 0.31353 0.0
C745 C 0.42032 0.07386 0.31446 0.0
N746 N 0.55944 0.96989 0.31229 0.0
N747 N 0.44153 0.02992 0.31437 0.0
H748 H 0.92398 0.87347 0.56261 0.0
H749 H 0.07612 0.11734 0.56322 0.0
H750 H 0.85952 0.01434 0.5625 0.0
H751 H 0.1399 0.97616 0.56318 0.0
H752 H 0.99652 0.08049 0.5636 0.0
H753 H 0.00328 0.91057 0.56337 0.0
C754 C 0.92653 0.91227 0.56276 0.0
C755 C 0.88511 0.9409 0.56247 0.0
C756 C 0.02789 0.05754 0.56355 0.0
C757 C 0.97589 0.98368 0.56334 0.0
C758 C 0.07336 0.07855 0.56335 0.0
C759 C 0.11466 0.04972 0.56315 0.0
C760 C 0.02366 0.0073 0.56353 0.0
C761 C 0.10899 -0.00029 0.56332 0.0
C762 C 0.97185 0.93344 0.5632 0.0
C763 C 0.89055 0.99095 0.5627 0.0
N764 N 0.06432 0.98008 0.56347 0.0
N765 N 0.93514 0.01077 0.5631 0.0
H766 H 0.02236 0.63649 0.81833 0.0
H767 H 0.97822 0.35249 0.8167 0.0
H768 H 0.88192 0.57129 0.81721 0.0
H769 H 0.11871 0.41766 0.81746 0.0
H770 H 0.94212 0.43221 0.81849 0.0
H771 H 0.05829 0.55652 0.81964 0.0
C772 C -0.00091 0.60534 0.81844 0.0
C773 C 0.94914 0.61046 0.81758 0.0
C774 C 0.98086 0.42907 0.81834 0.0
C775 C 0.9899 0.51891 0.81901 0.0
C776 C 0.00146 0.38356 0.81733 0.0
C777 C 0.05149 0.37854 0.81685 0.0
C778 C 0.01054 0.46982 0.81885 0.0
C779 C 0.07994 0.41996 0.81773 0.0
C780 C 0.01959 0.5597 0.81918 0.0
C781 C 0.92064 0.56894 0.8178 0.0
N782 N 0.05905 0.46388 0.81862 0.0
N783 N 0.94143 0.5249 0.81842 0.0
loop_
_geom_bond_atom_site_label_1
_geom_bond_atom_site_label_2
_geom_bond_distance
_geom_bond_site_symmetry_2
_ccdc_geom_bond_type
In0 O1 2.294 . S
In0 O2 2.326 . S
In0 O6 2.266 . S
In0 O7 2.326 . S
In0 O8 2.266 . S
In0 O9 2.326 . S
In0 O11 2.294 . S
In0 O12 2.326 . S
O1 In0 2.294 . S
O1 C10 1.240 . S
O2 In0 2.326 . S
O2 C10 1.252 . S
C3 O6 1.252 . S
C3 O7 1.260 . S
C4 O11 1.240 . S
C4 O12 1.252 . S
C5 O8 1.252 . S
C5 O9 1.260 . S
O6 In0 2.266 . S
O6 C3 1.252 . S
O7 In0 2.326 . S
O7 C3 1.260 . S
O8 In0 2.266 . S
O8 C5 1.252 . S
O9 In0 2.326 . S
O9 C5 1.260 . S
C10 O1 1.240 . S
C10 O2 1.252 . S
O11 In0 2.294 . S
O11 C4 1.240 . S
O12 In0 2.326 . S
O12 C4 1.252 . S
In13 O14 2.294 . S
In13 O15 2.326 . S
In13 O19 2.266 . S
In13 O20 2.326 . S
In13 O21 2.266 . S
In13 O22 2.326 . S
In13 O24 2.294 . S
In13 O25 2.326 . S
O14 In13 2.294 . S
O14 C23 1.240 . S
O15 In13 2.326 . S
O15 C23 1.252 . S
C16 O19 1.252 . S
C16 O20 1.260 . S
C17 O24 1.240 . S
C17 O25 1.252 . S
C18 O21 1.252 . S
C18 O22 1.260 . S
O19 In13 2.266 . S
O19 C16 1.252 . S
O20 In13 2.326 . S
O20 C16 1.260 . S
O21 In13 2.266 . S
O21 C18 1.252 . S
O22 In13 2.326 . S
O22 C18 1.260 . S
C23 O14 1.240 . S
C23 O15 1.252 . S
O24 In13 2.294 . S
O24 C17 1.240 . S
O25 In13 2.326 . S
O25 C17 1.252 . S
In26 O27 2.294 . S
In26 O28 2.326 . S
In26 O32 2.266 . S
In26 O33 2.326 . S
In26 O34 2.266 . S
In26 O35 2.326 . S
In26 O37 2.294 . S
In26 O38 2.326 . S
O27 In26 2.294 . S
O27 C36 1.240 . S
O28 In26 2.326 . S
O28 C36 1.252 . S
C29 O32 1.252 . S
C29 O33 1.260 . S
C30 O37 1.240 . S
C30 O38 1.252 . S
C31 O34 1.252 . S
C31 O35 1.260 . S
O32 In26 2.266 . S
O32 C29 1.252 . S
O33 In26 2.326 . S
O33 C29 1.260 . S
O34 In26 2.266 . S
O34 C31 1.252 . S
O35 In26 2.326 . S
O35 C31 1.260 . S
C36 O27 1.240 . S
C36 O28 1.252 . S
O37 In26 2.294 . S
O37 C30 1.240 . S
O38 In26 2.326 . S
O38 C30 1.252 . S
In39 O40 2.294 . S
In39 O41 2.326 . S
In39 O45 2.266 . S
In39 O46 2.326 . S
In39 O47 2.266 . S
In39 O48 2.326 . S
In39 O50 2.294 . S
In39 O51 2.326 . S
O40 In39 2.294 . S
O40 C49 1.240 . S
O41 In39 2.326 . S
O41 C49 1.252 . S
C42 O45 1.252 . S
C42 O46 1.260 . S
C43 O50 1.240 . S
C43 O51 1.252 . S
C44 O47 1.252 . S
C44 O48 1.260 . S
O45 In39 2.266 . S
O45 C42 1.252 . S
O46 In39 2.326 . S
O46 C42 1.260 . S
O47 In39 2.266 . S
O47 C44 1.252 . S
O48 In39 2.326 . S
O48 C44 1.260 . S
C49 O40 1.240 . S
C49 O41 1.252 . S
O50 In39 2.294 . S
O50 C43 1.240 . S
O51 In39 2.326 . S
O51 C43 1.252 . S
In52 O53 2.294 . S
In52 O54 2.326 . S
In52 O58 2.266 . S
In52 O59 2.326 . S
In52 O60 2.266 . S
In52 O61 2.326 . S
In52 O63 2.294 . S
In52 O64 2.326 . S
O53 In52 2.294 . S
O53 C62 1.240 . S
O54 In52 2.326 . S
O54 C62 1.252 . S
C55 O58 1.252 . S
C55 O59 1.260 . S
C56 O63 1.240 . S
C56 O64 1.252 . S
C57 O60 1.252 . S
C57 O61 1.260 . S
O58 In52 2.266 . S
O58 C55 1.252 . S
O59 In52 2.326 . S
O59 C55 1.260 . S
O60 In52 2.266 . S
O60 C57 1.252 . S
O61 In52 2.326 . S
O61 C57 1.260 . S
C62 O53 1.240 . S
C62 O54 1.252 . S
O63 In52 2.294 . S
O63 C56 1.240 . S
O64 In52 2.326 . S
O64 C56 1.252 . S
In65 O66 2.294 . S
In65 O67 2.326 . S
In65 O71 2.266 . S
In65 O72 2.326 . S
In65 O73 2.266 . S
In65 O74 2.326 . S
In65 O76 2.294 . S
In65 O77 2.326 . S
O66 In65 2.294 . S
O66 C75 1.240 . S
O67 In65 2.326 . S
O67 C75 1.252 . S
C68 O71 1.252 . S
C68 O72 1.260 . S
C69 O76 1.240 . S
C69 O77 1.252 . S
C70 O73 1.252 . S
C70 O74 1.260 . S
O71 In65 2.266 . S
O71 C68 1.252 . S
O72 In65 2.326 . S
O72 C68 1.260 . S
O73 In65 2.266 . S
O73 C70 1.252 . S
O74 In65 2.326 . S
O74 C70 1.260 . S
C75 O66 1.240 . S
C75 O67 1.252 . S
O76 In65 2.294 . S
O76 C69 1.240 . S
O77 In65 2.326 . S
O77 C69 1.252 . S
In78 O79 2.294 . S
In78 O80 2.326 . S
In78 O84 2.266 . S
In78 O85 2.326 . S
In78 O86 2.266 . S
In78 O87 2.326 . S
In78 O89 2.294 . S
In78 O90 2.326 . S
O79 In78 2.294 . S
O79 C88 1.240 . S
O80 In78 2.326 . S
O80 C88 1.252 . S
C81 O84 1.252 . S
C81 O85 1.260 . S
C82 O89 1.240 . S
C82 O90 1.252 . S
C83 O86 1.252 . S
C83 O87 1.260 . S
O84 In78 2.266 . S
O84 C81 1.252 . S
O85 In78 2.326 . S
O85 C81 1.260 . S
O86 In78 2.266 . S
O86 C83 1.252 . S
O87 In78 2.326 . S
O87 C83 1.260 . S
C88 O79 1.240 . S
C88 O80 1.252 . S
O89 In78 2.294 . S
O89 C82 1.240 . S
O90 In78 2.326 . S
O90 C82 1.252 . S
In91 O92 2.294 . S
In91 O93 2.326 . S
In91 O97 2.266 . S
In91 O98 2.326 . S
In91 O99 2.266 . S
In91 O100 2.326 . S
In91 O102 2.294 . S
In91 O103 2.326 . S
O92 In91 2.294 . S
O92 C101 1.240 . S
O93 In91 2.326 . S
O93 C101 1.252 . S
C94 O97 1.252 . S
C94 O98 1.260 . S
C95 O102 1.240 . S
C95 O103 1.252 . S
C96 O99 1.252 . S
C96 O100 1.260 . S
O97 In91 2.266 . S
O97 C94 1.252 . S
O98 In91 2.326 . S
O98 C94 1.260 . S
O99 In91 2.266 . S
O99 C96 1.252 . S
O100 In91 2.326 . S
O100 C96 1.260 . S
C101 O92 1.240 . S
C101 O93 1.252 . S
O102 In91 2.294 . S
O102 C95 1.240 . S
O103 In91 2.326 . S
O103 C95 1.252 . S
In104 O105 2.294 . S
In104 O106 2.326 . S
In104 O110 2.266 . S
In104 O111 2.326 . S
In104 O112 2.266 . S
In104 O113 2.326 . S
In104 O115 2.294 . S
In104 O116 2.326 . S
O105 In104 2.294 . S
O105 C114 1.240 . S
O106 In104 2.326 . S
O106 C114 1.252 . S
C107 O110 1.252 . S
C107 O111 1.260 . S
C108 O115 1.240 . S
C108 O116 1.252 . S
C109 O112 1.252 . S
C109 O113 1.260 . S
O110 In104 2.266 . S
O110 C107 1.252 . S
O111 In104 2.326 . S
O111 C107 1.260 . S
O112 In104 2.266 . S
O112 C109 1.252 . S
O113 In104 2.326 . S
O113 C109 1.260 . S
C114 O105 1.240 . S
C114 O106 1.252 . S
O115 In104 2.294 . S
O115 C108 1.240 . S
O116 In104 2.326 . S
O116 C108 1.252 . S
In117 O118 2.294 . S
In117 O119 2.326 . S
In117 O123 2.266 . S
In117 O124 2.326 . S
In117 O125 2.266 . S
In117 O126 2.326 . S
In117 O128 2.294 . S
In117 O129 2.326 . S
O118 In117 2.294 . S
O118 C127 1.240 . S
O119 In117 2.326 . S
O119 C127 1.252 . S
C120 O123 1.252 . S
C120 O124 1.260 . S
C121 O128 1.240 . S
C121 O129 1.252 . S
C122 O125 1.252 . S
C122 O126 1.260 . S
O123 In117 2.266 . S
O123 C120 1.252 . S
O124 In117 2.326 . S
O124 C120 1.260 . S
O125 In117 2.266 . S
O125 C122 1.252 . S
O126 In117 2.326 . S
O126 C122 1.260 . S
C127 O118 1.240 . S
C127 O119 1.252 . S
O128 In117 2.294 . S
O128 C121 1.240 . S
O129 In117 2.326 . S
O129 C121 1.252 . S
In130 O131 2.294 . S
In130 O132 2.326 . S
In130 O136 2.266 . S
In130 O137 2.326 . S
In130 O138 2.266 . S
In130 O139 2.326 . S
In130 O141 2.294 . S
In130 O142 2.326 . S
O131 In130 2.294 . S
O131 C140 1.240 . S
O132 In130 2.326 . S
O132 C140 1.252 . S
C133 O136 1.252 . S
C133 O137 1.260 . S
C134 O141 1.240 . S
C134 O142 1.252 . S
C135 O138 1.252 . S
C135 O139 1.260 . S
O136 In130 2.266 . S
O136 C133 1.252 . S
O137 In130 2.326 . S
O137 C133 1.260 . S
O138 In130 2.266 . S
O138 C135 1.252 . S
O139 In130 2.326 . S
O139 C135 1.260 . S
C140 O131 1.240 . S
C140 O132 1.252 . S
O141 In130 2.294 . S
O141 C134 1.240 . S
O142 In130 2.326 . S
O142 C134 1.252 . S
In143 O144 2.294 . S
In143 O145 2.326 . S
In143 O149 2.266 . S
In143 O150 2.326 . S
In143 O151 2.266 . S
In143 O152 2.326 . S
In143 O154 2.294 . S
In143 O155 2.326 . S
O144 In143 2.294 . S
O144 C153 1.240 . S
O145 In143 2.326 . S
O145 C153 1.252 . S
C146 O149 1.252 . S
C146 O150 1.260 . S
C147 O154 1.240 . S
C147 O155 1.252 . S
C148 O151 1.252 . S
C148 O152 1.260 . S
O149 In143 2.266 . S
O149 C146 1.252 . S
O150 In143 2.326 . S
O150 C146 1.260 . S
O151 In143 2.266 . S
O151 C148 1.252 . S
O152 In143 2.326 . S
O152 C148 1.260 . S
C153 O144 1.240 . S
C153 O145 1.252 . S
O154 In143 2.294 . S
O154 C147 1.240 . S
O155 In143 2.326 . S
O155 C147 1.252 . S
In156 O157 2.294 . S
In156 O158 2.326 . S
In156 O162 2.266 . S
In156 O163 2.326 . S
In156 O164 2.266 . S
In156 O165 2.326 . S
In156 O167 2.294 . S
In156 O168 2.326 . S
O157 In156 2.294 . S
O157 C166 1.240 . S
O158 In156 2.326 . S
O158 C166 1.252 . S
C159 O162 1.252 . S
C159 O163 1.260 . S
C160 O167 1.240 . S
C160 O168 1.252 . S
C161 O164 1.252 . S
C161 O165 1.260 . S
O162 In156 2.266 . S
O162 C159 1.252 . S
O163 In156 2.326 . S
O163 C159 1.260 . S
O164 In156 2.266 . S
O164 C161 1.252 . S
O165 In156 2.326 . S
O165 C161 1.260 . S
C166 O157 1.240 . S
C166 O158 1.252 . S
O167 In156 2.294 . S
O167 C160 1.240 . S
O168 In156 2.326 . S
O168 C160 1.252 . S
In169 O170 2.294 . S
In169 O171 2.326 . S
In169 O175 2.266 . S
In169 O176 2.326 . S
In169 O177 2.266 . S
In169 O178 2.326 . S
In169 O180 2.294 . S
In169 O181 2.326 . S
O170 In169 2.294 . S
O170 C179 1.240 . S
O171 In169 2.326 . S
O171 C179 1.252 . S
C172 O175 1.252 . S
C172 O176 1.260 . S
C173 O180 1.240 . S
C173 O181 1.252 . S
C174 O177 1.252 . S
C174 O178 1.260 . S
O175 In169 2.266 . S
O175 C172 1.252 . S
O176 In169 2.326 . S
O176 C172 1.260 . S
O177 In169 2.266 . S
O177 C174 1.252 . S
O178 In169 2.326 . S
O178 C174 1.260 . S
C179 O170 1.240 . S
C179 O171 1.252 . S
O180 In169 2.294 . S
O180 C173 1.240 . S
O181 In169 2.326 . S
O181 C173 1.252 . S
In182 O183 2.294 . S
In182 O184 2.326 . S
In182 O188 2.266 . S
In182 O189 2.326 . S
In182 O190 2.266 . S
In182 O191 2.326 . S
In182 O193 2.294 . S
In182 O194 2.326 . S
O183 In182 2.294 . S
O183 C192 1.240 . S
O184 In182 2.326 . S
O184 C192 1.252 . S
C185 O188 1.252 . S
C185 O189 1.260 . S
C186 O193 1.240 . S
C186 O194 1.252 . S
C187 O190 1.252 . S
C187 O191 1.260 . S
O188 In182 2.266 . S
O188 C185 1.252 . S
O189 In182 2.326 . S
O189 C185 1.260 . S
O190 In182 2.266 . S
O190 C187 1.252 . S
O191 In182 2.326 . S
O191 C187 1.260 . S
C192 O183 1.240 . S
C192 O184 1.252 . S
O193 In182 2.294 . S
O193 C186 1.240 . S
O194 In182 2.326 . S
O194 C186 1.252 . S
In195 O196 2.294 . S
In195 O197 2.326 . S
In195 O201 2.266 . S
In195 O202 2.326 . S
In195 O203 2.266 . S
In195 O204 2.326 . S
In195 O206 2.294 . S
In195 O207 2.326 . S
O196 In195 2.294 . S
O196 C205 1.240 . S
O197 In195 2.326 . S
O197 C205 1.252 . S
C198 O201 1.252 . S
C198 O202 1.260 . S
C199 O206 1.240 . S
C199 O207 1.252 . S
C200 O203 1.252 . S
C200 O204 1.260 . S
O201 In195 2.266 . S
O201 C198 1.252 . S
O202 In195 2.326 . S
O202 C198 1.260 . S
O203 In195 2.266 . S
O203 C200 1.252 . S
O204 In195 2.326 . S
O204 C200 1.260 . S
C205 O196 1.240 . S
C205 O197 1.252 . S
O206 In195 2.294 . S
O206 C199 1.240 . S
O207 In195 2.326 . S
O207 C199 1.252 . S
H208 C214 0.930 . S
H209 C218 0.930 . S
H210 C223 0.929 . S
H211 C221 0.929 . S
H212 C216 0.929 . S
H213 C222 0.929 . S
C214 H208 0.930 . S
C214 C215 1.367 . S
C214 C222 1.378 . S
C215 C214 1.367 . S
C215 C223 1.433 . S
C216 H212 0.929 . S
C216 C218 1.378 . S
C216 C220 1.350 . S
C217 C220 1.463 . S
C217 C222 1.350 . S
C217 N225 1.427 . S
C218 H209 0.930 . S
C218 C216 1.378 . S
C218 C219 1.367 . S
C219 C218 1.367 . S
C219 C221 1.433 . S
C220 C216 1.350 . S
C220 C217 1.463 . S
C220 N224 1.427 . S
C221 H211 0.929 . S
C221 C219 1.433 . S
C221 N224 1.384 . S
C222 H213 0.929 . S
C222 C214 1.378 . S
C222 C217 1.350 . S
C223 H210 0.929 . S
C223 C215 1.433 . S
C223 N225 1.384 . S
N224 C220 1.427 . S
N224 C221 1.384 . S
N225 C217 1.427 . S
N225 C223 1.384 . S
H226 C232 0.930 . S
H227 C236 0.930 . S
H228 C241 0.929 . S
H229 C239 0.929 . S
H230 C234 0.929 . S
H231 C240 0.929 . S
C232 H226 0.930 . S
C232 C233 1.367 . S
C232 C240 1.378 . S
C233 C232 1.367 . S
C233 C241 1.433 . S
C234 H230 0.929 . S
C234 C236 1.378 . S
C234 C238 1.350 . S
C235 C238 1.463 . S
C235 C240 1.350 . S
C235 N243 1.427 . S
C236 H227 0.930 . S
C236 C234 1.378 . S
C236 C237 1.367 . S
C237 C236 1.367 . S
C237 C239 1.433 . S
C238 C234 1.350 . S
C238 C235 1.463 . S
C238 N242 1.427 . S
C239 H229 0.929 . S
C239 C237 1.433 . S
C239 N242 1.384 . S
C240 H231 0.929 . S
C240 C232 1.378 . S
C240 C235 1.350 . S
C241 H228 0.929 . S
C241 C233 1.433 . S
C241 N243 1.384 . S
N242 C238 1.427 . S
N242 C239 1.384 . S
N243 C235 1.427 . S
N243 C241 1.384 . S
H244 C250 0.930 . S
H245 C254 0.930 . S
H246 C259 0.929 . S
H247 C257 0.929 . S
H248 C252 0.929 . S
H249 C258 0.929 . S
C250 H244 0.930 . S
C250 C251 1.367 . S
C250 C258 1.378 . S
C251 C250 1.367 . S
C251 C259 1.433 . S
C252 H248 0.929 . S
C252 C254 1.378 . S
C252 C256 1.350 . S
C253 C256 1.463 . S
C253 C258 1.350 . S
C253 N261 1.427 . S
C254 H245 0.930 . S
C254 C252 1.378 . S
C254 C255 1.367 . S
C255 C254 1.367 . S
C255 C257 1.433 . S
C256 C252 1.350 . S
C256 C253 1.463 . S
C256 N260 1.427 . S
C257 H247 0.929 . S
C257 C255 1.433 . S
C257 N260 1.384 . S
C258 H249 0.929 . S
C258 C250 1.378 . S
C258 C253 1.350 . S
C259 H246 0.929 . S
C259 C251 1.433 . S
C259 N261 1.384 . S
N260 C256 1.427 . S
N260 C257 1.384 . S
N261 C253 1.427 . S
N261 C259 1.384 . S
H262 C268 0.930 . S
H263 C272 0.930 . S
H264 C277 0.929 . S
H265 C275 0.929 . S
H266 C270 0.929 . S
H267 C276 0.929 . S
C268 H262 0.930 . S
C268 C269 1.367 . S
C268 C276 1.378 . S
C269 C268 1.367 . S
C269 C277 1.433 . S
C270 H266 0.929 . S
C270 C272 1.378 . S
C270 C274 1.350 . S
C271 C274 1.463 . S
C271 C276 1.350 . S
C271 N279 1.427 . S
C272 H263 0.930 . S
C272 C270 1.378 . S
C272 C273 1.367 . S
C273 C272 1.367 . S
C273 C275 1.433 . S
C274 C270 1.350 . S
C274 C271 1.463 . S
C274 N278 1.427 . S
C275 H265 0.929 . S
C275 C273 1.433 . S
C275 N278 1.384 . S
C276 H267 0.929 . S
C276 C268 1.378 . S
C276 C271 1.350 . S
C277 H264 0.929 . S
C277 C269 1.433 . S
C277 N279 1.384 . S
N278 C274 1.427 . S
N278 C275 1.384 . S
N279 C271 1.427 . S
N279 C277 1.384 . S
H280 C286 0.930 . S
H281 C290 0.930 . S
H282 C295 0.929 . S
H283 C293 0.929 . S
H284 C288 0.929 . S
H285 C294 0.929 . S
C286 H280 0.930 . S
C286 C287 1.367 . S
C286 C294 1.378 . S
C287 C286 1.367 . S
C287 C295 1.433 . S
C288 H284 0.929 . S
C288 C290 1.378 . S
C288 C292 1.350 . S
C289 C292 1.463 . S
C289 C294 1.350 . S
C289 N297 1.427 . S
C290 H281 0.930 . S
C290 C288 1.378 . S
C290 C291 1.367 . S
C291 C290 1.367 . S
C291 C293 1.433 . S
C292 C288 1.350 . S
C292 C289 1.463 . S
C292 N296 1.427 . S
C293 H283 0.929 . S
C293 C291 1.433 . S
C293 N296 1.384 . S
C294 H285 0.929 . S
C294 C286 1.378 . S
C294 C289 1.350 . S
C295 H282 0.929 . S
C295 C287 1.433 . S
C295 N297 1.384 . S
N296 C292 1.427 . S
N296 C293 1.384 . S
N297 C289 1.427 . S
N297 C295 1.384 . S
H298 C304 0.930 . S
H299 C308 0.930 . S
H300 C313 0.929 . S
H301 C311 0.929 . S
H302 C306 0.929 . S
H303 C312 0.929 . S
C304 H298 0.930 . S
C304 C305 1.367 . S
C304 C312 1.378 . S
C305 C304 1.367 . S
C305 C313 1.433 . S
C306 H302 0.929 . S
C306 C308 1.378 . S
C306 C310 1.350 . S
C307 C310 1.463 . S
C307 C312 1.350 . S
C307 N315 1.427 . S
C308 H299 0.930 . S
C308 C306 1.378 . S
C308 C309 1.367 . S
C309 C308 1.367 . S
C309 C311 1.433 . S
C310 C306 1.350 . S
C310 C307 1.463 . S
C310 N314 1.427 . S
C311 H301 0.929 . S
C311 C309 1.433 . S
C311 N314 1.384 . S
C312 H303 0.929 . S
C312 C304 1.378 . S
C312 C307 1.350 . S
C313 H300 0.929 . S
C313 C305 1.433 . S
C313 N315 1.384 . S
N314 C310 1.427 . S
N314 C311 1.384 . S
N315 C307 1.427 . S
N315 C313 1.384 . S
H316 C322 0.930 . S
H317 C326 0.930 . S
H318 C331 0.929 . S
H319 C329 0.929 . S
H320 C324 0.929 . S
H321 C330 0.929 . S
C322 H316 0.930 . S
C322 C323 1.367 . S
C322 C330 1.378 . S
C323 C322 1.367 . S
C323 C331 1.433 . S
C324 H320 0.929 . S
C324 C326 1.378 . S
C324 C328 1.350 . S
C325 C328 1.463 . S
C325 C330 1.350 . S
C325 N333 1.427 . S
C326 H317 0.930 . S
C326 C324 1.378 . S
C326 C327 1.367 . S
C327 C326 1.367 . S
C327 C329 1.433 . S
C328 C324 1.350 . S
C328 C325 1.463 . S
C328 N332 1.427 . S
C329 H319 0.929 . S
C329 C327 1.433 . S
C329 N332 1.384 . S
C330 H321 0.929 . S
C330 C322 1.378 . S
C330 C325 1.350 . S
C331 H318 0.929 . S
C331 C323 1.433 . S
C331 N333 1.384 . S
N332 C328 1.427 . S
N332 C329 1.384 . S
N333 C325 1.427 . S
N333 C331 1.384 . S
H334 C340 0.930 . S
H335 C344 0.930 . S
H336 C349 0.929 . S
H337 C347 0.929 . S
H338 C342 0.929 . S
H339 C348 0.929 . S
C340 H334 0.930 . S
C340 C341 1.367 . S
C340 C348 1.378 . S
C341 C340 1.367 . S
C341 C349 1.433 . S
C342 H338 0.929 . S
C342 C344 1.378 . S
C342 C346 1.350 . S
C343 C346 1.463 . S
C343 C348 1.350 . S
C343 N351 1.427 . S
C344 H335 0.930 . S
C344 C342 1.378 . S
C344 C345 1.367 . S
C345 C344 1.367 . S
C345 C347 1.433 . S
C346 C342 1.350 . S
C346 C343 1.463 . S
C346 N350 1.427 . S
C347 H337 0.929 . S
C347 C345 1.433 . S
C347 N350 1.384 . S
C348 H339 0.929 . S
C348 C340 1.378 . S
C348 C343 1.350 . S
C349 H336 0.929 . S
C349 C341 1.433 . S
C349 N351 1.384 . S
N350 C346 1.427 . S
N350 C347 1.384 . S
N351 C343 1.427 . S
N351 C349 1.384 . S
H352 C358 0.930 . S
H353 C362 0.930 . S
H354 C367 0.929 . S
H355 C365 0.929 . S
H356 C360 0.929 . S
H357 C366 0.929 . S
C358 H352 0.930 . S
C358 C359 1.367 . S
C358 C366 1.378 . S
C359 C358 1.367 . S
C359 C367 1.433 . S
C360 H356 0.929 . S
C360 C362 1.378 . S
C360 C364 1.350 . S
C361 C364 1.463 . S
C361 C366 1.350 . S
C361 N369 1.427 . S
C362 H353 0.930 . S
C362 C360 1.378 . S
C362 C363 1.367 . S
C363 C362 1.367 . S
C363 C365 1.433 . S
C364 C360 1.350 . S
C364 C361 1.463 . S
C364 N368 1.427 . S
C365 H355 0.929 . S
C365 C363 1.433 . S
C365 N368 1.384 . S
C366 H357 0.929 . S
C366 C358 1.378 . S
C366 C361 1.350 . S
C367 H354 0.929 . S
C367 C359 1.433 . S
C367 N369 1.384 . S
N368 C364 1.427 . S
N368 C365 1.384 . S
N369 C361 1.427 . S
N369 C367 1.384 . S
H370 C376 0.930 . S
H371 C380 0.930 . S
H372 C385 0.929 . S
H373 C383 0.929 . S
H374 C378 0.929 . S
H375 C384 0.929 . S
C376 H370 0.930 . S
C376 C377 1.367 . S
C376 C384 1.378 . S
C377 C376 1.367 . S
C377 C385 1.433 . S
C378 H374 0.929 . S
C378 C380 1.378 . S
C378 C382 1.350 . S
C379 C382 1.463 . S
C379 C384 1.350 . S
C379 N387 1.427 . S
C380 H371 0.930 . S
C380 C378 1.378 . S
C380 C381 1.367 . S
C381 C380 1.367 . S
C381 C383 1.433 . S
C382 C378 1.350 . S
C382 C379 1.463 . S
C382 N386 1.427 . S
C383 H373 0.929 . S
C383 C381 1.433 . S
C383 N386 1.384 . S
C384 H375 0.929 . S
C384 C376 1.378 . S
C384 C379 1.350 . S
C385 H372 0.929 . S
C385 C377 1.433 . S
C385 N387 1.384 . S
N386 C382 1.427 . S
N386 C383 1.384 . S
N387 C379 1.427 . S
N387 C385 1.384 . S
H388 C394 0.930 . S
H389 C398 0.930 . S
H390 C403 0.929 . S
H391 C401 0.929 . S
H392 C396 0.929 . S
H393 C402 0.929 . S
C394 H388 0.930 . S
C394 C395 1.367 . S
C394 C402 1.378 . S
C395 C394 1.367 . S
C395 C403 1.433 . S
C396 H392 0.929 . S
C396 C398 1.378 . S
C396 C400 1.350 . S
C397 C400 1.463 . S
C397 C402 1.350 . S
C397 N405 1.427 . S
C398 H389 0.930 . S
C398 C396 1.378 . S
C398 C399 1.367 . S
C399 C398 1.367 . S
C399 C401 1.433 . S
C400 C396 1.350 . S
C400 C397 1.463 . S
C400 N404 1.427 . S
C401 H391 0.929 . S
C401 C399 1.433 . S
C401 N404 1.384 . S
C402 H393 0.929 . S
C402 C394 1.378 . S
C402 C397 1.350 . S
C403 H390 0.929 . S
C403 C395 1.433 . S
C403 N405 1.384 . S
N404 C400 1.427 . S
N404 C401 1.384 . S
N405 C397 1.427 . S
N405 C403 1.384 . S
H406 C412 0.930 . S
H407 C416 0.930 . S
H408 C421 0.929 . S
H409 C419 0.929 . S
H410 C414 0.929 . S
H411 C420 0.929 . S
C412 H406 0.930 . S
C412 C413 1.367 . S
C412 C420 1.378 . S
C413 C412 1.367 . S
C413 C421 1.433 . S
C414 H410 0.929 . S
C414 C416 1.378 . S
C414 C418 1.350 . S
C415 C418 1.463 1_554 S
C415 C420 1.350 . S
C415 N423 1.427 . S
C416 H407 0.930 . S
C416 C414 1.378 . S
C416 C417 1.367 . S
C417 C416 1.367 . S
C417 C419 1.433 . S
C418 C414 1.350 . S
C418 C415 1.463 1_556 S
C418 N422 1.427 . S
C419 H409 0.929 . S
C419 C417 1.433 . S
C419 N422 1.384 . S
C420 H411 0.929 . S
C420 C412 1.378 . S
C420 C415 1.350 . S
C421 H408 0.929 . S
C421 C413 1.433 . S
C421 N423 1.384 . S
N422 C418 1.427 . S
N422 C419 1.384 . S
N423 C415 1.427 . S
N423 C421 1.384 . S
H424 C430 0.930 . S
H425 C434 0.930 . S
H426 C439 0.929 . S
H427 C437 0.929 . S
H428 C432 0.929 . S
H429 C438 0.929 . S
C430 H424 0.930 . S
C430 C431 1.367 . S
C430 C438 1.378 . S
C431 C430 1.367 . S
C431 C439 1.433 . S
C432 H428 0.929 . S
C432 C434 1.378 . S
C432 C436 1.350 . S
C433 C436 1.463 1_554 S
C433 C438 1.350 . S
C433 N441 1.427 . S
C434 H425 0.930 . S
C434 C432 1.378 . S
C434 C435 1.367 . S
C435 C434 1.367 . S
C435 C437 1.433 . S
C436 C432 1.350 . S
C436 C433 1.463 1_556 S
C436 N440 1.427 . S
C437 H427 0.929 . S
C437 C435 1.433 . S
C437 N440 1.384 . S
C438 H429 0.929 . S
C438 C430 1.378 . S
C438 C433 1.350 . S
C439 H426 0.929 . S
C439 C431 1.433 . S
C439 N441 1.384 . S
N440 C436 1.427 . S
N440 C437 1.384 . S
N441 C433 1.427 . S
N441 C439 1.384 . S
H442 C448 0.930 . S
H443 C452 0.930 . S
H444 C457 0.929 . S
H445 C455 0.929 . S
H446 C450 0.929 . S
H447 C456 0.929 . S
C448 H442 0.930 . S
C448 C449 1.367 . S
C448 C456 1.378 . S
C449 C448 1.367 . S
C449 C457 1.433 . S
C450 H446 0.929 . S
C450 C452 1.378 . S
C450 C454 1.350 . S
C451 C454 1.463 . S
C451 C456 1.350 . S
C451 N459 1.427 . S
C452 H443 0.930 . S
C452 C450 1.378 . S
C452 C453 1.367 . S
C453 C452 1.367 . S
C453 C455 1.433 . S
C454 C450 1.350 . S
C454 C451 1.463 . S
C454 N458 1.427 . S
C455 H445 0.929 . S
C455 C453 1.433 . S
C455 N458 1.384 . S
C456 H447 0.929 . S
C456 C448 1.378 . S
C456 C451 1.350 . S
C457 H444 0.929 . S
C457 C449 1.433 . S
C457 N459 1.384 . S
N458 C454 1.427 . S
N458 C455 1.384 . S
N459 C451 1.427 . S
N459 C457 1.384 . S
H460 C466 0.930 . S
H461 C470 0.930 . S
H462 C475 0.929 . S
H463 C473 0.929 . S
H464 C468 0.929 . S
H465 C474 0.929 . S
C466 H460 0.930 . S
C466 C467 1.367 . S
C466 C474 1.378 . S
C467 C466 1.367 . S
C467 C475 1.433 . S
C468 H464 0.929 . S
C468 C470 1.378 . S
C468 C472 1.350 . S
C469 C472 1.463 . S
C469 C474 1.350 . S
C469 N477 1.427 . S
C470 H461 0.930 . S
C470 C468 1.378 . S
C470 C471 1.367 . S
C471 C470 1.367 . S
C471 C473 1.433 . S
C472 C468 1.350 . S
C472 C469 1.463 . S
C472 N476 1.427 . S
C473 H463 0.929 . S
C473 C471 1.433 . S
C473 N476 1.384 . S
C474 H465 0.929 . S
C474 C466 1.378 . S
C474 C469 1.350 . S
C475 H462 0.929 . S
C475 C467 1.433 . S
C475 N477 1.384 . S
N476 C472 1.427 . S
N476 C473 1.384 . S
N477 C469 1.427 . S
N477 C475 1.384 . S
H478 C484 0.930 . S
H479 C488 0.930 . S
H480 C493 0.929 . S
H481 C491 0.929 . S
H482 C486 0.929 . S
H483 C492 0.929 . S
C484 H478 0.930 . S
C484 C485 1.367 . S
C484 C492 1.378 . S
C485 C484 1.367 . S
C485 C493 1.433 . S
C486 H482 0.929 . S
C486 C488 1.378 . S
C486 C490 1.350 . S
C487 C490 1.463 . S
C487 C492 1.350 . S
C487 N495 1.427 . S
C488 H479 0.930 . S
C488 C486 1.378 . S
C488 C489 1.367 . S
C489 C488 1.367 . S
C489 C491 1.433 . S
C490 C486 1.350 . S
C490 C487 1.463 . S
C490 N494 1.427 . S
C491 H481 0.929 . S
C491 C489 1.433 . S
C491 N494 1.384 . S
C492 H483 0.929 . S
C492 C484 1.378 . S
C492 C487 1.350 . S
C493 H480 0.929 . S
C493 C485 1.433 . S
C493 N495 1.384 . S
N494 C490 1.427 . S
N494 C491 1.384 . S
N495 C487 1.427 . S
N495 C493 1.384 . S
H496 C502 0.930 . S
H497 C506 0.930 . S
H498 C511 0.929 . S
H499 C509 0.929 . S
H500 C504 0.929 1_545 S
H501 C510 0.929 1_565 S
C502 H496 0.930 . S
C502 C503 1.367 . S
C502 C510 1.378 . S
C503 C502 1.367 . S
C503 C511 1.433 . S
C504 H500 0.929 1_565 S
C504 C506 1.378 . S
C504 C508 1.350 . S
C505 C508 1.463 1_445 S
C505 C510 1.350 . S
C505 N513 1.427 . S
C506 H497 0.930 . S
C506 C504 1.378 . S
C506 C507 1.367 . S
C507 C506 1.367 . S
C507 C509 1.433 . S
C508 C504 1.350 . S
C508 C505 1.463 1_665 S
C508 N512 1.427 . S
C509 H499 0.929 . S
C509 C507 1.433 . S
C509 N512 1.384 . S
C510 H501 0.929 1_545 S
C510 C502 1.378 . S
C510 C505 1.350 . S
C511 H498 0.929 . S
C511 C503 1.433 . S
C511 N513 1.384 . S
N512 C508 1.427 . S
N512 C509 1.384 . S
N513 C505 1.427 . S
N513 C511 1.384 . S
H514 C520 0.930 . S
H515 C524 0.930 . S
H516 C529 0.929 1_655 S
H517 C527 0.929 1_455 S
H518 C522 0.929 . S
H519 C528 0.929 . S
C520 H514 0.930 . S
C520 C521 1.367 . S
C520 C528 1.378 . S
C521 C520 1.367 . S
C521 C529 1.433 . S
C522 H518 0.929 . S
C522 C524 1.378 . S
C522 C526 1.350 . S
C523 C526 1.463 1_455 S
C523 C528 1.350 . S
C523 N531 1.427 1_455 S
C524 H515 0.930 . S
C524 C522 1.378 . S
C524 C525 1.367 . S
C525 C524 1.367 . S
C525 C527 1.433 . S
C526 C522 1.350 . S
C526 C523 1.463 1_655 S
C526 N530 1.427 1_655 S
C527 H517 0.929 1_655 S
C527 C525 1.433 . S
C527 N530 1.384 1_655 S
C528 H519 0.929 . S
C528 C520 1.378 . S
C528 C523 1.350 . S
C529 H516 0.929 1_455 S
C529 C521 1.433 . S
C529 N531 1.384 1_455 S
N530 C526 1.427 1_455 S
N530 C527 1.384 1_455 S
N531 C523 1.427 1_655 S
N531 C529 1.384 1_655 S
H532 C538 0.930 . S
H533 C542 0.930 . S
H534 C547 0.929 . S
H535 C545 0.929 . S
H536 C540 0.929 . S
H537 C546 0.929 . S
C538 H532 0.930 . S
C538 C539 1.367 . S
C538 C546 1.378 . S
C539 C538 1.367 . S
C539 C547 1.433 . S
C540 H536 0.929 . S
C540 C542 1.378 . S
C540 C544 1.350 . S
C541 C544 1.463 . S
C541 C546 1.350 . S
C541 N549 1.427 . S
C542 H533 0.930 . S
C542 C540 1.378 . S
C542 C543 1.367 . S
C543 C542 1.367 . S
C543 C545 1.433 . S
C544 C540 1.350 . S
C544 C541 1.463 . S
C544 N548 1.427 . S
C545 H535 0.929 . S
C545 C543 1.433 . S
C545 N548 1.384 . S
C546 H537 0.929 . S
C546 C538 1.378 . S
C546 C541 1.350 . S
C547 H534 0.929 . S
C547 C539 1.433 . S
C547 N549 1.384 . S
N548 C544 1.427 . S
N548 C545 1.384 . S
N549 C541 1.427 . S
N549 C547 1.384 . S
H550 C556 0.930 . S
H551 C560 0.930 . S
H552 C565 0.929 . S
H553 C563 0.929 . S
H554 C558 0.929 . S
H555 C564 0.929 . S
C556 H550 0.930 . S
C556 C557 1.367 . S
C556 C564 1.378 . S
C557 C556 1.367 . S
C557 C565 1.433 . S
C558 H554 0.929 . S
C558 C560 1.378 . S
C558 C562 1.350 . S
C559 C562 1.463 1_545 S
C559 C564 1.350 . S
C559 N567 1.427 . S
C560 H551 0.930 . S
C560 C558 1.378 . S
C560 C561 1.367 . S
C561 C560 1.367 . S
C561 C563 1.433 . S
C562 C558 1.350 . S
C562 C559 1.463 1_565 S
C562 N566 1.427 . S
C563 H553 0.929 . S
C563 C561 1.433 . S
C563 N566 1.384 . S
C564 H555 0.929 . S
C564 C556 1.378 . S
C564 C559 1.350 . S
C565 H552 0.929 . S
C565 C557 1.433 . S
C565 N567 1.384 . S
N566 C562 1.427 . S
N566 C563 1.384 . S
N567 C559 1.427 . S
N567 C565 1.384 . S
H568 C574 0.930 . S
H569 C578 0.930 . S
H570 C583 0.929 . S
H571 C581 0.929 . S
H572 C576 0.929 . S
H573 C582 0.929 . S
C574 H568 0.930 . S
C574 C575 1.367 . S
C574 C582 1.378 . S
C575 C574 1.367 . S
C575 C583 1.433 . S
C576 H572 0.929 . S
C576 C578 1.378 . S
C576 C580 1.350 . S
C577 C580 1.463 1_455 S
C577 C582 1.350 . S
C577 N585 1.427 . S
C578 H569 0.930 . S
C578 C576 1.378 . S
C578 C579 1.367 . S
C579 C578 1.367 . S
C579 C581 1.433 . S
C580 C576 1.350 . S
C580 C577 1.463 1_655 S
C580 N584 1.427 . S
C581 H571 0.929 . S
C581 C579 1.433 . S
C581 N584 1.384 . S
C582 H573 0.929 . S
C582 C574 1.378 . S
C582 C577 1.350 . S
C583 H570 0.929 . S
C583 C575 1.433 . S
C583 N585 1.384 . S
N584 C580 1.427 . S
N584 C581 1.384 . S
N585 C577 1.427 . S
N585 C583 1.384 . S
H586 C592 0.930 . S
H587 C596 0.930 . S
H588 C601 0.929 . S
H589 C599 0.929 . S
H590 C594 0.929 . S
H591 C600 0.929 . S
C592 H586 0.930 . S
C592 C593 1.367 . S
C592 C600 1.378 . S
C593 C592 1.367 . S
C593 C601 1.433 . S
C594 H590 0.929 . S
C594 C596 1.378 . S
C594 C598 1.350 . S
C595 C598 1.463 . S
C595 C600 1.350 . S
C595 N603 1.427 . S
C596 H587 0.930 . S
C596 C594 1.378 . S
C596 C597 1.367 . S
C597 C596 1.367 . S
C597 C599 1.433 . S
C598 C594 1.350 . S
C598 C595 1.463 . S
C598 N602 1.427 . S
C599 H589 0.929 . S
C599 C597 1.433 . S
C599 N602 1.384 . S
C600 H591 0.929 . S
C600 C592 1.378 . S
C600 C595 1.350 . S
C601 H588 0.929 . S
C601 C593 1.433 . S
C601 N603 1.384 . S
N602 C598 1.427 . S
N602 C599 1.384 . S
N603 C595 1.427 . S
N603 C601 1.384 . S
H604 C610 0.930 . S
H605 C614 0.930 . S
H606 C619 0.929 . S
H607 C617 0.929 . S
H608 C612 0.929 . S
H609 C618 0.929 . S
C610 H604 0.930 . S
C610 C611 1.367 . S
C610 C618 1.378 . S
C611 C610 1.367 . S
C611 C619 1.433 . S
C612 H608 0.929 . S
C612 C614 1.378 . S
C612 C616 1.350 . S
C613 C616 1.463 1_565 S
C613 C618 1.350 . S
C613 N621 1.427 1_565 S
C614 H605 0.930 . S
C614 C612 1.378 . S
C614 C615 1.367 . S
C615 C614 1.367 . S
C615 C617 1.433 . S
C616 C612 1.350 . S
C616 C613 1.463 1_545 S
C616 N620 1.427 1_545 S
C617 H607 0.929 . S
C617 C615 1.433 . S
C617 N620 1.384 1_545 S
C618 H609 0.929 . S
C618 C610 1.378 . S
C618 C613 1.350 . S
C619 H606 0.929 . S
C619 C611 1.433 . S
C619 N621 1.384 1_565 S
N620 C616 1.427 1_565 S
N620 C617 1.384 1_565 S
N621 C613 1.427 1_545 S
N621 C619 1.384 1_545 S
H622 C628 0.930 . S
H623 C632 0.930 . S
H624 C637 0.929 . S
H625 C635 0.929 . S
H626 C630 0.929 1_455 S
H627 C636 0.929 1_655 S
C628 H622 0.930 . S
C628 C629 1.367 . S
C628 C636 1.378 . S
C629 C628 1.367 . S
C629 C637 1.433 . S
C630 H626 0.929 1_655 S
C630 C632 1.378 . S
C630 C634 1.350 . S
C631 C634 1.463 1_445 S
C631 C636 1.350 . S
C631 N639 1.427 . S
C632 H623 0.930 . S
C632 C630 1.378 . S
C632 C633 1.367 . S
C633 C632 1.367 . S
C633 C635 1.433 . S
C634 C630 1.350 . S
C634 C631 1.463 1_665 S
C634 N638 1.427 . S
C635 H625 0.929 . S
C635 C633 1.433 . S
C635 N638 1.384 . S
C636 H627 0.929 1_455 S
C636 C628 1.378 . S
C636 C631 1.350 . S
C637 H624 0.929 . S
C637 C629 1.433 . S
C637 N639 1.384 . S
N638 C634 1.427 . S
N638 C635 1.384 . S
N639 C631 1.427 . S
N639 C637 1.384 . S
H640 C646 0.930 . S
H641 C650 0.930 . S
H642 C655 0.929 . S
H643 C653 0.929 . S
H644 C648 0.929 . S
H645 C654 0.929 . S
C646 H640 0.930 . S
C646 C647 1.367 . S
C646 C654 1.378 . S
C647 C646 1.367 . S
C647 C655 1.433 . S
C648 H644 0.929 . S
C648 C650 1.378 . S
C648 C652 1.350 . S
C649 C652 1.463 1_565 S
C649 C654 1.350 . S
C649 N657 1.427 1_565 S
C650 H641 0.930 . S
C650 C648 1.378 . S
C650 C651 1.367 . S
C651 C650 1.367 . S
C651 C653 1.433 . S
C652 C648 1.350 . S
C652 C649 1.463 1_545 S
C652 N656 1.427 1_545 S
C653 H643 0.929 . S
C653 C651 1.433 . S
C653 N656 1.384 1_545 S
C654 H645 0.929 . S
C654 C646 1.378 . S
C654 C649 1.350 . S
C655 H642 0.929 . S
C655 C647 1.433 . S
C655 N657 1.384 1_565 S
N656 C652 1.427 1_565 S
N656 C653 1.384 1_565 S
N657 C649 1.427 1_545 S
N657 C655 1.384 1_545 S
H658 C664 0.930 . S
H659 C668 0.930 . S
H660 C673 0.929 . S
H661 C671 0.929 . S
H662 C666 0.929 . S
H663 C672 0.929 . S
C664 H658 0.930 . S
C664 C665 1.367 . S
C664 C672 1.378 . S
C665 C664 1.367 . S
C665 C673 1.433 . S
C666 H662 0.929 . S
C666 C668 1.378 . S
C666 C670 1.350 . S
C667 C670 1.463 1_665 S
C667 C672 1.350 . S
C667 N675 1.427 . S
C668 H659 0.930 . S
C668 C666 1.378 . S
C668 C669 1.367 . S
C669 C668 1.367 . S
C669 C671 1.433 . S
C670 C666 1.350 . S
C670 C667 1.463 1_445 S
C670 N674 1.427 . S
C671 H661 0.929 . S
C671 C669 1.433 . S
C671 N674 1.384 . S
C672 H663 0.929 . S
C672 C664 1.378 . S
C672 C667 1.350 . S
C673 H660 0.929 . S
C673 C665 1.433 . S
C673 N675 1.384 . S
N674 C670 1.427 . S
N674 C671 1.384 . S
N675 C667 1.427 . S
N675 C673 1.384 . S
H676 C682 0.930 . S
H677 C686 0.930 . S
H678 C691 0.929 . S
H679 C689 0.929 . S
H680 C684 0.929 . S
H681 C690 0.929 . S
C682 H676 0.930 . S
C682 C683 1.367 . S
C682 C690 1.378 . S
C683 C682 1.367 . S
C683 C691 1.433 . S
C684 H680 0.929 . S
C684 C686 1.378 . S
C684 C688 1.350 . S
C685 C688 1.463 1_455 S
C685 C690 1.350 . S
C685 N693 1.427 . S
C686 H677 0.930 . S
C686 C684 1.378 . S
C686 C687 1.367 . S
C687 C686 1.367 . S
C687 C689 1.433 . S
C688 C684 1.350 . S
C688 C685 1.463 1_655 S
C688 N692 1.427 . S
C689 H679 0.929 . S
C689 C687 1.433 . S
C689 N692 1.384 . S
C690 H681 0.929 . S
C690 C682 1.378 . S
C690 C685 1.350 . S
C691 H678 0.929 . S
C691 C683 1.433 . S
C691 N693 1.384 . S
N692 C688 1.427 . S
N692 C689 1.384 . S
N693 C685 1.427 . S
N693 C691 1.384 . S
H694 C700 0.930 . S
H695 C704 0.930 . S
H696 C709 0.929 . S
H697 C707 0.929 . S
H698 C702 0.929 . S
H699 C708 0.929 . S
C700 H694 0.930 . S
C700 C701 1.367 . S
C700 C708 1.378 . S
C701 C700 1.367 . S
C701 C709 1.433 . S
C702 H698 0.929 . S
C702 C704 1.378 . S
C702 C706 1.350 . S
C703 C706 1.463 . S
C703 C708 1.350 . S
C703 N711 1.427 . S
C704 H695 0.930 . S
C704 C702 1.378 . S
C704 C705 1.367 . S
C705 C704 1.367 . S
C705 C707 1.433 . S
C706 C702 1.350 . S
C706 C703 1.463 . S
C706 N710 1.427 . S
C707 H697 0.929 . S
C707 C705 1.433 . S
C707 N710 1.384 . S
C708 H699 0.929 . S
C708 C700 1.378 . S
C708 C703 1.350 . S
C709 H696 0.929 . S
C709 C701 1.433 . S
C709 N711 1.384 . S
N710 C706 1.427 . S
N710 C707 1.384 . S
N711 C703 1.427 . S
N711 C709 1.384 . S
H712 C718 0.930 . S
H713 C722 0.930 . S
H714 C727 0.929 . S
H715 C725 0.929 . S
H716 C720 0.929 . S
H717 C726 0.929 . S
C718 H712 0.930 . S
C718 C719 1.367 . S
C718 C726 1.378 . S
C719 C718 1.367 . S
C719 C727 1.433 . S
C720 H716 0.929 . S
C720 C722 1.378 . S
C720 C724 1.350 . S
C721 C724 1.463 . S
C721 C726 1.350 . S
C721 N729 1.427 . S
C722 H713 0.930 . S
C722 C720 1.378 . S
C722 C723 1.367 . S
C723 C722 1.367 . S
C723 C725 1.433 . S
C724 C720 1.350 . S
C724 C721 1.463 . S
C724 N728 1.427 . S
C725 H715 0.929 . S
C725 C723 1.433 . S
C725 N728 1.384 . S
C726 H717 0.929 . S
C726 C718 1.378 . S
C726 C721 1.350 . S
C727 H714 0.929 . S
C727 C719 1.433 . S
C727 N729 1.384 . S
N728 C724 1.427 . S
N728 C725 1.384 . S
N729 C721 1.427 . S
N729 C727 1.384 . S
H730 C736 0.930 . S
H731 C740 0.930 . S
H732 C745 0.929 . S
H733 C743 0.929 . S
H734 C738 0.929 . S
H735 C744 0.929 . S
C736 H730 0.930 . S
C736 C737 1.367 . S
C736 C744 1.378 . S
C737 C736 1.367 . S
C737 C745 1.433 . S
C738 H734 0.929 . S
C738 C740 1.378 . S
C738 C742 1.350 . S
C739 C742 1.463 1_545 S
C739 C744 1.350 . S
C739 N747 1.427 . S
C740 H731 0.930 . S
C740 C738 1.378 . S
C740 C741 1.367 . S
C741 C740 1.367 . S
C741 C743 1.433 . S
C742 C738 1.350 . S
C742 C739 1.463 1_565 S
C742 N746 1.427 . S
C743 H733 0.929 . S
C743 C741 1.433 . S
C743 N746 1.384 . S
C744 H735 0.929 . S
C744 C736 1.378 . S
C744 C739 1.350 . S
C745 H732 0.929 . S
C745 C737 1.433 . S
C745 N747 1.384 . S
N746 C742 1.427 . S
N746 C743 1.384 . S
N747 C739 1.427 . S
N747 C745 1.384 . S
H748 C754 0.930 . S
H749 C758 0.930 . S
H750 C763 0.929 . S
H751 C761 0.929 . S
H752 C756 0.929 . S
H753 C762 0.929 . S
C754 H748 0.930 . S
C754 C755 1.367 . S
C754 C762 1.378 . S
C755 C754 1.367 . S
C755 C763 1.433 . S
C756 H752 0.929 . S
C756 C758 1.378 . S
C756 C760 1.350 . S
C757 C760 1.463 1_665 S
C757 C762 1.350 . S
C757 N765 1.427 . S
C758 H749 0.930 . S
C758 C756 1.378 . S
C758 C759 1.367 . S
C759 C758 1.367 . S
C759 C761 1.433 . S
C760 C756 1.350 . S
C760 C757 1.463 1_445 S
C760 N764 1.427 . S
C761 H751 0.929 . S
C761 C759 1.433 . S
C761 N764 1.384 . S
C762 H753 0.929 . S
C762 C754 1.378 . S
C762 C757 1.350 . S
C763 H750 0.929 . S
C763 C755 1.433 . S
C763 N765 1.384 . S
N764 C760 1.427 . S
N764 C761 1.384 . S
N765 C757 1.427 . S
N765 C763 1.384 . S
H766 C772 0.930 . S
H767 C776 0.930 . S
H768 C781 0.929 . S
H769 C779 0.929 . S
H770 C774 0.929 1_655 S
H771 C780 0.929 1_455 S
C772 H766 0.930 . S
C772 C773 1.367 . S
C772 C780 1.378 . S
C773 C772 1.367 . S
C773 C781 1.433 . S
C774 H770 0.929 1_455 S
C774 C776 1.378 . S
C774 C778 1.350 . S
C775 C778 1.463 1_655 S
C775 C780 1.350 . S
C775 N783 1.427 . S
C776 H767 0.930 . S
C776 C774 1.378 . S
C776 C777 1.367 . S
C777 C776 1.367 . S
C777 C779 1.433 . S
C778 C774 1.350 . S
C778 C775 1.463 1_455 S
C778 N782 1.427 . S
C779 H769 0.929 . S
C779 C777 1.433 . S
C779 N782 1.384 . S
C780 H771 0.929 1_655 S
C780 C772 1.378 . S
C780 C775 1.350 . S
C781 H768 0.929 . S
C781 C773 1.433 . S
C781 N783 1.384 . S
N782 C778 1.427 . S
N782 C779 1.384 . S
N783 C775 1.427 . S
N783 C781 1.384 . S
C215 C62 1.567 . S
C219 C10 1.565 . S
C233 C17 1.565 . S
C237 C69 1.567 . S
C251 C88 1.567 . S
C255 C36 1.566 . S
C269 C101 1.565 . S
C273 C43 1.567 . S
C287 C160 1.565 . S
C291 C108 1.567 . S
C305 C127 1.567 . S
C309 C173 1.565 . S
C323 C192 1.566 . S
C327 C140 1.566 . S
C341 C147 1.565 . S
C345 C205 1.567 . S
C359 C3 1.539 . S
C363 C198 1.536 . S
C377 C18 1.537 . S
C381 C161 1.538 . S
C395 C29 1.539 . S
C399 C174 1.537 . S
C413 C185 1.539 . S
C417 C44 1.536 . S
C431 C55 1.539 . S
C435 C120 1.536 . S
C449 C70 1.537 . S
C453 C133 1.538 . S
C467 C148 1.537 . S
C471 C81 1.539 . S
C485 C109 1.539 . S
C489 C94 1.536 . S
C503 C4 1.575 . S
C507 C134 1.575 . S
C521 C153 1.578 . S
C525 C23 1.578 . S
C539 C30 1.578 . S
C543 C114 1.578 . S
C557 C121 1.578 . S
C561 C49 1.578 . S
C575 C56 1.577 . S
C579 C186 1.577 . S
C593 C75 1.578 . S
C597 C199 1.578 . S
C611 C166 1.578 . S
C615 C82 1.578 . S
C629 C179 1.576 . S
C633 C95 1.576 . S
C647 C135 1.446 . S
C651 C5 1.447 . S
C665 C16 1.446 . S
C669 C146 1.447 . S
C683 C31 1.446 . S
C687 C107 1.447 . S
C701 C122 1.447 . S
C705 C42 1.446 . S
C719 C187 1.447 . S
C723 C57 1.446 . S
C737 C200 1.447 . S
C741 C68 1.447 . S
C755 C159 1.447 . S
C759 C83 1.446 . S
C773 C96 1.447 . S
C777 C172 1.446 . S
