# Generated by pormake.
# Topology sne, (6)-cn, num edge types: 1
# Building blocks:
#     Node 0, Type 0, BuildingBlock: IZENUY_clean_sbu_0, # of connection points: 6
#     Node 1, Type 0, BuildingBlock: IZENUY_clean_sbu_0, # of connection points: 6
#     Node 2, Type 0, BuildingBlock: IZENUY_clean_sbu_0, # of connection points: 6
#     Node 3, Type 0, BuildingBlock: IZENUY_clean_sbu_0, # of connection points: 6
#     Node 4, Type 0, BuildingBlock: IZENUY_clean_sbu_0, # of connection points: 6
#     Node 5, Type 0, BuildingBlock: IZENUY_clean_sbu_0, # of connection points: 6
#     Node 6, Type 0, BuildingBlock: IZENUY_clean_sbu_0, # of connection points: 6
#     Node 7, Type 0, BuildingBlock: IZENUY_clean_sbu_0, # of connection points: 6
#     Edge 8, Type (0, 0), BuildingBlock: MIFKUJ_clean_linker_0, # of connection points: 2
#     Edge 9, Type (0, 0), BuildingBlock: MIFKUJ_clean_linker_0, # of connection points: 2
#     Edge 10, Type (0, 0), BuildingBlock: MIFKUJ_clean_linker_0, # of connection points: 2
#     Edge 11, Type (0, 0), BuildingBlock: MIFKUJ_clean_linker_0, # of connection points: 2
#     Edge 12, Type (0, 0), BuildingBlock: MIFKUJ_clean_linker_0, # of connection points: 2
#     Edge 13, Type (0, 0), BuildingBlock: MIFKUJ_clean_linker_0, # of connection points: 2
#     Edge 14, Type (0, 0), BuildingBlock: MIFKUJ_clean_linker_0, # of connection points: 2
#     Edge 15, Type (0, 0), BuildingBlock: MIFKUJ_clean_linker_0, # of connection points: 2
#     Edge 16, Type (0, 0), BuildingBlock: MIFKUJ_clean_linker_0, # of connection points: 2
#     Edge 17, Type (0, 0), BuildingBlock: MIFKUJ_clean_linker_0, # of connection points: 2
#     Edge 18, Type (0, 0), BuildingBlock: MIFKUJ_clean_linker_0, # of connection points: 2
#     Edge 19, Type (0, 0), BuildingBlock: MIFKUJ_clean_linker_0, # of connection points: 2
#     Edge 20, Type (0, 0), BuildingBlock: MIFKUJ_clean_linker_0, # of connection points: 2
#     Edge 21, Type (0, 0), BuildingBlock: MIFKUJ_clean_linker_0, # of connection points: 2
#     Edge 22, Type (0, 0), BuildingBlock: MIFKUJ_clean_linker_0, # of connection points: 2
#     Edge 23, Type (0, 0), BuildingBlock: MIFKUJ_clean_linker_0, # of connection points: 2
#     Edge 24, Type (0, 0), BuildingBlock: MIFKUJ_clean_linker_0, # of connection points: 2
#     Edge 25, Type (0, 0), BuildingBlock: MIFKUJ_clean_linker_0, # of connection points: 2
#     Edge 26, Type (0, 0), BuildingBlock: MIFKUJ_clean_linker_0, # of connection points: 2
#     Edge 27, Type (0, 0), BuildingBlock: MIFKUJ_clean_linker_0, # of connection points: 2
#     Edge 28, Type (0, 0), BuildingBlock: MIFKUJ_clean_linker_0, # of connection points: 2
#     Edge 29, Type (0, 0), BuildingBlock: MIFKUJ_clean_linker_0, # of connection points: 2
#     Edge 30, Type (0, 0), BuildingBlock: MIFKUJ_clean_linker_0, # of connection points: 2
#     Edge 31, Type (0, 0), BuildingBlock: MIFKUJ_clean_linker_0, # of connection points: 2
# Relax obj value: 0.264
# Max RMSD: 0.254
# Mean RMSD: 0.252
data_MOF--net-sne--node1-IZENUY_clean_sbu_0--edge1-MIFKUJ_clean_linker_0
_symmetry_space_group_name_H-M    P1
_symmetry_Int_Tables_number       1
_symmetry_cell_setting            triclinic
loop_
_symmetry_equiv_pos_as_xyz
'x, y, z'
_cell_length_a     45.168676
_cell_length_b     44.956738
_cell_length_c     33.13452
_cell_angle_alpha  90.138169
_cell_angle_beta   90.312144
_cell_angle_gamma 90.153145
loop_
_atom_site_label
_atom_site_type_symbol
_atom_site_fract_x
_atom_site_fract_y
_atom_site_fract_z
_atom_type_partial_charge
Fe0 Fe 0.22876 0.17731 0.3587 0.0
Fe1 Fe 0.2061 0.11569 0.33505 0.0
O2 O 0.2335 0.13824 0.35824 0.0
Fe3 Fe 0.26516 0.12204 0.38091 0.0
O4 O 0.25731 0.13896 0.42969 0.0
O5 O 0.24854 0.18363 0.40601 0.0
O6 O 0.19524 0.1736 0.38827 0.0
C7 C 0.17335 0.15794 0.37739 0.0
C8 C 0.28731 0.17236 0.33959 0.0
O9 O 0.17542 0.14045 0.34762 0.0
C10 C 0.25923 0.08617 0.31428 0.0
O11 O 0.20791 0.1786 0.31139 0.0
O12 O 0.21205 0.13357 0.28649 0.0
O13 O 0.28982 0.1526 0.36665 0.0
O14 O 0.26227 0.18251 0.32941 0.0
C15 C 0.21804 0.08399 0.4036 0.0
O16 O 0.23151 0.08666 0.31895 0.0
O17 O 0.27582 0.1035 0.3342 0.0
C18 C 0.20852 0.16113 0.28151 0.0
O19 O 0.19873 0.09665 0.38204 0.0
O20 O 0.24541 0.08901 0.39872 0.0
C21 C 0.25333 0.16639 0.43524 0.0
Fe22 Fe 0.1706 0.76332 0.6345 0.0
Fe23 Fe 0.10933 0.78812 0.65469 0.0
O24 O 0.13155 0.76138 0.63004 0.0
Fe25 Fe 0.11509 0.73275 0.60084 0.0
O26 O 0.14343 0.70527 0.61324 0.0
O27 O 0.17168 0.7272 0.65878 0.0
O28 O 0.17066 0.78002 0.68466 0.0
C29 C 0.15154 0.77859 0.71213 0.0
C30 C 0.16241 0.74598 0.55349 0.0
O31 O 0.12427 0.77798 0.70395 0.0
C32 C 0.07982 0.78289 0.58272 0.0
O33 O 0.17114 0.79954 0.61049 0.0
O34 O 0.13606 0.81837 0.64868 0.0
O35 O 0.13457 0.74471 0.55566 0.0
O36 O 0.17806 0.74689 0.58515 0.0
C37 C 0.07713 0.73441 0.66483 0.0
O38 O 0.0928 0.80011 0.60722 0.0
O39 O 0.08382 0.7551 0.58396 0.0
C40 C 0.15638 0.82156 0.62289 0.0
O41 O 0.07877 0.76251 0.66456 0.0
O42 O 0.09432 0.71882 0.64365 0.0
C43 C 0.16059 0.70391 0.64349 0.0
Fe44 Fe 0.76124 0.82322 0.36237 0.0
Fe45 Fe 0.73191 0.87583 0.4055 0.0
O46 O 0.75774 0.86212 0.36983 0.0
Fe47 Fe 0.78015 0.88642 0.34085 0.0
O48 O 0.76507 0.87167 0.29367 0.0
O49 O 0.7733 0.82563 0.31029 0.0
O50 O 0.72353 0.82102 0.34389 0.0
C51 C 0.70123 0.83049 0.3629 0.0
C52 C 0.81883 0.84106 0.36579 0.0
O53 O 0.70419 0.84685 0.39405 0.0
C54 C 0.782 0.91417 0.41482 0.0
O55 O 0.7498 0.81262 0.41268 0.0
O56 O 0.74845 0.85423 0.44665 0.0
O57 O 0.81208 0.86124 0.3407 0.0
O58 O 0.79912 0.82441 0.38071 0.0
C59 C 0.72525 0.91652 0.34367 0.0
O60 O 0.75533 0.907 0.42159 0.0
O61 O 0.79618 0.90353 0.38542 0.0
C62 C 0.75193 0.82641 0.4456 0.0
O63 O 0.71308 0.89891 0.36817 0.0
O64 O 0.75265 0.91561 0.33673 0.0
C65 C 0.76551 0.84452 0.28447 0.0
Fe66 Fe 0.88601 0.27327 0.60825 0.0
Fe67 Fe 0.87611 0.21669 0.65829 0.0
O68 O 0.8619 0.24708 0.63054 0.0
Fe69 Fe 0.82321 0.25134 0.62531 0.0
O70 O 0.82495 0.26935 0.57614 0.0
O71 O 0.8715 0.26552 0.55804 0.0
O72 O 0.91523 0.24627 0.59803 0.0
C73 C 0.91517 0.21814 0.59617 0.0
C74 C 0.84082 0.30827 0.64121 0.0
O75 O 0.89627 0.2029 0.61493 0.0
C76 C 0.82954 0.23237 0.70546 0.0
O77 O 0.90223 0.28281 0.65675 0.0
O78 O 0.90873 0.23681 0.67716 0.0
O79 O 0.82463 0.28673 0.65184 0.0
O80 O 0.86091 0.30475 0.61515 0.0
C81 C 0.8299 0.19187 0.61233 0.0
O82 O 0.85713 0.2287 0.70353 0.0
O83 O 0.81414 0.23403 0.6736 0.0
C84 C 0.91461 0.26431 0.67984 0.0
O85 O 0.84599 0.1912 0.64375 0.0
O86 O 0.82061 0.21624 0.59839 0.0
C87 C 0.84445 0.2676 0.54912 0.0
Fe88 Fe 0.28715 0.39063 0.83836 0.0
Fe89 Fe 0.25955 0.32875 0.8483 0.0
O90 O 0.25767 0.36788 0.85517 0.0
Fe91 Fe 0.22635 0.3839 0.87858 0.0
O92 O 0.2182 0.40678 0.83484 0.0
O93 O 0.26386 0.4222 0.82531 0.0
O94 O 0.28232 0.37754 0.78652 0.0
C95 C 0.284 0.35052 0.77658 0.0
C96 C 0.27429 0.41852 0.90979 0.0
O97 O 0.2818 0.33021 0.80254 0.0
C98 C 0.23417 0.33429 0.92484 0.0
O99 O 0.31581 0.36299 0.8492 0.0
O100 O 0.2924 0.32657 0.87989 0.0
O101 O 0.247 0.41412 0.90308 0.0
O102 O 0.29375 0.4057 0.88871 0.0
C103 C 0.20223 0.34018 0.82677 0.0
O104 O 0.23785 0.31973 0.89271 0.0
O105 O 0.23222 0.36225 0.92424 0.0
C106 C 0.31578 0.34122 0.87342 0.0
O107 O 0.22663 0.32885 0.81641 0.0
O108 O 0.20027 0.35671 0.85762 0.0
C109 C 0.23634 0.42476 0.81946 0.0
Fe110 Fe 0.3338 0.75537 0.11264 0.0
Fe111 Fe 0.39563 0.7793 0.09442 0.0
O112 O 0.37249 0.75349 0.1194 0.0
Fe113 Fe 0.3883 0.72576 0.15043 0.0
O114 O 0.37286 0.69661 0.1196 0.0
O115 O 0.32779 0.7146 0.11455 0.0
O116 O 0.33723 0.75063 0.05904 0.0
C117 C 0.35099 0.76809 0.03643 0.0
C118 C 0.33604 0.74232 0.19259 0.0
O119 O 0.37064 0.78526 0.05079 0.0
C120 C 0.42391 0.7721 0.17045 0.0
O121 O 0.33321 0.79667 0.11 0.0
O122 O 0.37952 0.80963 0.12182 0.0
O123 O 0.35715 0.72431 0.18647 0.0
O124 O 0.32773 0.75995 0.16557 0.0
C125 C 0.42609 0.72815 0.08252 0.0
O126 O 0.42492 0.77872 0.1333 0.0
O127 O 0.40527 0.75341 0.18296 0.0
C128 C 0.35229 0.81549 0.12267 0.0
O129 O 0.4129 0.74975 0.06617 0.0
O130 O 0.42193 0.72199 0.11948 0.0
C131 C 0.34616 0.6936 0.10943 0.0
Fe132 Fe 0.77816 0.62107 0.89723 0.0
Fe133 Fe 0.74062 0.66645 0.85142 0.0
O134 O 0.74752 0.62914 0.86562 0.0
Fe135 Fe 0.72404 0.6006 0.84746 0.0
O136 O 0.71498 0.58836 0.89811 0.0
O137 O 0.76037 0.5895 0.92262 0.0
O138 O 0.76369 0.64479 0.93707 0.0
C139 C 0.75756 0.67187 0.93198 0.0
C140 C 0.78129 0.57493 0.84375 0.0
O141 O 0.75671 0.68276 0.89695 0.0
C142 C 0.72709 0.63581 0.7806 0.0
O143 O 0.80133 0.65097 0.8765 0.0
O144 O 0.77565 0.6679 0.82485 0.0
O145 O 0.75336 0.57288 0.84365 0.0
O146 O 0.79452 0.59673 0.85973 0.0
C147 C 0.68544 0.64696 0.87042 0.0
O148 O 0.72267 0.65764 0.80352 0.0
O149 O 0.73206 0.6104 0.79503 0.0
C150 C 0.80025 0.66222 0.84144 0.0
O151 O 0.70558 0.6659 0.87719 0.0
O152 O 0.69046 0.62376 0.84954 0.0
C153 C 0.73378 0.58054 0.92436 0.0
Fe154 Fe 0.66856 0.25446 0.15435 0.0
Fe155 Fe 0.60841 0.28464 0.1643 0.0
O156 O 0.63016 0.25545 0.14406 0.0
Fe157 Fe 0.61324 0.22761 0.11393 0.0
O158 O 0.62473 0.19856 0.14786 0.0
O159 O 0.6707 0.21357 0.1572 0.0
O160 O 0.66198 0.25344 0.20777 0.0
C161 C 0.64956 0.27387 0.22695 0.0
C162 C 0.66825 0.23754 0.0752 0.0
O163 O 0.63199 0.29134 0.20915 0.0
C164 C 0.58287 0.27558 0.08709 0.0
O165 O 0.67301 0.29557 0.15277 0.0
O166 O 0.62868 0.31153 0.1354 0.0
O167 O 0.64527 0.22193 0.0808 0.0
O168 O 0.67791 0.25497 0.10184 0.0
C169 C 0.57177 0.23779 0.17701 0.0
O170 O 0.58103 0.28432 0.1233 0.0
O171 O 0.60021 0.25481 0.0778 0.0
C172 C 0.65638 0.31486 0.1361 0.0
O173 O 0.58652 0.25856 0.19349 0.0
O174 O 0.5783 0.2284 0.14199 0.0
C175 C 0.65056 0.19406 0.16084 0.0
H176 H 0.31742 0.06787 0.30862 0.0
H177 H 0.33565 0.02331 0.27371 0.0
H178 H 0.24745 0.00505 0.22949 0.0
H179 H 0.22916 0.04903 0.26389 0.0
H180 H 0.27246 0.95648 0.26567 0.0
H181 H 0.30026 0.03129 0.16651 0.0
H182 H 0.32585 0.07735 0.14601 0.0
H183 H 0.40918 0.04036 0.18307 0.0
H184 H 0.38403 0.99414 0.20408 0.0
H185 H 0.29623 0.83937 0.12677 0.0
H186 H 0.28217 0.88725 0.15655 0.0
H187 H 0.3738 0.90559 0.18472 0.0
H188 H 0.38804 0.85859 0.15433 0.0
H189 H 0.34935 0.9542 0.15944 0.0
H190 H 0.32508 0.87959 0.25563 0.0
H191 H 0.30203 0.83376 0.28171 0.0
H192 H 0.21566 0.86979 0.25878 0.0
H193 H 0.23818 0.91561 0.2317 0.0
C194 C 0.30204 0.05457 0.291 0.0
C195 C 0.27178 0.06186 0.28945 0.0
C196 C 0.31246 0.02911 0.27113 0.0
C197 C 0.2928 0.01075 0.2493 0.0
C198 C 0.26292 0.0187 0.24652 0.0
C199 C 0.25255 0.04397 0.26617 0.0
C200 C 0.30271 0.98262 0.23028 0.0
C201 C 0.28902 0.95596 0.24209 0.0
C202 C 0.32507 0.9819 0.20065 0.0
C203 C 0.34026 0.00935 0.18705 0.0
C204 C 0.32403 0.03302 0.17037 0.0
C205 C 0.33846 0.05913 0.15861 0.0
C206 C 0.36913 0.06176 0.16318 0.0
C207 C 0.38544 0.03825 0.17944 0.0
C208 C 0.37112 0.01208 0.19121 0.0
C209 C 0.31337 0.85374 0.13896 0.0
C210 C 0.34322 0.84505 0.13817 0.0
C211 C 0.30531 0.88103 0.15618 0.0
C212 C 0.32692 0.89987 0.17338 0.0
C213 C 0.35674 0.89152 0.17164 0.0
C214 C 0.3648 0.86449 0.15427 0.0
C215 C 0.31859 0.92795 0.19415 0.0
C216 C 0.33272 0.95459 0.18293 0.0
C217 C 0.297 0.92856 0.22497 0.0
C218 C 0.28335 0.90095 0.24116 0.0
C219 C 0.30117 0.87765 0.25575 0.0
C220 C 0.2882 0.85167 0.27076 0.0
C221 C 0.25741 0.84884 0.27179 0.0
C222 C 0.23952 0.872 0.25786 0.0
C223 C 0.25237 0.89797 0.24265 0.0
H224 H 0.2474 0.82874 0.28346 0.0
H225 H 0.38024 0.08204 0.15424 0.0
H226 H 0.05526 0.67755 0.65551 0.0
H227 H 0.00786 0.65856 0.68092 0.0
H228 H 0.99412 0.74093 0.74503 0.0
H229 H 0.04093 0.76004 0.7199 0.0
H230 H 0.98194 0.65066 0.75681 0.0
H231 H 0.92447 0.76438 0.72564 0.0
H232 H 0.92978 0.80651 0.67868 0.0
H233 H 0.97121 0.74928 0.59193 0.0
H234 H 0.96562 0.70666 0.63799 0.0
H235 H 0.85537 0.66843 0.87416 0.0
H236 H 0.90211 0.67417 0.83849 0.0
H237 H 0.8553 0.67365 0.72457 0.0
H238 H 0.80827 0.66881 0.76031 0.0
H239 H 0.89576 0.71465 0.72369 0.0
H240 H 0.89522 0.61227 0.75611 0.0
H241 H 0.88994 0.5676 0.79849 0.0
H242 H 0.96244 0.59669 0.8731 0.0
H243 H 0.96804 0.64172 0.83143 0.0
C244 C 0.04235 0.69138 0.67558 0.0
C245 C 0.05153 0.72052 0.68506 0.0
C246 C 0.01532 0.68051 0.69002 0.0
C247 C 0.99727 0.69868 0.71396 0.0
C248 C 0.00748 0.72685 0.72582 0.0
C249 C 0.03428 0.7377 0.71145 0.0
C250 C 0.96693 0.68945 0.7249 0.0
C251 C 0.963 0.66445 0.74945 0.0
C252 C 0.94217 0.70697 0.71394 0.0
C253 C 0.94482 0.73234 0.68548 0.0
C254 C 0.93451 0.76071 0.69644 0.0
C255 C 0.93759 0.78469 0.66998 0.0
C256 C 0.95088 0.78057 0.63241 0.0
C257 C 0.96099 0.75244 0.6211 0.0
C258 C 0.95787 0.72837 0.64738 0.0
C259 C 0.855 0.6697 0.84152 0.0
C260 C 0.82816 0.6682 0.82 0.0
C261 C 0.88176 0.67268 0.82113 0.0
C262 C 0.88228 0.67363 0.7788 0.0
C263 C 0.85545 0.6727 0.75723 0.0
C264 C 0.8286 0.67004 0.77768 0.0
C265 C 0.91087 0.67664 0.75743 0.0
C266 C 0.91449 0.70049 0.7307 0.0
C267 C 0.93514 0.6576 0.76559 0.0
C268 C 0.93194 0.63049 0.79073 0.0
C269 C 0.90993 0.60926 0.7817 0.0
C270 C 0.90688 0.58386 0.80559 0.0
C271 C 0.92576 0.57935 0.83852 0.0
C272 C 0.94781 0.60021 0.84758 0.0
C273 C 0.95098 0.62565 0.82378 0.0
H274 H 0.92334 0.55967 0.85698 0.0
H275 H 0.95329 0.79917 0.61206 0.0
H276 H 0.68632 0.95553 0.37831 0.0
H277 H 0.66896 0.00241 0.34845 0.0
H278 H 0.71014 0.97858 0.23566 0.0
H279 H 0.72811 0.93254 0.26573 0.0
H280 H 0.72808 0.03063 0.25702 0.0
H281 H 0.63335 0.98225 0.24776 0.0
H282 H 0.5897 0.95518 0.27314 0.0
H283 H 0.57072 0.02727 0.35413 0.0
H284 H 0.61448 0.05462 0.32956 0.0
H285 H 0.62155 0.14152 0.1494 0.0
H286 H 0.63098 0.09401 0.1824 0.0
H287 H 0.70228 0.13408 0.25089 0.0
H288 H 0.69375 0.18145 0.21643 0.0
H289 H 0.62763 0.07479 0.25489 0.0
H290 H 0.75456 0.08387 0.27284 0.0
H291 H 0.79719 0.10782 0.23966 0.0
H292 H 0.7499 0.10807 0.12686 0.0
H293 H 0.70716 0.08384 0.1593 0.0
C294 C 0.69076 0.96001 0.34681 0.0
C295 C 0.70848 0.94059 0.32421 0.0
C296 C 0.68096 0.9868 0.32978 0.0
C297 C 0.68847 0.99417 0.28984 0.0
C298 C 0.70439 0.97362 0.26663 0.0
C299 C 0.71446 0.94723 0.28371 0.0
C300 C 0.68229 0.02414 0.27293 0.0
C301 C 0.70606 0.04023 0.25657 0.0
C302 C 0.65364 0.03675 0.27224 0.0
C303 C 0.62737 0.02034 0.28713 0.0
C304 C 0.62001 0.99222 0.27122 0.0
C305 C 0.59522 0.97685 0.28541 0.0
C306 C 0.5775 0.98946 0.31531 0.0
C307 C 0.58449 0.0175 0.33102 0.0
C308 C 0.60927 0.03296 0.31695 0.0
C309 C 0.63941 0.14015 0.17126 0.0
C310 C 0.65717 0.16511 0.17996 0.0
C311 C 0.64464 0.113 0.19035 0.0
C312 C 0.6675 0.11026 0.21896 0.0
C313 C 0.68492 0.13538 0.22831 0.0
C314 C 0.68006 0.16245 0.20858 0.0
C315 C 0.67333 0.08092 0.23815 0.0
C316 C 0.64962 0.06514 0.25539 0.0
C317 C 0.7019 0.06808 0.23853 0.0
C318 C 0.72758 0.08236 0.21862 0.0
C319 C 0.75332 0.08897 0.24094 0.0
C320 C 0.77748 0.1026 0.22227 0.0
C321 C 0.77621 0.10955 0.18121 0.0
C322 C 0.75082 0.10278 0.1587 0.0
C323 C 0.72661 0.08913 0.17722 0.0
H324 H 0.79493 0.12013 0.16682 0.0
H325 H 0.55831 0.97753 0.32624 0.0
H326 H 0.18206 0.28508 0.80564 0.0
H327 H 0.13266 0.27256 0.77954 0.0
H328 H 0.11124 0.36609 0.77429 0.0
H329 H 0.16011 0.37825 0.80176 0.0
H330 H 0.06935 0.34036 0.80929 0.0
H331 H 0.12112 0.3193 0.68698 0.0
H332 H 0.15586 0.29688 0.63852 0.0
H333 H 0.12316 0.20981 0.66763 0.0
H334 H 0.08849 0.23165 0.71654 0.0
H335 H 0.93633 0.32087 0.69068 0.0
H336 H 0.98475 0.33453 0.71862 0.0
H337 H 0.00079 0.24288 0.74983 0.0
H338 H 0.95264 0.22895 0.7221 0.0
H339 H 0.04436 0.26785 0.70142 0.0
H340 H 0.99076 0.2921 0.82274 0.0
H341 H 0.951 0.31738 0.86016 0.0
H342 H 0.98537 0.40234 0.82413 0.0
H343 H 0.02515 0.37755 0.78607 0.0
C344 C 0.16699 0.30281 0.79775 0.0
C345 C 0.17474 0.33251 0.80529 0.0
C346 C 0.13875 0.29574 0.78293 0.0
C347 C 0.11812 0.3184 0.77474 0.0
C348 C 0.12658 0.34819 0.78062 0.0
C349 C 0.15451 0.35515 0.7961 0.0
C350 C 0.08703 0.31119 0.76342 0.0
C351 C 0.06402 0.32479 0.78525 0.0
C352 C 0.07981 0.29044 0.73267 0.0
C353 C 0.10235 0.27713 0.7057 0.0
C354 C 0.12164 0.29535 0.6835 0.0
C355 C 0.14118 0.28275 0.65572 0.0
C356 C 0.14155 0.25196 0.64978 0.0
C357 C 0.12274 0.23366 0.67206 0.0
C358 C 0.10317 0.24614 0.69984 0.0
C359 C 0.9499 0.30371 0.70421 0.0
C360 C 0.94081 0.27375 0.70358 0.0
C361 C 0.97752 0.31157 0.72022 0.0
C362 C 0.99635 0.28962 0.73591 0.0
C363 C 0.98659 0.26006 0.73756 0.0
C364 C 0.959 0.2522 0.72181 0.0
C365 C 0.02721 0.2969 0.74726 0.0
C366 C 0.05 0.28332 0.72547 0.0
C367 C 0.0342 0.31801 0.77742 0.0
C368 C 0.01083 0.33295 0.80132 0.0
C369 C 0.98977 0.31617 0.82265 0.0
C370 C 0.96724 0.33041 0.844 0.0
C371 C 0.96563 0.36144 0.84447 0.0
C372 C 0.98665 0.3783 0.82374 0.0
C373 C 0.00923 0.36417 0.80234 0.0
H374 H 0.9481 0.37242 0.86088 0.0
H375 H 0.1565 0.24224 0.62801 0.0
H376 H 0.28995 0.66972 0.10239 0.0
H377 H 0.27631 0.62157 0.07182 0.0
H378 H 0.36801 0.60518 0.04414 0.0
H379 H 0.38177 0.65254 0.07467 0.0
H380 H 0.32922 0.59452 0.97902 0.0
H381 H 0.33944 0.57104 0.12096 0.0
H382 H 0.32777 0.57753 0.19306 0.0
H383 H 0.23661 0.55628 0.16908 0.0
H384 H 0.24768 0.5501 0.09667 0.0
H385 H 0.3292 0.44402 0.92114 0.0
H386 H 0.34067 0.48936 0.95927 0.0
H387 H 0.24994 0.49446 -0.00145 0.0
H388 H 0.23843 0.44902 0.96134 0.0
H389 H 0.28577 0.5117 0.05801 0.0
H390 H 0.27338 0.53483 0.91844 0.0
H391 H 0.282 0.53097 0.84526 0.0
H392 H 0.37314 0.55533 0.86282 0.0
H393 H 0.36515 0.55901 0.93629 0.0
C394 C 0.30713 0.65578 0.08983 0.0
C395 C 0.33694 0.66484 0.09128 0.0
C396 C 0.29935 0.62831 0.07248 0.0
C397 C 0.32121 0.6098 0.05588 0.0
C398 C 0.35082 0.61908 0.0568 0.0
C399 C 0.35863 0.64614 0.07452 0.0
C400 C 0.31365 0.58067 0.03732 0.0
C401 C 0.31999 0.57629 -0.00365 0.0
C402 C 0.30089 0.55723 0.05974 0.0
C403 C 0.29432 0.56043 0.10334 0.0
C404 C 0.31686 0.56797 0.13101 0.0
C405 C 0.31037 0.57156 0.17194 0.0
C406 C 0.28145 0.56742 0.18563 0.0
C407 C 0.25899 0.55954 0.15843 0.0
C408 C 0.26537 0.55597 0.11744 0.0
C409 C 0.31181 0.45446 0.93849 0.0
C410 C 0.2828 0.44303 0.93771 0.0
C411 C 0.31835 0.48051 0.96008 0.0
C412 C 0.296 0.49569 0.9811 0.0
C413 C 0.26751 0.48329 0.9824 0.0
C414 C 0.26097 0.45729 0.96093 0.0
C415 C 0.30177 0.52533 -0.00031 0.0
C416 C 0.295 0.52987 0.0406 0.0
C417 C 0.31378 0.54915 0.97707 0.0
C418 C 0.31874 0.54684 0.93293 0.0
C419 C 0.29533 0.5391 0.90675 0.0
C420 C 0.30009 0.53698 0.8652 0.0
C421 C 0.32812 0.54277 0.84939 0.0
C422 C 0.35144 0.55077 0.87512 0.0
C423 C 0.34682 0.5529 0.91672 0.0
H424 H 0.33173 0.54114 0.81719 0.0
H425 H 0.27646 0.57026 0.21732 0.0
H426 H 0.66331 0.69852 0.90129 0.0
H427 H 0.61649 0.70522 0.93642 0.0
H428 H 0.59419 0.61314 0.91477 0.0
H429 H 0.64073 0.60642 0.87848 0.0
H430 H 0.54652 0.64706 0.90683 0.0
H431 H 0.62308 0.63495 0.00457 0.0
H432 H 0.67137 0.6448 0.03703 0.0
H433 H 0.64468 0.73431 0.06348 0.0
H434 H 0.59648 0.72523 0.03035 0.0
H435 H 0.46376 0.68493 0.10983 0.0
H436 H 0.50494 0.66232 0.07334 0.0
H437 H 0.48292 0.71422 0.96805 0.0
H438 H 0.44159 0.73652 0.00387 0.0
H439 H 0.55239 0.68981 0.04491 0.0
H440 H 0.50112 0.67768 0.88354 0.0
H441 H 0.45292 0.66481 0.85271 0.0
H442 H 0.42884 0.61612 0.95896 0.0
H443 H 0.47703 0.62832 0.99021 0.0
C444 C 0.64828 0.67978 0.90352 0.0
C445 C 0.65575 0.65189 0.88734 0.0
C446 C 0.62162 0.6836 0.92378 0.0
C447 C 0.60224 0.65949 0.92896 0.0
C448 C 0.60896 0.63197 0.91126 0.0
C449 C 0.63552 0.6282 0.89052 0.0
C450 C 0.57551 0.66291 0.95409 0.0
C451 C 0.54775 0.65627 0.93708 0.0
C452 C 0.57731 0.67401 0.99407 0.0
C453 C 0.60618 0.67944 0.01468 0.0
C454 C 0.62756 0.6568 0.01705 0.0
C455 C 0.65495 0.66225 0.03556 0.0
C456 C 0.66114 0.69018 0.05221 0.0
C457 C 0.6399 0.7127 0.05049 0.0
C458 C 0.61253 0.70741 0.03186 0.0
C459 C 0.46747 0.69126 0.07875 0.0
C460 C 0.44956 0.71271 0.05985 0.0
C461 C 0.49101 0.67834 0.05799 0.0
C462 C 0.49684 0.68646 0.01796 0.0
C463 C 0.47852 0.70728 -0.00127 0.0
C464 C 0.45503 0.72018 0.01939 0.0
C465 C 0.52334 0.67509 -0.00296 0.0
C466 C 0.55113 0.68021 0.01487 0.0
C467 C 0.52155 0.662 0.95824 0.0
C468 C 0.49267 0.65411 0.93932 0.0
C469 C 0.48563 0.66407 0.90024 0.0
C470 C 0.45828 0.65693 0.88271 0.0
C471 C 0.43781 0.63972 0.90389 0.0
C472 C 0.44468 0.62953 0.94262 0.0
C473 C 0.472 0.63659 0.96028 0.0
H474 H 0.41664 0.63424 0.89028 0.0
H475 H 0.68235 0.69433 0.06652 0.0
H476 H 0.62893 0.35091 0.08241 0.0
H477 H 0.64809 0.39529 0.04998 0.0
H478 H 0.73087 0.38547 0.11391 0.0
H479 H 0.71175 0.3402 0.14676 0.0
H480 H 0.70595 0.44506 0.11451 0.0
H481 H 0.73283 0.36978 0.02097 0.0
H482 H 0.72645 0.32538 0.97791 0.0
H483 H 0.65903 0.37007 0.9095 0.0
H484 H 0.6646 0.41457 0.95257 0.0
H485 H 0.76791 0.55846 0.98588 0.0
H486 H 0.75883 0.51372 0.02575 0.0
H487 H 0.6742 0.50227 0.96683 0.0
H488 H 0.68305 0.54694 0.92672 0.0
H489 H 0.70795 0.45143 0.96506 0.0
H490 H 0.678 0.52456 0.06335 0.0
H491 H 0.68454 0.56896 0.10634 0.0
H492 H 0.75868 0.52794 0.16554 0.0
H493 H 0.75284 0.48344 0.12245 0.0
C494 C 0.65121 0.35809 0.08987 0.0
C495 C 0.66879 0.34204 0.11738 0.0
C496 C 0.66217 0.38343 0.07104 0.0
C497 C 0.69093 0.39352 0.0793 0.0
C498 C 0.7086 0.37791 0.10709 0.0
C499 C 0.69772 0.35209 0.12572 0.0
C500 C 0.70177 0.42068 0.05877 0.0
C501 C 0.7071 0.44636 0.08187 0.0
C502 C 0.70265 0.42237 0.01614 0.0
C503 C 0.69901 0.39551 0.99027 0.0
C504 C 0.71643 0.37007 -0.00299 0.0
C505 C 0.713 0.34488 0.97253 0.0
C506 C 0.69234 0.3449 0.94101 0.0
C507 C 0.67504 0.37009 0.93393 0.0
C508 C 0.67834 0.39532 0.95835 0.0
C509 C 0.74713 0.54672 0.98181 0.0
C510 C 0.72627 0.55627 0.95289 0.0
C511 C 0.742 0.52113 0.00467 0.0
C512 C 0.7159 0.50459 -0.00086 0.0
C513 C 0.69457 0.51463 0.97141 0.0
C514 C 0.6996 0.54031 0.94868 0.0
C515 C 0.71138 0.47603 0.02074 0.0
C516 C 0.70724 0.45008 -0.00227 0.0
C517 C 0.71171 0.4741 0.06339 0.0
C518 C 0.7152 0.50081 0.08934 0.0
C519 C 0.69587 0.52511 0.08527 0.0
C520 C 0.69941 0.55028 0.10971 0.0
C521 C 0.72207 0.55131 0.13856 0.0
C522 C 0.74117 0.52714 0.14312 0.0
C523 C 0.73775 0.50193 0.11871 0.0
H524 H 0.72477 0.57081 0.15747 0.0
H525 H 0.68975 0.32543 0.92204 0.0
H526 H 0.56798 0.24971 0.01475 0.0
H527 H 0.52398 0.26008 0.9739 0.0
H528 H 0.50144 0.33255 0.05357 0.0
H529 H 0.54499 0.3221 0.09484 0.0
H530 H 0.45586 0.29596 0.04348 0.0
H531 H 0.52655 0.34501 0.95811 0.0
H532 H 0.57186 0.34856 0.91718 0.0
H533 H 0.53966 0.2791 0.83922 0.0
H534 H 0.49432 0.27485 0.88004 0.0
H535 H 0.36769 0.37181 0.87299 0.0
H536 H 0.41406 0.3586 0.90573 0.0
H537 H 0.37493 0.27694 0.94854 0.0
H538 H 0.3278 0.29047 0.91655 0.0
H539 H 0.45146 0.31507 0.89623 0.0
H540 H 0.40787 0.26026 0.04159 0.0
H541 H 0.36389 0.2605 0.0854 0.0
H542 H 0.34299 0.34909 0.04659 0.0
H543 H 0.38714 0.34958 0.00311 0.0
C544 C 0.55398 0.26824 0.02309 0.0
C545 C 0.55977 0.28492 0.05823 0.0
C546 C 0.52885 0.2741 -0.00026 0.0
C547 C 0.50943 0.29696 0.0109 0.0
C548 C 0.51605 0.31463 0.0447 0.0
C549 C 0.54101 0.3087 0.06812 0.0
C550 C 0.4812 0.30143 0.98907 0.0
C551 C 0.45486 0.30011 0.01125 0.0
C552 C 0.48002 0.30675 0.9471 0.0
C553 C 0.50718 0.3094 0.92238 0.0
C554 C 0.52924 0.33033 0.93242 0.0
C555 C 0.55491 0.3325 0.90921 0.0
C556 C 0.55867 0.31401 0.87569 0.0
C557 C 0.53673 0.29337 0.86523 0.0
C558 C 0.51103 0.29109 0.88837 0.0
C559 C 0.36887 0.35094 0.88919 0.0
C560 C 0.34404 0.33219 0.89222 0.0
C561 C 0.39548 0.34338 0.90779 0.0
C562 C 0.39791 0.31689 0.92972 0.0
C563 C 0.37338 0.2977 0.93215 0.0
C564 C 0.34653 0.30541 0.9138 0.0
C565 C 0.42606 0.31014 0.95076 0.0
C566 C 0.45241 0.31073 0.92841 0.0
C567 C 0.42731 0.3047 0.99279 0.0
C568 C 0.40057 0.30475 0.01862 0.0
C569 C 0.39389 0.27979 0.04242 0.0
C570 C 0.36896 0.27981 0.06723 0.0
C571 C 0.35059 0.30473 0.06863 0.0
C572 C 0.35716 0.32974 0.04532 0.0
C573 C 0.38213 0.32987 0.02056 0.0
H574 H 0.33136 0.30467 0.08794 0.0
H575 H 0.57856 0.31572 0.85776 0.0
H576 H 0.83093 0.57506 0.7969 0.0
H577 H 0.85321 0.53132 0.76404 0.0
H578 H 0.79163 0.47411 0.82604 0.0
H579 H 0.76919 0.51737 0.85801 0.0
H580 H 0.84931 0.4492 0.81756 0.0
H581 H 0.77154 0.49993 0.73884 0.0
H582 H 0.75179 0.54493 0.70591 0.0
H583 H 0.82955 0.55061 0.63231 0.0
H584 H 0.84996 0.50587 0.66535 0.0
H585 H 0.80798 0.32317 0.70742 0.0
H586 H 0.80737 0.37122 0.74222 0.0
H587 H 0.86573 0.40796 0.65246 0.0
H588 H 0.86619 0.3603 0.61716 0.0
H589 H 0.82188 0.44639 0.67225 0.0
H590 H 0.8949 0.38934 0.73992 0.0
H591 H 0.91581 0.34505 0.77314 0.0
H592 H 0.85073 0.35159 0.86672 0.0
H593 H 0.8292 0.39574 0.8338 0.0
C594 C 0.82278 0.55301 0.80409 0.0
C595 C 0.79819 0.54934 0.82928 0.0
C596 C 0.83548 0.52818 0.78551 0.0
C597 C 0.82391 0.49963 0.79265 0.0
C598 C 0.80091 0.49594 0.82035 0.0
C599 C 0.78795 0.52064 0.83823 0.0
C600 C 0.8321 0.47406 0.76721 0.0
C601 C 0.84356 0.44853 0.78574 0.0
C602 C 0.82509 0.47358 0.72557 0.0
C603 C 0.81238 0.4998 0.70478 0.0
C604 C 0.78445 0.51086 0.71574 0.0
C605 C 0.77315 0.53631 0.69708 0.0
C606 C 0.78944 0.55067 0.66711 0.0
C607 C 0.81699 0.5395 0.65558 0.0
C608 C 0.82843 0.51411 0.67425 0.0
C609 C 0.8203 0.34159 0.69475 0.0
C610 C 0.83721 0.33791 0.65964 0.0
C611 C 0.82018 0.3689 0.71486 0.0
C612 C 0.83701 0.39285 0.70024 0.0
C613 C 0.85281 0.38964 0.6643 0.0
C614 C 0.85301 0.36238 0.64423 0.0
C615 C 0.83829 0.42114 0.72285 0.0
C616 C 0.82851 0.44715 0.70376 0.0
C617 C 0.84717 0.42208 0.76385 0.0
C618 C 0.86031 0.39579 0.78423 0.0
C619 C 0.88493 0.38125 0.76747 0.0
C620 C 0.89692 0.35617 0.78626 0.0
C621 C 0.88457 0.34548 0.82198 0.0
C622 C 0.8603 0.35993 0.83908 0.0
C623 C 0.84823 0.38503 0.82041 0.0
H624 H 0.89384 0.32603 0.83645 0.0
H625 H 0.78069 0.57041 0.65276 0.0
H626 H 0.53566 0.19303 0.15077 0.0
H627 H 0.48502 0.18274 0.17161 0.0
H628 H 0.49161 0.25144 0.26237 0.0
H629 H 0.54227 0.26236 0.24117 0.0
H630 H 0.45966 0.16443 0.23681 0.0
H631 H 0.42717 0.28879 0.26774 0.0
H632 H 0.4385 0.33828 0.23964 0.0
H633 H 0.46379 0.29813 0.12731 0.0
H634 H 0.45227 0.24848 0.15453 0.0
H635 H 0.34338 0.16789 0.36862 0.0
H636 H 0.38915 0.18008 0.33408 0.0
H637 H 0.33934 0.21388 0.23271 0.0
H638 H 0.29292 0.20189 0.26755 0.0
H639 H 0.3883 0.24783 0.24829 0.0
H640 H 0.36633 0.14781 0.22447 0.0
H641 H 0.35072 0.09644 0.23922 0.0
H642 H 0.42813 0.08397 0.3129 0.0
H643 H 0.44381 0.13561 0.29963 0.0
C644 C 0.52649 0.20583 0.17544 0.0
C645 C 0.54294 0.22874 0.19407 0.0
C646 C 0.4975 0.19987 0.18729 0.0
C647 C 0.48436 0.2167 0.21796 0.0
C648 C 0.50117 0.23861 0.238 0.0
C649 C 0.53021 0.24463 0.22615 0.0
C650 C 0.45302 0.21151 0.22886 0.0
C651 C 0.44407 0.18264 0.2393 0.0
C652 C 0.4322 0.23499 0.22988 0.0
C653 C 0.43913 0.26487 0.21338 0.0
C654 C 0.43507 0.29053 0.23702 0.0
C655 C 0.44154 0.31862 0.22124 0.0
C656 C 0.45195 0.32134 0.18177 0.0
C657 C 0.45585 0.29599 0.15794 0.0
C658 C 0.44941 0.26787 0.17357 0.0
C659 C 0.34204 0.17819 0.33914 0.0
C660 C 0.31455 0.18361 0.32056 0.0
C661 C 0.36825 0.18509 0.31942 0.0
C662 C 0.36757 0.19726 0.28054 0.0
C663 C 0.34023 0.20431 0.26266 0.0
C664 C 0.31381 0.1975 0.28257 0.0
C665 C 0.39566 0.20114 0.25849 0.0
C666 C 0.40391 0.22965 0.24563 0.0
C667 C 0.41534 0.177 0.25315 0.0
C668 C 0.40616 0.14577 0.26127 0.0
C669 C 0.37991 0.13425 0.24415 0.0
C670 C 0.37104 0.10505 0.25222 0.0
C671 C 0.38843 0.08694 0.27693 0.0
C672 C 0.41469 0.09803 0.29373 0.0
C673 C 0.42357 0.1273 0.28598 0.0
H674 H 0.38157 0.06431 0.28301 0.0
H675 H 0.45694 0.3431 0.16963 0.0
H676 H 0.13416 0.65125 0.62502 0.0
H677 H 0.14521 0.60237 0.6527 0.0
H678 H 0.21488 0.64046 0.726 0.0
H679 H 0.20388 0.68988 0.69858 0.0
H680 H 0.22982 0.58687 0.68149 0.0
H681 H 0.15386 0.62575 0.76987 0.0
H682 H 0.10503 0.64811 0.78282 0.0
H683 H 0.06219 0.57252 0.72843 0.0
H684 H 0.11083 0.54993 0.71453 0.0
H685 H 0.2633 0.47826 0.82024 0.0
H686 H 0.24733 0.52373 0.78744 0.0
H687 H 0.16972 0.47872 0.7411 0.0
H688 H 0.18518 0.43284 0.77574 0.0
H689 H 0.15623 0.53335 0.76544 0.0
H690 H 0.2296 0.49264 0.67926 0.0
H691 H 0.27738 0.46964 0.66191 0.0
H692 H 0.32357 0.54683 0.70604 0.0
H693 H 0.27608 0.57017 0.72412 0.0
C694 C 0.15199 0.64931 0.64685 0.0
C695 C 0.16827 0.6744 0.65955 0.0
C696 C 0.15813 0.62138 0.6627 0.0
C697 C 0.18067 0.61804 0.69142 0.0
C698 C 0.19736 0.64283 0.70379 0.0
C699 C 0.19104 0.67094 0.68819 0.0
C700 C 0.1867 0.58854 0.70861 0.0
C701 C 0.21394 0.57524 0.70023 0.0
C702 C 0.16527 0.57307 0.73144 0.0
C703 C 0.136 0.58628 0.7408 0.0
C704 C 0.13404 0.61398 0.76042 0.0
C705 C 0.10639 0.6267 0.76796 0.0
C706 C 0.08052 0.61179 0.75634 0.0
C707 C 0.08225 0.58407 0.73736 0.0
C708 C 0.10985 0.57128 0.72967 0.0
C709 C 0.24286 0.47793 0.80296 0.0
C710 C 0.22567 0.45196 0.79985 0.0
C711 C 0.23381 0.50393 0.78419 0.0
C712 C 0.20783 0.50434 0.76091 0.0
C713 C 0.19004 0.47869 0.75863 0.0
C714 C 0.19885 0.4526 0.77825 0.0
C715 C 0.19978 0.53183 0.73919 0.0
C716 C 0.17209 0.54478 0.74646 0.0
C717 C 0.22061 0.54682 0.71466 0.0
C718 C 0.24926 0.5331 0.70319 0.0
C719 C 0.24995 0.50467 0.68541 0.0
C720 C 0.27698 0.49157 0.67544 0.0
C721 C 0.30349 0.50675 0.68289 0.0
C722 C 0.30301 0.53511 0.70025 0.0
C723 C 0.27604 0.54831 0.71029 0.0
H724 H 0.3244 0.49656 0.67519 0.0
H725 H 0.05914 0.6217 0.76212 0.0
H726 H 0.64848 0.84168 0.40009 0.0
H727 H 0.59875 0.83137 0.37419 0.0
H728 H 0.6362 0.79169 0.26743 0.0
H729 H 0.68592 0.80147 0.29322 0.0
H730 H 0.57203 0.85187 0.30836 0.0
H731 H 0.59133 0.73821 0.2316 0.0
H732 H 0.62326 0.69419 0.23986 0.0
H733 H 0.63017 0.71145 0.36711 0.0
H734 H 0.59809 0.75543 0.35963 0.0
H735 H 0.46621 0.81422 0.15587 0.0
H736 H 0.51026 0.82511 0.19649 0.0
H737 H 0.48149 0.76213 0.28618 0.0
H738 H 0.43734 0.75107 0.24584 0.0
H739 H 0.53858 0.75237 0.26145 0.0
H740 H 0.47978 0.83379 0.30744 0.0
H741 H 0.44812 0.87812 0.30104 0.0
H742 H 0.51832 0.9248 0.24125 0.0
H743 H 0.55023 0.88054 0.24657 0.0
C744 C 0.64615 0.83046 0.37128 0.0
C745 C 0.67119 0.82226 0.34883 0.0
C746 C 0.61771 0.82472 0.35646 0.0
C747 C 0.61376 0.81064 0.31899 0.0
C748 C 0.6387 0.80221 0.29666 0.0
C749 C 0.66715 0.80781 0.3115 0.0
C750 C 0.58357 0.80558 0.30265 0.0
C751 C 0.56464 0.8301 0.29825 0.0
C752 C 0.57386 0.77712 0.28989 0.0
C753 C 0.59249 0.75023 0.29496 0.0
C754 C 0.59954 0.73252 0.26137 0.0
C755 C 0.6177 0.7076 0.2659 0.0
C756 C 0.62879 0.70006 0.30397 0.0
C757 C 0.62164 0.71737 0.33761 0.0
C758 C 0.6035 0.74231 0.33323 0.0
C759 C 0.46901 0.80299 0.18451 0.0
C760 C 0.44836 0.78161 0.19746 0.0
C761 C 0.49415 0.80931 0.20773 0.0
C762 C 0.4991 0.79438 0.24427 0.0
C763 C 0.47806 0.77382 0.25799 0.0
C764 C 0.45279 0.76764 0.23495 0.0
C765 C 0.52721 0.79874 0.26668 0.0
C766 C 0.54583 0.7741 0.27194 0.0
C767 C 0.53652 0.82706 0.2805 0.0
C768 C 0.51731 0.8537 0.27707 0.0
C769 C 0.48837 0.85339 0.29255 0.0
C770 C 0.47039 0.87853 0.28917 0.0
C771 C 0.48117 0.90423 0.27065 0.0
C772 C 0.50998 0.90485 0.25552 0.0
C773 C 0.52802 0.87974 0.25872 0.0
H774 H 0.46722 0.92368 0.26811 0.0
H775 H 0.64287 0.68079 0.30742 0.0
H776 H 0.82108 0.13735 0.64562 0.0
H777 H 0.81591 0.0899 0.61011 0.0
H778 H 0.82124 0.13557 0.49583 0.0
H779 H 0.82493 0.18316 0.53142 0.0
H780 H 0.78449 0.09371 0.48722 0.0
H781 H 0.88174 0.09789 0.53797 0.0
H782 H 0.92223 0.10536 0.58715 0.0
H783 H 0.8901 0.03208 0.65749 0.0
H784 H 0.84914 0.02439 0.60898 0.0
H785 H 0.82041 0.95613 0.38712 0.0
H786 H 0.83294 0.00352 0.41981 0.0
H787 H 0.78439 0.97707 0.52552 0.0
H788 H 0.77094 0.93 0.49259 0.0
H789 H 0.84773 0.00982 0.53233 0.0
H790 H 0.74632 0.01248 0.47274 0.0
H791 H 0.71262 0.00705 0.41432 0.0
H792 H 0.76362 0.07115 0.34837 0.0
H793 H 0.79793 0.07654 0.40617 0.0
C794 C 0.82066 0.13722 0.61292 0.0
C795 C 0.82321 0.16383 0.59119 0.0
C796 C 0.81802 0.11011 0.59263 0.0
C797 C 0.81896 0.10903 0.55025 0.0
C798 C 0.82051 0.13577 0.5285 0.0
C799 C 0.82246 0.16297 0.54883 0.0
C800 C 0.81872 0.07997 0.52884 0.0
C801 C 0.79862 0.07557 0.4969 0.0
C802 C 0.83755 0.05631 0.54069 0.0
C803 C 0.86219 0.06072 0.56999 0.0
C804 C 0.88317 0.08349 0.56407 0.0
C805 C 0.90622 0.08775 0.59181 0.0
C806 C 0.90869 0.06926 0.62548 0.0
C807 C 0.88814 0.04641 0.63141 0.0
C808 C 0.86501 0.04206 0.60377 0.0
C809 C 0.81306 0.96009 0.41772 0.0
C810 C 0.79464 0.9395 0.43737 0.0
C811 C 0.82013 0.98716 0.43621 0.0
C812 C 0.8094 0.99364 0.47483 0.0
C813 C 0.79283 0.97229 0.49566 0.0
C814 C 0.78517 0.94552 0.47686 0.0
C815 C 0.81296 0.02367 0.49207 0.0
C816 C 0.8338 0.02819 0.52291 0.0
C817 C 0.79577 0.04778 0.47803 0.0
C818 C 0.77489 0.04462 0.44358 0.0
C819 C 0.75054 0.02515 0.44563 0.0
C820 C 0.73129 0.02213 0.41264 0.0
C821 C 0.73604 0.03868 0.3776 0.0
C822 C 0.76 0.0583 0.37549 0.0
C823 C 0.77934 0.06135 0.40834 0.0
H824 H 0.7211 0.03643 0.35214 0.0
H825 H 0.92655 0.07259 0.64693 0.0
H826 H 0.1582 0.19592 0.43855 0.0
H827 H 0.11258 0.19532 0.47782 0.0
H828 H 0.07987 0.12159 0.40667 0.0
H829 H 0.12496 0.1225 0.36663 0.0
H830 H 0.03741 0.16045 0.4181 0.0
H831 H 0.10498 0.10928 0.50201 0.0
H832 H 0.15245 0.10012 0.53683 0.0
H833 H 0.1408 0.17935 0.60751 0.0
H834 H 0.09332 0.18916 0.57292 0.0
H835 H 0.91729 0.16269 0.56147 0.0
H836 H 0.96013 0.14008 0.52747 0.0
H837 H 0.01274 0.21762 0.5562 0.0
H838 H 0.97048 0.24026 0.5893 0.0
H839 H 0.04263 0.16175 0.56778 0.0
H840 H 0.98056 0.21609 0.46907 0.0
H841 H 0.93313 0.22388 0.43336 0.0
H842 H 0.93463 0.13358 0.39088 0.0
H843 H 0.98193 0.12519 0.42681 0.0
C844 C 0.1412 0.17976 0.43106 0.0
C845 C 0.14515 0.15934 0.39945 0.0
C846 C 0.11528 0.17923 0.45373 0.0
C847 C 0.09314 0.15799 0.44559 0.0
C848 C 0.09675 0.13804 0.41352 0.0
C849 C 0.12252 0.13869 0.39064 0.0
C850 C 0.06601 0.15709 0.47027 0.0
C851 C 0.03849 0.15996 0.45082 0.0
C852 C 0.06742 0.15611 0.51291 0.0
C853 C 0.0956 0.15 0.53472 0.0
C854 C 0.11256 0.1248 0.52491 0.0
C855 C 0.13946 0.11948 0.54464 0.0
C856 C 0.14962 0.13914 0.57438 0.0
C857 C 0.13283 0.16411 0.58456 0.0
C858 C 0.10588 0.16951 0.56497 0.0
C859 C 0.93813 0.17466 0.56069 0.0
C860 C 0.94056 0.20334 0.57735 0.0
C861 C 0.96247 0.16175 0.5415 0.0
C862 C 0.98946 0.17726 0.53956 0.0
C863 C 0.99212 0.2053 0.55768 0.0
C864 C 0.96785 0.21833 0.57611 0.0
C865 C 0.01445 0.16625 0.51552 0.0
C866 C 0.04158 0.16116 0.53507 0.0
C867 C 0.01266 0.16469 0.47301 0.0
C868 C 0.98454 0.16993 0.45094 0.0
C869 C 0.97066 0.19786 0.45231 0.0
C870 C 0.94383 0.20239 0.43202 0.0
C871 C 0.93083 0.17921 0.40996 0.0
C872 C 0.9447 0.15149 0.40804 0.0
C873 C 0.97151 0.14684 0.42834 0.0
H874 H 0.91005 0.18275 0.3943 0.0
H875 H 0.17049 0.13503 0.58955 0.0
H876 H 0.11963 0.86905 0.62488 0.0
H877 H 0.12778 0.9181 0.59555 0.0
H878 H 0.21505 0.89153 0.55792 0.0
H879 H 0.2069 0.84185 0.58653 0.0
H880 H 0.20482 0.95444 0.59836 0.0
H881 H 0.17238 0.88535 0.4924 0.0
H882 H 0.1377 0.84798 0.46481 0.0
H883 H 0.06633 0.91052 0.47381 0.0
H884 H 0.10068 0.94823 0.50177 0.0
H885 H 0.25368 0.04503 0.44333 0.0
H886 H 0.23902 0.00537 0.4887 0.0
H887 H 0.1474 0.03079 0.47555 0.0
H888 H 0.1619 0.07052 0.42905 0.0
H889 H 0.15321 0.97241 0.46798 0.0
H890 H 0.18311 0.04373 0.56367 0.0
H891 H 0.21407 0.08264 0.5952 0.0
H892 H 0.28424 0.01962 0.61264 0.0
H893 H 0.25389 0.98039 0.58058 0.0
C894 C 0.14077 0.87372 0.6109 0.0
C895 C 0.16268 0.85166 0.60791 0.0
C896 C 0.14532 0.90173 0.59427 0.0
C897 C 0.17198 0.90821 0.57489 0.0
C898 C 0.19442 0.88675 0.57316 0.0
C899 C 0.18968 0.85845 0.58919 0.0
C900 C 0.17532 0.93648 0.5533 0.0
C901 C 0.19384 0.95844 0.56969 0.0
C902 C 0.15959 0.94192 0.51712 0.0
C903 C 0.13907 0.91952 0.49941 0.0
C904 C 0.14928 0.89109 0.48865 0.0
C905 C 0.1297 0.86986 0.47291 0.0
C906 C 0.09982 0.87687 0.46756 0.0
C907 C 0.0895 0.90515 0.4779 0.0
C908 C 0.10903 0.92647 0.49362 0.0
C909 C 0.2304 0.04242 0.45021 0.0
C910 C 0.20893 0.06083 0.43244 0.0
C911 C 0.22207 0.01981 0.4764 0.0
C912 C 0.19217 0.01541 0.4859 0.0
C913 C 0.17061 0.03391 0.46861 0.0
C914 C 0.17893 0.05653 0.44208 0.0
C915 C 0.18375 0.9903 0.51215 0.0
C916 C 0.16404 0.96883 0.49687 0.0
C917 C 0.19784 0.98566 0.5499 0.0
C918 C 0.21625 0.00911 0.56946 0.0
C919 C 0.20523 0.03818 0.57395 0.0
C920 C 0.22266 0.06031 0.59197 0.0
C921 C 0.25112 0.05362 0.60587 0.0
C922 C 0.26218 0.02477 0.60185 0.0
C923 C 0.24485 0.00255 0.58381 0.0
H924 H 0.2646 0.07078 0.61981 0.0
H925 H 0.0847 0.86041 0.45534 0.0
H926 H 0.07528 0.8385 0.54865 0.0
H927 H 0.03722 0.85514 0.5003 0.0
H928 H 0.99449 0.76932 0.50807 0.0
H929 H 0.03231 0.75258 0.55489 0.0
H930 H -0.00206 0.78537 0.43239 0.0
H931 H 0.9694 0.83307 0.55934 0.0
H932 H 0.97808 0.86666 0.61728 0.0
H933 H 0.99146 0.93984 0.53623 0.0
H934 H 0.98303 0.90653 0.47788 0.0
H935 H 0.84413 0.79388 0.40479 0.0
H936 H 0.89508 0.79022 0.4296 0.0
H937 H 0.91489 0.87652 0.37984 0.0
H938 H 0.86409 0.8803 0.35448 0.0
H939 H 0.93093 0.86975 0.46219 0.0
H940 H 0.94613 0.82163 0.33617 0.0
H941 H 0.93536 0.78671 0.28049 0.0
H942 H 0.94598 0.71283 0.36111 0.0
H943 H 0.95638 0.74731 0.41745 0.0
C944 C 0.05766 0.82335 0.53995 0.0
C945 C 0.0568 0.79422 0.55522 0.0
C946 C 0.03604 0.8328 0.51235 0.0
C947 C 0.01315 0.81336 0.50037 0.0
C948 C 0.01219 0.78453 0.51629 0.0
C949 C 0.0338 0.77503 0.54321 0.0
C950 C 0.98947 0.82248 0.47196 0.0
C951 C 0.98331 0.80386 0.43884 0.0
C952 C 0.97106 0.84726 0.47945 0.0
C953 C 0.97588 0.8673 0.51439 0.0
C954 C 0.97432 0.8563 0.55399 0.0
C955 C 0.97917 0.87528 0.58685 0.0
C956 C 0.9854 0.90536 0.58044 0.0
C957 C 0.98668 0.91653 0.54115 0.0
C958 C 0.98183 0.89762 0.50818 0.0
C959 C 0.85943 0.81188 0.39861 0.0
C960 C 0.85014 0.8373 0.37756 0.0
C961 C 0.88851 0.80975 0.4127 0.0
C962 C 0.90866 0.83307 0.40629 0.0
C963 C 0.89962 0.85829 0.38487 0.0
C964 C 0.87066 0.86029 0.37029 0.0
C965 C 0.93859 0.83156 0.42424 0.0
C966 C 0.946 0.85174 0.45508 0.0
C967 C 0.95801 0.80801 0.41493 0.0
C968 C 0.95191 0.78711 0.3811 0.0
C969 C 0.94597 0.79795 0.34211 0.0
C970 C 0.93996 0.77822 0.31041 0.0
C971 C 0.93995 0.74757 0.31727 0.0
C972 C 0.94601 0.73658 0.35584 0.0
C973 C 0.95201 0.75621 0.38766 0.0
H974 H 0.9353 0.73234 0.29269 0.0
H975 H 0.98918 0.92003 0.60591 0.0
H976 H 0.20354 0.35055 0.9928 0.0
H977 H 0.19481 0.31977 0.05274 0.0
H978 H 0.24811 0.24984 0.00128 0.0
H979 H 0.25601 0.27987 0.94131 0.0
H980 H 0.19957 0.22712 0.03053 0.0
H981 H 0.27339 0.29721 0.07658 0.0
H982 H 0.29392 0.34719 0.09012 0.0
H983 H 0.22196 0.36587 0.17027 0.0
H984 H 0.20061 0.31628 0.15655 0.0
H985 H 0.23181 0.14265 0.20967 0.0
H986 H 0.23153 0.17074 0.14618 0.0
H987 H 0.17435 0.23644 0.19997 0.0
H988 H 0.17507 0.20895 0.26322 0.0
H989 H 0.2225 0.26154 0.1695 0.0
H990 H 0.14962 0.19041 0.12463 0.0
H991 H 0.12971 0.14022 0.11115 0.0
H992 H 0.20125 0.12286 0.02969 0.0
H993 H 0.22183 0.17283 0.04309 0.0
C994 C 0.21347 0.32868 0.99456 0.0
C995 C 0.23025 0.31747 0.96245 0.0
C996 C 0.20851 0.31114 0.0287 0.0
C997 C 0.22087 0.28252 0.03142 0.0
C998 C 0.23812 0.2717 -0.00036 0.0
C999 C 0.24269 0.28894 0.96547 0.0
C1000 C 0.21588 0.26347 0.06708 0.0
C1001 C 0.20482 0.23455 0.06092 0.0
C1002 C 0.22222 0.27339 0.10672 0.0
C1003 C 0.23523 0.30313 0.1152 0.0
C1004 C 0.26182 0.31206 0.09685 0.0
C1005 C 0.27362 0.3403 0.10458 0.0
C1006 C 0.25925 0.35967 0.131 0.0
C1007 C 0.23305 0.35085 0.14978 0.0
C1008 C 0.22107 0.32269 0.14201 0.0
C1009 C 0.21858 0.16265 0.20741 0.0
C1010 C 0.20368 0.17384 0.24123 0.0
C1011 C 0.21845 0.17869 0.17127 0.0
C1012 C 0.20303 0.20576 0.16856 0.0
C1013 C 0.18658 0.21577 0.20159 0.0
C1014 C 0.18697 0.20001 0.23762 0.0
C1015 C 0.2062 0.22521 0.13295 0.0
C1016 C 0.21704 0.25419 0.13914 0.0
C1017 C 0.19982 0.21528 0.09339 0.0
C1018 C 0.18741 0.18527 0.08515 0.0
C1019 C 0.16124 0.17581 0.10408 0.0
C1020 C 0.14981 0.14741 0.09641 0.0
C1021 C 0.16424 0.12833 0.06965 0.0
C1022 C 0.19011 0.13765 0.05043 0.0
C1023 C 0.20164 0.16602 0.05802 0.0
H1024 H 0.15536 0.10636 0.06376 0.0
H1025 H 0.26845 0.38151 0.13696 0.0
H1026 H 0.33027 0.72526 0.98674 0.0
H1027 H 0.29822 0.73212 0.92814 0.0
H1028 H 0.31023 0.82721 0.93672 0.0
H1029 H 0.34258 0.82032 -0.00412 0.0
H1030 H 0.25177 0.81072 0.93728 0.0
H1031 H 0.33532 0.79133 0.85506 0.0
H1032 H 0.38029 0.76523 0.83272 0.0
H1033 H 0.32937 0.68607 0.81025 0.0
H1034 H 0.28413 0.71155 0.83302 0.0
H1035 H 0.16596 0.8282 0.75383 0.0
H1036 H 0.20044 0.83016 0.81118 0.0
H1037 H 0.19908 0.7343 0.81785 0.0
H1038 H 0.16467 0.73246 0.76043 0.0
H1039 H 0.25459 0.75695 0.80651 0.0
H1040 H 0.17214 0.77518 0.89417 0.0
H1041 H 0.12727 0.80095 0.91758 0.0
H1042 H 0.17643 0.88238 0.92983 0.0
H1043 H 0.22154 0.85718 0.90592 0.0
C1044 C 0.32686 0.74757 0.97529 0.0
C1045 C 0.33883 0.77227 -0.00437 0.0
C1046 C 0.30856 0.75148 0.94181 0.0
C1047 C 0.30184 0.78018 0.92812 0.0
C1048 C 0.31523 0.80488 0.94687 0.0
C1049 C 0.3339 0.80093 0.9803 0.0
C1050 C 0.27829 0.78399 0.89735 0.0
C1051 C 0.25262 0.79957 0.90823 0.0
C1052 C 0.27919 0.76877 0.86001 0.0
C1053 C 0.30633 0.75334 0.84601 0.0
C1054 C 0.33373 0.76829 0.84563 0.0
C1055 C 0.35927 0.75362 0.83284 0.0
C1056 C 0.3577 0.724 0.82014 0.0
C1057 C 0.33056 0.70902 0.8201 0.0
C1058 C 0.30494 0.72359 0.83289 0.0
C1059 C 0.17191 0.80773 0.76901 0.0
C1060 C 0.16231 0.78023 0.75368 0.0
C1061 C 0.19176 0.80882 0.80146 0.0
C1062 C 0.20238 0.78236 0.8186 0.0
C1063 C 0.19111 0.75495 0.805 0.0
C1064 C 0.17118 0.75389 0.77269 0.0
C1065 C 0.22784 0.78306 0.84688 0.0
C1066 C 0.25388 0.76839 0.83536 0.0
C1067 C 0.22726 0.79915 0.88356 0.0
C1068 C 0.20014 0.81437 0.89779 0.0
C1069 C 0.17332 0.79865 0.90145 0.0
C1070 C 0.14786 0.81314 0.91491 0.0
C1071 C 0.14897 0.84331 0.92507 0.0
C1072 C 0.17558 0.85903 0.92188 0.0
C1073 C 0.20111 0.84465 0.90841 0.0
H1074 H 0.12924 0.85448 0.9355 0.0
H1075 H 0.37751 0.71267 0.81027 0.0
H1076 H 0.76865 0.87434 0.21201 0.0
H1077 H 0.75882 0.85313 0.14456 0.0
H1078 H 0.73401 0.76975 0.19924 0.0
H1079 H 0.74379 0.79044 0.26571 0.0
H1080 H 0.78899 0.80498 0.11399 0.0
H1081 H 0.68193 0.73448 0.14122 0.0
H1082 H 0.63474 0.73867 0.17761 0.0
H1083 H 0.64181 0.8339 0.17588 0.0
H1084 H 0.68875 0.83038 0.1386 0.0
H1085 H 0.78266 0.66888 0.0073 0.0
H1086 H 0.77764 0.7056 0.06193 0.0
H1087 H 0.71666 0.75614 0.98883 0.0
H1088 H 0.72202 0.72004 0.93403 0.0
H1089 H 0.69963 0.74814 0.07209 0.0
H1090 H 0.77987 0.78245 0.99074 0.0
H1091 H 0.82675 0.77729 0.95363 0.0
H1092 H 0.87205 0.75518 0.06376 0.0
H1093 H 0.8253 0.75974 0.10144 0.0
C1094 C 0.76071 0.85166 0.20941 0.0
C1095 C 0.75744 0.83386 0.24386 0.0
C1096 C 0.75508 0.83962 0.17107 0.0
C1097 C 0.74544 0.80998 0.16707 0.0
C1098 C 0.74099 0.79277 0.20166 0.0
C1099 C 0.74694 0.80456 0.23961 0.0
C1100 C 0.74328 0.7954 0.12719 0.0
C1101 C 0.7693 0.79292 0.10454 0.0
C1102 C 0.7175 0.77971 0.11492 0.0
C1103 C 0.68908 0.78214 0.13722 0.0
C1104 C 0.67338 0.75636 0.14834 0.0
C1105 C 0.64664 0.75861 0.16916 0.0
C1106 C 0.63528 0.78653 0.17906 0.0
C1107 C 0.65066 0.81227 0.16821 0.0
C1108 C 0.67737 0.81016 0.14725 0.0
C1109 C 0.76805 0.6877 0.00314 0.0
C1110 C 0.75305 0.69194 0.96645 0.0
C1111 C 0.76527 0.70863 0.03415 0.0
C1112 C 0.74705 0.73363 0.02898 0.0
C1113 C 0.73094 0.73707 0.99313 0.0
C1114 C 0.73416 0.71654 0.96192 0.0
C1115 C 0.74562 0.75671 0.06054 0.0
C1116 C 0.71903 0.76068 0.08138 0.0
C1117 C 0.77081 0.77369 0.07131 0.0
C1118 C 0.79903 0.77122 0.04885 0.0
C1119 C 0.79977 0.77626 0.00699 0.0
C1120 C 0.82633 0.77348 0.98586 0.0
C1121 C 0.85235 0.76586 0.00631 0.0
C1122 C 0.85187 0.76106 0.04796 0.0
C1123 C 0.82536 0.76377 0.06922 0.0
H1124 H 0.87289 0.76371 0.9899 0.0
H1125 H 0.61455 0.78823 0.19515 0.0
H1126 H 0.77092 0.24129 0.7194 0.0
H1127 H 0.74572 0.24257 0.78408 0.0
H1128 H 0.82849 0.22634 0.84566 0.0
H1129 H 0.85409 0.22474 0.78066 0.0
H1130 H 0.78442 0.19178 0.87483 0.0
H1131 H 0.79991 0.29334 0.84662 0.0
H1132 H 0.79989 0.33975 0.80736 0.0
H1133 H 0.70489 0.33864 0.80334 0.0
H1134 H 0.70428 0.29165 0.84156 0.0
H1135 H 0.72744 0.24475 0.06624 0.0
H1136 H 0.75575 0.24276 0.0036 0.0
H1137 H 0.67585 0.22308 0.93683 0.0
H1138 H 0.64728 0.2242 -0.00017 0.0
H1139 H 0.7208 0.27701 0.91336 0.0
H1140 H 0.70916 0.1702 0.93796 0.0
H1141 H 0.71273 0.12592 0.9815 0.0
H1142 H 0.80578 0.14175 -0.00171 0.0
H1143 H 0.80264 0.18643 0.95532 0.0
C1144 C 0.78385 0.23792 0.74662 0.0
C1145 C 0.81452 0.23282 0.74489 0.0
C1146 C 0.7694 0.23884 0.78358 0.0
C1147 C 0.78532 0.23486 0.81957 0.0
C1148 C 0.81589 0.22951 0.8181 0.0
C1149 C 0.83044 0.22865 0.78102 0.0
C1150 C 0.76965 0.23575 0.85854 0.0
C1151 C 0.77079 0.21057 0.88341 0.0
C1152 C 0.75186 0.26032 0.86966 0.0
C1153 C 0.75207 0.28865 0.84657 0.0
C1154 C 0.77899 0.30274 0.83696 0.0
C1155 C 0.77911 0.32921 0.81494 0.0
C1156 C 0.75243 0.34212 0.80279 0.0
C1157 C 0.72556 0.32857 0.81268 0.0
C1158 C 0.72531 0.30198 0.83449 0.0
C1159 C 0.71592 0.23977 0.03825 0.0
C1160 C 0.68522 0.23455 0.03771 0.0
C1161 C 0.7321 0.23865 0.00266 0.0
C1162 C 0.71775 0.23279 0.96598 0.0
C1163 C 0.68713 0.22756 0.96514 0.0
C1164 C 0.67096 0.22804 0.00097 0.0
C1165 C 0.73492 0.23276 0.92846 0.0
C1166 C 0.73432 0.25827 0.90431 0.0
C1167 C 0.75364 0.20883 0.9184 0.0
C1168 C 0.75559 0.18183 0.94386 0.0
C1169 C 0.73031 0.16441 0.95129 0.0
C1170 C 0.73227 0.13921 0.97578 0.0
C1171 C 0.75945 0.13109 0.99277 0.0
C1172 C 0.78474 0.1481 0.98517 0.0
C1173 C 0.78288 0.17335 0.96073 0.0
H1174 H 0.76092 0.11157 0.01174 0.0
H1175 H 0.75258 0.36265 0.78579 0.0
H1176 H 0.77639 0.77191 0.45087 0.0
H1177 H 0.77416 0.7373 0.50706 0.0
H1178 H 0.73241 0.8043 0.58045 0.0
H1179 H 0.73438 0.83951 0.52356 0.0
H1180 H 0.77634 0.76624 0.62189 0.0
H1181 H 0.68866 0.75941 0.53886 0.0
H1182 H 0.66195 0.75498 0.47401 0.0
H1183 H 0.70326 0.67062 0.45204 0.0
H1184 H 0.73064 0.67479 0.51648 0.0
H1185 H 0.68271 0.6575 0.73487 0.0
H1186 H 0.68924 0.68648 0.67319 0.0
H1187 H 0.78122 0.66109 0.66975 0.0
H1188 H 0.7743 0.63101 0.73087 0.0
H1189 H 0.71153 0.67907 0.59388 0.0
H1190 H 0.81833 0.73248 0.65818 0.0
H1191 H 0.84386 0.74031 0.72337 0.0
H1192 H 0.76092 0.73393 0.78546 0.0
H1193 H 0.73479 0.72704 0.72061 0.0
C1194 C 0.76704 0.77955 0.4791 0.0
C1195 C 0.75504 0.8083 0.4826 0.0
C1196 C 0.76587 0.7597 0.5112 0.0
C1197 C 0.75269 0.76808 0.54757 0.0
C1198 C 0.74258 0.79745 0.55242 0.0
C1199 C 0.74373 0.81751 0.52001 0.0
C1200 C 0.74732 0.74517 0.57875 0.0
C1201 C 0.76224 0.74715 0.61583 0.0
C1202 C 0.72876 0.72037 0.57074 0.0
C1203 C 0.71189 0.71754 0.53234 0.0
C1204 C 0.69222 0.74001 0.52007 0.0
C1205 C 0.67694 0.73754 0.4834 0.0
C1206 C 0.68095 0.71257 0.45888 0.0
C1207 C 0.70019 0.68997 0.47105 0.0
C1208 C 0.71558 0.69236 0.50766 0.0
C1209 C 0.70386 0.65679 0.71961 0.0
C1210 C 0.72795 0.64193 0.73719 0.0
C1211 C 0.70766 0.67357 0.68465 0.0
C1212 C 0.73582 0.67636 0.66743 0.0
C1213 C 0.75936 0.65934 0.68283 0.0
C1214 C 0.75534 0.64194 0.71739 0.0
C1215 C 0.74097 0.6998 0.63688 0.0
C1216 C 0.72591 0.69796 0.59987 0.0
C1217 C 0.7592 0.72484 0.64518 0.0
C1218 C 0.77466 0.72879 0.6845 0.0
C1219 C 0.80553 0.73284 0.68573 0.0
C1220 C 0.82009 0.73728 0.72261 0.0
C1221 C 0.80401 0.73767 0.75851 0.0
C1222 C 0.77334 0.73364 0.75762 0.0
C1223 C 0.75864 0.72946 0.72079 0.0
H1224 H 0.81535 0.74094 0.78705 0.0
H1225 H 0.66912 0.7107 0.43048 0.0
H1226 H 0.80569 0.23146 0.51268 0.0
H1227 H 0.78013 0.2398 0.44884 0.0
H1228 H 0.83245 0.31888 0.42921 0.0
H1229 H 0.85902 0.30982 0.49334 0.0
H1230 H 0.76875 0.32668 0.42749 0.0
H1231 H 0.8416 0.26813 0.36379 0.0
H1232 H 0.87609 0.22612 0.3562 0.0
H1233 H 0.80287 0.16509 0.35146 0.0
H1234 H 0.76793 0.20664 0.35978 0.0
H1235 H 0.67393 0.32706 0.24749 0.0
H1236 H 0.71293 0.33388 0.29848 0.0
H1237 H 0.69696 0.2449 0.34215 0.0
H1238 H 0.65886 0.2378 0.29044 0.0
H1239 H 0.75295 0.25187 0.31926 0.0
H1240 H 0.68224 0.30862 0.39868 0.0
H1241 H 0.64729 0.34975 0.41045 0.0
H1242 H 0.71625 0.41332 0.38743 0.0
H1243 H 0.75153 0.37252 0.37505 0.0
C1244 C 0.81255 0.24991 0.49394 0.0
C1245 C 0.83453 0.26971 0.5072 0.0
C1246 C 0.79789 0.25477 0.45764 0.0
C1247 C 0.80455 0.27986 0.43434 0.0
C1248 C 0.82726 0.29927 0.44678 0.0
C1249 C 0.8425 0.294 0.483 0.0
C1250 C 0.78518 0.28669 0.39962 0.0
C1251 C 0.76575 0.31088 0.40299 0.0
C1252 C 0.78121 0.26577 0.36822 0.0
C1253 C 0.8021 0.2406 0.36248 0.0
C1254 C 0.83283 0.24575 0.36134 0.0
C1255 C 0.85248 0.222 0.35691 0.0
C1256 C 0.84168 0.19296 0.35336 0.0
C1257 C 0.8112 0.18761 0.35416 0.0
C1258 C 0.79146 0.21128 0.35866 0.0
C1259 C 0.67785 0.30957 0.2693 0.0
C1260 C 0.6634 0.28198 0.26549 0.0
C1261 C 0.70031 0.31336 0.29812 0.0
C1262 C 0.7081 0.28973 0.32369 0.0
C1263 C 0.69152 0.26328 0.32236 0.0
C1264 C 0.6695 0.25935 0.29328 0.0
C1265 C 0.73537 0.29082 0.34863 0.0
C1266 C 0.75636 0.26818 0.34303 0.0
C1267 C 0.74064 0.31308 0.37803 0.0
C1268 C 0.71941 0.33754 0.38542 0.0
C1269 C 0.68987 0.33137 0.39576 0.0
C1270 C 0.67002 0.35462 0.40263 0.0
C1271 C 0.67951 0.38413 0.39954 0.0
C1272 C 0.70891 0.39045 0.38972 0.0
C1273 C 0.72884 0.36728 0.38279 0.0
H1274 H 0.66411 0.4021 0.40488 0.0
H1275 H 0.85693 0.1746 0.34997 0.0
H1276 H 0.24514 0.35572 0.71483 0.0
H1277 H 0.24483 0.32469 0.65379 0.0
H1278 H 0.33144 0.29136 0.68465 0.0
H1279 H 0.33137 0.3217 0.74631 0.0
H1280 H 0.3163 0.30066 0.59391 0.0
H1281 H 0.2899 0.24787 0.71469 0.0
H1282 H 0.26475 0.24124 0.77994 0.0
H1283 H 0.18036 0.25295 0.72207 0.0
H1284 H 0.20527 0.26002 0.6563 0.0
H1285 H 0.30135 0.16301 0.48533 0.0
H1286 H 0.31106 0.19482 0.54462 0.0
H1287 H 0.22369 0.23249 0.53318 0.0
H1288 H 0.21435 0.20151 0.47353 0.0
H1289 H 0.24357 0.21925 0.61598 0.0
H1290 H 0.27434 0.26864 0.49207 0.0
H1291 H 0.30287 0.27123 0.42893 0.0
H1292 H 0.38401 0.26285 0.49603 0.0
H1293 H 0.35588 0.25969 0.55955 0.0
C1294 C 0.26466 0.34289 0.70745 0.0
C1295 C 0.28846 0.3413 0.73465 0.0
C1296 C 0.2644 0.32504 0.67285 0.0
C1297 C 0.2881 0.30576 0.66495 0.0
C1298 C 0.31311 0.30631 0.69013 0.0
C1299 C 0.31311 0.32369 0.72515 0.0
C1300 C 0.28453 0.28177 0.63475 0.0
C1301 C 0.30069 0.28268 0.59881 0.0
C1302 C 0.26438 0.25822 0.64147 0.0
C1303 C 0.24933 0.25456 0.68075 0.0
C1304 C 0.26599 0.24929 0.71595 0.0
C1305 C 0.25183 0.24538 0.75295 0.0
C1306 C 0.22098 0.24653 0.75505 0.0
C1307 C 0.20424 0.25191 0.72023 0.0
C1308 C 0.21835 0.25583 0.68312 0.0
C1309 C 0.28404 0.17751 0.49632 0.0
C1310 C 0.2571 0.17987 0.47531 0.0
C1311 C 0.28963 0.19574 0.52985 0.0
C1312 C 0.26813 0.21608 0.54295 0.0
C1313 C 0.24051 0.21692 0.52351 0.0
C1314 C 0.23519 0.19924 0.48959 0.0
C1315 C 0.27497 0.2383 0.57466 0.0
C1316 C 0.25935 0.2371 0.61103 0.0
C1317 C 0.2961 0.26117 0.56855 0.0
C1318 C 0.313 0.26358 0.53048 0.0
C1319 C 0.29825 0.26709 0.49332 0.0
C1320 C 0.31434 0.26871 0.45747 0.0
C1321 C 0.34523 0.26712 0.45845 0.0
C1322 C 0.36008 0.26402 0.49531 0.0
C1323 C 0.34408 0.26233 0.53124 0.0
H1324 H 0.35766 0.26835 0.43066 0.0
H1325 H 0.21007 0.24308 0.78364 0.0
H1326 H 0.34927 0.71489 0.26477 0.0
H1327 H 0.31837 0.71366 0.32552 0.0
H1328 H 0.2511 0.76442 0.26358 0.0
H1329 H 0.28191 0.76676 0.20419 0.0
H1330 H 0.25709 0.78574 0.33346 0.0
H1331 H 0.24562 0.68714 0.28102 0.0
H1332 H 0.2621 0.63814 0.25631 0.0
H1333 H 0.30249 0.62007 0.37123 0.0
H1334 H 0.28661 0.66916 0.39646 0.0
H1335 H 0.14119 0.75944 0.4778 0.0
H1336 H 0.16874 0.75708 0.41396 0.0
H1337 H 0.24509 0.72348 0.47777 0.0
H1338 H 0.21812 0.72594 0.54105 0.0
H1339 H 0.23261 0.69266 0.40607 0.0
H1340 H 0.24009 0.79445 0.45613 0.0
H1341 H 0.22179 0.84407 0.47564 0.0
H1342 H 0.18398 0.85557 0.35756 0.0
H1343 H 0.20138 0.80576 0.33765 0.0
C1344 C 0.3279 0.72575 0.26429 0.0
C1345 C 0.31811 0.74092 0.22971 0.0
C1346 C 0.31018 0.72491 0.29886 0.0
C1347 C 0.28222 0.73867 0.29895 0.0
C1348 C 0.27257 0.75372 0.26437 0.0
C1349 C 0.2903 0.75497 0.23031 0.0
C1350 C 0.26297 0.73819 0.33506 0.0
C1351 C 0.25135 0.76528 0.34889 0.0
C1352 C 0.25572 0.71157 0.35548 0.0
C1353 C 0.26518 0.68196 0.34049 0.0
C1354 C 0.25821 0.67281 0.30093 0.0
C1355 C 0.26741 0.64501 0.28684 0.0
C1356 C 0.2834 0.62604 0.31214 0.0
C1357 C 0.29014 0.63481 0.35164 0.0
C1358 C 0.28103 0.66261 0.36586 0.0
C1359 C 0.16375 0.75133 0.478 0.0
C1360 C 0.17757 0.74305 0.51436 0.0
C1361 C 0.17945 0.75008 0.44168 0.0
C1362 C 0.20895 0.74023 0.44137 0.0
C1363 C 0.22235 0.73112 0.47744 0.0
C1364 C 0.20692 0.73271 0.51358 0.0
C1365 C 0.2266 0.74015 0.40396 0.0
C1366 C 0.23807 0.71299 0.39015 0.0
C1367 C 0.23306 0.76664 0.38283 0.0
C1368 C 0.22169 0.79614 0.39558 0.0
C1369 C 0.22745 0.80733 0.43454 0.0
C1370 C 0.21732 0.83555 0.44562 0.0
C1371 C 0.20174 0.85293 0.41784 0.0
C1372 C 0.19601 0.84206 0.37906 0.0
C1373 C 0.20595 0.81382 0.3679 0.0
H1374 H 0.19427 0.87493 0.42619 0.0
H1375 H 0.2905 0.60453 0.30117 0.0
loop_
_geom_bond_atom_site_label_1
_geom_bond_atom_site_label_2
_geom_bond_distance
_geom_bond_site_symmetry_2
_ccdc_geom_bond_type
Fe0 O2 1.918 . S
Fe0 O5 1.997 . S
Fe0 O6 2.002 . S
Fe0 O11 1.976 . S
Fe0 O14 1.996 . S
Fe1 O2 1.918 . S
Fe1 O9 1.997 . S
Fe1 O12 1.996 . S
Fe1 O16 1.976 . S
Fe1 O19 2.002 . S
O2 Fe0 1.918 . S
O2 Fe1 1.918 . S
O2 Fe3 1.918 . S
Fe3 O2 1.918 . S
Fe3 O4 2.002 . S
Fe3 O13 1.976 . S
Fe3 O17 1.996 . S
Fe3 O20 1.997 . S
O4 Fe3 2.002 . S
O4 C21 1.295 . S
O5 Fe0 1.997 . S
O5 C21 1.235 . S
O6 Fe0 2.002 . S
O6 C7 1.295 . S
C7 O6 1.295 . S
C7 O9 1.235 . S
C8 O13 1.287 . S
C8 O14 1.255 . S
O9 Fe1 1.997 . S
O9 C7 1.235 . S
C10 O16 1.287 . S
C10 O17 1.255 . S
O11 Fe0 1.976 . S
O11 C18 1.287 . S
O12 Fe1 1.996 . S
O12 C18 1.255 . S
O13 Fe3 1.976 . S
O13 C8 1.287 . S
O14 Fe0 1.996 . S
O14 C8 1.255 . S
C15 O19 1.295 . S
C15 O20 1.235 . S
O16 Fe1 1.976 . S
O16 C10 1.287 . S
O17 Fe3 1.996 . S
O17 C10 1.255 . S
C18 O11 1.287 . S
C18 O12 1.255 . S
O19 Fe1 2.002 . S
O19 C15 1.295 . S
O20 Fe3 1.997 . S
O20 C15 1.235 . S
C21 O4 1.295 . S
C21 O5 1.235 . S
Fe22 O24 1.918 . S
Fe22 O27 1.997 . S
Fe22 O28 2.002 . S
Fe22 O33 1.976 . S
Fe22 O36 1.996 . S
Fe23 O24 1.918 . S
Fe23 O31 1.997 . S
Fe23 O34 1.996 . S
Fe23 O38 1.976 . S
Fe23 O41 2.002 . S
O24 Fe22 1.918 . S
O24 Fe23 1.918 . S
O24 Fe25 1.918 . S
Fe25 O24 1.918 . S
Fe25 O26 2.002 . S
Fe25 O35 1.976 . S
Fe25 O39 1.996 . S
Fe25 O42 1.997 . S
O26 Fe25 2.002 . S
O26 C43 1.295 . S
O27 Fe22 1.997 . S
O27 C43 1.235 . S
O28 Fe22 2.002 . S
O28 C29 1.295 . S
C29 O28 1.295 . S
C29 O31 1.235 . S
C30 O35 1.287 . S
C30 O36 1.255 . S
O31 Fe23 1.997 . S
O31 C29 1.235 . S
C32 O38 1.287 . S
C32 O39 1.255 . S
O33 Fe22 1.976 . S
O33 C40 1.287 . S
O34 Fe23 1.996 . S
O34 C40 1.255 . S
O35 Fe25 1.976 . S
O35 C30 1.287 . S
O36 Fe22 1.996 . S
O36 C30 1.255 . S
C37 O41 1.295 . S
C37 O42 1.235 . S
O38 Fe23 1.976 . S
O38 C32 1.287 . S
O39 Fe25 1.996 . S
O39 C32 1.255 . S
C40 O33 1.287 . S
C40 O34 1.255 . S
O41 Fe23 2.002 . S
O41 C37 1.295 . S
O42 Fe25 1.997 . S
O42 C37 1.235 . S
C43 O26 1.295 . S
C43 O27 1.235 . S
Fe44 O46 1.918 . S
Fe44 O49 1.997 . S
Fe44 O50 2.002 . S
Fe44 O55 1.976 . S
Fe44 O58 1.996 . S
Fe45 O46 1.918 . S
Fe45 O53 1.997 . S
Fe45 O56 1.996 . S
Fe45 O60 1.976 . S
Fe45 O63 2.002 . S
O46 Fe44 1.918 . S
O46 Fe45 1.918 . S
O46 Fe47 1.918 . S
Fe47 O46 1.918 . S
Fe47 O48 2.002 . S
Fe47 O57 1.976 . S
Fe47 O61 1.996 . S
Fe47 O64 1.997 . S
O48 Fe47 2.002 . S
O48 C65 1.295 . S
O49 Fe44 1.997 . S
O49 C65 1.235 . S
O50 Fe44 2.002 . S
O50 C51 1.295 . S
C51 O50 1.295 . S
C51 O53 1.235 . S
C52 O57 1.287 . S
C52 O58 1.255 . S
O53 Fe45 1.997 . S
O53 C51 1.235 . S
C54 O60 1.287 . S
C54 O61 1.255 . S
O55 Fe44 1.976 . S
O55 C62 1.287 . S
O56 Fe45 1.996 . S
O56 C62 1.255 . S
O57 Fe47 1.976 . S
O57 C52 1.287 . S
O58 Fe44 1.996 . S
O58 C52 1.255 . S
C59 O63 1.295 . S
C59 O64 1.235 . S
O60 Fe45 1.976 . S
O60 C54 1.287 . S
O61 Fe47 1.996 . S
O61 C54 1.255 . S
C62 O55 1.287 . S
C62 O56 1.255 . S
O63 Fe45 2.002 . S
O63 C59 1.295 . S
O64 Fe47 1.997 . S
O64 C59 1.235 . S
C65 O48 1.295 . S
C65 O49 1.235 . S
Fe66 O68 1.918 . S
Fe66 O71 1.997 . S
Fe66 O72 2.002 . S
Fe66 O77 1.976 . S
Fe66 O80 1.996 . S
Fe67 O68 1.918 . S
Fe67 O75 1.997 . S
Fe67 O78 1.996 . S
Fe67 O82 1.976 . S
Fe67 O85 2.002 . S
O68 Fe66 1.918 . S
O68 Fe67 1.918 . S
O68 Fe69 1.918 . S
Fe69 O68 1.918 . S
Fe69 O70 2.002 . S
Fe69 O79 1.976 . S
Fe69 O83 1.996 . S
Fe69 O86 1.997 . S
O70 Fe69 2.002 . S
O70 C87 1.295 . S
O71 Fe66 1.997 . S
O71 C87 1.235 . S
O72 Fe66 2.002 . S
O72 C73 1.295 . S
C73 O72 1.295 . S
C73 O75 1.235 . S
C74 O79 1.287 . S
C74 O80 1.255 . S
O75 Fe67 1.997 . S
O75 C73 1.235 . S
C76 O82 1.287 . S
C76 O83 1.255 . S
O77 Fe66 1.976 . S
O77 C84 1.287 . S
O78 Fe67 1.996 . S
O78 C84 1.255 . S
O79 Fe69 1.976 . S
O79 C74 1.287 . S
O80 Fe66 1.996 . S
O80 C74 1.255 . S
C81 O85 1.295 . S
C81 O86 1.235 . S
O82 Fe67 1.976 . S
O82 C76 1.287 . S
O83 Fe69 1.996 . S
O83 C76 1.255 . S
C84 O77 1.287 . S
C84 O78 1.255 . S
O85 Fe67 2.002 . S
O85 C81 1.295 . S
O86 Fe69 1.997 . S
O86 C81 1.235 . S
C87 O70 1.295 . S
C87 O71 1.235 . S
Fe88 O90 1.918 . S
Fe88 O93 1.997 . S
Fe88 O94 2.002 . S
Fe88 O99 1.976 . S
Fe88 O102 1.996 . S
Fe89 O90 1.918 . S
Fe89 O97 1.997 . S
Fe89 O100 1.996 . S
Fe89 O104 1.976 . S
Fe89 O107 2.002 . S
O90 Fe88 1.918 . S
O90 Fe89 1.918 . S
O90 Fe91 1.918 . S
Fe91 O90 1.918 . S
Fe91 O92 2.002 . S
Fe91 O101 1.976 . S
Fe91 O105 1.996 . S
Fe91 O108 1.997 . S
O92 Fe91 2.002 . S
O92 C109 1.295 . S
O93 Fe88 1.997 . S
O93 C109 1.235 . S
O94 Fe88 2.002 . S
O94 C95 1.295 . S
C95 O94 1.295 . S
C95 O97 1.235 . S
C96 O101 1.287 . S
C96 O102 1.255 . S
O97 Fe89 1.997 . S
O97 C95 1.235 . S
C98 O104 1.287 . S
C98 O105 1.255 . S
O99 Fe88 1.976 . S
O99 C106 1.287 . S
O100 Fe89 1.996 . S
O100 C106 1.255 . S
O101 Fe91 1.976 . S
O101 C96 1.287 . S
O102 Fe88 1.996 . S
O102 C96 1.255 . S
C103 O107 1.295 . S
C103 O108 1.235 . S
O104 Fe89 1.976 . S
O104 C98 1.287 . S
O105 Fe91 1.996 . S
O105 C98 1.255 . S
C106 O99 1.287 . S
C106 O100 1.255 . S
O107 Fe89 2.002 . S
O107 C103 1.295 . S
O108 Fe91 1.997 . S
O108 C103 1.235 . S
C109 O92 1.295 . S
C109 O93 1.235 . S
Fe110 O112 1.918 . S
Fe110 O115 1.997 . S
Fe110 O116 2.002 . S
Fe110 O121 1.976 . S
Fe110 O124 1.996 . S
Fe111 O112 1.918 . S
Fe111 O119 1.997 . S
Fe111 O122 1.996 . S
Fe111 O126 1.976 . S
Fe111 O129 2.002 . S
O112 Fe110 1.918 . S
O112 Fe111 1.918 . S
O112 Fe113 1.918 . S
Fe113 O112 1.918 . S
Fe113 O114 2.002 . S
Fe113 O123 1.976 . S
Fe113 O127 1.996 . S
Fe113 O130 1.997 . S
O114 Fe113 2.002 . S
O114 C131 1.295 . S
O115 Fe110 1.997 . S
O115 C131 1.235 . S
O116 Fe110 2.002 . S
O116 C117 1.295 . S
C117 O116 1.295 . S
C117 O119 1.235 . S
C118 O123 1.287 . S
C118 O124 1.255 . S
O119 Fe111 1.997 . S
O119 C117 1.235 . S
C120 O126 1.287 . S
C120 O127 1.255 . S
O121 Fe110 1.976 . S
O121 C128 1.287 . S
O122 Fe111 1.996 . S
O122 C128 1.255 . S
O123 Fe113 1.976 . S
O123 C118 1.287 . S
O124 Fe110 1.996 . S
O124 C118 1.255 . S
C125 O129 1.295 . S
C125 O130 1.235 . S
O126 Fe111 1.976 . S
O126 C120 1.287 . S
O127 Fe113 1.996 . S
O127 C120 1.255 . S
C128 O121 1.287 . S
C128 O122 1.255 . S
O129 Fe111 2.002 . S
O129 C125 1.295 . S
O130 Fe113 1.997 . S
O130 C125 1.235 . S
C131 O114 1.295 . S
C131 O115 1.235 . S
Fe132 O134 1.918 . S
Fe132 O137 1.997 . S
Fe132 O138 2.002 . S
Fe132 O143 1.976 . S
Fe132 O146 1.996 . S
Fe133 O134 1.918 . S
Fe133 O141 1.997 . S
Fe133 O144 1.996 . S
Fe133 O148 1.976 . S
Fe133 O151 2.002 . S
O134 Fe132 1.918 . S
O134 Fe133 1.918 . S
O134 Fe135 1.918 . S
Fe135 O134 1.918 . S
Fe135 O136 2.002 . S
Fe135 O145 1.976 . S
Fe135 O149 1.996 . S
Fe135 O152 1.997 . S
O136 Fe135 2.002 . S
O136 C153 1.295 . S
O137 Fe132 1.997 . S
O137 C153 1.235 . S
O138 Fe132 2.002 . S
O138 C139 1.295 . S
C139 O138 1.295 . S
C139 O141 1.235 . S
C140 O145 1.287 . S
C140 O146 1.255 . S
O141 Fe133 1.997 . S
O141 C139 1.235 . S
C142 O148 1.287 . S
C142 O149 1.255 . S
O143 Fe132 1.976 . S
O143 C150 1.287 . S
O144 Fe133 1.996 . S
O144 C150 1.255 . S
O145 Fe135 1.976 . S
O145 C140 1.287 . S
O146 Fe132 1.996 . S
O146 C140 1.255 . S
C147 O151 1.295 . S
C147 O152 1.235 . S
O148 Fe133 1.976 . S
O148 C142 1.287 . S
O149 Fe135 1.996 . S
O149 C142 1.255 . S
C150 O143 1.287 . S
C150 O144 1.255 . S
O151 Fe133 2.002 . S
O151 C147 1.295 . S
O152 Fe135 1.997 . S
O152 C147 1.235 . S
C153 O136 1.295 . S
C153 O137 1.235 . S
Fe154 O156 1.918 . S
Fe154 O159 1.997 . S
Fe154 O160 2.002 . S
Fe154 O165 1.976 . S
Fe154 O168 1.996 . S
Fe155 O156 1.918 . S
Fe155 O163 1.997 . S
Fe155 O166 1.996 . S
Fe155 O170 1.976 . S
Fe155 O173 2.002 . S
O156 Fe154 1.918 . S
O156 Fe155 1.918 . S
O156 Fe157 1.918 . S
Fe157 O156 1.918 . S
Fe157 O158 2.002 . S
Fe157 O167 1.976 . S
Fe157 O171 1.996 . S
Fe157 O174 1.997 . S
O158 Fe157 2.002 . S
O158 C175 1.295 . S
O159 Fe154 1.997 . S
O159 C175 1.235 . S
O160 Fe154 2.002 . S
O160 C161 1.295 . S
C161 O160 1.295 . S
C161 O163 1.235 . S
C162 O167 1.287 . S
C162 O168 1.255 . S
O163 Fe155 1.997 . S
O163 C161 1.235 . S
C164 O170 1.287 . S
C164 O171 1.255 . S
O165 Fe154 1.976 . S
O165 C172 1.287 . S
O166 Fe155 1.996 . S
O166 C172 1.255 . S
O167 Fe157 1.976 . S
O167 C162 1.287 . S
O168 Fe154 1.996 . S
O168 C162 1.255 . S
C169 O173 1.295 . S
C169 O174 1.235 . S
O170 Fe155 1.976 . S
O170 C164 1.287 . S
O171 Fe157 1.996 . S
O171 C164 1.255 . S
C172 O165 1.287 . S
C172 O166 1.255 . S
O173 Fe155 2.002 . S
O173 C169 1.295 . S
O174 Fe157 1.997 . S
O174 C169 1.235 . S
C175 O158 1.295 . S
C175 O159 1.235 . S
H176 C194 0.951 . S
H177 C196 0.951 . S
H178 C198 0.950 1_565 S
H179 C199 0.950 . S
H180 C201 0.950 . S
H181 C204 0.950 . S
H182 C205 0.950 . S
H183 C207 0.950 . S
H184 C208 0.950 1_565 S
H185 C209 0.951 . S
H186 C211 0.951 . S
H187 C213 0.950 . S
H188 C214 0.950 . S
H189 C216 0.950 . S
H190 C219 0.950 . S
H191 C220 0.950 . S
H192 C222 0.950 . S
H193 C223 0.950 . S
C194 H176 0.951 . S
C194 C195 1.366 . S
C194 C196 1.388 . S
C195 C194 1.366 . S
C195 C199 1.385 . S
C196 H177 0.951 . S
C196 C194 1.388 . S
C196 C197 1.366 . S
C197 C196 1.366 . S
C197 C198 1.414 . S
C197 C200 1.499 1_545 S
C198 H178 0.950 1_545 S
C198 C197 1.414 . S
C198 C199 1.374 . S
C199 H179 0.950 . S
C199 C195 1.385 . S
C199 C198 1.374 . S
C200 C197 1.499 1_565 S
C200 C201 1.373 . S
C200 C202 1.389 . S
C201 H180 0.950 . S
C201 C200 1.373 . S
C201 C217 1.377 . S
C202 C200 1.389 . S
C202 C203 1.524 1_565 S
C202 C216 1.377 . S
C203 C202 1.524 1_545 S
C203 C204 1.397 . S
C203 C208 1.363 . S
C204 H181 0.950 . S
C204 C203 1.397 . S
C204 C205 1.334 . S
C205 H182 0.950 . S
C205 C204 1.334 . S
C205 C206 1.287 . S
C206 C205 1.287 . S
C206 C207 1.524 . S
C206 H225 0.913 . S
C207 H183 0.950 . S
C207 C206 1.524 . S
C207 C208 1.415 . S
C208 H184 0.950 1_545 S
C208 C203 1.363 . S
C208 C207 1.415 . S
C209 H185 0.951 . S
C209 C210 1.366 . S
C209 C211 1.388 . S
C210 C209 1.366 . S
C210 C214 1.385 . S
C211 H186 0.951 . S
C211 C209 1.388 . S
C211 C212 1.366 . S
C212 C211 1.366 . S
C212 C213 1.414 . S
C212 C215 1.499 . S
C213 H187 0.950 . S
C213 C212 1.414 . S
C213 C214 1.374 . S
C214 H188 0.950 . S
C214 C210 1.385 . S
C214 C213 1.374 . S
C215 C212 1.499 . S
C215 C216 1.373 . S
C215 C217 1.389 . S
C216 H189 0.950 . S
C216 C202 1.377 . S
C216 C215 1.373 . S
C217 C201 1.377 . S
C217 C215 1.389 . S
C217 C218 1.524 . S
C218 C217 1.524 . S
C218 C219 1.397 . S
C218 C223 1.363 . S
C219 H190 0.950 . S
C219 C218 1.397 . S
C219 C220 1.334 . S
C220 H191 0.950 . S
C220 C219 1.334 . S
C220 C221 1.287 . S
C221 C220 1.287 . S
C221 C222 1.524 . S
C221 H224 0.999 . S
C222 H192 0.950 . S
C222 C221 1.524 . S
C222 C223 1.415 . S
C223 H193 0.950 . S
C223 C218 1.363 . S
C223 C222 1.415 . S
H224 C221 0.999 . S
H225 C206 0.913 . S
H226 C244 0.951 . S
H227 C246 0.951 1_655 S
H228 C248 0.950 . S
H229 C249 0.950 . S
H230 C251 0.950 . S
H231 C254 0.950 . S
H232 C255 0.950 . S
H233 C257 0.950 . S
H234 C258 0.950 . S
H235 C259 0.951 . S
H236 C261 0.951 . S
H237 C263 0.950 . S
H238 C264 0.950 . S
H239 C266 0.950 . S
H240 C269 0.950 . S
H241 C270 0.950 . S
H242 C272 0.950 . S
H243 C273 0.950 . S
C244 H226 0.951 . S
C244 C245 1.366 . S
C244 C246 1.388 . S
C245 C244 1.366 . S
C245 C249 1.385 . S
C246 H227 0.951 1_455 S
C246 C244 1.388 . S
C246 C247 1.366 . S
C247 C246 1.366 . S
C247 C248 1.414 . S
C247 C250 1.499 1_455 S
C248 H228 0.950 . S
C248 C247 1.414 . S
C248 C249 1.374 . S
C249 H229 0.950 . S
C249 C245 1.385 . S
C249 C248 1.374 . S
C250 C247 1.499 1_655 S
C250 C251 1.373 . S
C250 C252 1.389 . S
C251 H230 0.950 . S
C251 C250 1.373 . S
C251 C267 1.377 . S
C252 C250 1.389 . S
C252 C253 1.524 . S
C252 C266 1.377 . S
C253 C252 1.524 . S
C253 C254 1.397 . S
C253 C258 1.363 . S
C254 H231 0.950 . S
C254 C253 1.397 . S
C254 C255 1.334 . S
C255 H232 0.950 . S
C255 C254 1.334 . S
C255 C256 1.287 . S
C256 C255 1.287 . S
C256 C257 1.524 . S
C256 H275 0.913 . S
C257 H233 0.950 . S
C257 C256 1.524 . S
C257 C258 1.415 . S
C258 H234 0.950 . S
C258 C253 1.363 . S
C258 C257 1.415 . S
C259 H235 0.951 . S
C259 C260 1.366 . S
C259 C261 1.388 . S
C260 C259 1.366 . S
C260 C264 1.385 . S
C261 H236 0.951 . S
C261 C259 1.388 . S
C261 C262 1.366 . S
C262 C261 1.366 . S
C262 C263 1.414 . S
C262 C265 1.499 . S
C263 H237 0.950 . S
C263 C262 1.414 . S
C263 C264 1.374 . S
C264 H238 0.950 . S
C264 C260 1.385 . S
C264 C263 1.374 . S
C265 C262 1.499 . S
C265 C266 1.373 . S
C265 C267 1.389 . S
C266 H239 0.950 . S
C266 C252 1.377 . S
C266 C265 1.373 . S
C267 C251 1.377 . S
C267 C265 1.389 . S
C267 C268 1.524 . S
C268 C267 1.524 . S
C268 C269 1.397 . S
C268 C273 1.363 . S
C269 H240 0.950 . S
C269 C268 1.397 . S
C269 C270 1.334 . S
C270 H241 0.950 . S
C270 C269 1.334 . S
C270 C271 1.287 . S
C271 C270 1.287 . S
C271 C272 1.524 . S
C271 H274 0.999 . S
C272 H242 0.950 . S
C272 C271 1.524 . S
C272 C273 1.415 . S
C273 H243 0.950 . S
C273 C268 1.363 . S
C273 C272 1.415 . S
H274 C271 0.999 . S
H275 C256 0.913 . S
H276 C294 0.951 . S
H277 C296 0.951 1_545 S
H278 C298 0.950 . S
H279 C299 0.950 . S
H280 C301 0.950 . S
H281 C304 0.950 1_565 S
H282 C305 0.950 . S
H283 C307 0.950 . S
H284 C308 0.950 . S
H285 C309 0.951 . S
H286 C311 0.951 . S
H287 C313 0.950 . S
H288 C314 0.950 . S
H289 C316 0.950 . S
H290 C319 0.950 . S
H291 C320 0.950 . S
H292 C322 0.950 . S
H293 C323 0.950 . S
C294 H276 0.951 . S
C294 C295 1.366 . S
C294 C296 1.388 . S
C295 C294 1.366 . S
C295 C299 1.385 . S
C296 H277 0.951 1_565 S
C296 C294 1.388 . S
C296 C297 1.366 . S
C297 C296 1.366 . S
C297 C298 1.414 . S
C297 C300 1.499 1_565 S
C298 H278 0.950 . S
C298 C297 1.414 . S
C298 C299 1.374 . S
C299 H279 0.950 . S
C299 C295 1.385 . S
C299 C298 1.374 . S
C300 C297 1.499 1_545 S
C300 C301 1.373 . S
C300 C302 1.389 . S
C301 H280 0.950 . S
C301 C300 1.373 . S
C301 C317 1.377 . S
C302 C300 1.389 . S
C302 C303 1.524 . S
C302 C316 1.377 . S
C303 C302 1.524 . S
C303 C304 1.397 . S
C303 C308 1.363 . S
C304 H281 0.950 1_545 S
C304 C303 1.397 . S
C304 C305 1.334 1_545 S
C305 H282 0.950 . S
C305 C304 1.334 1_565 S
C305 C306 1.287 1_565 S
C306 C305 1.287 1_545 S
C306 C307 1.524 . S
C306 H325 0.913 . S
C307 H283 0.950 . S
C307 C306 1.524 . S
C307 C308 1.415 . S
C308 H284 0.950 . S
C308 C303 1.363 . S
C308 C307 1.415 . S
C309 H285 0.951 . S
C309 C310 1.366 . S
C309 C311 1.388 . S
C310 C309 1.366 . S
C310 C314 1.385 . S
C311 H286 0.951 . S
C311 C309 1.388 . S
C311 C312 1.366 . S
C312 C311 1.366 . S
C312 C313 1.414 . S
C312 C315 1.499 . S
C313 H287 0.950 . S
C313 C312 1.414 . S
C313 C314 1.374 . S
C314 H288 0.950 . S
C314 C310 1.385 . S
C314 C313 1.374 . S
C315 C312 1.499 . S
C315 C316 1.373 . S
C315 C317 1.389 . S
C316 H289 0.950 . S
C316 C302 1.377 . S
C316 C315 1.373 . S
C317 C301 1.377 . S
C317 C315 1.389 . S
C317 C318 1.524 . S
C318 C317 1.524 . S
C318 C319 1.397 . S
C318 C323 1.363 . S
C319 H290 0.950 . S
C319 C318 1.397 . S
C319 C320 1.334 . S
C320 H291 0.950 . S
C320 C319 1.334 . S
C320 C321 1.287 . S
C321 C320 1.287 . S
C321 C322 1.524 . S
C321 H324 0.999 . S
C322 H292 0.950 . S
C322 C321 1.524 . S
C322 C323 1.415 . S
C323 H293 0.950 . S
C323 C318 1.363 . S
C323 C322 1.415 . S
H324 C321 0.999 . S
H325 C306 0.913 . S
H326 C344 0.951 . S
H327 C346 0.951 . S
H328 C348 0.950 . S
H329 C349 0.950 . S
H330 C351 0.950 . S
H331 C354 0.950 . S
H332 C355 0.950 . S
H333 C357 0.950 . S
H334 C358 0.950 . S
H335 C359 0.951 . S
H336 C361 0.951 . S
H337 C363 0.950 . S
H338 C364 0.950 . S
H339 C366 0.950 . S
H340 C369 0.950 . S
H341 C370 0.950 . S
H342 C372 0.950 . S
H343 C373 0.950 . S
C344 H326 0.951 . S
C344 C345 1.366 . S
C344 C346 1.388 . S
C345 C344 1.366 . S
C345 C349 1.385 . S
C346 H327 0.951 . S
C346 C344 1.388 . S
C346 C347 1.366 . S
C347 C346 1.366 . S
C347 C348 1.414 . S
C347 C350 1.499 . S
C348 H328 0.950 . S
C348 C347 1.414 . S
C348 C349 1.374 . S
C349 H329 0.950 . S
C349 C345 1.385 . S
C349 C348 1.374 . S
C350 C347 1.499 . S
C350 C351 1.373 . S
C350 C352 1.389 . S
C351 H330 0.950 . S
C351 C350 1.373 . S
C351 C367 1.377 . S
C352 C350 1.389 . S
C352 C353 1.524 . S
C352 C366 1.377 . S
C353 C352 1.524 . S
C353 C354 1.397 . S
C353 C358 1.363 . S
C354 H331 0.950 . S
C354 C353 1.397 . S
C354 C355 1.334 . S
C355 H332 0.950 . S
C355 C354 1.334 . S
C355 C356 1.287 . S
C356 C355 1.287 . S
C356 C357 1.524 . S
C356 H375 0.913 . S
C357 H333 0.950 . S
C357 C356 1.524 . S
C357 C358 1.415 . S
C358 H334 0.950 . S
C358 C353 1.363 . S
C358 C357 1.415 . S
C359 H335 0.951 . S
C359 C360 1.366 . S
C359 C361 1.388 . S
C360 C359 1.366 . S
C360 C364 1.385 . S
C361 H336 0.951 . S
C361 C359 1.388 . S
C361 C362 1.366 1_655 S
C362 C361 1.366 1_455 S
C362 C363 1.414 1_455 S
C362 C365 1.499 . S
C363 H337 0.950 . S
C363 C362 1.414 1_655 S
C363 C364 1.374 . S
C364 H338 0.950 . S
C364 C360 1.385 . S
C364 C363 1.374 . S
C365 C362 1.499 . S
C365 C366 1.373 . S
C365 C367 1.389 . S
C366 H339 0.950 . S
C366 C352 1.377 . S
C366 C365 1.373 . S
C367 C351 1.377 . S
C367 C365 1.389 . S
C367 C368 1.524 . S
C368 C367 1.524 . S
C368 C369 1.397 1_455 S
C368 C373 1.363 . S
C369 H340 0.950 . S
C369 C368 1.397 1_655 S
C369 C370 1.334 . S
C370 H341 0.950 . S
C370 C369 1.334 . S
C370 C371 1.287 . S
C371 C370 1.287 . S
C371 C372 1.524 . S
C371 H374 0.999 . S
C372 H342 0.950 . S
C372 C371 1.524 . S
C372 C373 1.415 1_655 S
C373 H343 0.950 . S
C373 C368 1.363 . S
C373 C372 1.415 1_455 S
H374 C371 0.999 . S
H375 C356 0.913 . S
H376 C394 0.951 . S
H377 C396 0.951 . S
H378 C398 0.950 . S
H379 C399 0.950 . S
H380 C401 0.946 1_556 S
H381 C404 0.950 . S
H382 C405 0.950 . S
H383 C407 0.950 . S
H384 C408 0.950 . S
H385 C409 0.951 . S
H386 C411 0.951 . S
H387 C413 0.950 1_554 S
H388 C414 0.950 . S
H389 C416 0.950 . S
H390 C419 0.950 . S
H391 C420 0.950 . S
H392 C422 0.950 . S
H393 C423 0.950 . S
C394 H376 0.951 . S
C394 C395 1.366 . S
C394 C396 1.388 . S
C395 C394 1.366 . S
C395 C399 1.385 . S
C396 H377 0.951 . S
C396 C394 1.388 . S
C396 C397 1.366 . S
C397 C396 1.366 . S
C397 C398 1.414 . S
C397 C400 1.499 . S
C398 H378 0.950 . S
C398 C397 1.414 . S
C398 C399 1.374 . S
C399 H379 0.950 . S
C399 C395 1.385 . S
C399 C398 1.374 . S
C400 C397 1.499 . S
C400 C401 1.382 . S
C400 C402 1.389 . S
C401 H380 0.946 1_554 S
C401 C400 1.382 . S
C401 C417 1.373 1_554 S
C402 C400 1.389 . S
C402 C403 1.524 . S
C402 C416 1.377 . S
C403 C402 1.524 . S
C403 C404 1.397 . S
C403 C408 1.363 . S
C404 H381 0.950 . S
C404 C403 1.397 . S
C404 C405 1.334 . S
C405 H382 0.950 . S
C405 C404 1.334 . S
C405 C406 1.287 . S
C406 C405 1.287 . S
C406 C407 1.524 . S
C406 H425 0.913 . S
C407 H383 0.950 . S
C407 C406 1.524 . S
C407 C408 1.415 . S
C408 H384 0.950 . S
C408 C403 1.363 . S
C408 C407 1.415 . S
C409 H385 0.951 . S
C409 C410 1.366 . S
C409 C411 1.388 . S
C410 C409 1.366 . S
C410 C414 1.385 . S
C411 H386 0.951 . S
C411 C409 1.388 . S
C411 C412 1.366 . S
C412 C411 1.366 . S
C412 C413 1.414 . S
C412 C415 1.499 1_556 S
C413 H387 0.950 1_556 S
C413 C412 1.414 . S
C413 C414 1.374 . S
C414 H388 0.950 . S
C414 C410 1.385 . S
C414 C413 1.374 . S
C415 C412 1.499 1_554 S
C415 C416 1.373 . S
C415 C417 1.389 1_554 S
C416 H389 0.950 . S
C416 C402 1.377 . S
C416 C415 1.373 . S
C417 C401 1.373 1_556 S
C417 C415 1.389 1_556 S
C417 C418 1.524 . S
C418 C417 1.524 . S
C418 C419 1.397 . S
C418 C423 1.363 . S
C419 H390 0.950 . S
C419 C418 1.397 . S
C419 C420 1.334 . S
C420 H391 0.950 . S
C420 C419 1.334 . S
C420 C421 1.287 . S
C421 C420 1.287 . S
C421 C422 1.524 . S
C421 H424 0.999 . S
C422 H392 0.950 . S
C422 C421 1.524 . S
C422 C423 1.415 . S
C423 H393 0.950 . S
C423 C418 1.363 . S
C423 C422 1.415 . S
H424 C421 0.999 . S
H425 C406 0.913 . S
H426 C444 0.951 . S
H427 C446 0.951 . S
H428 C448 0.950 . S
H429 C449 0.950 . S
H430 C451 0.950 . S
H431 C454 0.950 . S
H432 C455 0.950 . S
H433 C457 0.950 . S
H434 C458 0.950 . S
H435 C459 0.951 . S
H436 C461 0.951 1_556 S
H437 C463 0.950 . S
H438 C464 0.950 . S
H439 C466 0.950 . S
H440 C469 0.950 . S
H441 C470 0.950 . S
H442 C472 0.950 . S
H443 C473 0.950 . S
C444 H426 0.951 . S
C444 C445 1.366 . S
C444 C446 1.388 . S
C445 C444 1.366 . S
C445 C449 1.385 . S
C446 H427 0.951 . S
C446 C444 1.388 . S
C446 C447 1.366 . S
C447 C446 1.366 . S
C447 C448 1.414 . S
C447 C450 1.499 . S
C448 H428 0.950 . S
C448 C447 1.414 . S
C448 C449 1.374 . S
C449 H429 0.950 . S
C449 C445 1.385 . S
C449 C448 1.374 . S
C450 C447 1.499 . S
C450 C451 1.373 . S
C450 C452 1.389 1_556 S
C451 H430 0.950 . S
C451 C450 1.373 . S
C451 C467 1.377 . S
C452 C450 1.389 1_554 S
C452 C453 1.524 . S
C452 C466 1.377 . S
C453 C452 1.524 . S
C453 C454 1.397 . S
C453 C458 1.363 . S
C454 H431 0.950 . S
C454 C453 1.397 . S
C454 C455 1.334 . S
C455 H432 0.950 . S
C455 C454 1.334 . S
C455 C456 1.287 . S
C456 C455 1.287 . S
C456 C457 1.524 . S
C456 H475 0.913 . S
C457 H433 0.950 . S
C457 C456 1.524 . S
C457 C458 1.415 . S
C458 H434 0.950 . S
C458 C453 1.363 . S
C458 C457 1.415 . S
C459 H435 0.951 . S
C459 C460 1.366 . S
C459 C461 1.388 . S
C460 C459 1.366 . S
C460 C464 1.385 . S
C461 H436 0.951 1_554 S
C461 C459 1.388 . S
C461 C462 1.366 . S
C462 C461 1.366 . S
C462 C463 1.414 . S
C462 C465 1.499 1_554 S
C463 H437 0.950 . S
C463 C462 1.414 . S
C463 C464 1.374 . S
C464 H438 0.950 . S
C464 C460 1.385 . S
C464 C463 1.374 . S
C465 C462 1.499 1_556 S
C465 C466 1.373 1_556 S
C465 C467 1.389 . S
C466 H439 0.950 . S
C466 C452 1.377 . S
C466 C465 1.373 1_554 S
C467 C451 1.377 . S
C467 C465 1.389 . S
C467 C468 1.524 . S
C468 C467 1.524 . S
C468 C469 1.397 . S
C468 C473 1.363 . S
C469 H440 0.950 . S
C469 C468 1.397 . S
C469 C470 1.334 . S
C470 H441 0.950 . S
C470 C469 1.334 . S
C470 C471 1.287 . S
C471 C470 1.287 . S
C471 C472 1.524 . S
C471 H474 0.999 . S
C472 H442 0.950 . S
C472 C471 1.524 . S
C472 C473 1.415 . S
C473 H443 0.950 . S
C473 C468 1.363 . S
C473 C472 1.415 . S
H474 C471 0.999 . S
H475 C456 0.913 . S
H476 C494 0.951 . S
H477 C496 0.951 . S
H478 C498 0.950 . S
H479 C499 0.950 . S
H480 C501 0.950 . S
H481 C504 0.933 1_554 S
H482 C505 0.950 . S
H483 C507 0.950 . S
H484 C508 0.950 . S
H485 C509 0.951 . S
H486 C511 0.951 1_554 S
H487 C513 0.950 . S
H488 C514 0.950 . S
H489 C516 0.950 . S
H490 C519 0.950 . S
H491 C520 0.950 . S
H492 C522 0.950 . S
H493 C523 0.950 . S
C494 H476 0.951 . S
C494 C495 1.366 . S
C494 C496 1.388 . S
C495 C494 1.366 . S
C495 C499 1.385 . S
C496 H477 0.951 . S
C496 C494 1.388 . S
C496 C497 1.366 . S
C497 C496 1.366 . S
C497 C498 1.414 . S
C497 C500 1.499 . S
C498 H478 0.950 . S
C498 C497 1.414 . S
C498 C499 1.374 . S
C499 H479 0.950 . S
C499 C495 1.385 . S
C499 C498 1.374 . S
C500 C497 1.499 . S
C500 C501 1.373 . S
C500 C502 1.389 1_554 S
C501 H480 0.950 . S
C501 C500 1.373 . S
C501 C517 1.377 . S
C502 C500 1.389 1_556 S
C502 C503 1.524 . S
C502 C516 1.377 . S
C503 C502 1.524 . S
C503 C504 1.397 . S
C503 C508 1.363 . S
C504 H481 0.933 1_556 S
C504 C503 1.397 . S
C504 C505 1.334 . S
C505 H482 0.950 . S
C505 C504 1.334 . S
C505 C506 1.287 . S
C506 C505 1.287 . S
C506 C507 1.524 . S
C506 H525 0.913 . S
C507 H483 0.950 . S
C507 C506 1.524 . S
C507 C508 1.415 . S
C508 H484 0.950 . S
C508 C503 1.363 . S
C508 C507 1.415 . S
C509 H485 0.951 . S
C509 C510 1.366 . S
C509 C511 1.388 . S
C510 C509 1.366 . S
C510 C514 1.385 . S
C511 H486 0.951 1_556 S
C511 C509 1.388 . S
C511 C512 1.366 . S
C512 C511 1.366 . S
C512 C513 1.414 . S
C512 C515 1.499 1_556 S
C513 H487 0.950 . S
C513 C512 1.414 . S
C513 C514 1.374 . S
C514 H488 0.950 . S
C514 C510 1.385 . S
C514 C513 1.374 . S
C515 C512 1.499 1_554 S
C515 C516 1.373 1_554 S
C515 C517 1.389 . S
C516 H489 0.950 . S
C516 C502 1.377 . S
C516 C515 1.373 1_556 S
C517 C501 1.377 . S
C517 C515 1.389 . S
C517 C518 1.524 . S
C518 C517 1.524 . S
C518 C519 1.397 . S
C518 C523 1.363 . S
C519 H490 0.950 . S
C519 C518 1.397 . S
C519 C520 1.334 . S
C520 H491 0.950 . S
C520 C519 1.334 . S
C520 C521 1.287 . S
C521 C520 1.287 . S
C521 C522 1.524 . S
C521 H524 0.999 . S
C522 H492 0.950 . S
C522 C521 1.524 . S
C522 C523 1.415 . S
C523 H493 0.950 . S
C523 C518 1.363 . S
C523 C522 1.415 . S
H524 C521 0.999 . S
H525 C506 0.913 . S
H526 C544 0.951 . S
H527 C546 0.951 1_556 S
H528 C548 0.950 . S
H529 C549 0.950 . S
H530 C551 0.950 . S
H531 C554 0.950 . S
H532 C555 0.950 . S
H533 C557 0.950 . S
H534 C558 0.950 . S
H535 C559 0.951 . S
H536 C561 0.951 . S
H537 C563 0.950 . S
H538 C564 0.950 . S
H539 C566 0.950 . S
H540 C569 0.950 . S
H541 C570 0.950 . S
H542 C572 0.950 . S
H543 C573 0.950 . S
C544 H526 0.951 . S
C544 C545 1.366 . S
C544 C546 1.388 . S
C545 C544 1.366 . S
C545 C549 1.385 . S
C546 H527 0.951 1_554 S
C546 C544 1.388 . S
C546 C547 1.366 . S
C547 C546 1.366 . S
C547 C548 1.414 . S
C547 C550 1.499 1_554 S
C548 H528 0.950 . S
C548 C547 1.414 . S
C548 C549 1.374 . S
C549 H529 0.950 . S
C549 C545 1.385 . S
C549 C548 1.374 . S
C550 C547 1.499 1_556 S
C550 C551 1.373 1_556 S
C550 C552 1.389 . S
C551 H530 0.950 . S
C551 C550 1.373 1_554 S
C551 C567 1.377 . S
C552 C550 1.389 . S
C552 C553 1.524 . S
C552 C566 1.377 . S
C553 C552 1.524 . S
C553 C554 1.397 . S
C553 C558 1.363 . S
C554 H531 0.950 . S
C554 C553 1.397 . S
C554 C555 1.334 . S
C555 H532 0.950 . S
C555 C554 1.334 . S
C555 C556 1.287 . S
C556 C555 1.287 . S
C556 C557 1.524 . S
C556 H575 0.913 . S
C557 H533 0.950 . S
C557 C556 1.524 . S
C557 C558 1.415 . S
C558 H534 0.950 . S
C558 C553 1.363 . S
C558 C557 1.415 . S
C559 H535 0.951 . S
C559 C560 1.366 . S
C559 C561 1.388 . S
C560 C559 1.366 . S
C560 C564 1.385 . S
C561 H536 0.951 . S
C561 C559 1.388 . S
C561 C562 1.366 . S
C562 C561 1.366 . S
C562 C563 1.414 . S
C562 C565 1.499 . S
C563 H537 0.950 . S
C563 C562 1.414 . S
C563 C564 1.374 . S
C564 H538 0.950 . S
C564 C560 1.385 . S
C564 C563 1.374 . S
C565 C562 1.499 . S
C565 C566 1.373 . S
C565 C567 1.389 1_556 S
C566 H539 0.950 . S
C566 C552 1.377 . S
C566 C565 1.373 . S
C567 C551 1.377 . S
C567 C565 1.389 1_554 S
C567 C568 1.524 . S
C568 C567 1.524 . S
C568 C569 1.397 . S
C568 C573 1.363 . S
C569 H540 0.950 . S
C569 C568 1.397 . S
C569 C570 1.334 . S
C570 H541 0.950 . S
C570 C569 1.334 . S
C570 C571 1.287 . S
C571 C570 1.287 . S
C571 C572 1.524 . S
C571 H574 0.999 . S
C572 H542 0.950 . S
C572 C571 1.524 . S
C572 C573 1.415 . S
C573 H543 0.950 . S
C573 C568 1.363 . S
C573 C572 1.415 . S
H574 C571 0.999 . S
H575 C556 0.913 . S
H576 C594 0.951 . S
H577 C596 0.951 . S
H578 C598 0.950 . S
H579 C599 0.950 . S
H580 C601 0.950 . S
H581 C604 0.950 . S
H582 C605 0.950 . S
H583 C607 0.950 . S
H584 C608 0.950 . S
H585 C609 0.951 . S
H586 C611 0.951 . S
H587 C613 0.950 . S
H588 C614 0.950 . S
H589 C616 0.950 . S
H590 C619 0.950 . S
H591 C620 0.950 . S
H592 C622 0.950 . S
H593 C623 0.950 . S
C594 H576 0.951 . S
C594 C595 1.366 . S
C594 C596 1.388 . S
C595 C594 1.366 . S
C595 C599 1.385 . S
C596 H577 0.951 . S
C596 C594 1.388 . S
C596 C597 1.366 . S
C597 C596 1.366 . S
C597 C598 1.414 . S
C597 C600 1.499 . S
C598 H578 0.950 . S
C598 C597 1.414 . S
C598 C599 1.374 . S
C599 H579 0.950 . S
C599 C595 1.385 . S
C599 C598 1.374 . S
C600 C597 1.499 . S
C600 C601 1.373 . S
C600 C602 1.389 . S
C601 H580 0.950 . S
C601 C600 1.373 . S
C601 C617 1.377 . S
C602 C600 1.389 . S
C602 C603 1.524 . S
C602 C616 1.377 . S
C603 C602 1.524 . S
C603 C604 1.397 . S
C603 C608 1.363 . S
C604 H581 0.950 . S
C604 C603 1.397 . S
C604 C605 1.334 . S
C605 H582 0.950 . S
C605 C604 1.334 . S
C605 C606 1.287 . S
C606 C605 1.287 . S
C606 C607 1.524 . S
C606 H625 0.913 . S
C607 H583 0.950 . S
C607 C606 1.524 . S
C607 C608 1.415 . S
C608 H584 0.950 . S
C608 C603 1.363 . S
C608 C607 1.415 . S
C609 H585 0.951 . S
C609 C610 1.366 . S
C609 C611 1.388 . S
C610 C609 1.366 . S
C610 C614 1.385 . S
C611 H586 0.951 . S
C611 C609 1.388 . S
C611 C612 1.366 . S
C612 C611 1.366 . S
C612 C613 1.414 . S
C612 C615 1.499 . S
C613 H587 0.950 . S
C613 C612 1.414 . S
C613 C614 1.374 . S
C614 H588 0.950 . S
C614 C610 1.385 . S
C614 C613 1.374 . S
C615 C612 1.499 . S
C615 C616 1.373 . S
C615 C617 1.389 . S
C616 H589 0.950 . S
C616 C602 1.377 . S
C616 C615 1.373 . S
C617 C601 1.377 . S
C617 C615 1.389 . S
C617 C618 1.524 . S
C618 C617 1.524 . S
C618 C619 1.397 . S
C618 C623 1.363 . S
C619 H590 0.950 . S
C619 C618 1.397 . S
C619 C620 1.334 . S
C620 H591 0.950 . S
C620 C619 1.334 . S
C620 C621 1.287 . S
C621 C620 1.287 . S
C621 C622 1.524 . S
C621 H624 0.999 . S
C622 H592 0.950 . S
C622 C621 1.524 . S
C622 C623 1.415 . S
C623 H593 0.950 . S
C623 C618 1.363 . S
C623 C622 1.415 . S
H624 C621 0.999 . S
H625 C606 0.913 . S
H626 C644 0.951 . S
H627 C646 0.951 . S
H628 C648 0.950 . S
H629 C649 0.950 . S
H630 C651 0.950 . S
H631 C654 0.950 . S
H632 C655 0.950 . S
H633 C657 0.950 . S
H634 C658 0.950 . S
H635 C659 0.951 . S
H636 C661 0.951 . S
H637 C663 0.950 . S
H638 C664 0.950 . S
H639 C666 0.950 . S
H640 C669 0.950 . S
H641 C670 0.950 . S
H642 C672 0.950 . S
H643 C673 0.950 . S
C644 H626 0.951 . S
C644 C645 1.366 . S
C644 C646 1.388 . S
C645 C644 1.366 . S
C645 C649 1.385 . S
C646 H627 0.951 . S
C646 C644 1.388 . S
C646 C647 1.366 . S
C647 C646 1.366 . S
C647 C648 1.414 . S
C647 C650 1.499 . S
C648 H628 0.950 . S
C648 C647 1.414 . S
C648 C649 1.374 . S
C649 H629 0.950 . S
C649 C645 1.385 . S
C649 C648 1.374 . S
C650 C647 1.499 . S
C650 C651 1.373 . S
C650 C652 1.389 . S
C651 H630 0.950 . S
C651 C650 1.373 . S
C651 C667 1.377 . S
C652 C650 1.389 . S
C652 C653 1.524 . S
C652 C666 1.377 . S
C653 C652 1.524 . S
C653 C654 1.397 . S
C653 C658 1.363 . S
C654 H631 0.950 . S
C654 C653 1.397 . S
C654 C655 1.334 . S
C655 H632 0.950 . S
C655 C654 1.334 . S
C655 C656 1.287 . S
C656 C655 1.287 . S
C656 C657 1.524 . S
C656 H675 0.913 . S
C657 H633 0.950 . S
C657 C656 1.524 . S
C657 C658 1.415 . S
C658 H634 0.950 . S
C658 C653 1.363 . S
C658 C657 1.415 . S
C659 H635 0.951 . S
C659 C660 1.366 . S
C659 C661 1.388 . S
C660 C659 1.366 . S
C660 C664 1.385 . S
C661 H636 0.951 . S
C661 C659 1.388 . S
C661 C662 1.366 . S
C662 C661 1.366 . S
C662 C663 1.414 . S
C662 C665 1.499 . S
C663 H637 0.950 . S
C663 C662 1.414 . S
C663 C664 1.374 . S
C664 H638 0.950 . S
C664 C660 1.385 . S
C664 C663 1.374 . S
C665 C662 1.499 . S
C665 C666 1.373 . S
C665 C667 1.389 . S
C666 H639 0.950 . S
C666 C652 1.377 . S
C666 C665 1.373 . S
C667 C651 1.377 . S
C667 C665 1.389 . S
C667 C668 1.524 . S
C668 C667 1.524 . S
C668 C669 1.397 . S
C668 C673 1.363 . S
C669 H640 0.950 . S
C669 C668 1.397 . S
C669 C670 1.334 . S
C670 H641 0.950 . S
C670 C669 1.334 . S
C670 C671 1.287 . S
C671 C670 1.287 . S
C671 C672 1.524 . S
C671 H674 0.999 . S
C672 H642 0.950 . S
C672 C671 1.524 . S
C672 C673 1.415 . S
C673 H643 0.950 . S
C673 C668 1.363 . S
C673 C672 1.415 . S
H674 C671 0.999 . S
H675 C656 0.913 . S
H676 C694 0.951 . S
H677 C696 0.951 . S
H678 C698 0.950 . S
H679 C699 0.950 . S
H680 C701 0.950 . S
H681 C704 0.950 . S
H682 C705 0.950 . S
H683 C707 0.950 . S
H684 C708 0.950 . S
H685 C709 0.951 . S
H686 C711 0.951 . S
H687 C713 0.950 . S
H688 C714 0.950 . S
H689 C716 0.950 . S
H690 C719 0.950 . S
H691 C720 0.950 . S
H692 C722 0.950 . S
H693 C723 0.950 . S
C694 H676 0.951 . S
C694 C695 1.366 . S
C694 C696 1.388 . S
C695 C694 1.366 . S
C695 C699 1.385 . S
C696 H677 0.951 . S
C696 C694 1.388 . S
C696 C697 1.366 . S
C697 C696 1.366 . S
C697 C698 1.414 . S
C697 C700 1.499 . S
C698 H678 0.950 . S
C698 C697 1.414 . S
C698 C699 1.374 . S
C699 H679 0.950 . S
C699 C695 1.385 . S
C699 C698 1.374 . S
C700 C697 1.499 . S
C700 C701 1.373 . S
C700 C702 1.389 . S
C701 H680 0.950 . S
C701 C700 1.373 . S
C701 C717 1.377 . S
C702 C700 1.389 . S
C702 C703 1.524 . S
C702 C716 1.377 . S
C703 C702 1.524 . S
C703 C704 1.397 . S
C703 C708 1.363 . S
C704 H681 0.950 . S
C704 C703 1.397 . S
C704 C705 1.334 . S
C705 H682 0.950 . S
C705 C704 1.334 . S
C705 C706 1.287 . S
C706 C705 1.287 . S
C706 C707 1.524 . S
C706 H725 0.913 . S
C707 H683 0.950 . S
C707 C706 1.524 . S
C707 C708 1.415 . S
C708 H684 0.950 . S
C708 C703 1.363 . S
C708 C707 1.415 . S
C709 H685 0.951 . S
C709 C710 1.366 . S
C709 C711 1.388 . S
C710 C709 1.366 . S
C710 C714 1.385 . S
C711 H686 0.951 . S
C711 C709 1.388 . S
C711 C712 1.366 . S
C712 C711 1.366 . S
C712 C713 1.414 . S
C712 C715 1.499 . S
C713 H687 0.950 . S
C713 C712 1.414 . S
C713 C714 1.374 . S
C714 H688 0.950 . S
C714 C710 1.385 . S
C714 C713 1.374 . S
C715 C712 1.499 . S
C715 C716 1.373 . S
C715 C717 1.389 . S
C716 H689 0.950 . S
C716 C702 1.377 . S
C716 C715 1.373 . S
C717 C701 1.377 . S
C717 C715 1.389 . S
C717 C718 1.524 . S
C718 C717 1.524 . S
C718 C719 1.397 . S
C718 C723 1.363 . S
C719 H690 0.950 . S
C719 C718 1.397 . S
C719 C720 1.334 . S
C720 H691 0.950 . S
C720 C719 1.334 . S
C720 C721 1.287 . S
C721 C720 1.287 . S
C721 C722 1.524 . S
C721 H724 0.999 . S
C722 H692 0.950 . S
C722 C721 1.524 . S
C722 C723 1.415 . S
C723 H693 0.950 . S
C723 C718 1.363 . S
C723 C722 1.415 . S
H724 C721 0.999 . S
H725 C706 0.913 . S
H726 C744 0.951 . S
H727 C746 0.951 . S
H728 C748 0.950 . S
H729 C749 0.950 . S
H730 C751 0.950 . S
H731 C754 0.950 . S
H732 C755 0.950 . S
H733 C757 0.950 . S
H734 C758 0.950 . S
H735 C759 0.951 . S
H736 C761 0.951 . S
H737 C763 0.950 . S
H738 C764 0.950 . S
H739 C766 0.950 . S
H740 C769 0.950 . S
H741 C770 0.950 . S
H742 C772 0.950 . S
H743 C773 0.950 . S
C744 H726 0.951 . S
C744 C745 1.366 . S
C744 C746 1.388 . S
C745 C744 1.366 . S
C745 C749 1.385 . S
C746 H727 0.951 . S
C746 C744 1.388 . S
C746 C747 1.366 . S
C747 C746 1.366 . S
C747 C748 1.414 . S
C747 C750 1.499 . S
C748 H728 0.950 . S
C748 C747 1.414 . S
C748 C749 1.374 . S
C749 H729 0.950 . S
C749 C745 1.385 . S
C749 C748 1.374 . S
C750 C747 1.499 . S
C750 C751 1.373 . S
C750 C752 1.389 . S
C751 H730 0.950 . S
C751 C750 1.373 . S
C751 C767 1.377 . S
C752 C750 1.389 . S
C752 C753 1.524 . S
C752 C766 1.377 . S
C753 C752 1.524 . S
C753 C754 1.397 . S
C753 C758 1.363 . S
C754 H731 0.950 . S
C754 C753 1.397 . S
C754 C755 1.334 . S
C755 H732 0.950 . S
C755 C754 1.334 . S
C755 C756 1.287 . S
C756 C755 1.287 . S
C756 C757 1.524 . S
C756 H775 0.913 . S
C757 H733 0.950 . S
C757 C756 1.524 . S
C757 C758 1.415 . S
C758 H734 0.950 . S
C758 C753 1.363 . S
C758 C757 1.415 . S
C759 H735 0.951 . S
C759 C760 1.366 . S
C759 C761 1.388 . S
C760 C759 1.366 . S
C760 C764 1.385 . S
C761 H736 0.951 . S
C761 C759 1.388 . S
C761 C762 1.366 . S
C762 C761 1.366 . S
C762 C763 1.414 . S
C762 C765 1.499 . S
C763 H737 0.950 . S
C763 C762 1.414 . S
C763 C764 1.374 . S
C764 H738 0.950 . S
C764 C760 1.385 . S
C764 C763 1.374 . S
C765 C762 1.499 . S
C765 C766 1.373 . S
C765 C767 1.389 . S
C766 H739 0.950 . S
C766 C752 1.377 . S
C766 C765 1.373 . S
C767 C751 1.377 . S
C767 C765 1.389 . S
C767 C768 1.524 . S
C768 C767 1.524 . S
C768 C769 1.397 . S
C768 C773 1.363 . S
C769 H740 0.950 . S
C769 C768 1.397 . S
C769 C770 1.334 . S
C770 H741 0.950 . S
C770 C769 1.334 . S
C770 C771 1.287 . S
C771 C770 1.287 . S
C771 C772 1.524 . S
C771 H774 0.999 . S
C772 H742 0.950 . S
C772 C771 1.524 . S
C772 C773 1.415 . S
C773 H743 0.950 . S
C773 C768 1.363 . S
C773 C772 1.415 . S
H774 C771 0.999 . S
H775 C756 0.913 . S
H776 C794 0.951 . S
H777 C796 0.951 . S
H778 C798 0.950 . S
H779 C799 0.950 . S
H780 C801 0.950 . S
H781 C804 0.950 . S
H782 C805 0.950 . S
H783 C807 0.950 . S
H784 C808 0.950 . S
H785 C809 0.951 . S
H786 C811 0.951 1_545 S
H787 C813 0.950 . S
H788 C814 0.950 . S
H789 C816 0.950 . S
H790 C819 0.950 . S
H791 C820 0.950 . S
H792 C822 0.950 . S
H793 C823 0.950 . S
C794 H776 0.951 . S
C794 C795 1.366 . S
C794 C796 1.388 . S
C795 C794 1.366 . S
C795 C799 1.385 . S
C796 H777 0.951 . S
C796 C794 1.388 . S
C796 C797 1.366 . S
C797 C796 1.366 . S
C797 C798 1.414 . S
C797 C800 1.499 . S
C798 H778 0.950 . S
C798 C797 1.414 . S
C798 C799 1.374 . S
C799 H779 0.950 . S
C799 C795 1.385 . S
C799 C798 1.374 . S
C800 C797 1.499 . S
C800 C801 1.373 . S
C800 C802 1.389 . S
C801 H780 0.950 . S
C801 C800 1.373 . S
C801 C817 1.377 . S
C802 C800 1.389 . S
C802 C803 1.524 . S
C802 C816 1.377 . S
C803 C802 1.524 . S
C803 C804 1.397 . S
C803 C808 1.363 . S
C804 H781 0.950 . S
C804 C803 1.397 . S
C804 C805 1.334 . S
C805 H782 0.950 . S
C805 C804 1.334 . S
C805 C806 1.287 . S
C806 C805 1.287 . S
C806 C807 1.524 . S
C806 H825 0.913 . S
C807 H783 0.950 . S
C807 C806 1.524 . S
C807 C808 1.415 . S
C808 H784 0.950 . S
C808 C803 1.363 . S
C808 C807 1.415 . S
C809 H785 0.951 . S
C809 C810 1.366 . S
C809 C811 1.388 . S
C810 C809 1.366 . S
C810 C814 1.385 . S
C811 H786 0.951 1_565 S
C811 C809 1.388 . S
C811 C812 1.362 1_565 S
C812 C811 1.362 1_545 S
C812 C813 1.384 1_545 S
C812 C815 1.531 . S
C813 H787 0.950 . S
C813 C812 1.384 1_565 S
C813 C814 1.374 . S
C814 H788 0.950 . S
C814 C810 1.385 . S
C814 C813 1.374 . S
C815 C812 1.531 . S
C815 C816 1.373 . S
C815 C817 1.389 . S
C816 H789 0.950 . S
C816 C802 1.377 . S
C816 C815 1.373 . S
C817 C801 1.377 . S
C817 C815 1.389 . S
C817 C818 1.524 . S
C818 C817 1.524 . S
C818 C819 1.397 . S
C818 C823 1.363 . S
C819 H790 0.950 . S
C819 C818 1.397 . S
C819 C820 1.334 . S
C820 H791 0.950 . S
C820 C819 1.334 . S
C820 C821 1.287 . S
C821 C820 1.287 . S
C821 C822 1.524 . S
C821 H824 0.999 . S
C822 H792 0.950 . S
C822 C821 1.524 . S
C822 C823 1.415 . S
C823 H793 0.950 . S
C823 C818 1.363 . S
C823 C822 1.415 . S
H824 C821 0.999 . S
H825 C806 0.913 . S
H826 C844 0.951 . S
H827 C846 0.951 . S
H828 C848 0.950 . S
H829 C849 0.950 . S
H830 C851 0.950 . S
H831 C854 0.950 . S
H832 C855 0.950 . S
H833 C857 0.950 . S
H834 C858 0.950 . S
H835 C859 0.951 . S
H836 C861 0.951 . S
H837 C863 0.950 1_455 S
H838 C864 0.950 . S
H839 C866 0.950 . S
H840 C869 0.950 . S
H841 C870 0.950 . S
H842 C872 0.950 . S
H843 C873 0.950 . S
C844 H826 0.951 . S
C844 C845 1.366 . S
C844 C846 1.388 . S
C845 C844 1.366 . S
C845 C849 1.385 . S
C846 H827 0.951 . S
C846 C844 1.388 . S
C846 C847 1.366 . S
C847 C846 1.366 . S
C847 C848 1.414 . S
C847 C850 1.499 . S
C848 H828 0.950 . S
C848 C847 1.414 . S
C848 C849 1.374 . S
C849 H829 0.950 . S
C849 C845 1.385 . S
C849 C848 1.374 . S
C850 C847 1.499 . S
C850 C851 1.373 . S
C850 C852 1.389 . S
C851 H830 0.950 . S
C851 C850 1.373 . S
C851 C867 1.377 . S
C852 C850 1.389 . S
C852 C853 1.524 . S
C852 C866 1.377 . S
C853 C852 1.524 . S
C853 C854 1.397 . S
C853 C858 1.363 . S
C854 H831 0.950 . S
C854 C853 1.397 . S
C854 C855 1.334 . S
C855 H832 0.950 . S
C855 C854 1.334 . S
C855 C856 1.287 . S
C856 C855 1.287 . S
C856 C857 1.524 . S
C856 H875 0.913 . S
C857 H833 0.950 . S
C857 C856 1.524 . S
C857 C858 1.415 . S
C858 H834 0.950 . S
C858 C853 1.363 . S
C858 C857 1.415 . S
C859 H835 0.951 . S
C859 C860 1.366 . S
C859 C861 1.388 . S
C860 C859 1.366 . S
C860 C864 1.385 . S
C861 H836 0.951 . S
C861 C859 1.388 . S
C861 C862 1.397 . S
C862 C861 1.397 . S
C862 C863 1.415 . S
C862 C865 1.467 1_655 S
C863 H837 0.950 1_655 S
C863 C862 1.415 . S
C863 C864 1.374 . S
C864 H838 0.950 . S
C864 C860 1.385 . S
C864 C863 1.374 . S
C865 C862 1.467 1_455 S
C865 C866 1.373 . S
C865 C867 1.389 . S
C866 H839 0.950 . S
C866 C852 1.377 . S
C866 C865 1.373 . S
C867 C851 1.377 . S
C867 C865 1.389 . S
C867 C868 1.524 . S
C868 C867 1.524 . S
C868 C869 1.397 . S
C868 C873 1.363 . S
C869 H840 0.950 . S
C869 C868 1.397 . S
C869 C870 1.334 1_455 S
C870 H841 0.950 . S
C870 C869 1.334 1_655 S
C870 C871 1.287 . S
C871 C870 1.287 . S
C871 C872 1.524 . S
C871 H874 0.999 . S
C872 H842 0.950 . S
C872 C871 1.524 . S
C872 C873 1.415 1_655 S
C873 H843 0.950 . S
C873 C868 1.363 . S
C873 C872 1.415 1_455 S
H874 C871 0.999 . S
H875 C856 0.913 . S
H876 C894 0.951 . S
H877 C896 0.951 . S
H878 C898 0.950 . S
H879 C899 0.950 . S
H880 C901 0.950 . S
H881 C904 0.950 . S
H882 C905 0.950 . S
H883 C907 0.950 . S
H884 C908 0.950 . S
H885 C909 0.951 . S
H886 C911 0.951 1_565 S
H887 C913 0.950 . S
H888 C914 0.950 . S
H889 C916 0.950 . S
H890 C919 0.950 . S
H891 C920 0.950 . S
H892 C922 0.950 . S
H893 C923 0.950 . S
C894 H876 0.951 . S
C894 C895 1.366 . S
C894 C896 1.388 . S
C895 C894 1.366 . S
C895 C899 1.385 . S
C896 H877 0.951 . S
C896 C894 1.388 . S
C896 C897 1.366 . S
C897 C896 1.366 . S
C897 C898 1.414 . S
C897 C900 1.499 . S
C898 H878 0.950 . S
C898 C897 1.414 . S
C898 C899 1.374 . S
C899 H879 0.950 . S
C899 C895 1.385 . S
C899 C898 1.374 . S
C900 C897 1.499 . S
C900 C901 1.373 . S
C900 C902 1.389 . S
C901 H880 0.950 . S
C901 C900 1.373 . S
C901 C917 1.377 . S
C902 C900 1.389 . S
C902 C903 1.524 . S
C902 C916 1.377 . S
C903 C902 1.524 . S
C903 C904 1.397 . S
C903 C908 1.363 . S
C904 H881 0.950 . S
C904 C903 1.397 . S
C904 C905 1.334 . S
C905 H882 0.950 . S
C905 C904 1.334 . S
C905 C906 1.287 . S
C906 C905 1.287 . S
C906 C907 1.524 . S
C906 H925 0.913 . S
C907 H883 0.950 . S
C907 C906 1.524 . S
C907 C908 1.415 . S
C908 H884 0.950 . S
C908 C903 1.363 . S
C908 C907 1.415 . S
C909 H885 0.951 . S
C909 C910 1.366 . S
C909 C911 1.388 . S
C910 C909 1.366 . S
C910 C914 1.385 . S
C911 H886 0.951 1_545 S
C911 C909 1.388 . S
C911 C912 1.366 . S
C912 C911 1.366 . S
C912 C913 1.414 . S
C912 C915 1.499 1_545 S
C913 H887 0.950 . S
C913 C912 1.414 . S
C913 C914 1.374 . S
C914 H888 0.950 . S
C914 C910 1.385 . S
C914 C913 1.374 . S
C915 C912 1.499 1_565 S
C915 C916 1.373 . S
C915 C917 1.389 . S
C916 H889 0.950 . S
C916 C902 1.377 . S
C916 C915 1.373 . S
C917 C901 1.377 . S
C917 C915 1.389 . S
C917 C918 1.524 . S
C918 C917 1.524 . S
C918 C919 1.397 1_565 S
C918 C923 1.363 . S
C919 H890 0.950 . S
C919 C918 1.397 1_545 S
C919 C920 1.334 . S
C920 H891 0.950 . S
C920 C919 1.334 . S
C920 C921 1.287 . S
C921 C920 1.287 . S
C921 C922 1.524 1_545 S
C921 H924 0.999 . S
C922 H892 0.950 . S
C922 C921 1.524 1_565 S
C922 C923 1.415 . S
C923 H893 0.950 . S
C923 C918 1.363 . S
C923 C922 1.415 . S
H924 C921 0.999 . S
H925 C906 0.913 . S
H926 C944 0.951 . S
H927 C946 0.951 . S
H928 C948 0.950 1_655 S
H929 C949 0.950 . S
H930 C951 0.950 . S
H931 C954 0.950 . S
H932 C955 0.950 . S
H933 C957 0.950 . S
H934 C958 0.950 . S
H935 C959 0.951 . S
H936 C961 0.951 . S
H937 C963 0.950 . S
H938 C964 0.950 . S
H939 C966 0.950 . S
H940 C969 0.950 . S
H941 C970 0.950 . S
H942 C972 0.950 . S
H943 C973 0.950 . S
C944 H926 0.951 . S
C944 C945 1.366 . S
C944 C946 1.388 . S
C945 C944 1.366 . S
C945 C949 1.385 . S
C946 H927 0.951 . S
C946 C944 1.388 . S
C946 C947 1.366 . S
C947 C946 1.366 . S
C947 C948 1.414 . S
C947 C950 1.499 1_455 S
C948 H928 0.950 1_455 S
C948 C947 1.414 . S
C948 C949 1.374 . S
C949 H929 0.950 . S
C949 C945 1.385 . S
C949 C948 1.374 . S
C950 C947 1.499 1_655 S
C950 C951 1.373 . S
C950 C952 1.389 . S
C951 H930 0.950 . S
C951 C950 1.373 . S
C951 C967 1.377 . S
C952 C950 1.389 . S
C952 C953 1.524 . S
C952 C966 1.377 . S
C953 C952 1.524 . S
C953 C954 1.397 . S
C953 C958 1.363 . S
C954 H931 0.950 . S
C954 C953 1.397 . S
C954 C955 1.334 . S
C955 H932 0.950 . S
C955 C954 1.334 . S
C955 C956 1.287 . S
C956 C955 1.287 . S
C956 C957 1.524 . S
C956 H975 0.913 . S
C957 H933 0.950 . S
C957 C956 1.524 . S
C957 C958 1.415 . S
C958 H934 0.950 . S
C958 C953 1.363 . S
C958 C957 1.415 . S
C959 H935 0.951 . S
C959 C960 1.366 . S
C959 C961 1.388 . S
C960 C959 1.366 . S
C960 C964 1.385 . S
C961 H936 0.951 . S
C961 C959 1.388 . S
C961 C962 1.366 . S
C962 C961 1.366 . S
C962 C963 1.414 . S
C962 C965 1.499 . S
C963 H937 0.950 . S
C963 C962 1.414 . S
C963 C964 1.374 . S
C964 H938 0.950 . S
C964 C960 1.385 . S
C964 C963 1.374 . S
C965 C962 1.499 . S
C965 C966 1.373 . S
C965 C967 1.389 . S
C966 H939 0.950 . S
C966 C952 1.377 . S
C966 C965 1.373 . S
C967 C951 1.377 . S
C967 C965 1.389 . S
C967 C968 1.524 . S
C968 C967 1.524 . S
C968 C969 1.397 . S
C968 C973 1.363 . S
C969 H940 0.950 . S
C969 C968 1.397 . S
C969 C970 1.334 . S
C970 H941 0.950 . S
C970 C969 1.334 . S
C970 C971 1.287 . S
C971 C970 1.287 . S
C971 C972 1.524 . S
C971 H974 0.999 . S
C972 H942 0.950 . S
C972 C971 1.524 . S
C972 C973 1.415 . S
C973 H943 0.950 . S
C973 C968 1.363 . S
C973 C972 1.415 . S
H974 C971 0.999 . S
H975 C956 0.913 . S
H976 C994 0.951 . S
H977 C996 0.951 . S
H978 C998 0.950 . S
H979 C999 0.939 1_556 S
H980 C1001 0.950 . S
H981 C1004 0.950 . S
H982 C1005 0.950 . S
H983 C1007 0.950 . S
H984 C1008 0.950 . S
H985 C1009 0.951 . S
H986 C1011 0.951 . S
H987 C1013 0.950 . S
H988 C1014 0.950 . S
H989 C1016 0.950 . S
H990 C1019 0.950 . S
H991 C1020 0.950 . S
H992 C1022 0.950 . S
H993 C1023 0.950 . S
C994 H976 0.951 . S
C994 C995 1.366 1_554 S
C994 C996 1.388 . S
C995 C994 1.366 1_556 S
C995 C999 1.378 1_556 S
C996 H977 0.951 . S
C996 C994 1.388 . S
C996 C997 1.366 . S
C997 C996 1.366 . S
C997 C998 1.414 . S
C997 C1000 1.499 . S
C998 H978 0.950 . S
C998 C997 1.414 . S
C998 C999 1.391 . S
C999 H979 0.939 1_554 S
C999 C995 1.378 1_554 S
C999 C998 1.391 . S
C1000 C997 1.499 . S
C1000 C1001 1.373 . S
C1000 C1002 1.389 . S
C1001 H980 0.950 . S
C1001 C1000 1.373 . S
C1001 C1017 1.377 . S
C1002 C1000 1.389 . S
C1002 C1003 1.524 . S
C1002 C1016 1.377 . S
C1003 C1002 1.524 . S
C1003 C1004 1.397 . S
C1003 C1008 1.363 . S
C1004 H981 0.950 . S
C1004 C1003 1.397 . S
C1004 C1005 1.334 . S
C1005 H982 0.950 . S
C1005 C1004 1.334 . S
C1005 C1006 1.287 . S
C1006 C1005 1.287 . S
C1006 C1007 1.524 . S
C1006 H1025 0.913 . S
C1007 H983 0.950 . S
C1007 C1006 1.524 . S
C1007 C1008 1.415 . S
C1008 H984 0.950 . S
C1008 C1003 1.363 . S
C1008 C1007 1.415 . S
C1009 H985 0.951 . S
C1009 C1010 1.366 . S
C1009 C1011 1.388 . S
C1010 C1009 1.366 . S
C1010 C1014 1.385 . S
C1011 H986 0.951 . S
C1011 C1009 1.388 . S
C1011 C1012 1.366 . S
C1012 C1011 1.366 . S
C1012 C1013 1.414 . S
C1012 C1015 1.499 . S
C1013 H987 0.950 . S
C1013 C1012 1.414 . S
C1013 C1014 1.374 . S
C1014 H988 0.950 . S
C1014 C1010 1.385 . S
C1014 C1013 1.374 . S
C1015 C1012 1.499 . S
C1015 C1016 1.373 . S
C1015 C1017 1.389 . S
C1016 H989 0.950 . S
C1016 C1002 1.377 . S
C1016 C1015 1.373 . S
C1017 C1001 1.377 . S
C1017 C1015 1.389 . S
C1017 C1018 1.524 . S
C1018 C1017 1.524 . S
C1018 C1019 1.397 . S
C1018 C1023 1.363 . S
C1019 H990 0.950 . S
C1019 C1018 1.397 . S
C1019 C1020 1.334 . S
C1020 H991 0.950 . S
C1020 C1019 1.334 . S
C1020 C1021 1.287 . S
C1021 C1020 1.287 . S
C1021 C1022 1.524 . S
C1021 H1024 0.999 . S
C1022 H992 0.950 . S
C1022 C1021 1.524 . S
C1022 C1023 1.415 . S
C1023 H993 0.950 . S
C1023 C1018 1.363 . S
C1023 C1022 1.415 . S
H1024 C1021 0.999 . S
H1025 C1006 0.913 . S
H1026 C1044 0.951 . S
H1027 C1046 0.951 . S
H1028 C1048 0.950 . S
H1029 C1049 0.950 . S
H1030 C1051 0.950 . S
H1031 C1054 0.950 . S
H1032 C1055 0.950 . S
H1033 C1057 0.950 . S
H1034 C1058 0.950 . S
H1035 C1059 0.951 . S
H1036 C1061 0.951 . S
H1037 C1063 0.950 . S
H1038 C1064 0.950 . S
H1039 C1066 0.950 . S
H1040 C1069 0.950 . S
H1041 C1070 0.950 . S
H1042 C1072 0.950 . S
H1043 C1073 0.950 . S
C1044 H1026 0.951 . S
C1044 C1045 1.366 1_556 S
C1044 C1046 1.388 . S
C1045 C1044 1.366 1_554 S
C1045 C1049 1.385 . S
C1046 H1027 0.951 . S
C1046 C1044 1.388 . S
C1046 C1047 1.366 . S
C1047 C1046 1.366 . S
C1047 C1048 1.414 . S
C1047 C1050 1.499 . S
C1048 H1028 0.950 . S
C1048 C1047 1.414 . S
C1048 C1049 1.374 1_556 S
C1049 H1029 0.950 . S
C1049 C1045 1.385 . S
C1049 C1048 1.374 1_554 S
C1050 C1047 1.499 . S
C1050 C1051 1.373 . S
C1050 C1052 1.389 . S
C1051 H1030 0.950 . S
C1051 C1050 1.373 . S
C1051 C1067 1.377 . S
C1052 C1050 1.389 . S
C1052 C1053 1.524 . S
C1052 C1066 1.377 . S
C1053 C1052 1.524 . S
C1053 C1054 1.397 . S
C1053 C1058 1.363 . S
C1054 H1031 0.950 . S
C1054 C1053 1.397 . S
C1054 C1055 1.334 . S
C1055 H1032 0.950 . S
C1055 C1054 1.334 . S
C1055 C1056 1.287 . S
C1056 C1055 1.287 . S
C1056 C1057 1.524 . S
C1056 H1075 0.913 . S
C1057 H1033 0.950 . S
C1057 C1056 1.524 . S
C1057 C1058 1.415 . S
C1058 H1034 0.950 . S
C1058 C1053 1.363 . S
C1058 C1057 1.415 . S
C1059 H1035 0.951 . S
C1059 C1060 1.366 . S
C1059 C1061 1.388 . S
C1060 C1059 1.366 . S
C1060 C1064 1.385 . S
C1061 H1036 0.951 . S
C1061 C1059 1.388 . S
C1061 C1062 1.366 . S
C1062 C1061 1.366 . S
C1062 C1063 1.414 . S
C1062 C1065 1.499 . S
C1063 H1037 0.950 . S
C1063 C1062 1.414 . S
C1063 C1064 1.374 . S
C1064 H1038 0.950 . S
C1064 C1060 1.385 . S
C1064 C1063 1.374 . S
C1065 C1062 1.499 . S
C1065 C1066 1.373 . S
C1065 C1067 1.389 . S
C1066 H1039 0.950 . S
C1066 C1052 1.377 . S
C1066 C1065 1.373 . S
C1067 C1051 1.377 . S
C1067 C1065 1.389 . S
C1067 C1068 1.524 . S
C1068 C1067 1.524 . S
C1068 C1069 1.397 . S
C1068 C1073 1.363 . S
C1069 H1040 0.950 . S
C1069 C1068 1.397 . S
C1069 C1070 1.334 . S
C1070 H1041 0.950 . S
C1070 C1069 1.334 . S
C1070 C1071 1.287 . S
C1071 C1070 1.287 . S
C1071 C1072 1.524 . S
C1071 H1074 0.999 . S
C1072 H1042 0.950 . S
C1072 C1071 1.524 . S
C1072 C1073 1.415 . S
C1073 H1043 0.950 . S
C1073 C1068 1.363 . S
C1073 C1072 1.415 . S
H1074 C1071 0.999 . S
H1075 C1056 0.913 . S
H1076 C1094 0.951 . S
H1077 C1096 0.951 . S
H1078 C1098 0.950 . S
H1079 C1099 0.950 . S
H1080 C1101 0.950 . S
H1081 C1104 0.950 . S
H1082 C1105 0.950 . S
H1083 C1107 0.950 . S
H1084 C1108 0.950 . S
H1085 C1109 0.951 . S
H1086 C1111 0.951 . S
H1087 C1113 0.950 . S
H1088 C1114 0.950 . S
H1089 C1116 0.950 . S
H1090 C1119 0.950 . S
H1091 C1120 0.950 . S
H1092 C1122 0.950 . S
H1093 C1123 0.950 . S
C1094 H1076 0.951 . S
C1094 C1095 1.366 . S
C1094 C1096 1.388 . S
C1095 C1094 1.366 . S
C1095 C1099 1.385 . S
C1096 H1077 0.951 . S
C1096 C1094 1.388 . S
C1096 C1097 1.366 . S
C1097 C1096 1.366 . S
C1097 C1098 1.414 . S
C1097 C1100 1.499 . S
C1098 H1078 0.950 . S
C1098 C1097 1.414 . S
C1098 C1099 1.374 . S
C1099 H1079 0.950 . S
C1099 C1095 1.385 . S
C1099 C1098 1.374 . S
C1100 C1097 1.499 . S
C1100 C1101 1.373 . S
C1100 C1102 1.389 . S
C1101 H1080 0.950 . S
C1101 C1100 1.373 . S
C1101 C1117 1.377 . S
C1102 C1100 1.389 . S
C1102 C1103 1.524 . S
C1102 C1116 1.377 . S
C1103 C1102 1.524 . S
C1103 C1104 1.397 . S
C1103 C1108 1.363 . S
C1104 H1081 0.950 . S
C1104 C1103 1.397 . S
C1104 C1105 1.334 . S
C1105 H1082 0.950 . S
C1105 C1104 1.334 . S
C1105 C1106 1.287 . S
C1106 C1105 1.287 . S
C1106 C1107 1.524 . S
C1106 H1125 0.913 . S
C1107 H1083 0.950 . S
C1107 C1106 1.524 . S
C1107 C1108 1.415 . S
C1108 H1084 0.950 . S
C1108 C1103 1.363 . S
C1108 C1107 1.415 . S
C1109 H1085 0.951 . S
C1109 C1110 1.366 1_554 S
C1109 C1111 1.388 . S
C1110 C1109 1.366 1_556 S
C1110 C1114 1.385 . S
C1111 H1086 0.951 . S
C1111 C1109 1.388 . S
C1111 C1112 1.366 . S
C1112 C1111 1.366 . S
C1112 C1113 1.414 . S
C1112 C1115 1.499 . S
C1113 H1087 0.950 . S
C1113 C1112 1.414 . S
C1113 C1114 1.374 1_554 S
C1114 H1088 0.950 . S
C1114 C1110 1.385 . S
C1114 C1113 1.374 1_556 S
C1115 C1112 1.499 . S
C1115 C1116 1.373 . S
C1115 C1117 1.389 . S
C1116 H1089 0.950 . S
C1116 C1102 1.377 . S
C1116 C1115 1.373 . S
C1117 C1101 1.377 . S
C1117 C1115 1.389 . S
C1117 C1118 1.524 . S
C1118 C1117 1.524 . S
C1118 C1119 1.397 . S
C1118 C1123 1.363 . S
C1119 H1090 0.950 . S
C1119 C1118 1.397 . S
C1119 C1120 1.334 . S
C1120 H1091 0.950 . S
C1120 C1119 1.334 . S
C1120 C1121 1.287 . S
C1121 C1120 1.287 . S
C1121 C1122 1.524 . S
C1121 H1124 0.999 . S
C1122 H1092 0.950 . S
C1122 C1121 1.524 . S
C1122 C1123 1.415 . S
C1123 H1093 0.950 . S
C1123 C1118 1.363 . S
C1123 C1122 1.415 . S
H1124 C1121 0.999 . S
H1125 C1106 0.913 . S
H1126 C1144 0.951 . S
H1127 C1146 0.951 . S
H1128 C1148 0.950 . S
H1129 C1149 0.950 . S
H1130 C1151 0.950 . S
H1131 C1154 0.950 . S
H1132 C1155 0.950 . S
H1133 C1157 0.950 . S
H1134 C1158 0.950 . S
H1135 C1159 0.951 . S
H1136 C1161 0.951 . S
H1137 C1163 0.950 . S
H1138 C1164 0.950 . S
H1139 C1166 0.950 . S
H1140 C1169 0.950 . S
H1141 C1170 0.950 . S
H1142 C1172 0.950 . S
H1143 C1173 0.950 . S
C1144 H1126 0.951 . S
C1144 C1145 1.366 . S
C1144 C1146 1.388 . S
C1145 C1144 1.366 . S
C1145 C1149 1.385 . S
C1146 H1127 0.951 . S
C1146 C1144 1.388 . S
C1146 C1147 1.366 . S
C1147 C1146 1.366 . S
C1147 C1148 1.414 . S
C1147 C1150 1.499 . S
C1148 H1128 0.950 . S
C1148 C1147 1.414 . S
C1148 C1149 1.374 . S
C1149 H1129 0.950 . S
C1149 C1145 1.385 . S
C1149 C1148 1.374 . S
C1150 C1147 1.499 . S
C1150 C1151 1.373 . S
C1150 C1152 1.389 . S
C1151 H1130 0.950 . S
C1151 C1150 1.373 . S
C1151 C1167 1.377 . S
C1152 C1150 1.389 . S
C1152 C1153 1.524 . S
C1152 C1166 1.377 . S
C1153 C1152 1.524 . S
C1153 C1154 1.397 . S
C1153 C1158 1.363 . S
C1154 H1131 0.950 . S
C1154 C1153 1.397 . S
C1154 C1155 1.334 . S
C1155 H1132 0.950 . S
C1155 C1154 1.334 . S
C1155 C1156 1.287 . S
C1156 C1155 1.287 . S
C1156 C1157 1.524 . S
C1156 H1175 0.913 . S
C1157 H1133 0.950 . S
C1157 C1156 1.524 . S
C1157 C1158 1.415 . S
C1158 H1134 0.950 . S
C1158 C1153 1.363 . S
C1158 C1157 1.415 . S
C1159 H1135 0.951 . S
C1159 C1160 1.366 . S
C1159 C1161 1.388 1_554 S
C1160 C1159 1.366 . S
C1160 C1164 1.385 1_554 S
C1161 H1136 0.951 . S
C1161 C1159 1.388 1_556 S
C1161 C1162 1.366 . S
C1162 C1161 1.366 . S
C1162 C1163 1.414 . S
C1162 C1165 1.499 . S
C1163 H1137 0.950 . S
C1163 C1162 1.414 . S
C1163 C1164 1.374 . S
C1164 H1138 0.950 . S
C1164 C1160 1.385 1_556 S
C1164 C1163 1.374 . S
C1165 C1162 1.499 . S
C1165 C1166 1.373 . S
C1165 C1167 1.389 . S
C1166 H1139 0.950 . S
C1166 C1152 1.377 . S
C1166 C1165 1.373 . S
C1167 C1151 1.377 . S
C1167 C1165 1.389 . S
C1167 C1168 1.524 . S
C1168 C1167 1.524 . S
C1168 C1169 1.397 . S
C1168 C1173 1.363 . S
C1169 H1140 0.950 . S
C1169 C1168 1.397 . S
C1169 C1170 1.334 . S
C1170 H1141 0.950 . S
C1170 C1169 1.334 . S
C1170 C1171 1.287 . S
C1171 C1170 1.287 . S
C1171 C1172 1.524 . S
C1171 H1174 0.999 . S
C1172 H1142 0.950 . S
C1172 C1171 1.524 . S
C1172 C1173 1.415 . S
C1173 H1143 0.950 . S
C1173 C1168 1.363 . S
C1173 C1172 1.415 . S
H1174 C1171 0.999 . S
H1175 C1156 0.913 . S
H1176 C1194 0.951 . S
H1177 C1196 0.951 . S
H1178 C1198 0.950 . S
H1179 C1199 0.950 . S
H1180 C1201 0.950 . S
H1181 C1204 0.950 . S
H1182 C1205 0.950 . S
H1183 C1207 0.950 . S
H1184 C1208 0.950 . S
H1185 C1209 0.951 . S
H1186 C1211 0.951 . S
H1187 C1213 0.950 . S
H1188 C1214 0.950 . S
H1189 C1216 0.950 . S
H1190 C1219 0.950 . S
H1191 C1220 0.950 . S
H1192 C1222 0.950 . S
H1193 C1223 0.950 . S
C1194 H1176 0.951 . S
C1194 C1195 1.366 . S
C1194 C1196 1.388 . S
C1195 C1194 1.366 . S
C1195 C1199 1.385 . S
C1196 H1177 0.951 . S
C1196 C1194 1.388 . S
C1196 C1197 1.366 . S
C1197 C1196 1.366 . S
C1197 C1198 1.414 . S
C1197 C1200 1.499 . S
C1198 H1178 0.950 . S
C1198 C1197 1.414 . S
C1198 C1199 1.374 . S
C1199 H1179 0.950 . S
C1199 C1195 1.385 . S
C1199 C1198 1.374 . S
C1200 C1197 1.499 . S
C1200 C1201 1.373 . S
C1200 C1202 1.389 . S
C1201 H1180 0.950 . S
C1201 C1200 1.373 . S
C1201 C1217 1.377 . S
C1202 C1200 1.389 . S
C1202 C1203 1.524 . S
C1202 C1216 1.377 . S
C1203 C1202 1.524 . S
C1203 C1204 1.397 . S
C1203 C1208 1.363 . S
C1204 H1181 0.950 . S
C1204 C1203 1.397 . S
C1204 C1205 1.334 . S
C1205 H1182 0.950 . S
C1205 C1204 1.334 . S
C1205 C1206 1.287 . S
C1206 C1205 1.287 . S
C1206 C1207 1.524 . S
C1206 H1225 0.913 . S
C1207 H1183 0.950 . S
C1207 C1206 1.524 . S
C1207 C1208 1.415 . S
C1208 H1184 0.950 . S
C1208 C1203 1.363 . S
C1208 C1207 1.415 . S
C1209 H1185 0.951 . S
C1209 C1210 1.366 . S
C1209 C1211 1.388 . S
C1210 C1209 1.366 . S
C1210 C1214 1.385 . S
C1211 H1186 0.951 . S
C1211 C1209 1.388 . S
C1211 C1212 1.366 . S
C1212 C1211 1.366 . S
C1212 C1213 1.414 . S
C1212 C1215 1.499 . S
C1213 H1187 0.950 . S
C1213 C1212 1.414 . S
C1213 C1214 1.374 . S
C1214 H1188 0.950 . S
C1214 C1210 1.385 . S
C1214 C1213 1.374 . S
C1215 C1212 1.499 . S
C1215 C1216 1.373 . S
C1215 C1217 1.389 . S
C1216 H1189 0.950 . S
C1216 C1202 1.377 . S
C1216 C1215 1.373 . S
C1217 C1201 1.377 . S
C1217 C1215 1.389 . S
C1217 C1218 1.524 . S
C1218 C1217 1.524 . S
C1218 C1219 1.397 . S
C1218 C1223 1.363 . S
C1219 H1190 0.950 . S
C1219 C1218 1.397 . S
C1219 C1220 1.334 . S
C1220 H1191 0.950 . S
C1220 C1219 1.334 . S
C1220 C1221 1.287 . S
C1221 C1220 1.287 . S
C1221 C1222 1.524 . S
C1221 H1224 0.999 . S
C1222 H1192 0.950 . S
C1222 C1221 1.524 . S
C1222 C1223 1.415 . S
C1223 H1193 0.950 . S
C1223 C1218 1.363 . S
C1223 C1222 1.415 . S
H1224 C1221 0.999 . S
H1225 C1206 0.913 . S
H1226 C1244 0.951 . S
H1227 C1246 0.951 . S
H1228 C1248 0.950 . S
H1229 C1249 0.950 . S
H1230 C1251 0.950 . S
H1231 C1254 0.950 . S
H1232 C1255 0.950 . S
H1233 C1257 0.950 . S
H1234 C1258 0.950 . S
H1235 C1259 0.951 . S
H1236 C1261 0.951 . S
H1237 C1263 0.950 . S
H1238 C1264 0.950 . S
H1239 C1266 0.950 . S
H1240 C1269 0.950 . S
H1241 C1270 0.950 . S
H1242 C1272 0.950 . S
H1243 C1273 0.950 . S
C1244 H1226 0.951 . S
C1244 C1245 1.366 . S
C1244 C1246 1.388 . S
C1245 C1244 1.366 . S
C1245 C1249 1.385 . S
C1246 H1227 0.951 . S
C1246 C1244 1.388 . S
C1246 C1247 1.366 . S
C1247 C1246 1.366 . S
C1247 C1248 1.414 . S
C1247 C1250 1.499 . S
C1248 H1228 0.950 . S
C1248 C1247 1.414 . S
C1248 C1249 1.374 . S
C1249 H1229 0.950 . S
C1249 C1245 1.385 . S
C1249 C1248 1.374 . S
C1250 C1247 1.499 . S
C1250 C1251 1.373 . S
C1250 C1252 1.389 . S
C1251 H1230 0.950 . S
C1251 C1250 1.373 . S
C1251 C1267 1.377 . S
C1252 C1250 1.389 . S
C1252 C1253 1.524 . S
C1252 C1266 1.377 . S
C1253 C1252 1.524 . S
C1253 C1254 1.397 . S
C1253 C1258 1.363 . S
C1254 H1231 0.950 . S
C1254 C1253 1.397 . S
C1254 C1255 1.334 . S
C1255 H1232 0.950 . S
C1255 C1254 1.334 . S
C1255 C1256 1.287 . S
C1256 C1255 1.287 . S
C1256 C1257 1.524 . S
C1256 H1275 0.913 . S
C1257 H1233 0.950 . S
C1257 C1256 1.524 . S
C1257 C1258 1.415 . S
C1258 H1234 0.950 . S
C1258 C1253 1.363 . S
C1258 C1257 1.415 . S
C1259 H1235 0.951 . S
C1259 C1260 1.366 . S
C1259 C1261 1.388 . S
C1260 C1259 1.366 . S
C1260 C1264 1.385 . S
C1261 H1236 0.951 . S
C1261 C1259 1.388 . S
C1261 C1262 1.366 . S
C1262 C1261 1.366 . S
C1262 C1263 1.414 . S
C1262 C1265 1.499 . S
C1263 H1237 0.950 . S
C1263 C1262 1.414 . S
C1263 C1264 1.374 . S
C1264 H1238 0.950 . S
C1264 C1260 1.385 . S
C1264 C1263 1.374 . S
C1265 C1262 1.499 . S
C1265 C1266 1.373 . S
C1265 C1267 1.389 . S
C1266 H1239 0.950 . S
C1266 C1252 1.377 . S
C1266 C1265 1.373 . S
C1267 C1251 1.377 . S
C1267 C1265 1.389 . S
C1267 C1268 1.524 . S
C1268 C1267 1.524 . S
C1268 C1269 1.397 . S
C1268 C1273 1.363 . S
C1269 H1240 0.950 . S
C1269 C1268 1.397 . S
C1269 C1270 1.334 . S
C1270 H1241 0.950 . S
C1270 C1269 1.334 . S
C1270 C1271 1.287 . S
C1271 C1270 1.287 . S
C1271 C1272 1.524 . S
C1271 H1274 0.999 . S
C1272 H1242 0.950 . S
C1272 C1271 1.524 . S
C1272 C1273 1.415 . S
C1273 H1243 0.950 . S
C1273 C1268 1.363 . S
C1273 C1272 1.415 . S
H1274 C1271 0.999 . S
H1275 C1256 0.913 . S
H1276 C1294 0.951 . S
H1277 C1296 0.951 . S
H1278 C1298 0.950 . S
H1279 C1299 0.950 . S
H1280 C1301 0.950 . S
H1281 C1304 0.950 . S
H1282 C1305 0.950 . S
H1283 C1307 0.950 . S
H1284 C1308 0.950 . S
H1285 C1309 0.951 . S
H1286 C1311 0.951 . S
H1287 C1313 0.950 . S
H1288 C1314 0.950 . S
H1289 C1316 0.950 . S
H1290 C1319 0.950 . S
H1291 C1320 0.950 . S
H1292 C1322 0.950 . S
H1293 C1323 0.950 . S
C1294 H1276 0.951 . S
C1294 C1295 1.366 . S
C1294 C1296 1.388 . S
C1295 C1294 1.366 . S
C1295 C1299 1.385 . S
C1296 H1277 0.951 . S
C1296 C1294 1.388 . S
C1296 C1297 1.366 . S
C1297 C1296 1.366 . S
C1297 C1298 1.414 . S
C1297 C1300 1.499 . S
C1298 H1278 0.950 . S
C1298 C1297 1.414 . S
C1298 C1299 1.374 . S
C1299 H1279 0.950 . S
C1299 C1295 1.385 . S
C1299 C1298 1.374 . S
C1300 C1297 1.499 . S
C1300 C1301 1.373 . S
C1300 C1302 1.389 . S
C1301 H1280 0.950 . S
C1301 C1300 1.373 . S
C1301 C1317 1.377 . S
C1302 C1300 1.389 . S
C1302 C1303 1.524 . S
C1302 C1316 1.377 . S
C1303 C1302 1.524 . S
C1303 C1304 1.397 . S
C1303 C1308 1.363 . S
C1304 H1281 0.950 . S
C1304 C1303 1.397 . S
C1304 C1305 1.334 . S
C1305 H1282 0.950 . S
C1305 C1304 1.334 . S
C1305 C1306 1.287 . S
C1306 C1305 1.287 . S
C1306 C1307 1.524 . S
C1306 H1325 0.913 . S
C1307 H1283 0.950 . S
C1307 C1306 1.524 . S
C1307 C1308 1.415 . S
C1308 H1284 0.950 . S
C1308 C1303 1.363 . S
C1308 C1307 1.415 . S
C1309 H1285 0.951 . S
C1309 C1310 1.366 . S
C1309 C1311 1.388 . S
C1310 C1309 1.366 . S
C1310 C1314 1.385 . S
C1311 H1286 0.951 . S
C1311 C1309 1.388 . S
C1311 C1312 1.366 . S
C1312 C1311 1.366 . S
C1312 C1313 1.414 . S
C1312 C1315 1.499 . S
C1313 H1287 0.950 . S
C1313 C1312 1.414 . S
C1313 C1314 1.374 . S
C1314 H1288 0.950 . S
C1314 C1310 1.385 . S
C1314 C1313 1.374 . S
C1315 C1312 1.499 . S
C1315 C1316 1.373 . S
C1315 C1317 1.389 . S
C1316 H1289 0.950 . S
C1316 C1302 1.377 . S
C1316 C1315 1.373 . S
C1317 C1301 1.377 . S
C1317 C1315 1.389 . S
C1317 C1318 1.524 . S
C1318 C1317 1.524 . S
C1318 C1319 1.397 . S
C1318 C1323 1.363 . S
C1319 H1290 0.950 . S
C1319 C1318 1.397 . S
C1319 C1320 1.334 . S
C1320 H1291 0.950 . S
C1320 C1319 1.334 . S
C1320 C1321 1.287 . S
C1321 C1320 1.287 . S
C1321 C1322 1.524 . S
C1321 H1324 0.999 . S
C1322 H1292 0.950 . S
C1322 C1321 1.524 . S
C1322 C1323 1.415 . S
C1323 H1293 0.950 . S
C1323 C1318 1.363 . S
C1323 C1322 1.415 . S
H1324 C1321 0.999 . S
H1325 C1306 0.913 . S
H1326 C1344 0.951 . S
H1327 C1346 0.951 . S
H1328 C1348 0.950 . S
H1329 C1349 0.950 . S
H1330 C1351 0.950 . S
H1331 C1354 0.950 . S
H1332 C1355 0.950 . S
H1333 C1357 0.950 . S
H1334 C1358 0.950 . S
H1335 C1359 0.951 . S
H1336 C1361 0.951 . S
H1337 C1363 0.950 . S
H1338 C1364 0.950 . S
H1339 C1366 0.950 . S
H1340 C1369 0.950 . S
H1341 C1370 0.950 . S
H1342 C1372 0.950 . S
H1343 C1373 0.950 . S
C1344 H1326 0.951 . S
C1344 C1345 1.366 . S
C1344 C1346 1.388 . S
C1345 C1344 1.366 . S
C1345 C1349 1.385 . S
C1346 H1327 0.951 . S
C1346 C1344 1.388 . S
C1346 C1347 1.366 . S
C1347 C1346 1.366 . S
C1347 C1348 1.414 . S
C1347 C1350 1.499 . S
C1348 H1328 0.950 . S
C1348 C1347 1.414 . S
C1348 C1349 1.374 . S
C1349 H1329 0.950 . S
C1349 C1345 1.385 . S
C1349 C1348 1.374 . S
C1350 C1347 1.499 . S
C1350 C1351 1.373 . S
C1350 C1352 1.389 . S
C1351 H1330 0.950 . S
C1351 C1350 1.373 . S
C1351 C1367 1.377 . S
C1352 C1350 1.389 . S
C1352 C1353 1.524 . S
C1352 C1366 1.377 . S
C1353 C1352 1.524 . S
C1353 C1354 1.397 . S
C1353 C1358 1.363 . S
C1354 H1331 0.950 . S
C1354 C1353 1.397 . S
C1354 C1355 1.334 . S
C1355 H1332 0.950 . S
C1355 C1354 1.334 . S
C1355 C1356 1.287 . S
C1356 C1355 1.287 . S
C1356 C1357 1.524 . S
C1356 H1375 0.913 . S
C1357 H1333 0.950 . S
C1357 C1356 1.524 . S
C1357 C1358 1.415 . S
C1358 H1334 0.950 . S
C1358 C1353 1.363 . S
C1358 C1357 1.415 . S
C1359 H1335 0.951 . S
C1359 C1360 1.366 . S
C1359 C1361 1.388 . S
C1360 C1359 1.366 . S
C1360 C1364 1.385 . S
C1361 H1336 0.951 . S
C1361 C1359 1.388 . S
C1361 C1362 1.366 . S
C1362 C1361 1.366 . S
C1362 C1363 1.414 . S
C1362 C1365 1.499 . S
C1363 H1337 0.950 . S
C1363 C1362 1.414 . S
C1363 C1364 1.374 . S
C1364 H1338 0.950 . S
C1364 C1360 1.385 . S
C1364 C1363 1.374 . S
C1365 C1362 1.499 . S
C1365 C1366 1.373 . S
C1365 C1367 1.389 . S
C1366 H1339 0.950 . S
C1366 C1352 1.377 . S
C1366 C1365 1.373 . S
C1367 C1351 1.377 . S
C1367 C1365 1.389 . S
C1367 C1368 1.524 . S
C1368 C1367 1.524 . S
C1368 C1369 1.397 . S
C1368 C1373 1.363 . S
C1369 H1340 0.950 . S
C1369 C1368 1.397 . S
C1369 C1370 1.334 . S
C1370 H1341 0.950 . S
C1370 C1369 1.334 . S
C1370 C1371 1.287 . S
C1371 C1370 1.287 . S
C1371 C1372 1.524 . S
C1371 H1374 0.999 . S
C1372 H1342 0.950 . S
C1372 C1371 1.524 . S
C1372 C1373 1.415 . S
C1373 H1343 0.950 . S
C1373 C1368 1.363 . S
C1373 C1372 1.415 . S
H1374 C1371 0.999 . S
H1375 C1356 0.913 . S
C195 C10 1.073 . S
C210 C128 1.071 . S
C245 C37 1.132 . S
C260 C150 1.145 . S
C295 C59 1.161 . S
C310 C175 1.180 . S
C345 C103 1.092 . S
C360 C84 1.085 . S
C395 C131 1.100 . S
C410 C96 1.095 . S
C445 C147 1.174 . S
C460 C125 1.152 . S
C495 C172 1.152 . S
C510 C153 1.140 . S
C545 C164 1.064 . S
C560 C106 1.065 . S
C595 C140 1.073 . S
C610 C74 1.071 . S
C645 C169 1.132 . S
C660 C8 1.145 . S
C695 C43 1.181 . S
C710 C109 1.162 . S
C745 C51 1.092 . S
C760 C120 1.085 . S
C795 C81 1.100 . S
C810 C54 1.095 . S
C845 C7 1.174 . S
C860 C73 1.153 . S
C895 C40 1.152 . S
C910 C15 1.141 . S
C945 C32 1.064 . S
C960 C52 1.064 . S
C995 C98 0.986 . S
C1010 C18 0.986 . S
C1045 C117 1.085 . S
C1060 C29 1.085 . S
C1095 C65 1.079 . S
C1110 C139 1.079 . S
C1145 C76 0.993 . S
C1160 C162 0.992 . S
C1195 C62 0.986 . S
C1210 C142 0.987 . S
C1245 C87 1.085 . S
C1260 C161 1.085 . S
C1295 C95 1.080 . S
C1310 C21 1.080 . S
C1345 C118 0.992 . S
C1360 C30 0.992 . S
