# Generated by pormake.
# Topology wjc, (7)-cn, num edge types: 1
# Building blocks:
#     Node 0, Type 0, BuildingBlock: HICVOG_clean_sbu_0, # of connection points: 7
#     Node 1, Type 0, BuildingBlock: HICVOG_clean_sbu_0, # of connection points: 7
#     Node 2, Type 0, BuildingBlock: HICVOG_clean_sbu_0, # of connection points: 7
#     Node 3, Type 0, BuildingBlock: HICVOG_clean_sbu_0, # of connection points: 7
#     Node 4, Type 0, BuildingBlock: HICVOG_clean_sbu_0, # of connection points: 7
#     Node 5, Type 0, BuildingBlock: HICVOG_clean_sbu_0, # of connection points: 7
#     Node 6, Type 0, BuildingBlock: HICVOG_clean_sbu_0, # of connection points: 7
#     Node 7, Type 0, BuildingBlock: HICVOG_clean_sbu_0, # of connection points: 7
#     Node 8, Type 0, BuildingBlock: HICVOG_clean_sbu_0, # of connection points: 7
#     Node 9, Type 0, BuildingBlock: HICVOG_clean_sbu_0, # of connection points: 7
#     Node 10, Type 0, BuildingBlock: HICVOG_clean_sbu_0, # of connection points: 7
#     Node 11, Type 0, BuildingBlock: HICVOG_clean_sbu_0, # of connection points: 7
#     Node 12, Type 0, BuildingBlock: HICVOG_clean_sbu_0, # of connection points: 7
#     Node 13, Type 0, BuildingBlock: HICVOG_clean_sbu_0, # of connection points: 7
#     Node 14, Type 0, BuildingBlock: HICVOG_clean_sbu_0, # of connection points: 7
#     Node 15, Type 0, BuildingBlock: HICVOG_clean_sbu_0, # of connection points: 7
#     Node 16, Type 0, BuildingBlock: HICVOG_clean_sbu_0, # of connection points: 7
#     Node 17, Type 0, BuildingBlock: HICVOG_clean_sbu_0, # of connection points: 7
#     Node 18, Type 0, BuildingBlock: HICVOG_clean_sbu_0, # of connection points: 7
#     Node 19, Type 0, BuildingBlock: HICVOG_clean_sbu_0, # of connection points: 7
#     Node 20, Type 0, BuildingBlock: HICVOG_clean_sbu_0, # of connection points: 7
#     Node 21, Type 0, BuildingBlock: HICVOG_clean_sbu_0, # of connection points: 7
#     Node 22, Type 0, BuildingBlock: HICVOG_clean_sbu_0, # of connection points: 7
#     Node 23, Type 0, BuildingBlock: HICVOG_clean_sbu_0, # of connection points: 7
#     Edge 24, Type (0, 0), BuildingBlock: OJICUG_clean_linker_0, # of connection points: 2
#     Edge 25, Type (0, 0), BuildingBlock: OJICUG_clean_linker_0, # of connection points: 2
#     Edge 26, Type (0, 0), BuildingBlock: OJICUG_clean_linker_0, # of connection points: 2
#     Edge 27, Type (0, 0), BuildingBlock: OJICUG_clean_linker_0, # of connection points: 2
#     Edge 28, Type (0, 0), BuildingBlock: OJICUG_clean_linker_0, # of connection points: 2
#     Edge 29, Type (0, 0), BuildingBlock: OJICUG_clean_linker_0, # of connection points: 2
#     Edge 30, Type (0, 0), BuildingBlock: OJICUG_clean_linker_0, # of connection points: 2
#     Edge 31, Type (0, 0), BuildingBlock: OJICUG_clean_linker_0, # of connection points: 2
#     Edge 32, Type (0, 0), BuildingBlock: OJICUG_clean_linker_0, # of connection points: 2
#     Edge 33, Type (0, 0), BuildingBlock: OJICUG_clean_linker_0, # of connection points: 2
#     Edge 34, Type (0, 0), BuildingBlock: OJICUG_clean_linker_0, # of connection points: 2
#     Edge 35, Type (0, 0), BuildingBlock: OJICUG_clean_linker_0, # of connection points: 2
#     Edge 36, Type (0, 0), BuildingBlock: OJICUG_clean_linker_0, # of connection points: 2
#     Edge 37, Type (0, 0), BuildingBlock: OJICUG_clean_linker_0, # of connection points: 2
#     Edge 38, Type (0, 0), BuildingBlock: OJICUG_clean_linker_0, # of connection points: 2
#     Edge 39, Type (0, 0), BuildingBlock: OJICUG_clean_linker_0, # of connection points: 2
#     Edge 40, Type (0, 0), BuildingBlock: OJICUG_clean_linker_0, # of connection points: 2
#     Edge 41, Type (0, 0), BuildingBlock: OJICUG_clean_linker_0, # of connection points: 2
#     Edge 42, Type (0, 0), BuildingBlock: OJICUG_clean_linker_0, # of connection points: 2
#     Edge 43, Type (0, 0), BuildingBlock: OJICUG_clean_linker_0, # of connection points: 2
#     Edge 44, Type (0, 0), BuildingBlock: OJICUG_clean_linker_0, # of connection points: 2
#     Edge 45, Type (0, 0), BuildingBlock: OJICUG_clean_linker_0, # of connection points: 2
#     Edge 46, Type (0, 0), BuildingBlock: OJICUG_clean_linker_0, # of connection points: 2
#     Edge 47, Type (0, 0), BuildingBlock: OJICUG_clean_linker_0, # of connection points: 2
#     Edge 48, Type (0, 0), BuildingBlock: OJICUG_clean_linker_0, # of connection points: 2
#     Edge 49, Type (0, 0), BuildingBlock: OJICUG_clean_linker_0, # of connection points: 2
#     Edge 50, Type (0, 0), BuildingBlock: OJICUG_clean_linker_0, # of connection points: 2
#     Edge 51, Type (0, 0), BuildingBlock: OJICUG_clean_linker_0, # of connection points: 2
#     Edge 52, Type (0, 0), BuildingBlock: OJICUG_clean_linker_0, # of connection points: 2
#     Edge 53, Type (0, 0), BuildingBlock: OJICUG_clean_linker_0, # of connection points: 2
#     Edge 54, Type (0, 0), BuildingBlock: OJICUG_clean_linker_0, # of connection points: 2
#     Edge 55, Type (0, 0), BuildingBlock: OJICUG_clean_linker_0, # of connection points: 2
#     Edge 56, Type (0, 0), BuildingBlock: OJICUG_clean_linker_0, # of connection points: 2
#     Edge 57, Type (0, 0), BuildingBlock: OJICUG_clean_linker_0, # of connection points: 2
#     Edge 58, Type (0, 0), BuildingBlock: OJICUG_clean_linker_0, # of connection points: 2
#     Edge 59, Type (0, 0), BuildingBlock: OJICUG_clean_linker_0, # of connection points: 2
#     Edge 60, Type (0, 0), BuildingBlock: OJICUG_clean_linker_0, # of connection points: 2
#     Edge 61, Type (0, 0), BuildingBlock: OJICUG_clean_linker_0, # of connection points: 2
#     Edge 62, Type (0, 0), BuildingBlock: OJICUG_clean_linker_0, # of connection points: 2
#     Edge 63, Type (0, 0), BuildingBlock: OJICUG_clean_linker_0, # of connection points: 2
#     Edge 64, Type (0, 0), BuildingBlock: OJICUG_clean_linker_0, # of connection points: 2
#     Edge 65, Type (0, 0), BuildingBlock: OJICUG_clean_linker_0, # of connection points: 2
#     Edge 66, Type (0, 0), BuildingBlock: OJICUG_clean_linker_0, # of connection points: 2
#     Edge 67, Type (0, 0), BuildingBlock: OJICUG_clean_linker_0, # of connection points: 2
#     Edge 68, Type (0, 0), BuildingBlock: OJICUG_clean_linker_0, # of connection points: 2
#     Edge 69, Type (0, 0), BuildingBlock: OJICUG_clean_linker_0, # of connection points: 2
#     Edge 70, Type (0, 0), BuildingBlock: OJICUG_clean_linker_0, # of connection points: 2
#     Edge 71, Type (0, 0), BuildingBlock: OJICUG_clean_linker_0, # of connection points: 2
#     Edge 72, Type (0, 0), BuildingBlock: OJICUG_clean_linker_0, # of connection points: 2
#     Edge 73, Type (0, 0), BuildingBlock: OJICUG_clean_linker_0, # of connection points: 2
#     Edge 74, Type (0, 0), BuildingBlock: OJICUG_clean_linker_0, # of connection points: 2
#     Edge 75, Type (0, 0), BuildingBlock: OJICUG_clean_linker_0, # of connection points: 2
#     Edge 76, Type (0, 0), BuildingBlock: OJICUG_clean_linker_0, # of connection points: 2
#     Edge 77, Type (0, 0), BuildingBlock: OJICUG_clean_linker_0, # of connection points: 2
#     Edge 78, Type (0, 0), BuildingBlock: OJICUG_clean_linker_0, # of connection points: 2
#     Edge 79, Type (0, 0), BuildingBlock: OJICUG_clean_linker_0, # of connection points: 2
#     Edge 80, Type (0, 0), BuildingBlock: OJICUG_clean_linker_0, # of connection points: 2
#     Edge 81, Type (0, 0), BuildingBlock: OJICUG_clean_linker_0, # of connection points: 2
#     Edge 82, Type (0, 0), BuildingBlock: OJICUG_clean_linker_0, # of connection points: 2
#     Edge 83, Type (0, 0), BuildingBlock: OJICUG_clean_linker_0, # of connection points: 2
#     Edge 84, Type (0, 0), BuildingBlock: OJICUG_clean_linker_0, # of connection points: 2
#     Edge 85, Type (0, 0), BuildingBlock: OJICUG_clean_linker_0, # of connection points: 2
#     Edge 86, Type (0, 0), BuildingBlock: OJICUG_clean_linker_0, # of connection points: 2
#     Edge 87, Type (0, 0), BuildingBlock: OJICUG_clean_linker_0, # of connection points: 2
#     Edge 88, Type (0, 0), BuildingBlock: OJICUG_clean_linker_0, # of connection points: 2
#     Edge 89, Type (0, 0), BuildingBlock: OJICUG_clean_linker_0, # of connection points: 2
#     Edge 90, Type (0, 0), BuildingBlock: OJICUG_clean_linker_0, # of connection points: 2
#     Edge 91, Type (0, 0), BuildingBlock: OJICUG_clean_linker_0, # of connection points: 2
#     Edge 92, Type (0, 0), BuildingBlock: OJICUG_clean_linker_0, # of connection points: 2
#     Edge 93, Type (0, 0), BuildingBlock: OJICUG_clean_linker_0, # of connection points: 2
#     Edge 94, Type (0, 0), BuildingBlock: OJICUG_clean_linker_0, # of connection points: 2
#     Edge 95, Type (0, 0), BuildingBlock: OJICUG_clean_linker_0, # of connection points: 2
#     Edge 96, Type (0, 0), BuildingBlock: OJICUG_clean_linker_0, # of connection points: 2
#     Edge 97, Type (0, 0), BuildingBlock: OJICUG_clean_linker_0, # of connection points: 2
#     Edge 98, Type (0, 0), BuildingBlock: OJICUG_clean_linker_0, # of connection points: 2
#     Edge 99, Type (0, 0), BuildingBlock: OJICUG_clean_linker_0, # of connection points: 2
#     Edge 100, Type (0, 0), BuildingBlock: OJICUG_clean_linker_0, # of connection points: 2
#     Edge 101, Type (0, 0), BuildingBlock: OJICUG_clean_linker_0, # of connection points: 2
#     Edge 102, Type (0, 0), BuildingBlock: OJICUG_clean_linker_0, # of connection points: 2
#     Edge 103, Type (0, 0), BuildingBlock: OJICUG_clean_linker_0, # of connection points: 2
#     Edge 104, Type (0, 0), BuildingBlock: OJICUG_clean_linker_0, # of connection points: 2
#     Edge 105, Type (0, 0), BuildingBlock: OJICUG_clean_linker_0, # of connection points: 2
#     Edge 106, Type (0, 0), BuildingBlock: OJICUG_clean_linker_0, # of connection points: 2
#     Edge 107, Type (0, 0), BuildingBlock: OJICUG_clean_linker_0, # of connection points: 2
# Relax obj value: 0.237
# Max RMSD: 0.228
# Mean RMSD: 0.228
data_MOF--net-wjc--node1-HICVOG_clean_sbu_0--edge1-OJICUG_clean_linker_0
_symmetry_space_group_name_H-M    P1
_symmetry_Int_Tables_number       1
_symmetry_cell_setting            triclinic
loop_
_symmetry_equiv_pos_as_xyz
'x, y, z'
_cell_length_a     30.782595
_cell_length_b     30.855952
_cell_length_c     63.72661
_cell_angle_alpha  90.466458
_cell_angle_beta   89.775317
_cell_angle_gamma 120.066
loop_
_atom_site_label
_atom_site_type_symbol
_atom_site_fract_x
_atom_site_fract_y
_atom_site_fract_z
_atom_type_partial_charge
Zn0 Zn 0.41579 0.07407 0.1188 0.0
C1 C 0.52227 0.12984 0.16541 0.0
N2 N 0.53217 0.0942 0.15957 0.0
C3 C 0.49761 0.06789 0.14486 0.0
N4 N 0.46544 0.08594 0.14198 0.0
N5 N 0.48052 0.12316 0.15586 0.0
C6 C 0.52168 0.25945 0.16193 0.0
O7 O 0.50825 0.24468 0.14244 0.0
O8 O 0.35389 1.00245 0.12223 0.0
Zn9 Zn 0.44903 0.1583 0.16727 0.0
N10 N 0.45102 0.08144 0.09186 0.0
C11 C 0.52791 0.10173 0.07472 0.0
C12 C 0.50109 0.09784 0.09288 0.0
C13 C 0.42805 0.07408 0.07281 0.0
N14 N 0.5048 0.09317 0.05588 0.0
C15 C 0.45577 0.08044 0.05422 0.0
O16 O 0.40787 0.16877 0.14687 0.0
C17 C 0.38761 0.15835 0.12891 0.0
O18 O 0.38911 0.12524 0.11713 0.0
H19 H 0.52072 0.10869 0.1076 0.0
H20 H 0.38927 0.06476 0.07207 0.0
C21 C 0.40873 0.15478 0.20771 0.0
C22 C 0.38328 0.13282 0.22648 0.0
C23 C 0.36133 0.05274 0.21248 0.0
C24 C 0.38677 0.07487 0.19392 0.0
N25 N 0.41012 0.12541 0.19197 0.0
N26 N 0.36044 0.0821 0.22831 0.0
H27 H 0.42859 0.19497 0.20575 0.0
C28 C 0.31682 0.97689 0.10987 0.0
O29 O 0.31493 0.99597 0.0918 0.0
O30 O 0.50164 0.22779 0.17652 0.0
H31 H 0.38848 0.05215 0.18128 0.0
H32 H 0.56735 0.11326 0.07552 0.0
H33 H 0.34279 0.01256 0.21437 0.0
Zn34 Zn 0.29057 0.45587 0.15801 0.0
C35 C 0.3928 0.47739 0.11262 0.0
N36 N 0.39717 0.52282 0.11211 0.0
C37 C 0.36361 0.51983 0.1262 0.0
N38 N 0.33864 0.47441 0.13502 0.0
N39 N 0.35338 0.44604 0.12507 0.0
C40 C 0.31405 0.29128 0.10302 0.0
O41 O 0.2915 0.28596 0.08495 0.0
O42 O 0.27753 0.51175 0.16548 0.0
Zn43 Zn 0.30109 0.38154 0.11275 0.0
N44 N 0.30923 0.43928 0.18442 0.0
C45 C 0.35901 0.42278 0.20782 0.0
C46 C 0.34899 0.4325 0.18754 0.0
C47 C 0.2791 0.43668 0.20062 0.0
N48 N 0.32885 0.42025 0.22403 0.0
C49 C 0.2886 0.42667 0.22107 0.0
O50 O 0.22813 0.35396 0.12418 0.0
C51 C 0.20278 0.364 0.13729 0.0
O52 O 0.22371 0.40078 0.14989 0.0
H53 H 0.37282 0.43512 0.17451 0.0
H54 H 0.24871 0.44369 0.19744 0.0
C55 C 0.31827 0.39486 0.06618 0.0
C56 C 0.30403 0.40378 0.04633 0.0
C57 C 0.24114 0.41546 0.06255 0.0
C58 C 0.25559 0.40742 0.08204 0.0
N59 N 0.29258 0.39567 0.0836 0.0
N60 N 0.2655 0.41335 0.04523 0.0
H61 H 0.34871 0.38709 0.0677 0.0
C62 C 0.25819 0.52664 0.15187 0.0
O63 O 0.25016 0.50733 0.13285 0.0
O64 O 0.32064 0.32683 0.11544 0.0
H65 H 0.23717 0.41066 0.0959 0.0
H66 H 0.39066 0.4175 0.21067 0.0
H67 H 0.21116 0.42394 0.06118 0.0
Zn68 Zn 0.90357 0.3003 0.11446 0.0
C69 C 0.83249 0.36832 0.13052 0.0
N70 N 0.86258 0.40175 0.11643 0.0
C71 C 0.90187 0.39421 0.11527 0.0
N72 N 0.89302 0.35358 0.12688 0.0
N73 N 0.85139 0.34038 0.13768 0.0
C74 C 0.72202 0.2643 0.15549 0.0
O75 O 0.73288 0.25756 0.13621 0.0
O76 O 0.9765 0.31548 0.11549 0.0
Zn77 Zn 0.82384 0.29276 0.16041 0.0
N78 N 0.88017 0.29158 0.08558 0.0
C79 C 0.80692 0.24576 0.06461 0.0
C80 C 0.82975 0.26007 0.08416 0.0
C81 C 0.90875 0.31123 0.068 0.0
N82 N 0.83521 0.26443 0.04713 0.0
C83 C 0.8855 0.29708 0.04811 0.0
O84 O 0.80962 0.22505 0.15222 0.0
C85 C 0.82383 0.20358 0.13914 0.0
O86 O 0.85793 0.22834 0.12562 0.0
H87 H 0.80742 0.24553 0.09821 0.0
H88 H 0.94874 0.3366 0.06947 0.0
C89 C 0.83836 0.28218 0.20204 0.0
C90 C 0.8612 0.29124 0.22184 0.0
C91 C 0.93401 0.36081 0.20752 0.0
C92 C 0.91097 0.35113 0.18781 0.0
N93 N 0.86354 0.31202 0.18559 0.0
N94 N 0.90865 0.33089 0.22403 0.0
H95 H 0.80021 0.25226 0.19957 0.0
C96 C 0.9936 0.30691 0.13216 0.0
O97 O 0.96453 0.29077 0.1488 0.0
O98 O 0.75638 0.28153 0.16922 0.0
H99 H 0.9304 0.37462 0.17453 0.0
H100 H 0.76696 0.22014 0.06331 0.0
H101 H 0.97169 0.39195 0.20969 0.0
Zn102 Zn 0.52319 0.81303 0.16168 0.0
C103 C 0.50764 0.89952 0.11766 0.0
N104 N 0.45967 0.86273 0.11895 0.0
C105 C 0.46088 0.83181 0.13308 0.0
N106 N 0.50753 0.84757 0.14017 0.0
N107 N 0.53782 0.88841 0.12938 0.0
C108 C 0.68197 0.99112 0.13567 0.0
O109 O 0.66828 0.96421 0.15285 0.0
O110 O 0.46654 0.74262 0.16285 0.0
Zn111 Zn 0.60204 0.89829 0.11773 0.0
N112 N 0.53084 0.84056 0.18959 0.0
C113 C 0.5386 0.90192 0.21436 0.0
C114 C 0.53399 0.88528 0.19362 0.0
C115 C 0.53208 0.8117 0.20535 0.0
N116 N 0.53941 0.8729 0.23014 0.0
C117 C 0.53597 0.82772 0.22636 0.0
O118 O 0.62819 0.853 0.12937 0.0
C119 C 0.61821 0.81905 0.14293 0.0
O120 O 0.58102 0.80395 0.15519 0.0
H121 H 0.53285 0.90763 0.18087 0.0
H122 H 0.53053 0.77691 0.20125 0.0
C123 C 0.60012 0.90428 0.07133 0.0
C124 C 0.59322 0.88178 0.05131 0.0
C125 C 0.56338 0.8027 0.06738 0.0
C126 C 0.56998 0.82486 0.08705 0.0
N127 N 0.58895 0.87512 0.08875 0.0
N128 N 0.57523 0.83156 0.05006 0.0
H129 H 0.61507 0.9442 0.07302 0.0
C130 C 0.45695 0.72053 0.14521 0.0
O131 O 0.48374 0.74487 0.12878 0.0
O132 O 0.65854 0.97128 0.11867 0.0
H133 H 0.56097 0.80221 0.10098 0.0
H134 H 0.54129 0.93752 0.21792 0.0
H135 H 0.54898 0.76284 0.06587 0.0
Zn136 Zn 0.66483 0.57333 0.12169 0.0
C137 C 0.59908 0.4642 0.16643 0.0
N138 N 0.5561 0.45766 0.15871 0.0
C139 C 0.57014 0.49281 0.14391 0.0
N140 N 0.62118 0.5226 0.14306 0.0
N141 N 0.63832 0.50474 0.15782 0.0
C142 C 0.72125 0.45662 0.15421 0.0
O143 O 0.71516 0.47793 0.13758 0.0
O144 O 0.65883 0.63652 0.12385 0.0
Zn145 Zn 0.70429 0.52904 0.16958 0.0
N146 N 0.6399 0.54358 0.09405 0.0
C147 C 0.58962 0.47096 0.07326 0.0
C148 C 0.60951 0.49309 0.09262 0.0
C149 C 0.65341 0.57264 0.07656 0.0
N150 N 0.60321 0.49978 0.05583 0.0
C151 C 0.63528 0.55013 0.05672 0.0
O152 O 0.76122 0.57594 0.15205 0.0
C153 C 0.77451 0.59809 0.1346 0.0
O154 O 0.74207 0.5972 0.12181 0.0
H155 H 0.60071 0.47 0.10638 0.0
H156 H 0.67843 0.61259 0.07814 0.0
C157 C 0.74031 0.55823 0.21175 0.0
C158 C 0.74535 0.58252 0.2312 0.0
C159 C 0.6884 0.60794 0.21914 0.0
C160 C 0.68376 0.58393 0.20002 0.0
N161 N 0.7098 0.55973 0.19669 0.0
N162 N 0.71884 0.60664 0.23416 0.0
H163 H 0.7596 0.53779 0.20848 0.0
C164 C 0.6722 0.66531 0.13987 0.0
O165 O 0.69005 0.65397 0.15631 0.0
O166 O 0.71695 0.47165 0.17228 0.0
H167 H 0.65971 0.5846 0.18786 0.0
H168 H 0.56459 0.43094 0.07199 0.0
H169 H 0.66798 0.62748 0.22207 0.0
Zn170 Zn 0.16959 0.70654 0.16922 0.0
C171 C 0.06814 0.57067 0.14599 0.0
N172 N 0.09223 0.55881 0.16031 0.0
C173 C 0.13093 0.60255 0.16625 0.0
N174 N 0.12727 0.64034 0.15771 0.0
N175 N 0.08974 0.62152 0.14391 0.0
C176 C 0.98191 0.66123 0.11234 0.0
O177 O 0.99976 0.67917 0.0937 0.0
O178 O 0.23963 0.71857 0.17189 0.0
Zn179 Zn 0.08076 0.66287 0.12169 0.0
N180 N 0.14641 0.71435 0.19661 0.0
C181 C 0.07792 0.69663 0.21914 0.0
C182 C 0.09612 0.69121 0.19986 0.0
C183 C 0.17957 0.74304 0.21191 0.0
N184 N 0.11079 0.72516 0.23438 0.0
C185 C 0.16149 0.749 0.23151 0.0
O186 O 0.13369 0.74069 0.12151 0.0
C187 C 0.16728 0.77354 0.13373 0.0
O188 O 0.17817 0.76105 0.15091 0.0
H189 H 0.07047 0.66884 0.1875 0.0
H190 H 0.2193 0.76027 0.20874 0.0
C191 C 0.0832 0.65629 0.07558 0.0
C192 C 0.08848 0.63602 0.05642 0.0
C193 C 0.10499 0.58007 0.07539 0.0
C194 C 0.10172 0.60154 0.09416 0.0
N195 N 0.08825 0.63737 0.09414 0.0
N196 N 0.0984 0.59777 0.05703 0.0
H197 H 0.07631 0.68733 0.07571 0.0
C198 C 0.25898 0.72225 0.15392 0.0
O199 O 0.23176 0.7166 0.13718 0.0
O200 O 1.00899 0.6533 0.1252 0.0
H201 H 0.1108 0.58997 0.10855 0.0
H202 H 0.03795 0.67838 0.22201 0.0
H203 H 0.11429 0.55059 0.07537 0.0
Zn204 Zn 0.90398 0.6072 0.40885 0.0
C205 C 0.8329 0.46805 0.39277 0.0
N206 N 0.86304 0.46471 0.40684 0.0
C207 C 0.90227 0.51156 0.40803 0.0
N208 N 0.89336 0.54333 0.39644 0.0
N209 N 0.85171 0.51489 0.38564 0.0
C210 C 0.72218 0.46153 0.36788 0.0
O211 O 0.73306 0.4791 0.38717 0.0
O212 O 0.9769 0.66491 0.40779 0.0
Zn213 Zn 0.82402 0.53492 0.36295 0.0
N214 N 0.88069 0.59258 0.43774 0.0
C215 C 0.80753 0.5653 0.45874 0.0
C216 C 0.83029 0.57373 0.43918 0.0
C217 C 0.90933 0.60156 0.45531 0.0
N218 N 0.83588 0.57498 0.47621 0.0
C219 C 0.88616 0.59257 0.47521 0.0
O220 O 0.8098 0.58839 0.37117 0.0
C221 C 0.82409 0.62411 0.38423 0.0
O222 O 0.85828 0.63351 0.39772 0.0
H223 H 0.8079 0.56589 0.42514 0.0
H224 H 0.94932 0.61613 0.45382 0.0
C225 C 0.83833 0.55996 0.3213 0.0
C226 C 0.86111 0.57378 0.3015 0.0
C227 C 0.93407 0.57724 0.31579 0.0
C228 C 0.9111 0.56385 0.3355 0.0
N229 N 0.86362 0.55539 0.33774 0.0
N230 N 0.90862 0.58172 0.29928 0.0
H231 H 0.80015 0.55163 0.32378 0.0
C232 C 0.99391 0.69068 0.39114 0.0
O233 O 0.96473 0.67789 0.37454 0.0
O234 O 0.75653 0.47869 0.35415 0.0
H235 H 0.93061 0.55986 0.34878 0.0
H236 H 0.76758 0.55101 0.46006 0.0
H237 H 0.97179 0.58389 0.31361 0.0
Zn238 Zn 0.29068 0.83848 0.36502 0.0
C239 C 0.39314 0.91878 0.41041 0.0
N240 N 0.39739 0.87764 0.41084 0.0
C241 C 0.36378 0.84724 0.39674 0.0
N242 N 0.3389 0.86787 0.38797 0.0
N243 N 0.35376 0.91094 0.39798 0.0
C244 C 0.31399 0.02628 0.42003 0.0
O245 O 0.29035 1.00865 0.43787 0.0
O246 O 0.27755 0.76956 0.35748 0.0
Zn247 Zn 0.30159 0.92327 0.41035 0.0
N248 N 0.30921 0.8738 0.33864 0.0
C249 C 0.35888 0.94012 0.31525 0.0
C250 C 0.34896 0.92034 0.33552 0.0
C251 C 0.27901 0.84633 0.32244 0.0
N252 N 0.32865 0.91255 0.29905 0.0
C253 C 0.28841 0.86588 0.30201 0.0
O254 O 0.22854 0.87798 0.39901 0.0
C255 C 0.20308 0.84264 0.38589 0.0
O256 O 0.22389 0.82678 0.37323 0.0
H257 H 0.37285 0.94152 0.34854 0.0
H258 H 0.24863 0.80893 0.32562 0.0
C259 C 0.31846 0.92712 0.45694 0.0
C260 C 0.30426 0.9038 0.47676 0.0
C261 C 0.24219 0.82898 0.4604 0.0
C262 C 0.25662 0.85164 0.44094 0.0
N263 N 0.29318 0.90056 0.43947 0.0
N264 N 0.26616 0.8555 0.47777 0.0
H265 H 0.34856 0.96551 0.45549 0.0
C266 C 0.25817 0.73535 0.37109 0.0
O267 O 0.25012 0.74664 0.39011 0.0
O268 O 0.3213 0.99757 0.40775 0.0
H269 H 0.2385 0.83 0.42703 0.0
H270 H 0.39052 0.97706 0.3124 0.0
H271 H 0.21255 0.79038 0.4617 0.0
Zn272 Zn 0.44925 0.29454 0.356 0.0
C273 C 0.49767 0.43343 0.37852 0.0
N274 N 0.53229 0.44177 0.36383 0.0
C275 C 0.52241 0.39629 0.35792 0.0
N276 N 0.4806 0.36117 0.3674 0.0
N277 N 0.46546 0.3832 0.38132 0.0
C278 C 0.31664 0.34317 0.41334 0.0
O279 O 0.31453 0.32184 0.43134 0.0
O280 O 0.50193 0.27774 0.34676 0.0
Zn281 Zn 0.41585 0.34532 0.40449 0.0
N282 N 0.41023 0.28838 0.33131 0.0
C283 C 0.36122 0.31206 0.31083 0.0
C284 C 0.38676 0.31547 0.32938 0.0
C285 C 0.40885 0.25762 0.31558 0.0
N286 N 0.36033 0.28181 0.29501 0.0
C287 C 0.38329 0.25403 0.29682 0.0
O288 O 0.3893 0.2675 0.40616 0.0
C289 C 0.38798 0.23298 0.39437 0.0
O290 O 0.40826 0.24294 0.37642 0.0
H291 H 0.38845 0.33989 0.34202 0.0
H292 H 0.42881 0.23738 0.31753 0.0
C293 C 0.42811 0.3579 0.45049 0.0
C294 C 0.45589 0.3793 0.46906 0.0
C295 C 0.52811 0.42965 0.44854 0.0
C296 C 0.50122 0.40666 0.43039 0.0
N297 N 0.4511 0.37322 0.43142 0.0
N298 N 0.50498 0.41536 0.46738 0.0
H299 H 0.38926 0.32863 0.45124 0.0
C300 C 0.52194 0.26612 0.36137 0.0
O301 O 0.5085 0.26751 0.38085 0.0
O302 O 0.3539 0.35498 0.40105 0.0
H303 H 0.52083 0.41522 0.41567 0.0
H304 H 0.34258 0.33362 0.30895 0.0
H305 H 0.5676 0.45738 0.44772 0.0
Zn306 Zn 0.16981 0.46683 0.354 0.0
C307 C 0.06852 0.50144 0.37731 0.0
N308 N 0.09252 0.53733 0.36298 0.0
C309 C 0.13112 0.53219 0.35697 0.0
N310 N 0.12749 0.49074 0.36549 0.0
N311 N 0.09004 0.4721 0.37933 0.0
C312 C 0.98313 0.3232 0.41039 0.0
O313 O 1.00244 0.32083 0.42837 0.0
O314 O 0.23992 0.52475 0.35149 0.0
Zn315 Zn 0.08099 0.42172 0.40152 0.0
N316 N 0.14676 0.43608 0.32656 0.0
C317 C 0.07829 0.38558 0.30397 0.0
C318 C 0.09648 0.40903 0.32328 0.0
C319 C 0.17994 0.44062 0.31125 0.0
N320 N 0.11116 0.38998 0.28873 0.0
C321 C 0.16185 0.41674 0.29162 0.0
O322 O 0.13379 0.39666 0.4017 0.0
C323 C 0.16729 0.39729 0.38946 0.0
O324 O 0.17819 0.42068 0.37228 0.0
H325 H 0.07082 0.4057 0.33565 0.0
H326 H 0.21966 0.46304 0.31444 0.0
C327 C 0.08244 0.43054 0.44763 0.0
C328 C 0.08795 0.45624 0.46677 0.0
C329 C 0.10609 0.52911 0.44774 0.0
C330 C 0.10269 0.50422 0.429 0.0
N331 N 0.08841 0.45471 0.42906 0.0
N332 N 0.0988 0.50471 0.46612 0.0
H333 H 0.07466 0.39231 0.44755 0.0
C334 C 0.25908 0.54021 0.36951 0.0
O335 O 0.23164 0.51853 0.38618 0.0
O336 O 1.00917 0.35979 0.39805 0.0
H337 H 0.11223 0.52486 0.4146 0.0
H338 H 0.03831 0.36394 0.30109 0.0
H339 H 0.11605 0.56808 0.44773 0.0
Zn340 Zn 0.66539 0.0952 0.40158 0.0
C341 C 0.5992 0.13853 0.35695 0.0
N342 N 0.5563 0.10203 0.36469 0.0
C343 C 0.5705 0.08092 0.37943 0.0
N344 N 0.62157 0.10226 0.38024 0.0
N345 N 0.63854 0.13732 0.36551 0.0
C346 C 0.72124 0.26853 0.36911 0.0
O347 O 0.71521 0.24115 0.38575 0.0
O348 O 0.65926 0.02595 0.39943 0.0
Zn349 Zn 0.70439 0.17917 0.35373 0.0
N350 N 0.64058 0.10014 0.42923 0.0
C351 C 0.59017 0.12241 0.44997 0.0
C352 C 0.61011 0.12018 0.43063 0.0
C353 C 0.65415 0.0847 0.44675 0.0
N354 N 0.60377 0.10726 0.46741 0.0
C355 C 0.63594 0.08907 0.46656 0.0
O356 O 0.76124 0.18926 0.37128 0.0
C357 C 0.77489 0.18029 0.38863 0.0
O358 O 0.74272 0.14847 0.40141 0.0
H359 H 0.60128 0.1344 0.41686 0.0
H360 H 0.67926 0.06987 0.4452 0.0
C361 C 0.74051 0.18602 0.31158 0.0
C362 C 0.74562 0.16677 0.29215 0.0
C363 C 0.68874 0.08441 0.30419 0.0
C364 C 0.68402 0.10378 0.32331 0.0
N365 N 0.71001 0.15402 0.32663 0.0
N366 N 0.71919 0.11616 0.28918 0.0
H367 H 0.75975 0.22574 0.31485 0.0
C368 C 0.67218 0.0103 0.38335 0.0
O369 O 0.68964 0.0393 0.36684 0.0
O370 O 0.71688 0.24916 0.35104 0.0
H371 H 0.65996 0.07907 0.33546 0.0
H372 H 0.56507 0.13733 0.45121 0.0
H373 H 0.66837 0.04446 0.30127 0.0
Zn374 Zn 0.52314 0.7132 0.36176 0.0
C375 C 0.50783 0.61176 0.40601 0.0
N376 N 0.45988 0.60074 0.40485 0.0
C377 C 0.46096 0.63275 0.39068 0.0
N378 N 0.50753 0.66344 0.38346 0.0
N379 N 0.53791 0.6529 0.3942 0.0
C380 C 0.68205 0.69452 0.38781 0.0
O381 O 0.66821 0.70762 0.37063 0.0
O382 O 0.46638 0.72681 0.36031 0.0
Zn383 Zn 0.60212 0.70737 0.40577 0.0
N384 N 0.53116 0.69276 0.33402 0.0
C385 C 0.53783 0.63762 0.30971 0.0
C386 C 0.53388 0.6508 0.33035 0.0
C387 C 0.53257 0.72233 0.318 0.0
N388 N 0.53889 0.66697 0.29367 0.0
C389 C 0.53664 0.70945 0.29717 0.0
O390 O 0.62807 0.77867 0.39402 0.0
C391 C 0.61801 0.80249 0.38041 0.0
O392 O 0.58084 0.78026 0.36815 0.0
H393 H 0.5325 0.62767 0.3433 0.0
H394 H 0.52921 0.75485 0.32161 0.0
C395 C 0.60023 0.6996 0.45217 0.0
C396 C 0.59335 0.71525 0.47217 0.0
C397 C 0.56368 0.76462 0.45607 0.0
C398 C 0.57024 0.749 0.43641 0.0
N399 N 0.58913 0.71762 0.43473 0.0
N400 N 0.57547 0.74758 0.47341 0.0
H401 H 0.61508 0.67453 0.45049 0.0
C402 C 0.45681 0.73964 0.37788 0.0
O403 O 0.48368 0.74248 0.39436 0.0
O404 O 0.6587 0.69098 0.40482 0.0
H405 H 0.56124 0.76262 0.42247 0.0
H406 H 0.53975 0.60417 0.30644 0.0
H407 H 0.54935 0.79014 0.45757 0.0
Zn408 Zn 0.61292 0.9441 0.9046 0.0
C409 C 0.50642 0.88847 0.85799 0.0
N410 N 0.49657 0.92412 0.86385 0.0
C411 C 0.53114 0.9504 0.87856 0.0
N412 N 0.56327 0.9323 0.88142 0.0
N413 N 0.54816 0.8951 0.86753 0.0
C414 C 0.50693 0.75878 0.86142 0.0
O415 O 0.52037 0.77352 0.88091 0.0
O416 O 0.67486 0.01571 0.90116 0.0
Zn417 Zn 0.57961 0.85994 0.8561 0.0
N418 N 0.57769 0.93673 0.93154 0.0
C419 C 0.50078 0.91645 0.94866 0.0
C420 C 0.52762 0.92032 0.93051 0.0
C421 C 0.60064 0.94409 0.9506 0.0
N422 N 0.52387 0.92502 0.96751 0.0
C423 C 0.5729 0.93775 0.96918 0.0
O424 O 0.62075 0.8494 0.87649 0.0
C425 C 0.64102 0.85977 0.89445 0.0
O426 O 0.63955 0.89288 0.90624 0.0
H427 H 0.50801 0.90947 0.91578 0.0
H428 H 0.63941 0.95341 0.95135 0.0
C429 C 0.6199 0.86351 0.81565 0.0
C430 C 0.64533 0.8855 0.79688 0.0
C431 C 0.66729 0.96556 0.81091 0.0
C432 C 0.64187 0.94339 0.82947 0.0
N433 N 0.61852 0.89285 0.8314 0.0
N434 N 0.66817 0.93623 0.79507 0.0
H435 H 0.60003 0.82332 0.8176 0.0
C436 C 0.71189 0.04132 0.91353 0.0
O437 O 0.7137 0.02232 0.93163 0.0
O438 O 0.52697 0.79046 0.84684 0.0
H439 H 0.64017 0.9661 0.84212 0.0
H440 H 0.46135 0.90492 0.94785 0.0
H441 H 0.68583 1.00574 0.80903 0.0
Zn442 Zn 0.73815 0.56231 0.86521 0.0
C443 C 0.63581 0.54057 0.91058 0.0
N444 N 0.63143 0.49513 0.91105 0.0
C445 C 0.66503 0.4982 0.89696 0.0
N446 N 0.69003 0.54366 0.88818 0.0
N447 N 0.67525 0.57198 0.89815 0.0
C448 C 0.71458 0.72678 0.92023 0.0
O449 O 0.73725 0.73214 0.93828 0.0
O450 O 0.75121 0.50646 0.85771 0.0
Zn451 Zn 0.7275 0.6365 0.91049 0.0
N452 N 0.71952 0.57904 0.83884 0.0
C453 C 0.66977 0.59568 0.81548 0.0
C454 C 0.67976 0.58583 0.83574 0.0
C455 C 0.74968 0.58175 0.82263 0.0
N456 N 0.69996 0.59831 0.79926 0.0
C457 C 0.74021 0.59188 0.8022 0.0
O458 O 0.80049 0.66413 0.89909 0.0
C459 C 0.82588 0.65413 0.88598 0.0
O460 O 0.80499 0.61737 0.87337 0.0
H461 H 0.65591 0.58313 0.84877 0.0
H462 H 0.78007 0.57472 0.82579 0.0
C463 C 0.71031 0.62318 0.95705 0.0
C464 C 0.72454 0.61424 0.9769 0.0
C465 C 0.78737 0.60247 0.96068 0.0
C466 C 0.77293 0.61052 0.94118 0.0
N467 N 0.73597 0.62234 0.93963 0.0
N468 N 0.76302 0.60461 0.978 0.0
H469 H 0.6799 0.631 0.95553 0.0
C470 C 0.77055 0.49159 0.87132 0.0
O471 O 0.77857 0.5109 0.89034 0.0
O472 O 0.70791 0.69119 0.90782 0.0
H473 H 0.79133 0.60727 0.92733 0.0
H474 H 0.63812 0.60098 0.81264 0.0
H475 H 0.81731 0.59395 0.96205 0.0
Zn476 Zn 0.12509 0.71788 0.90886 0.0
C477 C 0.19615 0.64986 0.8928 0.0
N478 N 0.16603 0.6164 0.90688 0.0
C479 C 0.12674 0.62395 0.90803 0.0
N480 N 0.13563 0.6646 0.89643 0.0
N481 N 0.17728 0.67781 0.88565 0.0
C482 C 0.30664 0.75389 0.86784 0.0
O483 O 0.29575 0.76059 0.88713 0.0
O484 O 0.05216 0.70269 0.90784 0.0
Zn485 Zn 0.20484 0.72544 0.86292 0.0
N486 N 0.14852 0.72658 0.93773 0.0
C487 C 0.22181 0.77236 0.95868 0.0
C488 C 0.19894 0.75807 0.93914 0.0
C489 C 0.11997 0.70695 0.95531 0.0
N490 N 0.19354 0.7537 0.97617 0.0
C491 C 0.14324 0.72107 0.97521 0.0
O492 O 0.21908 0.79315 0.87112 0.0
C493 C 0.20485 0.81462 0.88419 0.0
O494 O 0.17073 0.78985 0.89771 0.0
H495 H 0.22126 0.7726 0.92508 0.0
H496 H 0.07996 0.68159 0.95385 0.0
C497 C 0.19025 0.73604 0.8213 0.0
C498 C 0.16737 0.72699 0.80151 0.0
C499 C 0.09459 0.65741 0.81584 0.0
C500 C 0.11767 0.66709 0.83554 0.0
N501 N 0.16511 0.7062 0.83774 0.0
N502 N 0.11991 0.68735 0.79932 0.0
H503 H 0.22841 0.76597 0.82375 0.0
C504 C 0.03507 0.71127 0.89116 0.0
O505 O 0.06415 0.72742 0.87453 0.0
O506 O 0.2723 0.73668 0.8541 0.0
H507 H 0.09828 0.64359 0.84882 0.0
H508 H 0.26177 0.79796 0.95997 0.0
H509 H 0.05691 0.62627 0.81368 0.0
Zn510 Zn 0.42661 0.11991 0.9057 0.0
C511 C 0.56786 0.18645 0.89057 0.0
N512 N 0.56898 0.15552 0.90474 0.0
C513 C 0.52101 0.11867 0.90595 0.0
N514 N 0.49094 0.12982 0.89418 0.0
N515 N 0.52126 0.17065 0.88341 0.0
C516 C 0.57186 0.29753 0.87798 0.0
O517 O 0.54496 0.27337 0.89443 0.0
O518 O 0.37012 0.04691 0.90472 0.0
Zn519 Zn 0.50565 0.20488 0.86174 0.0
N520 N 0.43947 0.14307 0.93467 0.0
C521 C 0.4647 0.21543 0.95605 0.0
C522 C 0.45825 0.19331 0.93638 0.0
C523 C 0.42835 0.11392 0.9521 0.0
N524 N 0.45291 0.18655 0.97337 0.0
C525 C 0.43513 0.13637 0.97211 0.0
O526 O 0.44787 0.21413 0.86812 0.0
C527 C 0.41065 0.19912 0.88036 0.0
O528 O 0.40059 0.16522 0.89395 0.0
H529 H 0.46727 0.21597 0.92245 0.0
H530 H 0.41357 0.07402 0.9504 0.0
C531 C 0.49626 0.20475 0.81797 0.0
C532 C 0.49227 0.18788 0.79712 0.0
C533 C 0.49136 0.11497 0.80962 0.0
C534 C 0.49521 0.132 0.83027 0.0
N535 N 0.49776 0.17659 0.83397 0.0
N536 N 0.49021 0.14325 0.7936 0.0
H537 H 0.49948 0.24055 0.8216 0.0
C538 C 0.34676 0.02707 0.88771 0.0
O539 O 0.36052 0.05398 0.87053 0.0
O540 O 0.56235 0.27526 0.86039 0.0
H541 H 0.49666 0.11025 0.8432 0.0
H542 H 0.47895 0.25525 0.95757 0.0
H543 H 0.48957 0.07966 0.80633 0.0
Zn544 Zn 0.3244 0.48922 0.85366 0.0
C545 C 0.45852 0.52533 0.87934 0.0
N546 N 0.47258 0.56056 0.86458 0.0
C547 C 0.42962 0.55404 0.85685 0.0
N548 N 0.39036 0.51344 0.86542 0.0
N549 N 0.40748 0.49549 0.88016 0.0
C550 C 0.35676 0.35297 0.88329 0.0
O551 O 0.33928 0.36452 0.8668 0.0
O552 O 0.31178 0.54664 0.85101 0.0
Zn553 Zn 0.36381 0.44477 0.90153 0.0
N554 N 0.31886 0.45861 0.82652 0.0
C555 C 0.34032 0.41054 0.80402 0.0
C556 C 0.34496 0.43449 0.82316 0.0
C557 C 0.2883 0.4601 0.81149 0.0
N558 N 0.30981 0.41183 0.78902 0.0
C559 C 0.28325 0.43588 0.79203 0.0
O560 O 0.28657 0.4209 0.9014 0.0
C561 C 0.25415 0.42008 0.88862 0.0
O562 O 0.26746 0.44229 0.87118 0.0
H563 H 0.36906 0.43383 0.8353 0.0
H564 H 0.26896 0.48048 0.8148 0.0
C565 C 0.3752 0.44545 0.94667 0.0
C566 C 0.39331 0.46795 0.9665 0.0
C567 C 0.43897 0.54713 0.94997 0.0
C568 C 0.41909 0.525 0.93061 0.0
N569 N 0.38872 0.47451 0.92917 0.0
N570 N 0.42537 0.51831 0.9674 0.0
H571 H 0.35019 0.4055 0.94509 0.0
C572 C 0.30744 0.56161 0.86909 0.0
O573 O 0.31351 0.54025 0.88571 0.0
O574 O 0.36979 0.38156 0.89937 0.0
H575 H 0.4279 0.54809 0.91685 0.0
H576 H 0.36078 0.39105 0.80106 0.0
H577 H 0.46399 0.58715 0.95124 0.0
Zn578 Zn 0.94792 0.35528 0.90162 0.0
C579 C 0.89771 0.41552 0.85703 0.0
N580 N 0.93643 0.45926 0.86296 0.0
C581 C 0.96049 0.44744 0.87729 0.0
N582 N 0.93885 0.39659 0.87941 0.0
N583 N 0.90133 0.37774 0.86561 0.0
C584 C 0.76975 0.29581 0.86954 0.0
O585 O 0.79712 0.30156 0.88623 0.0
O586 O 0.0197 0.3649 0.89807 0.0
Zn587 Zn 0.85902 0.31152 0.85411 0.0
N588 N 0.9405 0.3808 0.92918 0.0
C589 C 0.92376 0.43809 0.94794 0.0
C590 C 0.92701 0.41662 0.92917 0.0
C591 C 0.94558 0.3619 0.94773 0.0
N592 N 0.93038 0.4204 0.96629 0.0
C593 C 0.94031 0.38216 0.9669 0.0
O594 O 0.85057 0.25701 0.8724 0.0
C595 C 0.86148 0.24456 0.88959 0.0
O596 O 0.89503 0.27746 0.90181 0.0
H597 H 0.91792 0.42818 0.91478 0.0
H598 H 0.9525 0.33087 0.94761 0.0
C599 C 0.8489 0.27515 0.81139 0.0
C600 C 0.86695 0.26926 0.79176 0.0
C601 C 0.95054 0.32156 0.80411 0.0
C602 C 0.93238 0.3269 0.82342 0.0
N603 N 0.88211 0.30377 0.82669 0.0
N604 N 0.91764 0.2931 0.78888 0.0
H605 H 0.80919 0.25793 0.81457 0.0
C606 C 0.04672 0.35676 0.91089 0.0
O607 O 0.02877 0.33852 0.92948 0.0
O608 O 0.78895 0.29942 0.85154 0.0
H609 H 0.95806 0.34922 0.83578 0.0
H610 H 0.91445 0.46756 0.94796 0.0
H611 H 0.99051 0.3398 0.80124 0.0
Zn612 Zn 0.20426 0.48344 0.66035 0.0
C613 C 0.12617 0.50683 0.61521 0.0
N614 N 0.16547 0.55364 0.61636 0.0
C615 C 0.19553 0.5503 0.63047 0.0
N616 N 0.1766 0.50348 0.63764 0.0
N617 N 0.13496 0.47503 0.62684 0.0
C618 C 0.03455 0.32771 0.63218 0.0
O619 O 0.06373 0.34059 0.64878 0.0
O620 O 0.27173 0.53969 0.66915 0.0
Zn621 Zn 0.12442 0.41119 0.61441 0.0
N622 N 0.16469 0.46297 0.68557 0.0
C623 C 0.09429 0.44115 0.70755 0.0
C624 C 0.11721 0.45453 0.68782 0.0
C625 C 0.19 0.4584 0.70199 0.0
N626 N 0.11978 0.43667 0.72404 0.0
C627 C 0.16727 0.44459 0.7218 0.0
O628 O 0.17018 0.38496 0.62554 0.0
C629 C 0.20434 0.39434 0.63905 0.0
O630 O 0.21854 0.43001 0.65213 0.0
H631 H 0.09768 0.45852 0.67456 0.0
H632 H 0.22818 0.46672 0.69949 0.0
C633 C 0.11889 0.41681 0.56796 0.0
C634 C 0.14196 0.42574 0.54804 0.0
C635 C 0.22065 0.45294 0.56445 0.0
C636 C 0.19799 0.44457 0.58403 0.0
N637 N 0.1476 0.42577 0.58551 0.0
N638 N 0.19223 0.44327 0.547 0.0
H639 H 0.07891 0.40229 0.56948 0.0
C640 C 0.3061 0.55681 0.65543 0.0
O641 O 0.29525 0.5392 0.63615 0.0
O642 O 0.05153 0.35343 0.61551 0.0
H643 H 0.22043 0.45239 0.59805 0.0
H644 H 0.05658 0.43451 0.70975 0.0
H645 H 0.26059 0.46718 0.5631 0.0
Zn646 Zn 0.7378 0.17993 0.65821 0.0
C647 C 0.63538 0.09939 0.61285 0.0
N648 N 0.63113 0.14052 0.61234 0.0
C649 C 0.66475 0.17103 0.62642 0.0
N650 N 0.68964 0.15048 0.63524 0.0
N651 N 0.67478 0.10735 0.62529 0.0
C652 C 0.71499 0.99219 0.60334 0.0
O653 O 0.73965 0.0101 0.58573 0.0
O654 O 0.75093 0.24886 0.66571 0.0
Zn655 Zn 0.72699 0.09505 0.61294 0.0
N656 N 0.71921 0.14465 0.6846 0.0
C657 C 0.66946 0.07837 0.70799 0.0
C658 C 0.67942 0.09814 0.68772 0.0
C659 C 0.74941 0.17212 0.7008 0.0
N660 N 0.69969 0.10594 0.7242 0.0
C661 C 0.73996 0.15258 0.72124 0.0
O662 O 0.80001 0.14026 0.62432 0.0
C663 C 0.82544 0.17566 0.63743 0.0
O664 O 0.8046 0.19159 0.65003 0.0
H665 H 0.65553 0.07697 0.6747 0.0
H666 H 0.77982 0.20949 0.69762 0.0
C667 C 0.7103 0.09126 0.56636 0.0
C668 C 0.72453 0.11461 0.54655 0.0
C669 C 0.78649 0.18944 0.56293 0.0
C670 C 0.77203 0.16677 0.58239 0.0
N671 N 0.73549 0.11783 0.58384 0.0
N672 N 0.76259 0.16293 0.54555 0.0
H673 H 0.68025 0.05285 0.5678 0.0
C674 C 0.77028 0.28307 0.6521 0.0
O675 O 0.77831 0.27178 0.63308 0.0
O676 O 0.70708 0.02072 0.61548 0.0
H677 H 0.79009 0.18839 0.5963 0.0
H678 H 0.63779 0.04146 0.71084 0.0
H679 H 0.81611 0.22806 0.56164 0.0
Zn680 Zn 0.61245 0.67297 0.6189 0.0
C681 C 0.50587 0.62212 0.66547 0.0
N682 N 0.49604 0.57662 0.6596 0.0
C683 C 0.53063 0.58493 0.6449 0.0
N684 N 0.56277 0.63515 0.64206 0.0
N685 N 0.54764 0.65722 0.65595 0.0
C686 C 0.5063 0.75221 0.66203 0.0
O687 O 0.51969 0.7508 0.64255 0.0
O688 O 0.67437 0.66328 0.62235 0.0
Zn689 Zn 0.57904 0.72383 0.66735 0.0
N690 N 0.57724 0.64504 0.59196 0.0
C691 C 0.50029 0.58858 0.57482 0.0
C692 C 0.52712 0.61155 0.59298 0.0
C693 C 0.60026 0.66042 0.57291 0.0
N694 N 0.52345 0.60293 0.55599 0.0
C695 C 0.57253 0.63903 0.55433 0.0
O696 O 0.61988 0.77535 0.64689 0.0
C697 C 0.64017 0.78529 0.62894 0.0
O698 O 0.63899 0.75079 0.61718 0.0
H699 H 0.50748 0.60294 0.60769 0.0
H700 H 0.63909 0.68972 0.57217 0.0
C701 C 0.61958 0.76078 0.70775 0.0
C702 C 0.64523 0.7644 0.72648 0.0
C703 C 0.66736 0.70645 0.71242 0.0
C704 C 0.64172 0.70301 0.6939 0.0
N705 N 0.61819 0.73005 0.692 0.0
N706 N 0.66826 0.73668 0.72826 0.0
H707 H 0.59957 0.78098 0.70583 0.0
C708 C 0.71167 0.67519 0.61007 0.0
O709 O 0.71384 0.69669 0.59211 0.0
O710 O 0.52638 0.74064 0.67663 0.0
H711 H 0.64001 0.67861 0.68125 0.0
H712 H 0.46081 0.56081 0.57562 0.0
H713 H 0.68606 0.68494 0.71427 0.0
Zn714 Zn 0.85874 0.55158 0.66931 0.0
C715 C 0.96005 0.51708 0.64596 0.0
N716 N 0.93607 0.48116 0.66028 0.0
C717 C 0.89744 0.48624 0.6663 0.0
N718 N 0.90104 0.52769 0.65779 0.0
N719 N 0.93847 0.54637 0.64395 0.0
C720 C 0.04557 0.69485 0.6127 0.0
O721 O 0.02671 0.69651 0.5945 0.0
O722 O 0.78868 0.49361 0.67197 0.0
Zn723 Zn 0.94742 0.59672 0.62175 0.0
N724 N 0.88197 0.58252 0.69671 0.0
C725 C 0.9505 0.63324 0.71923 0.0
C726 C 0.93226 0.60967 0.69994 0.0
C727 C 0.84883 0.578 0.71202 0.0
N728 N 0.91767 0.62886 0.73449 0.0
C729 C 0.86697 0.60201 0.73163 0.0
O730 O 0.89456 0.6217 0.62159 0.0
C731 C 0.86101 0.62096 0.63384 0.0
O732 O 0.85017 0.59755 0.65102 0.0
H733 H 0.95789 0.61299 0.68757 0.0
H734 H 0.8091 0.55551 0.70887 0.0
C735 C 0.94566 0.5878 0.57564 0.0
C736 C 0.94022 0.56213 0.5565 0.0
C737 C 0.9225 0.48938 0.57552 0.0
C738 C 0.92587 0.51425 0.59426 0.0
N739 N 0.93995 0.56371 0.59421 0.0
N740 N 0.92962 0.51375 0.55715 0.0
H741 H 0.95318 0.62595 0.57572 0.0
C742 C 0.76934 0.478 0.65399 0.0
O743 O 0.79657 0.49959 0.63726 0.0
O744 O 0.01922 0.65876 0.62522 0.0
H745 H 0.91644 0.49361 0.60867 0.0
H746 H 0.99048 0.65497 0.72209 0.0
H747 H 0.91271 0.45046 0.57554 0.0
Zn748 Zn 0.36314 0.92315 0.62172 0.0
C749 C 0.42906 0.87979 0.66645 0.0
N750 N 0.47201 0.91629 0.65875 0.0
C751 C 0.45791 0.9374 0.64397 0.0
N752 N 0.40685 0.91608 0.64311 0.0
N753 N 0.38978 0.88103 0.65784 0.0
C754 C 0.30693 0.74982 0.65417 0.0
O755 O 0.31299 0.77722 0.63754 0.0
O756 O 0.36925 0.99238 0.62385 0.0
Zn757 Zn 0.32387 0.83921 0.66957 0.0
N758 N 0.38806 0.91822 0.59409 0.0
C759 C 0.43853 0.89596 0.57338 0.0
C760 C 0.41853 0.89819 0.59271 0.0
C761 C 0.37454 0.93367 0.57656 0.0
N762 N 0.42496 0.91111 0.55593 0.0
C763 C 0.39279 0.9293 0.55676 0.0
O764 O 0.26705 0.82921 0.65201 0.0
C765 C 0.25354 0.83817 0.63463 0.0
O766 O 0.28582 0.86988 0.62185 0.0
H767 H 0.42733 0.88397 0.6065 0.0
H768 H 0.34943 0.94851 0.57809 0.0
C769 C 0.28781 0.83231 0.71174 0.0
C770 C 0.28267 0.85154 0.73117 0.0
C771 C 0.33935 0.93393 0.71909 0.0
C772 C 0.34409 0.91458 0.69998 0.0
N773 N 0.31822 0.86433 0.69668 0.0
N774 N 0.30899 0.90216 0.73412 0.0
H775 H 0.26866 0.79258 0.70848 0.0
C776 C 0.35597 1.00789 0.63987 0.0
O777 O 0.33814 0.97875 0.65632 0.0
O778 O 0.31129 0.76918 0.67225 0.0
H779 H 0.36807 0.93931 0.68782 0.0
H780 H 0.46363 0.88104 0.57216 0.0
H781 H 0.35963 0.97389 0.722 0.0
Zn782 Zn 0.50513 0.30469 0.66167 0.0
C783 C 0.52068 0.40666 0.61762 0.0
N784 N 0.56866 0.41784 0.61892 0.0
C785 C 0.56745 0.38574 0.63307 0.0
N786 N 0.5208 0.35486 0.64015 0.0
N787 N 0.49051 0.36539 0.62935 0.0
C788 C 0.34633 0.32386 0.63556 0.0
O789 O 0.36001 0.31061 0.65274 0.0
O790 O 0.56181 0.29097 0.6629 0.0
Zn791 Zn 0.42634 0.31105 0.61766 0.0
N792 N 0.49741 0.32455 0.68957 0.0
C793 C 0.48946 0.37804 0.71434 0.0
C794 C 0.4941 0.36604 0.6936 0.0
C795 C 0.49633 0.29453 0.70533 0.0
N796 N 0.48881 0.3483 0.73013 0.0
C797 C 0.49242 0.30665 0.72634 0.0
O798 O 0.4002 0.23963 0.62931 0.0
C799 C 0.41018 0.21568 0.64288 0.0
O800 O 0.44734 0.23778 0.65516 0.0
H801 H 0.49512 0.38947 0.68085 0.0
H802 H 0.498 0.26135 0.70124 0.0
C803 C 0.42837 0.31896 0.57126 0.0
C804 C 0.43533 0.30337 0.55126 0.0
C805 C 0.46516 0.25415 0.56736 0.0
C806 C 0.4585 0.2697 0.58702 0.0
N807 N 0.4395 0.30099 0.5887 0.0
N808 N 0.45333 0.27115 0.55002 0.0
H809 H 0.41341 0.34394 0.57293 0.0
C810 C 0.5715 0.27848 0.64528 0.0
O811 O 0.54478 0.276 0.62881 0.0
O812 O 0.3698 0.3275 0.61857 0.0
H813 H 0.46749 0.25608 0.60096 0.0
H814 H 0.48663 0.41088 0.7179 0.0
H815 H 0.47958 0.2287 0.56587 0.0
C816 C 0.24028 0.89277 0.10109 0.0
C817 C 0.27581 0.92582 0.11588 0.0
H818 H 0.17785 0.81879 0.0949 0.0
C819 C 0.27203 0.90942 0.1366 0.0
H820 H 0.24192 0.90422 0.08496 0.0
C821 C 0.23496 0.86118 0.14232 0.0
C822 C 0.20059 0.82707 0.12747 0.0
H823 H 0.2981 0.93377 0.14849 0.0
H824 H 0.23434 0.85024 0.15847 0.0
C825 C 0.20323 0.84384 0.10679 0.0
C826 C 0.32834 0.21825 0.09545 0.0
C827 C 0.33136 0.25579 0.10923 0.0
H828 H 0.34352 0.15776 0.09061 0.0
C829 C 0.35132 0.25938 0.12932 0.0
H830 H 0.31312 0.21437 0.07981 0.0
C831 C 0.36805 0.22694 0.1355 0.0
C832 C 0.36591 0.18971 0.12178 0.0
H833 H 0.35425 0.28751 0.14042 0.0
H834 H 0.3834 0.2318 0.15117 0.0
C835 C 0.34559 0.18564 0.10163 0.0
C836 C 0.06883 0.3209 0.15278 0.0
C837 C 0.04582 0.31593 0.1332 0.0
H838 H 0.13645 0.33939 0.16938 0.0
C839 C 0.07348 0.32032 0.11489 0.0
H840 H 0.0487 0.31761 0.16721 0.0
C841 C 0.12359 0.3313 0.11618 0.0
C842 C 0.14729 0.33909 0.1358 0.0
H843 H 0.05674 0.31626 0.09956 0.0
H844 H 0.14464 0.33681 0.10183 0.0
C845 C 0.11903 0.33292 0.15406 0.0
C846 C 0.77264 0.12104 0.1567 0.0
C847 C 0.79448 0.14809 0.13826 0.0
H848 H 0.7207 0.05056 0.17034 0.0
C849 C 0.78142 0.12241 0.11893 0.0
H850 H 0.78169 0.13987 0.17182 0.0
C851 C 0.74533 0.07121 0.11801 0.0
C852 C 0.72237 0.04455 0.13645 0.0
H853 H 0.79699 0.14244 0.10443 0.0
H854 H 0.73476 0.05273 0.10284 0.0
C855 C 0.73747 0.06985 0.15583 0.0
C856 C 0.66016 0.73108 0.12187 0.0
C857 C 0.66528 0.70971 0.14047 0.0
H858 H 0.6434 0.78438 0.10808 0.0
C859 C 0.66179 0.73002 0.15981 0.0
H860 H 0.66299 0.71653 0.10672 0.0
C861 C 0.65009 0.76842 0.16057 0.0
C862 C 0.64304 0.78847 0.14202 0.0
H863 H 0.66559 0.71455 0.17443 0.0
H864 H 0.64444 0.78103 0.17572 0.0
C865 C 0.6497 0.77045 0.12264 0.0
C866 C 0.89676 0.65019 0.10312 0.0
C867 C 0.92975 0.64871 0.11809 0.0
H868 H 0.82208 0.63577 0.09638 0.0
C869 C 0.91195 0.634 0.13858 0.0
H870 H 0.90917 0.66146 0.08715 0.0
C871 C 0.86248 0.61995 0.14388 0.0
C872 C 0.82871 0.61963 0.12883 0.0
H873 H 0.93608 0.63268 0.15058 0.0
H874 H 0.85046 0.60811 0.15984 0.0
C875 C 0.84679 0.63569 0.10841 0.0
C876 C 0.12406 0.79603 0.40707 0.0
C877 C 0.1476 0.8121 0.38744 0.0
H878 H 0.05733 0.74412 0.42373 0.0
C879 C 0.11919 0.7902 0.3692 0.0
H880 H 0.14524 0.81142 0.42142 0.0
C881 C 0.06899 0.75204 0.37049 0.0
C882 C 0.04613 0.73386 0.39009 0.0
H883 H 0.13648 0.80127 0.35386 0.0
H884 H 0.04873 0.73535 0.35607 0.0
C885 C 0.07395 0.75693 0.40839 0.0
C886 C 0.34472 0.16321 0.42136 0.0
C887 C 0.36652 0.17995 0.40147 0.0
H888 H 0.31082 0.10153 0.44291 0.0
C889 C 0.37015 0.14533 0.38798 0.0
H890 H 0.34146 0.18863 0.43221 0.0
C891 C 0.35325 0.09611 0.3941 0.0
C892 C 0.33165 0.0792 0.41391 0.0
H893 H 0.38676 0.15623 0.37253 0.0
H894 H 0.35731 0.07129 0.38317 0.0
C895 C 0.3273 0.11328 0.42749 0.0
C896 C 0.23508 0.37745 0.38089 0.0
C897 C 0.20056 0.377 0.39571 0.0
H898 H 0.29828 0.36807 0.37475 0.0
C899 C 0.20302 0.36262 0.41636 0.0
H900 H 0.23461 0.38798 0.36475 0.0
C901 C 0.24002 0.35065 0.42207 0.0
C902 C 0.27568 0.35331 0.40732 0.0
H903 H 0.17752 0.36214 0.42824 0.0
H904 H 0.24151 0.34064 0.43819 0.0
C905 C 0.27209 0.36619 0.38662 0.0
C906 C 0.9118 0.28314 0.38467 0.0
C907 C 0.93065 0.28416 0.40477 0.0
H908 H 0.84941 0.24954 0.36381 0.0
C909 C 0.89845 0.24818 0.41946 0.0
H910 H 0.93529 0.30983 0.37289 0.0
C911 C 0.84825 0.21314 0.41429 0.0
C912 C 0.82918 0.21302 0.39426 0.0
H913 H 0.91169 0.24776 0.43513 0.0
H914 H 0.82418 0.18701 0.42611 0.0
C915 C 0.86216 0.24813 0.37948 0.0
C916 C 0.64984 0.88275 0.40062 0.0
C917 C 0.64278 0.8579 0.38125 0.0
H918 H 0.66353 0.95013 0.41651 0.0
C919 C 0.64948 0.88485 0.36268 0.0
H920 H 0.64384 0.86266 0.41519 0.0
C921 C 0.66124 0.93496 0.36342 0.0
C922 C 0.66515 0.95894 0.38276 0.0
H923 H 0.64354 0.86647 0.34755 0.0
H924 H 0.66476 0.9541 0.34879 0.0
C925 C 0.66037 0.93261 0.40136 0.0
C926 C 0.73755 0.67136 0.36761 0.0
C927 C 0.72251 0.68156 0.387 0.0
H928 H 0.78178 0.64561 0.35159 0.0
C929 C 0.74557 0.67792 0.40542 0.0
H930 H 0.72071 0.67385 0.35311 0.0
C931 C 0.7817 0.66285 0.40448 0.0
C932 C 0.79471 0.65023 0.38513 0.0
H933 H 0.73504 0.68583 0.4206 0.0
H934 H 0.79734 0.65843 0.41897 0.0
C935 C 0.77277 0.6554 0.36671 0.0
C936 C 0.82547 0.17437 0.91657 0.0
C937 C 0.82819 0.19105 0.89587 0.0
H938 H 0.7867 0.11409 0.93844 0.0
C939 C 0.79388 0.15687 0.88102 0.0
H940 H 0.85081 0.19948 0.92847 0.0
C941 C 0.7568 0.10865 0.88676 0.0
C942 C 0.75293 0.09235 0.9075 0.0
H943 H 0.79457 0.16775 0.86485 0.0
H944 H 0.73078 0.08425 0.87487 0.0
C945 C 0.7884 0.12547 0.92229 0.0
C946 C 0.68313 0.83248 0.92167 0.0
C947 C 0.66269 0.82837 0.90155 0.0
H948 H 0.71571 0.80377 0.94345 0.0
C949 C 0.66042 0.79108 0.88784 0.0
H950 H 0.68531 0.8604 0.9327 0.0
C951 C 0.67715 0.75863 0.89399 0.0
C952 C 0.69725 0.76227 0.91405 0.0
H953 H 0.64496 0.78619 0.87218 0.0
H954 H 0.67412 0.73046 0.88289 0.0
C955 C 0.70038 0.79985 0.92783 0.0
C956 C 0.95515 0.69779 0.90842 0.0
C957 C 0.98284 0.70223 0.89012 0.0
H958 H 0.88396 0.68125 0.92147 0.0
C959 C 0.95986 0.69729 0.87053 0.0
H960 H 0.97187 0.70182 0.92375 0.0
C961 C 0.90966 0.68526 0.86925 0.0
C962 C 0.88137 0.67905 0.8875 0.0
H963 H 0.98002 0.70063 0.85611 0.0
H964 H 0.89227 0.67883 0.85392 0.0
C965 C 0.90504 0.6868 0.90712 0.0
C966 C 0.28333 0.94697 0.90535 0.0
C967 C 0.30635 0.97364 0.88691 0.0
H968 H 0.23162 0.87574 0.91891 0.0
C969 C 0.2913 0.94835 0.86753 0.0
H970 H 0.29386 0.96544 0.92052 0.0
C971 C 0.25612 0.89717 0.86665 0.0
C972 C 0.23422 0.87011 0.88508 0.0
H973 H 0.30811 0.96765 0.85303 0.0
H974 H 0.2471 0.87835 0.85153 0.0
C975 C 0.24723 0.89577 0.90442 0.0
C976 C 0.36748 0.28842 0.86337 0.0
C977 C 0.36367 0.30856 0.8827 0.0
H978 H 0.38504 0.23752 0.84749 0.0
C979 C 0.36847 0.287 0.90131 0.0
H980 H 0.36394 0.30403 0.84874 0.0
C981 C 0.37891 0.24762 0.90056 0.0
C982 C 0.38588 0.22977 0.8812 0.0
H983 H 0.36538 0.30141 0.91646 0.0
H984 H 0.38494 0.23354 0.91513 0.0
C985 C 0.37915 0.25001 0.86263 0.0
C986 C 0.11675 0.38431 0.88467 0.0
C987 C 0.09889 0.36935 0.90513 0.0
H988 H 0.17828 0.41043 0.86342 0.0
C989 C 0.13183 0.36768 0.92007 0.0
H990 H 0.09265 0.38578 0.87269 0.0
C991 C 0.18181 0.38223 0.91478 0.0
C992 C 0.19995 0.39853 0.89438 0.0
H993 H 0.11938 0.35623 0.93602 0.0
H994 H 0.20649 0.38199 0.92679 0.0
C995 C 0.16622 0.3984 0.87937 0.0
C996 C 0.90448 0.2222 0.61626 0.0
C997 C 0.88092 0.2062 0.63589 0.0
H998 H 0.97121 0.27409 0.5996 0.0
C999 C 0.90929 0.2282 0.65413 0.0
H1000 H 0.88332 0.20674 0.60191 0.0
C1001 C 0.95948 0.26638 0.65283 0.0
C1002 C 0.98235 0.2845 0.63324 0.0
H1003 H 0.89197 0.21718 0.66946 0.0
H1004 H 0.9797 0.28314 0.66725 0.0
C1005 C 0.95457 0.26132 0.61494 0.0
C1006 C 0.68488 0.85544 0.6022 0.0
C1007 C 0.66145 0.83827 0.62179 0.0
H1008 H 0.72042 0.91756 0.58093 0.0
C1009 C 0.65629 0.87246 0.63498 0.0
H1010 H 0.68935 0.83035 0.5916 0.0
C1011 C 0.67346 0.92173 0.62888 0.0
C1012 C 0.69686 0.93914 0.6094 0.0
H1013 H 0.63829 0.86119 0.65017 0.0
H1014 H 0.66824 0.94623 0.63957 0.0
C1015 C 0.70257 0.90543 0.5961 0.0
C1016 C 0.78833 0.6678 0.60132 0.0
C1017 C 0.7526 0.66499 0.61607 0.0
H1018 H 0.85088 0.65641 0.59512 0.0
C1019 C 0.75609 0.65189 0.63674 0.0
H1020 H 0.78691 0.67798 0.58522 0.0
C1021 C 0.79309 0.64059 0.64244 0.0
C1022 C 0.82769 0.64121 0.62762 0.0
H1023 H 0.72985 0.64989 0.6486 0.0
H1024 H 0.79349 0.62991 0.65856 0.0
C1025 C 0.82531 0.65579 0.60699 0.0
C1026 C 0.11643 0.73587 0.63862 0.0
C1027 C 0.09795 0.73409 0.61836 0.0
H1028 H 0.17849 0.7702 0.65963 0.0
C1029 C 0.13043 0.7695 0.60356 0.0
H1030 H 0.0927 0.70966 0.65049 0.0
C1031 C 0.18056 0.80468 0.60877 0.0
C1032 C 0.19928 0.80549 0.62895 0.0
H1033 H 0.11748 0.76934 0.58777 0.0
H1034 H 0.20486 0.8303 0.59686 0.0
C1035 C 0.166 0.77102 0.64384 0.0
C1036 C 0.36652 0.08308 0.65979 0.0
C1037 C 0.36298 0.05924 0.64045 0.0
H1038 H 0.38394 0.15147 0.67569 0.0
C1039 C 0.36813 0.08572 0.62185 0.0
H1040 H 0.3627 0.06383 0.67441 0.0
C1041 C 0.37865 0.13557 0.62261 0.0
C1042 C 0.38534 0.16028 0.64198 0.0
H1043 H 0.36526 0.06831 0.6067 0.0
H1044 H 0.38495 0.15578 0.60805 0.0
C1045 C 0.37827 0.13319 0.66054 0.0
C1046 C 0.24683 0.35568 0.61882 0.0
C1047 C 0.23372 0.36823 0.63816 0.0
H1048 H 0.29355 0.33273 0.60273 0.0
C1049 C 0.25556 0.36298 0.6566 0.0
H1050 H 0.23126 0.36016 0.60432 0.0
C1051 C 0.29076 0.347 0.65572 0.0
C1052 C 0.3059 0.33686 0.63634 0.0
H1053 H 0.24647 0.37272 0.67172 0.0
H1054 H 0.30751 0.34444 0.67024 0.0
C1055 C 0.28294 0.34059 0.6179 0.0
C1056 C 0.41018 0.10648 0.02952 0.0
C1057 C 0.43632 0.08075 0.033 0.0
H1058 H 0.38914 0.14409 1.00714 0.0
C1059 C 0.45325 0.065 0.01556 0.0
H1060 H 0.39731 0.1198 0.04258 0.0
C1061 C 0.44807 0.0785 0.99519 0.0
C1062 C 0.42664 0.10874 0.99198 0.0
H1063 H 0.47367 0.04523 0.0178 0.0
H1064 H 0.46491 0.06918 0.98224 0.0
C1065 C 0.40581 0.12071 1.00921 0.0
C1066 C 0.38234 0.44142 0.02475 0.0
C1067 C 0.33082 0.40715 0.02658 0.0
H1068 H 0.44284 0.48737 1.00399 0.0
C1069 C 0.30252 0.38588 1.00826 0.0
H1070 H 0.40484 0.45892 0.03861 0.0
C1071 C 0.32405 0.40203 0.98846 0.0
C1072 C 0.37436 0.44031 0.98657 0.0
H1073 H 0.26257 0.35964 1.00928 0.0
H1074 H 0.29982 0.38775 0.97485 0.0
C1075 C 0.40387 0.45805 1.0049 0.0
C1076 C 0.9428 0.37017 0.02573 0.0
C1077 C 0.91229 0.31823 0.02813 0.0
H1078 H 0.97603 0.43127 1.00412 0.0
C1079 C 0.89922 0.2872 1.01024 0.0
H1080 H 0.95292 0.39502 0.0392 0.0
C1081 C 0.91282 0.30781 0.99018 0.0
C1082 C 0.9391 0.35999 0.98762 0.0
H1083 H 0.87559 0.24698 0.01167 0.0
H1084 H 0.89882 0.28293 0.97671 0.0
C1085 C 0.95573 0.39088 1.00563 0.0
C1086 C 0.61835 0.91163 0.99391 0.0
C1087 C 0.59231 0.93744 0.9904 0.0
H1088 H 0.63922 0.87393 0.01631 0.0
C1089 C 0.5754 0.95327 1.00783 0.0
H1090 H 0.63119 0.89825 0.98086 0.0
C1091 C 0.58051 0.93976 0.02821 0.0
C1092 C 0.60182 0.90943 0.03144 0.0
H1093 H 0.55506 0.97311 1.00557 0.0
H1094 H 0.56368 0.94914 0.04114 0.0
C1095 C 0.62264 0.89739 0.01423 0.0
C1096 C 0.62471 0.56004 0.01833 0.0
C1097 C 0.65423 0.57778 0.03666 0.0
H1098 H 0.62371 0.55916 0.98463 0.0
C1099 C 0.70456 0.61603 0.03477 0.0
H1100 H 0.58573 0.53074 0.01925 0.0
C1101 C 0.72607 0.63217 0.01497 0.0
C1102 C 0.69776 0.61091 0.99665 0.0
H1103 H 0.72878 0.6303 0.04837 0.0
H1104 H 0.76602 0.65839 0.01394 0.0
C1105 C 0.64623 0.57666 0.99848 0.0
C1106 C 0.11599 0.71037 0.03313 0.0
C1107 C 0.0897 0.65819 0.03569 0.0
H1108 H 0.15321 0.77119 1.01164 0.0
C1109 C 0.07305 0.6273 0.01769 0.0
H1110 H 0.13 0.73525 0.04661 0.0
C1111 C 0.08596 0.648 0.99759 0.0
C1112 C 0.11648 0.69993 0.99518 0.0
H1113 H 0.05274 0.58691 0.0192 0.0
H1114 H 0.07581 0.62314 0.98412 0.0
C1115 C 0.12957 0.73097 0.01308 0.0
C1116 C 0.95583 0.56853 0.51778 0.0
C1117 C 0.93944 0.5832 0.53574 0.0
H1118 H 0.95295 0.5613 0.48422 0.0
C1119 C 0.91366 0.60959 0.5331 0.0
H1120 H 0.97573 0.54806 0.51935 0.0
C1121 C 0.90024 0.61666 0.51302 0.0
C1122 C 0.913 0.59825 0.49518 0.0
H1123 H 0.89986 0.6208 0.54654 0.0
H1124 H 0.87692 0.63358 0.51152 0.0
C1125 C 0.94308 0.57636 0.49765 0.0
C1126 C 0.40366 0.95 0.5184 0.0
C1127 C 0.37391 0.93792 0.53666 0.0
H1128 H 0.40502 0.95027 0.4847 0.0
C1129 C 0.32348 0.92544 0.53467 0.0
H1130 H 0.44271 0.95998 0.5194 0.0
C1131 C 0.30212 0.91995 0.51482 0.0
C1132 C 0.3307 0.92732 0.49656 0.0
H1133 H 0.2991 0.91525 0.54822 0.0
H1134 H 0.26211 0.90589 0.51371 0.0
C1135 C 0.38229 0.94501 0.4985 0.0
C1136 C 0.44828 0.37404 0.5281 0.0
C1137 C 0.42675 0.3224 0.53137 0.0
H1138 H 0.47396 0.43273 0.5054 0.0
C1139 C 0.4058 0.28948 0.51418 0.0
H1140 H 0.46521 0.40027 0.54101 0.0
C1141 C 0.41015 0.30792 0.49384 0.0
C1142 C 0.4364 0.35976 0.49029 0.0
H1143 H 0.38907 0.24944 0.51631 0.0
H1144 H 0.3972 0.28163 0.48082 0.0
C1145 C 0.45345 0.39257 0.50769 0.0
C1146 C 0.08514 0.44212 0.52562 0.0
C1147 C 0.11505 0.42004 0.52809 0.0
H1148 H 0.05265 0.4706 0.50392 0.0
C1149 C 0.12761 0.40146 0.51026 0.0
H1150 H 0.07542 0.45732 0.53905 0.0
C1151 C 0.11419 0.40853 0.49017 0.0
C1152 C 0.08861 0.43513 0.48753 0.0
H1153 H 0.1508 0.38438 0.51175 0.0
H1154 H 0.12786 0.39718 0.47674 0.0
C1155 C 0.07239 0.44996 0.50549 0.0
C1156 C 0.62512 0.06827 0.50491 0.0
C1157 C 0.65487 0.08046 0.48664 0.0
H1158 H 0.62376 0.06794 0.53861 0.0
C1159 C 0.70534 0.09306 0.48863 0.0
H1160 H 0.58604 0.0582 0.50391 0.0
C1161 C 0.72672 0.09858 0.50848 0.0
C1162 C 0.69812 0.0911 0.52673 0.0
H1163 H 0.72971 0.10333 0.47507 0.0
H1164 H 0.76674 0.11273 0.50958 0.0
C1165 C 0.6465 0.07328 0.5248 0.0
C1166 C 0.62276 0.729 0.50926 0.0
C1167 C 0.60183 0.69614 0.49205 0.0
H1168 H 0.63128 0.73674 0.54262 0.0
C1169 C 0.58026 0.64448 0.4953 0.0
H1170 H 0.63953 0.76905 0.50715 0.0
C1171 C 0.57503 0.62588 0.51569 0.0
C1172 C 0.59205 0.65865 0.53311 0.0
H1173 H 0.56335 0.61829 0.48237 0.0
H1174 H 0.55449 0.58571 0.51796 0.0
C1175 C 0.61835 0.71049 0.52958 0.0
C1176 C 0.3818 0.20836 0.24114 0.0
C1177 C 0.3823 0.16356 0.24441 0.0
H1178 H 0.38147 0.27163 0.25507 0.0
C1179 C 0.38168 0.14797 0.26514 0.0
H1180 H 0.38104 0.22102 0.22542 0.0
C1181 C 0.38196 0.17707 0.28217 0.0
C1182 C 0.38231 0.2223 0.27889 0.0
H1183 H 0.38173 0.11353 0.26823 0.0
H1184 H 0.38133 0.16372 0.29788 0.0
C1185 C 0.38153 0.23719 0.25816 0.0
C1186 C 0.27586 0.43472 0.25979 0.0
C1187 C 0.25635 0.42384 0.23926 0.0
H1188 H 0.26246 0.44089 0.29235 0.0
C1189 C 0.20569 0.41 0.23637 0.0
H1190 H 0.31453 0.44509 0.2627 0.0
C1191 C 0.17593 0.40829 0.25333 0.0
C1192 C 0.19545 0.41997 0.27385 0.0
H1193 H 0.18833 0.39963 0.22104 0.0
H1194 H 0.13728 0.39773 0.25022 0.0
C1195 C 0.24592 0.43288 0.27686 0.0
C1196 C 0.84324 0.27905 0.26061 0.0
C1197 C 0.83391 0.25916 0.24013 0.0
H1198 H 0.82407 0.26645 0.2931 0.0
C1199 C 0.79743 0.20847 0.23723 0.0
H1200 H 0.87149 0.31778 0.26345 0.0
C1201 C 0.76951 0.17916 0.25413 0.0
C1202 C 0.77731 0.19927 0.27458 0.0
H1203 H 0.79025 0.19099 0.22187 0.0
H1204 H 0.74125 0.1406 0.251 0.0
C1205 C 0.81534 0.24954 0.27764 0.0
C1206 C 0.51612 0.74485 0.2426 0.0
C1207 C 0.53661 0.79712 0.24433 0.0
H1208 H 0.50032 0.67675 0.25775 0.0
C1209 C 0.55721 0.82025 0.26376 0.0
H1210 H 0.49849 0.72493 0.22825 0.0
C1211 C 0.55754 0.79218 0.28086 0.0
C1212 C 0.53708 0.74002 0.27907 0.0
H1213 H 0.57358 0.86032 0.26576 0.0
H1214 H 0.57457 0.81167 0.29538 0.0
C1215 C 0.51677 0.71687 0.25966 0.0
C1216 C 0.76914 0.59388 0.26922 0.0
C1217 C 0.77705 0.58173 0.24876 0.0
H1218 H 0.78985 0.6027 0.30149 0.0
C1219 C 0.8152 0.56965 0.24569 0.0
H1220 H 0.74077 0.60403 0.27236 0.0
C1221 C 0.84315 0.56808 0.26272 0.0
C1222 C 0.83373 0.5785 0.28322 0.0
H1223 H 0.82401 0.5616 0.23023 0.0
H1224 H 0.87151 0.55775 0.25987 0.0
C1225 C 0.7971 0.59252 0.28612 0.0
C1226 C 0.24557 0.81695 0.24624 0.0
C1227 C 0.1951 0.77942 0.24926 0.0
H1228 H 0.31422 0.87334 0.26036 0.0
C1229 C 0.17562 0.77166 0.26979 0.0
H1230 H 0.26207 0.82543 0.23074 0.0
C1231 C 0.20543 0.79973 0.28673 0.0
C1232 C 0.25609 0.83649 0.28383 0.0
H1233 H 0.13698 0.7436 0.27291 0.0
H1234 H 0.18812 0.79279 0.30207 0.0
C1235 C 0.27555 0.84507 0.26329 0.0
C1236 C 0.64708 0.7812 0.76515 0.0
C1237 C 0.64624 0.7961 0.74443 0.0
H1238 H 0.64764 0.79733 0.7979 0.0
C1239 C 0.64655 0.84132 0.74117 0.0
H1240 H 0.64718 0.74677 0.76822 0.0
C1241 C 0.64685 0.87039 0.75821 0.0
C1242 C 0.64629 0.85479 0.77893 0.0
H1243 H 0.64713 0.85468 0.72546 0.0
H1244 H 0.64676 0.90483 0.75514 0.0
C1245 C 0.64684 0.81 0.78219 0.0
C1246 C 0.75297 0.58396 0.76347 0.0
C1247 C 0.77248 0.59481 0.78401 0.0
H1248 H 0.76637 0.57787 0.73091 0.0
C1249 C 0.82315 0.60868 0.78689 0.0
H1250 H 0.71429 0.57358 0.76056 0.0
C1251 C 0.85292 0.61044 0.76993 0.0
C1252 C 0.83339 0.59878 0.7494 0.0
H1253 H 0.8405 0.61903 0.80222 0.0
H1254 H 0.89157 0.62102 0.77303 0.0
C1255 C 0.78291 0.58585 0.7464 0.0
C1256 C 0.25894 0.83912 0.7692 0.0
C1257 C 0.25107 0.81903 0.74875 0.0
H1258 H 0.23831 0.82725 0.80147 0.0
C1259 C 0.21305 0.76875 0.74569 0.0
H1260 H 0.2872 0.87768 0.77233 0.0
C1261 C 0.18521 0.73922 0.76273 0.0
C1262 C 0.1946 0.7591 0.78322 0.0
H1263 H 0.20427 0.75186 0.73023 0.0
H1264 H 0.15696 0.7005 0.75989 0.0
C1265 C 0.23108 0.80979 0.78611 0.0
C1266 C 0.51211 0.21528 0.75963 0.0
C1267 C 0.49174 0.218 0.77904 0.0
H1268 H 0.53029 0.24165 0.72823 0.0
C1269 C 0.47111 0.24957 0.78084 0.0
H1270 H 0.52868 0.19172 0.75771 0.0
C1271 C 0.47132 0.27793 0.76374 0.0
C1272 C 0.49195 0.27549 0.74431 0.0
H1273 H 0.45404 0.25195 0.79536 0.0
H1274 H 0.45481 0.30152 0.76575 0.0
C1275 C 0.51262 0.24387 0.74257 0.0
C1276 C 0.25932 0.42449 0.75402 0.0
C1277 C 0.25149 0.43667 0.77448 0.0
H1278 H 0.23851 0.41563 0.72176 0.0
C1279 C 0.21336 0.44876 0.77758 0.0
H1280 H 0.28767 0.41431 0.75085 0.0
C1281 C 0.18536 0.45033 0.76057 0.0
C1282 C 0.1947 0.43988 0.74007 0.0
H1283 H 0.2046 0.45683 0.79305 0.0
H1284 H 0.15702 0.46067 0.76344 0.0
C1285 C 0.23131 0.42583 0.73713 0.0
C1286 C 0.85278 0.24671 0.75347 0.0
C1287 C 0.83331 0.23891 0.774 0.0
H1288 H 0.84027 0.22563 0.72119 0.0
C1289 C 0.78283 0.20142 0.77702 0.0
H1290 H 0.89143 0.27474 0.75036 0.0
C1291 C 0.75283 0.17335 0.75996 0.0
C1292 C 0.77229 0.18194 0.73942 0.0
H1293 H 0.76632 0.19291 0.79251 0.0
H1294 H 0.71415 0.1451 0.76288 0.0
C1295 C 0.82296 0.21869 0.73652 0.0
C1296 C 0.54959 0.03002 0.13459 0.0
C1297 C 0.50441 0.03107 0.13206 0.0
H1298 H 0.58697 0.98787 0.13164 0.0
C1299 C 0.46745 0.99535 0.11887 0.0
H1300 H 0.58035 0.05815 0.14388 0.0
C1301 C 0.47325 0.9563 0.11055 0.0
C1302 C 0.51477 0.95081 0.11629 0.0
H1303 H 0.43307 0.99571 0.11603 0.0
H1304 H 0.44221 0.92711 0.10173 0.0
C1305 C 0.55448 0.99021 0.12702 0.0
C1306 C 0.48751 0.44011 0.1268 0.0
C1307 C 0.53134 0.48771 0.12871 0.0
H1308 H 0.40887 0.39915 0.12031 0.0
C1309 C 0.53187 0.52865 0.11932 0.0
H1310 H 0.48627 0.40699 0.13309 0.0
C1311 C 0.48736 0.52315 0.1108 0.0
C1312 C 0.44121 0.47715 0.11247 0.0
H1313 H 0.56495 0.56541 0.12016 0.0
H1314 H 0.4883 0.55657 0.1051 0.0
C1315 C 0.44281 0.43505 0.11914 0.0
C1316 C 0.95502 0.48767 0.11176 0.0
C1317 C 0.95202 0.44066 0.11476 0.0
H1318 H 0.99278 0.56586 0.12006 0.0
C1319 C 0.99354 0.44038 0.12329 0.0
H1320 H 0.92427 0.48978 0.10462 0.0
C1321 C 0.03318 0.48436 0.13154 0.0
C1322 C 0.03196 0.52967 0.13193 0.0
H1323 H 0.99334 0.40559 0.12555 0.0
H1324 H 0.06316 0.4816 0.13909 0.0
C1325 C 0.99417 0.53166 0.1207 0.0
C1326 C 0.99472 0.46658 0.40269 0.0
C1327 C 0.03245 0.50633 0.39143 0.0
H1328 H 0.92486 0.43856 0.41878 0.0
C1329 C 0.03361 0.55283 0.39179 0.0
H1330 H 0.99338 0.43103 0.40335 0.0
C1331 C 0.99395 0.55714 0.40004 0.0
C1332 C 0.95247 0.51536 0.40858 0.0
H1333 H 0.06355 0.58554 0.38422 0.0
H1334 H 0.99368 0.59168 0.39773 0.0
C1335 C 0.95557 0.47141 0.41162 0.0
C1336 C 0.48807 0.05102 0.39669 0.0
C1337 C 0.53182 0.04715 0.39464 0.0
H1338 H 0.40942 0.01335 0.40318 0.0
C1339 C 0.53226 1.00648 0.40381 0.0
H1340 H 0.48691 0.08309 0.39057 0.0
C1341 C 0.48771 0.96734 0.41222 0.0
C1342 C 0.44161 0.96734 0.41067 0.0
H1343 H 0.56527 1.00269 0.40283 0.0
H1344 H 0.48858 0.93468 0.41773 0.0
C1345 C 0.44332 0.01126 0.40424 0.0
C1346 C 0.46739 0.47564 0.40454 0.0
C1347 C 0.50443 0.47694 0.39139 0.0
H1348 H 0.44209 0.51855 0.42171 0.0
C1349 C 0.54967 0.52315 0.38895 0.0
H1350 H 0.43296 0.44092 0.4073 0.0
C1351 C 0.55455 0.5678 0.39658 0.0
C1352 C 0.51479 0.56747 0.40728 0.0
H1353 H 0.58049 0.52581 0.3797 0.0
H1354 H 0.58713 0.60265 0.39205 0.0
C1355 C 0.47319 0.52045 0.41292 0.0
C1356 C 0.47429 0.02805 0.89647 0.0
C1357 C 0.51398 0.0674 0.90723 0.0
H1358 H 0.44842 0.96019 0.87955 0.0
C1359 C 0.55551 0.0619 0.91294 0.0
H1360 H 0.44178 0.0304 0.89188 0.0
C1361 C 0.56132 0.02288 0.90457 0.0
C1362 C 0.52436 0.98721 0.89138 0.0
H1363 H 0.58654 0.09105 0.92178 0.0
H1364 H 0.5957 0.02252 0.9074 0.0
C1365 C 0.47918 0.98827 0.88886 0.0
C1366 C 0.54112 0.57794 0.89649 0.0
C1367 C 0.49729 0.53036 0.89454 0.0
H1368 H 0.61976 0.61886 0.90299 0.0
C1369 C 0.49675 0.48937 0.90389 0.0
H1370 H 0.54237 0.6111 0.89023 0.0
C1371 C 0.54125 0.49481 0.91239 0.0
C1372 C 0.58741 0.54081 0.91075 0.0
H1373 H 0.46367 0.45261 0.90301 0.0
H1374 H 0.5403 0.46136 0.91805 0.0
C1375 C 0.58581 0.58296 0.90413 0.0
C1376 C 0.03511 0.57779 0.89995 0.0
C1377 C 0.07659 0.5775 0.90852 0.0
H1378 H 0.96555 0.53657 0.88411 0.0
C1379 C 0.07356 0.53049 0.91155 0.0
H1380 H 0.03535 0.61259 0.89766 0.0
C1381 C 0.03443 0.48649 0.90262 0.0
C1382 C 0.99668 0.48848 0.89135 0.0
H1383 H 0.10427 0.52837 0.91873 0.0
H1384 H 0.03578 0.45228 0.90329 0.0
C1385 C 0.99549 0.53381 0.89169 0.0
C1386 C 0.0339 0.55203 0.62062 0.0
C1387 C 0.99609 0.51222 0.63182 0.0
H1388 H 0.10382 0.58007 0.60457 0.0
C1389 C 0.99481 0.46566 0.63137 0.0
H1390 H 0.03534 0.58763 0.62002 0.0
C1391 C 0.03445 0.46133 0.62312 0.0
C1392 C 0.07602 0.50315 0.61466 0.0
H1393 H 0.96479 0.43291 0.63889 0.0
H1394 H 0.03463 0.42672 0.62536 0.0
C1395 C 0.07304 0.54718 0.61168 0.0
C1396 C 0.58522 1.007 0.61924 0.0
C1397 C 0.58691 0.05082 0.61268 0.0
H1398 H 0.54166 0.93532 0.63302 0.0
C1399 C 0.54079 0.05078 0.61106 0.0
H1400 H 0.61912 1.00495 0.62035 0.0
C1401 C 0.49624 0.01171 0.61951 0.0
C1402 C 0.49669 0.97115 0.62878 0.0
H1403 H 0.53992 0.08337 0.60545 0.0
H1404 H 0.46321 0.01548 0.62041 0.0
C1405 C 0.54047 0.9673 0.62681 0.0
C1406 C 0.55509 0.49783 0.61055 0.0
C1407 C 0.51355 0.45082 0.61625 0.0
H1408 H 0.59527 0.57738 0.6161 0.0
C1409 C 0.47379 0.45049 0.62695 0.0
H1410 H 0.58616 0.49969 0.60175 0.0
C1411 C 0.47865 0.49516 0.63454 0.0
C1412 C 0.52385 0.54138 0.63206 0.0
H1413 H 0.44128 0.41565 0.63152 0.0
H1414 H 0.44785 0.4925 0.6438 0.0
C1415 C 0.56087 0.54266 0.6189 0.0
C1416 C 0.65174 0.22209 0.18112 0.0
C1417 C 0.66939 0.24489 0.16151 0.0
H1418 H 0.588 0.16679 0.19824 0.0
C1419 C 0.63497 0.2404 0.14618 0.0
H1420 H 0.6778 0.22509 0.1932 0.0
C1421 C 0.58396 0.20797 0.14923 0.0
C1422 C 0.56647 0.17981 0.16773 0.0
H1423 H 0.64774 0.25799 0.13101 0.0
H1424 H 0.55917 0.19984 0.13592 0.0
C1425 C 0.60036 0.18918 0.18413 0.0
C1426 C 0.38541 0.58245 0.15439 0.0
C1427 C 0.36674 0.56564 0.1341 0.0
H1428 H 0.42869 0.64653 0.17408 0.0
C1429 C 0.36828 0.59953 0.11923 0.0
H1430 H 0.38538 0.55676 0.1659 0.0
C1431 C 0.39424 0.65052 0.12361 0.0
C1432 C 0.41815 0.66793 0.14303 0.0
H1433 H 0.35445 0.58707 0.10344 0.0
H1434 H 0.39912 0.6764 0.11121 0.0
C1435 C 0.41059 0.63367 0.15895 0.0
C1436 C 0.76944 0.41589 0.16593 0.0
C1437 C 0.73733 0.41953 0.15136 0.0
H1438 H 0.82555 0.39496 0.17055 0.0
C1439 C 0.72786 0.39415 0.13207 0.0
H1440 H 0.77718 0.43516 0.18092 0.0
C1441 C 0.7551 0.37119 0.12627 0.0
C1442 C 0.79154 0.37273 0.1398 0.0
H1443 H 0.70254 0.39572 0.12073 0.0
H1444 H 0.75093 0.35619 0.11049 0.0
C1445 C 0.79684 0.39276 0.16008 0.0
C1446 C 0.34767 0.76602 0.16684 0.0
C1447 C 0.31216 0.73759 0.15132 0.0
H1448 H 0.42531 0.81871 0.17313 0.0
C1449 C 0.3286 0.73093 0.13164 0.0
H1450 H 0.33576 0.77144 0.18218 0.0
C1451 C 0.3792 0.75781 0.12656 0.0
C1452 C 0.41414 0.79072 0.14121 0.0
H1453 H 0.30202 0.70832 0.11955 0.0
H1454 H 0.39057 0.75617 0.11058 0.0
C1455 C 0.39876 0.79275 0.16175 0.0
C1456 C 0.6065 0.39534 0.15173 0.0
C1457 C 0.59977 0.41759 0.16984 0.0
H1458 H 0.58878 0.32794 0.13543 0.0
C1459 C 0.57432 0.38716 0.18705 0.0
H1460 H 0.6223 0.41702 0.13763 0.0
C1461 C 0.55265 0.33496 0.18543 0.0
C1462 C 0.55569 0.31298 0.16645 0.0
H1463 H 0.56665 0.40312 0.20079 0.0
H1464 H 0.52957 0.31183 0.1982 0.0
C1465 C 0.58558 0.3438 0.15019 0.0
C1466 C 0.2008 0.60756 0.14618 0.0
C1467 C 0.17897 0.60324 0.16606 0.0
H1468 H 0.2441 0.5877 0.12628 0.0
C1469 C 0.19117 0.58092 0.18235 0.0
H1470 H 0.18977 0.62178 0.13297 0.0
C1471 C 0.2217 0.56003 0.17832 0.0
C1472 C 0.23913 0.56026 0.15782 0.0
H1473 H 0.17322 0.57529 0.19753 0.0
H1474 H 0.22748 0.53955 0.19068 0.0
C1475 C 0.2309 0.58675 0.14215 0.0
C1476 C 0.79705 0.40792 0.36323 0.0
C1477 C 0.79187 0.4227 0.38353 0.0
H1478 H 0.77718 0.34584 0.34238 0.0
C1479 C 0.75545 0.38786 0.39707 0.0
H1480 H 0.82574 0.43438 0.35275 0.0
C1481 C 0.72808 0.33767 0.39127 0.0
C1482 C 0.73742 0.32171 0.37197 0.0
H1483 H 0.75138 0.39874 0.41285 0.0
H1484 H 0.70277 0.31084 0.40262 0.0
C1485 C 0.76952 0.3574 0.35738 0.0
C1486 C 0.41062 0.78022 0.36402 0.0
C1487 C 0.41794 0.75339 0.37996 0.0
H1488 H 0.38569 0.83213 0.35704 0.0
C1489 C 0.39382 0.74682 0.39932 0.0
H1490 H 0.42889 0.7855 0.34893 0.0
C1491 C 0.36792 0.77194 0.40365 0.0
C1492 C 0.36667 0.80445 0.38879 0.0
H1493 H 0.39853 0.72573 0.41173 0.0
H1494 H 0.35396 0.77053 0.41943 0.0
C1495 C 0.3855 0.80635 0.36854 0.0
C1496 C 0.6519 0.43349 0.34224 0.0
C1497 C 0.66955 0.42834 0.36186 0.0
H1498 H 0.58815 0.42505 0.32511 0.0
C1499 C 0.63512 0.39843 0.37719 0.0
H1500 H 0.67796 0.45653 0.33017 0.0
C1501 C 0.58411 0.37985 0.37412 0.0
C1502 C 0.56661 0.39051 0.35562 0.0
H1503 H 0.64789 0.39362 0.39236 0.0
H1504 H 0.55932 0.36321 0.38742 0.0
C1505 C 0.60052 0.41503 0.33922 0.0
C1506 C 0.20125 0.59715 0.37688 0.0
C1507 C 0.17919 0.5795 0.35704 0.0
H1508 H 0.24464 0.66044 0.3967 0.0
C1509 C 0.19113 0.61389 0.34073 0.0
H1510 H 0.19041 0.572 0.39011 0.0
C1511 C 0.2216 0.66535 0.3447 0.0
C1512 C 0.23922 0.68268 0.36516 0.0
H1513 H 0.173 0.60146 0.32558 0.0
H1514 H 0.22715 0.69151 0.33233 0.0
C1515 C 0.23129 0.64808 0.38085 0.0
C1516 C 0.60649 0.21475 0.37165 0.0
C1517 C 0.59978 0.18577 0.35355 0.0
H1518 H 0.58888 0.26455 0.38792 0.0
C1519 C 0.57438 0.19078 0.33633 0.0
H1520 H 0.62226 0.20884 0.38576 0.0
C1521 C 0.5528 0.22141 0.33791 0.0
C1522 C 0.55587 0.24648 0.35688 0.0
H1523 H 0.56671 0.16715 0.32258 0.0
H1524 H 0.52976 0.2215 0.32512 0.0
C1525 C 0.58567 0.24546 0.37316 0.0
C1526 C 0.37904 0.62461 0.39713 0.0
C1527 C 0.41413 0.62686 0.38251 0.0
H1528 H 0.30177 0.59676 0.40402 0.0
C1529 C 0.39894 0.60957 0.36194 0.0
H1530 H 0.39026 0.63753 0.41312 0.0
C1531 C 0.3479 0.5852 0.35676 0.0
C1532 C 0.31224 0.57797 0.37224 0.0
H1533 H 0.42563 0.61033 0.3506 0.0
H1534 H 0.33616 0.56803 0.34139 0.0
C1535 C 0.32848 0.60087 0.39196 0.0
C1536 C 0.42835 0.82919 0.83925 0.0
C1537 C 0.46221 0.83851 0.85567 0.0
H1538 H 0.35094 0.79328 0.83016 0.0
C1539 C 0.44469 0.81028 0.87414 0.0
H1540 H 0.44075 0.85164 0.82516 0.0
C1541 C 0.39368 0.7778 0.87717 0.0
C1542 C 0.35929 0.77334 0.86183 0.0
H1543 H 0.46947 0.81838 0.88745 0.0
H1544 H 0.38089 0.76016 0.89232 0.0
C1545 C 0.37697 0.79624 0.84224 0.0
C1546 C 0.66054 0.41859 0.9039 0.0
C1547 C 0.66199 0.45243 0.88904 0.0
H1548 H 0.62982 0.34175 0.91194 0.0
C1549 C 0.64328 0.43559 0.86876 0.0
H1550 H 0.6744 0.43108 0.91969 0.0
C1551 C 0.61814 0.38435 0.86421 0.0
C1552 C 0.61068 0.35014 0.88013 0.0
H1553 H 0.64323 0.46124 0.85725 0.0
H1554 H 0.6 0.37145 0.84909 0.0
C1555 C 0.63464 0.36759 0.89954 0.0
C1556 C 0.23186 0.62547 0.86324 0.0
C1557 C 0.23712 0.64545 0.88354 0.0
H1558 H 0.25155 0.58316 0.84238 0.0
C1559 C 0.27354 0.64694 0.89707 0.0
H1560 H 0.20317 0.62332 0.85277 0.0
C1561 C 0.30079 0.62401 0.89126 0.0
C1562 C 0.29136 0.59869 0.87196 0.0
H1563 H 0.27767 0.6619 0.91285 0.0
H1564 H 0.32609 0.6224 0.9026 0.0
C1565 C 0.25927 0.60237 0.85738 0.0
C1566 C 0.68098 0.252 0.85672 0.0
C1567 C 0.71658 0.28044 0.87221 0.0
H1568 H 0.60329 0.19937 0.85051 0.0
C1569 C 0.70027 0.28713 0.89192 0.0
H1570 H 0.69277 0.24655 0.84137 0.0
C1571 C 0.6497 0.26031 0.89705 0.0
C1572 C 0.61466 0.22742 0.88242 0.0
H1573 H 0.72694 0.30975 0.90398 0.0
H1574 H 0.63843 0.262 0.91303 0.0
C1575 C 0.62992 0.22532 0.86186 0.0
C1576 C 0.45433 0.6311 0.83627 0.0
C1577 C 0.42891 0.60065 0.85348 0.0
H1578 H 0.49905 0.70645 0.82513 0.0
C1579 C 0.42218 0.62287 0.87159 0.0
H1580 H 0.462 0.61517 0.82252 0.0
C1581 C 0.44307 0.6744 0.87314 0.0
C1582 C 0.47293 0.70525 0.85689 0.0
H1583 H 0.40639 0.60116 0.88569 0.0
H1584 H 0.43987 0.69024 0.88791 0.0
C1585 C 0.47598 0.6833 0.8379 0.0
C1586 C 0.80705 0.45815 0.8449 0.0
C1587 C 0.78958 0.45793 0.86538 0.0
H1588 H 0.85554 0.44283 0.82572 0.0
C1589 C 0.79774 0.43142 0.88107 0.0
H1590 H 0.80133 0.47864 0.83253 0.0
C1591 C 0.82781 0.41057 0.87707 0.0
C1592 C 0.84968 0.41487 0.8572 0.0
H1593 H 0.7845 0.43048 0.89693 0.0
H1594 H 0.8388 0.39636 0.89028 0.0
C1595 C 0.83756 0.4372 0.84089 0.0
C1596 C 0.23123 0.61041 0.66003 0.0
C1597 C 0.2365 0.59566 0.63974 0.0
H1598 H 0.25096 0.67245 0.68088 0.0
C1599 C 0.27295 0.63054 0.62621 0.0
H1600 H 0.20253 0.58391 0.67049 0.0
C1601 C 0.30024 0.68073 0.63202 0.0
C1602 C 0.29081 0.69665 0.65131 0.0
H1603 H 0.27709 0.61969 0.61044 0.0
H1604 H 0.32556 0.70759 0.62068 0.0
C1605 C 0.25868 0.66093 0.66588 0.0
C1606 C 0.63436 0.27123 0.62376 0.0
C1607 C 0.61035 0.26471 0.64316 0.0
H1608 H 0.67422 0.24754 0.60365 0.0
C1609 C 0.61784 0.23802 0.6591 0.0
H1610 H 0.62955 0.29224 0.61135 0.0
C1611 C 0.64304 0.21197 0.65459 0.0
C1612 C 0.66177 0.21381 0.63432 0.0
H1613 H 0.59967 0.2328 0.67421 0.0
H1614 H 0.64298 0.18629 0.6661 0.0
C1615 C 0.66034 0.24619 0.61943 0.0
C1616 C 0.42773 0.60334 0.68413 0.0
C1617 C 0.46164 0.62786 0.66773 0.0
H1618 H 0.35029 0.56185 0.69317 0.0
C1619 C 0.44416 0.63849 0.64922 0.0
H1620 H 0.44009 0.59336 0.69824 0.0
C1621 C 0.39316 0.61992 0.64614 0.0
C1622 C 0.35872 0.59002 0.66147 0.0
H1623 H 0.46898 0.65513 0.63592 0.0
H1624 H 0.3804 0.62471 0.63097 0.0
C1625 C 0.37635 0.58488 0.68109 0.0
C1626 C 0.79728 0.37038 0.64236 0.0
C1627 C 0.7893 0.33574 0.65804 0.0
H1628 H 0.8382 0.44646 0.63312 0.0
C1629 C 0.80692 0.35304 0.67851 0.0
H1630 H 0.78392 0.35804 0.62651 0.0
C1631 C 0.83742 0.40449 0.68249 0.0
C1632 C 0.84939 0.43891 0.66619 0.0
H1633 H 0.80132 0.32685 0.69087 0.0
H1634 H 0.85554 0.41688 0.69764 0.0
C1635 C 0.82734 0.4213 0.64635 0.0
C1636 C 0.4425 0.77279 0.65026 0.0
C1637 C 0.47235 0.77182 0.66654 0.0
H1638 H 0.40591 0.80938 0.63765 0.0
C1639 C 0.47547 0.79694 0.6855 0.0
H1640 H 0.43926 0.75365 0.63551 0.0
C1641 C 0.45388 0.82756 0.68708 0.0
C1642 C 0.42845 0.83254 0.66985 0.0
H1643 H 0.49854 0.79688 0.69828 0.0
H1644 H 0.46159 0.85123 0.70081 0.0
C1645 C 0.42167 0.80349 0.65177 0.0
C1646 C 0.62955 0.4088 0.66176 0.0
C1647 C 0.6142 0.3914 0.64121 0.0
H1648 H 0.6925 0.45044 0.68222 0.0
C1649 C 0.64916 0.39342 0.62658 0.0
H1650 H 0.60297 0.4082 0.67312 0.0
C1651 C 0.69975 0.41711 0.63169 0.0
C1652 C 0.71616 0.44019 0.65137 0.0
H1653 H 0.63782 0.38042 0.6106 0.0
H1654 H 0.72635 0.42108 0.6196 0.0
C1655 C 0.68063 0.43313 0.66688 0.0
loop_
_geom_bond_atom_site_label_1
_geom_bond_atom_site_label_2
_geom_bond_distance
_geom_bond_site_symmetry_2
_ccdc_geom_bond_type
Zn0 N4 2.020 . S
Zn0 O8 2.019 . S
Zn0 N10 2.119 . S
Zn0 O18 1.975 . S
C1 N2 1.334 . S
C1 N5 1.336 . S
N2 C1 1.334 . S
N2 C3 1.334 . S
C3 N2 1.334 . S
C3 N4 1.336 . S
N4 Zn0 2.020 . S
N4 C3 1.336 . S
N4 N5 1.354 . S
N5 C1 1.336 . S
N5 N4 1.354 . S
N5 Zn9 2.020 . S
C6 O7 1.244 . S
C6 O30 1.257 . S
O7 C6 1.244 . S
O8 Zn0 2.019 . S
O8 C28 1.257 1_545 S
Zn9 N5 2.020 . S
Zn9 O16 1.975 . S
Zn9 N25 2.119 . S
Zn9 O30 2.019 . S
N10 Zn0 2.119 . S
N10 C12 1.334 . S
N10 C13 1.328 . S
C11 C12 1.391 . S
C11 N14 1.329 . S
C11 H32 0.930 . S
C12 N10 1.334 . S
C12 C11 1.391 . S
C12 H19 0.930 . S
C13 N10 1.328 . S
C13 C15 1.392 . S
C13 H20 0.930 . S
N14 C11 1.329 . S
N14 C15 1.331 . S
C15 C13 1.392 . S
C15 N14 1.331 . S
O16 Zn9 1.975 . S
O16 C17 1.252 . S
C17 O16 1.252 . S
C17 O18 1.252 . S
O18 Zn0 1.975 . S
O18 C17 1.252 . S
H19 C12 0.930 . S
H20 C13 0.930 . S
C21 C22 1.392 . S
C21 N25 1.328 . S
C21 H27 0.930 . S
C22 C21 1.392 . S
C22 N26 1.331 . S
C23 C24 1.391 . S
C23 N26 1.329 . S
C23 H33 0.930 . S
C24 C23 1.391 . S
C24 N25 1.334 . S
C24 H31 0.930 . S
N25 Zn9 2.119 . S
N25 C21 1.328 . S
N25 C24 1.334 . S
N26 C22 1.331 . S
N26 C23 1.329 . S
H27 C21 0.930 . S
C28 O8 1.257 1_565 S
C28 O29 1.244 1_565 S
O29 C28 1.244 1_545 S
O30 C6 1.257 . S
O30 Zn9 2.019 . S
H31 C24 0.930 . S
H32 C11 0.930 . S
H33 C23 0.930 . S
Zn34 N38 2.020 . S
Zn34 O42 2.019 . S
Zn34 N44 2.119 . S
Zn34 O52 1.975 . S
C35 N36 1.334 . S
C35 N39 1.336 . S
N36 C35 1.334 . S
N36 C37 1.334 . S
C37 N36 1.334 . S
C37 N38 1.336 . S
N38 Zn34 2.020 . S
N38 C37 1.336 . S
N38 N39 1.354 . S
N39 C35 1.336 . S
N39 N38 1.354 . S
N39 Zn43 2.020 . S
C40 O41 1.244 . S
C40 O64 1.257 . S
O41 C40 1.244 . S
O42 Zn34 2.019 . S
O42 C62 1.257 . S
Zn43 N39 2.020 . S
Zn43 O50 1.975 . S
Zn43 N59 2.119 . S
Zn43 O64 2.019 . S
N44 Zn34 2.119 . S
N44 C46 1.334 . S
N44 C47 1.328 . S
C45 C46 1.391 . S
C45 N48 1.329 . S
C45 H66 0.930 . S
C46 N44 1.334 . S
C46 C45 1.391 . S
C46 H53 0.930 . S
C47 N44 1.328 . S
C47 C49 1.392 . S
C47 H54 0.930 . S
N48 C45 1.329 . S
N48 C49 1.331 . S
C49 C47 1.392 . S
C49 N48 1.331 . S
O50 Zn43 1.975 . S
O50 C51 1.252 . S
C51 O50 1.252 . S
C51 O52 1.252 . S
O52 Zn34 1.975 . S
O52 C51 1.252 . S
H53 C46 0.930 . S
H54 C47 0.930 . S
C55 C56 1.392 . S
C55 N59 1.328 . S
C55 H61 0.930 . S
C56 C55 1.392 . S
C56 N60 1.331 . S
C57 C58 1.391 . S
C57 N60 1.329 . S
C57 H67 0.930 . S
C58 C57 1.391 . S
C58 N59 1.334 . S
C58 H65 0.930 . S
N59 Zn43 2.119 . S
N59 C55 1.328 . S
N59 C58 1.334 . S
N60 C56 1.331 . S
N60 C57 1.329 . S
H61 C55 0.930 . S
C62 O42 1.257 . S
C62 O63 1.244 . S
O63 C62 1.244 . S
O64 C40 1.257 . S
O64 Zn43 2.019 . S
H65 C58 0.930 . S
H66 C45 0.930 . S
H67 C57 0.930 . S
Zn68 N72 2.020 . S
Zn68 O76 2.019 . S
Zn68 N78 2.119 . S
Zn68 O86 1.975 . S
C69 N70 1.334 . S
C69 N73 1.336 . S
N70 C69 1.334 . S
N70 C71 1.334 . S
C71 N70 1.334 . S
C71 N72 1.336 . S
N72 Zn68 2.020 . S
N72 C71 1.336 . S
N72 N73 1.354 . S
N73 C69 1.336 . S
N73 N72 1.354 . S
N73 Zn77 2.020 . S
C74 O75 1.244 . S
C74 O98 1.257 . S
O75 C74 1.244 . S
O76 Zn68 2.019 . S
O76 C96 1.257 1_655 S
Zn77 N73 2.020 . S
Zn77 O84 1.975 . S
Zn77 N93 2.119 . S
Zn77 O98 2.019 . S
N78 Zn68 2.119 . S
N78 C80 1.334 . S
N78 C81 1.328 . S
C79 C80 1.391 . S
C79 N82 1.329 . S
C79 H100 0.930 . S
C80 N78 1.334 . S
C80 C79 1.391 . S
C80 H87 0.930 . S
C81 N78 1.328 . S
C81 C83 1.392 . S
C81 H88 0.930 . S
N82 C79 1.329 . S
N82 C83 1.331 . S
C83 C81 1.392 . S
C83 N82 1.331 . S
O84 Zn77 1.975 . S
O84 C85 1.252 . S
C85 O84 1.252 . S
C85 O86 1.252 . S
O86 Zn68 1.975 . S
O86 C85 1.252 . S
H87 C80 0.930 . S
H88 C81 0.930 . S
C89 C90 1.392 . S
C89 N93 1.328 . S
C89 H95 0.930 . S
C90 C89 1.392 . S
C90 N94 1.331 . S
C91 C92 1.391 . S
C91 N94 1.329 . S
C91 H101 0.930 . S
C92 C91 1.391 . S
C92 N93 1.334 . S
C92 H99 0.930 . S
N93 Zn77 2.119 . S
N93 C89 1.328 . S
N93 C92 1.334 . S
N94 C90 1.331 . S
N94 C91 1.329 . S
H95 C89 0.930 . S
C96 O76 1.257 1_455 S
C96 O97 1.244 1_455 S
O97 C96 1.244 1_655 S
O98 C74 1.257 . S
O98 Zn77 2.019 . S
H99 C92 0.930 . S
H100 C79 0.930 . S
H101 C91 0.930 . S
Zn102 N106 2.020 . S
Zn102 O110 2.019 . S
Zn102 N112 2.119 . S
Zn102 O120 1.975 . S
C103 N104 1.334 . S
C103 N107 1.336 . S
N104 C103 1.334 . S
N104 C105 1.334 . S
C105 N104 1.334 . S
C105 N106 1.336 . S
N106 Zn102 2.020 . S
N106 C105 1.336 . S
N106 N107 1.354 . S
N107 C103 1.336 . S
N107 N106 1.354 . S
N107 Zn111 2.020 . S
C108 O109 1.244 1_545 S
C108 O132 1.257 1_545 S
O109 C108 1.244 1_565 S
O110 Zn102 2.019 . S
O110 C130 1.257 . S
Zn111 N107 2.020 . S
Zn111 O118 1.975 . S
Zn111 N127 2.119 . S
Zn111 O132 2.019 . S
N112 Zn102 2.119 . S
N112 C114 1.334 . S
N112 C115 1.328 . S
C113 C114 1.391 . S
C113 N116 1.329 . S
C113 H134 0.930 . S
C114 N112 1.334 . S
C114 C113 1.391 . S
C114 H121 0.930 . S
C115 N112 1.328 . S
C115 C117 1.392 . S
C115 H122 0.930 . S
N116 C113 1.329 . S
N116 C117 1.331 . S
C117 C115 1.392 . S
C117 N116 1.331 . S
O118 Zn111 1.975 . S
O118 C119 1.252 . S
C119 O118 1.252 . S
C119 O120 1.252 . S
O120 Zn102 1.975 . S
O120 C119 1.252 . S
H121 C114 0.930 . S
H122 C115 0.930 . S
C123 C124 1.392 . S
C123 N127 1.328 . S
C123 H129 0.930 . S
C124 C123 1.392 . S
C124 N128 1.331 . S
C125 C126 1.391 . S
C125 N128 1.329 . S
C125 H135 0.930 . S
C126 C125 1.391 . S
C126 N127 1.334 . S
C126 H133 0.930 . S
N127 Zn111 2.119 . S
N127 C123 1.328 . S
N127 C126 1.334 . S
N128 C124 1.331 . S
N128 C125 1.329 . S
H129 C123 0.930 . S
C130 O110 1.257 . S
C130 O131 1.244 . S
O131 C130 1.244 . S
O132 C108 1.257 1_565 S
O132 Zn111 2.019 . S
H133 C126 0.930 . S
H134 C113 0.930 . S
H135 C125 0.930 . S
Zn136 N140 2.020 . S
Zn136 O144 2.019 . S
Zn136 N146 2.119 . S
Zn136 O154 1.975 . S
C137 N138 1.334 . S
C137 N141 1.336 . S
N138 C137 1.334 . S
N138 C139 1.334 . S
C139 N138 1.334 . S
C139 N140 1.336 . S
N140 Zn136 2.020 . S
N140 C139 1.336 . S
N140 N141 1.354 . S
N141 C137 1.336 . S
N141 N140 1.354 . S
N141 Zn145 2.020 . S
C142 O143 1.244 . S
C142 O166 1.257 . S
O143 C142 1.244 . S
O144 Zn136 2.019 . S
O144 C164 1.257 . S
Zn145 N141 2.020 . S
Zn145 O152 1.975 . S
Zn145 N161 2.119 . S
Zn145 O166 2.019 . S
N146 Zn136 2.119 . S
N146 C148 1.334 . S
N146 C149 1.328 . S
C147 C148 1.391 . S
C147 N150 1.329 . S
C147 H168 0.930 . S
C148 N146 1.334 . S
C148 C147 1.391 . S
C148 H155 0.930 . S
C149 N146 1.328 . S
C149 C151 1.392 . S
C149 H156 0.930 . S
N150 C147 1.329 . S
N150 C151 1.331 . S
C151 C149 1.392 . S
C151 N150 1.331 . S
O152 Zn145 1.975 . S
O152 C153 1.252 . S
C153 O152 1.252 . S
C153 O154 1.252 . S
O154 Zn136 1.975 . S
O154 C153 1.252 . S
H155 C148 0.930 . S
H156 C149 0.930 . S
C157 C158 1.392 . S
C157 N161 1.328 . S
C157 H163 0.930 . S
C158 C157 1.392 . S
C158 N162 1.331 . S
C159 C160 1.391 . S
C159 N162 1.329 . S
C159 H169 0.930 . S
C160 C159 1.391 . S
C160 N161 1.334 . S
C160 H167 0.930 . S
N161 Zn145 2.119 . S
N161 C157 1.328 . S
N161 C160 1.334 . S
N162 C158 1.331 . S
N162 C159 1.329 . S
H163 C157 0.930 . S
C164 O144 1.257 . S
C164 O165 1.244 . S
O165 C164 1.244 . S
O166 C142 1.257 . S
O166 Zn145 2.019 . S
H167 C160 0.930 . S
H168 C147 0.930 . S
H169 C159 0.930 . S
Zn170 N174 2.020 . S
Zn170 O178 2.019 . S
Zn170 N180 2.119 . S
Zn170 O188 1.975 . S
C171 N172 1.334 . S
C171 N175 1.336 . S
N172 C171 1.334 . S
N172 C173 1.334 . S
C173 N172 1.334 . S
C173 N174 1.336 . S
N174 Zn170 2.020 . S
N174 C173 1.336 . S
N174 N175 1.354 . S
N175 C171 1.336 . S
N175 N174 1.354 . S
N175 Zn179 2.020 . S
C176 O177 1.244 1_655 S
C176 O200 1.257 1_655 S
O177 C176 1.244 1_455 S
O178 Zn170 2.019 . S
O178 C198 1.257 . S
Zn179 N175 2.020 . S
Zn179 O186 1.975 . S
Zn179 N195 2.119 . S
Zn179 O200 2.019 . S
N180 Zn170 2.119 . S
N180 C182 1.334 . S
N180 C183 1.328 . S
C181 C182 1.391 . S
C181 N184 1.329 . S
C181 H202 0.930 . S
C182 N180 1.334 . S
C182 C181 1.391 . S
C182 H189 0.930 . S
C183 N180 1.328 . S
C183 C185 1.392 . S
C183 H190 0.930 . S
N184 C181 1.329 . S
N184 C185 1.331 . S
C185 C183 1.392 . S
C185 N184 1.331 . S
O186 Zn179 1.975 . S
O186 C187 1.252 . S
C187 O186 1.252 . S
C187 O188 1.252 . S
O188 Zn170 1.975 . S
O188 C187 1.252 . S
H189 C182 0.930 . S
H190 C183 0.930 . S
C191 C192 1.392 . S
C191 N195 1.328 . S
C191 H197 0.930 . S
C192 C191 1.392 . S
C192 N196 1.331 . S
C193 C194 1.391 . S
C193 N196 1.329 . S
C193 H203 0.930 . S
C194 C193 1.391 . S
C194 N195 1.334 . S
C194 H201 0.930 . S
N195 Zn179 2.119 . S
N195 C191 1.328 . S
N195 C194 1.334 . S
N196 C192 1.331 . S
N196 C193 1.329 . S
H197 C191 0.930 . S
C198 O178 1.257 . S
C198 O199 1.244 . S
O199 C198 1.244 . S
O200 C176 1.257 1_455 S
O200 Zn179 2.019 . S
H201 C194 0.930 . S
H202 C181 0.930 . S
H203 C193 0.930 . S
Zn204 N208 2.020 . S
Zn204 O212 2.019 . S
Zn204 N214 2.119 . S
Zn204 O222 1.975 . S
C205 N206 1.334 . S
C205 N209 1.336 . S
N206 C205 1.334 . S
N206 C207 1.334 . S
C207 N206 1.334 . S
C207 N208 1.336 . S
N208 Zn204 2.020 . S
N208 C207 1.336 . S
N208 N209 1.354 . S
N209 C205 1.336 . S
N209 N208 1.354 . S
N209 Zn213 2.020 . S
C210 O211 1.244 . S
C210 O234 1.257 . S
O211 C210 1.244 . S
O212 Zn204 2.019 . S
O212 C232 1.257 1_655 S
Zn213 N209 2.020 . S
Zn213 O220 1.975 . S
Zn213 N229 2.119 . S
Zn213 O234 2.019 . S
N214 Zn204 2.119 . S
N214 C216 1.334 . S
N214 C217 1.328 . S
C215 C216 1.391 . S
C215 N218 1.329 . S
C215 H236 0.930 . S
C216 N214 1.334 . S
C216 C215 1.391 . S
C216 H223 0.930 . S
C217 N214 1.328 . S
C217 C219 1.392 . S
C217 H224 0.930 . S
N218 C215 1.329 . S
N218 C219 1.331 . S
C219 C217 1.392 . S
C219 N218 1.331 . S
O220 Zn213 1.975 . S
O220 C221 1.252 . S
C221 O220 1.252 . S
C221 O222 1.252 . S
O222 Zn204 1.975 . S
O222 C221 1.252 . S
H223 C216 0.930 . S
H224 C217 0.930 . S
C225 C226 1.392 . S
C225 N229 1.328 . S
C225 H231 0.930 . S
C226 C225 1.392 . S
C226 N230 1.331 . S
C227 C228 1.391 . S
C227 N230 1.329 . S
C227 H237 0.930 . S
C228 C227 1.391 . S
C228 N229 1.334 . S
C228 H235 0.930 . S
N229 Zn213 2.119 . S
N229 C225 1.328 . S
N229 C228 1.334 . S
N230 C226 1.331 . S
N230 C227 1.329 . S
H231 C225 0.930 . S
C232 O212 1.257 1_455 S
C232 O233 1.244 1_455 S
O233 C232 1.244 1_655 S
O234 C210 1.257 . S
O234 Zn213 2.019 . S
H235 C228 0.930 . S
H236 C215 0.930 . S
H237 C227 0.930 . S
Zn238 N242 2.020 . S
Zn238 O246 2.019 . S
Zn238 N248 2.119 . S
Zn238 O256 1.975 . S
C239 N240 1.334 . S
C239 N243 1.336 . S
N240 C239 1.334 . S
N240 C241 1.334 . S
C241 N240 1.334 . S
C241 N242 1.336 . S
N242 Zn238 2.020 . S
N242 C241 1.336 . S
N242 N243 1.354 . S
N243 C239 1.336 . S
N243 N242 1.354 . S
N243 Zn247 2.020 . S
C244 O245 1.244 1_545 S
C244 O268 1.257 1_545 S
O245 C244 1.244 1_565 S
O246 Zn238 2.019 . S
O246 C266 1.257 . S
Zn247 N243 2.020 . S
Zn247 O254 1.975 . S
Zn247 N263 2.119 . S
Zn247 O268 2.019 . S
N248 Zn238 2.119 . S
N248 C250 1.334 . S
N248 C251 1.328 . S
C249 C250 1.391 . S
C249 N252 1.329 . S
C249 H270 0.930 . S
C250 N248 1.334 . S
C250 C249 1.391 . S
C250 H257 0.930 . S
C251 N248 1.328 . S
C251 C253 1.392 . S
C251 H258 0.930 . S
N252 C249 1.329 . S
N252 C253 1.331 . S
C253 C251 1.392 . S
C253 N252 1.331 . S
O254 Zn247 1.975 . S
O254 C255 1.252 . S
C255 O254 1.252 . S
C255 O256 1.252 . S
O256 Zn238 1.975 . S
O256 C255 1.252 . S
H257 C250 0.930 . S
H258 C251 0.930 . S
C259 C260 1.392 . S
C259 N263 1.328 . S
C259 H265 0.930 . S
C260 C259 1.392 . S
C260 N264 1.331 . S
C261 C262 1.391 . S
C261 N264 1.329 . S
C261 H271 0.930 . S
C262 C261 1.391 . S
C262 N263 1.334 . S
C262 H269 0.930 . S
N263 Zn247 2.119 . S
N263 C259 1.328 . S
N263 C262 1.334 . S
N264 C260 1.331 . S
N264 C261 1.329 . S
H265 C259 0.930 . S
C266 O246 1.257 . S
C266 O267 1.244 . S
O267 C266 1.244 . S
O268 C244 1.257 1_565 S
O268 Zn247 2.019 . S
H269 C262 0.930 . S
H270 C249 0.930 . S
H271 C261 0.930 . S
Zn272 N276 2.020 . S
Zn272 O280 2.019 . S
Zn272 N282 2.119 . S
Zn272 O290 1.975 . S
C273 N274 1.334 . S
C273 N277 1.336 . S
N274 C273 1.334 . S
N274 C275 1.334 . S
C275 N274 1.334 . S
C275 N276 1.336 . S
N276 Zn272 2.020 . S
N276 C275 1.336 . S
N276 N277 1.354 . S
N277 C273 1.336 . S
N277 N276 1.354 . S
N277 Zn281 2.020 . S
C278 O279 1.244 . S
C278 O302 1.257 . S
O279 C278 1.244 . S
O280 Zn272 2.019 . S
O280 C300 1.257 . S
Zn281 N277 2.020 . S
Zn281 O288 1.975 . S
Zn281 N297 2.119 . S
Zn281 O302 2.019 . S
N282 Zn272 2.119 . S
N282 C284 1.334 . S
N282 C285 1.328 . S
C283 C284 1.391 . S
C283 N286 1.329 . S
C283 H304 0.930 . S
C284 N282 1.334 . S
C284 C283 1.391 . S
C284 H291 0.930 . S
C285 N282 1.328 . S
C285 C287 1.392 . S
C285 H292 0.930 . S
N286 C283 1.329 . S
N286 C287 1.331 . S
C287 C285 1.392 . S
C287 N286 1.331 . S
O288 Zn281 1.975 . S
O288 C289 1.252 . S
C289 O288 1.252 . S
C289 O290 1.252 . S
O290 Zn272 1.975 . S
O290 C289 1.252 . S
H291 C284 0.930 . S
H292 C285 0.930 . S
C293 C294 1.392 . S
C293 N297 1.328 . S
C293 H299 0.930 . S
C294 C293 1.392 . S
C294 N298 1.331 . S
C295 C296 1.391 . S
C295 N298 1.329 . S
C295 H305 0.930 . S
C296 C295 1.391 . S
C296 N297 1.334 . S
C296 H303 0.930 . S
N297 Zn281 2.119 . S
N297 C293 1.328 . S
N297 C296 1.334 . S
N298 C294 1.331 . S
N298 C295 1.329 . S
H299 C293 0.930 . S
C300 O280 1.257 . S
C300 O301 1.244 . S
O301 C300 1.244 . S
O302 C278 1.257 . S
O302 Zn281 2.019 . S
H303 C296 0.930 . S
H304 C283 0.930 . S
H305 C295 0.930 . S
Zn306 N310 2.020 . S
Zn306 O314 2.019 . S
Zn306 N316 2.119 . S
Zn306 O324 1.975 . S
C307 N308 1.334 . S
C307 N311 1.336 . S
N308 C307 1.334 . S
N308 C309 1.334 . S
C309 N308 1.334 . S
C309 N310 1.336 . S
N310 Zn306 2.020 . S
N310 C309 1.336 . S
N310 N311 1.354 . S
N311 C307 1.336 . S
N311 N310 1.354 . S
N311 Zn315 2.020 . S
C312 O313 1.244 1_655 S
C312 O336 1.257 1_655 S
O313 C312 1.244 1_455 S
O314 Zn306 2.019 . S
O314 C334 1.257 . S
Zn315 N311 2.020 . S
Zn315 O322 1.975 . S
Zn315 N331 2.119 . S
Zn315 O336 2.019 . S
N316 Zn306 2.119 . S
N316 C318 1.334 . S
N316 C319 1.328 . S
C317 C318 1.391 . S
C317 N320 1.329 . S
C317 H338 0.930 . S
C318 N316 1.334 . S
C318 C317 1.391 . S
C318 H325 0.930 . S
C319 N316 1.328 . S
C319 C321 1.392 . S
C319 H326 0.930 . S
N320 C317 1.329 . S
N320 C321 1.331 . S
C321 C319 1.392 . S
C321 N320 1.331 . S
O322 Zn315 1.975 . S
O322 C323 1.252 . S
C323 O322 1.252 . S
C323 O324 1.252 . S
O324 Zn306 1.975 . S
O324 C323 1.252 . S
H325 C318 0.930 . S
H326 C319 0.930 . S
C327 C328 1.392 . S
C327 N331 1.328 . S
C327 H333 0.930 . S
C328 C327 1.392 . S
C328 N332 1.331 . S
C329 C330 1.391 . S
C329 N332 1.329 . S
C329 H339 0.930 . S
C330 C329 1.391 . S
C330 N331 1.334 . S
C330 H337 0.930 . S
N331 Zn315 2.119 . S
N331 C327 1.328 . S
N331 C330 1.334 . S
N332 C328 1.331 . S
N332 C329 1.329 . S
H333 C327 0.930 . S
C334 O314 1.257 . S
C334 O335 1.244 . S
O335 C334 1.244 . S
O336 C312 1.257 1_455 S
O336 Zn315 2.019 . S
H337 C330 0.930 . S
H338 C317 0.930 . S
H339 C329 0.930 . S
Zn340 N344 2.020 . S
Zn340 O348 2.019 . S
Zn340 N350 2.119 . S
Zn340 O358 1.975 . S
C341 N342 1.334 . S
C341 N345 1.336 . S
N342 C341 1.334 . S
N342 C343 1.334 . S
C343 N342 1.334 . S
C343 N344 1.336 . S
N344 Zn340 2.020 . S
N344 C343 1.336 . S
N344 N345 1.354 . S
N345 C341 1.336 . S
N345 N344 1.354 . S
N345 Zn349 2.020 . S
C346 O347 1.244 . S
C346 O370 1.257 . S
O347 C346 1.244 . S
O348 Zn340 2.019 . S
O348 C368 1.257 1_545 S
Zn349 N345 2.020 . S
Zn349 O356 1.975 . S
Zn349 N365 2.119 . S
Zn349 O370 2.019 . S
N350 Zn340 2.119 . S
N350 C352 1.334 . S
N350 C353 1.328 . S
C351 C352 1.391 . S
C351 N354 1.329 . S
C351 H372 0.930 . S
C352 N350 1.334 . S
C352 C351 1.391 . S
C352 H359 0.930 . S
C353 N350 1.328 . S
C353 C355 1.392 . S
C353 H360 0.930 . S
N354 C351 1.329 . S
N354 C355 1.331 . S
C355 C353 1.392 . S
C355 N354 1.331 . S
O356 Zn349 1.975 . S
O356 C357 1.252 . S
C357 O356 1.252 . S
C357 O358 1.252 . S
O358 Zn340 1.975 . S
O358 C357 1.252 . S
H359 C352 0.930 . S
H360 C353 0.930 . S
C361 C362 1.392 . S
C361 N365 1.328 . S
C361 H367 0.930 . S
C362 C361 1.392 . S
C362 N366 1.331 . S
C363 C364 1.391 . S
C363 N366 1.329 . S
C363 H373 0.930 . S
C364 C363 1.391 . S
C364 N365 1.334 . S
C364 H371 0.930 . S
N365 Zn349 2.119 . S
N365 C361 1.328 . S
N365 C364 1.334 . S
N366 C362 1.331 . S
N366 C363 1.329 . S
H367 C361 0.930 . S
C368 O348 1.257 1_565 S
C368 O369 1.244 1_565 S
O369 C368 1.244 1_545 S
O370 C346 1.257 . S
O370 Zn349 2.019 . S
H371 C364 0.930 . S
H372 C351 0.930 . S
H373 C363 0.930 . S
Zn374 N378 2.020 . S
Zn374 O382 2.019 . S
Zn374 N384 2.119 . S
Zn374 O392 1.975 . S
C375 N376 1.334 . S
C375 N379 1.336 . S
N376 C375 1.334 . S
N376 C377 1.334 . S
C377 N376 1.334 . S
C377 N378 1.336 . S
N378 Zn374 2.020 . S
N378 C377 1.336 . S
N378 N379 1.354 . S
N379 C375 1.336 . S
N379 N378 1.354 . S
N379 Zn383 2.020 . S
C380 O381 1.244 . S
C380 O404 1.257 . S
O381 C380 1.244 . S
O382 Zn374 2.019 . S
O382 C402 1.257 . S
Zn383 N379 2.020 . S
Zn383 O390 1.975 . S
Zn383 N399 2.119 . S
Zn383 O404 2.019 . S
N384 Zn374 2.119 . S
N384 C386 1.334 . S
N384 C387 1.328 . S
C385 C386 1.391 . S
C385 N388 1.329 . S
C385 H406 0.930 . S
C386 N384 1.334 . S
C386 C385 1.391 . S
C386 H393 0.930 . S
C387 N384 1.328 . S
C387 C389 1.392 . S
C387 H394 0.930 . S
N388 C385 1.329 . S
N388 C389 1.331 . S
C389 C387 1.392 . S
C389 N388 1.331 . S
O390 Zn383 1.975 . S
O390 C391 1.252 . S
C391 O390 1.252 . S
C391 O392 1.252 . S
O392 Zn374 1.975 . S
O392 C391 1.252 . S
H393 C386 0.930 . S
H394 C387 0.930 . S
C395 C396 1.392 . S
C395 N399 1.328 . S
C395 H401 0.930 . S
C396 C395 1.392 . S
C396 N400 1.331 . S
C397 C398 1.391 . S
C397 N400 1.329 . S
C397 H407 0.930 . S
C398 C397 1.391 . S
C398 N399 1.334 . S
C398 H405 0.930 . S
N399 Zn383 2.119 . S
N399 C395 1.328 . S
N399 C398 1.334 . S
N400 C396 1.331 . S
N400 C397 1.329 . S
H401 C395 0.930 . S
C402 O382 1.257 . S
C402 O403 1.244 . S
O403 C402 1.244 . S
O404 C380 1.257 . S
O404 Zn383 2.019 . S
H405 C398 0.930 . S
H406 C385 0.930 . S
H407 C397 0.930 . S
Zn408 N412 2.020 . S
Zn408 O416 2.019 . S
Zn408 N418 2.119 . S
Zn408 O426 1.975 . S
C409 N410 1.334 . S
C409 N413 1.336 . S
N410 C409 1.334 . S
N410 C411 1.334 . S
C411 N410 1.334 . S
C411 N412 1.336 . S
N412 Zn408 2.020 . S
N412 C411 1.336 . S
N412 N413 1.354 . S
N413 C409 1.336 . S
N413 N412 1.354 . S
N413 Zn417 2.020 . S
C414 O415 1.244 . S
C414 O438 1.257 . S
O415 C414 1.244 . S
O416 Zn408 2.019 . S
O416 C436 1.257 1_565 S
Zn417 N413 2.020 . S
Zn417 O424 1.975 . S
Zn417 N433 2.119 . S
Zn417 O438 2.019 . S
N418 Zn408 2.119 . S
N418 C420 1.334 . S
N418 C421 1.328 . S
C419 C420 1.391 . S
C419 N422 1.329 . S
C419 H440 0.930 . S
C420 N418 1.334 . S
C420 C419 1.391 . S
C420 H427 0.930 . S
C421 N418 1.328 . S
C421 C423 1.392 . S
C421 H428 0.930 . S
N422 C419 1.329 . S
N422 C423 1.331 . S
C423 C421 1.392 . S
C423 N422 1.331 . S
O424 Zn417 1.975 . S
O424 C425 1.252 . S
C425 O424 1.252 . S
C425 O426 1.252 . S
O426 Zn408 1.975 . S
O426 C425 1.252 . S
H427 C420 0.930 . S
H428 C421 0.930 . S
C429 C430 1.392 . S
C429 N433 1.328 . S
C429 H435 0.930 . S
C430 C429 1.392 . S
C430 N434 1.331 . S
C431 C432 1.391 . S
C431 N434 1.329 . S
C431 H441 0.930 . S
C432 C431 1.391 . S
C432 N433 1.334 . S
C432 H439 0.930 . S
N433 Zn417 2.119 . S
N433 C429 1.328 . S
N433 C432 1.334 . S
N434 C430 1.331 . S
N434 C431 1.329 . S
H435 C429 0.930 . S
C436 O416 1.257 1_545 S
C436 O437 1.244 1_545 S
O437 C436 1.244 1_565 S
O438 C414 1.257 . S
O438 Zn417 2.019 . S
H439 C432 0.930 . S
H440 C419 0.930 . S
H441 C431 0.930 . S
Zn442 N446 2.020 . S
Zn442 O450 2.019 . S
Zn442 N452 2.119 . S
Zn442 O460 1.975 . S
C443 N444 1.334 . S
C443 N447 1.336 . S
N444 C443 1.334 . S
N444 C445 1.334 . S
C445 N444 1.334 . S
C445 N446 1.336 . S
N446 Zn442 2.020 . S
N446 C445 1.336 . S
N446 N447 1.354 . S
N447 C443 1.336 . S
N447 N446 1.354 . S
N447 Zn451 2.020 . S
C448 O449 1.244 . S
C448 O472 1.257 . S
O449 C448 1.244 . S
O450 Zn442 2.019 . S
O450 C470 1.257 . S
Zn451 N447 2.020 . S
Zn451 O458 1.975 . S
Zn451 N467 2.119 . S
Zn451 O472 2.019 . S
N452 Zn442 2.119 . S
N452 C454 1.334 . S
N452 C455 1.328 . S
C453 C454 1.391 . S
C453 N456 1.329 . S
C453 H474 0.930 . S
C454 N452 1.334 . S
C454 C453 1.391 . S
C454 H461 0.930 . S
C455 N452 1.328 . S
C455 C457 1.392 . S
C455 H462 0.930 . S
N456 C453 1.329 . S
N456 C457 1.331 . S
C457 C455 1.392 . S
C457 N456 1.331 . S
O458 Zn451 1.975 . S
O458 C459 1.252 . S
C459 O458 1.252 . S
C459 O460 1.252 . S
O460 Zn442 1.975 . S
O460 C459 1.252 . S
H461 C454 0.930 . S
H462 C455 0.930 . S
C463 C464 1.392 . S
C463 N467 1.328 . S
C463 H469 0.930 . S
C464 C463 1.392 . S
C464 N468 1.331 . S
C465 C466 1.391 . S
C465 N468 1.329 . S
C465 H475 0.930 . S
C466 C465 1.391 . S
C466 N467 1.334 . S
C466 H473 0.930 . S
N467 Zn451 2.119 . S
N467 C463 1.328 . S
N467 C466 1.334 . S
N468 C464 1.331 . S
N468 C465 1.329 . S
H469 C463 0.930 . S
C470 O450 1.257 . S
C470 O471 1.244 . S
O471 C470 1.244 . S
O472 C448 1.257 . S
O472 Zn451 2.019 . S
H473 C466 0.930 . S
H474 C453 0.930 . S
H475 C465 0.930 . S
Zn476 N480 2.020 . S
Zn476 O484 2.019 . S
Zn476 N486 2.119 . S
Zn476 O494 1.975 . S
C477 N478 1.334 . S
C477 N481 1.336 . S
N478 C477 1.334 . S
N478 C479 1.334 . S
C479 N478 1.334 . S
C479 N480 1.336 . S
N480 Zn476 2.020 . S
N480 C479 1.336 . S
N480 N481 1.354 . S
N481 C477 1.336 . S
N481 N480 1.354 . S
N481 Zn485 2.020 . S
C482 O483 1.244 . S
C482 O506 1.257 . S
O483 C482 1.244 . S
O484 Zn476 2.019 . S
O484 C504 1.257 1_455 S
Zn485 N481 2.020 . S
Zn485 O492 1.975 . S
Zn485 N501 2.119 . S
Zn485 O506 2.019 . S
N486 Zn476 2.119 . S
N486 C488 1.334 . S
N486 C489 1.328 . S
C487 C488 1.391 . S
C487 N490 1.329 . S
C487 H508 0.930 . S
C488 N486 1.334 . S
C488 C487 1.391 . S
C488 H495 0.930 . S
C489 N486 1.328 . S
C489 C491 1.392 . S
C489 H496 0.930 . S
N490 C487 1.329 . S
N490 C491 1.331 . S
C491 C489 1.392 . S
C491 N490 1.331 . S
O492 Zn485 1.975 . S
O492 C493 1.252 . S
C493 O492 1.252 . S
C493 O494 1.252 . S
O494 Zn476 1.975 . S
O494 C493 1.252 . S
H495 C488 0.930 . S
H496 C489 0.930 . S
C497 C498 1.392 . S
C497 N501 1.328 . S
C497 H503 0.930 . S
C498 C497 1.392 . S
C498 N502 1.331 . S
C499 C500 1.391 . S
C499 N502 1.329 . S
C499 H509 0.930 . S
C500 C499 1.391 . S
C500 N501 1.334 . S
C500 H507 0.930 . S
N501 Zn485 2.119 . S
N501 C497 1.328 . S
N501 C500 1.334 . S
N502 C498 1.331 . S
N502 C499 1.329 . S
H503 C497 0.930 . S
C504 O484 1.257 1_655 S
C504 O505 1.244 1_655 S
O505 C504 1.244 1_455 S
O506 C482 1.257 . S
O506 Zn485 2.019 . S
H507 C500 0.930 . S
H508 C487 0.930 . S
H509 C499 0.930 . S
Zn510 N514 2.020 . S
Zn510 O518 2.019 . S
Zn510 N520 2.119 . S
Zn510 O528 1.975 . S
C511 N512 1.334 . S
C511 N515 1.336 . S
N512 C511 1.334 . S
N512 C513 1.334 . S
C513 N512 1.334 . S
C513 N514 1.336 . S
N514 Zn510 2.020 . S
N514 C513 1.336 . S
N514 N515 1.354 . S
N515 C511 1.336 . S
N515 N514 1.354 . S
N515 Zn519 2.020 . S
C516 O517 1.244 . S
C516 O540 1.257 . S
O517 C516 1.244 . S
O518 Zn510 2.019 . S
O518 C538 1.257 1_545 S
Zn519 N515 2.020 . S
Zn519 O526 1.975 . S
Zn519 N535 2.119 . S
Zn519 O540 2.019 . S
N520 Zn510 2.119 . S
N520 C522 1.334 . S
N520 C523 1.328 . S
C521 C522 1.391 . S
C521 N524 1.329 . S
C521 H542 0.930 . S
C522 N520 1.334 . S
C522 C521 1.391 . S
C522 H529 0.930 . S
C523 N520 1.328 . S
C523 C525 1.392 . S
C523 H530 0.930 . S
N524 C521 1.329 . S
N524 C525 1.331 . S
C525 C523 1.392 . S
C525 N524 1.331 . S
O526 Zn519 1.975 . S
O526 C527 1.252 . S
C527 O526 1.252 . S
C527 O528 1.252 . S
O528 Zn510 1.975 . S
O528 C527 1.252 . S
H529 C522 0.930 . S
H530 C523 0.930 . S
C531 C532 1.392 . S
C531 N535 1.328 . S
C531 H537 0.930 . S
C532 C531 1.392 . S
C532 N536 1.331 . S
C533 C534 1.391 . S
C533 N536 1.329 . S
C533 H543 0.930 . S
C534 C533 1.391 . S
C534 N535 1.334 . S
C534 H541 0.930 . S
N535 Zn519 2.119 . S
N535 C531 1.328 . S
N535 C534 1.334 . S
N536 C532 1.331 . S
N536 C533 1.329 . S
H537 C531 0.930 . S
C538 O518 1.257 1_565 S
C538 O539 1.244 1_565 S
O539 C538 1.244 1_545 S
O540 C516 1.257 . S
O540 Zn519 2.019 . S
H541 C534 0.930 . S
H542 C521 0.930 . S
H543 C533 0.930 . S
Zn544 N548 2.020 . S
Zn544 O552 2.019 . S
Zn544 N554 2.119 . S
Zn544 O562 1.975 . S
C545 N546 1.334 . S
C545 N549 1.336 . S
N546 C545 1.334 . S
N546 C547 1.334 . S
C547 N546 1.334 . S
C547 N548 1.336 . S
N548 Zn544 2.020 . S
N548 C547 1.336 . S
N548 N549 1.354 . S
N549 C545 1.336 . S
N549 N548 1.354 . S
N549 Zn553 2.020 . S
C550 O551 1.244 . S
C550 O574 1.257 . S
O551 C550 1.244 . S
O552 Zn544 2.019 . S
O552 C572 1.257 . S
Zn553 N549 2.020 . S
Zn553 O560 1.975 . S
Zn553 N569 2.119 . S
Zn553 O574 2.019 . S
N554 Zn544 2.119 . S
N554 C556 1.334 . S
N554 C557 1.328 . S
C555 C556 1.391 . S
C555 N558 1.329 . S
C555 H576 0.930 . S
C556 N554 1.334 . S
C556 C555 1.391 . S
C556 H563 0.930 . S
C557 N554 1.328 . S
C557 C559 1.392 . S
C557 H564 0.930 . S
N558 C555 1.329 . S
N558 C559 1.331 . S
C559 C557 1.392 . S
C559 N558 1.331 . S
O560 Zn553 1.975 . S
O560 C561 1.252 . S
C561 O560 1.252 . S
C561 O562 1.252 . S
O562 Zn544 1.975 . S
O562 C561 1.252 . S
H563 C556 0.930 . S
H564 C557 0.930 . S
C565 C566 1.392 . S
C565 N569 1.328 . S
C565 H571 0.930 . S
C566 C565 1.392 . S
C566 N570 1.331 . S
C567 C568 1.391 . S
C567 N570 1.329 . S
C567 H577 0.930 . S
C568 C567 1.391 . S
C568 N569 1.334 . S
C568 H575 0.930 . S
N569 Zn553 2.119 . S
N569 C565 1.328 . S
N569 C568 1.334 . S
N570 C566 1.331 . S
N570 C567 1.329 . S
H571 C565 0.930 . S
C572 O552 1.257 . S
C572 O573 1.244 . S
O573 C572 1.244 . S
O574 C550 1.257 . S
O574 Zn553 2.019 . S
H575 C568 0.930 . S
H576 C555 0.930 . S
H577 C567 0.930 . S
Zn578 N582 2.020 . S
Zn578 O586 2.019 . S
Zn578 N588 2.119 . S
Zn578 O596 1.975 . S
C579 N580 1.334 . S
C579 N583 1.336 . S
N580 C579 1.334 . S
N580 C581 1.334 . S
C581 N580 1.334 . S
C581 N582 1.336 . S
N582 Zn578 2.020 . S
N582 C581 1.336 . S
N582 N583 1.354 . S
N583 C579 1.336 . S
N583 N582 1.354 . S
N583 Zn587 2.020 . S
C584 O585 1.244 . S
C584 O608 1.257 . S
O585 C584 1.244 . S
O586 Zn578 2.019 . S
O586 C606 1.257 1_655 S
Zn587 N583 2.020 . S
Zn587 O594 1.975 . S
Zn587 N603 2.119 . S
Zn587 O608 2.019 . S
N588 Zn578 2.119 . S
N588 C590 1.334 . S
N588 C591 1.328 . S
C589 C590 1.391 . S
C589 N592 1.329 . S
C589 H610 0.930 . S
C590 N588 1.334 . S
C590 C589 1.391 . S
C590 H597 0.930 . S
C591 N588 1.328 . S
C591 C593 1.392 . S
C591 H598 0.930 . S
N592 C589 1.329 . S
N592 C593 1.331 . S
C593 C591 1.392 . S
C593 N592 1.331 . S
O594 Zn587 1.975 . S
O594 C595 1.252 . S
C595 O594 1.252 . S
C595 O596 1.252 . S
O596 Zn578 1.975 . S
O596 C595 1.252 . S
H597 C590 0.930 . S
H598 C591 0.930 . S
C599 C600 1.392 . S
C599 N603 1.328 . S
C599 H605 0.930 . S
C600 C599 1.392 . S
C600 N604 1.331 . S
C601 C602 1.391 . S
C601 N604 1.329 . S
C601 H611 0.930 . S
C602 C601 1.391 . S
C602 N603 1.334 . S
C602 H609 0.930 . S
N603 Zn587 2.119 . S
N603 C599 1.328 . S
N603 C602 1.334 . S
N604 C600 1.331 . S
N604 C601 1.329 . S
H605 C599 0.930 . S
C606 O586 1.257 1_455 S
C606 O607 1.244 1_455 S
O607 C606 1.244 1_655 S
O608 C584 1.257 . S
O608 Zn587 2.019 . S
H609 C602 0.930 . S
H610 C589 0.930 . S
H611 C601 0.930 . S
Zn612 N616 2.020 . S
Zn612 O620 2.019 . S
Zn612 N622 2.119 . S
Zn612 O630 1.975 . S
C613 N614 1.334 . S
C613 N617 1.336 . S
N614 C613 1.334 . S
N614 C615 1.334 . S
C615 N614 1.334 . S
C615 N616 1.336 . S
N616 Zn612 2.020 . S
N616 C615 1.336 . S
N616 N617 1.354 . S
N617 C613 1.336 . S
N617 N616 1.354 . S
N617 Zn621 2.020 . S
C618 O619 1.244 1_655 S
C618 O642 1.257 1_655 S
O619 C618 1.244 1_455 S
O620 Zn612 2.019 . S
O620 C640 1.257 . S
Zn621 N617 2.020 . S
Zn621 O628 1.975 . S
Zn621 N637 2.119 . S
Zn621 O642 2.019 . S
N622 Zn612 2.119 . S
N622 C624 1.334 . S
N622 C625 1.328 . S
C623 C624 1.391 . S
C623 N626 1.329 . S
C623 H644 0.930 . S
C624 N622 1.334 . S
C624 C623 1.391 . S
C624 H631 0.930 . S
C625 N622 1.328 . S
C625 C627 1.392 . S
C625 H632 0.930 . S
N626 C623 1.329 . S
N626 C627 1.331 . S
C627 C625 1.392 . S
C627 N626 1.331 . S
O628 Zn621 1.975 . S
O628 C629 1.252 . S
C629 O628 1.252 . S
C629 O630 1.252 . S
O630 Zn612 1.975 . S
O630 C629 1.252 . S
H631 C624 0.930 . S
H632 C625 0.930 . S
C633 C634 1.392 . S
C633 N637 1.328 . S
C633 H639 0.930 . S
C634 C633 1.392 . S
C634 N638 1.331 . S
C635 C636 1.391 . S
C635 N638 1.329 . S
C635 H645 0.930 . S
C636 C635 1.391 . S
C636 N637 1.334 . S
C636 H643 0.930 . S
N637 Zn621 2.119 . S
N637 C633 1.328 . S
N637 C636 1.334 . S
N638 C634 1.331 . S
N638 C635 1.329 . S
H639 C633 0.930 . S
C640 O620 1.257 . S
C640 O641 1.244 . S
O641 C640 1.244 . S
O642 C618 1.257 1_455 S
O642 Zn621 2.019 . S
H643 C636 0.930 . S
H644 C623 0.930 . S
H645 C635 0.930 . S
Zn646 N650 2.020 . S
Zn646 O654 2.019 . S
Zn646 N656 2.119 . S
Zn646 O664 1.975 . S
C647 N648 1.334 . S
C647 N651 1.336 . S
N648 C647 1.334 . S
N648 C649 1.334 . S
C649 N648 1.334 . S
C649 N650 1.336 . S
N650 Zn646 2.020 . S
N650 C649 1.336 . S
N650 N651 1.354 . S
N651 C647 1.336 . S
N651 N650 1.354 . S
N651 Zn655 2.020 . S
C652 O653 1.244 1_565 S
C652 O676 1.257 1_565 S
O653 C652 1.244 1_545 S
O654 Zn646 2.019 . S
O654 C674 1.257 . S
Zn655 N651 2.020 . S
Zn655 O662 1.975 . S
Zn655 N671 2.119 . S
Zn655 O676 2.019 . S
N656 Zn646 2.119 . S
N656 C658 1.334 . S
N656 C659 1.328 . S
C657 C658 1.391 . S
C657 N660 1.329 . S
C657 H678 0.930 . S
C658 N656 1.334 . S
C658 C657 1.391 . S
C658 H665 0.930 . S
C659 N656 1.328 . S
C659 C661 1.392 . S
C659 H666 0.930 . S
N660 C657 1.329 . S
N660 C661 1.331 . S
C661 C659 1.392 . S
C661 N660 1.331 . S
O662 Zn655 1.975 . S
O662 C663 1.252 . S
C663 O662 1.252 . S
C663 O664 1.252 . S
O664 Zn646 1.975 . S
O664 C663 1.252 . S
H665 C658 0.930 . S
H666 C659 0.930 . S
C667 C668 1.392 . S
C667 N671 1.328 . S
C667 H673 0.930 . S
C668 C667 1.392 . S
C668 N672 1.331 . S
C669 C670 1.391 . S
C669 N672 1.329 . S
C669 H679 0.930 . S
C670 C669 1.391 . S
C670 N671 1.334 . S
C670 H677 0.930 . S
N671 Zn655 2.119 . S
N671 C667 1.328 . S
N671 C670 1.334 . S
N672 C668 1.331 . S
N672 C669 1.329 . S
H673 C667 0.930 . S
C674 O654 1.257 . S
C674 O675 1.244 . S
O675 C674 1.244 . S
O676 C652 1.257 1_545 S
O676 Zn655 2.019 . S
H677 C670 0.930 . S
H678 C657 0.930 . S
H679 C669 0.930 . S
Zn680 N684 2.020 . S
Zn680 O688 2.019 . S
Zn680 N690 2.119 . S
Zn680 O698 1.975 . S
C681 N682 1.334 . S
C681 N685 1.336 . S
N682 C681 1.334 . S
N682 C683 1.334 . S
C683 N682 1.334 . S
C683 N684 1.336 . S
N684 Zn680 2.020 . S
N684 C683 1.336 . S
N684 N685 1.354 . S
N685 C681 1.336 . S
N685 N684 1.354 . S
N685 Zn689 2.020 . S
C686 O687 1.244 . S
C686 O710 1.257 . S
O687 C686 1.244 . S
O688 Zn680 2.019 . S
O688 C708 1.257 . S
Zn689 N685 2.020 . S
Zn689 O696 1.975 . S
Zn689 N705 2.119 . S
Zn689 O710 2.019 . S
N690 Zn680 2.119 . S
N690 C692 1.334 . S
N690 C693 1.328 . S
C691 C692 1.391 . S
C691 N694 1.329 . S
C691 H712 0.930 . S
C692 N690 1.334 . S
C692 C691 1.391 . S
C692 H699 0.930 . S
C693 N690 1.328 . S
C693 C695 1.392 . S
C693 H700 0.930 . S
N694 C691 1.329 . S
N694 C695 1.331 . S
C695 C693 1.392 . S
C695 N694 1.331 . S
O696 Zn689 1.975 . S
O696 C697 1.252 . S
C697 O696 1.252 . S
C697 O698 1.252 . S
O698 Zn680 1.975 . S
O698 C697 1.252 . S
H699 C692 0.930 . S
H700 C693 0.930 . S
C701 C702 1.392 . S
C701 N705 1.328 . S
C701 H707 0.930 . S
C702 C701 1.392 . S
C702 N706 1.331 . S
C703 C704 1.391 . S
C703 N706 1.329 . S
C703 H713 0.930 . S
C704 C703 1.391 . S
C704 N705 1.334 . S
C704 H711 0.930 . S
N705 Zn689 2.119 . S
N705 C701 1.328 . S
N705 C704 1.334 . S
N706 C702 1.331 . S
N706 C703 1.329 . S
H707 C701 0.930 . S
C708 O688 1.257 . S
C708 O709 1.244 . S
O709 C708 1.244 . S
O710 C686 1.257 . S
O710 Zn689 2.019 . S
H711 C704 0.930 . S
H712 C691 0.930 . S
H713 C703 0.930 . S
Zn714 N718 2.020 . S
Zn714 O722 2.019 . S
Zn714 N724 2.119 . S
Zn714 O732 1.975 . S
C715 N716 1.334 . S
C715 N719 1.336 . S
N716 C715 1.334 . S
N716 C717 1.334 . S
C717 N716 1.334 . S
C717 N718 1.336 . S
N718 Zn714 2.020 . S
N718 C717 1.336 . S
N718 N719 1.354 . S
N719 C715 1.336 . S
N719 N718 1.354 . S
N719 Zn723 2.020 . S
C720 O721 1.244 1_455 S
C720 O744 1.257 1_455 S
O721 C720 1.244 1_655 S
O722 Zn714 2.019 . S
O722 C742 1.257 . S
Zn723 N719 2.020 . S
Zn723 O730 1.975 . S
Zn723 N739 2.119 . S
Zn723 O744 2.019 . S
N724 Zn714 2.119 . S
N724 C726 1.334 . S
N724 C727 1.328 . S
C725 C726 1.391 . S
C725 N728 1.329 . S
C725 H746 0.930 . S
C726 N724 1.334 . S
C726 C725 1.391 . S
C726 H733 0.930 . S
C727 N724 1.328 . S
C727 C729 1.392 . S
C727 H734 0.930 . S
N728 C725 1.329 . S
N728 C729 1.331 . S
C729 C727 1.392 . S
C729 N728 1.331 . S
O730 Zn723 1.975 . S
O730 C731 1.252 . S
C731 O730 1.252 . S
C731 O732 1.252 . S
O732 Zn714 1.975 . S
O732 C731 1.252 . S
H733 C726 0.930 . S
H734 C727 0.930 . S
C735 C736 1.392 . S
C735 N739 1.328 . S
C735 H741 0.930 . S
C736 C735 1.392 . S
C736 N740 1.331 . S
C737 C738 1.391 . S
C737 N740 1.329 . S
C737 H747 0.930 . S
C738 C737 1.391 . S
C738 N739 1.334 . S
C738 H745 0.930 . S
N739 Zn723 2.119 . S
N739 C735 1.328 . S
N739 C738 1.334 . S
N740 C736 1.331 . S
N740 C737 1.329 . S
H741 C735 0.930 . S
C742 O722 1.257 . S
C742 O743 1.244 . S
O743 C742 1.244 . S
O744 C720 1.257 1_655 S
O744 Zn723 2.019 . S
H745 C738 0.930 . S
H746 C725 0.930 . S
H747 C737 0.930 . S
Zn748 N752 2.020 . S
Zn748 O756 2.019 . S
Zn748 N758 2.119 . S
Zn748 O766 1.975 . S
C749 N750 1.334 . S
C749 N753 1.336 . S
N750 C749 1.334 . S
N750 C751 1.334 . S
C751 N750 1.334 . S
C751 N752 1.336 . S
N752 Zn748 2.020 . S
N752 C751 1.336 . S
N752 N753 1.354 . S
N753 C749 1.336 . S
N753 N752 1.354 . S
N753 Zn757 2.020 . S
C754 O755 1.244 . S
C754 O778 1.257 . S
O755 C754 1.244 . S
O756 Zn748 2.019 . S
O756 C776 1.257 1_565 S
Zn757 N753 2.020 . S
Zn757 O764 1.975 . S
Zn757 N773 2.119 . S
Zn757 O778 2.019 . S
N758 Zn748 2.119 . S
N758 C760 1.334 . S
N758 C761 1.328 . S
C759 C760 1.391 . S
C759 N762 1.329 . S
C759 H780 0.930 . S
C760 N758 1.334 . S
C760 C759 1.391 . S
C760 H767 0.930 . S
C761 N758 1.328 . S
C761 C763 1.392 . S
C761 H768 0.930 . S
N762 C759 1.329 . S
N762 C763 1.331 . S
C763 C761 1.392 . S
C763 N762 1.331 . S
O764 Zn757 1.975 . S
O764 C765 1.252 . S
C765 O764 1.252 . S
C765 O766 1.252 . S
O766 Zn748 1.975 . S
O766 C765 1.252 . S
H767 C760 0.930 . S
H768 C761 0.930 . S
C769 C770 1.392 . S
C769 N773 1.328 . S
C769 H775 0.930 . S
C770 C769 1.392 . S
C770 N774 1.331 . S
C771 C772 1.391 . S
C771 N774 1.329 . S
C771 H781 0.930 . S
C772 C771 1.391 . S
C772 N773 1.334 . S
C772 H779 0.930 . S
N773 Zn757 2.119 . S
N773 C769 1.328 . S
N773 C772 1.334 . S
N774 C770 1.331 . S
N774 C771 1.329 . S
H775 C769 0.930 . S
C776 O756 1.257 1_545 S
C776 O777 1.244 1_545 S
O777 C776 1.244 1_565 S
O778 C754 1.257 . S
O778 Zn757 2.019 . S
H779 C772 0.930 . S
H780 C759 0.930 . S
H781 C771 0.930 . S
Zn782 N786 2.020 . S
Zn782 O790 2.019 . S
Zn782 N792 2.119 . S
Zn782 O800 1.975 . S
C783 N784 1.334 . S
C783 N787 1.336 . S
N784 C783 1.334 . S
N784 C785 1.334 . S
C785 N784 1.334 . S
C785 N786 1.336 . S
N786 Zn782 2.020 . S
N786 C785 1.336 . S
N786 N787 1.354 . S
N787 C783 1.336 . S
N787 N786 1.354 . S
N787 Zn791 2.020 . S
C788 O789 1.244 . S
C788 O812 1.257 . S
O789 C788 1.244 . S
O790 Zn782 2.019 . S
O790 C810 1.257 . S
Zn791 N787 2.020 . S
Zn791 O798 1.975 . S
Zn791 N807 2.119 . S
Zn791 O812 2.019 . S
N792 Zn782 2.119 . S
N792 C794 1.334 . S
N792 C795 1.328 . S
C793 C794 1.391 . S
C793 N796 1.329 . S
C793 H814 0.930 . S
C794 N792 1.334 . S
C794 C793 1.391 . S
C794 H801 0.930 . S
C795 N792 1.328 . S
C795 C797 1.392 . S
C795 H802 0.930 . S
N796 C793 1.329 . S
N796 C797 1.331 . S
C797 C795 1.392 . S
C797 N796 1.331 . S
O798 Zn791 1.975 . S
O798 C799 1.252 . S
C799 O798 1.252 . S
C799 O800 1.252 . S
O800 Zn782 1.975 . S
O800 C799 1.252 . S
H801 C794 0.930 . S
H802 C795 0.930 . S
C803 C804 1.392 . S
C803 N807 1.328 . S
C803 H809 0.930 . S
C804 C803 1.392 . S
C804 N808 1.331 . S
C805 C806 1.391 . S
C805 N808 1.329 . S
C805 H815 0.930 . S
C806 C805 1.391 . S
C806 N807 1.334 . S
C806 H813 0.930 . S
N807 Zn791 2.119 . S
N807 C803 1.328 . S
N807 C806 1.334 . S
N808 C804 1.331 . S
N808 C805 1.329 . S
H809 C803 0.930 . S
C810 O790 1.257 . S
C810 O811 1.244 . S
O811 C810 1.244 . S
O812 C788 1.257 . S
O812 Zn791 2.019 . S
H813 C806 0.930 . S
H814 C793 0.930 . S
H815 C805 0.930 . S
C816 C817 1.387 . S
C816 H820 0.950 . S
C816 C825 1.390 . S
C817 C816 1.387 . S
C817 C819 1.387 . S
H818 C825 0.950 . S
C819 C817 1.387 . S
C819 C821 1.390 . S
C819 H823 0.950 . S
H820 C816 0.950 . S
C821 C819 1.390 . S
C821 C822 1.387 . S
C821 H824 0.950 . S
C822 C821 1.387 . S
C822 C825 1.387 . S
H823 C819 0.950 . S
H824 C821 0.950 . S
C825 C816 1.390 . S
C825 H818 0.950 . S
C825 C822 1.387 . S
C826 C827 1.387 . S
C826 H830 0.950 . S
C826 C835 1.390 . S
C827 C826 1.387 . S
C827 C829 1.387 . S
H828 C835 0.950 . S
C829 C827 1.387 . S
C829 C831 1.390 . S
C829 H833 0.950 . S
H830 C826 0.950 . S
C831 C829 1.390 . S
C831 C832 1.387 . S
C831 H834 0.950 . S
C832 C831 1.387 . S
C832 C835 1.387 . S
H833 C829 0.950 . S
H834 C831 0.950 . S
C835 C826 1.390 . S
C835 H828 0.950 . S
C835 C832 1.387 . S
C836 C837 1.387 . S
C836 H840 0.950 . S
C836 C845 1.390 . S
C837 C836 1.387 . S
C837 C839 1.387 . S
H838 C845 0.950 . S
C839 C837 1.387 . S
C839 C841 1.390 . S
C839 H843 0.950 . S
H840 C836 0.950 . S
C841 C839 1.390 . S
C841 C842 1.387 . S
C841 H844 0.950 . S
C842 C841 1.387 . S
C842 C845 1.387 . S
H843 C839 0.950 . S
H844 C841 0.950 . S
C845 C836 1.390 . S
C845 H838 0.950 . S
C845 C842 1.387 . S
C846 C847 1.387 . S
C846 H850 0.950 . S
C846 C855 1.390 . S
C847 C846 1.387 . S
C847 C849 1.387 . S
H848 C855 0.950 . S
C849 C847 1.387 . S
C849 C851 1.390 . S
C849 H853 0.950 . S
H850 C846 0.950 . S
C851 C849 1.390 . S
C851 C852 1.387 . S
C851 H854 0.950 . S
C852 C851 1.387 . S
C852 C855 1.387 . S
H853 C849 0.950 . S
H854 C851 0.950 . S
C855 C846 1.390 . S
C855 H848 0.950 . S
C855 C852 1.387 . S
C856 C857 1.387 . S
C856 H860 0.950 . S
C856 C865 1.390 . S
C857 C856 1.387 . S
C857 C859 1.387 . S
H858 C865 0.950 . S
C859 C857 1.387 . S
C859 C861 1.390 . S
C859 H863 0.950 . S
H860 C856 0.950 . S
C861 C859 1.390 . S
C861 C862 1.387 . S
C861 H864 0.950 . S
C862 C861 1.387 . S
C862 C865 1.387 . S
H863 C859 0.950 . S
H864 C861 0.950 . S
C865 C856 1.390 . S
C865 H858 0.950 . S
C865 C862 1.387 . S
C866 C867 1.387 . S
C866 H870 0.950 . S
C866 C875 1.390 . S
C867 C866 1.387 . S
C867 C869 1.387 . S
H868 C875 0.950 . S
C869 C867 1.387 . S
C869 C871 1.390 . S
C869 H873 0.950 . S
H870 C866 0.950 . S
C871 C869 1.390 . S
C871 C872 1.387 . S
C871 H874 0.950 . S
C872 C871 1.387 . S
C872 C875 1.387 . S
H873 C869 0.950 . S
H874 C871 0.950 . S
C875 C866 1.390 . S
C875 H868 0.950 . S
C875 C872 1.387 . S
C876 C877 1.387 . S
C876 H880 0.950 . S
C876 C885 1.390 . S
C877 C876 1.387 . S
C877 C879 1.387 . S
H878 C885 0.950 . S
C879 C877 1.387 . S
C879 C881 1.390 . S
C879 H883 0.950 . S
H880 C876 0.950 . S
C881 C879 1.390 . S
C881 C882 1.387 . S
C881 H884 0.950 . S
C882 C881 1.387 . S
C882 C885 1.387 . S
H883 C879 0.950 . S
H884 C881 0.950 . S
C885 C876 1.390 . S
C885 H878 0.950 . S
C885 C882 1.387 . S
C886 C887 1.387 . S
C886 H890 0.950 . S
C886 C895 1.390 . S
C887 C886 1.387 . S
C887 C889 1.387 . S
H888 C895 0.950 . S
C889 C887 1.387 . S
C889 C891 1.390 . S
C889 H893 0.950 . S
H890 C886 0.950 . S
C891 C889 1.390 . S
C891 C892 1.387 . S
C891 H894 0.950 . S
C892 C891 1.387 . S
C892 C895 1.387 . S
H893 C889 0.950 . S
H894 C891 0.950 . S
C895 C886 1.390 . S
C895 H888 0.950 . S
C895 C892 1.387 . S
C896 C897 1.387 . S
C896 H900 0.950 . S
C896 C905 1.390 . S
C897 C896 1.387 . S
C897 C899 1.387 . S
H898 C905 0.950 . S
C899 C897 1.387 . S
C899 C901 1.390 . S
C899 H903 0.950 . S
H900 C896 0.950 . S
C901 C899 1.390 . S
C901 C902 1.387 . S
C901 H904 0.950 . S
C902 C901 1.387 . S
C902 C905 1.387 . S
H903 C899 0.950 . S
H904 C901 0.950 . S
C905 C896 1.390 . S
C905 H898 0.950 . S
C905 C902 1.387 . S
C906 C907 1.387 . S
C906 H910 0.950 . S
C906 C915 1.390 . S
C907 C906 1.387 . S
C907 C909 1.387 . S
H908 C915 0.950 . S
C909 C907 1.387 . S
C909 C911 1.390 . S
C909 H913 0.950 . S
H910 C906 0.950 . S
C911 C909 1.390 . S
C911 C912 1.387 . S
C911 H914 0.950 . S
C912 C911 1.387 . S
C912 C915 1.387 . S
H913 C909 0.950 . S
H914 C911 0.950 . S
C915 C906 1.390 . S
C915 H908 0.950 . S
C915 C912 1.387 . S
C916 C917 1.387 . S
C916 H920 0.950 . S
C916 C925 1.390 . S
C917 C916 1.387 . S
C917 C919 1.387 . S
H918 C925 0.950 . S
C919 C917 1.387 . S
C919 C921 1.390 . S
C919 H923 0.950 . S
H920 C916 0.950 . S
C921 C919 1.390 . S
C921 C922 1.387 . S
C921 H924 0.950 . S
C922 C921 1.387 . S
C922 C925 1.387 . S
H923 C919 0.950 . S
H924 C921 0.950 . S
C925 C916 1.390 . S
C925 H918 0.950 . S
C925 C922 1.387 . S
C926 C927 1.387 . S
C926 H930 0.950 . S
C926 C935 1.390 . S
C927 C926 1.387 . S
C927 C929 1.387 . S
H928 C935 0.950 . S
C929 C927 1.387 . S
C929 C931 1.390 . S
C929 H933 0.950 . S
H930 C926 0.950 . S
C931 C929 1.390 . S
C931 C932 1.387 . S
C931 H934 0.950 . S
C932 C931 1.387 . S
C932 C935 1.387 . S
H933 C929 0.950 . S
H934 C931 0.950 . S
C935 C926 1.390 . S
C935 H928 0.950 . S
C935 C932 1.387 . S
C936 C937 1.387 . S
C936 H940 0.950 . S
C936 C945 1.390 . S
C937 C936 1.387 . S
C937 C939 1.387 . S
H938 C945 0.950 . S
C939 C937 1.387 . S
C939 C941 1.390 . S
C939 H943 0.950 . S
H940 C936 0.950 . S
C941 C939 1.390 . S
C941 C942 1.387 . S
C941 H944 0.950 . S
C942 C941 1.387 . S
C942 C945 1.387 . S
H943 C939 0.950 . S
H944 C941 0.950 . S
C945 C936 1.390 . S
C945 H938 0.950 . S
C945 C942 1.387 . S
C946 C947 1.387 . S
C946 H950 0.950 . S
C946 C955 1.390 . S
C947 C946 1.387 . S
C947 C949 1.387 . S
H948 C955 0.950 . S
C949 C947 1.387 . S
C949 C951 1.390 . S
C949 H953 0.950 . S
H950 C946 0.950 . S
C951 C949 1.390 . S
C951 C952 1.387 . S
C951 H954 0.950 . S
C952 C951 1.387 . S
C952 C955 1.387 . S
H953 C949 0.950 . S
H954 C951 0.950 . S
C955 C946 1.390 . S
C955 H948 0.950 . S
C955 C952 1.387 . S
C956 C957 1.387 . S
C956 H960 0.950 . S
C956 C965 1.390 . S
C957 C956 1.387 . S
C957 C959 1.387 . S
H958 C965 0.950 . S
C959 C957 1.387 . S
C959 C961 1.390 . S
C959 H963 0.950 . S
H960 C956 0.950 . S
C961 C959 1.390 . S
C961 C962 1.387 . S
C961 H964 0.950 . S
C962 C961 1.387 . S
C962 C965 1.387 . S
H963 C959 0.950 . S
H964 C961 0.950 . S
C965 C956 1.390 . S
C965 H958 0.950 . S
C965 C962 1.387 . S
C966 C967 1.387 . S
C966 H970 0.950 . S
C966 C975 1.390 . S
C967 C966 1.387 . S
C967 C969 1.387 . S
H968 C975 0.950 . S
C969 C967 1.387 . S
C969 C971 1.390 . S
C969 H973 0.950 . S
H970 C966 0.950 . S
C971 C969 1.390 . S
C971 C972 1.387 . S
C971 H974 0.950 . S
C972 C971 1.387 . S
C972 C975 1.387 . S
H973 C969 0.950 . S
H974 C971 0.950 . S
C975 C966 1.390 . S
C975 H968 0.950 . S
C975 C972 1.387 . S
C976 C977 1.387 . S
C976 H980 0.950 . S
C976 C985 1.390 . S
C977 C976 1.387 . S
C977 C979 1.387 . S
H978 C985 0.950 . S
C979 C977 1.387 . S
C979 C981 1.390 . S
C979 H983 0.950 . S
H980 C976 0.950 . S
C981 C979 1.390 . S
C981 C982 1.387 . S
C981 H984 0.950 . S
C982 C981 1.387 . S
C982 C985 1.387 . S
H983 C979 0.950 . S
H984 C981 0.950 . S
C985 C976 1.390 . S
C985 H978 0.950 . S
C985 C982 1.387 . S
C986 C987 1.387 . S
C986 H990 0.950 . S
C986 C995 1.390 . S
C987 C986 1.387 . S
C987 C989 1.387 . S
H988 C995 0.950 . S
C989 C987 1.387 . S
C989 C991 1.390 . S
C989 H993 0.950 . S
H990 C986 0.950 . S
C991 C989 1.390 . S
C991 C992 1.387 . S
C991 H994 0.950 . S
C992 C991 1.387 . S
C992 C995 1.387 . S
H993 C989 0.950 . S
H994 C991 0.950 . S
C995 C986 1.390 . S
C995 H988 0.950 . S
C995 C992 1.387 . S
C996 C997 1.387 . S
C996 H1000 0.950 . S
C996 C1005 1.390 . S
C997 C996 1.387 . S
C997 C999 1.387 . S
H998 C1005 0.950 . S
C999 C997 1.387 . S
C999 C1001 1.390 . S
C999 H1003 0.950 . S
H1000 C996 0.950 . S
C1001 C999 1.390 . S
C1001 C1002 1.387 . S
C1001 H1004 0.950 . S
C1002 C1001 1.387 . S
C1002 C1005 1.387 . S
H1003 C999 0.950 . S
H1004 C1001 0.950 . S
C1005 C996 1.390 . S
C1005 H998 0.950 . S
C1005 C1002 1.387 . S
C1006 C1007 1.387 . S
C1006 H1010 0.950 . S
C1006 C1015 1.390 . S
C1007 C1006 1.387 . S
C1007 C1009 1.387 . S
H1008 C1015 0.950 . S
C1009 C1007 1.387 . S
C1009 C1011 1.390 . S
C1009 H1013 0.950 . S
H1010 C1006 0.950 . S
C1011 C1009 1.390 . S
C1011 C1012 1.387 . S
C1011 H1014 0.950 . S
C1012 C1011 1.387 . S
C1012 C1015 1.387 . S
H1013 C1009 0.950 . S
H1014 C1011 0.950 . S
C1015 C1006 1.390 . S
C1015 H1008 0.950 . S
C1015 C1012 1.387 . S
C1016 C1017 1.387 . S
C1016 H1020 0.950 . S
C1016 C1025 1.390 . S
C1017 C1016 1.387 . S
C1017 C1019 1.387 . S
H1018 C1025 0.950 . S
C1019 C1017 1.387 . S
C1019 C1021 1.390 . S
C1019 H1023 0.950 . S
H1020 C1016 0.950 . S
C1021 C1019 1.390 . S
C1021 C1022 1.387 . S
C1021 H1024 0.950 . S
C1022 C1021 1.387 . S
C1022 C1025 1.387 . S
H1023 C1019 0.950 . S
H1024 C1021 0.950 . S
C1025 C1016 1.390 . S
C1025 H1018 0.950 . S
C1025 C1022 1.387 . S
C1026 C1027 1.387 . S
C1026 H1030 0.950 . S
C1026 C1035 1.390 . S
C1027 C1026 1.387 . S
C1027 C1029 1.387 . S
H1028 C1035 0.950 . S
C1029 C1027 1.387 . S
C1029 C1031 1.390 . S
C1029 H1033 0.950 . S
H1030 C1026 0.950 . S
C1031 C1029 1.390 . S
C1031 C1032 1.387 . S
C1031 H1034 0.950 . S
C1032 C1031 1.387 . S
C1032 C1035 1.387 . S
H1033 C1029 0.950 . S
H1034 C1031 0.950 . S
C1035 C1026 1.390 . S
C1035 H1028 0.950 . S
C1035 C1032 1.387 . S
C1036 C1037 1.387 . S
C1036 H1040 0.950 . S
C1036 C1045 1.390 . S
C1037 C1036 1.387 . S
C1037 C1039 1.387 . S
H1038 C1045 0.950 . S
C1039 C1037 1.387 . S
C1039 C1041 1.390 . S
C1039 H1043 0.950 . S
H1040 C1036 0.950 . S
C1041 C1039 1.390 . S
C1041 C1042 1.387 . S
C1041 H1044 0.950 . S
C1042 C1041 1.387 . S
C1042 C1045 1.387 . S
H1043 C1039 0.950 . S
H1044 C1041 0.950 . S
C1045 C1036 1.390 . S
C1045 H1038 0.950 . S
C1045 C1042 1.387 . S
C1046 C1047 1.387 . S
C1046 H1050 0.950 . S
C1046 C1055 1.390 . S
C1047 C1046 1.387 . S
C1047 C1049 1.387 . S
H1048 C1055 0.950 . S
C1049 C1047 1.387 . S
C1049 C1051 1.390 . S
C1049 H1053 0.950 . S
H1050 C1046 0.950 . S
C1051 C1049 1.390 . S
C1051 C1052 1.387 . S
C1051 H1054 0.950 . S
C1052 C1051 1.387 . S
C1052 C1055 1.387 . S
H1053 C1049 0.950 . S
H1054 C1051 0.950 . S
C1055 C1046 1.390 . S
C1055 H1048 0.950 . S
C1055 C1052 1.387 . S
C1056 C1057 1.387 . S
C1056 H1060 0.950 . S
C1056 C1065 1.390 1_554 S
C1057 C1056 1.387 . S
C1057 C1059 1.387 . S
H1058 C1065 0.950 . S
C1059 C1057 1.387 . S
C1059 C1061 1.390 1_554 S
C1059 H1063 0.950 1_545 S
H1060 C1056 0.950 . S
C1061 C1059 1.390 1_556 S
C1061 C1062 1.387 . S
C1061 H1064 0.950 1_545 S
C1062 C1061 1.387 . S
C1062 C1065 1.387 . S
H1063 C1059 0.950 1_565 S
H1064 C1061 0.950 1_565 S
C1065 C1056 1.390 1_556 S
C1065 H1058 0.950 . S
C1065 C1062 1.387 . S
C1066 C1067 1.387 . S
C1066 H1070 0.950 . S
C1066 C1075 1.390 1_554 S
C1067 C1066 1.387 . S
C1067 C1069 1.387 . S
H1068 C1075 0.950 . S
C1069 C1067 1.387 . S
C1069 C1071 1.390 1_554 S
C1069 H1073 0.950 . S
H1070 C1066 0.950 . S
C1071 C1069 1.390 1_556 S
C1071 C1072 1.387 . S
C1071 H1074 0.950 . S
C1072 C1071 1.387 . S
C1072 C1075 1.387 . S
H1073 C1069 0.950 . S
H1074 C1071 0.950 . S
C1075 C1066 1.390 1_556 S
C1075 H1068 0.950 . S
C1075 C1072 1.387 . S
C1076 C1077 1.387 . S
C1076 H1080 0.950 1_655 S
C1076 C1085 1.390 1_554 S
C1077 C1076 1.387 . S
C1077 C1079 1.387 . S
H1078 C1085 0.950 1_455 S
C1079 C1077 1.387 . S
C1079 C1081 1.390 1_554 S
C1079 H1083 0.950 . S
H1080 C1076 0.950 1_455 S
C1081 C1079 1.390 1_556 S
C1081 C1082 1.387 . S
C1081 H1084 0.950 . S
C1082 C1081 1.387 . S
C1082 C1085 1.387 . S
H1083 C1079 0.950 . S
H1084 C1081 0.950 . S
C1085 C1076 1.390 1_556 S
C1085 H1078 0.950 1_655 S
C1085 C1082 1.387 . S
C1086 C1087 1.387 . S
C1086 H1090 0.950 . S
C1086 C1095 1.390 1_556 S
C1087 C1086 1.387 . S
C1087 C1089 1.387 . S
H1088 C1095 0.950 . S
C1089 C1087 1.387 . S
C1089 C1091 1.390 1_556 S
C1089 H1093 0.950 . S
H1090 C1086 0.950 . S
C1091 C1089 1.390 1_554 S
C1091 C1092 1.387 . S
C1091 H1094 0.950 . S
C1092 C1091 1.387 . S
C1092 C1095 1.387 . S
H1093 C1089 0.950 . S
H1094 C1091 0.950 . S
C1095 C1086 1.390 1_554 S
C1095 H1088 0.950 . S
C1095 C1092 1.387 . S
C1096 C1097 1.387 . S
C1096 H1100 0.950 . S
C1096 C1105 1.390 1_554 S
C1097 C1096 1.387 . S
C1097 C1099 1.387 . S
H1098 C1105 0.950 . S
C1099 C1097 1.387 . S
C1099 C1101 1.390 1_554 S
C1099 H1103 0.950 . S
H1100 C1096 0.950 . S
C1101 C1099 1.390 1_556 S
C1101 C1102 1.387 . S
C1101 H1104 0.950 . S
C1102 C1101 1.387 . S
C1102 C1105 1.387 . S
H1103 C1099 0.950 . S
H1104 C1101 0.950 . S
C1105 C1096 1.390 1_556 S
C1105 H1098 0.950 . S
C1105 C1102 1.387 . S
C1106 C1107 1.387 . S
C1106 H1110 0.950 . S
C1106 C1115 1.390 1_554 S
C1107 C1106 1.387 . S
C1107 C1109 1.387 . S
H1108 C1115 0.950 . S
C1109 C1107 1.387 . S
C1109 C1111 1.390 1_554 S
C1109 H1113 0.959 . S
H1110 C1106 0.950 . S
C1111 C1109 1.390 1_556 S
C1111 C1112 1.387 . S
C1111 H1114 0.950 . S
C1112 C1111 1.387 . S
C1112 C1115 1.387 . S
H1113 C1109 0.959 . S
H1114 C1111 0.950 . S
C1115 C1106 1.390 1_556 S
C1115 H1108 0.950 . S
C1115 C1112 1.387 . S
C1116 C1117 1.387 . S
C1116 H1120 0.950 . S
C1116 C1125 1.390 . S
C1117 C1116 1.387 . S
C1117 C1119 1.387 . S
H1118 C1125 0.950 . S
C1119 C1117 1.387 . S
C1119 C1121 1.390 . S
C1119 H1123 0.950 . S
H1120 C1116 0.950 . S
C1121 C1119 1.390 . S
C1121 C1122 1.387 . S
C1121 H1124 0.950 . S
C1122 C1121 1.387 . S
C1122 C1125 1.387 . S
H1123 C1119 0.950 . S
H1124 C1121 0.950 . S
C1125 C1116 1.390 . S
C1125 H1118 0.950 . S
C1125 C1122 1.387 . S
C1126 C1127 1.387 . S
C1126 H1130 0.950 1_565 S
C1126 C1135 1.390 . S
C1127 C1126 1.387 . S
C1127 C1129 1.387 . S
H1128 C1135 0.950 1_545 S
C1129 C1127 1.387 . S
C1129 C1131 1.390 . S
C1129 H1133 0.950 . S
H1130 C1126 0.950 1_545 S
C1131 C1129 1.390 . S
C1131 C1132 1.387 . S
C1131 H1134 0.950 . S
C1132 C1131 1.387 . S
C1132 C1135 1.387 . S
H1133 C1129 0.950 . S
H1134 C1131 0.950 . S
C1135 C1126 1.390 . S
C1135 H1128 0.950 1_565 S
C1135 C1132 1.387 . S
C1136 C1137 1.387 . S
C1136 H1140 0.950 . S
C1136 C1145 1.390 . S
C1137 C1136 1.387 . S
C1137 C1139 1.387 . S
H1138 C1145 0.950 . S
C1139 C1137 1.387 . S
C1139 C1141 1.390 . S
C1139 H1143 0.950 . S
H1140 C1136 0.950 . S
C1141 C1139 1.390 . S
C1141 C1142 1.387 . S
C1141 H1144 0.950 . S
C1142 C1141 1.387 . S
C1142 C1145 1.387 . S
H1143 C1139 0.950 . S
H1144 C1141 0.950 . S
C1145 C1136 1.390 . S
C1145 H1138 0.950 . S
C1145 C1142 1.387 . S
C1146 C1147 1.387 . S
C1146 H1150 0.974 . S
C1146 C1155 1.390 . S
C1147 C1146 1.387 . S
C1147 C1149 1.387 . S
H1148 C1155 0.950 . S
C1149 C1147 1.387 . S
C1149 C1151 1.390 . S
C1149 H1153 0.950 . S
H1150 C1146 0.974 . S
C1151 C1149 1.390 . S
C1151 C1152 1.387 . S
C1151 H1154 0.950 . S
C1152 C1151 1.387 . S
C1152 C1155 1.387 . S
H1153 C1149 0.950 . S
H1154 C1151 0.950 . S
C1155 C1146 1.390 . S
C1155 H1148 0.950 . S
C1155 C1152 1.387 . S
C1156 C1157 1.387 . S
C1156 H1160 0.950 1_545 S
C1156 C1165 1.390 . S
C1157 C1156 1.387 . S
C1157 C1159 1.387 . S
H1158 C1165 0.950 1_565 S
C1159 C1157 1.387 . S
C1159 C1161 1.390 . S
C1159 H1163 0.950 . S
H1160 C1156 0.950 1_565 S
C1161 C1159 1.390 . S
C1161 C1162 1.387 . S
C1161 H1164 0.950 . S
C1162 C1161 1.387 . S
C1162 C1165 1.387 . S
H1163 C1159 0.950 . S
H1164 C1161 0.950 . S
C1165 C1156 1.390 . S
C1165 H1158 0.950 1_545 S
C1165 C1162 1.387 . S
C1166 C1167 1.387 . S
C1166 H1170 0.950 . S
C1166 C1175 1.390 . S
C1167 C1166 1.387 . S
C1167 C1169 1.387 . S
H1168 C1175 0.950 . S
C1169 C1167 1.387 . S
C1169 C1171 1.390 . S
C1169 H1173 0.950 . S
H1170 C1166 0.950 . S
C1171 C1169 1.390 . S
C1171 C1172 1.387 . S
C1171 H1174 0.950 . S
C1172 C1171 1.387 . S
C1172 C1175 1.387 . S
H1173 C1169 0.950 . S
H1174 C1171 0.950 . S
C1175 C1166 1.390 . S
C1175 H1168 0.950 . S
C1175 C1172 1.387 . S
C1176 C1177 1.387 . S
C1176 H1180 0.950 . S
C1176 C1185 1.390 . S
C1177 C1176 1.387 . S
C1177 C1179 1.387 . S
H1178 C1185 0.950 . S
C1179 C1177 1.387 . S
C1179 C1181 1.390 . S
C1179 H1183 0.950 . S
H1180 C1176 0.950 . S
C1181 C1179 1.390 . S
C1181 C1182 1.387 . S
C1181 H1184 0.950 . S
C1182 C1181 1.387 . S
C1182 C1185 1.387 . S
H1183 C1179 0.950 . S
H1184 C1181 0.950 . S
C1185 C1176 1.390 . S
C1185 H1178 0.950 . S
C1185 C1182 1.387 . S
C1186 C1187 1.387 . S
C1186 H1190 0.950 . S
C1186 C1195 1.390 . S
C1187 C1186 1.387 . S
C1187 C1189 1.387 . S
H1188 C1195 0.950 . S
C1189 C1187 1.387 . S
C1189 C1191 1.390 . S
C1189 H1193 0.950 . S
H1190 C1186 0.950 . S
C1191 C1189 1.390 . S
C1191 C1192 1.387 . S
C1191 H1194 0.950 . S
C1192 C1191 1.387 . S
C1192 C1195 1.387 . S
H1193 C1189 0.950 . S
H1194 C1191 0.950 . S
C1195 C1186 1.390 . S
C1195 H1188 0.950 . S
C1195 C1192 1.387 . S
C1196 C1197 1.387 . S
C1196 H1200 0.950 . S
C1196 C1205 1.390 . S
C1197 C1196 1.387 . S
C1197 C1199 1.387 . S
H1198 C1205 0.950 . S
C1199 C1197 1.387 . S
C1199 C1201 1.390 . S
C1199 H1203 0.950 . S
H1200 C1196 0.950 . S
C1201 C1199 1.390 . S
C1201 C1202 1.387 . S
C1201 H1204 0.950 . S
C1202 C1201 1.387 . S
C1202 C1205 1.387 . S
H1203 C1199 0.950 . S
H1204 C1201 0.950 . S
C1205 C1196 1.390 . S
C1205 H1198 0.950 . S
C1205 C1202 1.387 . S
C1206 C1207 1.387 . S
C1206 H1210 0.950 . S
C1206 C1215 1.390 . S
C1207 C1206 1.387 . S
C1207 C1209 1.387 . S
H1208 C1215 0.950 . S
C1209 C1207 1.387 . S
C1209 C1211 1.390 . S
C1209 H1213 0.950 . S
H1210 C1206 0.950 . S
C1211 C1209 1.390 . S
C1211 C1212 1.387 . S
C1211 H1214 0.950 . S
C1212 C1211 1.387 . S
C1212 C1215 1.387 . S
H1213 C1209 0.950 . S
H1214 C1211 0.950 . S
C1215 C1206 1.390 . S
C1215 H1208 0.950 . S
C1215 C1212 1.387 . S
C1216 C1217 1.387 . S
C1216 H1220 0.950 . S
C1216 C1225 1.390 . S
C1217 C1216 1.387 . S
C1217 C1219 1.387 . S
H1218 C1225 0.950 . S
C1219 C1217 1.387 . S
C1219 C1221 1.390 . S
C1219 H1223 0.950 . S
H1220 C1216 0.950 . S
C1221 C1219 1.390 . S
C1221 C1222 1.387 . S
C1221 H1224 0.950 . S
C1222 C1221 1.387 . S
C1222 C1225 1.387 . S
H1223 C1219 0.950 . S
H1224 C1221 0.950 . S
C1225 C1216 1.390 . S
C1225 H1218 0.950 . S
C1225 C1222 1.387 . S
C1226 C1227 1.387 . S
C1226 H1230 0.950 . S
C1226 C1235 1.390 . S
C1227 C1226 1.387 . S
C1227 C1229 1.387 . S
H1228 C1235 0.950 . S
C1229 C1227 1.387 . S
C1229 C1231 1.390 . S
C1229 H1233 0.950 . S
H1230 C1226 0.950 . S
C1231 C1229 1.390 . S
C1231 C1232 1.387 . S
C1231 H1234 0.950 . S
C1232 C1231 1.387 . S
C1232 C1235 1.387 . S
H1233 C1229 0.950 . S
H1234 C1231 0.950 . S
C1235 C1226 1.390 . S
C1235 H1228 0.950 . S
C1235 C1232 1.387 . S
C1236 C1237 1.387 . S
C1236 H1240 0.950 . S
C1236 C1245 1.390 . S
C1237 C1236 1.387 . S
C1237 C1239 1.387 . S
H1238 C1245 0.950 . S
C1239 C1237 1.387 . S
C1239 C1241 1.390 . S
C1239 H1243 0.950 . S
H1240 C1236 0.950 . S
C1241 C1239 1.390 . S
C1241 C1242 1.387 . S
C1241 H1244 0.950 . S
C1242 C1241 1.387 . S
C1242 C1245 1.387 . S
H1243 C1239 0.950 . S
H1244 C1241 0.950 . S
C1245 C1236 1.390 . S
C1245 H1238 0.950 . S
C1245 C1242 1.387 . S
C1246 C1247 1.387 . S
C1246 H1250 0.950 . S
C1246 C1255 1.390 . S
C1247 C1246 1.387 . S
C1247 C1249 1.387 . S
H1248 C1255 0.950 . S
C1249 C1247 1.387 . S
C1249 C1251 1.390 . S
C1249 H1253 0.950 . S
H1250 C1246 0.950 . S
C1251 C1249 1.390 . S
C1251 C1252 1.387 . S
C1251 H1254 0.950 . S
C1252 C1251 1.387 . S
C1252 C1255 1.387 . S
H1253 C1249 0.950 . S
H1254 C1251 0.950 . S
C1255 C1246 1.390 . S
C1255 H1248 0.950 . S
C1255 C1252 1.387 . S
C1256 C1257 1.387 . S
C1256 H1260 0.950 . S
C1256 C1265 1.390 . S
C1257 C1256 1.387 . S
C1257 C1259 1.387 . S
H1258 C1265 0.950 . S
C1259 C1257 1.387 . S
C1259 C1261 1.390 . S
C1259 H1263 0.950 . S
H1260 C1256 0.950 . S
C1261 C1259 1.390 . S
C1261 C1262 1.387 . S
C1261 H1264 0.950 . S
C1262 C1261 1.387 . S
C1262 C1265 1.387 . S
H1263 C1259 0.950 . S
H1264 C1261 0.950 . S
C1265 C1256 1.390 . S
C1265 H1258 0.950 . S
C1265 C1262 1.387 . S
C1266 C1267 1.387 . S
C1266 H1270 0.950 . S
C1266 C1275 1.390 . S
C1267 C1266 1.387 . S
C1267 C1269 1.387 . S
H1268 C1275 0.950 . S
C1269 C1267 1.387 . S
C1269 C1271 1.390 . S
C1269 H1273 0.950 . S
H1270 C1266 0.950 . S
C1271 C1269 1.390 . S
C1271 C1272 1.387 . S
C1271 H1274 0.950 . S
C1272 C1271 1.387 . S
C1272 C1275 1.387 . S
H1273 C1269 0.950 . S
H1274 C1271 0.950 . S
C1275 C1266 1.390 . S
C1275 H1268 0.950 . S
C1275 C1272 1.387 . S
C1276 C1277 1.387 . S
C1276 H1280 0.950 . S
C1276 C1285 1.390 . S
C1277 C1276 1.387 . S
C1277 C1279 1.387 . S
H1278 C1285 0.950 . S
C1279 C1277 1.387 . S
C1279 C1281 1.390 . S
C1279 H1283 0.950 . S
H1280 C1276 0.950 . S
C1281 C1279 1.390 . S
C1281 C1282 1.387 . S
C1281 H1284 0.950 . S
C1282 C1281 1.387 . S
C1282 C1285 1.387 . S
H1283 C1279 0.950 . S
H1284 C1281 0.950 . S
C1285 C1276 1.390 . S
C1285 H1278 0.950 . S
C1285 C1282 1.387 . S
C1286 C1287 1.387 . S
C1286 H1290 0.950 . S
C1286 C1295 1.390 . S
C1287 C1286 1.387 . S
C1287 C1289 1.387 . S
H1288 C1295 0.950 . S
C1289 C1287 1.387 . S
C1289 C1291 1.390 . S
C1289 H1293 0.950 . S
H1290 C1286 0.950 . S
C1291 C1289 1.390 . S
C1291 C1292 1.387 . S
C1291 H1294 0.950 . S
C1292 C1291 1.387 . S
C1292 C1295 1.387 . S
H1293 C1289 0.950 . S
H1294 C1291 0.950 . S
C1295 C1286 1.390 . S
C1295 H1288 0.950 . S
C1295 C1292 1.387 . S
C1296 C1297 1.387 . S
C1296 H1300 0.950 . S
C1296 C1305 1.390 1_545 S
C1297 C1296 1.387 . S
C1297 C1299 1.387 . S
H1298 C1305 0.950 . S
C1299 C1297 1.387 . S
C1299 C1301 1.390 1_545 S
C1299 H1303 0.950 . S
H1300 C1296 0.950 . S
C1301 C1299 1.390 1_565 S
C1301 C1302 1.387 . S
C1301 H1304 0.950 . S
C1302 C1301 1.387 . S
C1302 C1305 1.387 . S
H1303 C1299 0.950 . S
H1304 C1301 0.950 . S
C1305 C1296 1.390 1_565 S
C1305 H1298 0.950 . S
C1305 C1302 1.387 . S
C1306 C1307 1.387 . S
C1306 H1310 0.950 . S
C1306 C1315 1.390 . S
C1307 C1306 1.387 . S
C1307 C1309 1.387 . S
H1308 C1315 0.950 . S
C1309 C1307 1.387 . S
C1309 C1311 1.390 . S
C1309 H1313 0.950 . S
H1310 C1306 0.950 . S
C1311 C1309 1.390 . S
C1311 C1312 1.387 . S
C1311 H1314 0.950 . S
C1312 C1311 1.387 . S
C1312 C1315 1.387 . S
H1313 C1309 0.950 . S
H1314 C1311 0.950 . S
C1315 C1306 1.390 . S
C1315 H1308 0.950 . S
C1315 C1312 1.387 . S
C1316 C1317 1.387 . S
C1316 H1320 0.950 . S
C1316 C1325 1.390 1_655 S
C1317 C1316 1.387 . S
C1317 C1319 1.387 . S
H1318 C1325 0.950 . S
C1319 C1317 1.387 . S
C1319 C1321 1.390 1_655 S
C1319 H1323 0.950 . S
H1320 C1316 0.950 . S
C1321 C1319 1.390 1_455 S
C1321 C1322 1.387 . S
C1321 H1324 0.950 . S
C1322 C1321 1.387 . S
C1322 C1325 1.387 . S
H1323 C1319 0.950 . S
H1324 C1321 0.950 . S
C1325 C1316 1.390 1_455 S
C1325 H1318 0.950 . S
C1325 C1322 1.387 . S
C1326 C1327 1.387 . S
C1326 H1330 0.950 . S
C1326 C1335 1.390 1_455 S
C1327 C1326 1.387 . S
C1327 C1329 1.387 . S
H1328 C1335 0.950 . S
C1329 C1327 1.387 . S
C1329 C1331 1.390 1_455 S
C1329 H1333 0.950 . S
H1330 C1326 0.950 . S
C1331 C1329 1.390 1_655 S
C1331 C1332 1.387 . S
C1331 H1334 0.950 . S
C1332 C1331 1.387 . S
C1332 C1335 1.387 . S
H1333 C1329 0.950 . S
H1334 C1331 0.950 . S
C1335 C1326 1.390 1_655 S
C1335 H1328 0.950 . S
C1335 C1332 1.387 . S
C1336 C1337 1.387 . S
C1336 H1340 0.950 . S
C1336 C1345 1.390 1_545 S
C1337 C1336 1.387 . S
C1337 C1339 1.387 . S
H1338 C1345 0.950 . S
C1339 C1337 1.387 . S
C1339 C1341 1.390 1_545 S
C1339 H1343 0.950 . S
H1340 C1336 0.950 . S
C1341 C1339 1.390 1_565 S
C1341 C1342 1.387 . S
C1341 H1344 0.950 . S
C1342 C1341 1.387 . S
C1342 C1345 1.387 . S
H1343 C1339 0.950 . S
H1344 C1341 0.950 . S
C1345 C1336 1.390 1_565 S
C1345 H1338 0.950 . S
C1345 C1342 1.387 . S
C1346 C1347 1.387 . S
C1346 H1350 0.950 . S
C1346 C1355 1.390 . S
C1347 C1346 1.387 . S
C1347 C1349 1.387 . S
H1348 C1355 0.950 . S
C1349 C1347 1.387 . S
C1349 C1351 1.390 . S
C1349 H1353 0.950 . S
H1350 C1346 0.950 . S
C1351 C1349 1.390 . S
C1351 C1352 1.387 . S
C1351 H1354 0.950 . S
C1352 C1351 1.387 . S
C1352 C1355 1.387 . S
H1353 C1349 0.950 . S
H1354 C1351 0.950 . S
C1355 C1346 1.390 . S
C1355 H1348 0.950 . S
C1355 C1352 1.387 . S
C1356 C1357 1.387 . S
C1356 H1360 0.950 . S
C1356 C1365 1.390 1_545 S
C1357 C1356 1.387 . S
C1357 C1359 1.387 . S
H1358 C1365 0.950 . S
C1359 C1357 1.387 . S
C1359 C1361 1.390 1_545 S
C1359 H1363 0.950 . S
H1360 C1356 0.950 . S
C1361 C1359 1.390 1_565 S
C1361 C1362 1.387 . S
C1361 H1364 0.950 . S
C1362 C1361 1.387 . S
C1362 C1365 1.387 . S
H1363 C1359 0.950 . S
H1364 C1361 0.950 . S
C1365 C1356 1.390 1_565 S
C1365 H1358 0.950 . S
C1365 C1362 1.387 . S
C1366 C1367 1.387 . S
C1366 H1370 0.950 . S
C1366 C1375 1.390 . S
C1367 C1366 1.387 . S
C1367 C1369 1.387 . S
H1368 C1375 0.950 . S
C1369 C1367 1.387 . S
C1369 C1371 1.390 . S
C1369 H1373 0.950 . S
H1370 C1366 0.950 . S
C1371 C1369 1.390 . S
C1371 C1372 1.387 . S
C1371 H1374 0.950 . S
C1372 C1371 1.387 . S
C1372 C1375 1.387 . S
H1373 C1369 0.950 . S
H1374 C1371 0.950 . S
C1375 C1366 1.390 . S
C1375 H1368 0.950 . S
C1375 C1372 1.387 . S
C1376 C1377 1.387 . S
C1376 H1380 0.950 . S
C1376 C1385 1.390 1_455 S
C1377 C1376 1.387 . S
C1377 C1379 1.387 . S
H1378 C1385 0.950 . S
C1379 C1377 1.387 . S
C1379 C1381 1.390 1_455 S
C1379 H1383 0.950 . S
H1380 C1376 0.950 . S
C1381 C1379 1.390 1_655 S
C1381 C1382 1.387 . S
C1381 H1384 0.950 . S
C1382 C1381 1.387 . S
C1382 C1385 1.387 . S
H1383 C1379 0.950 . S
H1384 C1381 0.950 . S
C1385 C1376 1.390 1_655 S
C1385 H1378 0.950 . S
C1385 C1382 1.387 . S
C1386 C1387 1.387 . S
C1386 H1390 0.950 . S
C1386 C1395 1.390 1_655 S
C1387 C1386 1.387 . S
C1387 C1389 1.387 . S
H1388 C1395 0.950 . S
C1389 C1387 1.387 . S
C1389 C1391 1.390 1_655 S
C1389 H1393 0.950 . S
H1390 C1386 0.950 . S
C1391 C1389 1.390 1_455 S
C1391 C1392 1.387 . S
C1391 H1394 0.950 . S
C1392 C1391 1.387 . S
C1392 C1395 1.387 . S
H1393 C1389 0.950 . S
H1394 C1391 0.950 . S
C1395 C1386 1.390 1_455 S
C1395 H1388 0.950 . S
C1395 C1392 1.387 . S
C1396 C1397 1.387 . S
C1396 H1400 0.950 . S
C1396 C1405 1.390 1_545 S
C1397 C1396 1.387 . S
C1397 C1399 1.387 . S
H1398 C1405 0.950 . S
C1399 C1397 1.387 . S
C1399 C1401 1.390 1_545 S
C1399 H1403 0.950 . S
H1400 C1396 0.950 . S
C1401 C1399 1.390 1_565 S
C1401 C1402 1.387 . S
C1401 H1404 0.950 . S
C1402 C1401 1.387 . S
C1402 C1405 1.387 . S
H1403 C1399 0.950 . S
H1404 C1401 0.950 . S
C1405 C1396 1.390 1_565 S
C1405 H1398 0.950 . S
C1405 C1402 1.387 . S
C1406 C1407 1.387 . S
C1406 H1410 0.950 . S
C1406 C1415 1.390 . S
C1407 C1406 1.387 . S
C1407 C1409 1.387 . S
H1408 C1415 0.950 . S
C1409 C1407 1.387 . S
C1409 C1411 1.390 . S
C1409 H1413 0.950 . S
H1410 C1406 0.950 . S
C1411 C1409 1.390 . S
C1411 C1412 1.387 . S
C1411 H1414 0.950 . S
C1412 C1411 1.387 . S
C1412 C1415 1.387 . S
H1413 C1409 0.950 . S
H1414 C1411 0.950 . S
C1415 C1406 1.390 . S
C1415 H1408 0.950 . S
C1415 C1412 1.387 . S
C1416 C1417 1.387 . S
C1416 H1420 0.950 . S
C1416 C1425 1.390 . S
C1417 C1416 1.387 . S
C1417 C1419 1.387 . S
H1418 C1425 0.950 . S
C1419 C1417 1.387 . S
C1419 C1421 1.390 . S
C1419 H1423 0.950 . S
H1420 C1416 0.950 . S
C1421 C1419 1.390 . S
C1421 C1422 1.387 . S
C1421 H1424 0.950 . S
C1422 C1421 1.387 . S
C1422 C1425 1.387 . S
H1423 C1419 0.950 . S
H1424 C1421 0.950 . S
C1425 C1416 1.390 . S
C1425 H1418 0.950 . S
C1425 C1422 1.387 . S
C1426 C1427 1.387 . S
C1426 H1430 0.950 . S
C1426 C1435 1.390 . S
C1427 C1426 1.387 . S
C1427 C1429 1.387 . S
H1428 C1435 0.950 . S
C1429 C1427 1.387 . S
C1429 C1431 1.390 . S
C1429 H1433 0.950 . S
H1430 C1426 0.950 . S
C1431 C1429 1.390 . S
C1431 C1432 1.387 . S
C1431 H1434 0.950 . S
C1432 C1431 1.387 . S
C1432 C1435 1.387 . S
H1433 C1429 0.950 . S
H1434 C1431 0.950 . S
C1435 C1426 1.390 . S
C1435 H1428 0.950 . S
C1435 C1432 1.387 . S
C1436 C1437 1.387 . S
C1436 H1440 0.950 . S
C1436 C1445 1.390 . S
C1437 C1436 1.387 . S
C1437 C1439 1.387 . S
H1438 C1445 0.950 . S
C1439 C1437 1.387 . S
C1439 C1441 1.390 . S
C1439 H1443 0.950 . S
H1440 C1436 0.950 . S
C1441 C1439 1.390 . S
C1441 C1442 1.387 . S
C1441 H1444 0.950 . S
C1442 C1441 1.387 . S
C1442 C1445 1.387 . S
H1443 C1439 0.950 . S
H1444 C1441 0.950 . S
C1445 C1436 1.390 . S
C1445 H1438 0.950 . S
C1445 C1442 1.387 . S
C1446 C1447 1.387 . S
C1446 H1450 0.950 . S
C1446 C1455 1.390 . S
C1447 C1446 1.387 . S
C1447 C1449 1.387 . S
H1448 C1455 0.950 . S
C1449 C1447 1.387 . S
C1449 C1451 1.390 . S
C1449 H1453 0.950 . S
H1450 C1446 0.950 . S
C1451 C1449 1.390 . S
C1451 C1452 1.387 . S
C1451 H1454 0.950 . S
C1452 C1451 1.387 . S
C1452 C1455 1.387 . S
H1453 C1449 0.950 . S
H1454 C1451 0.950 . S
C1455 C1446 1.390 . S
C1455 H1448 0.950 . S
C1455 C1452 1.387 . S
C1456 C1457 1.387 . S
C1456 H1460 0.950 . S
C1456 C1465 1.390 . S
C1457 C1456 1.387 . S
C1457 C1459 1.387 . S
H1458 C1465 0.950 . S
C1459 C1457 1.387 . S
C1459 C1461 1.390 . S
C1459 H1463 0.950 . S
H1460 C1456 0.950 . S
C1461 C1459 1.390 . S
C1461 C1462 1.387 . S
C1461 H1464 0.950 . S
C1462 C1461 1.387 . S
C1462 C1465 1.387 . S
H1463 C1459 0.950 . S
H1464 C1461 0.950 . S
C1465 C1456 1.390 . S
C1465 H1458 0.950 . S
C1465 C1462 1.387 . S
C1466 C1467 1.387 . S
C1466 H1470 0.950 . S
C1466 C1475 1.390 . S
C1467 C1466 1.387 . S
C1467 C1469 1.387 . S
H1468 C1475 0.950 . S
C1469 C1467 1.387 . S
C1469 C1471 1.390 . S
C1469 H1473 0.950 . S
H1470 C1466 0.950 . S
C1471 C1469 1.390 . S
C1471 C1472 1.387 . S
C1471 H1474 0.950 . S
C1472 C1471 1.387 . S
C1472 C1475 1.387 . S
H1473 C1469 0.950 . S
H1474 C1471 0.950 . S
C1475 C1466 1.390 . S
C1475 H1468 0.950 . S
C1475 C1472 1.387 . S
C1476 C1477 1.387 . S
C1476 H1480 0.950 . S
C1476 C1485 1.390 . S
C1477 C1476 1.387 . S
C1477 C1479 1.387 . S
H1478 C1485 0.950 . S
C1479 C1477 1.387 . S
C1479 C1481 1.390 . S
C1479 H1483 0.950 . S
H1480 C1476 0.950 . S
C1481 C1479 1.390 . S
C1481 C1482 1.387 . S
C1481 H1484 0.950 . S
C1482 C1481 1.387 . S
C1482 C1485 1.387 . S
H1483 C1479 0.950 . S
H1484 C1481 0.950 . S
C1485 C1476 1.390 . S
C1485 H1478 0.950 . S
C1485 C1482 1.387 . S
C1486 C1487 1.387 . S
C1486 H1490 0.950 . S
C1486 C1495 1.390 . S
C1487 C1486 1.387 . S
C1487 C1489 1.387 . S
H1488 C1495 0.950 . S
C1489 C1487 1.387 . S
C1489 C1491 1.390 . S
C1489 H1493 0.950 . S
H1490 C1486 0.950 . S
C1491 C1489 1.390 . S
C1491 C1492 1.387 . S
C1491 H1494 0.950 . S
C1492 C1491 1.387 . S
C1492 C1495 1.387 . S
H1493 C1489 0.950 . S
H1494 C1491 0.950 . S
C1495 C1486 1.390 . S
C1495 H1488 0.950 . S
C1495 C1492 1.387 . S
C1496 C1497 1.387 . S
C1496 H1500 0.950 . S
C1496 C1505 1.390 . S
C1497 C1496 1.387 . S
C1497 C1499 1.387 . S
H1498 C1505 0.950 . S
C1499 C1497 1.387 . S
C1499 C1501 1.390 . S
C1499 H1503 0.950 . S
H1500 C1496 0.950 . S
C1501 C1499 1.390 . S
C1501 C1502 1.387 . S
C1501 H1504 0.950 . S
C1502 C1501 1.387 . S
C1502 C1505 1.387 . S
H1503 C1499 0.950 . S
H1504 C1501 0.950 . S
C1505 C1496 1.390 . S
C1505 H1498 0.950 . S
C1505 C1502 1.387 . S
C1506 C1507 1.387 . S
C1506 H1510 0.950 . S
C1506 C1515 1.390 . S
C1507 C1506 1.387 . S
C1507 C1509 1.387 . S
H1508 C1515 0.950 . S
C1509 C1507 1.387 . S
C1509 C1511 1.390 . S
C1509 H1513 0.950 . S
H1510 C1506 0.950 . S
C1511 C1509 1.390 . S
C1511 C1512 1.387 . S
C1511 H1514 0.950 . S
C1512 C1511 1.387 . S
C1512 C1515 1.387 . S
H1513 C1509 0.950 . S
H1514 C1511 0.950 . S
C1515 C1506 1.390 . S
C1515 H1508 0.950 . S
C1515 C1512 1.387 . S
C1516 C1517 1.387 . S
C1516 H1520 0.950 . S
C1516 C1525 1.390 . S
C1517 C1516 1.387 . S
C1517 C1519 1.387 . S
H1518 C1525 0.950 . S
C1519 C1517 1.387 . S
C1519 C1521 1.390 . S
C1519 H1523 0.950 . S
H1520 C1516 0.950 . S
C1521 C1519 1.390 . S
C1521 C1522 1.387 . S
C1521 H1524 0.950 . S
C1522 C1521 1.387 . S
C1522 C1525 1.387 . S
H1523 C1519 0.950 . S
H1524 C1521 0.950 . S
C1525 C1516 1.390 . S
C1525 H1518 0.950 . S
C1525 C1522 1.387 . S
C1526 C1527 1.387 . S
C1526 H1530 0.950 . S
C1526 C1535 1.390 . S
C1527 C1526 1.387 . S
C1527 C1529 1.387 . S
H1528 C1535 0.950 . S
C1529 C1527 1.387 . S
C1529 C1531 1.390 . S
C1529 H1533 0.950 . S
H1530 C1526 0.950 . S
C1531 C1529 1.390 . S
C1531 C1532 1.387 . S
C1531 H1534 0.950 . S
C1532 C1531 1.387 . S
C1532 C1535 1.387 . S
H1533 C1529 0.950 . S
H1534 C1531 0.950 . S
C1535 C1526 1.390 . S
C1535 H1528 0.950 . S
C1535 C1532 1.387 . S
C1536 C1537 1.387 . S
C1536 H1540 0.950 . S
C1536 C1545 1.390 . S
C1537 C1536 1.387 . S
C1537 C1539 1.387 . S
H1538 C1545 0.950 . S
C1539 C1537 1.387 . S
C1539 C1541 1.390 . S
C1539 H1543 0.950 . S
H1540 C1536 0.950 . S
C1541 C1539 1.390 . S
C1541 C1542 1.387 . S
C1541 H1544 0.950 . S
C1542 C1541 1.387 . S
C1542 C1545 1.387 . S
H1543 C1539 0.950 . S
H1544 C1541 0.950 . S
C1545 C1536 1.390 . S
C1545 H1538 0.950 . S
C1545 C1542 1.387 . S
C1546 C1547 1.387 . S
C1546 H1550 0.950 . S
C1546 C1555 1.390 . S
C1547 C1546 1.387 . S
C1547 C1549 1.387 . S
H1548 C1555 0.950 . S
C1549 C1547 1.387 . S
C1549 C1551 1.390 . S
C1549 H1553 0.950 . S
H1550 C1546 0.950 . S
C1551 C1549 1.390 . S
C1551 C1552 1.387 . S
C1551 H1554 0.950 . S
C1552 C1551 1.387 . S
C1552 C1555 1.387 . S
H1553 C1549 0.950 . S
H1554 C1551 0.950 . S
C1555 C1546 1.390 . S
C1555 H1548 0.950 . S
C1555 C1552 1.387 . S
C1556 C1557 1.387 . S
C1556 H1560 0.950 . S
C1556 C1565 1.390 . S
C1557 C1556 1.387 . S
C1557 C1559 1.387 . S
H1558 C1565 0.950 . S
C1559 C1557 1.387 . S
C1559 C1561 1.390 . S
C1559 H1563 0.950 . S
H1560 C1556 0.950 . S
C1561 C1559 1.390 . S
C1561 C1562 1.387 . S
C1561 H1564 0.950 . S
C1562 C1561 1.387 . S
C1562 C1565 1.387 . S
H1563 C1559 0.950 . S
H1564 C1561 0.950 . S
C1565 C1556 1.390 . S
C1565 H1558 0.950 . S
C1565 C1562 1.387 . S
C1566 C1567 1.387 . S
C1566 H1570 0.950 . S
C1566 C1575 1.390 . S
C1567 C1566 1.387 . S
C1567 C1569 1.387 . S
H1568 C1575 0.950 . S
C1569 C1567 1.387 . S
C1569 C1571 1.390 . S
C1569 H1573 0.950 . S
H1570 C1566 0.950 . S
C1571 C1569 1.390 . S
C1571 C1572 1.387 . S
C1571 H1574 0.950 . S
C1572 C1571 1.387 . S
C1572 C1575 1.387 . S
H1573 C1569 0.950 . S
H1574 C1571 0.950 . S
C1575 C1566 1.390 . S
C1575 H1568 0.950 . S
C1575 C1572 1.387 . S
C1576 C1577 1.387 . S
C1576 H1580 0.950 . S
C1576 C1585 1.390 . S
C1577 C1576 1.387 . S
C1577 C1579 1.387 . S
H1578 C1585 0.950 . S
C1579 C1577 1.387 . S
C1579 C1581 1.390 . S
C1579 H1583 0.950 . S
H1580 C1576 0.950 . S
C1581 C1579 1.390 . S
C1581 C1582 1.387 . S
C1581 H1584 0.950 . S
C1582 C1581 1.387 . S
C1582 C1585 1.387 . S
H1583 C1579 0.950 . S
H1584 C1581 0.950 . S
C1585 C1576 1.390 . S
C1585 H1578 0.950 . S
C1585 C1582 1.387 . S
C1586 C1587 1.387 . S
C1586 H1590 0.950 . S
C1586 C1595 1.390 . S
C1587 C1586 1.387 . S
C1587 C1589 1.387 . S
H1588 C1595 0.950 . S
C1589 C1587 1.387 . S
C1589 C1591 1.390 . S
C1589 H1593 0.950 . S
H1590 C1586 0.950 . S
C1591 C1589 1.390 . S
C1591 C1592 1.387 . S
C1591 H1594 0.950 . S
C1592 C1591 1.387 . S
C1592 C1595 1.387 . S
H1593 C1589 0.950 . S
H1594 C1591 0.950 . S
C1595 C1586 1.390 . S
C1595 H1588 0.950 . S
C1595 C1592 1.387 . S
C1596 C1597 1.387 . S
C1596 H1600 0.950 . S
C1596 C1605 1.390 . S
C1597 C1596 1.387 . S
C1597 C1599 1.387 . S
H1598 C1605 0.950 . S
C1599 C1597 1.387 . S
C1599 C1601 1.390 . S
C1599 H1603 0.950 . S
H1600 C1596 0.950 . S
C1601 C1599 1.390 . S
C1601 C1602 1.387 . S
C1601 H1604 0.950 . S
C1602 C1601 1.387 . S
C1602 C1605 1.387 . S
H1603 C1599 0.950 . S
H1604 C1601 0.950 . S
C1605 C1596 1.390 . S
C1605 H1598 0.950 . S
C1605 C1602 1.387 . S
C1606 C1607 1.387 . S
C1606 H1610 0.950 . S
C1606 C1615 1.390 . S
C1607 C1606 1.387 . S
C1607 C1609 1.387 . S
H1608 C1615 0.950 . S
C1609 C1607 1.387 . S
C1609 C1611 1.390 . S
C1609 H1613 0.950 . S
H1610 C1606 0.950 . S
C1611 C1609 1.390 . S
C1611 C1612 1.387 . S
C1611 H1614 0.950 . S
C1612 C1611 1.387 . S
C1612 C1615 1.387 . S
H1613 C1609 0.950 . S
H1614 C1611 0.950 . S
C1615 C1606 1.390 . S
C1615 H1608 0.950 . S
C1615 C1612 1.387 . S
C1616 C1617 1.387 . S
C1616 H1620 0.950 . S
C1616 C1625 1.390 . S
C1617 C1616 1.387 . S
C1617 C1619 1.387 . S
H1618 C1625 0.950 . S
C1619 C1617 1.387 . S
C1619 C1621 1.390 . S
C1619 H1623 0.950 . S
H1620 C1616 0.950 . S
C1621 C1619 1.390 . S
C1621 C1622 1.387 . S
C1621 H1624 0.950 . S
C1622 C1621 1.387 . S
C1622 C1625 1.387 . S
H1623 C1619 0.950 . S
H1624 C1621 0.950 . S
C1625 C1616 1.390 . S
C1625 H1618 0.950 . S
C1625 C1622 1.387 . S
C1626 C1627 1.387 . S
C1626 H1630 0.950 . S
C1626 C1635 1.390 . S
C1627 C1626 1.387 . S
C1627 C1629 1.387 . S
H1628 C1635 0.950 . S
C1629 C1627 1.387 . S
C1629 C1631 1.390 . S
C1629 H1633 0.950 . S
H1630 C1626 0.950 . S
C1631 C1629 1.390 . S
C1631 C1632 1.387 . S
C1631 H1634 0.950 . S
C1632 C1631 1.387 . S
C1632 C1635 1.387 . S
H1633 C1629 0.950 . S
H1634 C1631 0.950 . S
C1635 C1626 1.390 . S
C1635 H1628 0.950 . S
C1635 C1632 1.387 . S
C1636 C1637 1.387 . S
C1636 H1640 0.950 . S
C1636 C1645 1.390 . S
C1637 C1636 1.387 . S
C1637 C1639 1.387 . S
H1638 C1645 0.950 . S
C1639 C1637 1.387 . S
C1639 C1641 1.390 . S
C1639 H1643 0.950 . S
H1640 C1636 0.950 . S
C1641 C1639 1.390 . S
C1641 C1642 1.387 . S
C1641 H1644 0.950 . S
C1642 C1641 1.387 . S
C1642 C1645 1.387 . S
H1643 C1639 0.950 . S
H1644 C1641 0.950 . S
C1645 C1636 1.390 . S
C1645 H1638 0.950 . S
C1645 C1642 1.387 . S
C1646 C1647 1.387 . S
C1646 H1650 0.950 . S
C1646 C1655 1.390 . S
C1647 C1646 1.387 . S
C1647 C1649 1.387 . S
H1648 C1655 0.950 . S
C1649 C1647 1.387 . S
C1649 C1651 1.390 . S
C1649 H1653 0.950 . S
H1650 C1646 0.950 . S
C1651 C1649 1.390 . S
C1651 C1652 1.387 . S
C1651 H1654 0.950 . S
C1652 C1651 1.387 . S
C1652 C1655 1.387 . S
H1653 C1649 0.950 . S
H1654 C1651 0.950 . S
C1655 C1646 1.390 . S
C1655 H1648 0.950 . S
C1655 C1652 1.387 . S
C817 C28 1.348 . S
C822 C187 1.302 . S
C827 C40 1.348 . S
C832 C17 1.302 . S
C837 C96 1.348 . S
C842 C51 1.301 . S
C847 C85 1.302 . S
C852 C108 1.348 . S
C857 C164 1.348 . S
C862 C119 1.298 . S
C867 C176 1.348 . S
C872 C153 1.302 . S
C877 C255 1.298 . S
C882 C232 1.348 . S
C887 C289 1.302 . S
C892 C244 1.348 . S
C897 C323 1.298 . S
C902 C278 1.349 . S
C907 C312 1.348 . S
C912 C357 1.298 . S
C917 C391 1.298 . S
C922 C368 1.348 . S
C927 C380 1.348 . S
C932 C221 1.301 . S
C937 C595 1.298 . S
C942 C436 1.348 . S
C947 C425 1.298 . S
C952 C448 1.348 . S
C957 C504 1.348 . S
C962 C459 1.302 . S
C967 C538 1.348 . S
C972 C493 1.302 . S
C977 C550 1.348 . S
C982 C527 1.298 . S
C987 C606 1.348 . S
C992 C561 1.302 . S
C997 C663 1.302 . S
C1002 C618 1.348 . S
C1007 C697 1.298 . S
C1012 C652 1.348 . S
C1017 C708 1.348 . S
C1022 C731 1.298 . S
C1027 C720 1.348 . S
C1032 C765 1.302 . S
C1037 C776 1.348 . S
C1042 C799 1.298 . S
C1047 C629 1.302 . S
C1052 C788 1.348 . S
C1057 C15 1.737 . S
C1062 C525 1.735 . S
C1067 C56 1.735 . S
C1072 C566 1.738 . S
C1077 C83 1.735 . S
C1082 C593 1.737 . S
C1087 C423 1.735 . S
C1092 C124 1.738 . S
C1097 C151 1.735 . S
C1102 C464 1.738 . S
C1107 C192 1.738 . S
C1112 C491 1.735 . S
C1117 C736 1.738 . S
C1122 C219 1.735 . S
C1127 C763 1.737 . S
C1132 C260 1.736 . S
C1137 C804 1.738 . S
C1142 C294 1.735 . S
C1147 C634 1.738 . S
C1152 C328 1.735 . S
C1157 C355 1.736 . S
C1162 C668 1.737 . S
C1167 C396 1.738 . S
C1172 C695 1.735 . S
C1177 C22 1.517 . S
C1182 C287 1.514 . S
C1187 C49 1.515 . S
C1192 C321 1.515 . S
C1197 C90 1.517 . S
C1202 C362 1.518 . S
C1207 C117 1.515 . S
C1212 C389 1.515 . S
C1217 C158 1.517 . S
C1222 C226 1.517 . S
C1227 C185 1.517 . S
C1232 C253 1.515 . S
C1237 C702 1.518 . S
C1242 C430 1.516 . S
C1247 C457 1.517 . S
C1252 C729 1.517 . S
C1257 C770 1.515 . S
C1262 C498 1.515 . S
C1267 C532 1.516 . S
C1272 C797 1.515 . S
C1277 C559 1.515 . S
C1282 C627 1.515 . S
C1287 C600 1.518 . S
C1292 C661 1.515 . S
C1297 C3 1.686 . S
C1302 C103 1.686 . S
C1307 C139 1.686 . S
C1312 C35 1.686 . S
C1317 C71 1.681 . S
C1322 C171 1.681 . S
C1327 C307 1.682 . S
C1332 C207 1.682 . S
C1337 C343 1.685 . S
C1342 C239 1.685 . S
C1347 C273 1.682 . S
C1352 C375 1.682 . S
C1357 C513 1.682 . S
C1362 C411 1.682 . S
C1367 C545 1.682 . S
C1372 C443 1.682 . S
C1377 C479 1.681 . S
C1382 C581 1.681 . S
C1387 C715 1.686 . S
C1392 C613 1.686 . S
C1397 C647 1.681 . S
C1402 C751 1.681 . S
C1407 C783 1.686 . S
C1412 C683 1.686 . S
C1417 C74 1.498 . S
C1422 C1 1.388 . S
C1427 C37 1.389 . S
C1432 C130 1.498 . S
C1437 C142 1.498 . S
C1442 C69 1.388 . S
C1447 C198 1.498 . S
C1452 C105 1.388 . S
C1457 C137 1.385 . S
C1462 C6 1.499 . S
C1467 C173 1.385 . S
C1472 C62 1.498 . S
C1477 C205 1.388 . S
C1482 C346 1.498 . S
C1487 C402 1.498 . S
C1492 C241 1.387 . S
C1497 C210 1.498 . S
C1502 C275 1.388 . S
C1507 C309 1.385 . S
C1512 C266 1.498 . S
C1517 C341 1.386 . S
C1522 C300 1.499 . S
C1527 C377 1.384 . S
C1532 C334 1.498 . S
C1537 C409 1.386 . S
C1542 C482 1.499 . S
C1547 C445 1.389 . S
C1552 C516 1.499 . S
C1557 C477 1.385 . S
C1562 C572 1.499 . S
C1567 C584 1.499 . S
C1572 C511 1.385 . S
C1577 C547 1.385 . S
C1582 C414 1.498 . S
C1587 C470 1.498 . S
C1592 C579 1.385 . S
C1597 C615 1.384 . S
C1602 C754 1.498 . S
C1607 C810 1.498 . S
C1612 C649 1.388 . S
C1617 C681 1.385 . S
C1622 C640 1.499 . S
C1627 C674 1.498 . S
C1632 C717 1.387 . S
C1637 C686 1.498 . S
C1642 C749 1.388 . S
C1647 C785 1.385 . S
C1652 C742 1.498 . S
