# Generated by pormake.
# Topology sow, (4)-cn, num edge types: 1
# Building blocks:
#     Node 0, Type 0, BuildingBlock: KOZSID_clean_sbu_0, # of connection points: 4
#     Node 1, Type 0, BuildingBlock: KOZSID_clean_sbu_0, # of connection points: 4
#     Node 2, Type 0, BuildingBlock: KOZSID_clean_sbu_0, # of connection points: 4
#     Node 3, Type 0, BuildingBlock: KOZSID_clean_sbu_0, # of connection points: 4
#     Node 4, Type 0, BuildingBlock: KOZSID_clean_sbu_0, # of connection points: 4
#     Node 5, Type 0, BuildingBlock: KOZSID_clean_sbu_0, # of connection points: 4
#     Node 6, Type 0, BuildingBlock: KOZSID_clean_sbu_0, # of connection points: 4
#     Node 7, Type 0, BuildingBlock: KOZSID_clean_sbu_0, # of connection points: 4
#     Edge 8, Type (0, 0), BuildingBlock: KIFKEQ_clean_linker_1, # of connection points: 2
#     Edge 9, Type (0, 0), BuildingBlock: KIFKEQ_clean_linker_1, # of connection points: 2
#     Edge 10, Type (0, 0), BuildingBlock: KIFKEQ_clean_linker_1, # of connection points: 2
#     Edge 11, Type (0, 0), BuildingBlock: KIFKEQ_clean_linker_1, # of connection points: 2
#     Edge 12, Type (0, 0), BuildingBlock: KIFKEQ_clean_linker_1, # of connection points: 2
#     Edge 13, Type (0, 0), BuildingBlock: KIFKEQ_clean_linker_1, # of connection points: 2
#     Edge 14, Type (0, 0), BuildingBlock: KIFKEQ_clean_linker_1, # of connection points: 2
#     Edge 15, Type (0, 0), BuildingBlock: KIFKEQ_clean_linker_1, # of connection points: 2
#     Edge 16, Type (0, 0), BuildingBlock: KIFKEQ_clean_linker_1, # of connection points: 2
#     Edge 17, Type (0, 0), BuildingBlock: KIFKEQ_clean_linker_1, # of connection points: 2
#     Edge 18, Type (0, 0), BuildingBlock: KIFKEQ_clean_linker_1, # of connection points: 2
#     Edge 19, Type (0, 0), BuildingBlock: KIFKEQ_clean_linker_1, # of connection points: 2
#     Edge 20, Type (0, 0), BuildingBlock: KIFKEQ_clean_linker_1, # of connection points: 2
#     Edge 21, Type (0, 0), BuildingBlock: KIFKEQ_clean_linker_1, # of connection points: 2
#     Edge 22, Type (0, 0), BuildingBlock: KIFKEQ_clean_linker_1, # of connection points: 2
#     Edge 23, Type (0, 0), BuildingBlock: KIFKEQ_clean_linker_1, # of connection points: 2
# Relax obj value: 0.058
# Max RMSD: 0.287
# Mean RMSD: 0.222
data_MOF--net-sow--node1-KOZSID_clean_sbu_0--edge1-KIFKEQ_clean_linker_1
_symmetry_space_group_name_H-M    P1
_symmetry_Int_Tables_number       1
_symmetry_cell_setting            triclinic
loop_
_symmetry_equiv_pos_as_xyz
'x, y, z'
_cell_length_a     56.931431
_cell_length_b     16.449133
_cell_length_c     25.227485
_cell_angle_alpha  88.618548
_cell_angle_beta   90.28282
_cell_angle_gamma 90.352768
loop_
_atom_site_label
_atom_site_type_symbol
_atom_site_fract_x
_atom_site_fract_y
_atom_site_fract_z
_atom_type_partial_charge
C0 C 0.08768 0.96992 0.2383 0.0
C1 C 0.07416 0.91086 0.26404 0.0
C2 C 0.084 0.83753 0.25313 0.0
C3 C 0.10286 0.85574 0.2213 0.0
N4 N 0.1059 0.93609 0.21192 0.0
Co5 Co 0.13006 0.98693 0.16378 0.0
N6 N 0.1462 0.88023 0.15238 0.0
C7 C 0.13814 0.80647 0.1684 0.0
C8 C 0.15202 0.74344 0.15302 0.0
C9 C 0.16981 0.77912 0.12438 0.0
C10 C 0.16576 0.86215 0.12402 0.0
N11 N 0.15398 0.03842 0.11528 0.0
C12 C 0.17269 0.00614 0.09013 0.0
C13 C 0.18447 0.06443 0.05941 0.0
C14 C 0.1725 0.13526 0.06418 0.0
C15 C 0.15427 0.11652 0.09759 0.0
N16 N 0.1142 0.09394 0.1747 0.0
C17 C 0.1192 0.16538 0.14976 0.0
C18 C 0.10689 0.22988 0.16852 0.0
C19 C 0.09276 0.19728 0.20708 0.0
C20 C 0.09711 0.11427 0.20918 0.0
N21 N 0.15032 0.00652 0.22677 0.0
C22 C 0.178 0.03457 0.31859 0.0
C23 C 0.16953 0.09896 0.28644 0.0
C24 C 0.15687 0.08364 0.24 0.0
C25 C 0.1707 0.95594 0.30559 0.0
C26 C 0.15653 0.94361 0.26063 0.0
N27 N 0.10925 0.96498 0.1026 0.0
C28 C 0.06904 0.9477 0.07471 0.0
C29 C 0.0756 0.88927 0.0385 0.0
C30 C 0.09964 0.87725 0.03011 0.0
C31 C 0.1162 0.91751 0.06166 0.0
C32 C 0.08605 0.98459 0.10589 0.0
H33 H 0.1344 0.90575 0.05471 0.0
H34 H 0.07995 0.02359 0.13554 0.0
H35 H 0.15276 0.13507 0.2149 0.0
H36 H 0.15114 0.88238 0.25322 0.0
C37 C 0.11797 0.79926 0.19938 0.0
C38 C 0.08116 0.05623 0.23541 0.0
C39 C 0.17897 0.92002 0.09036 0.0
C40 C 0.1376 0.17155 0.11408 0.0
H41 H 0.05843 0.91958 0.28705 0.0
H42 H 0.07785 0.77792 0.26605 0.0
H43 H 0.14936 0.67912 0.16105 0.0
H44 H 0.18368 0.74756 0.10428 0.0
H45 H 0.19982 0.05618 0.03502 0.0
H46 H 0.17653 0.19345 0.0453 0.0
H47 H 0.10823 0.29317 0.15607 0.0
H48 H 0.07979 0.22997 0.22931 0.0
H49 H 0.17365 0.16148 0.29531 0.0
H50 H 0.17672 0.90332 0.32822 0.0
H51 H 0.05072 0.95994 0.08252 0.0
H52 H 0.10558 0.83453 1.00112 0.0
C53 C 0.40542 0.14997 0.7366 0.0
C54 C 0.40583 0.22766 0.75674 0.0
C55 C 0.38673 0.2671 0.73595 0.0
C56 C 0.3758 0.21162 0.70427 0.0
N57 N 0.38624 0.13793 0.70539 0.0
Co58 Co 0.37834 0.04268 0.6599 0.0
N59 N 0.35526 0.10793 0.61703 0.0
C60 C 0.35025 0.1876 0.62236 0.0
C61 C 0.33429 0.21663 0.58586 0.0
C62 C 0.32836 0.15115 0.55629 0.0
C63 C 0.34079 0.08518 0.57716 0.0
N64 N 0.37042 0.94705 0.61493 0.0
C65 C 0.35306 0.93761 0.57828 0.0
C66 C 0.35184 0.858 0.56132 0.0
C67 C 0.36893 0.81582 0.58811 0.0
C68 C 0.37945 0.87138 0.62027 0.0
N69 N 0.40213 0.97915 0.7022 0.0
C70 C 0.40708 0.89935 0.6983 0.0
C71 C 0.42656 0.87585 0.72698 0.0
C72 C 0.43506 0.94548 0.7488 0.0
C73 C 0.42022 0.00741 0.73209 0.0
N74 N 0.35238 0.00799 0.70935 0.0
C75 C 0.31331 0.96009 0.77261 0.0
C76 C 0.32948 0.90289 0.75587 0.0
C77 C 0.34887 0.92803 0.72488 0.0
C78 C 0.31714 0.04123 0.75764 0.0
C79 C 0.33632 0.06349 0.72602 0.0
N80 N 0.40398 0.07692 0.61082 0.0
C81 C 0.44099 0.04602 0.56936 0.0
C82 C 0.44714 0.12877 0.56627 0.0
C83 C 0.42996 0.18479 0.58034 0.0
C84 C 0.40854 0.15774 0.60114 0.0
C85 C 0.41953 0.0216 0.59183 0.0
H86 H 0.39651 0.20365 0.61216 0.0
H87 H 0.41637 0.95766 0.59594 0.0
H88 H 0.36089 0.88173 0.7146 0.0
H89 H 0.33778 0.12631 0.71598 0.0
C90 C 0.35968 0.2321 0.66412 0.0
C91 C 0.425 0.09319 0.74181 0.0
C92 C 0.33656 0.00114 0.5612 0.0
C93 C 0.39623 0.85281 0.65941 0.0
H94 H 0.41933 0.25505 0.78085 0.0
H95 H 0.38267 0.33096 0.73934 0.0
H96 H 0.32728 0.27753 0.58219 0.0
H97 H 0.31566 0.15138 0.52423 0.0
H98 H 0.33938 0.83187 0.53404 0.0
H99 H 0.37248 0.75138 0.58626 0.0
H100 H 0.43476 0.81662 0.72821 0.0
H101 H 0.45106 0.95116 0.77182 0.0
H102 H 0.32776 0.83981 0.76861 0.0
H103 H 0.30558 0.08816 0.77153 0.0
H104 H 0.45305 0.99974 0.55683 0.0
H105 H 0.43334 0.24958 0.57866 0.0
C106 C 0.59673 0.40776 0.78074 0.0
C107 C 0.58354 0.46195 0.75009 0.0
C108 C 0.59092 0.53833 0.76277 0.0
C109 C 0.60823 0.52665 0.80012 0.0
N110 N 0.61282 0.44754 0.81088 0.0
Co111 Co 0.63499 0.406 0.86693 0.0
N112 N 0.64889 0.51626 0.87815 0.0
C113 C 0.64041 0.58721 0.85883 0.0
C114 C 0.65442 0.65269 0.87047 0.0
C115 C 0.67292 0.62113 0.89902 0.0
C116 C 0.66904 0.53793 0.90363 0.0
N117 N 0.65608 0.36505 0.92477 0.0
C118 C 0.67452 0.40123 0.94902 0.0
C119 C 0.68332 0.35222 0.99008 0.0
C120 C 0.67027 0.28226 0.9907 0.0
C121 C 0.65416 0.29274 0.95061 0.0
N122 N 0.62206 0.29441 0.85425 0.0
C123 C 0.62621 0.22751 0.88469 0.0
C124 C 0.61516 0.15904 0.86715 0.0
C125 C 0.60263 0.18421 0.8236 0.0
C126 C 0.60662 0.26734 0.81705 0.0
N127 N 0.65952 0.38856 0.81364 0.0
C128 C 0.69687 0.37271 0.74155 0.0
C129 C 0.6937 0.31702 0.78415 0.0
C130 C 0.67477 0.32505 0.81888 0.0
C131 C 0.68085 0.43653 0.73618 0.0
C132 C 0.6626 0.44383 0.77272 0.0
N133 N 0.61049 0.42647 0.91991 0.0
C134 C 0.56908 0.42968 0.93796 0.0
C135 C 0.57223 0.49668 0.97026 0.0
C136 C 0.59524 0.51955 0.98349 0.0
C137 C 0.61419 0.4823 0.95859 0.0
C138 C 0.58834 0.39554 0.91338 0.0
H139 H 0.63167 0.50307 0.96803 0.0
H140 H 0.5847 0.34791 0.88656 0.0
H141 H 0.67277 0.28036 0.85045 0.0
H142 H 0.65119 0.49512 0.7677 0.0
C143 C 0.62124 0.58819 0.82411 0.0
C144 C 0.5913 0.32026 0.78429 0.0
C145 C 0.68401 0.48179 0.93482 0.0
C146 C 0.64018 0.23139 0.93001 0.0
H147 H 0.56941 0.44758 0.72295 0.0
H148 H 0.58425 0.59556 0.74711 0.0
H149 H 0.65197 0.71549 0.85798 0.0
H150 H 0.68757 0.65554 0.91449 0.0
H151 H 0.69783 0.36507 0.01652 0.0
H152 H 0.67295 0.22872 0.01575 0.0
H153 H 0.6155 0.09854 0.88499 0.0
H154 H 0.59069 0.14617 0.80171 0.0
H155 H 0.70581 0.26755 0.79135 0.0
H156 H 0.68202 0.4803 0.70359 0.0
H157 H 0.55165 0.40699 0.92887 0.0
H158 H 0.59859 0.56948 0.00975 0.0
C159 C 0.8996 0.26486 0.24674 0.0
C160 C 0.89872 0.19833 0.21413 0.0
C161 C 0.87627 0.16762 0.21774 0.0
C162 C 0.86482 0.21727 0.25216 0.0
N163 N 0.87861 0.2776 0.26963 0.0
Co164 Co 0.87009 0.36129 0.32096 0.0
N165 N 0.84328 0.29458 0.34824 0.0
C166 C 0.83371 0.2299 0.32413 0.0
C167 C 0.81495 0.19692 0.35111 0.0
C168 C 0.81223 0.24452 0.39443 0.0
C169 C 0.82941 0.3048 0.39115 0.0
N170 N 0.86137 0.4467 0.3714 0.0
C171 C 0.8456 0.44499 0.41154 0.0
C172 C 0.8437 0.52105 0.43383 0.0
C173 C 0.85849 0.57223 0.40606 0.0
C174 C 0.86856 0.52494 0.36842 0.0
N175 N 0.8971 0.42615 0.29351 0.0
C176 C 0.90057 0.50638 0.29884 0.0
C177 C 0.9221 0.53161 0.28009 0.0
C178 C 0.93278 0.46276 0.26227 0.0
C179 C 0.91702 0.39915 0.27075 0.0
N180 N 0.8492 0.41291 0.2674 0.0
C181 C 0.81873 0.48303 0.18994 0.0
C182 C 0.84266 0.46964 0.17932 0.0
C183 C 0.85727 0.43253 0.2177 0.0
C184 C 0.81098 0.46327 0.24161 0.0
C185 C 0.82645 0.43055 0.27956 0.0
N186 N 0.89142 0.31045 0.37376 0.0
C187 C 0.92793 0.32363 0.42176 0.0
C188 C 0.93131 0.23921 0.42175 0.0
C189 C 0.91271 0.1908 0.40322 0.0
C190 C 0.89303 0.22761 0.37894 0.0
C191 C 0.90778 0.35774 0.39852 0.0
H192 H 0.88003 0.18906 0.36082 0.0
H193 H 0.90646 0.42304 0.39678 0.0
H194 H 0.87512 0.4192 0.20682 0.0
H195 H 0.81961 0.41812 0.31853 0.0
C196 C 0.84389 0.19827 0.2786 0.0
C197 C 0.92061 0.31383 0.25662 0.0
C198 C 0.83015 0.37589 0.42539 0.0
C199 C 0.88628 0.54985 0.33304 0.0
H200 H 0.91301 0.17338 0.19165 0.0
H201 H 0.86967 0.11234 0.20045 0.0
H202 H 0.80453 0.14436 0.3407 0.0
H203 H 0.79865 0.23704 0.42404 0.0
H204 H 0.83224 0.53844 0.46567 0.0
H205 H 0.86156 0.63619 0.41267 0.0
H206 H 0.92988 0.59159 0.28274 0.0
H207 H 0.95031 0.46039 0.24635 0.0
H208 H 0.85024 0.486 0.14137 0.0
H209 H 0.79286 0.46973 0.25315 0.0
H210 H 0.94127 0.36367 0.43755 0.0
H211 H 0.91425 0.12523 0.40298 0.0
C212 C 0.91338 0.55412 0.98958 0.0
C213 C 0.90776 0.62135 0.01891 0.0
C214 C 0.88399 0.63267 0.01265 0.0
C215 C 0.8766 0.57177 0.97995 0.0
N216 N 0.89416 0.52302 0.96571 0.0
Co217 Co 0.89199 0.4299 0.91761 0.0
N218 N 0.86221 0.47091 0.88574 0.0
C219 C 0.84777 0.52397 0.90927 0.0
C220 C 0.82633 0.5308 0.88498 0.0
C221 C 0.82701 0.47798 0.84409 0.0
C222 C 0.84916 0.4422 0.84491 0.0
N223 N 0.89021 0.33654 0.86901 0.0
C224 C 0.87661 0.32505 0.82538 0.0
C225 C 0.88269 0.2534 0.80092 0.0
C226 C 0.89939 0.21648 0.83226 0.0
C227 C 0.90309 0.26821 0.8733 0.0
N228 N 0.92133 0.38896 0.95133 0.0
C229 C 0.92967 0.31284 0.94952 0.0
C230 C 0.9513 0.30513 0.97338 0.0
C231 C 0.95696 0.38132 0.99068 0.0
C232 C 0.93829 0.43138 0.97669 0.0
N233 N 0.87328 0.36867 0.9706 0.0
C234 C 0.84046 0.31188 0.04607 0.0
C235 C 0.86154 0.34966 0.06173 0.0
C236 C 0.87773 0.37696 0.02352 0.0
C237 C 0.83773 0.29502 0.99214 0.0
C238 C 0.85417 0.32398 0.95531 0.0
N239 N 0.91088 0.49239 0.86539 0.0
C240 C 0.94847 0.50879 0.82275 0.0
C241 C 0.94513 0.59291 0.81697 0.0
C242 C 0.92316 0.62414 0.83082 0.0
C243 C 0.90633 0.57297 0.85527 0.0
C244 C 0.93103 0.4596 0.84606 0.0
H245 H 0.89038 0.5998 0.86947 0.0
H246 H 0.93468 0.39587 0.85194 0.0
H247 H 0.89323 0.4089 0.03669 0.0
H248 H 0.85061 0.3134 0.91421 0.0
C249 C 0.85504 0.5677 0.95352 0.0
C250 C 0.93682 0.51889 0.98647 0.0
C251 C 0.85585 0.37422 0.81068 0.0
C252 C 0.9203 0.25897 0.91284 0.0
H253 H 0.91963 0.65831 0.04192 0.0
H254 H 0.87364 0.68192 0.02776 0.0
H255 H 0.81168 0.56799 0.89651 0.0
H256 H 0.8122 0.46463 0.81876 0.0
H257 H 0.87549 0.22893 0.76488 0.0
H258 H 0.90812 0.15946 0.82531 0.0
H259 H 0.96257 0.25235 0.97401 0.0
H260 H 0.97333 0.39767 0.00949 0.0
H261 H 0.86507 0.36265 0.10278 0.0
H262 H 0.8225 0.2624 0.9778 0.0
H263 H 0.9649 0.48151 0.81136 0.0
H264 H 0.9197 0.68867 0.82679 0.0
C265 C 0.62517 0.21903 0.46323 0.0
C266 C 0.61689 0.14029 0.47278 0.0
C267 C 0.62413 0.09456 0.43153 0.0
C268 C 0.63652 0.14719 0.39929 0.0
N269 N 0.63813 0.22303 0.41811 0.0
Co270 Co 0.65515 0.31662 0.38367 0.0
N271 N 0.67016 0.24491 0.33164 0.0
C272 C 0.66325 0.16915 0.31959 0.0
C273 C 0.67682 0.13477 0.28146 0.0
C274 C 0.69348 0.1922 0.26892 0.0
C275 C 0.68916 0.2584 0.30057 0.0
N276 N 0.6731 0.40888 0.35031 0.0
C277 C 0.69252 0.40754 0.31929 0.0
C278 C 0.70018 0.48583 0.30665 0.0
C279 C 0.68482 0.53778 0.33005 0.0
C280 C 0.66878 0.48856 0.3559 0.0
N281 N 0.63946 0.38924 0.43471 0.0
C282 C 0.63889 0.4712 0.43088 0.0
C283 C 0.62541 0.50571 0.46911 0.0
C284 C 0.61635 0.44164 0.4981 0.0
C285 C 0.62475 0.37137 0.47567 0.0
N286 N 0.68149 0.29938 0.43364 0.0
C287 C 0.71703 0.2831 0.51116 0.0
C288 C 0.70757 0.3589 0.49718 0.0
C289 C 0.69015 0.36572 0.4588 0.0
C290 C 0.70904 0.21506 0.48364 0.0
C291 C 0.69111 0.22454 0.4449 0.0
N292 N 0.62851 0.33755 0.33418 0.0
C293 C 0.61315 0.42696 0.26486 0.0
C294 C 0.59089 0.42447 0.28847 0.0
C295 C 0.58716 0.36807 0.32982 0.0
C296 C 0.60602 0.32471 0.35153 0.0
C297 C 0.63166 0.38155 0.2878 0.0
H298 H 0.60229 0.28586 0.38499 0.0
H299 H 0.64884 0.38736 0.27021 0.0
H300 H 0.68341 0.42539 0.45051 0.0
H301 H 0.68474 0.17136 0.42503 0.0
C302 C 0.64753 0.12682 0.35226 0.0
C303 C 0.6155 0.29015 0.48968 0.0
C304 C 0.70322 0.33323 0.29937 0.0
C305 C 0.65227 0.51379 0.3928 0.0
H306 H 0.60559 0.1186 0.50441 0.0
H307 H 0.62043 0.03086 0.42534 0.0
H308 H 0.67561 0.0736 0.26675 0.0
H309 H 0.70742 0.18548 0.2404 0.0
H310 H 0.71533 0.50369 0.28331 0.0
H311 H 0.68591 0.60349 0.33024 0.0
H312 H 0.62232 0.56974 0.4749 0.0
H313 H 0.60408 0.44577 0.53057 0.0
H314 H 0.71332 0.41367 0.51657 0.0
H315 H 0.71577 0.15512 0.49341 0.0
H316 H 0.61663 0.4676 0.23137 0.0
H317 H 0.56991 0.36092 0.34736 0.0
C318 C 0.40882 0.80515 0.05477 0.0
C319 C 0.40233 0.73148 0.03341 0.0
C320 C 0.37974 0.71595 0.05003 0.0
C321 C 0.37381 0.781 0.08039 0.0
N322 N 0.39121 0.83621 0.0835 0.0
Co323 Co 0.39101 0.93736 0.12436 0.0
N324 N 0.36491 0.89651 0.16986 0.0
C325 C 0.35055 0.83351 0.15881 0.0
C326 C 0.33369 0.81991 0.19668 0.0
C327 C 0.33733 0.8789 0.23328 0.0
C328 C 0.35624 0.92589 0.21552 0.0
N329 N 0.39085 0.03937 0.16494 0.0
C330 C 0.3796 0.05765 0.2104 0.0
C331 C 0.38354 0.13815 0.22343 0.0
C332 C 0.39728 0.1718 0.18419 0.0
C333 C 0.40103 0.11024 0.14954 0.0
N334 N 0.41701 0.9776 0.07842 0.0
C335 C 0.424 0.05528 0.07145 0.0
C336 C 0.4435 0.06284 0.03982 0.0
C337 C 0.44913 0.98496 0.02639 0.0
C338 C 0.43256 0.9342 0.05039 0.0
N339 N 0.36791 0.98387 0.07381 0.0
C340 C 0.33138 0.01502 1.00118 0.0
C341 C 0.3533 0.98848 0.98408 0.0
C342 C 0.37125 0.97327 0.02077 0.0
C343 C 0.32871 0.03298 0.05474 0.0
C344 C 0.34736 0.01782 0.09041 0.0
N345 N 0.41424 0.88823 0.17341 0.0
C346 C 0.45476 0.8813 0.20186 0.0
C347 C 0.45241 0.79786 0.21432 0.0
C348 C 0.42982 0.7636 0.21125 0.0
C349 C 0.41111 0.80946 0.19072 0.0
C350 C 0.43541 0.92555 0.18222 0.0
H351 H 0.39453 0.77891 0.18523 0.0
H352 H 0.43807 0.98837 0.17039 0.0
H353 H 0.38726 0.94724 0.0064 0.0
H354 H 0.34455 0.0287 0.13178 0.0
C355 C 0.35494 0.78365 0.11565 0.0
C356 C 0.43151 0.84546 0.04638 0.0
C357 C 0.3627 0.00455 0.23842 0.0
C358 C 0.41557 0.11486 0.10493 0.0
H359 H 0.41294 0.69279 0.00915 0.0
H360 H 0.3695 0.66144 0.04347 0.0
H361 H 0.32043 0.77249 0.1978 0.0
H362 H 0.32668 0.88827 0.268 0.0
H363 H 0.37657 0.16987 0.25694 0.0
H364 H 0.40384 0.23366 0.18142 0.0
H365 H 0.45346 0.11763 0.03071 0.0
H366 H 0.46404 0.96819 1.00281 0.0
H367 H 0.356 0.9734 0.94297 0.0
H368 H 0.31192 0.05275 0.06958 0.0
H369 H 0.4717 0.91131 0.20395 0.0
H370 H 0.42676 0.70035 0.22211 0.0
C371 C 0.10426 0.13891 0.55072 0.0
C372 C 0.09355 0.21425 0.54477 0.0
C373 C 0.10813 0.26943 0.56838 0.0
C374 C 0.12681 0.22489 0.58734 0.0
N375 N 0.12492 0.14534 0.57696 0.0
Co376 Co 0.14765 0.05959 0.59788 0.0
N377 N 0.16161 0.12809 0.65414 0.0
C378 C 0.15902 0.2092 0.6575 0.0
C379 C 0.17117 0.24171 0.69907 0.0
C380 C 0.18243 0.17742 0.72312 0.0
C381 C 0.17654 0.10878 0.69474 0.0
N382 N 0.171 0.97473 0.61837 0.0
C383 C 0.18574 0.96885 0.66105 0.0
C384 C 0.20013 0.90146 0.6571 0.0
C385 C 0.1946 0.86553 0.60999 0.0
C386 C 0.17708 0.91231 0.58771 0.0
N387 N 0.13334 0.9921 0.54211 0.0
C388 C 0.14335 0.92778 0.51973 0.0
C389 C 0.12888 0.89248 0.48283 0.0
C390 C 0.10856 0.93766 0.48234 0.0
C391 C 0.11178 0.99809 0.51906 0.0
N392 N 0.17033 0.10331 0.54516 0.0
C393 C 0.20493 0.11122 0.46449 0.0
C394 C 0.21078 0.11106 0.51879 0.0
C395 C 0.19357 0.10698 0.558 0.0
C396 C 0.18087 0.12348 0.45263 0.0
C397 C 0.16391 0.11734 0.49328 0.0
N398 N 0.1248 0.0117 0.64835 0.0
C399 C 0.10353 0.89056 0.67546 0.0
C400 C 0.08668 0.93607 0.70179 0.0
C401 C 0.08997 0.02106 0.70246 0.0
C402 C 0.10925 0.05761 0.67586 0.0
C403 C 0.12225 0.92895 0.64963 0.0
H404 H 0.11107 0.123 0.67583 0.0
H405 H 0.1339 0.89104 0.62795 0.0
H406 H 0.19927 0.10127 0.59866 0.0
H407 H 0.14556 0.11995 0.48233 0.0
C408 C 0.14334 0.25141 0.62426 0.0
C409 C 0.09485 0.06306 0.52968 0.0
C410 C 0.1881 0.02966 0.70318 0.0
C411 C 0.16407 0.89467 0.54166 0.0
H412 H 0.07685 0.22782 0.52599 0.0
H413 H 0.10479 0.3334 0.57378 0.0
H414 H 0.17166 0.30459 0.71076 0.0
H415 H 0.1943 0.18134 0.7566 0.0
H416 H 0.21357 0.88128 0.68482 0.0
H417 H 0.20221 0.811 0.59435 0.0
H418 H 0.13221 0.8382 0.46072 0.0
H419 H 0.09317 0.92735 0.45801 0.0
H420 H 0.22869 0.11182 0.53194 0.0
H421 H 0.17472 0.13643 0.41287 0.0
H422 H 0.10182 0.82526 0.67239 0.0
H423 H 0.07764 0.05915 0.72277 0.0
H424 H 0.31734 0.03004 0.8717 0.0
H425 H 0.28313 0.90888 0.81253 0.0
H426 H 0.26926 0.9922 0.98708 0.0
H427 H 0.23438 0.82159 0.85756 0.0
H428 H 0.17094 0.89628 0.98451 0.0
H429 H 0.20062 0.88699 0.91442 0.0
H430 H 0.25499 0.87642 0.03418 0.0
H431 H 0.22538 0.88551 0.10351 0.0
C432 C 0.30134 0.99267 0.87318 0.0
C433 C 0.29467 0.93976 0.81702 0.0
C434 C 0.27054 0.96806 0.94714 0.0
C435 C 0.24877 0.90343 0.92794 0.0
C436 C 0.24881 0.86236 0.8661 0.0
C437 C 0.26897 0.87628 0.81551 0.0
C438 C 0.18923 0.88939 0.9956 0.0
C439 C 0.19594 0.89214 0.0494 0.0
C440 C 0.20625 0.88455 0.95545 0.0
C441 C 0.23029 0.8845 0.96844 0.0
C442 C 0.23667 0.8793 0.02253 0.0
C443 C 0.21973 0.88351 0.06249 0.0
H444 H 0.21242 0.15939 0.29928 0.0
H445 H 0.18927 0.9349 0.41493 0.0
H446 H 0.25582 0.17329 0.33366 0.0
H447 H 0.22957 0.91032 0.4693 0.0
H448 H 0.29148 0.02735 0.59099 0.0
H449 H 0.25708 0.03165 0.53392 0.0
H450 H 0.29642 0.92863 0.40757 0.0
H451 H 0.33168 0.92897 0.46355 0.0
C452 C 0.21721 0.11936 0.33204 0.0
C453 C 0.1983 0.04784 0.35581 0.0
C454 C 0.24518 0.12514 0.35258 0.0
C455 C 0.2543 0.01464 0.42651 0.0
C456 C 0.22918 0.95821 0.43916 0.0
C457 C 0.20358 0.97607 0.40524 0.0
C458 C 0.29287 0.00641 0.55072 0.0
C459 C 0.31462 0.98226 0.53081 0.0
C460 C 0.27319 0.01064 0.51759 0.0
C461 C 0.27475 0.99222 0.46369 0.0
C462 C 0.29524 0.95262 0.447 0.0
C463 C 0.31532 0.95041 0.47967 0.0
H464 H 0.82341 0.47885 0.07974 0.0
H465 H 0.7745 0.55312 0.20003 0.0
H466 H 0.79372 0.50064 0.01293 0.0
H467 H 0.74433 0.56681 0.13382 0.0
H468 H 0.69036 0.60005 0.0087 0.0
H469 H 0.72503 0.62325 0.06351 0.0
H470 H 0.76151 0.4348 0.98054 0.0
H471 H 0.72746 0.41763 0.92326 0.0
C472 C 0.80652 0.49992 0.09274 0.0
C473 C 0.80158 0.50995 0.147 0.0
C474 C 0.78913 0.5114 0.05374 0.0
C475 C 0.76606 0.53266 0.06745 0.0
C476 C 0.76168 0.54985 0.12089 0.0
C477 C 0.77915 0.53971 0.15973 0.0
C478 C 0.7062 0.56641 1.00078 0.0
C479 C 0.70636 0.50817 0.961 0.0
C480 C 0.72602 0.57821 0.03307 0.0
C481 C 0.74632 0.53027 0.02753 0.0
C482 C 0.74664 0.47434 0.98599 0.0
C483 C 0.72703 0.46404 0.95301 0.0
H484 H 0.71391 0.21366 0.712 0.0
H485 H 0.72102 0.50535 0.68254 0.0
H486 H 0.74641 0.17071 0.64138 0.0
H487 H 0.75378 0.5115 0.60571 0.0
H488 H 0.78228 0.3966 0.41683 0.0
H489 H 0.7537 0.39771 0.48907 0.0
H490 H 0.81066 0.37861 0.60136 0.0
H491 H 0.83862 0.37892 0.53069 0.0
C492 C 0.72295 0.26237 0.69092 0.0
C493 C 0.71586 0.36141 0.70168 0.0
C494 C 0.74338 0.23595 0.64546 0.0
C495 C 0.76127 0.36611 0.59684 0.0
C496 C 0.74847 0.4525 0.62144 0.0
C497 C 0.7275 0.44724 0.67011 0.0
C498 C 0.78845 0.39251 0.4575 0.0
C499 C 0.81256 0.38406 0.4685 0.0
C500 C 0.77206 0.39289 0.49898 0.0
C501 C 0.77933 0.38265 0.55219 0.0
C502 C 0.80374 0.38335 0.56221 0.0
C503 C 0.82007 0.38298 0.52118 0.0
H504 H 0.84207 0.27866 0.15424 0.0
H505 H 0.79298 0.3165 0.02486 0.0
H506 H 0.80995 0.28495 0.21671 0.0
H507 H 0.76093 0.31493 0.08645 0.0
H508 H 0.70966 0.40872 0.20317 0.0
H509 H 0.74256 0.39508 0.14342 0.0
H510 H 0.77744 0.23893 0.25948 0.0
H511 H 0.74464 0.25663 0.31991 0.0
C512 C 0.82447 0.2869 0.13884 0.0
C513 C 0.82052 0.29875 0.0841 0.0
C514 C 0.80584 0.28936 0.17491 0.0
C515 C 0.78262 0.30296 0.15736 0.0
C516 C 0.77851 0.30783 0.10231 0.0
C517 C 0.7971 0.30651 0.0664 0.0
C518 C 0.72475 0.37375 0.21636 0.0
C519 C 0.72492 0.33548 0.26657 0.0
C520 C 0.74355 0.36432 0.18167 0.0
C521 C 0.76296 0.31522 0.19583 0.0
C522 C 0.7632 0.27823 0.24687 0.0
C523 C 0.7444 0.2883 0.28175 0.0
H524 H 0.70703 0.36482 0.60705 0.0
H525 H 0.76399 0.19831 0.52398 0.0
H526 H 0.75802 0.37741 0.71883 0.0
H527 H 0.79765 0.20632 0.5985 0.0
H528 H 0.83603 0.46746 0.73277 0.0
H529 H 0.8023 0.43499 0.678 0.0
H530 H 0.80511 0.1845 0.73139 0.0
H531 H 0.83544 0.22154 0.79645 0.0
C532 C 0.72446 0.33714 0.60981 0.0
C533 C 0.73284 0.27887 0.55833 0.0
C534 C 0.75695 0.34478 0.68154 0.0
C535 C 0.78095 0.29042 0.66478 0.0
C536 C 0.78146 0.23743 0.60697 0.0
C537 C 0.75972 0.23233 0.55877 0.0
C538 C 0.82966 0.40525 0.73284 0.0
C539 C 0.83887 0.3472 0.76863 0.0
C540 C 0.81061 0.38609 0.70054 0.0
C541 C 0.80223 0.30574 0.69733 0.0
C542 C 0.81204 0.24597 0.73104 0.0
C543 C 0.82965 0.26716 0.76772 0.0
H544 H 0.31908 0.85895 0.96483 0.0
H545 H 0.30007 0.14495 0.95868 0.0
H546 H 0.28725 0.81146 0.89206 0.0
H547 H 0.26488 0.14641 0.88514 0.0
H548 H 0.18375 0.01615 0.81175 0.0
H549 H 0.21521 0.0119 0.8791 0.0
H550 H 0.26679 0.03382 0.7554 0.0
H551 H 0.23564 0.03847 0.68875 0.0
C552 C 0.30773 0.90496 0.9474 0.0
C553 C 0.31091 0.00357 0.9657 0.0
C554 C 0.28764 0.87623 0.90113 0.0
C555 C 0.26344 0.00113 0.86476 0.0
C556 C 0.27294 0.0889 0.8958 0.0
C557 C 0.29512 0.08688 0.94266 0.0
C558 C 0.2019 0.01784 0.79908 0.0
C559 C 0.20724 0.02285 0.74466 0.0
C560 C 0.21992 0.01521 0.83768 0.0
C561 C 0.24377 0.01532 0.82298 0.0
C562 C 0.24889 0.0279 0.76865 0.0
C563 C 0.23096 0.03029 0.73012 0.0
H564 H 0.36309 0.01558 0.34746 0.0
H565 H 0.32277 0.07964 0.20775 0.0
H566 H 0.32975 0.05403 0.40335 0.0
H567 H 0.28931 0.1125 0.26285 0.0
H568 H 0.22771 0.94811 0.3305 0.0
H569 H 0.27309 0.96598 0.30627 0.0
H570 H 0.29087 0.1794 0.42704 0.0
H571 H 0.24881 0.2 0.47259 0.0
C572 C 0.34722 0.0389 0.32896 0.0
C573 C 0.34512 0.04273 0.27344 0.0
C574 C 0.32811 0.06008 0.36086 0.0
C575 C 0.30656 0.08193 0.33733 0.0
C576 C 0.30558 0.0943 0.28207 0.0
C577 C 0.32466 0.07503 0.25045 0.0
C578 C 0.2373 0.99637 0.35074 0.0
C579 C 0.22524 0.09976 0.42414 0.0
C580 C 0.26609 0.00453 0.33648 0.0
C581 C 0.28393 0.07287 0.36577 0.0
C582 C 0.27686 0.13976 0.41408 0.0
C583 C 0.25007 0.15485 0.44229 0.0
H584 H 0.05359 0.06291 0.32461 0.0
H585 H 0.05206 0.10922 0.15558 0.0
H586 H 0.01412 0.12256 0.33115 0.0
H587 H 1.01332 0.16648 0.16183 0.0
H588 H 0.95865 0.35493 0.19406 0.0
H589 H 0.99685 0.28912 0.19258 0.0
H590 H 0.97267 0.11048 0.30865 0.0
H591 H 0.93479 0.17848 0.31084 0.0
C592 C 0.04469 0.08425 0.28894 0.0
C593 C 0.05596 0.08082 0.2397 0.0
C594 C 0.02223 0.11872 0.29262 0.0
C595 C 1.01084 0.1513 0.24721 0.0
C596 C 0.02177 0.14419 0.19785 0.0
C597 C 0.04396 0.10971 0.19417 0.0
C598 C 0.96181 0.30373 0.2208 0.0
C599 C 0.94418 0.27495 0.25513 0.0
C600 C 0.98354 0.26456 0.21907 0.0
C601 C 0.98797 0.19453 0.25082 0.0
C602 C 0.97013 0.16511 0.28453 0.0
C603 C 0.94844 0.20435 0.28608 0.0
H604 H 0.44606 0.15794 0.82999 0.0
H605 H 0.45996 0.09422 0.66909 0.0
H606 H 0.48584 0.21326 0.83807 0.0
H607 H 0.49919 0.15417 0.67501 0.0
H608 H 0.57637 0.20359 0.71476 0.0
H609 H 0.53697 0.14593 0.70546 0.0
H610 H 0.51077 0.31981 0.81639 0.0
H611 H 0.55036 0.3734 0.82744 0.0
C612 C 0.4576 0.15685 0.79603 0.0
C613 C 0.44973 0.1236 0.74834 0.0
C614 C 0.48043 0.18927 0.80033 0.0
C615 C 0.49602 0.18993 0.75685 0.0
C616 C 0.48808 0.15468 0.70958 0.0
C617 C 0.46542 0.12115 0.70574 0.0
C618 C 0.56211 0.22916 0.7371 0.0
C619 C 0.56663 0.29185 0.77268 0.0
C620 C 0.53936 0.19653 0.7316 0.0
C621 C 0.52032 0.22674 0.76086 0.0
C622 C 0.52482 0.29249 0.79439 0.0
C623 C 0.54759 0.32421 0.80032 0.0
H624 H 0.08493 0.78633 0.75209 0.0
H625 H 0.04051 0.98805 0.70613 0.0
H626 H 0.05094 0.70777 0.77848 0.0
H627 H 1.00618 0.91152 0.73747 0.0
H628 H 0.94622 0.72141 0.74441 0.0
H629 H 0.97972 0.80829 0.72039 0.0
H630 H 0.02232 0.67956 0.83708 0.0
H631 H 0.98953 0.58985 0.85729 0.0
C632 C 0.06786 0.8146 0.74809 0.0
C633 C 0.06567 0.8936 0.72591 0.0
C634 C 0.04814 0.76955 0.76431 0.0
C635 C 0.02535 0.80226 0.76041 0.0
C636 C 0.02321 0.88285 0.74036 0.0
C637 C 0.04304 0.92768 0.72317 0.0
C638 C 0.96286 0.71164 0.76448 0.0
C639 C 0.96526 0.64776 0.80213 0.0
C640 C 0.98213 0.76208 0.75114 0.0
C641 C 1.00421 0.75134 0.7761 0.0
C642 C 1.00614 0.68888 0.81518 0.0
C643 C 0.98716 0.63727 0.82722 0.0
H644 H 0.46001 0.6407 0.18389 0.0
H645 H 0.49282 0.83483 0.27048 0.0
H646 H 0.49468 0.55719 0.19792 0.0
H647 H 0.5275 0.7497 0.28518 0.0
H648 H 0.57165 0.46346 0.19038 0.0
H649 H 0.53891 0.55704 0.17122 0.0
H650 H 0.53569 0.61535 0.33689 0.0
H651 H 0.5679 0.52156 0.35596 0.0
C652 C 0.4745 0.66583 0.20619 0.0
C653 C 0.47343 0.74536 0.22577 0.0
C654 C 0.49454 0.61785 0.21371 0.0
C655 C 0.51394 0.64692 0.24224 0.0
C656 C 0.51285 0.72563 0.2628 0.0
C657 C 0.49297 0.77452 0.25423 0.0
C658 C 0.564 0.49676 0.22247 0.0
C659 C 0.57218 0.4846 0.27471 0.0
C660 C 0.54523 0.55002 0.21163 0.0
C661 C 0.53469 0.59359 0.25262 0.0
C662 C 0.54348 0.58325 0.30442 0.0
C663 C 0.56183 0.52907 0.31536 0.0
H664 H 0.03266 0.93096 0.99693 0.0
H665 H 0.07682 0.72397 0.03214 0.0
H666 H 0.99953 0.84016 0.98114 0.0
H667 H 0.04387 0.63276 0.01458 0.0
H668 H 0.97293 0.51191 0.05944 0.0
H669 H 1.00789 0.59852 0.06239 0.0
H670 H 0.98191 0.73824 0.92746 0.0
H671 H 0.94712 0.65105 0.92488 0.0
C672 C 0.03542 0.86592 1.00001 0.0
C673 C 0.05733 0.83475 0.01617 0.0
C674 C 0.01644 0.81374 0.99076 0.0
C675 C 0.01892 0.72907 0.99745 0.0
C676 C 0.04124 0.69772 0.01014 0.0
C677 C 0.06025 0.74997 0.01932 0.0
C678 C 0.97512 0.55939 0.02939 0.0
C679 C 0.95796 0.5721 0.99003 0.0
C680 C 0.99507 0.60943 0.03121 0.0
C681 C 0.99804 0.67429 0.99432 0.0
C682 C 0.98035 0.6886 0.95624 0.0
C683 C 0.9605 0.6383 0.95438 0.0
H684 H 0.5991 0.21526 0.58132 0.0
H685 H 0.57609 0.35083 0.44266 0.0
H686 H 0.55813 0.18234 0.60281 0.0
H687 H 0.53567 0.31401 0.4611 0.0
H688 H 0.46221 0.27377 0.51947 0.0
H689 H 0.50206 0.32407 0.51051 0.0
H690 H 0.5284 0.09505 0.57289 0.0
H691 H 0.48855 0.04739 0.58652 0.0
C692 C 0.58524 0.23832 0.55564 0.0
C693 C 0.59079 0.28333 0.50938 0.0
C694 C 0.56178 0.21864 0.5674 0.0
C695 C 0.54342 0.24337 0.53293 0.0
C696 C 0.54908 0.29347 0.48877 0.0
C697 C 0.5724 0.31392 0.47764 0.0
C698 C 0.47638 0.23418 0.53209 0.0
C699 C 0.47176 0.1562 0.55408 0.0
C700 C 0.49944 0.26291 0.52625 0.0
C701 C 0.51871 0.21406 0.54115 0.0
C702 C 0.51415 0.13539 0.56185 0.0
C703 C 0.49109 0.10708 0.56843 0.0
H704 H 0.4506 0.72971 0.10996 0.0
H705 H 0.45866 0.84671 0.95675 0.0
H706 H 0.48528 0.64621 0.09397 0.0
H707 H 0.49372 0.76585 0.94093 0.0
H708 H 0.53615 0.54086 0.90539 0.0
H709 H 0.50261 0.62499 0.92474 0.0
H710 H 0.52852 0.65596 0.08429 0.0
H711 H 0.56213 0.56879 0.06521 0.0
C712 C 0.46022 0.73858 0.07348 0.0
C713 C 0.45265 0.79646 0.0356 0.0
C714 C 0.48003 0.69128 0.06435 0.0
C715 C 0.49247 0.70028 0.01662 0.0
C716 C 0.48457 0.75752 0.97822 0.0
C717 C 0.46473 0.80468 0.98748 0.0
C718 C 0.5346 0.56451 0.94492 0.0
C719 C 0.5517 0.54726 0.984 0.0
C720 C 0.51551 0.61387 0.95573 0.0
C721 C 0.51296 0.64772 0.00587 0.0
C722 C 0.52996 0.63039 0.04527 0.0
C723 C 0.54925 0.58097 0.03433 0.0
H724 H 0.08019 0.10442 0.42982 0.0
H725 H 0.05445 0.03097 0.58392 0.0
H726 H 0.04045 0.14113 0.40219 0.0
H727 H 0.01433 0.06541 0.55612 0.0
H728 H 0.94139 0.09715 0.47847 0.0
H729 H 0.9801 0.04083 0.50044 0.0
H730 H 1.01313 0.24498 0.41913 0.0
H731 H 0.97477 0.29935 0.39609 0.0
C732 C 0.06579 0.09296 0.45697 0.0
C733 C 0.0703 0.06325 0.50858 0.0
C734 C 0.04295 0.11473 0.44138 0.0
C735 C 0.02389 0.10615 0.47662 0.0
C736 C 0.02835 0.07201 0.52747 0.0
C737 C 0.05132 0.05173 0.54342 0.0
C738 C 0.95693 0.12972 0.46511 0.0
C739 C 0.95481 0.20365 0.43619 0.0
C740 C 0.97919 0.09767 0.47799 0.0
C741 C 0.99996 0.13808 0.46171 0.0
C742 C 0.99772 0.21127 0.43205 0.0
C743 C 0.97558 0.24338 0.41952 0.0
loop_
_geom_bond_atom_site_label_1
_geom_bond_atom_site_label_2
_geom_bond_distance
_geom_bond_site_symmetry_2
_ccdc_geom_bond_type
C0 C1 1.443 . S
C0 N4 1.376 . S
C0 C38 1.389 1_565 S
C1 C0 1.443 . S
C1 C2 1.340 . S
C1 H41 0.951 . S
C2 C1 1.340 . S
C2 C3 1.439 . S
C2 H42 0.950 . S
C3 C2 1.439 . S
C3 N4 1.374 . S
C3 C37 1.395 . S
N4 C0 1.376 . S
N4 C3 1.374 . S
N4 Co5 2.008 1_565 S
Co5 N4 2.008 1_545 S
Co5 N6 1.995 1_545 S
Co5 N11 2.008 . S
Co5 N16 1.995 . S
Co5 N21 2.282 . S
Co5 N27 2.282 1_545 S
N6 Co5 1.995 1_565 S
N6 C7 1.376 . S
N6 C10 1.383 . S
C7 N6 1.376 . S
C7 C8 1.446 . S
C7 C37 1.391 . S
C8 C7 1.446 . S
C8 C9 1.339 . S
C8 H43 0.949 . S
C9 C8 1.339 . S
C9 C10 1.439 . S
C9 H44 0.950 . S
C10 N6 1.383 . S
C10 C9 1.439 . S
C10 C39 1.392 . S
N11 Co5 2.008 . S
N11 C12 1.376 . S
N11 C15 1.374 . S
C12 N11 1.376 . S
C12 C13 1.443 . S
C12 C39 1.389 1_545 S
C13 C12 1.443 . S
C13 C14 1.340 . S
C13 H45 0.951 . S
C14 C13 1.340 . S
C14 C15 1.439 . S
C14 H46 0.950 . S
C15 N11 1.374 . S
C15 C14 1.439 . S
C15 C40 1.395 . S
N16 Co5 1.995 . S
N16 C17 1.376 . S
N16 C20 1.383 . S
C17 N16 1.376 . S
C17 C18 1.446 . S
C17 C40 1.391 . S
C18 C17 1.446 . S
C18 C19 1.339 . S
C18 H47 0.949 . S
C19 C18 1.339 . S
C19 C20 1.439 . S
C19 H48 0.950 . S
C20 N16 1.383 . S
C20 C19 1.439 . S
C20 C38 1.392 . S
N21 Co5 2.282 . S
N21 C24 1.332 . S
N21 C26 1.332 1_545 S
C22 C23 1.386 . S
C22 C25 1.388 . S
C23 C22 1.386 . S
C23 C24 1.382 . S
C23 H49 0.950 . S
C24 N21 1.332 . S
C24 C23 1.382 . S
C24 H35 0.952 . S
C25 C22 1.388 . S
C25 C26 1.382 1_545 S
C25 H50 0.950 1_545 S
C26 N21 1.332 1_565 S
C26 C25 1.382 1_565 S
C26 H36 0.948 . S
N27 Co5 2.282 1_565 S
N27 C31 1.332 . S
N27 C32 1.332 1_565 S
C28 C29 1.388 . S
C28 C32 1.382 1_565 S
C28 H51 0.950 1_565 S
C29 C28 1.388 . S
C29 C30 1.386 . S
C30 C29 1.386 . S
C30 C31 1.382 . S
C30 H52 0.950 . S
C31 N27 1.332 . S
C31 C30 1.382 . S
C31 H33 0.952 . S
C32 N27 1.332 1_545 S
C32 C28 1.382 1_545 S
C32 H34 0.948 . S
H33 C31 0.952 . S
H34 C32 0.948 . S
H35 C24 0.952 . S
H36 C26 0.948 . S
C37 C3 1.395 . S
C37 C7 1.391 . S
C38 C0 1.389 1_545 S
C38 C20 1.392 . S
C39 C10 1.392 . S
C39 C12 1.389 1_565 S
C40 C15 1.395 . S
C40 C17 1.391 . S
H41 C1 0.951 . S
H42 C2 0.950 . S
H43 C8 0.949 . S
H44 C9 0.950 . S
H45 C13 0.951 . S
H46 C14 0.950 . S
H47 C18 0.949 . S
H48 C19 0.950 . S
H49 C23 0.950 . S
H50 C25 0.950 1_565 S
H51 C28 0.950 1_545 S
H52 C30 0.950 . S
C53 C54 1.443 . S
C53 N57 1.376 . S
C53 C91 1.389 . S
C54 C53 1.443 . S
C54 C55 1.340 . S
C54 H94 0.951 . S
C55 C54 1.340 . S
C55 C56 1.439 . S
C55 H95 0.950 . S
C56 C55 1.439 . S
C56 N57 1.374 . S
C56 C90 1.395 . S
N57 C53 1.376 . S
N57 C56 1.374 . S
N57 Co58 2.008 . S
Co58 N57 2.008 . S
Co58 N59 1.995 . S
Co58 N64 2.008 1_545 S
Co58 N69 1.995 1_545 S
Co58 N74 2.282 . S
Co58 N80 2.282 . S
N59 Co58 1.995 . S
N59 C60 1.376 . S
N59 C63 1.383 . S
C60 N59 1.376 . S
C60 C61 1.446 . S
C60 C90 1.391 . S
C61 C60 1.446 . S
C61 C62 1.339 . S
C61 H96 0.949 . S
C62 C61 1.339 . S
C62 C63 1.439 . S
C62 H97 0.950 . S
C63 N59 1.383 . S
C63 C62 1.439 . S
C63 C92 1.392 1_545 S
N64 Co58 2.008 1_565 S
N64 C65 1.376 . S
N64 C68 1.374 . S
C65 N64 1.376 . S
C65 C66 1.443 . S
C65 C92 1.389 . S
C66 C65 1.443 . S
C66 C67 1.340 . S
C66 H98 0.951 . S
C67 C66 1.340 . S
C67 C68 1.439 . S
C67 H99 0.950 . S
C68 N64 1.374 . S
C68 C67 1.439 . S
C68 C93 1.395 . S
N69 Co58 1.995 1_565 S
N69 C70 1.376 . S
N69 C73 1.383 . S
C70 N69 1.376 . S
C70 C71 1.446 . S
C70 C93 1.391 . S
C71 C70 1.446 . S
C71 C72 1.339 . S
C71 H100 0.949 . S
C72 C71 1.339 . S
C72 C73 1.439 . S
C72 H101 0.950 . S
C73 N69 1.383 . S
C73 C72 1.439 . S
C73 C91 1.392 1_565 S
N74 Co58 2.282 . S
N74 C77 1.332 1_545 S
N74 C79 1.332 . S
C75 C76 1.386 . S
C75 C78 1.388 1_565 S
C76 C75 1.386 . S
C76 C77 1.382 . S
C76 H102 0.950 . S
C77 N74 1.332 1_565 S
C77 C76 1.382 . S
C77 H88 0.952 . S
C78 C75 1.388 1_545 S
C78 C79 1.382 . S
C78 H103 0.950 . S
C79 N74 1.332 . S
C79 C78 1.382 . S
C79 H89 0.948 . S
N80 Co58 2.282 . S
N80 C84 1.332 . S
N80 C85 1.332 1_545 S
C81 C82 1.388 . S
C81 C85 1.382 1_545 S
C81 H104 0.950 1_545 S
C82 C81 1.388 . S
C82 C83 1.386 . S
C83 C82 1.386 . S
C83 C84 1.382 . S
C83 H105 0.950 . S
C84 N80 1.332 . S
C84 C83 1.382 . S
C84 H86 0.952 . S
C85 N80 1.332 1_565 S
C85 C81 1.382 1_565 S
C85 H87 0.948 . S
H86 C84 0.952 . S
H87 C85 0.948 . S
H88 C77 0.952 . S
H89 C79 0.948 . S
C90 C56 1.395 . S
C90 C60 1.391 . S
C91 C53 1.389 . S
C91 C73 1.392 1_545 S
C92 C63 1.392 1_565 S
C92 C65 1.389 . S
C93 C68 1.395 . S
C93 C70 1.391 . S
H94 C54 0.951 . S
H95 C55 0.950 . S
H96 C61 0.949 . S
H97 C62 0.950 . S
H98 C66 0.951 . S
H99 C67 0.950 . S
H100 C71 0.949 . S
H101 C72 0.950 . S
H102 C76 0.950 . S
H103 C78 0.950 . S
H104 C81 0.950 1_565 S
H105 C83 0.950 . S
C106 C107 1.443 . S
C106 N110 1.376 . S
C106 C144 1.389 . S
C107 C106 1.443 . S
C107 C108 1.340 . S
C107 H147 0.951 . S
C108 C107 1.340 . S
C108 C109 1.439 . S
C108 H148 0.950 . S
C109 C108 1.439 . S
C109 N110 1.374 . S
C109 C143 1.395 . S
N110 C106 1.376 . S
N110 C109 1.374 . S
N110 Co111 2.008 . S
Co111 N110 2.008 . S
Co111 N112 1.995 . S
Co111 N117 2.008 . S
Co111 N122 1.995 . S
Co111 N127 2.282 . S
Co111 N133 2.282 . S
N112 Co111 1.995 . S
N112 C113 1.376 . S
N112 C116 1.383 . S
C113 N112 1.376 . S
C113 C114 1.446 . S
C113 C143 1.391 . S
C114 C113 1.446 . S
C114 C115 1.339 . S
C114 H149 0.949 . S
C115 C114 1.339 . S
C115 C116 1.439 . S
C115 H150 0.950 . S
C116 N112 1.383 . S
C116 C115 1.439 . S
C116 C145 1.392 . S
N117 Co111 2.008 . S
N117 C118 1.376 . S
N117 C121 1.374 . S
C118 N117 1.376 . S
C118 C119 1.443 . S
C118 C145 1.389 . S
C119 C118 1.443 . S
C119 C120 1.340 . S
C119 H151 0.951 . S
C120 C119 1.340 . S
C120 C121 1.439 . S
C120 H152 0.950 . S
C121 N117 1.374 . S
C121 C120 1.439 . S
C121 C146 1.395 . S
N122 Co111 1.995 . S
N122 C123 1.376 . S
N122 C126 1.383 . S
C123 N122 1.376 . S
C123 C124 1.446 . S
C123 C146 1.391 . S
C124 C123 1.446 . S
C124 C125 1.339 . S
C124 H153 0.949 . S
C125 C124 1.339 . S
C125 C126 1.439 . S
C125 H154 0.950 . S
C126 N122 1.383 . S
C126 C125 1.439 . S
C126 C144 1.392 . S
N127 Co111 2.282 . S
N127 C130 1.332 . S
N127 C132 1.332 . S
C128 C129 1.386 . S
C128 C131 1.388 . S
C129 C128 1.386 . S
C129 C130 1.382 . S
C129 H155 0.950 . S
C130 N127 1.332 . S
C130 C129 1.382 . S
C130 H141 0.952 . S
C131 C128 1.388 . S
C131 C132 1.382 . S
C131 H156 0.950 . S
C132 N127 1.332 . S
C132 C131 1.382 . S
C132 H142 0.948 . S
N133 Co111 2.282 . S
N133 C137 1.332 . S
N133 C138 1.332 . S
C134 C135 1.388 . S
C134 C138 1.382 . S
C134 H157 0.950 . S
C135 C134 1.388 . S
C135 C136 1.386 . S
C136 C135 1.386 . S
C136 C137 1.382 . S
C136 H158 0.950 . S
C137 N133 1.332 . S
C137 C136 1.382 . S
C137 H139 0.952 . S
C138 N133 1.332 . S
C138 C134 1.382 . S
C138 H140 0.948 . S
H139 C137 0.952 . S
H140 C138 0.948 . S
H141 C130 0.952 . S
H142 C132 0.948 . S
C143 C109 1.395 . S
C143 C113 1.391 . S
C144 C106 1.389 . S
C144 C126 1.392 . S
C145 C116 1.392 . S
C145 C118 1.389 . S
C146 C121 1.395 . S
C146 C123 1.391 . S
H147 C107 0.951 . S
H148 C108 0.950 . S
H149 C114 0.949 . S
H150 C115 0.950 . S
H151 C119 0.951 . S
H152 C120 0.950 . S
H153 C124 0.949 . S
H154 C125 0.950 . S
H155 C129 0.950 . S
H156 C131 0.950 . S
H157 C134 0.950 . S
H158 C136 0.950 . S
C159 C160 1.443 . S
C159 N163 1.376 . S
C159 C197 1.389 . S
C160 C159 1.443 . S
C160 C161 1.340 . S
C160 H200 0.951 . S
C161 C160 1.340 . S
C161 C162 1.439 . S
C161 H201 0.950 . S
C162 C161 1.439 . S
C162 N163 1.374 . S
C162 C196 1.395 . S
N163 C159 1.376 . S
N163 C162 1.374 . S
N163 Co164 2.008 . S
Co164 N163 2.008 . S
Co164 N165 1.995 . S
Co164 N170 2.008 . S
Co164 N175 1.995 . S
Co164 N180 2.282 . S
Co164 N186 2.282 . S
N165 Co164 1.995 . S
N165 C166 1.376 . S
N165 C169 1.383 . S
C166 N165 1.376 . S
C166 C167 1.446 . S
C166 C196 1.391 . S
C167 C166 1.446 . S
C167 C168 1.339 . S
C167 H202 0.949 . S
C168 C167 1.339 . S
C168 C169 1.439 . S
C168 H203 0.950 . S
C169 N165 1.383 . S
C169 C168 1.439 . S
C169 C198 1.392 . S
N170 Co164 2.008 . S
N170 C171 1.376 . S
N170 C174 1.374 . S
C171 N170 1.376 . S
C171 C172 1.443 . S
C171 C198 1.389 . S
C172 C171 1.443 . S
C172 C173 1.340 . S
C172 H204 0.951 . S
C173 C172 1.340 . S
C173 C174 1.439 . S
C173 H205 0.950 . S
C174 N170 1.374 . S
C174 C173 1.439 . S
C174 C199 1.395 . S
N175 Co164 1.995 . S
N175 C176 1.376 . S
N175 C179 1.383 . S
C176 N175 1.376 . S
C176 C177 1.446 . S
C176 C199 1.391 . S
C177 C176 1.446 . S
C177 C178 1.339 . S
C177 H206 0.949 . S
C178 C177 1.339 . S
C178 C179 1.439 . S
C178 H207 0.950 . S
C179 N175 1.383 . S
C179 C178 1.439 . S
C179 C197 1.392 . S
N180 Co164 2.282 . S
N180 C183 1.332 . S
N180 C185 1.332 . S
C181 C182 1.386 . S
C181 C184 1.388 . S
C182 C181 1.386 . S
C182 C183 1.382 . S
C182 H208 0.950 . S
C183 N180 1.332 . S
C183 C182 1.382 . S
C183 H194 0.952 . S
C184 C181 1.388 . S
C184 C185 1.382 . S
C184 H209 0.950 . S
C185 N180 1.332 . S
C185 C184 1.382 . S
C185 H195 0.948 . S
N186 Co164 2.282 . S
N186 C190 1.332 . S
N186 C191 1.332 . S
C187 C188 1.388 . S
C187 C191 1.382 . S
C187 H210 0.950 . S
C188 C187 1.388 . S
C188 C189 1.386 . S
C189 C188 1.386 . S
C189 C190 1.382 . S
C189 H211 0.950 . S
C190 N186 1.332 . S
C190 C189 1.382 . S
C190 H192 0.952 . S
C191 N186 1.332 . S
C191 C187 1.382 . S
C191 H193 0.948 . S
H192 C190 0.952 . S
H193 C191 0.948 . S
H194 C183 0.952 . S
H195 C185 0.948 . S
C196 C162 1.395 . S
C196 C166 1.391 . S
C197 C159 1.389 . S
C197 C179 1.392 . S
C198 C169 1.392 . S
C198 C171 1.389 . S
C199 C174 1.395 . S
C199 C176 1.391 . S
H200 C160 0.951 . S
H201 C161 0.950 . S
H202 C167 0.949 . S
H203 C168 0.950 . S
H204 C172 0.951 . S
H205 C173 0.950 . S
H206 C177 0.949 . S
H207 C178 0.950 . S
H208 C182 0.950 . S
H209 C184 0.950 . S
H210 C187 0.950 . S
H211 C189 0.950 . S
C212 C213 1.443 . S
C212 N216 1.376 . S
C212 C250 1.389 . S
C213 C212 1.443 . S
C213 C214 1.340 . S
C213 H253 0.951 . S
C214 C213 1.340 . S
C214 C215 1.439 . S
C214 H254 0.950 . S
C215 C214 1.439 . S
C215 N216 1.374 . S
C215 C249 1.395 . S
N216 C212 1.376 . S
N216 C215 1.374 . S
N216 Co217 2.008 . S
Co217 N216 2.008 . S
Co217 N218 1.995 . S
Co217 N223 2.008 . S
Co217 N228 1.995 . S
Co217 N233 2.282 . S
Co217 N239 2.282 . S
N218 Co217 1.995 . S
N218 C219 1.376 . S
N218 C222 1.383 . S
C219 N218 1.376 . S
C219 C220 1.446 . S
C219 C249 1.391 . S
C220 C219 1.446 . S
C220 C221 1.339 . S
C220 H255 0.949 . S
C221 C220 1.339 . S
C221 C222 1.439 . S
C221 H256 0.950 . S
C222 N218 1.383 . S
C222 C221 1.439 . S
C222 C251 1.392 . S
N223 Co217 2.008 . S
N223 C224 1.376 . S
N223 C227 1.374 . S
C224 N223 1.376 . S
C224 C225 1.443 . S
C224 C251 1.389 . S
C225 C224 1.443 . S
C225 C226 1.340 . S
C225 H257 0.951 . S
C226 C225 1.340 . S
C226 C227 1.439 . S
C226 H258 0.950 . S
C227 N223 1.374 . S
C227 C226 1.439 . S
C227 C252 1.395 . S
N228 Co217 1.995 . S
N228 C229 1.376 . S
N228 C232 1.383 . S
C229 N228 1.376 . S
C229 C230 1.446 . S
C229 C252 1.391 . S
C230 C229 1.446 . S
C230 C231 1.339 1_556 S
C230 H259 0.949 . S
C231 C230 1.339 1_554 S
C231 C232 1.439 1_554 S
C231 H260 0.950 . S
C232 N228 1.383 . S
C232 C231 1.439 1_556 S
C232 C250 1.392 . S
N233 Co217 2.282 . S
N233 C236 1.332 . S
N233 C238 1.332 . S
C234 C235 1.386 . S
C234 C237 1.388 . S
C235 C234 1.386 . S
C235 C236 1.382 1_554 S
C235 H261 0.950 . S
C236 N233 1.332 . S
C236 C235 1.382 1_556 S
C236 H247 0.952 . S
C237 C234 1.388 . S
C237 C238 1.382 1_554 S
C237 H262 0.950 . S
C238 N233 1.332 . S
C238 C237 1.382 1_556 S
C238 H248 0.948 . S
N239 Co217 2.282 . S
N239 C243 1.332 . S
N239 C244 1.332 . S
C240 C241 1.388 . S
C240 C244 1.382 . S
C240 H263 0.950 . S
C241 C240 1.388 . S
C241 C242 1.386 . S
C242 C241 1.386 . S
C242 C243 1.382 . S
C242 H264 0.950 . S
C243 N239 1.332 . S
C243 C242 1.382 . S
C243 H245 0.952 . S
C244 N239 1.332 . S
C244 C240 1.382 . S
C244 H246 0.948 . S
H245 C243 0.952 . S
H246 C244 0.948 . S
H247 C236 0.952 . S
H248 C238 0.948 . S
C249 C215 1.395 . S
C249 C219 1.391 . S
C250 C212 1.389 . S
C250 C232 1.392 . S
C251 C222 1.392 . S
C251 C224 1.389 . S
C252 C227 1.395 . S
C252 C229 1.391 . S
H253 C213 0.951 . S
H254 C214 0.950 . S
H255 C220 0.949 . S
H256 C221 0.950 . S
H257 C225 0.951 . S
H258 C226 0.950 . S
H259 C230 0.949 . S
H260 C231 0.950 . S
H261 C235 0.950 . S
H262 C237 0.950 . S
H263 C240 0.950 . S
H264 C242 0.950 . S
C265 C266 1.443 . S
C265 N269 1.376 . S
C265 C303 1.389 . S
C266 C265 1.443 . S
C266 C267 1.340 . S
C266 H306 0.951 . S
C267 C266 1.340 . S
C267 C268 1.439 . S
C267 H307 0.950 . S
C268 C267 1.439 . S
C268 N269 1.374 . S
C268 C302 1.395 . S
N269 C265 1.376 . S
N269 C268 1.374 . S
N269 Co270 2.008 . S
Co270 N269 2.008 . S
Co270 N271 1.995 . S
Co270 N276 2.008 . S
Co270 N281 1.995 . S
Co270 N286 2.282 . S
Co270 N292 2.282 . S
N271 Co270 1.995 . S
N271 C272 1.376 . S
N271 C275 1.383 . S
C272 N271 1.376 . S
C272 C273 1.446 . S
C272 C302 1.391 . S
C273 C272 1.446 . S
C273 C274 1.339 . S
C273 H308 0.949 . S
C274 C273 1.339 . S
C274 C275 1.439 . S
C274 H309 0.950 . S
C275 N271 1.383 . S
C275 C274 1.439 . S
C275 C304 1.392 . S
N276 Co270 2.008 . S
N276 C277 1.376 . S
N276 C280 1.374 . S
C277 N276 1.376 . S
C277 C278 1.443 . S
C277 C304 1.389 . S
C278 C277 1.443 . S
C278 C279 1.340 . S
C278 H310 0.951 . S
C279 C278 1.340 . S
C279 C280 1.439 . S
C279 H311 0.950 . S
C280 N276 1.374 . S
C280 C279 1.439 . S
C280 C305 1.395 . S
N281 Co270 1.995 . S
N281 C282 1.376 . S
N281 C285 1.383 . S
C282 N281 1.376 . S
C282 C283 1.446 . S
C282 C305 1.391 . S
C283 C282 1.446 . S
C283 C284 1.339 . S
C283 H312 0.949 . S
C284 C283 1.339 . S
C284 C285 1.439 . S
C284 H313 0.950 . S
C285 N281 1.383 . S
C285 C284 1.439 . S
C285 C303 1.392 . S
N286 Co270 2.282 . S
N286 C289 1.332 . S
N286 C291 1.332 . S
C287 C288 1.386 . S
C287 C290 1.388 . S
C288 C287 1.386 . S
C288 C289 1.382 . S
C288 H314 0.950 . S
C289 N286 1.332 . S
C289 C288 1.382 . S
C289 H300 0.952 . S
C290 C287 1.388 . S
C290 C291 1.382 . S
C290 H315 0.950 . S
C291 N286 1.332 . S
C291 C290 1.382 . S
C291 H301 0.948 . S
N292 Co270 2.282 . S
N292 C296 1.332 . S
N292 C297 1.332 . S
C293 C294 1.388 . S
C293 C297 1.382 . S
C293 H316 0.950 . S
C294 C293 1.388 . S
C294 C295 1.386 . S
C295 C294 1.386 . S
C295 C296 1.382 . S
C295 H317 0.950 . S
C296 N292 1.332 . S
C296 C295 1.382 . S
C296 H298 0.952 . S
C297 N292 1.332 . S
C297 C293 1.382 . S
C297 H299 0.948 . S
H298 C296 0.952 . S
H299 C297 0.948 . S
H300 C289 0.952 . S
H301 C291 0.948 . S
C302 C268 1.395 . S
C302 C272 1.391 . S
C303 C265 1.389 . S
C303 C285 1.392 . S
C304 C275 1.392 . S
C304 C277 1.389 . S
C305 C280 1.395 . S
C305 C282 1.391 . S
H306 C266 0.951 . S
H307 C267 0.950 . S
H308 C273 0.949 . S
H309 C274 0.950 . S
H310 C278 0.951 . S
H311 C279 0.950 . S
H312 C283 0.949 . S
H313 C284 0.950 . S
H314 C288 0.950 . S
H315 C290 0.950 . S
H316 C293 0.950 . S
H317 C295 0.950 . S
C318 C319 1.443 . S
C318 N322 1.376 . S
C318 C356 1.389 . S
C319 C318 1.443 . S
C319 C320 1.340 . S
C319 H359 0.951 . S
C320 C319 1.340 . S
C320 C321 1.439 . S
C320 H360 0.950 . S
C321 C320 1.439 . S
C321 N322 1.374 . S
C321 C355 1.395 . S
N322 C318 1.376 . S
N322 C321 1.374 . S
N322 Co323 2.008 . S
Co323 N322 2.008 . S
Co323 N324 1.995 . S
Co323 N329 2.008 1_565 S
Co323 N334 1.995 1_565 S
Co323 N339 2.282 . S
Co323 N345 2.282 . S
N324 Co323 1.995 . S
N324 C325 1.376 . S
N324 C328 1.383 . S
C325 N324 1.376 . S
C325 C326 1.446 . S
C325 C355 1.391 . S
C326 C325 1.446 . S
C326 C327 1.339 . S
C326 H361 0.949 . S
C327 C326 1.339 . S
C327 C328 1.439 . S
C327 H362 0.950 . S
C328 N324 1.383 . S
C328 C327 1.439 . S
C328 C357 1.392 1_565 S
N329 Co323 2.008 1_545 S
N329 C330 1.376 . S
N329 C333 1.374 . S
C330 N329 1.376 . S
C330 C331 1.443 . S
C330 C357 1.389 . S
C331 C330 1.443 . S
C331 C332 1.340 . S
C331 H363 0.951 . S
C332 C331 1.340 . S
C332 C333 1.439 . S
C332 H364 0.950 . S
C333 N329 1.374 . S
C333 C332 1.439 . S
C333 C358 1.395 . S
N334 Co323 1.995 1_545 S
N334 C335 1.376 . S
N334 C338 1.383 1_545 S
C335 N334 1.376 . S
C335 C336 1.446 . S
C335 C358 1.391 . S
C336 C335 1.446 . S
C336 C337 1.339 . S
C336 H365 0.949 . S
C337 C336 1.339 . S
C337 C338 1.439 1_545 S
C337 H366 0.950 1_554 S
C338 N334 1.383 1_565 S
C338 C337 1.439 1_565 S
C338 C356 1.392 . S
N339 Co323 2.282 . S
N339 C342 1.332 1_565 S
N339 C344 1.332 . S
C340 C341 1.386 . S
C340 C343 1.388 1_545 S
C341 C340 1.386 . S
C341 C342 1.382 1_556 S
C341 H367 0.950 . S
C342 N339 1.332 1_545 S
C342 C341 1.382 1_554 S
C342 H353 0.952 . S
C343 C340 1.388 1_565 S
C343 C344 1.382 1_556 S
C343 H368 0.950 . S
C344 N339 1.332 . S
C344 C343 1.382 1_554 S
C344 H354 0.948 . S
N345 Co323 2.282 . S
N345 C349 1.332 . S
N345 C350 1.332 . S
C346 C347 1.388 . S
C346 C350 1.382 . S
C346 H369 0.950 . S
C347 C346 1.388 . S
C347 C348 1.386 . S
C348 C347 1.386 . S
C348 C349 1.382 . S
C348 H370 0.950 . S
C349 N345 1.332 . S
C349 C348 1.382 . S
C349 H351 0.952 . S
C350 N345 1.332 . S
C350 C346 1.382 . S
C350 H352 0.948 1_565 S
H351 C349 0.952 . S
H352 C350 0.948 1_545 S
H353 C342 0.952 . S
H354 C344 0.948 . S
C355 C321 1.395 . S
C355 C325 1.391 . S
C356 C318 1.389 . S
C356 C338 1.392 . S
C357 C328 1.392 1_545 S
C357 C330 1.389 . S
C358 C333 1.395 . S
C358 C335 1.391 . S
H359 C319 0.951 . S
H360 C320 0.950 . S
H361 C326 0.949 . S
H362 C327 0.950 . S
H363 C331 0.951 . S
H364 C332 0.950 . S
H365 C336 0.949 . S
H366 C337 0.950 1_556 S
H367 C341 0.950 . S
H368 C343 0.950 . S
H369 C346 0.950 . S
H370 C348 0.950 . S
C371 C372 1.443 . S
C371 N375 1.376 . S
C371 C409 1.389 . S
C372 C371 1.443 . S
C372 C373 1.340 . S
C372 H412 0.951 . S
C373 C372 1.340 . S
C373 C374 1.439 . S
C373 H413 0.950 . S
C374 C373 1.439 . S
C374 N375 1.374 . S
C374 C408 1.395 . S
N375 C371 1.376 . S
N375 C374 1.374 . S
N375 Co376 2.008 1_545 S
Co376 N375 2.008 1_565 S
Co376 N377 1.995 1_565 S
Co376 N382 2.008 . S
Co376 N387 1.995 . S
Co376 N392 2.282 1_565 S
Co376 N398 2.282 . S
N377 Co376 1.995 1_545 S
N377 C378 1.376 . S
N377 C381 1.383 . S
C378 N377 1.376 . S
C378 C379 1.446 . S
C378 C408 1.391 . S
C379 C378 1.446 . S
C379 C380 1.339 . S
C379 H414 0.949 . S
C380 C379 1.339 . S
C380 C381 1.439 . S
C380 H415 0.950 . S
C381 N377 1.383 . S
C381 C380 1.439 . S
C381 C410 1.392 1_545 S
N382 Co376 2.008 . S
N382 C383 1.376 . S
N382 C386 1.374 . S
C383 N382 1.376 . S
C383 C384 1.443 . S
C383 C410 1.389 . S
C384 C383 1.443 . S
C384 C385 1.340 . S
C384 H416 0.951 . S
C385 C384 1.340 . S
C385 C386 1.439 . S
C385 H417 0.950 . S
C386 N382 1.374 . S
C386 C385 1.439 . S
C386 C411 1.395 . S
N387 Co376 1.995 . S
N387 C388 1.376 . S
N387 C391 1.383 . S
C388 N387 1.376 . S
C388 C389 1.446 . S
C388 C411 1.391 . S
C389 C388 1.446 . S
C389 C390 1.339 . S
C389 H418 0.949 . S
C390 C389 1.339 . S
C390 C391 1.439 . S
C390 H419 0.950 . S
C391 N387 1.383 . S
C391 C390 1.439 . S
C391 C409 1.392 1_565 S
N392 Co376 2.282 1_545 S
N392 C395 1.332 1_545 S
N392 C397 1.332 . S
C393 C394 1.386 . S
C393 C396 1.388 . S
C394 C393 1.386 . S
C394 C395 1.382 1_545 S
C394 H420 0.950 1_545 S
C395 N392 1.332 1_565 S
C395 C394 1.382 1_565 S
C395 H406 0.952 . S
C396 C393 1.388 . S
C396 C397 1.382 . S
C396 H421 0.950 . S
C397 N392 1.332 . S
C397 C396 1.382 . S
C397 H407 0.948 . S
N398 Co376 2.282 . S
N398 C402 1.332 1_565 S
N398 C403 1.332 . S
C399 C400 1.388 . S
C399 C403 1.382 . S
C399 H422 0.950 . S
C400 C399 1.388 . S
C400 C401 1.386 . S
C401 C400 1.386 . S
C401 C402 1.382 1_565 S
C401 H423 0.950 1_565 S
C402 N398 1.332 1_545 S
C402 C401 1.382 1_545 S
C402 H404 0.952 . S
C403 N398 1.332 . S
C403 C399 1.382 . S
C403 H405 0.948 . S
H404 C402 0.952 . S
H405 C403 0.948 . S
H406 C395 0.952 . S
H407 C397 0.948 . S
C408 C374 1.395 . S
C408 C378 1.391 . S
C409 C371 1.389 . S
C409 C391 1.392 1_545 S
C410 C381 1.392 1_565 S
C410 C383 1.389 . S
C411 C386 1.395 . S
C411 C388 1.391 . S
H412 C372 0.951 . S
H413 C373 0.950 . S
H414 C379 0.949 . S
H415 C380 0.950 . S
H416 C384 0.951 . S
H417 C385 0.950 . S
H418 C389 0.949 . S
H419 C390 0.950 . S
H420 C394 0.950 1_565 S
H421 C396 0.950 . S
H422 C399 0.950 . S
H423 C401 0.950 1_545 S
H424 C432 0.951 . S
H425 C437 0.950 . S
H426 C434 0.950 . S
H427 C436 0.950 . S
H428 C438 0.950 . S
H429 C440 0.950 . S
H430 C442 0.950 . S
H431 C443 0.950 . S
C432 H424 0.951 . S
C432 C433 1.386 . S
C432 C434 1.391 . S
C433 C432 1.386 . S
C433 C437 1.393 . S
C434 H426 0.950 . S
C434 C432 1.391 . S
C434 C435 1.400 . S
C435 C434 1.400 . S
C435 C436 1.398 . S
C435 C441 1.491 . S
C436 H427 0.950 . S
C436 C435 1.398 . S
C436 C437 1.391 . S
C437 H425 0.950 . S
C437 C433 1.393 . S
C437 C436 1.391 . S
C438 H428 0.950 . S
C438 C439 1.386 1_556 S
C438 C440 1.391 . S
C439 C438 1.386 1_554 S
C439 C443 1.393 . S
C440 H429 0.950 . S
C440 C438 1.391 . S
C440 C441 1.400 . S
C441 C435 1.491 . S
C441 C440 1.400 . S
C441 C442 1.398 1_556 S
C442 H430 0.950 . S
C442 C441 1.398 1_554 S
C442 C443 1.391 . S
C443 H431 0.950 . S
C443 C439 1.393 . S
C443 C442 1.391 . S
H444 C452 0.950 . S
H445 C457 0.950 . S
H446 C454 0.950 . S
H447 C456 0.950 . S
H448 C458 0.950 . S
H449 C460 0.950 . S
H450 C462 0.950 . S
H451 C463 0.950 . S
C452 H444 0.950 . S
C452 C453 1.386 . S
C452 C454 1.391 . S
C453 C452 1.386 . S
C453 C457 1.393 . S
C454 H446 0.950 . S
C454 C452 1.391 . S
C454 C455 1.400 . S
C455 C454 1.400 . S
C455 C456 1.398 . S
C455 C461 1.491 . S
C456 H447 0.950 . S
C456 C455 1.398 . S
C456 C457 1.391 . S
C457 H445 0.950 . S
C457 C453 1.393 . S
C457 C456 1.391 . S
C458 H448 0.950 . S
C458 C459 1.386 1_565 S
C458 C460 1.391 . S
C459 C458 1.386 1_545 S
C459 C463 1.393 . S
C460 H449 0.950 . S
C460 C458 1.391 . S
C460 C461 1.401 1_565 S
C461 C455 1.491 . S
C461 C460 1.401 1_545 S
C461 C462 1.398 . S
C462 H450 0.950 . S
C462 C461 1.398 . S
C462 C463 1.391 . S
C463 H451 0.950 . S
C463 C459 1.393 . S
C463 C462 1.391 . S
H464 C472 0.950 . S
H465 C477 0.950 . S
H466 C474 0.950 . S
H467 C476 0.950 . S
H468 C478 0.950 . S
H469 C480 0.950 . S
H470 C482 0.950 . S
H471 C483 0.950 . S
C472 H464 0.950 . S
C472 C473 1.386 . S
C472 C474 1.391 . S
C473 C472 1.386 . S
C473 C477 1.393 . S
C474 H466 0.950 . S
C474 C472 1.391 . S
C474 C475 1.400 . S
C475 C474 1.400 . S
C475 C476 1.398 . S
C475 C481 1.491 . S
C476 H467 0.950 . S
C476 C475 1.398 . S
C476 C477 1.391 . S
C477 H465 0.950 . S
C477 C473 1.393 . S
C477 C476 1.391 . S
C478 H468 0.950 . S
C478 C479 1.386 1_554 S
C478 C480 1.391 . S
C479 C478 1.386 1_556 S
C479 C483 1.393 . S
C480 H469 0.950 . S
C480 C478 1.391 . S
C480 C481 1.400 . S
C481 C475 1.491 . S
C481 C480 1.400 . S
C481 C482 1.398 1_554 S
C482 H470 0.950 . S
C482 C481 1.398 1_556 S
C482 C483 1.391 . S
C483 H471 0.950 . S
C483 C479 1.393 . S
C483 C482 1.391 . S
H484 C492 0.950 . S
H485 C497 0.950 . S
H486 C494 0.950 . S
H487 C496 0.950 . S
H488 C498 0.950 . S
H489 C500 0.950 . S
H490 C502 0.950 . S
H491 C503 0.950 . S
C492 H484 0.950 . S
C492 C493 1.386 . S
C492 C494 1.391 . S
C493 C492 1.386 . S
C493 C497 1.393 . S
C494 H486 0.950 . S
C494 C492 1.391 . S
C494 C495 1.400 . S
C495 C494 1.400 . S
C495 C496 1.398 . S
C495 C501 1.491 . S
C496 H487 0.950 . S
C496 C495 1.398 . S
C496 C497 1.391 . S
C497 H485 0.950 . S
C497 C493 1.393 . S
C497 C496 1.391 . S
C498 H488 0.950 . S
C498 C499 1.386 . S
C498 C500 1.391 . S
C499 C498 1.386 . S
C499 C503 1.393 . S
C500 H489 0.950 . S
C500 C498 1.391 . S
C500 C501 1.400 . S
C501 C495 1.491 . S
C501 C500 1.400 . S
C501 C502 1.398 . S
C502 H490 0.950 . S
C502 C501 1.398 . S
C502 C503 1.391 . S
C503 H491 0.950 . S
C503 C499 1.393 . S
C503 C502 1.391 . S
H504 C512 0.950 . S
H505 C517 0.950 . S
H506 C514 0.950 . S
H507 C516 0.950 . S
H508 C518 0.950 . S
H509 C520 0.950 . S
H510 C522 0.950 . S
H511 C523 0.950 . S
C512 H504 0.950 . S
C512 C513 1.386 . S
C512 C514 1.391 . S
C513 C512 1.386 . S
C513 C517 1.393 . S
C514 H506 0.950 . S
C514 C512 1.391 . S
C514 C515 1.400 . S
C515 C514 1.400 . S
C515 C516 1.398 . S
C515 C521 1.491 . S
C516 H507 0.950 . S
C516 C515 1.398 . S
C516 C517 1.391 . S
C517 H505 0.950 . S
C517 C513 1.393 . S
C517 C516 1.391 . S
C518 H508 0.950 . S
C518 C519 1.386 . S
C518 C520 1.391 . S
C519 C518 1.386 . S
C519 C523 1.393 . S
C520 H509 0.950 . S
C520 C518 1.391 . S
C520 C521 1.400 . S
C521 C515 1.491 . S
C521 C520 1.400 . S
C521 C522 1.398 . S
C522 H510 0.950 . S
C522 C521 1.398 . S
C522 C523 1.391 . S
C523 H511 0.950 . S
C523 C519 1.393 . S
C523 C522 1.391 . S
H524 C532 0.950 . S
H525 C537 0.950 . S
H526 C534 0.950 . S
H527 C536 0.950 . S
H528 C538 0.950 . S
H529 C540 0.950 . S
H530 C542 0.950 . S
H531 C543 0.950 . S
C532 H524 0.950 . S
C532 C533 1.386 . S
C532 C534 1.391 . S
C533 C532 1.386 . S
C533 C537 1.393 . S
C534 H526 0.950 . S
C534 C532 1.391 . S
C534 C535 1.400 . S
C535 C534 1.400 . S
C535 C536 1.398 . S
C535 C541 1.491 . S
C536 H527 0.950 . S
C536 C535 1.398 . S
C536 C537 1.391 . S
C537 H525 0.950 . S
C537 C533 1.393 . S
C537 C536 1.391 . S
C538 H528 0.950 . S
C538 C539 1.386 . S
C538 C540 1.391 . S
C539 C538 1.386 . S
C539 C543 1.393 . S
C540 H529 0.950 . S
C540 C538 1.391 . S
C540 C541 1.400 . S
C541 C535 1.491 . S
C541 C540 1.400 . S
C541 C542 1.398 . S
C542 H530 0.950 . S
C542 C541 1.398 . S
C542 C543 1.391 . S
C543 H531 0.950 . S
C543 C539 1.393 . S
C543 C542 1.391 . S
H544 C552 0.950 . S
H545 C557 0.950 . S
H546 C554 0.950 . S
H547 C556 0.950 . S
H548 C558 0.950 . S
H549 C560 0.950 . S
H550 C562 0.950 . S
H551 C563 0.950 . S
C552 H544 0.950 . S
C552 C553 1.386 1_565 S
C552 C554 1.391 . S
C553 C552 1.386 1_545 S
C553 C557 1.393 . S
C554 H546 0.950 . S
C554 C552 1.391 . S
C554 C555 1.400 1_565 S
C555 C554 1.400 1_545 S
C555 C556 1.398 . S
C555 C561 1.491 1_545 S
C556 H547 0.950 . S
C556 C555 1.398 . S
C556 C557 1.391 . S
C557 H545 0.950 . S
C557 C553 1.393 . S
C557 C556 1.391 . S
C558 H548 0.950 . S
C558 C559 1.386 1_545 S
C558 C560 1.391 . S
C559 C558 1.386 1_565 S
C559 C563 1.393 . S
C560 H549 0.950 . S
C560 C558 1.391 . S
C560 C561 1.400 1_545 S
C561 C555 1.491 1_565 S
C561 C560 1.400 1_565 S
C561 C562 1.398 . S
C562 H550 0.950 . S
C562 C561 1.398 . S
C562 C563 1.391 . S
C563 H551 0.950 . S
C563 C559 1.393 . S
C563 C562 1.391 . S
H564 C572 0.950 . S
H565 C577 0.950 1_565 S
H566 C574 0.950 . S
H567 C576 0.950 1_565 S
H568 C578 0.950 . S
H569 C580 0.950 1_565 S
H570 C582 0.950 . S
H571 C583 0.950 . S
C572 H564 0.950 . S
C572 C573 1.386 . S
C572 C574 1.391 . S
C573 C572 1.386 . S
C573 C577 1.393 . S
C574 H566 0.950 . S
C574 C572 1.391 . S
C574 C575 1.400 . S
C575 C574 1.400 . S
C575 C576 1.398 . S
C575 C581 1.491 . S
C576 H567 0.950 1_545 S
C576 C575 1.398 . S
C576 C577 1.391 . S
C577 H565 0.950 1_545 S
C577 C573 1.393 . S
C577 C576 1.391 . S
C578 H568 0.950 . S
C578 C579 1.386 . S
C578 C580 1.391 . S
C579 C578 1.386 . S
C579 C583 1.393 . S
C580 H569 0.950 1_545 S
C580 C578 1.391 . S
C580 C581 1.400 . S
C581 C575 1.491 . S
C581 C580 1.400 . S
C581 C582 1.398 . S
C582 H570 0.950 . S
C582 C581 1.398 . S
C582 C583 1.391 . S
C583 H571 0.950 . S
C583 C579 1.393 . S
C583 C582 1.391 . S
H584 C592 0.950 1_565 S
H585 C597 0.950 . S
H586 C594 0.950 1_655 S
H587 C596 0.950 . S
H588 C598 0.950 . S
H589 C600 0.950 . S
H590 C602 0.950 . S
H591 C603 0.950 . S
C592 H584 0.950 1_545 S
C592 C593 1.386 . S
C592 C594 1.391 . S
C593 C592 1.386 . S
C593 C597 1.393 . S
C594 H586 0.950 1_455 S
C594 C592 1.391 . S
C594 C595 1.400 . S
C595 C594 1.400 . S
C595 C596 1.398 . S
C595 C601 1.491 1_455 S
C596 H587 0.950 . S
C596 C595 1.398 . S
C596 C597 1.391 . S
C597 H585 0.950 . S
C597 C593 1.393 . S
C597 C596 1.391 . S
C598 H588 0.950 . S
C598 C599 1.386 . S
C598 C600 1.391 . S
C599 C598 1.386 . S
C599 C603 1.393 . S
C600 H589 0.950 . S
C600 C598 1.391 . S
C600 C601 1.400 . S
C601 C595 1.491 1_655 S
C601 C600 1.400 . S
C601 C602 1.398 . S
C602 H590 0.950 . S
C602 C601 1.398 . S
C602 C603 1.391 . S
C603 H591 0.950 . S
C603 C599 1.393 . S
C603 C602 1.391 . S
H604 C612 0.950 . S
H605 C617 0.950 . S
H606 C614 0.950 . S
H607 C616 0.950 . S
H608 C618 0.950 . S
H609 C620 0.950 . S
H610 C622 0.950 . S
H611 C623 0.950 . S
C612 H604 0.950 . S
C612 C613 1.386 . S
C612 C614 1.391 . S
C613 C612 1.386 . S
C613 C617 1.393 . S
C614 H606 0.950 . S
C614 C612 1.391 . S
C614 C615 1.400 . S
C615 C614 1.400 . S
C615 C616 1.398 . S
C615 C621 1.491 . S
C616 H607 0.950 . S
C616 C615 1.398 . S
C616 C617 1.391 . S
C617 H605 0.950 . S
C617 C613 1.393 . S
C617 C616 1.391 . S
C618 H608 0.950 . S
C618 C619 1.386 . S
C618 C620 1.391 . S
C619 C618 1.386 . S
C619 C623 1.393 . S
C620 H609 0.950 . S
C620 C618 1.391 . S
C620 C621 1.400 . S
C621 C615 1.491 . S
C621 C620 1.400 . S
C621 C622 1.398 . S
C622 H610 0.950 . S
C622 C621 1.398 . S
C622 C623 1.391 . S
C623 H611 0.950 . S
C623 C619 1.393 . S
C623 C622 1.391 . S
H624 C632 0.950 . S
H625 C637 0.950 . S
H626 C634 0.950 . S
H627 C636 0.950 1_655 S
H628 C638 0.950 . S
H629 C640 0.950 . S
H630 C642 0.950 . S
H631 C643 0.950 . S
C632 H624 0.950 . S
C632 C633 1.386 . S
C632 C634 1.391 . S
C633 C632 1.386 . S
C633 C637 1.393 . S
C634 H626 0.950 . S
C634 C632 1.391 . S
C634 C635 1.400 . S
C635 C634 1.400 . S
C635 C636 1.398 . S
C635 C641 1.491 1_455 S
C636 H627 0.950 1_455 S
C636 C635 1.398 . S
C636 C637 1.391 . S
C637 H625 0.950 . S
C637 C633 1.393 . S
C637 C636 1.391 . S
C638 H628 0.950 . S
C638 C639 1.386 . S
C638 C640 1.391 . S
C639 C638 1.386 . S
C639 C643 1.393 . S
C640 H629 0.950 . S
C640 C638 1.391 . S
C640 C641 1.400 . S
C641 C635 1.491 1_655 S
C641 C640 1.400 . S
C641 C642 1.398 1_655 S
C642 H630 0.950 . S
C642 C641 1.398 1_455 S
C642 C643 1.391 1_455 S
C643 H631 0.950 . S
C643 C639 1.393 . S
C643 C642 1.391 1_655 S
H644 C652 0.950 . S
H645 C657 0.950 . S
H646 C654 0.950 . S
H647 C656 0.950 . S
H648 C658 0.950 . S
H649 C660 0.950 . S
H650 C662 0.950 . S
H651 C663 0.950 . S
C652 H644 0.950 . S
C652 C653 1.386 . S
C652 C654 1.391 . S
C653 C652 1.386 . S
C653 C657 1.393 . S
C654 H646 0.950 . S
C654 C652 1.391 . S
C654 C655 1.400 . S
C655 C654 1.400 . S
C655 C656 1.398 . S
C655 C661 1.491 . S
C656 H647 0.950 . S
C656 C655 1.398 . S
C656 C657 1.391 . S
C657 H645 0.950 . S
C657 C653 1.393 . S
C657 C656 1.391 . S
C658 H648 0.950 . S
C658 C659 1.386 . S
C658 C660 1.391 . S
C659 C658 1.386 . S
C659 C663 1.393 . S
C660 H649 0.950 . S
C660 C658 1.391 . S
C660 C661 1.400 . S
C661 C655 1.491 . S
C661 C660 1.400 . S
C661 C662 1.398 . S
C662 H650 0.950 . S
C662 C661 1.398 . S
C662 C663 1.391 . S
C663 H651 0.950 . S
C663 C659 1.393 . S
C663 C662 1.391 . S
H664 C672 0.950 . S
H665 C677 0.950 . S
H666 C674 0.950 . S
H667 C676 0.950 . S
H668 C678 0.950 . S
H669 C680 0.950 . S
H670 C682 0.950 . S
H671 C683 0.950 . S
C672 H664 0.950 . S
C672 C673 1.386 1_556 S
C672 C674 1.391 1_455 S
C673 C672 1.386 1_554 S
C673 C677 1.393 . S
C674 H666 0.950 . S
C674 C672 1.391 1_655 S
C674 C675 1.400 1_556 S
C675 C674 1.400 1_554 S
C675 C676 1.398 1_655 S
C675 C681 1.491 . S
C676 H667 0.950 . S
C676 C675 1.398 1_455 S
C676 C677 1.391 . S
C677 H665 0.950 . S
C677 C673 1.393 . S
C677 C676 1.391 . S
C678 H668 0.950 . S
C678 C679 1.386 . S
C678 C680 1.391 . S
C679 C678 1.386 . S
C679 C683 1.393 1_554 S
C680 H669 0.950 . S
C680 C678 1.391 . S
C680 C681 1.400 . S
C681 C675 1.491 . S
C681 C680 1.400 . S
C681 C682 1.398 1_554 S
C682 H670 0.950 . S
C682 C681 1.398 1_556 S
C682 C683 1.391 . S
C683 H671 0.950 . S
C683 C679 1.393 1_556 S
C683 C682 1.391 . S
H684 C692 0.950 . S
H685 C697 0.950 . S
H686 C694 0.950 . S
H687 C696 0.950 . S
H688 C698 0.950 . S
H689 C700 0.950 . S
H690 C702 0.950 . S
H691 C703 0.950 . S
C692 H684 0.950 . S
C692 C693 1.386 . S
C692 C694 1.391 . S
C693 C692 1.386 . S
C693 C697 1.393 . S
C694 H686 0.950 . S
C694 C692 1.391 . S
C694 C695 1.400 . S
C695 C694 1.400 . S
C695 C696 1.398 . S
C695 C701 1.491 . S
C696 H687 0.950 . S
C696 C695 1.398 . S
C696 C697 1.391 . S
C697 H685 0.950 . S
C697 C693 1.393 . S
C697 C696 1.391 . S
C698 H688 0.950 . S
C698 C699 1.386 . S
C698 C700 1.391 . S
C699 C698 1.386 . S
C699 C703 1.393 . S
C700 H689 0.950 . S
C700 C698 1.391 . S
C700 C701 1.400 . S
C701 C695 1.491 . S
C701 C700 1.400 . S
C701 C702 1.398 . S
C702 H690 0.950 . S
C702 C701 1.398 . S
C702 C703 1.391 . S
C703 H691 0.950 . S
C703 C699 1.393 . S
C703 C702 1.391 . S
H704 C712 0.950 . S
H705 C717 0.950 . S
H706 C714 0.950 . S
H707 C716 0.950 . S
H708 C718 0.950 . S
H709 C720 0.950 . S
H710 C722 0.950 . S
H711 C723 0.950 . S
C712 H704 0.950 . S
C712 C713 1.386 1_554 S
C712 C714 1.391 . S
C713 C712 1.386 1_556 S
C713 C717 1.393 . S
C714 H706 0.950 . S
C714 C712 1.391 . S
C714 C715 1.400 1_554 S
C715 C714 1.400 1_556 S
C715 C716 1.398 . S
C715 C721 1.491 . S
C716 H707 0.950 . S
C716 C715 1.398 . S
C716 C717 1.391 . S
C717 H705 0.950 . S
C717 C713 1.393 . S
C717 C716 1.391 . S
C718 H708 0.950 . S
C718 C719 1.386 . S
C718 C720 1.391 . S
C719 C718 1.386 . S
C719 C723 1.393 1_556 S
C720 H709 0.950 . S
C720 C718 1.391 . S
C720 C721 1.400 . S
C721 C715 1.491 . S
C721 C720 1.400 . S
C721 C722 1.398 1_556 S
C722 H710 0.950 . S
C722 C721 1.398 1_554 S
C722 C723 1.391 . S
C723 H711 0.950 . S
C723 C719 1.393 1_554 S
C723 C722 1.391 . S
H724 C732 0.950 . S
H725 C737 0.950 1_565 S
H726 C734 0.950 . S
H727 C736 0.950 . S
H728 C738 0.950 . S
H729 C740 0.950 . S
H730 C742 0.950 1_455 S
H731 C743 0.950 . S
C732 H724 0.950 . S
C732 C733 1.386 . S
C732 C734 1.391 . S
C733 C732 1.386 . S
C733 C737 1.393 . S
C734 H726 0.950 . S
C734 C732 1.391 . S
C734 C735 1.400 . S
C735 C734 1.400 . S
C735 C736 1.398 . S
C735 C741 1.470 1_455 S
C736 H727 0.950 . S
C736 C735 1.398 . S
C736 C737 1.391 . S
C737 H725 0.950 1_545 S
C737 C733 1.393 . S
C737 C736 1.391 . S
C738 H728 0.950 . S
C738 C739 1.386 . S
C738 C740 1.391 . S
C739 C738 1.386 . S
C739 C743 1.393 . S
C740 H729 0.950 . S
C740 C738 1.391 . S
C740 C741 1.420 . S
C741 C735 1.470 1_655 S
C741 C740 1.420 . S
C741 C742 1.400 . S
C742 H730 0.950 1_655 S
C742 C741 1.400 . S
C742 C743 1.391 . S
C743 H731 0.950 . S
C743 C739 1.393 . S
C743 C742 1.391 . S
C433 C75 2.044 . S
C439 C39 2.030 . S
C453 C22 2.217 . S
C459 C92 2.248 1_545 S
C473 C181 2.050 . S
C479 C145 2.035 . S
C493 C128 2.179 . S
C499 C198 2.206 . S
C513 C234 1.983 . S
C519 C304 2.001 . S
C533 C287 2.142 . S
C539 C251 2.160 . S
C553 C340 2.027 . S
C559 C410 2.047 . S
C573 C357 2.142 . S
C579 C393 2.113 . S
C593 C38 1.562 . S
C599 C197 1.548 . S
C613 C91 1.614 . S
C619 C144 1.628 . S
C633 C400 1.522 . S
C639 C241 1.533 . S
C653 C347 1.591 . S
C659 C294 1.579 . S
C673 C29 1.651 . S
C679 C250 1.639 1_554 S
C693 C303 1.309 . S
C699 C82 1.300 . S
C713 C356 1.530 1_556 S
C719 C135 1.545 . S
C733 C409 1.382 . S
C739 C188 1.375 . S
