# Generated by pormake.
# Topology svo, (7)-cn, num edge types: 1
# Building blocks:
#     Node 0, Type 0, BuildingBlock: NUHQUE_clean_sbu_2, # of connection points: 7
#     Node 1, Type 0, BuildingBlock: NUHQUE_clean_sbu_2, # of connection points: 7
#     Node 2, Type 0, BuildingBlock: NUHQUE_clean_sbu_2, # of connection points: 7
#     Node 3, Type 0, BuildingBlock: NUHQUE_clean_sbu_2, # of connection points: 7
#     Node 4, Type 0, BuildingBlock: NUHQUE_clean_sbu_2, # of connection points: 7
#     Node 5, Type 0, BuildingBlock: NUHQUE_clean_sbu_2, # of connection points: 7
#     Node 6, Type 0, BuildingBlock: NUHQUE_clean_sbu_2, # of connection points: 7
#     Node 7, Type 0, BuildingBlock: NUHQUE_clean_sbu_2, # of connection points: 7
#     Node 8, Type 0, BuildingBlock: NUHQUE_clean_sbu_2, # of connection points: 7
#     Node 9, Type 0, BuildingBlock: NUHQUE_clean_sbu_2, # of connection points: 7
#     Node 10, Type 0, BuildingBlock: NUHQUE_clean_sbu_2, # of connection points: 7
#     Node 11, Type 0, BuildingBlock: NUHQUE_clean_sbu_2, # of connection points: 7
#     Node 12, Type 0, BuildingBlock: NUHQUE_clean_sbu_2, # of connection points: 7
#     Node 13, Type 0, BuildingBlock: NUHQUE_clean_sbu_2, # of connection points: 7
#     Node 14, Type 0, BuildingBlock: NUHQUE_clean_sbu_2, # of connection points: 7
#     Node 15, Type 0, BuildingBlock: NUHQUE_clean_sbu_2, # of connection points: 7
#     Edge 16, Type (0, 0), BuildingBlock: AJUNOK_clean_linker_0, # of connection points: 2
#     Edge 17, Type (0, 0), BuildingBlock: AJUNOK_clean_linker_0, # of connection points: 2
#     Edge 18, Type (0, 0), BuildingBlock: AJUNOK_clean_linker_0, # of connection points: 2
#     Edge 19, Type (0, 0), BuildingBlock: AJUNOK_clean_linker_0, # of connection points: 2
#     Edge 20, Type (0, 0), BuildingBlock: AJUNOK_clean_linker_0, # of connection points: 2
#     Edge 21, Type (0, 0), BuildingBlock: AJUNOK_clean_linker_0, # of connection points: 2
#     Edge 22, Type (0, 0), BuildingBlock: AJUNOK_clean_linker_0, # of connection points: 2
#     Edge 23, Type (0, 0), BuildingBlock: AJUNOK_clean_linker_0, # of connection points: 2
#     Edge 24, Type (0, 0), BuildingBlock: AJUNOK_clean_linker_0, # of connection points: 2
#     Edge 25, Type (0, 0), BuildingBlock: AJUNOK_clean_linker_0, # of connection points: 2
#     Edge 26, Type (0, 0), BuildingBlock: AJUNOK_clean_linker_0, # of connection points: 2
#     Edge 27, Type (0, 0), BuildingBlock: AJUNOK_clean_linker_0, # of connection points: 2
#     Edge 28, Type (0, 0), BuildingBlock: AJUNOK_clean_linker_0, # of connection points: 2
#     Edge 29, Type (0, 0), BuildingBlock: AJUNOK_clean_linker_0, # of connection points: 2
#     Edge 30, Type (0, 0), BuildingBlock: AJUNOK_clean_linker_0, # of connection points: 2
#     Edge 31, Type (0, 0), BuildingBlock: AJUNOK_clean_linker_0, # of connection points: 2
#     Edge 32, Type (0, 0), BuildingBlock: AJUNOK_clean_linker_0, # of connection points: 2
#     Edge 33, Type (0, 0), BuildingBlock: AJUNOK_clean_linker_0, # of connection points: 2
#     Edge 34, Type (0, 0), BuildingBlock: AJUNOK_clean_linker_0, # of connection points: 2
#     Edge 35, Type (0, 0), BuildingBlock: AJUNOK_clean_linker_0, # of connection points: 2
#     Edge 36, Type (0, 0), BuildingBlock: AJUNOK_clean_linker_0, # of connection points: 2
#     Edge 37, Type (0, 0), BuildingBlock: AJUNOK_clean_linker_0, # of connection points: 2
#     Edge 38, Type (0, 0), BuildingBlock: AJUNOK_clean_linker_0, # of connection points: 2
#     Edge 39, Type (0, 0), BuildingBlock: AJUNOK_clean_linker_0, # of connection points: 2
#     Edge 40, Type (0, 0), BuildingBlock: AJUNOK_clean_linker_0, # of connection points: 2
#     Edge 41, Type (0, 0), BuildingBlock: AJUNOK_clean_linker_0, # of connection points: 2
#     Edge 42, Type (0, 0), BuildingBlock: AJUNOK_clean_linker_0, # of connection points: 2
#     Edge 43, Type (0, 0), BuildingBlock: AJUNOK_clean_linker_0, # of connection points: 2
#     Edge 44, Type (0, 0), BuildingBlock: AJUNOK_clean_linker_0, # of connection points: 2
#     Edge 45, Type (0, 0), BuildingBlock: AJUNOK_clean_linker_0, # of connection points: 2
#     Edge 46, Type (0, 0), BuildingBlock: AJUNOK_clean_linker_0, # of connection points: 2
#     Edge 47, Type (0, 0), BuildingBlock: AJUNOK_clean_linker_0, # of connection points: 2
#     Edge 48, Type (0, 0), BuildingBlock: AJUNOK_clean_linker_0, # of connection points: 2
#     Edge 49, Type (0, 0), BuildingBlock: AJUNOK_clean_linker_0, # of connection points: 2
#     Edge 50, Type (0, 0), BuildingBlock: AJUNOK_clean_linker_0, # of connection points: 2
#     Edge 51, Type (0, 0), BuildingBlock: AJUNOK_clean_linker_0, # of connection points: 2
#     Edge 52, Type (0, 0), BuildingBlock: AJUNOK_clean_linker_0, # of connection points: 2
#     Edge 53, Type (0, 0), BuildingBlock: AJUNOK_clean_linker_0, # of connection points: 2
#     Edge 54, Type (0, 0), BuildingBlock: AJUNOK_clean_linker_0, # of connection points: 2
#     Edge 55, Type (0, 0), BuildingBlock: AJUNOK_clean_linker_0, # of connection points: 2
#     Edge 56, Type (0, 0), BuildingBlock: AJUNOK_clean_linker_0, # of connection points: 2
#     Edge 57, Type (0, 0), BuildingBlock: AJUNOK_clean_linker_0, # of connection points: 2
#     Edge 58, Type (0, 0), BuildingBlock: AJUNOK_clean_linker_0, # of connection points: 2
#     Edge 59, Type (0, 0), BuildingBlock: AJUNOK_clean_linker_0, # of connection points: 2
#     Edge 60, Type (0, 0), BuildingBlock: AJUNOK_clean_linker_0, # of connection points: 2
#     Edge 61, Type (0, 0), BuildingBlock: AJUNOK_clean_linker_0, # of connection points: 2
#     Edge 62, Type (0, 0), BuildingBlock: AJUNOK_clean_linker_0, # of connection points: 2
#     Edge 63, Type (0, 0), BuildingBlock: AJUNOK_clean_linker_0, # of connection points: 2
#     Edge 64, Type (0, 0), BuildingBlock: AJUNOK_clean_linker_0, # of connection points: 2
#     Edge 65, Type (0, 0), BuildingBlock: AJUNOK_clean_linker_0, # of connection points: 2
#     Edge 66, Type (0, 0), BuildingBlock: AJUNOK_clean_linker_0, # of connection points: 2
#     Edge 67, Type (0, 0), BuildingBlock: AJUNOK_clean_linker_0, # of connection points: 2
#     Edge 68, Type (0, 0), BuildingBlock: AJUNOK_clean_linker_0, # of connection points: 2
#     Edge 69, Type (0, 0), BuildingBlock: AJUNOK_clean_linker_0, # of connection points: 2
#     Edge 70, Type (0, 0), BuildingBlock: AJUNOK_clean_linker_0, # of connection points: 2
#     Edge 71, Type (0, 0), BuildingBlock: AJUNOK_clean_linker_0, # of connection points: 2
# Relax obj value: 0.160
# Max RMSD: 0.273
# Mean RMSD: 0.273
data_MOF--net-svo--node1-NUHQUE_clean_sbu_2--edge1-AJUNOK_clean_linker_0
_symmetry_space_group_name_H-M    P1
_symmetry_Int_Tables_number       1
_symmetry_cell_setting            triclinic
loop_
_symmetry_equiv_pos_as_xyz
'x, y, z'
_cell_length_a     30.329104
_cell_length_b     30.396541
_cell_length_c     40.584338
_cell_angle_alpha  90.274251
_cell_angle_beta   89.961284
_cell_angle_gamma 89.928542
loop_
_atom_site_label
_atom_site_type_symbol
_atom_site_fract_x
_atom_site_fract_y
_atom_site_fract_z
_atom_type_partial_charge
O0 O 0.25782 0.19201 0.12431 0.0
Tb1 Tb 0.26649 0.26123 0.13556 0.0
Eu2 Eu 0.2237 0.3694 0.14354 0.0
C3 C 0.25454 0.16185 0.14723 0.0
O4 O 0.25297 0.17423 0.17828 0.0
C5 C 0.26062 0.31032 0.19997 0.0
O6 O 0.23925 0.44203 0.13776 0.0
C7 C 0.1405 0.35462 0.15599 0.0
C8 C 0.22103 0.46589 0.11441 0.0
O9 O 0.19247 0.44704 0.09453 0.0
C10 C 0.22621 0.3139 0.07762 0.0
C11 C 0.09588 0.35979 0.1412 0.0
C12 C 0.06528 0.3246 0.14185 0.0
C13 C 0.02194 0.33059 0.12999 0.0
C14 C 0.00928 0.37191 0.11828 0.0
C15 C 0.0384 0.40745 0.11877 0.0
C16 C 0.08196 0.40109 0.12941 0.0
O17 O 0.24164 0.27796 0.18398 0.0
O18 O 0.26835 0.34764 0.18491 0.0
O19 O 0.33437 0.24386 0.14769 0.0
O20 O 0.32343 0.29728 0.11516 0.0
C21 C 0.35354 0.27369 0.12991 0.0
O22 O 0.23859 0.35158 0.09076 0.0
O23 O 0.22266 0.27812 0.09542 0.0
O24 O 0.1614 0.39076 0.16468 0.0
O25 O 0.16685 0.32478 0.14314 0.0
H26 H 0.0748 0.29315 0.15213 0.0
H27 H 0.97548 0.37712 0.11041 0.0
H28 H 0.10416 0.42899 0.13024 0.0
O29 O 0.82594 0.24589 0.11602 0.0
Tb30 Tb 0.75458 0.25678 0.11659 0.0
Eu31 Eu 0.64114 0.22989 0.12517 0.0
C32 C 0.85064 0.25418 0.14206 0.0
O33 O 0.83107 0.26345 0.17013 0.0
C34 C 0.7059 0.26267 0.18192 0.0
O35 O 0.57213 0.25878 0.12939 0.0
C36 C 0.63614 0.14811 0.14361 0.0
C37 C 0.54253 0.25861 0.1056 0.0
O38 O 0.55421 0.24575 0.07591 0.0
C39 C 0.69856 0.21764 0.05948 0.0
C40 C 0.63031 0.10157 0.13314 0.0
C41 C 0.66489 0.07132 0.13819 0.0
C42 C 0.65796 0.02626 0.13285 0.0
C43 C 0.61667 0.01125 0.1225 0.0
C44 C 0.58133 0.04025 0.11855 0.0
C45 C 0.58843 0.08561 0.12331 0.0
O46 O 0.73896 0.2427 0.16728 0.0
O47 O 0.6691 0.27188 0.16625 0.0
O48 O 0.78222 0.3209 0.10465 0.0
O49 O 0.71305 0.31573 0.11055 0.0
C50 C 0.74546 0.34275 0.10465 0.0
O51 O 0.66175 0.23482 0.0715 0.0
O52 O 0.73367 0.21177 0.07801 0.0
O53 O 0.60199 0.17435 0.14079 0.0
O54 O 0.67399 0.16788 0.13787 0.0
H55 H 0.69645 0.08247 0.14755 0.0
H56 H 0.6114 0.97618 0.11925 0.0
H57 H 0.5607 0.10794 0.12134 0.0
O58 O 0.74253 0.83356 0.13121 0.0
Tb59 Tb 0.72504 0.76504 0.12434 0.0
Eu60 Eu 0.7897 0.62842 0.11364 0.0
C61 C 0.72478 0.85688 0.15507 0.0
O62 O 0.70097 0.83656 0.17735 0.0
C63 C 0.75397 0.687 0.16782 0.0
O64 O 0.7832 0.55491 0.10669 0.0
C65 C 0.87017 0.65574 0.10733 0.0
C66 C 0.74485 0.53469 0.10769 0.0
O67 O 0.70897 0.55813 0.11243 0.0
C68 C 0.76164 0.70831 0.06894 0.0
C69 C 0.91643 0.64219 0.10719 0.0
C70 C 0.94862 0.67458 0.11204 0.0
C71 C 0.99298 0.66271 0.11392 0.0
C72 C 1.00537 0.61862 0.11056 0.0
C73 C 0.97362 0.58587 0.10537 0.0
C74 C 0.92882 0.59781 0.10389 0.0
O75 O 0.76503 0.71221 0.14323 0.0
O76 O 0.76296 0.64503 0.16433 0.0
O77 O 0.66218 0.75468 0.1496 0.0
O78 O 0.66434 0.75496 0.09699 0.0
C79 C 0.63896 0.75096 0.12263 0.0
O80 O 0.7451 0.67594 0.08668 0.0
O81 O 0.75293 0.74942 0.07693 0.0
O82 O 0.84973 0.65367 0.1358 0.0
O83 O 0.84576 0.64332 0.08221 0.0
H84 H 0.93914 0.70879 0.11504 0.0
H85 H 0.03984 0.60973 0.11319 0.0
H86 H 0.90374 0.57278 0.10065 0.0
O87 O 0.17954 0.75845 0.10787 0.0
Tb88 Tb 0.24912 0.74362 0.1052 0.0
Eu89 Eu 0.35336 0.78824 0.11778 0.0
C90 C 0.15732 0.7465 0.13413 0.0
O91 O 0.17928 0.73131 0.15954 0.0
C92 C 0.29158 0.75308 0.17131 0.0
O93 O 0.42682 0.78141 0.12164 0.0
C94 C 0.33497 0.87001 0.13162 0.0
C95 C 0.44929 0.75006 0.10697 0.0
O96 O 0.42915 0.72262 0.08693 0.0
C97 C 0.30876 0.77653 0.04654 0.0
C98 C 0.34676 0.91531 0.12164 0.0
C99 C 0.3146 0.94861 0.12359 0.0
C100 C 0.32614 0.99261 0.11792 0.0
C101 C 0.36992 1.00338 0.11062 0.0
C102 C 0.40274 0.97103 0.10924 0.0
C103 C 0.39084 0.92676 0.11435 0.0
O104 O 0.26028 0.77082 0.15378 0.0
O105 O 0.32876 0.74238 0.15704 0.0
O106 O 0.2187 0.68086 0.09223 0.0
O107 O 0.28227 0.67994 0.11383 0.0
C108 C 0.25017 0.65547 0.1026 0.0
O109 O 0.34595 0.77346 0.06332 0.0
O110 O 0.26976 0.77701 0.06078 0.0
O111 O 0.36616 0.84733 0.14609 0.0
O112 O 0.31078 0.84614 0.11148 0.0
H113 H 0.28106 0.94056 0.13058 0.0
H114 H 0.37891 0.03778 0.10849 0.0
H115 H 0.41616 0.90158 0.11401 0.0
O116 O 0.25172 0.83718 0.38675 0.0
Tb117 Tb 0.26406 0.76822 0.377 0.0
Eu118 Eu 0.22037 0.66475 0.36403 0.0
C119 C 0.25453 0.86642 0.36315 0.0
O120 O 0.25756 0.85261 0.33253 0.0
C121 C 0.25732 0.72632 0.31014 0.0
O122 O 0.22751 0.59113 0.36214 0.0
C123 C 0.13892 0.6828 0.34886 0.0
C124 C 0.26129 0.57039 0.37503 0.0
O125 O 0.29097 0.59273 0.39168 0.0
C126 C 0.22536 0.71093 0.43443 0.0
C127 C 0.09336 0.66991 0.35758 0.0
C128 C 0.05956 0.7016 0.35646 0.0
C129 C 0.01548 0.68905 0.36113 0.0
C130 C 1.00517 0.64478 0.36644 0.0
C131 C 0.03809 0.6125 0.36662 0.0
C132 C 0.08241 0.62542 0.36306 0.0
O133 O 0.2408 0.75908 0.3272 0.0
O134 O 0.26708 0.68961 0.32532 0.0
O135 O 0.32908 0.79865 0.37773 0.0
O136 O 0.32555 0.7292 0.38043 0.0
C137 C 0.35235 0.76291 0.37939 0.0
O138 O 0.23385 0.6739 0.41855 0.0
O139 O 0.22509 0.74919 0.41947 0.0
O140 O 0.16274 0.65267 0.33396 0.0
O141 O 0.16156 0.70623 0.37024 0.0
H142 H 0.06732 0.73561 0.35103 0.0
H143 H 0.97083 0.6351 0.36824 0.0
H144 H 0.10815 0.60066 0.36329 0.0
O145 O 0.18556 0.27606 0.36704 0.0
Tb146 Tb 0.25443 0.29373 0.37087 0.0
Eu147 Eu 0.38981 0.22491 0.38119 0.0
C148 C 0.16279 0.28513 0.34047 0.0
O149 O 0.18363 0.30091 0.31474 0.0
C150 C 0.33028 0.25768 0.32632 0.0
O151 O 0.46283 0.23943 0.38103 0.0
C152 C 0.36639 0.1448 0.39382 0.0
C153 C 0.48735 0.23678 0.40767 0.0
O154 O 0.46946 0.22321 0.4353 0.0
C155 C 0.31054 0.25734 0.42597 0.0
C156 C 0.37754 0.09792 0.39316 0.0
C157 C 0.34277 0.06754 0.39164 0.0
C158 C 0.35166 0.02247 0.39003 0.0
C159 C 0.39533 0.00777 0.38981 0.0
C160 C 0.43034 0.03776 0.39007 0.0
C161 C 0.42143 0.08307 0.39236 0.0
O162 O 0.30491 0.25037 0.35173 0.0
O163 O 0.37156 0.24544 0.32935 0.0
O164 O 0.25992 0.35418 0.34207 0.0
O165 O 0.2687 0.35671 0.39421 0.0
C166 C 0.26767 0.37982 0.36731 0.0
O167 O 0.3427 0.27137 0.40681 0.0
O168 O 0.26974 0.26905 0.41932 0.0
O169 O 0.35983 0.16365 0.36519 0.0
O170 O 0.38643 0.17016 0.4155 0.0
H171 H 0.30886 0.07894 0.39131 0.0
H172 H 0.40206 0.97276 0.38805 0.0
H173 H 0.44828 0.10659 0.39229 0.0
O174 O 0.77082 0.18897 0.37467 0.0
Tb175 Tb 0.76068 0.25986 0.38009 0.0
Eu176 Eu 0.78895 0.37453 0.36809 0.0
C177 C 0.75594 0.16732 0.34874 0.0
O178 O 0.7392 0.18975 0.32417 0.0
C179 C 0.74826 0.30974 0.31513 0.0
O180 O 0.77722 0.44754 0.37676 0.0
C181 C 0.86891 0.36676 0.3457 0.0
C182 C 0.74011 0.46815 0.36975 0.0
O183 O 0.70642 0.44527 0.35877 0.0
C184 C 0.80252 0.31873 0.43354 0.0
C185 C 0.91537 0.3778 0.35306 0.0
C186 C 0.94717 0.34418 0.351 0.0
C187 C 0.99191 0.35414 0.35466 0.0
C188 C 1.00508 0.39749 0.36047 0.0
C189 C 0.97433 0.43173 0.36131 0.0
C190 C 0.92917 0.42174 0.35834 0.0
O191 O 0.76977 0.27704 0.3289 0.0
O192 O 0.7411 0.34733 0.3306 0.0
O193 O 0.70342 0.23612 0.4075 0.0
O194 O 0.69732 0.2949 0.3801 0.0
C195 C 0.67632 0.2669 0.39851 0.0
O196 O 0.7842 0.35478 0.42177 0.0
O197 O 0.80965 0.28435 0.41451 0.0
O198 O 0.84246 0.39936 0.33808 0.0
O199 O 0.84986 0.33628 0.3636 0.0
H200 H 0.93731 0.31065 0.34553 0.0
H201 H 0.03995 0.40482 0.36294 0.0
H202 H 0.90525 0.44825 0.35863 0.0
O203 O 0.8172 0.7615 0.36631 0.0
Tb204 Tb 0.74719 0.74819 0.36162 0.0
Eu205 Eu 0.64204 0.79299 0.35039 0.0
C206 C 0.84382 0.76006 0.34073 0.0
O207 O 0.82681 0.755 0.3112 0.0
C208 C 0.70087 0.75243 0.29561 0.0
O209 O 0.56762 0.79343 0.35707 0.0
C210 C 0.66872 0.8729 0.33799 0.0
C211 C 0.54464 0.75764 0.36353 0.0
O212 O 0.5654 0.71977 0.36536 0.0
C213 C 0.6914 0.7884 0.41866 0.0
C214 C 0.66071 0.91787 0.35095 0.0
C215 C 0.69366 0.95061 0.34916 0.0
C216 C 0.68436 0.99403 0.3595 0.0
C217 C 0.64193 1.00454 0.37071 0.0
C218 C 0.60863 0.97281 0.37144 0.0
C219 C 0.6186 0.92922 0.36271 0.0
O220 O 0.7335 0.77004 0.31217 0.0
O221 O 0.66284 0.74548 0.31023 0.0
O222 O 0.77625 0.68274 0.36567 0.0
O223 O 0.70668 0.68847 0.36813 0.0
C224 C 0.73976 0.66085 0.36877 0.0
O225 O 0.65474 0.77646 0.40375 0.0
O226 O 0.72953 0.78898 0.40336 0.0
O227 O 0.63516 0.85394 0.32318 0.0
O228 O 0.69066 0.84574 0.35693 0.0
H229 H 0.72589 0.94264 0.33924 0.0
H230 H 0.63405 0.03846 0.37679 0.0
H231 H 0.59289 0.90449 0.3637 0.0
O232 O 0.68967 0.75241 0.86748 0.0
Tb233 Tb 0.75961 0.7615 0.87611 0.0
Eu234 Eu 0.86547 0.71429 0.86851 0.0
C235 C 0.6731 0.76276 0.83859 0.0
O236 O 0.70004 0.776 0.81534 0.0
C237 C 0.80855 0.75057 0.81293 0.0
O238 O 0.93857 0.72214 0.87266 0.0
C239 C 0.85044 0.63266 0.85255 0.0
C240 C 0.95725 0.75535 0.88795 0.0
O241 O 0.9327 0.7846 0.9033 0.0
C242 C 0.81107 0.71944 0.93545 0.0
C243 C 0.86271 0.58755 0.86259 0.0
C244 C 0.83159 0.55357 0.85955 0.0
C245 C 0.84393 0.50986 0.86551 0.0
C246 C 0.88767 0.49994 0.87372 0.0
C247 C 0.91956 0.53312 0.87608 0.0
C248 C 0.90647 0.57718 0.87148 0.0
O249 O 0.77657 0.73229 0.82941 0.0
O250 O 0.84521 0.76019 0.82819 0.0
O251 O 0.73505 0.82822 0.88567 0.0
O252 O 0.8014 0.82036 0.8706 0.0
C253 C 0.77098 0.84918 0.87807 0.0
O254 O 0.84957 0.72798 0.92186 0.0
O255 O 0.77351 0.72248 0.91938 0.0
O256 O 0.88215 0.65648 0.83983 0.0
O257 O 0.82393 0.65536 0.87185 0.0
H258 H 0.79817 0.56095 0.85184 0.0
H259 H 0.89729 0.46577 0.87647 0.0
H260 H 0.93062 0.60326 0.87371 0.0
O261 O 0.25313 0.69111 0.89202 0.0
Tb262 Tb 0.23438 0.7556 0.87359 0.0
Eu263 Eu 0.30788 0.87558 0.84628 0.0
C264 C 0.26234 0.65942 0.87091 0.0
O265 O 0.26837 0.67003 0.83988 0.0
C266 C 0.25272 0.80292 0.80644 0.0
O267 O 0.30245 0.94965 0.85057 0.0
C268 C 0.38177 0.85383 0.81875 0.0
C269 C 0.26602 0.97037 0.85921 0.0
O270 O 0.23008 0.94739 0.86454 0.0
C271 C 0.29642 0.82858 0.90933 0.0
C272 C 0.42839 0.86444 0.82495 0.0
C273 C 0.4601 0.83059 0.82457 0.0
C274 C 0.50441 0.84038 0.83093 0.0
C275 C 0.51709 0.88379 0.83727 0.0
C276 C 0.48595 0.91763 0.83785 0.0
C277 C 0.44147 0.90792 0.83204 0.0
O278 O 0.25316 0.7648 0.82222 0.0
O279 O 0.24863 0.84088 0.82249 0.0
O280 O 0.16885 0.74463 0.85346 0.0
O281 O 0.17512 0.78163 0.89781 0.0
C282 C 0.14743 0.76555 0.87647 0.0
O283 O 0.31683 0.8644 0.90084 0.0
O284 O 0.27321 0.81242 0.88491 0.0
O285 O 0.35663 0.88597 0.80787 0.0
O286 O 0.36262 0.82968 0.84134 0.0
H287 H 0.45038 0.79696 0.81938 0.0
H288 H 0.55156 0.89127 0.8418 0.0
H289 H 0.41736 0.93429 0.83251 0.0
O290 O 0.33818 0.26163 0.87741 0.0
Tb291 Tb 0.26722 0.24949 0.87903 0.0
Eu292 Eu 0.1543 0.28968 0.87149 0.0
C293 C 0.36071 0.25343 0.85024 0.0
O294 O 0.3388 0.24344 0.82333 0.0
C295 C 0.21807 0.26185 0.81507 0.0
O296 O 0.08011 0.28226 0.87739 0.0
C297 C 0.1698 0.37311 0.86247 0.0
C298 C 0.05802 0.24578 0.87116 0.0
O299 O 0.07987 0.21028 0.86233 0.0
C300 C 0.20905 0.28201 0.93821 0.0
C301 C 0.1577 0.41733 0.87524 0.0
C302 C 0.191 0.44911 0.87979 0.0
C303 C 0.18008 0.49264 0.88849 0.0
C304 C 0.13563 0.50431 0.89217 0.0
C305 C 0.10202 0.47372 0.8865 0.0
C306 C 0.11312 0.42991 0.87896 0.0
O307 O 0.24914 0.27953 0.83312 0.0
O308 O 0.18062 0.24982 0.8287 0.0
O309 O 0.29838 0.18518 0.8824 0.0
O310 O 0.22931 0.18756 0.87515 0.0
C311 C 0.26339 0.16148 0.87794 0.0
O312 O 0.17253 0.26927 0.92328 0.0
O313 O 0.2475 0.28417 0.92327 0.0
O314 O 0.13896 0.35099 0.84693 0.0
O315 O 0.19501 0.34807 0.88086 0.0
H316 H 0.2252 0.4404 0.87548 0.0
H317 H 0.12695 0.5383 0.89733 0.0
H318 H 0.08701 0.40644 0.87407 0.0
O319 O 0.76125 0.31362 0.86606 0.0
Tb320 Tb 0.77673 0.24417 0.86194 0.0
Eu321 Eu 0.73488 0.13756 0.85325 0.0
C322 C 0.7681 0.34078 0.84151 0.0
O323 O 0.77774 0.32437 0.81236 0.0
C324 C 0.77517 0.19491 0.79707 0.0
O325 O 0.73784 0.06348 0.86172 0.0
C326 C 0.65438 0.15992 0.83752 0.0
C327 C 0.77414 0.04028 0.85688 0.0
O328 O 0.80966 0.0608 0.84665 0.0
C329 C 0.73583 0.19146 0.9206 0.0
C330 C 0.60806 0.15019 0.84702 0.0
C331 C 0.57619 0.18413 0.84892 0.0
C332 C 0.53152 0.1739 0.85489 0.0
C333 C 0.5189 0.12985 0.85816 0.0
C334 C 0.54985 0.09587 0.85561 0.0
C335 C 0.59446 0.10628 0.85087 0.0
O336 O 0.7565 0.22825 0.81222 0.0
O337 O 0.78302 0.15832 0.81333 0.0
O338 O 0.84046 0.27688 0.86561 0.0
O339 O 0.83892 0.20751 0.86994 0.0
C340 C 0.86458 0.24211 0.86988 0.0
O341 O 0.74805 0.15387 0.90699 0.0
O342 O 0.73571 0.22845 0.90401 0.0
O343 O 0.67646 0.12774 0.82337 0.0
O344 O 0.67858 0.18278 0.8582 0.0
H345 H 0.58583 0.21803 0.845 0.0
H346 H 0.48416 0.12195 0.86058 0.0
H347 H 0.61832 0.07983 0.8488 0.0
O348 O 0.68834 0.25432 0.63864 0.0
Tb349 Tb 0.75381 0.23149 0.62607 0.0
Eu350 Eu 0.89015 0.29289 0.61578 0.0
C351 C 0.66563 0.23436 0.66164 0.0
O352 O 0.68612 0.20631 0.68083 0.0
C353 C 0.8371 0.24894 0.66872 0.0
O354 O 0.96335 0.29221 0.60473 0.0
C355 C 0.85687 0.37164 0.6171 0.0
C356 C 0.98714 0.25609 0.60743 0.0
O357 O 0.96725 0.2193 0.61547 0.0
C358 C 0.81019 0.26838 0.56938 0.0
C359 C 0.86913 0.41805 0.61615 0.0
C360 C 0.83601 0.45023 0.61779 0.0
C361 C 0.84724 0.49481 0.6163 0.0
C362 C 0.89158 0.50708 0.61369 0.0
C363 C 0.92492 0.47515 0.61272 0.0
C364 C 0.91344 0.43046 0.61346 0.0
O365 O 0.81071 0.26416 0.646 0.0
O366 O 0.87877 0.25834 0.66438 0.0
O367 O 0.76476 0.1652 0.64535 0.0
O368 O 0.74842 0.17382 0.59467 0.0
C369 C 0.75726 0.14511 0.61737 0.0
O370 O 0.84358 0.25041 0.58547 0.0
O371 O 0.76936 0.26238 0.57963 0.0
O372 O 0.86787 0.34994 0.64378 0.0
O373 O 0.86353 0.34924 0.58982 0.0
H374 H 0.8017 0.44067 0.62002 0.0
H375 H 0.90018 0.54172 0.61354 0.0
H376 H 0.93881 0.40535 0.61201 0.0
O377 O 0.75297 0.68353 0.606 0.0
Tb378 Tb 0.76428 0.7536 0.61081 0.0
Eu379 Eu 0.73381 0.859 0.62659 0.0
C380 C 0.75577 0.65749 0.63167 0.0
O381 O 0.75903 0.67514 0.66115 0.0
C382 C 0.76876 0.79382 0.67794 0.0
O383 O 0.75512 0.92954 0.62476 0.0
C384 C 0.65388 0.85529 0.64951 0.0
C385 C 0.73661 0.95624 0.60356 0.0
O386 O 0.70736 0.9404 0.58281 0.0
C387 C 0.72025 0.81131 0.55717 0.0
C388 C 0.60684 0.86458 0.64289 0.0
C389 C 0.57579 0.83152 0.64983 0.0
C390 C 0.53069 0.8406 0.64765 0.0
C391 C 0.51647 0.88219 0.63781 0.0
C392 C 0.54642 0.91635 0.63244 0.0
C393 C 0.59194 0.90723 0.63443 0.0
O394 O 0.74593 0.7649 0.66124 0.0
O395 O 0.78066 0.83044 0.66361 0.0
O396 O 0.82973 0.72551 0.60316 0.0
O397 O 0.82361 0.7949 0.60506 0.0
C398 C 0.85144 0.76224 0.60209 0.0
O399 O 0.73553 0.84706 0.57162 0.0
O400 O 0.71968 0.77315 0.57213 0.0
O401 O 0.68018 0.88909 0.65385 0.0
O402 O 0.67264 0.82214 0.6339 0.0
H403 H 0.5866 0.79954 0.6584 0.0
H404 H 0.48131 0.88868 0.63636 0.0
H405 H 0.61546 0.93366 0.63124 0.0
O406 O 0.34155 0.75828 0.64446 0.0
Tb407 Tb 0.27633 0.77978 0.63026 0.0
Eu408 Eu 0.13891 0.72193 0.62031 0.0
C409 C 0.36079 0.77641 0.67006 0.0
O410 O 0.33712 0.80221 0.68919 0.0
C411 C 0.19514 0.76175 0.67406 0.0
O412 O 0.06561 0.72625 0.60947 0.0
C413 C 0.17007 0.64225 0.61969 0.0
C414 C 0.04403 0.76391 0.61119 0.0
O415 O 0.06612 0.79979 0.61854 0.0
C416 C 0.21888 0.74482 0.57338 0.0
C417 C 0.15931 0.59543 0.61737 0.0
C418 C 0.19378 0.56453 0.61781 0.0
C419 C 0.18446 0.51958 0.615 0.0
C420 C 0.14071 0.50567 0.61208 0.0
C421 C 0.10601 0.53608 0.61294 0.0
C422 C 0.11545 0.58122 0.61498 0.0
O423 O 0.22099 0.74579 0.65115 0.0
O424 O 0.15299 0.75477 0.66947 0.0
O425 O 0.26146 0.84508 0.65064 0.0
O426 O 0.28291 0.83893 0.60079 0.0
C427 C 0.27083 0.8665 0.6237 0.0
O428 O 0.18628 0.76348 0.59014 0.0
O429 O 0.25995 0.7494 0.58352 0.0
O430 O 0.15846 0.66296 0.64683 0.0
O431 O 0.16404 0.66561 0.59295 0.0
H432 H 0.22767 0.57537 0.62034 0.0
H433 H 0.13362 0.47077 0.61009 0.0
H434 H 0.08887 0.6051 0.6155 0.0
O435 O 0.28096 0.33114 0.6068 0.0
Tb436 Tb 0.26694 0.26142 0.61077 0.0
Eu437 Eu 0.29023 0.15534 0.62629 0.0
C438 C 0.27423 0.35735 0.63217 0.0
O439 O 0.26523 0.33979 0.66088 0.0
C440 C 0.25991 0.22301 0.67862 0.0
O441 O 0.26793 0.08478 0.62678 0.0
C442 C 0.37136 0.15903 0.64676 0.0
C443 C 0.28768 0.0557 0.60783 0.0
O444 O 0.31778 0.06934 0.58694 0.0
C445 C 0.30614 0.20058 0.55721 0.0
C446 C 0.41767 0.14847 0.63843 0.0
C447 C 0.44992 0.18108 0.64318 0.0
C448 C 0.49464 0.17057 0.63991 0.0
C449 C 0.50736 0.12775 0.63147 0.0
C450 C 0.476 0.09459 0.62708 0.0
C451 C 0.43095 0.10517 0.63035 0.0
O452 O 0.28338 0.25091 0.66159 0.0
O453 O 0.246 0.18674 0.66439 0.0
O454 O 0.20376 0.29236 0.59988 0.0
O455 O 0.20538 0.22324 0.60575 0.0
C456 C 0.17981 0.25707 0.6003 0.0
O457 O 0.28687 0.16657 0.57119 0.0
O458 O 0.31166 0.2377 0.57327 0.0
O459 O 0.3448 0.12592 0.65262 0.0
O460 O 0.35217 0.19175 0.63125 0.0
H461 H 0.44041 0.21397 0.65088 0.0
H462 H 0.5422 0.11963 0.63063 0.0
H463 H 0.40656 0.07931 0.62796 0.0
C464 C 0.19178 0.27477 0.03 0.0
C465 C 0.21709 0.31034 0.04196 0.0
C466 C 0.18696 0.2671 -0.00385 0.0
C467 C 0.20794 0.2943 0.97322 0.0
H468 H 0.17646 0.25194 0.04691 0.0
H469 H 0.16865 0.23848 0.98795 0.0
S470 S 0.2733 0.39459 0.99123 0.0
N471 N 0.25971 0.37537 0.02784 0.0
N472 N 0.25126 0.36035 0.96418 0.0
C473 C 0.23132 0.33122 0.98466 0.0
C474 C 0.23568 0.33946 0.01908 0.0
C475 C 0.73485 0.17618 0.0133 0.0
C476 C 0.70259 0.20669 0.02388 0.0
C477 C 0.7438 0.16933 0.9797 0.0
C478 C 0.72142 0.19337 0.95546 0.0
H479 H 0.75422 0.1582 0.03117 0.0
H480 H 0.76992 0.14675 0.97277 0.0
S481 S 0.63095 0.27371 0.96963 0.0
N482 N 0.64572 0.25827 0.00699 0.0
N483 N 0.66301 0.246 0.94398 0.0
C484 C 0.68766 0.22234 0.96555 0.0
C485 C 0.67806 0.22879 -0.00029 0.0
C486 C 0.77555 0.67773 0.98057 0.0
C487 C 0.80827 0.70762 0.97046 0.0
C488 C 0.76408 0.67372 0.01382 0.0
C489 C 0.78445 0.70018 0.03768 0.0
H490 H 0.75676 0.65937 0.96245 0.0
H491 H 0.73631 0.65311 0.02034 0.0
S492 S 0.87742 0.7772 0.02479 0.0
N493 N 0.86547 0.75881 0.98747 0.0
N494 N 0.84295 0.75222 0.05006 0.0
C495 C 0.82011 0.72684 0.02835 0.0
C496 C 0.83236 0.7303 -0.00541 0.0
C497 C 0.33631 0.82548 0.96324 0.0
C498 C 0.30185 0.80972 0.94296 0.0
C499 C 0.34035 0.81251 -0.00369 0.0
C500 C 0.3096 0.78382 0.01051 0.0
H501 H 0.35989 0.84899 0.95377 0.0
H502 H 0.36629 0.82683 0.01123 0.0
S503 S 0.21592 0.72982 0.96794 0.0
N504 N 0.239 0.76077 0.93945 0.0
N505 N 0.24568 0.73732 0.0015 0.0
C506 C 0.27633 0.76624 0.99028 0.0
C507 C 0.2727 0.7789 0.95653 0.0
C508 C 0.18797 0.7437 0.48349 0.0
C509 C 0.21642 0.71134 0.47032 0.0
C510 C 0.18553 0.75163 0.51752 0.0
C511 C 0.21217 0.72805 0.53951 0.0
H512 H 0.16895 0.76456 0.46722 0.0
H513 H 0.16527 0.77862 0.52633 0.0
S514 S 0.28725 0.63573 0.51829 0.0
N515 N 0.2676 0.65206 0.4824 0.0
N516 N 0.26392 0.66769 0.54637 0.0
C517 C 0.2382 0.69344 0.52697 0.0
C518 C 0.24005 0.68481 0.49234 0.0
C519 C 0.35018 0.229 0.51038 0.0
C520 C 0.31612 0.20134 0.52165 0.0
C521 C 0.35167 0.24308 0.47758 0.0
C522 C 0.31869 0.23038 0.45533 0.0
H523 H 0.37371 0.24278 0.52765 0.0
H524 H 0.37596 0.26745 0.47062 0.0
S525 S 0.22895 0.15025 0.47041 0.0
N526 N 0.25384 0.15536 0.50642 0.0
N527 N 0.2562 0.18239 0.44479 0.0
C528 C 0.28783 0.19856 0.46521 0.0
C529 C 0.28669 0.18375 0.49847 0.0
C530 C 0.84403 0.2696 0.51338 0.0
C531 C 0.81628 0.28919 0.53691 0.0
C532 C 0.8413 0.28149 0.48007 0.0
C533 C 0.81125 0.31384 0.46929 0.0
H534 H 0.86554 0.24267 0.52024 0.0
H535 H 0.86143 0.26366 0.46243 0.0
S536 S 0.73711 0.3802 0.52267 0.0
N537 N 0.76195 0.34609 0.54821 0.0
N538 N 0.75738 0.36908 0.48577 0.0
C539 C 0.78638 0.33648 0.49318 0.0
C540 C 0.78872 0.32391 0.52698 0.0
C541 C 0.67005 0.77355 0.47667 0.0
C542 C 0.69127 0.80052 0.45372 0.0
C543 C 0.67777 0.77901 0.51045 0.0
C544 C 0.70638 0.81203 0.52231 0.0
H545 H 0.64976 0.74632 0.46843 0.0
H546 H 0.6626 0.756 0.52731 0.0
S547 S 0.76374 0.89577 0.4719 0.0
N548 N 0.73769 0.86451 0.44482 0.0
N549 N 0.75159 0.87536 0.50843 0.0
C550 C 0.72467 0.84158 0.49963 0.0
C551 C 0.71733 0.83558 0.46524 0.0
C552 C 0.28418 0.04125 0.15612 0.0
C553 C 0.29503 0.02925 0.12365 0.0
C554 C 0.26759 0.08333 0.16338 0.0
C555 C 0.26146 0.1148 0.13838 0.0
H556 H 0.29196 0.01934 0.17629 0.0
H557 H 0.26248 0.09211 0.189 0.0
S558 S 0.27787 0.09581 0.04862 0.0
N559 N 0.29354 0.04934 0.06598 0.0
N560 N 0.26154 0.12808 0.07913 0.0
C561 C 0.26819 0.10135 0.10543 0.0
C562 C 0.28529 0.05866 0.09819 0.0
C563 C 0.96728 0.28983 0.16406 0.0
C564 C 0.98657 0.29704 0.13308 0.0
C565 C 0.92444 0.27252 0.16683 0.0
C566 C 0.89916 0.26182 0.1387 0.0
H567 H 0.98379 0.30124 0.18617 0.0
H568 H 0.91003 0.27032 0.19119 0.0
S569 S 0.93803 0.26836 0.05202 0.0
N570 N 0.97965 0.28757 0.07397 0.0
N571 N 0.89961 0.25455 0.0789 0.0
C572 C 0.91993 0.26502 0.10771 0.0
C573 C 0.96346 0.2828 0.10498 0.0
C574 C 0.7026 0.92994 0.17809 0.0
C575 C 0.72205 0.9055 0.15233 0.0
C576 C 0.68714 0.97281 0.17288 0.0
C577 C 0.69074 0.99261 0.1418 0.0
H578 H 0.69591 0.91468 0.20164 0.0
H579 H 0.66831 0.98878 0.19225 0.0
S580 S 0.74675 0.94682 0.06828 0.0
N581 N 0.75071 0.90762 0.09617 0.0
N582 N 0.72048 0.98786 0.08653 0.0
C583 C 0.71449 0.97075 0.11708 0.0
C584 C 0.7306 0.92721 0.12234 0.0
C585 C 0.09011 0.7361 0.09967 0.0
C586 C 0.10963 0.73731 0.13119 0.0
C587 C 0.04964 0.71509 0.09456 0.0
C588 C 0.02727 0.69542 0.12084 0.0
H589 H 0.10771 0.74811 0.07831 0.0
H590 H 0.03741 0.71138 0.06961 0.0
S591 S 0.05916 0.69718 0.2088 0.0
N592 N 0.0997 0.72296 0.18977 0.0
N593 N 0.02355 0.68338 0.17978 0.0
C594 C 0.04389 0.7003 0.15282 0.0
C595 C 0.08511 0.72151 0.15812 0.0
C596 C 0.30865 0.95877 0.41029 0.0
C597 C 0.31629 0.98992 0.38559 0.0
C598 C 0.28443 0.92061 0.40364 0.0
C599 C 0.26801 0.91186 0.37177 0.0
H600 H 0.32388 0.96262 0.43428 0.0
H601 H 0.28175 0.89634 0.42299 0.0
S602 S 0.27433 0.98678 0.29999 0.0
N603 N 0.30169 0.01264 0.32944 0.0
N604 N 0.25649 0.94052 0.31651 0.0
C605 C 0.27239 0.94471 0.34767 0.0
C606 C 0.29661 0.98384 0.35466 0.0
C607 C 0.09052 0.30398 0.31486 0.0
C608 C 0.11408 0.28855 0.34238 0.0
C609 C 0.04757 0.32029 0.31823 0.0
C610 C 0.02675 0.32131 0.3491 0.0
H611 H 0.1065 0.30699 0.2911 0.0
H612 H 0.0322 0.33599 0.29723 0.0
S613 S 0.06976 0.27647 0.42727 0.0
N614 N 0.10998 0.26837 0.40045 0.0
N615 N 0.02942 0.30002 0.40647 0.0
C616 C 0.04768 0.3015 0.37592 0.0
C617 C 0.09137 0.28466 0.3726 0.0
C618 C 0.72941 0.05478 0.38356 0.0
C619 C 0.71579 0.03102 0.35553 0.0
C620 C 0.74624 0.09768 0.38091 0.0
C621 C 0.74915 0.11879 0.35015 0.0
H622 H 0.72401 0.04129 0.4079 0.0
H623 H 0.75368 0.11551 0.4034 0.0
S624 S 0.7229 0.06833 0.26896 0.0
N625 N 0.71056 0.02972 0.29594 0.0
N626 N 0.74174 0.11036 0.29072 0.0
C627 C 0.73886 0.09396 0.32174 0.0
C628 C 0.72227 0.05008 0.32449 0.0
C629 C 0.94973 0.7278 0.38334 0.0
C630 C 0.97845 0.72005 0.35681 0.0
C631 C 0.90735 0.74475 0.37816 0.0
C632 C 0.89185 0.75366 0.34612 0.0
H633 H 0.95898 0.71774 0.40797 0.0
H634 H 0.88561 0.74764 0.39924 0.0
S635 S 0.95731 0.74474 0.26898 0.0
N636 N 0.99097 0.72709 0.29805 0.0
N637 N 0.91116 0.75879 0.28797 0.0
C638 C 0.92184 0.74962 0.31972 0.0
C639 C 0.9652 0.73276 0.32515 0.0
C640 C 0.73776 0.92478 0.88256 0.0
C641 C 0.77405 0.89794 0.87425 0.0
C642 C 0.73818 0.97049 0.87704 0.0
C643 C 0.77498 0.99158 0.86292 0.0
H644 H 0.70834 0.91028 0.89309 0.0
H645 H 0.70923 0.98935 0.88378 0.0
S646 S 0.87854 0.93594 0.83636 0.0
N647 N 0.84781 0.89576 0.85105 0.0
N648 N 0.84895 0.98125 0.84067 0.0
C649 C 0.8117 0.96501 0.85472 0.0
C650 C 0.8112 0.91842 0.86037 0.0
C651 C 0.02814 0.73917 0.85968 0.0
C652 C 1.00559 0.76047 0.88554 0.0
C653 C 0.07387 0.74221 0.85657 0.0
C654 C 0.09901 0.76626 0.87939 0.0
H655 H 0.01037 0.71991 0.84151 0.0
H656 H 0.08965 0.72484 0.83638 0.0
S657 S 0.05627 0.82824 0.95163 0.0
N658 N 0.01184 0.80695 0.93427 0.0
N659 N 0.09834 0.81214 0.92866 0.0
C660 C 0.07708 0.78814 0.90525 0.0
C661 C 0.03021 0.7854 0.90825 0.0
C662 C 0.22507 0.08812 0.87348 0.0
C663 C 0.26416 0.11289 0.87346 0.0
C664 C 0.22591 0.04214 0.86892 0.0
C665 C 0.26587 0.0192 0.8637 0.0
H666 H 0.19359 0.10431 0.87723 0.0
H667 H 0.19492 0.02452 0.86934 0.0
S668 S 0.37745 0.06951 0.86007 0.0
N669 N 0.34393 0.1113 0.8671 0.0
N670 N 0.34557 0.02563 0.8582 0.0
C671 C 0.30515 0.04389 0.86326 0.0
C672 C 0.3043 0.09048 0.86823 0.0
C673 C 0.98521 0.20528 0.86942 0.0
C674 C 1.00863 0.24522 0.8727 0.0
C675 C 0.93871 0.20414 0.86938 0.0
C676 C 0.91366 0.24294 0.87232 0.0
H677 H 1.00289 0.17452 0.86658 0.0
H678 H 0.92232 0.17275 0.86632 0.0
S679 S 0.95817 0.35612 0.88246 0.0
N680 N 1.00238 0.32458 0.87981 0.0
N681 N 0.91572 0.32242 0.87946 0.0
C682 C 0.93654 0.28299 0.8761 0.0
C683 C 0.98374 0.28415 0.87638 0.0
C684 C 0.76621 0.06848 0.6383 0.0
C685 C 0.75513 0.097 0.61246 0.0
C686 C 0.76152 0.02281 0.6348 0.0
C687 C 0.74506 1.00411 0.60546 0.0
H688 H 0.77791 0.08154 0.66159 0.0
H689 H 0.76959 1.00218 0.65563 0.0
S690 S 0.71395 0.06445 0.52969 0.0
N691 N 0.72921 0.10322 0.5559 0.0
N692 N 0.71988 0.01755 0.54954 0.0
C693 C 0.73495 0.03223 0.57915 0.0
C694 C 0.74015 0.07865 0.58259 0.0
C695 C 0.97146 0.72593 0.6019 0.0
C696 C 0.99507 0.76533 0.60667 0.0
C697 C 0.92527 0.7257 0.59952 0.0
C698 C 0.90045 0.7648 0.60168 0.0
H699 H 0.98865 0.69473 0.60061 0.0
H700 H 0.90882 0.69429 0.59656 0.0
S701 S 0.94566 0.87721 0.61241 0.0
N702 N 0.9896 0.84505 0.61216 0.0
N703 N 0.90288 0.84423 0.6077 0.0
C704 C 0.92343 0.80459 0.60556 0.0
C705 C 0.97063 0.80491 0.60805 0.0
C706 C 0.29387 0.97846 0.58717 0.0
C707 C 0.27931 0.0079 0.61171 0.0
C708 C 0.28978 0.9329 0.59104 0.0
C709 C 0.27142 0.91484 0.61978 0.0
H710 H 0.30909 0.99061 0.56484 0.0
H711 H 0.30209 0.91168 0.57159 0.0
S712 S 0.22674 0.9772 0.69109 0.0
N713 N 0.24427 0.0155 0.6655 0.0
N714 N 0.23717 0.92966 0.6728 0.0
C715 C 0.25582 0.9437 0.64427 0.0
C716 C 0.25956 0.99027 0.64022 0.0
C717 C 0.06072 0.21762 0.60484 0.0
C718 C 0.0361 0.25702 0.60322 0.0
C719 C 0.10706 0.21765 0.60292 0.0
C720 C 0.13075 0.25701 0.59925 0.0
H721 H 0.04419 0.18643 0.60814 0.0
H722 H 0.12445 0.1866 0.60497 0.0
S723 S 0.0826 0.36923 0.59296 0.0
N724 N 0.03952 0.33659 0.59704 0.0
N725 N 0.1261 0.33655 0.59333 0.0
C726 C 0.10663 0.29658 0.59686 0.0
C727 C 0.0595 0.29658 0.59886 0.0
C728 C 0.78397 0.59723 0.5955 0.0
C729 C 0.76804 0.61079 0.62657 0.0
C730 C 0.80683 0.55752 0.59174 0.0
C731 C 0.81361 0.52962 0.61869 0.0
H732 H 0.7819 0.61882 0.5744 0.0
H733 H 0.8216 0.54982 0.56808 0.0
S734 S 0.77222 0.54575 0.7037 0.0
N735 N 0.75588 0.59015 0.68378 0.0
N736 N 0.79858 0.5151 0.67631 0.0
C737 C 0.79439 0.54054 0.64905 0.0
C738 C 0.77152 0.58125 0.65307 0.0
C739 C 0.43406 0.76517 0.64301 0.0
C740 C 0.40961 0.77928 0.67074 0.0
C741 C 0.47692 0.78071 0.63737 0.0
C742 C 0.49679 0.80998 0.6596 0.0
H743 H 0.41867 0.7456 0.62386 0.0
H744 H 0.49275 0.77329 0.61405 0.0
S745 S 0.45117 0.84931 0.73903 0.0
N746 N 0.41187 0.81808 0.72335 0.0
N747 N 0.49227 0.84727 0.71239 0.0
C748 C 0.4751 0.8197 0.68928 0.0
C749 C 0.43149 0.80419 0.69502 0.0
C750 C 0.22709 0.45758 0.5908 0.0
C751 C 0.21912 0.48579 0.61763 0.0
C752 C 0.24941 0.41766 0.59508 0.0
C753 C 0.26353 0.40424 0.62654 0.0
H754 H 0.21329 0.46503 0.56684 0.0
H755 H 0.25212 0.39568 0.57409 0.0
S756 S 0.25573 0.46973 0.70372 0.0
N757 N 0.23121 0.50048 0.67571 0.0
N758 N 0.27283 0.42513 0.68409 0.0
C759 C 0.25903 0.43406 0.65298 0.0
C760 C 0.23678 0.47494 0.64845 0.0
C761 C 0.54996 0.19744 0.67973 0.0
C762 C 0.52968 0.20179 0.64883 0.0
C763 C 0.59292 0.21272 0.68497 0.0
C764 C 0.6169 0.23273 0.65941 0.0
H765 H 0.53417 0.17841 0.69892 0.0
H766 H 0.60867 0.20545 0.70828 0.0
S767 S 0.57439 0.25877 0.57585 0.0
N768 N 0.53351 0.2324 0.59396 0.0
N769 N 0.61404 0.26224 0.60361 0.0
C770 C 0.59474 0.24187 0.62964 0.0
C771 C 0.5511 0.22592 0.62434 0.0
C772 C 0.78579 0.41691 0.82223 0.0
C773 C 0.77622 0.38815 0.84843 0.0
C774 C 0.80394 0.45866 0.82807 0.0
C775 C 0.81314 0.47296 0.86027 0.0
H776 H 0.78183 0.40613 0.79693 0.0
H777 H 0.81384 0.47849 0.80723 0.0
S778 S 0.78865 0.41387 0.93763 0.0
N779 N 0.77245 0.37991 0.90817 0.0
N780 N 0.80747 0.45796 0.91867 0.0
C781 C 0.80058 0.44632 0.88671 0.0
C782 C 0.78171 0.40403 0.88091 0.0
C783 C 0.55612 0.79229 0.8611 0.0
C784 C 0.53909 0.80657 0.83084 0.0
C785 C 0.59833 0.77374 0.86305 0.0
C786 C 0.62506 0.7697 0.8348 0.0
H787 H 0.53824 0.79893 0.88372 0.0
H788 H 0.61135 0.76617 0.88721 0.0
S789 S 0.59177 0.7954 0.74896 0.0
N790 N 0.54904 0.81029 0.77168 0.0
N791 N 0.62842 0.77526 0.77495 0.0
C792 C 0.60639 0.77979 0.80396 0.0
C793 C 0.56334 0.79841 0.80208 0.0
C794 C 0.23497 0.5389 0.85892 0.0
C795 C 0.21322 0.52851 0.88843 0.0
C796 C 0.25477 0.58018 0.85455 0.0
C797 C 0.25343 0.61263 0.87953 0.0
H798 H 0.23335 0.51655 0.83807 0.0
H799 H 0.26822 0.58774 0.83051 0.0
S800 S 0.20908 0.59719 0.96404 0.0
N801 N 0.1977 0.5506 0.94476 0.0
N802 N 0.23535 0.62795 0.93695 0.0
C803 C 0.23619 0.60051 0.91044 0.0
C804 C 0.21586 0.55855 0.91476 0.0
C805 C 0.47132 0.21525 0.88326 0.0
C806 C 0.4957 0.20719 0.85435 0.0
C807 C 0.42901 0.23412 0.88202 0.0
C808 C 0.40908 0.24473 0.85171 0.0
H809 H 0.48375 0.20394 0.90677 0.0
H810 H 0.41057 0.2371 0.90479 0.0
S811 S 0.46158 0.23455 0.76927 0.0
N812 N 0.49887 0.21496 0.79499 0.0
N813 N 0.4194 0.25011 0.79235 0.0
C814 C 0.43463 0.23985 0.82286 0.0
C815 C 0.47789 0.22111 0.82425 0.0
C816 C 0.28907 0.45116 0.39318 0.0
C817 C 0.26944 0.42835 0.36678 0.0
C818 C 0.28748 0.49722 0.39516 0.0
C819 C 0.26518 0.52205 0.37123 0.0
H820 H 0.30534 0.43323 0.41273 0.0
H821 H 0.30259 0.51334 0.41616 0.0
S822 S 0.20952 0.47801 0.29656 0.0
N823 N 0.22854 0.43394 0.31552 0.0
N824 N 0.22442 0.52041 0.31957 0.0
C825 C 0.24606 0.49962 0.34435 0.0
C826 C 0.24853 0.45278 0.34201 0.0
C827 C 0.56438 0.23006 0.42959 0.0
C828 C 0.53507 0.24789 0.4063 0.0
C829 C 0.60997 0.23772 0.42758 0.0
C830 C 0.62788 0.26436 0.40271 0.0
H831 H 0.55227 0.20879 0.44892 0.0
H832 H 0.63143 0.22197 0.44531 0.0
S833 S 0.56536 0.32117 0.33689 0.0
N834 N 0.52732 0.2949 0.35825 0.0
N835 N 0.61275 0.30998 0.35503 0.0
C836 C 0.59888 0.28383 0.38005 0.0
C837 C 0.55256 0.27537 0.38167 0.0
C838 C 0.7772 0.58787 0.37357 0.0
C839 C 0.73768 0.61198 0.37102 0.0
C840 C 0.77739 0.54168 0.37401 0.0
C841 C 0.73805 0.5173 0.37158 0.0
H842 H 0.80857 0.6048 0.37489 0.0
H843 H 0.80891 0.52503 0.37549 0.0
S844 S 0.62523 0.56467 0.36607 0.0
N845 N 0.65789 0.6081 0.36738 0.0
N846 N 0.658 0.52128 0.36786 0.0
C847 C 0.69809 0.54104 0.36966 0.0
C848 C 0.69795 0.58829 0.36949 0.0
C849 C 0.47057 0.72072 0.37026 0.0
C850 C 0.49575 0.75975 0.36861 0.0
C851 C 0.42442 0.72176 0.3744 0.0
C852 C 0.40147 0.76182 0.37722 0.0
H853 H 0.48651 0.68899 0.3679 0.0
H854 H 0.40655 0.69091 0.37491 0.0
S855 S 0.45159 0.87342 0.37661 0.0
N856 N 0.49379 0.83971 0.37156 0.0
N857 N 0.40771 0.84161 0.37944 0.0
C858 C 0.42626 0.80106 0.37633 0.0
C859 C 0.47314 0.80003 0.372 0.0
C860 C 0.21152 0.58562 0.08781 0.0
C861 C 0.24648 0.60669 0.1043 0.0
C862 C 0.20425 0.54023 0.09085 0.0
C863 C 0.23121 0.51377 0.11091 0.0
H864 H 0.18906 0.60447 0.07262 0.0
H865 H 0.17664 0.52599 0.07778 0.0
S866 S 0.32861 0.55253 0.15834 0.0
N867 N 0.30955 0.59739 0.14044 0.0
N868 N 0.29561 0.51217 0.14668 0.0
C869 C 0.26687 0.53431 0.12714 0.0
C870 C 0.27461 0.58065 0.12368 0.0
C871 C 0.46578 0.28078 0.088 0.0
C872 C 0.49513 0.26788 0.11316 0.0
C873 C 0.42017 0.28543 0.09397 0.0
C874 C 0.40206 0.27621 0.1251 0.0
H875 H 0.47802 0.28657 0.06332 0.0
H876 H 0.39873 0.29415 0.07367 0.0
S877 S 0.46414 0.2437 0.19982 0.0
N878 N 0.50234 0.24849 0.17104 0.0
N879 N 0.41696 0.25578 0.18172 0.0
C880 C 0.43102 0.26457 0.15063 0.0
C881 C 0.47743 0.26081 0.14482 0.0
C882 C 0.78212 0.46173 0.10015 0.0
C883 C 0.74287 0.48577 0.10484 0.0
C884 C 0.78212 0.41564 0.09911 0.0
C885 C 0.74294 0.39142 0.10271 0.0
H886 H 0.81341 0.4785 0.09777 0.0
H887 H 0.81345 0.39886 0.09612 0.0
S888 S 0.6308 0.43782 0.11393 0.0
N889 N 0.66317 0.48138 0.11182 0.0
N890 N 0.66354 0.39466 0.10996 0.0
C891 C 0.70324 0.41476 0.10656 0.0
C892 C 0.70315 0.4619 0.1076 0.0
C893 C 0.52519 0.73163 0.08733 0.0
C894 C 0.49731 0.74692 0.11256 0.0
C895 C 0.57112 0.73209 0.09119 0.0
C896 C 0.59063 0.74683 0.12068 0.0
H897 H 0.51157 0.72075 0.06401 0.0
H898 H 0.59151 0.72139 0.07073 0.0
S899 S 0.53205 0.78674 0.1952 0.0
N900 N 0.49239 0.77515 0.16869 0.0
N901 N 0.5787 0.77486 0.17612 0.0
C902 C 0.56313 0.76036 0.14662 0.0
C903 C 0.51642 0.76075 0.14248 0.0
C904 C 0.26981 0.26338 0.28562 0.0
C905 C 0.31239 0.27584 0.29548 0.0
C906 C 0.25293 0.27581 0.25496 0.0
C907 C 0.27769 0.30194 0.23336 0.0
H908 H 0.24999 0.24227 0.30115 0.0
H909 H 0.22044 0.26432 0.24792 0.0
S910 S 0.39086 0.34381 0.24773 0.0
N911 N 0.37908 0.31579 0.2814 0.0
N912 N 0.3468 0.34036 0.22394 0.0
C913 C 0.31991 0.31572 0.24324 0.0
C914 C 0.3375 0.30222 0.27425 0.0
C915 C 0.7011 0.27092 0.27453 0.0
C916 C 0.73274 0.30348 0.28128 0.0
C917 C 0.69075 0.25924 0.24198 0.0
C918 C 0.71251 0.27923 0.21548 0.0
H919 H 0.68515 0.25363 0.29454 0.0
H920 H 0.66711 0.23318 0.23756 0.0
S921 S 0.7964 0.36745 0.22021 0.0
N922 N 0.78415 0.35685 0.25907 0.0
N923 N 0.76536 0.33422 0.19776 0.0
C924 C 0.74316 0.31271 0.2219 0.0
C925 C 0.75312 0.32509 0.25495 0.0
C926 C 0.69142 0.6995 0.24853 0.0
C927 C 0.709 0.73894 0.26116 0.0
C928 C 0.70519 0.68289 0.21777 0.0
C929 C 0.73593 0.70593 0.19849 0.0
H930 H 0.6687 0.68028 0.26319 0.0
H931 H 0.69234 0.65159 0.20929 0.0
S932 S 0.79063 0.81128 0.22022 0.0
N933 N 0.75777 0.80103 0.25166 0.0
N934 N 0.78297 0.77033 0.19399 0.0
C935 C 0.75228 0.74622 0.21035 0.0
C936 C 0.73894 0.76263 0.24168 0.0
C937 C 0.26153 0.77362 0.26012 0.0
C938 C 0.26679 0.73191 0.27461 0.0
C939 C 0.26992 0.78015 0.22661 0.0
C940 C 0.28455 0.74545 0.20653 0.0
H941 H 0.2507 0.80157 0.27466 0.0
H942 H 0.26521 0.81268 0.21636 0.0
S943 S 0.30035 0.6294 0.23107 0.0
N944 N 0.28516 0.65472 0.26534 0.0
N945 N 0.3019 0.66774 0.20239 0.0
C946 C 0.28979 0.70363 0.22033 0.0
C947 C 0.28064 0.69667 0.2544 0.0
C948 C 0.75951 0.749 0.72811 0.0
C949 C 0.78062 0.78418 0.71228 0.0
C950 C 0.76962 0.7381 0.76046 0.0
C951 C 0.80132 0.76187 0.77829 0.0
H952 H 0.73449 0.72975 0.7156 0.0
H953 H 0.75223 0.71085 0.77161 0.0
S954 S 0.86598 0.85718 0.74853 0.0
N955 N 0.83481 0.84299 0.71686 0.0
N956 N 0.85378 0.82233 0.77827 0.0
C957 C 0.82305 0.79699 0.76292 0.0
C958 C 0.81258 0.80834 0.72978 0.0
C959 C 0.26552 0.77057 0.75074 0.0
C960 C 0.24201 0.80023 0.77082 0.0
C961 C 0.25161 0.76085 0.71855 0.0
C962 C 0.21301 0.77957 0.70542 0.0
H963 H 0.29408 0.75353 0.76043 0.0
H964 H 0.26989 0.73645 0.70457 0.0
S965 S 0.14105 0.86134 0.74706 0.0
N966 N 0.17978 0.85052 0.77449 0.0
N967 N 0.15287 0.83108 0.71428 0.0
C968 C 0.19009 0.81056 0.72473 0.0
C969 C 0.20485 0.82127 0.75733 0.0
C970 C 0.20385 0.22131 0.76227 0.0
C971 C 0.22715 0.25374 0.77985 0.0
C972 C 0.21481 0.21109 0.72952 0.0
C973 C 0.24924 0.23324 0.7133 0.0
H974 H 0.17755 0.20306 0.77405 0.0
H975 H 0.19613 0.18587 0.71685 0.0
S976 S 0.31968 0.32177 0.74839 0.0
N977 N 0.28521 0.309 0.77827 0.0
N978 N 0.30661 0.28903 0.71742 0.0
C979 C 0.27249 0.26599 0.73061 0.0
C980 C 0.26124 0.27651 0.76371 0.0
C981 C 0.76273 0.22609 0.74135 0.0
C982 C 0.7894 0.20103 0.76249 0.0
C983 C 0.77764 0.23884 0.71015 0.0
C984 C 0.82013 0.22773 0.69902 0.0
H985 H 0.73049 0.2372 0.74941 0.0
H986 H 0.75657 0.25982 0.69547 0.0
S987 S 0.90226 0.16077 0.74435 0.0
N988 N 0.85952 0.16357 0.76955 0.0
N989 N 0.8881 0.1885 0.71105 0.0
C990 C 0.84666 0.20135 0.71941 0.0
C991 C 0.83109 0.18763 0.75108 0.0
C992 C 0.98353 0.4666 0.13018 0.0
C993 C 0.02095 0.45215 0.11263 0.0
C994 C 0.96714 0.5093 0.12644 0.0
C995 C 0.98757 0.53914 0.10502 0.0
H996 H 0.96756 0.44512 0.14775 0.0
H997 H 0.93941 0.51954 0.14149 0.0
S998 S 0.08328 0.51584 0.05059 0.0
N999 N 0.07592 0.46972 0.07124 0.0
N1000 N 0.04487 0.5502 0.06386 0.0
C1001 C 0.02396 0.52456 0.08631 0.0
C1002 C 0.04078 0.48105 0.09026 0.0
C1003 C 0.47934 0.97003 0.13195 0.0
C1004 C 0.44977 0.9851 0.10784 0.0
C1005 C 0.52168 0.98795 0.1349 0.0
C1006 C 0.53633 0.02173 0.1139 0.0
H1007 H 0.46906 0.94554 0.14966 0.0
H1008 H 0.54277 0.97605 0.15448 0.0
S1009 S 0.47343 0.0698 0.0446 0.0
N1010 N 0.43931 0.0336 0.06093 0.0
N1011 N 0.51902 0.06749 0.06678 0.0
C1012 C 0.50771 0.03622 0.08904 0.0
C1013 C 0.46452 0.01779 0.08589 0.0
C1014 C 0.99238 0.55028 0.38888 0.0
C1015 C 0.02476 0.56535 0.36666 0.0
C1016 C 0.97556 0.50728 0.38684 0.0
C1017 C 0.99063 0.4778 0.36256 0.0
H1018 H 0.97968 0.57207 0.40785 0.0
H1019 H 0.95096 0.49691 0.40453 0.0
S1020 S 0.0727 0.50162 0.2971 0.0
N1021 N 0.06958 0.54768 0.31869 0.0
N1022 N 0.03834 0.46708 0.31499 0.0
C1023 C 0.02278 0.49249 0.34011 0.0
C1024 C 0.03984 0.53613 0.34217 0.0
C1025 C 0.55182 0.01432 0.40413 0.0
C1026 C 0.56248 0.98689 0.37719 0.0
C1027 C 0.50906 0.03122 0.40812 0.0
C1028 C 0.47572 0.02116 0.38531 0.0
H1029 H 0.57678 0.02291 0.42211 0.0
H1030 H 0.50193 0.05194 0.42926 0.0
S1031 S 0.48752 0.95416 0.30917 0.0
N1032 N 0.53675 0.95269 0.32644 0.0
N1033 N 0.45653 0.98419 0.33406 0.0
C1034 C 0.48607 0.99422 0.35814 0.0
C1035 C 0.5294 0.97708 0.35408 0.0
C1036 C 0.0227 0.472 0.90457 0.0
C1037 C 0.05578 0.48948 0.88427 0.0
C1038 C 0.97906 0.48743 0.90267 0.0
C1039 C 0.96684 0.52057 0.88014 0.0
H1040 H 0.03068 0.44647 0.92213 0.0
H1041 H 0.9546 0.47305 0.9188 0.0
S1042 S 0.04118 0.57435 0.8198 0.0
N1043 N 0.07347 0.5403 0.84022 0.0
N1044 N 0.99159 0.56843 0.83595 0.0
C1045 C 0.99981 0.5379 0.85953 0.0
C1046 C 0.04416 0.52249 0.86171 0.0
C1047 C 0.54881 0.02359 0.82641 0.0
C1048 C 0.53456 0.04968 0.8531 0.0
C1049 C 0.53247 0.98108 0.82159 0.0
C1050 C 0.50101 0.96324 0.84311 0.0
H1051 H 0.57207 0.03647 0.80863 0.0
H1052 H 0.54421 0.96211 0.80067 0.0
S1053 S 0.45531 0.01635 0.91803 0.0
N1054 N 0.4889 0.05358 0.90237 0.0
N1055 N 0.45762 0.97353 0.89284 0.0
C1056 C 0.4867 0.98856 0.87006 0.0
C1057 C 0.50364 0.03183 0.87517 0.0
C1058 C 0.02924 0.53706 0.59063 0.0
C1059 C 0.06004 0.52012 0.61307 0.0
C1060 C 0.98573 0.5217 0.59021 0.0
C1061 C 0.97163 0.489 0.61228 0.0
H1062 H 0.03895 0.56201 0.5731 0.0
H1063 H 0.96295 0.53545 0.57246 0.0
S1064 S 0.03898 0.43637 0.67739 0.0
N1065 N 0.07319 0.47044 0.65885 0.0
N1066 N 0.99137 0.44169 0.65812 0.0
C1067 C 1.00209 0.47208 0.635 0.0
C1068 C 0.0463 0.48767 0.63541 0.0
C1069 C 0.49468 0.97587 0.65056 0.0
C1070 C 0.52877 0.96193 0.62922 0.0
C1071 C 0.47622 0.01791 0.64833 0.0
C1072 C 0.49136 0.04821 0.62494 0.0
H1073 H 0.48261 0.95432 0.66974 0.0
H1074 H 0.45112 0.02736 0.66602 0.0
S1075 S 0.57873 0.0282 0.56248 0.0
N1076 N 0.57587 0.98158 0.58314 0.0
N1077 N 0.54169 0.0613 0.57932 0.0
C1078 C 0.52513 0.03482 0.60319 0.0
C1079 C 0.54381 0.99165 0.60532 0.0
loop_
_geom_bond_atom_site_label_1
_geom_bond_atom_site_label_2
_geom_bond_distance
_geom_bond_site_symmetry_2
_ccdc_geom_bond_type
O0 Tb1 2.292 . S
O0 C3 1.255 . S
Tb1 O0 2.292 . S
Tb1 O17 2.326 . S
Tb1 O19 2.500 . S
Tb1 O20 2.473 . S
Tb1 O23 2.324 . S
Eu2 O6 2.292 . S
Eu2 C7 2.852 . S
Eu2 O18 2.324 . S
Eu2 O22 2.326 . S
Eu2 O24 2.500 . S
Eu2 O25 2.473 . S
C3 O0 1.255 . S
C3 O4 1.247 . S
O4 C3 1.247 . S
C5 O17 1.242 . S
C5 O18 1.258 . S
O6 Eu2 2.292 . S
O6 C8 1.255 . S
C7 Eu2 2.852 . S
C7 C11 1.503 . S
C7 O24 1.273 . S
C7 O25 1.257 . S
C8 O6 1.255 . S
C8 O9 1.247 . S
O9 C8 1.247 . S
C10 O22 1.242 . S
C10 O23 1.258 . S
C11 C7 1.503 . S
C11 C12 1.379 . S
C11 C16 1.392 . S
C12 C11 1.379 . S
C12 C13 1.404 . S
C12 H26 0.929 . S
C13 C12 1.404 . S
C13 C14 1.389 1_455 S
C14 C13 1.389 1_655 S
C14 C15 1.399 1_655 S
C14 H27 0.931 . S
C15 C14 1.399 1_455 S
C15 C16 1.390 . S
C16 C11 1.392 . S
C16 C15 1.390 . S
C16 H28 0.929 . S
O17 Tb1 2.326 . S
O17 C5 1.242 . S
O18 Eu2 2.324 . S
O18 C5 1.258 . S
O19 Tb1 2.500 . S
O19 C21 1.273 . S
O20 Tb1 2.473 . S
O20 C21 1.257 . S
C21 O19 1.273 . S
C21 O20 1.257 . S
O22 Eu2 2.326 . S
O22 C10 1.242 . S
O23 Tb1 2.324 . S
O23 C10 1.258 . S
O24 Eu2 2.500 . S
O24 C7 1.273 . S
O25 Eu2 2.473 . S
O25 C7 1.257 . S
H26 C12 0.929 . S
H27 C14 0.931 . S
H28 C16 0.929 . S
O29 Tb30 2.292 . S
O29 C32 1.255 . S
Tb30 O29 2.292 . S
Tb30 O46 2.326 . S
Tb30 O48 2.500 . S
Tb30 O49 2.473 . S
Tb30 O52 2.324 . S
Eu31 O35 2.292 . S
Eu31 C36 2.852 . S
Eu31 O47 2.324 . S
Eu31 O51 2.326 . S
Eu31 O53 2.500 . S
Eu31 O54 2.473 . S
C32 O29 1.255 . S
C32 O33 1.247 . S
O33 C32 1.247 . S
C34 O46 1.242 . S
C34 O47 1.258 . S
O35 Eu31 2.292 . S
O35 C37 1.255 . S
C36 Eu31 2.852 . S
C36 C40 1.503 . S
C36 O53 1.273 . S
C36 O54 1.257 . S
C37 O35 1.255 . S
C37 O38 1.247 . S
O38 C37 1.247 . S
C39 O51 1.242 . S
C39 O52 1.258 . S
C40 C36 1.503 . S
C40 C41 1.379 . S
C40 C45 1.392 . S
C41 C40 1.379 . S
C41 C42 1.404 . S
C41 H55 0.929 . S
C42 C41 1.404 . S
C42 C43 1.389 1_545 S
C43 C42 1.389 1_565 S
C43 C44 1.399 1_565 S
C43 H56 0.931 . S
C44 C43 1.399 1_545 S
C44 C45 1.390 . S
C45 C40 1.392 . S
C45 C44 1.390 . S
C45 H57 0.929 . S
O46 Tb30 2.326 . S
O46 C34 1.242 . S
O47 Eu31 2.324 . S
O47 C34 1.258 . S
O48 Tb30 2.500 . S
O48 C50 1.273 . S
O49 Tb30 2.473 . S
O49 C50 1.257 . S
C50 O48 1.273 . S
C50 O49 1.257 . S
O51 Eu31 2.326 . S
O51 C39 1.242 . S
O52 Tb30 2.324 . S
O52 C39 1.258 . S
O53 Eu31 2.500 . S
O53 C36 1.273 . S
O54 Eu31 2.473 . S
O54 C36 1.257 . S
H55 C41 0.929 . S
H56 C43 0.931 . S
H57 C45 0.929 . S
O58 Tb59 2.292 . S
O58 C61 1.255 . S
Tb59 O58 2.292 . S
Tb59 O75 2.326 . S
Tb59 O77 2.500 . S
Tb59 O78 2.473 . S
Tb59 O81 2.324 . S
Eu60 O64 2.292 . S
Eu60 C65 2.852 . S
Eu60 O76 2.324 . S
Eu60 O80 2.326 . S
Eu60 O82 2.500 . S
Eu60 O83 2.473 . S
C61 O58 1.255 . S
C61 O62 1.247 . S
O62 C61 1.247 . S
C63 O75 1.242 . S
C63 O76 1.258 . S
O64 Eu60 2.292 . S
O64 C66 1.255 . S
C65 Eu60 2.852 . S
C65 C69 1.503 . S
C65 O82 1.273 . S
C65 O83 1.257 . S
C66 O64 1.255 . S
C66 O67 1.247 . S
O67 C66 1.247 . S
C68 O80 1.242 . S
C68 O81 1.258 . S
C69 C65 1.503 . S
C69 C70 1.379 . S
C69 C74 1.392 . S
C70 C69 1.379 . S
C70 C71 1.404 . S
C70 H84 0.929 . S
C71 C70 1.404 . S
C71 C72 1.389 1_655 S
C72 C71 1.389 1_455 S
C72 C73 1.399 1_455 S
C72 H85 0.931 . S
C73 C72 1.399 1_655 S
C73 C74 1.390 . S
C74 C69 1.392 . S
C74 C73 1.390 . S
C74 H86 0.929 . S
O75 Tb59 2.326 . S
O75 C63 1.242 . S
O76 Eu60 2.324 . S
O76 C63 1.258 . S
O77 Tb59 2.500 . S
O77 C79 1.273 . S
O78 Tb59 2.473 . S
O78 C79 1.257 . S
C79 O77 1.273 . S
C79 O78 1.257 . S
O80 Eu60 2.326 . S
O80 C68 1.242 . S
O81 Tb59 2.324 . S
O81 C68 1.258 . S
O82 Eu60 2.500 . S
O82 C65 1.273 . S
O83 Eu60 2.473 . S
O83 C65 1.257 . S
H84 C70 0.929 . S
H85 C72 0.931 . S
H86 C74 0.929 . S
O87 Tb88 2.292 . S
O87 C90 1.255 . S
Tb88 O87 2.292 . S
Tb88 O104 2.326 . S
Tb88 O106 2.500 . S
Tb88 O107 2.473 . S
Tb88 O110 2.324 . S
Eu89 O93 2.292 . S
Eu89 C94 2.852 . S
Eu89 O105 2.324 . S
Eu89 O109 2.326 . S
Eu89 O111 2.500 . S
Eu89 O112 2.473 . S
C90 O87 1.255 . S
C90 O91 1.247 . S
O91 C90 1.247 . S
C92 O104 1.242 . S
C92 O105 1.258 . S
O93 Eu89 2.292 . S
O93 C95 1.255 . S
C94 Eu89 2.852 . S
C94 C98 1.503 . S
C94 O111 1.273 . S
C94 O112 1.257 . S
C95 O93 1.255 . S
C95 O96 1.247 . S
O96 C95 1.247 . S
C97 O109 1.242 . S
C97 O110 1.258 . S
C98 C94 1.503 . S
C98 C99 1.379 . S
C98 C103 1.392 . S
C99 C98 1.379 . S
C99 C100 1.404 . S
C99 H113 0.929 . S
C100 C99 1.404 . S
C100 C101 1.389 1_565 S
C101 C100 1.389 1_545 S
C101 C102 1.399 1_545 S
C101 H114 0.931 . S
C102 C101 1.399 1_565 S
C102 C103 1.390 . S
C103 C98 1.392 . S
C103 C102 1.390 . S
C103 H115 0.929 . S
O104 Tb88 2.326 . S
O104 C92 1.242 . S
O105 Eu89 2.324 . S
O105 C92 1.258 . S
O106 Tb88 2.500 . S
O106 C108 1.273 . S
O107 Tb88 2.473 . S
O107 C108 1.257 . S
C108 O106 1.273 . S
C108 O107 1.257 . S
O109 Eu89 2.326 . S
O109 C97 1.242 . S
O110 Tb88 2.324 . S
O110 C97 1.258 . S
O111 Eu89 2.500 . S
O111 C94 1.273 . S
O112 Eu89 2.473 . S
O112 C94 1.257 . S
H113 C99 0.929 . S
H114 C101 0.931 . S
H115 C103 0.929 . S
O116 Tb117 2.292 . S
O116 C119 1.255 . S
Tb117 O116 2.292 . S
Tb117 O133 2.326 . S
Tb117 O135 2.500 . S
Tb117 O136 2.473 . S
Tb117 O139 2.324 . S
Eu118 O122 2.292 . S
Eu118 C123 2.852 . S
Eu118 O134 2.324 . S
Eu118 O138 2.326 . S
Eu118 O140 2.500 . S
Eu118 O141 2.473 . S
C119 O116 1.255 . S
C119 O120 1.247 . S
O120 C119 1.247 . S
C121 O133 1.242 . S
C121 O134 1.258 . S
O122 Eu118 2.292 . S
O122 C124 1.255 . S
C123 Eu118 2.852 . S
C123 C127 1.503 . S
C123 O140 1.273 . S
C123 O141 1.257 . S
C124 O122 1.255 . S
C124 O125 1.247 . S
O125 C124 1.247 . S
C126 O138 1.242 . S
C126 O139 1.258 . S
C127 C123 1.503 . S
C127 C128 1.379 . S
C127 C132 1.392 . S
C128 C127 1.379 . S
C128 C129 1.404 . S
C128 H142 0.929 . S
C129 C128 1.404 . S
C129 C130 1.389 1_455 S
C130 C129 1.389 1_655 S
C130 C131 1.399 1_655 S
C130 H143 0.931 . S
C131 C130 1.399 1_455 S
C131 C132 1.390 . S
C132 C127 1.392 . S
C132 C131 1.390 . S
C132 H144 0.929 . S
O133 Tb117 2.326 . S
O133 C121 1.242 . S
O134 Eu118 2.324 . S
O134 C121 1.258 . S
O135 Tb117 2.500 . S
O135 C137 1.273 . S
O136 Tb117 2.473 . S
O136 C137 1.257 . S
C137 O135 1.273 . S
C137 O136 1.257 . S
O138 Eu118 2.326 . S
O138 C126 1.242 . S
O139 Tb117 2.324 . S
O139 C126 1.258 . S
O140 Eu118 2.500 . S
O140 C123 1.273 . S
O141 Eu118 2.473 . S
O141 C123 1.257 . S
H142 C128 0.929 . S
H143 C130 0.931 . S
H144 C132 0.929 . S
O145 Tb146 2.292 . S
O145 C148 1.255 . S
Tb146 O145 2.292 . S
Tb146 O162 2.326 . S
Tb146 O164 2.500 . S
Tb146 O165 2.473 . S
Tb146 O168 2.324 . S
Eu147 O151 2.292 . S
Eu147 C152 2.852 . S
Eu147 O163 2.324 . S
Eu147 O167 2.326 . S
Eu147 O169 2.500 . S
Eu147 O170 2.473 . S
C148 O145 1.255 . S
C148 O149 1.247 . S
O149 C148 1.247 . S
C150 O162 1.242 . S
C150 O163 1.258 . S
O151 Eu147 2.292 . S
O151 C153 1.255 . S
C152 Eu147 2.852 . S
C152 C156 1.503 . S
C152 O169 1.273 . S
C152 O170 1.257 . S
C153 O151 1.255 . S
C153 O154 1.247 . S
O154 C153 1.247 . S
C155 O167 1.242 . S
C155 O168 1.258 . S
C156 C152 1.503 . S
C156 C157 1.379 . S
C156 C161 1.392 . S
C157 C156 1.379 . S
C157 C158 1.404 . S
C157 H171 0.929 . S
C158 C157 1.404 . S
C158 C159 1.389 1_545 S
C159 C158 1.389 1_565 S
C159 C160 1.399 1_565 S
C159 H172 0.931 . S
C160 C159 1.399 1_545 S
C160 C161 1.390 . S
C161 C156 1.392 . S
C161 C160 1.390 . S
C161 H173 0.929 . S
O162 Tb146 2.326 . S
O162 C150 1.242 . S
O163 Eu147 2.324 . S
O163 C150 1.258 . S
O164 Tb146 2.500 . S
O164 C166 1.273 . S
O165 Tb146 2.473 . S
O165 C166 1.257 . S
C166 O164 1.273 . S
C166 O165 1.257 . S
O167 Eu147 2.326 . S
O167 C155 1.242 . S
O168 Tb146 2.324 . S
O168 C155 1.258 . S
O169 Eu147 2.500 . S
O169 C152 1.273 . S
O170 Eu147 2.473 . S
O170 C152 1.257 . S
H171 C157 0.929 . S
H172 C159 0.931 . S
H173 C161 0.929 . S
O174 Tb175 2.292 . S
O174 C177 1.255 . S
Tb175 O174 2.292 . S
Tb175 O191 2.326 . S
Tb175 O193 2.500 . S
Tb175 O194 2.473 . S
Tb175 O197 2.324 . S
Eu176 O180 2.292 . S
Eu176 C181 2.852 . S
Eu176 O192 2.324 . S
Eu176 O196 2.326 . S
Eu176 O198 2.500 . S
Eu176 O199 2.473 . S
C177 O174 1.255 . S
C177 O178 1.247 . S
O178 C177 1.247 . S
C179 O191 1.242 . S
C179 O192 1.258 . S
O180 Eu176 2.292 . S
O180 C182 1.255 . S
C181 Eu176 2.852 . S
C181 C185 1.503 . S
C181 O198 1.273 . S
C181 O199 1.257 . S
C182 O180 1.255 . S
C182 O183 1.247 . S
O183 C182 1.247 . S
C184 O196 1.242 . S
C184 O197 1.258 . S
C185 C181 1.503 . S
C185 C186 1.379 . S
C185 C190 1.392 . S
C186 C185 1.379 . S
C186 C187 1.404 . S
C186 H200 0.929 . S
C187 C186 1.404 . S
C187 C188 1.389 1_655 S
C188 C187 1.389 1_455 S
C188 C189 1.399 1_455 S
C188 H201 0.931 . S
C189 C188 1.399 1_655 S
C189 C190 1.390 . S
C190 C185 1.392 . S
C190 C189 1.390 . S
C190 H202 0.929 . S
O191 Tb175 2.326 . S
O191 C179 1.242 . S
O192 Eu176 2.324 . S
O192 C179 1.258 . S
O193 Tb175 2.500 . S
O193 C195 1.273 . S
O194 Tb175 2.473 . S
O194 C195 1.257 . S
C195 O193 1.273 . S
C195 O194 1.257 . S
O196 Eu176 2.326 . S
O196 C184 1.242 . S
O197 Tb175 2.324 . S
O197 C184 1.258 . S
O198 Eu176 2.500 . S
O198 C181 1.273 . S
O199 Eu176 2.473 . S
O199 C181 1.257 . S
H200 C186 0.929 . S
H201 C188 0.931 . S
H202 C190 0.929 . S
O203 Tb204 2.292 . S
O203 C206 1.255 . S
Tb204 O203 2.292 . S
Tb204 O220 2.326 . S
Tb204 O222 2.500 . S
Tb204 O223 2.473 . S
Tb204 O226 2.324 . S
Eu205 O209 2.292 . S
Eu205 C210 2.852 . S
Eu205 O221 2.324 . S
Eu205 O225 2.326 . S
Eu205 O227 2.500 . S
Eu205 O228 2.473 . S
C206 O203 1.255 . S
C206 O207 1.247 . S
O207 C206 1.247 . S
C208 O220 1.242 . S
C208 O221 1.258 . S
O209 Eu205 2.292 . S
O209 C211 1.255 . S
C210 Eu205 2.852 . S
C210 C214 1.503 . S
C210 O227 1.273 . S
C210 O228 1.257 . S
C211 O209 1.255 . S
C211 O212 1.247 . S
O212 C211 1.247 . S
C213 O225 1.242 . S
C213 O226 1.258 . S
C214 C210 1.503 . S
C214 C215 1.379 . S
C214 C219 1.392 . S
C215 C214 1.379 . S
C215 C216 1.404 . S
C215 H229 0.929 . S
C216 C215 1.404 . S
C216 C217 1.389 1_565 S
C217 C216 1.389 1_545 S
C217 C218 1.399 1_545 S
C217 H230 0.931 . S
C218 C217 1.399 1_565 S
C218 C219 1.390 . S
C219 C214 1.392 . S
C219 C218 1.390 . S
C219 H231 0.929 . S
O220 Tb204 2.326 . S
O220 C208 1.242 . S
O221 Eu205 2.324 . S
O221 C208 1.258 . S
O222 Tb204 2.500 . S
O222 C224 1.273 . S
O223 Tb204 2.473 . S
O223 C224 1.257 . S
C224 O222 1.273 . S
C224 O223 1.257 . S
O225 Eu205 2.326 . S
O225 C213 1.242 . S
O226 Tb204 2.324 . S
O226 C213 1.258 . S
O227 Eu205 2.500 . S
O227 C210 1.273 . S
O228 Eu205 2.473 . S
O228 C210 1.257 . S
H229 C215 0.929 . S
H230 C217 0.931 . S
H231 C219 0.929 . S
O232 Tb233 2.292 . S
O232 C235 1.255 . S
Tb233 O232 2.292 . S
Tb233 O249 2.326 . S
Tb233 O251 2.500 . S
Tb233 O252 2.473 . S
Tb233 O255 2.324 . S
Eu234 O238 2.292 . S
Eu234 C239 2.852 . S
Eu234 O250 2.324 . S
Eu234 O254 2.326 . S
Eu234 O256 2.500 . S
Eu234 O257 2.473 . S
C235 O232 1.255 . S
C235 O236 1.247 . S
O236 C235 1.247 . S
C237 O249 1.242 . S
C237 O250 1.258 . S
O238 Eu234 2.292 . S
O238 C240 1.255 . S
C239 Eu234 2.852 . S
C239 C243 1.503 . S
C239 O256 1.273 . S
C239 O257 1.257 . S
C240 O238 1.255 . S
C240 O241 1.247 . S
O241 C240 1.247 . S
C242 O254 1.242 . S
C242 O255 1.258 . S
C243 C239 1.503 . S
C243 C244 1.379 . S
C243 C248 1.392 . S
C244 C243 1.379 . S
C244 C245 1.404 . S
C244 H258 0.929 . S
C245 C244 1.404 . S
C245 C246 1.389 . S
C246 C245 1.389 . S
C246 C247 1.399 . S
C246 H259 0.931 . S
C247 C246 1.399 . S
C247 C248 1.390 . S
C248 C243 1.392 . S
C248 C247 1.390 . S
C248 H260 0.929 . S
O249 Tb233 2.326 . S
O249 C237 1.242 . S
O250 Eu234 2.324 . S
O250 C237 1.258 . S
O251 Tb233 2.500 . S
O251 C253 1.273 . S
O252 Tb233 2.473 . S
O252 C253 1.257 . S
C253 O251 1.273 . S
C253 O252 1.257 . S
O254 Eu234 2.326 . S
O254 C242 1.242 . S
O255 Tb233 2.324 . S
O255 C242 1.258 . S
O256 Eu234 2.500 . S
O256 C239 1.273 . S
O257 Eu234 2.473 . S
O257 C239 1.257 . S
H258 C244 0.929 . S
H259 C246 0.931 . S
H260 C248 0.929 . S
O261 Tb262 2.292 . S
O261 C264 1.255 . S
Tb262 O261 2.292 . S
Tb262 O278 2.326 . S
Tb262 O280 2.500 . S
Tb262 O281 2.473 . S
Tb262 O284 2.324 . S
Eu263 O267 2.292 . S
Eu263 C268 2.852 . S
Eu263 O279 2.324 . S
Eu263 O283 2.326 . S
Eu263 O285 2.500 . S
Eu263 O286 2.473 . S
C264 O261 1.255 . S
C264 O265 1.247 . S
O265 C264 1.247 . S
C266 O278 1.242 . S
C266 O279 1.258 . S
O267 Eu263 2.292 . S
O267 C269 1.255 . S
C268 Eu263 2.852 . S
C268 C272 1.503 . S
C268 O285 1.273 . S
C268 O286 1.257 . S
C269 O267 1.255 . S
C269 O270 1.247 . S
O270 C269 1.247 . S
C271 O283 1.242 . S
C271 O284 1.258 . S
C272 C268 1.503 . S
C272 C273 1.379 . S
C272 C277 1.392 . S
C273 C272 1.379 . S
C273 C274 1.404 . S
C273 H287 0.929 . S
C274 C273 1.404 . S
C274 C275 1.389 . S
C275 C274 1.389 . S
C275 C276 1.399 . S
C275 H288 0.931 . S
C276 C275 1.399 . S
C276 C277 1.390 . S
C277 C272 1.392 . S
C277 C276 1.390 . S
C277 H289 0.929 . S
O278 Tb262 2.326 . S
O278 C266 1.242 . S
O279 Eu263 2.324 . S
O279 C266 1.258 . S
O280 Tb262 2.500 . S
O280 C282 1.273 . S
O281 Tb262 2.473 . S
O281 C282 1.257 . S
C282 O280 1.273 . S
C282 O281 1.257 . S
O283 Eu263 2.326 . S
O283 C271 1.242 . S
O284 Tb262 2.324 . S
O284 C271 1.258 . S
O285 Eu263 2.500 . S
O285 C268 1.273 . S
O286 Eu263 2.473 . S
O286 C268 1.257 . S
H287 C273 0.929 . S
H288 C275 0.931 . S
H289 C277 0.929 . S
O290 Tb291 2.292 . S
O290 C293 1.255 . S
Tb291 O290 2.292 . S
Tb291 O307 2.326 . S
Tb291 O309 2.500 . S
Tb291 O310 2.473 . S
Tb291 O313 2.324 . S
Eu292 O296 2.292 . S
Eu292 C297 2.852 . S
Eu292 O308 2.324 . S
Eu292 O312 2.326 . S
Eu292 O314 2.500 . S
Eu292 O315 2.473 . S
C293 O290 1.255 . S
C293 O294 1.247 . S
O294 C293 1.247 . S
C295 O307 1.242 . S
C295 O308 1.258 . S
O296 Eu292 2.292 . S
O296 C298 1.255 . S
C297 Eu292 2.852 . S
C297 C301 1.503 . S
C297 O314 1.273 . S
C297 O315 1.257 . S
C298 O296 1.255 . S
C298 O299 1.247 . S
O299 C298 1.247 . S
C300 O312 1.242 . S
C300 O313 1.258 . S
C301 C297 1.503 . S
C301 C302 1.379 . S
C301 C306 1.392 . S
C302 C301 1.379 . S
C302 C303 1.404 . S
C302 H316 0.929 . S
C303 C302 1.404 . S
C303 C304 1.389 . S
C304 C303 1.389 . S
C304 C305 1.399 . S
C304 H317 0.931 . S
C305 C304 1.399 . S
C305 C306 1.390 . S
C306 C301 1.392 . S
C306 C305 1.390 . S
C306 H318 0.929 . S
O307 Tb291 2.326 . S
O307 C295 1.242 . S
O308 Eu292 2.324 . S
O308 C295 1.258 . S
O309 Tb291 2.500 . S
O309 C311 1.273 . S
O310 Tb291 2.473 . S
O310 C311 1.257 . S
C311 O309 1.273 . S
C311 O310 1.257 . S
O312 Eu292 2.326 . S
O312 C300 1.242 . S
O313 Tb291 2.324 . S
O313 C300 1.258 . S
O314 Eu292 2.500 . S
O314 C297 1.273 . S
O315 Eu292 2.473 . S
O315 C297 1.257 . S
H316 C302 0.929 . S
H317 C304 0.931 . S
H318 C306 0.929 . S
O319 Tb320 2.292 . S
O319 C322 1.255 . S
Tb320 O319 2.292 . S
Tb320 O336 2.326 . S
Tb320 O338 2.500 . S
Tb320 O339 2.473 . S
Tb320 O342 2.324 . S
Eu321 O325 2.292 . S
Eu321 C326 2.852 . S
Eu321 O337 2.324 . S
Eu321 O341 2.326 . S
Eu321 O343 2.500 . S
Eu321 O344 2.473 . S
C322 O319 1.255 . S
C322 O323 1.247 . S
O323 C322 1.247 . S
C324 O336 1.242 . S
C324 O337 1.258 . S
O325 Eu321 2.292 . S
O325 C327 1.255 . S
C326 Eu321 2.852 . S
C326 C330 1.503 . S
C326 O343 1.273 . S
C326 O344 1.257 . S
C327 O325 1.255 . S
C327 O328 1.247 . S
O328 C327 1.247 . S
C329 O341 1.242 . S
C329 O342 1.258 . S
C330 C326 1.503 . S
C330 C331 1.379 . S
C330 C335 1.392 . S
C331 C330 1.379 . S
C331 C332 1.404 . S
C331 H345 0.929 . S
C332 C331 1.404 . S
C332 C333 1.389 . S
C333 C332 1.389 . S
C333 C334 1.399 . S
C333 H346 0.931 . S
C334 C333 1.399 . S
C334 C335 1.390 . S
C335 C330 1.392 . S
C335 C334 1.390 . S
C335 H347 0.929 . S
O336 Tb320 2.326 . S
O336 C324 1.242 . S
O337 Eu321 2.324 . S
O337 C324 1.258 . S
O338 Tb320 2.500 . S
O338 C340 1.273 . S
O339 Tb320 2.473 . S
O339 C340 1.257 . S
C340 O338 1.273 . S
C340 O339 1.257 . S
O341 Eu321 2.326 . S
O341 C329 1.242 . S
O342 Tb320 2.324 . S
O342 C329 1.258 . S
O343 Eu321 2.500 . S
O343 C326 1.273 . S
O344 Eu321 2.473 . S
O344 C326 1.257 . S
H345 C331 0.929 . S
H346 C333 0.931 . S
H347 C335 0.929 . S
O348 Tb349 2.292 . S
O348 C351 1.255 . S
Tb349 O348 2.292 . S
Tb349 O365 2.326 . S
Tb349 O367 2.500 . S
Tb349 O368 2.473 . S
Tb349 O371 2.324 . S
Eu350 O354 2.292 . S
Eu350 C355 2.852 . S
Eu350 O366 2.324 . S
Eu350 O370 2.326 . S
Eu350 O372 2.500 . S
Eu350 O373 2.473 . S
C351 O348 1.255 . S
C351 O352 1.247 . S
O352 C351 1.247 . S
C353 O365 1.242 . S
C353 O366 1.258 . S
O354 Eu350 2.292 . S
O354 C356 1.255 . S
C355 Eu350 2.852 . S
C355 C359 1.503 . S
C355 O372 1.273 . S
C355 O373 1.257 . S
C356 O354 1.255 . S
C356 O357 1.247 . S
O357 C356 1.247 . S
C358 O370 1.242 . S
C358 O371 1.258 . S
C359 C355 1.503 . S
C359 C360 1.379 . S
C359 C364 1.392 . S
C360 C359 1.379 . S
C360 C361 1.404 . S
C360 H374 0.929 . S
C361 C360 1.404 . S
C361 C362 1.389 . S
C362 C361 1.389 . S
C362 C363 1.399 . S
C362 H375 0.931 . S
C363 C362 1.399 . S
C363 C364 1.390 . S
C364 C359 1.392 . S
C364 C363 1.390 . S
C364 H376 0.929 . S
O365 Tb349 2.326 . S
O365 C353 1.242 . S
O366 Eu350 2.324 . S
O366 C353 1.258 . S
O367 Tb349 2.500 . S
O367 C369 1.273 . S
O368 Tb349 2.473 . S
O368 C369 1.257 . S
C369 O367 1.273 . S
C369 O368 1.257 . S
O370 Eu350 2.326 . S
O370 C358 1.242 . S
O371 Tb349 2.324 . S
O371 C358 1.258 . S
O372 Eu350 2.500 . S
O372 C355 1.273 . S
O373 Eu350 2.473 . S
O373 C355 1.257 . S
H374 C360 0.929 . S
H375 C362 0.931 . S
H376 C364 0.929 . S
O377 Tb378 2.292 . S
O377 C380 1.255 . S
Tb378 O377 2.292 . S
Tb378 O394 2.326 . S
Tb378 O396 2.500 . S
Tb378 O397 2.473 . S
Tb378 O400 2.324 . S
Eu379 O383 2.292 . S
Eu379 C384 2.852 . S
Eu379 O395 2.324 . S
Eu379 O399 2.326 . S
Eu379 O401 2.500 . S
Eu379 O402 2.473 . S
C380 O377 1.255 . S
C380 O381 1.247 . S
O381 C380 1.247 . S
C382 O394 1.242 . S
C382 O395 1.258 . S
O383 Eu379 2.292 . S
O383 C385 1.255 . S
C384 Eu379 2.852 . S
C384 C388 1.503 . S
C384 O401 1.273 . S
C384 O402 1.257 . S
C385 O383 1.255 . S
C385 O386 1.247 . S
O386 C385 1.247 . S
C387 O399 1.242 . S
C387 O400 1.258 . S
C388 C384 1.503 . S
C388 C389 1.379 . S
C388 C393 1.392 . S
C389 C388 1.379 . S
C389 C390 1.404 . S
C389 H403 0.929 . S
C390 C389 1.404 . S
C390 C391 1.389 . S
C391 C390 1.389 . S
C391 C392 1.399 . S
C391 H404 0.931 . S
C392 C391 1.399 . S
C392 C393 1.390 . S
C393 C388 1.392 . S
C393 C392 1.390 . S
C393 H405 0.929 . S
O394 Tb378 2.326 . S
O394 C382 1.242 . S
O395 Eu379 2.324 . S
O395 C382 1.258 . S
O396 Tb378 2.500 . S
O396 C398 1.273 . S
O397 Tb378 2.473 . S
O397 C398 1.257 . S
C398 O396 1.273 . S
C398 O397 1.257 . S
O399 Eu379 2.326 . S
O399 C387 1.242 . S
O400 Tb378 2.324 . S
O400 C387 1.258 . S
O401 Eu379 2.500 . S
O401 C384 1.273 . S
O402 Eu379 2.473 . S
O402 C384 1.257 . S
H403 C389 0.929 . S
H404 C391 0.931 . S
H405 C393 0.929 . S
O406 Tb407 2.292 . S
O406 C409 1.255 . S
Tb407 O406 2.292 . S
Tb407 O423 2.326 . S
Tb407 O425 2.500 . S
Tb407 O426 2.473 . S
Tb407 O429 2.324 . S
Eu408 O412 2.292 . S
Eu408 C413 2.852 . S
Eu408 O424 2.324 . S
Eu408 O428 2.326 . S
Eu408 O430 2.500 . S
Eu408 O431 2.473 . S
C409 O406 1.255 . S
C409 O410 1.247 . S
O410 C409 1.247 . S
C411 O423 1.242 . S
C411 O424 1.258 . S
O412 Eu408 2.292 . S
O412 C414 1.255 . S
C413 Eu408 2.852 . S
C413 C417 1.503 . S
C413 O430 1.273 . S
C413 O431 1.257 . S
C414 O412 1.255 . S
C414 O415 1.247 . S
O415 C414 1.247 . S
C416 O428 1.242 . S
C416 O429 1.258 . S
C417 C413 1.503 . S
C417 C418 1.379 . S
C417 C422 1.392 . S
C418 C417 1.379 . S
C418 C419 1.404 . S
C418 H432 0.929 . S
C419 C418 1.404 . S
C419 C420 1.389 . S
C420 C419 1.389 . S
C420 C421 1.399 . S
C420 H433 0.931 . S
C421 C420 1.399 . S
C421 C422 1.390 . S
C422 C417 1.392 . S
C422 C421 1.390 . S
C422 H434 0.929 . S
O423 Tb407 2.326 . S
O423 C411 1.242 . S
O424 Eu408 2.324 . S
O424 C411 1.258 . S
O425 Tb407 2.500 . S
O425 C427 1.273 . S
O426 Tb407 2.473 . S
O426 C427 1.257 . S
C427 O425 1.273 . S
C427 O426 1.257 . S
O428 Eu408 2.326 . S
O428 C416 1.242 . S
O429 Tb407 2.324 . S
O429 C416 1.258 . S
O430 Eu408 2.500 . S
O430 C413 1.273 . S
O431 Eu408 2.473 . S
O431 C413 1.257 . S
H432 C418 0.929 . S
H433 C420 0.931 . S
H434 C422 0.929 . S
O435 Tb436 2.292 . S
O435 C438 1.255 . S
Tb436 O435 2.292 . S
Tb436 O452 2.326 . S
Tb436 O454 2.500 . S
Tb436 O455 2.473 . S
Tb436 O458 2.324 . S
Eu437 O441 2.292 . S
Eu437 C442 2.852 . S
Eu437 O453 2.324 . S
Eu437 O457 2.326 . S
Eu437 O459 2.500 . S
Eu437 O460 2.473 . S
C438 O435 1.255 . S
C438 O439 1.247 . S
O439 C438 1.247 . S
C440 O452 1.242 . S
C440 O453 1.258 . S
O441 Eu437 2.292 . S
O441 C443 1.255 . S
C442 Eu437 2.852 . S
C442 C446 1.503 . S
C442 O459 1.273 . S
C442 O460 1.257 . S
C443 O441 1.255 . S
C443 O444 1.247 . S
O444 C443 1.247 . S
C445 O457 1.242 . S
C445 O458 1.258 . S
C446 C442 1.503 . S
C446 C447 1.379 . S
C446 C451 1.392 . S
C447 C446 1.379 . S
C447 C448 1.404 . S
C447 H461 0.929 . S
C448 C447 1.404 . S
C448 C449 1.389 . S
C449 C448 1.389 . S
C449 C450 1.399 . S
C449 H462 0.931 . S
C450 C449 1.399 . S
C450 C451 1.390 . S
C451 C446 1.392 . S
C451 C450 1.390 . S
C451 H463 0.929 . S
O452 Tb436 2.326 . S
O452 C440 1.242 . S
O453 Eu437 2.324 . S
O453 C440 1.258 . S
O454 Tb436 2.500 . S
O454 C456 1.273 . S
O455 Tb436 2.473 . S
O455 C456 1.257 . S
C456 O454 1.273 . S
C456 O455 1.257 . S
O457 Eu437 2.326 . S
O457 C445 1.242 . S
O458 Tb436 2.324 . S
O458 C445 1.258 . S
O459 Eu437 2.500 . S
O459 C442 1.273 . S
O460 Eu437 2.473 . S
O460 C442 1.257 . S
H461 C447 0.929 . S
H462 C449 0.931 . S
H463 C451 0.929 . S
C464 C465 1.369 . S
C464 C466 1.419 1_554 S
C464 H468 0.930 . S
C465 C464 1.369 . S
C465 C474 1.429 . S
C466 C464 1.419 1_556 S
C466 C467 1.363 . S
C466 H469 0.929 . S
C467 C466 1.363 . S
C467 C473 1.428 . S
H468 C464 0.930 . S
H469 C466 0.929 . S
S470 N471 1.613 1_556 S
S470 N472 1.610 . S
N471 S470 1.613 1_554 S
N471 C474 1.350 . S
N472 S470 1.610 . S
N472 C473 1.351 . S
C473 C467 1.428 . S
C473 N472 1.351 . S
C473 C474 1.434 1_556 S
C474 C465 1.429 . S
C474 N471 1.350 . S
C474 C473 1.434 1_554 S
C475 C476 1.369 . S
C475 C477 1.419 1_554 S
C475 H479 0.930 . S
C476 C475 1.369 . S
C476 C485 1.429 . S
C477 C475 1.419 1_556 S
C477 C478 1.363 . S
C477 H480 0.929 . S
C478 C477 1.363 . S
C478 C484 1.428 . S
H479 C475 0.930 . S
H480 C477 0.929 . S
S481 N482 1.613 1_556 S
S481 N483 1.610 . S
N482 S481 1.613 1_554 S
N482 C485 1.350 . S
N483 S481 1.610 . S
N483 C484 1.351 . S
C484 C478 1.428 . S
C484 N483 1.351 . S
C484 C485 1.434 1_556 S
C485 C476 1.429 . S
C485 N482 1.350 . S
C485 C484 1.434 1_554 S
C486 C487 1.369 . S
C486 C488 1.411 1_556 S
C486 H490 0.930 . S
C487 C486 1.369 . S
C487 C496 1.429 1_556 S
C488 C486 1.411 1_554 S
C488 C489 1.371 . S
C488 H491 0.928 1_554 S
C489 C488 1.371 . S
C489 C495 1.428 . S
H490 C486 0.930 . S
H491 C488 0.928 1_556 S
S492 N493 1.613 . S
S492 N494 1.610 . S
N493 S492 1.613 . S
N493 C496 1.350 . S
N494 S492 1.610 . S
N494 C495 1.351 . S
C495 C489 1.428 . S
C495 N494 1.351 . S
C495 C496 1.434 . S
C496 C487 1.429 1_554 S
C496 N493 1.350 . S
C496 C495 1.434 . S
C497 C498 1.369 . S
C497 C499 1.419 1_556 S
C497 H501 0.930 . S
C498 C497 1.369 . S
C498 C507 1.429 . S
C499 C497 1.419 1_554 S
C499 C500 1.363 . S
C499 H502 0.929 . S
C500 C499 1.363 . S
C500 C506 1.428 . S
H501 C497 0.930 . S
H502 C499 0.929 . S
S503 N504 1.613 . S
S503 N505 1.610 1_556 S
N504 S503 1.613 . S
N504 C507 1.350 . S
N505 S503 1.610 1_554 S
N505 C506 1.351 . S
C506 C500 1.428 . S
C506 N505 1.351 . S
C506 C507 1.434 1_554 S
C507 C498 1.429 . S
C507 N504 1.350 . S
C507 C506 1.434 1_556 S
C508 C509 1.369 . S
C508 C510 1.419 . S
C508 H512 0.930 . S
C509 C508 1.369 . S
C509 C518 1.429 . S
C510 C508 1.419 . S
C510 C511 1.363 . S
C510 H513 0.929 . S
C511 C510 1.363 . S
C511 C517 1.428 . S
H512 C508 0.930 . S
H513 C510 0.929 . S
S514 N515 1.613 . S
S514 N516 1.610 . S
N515 S514 1.613 . S
N515 C518 1.350 . S
N516 S514 1.610 . S
N516 C517 1.351 . S
C517 C511 1.428 . S
C517 N516 1.351 . S
C517 C518 1.434 . S
C518 C509 1.429 . S
C518 N515 1.350 . S
C518 C517 1.434 . S
C519 C520 1.369 . S
C519 C521 1.419 . S
C519 H523 0.930 . S
C520 C519 1.369 . S
C520 C529 1.429 . S
C521 C519 1.419 . S
C521 C522 1.363 . S
C521 H524 0.929 . S
C522 C521 1.363 . S
C522 C528 1.428 . S
H523 C519 0.930 . S
H524 C521 0.929 . S
S525 N526 1.613 . S
S525 N527 1.610 . S
N526 S525 1.613 . S
N526 C529 1.350 . S
N527 S525 1.610 . S
N527 C528 1.351 . S
C528 C522 1.428 . S
C528 N527 1.351 . S
C528 C529 1.434 . S
C529 C520 1.429 . S
C529 N526 1.350 . S
C529 C528 1.434 . S
C530 C531 1.369 . S
C530 C532 1.419 . S
C530 H534 0.930 . S
C531 C530 1.369 . S
C531 C540 1.429 . S
C532 C530 1.419 . S
C532 C533 1.363 . S
C532 H535 0.929 . S
C533 C532 1.363 . S
C533 C539 1.428 . S
H534 C530 0.930 . S
H535 C532 0.929 . S
S536 N537 1.613 . S
S536 N538 1.610 . S
N537 S536 1.613 . S
N537 C540 1.350 . S
N538 S536 1.610 . S
N538 C539 1.351 . S
C539 C533 1.428 . S
C539 N538 1.351 . S
C539 C540 1.434 . S
C540 C531 1.429 . S
C540 N537 1.350 . S
C540 C539 1.434 . S
C541 C542 1.369 . S
C541 C543 1.419 . S
C541 H545 0.930 . S
C542 C541 1.369 . S
C542 C551 1.429 . S
C543 C541 1.419 . S
C543 C544 1.363 . S
C543 H546 0.929 . S
C544 C543 1.363 . S
C544 C550 1.428 . S
H545 C541 0.930 . S
H546 C543 0.929 . S
S547 N548 1.613 . S
S547 N549 1.610 . S
N548 S547 1.613 . S
N548 C551 1.350 . S
N549 S547 1.610 . S
N549 C550 1.351 . S
C550 C544 1.428 . S
C550 N549 1.351 . S
C550 C551 1.434 . S
C551 C542 1.429 . S
C551 N548 1.350 . S
C551 C550 1.434 . S
C552 C553 1.369 . S
C552 C554 1.419 . S
C552 H556 0.930 . S
C553 C552 1.369 . S
C553 C562 1.429 . S
C554 C552 1.419 . S
C554 C555 1.363 . S
C554 H557 0.929 . S
C555 C554 1.363 . S
C555 C561 1.428 . S
H556 C552 0.930 . S
H557 C554 0.929 . S
S558 N559 1.613 . S
S558 N560 1.610 . S
N559 S558 1.613 . S
N559 C562 1.350 . S
N560 S558 1.610 . S
N560 C561 1.351 . S
C561 C555 1.428 . S
C561 N560 1.351 . S
C561 C562 1.434 . S
C562 C553 1.429 . S
C562 N559 1.350 . S
C562 C561 1.434 . S
C563 C564 1.369 . S
C563 C565 1.419 . S
C563 H567 0.930 . S
C564 C563 1.369 . S
C564 C573 1.429 . S
C565 C563 1.419 . S
C565 C566 1.363 . S
C565 H568 0.929 . S
C566 C565 1.363 . S
C566 C572 1.428 . S
H567 C563 0.930 . S
H568 C565 0.929 . S
S569 N570 1.613 . S
S569 N571 1.610 . S
N570 S569 1.613 . S
N570 C573 1.350 . S
N571 S569 1.610 . S
N571 C572 1.351 . S
C572 C566 1.428 . S
C572 N571 1.351 . S
C572 C573 1.434 . S
C573 C564 1.429 . S
C573 N570 1.350 . S
C573 C572 1.434 . S
C574 C575 1.369 . S
C574 C576 1.419 . S
C574 H578 0.930 . S
C575 C574 1.369 . S
C575 C584 1.429 . S
C576 C574 1.419 . S
C576 C577 1.363 . S
C576 H579 0.929 . S
C577 C576 1.363 . S
C577 C583 1.428 . S
H578 C574 0.930 . S
H579 C576 0.929 . S
S580 N581 1.613 . S
S580 N582 1.610 . S
N581 S580 1.613 . S
N581 C584 1.350 . S
N582 S580 1.610 . S
N582 C583 1.351 . S
C583 C577 1.428 . S
C583 N582 1.351 . S
C583 C584 1.434 . S
C584 C575 1.429 . S
C584 N581 1.350 . S
C584 C583 1.434 . S
C585 C586 1.369 . S
C585 C587 1.419 . S
C585 H589 0.930 . S
C586 C585 1.369 . S
C586 C595 1.429 . S
C587 C585 1.419 . S
C587 C588 1.363 . S
C587 H590 0.929 . S
C588 C587 1.363 . S
C588 C594 1.428 . S
H589 C585 0.930 . S
H590 C587 0.929 . S
S591 N592 1.613 . S
S591 N593 1.610 . S
N592 S591 1.613 . S
N592 C595 1.350 . S
N593 S591 1.610 . S
N593 C594 1.351 . S
C594 C588 1.428 . S
C594 N593 1.351 . S
C594 C595 1.434 . S
C595 C586 1.429 . S
C595 N592 1.350 . S
C595 C594 1.434 . S
C596 C597 1.369 . S
C596 C598 1.419 . S
C596 H600 0.930 . S
C597 C596 1.369 . S
C597 C606 1.429 . S
C598 C596 1.419 . S
C598 C599 1.363 . S
C598 H601 0.929 . S
C599 C598 1.363 . S
C599 C605 1.428 . S
H600 C596 0.930 . S
H601 C598 0.929 . S
S602 N603 1.613 . S
S602 N604 1.610 . S
N603 S602 1.613 . S
N603 C606 1.350 . S
N604 S602 1.610 . S
N604 C605 1.351 . S
C605 C599 1.428 . S
C605 N604 1.351 . S
C605 C606 1.434 . S
C606 C597 1.429 . S
C606 N603 1.350 . S
C606 C605 1.434 . S
C607 C608 1.369 . S
C607 C609 1.419 . S
C607 H611 0.930 . S
C608 C607 1.369 . S
C608 C617 1.429 . S
C609 C607 1.419 . S
C609 C610 1.363 . S
C609 H612 0.929 . S
C610 C609 1.363 . S
C610 C616 1.428 . S
H611 C607 0.930 . S
H612 C609 0.929 . S
S613 N614 1.613 . S
S613 N615 1.610 . S
N614 S613 1.613 . S
N614 C617 1.350 . S
N615 S613 1.610 . S
N615 C616 1.351 . S
C616 C610 1.428 . S
C616 N615 1.351 . S
C616 C617 1.434 . S
C617 C608 1.429 . S
C617 N614 1.350 . S
C617 C616 1.434 . S
C618 C619 1.369 . S
C618 C620 1.419 . S
C618 H622 0.930 . S
C619 C618 1.369 . S
C619 C628 1.429 . S
C620 C618 1.419 . S
C620 C621 1.363 . S
C620 H623 0.929 . S
C621 C620 1.363 . S
C621 C627 1.428 . S
H622 C618 0.930 . S
H623 C620 0.929 . S
S624 N625 1.613 . S
S624 N626 1.610 . S
N625 S624 1.613 . S
N625 C628 1.350 . S
N626 S624 1.610 . S
N626 C627 1.351 . S
C627 C621 1.428 . S
C627 N626 1.351 . S
C627 C628 1.434 . S
C628 C619 1.429 . S
C628 N625 1.350 . S
C628 C627 1.434 . S
C629 C630 1.369 . S
C629 C631 1.419 . S
C629 H633 0.930 . S
C630 C629 1.369 . S
C630 C639 1.429 . S
C631 C629 1.419 . S
C631 C632 1.363 . S
C631 H634 0.929 . S
C632 C631 1.363 . S
C632 C638 1.428 . S
H633 C629 0.930 . S
H634 C631 0.929 . S
S635 N636 1.613 . S
S635 N637 1.610 . S
N636 S635 1.613 . S
N636 C639 1.350 . S
N637 S635 1.610 . S
N637 C638 1.351 . S
C638 C632 1.428 . S
C638 N637 1.351 . S
C638 C639 1.434 . S
C639 C630 1.429 . S
C639 N636 1.350 . S
C639 C638 1.434 . S
C640 C641 1.369 . S
C640 C642 1.419 . S
C640 H644 0.930 . S
C641 C640 1.369 . S
C641 C650 1.429 . S
C642 C640 1.419 . S
C642 C643 1.363 . S
C642 H645 0.929 . S
C643 C642 1.363 . S
C643 C649 1.428 . S
H644 C640 0.930 . S
H645 C642 0.929 . S
S646 N647 1.613 . S
S646 N648 1.610 . S
N647 S646 1.613 . S
N647 C650 1.350 . S
N648 S646 1.610 . S
N648 C649 1.351 . S
C649 C643 1.428 . S
C649 N648 1.351 . S
C649 C650 1.434 . S
C650 C641 1.429 . S
C650 N647 1.350 . S
C650 C649 1.434 . S
C651 C652 1.369 . S
C651 C653 1.419 . S
C651 H655 0.930 . S
C652 C651 1.369 . S
C652 C661 1.429 . S
C653 C651 1.419 . S
C653 C654 1.363 . S
C653 H656 0.929 . S
C654 C653 1.363 . S
C654 C660 1.428 . S
H655 C651 0.930 . S
H656 C653 0.929 . S
S657 N658 1.613 . S
S657 N659 1.610 . S
N658 S657 1.613 . S
N658 C661 1.350 . S
N659 S657 1.610 . S
N659 C660 1.351 . S
C660 C654 1.428 . S
C660 N659 1.351 . S
C660 C661 1.434 . S
C661 C652 1.429 . S
C661 N658 1.350 . S
C661 C660 1.434 . S
C662 C663 1.369 . S
C662 C664 1.419 . S
C662 H666 0.930 . S
C663 C662 1.369 . S
C663 C672 1.429 . S
C664 C662 1.419 . S
C664 C665 1.363 . S
C664 H667 0.929 . S
C665 C664 1.363 . S
C665 C671 1.428 . S
H666 C662 0.930 . S
H667 C664 0.929 . S
S668 N669 1.613 . S
S668 N670 1.610 . S
N669 S668 1.613 . S
N669 C672 1.350 . S
N670 S668 1.610 . S
N670 C671 1.351 . S
C671 C665 1.428 . S
C671 N670 1.351 . S
C671 C672 1.434 . S
C672 C663 1.429 . S
C672 N669 1.350 . S
C672 C671 1.434 . S
C673 C674 1.369 . S
C673 C675 1.419 . S
C673 H677 0.930 . S
C674 C673 1.369 . S
C674 C683 1.429 . S
C675 C673 1.419 . S
C675 C676 1.363 . S
C675 H678 0.929 . S
C676 C675 1.363 . S
C676 C682 1.428 . S
H677 C673 0.930 . S
H678 C675 0.929 . S
S679 N680 1.613 . S
S679 N681 1.610 . S
N680 S679 1.613 . S
N680 C683 1.350 . S
N681 S679 1.610 . S
N681 C682 1.351 . S
C682 C676 1.428 . S
C682 N681 1.351 . S
C682 C683 1.434 . S
C683 C674 1.429 . S
C683 N680 1.350 . S
C683 C682 1.434 . S
C684 C685 1.369 . S
C684 C686 1.419 . S
C684 H688 0.930 . S
C685 C684 1.369 . S
C685 C694 1.429 . S
C686 C684 1.419 . S
C686 C687 1.363 . S
C686 H689 0.929 . S
C687 C686 1.363 . S
C687 C693 1.428 . S
H688 C684 0.930 . S
H689 C686 0.929 . S
S690 N691 1.613 . S
S690 N692 1.610 . S
N691 S690 1.613 . S
N691 C694 1.350 . S
N692 S690 1.610 . S
N692 C693 1.351 . S
C693 C687 1.428 . S
C693 N692 1.351 . S
C693 C694 1.434 . S
C694 C685 1.429 . S
C694 N691 1.350 . S
C694 C693 1.434 . S
C695 C696 1.369 . S
C695 C697 1.419 . S
C695 H699 0.930 . S
C696 C695 1.369 . S
C696 C705 1.429 . S
C697 C695 1.419 . S
C697 C698 1.363 . S
C697 H700 0.929 . S
C698 C697 1.363 . S
C698 C704 1.428 . S
H699 C695 0.930 . S
H700 C697 0.929 . S
S701 N702 1.613 . S
S701 N703 1.610 . S
N702 S701 1.613 . S
N702 C705 1.350 . S
N703 S701 1.610 . S
N703 C704 1.351 . S
C704 C698 1.428 . S
C704 N703 1.351 . S
C704 C705 1.434 . S
C705 C696 1.429 . S
C705 N702 1.350 . S
C705 C704 1.434 . S
C706 C707 1.369 . S
C706 C708 1.419 . S
C706 H710 0.930 . S
C707 C706 1.369 . S
C707 C716 1.429 . S
C708 C706 1.419 . S
C708 C709 1.363 . S
C708 H711 0.929 . S
C709 C708 1.363 . S
C709 C715 1.428 . S
H710 C706 0.930 . S
H711 C708 0.929 . S
S712 N713 1.613 . S
S712 N714 1.610 . S
N713 S712 1.613 . S
N713 C716 1.350 . S
N714 S712 1.610 . S
N714 C715 1.351 . S
C715 C709 1.428 . S
C715 N714 1.351 . S
C715 C716 1.434 . S
C716 C707 1.429 . S
C716 N713 1.350 . S
C716 C715 1.434 . S
C717 C718 1.369 . S
C717 C719 1.419 . S
C717 H721 0.930 . S
C718 C717 1.369 . S
C718 C727 1.429 . S
C719 C717 1.419 . S
C719 C720 1.363 . S
C719 H722 0.929 . S
C720 C719 1.363 . S
C720 C726 1.428 . S
H721 C717 0.930 . S
H722 C719 0.929 . S
S723 N724 1.613 . S
S723 N725 1.610 . S
N724 S723 1.613 . S
N724 C727 1.350 . S
N725 S723 1.610 . S
N725 C726 1.351 . S
C726 C720 1.428 . S
C726 N725 1.351 . S
C726 C727 1.434 . S
C727 C718 1.429 . S
C727 N724 1.350 . S
C727 C726 1.434 . S
C728 C729 1.369 . S
C728 C730 1.419 . S
C728 H732 0.930 . S
C729 C728 1.369 . S
C729 C738 1.429 . S
C730 C728 1.419 . S
C730 C731 1.363 . S
C730 H733 0.929 . S
C731 C730 1.363 . S
C731 C737 1.428 . S
H732 C728 0.930 . S
H733 C730 0.929 . S
S734 N735 1.613 . S
S734 N736 1.610 . S
N735 S734 1.613 . S
N735 C738 1.350 . S
N736 S734 1.610 . S
N736 C737 1.351 . S
C737 C731 1.428 . S
C737 N736 1.351 . S
C737 C738 1.434 . S
C738 C729 1.429 . S
C738 N735 1.350 . S
C738 C737 1.434 . S
C739 C740 1.369 . S
C739 C741 1.419 . S
C739 H743 0.930 . S
C740 C739 1.369 . S
C740 C749 1.429 . S
C741 C739 1.419 . S
C741 C742 1.363 . S
C741 H744 0.929 . S
C742 C741 1.363 . S
C742 C748 1.428 . S
H743 C739 0.930 . S
H744 C741 0.929 . S
S745 N746 1.613 . S
S745 N747 1.610 . S
N746 S745 1.613 . S
N746 C749 1.350 . S
N747 S745 1.610 . S
N747 C748 1.351 . S
C748 C742 1.428 . S
C748 N747 1.351 . S
C748 C749 1.434 . S
C749 C740 1.429 . S
C749 N746 1.350 . S
C749 C748 1.434 . S
C750 C751 1.369 . S
C750 C752 1.419 . S
C750 H754 0.930 . S
C751 C750 1.369 . S
C751 C760 1.429 . S
C752 C750 1.419 . S
C752 C753 1.363 . S
C752 H755 0.929 . S
C753 C752 1.363 . S
C753 C759 1.428 . S
H754 C750 0.930 . S
H755 C752 0.929 . S
S756 N757 1.613 . S
S756 N758 1.610 . S
N757 S756 1.613 . S
N757 C760 1.350 . S
N758 S756 1.610 . S
N758 C759 1.351 . S
C759 C753 1.428 . S
C759 N758 1.351 . S
C759 C760 1.434 . S
C760 C751 1.429 . S
C760 N757 1.350 . S
C760 C759 1.434 . S
C761 C762 1.369 . S
C761 C763 1.419 . S
C761 H765 0.930 . S
C762 C761 1.369 . S
C762 C771 1.429 . S
C763 C761 1.419 . S
C763 C764 1.363 . S
C763 H766 0.929 . S
C764 C763 1.363 . S
C764 C770 1.428 . S
H765 C761 0.930 . S
H766 C763 0.929 . S
S767 N768 1.613 . S
S767 N769 1.610 . S
N768 S767 1.613 . S
N768 C771 1.350 . S
N769 S767 1.610 . S
N769 C770 1.351 . S
C770 C764 1.428 . S
C770 N769 1.351 . S
C770 C771 1.434 . S
C771 C762 1.429 . S
C771 N768 1.350 . S
C771 C770 1.434 . S
C772 C773 1.369 . S
C772 C774 1.419 . S
C772 H776 0.930 . S
C773 C772 1.369 . S
C773 C782 1.429 . S
C774 C772 1.419 . S
C774 C775 1.363 . S
C774 H777 0.929 . S
C775 C774 1.363 . S
C775 C781 1.428 . S
H776 C772 0.930 . S
H777 C774 0.929 . S
S778 N779 1.613 . S
S778 N780 1.610 . S
N779 S778 1.613 . S
N779 C782 1.350 . S
N780 S778 1.610 . S
N780 C781 1.351 . S
C781 C775 1.428 . S
C781 N780 1.351 . S
C781 C782 1.434 . S
C782 C773 1.429 . S
C782 N779 1.350 . S
C782 C781 1.434 . S
C783 C784 1.369 . S
C783 C785 1.419 . S
C783 H787 0.930 . S
C784 C783 1.369 . S
C784 C793 1.429 . S
C785 C783 1.419 . S
C785 C786 1.363 . S
C785 H788 0.929 . S
C786 C785 1.363 . S
C786 C792 1.428 . S
H787 C783 0.930 . S
H788 C785 0.929 . S
S789 N790 1.613 . S
S789 N791 1.610 . S
N790 S789 1.613 . S
N790 C793 1.350 . S
N791 S789 1.610 . S
N791 C792 1.351 . S
C792 C786 1.428 . S
C792 N791 1.351 . S
C792 C793 1.434 . S
C793 C784 1.429 . S
C793 N790 1.350 . S
C793 C792 1.434 . S
C794 C795 1.369 . S
C794 C796 1.419 . S
C794 H798 0.930 . S
C795 C794 1.369 . S
C795 C804 1.429 . S
C796 C794 1.419 . S
C796 C797 1.363 . S
C796 H799 0.929 . S
C797 C796 1.363 . S
C797 C803 1.428 . S
H798 C794 0.930 . S
H799 C796 0.929 . S
S800 N801 1.613 . S
S800 N802 1.610 . S
N801 S800 1.613 . S
N801 C804 1.350 . S
N802 S800 1.610 . S
N802 C803 1.351 . S
C803 C797 1.428 . S
C803 N802 1.351 . S
C803 C804 1.434 . S
C804 C795 1.429 . S
C804 N801 1.350 . S
C804 C803 1.434 . S
C805 C806 1.369 . S
C805 C807 1.419 . S
C805 H809 0.930 . S
C806 C805 1.369 . S
C806 C815 1.429 . S
C807 C805 1.419 . S
C807 C808 1.363 . S
C807 H810 0.929 . S
C808 C807 1.363 . S
C808 C814 1.428 . S
H809 C805 0.930 . S
H810 C807 0.929 . S
S811 N812 1.613 . S
S811 N813 1.610 . S
N812 S811 1.613 . S
N812 C815 1.350 . S
N813 S811 1.610 . S
N813 C814 1.351 . S
C814 C808 1.428 . S
C814 N813 1.351 . S
C814 C815 1.434 . S
C815 C806 1.429 . S
C815 N812 1.350 . S
C815 C814 1.434 . S
C816 C817 1.369 . S
C816 C818 1.419 . S
C816 H820 0.930 . S
C817 C816 1.369 . S
C817 C826 1.429 . S
C818 C816 1.419 . S
C818 C819 1.363 . S
C818 H821 0.929 . S
C819 C818 1.363 . S
C819 C825 1.428 . S
H820 C816 0.930 . S
H821 C818 0.929 . S
S822 N823 1.613 . S
S822 N824 1.610 . S
N823 S822 1.613 . S
N823 C826 1.350 . S
N824 S822 1.610 . S
N824 C825 1.351 . S
C825 C819 1.428 . S
C825 N824 1.351 . S
C825 C826 1.434 . S
C826 C817 1.429 . S
C826 N823 1.350 . S
C826 C825 1.434 . S
C827 C828 1.369 . S
C827 C829 1.419 . S
C827 H831 0.930 . S
C828 C827 1.369 . S
C828 C837 1.429 . S
C829 C827 1.419 . S
C829 C830 1.363 . S
C829 H832 0.929 . S
C830 C829 1.363 . S
C830 C836 1.428 . S
H831 C827 0.930 . S
H832 C829 0.929 . S
S833 N834 1.613 . S
S833 N835 1.610 . S
N834 S833 1.613 . S
N834 C837 1.350 . S
N835 S833 1.610 . S
N835 C836 1.351 . S
C836 C830 1.428 . S
C836 N835 1.351 . S
C836 C837 1.434 . S
C837 C828 1.429 . S
C837 N834 1.350 . S
C837 C836 1.434 . S
C838 C839 1.369 . S
C838 C840 1.419 . S
C838 H842 0.930 . S
C839 C838 1.369 . S
C839 C848 1.429 . S
C840 C838 1.419 . S
C840 C841 1.363 . S
C840 H843 0.929 . S
C841 C840 1.363 . S
C841 C847 1.428 . S
H842 C838 0.930 . S
H843 C840 0.929 . S
S844 N845 1.613 . S
S844 N846 1.610 . S
N845 S844 1.613 . S
N845 C848 1.350 . S
N846 S844 1.610 . S
N846 C847 1.351 . S
C847 C841 1.428 . S
C847 N846 1.351 . S
C847 C848 1.434 . S
C848 C839 1.429 . S
C848 N845 1.350 . S
C848 C847 1.434 . S
C849 C850 1.369 . S
C849 C851 1.419 . S
C849 H853 0.930 . S
C850 C849 1.369 . S
C850 C859 1.429 . S
C851 C849 1.419 . S
C851 C852 1.363 . S
C851 H854 0.929 . S
C852 C851 1.363 . S
C852 C858 1.428 . S
H853 C849 0.930 . S
H854 C851 0.929 . S
S855 N856 1.613 . S
S855 N857 1.610 . S
N856 S855 1.613 . S
N856 C859 1.350 . S
N857 S855 1.610 . S
N857 C858 1.351 . S
C858 C852 1.428 . S
C858 N857 1.351 . S
C858 C859 1.434 . S
C859 C850 1.429 . S
C859 N856 1.350 . S
C859 C858 1.434 . S
C860 C861 1.369 . S
C860 C862 1.419 . S
C860 H864 0.930 . S
C861 C860 1.369 . S
C861 C870 1.429 . S
C862 C860 1.419 . S
C862 C863 1.363 . S
C862 H865 0.929 . S
C863 C862 1.363 . S
C863 C869 1.428 . S
H864 C860 0.930 . S
H865 C862 0.929 . S
S866 N867 1.613 . S
S866 N868 1.610 . S
N867 S866 1.613 . S
N867 C870 1.350 . S
N868 S866 1.610 . S
N868 C869 1.351 . S
C869 C863 1.428 . S
C869 N868 1.351 . S
C869 C870 1.434 . S
C870 C861 1.429 . S
C870 N867 1.350 . S
C870 C869 1.434 . S
C871 C872 1.369 . S
C871 C873 1.419 . S
C871 H875 0.930 . S
C872 C871 1.369 . S
C872 C881 1.429 . S
C873 C871 1.419 . S
C873 C874 1.363 . S
C873 H876 0.929 . S
C874 C873 1.363 . S
C874 C880 1.428 . S
H875 C871 0.930 . S
H876 C873 0.929 . S
S877 N878 1.613 . S
S877 N879 1.610 . S
N878 S877 1.613 . S
N878 C881 1.350 . S
N879 S877 1.610 . S
N879 C880 1.351 . S
C880 C874 1.428 . S
C880 N879 1.351 . S
C880 C881 1.434 . S
C881 C872 1.429 . S
C881 N878 1.350 . S
C881 C880 1.434 . S
C882 C883 1.369 . S
C882 C884 1.419 . S
C882 H886 0.930 . S
C883 C882 1.369 . S
C883 C892 1.429 . S
C884 C882 1.419 . S
C884 C885 1.363 . S
C884 H887 0.929 . S
C885 C884 1.363 . S
C885 C891 1.428 . S
H886 C882 0.930 . S
H887 C884 0.929 . S
S888 N889 1.613 . S
S888 N890 1.610 . S
N889 S888 1.613 . S
N889 C892 1.350 . S
N890 S888 1.610 . S
N890 C891 1.351 . S
C891 C885 1.428 . S
C891 N890 1.351 . S
C891 C892 1.434 . S
C892 C883 1.429 . S
C892 N889 1.350 . S
C892 C891 1.434 . S
C893 C894 1.369 . S
C893 C895 1.419 . S
C893 H897 0.930 . S
C894 C893 1.369 . S
C894 C903 1.429 . S
C895 C893 1.419 . S
C895 C896 1.363 . S
C895 H898 0.929 . S
C896 C895 1.363 . S
C896 C902 1.428 . S
H897 C893 0.930 . S
H898 C895 0.929 . S
S899 N900 1.613 . S
S899 N901 1.610 . S
N900 S899 1.613 . S
N900 C903 1.350 . S
N901 S899 1.610 . S
N901 C902 1.351 . S
C902 C896 1.428 . S
C902 N901 1.351 . S
C902 C903 1.434 . S
C903 C894 1.429 . S
C903 N900 1.350 . S
C903 C902 1.434 . S
C904 C905 1.369 . S
C904 C906 1.419 . S
C904 H908 0.930 . S
C905 C904 1.369 . S
C905 C914 1.429 . S
C906 C904 1.419 . S
C906 C907 1.363 . S
C906 H909 0.929 . S
C907 C906 1.363 . S
C907 C913 1.428 . S
H908 C904 0.930 . S
H909 C906 0.929 . S
S910 N911 1.613 . S
S910 N912 1.610 . S
N911 S910 1.613 . S
N911 C914 1.350 . S
N912 S910 1.610 . S
N912 C913 1.351 . S
C913 C907 1.428 . S
C913 N912 1.351 . S
C913 C914 1.434 . S
C914 C905 1.429 . S
C914 N911 1.350 . S
C914 C913 1.434 . S
C915 C916 1.369 . S
C915 C917 1.419 . S
C915 H919 0.930 . S
C916 C915 1.369 . S
C916 C925 1.429 . S
C917 C915 1.419 . S
C917 C918 1.363 . S
C917 H920 0.929 . S
C918 C917 1.363 . S
C918 C924 1.428 . S
H919 C915 0.930 . S
H920 C917 0.929 . S
S921 N922 1.613 . S
S921 N923 1.610 . S
N922 S921 1.613 . S
N922 C925 1.350 . S
N923 S921 1.610 . S
N923 C924 1.351 . S
C924 C918 1.428 . S
C924 N923 1.351 . S
C924 C925 1.434 . S
C925 C916 1.429 . S
C925 N922 1.350 . S
C925 C924 1.434 . S
C926 C927 1.369 . S
C926 C928 1.419 . S
C926 H930 0.930 . S
C927 C926 1.369 . S
C927 C936 1.429 . S
C928 C926 1.419 . S
C928 C929 1.363 . S
C928 H931 0.929 . S
C929 C928 1.363 . S
C929 C935 1.428 . S
H930 C926 0.930 . S
H931 C928 0.929 . S
S932 N933 1.613 . S
S932 N934 1.610 . S
N933 S932 1.613 . S
N933 C936 1.350 . S
N934 S932 1.610 . S
N934 C935 1.351 . S
C935 C929 1.428 . S
C935 N934 1.351 . S
C935 C936 1.434 . S
C936 C927 1.429 . S
C936 N933 1.350 . S
C936 C935 1.434 . S
C937 C938 1.369 . S
C937 C939 1.419 . S
C937 H941 0.930 . S
C938 C937 1.369 . S
C938 C947 1.429 . S
C939 C937 1.419 . S
C939 C940 1.363 . S
C939 H942 0.929 . S
C940 C939 1.363 . S
C940 C946 1.428 . S
H941 C937 0.930 . S
H942 C939 0.929 . S
S943 N944 1.613 . S
S943 N945 1.610 . S
N944 S943 1.613 . S
N944 C947 1.350 . S
N945 S943 1.610 . S
N945 C946 1.351 . S
C946 C940 1.428 . S
C946 N945 1.351 . S
C946 C947 1.434 . S
C947 C938 1.429 . S
C947 N944 1.350 . S
C947 C946 1.434 . S
C948 C949 1.369 . S
C948 C950 1.419 . S
C948 H952 0.930 . S
C949 C948 1.369 . S
C949 C958 1.429 . S
C950 C948 1.419 . S
C950 C951 1.363 . S
C950 H953 0.929 . S
C951 C950 1.363 . S
C951 C957 1.428 . S
H952 C948 0.930 . S
H953 C950 0.929 . S
S954 N955 1.613 . S
S954 N956 1.610 . S
N955 S954 1.613 . S
N955 C958 1.350 . S
N956 S954 1.610 . S
N956 C957 1.351 . S
C957 C951 1.428 . S
C957 N956 1.351 . S
C957 C958 1.434 . S
C958 C949 1.429 . S
C958 N955 1.350 . S
C958 C957 1.434 . S
C959 C960 1.369 . S
C959 C961 1.419 . S
C959 H963 0.930 . S
C960 C959 1.369 . S
C960 C969 1.429 . S
C961 C959 1.419 . S
C961 C962 1.363 . S
C961 H964 0.929 . S
C962 C961 1.363 . S
C962 C968 1.428 . S
H963 C959 0.930 . S
H964 C961 0.929 . S
S965 N966 1.613 . S
S965 N967 1.610 . S
N966 S965 1.613 . S
N966 C969 1.350 . S
N967 S965 1.610 . S
N967 C968 1.351 . S
C968 C962 1.428 . S
C968 N967 1.351 . S
C968 C969 1.434 . S
C969 C960 1.429 . S
C969 N966 1.350 . S
C969 C968 1.434 . S
C970 C971 1.369 . S
C970 C972 1.419 . S
C970 H974 0.930 . S
C971 C970 1.369 . S
C971 C980 1.429 . S
C972 C970 1.419 . S
C972 C973 1.363 . S
C972 H975 0.929 . S
C973 C972 1.363 . S
C973 C979 1.428 . S
H974 C970 0.930 . S
H975 C972 0.929 . S
S976 N977 1.613 . S
S976 N978 1.610 . S
N977 S976 1.613 . S
N977 C980 1.350 . S
N978 S976 1.610 . S
N978 C979 1.351 . S
C979 C973 1.428 . S
C979 N978 1.351 . S
C979 C980 1.434 . S
C980 C971 1.429 . S
C980 N977 1.350 . S
C980 C979 1.434 . S
C981 C982 1.369 . S
C981 C983 1.419 . S
C981 H985 0.930 . S
C982 C981 1.369 . S
C982 C991 1.429 . S
C983 C981 1.419 . S
C983 C984 1.363 . S
C983 H986 0.929 . S
C984 C983 1.363 . S
C984 C990 1.428 . S
H985 C981 0.930 . S
H986 C983 0.929 . S
S987 N988 1.613 . S
S987 N989 1.610 . S
N988 S987 1.613 . S
N988 C991 1.350 . S
N989 S987 1.610 . S
N989 C990 1.351 . S
C990 C984 1.428 . S
C990 N989 1.351 . S
C990 C991 1.434 . S
C991 C982 1.429 . S
C991 N988 1.350 . S
C991 C990 1.434 . S
C992 C993 1.369 . S
C992 C994 1.419 . S
C992 H996 0.930 . S
C993 C992 1.369 . S
C993 C1002 1.428 1_655 S
C994 C992 1.419 . S
C994 C995 1.362 1_655 S
C994 H997 0.930 . S
C995 C994 1.362 1_455 S
C995 C1001 1.429 . S
H996 C992 0.930 . S
H997 C994 0.930 . S
S998 N999 1.613 . S
S998 N1000 1.610 . S
N999 S998 1.613 . S
N999 C1002 1.350 . S
N1000 S998 1.610 . S
N1000 C1001 1.351 . S
C1001 C995 1.429 . S
C1001 N1000 1.351 . S
C1001 C1002 1.434 . S
C1002 C993 1.428 1_455 S
C1002 N999 1.350 . S
C1002 C1001 1.434 . S
C1003 C1004 1.356 1_565 S
C1003 C1005 1.419 . S
C1003 H1007 0.930 . S
C1004 C1003 1.356 1_545 S
C1004 C1013 1.442 . S
C1005 C1003 1.419 . S
C1005 C1006 1.368 . S
C1005 H1008 0.929 . S
C1006 C1005 1.368 . S
C1006 C1012 1.424 1_565 S
H1007 C1003 0.930 . S
H1008 C1005 0.929 . S
S1009 N1010 1.613 . S
S1009 N1011 1.610 . S
N1010 S1009 1.613 . S
N1010 C1013 1.350 . S
N1011 S1009 1.610 . S
N1011 C1012 1.351 . S
C1012 C1006 1.424 1_545 S
C1012 N1011 1.351 . S
C1012 C1013 1.434 . S
C1013 C1004 1.442 . S
C1013 N1010 1.350 . S
C1013 C1012 1.434 . S
C1014 C1015 1.368 1_455 S
C1014 C1016 1.419 . S
C1014 H1018 0.930 . S
C1015 C1014 1.368 1_655 S
C1015 C1024 1.430 . S
C1016 C1014 1.419 . S
C1016 C1017 1.363 . S
C1016 H1019 0.929 . S
C1017 C1016 1.363 . S
C1017 C1023 1.428 1_455 S
H1018 C1014 0.930 . S
H1019 C1016 0.929 . S
S1020 N1021 1.613 . S
S1020 N1022 1.610 . S
N1021 S1020 1.613 . S
N1021 C1024 1.350 . S
N1022 S1020 1.610 . S
N1022 C1023 1.351 . S
C1023 C1017 1.428 1_655 S
C1023 N1022 1.351 . S
C1023 C1024 1.434 . S
C1024 C1015 1.430 . S
C1024 N1021 1.350 . S
C1024 C1023 1.434 . S
C1025 C1026 1.368 1_565 S
C1025 C1027 1.419 . S
C1025 H1029 0.930 . S
C1026 C1025 1.368 1_545 S
C1026 C1035 1.430 . S
C1027 C1025 1.419 . S
C1027 C1028 1.363 . S
C1027 H1030 0.929 . S
C1028 C1027 1.363 . S
C1028 C1034 1.428 1_565 S
H1029 C1025 0.930 . S
H1030 C1027 0.929 . S
S1031 N1032 1.613 . S
S1031 N1033 1.610 . S
N1032 S1031 1.613 . S
N1032 C1035 1.350 . S
N1033 S1031 1.610 . S
N1033 C1034 1.351 . S
C1034 C1028 1.428 1_545 S
C1034 N1033 1.351 . S
C1034 C1035 1.434 . S
C1035 C1026 1.430 . S
C1035 N1032 1.350 . S
C1035 C1034 1.434 . S
C1036 C1037 1.369 . S
C1036 C1038 1.419 1_455 S
C1036 H1040 0.930 . S
C1037 C1036 1.369 . S
C1037 C1046 1.429 . S
C1038 C1036 1.419 1_655 S
C1038 C1039 1.363 . S
C1038 H1041 0.929 . S
C1039 C1038 1.363 . S
C1039 C1045 1.428 . S
H1040 C1036 0.930 . S
H1041 C1038 0.929 . S
S1042 N1043 1.609 1_655 S
S1042 N1044 1.615 . S
N1043 S1042 1.609 1_455 S
N1043 C1046 1.350 . S
N1044 S1042 1.615 . S
N1044 C1045 1.351 . S
C1045 C1039 1.428 . S
C1045 N1044 1.351 . S
C1045 C1046 1.434 1_655 S
C1046 C1037 1.429 . S
C1046 N1043 1.350 . S
C1046 C1045 1.434 1_455 S
C1047 C1048 1.369 . S
C1047 C1049 1.419 1_545 S
C1047 H1051 0.930 . S
C1048 C1047 1.369 . S
C1048 C1057 1.429 . S
C1049 C1047 1.419 1_565 S
C1049 C1050 1.363 . S
C1049 H1052 0.929 . S
C1050 C1049 1.363 . S
C1050 C1056 1.428 . S
H1051 C1047 0.930 . S
H1052 C1049 0.929 . S
S1053 N1054 1.600 1_565 S
S1053 N1055 1.624 . S
N1054 S1053 1.600 1_545 S
N1054 C1057 1.350 . S
N1055 S1053 1.624 . S
N1055 C1056 1.351 . S
C1056 C1050 1.428 . S
C1056 N1055 1.351 . S
C1056 C1057 1.434 1_565 S
C1057 C1048 1.429 . S
C1057 N1054 1.350 . S
C1057 C1056 1.434 1_545 S
C1058 C1059 1.369 . S
C1058 C1060 1.419 1_455 S
C1058 H1062 0.930 . S
C1059 C1058 1.369 . S
C1059 C1068 1.429 . S
C1060 C1058 1.419 1_655 S
C1060 C1061 1.363 . S
C1060 H1063 0.929 . S
C1061 C1060 1.363 . S
C1061 C1067 1.428 . S
H1062 C1058 0.930 . S
H1063 C1060 0.929 . S
S1064 N1065 1.612 1_655 S
S1064 N1066 1.611 . S
N1065 S1064 1.612 1_455 S
N1065 C1068 1.350 . S
N1066 S1064 1.611 . S
N1066 C1067 1.351 . S
C1067 C1061 1.428 . S
C1067 N1066 1.351 . S
C1067 C1068 1.434 1_655 S
C1068 C1059 1.429 . S
C1068 N1065 1.350 . S
C1068 C1067 1.434 1_455 S
C1069 C1070 1.369 . S
C1069 C1071 1.419 1_565 S
C1069 H1073 0.930 . S
C1070 C1069 1.369 . S
C1070 C1079 1.429 . S
C1071 C1069 1.419 1_545 S
C1071 C1072 1.363 . S
C1071 H1074 0.929 . S
C1072 C1071 1.363 . S
C1072 C1078 1.428 . S
H1073 C1069 0.930 . S
H1074 C1071 0.929 . S
S1075 N1076 1.613 . S
S1075 N1077 1.611 1_565 S
N1076 S1075 1.613 . S
N1076 C1079 1.350 . S
N1077 S1075 1.611 1_545 S
N1077 C1078 1.351 . S
C1078 C1072 1.428 . S
C1078 N1077 1.351 . S
C1078 C1079 1.434 1_545 S
C1079 C1070 1.429 . S
C1079 N1076 1.350 . S
C1079 C1078 1.434 1_565 S
C465 C10 1.764 . S
C467 C300 1.757 . S
C476 C39 1.768 . S
C478 C329 1.763 . S
C487 C242 1.767 . S
C489 C68 1.759 . S
C498 C271 1.757 . S
C500 C97 1.759 . S
C509 C126 1.765 . S
C511 C416 1.757 . S
C520 C445 1.768 . S
C522 C155 1.760 . S
C531 C358 1.755 . S
C533 C184 1.762 . S
C542 C213 1.756 . S
C544 C387 1.760 . S
C553 C100 1.942 1_545 S
C555 C3 1.994 . S
C564 C13 1.943 1_655 S
C566 C32 1.993 . S
C575 C61 1.996 . S
C577 C42 1.950 1_565 S
C586 C90 1.993 . S
C588 C71 1.943 1_455 S
C597 C158 1.949 1_565 S
C599 C119 1.998 . S
C608 C148 1.995 . S
C610 C187 1.949 1_455 S
C619 C216 1.948 1_545 S
C621 C177 1.998 . S
C630 C129 1.942 1_655 S
C632 C206 1.994 . S
C641 C253 1.568 . S
C643 C327 1.546 1_565 S
C652 C240 1.549 1_455 S
C654 C282 1.565 . S
C663 C311 1.566 . S
C665 C269 1.549 1_545 S
C674 C298 1.551 1_655 S
C676 C340 1.564 . S
C685 C369 1.562 . S
C687 C385 1.552 1_545 S
C696 C414 1.545 1_655 S
C698 C398 1.568 . S
C707 C443 1.547 1_565 S
C709 C427 1.567 . S
C718 C356 1.553 1_455 S
C720 C456 1.563 . S
C729 C380 1.999 . S
C731 C361 1.947 . S
C740 C409 1.993 . S
C742 C390 1.943 . S
C751 C419 1.950 . S
C753 C438 1.998 . S
C762 C448 1.943 . S
C764 C351 1.993 . S
C773 C322 1.993 . S
C775 C245 1.947 . S
C784 C274 1.942 . S
C786 C235 1.994 . S
C795 C303 1.951 . S
C797 C264 1.996 . S
C806 C332 1.942 . S
C808 C293 1.995 . S
C817 C166 1.567 . S
C819 C124 1.547 . S
C828 C153 1.545 . S
C830 C195 1.568 . S
C839 C224 1.565 . S
C841 C182 1.549 . S
C850 C211 1.552 . S
C852 C137 1.564 . S
C861 C108 1.569 . S
C863 C8 1.545 . S
C872 C37 1.547 . S
C874 C21 1.567 . S
C883 C66 1.546 . S
C885 C50 1.567 . S
C894 C95 1.548 . S
C896 C79 1.566 . S
C905 C150 1.510 . S
C907 C5 1.504 . S
C916 C179 1.502 . S
C918 C34 1.509 . S
C927 C208 1.507 . S
C929 C63 1.509 . S
C938 C121 1.502 . S
C940 C92 1.509 . S
C949 C382 1.503 . S
C951 C237 1.506 . S
C960 C266 1.502 . S
C962 C411 1.507 . S
C971 C295 1.506 . S
C973 C440 1.509 . S
C982 C324 1.504 . S
C984 C353 1.505 . S
C993 C15 1.915 1_655 S
C995 C73 1.914 1_455 S
C1004 C102 1.915 1_545 S
C1006 C44 1.914 1_565 S
C1015 C131 1.910 1_655 S
C1017 C189 1.910 1_455 S
C1026 C218 1.910 1_545 S
C1028 C160 1.910 1_565 S
C1037 C305 1.915 . S
C1039 C247 1.912 . S
C1048 C334 1.919 . S
C1050 C276 1.917 . S
C1059 C421 1.914 . S
C1061 C363 1.912 . S
C1070 C392 1.916 . S
C1072 C450 1.918 . S
