# Generated by pormake.
# Topology vbn, (6)-cn, num edge types: 1
# Building blocks:
#     Node 0, Type 0, BuildingBlock: VOLQOD_clean_sbu_1, # of connection points: 6
#     Node 1, Type 0, BuildingBlock: VOLQOD_clean_sbu_1, # of connection points: 6
#     Node 2, Type 0, BuildingBlock: VOLQOD_clean_sbu_1, # of connection points: 6
#     Node 3, Type 0, BuildingBlock: VOLQOD_clean_sbu_1, # of connection points: 6
#     Node 4, Type 0, BuildingBlock: VOLQOD_clean_sbu_1, # of connection points: 6
#     Node 5, Type 0, BuildingBlock: VOLQOD_clean_sbu_1, # of connection points: 6
#     Node 6, Type 0, BuildingBlock: VOLQOD_clean_sbu_1, # of connection points: 6
#     Node 7, Type 0, BuildingBlock: VOLQOD_clean_sbu_1, # of connection points: 6
#     Edge 8, Type (0, 0), BuildingBlock: MIFKUJ_clean_linker_0, # of connection points: 2
#     Edge 9, Type (0, 0), BuildingBlock: MIFKUJ_clean_linker_0, # of connection points: 2
#     Edge 10, Type (0, 0), BuildingBlock: MIFKUJ_clean_linker_0, # of connection points: 2
#     Edge 11, Type (0, 0), BuildingBlock: MIFKUJ_clean_linker_0, # of connection points: 2
#     Edge 12, Type (0, 0), BuildingBlock: MIFKUJ_clean_linker_0, # of connection points: 2
#     Edge 13, Type (0, 0), BuildingBlock: MIFKUJ_clean_linker_0, # of connection points: 2
#     Edge 14, Type (0, 0), BuildingBlock: MIFKUJ_clean_linker_0, # of connection points: 2
#     Edge 15, Type (0, 0), BuildingBlock: MIFKUJ_clean_linker_0, # of connection points: 2
#     Edge 16, Type (0, 0), BuildingBlock: MIFKUJ_clean_linker_0, # of connection points: 2
#     Edge 17, Type (0, 0), BuildingBlock: MIFKUJ_clean_linker_0, # of connection points: 2
#     Edge 18, Type (0, 0), BuildingBlock: MIFKUJ_clean_linker_0, # of connection points: 2
#     Edge 19, Type (0, 0), BuildingBlock: MIFKUJ_clean_linker_0, # of connection points: 2
#     Edge 20, Type (0, 0), BuildingBlock: MIFKUJ_clean_linker_0, # of connection points: 2
#     Edge 21, Type (0, 0), BuildingBlock: MIFKUJ_clean_linker_0, # of connection points: 2
#     Edge 22, Type (0, 0), BuildingBlock: MIFKUJ_clean_linker_0, # of connection points: 2
#     Edge 23, Type (0, 0), BuildingBlock: MIFKUJ_clean_linker_0, # of connection points: 2
#     Edge 24, Type (0, 0), BuildingBlock: MIFKUJ_clean_linker_0, # of connection points: 2
#     Edge 25, Type (0, 0), BuildingBlock: MIFKUJ_clean_linker_0, # of connection points: 2
#     Edge 26, Type (0, 0), BuildingBlock: MIFKUJ_clean_linker_0, # of connection points: 2
#     Edge 27, Type (0, 0), BuildingBlock: MIFKUJ_clean_linker_0, # of connection points: 2
#     Edge 28, Type (0, 0), BuildingBlock: MIFKUJ_clean_linker_0, # of connection points: 2
#     Edge 29, Type (0, 0), BuildingBlock: MIFKUJ_clean_linker_0, # of connection points: 2
#     Edge 30, Type (0, 0), BuildingBlock: MIFKUJ_clean_linker_0, # of connection points: 2
#     Edge 31, Type (0, 0), BuildingBlock: MIFKUJ_clean_linker_0, # of connection points: 2
# Relax obj value: 0.302
# Max RMSD: 0.245
# Mean RMSD: 0.245
data_MOF--net-vbn--node1-VOLQOD_clean_sbu_1--edge1-MIFKUJ_clean_linker_0
_symmetry_space_group_name_H-M    P1
_symmetry_Int_Tables_number       1
_symmetry_cell_setting            triclinic
loop_
_symmetry_equiv_pos_as_xyz
'x, y, z'
_cell_length_a     34.388671
_cell_length_b     37.149293
_cell_length_c     61.786525
_cell_angle_alpha  89.985444
_cell_angle_beta   89.986737
_cell_angle_gamma 89.986632
loop_
_atom_site_label
_atom_site_type_symbol
_atom_site_fract_x
_atom_site_fract_y
_atom_site_fract_z
_atom_type_partial_charge
O0 O 0.38874 0.34694 0.44142 0.0
Zn1 Zn 0.3702 0.29792 0.43259 0.0
O2 O 0.37038 0.29302 0.40128 0.0
Zn3 Zn 0.31767 0.28414 0.39044 0.0
Zn4 Zn 0.39191 0.33648 0.38886 0.0
Zn5 Zn 0.40432 0.25384 0.39317 0.0
O6 O 0.31489 0.23544 0.37496 0.0
O7 O 0.3726 0.21208 0.38328 0.0
O8 O 0.31672 0.29062 0.44499 0.0
O9 O 0.2808 0.28035 0.41571 0.0
O10 O 0.29827 0.32711 0.37248 0.0
O11 O 0.34971 0.36329 0.37435 0.0
O12 O 0.43071 0.32623 0.36559 0.0
O13 O 0.40891 0.26418 0.44623 0.0
O14 O 0.43756 0.26708 0.36768 0.0
O15 O 0.43866 0.23932 0.41803 0.0
C16 C 0.40789 0.37133 0.43164 0.0
C17 C 0.33869 0.20898 0.3752 0.0
C18 C 0.31503 0.35705 0.36835 0.0
C19 C 0.28409 0.2838 0.43614 0.0
C20 C 0.44526 0.29699 0.35862 0.0
C21 C 0.43577 0.2445 0.43836 0.0
O22 O 0.4143 0.36953 0.41137 0.0
O23 O 0.10931 0.15434 0.9416 0.0
Zn24 Zn 0.12836 0.20342 0.93312 0.0
O25 O 0.12603 0.20953 0.90199 0.0
Zn26 Zn 0.17802 0.21462 0.88967 0.0
Zn27 Zn 0.09947 0.16847 0.88977 0.0
Zn28 Zn 0.09571 0.25175 0.89526 0.0
O29 O 0.18419 0.26377 0.87497 0.0
O30 O 0.13091 0.29177 0.8866 0.0
O31 O 0.18317 0.20984 0.94442 0.0
O32 O 0.217 0.21452 0.9139 0.0
O33 O 0.19176 0.1711 0.87072 0.0
O34 O 0.13792 0.13838 0.87403 0.0
O35 O 0.06056 0.18309 0.86733 0.0
O36 O 0.08996 0.2364 0.94773 0.0
O37 O 0.06185 0.24263 0.86936 0.0
O38 O 0.0625 0.26646 0.92062 0.0
C39 C 0.08574 0.13272 0.93246 0.0
C40 C 0.16391 0.2924 0.87723 0.0
C41 C 0.17241 0.14238 0.86701 0.0
C42 C 0.21551 0.21304 0.93448 0.0
C43 C 0.0501 0.21382 0.86035 0.0
C44 C 0.06451 0.25839 0.94064 0.0
O45 O 0.0758 0.13686 0.91275 0.0
O46 O 0.88338 0.15794 0.55682 0.0
Zn47 Zn 0.86818 0.20796 0.56585 0.0
O48 O 0.87186 0.21359 0.59688 0.0
Zn49 Zn 0.82023 0.2194 0.60956 0.0
Zn50 Zn 0.89827 0.17147 0.60774 0.0
Zn51 Zn 0.90381 0.25448 0.60401 0.0
O52 O 0.81567 0.26823 0.62494 0.0
O53 O 0.87038 0.29486 0.61416 0.0
O54 O 0.81387 0.2168 0.55503 0.0
O55 O 0.78033 0.22076 0.58566 0.0
O56 O 0.80654 0.17527 0.62793 0.0
O57 O 0.8591 0.14128 0.62273 0.0
O58 O 0.93743 0.18369 0.6305 0.0
O59 O 0.9075 0.23984 0.55125 0.0
O60 O 0.93895 0.24323 0.62911 0.0
O61 O 0.93598 0.26918 0.57831 0.0
C62 C 0.90866 0.13678 0.56484 0.0
C63 C 0.83737 0.29612 0.6235 0.0
C64 C 0.82514 0.14574 0.63045 0.0
C65 C 0.78169 0.22012 0.56506 0.0
C66 C 0.9496 0.2137 0.6377 0.0
C67 C 0.93345 0.26138 0.55827 0.0
O68 O 0.92196 0.14135 0.58388 0.0
O69 O 0.60027 0.33453 0.05259 0.0
Zn70 Zn 0.62477 0.28813 0.06276 0.0
O71 O 0.62421 0.28624 0.0943 0.0
Zn72 Zn 0.67687 0.28318 0.10588 0.0
Zn73 Zn 0.59776 0.32803 0.10588 0.0
Zn74 Zn 0.59508 0.24449 0.1031 0.0
O75 O 0.68677 0.23361 0.11933 0.0
O76 O 0.6313 0.20539 0.11196 0.0
O77 O 0.6798 0.28568 0.05101 0.0
O78 O 0.7147 0.28836 0.08132 0.0
O79 O 0.68881 0.32531 0.12596 0.0
O80 O 0.63559 0.35861 0.12182 0.0
O81 O 0.55794 0.31486 0.12816 0.0
O82 O 0.59014 0.24982 0.04986 0.0
O83 O 0.56203 0.25537 0.12897 0.0
O84 O 0.56094 0.22731 0.07893 0.0
C85 C 0.57986 0.35861 0.06191 0.0
C86 C 0.66605 0.20503 0.11906 0.0
C87 C 0.66953 0.35408 0.12952 0.0
C88 C 0.71241 0.28791 0.06075 0.0
C89 C 0.54876 0.28475 0.13653 0.0
C90 C 0.56394 0.23018 0.05846 0.0
O91 O 0.5746 0.35839 0.08231 0.0
O92 O 0.60978 0.66818 0.55259 0.0
Zn93 Zn 0.6318 0.71512 0.56305 0.0
O94 O 0.63261 0.71619 0.59451 0.0
Zn95 Zn 0.68552 0.72057 0.60555 0.0
Zn96 Zn 0.60846 0.67292 0.60551 0.0
Zn97 Zn 0.60226 0.75654 0.60436 0.0
O98 O 0.69305 0.76841 0.62133 0.0
O99 O 0.63734 0.79621 0.61386 0.0
O100 O 0.68587 0.72077 0.55058 0.0
O101 O 0.72216 0.72223 0.58034 0.0
O102 O 0.70136 0.67595 0.62292 0.0
O103 O 0.64905 0.6416 0.61847 0.0
O104 O 0.57149 0.68346 0.62974 0.0
O105 O 0.5939 0.75174 0.55117 0.0
O106 O 0.57069 0.7431 0.63036 0.0
O107 O 0.56653 0.77385 0.58089 0.0
C108 C 0.58858 0.64436 0.56156 0.0
C109 C 0.67176 0.79663 0.62146 0.0
C110 C 0.68359 0.64601 0.62533 0.0
C111 C 0.71899 0.72247 0.55981 0.0
C112 C 0.56054 0.71292 0.63828 0.0
C113 C 0.56787 0.77083 0.56036 0.0
O114 O 0.58261 0.64444 0.58191 0.0
O115 O 0.88513 0.83349 0.05249 0.0
Zn116 Zn 0.86302 0.78614 0.06236 0.0
O117 O 0.86391 0.78341 0.09377 0.0
Zn118 Zn 0.81154 0.78035 0.10582 0.0
Zn119 Zn 0.89146 0.8245 0.10507 0.0
Zn120 Zn 0.89276 0.74163 0.10229 0.0
O121 O 0.80287 0.73166 0.12091 0.0
O122 O 0.85611 0.70259 0.11023 0.0
O123 O 0.80805 0.78173 0.05079 0.0
O124 O 0.77344 0.78101 0.0812 0.0
O125 O 0.79893 0.8252 0.12395 0.0
O126 O 0.85338 0.85663 0.11936 0.0
O127 O 0.92922 0.81101 0.12846 0.0
O128 O 0.90004 0.74981 0.04922 0.0
O129 O 0.92477 0.75153 0.12873 0.0
O130 O 0.92778 0.72559 0.07824 0.0
C131 C 0.90849 0.85561 0.06138 0.0
C132 C 0.82252 0.70258 0.1189 0.0
C133 C 0.81888 0.85391 0.12659 0.0
C134 C 0.77539 0.78101 0.0606 0.0
C135 C 0.93768 0.78068 0.13679 0.0
C136 C 0.92606 0.72992 0.05781 0.0
O137 O 0.9168 0.85341 0.08144 0.0
O138 O 0.10463 0.84343 0.44194 0.0
Zn139 Zn 0.13066 0.79711 0.43322 0.0
O140 O 0.13252 0.79309 0.40184 0.0
Zn141 Zn 0.18578 0.7866 0.39153 0.0
Zn142 Zn 0.10961 0.83563 0.38912 0.0
Zn143 Zn 0.10146 0.7526 0.39305 0.0
O144 O 0.19277 0.73711 0.37719 0.0
O145 O 0.13584 0.71183 0.38495 0.0
O146 O 0.18463 0.79501 0.44628 0.0
O147 O 0.22168 0.78706 0.41719 0.0
O148 O 0.20301 0.82975 0.37319 0.0
O149 O 0.15169 0.8658 0.37666 0.0
O150 O 0.075 0.82325 0.3641 0.0
O151 O 0.09527 0.75941 0.44611 0.0
O152 O 0.07031 0.76391 0.36645 0.0
O153 O 0.06611 0.73698 0.41702 0.0
C154 C 0.08384 0.86625 0.43178 0.0
C155 C 0.17041 0.70959 0.37773 0.0
C156 C 0.18631 0.86012 0.37022 0.0
C157 C 0.21797 0.79086 0.43758 0.0
C158 C 0.06259 0.79334 0.35684 0.0
C159 C 0.06881 0.74011 0.43749 0.0
O160 O 0.08081 0.86532 0.41123 0.0
O161 O 0.39056 0.66467 0.94349 0.0
Zn162 Zn 0.36552 0.71078 0.93328 0.0
O163 O 0.36496 0.71283 0.90175 0.0
Zn164 Zn 0.31195 0.71683 0.89051 0.0
Zn165 Zn 0.39011 0.67037 0.89031 0.0
Zn166 Zn 0.39482 0.75387 0.8924 0.0
O167 O 0.30389 0.76506 0.87499 0.0
O168 O 0.35917 0.79317 0.88297 0.0
O169 O 0.3109 0.71341 0.94545 0.0
O170 O 0.27489 0.71703 0.91563 0.0
O171 O 0.2971 0.67233 0.87267 0.0
O172 O 0.3506 0.63927 0.87637 0.0
O173 O 0.42796 0.68214 0.86681 0.0
O174 O 0.40046 0.74931 0.94574 0.0
O175 O 0.42787 0.74175 0.86663 0.0
O176 O 0.42921 0.77137 0.91639 0.0
C177 C 0.41122 0.64094 0.93403 0.0
C178 C 0.32486 0.7935 0.87521 0.0
C179 C 0.31593 0.64311 0.86962 0.0
C180 C 0.27784 0.7155 0.93616 0.0
C181 C 0.43892 0.71188 0.85866 0.0
C182 C 0.42655 0.76879 0.93689 0.0
O183 O 0.41564 0.64108 0.91357 0.0
H184 H 0.15586 0.9209 0.3526 0.0
H185 H 0.18946 0.97703 0.34508 0.0
H186 H 0.29932 0.92651 0.35983 0.0
H187 H 0.26546 0.86993 0.36787 0.0
H188 H 0.28977 0.98507 0.38316 0.0
H189 H 0.27893 0.95917 0.30837 0.0
H190 H 0.24741 0.94043 0.27437 0.0
H191 H 0.16867 0.02985 0.27871 0.0
H192 H 0.19933 0.04887 0.31292 0.0
H193 H 0.38488 0.15028 0.36878 0.0
H194 H 0.36483 0.08915 0.36003 0.0
H195 H 0.24579 0.12438 0.35441 0.0
H196 H 0.26563 0.18615 0.36315 0.0
H197 H 0.26793 0.0714 0.32306 0.0
H198 H 0.27335 0.0907 0.40046 0.0
H199 H 0.30497 0.10925 0.4345 0.0
H200 H 0.3948 0.03065 0.42454 0.0
H201 H 0.36397 0.012 0.39025 0.0
C202 C 0.18729 0.92139 0.35378 0.0
C203 C 0.20796 0.89104 0.36108 0.0
C204 C 0.20655 0.95354 0.34928 0.0
C205 C 0.24698 0.95608 0.35181 0.0
C206 C 0.26807 0.92516 0.35775 0.0
C207 C 0.24874 0.89279 0.36223 0.0
C208 C 0.26591 0.99203 0.35117 0.0
C209 C 0.28584 0.00355 0.36973 0.0
C210 C 0.25991 0.0166 0.33393 0.0
C211 C 0.24132 0.00532 0.31332 0.0
C212 C 0.2547 0.9747 0.30218 0.0
C213 C 0.23701 0.96405 0.28284 0.0
C214 C 0.20602 0.98391 0.27441 0.0
C215 C 0.19269 0.0145 0.28527 0.0
C216 C 0.21026 0.02526 0.30462 0.0
C217 C 0.35443 0.14529 0.36544 0.0
C218 C 0.32673 0.1731 0.36703 0.0
C219 C 0.34309 0.11027 0.36038 0.0
C220 C 0.3038 0.10217 0.35688 0.0
C221 C 0.27629 0.13013 0.3571 0.0
C222 C 0.28765 0.16537 0.36217 0.0
C223 C 0.2912 0.06413 0.35508 0.0
C224 C 0.27238 0.05247 0.3362 0.0
C225 C 0.29823 0.03927 0.37199 0.0
C226 C 0.31661 0.05026 0.39268 0.0
C227 C 0.30002 0.07758 0.40545 0.0
C228 C 0.31776 0.08808 0.42479 0.0
C229 C 0.35194 0.07122 0.43164 0.0
C230 C 0.36837 0.04374 0.41919 0.0
C231 C 0.35076 0.03318 0.39981 0.0
H232 H 0.36564 0.07938 0.44663 0.0
H233 H 0.19237 0.97562 0.25943 0.0
H234 H 0.23486 0.30776 0.85862 0.0
H235 H 0.26042 0.36731 0.8491 0.0
H236 H 0.15282 0.41619 0.86975 0.0
H237 H 0.12688 0.35725 0.87875 0.0
H238 H 0.17862 0.44931 0.83472 0.0
H239 H 0.23271 0.41155 0.9032 0.0
H240 H 0.26897 0.37155 0.92787 0.0
H241 H 0.37136 0.38333 0.88871 0.0
H242 H 0.3355 0.42302 0.86363 0.0
H243 H 0.23871 0.62455 0.87088 0.0
H244 H 0.2118 0.56463 0.86358 0.0
H245 H 0.32376 0.52924 0.84032 0.0
H246 H 0.35077 0.5886 0.84784 0.0
H247 H 0.29892 0.48777 0.87239 0.0
H248 H 0.24494 0.5334 0.80655 0.0
H249 H 0.2075 0.57525 0.78363 0.0
H250 H 0.10374 0.55091 0.81942 0.0
H251 H 0.14066 0.50928 0.84277 0.0
C252 C 0.21651 0.33115 0.86089 0.0
C253 C 0.17898 0.32767 0.86969 0.0
C254 C 0.23118 0.36518 0.85549 0.0
C255 C 0.2087 0.39629 0.85899 0.0
C256 C 0.17072 0.39265 0.86689 0.0
C257 C 0.15602 0.3588 0.87218 0.0
C258 C 0.22521 0.43289 0.85586 0.0
C259 C 0.20488 0.45781 0.84299 0.0
C260 C 0.25977 0.44384 0.86639 0.0
C261 C 0.28129 0.41986 0.88139 0.0
C262 C 0.26286 0.40534 0.89975 0.0
C263 C 0.28335 0.38278 0.91382 0.0
C264 C 0.32241 0.37481 0.90982 0.0
C265 C 0.34107 0.38945 0.89176 0.0
C266 C 0.32069 0.41198 0.87761 0.0
C267 C 0.25717 0.60433 0.86353 0.0
C268 C 0.29691 0.61109 0.86015 0.0
C269 C 0.2418 0.57007 0.85938 0.0
C270 C 0.26588 0.54234 0.85155 0.0
C271 C 0.30474 0.55009 0.84652 0.0
C272 C 0.32009 0.58407 0.85079 0.0
C273 C 0.25229 0.50439 0.85132 0.0
C274 C 0.27307 0.47922 0.86373 0.0
C275 C 0.21799 0.49344 0.84056 0.0
C276 C 0.19567 0.51842 0.82653 0.0
C277 C 0.2142 0.53719 0.80965 0.0
C278 C 0.19306 0.56083 0.79656 0.0
C279 C 0.15328 0.56579 0.8001 0.0
C280 C 0.13456 0.54706 0.81671 0.0
C281 C 0.15557 0.5234 0.82986 0.0
H282 H 0.13696 0.58411 0.78994 0.0
H283 H 0.33824 0.35737 0.92075 0.0
H284 H 0.65046 0.58515 0.64131 0.0
H285 H 0.68218 0.52815 0.64903 0.0
H286 H 0.79419 0.57682 0.63742 0.0
H287 H 0.76227 0.63427 0.62913 0.0
H288 H 0.78503 0.51827 0.61362 0.0
H289 H 0.76741 0.54552 0.68813 0.0
H290 H 0.73123 0.56554 0.7204 0.0
H291 H 0.65332 0.47591 0.71393 0.0
H292 H 0.68856 0.45568 0.68137 0.0
H293 H 0.88146 0.35565 0.63097 0.0
H294 H 0.85921 0.41633 0.6392 0.0
H295 H 0.74092 0.37834 0.64277 0.0
H296 H 0.76307 0.31694 0.63461 0.0
H297 H 0.75876 0.43307 0.67377 0.0
H298 H 0.77021 0.41163 0.59708 0.0
H299 H 0.80383 0.39255 0.56375 0.0
H300 H 0.89177 0.47273 0.57421 0.0
H301 H 0.85895 0.49192 0.60781 0.0
C302 C 0.68193 0.58404 0.64081 0.0
C303 C 0.70383 0.61419 0.63437 0.0
C304 C 0.70008 0.55138 0.64542 0.0
C305 C 0.74062 0.54813 0.64391 0.0
C306 C 0.76284 0.57873 0.63873 0.0
C307 C 0.74461 0.61159 0.63411 0.0
C308 C 0.75884 0.51189 0.64508 0.0
C309 C 0.7801 0.50002 0.62706 0.0
C310 C 0.75135 0.48761 0.66229 0.0
C311 C 0.73055 0.49919 0.68219 0.0
C312 C 0.74243 0.53017 0.6935 0.0
C313 C 0.72208 0.54156 0.71186 0.0
C314 C 0.68996 0.52205 0.71919 0.0
C315 C 0.67821 0.49101 0.70823 0.0
C316 C 0.6984 0.47954 0.68983 0.0
C317 C 0.85072 0.35995 0.63378 0.0
C318 C 0.82393 0.3315 0.63175 0.0
C319 C 0.8381 0.39471 0.63856 0.0
C320 C 0.79839 0.40194 0.64125 0.0
C321 C 0.77173 0.37329 0.6407 0.0
C322 C 0.7844 0.33827 0.63598 0.0
C323 C 0.78471 0.43978 0.64233 0.0
C324 C 0.7642 0.45173 0.66061 0.0
C325 C 0.7927 0.46428 0.62535 0.0
C326 C 0.81239 0.4529 0.6051 0.0
C327 C 0.79691 0.42497 0.59238 0.0
C328 C 0.81578 0.41417 0.57342 0.0
C329 C 0.84999 0.43133 0.5669 0.0
C330 C 0.86533 0.45941 0.5793 0.0
C331 C 0.8466 0.47026 0.5983 0.0
H332 H 0.86456 0.42295 0.55222 0.0
H333 H 0.6742 0.53096 0.73338 0.0
H334 H 0.74049 0.19023 0.13302 0.0
H335 H 0.7677 0.1311 0.14207 0.0
H336 H 0.65623 0.08184 0.12992 0.0
H337 H 0.62874 0.1404 0.1214 0.0
H338 H 0.68899 0.05104 0.16382 0.0
H339 H 0.72872 0.08271 0.09125 0.0
H340 H 0.75969 0.12048 0.06329 0.0
H341 H 0.86927 0.11188 0.09619 0.0
H342 H 0.83886 0.07423 0.12444 0.0
H343 H 0.74169 0.87298 0.12823 0.0
H344 H 0.71615 0.93353 0.1353 0.0
H345 H 0.83125 0.96974 0.15246 0.0
H346 H 0.85683 0.90972 0.14543 0.0
H347 H 0.80065 0.00877 0.11984 0.0
H348 H 0.76057 0.96893 0.18991 0.0
H349 H 0.72816 0.92927 0.21633 0.0
H350 H 0.61765 0.95123 0.18681 0.0
H351 H 0.64948 0.99064 0.15999 0.0
C352 C 0.7217 0.16686 0.13252 0.0
C353 C 0.68253 0.1701 0.12626 0.0
C354 C 0.7373 0.13306 0.13763 0.0
C355 C 0.7141 0.10194 0.13639 0.0
C356 C 0.6747 0.1054 0.131 0.0
C357 C 0.6591 0.13902 0.126 0.0
C358 C 0.73095 0.06546 0.13939 0.0
C359 C 0.71332 0.04171 0.15416 0.0
C360 C 0.76308 0.05343 0.12704 0.0
C361 C 0.78141 0.07607 0.1101 0.0
C362 C 0.75936 0.08911 0.09261 0.0
C363 C 0.77683 0.11041 0.07668 0.0
C364 C 0.8164 0.11865 0.078 0.0
C365 C 0.8386 0.10553 0.09522 0.0
C366 C 0.82129 0.08417 0.11117 0.0
C367 C 0.76125 0.89354 0.13422 0.0
C368 C 0.80131 0.88672 0.13601 0.0
C369 C 0.74666 0.92816 0.13822 0.0
C370 C 0.77192 0.95622 0.14422 0.0
C371 C 0.81133 0.94859 0.14768 0.0
C372 C 0.82586 0.91422 0.14367 0.0
C373 C 0.75855 0.9942 0.14416 0.0
C374 C 0.77674 0.0182 0.12981 0.0
C375 C 0.72674 0.00621 0.15673 0.0
C376 C 0.70748 0.98251 0.17282 0.0
C377 C 0.7294 0.96506 0.18892 0.0
C378 C 0.71112 0.94267 0.204 0.0
C379 C 0.67088 0.93767 0.20322 0.0
C380 C 0.64883 0.95511 0.18738 0.0
C381 C 0.66697 0.97751 0.17225 0.0
H382 H 0.65678 0.92034 0.21491 0.0
H383 H 0.82988 0.13513 0.06565 0.0
H384 H 0.86061 0.08964 0.65039 0.0
H385 H 0.83291 0.03027 0.65704 0.0
H386 H 0.71969 0.06944 0.63849 0.0
H387 H 0.74733 0.12937 0.6318 0.0
H388 H 0.71953 0.01441 0.67239 0.0
H389 H 0.77067 0.03683 0.60076 0.0
H390 H 0.821 0.05668 0.57493 0.0
H391 H 0.89891 0.97566 0.59895 0.0
H392 H 0.84926 0.95579 0.62523 0.0
H393 H 0.63235 0.85968 0.62696 0.0
H394 H 0.65868 0.91835 0.63632 0.0
H395 H 0.77279 0.87168 0.64366 0.0
H396 H 0.74668 0.8125 0.63385 0.0
H397 H 0.77514 0.9297 0.61848 0.0
H398 H 0.72138 0.90288 0.68771 0.0
H399 H 0.67123 0.88351 0.71374 0.0
H400 H 0.59832 0.97176 0.69456 0.0
H401 H 0.6478 0.9914 0.66817 0.0
C402 C 0.82957 0.08596 0.64834 0.0
C403 C 0.80621 0.11396 0.64022 0.0
C404 C 0.81383 0.05202 0.65217 0.0
C405 C 0.7745 0.04538 0.64782 0.0
C406 C 0.75019 0.07411 0.64186 0.0
C407 C 0.76598 0.10832 0.63808 0.0
C408 C 0.76049 0.00779 0.64639 0.0
C409 C 0.73135 0.99587 0.66053 0.0
C410 C 0.7767 0.98354 0.63118 0.0
C411 C 0.80639 0.9951 0.61514 0.0
C412 C 0.79865 0.02345 0.60067 0.0
C413 C 0.82704 0.03468 0.58593 0.0
C414 C 0.86317 0.01751 0.58534 0.0
C415 C 0.87093 0.98899 0.59946 0.0
C416 C 0.84268 0.97773 0.61428 0.0
C417 C 0.66301 0.86164 0.6308 0.0
C418 C 0.68745 0.83131 0.62952 0.0
C419 C 0.67796 0.89529 0.63633 0.0
C420 C 0.71764 0.89942 0.6409 0.0
C421 C 0.74203 0.86907 0.64025 0.0
C422 C 0.72705 0.83525 0.63469 0.0
C423 C 0.73394 0.93595 0.64451 0.0
C424 C 0.76351 0.94789 0.6306 0.0
C425 C 0.71804 0.96009 0.65992 0.0
C426 C 0.68822 0.94846 0.67583 0.0
C427 C 0.69453 0.91801 0.68892 0.0
C428 C 0.66624 0.90701 0.70376 0.0
C429 C 0.63158 0.92635 0.70577 0.0
C430 C 0.62518 0.95679 0.69297 0.0
C431 C 0.65337 0.9679 0.67809 0.0
H432 H 0.60972 0.91778 0.71727 0.0
H433 H 0.88511 0.02624 0.57392 0.0
H434 H 0.75523 0.6889 0.14202 0.0
H435 H 0.72801 0.62951 0.15118 0.0
H436 H 0.82535 0.57794 0.11999 0.0
H437 H 0.85274 0.63626 0.11105 0.0
H438 H 0.75195 0.55364 0.1058 0.0
H439 H 0.8231 0.57733 0.17185 0.0
H440 H 0.83952 0.61205 0.20459 0.0
H441 H 0.72233 0.60069 0.2276 0.0
H442 H 0.70506 0.56632 0.1948 0.0
H443 H 0.7461 0.37277 0.1282 0.0
H444 H 0.77211 0.43307 0.13483 0.0
H445 H 0.66113 0.46693 0.1601 0.0
H446 H 0.63471 0.40682 0.15322 0.0
H447 H 0.73489 0.5021 0.17937 0.0
H448 H 0.66257 0.48126 0.11328 0.0
H449 H 0.64543 0.44531 0.0811 0.0
H450 H 0.76323 0.45239 0.05842 0.0
H451 H 0.78119 0.48788 0.0907 0.0
C452 C 0.77091 0.66488 0.13729 0.0
C453 C 0.8061 0.66743 0.12574 0.0
C454 C 0.75541 0.63104 0.14258 0.0
C455 C 0.77473 0.59944 0.13621 0.0
C456 C 0.80999 0.60202 0.12501 0.0
C457 C 0.82561 0.63553 0.11995 0.0
C458 C 0.75781 0.56335 0.14004 0.0
C459 C 0.74839 0.54242 0.1219 0.0
C460 C 0.75233 0.54901 0.16105 0.0
C461 C 0.76266 0.56968 0.18074 0.0
C462 C 0.80072 0.58257 0.18377 0.0
C463 C 0.81021 0.60211 0.20237 0.0
C464 C 0.78195 0.60869 0.21813 0.0
C465 C 0.74416 0.59565 0.21535 0.0
C466 C 0.73451 0.57612 0.19677 0.0
C467 C 0.72773 0.39256 0.13603 0.0
C468 C 0.68827 0.38536 0.13989 0.0
C469 C 0.7426 0.42701 0.13979 0.0
C470 C 0.71833 0.45442 0.14772 0.0
C471 C 0.68026 0.44608 0.15401 0.0
C472 C 0.6652 0.41181 0.14995 0.0
C473 C 0.73007 0.49246 0.14512 0.0
C474 C 0.73821 0.51364 0.16335 0.0
C475 C 0.73413 0.50737 0.12419 0.0
C476 C 0.7233 0.48687 0.10449 0.0
C477 C 0.68487 0.47491 0.1015 0.0
C478 C 0.675 0.45465 0.08325 0.0
C479 C 0.70325 0.44649 0.06775 0.0
C480 C 0.7414 0.45869 0.07045 0.0
C481 C 0.75143 0.4789 0.08872 0.0
H482 H 0.69557 0.43078 0.05364 0.0
H483 H 0.78936 0.6238 0.23252 0.0
H484 H 0.34432 0.40906 0.34241 0.0
H485 H 0.31615 0.4684 0.33612 0.0
H486 H 0.21001 0.43464 0.36725 0.0
H487 H 0.23815 0.37474 0.37355 0.0
H488 H 0.20022 0.48657 0.33184 0.0
H489 H 0.27366 0.46903 0.3979 0.0
H490 H 0.33134 0.45038 0.41883 0.0
H491 H 0.40141 0.52682 0.38424 0.0
H492 H 0.34427 0.54544 0.3628 0.0
H493 H 0.13036 0.64636 0.37855 0.0
H494 H 0.15345 0.5866 0.36948 0.0
H495 H 0.26494 0.63054 0.35139 0.0
H496 H 0.2422 0.69107 0.3611 0.0
H497 H 0.2742 0.5741 0.37646 0.0
H498 H 0.19958 0.59674 0.31301 0.0
H499 H 0.14232 0.61535 0.29176 0.0
H500 H 0.07495 0.53057 0.32049 0.0
H501 H 0.13165 0.51175 0.34216 0.0
C502 C 0.31446 0.41383 0.34724 0.0
C503 C 0.29355 0.38749 0.35871 0.0
C504 C 0.29846 0.44777 0.34366 0.0
C505 C 0.26138 0.45606 0.35163 0.0
C506 C 0.23877 0.4287 0.36103 0.0
C507 C 0.25479 0.39448 0.36456 0.0
C508 C 0.24904 0.49419 0.35308 0.0
C509 C 0.2161 0.50575 0.34169 0.0
C510 C 0.27049 0.51927 0.36553 0.0
C511 C 0.30478 0.50835 0.37858 0.0
C512 C 0.30143 0.48164 0.39462 0.0
C513 C 0.33401 0.4711 0.40659 0.0
C514 C 0.37001 0.48736 0.40283 0.0
C515 C 0.37351 0.51421 0.38711 0.0
C516 C 0.34104 0.52477 0.37504 0.0
C517 C 0.15975 0.64362 0.37246 0.0
C518 C 0.18445 0.6737 0.3706 0.0
C519 C 0.17281 0.60926 0.36709 0.0
C520 C 0.21073 0.60401 0.35939 0.0
C521 C 0.23544 0.63397 0.35719 0.0
C522 C 0.22242 0.66855 0.36272 0.0
C523 C 0.22507 0.56687 0.35526 0.0
C524 C 0.25844 0.55529 0.3663 0.0
C525 C 0.20401 0.5419 0.34243 0.0
C526 C 0.16985 0.55299 0.32932 0.0
C527 C 0.17249 0.58221 0.31491 0.0
C528 C 0.14014 0.59277 0.30277 0.0
C529 C 0.10501 0.57419 0.3048 0.0
C530 C 0.10218 0.54495 0.31894 0.0
C531 C 0.13444 0.53429 0.33113 0.0
H532 H 0.07999 0.58242 0.2954 0.0
H533 H 0.39517 0.47926 0.41214 0.0
H534 H 0.2492 0.12276 0.86795 0.0
H535 H 0.2751 0.06284 0.85983 0.0
H536 H 0.16293 0.03028 0.83544 0.0
H537 H 0.13687 0.08978 0.84382 0.0
H538 H 0.18585 0.98676 0.86659 0.0
H539 H 0.24333 0.03349 0.8023 0.0
H540 H 0.28182 0.0755 0.78005 0.0
H541 H 0.3841 0.05012 0.81687 0.0
H542 H 0.34611 0.00833 0.83956 0.0
H543 H 0.254 0.80699 0.85591 0.0
H544 H 0.22748 0.86569 0.84536 0.0
H545 H 0.33314 0.91729 0.86666 0.0
H546 H 0.36013 0.85917 0.87654 0.0
H547 H 0.30875 0.94892 0.83132 0.0
H548 H 0.24904 0.91311 0.8995 0.0
H549 H 0.21129 0.87257 0.92318 0.0
H550 H 0.11421 0.8788 0.87964 0.0
H551 H 0.15146 0.91935 0.85569 0.0
C552 C 0.23049 0.10323 0.86014 0.0
C553 C 0.19093 0.11078 0.85674 0.0
C554 C 0.24528 0.06893 0.85552 0.0
C555 C 0.22086 0.04191 0.84716 0.0
C556 C 0.18223 0.05054 0.84205 0.0
C557 C 0.16741 0.0846 0.8468 0.0
C558 C 0.23386 0.00375 0.84658 0.0
C559 C 0.21227 0.97837 0.85842 0.0
C560 C 0.26876 0.99286 0.83638 0.0
C561 C 0.29177 0.01793 0.82274 0.0
C562 C 0.27396 0.03706 0.80577 0.0
C563 C 0.29571 0.06081 0.79305 0.0
C564 C 0.33536 0.06553 0.79706 0.0
C565 C 0.35337 0.04645 0.81378 0.0
C566 C 0.33175 0.02268 0.82655 0.0
C567 C 0.2717 0.83081 0.85814 0.0
C568 C 0.30906 0.8283 0.86728 0.0
C569 C 0.25647 0.86438 0.85216 0.0
C570 C 0.2781 0.89605 0.85551 0.0
C571 C 0.31586 0.89334 0.86388 0.0
C572 C 0.33119 0.85994 0.86965 0.0
C573 C 0.26105 0.93229 0.85162 0.0
C574 C 0.28191 0.95728 0.83906 0.0
C575 C 0.2256 0.94304 0.86129 0.0
C576 C 0.20314 0.91889 0.87572 0.0
C577 C 0.2197 0.90567 0.89495 0.0
C578 C 0.19839 0.88276 0.90843 0.0
C579 C 0.16043 0.87302 0.90288 0.0
C580 C 0.14367 0.88626 0.88387 0.0
C581 C 0.1648 0.9093 0.87039 0.0
H582 H 0.14396 0.8553 0.91334 0.0
H583 H 0.35215 0.08392 0.7872 0.0
H584 H 0.45362 0.42671 0.41715 0.0
H585 H 0.4827 0.47491 0.43864 0.0
H586 H 0.4283 0.43252 0.49617 0.0
H587 H 0.39866 0.38457 0.47484 0.0
H588 H 0.42322 0.50535 0.49441 0.0
H589 H 0.5226 0.41509 0.48639 0.0
H590 H 0.56534 0.37375 0.46615 0.0
H591 H 0.61584 0.46331 0.43236 0.0
H592 H 0.57305 0.50516 0.45224 0.0
H593 H 0.53913 0.59061 0.57436 0.0
H594 H 0.5071 0.5459 0.5515 0.0
H595 H 0.56297 0.59084 0.49513 0.0
H596 H 0.59543 0.63543 0.51781 0.0
H597 H 0.56688 0.51797 0.49558 0.0
H598 H 0.46863 0.60854 0.50481 0.0
H599 H 0.42591 0.64947 0.52537 0.0
H600 H 0.37334 0.55906 0.55729 0.0
H601 H 0.4161 0.5176 0.53711 0.0
C602 C 0.44767 0.42771 0.43435 0.0
C603 C 0.42404 0.40161 0.4443 0.0
C604 C 0.4644 0.45522 0.44661 0.0
C605 C 0.45802 0.45694 0.46902 0.0
C606 C 0.43361 0.43158 0.47889 0.0
C607 C 0.41683 0.40412 0.46666 0.0
C608 C 0.47756 0.48463 0.48233 0.0
C609 C 0.45464 0.50791 0.49486 0.0
C610 C 0.51851 0.4883 0.48256 0.0
C611 C 0.54435 0.46321 0.47064 0.0
C612 C 0.54261 0.42594 0.47452 0.0
C613 C 0.56689 0.40242 0.46314 0.0
C614 C 0.59321 0.41589 0.44793 0.0
C615 C 0.5954 0.45291 0.44412 0.0
C616 C 0.57117 0.47655 0.45546 0.0
C617 C 0.54468 0.59099 0.55711 0.0
C618 C 0.56978 0.61668 0.54792 0.0
C619 C 0.5262 0.56553 0.54406 0.0
C620 C 0.53235 0.56539 0.52161 0.0
C621 C 0.55779 0.5906 0.51242 0.0
C622 C 0.57626 0.61608 0.52543 0.0
C623 C 0.51256 0.53869 0.5077 0.0
C624 C 0.53545 0.51555 0.49507 0.0
C625 C 0.4716 0.53511 0.50744 0.0
C626 C 0.44583 0.55999 0.51959 0.0
C627 C 0.44818 0.5974 0.51634 0.0
C628 C 0.42391 0.6207 0.5279 0.0
C629 C 0.39699 0.60688 0.54266 0.0
C630 C 0.39423 0.56973 0.54587 0.0
C631 C 0.41844 0.54632 0.53435 0.0
H632 H 0.37822 0.62495 0.55159 0.0
H633 H 0.61198 0.39764 0.43913 0.0
H634 H 0.96154 0.90636 0.07408 0.0
H635 H 0.99189 0.95282 0.0518 0.0
H636 H 0.92695 0.91611 0.99631 0.0
H637 H 0.89686 0.86919 0.01834 0.0
H638 H 0.0021 0.92838 0.98615 0.0
H639 H 0.89979 0.99176 0.02302 0.0
H640 H 0.86234 0.01141 0.05497 0.0
H641 H 0.96382 0.06331 0.08072 0.0
H642 H 0.00203 0.04359 0.04905 0.0
H643 H 0.03392 0.0813 0.91905 0.0
H644 H 0.00439 0.03366 0.94083 0.0
H645 H 0.06952 0.06906 0.99656 0.0
H646 H 0.09885 0.11698 0.97506 0.0
H647 H 0.99398 0.05741 0.00642 0.0
H648 H 0.09632 0.99397 0.9697 0.0
H649 H 0.13385 0.97461 0.93773 0.0
H650 H 0.03243 0.92301 0.9117 0.0
H651 H 0.99413 0.94246 0.9434 0.0
C652 C 0.95363 0.90816 0.05715 0.0
C653 C 0.92664 0.8841 0.04803 0.0
C654 C 0.97093 0.93481 0.04446 0.0
C655 C 0.96134 0.93812 0.02247 0.0
C656 C 0.93471 0.914 0.01326 0.0
C657 C 0.91745 0.88729 0.02592 0.0
C658 C 0.97919 0.96668 0.00903 0.0
C659 C -9e-05 0.95664 0.99041 0.0
C660 C 0.97695 0.00345 0.01488 0.0
C661 C 0.95387 0.01588 0.03376 0.0
C662 C 0.91419 0.00718 0.03556 0.0
C663 C 0.89281 0.01836 0.0536 0.0
C664 C 0.91074 0.03845 0.06989 0.0
C665 C 0.95 0.04766 0.0681 0.0
C666 C 0.97152 0.03653 0.0501 0.0
C667 C 0.04211 0.07889 0.93591 0.0
C668 C 0.0688 0.10296 0.94529 0.0
C669 C 0.02528 0.05158 0.94832 0.0
C670 C 0.035 0.04772 0.97026 0.0
C671 C 0.06162 0.07163 0.97965 0.0
C672 C 0.07846 0.09892 0.96729 0.0
C673 C 0.01694 0.0191 0.98357 0.0
C674 C 0.99616 0.02915 0.00216 0.0
C675 C 0.01912 0.98235 0.97769 0.0
C676 C 0.04226 0.97 0.95882 0.0
C677 C 0.08196 0.97868 0.9571 0.0
C678 C 0.10338 0.96766 0.93904 0.0
C679 C 0.08548 0.94774 0.92266 0.0
C680 C 0.04621 0.93852 0.92439 0.0
C681 C 0.02464 0.94949 0.94241 0.0
H682 H 0.10204 0.9395 0.90864 0.0
H683 H 0.89422 0.04686 0.08391 0.0
H684 H 0.9836 0.11398 0.56107 0.0
H685 H 0.00882 0.06806 0.5361 0.0
H686 H 0.89227 0.0469 0.51368 0.0
H687 H 0.86718 0.09372 0.53795 0.0
H688 H 0.93802 0.98399 0.52409 0.0
H689 H 0.94065 0.09266 0.48452 0.0
H690 H 0.95595 0.15538 0.475 0.0
H691 H 0.07728 0.12905 0.47118 0.0
H692 H 0.0631 0.0667 0.4821 0.0
H693 H 0.03851 0.92124 0.41616 0.0
H694 H 0.00225 0.966 0.43709 0.0
H695 H 0.04358 0.91818 0.49641 0.0
H696 H 0.07947 0.87326 0.47575 0.0
H697 H 0.02726 0.01634 0.46404 0.0
H698 H 0.97858 0.92324 0.53441 0.0
H699 H 0.95524 0.86101 0.5398 0.0
H700 H 0.91229 0.85874 0.47457 0.0
H701 H 0.93618 0.92048 0.46865 0.0
C702 C 0.96346 0.0993 0.55089 0.0
C703 C 0.92355 0.10725 0.55132 0.0
C704 C 0.97784 0.07331 0.53661 0.0
C705 C 0.95235 0.05437 0.52302 0.0
C706 C 0.91232 0.06139 0.52401 0.0
C707 C 0.89809 0.08807 0.53781 0.0
C708 C 0.96747 0.02726 0.50767 0.0
C709 C 0.95767 0.99105 0.51102 0.0
C710 C 0.99194 0.03679 0.49014 0.0
C711 C 0.00081 0.07493 0.48463 0.0
C712 C 0.97074 0.10037 0.4823 0.0
C713 C 0.97922 0.13594 0.4766 0.0
C714 C 0.0176 0.1463 0.47265 0.0
C715 C 0.04757 0.12109 0.47439 0.0
C716 C 0.03935 0.08568 0.48054 0.0
C717 C 0.0398 0.92017 0.43366 0.0
C718 C 0.062 0.89367 0.44426 0.0
C719 C 0.01905 0.94577 0.44559 0.0
C720 C 0.01985 0.94517 0.4683 0.0
C721 C 0.04196 0.91878 0.4789 0.0
C722 C 0.06275 0.89326 0.46703 0.0
C723 C -0.00086 0.97303 0.48104 0.0
C724 C 0.00778 0.00937 0.4772 0.0
C725 C 0.97281 0.96385 0.49774 0.0
C726 C 0.95944 0.92633 0.50106 0.0
C727 C 0.96434 0.90933 0.5212 0.0
C728 C 0.95119 0.87407 0.5243 0.0
C729 C 0.93264 0.85575 0.50746 0.0
C730 C 0.92724 0.87266 0.48749 0.0
C731 C 0.94076 0.90771 0.48421 0.0
H732 H 0.92227 0.82854 0.50992 0.0
H733 H 0.0241 0.1738 0.46814 0.0
H734 H 0.41717 0.63691 0.97814 0.0
H735 H 0.44837 0.58955 -0.00048 0.0
H736 H 0.4796 0.53357 0.94095 0.0
H737 H 0.44885 0.58083 0.91937 0.0
H738 H 0.44204 0.4907 0.97234 0.0
H739 H 0.54796 0.5732 0.96648 0.0
H740 H 0.58493 0.6298 0.96953 0.0
H741 H 0.56685 0.63043 0.03826 0.0
H742 H 0.52906 0.57418 0.0356 0.0
H743 H 0.57324 0.36181 0.01781 0.0
H744 H 0.54339 0.40962 0.9962 0.0
H745 H 0.51589 0.46817 0.05446 0.0
H746 H 0.54549 0.42055 0.07624 0.0
H747 H 0.55184 0.50986 0.02305 0.0
H748 H 0.44593 0.42769 0.02911 0.0
H749 H 0.40792 0.37167 0.02624 0.0
H750 H 0.42482 0.37081 0.9574 0.0
H751 H 0.46373 0.42642 0.95989 0.0
C752 C 0.43083 0.61462 0.96978 0.0
C753 C 0.43051 0.61265 0.94704 0.0
C754 C 0.44885 0.58776 0.98202 0.0
C755 C 0.46654 0.55837 0.97177 0.0
C756 C 0.46623 0.55621 0.94912 0.0
C757 C 0.44864 0.58325 0.93684 0.0
C758 C 0.48349 0.52886 0.98473 0.0
C759 C 0.46648 0.49464 0.98319 0.0
C760 C 0.51454 0.53459 -0.00069 0.0
C761 C 0.53529 0.56958 0.0008 0.0
C762 C 0.55131 0.58566 0.98221 0.0
C763 C 0.57267 0.61757 0.98389 0.0
C764 C 0.57845 0.63357 0.00409 0.0
C765 C 0.56255 0.61788 0.02264 0.0
C766 C 0.54108 0.58604 0.02105 0.0
C767 C 0.56075 0.3848 0.02605 0.0
C768 C 0.56169 0.38735 0.04876 0.0
C769 C 0.54349 0.41192 0.01368 0.0
C770 C 0.52712 0.44213 0.02377 0.0
C771 C 0.52822 0.44491 0.0464 0.0
C772 C 0.5451 0.41766 0.0588 0.0
C773 C 0.51041 0.47163 0.01067 0.0
C774 C 0.52744 0.50586 0.01219 0.0
C775 C 0.47931 0.46592 0.99609 0.0
C776 C 0.45817 0.4311 0.99473 0.0
C777 C 0.44215 0.41527 0.01339 0.0
C778 C 0.42018 0.3837 0.01182 0.0
C779 C 0.41376 0.36782 0.99164 0.0
C780 C 0.42964 0.38326 0.97301 0.0
C781 C 0.45176 0.41474 0.97451 0.0
H782 H 0.39672 0.34341 0.99045 0.0
H783 H 0.595 0.65826 0.00536 0.0
H784 H 0.5161 0.34192 0.15771 0.0
H785 H 0.49636 0.34372 0.19563 0.0
H786 H 0.51592 0.22937 0.20097 0.0
H787 H 0.53508 0.22709 0.16298 0.0
H788 H 0.45418 0.25154 0.22553 0.0
H789 H 0.58756 0.2866 0.21336 0.0
H790 H 0.63903 0.32255 0.19587 0.0
H791 H 0.58978 0.41935 0.22215 0.0
H792 H 0.53759 0.38401 0.2395 0.0
H793 H 0.47758 0.2396 0.33744 0.0
H794 H 0.49757 0.23772 0.29954 0.0
H795 H 0.47862 0.35214 0.29416 0.0
H796 H 0.45922 0.35451 0.33209 0.0
H797 H 0.54023 0.33 0.26961 0.0
H798 H 0.40677 0.2956 0.28141 0.0
H799 H 0.35442 0.26024 0.2985 0.0
H800 H 0.40319 0.16285 0.27272 0.0
H801 H 0.45622 0.19762 0.25574 0.0
C802 C 0.51527 0.31696 0.16676 0.0
C803 C 0.52791 0.28447 0.15744 0.0
C804 C 0.50413 0.31809 0.18846 0.0
C805 C 0.50578 0.28685 0.20118 0.0
C806 C 0.51485 0.25383 0.19143 0.0
C807 C 0.5258 0.25261 0.1697 0.0
C808 C 0.50184 0.28911 0.22495 0.0
C809 C 0.47322 0.26839 0.2352 0.0
C810 C 0.52646 0.31149 0.23747 0.0
C811 C 0.55847 0.33268 0.22757 0.0
C812 C 0.5876 0.31557 0.21533 0.0
C813 C 0.61689 0.33584 0.20543 0.0
C814 C 0.61762 0.37322 0.20785 0.0
C815 C 0.58914 0.3904 0.22026 0.0
C816 C 0.55971 0.37026 0.23014 0.0
C817 C 0.4786 0.26455 0.32838 0.0
C818 C 0.46606 0.29709 0.33768 0.0
C819 C 0.48989 0.26338 0.3067 0.0
C820 C 0.48852 0.29464 0.29397 0.0
C821 C 0.47951 0.32768 0.30369 0.0
C822 C 0.46838 0.32893 0.3254 0.0
C823 C 0.4926 0.29237 0.2702 0.0
C824 C 0.52124 0.31311 0.25994 0.0
C825 C 0.46795 0.27005 0.25766 0.0
C826 C 0.43567 0.24917 0.26749 0.0
C827 C 0.40646 0.26663 0.27949 0.0
C828 C 0.37666 0.24669 0.28915 0.0
C829 C 0.37554 0.20931 0.28674 0.0
C830 C 0.40413 0.1918 0.27459 0.0
C831 C 0.43406 0.21161 0.26494 0.0
H832 H 0.35247 0.19392 0.29426 0.0
H833 H 0.64028 0.38888 0.20014 0.0
H834 H 0.02048 0.15839 0.83635 0.0
H835 H 0.00245 0.16049 0.79819 0.0
H836 H 0.01732 0.27575 0.79802 0.0
H837 H 0.03489 0.2741 0.83629 0.0
H838 H 0.95699 0.25366 0.77162 0.0
H839 H 0.09168 0.22415 0.78385 0.0
H840 H 0.14476 0.18926 0.80061 0.0
H841 H 0.10229 0.09279 0.77054 0.0
H842 H 0.04854 0.12702 0.75389 0.0
H843 H 0.97725 0.27256 0.65954 0.0
H844 H 0.99783 0.27447 0.69735 0.0
H845 H 0.98903 0.15882 0.70114 0.0
H846 H 0.96929 0.15648 0.6633 0.0
H847 H 0.04811 0.18332 0.72575 0.0
H848 H 0.91241 0.2113 0.7149 0.0
H849 H 0.85789 0.24497 0.69868 0.0
H850 H 0.90113 0.34309 0.7264 0.0
H851 H 0.95628 0.31005 0.74252 0.0
C852 C 0.01896 0.18433 0.82839 0.0
C853 C 0.02986 0.21601 0.83928 0.0
C854 C 0.00881 0.18543 0.80655 0.0
C855 C 0.00965 0.21815 0.79522 0.0
C856 C 0.0169 0.2502 0.80648 0.0
C857 C 0.02692 0.24916 0.82837 0.0
C858 C 0.00674 0.21849 0.77135 0.0
C859 C 0.97716 0.23867 0.76156 0.0
C860 C 0.0329 0.19855 0.7583 0.0
C861 C 0.06589 0.1781 0.76777 0.0
C862 C 0.09355 0.19547 0.78089 0.0
C863 C 0.12375 0.17581 0.79038 0.0
C864 C 0.12684 0.13881 0.78669 0.0
C865 C 0.09984 0.12144 0.77341 0.0
C866 C 0.06951 0.14096 0.76393 0.0
C867 C 0.98067 0.24743 0.66823 0.0
C868 C 0.97088 0.21442 0.6585 0.0
C869 C 0.99225 0.24861 0.68987 0.0
C870 C 0.99386 0.21686 0.70217 0.0
C871 C 0.9876 0.18365 0.69198 0.0
C872 C 0.97626 0.18241 0.67031 0.0
C873 C 0.99819 0.21835 0.72598 0.0
C874 C 0.02806 0.1985 0.73578 0.0
C875 C 0.9722 0.23848 0.73904 0.0
C876 C 0.93866 0.25827 0.72973 0.0
C877 C 0.9104 0.24009 0.71743 0.0
C878 C 0.87939 0.25906 0.70826 0.0
C879 C 0.87611 0.29617 0.71146 0.0
C880 C 0.90375 0.31436 0.72391 0.0
C881 C 0.93488 0.29552 0.73308 0.0
H882 H 0.85211 0.31082 0.70432 0.0
H883 H 0.15018 0.12362 0.7941 0.0
H884 H 0.46314 0.76976 0.83479 0.0
H885 H 0.48616 0.76897 0.79742 0.0
H886 H 0.48472 0.65288 0.79778 0.0
H887 H 0.46227 0.65326 0.83524 0.0
H888 H 0.54571 0.67927 0.77438 0.0
H889 H 0.40768 0.69705 0.77911 0.0
H890 H 0.34773 0.72661 0.79191 0.0
H891 H 0.38436 0.82616 0.76307 0.0
H892 H 0.44486 0.7973 0.75037 0.0
H893 H 0.53826 0.65373 0.66158 0.0
H894 H 0.51671 0.65255 0.69923 0.0
H895 H 0.51717 0.76863 0.7008 0.0
H896 H 0.53812 0.7702 0.6631 0.0
H897 H 0.45632 0.7408 0.72323 0.0
H898 H 0.5951 0.72161 0.71841 0.0
H899 H 0.65418 0.6907 0.70548 0.0
H900 H 0.61502 0.59194 0.73427 0.0
H901 H 0.55537 0.62217 0.7471 0.0
C902 C 0.46853 0.74402 0.82711 0.0
C903 C 0.46023 0.71157 0.83788 0.0
C904 C 0.48153 0.74365 0.80573 0.0
C905 C 0.4862 0.71088 0.79475 0.0
C906 C 0.48098 0.67844 0.80596 0.0
C907 C 0.46807 0.67876 0.82737 0.0
C908 C 0.49321 0.71042 0.77116 0.0
C909 C 0.52602 0.6924 0.76316 0.0
C910 C 0.46754 0.72778 0.7566 0.0
C911 C 0.43097 0.74511 0.76398 0.0
C912 C 0.40308 0.72531 0.77563 0.0
C913 C 0.36899 0.74193 0.78285 0.0
C914 C 0.36229 0.77827 0.77836 0.0
C915 C 0.38962 0.79803 0.76657 0.0
C916 C 0.42381 0.78155 0.75934 0.0
C917 C 0.53304 0.67904 0.66977 0.0
C918 C 0.54046 0.71207 0.65942 0.0
C919 C 0.52094 0.67829 0.69132 0.0
C920 C 0.51631 0.71049 0.70288 0.0
C921 C 0.52093 0.74349 0.69217 0.0
C922 C 0.53292 0.7443 0.67061 0.0
C923 C 0.50902 0.70994 0.72644 0.0
C924 C 0.47606 0.7277 0.73444 0.0
C925 C 0.53446 0.69215 0.74096 0.0
C926 C 0.57058 0.67408 0.73353 0.0
C927 C 0.59896 0.69325 0.72186 0.0
C928 C 0.63256 0.67585 0.71457 0.0
C929 C 0.6383 0.63935 0.719 0.0
C930 C 0.6105 0.6202 0.73082 0.0
C931 C 0.5768 0.63745 0.73812 0.0
H932 H 0.66431 0.62591 0.71333 0.0
H933 H 0.33588 0.79109 0.78397 0.0
H934 H 0.96957 0.83719 0.15892 0.0
H935 H 0.99319 0.837 0.19614 0.0
H936 H 0.97568 0.72217 0.19965 0.0
H937 H 0.95169 0.72205 0.16244 0.0
H938 H 0.94078 0.75709 0.23287 0.0
H939 H 0.06622 0.7559 0.19976 0.0
H940 H 0.11806 0.77575 0.17491 0.0
H941 H 0.11942 0.87973 0.20523 0.0
H942 H 0.06717 0.86068 0.23008 0.0
H943 H 0.03358 0.73455 0.33557 0.0
H944 H 0.01196 0.73166 0.29798 0.0
H945 H 0.02705 0.84647 0.29186 0.0
H946 H 0.04898 0.8497 0.32938 0.0
H947 H 0.06418 0.80954 0.25989 0.0
H948 H 0.93751 0.81091 0.29241 0.0
H949 H 0.88573 0.79082 0.31723 0.0
H950 H 0.88699 0.68601 0.28796 0.0
H951 H 0.9392 0.70532 0.26315 0.0
C952 C 0.97144 0.81175 0.16743 0.0
C953 C 0.95846 0.77967 0.15774 0.0
C954 C 0.98503 0.81169 0.18871 0.0
C955 C 0.98609 0.77957 0.20063 0.0
C956 C 0.97492 0.74725 0.1907 0.0
C957 C 0.96142 0.74724 0.1694 0.0
C958 C 0.99596 0.78025 0.22393 0.0
C959 C 0.96806 0.76797 0.23879 0.0
C960 C 0.03108 0.79536 0.23159 0.0
C961 C 0.0625 0.80695 0.21665 0.0
C962 C 0.07732 0.78311 0.20101 0.0
C963 C 0.10683 0.79419 0.18694 0.0
C964 C 0.12195 0.82901 0.18845 0.0
C965 C 0.10765 0.85278 0.20406 0.0
C966 C 0.07811 0.84184 0.21816 0.0
C967 C 0.03163 0.75932 0.32638 0.0
C968 C 0.04326 0.79233 0.33547 0.0
C969 C 0.01923 0.75759 0.3049 0.0
C970 C 0.01805 0.78884 0.29216 0.0
C971 C 0.02798 0.82204 0.30143 0.0
C972 C 0.04028 0.82382 0.32292 0.0
C973 C 0.00891 0.78659 0.26881 0.0
C974 C 0.03697 0.79856 0.25396 0.0
C975 C 0.97396 0.77116 0.26116 0.0
C976 C 0.94257 0.75946 0.27607 0.0
C977 C 0.927 0.78347 0.2914 0.0
C978 C 0.89752 0.77225 0.30544 0.0
C979 C 0.88316 0.73713 0.30422 0.0
C980 C 0.89819 0.71319 0.28891 0.0
C981 C 0.9277 0.72427 0.27484 0.0
H982 H 0.86032 0.72849 0.3151 0.0
H983 H 0.14481 0.83753 0.17755 0.0
H984 H 0.50564 0.21491 0.42689 0.0
H985 H 0.56159 0.20465 0.45028 0.0
H986 H 0.49324 0.23465 0.50601 0.0
H987 H 0.4373 0.24589 0.48264 0.0
H988 H 0.55788 0.27163 0.50514 0.0
H989 H 0.52638 0.14708 0.49804 0.0
H990 H 0.51019 0.09079 0.47893 0.0
H991 H 0.61985 0.09416 0.44575 0.0
H992 H 0.63649 0.15077 0.46443 0.0
H993 H 0.70813 0.23135 0.58057 0.0
H994 H 0.64724 0.23072 0.56025 0.0
H995 H 0.71068 0.21103 0.5012 0.0
H996 H 0.77182 0.21139 0.52138 0.0
H997 H 0.64692 0.16658 0.50555 0.0
H998 H 0.67592 0.29308 0.51125 0.0
H999 H 0.69169 0.34946 0.5304 0.0
H1000 H 0.58543 0.34164 0.56661 0.0
H1001 H 0.56929 0.28492 0.54788 0.0
C1002 C 0.50217 0.21856 0.44418 0.0
C1003 C 0.46705 0.23153 0.45286 0.0
C1004 C 0.53424 0.21256 0.45757 0.0
C1005 C 0.53164 0.21883 0.47993 0.0
C1006 C 0.49596 0.22979 0.48879 0.0
C1007 C 0.46397 0.23609 0.4754 0.0
C1008 C 0.567 0.21746 0.49367 0.0
C1009 C 0.5769 0.24833 0.50556 0.0
C1010 C 0.5924 0.18748 0.49376 0.0
C1011 C 0.58254 0.15336 0.48252 0.0
C1012 C 0.54692 0.13598 0.48654 0.0
C1013 C 0.53769 0.10398 0.47581 0.0
C1014 C 0.56394 0.08895 0.4611 0.0
C1015 C 0.59953 0.10585 0.45714 0.0
C1016 C 0.6089 0.13787 0.46782 0.0
C1017 C 0.70923 0.22705 0.56325 0.0
C1018 C 0.74492 0.22153 0.5526 0.0
C1019 C 0.67438 0.22673 0.55166 0.0
C1020 C 0.67451 0.22097 0.52923 0.0
C1021 C 0.71 0.21545 0.51853 0.0
C1022 C 0.74491 0.21589 0.53009 0.0
C1023 C 0.6376 0.2207 0.51689 0.0
C1024 C 0.62756 0.18963 0.50524 0.0
C1025 C 0.61194 0.25043 0.51707 0.0
C1026 C 0.62162 0.28454 0.52834 0.0
C1027 C 0.65609 0.30321 0.52344 0.0
C1028 C 0.66506 0.33526 0.53419 0.0
C1029 C 0.63964 0.34906 0.54976 0.0
C1030 C 0.60513 0.33088 0.55457 0.0
C1031 C 0.59604 0.2988 0.54388 0.0
H1032 H 0.64663 0.37388 0.55806 0.0
H1033 H 0.55673 0.06418 0.45281 0.0
H1034 H 0.01865 0.31845 0.93705 0.0
H1035 H 0.96185 0.33381 0.95915 0.0
H1036 H 0.98104 0.23874 0.99796 0.0
H1037 H 0.03879 0.22477 0.97694 0.0
H1038 H 0.89779 0.3037 0.96309 0.0
H1039 H 0.94346 0.24203 0.04649 0.0
H1040 H 0.00223 0.23743 0.06919 0.0
H1041 H 0.0505 0.33048 0.03792 0.0
H1042 H 0.99182 0.33595 0.01523 0.0
H1043 H 0.73016 0.25632 0.02204 0.0
H1044 H 0.79193 0.25962 0.00244 0.0
H1045 H 0.83699 0.33223 0.05094 0.0
H1046 H 0.77633 0.32691 0.0712 0.0
H1047 H 0.88982 0.28995 0.04278 0.0
H1048 H 0.80892 0.35928 0.99698 0.0
H1049 H 0.75143 0.37438 0.97492 0.0
H1050 H 0.77612 0.28583 0.93243 0.0
H1051 H 0.83348 0.26987 0.9544 0.0
C1052 C 0.01121 0.30142 0.95067 0.0
C1053 C 0.03337 0.27063 0.95539 0.0
C1054 C 0.97861 0.31006 0.96321 0.0
C1055 C 0.96717 0.28771 0.98045 0.0
C1056 C 0.9897 0.25717 0.98526 0.0
C1057 C 0.02276 0.24907 0.97312 0.0
C1058 C 0.9303 0.29456 0.99243 0.0
C1059 C 0.89616 0.30104 0.98055 0.0
C1060 C 0.92803 0.29212 0.01527 0.0
C1061 C 0.9633 0.28923 0.02904 0.0
C1062 C 0.96651 0.26163 0.04453 0.0
C1063 C -0.00016 0.25885 0.05738 0.0
C1064 C 0.03012 0.2836 0.05496 0.0
C1065 C 0.02708 0.31126 0.03973 0.0
C1066 C 0.99381 0.31418 0.02685 0.0
C1067 C 0.75328 0.27305 0.0284 0.0
C1068 C 0.74863 0.29123 0.04813 0.0
C1069 C 0.78851 0.27519 0.01713 0.0
C1070 C 0.81917 0.29664 0.02498 0.0
C1071 C 0.81404 0.31535 0.04453 0.0
C1072 C 0.77932 0.31236 0.05609 0.0
C1073 C 0.85716 0.29831 0.01341 0.0
C1074 C 0.89149 0.29323 0.02537 0.0
C1075 C 0.85979 0.30374 0.99076 0.0
C1076 C 0.82535 0.31323 0.97745 0.0
C1077 C 0.80195 0.34288 0.98301 0.0
C1078 C 0.7694 0.35161 0.97051 0.0
C1079 C 0.76009 0.33103 0.95231 0.0
C1080 C 0.78336 0.30173 0.94655 0.0
C1081 C 0.81592 0.29285 0.959 0.0
H1082 H 0.73488 0.33784 0.94266 0.0
H1083 H 0.0559 0.28137 0.06491 0.0
H1084 H 0.95066 0.23374 0.51853 0.0
H1085 H 0.01043 0.24263 0.49802 0.0
H1086 H 0.04796 0.32293 0.54384 0.0
H1087 H 0.98829 0.31382 0.56484 0.0
H1088 H 0.06709 0.3382 0.4988 0.0
H1089 H 0.079 0.24864 0.55269 0.0
H1090 H 0.06029 0.19518 0.57382 0.0
H1091 H 0.07424 0.12871 0.51763 0.0
H1092 H 0.09159 0.18218 0.4958 0.0
H1093 H 0.27146 0.31556 0.47533 0.0
H1094 H 0.21107 0.31552 0.49646 0.0
H1095 H 0.15717 0.24676 0.44895 0.0
H1096 H 0.21703 0.24742 0.42741 0.0
H1097 H 0.14893 0.22802 0.49733 0.0
H1098 H 0.13257 0.32336 0.44366 0.0
H1099 H 0.15356 0.37872 0.42499 0.0
H1100 H 0.15414 0.43561 0.48548 0.0
H1101 H 0.13376 0.38035 0.50456 0.0
C1102 C 0.97105 0.254 0.52401 0.0
C1103 C 0.96493 0.27279 0.54349 0.0
C1104 C 0.00526 0.25893 0.51228 0.0
C1105 C 0.03368 0.28304 0.51964 0.0
C1106 C 0.0263 0.30412 0.538 0.0
C1107 C 0.99227 0.29882 0.54998 0.0
C1108 C 0.07249 0.28321 0.50941 0.0
C1109 C 0.08519 0.31428 0.49867 0.0
C1110 C 0.0961 0.25196 0.50946 0.0
C1111 C 0.08579 0.21961 0.52246 0.0
C1112 C 0.07736 0.22278 0.54467 0.0
C1113 C 0.06703 0.19247 0.55678 0.0
C1114 C 0.06567 0.15864 0.54697 0.0
C1115 C 0.07484 0.15505 0.52506 0.0
C1116 C 0.08484 0.18536 0.51281 0.0
C1117 C 0.24685 0.30017 0.46949 0.0
C1118 C 0.24885 0.28154 0.44971 0.0
C1119 C 0.21245 0.30028 0.48152 0.0
C1120 C 0.17987 0.28122 0.47415 0.0
C1121 C 0.18215 0.2616 0.45482 0.0
C1122 C 0.21624 0.26211 0.44254 0.0
C1123 C 0.14292 0.28265 0.48625 0.0
C1124 C 0.13075 0.25189 0.49749 0.0
C1125 C 0.12024 0.31437 0.48705 0.0
C1126 C 0.13212 0.34763 0.47556 0.0
C1127 C 0.13756 0.34757 0.45301 0.0
C1128 C 0.14926 0.37895 0.44234 0.0
C1129 C 0.1553 0.41064 0.45405 0.0
C1130 C 0.14952 0.41103 0.47644 0.0
C1131 C 0.13788 0.3797 0.48718 0.0
H1132 H 0.16435 0.43491 0.44577 0.0
H1133 H 0.05782 0.13516 0.55638 0.0
H1134 H 0.56355 0.22324 0.01429 0.0
H1135 H 0.50684 0.21192 0.99141 0.0
H1136 H 0.43655 0.19463 0.04832 0.0
H1137 H 0.4932 0.20447 0.07121 0.0
H1138 H 0.41189 0.15308 0.01594 0.0
H1139 H 0.44819 0.27844 0.02495 0.0
H1140 H 0.49536 0.32826 0.02241 0.0
H1141 H 0.50143 0.31444 0.9535 0.0
H1142 H 0.45509 0.26388 0.95569 0.0
H1143 H 0.22569 0.20536 0.97831 0.0
H1144 H 0.28718 0.20314 0.99815 0.0
H1145 H 0.3503 0.21916 0.93859 0.0
H1146 H 0.28915 0.22191 0.91867 0.0
H1147 H 0.38027 0.25939 0.97053 0.0
H1148 H 0.34335 0.13598 0.96079 0.0
H1149 H 0.29968 0.08345 0.96279 0.0
H1150 H 0.2955 0.0929 0.03201 0.0
H1151 H 0.33875 0.14583 0.0304 0.0
C1152 C 0.53626 0.21606 0.02191 0.0
C1153 C 0.53273 0.21543 0.04458 0.0
C1154 C 0.50384 0.20974 0.00882 0.0
C1155 C 0.46723 0.20356 0.0182 0.0
C1156 C 0.46443 0.19969 0.04073 0.0
C1157 C 0.49692 0.20541 0.05381 0.0
C1158 C 0.43126 0.20509 0.00498 0.0
C1159 C 0.40483 0.1764 0.00612 0.0
C1160 C 0.42234 0.23537 0.99192 0.0
C1161 C 0.44855 0.26706 0.99052 0.0
C1162 C 0.45977 0.28588 0.00927 0.0
C1163 C 0.48653 0.31412 0.00791 0.0
C1164 C 0.50166 0.32426 0.98782 0.0
C1165 C 0.48988 0.30637 0.96905 0.0
C1166 C 0.46339 0.27791 0.97035 0.0
C1167 C 0.25261 0.20863 0.96943 0.0
C1168 C 0.25242 0.21361 0.94687 0.0
C1169 C 0.28775 0.20716 0.98079 0.0
C1170 C 0.32333 0.21046 0.96979 0.0
C1171 C 0.32319 0.21642 0.94738 0.0
C1172 C 0.28814 0.21789 0.93602 0.0
C1173 C 0.36076 0.20741 0.98157 0.0
C1174 C 0.38738 0.23595 0.98024 0.0
C1175 C 0.36987 0.17699 0.99442 0.0
C1176 C 0.34399 0.14507 0.99545 0.0
C1177 C 0.33288 0.12703 0.97643 0.0
C1178 C 0.30824 0.09715 0.97749 0.0
C1179 C 0.29474 0.0849 0.99751 0.0
C1180 C 0.30594 0.10245 0.01652 0.0
C1181 C 0.33054 0.13237 0.01554 0.0
H1182 H 0.27567 0.06177 -0.0017 0.0
H1183 H 0.52223 0.34619 0.98673 0.0
H1184 H 0.55765 0.76596 0.51647 0.0
H1185 H 0.49825 0.77855 0.49626 0.0
H1186 H 0.44434 0.81991 0.55417 0.0
H1187 H 0.50352 0.8072 0.57461 0.0
H1188 H 0.40116 0.76772 0.53548 0.0
H1189 H 0.46435 0.87568 0.51225 0.0
H1190 H 0.51748 0.91231 0.49698 0.0
H1191 H 0.50923 0.85458 0.43696 0.0
H1192 H 0.45639 0.81725 0.45196 0.0
H1193 H 0.22439 0.80935 0.48045 0.0
H1194 H 0.28391 0.81341 0.502 0.0
H1195 H 0.35127 0.77825 0.447 0.0
H1196 H 0.29226 0.77488 0.42528 0.0
H1197 H 0.38615 0.83298 0.46595 0.0
H1198 H 0.32962 0.72113 0.48967 0.0
H1199 H 0.27841 0.68172 0.5045 0.0
H1200 H 0.27613 0.74412 0.56299 0.0
H1201 H 0.32706 0.78414 0.54838 0.0
C1202 C 0.53354 0.77854 0.52485 0.0
C1203 C 0.5353 0.78524 0.54724 0.0
C1204 C 0.49958 0.7858 0.51323 0.0
C1205 C 0.46684 0.8001 0.52373 0.0
C1206 C 0.46925 0.80876 0.54578 0.0
C1207 C 0.50321 0.80158 0.55741 0.0
C1208 C 0.42907 0.80244 0.51225 0.0
C1209 C 0.39762 0.78264 0.52051 0.0
C1210 C 0.42485 0.82099 0.4924 0.0
C1211 C 0.45657 0.84348 0.4833 0.0
C1212 C 0.47406 0.8706 0.49585 0.0
C1213 C 0.50409 0.89153 0.48723 0.0
C1214 C 0.51677 0.88573 0.46603 0.0
C1215 C 0.49938 0.85904 0.45339 0.0
C1216 C 0.46935 0.83802 0.46193 0.0
C1217 C 0.25184 0.80229 0.47298 0.0
C1218 C 0.2535 0.79172 0.45114 0.0
C1219 C 0.28585 0.8046 0.48533 0.0
C1220 C 0.32206 0.79592 0.47616 0.0
C1221 C 0.32371 0.78524 0.45441 0.0
C1222 C 0.28985 0.78317 0.44203 0.0
C1223 C 0.35838 0.79797 0.48909 0.0
C1224 C 0.38956 0.81848 0.48108 0.0
C1225 C 0.36253 0.77978 0.50908 0.0
C1226 C 0.33179 0.75587 0.51783 0.0
C1227 C 0.31795 0.72662 0.50562 0.0
C1228 C 0.28904 0.70414 0.514 0.0
C1229 C 0.27394 0.71048 0.53464 0.0
C1230 C 0.2878 0.73928 0.54698 0.0
C1231 C 0.3167 0.76185 0.53867 0.0
H1232 H 0.25156 0.69304 0.54111 0.0
H1233 H 0.54003 0.90196 0.45939 0.0
H1234 H 0.93551 0.73697 0.01393 0.0
H1235 H 0.99486 0.72587 0.99326 0.0
H1236 H 0.04975 0.68202 0.05021 0.0
H1237 H 0.99065 0.69299 0.07104 0.0
H1238 H 0.09136 0.73707 0.03218 0.0
H1239 H 0.03078 0.62817 0.00813 0.0
H1240 H 0.97853 0.59097 0.99247 0.0
H1241 H 0.98605 0.65016 0.93292 0.0
H1242 H 0.038 0.68808 0.94832 0.0
H1243 H 0.26984 0.69777 0.97902 0.0
H1244 H 0.20949 0.6933 -0.0002 0.0
H1245 H 0.14407 0.72716 0.94379 0.0
H1246 H 0.20399 0.73078 0.9228 0.0
H1247 H 0.10864 0.6728 0.9625 0.0
H1248 H 0.16342 0.78477 0.98656 0.0
H1249 H 0.21394 0.82466 0.00162 0.0
H1250 H 0.21517 0.76293 0.06038 0.0
H1251 H 0.16498 0.72237 0.04555 0.0
C1252 C 0.95982 0.72412 0.02196 0.0
C1253 C 0.95839 0.71625 0.04423 0.0
C1254 C 0.99375 0.71775 0.01009 0.0
C1255 C 0.02675 0.70328 0.02025 0.0
C1256 C 0.02463 0.69335 0.04211 0.0
C1257 C 0.99071 0.69955 0.05396 0.0
C1258 C 0.06452 0.70213 0.00872 0.0
C1259 C 0.09542 0.72242 0.01716 0.0
C1260 C 0.0693 0.68398 0.98879 0.0
C1261 C 0.03809 0.66118 0.97946 0.0
C1262 C 0.02108 0.63347 0.99176 0.0
C1263 C 0.99156 0.6122 0.98291 0.0
C1264 C 0.97892 0.61825 0.96173 0.0
C1265 C 0.99585 0.64552 0.94933 0.0
C1266 C 0.02537 0.66688 0.9581 0.0
C1267 C 0.24264 0.70448 0.97117 0.0
C1268 C 0.24178 0.71471 0.94926 0.0
C1269 C 0.20815 0.70194 0.98307 0.0
C1270 C 0.17224 0.71014 0.97339 0.0
C1271 C 0.17138 0.72054 0.95157 0.0
C1272 C 0.20574 0.72276 0.93962 0.0
C1273 C 0.13547 0.70791 0.98592 0.0
C1274 C 0.10473 0.68713 0.97764 0.0
C1275 C 0.1306 0.72597 0.0059 0.0
C1276 C 0.16078 0.75031 0.01485 0.0
C1277 C 0.1747 0.77953 0.00263 0.0
C1278 C 0.20322 0.80229 0.01113 0.0
C1279 C 0.21784 0.79627 0.03192 0.0
C1280 C 0.20387 0.76752 0.04427 0.0
C1281 C 0.17537 0.74466 0.03583 0.0
H1282 H 0.23992 0.81392 0.03848 0.0
H1283 H 0.95606 0.60176 0.95491 0.0
H1284 H 0.00389 0.70345 0.42456 0.0
H1285 H 0.94545 0.69241 0.44593 0.0
H1286 H 0.00288 0.73354 0.50279 0.0
H1287 H 0.06165 0.74477 0.4816 0.0
H1288 H 0.95058 0.67476 0.51098 0.0
H1289 H 0.95573 0.78922 0.4742 0.0
H1290 H 0.96398 0.82782 0.44209 0.0
H1291 H 0.86486 0.77815 0.4122 0.0
H1292 H 0.85663 0.73856 0.44395 0.0
H1293 H 0.79299 0.73554 0.57365 0.0
H1294 H 0.85287 0.73242 0.55267 0.0
H1295 H 0.78695 0.70659 0.49534 0.0
H1296 H 0.72652 0.71036 0.51619 0.0
H1297 H 0.84299 0.75408 0.48645 0.0
H1298 H 0.83575 0.641 0.52343 0.0
H1299 H 0.82826 0.60079 0.55491 0.0
H1300 H 0.93028 0.64654 0.58401 0.0
H1301 H 0.93808 0.6874 0.55283 0.0
C1302 C 0.00456 0.70933 0.44172 0.0
C1303 C 0.03724 0.72567 0.45127 0.0
C1304 C 0.97109 0.70298 0.4539 0.0
C1305 C 0.96976 0.71278 0.47579 0.0
C1306 C 0.0034 0.72594 0.48587 0.0
C1307 C 0.0369 0.73244 0.47369 0.0
C1308 C 0.93218 0.71376 0.48737 0.0
C1309 C 0.92709 0.69222 0.50576 0.0
C1310 C 0.90146 0.73621 0.48024 0.0
C1311 C 0.90584 0.7606 0.46135 0.0
C1312 C 0.93594 0.78622 0.46068 0.0
C1313 C 0.94063 0.80829 0.44254 0.0
C1314 C 0.91504 0.80536 0.42508 0.0
C1315 C 0.88469 0.78036 0.42573 0.0
C1316 C 0.88002 0.75808 0.44379 0.0
C1317 C 0.7911 0.72932 0.55656 0.0
C1318 C 0.75493 0.72296 0.54663 0.0
C1319 C 0.82543 0.72735 0.54461 0.0
C1320 C 0.82443 0.71851 0.52256 0.0
C1321 C 0.78836 0.71322 0.5124 0.0
C1322 C 0.75387 0.71542 0.52433 0.0
C1323 C 0.86113 0.71496 0.51015 0.0
C1324 C 0.86621 0.73626 0.49162 0.0
C1325 C 0.89175 0.69219 0.51714 0.0
C1326 C 0.8873 0.66748 0.53586 0.0
C1327 C 0.85643 0.64267 0.53661 0.0
C1328 C 0.85215 0.61973 0.55439 0.0
C1329 C 0.87872 0.62116 0.57147 0.0
C1330 C 0.9097 0.64548 0.57078 0.0
C1331 C 0.91409 0.66851 0.55304 0.0
H1332 H 0.87536 0.60338 0.58523 0.0
H1333 H 0.91865 0.82253 0.41106 0.0
H1334 H 0.76606 0.78821 0.01665 0.0
H1335 H 0.70484 0.79201 0.99655 0.0
H1336 H 0.64056 0.7795 0.05603 0.0
H1337 H 0.70131 0.77528 0.07618 0.0
H1338 H 0.61032 0.73861 0.02439 0.0
H1339 H 0.65009 0.86156 0.03299 0.0
H1340 H 0.69496 0.91316 0.03044 0.0
H1341 H 0.69868 0.90176 0.96132 0.0
H1342 H 0.65423 0.84975 0.96348 0.0
H1343 H 0.42764 0.77679 0.981 0.0
H1344 H 0.48484 0.78783 0.00354 0.0
H1345 H 0.55459 0.80294 0.9462 0.0
H1346 H 0.49744 0.79343 0.92364 0.0
H1347 H 0.5809 0.84443 0.97813 0.0
H1348 H 0.5419 0.71967 0.9702 0.0
H1349 H 0.49423 0.67036 0.9732 0.0
H1350 H 0.48871 0.68565 0.04201 0.0
H1351 H 0.53564 0.73568 0.03935 0.0
C1352 C 0.73891 0.78607 0.02544 0.0
C1353 C 0.73866 0.78157 0.04805 0.0
C1354 C 0.70395 0.78846 0.01395 0.0
C1355 C 0.66816 0.7865 0.02485 0.0
C1356 C 0.66784 0.78118 0.04731 0.0
C1357 C 0.70267 0.77885 0.0588 0.0
C1358 C 0.63093 0.78996 0.01292 0.0
C1359 C 0.60369 0.76196 0.0145 0.0
C1360 C 0.6225 0.8202 -0.00022 0.0
C1361 C 0.64914 0.85153 -0.00158 0.0
C1362 C 0.66072 0.86987 0.01726 0.0
C1363 C 0.68603 0.89923 0.01589 0.0
C1364 C 0.69974 0.91067 0.99574 0.0
C1365 C 0.68808 0.89283 0.97692 0.0
C1366 C 0.6628 0.86343 0.97821 0.0
C1367 C 0.45492 0.78346 0.97321 0.0
C1368 C 0.45813 0.78356 0.95052 0.0
C1369 C 0.48763 0.78961 0.98611 0.0
C1370 C 0.52422 0.79505 0.97652 0.0
C1371 C 0.52674 0.79845 0.95395 0.0
C1372 C 0.49395 0.79293 0.94106 0.0
C1373 C 0.56035 0.7931 0.98959 0.0
C1374 C 0.58747 0.82121 0.98813 0.0
C1375 C 0.5687 0.76294 0.00287 0.0
C1376 C 0.5419 0.73173 0.00454 0.0
C1377 C 0.53032 0.71268 0.98595 0.0
C1378 C 0.50328 0.68471 0.98758 0.0
C1379 C 0.48819 0.67511 0.00777 0.0
C1380 C 0.50025 0.69329 0.02637 0.0
C1381 C 0.52705 0.72146 0.02482 0.0
H1382 H 0.46739 0.65341 0.00907 0.0
H1383 H 0.71933 0.9334 0.9947 0.0
loop_
_geom_bond_atom_site_label_1
_geom_bond_atom_site_label_2
_geom_bond_distance
_geom_bond_site_symmetry_2
_ccdc_geom_bond_type
O0 Zn1 1.953 . S
O0 C16 1.225 . S
Zn1 O0 1.953 . S
Zn1 O2 1.949 . S
Zn1 O8 1.919 . S
Zn1 O13 1.924 . S
O2 Zn1 1.949 . S
O2 Zn3 1.923 . S
O2 Zn4 1.950 . S
O2 Zn5 1.945 . S
Zn3 O2 1.923 . S
Zn3 O6 1.933 . S
Zn3 O9 1.941 . S
Zn3 O10 1.965 . S
Zn4 O2 1.950 . S
Zn4 O11 1.938 . S
Zn4 O12 1.906 . S
Zn4 O22 1.953 . S
Zn5 O2 1.945 . S
Zn5 O7 1.932 . S
Zn5 O14 1.977 . S
Zn5 O15 1.910 . S
O6 Zn3 1.933 . S
O6 C17 1.226 . S
O7 Zn5 1.932 . S
O7 C17 1.307 . S
O8 Zn1 1.919 . S
O8 C19 1.253 . S
O9 Zn3 1.941 . S
O9 C19 1.283 . S
O10 Zn3 1.965 . S
O10 C18 1.303 . S
O11 Zn4 1.938 . S
O11 C18 1.247 . S
O12 Zn4 1.906 . S
O12 C20 1.304 . S
O13 Zn1 1.924 . S
O13 C21 1.311 . S
O14 Zn5 1.977 . S
O14 C20 1.272 . S
O15 Zn5 1.910 . S
O15 C21 1.231 . S
C16 O0 1.225 . S
C16 O22 1.298 . S
C17 O6 1.226 . S
C17 O7 1.307 . S
C18 O10 1.303 . S
C18 O11 1.247 . S
C19 O8 1.253 . S
C19 O9 1.283 . S
C20 O12 1.304 . S
C20 O14 1.272 . S
C21 O13 1.311 . S
C21 O15 1.231 . S
O22 Zn4 1.953 . S
O22 C16 1.298 . S
O23 Zn24 1.953 . S
O23 C39 1.225 . S
Zn24 O23 1.953 . S
Zn24 O25 1.949 . S
Zn24 O31 1.919 . S
Zn24 O36 1.924 . S
O25 Zn24 1.949 . S
O25 Zn26 1.923 . S
O25 Zn27 1.950 . S
O25 Zn28 1.945 . S
Zn26 O25 1.923 . S
Zn26 O29 1.933 . S
Zn26 O32 1.941 . S
Zn26 O33 1.965 . S
Zn27 O25 1.950 . S
Zn27 O34 1.938 . S
Zn27 O35 1.906 . S
Zn27 O45 1.953 . S
Zn28 O25 1.945 . S
Zn28 O30 1.932 . S
Zn28 O37 1.977 . S
Zn28 O38 1.910 . S
O29 Zn26 1.933 . S
O29 C40 1.226 . S
O30 Zn28 1.932 . S
O30 C40 1.307 . S
O31 Zn24 1.919 . S
O31 C42 1.253 . S
O32 Zn26 1.941 . S
O32 C42 1.283 . S
O33 Zn26 1.965 . S
O33 C41 1.303 . S
O34 Zn27 1.938 . S
O34 C41 1.247 . S
O35 Zn27 1.906 . S
O35 C43 1.304 . S
O36 Zn24 1.924 . S
O36 C44 1.311 . S
O37 Zn28 1.977 . S
O37 C43 1.272 . S
O38 Zn28 1.910 . S
O38 C44 1.231 . S
C39 O23 1.225 . S
C39 O45 1.298 . S
C40 O29 1.226 . S
C40 O30 1.307 . S
C41 O33 1.303 . S
C41 O34 1.247 . S
C42 O31 1.253 . S
C42 O32 1.283 . S
C43 O35 1.304 . S
C43 O37 1.272 . S
C44 O36 1.311 . S
C44 O38 1.231 . S
O45 Zn27 1.953 . S
O45 C39 1.298 . S
O46 Zn47 1.953 . S
O46 C62 1.225 . S
Zn47 O46 1.953 . S
Zn47 O48 1.949 . S
Zn47 O54 1.919 . S
Zn47 O59 1.924 . S
O48 Zn47 1.949 . S
O48 Zn49 1.923 . S
O48 Zn50 1.950 . S
O48 Zn51 1.945 . S
Zn49 O48 1.923 . S
Zn49 O52 1.933 . S
Zn49 O55 1.941 . S
Zn49 O56 1.965 . S
Zn50 O48 1.950 . S
Zn50 O57 1.938 . S
Zn50 O58 1.906 . S
Zn50 O68 1.953 . S
Zn51 O48 1.945 . S
Zn51 O53 1.932 . S
Zn51 O60 1.977 . S
Zn51 O61 1.910 . S
O52 Zn49 1.933 . S
O52 C63 1.226 . S
O53 Zn51 1.932 . S
O53 C63 1.307 . S
O54 Zn47 1.919 . S
O54 C65 1.253 . S
O55 Zn49 1.941 . S
O55 C65 1.283 . S
O56 Zn49 1.965 . S
O56 C64 1.303 . S
O57 Zn50 1.938 . S
O57 C64 1.247 . S
O58 Zn50 1.906 . S
O58 C66 1.304 . S
O59 Zn47 1.924 . S
O59 C67 1.311 . S
O60 Zn51 1.977 . S
O60 C66 1.272 . S
O61 Zn51 1.910 . S
O61 C67 1.231 . S
C62 O46 1.225 . S
C62 O68 1.298 . S
C63 O52 1.226 . S
C63 O53 1.307 . S
C64 O56 1.303 . S
C64 O57 1.247 . S
C65 O54 1.253 . S
C65 O55 1.283 . S
C66 O58 1.304 . S
C66 O60 1.272 . S
C67 O59 1.311 . S
C67 O61 1.231 . S
O68 Zn50 1.953 . S
O68 C62 1.298 . S
O69 Zn70 1.953 . S
O69 C85 1.225 . S
Zn70 O69 1.953 . S
Zn70 O71 1.949 . S
Zn70 O77 1.919 . S
Zn70 O82 1.924 . S
O71 Zn70 1.949 . S
O71 Zn72 1.923 . S
O71 Zn73 1.950 . S
O71 Zn74 1.945 . S
Zn72 O71 1.923 . S
Zn72 O75 1.933 . S
Zn72 O78 1.941 . S
Zn72 O79 1.965 . S
Zn73 O71 1.950 . S
Zn73 O80 1.938 . S
Zn73 O81 1.906 . S
Zn73 O91 1.953 . S
Zn74 O71 1.945 . S
Zn74 O76 1.932 . S
Zn74 O83 1.977 . S
Zn74 O84 1.910 . S
O75 Zn72 1.933 . S
O75 C86 1.226 . S
O76 Zn74 1.932 . S
O76 C86 1.307 . S
O77 Zn70 1.919 . S
O77 C88 1.253 . S
O78 Zn72 1.941 . S
O78 C88 1.283 . S
O79 Zn72 1.965 . S
O79 C87 1.303 . S
O80 Zn73 1.938 . S
O80 C87 1.247 . S
O81 Zn73 1.906 . S
O81 C89 1.304 . S
O82 Zn70 1.924 . S
O82 C90 1.311 . S
O83 Zn74 1.977 . S
O83 C89 1.272 . S
O84 Zn74 1.910 . S
O84 C90 1.231 . S
C85 O69 1.225 . S
C85 O91 1.298 . S
C86 O75 1.226 . S
C86 O76 1.307 . S
C87 O79 1.303 . S
C87 O80 1.247 . S
C88 O77 1.253 . S
C88 O78 1.283 . S
C89 O81 1.304 . S
C89 O83 1.272 . S
C90 O82 1.311 . S
C90 O84 1.231 . S
O91 Zn73 1.953 . S
O91 C85 1.298 . S
O92 Zn93 1.953 . S
O92 C108 1.225 . S
Zn93 O92 1.953 . S
Zn93 O94 1.949 . S
Zn93 O100 1.919 . S
Zn93 O105 1.924 . S
O94 Zn93 1.949 . S
O94 Zn95 1.923 . S
O94 Zn96 1.950 . S
O94 Zn97 1.945 . S
Zn95 O94 1.923 . S
Zn95 O98 1.933 . S
Zn95 O101 1.941 . S
Zn95 O102 1.965 . S
Zn96 O94 1.950 . S
Zn96 O103 1.938 . S
Zn96 O104 1.906 . S
Zn96 O114 1.953 . S
Zn97 O94 1.945 . S
Zn97 O99 1.932 . S
Zn97 O106 1.977 . S
Zn97 O107 1.910 . S
O98 Zn95 1.933 . S
O98 C109 1.226 . S
O99 Zn97 1.932 . S
O99 C109 1.307 . S
O100 Zn93 1.919 . S
O100 C111 1.253 . S
O101 Zn95 1.941 . S
O101 C111 1.283 . S
O102 Zn95 1.965 . S
O102 C110 1.303 . S
O103 Zn96 1.938 . S
O103 C110 1.247 . S
O104 Zn96 1.906 . S
O104 C112 1.304 . S
O105 Zn93 1.924 . S
O105 C113 1.311 . S
O106 Zn97 1.977 . S
O106 C112 1.272 . S
O107 Zn97 1.910 . S
O107 C113 1.231 . S
C108 O92 1.225 . S
C108 O114 1.298 . S
C109 O98 1.226 . S
C109 O99 1.307 . S
C110 O102 1.303 . S
C110 O103 1.247 . S
C111 O100 1.253 . S
C111 O101 1.283 . S
C112 O104 1.304 . S
C112 O106 1.272 . S
C113 O105 1.311 . S
C113 O107 1.231 . S
O114 Zn96 1.953 . S
O114 C108 1.298 . S
O115 Zn116 1.953 . S
O115 C131 1.225 . S
Zn116 O115 1.953 . S
Zn116 O117 1.949 . S
Zn116 O123 1.919 . S
Zn116 O128 1.924 . S
O117 Zn116 1.949 . S
O117 Zn118 1.923 . S
O117 Zn119 1.950 . S
O117 Zn120 1.945 . S
Zn118 O117 1.923 . S
Zn118 O121 1.933 . S
Zn118 O124 1.941 . S
Zn118 O125 1.965 . S
Zn119 O117 1.950 . S
Zn119 O126 1.938 . S
Zn119 O127 1.906 . S
Zn119 O137 1.953 . S
Zn120 O117 1.945 . S
Zn120 O122 1.932 . S
Zn120 O129 1.977 . S
Zn120 O130 1.910 . S
O121 Zn118 1.933 . S
O121 C132 1.226 . S
O122 Zn120 1.932 . S
O122 C132 1.307 . S
O123 Zn116 1.919 . S
O123 C134 1.253 . S
O124 Zn118 1.941 . S
O124 C134 1.283 . S
O125 Zn118 1.965 . S
O125 C133 1.303 . S
O126 Zn119 1.938 . S
O126 C133 1.247 . S
O127 Zn119 1.906 . S
O127 C135 1.304 . S
O128 Zn116 1.924 . S
O128 C136 1.311 . S
O129 Zn120 1.977 . S
O129 C135 1.272 . S
O130 Zn120 1.910 . S
O130 C136 1.231 . S
C131 O115 1.225 . S
C131 O137 1.298 . S
C132 O121 1.226 . S
C132 O122 1.307 . S
C133 O125 1.303 . S
C133 O126 1.247 . S
C134 O123 1.253 . S
C134 O124 1.283 . S
C135 O127 1.304 . S
C135 O129 1.272 . S
C136 O128 1.311 . S
C136 O130 1.231 . S
O137 Zn119 1.953 . S
O137 C131 1.298 . S
O138 Zn139 1.953 . S
O138 C154 1.225 . S
Zn139 O138 1.953 . S
Zn139 O140 1.949 . S
Zn139 O146 1.919 . S
Zn139 O151 1.924 . S
O140 Zn139 1.949 . S
O140 Zn141 1.923 . S
O140 Zn142 1.950 . S
O140 Zn143 1.945 . S
Zn141 O140 1.923 . S
Zn141 O144 1.933 . S
Zn141 O147 1.941 . S
Zn141 O148 1.965 . S
Zn142 O140 1.950 . S
Zn142 O149 1.938 . S
Zn142 O150 1.906 . S
Zn142 O160 1.953 . S
Zn143 O140 1.945 . S
Zn143 O145 1.932 . S
Zn143 O152 1.977 . S
Zn143 O153 1.910 . S
O144 Zn141 1.933 . S
O144 C155 1.226 . S
O145 Zn143 1.932 . S
O145 C155 1.307 . S
O146 Zn139 1.919 . S
O146 C157 1.253 . S
O147 Zn141 1.941 . S
O147 C157 1.283 . S
O148 Zn141 1.965 . S
O148 C156 1.303 . S
O149 Zn142 1.938 . S
O149 C156 1.247 . S
O150 Zn142 1.906 . S
O150 C158 1.304 . S
O151 Zn139 1.924 . S
O151 C159 1.311 . S
O152 Zn143 1.977 . S
O152 C158 1.272 . S
O153 Zn143 1.910 . S
O153 C159 1.231 . S
C154 O138 1.225 . S
C154 O160 1.298 . S
C155 O144 1.226 . S
C155 O145 1.307 . S
C156 O148 1.303 . S
C156 O149 1.247 . S
C157 O146 1.253 . S
C157 O147 1.283 . S
C158 O150 1.304 . S
C158 O152 1.272 . S
C159 O151 1.311 . S
C159 O153 1.231 . S
O160 Zn142 1.953 . S
O160 C154 1.298 . S
O161 Zn162 1.953 . S
O161 C177 1.225 . S
Zn162 O161 1.953 . S
Zn162 O163 1.949 . S
Zn162 O169 1.919 . S
Zn162 O174 1.924 . S
O163 Zn162 1.949 . S
O163 Zn164 1.923 . S
O163 Zn165 1.950 . S
O163 Zn166 1.945 . S
Zn164 O163 1.923 . S
Zn164 O167 1.933 . S
Zn164 O170 1.941 . S
Zn164 O171 1.965 . S
Zn165 O163 1.950 . S
Zn165 O172 1.938 . S
Zn165 O173 1.906 . S
Zn165 O183 1.953 . S
Zn166 O163 1.945 . S
Zn166 O168 1.932 . S
Zn166 O175 1.977 . S
Zn166 O176 1.910 . S
O167 Zn164 1.933 . S
O167 C178 1.226 . S
O168 Zn166 1.932 . S
O168 C178 1.307 . S
O169 Zn162 1.919 . S
O169 C180 1.253 . S
O170 Zn164 1.941 . S
O170 C180 1.283 . S
O171 Zn164 1.965 . S
O171 C179 1.303 . S
O172 Zn165 1.938 . S
O172 C179 1.247 . S
O173 Zn165 1.906 . S
O173 C181 1.304 . S
O174 Zn162 1.924 . S
O174 C182 1.311 . S
O175 Zn166 1.977 . S
O175 C181 1.272 . S
O176 Zn166 1.910 . S
O176 C182 1.231 . S
C177 O161 1.225 . S
C177 O183 1.298 . S
C178 O167 1.226 . S
C178 O168 1.307 . S
C179 O171 1.303 . S
C179 O172 1.247 . S
C180 O169 1.253 . S
C180 O170 1.283 . S
C181 O173 1.304 . S
C181 O175 1.272 . S
C182 O174 1.311 . S
C182 O176 1.231 . S
O183 Zn165 1.953 . S
O183 C177 1.298 . S
H184 C202 0.951 . S
H185 C204 0.951 . S
H186 C206 0.950 . S
H187 C207 0.950 . S
H188 C209 0.950 . S
H189 C212 0.950 . S
H190 C213 0.950 . S
H191 C215 0.950 . S
H192 C216 0.950 . S
H193 C217 0.951 . S
H194 C219 0.951 . S
H195 C221 0.950 . S
H196 C222 0.950 . S
H197 C224 0.950 . S
H198 C227 0.950 . S
H199 C228 0.950 . S
H200 C230 0.950 . S
H201 C231 0.950 . S
C202 H184 0.951 . S
C202 C203 1.366 . S
C202 C204 1.388 . S
C203 C202 1.366 . S
C203 C207 1.385 . S
C204 H185 0.951 . S
C204 C202 1.388 . S
C204 C205 1.366 . S
C205 C204 1.366 . S
C205 C206 1.414 . S
C205 C208 1.499 1_565 S
C206 H186 0.950 . S
C206 C205 1.414 . S
C206 C207 1.374 . S
C207 H187 0.950 . S
C207 C203 1.385 . S
C207 C206 1.374 . S
C208 C205 1.499 1_545 S
C208 C209 1.373 . S
C208 C210 1.389 . S
C209 H188 0.950 . S
C209 C208 1.373 . S
C209 C225 1.377 . S
C210 C208 1.389 . S
C210 C211 1.524 . S
C210 C224 1.377 . S
C211 C210 1.524 . S
C211 C212 1.397 1_545 S
C211 C216 1.363 . S
C212 H189 0.950 . S
C212 C211 1.397 1_565 S
C212 C213 1.334 . S
C213 H190 0.950 . S
C213 C212 1.334 . S
C213 C214 1.287 . S
C214 C213 1.287 . S
C214 C215 1.524 1_565 S
C214 H233 0.913 . S
C215 H191 0.950 . S
C215 C214 1.524 1_545 S
C215 C216 1.415 . S
C216 H192 0.950 . S
C216 C211 1.363 . S
C216 C215 1.415 . S
C217 H193 0.951 . S
C217 C218 1.366 . S
C217 C219 1.388 . S
C218 C217 1.366 . S
C218 C222 1.385 . S
C219 H194 0.951 . S
C219 C217 1.388 . S
C219 C220 1.366 . S
C220 C219 1.366 . S
C220 C221 1.414 . S
C220 C223 1.499 . S
C221 H195 0.950 . S
C221 C220 1.414 . S
C221 C222 1.374 . S
C222 H196 0.950 . S
C222 C218 1.385 . S
C222 C221 1.374 . S
C223 C220 1.499 . S
C223 C224 1.373 . S
C223 C225 1.389 . S
C224 H197 0.950 . S
C224 C210 1.377 . S
C224 C223 1.373 . S
C225 C209 1.377 . S
C225 C223 1.389 . S
C225 C226 1.524 . S
C226 C225 1.524 . S
C226 C227 1.397 . S
C226 C231 1.363 . S
C227 H198 0.950 . S
C227 C226 1.397 . S
C227 C228 1.334 . S
C228 H199 0.950 . S
C228 C227 1.334 . S
C228 C229 1.287 . S
C229 C228 1.287 . S
C229 C230 1.524 . S
C229 H232 0.999 . S
C230 H200 0.950 . S
C230 C229 1.524 . S
C230 C231 1.415 . S
C231 H201 0.950 . S
C231 C226 1.363 . S
C231 C230 1.415 . S
H232 C229 0.999 . S
H233 C214 0.913 . S
H234 C252 0.951 . S
H235 C254 0.951 . S
H236 C256 0.950 . S
H237 C257 0.950 . S
H238 C259 0.950 . S
H239 C262 0.950 . S
H240 C263 0.950 . S
H241 C265 0.950 . S
H242 C266 0.950 . S
H243 C267 0.951 . S
H244 C269 0.951 . S
H245 C271 0.950 . S
H246 C272 0.950 . S
H247 C274 0.950 . S
H248 C277 0.950 . S
H249 C278 0.950 . S
H250 C280 0.950 . S
H251 C281 0.950 . S
C252 H234 0.951 . S
C252 C253 1.366 . S
C252 C254 1.388 . S
C253 C252 1.366 . S
C253 C257 1.385 . S
C254 H235 0.951 . S
C254 C252 1.388 . S
C254 C255 1.366 . S
C255 C254 1.366 . S
C255 C256 1.414 . S
C255 C258 1.499 . S
C256 H236 0.950 . S
C256 C255 1.414 . S
C256 C257 1.374 . S
C257 H237 0.950 . S
C257 C253 1.385 . S
C257 C256 1.374 . S
C258 C255 1.499 . S
C258 C259 1.373 . S
C258 C260 1.389 . S
C259 H238 0.950 . S
C259 C258 1.373 . S
C259 C275 1.377 . S
C260 C258 1.389 . S
C260 C261 1.524 . S
C260 C274 1.377 . S
C261 C260 1.524 . S
C261 C262 1.397 . S
C261 C266 1.363 . S
C262 H239 0.950 . S
C262 C261 1.397 . S
C262 C263 1.334 . S
C263 H240 0.950 . S
C263 C262 1.334 . S
C263 C264 1.287 . S
C264 C263 1.287 . S
C264 C265 1.524 . S
C264 H283 0.913 . S
C265 H241 0.950 . S
C265 C264 1.524 . S
C265 C266 1.415 . S
C266 H242 0.950 . S
C266 C261 1.363 . S
C266 C265 1.415 . S
C267 H243 0.951 . S
C267 C268 1.366 . S
C267 C269 1.388 . S
C268 C267 1.366 . S
C268 C272 1.385 . S
C269 H244 0.951 . S
C269 C267 1.388 . S
C269 C270 1.366 . S
C270 C269 1.366 . S
C270 C271 1.414 . S
C270 C273 1.499 . S
C271 H245 0.950 . S
C271 C270 1.414 . S
C271 C272 1.374 . S
C272 H246 0.950 . S
C272 C268 1.385 . S
C272 C271 1.374 . S
C273 C270 1.499 . S
C273 C274 1.373 . S
C273 C275 1.389 . S
C274 H247 0.950 . S
C274 C260 1.377 . S
C274 C273 1.373 . S
C275 C259 1.377 . S
C275 C273 1.389 . S
C275 C276 1.524 . S
C276 C275 1.524 . S
C276 C277 1.397 . S
C276 C281 1.363 . S
C277 H248 0.950 . S
C277 C276 1.397 . S
C277 C278 1.334 . S
C278 H249 0.950 . S
C278 C277 1.334 . S
C278 C279 1.287 . S
C279 C278 1.287 . S
C279 C280 1.524 . S
C279 H282 0.999 . S
C280 H250 0.950 . S
C280 C279 1.524 . S
C280 C281 1.415 . S
C281 H251 0.950 . S
C281 C276 1.363 . S
C281 C280 1.415 . S
H282 C279 0.999 . S
H283 C264 0.913 . S
H284 C302 0.951 . S
H285 C304 0.951 . S
H286 C306 0.950 . S
H287 C307 0.950 . S
H288 C309 0.950 . S
H289 C312 0.950 . S
H290 C313 0.950 . S
H291 C315 0.950 . S
H292 C316 0.950 . S
H293 C317 0.951 . S
H294 C319 0.951 . S
H295 C321 0.950 . S
H296 C322 0.950 . S
H297 C324 0.950 . S
H298 C327 0.950 . S
H299 C328 0.950 . S
H300 C330 0.950 . S
H301 C331 0.950 . S
C302 H284 0.951 . S
C302 C303 1.366 . S
C302 C304 1.388 . S
C303 C302 1.366 . S
C303 C307 1.385 . S
C304 H285 0.951 . S
C304 C302 1.388 . S
C304 C305 1.366 . S
C305 C304 1.366 . S
C305 C306 1.414 . S
C305 C308 1.499 . S
C306 H286 0.950 . S
C306 C305 1.414 . S
C306 C307 1.374 . S
C307 H287 0.950 . S
C307 C303 1.385 . S
C307 C306 1.374 . S
C308 C305 1.499 . S
C308 C309 1.373 . S
C308 C310 1.389 . S
C309 H288 0.950 . S
C309 C308 1.373 . S
C309 C325 1.377 . S
C310 C308 1.389 . S
C310 C311 1.524 . S
C310 C324 1.377 . S
C311 C310 1.524 . S
C311 C312 1.397 . S
C311 C316 1.363 . S
C312 H289 0.950 . S
C312 C311 1.397 . S
C312 C313 1.334 . S
C313 H290 0.950 . S
C313 C312 1.334 . S
C313 C314 1.287 . S
C314 C313 1.287 . S
C314 C315 1.524 . S
C314 H333 0.913 . S
C315 H291 0.950 . S
C315 C314 1.524 . S
C315 C316 1.415 . S
C316 H292 0.950 . S
C316 C311 1.363 . S
C316 C315 1.415 . S
C317 H293 0.951 . S
C317 C318 1.366 . S
C317 C319 1.388 . S
C318 C317 1.366 . S
C318 C322 1.385 . S
C319 H294 0.951 . S
C319 C317 1.388 . S
C319 C320 1.366 . S
C320 C319 1.366 . S
C320 C321 1.414 . S
C320 C323 1.499 . S
C321 H295 0.950 . S
C321 C320 1.414 . S
C321 C322 1.374 . S
C322 H296 0.950 . S
C322 C318 1.385 . S
C322 C321 1.374 . S
C323 C320 1.499 . S
C323 C324 1.373 . S
C323 C325 1.389 . S
C324 H297 0.950 . S
C324 C310 1.377 . S
C324 C323 1.373 . S
C325 C309 1.377 . S
C325 C323 1.389 . S
C325 C326 1.524 . S
C326 C325 1.524 . S
C326 C327 1.397 . S
C326 C331 1.363 . S
C327 H298 0.950 . S
C327 C326 1.397 . S
C327 C328 1.334 . S
C328 H299 0.950 . S
C328 C327 1.334 . S
C328 C329 1.287 . S
C329 C328 1.287 . S
C329 C330 1.524 . S
C329 H332 0.999 . S
C330 H300 0.950 . S
C330 C329 1.524 . S
C330 C331 1.415 . S
C331 H301 0.950 . S
C331 C326 1.363 . S
C331 C330 1.415 . S
H332 C329 0.999 . S
H333 C314 0.913 . S
H334 C352 0.951 . S
H335 C354 0.951 . S
H336 C356 0.950 . S
H337 C357 0.950 . S
H338 C359 0.950 . S
H339 C362 0.950 . S
H340 C363 0.950 . S
H341 C365 0.950 . S
H342 C366 0.950 . S
H343 C367 0.951 . S
H344 C369 0.951 . S
H345 C371 0.950 1_545 S
H346 C372 0.950 . S
H347 C374 0.950 . S
H348 C377 0.950 . S
H349 C378 0.950 . S
H350 C380 0.947 1_565 S
H351 C381 0.950 . S
C352 H334 0.951 . S
C352 C353 1.366 . S
C352 C354 1.388 . S
C353 C352 1.366 . S
C353 C357 1.385 . S
C354 H335 0.951 . S
C354 C352 1.388 . S
C354 C355 1.366 . S
C355 C354 1.366 . S
C355 C356 1.414 . S
C355 C358 1.499 . S
C356 H336 0.950 . S
C356 C355 1.414 . S
C356 C357 1.374 . S
C357 H337 0.950 . S
C357 C353 1.385 . S
C357 C356 1.374 . S
C358 C355 1.499 . S
C358 C359 1.373 . S
C358 C360 1.389 . S
C359 H338 0.950 . S
C359 C358 1.373 . S
C359 C375 1.377 . S
C360 C358 1.389 . S
C360 C361 1.524 . S
C360 C374 1.377 . S
C361 C360 1.524 . S
C361 C362 1.397 . S
C361 C366 1.363 . S
C362 H339 0.950 . S
C362 C361 1.397 . S
C362 C363 1.334 . S
C363 H340 0.950 . S
C363 C362 1.334 . S
C363 C364 1.287 . S
C364 C363 1.287 . S
C364 C365 1.524 . S
C364 H383 0.913 . S
C365 H341 0.950 . S
C365 C364 1.524 . S
C365 C366 1.415 . S
C366 H342 0.950 . S
C366 C361 1.363 . S
C366 C365 1.415 . S
C367 H343 0.951 . S
C367 C368 1.366 . S
C367 C369 1.388 . S
C368 C367 1.366 . S
C368 C372 1.385 . S
C369 H344 0.951 . S
C369 C367 1.388 . S
C369 C370 1.366 . S
C370 C369 1.366 . S
C370 C371 1.414 . S
C370 C373 1.499 1_565 S
C371 H345 0.950 1_565 S
C371 C370 1.414 . S
C371 C372 1.374 . S
C372 H346 0.950 . S
C372 C368 1.385 . S
C372 C371 1.374 . S
C373 C370 1.499 1_545 S
C373 C374 1.373 . S
C373 C375 1.389 . S
C374 H347 0.950 . S
C374 C360 1.377 . S
C374 C373 1.373 . S
C375 C359 1.377 . S
C375 C373 1.389 . S
C375 C376 1.524 . S
C376 C375 1.524 . S
C376 C377 1.397 . S
C376 C381 1.363 . S
C377 H348 0.950 . S
C377 C376 1.397 . S
C377 C378 1.334 1_545 S
C378 H349 0.950 . S
C378 C377 1.334 1_565 S
C378 C379 1.287 . S
C379 C378 1.287 . S
C379 C380 1.524 1_565 S
C379 H382 0.999 . S
C380 H350 0.947 1_545 S
C380 C379 1.524 1_545 S
C380 C381 1.415 . S
C381 H351 0.950 . S
C381 C376 1.363 . S
C381 C380 1.415 . S
H382 C379 0.999 . S
H383 C364 0.913 . S
H384 C402 0.951 . S
H385 C404 0.951 1_565 S
H386 C406 0.950 . S
H387 C407 0.950 . S
H388 C409 0.950 . S
H389 C412 0.950 1_545 S
H390 C413 0.954 . S
H391 C415 0.950 . S
H392 C416 0.950 . S
H393 C417 0.951 . S
H394 C419 0.951 . S
H395 C421 0.950 . S
H396 C422 0.950 . S
H397 C424 0.950 . S
H398 C427 0.950 . S
H399 C428 0.950 . S
H400 C430 0.950 . S
H401 C431 0.950 . S
C402 H384 0.951 . S
C402 C403 1.366 . S
C402 C404 1.388 . S
C403 C402 1.366 . S
C403 C407 1.385 . S
C404 H385 0.951 1_545 S
C404 C402 1.388 . S
C404 C405 1.366 . S
C405 C404 1.366 . S
C405 C406 1.414 . S
C405 C408 1.499 1_545 S
C406 H386 0.950 . S
C406 C405 1.414 . S
C406 C407 1.374 . S
C407 H387 0.950 . S
C407 C403 1.385 . S
C407 C406 1.374 . S
C408 C405 1.499 1_565 S
C408 C409 1.373 . S
C408 C410 1.389 . S
C409 H388 0.950 . S
C409 C408 1.373 . S
C409 C425 1.377 . S
C410 C408 1.389 . S
C410 C411 1.524 . S
C410 C424 1.377 . S
C411 C410 1.524 . S
C411 C412 1.397 . S
C411 C416 1.363 . S
C412 H389 0.950 1_565 S
C412 C411 1.397 . S
C412 C413 1.333 1_565 S
C413 H390 0.954 . S
C413 C412 1.333 1_545 S
C413 C414 1.284 1_545 S
C414 C413 1.284 1_565 S
C414 C415 1.524 . S
C414 H433 0.913 . S
C415 H391 0.950 . S
C415 C414 1.524 . S
C415 C416 1.415 . S
C416 H392 0.950 . S
C416 C411 1.363 . S
C416 C415 1.415 . S
C417 H393 0.951 . S
C417 C418 1.366 . S
C417 C419 1.388 . S
C418 C417 1.366 . S
C418 C422 1.385 . S
C419 H394 0.951 . S
C419 C417 1.388 . S
C419 C420 1.366 . S
C420 C419 1.366 . S
C420 C421 1.414 . S
C420 C423 1.499 . S
C421 H395 0.950 . S
C421 C420 1.414 . S
C421 C422 1.374 . S
C422 H396 0.950 . S
C422 C418 1.385 . S
C422 C421 1.374 . S
C423 C420 1.499 . S
C423 C424 1.373 . S
C423 C425 1.389 . S
C424 H397 0.950 . S
C424 C410 1.377 . S
C424 C423 1.373 . S
C425 C409 1.377 . S
C425 C423 1.389 . S
C425 C426 1.524 . S
C426 C425 1.524 . S
C426 C427 1.397 . S
C426 C431 1.363 . S
C427 H398 0.950 . S
C427 C426 1.397 . S
C427 C428 1.334 . S
C428 H399 0.950 . S
C428 C427 1.334 . S
C428 C429 1.287 . S
C429 C428 1.287 . S
C429 C430 1.524 . S
C429 H432 0.999 . S
C430 H400 0.950 . S
C430 C429 1.524 . S
C430 C431 1.415 . S
C431 H401 0.950 . S
C431 C426 1.363 . S
C431 C430 1.415 . S
H432 C429 0.999 . S
H433 C414 0.913 . S
H434 C452 0.951 . S
H435 C454 0.951 . S
H436 C456 0.950 . S
H437 C457 0.950 . S
H438 C459 0.950 . S
H439 C462 0.950 . S
H440 C463 0.950 . S
H441 C465 0.950 . S
H442 C466 0.950 . S
H443 C467 0.951 . S
H444 C469 0.951 . S
H445 C471 0.950 . S
H446 C472 0.950 . S
H447 C474 0.950 . S
H448 C477 0.950 . S
H449 C478 0.950 . S
H450 C480 0.950 . S
H451 C481 0.950 . S
C452 H434 0.951 . S
C452 C453 1.366 . S
C452 C454 1.388 . S
C453 C452 1.366 . S
C453 C457 1.385 . S
C454 H435 0.951 . S
C454 C452 1.388 . S
C454 C455 1.366 . S
C455 C454 1.366 . S
C455 C456 1.414 . S
C455 C458 1.499 . S
C456 H436 0.950 . S
C456 C455 1.414 . S
C456 C457 1.374 . S
C457 H437 0.950 . S
C457 C453 1.385 . S
C457 C456 1.374 . S
C458 C455 1.499 . S
C458 C459 1.373 . S
C458 C460 1.389 . S
C459 H438 0.950 . S
C459 C458 1.373 . S
C459 C475 1.377 . S
C460 C458 1.389 . S
C460 C461 1.524 . S
C460 C474 1.377 . S
C461 C460 1.524 . S
C461 C462 1.397 . S
C461 C466 1.363 . S
C462 H439 0.950 . S
C462 C461 1.397 . S
C462 C463 1.334 . S
C463 H440 0.950 . S
C463 C462 1.334 . S
C463 C464 1.287 . S
C464 C463 1.287 . S
C464 C465 1.524 . S
C464 H483 0.913 . S
C465 H441 0.950 . S
C465 C464 1.524 . S
C465 C466 1.415 . S
C466 H442 0.950 . S
C466 C461 1.363 . S
C466 C465 1.415 . S
C467 H443 0.951 . S
C467 C468 1.366 . S
C467 C469 1.388 . S
C468 C467 1.366 . S
C468 C472 1.385 . S
C469 H444 0.951 . S
C469 C467 1.388 . S
C469 C470 1.366 . S
C470 C469 1.366 . S
C470 C471 1.414 . S
C470 C473 1.499 . S
C471 H445 0.950 . S
C471 C470 1.414 . S
C471 C472 1.374 . S
C472 H446 0.950 . S
C472 C468 1.385 . S
C472 C471 1.374 . S
C473 C470 1.499 . S
C473 C474 1.373 . S
C473 C475 1.389 . S
C474 H447 0.950 . S
C474 C460 1.377 . S
C474 C473 1.373 . S
C475 C459 1.377 . S
C475 C473 1.389 . S
C475 C476 1.524 . S
C476 C475 1.524 . S
C476 C477 1.397 . S
C476 C481 1.363 . S
C477 H448 0.950 . S
C477 C476 1.397 . S
C477 C478 1.334 . S
C478 H449 0.950 . S
C478 C477 1.334 . S
C478 C479 1.287 . S
C479 C478 1.287 . S
C479 C480 1.524 . S
C479 H482 0.999 . S
C480 H450 0.950 . S
C480 C479 1.524 . S
C480 C481 1.415 . S
C481 H451 0.950 . S
C481 C476 1.363 . S
C481 C480 1.415 . S
H482 C479 0.999 . S
H483 C464 0.913 . S
H484 C502 0.951 . S
H485 C504 0.951 . S
H486 C506 0.950 . S
H487 C507 0.950 . S
H488 C509 0.950 . S
H489 C512 0.950 . S
H490 C513 0.950 . S
H491 C515 0.950 . S
H492 C516 0.950 . S
H493 C517 0.951 . S
H494 C519 0.951 . S
H495 C521 0.950 . S
H496 C522 0.950 . S
H497 C524 0.950 . S
H498 C527 0.950 . S
H499 C528 0.950 . S
H500 C530 0.950 . S
H501 C531 0.950 . S
C502 H484 0.951 . S
C502 C503 1.366 . S
C502 C504 1.388 . S
C503 C502 1.366 . S
C503 C507 1.385 . S
C504 H485 0.951 . S
C504 C502 1.388 . S
C504 C505 1.366 . S
C505 C504 1.366 . S
C505 C506 1.414 . S
C505 C508 1.499 . S
C506 H486 0.950 . S
C506 C505 1.414 . S
C506 C507 1.374 . S
C507 H487 0.950 . S
C507 C503 1.385 . S
C507 C506 1.374 . S
C508 C505 1.499 . S
C508 C509 1.373 . S
C508 C510 1.389 . S
C509 H488 0.950 . S
C509 C508 1.373 . S
C509 C525 1.377 . S
C510 C508 1.389 . S
C510 C511 1.524 . S
C510 C524 1.377 . S
C511 C510 1.524 . S
C511 C512 1.397 . S
C511 C516 1.363 . S
C512 H489 0.950 . S
C512 C511 1.397 . S
C512 C513 1.334 . S
C513 H490 0.950 . S
C513 C512 1.334 . S
C513 C514 1.287 . S
C514 C513 1.287 . S
C514 C515 1.524 . S
C514 H533 0.913 . S
C515 H491 0.950 . S
C515 C514 1.524 . S
C515 C516 1.415 . S
C516 H492 0.950 . S
C516 C511 1.363 . S
C516 C515 1.415 . S
C517 H493 0.951 . S
C517 C518 1.366 . S
C517 C519 1.388 . S
C518 C517 1.366 . S
C518 C522 1.385 . S
C519 H494 0.951 . S
C519 C517 1.388 . S
C519 C520 1.366 . S
C520 C519 1.366 . S
C520 C521 1.414 . S
C520 C523 1.499 . S
C521 H495 0.950 . S
C521 C520 1.414 . S
C521 C522 1.374 . S
C522 H496 0.950 . S
C522 C518 1.385 . S
C522 C521 1.374 . S
C523 C520 1.499 . S
C523 C524 1.373 . S
C523 C525 1.389 . S
C524 H497 0.950 . S
C524 C510 1.377 . S
C524 C523 1.373 . S
C525 C509 1.377 . S
C525 C523 1.389 . S
C525 C526 1.524 . S
C526 C525 1.524 . S
C526 C527 1.397 . S
C526 C531 1.363 . S
C527 H498 0.950 . S
C527 C526 1.397 . S
C527 C528 1.334 . S
C528 H499 0.950 . S
C528 C527 1.334 . S
C528 C529 1.287 . S
C529 C528 1.287 . S
C529 C530 1.524 . S
C529 H532 0.999 . S
C530 H500 0.950 . S
C530 C529 1.524 . S
C530 C531 1.415 . S
C531 H501 0.950 . S
C531 C526 1.363 . S
C531 C530 1.415 . S
H532 C529 0.999 . S
H533 C514 0.913 . S
H534 C552 0.951 . S
H535 C554 0.951 . S
H536 C556 0.950 . S
H537 C557 0.950 . S
H538 C559 0.950 . S
H539 C562 0.950 . S
H540 C563 0.950 . S
H541 C565 0.953 . S
H542 C566 0.950 . S
H543 C567 0.951 . S
H544 C569 0.951 . S
H545 C571 0.950 . S
H546 C572 0.950 . S
H547 C574 0.950 . S
H548 C577 0.950 . S
H549 C578 0.950 . S
H550 C580 0.950 . S
H551 C581 0.950 . S
C552 H534 0.951 . S
C552 C553 1.366 . S
C552 C554 1.388 . S
C553 C552 1.366 . S
C553 C557 1.385 . S
C554 H535 0.951 . S
C554 C552 1.388 . S
C554 C555 1.366 . S
C555 C554 1.366 . S
C555 C556 1.414 . S
C555 C558 1.499 1_545 S
C556 H536 0.950 . S
C556 C555 1.414 . S
C556 C557 1.374 . S
C557 H537 0.950 . S
C557 C553 1.385 . S
C557 C556 1.374 . S
C558 C555 1.499 1_565 S
C558 C559 1.373 . S
C558 C560 1.389 . S
C559 H538 0.950 . S
C559 C558 1.373 . S
C559 C575 1.377 . S
C560 C558 1.389 . S
C560 C561 1.524 . S
C560 C574 1.377 . S
C561 C560 1.524 . S
C561 C562 1.397 1_565 S
C561 C566 1.363 . S
C562 H539 0.950 . S
C562 C561 1.397 1_545 S
C562 C563 1.334 . S
C563 H540 0.950 . S
C563 C562 1.334 . S
C563 C564 1.287 . S
C564 C563 1.287 . S
C564 C565 1.524 . S
C564 H583 0.913 . S
C565 H541 0.953 . S
C565 C564 1.524 . S
C565 C566 1.415 1_545 S
C566 H542 0.950 . S
C566 C561 1.363 . S
C566 C565 1.415 1_565 S
C567 H543 0.951 . S
C567 C568 1.366 . S
C567 C569 1.388 . S
C568 C567 1.366 . S
C568 C572 1.385 . S
C569 H544 0.951 . S
C569 C567 1.388 . S
C569 C570 1.366 . S
C570 C569 1.366 . S
C570 C571 1.414 . S
C570 C573 1.499 . S
C571 H545 0.950 . S
C571 C570 1.414 . S
C571 C572 1.374 . S
C572 H546 0.950 . S
C572 C568 1.385 . S
C572 C571 1.374 . S
C573 C570 1.499 . S
C573 C574 1.373 . S
C573 C575 1.389 . S
C574 H547 0.950 . S
C574 C560 1.377 . S
C574 C573 1.373 . S
C575 C559 1.377 . S
C575 C573 1.389 . S
C575 C576 1.524 . S
C576 C575 1.524 . S
C576 C577 1.397 . S
C576 C581 1.363 . S
C577 H548 0.950 . S
C577 C576 1.397 . S
C577 C578 1.334 . S
C578 H549 0.950 . S
C578 C577 1.334 . S
C578 C579 1.287 . S
C579 C578 1.287 . S
C579 C580 1.524 . S
C579 H582 0.999 . S
C580 H550 0.950 . S
C580 C579 1.524 . S
C580 C581 1.415 . S
C581 H551 0.950 . S
C581 C576 1.363 . S
C581 C580 1.415 . S
H582 C579 0.999 . S
H583 C564 0.913 . S
H584 C602 0.951 . S
H585 C604 0.951 . S
H586 C606 0.950 . S
H587 C607 0.950 . S
H588 C609 0.950 . S
H589 C612 0.950 . S
H590 C613 0.950 . S
H591 C615 0.950 . S
H592 C616 0.950 . S
H593 C617 0.951 . S
H594 C619 0.951 . S
H595 C621 0.950 . S
H596 C622 0.950 . S
H597 C624 0.950 . S
H598 C627 0.950 . S
H599 C628 0.950 . S
H600 C630 0.950 . S
H601 C631 0.950 . S
C602 H584 0.951 . S
C602 C603 1.366 . S
C602 C604 1.388 . S
C603 C602 1.366 . S
C603 C607 1.385 . S
C604 H585 0.951 . S
C604 C602 1.388 . S
C604 C605 1.366 . S
C605 C604 1.366 . S
C605 C606 1.414 . S
C605 C608 1.499 . S
C606 H586 0.950 . S
C606 C605 1.414 . S
C606 C607 1.374 . S
C607 H587 0.950 . S
C607 C603 1.385 . S
C607 C606 1.374 . S
C608 C605 1.499 . S
C608 C609 1.373 . S
C608 C610 1.389 . S
C609 H588 0.950 . S
C609 C608 1.373 . S
C609 C625 1.377 . S
C610 C608 1.389 . S
C610 C611 1.524 . S
C610 C624 1.377 . S
C611 C610 1.524 . S
C611 C612 1.397 . S
C611 C616 1.363 . S
C612 H589 0.950 . S
C612 C611 1.397 . S
C612 C613 1.334 . S
C613 H590 0.950 . S
C613 C612 1.334 . S
C613 C614 1.287 . S
C614 C613 1.287 . S
C614 C615 1.524 . S
C614 H633 0.913 . S
C615 H591 0.950 . S
C615 C614 1.524 . S
C615 C616 1.415 . S
C616 H592 0.950 . S
C616 C611 1.363 . S
C616 C615 1.415 . S
C617 H593 0.951 . S
C617 C618 1.366 . S
C617 C619 1.388 . S
C618 C617 1.366 . S
C618 C622 1.385 . S
C619 H594 0.951 . S
C619 C617 1.388 . S
C619 C620 1.366 . S
C620 C619 1.366 . S
C620 C621 1.414 . S
C620 C623 1.499 . S
C621 H595 0.950 . S
C621 C620 1.414 . S
C621 C622 1.374 . S
C622 H596 0.950 . S
C622 C618 1.385 . S
C622 C621 1.374 . S
C623 C620 1.499 . S
C623 C624 1.373 . S
C623 C625 1.389 . S
C624 H597 0.950 . S
C624 C610 1.377 . S
C624 C623 1.373 . S
C625 C609 1.377 . S
C625 C623 1.389 . S
C625 C626 1.524 . S
C626 C625 1.524 . S
C626 C627 1.397 . S
C626 C631 1.363 . S
C627 H598 0.950 . S
C627 C626 1.397 . S
C627 C628 1.334 . S
C628 H599 0.950 . S
C628 C627 1.334 . S
C628 C629 1.287 . S
C629 C628 1.287 . S
C629 C630 1.524 . S
C629 H632 0.999 . S
C630 H600 0.950 . S
C630 C629 1.524 . S
C630 C631 1.415 . S
C631 H601 0.950 . S
C631 C626 1.363 . S
C631 C630 1.415 . S
H632 C629 0.999 . S
H633 C614 0.913 . S
H634 C652 0.951 . S
H635 C654 0.951 1_455 S
H636 C656 0.950 . S
H637 C657 0.950 . S
H638 C659 0.950 . S
H639 C662 0.979 . S
H640 C663 0.950 . S
H641 C665 0.950 . S
H642 C666 0.950 . S
H643 C667 0.951 . S
H644 C669 0.951 1_655 S
H645 C671 0.950 . S
H646 C672 0.950 . S
H647 C674 0.950 . S
H648 C677 0.979 . S
H649 C678 0.950 . S
H650 C680 0.950 . S
H651 C681 0.950 . S
C652 H634 0.951 . S
C652 C653 1.366 . S
C652 C654 1.388 . S
C653 C652 1.366 . S
C653 C657 1.385 . S
C654 H635 0.951 1_655 S
C654 C652 1.388 . S
C654 C655 1.366 . S
C655 C654 1.366 . S
C655 C656 1.414 . S
C655 C658 1.499 . S
C656 H636 0.950 . S
C656 C655 1.414 . S
C656 C657 1.374 . S
C657 H637 0.950 . S
C657 C653 1.385 . S
C657 C656 1.374 . S
C658 C655 1.499 . S
C658 C659 1.373 1_554 S
C658 C660 1.389 1_655 S
C659 H638 0.950 . S
C659 C658 1.373 1_556 S
C659 C675 1.377 1_565 S
C660 C658 1.389 1_455 S
C660 C661 1.524 . S
C660 C674 1.377 1_565 S
C661 C660 1.524 . S
C661 C662 1.397 1_565 S
C661 C666 1.363 . S
C662 H639 0.979 . S
C662 C661 1.397 1_545 S
C662 C663 1.334 . S
C663 H640 0.950 . S
C663 C662 1.334 . S
C663 C664 1.287 1_545 S
C664 C663 1.287 1_565 S
C664 C665 1.524 . S
C664 H683 0.913 . S
C665 H641 0.950 . S
C665 C664 1.524 . S
C665 C666 1.415 . S
C666 H642 0.950 . S
C666 C661 1.363 . S
C666 C665 1.415 . S
C667 H643 0.951 . S
C667 C668 1.366 . S
C667 C669 1.388 . S
C668 C667 1.366 . S
C668 C672 1.385 . S
C669 H644 0.951 1_455 S
C669 C667 1.388 . S
C669 C670 1.366 . S
C670 C669 1.366 . S
C670 C671 1.414 . S
C670 C673 1.499 . S
C671 H645 0.950 . S
C671 C670 1.414 . S
C671 C672 1.374 . S
C672 H646 0.950 . S
C672 C668 1.385 . S
C672 C671 1.374 . S
C673 C670 1.499 . S
C673 C674 1.373 1_556 S
C673 C675 1.389 1_455 S
C674 H647 0.950 . S
C674 C660 1.377 1_545 S
C674 C673 1.373 1_554 S
C675 C659 1.377 1_545 S
C675 C673 1.389 1_655 S
C675 C676 1.524 . S
C676 C675 1.524 . S
C676 C677 1.397 1_545 S
C676 C681 1.363 . S
C677 H648 0.979 . S
C677 C676 1.397 1_565 S
C677 C678 1.334 . S
C678 H649 0.950 . S
C678 C677 1.334 . S
C678 C679 1.287 1_565 S
C679 C678 1.287 1_545 S
C679 C680 1.524 . S
C679 H682 0.999 . S
C680 H650 0.950 . S
C680 C679 1.524 . S
C680 C681 1.415 . S
C681 H651 0.950 . S
C681 C676 1.363 . S
C681 C680 1.415 . S
H682 C679 0.999 . S
H683 C664 0.913 . S
H684 C702 0.951 . S
H685 C704 0.951 1_455 S
H686 C706 0.950 . S
H687 C707 0.950 . S
H688 C709 0.950 . S
H689 C712 0.950 . S
H690 C713 0.950 . S
H691 C715 0.950 . S
H692 C716 0.950 . S
H693 C717 0.951 . S
H694 C719 0.951 1_655 S
H695 C721 0.950 . S
H696 C722 0.950 . S
H697 C724 0.950 . S
H698 C727 0.950 . S
H699 C728 0.950 . S
H700 C730 0.950 . S
H701 C731 0.950 . S
C702 H684 0.951 . S
C702 C703 1.366 . S
C702 C704 1.388 . S
C703 C702 1.366 . S
C703 C707 1.385 . S
C704 H685 0.951 1_655 S
C704 C702 1.388 . S
C704 C705 1.366 . S
C705 C704 1.366 . S
C705 C706 1.414 . S
C705 C708 1.499 . S
C706 H686 0.950 . S
C706 C705 1.414 . S
C706 C707 1.374 . S
C707 H687 0.950 . S
C707 C703 1.385 . S
C707 C706 1.374 . S
C708 C705 1.499 . S
C708 C709 1.373 1_545 S
C708 C710 1.389 1_655 S
C709 H688 0.950 . S
C709 C708 1.373 1_565 S
C709 C725 1.377 . S
C710 C708 1.389 1_455 S
C710 C711 1.524 . S
C710 C724 1.377 . S
C711 C710 1.524 . S
C711 C712 1.397 1_455 S
C711 C716 1.363 . S
C712 H689 0.950 . S
C712 C711 1.397 1_655 S
C712 C713 1.334 . S
C713 H690 0.950 . S
C713 C712 1.334 . S
C713 C714 1.287 . S
C714 C713 1.287 . S
C714 C715 1.524 1_655 S
C714 H733 0.913 . S
C715 H691 0.950 . S
C715 C714 1.524 1_455 S
C715 C716 1.415 . S
C716 H692 0.950 . S
C716 C711 1.363 . S
C716 C715 1.415 . S
C717 H693 0.951 . S
C717 C718 1.366 . S
C717 C719 1.388 . S
C718 C717 1.366 . S
C718 C722 1.385 . S
C719 H694 0.951 1_455 S
C719 C717 1.388 . S
C719 C720 1.366 . S
C720 C719 1.366 . S
C720 C721 1.414 . S
C720 C723 1.499 . S
C721 H695 0.950 . S
C721 C720 1.414 . S
C721 C722 1.374 . S
C722 H696 0.950 . S
C722 C718 1.385 . S
C722 C721 1.374 . S
C723 C720 1.499 . S
C723 C724 1.373 1_565 S
C723 C725 1.389 1_455 S
C724 H697 0.950 . S
C724 C710 1.377 . S
C724 C723 1.373 1_545 S
C725 C709 1.377 . S
C725 C723 1.389 1_655 S
C725 C726 1.524 . S
C726 C725 1.524 . S
C726 C727 1.397 1_655 S
C726 C731 1.363 . S
C727 H698 0.950 . S
C727 C726 1.397 1_455 S
C727 C728 1.334 . S
C728 H699 0.950 . S
C728 C727 1.334 . S
C728 C729 1.287 . S
C729 C728 1.287 . S
C729 C730 1.524 1_455 S
C729 H732 0.999 . S
C730 H700 0.950 . S
C730 C729 1.524 1_655 S
C730 C731 1.415 . S
C731 H701 0.950 . S
C731 C726 1.363 . S
C731 C730 1.415 . S
H732 C729 0.999 . S
H733 C714 0.913 . S
H734 C752 0.951 . S
H735 C754 0.951 . S
H736 C756 0.950 . S
H737 C757 0.950 . S
H738 C759 0.950 . S
H739 C762 0.950 . S
H740 C763 0.950 . S
H741 C765 0.950 . S
H742 C766 0.950 . S
H743 C767 0.951 . S
H744 C769 0.951 . S
H745 C771 0.950 . S
H746 C772 0.950 . S
H747 C774 0.950 . S
H748 C777 0.950 . S
H749 C778 0.950 . S
H750 C780 0.950 . S
H751 C781 0.950 . S
C752 H734 0.951 . S
C752 C753 1.366 . S
C752 C754 1.388 . S
C753 C752 1.366 . S
C753 C757 1.385 . S
C754 H735 0.951 . S
C754 C752 1.388 . S
C754 C755 1.366 . S
C755 C754 1.366 . S
C755 C756 1.414 . S
C755 C758 1.499 . S
C756 H736 0.950 . S
C756 C755 1.414 . S
C756 C757 1.374 . S
C757 H737 0.950 . S
C757 C753 1.385 . S
C757 C756 1.374 . S
C758 C755 1.499 . S
C758 C759 1.373 . S
C758 C760 1.389 . S
C759 H738 0.950 . S
C759 C758 1.373 . S
C759 C775 1.377 1_556 S
C760 C758 1.389 . S
C760 C761 1.524 . S
C760 C774 1.377 1_556 S
C761 C760 1.524 . S
C761 C762 1.397 . S
C761 C766 1.363 . S
C762 H739 0.950 . S
C762 C761 1.397 . S
C762 C763 1.334 . S
C763 H740 0.950 . S
C763 C762 1.334 . S
C763 C764 1.287 . S
C764 C763 1.287 . S
C764 C765 1.524 . S
C764 H783 0.913 . S
C765 H741 0.950 . S
C765 C764 1.524 . S
C765 C766 1.415 . S
C766 H742 0.950 . S
C766 C761 1.363 . S
C766 C765 1.415 . S
C767 H743 0.951 . S
C767 C768 1.366 . S
C767 C769 1.388 . S
C768 C767 1.366 . S
C768 C772 1.385 . S
C769 H744 0.951 . S
C769 C767 1.388 . S
C769 C770 1.366 . S
C770 C769 1.366 . S
C770 C771 1.414 . S
C770 C773 1.499 . S
C771 H745 0.950 . S
C771 C770 1.414 . S
C771 C772 1.374 . S
C772 H746 0.950 . S
C772 C768 1.385 . S
C772 C771 1.374 . S
C773 C770 1.499 . S
C773 C774 1.373 . S
C773 C775 1.389 . S
C774 H747 0.950 . S
C774 C760 1.377 1_554 S
C774 C773 1.373 . S
C775 C759 1.377 1_554 S
C775 C773 1.389 . S
C775 C776 1.524 . S
C776 C775 1.524 . S
C776 C777 1.397 . S
C776 C781 1.363 . S
C777 H748 0.950 . S
C777 C776 1.397 . S
C777 C778 1.334 . S
C778 H749 0.950 . S
C778 C777 1.334 . S
C778 C779 1.287 . S
C779 C778 1.287 . S
C779 C780 1.524 . S
C779 H782 0.999 . S
C780 H750 0.950 . S
C780 C779 1.524 . S
C780 C781 1.415 . S
C781 H751 0.950 . S
C781 C776 1.363 . S
C781 C780 1.415 . S
H782 C779 0.999 . S
H783 C764 0.913 . S
H784 C802 0.951 . S
H785 C804 0.951 . S
H786 C806 0.950 . S
H787 C807 0.950 . S
H788 C809 0.950 . S
H789 C812 0.950 . S
H790 C813 0.950 . S
H791 C815 0.950 . S
H792 C816 0.950 . S
H793 C817 0.951 . S
H794 C819 0.951 . S
H795 C821 0.950 . S
H796 C822 0.950 . S
H797 C824 0.950 . S
H798 C827 0.950 . S
H799 C828 0.950 . S
H800 C830 0.950 . S
H801 C831 0.950 . S
C802 H784 0.951 . S
C802 C803 1.366 . S
C802 C804 1.388 . S
C803 C802 1.366 . S
C803 C807 1.385 . S
C804 H785 0.951 . S
C804 C802 1.388 . S
C804 C805 1.366 . S
C805 C804 1.366 . S
C805 C806 1.414 . S
C805 C808 1.499 . S
C806 H786 0.950 . S
C806 C805 1.414 . S
C806 C807 1.374 . S
C807 H787 0.950 . S
C807 C803 1.385 . S
C807 C806 1.374 . S
C808 C805 1.499 . S
C808 C809 1.373 . S
C808 C810 1.389 . S
C809 H788 0.950 . S
C809 C808 1.373 . S
C809 C825 1.377 . S
C810 C808 1.389 . S
C810 C811 1.524 . S
C810 C824 1.377 . S
C811 C810 1.524 . S
C811 C812 1.397 . S
C811 C816 1.363 . S
C812 H789 0.950 . S
C812 C811 1.397 . S
C812 C813 1.334 . S
C813 H790 0.950 . S
C813 C812 1.334 . S
C813 C814 1.287 . S
C814 C813 1.287 . S
C814 C815 1.524 . S
C814 H833 0.913 . S
C815 H791 0.950 . S
C815 C814 1.524 . S
C815 C816 1.415 . S
C816 H792 0.950 . S
C816 C811 1.363 . S
C816 C815 1.415 . S
C817 H793 0.951 . S
C817 C818 1.366 . S
C817 C819 1.388 . S
C818 C817 1.366 . S
C818 C822 1.385 . S
C819 H794 0.951 . S
C819 C817 1.388 . S
C819 C820 1.366 . S
C820 C819 1.366 . S
C820 C821 1.414 . S
C820 C823 1.499 . S
C821 H795 0.950 . S
C821 C820 1.414 . S
C821 C822 1.374 . S
C822 H796 0.950 . S
C822 C818 1.385 . S
C822 C821 1.374 . S
C823 C820 1.499 . S
C823 C824 1.373 . S
C823 C825 1.389 . S
C824 H797 0.950 . S
C824 C810 1.377 . S
C824 C823 1.373 . S
C825 C809 1.377 . S
C825 C823 1.389 . S
C825 C826 1.524 . S
C826 C825 1.524 . S
C826 C827 1.397 . S
C826 C831 1.363 . S
C827 H798 0.950 . S
C827 C826 1.397 . S
C827 C828 1.334 . S
C828 H799 0.950 . S
C828 C827 1.334 . S
C828 C829 1.287 . S
C829 C828 1.287 . S
C829 C830 1.524 . S
C829 H832 0.999 . S
C830 H800 0.950 . S
C830 C829 1.524 . S
C830 C831 1.415 . S
C831 H801 0.950 . S
C831 C826 1.363 . S
C831 C830 1.415 . S
H832 C829 0.999 . S
H833 C814 0.913 . S
H834 C852 0.951 1_655 S
H835 C854 0.951 1_655 S
H836 C856 0.950 . S
H837 C857 0.950 . S
H838 C859 0.950 . S
H839 C862 0.950 . S
H840 C863 0.950 . S
H841 C865 0.950 . S
H842 C866 0.950 . S
H843 C867 0.951 1_455 S
H844 C869 0.951 1_455 S
H845 C871 0.950 . S
H846 C872 0.950 . S
H847 C874 0.950 . S
H848 C877 0.950 . S
H849 C878 0.950 . S
H850 C880 0.950 . S
H851 C881 0.950 . S
C852 H834 0.951 1_455 S
C852 C853 1.366 . S
C852 C854 1.388 . S
C853 C852 1.366 . S
C853 C857 1.385 . S
C854 H835 0.951 1_455 S
C854 C852 1.388 . S
C854 C855 1.366 . S
C855 C854 1.366 . S
C855 C856 1.414 . S
C855 C858 1.499 . S
C856 H836 0.950 . S
C856 C855 1.414 . S
C856 C857 1.374 . S
C857 H837 0.950 . S
C857 C853 1.385 . S
C857 C856 1.374 . S
C858 C855 1.499 . S
C858 C859 1.373 . S
C858 C860 1.389 1_455 S
C859 H838 0.950 . S
C859 C858 1.373 . S
C859 C875 1.377 . S
C860 C858 1.389 1_655 S
C860 C861 1.524 . S
C860 C874 1.377 . S
C861 C860 1.524 . S
C861 C862 1.397 1_655 S
C861 C866 1.363 . S
C862 H839 0.950 . S
C862 C861 1.397 1_455 S
C862 C863 1.334 . S
C863 H840 0.950 . S
C863 C862 1.334 . S
C863 C864 1.287 1_455 S
C864 C863 1.287 1_655 S
C864 C865 1.524 . S
C864 H883 0.913 . S
C865 H841 0.950 . S
C865 C864 1.524 . S
C865 C866 1.415 . S
C866 H842 0.950 . S
C866 C861 1.363 . S
C866 C865 1.415 . S
C867 H843 0.951 1_655 S
C867 C868 1.366 . S
C867 C869 1.388 . S
C868 C867 1.366 . S
C868 C872 1.385 . S
C869 H844 0.951 1_655 S
C869 C867 1.388 . S
C869 C870 1.366 . S
C870 C869 1.366 . S
C870 C871 1.414 . S
C870 C873 1.499 . S
C871 H845 0.950 . S
C871 C870 1.414 . S
C871 C872 1.374 . S
C872 H846 0.950 . S
C872 C868 1.385 . S
C872 C871 1.374 . S
C873 C870 1.499 . S
C873 C874 1.373 . S
C873 C875 1.389 1_655 S
C874 H847 0.950 . S
C874 C860 1.377 . S
C874 C873 1.373 . S
C875 C859 1.377 . S
C875 C873 1.389 1_455 S
C875 C876 1.524 . S
C876 C875 1.524 . S
C876 C877 1.397 1_455 S
C876 C881 1.363 . S
C877 H848 0.950 . S
C877 C876 1.397 1_655 S
C877 C878 1.334 . S
C878 H849 0.950 . S
C878 C877 1.334 . S
C878 C879 1.287 1_655 S
C879 C878 1.287 1_455 S
C879 C880 1.524 . S
C879 H882 0.999 . S
C880 H850 0.950 . S
C880 C879 1.524 . S
C880 C881 1.415 . S
C881 H851 0.950 . S
C881 C876 1.363 . S
C881 C880 1.415 . S
H882 C879 0.999 . S
H883 C864 0.913 . S
H884 C902 0.951 . S
H885 C904 0.951 . S
H886 C906 0.950 . S
H887 C907 0.950 . S
H888 C909 0.950 . S
H889 C912 0.950 . S
H890 C913 0.950 . S
H891 C915 0.950 . S
H892 C916 0.950 . S
H893 C917 0.951 . S
H894 C919 0.951 . S
H895 C921 0.950 . S
H896 C922 0.950 . S
H897 C924 0.950 . S
H898 C927 0.950 . S
H899 C928 0.950 . S
H900 C930 0.950 . S
H901 C931 0.950 . S
C902 H884 0.951 . S
C902 C903 1.366 . S
C902 C904 1.388 . S
C903 C902 1.366 . S
C903 C907 1.385 . S
C904 H885 0.951 . S
C904 C902 1.388 . S
C904 C905 1.366 . S
C905 C904 1.366 . S
C905 C906 1.414 . S
C905 C908 1.499 . S
C906 H886 0.950 . S
C906 C905 1.414 . S
C906 C907 1.374 . S
C907 H887 0.950 . S
C907 C903 1.385 . S
C907 C906 1.374 . S
C908 C905 1.499 . S
C908 C909 1.373 . S
C908 C910 1.389 . S
C909 H888 0.950 . S
C909 C908 1.373 . S
C909 C925 1.377 . S
C910 C908 1.389 . S
C910 C911 1.524 . S
C910 C924 1.377 . S
C911 C910 1.524 . S
C911 C912 1.397 . S
C911 C916 1.363 . S
C912 H889 0.950 . S
C912 C911 1.397 . S
C912 C913 1.334 . S
C913 H890 0.950 . S
C913 C912 1.334 . S
C913 C914 1.287 . S
C914 C913 1.287 . S
C914 C915 1.524 . S
C914 H933 0.913 . S
C915 H891 0.950 . S
C915 C914 1.524 . S
C915 C916 1.415 . S
C916 H892 0.950 . S
C916 C911 1.363 . S
C916 C915 1.415 . S
C917 H893 0.951 . S
C917 C918 1.366 . S
C917 C919 1.388 . S
C918 C917 1.366 . S
C918 C922 1.385 . S
C919 H894 0.951 . S
C919 C917 1.388 . S
C919 C920 1.366 . S
C920 C919 1.366 . S
C920 C921 1.414 . S
C920 C923 1.499 . S
C921 H895 0.950 . S
C921 C920 1.414 . S
C921 C922 1.374 . S
C922 H896 0.950 . S
C922 C918 1.385 . S
C922 C921 1.374 . S
C923 C920 1.499 . S
C923 C924 1.373 . S
C923 C925 1.389 . S
C924 H897 0.950 . S
C924 C910 1.377 . S
C924 C923 1.373 . S
C925 C909 1.377 . S
C925 C923 1.389 . S
C925 C926 1.524 . S
C926 C925 1.524 . S
C926 C927 1.397 . S
C926 C931 1.363 . S
C927 H898 0.950 . S
C927 C926 1.397 . S
C927 C928 1.334 . S
C928 H899 0.950 . S
C928 C927 1.334 . S
C928 C929 1.287 . S
C929 C928 1.287 . S
C929 C930 1.524 . S
C929 H932 0.999 . S
C930 H900 0.950 . S
C930 C929 1.524 . S
C930 C931 1.415 . S
C931 H901 0.950 . S
C931 C926 1.363 . S
C931 C930 1.415 . S
H932 C929 0.999 . S
H933 C914 0.913 . S
H934 C952 0.951 1_455 S
H935 C954 0.951 1_455 S
H936 C956 0.950 . S
H937 C957 0.950 . S
H938 C959 0.950 . S
H939 C962 0.950 . S
H940 C963 0.950 . S
H941 C965 0.950 . S
H942 C966 0.950 . S
H943 C967 0.951 1_655 S
H944 C969 0.951 1_655 S
H945 C971 0.950 . S
H946 C972 0.950 . S
H947 C974 0.950 . S
H948 C977 0.950 . S
H949 C978 0.950 . S
H950 C980 0.950 . S
H951 C981 0.950 . S
C952 H934 0.951 1_655 S
C952 C953 1.366 . S
C952 C954 1.388 . S
C953 C952 1.366 . S
C953 C957 1.385 . S
C954 H935 0.951 1_655 S
C954 C952 1.388 . S
C954 C955 1.366 . S
C955 C954 1.366 . S
C955 C956 1.414 . S
C955 C958 1.499 . S
C956 H936 0.950 . S
C956 C955 1.414 . S
C956 C957 1.374 . S
C957 H937 0.950 . S
C957 C953 1.385 . S
C957 C956 1.374 . S
C958 C955 1.499 . S
C958 C959 1.373 . S
C958 C960 1.389 1_655 S
C959 H938 0.950 . S
C959 C958 1.373 . S
C959 C975 1.377 . S
C960 C958 1.389 1_455 S
C960 C961 1.524 . S
C960 C974 1.377 . S
C961 C960 1.524 . S
C961 C962 1.397 . S
C961 C966 1.363 . S
C962 H939 0.950 . S
C962 C961 1.397 . S
C962 C963 1.334 . S
C963 H940 0.950 . S
C963 C962 1.334 . S
C963 C964 1.287 . S
C964 C963 1.287 . S
C964 C965 1.524 . S
C964 H983 0.913 . S
C965 H941 0.950 . S
C965 C964 1.524 . S
C965 C966 1.415 . S
C966 H942 0.950 . S
C966 C961 1.363 . S
C966 C965 1.415 . S
C967 H943 0.951 1_455 S
C967 C968 1.366 . S
C967 C969 1.388 . S
C968 C967 1.366 . S
C968 C972 1.385 . S
C969 H944 0.951 1_455 S
C969 C967 1.388 . S
C969 C970 1.366 . S
C970 C969 1.366 . S
C970 C971 1.414 . S
C970 C973 1.499 . S
C971 H945 0.950 . S
C971 C970 1.414 . S
C971 C972 1.374 . S
C972 H946 0.950 . S
C972 C968 1.385 . S
C972 C971 1.374 . S
C973 C970 1.499 . S
C973 C974 1.373 . S
C973 C975 1.389 1_455 S
C974 H947 0.950 . S
C974 C960 1.377 . S
C974 C973 1.373 . S
C975 C959 1.377 . S
C975 C973 1.389 1_655 S
C975 C976 1.524 . S
C976 C975 1.524 . S
C976 C977 1.397 . S
C976 C981 1.363 . S
C977 H948 0.950 . S
C977 C976 1.397 . S
C977 C978 1.334 . S
C978 H949 0.950 . S
C978 C977 1.334 . S
C978 C979 1.287 . S
C979 C978 1.287 . S
C979 C980 1.524 . S
C979 H982 0.999 . S
C980 H950 0.950 . S
C980 C979 1.524 . S
C980 C981 1.415 . S
C981 H951 0.950 . S
C981 C976 1.363 . S
C981 C980 1.415 . S
H982 C979 0.999 . S
H983 C964 0.913 . S
H984 C1002 0.951 . S
H985 C1004 0.951 . S
H986 C1006 0.950 . S
H987 C1007 0.950 . S
H988 C1009 0.950 . S
H989 C1012 0.950 . S
H990 C1013 0.950 . S
H991 C1015 0.950 . S
H992 C1016 0.950 . S
H993 C1017 0.951 . S
H994 C1019 0.951 . S
H995 C1021 0.950 . S
H996 C1022 0.950 . S
H997 C1024 0.950 . S
H998 C1027 0.950 . S
H999 C1028 0.950 . S
H1000 C1030 0.950 . S
H1001 C1031 0.950 . S
C1002 H984 0.951 . S
C1002 C1003 1.366 . S
C1002 C1004 1.388 . S
C1003 C1002 1.366 . S
C1003 C1007 1.385 . S
C1004 H985 0.951 . S
C1004 C1002 1.388 . S
C1004 C1005 1.366 . S
C1005 C1004 1.366 . S
C1005 C1006 1.414 . S
C1005 C1008 1.499 . S
C1006 H986 0.950 . S
C1006 C1005 1.414 . S
C1006 C1007 1.374 . S
C1007 H987 0.950 . S
C1007 C1003 1.385 . S
C1007 C1006 1.374 . S
C1008 C1005 1.499 . S
C1008 C1009 1.373 . S
C1008 C1010 1.389 . S
C1009 H988 0.950 . S
C1009 C1008 1.373 . S
C1009 C1025 1.377 . S
C1010 C1008 1.389 . S
C1010 C1011 1.524 . S
C1010 C1024 1.377 . S
C1011 C1010 1.524 . S
C1011 C1012 1.397 . S
C1011 C1016 1.363 . S
C1012 H989 0.950 . S
C1012 C1011 1.397 . S
C1012 C1013 1.334 . S
C1013 H990 0.950 . S
C1013 C1012 1.334 . S
C1013 C1014 1.287 . S
C1014 C1013 1.287 . S
C1014 C1015 1.524 . S
C1014 H1033 0.913 . S
C1015 H991 0.950 . S
C1015 C1014 1.524 . S
C1015 C1016 1.415 . S
C1016 H992 0.950 . S
C1016 C1011 1.363 . S
C1016 C1015 1.415 . S
C1017 H993 0.951 . S
C1017 C1018 1.366 . S
C1017 C1019 1.388 . S
C1018 C1017 1.366 . S
C1018 C1022 1.385 . S
C1019 H994 0.951 . S
C1019 C1017 1.388 . S
C1019 C1020 1.366 . S
C1020 C1019 1.366 . S
C1020 C1021 1.414 . S
C1020 C1023 1.499 . S
C1021 H995 0.950 . S
C1021 C1020 1.414 . S
C1021 C1022 1.374 . S
C1022 H996 0.950 . S
C1022 C1018 1.385 . S
C1022 C1021 1.374 . S
C1023 C1020 1.499 . S
C1023 C1024 1.373 . S
C1023 C1025 1.389 . S
C1024 H997 0.950 . S
C1024 C1010 1.377 . S
C1024 C1023 1.373 . S
C1025 C1009 1.377 . S
C1025 C1023 1.389 . S
C1025 C1026 1.524 . S
C1026 C1025 1.524 . S
C1026 C1027 1.397 . S
C1026 C1031 1.363 . S
C1027 H998 0.950 . S
C1027 C1026 1.397 . S
C1027 C1028 1.334 . S
C1028 H999 0.950 . S
C1028 C1027 1.334 . S
C1028 C1029 1.287 . S
C1029 C1028 1.287 . S
C1029 C1030 1.524 . S
C1029 H1032 0.999 . S
C1030 H1000 0.950 . S
C1030 C1029 1.524 . S
C1030 C1031 1.415 . S
C1031 H1001 0.950 . S
C1031 C1026 1.363 . S
C1031 C1030 1.415 . S
H1032 C1029 0.999 . S
H1033 C1014 0.913 . S
H1034 C1052 0.951 1_455 S
H1035 C1054 0.951 . S
H1036 C1056 0.950 . S
H1037 C1057 0.950 . S
H1038 C1059 0.950 . S
H1039 C1062 0.950 . S
H1040 C1063 0.950 . S
H1041 C1065 0.950 . S
H1042 C1066 0.950 . S
H1043 C1067 0.951 . S
H1044 C1069 0.951 . S
H1045 C1071 0.950 . S
H1046 C1072 0.950 . S
H1047 C1074 0.950 . S
H1048 C1077 0.950 . S
H1049 C1078 0.950 . S
H1050 C1080 0.950 . S
H1051 C1081 0.950 . S
C1052 H1034 0.951 1_655 S
C1052 C1053 1.367 . S
C1052 C1054 1.388 . S
C1053 C1052 1.367 . S
C1053 C1057 1.397 . S
C1054 H1035 0.951 . S
C1054 C1052 1.388 . S
C1054 C1055 1.366 . S
C1055 C1054 1.366 . S
C1055 C1056 1.414 . S
C1055 C1058 1.499 . S
C1056 H1036 0.950 . S
C1056 C1055 1.414 . S
C1056 C1057 1.374 . S
C1057 H1037 0.950 . S
C1057 C1053 1.397 . S
C1057 C1056 1.374 . S
C1058 C1055 1.499 . S
C1058 C1059 1.373 . S
C1058 C1060 1.389 1_556 S
C1059 H1038 0.950 . S
C1059 C1058 1.373 . S
C1059 C1075 1.377 . S
C1060 C1058 1.389 1_554 S
C1060 C1061 1.524 . S
C1060 C1074 1.377 . S
C1061 C1060 1.524 . S
C1061 C1062 1.397 . S
C1061 C1066 1.363 . S
C1062 H1039 0.950 . S
C1062 C1061 1.397 . S
C1062 C1063 1.334 . S
C1063 H1040 0.950 . S
C1063 C1062 1.334 . S
C1063 C1064 1.287 . S
C1064 C1063 1.287 . S
C1064 C1065 1.524 . S
C1064 H1083 0.913 1_655 S
C1065 H1041 0.950 . S
C1065 C1064 1.524 . S
C1065 C1066 1.415 . S
C1066 H1042 0.950 . S
C1066 C1061 1.363 . S
C1066 C1065 1.415 . S
C1067 H1043 0.951 . S
C1067 C1068 1.366 . S
C1067 C1069 1.388 . S
C1068 C1067 1.366 . S
C1068 C1072 1.385 . S
C1069 H1044 0.951 . S
C1069 C1067 1.388 . S
C1069 C1070 1.366 . S
C1070 C1069 1.366 . S
C1070 C1071 1.414 . S
C1070 C1073 1.499 . S
C1071 H1045 0.950 . S
C1071 C1070 1.414 . S
C1071 C1072 1.374 . S
C1072 H1046 0.950 . S
C1072 C1068 1.385 . S
C1072 C1071 1.374 . S
C1073 C1070 1.499 . S
C1073 C1074 1.373 . S
C1073 C1075 1.389 1_554 S
C1074 H1047 0.950 . S
C1074 C1060 1.377 . S
C1074 C1073 1.373 . S
C1075 C1059 1.377 . S
C1075 C1073 1.389 1_556 S
C1075 C1076 1.524 . S
C1076 C1075 1.524 . S
C1076 C1077 1.397 . S
C1076 C1081 1.363 . S
C1077 H1048 0.950 . S
C1077 C1076 1.397 . S
C1077 C1078 1.334 . S
C1078 H1049 0.950 . S
C1078 C1077 1.334 . S
C1078 C1079 1.287 . S
C1079 C1078 1.287 . S
C1079 C1080 1.524 . S
C1079 H1082 0.999 . S
C1080 H1050 0.950 . S
C1080 C1079 1.524 . S
C1080 C1081 1.415 . S
C1081 H1051 0.950 . S
C1081 C1076 1.363 . S
C1081 C1080 1.415 . S
H1082 C1079 0.999 . S
H1083 C1064 0.913 1_455 S
H1084 C1102 0.951 . S
H1085 C1104 0.951 . S
H1086 C1106 0.950 . S
H1087 C1107 0.950 . S
H1088 C1109 0.950 . S
H1089 C1112 0.950 . S
H1090 C1113 0.950 . S
H1091 C1115 0.950 . S
H1092 C1116 0.950 . S
H1093 C1117 0.951 . S
H1094 C1119 0.951 . S
H1095 C1121 0.950 . S
H1096 C1122 0.950 . S
H1097 C1124 0.950 . S
H1098 C1127 0.950 . S
H1099 C1128 0.950 . S
H1100 C1130 0.950 . S
H1101 C1131 0.950 . S
C1102 H1084 0.951 . S
C1102 C1103 1.372 . S
C1102 C1104 1.388 . S
C1103 C1102 1.372 . S
C1103 C1107 1.392 . S
C1104 H1085 0.951 . S
C1104 C1102 1.388 . S
C1104 C1105 1.366 . S
C1105 C1104 1.366 . S
C1105 C1106 1.414 . S
C1105 C1108 1.499 . S
C1106 H1086 0.950 . S
C1106 C1105 1.414 . S
C1106 C1107 1.374 . S
C1107 H1087 0.950 . S
C1107 C1103 1.392 . S
C1107 C1106 1.374 . S
C1108 C1105 1.499 . S
C1108 C1109 1.373 . S
C1108 C1110 1.389 . S
C1109 H1088 0.950 . S
C1109 C1108 1.373 . S
C1109 C1125 1.377 . S
C1110 C1108 1.389 . S
C1110 C1111 1.524 . S
C1110 C1124 1.377 . S
C1111 C1110 1.524 . S
C1111 C1112 1.397 . S
C1111 C1116 1.363 . S
C1112 H1089 0.950 . S
C1112 C1111 1.397 . S
C1112 C1113 1.334 . S
C1113 H1090 0.950 . S
C1113 C1112 1.334 . S
C1113 C1114 1.287 . S
C1114 C1113 1.287 . S
C1114 C1115 1.524 . S
C1114 H1133 0.913 . S
C1115 H1091 0.950 . S
C1115 C1114 1.524 . S
C1115 C1116 1.415 . S
C1116 H1092 0.950 . S
C1116 C1111 1.363 . S
C1116 C1115 1.415 . S
C1117 H1093 0.951 . S
C1117 C1118 1.366 . S
C1117 C1119 1.388 . S
C1118 C1117 1.366 . S
C1118 C1122 1.385 . S
C1119 H1094 0.951 . S
C1119 C1117 1.388 . S
C1119 C1120 1.366 . S
C1120 C1119 1.366 . S
C1120 C1121 1.414 . S
C1120 C1123 1.499 . S
C1121 H1095 0.950 . S
C1121 C1120 1.414 . S
C1121 C1122 1.374 . S
C1122 H1096 0.950 . S
C1122 C1118 1.385 . S
C1122 C1121 1.374 . S
C1123 C1120 1.499 . S
C1123 C1124 1.373 . S
C1123 C1125 1.389 . S
C1124 H1097 0.950 . S
C1124 C1110 1.377 . S
C1124 C1123 1.373 . S
C1125 C1109 1.377 . S
C1125 C1123 1.389 . S
C1125 C1126 1.524 . S
C1126 C1125 1.524 . S
C1126 C1127 1.397 . S
C1126 C1131 1.363 . S
C1127 H1098 0.950 . S
C1127 C1126 1.397 . S
C1127 C1128 1.334 . S
C1128 H1099 0.950 . S
C1128 C1127 1.334 . S
C1128 C1129 1.287 . S
C1129 C1128 1.287 . S
C1129 C1130 1.524 . S
C1129 H1132 0.999 . S
C1130 H1100 0.950 . S
C1130 C1129 1.524 . S
C1130 C1131 1.415 . S
C1131 H1101 0.950 . S
C1131 C1126 1.363 . S
C1131 C1130 1.415 . S
H1132 C1129 0.999 . S
H1133 C1114 0.913 . S
H1134 C1152 0.951 . S
H1135 C1154 0.951 . S
H1136 C1156 0.950 . S
H1137 C1157 0.950 . S
H1138 C1159 0.950 . S
H1139 C1162 0.950 . S
H1140 C1163 0.950 1_554 S
H1141 C1165 0.950 . S
H1142 C1166 0.950 . S
H1143 C1167 0.951 . S
H1144 C1169 0.951 1_554 S
H1145 C1171 0.950 . S
H1146 C1172 0.950 . S
H1147 C1174 0.950 . S
H1148 C1177 0.950 1_556 S
H1149 C1178 0.950 . S
H1150 C1180 0.950 . S
H1151 C1181 0.950 . S
C1152 H1134 0.951 . S
C1152 C1153 1.366 . S
C1152 C1154 1.388 . S
C1153 C1152 1.366 . S
C1153 C1157 1.385 . S
C1154 H1135 0.951 . S
C1154 C1152 1.388 . S
C1154 C1155 1.366 . S
C1155 C1154 1.366 . S
C1155 C1156 1.414 . S
C1155 C1158 1.499 . S
C1156 H1136 0.950 . S
C1156 C1155 1.414 . S
C1156 C1157 1.374 . S
C1157 H1137 0.950 . S
C1157 C1153 1.385 . S
C1157 C1156 1.374 . S
C1158 C1155 1.499 . S
C1158 C1159 1.373 . S
C1158 C1160 1.389 . S
C1159 H1138 0.950 . S
C1159 C1158 1.373 . S
C1159 C1175 1.377 . S
C1160 C1158 1.389 . S
C1160 C1161 1.524 1_554 S
C1160 C1174 1.377 1_554 S
C1161 C1160 1.524 1_556 S
C1161 C1162 1.397 1_556 S
C1161 C1166 1.363 . S
C1162 H1139 0.950 . S
C1162 C1161 1.397 1_554 S
C1162 C1163 1.334 1_554 S
C1163 H1140 0.950 1_556 S
C1163 C1162 1.334 1_556 S
C1163 C1164 1.287 . S
C1164 C1163 1.287 . S
C1164 C1165 1.524 . S
C1164 H1183 0.913 . S
C1165 H1141 0.950 . S
C1165 C1164 1.524 . S
C1165 C1166 1.415 . S
C1166 H1142 0.950 . S
C1166 C1161 1.363 . S
C1166 C1165 1.415 . S
C1167 H1143 0.951 . S
C1167 C1168 1.366 . S
C1167 C1169 1.388 . S
C1168 C1167 1.366 . S
C1168 C1172 1.385 . S
C1169 H1144 0.951 1_556 S
C1169 C1167 1.388 . S
C1169 C1170 1.366 . S
C1170 C1169 1.366 . S
C1170 C1171 1.414 . S
C1170 C1173 1.499 . S
C1171 H1145 0.950 . S
C1171 C1170 1.414 . S
C1171 C1172 1.374 . S
C1172 H1146 0.950 . S
C1172 C1168 1.385 . S
C1172 C1171 1.374 . S
C1173 C1170 1.499 . S
C1173 C1174 1.373 . S
C1173 C1175 1.389 1_556 S
C1174 H1147 0.950 . S
C1174 C1160 1.377 1_556 S
C1174 C1173 1.373 . S
C1175 C1159 1.377 . S
C1175 C1173 1.389 1_554 S
C1175 C1176 1.524 . S
C1176 C1175 1.524 . S
C1176 C1177 1.397 . S
C1176 C1181 1.363 . S
C1177 H1148 0.950 1_554 S
C1177 C1176 1.397 . S
C1177 C1178 1.334 . S
C1178 H1149 0.950 . S
C1178 C1177 1.334 . S
C1178 C1179 1.287 . S
C1179 C1178 1.287 . S
C1179 C1180 1.524 . S
C1179 H1182 0.999 . S
C1180 H1150 0.950 . S
C1180 C1179 1.524 . S
C1180 C1181 1.415 . S
C1181 H1151 0.950 . S
C1181 C1176 1.363 . S
C1181 C1180 1.415 . S
H1182 C1179 0.999 . S
H1183 C1164 0.913 . S
H1184 C1202 0.951 . S
H1185 C1204 0.951 . S
H1186 C1206 0.950 . S
H1187 C1207 0.950 . S
H1188 C1209 0.950 . S
H1189 C1212 0.950 . S
H1190 C1213 0.950 . S
H1191 C1215 0.950 . S
H1192 C1216 0.950 . S
H1193 C1217 0.951 . S
H1194 C1219 0.951 . S
H1195 C1221 0.950 . S
H1196 C1222 0.950 . S
H1197 C1224 0.950 . S
H1198 C1227 0.950 . S
H1199 C1228 0.950 . S
H1200 C1230 0.950 . S
H1201 C1231 0.950 . S
C1202 H1184 0.951 . S
C1202 C1203 1.366 . S
C1202 C1204 1.388 . S
C1203 C1202 1.366 . S
C1203 C1207 1.385 . S
C1204 H1185 0.951 . S
C1204 C1202 1.388 . S
C1204 C1205 1.366 . S
C1205 C1204 1.366 . S
C1205 C1206 1.414 . S
C1205 C1208 1.499 . S
C1206 H1186 0.950 . S
C1206 C1205 1.414 . S
C1206 C1207 1.374 . S
C1207 H1187 0.950 . S
C1207 C1203 1.385 . S
C1207 C1206 1.374 . S
C1208 C1205 1.499 . S
C1208 C1209 1.373 . S
C1208 C1210 1.389 . S
C1209 H1188 0.950 . S
C1209 C1208 1.373 . S
C1209 C1225 1.377 . S
C1210 C1208 1.389 . S
C1210 C1211 1.524 . S
C1210 C1224 1.377 . S
C1211 C1210 1.524 . S
C1211 C1212 1.397 . S
C1211 C1216 1.363 . S
C1212 H1189 0.950 . S
C1212 C1211 1.397 . S
C1212 C1213 1.334 . S
C1213 H1190 0.950 . S
C1213 C1212 1.334 . S
C1213 C1214 1.287 . S
C1214 C1213 1.287 . S
C1214 C1215 1.524 . S
C1214 H1233 0.913 . S
C1215 H1191 0.950 . S
C1215 C1214 1.524 . S
C1215 C1216 1.415 . S
C1216 H1192 0.950 . S
C1216 C1211 1.363 . S
C1216 C1215 1.415 . S
C1217 H1193 0.951 . S
C1217 C1218 1.366 . S
C1217 C1219 1.388 . S
C1218 C1217 1.366 . S
C1218 C1222 1.385 . S
C1219 H1194 0.951 . S
C1219 C1217 1.388 . S
C1219 C1220 1.366 . S
C1220 C1219 1.366 . S
C1220 C1221 1.414 . S
C1220 C1223 1.499 . S
C1221 H1195 0.950 . S
C1221 C1220 1.414 . S
C1221 C1222 1.374 . S
C1222 H1196 0.950 . S
C1222 C1218 1.385 . S
C1222 C1221 1.374 . S
C1223 C1220 1.499 . S
C1223 C1224 1.373 . S
C1223 C1225 1.389 . S
C1224 H1197 0.950 . S
C1224 C1210 1.377 . S
C1224 C1223 1.373 . S
C1225 C1209 1.377 . S
C1225 C1223 1.389 . S
C1225 C1226 1.524 . S
C1226 C1225 1.524 . S
C1226 C1227 1.397 . S
C1226 C1231 1.363 . S
C1227 H1198 0.950 . S
C1227 C1226 1.397 . S
C1227 C1228 1.334 . S
C1228 H1199 0.950 . S
C1228 C1227 1.334 . S
C1228 C1229 1.287 . S
C1229 C1228 1.287 . S
C1229 C1230 1.524 . S
C1229 H1232 0.999 . S
C1230 H1200 0.950 . S
C1230 C1229 1.524 . S
C1230 C1231 1.415 . S
C1231 H1201 0.950 . S
C1231 C1226 1.363 . S
C1231 C1230 1.415 . S
H1232 C1229 0.999 . S
H1233 C1214 0.913 . S
H1234 C1252 0.951 1_655 S
H1235 C1254 0.951 . S
H1236 C1256 0.950 . S
H1237 C1257 0.950 . S
H1238 C1259 0.950 . S
H1239 C1262 0.950 . S
H1240 C1263 0.950 . S
H1241 C1265 0.950 . S
H1242 C1266 0.950 . S
H1243 C1267 0.951 . S
H1244 C1269 0.951 1_554 S
H1245 C1271 0.950 . S
H1246 C1272 0.950 . S
H1247 C1274 0.950 . S
H1248 C1277 0.950 1_556 S
H1249 C1278 0.950 . S
H1250 C1280 0.950 . S
H1251 C1281 0.950 . S
C1252 H1234 0.951 1_455 S
C1252 C1253 1.366 . S
C1252 C1254 1.388 . S
C1253 C1252 1.366 . S
C1253 C1257 1.398 . S
C1254 H1235 0.951 . S
C1254 C1252 1.388 . S
C1254 C1255 1.366 . S
C1255 C1254 1.366 . S
C1255 C1256 1.414 . S
C1255 C1258 1.499 . S
C1256 H1236 0.950 . S
C1256 C1255 1.414 . S
C1256 C1257 1.374 . S
C1257 H1237 0.950 . S
C1257 C1253 1.398 . S
C1257 C1256 1.374 . S
C1258 C1255 1.499 . S
C1258 C1259 1.373 . S
C1258 C1260 1.389 . S
C1259 H1238 0.950 . S
C1259 C1258 1.373 . S
C1259 C1275 1.377 . S
C1260 C1258 1.389 . S
C1260 C1261 1.524 1_554 S
C1260 C1274 1.377 1_554 S
C1261 C1260 1.524 1_556 S
C1261 C1262 1.397 1_556 S
C1261 C1266 1.363 . S
C1262 H1239 0.950 . S
C1262 C1261 1.397 1_554 S
C1262 C1263 1.334 . S
C1263 H1240 0.950 . S
C1263 C1262 1.334 . S
C1263 C1264 1.287 1_554 S
C1264 C1263 1.287 1_556 S
C1264 C1265 1.524 . S
C1264 H1283 0.913 1_455 S
C1265 H1241 0.950 . S
C1265 C1264 1.524 . S
C1265 C1266 1.415 . S
C1266 H1242 0.950 . S
C1266 C1261 1.363 . S
C1266 C1265 1.415 . S
C1267 H1243 0.951 . S
C1267 C1268 1.366 . S
C1267 C1269 1.388 . S
C1268 C1267 1.366 . S
C1268 C1272 1.385 . S
C1269 H1244 0.951 1_556 S
C1269 C1267 1.388 . S
C1269 C1270 1.366 . S
C1270 C1269 1.366 . S
C1270 C1271 1.414 . S
C1270 C1273 1.499 . S
C1271 H1245 0.950 . S
C1271 C1270 1.414 . S
C1271 C1272 1.374 . S
C1272 H1246 0.950 . S
C1272 C1268 1.385 . S
C1272 C1271 1.374 . S
C1273 C1270 1.499 . S
C1273 C1274 1.373 . S
C1273 C1275 1.389 1_556 S
C1274 H1247 0.950 . S
C1274 C1260 1.377 1_556 S
C1274 C1273 1.373 . S
C1275 C1259 1.377 . S
C1275 C1273 1.389 1_554 S
C1275 C1276 1.524 . S
C1276 C1275 1.524 . S
C1276 C1277 1.397 . S
C1276 C1281 1.363 . S
C1277 H1248 0.950 1_554 S
C1277 C1276 1.397 . S
C1277 C1278 1.334 . S
C1278 H1249 0.950 . S
C1278 C1277 1.334 . S
C1278 C1279 1.287 . S
C1279 C1278 1.287 . S
C1279 C1280 1.524 . S
C1279 H1282 0.999 . S
C1280 H1250 0.950 . S
C1280 C1279 1.524 . S
C1280 C1281 1.415 . S
C1281 H1251 0.950 . S
C1281 C1276 1.363 . S
C1281 C1280 1.415 . S
H1282 C1279 0.999 . S
H1283 C1264 0.913 1_655 S
H1284 C1302 0.951 . S
H1285 C1304 0.951 . S
H1286 C1306 0.950 . S
H1287 C1307 0.950 1_455 S
H1288 C1309 0.950 . S
H1289 C1312 0.950 . S
H1290 C1313 0.950 . S
H1291 C1315 0.950 . S
H1292 C1316 0.950 . S
H1293 C1317 0.951 . S
H1294 C1319 0.951 . S
H1295 C1321 0.950 . S
H1296 C1322 0.950 . S
H1297 C1324 0.950 . S
H1298 C1327 0.950 . S
H1299 C1328 0.950 . S
H1300 C1330 0.950 . S
H1301 C1331 0.950 . S
C1302 H1284 0.951 . S
C1302 C1303 1.376 . S
C1302 C1304 1.388 . S
C1303 C1302 1.376 . S
C1303 C1307 1.387 . S
C1304 H1285 0.951 . S
C1304 C1302 1.388 . S
C1304 C1305 1.366 . S
C1305 C1304 1.366 . S
C1305 C1306 1.414 . S
C1305 C1308 1.499 . S
C1306 H1286 0.950 . S
C1306 C1305 1.414 . S
C1306 C1307 1.374 . S
C1307 H1287 0.950 1_655 S
C1307 C1303 1.387 . S
C1307 C1306 1.374 . S
C1308 C1305 1.499 . S
C1308 C1309 1.373 . S
C1308 C1310 1.389 . S
C1309 H1288 0.950 . S
C1309 C1308 1.373 . S
C1309 C1325 1.377 . S
C1310 C1308 1.389 . S
C1310 C1311 1.524 . S
C1310 C1324 1.377 . S
C1311 C1310 1.524 . S
C1311 C1312 1.397 . S
C1311 C1316 1.363 . S
C1312 H1289 0.950 . S
C1312 C1311 1.397 . S
C1312 C1313 1.334 . S
C1313 H1290 0.950 . S
C1313 C1312 1.334 . S
C1313 C1314 1.287 . S
C1314 C1313 1.287 . S
C1314 C1315 1.524 . S
C1314 H1333 0.913 . S
C1315 H1291 0.950 . S
C1315 C1314 1.524 . S
C1315 C1316 1.415 . S
C1316 H1292 0.950 . S
C1316 C1311 1.363 . S
C1316 C1315 1.415 . S
C1317 H1293 0.951 . S
C1317 C1318 1.366 . S
C1317 C1319 1.388 . S
C1318 C1317 1.366 . S
C1318 C1322 1.385 . S
C1319 H1294 0.951 . S
C1319 C1317 1.388 . S
C1319 C1320 1.366 . S
C1320 C1319 1.366 . S
C1320 C1321 1.414 . S
C1320 C1323 1.499 . S
C1321 H1295 0.950 . S
C1321 C1320 1.414 . S
C1321 C1322 1.374 . S
C1322 H1296 0.950 . S
C1322 C1318 1.385 . S
C1322 C1321 1.374 . S
C1323 C1320 1.499 . S
C1323 C1324 1.373 . S
C1323 C1325 1.389 . S
C1324 H1297 0.950 . S
C1324 C1310 1.377 . S
C1324 C1323 1.373 . S
C1325 C1309 1.377 . S
C1325 C1323 1.389 . S
C1325 C1326 1.524 . S
C1326 C1325 1.524 . S
C1326 C1327 1.397 . S
C1326 C1331 1.363 . S
C1327 H1298 0.950 . S
C1327 C1326 1.397 . S
C1327 C1328 1.334 . S
C1328 H1299 0.950 . S
C1328 C1327 1.334 . S
C1328 C1329 1.287 . S
C1329 C1328 1.287 . S
C1329 C1330 1.524 . S
C1329 H1332 0.999 . S
C1330 H1300 0.950 . S
C1330 C1329 1.524 . S
C1330 C1331 1.415 . S
C1331 H1301 0.950 . S
C1331 C1326 1.363 . S
C1331 C1330 1.415 . S
H1332 C1329 0.999 . S
H1333 C1314 0.913 . S
H1334 C1352 0.951 . S
H1335 C1354 0.951 1_556 S
H1336 C1356 0.950 . S
H1337 C1357 0.950 . S
H1338 C1359 0.950 . S
H1339 C1362 0.950 . S
H1340 C1363 0.950 . S
H1341 C1365 0.950 . S
H1342 C1366 0.950 . S
H1343 C1367 0.951 . S
H1344 C1369 0.951 . S
H1345 C1371 0.950 . S
H1346 C1372 0.950 . S
H1347 C1374 0.950 . S
H1348 C1377 0.949 1_556 S
H1349 C1378 0.969 . S
H1350 C1380 0.950 . S
H1351 C1381 0.950 . S
C1352 H1334 0.951 . S
C1352 C1353 1.366 . S
C1352 C1354 1.388 . S
C1353 C1352 1.366 . S
C1353 C1357 1.385 . S
C1354 H1335 0.951 1_554 S
C1354 C1352 1.388 . S
C1354 C1355 1.366 . S
C1355 C1354 1.366 . S
C1355 C1356 1.414 . S
C1355 C1358 1.499 . S
C1356 H1336 0.950 . S
C1356 C1355 1.414 . S
C1356 C1357 1.374 . S
C1357 H1337 0.950 . S
C1357 C1353 1.385 . S
C1357 C1356 1.374 . S
C1358 C1355 1.499 . S
C1358 C1359 1.373 . S
C1358 C1360 1.389 1_554 S
C1359 H1338 0.950 . S
C1359 C1358 1.373 . S
C1359 C1375 1.384 . S
C1360 C1358 1.389 1_556 S
C1360 C1361 1.524 . S
C1360 C1374 1.377 . S
C1361 C1360 1.524 . S
C1361 C1362 1.397 . S
C1361 C1366 1.363 . S
C1362 H1339 0.950 . S
C1362 C1361 1.397 . S
C1362 C1363 1.334 . S
C1363 H1340 0.950 . S
C1363 C1362 1.334 . S
C1363 C1364 1.287 . S
C1364 C1363 1.287 . S
C1364 C1365 1.524 . S
C1364 H1383 0.913 . S
C1365 H1341 0.950 . S
C1365 C1364 1.524 . S
C1365 C1366 1.415 . S
C1366 H1342 0.950 . S
C1366 C1361 1.363 . S
C1366 C1365 1.415 . S
C1367 H1343 0.951 . S
C1367 C1368 1.366 . S
C1367 C1369 1.388 . S
C1368 C1367 1.366 . S
C1368 C1372 1.385 . S
C1369 H1344 0.951 . S
C1369 C1367 1.388 . S
C1369 C1370 1.366 . S
C1370 C1369 1.366 . S
C1370 C1371 1.414 . S
C1370 C1373 1.499 . S
C1371 H1345 0.950 . S
C1371 C1370 1.414 . S
C1371 C1372 1.374 . S
C1372 H1346 0.950 . S
C1372 C1368 1.385 . S
C1372 C1371 1.374 . S
C1373 C1370 1.499 . S
C1373 C1374 1.373 . S
C1373 C1375 1.377 1_556 S
C1374 H1347 0.950 . S
C1374 C1360 1.377 . S
C1374 C1373 1.373 . S
C1375 C1359 1.384 . S
C1375 C1373 1.377 1_554 S
C1375 C1376 1.531 . S
C1376 C1375 1.531 . S
C1376 C1377 1.397 . S
C1376 C1381 1.363 . S
C1377 H1348 0.949 1_554 S
C1377 C1376 1.397 . S
C1377 C1378 1.334 . S
C1378 H1349 0.969 . S
C1378 C1377 1.334 . S
C1378 C1379 1.287 . S
C1379 C1378 1.287 . S
C1379 C1380 1.524 . S
C1379 H1382 0.999 . S
C1380 H1350 0.950 . S
C1380 C1379 1.524 . S
C1380 C1381 1.415 . S
C1381 H1351 0.950 . S
C1381 C1376 1.363 . S
C1381 C1380 1.415 . S
H1382 C1379 0.999 . S
H1383 C1364 0.913 . S
C203 C156 1.525 . S
C218 C17 1.509 . S
C253 C40 1.509 . S
C268 C179 1.525 . S
C303 C110 1.525 . S
C318 C63 1.509 . S
C353 C86 1.509 . S
C368 C133 1.525 . S
C403 C64 1.525 . S
C418 C109 1.508 . S
C453 C132 1.509 . S
C468 C87 1.525 . S
C503 C18 1.525 . S
C518 C155 1.509 . S
C553 C41 1.524 . S
C568 C178 1.509 . S
C603 C16 0.636 . S
C618 C108 0.636 . S
C653 C131 0.636 . S
C668 C39 0.636 . S
C703 C62 0.638 . S
C718 C154 0.638 . S
C753 C177 0.636 . S
C768 C85 0.636 . S
C803 C89 1.256 . S
C818 C20 1.256 . S
C853 C43 1.257 . S
C868 C66 1.256 . S
C903 C181 1.256 . S
C918 C112 1.256 . S
C953 C135 1.256 . S
C968 C158 1.257 . S
C1003 C21 1.642 . S
C1018 C65 1.603 . S
C1053 C44 1.628 1_655 S
C1068 C88 1.603 . S
C1103 C67 1.629 1_455 S
C1118 C19 1.604 . S
C1153 C90 1.642 . S
C1168 C42 1.604 . S
C1203 C113 1.642 . S
C1218 C157 1.603 . S
C1253 C136 1.628 1_455 S
C1268 C180 1.603 . S
C1303 C159 1.629 1_655 S
C1318 C111 1.604 . S
C1353 C134 1.604 . S
C1368 C182 1.642 . S
