# Generated by pormake.
# Topology ecv, (8)-cn, num edge types: 1
# Building blocks:
#     Node 0, Type 0, BuildingBlock: EBIMEJ_clean_sbu_0, # of connection points: 8
#     Node 1, Type 0, BuildingBlock: EBIMEJ_clean_sbu_0, # of connection points: 8
#     Node 2, Type 0, BuildingBlock: EBIMEJ_clean_sbu_0, # of connection points: 8
#     Node 3, Type 0, BuildingBlock: EBIMEJ_clean_sbu_0, # of connection points: 8
#     Node 4, Type 0, BuildingBlock: EBIMEJ_clean_sbu_0, # of connection points: 8
#     Node 5, Type 0, BuildingBlock: EBIMEJ_clean_sbu_0, # of connection points: 8
#     Node 6, Type 0, BuildingBlock: EBIMEJ_clean_sbu_0, # of connection points: 8
#     Node 7, Type 0, BuildingBlock: EBIMEJ_clean_sbu_0, # of connection points: 8
#     Node 8, Type 0, BuildingBlock: EBIMEJ_clean_sbu_0, # of connection points: 8
#     Node 9, Type 0, BuildingBlock: EBIMEJ_clean_sbu_0, # of connection points: 8
#     Node 10, Type 0, BuildingBlock: EBIMEJ_clean_sbu_0, # of connection points: 8
#     Node 11, Type 0, BuildingBlock: EBIMEJ_clean_sbu_0, # of connection points: 8
#     Node 12, Type 0, BuildingBlock: EBIMEJ_clean_sbu_0, # of connection points: 8
#     Node 13, Type 0, BuildingBlock: EBIMEJ_clean_sbu_0, # of connection points: 8
#     Node 14, Type 0, BuildingBlock: EBIMEJ_clean_sbu_0, # of connection points: 8
#     Node 15, Type 0, BuildingBlock: EBIMEJ_clean_sbu_0, # of connection points: 8
#     Edge 16, Type (0, 0), BuildingBlock: KIFKEQ_clean_linker_1, # of connection points: 2
#     Edge 17, Type (0, 0), BuildingBlock: KIFKEQ_clean_linker_1, # of connection points: 2
#     Edge 18, Type (0, 0), BuildingBlock: KIFKEQ_clean_linker_1, # of connection points: 2
#     Edge 19, Type (0, 0), BuildingBlock: KIFKEQ_clean_linker_1, # of connection points: 2
#     Edge 20, Type (0, 0), BuildingBlock: KIFKEQ_clean_linker_1, # of connection points: 2
#     Edge 21, Type (0, 0), BuildingBlock: KIFKEQ_clean_linker_1, # of connection points: 2
#     Edge 22, Type (0, 0), BuildingBlock: KIFKEQ_clean_linker_1, # of connection points: 2
#     Edge 23, Type (0, 0), BuildingBlock: KIFKEQ_clean_linker_1, # of connection points: 2
#     Edge 24, Type (0, 0), BuildingBlock: KIFKEQ_clean_linker_1, # of connection points: 2
#     Edge 25, Type (0, 0), BuildingBlock: KIFKEQ_clean_linker_1, # of connection points: 2
#     Edge 26, Type (0, 0), BuildingBlock: KIFKEQ_clean_linker_1, # of connection points: 2
#     Edge 27, Type (0, 0), BuildingBlock: KIFKEQ_clean_linker_1, # of connection points: 2
#     Edge 28, Type (0, 0), BuildingBlock: KIFKEQ_clean_linker_1, # of connection points: 2
#     Edge 29, Type (0, 0), BuildingBlock: KIFKEQ_clean_linker_1, # of connection points: 2
#     Edge 30, Type (0, 0), BuildingBlock: KIFKEQ_clean_linker_1, # of connection points: 2
#     Edge 31, Type (0, 0), BuildingBlock: KIFKEQ_clean_linker_1, # of connection points: 2
#     Edge 32, Type (0, 0), BuildingBlock: KIFKEQ_clean_linker_1, # of connection points: 2
#     Edge 33, Type (0, 0), BuildingBlock: KIFKEQ_clean_linker_1, # of connection points: 2
#     Edge 34, Type (0, 0), BuildingBlock: KIFKEQ_clean_linker_1, # of connection points: 2
#     Edge 35, Type (0, 0), BuildingBlock: KIFKEQ_clean_linker_1, # of connection points: 2
#     Edge 36, Type (0, 0), BuildingBlock: KIFKEQ_clean_linker_1, # of connection points: 2
#     Edge 37, Type (0, 0), BuildingBlock: KIFKEQ_clean_linker_1, # of connection points: 2
#     Edge 38, Type (0, 0), BuildingBlock: KIFKEQ_clean_linker_1, # of connection points: 2
#     Edge 39, Type (0, 0), BuildingBlock: KIFKEQ_clean_linker_1, # of connection points: 2
#     Edge 40, Type (0, 0), BuildingBlock: KIFKEQ_clean_linker_1, # of connection points: 2
#     Edge 41, Type (0, 0), BuildingBlock: KIFKEQ_clean_linker_1, # of connection points: 2
#     Edge 42, Type (0, 0), BuildingBlock: KIFKEQ_clean_linker_1, # of connection points: 2
#     Edge 43, Type (0, 0), BuildingBlock: KIFKEQ_clean_linker_1, # of connection points: 2
#     Edge 44, Type (0, 0), BuildingBlock: KIFKEQ_clean_linker_1, # of connection points: 2
#     Edge 45, Type (0, 0), BuildingBlock: KIFKEQ_clean_linker_1, # of connection points: 2
#     Edge 46, Type (0, 0), BuildingBlock: KIFKEQ_clean_linker_1, # of connection points: 2
#     Edge 47, Type (0, 0), BuildingBlock: KIFKEQ_clean_linker_1, # of connection points: 2
#     Edge 48, Type (0, 0), BuildingBlock: KIFKEQ_clean_linker_1, # of connection points: 2
#     Edge 49, Type (0, 0), BuildingBlock: KIFKEQ_clean_linker_1, # of connection points: 2
#     Edge 50, Type (0, 0), BuildingBlock: KIFKEQ_clean_linker_1, # of connection points: 2
#     Edge 51, Type (0, 0), BuildingBlock: KIFKEQ_clean_linker_1, # of connection points: 2
#     Edge 52, Type (0, 0), BuildingBlock: KIFKEQ_clean_linker_1, # of connection points: 2
#     Edge 53, Type (0, 0), BuildingBlock: KIFKEQ_clean_linker_1, # of connection points: 2
#     Edge 54, Type (0, 0), BuildingBlock: KIFKEQ_clean_linker_1, # of connection points: 2
#     Edge 55, Type (0, 0), BuildingBlock: KIFKEQ_clean_linker_1, # of connection points: 2
#     Edge 56, Type (0, 0), BuildingBlock: KIFKEQ_clean_linker_1, # of connection points: 2
#     Edge 57, Type (0, 0), BuildingBlock: KIFKEQ_clean_linker_1, # of connection points: 2
#     Edge 58, Type (0, 0), BuildingBlock: KIFKEQ_clean_linker_1, # of connection points: 2
#     Edge 59, Type (0, 0), BuildingBlock: KIFKEQ_clean_linker_1, # of connection points: 2
#     Edge 60, Type (0, 0), BuildingBlock: KIFKEQ_clean_linker_1, # of connection points: 2
#     Edge 61, Type (0, 0), BuildingBlock: KIFKEQ_clean_linker_1, # of connection points: 2
#     Edge 62, Type (0, 0), BuildingBlock: KIFKEQ_clean_linker_1, # of connection points: 2
#     Edge 63, Type (0, 0), BuildingBlock: KIFKEQ_clean_linker_1, # of connection points: 2
#     Edge 64, Type (0, 0), BuildingBlock: KIFKEQ_clean_linker_1, # of connection points: 2
#     Edge 65, Type (0, 0), BuildingBlock: KIFKEQ_clean_linker_1, # of connection points: 2
#     Edge 66, Type (0, 0), BuildingBlock: KIFKEQ_clean_linker_1, # of connection points: 2
#     Edge 67, Type (0, 0), BuildingBlock: KIFKEQ_clean_linker_1, # of connection points: 2
#     Edge 68, Type (0, 0), BuildingBlock: KIFKEQ_clean_linker_1, # of connection points: 2
#     Edge 69, Type (0, 0), BuildingBlock: KIFKEQ_clean_linker_1, # of connection points: 2
#     Edge 70, Type (0, 0), BuildingBlock: KIFKEQ_clean_linker_1, # of connection points: 2
#     Edge 71, Type (0, 0), BuildingBlock: KIFKEQ_clean_linker_1, # of connection points: 2
#     Edge 72, Type (0, 0), BuildingBlock: KIFKEQ_clean_linker_1, # of connection points: 2
#     Edge 73, Type (0, 0), BuildingBlock: KIFKEQ_clean_linker_1, # of connection points: 2
#     Edge 74, Type (0, 0), BuildingBlock: KIFKEQ_clean_linker_1, # of connection points: 2
#     Edge 75, Type (0, 0), BuildingBlock: KIFKEQ_clean_linker_1, # of connection points: 2
#     Edge 76, Type (0, 0), BuildingBlock: KIFKEQ_clean_linker_1, # of connection points: 2
#     Edge 77, Type (0, 0), BuildingBlock: KIFKEQ_clean_linker_1, # of connection points: 2
#     Edge 78, Type (0, 0), BuildingBlock: KIFKEQ_clean_linker_1, # of connection points: 2
#     Edge 79, Type (0, 0), BuildingBlock: KIFKEQ_clean_linker_1, # of connection points: 2
# Relax obj value: 0.075
# Max RMSD: 0.179
# Mean RMSD: 0.179
data_MOF--net-ecv--node1-EBIMEJ_clean_sbu_0--edge1-KIFKEQ_clean_linker_1
_symmetry_space_group_name_H-M    P1
_symmetry_Int_Tables_number       1
_symmetry_cell_setting            triclinic
loop_
_symmetry_equiv_pos_as_xyz
'x, y, z'
_cell_length_a     16.231812
_cell_length_b     29.513382
_cell_length_c     138.56623
_cell_angle_alpha  101.14736
_cell_angle_beta   89.999227
_cell_angle_gamma 90.006701
loop_
_atom_site_label
_atom_site_type_symbol
_atom_site_fract_x
_atom_site_fract_y
_atom_site_fract_z
_atom_type_partial_charge
Co0 Co 0.18912 0.18733 0.43802 0.0
Co1 Co 0.09236 0.11161 0.44853 0.0
Co2 Co 0.18258 0.18966 0.46132 0.0
H3 H 0.18526 0.17575 0.44961 0.0
O4 O 0.19386 0.14656 0.44776 0.0
H5 H 0.09691 0.12241 0.46029 0.0
O6 O 0.08604 0.15125 0.46241 0.0
Co7 Co 0.10298 0.10824 0.47158 0.0
O8 O 0.98955 0.08627 0.46669 0.0
O9 O 0.9911 0.07699 0.45022 0.0
O10 O 0.17527 0.15184 0.48113 0.0
O11 O 0.1778 0.21862 0.4757 0.0
O12 O 0.23968 0.2257 0.42838 0.0
O13 O 0.23461 0.15446 0.42452 0.0
O14 O 0.18659 0.06072 0.46614 0.0
O15 O 0.16407 0.05552 0.45004 0.0
C16 C 0.32263 0.229 0.45201 0.0
C17 C 0.06643 0.11824 0.42843 0.0
C18 C 0.0695 0.07966 0.48706 0.0
C19 C 0.08294 0.25647 0.45075 0.0
C20 C 0.95698 0.07199 0.45826 0.0
C21 C 0.18622 0.19549 0.4826 0.0
C22 C 0.25603 0.19105 0.42185 0.0
C23 C 0.19818 0.04087 0.45727 0.0
O24 O 0.3012 0.20796 0.44347 0.0
O25 O 0.27981 0.22795 0.45969 0.0
O26 O 0.08608 0.08909 0.43384 0.0
O27 O 0.08552 0.16086 0.43089 0.0
O28 O 0.1344 0.07003 0.48214 0.0
O29 O 0.02411 0.10586 0.48324 0.0
O30 O 0.10905 0.23906 0.44219 0.0
O31 O 0.10511 0.2405 0.45839 0.0
Co32 Co 0.18461 0.09556 0.84803 0.0
Co33 Co 0.09924 0.17892 0.83848 0.0
Co34 Co 0.17598 0.09812 0.82488 0.0
H35 H 0.18187 0.10982 0.83664 0.0
O36 O 0.19499 0.13837 0.83868 0.0
H37 H 0.10183 0.17022 0.82668 0.0
O38 O 0.08623 0.14229 0.82437 0.0
Co39 Co 0.11109 0.18653 0.81557 0.0
O40 O 0.02692 0.23262 0.82233 0.0
O41 O 0.00464 0.21923 0.83755 0.0
O42 O 0.15805 0.13689 0.80471 0.0
O43 O 0.16624 0.071 0.81049 0.0
O44 O 0.22036 0.06392 0.85946 0.0
O45 O 0.26097 0.13002 0.8591 0.0
O46 O 0.21065 0.22258 0.82115 0.0
O47 O 0.17766 0.23239 0.83707 0.0
C48 C 0.2812 0.03139 0.83249 0.0
C49 C 0.08376 0.17394 0.8593 0.0
C50 C 0.07559 0.21469 0.80003 0.0
C51 C 0.07302 0.03077 0.83487 0.0
C52 C 0.98916 0.24042 0.83057 0.0
C53 C 0.16898 0.09332 0.80342 0.0
C54 C 0.26308 0.09729 0.86372 0.0
C55 C 0.22025 0.24336 0.83 0.0
O56 O 0.25137 0.04197 0.84111 0.0
O57 O 0.26551 0.05349 0.82566 0.0
O58 O 0.09804 0.20083 0.85321 0.0
O59 O 0.1002 0.13091 0.85729 0.0
O60 O 0.12789 0.23316 0.80626 0.0
O61 O 0.04385 0.17998 0.8026 0.0
O62 O 0.10615 0.04304 0.84329 0.0
O63 O 0.09038 0.05058 0.82761 0.0
Co64 Co 0.897 0.93197 0.565 0.0
Co65 Co 0.82378 0.84858 0.57507 0.0
Co66 Co 0.91065 0.92804 0.58801 0.0
H67 H 0.90557 0.91743 0.57626 0.0
O68 O 0.91793 0.88886 0.57409 0.0
H69 H 0.82014 0.86221 0.58683 0.0
O70 O 0.81041 0.89129 0.58875 0.0
Co71 Co 0.81764 0.84975 0.59839 0.0
O72 O 0.75106 0.79541 0.59169 0.0
O73 O 0.73005 0.80752 0.57639 0.0
O74 O 0.90042 0.88549 0.6078 0.0
O75 O 0.91587 0.95268 0.60267 0.0
O76 O 0.85766 0.95516 0.55252 0.0
O77 O 0.98199 0.95363 0.55569 0.0
O78 O 0.90427 0.80133 0.59414 0.0
O79 O 0.90491 0.79901 0.57791 0.0
C80 C 0.0423 0.97078 0.57836 0.0
C81 C 0.82793 0.8411 0.55344 0.0
C82 C 0.73803 0.85097 0.61399 0.0
C83 C 0.79397 0.99346 0.57926 0.0
C84 C 0.71754 0.78515 0.58325 0.0
C85 C 0.92403 0.92745 0.60921 0.0
C86 C 0.92917 0.9633 0.54979 0.0
C87 C 0.93005 0.78399 0.58554 0.0
O88 O 0.00745 0.95844 0.57 0.0
O89 O 0.01098 0.96344 0.58636 0.0
O90 O 0.8295 0.81955 0.56066 0.0
O91 O 0.84171 0.88434 0.55451 0.0
O92 O 0.77809 0.81701 0.6095 0.0
O93 O 0.7429 0.88447 0.60961 0.0
O94 O 0.80034 0.97057 0.57054 0.0
O95 O 0.83776 0.98338 0.58632 0.0
Co96 Co 0.89958 0.853 0.22108 0.0
Co97 Co 0.82222 0.93904 0.2118 0.0
Co98 Co 0.90466 0.86085 0.1981 0.0
H99 H 0.90381 0.86929 0.20992 0.0
O100 O 0.91661 0.89773 0.21223 0.0
H101 H 0.81388 0.92625 0.20011 0.0
O102 O 0.80402 0.89726 0.19822 0.0
Co103 Co 0.80252 0.9388 0.18863 0.0
O104 O 0.69224 0.94799 0.19558 0.0
O105 O 0.72855 0.98055 0.21074 0.0
O106 O 0.89929 0.91271 0.18022 0.0
O107 O 0.90615 0.84102 0.18327 0.0
O108 O 0.88122 0.8077 0.2306 0.0
O109 O 0.96609 0.86063 0.23411 0.0
O110 O 0.88071 0.99199 0.19267 0.0
O111 O 0.90181 0.98791 0.20846 0.0
C112 C 0.02632 0.80466 0.2059 0.0
C113 C 0.82937 0.9442 0.23303 0.0
C114 C 0.73097 0.94264 0.17276 0.0
C115 C 0.80101 0.78798 0.20652 0.0
C116 C 0.68006 0.97764 0.20342 0.0
C117 C 0.91861 0.87022 0.17761 0.0
C118 C 0.9337 0.82631 0.23678 0.0
C119 C 0.91583 1.00641 0.20091 0.0
O120 O 0.99128 0.81221 0.21431 0.0
O121 O 0.00405 0.82363 0.1988 0.0
O122 O 0.83329 0.96738 0.2261 0.0
O123 O 0.84226 0.9007 0.23152 0.0
O124 O 0.78869 0.96899 0.17635 0.0
O125 O 0.71416 0.91437 0.17818 0.0
O126 O 0.81659 0.80536 0.21544 0.0
O127 O 0.83147 0.80487 0.19937 0.0
Co128 Co 0.18699 0.69232 0.93868 0.0
Co129 Co 0.09942 0.6095 0.948 0.0
Co130 Co 0.17347 0.6907 0.96184 0.0
H131 H 0.18217 0.67869 0.95012 0.0
O132 O 0.19555 0.65019 0.94812 0.0
H133 H 0.10082 0.61782 0.95981 0.0
O134 O 0.08449 0.64567 0.96212 0.0
Co135 Co 0.10887 0.60143 0.97092 0.0
O136 O 0.02943 0.55355 0.96378 0.0
O137 O 0.00551 0.5682 0.9487 0.0
O138 O 0.15697 0.65116 0.98172 0.0
O139 O 0.16035 0.71785 0.97623 0.0
O140 O 0.2126 0.72041 0.92644 0.0
O141 O 0.26975 0.6598 0.92808 0.0
O142 O 0.20747 0.5647 0.96533 0.0
O143 O 0.17856 0.55614 0.94931 0.0
C144 C 0.28356 0.75616 0.95431 0.0
C145 C 0.07306 0.62031 0.92817 0.0
C146 C 0.07069 0.57339 0.98639 0.0
C147 C 0.06955 0.75571 0.95122 0.0
C148 C 0.99211 0.54569 0.95551 0.0
C149 C 0.16535 0.69501 0.98321 0.0
C150 C 0.26251 0.68949 0.92273 0.0
C151 C 0.21922 0.5446 0.95647 0.0
O152 O 0.25865 0.74401 0.94548 0.0
O153 O 0.26235 0.73599 0.96127 0.0
O154 O 0.09719 0.5902 0.93315 0.0
O155 O 0.08852 0.66305 0.93112 0.0
O156 O 0.1412 0.58702 0.98451 0.0
O157 O 0.02152 0.57609 0.97952 0.0
O158 O 0.10264 0.74181 0.94285 0.0
O159 O 0.08833 0.73786 0.95874 0.0
Co160 Co 0.18721 0.60241 0.34869 0.0
Co161 Co 0.09346 0.67697 0.33783 0.0
Co162 Co 0.18679 0.59915 0.32526 0.0
H163 H 0.18698 0.61335 0.33702 0.0
O164 O 0.19523 0.6426 0.33886 0.0
H165 H 0.09952 0.66569 0.32611 0.0
O166 O 0.08938 0.63676 0.32397 0.0
Co167 Co 0.10776 0.68008 0.31487 0.0
O168 O 0.99469 0.70338 0.31951 0.0
O169 O 0.9917 0.71072 0.33593 0.0
O170 O 0.1713 0.63435 0.30478 0.0
O171 O 0.18494 0.5695 0.31086 0.0
O172 O 0.20102 0.57576 0.36141 0.0
O173 O 0.27676 0.62872 0.35892 0.0
O174 O 0.20301 0.71975 0.32044 0.0
O175 O 0.16436 0.73316 0.33618 0.0
C176 C 0.32034 0.55519 0.33485 0.0
C177 C 0.06771 0.67326 0.35828 0.0
C178 C 0.07261 0.71087 0.29968 0.0
C179 C 0.08291 0.53312 0.33572 0.0
C180 C 0.95969 0.71644 0.32783 0.0
C181 C 0.18732 0.59129 0.30367 0.0
C182 C 0.25977 0.60197 0.36468 0.0
C183 C 0.20846 0.74312 0.32913 0.0
O184 O 0.29148 0.57026 0.34341 0.0
O185 O 0.28563 0.56225 0.32701 0.0
O186 O 0.08593 0.70095 0.35248 0.0
O187 O 0.08674 0.63058 0.35622 0.0
O188 O 0.10231 0.73477 0.3074 0.0
O189 O 0.063 0.66972 0.30062 0.0
O190 O 0.10375 0.5525 0.34438 0.0
O191 O 0.11041 0.54729 0.32808 0.0
Co192 Co 0.88905 0.43286 0.06507 0.0
Co193 Co 0.8227 0.34875 0.07524 0.0
Co194 Co 0.90585 0.42947 0.08807 0.0
H195 H 0.89997 0.41881 0.07633 0.0
O196 O 0.91412 0.39051 0.07418 0.0
H197 H 0.81971 0.36214 0.08701 0.0
O198 O 0.80806 0.391 0.08894 0.0
Co199 Co 0.82064 0.34975 0.09857 0.0
O200 O 0.75435 0.29486 0.09199 0.0
O201 O 0.73189 0.30587 0.07662 0.0
O202 O 0.91336 0.38359 0.10683 0.0
O203 O 0.91162 0.45336 0.10271 0.0
O204 O 0.85251 0.46258 0.05331 0.0
O205 O 0.97402 0.44344 0.05454 0.0
O206 O 0.90974 0.30305 0.09423 0.0
O207 O 0.90624 0.30032 0.07797 0.0
C208 C 0.03501 0.47272 0.07818 0.0
C209 C 0.81388 0.34442 0.05408 0.0
C210 C 0.74249 0.35128 0.1143 0.0
C211 C 0.78686 0.49447 0.07946 0.0
C212 C 0.72095 0.2837 0.08354 0.0
C213 C 0.93138 0.42648 0.10861 0.0
C214 C 0.92309 0.4611 0.04953 0.0
C215 C 0.93406 0.28592 0.08556 0.0
O216 O 1.00053 0.45888 0.06984 0.0
O217 O 0.00382 0.46639 0.08628 0.0
O218 O 0.8292 0.32106 0.0608 0.0
O219 O 0.81568 0.3885 0.05585 0.0
O220 O 0.81888 0.35656 0.11373 0.0
O221 O 0.70977 0.3459 0.10594 0.0
O222 O 0.79413 0.47255 0.07067 0.0
O223 O 0.83004 0.48379 0.08651 0.0
Co224 Co 0.90147 0.35621 0.72123 0.0
Co225 Co 0.82213 0.44079 0.7113 0.0
Co226 Co 0.91074 0.36264 0.69825 0.0
H227 H 0.90703 0.37217 0.71005 0.0
O228 O 0.91801 0.40093 0.7123 0.0
H229 H 0.81908 0.42729 0.6996 0.0
O230 O 0.8098 0.39823 0.6977 0.0
Co231 Co 0.81608 0.43927 0.68805 0.0
O232 O 0.70872 0.46695 0.69348 0.0
O233 O 0.72559 0.48007 0.70982 0.0
O234 O 0.92155 0.41462 0.68133 0.0
O235 O 0.91704 0.34185 0.68347 0.0
O236 O 0.91072 0.30212 0.72886 0.0
O237 O 0.94688 0.36783 0.73551 0.0
O238 O 0.90065 0.48883 0.6921 0.0
O239 O 0.9007 0.4913 0.70834 0.0
C240 C 0.0267 0.30495 0.7064 0.0
C241 C 0.83805 0.45053 0.73293 0.0
C242 C 0.74502 0.43991 0.67198 0.0
C243 C 0.79544 0.29628 0.70679 0.0
C244 C 0.68581 0.4851 0.70215 0.0
C245 C 0.93953 0.37214 0.67845 0.0
C246 C 0.93976 0.32663 0.73653 0.0
C247 C 0.92558 0.50646 0.7007 0.0
O248 O 0.98761 0.31131 0.71454 0.0
O249 O 0.01029 0.32632 0.69948 0.0
O250 O 0.82749 0.4704 0.72557 0.0
O251 O 0.86098 0.40847 0.73204 0.0
O252 O 0.79143 0.47144 0.67631 0.0
O253 O 0.73915 0.40797 0.67677 0.0
O254 O 0.80401 0.31838 0.71557 0.0
O255 O 0.83765 0.30689 0.69965 0.0
Co256 Co 0.69647 0.18813 0.93851 0.0
Co257 Co 0.59297 0.11342 0.94867 0.0
Co258 Co 0.68447 0.19016 0.96172 0.0
H259 H 0.68877 0.17623 0.95005 0.0
O260 O 0.69622 0.14698 0.94815 0.0
H261 H 0.59912 0.12259 0.96039 0.0
O262 O 0.58827 0.15125 0.96274 0.0
Co263 Co 0.60879 0.1069 0.97149 0.0
O264 O 0.50042 0.07834 0.96624 0.0
O265 O 0.48991 0.08009 0.95015 0.0
O266 O 0.66665 0.15382 0.98192 0.0
O267 O 0.67892 0.21946 0.97609 0.0
O268 O 0.71823 0.22097 0.92678 0.0
O269 O 0.77641 0.15921 0.92742 0.0
O270 O 0.70529 0.06964 0.96546 0.0
O271 O 0.66149 0.05565 0.94992 0.0
C272 C 0.82697 0.22605 0.95257 0.0
C273 C 0.56742 0.12403 0.92873 0.0
C274 C 0.57453 0.07589 0.98664 0.0
C275 C 0.58782 0.25735 0.95098 0.0
C276 C 0.46215 0.06935 0.95803 0.0
C277 C 0.68048 0.19717 0.9832 0.0
C278 C 0.7677 0.19073 0.92258 0.0
C279 C 0.70795 0.04582 0.9568 0.0
O280 O 0.81026 0.19877 0.94451 0.0
O281 O 0.78034 0.22929 0.96008 0.0
O282 O 0.58511 0.09333 0.93387 0.0
O283 O 0.59077 0.16586 0.93144 0.0
O284 O 0.64657 0.08192 0.9838 0.0
O285 O 0.52232 0.08746 0.98089 0.0
O286 O 0.61818 0.24112 0.94255 0.0
O287 O 0.60608 0.2403 0.95861 0.0
Co288 Co 0.69424 0.09413 0.34757 0.0
Co289 Co 0.60377 0.17646 0.33821 0.0
Co290 Co 0.68134 0.09598 0.32452 0.0
H291 H 0.68922 0.1082 0.3362 0.0
O292 O 0.70131 0.13686 0.33825 0.0
H293 H 0.60641 0.16803 0.32638 0.0
O294 O 0.5911 0.14 0.32408 0.0
Co295 Co 0.61473 0.1842 0.31524 0.0
O296 O 0.53666 0.23253 0.32242 0.0
O297 O 0.50883 0.21672 0.33732 0.0
O298 O 0.65624 0.13324 0.30425 0.0
O299 O 0.66959 0.06808 0.31022 0.0
O300 O 0.69483 0.09252 0.36236 0.0
O301 O 0.80525 0.0987 0.35534 0.0
O302 O 0.71291 0.22126 0.32096 0.0
O303 O 0.68136 0.23051 0.33693 0.0
C304 C 0.79022 0.03015 0.33203 0.0
C305 C 0.5811 0.16665 0.35841 0.0
C306 C 0.57793 0.21244 0.29974 0.0
C307 C 0.57703 0.03078 0.33505 0.0
C308 C 0.49756 0.23985 0.33056 0.0
C309 C 0.66866 0.0898 0.30306 0.0
C310 C 0.77133 0.0958 0.36336 0.0
C311 C 0.72294 0.24191 0.32982 0.0
O312 O 0.76346 0.04142 0.34078 0.0
O313 O 0.77151 0.05157 0.32518 0.0
O314 O 0.60008 0.19639 0.35308 0.0
O315 O 0.5973 0.12391 0.35551 0.0
O316 O 0.64545 0.19406 0.30122 0.0
O317 O 0.53098 0.21436 0.30702 0.0
O318 O 0.60927 0.04492 0.34345 0.0
O319 O 0.59679 0.04839 0.32754 0.0
Co320 Co 0.40101 0.9319 0.06482 0.0
Co321 Co 0.32044 0.8493 0.07495 0.0
Co322 Co 0.40823 0.92829 0.08793 0.0
H323 H 0.4049 0.91749 0.07615 0.0
O324 O 0.41609 0.88871 0.07404 0.0
H325 H 0.31672 0.86294 0.08669 0.0
O326 O 0.3074 0.89204 0.08862 0.0
Co327 Co 0.3138 0.85041 0.09824 0.0
O328 O 0.2462 0.7965 0.0915 0.0
O329 O 0.22533 0.80921 0.07626 0.0
O330 O 0.39675 0.88576 0.10768 0.0
O331 O 0.41261 0.95299 0.10258 0.0
O332 O 0.369 0.93879 0.05066 0.0
O333 O 0.47257 0.9718 0.05731 0.0
O334 O 0.40098 0.80239 0.09408 0.0
O335 O 0.4 0.79918 0.07783 0.0
C336 C 0.5444 0.96899 0.07847 0.0
C337 C 0.33071 0.84019 0.05326 0.0
C338 C 0.23455 0.85096 0.11381 0.0
C339 C 0.3021 0.99822 0.07895 0.0
C340 C 0.21242 0.78667 0.08307 0.0
C341 C 0.42051 0.92768 0.10911 0.0
C342 C 0.42918 0.96433 0.04967 0.0
C343 C 0.42581 0.78457 0.08548 0.0
O344 O 0.51326 0.95492 0.06996 0.0
O345 O 0.50894 0.96361 0.0864 0.0
O346 O 0.32607 0.81968 0.06062 0.0
O347 O 0.35053 0.88266 0.05417 0.0
O348 O 0.275 0.81722 0.10929 0.0
O349 O 0.23878 0.88462 0.10947 0.0
O350 O 0.31535 0.97868 0.0701 0.0
O351 O 0.33536 0.98356 0.08623 0.0
Co352 Co 0.39911 0.85688 0.72141 0.0
Co353 Co 0.32633 0.94373 0.71209 0.0
Co354 Co 0.40557 0.86412 0.69842 0.0
H355 H 0.40477 0.87288 0.71024 0.0
O356 O 0.41888 0.90114 0.71253 0.0
H357 H 0.31809 0.93099 0.70039 0.0
O358 O 0.30694 0.90214 0.69852 0.0
Co359 Co 0.30753 0.94344 0.68888 0.0
O360 O 0.19746 0.95382 0.69586 0.0
O361 O 0.23434 0.98624 0.71101 0.0
O362 O 0.40377 0.91605 0.68052 0.0
O363 O 0.40689 0.84426 0.68356 0.0
O364 O 0.38059 0.81273 0.73116 0.0
O365 O 0.46842 0.8643 0.73426 0.0
O366 O 0.38577 0.99666 0.69301 0.0
O367 O 0.40784 0.99174 0.70874 0.0
C368 C 0.51795 0.80309 0.70601 0.0
C369 C 0.33221 0.94883 0.73335 0.0
C370 C 0.23589 0.94631 0.67296 0.0
C371 C 0.29762 0.79312 0.70692 0.0
C372 C 0.18601 0.98368 0.70369 0.0
C373 C 0.42115 0.87329 0.6779 0.0
C374 C 0.43501 0.83077 0.73713 0.0
C375 C 0.42163 1.01058 0.70123 0.0
O376 O 0.48157 0.81086 0.71433 0.0
O377 O 0.5023 0.82491 0.69914 0.0
O378 O 0.33767 0.97197 0.72642 0.0
O379 O 0.3434 0.9052 0.73184 0.0
O380 O 0.29296 0.97318 0.67654 0.0
O381 O 0.2199 0.91806 0.6784 0.0
O382 O 0.31333 0.81081 0.71582 0.0
O383 O 0.32936 0.80925 0.69972 0.0
Co384 Co 0.68454 0.69195 0.43828 0.0
Co385 Co 0.60045 0.60968 0.4481 0.0
Co386 Co 0.67648 0.69135 0.46161 0.0
H387 H 0.6825 0.67906 0.44983 0.0
O388 O 0.69591 0.65052 0.44786 0.0
H389 H 0.60237 0.61928 0.45989 0.0
O390 O 0.5866 0.64724 0.46214 0.0
Co391 Co 0.61152 0.60364 0.47105 0.0
O392 O 0.53336 0.55454 0.46419 0.0
O393 O 0.50703 0.56849 0.44911 0.0
O394 O 0.66603 0.65196 0.48149 0.0
O395 O 0.66608 0.71874 0.47607 0.0
O396 O 0.68479 0.69716 0.4236 0.0
O397 O 0.79419 0.68502 0.43031 0.0
O398 O 0.70989 0.56641 0.46565 0.0
O399 O 0.68002 0.5571 0.44966 0.0
C400 C 0.77958 0.75795 0.45382 0.0
C401 C 0.58453 0.61289 0.42718 0.0
C402 C 0.57292 0.57748 0.48669 0.0
C403 C 0.56697 0.75409 0.45111 0.0
C404 C 0.49535 0.54609 0.45598 0.0
C405 C 0.6736 0.69578 0.48301 0.0
C406 C 0.761 0.69123 0.42247 0.0
C407 C 0.721 0.54588 0.45682 0.0
O408 O 0.74936 0.7466 0.44521 0.0
O409 O 0.76573 0.73597 0.46071 0.0
O410 O 0.59948 0.58672 0.43339 0.0
O411 O 0.60145 0.65585 0.42895 0.0
O412 O 0.64292 0.57268 0.48275 0.0
O413 O 0.52488 0.59785 0.48182 0.0
O414 O 0.59479 0.73834 0.44253 0.0
O415 O 0.59192 0.73879 0.45871 0.0
Co416 Co 0.69467 0.60017 0.84786 0.0
Co417 Co 0.59221 0.67584 0.83768 0.0
Co418 Co 0.68329 0.5989 0.82461 0.0
H419 H 0.68712 0.61237 0.83632 0.0
O420 O 0.6948 0.6416 0.83826 0.0
H421 H 0.60014 0.66711 0.82597 0.0
O422 O 0.58851 0.63865 0.82355 0.0
Co423 Co 0.61313 0.68336 0.81497 0.0
O424 O 0.50319 0.71073 0.81994 0.0
O425 O 0.48988 0.7094 0.83602 0.0
O426 O 0.67753 0.63769 0.8049 0.0
O427 O 0.67821 0.57049 0.8102 0.0
O428 O 0.71495 0.56684 0.85958 0.0
O429 O 0.77855 0.62667 0.85866 0.0
O430 O 0.71052 0.71928 0.82129 0.0
O431 O 0.66136 0.7336 0.83661 0.0
C432 C 0.8234 0.56128 0.83375 0.0
C433 C 0.57426 0.66862 0.85844 0.0
C434 C 0.57955 0.71438 0.79976 0.0
C435 C 0.58348 0.53254 0.83521 0.0
C436 C 0.46333 0.71966 0.82804 0.0
C437 C 0.68634 0.59383 0.80333 0.0
C438 C 0.76783 0.59558 0.86357 0.0
C439 C 0.71093 0.74296 0.82998 0.0
O440 O 0.80794 0.58956 0.8417 0.0
O441 O 0.77744 0.55866 0.82622 0.0
O442 O 0.58388 0.69678 0.85248 0.0
O443 O 0.59817 0.62669 0.85631 0.0
O444 O 0.60858 0.73818 0.80752 0.0
O445 O 0.56989 0.67318 0.80065 0.0
O446 O 0.61297 0.54883 0.84369 0.0
O447 O 0.60364 0.54905 0.82757 0.0
Co448 Co 0.39684 0.43351 0.565 0.0
Co449 Co 0.32573 0.34837 0.57461 0.0
Co450 Co 0.40984 0.42763 0.58793 0.0
H451 H 0.40553 0.41807 0.57617 0.0
O452 O 0.41887 0.38971 0.57391 0.0
H453 H 0.32028 0.3613 0.58634 0.0
O454 O 0.30988 0.39026 0.58835 0.0
Co455 Co 0.31681 0.3479 0.59779 0.0
O456 O 0.24968 0.29419 0.59096 0.0
O457 O 0.23274 0.30624 0.57559 0.0
O458 O 0.40143 0.3819 0.60716 0.0
O459 O 0.41406 0.45064 0.60266 0.0
O460 O 0.35797 0.45203 0.55199 0.0
O461 O 0.47951 0.4615 0.55636 0.0
O462 O 0.4042 0.30003 0.59363 0.0
O463 O 0.40751 0.29909 0.57746 0.0
C464 C 0.54151 0.47166 0.57862 0.0
C465 C 0.33074 0.34259 0.55312 0.0
C466 C 0.2363 0.34795 0.61324 0.0
C467 C 0.29303 0.49383 0.5794 0.0
C468 C 0.21809 0.28398 0.58242 0.0
C469 C 0.4236 0.42411 0.60894 0.0
C470 C 0.42775 0.4659 0.54987 0.0
C471 C 0.43153 0.2835 0.58507 0.0
O472 O 0.50688 0.45999 0.57022 0.0
O473 O 0.50994 0.4636 0.58655 0.0
O474 O 0.33412 0.32029 0.56021 0.0
O475 O 0.34155 0.38618 0.55442 0.0
O476 O 0.27499 0.31388 0.60857 0.0
O477 O 0.24299 0.38222 0.60912 0.0
O478 O 0.29992 0.47164 0.57062 0.0
O479 O 0.33661 0.4832 0.58643 0.0
Co480 Co 0.39262 0.35071 0.22096 0.0
Co481 Co 0.32516 0.43872 0.21176 0.0
Co482 Co 0.40333 0.35888 0.19809 0.0
H483 H 0.4011 0.3671 0.20987 0.0
O484 O 0.41604 0.39514 0.21223 0.0
H485 H 0.31708 0.42611 0.20003 0.0
O486 O 0.30521 0.39736 0.19814 0.0
Co487 Co 0.30857 0.43859 0.1885 0.0
O488 O 0.1988 0.45316 0.19534 0.0
O489 O 0.23557 0.48287 0.21067 0.0
O490 O 0.4105 0.41278 0.18102 0.0
O491 O 0.406 0.3399 0.18325 0.0
O492 O 0.3579 0.32491 0.23327 0.0
O493 O 0.48075 0.33817 0.23101 0.0
O494 O 0.39081 0.48971 0.19256 0.0
O495 O 0.40834 0.48601 0.20845 0.0
C496 C 0.5164 0.29859 0.20585 0.0
C497 C 0.32989 0.44296 0.23303 0.0
C498 C 0.2376 0.44239 0.17257 0.0
C499 C 0.28493 0.2931 0.20642 0.0
C500 C 0.18935 0.48282 0.20324 0.0
C501 C 0.42826 0.37016 0.1782 0.0
C502 C 0.4299 0.32359 0.23654 0.0
C503 C 0.42503 0.50385 0.20087 0.0
O504 O 0.47874 0.30599 0.2141 0.0
O505 O 0.49981 0.31964 0.19888 0.0
O506 O 0.33707 0.46628 0.22614 0.0
O507 O 0.33778 0.39907 0.23145 0.0
O508 O 0.31221 0.45193 0.17432 0.0
O509 O 0.20347 0.43073 0.17984 0.0
O510 O 0.29448 0.31405 0.21525 0.0
O511 O 0.32712 0.30419 0.19932 0.0
H512 H 0.39981 0.25616 0.43661 0.0
H513 H 0.3871 0.28474 0.4684 0.0
H514 H 0.44264 0.33421 0.4368 0.0
H515 H 0.43771 0.36246 0.46864 0.0
H516 H 0.38304 0.50821 0.4665 0.0
H517 H 0.36344 0.42557 0.46542 0.0
H518 H 0.52281 0.39865 0.43986 0.0
H519 H 0.53545 0.48098 0.44051 0.0
C520 C 0.40986 0.27847 0.44369 0.0
C521 C 0.38554 0.26519 0.45248 0.0
C522 C 0.43473 0.32356 0.44379 0.0
C523 C 0.43907 0.35537 0.45273 0.0
C524 C 0.43001 0.33939 0.4616 0.0
C525 C 0.4027 0.29458 0.46148 0.0
C526 C 0.41012 0.48431 0.4604 0.0
C527 C 0.45904 0.50042 0.45347 0.0
C528 C 0.40144 0.43707 0.45994 0.0
C529 C 0.444 0.40538 0.45275 0.0
C530 C 0.48889 0.42187 0.44548 0.0
C531 C 0.4952 0.46905 0.44575 0.0
H532 H 0.8832 0.02076 0.44193 0.0
H533 H 0.87674 0.04718 0.47375 0.0
H534 H 0.82631 0.94431 0.44157 0.0
H535 H 0.82602 0.97015 0.47338 0.0
H536 H 0.73047 0.82287 0.46904 0.0
H537 H 0.74072 0.90576 0.46987 0.0
H538 H 0.90593 0.88159 0.44487 0.0
H539 H 0.89056 0.79865 0.44369 0.0
C540 C 0.86719 1.01094 0.44884 0.0
C541 C 0.88884 0.03884 0.45787 0.0
C542 C 0.83599 0.96683 0.44863 0.0
C543 C 0.82693 0.95032 0.45744 0.0
C544 C 0.83425 0.98133 0.46644 0.0
C545 C 0.8636 0.02571 0.46664 0.0
C546 C 0.77119 0.83557 0.46395 0.0
C547 C 0.81077 0.80489 0.45638 0.0
C548 C 0.77599 0.88295 0.46432 0.0
C549 C 0.82198 0.90022 0.45725 0.0
C550 C 0.86706 0.86933 0.45017 0.0
C551 C 0.86055 0.82198 0.44966 0.0
H552 H 0.39346 0.99111 0.84249 0.0
H553 H 0.23377 0.96688 0.81711 0.0
H554 H 0.40883 0.90821 0.84132 0.0
H555 H 0.24396 0.88401 0.81628 0.0
H556 H 0.38301 0.74332 0.8125 0.0
H557 H 0.33005 0.81987 0.81282 0.0
H558 H 0.32823 0.84565 0.84463 0.0
H559 H 0.38757 0.76977 0.84431 0.0
C560 C 0.36365 0.96779 0.83651 0.0
C561 C 0.31372 0.98485 0.8298 0.0
C562 C 0.37006 0.92048 0.836 0.0
C563 C 0.32483 0.88963 0.82894 0.0
C564 C 0.27917 0.90685 0.82183 0.0
C565 C 0.2745 0.9542 0.82219 0.0
C566 C 0.36877 0.76469 0.81959 0.0
C567 C 0.39411 0.75189 0.82839 0.0
C568 C 0.3381 0.80873 0.81976 0.0
C569 C 0.32972 0.83962 0.82876 0.0
C570 C 0.33866 0.82317 0.83758 0.0
C571 C 0.3712 0.7794 0.8374 0.0
H572 H 0.99459 0.30272 0.84751 0.0
H573 H 0.88707 0.27604 0.81846 0.0
H574 H 0.96953 0.38452 0.84888 0.0
H575 H 0.8555 0.35779 0.82008 0.0
H576 H 0.89906 0.50264 0.81877 0.0
H577 H 0.93473 0.42278 0.81905 0.0
H578 H 0.88434 0.44714 0.85031 0.0
H579 H 0.85674 0.52713 0.85014 0.0
C580 C 0.96141 0.31422 0.84163 0.0
C581 C 0.94319 0.28351 0.83285 0.0
C582 C 0.94773 0.36125 0.84237 0.0
C583 C 0.91332 0.37793 0.83443 0.0
C584 C 0.88571 0.34625 0.82614 0.0
C585 C 0.9016 0.29938 0.82529 0.0
C586 C 0.89924 0.49119 0.82575 0.0
C587 C 0.87357 0.52072 0.83438 0.0
C588 C 0.91759 0.44526 0.82589 0.0
C589 C 0.90844 0.42806 0.83462 0.0
C590 C 0.89143 0.45896 0.84343 0.0
C591 C 0.87577 0.50513 0.84334 0.0
H592 H 0.61109 0.52327 0.59517 0.0
H593 H 0.62751 0.4954 0.56342 0.0
H594 H 0.66858 0.59963 0.59563 0.0
H595 H 0.67733 0.57259 0.56382 0.0
H596 H 0.76739 0.72052 0.56808 0.0
H597 H 0.75853 0.63775 0.56735 0.0
H598 H 0.5905 0.66175 0.59211 0.0
H599 H 0.60525 0.74468 0.59323 0.0
C600 C 0.62923 0.53282 0.58831 0.0
C601 C 0.60989 0.50468 0.57923 0.0
C602 C 0.66066 0.5769 0.58855 0.0
C603 C 0.67183 0.59312 0.57974 0.0
C604 C 0.66722 0.56176 0.57076 0.0
C605 C 0.63809 0.51735 0.57053 0.0
C606 C 0.72635 0.70778 0.57313 0.0
C607 C 0.68591 0.73841 0.58063 0.0
C608 C 0.72232 0.66045 0.57282 0.0
C609 C 0.67599 0.64317 0.57987 0.0
C610 C 0.62977 0.674 0.58684 0.0
C611 C 0.63578 0.72134 0.58731 0.0
H612 H 0.11282 0.02328 0.59474 0.0
H613 H 0.12646 0.99398 0.56297 0.0
H614 H 0.16915 0.09972 0.59496 0.0
H615 H 0.17549 0.07116 0.56314 0.0
H616 H 0.26692 0.21919 0.5672 0.0
H617 H 0.25739 0.13646 0.56654 0.0
H618 H 0.08937 0.16123 0.59128 0.0
H619 H 0.10444 0.24408 0.59232 0.0
C620 C 0.13018 0.03252 0.58782 0.0
C621 C 0.1104 1.00391 0.57882 0.0
C622 C 0.16095 0.07663 0.58793 0.0
C623 C 0.17116 0.09239 0.57905 0.0
C624 C 0.16613 0.06064 0.57013 0.0
C625 C 0.13754 1.01622 0.57003 0.0
C626 C 0.22564 0.20664 0.57225 0.0
C627 C 0.18547 0.23747 0.57974 0.0
C628 C 0.22127 0.15934 0.57198 0.0
C629 C 0.17494 0.14233 0.57906 0.0
C630 C 0.12865 0.17332 0.58599 0.0
C631 C 0.13487 0.2206 0.58641 0.0
H632 H 0.65161 1.0117 0.18693 0.0
H633 H 0.60681 0.03818 0.21825 0.0
H634 H 0.62527 0.0917 0.1865 0.0
H635 H 0.57299 0.11809 0.21773 0.0
H636 H 0.62051 0.26429 0.21795 0.0
H637 H 0.65324 0.18276 0.21649 0.0
H638 H 0.53842 0.15413 0.18775 0.0
H639 H 0.51176 0.23577 0.18896 0.0
C640 C 0.63238 0.03419 0.19366 0.0
C641 C 0.63289 0.01908 0.20267 0.0
C642 C 0.61754 0.08032 0.19342 0.0
C643 C 0.60014 0.11173 0.20215 0.0
C644 C 0.59029 0.09516 0.21095 0.0
C645 C 0.60763 0.04926 0.21123 0.0
C646 C 0.60611 0.24063 0.21115 0.0
C647 C 0.56369 0.25591 0.20358 0.0
C648 C 0.62271 0.19387 0.2104 0.0
C649 C 0.59515 0.16172 0.20218 0.0
C650 C 0.56015 0.17782 0.1942 0.0
C651 C 0.5456 0.22474 0.19485 0.0
H652 H 0.03191 0.74277 0.18882 0.0
H653 H 0.13144 0.77257 0.21828 0.0
H654 H 0.06454 0.66192 0.18757 0.0
H655 H 0.16974 0.69177 0.21683 0.0
H656 H 0.11853 0.54497 0.21799 0.0
H657 H 0.09048 0.62578 0.21761 0.0
H658 H 0.15477 0.60103 0.18672 0.0
H659 H 0.17652 0.52052 0.18698 0.0
C660 C 0.06502 0.73237 0.19483 0.0
C661 C 0.07819 0.76354 0.20371 0.0
C662 C 0.08312 0.68582 0.19415 0.0
C663 C 0.11688 0.67012 0.20225 0.0
C664 C 0.1403 0.70254 0.21063 0.0
C665 C 0.12035 0.74892 0.21139 0.0
C666 C 0.12358 0.55671 0.21107 0.0
C667 C 0.14943 0.52655 0.20254 0.0
C668 C 0.1095 0.60309 0.21088 0.0
C669 C 0.12321 0.62016 0.2022 0.0
C670 C 0.14351 0.58917 0.19353 0.0
C671 C 0.1554 0.5427 0.19366 0.0
H672 H 0.37528 0.04675 0.97322 0.0
H673 H 0.39573 1.01594 0.94151 0.0
H674 H 0.32646 0.96955 0.97308 0.0
H675 H 0.33975 0.93938 0.94129 0.0
H676 H 0.39986 0.79502 0.94448 0.0
H677 H 0.41652 0.87766 0.94531 0.0
H678 H 0.24462 0.90467 0.96965 0.0
H679 H 0.23345 0.82233 0.96923 0.0
C680 C 0.36549 0.02415 0.96616 0.0
C681 C 0.39413 0.03617 0.95742 0.0
C682 C 0.33719 0.9797 0.96609 0.0
C683 C 0.33403 0.94753 0.9572 0.0
C684 C 0.3463 0.96282 0.9483 0.0
C685 C 0.37668 1.00702 0.9484 0.0
C686 C 0.36878 0.81893 0.95025 0.0
C687 C 0.31651 0.80275 0.95687 0.0
C688 C 0.37601 0.86611 0.95056 0.0
C689 C 0.32925 0.89769 0.9573 0.0
C690 C 0.28125 0.88137 0.96434 0.0
C691 C 0.27586 0.83423 0.96421 0.0
H692 H 0.89934 0.28418 0.96793 0.0
H693 H 0.87727 0.25648 0.93623 0.0
H694 H 0.9412 0.36303 0.96757 0.0
H695 H 0.91229 0.33556 0.93593 0.0
H696 H 0.01599 0.48176 0.93915 0.0
H697 H 0.99754 0.39934 0.93807 0.0
H698 H 0.8602 0.42629 0.96537 0.0
H699 H 0.88454 0.50868 0.96674 0.0
C700 C 0.90559 0.29459 0.96088 0.0
C701 C 0.88274 0.26472 0.95216 0.0
C702 C 0.92774 0.33995 0.96068 0.0
C703 C 0.92568 0.35614 0.95177 0.0
C704 C 0.91343 0.3245 0.94293 0.0
C705 C 0.89351 0.27888 0.94312 0.0
C706 C 0.97906 0.46998 0.9447 0.0
C707 C 0.9512 0.50114 0.95301 0.0
C708 C 0.96943 0.42272 0.94416 0.0
C709 C 0.92985 0.40615 0.9518 0.0
C710 C 0.89418 0.43786 0.95958 0.0
C711 C 0.90579 0.48503 0.96024 0.0
H712 H 0.38188 0.27721 0.32043 0.0
H713 H 0.54098 0.30497 0.34583 0.0
H714 H 0.36289 0.35979 0.32138 0.0
H715 H 0.52919 0.38719 0.3463 0.0
H716 H 0.40435 0.52933 0.3499 0.0
H717 H 0.45004 0.45167 0.34959 0.0
H718 H 0.43527 0.4227 0.31779 0.0
H719 H 0.38167 0.49992 0.31819 0.0
C720 C 0.41046 0.30125 0.3264 0.0
C721 C 0.46098 0.28532 0.3332 0.0
C722 C 0.40224 0.34843 0.32676 0.0
C723 C 0.44689 0.3802 0.33372 0.0
C724 C 0.49359 0.36392 0.34088 0.0
C725 C 0.49937 0.31682 0.34072 0.0
C726 C 0.41277 0.50687 0.3428 0.0
C727 C 0.38461 0.51966 0.33411 0.0
C728 C 0.43941 0.46207 0.34262 0.0
C729 C 0.44163 0.43013 0.33369 0.0
C730 C 0.4292 0.44586 0.32484 0.0
C731 C 0.40015 0.49042 0.32504 0.0
H732 H 0.74218 0.96613 0.31656 0.0
H733 H 0.90156 0.98869 0.34199 0.0
H734 H 0.74957 0.88325 0.31572 0.0
H735 H 0.91395 0.90562 0.34081 0.0
H736 H 0.88418 0.76775 0.34402 0.0
H737 H 0.82963 0.84454 0.34419 0.0
H738 H 0.83196 0.81757 0.31238 0.0
H739 H 0.88019 0.74022 0.31219 0.0
C740 C 0.78226 0.95309 0.32166 0.0
C741 C 0.82197 0.98336 0.3293 0.0
C742 C 0.78533 0.90568 0.32129 0.0
C743 C 0.82984 0.88797 0.32841 0.0
C744 C 0.87597 0.91832 0.33548 0.0
C745 C 0.87123 0.96573 0.33599 0.0
C746 C 0.86902 0.77739 0.33707 0.0
C747 C 0.89113 0.74917 0.3281 0.0
C748 C 0.83923 0.82168 0.33716 0.0
C749 C 0.83203 0.83793 0.3283 0.0
C750 C 0.83896 0.80657 0.31935 0.0
C751 C 0.86682 0.76201 0.31925 0.0
H752 H 0.62906 0.99416 0.0633 0.0
H753 H 0.61488 0.01992 0.09506 0.0
H754 H 0.67891 0.07146 0.0639 0.0
H755 H 0.67233 0.09642 0.0957 0.0
H756 H 0.61129 0.24264 0.09377 0.0
H757 H 0.59595 0.15965 0.09253 0.0
H758 H 0.76133 0.13606 0.06752 0.0
H759 H 0.7708 0.21893 0.06838 0.0
C760 C 0.64005 1.01563 0.07045 0.0
C761 C 0.61257 1.00228 0.07911 0.0
C762 C 0.66922 0.06015 0.07079 0.0
C763 C 0.67466 0.091 0.07984 0.0
C764 C 0.66382 0.07415 0.08859 0.0
C765 C 0.63239 0.02998 0.08823 0.0
C766 C 0.64125 0.2194 0.08779 0.0
C767 C 0.69051 0.23662 0.08105 0.0
C768 C 0.63483 0.172 0.08723 0.0
C769 C 0.67983 0.1412 0.08013 0.0
C770 C 0.72586 0.15869 0.07308 0.0
C771 C 0.7303 0.20609 0.07347 0.0
H772 H 0.11137 0.52325 0.09438 0.0
H773 H 0.11173 0.49849 0.06257 0.0
H774 H 0.16831 0.59971 0.09478 0.0
H775 H 0.16211 0.57558 0.06298 0.0
H776 H 0.25691 0.72293 0.06743 0.0
H777 H 0.2469 0.63994 0.06637 0.0
H778 H 0.08736 0.66261 0.0919 0.0
H779 H 0.10293 0.74567 0.09332 0.0
C780 C 0.12591 0.53348 0.08748 0.0
C781 C 0.10246 0.50613 0.07846 0.0
C782 C 0.15717 0.57756 0.0877 0.0
C783 C 0.16426 0.59458 0.07893 0.0
C784 C 0.15529 0.56403 0.06989 0.0
C785 C 0.12598 0.51965 0.06967 0.0
C786 C 0.2174 0.70992 0.07259 0.0
C787 C 0.17971 0.74017 0.08039 0.0
C788 C 0.21277 0.66246 0.07208 0.0
C789 C 0.16866 0.64473 0.07924 0.0
C790 C 0.12493 0.67523 0.08653 0.0
C791 C 0.13144 0.72266 0.08718 0.0
H792 H 0.47451 0.73746 0.69086 0.0
H793 H 0.63596 0.76637 0.71603 0.0
H794 H 0.4863 0.65558 0.69055 0.0
H795 H 0.6554 0.68386 0.71519 0.0
H796 H 0.63235 0.54345 0.71885 0.0
H797 H 0.58443 0.62167 0.71911 0.0
H798 H 0.56143 0.59028 0.68738 0.0
H799 H 0.60103 0.51187 0.68725 0.0
C800 C 0.51677 0.72594 0.69594 0.0
C801 C 0.55545 0.75777 0.70338 0.0
C802 C 0.52267 0.67893 0.69587 0.0
C803 C 0.57007 0.66294 0.70301 0.0
C804 C 0.61546 0.69497 0.70984 0.0
C805 C 0.60695 0.74212 0.71013 0.0
C806 C 0.61329 0.55277 0.712 0.0
C807 C 0.62445 0.52228 0.70298 0.0
C808 C 0.58766 0.5979 0.71211 0.0
C809 C 0.57428 0.61307 0.70321 0.0
C810 C 0.57273 0.58038 0.69439 0.0
C811 C 0.59577 0.53505 0.69431 0.0
H812 H 0.13021 0.27051 0.71853 0.0
H813 H 0.02547 0.24328 0.68934 0.0
H814 H 0.16324 0.18896 0.71695 0.0
H815 H 0.05228 0.16161 0.68798 0.0
H816 H 0.16151 0.01839 0.6872 0.0
H817 H 0.13783 0.0987 0.68683 0.0
H818 H 0.08122 0.12468 0.71795 0.0
H819 H 0.11246 0.04443 0.71843 0.0
C820 C 0.11687 0.24715 0.71166 0.0
C821 C 0.07521 0.26275 0.70408 0.0
C822 C 0.13361 0.20038 0.71083 0.0
C823 C 0.10692 0.16856 0.70252 0.0
C824 C 0.07323 0.18504 0.69451 0.0
C825 C 0.05859 0.232 0.69524 0.0
C826 C 0.14189 0.04089 0.69392 0.0
C827 C 0.14037 0.02553 0.7029 0.0
C828 C 0.12864 0.08718 0.69371 0.0
C829 C 0.11079 0.11851 0.70243 0.0
C830 C 0.09896 0.10179 0.71118 0.0
C831 C 0.11477 0.05571 0.71144 0.0
H832 H 0.2867 0.99734 0.44075 0.0
H833 H 0.22665 0.9855 0.47049 0.0
H834 H 0.37525 0.9289 0.4393 0.0
H835 H 0.31074 0.91705 0.46897 0.0
H836 H 0.52716 0.81866 0.46772 0.0
H837 H 0.44157 0.88743 0.46882 0.0
H838 H 0.38696 0.84913 0.43778 0.0
H839 H 0.47497 0.78168 0.43667 0.0
C840 C 0.2916 0.98002 0.44694 0.0
C841 C 0.24977 0.99766 0.45576 0.0
C842 C 0.34231 0.94045 0.44612 0.0
C843 C 0.3518 0.91693 0.45407 0.0
C844 C 0.308 0.93427 0.46276 0.0
C845 C 0.25868 0.97381 0.4636 0.0
C846 C 0.4961 0.8246 0.46116 0.0
C847 C 0.50787 0.79401 0.45214 0.0
C848 C 0.44654 0.8643 0.46176 0.0
C849 C 0.4061 0.87458 0.45339 0.0
C850 C 0.41743 0.84349 0.4444 0.0
C851 C 0.46758 0.80418 0.44378 0.0
H852 H 0.03464 0.30189 0.4362 0.0
H853 H 0.00389 0.30602 0.4673 0.0
H854 H 0.95033 0.37048 0.43736 0.0
H855 H 0.91651 0.37443 0.46842 0.0
H856 H 0.83449 0.52309 0.46969 0.0
H857 H 0.91766 0.45387 0.46825 0.0
H858 H 0.81828 0.40385 0.43923 0.0
H859 H 0.73576 0.47431 0.44062 0.0
C860 C 0.00924 0.31706 0.44331 0.0
C861 C 0.02692 0.29786 0.45167 0.0
C862 C 0.95993 0.35664 0.44396 0.0
C863 C 0.92578 0.37875 0.45298 0.0
C864 C 0.94243 0.35924 0.46134 0.0
C865 C 0.99231 0.31956 0.4607 0.0
C866 C 0.83062 0.49766 0.46292 0.0
C867 C 0.77819 0.50493 0.45524 0.0
C868 C 0.87804 0.45734 0.46215 0.0
C869 C 0.87496 0.42234 0.45367 0.0
C870 C 0.82359 0.42989 0.44588 0.0
C871 C 0.77606 0.47054 0.44664 0.0
H872 H 0.21817 0.32147 0.84483 0.0
H873 H 0.35097 0.25941 0.81865 0.0
H874 H 0.30047 0.39187 0.84593 0.0
H875 H 0.43464 0.32861 0.81987 0.0
H876 H 0.52406 0.47385 0.81849 0.0
H877 H 0.43734 0.4053 0.8176 0.0
H878 H 0.42792 0.42891 0.84932 0.0
H879 H 0.51203 0.49755 0.85018 0.0
C880 C 0.26616 0.32233 0.83944 0.0
C881 C 0.27771 0.28427 0.83169 0.0
C882 C 0.31359 0.36298 0.84003 0.0
C883 C 0.37466 0.36686 0.83293 0.0
C884 C 0.38741 0.32809 0.82537 0.0
C885 C 0.33972 0.28783 0.82473 0.0
C886 C 0.50279 0.46473 0.82527 0.0
C887 C 0.52579 0.49177 0.8344 0.0
C888 C 0.45344 0.42487 0.82478 0.0
C889 C 0.42512 0.41062 0.8334 0.0
C890 C 0.44699 0.43835 0.84249 0.0
C891 C 0.49624 0.47796 0.84298 0.0
H892 H 0.86276 0.75139 0.82209 0.0
H893 H 0.68488 0.82955 0.84163 0.0
H894 H 0.94788 0.82027 0.82308 0.0
H895 H 0.77011 0.89935 0.84252 0.0
H896 H 0.90486 0.02319 0.83164 0.0
H897 H 0.81783 0.95436 0.83127 0.0
H898 H 0.03438 0.87456 0.83491 0.0
H899 H 0.1201 0.94325 0.83548 0.0
C900 C 0.84217 0.78323 0.82672 0.0
C901 C 0.76698 0.78444 0.83187 0.0
C902 C 0.8912 0.82295 0.82728 0.0
C903 C 0.86623 0.86585 0.83284 0.0
C904 C 0.79132 0.86716 0.83809 0.0
C905 C 0.74284 0.82694 0.83769 0.0
C906 C 0.93369 0.99075 0.83223 0.0
C907 C 0.01961 0.98857 0.83342 0.0
C908 C 0.88378 0.95135 0.83214 0.0
C909 C 0.91861 0.90852 0.83308 0.0
C910 C 0.00491 0.90653 0.83409 0.0
C911 C 0.0543 0.94596 0.83439 0.0
H912 H 0.50251 0.23054 0.5683 0.0
H913 H 0.49076 0.2423 0.5998 0.0
H914 H 0.58997 0.16212 0.56717 0.0
H915 H 0.5748 0.17371 0.59867 0.0
H916 H 0.786 0.06807 0.59497 0.0
H917 H 0.70405 0.13862 0.59621 0.0
H918 H 0.59241 0.0838 0.56809 0.0
H919 H 0.67543 1.01455 0.56675 0.0
C920 C 0.51858 0.21881 0.57499 0.0
C921 C 0.48918 0.24268 0.58413 0.0
C922 C 0.56837 0.17903 0.57436 0.0
C923 C 0.59024 0.16153 0.58284 0.0
C924 C 0.56131 0.18586 0.59196 0.0
C925 C 0.51209 0.22551 0.59259 0.0
C926 C 0.74341 0.07088 0.5891 0.0
C927 C 0.738 0.0351 0.58077 0.0
C928 C 0.696 0.11159 0.58979 0.0
C929 C 0.64117 0.11786 0.5822 0.0
C930 C 0.63475 0.08146 0.574 0.0
C931 C 0.68221 0.04111 0.57329 0.0
H932 H 0.28487 0.56807 0.59521 0.0
H933 H 0.17354 0.51493 0.56702 0.0
H934 H 0.20236 0.63851 0.59656 0.0
H935 H 0.09003 0.58401 0.56846 0.0
H936 H 0.99988 0.73068 0.56874 0.0
H937 H 0.08715 0.6622 0.56758 0.0
H938 H 0.07331 0.67389 0.59909 0.0
H939 H 0.98936 0.7426 0.60026 0.0
C940 C 0.24198 0.57092 0.58937 0.0
C941 C 0.23657 0.5353 0.58101 0.0
C942 C 0.19425 0.61157 0.59013 0.0
C943 C 0.13911 0.61794 0.58257 0.0
C944 C 0.13262 0.58164 0.57435 0.0
C945 C 0.18038 0.54137 0.57358 0.0
C946 C 0.01613 0.71894 0.57543 0.0
C947 C 0.98719 0.74291 0.58459 0.0
C948 C 0.06584 0.67912 0.57478 0.0
C949 C 0.0881 0.66163 0.58325 0.0
C950 C 0.05952 0.68602 0.59238 0.0
C951 C 0.01037 0.72574 0.59304 0.0
H952 H 0.48726 0.56104 0.21752 0.0
H953 H 0.49647 0.53847 0.18584 0.0
H954 H 0.57529 0.62875 0.21845 0.0
H955 H 0.58685 0.6048 0.18671 0.0
H956 H 0.69412 0.75256 0.19106 0.0
H957 H 0.60401 0.68471 0.18969 0.0
H958 H 0.70535 0.6566 0.21677 0.0
H959 H 0.79114 0.72452 0.21827 0.0
C960 C 0.509 0.56999 0.21074 0.0
C961 C 0.48436 0.54372 0.20162 0.0
C962 C 0.56016 0.60904 0.21124 0.0
C963 C 0.58949 0.62303 0.20264 0.0
C964 C 0.56524 0.59629 0.19353 0.0
C965 C 0.51356 0.55761 0.19303 0.0
C966 C 0.69713 0.7317 0.19667 0.0
C967 C 0.74959 0.74469 0.20482 0.0
C968 C 0.64544 0.69249 0.19591 0.0
C969 C 0.64554 0.6647 0.2032 0.0
C970 C 0.7004 0.67723 0.21113 0.0
C971 C 0.7507 0.71641 0.21195 0.0
H972 H 0.2674 0.22187 0.19009 0.0
H973 H 0.17207 0.27035 0.21935 0.0
H974 H 0.18288 0.15195 0.18873 0.0
H975 H 0.08766 0.20172 0.21794 0.0
H976 H 1.00153 0.0541 0.2171 0.0
H977 H 0.09043 0.12174 0.21799 0.0
H978 H 0.04775 0.11988 0.18717 0.0
H979 H 0.96111 0.05206 0.18622 0.0
C980 C 0.22769 0.21813 0.19617 0.0
C981 C 0.22719 0.25227 0.20482 0.0
C982 C 0.17903 0.17782 0.19541 0.0
C983 C 0.12837 0.17033 0.20328 0.0
C984 C 0.12679 0.20511 0.2118 0.0
C985 C 0.17507 0.2451 0.21255 0.0
C986 C 0.01148 0.06787 0.21049 0.0
C987 C 0.97345 0.04707 0.2016 0.0
C988 C 0.06223 0.10713 0.21101 0.0
C989 C 0.07676 0.12704 0.20265 0.0
C990 C 0.03958 0.10572 0.19375 0.0
C991 C 0.98899 0.06663 0.19324 0.0
H992 H 0.3325 0.52231 0.96941 0.0
H993 H 0.23703 0.47321 0.9402 0.0
H994 H 0.41701 0.4537 0.96807 0.0
H995 H 0.32132 0.40331 0.93889 0.0
H996 H 0.54049 0.30241 0.93629 0.0
H997 H 0.45454 0.37039 0.93725 0.0
H998 H 0.41667 0.37421 0.96824 0.0
H999 H 0.50532 0.30643 0.96732 0.0
C1000 C 0.32957 0.49693 0.96263 0.0
C1001 C 0.27747 0.50397 0.95489 0.0
C1002 C 0.37787 0.45694 0.96191 0.0
C1003 C 0.37623 0.42195 0.95342 0.0
C1004 C 0.32543 0.4293 0.94555 0.0
C1005 C 0.27689 0.46964 0.94627 0.0
C1006 C 0.5139 0.31745 0.94335 0.0
C1007 C 0.53084 0.29838 0.95174 0.0
C1008 C 0.46363 0.35667 0.94387 0.0
C1009 C 0.42788 0.37861 0.95282 0.0
C1010 C 0.44378 0.35919 0.96121 0.0
C1011 C 0.49442 0.31984 0.96069 0.0
H1012 H 0.99431 0.80731 0.96785 0.0
H1013 H 0.01146 0.79676 0.93641 0.0
H1014 H 0.90619 0.87544 0.96887 0.0
H1015 H 0.92641 0.865 0.93744 0.0
H1016 H 0.71423 0.97086 0.94106 0.0
H1017 H 0.79538 0.89985 0.93981 0.0
H1018 H 0.90724 0.95416 0.96794 0.0
H1019 H 0.82584 0.02383 0.96925 0.0
C1020 C 0.97914 0.81918 0.96115 0.0
C1021 C 0.01054 0.79588 0.95206 0.0
C1022 C 0.92901 0.85879 0.96172 0.0
C1023 C 0.90856 0.87656 0.95323 0.0
C1024 C 0.939 0.85262 0.94415 0.0
C1025 C 0.98877 0.81322 0.94359 0.0
C1026 C 0.75666 0.96781 0.94693 0.0
C1027 C 0.7627 1.00362 0.95524 0.0
C1028 C 0.80353 0.92687 0.94624 0.0
C1029 C 0.85809 0.92035 0.95383 0.0
C1030 C 0.86503 0.95671 0.96202 0.0
C1031 C 0.81843 0.99732 0.96271 0.0
H1032 H 0.32143 0.76625 0.31621 0.0
H1033 H 0.22169 0.81601 0.34519 0.0
H1034 H 0.40512 0.83518 0.31759 0.0
H1035 H 0.30475 0.88629 0.34651 0.0
H1036 H 0.52322 0.98709 0.34965 0.0
H1037 H 0.43667 0.91939 0.34848 0.0
H1038 H 0.40732 0.91439 0.31732 0.0
H1039 H 0.49708 0.98193 0.31846 0.0
C1040 C 0.31709 0.79191 0.32293 0.0
C1041 C 0.26412 0.78492 0.3306 0.0
C1042 C 0.36499 0.83209 0.32367 0.0
C1043 C 0.36204 0.86732 0.33212 0.0
C1044 C 0.30997 0.86014 0.33989 0.0
C1045 C 0.26192 0.81962 0.33915 0.0
C1046 C 0.49824 0.97195 0.34251 0.0
C1047 C 0.51789 0.99064 0.33414 0.0
C1048 C 0.44759 0.93285 0.34186 0.0
C1049 C 0.41401 0.91062 0.33281 0.0
C1050 C 0.43254 0.92968 0.32443 0.0
C1051 C 0.48368 0.96894 0.32508 0.0
H1052 H 0.01701 0.47781 0.31888 0.0
H1053 H 0.02217 0.49249 0.35047 0.0
H1054 H 0.93063 0.40896 0.31777 0.0
H1055 H 0.93911 0.42351 0.34937 0.0
H1056 H 0.7288 0.31696 0.34541 0.0
H1057 H 0.81076 0.38756 0.34667 0.0
H1058 H 0.92793 0.33106 0.31897 0.0
H1059 H 0.84493 0.26172 0.31764 0.0
C1060 C 0.99997 0.46654 0.32559 0.0
C1061 C 0.0272 0.49139 0.33475 0.0
C1062 C 0.95068 0.42655 0.32497 0.0
C1063 C 0.92712 0.40978 0.33349 0.0
C1064 C 0.95397 0.43504 0.34262 0.0
C1065 C 1.00267 0.47491 0.34324 0.0
C1066 C 0.77294 0.31934 0.33967 0.0
C1067 C 0.77997 0.28307 0.33146 0.0
C1068 C 0.82022 0.36011 0.34036 0.0
C1069 C 0.87651 0.36596 0.33288 0.0
C1070 C 0.88454 0.32905 0.3248 0.0
C1071 C 0.83717 0.28864 0.3241 0.0
H1072 H 0.49428 0.73074 0.06868 0.0
H1073 H 0.48554 0.74367 0.10023 0.0
H1074 H 0.58115 0.66214 0.06754 0.0
H1075 H 0.569 0.67483 0.09908 0.0
H1076 H 0.78017 0.56904 0.09516 0.0
H1077 H 0.69806 0.63957 0.09647 0.0
H1078 H 0.58293 0.58405 0.06858 0.0
H1079 H 0.66615 0.51486 0.06718 0.0
C1080 C 0.51084 0.71919 0.07538 0.0
C1081 C 0.48257 0.74345 0.08454 0.0
C1082 C 0.56029 0.67932 0.07474 0.0
C1083 C 0.58284 0.66213 0.08323 0.0
C1084 C 0.55492 0.68679 0.09236 0.0
C1085 C 0.50608 0.72656 0.093 0.0
C1086 C 0.73668 0.57169 0.08936 0.0
C1087 C 0.73037 0.5358 0.08107 0.0
C1088 C 0.68924 0.61237 0.09009 0.0
C1089 C 0.6335 0.61843 0.08258 0.0
C1090 C 0.62604 0.58185 0.07443 0.0
C1091 C 0.67357 0.54155 0.07368 0.0
H1092 H 0.21196 0.04082 0.09541 0.0
H1093 H 0.27379 0.05408 0.0658 0.0
H1094 H 0.12348 0.10929 0.09693 0.0
H1095 H 0.18971 0.12268 0.06741 0.0
H1096 H 0.97369 0.22181 0.06882 0.0
H1097 H 0.05897 0.15281 0.06757 0.0
H1098 H 0.11246 0.18916 0.09866 0.0
H1099 H 0.02512 0.25688 0.09992 0.0
C1100 C 0.20739 0.05843 0.08926 0.0
C1101 C 0.24975 0.04119 0.08045 0.0
C1102 C 0.15674 0.09806 0.09012 0.0
C1103 C 0.14783 0.12208 0.08225 0.0
C1104 C 0.19201 0.10508 0.07357 0.0
C1105 C 0.24129 0.06546 0.07267 0.0
C1106 C 0.00431 0.21537 0.07537 0.0
C1107 C 0.99243 0.24555 0.08445 0.0
C1108 C 0.05374 0.17554 0.07468 0.0
C1109 C 0.09379 0.16462 0.08302 0.0
C1110 C 0.0823 0.19526 0.09206 0.0
C1111 C 0.03246 0.23475 0.09276 0.0
H1112 H 0.51405 0.055 0.71719 0.0
H1113 H 0.46187 0.05912 0.68682 0.0
H1114 H 0.60462 0.12198 0.71813 0.0
H1115 H 0.55011 0.12634 0.68783 0.0
H1116 H 0.77099 0.22706 0.69019 0.0
H1117 H 0.68556 0.15747 0.6888 0.0
H1118 H 0.60513 0.20229 0.71882 0.0
H1119 H 0.69049 0.27051 0.72025 0.0
C1120 C 0.52168 0.07001 0.7107 0.0
C1121 C 0.47994 0.05104 0.70194 0.0
C1122 C 0.57346 0.10891 0.71125 0.0
C1123 C 0.58533 0.13039 0.70305 0.0
C1124 C 0.54424 0.11095 0.69428 0.0
C1125 C 0.49271 0.07217 0.69373 0.0
C1126 C 0.73459 0.22225 0.69646 0.0
C1127 C 0.73838 0.25501 0.70532 0.0
C1128 C 0.68525 0.18213 0.69568 0.0
C1129 C 0.63817 0.17336 0.70373 0.0
C1130 C 0.64127 0.20663 0.7125 0.0
C1131 C 0.69017 0.24645 0.71327 0.0
H1132 H 0.97325 0.56865 0.71746 0.0
H1133 H 0.00834 0.53803 0.68601 0.0
H1134 H 0.0595 0.63723 0.71856 0.0
H1135 H 0.09663 0.60529 0.6871 0.0
H1136 H 0.20025 0.75353 0.69077 0.0
H1137 H 0.11057 0.68543 0.6893 0.0
H1138 H 0.19062 0.66606 0.71796 0.0
H1139 H 0.27603 0.73402 0.71952 0.0
C1140 C 1.00016 0.57606 0.71078 0.0
C1141 C 0.98333 0.54721 0.70167 0.0
C1142 C 0.05031 0.61561 0.71139 0.0
C1143 C 0.08627 0.62762 0.70291 0.0
C1144 C 0.06973 0.59837 0.69381 0.0
C1145 C 0.01922 0.55914 0.6932 0.0
C1146 C 0.1985 0.73465 0.69673 0.0
C1147 C 0.24501 0.75014 0.70531 0.0
C1148 C 0.14711 0.69525 0.69591 0.0
C1149 C 0.14148 0.66975 0.70358 0.0
C1150 C 0.19013 0.68487 0.71199 0.0
C1151 C 0.2402 0.72417 0.71285 0.0
H1152 H 0.32666 0.26559 0.41567 0.0
H1153 H 0.27935 0.11981 0.40644 0.0
H1154 H 0.40332 0.26551 0.40035 0.0
H1155 H 0.3527 0.11985 0.39117 0.0
H1156 H 0.57049 0.11356 0.37228 0.0
H1157 H 0.49291 0.12451 0.38712 0.0
H1158 H 0.40377 0.25527 0.38181 0.0
H1159 H 0.48768 0.24513 0.36663 0.0
C1160 C 0.33183 0.23367 0.41032 0.0
C1161 C 0.29777 0.19254 0.41233 0.0
C1162 C 0.37533 0.2337 0.40152 0.0
C1163 C 0.38566 0.19259 0.39453 0.0
C1164 C 0.34817 0.15206 0.39643 0.0
C1165 C 0.30556 0.15198 0.4052 0.0
C1166 C 0.53636 0.1454 0.37419 0.0
C1167 C 0.53674 0.17856 0.36809 0.0
C1168 C 0.48998 0.15126 0.38277 0.0
C1169 C 0.43976 0.19013 0.38563 0.0
C1170 C 0.44153 0.22466 0.37982 0.0
C1171 C 0.48968 0.21894 0.37112 0.0
H1172 H 0.93708 0.08463 0.3667 0.0
H1173 H 0.70254 0.10581 0.38153 0.0
H1174 H 0.00506 0.08358 0.38251 0.0
H1175 H 0.76958 0.10462 0.39719 0.0
H1176 H 0.93126 0.16268 0.424 0.0
H1177 H 0.86107 0.15451 0.40827 0.0
H1178 H 0.01849 0.03936 0.39631 0.0
H1179 H 0.08964 0.04797 0.41229 0.0
C1180 C 0.90009 0.08906 0.37332 0.0
C1181 C 0.81439 0.09552 0.37285 0.0
C1182 C 0.93887 0.08799 0.38237 0.0
C1183 C 0.89294 0.09396 0.39117 0.0
C1184 C 0.80722 0.10024 0.39062 0.0
C1185 C 0.7686 0.10082 0.38161 0.0
C1186 C 0.94962 0.13481 0.41809 0.0
C1187 C 0.01505 0.10547 0.41944 0.0
C1188 C 0.90939 0.13016 0.40904 0.0
C1189 C 0.93388 0.09628 0.40096 0.0
C1190 C 0.9983 0.06602 0.40235 0.0
C1191 C 0.03819 0.07038 0.41153 0.0
H1192 H 0.54962 0.04273 0.91477 0.0
H1193 H 0.46587 0.18398 0.92219 0.0
H1194 H 0.47686 0.03391 0.89891 0.0
H1195 H 0.3929 0.17513 0.90675 0.0
H1196 H 0.35174 0.16846 0.87443 0.0
H1197 H 0.42318 0.17089 0.88999 0.0
H1198 H 0.34637 0.03086 0.89013 0.0
H1199 H 0.27647 0.02825 0.87437 0.0
C1200 C 0.51464 0.07152 0.91312 0.0
C1201 C 0.5146 0.11416 0.91973 0.0
C1202 C 0.473 0.06661 0.90401 0.0
C1203 C 0.43024 0.10419 0.90137 0.0
C1204 C 0.4271 0.14582 0.90828 0.0
C1205 C 0.46865 0.15074 0.91724 0.0
C1206 C 0.35033 0.13812 0.87776 0.0
C1207 C 0.30802 0.09828 0.87315 0.0
C1208 C 0.39088 0.13953 0.88675 0.0
C1209 C 0.39014 0.10119 0.89147 0.0
C1210 C 0.34897 0.06097 0.88675 0.0
C1211 C 0.30833 0.05958 0.87773 0.0
H1212 H 0.87615 0.12757 0.91285 0.0
H1213 H 0.76147 0.25776 0.91127 0.0
H1214 H 0.95297 0.13015 0.89791 0.0
H1215 H 0.84033 0.26116 0.89633 0.0
H1216 H 0.93792 0.22118 0.86365 0.0
H1217 H 0.85959 0.2281 0.87905 0.0
H1218 H 0.06436 0.1687 0.89219 0.0
H1219 H 0.14009 0.16056 0.87682 0.0
C1220 C 0.86759 0.15693 0.90932 0.0
C1221 C 0.81289 0.19253 0.9133 0.0
C1222 C 0.91234 0.1587 0.90076 0.0
C1223 C 0.90431 0.1963 0.89591 0.0
C1224 C 0.84828 0.23161 0.8998 0.0
C1225 C 0.80325 0.22978 0.9084 0.0
C1226 C 0.96683 0.2111 0.86996 0.0
C1227 C 0.04545 0.19076 0.86906 0.0
C1228 C 0.92179 0.21468 0.87878 0.0
C1229 C 0.95466 0.19808 0.88687 0.0
C1230 C 0.03565 0.18068 0.88609 0.0
C1231 C 0.07989 0.17671 0.87731 0.0
H1232 H 0.38001 0.90413 0.66146 0.0
H1233 H 0.55277 0.81423 0.67209 0.0
H1234 H 0.45564 0.8964 0.64615 0.0
H1235 H 0.63132 0.80723 0.65667 0.0
H1236 H 0.71793 0.78005 0.62399 0.0
H1237 H 0.63985 0.7802 0.6391 0.0
H1238 H 0.57875 0.92377 0.64044 0.0
H1239 H 0.65477 0.923 0.62524 0.0
C1240 C 0.4339 0.88209 0.66046 0.0
C1241 C 0.46 0.85966 0.66801 0.0
C1242 C 0.47821 0.87815 0.65169 0.0
C1243 C 0.55116 0.85204 0.65016 0.0
C1244 C 0.57543 0.82761 0.65753 0.0
C1245 C 0.5302 0.83132 0.66636 0.0
C1246 C 0.68758 0.8116 0.62752 0.0
C1247 C 0.69198 0.85141 0.62333 0.0
C1248 C 0.64314 0.81178 0.63624 0.0
C1249 C 0.60173 0.85179 0.64103 0.0
C1250 C 0.6078 0.89184 0.6369 0.0
C1251 C 0.65198 0.89159 0.62818 0.0
H1252 H 0.07698 0.96725 0.613 0.0
H1253 H 0.86351 0.92262 0.62712 0.0
H1254 H 0.15449 0.97435 0.62844 0.0
H1255 H 0.93852 0.93131 0.64255 0.0
H1256 H 0.11476 0.88854 0.66429 0.0
H1257 H 0.0401 0.89043 0.64917 0.0
H1258 H 0.18024 1.01006 0.64525 0.0
H1259 H 0.25707 1.00702 0.66035 0.0
C1260 C 0.04567 0.96085 0.61951 0.0
C1261 C 0.96386 0.94493 0.61887 0.0
C1262 C 0.09021 0.96453 0.62837 0.0
C1263 C 0.05369 0.95253 0.63679 0.0
C1264 C 0.97002 0.93961 0.63622 0.0
C1265 C 0.92623 0.93543 0.6274 0.0
C1266 C 0.12977 0.91528 0.66021 0.0
C1267 C 0.19161 0.94779 0.66359 0.0
C1268 C 0.08627 0.9167 0.65154 0.0
C1269 C 0.1026 0.95095 0.64596 0.0
C1270 C 0.16568 0.98309 0.64927 0.0
C1271 C 0.20957 0.98153 0.65797 0.0
H1272 H 0.60712 0.88672 0.16417 0.0
H1273 H 0.75528 1.00293 0.16014 0.0
H1274 H 0.53283 0.88967 0.14908 0.0
H1275 H 0.67892 1.00707 0.14507 0.0
H1276 H 0.57492 0.96534 0.11285 0.0
H1277 H 0.65214 0.97149 0.12829 0.0
H1278 H 0.4335 0.93207 0.14246 0.0
H1279 H 0.35871 0.92425 0.12702 0.0
C1280 C 0.62351 0.91319 0.16008 0.0
C1281 C 0.68685 0.94475 0.16342 0.0
C1282 C 0.58024 0.91523 0.15142 0.0
C1283 C 0.5984 0.94918 0.14583 0.0
C1284 C 0.66294 0.98037 0.14911 0.0
C1285 C 0.70656 0.97818 0.15779 0.0
C1286 C 0.54302 0.95958 0.11938 0.0
C1287 C 0.46046 0.94495 0.11876 0.0
C1288 C 0.58736 0.96271 0.12823 0.0
C1289 C 0.5499 0.95142 0.13667 0.0
C1290 C 0.46562 0.9398 0.13612 0.0
C1291 C 0.422 0.93616 0.1273 0.0
H1292 H 0.05195 0.81253 0.17184 0.0
H1293 H 0.87626 0.90081 0.16118 0.0
H1294 H 0.13049 0.8063 0.15645 0.0
H1295 H 0.95195 0.89382 0.1459 0.0
H1296 H 0.15031 0.92239 0.1251 0.0
H1297 H 0.07468 0.92247 0.1403 0.0
H1298 H 0.13862 0.7792 0.13885 0.0
H1299 H 0.21627 0.77974 0.12374 0.0
C1300 C 0.02881 0.82942 0.16611 0.0
C1301 C 0.95781 0.85711 0.16774 0.0
C1302 C 0.07399 0.82615 0.15729 0.0
C1303 C 0.04881 0.85036 0.14993 0.0
C1304 C 0.97512 0.87579 0.15144 0.0
C1305 C 0.93084 0.8793 0.16019 0.0
C1306 C 0.14823 0.89092 0.12802 0.0
C1307 C 0.18883 0.851 0.12314 0.0
C1308 C 0.10431 0.89077 0.13673 0.0
C1309 C 0.09917 0.85058 0.14082 0.0
C1310 C 0.14122 0.81086 0.13601 0.0
C1311 C 0.18539 0.81108 0.12729 0.0
H1312 H 0.6279 0.64998 0.87568 0.0
H1313 H 0.42797 0.71576 0.86323 0.0
H1314 H 0.55379 0.6574 0.89112 0.0
H1315 H 0.3509 0.72175 0.87869 0.0
H1316 H 0.25639 0.75332 0.91077 0.0
H1317 H 0.33288 0.7538 0.8956 0.0
H1318 H 0.44479 0.62352 0.89796 0.0
H1319 H 0.37039 0.62414 0.91327 0.0
C1320 C 0.56819 0.66672 0.87631 0.0
C1321 C 0.53424 0.68267 0.86824 0.0
C1322 C 0.52481 0.67032 0.88515 0.0
C1323 C 0.44497 0.68928 0.88621 0.0
C1324 C 0.41225 0.70715 0.87825 0.0
C1325 C 0.45654 0.70402 0.86937 0.0
C1326 C 0.29758 0.72484 0.90805 0.0
C1327 C 0.30762 0.68884 0.9133 0.0
C1328 C 0.34122 0.72495 0.89928 0.0
C1329 C 0.39624 0.68898 0.89548 0.0
C1330 C 0.4049 0.65255 0.90069 0.0
C1331 C 0.36156 0.6526 0.90947 0.0
H1332 H 0.05043 0.53629 0.91489 0.0
H1333 H 0.97549 0.67953 0.92083 0.0
H1334 H 0.97582 0.52533 0.89902 0.0
H1335 H 0.90336 0.66866 0.90541 0.0
H1336 H 0.87956 0.65724 0.87295 0.0
H1337 H 0.95146 0.65679 0.88832 0.0
H1338 H 0.83108 0.52911 0.89079 0.0
H1339 H 0.75896 0.52934 0.87516 0.0
C1340 C 0.01769 0.56513 0.91291 0.0
C1341 C 0.02082 0.60896 0.91911 0.0
C1342 C 0.97505 0.55893 0.90383 0.0
C1343 C 0.93533 0.5965 0.90082 0.0
C1344 C 0.93506 0.63928 0.9073 0.0
C1345 C 0.97669 0.64536 0.91624 0.0
C1346 C 0.86843 0.6289 0.87672 0.0
C1347 C 0.81283 0.59359 0.87285 0.0
C1348 C 0.90963 0.62865 0.88557 0.0
C1349 C 0.89659 0.59311 0.89088 0.0
C1350 C 0.84283 0.55688 0.88688 0.0
C1351 C 0.8011 0.55722 0.87797 0.0
H1352 H 0.39033 0.65523 0.37248 0.0
H1353 H 0.23522 0.5437 0.37766 0.0
H1354 H 0.46913 0.65098 0.38724 0.0
H1355 H 0.31561 0.53827 0.39233 0.0
H1356 H 0.42817 0.57851 0.42396 0.0
H1357 H 0.34812 0.57375 0.4088 0.0
H1358 H 0.56685 0.6072 0.39381 0.0
H1359 H 0.64482 0.61351 0.40903 0.0
C1360 C 0.37321 0.62962 0.37677 0.0
C1361 C 0.30644 0.59981 0.37386 0.0
C1362 C 0.41906 0.62678 0.38521 0.0
C1363 C 0.39999 0.59379 0.39101 0.0
C1364 C 0.33232 0.56429 0.38814 0.0
C1365 C 0.28626 0.56726 0.37969 0.0
C1366 C 0.45947 0.58309 0.41731 0.0
C1367 C 0.54314 0.59549 0.41764 0.0
C1368 C 0.41348 0.5808 0.40861 0.0
C1369 C 0.45021 0.59084 0.40002 0.0
C1370 C 0.53535 0.60039 0.40027 0.0
C1371 C 0.58076 0.60313 0.40896 0.0
H1372 H 0.69412 0.69795 0.40473 0.0
H1373 H 0.92792 0.68681 0.41888 0.0
H1374 H 0.76472 0.70063 0.38932 0.0
H1375 H 0.99912 0.68872 0.40337 0.0
H1376 H 0.10967 0.72922 0.3758 0.0
H1377 H 0.03532 0.7365 0.39148 0.0
H1378 H 0.83931 0.65156 0.37658 0.0
H1379 H 0.91323 0.64507 0.36107 0.0
C1380 C 0.76076 0.69603 0.40455 0.0
C1381 C 0.80525 0.69215 0.41306 0.0
C1382 C 0.80143 0.69737 0.39567 0.0
C1383 C 0.88802 0.69503 0.39502 0.0
C1384 C 0.93259 0.69136 0.40358 0.0
C1385 C 0.89173 0.68982 0.41247 0.0
C1386 C 0.04927 0.71368 0.37587 0.0
C1387 C 0.016 0.6878 0.36717 0.0
C1388 C 0.00725 0.71703 0.38488 0.0
C1389 C 0.93095 0.69458 0.38538 0.0
C1390 C 0.89693 0.67002 0.37655 0.0
C1391 C 0.93911 0.66644 0.36761 0.0
H1392 H 0.55593 0.42062 0.17378 0.0
H1393 H 0.42016 0.29614 0.1624 0.0
H1394 H 0.63126 0.41298 0.15846 0.0
H1395 H 0.49724 0.28794 0.14681 0.0
H1396 H 0.58023 0.32895 0.1169 0.0
H1397 H 0.50861 0.32728 0.13243 0.0
H1398 H 0.73361 0.36836 0.14837 0.0
H1399 H 0.80421 0.37057 0.13294 0.0
C1400 C 0.54332 0.39092 0.16803 0.0
C1401 C 0.48229 0.3588 0.16936 0.0
C1402 C 0.58689 0.38647 0.15921 0.0
C1403 C 0.57075 0.34984 0.15132 0.0
C1404 C 0.511 0.3168 0.1527 0.0
C1405 C 0.46759 0.32105 0.16167 0.0
C1406 C 0.61422 0.33763 0.12374 0.0
C1407 C 0.69789 0.35015 0.12367 0.0
C1408 C 0.57338 0.33621 0.13264 0.0
C1409 C 0.61504 0.34766 0.14171 0.0
C1410 C 0.69899 0.35976 0.14158 0.0
C1411 C 0.73973 0.36092 0.13271 0.0
H1412 H 0.07255 0.43397 0.16856 0.0
H1413 H 0.30543 0.45669 0.15528 0.0
H1414 H 1.00198 0.4372 0.15314 0.0
H1415 H 0.23503 0.46068 0.13987 0.0
H1416 H 0.0905 0.4054 0.11105 0.0
H1417 H 0.16567 0.41237 0.12651 0.0
H1418 H 0.95989 0.48602 0.14196 0.0
H1419 H 0.88439 0.47802 0.12637 0.0
C1420 C 0.10869 0.4399 0.16235 0.0
C1421 C 0.19471 0.44505 0.16317 0.0
C1422 C 0.06807 0.44221 0.15351 0.0
C1423 C 0.11235 0.44951 0.14519 0.0
C1424 C 0.19859 0.45472 0.14605 0.0
C1425 C 0.23911 0.45266 0.15492 0.0
C1426 C 0.06267 0.42458 0.11772 0.0
C1427 C 0.98266 0.44247 0.11746 0.0
C1428 C 0.1056 0.4284 0.12662 0.0
C1429 C 0.06925 0.44973 0.13558 0.0
C1430 C 0.98987 0.46901 0.13526 0.0
C1431 C 0.94703 0.46531 0.1263 0.0
H1432 H 0.56876 0.47272 0.61334 0.0
H1433 H 0.37104 0.40787 0.62641 0.0
H1434 H 0.64874 0.47889 0.62861 0.0
H1435 H 0.4487 0.41487 0.6416 0.0
H1436 H 0.64126 0.37462 0.66191 0.0
H1437 H 0.56358 0.377 0.64698 0.0
H1438 H 0.66661 0.51106 0.64605 0.0
H1439 H 0.74605 0.50799 0.66096 0.0
C1440 C 0.54118 0.46141 0.61959 0.0
C1441 C 0.46334 0.44011 0.61868 0.0
C1442 C 0.5872 0.46454 0.62833 0.0
C1443 C 0.5562 0.44645 0.63634 0.0
C1444 C 0.47601 0.42801 0.63556 0.0
C1445 C 0.4307 0.42465 0.62687 0.0
C1446 C 0.64756 0.40457 0.65852 0.0
C1447 C 0.69965 0.44117 0.66267 0.0
C1448 C 0.60236 0.4062 0.64997 0.0
C1449 C 0.60746 0.44461 0.64531 0.0
C1450 C 0.66103 0.48087 0.64937 0.0
C1451 C 0.70638 0.4792 0.65795 0.0
H1452 H 0.15592 0.41999 0.62481 0.0
H1453 H 0.2157 0.27617 0.62298 0.0
H1454 H 0.08659 0.42114 0.64046 0.0
H1455 H 0.14766 0.27741 0.63882 0.0
H1456 H 0.9449 0.29257 0.66384 0.0
H1457 H 0.01597 0.28399 0.64786 0.0
H1458 H 0.12328 0.41941 0.657 0.0
H1459 H 0.0526 0.428 0.67259 0.0
C1460 C 0.15423 0.38857 0.62775 0.0
C1461 C 0.19167 0.34809 0.62265 0.0
C1462 C 0.11491 0.38922 0.63679 0.0
C1463 C 0.11205 0.34943 0.64103 0.0
C1464 C 0.14805 0.30861 0.6358 0.0
C1465 C 0.18752 0.30799 0.62674 0.0
C1466 C 0.98488 0.31998 0.66245 0.0
C1467 C 0.99216 0.36111 0.66947 0.0
C1468 C 0.0254 0.31525 0.65328 0.0
C1469 C 0.07392 0.35156 0.65099 0.0
C1470 C 0.08456 0.3913 0.65829 0.0
C1471 C 0.04436 0.39601 0.66733 0.0
H1472 H 0.37035 0.3721 0.53631 0.0
H1473 H 0.25013 0.25978 0.54659 0.0
H1474 H 0.33565 0.33787 0.5195 0.0
H1475 H 0.21244 0.22584 0.52962 0.0
H1476 H 0.22929 0.15331 0.4977 0.0
H1477 H 0.2641 0.18762 0.51445 0.0
H1478 H 0.22872 0.32361 0.50788 0.0
H1479 H 0.19629 0.28883 0.49079 0.0
C1480 C 0.33599 0.34003 0.53499 0.0
C1481 C 0.313 0.31871 0.54285 0.0
C1482 C 0.31537 0.32055 0.52529 0.0
C1483 C 0.27043 0.27918 0.5231 0.0
C1484 C 0.24803 0.25746 0.53096 0.0
C1485 C 0.26952 0.27684 0.54071 0.0
C1486 C 0.22906 0.19064 0.49975 0.0
C1487 C 0.20997 0.21827 0.4928 0.0
C1488 C 0.24838 0.21037 0.50947 0.0
C1489 C 0.24883 0.25849 0.51265 0.0
C1490 C 0.23007 0.28636 0.50571 0.0
C1491 C 0.21117 0.26649 0.49589 0.0
H1492 H 0.08044 0.98617 0.54345 0.0
H1493 H 0.8236 0.97907 0.53533 0.0
H1494 H 0.11416 1.01431 0.52848 0.0
H1495 H 0.85715 1.006 0.5202 0.0
H1496 H 0.93211 0.09821 0.49861 0.0
H1497 H 0.8986 0.07081 0.51367 0.0
H1498 H 0.12633 0.9936 0.51119 0.0
H1499 H 0.16051 0.02225 0.49628 0.0
C1500 C 0.03111 0.99046 0.53844 0.0
C1501 C 0.94924 0.98051 0.54062 0.0
C1502 C 0.05051 1.00633 0.52978 0.0
C1503 C 0.98862 1.01261 0.52302 0.0
C1504 C 0.90661 1.00245 0.52524 0.0
C1505 C 0.88724 0.98671 0.53391 0.0
C1506 C 0.97509 0.07546 0.5013 0.0
C1507 C 0.04909 0.06255 0.49623 0.0
C1508 C 0.9556 0.05937 0.50992 0.0
C1509 C 0.00946 0.02974 0.51375 0.0
C1510 C 0.08358 1.01684 0.50863 0.0
C1511 C 0.1031 0.03304 0.50001 0.0
H1512 H 0.30896 0.04186 0.74127 0.0
H1513 H 0.30343 0.9065 0.74884 0.0
H1514 H 0.27136 0.07611 0.75822 0.0
H1515 H 0.26277 0.93997 0.76539 0.0
H1516 H 0.25977 1.01413 0.79728 0.0
H1517 H 0.30367 0.98139 0.78052 0.0
H1518 H 0.16402 0.08595 0.76969 0.0
H1519 H 0.12384 0.11951 0.7864 0.0
C1520 C 0.29952 0.01941 0.7465 0.0
C1521 C 0.30959 0.97141 0.7436 0.0
C1522 C 0.27731 0.03895 0.75623 0.0
C1523 C 0.26389 1.01093 0.76329 0.0
C1524 C 0.27402 0.96302 0.76033 0.0
C1525 C 0.29684 0.94369 0.75071 0.0
C1526 C 0.23787 0.0297 0.79129 0.0
C1527 C 0.18824 0.06937 0.7932 0.0
C1528 C 0.26299 1.011 0.78164 0.0
C1529 C 0.23796 0.03104 0.77363 0.0
C1530 C 0.1865 0.07004 0.77559 0.0
C1531 C 0.16252 0.08903 0.78522 0.0
H1532 H 0.9689 0.17606 0.78539 0.0
H1533 H 0.13903 0.28923 0.79346 0.0
H1534 H 0.93612 0.20253 0.7702 0.0
H1535 H 0.10921 0.31492 0.77814 0.0
H1536 H 0.98539 0.37746 0.75442 0.0
H1537 H 0.0153 0.35074 0.76957 0.0
H1538 H 0.97789 0.20971 0.7545 0.0
H1539 H 0.94305 0.23722 0.73948 0.0
C1540 C 0.99957 0.20658 0.7839 0.0
C1541 C 0.05625 0.23064 0.79069 0.0
C1542 C 0.98137 0.22164 0.77511 0.0
C1543 C 0.01961 0.26117 0.7728 0.0
C1544 C 0.07693 0.28492 0.77962 0.0
C1545 C 0.09475 0.26996 0.78842 0.0
C1546 C 0.98285 0.34079 0.75435 0.0
C1547 C 0.96095 0.30963 0.74572 0.0
C1548 C 1.0011 0.32522 0.76306 0.0
C1549 C 0.99954 0.27776 0.76341 0.0
C1550 C 0.97847 0.24654 0.75469 0.0
C1551 C 0.95903 0.26227 0.746 0.0
H1552 H 0.70178 0.78874 0.49079 0.0
H1553 H 0.69102 0.65455 0.49888 0.0
H1554 H 0.73627 0.82328 0.50784 0.0
H1555 H 0.72845 0.68816 0.51551 0.0
H1556 H 0.7305 0.76414 0.5473 0.0
H1557 H 0.68777 0.73158 0.53046 0.0
H1558 H 0.8407 0.83101 0.51967 0.0
H1559 H 0.87987 0.86438 0.53642 0.0
C1560 C 0.70681 0.7666 0.49615 0.0
C1561 C 0.69348 0.7188 0.49335 0.0
C1562 C 0.72727 0.78629 0.50594 0.0
C1563 C 0.73537 0.75864 0.51318 0.0
C1564 C 0.72147 0.711 0.51032 0.0
C1565 C 0.70061 0.69154 0.50064 0.0
C1566 C 0.75546 0.7786 0.54131 0.0
C1567 C 0.80854 0.81681 0.54324 0.0
C1568 C 0.73102 0.76002 0.53161 0.0
C1569 C 0.76014 0.77872 0.52358 0.0
C1570 C 0.81499 0.81622 0.52557 0.0
C1571 C 0.83834 0.83507 0.53523 0.0
H1572 H 0.80248 0.03694 0.24081 0.0
H1573 H 0.80413 0.90207 0.24863 0.0
H1574 H 0.76473 0.07131 0.25775 0.0
H1575 H 0.7634 0.93565 0.26519 0.0
H1576 H 0.76215 1.01175 0.29698 0.0
H1577 H 0.80489 0.97861 0.28021 0.0
H1578 H 0.6573 0.0798 0.26927 0.0
H1579 H 0.61778 0.1137 0.286 0.0
C1580 C 0.79457 1.01461 0.24609 0.0
C1581 C 0.80666 0.96672 0.24328 0.0
C1582 C 0.77228 0.03422 0.25582 0.0
C1583 C 0.76085 1.00637 0.26294 0.0
C1584 C 0.77303 0.95856 0.26006 0.0
C1585 C 0.79589 0.93916 0.25044 0.0
C1586 C 0.73815 0.02645 0.29097 0.0
C1587 C 0.68657 0.06533 0.29285 0.0
C1588 C 0.76265 1.00753 0.28131 0.0
C1589 C 0.73512 0.02657 0.27328 0.0
C1590 C 0.68162 0.06471 0.2752 0.0
C1591 C 0.65812 0.0839 0.28483 0.0
H1592 H 0.02808 0.66082 0.28172 0.0
H1593 H 0.07134 0.80059 0.29695 0.0
H1594 H 0.99677 0.68864 0.26669 0.0
H1595 H 0.0364 0.82902 0.28202 0.0
H1596 H 0.04447 0.8632 0.25112 0.0
H1597 H 0.07884 0.83578 0.26617 0.0
H1598 H 0.89946 0.72635 0.25869 0.0
H1599 H 0.86766 0.75301 0.24353 0.0
C1600 C 0.03033 0.69763 0.28188 0.0
C1601 C 0.05242 0.72843 0.29056 0.0
C1602 C 0.01162 0.71376 0.27325 0.0
C1603 C 0.01339 0.76135 0.27303 0.0
C1604 C 0.0354 0.79214 0.28176 0.0
C1605 C 0.05496 0.77588 0.29038 0.0
C1606 C 0.01259 0.83321 0.25269 0.0
C1607 C 0.95354 0.81023 0.24608 0.0
C1608 C 0.03182 0.81759 0.26139 0.0
C1609 C 0.99232 0.77856 0.26376 0.0
C1610 C 0.93263 0.75593 0.25713 0.0
C1611 C 0.91372 0.77146 0.24843 0.0
H1612 H 0.39128 0.85738 0.03602 0.0
H1613 H 0.22087 0.76887 0.04751 0.0
H1614 H 0.34843 0.82443 0.01936 0.0
H1615 H 0.17475 0.73694 0.0308 0.0
H1616 H 0.16632 0.65637 0.99956 0.0
H1617 H 0.20721 0.68961 1.01608 0.0
H1618 H 0.2457 0.82119 1.00745 0.0
H1619 H 0.20831 0.7865 0.9905 0.0
C1620 C 0.34441 0.83074 0.03498 0.0
C1621 C 0.30976 0.81563 0.04313 0.0
C1622 C 0.31899 0.81216 0.02538 0.0
C1623 C 0.25724 0.77814 0.02359 0.0
C1624 C 0.22332 0.76254 0.03177 0.0
C1625 C 0.24974 0.78076 0.04141 0.0
C1626 C 0.18349 0.69241 1.00108 0.0
C1627 C 0.18437 0.71845 0.99355 0.0
C1628 C 0.2063 0.7118 1.01071 0.0
C1629 C 0.23003 0.75833 1.01326 0.0
C1630 C 0.22919 0.78498 1.0058 0.0
C1631 C 0.20686 0.76526 0.99606 0.0
H1632 H 0.92603 0.53381 0.99083 0.0
H1633 H 0.16487 0.57624 1.00291 0.0
H1634 H 0.8904 0.50642 1.00585 0.0
H1635 H 0.12842 0.55113 0.01811 0.0
H1636 H 0.07384 0.46168 0.0407 0.0
H1637 H 0.10847 0.48788 0.02556 0.0
H1638 H 0.85423 0.52623 0.02246 0.0
H1639 H 0.81964 0.4983 0.03744 0.0
C1640 C 0.97072 0.53768 0.99674 0.0
C1641 C 0.04833 0.55726 0.99564 0.0
C1642 C 0.95011 0.52225 1.00543 0.0
C1643 C 0.00622 0.52631 1.01333 0.0
C1644 C 0.08371 0.54636 1.0122 0.0
C1645 C 0.10457 0.56126 1.00348 0.0
C1646 C 0.02528 0.47557 0.03676 0.0
C1647 C 0.9439 0.47776 0.0403 0.0
C1648 C 0.04524 0.49108 0.02808 0.0
C1649 C 0.9845 0.50955 0.02265 0.0
C1650 C 0.90292 0.51174 0.02625 0.0
C1651 C 0.88296 0.49602 0.03492 0.0
H1652 H 0.15845 0.62238 0.28673 0.0
H1653 H 0.26457 0.50681 0.29727 0.0
H1654 H 0.19318 0.58748 0.27008 0.0
H1655 H 0.30388 0.4723 0.28037 0.0
H1656 H 0.28766 0.40102 0.24822 0.0
H1657 H 0.25535 0.43545 0.26502 0.0
H1658 H 0.298 0.57108 0.25856 0.0
H1659 H 0.32731 0.53624 0.24142 0.0
C1660 C 0.18974 0.58943 0.28553 0.0
C1661 C 0.20829 0.56745 0.29345 0.0
C1662 C 0.21078 0.56956 0.27588 0.0
C1663 C 0.25243 0.52715 0.27375 0.0
C1664 C 0.27097 0.5048 0.28165 0.0
C1665 C 0.24868 0.52457 0.29138 0.0
C1666 C 0.29026 0.4383 0.25031 0.0
C1667 C 0.31015 0.46581 0.24335 0.0
C1668 C 0.27231 0.4581 0.26007 0.0
C1669 C 0.27421 0.50619 0.2633 0.0
C1670 C 0.29457 0.53389 0.25637 0.0
C1671 C 0.31185 0.51397 0.24652 0.0
H1672 H 0.75283 0.28256 0.98997 0.0
H1673 H 0.65038 0.16444 0.99992 0.0
H1674 H 0.78861 0.31678 1.00701 0.0
H1675 H 0.68355 0.19871 1.01673 0.0
H1676 H 0.81923 0.25149 0.04547 0.0
H1677 H 0.79108 0.21676 0.02827 0.0
H1678 H 0.73161 0.35142 0.02232 0.0
H1679 H 0.76183 0.38588 0.0392 0.0
C1680 C 0.73723 0.26412 0.99576 0.0
C1681 C 0.69901 0.22067 0.9935 0.0
C1682 C 0.7576 0.28369 1.00555 0.0
C1683 C 0.73959 0.26042 1.01332 0.0
C1684 C 0.70035 0.21732 1.01101 0.0
C1685 C 0.68062 0.19778 1.00129 0.0
C1686 C 0.79995 0.27356 0.04049 0.0
C1687 C 0.79289 0.32148 0.0438 0.0
C1688 C 0.78356 0.25371 0.03061 0.0
C1689 C 0.75927 0.28126 0.02381 0.0
C1690 C 0.7517 0.32905 0.0272 0.0
C1691 C 0.76836 0.34879 0.03699 0.0
H1692 H 0.68985 0.63419 0.78723 0.0
H1693 H 0.72873 0.50255 0.79582 0.0
H1694 H 0.72573 0.60095 0.77051 0.0
H1695 H 0.76359 0.46854 0.77872 0.0
H1696 H 0.90974 0.43748 0.7499 0.0
H1697 H 0.86996 0.46956 0.76673 0.0
H1698 H 0.68215 0.55095 0.75596 0.0
H1699 H 0.72354 0.5189 0.73903 0.0
C1700 C 0.70555 0.59787 0.78558 0.0
C1701 C 0.70651 0.57117 0.793 0.0
C1702 C 0.7256 0.57866 0.77587 0.0
C1703 C 0.74753 0.53198 0.77317 0.0
C1704 C 0.74789 0.50484 0.78054 0.0
C1705 C 0.72743 0.5242 0.79034 0.0
C1706 C 0.86006 0.46225 0.75112 0.0
C1707 C 0.81975 0.47543 0.7431 0.0
C1708 C 0.83671 0.48045 0.7608 0.0
C1709 C 0.77202 0.51248 0.76278 0.0
C1710 C 0.73278 0.52663 0.75475 0.0
C1711 C 0.75663 0.50847 0.74503 0.0
H1712 H 0.67956 0.05481 1.00063 0.0
H1713 H 0.42153 0.0591 0.99343 0.0
H1714 H 0.64458 0.02759 1.01569 0.0
H1715 H 0.38596 0.03323 1.0086 0.0
H1716 H 0.35095 0.94379 0.03183 0.0
H1717 H 0.38661 0.96952 1.01664 0.0
H1718 H 0.58773 0.04986 0.03161 0.0
H1719 H 0.55327 0.02284 0.04669 0.0
C1720 C 0.61528 0.04999 1.00228 0.0
C1721 C 0.55342 0.05902 0.99581 0.0
C1722 C 0.595 0.03472 1.01097 0.0
C1723 C 0.51217 0.02809 1.01346 0.0
C1724 C 0.45043 0.03715 1.00693 0.0
C1725 C 0.47078 0.05235 0.99824 0.0
C1726 C 0.40264 0.96705 0.03187 0.0
C1727 C 0.44911 0.98132 0.04049 0.0
C1728 C 0.423 0.98207 0.02315 0.0
C1729 C 0.49027 1.01198 0.0228 0.0
C1730 C 0.53638 0.02635 0.03148 0.0
C1731 C 0.51621 1.01114 0.04018 0.0
H1732 H 0.66659 0.2023 0.28263 0.0
H1733 H 0.43956 0.25923 0.2959 0.0
H1734 H 0.63081 0.22829 0.26747 0.0
H1735 H 0.40451 0.28668 0.28088 0.0
H1736 H 0.32605 0.29242 0.24942 0.0
H1737 H 0.3611 0.26514 0.26445 0.0
H1738 H 0.6182 0.29279 0.2599 0.0
H1739 H 0.58283 0.31863 0.24471 0.0
C1740 C 0.60918 0.2207 0.28233 0.0
C1741 C 0.55604 0.22869 0.2905 0.0
C1742 C 0.58872 0.23596 0.27363 0.0
C1743 C 0.51458 0.25994 0.27284 0.0
C1744 C 0.46151 0.26784 0.28106 0.0
C1745 C 0.48184 0.25234 0.28974 0.0
C1746 C 0.3901 0.29256 0.25162 0.0
C1747 C 0.45159 0.30762 0.24582 0.0
C1748 C 0.41034 0.27719 0.26032 0.0
C1749 C 0.4928 0.27654 0.26351 0.0
C1750 C 0.55418 0.29189 0.25768 0.0
C1751 C 0.53388 0.30713 0.24897 0.0
H1752 H 0.58053 0.80412 0.79701 0.0
H1753 H 0.53326 0.66469 0.78184 0.0
H1754 H 0.54475 0.83286 0.78214 0.0
H1755 H 0.5002 0.69288 0.76689 0.0
H1756 H 0.36716 0.75892 0.74422 0.0
H1757 H 0.40096 0.73204 0.7593 0.0
H1758 H 0.58618 0.83866 0.76607 0.0
H1759 H 0.55011 0.86627 0.75109 0.0
C1760 C 0.56299 0.77956 0.79047 0.0
C1761 C 0.55945 0.73212 0.79065 0.0
C1762 C 0.54289 0.79599 0.78189 0.0
C1763 C 0.51909 0.7654 0.77321 0.0
C1764 C 0.51646 0.71783 0.77341 0.0
C1765 C 0.53604 0.7015 0.782 0.0
C1766 C 0.41496 0.77671 0.74894 0.0
C1767 C 0.45597 0.81474 0.74641 0.0
C1768 C 0.43497 0.76104 0.7576 0.0
C1769 C 0.49691 0.78281 0.764 0.0
C1770 C 0.53752 0.82115 0.76146 0.0
C1771 C 0.51727 0.83688 0.7528 0.0
H1772 H 0.32745 0.46883 0.53405 0.0
H1773 H 0.57358 0.50177 0.54489 0.0
H1774 H 0.3617 0.49523 0.51887 0.0
H1775 H 0.60753 0.52945 0.52989 0.0
H1776 H 0.67114 0.53321 0.49797 0.0
H1777 H 0.63556 0.50622 0.513 0.0
H1778 H 0.38921 0.56017 0.51167 0.0
H1779 H 0.42468 0.58587 0.49644 0.0
C1780 C 0.38873 0.48211 0.53323 0.0
C1781 C 0.44768 0.48321 0.54071 0.0
C1782 C 0.40842 0.49754 0.52452 0.0
C1783 C 0.48766 0.51468 0.52304 0.0
C1784 C 0.54632 0.51591 0.5306 0.0
C1785 C 0.52668 0.50031 0.53928 0.0
C1786 C 0.60932 0.53926 0.50088 0.0
C1787 C 0.5508 0.5617 0.49597 0.0
C1788 C 0.5889 0.52404 0.50958 0.0
C1789 C 0.50927 0.53092 0.51368 0.0
C1790 C 0.45078 0.5535 0.50873 0.0
C1791 C 0.47125 0.56862 0.50001 0.0
loop_
_geom_bond_atom_site_label_1
_geom_bond_atom_site_label_2
_geom_bond_distance
_geom_bond_site_symmetry_2
_ccdc_geom_bond_type
Co0 H3 2.400 . S
Co0 O4 2.009 . S
Co0 O12 2.115 . S
Co0 O13 2.315 . S
Co0 O24 2.053 . S
Co0 O27 2.094 . S
Co0 O30 2.122 . S
Co1 O4 2.126 . S
Co1 H5 2.388 . S
Co1 O6 2.053 . S
Co1 O9 2.047 . S
Co1 O15 2.113 . S
Co1 O26 2.063 . S
Co2 H3 2.388 . S
Co2 O4 2.053 . S
Co2 O6 2.126 . S
Co2 O11 2.063 . S
Co2 O25 2.047 . S
Co2 O31 2.113 . S
H3 Co0 2.400 . S
H3 Co2 2.388 . S
H3 O4 0.760 . S
O4 Co0 2.009 . S
O4 Co1 2.126 . S
O4 Co2 2.053 . S
O4 H3 0.760 . S
H5 Co1 2.388 . S
H5 O6 0.760 . S
H5 Co7 2.400 . S
O6 Co1 2.053 . S
O6 Co2 2.126 . S
O6 H5 0.760 . S
O6 Co7 2.009 . S
Co7 H5 2.400 . S
Co7 O6 2.009 . S
Co7 O8 2.053 . S
Co7 O10 2.094 . S
Co7 O14 2.122 . S
Co7 O28 2.115 . S
Co7 O29 2.315 . S
O8 Co7 2.053 . S
O8 C20 1.259 . S
O9 Co1 2.047 . S
O9 C20 1.257 . S
O10 Co7 2.094 . S
O10 C21 1.253 . S
O11 Co2 2.063 . S
O11 C21 1.268 . S
O12 Co0 2.115 . S
O12 C22 1.281 . S
O13 Co0 2.315 . S
O13 C22 1.252 . S
O14 Co7 2.122 . S
O14 C23 1.272 . S
O15 Co1 2.113 . S
O15 C23 1.245 . S
C16 O24 1.259 . S
C16 O25 1.257 . S
C17 O26 1.268 . S
C17 O27 1.253 . S
C18 O28 1.281 . S
C18 O29 1.252 . S
C19 O30 1.272 . S
C19 O31 1.245 . S
C20 O8 1.259 . S
C20 O9 1.257 . S
C21 O10 1.253 . S
C21 O11 1.268 . S
C22 O12 1.281 . S
C22 O13 1.252 . S
C23 O14 1.272 . S
C23 O15 1.245 . S
O24 Co0 2.053 . S
O24 C16 1.259 . S
O25 Co2 2.047 . S
O25 C16 1.257 . S
O26 Co1 2.063 . S
O26 C17 1.268 . S
O27 Co0 2.094 . S
O27 C17 1.253 . S
O28 Co7 2.115 . S
O28 C18 1.281 . S
O29 Co7 2.315 . S
O29 C18 1.252 . S
O30 Co0 2.122 . S
O30 C19 1.272 . S
O31 Co2 2.113 . S
O31 C19 1.245 . S
Co32 H35 2.400 . S
Co32 O36 2.009 . S
Co32 O44 2.115 . S
Co32 O45 2.315 . S
Co32 O56 2.053 . S
Co32 O59 2.094 . S
Co32 O62 2.122 . S
Co33 O36 2.126 . S
Co33 H37 2.388 . S
Co33 O38 2.053 . S
Co33 O41 2.047 . S
Co33 O47 2.113 . S
Co33 O58 2.063 . S
Co34 H35 2.388 . S
Co34 O36 2.053 . S
Co34 O38 2.126 . S
Co34 O43 2.063 . S
Co34 O57 2.047 . S
Co34 O63 2.113 . S
H35 Co32 2.400 . S
H35 Co34 2.388 . S
H35 O36 0.760 . S
O36 Co32 2.009 . S
O36 Co33 2.126 . S
O36 Co34 2.053 . S
O36 H35 0.760 . S
H37 Co33 2.388 . S
H37 O38 0.760 . S
H37 Co39 2.400 . S
O38 Co33 2.053 . S
O38 Co34 2.126 . S
O38 H37 0.760 . S
O38 Co39 2.009 . S
Co39 H37 2.400 . S
Co39 O38 2.009 . S
Co39 O40 2.053 . S
Co39 O42 2.094 . S
Co39 O46 2.122 . S
Co39 O60 2.115 . S
Co39 O61 2.315 . S
O40 Co39 2.053 . S
O40 C52 1.259 . S
O41 Co33 2.047 . S
O41 C52 1.257 . S
O42 Co39 2.094 . S
O42 C53 1.253 . S
O43 Co34 2.063 . S
O43 C53 1.268 . S
O44 Co32 2.115 . S
O44 C54 1.281 . S
O45 Co32 2.315 . S
O45 C54 1.252 . S
O46 Co39 2.122 . S
O46 C55 1.272 . S
O47 Co33 2.113 . S
O47 C55 1.245 . S
C48 O56 1.259 . S
C48 O57 1.257 . S
C49 O58 1.268 . S
C49 O59 1.253 . S
C50 O60 1.281 . S
C50 O61 1.252 . S
C51 O62 1.272 . S
C51 O63 1.245 . S
C52 O40 1.259 . S
C52 O41 1.257 . S
C53 O42 1.253 . S
C53 O43 1.268 . S
C54 O44 1.281 . S
C54 O45 1.252 . S
C55 O46 1.272 . S
C55 O47 1.245 . S
O56 Co32 2.053 . S
O56 C48 1.259 . S
O57 Co34 2.047 . S
O57 C48 1.257 . S
O58 Co33 2.063 . S
O58 C49 1.268 . S
O59 Co32 2.094 . S
O59 C49 1.253 . S
O60 Co39 2.115 . S
O60 C50 1.281 . S
O61 Co39 2.315 . S
O61 C50 1.252 . S
O62 Co32 2.122 . S
O62 C51 1.272 . S
O63 Co34 2.113 . S
O63 C51 1.245 . S
Co64 H67 2.400 . S
Co64 O68 2.009 . S
Co64 O76 2.115 . S
Co64 O77 2.315 . S
Co64 O88 2.053 . S
Co64 O91 2.094 . S
Co64 O94 2.122 . S
Co65 O68 2.126 . S
Co65 H69 2.388 . S
Co65 O70 2.053 . S
Co65 O73 2.047 . S
Co65 O79 2.113 . S
Co65 O90 2.063 . S
Co66 H67 2.388 . S
Co66 O68 2.053 . S
Co66 O70 2.126 . S
Co66 O75 2.063 . S
Co66 O89 2.047 . S
Co66 O95 2.113 . S
H67 Co64 2.400 . S
H67 Co66 2.388 . S
H67 O68 0.760 . S
O68 Co64 2.009 . S
O68 Co65 2.126 . S
O68 Co66 2.053 . S
O68 H67 0.760 . S
H69 Co65 2.388 . S
H69 O70 0.760 . S
H69 Co71 2.400 . S
O70 Co65 2.053 . S
O70 Co66 2.126 . S
O70 H69 0.760 . S
O70 Co71 2.009 . S
Co71 H69 2.400 . S
Co71 O70 2.009 . S
Co71 O72 2.053 . S
Co71 O74 2.094 . S
Co71 O78 2.122 . S
Co71 O92 2.115 . S
Co71 O93 2.315 . S
O72 Co71 2.053 . S
O72 C84 1.259 . S
O73 Co65 2.047 . S
O73 C84 1.257 . S
O74 Co71 2.094 . S
O74 C85 1.253 . S
O75 Co66 2.063 . S
O75 C85 1.268 . S
O76 Co64 2.115 . S
O76 C86 1.281 . S
O77 Co64 2.315 . S
O77 C86 1.252 . S
O78 Co71 2.122 . S
O78 C87 1.272 . S
O79 Co65 2.113 . S
O79 C87 1.245 . S
C80 O88 1.259 . S
C80 O89 1.257 . S
C81 O90 1.268 . S
C81 O91 1.253 . S
C82 O92 1.281 . S
C82 O93 1.252 . S
C83 O94 1.272 . S
C83 O95 1.245 . S
C84 O72 1.259 . S
C84 O73 1.257 . S
C85 O74 1.253 . S
C85 O75 1.268 . S
C86 O76 1.281 . S
C86 O77 1.252 . S
C87 O78 1.272 . S
C87 O79 1.245 . S
O88 Co64 2.053 . S
O88 C80 1.259 . S
O89 Co66 2.047 . S
O89 C80 1.257 . S
O90 Co65 2.063 . S
O90 C81 1.268 . S
O91 Co64 2.094 . S
O91 C81 1.253 . S
O92 Co71 2.115 . S
O92 C82 1.281 . S
O93 Co71 2.315 . S
O93 C82 1.252 . S
O94 Co64 2.122 . S
O94 C83 1.272 . S
O95 Co66 2.113 . S
O95 C83 1.245 . S
Co96 H99 2.400 . S
Co96 O100 2.009 . S
Co96 O108 2.115 . S
Co96 O109 2.315 . S
Co96 O120 2.053 . S
Co96 O123 2.094 . S
Co96 O126 2.122 . S
Co97 O100 2.126 . S
Co97 H101 2.388 . S
Co97 O102 2.053 . S
Co97 O105 2.047 . S
Co97 O111 2.113 . S
Co97 O122 2.063 . S
Co98 H99 2.388 . S
Co98 O100 2.053 . S
Co98 O102 2.126 . S
Co98 O107 2.063 . S
Co98 O121 2.047 . S
Co98 O127 2.113 . S
H99 Co96 2.400 . S
H99 Co98 2.388 . S
H99 O100 0.760 . S
O100 Co96 2.009 . S
O100 Co97 2.126 . S
O100 Co98 2.053 . S
O100 H99 0.760 . S
H101 Co97 2.388 . S
H101 O102 0.760 . S
H101 Co103 2.400 . S
O102 Co97 2.053 . S
O102 Co98 2.126 . S
O102 H101 0.760 . S
O102 Co103 2.009 . S
Co103 H101 2.400 . S
Co103 O102 2.009 . S
Co103 O104 2.053 . S
Co103 O106 2.094 . S
Co103 O110 2.122 . S
Co103 O124 2.115 . S
Co103 O125 2.315 . S
O104 Co103 2.053 . S
O104 C116 1.259 . S
O105 Co97 2.047 . S
O105 C116 1.257 . S
O106 Co103 2.094 . S
O106 C117 1.253 . S
O107 Co98 2.063 . S
O107 C117 1.268 . S
O108 Co96 2.115 . S
O108 C118 1.281 . S
O109 Co96 2.315 . S
O109 C118 1.252 . S
O110 Co103 2.122 . S
O110 C119 1.272 . S
O111 Co97 2.113 . S
O111 C119 1.245 . S
C112 O120 1.259 . S
C112 O121 1.257 . S
C113 O122 1.268 . S
C113 O123 1.253 . S
C114 O124 1.281 . S
C114 O125 1.252 . S
C115 O126 1.272 . S
C115 O127 1.245 . S
C116 O104 1.259 . S
C116 O105 1.257 . S
C117 O106 1.253 . S
C117 O107 1.268 . S
C118 O108 1.281 . S
C118 O109 1.252 . S
C119 O110 1.272 . S
C119 O111 1.245 . S
O120 Co96 2.053 . S
O120 C112 1.259 . S
O121 Co98 2.047 . S
O121 C112 1.257 . S
O122 Co97 2.063 . S
O122 C113 1.268 . S
O123 Co96 2.094 . S
O123 C113 1.253 . S
O124 Co103 2.115 . S
O124 C114 1.281 . S
O125 Co103 2.315 . S
O125 C114 1.252 . S
O126 Co96 2.122 . S
O126 C115 1.272 . S
O127 Co98 2.113 . S
O127 C115 1.245 . S
Co128 H131 2.400 . S
Co128 O132 2.009 . S
Co128 O140 2.115 . S
Co128 O141 2.315 . S
Co128 O152 2.053 . S
Co128 O155 2.094 . S
Co128 O158 2.122 . S
Co129 O132 2.126 . S
Co129 H133 2.388 . S
Co129 O134 2.053 . S
Co129 O137 2.047 . S
Co129 O143 2.113 . S
Co129 O154 2.063 . S
Co130 H131 2.388 . S
Co130 O132 2.053 . S
Co130 O134 2.126 . S
Co130 O139 2.063 . S
Co130 O153 2.047 . S
Co130 O159 2.113 . S
H131 Co128 2.400 . S
H131 Co130 2.388 . S
H131 O132 0.760 . S
O132 Co128 2.009 . S
O132 Co129 2.126 . S
O132 Co130 2.053 . S
O132 H131 0.760 . S
H133 Co129 2.388 . S
H133 O134 0.760 . S
H133 Co135 2.400 . S
O134 Co129 2.053 . S
O134 Co130 2.126 . S
O134 H133 0.760 . S
O134 Co135 2.009 . S
Co135 H133 2.400 . S
Co135 O134 2.009 . S
Co135 O136 2.053 . S
Co135 O138 2.094 . S
Co135 O142 2.122 . S
Co135 O156 2.115 . S
Co135 O157 2.315 . S
O136 Co135 2.053 . S
O136 C148 1.259 . S
O137 Co129 2.047 . S
O137 C148 1.257 . S
O138 Co135 2.094 . S
O138 C149 1.253 . S
O139 Co130 2.063 . S
O139 C149 1.268 . S
O140 Co128 2.115 . S
O140 C150 1.281 . S
O141 Co128 2.315 . S
O141 C150 1.252 . S
O142 Co135 2.122 . S
O142 C151 1.272 . S
O143 Co129 2.113 . S
O143 C151 1.245 . S
C144 O152 1.259 . S
C144 O153 1.257 . S
C145 O154 1.268 . S
C145 O155 1.253 . S
C146 O156 1.281 . S
C146 O157 1.252 . S
C147 O158 1.272 . S
C147 O159 1.245 . S
C148 O136 1.259 . S
C148 O137 1.257 . S
C149 O138 1.253 . S
C149 O139 1.268 . S
C150 O140 1.281 . S
C150 O141 1.252 . S
C151 O142 1.272 . S
C151 O143 1.245 . S
O152 Co128 2.053 . S
O152 C144 1.259 . S
O153 Co130 2.047 . S
O153 C144 1.257 . S
O154 Co129 2.063 . S
O154 C145 1.268 . S
O155 Co128 2.094 . S
O155 C145 1.253 . S
O156 Co135 2.115 . S
O156 C146 1.281 . S
O157 Co135 2.315 . S
O157 C146 1.252 . S
O158 Co128 2.122 . S
O158 C147 1.272 . S
O159 Co130 2.113 . S
O159 C147 1.245 . S
Co160 H163 2.400 . S
Co160 O164 2.009 . S
Co160 O172 2.115 . S
Co160 O173 2.315 . S
Co160 O184 2.053 . S
Co160 O187 2.094 . S
Co160 O190 2.122 . S
Co161 O164 2.126 . S
Co161 H165 2.388 . S
Co161 O166 2.053 . S
Co161 O169 2.047 . S
Co161 O175 2.113 . S
Co161 O186 2.063 . S
Co162 H163 2.388 . S
Co162 O164 2.053 . S
Co162 O166 2.126 . S
Co162 O171 2.063 . S
Co162 O185 2.047 . S
Co162 O191 2.113 . S
H163 Co160 2.400 . S
H163 Co162 2.388 . S
H163 O164 0.760 . S
O164 Co160 2.009 . S
O164 Co161 2.126 . S
O164 Co162 2.053 . S
O164 H163 0.760 . S
H165 Co161 2.388 . S
H165 O166 0.760 . S
H165 Co167 2.400 . S
O166 Co161 2.053 . S
O166 Co162 2.126 . S
O166 H165 0.760 . S
O166 Co167 2.009 . S
Co167 H165 2.400 . S
Co167 O166 2.009 . S
Co167 O168 2.053 . S
Co167 O170 2.094 . S
Co167 O174 2.122 . S
Co167 O188 2.115 . S
Co167 O189 2.315 . S
O168 Co167 2.053 . S
O168 C180 1.259 . S
O169 Co161 2.047 . S
O169 C180 1.257 . S
O170 Co167 2.094 . S
O170 C181 1.253 . S
O171 Co162 2.063 . S
O171 C181 1.268 . S
O172 Co160 2.115 . S
O172 C182 1.281 . S
O173 Co160 2.315 . S
O173 C182 1.252 . S
O174 Co167 2.122 . S
O174 C183 1.272 . S
O175 Co161 2.113 . S
O175 C183 1.245 . S
C176 O184 1.259 . S
C176 O185 1.257 . S
C177 O186 1.268 . S
C177 O187 1.253 . S
C178 O188 1.281 . S
C178 O189 1.252 . S
C179 O190 1.272 . S
C179 O191 1.245 . S
C180 O168 1.259 . S
C180 O169 1.257 . S
C181 O170 1.253 . S
C181 O171 1.268 . S
C182 O172 1.281 . S
C182 O173 1.252 . S
C183 O174 1.272 . S
C183 O175 1.245 . S
O184 Co160 2.053 . S
O184 C176 1.259 . S
O185 Co162 2.047 . S
O185 C176 1.257 . S
O186 Co161 2.063 . S
O186 C177 1.268 . S
O187 Co160 2.094 . S
O187 C177 1.253 . S
O188 Co167 2.115 . S
O188 C178 1.281 . S
O189 Co167 2.315 . S
O189 C178 1.252 . S
O190 Co160 2.122 . S
O190 C179 1.272 . S
O191 Co162 2.113 . S
O191 C179 1.245 . S
Co192 H195 2.400 . S
Co192 O196 2.009 . S
Co192 O204 2.115 . S
Co192 O205 2.315 . S
Co192 O216 2.053 . S
Co192 O219 2.094 . S
Co192 O222 2.122 . S
Co193 O196 2.126 . S
Co193 H197 2.388 . S
Co193 O198 2.053 . S
Co193 O201 2.047 . S
Co193 O207 2.113 . S
Co193 O218 2.063 . S
Co194 H195 2.388 . S
Co194 O196 2.053 . S
Co194 O198 2.126 . S
Co194 O203 2.063 . S
Co194 O217 2.047 . S
Co194 O223 2.113 . S
H195 Co192 2.400 . S
H195 Co194 2.388 . S
H195 O196 0.760 . S
O196 Co192 2.009 . S
O196 Co193 2.126 . S
O196 Co194 2.053 . S
O196 H195 0.760 . S
H197 Co193 2.388 . S
H197 O198 0.760 . S
H197 Co199 2.400 . S
O198 Co193 2.053 . S
O198 Co194 2.126 . S
O198 H197 0.760 . S
O198 Co199 2.009 . S
Co199 H197 2.400 . S
Co199 O198 2.009 . S
Co199 O200 2.053 . S
Co199 O202 2.094 . S
Co199 O206 2.122 . S
Co199 O220 2.115 . S
Co199 O221 2.315 . S
O200 Co199 2.053 . S
O200 C212 1.259 . S
O201 Co193 2.047 . S
O201 C212 1.257 . S
O202 Co199 2.094 . S
O202 C213 1.253 . S
O203 Co194 2.063 . S
O203 C213 1.268 . S
O204 Co192 2.115 . S
O204 C214 1.281 . S
O205 Co192 2.315 . S
O205 C214 1.252 . S
O206 Co199 2.122 . S
O206 C215 1.272 . S
O207 Co193 2.113 . S
O207 C215 1.245 . S
C208 O216 1.259 . S
C208 O217 1.257 . S
C209 O218 1.268 . S
C209 O219 1.253 . S
C210 O220 1.281 . S
C210 O221 1.252 . S
C211 O222 1.272 . S
C211 O223 1.245 . S
C212 O200 1.259 . S
C212 O201 1.257 . S
C213 O202 1.253 . S
C213 O203 1.268 . S
C214 O204 1.281 . S
C214 O205 1.252 . S
C215 O206 1.272 . S
C215 O207 1.245 . S
O216 Co192 2.053 . S
O216 C208 1.259 . S
O217 Co194 2.047 . S
O217 C208 1.257 . S
O218 Co193 2.063 . S
O218 C209 1.268 . S
O219 Co192 2.094 . S
O219 C209 1.253 . S
O220 Co199 2.115 . S
O220 C210 1.281 . S
O221 Co199 2.315 . S
O221 C210 1.252 . S
O222 Co192 2.122 . S
O222 C211 1.272 . S
O223 Co194 2.113 . S
O223 C211 1.245 . S
Co224 H227 2.400 . S
Co224 O228 2.009 . S
Co224 O236 2.115 . S
Co224 O237 2.315 . S
Co224 O248 2.053 . S
Co224 O251 2.094 . S
Co224 O254 2.122 . S
Co225 O228 2.126 . S
Co225 H229 2.388 . S
Co225 O230 2.053 . S
Co225 O233 2.047 . S
Co225 O239 2.113 . S
Co225 O250 2.063 . S
Co226 H227 2.388 . S
Co226 O228 2.053 . S
Co226 O230 2.126 . S
Co226 O235 2.063 . S
Co226 O249 2.047 . S
Co226 O255 2.113 . S
H227 Co224 2.400 . S
H227 Co226 2.388 . S
H227 O228 0.760 . S
O228 Co224 2.009 . S
O228 Co225 2.126 . S
O228 Co226 2.053 . S
O228 H227 0.760 . S
H229 Co225 2.388 . S
H229 O230 0.760 . S
H229 Co231 2.400 . S
O230 Co225 2.053 . S
O230 Co226 2.126 . S
O230 H229 0.760 . S
O230 Co231 2.009 . S
Co231 H229 2.400 . S
Co231 O230 2.009 . S
Co231 O232 2.053 . S
Co231 O234 2.094 . S
Co231 O238 2.122 . S
Co231 O252 2.115 . S
Co231 O253 2.315 . S
O232 Co231 2.053 . S
O232 C244 1.259 . S
O233 Co225 2.047 . S
O233 C244 1.257 . S
O234 Co231 2.094 . S
O234 C245 1.253 . S
O235 Co226 2.063 . S
O235 C245 1.268 . S
O236 Co224 2.115 . S
O236 C246 1.281 . S
O237 Co224 2.315 . S
O237 C246 1.252 . S
O238 Co231 2.122 . S
O238 C247 1.272 . S
O239 Co225 2.113 . S
O239 C247 1.245 . S
C240 O248 1.259 . S
C240 O249 1.257 . S
C241 O250 1.268 . S
C241 O251 1.253 . S
C242 O252 1.281 . S
C242 O253 1.252 . S
C243 O254 1.272 . S
C243 O255 1.245 . S
C244 O232 1.259 . S
C244 O233 1.257 . S
C245 O234 1.253 . S
C245 O235 1.268 . S
C246 O236 1.281 . S
C246 O237 1.252 . S
C247 O238 1.272 . S
C247 O239 1.245 . S
O248 Co224 2.053 . S
O248 C240 1.259 . S
O249 Co226 2.047 . S
O249 C240 1.257 . S
O250 Co225 2.063 . S
O250 C241 1.268 . S
O251 Co224 2.094 . S
O251 C241 1.253 . S
O252 Co231 2.115 . S
O252 C242 1.281 . S
O253 Co231 2.315 . S
O253 C242 1.252 . S
O254 Co224 2.122 . S
O254 C243 1.272 . S
O255 Co226 2.113 . S
O255 C243 1.245 . S
Co256 H259 2.400 . S
Co256 O260 2.009 . S
Co256 O268 2.115 . S
Co256 O269 2.315 . S
Co256 O280 2.053 . S
Co256 O283 2.094 . S
Co256 O286 2.122 . S
Co257 O260 2.126 . S
Co257 H261 2.388 . S
Co257 O262 2.053 . S
Co257 O265 2.047 . S
Co257 O271 2.113 . S
Co257 O282 2.063 . S
Co258 H259 2.388 . S
Co258 O260 2.053 . S
Co258 O262 2.126 . S
Co258 O267 2.063 . S
Co258 O281 2.047 . S
Co258 O287 2.113 . S
H259 Co256 2.400 . S
H259 Co258 2.388 . S
H259 O260 0.760 . S
O260 Co256 2.009 . S
O260 Co257 2.126 . S
O260 Co258 2.053 . S
O260 H259 0.760 . S
H261 Co257 2.388 . S
H261 O262 0.760 . S
H261 Co263 2.400 . S
O262 Co257 2.053 . S
O262 Co258 2.126 . S
O262 H261 0.760 . S
O262 Co263 2.009 . S
Co263 H261 2.400 . S
Co263 O262 2.009 . S
Co263 O264 2.053 . S
Co263 O266 2.094 . S
Co263 O270 2.122 . S
Co263 O284 2.115 . S
Co263 O285 2.315 . S
O264 Co263 2.053 . S
O264 C276 1.259 . S
O265 Co257 2.047 . S
O265 C276 1.257 . S
O266 Co263 2.094 . S
O266 C277 1.253 . S
O267 Co258 2.063 . S
O267 C277 1.268 . S
O268 Co256 2.115 . S
O268 C278 1.281 . S
O269 Co256 2.315 . S
O269 C278 1.252 . S
O270 Co263 2.122 . S
O270 C279 1.272 . S
O271 Co257 2.113 . S
O271 C279 1.245 . S
C272 O280 1.259 . S
C272 O281 1.257 . S
C273 O282 1.268 . S
C273 O283 1.253 . S
C274 O284 1.281 . S
C274 O285 1.252 . S
C275 O286 1.272 . S
C275 O287 1.245 . S
C276 O264 1.259 . S
C276 O265 1.257 . S
C277 O266 1.253 . S
C277 O267 1.268 . S
C278 O268 1.281 . S
C278 O269 1.252 . S
C279 O270 1.272 . S
C279 O271 1.245 . S
O280 Co256 2.053 . S
O280 C272 1.259 . S
O281 Co258 2.047 . S
O281 C272 1.257 . S
O282 Co257 2.063 . S
O282 C273 1.268 . S
O283 Co256 2.094 . S
O283 C273 1.253 . S
O284 Co263 2.115 . S
O284 C274 1.281 . S
O285 Co263 2.315 . S
O285 C274 1.252 . S
O286 Co256 2.122 . S
O286 C275 1.272 . S
O287 Co258 2.113 . S
O287 C275 1.245 . S
Co288 H291 2.400 . S
Co288 O292 2.009 . S
Co288 O300 2.115 . S
Co288 O301 2.315 . S
Co288 O312 2.053 . S
Co288 O315 2.094 . S
Co288 O318 2.122 . S
Co289 O292 2.126 . S
Co289 H293 2.388 . S
Co289 O294 2.053 . S
Co289 O297 2.047 . S
Co289 O303 2.113 . S
Co289 O314 2.063 . S
Co290 H291 2.388 . S
Co290 O292 2.053 . S
Co290 O294 2.126 . S
Co290 O299 2.063 . S
Co290 O313 2.047 . S
Co290 O319 2.113 . S
H291 Co288 2.400 . S
H291 Co290 2.388 . S
H291 O292 0.760 . S
O292 Co288 2.009 . S
O292 Co289 2.126 . S
O292 Co290 2.053 . S
O292 H291 0.760 . S
H293 Co289 2.388 . S
H293 O294 0.760 . S
H293 Co295 2.400 . S
O294 Co289 2.053 . S
O294 Co290 2.126 . S
O294 H293 0.760 . S
O294 Co295 2.009 . S
Co295 H293 2.400 . S
Co295 O294 2.009 . S
Co295 O296 2.053 . S
Co295 O298 2.094 . S
Co295 O302 2.122 . S
Co295 O316 2.115 . S
Co295 O317 2.315 . S
O296 Co295 2.053 . S
O296 C308 1.259 . S
O297 Co289 2.047 . S
O297 C308 1.257 . S
O298 Co295 2.094 . S
O298 C309 1.253 . S
O299 Co290 2.063 . S
O299 C309 1.268 . S
O300 Co288 2.115 . S
O300 C310 1.281 . S
O301 Co288 2.315 . S
O301 C310 1.252 . S
O302 Co295 2.122 . S
O302 C311 1.272 . S
O303 Co289 2.113 . S
O303 C311 1.245 . S
C304 O312 1.259 . S
C304 O313 1.257 . S
C305 O314 1.268 . S
C305 O315 1.253 . S
C306 O316 1.281 . S
C306 O317 1.252 . S
C307 O318 1.272 . S
C307 O319 1.245 . S
C308 O296 1.259 . S
C308 O297 1.257 . S
C309 O298 1.253 . S
C309 O299 1.268 . S
C310 O300 1.281 . S
C310 O301 1.252 . S
C311 O302 1.272 . S
C311 O303 1.245 . S
O312 Co288 2.053 . S
O312 C304 1.259 . S
O313 Co290 2.047 . S
O313 C304 1.257 . S
O314 Co289 2.063 . S
O314 C305 1.268 . S
O315 Co288 2.094 . S
O315 C305 1.253 . S
O316 Co295 2.115 . S
O316 C306 1.281 . S
O317 Co295 2.315 . S
O317 C306 1.252 . S
O318 Co288 2.122 . S
O318 C307 1.272 . S
O319 Co290 2.113 . S
O319 C307 1.245 . S
Co320 H323 2.400 . S
Co320 O324 2.009 . S
Co320 O332 2.115 . S
Co320 O333 2.315 . S
Co320 O344 2.053 . S
Co320 O347 2.094 . S
Co320 O350 2.122 . S
Co321 O324 2.126 . S
Co321 H325 2.388 . S
Co321 O326 2.053 . S
Co321 O329 2.047 . S
Co321 O335 2.113 . S
Co321 O346 2.063 . S
Co322 H323 2.388 . S
Co322 O324 2.053 . S
Co322 O326 2.126 . S
Co322 O331 2.063 . S
Co322 O345 2.047 . S
Co322 O351 2.113 . S
H323 Co320 2.400 . S
H323 Co322 2.388 . S
H323 O324 0.760 . S
O324 Co320 2.009 . S
O324 Co321 2.126 . S
O324 Co322 2.053 . S
O324 H323 0.760 . S
H325 Co321 2.388 . S
H325 O326 0.760 . S
H325 Co327 2.400 . S
O326 Co321 2.053 . S
O326 Co322 2.126 . S
O326 H325 0.760 . S
O326 Co327 2.009 . S
Co327 H325 2.400 . S
Co327 O326 2.009 . S
Co327 O328 2.053 . S
Co327 O330 2.094 . S
Co327 O334 2.122 . S
Co327 O348 2.115 . S
Co327 O349 2.315 . S
O328 Co327 2.053 . S
O328 C340 1.259 . S
O329 Co321 2.047 . S
O329 C340 1.257 . S
O330 Co327 2.094 . S
O330 C341 1.253 . S
O331 Co322 2.063 . S
O331 C341 1.268 . S
O332 Co320 2.115 . S
O332 C342 1.281 . S
O333 Co320 2.315 . S
O333 C342 1.252 . S
O334 Co327 2.122 . S
O334 C343 1.272 . S
O335 Co321 2.113 . S
O335 C343 1.245 . S
C336 O344 1.259 . S
C336 O345 1.257 . S
C337 O346 1.268 . S
C337 O347 1.253 . S
C338 O348 1.281 . S
C338 O349 1.252 . S
C339 O350 1.272 . S
C339 O351 1.245 . S
C340 O328 1.259 . S
C340 O329 1.257 . S
C341 O330 1.253 . S
C341 O331 1.268 . S
C342 O332 1.281 . S
C342 O333 1.252 . S
C343 O334 1.272 . S
C343 O335 1.245 . S
O344 Co320 2.053 . S
O344 C336 1.259 . S
O345 Co322 2.047 . S
O345 C336 1.257 . S
O346 Co321 2.063 . S
O346 C337 1.268 . S
O347 Co320 2.094 . S
O347 C337 1.253 . S
O348 Co327 2.115 . S
O348 C338 1.281 . S
O349 Co327 2.315 . S
O349 C338 1.252 . S
O350 Co320 2.122 . S
O350 C339 1.272 . S
O351 Co322 2.113 . S
O351 C339 1.245 . S
Co352 H355 2.400 . S
Co352 O356 2.009 . S
Co352 O364 2.115 . S
Co352 O365 2.315 . S
Co352 O376 2.053 . S
Co352 O379 2.094 . S
Co352 O382 2.122 . S
Co353 O356 2.126 . S
Co353 H357 2.388 . S
Co353 O358 2.053 . S
Co353 O361 2.047 . S
Co353 O367 2.113 . S
Co353 O378 2.063 . S
Co354 H355 2.388 . S
Co354 O356 2.053 . S
Co354 O358 2.126 . S
Co354 O363 2.063 . S
Co354 O377 2.047 . S
Co354 O383 2.113 . S
H355 Co352 2.400 . S
H355 Co354 2.388 . S
H355 O356 0.760 . S
O356 Co352 2.009 . S
O356 Co353 2.126 . S
O356 Co354 2.053 . S
O356 H355 0.760 . S
H357 Co353 2.388 . S
H357 O358 0.760 . S
H357 Co359 2.400 . S
O358 Co353 2.053 . S
O358 Co354 2.126 . S
O358 H357 0.760 . S
O358 Co359 2.009 . S
Co359 H357 2.400 . S
Co359 O358 2.009 . S
Co359 O360 2.053 . S
Co359 O362 2.094 . S
Co359 O366 2.122 . S
Co359 O380 2.115 . S
Co359 O381 2.315 . S
O360 Co359 2.053 . S
O360 C372 1.259 . S
O361 Co353 2.047 . S
O361 C372 1.257 . S
O362 Co359 2.094 . S
O362 C373 1.253 . S
O363 Co354 2.063 . S
O363 C373 1.268 . S
O364 Co352 2.115 . S
O364 C374 1.281 . S
O365 Co352 2.315 . S
O365 C374 1.252 . S
O366 Co359 2.122 . S
O366 C375 1.272 . S
O367 Co353 2.113 . S
O367 C375 1.245 . S
C368 O376 1.259 . S
C368 O377 1.257 . S
C369 O378 1.268 . S
C369 O379 1.253 . S
C370 O380 1.281 . S
C370 O381 1.252 . S
C371 O382 1.272 . S
C371 O383 1.245 . S
C372 O360 1.259 . S
C372 O361 1.257 . S
C373 O362 1.253 . S
C373 O363 1.268 . S
C374 O364 1.281 . S
C374 O365 1.252 . S
C375 O366 1.272 . S
C375 O367 1.245 . S
O376 Co352 2.053 . S
O376 C368 1.259 . S
O377 Co354 2.047 . S
O377 C368 1.257 . S
O378 Co353 2.063 . S
O378 C369 1.268 . S
O379 Co352 2.094 . S
O379 C369 1.253 . S
O380 Co359 2.115 . S
O380 C370 1.281 . S
O381 Co359 2.315 . S
O381 C370 1.252 . S
O382 Co352 2.122 . S
O382 C371 1.272 . S
O383 Co354 2.113 . S
O383 C371 1.245 . S
Co384 H387 2.400 . S
Co384 O388 2.009 . S
Co384 O396 2.115 . S
Co384 O397 2.315 . S
Co384 O408 2.053 . S
Co384 O411 2.094 . S
Co384 O414 2.122 . S
Co385 O388 2.126 . S
Co385 H389 2.388 . S
Co385 O390 2.053 . S
Co385 O393 2.047 . S
Co385 O399 2.113 . S
Co385 O410 2.063 . S
Co386 H387 2.388 . S
Co386 O388 2.053 . S
Co386 O390 2.126 . S
Co386 O395 2.063 . S
Co386 O409 2.047 . S
Co386 O415 2.113 . S
H387 Co384 2.400 . S
H387 Co386 2.388 . S
H387 O388 0.760 . S
O388 Co384 2.009 . S
O388 Co385 2.126 . S
O388 Co386 2.053 . S
O388 H387 0.760 . S
H389 Co385 2.388 . S
H389 O390 0.760 . S
H389 Co391 2.400 . S
O390 Co385 2.053 . S
O390 Co386 2.126 . S
O390 H389 0.760 . S
O390 Co391 2.009 . S
Co391 H389 2.400 . S
Co391 O390 2.009 . S
Co391 O392 2.053 . S
Co391 O394 2.094 . S
Co391 O398 2.122 . S
Co391 O412 2.115 . S
Co391 O413 2.315 . S
O392 Co391 2.053 . S
O392 C404 1.259 . S
O393 Co385 2.047 . S
O393 C404 1.257 . S
O394 Co391 2.094 . S
O394 C405 1.253 . S
O395 Co386 2.063 . S
O395 C405 1.268 . S
O396 Co384 2.115 . S
O396 C406 1.281 . S
O397 Co384 2.315 . S
O397 C406 1.252 . S
O398 Co391 2.122 . S
O398 C407 1.272 . S
O399 Co385 2.113 . S
O399 C407 1.245 . S
C400 O408 1.259 . S
C400 O409 1.257 . S
C401 O410 1.268 . S
C401 O411 1.253 . S
C402 O412 1.281 . S
C402 O413 1.252 . S
C403 O414 1.272 . S
C403 O415 1.245 . S
C404 O392 1.259 . S
C404 O393 1.257 . S
C405 O394 1.253 . S
C405 O395 1.268 . S
C406 O396 1.281 . S
C406 O397 1.252 . S
C407 O398 1.272 . S
C407 O399 1.245 . S
O408 Co384 2.053 . S
O408 C400 1.259 . S
O409 Co386 2.047 . S
O409 C400 1.257 . S
O410 Co385 2.063 . S
O410 C401 1.268 . S
O411 Co384 2.094 . S
O411 C401 1.253 . S
O412 Co391 2.115 . S
O412 C402 1.281 . S
O413 Co391 2.315 . S
O413 C402 1.252 . S
O414 Co384 2.122 . S
O414 C403 1.272 . S
O415 Co386 2.113 . S
O415 C403 1.245 . S
Co416 H419 2.400 . S
Co416 O420 2.009 . S
Co416 O428 2.115 . S
Co416 O429 2.315 . S
Co416 O440 2.053 . S
Co416 O443 2.094 . S
Co416 O446 2.122 . S
Co417 O420 2.126 . S
Co417 H421 2.388 . S
Co417 O422 2.053 . S
Co417 O425 2.047 . S
Co417 O431 2.113 . S
Co417 O442 2.063 . S
Co418 H419 2.388 . S
Co418 O420 2.053 . S
Co418 O422 2.126 . S
Co418 O427 2.063 . S
Co418 O441 2.047 . S
Co418 O447 2.113 . S
H419 Co416 2.400 . S
H419 Co418 2.388 . S
H419 O420 0.760 . S
O420 Co416 2.009 . S
O420 Co417 2.126 . S
O420 Co418 2.053 . S
O420 H419 0.760 . S
H421 Co417 2.388 . S
H421 O422 0.760 . S
H421 Co423 2.400 . S
O422 Co417 2.053 . S
O422 Co418 2.126 . S
O422 H421 0.760 . S
O422 Co423 2.009 . S
Co423 H421 2.400 . S
Co423 O422 2.009 . S
Co423 O424 2.053 . S
Co423 O426 2.094 . S
Co423 O430 2.122 . S
Co423 O444 2.115 . S
Co423 O445 2.315 . S
O424 Co423 2.053 . S
O424 C436 1.259 . S
O425 Co417 2.047 . S
O425 C436 1.257 . S
O426 Co423 2.094 . S
O426 C437 1.253 . S
O427 Co418 2.063 . S
O427 C437 1.268 . S
O428 Co416 2.115 . S
O428 C438 1.281 . S
O429 Co416 2.315 . S
O429 C438 1.252 . S
O430 Co423 2.122 . S
O430 C439 1.272 . S
O431 Co417 2.113 . S
O431 C439 1.245 . S
C432 O440 1.259 . S
C432 O441 1.257 . S
C433 O442 1.268 . S
C433 O443 1.253 . S
C434 O444 1.281 . S
C434 O445 1.252 . S
C435 O446 1.272 . S
C435 O447 1.245 . S
C436 O424 1.259 . S
C436 O425 1.257 . S
C437 O426 1.253 . S
C437 O427 1.268 . S
C438 O428 1.281 . S
C438 O429 1.252 . S
C439 O430 1.272 . S
C439 O431 1.245 . S
O440 Co416 2.053 . S
O440 C432 1.259 . S
O441 Co418 2.047 . S
O441 C432 1.257 . S
O442 Co417 2.063 . S
O442 C433 1.268 . S
O443 Co416 2.094 . S
O443 C433 1.253 . S
O444 Co423 2.115 . S
O444 C434 1.281 . S
O445 Co423 2.315 . S
O445 C434 1.252 . S
O446 Co416 2.122 . S
O446 C435 1.272 . S
O447 Co418 2.113 . S
O447 C435 1.245 . S
Co448 H451 2.400 . S
Co448 O452 2.009 . S
Co448 O460 2.115 . S
Co448 O461 2.315 . S
Co448 O472 2.053 . S
Co448 O475 2.094 . S
Co448 O478 2.122 . S
Co449 O452 2.126 . S
Co449 H453 2.388 . S
Co449 O454 2.053 . S
Co449 O457 2.047 . S
Co449 O463 2.113 . S
Co449 O474 2.063 . S
Co450 H451 2.388 . S
Co450 O452 2.053 . S
Co450 O454 2.126 . S
Co450 O459 2.063 . S
Co450 O473 2.047 . S
Co450 O479 2.113 . S
H451 Co448 2.400 . S
H451 Co450 2.388 . S
H451 O452 0.760 . S
O452 Co448 2.009 . S
O452 Co449 2.126 . S
O452 Co450 2.053 . S
O452 H451 0.760 . S
H453 Co449 2.388 . S
H453 O454 0.760 . S
H453 Co455 2.400 . S
O454 Co449 2.053 . S
O454 Co450 2.126 . S
O454 H453 0.760 . S
O454 Co455 2.009 . S
Co455 H453 2.400 . S
Co455 O454 2.009 . S
Co455 O456 2.053 . S
Co455 O458 2.094 . S
Co455 O462 2.122 . S
Co455 O476 2.115 . S
Co455 O477 2.315 . S
O456 Co455 2.053 . S
O456 C468 1.259 . S
O457 Co449 2.047 . S
O457 C468 1.257 . S
O458 Co455 2.094 . S
O458 C469 1.253 . S
O459 Co450 2.063 . S
O459 C469 1.268 . S
O460 Co448 2.115 . S
O460 C470 1.281 . S
O461 Co448 2.315 . S
O461 C470 1.252 . S
O462 Co455 2.122 . S
O462 C471 1.272 . S
O463 Co449 2.113 . S
O463 C471 1.245 . S
C464 O472 1.259 . S
C464 O473 1.257 . S
C465 O474 1.268 . S
C465 O475 1.253 . S
C466 O476 1.281 . S
C466 O477 1.252 . S
C467 O478 1.272 . S
C467 O479 1.245 . S
C468 O456 1.259 . S
C468 O457 1.257 . S
C469 O458 1.253 . S
C469 O459 1.268 . S
C470 O460 1.281 . S
C470 O461 1.252 . S
C471 O462 1.272 . S
C471 O463 1.245 . S
O472 Co448 2.053 . S
O472 C464 1.259 . S
O473 Co450 2.047 . S
O473 C464 1.257 . S
O474 Co449 2.063 . S
O474 C465 1.268 . S
O475 Co448 2.094 . S
O475 C465 1.253 . S
O476 Co455 2.115 . S
O476 C466 1.281 . S
O477 Co455 2.315 . S
O477 C466 1.252 . S
O478 Co448 2.122 . S
O478 C467 1.272 . S
O479 Co450 2.113 . S
O479 C467 1.245 . S
Co480 H483 2.400 . S
Co480 O484 2.009 . S
Co480 O492 2.115 . S
Co480 O493 2.315 . S
Co480 O504 2.053 . S
Co480 O507 2.094 . S
Co480 O510 2.122 . S
Co481 O484 2.126 . S
Co481 H485 2.388 . S
Co481 O486 2.053 . S
Co481 O489 2.047 . S
Co481 O495 2.113 . S
Co481 O506 2.063 . S
Co482 H483 2.388 . S
Co482 O484 2.053 . S
Co482 O486 2.126 . S
Co482 O491 2.063 . S
Co482 O505 2.047 . S
Co482 O511 2.113 . S
H483 Co480 2.400 . S
H483 Co482 2.388 . S
H483 O484 0.760 . S
O484 Co480 2.009 . S
O484 Co481 2.126 . S
O484 Co482 2.053 . S
O484 H483 0.760 . S
H485 Co481 2.388 . S
H485 O486 0.760 . S
H485 Co487 2.400 . S
O486 Co481 2.053 . S
O486 Co482 2.126 . S
O486 H485 0.760 . S
O486 Co487 2.009 . S
Co487 H485 2.400 . S
Co487 O486 2.009 . S
Co487 O488 2.053 . S
Co487 O490 2.094 . S
Co487 O494 2.122 . S
Co487 O508 2.115 . S
Co487 O509 2.315 . S
O488 Co487 2.053 . S
O488 C500 1.259 . S
O489 Co481 2.047 . S
O489 C500 1.257 . S
O490 Co487 2.094 . S
O490 C501 1.253 . S
O491 Co482 2.063 . S
O491 C501 1.268 . S
O492 Co480 2.115 . S
O492 C502 1.281 . S
O493 Co480 2.315 . S
O493 C502 1.252 . S
O494 Co487 2.122 . S
O494 C503 1.272 . S
O495 Co481 2.113 . S
O495 C503 1.245 . S
C496 O504 1.259 . S
C496 O505 1.257 . S
C497 O506 1.268 . S
C497 O507 1.253 . S
C498 O508 1.281 . S
C498 O509 1.252 . S
C499 O510 1.272 . S
C499 O511 1.245 . S
C500 O488 1.259 . S
C500 O489 1.257 . S
C501 O490 1.253 . S
C501 O491 1.268 . S
C502 O492 1.281 . S
C502 O493 1.252 . S
C503 O494 1.272 . S
C503 O495 1.245 . S
O504 Co480 2.053 . S
O504 C496 1.259 . S
O505 Co482 2.047 . S
O505 C496 1.257 . S
O506 Co481 2.063 . S
O506 C497 1.268 . S
O507 Co480 2.094 . S
O507 C497 1.253 . S
O508 Co487 2.115 . S
O508 C498 1.281 . S
O509 Co487 2.315 . S
O509 C498 1.252 . S
O510 Co480 2.122 . S
O510 C499 1.272 . S
O511 Co482 2.113 . S
O511 C499 1.245 . S
H512 C520 0.950 . S
H513 C525 0.950 . S
H514 C522 0.950 . S
H515 C524 0.950 . S
H516 C526 0.950 . S
H517 C528 0.950 . S
H518 C530 0.950 . S
H519 C531 0.950 . S
C520 H512 0.950 . S
C520 C521 1.386 . S
C520 C522 1.391 . S
C521 C520 1.386 . S
C521 C525 1.393 . S
C522 H514 0.950 . S
C522 C520 1.391 . S
C522 C523 1.400 . S
C523 C522 1.400 . S
C523 C524 1.398 . S
C523 C529 1.491 . S
C524 H515 0.950 . S
C524 C523 1.398 . S
C524 C525 1.391 . S
C525 H513 0.950 . S
C525 C521 1.393 . S
C525 C524 1.391 . S
C526 H516 0.950 . S
C526 C527 1.386 . S
C526 C528 1.391 . S
C527 C526 1.386 . S
C527 C531 1.393 . S
C528 H517 0.950 . S
C528 C526 1.391 . S
C528 C529 1.400 . S
C529 C523 1.491 . S
C529 C528 1.400 . S
C529 C530 1.398 . S
C530 H518 0.950 . S
C530 C529 1.398 . S
C530 C531 1.391 . S
C531 H519 0.950 . S
C531 C527 1.393 . S
C531 C530 1.391 . S
H532 C540 0.950 . S
H533 C545 0.950 1_545 S
H534 C542 0.950 1_455 S
H535 C544 0.950 . S
H536 C546 0.950 . S
H537 C548 0.950 . S
H538 C550 0.950 . S
H539 C551 0.950 . S
C540 H532 0.950 . S
C540 C541 1.386 1_455 S
C540 C542 1.391 1_455 S
C541 C540 1.386 1_655 S
C541 C545 1.393 . S
C542 H534 0.950 1_655 S
C542 C540 1.391 1_655 S
C542 C543 1.400 . S
C543 C542 1.400 . S
C543 C544 1.398 . S
C543 C549 1.491 . S
C544 H535 0.950 . S
C544 C543 1.398 . S
C544 C545 1.391 . S
C545 H533 0.950 1_565 S
C545 C541 1.393 . S
C545 C544 1.391 . S
C546 H536 0.950 . S
C546 C547 1.386 . S
C546 C548 1.391 . S
C547 C546 1.386 . S
C547 C551 1.393 . S
C548 H537 0.950 . S
C548 C546 1.391 . S
C548 C549 1.400 . S
C549 C543 1.491 . S
C549 C548 1.400 . S
C549 C550 1.398 . S
C550 H538 0.950 . S
C550 C549 1.398 . S
C550 C551 1.391 . S
C551 H539 0.950 . S
C551 C547 1.393 . S
C551 C550 1.391 . S
H552 C560 0.950 1_545 S
H553 C565 0.950 . S
H554 C562 0.950 . S
H555 C564 0.950 . S
H556 C566 0.950 . S
H557 C568 0.950 . S
H558 C570 0.950 . S
H559 C571 0.950 . S
C560 H552 0.950 1_565 S
C560 C561 1.386 . S
C560 C562 1.391 . S
C561 C560 1.386 . S
C561 C565 1.393 . S
C562 H554 0.950 . S
C562 C560 1.391 . S
C562 C563 1.400 . S
C563 C562 1.400 . S
C563 C564 1.398 . S
C563 C569 1.491 . S
C564 H555 0.950 . S
C564 C563 1.398 . S
C564 C565 1.391 . S
C565 H553 0.950 . S
C565 C561 1.393 . S
C565 C564 1.391 . S
C566 H556 0.950 . S
C566 C567 1.386 . S
C566 C568 1.391 . S
C567 C566 1.386 . S
C567 C571 1.393 . S
C568 H557 0.950 . S
C568 C566 1.391 . S
C568 C569 1.400 . S
C569 C563 1.491 . S
C569 C568 1.400 . S
C569 C570 1.398 . S
C570 H558 0.950 . S
C570 C569 1.398 . S
C570 C571 1.391 . S
C571 H559 0.950 . S
C571 C567 1.393 . S
C571 C570 1.391 . S
H572 C580 0.950 . S
H573 C585 0.950 . S
H574 C582 0.950 . S
H575 C584 0.950 . S
H576 C586 0.950 . S
H577 C588 0.950 . S
H578 C590 0.950 . S
H579 C591 0.950 . S
C580 H572 0.950 . S
C580 C581 1.386 . S
C580 C582 1.391 . S
C581 C580 1.386 . S
C581 C585 1.393 1_655 S
C582 H574 0.950 . S
C582 C580 1.391 . S
C582 C583 1.400 . S
C583 C582 1.400 . S
C583 C584 1.398 1_655 S
C583 C589 1.491 . S
C584 H575 0.950 . S
C584 C583 1.398 1_455 S
C584 C585 1.391 . S
C585 H573 0.950 . S
C585 C581 1.393 1_455 S
C585 C584 1.391 . S
C586 H576 0.950 . S
C586 C587 1.386 . S
C586 C588 1.391 . S
C587 C586 1.386 . S
C587 C591 1.393 . S
C588 H577 0.950 . S
C588 C586 1.391 . S
C588 C589 1.400 . S
C589 C583 1.491 . S
C589 C588 1.400 . S
C589 C590 1.398 . S
C590 H578 0.950 . S
C590 C589 1.398 . S
C590 C591 1.391 . S
C591 H579 0.950 . S
C591 C587 1.393 . S
C591 C590 1.391 . S
H592 C600 0.950 . S
H593 C605 0.950 . S
H594 C602 0.950 . S
H595 C604 0.950 . S
H596 C606 0.950 . S
H597 C608 0.950 . S
H598 C610 0.950 . S
H599 C611 0.950 . S
C600 H592 0.950 . S
C600 C601 1.386 . S
C600 C602 1.391 . S
C601 C600 1.386 . S
C601 C605 1.393 . S
C602 H594 0.950 . S
C602 C600 1.391 . S
C602 C603 1.400 . S
C603 C602 1.400 . S
C603 C604 1.398 . S
C603 C609 1.491 . S
C604 H595 0.950 . S
C604 C603 1.398 . S
C604 C605 1.391 . S
C605 H593 0.950 . S
C605 C601 1.393 . S
C605 C604 1.391 . S
C606 H596 0.950 . S
C606 C607 1.386 . S
C606 C608 1.391 . S
C607 C606 1.386 . S
C607 C611 1.393 . S
C608 H597 0.950 . S
C608 C606 1.391 . S
C608 C609 1.400 . S
C609 C603 1.491 . S
C609 C608 1.400 . S
C609 C610 1.398 . S
C610 H598 0.950 . S
C610 C609 1.398 . S
C610 C611 1.391 . S
C611 H599 0.950 . S
C611 C607 1.393 . S
C611 C610 1.391 . S
H612 C620 0.950 . S
H613 C625 0.950 1_655 S
H614 C622 0.950 . S
H615 C624 0.950 . S
H616 C626 0.950 . S
H617 C628 0.950 . S
H618 C630 0.950 . S
H619 C631 0.950 . S
C620 H612 0.950 . S
C620 C621 1.386 . S
C620 C622 1.391 . S
C621 C620 1.386 . S
C621 C625 1.393 . S
C622 H614 0.950 . S
C622 C620 1.391 . S
C622 C623 1.400 . S
C623 C622 1.400 . S
C623 C624 1.398 . S
C623 C629 1.491 . S
C624 H615 0.950 . S
C624 C623 1.398 . S
C624 C625 1.391 . S
C625 H613 0.950 1_455 S
C625 C621 1.393 . S
C625 C624 1.391 . S
C626 H616 0.950 . S
C626 C627 1.386 . S
C626 C628 1.391 . S
C627 C626 1.386 . S
C627 C631 1.393 . S
C628 H617 0.950 . S
C628 C626 1.391 . S
C628 C629 1.400 . S
C629 C623 1.491 . S
C629 C628 1.400 . S
C629 C630 1.398 . S
C630 H618 0.950 . S
C630 C629 1.398 . S
C630 C631 1.391 . S
C631 H619 0.950 . S
C631 C627 1.393 . S
C631 C630 1.391 . S
H632 C640 0.950 . S
H633 C645 0.950 . S
H634 C642 0.950 . S
H635 C644 0.950 . S
H636 C646 0.950 . S
H637 C648 0.950 . S
H638 C650 0.950 . S
H639 C651 0.950 . S
C640 H632 0.950 . S
C640 C641 1.386 . S
C640 C642 1.391 . S
C641 C640 1.386 . S
C641 C645 1.393 . S
C642 H634 0.950 . S
C642 C640 1.391 . S
C642 C643 1.400 . S
C643 C642 1.400 . S
C643 C644 1.398 . S
C643 C649 1.491 . S
C644 H635 0.950 . S
C644 C643 1.398 . S
C644 C645 1.391 . S
C645 H633 0.950 . S
C645 C641 1.393 . S
C645 C644 1.391 . S
C646 H636 0.950 . S
C646 C647 1.386 . S
C646 C648 1.391 . S
C647 C646 1.386 . S
C647 C651 1.393 . S
C648 H637 0.950 . S
C648 C646 1.391 . S
C648 C649 1.400 . S
C649 C643 1.491 . S
C649 C648 1.400 . S
C649 C650 1.398 . S
C650 H638 0.950 . S
C650 C649 1.398 . S
C650 C651 1.391 . S
C651 H639 0.950 . S
C651 C647 1.393 . S
C651 C650 1.391 . S
H652 C660 0.950 . S
H653 C665 0.950 . S
H654 C662 0.950 . S
H655 C664 0.950 1_655 S
H656 C666 0.950 . S
H657 C668 0.950 . S
H658 C670 0.950 . S
H659 C671 0.950 . S
C660 H652 0.950 . S
C660 C661 1.386 . S
C660 C662 1.391 . S
C661 C660 1.386 . S
C661 C665 1.393 1_455 S
C662 H654 0.950 . S
C662 C660 1.391 . S
C662 C663 1.400 . S
C663 C662 1.400 . S
C663 C664 1.398 . S
C663 C669 1.491 . S
C664 H655 0.950 1_455 S
C664 C663 1.398 . S
C664 C665 1.391 1_455 S
C665 H653 0.950 . S
C665 C661 1.393 1_655 S
C665 C664 1.391 1_655 S
C666 H656 0.950 . S
C666 C667 1.386 . S
C666 C668 1.391 . S
C667 C666 1.386 . S
C667 C671 1.393 . S
C668 H657 0.950 . S
C668 C666 1.391 . S
C668 C669 1.400 . S
C669 C663 1.491 . S
C669 C668 1.400 . S
C669 C670 1.398 . S
C670 H658 0.950 . S
C670 C669 1.398 . S
C670 C671 1.391 . S
C671 H659 0.950 . S
C671 C667 1.393 . S
C671 C670 1.391 . S
H672 C680 0.950 . S
H673 C685 0.950 . S
H674 C682 0.950 . S
H675 C684 0.950 . S
H676 C686 0.950 . S
H677 C688 0.950 . S
H678 C690 0.950 . S
H679 C691 0.950 . S
C680 H672 0.950 . S
C680 C681 1.386 . S
C680 C682 1.391 . S
C681 C680 1.386 . S
C681 C685 1.393 . S
C682 H674 0.950 . S
C682 C680 1.391 . S
C682 C683 1.400 . S
C683 C682 1.400 . S
C683 C684 1.398 . S
C683 C689 1.491 . S
C684 H675 0.950 . S
C684 C683 1.398 . S
C684 C685 1.391 . S
C685 H673 0.950 . S
C685 C681 1.393 . S
C685 C684 1.391 . S
C686 H676 0.950 . S
C686 C687 1.386 . S
C686 C688 1.391 . S
C687 C686 1.386 . S
C687 C691 1.393 . S
C688 H677 0.950 . S
C688 C686 1.391 . S
C688 C689 1.400 . S
C689 C683 1.491 . S
C689 C688 1.400 . S
C689 C690 1.398 . S
C690 H678 0.950 . S
C690 C689 1.398 . S
C690 C691 1.391 . S
C691 H679 0.950 . S
C691 C687 1.393 . S
C691 C690 1.391 . S
H692 C700 0.950 . S
H693 C705 0.950 . S
H694 C702 0.950 . S
H695 C704 0.950 . S
H696 C706 0.950 . S
H697 C708 0.950 . S
H698 C710 0.950 . S
H699 C711 0.950 . S
C700 H692 0.950 . S
C700 C701 1.386 . S
C700 C702 1.391 . S
C701 C700 1.386 . S
C701 C705 1.393 . S
C702 H694 0.950 . S
C702 C700 1.391 . S
C702 C703 1.400 . S
C703 C702 1.400 . S
C703 C704 1.398 . S
C703 C709 1.491 . S
C704 H695 0.950 . S
C704 C703 1.398 . S
C704 C705 1.391 . S
C705 H693 0.950 . S
C705 C701 1.393 . S
C705 C704 1.391 . S
C706 H696 0.950 . S
C706 C707 1.386 1_455 S
C706 C708 1.391 . S
C707 C706 1.386 1_655 S
C707 C711 1.393 . S
C708 H697 0.950 . S
C708 C706 1.391 . S
C708 C709 1.400 1_455 S
C709 C703 1.491 . S
C709 C708 1.400 1_655 S
C709 C710 1.398 . S
C710 H698 0.950 . S
C710 C709 1.398 . S
C710 C711 1.391 . S
C711 H699 0.950 . S
C711 C707 1.393 . S
C711 C710 1.391 . S
H712 C720 0.950 . S
H713 C725 0.950 . S
H714 C722 0.950 . S
H715 C724 0.950 . S
H716 C726 0.950 . S
H717 C728 0.950 . S
H718 C730 0.950 . S
H719 C731 0.950 . S
C720 H712 0.950 . S
C720 C721 1.386 . S
C720 C722 1.391 . S
C721 C720 1.386 . S
C721 C725 1.393 . S
C722 H714 0.950 . S
C722 C720 1.391 . S
C722 C723 1.400 . S
C723 C722 1.400 . S
C723 C724 1.398 . S
C723 C729 1.491 . S
C724 H715 0.950 . S
C724 C723 1.398 . S
C724 C725 1.391 . S
C725 H713 0.950 . S
C725 C721 1.393 . S
C725 C724 1.391 . S
C726 H716 0.950 . S
C726 C727 1.386 . S
C726 C728 1.391 . S
C727 C726 1.386 . S
C727 C731 1.393 . S
C728 H717 0.950 . S
C728 C726 1.391 . S
C728 C729 1.400 . S
C729 C723 1.491 . S
C729 C728 1.400 . S
C729 C730 1.398 . S
C730 H718 0.950 . S
C730 C729 1.398 . S
C730 C731 1.391 . S
C731 H719 0.950 . S
C731 C727 1.393 . S
C731 C730 1.391 . S
H732 C740 0.950 . S
H733 C745 0.950 1_545 S
H734 C742 0.950 . S
H735 C744 0.950 . S
H736 C746 0.950 . S
H737 C748 0.950 . S
H738 C750 0.950 . S
H739 C751 0.950 . S
C740 H732 0.950 . S
C740 C741 1.386 . S
C740 C742 1.391 . S
C741 C740 1.386 . S
C741 C745 1.393 . S
C742 H734 0.950 . S
C742 C740 1.391 . S
C742 C743 1.400 . S
C743 C742 1.400 . S
C743 C744 1.398 . S
C743 C749 1.491 . S
C744 H735 0.950 . S
C744 C743 1.398 . S
C744 C745 1.391 . S
C745 H733 0.950 1_565 S
C745 C741 1.393 . S
C745 C744 1.391 . S
C746 H736 0.950 . S
C746 C747 1.386 1_455 S
C746 C748 1.391 . S
C747 C746 1.386 1_655 S
C747 C751 1.393 . S
C748 H737 0.950 . S
C748 C746 1.391 . S
C748 C749 1.400 1_455 S
C749 C743 1.491 . S
C749 C748 1.400 1_655 S
C749 C750 1.398 . S
C750 H738 0.950 . S
C750 C749 1.398 . S
C750 C751 1.391 . S
C751 H739 0.950 . S
C751 C747 1.393 . S
C751 C750 1.391 . S
H752 C760 0.950 1_565 S
H753 C765 0.950 . S
H754 C762 0.950 . S
H755 C764 0.950 . S
H756 C766 0.950 . S
H757 C768 0.950 . S
H758 C770 0.950 . S
H759 C771 0.950 . S
C760 H752 0.950 1_545 S
C760 C761 1.386 . S
C760 C762 1.391 . S
C761 C760 1.386 . S
C761 C765 1.393 . S
C762 H754 0.950 . S
C762 C760 1.391 . S
C762 C763 1.400 . S
C763 C762 1.400 . S
C763 C764 1.398 . S
C763 C769 1.491 . S
C764 H755 0.950 . S
C764 C763 1.398 . S
C764 C765 1.391 . S
C765 H753 0.950 . S
C765 C761 1.393 . S
C765 C764 1.391 . S
C766 H756 0.950 . S
C766 C767 1.386 . S
C766 C768 1.391 . S
C767 C766 1.386 . S
C767 C771 1.393 . S
C768 H757 0.950 . S
C768 C766 1.391 . S
C768 C769 1.400 . S
C769 C763 1.491 . S
C769 C768 1.400 . S
C769 C770 1.398 . S
C770 H758 0.950 . S
C770 C769 1.398 . S
C770 C771 1.391 . S
C771 H759 0.950 . S
C771 C767 1.393 . S
C771 C770 1.391 . S
H772 C780 0.950 . S
H773 C785 0.950 . S
H774 C782 0.950 1_655 S
H775 C784 0.950 . S
H776 C786 0.950 . S
H777 C788 0.950 . S
H778 C790 0.950 . S
H779 C791 0.950 . S
C780 H772 0.950 . S
C780 C781 1.386 1_655 S
C780 C782 1.391 1_655 S
C781 C780 1.386 1_455 S
C781 C785 1.393 . S
C782 H774 0.950 1_455 S
C782 C780 1.391 1_455 S
C782 C783 1.400 . S
C783 C782 1.400 . S
C783 C784 1.398 . S
C783 C789 1.491 . S
C784 H775 0.950 . S
C784 C783 1.398 . S
C784 C785 1.391 . S
C785 H773 0.950 . S
C785 C781 1.393 . S
C785 C784 1.391 . S
C786 H776 0.950 . S
C786 C787 1.386 . S
C786 C788 1.391 . S
C787 C786 1.386 . S
C787 C791 1.393 . S
C788 H777 0.950 . S
C788 C786 1.391 . S
C788 C789 1.400 . S
C789 C783 1.491 . S
C789 C788 1.400 . S
C789 C790 1.398 . S
C790 H778 0.950 . S
C790 C789 1.398 . S
C790 C791 1.391 . S
C791 H779 0.950 . S
C791 C787 1.393 . S
C791 C790 1.391 . S
H792 C800 0.950 . S
H793 C805 0.950 . S
H794 C802 0.950 . S
H795 C804 0.950 . S
H796 C806 0.950 . S
H797 C808 0.950 . S
H798 C810 0.950 . S
H799 C811 0.950 . S
C800 H792 0.950 . S
C800 C801 1.386 . S
C800 C802 1.391 . S
C801 C800 1.386 . S
C801 C805 1.393 . S
C802 H794 0.950 . S
C802 C800 1.391 . S
C802 C803 1.400 . S
C803 C802 1.400 . S
C803 C804 1.398 . S
C803 C809 1.491 . S
C804 H795 0.950 . S
C804 C803 1.398 . S
C804 C805 1.391 . S
C805 H793 0.950 . S
C805 C801 1.393 . S
C805 C804 1.391 . S
C806 H796 0.950 . S
C806 C807 1.386 . S
C806 C808 1.391 . S
C807 C806 1.386 . S
C807 C811 1.393 . S
C808 H797 0.950 . S
C808 C806 1.391 . S
C808 C809 1.400 . S
C809 C803 1.491 . S
C809 C808 1.400 . S
C809 C810 1.398 . S
C810 H798 0.950 . S
C810 C809 1.398 . S
C810 C811 1.391 . S
C811 H799 0.950 . S
C811 C807 1.393 . S
C811 C810 1.391 . S
H812 C820 0.950 . S
H813 C825 0.950 . S
H814 C822 0.950 . S
H815 C824 0.950 . S
H816 C826 0.950 . S
H817 C828 0.950 . S
H818 C830 0.950 . S
H819 C831 0.950 . S
C820 H812 0.950 . S
C820 C821 1.386 1_655 S
C820 C822 1.391 1_655 S
C821 C820 1.386 1_455 S
C821 C825 1.393 . S
C822 H814 0.950 . S
C822 C820 1.391 1_455 S
C822 C823 1.400 . S
C823 C822 1.400 . S
C823 C824 1.398 . S
C823 C829 1.491 . S
C824 H815 0.950 . S
C824 C823 1.398 . S
C824 C825 1.391 . S
C825 H813 0.950 . S
C825 C821 1.393 . S
C825 C824 1.391 . S
C826 H816 0.950 . S
C826 C827 1.386 . S
C826 C828 1.391 . S
C827 C826 1.386 . S
C827 C831 1.393 . S
C828 H817 0.950 . S
C828 C826 1.391 . S
C828 C829 1.400 . S
C829 C823 1.491 . S
C829 C828 1.400 . S
C829 C830 1.398 . S
C830 H818 0.950 . S
C830 C829 1.398 . S
C830 C831 1.391 . S
C831 H819 0.950 . S
C831 C827 1.393 . S
C831 C830 1.391 . S
H832 C840 0.950 . S
H833 C845 0.950 . S
H834 C842 0.950 . S
H835 C844 0.950 . S
H836 C846 0.950 . S
H837 C848 0.950 . S
H838 C850 0.950 . S
H839 C851 0.950 . S
C840 H832 0.950 . S
C840 C841 1.386 . S
C840 C842 1.391 . S
C841 C840 1.386 . S
C841 C845 1.393 . S
C842 H834 0.950 . S
C842 C840 1.391 . S
C842 C843 1.400 . S
C843 C842 1.400 . S
C843 C844 1.398 . S
C843 C849 1.491 . S
C844 H835 0.950 . S
C844 C843 1.398 . S
C844 C845 1.391 . S
C845 H833 0.950 . S
C845 C841 1.393 . S
C845 C844 1.391 . S
C846 H836 0.950 . S
C846 C847 1.386 . S
C846 C848 1.391 . S
C847 C846 1.386 . S
C847 C851 1.393 . S
C848 H837 0.950 . S
C848 C846 1.391 . S
C848 C849 1.400 . S
C849 C843 1.491 . S
C849 C848 1.400 . S
C849 C850 1.398 . S
C850 H838 0.950 . S
C850 C849 1.398 . S
C850 C851 1.391 . S
C851 H839 0.950 . S
C851 C847 1.393 . S
C851 C850 1.391 . S
H852 C860 0.950 . S
H853 C865 0.950 . S
H854 C862 0.950 . S
H855 C864 0.950 . S
H856 C866 0.950 . S
H857 C868 0.950 . S
H858 C870 0.950 . S
H859 C871 0.950 . S
C860 H852 0.950 . S
C860 C861 1.386 . S
C860 C862 1.391 . S
C861 C860 1.386 . S
C861 C865 1.393 1_455 S
C862 H854 0.950 . S
C862 C860 1.391 . S
C862 C863 1.400 1_455 S
C863 C862 1.400 1_655 S
C863 C864 1.398 . S
C863 C869 1.491 . S
C864 H855 0.950 . S
C864 C863 1.398 . S
C864 C865 1.391 . S
C865 H853 0.950 . S
C865 C861 1.393 1_655 S
C865 C864 1.391 . S
C866 H856 0.950 . S
C866 C867 1.386 . S
C866 C868 1.391 . S
C867 C866 1.386 . S
C867 C871 1.393 . S
C868 H857 0.950 . S
C868 C866 1.391 . S
C868 C869 1.400 . S
C869 C863 1.491 . S
C869 C868 1.400 . S
C869 C870 1.398 . S
C870 H858 0.950 . S
C870 C869 1.398 . S
C870 C871 1.391 . S
C871 H859 0.950 . S
C871 C867 1.393 . S
C871 C870 1.391 . S
H872 C880 0.950 . S
H873 C885 0.950 . S
H874 C882 0.950 . S
H875 C884 0.950 . S
H876 C886 0.950 . S
H877 C888 0.950 . S
H878 C890 0.950 . S
H879 C891 0.950 . S
C880 H872 0.950 . S
C880 C881 1.386 . S
C880 C882 1.391 . S
C881 C880 1.386 . S
C881 C885 1.393 . S
C882 H874 0.950 . S
C882 C880 1.391 . S
C882 C883 1.400 . S
C883 C882 1.400 . S
C883 C884 1.398 . S
C883 C889 1.491 . S
C884 H875 0.950 . S
C884 C883 1.398 . S
C884 C885 1.391 . S
C885 H873 0.950 . S
C885 C881 1.393 . S
C885 C884 1.391 . S
C886 H876 0.950 . S
C886 C887 1.386 . S
C886 C888 1.391 . S
C887 C886 1.386 . S
C887 C891 1.393 . S
C888 H877 0.950 . S
C888 C886 1.391 . S
C888 C889 1.400 . S
C889 C883 1.491 . S
C889 C888 1.400 . S
C889 C890 1.398 . S
C890 H878 0.950 . S
C890 C889 1.398 . S
C890 C891 1.391 . S
C891 H879 0.950 . S
C891 C887 1.393 . S
C891 C890 1.391 . S
H892 C900 0.950 . S
H893 C905 0.950 . S
H894 C902 0.950 . S
H895 C904 0.950 . S
H896 C906 0.950 1_545 S
H897 C908 0.950 . S
H898 C910 0.950 . S
H899 C911 0.950 . S
C900 H892 0.950 . S
C900 C901 1.386 . S
C900 C902 1.391 . S
C901 C900 1.386 . S
C901 C905 1.393 . S
C902 H894 0.950 . S
C902 C900 1.391 . S
C902 C903 1.400 . S
C903 C902 1.400 . S
C903 C904 1.398 . S
C903 C909 1.491 . S
C904 H895 0.950 . S
C904 C903 1.398 . S
C904 C905 1.391 . S
C905 H893 0.950 . S
C905 C901 1.393 . S
C905 C904 1.391 . S
C906 H896 0.950 1_565 S
C906 C907 1.386 1_655 S
C906 C908 1.391 . S
C907 C906 1.386 1_455 S
C907 C911 1.393 . S
C908 H897 0.950 . S
C908 C906 1.391 . S
C908 C909 1.400 . S
C909 C903 1.491 . S
C909 C908 1.400 . S
C909 C910 1.398 1_655 S
C910 H898 0.950 . S
C910 C909 1.398 1_455 S
C910 C911 1.391 . S
C911 H899 0.950 . S
C911 C907 1.393 . S
C911 C910 1.391 . S
H912 C920 0.950 . S
H913 C925 0.950 . S
H914 C922 0.950 . S
H915 C924 0.950 . S
H916 C926 0.950 . S
H917 C928 0.950 . S
H918 C930 0.950 . S
H919 C931 0.950 1_565 S
C920 H912 0.950 . S
C920 C921 1.386 . S
C920 C922 1.391 . S
C921 C920 1.386 . S
C921 C925 1.393 . S
C922 H914 0.950 . S
C922 C920 1.391 . S
C922 C923 1.400 . S
C923 C922 1.400 . S
C923 C924 1.398 . S
C923 C929 1.491 . S
C924 H915 0.950 . S
C924 C923 1.398 . S
C924 C925 1.391 . S
C925 H913 0.950 . S
C925 C921 1.393 . S
C925 C924 1.391 . S
C926 H916 0.950 . S
C926 C927 1.386 . S
C926 C928 1.391 . S
C927 C926 1.386 . S
C927 C931 1.393 . S
C928 H917 0.950 . S
C928 C926 1.391 . S
C928 C929 1.400 . S
C929 C923 1.491 . S
C929 C928 1.400 . S
C929 C930 1.398 . S
C930 H918 0.950 . S
C930 C929 1.398 . S
C930 C931 1.391 . S
C931 H919 0.950 1_545 S
C931 C927 1.393 . S
C931 C930 1.391 . S
H932 C940 0.950 . S
H933 C945 0.950 . S
H934 C942 0.950 . S
H935 C944 0.950 . S
H936 C946 0.950 . S
H937 C948 0.950 1_655 S
H938 C950 0.950 . S
H939 C951 0.950 . S
C940 H932 0.950 . S
C940 C941 1.386 . S
C940 C942 1.391 . S
C941 C940 1.386 . S
C941 C945 1.393 . S
C942 H934 0.950 . S
C942 C940 1.391 . S
C942 C943 1.400 . S
C943 C942 1.400 . S
C943 C944 1.398 . S
C943 C949 1.491 . S
C944 H935 0.950 . S
C944 C943 1.398 . S
C944 C945 1.391 . S
C945 H933 0.950 . S
C945 C941 1.393 . S
C945 C944 1.391 . S
C946 H936 0.950 . S
C946 C947 1.386 . S
C946 C948 1.391 1_655 S
C947 C946 1.386 . S
C947 C951 1.393 1_655 S
C948 H937 0.950 1_455 S
C948 C946 1.391 1_455 S
C948 C949 1.400 . S
C949 C943 1.491 . S
C949 C948 1.400 . S
C949 C950 1.398 . S
C950 H938 0.950 . S
C950 C949 1.398 . S
C950 C951 1.391 . S
C951 H939 0.950 . S
C951 C947 1.393 1_455 S
C951 C950 1.391 . S
H952 C960 0.950 . S
H953 C965 0.950 . S
H954 C962 0.950 . S
H955 C964 0.950 . S
H956 C966 0.950 . S
H957 C968 0.950 . S
H958 C970 0.950 . S
H959 C971 0.950 . S
C960 H952 0.950 . S
C960 C961 1.386 . S
C960 C962 1.391 . S
C961 C960 1.386 . S
C961 C965 1.393 . S
C962 H954 0.950 . S
C962 C960 1.391 . S
C962 C963 1.400 . S
C963 C962 1.400 . S
C963 C964 1.398 . S
C963 C969 1.491 . S
C964 H955 0.950 . S
C964 C963 1.398 . S
C964 C965 1.391 . S
C965 H953 0.950 . S
C965 C961 1.393 . S
C965 C964 1.391 . S
C966 H956 0.950 . S
C966 C967 1.386 . S
C966 C968 1.391 . S
C967 C966 1.386 . S
C967 C971 1.393 . S
C968 H957 0.950 . S
C968 C966 1.391 . S
C968 C969 1.400 . S
C969 C963 1.491 . S
C969 C968 1.400 . S
C969 C970 1.398 . S
C970 H958 0.950 . S
C970 C969 1.398 . S
C970 C971 1.391 . S
C971 H959 0.950 . S
C971 C967 1.393 . S
C971 C970 1.391 . S
H972 C980 0.950 . S
H973 C985 0.950 . S
H974 C982 0.950 . S
H975 C984 0.950 . S
H976 C986 0.950 . S
H977 C988 0.950 . S
H978 C990 0.950 . S
H979 C991 0.950 1_655 S
C980 H972 0.950 . S
C980 C981 1.386 . S
C980 C982 1.391 . S
C981 C980 1.386 . S
C981 C985 1.393 . S
C982 H974 0.950 . S
C982 C980 1.391 . S
C982 C983 1.400 . S
C983 C982 1.400 . S
C983 C984 1.398 . S
C983 C989 1.491 . S
C984 H975 0.950 . S
C984 C983 1.398 . S
C984 C985 1.391 . S
C985 H973 0.950 . S
C985 C981 1.393 . S
C985 C984 1.391 . S
C986 H976 0.950 . S
C986 C987 1.386 . S
C986 C988 1.391 1_655 S
C987 C986 1.386 . S
C987 C991 1.393 1_655 S
C988 H977 0.950 . S
C988 C986 1.391 1_455 S
C988 C989 1.400 . S
C989 C983 1.491 . S
C989 C988 1.400 . S
C989 C990 1.398 . S
C990 H978 0.950 . S
C990 C989 1.398 . S
C990 C991 1.391 . S
C991 H979 0.950 1_455 S
C991 C987 1.393 1_455 S
C991 C990 1.391 . S
H992 C1000 0.950 . S
H993 C1005 0.950 . S
H994 C1002 0.950 . S
H995 C1004 0.950 . S
H996 C1006 0.950 . S
H997 C1008 0.950 . S
H998 C1010 0.950 . S
H999 C1011 0.950 . S
C1000 H992 0.950 . S
C1000 C1001 1.386 . S
C1000 C1002 1.391 . S
C1001 C1000 1.386 . S
C1001 C1005 1.393 . S
C1002 H994 0.950 . S
C1002 C1000 1.391 . S
C1002 C1003 1.400 . S
C1003 C1002 1.400 . S
C1003 C1004 1.398 . S
C1003 C1009 1.491 . S
C1004 H995 0.950 . S
C1004 C1003 1.398 . S
C1004 C1005 1.391 . S
C1005 H993 0.950 . S
C1005 C1001 1.393 . S
C1005 C1004 1.391 . S
C1006 H996 0.950 . S
C1006 C1007 1.386 . S
C1006 C1008 1.391 . S
C1007 C1006 1.386 . S
C1007 C1011 1.393 . S
C1008 H997 0.950 . S
C1008 C1006 1.391 . S
C1008 C1009 1.400 . S
C1009 C1003 1.491 . S
C1009 C1008 1.400 . S
C1009 C1010 1.398 . S
C1010 H998 0.950 . S
C1010 C1009 1.398 . S
C1010 C1011 1.391 . S
C1011 H999 0.950 . S
C1011 C1007 1.393 . S
C1011 C1010 1.391 . S
H1012 C1020 0.950 . S
H1013 C1025 0.950 . S
H1014 C1022 0.950 . S
H1015 C1024 0.950 . S
H1016 C1026 0.950 . S
H1017 C1028 0.950 . S
H1018 C1030 0.950 . S
H1019 C1031 0.950 . S
C1020 H1012 0.950 . S
C1020 C1021 1.386 . S
C1020 C1022 1.391 1_455 S
C1021 C1020 1.386 . S
C1021 C1025 1.393 1_455 S
C1022 H1014 0.950 . S
C1022 C1020 1.391 1_655 S
C1022 C1023 1.400 . S
C1023 C1022 1.400 . S
C1023 C1024 1.398 . S
C1023 C1029 1.491 . S
C1024 H1015 0.950 . S
C1024 C1023 1.398 . S
C1024 C1025 1.391 . S
C1025 H1013 0.950 . S
C1025 C1021 1.393 1_655 S
C1025 C1024 1.391 . S
C1026 H1016 0.950 . S
C1026 C1027 1.386 . S
C1026 C1028 1.391 . S
C1027 C1026 1.386 . S
C1027 C1031 1.393 . S
C1028 H1017 0.950 . S
C1028 C1026 1.391 . S
C1028 C1029 1.400 . S
C1029 C1023 1.491 . S
C1029 C1028 1.400 . S
C1029 C1030 1.398 . S
C1030 H1018 0.950 . S
C1030 C1029 1.398 . S
C1030 C1031 1.391 . S
C1031 H1019 0.950 . S
C1031 C1027 1.393 . S
C1031 C1030 1.391 . S
H1032 C1040 0.950 . S
H1033 C1045 0.950 . S
H1034 C1042 0.950 . S
H1035 C1044 0.950 . S
H1036 C1046 0.950 . S
H1037 C1048 0.950 . S
H1038 C1050 0.950 . S
H1039 C1051 0.950 . S
C1040 H1032 0.950 . S
C1040 C1041 1.386 . S
C1040 C1042 1.391 . S
C1041 C1040 1.386 . S
C1041 C1045 1.393 . S
C1042 H1034 0.950 . S
C1042 C1040 1.391 . S
C1042 C1043 1.400 . S
C1043 C1042 1.400 . S
C1043 C1044 1.398 . S
C1043 C1049 1.491 . S
C1044 H1035 0.950 . S
C1044 C1043 1.398 . S
C1044 C1045 1.391 . S
C1045 H1033 0.950 . S
C1045 C1041 1.393 . S
C1045 C1044 1.391 . S
C1046 H1036 0.950 . S
C1046 C1047 1.386 . S
C1046 C1048 1.391 . S
C1047 C1046 1.386 . S
C1047 C1051 1.393 . S
C1048 H1037 0.950 . S
C1048 C1046 1.391 . S
C1048 C1049 1.400 . S
C1049 C1043 1.491 . S
C1049 C1048 1.400 . S
C1049 C1050 1.398 . S
C1050 H1038 0.950 . S
C1050 C1049 1.398 . S
C1050 C1051 1.391 . S
C1051 H1039 0.950 . S
C1051 C1047 1.393 . S
C1051 C1050 1.391 . S
H1052 C1060 0.950 . S
H1053 C1065 0.950 . S
H1054 C1062 0.950 . S
H1055 C1064 0.950 . S
H1056 C1066 0.950 . S
H1057 C1068 0.950 . S
H1058 C1070 0.950 . S
H1059 C1071 0.950 . S
C1060 H1052 0.950 . S
C1060 C1061 1.386 . S
C1060 C1062 1.391 . S
C1061 C1060 1.386 . S
C1061 C1065 1.393 1_455 S
C1062 H1054 0.950 . S
C1062 C1060 1.391 . S
C1062 C1063 1.400 1_455 S
C1063 C1062 1.400 1_655 S
C1063 C1064 1.398 . S
C1063 C1069 1.491 . S
C1064 H1055 0.950 . S
C1064 C1063 1.398 . S
C1064 C1065 1.391 . S
C1065 H1053 0.950 . S
C1065 C1061 1.393 1_655 S
C1065 C1064 1.391 . S
C1066 H1056 0.950 . S
C1066 C1067 1.386 . S
C1066 C1068 1.391 . S
C1067 C1066 1.386 . S
C1067 C1071 1.393 . S
C1068 H1057 0.950 . S
C1068 C1066 1.391 . S
C1068 C1069 1.400 . S
C1069 C1063 1.491 . S
C1069 C1068 1.400 . S
C1069 C1070 1.398 . S
C1070 H1058 0.950 . S
C1070 C1069 1.398 . S
C1070 C1071 1.391 . S
C1071 H1059 0.950 . S
C1071 C1067 1.393 . S
C1071 C1070 1.391 . S
H1072 C1080 0.950 . S
H1073 C1085 0.950 . S
H1074 C1082 0.950 . S
H1075 C1084 0.950 . S
H1076 C1086 0.950 . S
H1077 C1088 0.950 . S
H1078 C1090 0.950 . S
H1079 C1091 0.950 . S
C1080 H1072 0.950 . S
C1080 C1081 1.386 . S
C1080 C1082 1.391 . S
C1081 C1080 1.386 . S
C1081 C1085 1.393 . S
C1082 H1074 0.950 . S
C1082 C1080 1.391 . S
C1082 C1083 1.400 . S
C1083 C1082 1.400 . S
C1083 C1084 1.398 . S
C1083 C1089 1.491 . S
C1084 H1075 0.950 . S
C1084 C1083 1.398 . S
C1084 C1085 1.391 . S
C1085 H1073 0.950 . S
C1085 C1081 1.393 . S
C1085 C1084 1.391 . S
C1086 H1076 0.950 . S
C1086 C1087 1.386 . S
C1086 C1088 1.391 . S
C1087 C1086 1.386 . S
C1087 C1091 1.393 . S
C1088 H1077 0.950 . S
C1088 C1086 1.391 . S
C1088 C1089 1.400 . S
C1089 C1083 1.491 . S
C1089 C1088 1.400 . S
C1089 C1090 1.398 . S
C1090 H1078 0.950 . S
C1090 C1089 1.398 . S
C1090 C1091 1.391 . S
C1091 H1079 0.950 . S
C1091 C1087 1.393 . S
C1091 C1090 1.391 . S
H1092 C1100 0.950 1_565 S
H1093 C1105 0.950 . S
H1094 C1102 0.950 . S
H1095 C1104 0.950 . S
H1096 C1106 0.950 . S
H1097 C1108 0.950 . S
H1098 C1110 0.950 . S
H1099 C1111 0.950 . S
C1100 H1092 0.950 1_545 S
C1100 C1101 1.386 . S
C1100 C1102 1.391 . S
C1101 C1100 1.386 . S
C1101 C1105 1.393 . S
C1102 H1094 0.950 . S
C1102 C1100 1.391 . S
C1102 C1103 1.400 . S
C1103 C1102 1.400 . S
C1103 C1104 1.398 . S
C1103 C1109 1.491 . S
C1104 H1095 0.950 . S
C1104 C1103 1.398 . S
C1104 C1105 1.391 . S
C1105 H1093 0.950 . S
C1105 C1101 1.393 . S
C1105 C1104 1.391 . S
C1106 H1096 0.950 . S
C1106 C1107 1.386 1_455 S
C1106 C1108 1.391 . S
C1107 C1106 1.386 1_655 S
C1107 C1111 1.393 . S
C1108 H1097 0.950 . S
C1108 C1106 1.391 . S
C1108 C1109 1.400 . S
C1109 C1103 1.491 . S
C1109 C1108 1.400 . S
C1109 C1110 1.398 1_455 S
C1110 H1098 0.950 . S
C1110 C1109 1.398 1_655 S
C1110 C1111 1.391 . S
C1111 H1099 0.950 . S
C1111 C1107 1.393 . S
C1111 C1110 1.391 . S
H1112 C1120 0.950 . S
H1113 C1125 0.950 . S
H1114 C1122 0.950 . S
H1115 C1124 0.950 . S
H1116 C1126 0.950 . S
H1117 C1128 0.950 . S
H1118 C1130 0.950 . S
H1119 C1131 0.950 . S
C1120 H1112 0.950 . S
C1120 C1121 1.386 . S
C1120 C1122 1.391 . S
C1121 C1120 1.386 . S
C1121 C1125 1.393 . S
C1122 H1114 0.950 . S
C1122 C1120 1.391 . S
C1122 C1123 1.400 . S
C1123 C1122 1.400 . S
C1123 C1124 1.398 . S
C1123 C1129 1.491 . S
C1124 H1115 0.950 . S
C1124 C1123 1.398 . S
C1124 C1125 1.391 . S
C1125 H1113 0.950 . S
C1125 C1121 1.393 . S
C1125 C1124 1.391 . S
C1126 H1116 0.950 . S
C1126 C1127 1.386 . S
C1126 C1128 1.391 . S
C1127 C1126 1.386 . S
C1127 C1131 1.393 . S
C1128 H1117 0.950 . S
C1128 C1126 1.391 . S
C1128 C1129 1.400 . S
C1129 C1123 1.491 . S
C1129 C1128 1.400 . S
C1129 C1130 1.398 . S
C1130 H1118 0.950 . S
C1130 C1129 1.398 . S
C1130 C1131 1.391 . S
C1131 H1119 0.950 . S
C1131 C1127 1.393 . S
C1131 C1130 1.391 . S
H1132 C1140 0.950 . S
H1133 C1145 0.950 . S
H1134 C1142 0.950 . S
H1135 C1144 0.950 . S
H1136 C1146 0.950 . S
H1137 C1148 0.950 . S
H1138 C1150 0.950 . S
H1139 C1151 0.950 . S
C1140 H1132 0.950 . S
C1140 C1141 1.386 1_455 S
C1140 C1142 1.391 . S
C1141 C1140 1.386 1_655 S
C1141 C1145 1.393 . S
C1142 H1134 0.950 . S
C1142 C1140 1.391 . S
C1142 C1143 1.400 . S
C1143 C1142 1.400 . S
C1143 C1144 1.398 1_455 S
C1143 C1149 1.491 . S
C1144 H1135 0.950 . S
C1144 C1143 1.398 1_655 S
C1144 C1145 1.391 . S
C1145 H1133 0.950 . S
C1145 C1141 1.393 . S
C1145 C1144 1.391 . S
C1146 H1136 0.950 . S
C1146 C1147 1.386 . S
C1146 C1148 1.391 . S
C1147 C1146 1.386 . S
C1147 C1151 1.393 . S
C1148 H1137 0.950 . S
C1148 C1146 1.391 . S
C1148 C1149 1.400 . S
C1149 C1143 1.491 . S
C1149 C1148 1.400 . S
C1149 C1150 1.398 . S
C1150 H1138 0.950 . S
C1150 C1149 1.398 . S
C1150 C1151 1.391 . S
C1151 H1139 0.950 . S
C1151 C1147 1.393 . S
C1151 C1150 1.391 . S
H1152 C1160 0.950 . S
H1153 C1165 0.950 . S
H1154 C1162 0.950 . S
H1155 C1164 0.950 . S
H1156 C1166 0.950 . S
H1157 C1168 0.950 . S
H1158 C1170 0.950 . S
H1159 C1171 0.950 . S
C1160 H1152 0.950 . S
C1160 C1161 1.386 . S
C1160 C1162 1.391 . S
C1161 C1160 1.386 . S
C1161 C1165 1.393 . S
C1162 H1154 0.950 . S
C1162 C1160 1.391 . S
C1162 C1163 1.400 . S
C1163 C1162 1.400 . S
C1163 C1164 1.398 . S
C1163 C1169 1.491 . S
C1164 H1155 0.950 . S
C1164 C1163 1.398 . S
C1164 C1165 1.391 . S
C1165 H1153 0.950 . S
C1165 C1161 1.393 . S
C1165 C1164 1.391 . S
C1166 H1156 0.950 . S
C1166 C1167 1.386 . S
C1166 C1168 1.391 . S
C1167 C1166 1.386 . S
C1167 C1171 1.393 . S
C1168 H1157 0.950 . S
C1168 C1166 1.391 . S
C1168 C1169 1.400 . S
C1169 C1163 1.491 . S
C1169 C1168 1.400 . S
C1169 C1170 1.398 . S
C1170 H1158 0.950 . S
C1170 C1169 1.398 . S
C1170 C1171 1.391 . S
C1171 H1159 0.950 . S
C1171 C1167 1.393 . S
C1171 C1170 1.391 . S
H1172 C1180 0.950 . S
H1173 C1185 0.950 . S
H1174 C1182 0.950 . S
H1175 C1184 0.950 . S
H1176 C1186 0.950 . S
H1177 C1188 0.950 . S
H1178 C1190 0.950 . S
H1179 C1191 0.950 . S
C1180 H1172 0.950 . S
C1180 C1181 1.386 . S
C1180 C1182 1.391 . S
C1181 C1180 1.386 . S
C1181 C1185 1.393 . S
C1182 H1174 0.950 . S
C1182 C1180 1.391 . S
C1182 C1183 1.400 . S
C1183 C1182 1.400 . S
C1183 C1184 1.398 . S
C1183 C1189 1.491 . S
C1184 H1175 0.950 . S
C1184 C1183 1.398 . S
C1184 C1185 1.391 . S
C1185 H1173 0.950 . S
C1185 C1181 1.393 . S
C1185 C1184 1.391 . S
C1186 H1176 0.950 . S
C1186 C1187 1.386 1_655 S
C1186 C1188 1.391 . S
C1187 C1186 1.386 1_455 S
C1187 C1191 1.393 . S
C1188 H1177 0.950 . S
C1188 C1186 1.391 . S
C1188 C1189 1.400 . S
C1189 C1183 1.491 . S
C1189 C1188 1.400 . S
C1189 C1190 1.398 1_655 S
C1190 H1178 0.950 . S
C1190 C1189 1.398 1_455 S
C1190 C1191 1.391 . S
C1191 H1179 0.950 . S
C1191 C1187 1.393 . S
C1191 C1190 1.391 . S
H1192 C1200 0.950 . S
H1193 C1205 0.950 . S
H1194 C1202 0.950 . S
H1195 C1204 0.950 . S
H1196 C1206 0.950 . S
H1197 C1208 0.950 . S
H1198 C1210 0.950 . S
H1199 C1211 0.950 . S
C1200 H1192 0.950 . S
C1200 C1201 1.386 . S
C1200 C1202 1.391 . S
C1201 C1200 1.386 . S
C1201 C1205 1.393 . S
C1202 H1194 0.950 . S
C1202 C1200 1.391 . S
C1202 C1203 1.400 . S
C1203 C1202 1.400 . S
C1203 C1204 1.398 . S
C1203 C1209 1.491 . S
C1204 H1195 0.950 . S
C1204 C1203 1.398 . S
C1204 C1205 1.391 . S
C1205 H1193 0.950 . S
C1205 C1201 1.393 . S
C1205 C1204 1.391 . S
C1206 H1196 0.950 . S
C1206 C1207 1.386 . S
C1206 C1208 1.391 . S
C1207 C1206 1.386 . S
C1207 C1211 1.393 . S
C1208 H1197 0.950 . S
C1208 C1206 1.391 . S
C1208 C1209 1.400 . S
C1209 C1203 1.491 . S
C1209 C1208 1.400 . S
C1209 C1210 1.398 . S
C1210 H1198 0.950 . S
C1210 C1209 1.398 . S
C1210 C1211 1.391 . S
C1211 H1199 0.950 . S
C1211 C1207 1.393 . S
C1211 C1210 1.391 . S
H1212 C1220 0.950 . S
H1213 C1225 0.950 . S
H1214 C1222 0.950 . S
H1215 C1224 0.950 . S
H1216 C1226 0.950 . S
H1217 C1228 0.950 . S
H1218 C1230 0.950 . S
H1219 C1231 0.950 . S
C1220 H1212 0.950 . S
C1220 C1221 1.386 . S
C1220 C1222 1.391 . S
C1221 C1220 1.386 . S
C1221 C1225 1.393 . S
C1222 H1214 0.950 . S
C1222 C1220 1.391 . S
C1222 C1223 1.400 . S
C1223 C1222 1.400 . S
C1223 C1224 1.398 . S
C1223 C1229 1.491 . S
C1224 H1215 0.950 . S
C1224 C1223 1.398 . S
C1224 C1225 1.391 . S
C1225 H1213 0.950 . S
C1225 C1221 1.393 . S
C1225 C1224 1.391 . S
C1226 H1216 0.950 . S
C1226 C1227 1.386 1_655 S
C1226 C1228 1.391 . S
C1227 C1226 1.386 1_455 S
C1227 C1231 1.393 . S
C1228 H1217 0.950 . S
C1228 C1226 1.391 . S
C1228 C1229 1.400 . S
C1229 C1223 1.491 . S
C1229 C1228 1.400 . S
C1229 C1230 1.398 1_655 S
C1230 H1218 0.950 . S
C1230 C1229 1.398 1_455 S
C1230 C1231 1.391 . S
C1231 H1219 0.950 . S
C1231 C1227 1.393 . S
C1231 C1230 1.391 . S
H1232 C1240 0.950 . S
H1233 C1245 0.950 . S
H1234 C1242 0.950 . S
H1235 C1244 0.950 . S
H1236 C1246 0.950 . S
H1237 C1248 0.950 . S
H1238 C1250 0.950 . S
H1239 C1251 0.950 . S
C1240 H1232 0.950 . S
C1240 C1241 1.386 . S
C1240 C1242 1.391 . S
C1241 C1240 1.386 . S
C1241 C1245 1.393 . S
C1242 H1234 0.950 . S
C1242 C1240 1.391 . S
C1242 C1243 1.400 . S
C1243 C1242 1.400 . S
C1243 C1244 1.398 . S
C1243 C1249 1.491 . S
C1244 H1235 0.950 . S
C1244 C1243 1.398 . S
C1244 C1245 1.391 . S
C1245 H1233 0.950 . S
C1245 C1241 1.393 . S
C1245 C1244 1.391 . S
C1246 H1236 0.950 . S
C1246 C1247 1.386 . S
C1246 C1248 1.391 . S
C1247 C1246 1.386 . S
C1247 C1251 1.393 . S
C1248 H1237 0.950 . S
C1248 C1246 1.391 . S
C1248 C1249 1.400 . S
C1249 C1243 1.491 . S
C1249 C1248 1.400 . S
C1249 C1250 1.398 . S
C1250 H1238 0.950 . S
C1250 C1249 1.398 . S
C1250 C1251 1.391 . S
C1251 H1239 0.950 . S
C1251 C1247 1.393 . S
C1251 C1250 1.391 . S
H1252 C1260 0.950 . S
H1253 C1265 0.950 . S
H1254 C1262 0.950 . S
H1255 C1264 0.950 . S
H1256 C1266 0.950 . S
H1257 C1268 0.950 . S
H1258 C1270 0.950 . S
H1259 C1271 0.950 . S
C1260 H1252 0.950 . S
C1260 C1261 1.386 1_455 S
C1260 C1262 1.391 . S
C1261 C1260 1.386 1_655 S
C1261 C1265 1.393 . S
C1262 H1254 0.950 . S
C1262 C1260 1.391 . S
C1262 C1263 1.400 . S
C1263 C1262 1.400 . S
C1263 C1264 1.398 1_455 S
C1263 C1269 1.491 . S
C1264 H1255 0.950 . S
C1264 C1263 1.398 1_655 S
C1264 C1265 1.391 . S
C1265 H1253 0.950 . S
C1265 C1261 1.393 . S
C1265 C1264 1.391 . S
C1266 H1256 0.950 . S
C1266 C1267 1.386 . S
C1266 C1268 1.391 . S
C1267 C1266 1.386 . S
C1267 C1271 1.393 . S
C1268 H1257 0.950 . S
C1268 C1266 1.391 . S
C1268 C1269 1.400 . S
C1269 C1263 1.491 . S
C1269 C1268 1.400 . S
C1269 C1270 1.398 . S
C1270 H1258 0.950 . S
C1270 C1269 1.398 . S
C1270 C1271 1.391 . S
C1271 H1259 0.950 . S
C1271 C1267 1.393 . S
C1271 C1270 1.391 . S
H1272 C1280 0.950 . S
H1273 C1285 0.950 . S
H1274 C1282 0.950 . S
H1275 C1284 0.950 . S
H1276 C1286 0.950 . S
H1277 C1288 0.950 . S
H1278 C1290 0.950 . S
H1279 C1291 0.950 . S
C1280 H1272 0.950 . S
C1280 C1281 1.386 . S
C1280 C1282 1.391 . S
C1281 C1280 1.386 . S
C1281 C1285 1.393 . S
C1282 H1274 0.950 . S
C1282 C1280 1.391 . S
C1282 C1283 1.400 . S
C1283 C1282 1.400 . S
C1283 C1284 1.398 . S
C1283 C1289 1.491 . S
C1284 H1275 0.950 . S
C1284 C1283 1.398 . S
C1284 C1285 1.391 . S
C1285 H1273 0.950 . S
C1285 C1281 1.393 . S
C1285 C1284 1.391 . S
C1286 H1276 0.950 . S
C1286 C1287 1.386 . S
C1286 C1288 1.391 . S
C1287 C1286 1.386 . S
C1287 C1291 1.393 . S
C1288 H1277 0.950 . S
C1288 C1286 1.391 . S
C1288 C1289 1.400 . S
C1289 C1283 1.491 . S
C1289 C1288 1.400 . S
C1289 C1290 1.398 . S
C1290 H1278 0.950 . S
C1290 C1289 1.398 . S
C1290 C1291 1.391 . S
C1291 H1279 0.950 . S
C1291 C1287 1.393 . S
C1291 C1290 1.391 . S
H1292 C1300 0.950 . S
H1293 C1305 0.950 . S
H1294 C1302 0.950 . S
H1295 C1304 0.950 . S
H1296 C1306 0.950 . S
H1297 C1308 0.950 . S
H1298 C1310 0.950 . S
H1299 C1311 0.950 . S
C1300 H1292 0.950 . S
C1300 C1301 1.386 . S
C1300 C1302 1.391 1_655 S
C1301 C1300 1.386 . S
C1301 C1305 1.393 . S
C1302 H1294 0.950 . S
C1302 C1300 1.391 1_455 S
C1302 C1303 1.400 . S
C1303 C1302 1.400 . S
C1303 C1304 1.398 1_455 S
C1303 C1309 1.491 . S
C1304 H1295 0.950 . S
C1304 C1303 1.398 1_655 S
C1304 C1305 1.391 . S
C1305 H1293 0.950 . S
C1305 C1301 1.393 . S
C1305 C1304 1.391 . S
C1306 H1296 0.950 . S
C1306 C1307 1.386 . S
C1306 C1308 1.391 . S
C1307 C1306 1.386 . S
C1307 C1311 1.393 . S
C1308 H1297 0.950 . S
C1308 C1306 1.391 . S
C1308 C1309 1.400 . S
C1309 C1303 1.491 . S
C1309 C1308 1.400 . S
C1309 C1310 1.398 . S
C1310 H1298 0.950 . S
C1310 C1309 1.398 . S
C1310 C1311 1.391 . S
C1311 H1299 0.950 . S
C1311 C1307 1.393 . S
C1311 C1310 1.391 . S
H1312 C1320 0.950 . S
H1313 C1325 0.950 . S
H1314 C1322 0.950 . S
H1315 C1324 0.950 . S
H1316 C1326 0.950 . S
H1317 C1328 0.950 . S
H1318 C1330 0.950 . S
H1319 C1331 0.950 . S
C1320 H1312 0.950 . S
C1320 C1321 1.386 . S
C1320 C1322 1.391 . S
C1321 C1320 1.386 . S
C1321 C1325 1.393 . S
C1322 H1314 0.950 . S
C1322 C1320 1.391 . S
C1322 C1323 1.400 . S
C1323 C1322 1.400 . S
C1323 C1324 1.398 . S
C1323 C1329 1.491 . S
C1324 H1315 0.950 . S
C1324 C1323 1.398 . S
C1324 C1325 1.391 . S
C1325 H1313 0.950 . S
C1325 C1321 1.393 . S
C1325 C1324 1.391 . S
C1326 H1316 0.950 . S
C1326 C1327 1.386 . S
C1326 C1328 1.391 . S
C1327 C1326 1.386 . S
C1327 C1331 1.393 . S
C1328 H1317 0.950 . S
C1328 C1326 1.391 . S
C1328 C1329 1.400 . S
C1329 C1323 1.491 . S
C1329 C1328 1.400 . S
C1329 C1330 1.398 . S
C1330 H1318 0.950 . S
C1330 C1329 1.398 . S
C1330 C1331 1.391 . S
C1331 H1319 0.950 . S
C1331 C1327 1.393 . S
C1331 C1330 1.391 . S
H1332 C1340 0.950 . S
H1333 C1345 0.950 . S
H1334 C1342 0.950 . S
H1335 C1344 0.950 . S
H1336 C1346 0.950 . S
H1337 C1348 0.950 . S
H1338 C1350 0.950 . S
H1339 C1351 0.950 . S
C1340 H1332 0.950 . S
C1340 C1341 1.386 . S
C1340 C1342 1.391 1_455 S
C1341 C1340 1.386 . S
C1341 C1345 1.393 . S
C1342 H1334 0.950 . S
C1342 C1340 1.391 1_655 S
C1342 C1343 1.400 . S
C1343 C1342 1.400 . S
C1343 C1344 1.398 . S
C1343 C1349 1.491 . S
C1344 H1335 0.950 . S
C1344 C1343 1.398 . S
C1344 C1345 1.391 1_655 S
C1345 H1333 0.950 . S
C1345 C1341 1.393 . S
C1345 C1344 1.391 1_455 S
C1346 H1336 0.950 . S
C1346 C1347 1.386 . S
C1346 C1348 1.391 . S
C1347 C1346 1.386 . S
C1347 C1351 1.393 . S
C1348 H1337 0.950 . S
C1348 C1346 1.391 . S
C1348 C1349 1.400 . S
C1349 C1343 1.491 . S
C1349 C1348 1.400 . S
C1349 C1350 1.398 . S
C1350 H1338 0.950 . S
C1350 C1349 1.398 . S
C1350 C1351 1.391 . S
C1351 H1339 0.950 . S
C1351 C1347 1.393 . S
C1351 C1350 1.391 . S
H1352 C1360 0.950 . S
H1353 C1365 0.950 . S
H1354 C1362 0.950 . S
H1355 C1364 0.950 . S
H1356 C1366 0.950 . S
H1357 C1368 0.950 . S
H1358 C1370 0.950 . S
H1359 C1371 0.950 . S
C1360 H1352 0.950 . S
C1360 C1361 1.386 . S
C1360 C1362 1.391 . S
C1361 C1360 1.386 . S
C1361 C1365 1.393 . S
C1362 H1354 0.950 . S
C1362 C1360 1.391 . S
C1362 C1363 1.400 . S
C1363 C1362 1.400 . S
C1363 C1364 1.398 . S
C1363 C1369 1.491 . S
C1364 H1355 0.950 . S
C1364 C1363 1.398 . S
C1364 C1365 1.391 . S
C1365 H1353 0.950 . S
C1365 C1361 1.393 . S
C1365 C1364 1.391 . S
C1366 H1356 0.950 . S
C1366 C1367 1.386 . S
C1366 C1368 1.391 . S
C1367 C1366 1.386 . S
C1367 C1371 1.393 . S
C1368 H1357 0.950 . S
C1368 C1366 1.391 . S
C1368 C1369 1.400 . S
C1369 C1363 1.491 . S
C1369 C1368 1.400 . S
C1369 C1370 1.398 . S
C1370 H1358 0.950 . S
C1370 C1369 1.398 . S
C1370 C1371 1.391 . S
C1371 H1359 0.950 . S
C1371 C1367 1.393 . S
C1371 C1370 1.391 . S
H1372 C1380 0.950 . S
H1373 C1385 0.950 . S
H1374 C1382 0.950 . S
H1375 C1384 0.950 . S
H1376 C1386 0.950 . S
H1377 C1388 0.950 . S
H1378 C1390 0.950 . S
H1379 C1391 0.950 . S
C1380 H1372 0.950 . S
C1380 C1381 1.386 . S
C1380 C1382 1.391 . S
C1381 C1380 1.386 . S
C1381 C1385 1.393 . S
C1382 H1374 0.950 . S
C1382 C1380 1.391 . S
C1382 C1383 1.400 . S
C1383 C1382 1.400 . S
C1383 C1384 1.398 . S
C1383 C1389 1.491 . S
C1384 H1375 0.950 . S
C1384 C1383 1.398 . S
C1384 C1385 1.391 . S
C1385 H1373 0.950 . S
C1385 C1381 1.393 . S
C1385 C1384 1.391 . S
C1386 H1376 0.950 . S
C1386 C1387 1.386 . S
C1386 C1388 1.391 . S
C1387 C1386 1.386 . S
C1387 C1391 1.393 1_455 S
C1388 H1377 0.950 . S
C1388 C1386 1.391 . S
C1388 C1389 1.400 1_455 S
C1389 C1383 1.491 . S
C1389 C1388 1.400 1_655 S
C1389 C1390 1.398 . S
C1390 H1378 0.950 . S
C1390 C1389 1.398 . S
C1390 C1391 1.391 . S
C1391 H1379 0.950 . S
C1391 C1387 1.393 1_655 S
C1391 C1390 1.391 . S
H1392 C1400 0.950 . S
H1393 C1405 0.950 . S
H1394 C1402 0.950 . S
H1395 C1404 0.950 . S
H1396 C1406 0.950 . S
H1397 C1408 0.950 . S
H1398 C1410 0.950 . S
H1399 C1411 0.950 . S
C1400 H1392 0.950 . S
C1400 C1401 1.386 . S
C1400 C1402 1.391 . S
C1401 C1400 1.386 . S
C1401 C1405 1.393 . S
C1402 H1394 0.950 . S
C1402 C1400 1.391 . S
C1402 C1403 1.400 . S
C1403 C1402 1.400 . S
C1403 C1404 1.398 . S
C1403 C1409 1.491 . S
C1404 H1395 0.950 . S
C1404 C1403 1.398 . S
C1404 C1405 1.391 . S
C1405 H1393 0.950 . S
C1405 C1401 1.393 . S
C1405 C1404 1.391 . S
C1406 H1396 0.950 . S
C1406 C1407 1.386 . S
C1406 C1408 1.391 . S
C1407 C1406 1.386 . S
C1407 C1411 1.393 . S
C1408 H1397 0.950 . S
C1408 C1406 1.391 . S
C1408 C1409 1.400 . S
C1409 C1403 1.491 . S
C1409 C1408 1.400 . S
C1409 C1410 1.398 . S
C1410 H1398 0.950 . S
C1410 C1409 1.398 . S
C1410 C1411 1.391 . S
C1411 H1399 0.950 . S
C1411 C1407 1.393 . S
C1411 C1410 1.391 . S
H1412 C1420 0.950 . S
H1413 C1425 0.950 . S
H1414 C1422 0.950 . S
H1415 C1424 0.950 . S
H1416 C1426 0.950 . S
H1417 C1428 0.950 . S
H1418 C1430 0.950 . S
H1419 C1431 0.950 . S
C1420 H1412 0.950 . S
C1420 C1421 1.386 . S
C1420 C1422 1.391 . S
C1421 C1420 1.386 . S
C1421 C1425 1.393 . S
C1422 H1414 0.950 . S
C1422 C1420 1.391 . S
C1422 C1423 1.400 . S
C1423 C1422 1.400 . S
C1423 C1424 1.398 . S
C1423 C1429 1.491 . S
C1424 H1415 0.950 . S
C1424 C1423 1.398 . S
C1424 C1425 1.391 . S
C1425 H1413 0.950 . S
C1425 C1421 1.393 . S
C1425 C1424 1.391 . S
C1426 H1416 0.950 . S
C1426 C1427 1.386 1_455 S
C1426 C1428 1.391 . S
C1427 C1426 1.386 1_655 S
C1427 C1431 1.393 . S
C1428 H1417 0.950 . S
C1428 C1426 1.391 . S
C1428 C1429 1.400 . S
C1429 C1423 1.491 . S
C1429 C1428 1.400 . S
C1429 C1430 1.398 1_455 S
C1430 H1418 0.950 . S
C1430 C1429 1.398 1_655 S
C1430 C1431 1.391 . S
C1431 H1419 0.950 . S
C1431 C1427 1.393 . S
C1431 C1430 1.391 . S
H1432 C1440 0.950 . S
H1433 C1445 0.950 . S
H1434 C1442 0.950 . S
H1435 C1444 0.950 . S
H1436 C1446 0.950 . S
H1437 C1448 0.950 . S
H1438 C1450 0.950 . S
H1439 C1451 0.950 . S
C1440 H1432 0.950 . S
C1440 C1441 1.386 . S
C1440 C1442 1.391 . S
C1441 C1440 1.386 . S
C1441 C1445 1.393 . S
C1442 H1434 0.950 . S
C1442 C1440 1.391 . S
C1442 C1443 1.400 . S
C1443 C1442 1.400 . S
C1443 C1444 1.398 . S
C1443 C1449 1.491 . S
C1444 H1435 0.950 . S
C1444 C1443 1.398 . S
C1444 C1445 1.391 . S
C1445 H1433 0.950 . S
C1445 C1441 1.393 . S
C1445 C1444 1.391 . S
C1446 H1436 0.950 . S
C1446 C1447 1.386 . S
C1446 C1448 1.391 . S
C1447 C1446 1.386 . S
C1447 C1451 1.393 . S
C1448 H1437 0.950 . S
C1448 C1446 1.391 . S
C1448 C1449 1.400 . S
C1449 C1443 1.491 . S
C1449 C1448 1.400 . S
C1449 C1450 1.398 . S
C1450 H1438 0.950 . S
C1450 C1449 1.398 . S
C1450 C1451 1.391 . S
C1451 H1439 0.950 . S
C1451 C1447 1.393 . S
C1451 C1450 1.391 . S
H1452 C1460 0.950 . S
H1453 C1465 0.950 . S
H1454 C1462 0.950 . S
H1455 C1464 0.950 . S
H1456 C1466 0.950 . S
H1457 C1468 0.950 . S
H1458 C1470 0.950 . S
H1459 C1471 0.950 . S
C1460 H1452 0.950 . S
C1460 C1461 1.386 . S
C1460 C1462 1.391 . S
C1461 C1460 1.386 . S
C1461 C1465 1.393 . S
C1462 H1454 0.950 . S
C1462 C1460 1.391 . S
C1462 C1463 1.400 . S
C1463 C1462 1.400 . S
C1463 C1464 1.398 . S
C1463 C1469 1.491 . S
C1464 H1455 0.950 . S
C1464 C1463 1.398 . S
C1464 C1465 1.391 . S
C1465 H1453 0.950 . S
C1465 C1461 1.393 . S
C1465 C1464 1.391 . S
C1466 H1456 0.950 . S
C1466 C1467 1.386 . S
C1466 C1468 1.391 1_655 S
C1467 C1466 1.386 . S
C1467 C1471 1.393 . S
C1468 H1457 0.950 . S
C1468 C1466 1.391 1_455 S
C1468 C1469 1.400 . S
C1469 C1463 1.491 . S
C1469 C1468 1.400 . S
C1469 C1470 1.398 . S
C1470 H1458 0.950 . S
C1470 C1469 1.398 . S
C1470 C1471 1.391 1_455 S
C1471 H1459 0.950 . S
C1471 C1467 1.393 . S
C1471 C1470 1.391 1_655 S
H1472 C1480 0.950 . S
H1473 C1485 0.950 . S
H1474 C1482 0.950 . S
H1475 C1484 0.950 . S
H1476 C1486 0.950 . S
H1477 C1488 0.950 . S
H1478 C1490 0.950 . S
H1479 C1491 0.950 . S
C1480 H1472 0.950 . S
C1480 C1481 1.386 . S
C1480 C1482 1.391 . S
C1481 C1480 1.386 . S
C1481 C1485 1.393 . S
C1482 H1474 0.950 . S
C1482 C1480 1.391 . S
C1482 C1483 1.400 . S
C1483 C1482 1.400 . S
C1483 C1484 1.398 . S
C1483 C1489 1.491 . S
C1484 H1475 0.950 . S
C1484 C1483 1.398 . S
C1484 C1485 1.391 . S
C1485 H1473 0.950 . S
C1485 C1481 1.393 . S
C1485 C1484 1.391 . S
C1486 H1476 0.950 . S
C1486 C1487 1.386 . S
C1486 C1488 1.391 . S
C1487 C1486 1.386 . S
C1487 C1491 1.393 . S
C1488 H1477 0.950 . S
C1488 C1486 1.391 . S
C1488 C1489 1.400 . S
C1489 C1483 1.491 . S
C1489 C1488 1.400 . S
C1489 C1490 1.398 . S
C1490 H1478 0.950 . S
C1490 C1489 1.398 . S
C1490 C1491 1.391 . S
C1491 H1479 0.950 . S
C1491 C1487 1.393 . S
C1491 C1490 1.391 . S
H1492 C1500 0.950 . S
H1493 C1505 0.950 . S
H1494 C1502 0.950 . S
H1495 C1504 0.947 1_545 S
H1496 C1506 0.950 . S
H1497 C1508 0.950 . S
H1498 C1510 0.947 1_565 S
H1499 C1511 0.950 . S
C1500 H1492 0.950 . S
C1500 C1501 1.386 1_455 S
C1500 C1502 1.391 . S
C1501 C1500 1.386 1_655 S
C1501 C1505 1.393 . S
C1502 H1494 0.950 . S
C1502 C1500 1.391 . S
C1502 C1503 1.400 1_455 S
C1503 C1502 1.400 1_655 S
C1503 C1504 1.398 . S
C1503 C1509 1.491 1_665 S
C1504 H1495 0.947 1_565 S
C1504 C1503 1.398 . S
C1504 C1505 1.391 . S
C1505 H1493 0.950 . S
C1505 C1501 1.393 . S
C1505 C1504 1.391 . S
C1506 H1496 0.950 . S
C1506 C1507 1.386 1_655 S
C1506 C1508 1.391 . S
C1507 C1506 1.386 1_455 S
C1507 C1511 1.393 . S
C1508 H1497 0.950 . S
C1508 C1506 1.391 . S
C1508 C1509 1.400 1_655 S
C1509 C1503 1.491 1_445 S
C1509 C1508 1.400 1_455 S
C1509 C1510 1.398 . S
C1510 H1498 0.947 1_545 S
C1510 C1509 1.398 . S
C1510 C1511 1.391 . S
C1511 H1499 0.950 . S
C1511 C1507 1.393 . S
C1511 C1510 1.391 . S
H1512 C1520 0.950 . S
H1513 C1525 0.950 . S
H1514 C1522 0.950 . S
H1515 C1524 0.950 . S
H1516 C1526 0.950 . S
H1517 C1528 0.950 . S
H1518 C1530 0.950 . S
H1519 C1531 0.950 . S
C1520 H1512 0.950 . S
C1520 C1521 1.386 . S
C1520 C1522 1.391 1_565 S
C1521 C1520 1.386 . S
C1521 C1525 1.393 . S
C1522 H1514 0.950 . S
C1522 C1520 1.391 1_545 S
C1522 C1523 1.400 1_545 S
C1523 C1522 1.400 1_565 S
C1523 C1524 1.398 . S
C1523 C1529 1.491 1_565 S
C1524 H1515 0.950 . S
C1524 C1523 1.398 . S
C1524 C1525 1.391 . S
C1525 H1513 0.950 . S
C1525 C1521 1.393 . S
C1525 C1524 1.391 . S
C1526 H1516 0.950 . S
C1526 C1527 1.386 . S
C1526 C1528 1.391 1_545 S
C1527 C1526 1.386 . S
C1527 C1531 1.393 . S
C1528 H1517 0.950 . S
C1528 C1526 1.391 1_565 S
C1528 C1529 1.400 1_565 S
C1529 C1523 1.491 1_545 S
C1529 C1528 1.400 1_545 S
C1529 C1530 1.398 . S
C1530 H1518 0.950 . S
C1530 C1529 1.398 . S
C1530 C1531 1.391 . S
C1531 H1519 0.950 . S
C1531 C1527 1.393 . S
C1531 C1530 1.391 . S
H1532 C1540 0.950 . S
H1533 C1545 0.950 . S
H1534 C1542 0.950 . S
H1535 C1544 0.950 . S
H1536 C1546 0.950 . S
H1537 C1548 0.950 . S
H1538 C1550 0.950 . S
H1539 C1551 0.950 . S
C1540 H1532 0.950 . S
C1540 C1541 1.386 . S
C1540 C1542 1.391 . S
C1541 C1540 1.386 . S
C1541 C1545 1.393 . S
C1542 H1534 0.950 . S
C1542 C1540 1.391 . S
C1542 C1543 1.400 . S
C1543 C1542 1.400 . S
C1543 C1544 1.398 1_455 S
C1543 C1549 1.491 1_455 S
C1544 H1535 0.950 . S
C1544 C1543 1.398 1_655 S
C1544 C1545 1.391 1_655 S
C1545 H1533 0.950 . S
C1545 C1541 1.393 . S
C1545 C1544 1.391 1_455 S
C1546 H1536 0.950 . S
C1546 C1547 1.386 . S
C1546 C1548 1.391 . S
C1547 C1546 1.386 . S
C1547 C1551 1.393 . S
C1548 H1537 0.950 . S
C1548 C1546 1.391 . S
C1548 C1549 1.400 . S
C1549 C1543 1.491 1_655 S
C1549 C1548 1.400 . S
C1549 C1550 1.398 1_655 S
C1550 H1538 0.950 . S
C1550 C1549 1.398 1_455 S
C1550 C1551 1.391 1_455 S
C1551 H1539 0.950 . S
C1551 C1547 1.393 . S
C1551 C1550 1.391 1_655 S
H1552 C1560 0.950 . S
H1553 C1565 0.950 . S
H1554 C1562 0.950 . S
H1555 C1564 0.950 . S
H1556 C1566 0.950 . S
H1557 C1568 0.950 . S
H1558 C1570 0.950 . S
H1559 C1571 0.950 . S
C1560 H1552 0.950 . S
C1560 C1561 1.386 . S
C1560 C1562 1.391 . S
C1561 C1560 1.386 . S
C1561 C1565 1.393 . S
C1562 H1554 0.950 . S
C1562 C1560 1.391 . S
C1562 C1563 1.400 . S
C1563 C1562 1.400 . S
C1563 C1564 1.398 . S
C1563 C1569 1.491 . S
C1564 H1555 0.950 . S
C1564 C1563 1.398 . S
C1564 C1565 1.391 . S
C1565 H1553 0.950 . S
C1565 C1561 1.393 . S
C1565 C1564 1.391 . S
C1566 H1556 0.950 . S
C1566 C1567 1.386 . S
C1566 C1568 1.391 . S
C1567 C1566 1.386 . S
C1567 C1571 1.393 . S
C1568 H1557 0.950 . S
C1568 C1566 1.391 . S
C1568 C1569 1.400 . S
C1569 C1563 1.491 . S
C1569 C1568 1.400 . S
C1569 C1570 1.398 . S
C1570 H1558 0.950 . S
C1570 C1569 1.398 . S
C1570 C1571 1.391 . S
C1571 H1559 0.950 . S
C1571 C1567 1.393 . S
C1571 C1570 1.391 . S
H1572 C1580 0.950 . S
H1573 C1585 0.950 . S
H1574 C1582 0.950 . S
H1575 C1584 0.950 . S
H1576 C1586 0.950 . S
H1577 C1588 0.950 . S
H1578 C1590 0.950 . S
H1579 C1591 0.950 . S
C1580 H1572 0.950 . S
C1580 C1581 1.386 . S
C1580 C1582 1.391 1_565 S
C1581 C1580 1.386 . S
C1581 C1585 1.393 . S
C1582 H1574 0.950 . S
C1582 C1580 1.391 1_545 S
C1582 C1583 1.400 1_545 S
C1583 C1582 1.400 1_565 S
C1583 C1584 1.398 . S
C1583 C1589 1.491 1_565 S
C1584 H1575 0.950 . S
C1584 C1583 1.398 . S
C1584 C1585 1.391 . S
C1585 H1573 0.950 . S
C1585 C1581 1.393 . S
C1585 C1584 1.391 . S
C1586 H1576 0.950 . S
C1586 C1587 1.386 . S
C1586 C1588 1.391 1_545 S
C1587 C1586 1.386 . S
C1587 C1591 1.393 . S
C1588 H1577 0.950 . S
C1588 C1586 1.391 1_565 S
C1588 C1589 1.400 1_565 S
C1589 C1583 1.491 1_545 S
C1589 C1588 1.400 1_545 S
C1589 C1590 1.398 . S
C1590 H1578 0.950 . S
C1590 C1589 1.398 . S
C1590 C1591 1.391 . S
C1591 H1579 0.950 . S
C1591 C1587 1.393 . S
C1591 C1590 1.391 . S
H1592 C1600 0.950 . S
H1593 C1605 0.950 . S
H1594 C1602 0.950 1_655 S
H1595 C1604 0.950 . S
H1596 C1606 0.950 . S
H1597 C1608 0.950 1_455 S
H1598 C1610 0.950 . S
H1599 C1611 0.950 . S
C1600 H1592 0.950 . S
C1600 C1601 1.386 . S
C1600 C1602 1.391 . S
C1601 C1600 1.386 . S
C1601 C1605 1.393 . S
C1602 H1594 0.950 1_455 S
C1602 C1600 1.391 . S
C1602 C1603 1.400 . S
C1603 C1602 1.400 . S
C1603 C1604 1.398 . S
C1603 C1609 1.491 1_455 S
C1604 H1595 0.950 . S
C1604 C1603 1.398 . S
C1604 C1605 1.391 . S
C1605 H1593 0.950 . S
C1605 C1601 1.393 . S
C1605 C1604 1.391 . S
C1606 H1596 0.950 . S
C1606 C1607 1.386 . S
C1606 C1608 1.391 . S
C1607 C1606 1.386 . S
C1607 C1611 1.393 . S
C1608 H1597 0.950 1_655 S
C1608 C1606 1.391 . S
C1608 C1609 1.400 . S
C1609 C1603 1.491 1_655 S
C1609 C1608 1.400 . S
C1609 C1610 1.398 . S
C1610 H1598 0.950 . S
C1610 C1609 1.398 . S
C1610 C1611 1.391 . S
C1611 H1599 0.950 . S
C1611 C1607 1.393 . S
C1611 C1610 1.391 . S
H1612 C1620 0.950 . S
H1613 C1625 0.950 . S
H1614 C1622 0.950 . S
H1615 C1624 0.950 . S
H1616 C1626 0.950 . S
H1617 C1628 0.950 . S
H1618 C1630 0.950 . S
H1619 C1631 0.950 . S
C1620 H1612 0.950 . S
C1620 C1621 1.386 . S
C1620 C1622 1.391 . S
C1621 C1620 1.386 . S
C1621 C1625 1.393 . S
C1622 H1614 0.950 . S
C1622 C1620 1.391 . S
C1622 C1623 1.400 . S
C1623 C1622 1.400 . S
C1623 C1624 1.398 . S
C1623 C1629 1.491 1_554 S
C1624 H1615 0.950 . S
C1624 C1623 1.398 . S
C1624 C1625 1.391 . S
C1625 H1613 0.950 . S
C1625 C1621 1.393 . S
C1625 C1624 1.391 . S
C1626 H1616 0.950 . S
C1626 C1627 1.386 . S
C1626 C1628 1.391 . S
C1627 C1626 1.386 . S
C1627 C1631 1.393 . S
C1628 H1617 0.950 . S
C1628 C1626 1.391 . S
C1628 C1629 1.400 . S
C1629 C1623 1.491 1_556 S
C1629 C1628 1.400 . S
C1629 C1630 1.398 . S
C1630 H1618 0.950 . S
C1630 C1629 1.398 . S
C1630 C1631 1.391 . S
C1631 H1619 0.950 . S
C1631 C1627 1.393 . S
C1631 C1630 1.391 . S
H1632 C1640 0.950 . S
H1633 C1645 0.950 . S
H1634 C1642 0.950 . S
H1635 C1644 0.950 1_554 S
H1636 C1646 0.950 . S
H1637 C1648 0.950 . S
H1638 C1650 0.950 1_556 S
H1639 C1651 0.950 . S
C1640 H1632 0.950 . S
C1640 C1641 1.386 1_655 S
C1640 C1642 1.391 . S
C1641 C1640 1.386 1_455 S
C1641 C1645 1.393 . S
C1642 H1634 0.950 . S
C1642 C1640 1.391 . S
C1642 C1643 1.400 1_655 S
C1643 C1642 1.400 1_455 S
C1643 C1644 1.398 . S
C1643 C1649 1.491 1_456 S
C1644 H1635 0.950 1_556 S
C1644 C1643 1.398 . S
C1644 C1645 1.391 . S
C1645 H1633 0.950 . S
C1645 C1641 1.393 . S
C1645 C1644 1.391 . S
C1646 H1636 0.950 . S
C1646 C1647 1.386 1_455 S
C1646 C1648 1.391 . S
C1647 C1646 1.386 1_655 S
C1647 C1651 1.393 . S
C1648 H1637 0.950 . S
C1648 C1646 1.391 . S
C1648 C1649 1.400 1_455 S
C1649 C1643 1.491 1_654 S
C1649 C1648 1.400 1_655 S
C1649 C1650 1.398 . S
C1650 H1638 0.950 1_554 S
C1650 C1649 1.398 . S
C1650 C1651 1.391 . S
C1651 H1639 0.950 . S
C1651 C1647 1.393 . S
C1651 C1650 1.391 . S
H1652 C1660 0.950 . S
H1653 C1665 0.950 . S
H1654 C1662 0.950 . S
H1655 C1664 0.950 . S
H1656 C1666 0.950 . S
H1657 C1668 0.950 . S
H1658 C1670 0.950 . S
H1659 C1671 0.950 . S
C1660 H1652 0.950 . S
C1660 C1661 1.386 . S
C1660 C1662 1.391 . S
C1661 C1660 1.386 . S
C1661 C1665 1.393 . S
C1662 H1654 0.950 . S
C1662 C1660 1.391 . S
C1662 C1663 1.400 . S
C1663 C1662 1.400 . S
C1663 C1664 1.398 . S
C1663 C1669 1.491 . S
C1664 H1655 0.950 . S
C1664 C1663 1.398 . S
C1664 C1665 1.391 . S
C1665 H1653 0.950 . S
C1665 C1661 1.393 . S
C1665 C1664 1.391 . S
C1666 H1656 0.950 . S
C1666 C1667 1.386 . S
C1666 C1668 1.391 . S
C1667 C1666 1.386 . S
C1667 C1671 1.393 . S
C1668 H1657 0.950 . S
C1668 C1666 1.391 . S
C1668 C1669 1.400 . S
C1669 C1663 1.491 . S
C1669 C1668 1.400 . S
C1669 C1670 1.398 . S
C1670 H1658 0.950 . S
C1670 C1669 1.398 . S
C1670 C1671 1.391 . S
C1671 H1659 0.950 . S
C1671 C1667 1.393 . S
C1671 C1670 1.391 . S
H1672 C1680 0.950 . S
H1673 C1685 0.950 . S
H1674 C1682 0.950 . S
H1675 C1684 0.950 . S
H1676 C1686 0.950 . S
H1677 C1688 0.950 . S
H1678 C1690 0.950 . S
H1679 C1691 0.950 . S
C1680 H1672 0.950 . S
C1680 C1681 1.386 . S
C1680 C1682 1.391 . S
C1681 C1680 1.386 . S
C1681 C1685 1.393 . S
C1682 H1674 0.950 . S
C1682 C1680 1.391 . S
C1682 C1683 1.400 . S
C1683 C1682 1.400 . S
C1683 C1684 1.398 . S
C1683 C1689 1.491 1_556 S
C1684 H1675 0.950 . S
C1684 C1683 1.398 . S
C1684 C1685 1.391 . S
C1685 H1673 0.950 . S
C1685 C1681 1.393 . S
C1685 C1684 1.391 . S
C1686 H1676 0.950 . S
C1686 C1687 1.386 . S
C1686 C1688 1.391 . S
C1687 C1686 1.386 . S
C1687 C1691 1.393 . S
C1688 H1677 0.950 . S
C1688 C1686 1.391 . S
C1688 C1689 1.400 . S
C1689 C1683 1.491 1_554 S
C1689 C1688 1.400 . S
C1689 C1690 1.398 . S
C1690 H1678 0.950 . S
C1690 C1689 1.398 . S
C1690 C1691 1.391 . S
C1691 H1679 0.950 . S
C1691 C1687 1.393 . S
C1691 C1690 1.391 . S
H1692 C1700 0.950 . S
H1693 C1705 0.950 . S
H1694 C1702 0.950 . S
H1695 C1704 0.950 . S
H1696 C1706 0.950 . S
H1697 C1708 0.950 . S
H1698 C1710 0.950 . S
H1699 C1711 0.950 . S
C1700 H1692 0.950 . S
C1700 C1701 1.386 . S
C1700 C1702 1.391 . S
C1701 C1700 1.386 . S
C1701 C1705 1.393 . S
C1702 H1694 0.950 . S
C1702 C1700 1.391 . S
C1702 C1703 1.400 . S
C1703 C1702 1.400 . S
C1703 C1704 1.398 . S
C1703 C1709 1.491 . S
C1704 H1695 0.950 . S
C1704 C1703 1.398 . S
C1704 C1705 1.391 . S
C1705 H1693 0.950 . S
C1705 C1701 1.393 . S
C1705 C1704 1.391 . S
C1706 H1696 0.950 . S
C1706 C1707 1.386 . S
C1706 C1708 1.391 . S
C1707 C1706 1.386 . S
C1707 C1711 1.393 . S
C1708 H1697 0.950 . S
C1708 C1706 1.391 . S
C1708 C1709 1.400 . S
C1709 C1703 1.491 . S
C1709 C1708 1.400 . S
C1709 C1710 1.398 . S
C1710 H1698 0.950 . S
C1710 C1709 1.398 . S
C1710 C1711 1.391 . S
C1711 H1699 0.950 . S
C1711 C1707 1.393 . S
C1711 C1710 1.391 . S
H1712 C1720 0.950 . S
H1713 C1725 0.950 . S
H1714 C1722 0.950 1_554 S
H1715 C1724 0.966 . S
H1716 C1726 0.950 . S
H1717 C1728 0.950 1_556 S
H1718 C1730 0.967 . S
H1719 C1731 0.950 . S
C1720 H1712 0.950 . S
C1720 C1721 1.386 . S
C1720 C1722 1.391 . S
C1721 C1720 1.386 . S
C1721 C1725 1.393 . S
C1722 H1714 0.950 1_556 S
C1722 C1720 1.391 . S
C1722 C1723 1.400 . S
C1723 C1722 1.400 . S
C1723 C1724 1.396 1_545 S
C1723 C1729 1.491 1_546 S
C1724 H1715 0.966 . S
C1724 C1723 1.396 1_565 S
C1724 C1725 1.377 1_565 S
C1725 H1713 0.950 . S
C1725 C1721 1.393 . S
C1725 C1724 1.377 1_545 S
C1726 H1716 0.950 . S
C1726 C1727 1.386 . S
C1726 C1728 1.391 . S
C1727 C1726 1.386 . S
C1727 C1731 1.393 . S
C1728 H1717 0.950 1_554 S
C1728 C1726 1.391 . S
C1728 C1729 1.400 . S
C1729 C1723 1.491 1_564 S
C1729 C1728 1.400 . S
C1729 C1730 1.396 1_565 S
C1730 H1718 0.967 . S
C1730 C1729 1.396 1_545 S
C1730 C1731 1.377 1_545 S
C1731 H1719 0.950 . S
C1731 C1727 1.393 . S
C1731 C1730 1.377 1_565 S
H1732 C1740 0.950 . S
H1733 C1745 0.950 . S
H1734 C1742 0.950 . S
H1735 C1744 0.950 . S
H1736 C1746 0.950 . S
H1737 C1748 0.950 . S
H1738 C1750 0.950 . S
H1739 C1751 0.950 . S
C1740 H1732 0.950 . S
C1740 C1741 1.386 . S
C1740 C1742 1.391 . S
C1741 C1740 1.386 . S
C1741 C1745 1.393 . S
C1742 H1734 0.950 . S
C1742 C1740 1.391 . S
C1742 C1743 1.400 . S
C1743 C1742 1.400 . S
C1743 C1744 1.398 . S
C1743 C1749 1.491 . S
C1744 H1735 0.950 . S
C1744 C1743 1.398 . S
C1744 C1745 1.391 . S
C1745 H1733 0.950 . S
C1745 C1741 1.393 . S
C1745 C1744 1.391 . S
C1746 H1736 0.950 . S
C1746 C1747 1.386 . S
C1746 C1748 1.391 . S
C1747 C1746 1.386 . S
C1747 C1751 1.393 . S
C1748 H1737 0.950 . S
C1748 C1746 1.391 . S
C1748 C1749 1.400 . S
C1749 C1743 1.491 . S
C1749 C1748 1.400 . S
C1749 C1750 1.398 . S
C1750 H1738 0.950 . S
C1750 C1749 1.398 . S
C1750 C1751 1.391 . S
C1751 H1739 0.950 . S
C1751 C1747 1.393 . S
C1751 C1750 1.391 . S
H1752 C1760 0.950 . S
H1753 C1765 0.950 . S
H1754 C1762 0.950 . S
H1755 C1764 0.950 . S
H1756 C1766 0.950 . S
H1757 C1768 0.950 . S
H1758 C1770 0.950 . S
H1759 C1771 0.950 . S
C1760 H1752 0.950 . S
C1760 C1761 1.386 . S
C1760 C1762 1.391 . S
C1761 C1760 1.386 . S
C1761 C1765 1.393 . S
C1762 H1754 0.950 . S
C1762 C1760 1.391 . S
C1762 C1763 1.400 . S
C1763 C1762 1.400 . S
C1763 C1764 1.398 . S
C1763 C1769 1.491 . S
C1764 H1755 0.950 . S
C1764 C1763 1.398 . S
C1764 C1765 1.391 . S
C1765 H1753 0.950 . S
C1765 C1761 1.393 . S
C1765 C1764 1.391 . S
C1766 H1756 0.950 . S
C1766 C1767 1.386 . S
C1766 C1768 1.391 . S
C1767 C1766 1.386 . S
C1767 C1771 1.393 . S
C1768 H1757 0.950 . S
C1768 C1766 1.391 . S
C1768 C1769 1.400 . S
C1769 C1763 1.491 . S
C1769 C1768 1.400 . S
C1769 C1770 1.398 . S
C1770 H1758 0.950 . S
C1770 C1769 1.398 . S
C1770 C1771 1.391 . S
C1771 H1759 0.950 . S
C1771 C1767 1.393 . S
C1771 C1770 1.391 . S
H1772 C1780 0.950 . S
H1773 C1785 0.950 . S
H1774 C1782 0.950 . S
H1775 C1784 0.950 . S
H1776 C1786 0.950 . S
H1777 C1788 0.950 . S
H1778 C1790 0.950 . S
H1779 C1791 0.950 . S
C1780 H1772 0.950 . S
C1780 C1781 1.386 . S
C1780 C1782 1.391 . S
C1781 C1780 1.386 . S
C1781 C1785 1.393 . S
C1782 H1774 0.950 . S
C1782 C1780 1.391 . S
C1782 C1783 1.400 . S
C1783 C1782 1.400 . S
C1783 C1784 1.398 . S
C1783 C1789 1.491 . S
C1784 H1775 0.950 . S
C1784 C1783 1.398 . S
C1784 C1785 1.391 . S
C1785 H1773 0.950 . S
C1785 C1781 1.393 . S
C1785 C1784 1.391 . S
C1786 H1776 0.950 . S
C1786 C1787 1.386 . S
C1786 C1788 1.391 . S
C1787 C1786 1.386 . S
C1787 C1791 1.393 . S
C1788 H1777 0.950 . S
C1788 C1786 1.391 . S
C1788 C1789 1.400 . S
C1789 C1783 1.491 . S
C1789 C1788 1.400 . S
C1789 C1790 1.398 . S
C1790 H1778 0.950 . S
C1790 C1789 1.398 . S
C1790 C1791 1.391 . S
C1791 H1779 0.950 . S
C1791 C1787 1.393 . S
C1791 C1790 1.391 . S
C521 C16 0.854 . S
C527 C404 0.854 . S
C541 C20 0.852 1_665 S
C547 C400 0.852 . S
C561 C48 0.851 1_565 S
C567 C436 0.851 . S
C581 C52 0.865 1_655 S
C587 C432 0.865 . S
C601 C464 0.874 . S
C607 C84 0.874 . S
C621 C80 0.868 1_445 S
C627 C468 0.868 . S
C641 C116 0.867 1_545 S
C647 C496 0.867 . S
C661 C112 0.863 1_455 S
C667 C500 0.863 . S
C681 C276 0.870 1_565 S
C687 C144 0.870 . S
C701 C272 0.873 . S
C707 C148 0.873 1_655 S
C721 C308 0.871 . S
C727 C176 0.871 . S
C741 C304 0.874 1_565 S
C747 C180 0.874 1_655 S
C761 C336 0.852 1_545 S
C767 C212 0.852 . S
C781 C208 0.874 1_455 S
C787 C340 0.874 . S
C801 C368 0.872 . S
C807 C244 0.872 . S
C821 C240 0.859 1_455 S
C827 C372 0.859 1_545 S
C841 C23 1.549 1_565 S
C847 C403 1.549 . S
C861 C19 1.549 . S
C867 C407 1.549 . S
C881 C55 1.559 . S
C887 C435 1.559 . S
C901 C439 1.540 . S
C907 C51 1.540 1_565 S
C921 C471 1.560 . S
C927 C83 1.560 1_545 S
C941 C467 1.539 . S
C947 C87 1.539 . S
C961 C503 1.543 . S
C967 C115 1.543 . S
C981 C499 1.542 . S
C987 C119 1.542 1_545 S
C1001 C151 1.551 . S
C1007 C275 1.551 . S
C1021 C147 1.541 . S
C1027 C279 1.541 1_565 S
C1041 C183 1.545 . S
C1047 C307 1.545 1_565 S
C1061 C179 1.539 . S
C1067 C311 1.539 . S
C1081 C343 1.560 . S
C1087 C211 1.560 . S
C1101 C339 1.555 1_545 S
C1107 C215 1.555 . S
C1121 C375 1.548 1_545 S
C1127 C243 1.548 . S
C1141 C247 1.546 . S
C1147 C371 1.546 . S
C1161 C22 1.985 . S
C1167 C305 1.952 . S
C1181 C310 1.987 . S
C1187 C17 1.964 . S
C1201 C273 1.958 . S
C1207 C54 1.984 . S
C1221 C278 1.995 . S
C1227 C49 1.970 . S
C1241 C373 1.952 . S
C1247 C82 1.985 . S
C1261 C85 1.970 . S
C1267 C370 1.994 . S
C1281 C114 1.994 . S
C1287 C341 1.955 . S
C1301 C117 1.968 . S
C1307 C338 1.998 . S
C1321 C433 1.969 . S
C1327 C150 1.992 . S
C1341 C145 1.955 . S
C1347 C438 1.984 . S
C1361 C182 1.995 . S
C1367 C401 1.970 . S
C1381 C406 1.996 . S
C1387 C177 1.958 . S
C1401 C501 1.965 . S
C1407 C210 1.987 . S
C1421 C498 1.996 . S
C1427 C213 1.958 . S
C1441 C469 1.969 . S
C1447 C242 1.997 . S
C1461 C466 1.984 . S
C1467 C245 1.954 . S
C1481 C465 1.691 . S
C1487 C21 1.691 . S
C1501 C86 1.709 . S
C1507 C18 1.709 . S
C1521 C369 1.694 . S
C1527 C53 1.694 . S
C1541 C50 1.702 . S
C1547 C246 1.702 . S
C1561 C405 1.691 . S
C1567 C81 1.691 . S
C1581 C113 1.695 . S
C1587 C309 1.695 . S
C1601 C178 1.697 . S
C1607 C118 1.697 . S
C1621 C337 1.691 . S
C1627 C149 1.691 . S
C1641 C146 1.692 . S
C1647 C214 1.692 . S
C1661 C181 1.694 . S
C1667 C497 1.694 . S
C1681 C277 1.692 . S
C1687 C209 1.692 . S
C1701 C437 1.694 . S
C1707 C241 1.694 . S
C1721 C274 1.705 . S
C1727 C342 1.705 . S
C1741 C306 1.706 . S
C1747 C502 1.706 . S
C1761 C434 1.700 . S
C1767 C374 1.700 . S
C1781 C470 1.690 . S
C1787 C402 1.690 . S
