# Generated by pormake.
# Topology fst, (5)-cn, num edge types: 1
# Building blocks:
#     Node 0, Type 0, BuildingBlock: XOMCOT_clean_sbu_1, # of connection points: 5
#     Node 1, Type 0, BuildingBlock: XOMCOT_clean_sbu_1, # of connection points: 5
#     Node 2, Type 0, BuildingBlock: XOMCOT_clean_sbu_1, # of connection points: 5
#     Node 3, Type 0, BuildingBlock: XOMCOT_clean_sbu_1, # of connection points: 5
#     Node 4, Type 0, BuildingBlock: XOMCOT_clean_sbu_1, # of connection points: 5
#     Node 5, Type 0, BuildingBlock: XOMCOT_clean_sbu_1, # of connection points: 5
#     Node 6, Type 0, BuildingBlock: XOMCOT_clean_sbu_1, # of connection points: 5
#     Node 7, Type 0, BuildingBlock: XOMCOT_clean_sbu_1, # of connection points: 5
#     Node 8, Type 0, BuildingBlock: XOMCOT_clean_sbu_1, # of connection points: 5
#     Node 9, Type 0, BuildingBlock: XOMCOT_clean_sbu_1, # of connection points: 5
#     Node 10, Type 0, BuildingBlock: XOMCOT_clean_sbu_1, # of connection points: 5
#     Node 11, Type 0, BuildingBlock: XOMCOT_clean_sbu_1, # of connection points: 5
#     Edge 12, Type (0, 0), BuildingBlock: KIFKEQ_clean_linker_1, # of connection points: 2
#     Edge 13, Type (0, 0), BuildingBlock: KIFKEQ_clean_linker_1, # of connection points: 2
#     Edge 14, Type (0, 0), BuildingBlock: KIFKEQ_clean_linker_1, # of connection points: 2
#     Edge 15, Type (0, 0), BuildingBlock: KIFKEQ_clean_linker_1, # of connection points: 2
#     Edge 16, Type (0, 0), BuildingBlock: KIFKEQ_clean_linker_1, # of connection points: 2
#     Edge 17, Type (0, 0), BuildingBlock: KIFKEQ_clean_linker_1, # of connection points: 2
#     Edge 18, Type (0, 0), BuildingBlock: KIFKEQ_clean_linker_1, # of connection points: 2
#     Edge 19, Type (0, 0), BuildingBlock: KIFKEQ_clean_linker_1, # of connection points: 2
#     Edge 20, Type (0, 0), BuildingBlock: KIFKEQ_clean_linker_1, # of connection points: 2
#     Edge 21, Type (0, 0), BuildingBlock: KIFKEQ_clean_linker_1, # of connection points: 2
#     Edge 22, Type (0, 0), BuildingBlock: KIFKEQ_clean_linker_1, # of connection points: 2
#     Edge 23, Type (0, 0), BuildingBlock: KIFKEQ_clean_linker_1, # of connection points: 2
#     Edge 24, Type (0, 0), BuildingBlock: KIFKEQ_clean_linker_1, # of connection points: 2
#     Edge 25, Type (0, 0), BuildingBlock: KIFKEQ_clean_linker_1, # of connection points: 2
#     Edge 26, Type (0, 0), BuildingBlock: KIFKEQ_clean_linker_1, # of connection points: 2
#     Edge 27, Type (0, 0), BuildingBlock: KIFKEQ_clean_linker_1, # of connection points: 2
#     Edge 28, Type (0, 0), BuildingBlock: KIFKEQ_clean_linker_1, # of connection points: 2
#     Edge 29, Type (0, 0), BuildingBlock: KIFKEQ_clean_linker_1, # of connection points: 2
#     Edge 30, Type (0, 0), BuildingBlock: KIFKEQ_clean_linker_1, # of connection points: 2
#     Edge 31, Type (0, 0), BuildingBlock: KIFKEQ_clean_linker_1, # of connection points: 2
#     Edge 32, Type (0, 0), BuildingBlock: KIFKEQ_clean_linker_1, # of connection points: 2
#     Edge 33, Type (0, 0), BuildingBlock: KIFKEQ_clean_linker_1, # of connection points: 2
#     Edge 34, Type (0, 0), BuildingBlock: KIFKEQ_clean_linker_1, # of connection points: 2
#     Edge 35, Type (0, 0), BuildingBlock: KIFKEQ_clean_linker_1, # of connection points: 2
#     Edge 36, Type (0, 0), BuildingBlock: KIFKEQ_clean_linker_1, # of connection points: 2
#     Edge 37, Type (0, 0), BuildingBlock: KIFKEQ_clean_linker_1, # of connection points: 2
#     Edge 38, Type (0, 0), BuildingBlock: KIFKEQ_clean_linker_1, # of connection points: 2
#     Edge 39, Type (0, 0), BuildingBlock: KIFKEQ_clean_linker_1, # of connection points: 2
#     Edge 40, Type (0, 0), BuildingBlock: KIFKEQ_clean_linker_1, # of connection points: 2
#     Edge 41, Type (0, 0), BuildingBlock: KIFKEQ_clean_linker_1, # of connection points: 2
# Relax obj value: 0.139
# Max RMSD: 0.123
# Mean RMSD: 0.123
data_MOF--net-fst--node1-XOMCOT_clean_sbu_1--edge1-KIFKEQ_clean_linker_1
_symmetry_space_group_name_H-M    P1
_symmetry_Int_Tables_number       1
_symmetry_cell_setting            triclinic
loop_
_symmetry_equiv_pos_as_xyz
'x, y, z'
_cell_length_a     74.859707
_cell_length_b     74.788355
_cell_length_c     17.816278
_cell_angle_alpha  89.990217
_cell_angle_beta   90.091784
_cell_angle_gamma 119.96974
loop_
_atom_site_label
_atom_site_type_symbol
_atom_site_fract_x
_atom_site_fract_y
_atom_site_fract_z
_atom_type_partial_charge
C0 C 0.14809 0.46461 0.92299 0.0
C1 C 0.1525 0.4655 0.84769 0.0
N2 N 0.14329 0.44611 0.82069 0.0
N3 N 0.13583 0.44475 0.9436 0.0
C4 C 0.13378 0.43381 0.88038 0.0
H5 H 0.15323 0.47768 0.96031 0.0
Co6 Co 0.12655 0.43661 0.04265 0.0
C7 C 0.08596 0.4064 0.95656 0.0
O8 O 0.09094 0.41436 0.88899 0.0
N9 N 0.11797 0.42883 0.14321 0.0
C10 C 0.09811 0.41726 0.24494 0.0
C11 C 0.09839 0.42013 0.16871 0.0
C12 C 0.1294 0.43168 0.20596 0.0
N13 N 0.11762 0.42458 0.26837 0.0
O14 O 0.13757 0.41818 0.03914 0.0
H15 H 0.08513 0.41687 0.13481 0.0
H16 H 0.14604 0.43915 0.20646 0.0
O17 O 0.09887 0.41431 1.01075 0.0
C18 C 0.15649 0.4274 0.05892 0.0
O19 O 0.16509 0.44674 0.08078 0.0
N20 N 0.11737 0.45607 0.04698 0.0
C21 C 0.11087 0.48993 0.04827 0.0
C22 C 0.10183 0.47453 0.99301 0.0
C23 C 0.10522 0.45776 0.99347 0.0
C24 C 0.1261 0.47072 0.10168 0.0
C25 C 0.12277 0.48751 0.10418 0.0
H26 H 0.09918 0.447 0.94775 0.0
H27 H 0.13633 0.46981 0.14241 0.0
H28 H 0.12546 0.41712 0.87792 0.0
H29 H 0.16114 0.47939 0.81468 0.0
H30 H 0.08471 0.41113 0.281 0.0
H31 H 0.093 0.47582 0.9473 0.0
H32 H 0.12989 0.4987 0.14886 0.0
C33 C 0.68395 0.14119 0.92561 0.0
C34 C 0.68676 0.14555 0.85031 0.0
N35 N 0.69952 0.13926 0.82305 0.0
N36 N 0.69438 0.13164 0.94664 0.0
C37 C 0.70436 0.13141 0.88347 0.0
H38 H 0.67452 0.14449 0.96259 0.0
Co39 Co 0.69455 0.12285 0.04628 0.0
C40 C 0.68664 0.08337 0.95951 0.0
O41 O 0.68378 0.08851 0.89198 0.0
N42 N 0.69476 0.11453 0.14638 0.0
C43 C 0.6851 0.09445 0.24745 0.0
C44 C 0.68278 0.09506 0.17139 0.0
C45 C 0.70413 0.12558 0.20913 0.0
N46 N 0.69853 0.11364 0.27182 0.0
O47 O 0.72426 0.13589 0.04128 0.0
H48 H 0.67209 0.08218 0.13714 0.0
H49 H 0.71438 0.14211 0.209 0.0
O50 O 0.69084 0.09589 1.01442 0.0
C51 C 0.7314 0.15519 0.05141 0.0
O52 O 0.71826 0.16139 0.06836 0.0
N53 N 0.66568 0.11194 0.05271 0.0
C54 C 0.62497 0.10431 0.05587 0.0
C55 C 0.63126 0.09478 1.00222 0.0
C56 C 0.65161 0.09872 1.00183 0.0
C57 C 0.65975 0.12087 0.1065 0.0
C58 C 0.63948 0.11698 0.11 0.0
H59 H 0.65628 0.0923 0.95715 0.0
H60 H 0.67104 0.13179 0.14538 0.0
H61 H 0.71482 0.12538 0.88191 0.0
H62 H 0.6793 0.15222 0.81806 0.0
H63 H 0.67658 0.08097 0.28245 0.0
H64 H 0.62093 0.08523 0.95815 0.0
H65 H 0.63547 0.12437 0.15378 0.0
C66 C 0.55191 0.69019 0.95737 0.0
C67 C 0.54943 0.68904 0.88079 0.0
N68 N 0.56669 0.69101 0.84946 0.0
N69 N 0.57056 0.69267 0.97425 0.0
C70 C 0.57935 0.69334 0.90744 0.0
H71 H 0.54081 0.68913 0.99845 0.0
Co72 Co 0.57975 0.69429 0.07153 0.0
C73 C 0.60538 0.67491 0.07425 0.0
O74 O 0.59449 0.66507 0.13362 0.0
N75 N 0.58939 0.69693 0.17171 0.0
C76 C 0.61223 0.70838 0.26544 0.0
C77 C 0.60967 0.70807 0.18915 0.0
C78 C 0.57991 0.69114 0.23927 0.0
N79 N 0.59347 0.69775 0.29693 0.0
O80 O 0.59792 0.72363 0.05748 0.0
H81 H 0.62194 0.71576 0.14861 0.0
H82 H 0.56347 0.6825 0.24713 0.0
O83 O 0.60157 0.68777 0.03976 0.0
C84 C 0.59141 0.73445 0.09037 0.0
O85 O 0.57499 0.72498 0.13319 0.0
N86 N 0.55986 0.66575 0.0823 0.0
C87 C 0.52518 0.62611 0.07597 0.0
C88 C 0.54235 0.63134 0.03075 0.0
C89 C 0.55936 0.65126 0.03385 0.0
C90 C 0.54284 0.66106 0.12432 0.0
C91 C 0.5256 0.64115 0.12392 0.0
H92 H 0.57149 0.6553 0.99337 0.0
H93 H 0.54188 0.67316 0.15381 0.0
H94 H 0.59453 0.69511 0.90143 0.0
H95 H 0.53605 0.68717 0.8505 0.0
H96 H 0.62672 0.71641 0.29551 0.0
H97 H 0.5423 0.62035 0.99101 0.0
H98 H 0.51218 0.63798 0.15684 0.0
C99 C 0.86594 0.55249 0.93937 0.0
C100 C 0.86278 0.55086 0.86303 0.0
N101 N 0.87848 0.56754 0.83005 0.0
N102 N 0.88355 0.57007 0.95491 0.0
C103 C 0.89081 0.57902 0.88731 0.0
H104 H 0.85608 0.5415 0.98118 0.0
Co105 Co 0.89369 0.578 0.05208 0.0
C106 C 0.93106 0.61834 1.01838 0.0
O107 O 0.92221 0.62845 0.04421 0.0
N108 N 0.90378 0.58578 0.15107 0.0
C109 C 0.92487 0.59458 0.24944 0.0
C110 C 0.92331 0.59207 0.17303 0.0
C111 C 0.89366 0.58426 0.21596 0.0
N112 N 0.90621 0.58962 0.2768 0.0
O113 O 0.88331 0.59698 0.05095 0.0
H114 H 0.93553 0.59372 0.13639 0.0
H115 H 0.87732 0.57878 0.21895 0.0
O116 O 0.92076 0.59866 1.01452 0.0
C117 C 0.86466 0.58864 0.07328 0.0
O118 O 0.8558 0.56967 0.0992 0.0
N119 N 0.90188 0.55802 0.05275 0.0
C120 C 0.90738 0.52365 0.04838 0.0
C121 C 0.91737 0.53985 0.99648 0.0
C122 C 0.91441 0.5569 0.99958 0.0
C123 C 0.89235 0.54269 0.10439 0.0
C124 C 0.89512 0.52556 0.10394 0.0
H125 H 0.92139 0.56868 0.95694 0.0
H126 H 0.88205 0.54347 0.14502 0.0
H127 H 0.90508 0.59344 0.88008 0.0
H128 H 0.84981 0.53837 0.83424 0.0
H129 H 0.93851 0.59864 0.2826 0.0
H130 H 0.92665 0.539 0.95163 0.0
H131 H 0.88734 0.51373 0.14606 0.0
C132 C 0.33489 0.87194 0.91651 0.0
C133 C 0.33155 0.86729 0.84132 0.0
N134 N 0.31951 0.87448 0.81475 0.0
N135 N 0.32531 0.88237 0.93757 0.0
C136 C 0.3155 0.88306 0.87458 0.0
H137 H 0.34392 0.86808 0.95359 0.0
Co138 Co 0.3251 0.89068 0.0376 0.0
C139 C 0.33215 0.93039 0.95368 0.0
O140 O 0.33524 0.92574 0.88574 0.0
N141 N 0.32465 0.89825 0.13835 0.0
C142 C 0.33092 0.91723 0.24167 0.0
C143 C 0.33416 0.91771 0.1657 0.0
C144 C 0.31624 0.88615 0.19963 0.0
N145 N 0.31972 0.8974 0.26305 0.0
O146 O 0.29534 0.87713 0.03282 0.0
H147 H 0.34364 0.93145 0.13325 0.0
H148 H 0.30801 0.86945 0.19807 0.0
O149 O 0.32818 0.91764 1.00771 0.0
C150 C 0.2884 0.8578 0.04105 0.0
O151 O 0.30171 0.85166 0.05583 0.0
N152 N 0.35405 0.90215 0.04354 0.0
C153 C 0.39498 0.91086 0.04317 0.0
C154 C 0.38809 0.91997 0.99042 0.0
C155 C 0.36759 0.9155 0.99173 0.0
C156 C 0.36066 0.89353 0.09639 0.0
C157 C 0.38113 0.89792 0.09793 0.0
H158 H 0.36243 0.92163 0.9477 0.0
H159 H 0.34975 0.88234 0.13536 0.0
H160 H 0.30551 0.88966 0.87249 0.0
H161 H 0.33805 0.8598 0.80815 0.0
H162 H 0.33714 0.93041 0.27905 0.0
H163 H 0.3983 0.92994 0.9469 0.0
H164 H 0.38577 0.8903 0.13886 0.0
C165 C 0.47213 0.33211 0.92889 0.0
C166 C 0.47293 0.32823 0.85394 0.0
N167 N 0.45351 0.31643 0.82885 0.0
N168 N 0.45227 0.32313 0.95128 0.0
C169 C 0.4413 0.3131 0.88928 0.0
H170 H 0.48528 0.341 0.96499 0.0
Co171 Co 0.44462 0.32345 0.0522 0.0
C172 C 0.41211 0.33138 0.97132 0.0
O173 O 0.41927 0.33354 0.90277 0.0
N174 N 0.43755 0.32355 0.15375 0.0
C175 C 0.42836 0.33291 0.25884 0.0
C176 C 0.43148 0.3363 0.18307 0.0
C177 C 0.43872 0.313 0.21374 0.0
N178 N 0.43294 0.3183 0.27812 0.0
O179 O 0.42755 0.2937 0.04831 0.0
H180 H 0.43061 0.34825 0.15207 0.0
H181 H 0.44409 0.30201 0.21074 0.0
O182 O 0.42106 0.32759 0.02545 0.0
C183 C 0.43967 0.28639 0.05527 0.0
O184 O 0.45922 0.29942 0.06948 0.0
N185 N 0.463 0.35226 0.05692 0.0
C186 C 0.49646 0.39278 0.05647 0.0
C187 C 0.4802 0.38646 1.00461 0.0
C188 C 0.46359 0.36619 1.00601 0.0
C189 C 0.47835 0.3582 0.1088 0.0
C190 C 0.49491 0.37839 0.1106 0.0
H191 H 0.45205 0.36143 0.96278 0.0
H192 H 0.47817 0.34698 0.14756 0.0
H193 H 0.4247 0.30336 0.88839 0.0
H194 H 0.4867 0.33414 0.81991 0.0
H195 H 0.42416 0.34134 0.29765 0.0
H196 H 0.48072 0.39668 0.96061 0.0
H197 H 0.50667 0.38243 0.15308 0.0
C198 C 0.55297 0.87213 0.12172 0.0
C199 C 0.55174 0.86783 0.19702 0.0
N200 N 0.571 0.87546 0.22444 0.0
N201 N 0.57292 0.88294 0.10094 0.0
C202 C 0.58352 0.884 0.16416 0.0
H203 H 0.54004 0.86808 0.08467 0.0
Co204 Co 0.58111 0.89254 1.00194 0.0
C205 C 0.6128 0.93234 0.08841 0.0
O206 O 0.6058 0.92715 0.15711 0.0
N207 N 0.58885 0.90162 0.90181 0.0
C208 C 0.59781 0.92212 0.80188 0.0
C209 C 0.59505 0.92099 0.87813 0.0
C210 C 0.5878 0.89118 0.83808 0.0
N211 N 0.59327 0.90336 0.77608 0.0
O212 O 0.59876 0.88061 1.0031 0.0
H213 H 0.59657 0.9334 0.91363 0.0
H214 H 0.58269 0.87489 0.83691 0.0
O215 O 0.60395 0.91971 0.03415 0.0
C216 C 0.58894 0.86174 0.98258 0.0
O217 O 0.56967 0.85388 0.96087 0.0
N218 N 0.56241 0.90267 1.0001 0.0
C219 C 0.52962 0.91053 1.0034 0.0
C220 C 0.54543 0.91932 0.05696 0.0
C221 C 0.56175 0.91529 0.05414 0.0
C222 C 0.54727 0.89422 0.94689 0.0
C223 C 0.5309 0.8982 0.94681 0.0
H224 H 0.57301 0.92125 0.09837 0.0
H225 H 0.54745 0.88365 0.90587 0.0
H226 H 0.60013 0.89108 0.16597 0.0
H227 H 0.53764 0.86039 0.22932 0.0
H228 H 0.6019 0.93561 0.76793 0.0
H229 H 0.54489 0.92881 0.10188 0.0
H230 H 0.51881 0.89086 0.90514 0.0
C231 C 0.70426 0.5559 0.08818 0.0
C232 C 0.706 0.55447 0.16448 0.0
N233 N 0.7054 0.57038 0.19761 0.0
N234 N 0.70258 0.57262 0.07277 0.0
C235 C 0.70346 0.58125 0.14046 0.0
H236 H 0.70395 0.54527 0.04638 0.0
Co237 Co 0.69892 0.57949 0.97565 0.0
C238 C 0.70221 0.62023 0.99237 0.0
O239 O 0.71745 0.62789 0.94386 0.0
N240 N 0.69504 0.58602 0.87664 0.0
C241 C 0.68084 0.59289 0.77912 0.0
C242 C 0.68048 0.59066 0.85563 0.0
C243 C 0.70384 0.58521 0.81127 0.0
N244 N 0.69552 0.58943 0.75093 0.0
O245 O 0.72834 0.59785 0.96984 0.0
H246 H 0.66972 0.59166 0.89342 0.0
H247 H 0.71583 0.58122 0.8076 0.0
O248 O 0.69434 0.60142 1.01296 0.0
C249 C 0.73818 0.58903 0.94701 0.0
O250 O 0.72759 0.56985 0.92338 0.0
N251 N 0.67059 0.56024 0.98245 0.0
C252 C 0.63021 0.52755 0.99669 0.0
C253 C 0.63798 0.54437 0.0462 0.0
C254 C 0.65821 0.56066 0.03791 0.0
C255 C 0.66326 0.54405 0.93363 0.0
C256 C 0.643 0.52768 0.93903 0.0
H257 H 0.66415 0.57316 0.07798 0.0
H258 H 0.67338 0.54359 0.89136 0.0
H259 H 0.70204 0.59484 0.14792 0.0
H260 H 0.70757 0.54258 0.19316 0.0
H261 H 0.6704 0.5959 0.74659 0.0
H262 H 0.62859 0.54477 0.09165 0.0
H263 H 0.63768 0.5148 0.90048 0.0
C264 C 0.14393 0.6837 0.12005 0.0
C265 C 0.14831 0.68676 0.19532 0.0
N266 N 0.14105 0.69872 0.22258 0.0
N267 N 0.13341 0.69317 0.09907 0.0
C268 C 0.13269 0.70295 0.16216 0.0
H269 H 0.14769 0.67458 0.0832 0.0
Co270 Co 0.12367 0.69183 1.00004 0.0
C271 C 0.08435 0.68355 0.08836 0.0
O272 O 0.09003 0.68145 0.15599 0.0
N273 N 0.11447 0.69058 0.89997 0.0
C274 C 0.09386 0.67967 0.80013 0.0
C275 C 0.09494 0.67806 0.87648 0.0
C276 C 0.12504 0.69956 0.8361 0.0
N277 N 0.1128 0.69322 0.77412 0.0
O278 O 0.13575 0.72146 1.00082 0.0
H279 H 0.08232 0.66765 0.91214 0.0
H280 H 0.14145 0.71019 0.83488 0.0
O281 O 0.0966 0.68763 0.03277 0.0
C282 C 0.1545 0.72955 0.97996 0.0
O283 O 0.16156 0.71724 0.9611 0.0
N284 N 0.11354 0.66299 0.99782 0.0
C285 C 0.10675 0.62268 1.00196 0.0
C286 C 0.09731 0.6293 0.05421 0.0
C287 C 0.10083 0.64948 0.05105 0.0
C288 C 0.12242 0.65661 0.9453 0.0
C289 C 0.11901 0.63644 0.94571 0.0
H290 H 0.09448 0.65447 0.09473 0.0
H291 H 0.13302 0.66753 0.90489 0.0
H292 H 0.12582 0.71268 0.16388 0.0
H293 H 0.1555 0.67984 0.22777 0.0
H294 H 0.08021 0.67071 0.76634 0.0
H295 H 0.08781 0.61915 0.09876 0.0
H296 H 0.12684 0.63202 0.90501 0.0
C297 C 0.46608 0.14008 0.12747 0.0
C298 C 0.46735 0.14439 0.20275 0.0
N299 N 0.44812 0.13705 0.22979 0.0
N300 N 0.44613 0.12954 0.1063 0.0
C301 C 0.43558 0.12865 0.16931 0.0
H302 H 0.47899 0.14393 0.09067 0.0
Co303 Co 0.43797 0.12008 1.00709 0.0
C304 C 0.40549 0.08051 0.0923 0.0
O305 O 0.4124 0.08542 0.16132 0.0
N306 N 0.43027 0.1111 0.90675 0.0
C307 C 0.42111 0.0906 0.80672 0.0
C308 C 0.42388 0.0917 0.88299 0.0
C309 C 0.43141 0.12159 0.84306 0.0
N310 N 0.42582 0.10941 0.781 0.0
O311 O 0.42091 0.13271 1.00706 0.0
H312 H 0.4222 0.07922 0.9185 0.0
H313 H 0.43665 0.13791 0.84196 0.0
O314 O 0.4147 0.09318 0.03858 0.0
C315 C 0.4318 0.1515 0.9866 0.0
O316 O 0.45111 0.15832 0.96774 0.0
N317 N 0.45619 0.10938 1.00608 0.0
C318 C 0.48877 0.1012 1.01127 0.0
C319 C 0.47265 0.09225 0.06347 0.0
C320 C 0.45645 0.09646 0.05976 0.0
C321 C 0.47154 0.11788 0.9539 0.0
C322 C 0.48782 0.11376 0.9548 0.0
H323 H 0.44498 0.09042 0.10316 0.0
H324 H 0.47166 0.12866 0.91318 0.0
H325 H 0.41899 0.12181 0.17081 0.0
H326 H 0.48144 0.15164 0.23532 0.0
H327 H 0.41686 0.07707 0.77271 0.0
H328 H 0.4729 0.08258 0.10826 0.0
H329 H 0.50015 0.12125 0.91421 0.0
C330 C 0.32856 0.4632 0.11419 0.0
C331 C 0.3247 0.46368 0.18913 0.0
N332 N 0.31385 0.44413 0.21449 0.0
N333 N 0.32075 0.44347 0.09156 0.0
C334 C 0.3111 0.43217 0.15339 0.0
H335 H 0.33701 0.47654 0.07859 0.0
Co336 Co 0.32346 0.43682 0.99139 0.0
C337 C 0.33243 0.40484 0.07249 0.0
O338 O 0.33181 0.40973 0.14274 0.0
N339 N 0.32607 0.43075 0.88977 0.0
C340 C 0.34038 0.42591 0.78807 0.0
C341 C 0.34206 0.42895 0.86416 0.0
C342 C 0.31491 0.42892 0.82709 0.0
N343 N 0.32327 0.42586 0.76421 0.0
O344 O 0.29418 0.4178 0.98917 0.0
H345 H 0.35486 0.43088 0.8982 0.0
H346 H 0.30114 0.43016 0.82711 0.0
O347 O 0.32942 0.41463 1.01947 0.0
C348 C 0.2845 0.42706 0.96924 0.0
O349 O 0.29529 0.44651 0.94886 0.0
N350 N 0.35182 0.45689 0.99379 0.0
C351 C 0.39127 0.49175 1.00514 0.0
C352 C 0.38487 0.47499 0.05468 0.0
C353 C 0.36515 0.45768 0.04782 0.0
C354 C 0.35782 0.47276 0.94427 0.0
C355 C 0.37754 0.49007 0.94794 0.0
H356 H 0.36019 0.44562 0.08917 0.0
H357 H 0.347 0.47226 0.90286 0.0
H358 H 0.3022 0.41549 0.15359 0.0
H359 H 0.33027 0.4775 0.22278 0.0
H360 H 0.35156 0.42488 0.7527 0.0
H361 H 0.39454 0.47555 0.10085 0.0
H362 H 0.38171 0.50221 0.90701 0.0
C363 C 0.87461 0.32884 0.11743 0.0
C364 C 0.87042 0.3258 0.19278 0.0
N365 N 0.87827 0.31435 0.22009 0.0
N366 N 0.88556 0.31984 0.09647 0.0
C367 C 0.88685 0.31044 0.15971 0.0
H368 H 0.87034 0.33756 0.08044 0.0
Co369 Co 0.89503 0.321 0.99745 0.0
C370 C 0.93508 0.33059 0.08463 0.0
O371 O 0.92991 0.33323 0.15236 0.0
N372 N 0.9041 0.32215 0.89736 0.0
C373 C 0.92455 0.33378 0.79744 0.0
C374 C 0.92338 0.33549 0.87364 0.0
C375 C 0.89374 0.31257 0.83368 0.0
N376 N 0.9059 0.31935 0.77171 0.0
O377 O 0.88359 0.29146 0.99971 0.0
H378 H 0.93568 0.3466 0.909 0.0
H379 H 0.87751 0.30124 0.83247 0.0
O380 O 0.92238 0.326 0.03006 0.0
C381 C 0.86479 0.28306 0.9788 0.0
O382 O 0.85751 0.29512 0.95882 0.0
N383 N 0.90434 0.34962 0.9936 0.0
C384 C 0.90957 0.38945 0.99269 0.0
C385 C 0.92003 0.38391 0.04505 0.0
C386 C 0.91722 0.36394 0.04453 0.0
C387 C 0.89455 0.3549 0.94096 0.0
C388 C 0.89719 0.37473 0.93874 0.0
H389 H 0.92432 0.35973 0.08827 0.0
H390 H 0.88393 0.34336 0.90208 0.0
H391 H 0.8942 0.30114 0.16144 0.0
H392 H 0.86286 0.33234 0.22516 0.0
H393 H 0.93796 0.34331 0.76344 0.0
H394 H 0.92944 0.39449 0.08881 0.0
H395 H 0.88906 0.37824 0.8962 0.0
H396 H 0.11349 0.60642 0.12824 0.0
H397 H 0.09736 0.59314 0.89412 0.0
H398 H 0.11345 0.57383 0.14127 0.0
H399 H 0.09703 0.56029 0.90753 0.0
H400 H 0.0781 0.49383 0.99706 0.0
H401 H 0.07614 0.52534 0.985 0.0
H402 H 0.13683 0.56058 0.082 0.0
H403 H 0.13949 0.52955 0.09042 0.0
C404 C 0.10965 0.59637 0.07986 0.0
C405 C 0.10537 0.60226 1.0102 0.0
C406 C 0.10976 0.57782 0.08722 0.0
C407 C 0.10524 0.56457 0.02542 0.0
C408 C 0.10044 0.57018 0.95615 0.0
C409 C 0.10072 0.58897 0.9484 0.0
C410 C 0.09118 0.50828 1.01507 0.0
C411 C 0.10897 0.50893 0.04487 0.0
C412 C 0.08997 0.52631 1.00841 0.0
C413 C 0.10631 0.54535 0.03275 0.0
C414 C 0.1239 0.54604 0.06363 0.0
C415 C 0.12531 0.52814 0.06897 0.0
H416 H 0.61401 0.13319 0.0941 0.0
H417 H 0.58813 0.07098 1.00805 0.0
H418 H 0.58027 0.13029 0.08674 0.0
H419 H 0.55454 0.0688 0.99667 0.0
H420 H 0.50809 0.09074 0.9038 0.0
H421 H 0.54026 0.08975 0.91689 0.0
H422 H 0.54386 0.10672 0.15019 0.0
H423 H 0.51164 0.10738 0.13754 0.0
C424 C 0.60119 0.11877 0.07457 0.0
C425 C 0.60401 0.10225 0.05243 0.0
C426 C 0.58184 0.11723 0.06978 0.0
C427 C 0.56483 0.09933 0.04124 0.0
C428 C 0.56748 0.08283 1.01846 0.0
C429 C 0.58679 0.08418 0.02469 0.0
C430 C 0.51568 0.09403 0.95797 0.0
C431 C 0.50736 0.09907 1.0197 0.0
C432 C 0.53398 0.09337 0.96553 0.0
C433 C 0.54452 0.09819 0.03452 0.0
C434 C 0.53606 0.10299 0.09637 0.0
C435 C 0.51758 0.10324 0.08922 0.0
H436 H 0.42794 0.49653 0.06106 0.0
H437 H 0.40079 0.53165 0.97416 0.0
H438 H 0.46039 0.52866 0.0816 0.0
H439 H 0.43359 0.5633 0.99026 0.0
H440 H 0.5041 0.60941 0.94672 0.0
H441 H 0.47198 0.57656 0.9303 0.0
H442 H 0.47123 0.56414 0.16709 0.0
H443 H 0.50322 0.59741 0.18399 0.0
C444 C 0.42874 0.51094 0.04634 0.0
C445 C 0.41152 0.51123 1.01541 0.0
C446 C 0.44741 0.52933 0.05784 0.0
C447 C 0.44944 0.54837 0.03721 0.0
C448 C 0.43245 0.54876 1.00589 0.0
C449 C 0.41368 0.5305 0.99596 0.0
C450 C 0.49712 0.5996 0.99516 0.0
C451 C 0.50611 0.60586 0.0666 0.0
C452 C 0.47875 0.58089 0.9858 0.0
C453 C 0.46923 0.56787 0.04741 0.0
C454 C 0.47839 0.5739 0.11872 0.0
C455 C 0.49656 0.59289 0.12841 0.0
H456 H 0.94216 0.42742 0.03421 0.0
H457 H 0.87838 0.39767 0.96371 0.0
H458 H 0.94216 0.45981 0.04997 0.0
H459 H 0.87888 0.43016 0.97407 0.0
H460 H 0.87703 0.48385 0.07676 0.0
H461 H 0.8786 0.45243 0.06533 0.0
H462 H 0.94154 0.48765 0.98762 0.0
H463 H 0.94046 0.51946 1.00437 0.0
C464 C 0.92817 0.42775 0.02158 0.0
C465 C 0.91027 0.40977 0.99765 0.0
C466 C 0.92826 0.44645 0.02972 0.0
C467 C 0.91048 0.44769 1.01379 0.0
C468 C 0.89277 0.42981 0.98835 0.0
C469 C 0.89261 0.41114 0.98098 0.0
C470 C 0.8914 0.48507 0.05874 0.0
C471 C 0.90866 0.50437 0.04195 0.0
C472 C 0.89218 0.46689 0.05078 0.0
C473 C 0.91013 0.46734 0.02468 0.0
C474 C 0.92748 0.48664 1.00841 0.0
C475 C 0.92677 0.50491 1.0171 0.0
H476 H 0.4242 0.92188 0.15307 0.0
H477 H 0.41251 0.90478 0.91952 0.0
H478 H 0.45784 0.92423 0.14352 0.0
H479 H 0.44545 0.90587 0.91028 0.0
H480 H 0.51201 0.92266 0.89507 0.0
H481 H 0.48087 0.92526 0.905 0.0
H482 H 0.47365 0.9046 0.13562 0.0
H483 H 0.50538 0.90327 0.12615 0.0
C484 C 0.42887 0.91857 0.09973 0.0
C485 C 0.41584 0.91327 0.03697 0.0
C486 C 0.44809 0.91974 0.09419 0.0
C487 C 0.45454 0.91515 0.02611 0.0
C488 C 0.44141 0.90997 0.96328 0.0
C489 C 0.42241 0.90922 0.96853 0.0
C490 C 0.50378 0.91888 0.94791 0.0
C491 C 0.51112 0.91285 1.00988 0.0
C492 C 0.48582 0.92019 0.95366 0.0
C493 C 0.47447 0.91505 0.02111 0.0
C494 C 0.48203 0.90913 0.08316 0.0
C495 C 0.5002 0.90823 0.07776 0.0
H496 H 0.61435 0.50581 0.12576 0.0
H497 H 0.59943 0.50785 0.89298 0.0
H498 H 0.58128 0.47399 0.14271 0.0
H499 H 0.56611 0.47617 0.91039 0.0
H500 H 0.50011 0.42969 1.00845 0.0
H501 H 0.53165 0.46304 0.99419 0.0
H502 H 0.56743 0.43693 0.08079 0.0
H503 H 0.53644 0.40341 0.09084 0.0
C504 C 0.60384 0.49963 0.0786 0.0
C505 C 0.60943 0.50927 1.00805 0.0
C506 C 0.585 0.4814 0.0882 0.0
C507 C 0.57119 0.47266 0.02785 0.0
C508 C 0.57645 0.48267 0.95791 0.0
C509 C 0.5955 0.50069 0.94788 0.0
C510 C 0.51467 0.43089 0.02373 0.0
C511 C 0.51548 0.41362 0.05125 0.0
C512 C 0.53271 0.45007 1.0159 0.0
C513 C 0.55191 0.45255 0.03688 0.0
C514 C 0.55277 0.43551 0.06527 0.0
C515 C 0.53487 0.41627 0.07159 0.0
H516 H 0.25903 0.43081 0.87109 0.0
H517 H 0.25934 0.40335 0.08354 0.0
H518 H 0.22384 0.42332 0.89391 0.0
H519 H 0.224 0.3961 0.10742 0.0
H520 H 0.18569 0.43073 0.15624 0.0
H521 H 0.21321 0.42301 0.13253 0.0
H522 H 0.18598 0.39674 0.91774 0.0
H523 H 0.15804 0.4042 0.94255 0.0
C524 C 0.25127 0.42255 0.92168 0.0
C525 C 0.26186 0.4176 0.97543 0.0
C526 C 0.23106 0.41819 0.93468 0.0
C527 C 0.22111 0.40919 1.00263 0.0
C528 C 0.23127 0.40307 0.05455 0.0
C529 C 0.25141 0.40706 0.04071 0.0
C530 C 0.1852 0.42265 0.10509 0.0
C531 C 0.16973 0.41801 0.05133 0.0
C532 C 0.20093 0.41815 0.09159 0.0
C533 C 0.20185 0.40931 0.02313 0.0
C534 C 0.18569 0.40356 0.97101 0.0
C535 C 0.16963 0.40768 0.98535 0.0
H536 H 0.83773 0.26104 0.87019 0.0
H537 H 0.85863 0.25466 0.08894 0.0
H538 H 0.80741 0.22687 0.88195 0.0
H539 H 0.82778 0.22019 0.10147 0.0
H540 H 0.76725 0.15283 0.0637 0.0
H541 H 0.80294 0.18108 0.04071 0.0
H542 H 0.77941 0.22123 0.97879 0.0
H543 H 0.74455 0.19376 1.00221 0.0
C544 C 0.83614 0.25199 0.91986 0.0
C545 C 0.85046 0.2605 0.97874 0.0
C546 C 0.81875 0.23244 0.92669 0.0
C547 C 0.81505 0.22097 0.99307 0.0
C548 C 0.83029 0.22864 0.0495 0.0
C549 C 0.84795 0.24832 0.04232 0.0
C550 C 0.76984 0.16769 0.04474 0.0
C551 C 0.75309 0.17107 0.035 0.0
C552 C 0.7902 0.18383 0.03199 0.0
C553 C 0.79394 0.20332 1.00736 0.0
C554 C 0.77708 0.20638 0.99681 0.0
C555 C 0.75704 0.19059 1.01078 0.0
H556 H 0.59261 0.76322 0.18572 0.0
H557 H 0.60844 0.75574 0.95973 0.0
H558 H 0.59884 0.79759 0.15474 0.0
H559 H 0.61459 0.79033 0.92812 0.0
H560 H 0.61559 0.86184 0.08923 0.0
H561 H 0.62315 0.83394 0.11364 0.0
H562 H 0.58854 0.80193 0.9158 0.0
H563 H 0.58094 0.82952 0.89219 0.0
C564 C 0.598 0.76919 0.12984 0.0
C565 C 0.59996 0.75676 0.07508 0.0
C566 C 0.60167 0.78897 0.11216 0.0
C567 C 0.60709 0.79671 0.0388 0.0
C568 C 0.61032 0.78477 0.98507 0.0
C569 C 0.60696 0.76503 1.00324 0.0
C570 C 0.61018 0.84914 0.04987 0.0
C571 C 0.59762 0.8478 0.989 0.0
C572 C 0.61436 0.83309 0.06406 0.0
C573 C 0.60637 0.81563 1.01683 0.0
C574 C 0.59513 0.81518 0.95292 0.0
C575 C 0.59067 0.83096 0.93959 0.0
H576 H 0.76477 0.58438 0.85743 0.0
H577 H 0.76202 0.61319 0.0634 0.0
H578 H 0.79952 0.59178 0.88893 0.0
H579 H 0.79689 0.62037 0.09589 0.0
H580 H 0.83451 0.58622 0.16352 0.0
H581 H 0.80734 0.59376 0.13029 0.0
H582 H 0.83702 0.61839 0.91752 0.0
H583 H 0.86455 0.61109 0.95177 0.0
C584 C 0.77189 0.59289 0.90843 0.0
C585 C 0.76071 0.59823 0.9579 0.0
C586 C 0.79185 0.59719 0.92641 0.0
C587 C 0.80097 0.60658 0.99511 0.0
C588 C 0.79026 0.61308 0.0426 0.0
C589 C 0.77037 0.60913 0.02379 0.0
C590 C 0.83561 0.59391 0.11075 0.0
C591 C 0.85164 0.5981 0.06031 0.0
C592 C 0.82007 0.5983 0.09176 0.0
C593 C 0.81993 0.60659 0.02109 0.0
C594 C 0.83668 0.61196 0.97233 0.0
C595 C 0.85252 0.60794 0.99212 0.0
H596 H 0.16161 0.7586 0.08855 0.0
H597 H 0.18083 0.75084 0.86881 0.0
H598 H 0.19259 0.79308 0.0977 0.0
H599 H 0.21123 0.78507 0.87699 0.0
H600 H 0.2752 0.8196 0.98771 0.0
H601 H 0.24028 0.79194 0.96681 0.0
H602 H 0.21674 0.83134 0.03884 0.0
H603 H 0.25249 0.85974 0.05949 0.0
C604 C 0.17196 0.76464 0.04103 0.0
C605 C 0.16895 0.75207 0.97813 0.0
C606 C 0.18969 0.78433 0.04626 0.0
C607 C 0.20452 0.79163 0.98853 0.0
C608 C 0.20028 0.77976 0.92285 0.0
C609 C 0.18282 0.76019 0.918 0.0
C610 C 0.26269 0.82256 0.99892 0.0
C611 C 0.26666 0.84189 0.02544 0.0
C612 C 0.2426 0.80668 0.98635 0.0
C613 C 0.2257 0.80945 1.00055 0.0
C614 C 0.22949 0.82879 0.02726 0.0
C615 C 0.24988 0.84502 0.03867 0.0
H616 H 0.43738 0.17847 0.87686 0.0
H617 H 0.41013 0.15868 0.0959 0.0
H618 H 0.43407 0.20916 0.88668 0.0
H619 H 0.4072 0.18997 0.1068 0.0
H620 H 0.40163 0.25065 0.07387 0.0
H621 H 0.39376 0.21478 0.05117 0.0
H622 H 0.4563 0.23786 0.97606 0.0
H623 H 0.46404 0.27287 0.99882 0.0
C624 C 0.43009 0.18042 0.92627 0.0
C625 C 0.42409 0.16627 0.98569 0.0
C626 C 0.42827 0.19804 0.93207 0.0
C627 C 0.42073 0.20221 0.99809 0.0
C628 C 0.413 0.18715 0.05512 0.0
C629 C 0.41463 0.16924 0.04889 0.0
C630 C 0.41353 0.24791 0.0519 0.0
C631 C 0.43347 0.26459 0.03839 0.0
C632 C 0.40908 0.22745 0.03931 0.0
C633 C 0.42437 0.22349 1.01116 0.0
C634 C 0.44407 0.2403 0.99665 0.0
C635 C 0.44855 0.26044 1.01032 0.0
H636 H 0.10109 0.39473 0.37285 0.0
H637 H 0.1483 0.4579 0.33814 0.0
H638 H 0.10927 0.39785 0.50635 0.0
H639 H 0.15577 0.46183 0.47248 0.0
H640 H 0.17295 0.46284 0.71455 0.0
H641 H 0.16889 0.45598 0.57986 0.0
H642 H 0.10458 0.41086 0.61506 0.0
H643 H 0.10929 0.41696 0.74944 0.0
C644 C 0.11329 0.40931 0.39427 0.0
C645 C 0.12409 0.42606 0.34546 0.0
C646 C 0.11787 0.41125 0.47106 0.0
C647 C 0.13303 0.43023 0.5017 0.0
C648 C 0.14423 0.44684 0.45185 0.0
C649 C 0.13995 0.44469 0.3746 0.0
C650 C 0.15808 0.45122 0.69313 0.0
C651 C 0.14146 0.44039 0.74248 0.0
C652 C 0.15562 0.4474 0.61569 0.0
C653 C 0.13631 0.43296 0.58518 0.0
C654 C 0.11983 0.42179 0.63542 0.0
C655 C 0.12245 0.42531 0.71293 0.0
H656 H 0.69617 0.0892 0.38851 0.0
H657 H 0.71282 0.15188 0.33379 0.0
H658 H 0.6997 0.09751 0.52054 0.0
H659 H 0.71788 0.16073 0.46689 0.0
H660 H 0.69568 0.16102 0.70728 0.0
H661 H 0.69876 0.15643 0.5747 0.0
H662 H 0.71967 0.11333 0.62499 0.0
H663 H 0.71504 0.11674 0.7581 0.0
C664 C 0.70079 0.10488 0.40444 0.0
C665 C 0.70369 0.1197 0.34978 0.0
C666 C 0.7032 0.10978 0.48086 0.0
C667 C 0.70895 0.12982 0.50557 0.0
C668 C 0.71299 0.14499 0.45066 0.0
C669 C 0.71034 0.13999 0.37386 0.0
C670 C 0.70082 0.15043 0.69063 0.0
C671 C 0.70457 0.13888 0.74452 0.0
C672 C 0.70294 0.14804 0.61379 0.0
C673 C 0.70922 0.13427 0.58798 0.0
C674 C 0.71426 0.12369 0.64203 0.0
C675 C 0.71186 0.12587 0.71903 0.0
H676 H 0.56011 0.69503 0.36685 0.0
H677 H 0.61686 0.69475 0.40632 0.0
H678 H 0.55359 0.69255 0.50147 0.0
H679 H 0.61025 0.69188 0.54096 0.0
H680 H 0.60352 0.71147 0.77868 0.0
H681 H 0.60978 0.71214 0.64409 0.0
H682 H 0.54482 0.67003 0.6071 0.0
H683 H 0.53863 0.66974 0.74135 0.0
C684 C 0.57103 0.69411 0.40427 0.0
C685 C 0.58903 0.69515 0.37607 0.0
C686 C 0.56731 0.69267 0.4815 0.0
C687 C 0.58144 0.69208 0.53224 0.0
C688 C 0.59924 0.69271 0.50371 0.0
C689 C 0.60302 0.69429 0.42657 0.0
C690 C 0.59065 0.70223 0.74177 0.0
C691 C 0.57058 0.69067 0.7705 0.0
C692 C 0.59421 0.70256 0.66462 0.0
C693 C 0.57778 0.6912 0.61457 0.0
C694 C 0.55777 0.6793 0.64372 0.0
C695 C 0.55422 0.6791 0.7207 0.0
H696 H 0.93143 0.61181 0.39128 0.0
H697 H 0.86893 0.56452 0.34165 0.0
H698 H 0.92394 0.60711 0.52483 0.0
H699 H 0.86112 0.56038 0.47567 0.0
H700 H 0.8638 0.53952 0.71669 0.0
H701 H 0.86925 0.54615 0.58287 0.0
H702 H 0.90568 0.61158 0.62692 0.0
H703 H 0.90028 0.60488 0.76146 0.0
C704 C 0.91601 0.6005 0.40881 0.0
C705 C 0.90088 0.58837 0.35543 0.0
C706 C 0.91163 0.59797 0.48562 0.0
C707 C 0.89195 0.58326 0.51145 0.0
C708 C 0.87656 0.57164 0.45798 0.0
C709 C 0.88096 0.57418 0.38093 0.0
C710 C 0.87276 0.55536 0.69808 0.0
C711 C 0.88158 0.57166 0.75032 0.0
C712 C 0.87585 0.55918 0.62098 0.0
C713 C 0.88786 0.57942 0.59367 0.0
C714 C 0.89656 0.59576 0.64582 0.0
C715 C 0.89349 0.59193 0.72312 0.0
H716 H 0.30906 0.84468 0.7102 0.0
H717 H 0.31983 0.90636 0.74242 0.0
H718 H 0.30496 0.84744 0.57551 0.0
H719 H 0.31709 0.90989 0.60788 0.0
H720 H 0.30288 0.91073 0.36606 0.0
H721 H 0.29851 0.90265 0.49966 0.0
H722 H 0.32314 0.86172 0.46746 0.0
H723 H 0.326 0.86896 0.33299 0.0
C724 C 0.31047 0.85882 0.68818 0.0
C725 C 0.31471 0.87528 0.73675 0.0
C726 C 0.30834 0.86055 0.61074 0.0
C727 C 0.31088 0.87899 0.57943 0.0
C728 C 0.31459 0.89525 0.62892 0.0
C729 C 0.31625 0.89331 0.70649 0.0
C730 C 0.30691 0.89969 0.38784 0.0
C731 C 0.31471 0.89041 0.33952 0.0
C732 C 0.30469 0.89521 0.46468 0.0
C733 C 0.3108 0.88175 0.49583 0.0
C734 C 0.31795 0.87193 0.4464 0.0
C735 C 0.31968 0.87607 0.36908 0.0
H736 H 0.46589 0.32061 0.34876 0.0
H737 H 0.40226 0.30324 0.37891 0.0
H738 H 0.46931 0.31691 0.48332 0.0
H739 H 0.40481 0.29788 0.51268 0.0
H740 H 0.42322 0.31884 0.7557 0.0
H741 H 0.41694 0.31595 0.62111 0.0
H742 H 0.46378 0.29872 0.59191 0.0
H743 H 0.4708 0.30312 0.72647 0.0
C744 C 0.45245 0.31526 0.38427 0.0
C745 C 0.43383 0.31216 0.35393 0.0
C746 C 0.45429 0.31306 0.46165 0.0
C747 C 0.43739 0.30729 0.51038 0.0
C748 C 0.4184 0.30295 0.47831 0.0
C749 C 0.41677 0.30569 0.40139 0.0
C750 C 0.43187 0.31409 0.72041 0.0
C751 C 0.44751 0.31125 0.75139 0.0
C752 C 0.42827 0.31233 0.64283 0.0
C753 C 0.43992 0.30721 0.59415 0.0
C754 C 0.45482 0.30325 0.62639 0.0
C755 C 0.45873 0.30552 0.70377 0.0
H756 H 0.60813 0.90153 0.29005 0.0
H757 H 0.54662 0.85204 0.33964 0.0
H758 H 0.61588 0.90621 0.42358 0.0
H759 H 0.55382 0.85769 0.47257 0.0
H760 H 0.57293 0.86473 0.71391 0.0
H761 H 0.57016 0.85594 0.58118 0.0
H762 H 0.60878 0.92051 0.52666 0.0
H763 H 0.61272 0.92903 0.65855 0.0
C764 C 0.59626 0.89151 0.32902 0.0
C765 C 0.57658 0.87663 0.30314 0.0
C766 C 0.60062 0.89439 0.40616 0.0
C767 C 0.58539 0.88263 0.45986 0.0
C768 C 0.56608 0.86705 0.43371 0.0
C769 C 0.56181 0.86401 0.35676 0.0
C770 C 0.58117 0.87702 0.67387 0.0
C771 C 0.59278 0.89768 0.69783 0.0
C772 C 0.57937 0.872 0.59721 0.0
C773 C 0.58903 0.88749 0.54217 0.0
C774 C 0.60124 0.90802 0.56658 0.0
C775 C 0.60321 0.91299 0.64295 0.0
H776 H 0.71107 0.56718 0.68565 0.0
H777 H 0.68962 0.60986 0.63666 0.0
H778 H 0.71562 0.56395 0.55172 0.0
H779 H 0.69334 0.606 0.50303 0.0
H780 H 0.71736 0.60705 0.26731 0.0
H781 H 0.71732 0.61312 0.40196 0.0
H782 H 0.69382 0.54826 0.44383 0.0
H783 H 0.69391 0.54225 0.31 0.0
C784 C 0.7075 0.57603 0.64653 0.0
C785 C 0.6998 0.58865 0.6722 0.0
C786 C 0.70988 0.57399 0.56954 0.0
C787 C 0.70467 0.58456 0.51625 0.0
C788 C 0.69765 0.59772 0.54218 0.0
C789 C 0.69527 0.59975 0.61901 0.0
C790 C 0.71212 0.59408 0.3052 0.0
C791 C 0.70568 0.57416 0.2774 0.0
C792 C 0.71211 0.59756 0.38253 0.0
C793 C 0.70564 0.58119 0.43406 0.0
C794 C 0.69932 0.56132 0.40617 0.0
C795 C 0.69934 0.55786 0.32906 0.0
H796 H 0.1641 0.69716 0.33822 0.0
H797 H 0.11533 0.71028 0.28782 0.0
H798 H 0.15837 0.6986 0.47106 0.0
H799 H 0.11058 0.71324 0.42129 0.0
H800 H 0.08735 0.68738 0.65579 0.0
H801 H 0.09596 0.69184 0.52411 0.0
H802 H 0.16029 0.71664 0.57986 0.0
H803 H 0.1514 0.71075 0.71238 0.0
C804 C 0.15228 0.7006 0.35515 0.0
C805 C 0.13988 0.7031 0.3013 0.0
C806 C 0.14918 0.70176 0.43207 0.0
C807 C 0.13378 0.70577 0.45798 0.0
C808 C 0.12225 0.70957 0.40407 0.0
C809 C 0.12518 0.70817 0.32696 0.0
C810 C 0.10335 0.69361 0.64056 0.0
C811 C 0.11855 0.69822 0.6958 0.0
C812 C 0.10838 0.69655 0.56427 0.0
C813 C 0.12887 0.70453 0.54022 0.0
C814 C 0.14426 0.71006 0.59557 0.0
C815 C 0.13918 0.70689 0.67216 0.0
H816 H 0.41089 0.11134 0.29492 0.0
H817 H 0.47262 0.16039 0.34512 0.0
H818 H 0.40313 0.1068 0.42837 0.0
H819 H 0.4654 0.15487 0.47797 0.0
H820 H 0.4464 0.14803 0.71907 0.0
H821 H 0.44918 0.15683 0.58637 0.0
H822 H 0.41005 0.09233 0.5315 0.0
H823 H 0.40612 0.08382 0.66334 0.0
C824 C 0.4228 0.12129 0.33401 0.0
C825 C 0.44254 0.136 0.30836 0.0
C826 C 0.41843 0.11848 0.4111 0.0
C827 C 0.43371 0.13016 0.46494 0.0
C828 C 0.4531 0.14558 0.43899 0.0
C829 C 0.45738 0.14855 0.3621 0.0
C830 C 0.43806 0.13576 0.67896 0.0
C831 C 0.42631 0.11511 0.70279 0.0
C832 C 0.43985 0.14079 0.60232 0.0
C833 C 0.43006 0.12532 0.5472 0.0
C834 C 0.41771 0.10481 0.57149 0.0
C835 C 0.41574 0.09983 0.64783 0.0
H836 H 0.33247 0.40851 0.64778 0.0
H837 H 0.29941 0.44031 0.70299 0.0
H838 H 0.32622 0.41057 0.51574 0.0
H839 H 0.29192 0.44124 0.57014 0.0
H840 H 0.31034 0.46631 0.32864 0.0
H841 H 0.30906 0.45923 0.46173 0.0
H842 H 0.30402 0.40028 0.41279 0.0
H843 H 0.3067 0.40807 0.27914 0.0
C844 C 0.32366 0.41579 0.63193 0.0
C845 C 0.31687 0.42465 0.68659 0.0
C846 C 0.31974 0.41667 0.55566 0.0
C847 C 0.30865 0.42621 0.53126 0.0
C848 C 0.30087 0.43411 0.58625 0.0
C849 C 0.30496 0.43337 0.66285 0.0
C850 C 0.30897 0.45182 0.34594 0.0
C851 C 0.30914 0.43802 0.29251 0.0
C852 C 0.30792 0.44759 0.42284 0.0
C853 C 0.30673 0.42927 0.44898 0.0
C854 C 0.30545 0.4148 0.3953 0.0
C855 C 0.3067 0.41914 0.31819 0.0
H856 H 0.86732 0.30101 0.70926 0.0
H857 H 0.93159 0.32555 0.65451 0.0
H858 H 0.85862 0.29514 0.57637 0.0
H859 H 0.92317 0.32112 0.52249 0.0
H860 H 0.9044 0.30328 0.28536 0.0
H861 H 0.90898 0.29996 0.41875 0.0
H862 H 0.86043 0.31343 0.46834 0.0
H863 H 0.85486 0.31521 0.33552 0.0
C864 C 0.87962 0.30509 0.6693 0.0
C865 C 0.90025 0.31412 0.69344 0.0
C866 C 0.87465 0.30196 0.59256 0.0
C867 C 0.89017 0.30787 0.53766 0.0
C868 C 0.91066 0.31613 0.56228 0.0
C869 C 0.91558 0.31904 0.63871 0.0
C870 C 0.89435 0.30506 0.3244 0.0
C871 C 0.87948 0.3099 0.29872 0.0
C872 C 0.89719 0.30344 0.40148 0.0
C873 C 0.88537 0.3068 0.45533 0.0
C874 C 0.86982 0.31061 0.42936 0.0
C875 C 0.86683 0.31197 0.35246 0.0
H876 H 0.05241 0.39545 0.86687 0.0
H877 H 0.06962 0.38234 0.08265 0.0
H878 H 0.01621 0.37406 0.89873 0.0
H879 H 0.0332 0.36075 0.1147 0.0
H880 H 0.96846 0.35089 0.17785 0.0
H881 H 1.00475 0.36594 0.14603 0.0
H882 H 0.98795 0.34005 0.9231 0.0
H883 H 0.95157 0.32517 0.95476 0.0
C884 C 0.04851 0.38774 0.92079 0.0
C885 C 0.06402 0.391 0.97277 0.0
C886 C 0.02765 0.37535 0.93902 0.0
C887 C 0.02166 0.36576 1.00968 0.0
C888 C 0.03719 0.36822 0.06036 0.0
C889 C 0.05811 0.38062 0.04201 0.0
C890 C 0.97244 0.34811 0.12235 0.0
C891 C 0.95701 0.33708 0.06849 0.0
C892 C 0.99334 0.35671 0.10413 0.0
C893 C 0.9994 0.35445 0.03163 0.0
C894 C 0.98392 0.3425 0.97899 0.0
C895 C 0.96301 0.33391 0.99722 0.0
H896 H 0.63424 0.94879 0.95764 0.0
H897 H 0.62579 0.9658 0.18083 0.0
H898 H 0.65558 0.98521 0.9254 0.0
H899 H 0.64664 1.00207 0.14839 0.0
H900 H 0.69364 0.06706 0.08706 0.0
H901 H 0.67934 0.03068 0.11844 0.0
H902 H 0.65082 0.01366 0.89936 0.0
H903 H 0.66545 0.04989 0.86768 0.0
C904 C 0.63699 0.96028 0.99996 0.0
C905 C 0.62804 0.9543 0.07153 0.0
C906 C 0.64918 0.98121 0.98139 0.0
C907 C 0.65273 0.99674 0.03388 0.0
C908 C 0.64452 0.99068 0.10654 0.0
C909 C 0.63243 0.96977 0.12516 0.0
C910 C 0.68447 0.05555 0.04536 0.0
C911 C 0.6805 0.06147 0.97519 0.0
C912 C 0.67618 0.03463 0.06346 0.0
C913 C 0.66365 0.01906 1.0119 0.0
C914 C 0.66053 0.02508 0.94043 0.0
C915 C 0.66889 0.04597 0.92226 0.0
H916 H 0.67217 0.61069 0.09717 0.0
H917 H 0.70632 0.65493 0.92325 0.0
H918 H 0.64999 0.62561 0.11081 0.0
H919 H 0.6837 0.6696 0.93564 0.0
H920 H 0.64594 0.69974 0.03185 0.0
H921 H 0.67144 0.68847 1.01362 0.0
H922 H 0.62301 0.62495 0.03684 0.0
H923 H 0.5981 0.63625 0.05689 0.0
C924 C 0.67506 0.62371 0.06219 0.0
C925 C 0.69093 0.63145 1.00868 0.0
C926 C 0.6622 0.63218 0.06948 0.0
C927 C 0.66471 0.64853 0.02301 0.0
C928 C 0.68129 0.65703 0.97227 0.0
C929 C 0.69427 0.6486 0.96524 0.0
C930 C 0.64082 0.68339 0.03116 0.0
C931 C 0.62012 0.66884 0.04594 0.0
C932 C 0.65539 0.67691 0.02125 0.0
C933 C 0.64939 0.6558 0.02583 0.0
C934 C 0.62837 0.64135 0.03552 0.0
C935 C 0.61401 0.64779 0.04601 0.0
H936 H 0.067 0.69199 0.96682 0.0
H937 H 0.05152 0.65853 0.17647 0.0
H938 H 0.03005 0.67737 0.93952 0.0
H939 H 0.01494 0.64367 0.14793 0.0
H940 H 0.95568 0.601 1.0095 0.0
H941 H 0.99313 0.61841 0.02176 0.0
H942 H 0.99609 0.67746 0.02343 0.0
H943 H 0.95836 0.66008 1.0134 0.0
C944 C 0.05578 0.68168 1.0072 0.0
C945 C 0.06224 0.67648 0.07391 0.0
C946 C 0.03469 0.67334 0.99152 0.0
C947 C 0.01975 0.6593 0.04144 0.0
C948 C 0.02619 0.65437 0.10841 0.0
C949 C 0.04716 0.66301 0.12485 0.0
C950 C 0.96423 0.61771 1.01111 0.0
C951 C 0.95391 0.62912 1.01114 0.0
C952 C 0.98569 0.62764 1.0184 0.0
C953 C 0.9974 0.64922 0.02398 0.0
C954 C 0.98735 0.66079 1.01909 0.0
C955 C 0.96578 0.65082 1.01338 0.0
H956 H 0.32354 0.94584 0.08023 0.0
H957 H 0.35415 0.96439 0.86565 0.0
H958 H 0.33762 0.98208 0.11442 0.0
H959 H 0.36836 1.00039 0.89979 0.0
H960 H 0.38439 0.06477 0.96026 0.0
H961 H 0.36294 0.02854 0.92568 0.0
H962 H 0.37048 0.01055 0.14873 0.0
H963 H 0.39153 0.04668 0.18348 0.0
C964 C 0.33321 0.95762 0.04027 0.0
C965 C 0.33799 0.95214 0.97074 0.0
C966 C 0.34133 0.97843 0.05988 0.0
C967 C 0.35437 0.9943 1.01032 0.0
C968 C 0.35823 0.98872 0.93929 0.0
C969 C 0.3501 0.96796 0.91971 0.0
C970 C 0.38131 0.05309 1.00212 0.0
C971 C 0.38999 0.05871 0.07432 0.0
C972 C 0.36904 0.03226 0.98222 0.0
C973 C 0.36513 0.01648 0.034 0.0
C974 C 0.37294 0.02217 0.10739 0.0
C975 C 0.38514 0.04299 0.12732 0.0
H976 H 0.3341 0.37664 0.16634 0.0
H977 H 0.34713 0.3991 0.9389 0.0
H978 H 0.34886 0.35476 0.14152 0.0
H979 H 0.36374 0.37916 0.9156 0.0
H980 H 0.38786 0.33707 0.87001 0.0
H981 H 0.36476 0.3504 0.89274 0.0
H982 H 0.3779 0.3534 0.13061 0.0
H983 H 0.39889 0.33783 0.10782 0.0
C984 C 0.34026 0.37705 0.111 0.0
C985 C 0.33971 0.39002 0.05501 0.0
C986 C 0.34903 0.36462 0.09678 0.0
C987 C 0.35807 0.3652 0.02666 0.0
C988 C 0.35684 0.37776 0.97013 0.0
C989 C 0.3475 0.38964 0.98378 0.0
C990 C 0.38554 0.34028 0.92735 0.0
C991 C 0.39592 0.33698 0.98687 0.0
C992 C 0.37243 0.34828 0.94053 0.0
C993 C 0.36971 0.35384 1.01355 0.0
C994 C 0.3793 0.34945 0.07339 0.0
C995 C 0.39184 0.34079 0.06027 0.0
loop_
_geom_bond_atom_site_label_1
_geom_bond_atom_site_label_2
_geom_bond_distance
_geom_bond_site_symmetry_2
_ccdc_geom_bond_type
C0 C1 1.351 . S
C0 N3 1.368 . S
C0 H5 0.931 . S
C1 C0 1.351 . S
C1 N2 1.373 . S
C1 H29 0.930 . S
N2 C1 1.373 . S
N2 C4 1.340 . S
N3 C0 1.368 . S
N3 C4 1.321 . S
N3 Co6 2.135 1_556 S
C4 N2 1.340 . S
C4 N3 1.321 . S
C4 H28 0.930 . S
H5 C0 0.931 . S
Co6 N3 2.135 1_554 S
Co6 N9 2.121 . S
Co6 O14 2.055 . S
Co6 O17 2.039 1_554 S
Co6 N20 2.140 . S
C7 O8 1.227 . S
C7 O17 1.265 . S
O8 C7 1.227 . S
N9 Co6 2.121 . S
N9 C11 1.375 . S
N9 C12 1.313 . S
C10 C11 1.338 . S
C10 N13 1.377 . S
C10 H30 0.930 . S
C11 N9 1.375 . S
C11 C10 1.338 . S
C11 H15 0.931 . S
C12 N9 1.313 . S
C12 N13 1.344 . S
C12 H16 0.930 . S
N13 C10 1.377 . S
N13 C12 1.344 . S
O14 Co6 2.055 . S
O14 C18 1.253 . S
H15 C11 0.931 . S
H16 C12 0.930 . S
O17 Co6 2.039 1_556 S
O17 C7 1.265 . S
C18 O14 1.253 . S
C18 O19 1.227 . S
O19 C18 1.227 . S
N20 Co6 2.140 . S
N20 C23 1.346 1_554 S
N20 C24 1.345 . S
C21 C22 1.388 . S
C21 C25 1.390 1_556 S
C22 C21 1.388 . S
C22 C23 1.369 . S
C22 H31 0.929 . S
C23 N20 1.346 1_556 S
C23 C22 1.369 . S
C23 H26 0.928 . S
C24 N20 1.345 . S
C24 C25 1.371 . S
C24 H27 0.931 . S
C25 C21 1.390 1_554 S
C25 C24 1.371 . S
C25 H32 0.930 . S
H26 C23 0.928 . S
H27 C24 0.931 . S
H28 C4 0.930 . S
H29 C1 0.930 . S
H30 C10 0.930 . S
H31 C22 0.929 . S
H32 C25 0.930 . S
C33 C34 1.351 . S
C33 N36 1.368 . S
C33 H38 0.931 . S
C34 C33 1.351 . S
C34 N35 1.373 . S
C34 H62 0.930 . S
N35 C34 1.373 . S
N35 C37 1.340 . S
N36 C33 1.368 . S
N36 C37 1.321 . S
N36 Co39 2.135 1_556 S
C37 N35 1.340 . S
C37 N36 1.321 . S
C37 H61 0.930 . S
H38 C33 0.931 . S
Co39 N36 2.135 1_554 S
Co39 N42 2.121 . S
Co39 O47 2.055 . S
Co39 O50 2.039 1_554 S
Co39 N53 2.140 . S
C40 O41 1.227 . S
C40 O50 1.265 . S
O41 C40 1.227 . S
N42 Co39 2.121 . S
N42 C44 1.375 . S
N42 C45 1.313 . S
C43 C44 1.338 . S
C43 N46 1.377 . S
C43 H63 0.930 . S
C44 N42 1.375 . S
C44 C43 1.338 . S
C44 H48 0.931 . S
C45 N42 1.313 . S
C45 N46 1.344 . S
C45 H49 0.930 . S
N46 C43 1.377 . S
N46 C45 1.344 . S
O47 Co39 2.055 . S
O47 C51 1.253 . S
H48 C44 0.931 . S
H49 C45 0.930 . S
O50 Co39 2.039 1_556 S
O50 C40 1.265 . S
C51 O47 1.253 . S
C51 O52 1.227 . S
O52 C51 1.227 . S
N53 Co39 2.140 . S
N53 C56 1.346 1_554 S
N53 C57 1.345 . S
C54 C55 1.388 . S
C54 C58 1.390 1_556 S
C55 C54 1.388 . S
C55 C56 1.369 . S
C55 H64 0.929 . S
C56 N53 1.346 1_556 S
C56 C55 1.369 . S
C56 H59 0.928 . S
C57 N53 1.345 . S
C57 C58 1.371 . S
C57 H60 0.931 . S
C58 C54 1.390 1_554 S
C58 C57 1.371 . S
C58 H65 0.930 . S
H59 C56 0.928 . S
H60 C57 0.931 . S
H61 C37 0.930 . S
H62 C34 0.930 . S
H63 C43 0.930 . S
H64 C55 0.929 . S
H65 C58 0.930 . S
C66 C67 1.351 . S
C66 N69 1.368 . S
C66 H71 0.931 . S
C67 C66 1.351 . S
C67 N68 1.373 . S
C67 H95 0.930 . S
N68 C67 1.373 . S
N68 C70 1.340 . S
N69 C66 1.368 . S
N69 C70 1.321 . S
N69 Co72 2.135 1_556 S
C70 N68 1.340 . S
C70 N69 1.321 . S
C70 H94 0.930 . S
H71 C66 0.931 . S
Co72 N69 2.135 1_554 S
Co72 N75 2.121 . S
Co72 O80 2.055 . S
Co72 O83 2.039 1_554 S
Co72 N86 2.140 . S
C73 O74 1.227 . S
C73 O83 1.265 . S
O74 C73 1.227 . S
N75 Co72 2.121 . S
N75 C77 1.375 . S
N75 C78 1.313 . S
C76 C77 1.338 . S
C76 N79 1.377 . S
C76 H96 0.930 . S
C77 N75 1.375 . S
C77 C76 1.338 . S
C77 H81 0.931 . S
C78 N75 1.313 . S
C78 N79 1.344 . S
C78 H82 0.930 . S
N79 C76 1.377 . S
N79 C78 1.344 . S
O80 Co72 2.055 . S
O80 C84 1.253 . S
H81 C77 0.931 . S
H82 C78 0.930 . S
O83 Co72 2.039 1_556 S
O83 C73 1.265 . S
C84 O80 1.253 . S
C84 O85 1.227 . S
O85 C84 1.227 . S
N86 Co72 2.140 . S
N86 C89 1.346 1_554 S
N86 C90 1.345 . S
C87 C88 1.388 . S
C87 C91 1.390 1_556 S
C88 C87 1.388 . S
C88 C89 1.369 . S
C88 H97 0.929 . S
C89 N86 1.346 1_556 S
C89 C88 1.369 . S
C89 H92 0.928 . S
C90 N86 1.345 . S
C90 C91 1.371 . S
C90 H93 0.931 . S
C91 C87 1.390 1_554 S
C91 C90 1.371 . S
C91 H98 0.930 . S
H92 C89 0.928 . S
H93 C90 0.931 . S
H94 C70 0.930 . S
H95 C67 0.930 . S
H96 C76 0.930 . S
H97 C88 0.929 . S
H98 C91 0.930 . S
C99 C100 1.351 . S
C99 N102 1.368 . S
C99 H104 0.931 . S
C100 C99 1.351 . S
C100 N101 1.373 . S
C100 H128 0.930 . S
N101 C100 1.373 . S
N101 C103 1.340 . S
N102 C99 1.368 . S
N102 C103 1.321 . S
N102 Co105 2.135 1_556 S
C103 N101 1.340 . S
C103 N102 1.321 . S
C103 H127 0.930 . S
H104 C99 0.931 . S
Co105 N102 2.135 1_554 S
Co105 N108 2.121 . S
Co105 O113 2.055 . S
Co105 O116 2.039 1_554 S
Co105 N119 2.140 . S
C106 O107 1.227 . S
C106 O116 1.265 . S
O107 C106 1.227 . S
N108 Co105 2.121 . S
N108 C110 1.375 . S
N108 C111 1.313 . S
C109 C110 1.338 . S
C109 N112 1.377 . S
C109 H129 0.930 . S
C110 N108 1.375 . S
C110 C109 1.338 . S
C110 H114 0.931 . S
C111 N108 1.313 . S
C111 N112 1.344 . S
C111 H115 0.930 . S
N112 C109 1.377 . S
N112 C111 1.344 . S
O113 Co105 2.055 . S
O113 C117 1.253 . S
H114 C110 0.931 . S
H115 C111 0.930 . S
O116 Co105 2.039 1_556 S
O116 C106 1.265 . S
C117 O113 1.253 . S
C117 O118 1.227 . S
O118 C117 1.227 . S
N119 Co105 2.140 . S
N119 C122 1.346 1_554 S
N119 C123 1.345 . S
C120 C121 1.388 . S
C120 C124 1.390 1_556 S
C121 C120 1.388 . S
C121 C122 1.369 . S
C121 H130 0.929 . S
C122 N119 1.346 1_556 S
C122 C121 1.369 . S
C122 H125 0.928 . S
C123 N119 1.345 . S
C123 C124 1.371 . S
C123 H126 0.931 . S
C124 C120 1.390 1_554 S
C124 C123 1.371 . S
C124 H131 0.930 . S
H125 C122 0.928 . S
H126 C123 0.931 . S
H127 C103 0.930 . S
H128 C100 0.930 . S
H129 C109 0.930 . S
H130 C121 0.929 . S
H131 C124 0.930 . S
C132 C133 1.351 . S
C132 N135 1.368 . S
C132 H137 0.931 . S
C133 C132 1.351 . S
C133 N134 1.373 . S
C133 H161 0.930 . S
N134 C133 1.373 . S
N134 C136 1.340 . S
N135 C132 1.368 . S
N135 C136 1.321 . S
N135 Co138 2.135 1_556 S
C136 N134 1.340 . S
C136 N135 1.321 . S
C136 H160 0.930 . S
H137 C132 0.931 . S
Co138 N135 2.135 1_554 S
Co138 N141 2.121 . S
Co138 O146 2.055 . S
Co138 O149 2.039 1_554 S
Co138 N152 2.140 . S
C139 O140 1.227 . S
C139 O149 1.265 . S
O140 C139 1.227 . S
N141 Co138 2.121 . S
N141 C143 1.375 . S
N141 C144 1.313 . S
C142 C143 1.338 . S
C142 N145 1.377 . S
C142 H162 0.930 . S
C143 N141 1.375 . S
C143 C142 1.338 . S
C143 H147 0.931 . S
C144 N141 1.313 . S
C144 N145 1.344 . S
C144 H148 0.930 . S
N145 C142 1.377 . S
N145 C144 1.344 . S
O146 Co138 2.055 . S
O146 C150 1.253 . S
H147 C143 0.931 . S
H148 C144 0.930 . S
O149 Co138 2.039 1_556 S
O149 C139 1.265 . S
C150 O146 1.253 . S
C150 O151 1.227 . S
O151 C150 1.227 . S
N152 Co138 2.140 . S
N152 C155 1.346 1_554 S
N152 C156 1.345 . S
C153 C154 1.388 . S
C153 C157 1.390 1_556 S
C154 C153 1.388 . S
C154 C155 1.369 . S
C154 H163 0.929 . S
C155 N152 1.346 1_556 S
C155 C154 1.369 . S
C155 H158 0.928 . S
C156 N152 1.345 . S
C156 C157 1.371 . S
C156 H159 0.931 . S
C157 C153 1.390 1_554 S
C157 C156 1.371 . S
C157 H164 0.930 . S
H158 C155 0.928 . S
H159 C156 0.931 . S
H160 C136 0.930 . S
H161 C133 0.930 . S
H162 C142 0.930 . S
H163 C154 0.929 . S
H164 C157 0.930 . S
C165 C166 1.351 . S
C165 N168 1.368 . S
C165 H170 0.931 . S
C166 C165 1.351 . S
C166 N167 1.373 . S
C166 H194 0.930 . S
N167 C166 1.373 . S
N167 C169 1.340 . S
N168 C165 1.368 . S
N168 C169 1.321 . S
N168 Co171 2.135 1_556 S
C169 N167 1.340 . S
C169 N168 1.321 . S
C169 H193 0.930 . S
H170 C165 0.931 . S
Co171 N168 2.135 1_554 S
Co171 N174 2.121 . S
Co171 O179 2.055 . S
Co171 O182 2.039 1_554 S
Co171 N185 2.140 . S
C172 O173 1.227 . S
C172 O182 1.265 . S
O173 C172 1.227 . S
N174 Co171 2.121 . S
N174 C176 1.375 . S
N174 C177 1.313 . S
C175 C176 1.338 . S
C175 N178 1.377 . S
C175 H195 0.930 . S
C176 N174 1.375 . S
C176 C175 1.338 . S
C176 H180 0.931 . S
C177 N174 1.313 . S
C177 N178 1.344 . S
C177 H181 0.930 . S
N178 C175 1.377 . S
N178 C177 1.344 . S
O179 Co171 2.055 . S
O179 C183 1.253 . S
H180 C176 0.931 . S
H181 C177 0.930 . S
O182 Co171 2.039 1_556 S
O182 C172 1.265 . S
C183 O179 1.253 . S
C183 O184 1.227 . S
O184 C183 1.227 . S
N185 Co171 2.140 . S
N185 C188 1.346 1_554 S
N185 C189 1.345 . S
C186 C187 1.388 . S
C186 C190 1.390 1_556 S
C187 C186 1.388 . S
C187 C188 1.369 . S
C187 H196 0.929 . S
C188 N185 1.346 1_556 S
C188 C187 1.369 . S
C188 H191 0.928 . S
C189 N185 1.345 . S
C189 C190 1.371 . S
C189 H192 0.931 . S
C190 C186 1.390 1_554 S
C190 C189 1.371 . S
C190 H197 0.930 . S
H191 C188 0.928 . S
H192 C189 0.931 . S
H193 C169 0.930 . S
H194 C166 0.930 . S
H195 C175 0.930 . S
H196 C187 0.929 . S
H197 C190 0.930 . S
C198 C199 1.351 . S
C198 N201 1.368 . S
C198 H203 0.931 . S
C199 C198 1.351 . S
C199 N200 1.373 . S
C199 H227 0.930 . S
N200 C199 1.373 . S
N200 C202 1.340 . S
N201 C198 1.368 . S
N201 C202 1.321 . S
N201 Co204 2.135 . S
C202 N200 1.340 . S
C202 N201 1.321 . S
C202 H226 0.930 . S
H203 C198 0.931 . S
Co204 N201 2.135 . S
Co204 N207 2.121 1_554 S
Co204 O212 2.055 1_554 S
Co204 O215 2.039 . S
Co204 N218 2.140 . S
C205 O206 1.227 . S
C205 O215 1.265 . S
O206 C205 1.227 . S
N207 Co204 2.121 1_556 S
N207 C209 1.375 . S
N207 C210 1.313 . S
C208 C209 1.338 . S
C208 N211 1.377 . S
C208 H228 0.930 . S
C209 N207 1.375 . S
C209 C208 1.338 . S
C209 H213 0.931 . S
C210 N207 1.313 . S
C210 N211 1.344 . S
C210 H214 0.930 . S
N211 C208 1.377 . S
N211 C210 1.344 . S
O212 Co204 2.055 1_556 S
O212 C216 1.253 . S
H213 C209 0.931 . S
H214 C210 0.930 . S
O215 Co204 2.039 . S
O215 C205 1.265 . S
C216 O212 1.253 . S
C216 O217 1.227 . S
O217 C216 1.227 . S
N218 Co204 2.140 . S
N218 C221 1.346 . S
N218 C222 1.345 1_554 S
C219 C220 1.387 . S
C219 C223 1.391 1_554 S
C220 C219 1.387 . S
C220 C221 1.369 . S
C220 H229 0.929 . S
C221 N218 1.346 . S
C221 C220 1.369 . S
C221 H224 0.928 . S
C222 N218 1.345 1_556 S
C222 C223 1.371 . S
C222 H225 0.931 . S
C223 C219 1.391 1_556 S
C223 C222 1.371 . S
C223 H230 0.930 . S
H224 C221 0.928 . S
H225 C222 0.931 . S
H226 C202 0.930 . S
H227 C199 0.930 . S
H228 C208 0.930 . S
H229 C220 0.929 . S
H230 C223 0.930 . S
C231 C232 1.351 . S
C231 N234 1.368 . S
C231 H236 0.931 . S
C232 C231 1.351 . S
C232 N233 1.373 . S
C232 H260 0.930 . S
N233 C232 1.373 . S
N233 C235 1.340 . S
N234 C231 1.368 . S
N234 C235 1.321 . S
N234 Co237 2.135 . S
C235 N233 1.340 . S
C235 N234 1.321 . S
C235 H259 0.930 . S
H236 C231 0.931 . S
Co237 N234 2.135 . S
Co237 N240 2.121 1_554 S
Co237 O245 2.055 1_554 S
Co237 O248 2.039 . S
Co237 N251 2.140 . S
C238 O239 1.227 . S
C238 O248 1.265 . S
O239 C238 1.227 . S
N240 Co237 2.121 1_556 S
N240 C242 1.375 . S
N240 C243 1.313 . S
C241 C242 1.338 . S
C241 N244 1.377 . S
C241 H261 0.930 . S
C242 N240 1.375 . S
C242 C241 1.338 . S
C242 H246 0.931 . S
C243 N240 1.313 . S
C243 N244 1.344 . S
C243 H247 0.930 . S
N244 C241 1.377 . S
N244 C243 1.344 . S
O245 Co237 2.055 1_556 S
O245 C249 1.253 . S
H246 C242 0.931 . S
H247 C243 0.930 . S
O248 Co237 2.039 . S
O248 C238 1.265 . S
C249 O245 1.253 . S
C249 O250 1.227 . S
O250 C249 1.227 . S
N251 Co237 2.140 . S
N251 C254 1.346 . S
N251 C255 1.345 1_554 S
C252 C253 1.387 . S
C252 C256 1.391 1_554 S
C253 C252 1.387 . S
C253 C254 1.369 . S
C253 H262 0.929 . S
C254 N251 1.346 . S
C254 C253 1.369 . S
C254 H257 0.928 . S
C255 N251 1.345 1_556 S
C255 C256 1.371 . S
C255 H258 0.931 . S
C256 C252 1.391 1_556 S
C256 C255 1.371 . S
C256 H263 0.930 . S
H257 C254 0.928 . S
H258 C255 0.931 . S
H259 C235 0.930 . S
H260 C232 0.930 . S
H261 C241 0.930 . S
H262 C253 0.929 . S
H263 C256 0.930 . S
C264 C265 1.351 . S
C264 N267 1.368 . S
C264 H269 0.931 . S
C265 C264 1.351 . S
C265 N266 1.373 . S
C265 H293 0.930 . S
N266 C265 1.373 . S
N266 C268 1.340 . S
N267 C264 1.368 . S
N267 C268 1.321 . S
N267 Co270 2.135 . S
C268 N266 1.340 . S
C268 N267 1.321 . S
C268 H292 0.930 . S
H269 C264 0.931 . S
Co270 N267 2.135 . S
Co270 N273 2.121 1_554 S
Co270 O278 2.055 1_554 S
Co270 O281 2.039 . S
Co270 N284 2.140 . S
C271 O272 1.227 . S
C271 O281 1.265 . S
O272 C271 1.227 . S
N273 Co270 2.121 1_556 S
N273 C275 1.375 . S
N273 C276 1.313 . S
C274 C275 1.338 . S
C274 N277 1.377 . S
C274 H294 0.930 . S
C275 N273 1.375 . S
C275 C274 1.338 . S
C275 H279 0.931 . S
C276 N273 1.313 . S
C276 N277 1.344 . S
C276 H280 0.930 . S
N277 C274 1.377 . S
N277 C276 1.344 . S
O278 Co270 2.055 1_556 S
O278 C282 1.253 . S
H279 C275 0.931 . S
H280 C276 0.930 . S
O281 Co270 2.039 . S
O281 C271 1.265 . S
C282 O278 1.253 . S
C282 O283 1.227 . S
O283 C282 1.227 . S
N284 Co270 2.140 . S
N284 C287 1.346 . S
N284 C288 1.345 1_554 S
C285 C286 1.387 . S
C285 C289 1.391 1_554 S
C286 C285 1.387 . S
C286 C287 1.369 . S
C286 H295 0.929 . S
C287 N284 1.346 . S
C287 C286 1.369 . S
C287 H290 0.928 . S
C288 N284 1.345 1_556 S
C288 C289 1.371 . S
C288 H291 0.931 . S
C289 C285 1.391 1_556 S
C289 C288 1.371 . S
C289 H296 0.930 . S
H290 C287 0.928 . S
H291 C288 0.931 . S
H292 C268 0.930 . S
H293 C265 0.930 . S
H294 C274 0.930 . S
H295 C286 0.929 . S
H296 C289 0.930 . S
C297 C298 1.351 . S
C297 N300 1.368 . S
C297 H302 0.931 . S
C298 C297 1.351 . S
C298 N299 1.373 . S
C298 H326 0.930 . S
N299 C298 1.373 . S
N299 C301 1.340 . S
N300 C297 1.368 . S
N300 C301 1.321 . S
N300 Co303 2.135 . S
C301 N299 1.340 . S
C301 N300 1.321 . S
C301 H325 0.930 . S
H302 C297 0.931 . S
Co303 N300 2.135 . S
Co303 N306 2.121 1_554 S
Co303 O311 2.055 1_554 S
Co303 O314 2.039 . S
Co303 N317 2.140 . S
C304 O305 1.227 . S
C304 O314 1.265 . S
O305 C304 1.227 . S
N306 Co303 2.121 1_556 S
N306 C308 1.375 . S
N306 C309 1.313 . S
C307 C308 1.338 . S
C307 N310 1.377 . S
C307 H327 0.930 . S
C308 N306 1.375 . S
C308 C307 1.338 . S
C308 H312 0.931 . S
C309 N306 1.313 . S
C309 N310 1.344 . S
C309 H313 0.930 . S
N310 C307 1.377 . S
N310 C309 1.344 . S
O311 Co303 2.055 1_556 S
O311 C315 1.253 . S
H312 C308 0.931 . S
H313 C309 0.930 . S
O314 Co303 2.039 . S
O314 C304 1.265 . S
C315 O311 1.253 . S
C315 O316 1.227 . S
O316 C315 1.227 . S
N317 Co303 2.140 . S
N317 C320 1.346 . S
N317 C321 1.345 1_554 S
C318 C319 1.387 . S
C318 C322 1.391 1_554 S
C319 C318 1.387 . S
C319 C320 1.369 . S
C319 H328 0.929 . S
C320 N317 1.346 . S
C320 C319 1.369 . S
C320 H323 0.928 . S
C321 N317 1.345 1_556 S
C321 C322 1.371 . S
C321 H324 0.931 . S
C322 C318 1.391 1_556 S
C322 C321 1.371 . S
C322 H329 0.930 . S
H323 C320 0.928 . S
H324 C321 0.931 . S
H325 C301 0.930 . S
H326 C298 0.930 . S
H327 C307 0.930 . S
H328 C319 0.929 . S
H329 C322 0.930 . S
C330 C331 1.351 . S
C330 N333 1.368 . S
C330 H335 0.931 . S
C331 C330 1.351 . S
C331 N332 1.373 . S
C331 H359 0.930 . S
N332 C331 1.373 . S
N332 C334 1.340 . S
N333 C330 1.368 . S
N333 C334 1.321 . S
N333 Co336 2.135 . S
C334 N332 1.340 . S
C334 N333 1.321 . S
C334 H358 0.930 . S
H335 C330 0.931 . S
Co336 N333 2.135 . S
Co336 N339 2.121 1_554 S
Co336 O344 2.055 1_554 S
Co336 O347 2.039 . S
Co336 N350 2.140 . S
C337 O338 1.227 . S
C337 O347 1.265 . S
O338 C337 1.227 . S
N339 Co336 2.121 1_556 S
N339 C341 1.375 . S
N339 C342 1.313 . S
C340 C341 1.338 . S
C340 N343 1.377 . S
C340 H360 0.930 . S
C341 N339 1.375 . S
C341 C340 1.338 . S
C341 H345 0.931 . S
C342 N339 1.313 . S
C342 N343 1.344 . S
C342 H346 0.930 . S
N343 C340 1.377 . S
N343 C342 1.344 . S
O344 Co336 2.055 1_556 S
O344 C348 1.253 . S
H345 C341 0.931 . S
H346 C342 0.930 . S
O347 Co336 2.039 . S
O347 C337 1.265 . S
C348 O344 1.253 . S
C348 O349 1.227 . S
O349 C348 1.227 . S
N350 Co336 2.140 . S
N350 C353 1.346 . S
N350 C354 1.345 1_554 S
C351 C352 1.387 . S
C351 C355 1.391 1_554 S
C352 C351 1.387 . S
C352 C353 1.369 . S
C352 H361 0.929 . S
C353 N350 1.346 . S
C353 C352 1.369 . S
C353 H356 0.928 . S
C354 N350 1.345 1_556 S
C354 C355 1.371 . S
C354 H357 0.931 . S
C355 C351 1.391 1_556 S
C355 C354 1.371 . S
C355 H362 0.930 . S
H356 C353 0.928 . S
H357 C354 0.931 . S
H358 C334 0.930 . S
H359 C331 0.930 . S
H360 C340 0.930 . S
H361 C352 0.929 . S
H362 C355 0.930 . S
C363 C364 1.351 . S
C363 N366 1.368 . S
C363 H368 0.931 . S
C364 C363 1.351 . S
C364 N365 1.373 . S
C364 H392 0.930 . S
N365 C364 1.373 . S
N365 C367 1.340 . S
N366 C363 1.368 . S
N366 C367 1.321 . S
N366 Co369 2.135 . S
C367 N365 1.340 . S
C367 N366 1.321 . S
C367 H391 0.930 . S
H368 C363 0.931 . S
Co369 N366 2.135 . S
Co369 N372 2.121 1_554 S
Co369 O377 2.055 1_554 S
Co369 O380 2.039 . S
Co369 N383 2.140 . S
C370 O371 1.227 . S
C370 O380 1.265 . S
O371 C370 1.227 . S
N372 Co369 2.121 1_556 S
N372 C374 1.375 . S
N372 C375 1.313 . S
C373 C374 1.338 . S
C373 N376 1.377 . S
C373 H393 0.930 . S
C374 N372 1.375 . S
C374 C373 1.338 . S
C374 H378 0.931 . S
C375 N372 1.313 . S
C375 N376 1.344 . S
C375 H379 0.930 . S
N376 C373 1.377 . S
N376 C375 1.344 . S
O377 Co369 2.055 1_556 S
O377 C381 1.253 . S
H378 C374 0.931 . S
H379 C375 0.930 . S
O380 Co369 2.039 . S
O380 C370 1.265 . S
C381 O377 1.253 . S
C381 O382 1.227 . S
O382 C381 1.227 . S
N383 Co369 2.140 . S
N383 C386 1.346 . S
N383 C387 1.345 1_554 S
C384 C385 1.387 . S
C384 C388 1.391 1_554 S
C385 C384 1.387 . S
C385 C386 1.369 . S
C385 H394 0.929 . S
C386 N383 1.346 . S
C386 C385 1.369 . S
C386 H389 0.928 . S
C387 N383 1.345 1_556 S
C387 C388 1.371 . S
C387 H390 0.931 . S
C388 C384 1.391 1_556 S
C388 C387 1.371 . S
C388 H395 0.930 . S
H389 C386 0.928 . S
H390 C387 0.931 . S
H391 C367 0.930 . S
H392 C364 0.930 . S
H393 C373 0.930 . S
H394 C385 0.929 . S
H395 C388 0.930 . S
H396 C404 0.950 . S
H397 C409 0.950 . S
H398 C406 0.950 . S
H399 C408 0.950 . S
H400 C410 0.950 . S
H401 C412 0.950 . S
H402 C414 0.950 . S
H403 C415 0.950 . S
C404 H396 0.950 . S
C404 C405 1.386 . S
C404 C406 1.391 . S
C405 C404 1.386 . S
C405 C409 1.393 1_554 S
C406 H398 0.950 . S
C406 C404 1.391 . S
C406 C407 1.400 . S
C407 C406 1.400 . S
C407 C408 1.398 1_554 S
C407 C413 1.491 . S
C408 H399 0.950 . S
C408 C407 1.398 1_556 S
C408 C409 1.391 . S
C409 H397 0.950 . S
C409 C405 1.393 1_556 S
C409 C408 1.391 . S
C410 H400 0.950 . S
C410 C411 1.386 . S
C410 C412 1.391 . S
C411 C410 1.386 . S
C411 C415 1.393 1_556 S
C412 H401 0.950 . S
C412 C410 1.391 . S
C412 C413 1.400 1_556 S
C413 C407 1.491 . S
C413 C412 1.400 1_554 S
C413 C414 1.398 . S
C414 H402 0.950 . S
C414 C413 1.398 . S
C414 C415 1.391 . S
C415 H403 0.950 . S
C415 C411 1.393 1_554 S
C415 C414 1.391 . S
H416 C424 0.950 . S
H417 C429 0.950 . S
H418 C426 0.950 . S
H419 C428 0.950 . S
H420 C430 0.950 . S
H421 C432 0.950 . S
H422 C434 0.950 . S
H423 C435 0.950 . S
C424 H416 0.950 . S
C424 C425 1.386 1_554 S
C424 C426 1.391 . S
C425 C424 1.386 1_556 S
C425 C429 1.393 . S
C426 H418 0.950 . S
C426 C424 1.391 . S
C426 C427 1.400 . S
C427 C426 1.400 . S
C427 C428 1.398 1_554 S
C427 C433 1.491 . S
C428 H419 0.950 . S
C428 C427 1.398 1_556 S
C428 C429 1.391 . S
C429 H417 0.950 . S
C429 C425 1.393 . S
C429 C428 1.391 . S
C430 H420 0.950 . S
C430 C431 1.386 1_556 S
C430 C432 1.391 . S
C431 C430 1.386 1_554 S
C431 C435 1.393 . S
C432 H421 0.950 . S
C432 C430 1.391 . S
C432 C433 1.400 1_556 S
C433 C427 1.491 . S
C433 C432 1.400 1_554 S
C433 C434 1.398 . S
C434 H422 0.950 . S
C434 C433 1.398 . S
C434 C435 1.391 . S
C435 H423 0.950 . S
C435 C431 1.393 . S
C435 C434 1.391 . S
H436 C444 0.950 . S
H437 C449 0.950 . S
H438 C446 0.950 . S
H439 C448 0.950 . S
H440 C450 0.950 . S
H441 C452 0.950 . S
H442 C454 0.950 . S
H443 C455 0.950 . S
C444 H436 0.950 . S
C444 C445 1.386 . S
C444 C446 1.391 . S
C445 C444 1.386 . S
C445 C449 1.393 1_554 S
C446 H438 0.950 . S
C446 C444 1.391 . S
C446 C447 1.400 . S
C447 C446 1.400 . S
C447 C448 1.398 1_554 S
C447 C453 1.491 . S
C448 H439 0.950 . S
C448 C447 1.398 1_556 S
C448 C449 1.391 . S
C449 H437 0.950 . S
C449 C445 1.393 1_556 S
C449 C448 1.391 . S
C450 H440 0.950 . S
C450 C451 1.386 1_556 S
C450 C452 1.391 . S
C451 C450 1.386 1_554 S
C451 C455 1.393 . S
C452 H441 0.950 . S
C452 C450 1.391 . S
C452 C453 1.400 1_556 S
C453 C447 1.491 . S
C453 C452 1.400 1_554 S
C453 C454 1.398 . S
C454 H442 0.950 . S
C454 C453 1.398 . S
C454 C455 1.391 . S
C455 H443 0.950 . S
C455 C451 1.393 . S
C455 C454 1.391 . S
H456 C464 0.950 1_556 S
H457 C469 0.950 . S
H458 C466 0.950 1_556 S
H459 C468 0.950 1_556 S
H460 C470 0.950 . S
H461 C472 0.950 . S
H462 C474 0.950 . S
H463 C475 0.950 . S
C464 H456 0.950 1_554 S
C464 C465 1.386 . S
C464 C466 1.391 . S
C465 C464 1.386 . S
C465 C469 1.393 . S
C466 H458 0.950 1_554 S
C466 C464 1.391 . S
C466 C467 1.400 . S
C467 C466 1.400 . S
C467 C468 1.398 . S
C467 C473 1.491 . S
C468 H459 0.950 1_554 S
C468 C467 1.398 . S
C468 C469 1.391 . S
C469 H457 0.950 . S
C469 C465 1.393 . S
C469 C468 1.391 . S
C470 H460 0.950 . S
C470 C471 1.386 . S
C470 C472 1.391 . S
C471 C470 1.386 . S
C471 C475 1.393 . S
C472 H461 0.950 . S
C472 C470 1.391 . S
C472 C473 1.400 . S
C473 C467 1.491 . S
C473 C472 1.400 . S
C473 C474 1.398 . S
C474 H462 0.950 . S
C474 C473 1.398 . S
C474 C475 1.391 . S
C475 H463 0.950 . S
C475 C471 1.393 . S
C475 C474 1.391 . S
H476 C484 0.950 . S
H477 C489 0.950 . S
H478 C486 0.950 . S
H479 C488 0.950 . S
H480 C490 0.950 . S
H481 C492 0.950 . S
H482 C494 0.950 . S
H483 C495 0.950 . S
C484 H476 0.950 . S
C484 C485 1.386 1_554 S
C484 C486 1.391 . S
C485 C484 1.386 1_556 S
C485 C489 1.393 . S
C486 H478 0.950 . S
C486 C484 1.391 . S
C486 C487 1.400 . S
C487 C486 1.400 . S
C487 C488 1.398 1_554 S
C487 C493 1.491 . S
C488 H479 0.950 . S
C488 C487 1.398 1_556 S
C488 C489 1.391 . S
C489 H477 0.950 . S
C489 C485 1.393 . S
C489 C488 1.391 . S
C490 H480 0.950 . S
C490 C491 1.386 1_556 S
C490 C492 1.391 . S
C491 C490 1.386 1_554 S
C491 C495 1.393 . S
C492 H481 0.950 . S
C492 C490 1.391 . S
C492 C493 1.400 1_556 S
C493 C487 1.491 . S
C493 C492 1.400 1_554 S
C493 C494 1.398 . S
C494 H482 0.950 . S
C494 C493 1.398 . S
C494 C495 1.391 . S
C495 H483 0.950 . S
C495 C491 1.393 . S
C495 C494 1.391 . S
H496 C504 0.950 . S
H497 C509 0.950 . S
H498 C506 0.950 . S
H499 C508 0.950 . S
H500 C510 0.950 . S
H501 C512 0.950 . S
H502 C514 0.950 . S
H503 C515 0.950 . S
C504 H496 0.950 . S
C504 C505 1.386 . S
C504 C506 1.391 . S
C505 C504 1.386 . S
C505 C509 1.393 1_554 S
C506 H498 0.950 . S
C506 C504 1.391 . S
C506 C507 1.400 . S
C507 C506 1.400 . S
C507 C508 1.398 1_554 S
C507 C513 1.491 . S
C508 H499 0.950 . S
C508 C507 1.398 1_556 S
C508 C509 1.391 . S
C509 H497 0.950 . S
C509 C505 1.393 1_556 S
C509 C508 1.391 . S
C510 H500 0.950 . S
C510 C511 1.386 . S
C510 C512 1.391 . S
C511 C510 1.386 . S
C511 C515 1.393 1_556 S
C512 H501 0.950 . S
C512 C510 1.391 . S
C512 C513 1.400 1_556 S
C513 C507 1.491 . S
C513 C512 1.400 1_554 S
C513 C514 1.398 . S
C514 H502 0.950 . S
C514 C513 1.398 . S
C514 C515 1.391 . S
C515 H503 0.950 . S
C515 C511 1.393 1_554 S
C515 C514 1.391 . S
H516 C524 0.950 . S
H517 C529 0.950 . S
H518 C526 0.950 . S
H519 C528 0.950 . S
H520 C530 0.950 . S
H521 C532 0.950 . S
H522 C534 0.950 . S
H523 C535 0.950 . S
C524 H516 0.950 . S
C524 C525 1.386 . S
C524 C526 1.391 . S
C525 C524 1.386 . S
C525 C529 1.393 1_556 S
C526 H518 0.950 . S
C526 C524 1.391 . S
C526 C527 1.400 . S
C527 C526 1.400 . S
C527 C528 1.399 1_556 S
C527 C533 1.491 1_556 S
C528 H519 0.950 . S
C528 C527 1.399 1_554 S
C528 C529 1.391 . S
C529 H517 0.950 . S
C529 C525 1.393 1_554 S
C529 C528 1.391 . S
C530 H520 0.950 . S
C530 C531 1.386 . S
C530 C532 1.391 . S
C531 C530 1.386 . S
C531 C535 1.393 1_554 S
C532 H521 0.950 . S
C532 C530 1.391 . S
C532 C533 1.400 . S
C533 C527 1.491 1_554 S
C533 C532 1.400 . S
C533 C534 1.398 1_554 S
C534 H522 0.950 . S
C534 C533 1.398 1_556 S
C534 C535 1.391 . S
C535 H523 0.950 . S
C535 C531 1.393 1_556 S
C535 C534 1.391 . S
H536 C544 0.950 . S
H537 C549 0.950 . S
H538 C546 0.950 . S
H539 C548 0.950 . S
H540 C550 0.950 . S
H541 C552 0.950 . S
H542 C554 0.950 . S
H543 C555 0.950 . S
C544 H536 0.950 . S
C544 C545 1.386 . S
C544 C546 1.391 . S
C545 C544 1.386 . S
C545 C549 1.393 1_556 S
C546 H538 0.950 . S
C546 C544 1.391 . S
C546 C547 1.400 . S
C547 C546 1.400 . S
C547 C548 1.398 1_556 S
C547 C553 1.491 1_556 S
C548 H539 0.950 . S
C548 C547 1.398 1_554 S
C548 C549 1.391 . S
C549 H537 0.950 . S
C549 C545 1.393 1_554 S
C549 C548 1.391 . S
C550 H540 0.950 . S
C550 C551 1.386 . S
C550 C552 1.391 . S
C551 C550 1.386 . S
C551 C555 1.393 1_554 S
C552 H541 0.950 . S
C552 C550 1.391 . S
C552 C553 1.400 . S
C553 C547 1.491 1_554 S
C553 C552 1.400 . S
C553 C554 1.398 1_554 S
C554 H542 0.950 . S
C554 C553 1.398 1_556 S
C554 C555 1.391 . S
C555 H543 0.950 . S
C555 C551 1.393 1_556 S
C555 C554 1.391 . S
H556 C564 0.950 . S
H557 C569 0.950 . S
H558 C566 0.950 . S
H559 C568 0.950 . S
H560 C570 0.950 . S
H561 C572 0.950 . S
H562 C574 0.950 . S
H563 C575 0.950 . S
C564 H556 0.950 . S
C564 C565 1.386 1_556 S
C564 C566 1.391 . S
C565 C564 1.386 1_554 S
C565 C569 1.393 . S
C566 H558 0.950 . S
C566 C564 1.391 . S
C566 C567 1.400 1_556 S
C567 C566 1.400 1_554 S
C567 C568 1.398 . S
C567 C573 1.491 1_554 S
C568 H559 0.950 . S
C568 C567 1.398 . S
C568 C569 1.391 . S
C569 H557 0.950 . S
C569 C565 1.393 . S
C569 C568 1.391 . S
C570 H560 0.950 . S
C570 C571 1.386 1_554 S
C570 C572 1.391 . S
C571 C570 1.386 1_556 S
C571 C575 1.393 . S
C572 H561 0.950 . S
C572 C570 1.391 . S
C572 C573 1.400 1_554 S
C573 C567 1.491 1_556 S
C573 C572 1.400 1_556 S
C573 C574 1.398 . S
C574 H562 0.950 . S
C574 C573 1.398 . S
C574 C575 1.391 . S
C575 H563 0.950 . S
C575 C571 1.393 . S
C575 C574 1.391 . S
H576 C584 0.950 . S
H577 C589 0.950 . S
H578 C586 0.950 . S
H579 C588 0.950 . S
H580 C590 0.950 . S
H581 C592 0.950 . S
H582 C594 0.950 . S
H583 C595 0.950 . S
C584 H576 0.950 . S
C584 C585 1.386 . S
C584 C586 1.391 . S
C585 C584 1.386 . S
C585 C589 1.393 1_556 S
C586 H578 0.950 . S
C586 C584 1.391 . S
C586 C587 1.401 . S
C587 C586 1.401 . S
C587 C588 1.397 1_556 S
C587 C593 1.490 1_556 S
C588 H579 0.950 . S
C588 C587 1.397 1_554 S
C588 C589 1.391 . S
C589 H577 0.950 . S
C589 C585 1.393 1_554 S
C589 C588 1.391 . S
C590 H580 0.950 . S
C590 C591 1.386 . S
C590 C592 1.391 . S
C591 C590 1.386 . S
C591 C595 1.393 1_554 S
C592 H581 0.950 . S
C592 C590 1.391 . S
C592 C593 1.400 . S
C593 C587 1.490 1_554 S
C593 C592 1.400 . S
C593 C594 1.398 1_554 S
C594 H582 0.950 . S
C594 C593 1.398 1_556 S
C594 C595 1.391 . S
C595 H583 0.950 . S
C595 C591 1.393 1_556 S
C595 C594 1.391 . S
H596 C604 0.950 . S
H597 C609 0.950 . S
H598 C606 0.950 . S
H599 C608 0.950 . S
H600 C610 0.950 . S
H601 C612 0.950 . S
H602 C614 0.950 . S
H603 C615 0.950 . S
C604 H596 0.950 . S
C604 C605 1.386 1_554 S
C604 C606 1.391 . S
C605 C604 1.386 1_556 S
C605 C609 1.393 . S
C606 H598 0.950 . S
C606 C604 1.391 . S
C606 C607 1.403 . S
C607 C606 1.403 . S
C607 C608 1.395 1_554 S
C607 C613 1.491 . S
C608 H599 0.950 . S
C608 C607 1.395 1_556 S
C608 C609 1.391 . S
C609 H597 0.950 . S
C609 C605 1.393 . S
C609 C608 1.391 . S
C610 H600 0.950 . S
C610 C611 1.386 1_556 S
C610 C612 1.391 . S
C611 C610 1.386 1_554 S
C611 C615 1.393 . S
C612 H601 0.950 . S
C612 C610 1.391 . S
C612 C613 1.400 1_556 S
C613 C607 1.491 . S
C613 C612 1.400 1_554 S
C613 C614 1.398 . S
C614 H602 0.950 . S
C614 C613 1.398 . S
C614 C615 1.391 . S
C615 H603 0.950 . S
C615 C611 1.393 . S
C615 C614 1.391 . S
H616 C624 0.950 . S
H617 C629 0.950 . S
H618 C626 0.950 . S
H619 C628 0.950 . S
H620 C630 0.950 . S
H621 C632 0.950 . S
H622 C634 0.950 . S
H623 C635 0.950 . S
C624 H616 0.950 . S
C624 C625 1.386 . S
C624 C626 1.391 . S
C625 C624 1.386 . S
C625 C629 1.393 1_556 S
C626 H618 0.950 . S
C626 C624 1.391 . S
C626 C627 1.400 . S
C627 C626 1.400 . S
C627 C628 1.398 1_556 S
C627 C633 1.491 1_556 S
C628 H619 0.950 . S
C628 C627 1.398 1_554 S
C628 C629 1.391 . S
C629 H617 0.950 . S
C629 C625 1.393 1_554 S
C629 C628 1.391 . S
C630 H620 0.950 . S
C630 C631 1.386 . S
C630 C632 1.391 . S
C631 C630 1.386 . S
C631 C635 1.393 1_554 S
C632 H621 0.950 . S
C632 C630 1.391 . S
C632 C633 1.400 . S
C633 C627 1.491 1_554 S
C633 C632 1.400 . S
C633 C634 1.398 1_554 S
C634 H622 0.950 . S
C634 C633 1.398 1_556 S
C634 C635 1.391 . S
C635 H623 0.950 . S
C635 C631 1.393 1_556 S
C635 C634 1.391 . S
H636 C644 0.950 . S
H637 C649 0.950 . S
H638 C646 0.950 . S
H639 C648 0.950 . S
H640 C650 0.950 . S
H641 C652 0.950 . S
H642 C654 0.950 . S
H643 C655 0.950 . S
C644 H636 0.950 . S
C644 C645 1.386 . S
C644 C646 1.391 . S
C645 C644 1.386 . S
C645 C649 1.393 . S
C646 H638 0.950 . S
C646 C644 1.391 . S
C646 C647 1.400 . S
C647 C646 1.400 . S
C647 C648 1.398 . S
C647 C653 1.491 . S
C648 H639 0.950 . S
C648 C647 1.398 . S
C648 C649 1.391 . S
C649 H637 0.950 . S
C649 C645 1.393 . S
C649 C648 1.391 . S
C650 H640 0.950 . S
C650 C651 1.386 . S
C650 C652 1.391 . S
C651 C650 1.386 . S
C651 C655 1.393 . S
C652 H641 0.950 . S
C652 C650 1.391 . S
C652 C653 1.400 . S
C653 C647 1.491 . S
C653 C652 1.400 . S
C653 C654 1.398 . S
C654 H642 0.950 . S
C654 C653 1.398 . S
C654 C655 1.391 . S
C655 H643 0.950 . S
C655 C651 1.393 . S
C655 C654 1.391 . S
H656 C664 0.950 . S
H657 C669 0.950 . S
H658 C666 0.950 . S
H659 C668 0.950 . S
H660 C670 0.950 . S
H661 C672 0.950 . S
H662 C674 0.950 . S
H663 C675 0.950 . S
C664 H656 0.950 . S
C664 C665 1.386 . S
C664 C666 1.391 . S
C665 C664 1.386 . S
C665 C669 1.393 . S
C666 H658 0.950 . S
C666 C664 1.391 . S
C666 C667 1.400 . S
C667 C666 1.400 . S
C667 C668 1.398 . S
C667 C673 1.491 . S
C668 H659 0.950 . S
C668 C667 1.398 . S
C668 C669 1.391 . S
C669 H657 0.950 . S
C669 C665 1.393 . S
C669 C668 1.391 . S
C670 H660 0.950 . S
C670 C671 1.386 . S
C670 C672 1.391 . S
C671 C670 1.386 . S
C671 C675 1.393 . S
C672 H661 0.950 . S
C672 C670 1.391 . S
C672 C673 1.400 . S
C673 C667 1.491 . S
C673 C672 1.400 . S
C673 C674 1.398 . S
C674 H662 0.950 . S
C674 C673 1.398 . S
C674 C675 1.391 . S
C675 H663 0.950 . S
C675 C671 1.393 . S
C675 C674 1.391 . S
H676 C684 0.950 . S
H677 C689 0.950 . S
H678 C686 0.950 . S
H679 C688 0.950 . S
H680 C690 0.950 . S
H681 C692 0.950 . S
H682 C694 0.950 . S
H683 C695 0.950 . S
C684 H676 0.950 . S
C684 C685 1.386 . S
C684 C686 1.391 . S
C685 C684 1.386 . S
C685 C689 1.393 . S
C686 H678 0.950 . S
C686 C684 1.391 . S
C686 C687 1.400 . S
C687 C686 1.400 . S
C687 C688 1.398 . S
C687 C693 1.491 . S
C688 H679 0.950 . S
C688 C687 1.398 . S
C688 C689 1.391 . S
C689 H677 0.950 . S
C689 C685 1.393 . S
C689 C688 1.391 . S
C690 H680 0.950 . S
C690 C691 1.386 . S
C690 C692 1.391 . S
C691 C690 1.386 . S
C691 C695 1.393 . S
C692 H681 0.950 . S
C692 C690 1.391 . S
C692 C693 1.400 . S
C693 C687 1.491 . S
C693 C692 1.400 . S
C693 C694 1.398 . S
C694 H682 0.950 . S
C694 C693 1.398 . S
C694 C695 1.391 . S
C695 H683 0.950 . S
C695 C691 1.393 . S
C695 C694 1.391 . S
H696 C704 0.950 . S
H697 C709 0.950 . S
H698 C706 0.950 . S
H699 C708 0.950 . S
H700 C710 0.950 . S
H701 C712 0.950 . S
H702 C714 0.950 . S
H703 C715 0.950 . S
C704 H696 0.950 . S
C704 C705 1.386 . S
C704 C706 1.391 . S
C705 C704 1.386 . S
C705 C709 1.393 . S
C706 H698 0.950 . S
C706 C704 1.391 . S
C706 C707 1.400 . S
C707 C706 1.400 . S
C707 C708 1.398 . S
C707 C713 1.491 . S
C708 H699 0.950 . S
C708 C707 1.398 . S
C708 C709 1.391 . S
C709 H697 0.950 . S
C709 C705 1.393 . S
C709 C708 1.391 . S
C710 H700 0.950 . S
C710 C711 1.386 . S
C710 C712 1.391 . S
C711 C710 1.386 . S
C711 C715 1.393 . S
C712 H701 0.950 . S
C712 C710 1.391 . S
C712 C713 1.400 . S
C713 C707 1.491 . S
C713 C712 1.400 . S
C713 C714 1.398 . S
C714 H702 0.950 . S
C714 C713 1.398 . S
C714 C715 1.391 . S
C715 H703 0.950 . S
C715 C711 1.393 . S
C715 C714 1.391 . S
H716 C724 0.950 . S
H717 C729 0.950 . S
H718 C726 0.950 . S
H719 C728 0.950 . S
H720 C730 0.950 . S
H721 C732 0.950 . S
H722 C734 0.950 . S
H723 C735 0.950 . S
C724 H716 0.950 . S
C724 C725 1.386 . S
C724 C726 1.391 . S
C725 C724 1.386 . S
C725 C729 1.393 . S
C726 H718 0.950 . S
C726 C724 1.391 . S
C726 C727 1.400 . S
C727 C726 1.400 . S
C727 C728 1.398 . S
C727 C733 1.491 . S
C728 H719 0.950 . S
C728 C727 1.398 . S
C728 C729 1.391 . S
C729 H717 0.950 . S
C729 C725 1.393 . S
C729 C728 1.391 . S
C730 H720 0.950 . S
C730 C731 1.386 . S
C730 C732 1.391 . S
C731 C730 1.386 . S
C731 C735 1.393 . S
C732 H721 0.950 . S
C732 C730 1.391 . S
C732 C733 1.400 . S
C733 C727 1.491 . S
C733 C732 1.400 . S
C733 C734 1.398 . S
C734 H722 0.950 . S
C734 C733 1.398 . S
C734 C735 1.391 . S
C735 H723 0.950 . S
C735 C731 1.393 . S
C735 C734 1.391 . S
H736 C744 0.950 . S
H737 C749 0.950 . S
H738 C746 0.950 . S
H739 C748 0.950 . S
H740 C750 0.950 . S
H741 C752 0.950 . S
H742 C754 0.950 . S
H743 C755 0.950 . S
C744 H736 0.950 . S
C744 C745 1.386 . S
C744 C746 1.391 . S
C745 C744 1.386 . S
C745 C749 1.393 . S
C746 H738 0.950 . S
C746 C744 1.391 . S
C746 C747 1.400 . S
C747 C746 1.400 . S
C747 C748 1.398 . S
C747 C753 1.491 . S
C748 H739 0.950 . S
C748 C747 1.398 . S
C748 C749 1.391 . S
C749 H737 0.950 . S
C749 C745 1.393 . S
C749 C748 1.391 . S
C750 H740 0.950 . S
C750 C751 1.386 . S
C750 C752 1.391 . S
C751 C750 1.386 . S
C751 C755 1.393 . S
C752 H741 0.950 . S
C752 C750 1.391 . S
C752 C753 1.400 . S
C753 C747 1.491 . S
C753 C752 1.400 . S
C753 C754 1.398 . S
C754 H742 0.950 . S
C754 C753 1.398 . S
C754 C755 1.391 . S
C755 H743 0.950 . S
C755 C751 1.393 . S
C755 C754 1.391 . S
H756 C764 0.950 . S
H757 C769 0.950 . S
H758 C766 0.950 . S
H759 C768 0.950 . S
H760 C770 0.950 . S
H761 C772 0.950 . S
H762 C774 0.950 . S
H763 C775 0.950 . S
C764 H756 0.950 . S
C764 C765 1.386 . S
C764 C766 1.391 . S
C765 C764 1.386 . S
C765 C769 1.393 . S
C766 H758 0.950 . S
C766 C764 1.391 . S
C766 C767 1.400 . S
C767 C766 1.400 . S
C767 C768 1.398 . S
C767 C773 1.491 . S
C768 H759 0.950 . S
C768 C767 1.398 . S
C768 C769 1.391 . S
C769 H757 0.950 . S
C769 C765 1.393 . S
C769 C768 1.391 . S
C770 H760 0.950 . S
C770 C771 1.386 . S
C770 C772 1.391 . S
C771 C770 1.386 . S
C771 C775 1.393 . S
C772 H761 0.950 . S
C772 C770 1.391 . S
C772 C773 1.400 . S
C773 C767 1.491 . S
C773 C772 1.400 . S
C773 C774 1.398 . S
C774 H762 0.950 . S
C774 C773 1.398 . S
C774 C775 1.391 . S
C775 H763 0.950 . S
C775 C771 1.393 . S
C775 C774 1.391 . S
H776 C784 0.950 . S
H777 C789 0.950 . S
H778 C786 0.950 . S
H779 C788 0.950 . S
H780 C790 0.950 . S
H781 C792 0.950 . S
H782 C794 0.950 . S
H783 C795 0.950 . S
C784 H776 0.950 . S
C784 C785 1.386 . S
C784 C786 1.391 . S
C785 C784 1.386 . S
C785 C789 1.393 . S
C786 H778 0.950 . S
C786 C784 1.391 . S
C786 C787 1.400 . S
C787 C786 1.400 . S
C787 C788 1.398 . S
C787 C793 1.491 . S
C788 H779 0.950 . S
C788 C787 1.398 . S
C788 C789 1.391 . S
C789 H777 0.950 . S
C789 C785 1.393 . S
C789 C788 1.391 . S
C790 H780 0.950 . S
C790 C791 1.386 . S
C790 C792 1.391 . S
C791 C790 1.386 . S
C791 C795 1.393 . S
C792 H781 0.950 . S
C792 C790 1.391 . S
C792 C793 1.400 . S
C793 C787 1.491 . S
C793 C792 1.400 . S
C793 C794 1.398 . S
C794 H782 0.950 . S
C794 C793 1.398 . S
C794 C795 1.391 . S
C795 H783 0.950 . S
C795 C791 1.393 . S
C795 C794 1.391 . S
H796 C804 0.950 . S
H797 C809 0.950 . S
H798 C806 0.950 . S
H799 C808 0.950 . S
H800 C810 0.950 . S
H801 C812 0.950 . S
H802 C814 0.950 . S
H803 C815 0.950 . S
C804 H796 0.950 . S
C804 C805 1.386 . S
C804 C806 1.391 . S
C805 C804 1.386 . S
C805 C809 1.393 . S
C806 H798 0.950 . S
C806 C804 1.391 . S
C806 C807 1.400 . S
C807 C806 1.400 . S
C807 C808 1.398 . S
C807 C813 1.491 . S
C808 H799 0.950 . S
C808 C807 1.398 . S
C808 C809 1.391 . S
C809 H797 0.950 . S
C809 C805 1.393 . S
C809 C808 1.391 . S
C810 H800 0.950 . S
C810 C811 1.386 . S
C810 C812 1.391 . S
C811 C810 1.386 . S
C811 C815 1.393 . S
C812 H801 0.950 . S
C812 C810 1.391 . S
C812 C813 1.400 . S
C813 C807 1.491 . S
C813 C812 1.400 . S
C813 C814 1.398 . S
C814 H802 0.950 . S
C814 C813 1.398 . S
C814 C815 1.391 . S
C815 H803 0.950 . S
C815 C811 1.393 . S
C815 C814 1.391 . S
H816 C824 0.950 . S
H817 C829 0.950 . S
H818 C826 0.950 . S
H819 C828 0.950 . S
H820 C830 0.950 . S
H821 C832 0.950 . S
H822 C834 0.950 . S
H823 C835 0.950 . S
C824 H816 0.950 . S
C824 C825 1.386 . S
C824 C826 1.391 . S
C825 C824 1.386 . S
C825 C829 1.393 . S
C826 H818 0.950 . S
C826 C824 1.391 . S
C826 C827 1.400 . S
C827 C826 1.400 . S
C827 C828 1.398 . S
C827 C833 1.491 . S
C828 H819 0.950 . S
C828 C827 1.398 . S
C828 C829 1.391 . S
C829 H817 0.950 . S
C829 C825 1.393 . S
C829 C828 1.391 . S
C830 H820 0.950 . S
C830 C831 1.386 . S
C830 C832 1.391 . S
C831 C830 1.386 . S
C831 C835 1.393 . S
C832 H821 0.950 . S
C832 C830 1.391 . S
C832 C833 1.400 . S
C833 C827 1.491 . S
C833 C832 1.400 . S
C833 C834 1.398 . S
C834 H822 0.950 . S
C834 C833 1.398 . S
C834 C835 1.391 . S
C835 H823 0.950 . S
C835 C831 1.393 . S
C835 C834 1.391 . S
H836 C844 0.950 . S
H837 C849 0.950 . S
H838 C846 0.950 . S
H839 C848 0.950 . S
H840 C850 0.950 . S
H841 C852 0.950 . S
H842 C854 0.950 . S
H843 C855 0.950 . S
C844 H836 0.950 . S
C844 C845 1.386 . S
C844 C846 1.391 . S
C845 C844 1.386 . S
C845 C849 1.393 . S
C846 H838 0.950 . S
C846 C844 1.391 . S
C846 C847 1.400 . S
C847 C846 1.400 . S
C847 C848 1.398 . S
C847 C853 1.491 . S
C848 H839 0.950 . S
C848 C847 1.398 . S
C848 C849 1.391 . S
C849 H837 0.950 . S
C849 C845 1.393 . S
C849 C848 1.391 . S
C850 H840 0.950 . S
C850 C851 1.386 . S
C850 C852 1.391 . S
C851 C850 1.386 . S
C851 C855 1.393 . S
C852 H841 0.950 . S
C852 C850 1.391 . S
C852 C853 1.400 . S
C853 C847 1.491 . S
C853 C852 1.400 . S
C853 C854 1.398 . S
C854 H842 0.950 . S
C854 C853 1.398 . S
C854 C855 1.391 . S
C855 H843 0.950 . S
C855 C851 1.393 . S
C855 C854 1.391 . S
H856 C864 0.950 . S
H857 C869 0.950 . S
H858 C866 0.950 . S
H859 C868 0.950 . S
H860 C870 0.950 . S
H861 C872 0.950 . S
H862 C874 0.950 . S
H863 C875 0.950 . S
C864 H856 0.950 . S
C864 C865 1.386 . S
C864 C866 1.391 . S
C865 C864 1.386 . S
C865 C869 1.393 . S
C866 H858 0.950 . S
C866 C864 1.391 . S
C866 C867 1.400 . S
C867 C866 1.400 . S
C867 C868 1.398 . S
C867 C873 1.491 . S
C868 H859 0.950 . S
C868 C867 1.398 . S
C868 C869 1.391 . S
C869 H857 0.950 . S
C869 C865 1.393 . S
C869 C868 1.391 . S
C870 H860 0.950 . S
C870 C871 1.386 . S
C870 C872 1.391 . S
C871 C870 1.386 . S
C871 C875 1.393 . S
C872 H861 0.950 . S
C872 C870 1.391 . S
C872 C873 1.400 . S
C873 C867 1.491 . S
C873 C872 1.400 . S
C873 C874 1.398 . S
C874 H862 0.950 . S
C874 C873 1.398 . S
C874 C875 1.391 . S
C875 H863 0.950 . S
C875 C871 1.393 . S
C875 C874 1.391 . S
H876 C884 0.950 . S
H877 C889 0.950 . S
H878 C886 0.950 . S
H879 C888 0.950 . S
H880 C890 0.950 . S
H881 C892 0.950 . S
H882 C894 0.950 . S
H883 C895 0.950 . S
C884 H876 0.950 . S
C884 C885 1.386 . S
C884 C886 1.391 . S
C885 C884 1.386 . S
C885 C889 1.393 1_556 S
C886 H878 0.950 . S
C886 C884 1.391 . S
C886 C887 1.400 1_556 S
C887 C886 1.400 1_554 S
C887 C888 1.398 . S
C887 C893 1.491 1_455 S
C888 H879 0.950 . S
C888 C887 1.398 . S
C888 C889 1.391 . S
C889 H877 0.950 . S
C889 C885 1.393 1_554 S
C889 C888 1.391 . S
C890 H880 0.950 . S
C890 C891 1.386 . S
C890 C892 1.391 . S
C891 C890 1.386 . S
C891 C895 1.393 1_554 S
C892 H881 0.950 . S
C892 C890 1.391 . S
C892 C893 1.400 . S
C893 C887 1.491 1_655 S
C893 C892 1.400 . S
C893 C894 1.398 1_554 S
C894 H882 0.950 . S
C894 C893 1.398 1_556 S
C894 C895 1.391 . S
C895 H883 0.950 . S
C895 C891 1.393 1_556 S
C895 C894 1.391 . S
H896 C904 0.950 . S
H897 C909 0.950 . S
H898 C906 0.950 . S
H899 C908 0.950 . S
H900 C910 0.950 . S
H901 C912 0.950 . S
H902 C914 0.950 . S
H903 C915 0.950 . S
C904 H896 0.950 . S
C904 C905 1.386 1_556 S
C904 C906 1.391 . S
C905 C904 1.386 1_554 S
C905 C909 1.393 . S
C906 H898 0.950 . S
C906 C904 1.391 . S
C906 C907 1.400 1_556 S
C907 C906 1.400 1_554 S
C907 C908 1.398 . S
C907 C913 1.491 1_565 S
C908 H899 0.950 . S
C908 C907 1.398 . S
C908 C909 1.391 . S
C909 H897 0.950 . S
C909 C905 1.393 . S
C909 C908 1.391 . S
C910 H900 0.950 . S
C910 C911 1.386 1_554 S
C910 C912 1.391 . S
C911 C910 1.386 1_556 S
C911 C915 1.393 . S
C912 H901 0.950 . S
C912 C910 1.391 . S
C912 C913 1.400 . S
C913 C907 1.491 1_545 S
C913 C912 1.400 . S
C913 C914 1.398 1_554 S
C914 H902 0.950 . S
C914 C913 1.398 1_556 S
C914 C915 1.391 . S
C915 H903 0.950 . S
C915 C911 1.393 . S
C915 C914 1.391 . S
H916 C924 0.950 . S
H917 C929 0.950 . S
H918 C926 0.950 . S
H919 C928 0.950 . S
H920 C930 0.950 . S
H921 C932 0.950 . S
H922 C934 0.950 . S
H923 C935 0.950 . S
C924 H916 0.950 . S
C924 C925 1.386 1_556 S
C924 C926 1.391 . S
C925 C924 1.386 1_554 S
C925 C929 1.393 . S
C926 H918 0.950 . S
C926 C924 1.391 . S
C926 C927 1.400 1_556 S
C927 C926 1.400 1_554 S
C927 C928 1.398 . S
C927 C933 1.489 1_554 S
C928 H919 0.950 . S
C928 C927 1.398 . S
C928 C929 1.391 . S
C929 H917 0.950 . S
C929 C925 1.393 . S
C929 C928 1.391 . S
C930 H920 0.950 . S
C930 C931 1.386 1_554 S
C930 C932 1.391 . S
C931 C930 1.386 1_556 S
C931 C935 1.393 . S
C932 H921 0.950 . S
C932 C930 1.391 . S
C932 C933 1.397 1_554 S
C933 C927 1.489 1_556 S
C933 C932 1.397 1_556 S
C933 C934 1.403 . S
C934 H922 0.950 . S
C934 C933 1.403 . S
C934 C935 1.391 . S
C935 H923 0.950 . S
C935 C931 1.393 . S
C935 C934 1.391 . S
H936 C944 0.950 . S
H937 C949 0.950 . S
H938 C946 0.950 . S
H939 C948 0.950 . S
H940 C950 0.950 . S
H941 C952 0.950 . S
H942 C954 0.950 . S
H943 C955 0.950 . S
C944 H936 0.950 . S
C944 C945 1.386 1_556 S
C944 C946 1.391 . S
C945 C944 1.386 1_554 S
C945 C949 1.393 . S
C946 H938 0.950 . S
C946 C944 1.391 . S
C946 C947 1.400 1_556 S
C947 C946 1.400 1_554 S
C947 C948 1.398 . S
C947 C953 1.491 1_455 S
C948 H939 0.950 . S
C948 C947 1.398 . S
C948 C949 1.391 . S
C949 H937 0.950 . S
C949 C945 1.393 . S
C949 C948 1.391 . S
C950 H940 0.950 . S
C950 C951 1.386 1_554 S
C950 C952 1.391 . S
C951 C950 1.386 1_556 S
C951 C955 1.393 . S
C952 H941 0.950 . S
C952 C950 1.391 . S
C952 C953 1.400 . S
C953 C947 1.491 1_655 S
C953 C952 1.400 . S
C953 C954 1.398 1_554 S
C954 H942 0.950 . S
C954 C953 1.398 1_556 S
C954 C955 1.391 . S
C955 H943 0.950 . S
C955 C951 1.393 . S
C955 C954 1.391 . S
H956 C964 0.950 1_554 S
H957 C969 0.950 . S
H958 C966 0.950 . S
H959 C968 0.950 . S
H960 C970 0.950 . S
H961 C972 0.950 1_556 S
H962 C974 0.950 . S
H963 C975 0.950 . S
C964 H956 0.950 1_556 S
C964 C965 1.386 . S
C964 C966 1.391 1_556 S
C965 C964 1.386 . S
C965 C969 1.393 . S
C966 H958 0.950 . S
C966 C964 1.391 1_554 S
C966 C967 1.399 1_554 S
C967 C966 1.399 1_556 S
C967 C968 1.401 . S
C967 C973 1.489 1_566 S
C968 H959 0.950 . S
C968 C967 1.401 . S
C968 C969 1.391 . S
C969 H957 0.950 . S
C969 C965 1.393 . S
C969 C968 1.391 . S
C970 H960 0.950 . S
C970 C971 1.386 . S
C970 C972 1.391 . S
C971 C970 1.386 . S
C971 C975 1.393 . S
C972 H961 0.950 1_554 S
C972 C970 1.391 . S
C972 C973 1.400 . S
C973 C967 1.489 1_544 S
C973 C972 1.400 . S
C973 C974 1.398 . S
C974 H962 0.950 . S
C974 C973 1.398 . S
C974 C975 1.391 . S
C975 H963 0.950 . S
C975 C971 1.393 . S
C975 C974 1.391 . S
H976 C984 0.950 . S
H977 C989 0.950 . S
H978 C986 0.950 . S
H979 C988 0.950 . S
H980 C990 0.950 . S
H981 C992 0.950 . S
H982 C994 0.950 . S
H983 C995 0.950 . S
C984 H976 0.950 . S
C984 C985 1.386 . S
C984 C986 1.391 . S
C985 C984 1.386 . S
C985 C989 1.393 1_554 S
C986 H978 0.950 . S
C986 C984 1.391 . S
C986 C987 1.400 . S
C987 C986 1.400 . S
C987 C988 1.398 1_554 S
C987 C993 1.491 1_554 S
C988 H979 0.950 . S
C988 C987 1.398 1_556 S
C988 C989 1.391 . S
C989 H977 0.950 . S
C989 C985 1.393 1_556 S
C989 C988 1.391 . S
C990 H980 0.950 . S
C990 C991 1.386 . S
C990 C992 1.391 . S
C991 C990 1.386 . S
C991 C995 1.393 1_556 S
C992 H981 0.950 . S
C992 C990 1.391 . S
C992 C993 1.401 . S
C993 C987 1.491 1_556 S
C993 C992 1.401 . S
C993 C994 1.398 1_556 S
C994 H982 0.950 . S
C994 C993 1.398 1_554 S
C994 C995 1.391 . S
C995 H983 0.950 . S
C995 C991 1.393 1_554 S
C995 C994 1.391 . S
C405 C285 1.576 . S
C411 C21 1.580 . S
C425 C54 1.580 . S
C431 C318 1.576 . S
C445 C351 1.575 . S
C451 C87 1.579 1_554 S
C465 C384 1.577 . S
C471 C120 1.576 1_554 S
C485 C153 1.580 . S
C491 C219 1.575 . S
C505 C252 1.576 . S
C511 C186 1.580 . S
C525 C348 1.223 . S
C531 C18 1.214 . S
C545 C381 1.226 . S
C551 C51 1.220 . S
C565 C84 1.222 . S
C571 C216 1.225 . S
C585 C249 1.223 . S
C591 C117 1.214 . S
C605 C282 1.213 . S
C611 C150 1.220 . S
C625 C315 1.226 . S
C631 C183 1.220 . S
C645 N13 1.457 . S
C651 N2 1.454 . S
C665 N46 1.448 . S
C671 N35 1.445 . S
C685 N79 1.444 . S
C691 N68 1.440 . S
C705 N112 1.471 . S
C711 N101 1.468 . S
C725 N134 1.451 . S
C731 N145 1.455 . S
C745 N178 1.450 . S
C751 N167 1.447 . S
C765 N200 1.447 . S
C771 N211 1.450 . S
C785 N244 1.445 . S
C791 N233 1.441 . S
C805 N266 1.468 . S
C811 N277 1.471 . S
C825 N299 1.450 . S
C831 N310 1.453 . S
C845 N343 1.471 . S
C851 N332 1.468 . S
C865 N376 1.444 . S
C871 N365 1.440 . S
C885 C7 1.242 . S
C891 C370 1.222 . S
C905 C205 1.225 . S
C911 C40 1.239 . S
C925 C238 1.229 . S
C931 C73 1.234 . S
C945 C271 1.224 . S
C951 C106 1.241 . S
C965 C139 1.231 . S
C971 C304 1.231 . S
C985 C337 1.242 . S
C991 C172 1.221 . S
