# Generated by pormake.
# Topology uml, (4)-cn, num edge types: 1
# Building blocks:
#     Node 0, Type 0, BuildingBlock: KOZSID_clean_sbu_0, # of connection points: 4
#     Node 1, Type 0, BuildingBlock: KOZSID_clean_sbu_0, # of connection points: 4
#     Node 2, Type 0, BuildingBlock: KOZSID_clean_sbu_0, # of connection points: 4
#     Node 3, Type 0, BuildingBlock: KOZSID_clean_sbu_0, # of connection points: 4
#     Node 4, Type 0, BuildingBlock: KOZSID_clean_sbu_0, # of connection points: 4
#     Node 5, Type 0, BuildingBlock: KOZSID_clean_sbu_0, # of connection points: 4
#     Node 6, Type 0, BuildingBlock: KOZSID_clean_sbu_0, # of connection points: 4
#     Node 7, Type 0, BuildingBlock: KOZSID_clean_sbu_0, # of connection points: 4
#     Node 8, Type 0, BuildingBlock: KOZSID_clean_sbu_0, # of connection points: 4
#     Node 9, Type 0, BuildingBlock: KOZSID_clean_sbu_0, # of connection points: 4
#     Node 10, Type 0, BuildingBlock: KOZSID_clean_sbu_0, # of connection points: 4
#     Node 11, Type 0, BuildingBlock: KOZSID_clean_sbu_0, # of connection points: 4
#     Node 12, Type 0, BuildingBlock: KOZSID_clean_sbu_0, # of connection points: 4
#     Node 13, Type 0, BuildingBlock: KOZSID_clean_sbu_0, # of connection points: 4
#     Node 14, Type 0, BuildingBlock: KOZSID_clean_sbu_0, # of connection points: 4
#     Node 15, Type 0, BuildingBlock: KOZSID_clean_sbu_0, # of connection points: 4
#     Node 16, Type 0, BuildingBlock: KOZSID_clean_sbu_0, # of connection points: 4
#     Node 17, Type 0, BuildingBlock: KOZSID_clean_sbu_0, # of connection points: 4
#     Node 18, Type 0, BuildingBlock: KOZSID_clean_sbu_0, # of connection points: 4
#     Node 19, Type 0, BuildingBlock: KOZSID_clean_sbu_0, # of connection points: 4
#     Node 20, Type 0, BuildingBlock: KOZSID_clean_sbu_0, # of connection points: 4
#     Node 21, Type 0, BuildingBlock: KOZSID_clean_sbu_0, # of connection points: 4
#     Node 22, Type 0, BuildingBlock: KOZSID_clean_sbu_0, # of connection points: 4
#     Node 23, Type 0, BuildingBlock: KOZSID_clean_sbu_0, # of connection points: 4
#     Node 24, Type 0, BuildingBlock: KOZSID_clean_sbu_0, # of connection points: 4
#     Node 25, Type 0, BuildingBlock: KOZSID_clean_sbu_0, # of connection points: 4
#     Node 26, Type 0, BuildingBlock: KOZSID_clean_sbu_0, # of connection points: 4
#     Node 27, Type 0, BuildingBlock: KOZSID_clean_sbu_0, # of connection points: 4
#     Node 28, Type 0, BuildingBlock: KOZSID_clean_sbu_0, # of connection points: 4
#     Node 29, Type 0, BuildingBlock: KOZSID_clean_sbu_0, # of connection points: 4
#     Node 30, Type 0, BuildingBlock: KOZSID_clean_sbu_0, # of connection points: 4
#     Node 31, Type 0, BuildingBlock: KOZSID_clean_sbu_0, # of connection points: 4
#     Node 32, Type 0, BuildingBlock: KOZSID_clean_sbu_0, # of connection points: 4
#     Node 33, Type 0, BuildingBlock: KOZSID_clean_sbu_0, # of connection points: 4
#     Node 34, Type 0, BuildingBlock: KOZSID_clean_sbu_0, # of connection points: 4
#     Node 35, Type 0, BuildingBlock: KOZSID_clean_sbu_0, # of connection points: 4
#     Edge 36, Type (0, 0), BuildingBlock: OJICUG_clean_linker_0, # of connection points: 2
#     Edge 37, Type (0, 0), BuildingBlock: OJICUG_clean_linker_0, # of connection points: 2
#     Edge 38, Type (0, 0), BuildingBlock: OJICUG_clean_linker_0, # of connection points: 2
#     Edge 39, Type (0, 0), BuildingBlock: OJICUG_clean_linker_0, # of connection points: 2
#     Edge 40, Type (0, 0), BuildingBlock: OJICUG_clean_linker_0, # of connection points: 2
#     Edge 41, Type (0, 0), BuildingBlock: OJICUG_clean_linker_0, # of connection points: 2
#     Edge 42, Type (0, 0), BuildingBlock: OJICUG_clean_linker_0, # of connection points: 2
#     Edge 43, Type (0, 0), BuildingBlock: OJICUG_clean_linker_0, # of connection points: 2
#     Edge 44, Type (0, 0), BuildingBlock: OJICUG_clean_linker_0, # of connection points: 2
#     Edge 45, Type (0, 0), BuildingBlock: OJICUG_clean_linker_0, # of connection points: 2
#     Edge 46, Type (0, 0), BuildingBlock: OJICUG_clean_linker_0, # of connection points: 2
#     Edge 47, Type (0, 0), BuildingBlock: OJICUG_clean_linker_0, # of connection points: 2
#     Edge 48, Type (0, 0), BuildingBlock: OJICUG_clean_linker_0, # of connection points: 2
#     Edge 49, Type (0, 0), BuildingBlock: OJICUG_clean_linker_0, # of connection points: 2
#     Edge 50, Type (0, 0), BuildingBlock: OJICUG_clean_linker_0, # of connection points: 2
#     Edge 51, Type (0, 0), BuildingBlock: OJICUG_clean_linker_0, # of connection points: 2
#     Edge 52, Type (0, 0), BuildingBlock: OJICUG_clean_linker_0, # of connection points: 2
#     Edge 53, Type (0, 0), BuildingBlock: OJICUG_clean_linker_0, # of connection points: 2
#     Edge 54, Type (0, 0), BuildingBlock: OJICUG_clean_linker_0, # of connection points: 2
#     Edge 55, Type (0, 0), BuildingBlock: OJICUG_clean_linker_0, # of connection points: 2
#     Edge 56, Type (0, 0), BuildingBlock: OJICUG_clean_linker_0, # of connection points: 2
#     Edge 57, Type (0, 0), BuildingBlock: OJICUG_clean_linker_0, # of connection points: 2
#     Edge 58, Type (0, 0), BuildingBlock: OJICUG_clean_linker_0, # of connection points: 2
#     Edge 59, Type (0, 0), BuildingBlock: OJICUG_clean_linker_0, # of connection points: 2
#     Edge 60, Type (0, 0), BuildingBlock: OJICUG_clean_linker_0, # of connection points: 2
#     Edge 61, Type (0, 0), BuildingBlock: OJICUG_clean_linker_0, # of connection points: 2
#     Edge 62, Type (0, 0), BuildingBlock: OJICUG_clean_linker_0, # of connection points: 2
#     Edge 63, Type (0, 0), BuildingBlock: OJICUG_clean_linker_0, # of connection points: 2
#     Edge 64, Type (0, 0), BuildingBlock: OJICUG_clean_linker_0, # of connection points: 2
#     Edge 65, Type (0, 0), BuildingBlock: OJICUG_clean_linker_0, # of connection points: 2
#     Edge 66, Type (0, 0), BuildingBlock: OJICUG_clean_linker_0, # of connection points: 2
#     Edge 67, Type (0, 0), BuildingBlock: OJICUG_clean_linker_0, # of connection points: 2
#     Edge 68, Type (0, 0), BuildingBlock: OJICUG_clean_linker_0, # of connection points: 2
#     Edge 69, Type (0, 0), BuildingBlock: OJICUG_clean_linker_0, # of connection points: 2
#     Edge 70, Type (0, 0), BuildingBlock: OJICUG_clean_linker_0, # of connection points: 2
#     Edge 71, Type (0, 0), BuildingBlock: OJICUG_clean_linker_0, # of connection points: 2
#     Edge 72, Type (0, 0), BuildingBlock: OJICUG_clean_linker_0, # of connection points: 2
#     Edge 73, Type (0, 0), BuildingBlock: OJICUG_clean_linker_0, # of connection points: 2
#     Edge 74, Type (0, 0), BuildingBlock: OJICUG_clean_linker_0, # of connection points: 2
#     Edge 75, Type (0, 0), BuildingBlock: OJICUG_clean_linker_0, # of connection points: 2
#     Edge 76, Type (0, 0), BuildingBlock: OJICUG_clean_linker_0, # of connection points: 2
#     Edge 77, Type (0, 0), BuildingBlock: OJICUG_clean_linker_0, # of connection points: 2
#     Edge 78, Type (0, 0), BuildingBlock: OJICUG_clean_linker_0, # of connection points: 2
#     Edge 79, Type (0, 0), BuildingBlock: OJICUG_clean_linker_0, # of connection points: 2
#     Edge 80, Type (0, 0), BuildingBlock: OJICUG_clean_linker_0, # of connection points: 2
#     Edge 81, Type (0, 0), BuildingBlock: OJICUG_clean_linker_0, # of connection points: 2
#     Edge 82, Type (0, 0), BuildingBlock: OJICUG_clean_linker_0, # of connection points: 2
#     Edge 83, Type (0, 0), BuildingBlock: OJICUG_clean_linker_0, # of connection points: 2
#     Edge 84, Type (0, 0), BuildingBlock: OJICUG_clean_linker_0, # of connection points: 2
#     Edge 85, Type (0, 0), BuildingBlock: OJICUG_clean_linker_0, # of connection points: 2
#     Edge 86, Type (0, 0), BuildingBlock: OJICUG_clean_linker_0, # of connection points: 2
#     Edge 87, Type (0, 0), BuildingBlock: OJICUG_clean_linker_0, # of connection points: 2
#     Edge 88, Type (0, 0), BuildingBlock: OJICUG_clean_linker_0, # of connection points: 2
#     Edge 89, Type (0, 0), BuildingBlock: OJICUG_clean_linker_0, # of connection points: 2
#     Edge 90, Type (0, 0), BuildingBlock: OJICUG_clean_linker_0, # of connection points: 2
#     Edge 91, Type (0, 0), BuildingBlock: OJICUG_clean_linker_0, # of connection points: 2
#     Edge 92, Type (0, 0), BuildingBlock: OJICUG_clean_linker_0, # of connection points: 2
#     Edge 93, Type (0, 0), BuildingBlock: OJICUG_clean_linker_0, # of connection points: 2
#     Edge 94, Type (0, 0), BuildingBlock: OJICUG_clean_linker_0, # of connection points: 2
#     Edge 95, Type (0, 0), BuildingBlock: OJICUG_clean_linker_0, # of connection points: 2
#     Edge 96, Type (0, 0), BuildingBlock: OJICUG_clean_linker_0, # of connection points: 2
#     Edge 97, Type (0, 0), BuildingBlock: OJICUG_clean_linker_0, # of connection points: 2
#     Edge 98, Type (0, 0), BuildingBlock: OJICUG_clean_linker_0, # of connection points: 2
#     Edge 99, Type (0, 0), BuildingBlock: OJICUG_clean_linker_0, # of connection points: 2
#     Edge 100, Type (0, 0), BuildingBlock: OJICUG_clean_linker_0, # of connection points: 2
#     Edge 101, Type (0, 0), BuildingBlock: OJICUG_clean_linker_0, # of connection points: 2
#     Edge 102, Type (0, 0), BuildingBlock: OJICUG_clean_linker_0, # of connection points: 2
#     Edge 103, Type (0, 0), BuildingBlock: OJICUG_clean_linker_0, # of connection points: 2
#     Edge 104, Type (0, 0), BuildingBlock: OJICUG_clean_linker_0, # of connection points: 2
#     Edge 105, Type (0, 0), BuildingBlock: OJICUG_clean_linker_0, # of connection points: 2
#     Edge 106, Type (0, 0), BuildingBlock: OJICUG_clean_linker_0, # of connection points: 2
#     Edge 107, Type (0, 0), BuildingBlock: OJICUG_clean_linker_0, # of connection points: 2
# Relax obj value: 0.047
# Max RMSD: 0.158
# Mean RMSD: 0.154
data_MOF--net-uml--node1-KOZSID_clean_sbu_0--edge1-OJICUG_clean_linker_0
_symmetry_space_group_name_H-M    P1
_symmetry_Int_Tables_number       1
_symmetry_cell_setting            triclinic
loop_
_symmetry_equiv_pos_as_xyz
'x, y, z'
_cell_length_a     80.578018
_cell_length_b     80.559485
_cell_length_c     30.2126
_cell_angle_alpha  90.100254
_cell_angle_beta   90.021049
_cell_angle_gamma 120.03863
loop_
_atom_site_label
_atom_site_type_symbol
_atom_site_fract_x
_atom_site_fract_y
_atom_site_fract_z
_atom_type_partial_charge
C0 C 0.38047 0.08304 0.16747 0.0
C1 C 0.39954 0.08764 0.16615 0.0
C2 C 0.41012 0.10588 0.18265 0.0
C3 C 0.39701 0.11144 0.19286 0.0
N4 N 0.37885 0.09783 0.18382 0.0
Co5 Co 0.3557 0.10015 0.19263 0.0
N6 N 0.37118 0.12863 0.1941 0.0
C7 C 0.39023 0.13901 0.20109 0.0
C8 C 0.3971 0.1584 0.20156 0.0
C9 C 0.38137 0.16038 0.19497 0.0
C10 C 0.36568 0.14199 0.1908 0.0
N11 N 0.3326 0.10253 0.20253 0.0
C12 C 0.33029 0.1181 0.19977 0.0
C13 C 0.31169 0.11324 0.21094 0.0
C14 C 0.30225 0.09413 0.22189 0.0
C15 C 0.31551 0.0883 0.21669 0.0
N16 N 0.34052 0.0717 0.19015 0.0
C17 C 0.32256 0.06074 0.20529 0.0
C18 C 0.31565 0.04152 0.19788 0.0
C19 C 0.33023 0.04042 0.17685 0.0
C20 C 0.34525 0.05907 0.17251 0.0
N21 N 0.3582 0.09917 0.25737 0.0
C22 C 0.35352 0.09372 0.34955 0.0
C23 C 0.35663 0.08124 0.32287 0.0
C24 C 0.35926 0.08441 0.27698 0.0
C25 C 0.35389 0.10951 0.32926 0.0
C26 C 0.35619 0.11194 0.28352 0.0
N27 N 0.35235 0.10071 0.12854 0.0
C28 C 0.33085 0.08951 0.06616 0.0
C29 C 0.34608 0.09945 0.03674 0.0
C30 C 0.36464 0.11042 0.05464 0.0
C31 C 0.36745 0.11094 0.10066 0.0
C32 C 0.33428 0.09018 0.1114 0.0
H33 H 0.38179 0.11939 0.11369 0.0
H34 H 0.32215 0.08194 0.13247 0.0
H35 H 0.36134 0.07443 0.25716 0.0
H36 H 0.35528 0.12368 0.26929 0.0
C37 C 0.40141 0.13023 0.2018 0.0
C38 C 0.36425 0.06437 0.15441 0.0
C39 C 0.34571 0.13783 0.18995 0.0
C40 C 0.3118 0.06927 0.21846 0.0
H41 H 0.4053 0.0789 0.15409 0.0
H42 H 0.42559 0.11444 0.18454 0.0
H43 H 0.41181 0.16976 0.20557 0.0
H44 H 0.3814 0.17383 0.19467 0.0
H45 H 0.30562 0.12256 0.21157 0.0
H46 H 0.28736 0.08543 0.23132 0.0
H47 H 0.30144 0.02976 0.20512 0.0
H48 H 0.32991 0.02744 0.16602 0.0
H49 H 0.3568 0.06902 0.33724 0.0
H50 H 0.35148 0.11951 0.3483 0.0
H51 H 0.31621 0.08123 0.05452 0.0
H52 H 0.37696 0.11829 0.03336 0.0
C53 C 0.92706 0.30002 0.18078 0.0
C54 C 0.92332 0.31478 0.18911 0.0
C55 C 0.90535 0.30651 0.20741 0.0
C56 C 0.89927 0.28728 0.20957 0.0
N57 N 0.91227 0.28297 0.19386 0.0
Co58 Co 0.91012 0.25742 0.19596 0.0
N59 N 0.88172 0.2443 0.20082 0.0
C60 C 0.8716 0.25274 0.21291 0.0
C61 C 0.85224 0.24021 0.21479 0.0
C62 C 0.85001 0.22271 0.20377 0.0
C63 C 0.86824 0.22554 0.19574 0.0
N64 N 0.90788 0.23177 0.19992 0.0
C65 C 0.89222 0.21392 0.19649 0.0
C66 C 0.89735 0.20002 0.20303 0.0
C67 C 0.9167 0.20954 0.21174 0.0
C68 C 0.92242 0.22871 0.20992 0.0
N69 N 0.93851 0.271 0.18976 0.0
C70 C 0.94978 0.26363 0.19958 0.0
C71 C 0.96859 0.27579 0.18808 0.0
C72 C 0.9691 0.29174 0.17005 0.0
C73 C 0.95053 0.28854 0.17171 0.0
N74 N 0.91255 0.25932 0.26098 0.0
C75 C 0.91987 0.25804 0.3518 0.0
C76 C 0.93158 0.27438 0.32632 0.0
C77 C 0.92761 0.27477 0.2811 0.0
C78 C 0.90367 0.24305 0.33128 0.0
C79 C 0.90032 0.24393 0.28627 0.0
N80 N 0.90819 0.25504 0.13127 0.0
C81 C 0.91746 0.24519 0.0649 0.0
C82 C 0.90688 0.25083 0.03886 0.0
C83 C 0.89704 0.25894 0.05999 0.0
C84 C 0.89771 0.26073 0.10649 0.0
C85 C 0.91807 0.24755 0.11049 0.0
H86 H 0.88988 0.26673 0.12241 0.0
H87 H 0.9268 0.24338 0.12876 0.0
H88 H 0.93722 0.28725 0.26203 0.0
H89 H 0.88824 0.23163 0.27171 0.0
C90 C 0.88058 0.27265 0.21847 0.0
C91 C 0.94459 0.30263 0.15956 0.0
C92 C 0.87227 0.20974 0.19011 0.0
C93 C 0.94149 0.24406 0.21027 0.0
H94 H 0.93248 0.32987 0.18191 0.0
H95 H 0.89738 0.31357 0.21614 0.0
H96 H 0.84105 0.24339 0.22302 0.0
H97 H 0.83654 0.2093 0.20345 0.0
H98 H 0.88808 0.18462 0.20194 0.0
H99 H 0.92561 0.20321 0.21733 0.0
H100 H 0.98037 0.27298 0.19021 0.0
H101 H 0.98169 0.30412 0.15712 0.0
H102 H 0.94419 0.28644 0.34059 0.0
H103 H 0.89374 0.23039 0.34962 0.0
H104 H 0.92564 0.2393 0.05002 0.0
H105 H 0.88876 0.26361 0.04087 0.0
C106 C 0.7116 0.63122 0.16691 0.0
C107 C 0.69709 0.61215 0.16594 0.0
C108 C 0.70477 0.60163 0.18254 0.0
C109 C 0.72348 0.61477 0.19245 0.0
N110 N 0.72804 0.63289 0.18312 0.0
Co111 Co 0.75359 0.65606 0.1912 0.0
N112 N 0.76655 0.64058 0.19249 0.0
C113 C 0.75789 0.62157 0.19996 0.0
C114 C 0.7704 0.61471 0.20019 0.0
C115 C 0.78809 0.63039 0.19291 0.0
C116 C 0.78538 0.64606 0.18856 0.0
N117 N 0.77914 0.67921 0.20034 0.0
C118 C 0.797 0.6815 0.19691 0.0
C119 C 0.81082 0.70017 0.20758 0.0
C120 C 0.80123 0.70964 0.21896 0.0
C121 C 0.7821 0.69636 0.21446 0.0
N122 N 0.74036 0.67125 0.18891 0.0
C123 C 0.74745 0.68927 0.20391 0.0
C124 C 0.73513 0.69617 0.19661 0.0
C125 C 0.71938 0.68152 0.17578 0.0
C126 C 0.72297 0.66648 0.17144 0.0
N127 N 0.75045 0.65391 0.25597 0.0
C128 C 0.75102 0.661 0.34738 0.0
C129 C 0.73486 0.65676 0.32152 0.0
C130 C 0.73479 0.65307 0.27597 0.0
C131 C 0.76598 0.65974 0.32703 0.0
C132 C 0.76545 0.65626 0.2817 0.0
N133 N 0.75717 0.65907 0.12707 0.0
C134 C 0.76719 0.68026 0.06438 0.0
C135 C 0.76174 0.66488 0.03522 0.0
C136 C 0.75422 0.6464 0.05337 0.0
C137 C 0.75214 0.64383 0.09944 0.0
C138 C 0.76463 0.67706 0.10967 0.0
H139 H 0.7463 0.62955 0.11271 0.0
H140 H 0.76863 0.6893 0.13056 0.0
H141 H 0.72252 0.65063 0.25651 0.0
H142 H 0.77784 0.65667 0.26724 0.0
C143 C 0.7379 0.6104 0.20119 0.0
C144 C 0.70921 0.64743 0.15354 0.0
C145 C 0.8012 0.66603 0.18682 0.0
C146 C 0.76681 0.70008 0.21665 0.0
H147 H 0.68257 0.60634 0.15401 0.0
H148 H 0.69783 0.58616 0.18463 0.0
H149 H 0.76705 0.60001 0.20445 0.0
H150 H 0.80149 0.63036 0.19224 0.0
H151 H 0.82622 0.70628 0.20756 0.0
H152 H 0.8075 0.72459 0.22815 0.0
H153 H 0.73764 0.71041 0.20374 0.0
H154 H 0.70671 0.68182 0.16507 0.0
H155 H 0.72278 0.65724 0.33573 0.0
H156 H 0.77846 0.66211 0.34571 0.0
H157 H 0.77352 0.69485 0.05249 0.0
H158 H 0.74966 0.63399 0.03226 0.0
C159 C 0.08457 0.37725 0.37876 0.0
C160 C 0.08901 0.39629 0.37962 0.0
C161 C 0.10729 0.40693 0.36353 0.0
C162 C 0.11302 0.3939 0.354 0.0
N163 N 0.09951 0.37573 0.36313 0.0
Co164 Co 0.10211 0.35268 0.35525 0.0
N165 N 0.13056 0.36835 0.35409 0.0
C166 C 0.14081 0.38737 0.34671 0.0
C167 C 0.16022 0.3944 0.34656 0.0
C168 C 0.16236 0.3788 0.3538 0.0
C169 C 0.14403 0.36304 0.35804 0.0
N170 N 0.10474 0.32965 0.34635 0.0
C171 C 0.1204 0.32752 0.34986 0.0
C172 C 0.11571 0.30889 0.33934 0.0
C173 C 0.09664 0.29926 0.32797 0.0
C174 C 0.09065 0.31242 0.33233 0.0
N175 N 0.07366 0.33726 0.35728 0.0
C176 C 0.06288 0.31921 0.34234 0.0
C177 C 0.04361 0.31217 0.34898 0.0
C178 C 0.04227 0.32678 0.36927 0.0
C179 C 0.06085 0.34192 0.37396 0.0
N180 N 0.10114 0.3548 0.29052 0.0
C181 C 0.09464 0.34779 0.19918 0.0
C182 C 0.08273 0.35204 0.225 0.0
C183 C 0.08634 0.35568 0.27053 0.0
C184 C 0.11085 0.349 0.2195 0.0
C185 C 0.1138 0.35246 0.26484 0.0
N186 N 0.10266 0.34976 0.41939 0.0
C187 C 0.09157 0.3287 0.48232 0.0
C188 C 0.10144 0.34418 0.5113 0.0
C189 C 0.11232 0.36262 0.49296 0.0
C190 C 0.11282 0.36508 0.44687 0.0
C191 C 0.09222 0.3318 0.43696 0.0
H192 H 0.1212 0.37934 0.43347 0.0
H193 H 0.08405 0.3195 0.41616 0.0
H194 H 0.07652 0.35812 0.28997 0.0
H195 H 0.12578 0.35204 0.27933 0.0
C196 C 0.13187 0.39842 0.34545 0.0
C197 C 0.06588 0.36097 0.39137 0.0
C198 C 0.14005 0.34312 0.35977 0.0
C199 C 0.07159 0.30853 0.32993 0.0
H200 H 0.08013 0.40198 0.39104 0.0
H201 H 0.11573 0.4224 0.36139 0.0
H202 H 0.1715 0.40913 0.34237 0.0
H203 H 0.17587 0.37896 0.35454 0.0
H204 H 0.12511 0.30292 0.33941 0.0
H205 H 0.08806 0.28429 0.31884 0.0
H206 H 0.03196 0.29789 0.34167 0.0
H207 H 0.02919 0.32638 0.37933 0.0
H208 H 0.07018 0.35158 0.21078 0.0
H209 H 0.12094 0.34663 0.20081 0.0
H210 H 0.08337 0.31413 0.49439 0.0
H211 H 0.12012 0.37509 0.51392 0.0
C212 C 0.63305 0.71018 0.3811 0.0
C213 C 0.61392 0.69579 0.38116 0.0
C214 C 0.60366 0.70364 0.36402 0.0
C215 C 0.61698 0.72234 0.35472 0.0
N216 N 0.63499 0.72675 0.36498 0.0
Co217 Co 0.65833 0.75226 0.35762 0.0
N218 N 0.64302 0.7654 0.35497 0.0
C219 C 0.62409 0.75683 0.34649 0.0
C220 C 0.61733 0.76941 0.34523 0.0
C221 C 0.63301 0.78708 0.35292 0.0
C222 C 0.64856 0.78428 0.35857 0.0
N223 N 0.68161 0.77778 0.34921 0.0
C224 C 0.68401 0.79571 0.35241 0.0
C225 C 0.70281 0.80945 0.34284 0.0
C226 C 0.71227 0.79975 0.33237 0.0
C227 C 0.69885 0.78064 0.33632 0.0
N228 N 0.67334 0.73885 0.36121 0.0
C229 C 0.69147 0.74589 0.34728 0.0
C230 C 0.69819 0.73346 0.35494 0.0
C231 C 0.6833 0.71765 0.37483 0.0
C232 C 0.66829 0.72132 0.3783 0.0
N233 N 0.65659 0.749 0.29278 0.0
C234 C 0.66172 0.74818 0.20077 0.0
C235 C 0.65826 0.73252 0.22745 0.0
C236 C 0.65542 0.73309 0.27325 0.0
C237 C 0.66158 0.76377 0.22097 0.0
C238 C 0.65906 0.76392 0.26663 0.0
N239 N 0.66089 0.75591 0.42186 0.0
C240 C 0.68157 0.76606 0.48571 0.0
C241 C 0.66593 0.76063 0.51372 0.0
C242 C 0.64759 0.75282 0.49482 0.0
C243 C 0.6454 0.75078 0.44864 0.0
C244 C 0.67875 0.76344 0.44025 0.0
H245 H 0.63123 0.74492 0.43462 0.0
H246 H 0.69113 0.7673 0.42009 0.0
H247 H 0.65304 0.72095 0.29307 0.0
H248 H 0.66007 0.77665 0.28084 0.0
C249 C 0.61283 0.73684 0.34524 0.0
C250 C 0.64902 0.70747 0.39489 0.0
C251 C 0.66853 0.80006 0.36136 0.0
C252 C 0.70246 0.76526 0.33486 0.0
H253 H 0.60792 0.6812 0.39272 0.0
H254 H 0.58823 0.6968 0.36103 0.0
H255 H 0.6027 0.76613 0.34 0.0
H256 H 0.63304 0.80053 0.35301 0.0
H257 H 0.70903 0.82487 0.34304 0.0
H258 H 0.7273 0.80593 0.32422 0.0
H259 H 0.71246 0.73589 0.34856 0.0
H260 H 0.68341 0.70488 0.38542 0.0
H261 H 0.65792 0.72002 0.21316 0.0
H262 H 0.66428 0.77625 0.20191 0.0
H263 H 0.69593 0.77183 0.49894 0.0
H264 H 0.6351 0.74844 0.51548 0.0
C265 C 0.30181 0.92612 0.37863 0.0
C266 C 0.31632 0.92159 0.37992 0.0
C267 C 0.30873 0.9034 0.36322 0.0
C268 C 0.29006 0.89779 0.35291 0.0
N269 N 0.28543 0.91132 0.36209 0.0
Co270 Co 0.25992 0.90891 0.35325 0.0
N271 N 0.247 0.88045 0.35165 0.0
C272 C 0.25571 0.87013 0.34451 0.0
C273 C 0.24323 0.85073 0.34395 0.0
C274 C 0.2255 0.84867 0.35063 0.0
C275 C 0.22815 0.86704 0.35495 0.0
N276 N 0.2344 0.90644 0.34334 0.0
C277 C 0.21654 0.89082 0.34612 0.0
C278 C 0.20276 0.89562 0.33496 0.0
C279 C 0.21239 0.91474 0.32401 0.0
C280 C 0.2315 0.92063 0.32919 0.0
N281 N 0.27312 0.93734 0.35588 0.0
C282 C 0.26609 0.94827 0.34076 0.0
C283 C 0.27835 0.96749 0.34836 0.0
C284 C 0.29404 0.96863 0.3695 0.0
C285 C 0.29045 0.94999 0.37372 0.0
N286 N 0.26343 0.90996 0.28853 0.0
C287 C 0.26422 0.91546 0.19635 0.0
C288 C 0.27979 0.92796 0.22308 0.0
C289 C 0.27924 0.92477 0.26897 0.0
C290 C 0.2488 0.89963 0.21658 0.0
C291 C 0.24866 0.89718 0.26231 0.0
N292 N 0.25599 0.90828 0.41734 0.0
C293 C 0.24566 0.9194 0.47974 0.0
C294 C 0.25102 0.90951 0.50914 0.0
C295 C 0.25865 0.89859 0.49122 0.0
C296 C 0.26093 0.89809 0.44519 0.0
C297 C 0.24841 0.91875 0.4345 0.0
H298 H 0.26686 0.88969 0.43213 0.0
H299 H 0.24447 0.92696 0.41346 0.0
H300 H 0.29128 0.93476 0.28884 0.0
H301 H 0.23601 0.8854 0.2765 0.0
C302 C 0.2757 0.87899 0.34382 0.0
C303 C 0.30416 0.94472 0.39192 0.0
C304 C 0.2123 0.87112 0.35598 0.0
C305 C 0.24679 0.93969 0.32751 0.0
H306 H 0.33081 0.93036 0.39211 0.0
H307 H 0.31569 0.8949 0.36127 0.0
H308 H 0.24663 0.83941 0.33983 0.0
H309 H 0.2121 0.8352 0.35089 0.0
H310 H 0.18736 0.88627 0.33435 0.0
H311 H 0.20616 0.9234 0.31462 0.0
H312 H 0.27587 0.97923 0.34119 0.0
H313 H 0.30665 0.98161 0.3805 0.0
H314 H 0.29217 0.94021 0.20877 0.0
H315 H 0.23639 0.88961 0.19749 0.0
H316 H 0.23925 0.92763 0.4914 0.0
H317 H 0.26315 0.89077 0.51248 0.0
C318 C 0.66916 0.95022 0.88208 0.0
C319 C 0.68393 0.96889 0.87605 0.0
C320 C 0.69841 0.96771 0.85473 0.0
C321 C 0.69168 0.94843 0.84886 0.0
N322 N 0.67394 0.93749 0.86525 0.0
Co323 Co 0.65903 0.90899 0.86455 0.0
N324 N 0.68221 0.90684 0.85345 0.0
C325 C 0.69904 0.92107 0.83807 0.0
C326 C 0.7124 0.91542 0.83222 0.0
C327 C 0.7033 0.89641 0.84403 0.0
C328 C 0.68477 0.89142 0.85628 0.0
N329 N 0.64384 0.88048 0.86478 0.0
C330 C 0.6496 0.86731 0.86787 0.0
C331 C 0.63401 0.84879 0.86503 0.0
C332 C 0.61806 0.85048 0.85953 0.0
C333 C 0.62472 0.86982 0.85926 0.0
N334 N 0.63579 0.91105 0.87459 0.0
C335 C 0.61758 0.89716 0.86712 0.0
C336 C 0.60441 0.90261 0.87756 0.0
C337 C 0.61499 0.9211 0.89246 0.0
C338 C 0.63412 0.92595 0.89004 0.0
N339 N 0.65567 0.90926 0.80002 0.0
C340 C 0.66165 0.91524 0.70831 0.0
C341 C 0.66072 0.89917 0.72865 0.0
C342 C 0.65779 0.89648 0.77415 0.0
C343 C 0.65752 0.92719 0.73436 0.0
C344 C 0.65436 0.92381 0.78007 0.0
N345 N 0.66329 0.90919 0.92843 0.0
C346 C 0.65213 0.89974 1.00314 0.0
C347 C 0.67088 0.9111 1.01969 0.0
C348 C 0.68563 0.9212 0.98923 0.0
C349 C 0.68154 0.92018 0.94426 0.0
C350 C 0.64865 0.89892 0.95738 0.0
H351 H 0.69332 0.92845 0.92231 0.0
H352 H 0.63417 0.89015 0.9454 0.0
H353 H 0.65851 0.88467 0.78855 0.0
H354 H 0.65202 0.93368 0.79962 0.0
C355 C 0.70247 0.93997 0.8355 0.0
C356 C 0.6503 0.94498 0.9009 0.0
C357 C 0.66964 0.87169 0.86716 0.0
C358 C 0.61332 0.87837 0.85903 0.0
H359 H 0.68416 0.98192 0.88588 0.0
H360 H 0.71243 0.97949 0.84617 0.0
H361 H 0.72714 0.92417 0.82175 0.0
H362 H 0.70954 0.88724 0.8432 0.0
H363 H 0.63415 0.83544 0.86541 0.0
H364 H 0.60336 0.83897 0.85663 0.0
H365 H 0.58894 0.89387 0.87669 0.0
H366 H 0.60921 0.92988 0.90409 0.0
H367 H 0.66299 0.88902 0.70984 0.0
H368 H 0.65774 0.93963 0.72018 0.0
H369 H 0.64016 0.89178 0.02529 0.0
H370 H 0.70039 0.92982 0.99985 0.0
C371 C 0.06143 0.71909 0.8725 0.0
C372 C 0.04277 0.71563 0.87394 0.0
C373 C 0.04306 0.73144 0.85561 0.0
C374 C 0.06185 0.74376 0.84417 0.0
N375 N 0.07329 0.73662 0.85428 0.0
Co376 Co 0.10169 0.75049 0.84837 0.0
N377 N 0.10355 0.77596 0.84405 0.0
C378 C 0.0889 0.77878 0.83365 0.0
C379 C 0.09441 0.7979 0.83163 0.0
C380 C 0.11373 0.80762 0.84068 0.0
C381 C 0.11904 0.79389 0.84767 0.0
N382 N 0.1301 0.76391 0.84383 0.0
C383 C 0.14337 0.78272 0.84915 0.0
C384 C 0.16172 0.78582 0.84154 0.0
C385 C 0.15978 0.76843 0.83052 0.0
C386 C 0.14046 0.75569 0.83201 0.0
N387 N 0.09991 0.72512 0.85084 0.0
C388 C 0.11309 0.72101 0.83543 0.0
C389 C 0.10725 0.70183 0.83797 0.0
C390 C 0.08926 0.6934 0.85617 0.0
C391 C 0.08526 0.70802 0.86407 0.0
N392 N 0.09943 0.74845 0.78342 0.0
C393 C 0.09361 0.74857 0.69161 0.0
C394 C 0.10918 0.76406 0.7125 0.0
C395 C 0.11177 0.76376 0.75806 0.0
C396 C 0.08131 0.73267 0.71752 0.0
C397 C 0.08462 0.73279 0.76325 0.0
N398 N 0.10353 0.75298 0.91296 0.0
C399 C 0.11501 0.74955 0.98417 0.0
C400 C 0.10502 0.75752 1.00515 0.0
C401 C 0.09418 0.76284 0.97913 0.0
C402 C 0.09347 0.7603 0.9336 0.0
C403 C 0.11425 0.7476 0.93776 0.0
H404 H 0.08457 0.76424 0.91524 0.0
H405 H 0.12222 0.74174 0.92191 0.0
H406 H 0.12346 0.77635 0.77282 0.0
H407 H 0.07487 0.72042 0.78247 0.0
C408 C 0.06991 0.76328 0.83323 0.0
C409 C 0.06762 0.70525 0.88505 0.0
C410 C 0.13902 0.7983 0.85471 0.0
C411 C 0.13172 0.7358 0.82659 0.0
H412 H 0.03025 0.70318 0.88692 0.0
H413 H 0.03115 0.73404 0.85326 0.0
H414 H 0.08537 0.80406 0.82572 0.0
H415 H 0.12287 0.82305 0.84173 0.0
H416 H 0.17508 0.79933 0.84223 0.0
H417 H 0.17113 0.76545 0.82264 0.0
H418 H 0.11541 0.69493 0.82957 0.0
H419 H 0.08025 0.67832 0.86363 0.0
H420 H 0.11898 0.77674 0.694 0.0
H421 H 0.06922 0.72027 0.70263 0.0
H422 H 0.12349 0.74514 1.00334 0.0
H423 H 0.08589 0.76862 0.994 0.0
C424 C 0.29001 0.34229 0.87647 0.0
C425 C 0.29347 0.32714 0.87263 0.0
C426 C 0.27748 0.31234 0.85294 0.0
C427 C 0.26518 0.31926 0.84578 0.0
N428 N 0.27247 0.33744 0.85982 0.0
Co429 Co 0.25938 0.35277 0.85682 0.0
N430 N 0.23371 0.32963 0.8488 0.0
C431 C 0.23057 0.31229 0.83568 0.0
C432 C 0.21141 0.29906 0.83168 0.0
C433 C 0.20196 0.30875 0.84232 0.0
C434 C 0.21591 0.32748 0.85208 0.0
N435 N 0.24655 0.36838 0.85473 0.0
C436 C 0.22775 0.36304 0.85871 0.0
C437 C 0.22515 0.37874 0.85378 0.0
C438 C 0.24286 0.39431 0.84603 0.0
C439 C 0.25528 0.38734 0.8466 0.0
N440 N 0.28505 0.37593 0.8638 0.0
C441 C 0.28965 0.39401 0.85383 0.0
C442 C 0.30844 0.40715 0.86297 0.0
C443 C 0.31616 0.39669 0.87967 0.0
C444 C 0.30158 0.37764 0.87957 0.0
N445 N 0.26227 0.35435 0.79201 0.0
C446 C 0.26158 0.34701 0.70077 0.0
C447 C 0.24661 0.34826 0.72108 0.0
C448 C 0.2472 0.35187 0.76635 0.0
C449 C 0.27777 0.35131 0.72656 0.0
C450 C 0.2779 0.35512 0.77204 0.0
N451 N 0.25607 0.3504 0.92106 0.0
C452 C 0.25936 0.36398 0.99382 0.0
C453 C 0.25145 0.34569 1.01288 0.0
C454 C 0.24592 0.32993 0.98508 0.0
C455 C 0.24849 0.33259 0.93959 0.0
C456 C 0.26136 0.36601 0.94768 0.0
H457 H 0.24448 0.32012 0.91951 0.0
H458 H 0.26727 0.38014 0.93353 0.0
H459 H 0.23484 0.35151 0.78079 0.0
H460 H 0.2902 0.35765 0.79145 0.0
C461 C 0.24576 0.30843 0.8337 0.0
C462 C 0.30406 0.3615 0.89305 0.0
C463 C 0.21185 0.34313 0.86102 0.0
C464 C 0.27527 0.39841 0.84499 0.0
H465 H 0.3062 0.32687 0.88287 0.0
H466 H 0.27485 0.29801 0.84636 0.0
H467 H 0.20502 0.28403 0.82323 0.0
H468 H 0.18657 0.30275 0.84241 0.0
H469 H 0.21179 0.37887 0.85436 0.0
H470 H 0.24629 0.40901 0.84123 0.0
H471 H 0.31544 0.4226 0.86018 0.0
H472 H 0.33077 0.40251 0.89101 0.0
H473 H 0.23411 0.34584 0.70243 0.0
H474 H 0.28985 0.35082 0.71236 0.0
H475 H 0.2638 0.37656 1.01434 0.0
H476 H 0.24006 0.31561 0.99847 0.0
C477 C 0.95315 0.66832 0.66988 0.0
C478 C 0.97168 0.68361 0.67392 0.0
C479 C 0.97029 0.69821 0.69403 0.0
C480 C 0.95103 0.69104 0.70122 0.0
N481 N 0.9403 0.6729 0.68678 0.0
Co482 Co 0.91187 0.65729 0.68959 0.0
N483 N 0.90903 0.6802 0.69844 0.0
C484 C 0.9231 0.69754 0.71195 0.0
C485 C 0.91699 0.7106 0.7164 0.0
C486 C 0.89785 0.70078 0.70565 0.0
C487 C 0.89326 0.68215 0.69538 0.0
N488 N 0.88343 0.64141 0.69148 0.0
C489 C 0.86982 0.64656 0.68791 0.0
C490 C 0.85158 0.63071 0.6927 0.0
C491 C 0.85393 0.61523 0.69989 0.0
C492 C 0.87336 0.62241 0.69917 0.0
N493 N 0.91467 0.63434 0.6818 0.0
C494 C 0.90131 0.61616 0.69134 0.0
C495 C 0.90716 0.60322 0.68183 0.0
C496 C 0.92535 0.61392 0.66533 0.0
C497 C 0.92963 0.63291 0.66592 0.0
N498 N 0.91318 0.6554 0.7543 0.0
C499 C 0.91992 0.66258 0.84552 0.0
C500 C 0.90357 0.66116 0.82547 0.0
C501 C 0.9005 0.65762 0.7802 0.0
C502 C 0.93189 0.6585 0.8195 0.0
C503 C 0.92816 0.65477 0.77402 0.0
N504 N 0.91097 0.65997 0.62545 0.0
C505 C 0.90115 0.64684 0.55213 0.0
C506 C 0.91178 0.66525 0.53347 0.0
C507 C 0.92157 0.68084 0.56219 0.0
C508 C 0.92114 0.6779 0.60756 0.0
C509 C 0.90085 0.64453 0.59825 0.0
H510 H 0.92928 0.69029 0.62811 0.0
H511 H 0.89267 0.63029 0.6119 0.0
H512 H 0.8884 0.65786 0.76595 0.0
H513 H 0.93801 0.65244 0.75441 0.0
C514 C 0.94224 0.70162 0.71378 0.0
C515 C 0.94821 0.64924 0.65286 0.0
C516 C 0.87361 0.6664 0.68615 0.0
C517 C 0.88246 0.61151 0.7003 0.0
H518 H 0.98477 0.6841 0.66355 0.0
H519 H 0.98189 0.71257 0.70088 0.0
H520 H 0.92552 0.72561 0.72518 0.0
H521 H 0.88835 0.70664 0.7058 0.0
H522 H 0.83801 0.63041 0.6924 0.0
H523 H 0.84277 0.60047 0.70446 0.0
H524 H 0.89884 0.58775 0.68429 0.0
H525 H 0.93428 0.60831 0.65383 0.0
H526 H 0.89344 0.66341 0.84434 0.0
H527 H 0.94456 0.65913 0.83354 0.0
H528 H 0.89342 0.63428 0.53138 0.0
H529 H 0.92956 0.69539 0.54988 0.0
C530 C 0.34617 0.28942 0.67486 0.0
C531 C 0.33089 0.29275 0.67341 0.0
C532 C 0.31543 0.27689 0.69174 0.0
C533 C 0.32202 0.26467 0.7032 0.0
N534 N 0.34061 0.27193 0.6931 0.0
Co535 Co 0.35533 0.25826 0.69909 0.0
N536 N 0.33181 0.23271 0.70332 0.0
C537 C 0.31427 0.22973 0.71364 0.0
C538 C 0.30075 0.21058 0.71551 0.0
C539 C 0.31048 0.20099 0.70643 0.0
C540 C 0.3295 0.21484 0.69958 0.0
N541 N 0.37048 0.24504 0.70374 0.0
C542 C 0.36506 0.22626 0.69838 0.0
C543 C 0.38039 0.2233 0.70609 0.0
C544 C 0.39577 0.24074 0.71722 0.0
C545 C 0.38906 0.25337 0.71569 0.0
N546 N 0.37881 0.28372 0.69667 0.0
C547 C 0.39616 0.28798 0.7121 0.0
C548 C 0.40941 0.30718 0.70936 0.0
C549 C 0.39974 0.31546 0.69101 0.0
C550 C 0.38114 0.30075 0.68325 0.0
N551 N 0.35506 0.26029 0.76401 0.0
C552 C 0.3492 0.26021 0.8558 0.0
C553 C 0.3493 0.24473 0.83495 0.0
C554 C 0.35215 0.24501 0.78939 0.0
C555 C 0.35272 0.27607 0.82985 0.0
C556 C 0.35587 0.27593 0.78412 0.0
N557 N 0.35474 0.2558 0.63453 0.0
C558 C 0.36977 0.25936 0.56346 0.0
C559 C 0.35183 0.25132 0.54233 0.0
C560 C 0.3356 0.24589 0.56821 0.0
C561 C 0.33737 0.24839 0.61376 0.0
C562 C 0.37089 0.26128 0.60986 0.0
H563 H 0.32449 0.24436 0.63203 0.0
H564 H 0.38471 0.2672 0.62582 0.0
H565 H 0.35129 0.23244 0.77465 0.0
H566 H 0.35844 0.28827 0.76487 0.0
C567 C 0.31065 0.24513 0.71409 0.0
C568 C 0.36617 0.30335 0.66225 0.0
C569 C 0.34517 0.21059 0.69256 0.0
C570 C 0.40013 0.27329 0.72106 0.0
H571 H 0.33074 0.30515 0.66041 0.0
H572 H 0.30088 0.27417 0.69407 0.0
H573 H 0.28552 0.2043 0.72133 0.0
H574 H 0.30428 0.18558 0.70527 0.0
H575 H 0.38034 0.20985 0.70537 0.0
H576 H 0.41014 0.24383 0.72516 0.0
H577 H 0.42449 0.31419 0.71771 0.0
H578 H 0.40573 0.33052 0.68336 0.0
H579 H 0.34648 0.23208 0.85349 0.0
H580 H 0.353 0.28845 0.84471 0.0
H581 H 0.38271 0.26386 0.5444 0.0
H582 H 0.32154 0.24004 0.55323 0.0
C583 C 0.72305 0.05847 0.6653 0.0
C584 C 0.7192 0.03988 0.67235 0.0
C585 C 0.73482 0.0413 0.69443 0.0
C586 C 0.7473 0.06063 0.69969 0.0
N587 N 0.7405 0.07138 0.68221 0.0
Co588 Co 0.75401 0.09989 0.68169 0.0
N589 N 0.77933 0.10226 0.69412 0.0
C590 C 0.78196 0.0882 0.71054 0.0
C591 C 0.80096 0.094 0.71724 0.0
C592 C 0.81084 0.11295 0.70493 0.0
C593 C 0.7973 0.11774 0.6915 0.0
N594 N 0.76721 0.12839 0.68022 0.0
C595 C 0.78613 0.14162 0.67748 0.0
C596 C 0.78894 0.16011 0.67918 0.0
C597 C 0.77124 0.15834 0.68366 0.0
C598 C 0.75863 0.13899 0.68447 0.0
N599 N 0.72868 0.09761 0.67035 0.0
C600 C 0.72423 0.11147 0.67671 0.0
C601 C 0.70561 0.10582 0.66581 0.0
C602 C 0.69783 0.08723 0.65174 0.0
C603 C 0.71219 0.08254 0.65506 0.0
N604 N 0.75013 0.10015 0.74609 0.0
C605 C 0.74912 0.09595 0.83869 0.0
C606 C 0.76456 0.11152 0.81788 0.0
C607 C 0.76482 0.11332 0.77192 0.0
C608 C 0.73355 0.08317 0.81232 0.0
C609 C 0.7342 0.08572 0.76619 0.0
N610 N 0.75836 0.09921 0.618 0.0
C611 C 0.75715 0.10826 0.54255 0.0
C612 C 0.76477 0.09692 0.52716 0.0
C613 C 0.76918 0.08698 0.55859 0.0
C614 C 0.76576 0.08819 0.60332 0.0
C615 C 0.75413 0.10927 0.58808 0.0
H616 H 0.76915 0.08006 0.62602 0.0
H617 H 0.74829 0.11805 0.59911 0.0
H618 H 0.77753 0.12486 0.75736 0.0
H619 H 0.72218 0.07549 0.74664 0.0
C620 C 0.76652 0.06927 0.7135 0.0
C621 C 0.70947 0.06349 0.64529 0.0
C622 C 0.80186 0.13738 0.67984 0.0
C623 C 0.73867 0.13035 0.68427 0.0
H624 H 0.70645 0.02674 0.66268 0.0
H625 H 0.73708 0.02963 0.70389 0.0
H626 H 0.80697 0.0854 0.72869 0.0
H627 H 0.82624 0.12222 0.70624 0.0
H628 H 0.8024 0.17351 0.6788 0.0
H629 H 0.76796 0.16981 0.68562 0.0
H630 H 0.69879 0.11447 0.66586 0.0
H631 H 0.68328 0.07826 0.64012 0.0
H632 H 0.77694 0.12175 0.83673 0.0
H633 H 0.72114 0.07111 0.82709 0.0
H634 H 0.75327 0.11608 0.51968 0.0
H635 H 0.77544 0.07836 0.54895 0.0
C636 C 0.04552 0.41604 0.48744 0.0
C637 C 0.06456 0.42065 0.48401 0.0
C638 C 0.07545 0.43922 0.49816 0.0
C639 C 0.06255 0.44493 0.5092 0.0
N640 N 0.04421 0.43113 0.50289 0.0
Co641 Co 0.02123 0.43351 0.51438 0.0
N642 N 0.03665 0.46201 0.513 0.0
C643 C 0.05587 0.47254 0.51707 0.0
C644 C 0.06271 0.49191 0.51629 0.0
C645 C 0.04681 0.49376 0.51204 0.0
C646 C 0.03105 0.47531 0.51048 0.0
N647 N 0.99835 0.43598 0.52699 0.0
C648 C 0.99598 0.45153 0.52473 0.0
C649 C 0.97768 0.44681 0.53838 0.0
C650 C 0.96853 0.42783 0.55043 0.0
C651 C 0.98163 0.42194 0.54339 0.0
N652 N 1.00611 0.40501 0.51477 0.0
C653 C 0.98855 0.39429 0.53225 0.0
C654 C 0.9816 0.37495 0.5268 0.0
C655 C 0.99574 0.3735 0.50459 0.0
C656 C 0.01054 0.39207 0.49766 0.0
N657 N 0.02539 0.4337 0.57879 0.0
C658 C 0.02208 0.42938 0.67139 0.0
C659 C 0.02478 0.41657 0.64494 0.0
C660 C 0.02675 0.41919 0.59882 0.0
C661 C 0.02239 0.44505 0.65065 0.0
C662 C 0.024 0.44692 0.6047 0.0
N663 N 0.01616 0.4329 0.45068 0.0
C664 C 0.99303 0.42072 0.39132 0.0
C665 C 0.00738 0.43056 0.35982 0.0
C666 C 0.02637 0.44184 0.37516 0.0
C667 C 0.03044 0.44287 0.4207 0.0
C668 C 0.9977 0.42195 0.43605 0.0
H669 H 0.04509 0.45159 0.43167 0.0
H670 H 0.98618 0.41388 0.45878 0.0
H671 H 0.02844 0.40892 0.57922 0.0
H672 H 0.02295 0.45853 0.59022 0.0
C673 C 0.0671 0.46384 0.51677 0.0
C674 C 0.02911 0.39705 0.47752 0.0
C675 C 0.01113 0.47117 0.51331 0.0
C676 C 0.97805 0.40299 0.54619 0.0
H677 H 0.07006 0.41165 0.47222 0.0
H678 H 0.09094 0.44782 0.49812 0.0
H679 H 0.07749 0.50334 0.51815 0.0
H680 H 0.04684 0.50721 0.51178 0.0
H681 H 0.97167 0.45616 0.54004 0.0
H682 H 0.95393 0.41927 0.562 0.0
H683 H 0.96763 0.36331 0.5362 0.0
H684 H 0.99527 0.36035 0.49474 0.0
H685 H 0.02502 0.40444 0.65964 0.0
H686 H 0.02032 0.45532 0.66953 0.0
H687 H 0.97813 0.41215 0.38174 0.0
H688 H 0.03808 0.44959 0.35224 0.0
C689 C 0.59381 0.63227 0.4976 0.0
C690 C 0.58927 0.64679 0.4972 0.0
C691 C 0.57117 0.63914 0.51433 0.0
C692 C 0.56562 0.62043 0.52398 0.0
N693 N 0.57908 0.61581 0.51395 0.0
Co694 Co 0.57663 0.5902 0.52182 0.0
N695 N 0.54817 0.57731 0.52467 0.0
C696 C 0.53799 0.58609 0.53274 0.0
C697 C 0.5186 0.57367 0.53434 0.0
C698 C 0.51639 0.55589 0.52736 0.0
C699 C 0.53466 0.55845 0.52176 0.0
N700 N 0.57412 0.56459 0.53077 0.0
C701 C 0.55843 0.54672 0.52827 0.0
C702 C 0.56335 0.5329 0.5381 0.0
C703 C 0.58257 0.5425 0.54808 0.0
C704 C 0.58843 0.56161 0.5436 0.0
N705 N 0.60505 0.60337 0.518 0.0
C706 C 0.61604 0.59621 0.53198 0.0
C707 C 0.63522 0.60848 0.52411 0.0
C708 C 0.63628 0.62431 0.50402 0.0
C709 C 0.61765 0.62082 0.50065 0.0
N710 N 0.5783 0.5937 0.58661 0.0
C711 C 0.58451 0.59473 0.6786 0.0
C712 C 0.59674 0.61026 0.65161 0.0
C713 C 0.59322 0.60959 0.60585 0.0
C714 C 0.56861 0.57919 0.65871 0.0
C715 C 0.5658 0.57893 0.61307 0.0
N716 N 0.57541 0.58633 0.45761 0.0
C717 C 0.5859 0.57604 0.39392 0.0
C718 C 0.57598 0.58175 0.36569 0.0
C719 C 0.56556 0.58971 0.38443 0.0
C720 C 0.56528 0.59167 0.43062 0.0
C721 C 0.58557 0.57859 0.43939 0.0
H722 H 0.5571 0.5977 0.44448 0.0
H723 H 0.59391 0.57455 0.45968 0.0
H724 H 0.60301 0.62162 0.5858 0.0
H725 H 0.55395 0.56623 0.59913 0.0
C726 C 0.54691 0.60609 0.53357 0.0
C727 C 0.61241 0.63476 0.48385 0.0
C728 C 0.5386 0.54249 0.51988 0.0
C729 C 0.6075 0.57688 0.54471 0.0
H730 H 0.59797 0.66132 0.48539 0.0
H731 H 0.5627 0.64611 0.5171 0.0
H732 H 0.50738 0.57714 0.53942 0.0
H733 H 0.50289 0.54252 0.52778 0.0
H734 H 0.55402 0.5175 0.53843 0.0
H735 H 0.59132 0.53622 0.55635 0.0
H736 H 0.64696 0.60592 0.53049 0.0
H737 H 0.64923 0.63698 0.49321 0.0
H738 H 0.60904 0.62274 0.66564 0.0
H739 H 0.55878 0.56679 0.67798 0.0
H740 H 0.59439 0.57015 0.38087 0.0
H741 H 0.55765 0.59429 0.36363 0.0
C742 C 0.37778 0.96406 0.49981 0.0
C743 C 0.36327 0.94498 0.49886 0.0
C744 C 0.37095 0.93446 0.51543 0.0
C745 C 0.38966 0.9476 0.52532 0.0
N746 N 0.39423 0.96572 0.51601 0.0
Co747 Co 0.41978 0.9889 0.52412 0.0
N748 N 0.43273 0.97341 0.52545 0.0
C749 C 0.42407 0.9544 0.53288 0.0
C750 C 0.43657 0.94752 0.53315 0.0
C751 C 0.45427 0.96321 0.52594 0.0
C752 C 0.45157 0.97888 0.5216 0.0
N753 N 0.44533 0.01204 0.53331 0.0
C754 C 0.46319 0.01433 0.52999 0.0
C755 C 0.47702 0.03299 0.54074 0.0
C756 C 0.46741 0.04246 0.55202 0.0
C757 C 0.44829 0.02919 0.54741 0.0
N758 N 0.40655 1.00409 0.52178 0.0
C759 C 0.41364 0.02211 0.53676 0.0
C760 C 0.40133 0.02901 0.52947 0.0
C761 C 0.38556 0.01436 0.50867 0.0
C762 C 0.38915 0.99932 0.50434 0.0
N763 N 0.41661 0.98675 0.5889 0.0
C764 C 0.41717 0.9939 0.68027 0.0
C765 C 0.40101 0.98964 0.65439 0.0
C766 C 0.40095 0.98592 0.60885 0.0
C767 C 0.43213 0.99262 0.65999 0.0
C768 C 0.43161 0.9891 0.61467 0.0
N769 N 0.42337 0.99191 0.45999 0.0
C770 C 0.43339 0.01312 0.39731 0.0
C771 C 0.42791 0.99774 0.36812 0.0
C772 C 0.42038 0.97925 0.38625 0.0
C773 C 0.41832 0.97667 0.43233 0.0
C774 C 0.43086 0.0099 0.4426 0.0
H775 H 0.41247 0.96239 0.44558 0.0
H776 H 0.43488 0.02214 0.46351 0.0
H777 H 0.38869 0.98347 0.58936 0.0
H778 H 0.444 0.9895 0.60026 0.0
C779 C 0.40408 0.94323 0.53407 0.0
C780 C 0.37537 0.98026 0.48648 0.0
C781 C 0.4674 0.99885 0.51996 0.0
C782 C 0.433 0.03291 0.54953 0.0
H783 H 0.34874 0.93918 0.48696 0.0
H784 H 0.36401 0.919 0.51753 0.0
H785 H 0.43321 0.93283 0.53739 0.0
H786 H 0.46767 0.96317 0.52532 0.0
H787 H 0.49241 0.03908 0.54084 0.0
H788 H 0.47368 0.0574 0.56124 0.0
H789 H 0.40383 0.04325 0.5366 0.0
H790 H 0.37289 0.01466 0.498 0.0
H791 H 0.38893 0.99014 0.66854 0.0
H792 H 0.44461 0.995 0.67869 0.0
H793 H 0.43974 0.02771 0.38544 0.0
H794 H 0.4158 0.96684 0.36513 0.0
C795 C 0.75231 0.7115 0.7141 0.0
C796 C 0.75696 0.73059 0.71444 0.0
C797 C 0.77504 0.74095 0.69711 0.0
C798 C 0.78048 0.7277 0.68743 0.0
N799 N 0.76695 0.70966 0.6976 0.0
Co800 Co 0.76918 0.68639 0.68994 0.0
N801 N 0.79762 0.70181 0.68733 0.0
C802 C 0.80795 0.72076 0.67909 0.0
C803 C 0.82732 0.72759 0.67805 0.0
C804 C 0.82934 0.71193 0.68559 0.0
C805 C 0.81098 0.69633 0.6909 0.0
N806 N 0.77144 0.66316 0.68123 0.0
C807 C 0.78701 0.66085 0.68424 0.0
C808 C 0.78203 0.64209 0.67425 0.0
C809 C 0.76285 0.63255 0.66379 0.0
C810 C 0.7571 0.6459 0.6681 0.0
N811 N 0.74077 0.67127 0.69353 0.0
C812 C 0.72968 0.65314 0.67939 0.0
C813 C 0.71052 0.64633 0.68735 0.0
C814 C 0.70961 0.66117 0.7077 0.0
C815 C 0.7283 0.67622 0.71111 0.0
N816 N 0.76765 0.68815 0.6252 0.0
C817 C 0.76187 0.6833 0.53316 0.0
C818 C 0.74958 0.68662 0.55993 0.0
C819 C 0.7529 0.68931 0.60578 0.0
C820 C 0.77758 0.68343 0.55328 0.0
C821 C 0.78017 0.6858 0.59897 0.0
N822 N 0.77032 0.68387 0.75409 0.0
C823 C 0.75988 0.66327 0.81789 0.0
C824 C 0.7701 0.67897 0.84587 0.0
C825 C 0.78059 0.6973 0.827 0.0
C826 C 0.78069 0.69941 0.78087 0.0
C827 C 0.76004 0.66602 0.77244 0.0
H828 H 0.78896 0.71357 0.76686 0.0
H829 H 0.75153 0.6536 0.75225 0.0
H830 H 0.74311 0.6916 0.6257 0.0
H831 H 0.79189 0.6848 0.61311 0.0
C832 C 0.79917 0.73196 0.67794 0.0
C833 C 0.73375 0.69543 0.72821 0.0
C834 C 0.8068 0.67636 0.69327 0.0
C835 C 0.73807 0.6422 0.66669 0.0
H836 H 0.74835 0.73652 0.72638 0.0
H837 H 0.78359 0.75639 0.69433 0.0
H838 H 0.83866 0.74224 0.67309 0.0
H839 H 0.84277 0.71195 0.68582 0.0
H840 H 0.7913 0.63596 0.67413 0.0
H841 H 0.75406 0.61753 0.65535 0.0
H842 H 0.6987 0.63205 0.68094 0.0
H843 H 0.69674 0.66098 0.71868 0.0
H844 H 0.73742 0.68695 0.54567 0.0
H845 H 0.78741 0.68082 0.53411 0.0
H846 H 0.75134 0.64893 0.83114 0.0
H847 H 0.78871 0.70982 0.84767 0.0
C848 C 0.29911 0.04343 0.71373 0.0
C849 C 0.28 0.029 0.7134 0.0
C850 C 0.26975 0.03684 0.69615 0.0
C851 C 0.28306 0.05558 0.68716 0.0
N852 N 0.30105 0.06002 0.69771 0.0
Co853 Co 0.32436 0.08559 0.69102 0.0
N854 N 0.30899 0.09866 0.68833 0.0
C855 C 0.29008 0.09006 0.67957 0.0
C856 C 0.28326 0.10261 0.67845 0.0
C857 C 0.29888 0.12027 0.68652 0.0
C858 C 0.31446 0.11751 0.69223 0.0
N859 N 0.34763 0.11117 0.68326 0.0
C860 C 0.34995 0.12906 0.68655 0.0
C861 C 0.36877 0.14287 0.67725 0.0
C862 C 0.37831 0.13324 0.66685 0.0
C863 C 0.36493 0.11412 0.67056 0.0
N864 N 0.33942 0.07224 0.69468 0.0
C865 C 0.35761 0.07936 0.68105 0.0
C866 C 0.36436 0.06696 0.68877 0.0
C867 C 0.34943 0.05108 0.70838 0.0
C868 C 0.33438 0.0547 0.71165 0.0
N869 N 0.32294 0.08262 0.62609 0.0
C870 C 0.33068 0.08322 0.53498 0.0
C871 C 0.32614 0.06701 0.56087 0.0
C872 C 0.32215 0.06693 0.60625 0.0
C873 C 0.32948 0.09827 0.55512 0.0
C874 C 0.32566 0.09772 0.60028 0.0
N875 N 0.32667 0.08901 0.75534 0.0
C876 C 0.34719 0.09908 0.81949 0.0
C877 C 0.33147 0.09358 0.8473 0.0
C878 C 0.31317 0.08574 0.82814 0.0
C879 C 0.3111 0.08377 0.78192 0.0
C880 C 0.34448 0.09653 0.774 0.0
H881 H 0.29696 0.07789 0.76769 0.0
H882 H 0.35693 0.10047 0.75403 0.0
H883 H 0.31946 0.05461 0.62572 0.0
H884 H 0.32606 0.11015 0.61459 0.0
C885 C 0.27888 0.07008 0.67788 0.0
C886 C 0.31507 0.04079 0.72794 0.0
C887 C 0.33441 0.13333 0.69527 0.0
C888 C 0.3686 0.09878 0.66896 0.0
H889 H 0.274 0.01439 0.72484 0.0
H890 H 0.25432 0.02998 0.69293 0.0
H891 H 0.26863 0.0993 0.67306 0.0
H892 H 0.29887 0.13369 0.68679 0.0
H893 H 0.37493 0.15828 0.67755 0.0
H894 H 0.39336 0.13949 0.65885 0.0
H895 H 0.37866 0.06945 0.68263 0.0
H896 H 0.34955 0.03831 0.71896 0.0
H897 H 0.32659 0.05486 0.54686 0.0
H898 H 0.33208 0.1108 0.53641 0.0
H899 H 0.36151 0.10487 0.83291 0.0
H900 H 0.30062 0.0813 0.84864 0.0
C901 C 0.96761 0.25939 0.72145 0.0
C902 C 0.98205 0.25477 0.7243 0.0
C903 C 0.9744 0.23633 0.70925 0.0
C904 C 0.95578 0.23069 0.6983 0.0
N905 N 0.95122 0.24441 0.70556 0.0
Co906 Co 0.92583 0.24206 0.69468 0.0
N907 N 0.91279 0.21357 0.6947 0.0
C908 C 0.92147 0.2031 0.68957 0.0
C909 C 0.90894 0.18372 0.68963 0.0
C910 C 0.89119 0.1818 0.69456 0.0
C911 C 0.89389 0.20023 0.69725 0.0
N912 N 0.90045 0.23962 0.68274 0.0
C913 C 0.88253 0.22406 0.68502 0.0
C914 C 0.8689 0.22882 0.67215 0.0
C915 C 0.87869 0.24786 0.6606 0.0
C916 C 0.89772 0.25374 0.66715 0.0
N917 N 0.93917 0.27055 0.69554 0.0
C918 C 0.93229 0.28136 0.67881 0.0
C919 C 0.94466 0.30066 0.68497 0.0
C920 C 0.96028 0.30199 0.70683 0.0
C921 C 0.95654 0.28338 0.71287 0.0
N922 N 0.92984 0.24245 0.63021 0.0
C923 C 0.93123 0.24746 0.53782 0.0
C924 C 0.94669 0.26 0.56475 0.0
C925 C 0.94585 0.25704 0.61075 0.0
C926 C 0.91566 0.23175 0.55798 0.0
C927 C 0.91522 0.22954 0.60384 0.0
N928 N 0.92141 0.24213 0.75849 0.0
C929 C 0.91071 0.25396 0.81896 0.0
C930 C 0.91537 0.24397 0.84969 0.0
C931 C 0.92296 0.23274 0.83343 0.0
C932 C 0.9258 0.23196 0.78772 0.0
C933 C 0.91394 0.25296 0.77403 0.0
H934 H 0.93168 0.22331 0.77601 0.0
H935 H 0.9104 0.26116 0.75188 0.0
H936 H 0.9578 0.26709 0.63074 0.0
H937 H 0.90246 0.21788 0.61793 0.0
C938 C 0.94144 0.21184 0.68988 0.0
C939 C 0.97017 0.27829 0.73229 0.0
C940 C 0.8781 0.20438 0.69586 0.0
C941 C 0.91308 0.27273 0.66491 0.0
H942 H 0.99655 0.26369 0.73628 0.0
H943 H 0.9813 0.22776 0.70861 0.0
H944 H 0.91231 0.17232 0.68696 0.0
H945 H 0.87776 0.16836 0.69466 0.0
H946 H 0.85352 0.21947 0.67073 0.0
H947 H 0.8726 0.25648 0.64977 0.0
H948 H 0.94232 0.31235 0.67625 0.0
H949 H 0.97296 0.31508 0.71702 0.0
H950 H 0.9592 0.27214 0.55051 0.0
H951 H 0.90334 0.22169 0.5387 0.0
H952 H 0.90443 0.26248 0.82931 0.0
H953 H 0.92699 0.22486 0.85577 0.0
C954 C 0.33562 0.28319 0.21593 0.0
C955 C 0.35046 0.30183 0.20997 0.0
C956 C 0.36487 0.30058 0.18849 0.0
C957 C 0.35803 0.28129 0.18246 0.0
N958 N 0.34029 0.27042 0.1989 0.0
Co959 Co 0.32524 0.24193 0.19806 0.0
N960 N 0.34832 0.23963 0.18686 0.0
C961 C 0.36519 0.2538 0.17146 0.0
C962 C 0.37846 0.24805 0.16557 0.0
C963 C 0.36927 0.22904 0.17736 0.0
C964 C 0.35078 0.22415 0.18966 0.0
N965 N 0.30991 0.21343 0.19813 0.0
C966 C 0.31556 0.20018 0.20116 0.0
C967 C 0.2999 0.18171 0.19819 0.0
C968 C 0.28402 0.18351 0.19269 0.0
C969 C 0.29078 0.20287 0.19254 0.0
N970 N 0.30209 0.24414 0.20821 0.0
C971 C 0.28385 0.23035 0.20064 0.0
C972 C 0.27078 0.2359 0.21119 0.0
C973 C 0.28146 0.25436 0.22629 0.0
C974 C 0.30055 0.25907 0.22388 0.0
N975 N 0.32188 0.24228 0.13356 0.0
C976 C 0.32779 0.24835 0.04187 0.0
C977 C 0.32683 0.23224 0.06206 0.0
C978 C 0.32393 0.22951 0.10756 0.0
C979 C 0.32372 0.2603 0.06808 0.0
C980 C 0.32059 0.25688 0.11378 0.0
N981 N 0.32948 0.24204 0.26191 0.0
C982 C 0.31825 0.23271 0.33663 0.0
C983 C 0.33701 0.244 0.3532 0.0
C984 C 0.35179 0.25398 0.32277 0.0
C985 C 0.34774 0.25293 0.27777 0.0
C986 C 0.31481 0.23186 0.29084 0.0
H987 H 0.35955 0.26114 0.25584 0.0
H988 H 0.30032 0.22315 0.27884 0.0
H989 H 0.32462 0.21766 0.12185 0.0
H990 H 0.31831 0.26676 0.13346 0.0
C991 C 0.36873 0.27275 0.16897 0.0
C992 C 0.31681 0.27802 0.23494 0.0
C993 C 0.33557 0.20445 0.20054 0.0
C994 C 0.27947 0.21153 0.19239 0.0
H995 H 0.35078 0.31489 0.21998 0.0
H996 H 0.37891 0.31232 0.17994 0.0
H997 H 0.39321 0.25674 0.15509 0.0
H998 H 0.37544 0.21981 0.17651 0.0
H999 H 0.29996 0.16831 0.19851 0.0
H1000 H 0.26929 0.17206 0.18972 0.0
H1001 H 0.2553 0.22726 0.21028 0.0
H1002 H 0.27577 0.26321 0.23803 0.0
H1003 H 0.32906 0.22209 0.04312 0.0
H1004 H 0.32396 0.27277 0.05402 0.0
H1005 H 0.30625 0.22484 0.35875 0.0
H1006 H 0.36655 0.26254 0.33343 0.0
C1007 C 0.72926 0.05114 0.20036 0.0
C1008 C 0.71026 0.04659 0.19724 0.0
C1009 C 0.71035 0.06284 0.18262 0.0
C1010 C 0.72934 0.07636 0.17669 0.0
N1011 N 0.74106 0.06955 0.18672 0.0
Co1012 Co 0.76946 0.08418 0.18136 0.0
N1013 N 0.77064 0.10938 0.18133 0.0
C1014 C 0.75576 0.11197 0.17192 0.0
C1015 C 0.76082 0.13099 0.17246 0.0
C1016 C 0.78011 0.1409 0.18212 0.0
C1017 C 0.78586 0.12738 0.18684 0.0
N1018 N 0.79784 0.09832 0.17704 0.0
C1019 C 0.81082 0.11701 0.18495 0.0
C1020 C 0.82928 0.12075 0.17557 0.0
C1021 C 0.82765 0.10399 0.16021 0.0
C1022 C 0.80841 0.09094 0.16127 0.0
N1023 N 0.76848 0.05915 0.17925 0.0
C1024 C 0.78114 0.05636 0.15613 0.0
C1025 C 0.77394 0.03775 0.14282 0.0
C1026 C 0.75563 0.02822 0.15909 0.0
C1027 C 0.75317 0.04132 0.1842 0.0
N1028 N 0.76727 0.08375 0.11616 0.0
C1029 C 0.76062 0.086 0.02521 0.0
C1030 C 0.77619 0.10115 0.04721 0.0
C1031 C 0.77919 0.09979 0.09231 0.0
C1032 C 0.74909 0.06923 0.04947 0.0
C1033 C 0.75271 0.06836 0.09462 0.0
N1034 N 0.77104 0.08513 0.24613 0.0
C1035 C 0.78366 0.0822 0.31632 0.0
C1036 C 0.77299 0.08914 0.33852 0.0
C1037 C 0.76108 0.09345 0.31367 0.0
C1038 C 0.76018 0.09119 0.26809 0.0
C1039 C 0.78261 0.08047 0.26975 0.0
H1040 H 0.75064 0.09456 0.25066 0.0
H1041 H 0.79116 0.07554 0.25277 0.0
H1042 H 0.79084 0.11211 0.10808 0.0
H1043 H 0.7432 0.05545 0.11236 0.0
C1044 C 0.73699 0.09611 0.16882 0.0
C1045 C 0.73572 0.03712 0.20916 0.0
C1046 C 0.80602 0.13216 0.19311 0.0
C1047 C 0.79973 0.0716 0.14893 0.0
H1048 H 0.69763 0.03284 0.20346 0.0
H1049 H 0.69804 0.06465 0.17781 0.0
H1050 H 0.75155 0.13695 0.16749 0.0
H1051 H 0.78895 0.15632 0.1848 0.0
H1052 H 0.84247 0.1344 0.17714 0.0
H1053 H 0.8391 0.1017 0.14896 0.0
H1054 H 0.7809 0.03192 0.12257 0.0
H1055 H 0.74511 0.01349 0.15162 0.0
H1056 H 0.78595 0.11422 0.02995 0.0
H1057 H 0.73688 0.05706 0.03428 0.0
H1058 H 0.79293 0.07854 0.33461 0.0
H1059 H 0.75227 0.09841 0.32949 0.0
C1060 C 0.95623 0.67567 0.20868 0.0
C1061 C 0.95975 0.66056 0.20474 0.0
C1062 C 0.94391 0.64585 0.18435 0.0
C1063 C 0.93164 0.65278 0.1769 0.0
N1064 N 0.93879 0.67087 0.19144 0.0
Co1065 Co 0.92571 0.68619 0.18807 0.0
N1066 N 0.90013 0.66308 0.17881 0.0
C1067 C 0.8971 0.64582 0.1654 0.0
C1068 C 0.87796 0.63258 0.16086 0.0
C1069 C 0.86842 0.64218 0.17151 0.0
C1070 C 0.8823 0.66088 0.18183 0.0
N1071 N 0.91286 0.70176 0.18551 0.0
C1072 C 0.89403 0.69637 0.18891 0.0
C1073 C 0.89141 0.71205 0.18375 0.0
C1074 C 0.90915 0.72767 0.17654 0.0
C1075 C 0.92161 0.72074 0.17761 0.0
N1076 N 0.95128 0.70934 0.19635 0.0
C1077 C 0.95593 0.72745 0.18663 0.0
C1078 C 0.97464 0.74058 0.19658 0.0
C1079 C 0.98225 0.73006 0.21351 0.0
C1080 C 0.96771 0.71099 0.21271 0.0
N1081 N 0.92924 0.68822 0.12349 0.0
C1082 C 0.93077 0.6841 0.03144 0.0
C1083 C 0.915 0.68396 0.05123 0.0
C1084 C 0.91449 0.68598 0.09697 0.0
C1085 C 0.94624 0.68729 0.05855 0.0
C1086 C 0.94531 0.68961 0.10442 0.0
N1087 N 0.92185 0.68347 0.2521 0.0
C1088 C 0.9249 0.69682 0.32501 0.0
C1089 C 0.91709 0.6785 0.34382 0.0
C1090 C 0.91159 0.6628 0.31578 0.0
C1091 C 0.91422 0.6656 0.27032 0.0
C1092 C 0.92697 0.69898 0.27893 0.0
H1093 H 0.91031 0.65321 0.25001 0.0
H1094 H 0.93288 0.71315 0.26502 0.0
H1095 H 0.90167 0.68483 0.11089 0.0
H1096 H 0.9573 0.69182 0.12461 0.0
C1097 C 0.91232 0.64199 0.16396 0.0
C1098 C 0.97015 0.6948 0.2259 0.0
C1099 C 0.87817 0.67645 0.19121 0.0
C1100 C 0.94161 0.73186 0.17698 0.0
H1101 H 0.97242 0.66026 0.21535 0.0
H1102 H 0.94136 0.63157 0.17746 0.0
H1103 H 0.87165 0.61758 0.15217 0.0
H1104 H 0.85303 0.63614 0.17133 0.0
H1105 H 0.87802 0.71214 0.18396 0.0
H1106 H 0.91257 0.74236 0.17186 0.0
H1107 H 0.98164 0.75604 0.19408 0.0
H1108 H 0.99678 0.73584 0.22538 0.0
H1109 H 0.90266 0.68144 0.03173 0.0
H1110 H 0.95885 0.6878 0.04453 0.0
H1111 H 0.92928 0.70934 0.34569 0.0
H1112 H 0.90579 0.64846 0.32897 0.0
C1113 C 0.61873 1.00058 1.00318 0.0
C1114 C 0.63732 0.01585 1.00632 0.0
C1115 C 0.63613 0.03068 0.02579 0.0
C1116 C 0.61693 0.02366 0.03352 0.0
N1117 N 0.60605 0.0054 1.02004 0.0
Co1118 Co 0.57765 0.98992 0.02389 0.0
N1119 N 0.57498 0.01298 0.03156 0.0
C1120 C 0.58917 0.03042 0.0441 0.0
C1121 C 0.58314 0.04358 0.04788 0.0
C1122 C 0.56394 0.03371 0.0377 0.0
C1123 C 0.55923 0.01497 0.02841 0.0
N1124 N 0.54923 0.97416 0.02686 0.0
C1125 C 0.53565 0.97934 0.02299 0.0
C1126 C 0.51742 0.96359 0.02869 0.0
C1127 C 0.51973 0.94815 0.03678 0.0
C1128 C 0.53915 0.95525 0.03565 0.0
N1129 N 0.5803 0.96684 1.01724 0.0
C1130 C 0.56696 0.94878 0.02784 0.0
C1131 C 0.57267 0.93569 1.01882 0.0
C1132 C 0.59074 0.94616 1.00151 0.0
C1133 C 0.5951 0.96517 1.00118 0.0
N1134 N 0.57935 0.98867 0.08868 0.0
C1135 C 0.58631 0.99615 0.17981 0.0
C1136 C 0.57003 0.99488 0.15977 0.0
C1137 C 0.56685 0.9912 0.11456 0.0
C1138 C 0.59815 0.99187 0.15381 0.0
C1139 C 0.59432 0.98801 0.10837 0.0
N1140 N 0.57631 0.99194 0.95965 0.0
C1141 C 0.56561 0.97797 0.88734 0.0
C1142 C 0.57579 0.99618 0.86778 0.0
C1143 C 0.58614 0.0121 0.89512 0.0
C1144 C 0.58635 0.00967 0.94063 0.0
C1145 C 0.56589 0.97618 0.9335 0.0
H1146 H 0.59489 0.02225 0.96033 0.0
H1147 H 0.55782 0.96211 0.94805 0.0
H1148 H 0.55477 0.99149 0.10033 0.0
H1149 H 0.60405 0.98549 0.08878 0.0
C1150 C 0.60829 0.03444 0.04561 0.0
C1151 C 0.6136 0.98133 0.98705 0.0
C1152 C 0.53952 0.99918 1.01998 0.0
C1153 C 0.54819 0.9443 0.03725 0.0
H1154 H 0.65031 0.01618 0.99576 0.0
H1155 H 0.64781 0.04509 0.03184 0.0
H1156 H 0.59176 0.05866 0.05584 0.0
H1157 H 0.55448 0.03962 0.03757 0.0
H1158 H 0.50387 0.96335 0.02835 0.0
H1159 H 0.50856 0.93346 0.04215 0.0
H1160 H 0.56431 0.92025 1.02208 0.0
H1161 H 0.59954 0.94038 0.99008 0.0
H1162 H 0.56 0.99731 0.1786 0.0
H1163 H 0.61077 0.99239 0.16783 0.0
H1164 H 0.55741 0.96529 0.86719 0.0
H1165 H 0.59447 0.02636 0.88133 0.0
C1166 C 0.01633 0.62393 1.01312 0.0
C1167 C 1.00174 0.62828 1.01621 0.0
C1168 C 0.98568 0.61194 0.03086 0.0
C1169 C 0.99133 0.59858 0.03686 0.0
N1170 N 0.00989 0.60556 0.02684 0.0
Co1171 Co 0.02391 0.59119 0.03241 0.0
N1172 N 1.00004 0.56584 0.03268 0.0
C1173 C 0.98249 0.56308 0.04198 0.0
C1174 C 0.96865 0.54401 0.04163 0.0
C1175 C 0.97817 0.53424 0.03223 0.0
C1176 C 0.99742 0.54788 0.02751 0.0
N1177 N 0.0384 0.5773 0.03696 0.0
C1178 C 0.03284 0.55861 0.02943 0.0
C1179 C 0.04771 0.55511 0.03894 0.0
C1180 C 0.06278 0.57201 0.05398 0.0
C1181 C 0.0564 0.5849 0.05262 0.0
N1182 N 0.04784 0.61637 0.0343 0.0
C1183 C 0.06337 0.61936 0.0574 0.0
C1184 C 0.07464 0.63801 0.07066 0.0
C1185 C 0.06567 0.64735 0.05437 0.0
C1186 C 0.05016 0.63412 0.02927 0.0
N1187 N 0.0222 0.59174 0.0976 0.0
C1188 C 0.01331 0.58963 0.18852 0.0
C1189 C 0.01383 0.57449 0.16676 0.0
C1190 C 0.01821 0.57579 0.12168 0.0
C1191 C 0.01843 0.60631 0.16404 0.0
C1192 C 0.02291 0.60711 0.11891 0.0
N1193 N 0.02451 0.59015 0.96764 0.0
C1194 C 0.04012 0.59343 0.89738 0.0
C1195 C 0.02247 0.58631 0.87518 0.0
C1196 C 1.00619 0.5817 0.90011 0.0
C1197 C 0.00753 0.58386 0.94571 0.0
C1198 C 0.0408 0.59507 0.94398 0.0
H1199 H 0.99458 0.58029 0.96317 0.0
H1200 H 0.05432 0.60018 0.96093 0.0
H1201 H 0.01764 0.56349 0.10609 0.0
H1202 H 0.0262 0.61995 0.10101 0.0
C1203 C 0.97939 0.57881 0.04488 0.0
C1204 C 0.03677 0.63812 1.0043 0.0
C1205 C 0.01294 0.54328 1.0216 0.0
C1206 C 0.06691 0.60427 0.06474 0.0
H1207 H 1.00271 0.64196 1.00997 0.0
H1208 H 0.9715 0.60997 0.03569 0.0
H1209 H 0.95339 0.53792 0.04655 0.0
H1210 H 0.97171 0.51883 0.02974 0.0
H1211 H 0.04739 0.54153 0.0377 0.0
H1212 H 0.07659 0.57448 0.06526 0.0
H1213 H 0.08743 0.64397 0.09093 0.0
H1214 H 0.06974 0.66204 0.06183 0.0
H1215 H 0.01059 0.56148 0.18422 0.0
H1216 H 0.0183 0.61846 0.17905 0.0
H1217 H 0.0531 0.59733 0.87905 0.0
H1218 H 0.99238 0.5766 0.88433 0.0
C1219 C 0.39075 0.39271 0.99838 0.0
C1220 C 0.38675 0.37407 1.00533 0.0
C1221 C 0.4023 0.37533 0.02737 0.0
C1222 C 0.4149 0.39463 0.03273 0.0
N1223 N 0.40822 0.40551 1.01533 0.0
Co1224 Co 0.42192 0.43401 1.01503 0.0
N1225 N 0.44715 0.43616 0.02737 0.0
C1226 C 0.44964 0.422 0.04369 0.0
C1227 C 0.46862 0.42764 0.05009 0.0
C1228 C 0.47863 0.44656 0.03765 0.0
C1229 C 0.46517 0.45152 0.02448 0.0
N1230 N 0.43531 0.46251 1.01383 0.0
C1231 C 0.45427 0.47563 1.01101 0.0
C1232 C 0.45725 0.49417 1.01314 0.0
C1233 C 0.43961 0.49256 1.01787 0.0
C1234 C 0.42687 0.47323 1.01844 0.0
N1235 N 0.39669 0.43197 1.00376 0.0
C1236 C 0.39238 0.44591 1.01035 0.0
C1237 C 0.3738 0.44043 0.99945 0.0
C1238 C 0.36589 0.42185 0.98517 0.0
C1239 C 0.38014 0.41701 0.98838 0.0
N1240 N 0.41802 0.4342 0.0794 0.0
C1241 C 0.41673 0.42984 0.17192 0.0
C1242 C 0.43236 0.44532 0.15134 0.0
C1243 C 0.43275 0.4472 0.10539 0.0
C1244 C 0.40115 0.41725 0.14536 0.0
C1245 C 0.40194 0.41989 0.09927 0.0
N1246 N 0.42624 0.43339 0.95135 0.0
C1247 C 0.42482 0.44234 0.87595 0.0
C1248 C 0.43228 0.43089 0.86042 0.0
C1249 C 0.43679 0.421 0.89176 0.0
C1250 C 0.43354 0.4223 0.93654 0.0
C1251 C 0.422 0.44347 0.92153 0.0
H1252 H 0.43694 0.41415 0.95916 0.0
H1253 H 0.41625 0.45231 0.93268 0.0
H1254 H 0.44557 0.45864 0.09096 0.0
H1255 H 0.3899 0.40979 0.07956 0.0
C1256 C 0.4341 0.40313 0.04657 0.0
C1257 C 0.37726 0.3979 0.97849 0.0
C1258 C 0.46987 0.47119 1.01266 0.0
C1259 C 0.40692 0.46473 1.0182 0.0
H1260 H 0.37394 0.361 0.99561 0.0
H1261 H 0.40445 0.36358 0.03675 0.0
H1262 H 0.47454 0.41892 0.06132 0.0
H1263 H 0.49405 0.4557 0.03864 0.0
H1264 H 0.47078 0.50751 1.01281 0.0
H1265 H 0.43646 0.50411 1.02012 0.0
H1266 H 0.36708 0.44918 0.99967 0.0
H1267 H 0.35133 0.413 0.97349 0.0
H1268 H 0.44475 0.4554 0.17038 0.0
H1269 H 0.3886 0.40528 0.15996 0.0
H1270 H 0.42088 0.45015 0.85315 0.0
H1271 H 0.44297 0.41231 0.88201 0.0
C1272 C 0.71448 0.7501 0.83491 0.0
C1273 C 0.73354 0.75465 0.83393 0.0
C1274 C 0.74411 0.7729 0.85041 0.0
C1275 C 0.73101 0.7785 0.86029 0.0
N1276 N 0.71286 0.76492 0.85107 0.0
Co1277 Co 0.68972 0.76733 0.85923 0.0
N1278 N 0.70526 0.79581 0.86062 0.0
C1279 C 0.7243 0.80616 0.86779 0.0
C1280 C 0.73123 0.82555 0.86807 0.0
C1281 C 0.71555 0.82758 0.86118 0.0
C1282 C 0.69983 0.80921 0.85703 0.0
N1283 N 0.66663 0.76978 0.8685 0.0
C1284 C 0.66439 0.7854 0.86566 0.0
C1285 C 0.64578 0.78059 0.87659 0.0
C1286 C 0.63627 0.76147 0.88749 0.0
C1287 C 0.64948 0.75559 0.8825 0.0
N1288 N 0.67449 0.73888 0.85677 0.0
C1289 C 0.65647 0.72796 0.87162 0.0
C1290 C 0.64953 0.70873 0.86426 0.0
C1291 C 0.66415 0.70758 0.84355 0.0
C1292 C 0.67922 0.72622 0.83935 0.0
N1293 N 0.69194 0.76635 0.92406 0.0
C1294 C 0.68461 0.75976 1.01537 0.0
C1295 C 0.68878 0.74777 0.98952 0.0
C1296 C 0.6926 0.75144 0.94403 0.0
C1297 C 0.6861 0.77608 0.9951 0.0
C1298 C 0.68971 0.77908 0.94984 0.0
N1299 N 0.68659 0.76786 0.79505 0.0
C1300 C 0.66524 0.75668 0.73241 0.0
C1301 C 0.68055 0.76655 0.70316 0.0
C1302 C 0.69907 0.77748 0.72124 0.0
C1303 C 0.70177 0.77802 0.76732 0.0
C1304 C 0.66856 0.75737 0.77769 0.0
H1305 H 0.71609 0.78644 0.78052 0.0
H1306 H 0.65637 0.74918 0.79862 0.0
H1307 H 0.69496 0.74156 0.92458 0.0
H1308 H 0.68945 0.79114 0.93547 0.0
C1309 C 0.73544 0.79732 0.86893 0.0
C1310 C 0.69826 0.73146 0.82161 0.0
C1311 C 0.67988 0.80512 0.85605 0.0
C1312 C 0.64572 0.73654 0.88444 0.0
H1313 H 0.7393 0.74589 0.82204 0.0
H1314 H 0.75957 0.78143 0.85246 0.0
H1315 H 0.74595 0.83689 0.87219 0.0
H1316 H 0.71563 0.84105 0.8607 0.0
H1317 H 0.63976 0.78995 0.87714 0.0
H1318 H 0.62135 0.75281 0.89679 0.0
H1319 H 0.63529 0.697 0.8713 0.0
H1320 H 0.66382 0.69459 0.83285 0.0
H1321 H 0.68814 0.73513 1.00366 0.0
H1322 H 0.68381 0.78625 1.01377 0.0
H1323 H 0.65061 0.74845 0.72062 0.0
H1324 H 0.71144 0.78529 0.70008 0.0
C1325 C 0.26011 0.96558 0.83192 0.0
C1326 C 0.25544 0.98002 0.83211 0.0
C1327 C 0.23733 0.97217 0.8493 0.0
C1328 C 0.23189 0.95345 0.85838 0.0
N1329 N 0.24544 0.949 0.84796 0.0
Co1330 Co 0.24317 0.92344 0.8548 0.0
N1331 N 0.21471 0.91036 0.85744 0.0
C1332 C 0.2044 0.91896 0.86604 0.0
C1333 C 0.18503 0.90642 0.86715 0.0
C1334 C 0.18297 0.88875 0.85926 0.0
C1335 C 0.20131 0.8915 0.85366 0.0
N1336 N 0.24085 0.89786 0.8627 0.0
C1337 C 0.22526 0.87997 0.85953 0.0
C1338 C 0.23026 0.86617 0.86893 0.0
C1339 C 0.24945 0.87581 0.87928 0.0
C1340 C 0.2552 0.89493 0.87544 0.0
N1341 N 0.2716 0.93679 0.85118 0.0
C1342 C 0.28266 0.92968 0.86487 0.0
C1343 C 0.30183 0.94209 0.85716 0.0
C1344 C 0.30278 0.95795 0.83748 0.0
C1345 C 0.28411 0.95433 0.83418 0.0
N1346 N 0.24473 0.92646 0.91972 0.0
C1347 C 0.25189 0.92592 1.01085 0.0
C1348 C 0.26357 0.94211 0.98492 0.0
C1349 C 0.25964 0.94216 0.93953 0.0
C1350 C 0.23562 0.91086 0.99074 0.0
C1351 C 0.23234 0.91138 0.94556 0.0
N1352 N 0.24206 0.91998 0.79049 0.0
C1353 C 0.25251 0.90989 0.72643 0.0
C1354 C 0.2423 0.91538 0.69856 0.0
C1355 C 0.23184 0.92323 0.71764 0.0
C1356 C 0.23173 0.9252 0.76385 0.0
C1357 C 0.25234 0.91245 0.77191 0.0
H1358 H 0.22347 0.93108 0.77802 0.0
H1359 H 0.26085 0.90852 0.79194 0.0
H1360 H 0.26928 0.95447 0.92003 0.0
H1361 H 0.2203 0.89894 0.93129 0.0
C1362 C 0.2132 0.93895 0.86763 0.0
C1363 C 0.27873 0.96823 0.8178 0.0
C1364 C 0.20543 0.87567 0.85086 0.0
C1365 C 0.27423 0.91028 0.87702 0.0
H1366 H 0.26406 0.99461 0.82062 0.0
H1367 H 0.22877 0.97904 0.8524 0.0
H1368 H 0.17372 0.90974 0.87243 0.0
H1369 H 0.16952 0.87532 0.85904 0.0
H1370 H 0.22101 0.85076 0.86873 0.0
H1371 H 0.25825 0.86958 0.88735 0.0
H1372 H 0.31363 0.9396 0.86335 0.0
H1373 H 0.31568 0.97071 0.82689 0.0
H1374 H 0.27617 0.95427 0.99892 0.0
H1375 H 0.22568 0.89833 1.00948 0.0
H1376 H 0.26105 0.90411 0.71307 0.0
H1377 H 0.22374 0.92766 0.69709 0.0
C1378 C 0.04534 0.2983 0.83284 0.0
C1379 C 0.03079 0.27924 0.83226 0.0
C1380 C 0.03844 0.26874 0.84905 0.0
C1381 C 0.05718 0.28187 0.85869 0.0
N1382 N 0.06181 0.29997 0.84895 0.0
Co1383 Co 0.08742 0.32313 0.85675 0.0
N1384 N 0.10027 0.30754 0.85903 0.0
C1385 C 0.09153 0.28856 0.86693 0.0
C1386 C 0.10396 0.28161 0.86781 0.0
C1387 C 0.1217 0.29722 0.8605 0.0
C1388 C 0.11909 0.31291 0.8555 0.0
N1389 N 0.11304 0.34625 0.86555 0.0
C1390 C 0.13086 0.34844 0.86248 0.0
C1391 C 0.14476 0.36715 0.87253 0.0
C1392 C 0.13525 0.37679 0.88314 0.0
C1393 C 0.11611 0.36354 0.87882 0.0
N1394 N 0.07433 0.33845 0.85359 0.0
C1395 C 0.08153 0.35657 0.86795 0.0
C1396 C 0.06926 0.3635 0.8606 0.0
C1397 C 0.05337 0.34876 0.84045 0.0
C1398 C 0.05686 0.33364 0.83655 0.0
N1399 N 0.08414 0.32123 0.92141 0.0
C1400 C 0.08313 0.32576 1.01346 0.0
C1401 C 0.06756 0.32255 0.98672 0.0
C1402 C 0.06822 0.32002 0.94086 0.0
C1403 C 0.09873 0.32568 0.99332 0.0
C1404 C 0.09898 0.32346 0.9476 0.0
N1405 N 0.09105 0.32573 0.79262 0.0
C1406 C 0.10124 0.34633 0.72883 0.0
C1407 C 0.09568 0.33061 0.70085 0.0
C1408 C 0.08782 0.31229 0.71973 0.0
C1409 C 0.08582 0.31018 0.76583 0.0
C1410 C 0.09867 0.34358 0.77431 0.0
H1411 H 0.0799 0.29602 0.77981 0.0
H1412 H 0.10264 0.356 0.79455 0.0
H1413 H 0.05615 0.31781 0.92095 0.0
H1414 H 0.1117 0.32448 0.93342 0.0
C1415 C 0.07153 0.27746 0.86796 0.0
C1416 C 0.0429 0.31449 0.81954 0.0
C1417 C 0.13498 0.33284 0.8534 0.0
C1418 C 0.1009 0.36738 0.88051 0.0
H1419 H 0.01623 0.27344 0.82056 0.0
H1420 H 0.03144 0.25328 0.85159 0.0
H1421 H 0.10054 0.26692 0.8725 0.0
H1422 H 0.13508 0.29711 0.86021 0.0
H1423 H 0.16015 0.37318 0.87263 0.0
H1424 H 0.14159 0.3918 0.89172 0.0
H1425 H 0.07184 0.3778 0.86735 0.0
H1426 H 0.04067 0.34905 0.82995 0.0
H1427 H 0.05506 0.32219 1.00103 0.0
H1428 H 0.11115 0.3282 1.01251 0.0
H1429 H 0.10708 0.36067 0.71558 0.0
H1430 H 0.08337 0.29975 0.69908 0.0
C1431 C 0.41837 0.04448 0.04702 0.0
C1432 C 0.42301 0.06358 0.0474 0.0
C1433 C 0.4411 0.07394 0.0301 0.0
C1434 C 0.44654 0.06069 1.02037 0.0
N1435 N 0.433 0.04265 0.03051 0.0
Co1436 Co 0.43523 0.01938 1.02283 0.0
N1437 N 0.46367 0.0348 1.02027 0.0
C1438 C 0.47401 0.05374 1.01204 0.0
C1439 C 0.49338 0.06057 1.01099 0.0
C1440 C 0.49539 0.04491 1.01854 0.0
C1441 C 0.47703 0.02931 0.02385 0.0
N1442 N 0.4375 0.99614 1.0141 0.0
C1443 C 0.45305 0.99383 1.01719 0.0
C1444 C 0.44807 0.97506 1.00724 0.0
C1445 C 0.4289 0.96553 0.99671 0.0
C1446 C 0.42315 0.97889 1.00095 0.0
N1447 N 0.40682 1.00426 0.02636 0.0
C1448 C 0.39573 0.98613 1.01216 0.0
C1449 C 0.37658 0.97933 1.02009 0.0
C1450 C 0.37566 0.99416 0.04046 0.0
C1451 C 0.39435 0.0092 0.04393 0.0
N1452 N 0.43373 0.02116 0.95808 0.0
C1453 C 0.42798 0.01631 0.86602 0.0
C1454 C 0.41568 0.01962 0.89276 0.0
C1455 C 0.41899 0.02231 0.93861 0.0
C1456 C 0.44369 0.01644 0.88618 0.0
C1457 C 0.44626 0.01882 0.93188 0.0
N1458 N 0.43635 0.01683 0.08699 0.0
C1459 C 0.42591 0.9962 0.15075 0.0
C1460 C 0.43614 0.01189 0.17876 0.0
C1461 C 0.44664 0.03022 0.15992 0.0
C1462 C 0.44674 0.03236 0.11379 0.0
C1463 C 0.42606 0.99898 0.1053 0.0
H1464 H 0.45501 0.04652 0.09982 0.0
H1465 H 0.41754 0.98657 0.08509 0.0
H1466 H 0.40918 0.0246 0.95851 0.0
H1467 H 0.45797 0.01781 0.94604 0.0
C1468 C 0.46523 0.06495 1.01089 0.0
C1469 C 0.3998 0.02841 0.06108 0.0
C1470 C 0.47284 0.00934 0.02626 0.0
C1471 C 0.40413 0.97519 0.99948 0.0
H1472 H 0.41441 0.0695 0.05936 0.0
H1473 H 0.44965 0.08938 0.02736 0.0
H1474 H 0.50472 0.07522 1.00603 0.0
H1475 H 0.50882 0.04492 1.01876 0.0
H1476 H 0.45732 0.96892 1.00721 0.0
H1477 H 0.4201 0.95051 0.98828 0.0
H1478 H 0.36475 0.96505 1.01364 0.0
H1479 H 0.36278 0.99397 0.05143 0.0
H1480 H 0.40352 0.01994 0.87847 0.0
H1481 H 0.45353 0.01383 0.86704 0.0
H1482 H 0.41736 0.98186 0.16396 0.0
H1483 H 0.45477 0.04274 0.18061 0.0
C1484 C 0.96311 0.37455 1.01671 0.0
C1485 C 0.94759 0.36144 0.99146 0.0
C1486 C 0.93877 0.37092 0.97521 0.0
C1487 C 0.95012 0.38952 0.98868 0.0
N1488 N 0.96557 0.39236 1.0119 0.0
Co1489 Co 0.98962 0.41744 1.01393 0.0
N1490 N 0.97532 0.43152 1.0095 0.0
C1491 C 0.95734 0.42406 0.99375 0.0
C1492 C 0.95111 0.43707 0.99248 0.0
C1493 C 0.96624 0.45388 1.00766 0.0
C1494 C 0.98101 0.45022 1.01715 0.0
N1495 N 0.01361 0.44268 1.0138 0.0
C1496 C 0.01637 0.46069 1.01907 0.0
C1497 C 0.03565 0.47423 1.01438 0.0
C1498 C 0.04505 0.46433 1.00492 0.0
C1499 C 0.0311 0.4453 1.00449 0.0
N1500 N 1.00343 0.40285 1.0194 0.0
C1501 C 0.02197 0.40971 1.00938 0.0
C1502 C 0.02747 0.39622 1.01529 0.0
C1503 C 0.01132 0.37994 0.02988 0.0
C1504 C 0.99684 0.38444 0.03304 0.0
N1505 N 0.99136 0.41697 0.9487 0.0
C1506 C 1.00036 0.41925 0.85778 0.0
C1507 C 0.99513 0.40249 0.88208 0.0
C1508 C 0.9906 0.40161 0.92721 0.0
C1509 C 0.99987 0.43437 0.87973 0.0
C1510 C 0.99544 0.43298 0.92479 0.0
N1511 N 0.98902 0.41844 0.07873 0.0
C1512 C 0.00739 0.42686 0.14621 0.0
C1513 C 0.9912 0.42256 0.17113 0.0
C1514 C 0.97355 0.41558 0.14899 0.0
C1515 C 0.97281 0.41379 0.10241 0.0
C1516 C 1.00598 0.42455 0.10063 0.0
H1517 H 0.9593 0.40882 0.08548 0.0
H1518 H 0.01888 0.42792 0.08318 0.0
H1519 H 0.98723 0.38871 0.94497 0.0
H1520 H 0.99607 0.44528 0.9405 0.0
C1521 C 0.94673 0.40472 0.98145 0.0
C1522 C 0.97634 0.37035 0.04176 0.0
C1523 C 1.00096 0.46544 0.02507 0.0
C1524 C 0.03404 0.42947 1.00148 0.0
H1525 H 0.94341 0.34671 0.98404 0.0
H1526 H 0.926 0.36507 0.95488 0.0
H1527 H 0.93735 0.43472 0.98114 0.0
H1528 H 0.96667 0.46752 1.00897 0.0
H1529 H 0.04222 0.48965 1.01693 0.0
H1530 H 0.0603 0.47031 0.99999 0.0
H1531 H 0.0416 0.39807 1.01043 0.0
H1532 H 0.01023 0.3662 0.03596 0.0
H1533 H 0.99523 0.39035 0.86693 0.0
H1534 H 1.00317 0.44743 0.86244 0.0
H1535 H 0.02118 0.43185 0.16196 0.0
H1536 H 0.96063 0.41192 0.16732 0.0
C1537 C 0.63602 0.59343 0.04458 0.0
C1538 C 0.65063 0.58902 0.04551 0.0
C1539 C 0.64308 0.57082 0.02884 0.0
C1540 C 0.62434 0.56509 1.01892 0.0
N1541 N 0.61964 0.57856 0.02828 0.0
Co1542 Co 0.59402 0.57596 1.02018 0.0
N1543 N 0.58125 0.54751 1.01877 0.0
C1544 C 0.59004 0.53727 1.01145 0.0
C1545 C 0.57765 0.51785 1.01122 0.0
C1546 C 0.5599 0.51569 1.01829 0.0
C1547 C 0.56245 0.53402 1.02247 0.0
N1548 N 0.5684 0.57333 1.01099 0.0
C1549 C 0.5506 0.55763 1.0139 0.0
C1550 C 0.53669 0.56229 1.00293 0.0
C1551 C 0.54619 0.58141 0.99196 0.0
C1552 C 0.56533 0.58743 0.99694 0.0
N1553 N 0.60708 0.60439 1.02265 0.0
C1554 C 0.59989 0.61522 1.00776 0.0
C1555 C 0.6121 0.63446 1.01525 0.0
C1556 C 0.6279 0.63571 0.03608 0.0
C1557 C 0.62443 0.61712 0.04024 0.0
N1558 N 0.59717 0.57696 0.95532 0.0
C1559 C 0.59628 0.58349 0.86399 0.0
C1560 C 0.61245 0.59556 0.88976 0.0
C1561 C 0.61268 0.59193 0.93528 0.0
C1562 C 0.58152 0.56712 0.88433 0.0
C1563 C 0.58221 0.56416 0.92959 0.0
N1564 N 0.59038 0.57539 0.08439 0.0
C1565 C 0.58008 0.58642 0.14704 0.0
C1566 C 0.58547 0.57651 0.17628 0.0
C1567 C 0.59315 0.56566 0.15816 0.0
C1568 C 0.5954 0.56523 0.11209 0.0
C1569 C 0.58279 0.58582 0.10177 0.0
H1570 H 0.60136 0.55688 0.09887 0.0
H1571 H 0.57877 0.59401 0.08086 0.0
H1572 H 0.62492 0.60188 0.95468 0.0
H1573 H 0.56994 0.55205 0.94401 0.0
C1574 C 0.61003 0.54624 1.01022 0.0
C1575 C 0.63825 0.61195 0.05813 0.0
C1576 C 0.54652 0.53798 0.02361 0.0
C1577 C 0.58054 0.60652 0.99493 0.0
H1578 H 0.66514 0.59785 0.05749 0.0
H1579 H 0.65011 0.56239 0.02674 0.0
H1580 H 0.58113 0.50659 1.00704 0.0
H1581 H 0.54655 0.50217 1.01886 0.0
H1582 H 0.52132 0.55284 1.00239 0.0
H1583 H 0.53984 0.58997 0.9826 0.0
H1584 H 0.6095 0.64614 1.00824 0.0
H1585 H 0.6405 0.64874 0.04693 0.0
H1586 H 0.6244 0.60824 0.87556 0.0
H1587 H 0.56906 0.5569 0.86572 0.0
H1588 H 0.57363 0.59459 0.15884 0.0
H1589 H 0.59767 0.55783 0.17931 0.0
C1590 C 1.00346 0.61769 0.54806 0.0
C1591 C 0.0183 0.63623 0.54094 0.0
C1592 C 0.03243 0.63468 0.51897 0.0
C1593 C 0.02545 0.61532 0.51383 0.0
N1594 N 0.00787 0.60467 0.53129 0.0
Co1595 Co 0.99269 0.57617 0.53196 0.0
N1596 N 0.01554 0.57361 0.51955 0.0
C1597 C 0.03228 0.5876 0.50313 0.0
C1598 C 0.04535 0.58166 0.49625 0.0
C1599 C 0.03615 0.5627 0.50842 0.0
C1600 C 0.01786 0.55804 0.52196 0.0
N1601 N 0.97721 0.54767 0.53359 0.0
C1602 C 0.98276 0.53434 0.53627 0.0
C1603 C 0.96698 0.5159 0.53488 0.0
C1604 C 0.95111 0.51779 0.5306 0.0
C1605 C 0.95799 0.53716 0.52961 0.0
N1606 N 0.96974 0.57864 0.54328 0.0
C1607 C 0.95139 0.56484 0.53712 0.0
C1608 C 0.93851 0.5706 0.54801 0.0
C1609 C 0.94943 0.58921 0.56186 0.0
C1610 C 0.96846 0.59379 0.55841 0.0
N1611 N 0.98853 0.57587 0.46755 0.0
C1612 C 0.99175 0.57996 0.37492 0.0
C1613 C 0.99145 0.56433 0.39587 0.0
C1614 C 0.98988 0.56258 0.44183 0.0
C1615 C 0.9891 0.59285 0.40118 0.0
C1616 C 0.98717 0.59035 0.44732 0.0
N1617 N 0.99774 0.57686 0.59566 0.0
C1618 C 0.9875 0.56779 0.6711 0.0
C1619 C 1.00649 0.57904 0.68648 0.0
C1620 C 0.02084 0.58898 0.65506 0.0
C1621 C 0.0162 0.58782 0.61034 0.0
C1622 C 0.98345 0.56684 0.62559 0.0
H1623 H 0.02772 0.59592 0.58763 0.0
H1624 H 0.96881 0.55812 0.61458 0.0
H1625 H 0.99092 0.55099 0.45646 0.0
H1626 H 0.98551 0.60068 0.46677 0.0
C1627 C 0.03591 0.60656 0.50011 0.0
C1628 C 0.98489 0.61283 0.56796 0.0
C1629 C 1.00267 0.53842 0.53341 0.0
C1630 C 0.94679 0.54591 0.5298 0.0
H1631 H 0.0188 0.64942 0.55049 0.0
H1632 H 0.04641 0.64628 0.50949 0.0
H1633 H 0.05996 0.59017 0.4847 0.0
H1634 H 0.04213 0.55331 0.50688 0.0
H1635 H 0.96691 0.50244 0.5353 0.0
H1636 H 0.93631 0.50639 0.52884 0.0
H1637 H 0.92302 0.56202 0.54812 0.0
H1638 H 0.94395 0.59825 0.57347 0.0
H1639 H 0.99349 0.55401 0.37715 0.0
H1640 H 0.98887 0.60495 0.3863 0.0
H1641 H 0.9758 0.55998 0.69398 0.0
H1642 H 0.03574 0.59755 0.66471 0.0
C1643 C 0.39548 0.38415 0.53322 0.0
C1644 C 0.37649 0.37964 0.53 0.0
C1645 C 0.37665 0.39592 0.51543 0.0
C1646 C 0.39565 0.40942 0.50965 0.0
N1647 N 0.40733 0.40257 0.51972 0.0
Co1648 Co 0.43574 0.41715 0.51469 0.0
N1649 N 0.43696 0.44236 0.51475 0.0
C1650 C 0.42212 0.445 0.50521 0.0
C1651 C 0.42723 0.46404 0.50562 0.0
C1652 C 0.4465 0.47391 0.51534 0.0
C1653 C 0.45219 0.46035 0.52025 0.0
N1654 N 0.46413 0.43124 0.51072 0.0
C1655 C 0.47711 0.44992 0.5188 0.0
C1656 C 0.4956 0.45361 0.50991 0.0
C1657 C 0.49399 0.43685 0.49458 0.0
C1658 C 0.47473 0.42384 0.49523 0.0
N1659 N 0.43472 0.3921 0.51251 0.0
C1660 C 0.44742 0.38931 0.48961 0.0
C1661 C 0.44022 0.3707 0.47623 0.0
C1662 C 0.42186 0.36118 0.49224 0.0
C1663 C 0.41937 0.37427 0.51729 0.0
N1664 N 0.43372 0.41683 0.4495 0.0
C1665 C 0.42738 0.41932 0.3585 0.0
C1666 C 0.44294 0.43437 0.38076 0.0
C1667 C 0.44578 0.43289 0.42588 0.0
C1668 C 0.4157 0.40252 0.38253 0.0
C1669 C 0.41917 0.40153 0.42772 0.0
N1670 N 0.43722 0.41801 0.57944 0.0
C1671 C 0.45004 0.41532 0.64953 0.0
C1672 C 0.4394 0.42228 0.67172 0.0
C1673 C 0.42736 0.42645 0.64696 0.0
C1674 C 0.42635 0.42406 0.6014 0.0
C1675 C 0.44888 0.41345 0.60301 0.0
H1676 H 0.41677 0.42737 0.58398 0.0
H1677 H 0.45743 0.40853 0.58602 0.0
H1678 H 0.45741 0.44515 0.44183 0.0
H1679 H 0.40956 0.3886 0.44528 0.0
C1680 C 0.40334 0.42918 0.50191 0.0
C1681 C 0.40188 0.37009 0.54205 0.0
C1682 C 0.47233 0.46509 0.52657 0.0
C1683 C 0.46605 0.40452 0.48275 0.0
H1684 H 0.36384 0.3659 0.53616 0.0
H1685 H 0.36436 0.39777 0.51057 0.0
H1686 H 0.41799 0.47003 0.50046 0.0
H1687 H 0.4554 0.48933 0.51787 0.0
H1688 H 0.5088 0.46725 0.51177 0.0
H1689 H 0.50546 0.43454 0.48363 0.0
H1690 H 0.44721 0.36488 0.4561 0.0
H1691 H 0.41134 0.34647 0.48457 0.0
H1692 H 0.45281 0.44745 0.36369 0.0
H1693 H 0.4035 0.39043 0.36711 0.0
H1694 H 0.45941 0.41176 0.66777 0.0
H1695 H 0.41858 0.43142 0.66282 0.0
C1696 C 0.62241 0.00819 0.54218 0.0
C1697 C 0.62592 0.9931 0.53745 0.0
C1698 C 0.61013 0.97857 0.51652 0.0
C1699 C 0.59789 0.98557 0.50958 0.0
N1700 N 0.60501 1.00354 0.52494 0.0
Co1701 Co 0.59193 0.01888 0.52249 0.0
N1702 N 0.56637 0.99587 0.51221 0.0
C1703 C 0.56338 0.97873 0.49797 0.0
C1704 C 0.54426 0.96552 0.49288 0.0
C1705 C 0.53468 0.97504 0.50401 0.0
C1706 C 0.54852 0.99364 0.51515 0.0
N1707 N 0.57908 0.03448 0.52088 0.0
C1708 C 0.56024 0.02907 0.524 0.0
C1709 C 0.55765 0.0448 0.51962 0.0
C1710 C 0.57542 0.06048 0.5132 0.0
C1711 C 0.58786 0.05353 0.51393 0.0
N1712 N 0.61748 0.04195 0.53178 0.0
C1713 C 0.62215 0.06015 0.52299 0.0
C1714 C 0.64084 0.07319 0.5333 0.0
C1715 C 0.64842 0.06252 0.5495 0.0
C1716 C 0.63387 0.04347 0.54795 0.0
N1717 N 0.59567 0.02147 0.45798 0.0
C1718 C 0.59725 0.01759 0.36583 0.0
C1719 C 0.58153 0.01755 0.38567 0.0
C1720 C 0.58099 0.01945 0.43145 0.0
C1721 C 0.61267 0.02064 0.39295 0.0
C1722 C 0.61172 0.02286 0.43885 0.0
N1723 N 0.58786 0.01557 0.58643 0.0
C1724 C 0.59056 0.02807 0.66021 0.0
C1725 C 0.58296 0.00956 0.67816 0.0
C1726 C 0.57754 0.99422 0.64886 0.0
C1727 C 0.58025 0.99752 0.60359 0.0
C1728 C 0.5928 0.03074 0.61422 0.0
H1729 H 0.57629 0.98534 0.58253 0.0
H1730 H 0.59873 0.04506 0.60114 0.0
H1731 H 0.56819 0.01832 0.44539 0.0
H1732 H 0.62367 0.02494 0.45902 0.0
C1733 C 0.57861 0.97491 0.49625 0.0
C1734 C 0.63631 0.02717 0.56018 0.0
C1735 C 0.54434 0.00913 0.52522 0.0
C1736 C 0.60786 0.06464 0.51371 0.0
H1737 H 0.63857 0.99271 0.54787 0.0
H1738 H 0.6076 0.96434 0.50894 0.0
H1739 H 0.53798 0.9506 0.48349 0.0
H1740 H 0.5193 0.96899 0.50359 0.0
H1741 H 0.54427 0.0449 0.51977 0.0
H1742 H 0.57887 0.07521 0.5092 0.0
H1743 H 0.64786 0.08866 0.53146 0.0
H1744 H 0.66294 0.06819 0.56135 0.0
H1745 H 0.56924 0.01515 0.36617 0.0
H1746 H 0.62525 0.02109 0.3789 0.0
H1747 H 0.59511 0.04045 0.68142 0.0
H1748 H 0.57116 0.9796 0.66063 0.0
C1749 C 0.28553 0.33343 0.3392 0.0
C1750 C 0.30417 0.34846 0.34396 0.0
C1751 C 0.30299 0.36308 0.36461 0.0
C1752 C 0.28374 0.35618 0.37138 0.0
N1753 N 0.27283 0.33819 0.35619 0.0
Co1754 Co 0.24438 0.32296 0.35834 0.0
N1755 N 0.24197 0.34607 0.36798 0.0
C1756 C 0.25617 0.36321 0.38216 0.0
C1757 C 0.25034 0.37648 0.38686 0.0
C1758 C 0.23126 0.36702 0.37553 0.0
C1759 C 0.22641 0.34837 0.36468 0.0
N1760 N 0.21592 0.30747 0.35963 0.0
C1761 C 0.20256 0.31295 0.35605 0.0
C1762 C 0.18418 0.29727 0.36031 0.0
C1763 C 0.18617 0.28156 0.36715 0.0
C1764 C 0.20555 0.28843 0.36677 0.0
N1765 N 0.24673 0.2998 0.34972 0.0
C1766 C 0.23313 0.28164 0.35869 0.0
C1767 C 0.23872 0.26853 0.3488 0.0
C1768 C 0.25699 0.27909 0.33267 0.0
C1769 C 0.26158 0.29817 0.33385 0.0
N1770 N 0.24538 0.32053 0.42295 0.0
C1771 C 0.25081 0.32487 0.51508 0.0
C1772 C 0.23515 0.32482 0.49487 0.0
C1773 C 0.23273 0.32269 0.4491 0.0
C1774 C 0.26315 0.32163 0.48838 0.0
C1775 C 0.26001 0.31918 0.44249 0.0
N1776 N 0.2438 0.32613 0.29428 0.0
C1777 C 0.23416 0.31351 0.22052 0.0
C1778 C 0.24516 0.33198 0.20243 0.0
C1779 C 0.25505 0.34736 0.23166 0.0
C1780 C 0.25433 0.34414 0.27698 0.0
C1781 C 0.23359 0.31091 0.26657 0.0
H1782 H 0.26255 0.35636 0.29796 0.0
H1783 H 0.22513 0.29662 0.27976 0.0
H1784 H 0.22109 0.32379 0.43484 0.0
H1785 H 0.26987 0.31698 0.42263 0.0
C1786 C 0.27519 0.36695 0.38427 0.0
C1787 C 0.28033 0.31439 0.32143 0.0
C1788 C 0.20672 0.33291 0.35459 0.0
C1789 C 0.21435 0.27725 0.36755 0.0
H1790 H 0.31718 0.34876 0.33371 0.0
H1791 H 0.31472 0.3773 0.37209 0.0
H1792 H 0.25903 0.39142 0.39614 0.0
H1793 H 0.22196 0.37312 0.37565 0.0
H1794 H 0.17073 0.29724 0.35983 0.0
H1795 H 0.17481 0.26685 0.37122 0.0
H1796 H 0.23019 0.25306 0.3508 0.0
H1797 H 0.26579 0.27334 0.32105 0.0
H1798 H 0.22526 0.32735 0.51403 0.0
H1799 H 0.27526 0.32122 0.50273 0.0
H1800 H 0.22634 0.30109 0.19939 0.0
H1801 H 0.26334 0.36196 0.2198 0.0
C1802 C 0.68015 0.95612 0.34131 0.0
C1803 C 0.66482 0.95939 0.33983 0.0
C1804 C 0.64939 0.94351 0.35814 0.0
C1805 C 0.65601 0.93133 0.36961 0.0
N1806 N 0.67462 0.93863 0.35954 0.0
Co1807 Co 0.68938 0.92501 0.36555 0.0
N1808 N 0.6659 0.89942 0.36981 0.0
C1809 C 0.64835 0.89641 0.38014 0.0
C1810 C 0.63485 0.87725 0.38204 0.0
C1811 C 0.64461 0.86769 0.37296 0.0
C1812 C 0.66362 0.88156 0.36609 0.0
N1813 N 0.70457 0.91182 0.37021 0.0
C1814 C 0.69919 0.89306 0.36486 0.0
C1815 C 0.71455 0.89014 0.37259 0.0
C1816 C 0.7299 0.90759 0.38371 0.0
C1817 C 0.72316 0.92019 0.38216 0.0
N1818 N 0.71284 0.95049 0.36311 0.0
C1819 C 0.73018 0.95477 0.37858 0.0
C1820 C 0.7434 0.97399 0.37597 0.0
C1821 C 0.73371 0.98226 0.35766 0.0
C1822 C 0.71513 0.96752 0.34978 0.0
N1823 N 0.68911 0.92705 0.43048 0.0
C1824 C 0.68319 0.92697 0.52225 0.0
C1825 C 0.68334 0.91151 0.50146 0.0
C1826 C 0.68623 0.91179 0.4559 0.0
C1827 C 0.6867 0.94282 0.49626 0.0
C1828 C 0.68988 0.94268 0.45054 0.0
N1829 N 0.68878 0.92253 0.30098 0.0
C1830 C 0.70381 0.92621 0.22985 0.0
C1831 C 0.68586 0.91813 0.20876 0.0
C1832 C 0.66962 0.9126 0.23469 0.0
C1833 C 0.6714 0.91507 0.28024 0.0
C1834 C 0.70494 0.92809 0.27627 0.0
H1835 H 0.65851 0.91099 0.29854 0.0
H1836 H 0.71877 0.93405 0.2922 0.0
H1837 H 0.6854 0.89923 0.44119 0.0
H1838 H 0.69243 0.955 0.43127 0.0
C1839 C 0.64469 0.91179 0.38054 0.0
C1840 C 0.70015 0.9701 0.32878 0.0
C1841 C 0.67932 0.87736 0.35904 0.0
C1842 C 0.73419 0.94011 0.38753 0.0
H1843 H 0.66463 0.97177 0.32682 0.0
H1844 H 0.63482 0.94076 0.36046 0.0
H1845 H 0.61962 0.87095 0.38785 0.0
H1846 H 0.63844 0.85228 0.37181 0.0
H1847 H 0.71452 0.87669 0.37188 0.0
H1848 H 0.74428 0.91071 0.39165 0.0
H1849 H 0.75848 0.98102 0.3844 0.0
H1850 H 0.73966 0.99732 0.35015 0.0
H1851 H 0.68054 0.89888 0.52003 0.0
H1852 H 0.68695 0.9552 0.51107 0.0
H1853 H 0.71675 0.93078 0.21076 0.0
H1854 H 0.65556 0.90672 0.21974 0.0
C1855 C 0.05666 0.72575 0.3316 0.0
C1856 C 0.05281 0.70711 0.33756 0.0
C1857 C 0.06847 0.70833 0.35901 0.0
C1858 C 0.08097 0.72761 0.36501 0.0
N1859 N 0.07413 0.73851 0.34858 0.0
Co1860 Co 0.08765 0.767 0.34939 0.0
N1861 N 0.11301 0.76925 0.36053 0.0
C1862 C 0.11568 0.75507 0.37594 0.0
C1863 C 0.13471 0.76079 0.38174 0.0
C1864 C 0.14457 0.7798 0.36986 0.0
C1865 C 0.13097 0.78471 0.35761 0.0
N1866 N 0.10088 0.7955 0.3493 0.0
C1867 C 0.1198 0.80872 0.34616 0.0
C1868 C 0.12266 0.8272 0.34917 0.0
C1869 C 0.105 0.82543 0.3548 0.0
C1870 C 0.09235 0.80608 0.35498 0.0
N1871 N 0.06229 0.76484 0.33933 0.0
C1872 C 0.0579 0.77865 0.34696 0.0
C1873 C 0.03927 0.77313 0.33649 0.0
C1874 C 0.03143 0.75467 0.32139 0.0
C1875 C 0.04577 0.74992 0.32372 0.0
N1876 N 0.08398 0.76666 0.41392 0.0
C1877 C 0.08393 0.76056 0.50561 0.0
C1878 C 0.09907 0.77666 0.48539 0.0
C1879 C 0.09886 0.77941 0.43989 0.0
C1880 C 0.06786 0.74863 0.47945 0.0
C1881 C 0.0681 0.75206 0.43376 0.0
N1882 N 0.09173 0.76686 0.28551 0.0
C1883 C 0.08985 0.77618 0.21075 0.0
C1884 C 0.0973 0.76487 0.19422 0.0
C1885 C 0.10207 0.75489 0.22471 0.0
C1886 C 0.09906 0.75594 0.26969 0.0
C1887 C 0.08725 0.77704 0.25654 0.0
H1888 H 0.10264 0.74773 0.29165 0.0
H1889 H 0.08149 0.78576 0.26851 0.0
H1890 H 0.1114 0.79126 0.42557 0.0
H1891 H 0.05591 0.7422 0.41412 0.0
C1892 C 0.10023 0.73613 0.37846 0.0
C1893 C 0.04304 0.73096 0.31266 0.0
C1894 C 0.1355 0.8044 0.3466 0.0
C1895 C 0.07239 0.79746 0.3552 0.0
H1896 H 0.04003 0.69405 0.3276 0.0
H1897 H 0.07074 0.69657 0.36755 0.0
H1898 H 0.14075 0.75209 0.39219 0.0
H1899 H 0.15998 0.78901 0.37061 0.0
H1900 H 0.13615 0.84059 0.34879 0.0
H1901 H 0.10177 0.83691 0.35781 0.0
H1902 H 0.03246 0.7818 0.33746 0.0
H1903 H 0.01687 0.74584 0.3097 0.0
H1904 H 0.11148 0.7868 0.50428 0.0
H1905 H 0.05563 0.73616 0.49352 0.0
H1906 H 0.08575 0.78406 0.18859 0.0
H1907 H 0.10827 0.74632 0.21412 0.0
C1908 C 0.3519 0.10307 0.4723 0.0
C1909 C 0.33749 0.08514 0.48806 0.0
H1910 H 0.36841 0.11971 0.417 0.0
C1911 C 0.32963 0.06951 0.4584 0.0
H1912 H 0.3588 0.11533 0.49426 0.0
C1913 C 0.33542 0.07203 0.4138 0.0
C1914 C 0.34915 0.09022 0.39784 0.0
H1915 H 0.31852 0.0555 0.4692 0.0
H1916 H 0.32855 0.05992 0.39141 0.0
C1917 C 0.35756 0.10559 0.42794 0.0
C1918 C 0.93522 0.26912 0.47328 0.0
C1919 C 0.9306 0.25091 0.48942 0.0
H1920 H 0.9352 0.28569 0.41764 0.0
C1921 C 0.92373 0.23554 0.45936 0.0
H1922 H 0.94039 0.28124 0.49564 0.0
C1923 C 0.92085 0.23808 0.41481 0.0
C1924 C 0.92455 0.25604 0.39886 0.0
H1925 H 0.92033 0.22141 0.47046 0.0
H1926 H 0.91554 0.22582 0.39287 0.0
C1927 C 0.9322 0.27166 0.42854 0.0
C1928 C 0.74005 0.66544 0.46876 0.0
C1929 C 0.7583 0.67905 0.48485 0.0
H1930 H 0.7234 0.64876 0.41308 0.0
C1931 C 0.77362 0.68748 0.45484 0.0
H1932 H 0.72796 0.65858 0.49112 0.0
C1933 C 0.77102 0.68195 0.41036 0.0
C1934 C 0.75304 0.66765 0.39445 0.0
H1935 H 0.78778 0.69824 0.46592 0.0
H1936 H 0.78326 0.68885 0.38844 0.0
C1937 C 0.73745 0.65977 0.42404 0.0
C1938 C 0.0793 0.3436 0.07789 0.0
C1939 C 0.0838 0.32992 0.06176 0.0
H1940 H 0.07946 0.36029 0.13364 0.0
C1941 C 0.09059 0.32136 0.09168 0.0
H1942 H 0.07417 0.35056 0.05557 0.0
C1943 C 0.09355 0.32684 0.13617 0.0
C1944 C 0.09 0.34121 0.15213 0.0
H1945 H 0.09389 0.31055 0.08051 0.0
H1946 H 0.0988 0.31985 0.15806 0.0
C1947 C 0.08239 0.34921 0.12261 0.0
C1948 C 0.65794 0.756 0.12231 0.0
C1949 C 0.66614 0.74893 0.15253 0.0
H1950 H 0.65687 0.76441 0.0559 0.0
C1951 C 0.67965 0.74413 0.13669 0.0
H1952 H 0.64725 0.75952 0.13314 0.0
C1953 C 0.68545 0.7472 0.09209 0.0
C1954 C 0.67781 0.7551 0.06232 0.0
H1955 H 0.68634 0.73876 0.15918 0.0
H1956 H 0.69638 0.74403 0.08136 0.0
C1957 C 0.6636 0.75895 0.07796 0.0
C1958 C 0.2678 0.93713 0.13206 0.0
C1959 C 0.26335 0.91895 0.14804 0.0
H1960 H 0.26743 0.95365 0.07662 0.0
C1961 C 0.25642 0.90359 0.11794 0.0
H1962 H 0.27304 0.94925 0.15445 0.0
C1963 C 0.25328 0.9061 0.07357 0.0
C1964 C 0.25678 0.92401 0.05779 0.0
H1965 H 0.25316 0.88948 0.12889 0.0
H1966 H 0.24793 0.89383 0.05161 0.0
C1967 C 0.26454 0.93964 0.08744 0.0
C1968 C 0.65989 0.92743 0.63187 0.0
C1969 C 0.66795 0.91976 0.66106 0.0
H1970 H 0.65841 0.93581 0.56505 0.0
C1971 C 0.68219 0.91613 0.64466 0.0
H1972 H 0.64891 0.93043 0.64321 0.0
C1973 C 0.68752 0.91911 0.60012 0.0
C1974 C 0.67895 0.92602 0.57055 0.0
H1975 H 0.68925 0.91085 0.66626 0.0
H1976 H 0.69828 0.9158 0.58867 0.0
C1977 C 0.66536 0.93056 0.58709 0.0
C1978 C 0.0699 0.74821 0.58193 0.0
C1979 C 0.08567 0.75597 0.55283 0.0
H1980 H 0.05999 0.7397 0.64867 0.0
C1981 C 0.10354 0.75961 0.5693 0.0
H1982 H 0.05592 0.7452 0.57054 0.0
C1983 C 0.10586 0.75656 0.61381 0.0
C1984 C 0.09034 0.74956 0.64331 0.0
H1985 H 0.11591 0.76495 0.54777 0.0
H1986 H 0.11993 0.75989 0.62533 0.0
C1987 C 0.07221 0.74501 0.62669 0.0
C1988 C 0.23901 0.32055 0.59335 0.0
C1989 C 0.25434 0.32906 0.56336 0.0
H1990 H 0.22938 0.31908 0.65977 0.0
C1991 C 0.27257 0.3427 0.57945 0.0
H1992 H 0.22487 0.30977 0.58222 0.0
C1993 C 0.27516 0.34832 0.62416 0.0
C1994 C 0.25957 0.34037 0.65375 0.0
H1995 H 0.28465 0.34962 0.55708 0.0
H1996 H 0.28919 0.35938 0.63513 0.0
C1997 C 0.2416 0.32603 0.63784 0.0
C1998 C 0.9209 0.68345 0.90857 0.0
C1999 C 0.92458 0.66917 0.89255 0.0
H2000 H 0.92025 0.6995 0.96439 0.0
C2001 C 0.9322 0.66118 0.92204 0.0
H2002 H 0.91564 0.69042 0.88668 0.0
C2003 C 0.9351 0.66665 0.96686 0.0
C2004 C 0.9304 0.68018 0.98309 0.0
H2005 H 0.93523 0.65019 0.91094 0.0
H2006 H 0.94022 0.65968 0.98918 0.0
C2007 C 0.92368 0.68879 0.95315 0.0
C2008 C 0.3483 0.24931 0.97812 0.0
C2009 C 0.33405 0.25291 0.99464 0.0
H2010 H 0.36436 0.24903 0.92202 0.0
C2011 C 0.32597 0.2606 0.96556 0.0
H2012 H 0.35537 0.24402 0.99964 0.0
C2013 C 0.33142 0.26377 0.92077 0.0
C2014 C 0.345 0.25925 0.90412 0.0
H2015 H 0.315 0.26358 0.97701 0.0
H2016 H 0.32445 0.26902 0.89882 0.0
C2017 C 0.3536 0.25233 0.93358 0.0
C2018 C 0.74573 0.07471 0.90349 0.0
C2019 C 0.75005 0.09278 0.88713 0.0
H2020 H 0.74608 0.05841 0.95919 0.0
C2021 C 0.75688 0.10825 0.91691 0.0
H2022 H 0.74066 0.06254 0.88133 0.0
C2023 C 0.75985 0.1059 0.96155 0.0
C2024 C 0.75632 0.08803 0.97781 0.0
H2025 H 0.76011 0.12231 0.90555 0.0
H2026 H 0.765 0.1182 0.98331 0.0
C2027 C 0.74889 0.07237 0.94822 0.0
C2028 C 0.99858 0.40569 0.78077 0.0
C2029 C 1.00676 0.42132 0.81043 0.0
H2030 H 0.99706 0.39592 0.71385 0.0
C2031 C 0.02112 0.43921 0.79429 0.0
H2032 H 0.98742 0.39172 0.79164 0.0
C2033 C 0.02652 0.44161 0.7497 0.0
C2034 C 0.01792 0.42616 0.71981 0.0
H2035 H 0.02824 0.45149 0.81612 0.0
H2036 H 0.03737 0.45567 0.73845 0.0
C2037 C 1.00413 0.40808 0.73607 0.0
C2038 C 0.57311 0.58706 0.75725 0.0
C2039 C 0.58831 0.59408 0.72683 0.0
H2040 H 0.56379 0.57876 0.8238 0.0
C2041 C 0.60667 0.59891 0.74248 0.0
H2042 H 0.55887 0.58353 0.7466 0.0
C2043 C 0.6095 0.59593 0.78709 0.0
C2044 C 0.59404 0.58808 0.81705 0.0
H2045 H 0.61867 0.60423 0.71986 0.0
H2046 H 0.62364 0.59913 0.79768 0.0
C2047 C 0.57594 0.58419 0.8016 0.0
C2048 C 0.43975 0.02044 0.78771 0.0
C2049 C 0.42441 0.01203 0.81771 0.0
H2050 H 0.4494 0.02177 0.72134 0.0
C2051 C 0.40617 0.99842 0.80161 0.0
H2052 H 0.45391 0.0312 0.79879 0.0
C2053 C 0.40358 0.99273 0.7569 0.0
C2054 C 0.41918 1.00058 0.72733 0.0
H2055 H 0.39408 0.99157 0.82395 0.0
H2056 H 0.38953 0.98171 0.74594 0.0
C2057 C 0.43716 0.01488 0.74325 0.0
C2058 C 0.6014 1.00003 0.30121 0.0
C2059 C 0.59686 0.01367 0.31746 0.0
H2060 H 0.60139 0.98351 0.24525 0.0
C2061 C 0.59027 0.02241 0.28752 0.0
H2062 H 0.60639 0.99295 0.32353 0.0
C2063 C 0.58749 0.0171 0.24291 0.0
C2064 C 0.59101 1.00273 0.22686 0.0
H2065 H 0.58696 0.0332 0.29878 0.0
H2066 H 0.58234 0.02418 0.22102 0.0
C2067 C 0.59848 0.99459 0.25637 0.0
C2068 C 0.98724 0.56753 0.29681 0.0
C2069 C 0.99588 0.58305 0.32648 0.0
H2070 H 0.98548 0.55749 0.23053 0.0
C2071 C 0.00966 0.60109 0.31002 0.0
H2072 H 0.97639 0.5535 0.30822 0.0
C2073 C 0.01519 0.60336 0.26533 0.0
C2074 C 0.00697 0.58766 0.23587 0.0
H2075 H 0.01676 0.6133 0.33209 0.0
H2076 H 0.02635 0.61731 0.25428 0.0
C2077 C 0.99261 0.56982 0.2522 0.0
C2078 C 0.42426 0.44196 0.25026 0.0
C2079 C 0.41745 0.42655 0.22032 0.0
H2080 H 0.43215 0.45171 0.31685 0.0
C2081 C 0.41293 0.4084 0.23653 0.0
H2082 H 0.42765 0.45607 0.23899 0.0
C2083 C 0.41587 0.40591 0.2813 0.0
C2084 C 0.42328 0.4215 0.31107 0.0
H2085 H 0.40786 0.39627 0.21422 0.0
H2086 H 0.41292 0.39189 0.29217 0.0
C2087 C 0.42701 0.43945 0.29495 0.0
C2088 C 0.33616 0.17641 0.23567 0.0
C2089 C 0.33921 0.18796 0.19831 0.0
H2090 H 0.33569 0.15141 0.26218 0.0
C2091 C 0.34364 0.18248 0.15776 0.0
H2092 H 0.33241 0.18014 0.2671 0.0
C2093 C 0.34525 0.16594 0.15481 0.0
C2094 C 0.34217 0.15438 0.19216 0.0
H2095 H 0.34564 0.19089 0.12825 0.0
H2096 H 0.34899 0.16219 0.12338 0.0
C2097 C 0.33773 0.15985 0.2327 0.0
C2098 C 0.83479 0.15973 0.22991 0.0
C2099 C 0.82218 0.15259 0.19361 0.0
H2100 H 0.86049 0.18331 0.25723 0.0
C2101 C 0.82652 0.16412 0.15563 0.0
H2102 H 0.83199 0.15103 0.25927 0.0
C2103 C 0.84299 0.18241 0.15414 0.0
C2104 C 0.85565 0.18952 0.19036 0.0
H2105 H 0.81732 0.15882 0.12677 0.0
H2106 H 0.84585 0.19107 0.12467 0.0
C2107 C 0.85125 0.17804 0.22845 0.0
C2108 C 0.84734 0.66764 0.15111 0.0
C2109 C 0.85805 0.67289 0.19059 0.0
H2110 H 0.82102 0.66154 0.11901 0.0
C2111 C 0.85028 0.67664 0.22836 0.0
H2112 H 0.85318 0.66506 0.12128 0.0
C2113 C 0.83205 0.67489 0.22689 0.0
C2114 C 0.82134 0.66964 0.18741 0.0
H2115 H 0.85838 0.681 0.25898 0.0
H2116 H 0.82621 0.67744 0.25673 0.0
C2117 C 0.82912 0.6659 0.14962 0.0
C2118 C 0.16819 0.3433 0.39669 0.0
C2119 C 0.15668 0.33968 0.35892 0.0
H2120 H 0.19308 0.34405 0.42487 0.0
C2121 C 0.16219 0.33462 0.31925 0.0
H2122 H 0.16441 0.3475 0.42746 0.0
C2123 C 0.17869 0.33292 0.31759 0.0
C2124 C 0.19018 0.33652 0.35538 0.0
H2125 H 0.15379 0.33215 0.28943 0.0
H2126 H 0.18245 0.32869 0.28684 0.0
C2127 C 0.18469 0.3416 0.39504 0.0
C2128 C 0.67848 0.83153 0.32275 0.0
C2129 C 0.67223 0.82029 0.36135 0.0
H2130 H 0.68546 0.85831 0.29179 0.0
C2131 C 0.66755 0.82763 0.39856 0.0
H2132 H 0.68176 0.82607 0.29325 0.0
C2133 C 0.66931 0.84589 0.39743 0.0
C2134 C 0.6756 0.85714 0.35888 0.0
H2135 H 0.66241 0.81916 0.42846 0.0
H2136 H 0.66598 0.85134 0.42687 0.0
C2137 C 0.6803 0.84982 0.32167 0.0
C2138 C 0.18387 0.843 0.39153 0.0
C2139 C 0.19221 0.85452 0.35406 0.0
H2140 H 0.15941 0.81805 0.41848 0.0
C2141 C 0.18216 0.84898 0.31369 0.0
H2142 H 0.19146 0.8468 0.42284 0.0
C2143 C 0.16403 0.83239 0.311 0.0
C2144 C 0.15566 0.82088 0.34849 0.0
H2145 H 0.18846 0.85739 0.28411 0.0
H2146 H 0.15644 0.82861 0.2797 0.0
C2147 C 0.16572 0.82643 0.38886 0.0
C2148 C 0.67783 0.84982 0.82423 0.0
C2149 C 0.67338 0.85525 0.86483 0.0
H2150 H 0.68319 0.82959 0.78967 0.0
C2151 C 0.67037 0.84368 0.90213 0.0
H2152 H 0.6798 0.85826 0.79476 0.0
C2153 C 0.67197 0.82714 0.89902 0.0
C2154 C 0.6764 0.82171 0.85842 0.0
H2155 H 0.66661 0.84737 0.9336 0.0
H2156 H 0.66993 0.81866 0.92845 0.0
C2157 C 0.67946 0.8333 0.82115 0.0
C2158 C 0.17674 0.84796 0.81428 0.0
C2159 C 0.18885 0.85547 0.85133 0.0
H2160 H 0.15143 0.82409 0.78643 0.0
C2161 C 0.18395 0.84438 0.89017 0.0
H2162 H 0.18 0.85631 0.78419 0.0
C2163 C 0.16751 0.82608 0.89163 0.0
C2164 C 0.15541 0.81858 0.85456 0.0
H2165 H 0.19277 0.84998 0.91954 0.0
H2166 H 0.16426 0.8177 0.92167 0.0
C2167 C 0.16027 0.82969 0.81578 0.0
C2168 C 0.16554 0.34164 0.89467 0.0
C2169 C 0.15508 0.33637 0.85483 0.0
H2170 H 0.19166 0.34774 0.92781 0.0
C2171 C 0.16308 0.33261 0.8175 0.0
H2172 H 0.15952 0.34423 0.92416 0.0
C2173 C 0.18129 0.33435 0.81977 0.0
C2174 C 0.19175 0.33962 0.8596 0.0
H2175 H 0.15518 0.32824 0.78663 0.0
H2176 H 0.18731 0.33175 0.79028 0.0
C2177 C 0.18375 0.34338 0.89693 0.0
C2178 C 0.8285 0.66739 0.65239 0.0
C2179 C 0.8233 0.67273 0.6921 0.0
H2180 H 0.8486 0.66138 0.61942 0.0
C2181 C 0.8351 0.6766 0.72945 0.0
H2182 H 0.81988 0.66472 0.62288 0.0
C2183 C 0.85162 0.67495 0.7273 0.0
C2184 C 0.85686 0.66968 0.68755 0.0
H2185 H 0.83156 0.68102 0.76023 0.0
H2186 H 0.86027 0.67766 0.7568 0.0
C2187 C 0.84504 0.66575 0.65023 0.0
C2188 C 0.33514 0.17915 0.73107 0.0
C2189 C 0.34142 0.19037 0.69246 0.0
H2190 H 0.32825 0.15245 0.76225 0.0
C2191 C 0.3461 0.18301 0.6553 0.0
H2192 H 0.33182 0.18464 0.76049 0.0
C2193 C 0.34428 0.16473 0.65648 0.0
C2194 C 0.33805 0.15353 0.69513 0.0
H2195 H 0.35126 0.19148 0.62538 0.0
H2196 H 0.34756 0.15924 0.62702 0.0
C2197 C 0.33337 0.1609 0.7323 0.0
C2198 C 0.83102 0.16546 0.64647 0.0
C2199 C 0.82191 0.15393 0.6835 0.0
H2200 H 0.85589 0.19058 0.62151 0.0
C2201 C 0.83101 0.15956 0.72498 0.0
H2202 H 0.82414 0.1616 0.61433 0.0
C2203 C 0.84898 0.17625 0.72921 0.0
C2204 C 0.85808 0.18779 0.69219 0.0
H2205 H 0.82409 0.15116 0.7542 0.0
H2206 H 0.85587 0.18011 0.76136 0.0
C2207 C 0.84898 0.18216 0.65072 0.0
C2208 C 0.00992 0.4994 0.48142 0.0
C2209 C 0.00782 0.48779 0.51805 0.0
H2210 H 0.01011 0.52466 0.45774 0.0
C2211 C 1.00487 0.49339 0.56008 0.0
H2212 H 0.01255 0.49557 0.44885 0.0
C2213 C 1.00382 0.51015 0.56529 0.0
C2214 C 1.00592 0.52177 0.52866 0.0
H2215 H 1.00363 0.48489 0.58898 0.0
H2216 H 1.0012 0.51399 0.59786 0.0
C2217 C 0.00886 0.51616 0.48663 0.0
C2218 C 0.5008 0.49321 0.56271 0.0
C2219 C 0.48846 0.4855 0.52611 0.0
H2220 H 0.52629 0.51723 0.58949 0.0
C2221 C 0.49303 0.49642 0.48707 0.0
H2222 H 0.4978 0.48496 0.59291 0.0
C2223 C 0.50951 0.51466 0.48478 0.0
C2224 C 0.52192 0.52234 0.52131 0.0
H2225 H 0.484 0.49065 0.45804 0.0
H2226 H 0.51259 0.52283 0.45444 0.0
C2227 C 0.51725 0.51149 0.56049 0.0
C2228 C 0.51635 0.00925 0.56209 0.0
C2229 C 0.52423 0.00561 0.52434 0.0
H2230 H 0.49222 0.01002 0.59023 0.0
C2231 C 0.51364 1.00052 0.48468 0.0
H2232 H 0.52435 0.01348 0.59284 0.0
C2233 C 0.49543 0.99881 0.48301 0.0
C2234 C 0.48754 1.00244 0.52077 0.0
H2235 H 0.51955 0.99804 0.45487 0.0
H2236 H 0.48742 0.99457 0.45226 0.0
C2237 C 0.49814 0.00755 0.56041 0.0
C2238 C 0.49448 1.00016 0.98577 0.0
C2239 C 0.48934 0.0057 0.02529 0.0
H2240 H 0.51448 0.99392 0.95317 0.0
C2241 C 0.50118 0.00974 0.06261 0.0
H2242 H 0.48582 0.99736 0.95627 0.0
C2243 C 0.51769 0.00806 0.06063 0.0
C2244 C 0.52284 1.00255 1.0211 0.0
H2245 H 0.4977 0.01432 0.09323 0.0
H2246 H 0.52638 0.0109 0.09011 0.0
C2247 C 0.51098 0.99847 0.9838 0.0
C2248 C 0.01457 0.51577 0.98567 0.0
C2249 C 0.00884 0.52289 1.02154 0.0
H2250 H 0.01671 0.49215 0.9588 0.0
C2251 C 1.00142 0.51134 0.05943 0.0
H2252 H 0.02066 0.52448 0.9564 0.0
C2253 C 0.99949 0.49301 0.06113 0.0
C2254 C 1.00519 0.48588 0.02524 0.0
H2255 H 0.99732 0.51662 0.08799 0.0
H2256 H 0.99338 0.48429 0.09039 0.0
C2257 C 0.01264 0.49744 0.98737 0.0
C2258 C 0.49865 0.49905 0.9775 0.0
C2259 C 0.49005 0.48761 1.01496 0.0
H2260 H 0.5232 0.52405 0.95103 0.0
C2261 C 0.49984 0.49324 0.05567 0.0
H2262 H 0.49126 0.4952 0.94595 0.0
C2263 C 0.51795 0.50984 0.05869 0.0
C2264 C 0.5265 0.52131 1.02126 0.0
H2265 H 0.49334 0.48493 0.08525 0.0
H2266 H 0.52534 0.51372 0.09025 0.0
C2267 C 0.51673 0.51567 0.98055 0.0
C2268 C 0.37647 0.04064 0.06151 0.0
C2269 C 0.38594 0.03262 0.08462 0.0
H2270 H 0.36204 0.05698 0.06585 0.0
C2271 C 0.38514 0.03221 0.13108 0.0
H2272 H 0.3771 0.04136 0.02571 0.0
C2273 C 0.37625 0.04086 0.15401 0.0
C2274 C 0.36824 0.05034 0.13091 0.0
H2275 H 0.39254 0.02636 0.14968 0.0
H2276 H 0.377 0.04151 0.18982 0.0
C2277 C 0.36784 0.04955 0.08444 0.0
C2278 C 0.94275 0.32109 0.09566 0.0
C2279 C 0.9544 0.31875 0.12643 0.0
H2280 H 0.9387 0.33893 0.05296 0.0
C2281 C 0.9737 0.33356 0.12954 0.0
H2282 H 0.92766 0.31043 0.09314 0.0
C2283 C 0.98098 0.34995 0.1018 0.0
C2284 C 0.96909 0.35238 0.07092 0.0
H2285 H 0.98295 0.33308 0.1548 0.0
H2286 H 0.99568 0.36113 0.10657 0.0
C2287 C 0.94958 0.33776 0.07057 0.0
C2288 C 0.69115 0.64419 0.0832 0.0
C2289 C 0.69128 0.64345 0.12964 0.0
H2290 H 0.67403 0.63522 0.02391 0.0
C2291 C 0.67366 0.63526 0.15223 0.0
H2292 H 0.7045 0.65017 0.065 0.0
C2293 C 0.65624 0.62645 0.12874 0.0
C2294 C 0.65611 0.62594 0.08226 0.0
H2295 H 0.67337 0.63429 0.188 0.0
H2296 H 0.6429 0.61886 0.1469 0.0
C2297 C 0.67373 0.63565 0.05973 0.0
C2298 C 0.03312 0.38153 0.40943 0.0
C2299 C 0.0329 0.38254 0.45583 0.0
H2300 H 0.0433 0.37325 0.35244 0.0
C2301 C 0.0407 0.37327 0.48059 0.0
H2302 H 0.02757 0.38886 0.38961 0.0
C2303 C 0.05001 0.36466 0.45935 0.0
C2304 C 0.05146 0.3649 0.41299 0.0
H2305 H 0.04106 0.37419 0.51638 0.0
H2306 H 0.05729 0.35905 0.47921 0.0
C2307 C 0.04216 0.37264 0.3882 0.0
C2308 C 0.64481 0.68816 0.46371 0.0
C2309 C 0.6446 0.68907 0.41728 0.0
H2310 H 0.63523 0.67007 0.52133 0.0
C2311 C 0.63655 0.6718 0.3931 0.0
H2312 H 0.65065 0.7012 0.48316 0.0
C2313 C 0.62747 0.65399 0.41492 0.0
C2314 C 0.62651 0.65308 0.46136 0.0
H2315 H 0.63596 0.67208 0.35731 0.0
H2316 H 0.62006 0.64096 0.39548 0.0
C2317 C 0.63599 0.67035 0.48552 0.0
C2318 C 0.32234 0.95931 0.46231 0.0
C2319 C 0.3221 0.95872 0.41583 0.0
H2320 H 0.3396 0.96722 0.52135 0.0
C2321 C 0.33967 0.96833 0.39307 0.0
H2322 H 0.30904 0.95177 0.48064 0.0
C2323 C 0.35715 0.97689 0.41633 0.0
C2324 C 0.35739 0.97625 0.46277 0.0
H2325 H 0.33988 0.96783 0.35725 0.0
H2326 H 0.37045 0.98281 0.39795 0.0
C2327 C 0.33982 0.96813 0.48557 0.0
C2328 C 0.63748 0.96983 0.98983 0.0
C2329 C 0.62782 0.97719 0.96506 0.0
H2330 H 0.65236 0.95388 0.98857 0.0
C2331 C 0.62876 0.97691 0.91866 0.0
H2332 H 0.63674 0.96964 0.02564 0.0
C2333 C 0.63799 0.96819 0.89746 0.0
C2334 C 0.64618 0.95933 0.92231 0.0
H2335 H 0.62122 0.98222 0.89883 0.0
H2336 H 0.63731 0.96694 0.86172 0.0
C2337 C 0.64644 0.96085 0.96865 0.0
C2338 C 0.03883 0.67423 0.91547 0.0
C2339 C 0.05801 0.68928 0.91854 0.0
H2340 H 0.01715 0.64659 0.93886 0.0
C2341 C 0.06978 0.68736 0.94972 0.0
H2342 H 0.02951 0.67441 0.88996 0.0
C2343 C 0.06319 0.67085 0.97527 0.0
C2344 C 0.0438 0.65597 0.97484 0.0
H2345 H 0.0848 0.69824 0.95225 0.0
H2346 H 0.07416 0.67004 0.99332 0.0
C2347 C 0.03178 0.65799 0.9436 0.0
C2348 C 0.35745 0.38214 0.9108 0.0
C2349 C 0.3588 0.38347 0.95716 0.0
H2350 H 0.33885 0.3735 0.85399 0.0
C2351 C 0.34179 0.37448 0.98214 0.0
H2352 H 0.37031 0.38925 0.8908 0.0
C2353 C 0.3238 0.36577 0.9611 0.0
C2354 C 0.32248 0.36565 0.91473 0.0
H2355 H 0.34244 0.37563 1.01791 0.0
H2356 H 0.31096 0.36034 0.98108 0.0
C2357 C 0.33947 0.37316 0.88977 0.0
C2358 C 0.97222 0.63795 0.65632 0.0
C2359 C 0.96266 0.64534 0.63128 0.0
H2360 H 0.98697 0.62187 0.6555 0.0
C2361 C 0.96383 0.64515 0.58491 0.0
H2362 H 0.97129 0.63767 0.69211 0.0
C2363 C 0.97311 0.63643 0.56397 0.0
C2364 C 0.98113 0.62747 0.58906 0.0
H2365 H 0.95635 0.65048 0.56487 0.0
H2366 H 0.97252 0.63517 0.52823 0.0
C2367 C 0.98122 0.62895 0.6354 0.0
C2368 C 0.37726 0.35035 0.60315 0.0
C2369 C 0.39118 0.3523 0.57167 0.0
H2370 H 0.35878 0.33405 0.65719 0.0
C2371 C 0.3957 0.33744 0.57118 0.0
H2372 H 0.37401 0.36173 0.60782 0.0
C2373 C 0.38595 0.32103 0.59711 0.0
C2374 C 0.37237 0.31919 0.62853 0.0
H2375 H 0.40736 0.33818 0.55273 0.0
H2376 H 0.3901 0.31016 0.59462 0.0
C2377 C 0.3682 0.3342 0.63154 0.0
C2378 C 0.65606 0.03114 0.628 0.0
C2379 C 0.65471 0.03114 0.58164 0.0
H2380 H 0.67472 0.04092 0.68475 0.0
C2381 C 0.67168 0.03877 0.55661 0.0
H2382 H 0.64323 0.02564 0.64804 0.0
C2383 C 0.68968 0.04774 0.57758 0.0
C2384 C 0.69106 0.04896 0.62396 0.0
H2385 H 0.67103 0.03922 0.52085 0.0
H2386 H 0.70252 0.05496 0.55755 0.0
C2387 C 0.67406 0.03984 0.64898 0.0
C2388 C 0.71026 0.70794 0.82119 0.0
C2389 C 0.70225 0.71743 0.7981 0.0
H2390 H 0.72652 0.69343 0.81683 0.0
C2391 C 0.70182 0.71661 0.75164 0.0
H2392 H 0.71102 0.7086 0.857 0.0
C2393 C 0.71043 0.70768 0.72869 0.0
C2394 C 0.7199 0.69966 0.75178 0.0
H2395 H 0.69601 0.72403 0.73305 0.0
H2396 H 0.71103 0.70838 0.69288 0.0
C2397 C 0.71912 0.69927 0.79824 0.0
C2398 C 0.29369 0.98737 0.7487 0.0
C2399 C 0.29268 0.98657 0.79514 0.0
H2400 H 0.30217 0.00533 0.69086 0.0
C2401 C 0.30205 1.00389 0.81911 0.0
H2402 H 0.28639 0.97429 0.72941 0.0
C2403 C 0.31082 0.02165 0.79708 0.0
C2404 C 0.31066 0.02246 0.75063 0.0
H2405 H 0.30128 1.00369 0.85492 0.0
H2406 H 0.31659 0.03473 0.81637 0.0
C2407 C 0.30272 0.00513 0.72667 0.0
C2408 C 0.00746 0.30264 0.82213 0.0
C2409 C 0.02456 0.3104 0.79757 0.0
H2410 H 0.97663 0.28639 0.8203 0.0
C2411 C 0.02347 0.31063 0.7512 0.0
H2412 H 0.00791 0.30206 0.8579 0.0
C2413 C 1.00558 0.30197 0.72971 0.0
C2414 C 0.98846 0.29269 0.75425 0.0
H2415 H 0.03641 0.31627 0.73152 0.0
H2416 H 1.00512 0.30107 0.69391 0.0
C2417 C 0.98957 0.29371 0.80065 0.0
C2418 C 0.31286 0.29361 0.30304 0.0
C2419 C 0.31283 0.29239 0.25665 0.0
H2420 H 0.30302 0.3022 0.36011 0.0
C2421 C 0.30495 0.30157 0.23193 0.0
H2422 H 0.31853 0.28637 0.32283 0.0
C2423 C 0.29579 0.31034 0.25323 0.0
C2424 C 0.29462 0.31034 0.29961 0.0
H2425 H 0.30444 0.30053 0.19615 0.0
H2426 H 0.28845 0.31589 0.23343 0.0
C2427 C 0.30398 0.30264 0.32433 0.0
C2428 C 0.70202 1.00094 0.29827 0.0
C2429 C 0.70636 0.98603 0.29525 0.0
H2430 H 0.70765 0.02843 0.27471 0.0
C2431 C 0.72007 0.98807 0.26402 0.0
H2432 H 0.6925 1.00066 0.32382 0.0
C2433 C 0.7298 1.00456 0.23832 0.0
C2434 C 0.72508 0.01929 0.23872 0.0
H2435 H 0.72435 0.97731 0.26153 0.0
H2436 H 0.7416 0.00548 0.22015 0.0
C2437 C 0.71103 0.01715 0.27003 0.0
C2438 C 0.02348 0.71548 0.2445 0.0
C2439 C 0.02466 0.71664 0.29089 0.0
H2440 H 1.00507 0.70701 0.18736 0.0
C2441 C 0.00757 0.70749 0.31555 0.0
H2442 H 0.0364 0.72269 0.22474 0.0
C2443 C 0.98965 0.69882 0.29419 0.0
C2444 C 0.9885 0.69889 0.24781 0.0
H2445 H 0.00809 0.70848 0.35134 0.0
H2446 H 0.97674 0.69327 0.31395 0.0
C2447 C 1.00557 0.70654 0.22314 0.0
C2448 C 0.3277 0.08097 0.96904 0.0
C2449 C 0.34233 0.09811 0.98801 0.0
H2450 H 0.3126 0.06625 0.9101 0.0
C2451 C 0.35295 0.11393 0.96011 0.0
H2452 H 0.31947 0.0683 0.98904 0.0
C2453 C 0.34912 0.11258 0.91462 0.0
C2454 C 0.33445 0.09547 0.89597 0.0
H2455 H 0.3641 0.12744 0.9734 0.0
H2456 H 0.35763 0.12496 0.89393 0.0
C2457 C 0.3237 0.07973 0.9237 0.0
C2458 C 0.90399 0.23122 0.97164 0.0
C2459 C 0.90699 0.24859 0.99 0.0
H2460 H 0.90395 0.216 0.91344 0.0
C2461 C 0.91224 0.26426 0.96185 0.0
H2462 H 0.89989 0.21886 0.9926 0.0
C2463 C 0.91501 0.26277 0.91654 0.0
C2464 C 0.91233 0.24547 0.89811 0.0
H2465 H 0.91502 0.27791 0.97518 0.0
H2466 H 0.91978 0.27541 0.89623 0.0
C2467 C 0.90654 0.22965 0.92631 0.0
C2468 C 0.76913 0.65775 0.95861 0.0
C2469 C 0.76393 0.6684 0.98648 0.0
H2470 H 0.77542 0.65294 0.8924 0.0
C2471 C 0.76126 0.68289 0.96749 0.0
H2472 H 0.7716 0.6467 0.97194 0.0
C2473 C 0.76392 0.68676 0.92216 0.0
C2474 C 0.76896 0.67601 0.89447 0.0
H2475 H 0.7568 0.69111 0.98751 0.0
H2476 H 0.76146 0.69777 0.90853 0.0
C2477 C 0.77151 0.66145 0.9131 0.0
C2478 C 0.08173 0.32262 0.62455 0.0
C2479 C 0.0975 0.33352 0.65224 0.0
H2480 H 0.07028 0.31798 0.55911 0.0
C2481 C 0.1146 0.34808 0.63355 0.0
H2482 H 0.06826 0.31159 0.63822 0.0
C2483 C 0.11593 0.35162 0.58796 0.0
C2484 C 0.1001 0.34081 0.5601 0.0
H2485 H 0.12699 0.35668 0.65424 0.0
H2486 H 0.12944 0.36266 0.57458 0.0
C2487 C 0.08295 0.32633 0.57914 0.0
C2488 C 0.66223 0.74804 0.63544 0.0
C2489 C 0.67688 0.76518 0.65439 0.0
H2490 H 0.6471 0.73333 0.57655 0.0
C2491 C 0.68755 0.78097 0.62646 0.0
H2492 H 0.65398 0.73538 0.65547 0.0
C2493 C 0.68372 0.77961 0.58096 0.0
C2494 C 0.669 0.76252 0.56237 0.0
H2495 H 0.69872 0.79447 0.63973 0.0
H2496 H 0.69225 0.79197 0.56024 0.0
C2497 C 0.65823 0.7468 0.59012 0.0
C2498 C 0.24838 0.92922 0.62214 0.0
C2499 C 0.24341 0.9135 0.64989 0.0
H2500 H 0.25556 0.94065 0.5568 0.0
C2501 C 0.24099 0.8964 0.63127 0.0
H2502 H 0.25075 0.94269 0.63573 0.0
C2503 C 0.24347 0.89505 0.58578 0.0
C2504 C 0.24864 0.91085 0.55787 0.0
H2505 H 0.23714 0.88403 0.65197 0.0
H2506 H 0.24112 0.88155 0.57251 0.0
C2507 C 0.25113 0.92798 0.57682 0.0
C2508 C 0.66932 0.89842 0.14162 0.0
C2509 C 0.68355 0.91585 0.15998 0.0
H2510 H 0.65435 0.8831 0.08331 0.0
C2511 C 0.69392 0.93156 0.13193 0.0
H2512 H 0.66111 0.88605 0.16259 0.0
C2513 C 0.68975 0.93003 0.08661 0.0
C2514 C 0.67529 0.91265 0.06811 0.0
H2515 H 0.70469 0.94526 0.14532 0.0
H2516 H 0.69756 0.94269 0.06632 0.0
C2517 C 0.66529 0.8968 0.09626 0.0
C2518 C 0.10576 0.77901 0.11744 0.0
C2519 C 0.10006 0.76324 0.14577 0.0
H2520 H 0.11216 0.78962 0.05096 0.0
C2521 C 0.09723 0.74587 0.12746 0.0
H2522 H 0.10845 0.7927 0.13023 0.0
C2523 C 0.09982 0.74427 0.08215 0.0
C2524 C 0.10502 0.75989 0.05391 0.0
H2525 H 0.09249 0.73327 0.14789 0.0
H2526 H 0.09697 0.73058 0.06891 0.0
C2527 C 0.10812 0.77732 0.07207 0.0
C2528 C 0.26383 0.34994 0.13483 0.0
C2529 C 0.24662 0.33547 0.15366 0.0
H2530 H 0.27871 0.36469 0.07591 0.0
C2531 C 0.23085 0.32473 0.12558 0.0
H2532 H 0.27646 0.35824 0.15503 0.0
C2533 C 0.23232 0.3283 0.08001 0.0
C2534 C 0.24949 0.34283 0.06151 0.0
H2535 H 0.21729 0.31369 0.13878 0.0
H2536 H 0.21997 0.31973 0.05916 0.0
C2537 C 0.26519 0.35368 0.08942 0.0
C2538 C 0.93003 0.68305 0.4654 0.0
C2539 C 0.91299 0.66847 0.48464 0.0
H2540 H 0.94452 0.6978 0.4062 0.0
C2541 C 0.89717 0.65745 0.45692 0.0
H2542 H 0.9427 0.69156 0.48531 0.0
C2543 C 0.89839 0.6609 0.4113 0.0
C2544 C 0.91537 0.67559 0.39244 0.0
H2545 H 0.88375 0.64631 0.47045 0.0
H2546 H 0.886 0.65215 0.39072 0.0
C2547 C 0.93113 0.68667 0.41998 0.0
C2548 C 0.35999 0.26461 0.46539 0.0
C2549 C 0.34953 0.24896 0.49357 0.0
H2550 H 0.36373 0.27562 0.39964 0.0
C2551 C 0.33526 0.23152 0.47532 0.0
H2552 H 0.37079 0.27831 0.4787 0.0
C2553 C 0.33128 0.22984 0.42993 0.0
C2554 C 0.34136 0.24562 0.40166 0.0
H2555 H 0.32699 0.21921 0.49638 0.0
H2556 H 0.32031 0.21614 0.41706 0.0
C2557 C 0.35586 0.26301 0.42004 0.0
C2558 C 0.76554 0.07791 0.46109 0.0
C2559 C 0.76808 0.09526 0.47896 0.0
H2560 H 0.76557 0.06253 0.40288 0.0
C2561 C 0.77387 0.11095 0.45033 0.0
H2562 H 0.76078 0.06537 0.48171 0.0
C2563 C 0.77643 0.10917 0.4051 0.0
C2564 C 0.77347 0.09174 0.3873 0.0
H2565 H 0.77637 0.12463 0.46274 0.0
H2566 H 0.78036 0.12137 0.38371 0.0
C2567 C 0.76834 0.07623 0.41586 0.0
C2568 C 0.98295 0.40978 0.24863 0.0
C2569 C 0.99338 0.42523 0.21992 0.0
H2570 H 0.97962 0.39901 0.31458 0.0
C2571 C 0.00795 0.44265 0.23761 0.0
H2572 H 0.97193 0.39609 0.23576 0.0
C2573 C 0.01233 0.44447 0.28283 0.0
C2574 C 1.00237 0.42885 0.3116 0.0
H2575 H 0.01627 0.4548 0.21612 0.0
H2576 H 0.02359 0.45814 0.29512 0.0
C2577 C 0.98746 0.41152 0.29385 0.0
C2578 C 0.58543 0.59478 0.2442 0.0
C2579 C 0.58301 0.57772 0.22504 0.0
H2580 H 0.58477 0.60929 0.30322 0.0
C2581 C 0.57776 0.56183 0.25273 0.0
H2582 H 0.58991 0.6075 0.22437 0.0
C2583 C 0.57509 0.56302 0.2982 0.0
C2584 C 0.57739 0.58004 0.31702 0.0
H2585 H 0.57548 0.54838 0.23929 0.0
H2586 H 0.57115 0.55058 0.31871 0.0
C2587 C 0.58248 0.59586 0.28949 0.0
C2588 C 0.42741 0.01578 0.30048 0.0
C2589 C 0.43006 1.00127 0.31937 0.0
H2590 H 0.4276 0.03071 0.24159 0.0
C2591 C 0.43521 0.9906 0.29141 0.0
H2592 H 0.42299 0.02402 0.32057 0.0
C2593 C 0.43756 0.99431 0.2459 0.0
C2594 C 0.43503 0.00891 0.22736 0.0
H2595 H 0.43766 0.97953 0.30467 0.0
H2596 H 0.44142 0.9858 0.22513 0.0
C2597 C 0.43004 0.01967 0.25514 0.0
C2598 C 0.58125 0.98792 0.79128 0.0
C2599 C 0.57645 0.99882 0.8191 0.0
H2600 H 0.5879 0.98328 0.7257 0.0
C2601 C 0.57369 0.01325 0.80046 0.0
H2602 H 0.58383 0.97698 0.80489 0.0
C2603 C 0.57574 0.01675 0.75486 0.0
C2604 C 0.58081 0.00602 0.72689 0.0
H2605 H 0.56993 0.02185 0.82124 0.0
H2606 H 0.57319 0.02774 0.74157 0.0
C2607 C 0.58357 0.99158 0.74583 0.0
C2608 C 0.02631 0.59787 0.75274 0.0
C2609 C 0.01147 0.58058 0.73467 0.0
H2610 H 0.04172 0.61311 0.81112 0.0
C2611 C 1.00156 0.56482 0.76309 0.0
H2612 H 0.03412 0.61046 0.73226 0.0
C2613 C 1.00589 0.56647 0.80831 0.0
C2614 C 0.02037 0.58386 0.82635 0.0
H2615 H 0.99036 0.55117 0.75052 0.0
H2616 H 0.99761 0.55421 0.82953 0.0
C2617 C 0.03077 0.59944 0.79797 0.0
C2618 C 0.43509 0.40969 0.74926 0.0
C2619 C 0.44009 0.42508 0.72043 0.0
H2620 H 0.42791 0.39911 0.81538 0.0
C2621 C 0.44319 0.44261 0.73795 0.0
H2622 H 0.43223 0.39592 0.73648 0.0
C2623 C 0.44092 0.44459 0.78322 0.0
C2624 C 0.43528 0.42902 0.81216 0.0
H2625 H 0.44702 0.45471 0.71632 0.0
H2626 H 0.44354 0.45834 0.79543 0.0
C2627 C 0.43258 0.41158 0.79452 0.0
loop_
_geom_bond_atom_site_label_1
_geom_bond_atom_site_label_2
_geom_bond_distance
_geom_bond_site_symmetry_2
_ccdc_geom_bond_type
C0 C1 1.443 . S
C0 N4 1.376 . S
C0 C38 1.389 . S
C1 C0 1.443 . S
C1 C2 1.340 . S
C1 H41 0.951 . S
C2 C1 1.340 . S
C2 C3 1.439 . S
C2 H42 0.950 . S
C3 C2 1.439 . S
C3 N4 1.374 . S
C3 C37 1.395 . S
N4 C0 1.376 . S
N4 C3 1.374 . S
N4 Co5 2.008 . S
Co5 N4 2.008 . S
Co5 N6 1.995 . S
Co5 N11 2.008 . S
Co5 N16 1.995 . S
Co5 N21 2.282 . S
Co5 N27 2.282 . S
N6 Co5 1.995 . S
N6 C7 1.376 . S
N6 C10 1.383 . S
C7 N6 1.376 . S
C7 C8 1.446 . S
C7 C37 1.391 . S
C8 C7 1.446 . S
C8 C9 1.339 . S
C8 H43 0.949 . S
C9 C8 1.339 . S
C9 C10 1.439 . S
C9 H44 0.950 . S
C10 N6 1.383 . S
C10 C9 1.439 . S
C10 C39 1.392 . S
N11 Co5 2.008 . S
N11 C12 1.376 . S
N11 C15 1.374 . S
C12 N11 1.376 . S
C12 C13 1.443 . S
C12 C39 1.389 . S
C13 C12 1.443 . S
C13 C14 1.340 . S
C13 H45 0.951 . S
C14 C13 1.340 . S
C14 C15 1.439 . S
C14 H46 0.950 . S
C15 N11 1.374 . S
C15 C14 1.439 . S
C15 C40 1.395 . S
N16 Co5 1.995 . S
N16 C17 1.376 . S
N16 C20 1.383 . S
C17 N16 1.376 . S
C17 C18 1.446 . S
C17 C40 1.391 . S
C18 C17 1.446 . S
C18 C19 1.339 . S
C18 H47 0.949 . S
C19 C18 1.339 . S
C19 C20 1.439 . S
C19 H48 0.950 . S
C20 N16 1.383 . S
C20 C19 1.439 . S
C20 C38 1.392 . S
N21 Co5 2.282 . S
N21 C24 1.332 . S
N21 C26 1.332 . S
C22 C23 1.386 . S
C22 C25 1.388 . S
C23 C22 1.386 . S
C23 C24 1.382 . S
C23 H49 0.950 . S
C24 N21 1.332 . S
C24 C23 1.382 . S
C24 H35 0.952 . S
C25 C22 1.388 . S
C25 C26 1.382 . S
C25 H50 0.950 . S
C26 N21 1.332 . S
C26 C25 1.382 . S
C26 H36 0.948 . S
N27 Co5 2.282 . S
N27 C31 1.332 . S
N27 C32 1.332 . S
C28 C29 1.388 1_554 S
C28 C32 1.382 . S
C28 H51 0.950 1_554 S
C29 C28 1.388 1_556 S
C29 C30 1.386 1_556 S
C30 C29 1.386 1_554 S
C30 C31 1.382 . S
C30 H52 0.950 1_554 S
C31 N27 1.332 . S
C31 C30 1.382 . S
C31 H33 0.952 . S
C32 N27 1.332 . S
C32 C28 1.382 . S
C32 H34 0.948 . S
H33 C31 0.952 . S
H34 C32 0.948 . S
H35 C24 0.952 . S
H36 C26 0.948 . S
C37 C3 1.395 . S
C37 C7 1.391 . S
C38 C0 1.389 . S
C38 C20 1.392 . S
C39 C10 1.392 . S
C39 C12 1.389 . S
C40 C15 1.395 . S
C40 C17 1.391 . S
H41 C1 0.951 . S
H42 C2 0.950 . S
H43 C8 0.949 . S
H44 C9 0.950 . S
H45 C13 0.951 . S
H46 C14 0.950 . S
H47 C18 0.949 . S
H48 C19 0.950 . S
H49 C23 0.950 . S
H50 C25 0.950 . S
H51 C28 0.950 1_556 S
H52 C30 0.950 1_556 S
C53 C54 1.443 . S
C53 N57 1.376 . S
C53 C91 1.389 . S
C54 C53 1.443 . S
C54 C55 1.340 . S
C54 H94 0.951 . S
C55 C54 1.340 . S
C55 C56 1.439 . S
C55 H95 0.950 . S
C56 C55 1.439 . S
C56 N57 1.374 . S
C56 C90 1.395 . S
N57 C53 1.376 . S
N57 C56 1.374 . S
N57 Co58 2.008 . S
Co58 N57 2.008 . S
Co58 N59 1.995 . S
Co58 N64 2.008 . S
Co58 N69 1.995 . S
Co58 N74 2.282 . S
Co58 N80 2.282 . S
N59 Co58 1.995 . S
N59 C60 1.376 . S
N59 C63 1.383 . S
C60 N59 1.376 . S
C60 C61 1.446 . S
C60 C90 1.391 . S
C61 C60 1.446 . S
C61 C62 1.339 . S
C61 H96 0.949 . S
C62 C61 1.339 . S
C62 C63 1.439 . S
C62 H97 0.950 . S
C63 N59 1.383 . S
C63 C62 1.439 . S
C63 C92 1.392 . S
N64 Co58 2.008 . S
N64 C65 1.376 . S
N64 C68 1.374 . S
C65 N64 1.376 . S
C65 C66 1.443 . S
C65 C92 1.389 . S
C66 C65 1.443 . S
C66 C67 1.340 . S
C66 H98 0.951 . S
C67 C66 1.340 . S
C67 C68 1.439 . S
C67 H99 0.950 . S
C68 N64 1.374 . S
C68 C67 1.439 . S
C68 C93 1.395 . S
N69 Co58 1.995 . S
N69 C70 1.376 . S
N69 C73 1.383 . S
C70 N69 1.376 . S
C70 C71 1.446 . S
C70 C93 1.391 . S
C71 C70 1.446 . S
C71 C72 1.339 . S
C71 H100 0.949 . S
C72 C71 1.339 . S
C72 C73 1.439 . S
C72 H101 0.950 . S
C73 N69 1.383 . S
C73 C72 1.439 . S
C73 C91 1.392 . S
N74 Co58 2.282 . S
N74 C77 1.332 . S
N74 C79 1.332 . S
C75 C76 1.386 . S
C75 C78 1.388 . S
C76 C75 1.386 . S
C76 C77 1.382 . S
C76 H102 0.950 . S
C77 N74 1.332 . S
C77 C76 1.382 . S
C77 H88 0.952 . S
C78 C75 1.388 . S
C78 C79 1.382 . S
C78 H103 0.950 . S
C79 N74 1.332 . S
C79 C78 1.382 . S
C79 H89 0.948 . S
N80 Co58 2.282 . S
N80 C84 1.332 . S
N80 C85 1.332 . S
C81 C82 1.388 1_554 S
C81 C85 1.382 . S
C81 H104 0.950 1_554 S
C82 C81 1.388 1_556 S
C82 C83 1.386 1_556 S
C83 C82 1.386 1_554 S
C83 C84 1.382 . S
C83 H105 0.950 1_554 S
C84 N80 1.332 . S
C84 C83 1.382 . S
C84 H86 0.952 . S
C85 N80 1.332 . S
C85 C81 1.382 . S
C85 H87 0.948 . S
H86 C84 0.952 . S
H87 C85 0.948 . S
H88 C77 0.952 . S
H89 C79 0.948 . S
C90 C56 1.395 . S
C90 C60 1.391 . S
C91 C53 1.389 . S
C91 C73 1.392 . S
C92 C63 1.392 . S
C92 C65 1.389 . S
C93 C68 1.395 . S
C93 C70 1.391 . S
H94 C54 0.951 . S
H95 C55 0.950 . S
H96 C61 0.949 . S
H97 C62 0.950 . S
H98 C66 0.951 . S
H99 C67 0.950 . S
H100 C71 0.949 . S
H101 C72 0.950 . S
H102 C76 0.950 . S
H103 C78 0.950 . S
H104 C81 0.950 1_556 S
H105 C83 0.950 1_556 S
C106 C107 1.443 . S
C106 N110 1.376 . S
C106 C144 1.389 . S
C107 C106 1.443 . S
C107 C108 1.340 . S
C107 H147 0.951 . S
C108 C107 1.340 . S
C108 C109 1.439 . S
C108 H148 0.950 . S
C109 C108 1.439 . S
C109 N110 1.374 . S
C109 C143 1.395 . S
N110 C106 1.376 . S
N110 C109 1.374 . S
N110 Co111 2.008 . S
Co111 N110 2.008 . S
Co111 N112 1.995 . S
Co111 N117 2.008 . S
Co111 N122 1.995 . S
Co111 N127 2.282 . S
Co111 N133 2.282 . S
N112 Co111 1.995 . S
N112 C113 1.376 . S
N112 C116 1.383 . S
C113 N112 1.376 . S
C113 C114 1.446 . S
C113 C143 1.391 . S
C114 C113 1.446 . S
C114 C115 1.339 . S
C114 H149 0.949 . S
C115 C114 1.339 . S
C115 C116 1.439 . S
C115 H150 0.950 . S
C116 N112 1.383 . S
C116 C115 1.439 . S
C116 C145 1.392 . S
N117 Co111 2.008 . S
N117 C118 1.376 . S
N117 C121 1.374 . S
C118 N117 1.376 . S
C118 C119 1.443 . S
C118 C145 1.389 . S
C119 C118 1.443 . S
C119 C120 1.340 . S
C119 H151 0.951 . S
C120 C119 1.340 . S
C120 C121 1.439 . S
C120 H152 0.950 . S
C121 N117 1.374 . S
C121 C120 1.439 . S
C121 C146 1.395 . S
N122 Co111 1.995 . S
N122 C123 1.376 . S
N122 C126 1.383 . S
C123 N122 1.376 . S
C123 C124 1.446 . S
C123 C146 1.391 . S
C124 C123 1.446 . S
C124 C125 1.339 . S
C124 H153 0.949 . S
C125 C124 1.339 . S
C125 C126 1.439 . S
C125 H154 0.950 . S
C126 N122 1.383 . S
C126 C125 1.439 . S
C126 C144 1.392 . S
N127 Co111 2.282 . S
N127 C130 1.332 . S
N127 C132 1.332 . S
C128 C129 1.386 . S
C128 C131 1.388 . S
C129 C128 1.386 . S
C129 C130 1.382 . S
C129 H155 0.950 . S
C130 N127 1.332 . S
C130 C129 1.382 . S
C130 H141 0.952 . S
C131 C128 1.388 . S
C131 C132 1.382 . S
C131 H156 0.950 . S
C132 N127 1.332 . S
C132 C131 1.382 . S
C132 H142 0.948 . S
N133 Co111 2.282 . S
N133 C137 1.332 . S
N133 C138 1.332 . S
C134 C135 1.388 1_554 S
C134 C138 1.382 . S
C134 H157 0.950 1_554 S
C135 C134 1.388 1_556 S
C135 C136 1.386 1_556 S
C136 C135 1.386 1_554 S
C136 C137 1.382 . S
C136 H158 0.950 1_554 S
C137 N133 1.332 . S
C137 C136 1.382 . S
C137 H139 0.952 . S
C138 N133 1.332 . S
C138 C134 1.382 . S
C138 H140 0.948 . S
H139 C137 0.952 . S
H140 C138 0.948 . S
H141 C130 0.952 . S
H142 C132 0.948 . S
C143 C109 1.395 . S
C143 C113 1.391 . S
C144 C106 1.389 . S
C144 C126 1.392 . S
C145 C116 1.392 . S
C145 C118 1.389 . S
C146 C121 1.395 . S
C146 C123 1.391 . S
H147 C107 0.951 . S
H148 C108 0.950 . S
H149 C114 0.949 . S
H150 C115 0.950 . S
H151 C119 0.951 . S
H152 C120 0.950 . S
H153 C124 0.949 . S
H154 C125 0.950 . S
H155 C129 0.950 . S
H156 C131 0.950 . S
H157 C134 0.950 1_556 S
H158 C136 0.950 1_556 S
C159 C160 1.443 . S
C159 N163 1.376 . S
C159 C197 1.389 . S
C160 C159 1.443 . S
C160 C161 1.340 . S
C160 H200 0.951 . S
C161 C160 1.340 . S
C161 C162 1.439 . S
C161 H201 0.950 . S
C162 C161 1.439 . S
C162 N163 1.374 . S
C162 C196 1.395 . S
N163 C159 1.376 . S
N163 C162 1.374 . S
N163 Co164 2.008 . S
Co164 N163 2.008 . S
Co164 N165 1.995 . S
Co164 N170 2.008 . S
Co164 N175 1.995 . S
Co164 N180 2.282 . S
Co164 N186 2.282 . S
N165 Co164 1.995 . S
N165 C166 1.376 . S
N165 C169 1.383 . S
C166 N165 1.376 . S
C166 C167 1.446 . S
C166 C196 1.391 . S
C167 C166 1.446 . S
C167 C168 1.339 . S
C167 H202 0.949 . S
C168 C167 1.339 . S
C168 C169 1.439 . S
C168 H203 0.950 . S
C169 N165 1.383 . S
C169 C168 1.439 . S
C169 C198 1.392 . S
N170 Co164 2.008 . S
N170 C171 1.376 . S
N170 C174 1.374 . S
C171 N170 1.376 . S
C171 C172 1.443 . S
C171 C198 1.389 . S
C172 C171 1.443 . S
C172 C173 1.340 . S
C172 H204 0.951 . S
C173 C172 1.340 . S
C173 C174 1.439 . S
C173 H205 0.950 . S
C174 N170 1.374 . S
C174 C173 1.439 . S
C174 C199 1.395 . S
N175 Co164 1.995 . S
N175 C176 1.376 . S
N175 C179 1.383 . S
C176 N175 1.376 . S
C176 C177 1.446 . S
C176 C199 1.391 . S
C177 C176 1.446 . S
C177 C178 1.339 . S
C177 H206 0.949 . S
C178 C177 1.339 . S
C178 C179 1.439 . S
C178 H207 0.950 . S
C179 N175 1.383 . S
C179 C178 1.439 . S
C179 C197 1.392 . S
N180 Co164 2.282 . S
N180 C183 1.332 . S
N180 C185 1.332 . S
C181 C182 1.386 . S
C181 C184 1.388 . S
C182 C181 1.386 . S
C182 C183 1.382 . S
C182 H208 0.950 . S
C183 N180 1.332 . S
C183 C182 1.382 . S
C183 H194 0.952 . S
C184 C181 1.388 . S
C184 C185 1.382 . S
C184 H209 0.950 . S
C185 N180 1.332 . S
C185 C184 1.382 . S
C185 H195 0.948 . S
N186 Co164 2.282 . S
N186 C190 1.332 . S
N186 C191 1.332 . S
C187 C188 1.388 . S
C187 C191 1.382 . S
C187 H210 0.950 . S
C188 C187 1.388 . S
C188 C189 1.386 . S
C189 C188 1.386 . S
C189 C190 1.382 . S
C189 H211 0.950 . S
C190 N186 1.332 . S
C190 C189 1.382 . S
C190 H192 0.952 . S
C191 N186 1.332 . S
C191 C187 1.382 . S
C191 H193 0.948 . S
H192 C190 0.952 . S
H193 C191 0.948 . S
H194 C183 0.952 . S
H195 C185 0.948 . S
C196 C162 1.395 . S
C196 C166 1.391 . S
C197 C159 1.389 . S
C197 C179 1.392 . S
C198 C169 1.392 . S
C198 C171 1.389 . S
C199 C174 1.395 . S
C199 C176 1.391 . S
H200 C160 0.951 . S
H201 C161 0.950 . S
H202 C167 0.949 . S
H203 C168 0.950 . S
H204 C172 0.951 . S
H205 C173 0.950 . S
H206 C177 0.949 . S
H207 C178 0.950 . S
H208 C182 0.950 . S
H209 C184 0.950 . S
H210 C187 0.950 . S
H211 C189 0.950 . S
C212 C213 1.443 . S
C212 N216 1.376 . S
C212 C250 1.389 . S
C213 C212 1.443 . S
C213 C214 1.340 . S
C213 H253 0.951 . S
C214 C213 1.340 . S
C214 C215 1.439 . S
C214 H254 0.950 . S
C215 C214 1.439 . S
C215 N216 1.374 . S
C215 C249 1.395 . S
N216 C212 1.376 . S
N216 C215 1.374 . S
N216 Co217 2.008 . S
Co217 N216 2.008 . S
Co217 N218 1.995 . S
Co217 N223 2.008 . S
Co217 N228 1.995 . S
Co217 N233 2.282 . S
Co217 N239 2.282 . S
N218 Co217 1.995 . S
N218 C219 1.376 . S
N218 C222 1.383 . S
C219 N218 1.376 . S
C219 C220 1.446 . S
C219 C249 1.391 . S
C220 C219 1.446 . S
C220 C221 1.339 . S
C220 H255 0.949 . S
C221 C220 1.339 . S
C221 C222 1.439 . S
C221 H256 0.950 . S
C222 N218 1.383 . S
C222 C221 1.439 . S
C222 C251 1.392 . S
N223 Co217 2.008 . S
N223 C224 1.376 . S
N223 C227 1.374 . S
C224 N223 1.376 . S
C224 C225 1.443 . S
C224 C251 1.389 . S
C225 C224 1.443 . S
C225 C226 1.340 . S
C225 H257 0.951 . S
C226 C225 1.340 . S
C226 C227 1.439 . S
C226 H258 0.950 . S
C227 N223 1.374 . S
C227 C226 1.439 . S
C227 C252 1.395 . S
N228 Co217 1.995 . S
N228 C229 1.376 . S
N228 C232 1.383 . S
C229 N228 1.376 . S
C229 C230 1.446 . S
C229 C252 1.391 . S
C230 C229 1.446 . S
C230 C231 1.339 . S
C230 H259 0.949 . S
C231 C230 1.339 . S
C231 C232 1.439 . S
C231 H260 0.950 . S
C232 N228 1.383 . S
C232 C231 1.439 . S
C232 C250 1.392 . S
N233 Co217 2.282 . S
N233 C236 1.332 . S
N233 C238 1.332 . S
C234 C235 1.386 . S
C234 C237 1.388 . S
C235 C234 1.386 . S
C235 C236 1.382 . S
C235 H261 0.950 . S
C236 N233 1.332 . S
C236 C235 1.382 . S
C236 H247 0.952 . S
C237 C234 1.388 . S
C237 C238 1.382 . S
C237 H262 0.950 . S
C238 N233 1.332 . S
C238 C237 1.382 . S
C238 H248 0.948 . S
N239 Co217 2.282 . S
N239 C243 1.332 . S
N239 C244 1.332 . S
C240 C241 1.388 . S
C240 C244 1.382 . S
C240 H263 0.950 . S
C241 C240 1.388 . S
C241 C242 1.386 . S
C242 C241 1.386 . S
C242 C243 1.382 . S
C242 H264 0.950 . S
C243 N239 1.332 . S
C243 C242 1.382 . S
C243 H245 0.952 . S
C244 N239 1.332 . S
C244 C240 1.382 . S
C244 H246 0.948 . S
H245 C243 0.952 . S
H246 C244 0.948 . S
H247 C236 0.952 . S
H248 C238 0.948 . S
C249 C215 1.395 . S
C249 C219 1.391 . S
C250 C212 1.389 . S
C250 C232 1.392 . S
C251 C222 1.392 . S
C251 C224 1.389 . S
C252 C227 1.395 . S
C252 C229 1.391 . S
H253 C213 0.951 . S
H254 C214 0.950 . S
H255 C220 0.949 . S
H256 C221 0.950 . S
H257 C225 0.951 . S
H258 C226 0.950 . S
H259 C230 0.949 . S
H260 C231 0.950 . S
H261 C235 0.950 . S
H262 C237 0.950 . S
H263 C240 0.950 . S
H264 C242 0.950 . S
C265 C266 1.443 . S
C265 N269 1.376 . S
C265 C303 1.389 . S
C266 C265 1.443 . S
C266 C267 1.340 . S
C266 H306 0.951 . S
C267 C266 1.340 . S
C267 C268 1.439 . S
C267 H307 0.950 . S
C268 C267 1.439 . S
C268 N269 1.374 . S
C268 C302 1.395 . S
N269 C265 1.376 . S
N269 C268 1.374 . S
N269 Co270 2.008 . S
Co270 N269 2.008 . S
Co270 N271 1.995 . S
Co270 N276 2.008 . S
Co270 N281 1.995 . S
Co270 N286 2.282 . S
Co270 N292 2.282 . S
N271 Co270 1.995 . S
N271 C272 1.376 . S
N271 C275 1.383 . S
C272 N271 1.376 . S
C272 C273 1.446 . S
C272 C302 1.391 . S
C273 C272 1.446 . S
C273 C274 1.339 . S
C273 H308 0.949 . S
C274 C273 1.339 . S
C274 C275 1.439 . S
C274 H309 0.950 . S
C275 N271 1.383 . S
C275 C274 1.439 . S
C275 C304 1.392 . S
N276 Co270 2.008 . S
N276 C277 1.376 . S
N276 C280 1.374 . S
C277 N276 1.376 . S
C277 C278 1.443 . S
C277 C304 1.389 . S
C278 C277 1.443 . S
C278 C279 1.340 . S
C278 H310 0.951 . S
C279 C278 1.340 . S
C279 C280 1.439 . S
C279 H311 0.950 . S
C280 N276 1.374 . S
C280 C279 1.439 . S
C280 C305 1.395 . S
N281 Co270 1.995 . S
N281 C282 1.376 . S
N281 C285 1.383 . S
C282 N281 1.376 . S
C282 C283 1.446 . S
C282 C305 1.391 . S
C283 C282 1.446 . S
C283 C284 1.339 . S
C283 H312 0.949 . S
C284 C283 1.339 . S
C284 C285 1.439 . S
C284 H313 0.950 . S
C285 N281 1.383 . S
C285 C284 1.439 . S
C285 C303 1.392 . S
N286 Co270 2.282 . S
N286 C289 1.332 . S
N286 C291 1.332 . S
C287 C288 1.386 . S
C287 C290 1.388 . S
C288 C287 1.386 . S
C288 C289 1.382 . S
C288 H314 0.950 . S
C289 N286 1.332 . S
C289 C288 1.382 . S
C289 H300 0.952 . S
C290 C287 1.388 . S
C290 C291 1.382 . S
C290 H315 0.950 . S
C291 N286 1.332 . S
C291 C290 1.382 . S
C291 H301 0.948 . S
N292 Co270 2.282 . S
N292 C296 1.332 . S
N292 C297 1.332 . S
C293 C294 1.388 . S
C293 C297 1.382 . S
C293 H316 0.950 . S
C294 C293 1.388 . S
C294 C295 1.386 . S
C295 C294 1.386 . S
C295 C296 1.382 . S
C295 H317 0.950 . S
C296 N292 1.332 . S
C296 C295 1.382 . S
C296 H298 0.952 . S
C297 N292 1.332 . S
C297 C293 1.382 . S
C297 H299 0.948 . S
H298 C296 0.952 . S
H299 C297 0.948 . S
H300 C289 0.952 . S
H301 C291 0.948 . S
C302 C268 1.395 . S
C302 C272 1.391 . S
C303 C265 1.389 . S
C303 C285 1.392 . S
C304 C275 1.392 . S
C304 C277 1.389 . S
C305 C280 1.395 . S
C305 C282 1.391 . S
H306 C266 0.951 . S
H307 C267 0.950 . S
H308 C273 0.949 . S
H309 C274 0.950 . S
H310 C278 0.951 . S
H311 C279 0.950 . S
H312 C283 0.949 . S
H313 C284 0.950 . S
H314 C288 0.950 . S
H315 C290 0.950 . S
H316 C293 0.950 . S
H317 C295 0.950 . S
C318 C319 1.443 . S
C318 N322 1.376 . S
C318 C356 1.389 . S
C319 C318 1.443 . S
C319 C320 1.340 . S
C319 H359 0.951 . S
C320 C319 1.340 . S
C320 C321 1.439 . S
C320 H360 0.950 . S
C321 C320 1.439 . S
C321 N322 1.374 . S
C321 C355 1.395 . S
N322 C318 1.376 . S
N322 C321 1.374 . S
N322 Co323 2.008 . S
Co323 N322 2.008 . S
Co323 N324 1.995 . S
Co323 N329 2.008 . S
Co323 N334 1.995 . S
Co323 N339 2.282 . S
Co323 N345 2.282 . S
N324 Co323 1.995 . S
N324 C325 1.376 . S
N324 C328 1.383 . S
C325 N324 1.376 . S
C325 C326 1.446 . S
C325 C355 1.391 . S
C326 C325 1.446 . S
C326 C327 1.339 . S
C326 H361 0.949 . S
C327 C326 1.339 . S
C327 C328 1.439 . S
C327 H362 0.950 . S
C328 N324 1.383 . S
C328 C327 1.439 . S
C328 C357 1.392 . S
N329 Co323 2.008 . S
N329 C330 1.376 . S
N329 C333 1.374 . S
C330 N329 1.376 . S
C330 C331 1.443 . S
C330 C357 1.389 . S
C331 C330 1.443 . S
C331 C332 1.340 . S
C331 H363 0.951 . S
C332 C331 1.340 . S
C332 C333 1.439 . S
C332 H364 0.950 . S
C333 N329 1.374 . S
C333 C332 1.439 . S
C333 C358 1.395 . S
N334 Co323 1.995 . S
N334 C335 1.376 . S
N334 C338 1.383 . S
C335 N334 1.376 . S
C335 C336 1.446 . S
C335 C358 1.391 . S
C336 C335 1.446 . S
C336 C337 1.339 . S
C336 H365 0.949 . S
C337 C336 1.339 . S
C337 C338 1.439 . S
C337 H366 0.950 . S
C338 N334 1.383 . S
C338 C337 1.439 . S
C338 C356 1.392 . S
N339 Co323 2.282 . S
N339 C342 1.332 . S
N339 C344 1.332 . S
C340 C341 1.386 . S
C340 C343 1.388 . S
C341 C340 1.386 . S
C341 C342 1.382 . S
C341 H367 0.950 . S
C342 N339 1.332 . S
C342 C341 1.382 . S
C342 H353 0.952 . S
C343 C340 1.388 . S
C343 C344 1.382 . S
C343 H368 0.950 . S
C344 N339 1.332 . S
C344 C343 1.382 . S
C344 H354 0.948 . S
N345 Co323 2.282 . S
N345 C349 1.332 . S
N345 C350 1.332 . S
C346 C347 1.388 1_556 S
C346 C350 1.382 . S
C346 H369 0.950 1_556 S
C347 C346 1.388 1_554 S
C347 C348 1.386 1_554 S
C348 C347 1.386 1_556 S
C348 C349 1.382 . S
C348 H370 0.950 1_556 S
C349 N345 1.332 . S
C349 C348 1.382 . S
C349 H351 0.952 . S
C350 N345 1.332 . S
C350 C346 1.382 . S
C350 H352 0.948 . S
H351 C349 0.952 . S
H352 C350 0.948 . S
H353 C342 0.952 . S
H354 C344 0.948 . S
C355 C321 1.395 . S
C355 C325 1.391 . S
C356 C318 1.389 . S
C356 C338 1.392 . S
C357 C328 1.392 . S
C357 C330 1.389 . S
C358 C333 1.395 . S
C358 C335 1.391 . S
H359 C319 0.951 . S
H360 C320 0.950 . S
H361 C326 0.949 . S
H362 C327 0.950 . S
H363 C331 0.951 . S
H364 C332 0.950 . S
H365 C336 0.949 . S
H366 C337 0.950 . S
H367 C341 0.950 . S
H368 C343 0.950 . S
H369 C346 0.950 1_554 S
H370 C348 0.950 1_554 S
C371 C372 1.443 . S
C371 N375 1.376 . S
C371 C409 1.389 . S
C372 C371 1.443 . S
C372 C373 1.340 . S
C372 H412 0.951 . S
C373 C372 1.340 . S
C373 C374 1.439 . S
C373 H413 0.950 . S
C374 C373 1.439 . S
C374 N375 1.374 . S
C374 C408 1.395 . S
N375 C371 1.376 . S
N375 C374 1.374 . S
N375 Co376 2.008 . S
Co376 N375 2.008 . S
Co376 N377 1.995 . S
Co376 N382 2.008 . S
Co376 N387 1.995 . S
Co376 N392 2.282 . S
Co376 N398 2.282 . S
N377 Co376 1.995 . S
N377 C378 1.376 . S
N377 C381 1.383 . S
C378 N377 1.376 . S
C378 C379 1.446 . S
C378 C408 1.391 . S
C379 C378 1.446 . S
C379 C380 1.339 . S
C379 H414 0.949 . S
C380 C379 1.339 . S
C380 C381 1.439 . S
C380 H415 0.950 . S
C381 N377 1.383 . S
C381 C380 1.439 . S
C381 C410 1.392 . S
N382 Co376 2.008 . S
N382 C383 1.376 . S
N382 C386 1.374 . S
C383 N382 1.376 . S
C383 C384 1.443 . S
C383 C410 1.389 . S
C384 C383 1.443 . S
C384 C385 1.340 . S
C384 H416 0.951 . S
C385 C384 1.340 . S
C385 C386 1.439 . S
C385 H417 0.950 . S
C386 N382 1.374 . S
C386 C385 1.439 . S
C386 C411 1.395 . S
N387 Co376 1.995 . S
N387 C388 1.376 . S
N387 C391 1.383 . S
C388 N387 1.376 . S
C388 C389 1.446 . S
C388 C411 1.391 . S
C389 C388 1.446 . S
C389 C390 1.339 . S
C389 H418 0.949 . S
C390 C389 1.339 . S
C390 C391 1.439 . S
C390 H419 0.950 . S
C391 N387 1.383 . S
C391 C390 1.439 . S
C391 C409 1.392 . S
N392 Co376 2.282 . S
N392 C395 1.332 . S
N392 C397 1.332 . S
C393 C394 1.386 . S
C393 C396 1.388 . S
C394 C393 1.386 . S
C394 C395 1.382 . S
C394 H420 0.950 . S
C395 N392 1.332 . S
C395 C394 1.382 . S
C395 H406 0.952 . S
C396 C393 1.388 . S
C396 C397 1.382 . S
C396 H421 0.950 . S
C397 N392 1.332 . S
C397 C396 1.382 . S
C397 H407 0.948 . S
N398 Co376 2.282 . S
N398 C402 1.332 . S
N398 C403 1.332 . S
C399 C400 1.388 1_556 S
C399 C403 1.382 . S
C399 H422 0.950 1_556 S
C400 C399 1.388 1_554 S
C400 C401 1.386 1_554 S
C401 C400 1.386 1_556 S
C401 C402 1.382 . S
C401 H423 0.950 1_556 S
C402 N398 1.332 . S
C402 C401 1.382 . S
C402 H404 0.952 . S
C403 N398 1.332 . S
C403 C399 1.382 . S
C403 H405 0.948 . S
H404 C402 0.952 . S
H405 C403 0.948 . S
H406 C395 0.952 . S
H407 C397 0.948 . S
C408 C374 1.395 . S
C408 C378 1.391 . S
C409 C371 1.389 . S
C409 C391 1.392 . S
C410 C381 1.392 . S
C410 C383 1.389 . S
C411 C386 1.395 . S
C411 C388 1.391 . S
H412 C372 0.951 . S
H413 C373 0.950 . S
H414 C379 0.949 . S
H415 C380 0.950 . S
H416 C384 0.951 . S
H417 C385 0.950 . S
H418 C389 0.949 . S
H419 C390 0.950 . S
H420 C394 0.950 . S
H421 C396 0.950 . S
H422 C399 0.950 1_554 S
H423 C401 0.950 1_554 S
C424 C425 1.443 . S
C424 N428 1.376 . S
C424 C462 1.389 . S
C425 C424 1.443 . S
C425 C426 1.340 . S
C425 H465 0.951 . S
C426 C425 1.340 . S
C426 C427 1.439 . S
C426 H466 0.950 . S
C427 C426 1.439 . S
C427 N428 1.374 . S
C427 C461 1.395 . S
N428 C424 1.376 . S
N428 C427 1.374 . S
N428 Co429 2.008 . S
Co429 N428 2.008 . S
Co429 N430 1.995 . S
Co429 N435 2.008 . S
Co429 N440 1.995 . S
Co429 N445 2.282 . S
Co429 N451 2.282 . S
N430 Co429 1.995 . S
N430 C431 1.376 . S
N430 C434 1.383 . S
C431 N430 1.376 . S
C431 C432 1.446 . S
C431 C461 1.391 . S
C432 C431 1.446 . S
C432 C433 1.339 . S
C432 H467 0.949 . S
C433 C432 1.339 . S
C433 C434 1.439 . S
C433 H468 0.950 . S
C434 N430 1.383 . S
C434 C433 1.439 . S
C434 C463 1.392 . S
N435 Co429 2.008 . S
N435 C436 1.376 . S
N435 C439 1.374 . S
C436 N435 1.376 . S
C436 C437 1.443 . S
C436 C463 1.389 . S
C437 C436 1.443 . S
C437 C438 1.340 . S
C437 H469 0.951 . S
C438 C437 1.340 . S
C438 C439 1.439 . S
C438 H470 0.950 . S
C439 N435 1.374 . S
C439 C438 1.439 . S
C439 C464 1.395 . S
N440 Co429 1.995 . S
N440 C441 1.376 . S
N440 C444 1.383 . S
C441 N440 1.376 . S
C441 C442 1.446 . S
C441 C464 1.391 . S
C442 C441 1.446 . S
C442 C443 1.339 . S
C442 H471 0.949 . S
C443 C442 1.339 . S
C443 C444 1.439 . S
C443 H472 0.950 . S
C444 N440 1.383 . S
C444 C443 1.439 . S
C444 C462 1.392 . S
N445 Co429 2.282 . S
N445 C448 1.332 . S
N445 C450 1.332 . S
C446 C447 1.386 . S
C446 C449 1.388 . S
C447 C446 1.386 . S
C447 C448 1.382 . S
C447 H473 0.950 . S
C448 N445 1.332 . S
C448 C447 1.382 . S
C448 H459 0.952 . S
C449 C446 1.388 . S
C449 C450 1.382 . S
C449 H474 0.950 . S
C450 N445 1.332 . S
C450 C449 1.382 . S
C450 H460 0.948 . S
N451 Co429 2.282 . S
N451 C455 1.332 . S
N451 C456 1.332 . S
C452 C453 1.388 1_556 S
C452 C456 1.382 . S
C452 H475 0.950 1_556 S
C453 C452 1.388 1_554 S
C453 C454 1.386 1_554 S
C454 C453 1.386 1_556 S
C454 C455 1.382 . S
C454 H476 0.950 1_556 S
C455 N451 1.332 . S
C455 C454 1.382 . S
C455 H457 0.952 . S
C456 N451 1.332 . S
C456 C452 1.382 . S
C456 H458 0.948 . S
H457 C455 0.952 . S
H458 C456 0.948 . S
H459 C448 0.952 . S
H460 C450 0.948 . S
C461 C427 1.395 . S
C461 C431 1.391 . S
C462 C424 1.389 . S
C462 C444 1.392 . S
C463 C434 1.392 . S
C463 C436 1.389 . S
C464 C439 1.395 . S
C464 C441 1.391 . S
H465 C425 0.951 . S
H466 C426 0.950 . S
H467 C432 0.949 . S
H468 C433 0.950 . S
H469 C437 0.951 . S
H470 C438 0.950 . S
H471 C442 0.949 . S
H472 C443 0.950 . S
H473 C447 0.950 . S
H474 C449 0.950 . S
H475 C452 0.950 1_554 S
H476 C454 0.950 1_554 S
C477 C478 1.443 . S
C477 N481 1.376 . S
C477 C515 1.389 . S
C478 C477 1.443 . S
C478 C479 1.340 . S
C478 H518 0.951 . S
C479 C478 1.340 . S
C479 C480 1.439 . S
C479 H519 0.950 . S
C480 C479 1.439 . S
C480 N481 1.374 . S
C480 C514 1.395 . S
N481 C477 1.376 . S
N481 C480 1.374 . S
N481 Co482 2.008 . S
Co482 N481 2.008 . S
Co482 N483 1.995 . S
Co482 N488 2.008 . S
Co482 N493 1.995 . S
Co482 N498 2.282 . S
Co482 N504 2.282 . S
N483 Co482 1.995 . S
N483 C484 1.376 . S
N483 C487 1.383 . S
C484 N483 1.376 . S
C484 C485 1.446 . S
C484 C514 1.391 . S
C485 C484 1.446 . S
C485 C486 1.339 . S
C485 H520 0.949 . S
C486 C485 1.339 . S
C486 C487 1.439 . S
C486 H521 0.950 . S
C487 N483 1.383 . S
C487 C486 1.439 . S
C487 C516 1.392 . S
N488 Co482 2.008 . S
N488 C489 1.376 . S
N488 C492 1.374 . S
C489 N488 1.376 . S
C489 C490 1.443 . S
C489 C516 1.389 . S
C490 C489 1.443 . S
C490 C491 1.340 . S
C490 H522 0.951 . S
C491 C490 1.340 . S
C491 C492 1.439 . S
C491 H523 0.950 . S
C492 N488 1.374 . S
C492 C491 1.439 . S
C492 C517 1.395 . S
N493 Co482 1.995 . S
N493 C494 1.376 . S
N493 C497 1.383 . S
C494 N493 1.376 . S
C494 C495 1.446 . S
C494 C517 1.391 . S
C495 C494 1.446 . S
C495 C496 1.339 . S
C495 H524 0.949 . S
C496 C495 1.339 . S
C496 C497 1.439 . S
C496 H525 0.950 . S
C497 N493 1.383 . S
C497 C496 1.439 . S
C497 C515 1.392 . S
N498 Co482 2.282 . S
N498 C501 1.332 . S
N498 C503 1.332 . S
C499 C500 1.386 . S
C499 C502 1.388 . S
C500 C499 1.386 . S
C500 C501 1.382 . S
C500 H526 0.950 . S
C501 N498 1.332 . S
C501 C500 1.382 . S
C501 H512 0.952 . S
C502 C499 1.388 . S
C502 C503 1.382 . S
C502 H527 0.950 . S
C503 N498 1.332 . S
C503 C502 1.382 . S
C503 H513 0.948 . S
N504 Co482 2.282 . S
N504 C508 1.332 . S
N504 C509 1.332 . S
C505 C506 1.388 . S
C505 C509 1.382 . S
C505 H528 0.950 . S
C506 C505 1.388 . S
C506 C507 1.386 . S
C507 C506 1.386 . S
C507 C508 1.382 . S
C507 H529 0.950 . S
C508 N504 1.332 . S
C508 C507 1.382 . S
C508 H510 0.952 . S
C509 N504 1.332 . S
C509 C505 1.382 . S
C509 H511 0.948 . S
H510 C508 0.952 . S
H511 C509 0.948 . S
H512 C501 0.952 . S
H513 C503 0.948 . S
C514 C480 1.395 . S
C514 C484 1.391 . S
C515 C477 1.389 . S
C515 C497 1.392 . S
C516 C487 1.392 . S
C516 C489 1.389 . S
C517 C492 1.395 . S
C517 C494 1.391 . S
H518 C478 0.951 . S
H519 C479 0.950 . S
H520 C485 0.949 . S
H521 C486 0.950 . S
H522 C490 0.951 . S
H523 C491 0.950 . S
H524 C495 0.949 . S
H525 C496 0.950 . S
H526 C500 0.950 . S
H527 C502 0.950 . S
H528 C505 0.950 . S
H529 C507 0.950 . S
C530 C531 1.443 . S
C530 N534 1.376 . S
C530 C568 1.389 . S
C531 C530 1.443 . S
C531 C532 1.340 . S
C531 H571 0.951 . S
C532 C531 1.340 . S
C532 C533 1.439 . S
C532 H572 0.950 . S
C533 C532 1.439 . S
C533 N534 1.374 . S
C533 C567 1.395 . S
N534 C530 1.376 . S
N534 C533 1.374 . S
N534 Co535 2.008 . S
Co535 N534 2.008 . S
Co535 N536 1.995 . S
Co535 N541 2.008 . S
Co535 N546 1.995 . S
Co535 N551 2.282 . S
Co535 N557 2.282 . S
N536 Co535 1.995 . S
N536 C537 1.376 . S
N536 C540 1.383 . S
C537 N536 1.376 . S
C537 C538 1.446 . S
C537 C567 1.391 . S
C538 C537 1.446 . S
C538 C539 1.339 . S
C538 H573 0.949 . S
C539 C538 1.339 . S
C539 C540 1.439 . S
C539 H574 0.950 . S
C540 N536 1.383 . S
C540 C539 1.439 . S
C540 C569 1.392 . S
N541 Co535 2.008 . S
N541 C542 1.376 . S
N541 C545 1.374 . S
C542 N541 1.376 . S
C542 C543 1.443 . S
C542 C569 1.389 . S
C543 C542 1.443 . S
C543 C544 1.340 . S
C543 H575 0.951 . S
C544 C543 1.340 . S
C544 C545 1.439 . S
C544 H576 0.950 . S
C545 N541 1.374 . S
C545 C544 1.439 . S
C545 C570 1.395 . S
N546 Co535 1.995 . S
N546 C547 1.376 . S
N546 C550 1.383 . S
C547 N546 1.376 . S
C547 C548 1.446 . S
C547 C570 1.391 . S
C548 C547 1.446 . S
C548 C549 1.339 . S
C548 H577 0.949 . S
C549 C548 1.339 . S
C549 C550 1.439 . S
C549 H578 0.950 . S
C550 N546 1.383 . S
C550 C549 1.439 . S
C550 C568 1.392 . S
N551 Co535 2.282 . S
N551 C554 1.332 . S
N551 C556 1.332 . S
C552 C553 1.386 . S
C552 C555 1.388 . S
C553 C552 1.386 . S
C553 C554 1.382 . S
C553 H579 0.950 . S
C554 N551 1.332 . S
C554 C553 1.382 . S
C554 H565 0.952 . S
C555 C552 1.388 . S
C555 C556 1.382 . S
C555 H580 0.950 . S
C556 N551 1.332 . S
C556 C555 1.382 . S
C556 H566 0.948 . S
N557 Co535 2.282 . S
N557 C561 1.332 . S
N557 C562 1.332 . S
C558 C559 1.388 . S
C558 C562 1.382 . S
C558 H581 0.950 . S
C559 C558 1.388 . S
C559 C560 1.386 . S
C560 C559 1.386 . S
C560 C561 1.382 . S
C560 H582 0.950 . S
C561 N557 1.332 . S
C561 C560 1.382 . S
C561 H563 0.952 . S
C562 N557 1.332 . S
C562 C558 1.382 . S
C562 H564 0.948 . S
H563 C561 0.952 . S
H564 C562 0.948 . S
H565 C554 0.952 . S
H566 C556 0.948 . S
C567 C533 1.395 . S
C567 C537 1.391 . S
C568 C530 1.389 . S
C568 C550 1.392 . S
C569 C540 1.392 . S
C569 C542 1.389 . S
C570 C545 1.395 . S
C570 C547 1.391 . S
H571 C531 0.951 . S
H572 C532 0.950 . S
H573 C538 0.949 . S
H574 C539 0.950 . S
H575 C543 0.951 . S
H576 C544 0.950 . S
H577 C548 0.949 . S
H578 C549 0.950 . S
H579 C553 0.950 . S
H580 C555 0.950 . S
H581 C558 0.950 . S
H582 C560 0.950 . S
C583 C584 1.443 . S
C583 N587 1.376 . S
C583 C621 1.389 . S
C584 C583 1.443 . S
C584 C585 1.340 . S
C584 H624 0.951 . S
C585 C584 1.340 . S
C585 C586 1.439 . S
C585 H625 0.950 . S
C586 C585 1.439 . S
C586 N587 1.374 . S
C586 C620 1.395 . S
N587 C583 1.376 . S
N587 C586 1.374 . S
N587 Co588 2.008 . S
Co588 N587 2.008 . S
Co588 N589 1.995 . S
Co588 N594 2.008 . S
Co588 N599 1.995 . S
Co588 N604 2.282 . S
Co588 N610 2.282 . S
N589 Co588 1.995 . S
N589 C590 1.376 . S
N589 C593 1.383 . S
C590 N589 1.376 . S
C590 C591 1.446 . S
C590 C620 1.391 . S
C591 C590 1.446 . S
C591 C592 1.339 . S
C591 H626 0.949 . S
C592 C591 1.339 . S
C592 C593 1.439 . S
C592 H627 0.950 . S
C593 N589 1.383 . S
C593 C592 1.439 . S
C593 C622 1.392 . S
N594 Co588 2.008 . S
N594 C595 1.376 . S
N594 C598 1.374 . S
C595 N594 1.376 . S
C595 C596 1.443 . S
C595 C622 1.389 . S
C596 C595 1.443 . S
C596 C597 1.340 . S
C596 H628 0.951 . S
C597 C596 1.340 . S
C597 C598 1.439 . S
C597 H629 0.950 . S
C598 N594 1.374 . S
C598 C597 1.439 . S
C598 C623 1.395 . S
N599 Co588 1.995 . S
N599 C600 1.376 . S
N599 C603 1.383 . S
C600 N599 1.376 . S
C600 C601 1.446 . S
C600 C623 1.391 . S
C601 C600 1.446 . S
C601 C602 1.339 . S
C601 H630 0.949 . S
C602 C601 1.339 . S
C602 C603 1.439 . S
C602 H631 0.950 . S
C603 N599 1.383 . S
C603 C602 1.439 . S
C603 C621 1.392 . S
N604 Co588 2.282 . S
N604 C607 1.332 . S
N604 C609 1.332 . S
C605 C606 1.386 . S
C605 C608 1.388 . S
C606 C605 1.386 . S
C606 C607 1.382 . S
C606 H632 0.950 . S
C607 N604 1.332 . S
C607 C606 1.382 . S
C607 H618 0.952 . S
C608 C605 1.388 . S
C608 C609 1.382 . S
C608 H633 0.950 . S
C609 N604 1.332 . S
C609 C608 1.382 . S
C609 H619 0.948 . S
N610 Co588 2.282 . S
N610 C614 1.332 . S
N610 C615 1.332 . S
C611 C612 1.388 . S
C611 C615 1.382 . S
C611 H634 0.950 . S
C612 C611 1.388 . S
C612 C613 1.386 . S
C613 C612 1.386 . S
C613 C614 1.382 . S
C613 H635 0.950 . S
C614 N610 1.332 . S
C614 C613 1.382 . S
C614 H616 0.952 . S
C615 N610 1.332 . S
C615 C611 1.382 . S
C615 H617 0.948 . S
H616 C614 0.952 . S
H617 C615 0.948 . S
H618 C607 0.952 . S
H619 C609 0.948 . S
C620 C586 1.395 . S
C620 C590 1.391 . S
C621 C583 1.389 . S
C621 C603 1.392 . S
C622 C593 1.392 . S
C622 C595 1.389 . S
C623 C598 1.395 . S
C623 C600 1.391 . S
H624 C584 0.951 . S
H625 C585 0.950 . S
H626 C591 0.949 . S
H627 C592 0.950 . S
H628 C596 0.951 . S
H629 C597 0.950 . S
H630 C601 0.949 . S
H631 C602 0.950 . S
H632 C606 0.950 . S
H633 C608 0.950 . S
H634 C611 0.950 . S
H635 C613 0.950 . S
C636 C637 1.443 . S
C636 N640 1.376 . S
C636 C674 1.389 . S
C637 C636 1.443 . S
C637 C638 1.340 . S
C637 H677 0.951 . S
C638 C637 1.340 . S
C638 C639 1.439 . S
C638 H678 0.950 . S
C639 C638 1.439 . S
C639 N640 1.374 . S
C639 C673 1.395 . S
N640 C636 1.376 . S
N640 C639 1.374 . S
N640 Co641 2.008 . S
Co641 N640 2.008 . S
Co641 N642 1.995 . S
Co641 N647 2.008 1_455 S
Co641 N652 1.995 1_455 S
Co641 N657 2.282 . S
Co641 N663 2.288 . S
N642 Co641 1.995 . S
N642 C643 1.376 . S
N642 C646 1.383 . S
C643 N642 1.376 . S
C643 C644 1.446 . S
C643 C673 1.391 . S
C644 C643 1.446 . S
C644 C645 1.339 . S
C644 H679 0.949 . S
C645 C644 1.339 . S
C645 C646 1.439 . S
C645 H680 0.950 . S
C646 N642 1.383 . S
C646 C645 1.439 . S
C646 C675 1.392 1_455 S
N647 Co641 2.008 1_655 S
N647 C648 1.376 . S
N647 C651 1.374 . S
C648 N647 1.376 . S
C648 C649 1.443 . S
C648 C675 1.389 . S
C649 C648 1.443 . S
C649 C650 1.340 . S
C649 H681 0.951 . S
C650 C649 1.340 . S
C650 C651 1.439 . S
C650 H682 0.950 . S
C651 N647 1.374 . S
C651 C650 1.439 . S
C651 C676 1.395 . S
N652 Co641 1.995 1_655 S
N652 C653 1.376 . S
N652 C656 1.383 . S
C653 N652 1.376 . S
C653 C654 1.446 . S
C653 C676 1.391 . S
C654 C653 1.446 . S
C654 C655 1.339 . S
C654 H683 0.949 . S
C655 C654 1.339 . S
C655 C656 1.439 . S
C655 H684 0.950 . S
C656 N652 1.383 . S
C656 C655 1.439 . S
C656 C674 1.392 1_655 S
N657 Co641 2.282 . S
N657 C660 1.332 1_455 S
N657 C662 1.332 . S
C658 C659 1.386 1_455 S
C658 C661 1.388 . S
C659 C658 1.386 1_655 S
C659 C660 1.382 . S
C659 H685 0.950 . S
C660 N657 1.332 1_655 S
C660 C659 1.382 . S
C660 H671 0.952 . S
C661 C658 1.388 . S
C661 C662 1.382 . S
C661 H686 0.950 . S
C662 N657 1.332 . S
C662 C661 1.382 . S
C662 H672 0.948 . S
N663 Co641 2.288 . S
N663 C667 1.358 . S
N663 C668 1.314 1_455 S
C664 C665 1.388 1_655 S
C664 C668 1.382 . S
C664 H687 0.950 . S
C665 C664 1.388 1_455 S
C665 C666 1.386 . S
C666 C665 1.386 . S
C666 C667 1.382 . S
C666 H688 0.950 . S
C667 N663 1.358 . S
C667 C666 1.382 . S
C667 H669 0.952 . S
C668 N663 1.314 1_655 S
C668 C664 1.382 . S
C668 H670 0.948 . S
H669 C667 0.952 . S
H670 C668 0.948 . S
H671 C660 0.952 . S
H672 C662 0.948 . S
C673 C639 1.395 . S
C673 C643 1.391 . S
C674 C636 1.389 . S
C674 C656 1.392 1_455 S
C675 C646 1.392 1_655 S
C675 C648 1.389 . S
C676 C651 1.395 . S
C676 C653 1.391 . S
H677 C637 0.951 . S
H678 C638 0.950 . S
H679 C644 0.949 . S
H680 C645 0.950 . S
H681 C649 0.951 . S
H682 C650 0.950 . S
H683 C654 0.949 . S
H684 C655 0.950 . S
H685 C659 0.950 . S
H686 C661 0.950 . S
H687 C664 0.950 . S
H688 C666 0.950 . S
C689 C690 1.443 . S
C689 N693 1.376 . S
C689 C727 1.389 . S
C690 C689 1.443 . S
C690 C691 1.340 . S
C690 H730 0.951 . S
C691 C690 1.340 . S
C691 C692 1.439 . S
C691 H731 0.950 . S
C692 C691 1.439 . S
C692 N693 1.374 . S
C692 C726 1.395 . S
N693 C689 1.376 . S
N693 C692 1.374 . S
N693 Co694 2.008 . S
Co694 N693 2.008 . S
Co694 N695 1.995 . S
Co694 N700 2.008 . S
Co694 N705 1.995 . S
Co694 N710 2.282 . S
Co694 N716 2.282 . S
N695 Co694 1.995 . S
N695 C696 1.376 . S
N695 C699 1.383 . S
C696 N695 1.376 . S
C696 C697 1.446 . S
C696 C726 1.391 . S
C697 C696 1.446 . S
C697 C698 1.339 . S
C697 H732 0.949 . S
C698 C697 1.339 . S
C698 C699 1.439 . S
C698 H733 0.950 . S
C699 N695 1.383 . S
C699 C698 1.439 . S
C699 C728 1.392 . S
N700 Co694 2.008 . S
N700 C701 1.376 . S
N700 C704 1.374 . S
C701 N700 1.376 . S
C701 C702 1.443 . S
C701 C728 1.389 . S
C702 C701 1.443 . S
C702 C703 1.340 . S
C702 H734 0.951 . S
C703 C702 1.340 . S
C703 C704 1.439 . S
C703 H735 0.950 . S
C704 N700 1.374 . S
C704 C703 1.439 . S
C704 C729 1.395 . S
N705 Co694 1.995 . S
N705 C706 1.376 . S
N705 C709 1.383 . S
C706 N705 1.376 . S
C706 C707 1.446 . S
C706 C729 1.391 . S
C707 C706 1.446 . S
C707 C708 1.339 . S
C707 H736 0.949 . S
C708 C707 1.339 . S
C708 C709 1.439 . S
C708 H737 0.950 . S
C709 N705 1.383 . S
C709 C708 1.439 . S
C709 C727 1.392 . S
N710 Co694 2.282 . S
N710 C713 1.332 . S
N710 C715 1.332 . S
C711 C712 1.386 . S
C711 C714 1.388 . S
C712 C711 1.386 . S
C712 C713 1.382 . S
C712 H738 0.950 . S
C713 N710 1.332 . S
C713 C712 1.382 . S
C713 H724 0.952 . S
C714 C711 1.388 . S
C714 C715 1.382 . S
C714 H739 0.950 . S
C715 N710 1.332 . S
C715 C714 1.382 . S
C715 H725 0.948 . S
N716 Co694 2.282 . S
N716 C720 1.332 . S
N716 C721 1.332 . S
C717 C718 1.388 . S
C717 C721 1.382 . S
C717 H740 0.950 . S
C718 C717 1.388 . S
C718 C719 1.386 . S
C719 C718 1.386 . S
C719 C720 1.382 . S
C719 H741 0.950 . S
C720 N716 1.332 . S
C720 C719 1.382 . S
C720 H722 0.952 . S
C721 N716 1.332 . S
C721 C717 1.382 . S
C721 H723 0.948 . S
H722 C720 0.952 . S
H723 C721 0.948 . S
H724 C713 0.952 . S
H725 C715 0.948 . S
C726 C692 1.395 . S
C726 C696 1.391 . S
C727 C689 1.389 . S
C727 C709 1.392 . S
C728 C699 1.392 . S
C728 C701 1.389 . S
C729 C704 1.395 . S
C729 C706 1.391 . S
H730 C690 0.951 . S
H731 C691 0.950 . S
H732 C697 0.949 . S
H733 C698 0.950 . S
H734 C702 0.951 . S
H735 C703 0.950 . S
H736 C707 0.949 . S
H737 C708 0.950 . S
H738 C712 0.950 . S
H739 C714 0.950 . S
H740 C717 0.950 . S
H741 C719 0.950 . S
C742 C743 1.443 . S
C742 N746 1.376 . S
C742 C780 1.389 . S
C743 C742 1.443 . S
C743 C744 1.340 . S
C743 H783 0.951 . S
C744 C743 1.340 . S
C744 C745 1.439 . S
C744 H784 0.950 . S
C745 C744 1.439 . S
C745 N746 1.374 . S
C745 C779 1.395 . S
N746 C742 1.376 . S
N746 C745 1.374 . S
N746 Co747 2.008 . S
Co747 N746 2.008 . S
Co747 N748 1.995 . S
Co747 N753 2.008 1_565 S
Co747 N758 1.995 1_565 S
Co747 N763 2.282 . S
Co747 N769 2.284 . S
N748 Co747 1.995 . S
N748 C749 1.376 . S
N748 C752 1.383 . S
C749 N748 1.376 . S
C749 C750 1.446 . S
C749 C779 1.391 . S
C750 C749 1.446 . S
C750 C751 1.339 . S
C750 H785 0.949 . S
C751 C750 1.339 . S
C751 C752 1.439 . S
C751 H786 0.950 . S
C752 N748 1.383 . S
C752 C751 1.439 . S
C752 C781 1.392 1_565 S
N753 Co747 2.008 1_545 S
N753 C754 1.376 . S
N753 C757 1.374 . S
C754 N753 1.376 . S
C754 C755 1.443 . S
C754 C781 1.389 . S
C755 C754 1.443 . S
C755 C756 1.340 . S
C755 H787 0.951 . S
C756 C755 1.340 . S
C756 C757 1.439 . S
C756 H788 0.950 . S
C757 N753 1.374 . S
C757 C756 1.439 . S
C757 C782 1.395 . S
N758 Co747 1.995 1_545 S
N758 C759 1.376 . S
N758 C762 1.383 . S
C759 N758 1.376 . S
C759 C760 1.446 . S
C759 C782 1.391 . S
C760 C759 1.446 . S
C760 C761 1.339 . S
C760 H789 0.949 . S
C761 C760 1.339 . S
C761 C762 1.439 . S
C761 H790 0.950 . S
C762 N758 1.383 . S
C762 C761 1.439 . S
C762 C780 1.392 1_545 S
N763 Co747 2.282 . S
N763 C766 1.332 1_565 S
N763 C768 1.332 . S
C764 C765 1.386 1_565 S
C764 C767 1.388 . S
C765 C764 1.386 1_545 S
C765 C766 1.382 . S
C765 H791 0.950 . S
C766 N763 1.332 1_545 S
C766 C765 1.382 . S
C766 H777 0.952 . S
C767 C764 1.388 . S
C767 C768 1.382 . S
C767 H792 0.950 . S
C768 N763 1.332 . S
C768 C767 1.382 . S
C768 H778 0.948 . S
N769 Co747 2.284 . S
N769 C773 1.370 . S
N769 C774 1.294 1_565 S
C770 C771 1.388 1_545 S
C770 C774 1.382 . S
C770 H793 0.950 . S
C771 C770 1.388 1_565 S
C771 C772 1.386 . S
C772 C771 1.386 . S
C772 C773 1.382 . S
C772 H794 0.950 . S
C773 N769 1.370 . S
C773 C772 1.382 . S
C773 H775 0.952 . S
C774 N769 1.294 1_545 S
C774 C770 1.382 . S
C774 H776 0.948 . S
H775 C773 0.952 . S
H776 C774 0.948 . S
H777 C766 0.952 . S
H778 C768 0.948 . S
C779 C745 1.395 . S
C779 C749 1.391 . S
C780 C742 1.389 . S
C780 C762 1.392 1_565 S
C781 C752 1.392 1_545 S
C781 C754 1.389 . S
C782 C757 1.395 . S
C782 C759 1.391 . S
H783 C743 0.951 . S
H784 C744 0.950 . S
H785 C750 0.949 . S
H786 C751 0.950 . S
H787 C755 0.951 . S
H788 C756 0.950 . S
H789 C760 0.949 . S
H790 C761 0.950 . S
H791 C765 0.950 . S
H792 C767 0.950 . S
H793 C770 0.950 . S
H794 C772 0.950 . S
C795 C796 1.443 . S
C795 N799 1.376 . S
C795 C833 1.389 . S
C796 C795 1.443 . S
C796 C797 1.340 . S
C796 H836 0.951 . S
C797 C796 1.340 . S
C797 C798 1.439 . S
C797 H837 0.950 . S
C798 C797 1.439 . S
C798 N799 1.374 . S
C798 C832 1.395 . S
N799 C795 1.376 . S
N799 C798 1.374 . S
N799 Co800 2.008 . S
Co800 N799 2.008 . S
Co800 N801 1.995 . S
Co800 N806 2.008 . S
Co800 N811 1.995 . S
Co800 N816 2.282 . S
Co800 N822 2.282 . S
N801 Co800 1.995 . S
N801 C802 1.376 . S
N801 C805 1.383 . S
C802 N801 1.376 . S
C802 C803 1.446 . S
C802 C832 1.391 . S
C803 C802 1.446 . S
C803 C804 1.339 . S
C803 H838 0.949 . S
C804 C803 1.339 . S
C804 C805 1.439 . S
C804 H839 0.950 . S
C805 N801 1.383 . S
C805 C804 1.439 . S
C805 C834 1.392 . S
N806 Co800 2.008 . S
N806 C807 1.376 . S
N806 C810 1.374 . S
C807 N806 1.376 . S
C807 C808 1.443 . S
C807 C834 1.389 . S
C808 C807 1.443 . S
C808 C809 1.340 . S
C808 H840 0.951 . S
C809 C808 1.340 . S
C809 C810 1.439 . S
C809 H841 0.950 . S
C810 N806 1.374 . S
C810 C809 1.439 . S
C810 C835 1.395 . S
N811 Co800 1.995 . S
N811 C812 1.376 . S
N811 C815 1.383 . S
C812 N811 1.376 . S
C812 C813 1.446 . S
C812 C835 1.391 . S
C813 C812 1.446 . S
C813 C814 1.339 . S
C813 H842 0.949 . S
C814 C813 1.339 . S
C814 C815 1.439 . S
C814 H843 0.950 . S
C815 N811 1.383 . S
C815 C814 1.439 . S
C815 C833 1.392 . S
N816 Co800 2.282 . S
N816 C819 1.332 . S
N816 C821 1.332 . S
C817 C818 1.386 . S
C817 C820 1.388 . S
C818 C817 1.386 . S
C818 C819 1.382 . S
C818 H844 0.950 . S
C819 N816 1.332 . S
C819 C818 1.382 . S
C819 H830 0.952 . S
C820 C817 1.388 . S
C820 C821 1.382 . S
C820 H845 0.950 . S
C821 N816 1.332 . S
C821 C820 1.382 . S
C821 H831 0.948 . S
N822 Co800 2.282 . S
N822 C826 1.332 . S
N822 C827 1.332 . S
C823 C824 1.388 . S
C823 C827 1.382 . S
C823 H846 0.950 . S
C824 C823 1.388 . S
C824 C825 1.386 . S
C825 C824 1.386 . S
C825 C826 1.382 . S
C825 H847 0.950 . S
C826 N822 1.332 . S
C826 C825 1.382 . S
C826 H828 0.952 . S
C827 N822 1.332 . S
C827 C823 1.382 . S
C827 H829 0.948 . S
H828 C826 0.952 . S
H829 C827 0.948 . S
H830 C819 0.952 . S
H831 C821 0.948 . S
C832 C798 1.395 . S
C832 C802 1.391 . S
C833 C795 1.389 . S
C833 C815 1.392 . S
C834 C805 1.392 . S
C834 C807 1.389 . S
C835 C810 1.395 . S
C835 C812 1.391 . S
H836 C796 0.951 . S
H837 C797 0.950 . S
H838 C803 0.949 . S
H839 C804 0.950 . S
H840 C808 0.951 . S
H841 C809 0.950 . S
H842 C813 0.949 . S
H843 C814 0.950 . S
H844 C818 0.950 . S
H845 C820 0.950 . S
H846 C823 0.950 . S
H847 C825 0.950 . S
C848 C849 1.443 . S
C848 N852 1.376 . S
C848 C886 1.389 . S
C849 C848 1.443 . S
C849 C850 1.340 . S
C849 H889 0.951 . S
C850 C849 1.340 . S
C850 C851 1.439 . S
C850 H890 0.950 . S
C851 C850 1.439 . S
C851 N852 1.374 . S
C851 C885 1.395 . S
N852 C848 1.376 . S
N852 C851 1.374 . S
N852 Co853 2.008 . S
Co853 N852 2.008 . S
Co853 N854 1.995 . S
Co853 N859 2.008 . S
Co853 N864 1.995 . S
Co853 N869 2.282 . S
Co853 N875 2.282 . S
N854 Co853 1.995 . S
N854 C855 1.376 . S
N854 C858 1.383 . S
C855 N854 1.376 . S
C855 C856 1.446 . S
C855 C885 1.391 . S
C856 C855 1.446 . S
C856 C857 1.339 . S
C856 H891 0.949 . S
C857 C856 1.339 . S
C857 C858 1.439 . S
C857 H892 0.950 . S
C858 N854 1.383 . S
C858 C857 1.439 . S
C858 C887 1.392 . S
N859 Co853 2.008 . S
N859 C860 1.376 . S
N859 C863 1.374 . S
C860 N859 1.376 . S
C860 C861 1.443 . S
C860 C887 1.389 . S
C861 C860 1.443 . S
C861 C862 1.340 . S
C861 H893 0.951 . S
C862 C861 1.340 . S
C862 C863 1.439 . S
C862 H894 0.950 . S
C863 N859 1.374 . S
C863 C862 1.439 . S
C863 C888 1.395 . S
N864 Co853 1.995 . S
N864 C865 1.376 . S
N864 C868 1.383 . S
C865 N864 1.376 . S
C865 C866 1.446 . S
C865 C888 1.391 . S
C866 C865 1.446 . S
C866 C867 1.339 . S
C866 H895 0.949 . S
C867 C866 1.339 . S
C867 C868 1.439 . S
C867 H896 0.950 . S
C868 N864 1.383 . S
C868 C867 1.439 . S
C868 C886 1.392 . S
N869 Co853 2.282 . S
N869 C872 1.332 . S
N869 C874 1.332 . S
C870 C871 1.386 . S
C870 C873 1.388 . S
C871 C870 1.386 . S
C871 C872 1.382 . S
C871 H897 0.950 . S
C872 N869 1.332 . S
C872 C871 1.382 . S
C872 H883 0.952 . S
C873 C870 1.388 . S
C873 C874 1.382 . S
C873 H898 0.950 . S
C874 N869 1.332 . S
C874 C873 1.382 . S
C874 H884 0.948 . S
N875 Co853 2.282 . S
N875 C879 1.332 . S
N875 C880 1.332 . S
C876 C877 1.388 . S
C876 C880 1.382 . S
C876 H899 0.950 . S
C877 C876 1.388 . S
C877 C878 1.386 . S
C878 C877 1.386 . S
C878 C879 1.382 . S
C878 H900 0.950 . S
C879 N875 1.332 . S
C879 C878 1.382 . S
C879 H881 0.952 . S
C880 N875 1.332 . S
C880 C876 1.382 . S
C880 H882 0.948 . S
H881 C879 0.952 . S
H882 C880 0.948 . S
H883 C872 0.952 . S
H884 C874 0.948 . S
C885 C851 1.395 . S
C885 C855 1.391 . S
C886 C848 1.389 . S
C886 C868 1.392 . S
C887 C858 1.392 . S
C887 C860 1.389 . S
C888 C863 1.395 . S
C888 C865 1.391 . S
H889 C849 0.951 . S
H890 C850 0.950 . S
H891 C856 0.949 . S
H892 C857 0.950 . S
H893 C861 0.951 . S
H894 C862 0.950 . S
H895 C866 0.949 . S
H896 C867 0.950 . S
H897 C871 0.950 . S
H898 C873 0.950 . S
H899 C876 0.950 . S
H900 C878 0.950 . S
C901 C902 1.443 . S
C901 N905 1.376 . S
C901 C939 1.389 . S
C902 C901 1.443 . S
C902 C903 1.340 . S
C902 H942 0.951 . S
C903 C902 1.340 . S
C903 C904 1.439 . S
C903 H943 0.950 . S
C904 C903 1.439 . S
C904 N905 1.374 . S
C904 C938 1.395 . S
N905 C901 1.376 . S
N905 C904 1.374 . S
N905 Co906 2.008 . S
Co906 N905 2.008 . S
Co906 N907 1.995 . S
Co906 N912 2.008 . S
Co906 N917 1.995 . S
Co906 N922 2.282 . S
Co906 N928 2.282 . S
N907 Co906 1.995 . S
N907 C908 1.376 . S
N907 C911 1.383 . S
C908 N907 1.376 . S
C908 C909 1.446 . S
C908 C938 1.391 . S
C909 C908 1.446 . S
C909 C910 1.339 . S
C909 H944 0.949 . S
C910 C909 1.339 . S
C910 C911 1.439 . S
C910 H945 0.950 . S
C911 N907 1.383 . S
C911 C910 1.439 . S
C911 C940 1.392 . S
N912 Co906 2.008 . S
N912 C913 1.376 . S
N912 C916 1.374 . S
C913 N912 1.376 . S
C913 C914 1.443 . S
C913 C940 1.389 . S
C914 C913 1.443 . S
C914 C915 1.340 . S
C914 H946 0.951 . S
C915 C914 1.340 . S
C915 C916 1.439 . S
C915 H947 0.950 . S
C916 N912 1.374 . S
C916 C915 1.439 . S
C916 C941 1.395 . S
N917 Co906 1.995 . S
N917 C918 1.376 . S
N917 C921 1.383 . S
C918 N917 1.376 . S
C918 C919 1.446 . S
C918 C941 1.391 . S
C919 C918 1.446 . S
C919 C920 1.339 . S
C919 H948 0.949 . S
C920 C919 1.339 . S
C920 C921 1.439 . S
C920 H949 0.950 . S
C921 N917 1.383 . S
C921 C920 1.439 . S
C921 C939 1.392 . S
N922 Co906 2.282 . S
N922 C925 1.332 . S
N922 C927 1.332 . S
C923 C924 1.386 . S
C923 C926 1.388 . S
C924 C923 1.386 . S
C924 C925 1.382 . S
C924 H950 0.950 . S
C925 N922 1.332 . S
C925 C924 1.382 . S
C925 H936 0.952 . S
C926 C923 1.388 . S
C926 C927 1.382 . S
C926 H951 0.950 . S
C927 N922 1.332 . S
C927 C926 1.382 . S
C927 H937 0.948 . S
N928 Co906 2.282 . S
N928 C932 1.332 . S
N928 C933 1.332 . S
C929 C930 1.388 . S
C929 C933 1.382 . S
C929 H952 0.950 . S
C930 C929 1.388 . S
C930 C931 1.386 . S
C931 C930 1.386 . S
C931 C932 1.382 . S
C931 H953 0.950 . S
C932 N928 1.332 . S
C932 C931 1.382 . S
C932 H934 0.952 . S
C933 N928 1.332 . S
C933 C929 1.382 . S
C933 H935 0.948 . S
H934 C932 0.952 . S
H935 C933 0.948 . S
H936 C925 0.952 . S
H937 C927 0.948 . S
C938 C904 1.395 . S
C938 C908 1.391 . S
C939 C901 1.389 . S
C939 C921 1.392 . S
C940 C911 1.392 . S
C940 C913 1.389 . S
C941 C916 1.395 . S
C941 C918 1.391 . S
H942 C902 0.951 . S
H943 C903 0.950 . S
H944 C909 0.949 . S
H945 C910 0.950 . S
H946 C914 0.951 . S
H947 C915 0.950 . S
H948 C919 0.949 . S
H949 C920 0.950 . S
H950 C924 0.950 . S
H951 C926 0.950 . S
H952 C929 0.950 . S
H953 C931 0.950 . S
C954 C955 1.443 . S
C954 N958 1.376 . S
C954 C992 1.389 . S
C955 C954 1.443 . S
C955 C956 1.340 . S
C955 H995 0.951 . S
C956 C955 1.340 . S
C956 C957 1.439 . S
C956 H996 0.950 . S
C957 C956 1.439 . S
C957 N958 1.374 . S
C957 C991 1.395 . S
N958 C954 1.376 . S
N958 C957 1.374 . S
N958 Co959 2.008 . S
Co959 N958 2.008 . S
Co959 N960 1.995 . S
Co959 N965 2.008 . S
Co959 N970 1.995 . S
Co959 N975 2.282 . S
Co959 N981 2.282 . S
N960 Co959 1.995 . S
N960 C961 1.376 . S
N960 C964 1.383 . S
C961 N960 1.376 . S
C961 C962 1.446 . S
C961 C991 1.391 . S
C962 C961 1.446 . S
C962 C963 1.339 . S
C962 H997 0.949 . S
C963 C962 1.339 . S
C963 C964 1.439 . S
C963 H998 0.950 . S
C964 N960 1.383 . S
C964 C963 1.439 . S
C964 C993 1.392 . S
N965 Co959 2.008 . S
N965 C966 1.376 . S
N965 C969 1.374 . S
C966 N965 1.376 . S
C966 C967 1.443 . S
C966 C993 1.389 . S
C967 C966 1.443 . S
C967 C968 1.340 . S
C967 H999 0.951 . S
C968 C967 1.340 . S
C968 C969 1.439 . S
C968 H1000 0.950 . S
C969 N965 1.374 . S
C969 C968 1.439 . S
C969 C994 1.395 . S
N970 Co959 1.995 . S
N970 C971 1.376 . S
N970 C974 1.383 . S
C971 N970 1.376 . S
C971 C972 1.446 . S
C971 C994 1.391 . S
C972 C971 1.446 . S
C972 C973 1.339 . S
C972 H1001 0.949 . S
C973 C972 1.339 . S
C973 C974 1.439 . S
C973 H1002 0.950 . S
C974 N970 1.383 . S
C974 C973 1.439 . S
C974 C992 1.392 . S
N975 Co959 2.282 . S
N975 C978 1.332 . S
N975 C980 1.332 . S
C976 C977 1.386 . S
C976 C979 1.388 . S
C977 C976 1.386 . S
C977 C978 1.382 . S
C977 H1003 0.950 . S
C978 N975 1.332 . S
C978 C977 1.382 . S
C978 H989 0.952 . S
C979 C976 1.388 . S
C979 C980 1.382 . S
C979 H1004 0.950 . S
C980 N975 1.332 . S
C980 C979 1.382 . S
C980 H990 0.948 . S
N981 Co959 2.282 . S
N981 C985 1.332 . S
N981 C986 1.332 . S
C982 C983 1.388 . S
C982 C986 1.382 . S
C982 H1005 0.950 . S
C983 C982 1.388 . S
C983 C984 1.386 . S
C984 C983 1.386 . S
C984 C985 1.382 . S
C984 H1006 0.950 . S
C985 N981 1.332 . S
C985 C984 1.382 . S
C985 H987 0.952 . S
C986 N981 1.332 . S
C986 C982 1.382 . S
C986 H988 0.948 . S
H987 C985 0.952 . S
H988 C986 0.948 . S
H989 C978 0.952 . S
H990 C980 0.948 . S
C991 C957 1.395 . S
C991 C961 1.391 . S
C992 C954 1.389 . S
C992 C974 1.392 . S
C993 C964 1.392 . S
C993 C966 1.389 . S
C994 C969 1.395 . S
C994 C971 1.391 . S
H995 C955 0.951 . S
H996 C956 0.950 . S
H997 C962 0.949 . S
H998 C963 0.950 . S
H999 C967 0.951 . S
H1000 C968 0.950 . S
H1001 C972 0.949 . S
H1002 C973 0.950 . S
H1003 C977 0.950 . S
H1004 C979 0.950 . S
H1005 C982 0.950 . S
H1006 C984 0.950 . S
C1007 C1008 1.443 . S
C1007 N1011 1.376 . S
C1007 C1045 1.389 . S
C1008 C1007 1.443 . S
C1008 C1009 1.340 . S
C1008 H1048 0.951 . S
C1009 C1008 1.340 . S
C1009 C1010 1.439 . S
C1009 H1049 0.950 . S
C1010 C1009 1.439 . S
C1010 N1011 1.374 . S
C1010 C1044 1.395 . S
N1011 C1007 1.376 . S
N1011 C1010 1.374 . S
N1011 Co1012 2.008 . S
Co1012 N1011 2.008 . S
Co1012 N1013 1.995 . S
Co1012 N1018 2.008 . S
Co1012 N1023 1.995 . S
Co1012 N1028 2.282 . S
Co1012 N1034 2.282 . S
N1013 Co1012 1.995 . S
N1013 C1014 1.376 . S
N1013 C1017 1.383 . S
C1014 N1013 1.376 . S
C1014 C1015 1.446 . S
C1014 C1044 1.391 . S
C1015 C1014 1.446 . S
C1015 C1016 1.339 . S
C1015 H1050 0.949 . S
C1016 C1015 1.339 . S
C1016 C1017 1.439 . S
C1016 H1051 0.950 . S
C1017 N1013 1.383 . S
C1017 C1016 1.439 . S
C1017 C1046 1.392 . S
N1018 Co1012 2.008 . S
N1018 C1019 1.376 . S
N1018 C1022 1.374 . S
C1019 N1018 1.376 . S
C1019 C1020 1.443 . S
C1019 C1046 1.389 . S
C1020 C1019 1.443 . S
C1020 C1021 1.340 . S
C1020 H1052 0.951 . S
C1021 C1020 1.340 . S
C1021 C1022 1.439 . S
C1021 H1053 0.950 . S
C1022 N1018 1.374 . S
C1022 C1021 1.439 . S
C1022 C1047 1.395 . S
N1023 Co1012 1.995 . S
N1023 C1024 1.376 . S
N1023 C1027 1.383 . S
C1024 N1023 1.376 . S
C1024 C1025 1.446 . S
C1024 C1047 1.391 . S
C1025 C1024 1.446 . S
C1025 C1026 1.339 . S
C1025 H1054 0.949 . S
C1026 C1025 1.339 . S
C1026 C1027 1.439 . S
C1026 H1055 0.950 . S
C1027 N1023 1.383 . S
C1027 C1026 1.439 . S
C1027 C1045 1.392 . S
N1028 Co1012 2.282 . S
N1028 C1031 1.332 . S
N1028 C1033 1.332 . S
C1029 C1030 1.386 . S
C1029 C1032 1.388 . S
C1030 C1029 1.386 . S
C1030 C1031 1.382 . S
C1030 H1056 0.950 . S
C1031 N1028 1.332 . S
C1031 C1030 1.382 . S
C1031 H1042 0.952 . S
C1032 C1029 1.388 . S
C1032 C1033 1.382 . S
C1032 H1057 0.950 . S
C1033 N1028 1.332 . S
C1033 C1032 1.382 . S
C1033 H1043 0.948 . S
N1034 Co1012 2.282 . S
N1034 C1038 1.332 . S
N1034 C1039 1.332 . S
C1035 C1036 1.388 . S
C1035 C1039 1.382 . S
C1035 H1058 0.950 . S
C1036 C1035 1.388 . S
C1036 C1037 1.386 . S
C1037 C1036 1.386 . S
C1037 C1038 1.382 . S
C1037 H1059 0.950 . S
C1038 N1034 1.332 . S
C1038 C1037 1.382 . S
C1038 H1040 0.952 . S
C1039 N1034 1.332 . S
C1039 C1035 1.382 . S
C1039 H1041 0.948 . S
H1040 C1038 0.952 . S
H1041 C1039 0.948 . S
H1042 C1031 0.952 . S
H1043 C1033 0.948 . S
C1044 C1010 1.395 . S
C1044 C1014 1.391 . S
C1045 C1007 1.389 . S
C1045 C1027 1.392 . S
C1046 C1017 1.392 . S
C1046 C1019 1.389 . S
C1047 C1022 1.395 . S
C1047 C1024 1.391 . S
H1048 C1008 0.951 . S
H1049 C1009 0.950 . S
H1050 C1015 0.949 . S
H1051 C1016 0.950 . S
H1052 C1020 0.951 . S
H1053 C1021 0.950 . S
H1054 C1025 0.949 . S
H1055 C1026 0.950 . S
H1056 C1030 0.950 . S
H1057 C1032 0.950 . S
H1058 C1035 0.950 . S
H1059 C1037 0.950 . S
C1060 C1061 1.443 . S
C1060 N1064 1.376 . S
C1060 C1098 1.389 . S
C1061 C1060 1.443 . S
C1061 C1062 1.340 . S
C1061 H1101 0.951 . S
C1062 C1061 1.340 . S
C1062 C1063 1.439 . S
C1062 H1102 0.950 . S
C1063 C1062 1.439 . S
C1063 N1064 1.374 . S
C1063 C1097 1.395 . S
N1064 C1060 1.376 . S
N1064 C1063 1.374 . S
N1064 Co1065 2.008 . S
Co1065 N1064 2.008 . S
Co1065 N1066 1.995 . S
Co1065 N1071 2.008 . S
Co1065 N1076 1.995 . S
Co1065 N1081 2.282 . S
Co1065 N1087 2.282 . S
N1066 Co1065 1.995 . S
N1066 C1067 1.376 . S
N1066 C1070 1.383 . S
C1067 N1066 1.376 . S
C1067 C1068 1.446 . S
C1067 C1097 1.391 . S
C1068 C1067 1.446 . S
C1068 C1069 1.339 . S
C1068 H1103 0.949 . S
C1069 C1068 1.339 . S
C1069 C1070 1.439 . S
C1069 H1104 0.950 . S
C1070 N1066 1.383 . S
C1070 C1069 1.439 . S
C1070 C1099 1.392 . S
N1071 Co1065 2.008 . S
N1071 C1072 1.376 . S
N1071 C1075 1.374 . S
C1072 N1071 1.376 . S
C1072 C1073 1.443 . S
C1072 C1099 1.389 . S
C1073 C1072 1.443 . S
C1073 C1074 1.340 . S
C1073 H1105 0.951 . S
C1074 C1073 1.340 . S
C1074 C1075 1.439 . S
C1074 H1106 0.950 . S
C1075 N1071 1.374 . S
C1075 C1074 1.439 . S
C1075 C1100 1.395 . S
N1076 Co1065 1.995 . S
N1076 C1077 1.376 . S
N1076 C1080 1.383 . S
C1077 N1076 1.376 . S
C1077 C1078 1.446 . S
C1077 C1100 1.391 . S
C1078 C1077 1.446 . S
C1078 C1079 1.339 . S
C1078 H1107 0.949 . S
C1079 C1078 1.339 . S
C1079 C1080 1.439 . S
C1079 H1108 0.950 . S
C1080 N1076 1.383 . S
C1080 C1079 1.439 . S
C1080 C1098 1.392 . S
N1081 Co1065 2.282 . S
N1081 C1084 1.332 . S
N1081 C1086 1.332 . S
C1082 C1083 1.386 . S
C1082 C1085 1.388 . S
C1083 C1082 1.386 . S
C1083 C1084 1.382 . S
C1083 H1109 0.950 . S
C1084 N1081 1.332 . S
C1084 C1083 1.382 . S
C1084 H1095 0.952 . S
C1085 C1082 1.388 . S
C1085 C1086 1.382 . S
C1085 H1110 0.950 . S
C1086 N1081 1.332 . S
C1086 C1085 1.382 . S
C1086 H1096 0.948 . S
N1087 Co1065 2.282 . S
N1087 C1091 1.332 . S
N1087 C1092 1.332 . S
C1088 C1089 1.388 . S
C1088 C1092 1.382 . S
C1088 H1111 0.950 . S
C1089 C1088 1.388 . S
C1089 C1090 1.386 . S
C1090 C1089 1.386 . S
C1090 C1091 1.382 . S
C1090 H1112 0.950 . S
C1091 N1087 1.332 . S
C1091 C1090 1.382 . S
C1091 H1093 0.952 . S
C1092 N1087 1.332 . S
C1092 C1088 1.382 . S
C1092 H1094 0.948 . S
H1093 C1091 0.952 . S
H1094 C1092 0.948 . S
H1095 C1084 0.952 . S
H1096 C1086 0.948 . S
C1097 C1063 1.395 . S
C1097 C1067 1.391 . S
C1098 C1060 1.389 . S
C1098 C1080 1.392 . S
C1099 C1070 1.392 . S
C1099 C1072 1.389 . S
C1100 C1075 1.395 . S
C1100 C1077 1.391 . S
H1101 C1061 0.951 . S
H1102 C1062 0.950 . S
H1103 C1068 0.949 . S
H1104 C1069 0.950 . S
H1105 C1073 0.951 . S
H1106 C1074 0.950 . S
H1107 C1078 0.949 . S
H1108 C1079 0.950 . S
H1109 C1083 0.950 . S
H1110 C1085 0.950 . S
H1111 C1088 0.950 . S
H1112 C1090 0.950 . S
C1113 C1114 1.434 1_565 S
C1113 N1117 1.350 1_565 S
C1113 C1151 1.421 . S
C1114 C1113 1.434 1_545 S
C1114 C1115 1.340 . S
C1114 H1154 0.951 . S
C1115 C1114 1.340 . S
C1115 C1116 1.439 . S
C1115 H1155 0.950 . S
C1116 C1115 1.439 . S
C1116 N1117 1.374 . S
C1116 C1150 1.395 . S
N1117 C1113 1.350 1_545 S
N1117 C1116 1.374 . S
N1117 Co1118 2.008 1_546 S
Co1118 N1117 2.008 1_564 S
Co1118 N1119 1.995 1_565 S
Co1118 N1124 2.008 . S
Co1118 N1129 1.995 1_554 S
Co1118 N1134 2.282 . S
Co1118 N1140 2.282 1_554 S
N1119 Co1118 1.995 1_545 S
N1119 C1120 1.377 . S
N1119 C1123 1.383 . S
C1120 N1119 1.377 . S
C1120 C1121 1.448 . S
C1120 C1150 1.389 1_554 S
C1121 C1120 1.448 . S
C1121 C1122 1.339 . S
C1121 H1156 0.949 . S
C1122 C1121 1.339 . S
C1122 C1123 1.439 . S
C1122 H1157 0.950 . S
C1123 N1119 1.383 . S
C1123 C1122 1.439 . S
C1123 C1152 1.392 . S
N1124 Co1118 2.008 . S
N1124 C1125 1.376 . S
N1124 C1128 1.374 . S
C1125 N1124 1.376 . S
C1125 C1126 1.443 . S
C1125 C1152 1.389 1_565 S
C1126 C1125 1.443 . S
C1126 C1127 1.340 . S
C1126 H1158 0.951 . S
C1127 C1126 1.340 . S
C1127 C1128 1.439 . S
C1127 H1159 0.950 . S
C1128 N1124 1.374 . S
C1128 C1127 1.439 . S
C1128 C1153 1.395 . S
N1129 Co1118 1.995 1_556 S
N1129 C1130 1.376 . S
N1129 C1133 1.383 . S
C1130 N1129 1.376 . S
C1130 C1131 1.447 . S
C1130 C1153 1.390 1_556 S
C1131 C1130 1.447 . S
C1131 C1132 1.339 . S
C1131 H1160 0.949 . S
C1132 C1131 1.339 . S
C1132 C1133 1.439 . S
C1132 H1161 0.950 . S
C1133 N1129 1.383 . S
C1133 C1132 1.439 . S
C1133 C1151 1.392 . S
N1134 Co1118 2.282 . S
N1134 C1137 1.332 . S
N1134 C1139 1.332 1_565 S
C1135 C1136 1.386 . S
C1135 C1138 1.388 1_565 S
C1136 C1135 1.386 . S
C1136 C1137 1.382 . S
C1136 H1162 0.950 . S
C1137 N1134 1.332 . S
C1137 C1136 1.382 . S
C1137 H1148 0.952 . S
C1138 C1135 1.388 1_545 S
C1138 C1139 1.382 . S
C1138 H1163 0.950 . S
C1139 N1134 1.332 1_545 S
C1139 C1138 1.382 . S
C1139 H1149 0.948 . S
N1140 Co1118 2.282 1_556 S
N1140 C1144 1.332 1_565 S
N1140 C1145 1.332 . S
C1141 C1142 1.388 . S
C1141 C1145 1.382 . S
C1141 H1164 0.950 . S
C1142 C1141 1.388 . S
C1142 C1143 1.386 1_565 S
C1143 C1142 1.386 1_545 S
C1143 C1144 1.382 . S
C1143 H1165 0.950 . S
C1144 N1140 1.332 1_545 S
C1144 C1143 1.382 . S
C1144 H1146 0.952 . S
C1145 N1140 1.332 . S
C1145 C1141 1.382 . S
C1145 H1147 0.948 . S
H1146 C1144 0.952 . S
H1147 C1145 0.948 . S
H1148 C1137 0.952 . S
H1149 C1139 0.948 . S
C1150 C1116 1.395 . S
C1150 C1120 1.389 1_556 S
C1151 C1113 1.421 . S
C1151 C1133 1.392 . S
C1152 C1123 1.392 . S
C1152 C1125 1.389 1_545 S
C1153 C1128 1.395 . S
C1153 C1130 1.390 1_554 S
H1154 C1114 0.951 . S
H1155 C1115 0.950 . S
H1156 C1121 0.949 . S
H1157 C1122 0.950 . S
H1158 C1126 0.951 . S
H1159 C1127 0.950 . S
H1160 C1131 0.949 . S
H1161 C1132 0.950 . S
H1162 C1136 0.950 . S
H1163 C1138 0.950 . S
H1164 C1141 0.950 . S
H1165 C1143 0.950 . S
C1166 C1167 1.424 1_455 S
C1166 N1170 1.378 1_455 S
C1166 C1204 1.404 . S
C1167 C1166 1.424 1_655 S
C1167 C1168 1.340 . S
C1167 H1207 0.951 . S
C1168 C1167 1.340 . S
C1168 C1169 1.439 . S
C1168 H1208 0.950 . S
C1169 C1168 1.439 . S
C1169 N1170 1.374 . S
C1169 C1203 1.395 . S
N1170 C1166 1.378 1_655 S
N1170 C1169 1.374 . S
N1170 Co1171 2.008 1_656 S
Co1171 N1170 2.008 1_454 S
Co1171 N1172 1.995 1_455 S
Co1171 N1177 2.008 . S
Co1171 N1182 1.995 1_554 S
Co1171 N1187 2.282 . S
Co1171 N1193 2.282 1_554 S
N1172 Co1171 1.995 1_655 S
N1172 C1173 1.377 . S
N1172 C1176 1.383 . S
C1173 N1172 1.377 . S
C1173 C1174 1.448 . S
C1173 C1203 1.389 1_554 S
C1174 C1173 1.448 . S
C1174 C1175 1.339 . S
C1174 H1209 0.949 . S
C1175 C1174 1.339 . S
C1175 C1176 1.439 . S
C1175 H1210 0.950 . S
C1176 N1172 1.383 . S
C1176 C1175 1.439 . S
C1176 C1205 1.392 . S
N1177 Co1171 2.008 . S
N1177 C1178 1.376 . S
N1177 C1181 1.374 . S
C1178 N1177 1.376 . S
C1178 C1179 1.443 . S
C1178 C1205 1.389 1_455 S
C1179 C1178 1.443 . S
C1179 C1180 1.340 . S
C1179 H1211 0.951 . S
C1180 C1179 1.340 . S
C1180 C1181 1.439 . S
C1180 H1212 0.950 . S
C1181 N1177 1.374 . S
C1181 C1180 1.439 . S
C1181 C1206 1.395 . S
N1182 Co1171 1.995 1_556 S
N1182 C1183 1.376 . S
N1182 C1186 1.383 . S
C1183 N1182 1.376 . S
C1183 C1184 1.447 . S
C1183 C1206 1.390 1_556 S
C1184 C1183 1.447 . S
C1184 C1185 1.339 . S
C1184 H1213 0.949 . S
C1185 C1184 1.339 . S
C1185 C1186 1.439 . S
C1185 H1214 0.950 . S
C1186 N1182 1.383 . S
C1186 C1185 1.439 . S
C1186 C1204 1.392 . S
N1187 Co1171 2.282 . S
N1187 C1190 1.332 . S
N1187 C1192 1.332 1_455 S
C1188 C1189 1.386 . S
C1188 C1191 1.388 1_455 S
C1189 C1188 1.386 . S
C1189 C1190 1.382 . S
C1189 H1215 0.950 . S
C1190 N1187 1.332 . S
C1190 C1189 1.382 . S
C1190 H1201 0.952 . S
C1191 C1188 1.388 1_655 S
C1191 C1192 1.382 . S
C1191 H1216 0.950 . S
C1192 N1187 1.332 1_655 S
C1192 C1191 1.382 . S
C1192 H1202 0.948 . S
N1193 Co1171 2.282 1_556 S
N1193 C1197 1.332 1_455 S
N1193 C1198 1.332 . S
C1194 C1195 1.388 . S
C1194 C1198 1.382 . S
C1194 H1217 0.950 . S
C1195 C1194 1.388 . S
C1195 C1196 1.386 1_455 S
C1196 C1195 1.386 1_655 S
C1196 C1197 1.382 . S
C1196 H1218 0.950 . S
C1197 N1193 1.332 1_655 S
C1197 C1196 1.382 . S
C1197 H1199 0.952 . S
C1198 N1193 1.332 . S
C1198 C1194 1.382 . S
C1198 H1200 0.948 . S
H1199 C1197 0.952 . S
H1200 C1198 0.948 . S
H1201 C1190 0.952 . S
H1202 C1192 0.948 . S
C1203 C1169 1.395 . S
C1203 C1173 1.389 1_556 S
C1204 C1166 1.404 . S
C1204 C1186 1.392 . S
C1205 C1176 1.392 . S
C1205 C1178 1.389 1_655 S
C1206 C1181 1.395 . S
C1206 C1183 1.390 1_554 S
H1207 C1167 0.951 . S
H1208 C1168 0.950 . S
H1209 C1174 0.949 . S
H1210 C1175 0.950 . S
H1211 C1179 0.951 . S
H1212 C1180 0.950 . S
H1213 C1184 0.949 . S
H1214 C1185 0.950 . S
H1215 C1189 0.950 . S
H1216 C1191 0.950 . S
H1217 C1194 0.950 . S
H1218 C1196 0.950 . S
C1219 C1220 1.443 . S
C1219 N1223 1.376 . S
C1219 C1257 1.389 . S
C1220 C1219 1.443 . S
C1220 C1221 1.340 . S
C1220 H1260 0.951 . S
C1221 C1220 1.340 . S
C1221 C1222 1.439 . S
C1221 H1261 0.950 . S
C1222 C1221 1.439 . S
C1222 N1223 1.374 . S
C1222 C1256 1.395 . S
N1223 C1219 1.376 . S
N1223 C1222 1.374 . S
N1223 Co1224 2.008 1_556 S
Co1224 N1223 2.008 1_554 S
Co1224 N1225 1.995 . S
Co1224 N1230 2.008 . S
Co1224 N1235 1.995 1_554 S
Co1224 N1240 2.282 . S
Co1224 N1246 2.282 1_554 S
N1225 Co1224 1.995 . S
N1225 C1226 1.377 . S
N1225 C1229 1.383 . S
C1226 N1225 1.377 . S
C1226 C1227 1.448 . S
C1226 C1256 1.389 1_554 S
C1227 C1226 1.448 . S
C1227 C1228 1.339 . S
C1227 H1262 0.949 . S
C1228 C1227 1.339 . S
C1228 C1229 1.439 . S
C1228 H1263 0.950 . S
C1229 N1225 1.383 . S
C1229 C1228 1.439 . S
C1229 C1258 1.392 . S
N1230 Co1224 2.008 . S
N1230 C1231 1.376 . S
N1230 C1234 1.374 . S
C1231 N1230 1.376 . S
C1231 C1232 1.443 . S
C1231 C1258 1.389 . S
C1232 C1231 1.443 . S
C1232 C1233 1.340 . S
C1232 H1264 0.951 . S
C1233 C1232 1.340 . S
C1233 C1234 1.439 . S
C1233 H1265 0.950 . S
C1234 N1230 1.374 . S
C1234 C1233 1.439 . S
C1234 C1259 1.395 . S
N1235 Co1224 1.995 1_556 S
N1235 C1236 1.376 . S
N1235 C1239 1.383 . S
C1236 N1235 1.376 . S
C1236 C1237 1.447 . S
C1236 C1259 1.390 1_556 S
C1237 C1236 1.447 . S
C1237 C1238 1.339 . S
C1237 H1266 0.949 . S
C1238 C1237 1.339 . S
C1238 C1239 1.439 . S
C1238 H1267 0.950 . S
C1239 N1235 1.383 . S
C1239 C1238 1.439 . S
C1239 C1257 1.392 . S
N1240 Co1224 2.282 . S
N1240 C1243 1.332 . S
N1240 C1245 1.332 . S
C1241 C1242 1.386 . S
C1241 C1244 1.388 . S
C1242 C1241 1.386 . S
C1242 C1243 1.382 . S
C1242 H1268 0.950 . S
C1243 N1240 1.332 . S
C1243 C1242 1.382 . S
C1243 H1254 0.952 . S
C1244 C1241 1.388 . S
C1244 C1245 1.382 . S
C1244 H1269 0.950 . S
C1245 N1240 1.332 . S
C1245 C1244 1.382 . S
C1245 H1255 0.948 . S
N1246 Co1224 2.282 1_556 S
N1246 C1250 1.332 . S
N1246 C1251 1.332 . S
C1247 C1248 1.388 . S
C1247 C1251 1.382 . S
C1247 H1270 0.950 . S
C1248 C1247 1.388 . S
C1248 C1249 1.386 . S
C1249 C1248 1.386 . S
C1249 C1250 1.382 . S
C1249 H1271 0.950 . S
C1250 N1246 1.332 . S
C1250 C1249 1.382 . S
C1250 H1252 0.952 . S
C1251 N1246 1.332 . S
C1251 C1247 1.382 . S
C1251 H1253 0.948 . S
H1252 C1250 0.952 . S
H1253 C1251 0.948 . S
H1254 C1243 0.952 . S
H1255 C1245 0.948 . S
C1256 C1222 1.395 . S
C1256 C1226 1.389 1_556 S
C1257 C1219 1.389 . S
C1257 C1239 1.392 . S
C1258 C1229 1.392 . S
C1258 C1231 1.389 . S
C1259 C1234 1.395 . S
C1259 C1236 1.390 1_554 S
H1260 C1220 0.951 . S
H1261 C1221 0.950 . S
H1262 C1227 0.949 . S
H1263 C1228 0.950 . S
H1264 C1232 0.951 . S
H1265 C1233 0.950 . S
H1266 C1237 0.949 . S
H1267 C1238 0.950 . S
H1268 C1242 0.950 . S
H1269 C1244 0.950 . S
H1270 C1247 0.950 . S
H1271 C1249 0.950 . S
C1272 C1273 1.443 . S
C1272 N1276 1.376 . S
C1272 C1310 1.389 . S
C1273 C1272 1.443 . S
C1273 C1274 1.340 . S
C1273 H1313 0.951 . S
C1274 C1273 1.340 . S
C1274 C1275 1.439 . S
C1274 H1314 0.950 . S
C1275 C1274 1.439 . S
C1275 N1276 1.374 . S
C1275 C1309 1.395 . S
N1276 C1272 1.376 . S
N1276 C1275 1.374 . S
N1276 Co1277 2.008 . S
Co1277 N1276 2.008 . S
Co1277 N1278 1.995 . S
Co1277 N1283 2.008 . S
Co1277 N1288 1.995 . S
Co1277 N1293 2.282 . S
Co1277 N1299 2.282 . S
N1278 Co1277 1.995 . S
N1278 C1279 1.376 . S
N1278 C1282 1.383 . S
C1279 N1278 1.376 . S
C1279 C1280 1.446 . S
C1279 C1309 1.391 . S
C1280 C1279 1.446 . S
C1280 C1281 1.339 . S
C1280 H1315 0.949 . S
C1281 C1280 1.339 . S
C1281 C1282 1.439 . S
C1281 H1316 0.950 . S
C1282 N1278 1.383 . S
C1282 C1281 1.439 . S
C1282 C1311 1.392 . S
N1283 Co1277 2.008 . S
N1283 C1284 1.376 . S
N1283 C1287 1.374 . S
C1284 N1283 1.376 . S
C1284 C1285 1.443 . S
C1284 C1311 1.389 . S
C1285 C1284 1.443 . S
C1285 C1286 1.340 . S
C1285 H1317 0.951 . S
C1286 C1285 1.340 . S
C1286 C1287 1.439 . S
C1286 H1318 0.950 . S
C1287 N1283 1.374 . S
C1287 C1286 1.439 . S
C1287 C1312 1.395 . S
N1288 Co1277 1.995 . S
N1288 C1289 1.376 . S
N1288 C1292 1.383 . S
C1289 N1288 1.376 . S
C1289 C1290 1.446 . S
C1289 C1312 1.391 . S
C1290 C1289 1.446 . S
C1290 C1291 1.339 . S
C1290 H1319 0.949 . S
C1291 C1290 1.339 . S
C1291 C1292 1.439 . S
C1291 H1320 0.950 . S
C1292 N1288 1.383 . S
C1292 C1291 1.439 . S
C1292 C1310 1.392 . S
N1293 Co1277 2.282 . S
N1293 C1296 1.332 . S
N1293 C1298 1.332 . S
C1294 C1295 1.386 . S
C1294 C1297 1.388 . S
C1295 C1294 1.386 . S
C1295 C1296 1.382 . S
C1295 H1321 0.950 . S
C1296 N1293 1.332 . S
C1296 C1295 1.382 . S
C1296 H1307 0.952 . S
C1297 C1294 1.388 . S
C1297 C1298 1.382 . S
C1297 H1322 0.950 . S
C1298 N1293 1.332 . S
C1298 C1297 1.382 . S
C1298 H1308 0.948 . S
N1299 Co1277 2.282 . S
N1299 C1303 1.332 . S
N1299 C1304 1.332 . S
C1300 C1301 1.388 . S
C1300 C1304 1.382 . S
C1300 H1323 0.950 . S
C1301 C1300 1.388 . S
C1301 C1302 1.386 . S
C1302 C1301 1.386 . S
C1302 C1303 1.382 . S
C1302 H1324 0.950 . S
C1303 N1299 1.332 . S
C1303 C1302 1.382 . S
C1303 H1305 0.952 . S
C1304 N1299 1.332 . S
C1304 C1300 1.382 . S
C1304 H1306 0.948 . S
H1305 C1303 0.952 . S
H1306 C1304 0.948 . S
H1307 C1296 0.952 . S
H1308 C1298 0.948 . S
C1309 C1275 1.395 . S
C1309 C1279 1.391 . S
C1310 C1272 1.389 . S
C1310 C1292 1.392 . S
C1311 C1282 1.392 . S
C1311 C1284 1.389 . S
C1312 C1287 1.395 . S
C1312 C1289 1.391 . S
H1313 C1273 0.951 . S
H1314 C1274 0.950 . S
H1315 C1280 0.949 . S
H1316 C1281 0.950 . S
H1317 C1285 0.951 . S
H1318 C1286 0.950 . S
H1319 C1290 0.949 . S
H1320 C1291 0.950 . S
H1321 C1295 0.950 . S
H1322 C1297 0.950 . S
H1323 C1300 0.950 . S
H1324 C1302 0.950 . S
C1325 C1326 1.443 . S
C1325 N1329 1.376 . S
C1325 C1363 1.389 . S
C1326 C1325 1.443 . S
C1326 C1327 1.340 . S
C1326 H1366 0.951 . S
C1327 C1326 1.340 . S
C1327 C1328 1.439 . S
C1327 H1367 0.950 . S
C1328 C1327 1.439 . S
C1328 N1329 1.374 . S
C1328 C1362 1.395 . S
N1329 C1325 1.376 . S
N1329 C1328 1.374 . S
N1329 Co1330 2.008 . S
Co1330 N1329 2.008 . S
Co1330 N1331 1.995 . S
Co1330 N1336 2.008 . S
Co1330 N1341 1.995 . S
Co1330 N1346 2.282 . S
Co1330 N1352 2.282 . S
N1331 Co1330 1.995 . S
N1331 C1332 1.376 . S
N1331 C1335 1.383 . S
C1332 N1331 1.376 . S
C1332 C1333 1.446 . S
C1332 C1362 1.391 . S
C1333 C1332 1.446 . S
C1333 C1334 1.339 . S
C1333 H1368 0.949 . S
C1334 C1333 1.339 . S
C1334 C1335 1.439 . S
C1334 H1369 0.950 . S
C1335 N1331 1.383 . S
C1335 C1334 1.439 . S
C1335 C1364 1.392 . S
N1336 Co1330 2.008 . S
N1336 C1337 1.376 . S
N1336 C1340 1.374 . S
C1337 N1336 1.376 . S
C1337 C1338 1.443 . S
C1337 C1364 1.389 . S
C1338 C1337 1.443 . S
C1338 C1339 1.340 . S
C1338 H1370 0.951 . S
C1339 C1338 1.340 . S
C1339 C1340 1.439 . S
C1339 H1371 0.950 . S
C1340 N1336 1.374 . S
C1340 C1339 1.439 . S
C1340 C1365 1.395 . S
N1341 Co1330 1.995 . S
N1341 C1342 1.376 . S
N1341 C1345 1.383 . S
C1342 N1341 1.376 . S
C1342 C1343 1.446 . S
C1342 C1365 1.391 . S
C1343 C1342 1.446 . S
C1343 C1344 1.339 . S
C1343 H1372 0.949 . S
C1344 C1343 1.339 . S
C1344 C1345 1.439 . S
C1344 H1373 0.950 . S
C1345 N1341 1.383 . S
C1345 C1344 1.439 . S
C1345 C1363 1.392 . S
N1346 Co1330 2.282 . S
N1346 C1349 1.332 . S
N1346 C1351 1.332 . S
C1347 C1348 1.386 . S
C1347 C1350 1.388 . S
C1348 C1347 1.386 . S
C1348 C1349 1.382 . S
C1348 H1374 0.950 . S
C1349 N1346 1.332 . S
C1349 C1348 1.382 . S
C1349 H1360 0.952 . S
C1350 C1347 1.388 . S
C1350 C1351 1.382 . S
C1350 H1375 0.950 . S
C1351 N1346 1.332 . S
C1351 C1350 1.382 . S
C1351 H1361 0.948 . S
N1352 Co1330 2.282 . S
N1352 C1356 1.332 . S
N1352 C1357 1.332 . S
C1353 C1354 1.388 . S
C1353 C1357 1.382 . S
C1353 H1376 0.950 . S
C1354 C1353 1.388 . S
C1354 C1355 1.386 . S
C1355 C1354 1.386 . S
C1355 C1356 1.382 . S
C1355 H1377 0.950 . S
C1356 N1352 1.332 . S
C1356 C1355 1.382 . S
C1356 H1358 0.952 . S
C1357 N1352 1.332 . S
C1357 C1353 1.382 . S
C1357 H1359 0.948 . S
H1358 C1356 0.952 . S
H1359 C1357 0.948 . S
H1360 C1349 0.952 . S
H1361 C1351 0.948 . S
C1362 C1328 1.395 . S
C1362 C1332 1.391 . S
C1363 C1325 1.389 . S
C1363 C1345 1.392 . S
C1364 C1335 1.392 . S
C1364 C1337 1.389 . S
C1365 C1340 1.395 . S
C1365 C1342 1.391 . S
H1366 C1326 0.951 . S
H1367 C1327 0.950 . S
H1368 C1333 0.949 . S
H1369 C1334 0.950 . S
H1370 C1338 0.951 . S
H1371 C1339 0.950 . S
H1372 C1343 0.949 . S
H1373 C1344 0.950 . S
H1374 C1348 0.950 . S
H1375 C1350 0.950 . S
H1376 C1353 0.950 . S
H1377 C1355 0.950 . S
C1378 C1379 1.443 . S
C1378 N1382 1.376 . S
C1378 C1416 1.389 . S
C1379 C1378 1.443 . S
C1379 C1380 1.340 . S
C1379 H1419 0.951 . S
C1380 C1379 1.340 . S
C1380 C1381 1.439 . S
C1380 H1420 0.950 . S
C1381 C1380 1.439 . S
C1381 N1382 1.374 . S
C1381 C1415 1.395 . S
N1382 C1378 1.376 . S
N1382 C1381 1.374 . S
N1382 Co1383 2.008 . S
Co1383 N1382 2.008 . S
Co1383 N1384 1.995 . S
Co1383 N1389 2.008 . S
Co1383 N1394 1.995 . S
Co1383 N1399 2.282 . S
Co1383 N1405 2.282 . S
N1384 Co1383 1.995 . S
N1384 C1385 1.376 . S
N1384 C1388 1.383 . S
C1385 N1384 1.376 . S
C1385 C1386 1.446 . S
C1385 C1415 1.391 . S
C1386 C1385 1.446 . S
C1386 C1387 1.339 . S
C1386 H1421 0.949 . S
C1387 C1386 1.339 . S
C1387 C1388 1.439 . S
C1387 H1422 0.950 . S
C1388 N1384 1.383 . S
C1388 C1387 1.439 . S
C1388 C1417 1.392 . S
N1389 Co1383 2.008 . S
N1389 C1390 1.376 . S
N1389 C1393 1.374 . S
C1390 N1389 1.376 . S
C1390 C1391 1.443 . S
C1390 C1417 1.389 . S
C1391 C1390 1.443 . S
C1391 C1392 1.340 . S
C1391 H1423 0.951 . S
C1392 C1391 1.340 . S
C1392 C1393 1.439 . S
C1392 H1424 0.950 . S
C1393 N1389 1.374 . S
C1393 C1392 1.439 . S
C1393 C1418 1.395 . S
N1394 Co1383 1.995 . S
N1394 C1395 1.376 . S
N1394 C1398 1.383 . S
C1395 N1394 1.376 . S
C1395 C1396 1.446 . S
C1395 C1418 1.391 . S
C1396 C1395 1.446 . S
C1396 C1397 1.339 . S
C1396 H1425 0.949 . S
C1397 C1396 1.339 . S
C1397 C1398 1.439 . S
C1397 H1426 0.950 . S
C1398 N1394 1.383 . S
C1398 C1397 1.439 . S
C1398 C1416 1.392 . S
N1399 Co1383 2.282 . S
N1399 C1402 1.332 . S
N1399 C1404 1.332 . S
C1400 C1401 1.386 . S
C1400 C1403 1.388 . S
C1401 C1400 1.386 . S
C1401 C1402 1.382 . S
C1401 H1427 0.950 . S
C1402 N1399 1.332 . S
C1402 C1401 1.382 . S
C1402 H1413 0.952 . S
C1403 C1400 1.388 . S
C1403 C1404 1.382 . S
C1403 H1428 0.950 . S
C1404 N1399 1.332 . S
C1404 C1403 1.382 . S
C1404 H1414 0.948 . S
N1405 Co1383 2.282 . S
N1405 C1409 1.332 . S
N1405 C1410 1.332 . S
C1406 C1407 1.388 . S
C1406 C1410 1.382 . S
C1406 H1429 0.950 . S
C1407 C1406 1.388 . S
C1407 C1408 1.386 . S
C1408 C1407 1.386 . S
C1408 C1409 1.382 . S
C1408 H1430 0.950 . S
C1409 N1405 1.332 . S
C1409 C1408 1.382 . S
C1409 H1411 0.952 . S
C1410 N1405 1.332 . S
C1410 C1406 1.382 . S
C1410 H1412 0.948 . S
H1411 C1409 0.952 . S
H1412 C1410 0.948 . S
H1413 C1402 0.952 . S
H1414 C1404 0.948 . S
C1415 C1381 1.395 . S
C1415 C1385 1.391 . S
C1416 C1378 1.389 . S
C1416 C1398 1.392 . S
C1417 C1388 1.392 . S
C1417 C1390 1.389 . S
C1418 C1393 1.395 . S
C1418 C1395 1.391 . S
H1419 C1379 0.951 . S
H1420 C1380 0.950 . S
H1421 C1386 0.949 . S
H1422 C1387 0.950 . S
H1423 C1391 0.951 . S
H1424 C1392 0.950 . S
H1425 C1396 0.949 . S
H1426 C1397 0.950 . S
H1427 C1401 0.950 . S
H1428 C1403 0.950 . S
H1429 C1406 0.950 . S
H1430 C1408 0.950 . S
C1431 C1432 1.443 . S
C1431 N1435 1.376 . S
C1431 C1469 1.389 . S
C1432 C1431 1.443 . S
C1432 C1433 1.340 . S
C1432 H1472 0.951 . S
C1433 C1432 1.340 . S
C1433 C1434 1.439 . S
C1433 H1473 0.950 . S
C1434 C1433 1.439 . S
C1434 N1435 1.374 . S
C1434 C1468 1.395 . S
N1435 C1431 1.376 . S
N1435 C1434 1.374 . S
N1435 Co1436 2.008 1_554 S
Co1436 N1435 2.008 1_556 S
Co1436 N1437 1.995 . S
Co1436 N1442 2.008 1_545 S
Co1436 N1447 1.995 1_546 S
Co1436 N1452 2.282 . S
Co1436 N1458 2.282 1_556 S
N1437 Co1436 1.995 . S
N1437 C1438 1.376 1_556 S
N1437 C1441 1.383 . S
C1438 N1437 1.376 1_554 S
C1438 C1439 1.446 1_554 S
C1438 C1468 1.391 . S
C1439 C1438 1.446 1_556 S
C1439 C1440 1.339 . S
C1439 H1474 0.949 . S
C1440 C1439 1.339 . S
C1440 C1441 1.439 . S
C1440 H1475 0.950 . S
C1441 N1437 1.383 . S
C1441 C1440 1.439 . S
C1441 C1470 1.392 1_545 S
N1442 Co1436 2.008 1_565 S
N1442 C1443 1.376 . S
N1442 C1446 1.374 . S
C1443 N1442 1.376 . S
C1443 C1444 1.443 . S
C1443 C1470 1.389 . S
C1444 C1443 1.443 . S
C1444 C1445 1.340 . S
C1444 H1476 0.951 . S
C1445 C1444 1.340 . S
C1445 C1446 1.439 . S
C1445 H1477 0.950 . S
C1446 N1442 1.374 . S
C1446 C1445 1.439 . S
C1446 C1471 1.395 . S
N1447 Co1436 1.995 1_564 S
N1447 C1448 1.376 1_554 S
N1447 C1451 1.383 1_565 S
C1448 N1447 1.376 1_556 S
C1448 C1449 1.446 1_556 S
C1448 C1471 1.391 . S
C1449 C1448 1.446 1_554 S
C1449 C1450 1.339 . S
C1449 H1478 0.949 . S
C1450 C1449 1.339 . S
C1450 C1451 1.439 1_565 S
C1450 H1479 0.950 . S
C1451 N1447 1.383 1_545 S
C1451 C1450 1.439 1_545 S
C1451 C1469 1.392 . S
N1452 Co1436 2.282 . S
N1452 C1455 1.332 1_545 S
N1452 C1457 1.332 . S
C1453 C1454 1.386 1_545 S
C1453 C1456 1.388 . S
C1454 C1453 1.386 1_565 S
C1454 C1455 1.382 . S
C1454 H1480 0.950 . S
C1455 N1452 1.332 1_565 S
C1455 C1454 1.382 . S
C1455 H1466 0.952 . S
C1456 C1453 1.388 . S
C1456 C1457 1.382 . S
C1456 H1481 0.950 . S
C1457 N1452 1.332 . S
C1457 C1456 1.382 . S
C1457 H1467 0.948 . S
N1458 Co1436 2.282 1_554 S
N1458 C1462 1.332 . S
N1458 C1463 1.332 1_545 S
C1459 C1460 1.388 1_565 S
C1459 C1463 1.382 . S
C1459 H1482 0.950 . S
C1460 C1459 1.388 1_545 S
C1460 C1461 1.386 . S
C1461 C1460 1.386 . S
C1461 C1462 1.382 . S
C1461 H1483 0.950 . S
C1462 N1458 1.332 . S
C1462 C1461 1.382 . S
C1462 H1464 0.952 . S
C1463 N1458 1.332 1_565 S
C1463 C1459 1.382 . S
C1463 H1465 0.948 . S
H1464 C1462 0.952 . S
H1465 C1463 0.948 . S
H1466 C1455 0.952 . S
H1467 C1457 0.948 . S
C1468 C1434 1.395 . S
C1468 C1438 1.391 . S
C1469 C1431 1.389 . S
C1469 C1451 1.392 . S
C1470 C1441 1.392 1_565 S
C1470 C1443 1.389 . S
C1471 C1446 1.395 . S
C1471 C1448 1.391 . S
H1472 C1432 0.951 . S
H1473 C1433 0.950 . S
H1474 C1439 0.949 . S
H1475 C1440 0.950 . S
H1476 C1444 0.951 . S
H1477 C1445 0.950 . S
H1478 C1449 0.949 . S
H1479 C1450 0.950 . S
H1480 C1454 0.950 . S
H1481 C1456 0.950 . S
H1482 C1459 0.950 . S
H1483 C1461 0.950 . S
C1484 C1485 1.443 . S
C1484 N1488 1.376 . S
C1484 C1522 1.389 . S
C1485 C1484 1.443 . S
C1485 C1486 1.340 . S
C1485 H1525 0.951 . S
C1486 C1485 1.340 . S
C1486 C1487 1.439 . S
C1486 H1526 0.950 . S
C1487 C1486 1.439 . S
C1487 N1488 1.374 . S
C1487 C1521 1.395 . S
N1488 C1484 1.376 . S
N1488 C1487 1.374 . S
N1488 Co1489 2.008 1_554 S
Co1489 N1488 2.008 1_556 S
Co1489 N1490 1.995 . S
Co1489 N1495 2.008 1_655 S
Co1489 N1500 1.995 1_656 S
Co1489 N1505 2.282 . S
Co1489 N1511 2.282 1_556 S
N1490 Co1489 1.995 . S
N1490 C1491 1.376 1_556 S
N1490 C1494 1.383 . S
C1491 N1490 1.376 1_554 S
C1491 C1492 1.446 1_554 S
C1491 C1521 1.391 . S
C1492 C1491 1.446 1_556 S
C1492 C1493 1.339 . S
C1492 H1527 0.949 . S
C1493 C1492 1.339 . S
C1493 C1494 1.439 . S
C1493 H1528 0.950 . S
C1494 N1490 1.383 . S
C1494 C1493 1.439 . S
C1494 C1523 1.392 1_655 S
N1495 Co1489 2.008 1_455 S
N1495 C1496 1.376 . S
N1495 C1499 1.374 . S
C1496 N1495 1.376 . S
C1496 C1497 1.443 . S
C1496 C1523 1.389 . S
C1497 C1496 1.443 . S
C1497 C1498 1.340 . S
C1497 H1529 0.951 . S
C1498 C1497 1.340 . S
C1498 C1499 1.439 . S
C1498 H1530 0.950 . S
C1499 N1495 1.374 . S
C1499 C1498 1.439 . S
C1499 C1524 1.395 . S
N1500 Co1489 1.995 1_454 S
N1500 C1501 1.376 1_554 S
N1500 C1504 1.383 1_455 S
C1501 N1500 1.376 1_556 S
C1501 C1502 1.446 1_556 S
C1501 C1524 1.391 . S
C1502 C1501 1.446 1_554 S
C1502 C1503 1.339 . S
C1502 H1531 0.949 . S
C1503 C1502 1.339 . S
C1503 C1504 1.439 1_455 S
C1503 H1532 0.950 . S
C1504 N1500 1.383 1_655 S
C1504 C1503 1.439 1_655 S
C1504 C1522 1.392 . S
N1505 Co1489 2.282 . S
N1505 C1508 1.332 1_655 S
N1505 C1510 1.332 . S
C1506 C1507 1.386 1_655 S
C1506 C1509 1.388 . S
C1507 C1506 1.386 1_455 S
C1507 C1508 1.382 . S
C1507 H1533 0.950 . S
C1508 N1505 1.332 1_455 S
C1508 C1507 1.382 . S
C1508 H1519 0.952 . S
C1509 C1506 1.388 . S
C1509 C1510 1.382 . S
C1509 H1534 0.950 . S
C1510 N1505 1.332 . S
C1510 C1509 1.382 . S
C1510 H1520 0.948 . S
N1511 Co1489 2.282 1_554 S
N1511 C1515 1.332 . S
N1511 C1516 1.332 1_655 S
C1512 C1513 1.388 1_455 S
C1512 C1516 1.382 . S
C1512 H1535 0.950 . S
C1513 C1512 1.388 1_655 S
C1513 C1514 1.386 . S
C1514 C1513 1.386 . S
C1514 C1515 1.382 . S
C1514 H1536 0.950 . S
C1515 N1511 1.332 . S
C1515 C1514 1.382 . S
C1515 H1517 0.952 . S
C1516 N1511 1.332 1_455 S
C1516 C1512 1.382 . S
C1516 H1518 0.948 . S
H1517 C1515 0.952 . S
H1518 C1516 0.948 . S
H1519 C1508 0.952 . S
H1520 C1510 0.948 . S
C1521 C1487 1.395 . S
C1521 C1491 1.391 . S
C1522 C1484 1.389 . S
C1522 C1504 1.392 . S
C1523 C1494 1.392 1_455 S
C1523 C1496 1.389 . S
C1524 C1499 1.395 . S
C1524 C1501 1.391 . S
H1525 C1485 0.951 . S
H1526 C1486 0.950 . S
H1527 C1492 0.949 . S
H1528 C1493 0.950 . S
H1529 C1497 0.951 . S
H1530 C1498 0.950 . S
H1531 C1502 0.949 . S
H1532 C1503 0.950 . S
H1533 C1507 0.950 . S
H1534 C1509 0.950 . S
H1535 C1512 0.950 . S
H1536 C1514 0.950 . S
C1537 C1538 1.443 . S
C1537 N1541 1.376 . S
C1537 C1575 1.389 . S
C1538 C1537 1.443 . S
C1538 C1539 1.340 . S
C1538 H1578 0.951 . S
C1539 C1538 1.340 . S
C1539 C1540 1.439 . S
C1539 H1579 0.950 . S
C1540 C1539 1.439 . S
C1540 N1541 1.374 . S
C1540 C1574 1.395 . S
N1541 C1537 1.376 . S
N1541 C1540 1.374 . S
N1541 Co1542 2.008 1_554 S
Co1542 N1541 2.008 1_556 S
Co1542 N1543 1.995 . S
Co1542 N1548 2.008 . S
Co1542 N1553 1.995 1_556 S
Co1542 N1558 2.282 . S
Co1542 N1564 2.282 1_556 S
N1543 Co1542 1.995 . S
N1543 C1544 1.376 1_556 S
N1543 C1547 1.383 . S
C1544 N1543 1.376 1_554 S
C1544 C1545 1.446 1_554 S
C1544 C1574 1.391 . S
C1545 C1544 1.446 1_556 S
C1545 C1546 1.339 . S
C1545 H1580 0.949 . S
C1546 C1545 1.339 . S
C1546 C1547 1.439 . S
C1546 H1581 0.950 . S
C1547 N1543 1.383 . S
C1547 C1546 1.439 . S
C1547 C1576 1.392 . S
N1548 Co1542 2.008 . S
N1548 C1549 1.376 . S
N1548 C1552 1.374 . S
C1549 N1548 1.376 . S
C1549 C1550 1.443 . S
C1549 C1576 1.389 . S
C1550 C1549 1.443 . S
C1550 C1551 1.340 . S
C1550 H1582 0.951 . S
C1551 C1550 1.340 . S
C1551 C1552 1.439 . S
C1551 H1583 0.950 . S
C1552 N1548 1.374 . S
C1552 C1551 1.439 . S
C1552 C1577 1.395 . S
N1553 Co1542 1.995 1_554 S
N1553 C1554 1.376 1_554 S
N1553 C1557 1.383 . S
C1554 N1553 1.376 1_556 S
C1554 C1555 1.446 1_556 S
C1554 C1577 1.391 . S
C1555 C1554 1.446 1_554 S
C1555 C1556 1.339 . S
C1555 H1584 0.949 . S
C1556 C1555 1.339 . S
C1556 C1557 1.439 . S
C1556 H1585 0.950 . S
C1557 N1553 1.383 . S
C1557 C1556 1.439 . S
C1557 C1575 1.392 . S
N1558 Co1542 2.282 . S
N1558 C1561 1.332 . S
N1558 C1563 1.332 . S
C1559 C1560 1.386 . S
C1559 C1562 1.388 . S
C1560 C1559 1.386 . S
C1560 C1561 1.382 . S
C1560 H1586 0.950 . S
C1561 N1558 1.332 . S
C1561 C1560 1.382 . S
C1561 H1572 0.952 . S
C1562 C1559 1.388 . S
C1562 C1563 1.382 . S
C1562 H1587 0.950 . S
C1563 N1558 1.332 . S
C1563 C1562 1.382 . S
C1563 H1573 0.948 . S
N1564 Co1542 2.282 1_554 S
N1564 C1568 1.332 . S
N1564 C1569 1.332 . S
C1565 C1566 1.388 . S
C1565 C1569 1.382 . S
C1565 H1588 0.950 . S
C1566 C1565 1.388 . S
C1566 C1567 1.386 . S
C1567 C1566 1.386 . S
C1567 C1568 1.382 . S
C1567 H1589 0.950 . S
C1568 N1564 1.332 . S
C1568 C1567 1.382 . S
C1568 H1570 0.952 . S
C1569 N1564 1.332 . S
C1569 C1565 1.382 . S
C1569 H1571 0.948 . S
H1570 C1568 0.952 . S
H1571 C1569 0.948 . S
H1572 C1561 0.952 . S
H1573 C1563 0.948 . S
C1574 C1540 1.395 . S
C1574 C1544 1.391 . S
C1575 C1537 1.389 . S
C1575 C1557 1.392 . S
C1576 C1547 1.392 . S
C1576 C1549 1.389 . S
C1577 C1552 1.395 . S
C1577 C1554 1.391 . S
H1578 C1538 0.951 . S
H1579 C1539 0.950 . S
H1580 C1545 0.949 . S
H1581 C1546 0.950 . S
H1582 C1550 0.951 . S
H1583 C1551 0.950 . S
H1584 C1555 0.949 . S
H1585 C1556 0.950 . S
H1586 C1560 0.950 . S
H1587 C1562 0.950 . S
H1588 C1565 0.950 . S
H1589 C1567 0.950 . S
C1590 C1591 1.443 . S
C1590 N1594 1.376 . S
C1590 C1628 1.389 1_455 S
C1591 C1590 1.443 . S
C1591 C1592 1.340 . S
C1591 H1631 0.951 . S
C1592 C1591 1.340 . S
C1592 C1593 1.439 . S
C1592 H1632 0.950 . S
C1593 C1592 1.439 . S
C1593 N1594 1.374 . S
C1593 C1627 1.395 . S
N1594 C1590 1.376 . S
N1594 C1593 1.374 . S
N1594 Co1595 2.008 1_455 S
Co1595 N1594 2.008 1_655 S
Co1595 N1596 1.995 1_655 S
Co1595 N1601 2.008 . S
Co1595 N1606 1.995 . S
Co1595 N1611 2.282 . S
Co1595 N1617 2.282 . S
N1596 Co1595 1.995 1_455 S
N1596 C1597 1.376 . S
N1596 C1600 1.383 . S
C1597 N1596 1.376 . S
C1597 C1598 1.446 . S
C1597 C1627 1.391 . S
C1598 C1597 1.446 . S
C1598 C1599 1.339 . S
C1598 H1633 0.949 . S
C1599 C1598 1.339 . S
C1599 C1600 1.439 . S
C1599 H1634 0.950 . S
C1600 N1596 1.383 . S
C1600 C1599 1.439 . S
C1600 C1629 1.392 . S
N1601 Co1595 2.008 . S
N1601 C1602 1.376 . S
N1601 C1605 1.374 . S
C1602 N1601 1.376 . S
C1602 C1603 1.443 . S
C1602 C1629 1.389 1_655 S
C1603 C1602 1.443 . S
C1603 C1604 1.340 . S
C1603 H1635 0.951 . S
C1604 C1603 1.340 . S
C1604 C1605 1.439 . S
C1604 H1636 0.950 . S
C1605 N1601 1.374 . S
C1605 C1604 1.439 . S
C1605 C1630 1.395 . S
N1606 Co1595 1.995 . S
N1606 C1607 1.376 . S
N1606 C1610 1.383 . S
C1607 N1606 1.376 . S
C1607 C1608 1.446 . S
C1607 C1630 1.391 . S
C1608 C1607 1.446 . S
C1608 C1609 1.339 . S
C1608 H1637 0.949 . S
C1609 C1608 1.339 . S
C1609 C1610 1.439 . S
C1609 H1638 0.950 . S
C1610 N1606 1.383 . S
C1610 C1609 1.439 . S
C1610 C1628 1.392 . S
N1611 Co1595 2.282 . S
N1611 C1614 1.332 . S
N1611 C1616 1.332 1_655 S
C1612 C1613 1.386 . S
C1612 C1615 1.388 1_655 S
C1613 C1612 1.386 . S
C1613 C1614 1.382 . S
C1613 H1639 0.950 . S
C1614 N1611 1.332 . S
C1614 C1613 1.382 . S
C1614 H1625 0.952 . S
C1615 C1612 1.388 1_455 S
C1615 C1616 1.382 . S
C1615 H1640 0.950 . S
C1616 N1611 1.332 1_455 S
C1616 C1615 1.382 . S
C1616 H1626 0.948 . S
N1617 Co1595 2.282 . S
N1617 C1621 1.332 1_655 S
N1617 C1622 1.332 . S
C1618 C1619 1.388 . S
C1618 C1622 1.382 . S
C1618 H1641 0.950 . S
C1619 C1618 1.388 . S
C1619 C1620 1.386 1_655 S
C1620 C1619 1.386 1_455 S
C1620 C1621 1.382 . S
C1620 H1642 0.950 . S
C1621 N1617 1.332 1_455 S
C1621 C1620 1.382 . S
C1621 H1623 0.952 . S
C1622 N1617 1.332 . S
C1622 C1618 1.382 . S
C1622 H1624 0.948 . S
H1623 C1621 0.952 . S
H1624 C1622 0.948 . S
H1625 C1614 0.952 . S
H1626 C1616 0.948 . S
C1627 C1593 1.395 . S
C1627 C1597 1.391 . S
C1628 C1590 1.389 1_655 S
C1628 C1610 1.392 . S
C1629 C1600 1.392 . S
C1629 C1602 1.389 1_455 S
C1630 C1605 1.395 . S
C1630 C1607 1.391 . S
H1631 C1591 0.951 . S
H1632 C1592 0.950 . S
H1633 C1598 0.949 . S
H1634 C1599 0.950 . S
H1635 C1603 0.951 . S
H1636 C1604 0.950 . S
H1637 C1608 0.949 . S
H1638 C1609 0.950 . S
H1639 C1613 0.950 . S
H1640 C1615 0.950 . S
H1641 C1618 0.950 . S
H1642 C1620 0.950 . S
C1643 C1644 1.443 . S
C1643 N1647 1.376 . S
C1643 C1681 1.389 . S
C1644 C1643 1.443 . S
C1644 C1645 1.340 . S
C1644 H1684 0.951 . S
C1645 C1644 1.340 . S
C1645 C1646 1.439 . S
C1645 H1685 0.950 . S
C1646 C1645 1.439 . S
C1646 N1647 1.374 . S
C1646 C1680 1.395 . S
N1647 C1643 1.376 . S
N1647 C1646 1.374 . S
N1647 Co1648 2.008 . S
Co1648 N1647 2.008 . S
Co1648 N1649 1.995 . S
Co1648 N1654 2.008 . S
Co1648 N1659 1.995 . S
Co1648 N1664 2.282 . S
Co1648 N1670 2.282 . S
N1649 Co1648 1.995 . S
N1649 C1650 1.376 . S
N1649 C1653 1.383 . S
C1650 N1649 1.376 . S
C1650 C1651 1.446 . S
C1650 C1680 1.391 . S
C1651 C1650 1.446 . S
C1651 C1652 1.339 . S
C1651 H1686 0.949 . S
C1652 C1651 1.339 . S
C1652 C1653 1.439 . S
C1652 H1687 0.950 . S
C1653 N1649 1.383 . S
C1653 C1652 1.439 . S
C1653 C1682 1.392 . S
N1654 Co1648 2.008 . S
N1654 C1655 1.376 . S
N1654 C1658 1.374 . S
C1655 N1654 1.376 . S
C1655 C1656 1.443 . S
C1655 C1682 1.389 . S
C1656 C1655 1.443 . S
C1656 C1657 1.340 . S
C1656 H1688 0.951 . S
C1657 C1656 1.340 . S
C1657 C1658 1.439 . S
C1657 H1689 0.950 . S
C1658 N1654 1.374 . S
C1658 C1657 1.439 . S
C1658 C1683 1.395 . S
N1659 Co1648 1.995 . S
N1659 C1660 1.376 . S
N1659 C1663 1.383 . S
C1660 N1659 1.376 . S
C1660 C1661 1.446 . S
C1660 C1683 1.391 . S
C1661 C1660 1.446 . S
C1661 C1662 1.339 . S
C1661 H1690 0.949 . S
C1662 C1661 1.339 . S
C1662 C1663 1.439 . S
C1662 H1691 0.950 . S
C1663 N1659 1.383 . S
C1663 C1662 1.439 . S
C1663 C1681 1.392 . S
N1664 Co1648 2.282 . S
N1664 C1667 1.332 . S
N1664 C1669 1.332 . S
C1665 C1666 1.386 . S
C1665 C1668 1.388 . S
C1666 C1665 1.386 . S
C1666 C1667 1.382 . S
C1666 H1692 0.950 . S
C1667 N1664 1.332 . S
C1667 C1666 1.382 . S
C1667 H1678 0.952 . S
C1668 C1665 1.388 . S
C1668 C1669 1.382 . S
C1668 H1693 0.950 . S
C1669 N1664 1.332 . S
C1669 C1668 1.382 . S
C1669 H1679 0.948 . S
N1670 Co1648 2.282 . S
N1670 C1674 1.332 . S
N1670 C1675 1.332 . S
C1671 C1672 1.388 . S
C1671 C1675 1.382 . S
C1671 H1694 0.950 . S
C1672 C1671 1.388 . S
C1672 C1673 1.386 . S
C1673 C1672 1.386 . S
C1673 C1674 1.382 . S
C1673 H1695 0.950 . S
C1674 N1670 1.332 . S
C1674 C1673 1.382 . S
C1674 H1676 0.952 . S
C1675 N1670 1.332 . S
C1675 C1671 1.382 . S
C1675 H1677 0.948 . S
H1676 C1674 0.952 . S
H1677 C1675 0.948 . S
H1678 C1667 0.952 . S
H1679 C1669 0.948 . S
C1680 C1646 1.395 . S
C1680 C1650 1.391 . S
C1681 C1643 1.389 . S
C1681 C1663 1.392 . S
C1682 C1653 1.392 . S
C1682 C1655 1.389 . S
C1683 C1658 1.395 . S
C1683 C1660 1.391 . S
H1684 C1644 0.951 . S
H1685 C1645 0.950 . S
H1686 C1651 0.949 . S
H1687 C1652 0.950 . S
H1688 C1656 0.951 . S
H1689 C1657 0.950 . S
H1690 C1661 0.949 . S
H1691 C1662 0.950 . S
H1692 C1666 0.950 . S
H1693 C1668 0.950 . S
H1694 C1671 0.950 . S
H1695 C1673 0.950 . S
C1696 C1697 1.443 . S
C1696 N1700 1.376 . S
C1696 C1734 1.389 1_565 S
C1697 C1696 1.443 . S
C1697 C1698 1.340 . S
C1697 H1737 0.951 . S
C1698 C1697 1.340 . S
C1698 C1699 1.439 . S
C1698 H1738 0.950 . S
C1699 C1698 1.439 . S
C1699 N1700 1.374 . S
C1699 C1733 1.395 . S
N1700 C1696 1.376 . S
N1700 C1699 1.374 . S
N1700 Co1701 2.008 1_565 S
Co1701 N1700 2.008 1_545 S
Co1701 N1702 1.995 1_545 S
Co1701 N1707 2.008 . S
Co1701 N1712 1.995 . S
Co1701 N1717 2.282 . S
Co1701 N1723 2.282 . S
N1702 Co1701 1.995 1_565 S
N1702 C1703 1.376 . S
N1702 C1706 1.383 . S
C1703 N1702 1.376 . S
C1703 C1704 1.446 . S
C1703 C1733 1.391 . S
C1704 C1703 1.446 . S
C1704 C1705 1.339 . S
C1704 H1739 0.949 . S
C1705 C1704 1.339 . S
C1705 C1706 1.439 . S
C1705 H1740 0.950 . S
C1706 N1702 1.383 . S
C1706 C1705 1.439 . S
C1706 C1735 1.392 . S
N1707 Co1701 2.008 . S
N1707 C1708 1.376 . S
N1707 C1711 1.374 . S
C1708 N1707 1.376 . S
C1708 C1709 1.443 . S
C1708 C1735 1.389 1_545 S
C1709 C1708 1.443 . S
C1709 C1710 1.340 . S
C1709 H1741 0.951 . S
C1710 C1709 1.340 . S
C1710 C1711 1.439 . S
C1710 H1742 0.950 . S
C1711 N1707 1.374 . S
C1711 C1710 1.439 . S
C1711 C1736 1.395 . S
N1712 Co1701 1.995 . S
N1712 C1713 1.376 . S
N1712 C1716 1.383 . S
C1713 N1712 1.376 . S
C1713 C1714 1.446 . S
C1713 C1736 1.391 . S
C1714 C1713 1.446 . S
C1714 C1715 1.339 . S
C1714 H1743 0.949 . S
C1715 C1714 1.339 . S
C1715 C1716 1.439 . S
C1715 H1744 0.950 . S
C1716 N1712 1.383 . S
C1716 C1715 1.439 . S
C1716 C1734 1.392 . S
N1717 Co1701 2.282 . S
N1717 C1720 1.332 . S
N1717 C1722 1.332 1_545 S
C1718 C1719 1.386 . S
C1718 C1721 1.388 1_545 S
C1719 C1718 1.386 . S
C1719 C1720 1.382 . S
C1719 H1745 0.950 . S
C1720 N1717 1.332 . S
C1720 C1719 1.382 . S
C1720 H1731 0.952 . S
C1721 C1718 1.388 1_565 S
C1721 C1722 1.382 . S
C1721 H1746 0.950 . S
C1722 N1717 1.332 1_565 S
C1722 C1721 1.382 . S
C1722 H1732 0.948 . S
N1723 Co1701 2.282 . S
N1723 C1727 1.332 1_545 S
N1723 C1728 1.332 . S
C1724 C1725 1.388 . S
C1724 C1728 1.382 . S
C1724 H1747 0.950 . S
C1725 C1724 1.388 . S
C1725 C1726 1.386 1_545 S
C1726 C1725 1.386 1_565 S
C1726 C1727 1.382 . S
C1726 H1748 0.950 . S
C1727 N1723 1.332 1_565 S
C1727 C1726 1.382 . S
C1727 H1729 0.952 . S
C1728 N1723 1.332 . S
C1728 C1724 1.382 . S
C1728 H1730 0.948 . S
H1729 C1727 0.952 . S
H1730 C1728 0.948 . S
H1731 C1720 0.952 . S
H1732 C1722 0.948 . S
C1733 C1699 1.395 . S
C1733 C1703 1.391 . S
C1734 C1696 1.389 1_545 S
C1734 C1716 1.392 . S
C1735 C1706 1.392 . S
C1735 C1708 1.389 1_565 S
C1736 C1711 1.395 . S
C1736 C1713 1.391 . S
H1737 C1697 0.951 . S
H1738 C1698 0.950 . S
H1739 C1704 0.949 . S
H1740 C1705 0.950 . S
H1741 C1709 0.951 . S
H1742 C1710 0.950 . S
H1743 C1714 0.949 . S
H1744 C1715 0.950 . S
H1745 C1719 0.950 . S
H1746 C1721 0.950 . S
H1747 C1724 0.950 . S
H1748 C1726 0.950 . S
C1749 C1750 1.443 . S
C1749 N1753 1.376 . S
C1749 C1787 1.389 . S
C1750 C1749 1.443 . S
C1750 C1751 1.340 . S
C1750 H1790 0.951 . S
C1751 C1750 1.340 . S
C1751 C1752 1.439 . S
C1751 H1791 0.950 . S
C1752 C1751 1.439 . S
C1752 N1753 1.374 . S
C1752 C1786 1.395 . S
N1753 C1749 1.376 . S
N1753 C1752 1.374 . S
N1753 Co1754 2.008 . S
Co1754 N1753 2.008 . S
Co1754 N1755 1.995 . S
Co1754 N1760 2.008 . S
Co1754 N1765 1.995 . S
Co1754 N1770 2.282 . S
Co1754 N1776 2.282 . S
N1755 Co1754 1.995 . S
N1755 C1756 1.376 . S
N1755 C1759 1.383 . S
C1756 N1755 1.376 . S
C1756 C1757 1.446 . S
C1756 C1786 1.391 . S
C1757 C1756 1.446 . S
C1757 C1758 1.339 . S
C1757 H1792 0.949 . S
C1758 C1757 1.339 . S
C1758 C1759 1.439 . S
C1758 H1793 0.950 . S
C1759 N1755 1.383 . S
C1759 C1758 1.439 . S
C1759 C1788 1.392 . S
N1760 Co1754 2.008 . S
N1760 C1761 1.376 . S
N1760 C1764 1.374 . S
C1761 N1760 1.376 . S
C1761 C1762 1.443 . S
C1761 C1788 1.389 . S
C1762 C1761 1.443 . S
C1762 C1763 1.340 . S
C1762 H1794 0.951 . S
C1763 C1762 1.340 . S
C1763 C1764 1.439 . S
C1763 H1795 0.950 . S
C1764 N1760 1.374 . S
C1764 C1763 1.439 . S
C1764 C1789 1.395 . S
N1765 Co1754 1.995 . S
N1765 C1766 1.376 . S
N1765 C1769 1.383 . S
C1766 N1765 1.376 . S
C1766 C1767 1.446 . S
C1766 C1789 1.391 . S
C1767 C1766 1.446 . S
C1767 C1768 1.339 . S
C1767 H1796 0.949 . S
C1768 C1767 1.339 . S
C1768 C1769 1.439 . S
C1768 H1797 0.950 . S
C1769 N1765 1.383 . S
C1769 C1768 1.439 . S
C1769 C1787 1.392 . S
N1770 Co1754 2.282 . S
N1770 C1773 1.332 . S
N1770 C1775 1.332 . S
C1771 C1772 1.386 . S
C1771 C1774 1.388 . S
C1772 C1771 1.386 . S
C1772 C1773 1.382 . S
C1772 H1798 0.950 . S
C1773 N1770 1.332 . S
C1773 C1772 1.382 . S
C1773 H1784 0.952 . S
C1774 C1771 1.388 . S
C1774 C1775 1.382 . S
C1774 H1799 0.950 . S
C1775 N1770 1.332 . S
C1775 C1774 1.382 . S
C1775 H1785 0.948 . S
N1776 Co1754 2.282 . S
N1776 C1780 1.332 . S
N1776 C1781 1.332 . S
C1777 C1778 1.388 . S
C1777 C1781 1.382 . S
C1777 H1800 0.950 . S
C1778 C1777 1.388 . S
C1778 C1779 1.386 . S
C1779 C1778 1.386 . S
C1779 C1780 1.382 . S
C1779 H1801 0.950 . S
C1780 N1776 1.332 . S
C1780 C1779 1.382 . S
C1780 H1782 0.952 . S
C1781 N1776 1.332 . S
C1781 C1777 1.382 . S
C1781 H1783 0.948 . S
H1782 C1780 0.952 . S
H1783 C1781 0.948 . S
H1784 C1773 0.952 . S
H1785 C1775 0.948 . S
C1786 C1752 1.395 . S
C1786 C1756 1.391 . S
C1787 C1749 1.389 . S
C1787 C1769 1.392 . S
C1788 C1759 1.392 . S
C1788 C1761 1.389 . S
C1789 C1764 1.395 . S
C1789 C1766 1.391 . S
H1790 C1750 0.951 . S
H1791 C1751 0.950 . S
H1792 C1757 0.949 . S
H1793 C1758 0.950 . S
H1794 C1762 0.951 . S
H1795 C1763 0.950 . S
H1796 C1767 0.949 . S
H1797 C1768 0.950 . S
H1798 C1772 0.950 . S
H1799 C1774 0.950 . S
H1800 C1777 0.950 . S
H1801 C1779 0.950 . S
C1802 C1803 1.443 . S
C1802 N1806 1.376 . S
C1802 C1840 1.389 . S
C1803 C1802 1.443 . S
C1803 C1804 1.340 . S
C1803 H1843 0.951 . S
C1804 C1803 1.340 . S
C1804 C1805 1.439 . S
C1804 H1844 0.950 . S
C1805 C1804 1.439 . S
C1805 N1806 1.374 . S
C1805 C1839 1.395 . S
N1806 C1802 1.376 . S
N1806 C1805 1.374 . S
N1806 Co1807 2.008 . S
Co1807 N1806 2.008 . S
Co1807 N1808 1.995 . S
Co1807 N1813 2.008 . S
Co1807 N1818 1.995 . S
Co1807 N1823 2.282 . S
Co1807 N1829 2.282 . S
N1808 Co1807 1.995 . S
N1808 C1809 1.376 . S
N1808 C1812 1.383 . S
C1809 N1808 1.376 . S
C1809 C1810 1.446 . S
C1809 C1839 1.391 . S
C1810 C1809 1.446 . S
C1810 C1811 1.339 . S
C1810 H1845 0.949 . S
C1811 C1810 1.339 . S
C1811 C1812 1.439 . S
C1811 H1846 0.950 . S
C1812 N1808 1.383 . S
C1812 C1811 1.439 . S
C1812 C1841 1.392 . S
N1813 Co1807 2.008 . S
N1813 C1814 1.376 . S
N1813 C1817 1.374 . S
C1814 N1813 1.376 . S
C1814 C1815 1.443 . S
C1814 C1841 1.389 . S
C1815 C1814 1.443 . S
C1815 C1816 1.340 . S
C1815 H1847 0.951 . S
C1816 C1815 1.340 . S
C1816 C1817 1.439 . S
C1816 H1848 0.950 . S
C1817 N1813 1.374 . S
C1817 C1816 1.439 . S
C1817 C1842 1.395 . S
N1818 Co1807 1.995 . S
N1818 C1819 1.376 . S
N1818 C1822 1.383 . S
C1819 N1818 1.376 . S
C1819 C1820 1.446 . S
C1819 C1842 1.391 . S
C1820 C1819 1.446 . S
C1820 C1821 1.339 . S
C1820 H1849 0.949 . S
C1821 C1820 1.339 . S
C1821 C1822 1.439 . S
C1821 H1850 0.950 . S
C1822 N1818 1.383 . S
C1822 C1821 1.439 . S
C1822 C1840 1.392 . S
N1823 Co1807 2.282 . S
N1823 C1826 1.332 . S
N1823 C1828 1.332 . S
C1824 C1825 1.386 . S
C1824 C1827 1.388 . S
C1825 C1824 1.386 . S
C1825 C1826 1.382 . S
C1825 H1851 0.950 . S
C1826 N1823 1.332 . S
C1826 C1825 1.382 . S
C1826 H1837 0.952 . S
C1827 C1824 1.388 . S
C1827 C1828 1.382 . S
C1827 H1852 0.950 . S
C1828 N1823 1.332 . S
C1828 C1827 1.382 . S
C1828 H1838 0.948 . S
N1829 Co1807 2.282 . S
N1829 C1833 1.332 . S
N1829 C1834 1.332 . S
C1830 C1831 1.388 . S
C1830 C1834 1.382 . S
C1830 H1853 0.950 . S
C1831 C1830 1.388 . S
C1831 C1832 1.386 . S
C1832 C1831 1.386 . S
C1832 C1833 1.382 . S
C1832 H1854 0.950 . S
C1833 N1829 1.332 . S
C1833 C1832 1.382 . S
C1833 H1835 0.952 . S
C1834 N1829 1.332 . S
C1834 C1830 1.382 . S
C1834 H1836 0.948 . S
H1835 C1833 0.952 . S
H1836 C1834 0.948 . S
H1837 C1826 0.952 . S
H1838 C1828 0.948 . S
C1839 C1805 1.395 . S
C1839 C1809 1.391 . S
C1840 C1802 1.389 . S
C1840 C1822 1.392 . S
C1841 C1812 1.392 . S
C1841 C1814 1.389 . S
C1842 C1817 1.395 . S
C1842 C1819 1.391 . S
H1843 C1803 0.951 . S
H1844 C1804 0.950 . S
H1845 C1810 0.949 . S
H1846 C1811 0.950 . S
H1847 C1815 0.951 . S
H1848 C1816 0.950 . S
H1849 C1820 0.949 . S
H1850 C1821 0.950 . S
H1851 C1825 0.950 . S
H1852 C1827 0.950 . S
H1853 C1830 0.950 . S
H1854 C1832 0.950 . S
C1855 C1856 1.443 . S
C1855 N1859 1.376 . S
C1855 C1893 1.389 . S
C1856 C1855 1.443 . S
C1856 C1857 1.340 . S
C1856 H1896 0.951 . S
C1857 C1856 1.340 . S
C1857 C1858 1.439 . S
C1857 H1897 0.950 . S
C1858 C1857 1.439 . S
C1858 N1859 1.374 . S
C1858 C1892 1.395 . S
N1859 C1855 1.376 . S
N1859 C1858 1.374 . S
N1859 Co1860 2.008 . S
Co1860 N1859 2.008 . S
Co1860 N1861 1.995 . S
Co1860 N1866 2.008 . S
Co1860 N1871 1.995 . S
Co1860 N1876 2.282 . S
Co1860 N1882 2.282 . S
N1861 Co1860 1.995 . S
N1861 C1862 1.376 . S
N1861 C1865 1.383 . S
C1862 N1861 1.376 . S
C1862 C1863 1.446 . S
C1862 C1892 1.391 . S
C1863 C1862 1.446 . S
C1863 C1864 1.339 . S
C1863 H1898 0.949 . S
C1864 C1863 1.339 . S
C1864 C1865 1.439 . S
C1864 H1899 0.950 . S
C1865 N1861 1.383 . S
C1865 C1864 1.439 . S
C1865 C1894 1.392 . S
N1866 Co1860 2.008 . S
N1866 C1867 1.376 . S
N1866 C1870 1.374 . S
C1867 N1866 1.376 . S
C1867 C1868 1.443 . S
C1867 C1894 1.389 . S
C1868 C1867 1.443 . S
C1868 C1869 1.340 . S
C1868 H1900 0.951 . S
C1869 C1868 1.340 . S
C1869 C1870 1.439 . S
C1869 H1901 0.950 . S
C1870 N1866 1.374 . S
C1870 C1869 1.439 . S
C1870 C1895 1.395 . S
N1871 Co1860 1.995 . S
N1871 C1872 1.376 . S
N1871 C1875 1.383 . S
C1872 N1871 1.376 . S
C1872 C1873 1.446 . S
C1872 C1895 1.391 . S
C1873 C1872 1.446 . S
C1873 C1874 1.339 . S
C1873 H1902 0.949 . S
C1874 C1873 1.339 . S
C1874 C1875 1.439 . S
C1874 H1903 0.950 . S
C1875 N1871 1.383 . S
C1875 C1874 1.439 . S
C1875 C1893 1.392 . S
N1876 Co1860 2.282 . S
N1876 C1879 1.332 . S
N1876 C1881 1.332 . S
C1877 C1878 1.386 . S
C1877 C1880 1.388 . S
C1878 C1877 1.386 . S
C1878 C1879 1.382 . S
C1878 H1904 0.950 . S
C1879 N1876 1.332 . S
C1879 C1878 1.382 . S
C1879 H1890 0.952 . S
C1880 C1877 1.388 . S
C1880 C1881 1.382 . S
C1880 H1905 0.950 . S
C1881 N1876 1.332 . S
C1881 C1880 1.382 . S
C1881 H1891 0.948 . S
N1882 Co1860 2.282 . S
N1882 C1886 1.332 . S
N1882 C1887 1.332 . S
C1883 C1884 1.388 . S
C1883 C1887 1.382 . S
C1883 H1906 0.950 . S
C1884 C1883 1.388 . S
C1884 C1885 1.386 . S
C1885 C1884 1.386 . S
C1885 C1886 1.382 . S
C1885 H1907 0.950 . S
C1886 N1882 1.332 . S
C1886 C1885 1.382 . S
C1886 H1888 0.952 . S
C1887 N1882 1.332 . S
C1887 C1883 1.382 . S
C1887 H1889 0.948 . S
H1888 C1886 0.952 . S
H1889 C1887 0.948 . S
H1890 C1879 0.952 . S
H1891 C1881 0.948 . S
C1892 C1858 1.395 . S
C1892 C1862 1.391 . S
C1893 C1855 1.389 . S
C1893 C1875 1.392 . S
C1894 C1865 1.392 . S
C1894 C1867 1.389 . S
C1895 C1870 1.395 . S
C1895 C1872 1.391 . S
H1896 C1856 0.951 . S
H1897 C1857 0.950 . S
H1898 C1863 0.949 . S
H1899 C1864 0.950 . S
H1900 C1868 0.951 . S
H1901 C1869 0.950 . S
H1902 C1873 0.949 . S
H1903 C1874 0.950 . S
H1904 C1878 0.950 . S
H1905 C1880 0.950 . S
H1906 C1883 0.950 . S
H1907 C1885 0.950 . S
C1908 C1909 1.387 . S
C1908 H1912 0.950 . S
C1908 C1917 1.390 . S
C1909 C1908 1.387 . S
C1909 C1911 1.387 . S
H1910 C1917 0.950 . S
C1911 C1909 1.387 . S
C1911 C1913 1.390 . S
C1911 H1915 0.950 . S
H1912 C1908 0.950 . S
C1913 C1911 1.390 . S
C1913 C1914 1.387 . S
C1913 H1916 0.950 . S
C1914 C1913 1.387 . S
C1914 C1917 1.387 . S
H1915 C1911 0.950 . S
H1916 C1913 0.950 . S
C1917 C1908 1.390 . S
C1917 H1910 0.950 . S
C1917 C1914 1.387 . S
C1918 C1919 1.387 . S
C1918 H1922 0.950 . S
C1918 C1927 1.390 . S
C1919 C1918 1.387 . S
C1919 C1921 1.387 . S
H1920 C1927 0.950 . S
C1921 C1919 1.387 . S
C1921 C1923 1.390 . S
C1921 H1925 0.950 . S
H1922 C1918 0.950 . S
C1923 C1921 1.390 . S
C1923 C1924 1.387 . S
C1923 H1926 0.950 . S
C1924 C1923 1.387 . S
C1924 C1927 1.387 . S
H1925 C1921 0.950 . S
H1926 C1923 0.950 . S
C1927 C1918 1.390 . S
C1927 H1920 0.950 . S
C1927 C1924 1.387 . S
C1928 C1929 1.387 . S
C1928 H1932 0.950 . S
C1928 C1937 1.390 . S
C1929 C1928 1.387 . S
C1929 C1931 1.387 . S
H1930 C1937 0.950 . S
C1931 C1929 1.387 . S
C1931 C1933 1.390 . S
C1931 H1935 0.950 . S
H1932 C1928 0.950 . S
C1933 C1931 1.390 . S
C1933 C1934 1.387 . S
C1933 H1936 0.950 . S
C1934 C1933 1.387 . S
C1934 C1937 1.387 . S
H1935 C1931 0.950 . S
H1936 C1933 0.950 . S
C1937 C1928 1.390 . S
C1937 H1930 0.950 . S
C1937 C1934 1.387 . S
C1938 C1939 1.387 . S
C1938 H1942 0.950 . S
C1938 C1947 1.390 . S
C1939 C1938 1.387 . S
C1939 C1941 1.387 . S
H1940 C1947 0.950 . S
C1941 C1939 1.387 . S
C1941 C1943 1.390 . S
C1941 H1945 0.950 . S
H1942 C1938 0.950 . S
C1943 C1941 1.390 . S
C1943 C1944 1.387 . S
C1943 H1946 0.950 . S
C1944 C1943 1.387 . S
C1944 C1947 1.387 . S
H1945 C1941 0.950 . S
H1946 C1943 0.950 . S
C1947 C1938 1.390 . S
C1947 H1940 0.950 . S
C1947 C1944 1.387 . S
C1948 C1949 1.387 . S
C1948 H1952 0.950 . S
C1948 C1957 1.390 . S
C1949 C1948 1.387 . S
C1949 C1951 1.387 . S
H1950 C1957 0.950 . S
C1951 C1949 1.387 . S
C1951 C1953 1.390 . S
C1951 H1955 0.950 . S
H1952 C1948 0.950 . S
C1953 C1951 1.390 . S
C1953 C1954 1.387 . S
C1953 H1956 0.950 . S
C1954 C1953 1.387 . S
C1954 C1957 1.387 . S
H1955 C1951 0.950 . S
H1956 C1953 0.950 . S
C1957 C1948 1.390 . S
C1957 H1950 0.950 . S
C1957 C1954 1.387 . S
C1958 C1959 1.387 . S
C1958 H1962 0.950 . S
C1958 C1967 1.390 . S
C1959 C1958 1.387 . S
C1959 C1961 1.387 . S
H1960 C1967 0.950 . S
C1961 C1959 1.387 . S
C1961 C1963 1.390 . S
C1961 H1965 0.950 . S
H1962 C1958 0.950 . S
C1963 C1961 1.390 . S
C1963 C1964 1.387 . S
C1963 H1966 0.950 . S
C1964 C1963 1.387 . S
C1964 C1967 1.387 . S
H1965 C1961 0.950 . S
H1966 C1963 0.950 . S
C1967 C1958 1.390 . S
C1967 H1960 0.950 . S
C1967 C1964 1.387 . S
C1968 C1969 1.387 . S
C1968 H1972 0.950 . S
C1968 C1977 1.390 . S
C1969 C1968 1.387 . S
C1969 C1971 1.387 . S
H1970 C1977 0.950 . S
C1971 C1969 1.387 . S
C1971 C1973 1.390 . S
C1971 H1975 0.950 . S
H1972 C1968 0.950 . S
C1973 C1971 1.390 . S
C1973 C1974 1.387 . S
C1973 H1976 0.950 . S
C1974 C1973 1.387 . S
C1974 C1977 1.387 . S
H1975 C1971 0.950 . S
H1976 C1973 0.950 . S
C1977 C1968 1.390 . S
C1977 H1970 0.950 . S
C1977 C1974 1.387 . S
C1978 C1979 1.387 . S
C1978 H1982 0.950 . S
C1978 C1987 1.390 . S
C1979 C1978 1.387 . S
C1979 C1981 1.387 . S
H1980 C1987 0.950 . S
C1981 C1979 1.387 . S
C1981 C1983 1.390 . S
C1981 H1985 0.950 . S
H1982 C1978 0.950 . S
C1983 C1981 1.390 . S
C1983 C1984 1.387 . S
C1983 H1986 0.950 . S
C1984 C1983 1.387 . S
C1984 C1987 1.387 . S
H1985 C1981 0.950 . S
H1986 C1983 0.950 . S
C1987 C1978 1.390 . S
C1987 H1980 0.950 . S
C1987 C1984 1.387 . S
C1988 C1989 1.387 . S
C1988 H1992 0.950 . S
C1988 C1997 1.390 . S
C1989 C1988 1.387 . S
C1989 C1991 1.387 . S
H1990 C1997 0.950 . S
C1991 C1989 1.387 . S
C1991 C1993 1.390 . S
C1991 H1995 0.950 . S
H1992 C1988 0.950 . S
C1993 C1991 1.390 . S
C1993 C1994 1.387 . S
C1993 H1996 0.950 . S
C1994 C1993 1.387 . S
C1994 C1997 1.387 . S
H1995 C1991 0.950 . S
H1996 C1993 0.950 . S
C1997 C1988 1.390 . S
C1997 H1990 0.950 . S
C1997 C1994 1.387 . S
C1998 C1999 1.387 . S
C1998 H2002 0.950 . S
C1998 C2007 1.390 . S
C1999 C1998 1.387 . S
C1999 C2001 1.387 . S
H2000 C2007 0.950 . S
C2001 C1999 1.387 . S
C2001 C2003 1.390 . S
C2001 H2005 0.950 . S
H2002 C1998 0.950 . S
C2003 C2001 1.390 . S
C2003 C2004 1.387 . S
C2003 H2006 0.950 . S
C2004 C2003 1.387 . S
C2004 C2007 1.387 . S
H2005 C2001 0.950 . S
H2006 C2003 0.950 . S
C2007 C1998 1.390 . S
C2007 H2000 0.950 . S
C2007 C2004 1.387 . S
C2008 C2009 1.387 . S
C2008 H2012 0.950 . S
C2008 C2017 1.390 . S
C2009 C2008 1.387 . S
C2009 C2011 1.387 . S
H2010 C2017 0.950 . S
C2011 C2009 1.387 . S
C2011 C2013 1.390 . S
C2011 H2015 0.950 . S
H2012 C2008 0.950 . S
C2013 C2011 1.390 . S
C2013 C2014 1.387 . S
C2013 H2016 0.950 . S
C2014 C2013 1.387 . S
C2014 C2017 1.387 . S
H2015 C2011 0.950 . S
H2016 C2013 0.950 . S
C2017 C2008 1.390 . S
C2017 H2010 0.950 . S
C2017 C2014 1.387 . S
C2018 C2019 1.387 . S
C2018 H2022 0.950 . S
C2018 C2027 1.390 . S
C2019 C2018 1.387 . S
C2019 C2021 1.387 . S
H2020 C2027 0.950 . S
C2021 C2019 1.387 . S
C2021 C2023 1.390 . S
C2021 H2025 0.950 . S
H2022 C2018 0.950 . S
C2023 C2021 1.390 . S
C2023 C2024 1.387 . S
C2023 H2026 0.950 . S
C2024 C2023 1.387 . S
C2024 C2027 1.387 . S
H2025 C2021 0.950 . S
H2026 C2023 0.950 . S
C2027 C2018 1.390 . S
C2027 H2020 0.950 . S
C2027 C2024 1.387 . S
C2028 C2029 1.387 . S
C2028 H2032 0.950 . S
C2028 C2037 1.390 . S
C2029 C2028 1.387 . S
C2029 C2031 1.387 1_655 S
H2030 C2037 0.950 . S
C2031 C2029 1.387 1_455 S
C2031 C2033 1.390 . S
C2031 H2035 0.950 . S
H2032 C2028 0.950 . S
C2033 C2031 1.390 . S
C2033 C2034 1.384 . S
C2033 H2036 0.950 . S
C2034 C2033 1.384 . S
C2034 C2037 1.387 1_455 S
H2035 C2031 0.950 . S
H2036 C2033 0.950 . S
C2037 C2028 1.390 . S
C2037 H2030 0.950 . S
C2037 C2034 1.387 1_655 S
C2038 C2039 1.387 . S
C2038 H2042 0.950 . S
C2038 C2047 1.390 . S
C2039 C2038 1.387 . S
C2039 C2041 1.387 . S
H2040 C2047 0.950 . S
C2041 C2039 1.387 . S
C2041 C2043 1.390 . S
C2041 H2045 0.950 . S
H2042 C2038 0.950 . S
C2043 C2041 1.390 . S
C2043 C2044 1.387 . S
C2043 H2046 0.950 . S
C2044 C2043 1.387 . S
C2044 C2047 1.387 . S
H2045 C2041 0.950 . S
H2046 C2043 0.950 . S
C2047 C2038 1.390 . S
C2047 H2040 0.950 . S
C2047 C2044 1.387 . S
C2048 C2049 1.387 . S
C2048 H2052 0.950 . S
C2048 C2057 1.390 . S
C2049 C2048 1.387 . S
C2049 C2051 1.387 . S
H2050 C2057 0.950 . S
C2051 C2049 1.387 . S
C2051 C2053 1.386 1_545 S
C2051 H2055 0.950 . S
H2052 C2048 0.950 . S
C2053 C2051 1.386 1_565 S
C2053 C2054 1.387 . S
C2053 H2056 0.935 . S
C2054 C2053 1.387 . S
C2054 C2057 1.405 1_565 S
H2055 C2051 0.950 . S
H2056 C2053 0.935 . S
C2057 C2048 1.390 . S
C2057 H2050 0.950 . S
C2057 C2054 1.405 1_545 S
C2058 C2059 1.344 1_565 S
C2058 H2062 0.950 . S
C2058 C2067 1.390 . S
C2059 C2058 1.344 1_545 S
C2059 C2061 1.427 . S
H2060 C2067 0.950 . S
C2061 C2059 1.427 . S
C2061 C2063 1.390 . S
C2061 H2065 0.950 . S
H2062 C2058 0.950 . S
C2063 C2061 1.390 . S
C2063 C2064 1.387 1_545 S
C2063 H2066 0.950 . S
C2064 C2063 1.387 1_565 S
C2064 C2067 1.387 . S
H2065 C2061 0.950 . S
H2066 C2063 0.950 . S
C2067 C2058 1.390 . S
C2067 H2060 0.950 . S
C2067 C2064 1.387 . S
C2068 C2069 1.386 . S
C2068 H2072 0.950 . S
C2068 C2077 1.390 . S
C2069 C2068 1.386 . S
C2069 C2071 1.385 1_655 S
H2070 C2077 0.950 . S
C2071 C2069 1.385 1_455 S
C2071 C2073 1.390 . S
C2071 H2075 0.950 . S
H2072 C2068 0.950 . S
C2073 C2071 1.390 . S
C2073 C2074 1.387 . S
C2073 H2076 0.950 . S
C2074 C2073 1.387 . S
C2074 C2077 1.387 1_455 S
H2075 C2071 0.950 . S
H2076 C2073 0.950 . S
C2077 C2068 1.390 . S
C2077 H2070 0.950 . S
C2077 C2074 1.387 1_655 S
C2078 C2079 1.387 . S
C2078 H2082 0.950 . S
C2078 C2087 1.390 . S
C2079 C2078 1.387 . S
C2079 C2081 1.387 . S
H2080 C2087 0.950 . S
C2081 C2079 1.387 . S
C2081 C2083 1.390 . S
C2081 H2085 0.950 . S
H2082 C2078 0.950 . S
C2083 C2081 1.390 . S
C2083 C2084 1.387 . S
C2083 H2086 0.950 . S
C2084 C2083 1.387 . S
C2084 C2087 1.387 . S
H2085 C2081 0.950 . S
H2086 C2083 0.950 . S
C2087 C2078 1.390 . S
C2087 H2080 0.950 . S
C2087 C2084 1.387 . S
C2088 C2089 1.387 . S
C2088 H2092 0.950 . S
C2088 C2097 1.390 . S
C2089 C2088 1.387 . S
C2089 C2091 1.387 . S
H2090 C2097 0.950 . S
C2091 C2089 1.387 . S
C2091 C2093 1.390 . S
C2091 H2095 0.950 . S
H2092 C2088 0.950 . S
C2093 C2091 1.390 . S
C2093 C2094 1.387 . S
C2093 H2096 0.950 . S
C2094 C2093 1.387 . S
C2094 C2097 1.387 . S
H2095 C2091 0.950 . S
H2096 C2093 0.950 . S
C2097 C2088 1.390 . S
C2097 H2090 0.950 . S
C2097 C2094 1.387 . S
C2098 C2099 1.387 . S
C2098 H2102 0.950 . S
C2098 C2107 1.390 . S
C2099 C2098 1.387 . S
C2099 C2101 1.387 . S
H2100 C2107 0.950 . S
C2101 C2099 1.387 . S
C2101 C2103 1.390 . S
C2101 H2105 0.950 . S
H2102 C2098 0.950 . S
C2103 C2101 1.390 . S
C2103 C2104 1.387 . S
C2103 H2106 0.950 . S
C2104 C2103 1.387 . S
C2104 C2107 1.387 . S
H2105 C2101 0.950 . S
H2106 C2103 0.950 . S
C2107 C2098 1.390 . S
C2107 H2100 0.950 . S
C2107 C2104 1.387 . S
C2108 C2109 1.387 . S
C2108 H2112 0.950 . S
C2108 C2117 1.390 . S
C2109 C2108 1.387 . S
C2109 C2111 1.387 . S
H2110 C2117 0.950 . S
C2111 C2109 1.387 . S
C2111 C2113 1.390 . S
C2111 H2115 0.950 . S
H2112 C2108 0.950 . S
C2113 C2111 1.390 . S
C2113 C2114 1.387 . S
C2113 H2116 0.950 . S
C2114 C2113 1.387 . S
C2114 C2117 1.387 . S
H2115 C2111 0.950 . S
H2116 C2113 0.950 . S
C2117 C2108 1.390 . S
C2117 H2110 0.950 . S
C2117 C2114 1.387 . S
C2118 C2119 1.387 . S
C2118 H2122 0.950 . S
C2118 C2127 1.390 . S
C2119 C2118 1.387 . S
C2119 C2121 1.387 . S
H2120 C2127 0.950 . S
C2121 C2119 1.387 . S
C2121 C2123 1.390 . S
C2121 H2125 0.950 . S
H2122 C2118 0.950 . S
C2123 C2121 1.390 . S
C2123 C2124 1.387 . S
C2123 H2126 0.950 . S
C2124 C2123 1.387 . S
C2124 C2127 1.387 . S
H2125 C2121 0.950 . S
H2126 C2123 0.950 . S
C2127 C2118 1.390 . S
C2127 H2120 0.950 . S
C2127 C2124 1.387 . S
C2128 C2129 1.387 . S
C2128 H2132 0.950 . S
C2128 C2137 1.390 . S
C2129 C2128 1.387 . S
C2129 C2131 1.387 . S
H2130 C2137 0.950 . S
C2131 C2129 1.387 . S
C2131 C2133 1.390 . S
C2131 H2135 0.950 . S
H2132 C2128 0.950 . S
C2133 C2131 1.390 . S
C2133 C2134 1.387 . S
C2133 H2136 0.950 . S
C2134 C2133 1.387 . S
C2134 C2137 1.387 . S
H2135 C2131 0.950 . S
H2136 C2133 0.950 . S
C2137 C2128 1.390 . S
C2137 H2130 0.950 . S
C2137 C2134 1.387 . S
C2138 C2139 1.387 . S
C2138 H2142 0.950 . S
C2138 C2147 1.390 . S
C2139 C2138 1.387 . S
C2139 C2141 1.387 . S
H2140 C2147 0.950 . S
C2141 C2139 1.387 . S
C2141 C2143 1.390 . S
C2141 H2145 0.950 . S
H2142 C2138 0.950 . S
C2143 C2141 1.390 . S
C2143 C2144 1.387 . S
C2143 H2146 0.950 . S
C2144 C2143 1.387 . S
C2144 C2147 1.387 . S
H2145 C2141 0.950 . S
H2146 C2143 0.950 . S
C2147 C2138 1.390 . S
C2147 H2140 0.950 . S
C2147 C2144 1.387 . S
C2148 C2149 1.387 . S
C2148 H2152 0.950 . S
C2148 C2157 1.390 . S
C2149 C2148 1.387 . S
C2149 C2151 1.387 . S
H2150 C2157 0.950 . S
C2151 C2149 1.387 . S
C2151 C2153 1.390 . S
C2151 H2155 0.950 . S
H2152 C2148 0.950 . S
C2153 C2151 1.390 . S
C2153 C2154 1.387 . S
C2153 H2156 0.950 . S
C2154 C2153 1.387 . S
C2154 C2157 1.387 . S
H2155 C2151 0.950 . S
H2156 C2153 0.950 . S
C2157 C2148 1.390 . S
C2157 H2150 0.950 . S
C2157 C2154 1.387 . S
C2158 C2159 1.387 . S
C2158 H2162 0.950 . S
C2158 C2167 1.390 . S
C2159 C2158 1.387 . S
C2159 C2161 1.387 . S
H2160 C2167 0.950 . S
C2161 C2159 1.387 . S
C2161 C2163 1.390 . S
C2161 H2165 0.950 . S
H2162 C2158 0.950 . S
C2163 C2161 1.390 . S
C2163 C2164 1.387 . S
C2163 H2166 0.950 . S
C2164 C2163 1.387 . S
C2164 C2167 1.387 . S
H2165 C2161 0.950 . S
H2166 C2163 0.950 . S
C2167 C2158 1.390 . S
C2167 H2160 0.950 . S
C2167 C2164 1.387 . S
C2168 C2169 1.387 . S
C2168 H2172 0.950 . S
C2168 C2177 1.390 . S
C2169 C2168 1.387 . S
C2169 C2171 1.387 . S
H2170 C2177 0.950 . S
C2171 C2169 1.387 . S
C2171 C2173 1.390 . S
C2171 H2175 0.950 . S
H2172 C2168 0.950 . S
C2173 C2171 1.390 . S
C2173 C2174 1.387 . S
C2173 H2176 0.950 . S
C2174 C2173 1.387 . S
C2174 C2177 1.387 . S
H2175 C2171 0.950 . S
H2176 C2173 0.950 . S
C2177 C2168 1.390 . S
C2177 H2170 0.950 . S
C2177 C2174 1.387 . S
C2178 C2179 1.387 . S
C2178 H2182 0.950 . S
C2178 C2187 1.390 . S
C2179 C2178 1.387 . S
C2179 C2181 1.387 . S
H2180 C2187 0.950 . S
C2181 C2179 1.387 . S
C2181 C2183 1.390 . S
C2181 H2185 0.950 . S
H2182 C2178 0.950 . S
C2183 C2181 1.390 . S
C2183 C2184 1.387 . S
C2183 H2186 0.950 . S
C2184 C2183 1.387 . S
C2184 C2187 1.387 . S
H2185 C2181 0.950 . S
H2186 C2183 0.950 . S
C2187 C2178 1.390 . S
C2187 H2180 0.950 . S
C2187 C2184 1.387 . S
C2188 C2189 1.387 . S
C2188 H2192 0.950 . S
C2188 C2197 1.390 . S
C2189 C2188 1.387 . S
C2189 C2191 1.387 . S
H2190 C2197 0.950 . S
C2191 C2189 1.387 . S
C2191 C2193 1.390 . S
C2191 H2195 0.950 . S
H2192 C2188 0.950 . S
C2193 C2191 1.390 . S
C2193 C2194 1.387 . S
C2193 H2196 0.950 . S
C2194 C2193 1.387 . S
C2194 C2197 1.387 . S
H2195 C2191 0.950 . S
H2196 C2193 0.950 . S
C2197 C2188 1.390 . S
C2197 H2190 0.950 . S
C2197 C2194 1.387 . S
C2198 C2199 1.387 . S
C2198 H2202 0.950 . S
C2198 C2207 1.390 . S
C2199 C2198 1.387 . S
C2199 C2201 1.387 . S
H2200 C2207 0.950 . S
C2201 C2199 1.387 . S
C2201 C2203 1.390 . S
C2201 H2205 0.950 . S
H2202 C2198 0.950 . S
C2203 C2201 1.390 . S
C2203 C2204 1.387 . S
C2203 H2206 0.950 . S
C2204 C2203 1.387 . S
C2204 C2207 1.387 . S
H2205 C2201 0.950 . S
H2206 C2203 0.950 . S
C2207 C2198 1.390 . S
C2207 H2200 0.950 . S
C2207 C2204 1.387 . S
C2208 C2209 1.387 . S
C2208 H2212 0.950 . S
C2208 C2217 1.392 1_655 S
C2209 C2208 1.387 . S
C2209 C2211 1.387 . S
H2210 C2217 0.951 . S
C2211 C2209 1.387 . S
C2211 C2213 1.392 1_655 S
C2211 H2215 0.951 . S
H2212 C2208 0.950 . S
C2213 C2211 1.392 1_455 S
C2213 C2214 1.387 . S
C2213 H2216 0.950 . S
C2214 C2213 1.387 . S
C2214 C2217 1.387 . S
H2215 C2211 0.951 . S
H2216 C2213 0.950 . S
C2217 C2208 1.392 1_455 S
C2217 H2210 0.951 . S
C2217 C2214 1.387 . S
C2218 C2219 1.387 . S
C2218 H2222 0.950 . S
C2218 C2227 1.390 . S
C2219 C2218 1.387 . S
C2219 C2221 1.387 . S
H2220 C2227 0.950 . S
C2221 C2219 1.387 . S
C2221 C2223 1.390 . S
C2221 H2225 0.950 . S
H2222 C2218 0.950 . S
C2223 C2221 1.390 . S
C2223 C2224 1.387 . S
C2223 H2226 0.950 . S
C2224 C2223 1.387 . S
C2224 C2227 1.387 . S
H2225 C2221 0.950 . S
H2226 C2223 0.950 . S
C2227 C2218 1.390 . S
C2227 H2220 0.950 . S
C2227 C2224 1.387 . S
C2228 C2229 1.387 . S
C2228 H2232 0.950 . S
C2228 C2237 1.390 . S
C2229 C2228 1.387 . S
C2229 C2231 1.387 1_565 S
H2230 C2237 0.950 . S
C2231 C2229 1.387 1_545 S
C2231 C2233 1.390 . S
C2231 H2235 0.950 . S
H2232 C2228 0.950 . S
C2233 C2231 1.390 . S
C2233 C2234 1.387 . S
C2233 H2236 0.950 . S
C2234 C2233 1.387 . S
C2234 C2237 1.387 1_545 S
H2235 C2231 0.950 . S
H2236 C2233 0.950 . S
C2237 C2228 1.390 . S
C2237 H2230 0.950 . S
C2237 C2234 1.387 1_565 S
C2238 C2239 1.387 1_545 S
C2238 H2242 0.950 . S
C2238 C2247 1.390 . S
C2239 C2238 1.387 1_565 S
C2239 C2241 1.387 1_556 S
H2240 C2247 0.950 . S
C2241 C2239 1.387 1_554 S
C2241 C2243 1.390 . S
C2241 H2245 0.950 . S
H2242 C2238 0.950 . S
C2243 C2241 1.390 . S
C2243 C2244 1.387 1_565 S
C2243 H2246 0.950 . S
C2244 C2243 1.387 1_545 S
C2244 C2247 1.387 1_554 S
H2245 C2241 0.950 . S
H2246 C2243 0.950 . S
C2247 C2238 1.390 . S
C2247 H2240 0.950 . S
C2247 C2244 1.387 1_556 S
C2248 C2249 1.387 1_456 S
C2248 H2252 0.950 . S
C2248 C2257 1.390 . S
C2249 C2248 1.387 1_654 S
C2249 C2251 1.387 . S
H2250 C2257 0.950 . S
C2251 C2249 1.387 . S
C2251 C2253 1.390 . S
C2251 H2255 0.950 . S
H2252 C2248 0.950 . S
C2253 C2251 1.390 . S
C2253 C2254 1.387 1_654 S
C2253 H2256 0.950 . S
C2254 C2253 1.387 1_456 S
C2254 C2257 1.387 . S
H2255 C2251 0.950 . S
H2256 C2253 0.950 . S
C2257 C2248 1.390 . S
C2257 H2250 0.950 . S
C2257 C2254 1.387 . S
C2258 C2259 1.387 1_556 S
C2258 H2262 0.950 . S
C2258 C2267 1.390 . S
C2259 C2258 1.387 1_554 S
C2259 C2261 1.387 . S
H2260 C2267 0.950 . S
C2261 C2259 1.387 . S
C2261 C2263 1.390 . S
C2261 H2265 0.950 . S
H2262 C2258 0.950 . S
C2263 C2261 1.390 . S
C2263 C2264 1.387 1_554 S
C2263 H2266 0.950 . S
C2264 C2263 1.387 1_556 S
C2264 C2267 1.387 . S
H2265 C2261 0.950 . S
H2266 C2263 0.950 . S
C2267 C2258 1.390 . S
C2267 H2260 0.950 . S
C2267 C2264 1.387 . S
C2268 C2269 1.387 . S
C2268 H2272 0.950 . S
C2268 C2277 1.390 . S
C2269 C2268 1.387 . S
C2269 C2271 1.387 . S
H2270 C2277 0.950 . S
C2271 C2269 1.387 . S
C2271 C2273 1.390 . S
C2271 H2275 0.950 . S
H2272 C2268 0.950 . S
C2273 C2271 1.390 . S
C2273 C2274 1.387 . S
C2273 H2276 0.950 . S
C2274 C2273 1.387 . S
C2274 C2277 1.387 . S
H2275 C2271 0.950 . S
H2276 C2273 0.950 . S
C2277 C2268 1.390 . S
C2277 H2270 0.950 . S
C2277 C2274 1.387 . S
C2278 C2279 1.387 . S
C2278 H2282 0.950 . S
C2278 C2287 1.390 . S
C2279 C2278 1.387 . S
C2279 C2281 1.387 . S
H2280 C2287 0.950 . S
C2281 C2279 1.387 . S
C2281 C2283 1.390 . S
C2281 H2285 0.950 . S
H2282 C2278 0.950 . S
C2283 C2281 1.390 . S
C2283 C2284 1.387 . S
C2283 H2286 0.950 . S
C2284 C2283 1.387 . S
C2284 C2287 1.387 . S
H2285 C2281 0.950 . S
H2286 C2283 0.950 . S
C2287 C2278 1.390 . S
C2287 H2280 0.950 . S
C2287 C2284 1.387 . S
C2288 C2289 1.387 . S
C2288 H2292 0.950 . S
C2288 C2297 1.390 . S
C2289 C2288 1.387 . S
C2289 C2291 1.387 . S
H2290 C2297 0.950 . S
C2291 C2289 1.387 . S
C2291 C2293 1.390 . S
C2291 H2295 0.950 . S
H2292 C2288 0.950 . S
C2293 C2291 1.390 . S
C2293 C2294 1.387 . S
C2293 H2296 0.950 . S
C2294 C2293 1.387 . S
C2294 C2297 1.387 . S
H2295 C2291 0.950 . S
H2296 C2293 0.950 . S
C2297 C2288 1.390 . S
C2297 H2290 0.950 . S
C2297 C2294 1.387 . S
C2298 C2299 1.387 . S
C2298 H2302 0.950 . S
C2298 C2307 1.390 . S
C2299 C2298 1.387 . S
C2299 C2301 1.387 . S
H2300 C2307 0.950 . S
C2301 C2299 1.387 . S
C2301 C2303 1.390 . S
C2301 H2305 0.950 . S
H2302 C2298 0.950 . S
C2303 C2301 1.390 . S
C2303 C2304 1.387 . S
C2303 H2306 0.950 . S
C2304 C2303 1.387 . S
C2304 C2307 1.387 . S
H2305 C2301 0.950 . S
H2306 C2303 0.950 . S
C2307 C2298 1.390 . S
C2307 H2300 0.950 . S
C2307 C2304 1.387 . S
C2308 C2309 1.387 . S
C2308 H2312 0.950 . S
C2308 C2317 1.390 . S
C2309 C2308 1.387 . S
C2309 C2311 1.387 . S
H2310 C2317 0.950 . S
C2311 C2309 1.387 . S
C2311 C2313 1.390 . S
C2311 H2315 0.950 . S
H2312 C2308 0.950 . S
C2313 C2311 1.390 . S
C2313 C2314 1.387 . S
C2313 H2316 0.950 . S
C2314 C2313 1.387 . S
C2314 C2317 1.387 . S
H2315 C2311 0.950 . S
H2316 C2313 0.950 . S
C2317 C2308 1.390 . S
C2317 H2310 0.950 . S
C2317 C2314 1.387 . S
C2318 C2319 1.387 . S
C2318 H2322 0.950 . S
C2318 C2327 1.390 . S
C2319 C2318 1.387 . S
C2319 C2321 1.387 . S
H2320 C2327 0.950 . S
C2321 C2319 1.387 . S
C2321 C2323 1.390 . S
C2321 H2325 0.950 . S
H2322 C2318 0.950 . S
C2323 C2321 1.390 . S
C2323 C2324 1.387 . S
C2323 H2326 0.950 . S
C2324 C2323 1.387 . S
C2324 C2327 1.387 . S
H2325 C2321 0.950 . S
H2326 C2323 0.950 . S
C2327 C2318 1.390 . S
C2327 H2320 0.950 . S
C2327 C2324 1.387 . S
C2328 C2329 1.387 . S
C2328 H2332 0.950 . S
C2328 C2337 1.390 . S
C2329 C2328 1.387 . S
C2329 C2331 1.387 . S
H2330 C2337 0.950 . S
C2331 C2329 1.387 . S
C2331 C2333 1.390 . S
C2331 H2335 0.950 . S
H2332 C2328 0.950 . S
C2333 C2331 1.390 . S
C2333 C2334 1.387 . S
C2333 H2336 0.950 . S
C2334 C2333 1.387 . S
C2334 C2337 1.387 . S
H2335 C2331 0.950 . S
H2336 C2333 0.950 . S
C2337 C2328 1.390 . S
C2337 H2330 0.950 . S
C2337 C2334 1.387 . S
C2338 C2339 1.387 . S
C2338 H2342 0.950 . S
C2338 C2347 1.390 . S
C2339 C2338 1.387 . S
C2339 C2341 1.387 . S
H2340 C2347 0.950 . S
C2341 C2339 1.387 . S
C2341 C2343 1.390 . S
C2341 H2345 0.950 . S
H2342 C2338 0.950 . S
C2343 C2341 1.390 . S
C2343 C2344 1.387 . S
C2343 H2346 0.950 . S
C2344 C2343 1.387 . S
C2344 C2347 1.387 . S
H2345 C2341 0.950 . S
H2346 C2343 0.950 . S
C2347 C2338 1.390 . S
C2347 H2340 0.950 . S
C2347 C2344 1.387 . S
C2348 C2349 1.387 . S
C2348 H2352 0.950 . S
C2348 C2357 1.390 . S
C2349 C2348 1.387 . S
C2349 C2351 1.387 . S
H2350 C2357 0.950 . S
C2351 C2349 1.387 . S
C2351 C2353 1.390 . S
C2351 H2355 0.950 . S
H2352 C2348 0.950 . S
C2353 C2351 1.390 . S
C2353 C2354 1.387 . S
C2353 H2356 0.950 . S
C2354 C2353 1.387 . S
C2354 C2357 1.387 . S
H2355 C2351 0.950 . S
H2356 C2353 0.950 . S
C2357 C2348 1.390 . S
C2357 H2350 0.950 . S
C2357 C2354 1.387 . S
C2358 C2359 1.387 . S
C2358 H2362 0.950 . S
C2358 C2367 1.390 . S
C2359 C2358 1.387 . S
C2359 C2361 1.387 . S
H2360 C2367 0.950 . S
C2361 C2359 1.387 . S
C2361 C2363 1.390 . S
C2361 H2365 0.950 . S
H2362 C2358 0.950 . S
C2363 C2361 1.390 . S
C2363 C2364 1.387 . S
C2363 H2366 0.950 . S
C2364 C2363 1.387 . S
C2364 C2367 1.387 . S
H2365 C2361 0.950 . S
H2366 C2363 0.950 . S
C2367 C2358 1.390 . S
C2367 H2360 0.950 . S
C2367 C2364 1.387 . S
C2368 C2369 1.387 . S
C2368 H2372 0.950 . S
C2368 C2377 1.390 . S
C2369 C2368 1.387 . S
C2369 C2371 1.387 . S
H2370 C2377 0.950 . S
C2371 C2369 1.387 . S
C2371 C2373 1.390 . S
C2371 H2375 0.950 . S
H2372 C2368 0.950 . S
C2373 C2371 1.390 . S
C2373 C2374 1.387 . S
C2373 H2376 0.950 . S
C2374 C2373 1.387 . S
C2374 C2377 1.387 . S
H2375 C2371 0.950 . S
H2376 C2373 0.950 . S
C2377 C2368 1.390 . S
C2377 H2370 0.950 . S
C2377 C2374 1.387 . S
C2378 C2379 1.387 . S
C2378 H2382 0.950 . S
C2378 C2387 1.390 . S
C2379 C2378 1.387 . S
C2379 C2381 1.387 . S
H2380 C2387 0.950 . S
C2381 C2379 1.387 . S
C2381 C2383 1.390 . S
C2381 H2385 0.950 . S
H2382 C2378 0.950 . S
C2383 C2381 1.390 . S
C2383 C2384 1.387 . S
C2383 H2386 0.950 . S
C2384 C2383 1.387 . S
C2384 C2387 1.387 . S
H2385 C2381 0.950 . S
H2386 C2383 0.950 . S
C2387 C2378 1.390 . S
C2387 H2380 0.950 . S
C2387 C2384 1.387 . S
C2388 C2389 1.387 . S
C2388 H2392 0.950 . S
C2388 C2397 1.390 . S
C2389 C2388 1.387 . S
C2389 C2391 1.387 . S
H2390 C2397 0.950 . S
C2391 C2389 1.387 . S
C2391 C2393 1.390 . S
C2391 H2395 0.950 . S
H2392 C2388 0.950 . S
C2393 C2391 1.390 . S
C2393 C2394 1.387 . S
C2393 H2396 0.950 . S
C2394 C2393 1.387 . S
C2394 C2397 1.387 . S
H2395 C2391 0.950 . S
H2396 C2393 0.950 . S
C2397 C2388 1.390 . S
C2397 H2390 0.950 . S
C2397 C2394 1.387 . S
C2398 C2399 1.387 . S
C2398 H2402 0.950 . S
C2398 C2407 1.390 1_565 S
C2399 C2398 1.387 . S
C2399 C2401 1.387 . S
H2400 C2407 0.950 . S
C2401 C2399 1.387 . S
C2401 C2403 1.390 1_565 S
C2401 H2405 0.950 . S
H2402 C2398 0.950 . S
C2403 C2401 1.390 1_545 S
C2403 C2404 1.387 . S
C2403 H2406 0.950 . S
C2404 C2403 1.387 . S
C2404 C2407 1.387 . S
H2405 C2401 0.950 . S
H2406 C2403 0.950 . S
C2407 C2398 1.390 1_545 S
C2407 H2400 0.950 . S
C2407 C2404 1.387 . S
C2408 C2409 1.387 . S
C2408 H2412 0.950 . S
C2408 C2417 1.390 1_455 S
C2409 C2408 1.387 . S
C2409 C2411 1.387 . S
H2410 C2417 0.950 . S
C2411 C2409 1.387 . S
C2411 C2413 1.390 1_455 S
C2411 H2415 0.950 . S
H2412 C2408 0.950 . S
C2413 C2411 1.390 1_655 S
C2413 C2414 1.387 . S
C2413 H2416 0.950 . S
C2414 C2413 1.387 . S
C2414 C2417 1.387 . S
H2415 C2411 0.950 . S
H2416 C2413 0.950 . S
C2417 C2408 1.390 1_655 S
C2417 H2410 0.950 . S
C2417 C2414 1.387 . S
C2418 C2419 1.387 . S
C2418 H2422 0.950 . S
C2418 C2427 1.390 . S
C2419 C2418 1.387 . S
C2419 C2421 1.387 . S
H2420 C2427 0.950 . S
C2421 C2419 1.387 . S
C2421 C2423 1.390 . S
C2421 H2425 0.950 . S
H2422 C2418 0.950 . S
C2423 C2421 1.390 . S
C2423 C2424 1.387 . S
C2423 H2426 0.950 . S
C2424 C2423 1.387 . S
C2424 C2427 1.387 . S
H2425 C2421 0.950 . S
H2426 C2423 0.950 . S
C2427 C2418 1.390 . S
C2427 H2420 0.950 . S
C2427 C2424 1.387 . S
C2428 C2429 1.387 . S
C2428 H2432 0.950 . S
C2428 C2437 1.390 1_565 S
C2429 C2428 1.387 . S
C2429 C2431 1.387 . S
H2430 C2437 0.950 . S
C2431 C2429 1.387 . S
C2431 C2433 1.390 1_565 S
C2431 H2435 0.950 . S
H2432 C2428 0.950 . S
C2433 C2431 1.390 1_545 S
C2433 C2434 1.387 . S
C2433 H2436 0.950 . S
C2434 C2433 1.387 . S
C2434 C2437 1.387 . S
H2435 C2431 0.950 . S
H2436 C2433 0.950 . S
C2437 C2428 1.390 1_545 S
C2437 H2430 0.950 . S
C2437 C2434 1.387 . S
C2438 C2439 1.387 . S
C2438 H2442 0.950 . S
C2438 C2447 1.341 1_455 S
C2439 C2438 1.387 . S
C2439 C2441 1.387 . S
H2440 C2447 0.947 . S
C2441 C2439 1.387 . S
C2441 C2443 1.390 1_455 S
C2441 H2445 0.950 . S
H2442 C2438 0.950 . S
C2443 C2441 1.390 1_655 S
C2443 C2444 1.387 . S
C2443 H2446 0.950 . S
C2444 C2443 1.387 . S
C2444 C2447 1.443 . S
H2445 C2441 0.950 . S
H2446 C2443 0.950 . S
C2447 C2438 1.341 1_655 S
C2447 H2440 0.947 . S
C2447 C2444 1.443 . S
C2448 C2449 1.387 . S
C2448 H2452 0.950 . S
C2448 C2457 1.390 . S
C2449 C2448 1.387 . S
C2449 C2451 1.387 . S
H2450 C2457 0.950 . S
C2451 C2449 1.387 . S
C2451 C2453 1.390 . S
C2451 H2455 0.950 . S
H2452 C2448 0.950 . S
C2453 C2451 1.390 . S
C2453 C2454 1.387 . S
C2453 H2456 0.950 . S
C2454 C2453 1.387 . S
C2454 C2457 1.387 . S
H2455 C2451 0.950 . S
H2456 C2453 0.950 . S
C2457 C2448 1.390 . S
C2457 H2450 0.950 . S
C2457 C2454 1.387 . S
C2458 C2459 1.387 . S
C2458 H2462 0.950 . S
C2458 C2467 1.390 . S
C2459 C2458 1.387 . S
C2459 C2461 1.387 . S
H2460 C2467 0.950 . S
C2461 C2459 1.387 . S
C2461 C2463 1.390 . S
C2461 H2465 0.950 . S
H2462 C2458 0.950 . S
C2463 C2461 1.390 . S
C2463 C2464 1.387 . S
C2463 H2466 0.950 . S
C2464 C2463 1.387 . S
C2464 C2467 1.387 . S
H2465 C2461 0.950 . S
H2466 C2463 0.950 . S
C2467 C2458 1.390 . S
C2467 H2460 0.950 . S
C2467 C2464 1.387 . S
C2468 C2469 1.387 . S
C2468 H2472 0.950 . S
C2468 C2477 1.390 . S
C2469 C2468 1.387 . S
C2469 C2471 1.387 . S
H2470 C2477 0.950 . S
C2471 C2469 1.387 . S
C2471 C2473 1.390 . S
C2471 H2475 0.950 . S
H2472 C2468 0.950 . S
C2473 C2471 1.390 . S
C2473 C2474 1.387 . S
C2473 H2476 0.950 . S
C2474 C2473 1.387 . S
C2474 C2477 1.387 . S
H2475 C2471 0.950 . S
H2476 C2473 0.950 . S
C2477 C2468 1.390 . S
C2477 H2470 0.950 . S
C2477 C2474 1.387 . S
C2478 C2479 1.387 . S
C2478 H2482 0.950 . S
C2478 C2487 1.390 . S
C2479 C2478 1.387 . S
C2479 C2481 1.387 . S
H2480 C2487 0.950 . S
C2481 C2479 1.387 . S
C2481 C2483 1.390 . S
C2481 H2485 0.950 . S
H2482 C2478 0.950 . S
C2483 C2481 1.390 . S
C2483 C2484 1.387 . S
C2483 H2486 0.950 . S
C2484 C2483 1.387 . S
C2484 C2487 1.387 . S
H2485 C2481 0.950 . S
H2486 C2483 0.950 . S
C2487 C2478 1.390 . S
C2487 H2480 0.950 . S
C2487 C2484 1.387 . S
C2488 C2489 1.387 . S
C2488 H2492 0.950 . S
C2488 C2497 1.390 . S
C2489 C2488 1.387 . S
C2489 C2491 1.387 . S
H2490 C2497 0.950 . S
C2491 C2489 1.387 . S
C2491 C2493 1.390 . S
C2491 H2495 0.950 . S
H2492 C2488 0.950 . S
C2493 C2491 1.390 . S
C2493 C2494 1.387 . S
C2493 H2496 0.950 . S
C2494 C2493 1.387 . S
C2494 C2497 1.387 . S
H2495 C2491 0.950 . S
H2496 C2493 0.950 . S
C2497 C2488 1.390 . S
C2497 H2490 0.950 . S
C2497 C2494 1.387 . S
C2498 C2499 1.387 . S
C2498 H2502 0.950 . S
C2498 C2507 1.390 . S
C2499 C2498 1.387 . S
C2499 C2501 1.387 . S
H2500 C2507 0.950 . S
C2501 C2499 1.387 . S
C2501 C2503 1.390 . S
C2501 H2505 0.950 . S
H2502 C2498 0.950 . S
C2503 C2501 1.390 . S
C2503 C2504 1.387 . S
C2503 H2506 0.950 . S
C2504 C2503 1.387 . S
C2504 C2507 1.387 . S
H2505 C2501 0.950 . S
H2506 C2503 0.950 . S
C2507 C2498 1.390 . S
C2507 H2500 0.950 . S
C2507 C2504 1.387 . S
C2508 C2509 1.387 . S
C2508 H2512 0.950 . S
C2508 C2517 1.390 . S
C2509 C2508 1.387 . S
C2509 C2511 1.387 . S
H2510 C2517 0.950 . S
C2511 C2509 1.387 . S
C2511 C2513 1.390 . S
C2511 H2515 0.950 . S
H2512 C2508 0.950 . S
C2513 C2511 1.390 . S
C2513 C2514 1.387 . S
C2513 H2516 0.950 . S
C2514 C2513 1.387 . S
C2514 C2517 1.387 . S
H2515 C2511 0.950 . S
H2516 C2513 0.950 . S
C2517 C2508 1.390 . S
C2517 H2510 0.950 . S
C2517 C2514 1.387 . S
C2518 C2519 1.387 . S
C2518 H2522 0.950 . S
C2518 C2527 1.390 . S
C2519 C2518 1.387 . S
C2519 C2521 1.387 . S
H2520 C2527 0.950 . S
C2521 C2519 1.387 . S
C2521 C2523 1.390 . S
C2521 H2525 0.950 . S
H2522 C2518 0.950 . S
C2523 C2521 1.390 . S
C2523 C2524 1.387 . S
C2523 H2526 0.950 . S
C2524 C2523 1.387 . S
C2524 C2527 1.387 . S
H2525 C2521 0.950 . S
H2526 C2523 0.950 . S
C2527 C2518 1.390 . S
C2527 H2520 0.950 . S
C2527 C2524 1.387 . S
C2528 C2529 1.387 . S
C2528 H2532 0.950 . S
C2528 C2537 1.390 . S
C2529 C2528 1.387 . S
C2529 C2531 1.387 . S
H2530 C2537 0.950 . S
C2531 C2529 1.387 . S
C2531 C2533 1.390 . S
C2531 H2535 0.950 . S
H2532 C2528 0.950 . S
C2533 C2531 1.390 . S
C2533 C2534 1.387 . S
C2533 H2536 0.950 . S
C2534 C2533 1.387 . S
C2534 C2537 1.387 . S
H2535 C2531 0.950 . S
H2536 C2533 0.950 . S
C2537 C2528 1.390 . S
C2537 H2530 0.950 . S
C2537 C2534 1.387 . S
C2538 C2539 1.387 . S
C2538 H2542 0.950 . S
C2538 C2547 1.390 . S
C2539 C2538 1.387 . S
C2539 C2541 1.387 . S
H2540 C2547 0.950 . S
C2541 C2539 1.387 . S
C2541 C2543 1.390 . S
C2541 H2545 0.950 . S
H2542 C2538 0.950 . S
C2543 C2541 1.390 . S
C2543 C2544 1.387 . S
C2543 H2546 0.950 . S
C2544 C2543 1.387 . S
C2544 C2547 1.387 . S
H2545 C2541 0.950 . S
H2546 C2543 0.950 . S
C2547 C2538 1.390 . S
C2547 H2540 0.950 . S
C2547 C2544 1.387 . S
C2548 C2549 1.387 . S
C2548 H2552 0.950 . S
C2548 C2557 1.390 . S
C2549 C2548 1.387 . S
C2549 C2551 1.387 . S
H2550 C2557 0.950 . S
C2551 C2549 1.387 . S
C2551 C2553 1.390 . S
C2551 H2555 0.950 . S
H2552 C2548 0.950 . S
C2553 C2551 1.390 . S
C2553 C2554 1.387 . S
C2553 H2556 0.950 . S
C2554 C2553 1.387 . S
C2554 C2557 1.387 . S
H2555 C2551 0.950 . S
H2556 C2553 0.950 . S
C2557 C2548 1.390 . S
C2557 H2550 0.950 . S
C2557 C2554 1.387 . S
C2558 C2559 1.387 . S
C2558 H2562 0.950 . S
C2558 C2567 1.390 . S
C2559 C2558 1.387 . S
C2559 C2561 1.387 . S
H2560 C2567 0.950 . S
C2561 C2559 1.387 . S
C2561 C2563 1.390 . S
C2561 H2565 0.950 . S
H2562 C2558 0.950 . S
C2563 C2561 1.390 . S
C2563 C2564 1.387 . S
C2563 H2566 0.950 . S
C2564 C2563 1.387 . S
C2564 C2567 1.387 . S
H2565 C2561 0.950 . S
H2566 C2563 0.950 . S
C2567 C2558 1.390 . S
C2567 H2560 0.950 . S
C2567 C2564 1.387 . S
C2568 C2569 1.387 . S
C2568 H2572 0.950 . S
C2568 C2577 1.390 . S
C2569 C2568 1.387 . S
C2569 C2571 1.376 . S
H2570 C2577 0.950 . S
C2571 C2569 1.376 . S
C2571 C2573 1.381 1_655 S
C2571 H2575 0.973 . S
H2572 C2568 0.950 . S
C2573 C2571 1.381 1_455 S
C2573 C2574 1.387 . S
C2573 H2576 0.950 . S
C2574 C2573 1.387 . S
C2574 C2577 1.387 1_455 S
H2575 C2571 0.973 . S
H2576 C2573 0.950 . S
C2577 C2568 1.390 . S
C2577 H2570 0.950 . S
C2577 C2574 1.387 1_655 S
C2578 C2579 1.387 . S
C2578 H2582 0.950 . S
C2578 C2587 1.390 . S
C2579 C2578 1.387 . S
C2579 C2581 1.387 . S
H2580 C2587 0.950 . S
C2581 C2579 1.387 . S
C2581 C2583 1.390 . S
C2581 H2585 0.950 . S
H2582 C2578 0.950 . S
C2583 C2581 1.390 . S
C2583 C2584 1.387 . S
C2583 H2586 0.950 . S
C2584 C2583 1.387 . S
C2584 C2587 1.387 . S
H2585 C2581 0.950 . S
H2586 C2583 0.950 . S
C2587 C2578 1.390 . S
C2587 H2580 0.950 . S
C2587 C2584 1.387 . S
C2588 C2589 1.387 1_545 S
C2588 H2592 0.950 . S
C2588 C2597 1.390 . S
C2589 C2588 1.387 1_565 S
C2589 C2591 1.387 . S
H2590 C2597 0.950 . S
C2591 C2589 1.387 . S
C2591 C2593 1.390 . S
C2591 H2595 0.950 . S
H2592 C2588 0.950 . S
C2593 C2591 1.390 . S
C2593 C2594 1.387 1_565 S
C2593 H2596 0.950 . S
C2594 C2593 1.387 1_545 S
C2594 C2597 1.387 . S
H2595 C2591 0.950 . S
H2596 C2593 0.950 . S
C2597 C2588 1.390 . S
C2597 H2590 0.950 . S
C2597 C2594 1.387 . S
C2598 C2599 1.387 . S
C2598 H2602 0.950 . S
C2598 C2607 1.390 . S
C2599 C2598 1.387 . S
C2599 C2601 1.387 1_565 S
H2600 C2607 0.950 . S
C2601 C2599 1.387 1_545 S
C2601 C2603 1.390 . S
C2601 H2605 0.950 . S
H2602 C2598 0.950 . S
C2603 C2601 1.390 . S
C2603 C2604 1.387 . S
C2603 H2606 0.950 . S
C2604 C2603 1.387 . S
C2604 C2607 1.387 1_545 S
H2605 C2601 0.950 . S
H2606 C2603 0.950 . S
C2607 C2598 1.390 . S
C2607 H2600 0.950 . S
C2607 C2604 1.387 1_565 S
C2608 C2609 1.387 1_455 S
C2608 H2612 0.950 . S
C2608 C2617 1.390 . S
C2609 C2608 1.387 1_655 S
C2609 C2611 1.387 . S
H2610 C2617 0.950 . S
C2611 C2609 1.387 . S
C2611 C2613 1.390 1_655 S
C2611 H2615 0.950 . S
H2612 C2608 0.950 . S
C2613 C2611 1.390 1_455 S
C2613 C2614 1.387 . S
C2613 H2616 0.951 1_455 S
C2614 C2613 1.387 . S
C2614 C2617 1.387 . S
H2615 C2611 0.950 . S
H2616 C2613 0.951 1_655 S
C2617 C2608 1.390 . S
C2617 H2610 0.950 . S
C2617 C2614 1.387 . S
C2618 C2619 1.387 . S
C2618 H2622 0.950 . S
C2618 C2627 1.390 . S
C2619 C2618 1.387 . S
C2619 C2621 1.387 . S
H2620 C2627 0.950 . S
C2621 C2619 1.387 . S
C2621 C2623 1.390 . S
C2621 H2625 0.950 . S
H2622 C2618 0.950 . S
C2623 C2621 1.390 . S
C2623 C2624 1.387 . S
C2623 H2626 0.950 . S
C2624 C2623 1.387 . S
C2624 C2627 1.387 . S
H2625 C2621 0.950 . S
H2626 C2623 0.950 . S
C2627 C2618 1.390 . S
C2627 H2620 0.950 . S
C2627 C2624 1.387 . S
C1909 C870 1.940 . S
C1914 C22 1.941 . S
C1919 C923 1.940 . S
C1924 C75 1.941 . S
C1929 C817 1.940 . S
C1934 C128 1.941 . S
C1939 C1400 1.908 1_554 S
C1944 C181 1.907 . S
C1949 C234 1.907 . S
C1954 C1294 1.908 1_554 S
C1959 C287 1.906 . S
C1964 C1347 1.907 1_554 S
C1969 C340 1.939 . S
C1974 C1824 1.938 . S
C1979 C1877 1.938 . S
C1984 C393 1.939 . S
C1989 C1771 1.938 . S
C1994 C446 1.939 . S
C1999 C499 1.905 . S
C2004 C1082 1.906 1_556 S
C2009 C976 1.906 1_556 S
C2014 C552 1.905 . S
C2019 C605 1.904 . S
C2024 C1029 1.906 1_556 S
C2029 C1506 1.827 . S
C2034 C658 1.832 . S
C2039 C711 1.829 . S
C2044 C1559 1.825 . S
C2049 C1453 1.828 . S
C2054 C764 1.830 . S
C2059 C1718 1.830 . S
C2064 C1135 1.823 . S
C2069 C1612 1.832 . S
C2074 C1188 1.822 . S
C2079 C1241 1.825 . S
C2084 C1665 1.824 . S
C2089 C993 1.937 . S
C2094 C39 1.947 . S
C2099 C1046 1.938 . S
C2104 C92 1.947 . S
C2109 C1099 1.935 . S
C2114 C145 1.945 . S
C2119 C198 1.956 . S
C2124 C1788 1.942 . S
C2129 C251 1.959 . S
C2134 C1841 1.945 . S
C2139 C304 1.956 . S
C2144 C1894 1.942 . S
C2149 C357 1.932 . S
C2154 C1311 1.947 . S
C2159 C1364 1.948 . S
C2164 C410 1.933 . S
C2169 C1417 1.950 . S
C2174 C463 1.935 . S
C2179 C834 1.957 . S
C2184 C516 1.946 . S
C2189 C569 1.946 . S
C2194 C887 1.956 . S
C2199 C622 1.946 . S
C2204 C940 1.957 . S
C2209 C675 1.924 . S
C2214 C1629 1.911 . S
C2219 C1682 1.915 . S
C2224 C728 1.927 . S
C2229 C1735 1.914 . S
C2234 C781 1.927 . S
C2239 C1470 2.004 . S
C2244 C1152 1.994 . S
C2249 C1205 1.992 . S
C2254 C1523 2.004 . S
C2259 C1258 1.991 . S
C2264 C1576 2.003 . S
C2269 C1469 1.818 . S
C2274 C38 1.815 . S
C2279 C91 1.812 . S
C2284 C1522 1.819 . S
C2289 C144 1.814 . S
C2294 C1575 1.820 . S
C2299 C674 1.766 . S
C2304 C197 1.767 . S
C2309 C250 1.768 . S
C2314 C727 1.766 . S
C2319 C303 1.768 . S
C2324 C780 1.765 . S
C2329 C1151 1.823 . S
C2334 C356 1.819 . S
C2339 C409 1.817 . S
C2344 C1204 1.822 . S
C2349 C1257 1.822 . S
C2354 C462 1.820 . S
C2359 C515 1.773 . S
C2364 C1628 1.770 . S
C2369 C1681 1.770 . S
C2374 C568 1.772 . S
C2379 C1734 1.770 . S
C2384 C621 1.772 . S
C2389 C1310 1.789 . S
C2394 C833 1.789 . S
C2399 C1363 1.790 . S
C2404 C886 1.788 . S
C2409 C1416 1.788 . S
C2414 C939 1.788 . S
C2419 C992 1.793 . S
C2424 C1787 1.793 . S
C2429 C1840 1.792 . S
C2434 C1045 1.793 . S
C2439 C1893 1.792 . S
C2444 C1098 1.794 . S
C2449 C29 1.009 . S
C2454 C877 1.008 . S
C2459 C82 1.008 . S
C2464 C930 1.006 . S
C2469 C135 1.008 . S
C2474 C824 1.008 . S
C2479 C1407 1.047 . S
C2484 C188 1.046 . S
C2489 C1301 1.047 . S
C2494 C241 1.046 . S
C2499 C1354 1.046 . S
C2504 C294 1.046 . S
C2509 C1831 1.009 . S
C2514 C347 1.010 . S
C2519 C1884 1.009 . S
C2524 C400 1.010 . S
C2529 C1778 1.008 . S
C2534 C453 1.010 . S
C2539 C506 1.046 . S
C2544 C1089 1.047 . S
C2549 C559 1.046 . S
C2554 C983 1.047 . S
C2559 C612 1.045 . S
C2564 C1036 1.046 . S
C2569 C1513 1.137 . S
C2574 C665 1.143 . S
C2579 C1566 1.137 . S
C2584 C718 1.142 . S
C2589 C771 1.140 . S
C2594 C1460 1.140 . S
C2599 C1142 1.138 . S
C2604 C1725 1.143 . S
C2609 C1619 1.140 . S
C2614 C1195 1.140 . S
C2619 C1672 1.140 . S
C2624 C1248 1.140 . S
