# Generated by pormake.
# Topology umc, (4)-cn, num edge types: 1
# Building blocks:
#     Node 0, Type 0, BuildingBlock: QUQFOY_clean_sbu_3, # of connection points: 4
#     Node 1, Type 0, BuildingBlock: QUQFOY_clean_sbu_3, # of connection points: 4
#     Node 2, Type 0, BuildingBlock: QUQFOY_clean_sbu_3, # of connection points: 4
#     Node 3, Type 0, BuildingBlock: QUQFOY_clean_sbu_3, # of connection points: 4
#     Node 4, Type 0, BuildingBlock: QUQFOY_clean_sbu_3, # of connection points: 4
#     Node 5, Type 0, BuildingBlock: QUQFOY_clean_sbu_3, # of connection points: 4
#     Node 6, Type 0, BuildingBlock: QUQFOY_clean_sbu_3, # of connection points: 4
#     Node 7, Type 0, BuildingBlock: QUQFOY_clean_sbu_3, # of connection points: 4
#     Node 8, Type 0, BuildingBlock: QUQFOY_clean_sbu_3, # of connection points: 4
#     Node 9, Type 0, BuildingBlock: QUQFOY_clean_sbu_3, # of connection points: 4
#     Node 10, Type 0, BuildingBlock: QUQFOY_clean_sbu_3, # of connection points: 4
#     Node 11, Type 0, BuildingBlock: QUQFOY_clean_sbu_3, # of connection points: 4
#     Node 12, Type 0, BuildingBlock: QUQFOY_clean_sbu_3, # of connection points: 4
#     Node 13, Type 0, BuildingBlock: QUQFOY_clean_sbu_3, # of connection points: 4
#     Node 14, Type 0, BuildingBlock: QUQFOY_clean_sbu_3, # of connection points: 4
#     Node 15, Type 0, BuildingBlock: QUQFOY_clean_sbu_3, # of connection points: 4
#     Edge 16, Type (0, 0), BuildingBlock: OJICUG_clean_linker_0, # of connection points: 2
#     Edge 17, Type (0, 0), BuildingBlock: OJICUG_clean_linker_0, # of connection points: 2
#     Edge 18, Type (0, 0), BuildingBlock: OJICUG_clean_linker_0, # of connection points: 2
#     Edge 19, Type (0, 0), BuildingBlock: OJICUG_clean_linker_0, # of connection points: 2
#     Edge 20, Type (0, 0), BuildingBlock: OJICUG_clean_linker_0, # of connection points: 2
#     Edge 21, Type (0, 0), BuildingBlock: OJICUG_clean_linker_0, # of connection points: 2
#     Edge 22, Type (0, 0), BuildingBlock: OJICUG_clean_linker_0, # of connection points: 2
#     Edge 23, Type (0, 0), BuildingBlock: OJICUG_clean_linker_0, # of connection points: 2
#     Edge 24, Type (0, 0), BuildingBlock: OJICUG_clean_linker_0, # of connection points: 2
#     Edge 25, Type (0, 0), BuildingBlock: OJICUG_clean_linker_0, # of connection points: 2
#     Edge 26, Type (0, 0), BuildingBlock: OJICUG_clean_linker_0, # of connection points: 2
#     Edge 27, Type (0, 0), BuildingBlock: OJICUG_clean_linker_0, # of connection points: 2
#     Edge 28, Type (0, 0), BuildingBlock: OJICUG_clean_linker_0, # of connection points: 2
#     Edge 29, Type (0, 0), BuildingBlock: OJICUG_clean_linker_0, # of connection points: 2
#     Edge 30, Type (0, 0), BuildingBlock: OJICUG_clean_linker_0, # of connection points: 2
#     Edge 31, Type (0, 0), BuildingBlock: OJICUG_clean_linker_0, # of connection points: 2
#     Edge 32, Type (0, 0), BuildingBlock: OJICUG_clean_linker_0, # of connection points: 2
#     Edge 33, Type (0, 0), BuildingBlock: OJICUG_clean_linker_0, # of connection points: 2
#     Edge 34, Type (0, 0), BuildingBlock: OJICUG_clean_linker_0, # of connection points: 2
#     Edge 35, Type (0, 0), BuildingBlock: OJICUG_clean_linker_0, # of connection points: 2
#     Edge 36, Type (0, 0), BuildingBlock: OJICUG_clean_linker_0, # of connection points: 2
#     Edge 37, Type (0, 0), BuildingBlock: OJICUG_clean_linker_0, # of connection points: 2
#     Edge 38, Type (0, 0), BuildingBlock: OJICUG_clean_linker_0, # of connection points: 2
#     Edge 39, Type (0, 0), BuildingBlock: OJICUG_clean_linker_0, # of connection points: 2
#     Edge 40, Type (0, 0), BuildingBlock: OJICUG_clean_linker_0, # of connection points: 2
#     Edge 41, Type (0, 0), BuildingBlock: OJICUG_clean_linker_0, # of connection points: 2
#     Edge 42, Type (0, 0), BuildingBlock: OJICUG_clean_linker_0, # of connection points: 2
#     Edge 43, Type (0, 0), BuildingBlock: OJICUG_clean_linker_0, # of connection points: 2
#     Edge 44, Type (0, 0), BuildingBlock: OJICUG_clean_linker_0, # of connection points: 2
#     Edge 45, Type (0, 0), BuildingBlock: OJICUG_clean_linker_0, # of connection points: 2
#     Edge 46, Type (0, 0), BuildingBlock: OJICUG_clean_linker_0, # of connection points: 2
#     Edge 47, Type (0, 0), BuildingBlock: OJICUG_clean_linker_0, # of connection points: 2
# Relax obj value: 0.084
# Max RMSD: 0.168
# Mean RMSD: 0.168
data_MOF--net-umc--node1-QUQFOY_clean_sbu_3--edge1-OJICUG_clean_linker_0
_symmetry_space_group_name_H-M    P1
_symmetry_Int_Tables_number       1
_symmetry_cell_setting            triclinic
loop_
_symmetry_equiv_pos_as_xyz
'x, y, z'
_cell_length_a     32.844331
_cell_length_b     25.834341
_cell_length_c     41.403462
_cell_angle_alpha  91.769727
_cell_angle_beta   89.977338
_cell_angle_gamma 90.005937
loop_
_atom_site_label
_atom_site_type_symbol
_atom_site_fract_x
_atom_site_fract_y
_atom_site_fract_z
_atom_type_partial_charge
C0 C 0.26213 0.99671 0.31326 0.0
O1 O 0.26908 0.95329 0.32597 0.0
Cd2 Cd 0.28463 0.93648 0.38202 0.0
O3 O 0.26138 0.03856 0.33049 0.0
Cd4 Cd 0.26911 0.07127 0.38733 0.0
C5 C 0.36694 0.02104 0.39047 0.0
O6 O 0.24261 0.99488 0.41089 0.0
O7 O 0.2467 0.05959 0.44379 0.0
O8 O 0.22089 0.13662 0.36993 0.0
C9 C 0.2423 0.01116 0.44003 0.0
O10 O 0.35148 0.97573 0.38895 0.0
C11 C 0.23661 0.17321 0.38697 0.0
O12 O 0.34458 0.06152 0.38929 0.0
O13 O 0.2681 0.16278 0.40339 0.0
C14 C 0.64253 0.02735 0.31188 0.0
O15 O 0.64409 0.07421 0.32184 0.0
Cd16 Cd 0.63486 0.08973 0.37901 0.0
O17 O 0.63891 0.99164 0.33206 0.0
Cd18 Cd 0.63615 0.97998 0.39058 0.0
C19 C 0.5431 0.03234 0.39221 0.0
O20 O 0.68666 0.04417 0.40988 0.0
O21 O 0.644 0.01638 0.44507 0.0
O22 O 0.67945 0.90914 0.37173 0.0
C23 C 0.67731 0.03913 0.43938 0.0
O24 O 0.56185 0.07527 0.3902 0.0
C25 C 0.66676 0.87642 0.39152 0.0
O26 O 0.5629 0.99003 0.39144 0.0
O27 O 0.63962 0.89147 0.41157 0.0
C28 C 0.26219 0.00608 0.17372 0.0
O29 O 0.26936 0.04941 0.16096 0.0
Cd30 Cd 0.28501 0.06603 0.10487 0.0
O31 O 0.26127 0.96419 0.15653 0.0
Cd32 Cd 0.26902 0.9312 0.09976 0.0
C33 C 0.36705 0.98106 0.09655 0.0
O34 O 0.24285 0.00764 0.07615 0.0
O35 O 0.2462 0.94272 0.04338 0.0
O36 O 0.22089 0.86581 0.11732 0.0
C37 C 0.24222 0.99121 0.04704 0.0
O38 O 0.35176 0.02647 0.09803 0.0
C39 C 0.23656 0.82924 0.10021 0.0
O40 O 0.34452 0.94071 0.09774 0.0
O41 O 0.26798 0.8397 0.0837 0.0
C42 C 0.6425 0.97257 0.1754 0.0
O43 O 0.64382 0.9257 0.16544 0.0
Cd44 Cd 0.63456 0.91021 0.10827 0.0
O45 O 0.6391 0.00831 0.15521 0.0
Cd46 Cd 0.6365 0.01996 0.09669 0.0
C47 C 0.54316 0.96845 0.09506 0.0
O48 O 0.68658 0.95524 0.0773 0.0
O49 O 0.64405 0.98349 0.0422 0.0
O50 O 0.68029 0.09037 0.11547 0.0
C51 C 0.67719 0.96033 0.04782 0.0
O52 O 0.56166 0.92536 0.09706 0.0
C53 C 0.6677 0.12325 0.09574 0.0
O54 O 0.56318 0.01059 0.09586 0.0
O55 O 0.64043 0.10848 0.07576 0.0
C56 C 0.747 0.00315 0.67365 0.0
O57 O 0.74006 0.04656 0.66094 0.0
Cd58 Cd 0.72455 0.06333 0.60488 0.0
O59 O 0.74777 0.96129 0.65642 0.0
Cd60 Cd 0.74013 0.92858 0.59958 0.0
C61 C 0.64227 0.97869 0.59643 0.0
O62 O 0.76662 0.00499 0.57602 0.0
O63 O 0.76244 0.9403 0.54311 0.0
O64 O 0.78847 0.86337 0.61698 0.0
C65 C 0.76688 0.98871 0.54687 0.0
O66 O 0.65773 0.02401 0.59794 0.0
C67 C 0.77281 0.82673 0.59995 0.0
O68 O 0.66464 0.93821 0.59761 0.0
O69 O 0.74129 0.83706 0.58354 0.0
C70 C 0.3666 0.97255 0.67503 0.0
O71 O 0.36507 0.92569 0.66507 0.0
Cd72 Cd 0.37432 0.91013 0.6079 0.0
O73 O 0.37024 0.00826 0.65485 0.0
Cd74 Cd 0.3731 0.01988 0.59632 0.0
C75 C 0.46612 0.96741 0.59471 0.0
O76 O 0.32254 0.95574 0.57703 0.0
O77 O 0.36522 0.98348 0.54184 0.0
O78 O 0.32988 0.09084 0.61512 0.0
C79 C 0.3319 0.96077 0.54752 0.0
O80 O 0.44735 0.92449 0.59672 0.0
C81 C 0.34264 0.12351 0.59532 0.0
O82 O 0.44633 0.00973 0.59549 0.0
O83 O 0.36977 0.10837 0.57529 0.0
C84 C 0.74679 0.99378 0.81319 0.0
O85 O 0.73961 0.95045 0.82595 0.0
Cd86 Cd 0.72394 0.9339 0.88205 0.0
O87 O 0.74772 0.03567 0.83038 0.0
Cd88 Cd 0.73998 0.0687 0.88714 0.0
C89 C 0.64194 0.01895 0.89034 0.0
O90 O 0.76613 0.99225 0.91077 0.0
O91 O 0.76271 0.05717 0.94354 0.0
O92 O 0.78823 0.13394 0.86956 0.0
C93 C 0.76672 0.00868 0.93987 0.0
O94 O 0.65722 0.97353 0.88888 0.0
C95 C 0.77262 0.17057 0.88664 0.0
O96 O 0.66447 0.05928 0.88915 0.0
O97 O 0.74118 0.16022 0.90315 0.0
C98 C 0.36649 0.02733 0.81151 0.0
O99 O 0.36515 0.0742 0.82147 0.0
Cd100 Cd 0.37439 0.0897 0.87864 0.0
O101 O 0.36989 0.9916 0.8317 0.0
Cd102 Cd 0.37251 0.97995 0.89022 0.0
C103 C 0.46583 0.03155 0.89185 0.0
O104 O 0.32238 0.04463 0.9096 0.0
O105 O 0.36491 0.01642 0.94472 0.0
O106 O 0.32878 0.90947 0.87147 0.0
C107 C 0.33177 0.03955 0.93909 0.0
O108 O 0.44731 0.07463 0.88985 0.0
C109 C 0.34142 0.87662 0.89119 0.0
O110 O 0.44581 0.9894 0.89106 0.0
O111 O 0.36868 0.89144 0.91117 0.0
C112 C 0.76253 0.4956 0.3132 0.0
O113 O 0.76966 0.45225 0.32593 0.0
Cd114 Cd 0.78527 0.43554 0.38197 0.0
O115 O 0.76159 0.53747 0.33042 0.0
Cd116 Cd 0.76918 0.57021 0.38728 0.0
C117 C 0.86723 0.52068 0.39043 0.0
O118 O 0.74298 0.49362 0.41082 0.0
O119 O 0.7469 0.55831 0.44375 0.0
O120 O 0.72067 0.63527 0.36993 0.0
C121 C 0.74265 0.50987 0.43997 0.0
O122 O 0.85195 0.47526 0.38891 0.0
C123 C 0.73627 0.67195 0.38697 0.0
O124 O 0.84469 0.56101 0.38924 0.0
O125 O 0.76781 0.6617 0.40336 0.0
C126 C 0.14284 0.52866 0.31188 0.0
O127 O 0.14421 0.57553 0.32183 0.0
Cd128 Cd 0.13491 0.59099 0.37901 0.0
O129 O 0.13935 0.49294 0.33206 0.0
Cd130 Cd 0.13656 0.48129 0.39058 0.0
C131 C 0.04334 0.53315 0.39219 0.0
O132 O 0.18688 0.54572 0.4099 0.0
O133 O 0.14431 0.5177 0.44508 0.0
O134 O 0.18005 0.41059 0.37178 0.0
C135 C 0.17756 0.5406 0.4394 0.0
O136 O 0.06193 0.57619 0.39018 0.0
C137 C 0.16739 0.37784 0.39156 0.0
O138 O 0.06329 0.49096 0.39142 0.0
O139 O 0.1402 0.3928 0.41159 0.0
C140 C 0.76256 0.50476 0.17366 0.0
O141 O 0.76955 0.5481 0.16087 0.0
Cd142 Cd 0.78514 0.56461 0.10475 0.0
O143 O 0.76181 0.46282 0.15651 0.0
Cd144 Cd 0.76965 0.42971 0.09978 0.0
C145 C 0.86749 0.48008 0.09654 0.0
O146 O 0.74318 0.50593 0.07607 0.0
O147 O 0.74692 0.44095 0.04336 0.0
O148 O 0.7216 0.36429 0.11741 0.0
C149 C 0.74268 0.48942 0.04698 0.0
O150 O 0.85202 0.52539 0.09796 0.0
C151 C 0.7373 0.3277 0.10035 0.0
O152 O 0.84513 0.43959 0.09777 0.0
O153 O 0.76872 0.33815 0.08384 0.0
C154 C 0.14303 0.47376 0.17541 0.0
O155 O 0.14456 0.42689 0.16548 0.0
Cd156 Cd 0.13534 0.41122 0.10832 0.0
O157 O 0.13945 0.50945 0.15521 0.0
Cd158 Cd 0.13676 0.52099 0.09668 0.0
C159 C 0.04365 0.46874 0.09509 0.0
O160 O 0.18713 0.4566 0.07732 0.0
O161 O 0.14448 0.48451 0.04219 0.0
O162 O 0.18022 0.59175 0.11542 0.0
C163 C 0.17771 0.46157 0.04783 0.0
O164 O 0.06236 0.42579 0.09711 0.0
C165 C 0.16747 0.62451 0.09568 0.0
O166 O 0.06349 0.51103 0.09585 0.0
O167 O 0.14026 0.60951 0.0757 0.0
C168 C 0.24738 0.50446 0.67362 0.0
O169 O 0.24027 0.54785 0.66092 0.0
Cd170 Cd 0.2247 0.56468 0.60488 0.0
O171 O 0.24831 0.46263 0.65636 0.0
Cd172 Cd 0.24074 0.42999 0.59949 0.0
C173 C 0.14271 0.47963 0.59635 0.0
O174 O 0.26696 0.5066 0.576 0.0
O175 O 0.26313 0.44193 0.54304 0.0
O176 O 0.28915 0.36483 0.61684 0.0
C177 C 0.26733 0.49038 0.54684 0.0
O178 O 0.158 0.52504 0.5979 0.0
C179 C 0.27352 0.32819 0.59978 0.0
O180 O 0.16524 0.43929 0.5975 0.0
O181 O 0.24201 0.33851 0.58337 0.0
C182 C 0.86711 0.47134 0.67492 0.0
O183 O 0.86578 0.42449 0.66492 0.0
Cd184 Cd 0.87507 0.40916 0.60774 0.0
O185 O 0.87058 0.50712 0.65476 0.0
Cd186 Cd 0.87336 0.51891 0.59626 0.0
C187 C 0.96661 0.46714 0.5946 0.0
O188 O 0.82308 0.45446 0.57691 0.0
O189 O 0.86563 0.48256 0.54175 0.0
O190 O 0.82983 0.58953 0.61512 0.0
C191 C 0.8324 0.45963 0.54741 0.0
O192 O 0.94803 0.42408 0.59657 0.0
C193 C 0.84243 0.62232 0.59535 0.0
O194 O 0.94664 0.50932 0.59541 0.0
O195 O 0.86962 0.60742 0.5753 0.0
C196 C 0.24721 0.49496 0.81315 0.0
O197 O 0.24022 0.45158 0.8259 0.0
Cd198 Cd 0.22461 0.43492 0.88201 0.0
O199 O 0.24794 0.53686 0.83034 0.0
Cd200 Cd 0.24004 0.56985 0.88708 0.0
C201 C 0.14222 0.51935 0.89029 0.0
O202 O 0.26651 0.49361 0.91074 0.0
O203 O 0.2629 0.55855 0.94347 0.0
O204 O 0.28796 0.63543 0.86947 0.0
C205 C 0.26707 0.51008 0.93983 0.0
O206 O 0.1577 0.47405 0.88882 0.0
C207 C 0.27221 0.67195 0.88657 0.0
O208 O 0.16457 0.55985 0.8891 0.0
O209 O 0.24083 0.66138 0.9031 0.0
C210 C 0.86678 0.52593 0.81142 0.0
O211 O 0.86524 0.57278 0.82139 0.0
Cd212 Cd 0.87442 0.58836 0.87855 0.0
O213 O 0.87032 0.4902 0.83159 0.0
Cd214 Cd 0.87293 0.47856 0.89013 0.0
C215 C 0.96606 0.5307 0.89178 0.0
O216 O 0.82259 0.54296 0.90949 0.0
O217 O 0.86523 0.51503 0.94461 0.0
O218 O 0.82942 0.40787 0.87135 0.0
C219 C 0.832 0.53797 0.93897 0.0
O220 O 0.94737 0.57367 0.88977 0.0
C221 C 0.8421 0.37509 0.8911 0.0
O222 O 0.94621 0.48842 0.89097 0.0
O223 O 0.86931 0.39004 0.91109 0.0
C224 C 0.29154 0.95009 0.46323 0.0
C225 C 0.25553 0.97898 0.4668 0.0
H226 H 0.34479 0.92177 0.48682 0.0
C227 C 0.24037 0.98989 0.498 0.0
H228 H 0.3043 0.94194 0.43955 0.0
C229 C 0.26313 0.97709 0.52518 0.0
C230 C 0.30185 0.95475 0.52133 0.0
H231 H 0.21295 0.01277 0.50131 0.0
H232 H 0.25263 0.99026 0.54885 0.0
C233 C 0.31489 0.93879 0.49032 0.0
C234 C 0.76883 0.01003 0.48892 0.0
C235 C 0.75366 0.02092 0.52012 0.0
H236 H 0.75659 0.00966 0.43807 0.0
C237 C 0.71764 0.04981 0.52368 0.0
H238 H 0.79625 0.98715 0.48562 0.0
C239 C 0.6943 0.06111 0.49658 0.0
C240 C 0.70736 0.04516 0.46558 0.0
H241 H 0.70487 0.05795 0.54736 0.0
H242 H 0.6644 0.07812 0.50008 0.0
C243 C 0.74608 0.02283 0.46174 0.0
C244 C 0.24019 0.01213 0.98903 0.0
C245 C 0.25558 0.02305 0.02015 0.0
H246 H 0.25224 0.01118 0.93813 0.0
C247 C 0.29186 0.05146 0.0235 0.0
H248 H 0.21256 0.9896 0.98589 0.0
C249 C 0.3152 0.0622 -0.00371 0.0
C250 C 0.30188 0.04619 0.96537 0.0
H251 H 0.30479 0.05961 0.04712 0.0
H252 H 0.34525 0.07882 -0.00037 0.0
C253 C 0.26294 0.02439 0.96173 0.0
C254 C 0.71708 0.94845 0.9634 0.0
C255 C 0.75337 0.97682 0.96676 0.0
H256 H 0.66367 0.9211 0.98726 0.0
C257 C 0.76877 0.98771 -0.00212 0.0
H258 H 0.70415 0.94033 0.93978 0.0
C259 C 0.74601 0.97544 0.02518 0.0
C260 C 0.70707 0.95368 0.02153 0.0
H261 H 0.79641 0.01021 0.00103 0.0
H262 H 0.75673 0.98862 0.04878 0.0
C263 C 0.69374 0.9377 0.99061 0.0
C264 C 0.81544 0.43769 0.49021 0.0
C265 C 0.80236 0.45354 0.52122 0.0
H266 H 0.80485 0.4409 0.43944 0.0
C267 C 0.76358 0.47573 0.52509 0.0
H268 H 0.84537 0.42079 0.4867 0.0
C269 C 0.7408 0.4885 0.49792 0.0
C270 C 0.75598 0.47771 0.46671 0.0
H271 H 0.75307 0.48882 0.54877 0.0
H272 H 0.71333 0.51128 0.50124 0.0
C273 C 0.79206 0.44895 0.46313 0.0
C274 C 0.26917 0.51175 0.48889 0.0
C275 C 0.25399 0.52254 0.5201 0.0
H276 H 0.2569 0.51143 0.43805 0.0
C277 C 0.21791 0.55129 0.52369 0.0
H278 H 0.29664 0.48898 0.48557 0.0
C279 C 0.19453 0.56255 0.49661 0.0
C280 C 0.2076 0.5467 0.46559 0.0
H281 H 0.20513 0.55935 0.54738 0.0
H282 H 0.16459 0.57945 0.50012 0.0
C283 C 0.24638 0.52452 0.46172 0.0
C284 C 0.8154 0.56066 -0.00384 0.0
C285 C 0.80211 0.54452 0.96526 0.0
H286 H 0.80503 0.55813 0.047 0.0
C287 C 0.76324 0.52253 0.96164 0.0
H288 H 0.84541 0.57743 -0.00052 0.0
C289 C 0.74053 0.51023 0.98896 0.0
C290 C 0.75591 0.52129 0.02006 0.0
H291 H 0.75256 0.50924 0.93806 0.0
H292 H 0.71297 0.48757 0.98584 0.0
C293 C 0.7921 0.54988 0.02339 0.0
C294 C 0.19431 0.43889 0.99064 0.0
C295 C 0.2076 0.45501 0.02154 0.0
H296 H 0.20469 0.44141 0.9398 0.0
C297 C 0.24649 0.47696 0.02517 0.0
H298 H 0.16429 0.42214 0.98732 0.0
C299 C 0.26921 0.48925 -0.00215 0.0
C300 C 0.25383 0.47821 0.96675 0.0
H301 H 0.25717 0.49024 0.04876 0.0
H302 H 0.29678 0.51188 0.00098 0.0
C303 C 0.21762 0.44965 0.96342 0.0
C304 C 0.47791 0.98344 0.39732 0.0
C305 C 0.498 0.03097 0.394 0.0
H306 H 0.42137 0.9432 0.39904 0.0
C307 C 0.4745 0.07617 0.39104 0.0
H308 H 0.49492 0.94787 0.39986 0.0
C309 C 0.43183 0.0735 0.39052 0.0
C310 C 0.41191 0.02558 0.39292 0.0
H311 H 0.48902 0.11345 0.38847 0.0
H312 H 0.41456 0.10876 0.3876 0.0
C313 C 0.43554 0.98078 0.3968 0.0
C314 C 0.43586 0.02085 0.0904 0.0
C315 C 0.41199 0.97621 0.09417 0.0
H316 H 0.49541 0.05334 0.08749 0.0
C317 C 0.43169 0.92814 0.09655 0.0
H318 H 0.42188 0.05855 0.0882 0.0
C319 C 0.47434 0.92516 0.09609 0.0
C320 C 0.49806 0.97019 0.09323 0.0
H321 H 0.41424 0.89299 0.09938 0.0
H322 H 0.48867 0.88775 0.09863 0.0
C323 C 0.47822 0.01788 0.08995 0.0
C324 C 0.57368 0.01892 0.59007 0.0
C325 C 0.59731 0.97414 0.59398 0.0
H326 H 0.51431 0.05184 0.58699 0.0
C327 C 0.57738 0.92623 0.59642 0.0
H328 H 0.58785 0.0565 0.58779 0.0
C329 C 0.53472 0.92356 0.59591 0.0
C330 C 0.51122 0.96876 0.59292 0.0
H331 H 0.59465 0.89097 0.59937 0.0
H332 H 0.52018 0.88629 0.59851 0.0
C333 C 0.53131 0.01627 0.58955 0.0
C334 C 0.5773 0.07187 0.89033 0.0
C335 C 0.59699 0.0238 0.89273 0.0
H336 H 0.52031 0.11225 0.88823 0.0
C337 C 0.57313 0.97917 0.89653 0.0
H338 H 0.59474 0.10701 0.88747 0.0
C339 C 0.53076 0.98214 0.89699 0.0
C340 C 0.51092 0.02983 0.89368 0.0
H341 H 0.58711 0.94148 0.89876 0.0
H342 H 0.51358 0.94669 0.89947 0.0
C343 C 0.53465 0.07485 0.89079 0.0
C344 C 0.93599 0.4809 0.3968 0.0
C345 C 0.91217 0.52553 0.39288 0.0
H346 H 0.9955 0.44839 0.39989 0.0
C347 C 0.9319 0.57358 0.39045 0.0
H348 H 0.92197 0.44323 0.39906 0.0
C349 C 0.97455 0.57653 0.39098 0.0
C350 C 0.99824 0.5315 0.39397 0.0
H351 H 0.91449 0.60871 0.38751 0.0
H352 H 0.98893 0.6139 0.38839 0.0
C353 C 0.97835 0.48384 0.39733 0.0
C354 C 0.97503 0.42495 0.09617 0.0
C355 C 0.99855 0.47014 0.09326 0.0
H356 H 0.91508 0.39236 0.0995 0.0
C357 C 0.9785 0.51767 0.0899 0.0
H358 H 0.98953 0.38766 0.09876 0.0
C359 C 0.93612 0.52033 0.09034 0.0
C360 C 0.91246 0.47554 0.09418 0.0
H361 H 0.99553 0.55324 0.08739 0.0
H362 H 0.92198 0.55792 0.08808 0.0
C363 C 0.93236 0.42762 0.09662 0.0
C364 C 0.03539 0.42377 0.59574 0.0
C365 C 0.0117 0.46881 0.59281 0.0
H366 H 0.09546 0.39158 0.59915 0.0
C367 C 0.03159 0.51649 0.58952 0.0
H368 H 0.02102 0.38638 0.59828 0.0
C369 C 0.07395 0.51943 0.59004 0.0
C370 C 0.09777 0.47479 0.59389 0.0
H371 H 0.01444 0.55195 0.587 0.0
H372 H 0.08796 0.55711 0.58783 0.0
C373 C 0.07805 0.42673 0.59626 0.0
C374 C 0.07359 0.47906 0.89643 0.0
C375 C 0.09725 0.52387 0.89266 0.0
H376 H 0.01418 0.44616 0.89934 0.0
C377 C 0.07735 0.57181 0.89029 0.0
H378 H 0.08774 0.44147 0.89864 0.0
C379 C 0.03469 0.57449 0.89075 0.0
C380 C 0.01116 0.52928 0.8936 0.0
H381 H 0.09464 0.60708 0.88746 0.0
H382 H 0.02019 0.61179 0.88822 0.0
C383 C 0.03121 0.48173 0.89689 0.0
C384 C 0.1878 0.29752 0.36111 0.0
C385 C 0.18364 0.32481 0.39078 0.0
H386 H 0.20692 0.22705 0.33683 0.0
C387 C 0.19675 0.30194 0.41924 0.0
H388 H 0.17789 0.31463 0.33887 0.0
C389 C 0.2148 0.25285 0.4179 0.0
C390 C 0.2185 0.22531 0.38825 0.0
H391 H 0.19407 0.32259 0.44232 0.0
H392 H 0.22532 0.23608 0.44006 0.0
C393 C 0.20434 0.24767 0.35993 0.0
C394 C 0.69622 0.8006 0.41922 0.0
C395 C 0.68298 0.82338 0.39077 0.0
H396 H 0.72497 0.73487 0.44004 0.0
C397 C 0.68706 0.79602 0.36111 0.0
H398 H 0.6936 0.82131 0.44229 0.0
C399 C 0.70368 0.74621 0.35994 0.0
C400 C 0.71799 0.72396 0.38825 0.0
H401 H 0.67706 0.81306 0.33888 0.0
H402 H 0.70622 0.72555 0.33685 0.0
C403 C 0.71434 0.75156 0.41789 0.0
C404 C 0.19661 0.70054 0.06797 0.0
C405 C 0.18367 0.67757 0.09645 0.0
H406 H 0.22502 0.76651 0.04711 0.0
C407 C 0.18795 0.70479 0.12613 0.0
H408 H 0.19383 0.67995 0.04487 0.0
C409 C 0.20446 0.75467 0.1273 0.0
C410 C 0.21846 0.77712 0.09896 0.0
H411 H 0.17817 0.68761 0.14839 0.0
H412 H 0.20714 0.77523 0.15041 0.0
C413 C 0.21462 0.74966 0.06929 0.0
C414 C 0.68854 0.20334 0.12624 0.0
C415 C 0.68413 0.1762 0.09655 0.0
H416 H 0.70792 0.27367 0.15055 0.0
C417 C 0.69711 0.19915 0.06807 0.0
H418 H 0.67873 0.18616 0.1485 0.0
C419 C 0.71525 0.24819 0.06941 0.0
C420 C 0.71918 0.2756 0.09909 0.0
H421 H 0.69423 0.17862 0.04497 0.0
H422 H 0.72565 0.26504 0.04723 0.0
C423 C 0.70517 0.25315 0.12743 0.0
C424 C 0.79476 0.74715 0.56902 0.0
C425 C 0.79102 0.77468 0.59867 0.0
H426 H 0.81561 0.67748 0.54459 0.0
C427 C 0.80526 0.75238 0.62698 0.0
H428 H 0.78418 0.76389 0.54686 0.0
C429 C 0.82191 0.70258 0.6258 0.0
C430 C 0.82609 0.6753 0.59613 0.0
H431 H 0.80265 0.77299 0.65008 0.0
H432 H 0.83187 0.68551 0.64803 0.0
C433 C 0.81291 0.69812 0.56767 0.0
C434 C 0.30593 0.25385 0.62685 0.0
C435 C 0.29171 0.27613 0.59852 0.0
H436 H 0.33238 0.18692 0.64795 0.0
C437 C 0.29535 0.24851 0.56889 0.0
H438 H 0.30339 0.27452 0.64993 0.0
C439 C 0.31337 0.1994 0.56758 0.0
C440 C 0.32652 0.1766 0.59605 0.0
H441 H 0.28478 0.26522 0.54673 0.0
H442 H 0.31599 0.17868 0.54452 0.0
C443 C 0.32245 0.20397 0.6257 0.0
C444 C 0.80487 0.245 0.85952 0.0
C445 C 0.79081 0.22263 0.88788 0.0
H446 H 0.8313 0.31196 0.83841 0.0
C447 C 0.79469 0.25012 0.91753 0.0
H448 H 0.80215 0.22443 0.83642 0.0
C449 C 0.8128 0.29918 0.91884 0.0
C450 C 0.82581 0.32207 0.89035 0.0
H451 H 0.78426 0.23333 0.93972 0.0
H452 H 0.81562 0.31978 0.94192 0.0
C453 C 0.82148 0.29484 0.86067 0.0
C454 C 0.30414 0.74663 0.85949 0.0
C455 C 0.29023 0.72411 0.88783 0.0
H456 H 0.33041 0.81373 0.83842 0.0
C457 C 0.29415 0.7515 0.91752 0.0
H458 H 0.30139 0.72613 0.83636 0.0
C459 C 0.31219 0.80059 0.91886 0.0
C460 C 0.32507 0.82362 0.89038 0.0
H461 H 0.28383 0.73458 0.9397 0.0
H462 H 0.31507 0.82111 0.94197 0.0
C463 C 0.32067 0.7965 0.86068 0.0
C464 C 0.25705 0.04711 0.26248 0.0
C465 C 0.25776 0.99911 0.27763 0.0
H466 H 0.2578 0.08705 0.21796 0.0
C467 C 0.25681 0.95348 0.25821 0.0
H468 H 0.25766 0.08307 0.27664 0.0
C469 C 0.25669 0.95578 0.2245 0.0
C470 C 0.25778 0.00377 0.20935 0.0
H471 H 0.25711 0.91583 0.26902 0.0
H472 H 0.25701 0.91981 0.21035 0.0
C473 C 0.25719 0.04941 0.22877 0.0
C474 C 0.6444 0.94776 0.23345 0.0
C475 C 0.64417 0.98636 0.21033 0.0
H476 H 0.64411 0.93043 0.28358 0.0
C477 C 0.6446 0.0387 0.22088 0.0
H478 H 0.64411 0.90714 0.22615 0.0
C479 C 0.64466 0.05214 0.25382 0.0
C480 C 0.64418 0.01355 0.27694 0.0
H481 H 0.64456 0.06947 0.20369 0.0
H482 H 0.64457 0.09276 0.26112 0.0
C483 C 0.64435 0.9612 0.26639 0.0
C484 C 0.75234 0.04408 0.76241 0.0
C485 C 0.75122 0.99609 0.77756 0.0
H486 H 0.75198 0.08402 0.71789 0.0
C487 C 0.75182 0.95044 0.75815 0.0
H488 H 0.75202 0.08004 0.77656 0.0
C489 C 0.752 0.95274 0.72443 0.0
C490 C 0.75132 0.00074 0.70929 0.0
H491 H 0.7512 0.91281 0.76896 0.0
H492 H 0.7514 0.91678 0.71027 0.0
C493 C 0.75226 0.04637 0.7287 0.0
C494 C 0.36462 0.05213 0.75346 0.0
C495 C 0.36484 0.01354 0.77658 0.0
H496 H 0.36497 0.06947 0.70333 0.0
C497 C 0.36443 0.9612 0.76603 0.0
H498 H 0.3649 0.09276 0.76076 0.0
C499 C 0.3644 0.94776 0.73309 0.0
C500 C 0.36491 0.98635 0.70996 0.0
H501 H 0.36446 0.93043 0.78321 0.0
H502 H 0.36451 0.90714 0.72579 0.0
C503 C 0.36471 0.03869 0.72052 0.0
C504 C 0.75723 0.45452 0.22447 0.0
C505 C 0.75817 0.50249 0.2093 0.0
H506 H 0.75777 0.41465 0.26902 0.0
C507 C 0.75743 0.54816 0.22868 0.0
H508 H 0.75766 0.41853 0.21034 0.0
C509 C 0.75729 0.54591 0.2624 0.0
C510 C 0.75816 0.49794 0.27757 0.0
H511 H 0.75792 0.58578 0.21785 0.0
H512 H 0.75779 0.58189 0.27654 0.0
C513 C 0.75735 0.45228 0.25819 0.0
C514 C 0.14486 0.55342 0.25381 0.0
C515 C 0.14456 0.51485 0.27695 0.0
H516 H 0.14466 0.57071 0.20368 0.0
C517 C 0.14497 0.4625 0.26641 0.0
H518 H 0.14459 0.59405 0.2611 0.0
C519 C 0.14508 0.44903 0.23348 0.0
C520 C 0.14466 0.4876 0.21034 0.0
H521 H 0.14488 0.43174 0.28361 0.0
H522 H 0.14497 0.4084 0.22619 0.0
C523 C 0.14485 0.53995 0.22088 0.0
C524 C 0.25259 0.54533 0.76239 0.0
C525 C 0.25163 0.49732 0.77752 0.0
H526 H 0.2521 0.58531 0.71788 0.0
C527 C 0.25239 0.4517 0.75809 0.0
H528 H 0.25215 0.58128 0.77655 0.0
C529 C 0.25256 0.45402 0.72437 0.0
C530 C 0.25172 0.50204 0.70925 0.0
H531 H 0.25189 0.41405 0.76889 0.0
H532 H 0.25208 0.41808 0.7102 0.0
C533 C 0.25251 0.54765 0.72868 0.0
C534 C 0.86506 0.44644 0.73295 0.0
C535 C 0.86537 0.48507 0.70986 0.0
H536 H 0.86521 0.42904 0.78307 0.0
C537 C 0.86494 0.5374 0.72044 0.0
H538 H 0.86535 0.40583 0.72563 0.0
C539 C 0.8648 0.55079 0.75338 0.0
C540 C 0.8652 0.51216 0.77648 0.0
H541 H 0.86504 0.5682 0.70327 0.0
H542 H 0.86489 0.5914 0.7607 0.0
C543 C 0.86503 0.45983 0.7659 0.0
loop_
_geom_bond_atom_site_label_1
_geom_bond_atom_site_label_2
_geom_bond_distance
_geom_bond_site_symmetry_2
_ccdc_geom_bond_type
C0 O1 1.306 . S
C0 O3 1.160 1_565 S
O1 C0 1.306 . S
O1 Cd2 2.228 . S
Cd2 O1 2.228 . S
Cd2 O6 2.291 . S
Cd2 O10 2.277 . S
O3 C0 1.160 1_545 S
O3 Cd4 2.203 . S
Cd4 O3 2.203 . S
Cd4 O6 2.394 1_545 S
Cd4 O7 2.333 . S
Cd4 O8 2.352 . S
Cd4 O12 2.277 . S
Cd4 O13 2.356 . S
C5 O10 1.209 1_545 S
C5 O12 1.226 . S
O6 Cd2 2.291 . S
O6 Cd4 2.394 1_565 S
O6 C9 1.308 1_565 S
O7 Cd4 2.333 . S
O7 C9 1.214 . S
O8 Cd4 2.352 . S
O8 C11 1.258 . S
C9 O6 1.308 1_545 S
C9 O7 1.214 . S
O10 Cd2 2.277 . S
O10 C5 1.209 1_565 S
C11 O8 1.258 . S
C11 O13 1.282 . S
O12 Cd4 2.277 . S
O12 C5 1.226 . S
O13 Cd4 2.356 . S
O13 C11 1.282 . S
C14 O15 1.306 . S
C14 O17 1.160 1_545 S
O15 C14 1.306 . S
O15 Cd16 2.228 . S
Cd16 O15 2.228 . S
Cd16 O20 2.291 . S
Cd16 O24 2.277 . S
O17 C14 1.160 1_565 S
O17 Cd18 2.203 . S
Cd18 O17 2.203 . S
Cd18 O20 2.394 1_565 S
Cd18 O21 2.333 . S
Cd18 O22 2.352 . S
Cd18 O26 2.277 . S
Cd18 O27 2.356 . S
C19 O24 1.209 1_565 S
C19 O26 1.226 . S
O20 Cd16 2.291 . S
O20 Cd18 2.394 1_545 S
O20 C23 1.308 1_545 S
O21 Cd18 2.333 . S
O21 C23 1.214 . S
O22 Cd18 2.352 . S
O22 C25 1.258 . S
C23 O20 1.308 1_565 S
C23 O21 1.214 . S
O24 Cd16 2.277 . S
O24 C19 1.209 1_545 S
C25 O22 1.258 . S
C25 O27 1.282 . S
O26 Cd18 2.277 . S
O26 C19 1.226 . S
O27 Cd18 2.356 . S
O27 C25 1.282 . S
C28 O29 1.306 . S
C28 O31 1.160 1_545 S
O29 C28 1.306 . S
O29 Cd30 2.228 . S
Cd30 O29 2.228 . S
Cd30 O34 2.291 . S
Cd30 O38 2.277 . S
O31 C28 1.160 1_565 S
O31 Cd32 2.203 . S
Cd32 O31 2.203 . S
Cd32 O34 2.394 1_565 S
Cd32 O35 2.333 . S
Cd32 O36 2.352 . S
Cd32 O40 2.277 . S
Cd32 O41 2.356 . S
C33 O38 1.209 1_565 S
C33 O40 1.226 . S
O34 Cd30 2.291 . S
O34 Cd32 2.394 1_545 S
O34 C37 1.308 1_545 S
O35 Cd32 2.333 . S
O35 C37 1.214 . S
O36 Cd32 2.352 . S
O36 C39 1.258 . S
C37 O34 1.308 1_565 S
C37 O35 1.214 . S
O38 Cd30 2.277 . S
O38 C33 1.209 1_545 S
C39 O36 1.258 . S
C39 O41 1.282 . S
O40 Cd32 2.277 . S
O40 C33 1.226 . S
O41 Cd32 2.356 . S
O41 C39 1.282 . S
C42 O43 1.306 . S
C42 O45 1.160 1_565 S
O43 C42 1.306 . S
O43 Cd44 2.228 . S
Cd44 O43 2.228 . S
Cd44 O48 2.291 . S
Cd44 O52 2.277 . S
O45 C42 1.160 1_545 S
O45 Cd46 2.203 . S
Cd46 O45 2.203 . S
Cd46 O48 2.394 1_545 S
Cd46 O49 2.333 . S
Cd46 O50 2.352 . S
Cd46 O54 2.277 . S
Cd46 O55 2.356 . S
C47 O52 1.209 1_545 S
C47 O54 1.226 . S
O48 Cd44 2.291 . S
O48 Cd46 2.394 1_565 S
O48 C51 1.308 1_565 S
O49 Cd46 2.333 . S
O49 C51 1.214 . S
O50 Cd46 2.352 . S
O50 C53 1.258 . S
C51 O48 1.308 1_545 S
C51 O49 1.214 . S
O52 Cd44 2.277 . S
O52 C47 1.209 1_565 S
C53 O50 1.258 . S
C53 O55 1.282 . S
O54 Cd46 2.277 . S
O54 C47 1.226 . S
O55 Cd46 2.356 . S
O55 C53 1.282 . S
C56 O57 1.306 . S
C56 O59 1.160 1_545 S
O57 C56 1.306 . S
O57 Cd58 2.228 . S
Cd58 O57 2.228 . S
Cd58 O62 2.291 . S
Cd58 O66 2.277 . S
O59 C56 1.160 1_565 S
O59 Cd60 2.203 . S
Cd60 O59 2.203 . S
Cd60 O62 2.394 1_565 S
Cd60 O63 2.333 . S
Cd60 O64 2.352 . S
Cd60 O68 2.277 . S
Cd60 O69 2.356 . S
C61 O66 1.209 1_565 S
C61 O68 1.226 . S
O62 Cd58 2.291 . S
O62 Cd60 2.394 1_545 S
O62 C65 1.308 1_545 S
O63 Cd60 2.333 . S
O63 C65 1.214 . S
O64 Cd60 2.352 . S
O64 C67 1.258 . S
C65 O62 1.308 1_565 S
C65 O63 1.214 . S
O66 Cd58 2.277 . S
O66 C61 1.209 1_545 S
C67 O64 1.258 . S
C67 O69 1.282 . S
O68 Cd60 2.277 . S
O68 C61 1.226 . S
O69 Cd60 2.356 . S
O69 C67 1.282 . S
C70 O71 1.306 . S
C70 O73 1.160 1_565 S
O71 C70 1.306 . S
O71 Cd72 2.228 . S
Cd72 O71 2.228 . S
Cd72 O76 2.291 . S
Cd72 O80 2.277 . S
O73 C70 1.160 1_545 S
O73 Cd74 2.203 . S
Cd74 O73 2.203 . S
Cd74 O76 2.394 1_545 S
Cd74 O77 2.333 . S
Cd74 O78 2.352 . S
Cd74 O82 2.277 . S
Cd74 O83 2.356 . S
C75 O80 1.209 1_545 S
C75 O82 1.226 . S
O76 Cd72 2.291 . S
O76 Cd74 2.394 1_565 S
O76 C79 1.308 1_565 S
O77 Cd74 2.333 . S
O77 C79 1.214 . S
O78 Cd74 2.352 . S
O78 C81 1.258 . S
C79 O76 1.308 1_545 S
C79 O77 1.214 . S
O80 Cd72 2.277 . S
O80 C75 1.209 1_565 S
C81 O78 1.258 . S
C81 O83 1.282 . S
O82 Cd74 2.277 . S
O82 C75 1.226 . S
O83 Cd74 2.356 . S
O83 C81 1.282 . S
C84 O85 1.306 . S
C84 O87 1.160 1_565 S
O85 C84 1.306 . S
O85 Cd86 2.228 . S
Cd86 O85 2.228 . S
Cd86 O90 2.291 . S
Cd86 O94 2.277 . S
O87 C84 1.160 1_545 S
O87 Cd88 2.203 . S
Cd88 O87 2.203 . S
Cd88 O90 2.394 1_545 S
Cd88 O91 2.333 . S
Cd88 O92 2.352 . S
Cd88 O96 2.277 . S
Cd88 O97 2.356 . S
C89 O94 1.209 1_545 S
C89 O96 1.226 . S
O90 Cd86 2.291 . S
O90 Cd88 2.394 1_565 S
O90 C93 1.308 1_565 S
O91 Cd88 2.333 . S
O91 C93 1.214 . S
O92 Cd88 2.352 . S
O92 C95 1.258 . S
C93 O90 1.308 1_545 S
C93 O91 1.214 . S
O94 Cd86 2.277 . S
O94 C89 1.209 1_565 S
C95 O92 1.258 . S
C95 O97 1.282 . S
O96 Cd88 2.277 . S
O96 C89 1.226 . S
O97 Cd88 2.356 . S
O97 C95 1.282 . S
C98 O99 1.306 . S
C98 O101 1.160 1_545 S
O99 C98 1.306 . S
O99 Cd100 2.228 . S
Cd100 O99 2.228 . S
Cd100 O104 2.291 . S
Cd100 O108 2.277 . S
O101 C98 1.160 1_565 S
O101 Cd102 2.203 . S
Cd102 O101 2.203 . S
Cd102 O104 2.394 1_565 S
Cd102 O105 2.333 . S
Cd102 O106 2.352 . S
Cd102 O110 2.277 . S
Cd102 O111 2.356 . S
C103 O108 1.209 1_565 S
C103 O110 1.226 . S
O104 Cd100 2.291 . S
O104 Cd102 2.394 1_545 S
O104 C107 1.308 1_545 S
O105 Cd102 2.333 . S
O105 C107 1.214 . S
O106 Cd102 2.352 . S
O106 C109 1.258 . S
C107 O104 1.308 1_565 S
C107 O105 1.214 . S
O108 Cd100 2.277 . S
O108 C103 1.209 1_545 S
C109 O106 1.258 . S
C109 O111 1.282 . S
O110 Cd102 2.277 . S
O110 C103 1.226 . S
O111 Cd102 2.356 . S
O111 C109 1.282 . S
C112 O113 1.306 . S
C112 O115 1.160 . S
O113 C112 1.306 . S
O113 Cd114 2.228 . S
Cd114 O113 2.228 . S
Cd114 O118 2.273 . S
Cd114 O122 2.277 . S
O115 C112 1.160 . S
O115 Cd116 2.203 . S
Cd116 O115 2.203 . S
Cd116 O118 2.411 . S
Cd116 O119 2.333 . S
Cd116 O120 2.352 . S
Cd116 O124 2.277 . S
Cd116 O125 2.356 . S
C117 O122 1.209 . S
C117 O124 1.226 . S
O118 Cd114 2.273 . S
O118 Cd116 2.411 . S
O118 C121 1.320 . S
O119 Cd116 2.333 . S
O119 C121 1.214 . S
O120 Cd116 2.352 . S
O120 C123 1.258 . S
C121 O118 1.320 . S
C121 O119 1.214 . S
O122 Cd114 2.277 . S
O122 C117 1.209 . S
C123 O120 1.258 . S
C123 O125 1.282 . S
O124 Cd116 2.277 . S
O124 C117 1.226 . S
O125 Cd116 2.356 . S
O125 C123 1.282 . S
C126 O127 1.306 . S
C126 O129 1.160 . S
O127 C126 1.306 . S
O127 Cd128 2.228 . S
Cd128 O127 2.228 . S
Cd128 O132 2.273 . S
Cd128 O136 2.277 . S
O129 C126 1.160 . S
O129 Cd130 2.203 . S
Cd130 O129 2.203 . S
Cd130 O132 2.411 . S
Cd130 O133 2.333 . S
Cd130 O134 2.352 . S
Cd130 O138 2.277 . S
Cd130 O139 2.356 . S
C131 O136 1.209 . S
C131 O138 1.226 . S
O132 Cd128 2.273 . S
O132 Cd130 2.411 . S
O132 C135 1.320 . S
O133 Cd130 2.333 . S
O133 C135 1.214 . S
O134 Cd130 2.352 . S
O134 C137 1.258 . S
C135 O132 1.320 . S
C135 O133 1.214 . S
O136 Cd128 2.277 . S
O136 C131 1.209 . S
C137 O134 1.258 . S
C137 O139 1.282 . S
O138 Cd130 2.277 . S
O138 C131 1.226 . S
O139 Cd130 2.356 . S
O139 C137 1.282 . S
C140 O141 1.306 . S
C140 O143 1.160 . S
O141 C140 1.306 . S
O141 Cd142 2.228 . S
Cd142 O141 2.228 . S
Cd142 O146 2.273 . S
Cd142 O150 2.277 . S
O143 C140 1.160 . S
O143 Cd144 2.203 . S
Cd144 O143 2.203 . S
Cd144 O146 2.411 . S
Cd144 O147 2.333 . S
Cd144 O148 2.352 . S
Cd144 O152 2.277 . S
Cd144 O153 2.356 . S
C145 O150 1.209 . S
C145 O152 1.226 . S
O146 Cd142 2.273 . S
O146 Cd144 2.411 . S
O146 C149 1.320 . S
O147 Cd144 2.333 . S
O147 C149 1.214 . S
O148 Cd144 2.352 . S
O148 C151 1.258 . S
C149 O146 1.320 . S
C149 O147 1.214 . S
O150 Cd142 2.277 . S
O150 C145 1.209 . S
C151 O148 1.258 . S
C151 O153 1.282 . S
O152 Cd144 2.277 . S
O152 C145 1.226 . S
O153 Cd144 2.356 . S
O153 C151 1.282 . S
C154 O155 1.306 . S
C154 O157 1.160 . S
O155 C154 1.306 . S
O155 Cd156 2.228 . S
Cd156 O155 2.228 . S
Cd156 O160 2.273 . S
Cd156 O164 2.277 . S
O157 C154 1.160 . S
O157 Cd158 2.203 . S
Cd158 O157 2.203 . S
Cd158 O160 2.411 . S
Cd158 O161 2.333 . S
Cd158 O162 2.352 . S
Cd158 O166 2.277 . S
Cd158 O167 2.356 . S
C159 O164 1.209 . S
C159 O166 1.226 . S
O160 Cd156 2.273 . S
O160 Cd158 2.411 . S
O160 C163 1.320 . S
O161 Cd158 2.333 . S
O161 C163 1.214 . S
O162 Cd158 2.352 . S
O162 C165 1.258 . S
C163 O160 1.320 . S
C163 O161 1.214 . S
O164 Cd156 2.277 . S
O164 C159 1.209 . S
C165 O162 1.258 . S
C165 O167 1.282 . S
O166 Cd158 2.277 . S
O166 C159 1.226 . S
O167 Cd158 2.356 . S
O167 C165 1.282 . S
C168 O169 1.306 . S
C168 O171 1.160 . S
O169 C168 1.306 . S
O169 Cd170 2.228 . S
Cd170 O169 2.228 . S
Cd170 O174 2.273 . S
Cd170 O178 2.277 . S
O171 C168 1.160 . S
O171 Cd172 2.203 . S
Cd172 O171 2.203 . S
Cd172 O174 2.411 . S
Cd172 O175 2.333 . S
Cd172 O176 2.352 . S
Cd172 O180 2.277 . S
Cd172 O181 2.356 . S
C173 O178 1.209 . S
C173 O180 1.226 . S
O174 Cd170 2.273 . S
O174 Cd172 2.411 . S
O174 C177 1.320 . S
O175 Cd172 2.333 . S
O175 C177 1.214 . S
O176 Cd172 2.352 . S
O176 C179 1.258 . S
C177 O174 1.320 . S
C177 O175 1.214 . S
O178 Cd170 2.277 . S
O178 C173 1.209 . S
C179 O176 1.258 . S
C179 O181 1.282 . S
O180 Cd172 2.277 . S
O180 C173 1.226 . S
O181 Cd172 2.356 . S
O181 C179 1.282 . S
C182 O183 1.306 . S
C182 O185 1.160 . S
O183 C182 1.306 . S
O183 Cd184 2.228 . S
Cd184 O183 2.228 . S
Cd184 O188 2.273 . S
Cd184 O192 2.277 . S
O185 C182 1.160 . S
O185 Cd186 2.203 . S
Cd186 O185 2.203 . S
Cd186 O188 2.411 . S
Cd186 O189 2.333 . S
Cd186 O190 2.352 . S
Cd186 O194 2.277 . S
Cd186 O195 2.356 . S
C187 O192 1.209 . S
C187 O194 1.226 . S
O188 Cd184 2.273 . S
O188 Cd186 2.411 . S
O188 C191 1.320 . S
O189 Cd186 2.333 . S
O189 C191 1.214 . S
O190 Cd186 2.352 . S
O190 C193 1.258 . S
C191 O188 1.320 . S
C191 O189 1.214 . S
O192 Cd184 2.277 . S
O192 C187 1.209 . S
C193 O190 1.258 . S
C193 O195 1.282 . S
O194 Cd186 2.277 . S
O194 C187 1.226 . S
O195 Cd186 2.356 . S
O195 C193 1.282 . S
C196 O197 1.306 . S
C196 O199 1.160 . S
O197 C196 1.306 . S
O197 Cd198 2.228 . S
Cd198 O197 2.228 . S
Cd198 O202 2.273 . S
Cd198 O206 2.277 . S
O199 C196 1.160 . S
O199 Cd200 2.203 . S
Cd200 O199 2.203 . S
Cd200 O202 2.411 . S
Cd200 O203 2.333 . S
Cd200 O204 2.352 . S
Cd200 O208 2.277 . S
Cd200 O209 2.356 . S
C201 O206 1.209 . S
C201 O208 1.226 . S
O202 Cd198 2.273 . S
O202 Cd200 2.411 . S
O202 C205 1.320 . S
O203 Cd200 2.333 . S
O203 C205 1.214 . S
O204 Cd200 2.352 . S
O204 C207 1.258 . S
C205 O202 1.320 . S
C205 O203 1.214 . S
O206 Cd198 2.277 . S
O206 C201 1.209 . S
C207 O204 1.258 . S
C207 O209 1.282 . S
O208 Cd200 2.277 . S
O208 C201 1.226 . S
O209 Cd200 2.356 . S
O209 C207 1.282 . S
C210 O211 1.306 . S
C210 O213 1.160 . S
O211 C210 1.306 . S
O211 Cd212 2.228 . S
Cd212 O211 2.228 . S
Cd212 O216 2.273 . S
Cd212 O220 2.277 . S
O213 C210 1.160 . S
O213 Cd214 2.203 . S
Cd214 O213 2.203 . S
Cd214 O216 2.411 . S
Cd214 O217 2.333 . S
Cd214 O218 2.352 . S
Cd214 O222 2.277 . S
Cd214 O223 2.356 . S
C215 O220 1.209 . S
C215 O222 1.226 . S
O216 Cd212 2.273 . S
O216 Cd214 2.411 . S
O216 C219 1.320 . S
O217 Cd214 2.333 . S
O217 C219 1.214 . S
O218 Cd214 2.352 . S
O218 C221 1.258 . S
C219 O216 1.320 . S
C219 O217 1.214 . S
O220 Cd212 2.277 . S
O220 C215 1.209 . S
C221 O218 1.258 . S
C221 O223 1.282 . S
O222 Cd214 2.277 . S
O222 C215 1.226 . S
O223 Cd214 2.356 . S
O223 C221 1.282 . S
C224 C225 1.387 1_565 S
C224 H228 0.950 . S
C224 C233 1.390 . S
C225 C224 1.387 1_545 S
C225 C227 1.387 . S
H226 C233 0.950 . S
C227 C225 1.387 . S
C227 C229 1.390 . S
C227 H231 0.950 . S
H228 C224 0.950 . S
C229 C227 1.390 . S
C229 C230 1.387 . S
C229 H232 0.950 . S
C230 C229 1.387 . S
C230 C233 1.387 1_545 S
H231 C227 0.950 . S
H232 C229 0.950 . S
C233 C224 1.390 . S
C233 H226 0.950 . S
C233 C230 1.387 1_565 S
C234 C235 1.387 . S
C234 H238 0.950 . S
C234 C243 1.390 . S
C235 C234 1.387 . S
C235 C237 1.387 1_565 S
H236 C243 0.950 . S
C237 C235 1.387 1_545 S
C237 C239 1.390 . S
C237 H241 0.950 . S
H238 C234 0.950 . S
C239 C237 1.390 . S
C239 C240 1.387 1_545 S
C239 H242 0.950 . S
C240 C239 1.387 1_565 S
C240 C243 1.387 . S
H241 C237 0.950 . S
H242 C239 0.950 . S
C243 C234 1.390 . S
C243 H236 0.950 . S
C243 C240 1.387 . S
C244 C245 1.387 . S
C244 H248 0.950 . S
C244 C253 1.390 1_554 S
C245 C244 1.387 . S
C245 C247 1.387 1_565 S
H246 C253 0.950 . S
C247 C245 1.387 1_545 S
C247 C249 1.390 1_554 S
C247 H251 0.950 . S
H248 C244 0.950 . S
C249 C247 1.390 1_556 S
C249 C250 1.387 1_545 S
C249 H252 0.950 . S
C250 C249 1.387 1_565 S
C250 C253 1.387 . S
H251 C247 0.950 . S
H252 C249 0.950 . S
C253 C244 1.390 1_556 S
C253 H246 0.950 . S
C253 C250 1.387 . S
C254 C255 1.387 1_565 S
C254 H258 0.950 . S
C254 C263 1.390 1_556 S
C255 C254 1.387 1_545 S
C255 C257 1.387 . S
H256 C263 0.950 . S
C257 C255 1.387 . S
C257 C259 1.390 1_556 S
C257 H261 0.950 . S
H258 C254 0.950 . S
C259 C257 1.390 1_554 S
C259 C260 1.387 . S
C259 H262 0.950 . S
C260 C259 1.387 . S
C260 C263 1.387 1_545 S
H261 C257 0.950 . S
H262 C259 0.950 . S
C263 C254 1.390 1_554 S
C263 H256 0.950 . S
C263 C260 1.387 1_565 S
C264 C265 1.387 . S
C264 H268 0.950 . S
C264 C273 1.390 . S
C265 C264 1.387 . S
C265 C267 1.387 . S
H266 C273 0.950 . S
C267 C265 1.387 . S
C267 C269 1.390 . S
C267 H271 0.950 . S
H268 C264 0.950 . S
C269 C267 1.390 . S
C269 C270 1.387 . S
C269 H272 0.950 . S
C270 C269 1.387 . S
C270 C273 1.387 . S
H271 C267 0.950 . S
H272 C269 0.950 . S
C273 C264 1.390 . S
C273 H266 0.950 . S
C273 C270 1.387 . S
C274 C275 1.387 . S
C274 H278 0.950 . S
C274 C283 1.390 . S
C275 C274 1.387 . S
C275 C277 1.387 . S
H276 C283 0.950 . S
C277 C275 1.387 . S
C277 C279 1.390 . S
C277 H281 0.950 . S
H278 C274 0.950 . S
C279 C277 1.390 . S
C279 C280 1.387 . S
C279 H282 0.950 . S
C280 C279 1.387 . S
C280 C283 1.387 . S
H281 C277 0.950 . S
H282 C279 0.950 . S
C283 C274 1.390 . S
C283 H276 0.950 . S
C283 C280 1.387 . S
C284 C285 1.387 . S
C284 H288 0.950 . S
C284 C293 1.390 1_556 S
C285 C284 1.387 . S
C285 C287 1.387 . S
H286 C293 0.950 . S
C287 C285 1.387 . S
C287 C289 1.390 1_556 S
C287 H291 0.950 . S
H288 C284 0.950 . S
C289 C287 1.390 1_554 S
C289 C290 1.387 . S
C289 H292 0.950 . S
C290 C289 1.387 . S
C290 C293 1.387 . S
H291 C287 0.950 . S
H292 C289 0.950 . S
C293 C284 1.390 1_554 S
C293 H286 0.950 . S
C293 C290 1.387 . S
C294 C295 1.387 . S
C294 H298 0.950 . S
C294 C303 1.390 1_554 S
C295 C294 1.387 . S
C295 C297 1.387 . S
H296 C303 0.950 . S
C297 C295 1.387 . S
C297 C299 1.390 1_554 S
C297 H301 0.950 . S
H298 C294 0.950 . S
C299 C297 1.390 1_556 S
C299 C300 1.387 . S
C299 H302 0.950 . S
C300 C299 1.387 . S
C300 C303 1.387 . S
H301 C297 0.950 . S
H302 C299 0.950 . S
C303 C294 1.390 1_556 S
C303 H296 0.950 . S
C303 C300 1.387 . S
C304 C305 1.387 . S
C304 H308 0.950 . S
C304 C313 1.390 1_565 S
C305 C304 1.387 . S
C305 C307 1.387 . S
H306 C313 0.950 . S
C307 C305 1.387 . S
C307 C309 1.390 1_565 S
C307 H311 0.950 . S
H308 C304 0.950 . S
C309 C307 1.390 1_545 S
C309 C310 1.387 . S
C309 H312 0.950 . S
C310 C309 1.387 . S
C310 C313 1.387 . S
H311 C307 0.950 . S
H312 C309 0.950 . S
C313 C304 1.390 1_545 S
C313 H306 0.950 . S
C313 C310 1.387 . S
C314 C315 1.387 . S
C314 H318 0.950 . S
C314 C323 1.390 1_565 S
C315 C314 1.387 . S
C315 C317 1.387 . S
H316 C323 0.950 . S
C317 C315 1.387 . S
C317 C319 1.390 1_565 S
C317 H321 0.950 . S
H318 C314 0.950 . S
C319 C317 1.390 1_545 S
C319 C320 1.387 . S
C319 H322 0.950 . S
C320 C319 1.387 . S
C320 C323 1.387 . S
H321 C317 0.950 . S
H322 C319 0.950 . S
C323 C314 1.390 1_545 S
C323 H316 0.950 . S
C323 C320 1.387 . S
C324 C325 1.387 . S
C324 H328 0.950 . S
C324 C333 1.390 1_565 S
C325 C324 1.387 . S
C325 C327 1.387 . S
H326 C333 0.950 . S
C327 C325 1.387 . S
C327 C329 1.390 1_565 S
C327 H331 0.950 . S
H328 C324 0.950 . S
C329 C327 1.390 1_545 S
C329 C330 1.387 . S
C329 H332 0.950 . S
C330 C329 1.387 . S
C330 C333 1.387 . S
H331 C327 0.950 . S
H332 C329 0.950 . S
C333 C324 1.390 1_545 S
C333 H326 0.950 . S
C333 C330 1.387 . S
C334 C335 1.387 . S
C334 H338 0.950 . S
C334 C343 1.390 1_545 S
C335 C334 1.387 . S
C335 C337 1.387 . S
H336 C343 0.950 . S
C337 C335 1.387 . S
C337 C339 1.390 1_545 S
C337 H341 0.950 . S
H338 C334 0.950 . S
C339 C337 1.390 1_565 S
C339 C340 1.387 . S
C339 H342 0.950 . S
C340 C339 1.387 . S
C340 C343 1.387 . S
H341 C337 0.950 . S
H342 C339 0.950 . S
C343 C334 1.390 1_565 S
C343 H336 0.950 . S
C343 C340 1.387 . S
C344 C345 1.387 . S
C344 H348 0.950 . S
C344 C353 1.390 1_655 S
C345 C344 1.387 . S
C345 C347 1.387 . S
H346 C353 0.950 . S
C347 C345 1.387 . S
C347 C349 1.390 1_655 S
C347 H351 0.950 . S
H348 C344 0.950 . S
C349 C347 1.390 1_455 S
C349 C350 1.387 . S
C349 H352 0.950 . S
C350 C349 1.387 . S
C350 C353 1.387 . S
H351 C347 0.950 . S
H352 C349 0.950 . S
C353 C344 1.390 1_455 S
C353 H346 0.950 . S
C353 C350 1.387 . S
C354 C355 1.387 . S
C354 H358 0.950 . S
C354 C363 1.390 1_455 S
C355 C354 1.387 . S
C355 C357 1.387 . S
H356 C363 0.950 . S
C357 C355 1.387 . S
C357 C359 1.390 1_455 S
C357 H361 0.950 . S
H358 C354 0.950 . S
C359 C357 1.390 1_655 S
C359 C360 1.387 . S
C359 H362 0.950 . S
C360 C359 1.387 . S
C360 C363 1.387 . S
H361 C357 0.950 . S
H362 C359 0.950 . S
C363 C354 1.390 1_655 S
C363 H356 0.950 . S
C363 C360 1.387 . S
C364 C365 1.387 . S
C364 H368 0.950 . S
C364 C373 1.390 1_655 S
C365 C364 1.387 . S
C365 C367 1.387 . S
H366 C373 0.950 . S
C367 C365 1.387 . S
C367 C369 1.390 1_655 S
C367 H371 0.950 . S
H368 C364 0.950 . S
C369 C367 1.390 1_455 S
C369 C370 1.387 . S
C369 H372 0.950 . S
C370 C369 1.387 . S
C370 C373 1.387 . S
H371 C367 0.950 . S
H372 C369 0.950 . S
C373 C364 1.390 1_455 S
C373 H366 0.950 . S
C373 C370 1.387 . S
C374 C375 1.387 . S
C374 H378 0.950 . S
C374 C383 1.390 1_455 S
C375 C374 1.387 . S
C375 C377 1.387 . S
H376 C383 0.950 . S
C377 C375 1.387 . S
C377 C379 1.390 1_455 S
C377 H381 0.950 . S
H378 C374 0.950 . S
C379 C377 1.390 1_655 S
C379 C380 1.387 . S
C379 H382 0.950 . S
C380 C379 1.387 . S
C380 C383 1.387 . S
H381 C377 0.950 . S
H382 C379 0.950 . S
C383 C374 1.390 1_655 S
C383 H376 0.950 . S
C383 C380 1.387 . S
C384 C385 1.387 . S
C384 H388 0.950 . S
C384 C393 1.390 . S
C385 C384 1.387 . S
C385 C387 1.387 . S
H386 C393 0.950 . S
C387 C385 1.387 . S
C387 C389 1.390 . S
C387 H391 0.950 . S
H388 C384 0.950 . S
C389 C387 1.390 . S
C389 C390 1.387 . S
C389 H392 0.950 . S
C390 C389 1.387 . S
C390 C393 1.387 . S
H391 C387 0.950 . S
H392 C389 0.950 . S
C393 C384 1.390 . S
C393 H386 0.950 . S
C393 C390 1.387 . S
C394 C395 1.387 . S
C394 H398 0.950 . S
C394 C403 1.390 . S
C395 C394 1.387 . S
C395 C397 1.387 . S
H396 C403 0.950 . S
C397 C395 1.387 . S
C397 C399 1.390 . S
C397 H401 0.950 . S
H398 C394 0.950 . S
C399 C397 1.390 . S
C399 C400 1.387 . S
C399 H402 0.950 . S
C400 C399 1.387 . S
C400 C403 1.387 . S
H401 C397 0.950 . S
H402 C399 0.950 . S
C403 C394 1.390 . S
C403 H396 0.950 . S
C403 C400 1.387 . S
C404 C405 1.387 . S
C404 H408 0.950 . S
C404 C413 1.390 . S
C405 C404 1.387 . S
C405 C407 1.387 . S
H406 C413 0.950 . S
C407 C405 1.387 . S
C407 C409 1.390 . S
C407 H411 0.950 . S
H408 C404 0.950 . S
C409 C407 1.390 . S
C409 C410 1.387 . S
C409 H412 0.950 . S
C410 C409 1.387 . S
C410 C413 1.387 . S
H411 C407 0.950 . S
H412 C409 0.950 . S
C413 C404 1.390 . S
C413 H406 0.950 . S
C413 C410 1.387 . S
C414 C415 1.387 . S
C414 H418 0.950 . S
C414 C423 1.390 . S
C415 C414 1.387 . S
C415 C417 1.387 . S
H416 C423 0.950 . S
C417 C415 1.387 . S
C417 C419 1.390 . S
C417 H421 0.950 . S
H418 C414 0.950 . S
C419 C417 1.390 . S
C419 C420 1.387 . S
C419 H422 0.950 . S
C420 C419 1.387 . S
C420 C423 1.387 . S
H421 C417 0.950 . S
H422 C419 0.950 . S
C423 C414 1.390 . S
C423 H416 0.950 . S
C423 C420 1.387 . S
C424 C425 1.387 . S
C424 H428 0.950 . S
C424 C433 1.390 . S
C425 C424 1.387 . S
C425 C427 1.387 . S
H426 C433 0.950 . S
C427 C425 1.387 . S
C427 C429 1.390 . S
C427 H431 0.950 . S
H428 C424 0.950 . S
C429 C427 1.390 . S
C429 C430 1.387 . S
C429 H432 0.950 . S
C430 C429 1.387 . S
C430 C433 1.387 . S
H431 C427 0.950 . S
H432 C429 0.950 . S
C433 C424 1.390 . S
C433 H426 0.950 . S
C433 C430 1.387 . S
C434 C435 1.387 . S
C434 H438 0.950 . S
C434 C443 1.390 . S
C435 C434 1.387 . S
C435 C437 1.387 . S
H436 C443 0.950 . S
C437 C435 1.387 . S
C437 C439 1.390 . S
C437 H441 0.950 . S
H438 C434 0.950 . S
C439 C437 1.390 . S
C439 C440 1.387 . S
C439 H442 0.950 . S
C440 C439 1.387 . S
C440 C443 1.387 . S
H441 C437 0.950 . S
H442 C439 0.950 . S
C443 C434 1.390 . S
C443 H436 0.950 . S
C443 C440 1.387 . S
C444 C445 1.387 . S
C444 H448 0.950 . S
C444 C453 1.390 . S
C445 C444 1.387 . S
C445 C447 1.387 . S
H446 C453 0.950 . S
C447 C445 1.387 . S
C447 C449 1.390 . S
C447 H451 0.950 . S
H448 C444 0.950 . S
C449 C447 1.390 . S
C449 C450 1.387 . S
C449 H452 0.950 . S
C450 C449 1.387 . S
C450 C453 1.387 . S
H451 C447 0.950 . S
H452 C449 0.950 . S
C453 C444 1.390 . S
C453 H446 0.950 . S
C453 C450 1.387 . S
C454 C455 1.387 . S
C454 H458 0.950 . S
C454 C463 1.390 . S
C455 C454 1.387 . S
C455 C457 1.387 . S
H456 C463 0.950 . S
C457 C455 1.387 . S
C457 C459 1.390 . S
C457 H461 0.950 . S
H458 C454 0.950 . S
C459 C457 1.390 . S
C459 C460 1.387 . S
C459 H462 0.950 . S
C460 C459 1.387 . S
C460 C463 1.387 . S
H461 C457 0.950 . S
H462 C459 0.950 . S
C463 C454 1.390 . S
C463 H456 0.950 . S
C463 C460 1.387 . S
C464 C465 1.387 . S
C464 H468 0.950 . S
C464 C473 1.390 1_565 S
C465 C464 1.387 . S
C465 C467 1.387 . S
H466 C473 0.950 . S
C467 C465 1.387 . S
C467 C469 1.390 1_565 S
C467 H471 0.950 . S
H468 C464 0.950 . S
C469 C467 1.390 1_545 S
C469 C470 1.387 . S
C469 H472 0.950 . S
C470 C469 1.387 . S
C470 C473 1.387 . S
H471 C467 0.950 . S
H472 C469 0.950 . S
C473 C464 1.390 1_545 S
C473 H466 0.950 . S
C473 C470 1.387 . S
C474 C475 1.387 . S
C474 H478 0.950 . S
C474 C483 1.390 1_565 S
C475 C474 1.387 . S
C475 C477 1.387 . S
H476 C483 0.950 . S
C477 C475 1.387 . S
C477 C479 1.390 1_565 S
C477 H481 0.950 . S
H478 C474 0.950 . S
C479 C477 1.390 1_545 S
C479 C480 1.387 . S
C479 H482 0.950 . S
C480 C479 1.387 . S
C480 C483 1.387 . S
H481 C477 0.950 . S
H482 C479 0.950 . S
C483 C474 1.390 1_545 S
C483 H476 0.950 . S
C483 C480 1.387 . S
C484 C485 1.387 . S
C484 H488 0.950 . S
C484 C493 1.390 1_565 S
C485 C484 1.387 . S
C485 C487 1.387 . S
H486 C493 0.950 . S
C487 C485 1.387 . S
C487 C489 1.390 1_565 S
C487 H491 0.950 . S
H488 C484 0.950 . S
C489 C487 1.390 1_545 S
C489 C490 1.387 . S
C489 H492 0.950 . S
C490 C489 1.387 . S
C490 C493 1.387 . S
H491 C487 0.950 . S
H492 C489 0.950 . S
C493 C484 1.390 1_545 S
C493 H486 0.950 . S
C493 C490 1.387 . S
C494 C495 1.387 . S
C494 H498 0.950 . S
C494 C503 1.390 1_545 S
C495 C494 1.387 . S
C495 C497 1.387 . S
H496 C503 0.950 . S
C497 C495 1.387 . S
C497 C499 1.390 1_545 S
C497 H501 0.950 . S
H498 C494 0.950 . S
C499 C497 1.390 1_565 S
C499 C500 1.387 . S
C499 H502 0.950 . S
C500 C499 1.387 . S
C500 C503 1.387 . S
H501 C497 0.950 . S
H502 C499 0.950 . S
C503 C494 1.390 1_565 S
C503 H496 0.950 . S
C503 C500 1.387 . S
C504 C505 1.387 . S
C504 H508 0.950 . S
C504 C513 1.390 . S
C505 C504 1.387 . S
C505 C507 1.387 . S
H506 C513 0.950 . S
C507 C505 1.387 . S
C507 C509 1.390 . S
C507 H511 0.950 . S
H508 C504 0.950 . S
C509 C507 1.390 . S
C509 C510 1.387 . S
C509 H512 0.950 . S
C510 C509 1.387 . S
C510 C513 1.387 . S
H511 C507 0.950 . S
H512 C509 0.950 . S
C513 C504 1.390 . S
C513 H506 0.950 . S
C513 C510 1.387 . S
C514 C515 1.387 . S
C514 H518 0.950 . S
C514 C523 1.390 . S
C515 C514 1.387 . S
C515 C517 1.387 . S
H516 C523 0.950 . S
C517 C515 1.387 . S
C517 C519 1.390 . S
C517 H521 0.950 . S
H518 C514 0.950 . S
C519 C517 1.390 . S
C519 C520 1.387 . S
C519 H522 0.950 . S
C520 C519 1.387 . S
C520 C523 1.387 . S
H521 C517 0.950 . S
H522 C519 0.950 . S
C523 C514 1.390 . S
C523 H516 0.950 . S
C523 C520 1.387 . S
C524 C525 1.387 . S
C524 H528 0.950 . S
C524 C533 1.390 . S
C525 C524 1.387 . S
C525 C527 1.387 . S
H526 C533 0.950 . S
C527 C525 1.387 . S
C527 C529 1.390 . S
C527 H531 0.950 . S
H528 C524 0.950 . S
C529 C527 1.390 . S
C529 C530 1.387 . S
C529 H532 0.950 . S
C530 C529 1.387 . S
C530 C533 1.387 . S
H531 C527 0.950 . S
H532 C529 0.950 . S
C533 C524 1.390 . S
C533 H526 0.950 . S
C533 C530 1.387 . S
C534 C535 1.387 . S
C534 H538 0.950 . S
C534 C543 1.390 . S
C535 C534 1.387 . S
C535 C537 1.387 . S
H536 C543 0.950 . S
C537 C535 1.387 . S
C537 C539 1.390 . S
C537 H541 0.950 . S
H538 C534 0.950 . S
C539 C537 1.390 . S
C539 C540 1.387 . S
C539 H542 0.950 . S
C540 C539 1.387 . S
C540 C543 1.387 . S
H541 C537 0.950 . S
H542 C539 0.950 . S
C543 C534 1.390 . S
C543 H536 0.950 . S
C543 C540 1.387 . S
C225 C9 1.343 . S
C230 C79 1.342 . S
C235 C65 1.344 . S
C240 C23 1.341 . S
C245 C37 1.342 . S
C250 C107 1.343 . S
C255 C93 1.341 . S
C260 C51 1.344 . S
C265 C191 1.342 . S
C270 C121 1.343 . S
C275 C177 1.343 . S
C280 C135 1.342 . S
C285 C219 1.341 . S
C290 C149 1.343 . S
C295 C163 1.344 . S
C300 C205 1.341 . S
C305 C19 1.503 . S
C310 C5 1.503 . S
C315 C33 1.503 . S
C320 C47 1.503 . S
C325 C61 1.503 . S
C330 C75 1.503 . S
C335 C89 1.503 . S
C340 C103 1.503 . S
C345 C117 1.503 . S
C350 C131 1.503 . S
C355 C159 1.503 . S
C360 C145 1.503 . S
C365 C187 1.503 . S
C370 C173 1.503 . S
C375 C201 1.503 . S
C380 C215 1.503 . S
C385 C137 1.512 . S
C390 C11 1.512 . S
C395 C25 1.513 . S
C400 C123 1.513 . S
C405 C165 1.513 . S
C410 C39 1.513 . S
C415 C53 1.512 . S
C420 C151 1.512 . S
C425 C67 1.512 . S
C430 C193 1.512 . S
C435 C179 1.513 . S
C440 C81 1.513 . S
C445 C95 1.513 . S
C450 C221 1.513 . S
C455 C207 1.513 . S
C460 C109 1.513 . S
C465 C0 1.457 . S
C470 C28 1.457 . S
C475 C42 1.457 . S
C480 C14 1.457 . S
C485 C84 1.457 . S
C490 C56 1.457 . S
C495 C98 1.459 . S
C500 C70 1.459 . S
C505 C140 1.457 . S
C510 C112 1.457 . S
C515 C126 1.457 . S
C520 C154 1.457 . S
C525 C196 1.459 . S
C530 C168 1.459 . S
C535 C182 1.459 . S
C540 C210 1.459 . S
