# Generated by pormake.
# Topology wli, (5)-cn, num edge types: 1
# Building blocks:
#     Node 0, Type 0, BuildingBlock: BEQFEK_clean_sbu_0, # of connection points: 5
#     Node 1, Type 0, BuildingBlock: BEQFEK_clean_sbu_0, # of connection points: 5
#     Node 2, Type 0, BuildingBlock: BEQFEK_clean_sbu_0, # of connection points: 5
#     Node 3, Type 0, BuildingBlock: BEQFEK_clean_sbu_0, # of connection points: 5
#     Node 4, Type 0, BuildingBlock: BEQFEK_clean_sbu_0, # of connection points: 5
#     Node 5, Type 0, BuildingBlock: BEQFEK_clean_sbu_0, # of connection points: 5
#     Edge 6, Type (0, 0), BuildingBlock: CIFDUS_clean_linker_0, # of connection points: 2
#     Edge 7, Type (0, 0), BuildingBlock: CIFDUS_clean_linker_0, # of connection points: 2
#     Edge 8, Type (0, 0), BuildingBlock: CIFDUS_clean_linker_0, # of connection points: 2
#     Edge 9, Type (0, 0), BuildingBlock: CIFDUS_clean_linker_0, # of connection points: 2
#     Edge 10, Type (0, 0), BuildingBlock: CIFDUS_clean_linker_0, # of connection points: 2
#     Edge 11, Type (0, 0), BuildingBlock: CIFDUS_clean_linker_0, # of connection points: 2
#     Edge 12, Type (0, 0), BuildingBlock: CIFDUS_clean_linker_0, # of connection points: 2
#     Edge 13, Type (0, 0), BuildingBlock: CIFDUS_clean_linker_0, # of connection points: 2
#     Edge 14, Type (0, 0), BuildingBlock: CIFDUS_clean_linker_0, # of connection points: 2
#     Edge 15, Type (0, 0), BuildingBlock: CIFDUS_clean_linker_0, # of connection points: 2
#     Edge 16, Type (0, 0), BuildingBlock: CIFDUS_clean_linker_0, # of connection points: 2
#     Edge 17, Type (0, 0), BuildingBlock: CIFDUS_clean_linker_0, # of connection points: 2
#     Edge 18, Type (0, 0), BuildingBlock: CIFDUS_clean_linker_0, # of connection points: 2
#     Edge 19, Type (0, 0), BuildingBlock: CIFDUS_clean_linker_0, # of connection points: 2
#     Edge 20, Type (0, 0), BuildingBlock: CIFDUS_clean_linker_0, # of connection points: 2
# Relax obj value: 0.170
# Max RMSD: 0.117
# Mean RMSD: 0.117
data_MOF--net-wli--node1-BEQFEK_clean_sbu_0--edge1-CIFDUS_clean_linker_0
_symmetry_space_group_name_H-M    P1
_symmetry_Int_Tables_number       1
_symmetry_cell_setting            triclinic
loop_
_symmetry_equiv_pos_as_xyz
'x, y, z'
_cell_length_a     32.68163
_cell_length_b     32.586805
_cell_length_c     25.341226
_cell_angle_alpha  89.831802
_cell_angle_beta   90.115929
_cell_angle_gamma 120.16992
loop_
_atom_site_label
_atom_site_type_symbol
_atom_site_fract_x
_atom_site_fract_y
_atom_site_fract_z
_atom_type_partial_charge
Co0 Co 0.21318 0.44191 0.98786 0.0
Co1 Co 0.13043 0.36697 0.05944 0.0
C2 C 0.21219 0.35471 0.02453 0.0
O3 O 0.23218 0.39429 1.00027 0.0
O4 O 0.17321 0.34016 0.04902 0.0
C5 C 0.29263 0.49205 0.91871 0.0
O6 O 0.28672 0.44951 0.91141 0.0
C7 C 0.09247 0.32124 0.16184 0.0
C8 C 0.0154 0.28784 0.14937 0.0
C9 C 0.04904 0.29532 0.18748 0.0
N10 N 0.08451 0.32884 0.11161 0.0
N11 N 0.03834 0.3082 0.10421 0.0
C12 C 0.14105 0.34221 0.18502 0.0
H13 H 0.16756 0.3704 0.1589 0.0
H14 H 0.14222 0.35704 0.22473 0.0
H15 H 0.15048 0.31404 0.18894 0.0
C16 C 0.22074 0.50533 0.07538 0.0
N17 N 0.20056 0.46221 0.0526 0.0
N18 N 0.16386 0.432 0.08074 0.0
C19 C 0.15791 0.45566 0.12086 0.0
C20 C 0.19425 0.50287 0.11947 0.0
C21 C 0.26574 0.54718 0.05625 0.0
H22 H 0.28995 0.53531 0.04125 0.0
H23 H 0.28387 0.5734 0.08822 0.0
H24 H 0.25761 0.56447 0.02332 0.0
O25 O 0.15634 0.41319 0.94117 0.0
O26 O 0.09756 0.36115 0.99198 0.0
H27 H 0.1069 0.46289 0.16795 0.0
H28 H 0.12146 0.41967 0.19138 0.0
C29 C 0.11498 0.4351 0.1555 0.0
H30 H 0.08389 0.40693 0.1343 0.0
H31 H 0.02255 0.30929 0.06881 0.0
O32 O 0.26484 0.49698 0.94967 0.0
C33 C 0.11296 0.38169 0.94763 0.0
Co34 Co 0.58686 0.78548 0.64554 0.0
Co35 Co 0.65859 0.77525 0.72039 0.0
C36 C 0.6723 0.87061 0.68949 0.0
O37 O 0.63394 0.85132 0.66325 0.0
O38 O 0.68634 0.84564 0.71389 0.0
C39 C 0.51443 0.80807 0.61643 0.0
O40 O 0.52059 0.82601 0.66409 0.0
C41 C 0.70468 0.77723 0.82227 0.0
C42 C 0.73127 0.72828 0.80551 0.0
C43 C 0.72792 0.75566 0.84509 0.0
N44 N 0.69401 0.76241 0.77192 0.0
N45 N 0.71055 0.7336 0.76211 0.0
C46 C 0.69432 0.81267 0.84711 0.0
H47 H 0.69153 0.83551 0.8165 0.0
H48 H 0.6601 0.79397 0.86838 0.0
H49 H 0.72236 0.83487 0.87599 0.0
C50 C 0.51793 0.71599 0.72198 0.0
N51 N 0.56264 0.74675 0.70661 0.0
N52 N 0.59243 0.74193 0.7376 0.0
C53 C 0.56733 0.70731 0.77316 0.0
C54 C 0.51945 0.69019 0.76477 0.0
C55 C 0.47469 0.70692 0.69195 0.0
H56 H 0.48119 0.70746 0.64897 0.0
H57 H 0.46664 0.73539 0.70097 0.0
H58 H 0.44353 0.67227 0.70283 0.0
O59 O 0.61721 0.75996 0.59917 0.0
O60 O 0.66703 0.75141 0.65162 0.0
H61 H 0.61245 0.67891 0.79053 0.0
H62 H 0.56118 0.65655 0.83299 0.0
C63 C 0.58851 0.68819 0.8116 0.0
H64 H 0.60945 0.71574 0.84119 0.0
H65 H 0.70685 0.71675 0.72601 0.0
O66 O 0.53753 0.78818 0.60218 0.0
C67 C 0.64827 0.74785 0.60648 0.0
Co68 Co 0.25053 0.82227 0.31084 0.0
Co69 Co 0.24238 0.89226 0.38959 0.0
C70 C 0.15646 0.80862 0.3443 0.0
O71 O 0.18209 0.79646 0.31883 0.0
O72 O 0.17449 0.84522 0.37374 0.0
C73 C 0.22929 0.73056 0.2763 0.0
O74 O 0.19928 0.71713 0.31582 0.0
C75 C 0.2298 0.92893 0.49157 0.0
C76 C 0.26775 0.00592 0.47478 0.0
C77 C 0.24467 0.97306 0.51467 0.0
N78 N 0.24452 0.936 0.44107 0.0
N79 N 0.26628 0.98201 0.43111 0.0
C80 C 0.20512 0.88104 0.51719 0.0
H81 H 0.20764 0.85452 0.49211 0.0
H82 H 0.22043 0.88241 0.55671 0.0
H83 H 0.16715 0.86961 0.52228 0.0
C84 C 0.30594 0.81522 0.40063 0.0
N85 N 0.27948 0.83187 0.37867 0.0
N86 N 0.27824 0.863 0.41077 0.0
C87 C 0.30597 0.86883 0.45296 0.0
C88 C 0.32367 0.8381 0.44859 0.0
C89 C 0.31215 0.77674 0.3767 0.0
H90 H 0.27691 0.745 0.37049 0.0
H91 H 0.33274 0.76604 0.40221 0.0
H92 H 0.32961 0.7886 0.33768 0.0
O93 O 0.27962 0.88332 0.27006 0.0
O94 O 0.27279 0.93105 0.32715 0.0
H95 H 0.35758 0.91943 0.50711 0.0
H96 H 0.29713 0.89479 0.52699 0.0
C97 C 0.3213 0.90785 0.49263 0.0
H98 H 0.32102 0.93882 0.47501 0.0
H99 H 0.28169 0.99732 0.39498 0.0
O100 O 0.25676 0.77463 0.26775 0.0
C101 C 0.28614 0.92403 0.28277 0.0
Co102 Co 0.44387 0.21855 0.02451 0.0
Co103 Co 0.3729 0.14649 0.94127 0.0
C104 C 0.36267 0.22675 0.98138 0.0
O105 O 0.39899 0.24048 0.01018 0.0
O106 O 0.34743 0.19034 0.95203 0.0
C107 C 0.51005 0.31258 0.04829 0.0
O108 O 0.49294 0.31788 0.00345 0.0
C109 C 0.33115 0.11269 0.83631 0.0
C110 C 0.29882 0.03504 0.84546 0.0
C111 C 0.30713 0.07008 0.8089 0.0
N112 N 0.33755 0.10314 0.88628 0.0
N113 N 0.31751 0.05662 0.89168 0.0
C114 C 0.34637 0.16162 0.81637 0.0
H115 H 0.34525 0.18387 0.84868 0.0
H116 H 0.38337 0.17865 0.80206 0.0
H117 H 0.32334 0.1603 0.78339 0.0
C118 C 0.51353 0.22496 0.94527 0.0
N119 N 0.46861 0.20958 0.96052 0.0
N120 N 0.43926 0.17865 0.92587 0.0
C121 C 0.46484 0.1724 0.88819 0.0
C122 C 0.51267 0.20192 0.89893 0.0
C123 C 0.5563 0.26098 0.97489 0.0
H124 H 0.55809 0.29576 0.97241 0.0
H125 H 0.58979 0.26588 0.95842 0.0
H126 H 0.55332 0.25054 0.01702 0.0
O127 O 0.41241 0.15766 0.06551 0.0
O128 O 0.36274 0.1082 0.00506 0.0
H129 H 0.47135 0.12492 0.83367 0.0
H130 H 0.43168 0.14506 0.81353 0.0
C131 C 0.44449 0.1336 0.84786 0.0
H132 H 0.41449 0.1011 0.86495 0.0
H133 H 0.31777 0.03966 0.92654 0.0
O134 O 0.49464 0.27091 0.06651 0.0
C135 C 0.38051 0.11613 0.05119 0.0
Co136 Co 0.80801 0.23987 0.69148 0.0
Co137 Co 0.88764 0.24171 0.62022 0.0
C138 C 0.79925 0.15079 0.64913 0.0
O139 O 0.78243 0.17314 0.67307 0.0
O140 O 0.84002 0.17234 0.6278 0.0
C141 C 0.7156 0.22444 0.70635 0.0
O142 O 0.71077 0.20926 0.6575 0.0
C143 C 0.92198 0.23282 0.51678 0.0
C144 C 0.99946 0.27788 0.52474 0.0
C145 C 0.96399 0.25215 0.48827 0.0
N146 N 0.93212 0.24785 0.56702 0.0
N147 N 0.97861 0.27384 0.57183 0.0
C148 C 0.87269 0.20094 0.49693 0.0
H149 H 0.85222 0.17284 0.52645 0.0
H150 H 0.85447 0.2216 0.49147 0.0
H151 H 0.87288 0.18414 0.45897 0.0
C152 C 0.81794 0.31312 0.61485 0.0
N153 N 0.82723 0.27913 0.63085 0.0
N154 N 0.86076 0.28033 0.60091 0.0
C155 C 0.87426 0.31586 0.56533 0.0
C156 C 0.84712 0.33718 0.57266 0.0
C157 C 0.78685 0.32695 0.64389 0.0
H158 H 0.79013 0.32366 0.68702 0.0
H159 H 0.74953 0.30299 0.63211 0.0
H160 H 0.79617 0.36395 0.63455 0.0
O161 O 0.86292 0.26101 0.73979 0.0
O162 O 0.92064 0.26549 0.68891 0.0
H163 H 0.9462 0.33553 0.54908 0.0
H164 H 0.92433 0.36594 0.50845 0.0
C165 C 0.91486 0.33179 0.52781 0.0
H166 H 0.90502 0.30506 0.49632 0.0
H167 H 0.99596 0.29086 0.60657 0.0
O168 O 0.75552 0.24102 0.72912 0.0
C169 C 0.90557 0.27056 0.73348 0.0
Co170 Co 0.79452 0.58914 0.35022 0.0
Co171 Co 0.77923 0.65912 0.27796 0.0
C172 C 0.87667 0.67556 0.30549 0.0
O173 O 0.85946 0.63722 0.33198 0.0
O174 O 0.85005 0.68833 0.28243 0.0
C175 C 0.82899 0.5399 0.41556 0.0
O176 O 0.86816 0.58125 0.41846 0.0
C177 C 0.77142 0.69887 0.17536 0.0
C178 C 0.73135 0.73381 0.19894 0.0
C179 C 0.75018 0.72363 0.15524 0.0
N180 N 0.76466 0.69438 0.22799 0.0
N181 N 0.74131 0.71599 0.24179 0.0
C182 C 0.79463 0.67656 0.14542 0.0
H183 H 0.79771 0.6502 0.17039 0.0
H184 H 0.7743 0.65922 0.10909 0.0
H185 H 0.83079 0.7045 0.13381 0.0
C186 C 0.73065 0.52017 0.27227 0.0
N187 N 0.7568 0.56519 0.28917 0.0
N188 N 0.74706 0.593 0.26061 0.0
C189 C 0.71224 0.56578 0.22621 0.0
C190 C 0.701 0.51874 0.23216 0.0
C191 C 0.7347 0.47959 0.29403 0.0
H192 H 0.77239 0.49122 0.30179 0.0
H193 H 0.72018 0.44924 0.26623 0.0
H194 H 0.7151 0.46783 0.33189 0.0
O195 O 0.76795 0.61748 0.39872 0.0
O196 O 0.75634 0.66619 0.34753 0.0
H197 H 0.64788 0.55444 0.18908 0.0
H198 H 0.70145 0.59376 0.15449 0.0
C199 C 0.68525 0.58298 0.19417 0.0
H200 H 0.6859 0.61373 0.21353 0.0
H201 H 0.7308 0.71728 0.28032 0.0
O202 O 0.79432 0.53619 0.38896 0.0
C203 C 0.75424 0.6475 0.39239 0.0
H204 H 0.20696 0.64091 0.30159 0.0
H205 H 0.25125 0.73978 0.17164 0.0
H206 H 0.24411 0.678 0.11125 0.0
H207 H 0.2209 0.59464 0.09488 0.0
H208 H 0.18469 0.49825 0.2265 0.0
H209 H 0.19187 0.5599 0.28662 0.0
C210 C 0.2153 0.64892 0.26008 0.0
C211 C 0.22922 0.6946 0.24093 0.0
C212 C 0.21195 0.61353 0.22586 0.0
C213 C 0.24057 0.70483 0.18726 0.0
C214 C 0.23626 0.66949 0.15271 0.0
C215 C 0.21561 0.58738 0.13684 0.0
C216 C 0.20176 0.54166 0.15602 0.0
C217 C 0.22149 0.62356 0.17149 0.0
C218 C 0.19421 0.53274 0.21046 0.0
C219 C 0.19872 0.56812 0.24497 0.0
H220 H 0.44797 0.68801 0.82064 0.0
H221 H 0.50081 0.5992 0.76307 0.0
H222 H 0.43474 0.52967 0.80494 0.0
H223 H 0.3628 0.49461 0.85892 0.0
H224 H 0.31038 0.58356 0.91842 0.0
H225 H 0.37528 0.65254 0.87489 0.0
C226 C 0.44474 0.65331 0.81743 0.0
C227 C 0.47911 0.64843 0.78957 0.0
C228 C 0.40686 0.61368 0.84191 0.0
C229 C 0.47485 0.60355 0.78507 0.0
C230 C 0.43712 0.56392 0.80884 0.0
C231 C 0.36544 0.52903 0.8623 0.0
C232 C 0.33169 0.53382 0.89186 0.0
C233 C 0.40305 0.56861 0.83758 0.0
C234 C 0.33585 0.57881 0.89595 0.0
C235 C 0.37297 0.61832 0.87105 0.0
H236 H 0.40351 0.83438 0.42752 0.0
H237 H 0.31445 0.82977 0.55534 0.0
H238 H 0.36643 0.82197 0.61905 0.0
H239 H 0.4368 0.81519 0.6383 0.0
H240 H 0.52098 0.81163 0.50943 0.0
H241 H 0.47057 0.82231 0.44616 0.0
C242 C 0.39491 0.83061 0.46921 0.0
C243 C 0.35499 0.83226 0.48665 0.0
C244 C 0.424 0.82443 0.50541 0.0
C245 C 0.34522 0.82896 0.54097 0.0
C246 C 0.37475 0.8242 0.57739 0.0
C247 C 0.444 0.81673 0.59635 0.0
C248 C 0.48261 0.81284 0.57855 0.0
C249 C 0.41422 0.82181 0.56006 0.0
C250 C 0.49131 0.81435 0.52408 0.0
C251 C 0.46263 0.82064 0.48788 0.0
H252 H 0.53048 0.21524 0.79413 0.0
H253 H 0.58428 0.19166 0.93951 0.0
H254 H 0.65336 0.1994 0.8932 0.0
H255 H 0.69845 0.21287 0.81126 0.0
H256 H 0.64127 0.22897 0.66426 0.0
H257 H 0.57332 0.22382 0.71098 0.0
C258 C 0.55736 0.21168 0.81544 0.0
C259 C 0.55325 0.20439 0.87027 0.0
C260 C 0.59624 0.2148 0.78825 0.0
C261 C 0.5877 0.19899 0.89753 0.0
C262 C 0.62695 0.20302 0.87103 0.0
C263 C 0.67119 0.2155 0.78958 0.0
C264 C 0.67493 0.22174 0.7346 0.0
C265 C 0.63176 0.21126 0.81647 0.0
C266 C 0.63904 0.2242 0.7067 0.0
C267 C 0.60026 0.22128 0.73335 0.0
H268 H 0.89679 0.53417 0.47241 0.0
H269 H 0.75193 0.45064 0.41964 0.0
H270 H 0.74485 0.38084 0.4639 0.0
H271 H 0.77982 0.34307 0.51746 0.0
H272 H 0.92422 0.42604 0.57021 0.0
H273 H 0.93162 0.49653 0.52617 0.0
C274 C 0.86366 0.50073 0.4706 0.0
C275 C 0.825 0.49775 0.44272 0.0
C276 C 0.85981 0.46057 0.49602 0.0
C277 C 0.78232 0.45403 0.44077 0.0
C278 C 0.77817 0.41402 0.46609 0.0
C279 C 0.81283 0.37669 0.51904 0.0
C280 C 0.85168 0.37958 0.54601 0.0
C281 C 0.81667 0.41685 0.49375 0.0
C282 C 0.89423 0.42312 0.54861 0.0
C283 C 0.89834 0.46332 0.52371 0.0
H284 H 0.53315 0.32207 0.1524 0.0
H285 H 0.5725 0.39729 0.00396 0.0
H286 H 0.63549 0.46752 0.04749 0.0
H287 H 0.67965 0.50762 0.12783 0.0
H288 H 0.63624 0.43473 0.2773 0.0
H289 H 0.57511 0.36348 0.23342 0.0
C290 C 0.5557 0.35381 0.12965 0.0
C291 C 0.54836 0.35449 0.07511 0.0
C292 C 0.59123 0.39444 0.15511 0.0
C293 C 0.57738 0.39598 0.0461 0.0
C294 C 0.61345 0.43613 0.07091 0.0
C295 C 0.65649 0.47625 0.15075 0.0
C296 C 0.66292 0.47615 0.20553 0.0
C297 C 0.6206 0.43583 0.12542 0.0
C298 C 0.63281 0.43525 0.23484 0.0
C299 C 0.59759 0.39461 0.20984 0.0
H300 H 0.00166 0.32345 0.73139 0.0
H301 H 0.88266 0.25823 0.83791 0.0
H302 H 0.93622 0.28751 0.91348 0.0
H303 H 0.01677 0.33072 0.94938 0.0
H304 H 0.13577 0.3988 0.84305 0.0
H305 H 0.08223 0.36969 0.76745 0.0
C306 C 0.98749 0.31552 0.77116 0.0
C307 C 0.93829 0.28841 0.77902 0.0
C308 C 0.01844 0.33318 0.81449 0.0
C309 C 0.92041 0.27903 0.83077 0.0
C310 C 0.95099 0.29573 0.87403 0.0
C311 C 0.03103 0.33934 0.90968 0.0
C312 C 0.08024 0.36674 0.90197 0.0
C313 C 1.00006 0.32277 0.86636 0.0
C314 C 0.09804 0.37791 0.85021 0.0
C315 C 0.06746 0.36109 0.80689 0.0
H316 H 0.70336 0.69244 0.39084 0.0
H317 H 0.76459 0.63405 0.49701 0.0
H318 H 0.73713 0.65984 0.57272 0.0
H319 H 0.69697 0.7003 0.60873 0.0
H320 H 0.63376 0.75633 0.50203 0.0
H321 H 0.66075 0.73001 0.42665 0.0
C322 C 0.71073 0.68534 0.43053 0.0
C323 C 0.73621 0.66161 0.43823 0.0
C324 C 0.69451 0.69986 0.47384 0.0
C325 C 0.74498 0.65222 0.48995 0.0
C326 C 0.7294 0.66705 0.53329 0.0
C327 C 0.68911 0.70674 0.56899 0.0
C328 C 0.66358 0.73044 0.56109 0.0
C329 C 0.70435 0.69112 0.52569 0.0
C330 C 0.65327 0.73809 0.50931 0.0
C331 C 0.66877 0.72316 0.46611 0.0
H332 H 0.38567 0.11828 0.15859 0.0
H333 H 0.33727 0.02245 0.02595 0.0
H334 H 0.30649 0.95453 0.0855 0.0
H335 H 0.29026 0.92186 0.17554 0.0
H336 H 0.33472 0.01761 0.3081 0.0
H337 H 0.37016 0.08567 0.24856 0.0
C338 C 0.36868 0.08255 0.14279 0.0
C339 C 0.36367 0.07551 0.08799 0.0
C340 C 0.35018 0.04346 0.17729 0.0
C341 C 0.34126 0.02892 0.06806 0.0
C342 C 0.32371 0.98996 0.10206 0.0
C343 C 0.30809 0.95763 0.19129 0.0
C344 C 0.30975 0.96465 0.24604 0.0
C345 C 0.32753 0.99675 0.15677 0.0
C346 C 0.33262 0.01123 0.26598 0.0
C347 C 0.35298 0.05023 0.232 0.0
H348 H 0.27143 0.19758 0.00706 0.0
H349 H 0.40292 0.31992 0.9599 0.0
H350 H 0.36801 0.37059 0.96931 0.0
H351 H 0.30116 0.38044 0.99327 0.0
H352 H 0.17062 0.25959 0.04646 0.0
H353 H 0.20422 0.20809 0.03341 0.0
C354 C 0.29194 0.23521 0.99814 0.0
C355 C 0.33923 0.25514 0.98193 0.0
C356 C 0.27212 0.26441 0.00562 0.0
C357 C 0.36621 0.30402 0.97181 0.0
C358 C 0.34639 0.33294 0.9775 0.0
C359 C 0.28 0.34285 0.00217 0.0
C360 C 0.23342 0.32394 0.02076 0.0
C361 C 0.29958 0.31361 0.9949 0.0
C362 C 0.20669 0.27517 0.03242 0.0
C363 C 0.22577 0.24562 0.02461 0.0
H364 H 0.82798 0.08858 0.67628 0.0
H365 H 0.70669 0.09701 0.62463 0.0
H366 H 0.65644 0.01095 0.63344 0.0
H367 H 0.64662 0.93399 0.65793 0.0
H368 H 0.7663 0.92497 0.71534 0.0
H369 H 0.81741 0.0107 0.70339 0.0
C370 C 0.7907 0.07125 0.6662 0.0
C371 C 0.771 0.09862 0.64893 0.0
C372 C 0.76167 0.02194 0.6734 0.0
C373 C 0.72249 0.07631 0.63739 0.0
C374 C 0.69378 0.02727 0.64275 0.0
C375 C 0.68386 0.9507 0.66805 0.0
C376 C 0.70257 0.92301 0.68741 0.0
C377 C 0.71288 0.99984 0.66126 0.0
C378 C 0.75086 0.94544 0.70068 0.0
C379 C 0.7802 0.99442 0.69346 0.0
H380 H 0.09165 0.83613 0.32539 0.0
H381 H 0.10624 0.71324 0.3509 0.0
H382 H 0.02108 0.66106 0.33923 0.0
H383 H 0.94272 0.65031 0.32228 0.0
H384 H 0.92727 0.77199 0.29077 0.0
H385 H 0.01258 0.82472 0.30298 0.0
C386 C 0.07587 0.79794 0.32878 0.0
C387 C 0.10474 0.77838 0.33976 0.0
C388 C 0.027 0.76802 0.32016 0.0
C389 C 0.08443 0.7289 0.34285 0.0
C390 C 0.03587 0.69911 0.336 0.0
C391 C 0.95803 0.68837 0.31768 0.0
C392 C 0.92869 0.70721 0.30584 0.0
C393 C 0.00688 0.71826 0.32451 0.0
C394 C 0.94915 0.75656 0.29953 0.0
C395 C 0.99785 0.78674 0.30697 0.0
H396 H 0.03477 0.25133 0.43297 0.0
H397 H 0.90994 0.26317 0.41346 0.0
H398 H 0.92431 0.27507 0.31906 0.0
H399 H 0.97444 0.28666 0.24261 0.0
H400 H 0.0989 0.27386 0.26037 0.0
H401 H 0.08309 0.25873 0.35453 0.0
C402 C 0.01047 0.25594 0.40783 0.0
C403 C 0.97064 0.25505 0.43021 0.0
C404 C 0.01938 0.26355 0.35329 0.0
C405 C 0.93982 0.2618 0.3973 0.0
C406 C 0.94839 0.26931 0.34322 0.0
C407 C 0.99804 0.28025 0.26688 0.0
C408 C 0.03871 0.28302 0.24438 0.0
C409 C 0.98827 0.27072 0.32089 0.0
C410 C 0.06852 0.27415 0.27663 0.0
C411 C 0.05913 0.26481 0.33058 0.0
H412 H 0.6788 0.75158 0.93345 0.0
H413 H 0.80679 0.7568 0.88146 0.0
H414 H 0.82655 0.74911 0.97285 0.0
H415 H 0.80628 0.73913 0.06733 0.0
H416 H 0.67596 0.73026 0.11781 0.0
H417 H 0.6593 0.74298 0.02756 0.0
C418 C 0.71165 0.75238 0.94218 0.0
C419 C 0.74181 0.75583 0.90084 0.0
C420 C 0.72229 0.74706 0.99464 0.0
C421 C 0.78323 0.75465 0.91273 0.0
C422 C 0.79448 0.75014 0.96494 0.0
C423 C 0.7738 0.73898 0.05868 0.0
C424 C 0.74198 0.73256 0.09959 0.0
C425 C 0.76394 0.74569 0.00623 0.0
C426 C 0.70113 0.73485 0.08735 0.0
C427 C 0.69139 0.74201 0.03559 0.0
H428 H 0.2325 0.99581 0.76113 0.0
H429 H 0.3639 0.12452 0.72809 0.0
H430 H 0.35364 0.10698 0.63426 0.0
H431 H 0.31102 0.05253 0.5625 0.0
H432 H 0.17965 0.92317 0.59366 0.0
H433 H 0.18671 0.94305 0.68735 0.0
C434 C 0.25851 0.02026 0.7332 0.0
C435 C 0.2983 0.06201 0.75157 0.0
C436 C 0.25294 0.00935 0.67911 0.0
C437 C 0.33203 0.09314 0.71511 0.0
C438 C 0.32657 0.08274 0.66135 0.0
C439 C 0.28354 0.02875 0.58954 0.0
C440 C 0.24558 0.98565 0.57107 0.0
C441 C 0.28757 0.04066 0.64308 0.0
C442 C 0.21028 0.95558 0.60684 0.0
C443 C 0.21401 0.96724 0.66045 0.0
loop_
_geom_bond_atom_site_label_1
_geom_bond_atom_site_label_2
_geom_bond_distance
_geom_bond_site_symmetry_2
_ccdc_geom_bond_type
Co0 O3 1.970 . S
Co0 N17 1.989 1_556 S
Co0 O25 1.967 . S
Co0 O32 1.920 . S
Co1 O4 1.966 . S
Co1 N10 2.022 . S
Co1 N18 1.993 . S
Co1 O26 1.941 1_554 S
C2 O3 1.258 1_554 S
C2 O4 1.263 . S
O3 Co0 1.970 . S
O3 C2 1.258 1_556 S
O4 Co1 1.966 . S
O4 C2 1.263 . S
C5 O6 1.235 . S
C5 O32 1.289 . S
O6 C5 1.235 . S
C7 C9 1.400 . S
C7 N10 1.351 . S
C7 C12 1.501 . S
C8 C9 1.387 . S
C8 N11 1.341 . S
C9 C7 1.400 . S
C9 C8 1.387 . S
N10 Co1 2.022 . S
N10 C7 1.351 . S
N10 N11 1.365 . S
N11 C8 1.341 . S
N11 N10 1.365 . S
N11 H31 0.862 . S
C12 C7 1.501 . S
C12 H13 0.961 . S
C12 H14 0.961 . S
C12 H15 0.960 . S
H13 C12 0.961 . S
H14 C12 0.961 . S
H15 C12 0.960 . S
C16 N17 1.342 . S
C16 C20 1.401 . S
C16 C21 1.504 . S
N17 Co0 1.989 1_554 S
N17 C16 1.342 . S
N17 N18 1.388 . S
N18 Co1 1.993 . S
N18 N17 1.388 . S
N18 C19 1.346 . S
C19 N18 1.346 . S
C19 C20 1.396 . S
C19 C29 1.510 . S
C20 C16 1.401 . S
C20 C19 1.396 . S
C21 C16 1.504 . S
C21 H22 0.952 1_554 S
C21 H23 0.964 . S
C21 H24 0.958 1_554 S
H22 C21 0.952 1_556 S
H23 C21 0.964 . S
H24 C21 0.958 1_556 S
O25 Co0 1.967 . S
O25 C33 1.258 . S
O26 Co1 1.941 1_556 S
O26 C33 1.266 . S
H27 C29 0.959 . S
H28 C29 0.961 . S
C29 C19 1.510 . S
C29 H27 0.959 . S
C29 H28 0.961 . S
C29 H30 0.960 . S
H30 C29 0.960 . S
H31 N11 0.862 . S
O32 Co0 1.920 . S
O32 C5 1.289 . S
C33 O25 1.258 . S
C33 O26 1.266 . S
Co34 O37 1.970 . S
Co34 N51 1.989 . S
Co34 O59 1.967 . S
Co34 O66 1.920 . S
Co35 O38 1.966 . S
Co35 N44 2.022 . S
Co35 N52 1.993 . S
Co35 O60 1.941 . S
C36 O37 1.258 . S
C36 O38 1.263 . S
O37 Co34 1.970 . S
O37 C36 1.258 . S
O38 Co35 1.966 . S
O38 C36 1.263 . S
C39 O40 1.235 . S
C39 O66 1.289 . S
O40 C39 1.235 . S
C41 C43 1.400 . S
C41 N44 1.351 . S
C41 C46 1.501 . S
C42 C43 1.387 . S
C42 N45 1.341 . S
C43 C41 1.400 . S
C43 C42 1.387 . S
N44 Co35 2.022 . S
N44 C41 1.351 . S
N44 N45 1.365 . S
N45 C42 1.341 . S
N45 N44 1.365 . S
N45 H65 0.862 . S
C46 C41 1.501 . S
C46 H47 0.961 . S
C46 H48 0.961 . S
C46 H49 0.960 . S
H47 C46 0.961 . S
H48 C46 0.961 . S
H49 C46 0.960 . S
C50 N51 1.342 . S
C50 C54 1.401 . S
C50 C55 1.499 . S
N51 Co34 1.989 . S
N51 C50 1.342 . S
N51 N52 1.388 . S
N52 Co35 1.993 . S
N52 N51 1.388 . S
N52 C53 1.346 . S
C53 N52 1.346 . S
C53 C54 1.396 . S
C53 C63 1.510 . S
C54 C50 1.401 . S
C54 C53 1.396 . S
C55 C50 1.499 . S
C55 H56 0.959 . S
C55 H57 0.960 . S
C55 H58 0.961 . S
H56 C55 0.959 . S
H57 C55 0.960 . S
H58 C55 0.961 . S
O59 Co34 1.967 . S
O59 C67 1.258 . S
O60 Co35 1.941 . S
O60 C67 1.266 . S
H61 C63 0.959 . S
H62 C63 0.961 . S
C63 C53 1.510 . S
C63 H61 0.959 . S
C63 H62 0.961 . S
C63 H64 0.960 . S
H64 C63 0.960 . S
H65 N45 0.862 . S
O66 Co34 1.920 . S
O66 C39 1.289 . S
C67 O59 1.258 . S
C67 O60 1.266 . S
Co68 O71 1.970 . S
Co68 N85 1.989 . S
Co68 O93 1.967 . S
Co68 O100 1.920 . S
Co69 O72 1.966 . S
Co69 N78 2.022 . S
Co69 N86 1.993 . S
Co69 O94 1.941 . S
C70 O71 1.258 . S
C70 O72 1.263 . S
O71 Co68 1.970 . S
O71 C70 1.258 . S
O72 Co69 1.966 . S
O72 C70 1.263 . S
C73 O74 1.235 . S
C73 O100 1.289 . S
O74 C73 1.235 . S
C75 C77 1.400 . S
C75 N78 1.351 . S
C75 C80 1.501 . S
C76 C77 1.387 . S
C76 N79 1.341 . S
C77 C75 1.400 . S
C77 C76 1.387 . S
N78 Co69 2.022 . S
N78 C75 1.351 . S
N78 N79 1.365 . S
N79 C76 1.341 . S
N79 N78 1.365 . S
N79 H99 0.862 . S
C80 C75 1.501 . S
C80 H81 0.961 . S
C80 H82 0.961 . S
C80 H83 0.960 . S
H81 C80 0.961 . S
H82 C80 0.961 . S
H83 C80 0.960 . S
C84 N85 1.342 . S
C84 C88 1.401 . S
C84 C89 1.499 . S
N85 Co68 1.989 . S
N85 C84 1.342 . S
N85 N86 1.388 . S
N86 Co69 1.993 . S
N86 N85 1.388 . S
N86 C87 1.346 . S
C87 N86 1.346 . S
C87 C88 1.396 . S
C87 C97 1.510 . S
C88 C84 1.401 . S
C88 C87 1.396 . S
C89 C84 1.499 . S
C89 H90 0.959 . S
C89 H91 0.960 . S
C89 H92 0.961 . S
H90 C89 0.959 . S
H91 C89 0.960 . S
H92 C89 0.961 . S
O93 Co68 1.967 . S
O93 C101 1.258 . S
O94 Co69 1.941 . S
O94 C101 1.266 . S
H95 C97 0.959 . S
H96 C97 0.961 . S
C97 C87 1.510 . S
C97 H95 0.959 . S
C97 H96 0.961 . S
C97 H98 0.960 . S
H98 C97 0.960 . S
H99 N79 0.862 . S
O100 Co68 1.920 . S
O100 C73 1.289 . S
C101 O93 1.258 . S
C101 O94 1.266 . S
Co102 O105 1.970 . S
Co102 N119 1.989 1_554 S
Co102 O127 1.967 . S
Co102 O134 1.920 . S
Co103 O106 1.966 . S
Co103 N112 2.022 . S
Co103 N120 1.993 . S
Co103 O128 1.941 1_556 S
C104 O105 1.258 1_556 S
C104 O106 1.263 . S
O105 Co102 1.970 . S
O105 C104 1.258 1_554 S
O106 Co103 1.966 . S
O106 C104 1.263 . S
C107 O108 1.235 . S
C107 O134 1.289 . S
O108 C107 1.235 . S
C109 C111 1.400 . S
C109 N112 1.351 . S
C109 C114 1.501 . S
C110 C111 1.387 . S
C110 N113 1.341 . S
C111 C109 1.400 . S
C111 C110 1.387 . S
N112 Co103 2.022 . S
N112 C109 1.351 . S
N112 N113 1.365 . S
N113 C110 1.341 . S
N113 N112 1.365 . S
N113 H133 0.862 . S
C114 C109 1.501 . S
C114 H115 0.961 . S
C114 H116 0.961 . S
C114 H117 0.960 . S
H115 C114 0.961 . S
H116 C114 0.961 . S
H117 C114 0.960 . S
C118 N119 1.342 . S
C118 C122 1.401 . S
C118 C123 1.504 . S
N119 Co102 1.989 1_556 S
N119 C118 1.342 . S
N119 N120 1.388 . S
N120 Co103 1.993 . S
N120 N119 1.388 . S
N120 C121 1.346 . S
C121 N120 1.346 . S
C121 C122 1.396 . S
C121 C131 1.510 . S
C122 C118 1.401 . S
C122 C121 1.396 . S
C123 C118 1.504 . S
C123 H124 0.952 1_556 S
C123 H125 0.964 . S
C123 H126 0.958 1_556 S
H124 C123 0.952 1_554 S
H125 C123 0.964 . S
H126 C123 0.958 1_554 S
O127 Co102 1.967 . S
O127 C135 1.258 . S
O128 Co103 1.941 1_554 S
O128 C135 1.266 . S
H129 C131 0.959 . S
H130 C131 0.961 . S
C131 C121 1.510 . S
C131 H129 0.959 . S
C131 H130 0.961 . S
C131 H132 0.960 . S
H132 C131 0.960 . S
H133 N113 0.862 . S
O134 Co102 1.920 . S
O134 C107 1.289 . S
C135 O127 1.258 . S
C135 O128 1.266 . S
Co136 O139 1.970 . S
Co136 N153 1.989 . S
Co136 O161 1.967 . S
Co136 O168 1.920 . S
Co137 O140 1.966 . S
Co137 N146 2.022 . S
Co137 N154 1.993 . S
Co137 O162 1.941 . S
C138 O139 1.258 . S
C138 O140 1.263 . S
O139 Co136 1.970 . S
O139 C138 1.258 . S
O140 Co137 1.966 . S
O140 C138 1.263 . S
C141 O142 1.235 . S
C141 O168 1.289 . S
O142 C141 1.235 . S
C143 C145 1.400 . S
C143 N146 1.351 . S
C143 C148 1.501 . S
C144 C145 1.387 . S
C144 N147 1.341 . S
C145 C143 1.400 . S
C145 C144 1.387 . S
N146 Co137 2.022 . S
N146 C143 1.351 . S
N146 N147 1.365 . S
N147 C144 1.341 . S
N147 N146 1.365 . S
N147 H167 0.862 . S
C148 C143 1.501 . S
C148 H149 0.961 . S
C148 H150 0.961 . S
C148 H151 0.960 . S
H149 C148 0.961 . S
H150 C148 0.961 . S
H151 C148 0.960 . S
C152 N153 1.342 . S
C152 C156 1.401 . S
C152 C157 1.499 . S
N153 Co136 1.989 . S
N153 C152 1.342 . S
N153 N154 1.388 . S
N154 Co137 1.993 . S
N154 N153 1.388 . S
N154 C155 1.346 . S
C155 N154 1.346 . S
C155 C156 1.396 . S
C155 C165 1.510 . S
C156 C152 1.401 . S
C156 C155 1.396 . S
C157 C152 1.499 . S
C157 H158 0.959 . S
C157 H159 0.960 . S
C157 H160 0.961 . S
H158 C157 0.959 . S
H159 C157 0.960 . S
H160 C157 0.961 . S
O161 Co136 1.967 . S
O161 C169 1.258 . S
O162 Co137 1.941 . S
O162 C169 1.266 . S
H163 C165 0.959 . S
H164 C165 0.961 . S
C165 C155 1.510 . S
C165 H163 0.959 . S
C165 H164 0.961 . S
C165 H166 0.960 . S
H166 C165 0.960 . S
H167 N147 0.862 . S
O168 Co136 1.920 . S
O168 C141 1.289 . S
C169 O161 1.258 . S
C169 O162 1.266 . S
Co170 O173 1.970 . S
Co170 N187 1.989 . S
Co170 O195 1.967 . S
Co170 O202 1.920 . S
Co171 O174 1.966 . S
Co171 N180 2.022 . S
Co171 N188 1.993 . S
Co171 O196 1.941 . S
C172 O173 1.258 . S
C172 O174 1.263 . S
O173 Co170 1.970 . S
O173 C172 1.258 . S
O174 Co171 1.966 . S
O174 C172 1.263 . S
C175 O176 1.235 . S
C175 O202 1.289 . S
O176 C175 1.235 . S
C177 C179 1.400 . S
C177 N180 1.351 . S
C177 C182 1.501 . S
C178 C179 1.387 . S
C178 N181 1.341 . S
C179 C177 1.400 . S
C179 C178 1.387 . S
N180 Co171 2.022 . S
N180 C177 1.351 . S
N180 N181 1.365 . S
N181 C178 1.341 . S
N181 N180 1.365 . S
N181 H201 0.862 . S
C182 C177 1.501 . S
C182 H183 0.961 . S
C182 H184 0.961 . S
C182 H185 0.960 . S
H183 C182 0.961 . S
H184 C182 0.961 . S
H185 C182 0.960 . S
C186 N187 1.342 . S
C186 C190 1.401 . S
C186 C191 1.499 . S
N187 Co170 1.989 . S
N187 C186 1.342 . S
N187 N188 1.388 . S
N188 Co171 1.993 . S
N188 N187 1.388 . S
N188 C189 1.346 . S
C189 N188 1.346 . S
C189 C190 1.396 . S
C189 C199 1.510 . S
C190 C186 1.401 . S
C190 C189 1.396 . S
C191 C186 1.499 . S
C191 H192 0.959 . S
C191 H193 0.960 . S
C191 H194 0.961 . S
H192 C191 0.959 . S
H193 C191 0.960 . S
H194 C191 0.961 . S
O195 Co170 1.967 . S
O195 C203 1.258 . S
O196 Co171 1.941 . S
O196 C203 1.266 . S
H197 C199 0.959 . S
H198 C199 0.961 . S
C199 C189 1.510 . S
C199 H197 0.959 . S
C199 H198 0.961 . S
C199 H200 0.960 . S
H200 C199 0.960 . S
H201 N181 0.862 . S
O202 Co170 1.920 . S
O202 C175 1.289 . S
C203 O195 1.258 . S
C203 O196 1.266 . S
H204 C210 0.930 . S
H205 C213 0.930 . S
H206 C214 0.930 . S
H207 C215 0.930 . S
H208 C218 0.930 . S
H209 C219 0.930 . S
C210 H204 0.930 . S
C210 C211 1.355 . S
C210 C212 1.415 . S
C211 C210 1.355 . S
C211 C213 1.419 . S
C212 C210 1.415 . S
C212 C217 1.425 . S
C212 C219 1.409 . S
C213 H205 0.930 . S
C213 C211 1.419 . S
C213 C214 1.362 . S
C214 H206 0.930 . S
C214 C213 1.362 . S
C214 C217 1.409 . S
C215 H207 0.930 . S
C215 C216 1.355 . S
C215 C217 1.415 . S
C216 C215 1.355 . S
C216 C218 1.419 . S
C217 C212 1.425 . S
C217 C214 1.409 . S
C217 C215 1.415 . S
C218 H208 0.930 . S
C218 C216 1.419 . S
C218 C219 1.362 . S
C219 H209 0.930 . S
C219 C212 1.409 . S
C219 C218 1.362 . S
H220 C226 0.930 . S
H221 C229 0.930 . S
H222 C230 0.930 . S
H223 C231 0.930 . S
H224 C234 0.930 . S
H225 C235 0.930 . S
C226 H220 0.930 . S
C226 C227 1.355 . S
C226 C228 1.415 . S
C227 C226 1.355 . S
C227 C229 1.419 . S
C228 C226 1.415 . S
C228 C233 1.425 . S
C228 C235 1.409 . S
C229 H221 0.930 . S
C229 C227 1.419 . S
C229 C230 1.362 . S
C230 H222 0.930 . S
C230 C229 1.362 . S
C230 C233 1.409 . S
C231 H223 0.930 . S
C231 C232 1.355 . S
C231 C233 1.415 . S
C232 C231 1.355 . S
C232 C234 1.419 . S
C233 C228 1.425 . S
C233 C230 1.409 . S
C233 C231 1.415 . S
C234 H224 0.930 . S
C234 C232 1.419 . S
C234 C235 1.362 . S
C235 H225 0.930 . S
C235 C228 1.409 . S
C235 C234 1.362 . S
H236 C242 0.930 . S
H237 C245 0.930 . S
H238 C246 0.930 . S
H239 C247 0.930 . S
H240 C250 0.930 . S
H241 C251 0.930 . S
C242 H236 0.930 . S
C242 C243 1.355 . S
C242 C244 1.415 . S
C243 C242 1.355 . S
C243 C245 1.419 . S
C244 C242 1.415 . S
C244 C249 1.425 . S
C244 C251 1.409 . S
C245 H237 0.930 . S
C245 C243 1.419 . S
C245 C246 1.362 . S
C246 H238 0.930 . S
C246 C245 1.362 . S
C246 C249 1.409 . S
C247 H239 0.930 . S
C247 C248 1.355 . S
C247 C249 1.415 . S
C248 C247 1.355 . S
C248 C250 1.419 . S
C249 C244 1.425 . S
C249 C246 1.409 . S
C249 C247 1.415 . S
C250 H240 0.930 . S
C250 C248 1.419 . S
C250 C251 1.362 . S
C251 H241 0.930 . S
C251 C244 1.409 . S
C251 C250 1.362 . S
H252 C258 0.930 . S
H253 C261 0.930 . S
H254 C262 0.930 . S
H255 C263 0.930 . S
H256 C266 0.930 . S
H257 C267 0.930 . S
C258 H252 0.930 . S
C258 C259 1.355 . S
C258 C260 1.415 . S
C259 C258 1.355 . S
C259 C261 1.419 . S
C260 C258 1.415 . S
C260 C265 1.425 . S
C260 C267 1.409 . S
C261 H253 0.930 . S
C261 C259 1.419 . S
C261 C262 1.362 . S
C262 H254 0.930 . S
C262 C261 1.362 . S
C262 C265 1.409 . S
C263 H255 0.930 . S
C263 C264 1.355 . S
C263 C265 1.415 . S
C264 C263 1.355 . S
C264 C266 1.419 . S
C265 C260 1.425 . S
C265 C262 1.409 . S
C265 C263 1.415 . S
C266 H256 0.930 . S
C266 C264 1.419 . S
C266 C267 1.362 . S
C267 H257 0.930 . S
C267 C260 1.409 . S
C267 C266 1.362 . S
H268 C274 0.930 . S
H269 C277 0.930 . S
H270 C278 0.930 . S
H271 C279 0.930 . S
H272 C282 0.930 . S
H273 C283 0.930 . S
C274 H268 0.930 . S
C274 C275 1.355 . S
C274 C276 1.415 . S
C275 C274 1.355 . S
C275 C277 1.419 . S
C276 C274 1.415 . S
C276 C281 1.425 . S
C276 C283 1.409 . S
C277 H269 0.930 . S
C277 C275 1.419 . S
C277 C278 1.362 . S
C278 H270 0.930 . S
C278 C277 1.362 . S
C278 C281 1.409 . S
C279 H271 0.930 . S
C279 C280 1.355 . S
C279 C281 1.415 . S
C280 C279 1.355 . S
C280 C282 1.419 . S
C281 C276 1.425 . S
C281 C278 1.409 . S
C281 C279 1.415 . S
C282 H272 0.930 . S
C282 C280 1.419 . S
C282 C283 1.362 . S
C283 H273 0.930 . S
C283 C276 1.409 . S
C283 C282 1.362 . S
H284 C290 0.930 . S
H285 C293 0.930 . S
H286 C294 0.930 . S
H287 C295 0.930 . S
H288 C298 0.930 . S
H289 C299 0.930 . S
C290 H284 0.930 . S
C290 C291 1.355 . S
C290 C292 1.415 . S
C291 C290 1.355 . S
C291 C293 1.419 . S
C292 C290 1.415 . S
C292 C297 1.425 . S
C292 C299 1.409 . S
C293 H285 0.930 . S
C293 C291 1.419 . S
C293 C294 1.362 . S
C294 H286 0.930 . S
C294 C293 1.362 . S
C294 C297 1.409 . S
C295 H287 0.930 . S
C295 C296 1.355 . S
C295 C297 1.415 . S
C296 C295 1.355 . S
C296 C298 1.419 . S
C297 C292 1.425 . S
C297 C294 1.409 . S
C297 C295 1.415 . S
C298 H288 0.930 . S
C298 C296 1.419 . S
C298 C299 1.362 . S
C299 H289 0.930 . S
C299 C292 1.409 . S
C299 C298 1.362 . S
H300 C306 0.930 . S
H301 C309 0.930 . S
H302 C310 0.930 . S
H303 C311 0.930 . S
H304 C314 0.930 . S
H305 C315 0.930 . S
C306 H300 0.930 . S
C306 C307 1.355 . S
C306 C308 1.415 1_655 S
C307 C306 1.355 . S
C307 C309 1.419 . S
C308 C306 1.415 1_455 S
C308 C313 1.425 . S
C308 C315 1.409 . S
C309 H301 0.930 . S
C309 C307 1.419 . S
C309 C310 1.362 . S
C310 H302 0.930 . S
C310 C309 1.362 . S
C310 C313 1.409 1_655 S
C311 H303 0.930 . S
C311 C312 1.355 . S
C311 C313 1.415 . S
C312 C311 1.355 . S
C312 C314 1.419 . S
C313 C308 1.425 . S
C313 C310 1.409 1_455 S
C313 C311 1.415 . S
C314 H304 0.930 . S
C314 C312 1.419 . S
C314 C315 1.362 . S
C315 H305 0.930 . S
C315 C308 1.409 . S
C315 C314 1.362 . S
H316 C322 0.930 . S
H317 C325 0.930 . S
H318 C326 0.930 . S
H319 C327 0.930 . S
H320 C330 0.930 . S
H321 C331 0.930 . S
C322 H316 0.930 . S
C322 C323 1.355 . S
C322 C324 1.415 . S
C323 C322 1.355 . S
C323 C325 1.419 . S
C324 C322 1.415 . S
C324 C329 1.425 . S
C324 C331 1.409 . S
C325 H317 0.930 . S
C325 C323 1.419 . S
C325 C326 1.362 . S
C326 H318 0.930 . S
C326 C325 1.362 . S
C326 C329 1.409 . S
C327 H319 0.930 . S
C327 C328 1.355 . S
C327 C329 1.415 . S
C328 C327 1.355 . S
C328 C330 1.419 . S
C329 C324 1.425 . S
C329 C326 1.409 . S
C329 C327 1.415 . S
C330 H320 0.930 . S
C330 C328 1.419 . S
C330 C331 1.362 . S
C331 H321 0.930 . S
C331 C324 1.409 . S
C331 C330 1.362 . S
H332 C338 0.930 . S
H333 C341 0.930 . S
H334 C342 0.930 . S
H335 C343 0.930 . S
H336 C346 0.930 . S
H337 C347 0.930 . S
C338 H332 0.930 . S
C338 C339 1.355 . S
C338 C340 1.415 . S
C339 C338 1.355 . S
C339 C341 1.419 . S
C340 C338 1.415 . S
C340 C345 1.425 1_545 S
C340 C347 1.409 . S
C341 H333 0.930 . S
C341 C339 1.419 . S
C341 C342 1.362 1_545 S
C342 H334 0.930 . S
C342 C341 1.362 1_565 S
C342 C345 1.409 . S
C343 H335 0.930 . S
C343 C344 1.355 . S
C343 C345 1.415 . S
C344 C343 1.355 . S
C344 C346 1.419 . S
C345 C340 1.425 1_565 S
C345 C342 1.409 . S
C345 C343 1.415 . S
C346 H336 0.930 . S
C346 C344 1.419 . S
C346 C347 1.362 1_565 S
C347 H337 0.930 . S
C347 C340 1.409 . S
C347 C346 1.362 1_545 S
H348 C354 0.930 . S
H349 C357 0.930 . S
H350 C358 0.930 . S
H351 C359 0.930 . S
H352 C362 0.930 . S
H353 C363 0.930 . S
C354 H348 0.930 . S
C354 C355 1.355 . S
C354 C356 1.415 . S
C355 C354 1.355 . S
C355 C357 1.419 1_556 S
C356 C354 1.415 . S
C356 C361 1.425 1_556 S
C356 C363 1.409 . S
C357 H349 0.930 . S
C357 C355 1.419 1_554 S
C357 C358 1.362 . S
C358 H350 0.930 . S
C358 C357 1.362 . S
C358 C361 1.409 . S
C359 H351 0.930 . S
C359 C360 1.355 . S
C359 C361 1.415 . S
C360 C359 1.355 . S
C360 C362 1.419 1_554 S
C361 C356 1.425 1_554 S
C361 C358 1.409 . S
C361 C359 1.415 . S
C362 H352 0.930 . S
C362 C360 1.419 1_556 S
C362 C363 1.362 . S
C363 H353 0.930 . S
C363 C356 1.409 . S
C363 C362 1.362 . S
H364 C370 0.930 . S
H365 C373 0.930 . S
H366 C374 0.930 . S
H367 C375 0.930 . S
H368 C378 0.930 . S
H369 C379 0.930 1_545 S
C370 H364 0.930 . S
C370 C371 1.355 . S
C370 C372 1.415 . S
C371 C370 1.355 . S
C371 C373 1.419 . S
C372 C370 1.415 . S
C372 C377 1.425 . S
C372 C379 1.409 1_545 S
C373 H365 0.930 . S
C373 C371 1.419 . S
C373 C374 1.362 . S
C374 H366 0.930 . S
C374 C373 1.362 . S
C374 C377 1.409 . S
C375 H367 0.930 . S
C375 C376 1.355 . S
C375 C377 1.415 1_565 S
C376 C375 1.355 . S
C376 C378 1.419 . S
C377 C372 1.425 . S
C377 C374 1.409 . S
C377 C375 1.415 1_545 S
C378 H368 0.930 . S
C378 C376 1.419 . S
C378 C379 1.362 . S
C379 H369 0.930 1_565 S
C379 C372 1.409 1_565 S
C379 C378 1.362 . S
H380 C386 0.930 . S
H381 C389 0.930 . S
H382 C390 0.930 . S
H383 C391 0.930 . S
H384 C394 0.930 . S
H385 C395 0.933 1_455 S
C386 H380 0.930 . S
C386 C387 1.355 . S
C386 C388 1.415 . S
C387 C386 1.355 . S
C387 C389 1.419 . S
C388 C386 1.415 . S
C388 C393 1.425 . S
C388 C395 1.409 1_455 S
C389 H381 0.930 . S
C389 C387 1.419 . S
C389 C390 1.362 . S
C390 H382 0.930 . S
C390 C389 1.362 . S
C390 C393 1.409 . S
C391 H383 0.930 . S
C391 C392 1.355 . S
C391 C393 1.415 1_655 S
C392 C391 1.355 . S
C392 C394 1.419 . S
C393 C388 1.425 . S
C393 C390 1.409 . S
C393 C391 1.415 1_455 S
C394 H384 0.930 . S
C394 C392 1.419 . S
C394 C395 1.362 . S
C395 H385 0.933 1_655 S
C395 C388 1.409 1_655 S
C395 C394 1.362 . S
H396 C402 0.930 . S
H397 C405 0.930 . S
H398 C406 0.930 . S
H399 C407 0.930 1_655 S
H400 C410 0.930 . S
H401 C411 0.930 . S
C402 H396 0.930 . S
C402 C403 1.355 1_455 S
C402 C404 1.415 . S
C403 C402 1.355 1_655 S
C403 C405 1.419 . S
C404 C402 1.415 . S
C404 C409 1.425 1_455 S
C404 C411 1.409 . S
C405 H397 0.930 . S
C405 C403 1.419 . S
C405 C406 1.362 . S
C406 H398 0.930 . S
C406 C405 1.362 . S
C406 C409 1.409 . S
C407 H399 0.930 1_455 S
C407 C408 1.355 . S
C407 C409 1.415 1_455 S
C408 C407 1.355 . S
C408 C410 1.419 . S
C409 C404 1.425 1_655 S
C409 C406 1.409 . S
C409 C407 1.415 1_655 S
C410 H400 0.930 . S
C410 C408 1.419 . S
C410 C411 1.362 . S
C411 H401 0.930 . S
C411 C404 1.409 . S
C411 C410 1.362 . S
H412 C418 0.930 . S
H413 C421 0.930 . S
H414 C422 0.930 . S
H415 C423 0.930 . S
H416 C426 0.930 . S
H417 C427 0.930 . S
C418 H412 0.930 . S
C418 C419 1.355 . S
C418 C420 1.415 1_556 S
C419 C418 1.355 . S
C419 C421 1.419 . S
C420 C418 1.415 1_554 S
C420 C425 1.425 1_554 S
C420 C427 1.409 . S
C421 H413 0.930 . S
C421 C419 1.419 . S
C421 C422 1.362 . S
C422 H414 0.930 . S
C422 C421 1.362 . S
C422 C425 1.409 . S
C423 H415 0.930 . S
C423 C424 1.355 . S
C423 C425 1.415 1_554 S
C424 C423 1.355 . S
C424 C426 1.419 . S
C425 C420 1.425 1_556 S
C425 C422 1.409 . S
C425 C423 1.415 1_556 S
C426 H416 0.930 . S
C426 C424 1.419 . S
C426 C427 1.362 . S
C427 H417 0.930 . S
C427 C420 1.409 . S
C427 C426 1.362 . S
H428 C434 0.930 . S
H429 C437 0.930 . S
H430 C438 0.930 . S
H431 C439 0.930 . S
H432 C442 0.930 . S
H433 C443 0.930 . S
C434 H428 0.930 . S
C434 C435 1.355 . S
C434 C436 1.415 . S
C435 C434 1.355 . S
C435 C437 1.419 . S
C436 C434 1.415 . S
C436 C441 1.425 . S
C436 C443 1.409 1_545 S
C437 H429 0.930 . S
C437 C435 1.419 . S
C437 C438 1.362 . S
C438 H430 0.930 . S
C438 C437 1.362 . S
C438 C441 1.409 . S
C439 H431 0.930 . S
C439 C440 1.355 1_545 S
C439 C441 1.415 . S
C440 C439 1.355 1_565 S
C440 C442 1.419 . S
C441 C436 1.425 . S
C441 C438 1.409 . S
C441 C439 1.415 . S
C442 H432 0.930 . S
C442 C440 1.419 . S
C442 C443 1.362 . S
C443 H433 0.930 . S
C443 C436 1.409 1_565 S
C443 C442 1.362 . S
C211 C73 1.587 . S
C216 C20 1.589 . S
C227 C54 1.590 . S
C232 C5 1.584 . S
C243 C88 1.587 . S
C248 C39 1.586 . S
C259 C122 1.597 . S
C264 C141 1.541 . S
C275 C175 1.556 . S
C280 C156 1.597 . S
C291 C107 1.542 . S
C296 C190 1.591 . S
C307 C169 1.233 . S
C312 C33 1.235 . S
C323 C203 1.233 . S
C328 C67 1.232 . S
C339 C135 1.215 . S
C344 C101 1.216 . S
C355 C104 1.535 . S
C360 C2 1.561 . S
C371 C138 1.550 . S
C376 C36 1.563 . S
C387 C70 1.543 . S
C392 C172 1.566 . S
C403 C145 1.418 . S
C408 C9 1.457 . S
C419 C43 1.409 . S
C424 C179 1.389 . S
C435 C111 1.397 . S
C440 C77 1.453 . S
