# Generated by pormake.
# Topology umu, (4)-cn, num edge types: 1
# Building blocks:
#     Node 0, Type 0, BuildingBlock: NAHDIM_clean_sbu_0, # of connection points: 4
#     Node 1, Type 0, BuildingBlock: NAHDIM_clean_sbu_0, # of connection points: 4
#     Node 2, Type 0, BuildingBlock: NAHDIM_clean_sbu_0, # of connection points: 4
#     Node 3, Type 0, BuildingBlock: NAHDIM_clean_sbu_0, # of connection points: 4
#     Node 4, Type 0, BuildingBlock: NAHDIM_clean_sbu_0, # of connection points: 4
#     Node 5, Type 0, BuildingBlock: NAHDIM_clean_sbu_0, # of connection points: 4
#     Node 6, Type 0, BuildingBlock: NAHDIM_clean_sbu_0, # of connection points: 4
#     Node 7, Type 0, BuildingBlock: NAHDIM_clean_sbu_0, # of connection points: 4
#     Node 8, Type 0, BuildingBlock: NAHDIM_clean_sbu_0, # of connection points: 4
#     Node 9, Type 0, BuildingBlock: NAHDIM_clean_sbu_0, # of connection points: 4
#     Node 10, Type 0, BuildingBlock: NAHDIM_clean_sbu_0, # of connection points: 4
#     Node 11, Type 0, BuildingBlock: NAHDIM_clean_sbu_0, # of connection points: 4
#     Node 12, Type 0, BuildingBlock: NAHDIM_clean_sbu_0, # of connection points: 4
#     Node 13, Type 0, BuildingBlock: NAHDIM_clean_sbu_0, # of connection points: 4
#     Node 14, Type 0, BuildingBlock: NAHDIM_clean_sbu_0, # of connection points: 4
#     Node 15, Type 0, BuildingBlock: NAHDIM_clean_sbu_0, # of connection points: 4
#     Node 16, Type 0, BuildingBlock: NAHDIM_clean_sbu_0, # of connection points: 4
#     Node 17, Type 0, BuildingBlock: NAHDIM_clean_sbu_0, # of connection points: 4
#     Node 18, Type 0, BuildingBlock: NAHDIM_clean_sbu_0, # of connection points: 4
#     Node 19, Type 0, BuildingBlock: NAHDIM_clean_sbu_0, # of connection points: 4
#     Node 20, Type 0, BuildingBlock: NAHDIM_clean_sbu_0, # of connection points: 4
#     Node 21, Type 0, BuildingBlock: NAHDIM_clean_sbu_0, # of connection points: 4
#     Node 22, Type 0, BuildingBlock: NAHDIM_clean_sbu_0, # of connection points: 4
#     Node 23, Type 0, BuildingBlock: NAHDIM_clean_sbu_0, # of connection points: 4
#     Node 24, Type 0, BuildingBlock: NAHDIM_clean_sbu_0, # of connection points: 4
#     Node 25, Type 0, BuildingBlock: NAHDIM_clean_sbu_0, # of connection points: 4
#     Node 26, Type 0, BuildingBlock: NAHDIM_clean_sbu_0, # of connection points: 4
#     Node 27, Type 0, BuildingBlock: NAHDIM_clean_sbu_0, # of connection points: 4
#     Node 28, Type 0, BuildingBlock: NAHDIM_clean_sbu_0, # of connection points: 4
#     Node 29, Type 0, BuildingBlock: NAHDIM_clean_sbu_0, # of connection points: 4
#     Node 30, Type 0, BuildingBlock: NAHDIM_clean_sbu_0, # of connection points: 4
#     Node 31, Type 0, BuildingBlock: NAHDIM_clean_sbu_0, # of connection points: 4
#     Edge 32, Type (0, 0), BuildingBlock: KIFKEQ_clean_linker_1, # of connection points: 2
#     Edge 33, Type (0, 0), BuildingBlock: KIFKEQ_clean_linker_1, # of connection points: 2
#     Edge 34, Type (0, 0), BuildingBlock: KIFKEQ_clean_linker_1, # of connection points: 2
#     Edge 35, Type (0, 0), BuildingBlock: KIFKEQ_clean_linker_1, # of connection points: 2
#     Edge 36, Type (0, 0), BuildingBlock: KIFKEQ_clean_linker_1, # of connection points: 2
#     Edge 37, Type (0, 0), BuildingBlock: KIFKEQ_clean_linker_1, # of connection points: 2
#     Edge 38, Type (0, 0), BuildingBlock: KIFKEQ_clean_linker_1, # of connection points: 2
#     Edge 39, Type (0, 0), BuildingBlock: KIFKEQ_clean_linker_1, # of connection points: 2
#     Edge 40, Type (0, 0), BuildingBlock: KIFKEQ_clean_linker_1, # of connection points: 2
#     Edge 41, Type (0, 0), BuildingBlock: KIFKEQ_clean_linker_1, # of connection points: 2
#     Edge 42, Type (0, 0), BuildingBlock: KIFKEQ_clean_linker_1, # of connection points: 2
#     Edge 43, Type (0, 0), BuildingBlock: KIFKEQ_clean_linker_1, # of connection points: 2
#     Edge 44, Type (0, 0), BuildingBlock: KIFKEQ_clean_linker_1, # of connection points: 2
#     Edge 45, Type (0, 0), BuildingBlock: KIFKEQ_clean_linker_1, # of connection points: 2
#     Edge 46, Type (0, 0), BuildingBlock: KIFKEQ_clean_linker_1, # of connection points: 2
#     Edge 47, Type (0, 0), BuildingBlock: KIFKEQ_clean_linker_1, # of connection points: 2
#     Edge 48, Type (0, 0), BuildingBlock: KIFKEQ_clean_linker_1, # of connection points: 2
#     Edge 49, Type (0, 0), BuildingBlock: KIFKEQ_clean_linker_1, # of connection points: 2
#     Edge 50, Type (0, 0), BuildingBlock: KIFKEQ_clean_linker_1, # of connection points: 2
#     Edge 51, Type (0, 0), BuildingBlock: KIFKEQ_clean_linker_1, # of connection points: 2
#     Edge 52, Type (0, 0), BuildingBlock: KIFKEQ_clean_linker_1, # of connection points: 2
#     Edge 53, Type (0, 0), BuildingBlock: KIFKEQ_clean_linker_1, # of connection points: 2
#     Edge 54, Type (0, 0), BuildingBlock: KIFKEQ_clean_linker_1, # of connection points: 2
#     Edge 55, Type (0, 0), BuildingBlock: KIFKEQ_clean_linker_1, # of connection points: 2
#     Edge 56, Type (0, 0), BuildingBlock: KIFKEQ_clean_linker_1, # of connection points: 2
#     Edge 57, Type (0, 0), BuildingBlock: KIFKEQ_clean_linker_1, # of connection points: 2
#     Edge 58, Type (0, 0), BuildingBlock: KIFKEQ_clean_linker_1, # of connection points: 2
#     Edge 59, Type (0, 0), BuildingBlock: KIFKEQ_clean_linker_1, # of connection points: 2
#     Edge 60, Type (0, 0), BuildingBlock: KIFKEQ_clean_linker_1, # of connection points: 2
#     Edge 61, Type (0, 0), BuildingBlock: KIFKEQ_clean_linker_1, # of connection points: 2
#     Edge 62, Type (0, 0), BuildingBlock: KIFKEQ_clean_linker_1, # of connection points: 2
#     Edge 63, Type (0, 0), BuildingBlock: KIFKEQ_clean_linker_1, # of connection points: 2
#     Edge 64, Type (0, 0), BuildingBlock: KIFKEQ_clean_linker_1, # of connection points: 2
#     Edge 65, Type (0, 0), BuildingBlock: KIFKEQ_clean_linker_1, # of connection points: 2
#     Edge 66, Type (0, 0), BuildingBlock: KIFKEQ_clean_linker_1, # of connection points: 2
#     Edge 67, Type (0, 0), BuildingBlock: KIFKEQ_clean_linker_1, # of connection points: 2
#     Edge 68, Type (0, 0), BuildingBlock: KIFKEQ_clean_linker_1, # of connection points: 2
#     Edge 69, Type (0, 0), BuildingBlock: KIFKEQ_clean_linker_1, # of connection points: 2
#     Edge 70, Type (0, 0), BuildingBlock: KIFKEQ_clean_linker_1, # of connection points: 2
#     Edge 71, Type (0, 0), BuildingBlock: KIFKEQ_clean_linker_1, # of connection points: 2
#     Edge 72, Type (0, 0), BuildingBlock: KIFKEQ_clean_linker_1, # of connection points: 2
#     Edge 73, Type (0, 0), BuildingBlock: KIFKEQ_clean_linker_1, # of connection points: 2
#     Edge 74, Type (0, 0), BuildingBlock: KIFKEQ_clean_linker_1, # of connection points: 2
#     Edge 75, Type (0, 0), BuildingBlock: KIFKEQ_clean_linker_1, # of connection points: 2
#     Edge 76, Type (0, 0), BuildingBlock: KIFKEQ_clean_linker_1, # of connection points: 2
#     Edge 77, Type (0, 0), BuildingBlock: KIFKEQ_clean_linker_1, # of connection points: 2
#     Edge 78, Type (0, 0), BuildingBlock: KIFKEQ_clean_linker_1, # of connection points: 2
#     Edge 79, Type (0, 0), BuildingBlock: KIFKEQ_clean_linker_1, # of connection points: 2
#     Edge 80, Type (0, 0), BuildingBlock: KIFKEQ_clean_linker_1, # of connection points: 2
#     Edge 81, Type (0, 0), BuildingBlock: KIFKEQ_clean_linker_1, # of connection points: 2
#     Edge 82, Type (0, 0), BuildingBlock: KIFKEQ_clean_linker_1, # of connection points: 2
#     Edge 83, Type (0, 0), BuildingBlock: KIFKEQ_clean_linker_1, # of connection points: 2
#     Edge 84, Type (0, 0), BuildingBlock: KIFKEQ_clean_linker_1, # of connection points: 2
#     Edge 85, Type (0, 0), BuildingBlock: KIFKEQ_clean_linker_1, # of connection points: 2
#     Edge 86, Type (0, 0), BuildingBlock: KIFKEQ_clean_linker_1, # of connection points: 2
#     Edge 87, Type (0, 0), BuildingBlock: KIFKEQ_clean_linker_1, # of connection points: 2
#     Edge 88, Type (0, 0), BuildingBlock: KIFKEQ_clean_linker_1, # of connection points: 2
#     Edge 89, Type (0, 0), BuildingBlock: KIFKEQ_clean_linker_1, # of connection points: 2
#     Edge 90, Type (0, 0), BuildingBlock: KIFKEQ_clean_linker_1, # of connection points: 2
#     Edge 91, Type (0, 0), BuildingBlock: KIFKEQ_clean_linker_1, # of connection points: 2
#     Edge 92, Type (0, 0), BuildingBlock: KIFKEQ_clean_linker_1, # of connection points: 2
#     Edge 93, Type (0, 0), BuildingBlock: KIFKEQ_clean_linker_1, # of connection points: 2
#     Edge 94, Type (0, 0), BuildingBlock: KIFKEQ_clean_linker_1, # of connection points: 2
#     Edge 95, Type (0, 0), BuildingBlock: KIFKEQ_clean_linker_1, # of connection points: 2
# Relax obj value: 0.142
# Max RMSD: 0.102
# Mean RMSD: 0.102
data_MOF--net-umu--node1-NAHDIM_clean_sbu_0--edge1-KIFKEQ_clean_linker_1
_symmetry_space_group_name_H-M    P1
_symmetry_Int_Tables_number       1
_symmetry_cell_setting            triclinic
loop_
_symmetry_equiv_pos_as_xyz
'x, y, z'
_cell_length_a     88.98406
_cell_length_b     88.987404
_cell_length_c     23.864453
_cell_angle_alpha  89.991488
_cell_angle_beta   89.973119
_cell_angle_gamma 90.006166
loop_
_atom_site_label
_atom_site_type_symbol
_atom_site_fract_x
_atom_site_fract_y
_atom_site_fract_z
_atom_type_partial_charge
C0 C 0.18627 0.13803 0.99146 0.0
O1 O 0.20066 0.13559 0.9831 0.0
O2 O 0.21065 0.1596 0.09718 0.0
Zn3 Zn 0.19868 0.16536 0.02849 0.0
O4 O 0.21168 0.166 0.95968 0.0
C5 C 0.18772 0.19176 0.08701 0.0
O6 O 0.18939 0.1833 0.13172 0.0
O7 O 0.18221 0.15041 0.01337 0.0
C8 C 0.22383 0.17343 0.95632 0.0
O9 O 0.22868 0.18085 0.00034 0.0
C10 C 0.22283 0.15213 0.09641 0.0
O11 O 0.22813 0.14726 0.04834 0.0
O12 O 0.19044 0.1862 0.03901 0.0
C13 C 0.10898 0.93189 0.25718 0.0
O14 O 0.11069 0.94641 0.24948 0.0
O15 O 0.08939 0.95335 0.38005 0.0
Zn16 Zn 0.0826 0.94281 0.30941 0.0
O17 O 0.07989 0.95734 0.24555 0.0
C18 C 0.05376 0.93898 0.3606 0.0
O19 O 0.05875 0.95017 0.3913 0.0
O20 O 0.09761 0.92724 0.28444 0.0
C21 C 0.07441 0.97048 0.24948 0.0
O22 O 0.07025 0.97563 0.29868 0.0
C23 C 0.09698 0.96544 0.38251 0.0
O24 O 0.10203 0.97154 0.33604 0.0
O25 O 0.06229 0.93342 0.32317 0.0
C26 C 0.31193 0.86184 0.48819 0.0
O27 O 0.29748 0.86405 0.48034 0.0
O28 O 0.28919 0.84102 0.60414 0.0
Zn29 Zn 0.30012 0.83497 0.53347 0.0
O30 O 0.28572 0.83371 0.4689 0.0
C31 C 0.31134 0.80853 0.59125 0.0
O32 O 0.30939 0.81677 0.63635 0.0
O33 O 0.31619 0.84991 0.51275 0.0
C34 C 0.27354 0.82629 0.47115 0.0
O35 O 0.26988 0.81937 0.51784 0.0
C36 C 0.27731 0.84897 0.6047 0.0
O37 O 0.27197 0.85421 0.55727 0.0
O38 O 0.3087 0.81424 0.54344 0.0
C39 C 0.39001 0.06882 0.76363 0.0
O40 O 0.38478 0.05551 0.77733 0.0
O41 O 0.40992 0.04353 0.86019 0.0
Zn42 Zn 0.41755 0.05439 0.7912 0.0
O43 O 0.41835 0.04081 0.72397 0.0
C44 C 0.44676 0.05572 0.84222 0.0
O45 O 0.44114 0.04464 0.87201 0.0
O46 O 0.40397 0.07142 0.76912 0.0
C47 C 0.42557 0.02853 0.7208 0.0
O48 O 0.43287 0.02355 0.76489 0.0
C49 C 0.40275 0.03117 0.85927 0.0
O50 O 0.3992 0.02514 0.81081 0.0
O51 O 0.43857 0.06199 0.80535 0.0
C52 C 0.18139 0.85965 0.07377 0.0
O53 O 0.19589 0.86235 0.07664 0.0
O54 O 0.20399 0.8408 0.95835 0.0
Zn55 Zn 0.19333 0.83319 0.02767 0.0
O56 O 0.20789 0.83186 0.09201 0.0
C57 C 0.19347 0.80364 0.98333 0.0
O58 O 0.20611 0.80881 0.96237 0.0
O59 O 0.17697 0.84743 0.05161 0.0
C60 C 0.20628 0.82226 0.13097 0.0
O61 O 0.19514 0.8126 0.12832 0.0
C62 C 0.21701 0.84667 0.96053 0.0
O63 O 0.22344 0.84862 0.00954 0.0
O64 O 0.18534 0.81235 0.01271 0.0
C65 C 0.38656 0.93536 0.32568 0.0
O66 O 0.38444 0.94985 0.33285 0.0
O67 O 0.40698 0.95888 0.21561 0.0
Zn68 Zn 0.41371 0.947 0.28339 0.0
O69 O 0.41561 0.96004 0.35186 0.0
C70 C 0.44253 0.94356 0.23066 0.0
O71 O 0.43744 0.95475 0.20018 0.0
O72 O 0.39863 0.93094 0.3024 0.0
C73 C 0.4235 0.9719 0.35497 0.0
O74 O 0.4308 0.97663 0.31046 0.0
C75 C 0.40049 0.9716 0.21695 0.0
O76 O 0.39703 0.9776 0.26557 0.0
O77 O 0.43414 0.93798 0.26847 0.0
C78 C 0.32091 0.1378 0.5491 0.0
O79 O 0.30742 0.13273 0.53706 0.0
O80 O 0.29576 0.15819 0.45176 0.0
Zn81 Zn 0.30668 0.16537 0.52119 0.0
O82 O 0.29307 0.16588 0.58832 0.0
C83 C 0.30825 0.19488 0.47227 0.0
O84 O 0.29756 0.18939 0.44031 0.0
O85 O 0.3237 0.15169 0.54236 0.0
C86 C 0.2811 0.17358 0.59182 0.0
O87 O 0.2766 0.18146 0.54841 0.0
C88 C 0.28317 0.15141 0.45265 0.0
O89 O 0.27709 0.14792 0.50109 0.0
O90 O 0.31423 0.18649 0.50915 0.0
C91 C 0.11045 0.06305 0.8473 0.0
O92 O 0.11266 0.04862 0.85569 0.0
O93 O 0.08968 0.03809 0.74458 0.0
Zn94 Zn 0.08302 0.05109 0.80966 0.0
O95 O 0.08173 0.03858 0.87998 0.0
C96 C 0.05647 0.06076 0.74705 0.0
O97 O 0.06405 0.05631 0.70283 0.0
O98 O 0.0982 0.06729 0.825 0.0
C99 C 0.06979 0.03211 0.89655 0.0
O100 O 0.05749 0.03318 0.86643 0.0
C101 C 0.0819 0.0266 0.73193 0.0
O102 O 0.06985 0.02355 0.76159 0.0
O103 O 0.06255 0.06 0.79516 0.0
C104 C 0.81612 0.86243 0.0617 0.0
O105 O 0.80275 0.86756 0.04843 0.0
O106 O 0.79049 0.84175 0.96872 0.0
Zn107 Zn 0.8018 0.83451 0.03719 0.0
O108 O 0.78852 0.83355 0.10523 0.0
C109 C 0.80378 0.8053 0.98598 0.0
O110 O 0.79273 0.8107 0.95555 0.0
O111 O 0.81871 0.84843 0.0574 0.0
C112 C 0.77666 0.82566 0.10903 0.0
O113 O 0.7721 0.81788 0.06546 0.0
C114 C 0.77786 0.84843 0.97006 0.0
O115 O 0.77181 0.85176 0.01871 0.0
O116 O 0.80975 0.81361 0.02317 0.0
C117 C 0.88839 0.06726 0.81164 0.0
O118 O 0.88298 0.05411 0.79684 0.0
O119 O 0.91017 0.04306 0.71026 0.0
Zn120 Zn 0.91594 0.0526 0.78412 0.0
O121 O 0.91467 0.03715 0.84504 0.0
C122 C 0.94407 0.06429 0.73779 0.0
O123 O 0.9364 0.0659 0.69114 0.0
O124 O 0.90241 0.06964 0.80689 0.0
C125 C 0.92417 0.02653 0.84801 0.0
O126 O 0.93483 0.0256 0.81003 0.0
C127 C 0.90239 0.03107 0.70883 0.0
O128 O 0.89728 0.0254 0.75595 0.0
O129 O 0.93748 0.05934 0.78128 0.0
C130 C 0.6869 0.13673 0.58258 0.0
O131 O 0.70131 0.13496 0.59255 0.0
O132 O 0.71035 0.16174 0.47543 0.0
Zn133 Zn 0.69805 0.1648 0.54547 0.0
O134 O 0.7121 0.16465 0.61125 0.0
C135 C 0.68524 0.19257 0.50019 0.0
O136 O 0.68622 0.18584 0.45131 0.0
O137 O 0.68247 0.14876 0.55903 0.0
C138 C 0.71993 0.17613 0.62346 0.0
O139 O 0.71911 0.18812 0.59145 0.0
C140 C 0.71152 0.14973 0.44695 0.0
O141 O 0.7038 0.13779 0.46185 0.0
O142 O 0.68884 0.1854 0.54423 0.0
C143 C 0.60944 0.92906 0.30942 0.0
O144 O 0.61443 0.94245 0.29557 0.0
O145 O 0.58776 0.95373 0.21281 0.0
Zn146 Zn 0.58158 0.94316 0.28426 0.0
O147 O 0.58201 0.95761 0.3488 0.0
C148 C 0.55409 0.93303 0.23032 0.0
O149 O 0.56202 0.93417 0.18408 0.0
O150 O 0.59549 0.92629 0.30495 0.0
C151 C 0.57104 0.96627 0.3597 0.0
O152 O 0.55919 0.96614 0.32685 0.0
C153 C 0.5944 0.96639 0.21329 0.0
O154 O 0.59804 0.97248 0.26155 0.0
O155 O 0.56032 0.93575 0.27711 0.0
C156 C 0.81967 0.13724 0.02389 0.0
O157 O 0.80614 0.13231 0.03608 0.0
O158 O 0.79422 0.15865 0.11888 0.0
Zn159 Zn 0.80581 0.16528 0.05021 0.0
O160 O 0.79199 0.16567 0.98383 0.0
C161 C 0.80979 0.19448 0.10196 0.0
O162 O 0.80091 0.18876 0.14043 0.0
O163 O 0.82256 0.15113 0.02991 0.0
C164 C 0.78309 0.17653 0.97424 0.0
O165 O 0.78262 0.18788 0.00937 0.0
C166 C 0.78169 0.15182 0.11525 0.0
O167 O 0.77657 0.14804 0.06559 0.0
O168 O 0.81378 0.18635 0.06075 0.0
C169 C 0.61298 0.06275 0.7466 0.0
O170 O 0.6152 0.04824 0.74066 0.0
O171 O 0.59089 0.03994 0.85781 0.0
Zn172 Zn 0.5855 0.05136 0.78743 0.0
O173 O 0.58471 0.03728 0.72173 0.0
C174 C 0.55865 0.06251 0.84295 0.0
O175 O 0.5664 0.06012 0.88893 0.0
O176 O 0.60079 0.06725 0.76884 0.0
C177 C 0.57311 0.02955 0.71022 0.0
O178 O 0.56129 0.03041 0.74309 0.0
C179 C 0.59656 0.02683 0.85674 0.0
O180 O 0.59973 0.02063 0.8082 0.0
O181 O 0.56482 0.06022 0.7957 0.0
C182 C 0.68009 0.86036 0.51827 0.0
O183 O 0.69351 0.86555 0.53045 0.0
O184 O 0.70555 0.84039 0.61472 0.0
Zn185 Zn 0.69445 0.83278 0.54628 0.0
O186 O 0.70785 0.8318 0.47854 0.0
C187 C 0.69314 0.80362 0.59761 0.0
O188 O 0.7045 0.8091 0.62615 0.0
O189 O 0.67743 0.84644 0.52477 0.0
C190 C 0.72018 0.82467 0.47541 0.0
O191 O 0.72529 0.81756 0.51974 0.0
C192 C 0.71795 0.84748 0.61342 0.0
O193 O 0.7239 0.85102 0.56478 0.0
O194 O 0.68671 0.81185 0.56126 0.0
C195 C 0.88789 0.93232 0.25973 0.0
O196 O 0.88329 0.94598 0.27163 0.0
O197 O 0.9098 0.95654 0.35768 0.0
Zn198 Zn 0.91613 0.94539 0.2877 0.0
O199 O 0.9171 0.9597 0.22302 0.0
C200 C 0.94231 0.93325 0.34501 0.0
O201 O 0.93375 0.93399 0.38979 0.0
O202 O 0.90168 0.92906 0.26624 0.0
C203 C 0.92014 0.95471 0.17447 0.0
O204 O 0.92264 0.94027 0.16792 0.0
C205 C 0.90421 0.96968 0.3551 0.0
O206 O 0.90178 0.97578 0.30581 0.0
O207 O 0.93693 0.93709 0.29782 0.0
C208 C 0.68107 0.63706 0.51345 0.0
O209 O 0.69552 0.6344 0.50798 0.0
O210 O 0.7051 0.65899 0.6191 0.0
Zn211 Zn 0.69337 0.66448 0.54944 0.0
O212 O 0.70669 0.66478 0.48147 0.0
C213 C 0.68355 0.69188 0.60465 0.0
O214 O 0.68598 0.6842 0.65079 0.0
O215 O 0.67689 0.6496 0.53361 0.0
C216 C 0.71827 0.67305 0.47744 0.0
O217 O 0.72226 0.68146 0.52018 0.0
C218 C 0.71768 0.65222 0.61859 0.0
O219 O 0.7234 0.64786 0.57053 0.0
O220 O 0.68531 0.68547 0.55752 0.0
C221 C 0.61232 0.4345 0.75207 0.0
O222 O 0.61461 0.44902 0.74698 0.0
O223 O 0.59157 0.45643 0.87082 0.0
Zn224 Zn 0.58558 0.44591 0.79921 0.0
O225 O 0.58467 0.46096 0.73669 0.0
C226 C 0.5584 0.43566 0.85472 0.0
O227 O 0.56609 0.43832 0.90063 0.0
O228 O 0.60043 0.42997 0.7763 0.0
C229 C 0.57417 0.47057 0.73282 0.0
O230 O 0.56356 0.47083 0.77112 0.0
C231 C 0.59816 0.46911 0.8708 0.0
O232 O 0.60207 0.47521 0.82281 0.0
O233 O 0.56471 0.43744 0.80741 0.0
C234 C 0.81642 0.36109 0.99332 0.0
O235 O 0.80297 0.36628 0.00508 0.0
O236 O 0.79243 0.34028 0.09756 0.0
Zn237 Zn 0.80218 0.33378 0.02496 0.0
O238 O 0.78691 0.33445 0.96327 0.0
C239 C 0.81336 0.30671 0.0784 0.0
O240 O 0.81395 0.31529 0.12315 0.0
O241 O 0.81917 0.34725 0.00137 0.0
C242 C 0.77645 0.3248 0.95952 0.0
O243 O 0.77551 0.31408 0.99722 0.0
C244 C 0.78028 0.34781 0.09819 0.0
O245 O 0.77439 0.35227 0.05053 0.0
O246 O 0.80914 0.31236 0.03211 0.0
C247 C 0.88988 0.56423 0.22928 0.0
O248 O 0.88754 0.54983 0.22085 0.0
O249 O 0.91167 0.54011 0.33606 0.0
Zn250 Zn 0.91724 0.55199 0.26683 0.0
O251 O 0.91784 0.53886 0.19831 0.0
C252 C 0.9431 0.56478 0.3237 0.0
O253 O 0.93421 0.56464 0.36768 0.0
O254 O 0.90219 0.56836 0.25151 0.0
C255 C 0.92497 0.52653 0.19519 0.0
O256 O 0.93221 0.52152 0.23938 0.0
C257 C 0.90401 0.52804 0.33557 0.0
O258 O 0.89887 0.52288 0.28769 0.0
O259 O 0.93802 0.5604 0.2767 0.0
C260 C 0.68351 0.36205 0.56329 0.0
O261 O 0.69805 0.3645 0.56634 0.0
O262 O 0.70626 0.34142 0.45061 0.0
Zn263 Zn 0.69512 0.33509 0.52049 0.0
O264 O 0.70943 0.33417 0.58561 0.0
C265 C 0.69713 0.30401 0.51201 0.0
O266 O 0.7112 0.30809 0.51883 0.0
O267 O 0.67891 0.34983 0.54165 0.0
C268 C 0.7046 0.33017 0.63343 0.0
O269 O 0.69031 0.32678 0.63929 0.0
C270 C 0.71939 0.34704 0.45295 0.0
O271 O 0.72556 0.34946 0.50212 0.0
O272 O 0.68706 0.31412 0.50954 0.0
C273 C 0.88739 0.42934 0.78344 0.0
O274 O 0.8823 0.44258 0.76808 0.0
O275 O 0.90879 0.45474 0.69086 0.0
Zn276 Zn 0.91547 0.4436 0.76056 0.0
O277 O 0.91603 0.45716 0.82784 0.0
C278 C 0.94519 0.44155 0.71344 0.0
O279 O 0.94009 0.45243 0.68149 0.0
O280 O 0.90141 0.42678 0.78079 0.0
C281 C 0.92396 0.46899 0.83138 0.0
O282 O 0.93198 0.47331 0.78805 0.0
C283 C 0.90221 0.46743 0.69163 0.0
O284 O 0.89858 0.47347 0.73999 0.0
O285 O 0.93648 0.43565 0.74953 0.0
C286 C 0.81447 0.6393 0.0827 0.0
O287 O 0.80007 0.63688 0.09092 0.0
O288 O 0.79039 0.66093 0.97477 0.0
Zn289 Zn 0.80208 0.6665 0.0444 0.0
O290 O 0.78875 0.66689 0.11236 0.0
C291 C 0.81254 0.69354 0.98841 0.0
O292 O 0.81062 0.68558 0.94262 0.0
O293 O 0.81855 0.6516 0.06021 0.0
C294 C 0.77641 0.67401 0.11505 0.0
O295 O 0.77152 0.68129 0.07076 0.0
C296 C 0.7783 0.65331 0.97486 0.0
O297 O 0.77304 0.64813 0.02253 0.0
O298 O 0.8102 0.68745 0.03577 0.0
C299 C 0.60705 0.56405 0.34424 0.0
O300 O 0.60909 0.54953 0.35064 0.0
O301 O 0.58686 0.54224 0.22445 0.0
Zn302 Zn 0.58038 0.55286 0.29531 0.0
O303 O 0.57873 0.53787 0.35787 0.0
C304 C 0.55377 0.56422 0.23803 0.0
O305 O 0.56175 0.5622 0.19233 0.0
O306 O 0.59533 0.56863 0.319 0.0
C307 C 0.57449 0.54237 0.40584 0.0
O308 O 0.57115 0.55663 0.41283 0.0
C309 C 0.59373 0.52972 0.22601 0.0
O310 O 0.59723 0.52387 0.27482 0.0
O311 O 0.55971 0.56158 0.28543 0.0
C312 C 0.3184 0.3615 0.56633 0.0
O313 O 0.30532 0.36688 0.55052 0.0
O314 O 0.29147 0.33998 0.48141 0.0
Zn315 Zn 0.30296 0.33368 0.55066 0.0
O316 O 0.28983 0.33392 0.61907 0.0
C317 C 0.31316 0.3069 0.49293 0.0
O318 O 0.3124 0.31552 0.44832 0.0
O319 O 0.32035 0.34736 0.56698 0.0
C320 C 0.278 0.32601 0.62341 0.0
O321 O 0.27367 0.31775 0.58074 0.0
C322 C 0.27912 0.34718 0.48236 0.0
O323 O 0.27354 0.3515 0.53069 0.0
O324 O 0.31007 0.31243 0.54064 0.0
C325 C 0.40102 0.57868 0.32777 0.0
O326 O 0.41431 0.58439 0.31674 0.0
O327 O 0.40658 0.54002 0.21911 0.0
Zn328 Zn 0.41396 0.55021 0.28939 0.0
O329 O 0.41664 0.53464 0.34988 0.0
C330 C 0.44253 0.55421 0.23703 0.0
O331 O 0.43775 0.54242 0.20914 0.0
O332 O 0.39856 0.56487 0.31777 0.0
C333 C 0.42867 0.5329 0.37782 0.0
O334 O 0.44036 0.54141 0.36681 0.0
C335 C 0.39959 0.52757 0.22028 0.0
O336 O 0.39621 0.52153 0.2689 0.0
O337 O 0.43398 0.56009 0.2737 0.0
C338 C 0.18546 0.63765 0.08639 0.0
O339 O 0.19991 0.63503 0.09238 0.0
O340 O 0.2095 0.65874 0.97782 0.0
Zn341 Zn 0.19783 0.66477 0.04709 0.0
O342 O 0.21113 0.66545 0.11511 0.0
C343 C 0.18791 0.69163 0.98865 0.0
O344 O 0.19054 0.68355 0.94362 0.0
O345 O 0.18133 0.65 0.06453 0.0
C346 C 0.22313 0.67313 0.11851 0.0
O347 O 0.22771 0.68085 0.0748 0.0
C348 C 0.22182 0.65151 0.9784 0.0
O349 O 0.2274 0.64701 0.02653 0.0
O350 O 0.18967 0.68569 0.03665 0.0
C351 C 0.11055 0.43235 0.83458 0.0
O352 O 0.11553 0.44586 0.82231 0.0
O353 O 0.08962 0.45832 0.74249 0.0
Zn354 Zn 0.08258 0.44638 0.8095 0.0
O355 O 0.08187 0.4601 0.87659 0.0
C356 C 0.05677 0.43548 0.74645 0.0
O357 O 0.06579 0.43667 0.70306 0.0
O358 O 0.09662 0.42956 0.82934 0.0
C359 C 0.06966 0.46484 0.89789 0.0
O360 O 0.05681 0.46098 0.87499 0.0
C361 C 0.08181 0.46985 0.73049 0.0
O362 O 0.0701 0.47306 0.76183 0.0
O363 O 0.06176 0.43848 0.79506 0.0
C364 C 0.31994 0.64143 0.50937 0.0
O365 O 0.30578 0.63828 0.49912 0.0
O366 O 0.29457 0.65974 0.62367 0.0
Zn367 Zn 0.3058 0.66705 0.55514 0.0
O368 O 0.29251 0.66772 0.48698 0.0
C369 C 0.30665 0.69655 0.60393 0.0
O370 O 0.29545 0.69103 0.63334 0.0
O371 O 0.32308 0.65337 0.53615 0.0
C372 C 0.28 0.67455 0.48388 0.0
O373 O 0.27473 0.68152 0.52824 0.0
C374 C 0.28239 0.65228 0.62246 0.0
O375 O 0.27679 0.64815 0.57393 0.0
O376 O 0.31323 0.68817 0.56842 0.0
C377 C 0.11097 0.56632 0.26314 0.0
O378 O 0.11286 0.55175 0.2578 0.0
O379 O 0.08963 0.54475 0.38019 0.0
Zn380 Zn 0.08378 0.5556 0.309 0.0
O381 O 0.08246 0.54097 0.24511 0.0
C382 C 0.05468 0.56122 0.35841 0.0
O383 O 0.05981 0.55203 0.39696 0.0
O384 O 0.09914 0.57115 0.28697 0.0
C385 C 0.07206 0.53129 0.24037 0.0
O386 O 0.06166 0.53042 0.27934 0.0
C387 C 0.09491 0.53147 0.38063 0.0
O388 O 0.09778 0.52473 0.33285 0.0
O389 O 0.06318 0.56487 0.31776 0.0
C390 C 0.1808 0.36117 0.03381 0.0
O391 O 0.19424 0.36615 0.04694 0.0
O392 O 0.20612 0.34025 0.12776 0.0
Zn393 Zn 0.19496 0.33327 0.05852 0.0
O394 O 0.20843 0.33276 0.991 0.0
C395 C 0.19339 0.30365 0.10643 0.0
O396 O 0.20437 0.30898 0.13739 0.0
O397 O 0.17803 0.34721 0.03841 0.0
C398 C 0.22069 0.32551 0.9878 0.0
O399 O 0.22557 0.31806 0.03172 0.0
C400 C 0.21856 0.34728 0.12675 0.0
O401 O 0.2244 0.35114 0.07828 0.0
O402 O 0.18723 0.31219 0.07041 0.0
C403 C 0.39016 0.43182 0.76172 0.0
O404 O 0.38533 0.44531 0.77493 0.0
O405 O 0.40927 0.45481 0.8677 0.0
Zn406 Zn 0.41759 0.44485 0.79813 0.0
O407 O 0.41941 0.46014 0.73643 0.0
C408 C 0.44668 0.44406 0.84764 0.0
O409 O 0.44145 0.45636 0.87102 0.0
O410 O 0.40388 0.42857 0.76997 0.0
C411 C 0.42971 0.45946 0.69962 0.0
O412 O 0.4397 0.44862 0.70226 0.0
C413 C 0.40276 0.46752 0.86562 0.0
O414 O 0.40063 0.47395 0.81671 0.0
O415 O 0.43822 0.43665 0.81482 0.0
H416 H 0.10926 0.09375 0.83932 0.0
H417 H 0.13696 0.05738 0.90049 0.0
H418 H 0.12752 0.11189 0.87482 0.0
H419 H 0.15497 0.07546 0.93689 0.0
H420 H 0.19159 0.11125 0.93978 0.0
H421 H 0.1733 0.09341 0.90378 0.0
H422 H 0.1372 0.12164 0.96365 0.0
H423 H 0.15556 0.13973 0.99877 0.0
C424 C 0.11924 0.08963 0.86029 0.0
C425 C 0.12168 0.07412 0.86694 0.0
C426 C 0.12963 0.10002 0.88102 0.0
C427 C 0.14268 0.09512 0.90877 0.0
C428 C 0.14513 0.07961 0.91509 0.0
C429 C 0.13476 0.06924 0.89438 0.0
C430 C 0.17976 0.11366 0.9455 0.0
C431 C 0.17504 0.12692 0.97218 0.0
C432 C 0.16927 0.10338 0.92503 0.0
C433 C 0.15379 0.1061 0.93082 0.0
C434 C 0.14904 0.11931 0.95787 0.0
C435 C 0.15956 0.12962 0.97838 0.0
H436 H 0.1085 0.9011 0.26192 0.0
H437 H 0.13359 0.93845 0.19365 0.0
H438 H 0.12588 0.8836 0.21698 0.0
H439 H 0.15069 0.92101 0.14798 0.0
H440 H 0.18767 0.8861 0.12632 0.0
H441 H 0.1702 0.90323 0.17162 0.0
H442 H 0.13311 0.87467 0.12367 0.0
H443 H 0.15068 0.85727 0.07914 0.0
C444 C 0.11771 0.90558 0.23737 0.0
C445 C 0.11968 0.92117 0.23152 0.0
C446 C 0.12759 0.89555 0.21126 0.0
C447 C 0.13966 0.90091 0.17885 0.0
C448 C 0.14164 0.91651 0.17325 0.0
C449 C 0.13178 0.92651 0.1993 0.0
C450 C 0.17579 0.88346 0.12521 0.0
C451 C 0.17057 0.87031 0.09903 0.0
C452 C 0.16576 0.89334 0.15102 0.0
C453 C 0.15026 0.89033 0.15125 0.0
C454 C 0.14501 0.87721 0.12483 0.0
C455 C 0.15506 0.86731 0.09894 0.0
H456 H 0.38788 0.90459 0.32235 0.0
H457 H 0.36027 0.94148 0.37966 0.0
H458 H 0.3699 0.88678 0.36196 0.0
H459 H 0.34253 0.92373 0.42005 0.0
H460 H 0.30616 0.88781 0.43159 0.0
H461 H 0.32415 0.90526 0.39094 0.0
H462 H 0.36074 0.87809 0.45337 0.0
H463 H 0.34268 0.8604 0.49325 0.0
C464 C 0.37798 0.9089 0.34332 0.0
C465 C 0.37549 0.92445 0.34773 0.0
C466 C 0.36774 0.8987 0.36639 0.0
C467 C 0.35479 0.90384 0.39424 0.0
C468 C 0.35229 0.91939 0.39826 0.0
C469 C 0.3625 0.92957 0.37526 0.0
C470 C 0.31803 0.88556 0.43686 0.0
C471 C 0.32298 0.87271 0.46573 0.0
C472 C 0.32835 0.89561 0.41371 0.0
C473 C 0.34388 0.89307 0.41891 0.0
C474 C 0.34885 0.88026 0.44802 0.0
C475 C 0.3385 0.87019 0.47124 0.0
H476 H 0.35942 0.06834 0.75705 0.0
H477 H 0.39824 0.09414 0.70635 0.0
H478 H 0.34321 0.0853 0.70466 0.0
H479 H 0.38211 0.1108 0.65213 0.0
H480 H 0.34673 0.14592 0.60339 0.0
H481 H 0.36344 0.12982 0.65747 0.0
H482 H 0.33698 0.09107 0.61041 0.0
H483 H 0.31997 0.10727 0.55818 0.0
C484 C 0.36449 0.07765 0.73474 0.0
C485 C 0.38011 0.07988 0.73578 0.0
C486 C 0.35522 0.0873 0.70421 0.0
C487 C 0.36135 0.09932 0.67347 0.0
C488 C 0.37697 0.10175 0.67566 0.0
C489 C 0.38623 0.09218 0.70668 0.0
C490 C 0.34456 0.13394 0.60421 0.0
C491 C 0.33198 0.12787 0.57672 0.0
C492 C 0.35417 0.1247 0.63515 0.0
C493 C 0.3515 0.10914 0.63886 0.0
C494 C 0.33919 0.10304 0.60968 0.0
C495 C 0.3295 0.1123 0.57923 0.0
H496 H 0.84185 0.85459 0.11692 0.0
H497 H 0.81574 0.89308 0.06509 0.0
H498 H 0.85912 0.87108 0.16661 0.0
H499 H 0.83333 0.90966 0.11288 0.0
H500 H 0.85732 0.93399 0.25317 0.0
H501 H 0.84036 0.91689 0.20479 0.0
H502 H 0.87819 0.88938 0.15572 0.0
H503 H 0.89505 0.90617 0.20602 0.0
C504 C 0.83994 0.8666 0.11538 0.0
C505 C 0.8274 0.87253 0.08724 0.0
C506 C 0.84987 0.87608 0.14377 0.0
C507 C 0.84759 0.89172 0.14419 0.0
C508 C 0.83527 0.89765 0.11458 0.0
C509 C 0.82525 0.88816 0.0867 0.0
C510 C 0.86199 0.92422 0.23242 0.0
C511 C 0.87752 0.92143 0.23347 0.0
C512 C 0.85228 0.91448 0.2042 0.0
C513 C 0.8579 0.90181 0.1758 0.0
C514 C 0.87343 0.89891 0.17764 0.0
C515 C 0.88312 0.90857 0.20638 0.0
H516 H 0.89683 0.09245 0.86932 0.0
H517 H 0.85778 0.0671 0.81804 0.0
H518 H 0.88081 0.1093 0.92322 0.0
H519 H 0.8417 0.08424 0.87015 0.0
H520 H 0.81842 0.10669 0.01558 0.0
H521 H 0.83536 0.09021 0.96422 0.0
H522 H 0.86238 0.12856 0.91702 0.0
H523 H 0.84572 0.14495 0.97018 0.0
C524 C 0.8848 0.09061 0.86883 0.0
C525 C 0.87858 0.07839 0.8396 0.0
C526 C 0.8756 0.10031 0.89966 0.0
C527 C 0.85995 0.09807 0.90156 0.0
C528 C 0.85373 0.08611 0.8708 0.0
C529 C 0.86294 0.07635 0.84042 0.0
C530 C 0.82806 0.11158 0.99469 0.0
C531 C 0.8307 0.12713 0.99687 0.0
C532 C 0.8377 0.10215 0.96475 0.0
C533 C 0.85015 0.10806 0.93577 0.0
C534 C 0.85299 0.12358 0.93918 0.0
C535 C 0.84342 0.133 0.9696 0.0
H536 H 0.65616 0.13752 0.57528 0.0
H537 H 0.69295 0.11053 0.6373 0.0
H538 H 0.63828 0.11957 0.61469 0.0
H539 H 0.67514 0.09284 0.67754 0.0
H540 H 0.63928 0.0565 0.69276 0.0
H541 H 0.65683 0.07413 0.65054 0.0
H542 H 0.62932 0.11122 0.70649 0.0
H543 H 0.61152 0.09352 0.74785 0.0
C544 C 0.66043 0.12774 0.59711 0.0
C545 C 0.67598 0.12546 0.60312 0.0
C546 C 0.65019 0.11753 0.6201 0.0
C547 C 0.65528 0.10481 0.64949 0.0
C548 C 0.67083 0.10242 0.65464 0.0
C549 C 0.68105 0.11261 0.63171 0.0
C550 C 0.63698 0.06841 0.6963 0.0
C551 C 0.624 0.0736 0.72373 0.0
C552 C 0.64708 0.07853 0.67221 0.0
C553 C 0.64447 0.09409 0.67505 0.0
C554 C 0.63154 0.09929 0.70288 0.0
C555 C 0.62141 0.08916 0.72699 0.0
H556 H 0.60179 0.90346 0.36605 0.0
H557 H 0.64005 0.92998 0.31456 0.0
H558 H 0.61835 0.88687 0.41868 0.0
H559 H 0.65669 0.91309 0.36536 0.0
H560 H 0.68071 0.89092 0.50996 0.0
H561 H 0.66337 0.90705 0.45897 0.0
H562 H 0.63724 0.86813 0.41144 0.0
H563 H 0.65428 0.85208 0.46428 0.0
C564 C 0.61377 0.9056 0.3652 0.0
C565 C 0.61961 0.91808 0.33634 0.0
C566 C 0.62329 0.89606 0.3953 0.0
C567 C 0.63887 0.8987 0.39678 0.0
C568 C 0.64472 0.91091 0.36631 0.0
C569 C 0.6352 0.92053 0.33669 0.0
C570 C 0.67118 0.88583 0.48904 0.0
C571 C 0.66888 0.87023 0.49111 0.0
C572 C 0.66131 0.89506 0.45931 0.0
C573 C 0.64898 0.8889 0.43042 0.0
C574 C 0.64651 0.8733 0.43358 0.0
C575 C 0.65631 0.86408 0.4638 0.0
H576 H 0.65033 0.63933 0.51355 0.0
H577 H 0.68673 0.61006 0.46392 0.0
H578 H 0.63227 0.62167 0.4735 0.0
H579 H 0.66878 0.59267 0.42295 0.0
H580 H 0.63202 0.55759 0.40578 0.0
H581 H 0.64944 0.57509 0.44934 0.0
H582 H 0.62414 0.61241 0.38207 0.0
H583 H 0.60644 0.59484 0.33939 0.0
C584 C 0.65447 0.62913 0.49426 0.0
C585 C 0.66997 0.6261 0.492 0.0
C586 C 0.64414 0.61907 0.47091 0.0
C587 C 0.64908 0.60578 0.44489 0.0
C588 C 0.66457 0.6027 0.4433 0.0
C589 C 0.67487 0.61272 0.46663 0.0
C590 C 0.63017 0.56952 0.40011 0.0
C591 C 0.61786 0.57482 0.36896 0.0
C592 C 0.6402 0.57957 0.42495 0.0
C593 C 0.6382 0.59515 0.41914 0.0
C594 C 0.62589 0.60047 0.38795 0.0
C595 C 0.61582 0.5904 0.36312 0.0
H596 H 0.61101 0.4037 0.75289 0.0
H597 H 0.63747 0.44097 0.6915 0.0
H598 H 0.6281 0.38616 0.70657 0.0
H599 H 0.65424 0.42353 0.64429 0.0
H600 H 0.69026 0.388 0.6183 0.0
H601 H 0.67313 0.40512 0.66522 0.0
H602 H 0.63547 0.37782 0.61319 0.0
H603 H 0.65273 0.36039 0.56719 0.0
C604 C 0.62046 0.40815 0.72958 0.0
C605 C 0.6229 0.42373 0.72606 0.0
C606 C 0.63018 0.39811 0.70265 0.0
C607 C 0.64253 0.40344 0.67164 0.0
C608 C 0.64497 0.41902 0.66844 0.0
C609 C 0.6353 0.42903 0.6954 0.0
C610 C 0.67833 0.38565 0.61657 0.0
C611 C 0.67287 0.37283 0.5889 0.0
C612 C 0.66849 0.39552 0.64335 0.0
C613 C 0.65292 0.39286 0.64297 0.0
C614 C 0.64742 0.38009 0.6149 0.0
C615 C 0.6573 0.37017 0.58814 0.0
H616 H 0.85672 0.42971 0.78485 0.0
H617 H 0.89498 0.40422 0.84305 0.0
H618 H 0.83995 0.41285 0.83532 0.0
H619 H 0.87827 0.38768 0.89529 0.0
H620 H 0.8426 0.35272 0.94182 0.0
H621 H 0.8597 0.36857 0.88825 0.0
H622 H 0.83271 0.40747 0.92899 0.0
H623 H 0.81535 0.39153 0.98073 0.0
C624 C 0.86155 0.42049 0.80836 0.0
C625 C 0.87717 0.41833 0.81004 0.0
C626 C 0.85195 0.41089 0.83777 0.0
C627 C 0.85775 0.399 0.87005 0.0
C628 C 0.87337 0.39662 0.87051 0.0
C629 C 0.88297 0.40614 0.84063 0.0
C630 C 0.84038 0.36468 0.93964 0.0
C631 C 0.82759 0.37087 0.96535 0.0
C632 C 0.85021 0.37378 0.909 0.0
C633 C 0.84754 0.3893 0.90379 0.0
C634 C 0.83495 0.39552 0.93094 0.0
C635 C 0.82506 0.3864 0.96111 0.0
H636 H 0.8452 0.64087 0.07543 0.0
H637 H 0.80904 0.61281 0.13624 0.0
H638 H 0.86349 0.62283 0.11157 0.0
H639 H 0.82725 0.59505 0.17326 0.0
H640 H 0.86323 0.55873 0.17703 0.0
H641 H 0.84535 0.57689 0.14044 0.0
H642 H 0.87325 0.61321 0.20061 0.0
H643 H 0.8914 0.59497 0.23633 0.0
C644 C 0.84115 0.63087 0.09646 0.0
C645 C 0.82567 0.62825 0.10278 0.0
C646 C 0.85163 0.6206 0.11755 0.0
C647 C 0.84682 0.60751 0.14534 0.0
C648 C 0.83133 0.60491 0.15141 0.0
C649 C 0.82089 0.61514 0.13034 0.0
C650 C 0.86556 0.57058 0.1827 0.0
C651 C 0.87874 0.5754 0.20966 0.0
C652 C 0.85526 0.581 0.16188 0.0
C653 C 0.85786 0.5965 0.16761 0.0
C654 C 0.87101 0.60134 0.19489 0.0
C655 C 0.88134 0.59089 0.21575 0.0
H656 H 0.3439 0.35379 0.62337 0.0
H657 H 0.31896 0.39215 0.56276 0.0
H658 H 0.36143 0.37054 0.67059 0.0
H659 H 0.3368 0.40893 0.60829 0.0
H660 H 0.35975 0.43385 0.75019 0.0
H661 H 0.34306 0.41674 0.70079 0.0
H662 H 0.38098 0.38857 0.65833 0.0
H663 H 0.3976 0.40547 0.70954 0.0
C664 C 0.34231 0.36581 0.61932 0.0
C665 C 0.32998 0.37165 0.58961 0.0
C666 C 0.3524 0.37543 0.64628 0.0
C667 C 0.35047 0.3911 0.64375 0.0
C668 C 0.33844 0.39691 0.61223 0.0
C669 C 0.32828 0.3873 0.58569 0.0
C670 C 0.36452 0.42397 0.73054 0.0
C671 C 0.37999 0.42102 0.7338 0.0
C672 C 0.35497 0.41421 0.70175 0.0
C673 C 0.36068 0.40133 0.67504 0.0
C674 C 0.37616 0.3983 0.67885 0.0
C675 C 0.3857 0.408 0.7081 0.0
H676 H 0.31672 0.61704 0.44139 0.0
H677 H 0.3504 0.64427 0.52325 0.0
H678 H 0.33635 0.60218 0.39747 0.0
H679 H 0.37013 0.62904 0.48048 0.0
H680 H 0.40104 0.6091 0.34546 0.0
H681 H 0.38157 0.62415 0.39071 0.0
H682 H 0.35518 0.58402 0.41793 0.0
H683 H 0.37434 0.56913 0.37127 0.0
C684 C 0.32833 0.61975 0.45057 0.0
C685 C 0.33199 0.63185 0.48583 0.0
C686 C 0.33961 0.61117 0.42553 0.0
C687 C 0.35484 0.6144 0.43539 0.0
C688 C 0.35852 0.62639 0.47131 0.0
C689 C 0.34721 0.63504 0.4962 0.0
C690 C 0.39105 0.60352 0.36097 0.0
C691 C 0.38921 0.58793 0.3545 0.0
C692 C 0.37994 0.61212 0.3873 0.0
C693 C 0.36679 0.6053 0.408 0.0
C694 C 0.36503 0.58969 0.40168 0.0
C695 C 0.37606 0.58113 0.37507 0.0
H696 H 0.13622 0.55928 0.20401 0.0
H697 H 0.11052 0.59714 0.26476 0.0
H698 H 0.15378 0.57636 0.15887 0.0
H699 H 0.12837 0.61429 0.22052 0.0
H700 H 0.15472 0.63993 0.08576 0.0
H701 H 0.13662 0.62268 0.12811 0.0
H702 H 0.17308 0.59417 0.18282 0.0
H703 H 0.19107 0.61114 0.13958 0.0
C704 C 0.13438 0.57126 0.20817 0.0
C705 C 0.12198 0.57684 0.23812 0.0
C706 C 0.1445 0.58106 0.18241 0.0
C707 C 0.14249 0.5967 0.18607 0.0
C708 C 0.13012 0.6023 0.21625 0.0
C709 C 0.11997 0.59247 0.242 0.0
C710 C 0.15884 0.62992 0.10647 0.0
C711 C 0.17433 0.6269 0.10922 0.0
C712 C 0.14848 0.6201 0.13114 0.0
C713 C 0.1534 0.60707 0.15901 0.0
C714 C 0.16888 0.604 0.1611 0.0
C715 C 0.17921 0.61378 0.13645 0.0
H716 H 0.10284 0.4062 0.88743 0.0
H717 H 0.14117 0.43326 0.84068 0.0
H718 H 0.11933 0.38903 0.93763 0.0
H719 H 0.15775 0.41578 0.889 0.0
H720 H 0.18161 0.39179 0.03005 0.0
H721 H 0.16441 0.40857 0.9814 0.0
H722 H 0.13812 0.37035 0.92756 0.0
H723 H 0.15503 0.35364 0.97811 0.0
C724 C 0.11482 0.40835 0.88711 0.0
C725 C 0.1207 0.42113 0.86027 0.0
C726 C 0.1243 0.39847 0.9158 0.0
C727 C 0.13988 0.40106 0.91785 0.0
C728 C 0.14577 0.41361 0.88947 0.0
C729 C 0.13628 0.42357 0.86127 0.0
C730 C 0.17208 0.38699 0.00824 0.0
C731 C 0.16969 0.37139 0.00791 0.0
C732 C 0.16229 0.3966 0.97984 0.0
C733 C 0.14995 0.39083 0.94991 0.0
C734 C 0.1474 0.37522 0.95059 0.0
C735 C 0.15712 0.36562 0.97949 0.0
H736 H 0.25251 0.18344 0.93835 0.0
H737 H 0.21411 0.16431 0.85342 0.0
H738 H 0.26631 0.18388 0.84969 0.0
H739 H 0.22789 0.16485 0.76505 0.0
H740 H 0.25263 0.1842 0.60989 0.0
H741 H 0.23873 0.18459 0.6984 0.0
H742 H 0.2765 0.16407 0.78225 0.0
H743 H 0.29036 0.16358 0.69412 0.0
C744 C 0.24701 0.17937 0.90082 0.0
C745 C 0.23224 0.17381 0.9029 0.0
C746 C 0.25492 0.17958 0.85019 0.0
C747 C 0.24814 0.17442 0.8006 0.0
C748 C 0.23333 0.16902 0.80257 0.0
C749 C 0.22549 0.16862 0.85325 0.0
C750 C 0.25796 0.17978 0.64722 0.0
C751 C 0.27257 0.17384 0.645 0.0
C752 C 0.24999 0.17996 0.69775 0.0
C753 C 0.25658 0.17439 0.7471 0.0
C754 C 0.27122 0.16857 0.74494 0.0
C755 C 0.2791 0.1682 0.69438 0.0
H756 H 0.07254 0.0011 0.24305 0.0
H757 H 0.07289 0.96094 0.1413 0.0
H758 H 0.07089 0.01649 0.15801 0.0
H759 H 0.07092 0.97631 0.05678 0.0
H760 H 0.05017 0.01016 0.9287 0.0
H761 H 0.05063 0.99547 0.01549 0.0
H762 H 0.08965 0.02013 0.07084 0.0
H763 H 0.08944 0.03462 0.9837 0.0
C764 C 0.07214 0.99557 0.20264 0.0
C765 C 0.07288 0.97984 0.19872 0.0
C766 C 0.07125 0.00436 0.15414 0.0
C767 C 0.07075 0.99753 0.10112 0.0
C768 C 0.07119 0.98181 0.09727 0.0
C769 C 0.0724 0.97305 0.14558 0.0
C770 C 0.05882 0.01247 0.95946 0.0
C771 C 0.0698 0.02348 0.9494 0.0
C772 C 0.05909 0.00405 0.00891 0.0
C773 C 0.07015 0.00674 0.04964 0.0
C774 C 0.08096 0.01795 0.04014 0.0
C775 C 0.08088 0.02614 0.99022 0.0
H776 H 0.20864 0.80123 0.214 0.0
H777 H 0.22672 0.84383 0.15907 0.0
H778 H 0.22506 0.80184 0.29571 0.0
H779 H 0.2427 0.84474 0.24161 0.0
H780 H 0.28015 0.83503 0.36447 0.0
H781 H 0.26421 0.83346 0.282 0.0
H782 H 0.22855 0.81451 0.38285 0.0
H783 H 0.24477 0.81556 0.46511 0.0
C784 C 0.21608 0.81075 0.2195 0.0
C785 C 0.21641 0.82246 0.18001 0.0
C786 C 0.22542 0.81116 0.26656 0.0
C787 C 0.23521 0.82335 0.27539 0.0
C788 C 0.23551 0.83505 0.23575 0.0
C789 C 0.22628 0.83457 0.18849 0.0
C790 C 0.26891 0.83051 0.36907 0.0
C791 C 0.26371 0.82543 0.42134 0.0
C792 C 0.25973 0.82969 0.32179 0.0
C793 C 0.24506 0.82391 0.3257 0.0
C794 C 0.23986 0.81882 0.37808 0.0
C795 C 0.24912 0.81951 0.42535 0.0
H796 H 0.43526 -0.00027 0.7025 0.0
H797 H 0.41648 0.03838 0.61807 0.0
H798 H 0.43543 0.98597 0.61372 0.0
H799 H 0.41672 0.02464 0.52971 0.0
H800 H 0.43477 0.0001 0.37329 0.0
H801 H 0.43593 0.01373 0.4622 0.0
H802 H 0.41559 0.97594 0.54667 0.0
H803 H 0.41436 0.96233 0.45811 0.0
C804 C 0.43121 0.00529 0.66507 0.0
C805 C 0.42582 0.02012 0.66735 0.0
C806 C 0.43126 0.9974 0.61436 0.0
C807 C 0.42612 0.00427 0.56489 0.0
C808 C 0.4209 0.01913 0.56709 0.0
C809 C 0.42066 0.02695 0.6178 0.0
C810 C 0.43059 0.9947 0.41085 0.0
C811 C 0.42444 0.98016 0.40863 0.0
C812 C 0.4312 0.00251 0.46164 0.0
C813 C 0.42586 0.99587 0.51127 0.0
C814 C 0.41992 0.98127 0.50916 0.0
C815 C 0.41913 0.97354 0.45835 0.0
H816 H 0.74852 0.81434 0.12818 0.0
H817 H 0.78603 0.83568 0.21123 0.0
H818 H 0.73489 0.81354 0.21719 0.0
H819 H 0.77242 0.83481 0.29989 0.0
H820 H 0.74908 0.8153 0.4571 0.0
H821 H 0.76276 0.81503 0.36812 0.0
H822 H 0.72374 0.83289 0.2838 0.0
H823 H 0.71009 0.83324 0.37238 0.0
C824 C 0.75386 0.81883 0.16537 0.0
C825 C 0.76833 0.82511 0.16263 0.0
C826 C 0.74604 0.81842 0.21621 0.0
C827 C 0.75263 0.82409 0.26538 0.0
C828 C 0.76714 0.83022 0.26274 0.0
C829 C 0.77488 0.83081 0.21186 0.0
C830 C 0.74343 0.81914 0.41956 0.0
C831 C 0.72853 0.82433 0.42181 0.0
C832 C 0.75127 0.81904 0.36874 0.0
C833 C 0.74429 0.82392 0.31913 0.0
C834 C 0.72934 0.82893 0.3213 0.0
C835 C 0.72157 0.82922 0.37213 0.0
H836 H 0.94317 0.00305 0.86928 0.0
H837 H 0.90333 0.02523 0.9318 0.0
H838 H 0.94223 0.98553 0.94788 0.0
H839 H 0.90226 0.00758 0.0096 0.0
H840 H 0.91543 0.98503 0.17418 0.0
H841 H 0.91646 0.00208 0.09449 0.0
H842 H 0.92702 0.96483 0.98525 0.0
H843 H 0.92627 0.94776 0.06521 0.0
C844 C 0.93417 0.00413 0.89956 0.0
C845 C 0.92337 0.01557 0.89444 0.0
C846 C 0.93359 0.99405 0.94442 0.0
C847 C 0.9222 0.99521 0.98505 0.0
C848 C 0.9113 0.00654 0.97947 0.0
C849 C 0.91188 0.0166 0.93468 0.0
C850 C 0.91799 0.98046 0.1332 0.0
C851 C 0.92077 0.96504 0.12602 0.0
C852 C 0.91849 0.99023 0.08747 0.0
C853 C 0.92177 0.98479 0.03355 0.0
C854 C 0.92461 0.96938 0.02638 0.0
C855 C 0.9241 0.95959 0.07215 0.0
H856 H 0.78091 0.15438 0.89553 0.0
H857 H 0.76398 0.19851 0.93752 0.0
H858 H 0.76585 0.15441 0.81042 0.0
H859 H 0.7487 0.1984 0.85258 0.0
H860 H 0.73682 0.19925 0.66507 0.0
H861 H 0.75205 0.19936 0.75006 0.0
H862 H 0.7394 0.1533 0.78244 0.0
H863 H 0.72437 0.15308 0.69718 0.0
C864 C 0.77392 0.16407 0.88675 0.0
C865 C 0.77365 0.17645 0.9233 0.0
C866 C 0.76523 0.16404 0.83809 0.0
C867 C 0.75609 0.17641 0.82481 0.0
C868 C 0.75578 0.18879 0.86138 0.0
C869 C 0.76445 0.1888 0.9102 0.0
C870 C 0.73732 0.18913 0.69023 0.0
C871 C 0.7294 0.17615 0.67433 0.0
C872 C 0.74596 0.18924 0.7391 0.0
C873 C 0.7469 0.17635 0.77297 0.0
C874 C 0.73904 0.16335 0.75689 0.0
C875 C 0.73037 0.16326 0.70814 0.0
H876 H 0.59569 0.02539 0.63436 0.0
H877 H 0.54986 0.01248 0.6705 0.0
H878 H 0.59508 0.01045 0.54897 0.0
H879 H 0.54937 0.99729 0.58538 0.0
H880 H 0.54908 0.98513 0.39837 0.0
H881 H 0.54957 0.00048 0.48309 0.0
H882 H 0.59418 0.98417 0.5205 0.0
H883 H 0.59383 0.96906 0.43552 0.0
C884 C 0.58551 0.0193 0.62426 0.0
C885 C 0.57282 0.02012 0.65925 0.0
C886 C 0.58519 0.01068 0.57542 0.0
C887 C 0.57218 0.00269 0.56042 0.0
C888 C 0.5595 0.00347 0.59546 0.0
C889 C 0.55982 0.01209 0.64442 0.0
C890 C 0.55901 0.98487 0.42456 0.0
C891 C 0.57141 0.97589 0.41018 0.0
C892 C 0.55925 0.99358 0.47329 0.0
C893 C 0.5719 0.99351 0.50853 0.0
C894 C 0.58433 0.98461 0.49389 0.0
C895 C 0.58409 0.97589 0.44528 0.0
H896 H 0.74622 0.68491 0.45937 0.0
H897 H 0.7097 0.66207 0.37568 0.0
H898 H 0.76027 0.68552 0.37125 0.0
H899 H 0.72372 0.6628 0.28784 0.0
H900 H 0.74729 0.68286 0.13136 0.0
H901 H 0.7332 0.68296 0.21945 0.0
H902 H 0.77211 0.6658 0.30642 0.0
H903 H 0.78617 0.66557 0.21865 0.0
C904 C 0.74119 0.68005 0.42223 0.0
C905 C 0.72688 0.67342 0.42448 0.0
C906 C 0.74925 0.68036 0.37193 0.0
C907 C 0.74304 0.67424 0.32283 0.0
C908 C 0.72869 0.66772 0.32498 0.0
C909 C 0.72073 0.66722 0.37537 0.0
C910 C 0.75283 0.67913 0.16928 0.0
C911 C 0.76782 0.67419 0.16806 0.0
C912 C 0.74475 0.67913 0.21957 0.0
C913 C 0.7516 0.67441 0.26963 0.0
C914 C 0.76662 0.66962 0.2685 0.0
C915 C 0.77462 0.66941 0.21817 0.0
H916 H 0.58084 0.51234 0.40538 0.0
H917 H 0.56655 0.54847 0.51415 0.0
H918 H 0.58024 0.49502 0.48436 0.0
H919 H 0.56624 0.53116 0.59339 0.0
H920 H 0.55308 0.49209 0.70952 0.0
H921 H 0.55262 0.50934 0.62999 0.0
H922 H 0.59441 0.49055 0.56995 0.0
H923 H 0.59474 0.47316 0.64859 0.0
C924 C 0.57758 0.51659 0.44614 0.0
C925 C 0.57378 0.53179 0.45352 0.0
C926 C 0.57732 0.50668 0.49146 0.0
C927 C 0.57326 0.51173 0.54518 0.0
C928 C 0.56927 0.52689 0.55242 0.0
C929 C 0.56953 0.53682 0.50706 0.0
C930 C 0.56216 0.49164 0.67933 0.0
C931 C 0.57393 0.48123 0.68531 0.0
C932 C 0.56193 0.50157 0.63393 0.0
C933 C 0.57345 0.50127 0.59358 0.0
C934 C 0.58524 0.4909 0.59981 0.0
C935 C 0.58548 0.481 0.64512 0.0
H936 H 0.73477 0.33568 0.63427 0.0
H937 H 0.69788 0.32263 0.74166 0.0
H938 H 0.7519 0.33417 0.71357 0.0
H939 H 0.715 0.32142 0.82132 0.0
H940 H 0.7535 0.30535 0.93558 0.0
H941 H 0.73602 0.30652 0.85691 0.0
H942 H 0.75718 0.34749 0.80008 0.0
H943 H 0.7748 0.34618 0.87781 0.0
C944 C 0.7303 0.33255 0.67485 0.0
C945 C 0.71496 0.32929 0.68169 0.0
C946 C 0.74011 0.33176 0.72037 0.0
C947 C 0.7348 0.32773 0.77378 0.0
C948 C 0.71946 0.32441 0.78058 0.0
C949 C 0.70964 0.32518 0.735 0.0
C950 C 0.7544 0.31461 0.90632 0.0
C951 C 0.76558 0.32563 0.91281 0.0
C952 C 0.74434 0.31532 0.86142 0.0
C953 C 0.74525 0.32707 0.82215 0.0
C954 C 0.75634 0.33816 0.82908 0.0
C955 C 0.76639 0.33745 0.87385 0.0
H956 H 0.93436 0.49763 0.17758 0.0
H957 H 0.91605 0.53635 0.09217 0.0
H958 H 0.93447 0.48374 0.08913 0.0
H959 H 0.91625 0.52248 0.00403 0.0
H960 H 0.93508 0.49727 0.84917 0.0
H961 H 0.93572 0.51121 0.9375 0.0
H962 H 0.91448 0.47389 0.02177 0.0
H963 H 0.91374 0.45998 0.93376 0.0
C964 C 0.9304 0.50318 0.13999 0.0
C965 C 0.92517 0.51807 0.14188 0.0
C966 C 0.93041 0.49522 0.08948 0.0
C967 C 0.92539 0.50206 0.03982 0.0
C968 C 0.92031 0.51699 0.0416 0.0
C969 C 0.92012 0.52488 0.09216 0.0
C970 C 0.93055 0.49205 0.88654 0.0
C971 C 0.92434 0.47755 0.88447 0.0
C972 C 0.93088 0.50004 0.93698 0.0
C973 C 0.92518 0.49359 0.9864 0.0
C974 C 0.91907 0.47906 0.9844 0.0
C975 C 0.91857 0.47116 0.93391 0.0
H976 H 0.2498 0.31488 0.64226 0.0
H977 H 0.28709 0.33668 0.72507 0.0
H978 H 0.23598 0.31445 0.73086 0.0
H979 H 0.27329 0.33614 0.81343 0.0
H980 H 0.24966 0.31627 0.97033 0.0
H981 H 0.26355 0.31616 0.88179 0.0
H982 H 0.22473 0.33417 0.79663 0.0
H983 H 0.21087 0.33439 0.88481 0.0
C984 C 0.25504 0.31956 0.67931 0.0
C985 C 0.26951 0.32584 0.67666 0.0
C986 C 0.24712 0.31936 0.7299 0.0
C987 C 0.2536 0.32524 0.77892 0.0
C988 C 0.2681 0.33141 0.77636 0.0
C989 C 0.27594 0.3318 0.72568 0.0
C990 C 0.2441 0.32019 0.9327 0.0
C991 C 0.22919 0.32536 0.93456 0.0
C992 C 0.25206 0.32018 0.88216 0.0
C993 C 0.24518 0.32513 0.83246 0.0
C994 C 0.23025 0.33017 0.83425 0.0
C995 C 0.22236 0.33038 0.88482 0.0
H996 H 0.45279 0.52541 0.44326 0.0
H997 H 0.40582 0.51525 0.41663 0.0
H998 H 0.45337 0.50771 0.52148 0.0
H999 H 0.40648 0.49753 0.49439 0.0
H1000 H 0.40903 0.48121 0.67585 0.0
H1001 H 0.40917 0.49884 0.59773 0.0
H1002 H 0.45118 0.48016 0.5397 0.0
H1003 H 0.45114 0.46255 0.6182 0.0
C1004 C 0.44262 0.51936 0.45389 0.0
C1005 C 0.42925 0.52178 0.42385 0.0
C1006 C 0.44297 0.50919 0.49852 0.0
C1007 C 0.42995 0.50131 0.51419 0.0
C1008 C 0.41663 0.50361 0.48376 0.0
C1009 C 0.41629 0.5137 0.439 0.0
C1010 C 0.41833 0.48088 0.64658 0.0
C1011 C 0.43006 0.47045 0.65314 0.0
C1012 C 0.41836 0.49092 0.60164 0.0
C1013 C 0.43015 0.49082 0.56246 0.0
C1014 C 0.442 0.48056 0.56947 0.0
C1015 C 0.44193 0.47043 0.61427 0.0
H1016 H 0.29011 0.6658 0.38098 0.0
H1017 H 0.25101 0.68358 0.46564 0.0
H1018 H 0.27639 0.66587 0.29254 0.0
H1019 H 0.23728 0.68358 0.37686 0.0
H1020 H 0.21394 0.66295 0.22077 0.0
H1021 H 0.22768 0.66375 0.3091 0.0
H1022 H 0.26511 0.68504 0.22568 0.0
H1023 H 0.25136 0.68431 0.137 0.0
C1024 C 0.27859 0.66973 0.38074 0.0
C1025 C 0.27163 0.67467 0.43036 0.0
C1026 C 0.27078 0.66985 0.33 0.0
C1027 C 0.2558 0.67474 0.32788 0.0
C1028 C 0.2488 0.67965 0.37744 0.0
C1029 C 0.25668 0.67971 0.42816 0.0
C1030 C 0.2251 0.6678 0.22116 0.0
C1031 C 0.23158 0.67356 0.17185 0.0
C1032 C 0.23291 0.66835 0.27185 0.0
C1033 C 0.24743 0.67448 0.27421 0.0
C1034 C 0.25396 0.68016 0.22491 0.0
C1035 C 0.24607 0.67979 0.17426 0.0
H1036 H 0.09135 0.53108 0.15153 0.0
H1037 H 0.05188 0.50889 0.21724 0.0
H1038 H 0.09057 0.51503 0.06917 0.0
H1039 H 0.05131 0.49254 0.13513 0.0
H1040 H 0.0458 0.47777 0.95169 0.0
H1041 H 0.04633 0.49367 0.03487 0.0
H1042 H 0.09464 0.48916 0.04243 0.0
H1043 H 0.09416 0.47357 0.95865 0.0
C1044 C 0.08255 0.52271 0.14859 0.0
C1045 C 0.07167 0.52127 0.19096 0.0
C1046 C 0.08216 0.51344 0.10146 0.0
C1047 C 0.0709 0.50248 0.09562 0.0
C1048 C 0.06003 0.501 0.13807 0.0
C1049 C 0.06041 0.51031 0.18526 0.0
C1050 C 0.05654 0.48018 0.97107 0.0
C1051 C 0.06994 0.47445 0.94843 0.0
C1052 C 0.05683 0.48921 0.01897 0.0
C1053 C 0.07053 0.49269 0.04527 0.0
C1054 C 0.08392 0.48688 0.02272 0.0
C1055 C 0.08363 0.47788 0.97482 0.0
H1056 H 0.18459 0.21242 0.00316 0.0
H1057 H 0.18424 0.20802 0.18354 0.0
H1058 H 0.18325 0.2396 0.01226 0.0
H1059 H 0.1826 0.23529 0.19258 0.0
H1060 H 0.20477 0.28252 0.17755 0.0
H1061 H 0.20043 0.25555 0.17589 0.0
H1062 H 0.16843 0.26123 0.04144 0.0
H1063 H 0.17299 0.28828 0.04233 0.0
C1064 C 0.18394 0.21723 0.04479 0.0
C1065 C 0.18471 0.20805 0.09264 0.0
C1066 C 0.18307 0.23283 0.04999 0.0
C1067 C 0.18293 0.23962 0.10317 0.0
C1068 C 0.18292 0.2304 0.15103 0.0
C1069 C 0.18378 0.21477 0.14582 0.0
C1070 C 0.19667 0.27807 0.14804 0.0
C1071 C 0.18935 0.28754 0.10966 0.0
C1072 C 0.19409 0.26259 0.14739 0.0
C1073 C 0.18413 0.25622 0.10834 0.0
C1074 C 0.17632 0.26577 0.07154 0.0
C1075 C 0.17889 0.28128 0.07223 0.0
H1076 H 0.03292 0.94868 0.43608 0.0
H1077 H 0.03858 0.91875 0.29502 0.0
H1078 H 0.00604 0.94386 0.43551 0.0
H1079 H 0.01161 0.91369 0.2952 0.0
H1080 H 0.96287 0.93088 0.26059 0.0
H1081 H 0.99001 0.92896 0.26916 0.0
H1082 H 0.98576 0.92586 0.44916 0.0
H1083 H 0.9585 0.92808 0.4407 0.0
C1084 C 0.02847 0.94085 0.40557 0.0
C1085 C 0.03787 0.93426 0.3651 0.0
C1086 C 0.01305 0.93799 0.40555 0.0
C1087 C 0.00666 0.92847 0.36505 0.0
C1088 C 0.01617 0.92124 0.32644 0.0
C1089 C 0.03163 0.92409 0.32651 0.0
C1090 C 0.96768 0.92957 0.302 0.0
C1091 C 0.95853 0.92984 0.35003 0.0
C1092 C 0.98326 0.92835 0.30687 0.0
C1093 C 0.99006 0.92737 0.35988 0.0
C1094 C 0.98086 0.92682 0.40777 0.0
C1095 C 0.96524 0.92802 0.40289 0.0
H1096 H 0.31519 0.78828 0.50643 0.0
H1097 H 0.31448 0.7919 0.68704 0.0
H1098 H 0.31674 0.76108 0.51403 0.0
H1099 H 0.31633 0.76461 0.69458 0.0
H1100 H 0.29457 0.7173 0.67496 0.0
H1101 H 0.29868 0.74431 0.6751 0.0
H1102 H 0.33163 0.73944 0.54331 0.0
H1103 H 0.32731 0.71235 0.5424 0.0
C1104 C 0.31565 0.7833 0.5478 0.0
C1105 C 0.31452 0.79226 0.59613 0.0
C1106 C 0.31664 0.76768 0.55215 0.0
C1107 C 0.31654 0.76067 0.60492 0.0
C1108 C 0.3162 0.76968 0.65331 0.0
C1109 C 0.31523 0.78532 0.64897 0.0
C1110 C 0.30283 0.72195 0.64643 0.0
C1111 C 0.31049 0.71268 0.60826 0.0
C1112 C 0.30527 0.73744 0.64682 0.0
C1113 C 0.31544 0.74404 0.60904 0.0
C1114 C 0.32358 0.73471 0.57244 0.0
C1115 C 0.32115 0.71918 0.57211 0.0
H1116 H 0.46716 0.04413 0.91573 0.0
H1117 H 0.46265 0.0766 0.78206 0.0
H1118 H 0.49405 0.04885 0.91911 0.0
H1119 H 0.48962 0.08154 0.78627 0.0
H1120 H 0.53913 0.06624 0.75574 0.0
H1121 H 0.51186 0.06731 0.75998 0.0
H1122 H 0.51377 0.06682 0.94087 0.0
H1123 H 0.54114 0.06544 0.93669 0.0
C1124 C 0.47187 0.05246 0.88762 0.0
C1125 C 0.46278 0.05987 0.84821 0.0
C1126 C 0.48729 0.05525 0.88989 0.0
C1127 C 0.494 0.06554 0.85281 0.0
C1128 C 0.48481 0.07341 0.81492 0.0
C1129 C 0.46936 0.07062 0.81267 0.0
C1130 C 0.53377 0.0666 0.79648 0.0
C1131 C 0.54231 0.06556 0.84588 0.0
C1132 C 0.51811 0.06731 0.7989 0.0
C1133 C 0.51062 0.06702 0.85077 0.0
C1134 C 0.5192 0.06682 0.90025 0.0
C1135 C 0.53489 0.06611 0.89783 0.0
H1136 H 0.2073 0.78295 0.91686 0.0
H1137 H 0.17113 0.78787 0.03638 0.0
H1138 H 0.20305 0.75597 0.91425 0.0
H1139 H 0.16674 0.76076 0.03315 0.0
H1140 H 0.18228 0.71154 0.07333 0.0
H1141 H 0.18099 0.73881 0.06689 0.0
H1142 H 0.18548 0.73603 0.88695 0.0
H1143 H 0.18699 0.70871 0.89336 0.0
C1144 C 0.19828 0.7783 0.94198 0.0
C1145 C 0.18964 0.78754 0.97719 0.0
C1146 C 0.19577 0.76283 0.94014 0.0
C1147 C 0.18458 0.75621 0.97361 0.0
C1148 C 0.17554 0.76552 0.0073 0.0
C1149 C 0.17801 0.78104 0.00892 0.0
C1150 C 0.18277 0.71671 0.03228 0.0
C1151 C 0.18492 0.70795 0.98391 0.0
C1152 C 0.18193 0.73236 0.02857 0.0
C1153 C 0.18326 0.73959 0.97644 0.0
C1154 C 0.18464 0.73078 0.9278 0.0
C1155 C 0.18543 0.71512 0.93147 0.0
H1156 H 0.46317 0.9534 0.15451 0.0
H1157 H 0.45774 0.92277 0.29364 0.0
H1158 H 0.48987 0.94776 0.15156 0.0
H1159 H 0.48452 0.91689 0.28991 0.0
H1160 H 0.53442 0.93124 0.31794 0.0
H1161 H 0.50713 0.93092 0.31377 0.0
H1162 H 0.5091 0.92895 0.13301 0.0
H1163 H 0.5365 0.92957 0.13708 0.0
C1164 C 0.46762 0.94526 0.18391 0.0
C1165 C 0.45835 0.93866 0.22473 0.0
C1166 C 0.48294 0.94194 0.18191 0.0
C1167 C 0.48935 0.93193 0.22068 0.0
C1168 C 0.47995 0.9248 0.25993 0.0
C1169 C 0.4646 0.92812 0.2619 0.0
C1170 C 0.52906 0.93052 0.27728 0.0
C1171 C 0.53764 0.93062 0.2278 0.0
C1172 C 0.51339 0.93023 0.27492 0.0
C1173 C 0.50593 0.93003 0.22303 0.0
C1174 C 0.51452 0.92934 0.17361 0.0
C1175 C 0.53022 0.92962 0.17597 0.0
H1176 H 0.29707 0.21585 0.4 0.0
H1177 H 0.32802 0.21051 0.53811 0.0
H1178 H 0.30102 0.24289 0.40213 0.0
H1179 H 0.33218 0.23762 0.53951 0.0
H1180 H 0.31525 0.28612 0.57674 0.0
H1181 H 0.31668 0.25895 0.56746 0.0
H1182 H 0.31883 0.26342 0.38736 0.0
H1183 H 0.31713 0.29069 0.39653 0.0
C1184 C 0.3049 0.22041 0.43024 0.0
C1185 C 0.3121 0.21104 0.46929 0.0
C1186 C 0.30725 0.23593 0.43119 0.0
C1187 C 0.31685 0.24242 0.47121 0.0
C1188 C 0.32456 0.23297 0.50867 0.0
C1189 C 0.32222 0.21744 0.50768 0.0
C1190 C 0.31621 0.28134 0.53514 0.0
C1191 C 0.31591 0.29057 0.48734 0.0
C1192 C 0.31714 0.26575 0.52985 0.0
C1193 C 0.31778 0.25901 0.47664 0.0
C1194 C 0.31814 0.26827 0.4289 0.0
C1195 C 0.31724 0.28389 0.43419 0.0
H1196 H 0.96215 0.07465 0.65299 0.0
H1197 H 0.96324 0.05946 0.82498 0.0
H1198 H 0.98952 0.07681 0.65343 0.0
H1199 H 0.99042 0.06117 0.82489 0.0
H1200 H 0.03862 0.0737 0.8266 0.0
H1201 H 0.01154 0.07753 0.8229 0.0
H1202 H 0.01079 0.06016 0.65378 0.0
H1203 H 0.03795 0.05684 0.65684 0.0
C1204 C 0.96821 0.07186 0.69095 0.0
C1205 C 0.96051 0.06682 0.73885 0.0
C1206 C 0.9839 0.07302 0.69111 0.0
C1207 C 0.99221 0.06914 0.73914 0.0
C1208 C 0.98442 0.06451 0.78743 0.0
C1209 C 0.96879 0.06341 0.78735 0.0
C1210 C 0.0327 0.07091 0.78833 0.0
C1211 C 0.0404 0.06482 0.74222 0.0
C1212 C 0.01716 0.07302 0.78631 0.0
C1213 C 0.00893 0.06895 0.73835 0.0
C1214 C 0.01676 0.06355 0.69124 0.0
C1215 C 0.03234 0.06157 0.69309 0.0
H1216 H 0.81576 0.71333 0.07505 0.0
H1217 H 0.81522 0.7109 0.89416 0.0
H1218 H 0.81635 0.7406 0.07001 0.0
H1219 H 0.81613 0.73828 0.88917 0.0
H1220 H 0.79268 0.78459 0.9126 0.0
H1221 H 0.79785 0.75778 0.90996 0.0
H1222 H 0.83024 0.763 0.04339 0.0
H1223 H 0.82483 0.78987 0.04688 0.0
C1224 C 0.81607 0.7186 0.03415 0.0
C1225 C 0.81525 0.70993 0.985 0.0
C1226 C 0.8165 0.73427 0.03127 0.0
C1227 C 0.81615 0.74163 0.97917 0.0
C1228 C 0.81616 0.73294 0.92996 0.0
C1229 C 0.81573 0.71725 0.93283 0.0
C1230 C 0.80103 0.78007 0.94099 0.0
C1231 C 0.80822 0.78935 0.98037 0.0
C1232 C 0.80409 0.76469 0.93916 0.0
C1233 C 0.81442 0.75822 0.97663 0.0
C1234 C 0.82208 0.76761 0.01446 0.0
C1235 C 0.81902 0.78302 0.01629 0.0
H1236 H 0.68679 0.21027 0.59326 0.0
H1237 H 0.67833 0.21212 0.41494 0.0
H1238 H 0.68736 0.23759 0.59678 0.0
H1239 H 0.67878 0.23963 0.41904 0.0
H1240 H 0.67149 0.29073 0.47104 0.0
H1241 H 0.66565 0.2637 0.46894 0.0
H1242 H 0.70811 0.2542 0.54882 0.0
H1243 H 0.71405 0.28088 0.5501 0.0
C1244 C 0.68474 0.21647 0.55497 0.0
C1245 C 0.68274 0.20899 0.5036 0.0
C1246 C 0.68509 0.23212 0.55709 0.0
C1247 C 0.68328 0.24064 0.50809 0.0
C1248 C 0.68017 0.23327 0.45739 0.0
C1249 C 0.67998 0.21754 0.45509 0.0
C1250 C 0.67953 0.28283 0.48815 0.0
C1251 C 0.69323 0.28789 0.51062 0.0
C1252 C 0.6762 0.26743 0.48682 0.0
C1253 C 0.68639 0.25696 0.50916 0.0
C1254 C 0.69999 0.26207 0.53195 0.0
C1255 C 0.70342 0.27734 0.5323 0.0
H1256 H 0.81208 0.28586 0.99461 0.0
H1257 H 0.82063 0.29047 0.17206 0.0
H1258 H 0.81377 0.25869 0.00323 0.0
H1259 H 0.82263 0.26321 0.18043 0.0
H1260 H 0.8015 0.21531 0.18013 0.0
H1261 H 0.80494 0.24241 0.1758 0.0
H1262 H 0.83017 0.23751 0.02215 0.0
H1263 H 0.82645 0.21037 0.02579 0.0
C1264 C 0.81456 0.28109 0.03534 0.0
C1265 C 0.81608 0.29034 0.08275 0.0
C1266 C 0.81564 0.26549 0.04021 0.0
C1267 C 0.81828 0.25876 0.09258 0.0
C1268 C 0.82038 0.26804 0.13963 0.0
C1269 C 0.81931 0.28367 0.13476 0.0
C1270 C 0.80794 0.21998 0.14576 0.0
C1271 C 0.81356 0.21068 0.10299 0.0
C1272 C 0.81 0.23553 0.14348 0.0
C1273 C 0.81774 0.24214 0.09841 0.0
C1274 C 0.82395 0.23278 0.05697 0.0
C1275 C 0.82189 0.21722 0.05923 0.0
H1276 H 0.67961 0.71118 0.51686 0.0
H1277 H 0.68198 0.70981 0.6977 0.0
H1278 H 0.67934 0.73848 0.51969 0.0
H1279 H 0.68139 0.73721 0.70051 0.0
H1280 H 0.70495 0.78314 0.67031 0.0
H1281 H 0.69966 0.75638 0.67546 0.0
H1282 H 0.66594 0.76118 0.54649 0.0
H1283 H 0.67145 0.78801 0.54048 0.0
C1284 C 0.67977 0.71669 0.55732 0.0
C1285 C 0.68101 0.70831 0.60703 0.0
C1286 C 0.67952 0.73238 0.55894 0.0
C1287 C 0.68048 0.74004 0.61032 0.0
C1288 C 0.68088 0.73164 0.66021 0.0
C1289 C 0.68113 0.71593 0.6586 0.0
C1290 C 0.69629 0.77854 0.64342 0.0
C1291 C 0.68874 0.78769 0.60457 0.0
C1292 C 0.69317 0.76319 0.64671 0.0
C1293 C 0.68241 0.75662 0.61125 0.0
C1294 C 0.67443 0.76588 0.57389 0.0
C1295 C 0.67755 0.78125 0.57062 0.0
H1296 H 0.54058 0.43454 0.94814 0.0
H1297 H 0.53908 0.43072 0.76766 0.0
H1298 H 0.51319 0.43365 0.95148 0.0
H1299 H 0.51176 0.43007 0.77104 0.0
H1300 H 0.4623 0.42165 0.79457 0.0
H1301 H 0.48919 0.41642 0.8009 0.0
H1302 H 0.49394 0.4518 0.92357 0.0
H1303 H 0.46714 0.45687 0.91796 0.0
C1304 C 0.53444 0.43329 0.90925 0.0
C1305 C 0.54201 0.43287 0.85758 0.0
C1306 C 0.51874 0.43286 0.91118 0.0
C1307 C 0.5103 0.43195 0.8615 0.0
C1308 C 0.51792 0.43066 0.81011 0.0
C1309 C 0.5336 0.43112 0.80817 0.0
C1310 C 0.46905 0.42816 0.82348 0.0
C1311 C 0.46261 0.43977 0.85542 0.0
C1312 C 0.48446 0.4252 0.8269 0.0
C1313 C 0.49371 0.43373 0.86255 0.0
C1314 C 0.48712 0.4449 0.89619 0.0
C1315 C 0.47175 0.44789 0.89262 0.0
H1316 H 0.96458 0.56468 0.24199 0.0
H1317 H 0.95834 0.57244 0.41926 0.0
H1318 H 0.9916 0.56691 0.25368 0.0
H1319 H 0.98548 0.57503 0.43075 0.0
H1320 H 0.0332 0.55354 0.43489 0.0
H1321 H 0.00625 0.55753 0.42814 0.0
H1322 H 0.01272 0.5829 0.2756 0.0
H1323 H 0.03975 0.57857 0.2816 0.0
C1324 C 0.96895 0.56714 0.28334 0.0
C1325 C 0.9593 0.5682 0.32982 0.0
C1326 C 0.98448 0.56853 0.28998 0.0
C1327 C 0.99073 0.57106 0.34324 0.0
C1328 C 0.98103 0.57286 0.3893 0.0
C1329 C 0.96547 0.57145 0.38266 0.0
C1330 C 0.02893 0.56015 0.40029 0.0
C1331 C 0.03862 0.56557 0.3584 0.0
C1332 C 0.01345 0.56254 0.39664 0.0
C1333 C 0.0073 0.57044 0.35108 0.0
C1334 C 0.01708 0.57655 0.31075 0.0
C1335 C 0.03258 0.57414 0.31435 0.0
H1336 H 0.96687 0.45278 0.64417 0.0
H1337 H 0.95997 0.42104 0.77888 0.0
H1338 H 0.99381 0.44836 0.64878 0.0
H1339 H 0.98698 0.4164 0.7827 0.0
H1340 H 0.04148 0.43205 0.64769 0.0
H1341 H 0.0143 0.4305 0.63495 0.0
H1342 H 0.00821 0.43138 0.81455 0.0
H1343 H 0.03527 0.43265 0.82734 0.0
C1344 C 0.97107 0.44466 0.67414 0.0
C1345 C 0.96128 0.43739 0.7116 0.0
C1346 C 0.98653 0.44204 0.6765 0.0
C1347 C 0.99256 0.43209 0.71635 0.0
C1348 C 0.98269 0.42429 0.75206 0.0
C1349 C 0.96722 0.42691 0.74969 0.0
C1350 C 0.03435 0.43166 0.68445 0.0
C1351 C 0.04053 0.43261 0.73851 0.0
C1352 C 0.01877 0.43086 0.67712 0.0
C1353 C 0.00909 0.43093 0.7237 0.0
C1354 C 0.01534 0.43114 0.77777 0.0
C1355 C 0.03088 0.43197 0.78509 0.0
H1356 H 0.45737 0.57593 0.29692 0.0
H1357 H 0.46329 0.54403 0.16215 0.0
H1358 H 0.4841 0.58208 0.29269 0.0
H1359 H 0.48992 0.54992 0.15876 0.0
H1360 H 0.53655 0.56731 0.14361 0.0
H1361 H 0.50918 0.56841 0.13835 0.0
H1362 H 0.5067 0.56853 0.31918 0.0
H1363 H 0.53396 0.56777 0.32447 0.0
C1364 C 0.46432 0.57037 0.26596 0.0
C1365 C 0.45823 0.55937 0.23027 0.0
C1366 C 0.47964 0.57384 0.26371 0.0
C1367 C 0.48917 0.56643 0.22564 0.0
C1368 C 0.4829 0.55599 0.18815 0.0
C1369 C 0.46762 0.55251 0.19042 0.0
C1370 C 0.53017 0.56786 0.18222 0.0
C1371 C 0.53743 0.56725 0.23446 0.0
C1372 C 0.51449 0.56841 0.1792 0.0
C1373 C 0.50575 0.56838 0.22833 0.0
C1374 C 0.51307 0.5687 0.28049 0.0
C1375 C 0.52873 0.56815 0.28352 0.0
H1376 H 0.25085 0.13983 0.10857 0.0
H1377 H 0.21429 0.15935 0.20306 0.0
H1378 H 0.26557 0.13757 0.19453 0.0
H1379 H 0.22905 0.15722 0.28861 0.0
H1380 H 0.25462 0.14052 0.44023 0.0
H1381 H 0.23999 0.13874 0.35402 0.0
H1382 H 0.27797 0.15527 0.25959 0.0
H1383 H 0.29265 0.15692 0.34555 0.0
C1384 C 0.24591 0.14354 0.14767 0.0
C1385 C 0.23142 0.14983 0.14889 0.0
C1386 C 0.25437 0.14231 0.19685 0.0
C1387 C 0.24849 0.14724 0.24835 0.0
C1388 C 0.23384 0.15315 0.24974 0.0
C1389 C 0.22542 0.15446 0.20059 0.0
C1390 C 0.25991 0.14361 0.40102 0.0
C1391 C 0.27478 0.14894 0.39985 0.0
C1392 C 0.2515 0.14267 0.35167 0.0
C1393 C 0.25779 0.14695 0.30004 0.0
C1394 C 0.27283 0.15176 0.29861 0.0
C1395 C 0.28122 0.15277 0.34796 0.0
H1396 H 0.09065 0.95476 0.48702 0.0
H1397 H 0.10535 0.9947 0.39981 0.0
H1398 H 0.08899 0.96898 0.57389 0.0
H1399 H 0.10324 0.00906 0.48649 0.0
H1400 H 0.10635 0.02909 0.66223 0.0
H1401 H 0.1123 0.01362 0.58054 0.0
H1402 H 0.07205 0.98752 0.60913 0.0
H1403 H 0.06636 0.00263 0.69105 0.0
C1404 C 0.09365 0.96656 0.48648 0.0
C1405 C 0.098 0.97363 0.43638 0.0
C1406 C 0.09259 0.97474 0.53624 0.0
C1407 C 0.09573 0.99023 0.53706 0.0
C1408 C 0.10082 0.99714 0.48751 0.0
C1409 C 0.10198 0.98891 0.43772 0.0
C1410 C 0.09884 0.01998 0.65119 0.0
C1411 C 0.08588 0.0171 0.68317 0.0
C1412 C 0.10222 0.01115 0.60425 0.0
C1413 C 0.0927 -0.00073 0.58831 0.0
C1414 C 0.07981 0.99637 0.6207 0.0
C1415 C 0.07647 0.00513 0.66755 0.0
H1416 H 0.20736 0.84332 0.85238 0.0
H1417 H 0.24588 0.85684 0.95047 0.0
H1418 H 0.22215 0.8459 0.76691 0.0
H1419 H 0.26059 0.85958 0.86484 0.0
H1420 H 0.28569 0.84034 0.71004 0.0
H1421 H 0.27099 0.84189 0.7959 0.0
H1422 H 0.23522 0.864 0.70559 0.0
H1423 H 0.24986 0.8623 0.61927 0.0
C1424 C 0.21892 0.84705 0.85569 0.0
C1425 C 0.22547 0.84976 0.90832 0.0
C1426 C 0.22737 0.8486 0.80664 0.0
C1427 C 0.24257 0.85286 0.80913 0.0
C1428 C 0.24897 0.85608 0.86161 0.0
C1429 C 0.2405 0.85459 0.91065 0.0
C1430 C 0.27475 0.84567 0.7085 0.0
C1431 C 0.26892 0.85112 0.6577 0.0
C1432 C 0.26636 0.84663 0.75785 0.0
C1433 C 0.25192 0.85303 0.75753 0.0
C1434 C 0.24624 0.85885 0.70704 0.0
C1435 C 0.25467 0.85795 0.65766 0.0
H1436 H 0.38995 0.00341 0.87224 0.0
H1437 H 0.40887 0.04036 0.96619 0.0
H1438 H 0.3871 0.98908 0.95879 0.0
H1439 H 0.40621 0.02596 0.0524 0.0
H1440 H 0.38987 0.00031 0.20468 0.0
H1441 H 0.38813 0.01495 0.11835 0.0
H1442 H 0.40445 0.97686 0.02407 0.0
H1443 H 0.40601 0.9622 0.10993 0.0
C1444 C 0.39338 0.00853 0.91136 0.0
C1445 C 0.39973 0.023 0.91221 0.0
C1446 C 0.39182 0.00028 0.96091 0.0
C1447 C 0.39651 0.00634 0.01245 0.0
C1448 C 0.40234 0.02102 0.01352 0.0
C1449 C 0.40395 0.02924 0.96399 0.0
C1450 C 0.39292 0.99501 0.16545 0.0
C1451 C 0.39815 0.9801 0.16428 0.0
C1452 C 0.392 0.00342 0.11603 0.0
C1453 C 0.39621 0.99709 0.06436 0.0
C1454 C 0.40096 0.98203 0.06304 0.0
C1455 C 0.40194 0.97365 0.11239 0.0
H1456 H 0.78717 0.84288 0.86286 0.0
H1457 H 0.74943 0.85976 0.95798 0.0
H1458 H 0.7725 0.84482 0.77709 0.0
H1459 H 0.73482 0.86189 0.87181 0.0
H1460 H 0.70883 0.84157 0.72058 0.0
H1461 H 0.72342 0.84397 0.80638 0.0
H1462 H 0.7605 0.86237 0.71176 0.0
H1463 H 0.74597 0.85977 0.62557 0.0
C1464 C 0.77581 0.8472 0.86542 0.0
C1465 C 0.76945 0.85107 0.91739 0.0
C1466 C 0.76743 0.8484 0.81612 0.0
C1467 C 0.75247 0.85345 0.81762 0.0
C1468 C 0.74626 0.85778 0.86936 0.0
C1469 C 0.75467 0.85663 0.91869 0.0
C1470 C 0.72003 0.84628 0.71806 0.0
C1471 C 0.72626 0.85038 0.66611 0.0
C1472 C 0.72837 0.84774 0.76736 0.0
C1473 C 0.74315 0.8533 0.7659 0.0
C1474 C 0.74921 0.85786 0.71418 0.0
C1475 C 0.74085 0.85645 0.66484 0.0
H1476 H 0.91166 0.03933 0.60383 0.0
H1477 H 0.88873 0.00388 0.6935 0.0
H1478 H 0.9104 0.02449 0.51804 0.0
H1479 H 0.88735 0.98914 0.60757 0.0
H1480 H 0.90786 0.96053 0.46374 0.0
H1481 H 0.90573 0.97576 0.54831 0.0
H1482 H 0.89275 0.01405 0.44823 0.0
H1483 H 0.89501 0.9989 0.3635 0.0
C1484 C 0.90619 0.02846 0.60512 0.0
C1485 C 0.90038 0.02276 0.6556 0.0
C1486 C 0.90541 0.01998 0.55588 0.0
C1487 C 0.89885 0.0056 0.55612 0.0
C1488 C 0.89265 0.0001 0.60624 0.0
C1489 C 0.89337 0.0086 0.65539 0.0
C1490 C 0.90442 0.97216 0.45977 0.0
C1491 C 0.90169 0.97851 0.40683 0.0
C1492 C 0.90312 0.98087 0.50828 0.0
C1493 C 0.89912 0.99613 0.50491 0.0
C1494 C 0.89603 0.00238 0.4521 0.0
C1495 C 0.89725 0.99366 0.4036 0.0
H1496 H 0.75426 0.13806 0.12191 0.0
H1497 H 0.78765 0.16071 0.22269 0.0
H1498 H 0.73759 0.13672 0.20292 0.0
H1499 H 0.77106 0.15915 0.30379 0.0
H1500 H 0.73002 0.17202 0.40943 0.0
H1501 H 0.74742 0.17123 0.33094 0.0
H1502 H 0.73436 0.1254 0.29662 0.0
H1503 H 0.71671 0.12622 0.37512 0.0
C1504 C 0.75813 0.14258 0.16149 0.0
C1505 C 0.77225 0.14959 0.1657 0.0
C1506 C 0.7486 0.14174 0.20798 0.0
C1507 C 0.75295 0.14794 0.25964 0.0
C1508 C 0.76728 0.15449 0.2643 0.0
C1509 C 0.77683 0.15529 0.2179 0.0
C1510 C 0.73082 0.16175 0.38524 0.0
C1511 C 0.72195 0.14918 0.39859 0.0
C1512 C 0.7409 0.16127 0.34046 0.0
C1513 C 0.74236 0.14822 0.30778 0.0
C1514 C 0.73343 0.13565 0.32083 0.0
C1515 C 0.72335 0.13611 0.36588 0.0
H1516 H 0.5875 0.95748 0.10659 0.0
H1517 H 0.60678 0.9943 0.2003 0.0
H1518 H 0.58965 0.97213 0.02064 0.0
H1519 H 0.60912 0.00884 0.11414 0.0
H1520 H 0.59068 0.03612 0.96377 0.0
H1521 H 0.59178 0.02126 0.04938 0.0
H1522 H 0.60772 0.98309 0.95466 0.0
H1523 H 0.60642 0.99789 0.86873 0.0
C1524 C 0.59237 0.96862 0.10878 0.0
C1525 C 0.59689 0.97475 0.1604 0.0
C1526 C 0.59367 0.97699 0.05943 0.0
C1527 C 0.5995 0.99168 0.06059 0.0
C1528 C 0.6044 0.99764 0.11197 0.0
C1529 C 0.60313 0.98926 0.1613 0.0
C1530 C 0.59455 0.0246 0.9612 0.0
C1531 C 0.59839 0.01818 0.90933 0.0
C1532 C 0.59526 0.0161 0.01037 0.0
C1533 C 0.5998 0.00097 0.00882 0.0
C1534 C 0.60399 0.99465 0.95714 0.0
C1535 C 0.60333 0.00317 0.90795 0.0
H1536 H 0.78689 0.66092 0.86858 0.0
H1537 H 0.75029 0.64109 0.96197 0.0
H1538 H 0.77215 0.65907 0.7828 0.0
H1539 H 0.73559 0.63916 0.87588 0.0
H1540 H 0.70848 0.65849 0.72541 0.0
H1541 H 0.72328 0.6572 0.81121 0.0
H1542 H 0.7612 0.64049 0.71698 0.0
H1543 H 0.74644 0.64187 0.63092 0.0
C1544 C 0.77576 0.65604 0.87076 0.0
C1545 C 0.76975 0.65121 0.9222 0.0
C1546 C 0.76734 0.6549 0.8215 0.0
C1547 C 0.7527 0.649 0.82259 0.0
C1548 C 0.74679 0.6439 0.87383 0.0
C1549 C 0.75524 0.64494 0.92307 0.0
C1550 C 0.71993 0.65442 0.72299 0.0
C1551 C 0.7263 0.65035 0.67123 0.0
C1552 C 0.72838 0.6536 0.77224 0.0
C1553 C 0.74342 0.64878 0.77084 0.0
C1554 C 0.74969 0.6444 0.71929 0.0
C1555 C 0.7412 0.64512 0.67005 0.0
H1556 H 0.60598 0.50168 0.21545 0.0
H1557 H 0.588 0.53851 0.11823 0.0
H1558 H 0.60907 0.48698 0.12997 0.0
H1559 H 0.59094 0.52372 0.03295 0.0
H1560 H 0.60899 0.49765 0.88422 0.0
H1561 H 0.60985 0.51244 0.97024 0.0
H1562 H 0.59199 0.47474 0.06284 0.0
H1563 H 0.59127 0.45989 0.9771 0.0
C1564 C 0.60278 0.50669 0.17584 0.0
C1565 C 0.59667 0.52125 0.17371 0.0
C1566 C 0.60449 0.49822 0.12691 0.0
C1567 C 0.60019 0.50415 0.07474 0.0
C1568 C 0.59451 0.51888 0.07242 0.0
C1569 C 0.59274 0.52733 0.12136 0.0
C1570 C 0.6054 0.49245 0.92302 0.0
C1571 C 0.59999 0.47761 0.92372 0.0
C1572 C 0.60582 0.50096 0.97223 0.0
C1573 C 0.60091 0.49479 0.02327 0.0
C1574 C 0.59598 0.47978 0.0243 0.0
C1575 C 0.5955 0.47129 0.97507 0.0
H1576 H 0.71015 0.34316 0.3446 0.0
H1577 H 0.74851 0.35654 0.44376 0.0
H1578 H 0.72524 0.34523 0.25973 0.0
H1579 H 0.76354 0.35879 0.35867 0.0
H1580 H 0.78881 0.33946 0.20385 0.0
H1581 H 0.77409 0.34114 0.28978 0.0
H1582 H 0.7384 0.36325 0.199 0.0
H1583 H 0.75301 0.3614 0.11284 0.0
C1584 C 0.72174 0.34672 0.34826 0.0
C1585 C 0.72814 0.34959 0.40101 0.0
C1586 C 0.73037 0.34799 0.29955 0.0
C1587 C 0.74561 0.35212 0.3025 0.0
C1588 C 0.75189 0.3554 0.35511 0.0
C1589 C 0.74324 0.35419 0.40382 0.0
C1590 C 0.77789 0.34482 0.2023 0.0
C1591 C 0.77205 0.3502 0.15139 0.0
C1592 C 0.76949 0.34586 0.25163 0.0
C1593 C 0.75504 0.35226 0.25113 0.0
C1594 C 0.7494 0.35807 0.20058 0.0
C1595 C 0.75783 0.35708 0.15128 0.0
H1596 H 0.89195 0.49622 0.67926 0.0
H1597 H 0.9078 0.45797 0.58457 0.0
H1598 H 0.8906 0.51095 0.59314 0.0
H1599 H 0.90657 0.47276 0.49871 0.0
H1600 H 0.89137 0.50019 0.34785 0.0
H1601 H 0.889 0.48546 0.43376 0.0
H1602 H 0.90932 0.52162 0.52768 0.0
H1603 H 0.91158 0.5364 0.44212 0.0
C1604 C 0.89501 0.49091 0.64006 0.0
C1605 C 0.90005 0.47594 0.63887 0.0
C1606 C 0.89432 0.49938 0.59078 0.0
C1607 C 0.89855 0.49305 0.53917 0.0
C1608 C 0.9031 0.47792 0.53771 0.0
C1609 C 0.90387 0.46947 0.58701 0.0
C1610 C 0.89521 0.50505 0.3869 0.0
C1611 C 0.90172 0.51945 0.38806 0.0
C1612 C 0.89392 0.49658 0.43605 0.0
C1613 C 0.899 0.50236 0.48748 0.0
C1614 C 0.90514 0.51691 0.48884 0.0
C1615 C 0.90652 0.52534 0.4397 0.0
H1616 H 0.2469 0.35878 0.13874 0.0
H1617 H 0.20945 0.34126 0.23388 0.0
H1618 H 0.26162 0.3608 0.22469 0.0
H1619 H 0.22422 0.34314 0.31953 0.0
H1620 H 0.25091 0.35899 0.47043 0.0
H1621 H 0.23616 0.36111 0.38455 0.0
H1622 H 0.27317 0.34263 0.28983 0.0
H1623 H 0.28797 0.34065 0.37537 0.0
C1624 C 0.24175 0.35549 0.178 0.0
C1625 C 0.22702 0.34979 0.17937 0.0
C1626 C 0.25022 0.35657 0.22719 0.0
C1627 C 0.24411 0.35206 0.27887 0.0
C1628 C 0.22921 0.34685 0.28048 0.0
C1629 C 0.22077 0.34569 0.2313 0.0
C1630 C 0.25596 0.35552 0.43121 0.0
C1631 C 0.27059 0.34958 0.42982 0.0
C1632 C 0.24747 0.35667 0.38207 0.0
C1633 C 0.25347 0.35199 0.33043 0.0
C1634 C 0.26827 0.34648 0.32883 0.0
C1635 C 0.27672 0.34526 0.37796 0.0
H1636 H 0.40714 0.45821 0.97366 0.0
H1637 H 0.39027 0.49545 0.87584 0.0
H1638 H 0.40384 0.47286 0.05899 0.0
H1639 H 0.38677 0.51001 0.9614 0.0
H1640 H 0.40571 0.53666 0.11332 0.0
H1641 H 0.40398 0.52186 0.02786 0.0
H1642 H 0.3856 0.48471 0.12215 0.0
H1643 H 0.38753 0.49946 0.20809 0.0
C1644 C 0.4025 0.46943 0.97041 0.0
C1645 C 0.39911 0.47571 0.91787 0.0
C1646 C 0.40053 0.4778 0.0194 0.0
C1647 C 0.39513 0.49264 0.01693 0.0
C1648 C 0.39115 0.49869 0.96459 0.0
C1649 C 0.3931 0.49031 0.9156 0.0
C1650 C 0.40112 0.52541 0.11582 0.0
C1651 C 0.39687 0.5192 0.16763 0.0
C1652 C 0.40004 0.51694 0.06671 0.0
C1653 C 0.39471 0.50208 0.06825 0.0
C1654 C 0.38993 0.49607 0.11974 0.0
C1655 C 0.39097 0.50455 0.1689 0.0
H1656 H 0.25006 0.63976 0.96585 0.0
H1657 H 0.21294 0.65826 0.87164 0.0
H1658 H 0.26477 0.63783 0.87977 0.0
H1659 H 0.2277 0.65645 0.78588 0.0
H1660 H 0.25408 0.6406 0.6341 0.0
H1661 H 0.23933 0.63839 0.72004 0.0
H1662 H 0.27661 0.65606 0.81529 0.0
H1663 H 0.2914 0.65816 0.72972 0.0
C1664 C 0.24498 0.6433 0.92678 0.0
C1665 C 0.23035 0.64924 0.92571 0.0
C1666 C 0.25345 0.64226 0.87751 0.0
C1667 C 0.24742 0.64704 0.82605 0.0
C1668 C 0.23262 0.65253 0.82474 0.0
C1669 C 0.22419 0.65366 0.874 0.0
C1670 C 0.2592 0.64385 0.67346 0.0
C1671 C 0.2739 0.64963 0.67498 0.0
C1672 C 0.25071 0.64266 0.72263 0.0
C1673 C 0.25678 0.64711 0.77443 0.0
C1674 C 0.27166 0.65239 0.77616 0.0
C1675 C 0.28011 0.65367 0.72701 0.0
H1676 H 0.1015 0.50169 0.39541 0.0
H1677 H 0.09039 0.54213 0.48674 0.0
H1678 H 0.09986 0.48721 0.48185 0.0
H1679 H 0.08916 0.52772 0.57336 0.0
H1680 H 0.06666 0.49453 0.69372 0.0
H1681 H 0.07179 0.50971 0.61141 0.0
H1682 H 0.11047 0.48216 0.57369 0.0
H1683 H 0.10511 0.46665 0.65591 0.0
C1684 C 0.09898 0.50755 0.43408 0.0
C1685 C 0.09591 0.52305 0.43405 0.0
C1686 C 0.09811 0.49924 0.48374 0.0
C1687 C 0.09421 0.50626 0.53448 0.0
C1688 C 0.09188 0.5219 0.53481 0.0
C1689 C 0.09269 0.53019 0.48518 0.0
C1690 C 0.07631 0.49171 0.66811 0.0
C1691 C 0.08545 0.47934 0.68134 0.0
C1692 C 0.07933 0.50052 0.62106 0.0
C1693 C 0.09159 0.49722 0.58602 0.0
C1694 C 0.10086 0.48493 0.59954 0.0
C1695 C 0.09782 0.47608 0.64675 0.0
loop_
_geom_bond_atom_site_label_1
_geom_bond_atom_site_label_2
_geom_bond_distance
_geom_bond_site_symmetry_2
_ccdc_geom_bond_type
C0 O1 1.160 . S
C0 O7 1.185 . S
O1 C0 1.160 . S
O2 Zn3 1.899 . S
O2 C10 1.284 . S
Zn3 O2 1.899 . S
Zn3 O4 2.032 1_554 S
Zn3 O7 2.086 . S
Zn3 O12 1.977 . S
O4 Zn3 2.032 1_556 S
O4 C8 1.278 . S
C5 O6 1.203 . S
C5 O12 1.267 . S
O6 C5 1.203 . S
O7 C0 1.185 . S
O7 Zn3 2.086 . S
C8 O4 1.278 . S
C8 O9 1.211 . S
O9 C8 1.211 . S
C10 O2 1.284 . S
C10 O11 1.273 . S
O11 C10 1.273 . S
O12 Zn3 1.977 . S
O12 C5 1.267 . S
C13 O14 1.160 . S
C13 O20 1.185 . S
O14 C13 1.160 . S
O15 Zn16 1.899 . S
O15 C23 1.284 . S
Zn16 O15 1.899 . S
Zn16 O17 2.032 . S
Zn16 O20 2.086 . S
Zn16 O25 1.977 . S
O17 Zn16 2.032 . S
O17 C21 1.278 . S
C18 O19 1.203 . S
C18 O25 1.267 . S
O19 C18 1.203 . S
O20 C13 1.185 . S
O20 Zn16 2.086 . S
C21 O17 1.278 . S
C21 O22 1.211 . S
O22 C21 1.211 . S
C23 O15 1.284 . S
C23 O24 1.273 . S
O24 C23 1.273 . S
O25 Zn16 1.977 . S
O25 C18 1.267 . S
C26 O27 1.160 . S
C26 O33 1.185 . S
O27 C26 1.160 . S
O28 Zn29 1.899 . S
O28 C36 1.284 . S
Zn29 O28 1.899 . S
Zn29 O30 2.032 . S
Zn29 O33 2.086 . S
Zn29 O38 1.977 . S
O30 Zn29 2.032 . S
O30 C34 1.278 . S
C31 O32 1.203 . S
C31 O38 1.267 . S
O32 C31 1.203 . S
O33 C26 1.185 . S
O33 Zn29 2.086 . S
C34 O30 1.278 . S
C34 O35 1.211 . S
O35 C34 1.211 . S
C36 O28 1.284 . S
C36 O37 1.273 . S
O37 C36 1.273 . S
O38 Zn29 1.977 . S
O38 C31 1.267 . S
C39 O40 1.160 . S
C39 O46 1.185 . S
O40 C39 1.160 . S
O41 Zn42 1.899 . S
O41 C49 1.284 . S
Zn42 O41 1.899 . S
Zn42 O43 2.032 . S
Zn42 O46 2.086 . S
Zn42 O51 1.977 . S
O43 Zn42 2.032 . S
O43 C47 1.278 . S
C44 O45 1.203 . S
C44 O51 1.267 . S
O45 C44 1.203 . S
O46 C39 1.185 . S
O46 Zn42 2.086 . S
C47 O43 1.278 . S
C47 O48 1.211 . S
O48 C47 1.211 . S
C49 O41 1.284 . S
C49 O50 1.273 . S
O50 C49 1.273 . S
O51 Zn42 1.977 . S
O51 C44 1.267 . S
C52 O53 1.160 . S
C52 O59 1.185 . S
O53 C52 1.160 . S
O54 Zn55 1.899 1_556 S
O54 C62 1.284 . S
Zn55 O54 1.899 1_554 S
Zn55 O56 2.032 . S
Zn55 O59 2.086 . S
Zn55 O64 1.977 . S
O56 Zn55 2.032 . S
O56 C60 1.278 . S
C57 O58 1.203 . S
C57 O64 1.267 . S
O58 C57 1.203 . S
O59 C52 1.185 . S
O59 Zn55 2.086 . S
C60 O56 1.278 . S
C60 O61 1.211 . S
O61 C60 1.211 . S
C62 O54 1.284 . S
C62 O63 1.273 1_556 S
O63 C62 1.273 1_554 S
O64 Zn55 1.977 . S
O64 C57 1.267 . S
C65 O66 1.160 . S
C65 O72 1.185 . S
O66 C65 1.160 . S
O67 Zn68 1.899 . S
O67 C75 1.284 . S
Zn68 O67 1.899 . S
Zn68 O69 2.032 . S
Zn68 O72 2.086 . S
Zn68 O77 1.977 . S
O69 Zn68 2.032 . S
O69 C73 1.278 . S
C70 O71 1.203 . S
C70 O77 1.267 . S
O71 C70 1.203 . S
O72 C65 1.185 . S
O72 Zn68 2.086 . S
C73 O69 1.278 . S
C73 O74 1.211 . S
O74 C73 1.211 . S
C75 O67 1.284 . S
C75 O76 1.273 . S
O76 C75 1.273 . S
O77 Zn68 1.977 . S
O77 C70 1.267 . S
C78 O79 1.160 . S
C78 O85 1.185 . S
O79 C78 1.160 . S
O80 Zn81 1.899 . S
O80 C88 1.284 . S
Zn81 O80 1.899 . S
Zn81 O82 2.032 . S
Zn81 O85 2.086 . S
Zn81 O90 1.977 . S
O82 Zn81 2.032 . S
O82 C86 1.278 . S
C83 O84 1.203 . S
C83 O90 1.267 . S
O84 C83 1.203 . S
O85 C78 1.185 . S
O85 Zn81 2.086 . S
C86 O82 1.278 . S
C86 O87 1.211 . S
O87 C86 1.211 . S
C88 O80 1.284 . S
C88 O89 1.273 . S
O89 C88 1.273 . S
O90 Zn81 1.977 . S
O90 C83 1.267 . S
C91 O92 1.160 . S
C91 O98 1.185 . S
O92 C91 1.160 . S
O93 Zn94 1.899 . S
O93 C101 1.284 . S
Zn94 O93 1.899 . S
Zn94 O95 2.032 . S
Zn94 O98 2.086 . S
Zn94 O103 1.977 . S
O95 Zn94 2.032 . S
O95 C99 1.278 . S
C96 O97 1.203 . S
C96 O103 1.267 . S
O97 C96 1.203 . S
O98 C91 1.185 . S
O98 Zn94 2.086 . S
C99 O95 1.278 . S
C99 O100 1.211 . S
O100 C99 1.211 . S
C101 O93 1.284 . S
C101 O102 1.273 . S
O102 C101 1.273 . S
O103 Zn94 1.977 . S
O103 C96 1.267 . S
C104 O105 1.160 . S
C104 O111 1.185 . S
O105 C104 1.160 . S
O106 Zn107 1.899 1_556 S
O106 C114 1.284 . S
Zn107 O106 1.899 1_554 S
Zn107 O108 2.032 . S
Zn107 O111 2.086 . S
Zn107 O116 1.977 . S
O108 Zn107 2.032 . S
O108 C112 1.278 . S
C109 O110 1.203 . S
C109 O116 1.267 . S
O110 C109 1.203 . S
O111 C104 1.185 . S
O111 Zn107 2.086 . S
C112 O108 1.278 . S
C112 O113 1.211 . S
O113 C112 1.211 . S
C114 O106 1.284 . S
C114 O115 1.273 1_556 S
O115 C114 1.273 1_554 S
O116 Zn107 1.977 . S
O116 C109 1.267 . S
C117 O118 1.160 . S
C117 O124 1.185 . S
O118 C117 1.160 . S
O119 Zn120 1.899 . S
O119 C127 1.284 . S
Zn120 O119 1.899 . S
Zn120 O121 2.032 . S
Zn120 O124 2.086 . S
Zn120 O129 1.977 . S
O121 Zn120 2.032 . S
O121 C125 1.278 . S
C122 O123 1.203 . S
C122 O129 1.267 . S
O123 C122 1.203 . S
O124 C117 1.185 . S
O124 Zn120 2.086 . S
C125 O121 1.278 . S
C125 O126 1.211 . S
O126 C125 1.211 . S
C127 O119 1.284 . S
C127 O128 1.273 . S
O128 C127 1.273 . S
O129 Zn120 1.977 . S
O129 C122 1.267 . S
C130 O131 1.160 . S
C130 O137 1.185 . S
O131 C130 1.160 . S
O132 Zn133 1.899 . S
O132 C140 1.284 . S
Zn133 O132 1.899 . S
Zn133 O134 2.032 . S
Zn133 O137 2.086 . S
Zn133 O142 1.977 . S
O134 Zn133 2.032 . S
O134 C138 1.278 . S
C135 O136 1.203 . S
C135 O142 1.267 . S
O136 C135 1.203 . S
O137 C130 1.185 . S
O137 Zn133 2.086 . S
C138 O134 1.278 . S
C138 O139 1.211 . S
O139 C138 1.211 . S
C140 O132 1.284 . S
C140 O141 1.273 . S
O141 C140 1.273 . S
O142 Zn133 1.977 . S
O142 C135 1.267 . S
C143 O144 1.160 . S
C143 O150 1.185 . S
O144 C143 1.160 . S
O145 Zn146 1.899 . S
O145 C153 1.284 . S
Zn146 O145 1.899 . S
Zn146 O147 2.032 . S
Zn146 O150 2.086 . S
Zn146 O155 1.977 . S
O147 Zn146 2.032 . S
O147 C151 1.278 . S
C148 O149 1.203 . S
C148 O155 1.267 . S
O149 C148 1.203 . S
O150 C143 1.185 . S
O150 Zn146 2.086 . S
C151 O147 1.278 . S
C151 O152 1.211 . S
O152 C151 1.211 . S
C153 O145 1.284 . S
C153 O154 1.273 . S
O154 C153 1.273 . S
O155 Zn146 1.977 . S
O155 C148 1.267 . S
C156 O157 1.160 . S
C156 O163 1.185 . S
O157 C156 1.160 . S
O158 Zn159 1.899 . S
O158 C166 1.284 . S
Zn159 O158 1.899 . S
Zn159 O160 2.032 1_554 S
Zn159 O163 2.086 . S
Zn159 O168 1.977 . S
O160 Zn159 2.032 1_556 S
O160 C164 1.278 . S
C161 O162 1.203 . S
C161 O168 1.267 . S
O162 C161 1.203 . S
O163 C156 1.185 . S
O163 Zn159 2.086 . S
C164 O160 1.278 . S
C164 O165 1.211 . S
O165 C164 1.211 . S
C166 O158 1.284 . S
C166 O167 1.273 . S
O167 C166 1.273 . S
O168 Zn159 1.977 . S
O168 C161 1.267 . S
C169 O170 1.160 . S
C169 O176 1.185 . S
O170 C169 1.160 . S
O171 Zn172 1.899 . S
O171 C179 1.284 . S
Zn172 O171 1.899 . S
Zn172 O173 2.032 . S
Zn172 O176 2.086 . S
Zn172 O181 1.977 . S
O173 Zn172 2.032 . S
O173 C177 1.278 . S
C174 O175 1.203 . S
C174 O181 1.267 . S
O175 C174 1.203 . S
O176 C169 1.185 . S
O176 Zn172 2.086 . S
C177 O173 1.278 . S
C177 O178 1.211 . S
O178 C177 1.211 . S
C179 O171 1.284 . S
C179 O180 1.273 . S
O180 C179 1.273 . S
O181 Zn172 1.977 . S
O181 C174 1.267 . S
C182 O183 1.160 . S
C182 O189 1.185 . S
O183 C182 1.160 . S
O184 Zn185 1.899 . S
O184 C192 1.284 . S
Zn185 O184 1.899 . S
Zn185 O186 2.032 . S
Zn185 O189 2.086 . S
Zn185 O194 1.977 . S
O186 Zn185 2.032 . S
O186 C190 1.278 . S
C187 O188 1.203 . S
C187 O194 1.267 . S
O188 C187 1.203 . S
O189 C182 1.185 . S
O189 Zn185 2.086 . S
C190 O186 1.278 . S
C190 O191 1.211 . S
O191 C190 1.211 . S
C192 O184 1.284 . S
C192 O193 1.273 . S
O193 C192 1.273 . S
O194 Zn185 1.977 . S
O194 C187 1.267 . S
C195 O196 1.160 . S
C195 O202 1.185 . S
O196 C195 1.160 . S
O197 Zn198 1.899 . S
O197 C205 1.284 . S
Zn198 O197 1.899 . S
Zn198 O199 2.032 . S
Zn198 O202 2.086 . S
Zn198 O207 1.977 . S
O199 Zn198 2.032 . S
O199 C203 1.278 . S
C200 O201 1.203 . S
C200 O207 1.267 . S
O201 C200 1.203 . S
O202 C195 1.185 . S
O202 Zn198 2.086 . S
C203 O199 1.278 . S
C203 O204 1.211 . S
O204 C203 1.211 . S
C205 O197 1.284 . S
C205 O206 1.273 . S
O206 C205 1.273 . S
O207 Zn198 1.977 . S
O207 C200 1.267 . S
C208 O209 1.160 . S
C208 O215 1.185 . S
O209 C208 1.160 . S
O210 Zn211 1.899 . S
O210 C218 1.284 . S
Zn211 O210 1.899 . S
Zn211 O212 2.032 . S
Zn211 O215 2.086 . S
Zn211 O220 1.977 . S
O212 Zn211 2.032 . S
O212 C216 1.278 . S
C213 O214 1.203 . S
C213 O220 1.267 . S
O214 C213 1.203 . S
O215 C208 1.185 . S
O215 Zn211 2.086 . S
C216 O212 1.278 . S
C216 O217 1.211 . S
O217 C216 1.211 . S
C218 O210 1.284 . S
C218 O219 1.273 . S
O219 C218 1.273 . S
O220 Zn211 1.977 . S
O220 C213 1.267 . S
C221 O222 1.160 . S
C221 O228 1.185 . S
O222 C221 1.160 . S
O223 Zn224 1.899 . S
O223 C231 1.284 . S
Zn224 O223 1.899 . S
Zn224 O225 2.032 . S
Zn224 O228 2.086 . S
Zn224 O233 1.977 . S
O225 Zn224 2.032 . S
O225 C229 1.278 . S
C226 O227 1.203 . S
C226 O233 1.267 . S
O227 C226 1.203 . S
O228 C221 1.185 . S
O228 Zn224 2.086 . S
C229 O225 1.278 . S
C229 O230 1.211 . S
O230 C229 1.211 . S
C231 O223 1.284 . S
C231 O232 1.273 . S
O232 C231 1.273 . S
O233 Zn224 1.977 . S
O233 C226 1.267 . S
C234 O235 1.160 . S
C234 O241 1.185 . S
O235 C234 1.160 . S
O236 Zn237 1.899 . S
O236 C244 1.284 . S
Zn237 O236 1.899 . S
Zn237 O238 2.032 1_554 S
Zn237 O241 2.086 . S
Zn237 O246 1.977 . S
O238 Zn237 2.032 1_556 S
O238 C242 1.278 . S
C239 O240 1.203 . S
C239 O246 1.267 . S
O240 C239 1.203 . S
O241 C234 1.185 . S
O241 Zn237 2.086 . S
C242 O238 1.278 . S
C242 O243 1.211 . S
O243 C242 1.211 . S
C244 O236 1.284 . S
C244 O245 1.273 . S
O245 C244 1.273 . S
O246 Zn237 1.977 . S
O246 C239 1.267 . S
C247 O248 1.160 . S
C247 O254 1.185 . S
O248 C247 1.160 . S
O249 Zn250 1.899 . S
O249 C257 1.284 . S
Zn250 O249 1.899 . S
Zn250 O251 2.032 . S
Zn250 O254 2.086 . S
Zn250 O259 1.977 . S
O251 Zn250 2.032 . S
O251 C255 1.278 . S
C252 O253 1.203 . S
C252 O259 1.267 . S
O253 C252 1.203 . S
O254 C247 1.185 . S
O254 Zn250 2.086 . S
C255 O251 1.278 . S
C255 O256 1.211 . S
O256 C255 1.211 . S
C257 O249 1.284 . S
C257 O258 1.273 . S
O258 C257 1.273 . S
O259 Zn250 1.977 . S
O259 C252 1.267 . S
C260 O261 1.160 . S
C260 O267 1.185 . S
O261 C260 1.160 . S
O262 Zn263 1.899 . S
O262 C270 1.284 . S
Zn263 O262 1.899 . S
Zn263 O264 2.032 . S
Zn263 O267 2.086 . S
Zn263 O272 1.977 . S
O264 Zn263 2.032 . S
O264 C268 1.278 . S
C265 O266 1.203 . S
C265 O272 1.267 . S
O266 C265 1.203 . S
O267 C260 1.185 . S
O267 Zn263 2.086 . S
C268 O264 1.278 . S
C268 O269 1.211 . S
O269 C268 1.211 . S
C270 O262 1.284 . S
C270 O271 1.273 . S
O271 C270 1.273 . S
O272 Zn263 1.977 . S
O272 C265 1.267 . S
C273 O274 1.160 . S
C273 O280 1.185 . S
O274 C273 1.160 . S
O275 Zn276 1.899 . S
O275 C283 1.284 . S
Zn276 O275 1.899 . S
Zn276 O277 2.032 . S
Zn276 O280 2.086 . S
Zn276 O285 1.977 . S
O277 Zn276 2.032 . S
O277 C281 1.278 . S
C278 O279 1.203 . S
C278 O285 1.267 . S
O279 C278 1.203 . S
O280 C273 1.185 . S
O280 Zn276 2.086 . S
C281 O277 1.278 . S
C281 O282 1.211 . S
O282 C281 1.211 . S
C283 O275 1.284 . S
C283 O284 1.273 . S
O284 C283 1.273 . S
O285 Zn276 1.977 . S
O285 C278 1.267 . S
C286 O287 1.160 . S
C286 O293 1.185 . S
O287 C286 1.160 . S
O288 Zn289 1.899 1_556 S
O288 C296 1.284 . S
Zn289 O288 1.899 1_554 S
Zn289 O290 2.032 . S
Zn289 O293 2.086 . S
Zn289 O298 1.977 . S
O290 Zn289 2.032 . S
O290 C294 1.278 . S
C291 O292 1.203 . S
C291 O298 1.267 . S
O292 C291 1.203 . S
O293 C286 1.185 . S
O293 Zn289 2.086 . S
C294 O290 1.278 . S
C294 O295 1.211 . S
O295 C294 1.211 . S
C296 O288 1.284 . S
C296 O297 1.273 1_556 S
O297 C296 1.273 1_554 S
O298 Zn289 1.977 . S
O298 C291 1.267 . S
C299 O300 1.160 . S
C299 O306 1.185 . S
O300 C299 1.160 . S
O301 Zn302 1.899 . S
O301 C309 1.284 . S
Zn302 O301 1.899 . S
Zn302 O303 2.032 . S
Zn302 O306 2.086 . S
Zn302 O311 1.977 . S
O303 Zn302 2.032 . S
O303 C307 1.278 . S
C304 O305 1.203 . S
C304 O311 1.267 . S
O305 C304 1.203 . S
O306 C299 1.185 . S
O306 Zn302 2.086 . S
C307 O303 1.278 . S
C307 O308 1.211 . S
O308 C307 1.211 . S
C309 O301 1.284 . S
C309 O310 1.273 . S
O310 C309 1.273 . S
O311 Zn302 1.977 . S
O311 C304 1.267 . S
C312 O313 1.160 . S
C312 O319 1.185 . S
O313 C312 1.160 . S
O314 Zn315 1.899 . S
O314 C322 1.284 . S
Zn315 O314 1.899 . S
Zn315 O316 2.032 . S
Zn315 O319 2.086 . S
Zn315 O324 1.977 . S
O316 Zn315 2.032 . S
O316 C320 1.278 . S
C317 O318 1.203 . S
C317 O324 1.267 . S
O318 C317 1.203 . S
O319 C312 1.185 . S
O319 Zn315 2.086 . S
C320 O316 1.278 . S
C320 O321 1.211 . S
O321 C320 1.211 . S
C322 O314 1.284 . S
C322 O323 1.273 . S
O323 C322 1.273 . S
O324 Zn315 1.977 . S
O324 C317 1.267 . S
C325 O326 1.160 . S
C325 O332 1.185 . S
O326 C325 1.160 . S
O327 Zn328 1.899 . S
O327 C335 1.284 . S
Zn328 O327 1.899 . S
Zn328 O329 2.032 . S
Zn328 O332 2.086 . S
Zn328 O337 1.977 . S
O329 Zn328 2.032 . S
O329 C333 1.278 . S
C330 O331 1.203 . S
C330 O337 1.267 . S
O331 C330 1.203 . S
O332 C325 1.185 . S
O332 Zn328 2.086 . S
C333 O329 1.278 . S
C333 O334 1.211 . S
O334 C333 1.211 . S
C335 O327 1.284 . S
C335 O336 1.273 . S
O336 C335 1.273 . S
O337 Zn328 1.977 . S
O337 C330 1.267 . S
C338 O339 1.160 . S
C338 O345 1.185 . S
O339 C338 1.160 . S
O340 Zn341 1.899 1_556 S
O340 C348 1.284 . S
Zn341 O340 1.899 1_554 S
Zn341 O342 2.032 . S
Zn341 O345 2.086 . S
Zn341 O350 1.977 . S
O342 Zn341 2.032 . S
O342 C346 1.278 . S
C343 O344 1.203 . S
C343 O350 1.267 . S
O344 C343 1.203 . S
O345 C338 1.185 . S
O345 Zn341 2.086 . S
C346 O342 1.278 . S
C346 O347 1.211 . S
O347 C346 1.211 . S
C348 O340 1.284 . S
C348 O349 1.273 1_556 S
O349 C348 1.273 1_554 S
O350 Zn341 1.977 . S
O350 C343 1.267 . S
C351 O352 1.160 . S
C351 O358 1.185 . S
O352 C351 1.160 . S
O353 Zn354 1.899 . S
O353 C361 1.284 . S
Zn354 O353 1.899 . S
Zn354 O355 2.032 . S
Zn354 O358 2.086 . S
Zn354 O363 1.977 . S
O355 Zn354 2.032 . S
O355 C359 1.278 . S
C356 O357 1.203 . S
C356 O363 1.267 . S
O357 C356 1.203 . S
O358 C351 1.185 . S
O358 Zn354 2.086 . S
C359 O355 1.278 . S
C359 O360 1.211 . S
O360 C359 1.211 . S
C361 O353 1.284 . S
C361 O362 1.273 . S
O362 C361 1.273 . S
O363 Zn354 1.977 . S
O363 C356 1.267 . S
C364 O365 1.160 . S
C364 O371 1.185 . S
O365 C364 1.160 . S
O366 Zn367 1.899 . S
O366 C374 1.284 . S
Zn367 O366 1.899 . S
Zn367 O368 2.032 . S
Zn367 O371 2.086 . S
Zn367 O376 1.977 . S
O368 Zn367 2.032 . S
O368 C372 1.278 . S
C369 O370 1.203 . S
C369 O376 1.267 . S
O370 C369 1.203 . S
O371 C364 1.185 . S
O371 Zn367 2.086 . S
C372 O368 1.278 . S
C372 O373 1.211 . S
O373 C372 1.211 . S
C374 O366 1.284 . S
C374 O375 1.273 . S
O375 C374 1.273 . S
O376 Zn367 1.977 . S
O376 C369 1.267 . S
C377 O378 1.160 . S
C377 O384 1.185 . S
O378 C377 1.160 . S
O379 Zn380 1.899 . S
O379 C387 1.284 . S
Zn380 O379 1.899 . S
Zn380 O381 2.032 . S
Zn380 O384 2.086 . S
Zn380 O389 1.977 . S
O381 Zn380 2.032 . S
O381 C385 1.278 . S
C382 O383 1.203 . S
C382 O389 1.267 . S
O383 C382 1.203 . S
O384 C377 1.185 . S
O384 Zn380 2.086 . S
C385 O381 1.278 . S
C385 O386 1.211 . S
O386 C385 1.211 . S
C387 O379 1.284 . S
C387 O388 1.273 . S
O388 C387 1.273 . S
O389 Zn380 1.977 . S
O389 C382 1.267 . S
C390 O391 1.160 . S
C390 O397 1.185 . S
O391 C390 1.160 . S
O392 Zn393 1.899 . S
O392 C400 1.284 . S
Zn393 O392 1.899 . S
Zn393 O394 2.032 1_554 S
Zn393 O397 2.086 . S
Zn393 O402 1.977 . S
O394 Zn393 2.032 1_556 S
O394 C398 1.278 . S
C395 O396 1.203 . S
C395 O402 1.267 . S
O396 C395 1.203 . S
O397 C390 1.185 . S
O397 Zn393 2.086 . S
C398 O394 1.278 . S
C398 O399 1.211 . S
O399 C398 1.211 . S
C400 O392 1.284 . S
C400 O401 1.273 . S
O401 C400 1.273 . S
O402 Zn393 1.977 . S
O402 C395 1.267 . S
C403 O404 1.160 . S
C403 O410 1.185 . S
O404 C403 1.160 . S
O405 Zn406 1.899 . S
O405 C413 1.284 . S
Zn406 O405 1.899 . S
Zn406 O407 2.032 . S
Zn406 O410 2.086 . S
Zn406 O415 1.977 . S
O407 Zn406 2.032 . S
O407 C411 1.278 . S
C408 O409 1.203 . S
C408 O415 1.267 . S
O409 C408 1.203 . S
O410 C403 1.185 . S
O410 Zn406 2.086 . S
C411 O407 1.278 . S
C411 O412 1.211 . S
O412 C411 1.211 . S
C413 O405 1.284 . S
C413 O414 1.273 . S
O414 C413 1.273 . S
O415 Zn406 1.977 . S
O415 C408 1.267 . S
H416 C424 0.950 . S
H417 C429 0.950 . S
H418 C426 0.950 . S
H419 C428 0.950 . S
H420 C430 0.950 1_554 S
H421 C432 0.950 . S
H422 C434 0.950 . S
H423 C435 0.950 . S
C424 H416 0.950 . S
C424 C425 1.386 . S
C424 C426 1.391 . S
C425 C424 1.386 . S
C425 C429 1.393 . S
C426 H418 0.950 . S
C426 C424 1.391 . S
C426 C427 1.400 . S
C427 C426 1.400 . S
C427 C428 1.398 . S
C427 C433 1.491 . S
C428 H419 0.950 . S
C428 C427 1.398 . S
C428 C429 1.391 . S
C429 H417 0.950 . S
C429 C425 1.393 . S
C429 C428 1.391 . S
C430 H420 0.950 1_556 S
C430 C431 1.386 . S
C430 C432 1.391 . S
C431 C430 1.386 . S
C431 C435 1.393 . S
C432 H421 0.950 . S
C432 C430 1.391 . S
C432 C433 1.400 . S
C433 C427 1.491 . S
C433 C432 1.400 . S
C433 C434 1.398 . S
C434 H422 0.950 . S
C434 C433 1.398 . S
C434 C435 1.391 . S
C435 H423 0.950 . S
C435 C431 1.393 . S
C435 C434 1.391 . S
H436 C444 0.950 . S
H437 C449 0.950 . S
H438 C446 0.950 . S
H439 C448 0.950 . S
H440 C450 0.950 . S
H441 C452 0.950 . S
H442 C454 0.950 . S
H443 C455 0.950 . S
C444 H436 0.950 . S
C444 C445 1.386 . S
C444 C446 1.391 . S
C445 C444 1.386 . S
C445 C449 1.393 . S
C446 H438 0.950 . S
C446 C444 1.391 . S
C446 C447 1.400 . S
C447 C446 1.400 . S
C447 C448 1.398 . S
C447 C453 1.491 . S
C448 H439 0.950 . S
C448 C447 1.398 . S
C448 C449 1.391 . S
C449 H437 0.950 . S
C449 C445 1.393 . S
C449 C448 1.391 . S
C450 H440 0.950 . S
C450 C451 1.386 . S
C450 C452 1.391 . S
C451 C450 1.386 . S
C451 C455 1.393 . S
C452 H441 0.950 . S
C452 C450 1.391 . S
C452 C453 1.400 . S
C453 C447 1.491 . S
C453 C452 1.400 . S
C453 C454 1.398 . S
C454 H442 0.950 . S
C454 C453 1.398 . S
C454 C455 1.391 . S
C455 H443 0.950 . S
C455 C451 1.393 . S
C455 C454 1.391 . S
H456 C464 0.950 . S
H457 C469 0.950 . S
H458 C466 0.950 . S
H459 C468 0.950 . S
H460 C470 0.950 . S
H461 C472 0.950 . S
H462 C474 0.950 . S
H463 C475 0.950 . S
C464 H456 0.950 . S
C464 C465 1.386 . S
C464 C466 1.391 . S
C465 C464 1.386 . S
C465 C469 1.393 . S
C466 H458 0.950 . S
C466 C464 1.391 . S
C466 C467 1.400 . S
C467 C466 1.400 . S
C467 C468 1.398 . S
C467 C473 1.491 . S
C468 H459 0.950 . S
C468 C467 1.398 . S
C468 C469 1.391 . S
C469 H457 0.950 . S
C469 C465 1.393 . S
C469 C468 1.391 . S
C470 H460 0.950 . S
C470 C471 1.386 . S
C470 C472 1.391 . S
C471 C470 1.386 . S
C471 C475 1.393 . S
C472 H461 0.950 . S
C472 C470 1.391 . S
C472 C473 1.400 . S
C473 C467 1.491 . S
C473 C472 1.400 . S
C473 C474 1.398 . S
C474 H462 0.950 . S
C474 C473 1.398 . S
C474 C475 1.391 . S
C475 H463 0.950 . S
C475 C471 1.393 . S
C475 C474 1.391 . S
H476 C484 0.950 . S
H477 C489 0.950 . S
H478 C486 0.950 . S
H479 C488 0.950 . S
H480 C490 0.950 . S
H481 C492 0.950 . S
H482 C494 0.950 . S
H483 C495 0.950 . S
C484 H476 0.950 . S
C484 C485 1.386 . S
C484 C486 1.391 . S
C485 C484 1.386 . S
C485 C489 1.393 . S
C486 H478 0.950 . S
C486 C484 1.391 . S
C486 C487 1.400 . S
C487 C486 1.400 . S
C487 C488 1.398 . S
C487 C493 1.491 . S
C488 H479 0.950 . S
C488 C487 1.398 . S
C488 C489 1.391 . S
C489 H477 0.950 . S
C489 C485 1.393 . S
C489 C488 1.391 . S
C490 H480 0.950 . S
C490 C491 1.386 . S
C490 C492 1.391 . S
C491 C490 1.386 . S
C491 C495 1.393 . S
C492 H481 0.950 . S
C492 C490 1.391 . S
C492 C493 1.400 . S
C493 C487 1.491 . S
C493 C492 1.400 . S
C493 C494 1.398 . S
C494 H482 0.950 . S
C494 C493 1.398 . S
C494 C495 1.391 . S
C495 H483 0.950 . S
C495 C491 1.393 . S
C495 C494 1.391 . S
H496 C504 0.950 . S
H497 C509 0.950 . S
H498 C506 0.950 . S
H499 C508 0.950 . S
H500 C510 0.950 . S
H501 C512 0.950 . S
H502 C514 0.950 . S
H503 C515 0.950 . S
C504 H496 0.950 . S
C504 C505 1.386 . S
C504 C506 1.391 . S
C505 C504 1.386 . S
C505 C509 1.393 . S
C506 H498 0.950 . S
C506 C504 1.391 . S
C506 C507 1.400 . S
C507 C506 1.400 . S
C507 C508 1.398 . S
C507 C513 1.491 . S
C508 H499 0.950 . S
C508 C507 1.398 . S
C508 C509 1.391 . S
C509 H497 0.950 . S
C509 C505 1.393 . S
C509 C508 1.391 . S
C510 H500 0.950 . S
C510 C511 1.386 . S
C510 C512 1.391 . S
C511 C510 1.386 . S
C511 C515 1.393 . S
C512 H501 0.950 . S
C512 C510 1.391 . S
C512 C513 1.400 . S
C513 C507 1.491 . S
C513 C512 1.400 . S
C513 C514 1.398 . S
C514 H502 0.950 . S
C514 C513 1.398 . S
C514 C515 1.391 . S
C515 H503 0.950 . S
C515 C511 1.393 . S
C515 C514 1.391 . S
H516 C524 0.950 . S
H517 C529 0.950 . S
H518 C526 0.950 . S
H519 C528 0.950 . S
H520 C530 0.950 1_554 S
H521 C532 0.950 . S
H522 C534 0.950 . S
H523 C535 0.950 . S
C524 H516 0.950 . S
C524 C525 1.386 . S
C524 C526 1.391 . S
C525 C524 1.386 . S
C525 C529 1.393 . S
C526 H518 0.950 . S
C526 C524 1.391 . S
C526 C527 1.400 . S
C527 C526 1.400 . S
C527 C528 1.398 . S
C527 C533 1.491 . S
C528 H519 0.950 . S
C528 C527 1.398 . S
C528 C529 1.391 . S
C529 H517 0.950 . S
C529 C525 1.393 . S
C529 C528 1.391 . S
C530 H520 0.950 1_556 S
C530 C531 1.386 . S
C530 C532 1.391 . S
C531 C530 1.386 . S
C531 C535 1.393 . S
C532 H521 0.950 . S
C532 C530 1.391 . S
C532 C533 1.400 . S
C533 C527 1.491 . S
C533 C532 1.400 . S
C533 C534 1.398 . S
C534 H522 0.950 . S
C534 C533 1.398 . S
C534 C535 1.391 . S
C535 H523 0.950 . S
C535 C531 1.393 . S
C535 C534 1.391 . S
H536 C544 0.950 . S
H537 C549 0.950 . S
H538 C546 0.950 . S
H539 C548 0.950 . S
H540 C550 0.950 . S
H541 C552 0.950 . S
H542 C554 0.950 . S
H543 C555 0.950 . S
C544 H536 0.950 . S
C544 C545 1.386 . S
C544 C546 1.391 . S
C545 C544 1.386 . S
C545 C549 1.393 . S
C546 H538 0.950 . S
C546 C544 1.391 . S
C546 C547 1.400 . S
C547 C546 1.400 . S
C547 C548 1.398 . S
C547 C553 1.491 . S
C548 H539 0.950 . S
C548 C547 1.398 . S
C548 C549 1.391 . S
C549 H537 0.950 . S
C549 C545 1.393 . S
C549 C548 1.391 . S
C550 H540 0.950 . S
C550 C551 1.386 . S
C550 C552 1.391 . S
C551 C550 1.386 . S
C551 C555 1.393 . S
C552 H541 0.950 . S
C552 C550 1.391 . S
C552 C553 1.400 . S
C553 C547 1.491 . S
C553 C552 1.400 . S
C553 C554 1.398 . S
C554 H542 0.950 . S
C554 C553 1.398 . S
C554 C555 1.391 . S
C555 H543 0.950 . S
C555 C551 1.393 . S
C555 C554 1.391 . S
H556 C564 0.950 . S
H557 C569 0.950 . S
H558 C566 0.950 . S
H559 C568 0.950 . S
H560 C570 0.950 . S
H561 C572 0.950 . S
H562 C574 0.950 . S
H563 C575 0.950 . S
C564 H556 0.950 . S
C564 C565 1.386 . S
C564 C566 1.391 . S
C565 C564 1.386 . S
C565 C569 1.393 . S
C566 H558 0.950 . S
C566 C564 1.391 . S
C566 C567 1.400 . S
C567 C566 1.400 . S
C567 C568 1.398 . S
C567 C573 1.491 . S
C568 H559 0.950 . S
C568 C567 1.398 . S
C568 C569 1.391 . S
C569 H557 0.950 . S
C569 C565 1.393 . S
C569 C568 1.391 . S
C570 H560 0.950 . S
C570 C571 1.386 . S
C570 C572 1.391 . S
C571 C570 1.386 . S
C571 C575 1.393 . S
C572 H561 0.950 . S
C572 C570 1.391 . S
C572 C573 1.400 . S
C573 C567 1.491 . S
C573 C572 1.400 . S
C573 C574 1.398 . S
C574 H562 0.950 . S
C574 C573 1.398 . S
C574 C575 1.391 . S
C575 H563 0.950 . S
C575 C571 1.393 . S
C575 C574 1.391 . S
H576 C584 0.950 . S
H577 C589 0.950 . S
H578 C586 0.950 . S
H579 C588 0.950 . S
H580 C590 0.950 . S
H581 C592 0.950 . S
H582 C594 0.950 . S
H583 C595 0.950 . S
C584 H576 0.950 . S
C584 C585 1.386 . S
C584 C586 1.391 . S
C585 C584 1.386 . S
C585 C589 1.393 . S
C586 H578 0.950 . S
C586 C584 1.391 . S
C586 C587 1.400 . S
C587 C586 1.400 . S
C587 C588 1.398 . S
C587 C593 1.491 . S
C588 H579 0.950 . S
C588 C587 1.398 . S
C588 C589 1.391 . S
C589 H577 0.950 . S
C589 C585 1.393 . S
C589 C588 1.391 . S
C590 H580 0.950 . S
C590 C591 1.386 . S
C590 C592 1.391 . S
C591 C590 1.386 . S
C591 C595 1.393 . S
C592 H581 0.950 . S
C592 C590 1.391 . S
C592 C593 1.400 . S
C593 C587 1.491 . S
C593 C592 1.400 . S
C593 C594 1.398 . S
C594 H582 0.950 . S
C594 C593 1.398 . S
C594 C595 1.391 . S
C595 H583 0.950 . S
C595 C591 1.393 . S
C595 C594 1.391 . S
H596 C604 0.950 . S
H597 C609 0.950 . S
H598 C606 0.950 . S
H599 C608 0.950 . S
H600 C610 0.950 . S
H601 C612 0.950 . S
H602 C614 0.950 . S
H603 C615 0.950 . S
C604 H596 0.950 . S
C604 C605 1.386 . S
C604 C606 1.391 . S
C605 C604 1.386 . S
C605 C609 1.393 . S
C606 H598 0.950 . S
C606 C604 1.391 . S
C606 C607 1.400 . S
C607 C606 1.400 . S
C607 C608 1.398 . S
C607 C613 1.491 . S
C608 H599 0.950 . S
C608 C607 1.398 . S
C608 C609 1.391 . S
C609 H597 0.950 . S
C609 C605 1.393 . S
C609 C608 1.391 . S
C610 H600 0.950 . S
C610 C611 1.386 . S
C610 C612 1.391 . S
C611 C610 1.386 . S
C611 C615 1.393 . S
C612 H601 0.950 . S
C612 C610 1.391 . S
C612 C613 1.400 . S
C613 C607 1.491 . S
C613 C612 1.400 . S
C613 C614 1.398 . S
C614 H602 0.950 . S
C614 C613 1.398 . S
C614 C615 1.391 . S
C615 H603 0.950 . S
C615 C611 1.393 . S
C615 C614 1.391 . S
H616 C624 0.950 . S
H617 C629 0.950 . S
H618 C626 0.950 . S
H619 C628 0.950 . S
H620 C630 0.950 . S
H621 C632 0.948 1_554 S
H622 C634 0.950 . S
H623 C635 0.950 . S
C624 H616 0.950 . S
C624 C625 1.386 . S
C624 C626 1.391 . S
C625 C624 1.386 . S
C625 C629 1.393 . S
C626 H618 0.950 . S
C626 C624 1.391 . S
C626 C627 1.400 . S
C627 C626 1.400 . S
C627 C628 1.398 . S
C627 C633 1.491 . S
C628 H619 0.950 . S
C628 C627 1.398 . S
C628 C629 1.391 . S
C629 H617 0.950 . S
C629 C625 1.393 . S
C629 C628 1.391 . S
C630 H620 0.950 . S
C630 C631 1.386 1_554 S
C630 C632 1.391 1_554 S
C631 C630 1.386 1_556 S
C631 C635 1.393 . S
C632 H621 0.948 1_556 S
C632 C630 1.391 1_556 S
C632 C633 1.400 . S
C633 C627 1.491 . S
C633 C632 1.400 . S
C633 C634 1.398 . S
C634 H622 0.950 . S
C634 C633 1.398 . S
C634 C635 1.391 . S
C635 H623 0.950 . S
C635 C631 1.393 . S
C635 C634 1.391 . S
H636 C644 0.950 . S
H637 C649 0.950 . S
H638 C646 0.950 . S
H639 C648 0.950 . S
H640 C650 0.950 . S
H641 C652 0.950 . S
H642 C654 0.950 . S
H643 C655 0.950 . S
C644 H636 0.950 . S
C644 C645 1.386 . S
C644 C646 1.391 . S
C645 C644 1.386 . S
C645 C649 1.393 . S
C646 H638 0.950 . S
C646 C644 1.391 . S
C646 C647 1.400 . S
C647 C646 1.400 . S
C647 C648 1.398 . S
C647 C653 1.491 . S
C648 H639 0.950 . S
C648 C647 1.398 . S
C648 C649 1.391 . S
C649 H637 0.950 . S
C649 C645 1.393 . S
C649 C648 1.391 . S
C650 H640 0.950 . S
C650 C651 1.386 . S
C650 C652 1.391 . S
C651 C650 1.386 . S
C651 C655 1.393 . S
C652 H641 0.950 . S
C652 C650 1.391 . S
C652 C653 1.400 . S
C653 C647 1.491 . S
C653 C652 1.400 . S
C653 C654 1.398 . S
C654 H642 0.950 . S
C654 C653 1.398 . S
C654 C655 1.391 . S
C655 H643 0.950 . S
C655 C651 1.393 . S
C655 C654 1.391 . S
H656 C664 0.950 . S
H657 C669 0.950 . S
H658 C666 0.950 . S
H659 C668 0.950 . S
H660 C670 0.950 . S
H661 C672 0.950 . S
H662 C674 0.950 . S
H663 C675 0.950 . S
C664 H656 0.950 . S
C664 C665 1.386 . S
C664 C666 1.391 . S
C665 C664 1.386 . S
C665 C669 1.393 . S
C666 H658 0.950 . S
C666 C664 1.391 . S
C666 C667 1.400 . S
C667 C666 1.400 . S
C667 C668 1.398 . S
C667 C673 1.491 . S
C668 H659 0.950 . S
C668 C667 1.398 . S
C668 C669 1.391 . S
C669 H657 0.950 . S
C669 C665 1.393 . S
C669 C668 1.391 . S
C670 H660 0.950 . S
C670 C671 1.386 . S
C670 C672 1.391 . S
C671 C670 1.386 . S
C671 C675 1.393 . S
C672 H661 0.950 . S
C672 C670 1.391 . S
C672 C673 1.400 . S
C673 C667 1.491 . S
C673 C672 1.400 . S
C673 C674 1.398 . S
C674 H662 0.950 . S
C674 C673 1.398 . S
C674 C675 1.391 . S
C675 H663 0.950 . S
C675 C671 1.393 . S
C675 C674 1.391 . S
H676 C684 0.950 . S
H677 C689 0.950 . S
H678 C686 0.950 . S
H679 C688 0.950 . S
H680 C690 0.950 . S
H681 C692 0.950 . S
H682 C694 0.950 . S
H683 C695 0.950 . S
C684 H676 0.950 . S
C684 C685 1.386 . S
C684 C686 1.391 . S
C685 C684 1.386 . S
C685 C689 1.393 . S
C686 H678 0.950 . S
C686 C684 1.391 . S
C686 C687 1.400 . S
C687 C686 1.400 . S
C687 C688 1.398 . S
C687 C693 1.491 . S
C688 H679 0.950 . S
C688 C687 1.398 . S
C688 C689 1.391 . S
C689 H677 0.950 . S
C689 C685 1.393 . S
C689 C688 1.391 . S
C690 H680 0.950 . S
C690 C691 1.386 . S
C690 C692 1.391 . S
C691 C690 1.386 . S
C691 C695 1.393 . S
C692 H681 0.950 . S
C692 C690 1.391 . S
C692 C693 1.400 . S
C693 C687 1.491 . S
C693 C692 1.400 . S
C693 C694 1.398 . S
C694 H682 0.950 . S
C694 C693 1.398 . S
C694 C695 1.391 . S
C695 H683 0.950 . S
C695 C691 1.393 . S
C695 C694 1.391 . S
H696 C704 0.950 . S
H697 C709 0.950 . S
H698 C706 0.950 . S
H699 C708 0.950 . S
H700 C710 0.950 . S
H701 C712 0.950 . S
H702 C714 0.950 . S
H703 C715 0.950 . S
C704 H696 0.950 . S
C704 C705 1.386 . S
C704 C706 1.391 . S
C705 C704 1.386 . S
C705 C709 1.393 . S
C706 H698 0.950 . S
C706 C704 1.391 . S
C706 C707 1.400 . S
C707 C706 1.400 . S
C707 C708 1.398 . S
C707 C713 1.491 . S
C708 H699 0.950 . S
C708 C707 1.398 . S
C708 C709 1.391 . S
C709 H697 0.950 . S
C709 C705 1.393 . S
C709 C708 1.391 . S
C710 H700 0.950 . S
C710 C711 1.386 . S
C710 C712 1.391 . S
C711 C710 1.386 . S
C711 C715 1.393 . S
C712 H701 0.950 . S
C712 C710 1.391 . S
C712 C713 1.400 . S
C713 C707 1.491 . S
C713 C712 1.400 . S
C713 C714 1.398 . S
C714 H702 0.950 . S
C714 C713 1.398 . S
C714 C715 1.391 . S
C715 H703 0.950 . S
C715 C711 1.393 . S
C715 C714 1.391 . S
H716 C724 0.950 . S
H717 C729 0.950 . S
H718 C726 0.950 . S
H719 C728 0.950 . S
H720 C730 0.950 . S
H721 C732 0.950 . S
H722 C734 0.950 . S
H723 C735 0.950 . S
C724 H716 0.950 . S
C724 C725 1.386 . S
C724 C726 1.391 . S
C725 C724 1.386 . S
C725 C729 1.393 . S
C726 H718 0.950 . S
C726 C724 1.391 . S
C726 C727 1.400 . S
C727 C726 1.400 . S
C727 C728 1.398 . S
C727 C733 1.491 . S
C728 H719 0.950 . S
C728 C727 1.398 . S
C728 C729 1.391 . S
C729 H717 0.950 . S
C729 C725 1.393 . S
C729 C728 1.391 . S
C730 H720 0.950 . S
C730 C731 1.386 . S
C730 C732 1.391 . S
C731 C730 1.386 . S
C731 C735 1.393 . S
C732 H721 0.950 . S
C732 C730 1.391 . S
C732 C733 1.400 . S
C733 C727 1.491 . S
C733 C732 1.400 . S
C733 C734 1.398 . S
C734 H722 0.950 . S
C734 C733 1.398 . S
C734 C735 1.391 . S
C735 H723 0.950 . S
C735 C731 1.393 . S
C735 C734 1.391 . S
H736 C744 0.950 . S
H737 C749 0.950 . S
H738 C746 0.950 . S
H739 C748 0.950 . S
H740 C750 0.950 . S
H741 C752 0.950 . S
H742 C754 0.950 . S
H743 C755 0.950 . S
C744 H736 0.950 . S
C744 C745 1.386 . S
C744 C746 1.391 . S
C745 C744 1.386 . S
C745 C749 1.393 . S
C746 H738 0.950 . S
C746 C744 1.391 . S
C746 C747 1.400 . S
C747 C746 1.400 . S
C747 C748 1.398 . S
C747 C753 1.491 . S
C748 H739 0.950 . S
C748 C747 1.398 . S
C748 C749 1.391 . S
C749 H737 0.950 . S
C749 C745 1.393 . S
C749 C748 1.391 . S
C750 H740 0.950 . S
C750 C751 1.386 . S
C750 C752 1.391 . S
C751 C750 1.386 . S
C751 C755 1.393 . S
C752 H741 0.950 . S
C752 C750 1.391 . S
C752 C753 1.400 . S
C753 C747 1.491 . S
C753 C752 1.400 . S
C753 C754 1.398 . S
C754 H742 0.950 . S
C754 C753 1.398 . S
C754 C755 1.391 . S
C755 H743 0.950 . S
C755 C751 1.393 . S
C755 C754 1.391 . S
H756 C764 0.950 . S
H757 C769 0.950 . S
H758 C766 0.950 . S
H759 C768 0.950 . S
H760 C770 0.950 . S
H761 C772 0.950 . S
H762 C774 0.957 . S
H763 C775 0.950 . S
C764 H756 0.950 . S
C764 C765 1.386 . S
C764 C766 1.391 . S
C765 C764 1.386 . S
C765 C769 1.393 . S
C766 H758 0.950 . S
C766 C764 1.391 . S
C766 C767 1.400 . S
C767 C766 1.400 . S
C767 C768 1.398 . S
C767 C773 1.491 1_565 S
C768 H759 0.950 . S
C768 C767 1.398 . S
C768 C769 1.391 . S
C769 H757 0.950 . S
C769 C765 1.393 . S
C769 C768 1.391 . S
C770 H760 0.950 . S
C770 C771 1.386 . S
C770 C772 1.391 . S
C771 C770 1.386 . S
C771 C775 1.393 . S
C772 H761 0.950 . S
C772 C770 1.391 . S
C772 C773 1.400 1_556 S
C773 C767 1.491 1_545 S
C773 C772 1.400 1_554 S
C773 C774 1.402 . S
C774 H762 0.957 . S
C774 C773 1.402 . S
C774 C775 1.381 1_554 S
C775 H763 0.950 . S
C775 C771 1.393 . S
C775 C774 1.381 1_556 S
H776 C784 0.950 . S
H777 C789 0.950 . S
H778 C786 0.950 . S
H779 C788 0.950 . S
H780 C790 0.950 . S
H781 C792 0.950 . S
H782 C794 0.950 . S
H783 C795 0.950 . S
C784 H776 0.950 . S
C784 C785 1.386 . S
C784 C786 1.391 . S
C785 C784 1.386 . S
C785 C789 1.393 . S
C786 H778 0.950 . S
C786 C784 1.391 . S
C786 C787 1.400 . S
C787 C786 1.400 . S
C787 C788 1.398 . S
C787 C793 1.491 . S
C788 H779 0.950 . S
C788 C787 1.398 . S
C788 C789 1.391 . S
C789 H777 0.950 . S
C789 C785 1.393 . S
C789 C788 1.391 . S
C790 H780 0.950 . S
C790 C791 1.386 . S
C790 C792 1.391 . S
C791 C790 1.386 . S
C791 C795 1.393 . S
C792 H781 0.950 . S
C792 C790 1.391 . S
C792 C793 1.400 . S
C793 C787 1.491 . S
C793 C792 1.400 . S
C793 C794 1.398 . S
C794 H782 0.950 . S
C794 C793 1.398 . S
C794 C795 1.391 . S
C795 H783 0.950 . S
C795 C791 1.393 . S
C795 C794 1.391 . S
H796 C804 0.950 . S
H797 C809 0.950 . S
H798 C806 0.986 . S
H799 C808 0.950 . S
H800 C810 0.950 . S
H801 C812 0.950 . S
H802 C814 0.950 . S
H803 C815 0.950 . S
C804 H796 0.950 . S
C804 C805 1.386 . S
C804 C806 1.370 1_545 S
C805 C804 1.386 . S
C805 C809 1.393 . S
C806 H798 0.986 . S
C806 C804 1.370 1_565 S
C806 C807 1.387 1_565 S
C807 C806 1.387 1_545 S
C807 C808 1.398 . S
C807 C813 1.491 1_545 S
C808 H799 0.950 . S
C808 C807 1.398 . S
C808 C809 1.391 . S
C809 H797 0.950 . S
C809 C805 1.393 . S
C809 C808 1.391 . S
C810 H800 0.950 . S
C810 C811 1.386 . S
C810 C812 1.391 1_565 S
C811 C810 1.386 . S
C811 C815 1.393 . S
C812 H801 0.950 . S
C812 C810 1.391 1_545 S
C812 C813 1.400 1_545 S
C813 C807 1.491 1_565 S
C813 C812 1.400 1_565 S
C813 C814 1.398 . S
C814 H802 0.950 . S
C814 C813 1.398 . S
C814 C815 1.391 . S
C815 H803 0.950 . S
C815 C811 1.393 . S
C815 C814 1.391 . S
H816 C824 0.950 . S
H817 C829 0.950 . S
H818 C826 0.950 . S
H819 C828 0.950 . S
H820 C830 0.950 . S
H821 C832 0.950 . S
H822 C834 0.950 . S
H823 C835 0.950 . S
C824 H816 0.950 . S
C824 C825 1.386 . S
C824 C826 1.391 . S
C825 C824 1.386 . S
C825 C829 1.393 . S
C826 H818 0.950 . S
C826 C824 1.391 . S
C826 C827 1.400 . S
C827 C826 1.400 . S
C827 C828 1.398 . S
C827 C833 1.491 . S
C828 H819 0.950 . S
C828 C827 1.398 . S
C828 C829 1.391 . S
C829 H817 0.950 . S
C829 C825 1.393 . S
C829 C828 1.391 . S
C830 H820 0.950 . S
C830 C831 1.386 . S
C830 C832 1.391 . S
C831 C830 1.386 . S
C831 C835 1.393 . S
C832 H821 0.950 . S
C832 C830 1.391 . S
C832 C833 1.400 . S
C833 C827 1.491 . S
C833 C832 1.400 . S
C833 C834 1.398 . S
C834 H822 0.950 . S
C834 C833 1.398 . S
C834 C835 1.391 . S
C835 H823 0.950 . S
C835 C831 1.393 . S
C835 C834 1.391 . S
H836 C844 0.950 . S
H837 C849 0.950 . S
H838 C846 0.950 1_565 S
H839 C848 0.950 . S
H840 C850 0.950 . S
H841 C852 0.950 1_545 S
H842 C854 0.950 . S
H843 C855 0.950 . S
C844 H836 0.950 . S
C844 C845 1.386 . S
C844 C846 1.391 . S
C845 C844 1.386 . S
C845 C849 1.393 . S
C846 H838 0.950 1_545 S
C846 C844 1.391 . S
C846 C847 1.400 1_556 S
C847 C846 1.400 1_554 S
C847 C848 1.398 . S
C847 C853 1.491 1_545 S
C848 H839 0.950 . S
C848 C847 1.398 . S
C848 C849 1.391 1_554 S
C849 H837 0.950 . S
C849 C845 1.393 . S
C849 C848 1.391 1_556 S
C850 H840 0.950 . S
C850 C851 1.386 . S
C850 C852 1.391 . S
C851 C850 1.386 . S
C851 C855 1.393 . S
C852 H841 0.950 1_565 S
C852 C850 1.391 . S
C852 C853 1.400 . S
C853 C847 1.491 1_565 S
C853 C852 1.400 . S
C853 C854 1.398 . S
C854 H842 0.950 . S
C854 C853 1.398 . S
C854 C855 1.391 . S
C855 H843 0.950 . S
C855 C851 1.393 . S
C855 C854 1.391 . S
H856 C864 0.950 . S
H857 C869 0.950 . S
H858 C866 0.950 . S
H859 C868 0.950 . S
H860 C870 0.950 . S
H861 C872 0.950 . S
H862 C874 0.950 . S
H863 C875 0.950 . S
C864 H856 0.950 . S
C864 C865 1.386 . S
C864 C866 1.391 . S
C865 C864 1.386 . S
C865 C869 1.393 . S
C866 H858 0.950 . S
C866 C864 1.391 . S
C866 C867 1.400 . S
C867 C866 1.400 . S
C867 C868 1.398 . S
C867 C873 1.491 . S
C868 H859 0.950 . S
C868 C867 1.398 . S
C868 C869 1.391 . S
C869 H857 0.950 . S
C869 C865 1.393 . S
C869 C868 1.391 . S
C870 H860 0.950 . S
C870 C871 1.386 . S
C870 C872 1.391 . S
C871 C870 1.386 . S
C871 C875 1.393 . S
C872 H861 0.950 . S
C872 C870 1.391 . S
C872 C873 1.400 . S
C873 C867 1.491 . S
C873 C872 1.400 . S
C873 C874 1.398 . S
C874 H862 0.950 . S
C874 C873 1.398 . S
C874 C875 1.391 . S
C875 H863 0.950 . S
C875 C871 1.393 . S
C875 C874 1.391 . S
H876 C884 0.950 . S
H877 C889 0.950 . S
H878 C886 0.950 . S
H879 C888 0.950 . S
H880 C890 0.950 . S
H881 C892 0.950 . S
H882 C894 0.981 . S
H883 C895 0.950 . S
C884 H876 0.950 . S
C884 C885 1.386 . S
C884 C886 1.391 . S
C885 C884 1.386 . S
C885 C889 1.393 . S
C886 H878 0.950 . S
C886 C884 1.391 . S
C886 C887 1.400 . S
C887 C886 1.400 . S
C887 C888 1.398 . S
C887 C893 1.491 1_545 S
C888 H879 0.950 . S
C888 C887 1.398 . S
C888 C889 1.391 . S
C889 H877 0.950 . S
C889 C885 1.393 . S
C889 C888 1.391 . S
C890 H880 0.950 . S
C890 C891 1.386 . S
C890 C892 1.391 . S
C891 C890 1.386 . S
C891 C895 1.393 . S
C892 H881 0.950 . S
C892 C890 1.391 . S
C892 C893 1.400 . S
C893 C887 1.491 1_565 S
C893 C892 1.400 . S
C893 C894 1.398 . S
C894 H882 0.981 . S
C894 C893 1.398 . S
C894 C895 1.391 . S
C895 H883 0.950 . S
C895 C891 1.393 . S
C895 C894 1.391 . S
H896 C904 0.950 . S
H897 C909 0.950 . S
H898 C906 0.950 . S
H899 C908 0.950 . S
H900 C910 0.950 . S
H901 C912 0.950 . S
H902 C914 0.950 . S
H903 C915 0.950 . S
C904 H896 0.950 . S
C904 C905 1.386 . S
C904 C906 1.391 . S
C905 C904 1.386 . S
C905 C909 1.393 . S
C906 H898 0.950 . S
C906 C904 1.391 . S
C906 C907 1.400 . S
C907 C906 1.400 . S
C907 C908 1.398 . S
C907 C913 1.491 . S
C908 H899 0.950 . S
C908 C907 1.398 . S
C908 C909 1.391 . S
C909 H897 0.950 . S
C909 C905 1.393 . S
C909 C908 1.391 . S
C910 H900 0.950 . S
C910 C911 1.386 . S
C910 C912 1.391 . S
C911 C910 1.386 . S
C911 C915 1.393 . S
C912 H901 0.950 . S
C912 C910 1.391 . S
C912 C913 1.400 . S
C913 C907 1.491 . S
C913 C912 1.400 . S
C913 C914 1.398 . S
C914 H902 0.950 . S
C914 C913 1.398 . S
C914 C915 1.391 . S
C915 H903 0.950 . S
C915 C911 1.393 . S
C915 C914 1.391 . S
H916 C924 0.950 . S
H917 C929 0.950 . S
H918 C926 0.950 . S
H919 C928 0.950 . S
H920 C930 0.950 . S
H921 C932 0.950 . S
H922 C934 0.950 . S
H923 C935 0.950 . S
C924 H916 0.950 . S
C924 C925 1.386 . S
C924 C926 1.391 . S
C925 C924 1.386 . S
C925 C929 1.393 . S
C926 H918 0.950 . S
C926 C924 1.391 . S
C926 C927 1.400 . S
C927 C926 1.400 . S
C927 C928 1.398 . S
C927 C933 1.491 . S
C928 H919 0.950 . S
C928 C927 1.398 . S
C928 C929 1.391 . S
C929 H917 0.950 . S
C929 C925 1.393 . S
C929 C928 1.391 . S
C930 H920 0.950 . S
C930 C931 1.386 . S
C930 C932 1.391 . S
C931 C930 1.386 . S
C931 C935 1.393 . S
C932 H921 0.950 . S
C932 C930 1.391 . S
C932 C933 1.400 . S
C933 C927 1.491 . S
C933 C932 1.400 . S
C933 C934 1.398 . S
C934 H922 0.950 . S
C934 C933 1.398 . S
C934 C935 1.391 . S
C935 H923 0.950 . S
C935 C931 1.393 . S
C935 C934 1.391 . S
H936 C944 0.950 . S
H937 C949 0.950 . S
H938 C946 0.950 . S
H939 C948 0.950 . S
H940 C950 0.950 . S
H941 C952 0.950 . S
H942 C954 0.950 . S
H943 C955 0.950 . S
C944 H936 0.950 . S
C944 C945 1.386 . S
C944 C946 1.391 . S
C945 C944 1.386 . S
C945 C949 1.393 . S
C946 H938 0.950 . S
C946 C944 1.391 . S
C946 C947 1.400 . S
C947 C946 1.400 . S
C947 C948 1.398 . S
C947 C953 1.491 . S
C948 H939 0.950 . S
C948 C947 1.398 . S
C948 C949 1.391 . S
C949 H937 0.950 . S
C949 C945 1.393 . S
C949 C948 1.391 . S
C950 H940 0.950 . S
C950 C951 1.386 . S
C950 C952 1.391 . S
C951 C950 1.386 . S
C951 C955 1.393 . S
C952 H941 0.950 . S
C952 C950 1.391 . S
C952 C953 1.400 . S
C953 C947 1.491 . S
C953 C952 1.400 . S
C953 C954 1.398 . S
C954 H942 0.950 . S
C954 C953 1.398 . S
C954 C955 1.391 . S
C955 H943 0.950 . S
C955 C951 1.393 . S
C955 C954 1.391 . S
H956 C964 0.950 . S
H957 C969 0.950 . S
H958 C966 0.950 . S
H959 C968 0.950 . S
H960 C970 0.950 . S
H961 C972 0.950 . S
H962 C974 0.950 . S
H963 C975 0.950 . S
C964 H956 0.950 . S
C964 C965 1.386 . S
C964 C966 1.391 . S
C965 C964 1.386 . S
C965 C969 1.393 . S
C966 H958 0.950 . S
C966 C964 1.391 . S
C966 C967 1.400 . S
C967 C966 1.400 . S
C967 C968 1.398 . S
C967 C973 1.491 . S
C968 H959 0.950 . S
C968 C967 1.398 . S
C968 C969 1.391 . S
C969 H957 0.950 . S
C969 C965 1.393 . S
C969 C968 1.391 . S
C970 H960 0.950 . S
C970 C971 1.386 . S
C970 C972 1.391 . S
C971 C970 1.386 . S
C971 C975 1.393 . S
C972 H961 0.950 . S
C972 C970 1.391 . S
C972 C973 1.400 1_556 S
C973 C967 1.491 . S
C973 C972 1.400 1_554 S
C973 C974 1.398 . S
C974 H962 0.950 . S
C974 C973 1.398 . S
C974 C975 1.391 1_554 S
C975 H963 0.950 . S
C975 C971 1.393 . S
C975 C974 1.391 1_556 S
H976 C984 0.950 . S
H977 C989 0.950 . S
H978 C986 0.950 . S
H979 C988 0.950 . S
H980 C990 0.950 . S
H981 C992 0.950 . S
H982 C994 0.950 . S
H983 C995 0.950 . S
C984 H976 0.950 . S
C984 C985 1.386 . S
C984 C986 1.391 . S
C985 C984 1.386 . S
C985 C989 1.393 . S
C986 H978 0.950 . S
C986 C984 1.391 . S
C986 C987 1.400 . S
C987 C986 1.400 . S
C987 C988 1.398 . S
C987 C993 1.491 . S
C988 H979 0.950 . S
C988 C987 1.398 . S
C988 C989 1.391 . S
C989 H977 0.950 . S
C989 C985 1.393 . S
C989 C988 1.391 . S
C990 H980 0.950 . S
C990 C991 1.386 . S
C990 C992 1.391 . S
C991 C990 1.386 . S
C991 C995 1.393 . S
C992 H981 0.950 . S
C992 C990 1.391 . S
C992 C993 1.400 . S
C993 C987 1.491 . S
C993 C992 1.400 . S
C993 C994 1.398 . S
C994 H982 0.950 . S
C994 C993 1.398 . S
C994 C995 1.391 . S
C995 H983 0.950 . S
C995 C991 1.393 . S
C995 C994 1.391 . S
H996 C1004 0.950 . S
H997 C1009 0.950 . S
H998 C1006 0.950 . S
H999 C1008 0.950 . S
H1000 C1010 0.950 . S
H1001 C1012 0.950 . S
H1002 C1014 0.950 . S
H1003 C1015 0.950 . S
C1004 H996 0.950 . S
C1004 C1005 1.386 . S
C1004 C1006 1.391 . S
C1005 C1004 1.386 . S
C1005 C1009 1.393 . S
C1006 H998 0.950 . S
C1006 C1004 1.391 . S
C1006 C1007 1.400 . S
C1007 C1006 1.400 . S
C1007 C1008 1.398 . S
C1007 C1013 1.491 . S
C1008 H999 0.950 . S
C1008 C1007 1.398 . S
C1008 C1009 1.391 . S
C1009 H997 0.950 . S
C1009 C1005 1.393 . S
C1009 C1008 1.391 . S
C1010 H1000 0.950 . S
C1010 C1011 1.386 . S
C1010 C1012 1.391 . S
C1011 C1010 1.386 . S
C1011 C1015 1.393 . S
C1012 H1001 0.950 . S
C1012 C1010 1.391 . S
C1012 C1013 1.400 . S
C1013 C1007 1.491 . S
C1013 C1012 1.400 . S
C1013 C1014 1.398 . S
C1014 H1002 0.950 . S
C1014 C1013 1.398 . S
C1014 C1015 1.391 . S
C1015 H1003 0.950 . S
C1015 C1011 1.393 . S
C1015 C1014 1.391 . S
H1016 C1024 0.950 . S
H1017 C1029 0.950 . S
H1018 C1026 0.950 . S
H1019 C1028 0.950 . S
H1020 C1030 0.950 . S
H1021 C1032 0.950 . S
H1022 C1034 0.950 . S
H1023 C1035 0.950 . S
C1024 H1016 0.950 . S
C1024 C1025 1.386 . S
C1024 C1026 1.391 . S
C1025 C1024 1.386 . S
C1025 C1029 1.393 . S
C1026 H1018 0.950 . S
C1026 C1024 1.391 . S
C1026 C1027 1.400 . S
C1027 C1026 1.400 . S
C1027 C1028 1.398 . S
C1027 C1033 1.491 . S
C1028 H1019 0.950 . S
C1028 C1027 1.398 . S
C1028 C1029 1.391 . S
C1029 H1017 0.950 . S
C1029 C1025 1.393 . S
C1029 C1028 1.391 . S
C1030 H1020 0.950 . S
C1030 C1031 1.386 . S
C1030 C1032 1.391 . S
C1031 C1030 1.386 . S
C1031 C1035 1.393 . S
C1032 H1021 0.950 . S
C1032 C1030 1.391 . S
C1032 C1033 1.400 . S
C1033 C1027 1.491 . S
C1033 C1032 1.400 . S
C1033 C1034 1.398 . S
C1034 H1022 0.950 . S
C1034 C1033 1.398 . S
C1034 C1035 1.391 . S
C1035 H1023 0.950 . S
C1035 C1031 1.393 . S
C1035 C1034 1.391 . S
H1036 C1044 0.950 . S
H1037 C1049 0.950 . S
H1038 C1046 0.950 . S
H1039 C1048 0.950 . S
H1040 C1050 0.950 . S
H1041 C1052 0.950 . S
H1042 C1054 0.950 . S
H1043 C1055 0.950 . S
C1044 H1036 0.950 . S
C1044 C1045 1.386 . S
C1044 C1046 1.391 . S
C1045 C1044 1.386 . S
C1045 C1049 1.393 . S
C1046 H1038 0.950 . S
C1046 C1044 1.391 . S
C1046 C1047 1.400 . S
C1047 C1046 1.400 . S
C1047 C1048 1.398 . S
C1047 C1053 1.491 . S
C1048 H1039 0.950 . S
C1048 C1047 1.398 . S
C1048 C1049 1.391 . S
C1049 H1037 0.950 . S
C1049 C1045 1.393 . S
C1049 C1048 1.391 . S
C1050 H1040 0.950 . S
C1050 C1051 1.386 . S
C1050 C1052 1.391 1_556 S
C1051 C1050 1.386 . S
C1051 C1055 1.393 . S
C1052 H1041 0.950 . S
C1052 C1050 1.391 1_554 S
C1052 C1053 1.400 . S
C1053 C1047 1.491 . S
C1053 C1052 1.400 . S
C1053 C1054 1.398 1_554 S
C1054 H1042 0.950 . S
C1054 C1053 1.398 1_556 S
C1054 C1055 1.391 . S
C1055 H1043 0.950 . S
C1055 C1051 1.393 . S
C1055 C1054 1.391 . S
H1056 C1064 0.950 . S
H1057 C1069 0.950 . S
H1058 C1066 0.950 . S
H1059 C1068 0.950 . S
H1060 C1070 0.950 . S
H1061 C1072 0.950 . S
H1062 C1074 0.950 . S
H1063 C1075 0.950 . S
C1064 H1056 0.950 . S
C1064 C1065 1.386 1_556 S
C1064 C1066 1.391 . S
C1065 C1064 1.386 1_554 S
C1065 C1069 1.393 . S
C1066 H1058 0.950 . S
C1066 C1064 1.391 . S
C1066 C1067 1.400 1_556 S
C1067 C1066 1.400 1_554 S
C1067 C1068 1.398 . S
C1067 C1073 1.491 . S
C1068 H1059 0.950 . S
C1068 C1067 1.398 . S
C1068 C1069 1.391 . S
C1069 H1057 0.950 . S
C1069 C1065 1.393 . S
C1069 C1068 1.391 . S
C1070 H1060 0.950 . S
C1070 C1071 1.386 . S
C1070 C1072 1.391 . S
C1071 C1070 1.386 . S
C1071 C1075 1.393 1_554 S
C1072 H1061 0.950 . S
C1072 C1070 1.391 . S
C1072 C1073 1.400 . S
C1073 C1067 1.491 . S
C1073 C1072 1.400 . S
C1073 C1074 1.398 1_554 S
C1074 H1062 0.950 . S
C1074 C1073 1.398 1_556 S
C1074 C1075 1.391 . S
C1075 H1063 0.950 . S
C1075 C1071 1.393 1_556 S
C1075 C1074 1.391 . S
H1076 C1084 0.950 . S
H1077 C1089 0.950 . S
H1078 C1086 0.950 . S
H1079 C1088 0.950 . S
H1080 C1090 0.950 . S
H1081 C1092 0.950 . S
H1082 C1094 0.950 . S
H1083 C1095 0.950 . S
C1084 H1076 0.950 . S
C1084 C1085 1.386 . S
C1084 C1086 1.391 . S
C1085 C1084 1.386 . S
C1085 C1089 1.393 . S
C1086 H1078 0.950 . S
C1086 C1084 1.391 . S
C1086 C1087 1.400 . S
C1087 C1086 1.400 . S
C1087 C1088 1.398 . S
C1087 C1093 1.491 1_455 S
C1088 H1079 0.950 . S
C1088 C1087 1.398 . S
C1088 C1089 1.391 . S
C1089 H1077 0.950 . S
C1089 C1085 1.393 . S
C1089 C1088 1.391 . S
C1090 H1080 0.950 . S
C1090 C1091 1.386 . S
C1090 C1092 1.391 . S
C1091 C1090 1.386 . S
C1091 C1095 1.393 . S
C1092 H1081 0.950 . S
C1092 C1090 1.391 . S
C1092 C1093 1.400 . S
C1093 C1087 1.491 1_655 S
C1093 C1092 1.400 . S
C1093 C1094 1.398 . S
C1094 H1082 0.950 . S
C1094 C1093 1.398 . S
C1094 C1095 1.391 . S
C1095 H1083 0.950 . S
C1095 C1091 1.393 . S
C1095 C1094 1.391 . S
H1096 C1104 0.950 . S
H1097 C1109 0.950 . S
H1098 C1106 0.950 . S
H1099 C1108 0.950 . S
H1100 C1110 0.950 . S
H1101 C1112 0.950 . S
H1102 C1114 0.950 . S
H1103 C1115 0.950 . S
C1104 H1096 0.950 . S
C1104 C1105 1.386 . S
C1104 C1106 1.391 . S
C1105 C1104 1.386 . S
C1105 C1109 1.393 . S
C1106 H1098 0.950 . S
C1106 C1104 1.391 . S
C1106 C1107 1.400 . S
C1107 C1106 1.400 . S
C1107 C1108 1.398 . S
C1107 C1113 1.491 . S
C1108 H1099 0.950 . S
C1108 C1107 1.398 . S
C1108 C1109 1.391 . S
C1109 H1097 0.950 . S
C1109 C1105 1.393 . S
C1109 C1108 1.391 . S
C1110 H1100 0.950 . S
C1110 C1111 1.386 . S
C1110 C1112 1.391 . S
C1111 C1110 1.386 . S
C1111 C1115 1.393 . S
C1112 H1101 0.950 . S
C1112 C1110 1.391 . S
C1112 C1113 1.400 . S
C1113 C1107 1.491 . S
C1113 C1112 1.400 . S
C1113 C1114 1.398 . S
C1114 H1102 0.950 . S
C1114 C1113 1.398 . S
C1114 C1115 1.391 . S
C1115 H1103 0.950 . S
C1115 C1111 1.393 . S
C1115 C1114 1.391 . S
H1116 C1124 0.950 . S
H1117 C1129 0.950 . S
H1118 C1126 0.950 . S
H1119 C1128 0.950 . S
H1120 C1130 0.950 . S
H1121 C1132 0.950 . S
H1122 C1134 0.950 . S
H1123 C1135 0.950 . S
C1124 H1116 0.950 . S
C1124 C1125 1.386 . S
C1124 C1126 1.391 . S
C1125 C1124 1.386 . S
C1125 C1129 1.393 . S
C1126 H1118 0.950 . S
C1126 C1124 1.391 . S
C1126 C1127 1.400 . S
C1127 C1126 1.400 . S
C1127 C1128 1.398 . S
C1127 C1133 1.491 . S
C1128 H1119 0.950 . S
C1128 C1127 1.398 . S
C1128 C1129 1.391 . S
C1129 H1117 0.950 . S
C1129 C1125 1.393 . S
C1129 C1128 1.391 . S
C1130 H1120 0.950 . S
C1130 C1131 1.386 . S
C1130 C1132 1.391 . S
C1131 C1130 1.386 . S
C1131 C1135 1.393 . S
C1132 H1121 0.950 . S
C1132 C1130 1.391 . S
C1132 C1133 1.400 . S
C1133 C1127 1.491 . S
C1133 C1132 1.400 . S
C1133 C1134 1.398 . S
C1134 H1122 0.950 . S
C1134 C1133 1.398 . S
C1134 C1135 1.391 . S
C1135 H1123 0.950 . S
C1135 C1131 1.393 . S
C1135 C1134 1.391 . S
H1136 C1144 0.950 . S
H1137 C1149 0.950 . S
H1138 C1146 0.950 . S
H1139 C1148 0.950 . S
H1140 C1150 0.950 . S
H1141 C1152 0.950 . S
H1142 C1154 0.950 . S
H1143 C1155 0.950 . S
C1144 H1136 0.950 . S
C1144 C1145 1.386 . S
C1144 C1146 1.391 . S
C1145 C1144 1.386 . S
C1145 C1149 1.393 . S
C1146 H1138 0.950 . S
C1146 C1144 1.391 . S
C1146 C1147 1.400 . S
C1147 C1146 1.400 . S
C1147 C1148 1.398 . S
C1147 C1153 1.491 . S
C1148 H1139 0.950 . S
C1148 C1147 1.398 . S
C1148 C1149 1.391 . S
C1149 H1137 0.950 . S
C1149 C1145 1.393 . S
C1149 C1148 1.391 . S
C1150 H1140 0.950 . S
C1150 C1151 1.386 . S
C1150 C1152 1.391 . S
C1151 C1150 1.386 . S
C1151 C1155 1.393 . S
C1152 H1141 0.950 . S
C1152 C1150 1.391 . S
C1152 C1153 1.400 . S
C1153 C1147 1.491 . S
C1153 C1152 1.400 . S
C1153 C1154 1.398 . S
C1154 H1142 0.950 . S
C1154 C1153 1.398 . S
C1154 C1155 1.391 . S
C1155 H1143 0.950 . S
C1155 C1151 1.393 . S
C1155 C1154 1.391 . S
H1156 C1164 0.950 . S
H1157 C1169 0.950 . S
H1158 C1166 0.950 . S
H1159 C1168 0.950 . S
H1160 C1170 0.950 . S
H1161 C1172 0.950 . S
H1162 C1174 0.950 . S
H1163 C1175 0.950 . S
C1164 H1156 0.950 . S
C1164 C1165 1.386 . S
C1164 C1166 1.391 . S
C1165 C1164 1.386 . S
C1165 C1169 1.393 . S
C1166 H1158 0.950 . S
C1166 C1164 1.391 . S
C1166 C1167 1.400 . S
C1167 C1166 1.400 . S
C1167 C1168 1.398 . S
C1167 C1173 1.491 . S
C1168 H1159 0.950 . S
C1168 C1167 1.398 . S
C1168 C1169 1.391 . S
C1169 H1157 0.950 . S
C1169 C1165 1.393 . S
C1169 C1168 1.391 . S
C1170 H1160 0.950 . S
C1170 C1171 1.386 . S
C1170 C1172 1.391 . S
C1171 C1170 1.386 . S
C1171 C1175 1.393 . S
C1172 H1161 0.950 . S
C1172 C1170 1.391 . S
C1172 C1173 1.400 . S
C1173 C1167 1.491 . S
C1173 C1172 1.400 . S
C1173 C1174 1.398 . S
C1174 H1162 0.950 . S
C1174 C1173 1.398 . S
C1174 C1175 1.391 . S
C1175 H1163 0.950 . S
C1175 C1171 1.393 . S
C1175 C1174 1.391 . S
H1176 C1184 0.950 . S
H1177 C1189 0.950 . S
H1178 C1186 0.950 . S
H1179 C1188 0.950 . S
H1180 C1190 0.950 . S
H1181 C1192 0.950 . S
H1182 C1194 0.950 . S
H1183 C1195 0.950 . S
C1184 H1176 0.950 . S
C1184 C1185 1.386 . S
C1184 C1186 1.391 . S
C1185 C1184 1.386 . S
C1185 C1189 1.393 . S
C1186 H1178 0.950 . S
C1186 C1184 1.391 . S
C1186 C1187 1.400 . S
C1187 C1186 1.400 . S
C1187 C1188 1.398 . S
C1187 C1193 1.491 . S
C1188 H1179 0.950 . S
C1188 C1187 1.398 . S
C1188 C1189 1.391 . S
C1189 H1177 0.950 . S
C1189 C1185 1.393 . S
C1189 C1188 1.391 . S
C1190 H1180 0.950 . S
C1190 C1191 1.386 . S
C1190 C1192 1.391 . S
C1191 C1190 1.386 . S
C1191 C1195 1.393 . S
C1192 H1181 0.950 . S
C1192 C1190 1.391 . S
C1192 C1193 1.400 . S
C1193 C1187 1.491 . S
C1193 C1192 1.400 . S
C1193 C1194 1.398 . S
C1194 H1182 0.950 . S
C1194 C1193 1.398 . S
C1194 C1195 1.391 . S
C1195 H1183 0.950 . S
C1195 C1191 1.393 . S
C1195 C1194 1.391 . S
H1196 C1204 0.950 . S
H1197 C1209 0.950 . S
H1198 C1206 0.950 . S
H1199 C1208 0.950 . S
H1200 C1210 0.950 . S
H1201 C1212 0.950 . S
H1202 C1214 0.950 . S
H1203 C1215 0.950 . S
C1204 H1196 0.950 . S
C1204 C1205 1.386 . S
C1204 C1206 1.391 . S
C1205 C1204 1.386 . S
C1205 C1209 1.393 . S
C1206 H1198 0.950 . S
C1206 C1204 1.391 . S
C1206 C1207 1.400 . S
C1207 C1206 1.400 . S
C1207 C1208 1.398 . S
C1207 C1213 1.491 1_655 S
C1208 H1199 0.950 . S
C1208 C1207 1.398 . S
C1208 C1209 1.391 . S
C1209 H1197 0.950 . S
C1209 C1205 1.393 . S
C1209 C1208 1.391 . S
C1210 H1200 0.950 . S
C1210 C1211 1.386 . S
C1210 C1212 1.391 . S
C1211 C1210 1.386 . S
C1211 C1215 1.393 . S
C1212 H1201 0.950 . S
C1212 C1210 1.391 . S
C1212 C1213 1.400 . S
C1213 C1207 1.491 1_455 S
C1213 C1212 1.400 . S
C1213 C1214 1.398 . S
C1214 H1202 0.950 . S
C1214 C1213 1.398 . S
C1214 C1215 1.391 . S
C1215 H1203 0.950 . S
C1215 C1211 1.393 . S
C1215 C1214 1.391 . S
H1216 C1224 0.950 . S
H1217 C1229 0.950 1_556 S
H1218 C1226 0.950 . S
H1219 C1228 0.944 1_556 S
H1220 C1230 0.950 1_556 S
H1221 C1232 0.950 1_556 S
H1222 C1234 0.950 . S
H1223 C1235 0.950 . S
C1224 H1216 0.950 . S
C1224 C1225 1.386 . S
C1224 C1226 1.391 . S
C1225 C1224 1.386 . S
C1225 C1229 1.393 . S
C1226 H1218 0.950 . S
C1226 C1224 1.391 . S
C1226 C1227 1.400 . S
C1227 C1226 1.400 . S
C1227 C1228 1.404 . S
C1227 C1233 1.491 . S
C1228 H1219 0.944 1_554 S
C1228 C1227 1.404 . S
C1228 C1229 1.391 . S
C1229 H1217 0.950 1_554 S
C1229 C1225 1.393 . S
C1229 C1228 1.391 . S
C1230 H1220 0.950 1_554 S
C1230 C1231 1.386 . S
C1230 C1232 1.391 . S
C1231 C1230 1.386 . S
C1231 C1235 1.393 . S
C1232 H1221 0.950 1_554 S
C1232 C1230 1.391 . S
C1232 C1233 1.400 . S
C1233 C1227 1.491 . S
C1233 C1232 1.400 . S
C1233 C1234 1.398 . S
C1234 H1222 0.950 . S
C1234 C1233 1.398 . S
C1234 C1235 1.391 . S
C1235 H1223 0.950 . S
C1235 C1231 1.393 . S
C1235 C1234 1.391 . S
H1236 C1244 0.950 . S
H1237 C1249 0.950 . S
H1238 C1246 0.950 . S
H1239 C1248 0.950 . S
H1240 C1250 0.950 . S
H1241 C1252 0.950 . S
H1242 C1254 0.950 . S
H1243 C1255 0.950 . S
C1244 H1236 0.950 . S
C1244 C1245 1.386 . S
C1244 C1246 1.391 . S
C1245 C1244 1.386 . S
C1245 C1249 1.393 . S
C1246 H1238 0.950 . S
C1246 C1244 1.391 . S
C1246 C1247 1.400 . S
C1247 C1246 1.400 . S
C1247 C1248 1.398 . S
C1247 C1253 1.491 . S
C1248 H1239 0.950 . S
C1248 C1247 1.398 . S
C1248 C1249 1.391 . S
C1249 H1237 0.950 . S
C1249 C1245 1.393 . S
C1249 C1248 1.391 . S
C1250 H1240 0.950 . S
C1250 C1251 1.386 . S
C1250 C1252 1.391 . S
C1251 C1250 1.386 . S
C1251 C1255 1.393 . S
C1252 H1241 0.950 . S
C1252 C1250 1.391 . S
C1252 C1253 1.400 . S
C1253 C1247 1.491 . S
C1253 C1252 1.400 . S
C1253 C1254 1.398 . S
C1254 H1242 0.950 . S
C1254 C1253 1.398 . S
C1254 C1255 1.391 . S
C1255 H1243 0.950 . S
C1255 C1251 1.393 . S
C1255 C1254 1.391 . S
H1256 C1264 0.950 . S
H1257 C1269 0.950 1_556 S
H1258 C1266 0.950 . S
H1259 C1268 0.950 1_556 S
H1260 C1270 0.950 1_556 S
H1261 C1272 0.950 1_556 S
H1262 C1274 0.950 . S
H1263 C1275 0.950 . S
C1264 H1256 0.950 . S
C1264 C1265 1.386 . S
C1264 C1266 1.391 . S
C1265 C1264 1.386 . S
C1265 C1269 1.393 . S
C1266 H1258 0.950 . S
C1266 C1264 1.391 . S
C1266 C1267 1.400 . S
C1267 C1266 1.400 . S
C1267 C1268 1.398 . S
C1267 C1273 1.491 . S
C1268 H1259 0.950 1_554 S
C1268 C1267 1.398 . S
C1268 C1269 1.391 . S
C1269 H1257 0.950 1_554 S
C1269 C1265 1.393 . S
C1269 C1268 1.391 . S
C1270 H1260 0.950 1_554 S
C1270 C1271 1.386 . S
C1270 C1272 1.391 . S
C1271 C1270 1.386 . S
C1271 C1275 1.393 . S
C1272 H1261 0.950 1_554 S
C1272 C1270 1.391 . S
C1272 C1273 1.400 . S
C1273 C1267 1.491 . S
C1273 C1272 1.400 . S
C1273 C1274 1.398 . S
C1274 H1262 0.950 . S
C1274 C1273 1.398 . S
C1274 C1275 1.391 . S
C1275 H1263 0.950 . S
C1275 C1271 1.393 . S
C1275 C1274 1.391 . S
H1276 C1284 0.950 . S
H1277 C1289 0.950 . S
H1278 C1286 0.950 . S
H1279 C1288 0.950 . S
H1280 C1290 0.950 . S
H1281 C1292 0.950 . S
H1282 C1294 0.950 . S
H1283 C1295 0.950 . S
C1284 H1276 0.950 . S
C1284 C1285 1.386 . S
C1284 C1286 1.391 . S
C1285 C1284 1.386 . S
C1285 C1289 1.393 . S
C1286 H1278 0.950 . S
C1286 C1284 1.391 . S
C1286 C1287 1.400 . S
C1287 C1286 1.400 . S
C1287 C1288 1.398 . S
C1287 C1293 1.491 . S
C1288 H1279 0.950 . S
C1288 C1287 1.398 . S
C1288 C1289 1.391 . S
C1289 H1277 0.950 . S
C1289 C1285 1.393 . S
C1289 C1288 1.391 . S
C1290 H1280 0.950 . S
C1290 C1291 1.386 . S
C1290 C1292 1.391 . S
C1291 C1290 1.386 . S
C1291 C1295 1.393 . S
C1292 H1281 0.950 . S
C1292 C1290 1.391 . S
C1292 C1293 1.400 . S
C1293 C1287 1.491 . S
C1293 C1292 1.400 . S
C1293 C1294 1.398 . S
C1294 H1282 0.950 . S
C1294 C1293 1.398 . S
C1294 C1295 1.391 . S
C1295 H1283 0.950 . S
C1295 C1291 1.393 . S
C1295 C1294 1.391 . S
H1296 C1304 0.950 . S
H1297 C1309 0.950 . S
H1298 C1306 0.950 . S
H1299 C1308 0.950 . S
H1300 C1310 0.950 . S
H1301 C1312 0.950 . S
H1302 C1314 0.950 . S
H1303 C1315 0.950 . S
C1304 H1296 0.950 . S
C1304 C1305 1.386 . S
C1304 C1306 1.391 . S
C1305 C1304 1.386 . S
C1305 C1309 1.393 . S
C1306 H1298 0.950 . S
C1306 C1304 1.391 . S
C1306 C1307 1.400 . S
C1307 C1306 1.400 . S
C1307 C1308 1.398 . S
C1307 C1313 1.491 . S
C1308 H1299 0.950 . S
C1308 C1307 1.398 . S
C1308 C1309 1.391 . S
C1309 H1297 0.950 . S
C1309 C1305 1.393 . S
C1309 C1308 1.391 . S
C1310 H1300 0.950 . S
C1310 C1311 1.386 . S
C1310 C1312 1.391 . S
C1311 C1310 1.386 . S
C1311 C1315 1.393 . S
C1312 H1301 0.950 . S
C1312 C1310 1.391 . S
C1312 C1313 1.400 . S
C1313 C1307 1.491 . S
C1313 C1312 1.400 . S
C1313 C1314 1.398 . S
C1314 H1302 0.950 . S
C1314 C1313 1.398 . S
C1314 C1315 1.391 . S
C1315 H1303 0.950 . S
C1315 C1311 1.393 . S
C1315 C1314 1.391 . S
H1316 C1324 0.950 . S
H1317 C1329 0.950 . S
H1318 C1326 0.950 . S
H1319 C1328 0.950 . S
H1320 C1330 0.950 . S
H1321 C1332 0.950 . S
H1322 C1334 0.950 . S
H1323 C1335 0.950 . S
C1324 H1316 0.950 . S
C1324 C1325 1.386 . S
C1324 C1326 1.391 . S
C1325 C1324 1.386 . S
C1325 C1329 1.393 . S
C1326 H1318 0.950 . S
C1326 C1324 1.391 . S
C1326 C1327 1.400 . S
C1327 C1326 1.400 . S
C1327 C1328 1.398 . S
C1327 C1333 1.491 1_655 S
C1328 H1319 0.950 . S
C1328 C1327 1.398 . S
C1328 C1329 1.391 . S
C1329 H1317 0.950 . S
C1329 C1325 1.393 . S
C1329 C1328 1.391 . S
C1330 H1320 0.950 . S
C1330 C1331 1.386 . S
C1330 C1332 1.391 . S
C1331 C1330 1.386 . S
C1331 C1335 1.393 . S
C1332 H1321 0.950 . S
C1332 C1330 1.391 . S
C1332 C1333 1.400 . S
C1333 C1327 1.491 1_455 S
C1333 C1332 1.400 . S
C1333 C1334 1.398 . S
C1334 H1322 0.950 . S
C1334 C1333 1.398 . S
C1334 C1335 1.391 . S
C1335 H1323 0.950 . S
C1335 C1331 1.393 . S
C1335 C1334 1.391 . S
H1336 C1344 0.950 . S
H1337 C1349 0.950 . S
H1338 C1346 0.950 . S
H1339 C1348 0.950 . S
H1340 C1350 0.950 . S
H1341 C1352 0.950 . S
H1342 C1354 0.950 . S
H1343 C1355 0.950 . S
C1344 H1336 0.950 . S
C1344 C1345 1.386 . S
C1344 C1346 1.391 . S
C1345 C1344 1.386 . S
C1345 C1349 1.393 . S
C1346 H1338 0.950 . S
C1346 C1344 1.391 . S
C1346 C1347 1.400 . S
C1347 C1346 1.400 . S
C1347 C1348 1.398 . S
C1347 C1353 1.491 1_655 S
C1348 H1339 0.950 . S
C1348 C1347 1.398 . S
C1348 C1349 1.391 . S
C1349 H1337 0.950 . S
C1349 C1345 1.393 . S
C1349 C1348 1.391 . S
C1350 H1340 0.950 . S
C1350 C1351 1.386 . S
C1350 C1352 1.391 . S
C1351 C1350 1.386 . S
C1351 C1355 1.393 . S
C1352 H1341 0.950 . S
C1352 C1350 1.391 . S
C1352 C1353 1.400 . S
C1353 C1347 1.491 1_455 S
C1353 C1352 1.400 . S
C1353 C1354 1.398 . S
C1354 H1342 0.950 . S
C1354 C1353 1.398 . S
C1354 C1355 1.391 . S
C1355 H1343 0.950 . S
C1355 C1351 1.393 . S
C1355 C1354 1.391 . S
H1356 C1364 0.950 . S
H1357 C1369 0.950 . S
H1358 C1366 0.950 . S
H1359 C1368 0.950 . S
H1360 C1370 0.950 . S
H1361 C1372 0.950 . S
H1362 C1374 0.950 . S
H1363 C1375 0.950 . S
C1364 H1356 0.950 . S
C1364 C1365 1.386 . S
C1364 C1366 1.391 . S
C1365 C1364 1.386 . S
C1365 C1369 1.393 . S
C1366 H1358 0.950 . S
C1366 C1364 1.391 . S
C1366 C1367 1.400 . S
C1367 C1366 1.400 . S
C1367 C1368 1.398 . S
C1367 C1373 1.491 . S
C1368 H1359 0.950 . S
C1368 C1367 1.398 . S
C1368 C1369 1.391 . S
C1369 H1357 0.950 . S
C1369 C1365 1.393 . S
C1369 C1368 1.391 . S
C1370 H1360 0.950 . S
C1370 C1371 1.386 . S
C1370 C1372 1.391 . S
C1371 C1370 1.386 . S
C1371 C1375 1.393 . S
C1372 H1361 0.950 . S
C1372 C1370 1.391 . S
C1372 C1373 1.400 . S
C1373 C1367 1.491 . S
C1373 C1372 1.400 . S
C1373 C1374 1.398 . S
C1374 H1362 0.950 . S
C1374 C1373 1.398 . S
C1374 C1375 1.391 . S
C1375 H1363 0.950 . S
C1375 C1371 1.393 . S
C1375 C1374 1.391 . S
H1376 C1384 0.950 . S
H1377 C1389 0.950 . S
H1378 C1386 0.950 . S
H1379 C1388 0.950 . S
H1380 C1390 0.950 . S
H1381 C1392 0.950 . S
H1382 C1394 0.950 . S
H1383 C1395 0.950 . S
C1384 H1376 0.950 . S
C1384 C1385 1.386 . S
C1384 C1386 1.391 . S
C1385 C1384 1.386 . S
C1385 C1389 1.393 . S
C1386 H1378 0.950 . S
C1386 C1384 1.391 . S
C1386 C1387 1.400 . S
C1387 C1386 1.400 . S
C1387 C1388 1.398 . S
C1387 C1393 1.491 . S
C1388 H1379 0.950 . S
C1388 C1387 1.398 . S
C1388 C1389 1.391 . S
C1389 H1377 0.950 . S
C1389 C1385 1.393 . S
C1389 C1388 1.391 . S
C1390 H1380 0.950 . S
C1390 C1391 1.386 . S
C1390 C1392 1.391 . S
C1391 C1390 1.386 . S
C1391 C1395 1.393 . S
C1392 H1381 0.950 . S
C1392 C1390 1.391 . S
C1392 C1393 1.400 . S
C1393 C1387 1.491 . S
C1393 C1392 1.400 . S
C1393 C1394 1.398 . S
C1394 H1382 0.950 . S
C1394 C1393 1.398 . S
C1394 C1395 1.391 . S
C1395 H1383 0.950 . S
C1395 C1391 1.393 . S
C1395 C1394 1.391 . S
H1396 C1404 0.950 . S
H1397 C1409 0.950 . S
H1398 C1406 0.950 . S
H1399 C1408 0.914 1_545 S
H1400 C1410 0.950 . S
H1401 C1412 0.950 . S
H1402 C1414 0.940 1_565 S
H1403 C1415 0.950 . S
C1404 H1396 0.950 . S
C1404 C1405 1.386 . S
C1404 C1406 1.391 . S
C1405 C1404 1.386 . S
C1405 C1409 1.393 . S
C1406 H1398 0.950 . S
C1406 C1404 1.391 . S
C1406 C1407 1.400 . S
C1407 C1406 1.400 . S
C1407 C1408 1.398 . S
C1407 C1413 1.491 1_565 S
C1408 H1399 0.914 1_565 S
C1408 C1407 1.398 . S
C1408 C1409 1.391 . S
C1409 H1397 0.950 . S
C1409 C1405 1.393 . S
C1409 C1408 1.391 . S
C1410 H1400 0.950 . S
C1410 C1411 1.386 . S
C1410 C1412 1.391 . S
C1411 C1410 1.386 . S
C1411 C1415 1.393 . S
C1412 H1401 0.950 . S
C1412 C1410 1.391 . S
C1412 C1413 1.400 . S
C1413 C1407 1.491 1_545 S
C1413 C1412 1.400 . S
C1413 C1414 1.398 . S
C1414 H1402 0.940 1_545 S
C1414 C1413 1.398 . S
C1414 C1415 1.391 . S
C1415 H1403 0.950 . S
C1415 C1411 1.393 . S
C1415 C1414 1.391 . S
H1416 C1424 0.950 . S
H1417 C1429 0.950 . S
H1418 C1426 0.950 . S
H1419 C1428 0.950 . S
H1420 C1430 0.950 . S
H1421 C1432 0.950 . S
H1422 C1434 0.950 . S
H1423 C1435 0.950 . S
C1424 H1416 0.950 . S
C1424 C1425 1.386 . S
C1424 C1426 1.391 . S
C1425 C1424 1.386 . S
C1425 C1429 1.393 . S
C1426 H1418 0.950 . S
C1426 C1424 1.391 . S
C1426 C1427 1.400 . S
C1427 C1426 1.400 . S
C1427 C1428 1.398 . S
C1427 C1433 1.491 . S
C1428 H1419 0.950 . S
C1428 C1427 1.398 . S
C1428 C1429 1.391 . S
C1429 H1417 0.950 . S
C1429 C1425 1.393 . S
C1429 C1428 1.391 . S
C1430 H1420 0.950 . S
C1430 C1431 1.386 . S
C1430 C1432 1.391 . S
C1431 C1430 1.386 . S
C1431 C1435 1.393 . S
C1432 H1421 0.950 . S
C1432 C1430 1.391 . S
C1432 C1433 1.400 . S
C1433 C1427 1.491 . S
C1433 C1432 1.400 . S
C1433 C1434 1.398 . S
C1434 H1422 0.950 . S
C1434 C1433 1.398 . S
C1434 C1435 1.391 . S
C1435 H1423 0.950 . S
C1435 C1431 1.393 . S
C1435 C1434 1.391 . S
H1436 C1444 0.950 . S
H1437 C1449 0.950 . S
H1438 C1446 0.958 . S
H1439 C1448 0.950 . S
H1440 C1450 0.950 . S
H1441 C1452 1.003 . S
H1442 C1454 0.950 . S
H1443 C1455 0.950 . S
C1444 H1436 0.950 . S
C1444 C1445 1.386 . S
C1444 C1446 1.386 1_545 S
C1445 C1444 1.386 . S
C1445 C1449 1.393 . S
C1446 H1438 0.958 . S
C1446 C1444 1.386 1_565 S
C1446 C1447 1.397 1_566 S
C1447 C1446 1.397 1_544 S
C1447 C1448 1.398 . S
C1447 C1453 1.491 1_545 S
C1448 H1439 0.950 . S
C1448 C1447 1.398 . S
C1448 C1449 1.391 1_554 S
C1449 H1437 0.950 . S
C1449 C1445 1.393 . S
C1449 C1448 1.391 1_556 S
C1450 H1440 0.950 . S
C1450 C1451 1.386 . S
C1450 C1452 1.359 1_565 S
C1451 C1450 1.386 . S
C1451 C1455 1.393 . S
C1452 H1441 1.003 . S
C1452 C1450 1.359 1_545 S
C1452 C1453 1.382 1_545 S
C1453 C1447 1.491 1_565 S
C1453 C1452 1.382 1_565 S
C1453 C1454 1.398 . S
C1454 H1442 0.950 . S
C1454 C1453 1.398 . S
C1454 C1455 1.391 . S
C1455 H1443 0.950 . S
C1455 C1451 1.393 . S
C1455 C1454 1.391 . S
H1456 C1464 0.950 . S
H1457 C1469 0.950 . S
H1458 C1466 0.950 . S
H1459 C1468 0.950 . S
H1460 C1470 0.950 . S
H1461 C1472 0.950 . S
H1462 C1474 0.950 . S
H1463 C1475 0.950 . S
C1464 H1456 0.950 . S
C1464 C1465 1.386 . S
C1464 C1466 1.391 . S
C1465 C1464 1.386 . S
C1465 C1469 1.393 . S
C1466 H1458 0.950 . S
C1466 C1464 1.391 . S
C1466 C1467 1.400 . S
C1467 C1466 1.400 . S
C1467 C1468 1.398 . S
C1467 C1473 1.491 . S
C1468 H1459 0.950 . S
C1468 C1467 1.398 . S
C1468 C1469 1.391 . S
C1469 H1457 0.950 . S
C1469 C1465 1.393 . S
C1469 C1468 1.391 . S
C1470 H1460 0.950 . S
C1470 C1471 1.386 . S
C1470 C1472 1.391 . S
C1471 C1470 1.386 . S
C1471 C1475 1.393 . S
C1472 H1461 0.950 . S
C1472 C1470 1.391 . S
C1472 C1473 1.400 . S
C1473 C1467 1.491 . S
C1473 C1472 1.400 . S
C1473 C1474 1.398 . S
C1474 H1462 0.950 . S
C1474 C1473 1.398 . S
C1474 C1475 1.391 . S
C1475 H1463 0.950 . S
C1475 C1471 1.393 . S
C1475 C1474 1.391 . S
H1476 C1484 0.950 . S
H1477 C1489 0.950 . S
H1478 C1486 0.950 . S
H1479 C1488 0.950 1_565 S
H1480 C1490 0.950 . S
H1481 C1492 0.950 . S
H1482 C1494 0.950 1_545 S
H1483 C1495 0.950 . S
C1484 H1476 0.950 . S
C1484 C1485 1.386 . S
C1484 C1486 1.391 . S
C1485 C1484 1.386 . S
C1485 C1489 1.393 . S
C1486 H1478 0.950 . S
C1486 C1484 1.391 . S
C1486 C1487 1.400 . S
C1487 C1486 1.400 . S
C1487 C1488 1.398 . S
C1487 C1493 1.491 1_545 S
C1488 H1479 0.950 1_545 S
C1488 C1487 1.398 . S
C1488 C1489 1.391 . S
C1489 H1477 0.950 . S
C1489 C1485 1.393 . S
C1489 C1488 1.391 . S
C1490 H1480 0.950 . S
C1490 C1491 1.386 . S
C1490 C1492 1.391 . S
C1491 C1490 1.386 . S
C1491 C1495 1.393 . S
C1492 H1481 0.950 . S
C1492 C1490 1.391 . S
C1492 C1493 1.400 . S
C1493 C1487 1.491 1_565 S
C1493 C1492 1.400 . S
C1493 C1494 1.398 . S
C1494 H1482 0.950 1_565 S
C1494 C1493 1.398 . S
C1494 C1495 1.391 . S
C1495 H1483 0.950 . S
C1495 C1491 1.393 . S
C1495 C1494 1.391 . S
H1496 C1504 0.950 . S
H1497 C1509 0.950 . S
H1498 C1506 0.950 . S
H1499 C1508 0.950 . S
H1500 C1510 0.950 . S
H1501 C1512 0.950 . S
H1502 C1514 0.950 . S
H1503 C1515 0.950 . S
C1504 H1496 0.950 . S
C1504 C1505 1.386 . S
C1504 C1506 1.391 . S
C1505 C1504 1.386 . S
C1505 C1509 1.393 . S
C1506 H1498 0.950 . S
C1506 C1504 1.391 . S
C1506 C1507 1.400 . S
C1507 C1506 1.400 . S
C1507 C1508 1.398 . S
C1507 C1513 1.491 . S
C1508 H1499 0.950 . S
C1508 C1507 1.398 . S
C1508 C1509 1.391 . S
C1509 H1497 0.950 . S
C1509 C1505 1.393 . S
C1509 C1508 1.391 . S
C1510 H1500 0.950 . S
C1510 C1511 1.386 . S
C1510 C1512 1.391 . S
C1511 C1510 1.386 . S
C1511 C1515 1.393 . S
C1512 H1501 0.950 . S
C1512 C1510 1.391 . S
C1512 C1513 1.400 . S
C1513 C1507 1.491 . S
C1513 C1512 1.400 . S
C1513 C1514 1.398 . S
C1514 H1502 0.950 . S
C1514 C1513 1.398 . S
C1514 C1515 1.391 . S
C1515 H1503 0.950 . S
C1515 C1511 1.393 . S
C1515 C1514 1.391 . S
H1516 C1524 0.950 . S
H1517 C1529 0.950 . S
H1518 C1526 0.950 . S
H1519 C1528 0.950 1_545 S
H1520 C1530 0.950 . S
H1521 C1532 0.950 . S
H1522 C1534 0.950 1_565 S
H1523 C1535 0.950 . S
C1524 H1516 0.950 . S
C1524 C1525 1.386 . S
C1524 C1526 1.391 . S
C1525 C1524 1.386 . S
C1525 C1529 1.393 . S
C1526 H1518 0.950 . S
C1526 C1524 1.391 . S
C1526 C1527 1.400 . S
C1527 C1526 1.400 . S
C1527 C1528 1.398 . S
C1527 C1533 1.491 1_565 S
C1528 H1519 0.950 1_565 S
C1528 C1527 1.398 . S
C1528 C1529 1.391 . S
C1529 H1517 0.950 . S
C1529 C1525 1.393 . S
C1529 C1528 1.391 . S
C1530 H1520 0.950 . S
C1530 C1531 1.386 . S
C1530 C1532 1.391 1_556 S
C1531 C1530 1.386 . S
C1531 C1535 1.393 . S
C1532 H1521 0.950 . S
C1532 C1530 1.391 1_554 S
C1532 C1533 1.400 . S
C1533 C1527 1.491 1_545 S
C1533 C1532 1.400 . S
C1533 C1534 1.398 1_554 S
C1534 H1522 0.950 1_545 S
C1534 C1533 1.398 1_556 S
C1534 C1535 1.391 . S
C1535 H1523 0.950 . S
C1535 C1531 1.393 . S
C1535 C1534 1.391 . S
H1536 C1544 0.950 . S
H1537 C1549 0.950 . S
H1538 C1546 0.950 . S
H1539 C1548 0.950 . S
H1540 C1550 0.950 . S
H1541 C1552 0.950 . S
H1542 C1554 0.950 . S
H1543 C1555 0.950 . S
C1544 H1536 0.950 . S
C1544 C1545 1.386 . S
C1544 C1546 1.391 . S
C1545 C1544 1.386 . S
C1545 C1549 1.393 . S
C1546 H1538 0.950 . S
C1546 C1544 1.391 . S
C1546 C1547 1.400 . S
C1547 C1546 1.400 . S
C1547 C1548 1.398 . S
C1547 C1553 1.491 . S
C1548 H1539 0.950 . S
C1548 C1547 1.398 . S
C1548 C1549 1.391 . S
C1549 H1537 0.950 . S
C1549 C1545 1.393 . S
C1549 C1548 1.391 . S
C1550 H1540 0.950 . S
C1550 C1551 1.386 . S
C1550 C1552 1.391 . S
C1551 C1550 1.386 . S
C1551 C1555 1.393 . S
C1552 H1541 0.950 . S
C1552 C1550 1.391 . S
C1552 C1553 1.400 . S
C1553 C1547 1.491 . S
C1553 C1552 1.400 . S
C1553 C1554 1.398 . S
C1554 H1542 0.950 . S
C1554 C1553 1.398 . S
C1554 C1555 1.391 . S
C1555 H1543 0.950 . S
C1555 C1551 1.393 . S
C1555 C1554 1.391 . S
H1556 C1564 0.950 . S
H1557 C1569 0.950 . S
H1558 C1566 0.950 . S
H1559 C1568 0.950 . S
H1560 C1570 0.950 . S
H1561 C1572 0.950 . S
H1562 C1574 0.950 . S
H1563 C1575 0.950 . S
C1564 H1556 0.950 . S
C1564 C1565 1.386 . S
C1564 C1566 1.391 . S
C1565 C1564 1.386 . S
C1565 C1569 1.393 . S
C1566 H1558 0.950 . S
C1566 C1564 1.391 . S
C1566 C1567 1.400 . S
C1567 C1566 1.400 . S
C1567 C1568 1.398 . S
C1567 C1573 1.491 . S
C1568 H1559 0.950 . S
C1568 C1567 1.398 . S
C1568 C1569 1.391 . S
C1569 H1557 0.950 . S
C1569 C1565 1.393 . S
C1569 C1568 1.391 . S
C1570 H1560 0.950 . S
C1570 C1571 1.386 . S
C1570 C1572 1.391 . S
C1571 C1570 1.386 . S
C1571 C1575 1.393 . S
C1572 H1561 0.950 . S
C1572 C1570 1.391 . S
C1572 C1573 1.400 1_556 S
C1573 C1567 1.491 . S
C1573 C1572 1.400 1_554 S
C1573 C1574 1.398 . S
C1574 H1562 0.950 . S
C1574 C1573 1.398 . S
C1574 C1575 1.391 1_554 S
C1575 H1563 0.950 . S
C1575 C1571 1.393 . S
C1575 C1574 1.391 1_556 S
H1576 C1584 0.950 . S
H1577 C1589 0.950 . S
H1578 C1586 0.950 . S
H1579 C1588 0.950 . S
H1580 C1590 0.950 . S
H1581 C1592 0.950 . S
H1582 C1594 0.950 . S
H1583 C1595 0.950 . S
C1584 H1576 0.950 . S
C1584 C1585 1.386 . S
C1584 C1586 1.391 . S
C1585 C1584 1.386 . S
C1585 C1589 1.393 . S
C1586 H1578 0.950 . S
C1586 C1584 1.391 . S
C1586 C1587 1.400 . S
C1587 C1586 1.400 . S
C1587 C1588 1.398 . S
C1587 C1593 1.491 . S
C1588 H1579 0.950 . S
C1588 C1587 1.398 . S
C1588 C1589 1.391 . S
C1589 H1577 0.950 . S
C1589 C1585 1.393 . S
C1589 C1588 1.391 . S
C1590 H1580 0.950 . S
C1590 C1591 1.386 . S
C1590 C1592 1.391 . S
C1591 C1590 1.386 . S
C1591 C1595 1.393 . S
C1592 H1581 0.950 . S
C1592 C1590 1.391 . S
C1592 C1593 1.400 . S
C1593 C1587 1.491 . S
C1593 C1592 1.400 . S
C1593 C1594 1.398 . S
C1594 H1582 0.950 . S
C1594 C1593 1.398 . S
C1594 C1595 1.391 . S
C1595 H1583 0.950 . S
C1595 C1591 1.393 . S
C1595 C1594 1.391 . S
H1596 C1604 0.950 . S
H1597 C1609 0.950 . S
H1598 C1606 0.950 . S
H1599 C1608 0.950 . S
H1600 C1610 0.950 . S
H1601 C1612 0.950 . S
H1602 C1614 0.950 . S
H1603 C1615 0.950 . S
C1604 H1596 0.950 . S
C1604 C1605 1.386 . S
C1604 C1606 1.391 . S
C1605 C1604 1.386 . S
C1605 C1609 1.393 . S
C1606 H1598 0.950 . S
C1606 C1604 1.391 . S
C1606 C1607 1.400 . S
C1607 C1606 1.400 . S
C1607 C1608 1.398 . S
C1607 C1613 1.491 . S
C1608 H1599 0.950 . S
C1608 C1607 1.398 . S
C1608 C1609 1.391 . S
C1609 H1597 0.950 . S
C1609 C1605 1.393 . S
C1609 C1608 1.391 . S
C1610 H1600 0.950 . S
C1610 C1611 1.386 . S
C1610 C1612 1.391 . S
C1611 C1610 1.386 . S
C1611 C1615 1.393 . S
C1612 H1601 0.950 . S
C1612 C1610 1.391 . S
C1612 C1613 1.400 . S
C1613 C1607 1.491 . S
C1613 C1612 1.400 . S
C1613 C1614 1.398 . S
C1614 H1602 0.950 . S
C1614 C1613 1.398 . S
C1614 C1615 1.391 . S
C1615 H1603 0.950 . S
C1615 C1611 1.393 . S
C1615 C1614 1.391 . S
H1616 C1624 0.950 . S
H1617 C1629 0.950 . S
H1618 C1626 0.950 . S
H1619 C1628 0.950 . S
H1620 C1630 0.950 . S
H1621 C1632 0.950 . S
H1622 C1634 0.950 . S
H1623 C1635 0.950 . S
C1624 H1616 0.950 . S
C1624 C1625 1.386 . S
C1624 C1626 1.391 . S
C1625 C1624 1.386 . S
C1625 C1629 1.393 . S
C1626 H1618 0.950 . S
C1626 C1624 1.391 . S
C1626 C1627 1.400 . S
C1627 C1626 1.400 . S
C1627 C1628 1.398 . S
C1627 C1633 1.491 . S
C1628 H1619 0.950 . S
C1628 C1627 1.398 . S
C1628 C1629 1.391 . S
C1629 H1617 0.950 . S
C1629 C1625 1.393 . S
C1629 C1628 1.391 . S
C1630 H1620 0.950 . S
C1630 C1631 1.386 . S
C1630 C1632 1.391 . S
C1631 C1630 1.386 . S
C1631 C1635 1.393 . S
C1632 H1621 0.950 . S
C1632 C1630 1.391 . S
C1632 C1633 1.400 . S
C1633 C1627 1.491 . S
C1633 C1632 1.400 . S
C1633 C1634 1.398 . S
C1634 H1622 0.950 . S
C1634 C1633 1.398 . S
C1634 C1635 1.391 . S
C1635 H1623 0.950 . S
C1635 C1631 1.393 . S
C1635 C1634 1.391 . S
H1636 C1644 0.950 . S
H1637 C1649 0.950 . S
H1638 C1646 0.950 . S
H1639 C1648 0.950 . S
H1640 C1650 0.950 . S
H1641 C1652 0.950 . S
H1642 C1654 0.950 . S
H1643 C1655 0.950 . S
C1644 H1636 0.950 . S
C1644 C1645 1.386 . S
C1644 C1646 1.391 1_556 S
C1645 C1644 1.386 . S
C1645 C1649 1.393 . S
C1646 H1638 0.950 . S
C1646 C1644 1.391 1_554 S
C1646 C1647 1.400 . S
C1647 C1646 1.400 . S
C1647 C1648 1.398 1_554 S
C1647 C1653 1.491 . S
C1648 H1639 0.950 . S
C1648 C1647 1.398 1_556 S
C1648 C1649 1.391 . S
C1649 H1637 0.950 . S
C1649 C1645 1.393 . S
C1649 C1648 1.391 . S
C1650 H1640 0.950 . S
C1650 C1651 1.386 . S
C1650 C1652 1.391 . S
C1651 C1650 1.386 . S
C1651 C1655 1.393 . S
C1652 H1641 0.950 . S
C1652 C1650 1.391 . S
C1652 C1653 1.400 . S
C1653 C1647 1.491 . S
C1653 C1652 1.400 . S
C1653 C1654 1.398 . S
C1654 H1642 0.950 . S
C1654 C1653 1.398 . S
C1654 C1655 1.391 . S
C1655 H1643 0.950 . S
C1655 C1651 1.393 . S
C1655 C1654 1.391 . S
H1656 C1664 0.950 . S
H1657 C1669 0.950 . S
H1658 C1666 0.950 . S
H1659 C1668 0.950 . S
H1660 C1670 0.950 . S
H1661 C1672 0.950 . S
H1662 C1674 0.950 . S
H1663 C1675 0.950 . S
C1664 H1656 0.950 . S
C1664 C1665 1.386 . S
C1664 C1666 1.391 . S
C1665 C1664 1.386 . S
C1665 C1669 1.393 . S
C1666 H1658 0.950 . S
C1666 C1664 1.391 . S
C1666 C1667 1.400 . S
C1667 C1666 1.400 . S
C1667 C1668 1.398 . S
C1667 C1673 1.491 . S
C1668 H1659 0.950 . S
C1668 C1667 1.398 . S
C1668 C1669 1.391 . S
C1669 H1657 0.950 . S
C1669 C1665 1.393 . S
C1669 C1668 1.391 . S
C1670 H1660 0.950 . S
C1670 C1671 1.386 . S
C1670 C1672 1.391 . S
C1671 C1670 1.386 . S
C1671 C1675 1.393 . S
C1672 H1661 0.950 . S
C1672 C1670 1.391 . S
C1672 C1673 1.400 . S
C1673 C1667 1.491 . S
C1673 C1672 1.400 . S
C1673 C1674 1.398 . S
C1674 H1662 0.950 . S
C1674 C1673 1.398 . S
C1674 C1675 1.391 . S
C1675 H1663 0.950 . S
C1675 C1671 1.393 . S
C1675 C1674 1.391 . S
H1676 C1684 0.950 . S
H1677 C1689 0.950 . S
H1678 C1686 0.950 . S
H1679 C1688 0.950 . S
H1680 C1690 0.950 . S
H1681 C1692 0.950 . S
H1682 C1694 0.950 . S
H1683 C1695 0.950 . S
C1684 H1676 0.950 . S
C1684 C1685 1.386 . S
C1684 C1686 1.391 . S
C1685 C1684 1.386 . S
C1685 C1689 1.393 . S
C1686 H1678 0.950 . S
C1686 C1684 1.391 . S
C1686 C1687 1.400 . S
C1687 C1686 1.400 . S
C1687 C1688 1.398 . S
C1687 C1693 1.491 . S
C1688 H1679 0.950 . S
C1688 C1687 1.398 . S
C1688 C1689 1.391 . S
C1689 H1677 0.950 . S
C1689 C1685 1.393 . S
C1689 C1688 1.391 . S
C1690 H1680 0.950 . S
C1690 C1691 1.386 . S
C1690 C1692 1.391 . S
C1691 C1690 1.386 . S
C1691 C1695 1.393 . S
C1692 H1681 0.950 . S
C1692 C1690 1.391 . S
C1692 C1693 1.400 . S
C1693 C1687 1.491 . S
C1693 C1692 1.400 . S
C1693 C1694 1.398 . S
C1694 H1682 0.950 . S
C1694 C1693 1.398 . S
C1694 C1695 1.391 . S
C1695 H1683 0.950 . S
C1695 C1691 1.393 . S
C1695 C1694 1.391 . S
C425 C91 1.304 . S
C431 C0 1.300 1_556 S
C445 C13 1.306 . S
C451 C52 1.298 . S
C465 C65 1.295 . S
C471 C26 1.308 . S
C485 C39 1.298 . S
C491 C78 1.305 . S
C505 C104 1.296 . S
C511 C195 1.307 . S
C525 C117 1.298 . S
C531 C156 1.305 1_556 S
C545 C130 1.295 . S
C551 C169 1.308 . S
C565 C143 1.298 . S
C571 C182 1.305 . S
C585 C208 1.299 . S
C591 C299 1.305 . S
C605 C221 1.298 . S
C611 C260 1.306 . S
C625 C273 1.307 . S
C631 C234 1.296 1_556 S
C645 C286 1.295 . S
C651 C247 1.308 . S
C665 C312 1.296 . S
C671 C403 1.308 . S
C685 C364 1.295 . S
C691 C325 1.308 . S
C705 C377 1.307 . S
C711 C338 1.296 . S
C725 C351 1.300 . S
C731 C390 1.303 1_556 S
C745 C8 0.948 . S
C751 C86 0.909 . S
C765 C21 0.930 . S
C771 C99 0.925 . S
C785 C60 0.918 . S
C791 C34 0.942 . S
C805 C47 0.948 . S
C811 C73 0.910 . S
C825 C112 0.911 . S
C831 C190 0.948 . S
C845 C125 0.920 . S
C851 C203 0.935 . S
C865 C164 0.931 . S
C871 C138 0.929 . S
C885 C177 0.933 . S
C891 C151 0.928 . S
C905 C216 0.948 . S
C911 C294 0.909 . S
C925 C307 0.938 . S
C931 C229 0.917 . S
C945 C268 0.936 . S
C951 C242 0.918 . S
C965 C255 0.948 . S
C971 C281 0.910 . S
C985 C320 0.910 . S
C991 C398 0.948 . S
C1005 C333 0.933 . S
C1011 C411 0.921 . S
C1025 C372 0.948 . S
C1031 C346 0.909 . S
C1045 C385 0.936 . S
C1051 C359 0.924 . S
C1065 C5 1.355 . S
C1071 C395 1.328 . S
C1085 C18 1.328 . S
C1091 C200 1.355 . S
C1105 C31 1.342 . S
C1111 C369 1.340 . S
C1125 C44 1.343 . S
C1131 C174 1.339 . S
C1145 C57 1.349 . S
C1151 C343 1.333 . S
C1165 C70 1.350 . S
C1171 C148 1.332 . S
C1185 C83 1.331 . S
C1191 C317 1.352 . S
C1205 C122 1.355 . S
C1211 C96 1.327 . S
C1225 C291 1.353 . S
C1231 C109 1.330 . S
C1245 C135 1.329 . S
C1251 C265 1.354 . S
C1265 C239 1.330 . S
C1271 C161 1.352 . S
C1285 C213 1.350 . S
C1291 C187 1.332 . S
C1305 C226 1.354 . S
C1311 C408 1.328 . S
C1325 C252 1.346 . S
C1331 C382 1.337 . S
C1345 C278 1.355 . S
C1351 C356 1.328 . S
C1365 C330 1.336 . S
C1371 C304 1.346 . S
C1385 C10 1.568 . S
C1391 C88 1.574 . S
C1405 C23 1.584 . S
C1411 C101 1.580 . S
C1425 C62 1.579 . S
C1431 C36 1.572 . S
C1445 C49 1.571 . S
C1451 C75 1.577 . S
C1465 C114 1.565 . S
C1471 C192 1.570 . S
C1485 C127 1.564 . S
C1491 C205 1.568 . S
C1505 C166 1.584 . S
C1511 C140 1.582 . S
C1525 C153 1.564 . S
C1531 C179 1.569 . S
C1545 C296 1.574 . S
C1551 C218 1.568 . S
C1565 C309 1.578 . S
C1571 C231 1.583 . S
C1585 C270 1.570 . S
C1591 C244 1.565 . S
C1605 C283 1.565 . S
C1611 C257 1.570 . S
C1625 C400 1.575 . S
C1631 C322 1.569 . S
C1645 C413 1.575 . S
C1651 C335 1.581 . S
C1665 C348 1.583 . S
C1671 C374 1.579 . S
C1685 C387 1.584 . S
C1691 C361 1.583 . S
