# Generated by pormake.
# Topology wji, (4)-cn, num edge types: 1
# Building blocks:
#     Node 0, Type 0, BuildingBlock: UXUYUI_clean_sbu_0, # of connection points: 4
#     Node 1, Type 0, BuildingBlock: UXUYUI_clean_sbu_0, # of connection points: 4
#     Node 2, Type 0, BuildingBlock: UXUYUI_clean_sbu_0, # of connection points: 4
#     Node 3, Type 0, BuildingBlock: UXUYUI_clean_sbu_0, # of connection points: 4
#     Node 4, Type 0, BuildingBlock: UXUYUI_clean_sbu_0, # of connection points: 4
#     Node 5, Type 0, BuildingBlock: UXUYUI_clean_sbu_0, # of connection points: 4
#     Node 6, Type 0, BuildingBlock: UXUYUI_clean_sbu_0, # of connection points: 4
#     Node 7, Type 0, BuildingBlock: UXUYUI_clean_sbu_0, # of connection points: 4
#     Node 8, Type 0, BuildingBlock: UXUYUI_clean_sbu_0, # of connection points: 4
#     Node 9, Type 0, BuildingBlock: UXUYUI_clean_sbu_0, # of connection points: 4
#     Node 10, Type 0, BuildingBlock: UXUYUI_clean_sbu_0, # of connection points: 4
#     Node 11, Type 0, BuildingBlock: UXUYUI_clean_sbu_0, # of connection points: 4
#     Edge 12, Type (0, 0), BuildingBlock: XIVTED_clean_linker_0, # of connection points: 2
#     Edge 13, Type (0, 0), BuildingBlock: XIVTED_clean_linker_0, # of connection points: 2
#     Edge 14, Type (0, 0), BuildingBlock: XIVTED_clean_linker_0, # of connection points: 2
#     Edge 15, Type (0, 0), BuildingBlock: XIVTED_clean_linker_0, # of connection points: 2
#     Edge 16, Type (0, 0), BuildingBlock: XIVTED_clean_linker_0, # of connection points: 2
#     Edge 17, Type (0, 0), BuildingBlock: XIVTED_clean_linker_0, # of connection points: 2
#     Edge 18, Type (0, 0), BuildingBlock: XIVTED_clean_linker_0, # of connection points: 2
#     Edge 19, Type (0, 0), BuildingBlock: XIVTED_clean_linker_0, # of connection points: 2
#     Edge 20, Type (0, 0), BuildingBlock: XIVTED_clean_linker_0, # of connection points: 2
#     Edge 21, Type (0, 0), BuildingBlock: XIVTED_clean_linker_0, # of connection points: 2
#     Edge 22, Type (0, 0), BuildingBlock: XIVTED_clean_linker_0, # of connection points: 2
#     Edge 23, Type (0, 0), BuildingBlock: XIVTED_clean_linker_0, # of connection points: 2
#     Edge 24, Type (0, 0), BuildingBlock: XIVTED_clean_linker_0, # of connection points: 2
#     Edge 25, Type (0, 0), BuildingBlock: XIVTED_clean_linker_0, # of connection points: 2
#     Edge 26, Type (0, 0), BuildingBlock: XIVTED_clean_linker_0, # of connection points: 2
#     Edge 27, Type (0, 0), BuildingBlock: XIVTED_clean_linker_0, # of connection points: 2
#     Edge 28, Type (0, 0), BuildingBlock: XIVTED_clean_linker_0, # of connection points: 2
#     Edge 29, Type (0, 0), BuildingBlock: XIVTED_clean_linker_0, # of connection points: 2
#     Edge 30, Type (0, 0), BuildingBlock: XIVTED_clean_linker_0, # of connection points: 2
#     Edge 31, Type (0, 0), BuildingBlock: XIVTED_clean_linker_0, # of connection points: 2
#     Edge 32, Type (0, 0), BuildingBlock: XIVTED_clean_linker_0, # of connection points: 2
#     Edge 33, Type (0, 0), BuildingBlock: XIVTED_clean_linker_0, # of connection points: 2
#     Edge 34, Type (0, 0), BuildingBlock: XIVTED_clean_linker_0, # of connection points: 2
#     Edge 35, Type (0, 0), BuildingBlock: XIVTED_clean_linker_0, # of connection points: 2
# Relax obj value: 0.267
# Max RMSD: 0.141
# Mean RMSD: 0.141
data_MOF--net-wji--node1-UXUYUI_clean_sbu_0--edge1-XIVTED_clean_linker_0
_symmetry_space_group_name_H-M    P1
_symmetry_Int_Tables_number       1
_symmetry_cell_setting            triclinic
loop_
_symmetry_equiv_pos_as_xyz
'x, y, z'
_cell_length_a     83.654006
_cell_length_b     83.641617
_cell_length_c     33.35408
_cell_angle_alpha  89.992068
_cell_angle_beta   90.029052
_cell_angle_gamma 120.00911
loop_
_atom_site_label
_atom_site_type_symbol
_atom_site_fract_x
_atom_site_fract_y
_atom_site_fract_z
_atom_type_partial_charge
Li0 Li 0.40773 0.32126 0.44614 0.0
Li1 Li 0.41386 0.2981 0.41749 0.0
Li2 Li 0.43481 0.33102 0.40332 0.0
Li3 Li 0.40391 0.31462 0.37324 0.0
C4 C 0.43753 0.32419 0.49162 0.0
N5 N 0.45397 0.33651 0.56572 0.0
C6 C 0.43626 0.31156 0.52075 0.0
C7 C 0.44732 0.34307 0.5001 0.0
C8 C 0.44461 0.31807 0.55805 0.0
C9 C 0.4555 0.34903 0.53775 0.0
C10 C 0.37734 0.28548 0.44531 0.0
C11 C 0.34609 0.26304 0.4634 0.0
N12 N 0.3522 0.26062 0.49945 0.0
C13 C 0.38331 0.28276 0.48249 0.0
C14 C 0.35859 0.27553 0.43561 0.0
C15 C 0.37039 0.27014 0.50946 0.0
C16 C 0.3893 0.33781 0.48075 0.0
N17 N 0.39802 0.32825 0.48995 0.0
C18 C 0.39282 0.32993 0.55983 0.0
C19 C 0.39965 0.32403 0.52854 0.0
C20 C 0.38416 0.34023 0.55131 0.0
C21 C 0.38231 0.34404 0.51111 0.0
H22 H 0.38792 0.34071 0.44974 0.0
H23 H 0.40627 0.31612 0.53527 0.0
C24 C 0.43064 0.27905 0.44431 0.0
N25 N 0.41405 0.27618 0.43109 0.0
C26 C 0.43173 0.26534 0.46577 0.0
C27 C 0.39889 0.24535 0.45639 0.0
C28 C 0.39846 0.25946 0.43481 0.0
C29 C 0.41556 0.24855 0.47381 0.0
H30 H 0.4428 0.29251 0.4408 0.0
H31 H 0.38545 0.25749 0.4237 0.0
C32 C 0.42202 0.35692 0.39666 0.0
N33 N 0.43445 0.39417 0.38771 0.0
C34 C 0.42124 0.36399 0.35919 0.0
C35 C 0.42882 0.36874 0.4297 0.0
C36 C 0.42768 0.38288 0.35524 0.0
C37 C 0.43512 0.38754 0.42453 0.0
C38 C 0.41977 0.2963 0.3361 0.0
C39 C 0.43246 0.29743 0.30743 0.0
C40 C 0.40176 0.28126 0.33571 0.0
C41 C 0.42693 0.28346 0.27877 0.0
C42 C 0.39678 0.26758 0.30658 0.0
N43 N 0.40936 0.26895 0.27895 0.0
C44 C 0.47288 0.34839 0.41894 0.0
C45 C 0.46468 0.36419 0.37162 0.0
C46 C 0.49122 0.36268 0.41864 0.0
N47 N 0.45996 0.34966 0.39659 0.0
C48 C 0.48285 0.37881 0.3704 0.0
C49 C 0.49634 0.37836 0.39479 0.0
H50 H 0.46885 0.33646 0.43779 0.0
H51 H 0.45431 0.36463 0.35321 0.0
C52 C 0.37236 0.31091 0.33639 0.0
N53 N 0.38979 0.31448 0.32882 0.0
C54 C 0.36219 0.31351 0.30653 0.0
C55 C 0.38797 0.32297 0.26132 0.0
C56 C 0.3976 0.32006 0.29204 0.0
C57 C 0.37015 0.3201 0.26866 0.0
H58 H 0.36665 0.30676 0.36616 0.0
H59 H 0.41165 0.32315 0.28719 0.0
O60 O 0.42934 0.31803 0.45497 0.0
O61 O 0.38972 0.29778 0.41838 0.0
O62 O 0.41574 0.33845 0.40102 0.0
O63 O 0.42504 0.30996 0.36417 0.0
H64 H 0.42872 0.29688 0.51486 0.0
H65 H 0.44876 0.35304 0.47774 0.0
H66 H 0.44363 0.30844 0.58093 0.0
H67 H 0.4631 0.36362 0.54469 0.0
H68 H 0.33153 0.25524 0.45629 0.0
H69 H 0.39777 0.29015 0.49024 0.0
H70 H 0.35374 0.27742 0.40688 0.0
H71 H 0.37485 0.26788 0.53831 0.0
H72 H 0.39465 0.32678 0.59041 0.0
H73 H 0.37545 0.35167 0.50319 0.0
H74 H 0.44494 0.26823 0.47778 0.0
H75 H 0.38608 0.23263 0.4618 0.0
H76 H 0.41588 0.35503 0.33336 0.0
H77 H 0.42907 0.36346 0.45912 0.0
H78 H 0.42729 0.38856 0.32636 0.0
H79 H 0.44047 0.39685 0.44984 0.0
H80 H 0.44644 0.309 0.30731 0.0
H81 H 0.39171 0.28014 0.35752 0.0
H82 H 0.43662 0.28416 0.25639 0.0
H83 H 0.3829 0.25586 0.30592 0.0
H84 H 0.50122 0.36154 0.43721 0.0
H85 H 0.48612 0.39061 0.3516 0.0
H86 H 0.34842 0.31084 0.31342 0.0
H87 H 0.39479 0.32831 0.23285 0.0
Li88 Li 0.11522 0.41549 0.58572 0.0
Li89 Li 0.08539 0.41115 0.6126 0.0
Li90 Li 0.08962 0.40965 0.54196 0.0
Li91 Li 0.10484 0.43906 0.57495 0.0
C92 C 0.08239 0.37677 0.5663 0.0
N93 N 0.06525 0.34357 0.5257 0.0
C94 C 0.06374 0.36419 0.5731 0.0
C95 C 0.09239 0.37245 0.53918 0.0
C96 C 0.0553 0.34747 0.55218 0.0
C97 C 0.08345 0.35559 0.51887 0.0
C98 C 0.11028 0.43202 0.66632 0.0
C99 C 0.09981 0.44057 0.72561 0.0
N100 N 0.10796 0.43328 0.74879 0.0
C101 C 0.11864 0.4247 0.69073 0.0
C102 C 0.10088 0.44012 0.68387 0.0
C103 C 0.11729 0.42545 0.73236 0.0
C104 C 0.1521 0.42809 0.60487 0.0
N105 N 0.1353 0.41265 0.60114 0.0
C106 C 0.14535 0.39498 0.63854 0.0
C107 C 0.13182 0.39616 0.61643 0.0
C108 C 0.16251 0.41096 0.64515 0.0
C109 C 0.16605 0.42754 0.62673 0.0
H110 H 0.15421 0.4411 0.59336 0.0
H111 H 0.11814 0.38424 0.61387 0.0
C112 C 0.05372 0.40291 0.65733 0.0
N113 N 0.06877 0.40079 0.65582 0.0
C114 C 0.04163 0.39597 0.68974 0.0
C115 C 0.06059 0.38446 0.71795 0.0
C116 C 0.07223 0.3915 0.68479 0.0
C117 C 0.04511 0.38675 0.72073 0.0
H118 H 0.05114 0.41007 0.63349 0.0
H119 H 0.08415 0.38974 0.68228 0.0
C120 C 0.12105 0.42917 0.49741 0.0
N121 N 0.1313 0.42918 0.41873 0.0
C122 C 0.11602 0.43762 0.46773 0.0
C123 C 0.13139 0.42085 0.48722 0.0
C124 C 0.1213 0.43743 0.42807 0.0
C125 C 0.13642 0.42097 0.44723 0.0
C126 C 0.07136 0.43324 0.55792 0.0
C127 C 0.06779 0.43454 0.51744 0.0
C128 C 0.06834 0.44373 0.58636 0.0
C129 C 0.06125 0.44633 0.50611 0.0
C130 C 0.06185 0.45539 0.5738 0.0
N131 N 0.05847 0.45644 0.53428 0.0
C132 C 0.05649 0.38853 0.50427 0.0
C133 C 0.08083 0.39274 0.46129 0.0
C134 C 0.04342 0.37825 0.47515 0.0
N135 N 0.07481 0.39583 0.4968 0.0
C136 C 0.06818 0.38275 0.43089 0.0
C137 C 0.04922 0.37549 0.43767 0.0
H138 H 0.05201 0.39084 0.53301 0.0
H139 H 0.09533 0.39792 0.45636 0.0
C140 C 0.12272 0.475 0.60641 0.0
N141 N 0.11357 0.46501 0.57353 0.0
C142 C 0.12743 0.49347 0.60979 0.0
C143 C 0.11408 0.49138 0.54442 0.0
C144 C 0.10983 0.47299 0.54214 0.0
C145 C 0.12262 0.50178 0.57906 0.0
H146 H 0.12605 0.46854 0.6305 0.0
H147 H 0.10293 0.46493 0.5159 0.0
O148 O 0.09075 0.39342 0.58553 0.0
O149 O 0.11111 0.43108 0.62546 0.0
O150 O 0.11634 0.4295 0.53646 0.0
O151 O 0.07779 0.42179 0.56967 0.0
H152 H 0.05584 0.3674 0.59396 0.0
H153 H 0.10683 0.38211 0.53355 0.0
H154 H 0.04084 0.33763 0.5569 0.0
H155 H 0.09097 0.35209 0.49757 0.0
H156 H 0.09246 0.44668 0.73957 0.0
H157 H 0.12597 0.41837 0.67776 0.0
H158 H 0.09433 0.44584 0.66543 0.0
H159 H 0.12362 0.41976 0.75161 0.0
H160 H 0.14213 0.3819 0.65187 0.0
H161 H 0.17897 0.44023 0.63149 0.0
H162 H 0.02989 0.3981 0.69088 0.0
H163 H 0.06358 0.37719 0.74098 0.0
H164 H 0.108 0.4441 0.47517 0.0
H165 H 0.1355 0.41438 0.50997 0.0
H166 H 0.11742 0.44382 0.40472 0.0
H167 H 0.14439 0.41455 0.43884 0.0
H168 H 0.07029 0.42678 0.49487 0.0
H169 H 0.07113 0.443 0.61776 0.0
H170 H 0.05851 0.44752 0.47489 0.0
H171 H 0.05955 0.46365 0.59548 0.0
H172 H 0.02893 0.37299 0.48149 0.0
H173 H 0.07315 0.3807 0.40247 0.0
H174 H 0.13449 0.50105 0.63655 0.0
H175 H 0.11001 0.4971 0.51997 0.0
Li176 Li 0.69846 0.11357 0.7568 0.0
Li177 Li 0.67351 0.0834 0.78092 0.0
Li178 Li 0.68044 0.08854 0.71209 0.0
Li179 Li 0.66533 0.10315 0.74245 0.0
C180 C 0.70894 0.08633 0.73197 0.0
N181 N 0.73148 0.07985 0.68212 0.0
C182 C 0.70798 0.06916 0.73228 0.0
C183 C 0.72142 0.10022 0.70637 0.0
C184 C 0.71947 0.06615 0.70681 0.0
C185 C 0.7327 0.09668 0.68142 0.0
C186 C 0.68559 0.11409 0.83273 0.0
C187 C 0.6901 0.1319 0.89285 0.0
N188 N 0.70181 0.12637 0.90705 0.0
C189 C 0.69763 0.10854 0.84801 0.0
C190 C 0.68177 0.12584 0.85536 0.0
C191 C 0.7057 0.11491 0.88559 0.0
C192 C 0.72127 0.15026 0.78075 0.0
N193 N 0.72093 0.13405 0.77432 0.0
C194 C 0.74908 0.14473 0.81058 0.0
C195 C 0.73459 0.13118 0.78802 0.0
C196 C 0.74934 0.16127 0.81953 0.0
C197 C 0.73546 0.16417 0.80338 0.0
H198 H 0.70991 0.15191 0.77045 0.0
H199 H 0.73358 0.11789 0.78391 0.0
C200 C 0.66703 0.05056 0.81803 0.0
N201 N 0.66565 0.06593 0.82325 0.0
C202 C 0.66195 0.0376 0.8488 0.0
C203 C 0.65352 0.05626 0.88914 0.0
C204 C 0.65873 0.06881 0.85763 0.0
C205 C 0.6553 0.04051 0.88511 0.0
H206 H 0.6721 0.0484 0.78999 0.0
H207 H 0.65727 0.08087 0.8607 0.0
C208 C 0.68795 0.11893 0.66633 0.0
N209 N 0.68994 0.12684 0.5855 0.0
C210 C 0.67213 0.11009 0.64246 0.0
C211 C 0.70476 0.13185 0.64922 0.0
C212 C 0.67343 0.11425 0.60161 0.0
C213 C 0.70549 0.13566 0.60826 0.0
C214 C 0.63809 0.06666 0.75125 0.0
C215 C 0.62509 0.05025 0.73278 0.0
C216 C 0.63298 0.07313 0.78474 0.0
C217 C 0.60717 0.04057 0.74814 0.0
C218 C 0.61492 0.06306 0.79918 0.0
N219 N 0.6025 0.04712 0.78075 0.0
C220 C 0.66942 0.0562 0.6722 0.0
C221 C 0.68956 0.0815 0.63125 0.0
C222 C 0.66716 0.04376 0.64198 0.0
N223 N 0.68021 0.07467 0.66622 0.0
C224 C 0.68749 0.06951 0.59987 0.0
C225 C 0.67604 0.05037 0.60503 0.0
H226 H 0.66247 0.05113 0.7006 0.0
H227 H 0.69858 0.09616 0.62753 0.0
C228 C 0.64926 0.12497 0.76054 0.0
N229 N 0.64757 0.1109 0.73719 0.0
C230 C 0.63524 0.12942 0.76123 0.0
C231 C 0.61845 0.10537 0.71238 0.0
C232 C 0.63272 0.1013 0.71287 0.0
C233 C 0.61944 0.11936 0.73738 0.0
H234 H 0.66127 0.13241 0.7794 0.0
H235 H 0.6316 0.09001 0.69499 0.0
O236 O 0.69742 0.08946 0.75565 0.0
O237 O 0.67795 0.10849 0.7954 0.0
O238 O 0.68701 0.11507 0.70633 0.0
O239 O 0.65568 0.07622 0.73635 0.0
H240 H 0.69843 0.05823 0.75175 0.0
H241 H 0.7222 0.11352 0.70538 0.0
H242 H 0.71882 0.0529 0.70662 0.0
H243 H 0.74233 0.10728 0.66133 0.0
H244 H 0.68729 0.14103 0.91063 0.0
H245 H 0.70082 0.09949 0.831 0.0
H246 H 0.6725 0.1303 0.8441 0.0
H247 H 0.71509 0.11077 0.89767 0.0
H248 H 0.75929 0.14179 0.823 0.0
H249 H 0.73523 0.17678 0.80935 0.0
H250 H 0.66354 0.02563 0.84444 0.0
H251 H 0.64802 0.05879 0.91626 0.0
H252 H 0.65908 0.09992 0.65521 0.0
H253 H 0.71712 0.13883 0.66741 0.0
H254 H 0.66133 0.10743 0.58269 0.0
H255 H 0.71841 0.1456 0.59455 0.0
H256 H 0.6288 0.04507 0.70678 0.0
H257 H 0.64276 0.08583 0.79938 0.0
H258 H 0.59697 0.02785 0.73413 0.0
H259 H 0.61079 0.06793 0.82503 0.0
H260 H 0.65809 0.02913 0.64711 0.0
H261 H 0.69475 0.07511 0.57193 0.0
H262 H 0.63661 0.14042 0.78062 0.0
H263 H 0.60641 0.09711 0.69395 0.0
Li264 Li 0.59225 0.67914 0.94174 0.0
Li265 Li 0.58375 0.70137 0.91439 0.0
Li266 Li 0.56308 0.66737 0.90508 0.0
Li267 Li 0.59214 0.6838 0.87203 0.0
C268 C 0.57209 0.69029 0.99191 0.0
N269 N 0.57528 0.70898 0.06253 0.0
C270 C 0.58949 0.70357 0.00607 0.0
C271 C 0.55633 0.68649 0.0138 0.0
C272 C 0.59081 0.71287 0.04179 0.0
C273 C 0.55823 0.69608 0.04941 0.0
C274 C 0.6219 0.71407 0.88744 0.0
C275 C 0.63309 0.73613 0.83326 0.0
N276 N 0.64935 0.73615 0.8339 0.0
C277 C 0.63874 0.71436 0.88767 0.0
C278 C 0.61904 0.72506 0.86007 0.0
C279 C 0.65244 0.7256 0.86031 0.0
C280 C 0.62044 0.67539 0.97894 0.0
N281 N 0.60351 0.67352 0.9847 0.0
C282 C 0.6021 0.66227 0.05111 0.0
C283 C 0.59422 0.66694 0.01975 0.0
C284 C 0.61968 0.66426 0.04629 0.0
C285 C 0.62887 0.67087 0.00956 0.0
H286 H 0.62727 0.68017 0.95038 0.0
H287 H 0.58053 0.665 0.02325 0.0
C288 C 0.56716 0.72168 0.93798 0.0
N289 N 0.58373 0.72315 0.92944 0.0
C290 C 0.56637 0.73505 0.96156 0.0
C291 C 0.59973 0.75179 0.96453 0.0
C292 C 0.59988 0.73805 0.94117 0.0
C293 C 0.58279 0.75 0.97634 0.0
H294 H 0.55455 0.70936 0.92929 0.0
H295 H 0.61281 0.73848 0.93543 0.0
C296 C 0.57597 0.64298 0.91687 0.0
N297 N 0.56362 0.60863 0.95086 0.0
C298 C 0.58076 0.63069 0.89987 0.0
C299 C 0.56488 0.63779 0.95117 0.0
C300 C 0.57439 0.61339 0.9175 0.0
C301 C 0.55878 0.62037 0.96789 0.0
C302 C 0.56637 0.68706 0.82619 0.0
C303 C 0.56003 0.67065 0.80466 0.0
C304 C 0.56845 0.70282 0.8069 0.0
C305 C 0.55598 0.67032 0.76392 0.0
C306 C 0.56424 0.70192 0.76612 0.0
N307 N 0.55815 0.68583 0.74566 0.0
C308 C 0.5252 0.64846 0.92575 0.0
C309 C 0.53431 0.63233 0.88142 0.0
C310 C 0.50759 0.63298 0.92937 0.0
N311 N 0.53822 0.64769 0.90285 0.0
C312 C 0.51694 0.61656 0.88417 0.0
C313 C 0.50346 0.6166 0.90922 0.0
H314 H 0.5287 0.66089 0.94233 0.0
H315 H 0.54493 0.63205 0.86351 0.0
C316 C 0.61449 0.674 0.83232 0.0
N317 N 0.60538 0.68339 0.82563 0.0
C318 C 0.62405 0.67126 0.80142 0.0
C319 C 0.61523 0.68844 0.75722 0.0
C320 C 0.60601 0.69107 0.78927 0.0
C321 C 0.62417 0.67819 0.76307 0.0
H322 H 0.6141 0.66839 0.86175 0.0
H323 H 0.59925 0.69905 0.78487 0.0
O324 O 0.57041 0.68161 0.95601 0.0
O325 O 0.60804 0.70275 0.91305 0.0
O326 O 0.58216 0.65997 0.89975 0.0
O327 O 0.57042 0.68772 0.86604 0.0
H328 H 0.60185 0.70684 0.98946 0.0
H329 H 0.54276 0.67633 0.00332 0.0
H330 H 0.60417 0.72324 0.05293 0.0
H331 H 0.54614 0.69332 0.06655 0.0
H332 H 0.63102 0.74462 0.81178 0.0
H333 H 0.64121 0.70595 0.90853 0.0
H334 H 0.606 0.72485 0.85919 0.0
H335 H 0.66552 0.7259 0.86004 0.0
H336 H 0.59431 0.65676 0.07852 0.0
H337 H 0.64244 0.67259 0.0046 0.0
H338 H 0.55304 0.73323 0.96982 0.0
H339 H 0.61269 0.76292 0.97581 0.0
H340 H 0.58929 0.63445 0.87326 0.0
H341 H 0.56091 0.64702 0.96468 0.0
H342 H 0.578 0.60374 0.90464 0.0
H343 H 0.55017 0.61617 0.99438 0.0
H344 H 0.55854 0.65841 0.8191 0.0
H345 H 0.57332 0.71561 0.82325 0.0
H346 H 0.55117 0.65775 0.7468 0.0
H347 H 0.56582 0.71401 0.75074 0.0
H348 H 0.49764 0.63358 0.94913 0.0
H349 H 0.51424 0.60433 0.86757 0.0
H350 H 0.63066 0.66318 0.80715 0.0
H351 H 0.61524 0.69421 0.72815 0.0
Li352 Li 0.91453 0.58737 0.10667 0.0
Li353 Li 0.88491 0.58456 0.09024 0.0
Li354 Li 0.89307 0.56056 0.06821 0.0
Li355 Li 0.90773 0.59116 0.03701 0.0
C356 C 0.89278 0.56415 0.16146 0.0
N357 N 0.89998 0.55797 0.23906 0.0
C358 C 0.88765 0.57121 0.19384 0.0
C359 C 0.90135 0.55374 0.1686 0.0
C360 C 0.89146 0.56799 0.23284 0.0
C361 C 0.90493 0.55082 0.20802 0.0
C362 C 0.9082 0.62166 0.07591 0.0
C363 C 0.89585 0.6368 0.03531 0.0
N364 N 0.90518 0.65229 0.05804 0.0
C365 C 0.91769 0.63772 0.09885 0.0
C366 C 0.8972 0.62117 0.04388 0.0
C367 C 0.91597 0.65306 0.08935 0.0
C368 C 0.94744 0.59386 0.14559 0.0
N369 N 0.93282 0.59671 0.14689 0.0
C370 C 0.94349 0.61336 0.20831 0.0
C371 C 0.93076 0.60644 0.17702 0.0
C372 C 0.95858 0.61036 0.20827 0.0
C373 C 0.96054 0.60056 0.17624 0.0
H374 H 0.94896 0.58647 0.12075 0.0
H375 H 0.91907 0.60864 0.17689 0.0
C376 C 0.84831 0.57714 0.10411 0.0
N377 N 0.86645 0.58842 0.11282 0.0
C378 C 0.83478 0.57813 0.12681 0.0
C379 C 0.85897 0.60267 0.16587 0.0
C380 C 0.87197 0.60128 0.14236 0.0
C381 C 0.84006 0.59069 0.15893 0.0
H382 H 0.84436 0.56687 0.08077 0.0
H383 H 0.88649 0.60968 0.14932 0.0
C384 C 0.92691 0.56756 0.04132 0.0
N385 N 0.94113 0.5471 0.0076 0.0
C386 C 0.93012 0.56834 5e-05 0.0
C387 C 0.93106 0.55644 0.06546 0.0
C388 C 0.9373 0.55789 0.98357 0.0
C389 C 0.93819 0.54617 0.04784 0.0
C390 C 0.87282 0.56817 4e-05 0.0
C391 C 0.87553 0.55675 0.97373 0.0
C392 C 0.86144 0.57519 0.98867 0.0
C393 C 0.86703 0.55276 0.93613 0.0
C394 C 0.8532 0.5709 0.95079 0.0
N395 N 0.85615 0.55987 0.92552 0.0
C396 C 0.87203 0.52416 0.09411 0.0
C397 C 0.88852 0.52652 0.03463 0.0
C398 C 0.86663 0.50553 0.09787 0.0
N399 N 0.88334 0.53443 0.06371 0.0
C400 C 0.88337 0.50788 0.03712 0.0
C401 C 0.87278 0.49731 0.0698 0.0
H402 H 0.86777 0.53063 0.11646 0.0
H403 H 0.89729 0.53476 0.01038 0.0
C404 C 0.93604 0.62178 0.00164 0.0
N405 N 0.92037 0.60599 0.99146 0.0
C406 C 0.94853 0.63282 0.97231 0.0
C407 C 0.92851 0.61133 0.92208 0.0
C408 C 0.91614 0.60088 0.95245 0.0
C409 C 0.94526 0.6273 0.93195 0.0
H410 H 0.93925 0.62542 0.03287 0.0
H411 H 0.9038 0.58819 0.9449 0.0
O412 O 0.88958 0.56753 0.12298 0.0
O413 O 0.90966 0.6065 0.08507 0.0
O414 O 0.91995 0.57777 0.058 0.0
O415 O 0.88072 0.57194 0.0373 0.0
H416 H 0.88091 0.57919 0.18896 0.0
H417 H 0.90523 0.54801 0.14395 0.0
H418 H 0.88767 0.57348 0.25816 0.0
H419 H 0.91165 0.54288 0.21393 0.0
H420 H 0.8874 0.63662 0.01057 0.0
H421 H 0.92625 0.63828 0.12379 0.0
H422 H 0.88988 0.60891 0.02575 0.0
H423 H 0.92322 0.66558 0.10687 0.0
H424 H 0.94136 0.62068 0.23259 0.0
H425 H 0.97216 0.59824 0.17467 0.0
H426 H 0.82037 0.56878 0.12005 0.0
H427 H 0.86374 0.61232 0.19067 0.0
H428 H 0.92703 0.57683 0.98085 0.0
H429 H 0.92871 0.55563 0.09741 0.0
H430 H 0.93979 0.55834 0.95166 0.0
H431 H 0.94136 0.53744 0.06617 0.0
H432 H 0.88436 0.5513 0.98196 0.0
H433 H 0.85893 0.5838 0.00895 0.0
H434 H 0.86914 0.54405 0.91534 0.0
H435 H 0.84441 0.57628 0.94155 0.0
H436 H 0.85816 0.49777 0.12314 0.0
H437 H 0.88848 0.50211 0.01488 0.0
H438 H 0.96095 0.64524 0.9815 0.0
H439 H 0.92539 0.60631 0.89155 0.0
Li440 Li 0.32389 0.91367 0.27611 0.0
Li441 Li 0.29936 0.88312 0.24972 0.0
Li442 Li 0.33352 0.89533 0.23789 0.0
Li443 Li 0.31771 0.90902 0.20563 0.0
C444 C 0.32138 0.88932 0.32981 0.0
N445 N 0.32488 0.8917 0.4123 0.0
C446 C 0.30572 0.88036 0.35414 0.0
C447 C 0.33882 0.89934 0.34746 0.0
C448 C 0.30778 0.88175 0.39578 0.0
C449 C 0.3403 0.90043 0.38921 0.0
C450 C 0.29134 0.91479 0.23099 0.0
C451 C 0.26832 0.91282 0.18462 0.0
N452 N 0.27407 0.93095 0.19128 0.0
C453 C 0.29696 0.93336 0.23762 0.0
C454 C 0.27685 0.90437 0.20448 0.0
C455 C 0.28807 0.94129 0.21716 0.0
C456 C 0.34627 0.94629 0.31893 0.0
N457 N 0.32967 0.93045 0.31892 0.0
C458 C 0.32143 0.93859 0.38099 0.0
C459 C 0.31715 0.92654 0.34865 0.0
C460 C 0.33864 0.95492 0.38219 0.0
C461 C 0.35109 0.95878 0.35048 0.0
H462 H 0.35578 0.94923 0.29444 0.0
H463 H 0.30387 0.91401 0.34729 0.0
C464 C 0.27676 0.84585 0.26826 0.0
N465 N 0.27708 0.86219 0.265 0.0
C466 C 0.26254 0.83124 0.28929 0.0
C467 C 0.24881 0.85031 0.30122 0.0
C468 C 0.2633 0.86456 0.27999 0.0
C469 C 0.24867 0.83361 0.30732 0.0
H470 H 0.28816 0.84459 0.25672 0.0
H471 H 0.26426 0.87791 0.27791 0.0
C472 C 0.35992 0.92948 0.22138 0.0
N473 N 0.39643 0.94424 0.19889 0.0
C474 C 0.36501 0.93357 0.18112 0.0
C475 C 0.37343 0.93295 0.25018 0.0
C476 C 0.38354 0.94105 0.17037 0.0
C477 C 0.3918 0.94038 0.23821 0.0
C478 C 0.3068 0.87766 0.16135 0.0
C479 C 0.31985 0.88312 0.13062 0.0
C480 C 0.28805 0.86647 0.15257 0.0
C481 C 0.31387 0.87741 0.09138 0.0
C482 C 0.28263 0.86103 0.11294 0.0
N483 N 0.29555 0.86658 0.08343 0.0
C484 C 0.35394 0.87953 0.26768 0.0
C485 C 0.36325 0.89261 0.20293 0.0
C486 C 0.36865 0.87615 0.26969 0.0
N487 N 0.35185 0.88813 0.23516 0.0
C488 C 0.37837 0.88984 0.204 0.0
C489 C 0.38137 0.88184 0.23806 0.0
H490 H 0.3445 0.87578 0.29261 0.0
H491 H 0.36105 0.89897 0.17698 0.0
C492 C 0.32834 0.94165 0.16669 0.0
N493 N 0.31756 0.92319 0.16041 0.0
C494 C 0.33063 0.95421 0.13675 0.0
C495 C 0.31007 0.92866 0.09447 0.0
C496 C 0.30798 0.91655 0.1256 0.0
C497 C 0.32173 0.94775 0.09978 0.0
H498 H 0.33546 0.94663 0.19497 0.0
H499 H 0.29879 0.90194 0.12171 0.0
O500 O 0.31964 0.88842 0.28895 0.0
O501 O 0.30021 0.90692 0.2498 0.0
O502 O 0.34183 0.92208 0.23254 0.0
O503 O 0.31235 0.8828 0.20002 0.0
H504 H 0.29212 0.87254 0.3411 0.0
H505 H 0.35108 0.90633 0.32909 0.0
H506 H 0.29578 0.87497 0.41496 0.0
H507 H 0.3537 0.90825 0.40324 0.0
H508 H 0.25717 0.90498 0.16379 0.0
H509 H 0.3082 0.94158 0.258 0.0
H510 H 0.27242 0.88999 0.19897 0.0
H511 H 0.29235 0.95568 0.22175 0.0
H512 H 0.31135 0.93527 0.40457 0.0
H513 H 0.36454 0.97116 0.35039 0.0
H514 H 0.26283 0.81853 0.29291 0.0
H515 H 0.23856 0.85283 0.31505 0.0
H516 H 0.35476 0.93071 0.15825 0.0
H517 H 0.36977 0.9298 0.28142 0.0
H518 H 0.38764 0.94419 0.13932 0.0
H519 H 0.40236 0.94303 0.26017 0.0
H520 H 0.3344 0.8918 0.13696 0.0
H521 H 0.2778 0.86205 0.17612 0.0
H522 H 0.3238 0.88161 0.06723 0.0
H523 H 0.26817 0.85241 0.10565 0.0
H524 H 0.37056 0.86995 0.29645 0.0
H525 H 0.38781 0.8942 0.17884 0.0
H526 H 0.33983 0.9688 0.14203 0.0
H527 H 0.30273 0.92318 0.06654 0.0
Li528 Li 0.67567 0.58835 0.45248 0.0
Li529 Li 0.66275 0.55897 0.42005 0.0
Li530 Li 0.69667 0.5827 0.41272 0.0
Li531 Li 0.67171 0.5865 0.38108 0.0
C532 C 0.68818 0.57056 0.50058 0.0
N533 N 0.69925 0.57332 0.57953 0.0
C534 C 0.67504 0.56226 0.53094 0.0
C535 C 0.70695 0.58016 0.5103 0.0
C536 C 0.68092 0.56385 0.5707 0.0
C537 C 0.71227 0.58143 0.55042 0.0
C538 C 0.63448 0.56407 0.43201 0.0
C539 C 0.60333 0.5415 0.41333 0.0
N540 N 0.59814 0.53997 0.45242 0.0
C541 C 0.62883 0.56228 0.47201 0.0
C542 C 0.62162 0.55364 0.40239 0.0
C543 C 0.6104 0.55004 0.4817 0.0
C544 C 0.66188 0.6088 0.48493 0.0
N545 N 0.67322 0.60224 0.49548 0.0
C546 C 0.67786 0.6162 0.56024 0.0
C547 C 0.68164 0.60616 0.53196 0.0
C548 C 0.66561 0.62256 0.5505 0.0
C549 C 0.65795 0.61906 0.51185 0.0
H550 H 0.65584 0.60605 0.45529 0.0
H551 H 0.69124 0.60158 0.53932 0.0
C552 C 0.64339 0.52301 0.38843 0.0
N553 N 0.64541 0.5331 0.42192 0.0
C554 C 0.62921 0.50469 0.38588 0.0
C555 C 0.62 0.50711 0.45322 0.0
C556 C 0.63448 0.52537 0.45455 0.0
C557 C 0.61693 0.49665 0.41813 0.0
H558 H 0.65251 0.5293 0.36323 0.0
H559 H 0.63649 0.53357 0.48104 0.0
C560 C 0.70129 0.62141 0.42816 0.0
N561 N 0.71558 0.65526 0.46562 0.0
C562 C 0.69462 0.63326 0.41843 0.0
C563 C 0.71533 0.6268 0.45659 0.0
C564 C 0.702 0.65031 0.43781 0.0
C565 C 0.72235 0.64396 0.47529 0.0
C566 C 0.67758 0.56614 0.32996 0.0
C567 C 0.69389 0.57292 0.30785 0.0
C568 C 0.66068 0.55882 0.30992 0.0
C569 C 0.69303 0.57246 0.26601 0.0
C570 C 0.66039 0.55864 0.26804 0.0
N571 N 0.67644 0.56541 0.24713 0.0
C572 C 0.7232 0.5718 0.40301 0.0
C573 C 0.73247 0.60247 0.38326 0.0
C574 C 0.73854 0.5728 0.38399 0.0
N575 N 0.72026 0.58634 0.40124 0.0
C576 C 0.7479 0.60403 0.36366 0.0
C577 C 0.75072 0.58881 0.36252 0.0
H578 H 0.713 0.55904 0.41688 0.0
H579 H 0.72944 0.61359 0.38141 0.0
C580 C 0.64969 0.59589 0.33453 0.0
N581 N 0.66651 0.5972 0.33683 0.0
C582 C 0.64569 0.60427 0.30305 0.0
C583 C 0.67643 0.61522 0.27697 0.0
C584 C 0.67989 0.60674 0.30919 0.0
C585 C 0.65917 0.61411 0.27382 0.0
H586 H 0.63947 0.58853 0.3574 0.0
H587 H 0.69328 0.60788 0.31242 0.0
O588 O 0.68276 0.56883 0.46144 0.0
O589 O 0.6525 0.57587 0.42189 0.0
O590 O 0.69388 0.60446 0.41038 0.0
O591 O 0.67815 0.56675 0.37098 0.0
H592 H 0.66047 0.55482 0.52392 0.0
H593 H 0.7173 0.58654 0.48711 0.0
H594 H 0.6709 0.55758 0.59454 0.0
H595 H 0.72674 0.58885 0.55841 0.0
H596 H 0.59327 0.53326 0.39074 0.0
H597 H 0.6386 0.57001 0.49547 0.0
H598 H 0.62574 0.55477 0.37133 0.0
H599 H 0.60586 0.54845 0.51255 0.0
H600 H 0.68417 0.6186 0.5896 0.0
H601 H 0.64896 0.62418 0.50233 0.0
H602 H 0.62769 0.49702 0.35863 0.0
H603 H 0.61085 0.50157 0.47877 0.0
H604 H 0.68372 0.62923 0.3965 0.0
H605 H 0.72061 0.61774 0.4644 0.0
H606 H 0.6969 0.65959 0.43082 0.0
H607 H 0.73313 0.64829 0.49757 0.0
H608 H 0.70709 0.57854 0.32275 0.0
H609 H 0.64793 0.55354 0.32654 0.0
H610 H 0.70555 0.57773 0.24853 0.0
H611 H 0.64742 0.55315 0.25217 0.0
H612 H 0.74033 0.56084 0.38443 0.0
H613 H 0.75671 0.61655 0.3471 0.0
H614 H 0.63216 0.60299 0.3015 0.0
H615 H 0.68725 0.62289 0.2553 0.0
Li616 Li 0.08625 0.67833 0.62707 0.0
Li617 Li 0.10233 0.66423 0.59788 0.0
Li618 Li 0.11261 0.69616 0.57871 0.0
Li619 Li 0.0835 0.67053 0.55505 0.0
C620 C 0.12452 0.6832 0.65651 0.0
N621 N 0.14765 0.67539 0.70101 0.0
C622 C 0.11754 0.67087 0.68866 0.0
C623 C 0.14329 0.69167 0.64718 0.0
C624 C 0.12945 0.66707 0.71075 0.0
C625 C 0.15476 0.68751 0.66998 0.0
C626 C 0.0677 0.63622 0.61536 0.0
C627 C 0.05883 0.60427 0.60522 0.0
N628 N 0.05239 0.60045 0.64348 0.0
C629 C 0.06091 0.63195 0.65453 0.0
C630 C 0.06657 0.62225 0.59041 0.0
C631 C 0.05325 0.61379 0.6682 0.0
C632 C 0.05582 0.67848 0.65764 0.0
N633 N 0.07176 0.67937 0.66962 0.0
C634 C 0.0629 0.67725 0.73832 0.0
C635 C 0.07576 0.67929 0.70907 0.0
C636 C 0.04591 0.67556 0.72676 0.0
C637 C 0.04277 0.67681 0.68577 0.0
H638 H 0.05302 0.67855 0.62599 0.0
H639 H 0.08857 0.6801 0.71782 0.0
C640 C 0.12395 0.64847 0.57787 0.0
N641 N 0.11146 0.64739 0.60536 0.0
C642 C 0.12943 0.63522 0.57712 0.0
C643 C 0.11002 0.62061 0.63467 0.0
C644 C 0.10506 0.63426 0.63451 0.0
C645 C 0.12196 0.62066 0.60495 0.0
H646 H 0.12926 0.65932 0.55564 0.0
H647 H 0.09553 0.63387 0.65678 0.0
C648 C 0.08814 0.70969 0.59144 0.0
N649 N 0.08873 0.74144 0.61664 0.0
C650 C 0.07893 0.71684 0.56936 0.0
C651 C 0.09756 0.71863 0.62649 0.0
C652 C 0.07943 0.73294 0.58254 0.0
C653 C 0.09771 0.73468 0.63869 0.0
C654 C 0.10758 0.67161 0.50462 0.0
C655 C 0.11282 0.68576 0.47647 0.0
C656 C 0.10069 0.65345 0.49157 0.0
C657 C 0.11095 0.68145 0.43564 0.0
C658 C 0.09901 0.64971 0.45049 0.0
N659 N 0.10413 0.66366 0.42361 0.0
C660 C 0.14727 0.71648 0.54526 0.0
C661 C 0.13248 0.73419 0.55233 0.0
C662 C 0.16117 0.73028 0.52196 0.0
N663 N 0.1331 0.71847 0.55922 0.0
C664 C 0.14614 0.74838 0.52927 0.0
C665 C 0.16042 0.74627 0.51271 0.0
H666 H 0.14711 0.70361 0.54996 0.0
H667 H 0.12099 0.73547 0.56267 0.0
C668 C 0.05421 0.6449 0.50625 0.0
N669 N 0.06727 0.66293 0.51071 0.0
C670 C 0.04273 0.63918 0.47273 0.0
C671 C 0.05809 0.67081 0.44951 0.0
C672 C 0.06926 0.67591 0.48355 0.0
C673 C 0.04468 0.65219 0.44367 0.0
H674 H 0.05269 0.63494 0.52867 0.0
H675 H 0.07973 0.69019 0.48812 0.0
O676 O 0.11304 0.68694 0.63425 0.0
O677 O 0.0751 0.65391 0.6014 0.0
O678 O 0.08748 0.69377 0.57921 0.0
O679 O 0.10887 0.67546 0.54475 0.0
H680 H 0.103 0.66395 0.6959 0.0
H681 H 0.14896 0.70137 0.62266 0.0
H682 H 0.12419 0.65742 0.73547 0.0
H683 H 0.16931 0.69393 0.66301 0.0
H684 H 0.058 0.59337 0.58633 0.0
H685 H 0.06158 0.64252 0.67424 0.0
H686 H 0.07188 0.6253 0.56015 0.0
H687 H 0.048 0.61031 0.69848 0.0
H688 H 0.06595 0.6762 0.76942 0.0
H689 H 0.03018 0.67609 0.67531 0.0
H690 H 0.13908 0.63616 0.55435 0.0
H691 H 0.10383 0.60968 0.65672 0.0
H692 H 0.07148 0.71 0.54232 0.0
H693 H 0.10471 0.71327 0.64407 0.0
H694 H 0.0724 0.73865 0.5657 0.0
H695 H 0.10496 0.74175 0.6657 0.0
H696 H 0.11797 0.69986 0.48597 0.0
H697 H 0.09657 0.64235 0.51294 0.0
H698 H 0.11484 0.69223 0.41353 0.0
H699 H 0.09361 0.6357 0.43998 0.0
H700 H 0.17172 0.7279 0.50932 0.0
H701 H 0.14514 0.76057 0.52328 0.0
H702 H 0.03231 0.62475 0.46982 0.0
H703 H 0.06015 0.68126 0.4277 0.0
Li704 Li 0.43841 0.10377 0.75834 0.0
Li705 Li 0.40852 0.08833 0.78821 0.0
Li706 Li 0.41054 0.0854 0.71838 0.0
Li707 Li 0.41589 0.11476 0.7479 0.0
C708 C 0.42879 0.0675 0.74361 0.0
N709 N 0.4444 0.04837 0.70964 0.0
C710 C 0.42509 0.05053 0.75954 0.0
C711 C 0.44043 0.07473 0.71034 0.0
C712 C 0.43311 0.04107 0.74196 0.0
C713 C 0.44818 0.06485 0.69363 0.0
C714 C 0.43117 0.11715 0.83803 0.0
C715 C 0.42951 0.13171 0.89903 0.0
N716 N 0.43656 0.12261 0.91971 0.0
C717 C 0.43846 0.10799 0.85981 0.0
C718 C 0.4267 0.12915 0.85768 0.0
C719 C 0.44105 0.11091 0.90112 0.0
C720 C 0.4765 0.1257 0.74159 0.0
N721 N 0.46381 0.11103 0.76315 0.0
C722 C 0.48698 0.10446 0.78606 0.0
C723 C 0.46871 0.10058 0.78556 0.0
C724 C 0.5003 0.11913 0.763 0.0
C725 C 0.49493 0.12998 0.74093 0.0
H726 H 0.47221 0.13379 0.72418 0.0
H727 H 0.4583 0.08882 0.80197 0.0
C728 C 0.38592 0.05463 0.81976 0.0
N729 N 0.39451 0.07257 0.83155 0.0
C730 C 0.37552 0.04054 0.84681 0.0
C731 C 0.38255 0.06359 0.89796 0.0
C732 C 0.39263 0.07732 0.86953 0.0
C733 C 0.3741 0.04485 0.88686 0.0
H734 H 0.38723 0.05126 0.78908 0.0
H735 H 0.39905 0.09166 0.87806 0.0
C736 C 0.42951 0.11759 0.67105 0.0
N737 N 0.42592 0.13253 0.59998 0.0
C738 C 0.41199 0.11252 0.65601 0.0
C739 C 0.44519 0.1302 0.64979 0.0
C740 C 0.41047 0.12025 0.62009 0.0
C741 C 0.44309 0.1376 0.61393 0.0
C742 C 0.37793 0.08691 0.76994 0.0
C743 C 0.36137 0.07019 0.76593 0.0
C744 C 0.37947 0.09956 0.79922 0.0
C745 C 0.34668 0.06634 0.79158 0.0
C746 C 0.36446 0.09521 0.82426 0.0
N747 N 0.34852 0.07882 0.81999 0.0
C748 C 0.38437 0.05333 0.67957 0.0
C749 C 0.41022 0.07263 0.63908 0.0
C750 C 0.37636 0.04072 0.64825 0.0
N751 N 0.40084 0.06901 0.67426 0.0
C752 C 0.40275 0.06042 0.60697 0.0
C753 C 0.38554 0.04427 0.61125 0.0
H754 H 0.37751 0.05059 0.70824 0.0
H755 H 0.42357 0.08493 0.63596 0.0
C756 C 0.43007 0.1518 0.72731 0.0
N757 N 0.41409 0.13572 0.73382 0.0
C758 C 0.42999 0.16573 0.70434 0.0
C759 C 0.39687 0.14668 0.69759 0.0
C760 C 0.39759 0.13313 0.7206 0.0
C761 C 0.41331 0.16291 0.68782 0.0
H762 H 0.44304 0.15316 0.73699 0.0
H763 H 0.38519 0.11997 0.72494 0.0
O764 O 0.42094 0.07681 0.76061 0.0
O765 O 0.42862 0.11459 0.79757 0.0
O766 O 0.43137 0.11078 0.70705 0.0
O767 O 0.39275 0.09077 0.7461 0.0
H768 H 0.41611 0.04474 0.78527 0.0
H769 H 0.44351 0.08784 0.69756 0.0
H770 H 0.43036 0.02793 0.754 0.0
H771 H 0.45722 0.0703 0.66792 0.0
H772 H 0.42609 0.14093 0.91468 0.0
H773 H 0.4418 0.09854 0.84509 0.0
H774 H 0.42114 0.13642 0.84115 0.0
H775 H 0.44658 0.10384 0.91841 0.0
H776 H 0.49048 0.09559 0.80302 0.0
H777 H 0.50482 0.14151 0.72304 0.0
H778 H 0.36879 0.0264 0.83636 0.0
H779 H 0.38184 0.06762 0.92844 0.0
H780 H 0.39967 0.10284 0.67201 0.0
H781 H 0.45886 0.13433 0.66092 0.0
H782 H 0.397 0.11652 0.60829 0.0
H783 H 0.45512 0.14742 0.59725 0.0
H784 H 0.35987 0.06025 0.74341 0.0
H785 H 0.3922 0.11253 0.80282 0.0
H786 H 0.33381 0.05342 0.78893 0.0
H787 H 0.36551 0.10483 0.8472 0.0
H788 H 0.36306 0.02845 0.65284 0.0
H789 H 0.4105 0.06347 0.57929 0.0
H790 H 0.443 0.17792 0.69712 0.0
H791 H 0.38372 0.14404 0.68576 0.0
Li792 Li 0.33421 0.43834 0.9335 0.0
Li793 Li 0.31688 0.40678 0.95951 0.0
Li794 Li 0.32522 0.41226 0.88759 0.0
Li795 Li 0.30183 0.41821 0.91521 0.0
C796 C 0.35898 0.42321 0.94262 0.0
N797 N 0.39454 0.431 0.95943 0.0
C798 C 0.36406 0.42191 0.9819 0.0
C799 C 0.37195 0.4282 0.91179 0.0
C800 C 0.38211 0.42598 0.98982 0.0
C801 C 0.38986 0.43216 0.92092 0.0
C802 C 0.29785 0.42199 0.9965 0.0
C803 C 0.26875 0.39814 0.02284 0.0
N804 N 0.26886 0.41038 0.04982 0.0
C805 C 0.29767 0.43432 0.02449 0.0
C806 C 0.28328 0.40373 0.99565 0.0
C807 C 0.28289 0.42819 0.0512 0.0
C808 C 0.35331 0.477 0.92263 0.0
N809 N 0.35314 0.46309 0.94407 0.0
C810 C 0.38242 0.48402 0.973 0.0
C811 C 0.36693 0.46642 0.97021 0.0
C812 C 0.38365 0.49836 0.94882 0.0
C813 C 0.36855 0.49482 0.92435 0.0
H814 H 0.34197 0.47409 0.90269 0.0
H815 H 0.36618 0.45532 0.98806 0.0
C816 C 0.31347 0.3747 0.99253 0.0
N817 N 0.31559 0.3914 0.00245 0.0
C818 C 0.31571 0.36395 0.02151 0.0
C819 C 0.32165 0.38753 0.07068 0.0
C820 C 0.31917 0.39779 0.04074 0.0
C821 C 0.32042 0.37057 0.06099 0.0
H822 H 0.31083 0.37012 0.96167 0.0
H823 H 0.32115 0.41131 0.04754 0.0
C824 C 0.33246 0.44467 0.84755 0.0
N825 N 0.35219 0.46521 0.7819 0.0
C826 C 0.32335 0.44759 0.81568 0.0
C827 C 0.35159 0.45222 0.84602 0.0
C828 C 0.33357 0.458 0.78274 0.0
C829 C 0.36132 0.46257 0.8126 0.0
C830 C 0.28952 0.38283 0.88253 0.0
C831 C 0.28791 0.39042 0.84646 0.0
C832 C 0.27927 0.36374 0.8883 0.0
C833 C 0.27603 0.37877 0.81674 0.0
C834 C 0.26754 0.35254 0.85784 0.0
N835 N 0.26617 0.36023 0.82299 0.0
C836 C 0.33999 0.39233 0.85159 0.0
C837 C 0.32973 0.40664 0.80492 0.0
C838 C 0.34547 0.38498 0.8205 0.0
N839 N 0.33247 0.40309 0.84331 0.0
C840 C 0.33501 0.39959 0.77295 0.0
C841 C 0.34306 0.38866 0.78054 0.0
H842 H 0.34175 0.38952 0.88244 0.0
H843 H 0.32322 0.41473 0.79893 0.0
C844 C 0.28278 0.4342 0.88278 0.0
N845 N 0.28002 0.41827 0.89983 0.0
C846 C 0.26881 0.43437 0.86032 0.0
C847 C 0.2489 0.40209 0.87622 0.0
C848 C 0.26327 0.40258 0.89861 0.0
C849 C 0.25188 0.41795 0.85527 0.0
H850 H 0.29626 0.44647 0.88437 0.0
H851 H 0.26147 0.39007 0.91234 0.0
O852 O 0.34127 0.41903 0.93426 0.0
O853 O 0.31227 0.42788 0.97023 0.0
O854 O 0.3226 0.43434 0.87983 0.0
O855 O 0.30108 0.39391 0.91214 0.0
H856 H 0.35424 0.41803 0.00614 0.0
H857 H 0.36822 0.42885 0.88105 0.0
H858 H 0.38624 0.42516 0.02015 0.0
H859 H 0.40002 0.43607 0.89735 0.0
H860 H 0.2574 0.38406 0.0225 0.0
H861 H 0.30885 0.44849 0.02555 0.0
H862 H 0.28316 0.39394 0.97437 0.0
H863 H 0.28257 0.4376 0.07302 0.0
H864 H 0.39351 0.48625 0.99313 0.0
H865 H 0.36889 0.50542 0.90516 0.0
H866 H 0.31432 0.35084 0.01278 0.0
H867 H 0.3255 0.39334 0.1005 0.0
H868 H 0.30853 0.44172 0.81617 0.0
H869 H 0.35886 0.45029 0.87057 0.0
H870 H 0.3267 0.46031 0.75782 0.0
H871 H 0.37614 0.46853 0.81111 0.0
H872 H 0.29562 0.40516 0.84154 0.0
H873 H 0.28037 0.35765 0.91607 0.0
H874 H 0.27462 0.38448 0.78875 0.0
H875 H 0.25952 0.33774 0.8619 0.0
H876 H 0.35173 0.3767 0.82768 0.0
H877 H 0.33252 0.40243 0.74261 0.0
H878 H 0.27156 0.44701 0.84548 0.0
H879 H 0.2361 0.38912 0.87309 0.0
Li880 Li 0.89504 0.33696 0.09706 0.0
Li881 Li 0.9095 0.32115 0.12874 0.0
Li882 Li 0.91617 0.33101 0.05882 0.0
Li883 Li 0.88647 0.30523 0.0785 0.0
C884 C 0.93908 0.36 0.09868 0.0
N885 N 0.97486 0.38621 0.07896 0.0
C886 C 0.95393 0.3587 0.1141 0.0
C887 C 0.94243 0.37464 0.07322 0.0
C888 C 0.97192 0.37211 0.10382 0.0
C889 C 0.96062 0.38774 0.06359 0.0
C890 C 0.87998 0.31142 0.1708 0.0
C891 C 0.87426 0.29235 0.22925 0.0
N892 N 0.87587 0.30638 0.25276 0.0
C893 C 0.88148 0.32561 0.19545 0.0
C894 C 0.87624 0.29462 0.18771 0.0
C895 C 0.87939 0.3228 0.23686 0.0
C896 C 0.86912 0.34974 0.09722 0.0
N897 N 0.88687 0.35427 0.10493 0.0
C898 C 0.89518 0.38551 0.11839 0.0
C899 C 0.89971 0.37161 0.11643 0.0
C900 C 0.87727 0.38153 0.1082 0.0
C901 C 0.86405 0.36333 0.09808 0.0
H902 H 0.85907 0.33573 0.0891 0.0
H903 H 0.91361 0.37475 0.12319 0.0
C904 C 0.92773 0.30886 0.18306 0.0
N905 N 0.92162 0.32098 0.17673 0.0
C906 C 0.94047 0.31214 0.21365 0.0
C907 C 0.93979 0.33985 0.23111 0.0
C908 C 0.92696 0.33595 0.20066 0.0
C909 C 0.94714 0.32819 0.23702 0.0
H910 H 0.92364 0.29734 0.1629 0.0
H911 H 0.92222 0.34557 0.19425 0.0
C912 C 0.88156 0.33233 0.02288 0.0
N913 N 0.86076 0.34516 0.98497 0.0
C914 C 0.86276 0.32042 0.01574 0.0
C915 C 0.88977 0.35077 0.01065 0.0
C916 C 0.85249 0.32716 0.99649 0.0
C917 C 0.87902 0.35699 0.99161 0.0
C918 C 0.90772 0.29048 0.07061 0.0
C919 C 0.91288 0.28819 0.03212 0.0
C920 C 0.89835 0.27517 0.09573 0.0
C921 C 0.9084 0.27054 0.01926 0.0
C922 C 0.89411 0.25774 0.08174 0.0
N923 N 0.89917 0.2558 0.0441 0.0
C924 C 0.94965 0.3382 0.02294 0.0
C925 C 0.93055 0.34513 0.98261 0.0
C926 C 0.96238 0.34304 0.99179 0.0
N927 N 0.93412 0.33931 0.01772 0.0
C928 C 0.94288 0.35012 0.95075 0.0
C929 C 0.95894 0.3489 0.95494 0.0
H930 H 0.95189 0.33313 0.05098 0.0
H931 H 0.91795 0.34554 0.97899 0.0
C932 C 0.85241 0.26983 0.07533 0.0
N933 N 0.86769 0.28287 0.05595 0.0
C934 C 0.83896 0.25448 0.05421 0.0
C935 C 0.85754 0.26632 0.99431 0.0
C936 C 0.87043 0.28139 0.01632 0.0
C937 C 0.84148 0.25266 0.01308 0.0
H938 H 0.85053 0.27149 0.10683 0.0
H939 H 0.88254 0.29221 0.00162 0.0
O940 O 0.92133 0.3468 0.10766 0.0
O941 O 0.88237 0.31405 0.13032 0.0
O942 O 0.89183 0.32603 0.042 0.0
O943 O 0.91163 0.30759 0.08346 0.0
H944 H 0.95164 0.34733 0.1333 0.0
H945 H 0.93111 0.37578 0.06073 0.0
H946 H 0.98353 0.37123 0.11541 0.0
H947 H 0.96341 0.39909 0.04379 0.0
H948 H 0.87145 0.27945 0.2428 0.0
H949 H 0.8844 0.33871 0.1828 0.0
H950 H 0.87496 0.28348 0.16897 0.0
H951 H 0.88061 0.33369 0.25636 0.0
H952 H 0.90578 0.3994 0.12622 0.0
H953 H 0.85005 0.35971 0.0905 0.0
H954 H 0.94598 0.30293 0.2172 0.0
H955 H 0.94456 0.35232 0.24869 0.0
H956 H 0.85608 0.30617 0.02528 0.0
H957 H 0.90423 0.36025 0.01637 0.0
H958 H 0.83792 0.31811 0.99088 0.0
H959 H 0.88517 0.37125 0.98227 0.0
H960 H 0.92004 0.29987 0.01219 0.0
H961 H 0.89422 0.2767 0.12554 0.0
H962 H 0.9122 0.26854 0.98946 0.0
H963 H 0.88676 0.24575 0.10076 0.0
H964 H 0.97447 0.34166 0.9961 0.0
H965 H 0.9398 0.35478 0.92303 0.0
H966 H 0.82674 0.24422 0.06974 0.0
H967 H 0.85986 0.2657 0.96255 0.0
Li968 Li 0.59102 0.90922 0.29481 0.0
Li969 Li 0.56072 0.89388 0.26551 0.0
Li970 Li 0.58303 0.88229 0.25351 0.0
Li971 Li 0.58759 0.91164 0.22365 0.0
C972 C 0.57265 0.87795 0.34215 0.0
N973 N 0.57575 0.86699 0.41849 0.0
C974 C 0.56328 0.8804 0.37408 0.0
C975 C 0.58344 0.86975 0.3489 0.0
C976 C 0.56507 0.87481 0.4125 0.0
C977 C 0.58488 0.86437 0.38776 0.0
C978 C 0.56816 0.92835 0.27815 0.0
C979 C 0.54596 0.9378 0.26217 0.0
N980 N 0.54652 0.94321 0.30084 0.0
C981 C 0.56853 0.93403 0.31775 0.0
C982 C 0.55683 0.93031 0.25009 0.0
C983 C 0.5575 0.94152 0.3286 0.0
C984 C 0.61463 0.94313 0.32491 0.0
N985 N 0.60594 0.92525 0.33719 0.0
C986 C 0.618 0.93462 0.40345 0.0
C987 C 0.60781 0.92072 0.3754 0.0
C988 C 0.62653 0.95328 0.39182 0.0
C989 C 0.62515 0.95736 0.35157 0.0
H990 H 0.61306 0.94637 0.29428 0.0
H991 H 0.60116 0.90648 0.38456 0.0
C992 C 0.5237 0.87742 0.24028 0.0
N993 N 0.53529 0.88652 0.27126 0.0
C994 C 0.50571 0.87441 0.24026 0.0
C995 C 0.51165 0.88938 0.30493 0.0
C996 C 0.5294 0.89178 0.30404 0.0
C997 C 0.49976 0.88099 0.27229 0.0
H998 H 0.52861 0.8731 0.21489 0.0
H999 H 0.53875 0.89863 0.32865 0.0
C1000 C 0.62323 0.91627 0.26422 0.0
N1001 N 0.6586 0.93658 0.2944 0.0
C1002 C 0.63514 0.93401 0.2496 0.0
C1003 C 0.62934 0.90878 0.29387 0.0
C1004 C 0.65297 0.94408 0.26533 0.0
C1005 C 0.64727 0.9193 0.30884 0.0
C1006 C 0.5652 0.88592 0.17377 0.0
C1007 C 0.57252 0.87742 0.1498 0.0
C1008 C 0.55658 0.89472 0.15573 0.0
C1009 C 0.57115 0.87794 0.10812 0.0
C1010 C 0.55552 0.89497 0.11395 0.0
N1011 N 0.56277 0.88665 0.09121 0.0
C1012 C 0.56893 0.84558 0.23133 0.0
C1013 C 0.60158 0.86389 0.22868 0.0
C1014 C 0.56935 0.83171 0.20888 0.0
N1015 N 0.58486 0.86148 0.23946 0.0
C1016 C 0.60264 0.85034 0.20638 0.0
C1017 C 0.58632 0.83436 0.19464 0.0
H1018 H 0.55583 0.84436 0.2393 0.0
H1019 H 0.61396 0.87688 0.23475 0.0
C1020 C 0.5958 0.94283 0.17743 0.0
N1021 N 0.59731 0.92741 0.17878 0.0
C1022 C 0.60301 0.95492 0.14512 0.0
C1023 C 0.61344 0.93517 0.11636 0.0
C1024 C 0.60611 0.9235 0.14944 0.0
C1025 C 0.61195 0.95114 0.11404 0.0
H1026 H 0.58913 0.94582 0.2016 0.0
H1027 H 0.6075 0.91136 0.1519 0.0
O1028 O 0.5708 0.883 0.30426 0.0
O1029 O 0.57873 0.92083 0.26696 0.0
O1030 O 0.6056 0.90637 0.24981 0.0
O1031 O 0.56672 0.88588 0.21464 0.0
H1032 H 0.5548 0.88663 0.36928 0.0
H1033 H 0.59057 0.86754 0.32438 0.0
H1034 H 0.55797 0.8767 0.43756 0.0
H1035 H 0.59323 0.85806 0.39348 0.0
H1036 H 0.53704 0.93926 0.24082 0.0
H1037 H 0.577 0.93243 0.34007 0.0
H1038 H 0.55627 0.92591 0.21939 0.0
H1039 H 0.5576 0.94588 0.35917 0.0
H1040 H 0.61863 0.93076 0.43414 0.0
H1041 H 0.63188 0.97144 0.34075 0.0
H1042 H 0.4969 0.86789 0.21454 0.0
H1043 H 0.50743 0.89445 0.33034 0.0
H1044 H 0.6306 0.94001 0.22668 0.0
H1045 H 0.62028 0.89507 0.30546 0.0
H1046 H 0.66231 0.95787 0.25449 0.0
H1047 H 0.65215 0.91373 0.332 0.0
H1048 H 0.57939 0.87069 0.16309 0.0
H1049 H 0.5509 0.90142 0.17378 0.0
H1050 H 0.57682 0.87149 0.08922 0.0
H1051 H 0.54897 0.90181 0.09961 0.0
H1052 H 0.55642 0.81975 0.20016 0.0
H1053 H 0.61603 0.85282 0.19655 0.0
H1054 H 0.60148 0.96703 0.14433 0.0
H1055 H 0.62047 0.93193 0.09328 0.0
H1056 H 0.33964 0.35237 0.04843 0.0
H1057 H 0.34914 0.33644 0.28094 0.0
H1058 H 0.31311 0.36636 0.14204 0.0
H1059 H 0.36941 0.31589 0.18663 0.0
H1060 H 0.33499 0.34652 0.23055 0.0
H1061 H 0.3497 0.33801 0.09833 0.0
C1062 C 0.33566 0.3522 0.07938 0.0
C1063 C 0.32546 0.36063 0.09093 0.0
C1064 C 0.34241 0.33968 0.22085 0.0
C1065 C 0.33738 0.34449 0.14856 0.0
C1066 C 0.35041 0.33378 0.24967 0.0
C1067 C 0.36052 0.32525 0.23813 0.0
C1068 C 0.3446 0.3372 0.18002 0.0
C1069 C 0.36199 0.32261 0.19699 0.0
C1070 C 0.34156 0.34409 0.10795 0.0
C1071 C 0.32114 0.36028 0.13174 0.0
N1072 N 0.35421 0.32864 0.16946 0.0
N1073 N 0.32721 0.35245 0.15906 0.0
H1074 H 0.01624 0.34305 0.44218 0.0
H1075 H 0.9789 0.36125 0.23889 0.0
H1076 H 0.05074 0.38672 0.36024 0.0
H1077 H 0.95147 0.30805 0.29685 0.0
H1078 H 0.00488 0.37119 0.28494 0.0
H1079 H 0.99196 0.33 0.39098 0.0
C1080 C 0.01875 0.34976 0.41323 0.0
C1081 C 0.03547 0.36603 0.40542 0.0
C1082 C 0.99325 0.3573 0.28752 0.0
C1083 C 0.00775 0.35135 0.3471 0.0
C1084 C 0.97837 0.35168 0.26149 0.0
C1085 C 0.96298 0.33389 0.26448 0.0
C1086 C 0.99267 0.34514 0.31723 0.0
C1087 C 0.9631 0.3219 0.29375 0.0
C1088 C 0.00494 0.34229 0.38405 0.0
C1089 C 0.0381 0.37411 0.36739 0.0
N1090 N 0.97765 0.32782 0.3194 0.0
N1091 N 0.02429 0.36683 0.33983 0.0
H1092 H 0.62688 0.98621 0.39425 0.0
H1093 H 0.6752 0.01719 0.60723 0.0
H1094 H 0.64742 0.95511 0.45776 0.0
H1095 H 0.66807 0.05365 0.52709 0.0
H1096 H 0.66512 0.99412 0.55365 0.0
H1097 H 0.64176 0.01083 0.44321 0.0
C1098 C 0.63474 0.98461 0.41814 0.0
C1099 C 0.63596 0.9685 0.42152 0.0
C1100 C 0.66598 0.00725 0.54766 0.0
C1101 C 0.65271 0.99668 0.47867 0.0
C1102 C 0.67167 0.02039 0.57822 0.0
C1103 C 0.67235 0.0373 0.57161 0.0
C1104 C 0.6607 0.01097 0.51043 0.0
C1105 C 0.66783 0.04083 0.53339 0.0
C1106 C 0.64317 0.9987 0.4463 0.0
C1107 C 0.64589 0.96713 0.45407 0.0
N1108 N 0.66199 0.02769 0.50439 0.0
N1109 N 0.6538 0.98099 0.48152 0.0
H1110 H 0.63186 0.6199 0.56053 0.0
H1111 H 0.65748 0.67929 0.76024 0.0
H1112 H 0.68714 0.64732 0.60923 0.0
H1113 H 0.60929 0.66575 0.68897 0.0
H1114 H 0.66869 0.66732 0.70672 0.0
H1115 H 0.62326 0.63596 0.60894 0.0
C1116 C 0.6423 0.62946 0.58105 0.0
C1117 C 0.66035 0.63232 0.58041 0.0
C1118 C 0.65578 0.66719 0.70262 0.0
C1119 C 0.65033 0.6505 0.63691 0.0
C1120 C 0.64937 0.67396 0.73314 0.0
C1121 C 0.6324 0.67342 0.72905 0.0
C1122 C 0.645 0.65957 0.66809 0.0
C1123 C 0.6225 0.66654 0.69324 0.0
C1124 C 0.63731 0.63858 0.60889 0.0
C1125 C 0.67303 0.64449 0.60879 0.0
N1126 N 0.62884 0.65969 0.66435 0.0
N1127 N 0.66775 0.65307 0.63603 0.0
H1128 H 0.04946 0.68717 0.80542 0.0
H1129 H 0.94128 0.63257 0.85153 0.0
H1130 H 0.00835 0.6539 0.71698 0.0
H1131 H 0.9829 0.64446 0.94174 0.0
H1132 H 0.9657 0.64642 0.80104 0.0
H1133 H 0.0249 0.67759 0.85521 0.0
C1134 C 0.03534 0.67792 0.79631 0.0
C1135 C 0.0311 0.67128 0.75678 0.0
C1136 C 0.9694 0.6461 0.83204 0.0
C1137 C 0.00291 0.66065 0.81355 0.0
C1138 C 0.95547 0.63811 0.86089 0.0
C1139 C 0.9599 0.6372 0.90118 0.0
C1140 C 0.9879 0.65345 0.84356 0.0
C1141 C 0.97868 0.64506 0.91139 0.0
C1142 C 0.02133 0.67256 0.82474 0.0
C1143 C 0.0124 0.65966 0.74676 0.0
N1144 N 0.99194 0.6528 0.88281 0.0
N1145 N 0.99903 0.6547 0.77494 0.0
H1146 H 0.37353 0.01184 0.89075 0.0
H1147 H 0.32332 0.9813 0.1017 0.0
H1148 H 0.35293 0.04345 0.95185 0.0
H1149 H 0.32983 0.94429 0.02214 0.0
H1150 H 0.33425 0.00451 0.04827 0.0
H1151 H 0.35799 0.98731 0.93963 0.0
C1152 C 0.36554 0.01358 0.9141 0.0
C1153 C 0.36448 0.02979 0.91681 0.0
C1154 C 0.33306 0.99123 0.04237 0.0
C1155 C 0.34694 0.0017 0.97384 0.0
C1156 C 0.32687 0.97801 0.07283 0.0
C1157 C 0.32577 0.9609 0.06634 0.0
C1158 C 0.33842 0.98738 0.0054 0.0
C1159 C 0.33036 0.95726 0.02833 0.0
C1160 C 0.35673 0.99953 0.9422 0.0
C1161 C 0.35435 0.03134 0.94871 0.0
N1162 N 0.3367 0.97047 -0.00055 0.0
N1163 N 0.34605 0.01751 0.97611 0.0
H1164 H 0.60102 0.46935 0.47534 0.0
H1165 H 0.51748 0.40069 0.33309 0.0
H1166 H 0.59497 0.4813 0.35211 0.0
H1167 H 0.51854 0.39293 0.46085 0.0
H1168 H 0.54777 0.42852 0.33794 0.0
H1169 H 0.5726 0.43955 0.46902 0.0
C1170 C 0.59376 0.46572 0.44695 0.0
C1171 C 0.60043 0.47793 0.41425 0.0
C1172 C 0.54141 0.42067 0.36488 0.0
C1173 C 0.56797 0.44374 0.40672 0.0
C1174 C 0.52408 0.40481 0.36216 0.0
C1175 C 0.51536 0.39449 0.39664 0.0
C1176 C 0.55015 0.42629 0.40236 0.0
C1177 C 0.52478 0.40033 0.43339 0.0
C1178 C 0.57758 0.44867 0.44332 0.0
C1179 C 0.59057 0.4723 0.37799 0.0
N1180 N 0.54161 0.41588 0.4353 0.0
N1181 N 0.57483 0.45567 0.37528 0.0
H1182 H 0.11921 0.5179 0.64774 0.0
H1183 H 0.12549 0.60472 0.53612 0.0
H1184 H 0.13236 0.52892 0.52191 0.0
H1185 H 0.12609 0.6004 0.66511 0.0
H1186 H 0.1285 0.57732 0.53029 0.0
H1187 H 0.12204 0.54818 0.6548 0.0
C1188 C 0.12298 0.52676 0.62165 0.0
C1189 C 0.12552 0.52073 0.58409 0.0
C1190 C 0.12815 0.58247 0.55988 0.0
C1191 C 0.12835 0.5554 0.59194 0.0
C1192 C 0.12657 0.59823 0.56329 0.0
C1193 C 0.12547 0.60494 0.60123 0.0
C1194 C 0.12844 0.57314 0.5946 0.0
C1195 C 0.12653 0.5956 0.63524 0.0
C1196 C 0.12448 0.54405 0.62572 0.0
C1197 C 0.12995 0.53278 0.5513 0.0
N1198 N 0.1278 0.5801 0.63111 0.0
N1199 N 0.13109 0.54946 0.55593 0.0
H1200 H 0.52233 0.11919 0.82388 0.0
H1201 H 0.59838 0.12118 0.67645 0.0
H1202 H 0.52153 0.12605 0.69582 0.0
H1203 H 0.60413 0.1244 0.80521 0.0
H1204 H 0.57054 0.12361 0.68278 0.0
H1205 H 0.55266 0.12173 0.81778 0.0
C1206 C 0.5286 0.12133 0.79451 0.0
C1207 C 0.51938 0.12234 0.76029 0.0
C1208 C 0.57799 0.12397 0.70963 0.0
C1209 C 0.55403 0.1252 0.75301 0.0
C1210 C 0.59383 0.12251 0.70603 0.0
C1211 C 0.60355 0.12253 0.74036 0.0
C1212 C 0.57168 0.12525 0.74787 0.0
C1213 C 0.59716 0.12448 0.77793 0.0
C1214 C 0.54594 0.12286 0.79104 0.0
C1215 C 0.52822 0.12533 0.72301 0.0
N1216 N 0.58153 0.12559 0.78071 0.0
N1217 N 0.54497 0.12648 0.72032 0.0
H1218 H 0.49797 0.58186 0.92002 0.0
H1219 H 0.3882 0.53328 0.94325 0.0
H1220 H 0.46854 0.61197 0.91506 0.0
H1221 H 0.41893 0.50448 0.9485 0.0
H1222 H 0.41727 0.5624 0.93467 0.0
H1223 H 0.46891 0.55349 0.93174 0.0
C1224 C 0.48535 0.58248 0.92103 0.0
C1225 C 0.48568 0.59931 0.91613 0.0
C1226 C 0.41762 0.54971 0.93796 0.0
C1227 C 0.45226 0.5668 0.93026 0.0
C1228 C 0.40104 0.53308 0.94274 0.0
C1229 C 0.4011 0.51638 0.94669 0.0
C1230 C 0.43437 0.54963 0.93694 0.0
C1231 C 0.41818 0.51699 0.94623 0.0
C1232 C 0.46875 0.56627 0.92808 0.0
C1233 C 0.46893 0.59931 0.91882 0.0
N1234 N 0.43407 0.5333 0.94128 0.0
N1235 N 0.45287 0.58328 0.92557 0.0
H1236 H 0.88503 0.40854 0.16351 0.0
H1237 H 0.86303 0.46944 0.01478 0.0
H1238 H 0.86001 0.38898 0.0475 0.0
H1239 H 0.87583 0.48235 0.1401 0.0
H1240 H 0.8611 0.43958 0.02604 0.0
H1241 H 0.88097 0.43536 0.15587 0.0
C1242 C 0.87853 0.40985 0.13658 0.0
C1243 C 0.87291 0.39661 0.10602 0.0
C1244 C 0.8641 0.44886 0.05115 0.0
C1245 C 0.86837 0.42732 0.0968 0.0
C1246 C 0.86528 0.46593 0.04469 0.0
C1247 C 0.86963 0.47841 0.07652 0.0
C1248 C 0.86755 0.44438 0.08959 0.0
C1249 C 0.87226 0.47309 0.11476 0.0
C1250 C 0.87616 0.42511 0.13224 0.0
C1251 C 0.86443 0.39885 0.07185 0.0
N1252 N 0.87137 0.45657 0.12013 0.0
N1253 N 0.86262 0.41405 0.06792 0.0
H1254 H 0.38453 0.8518 0.25837 0.0
H1255 H 0.4936 0.90966 0.28305 0.0
H1256 H 0.41674 0.90949 0.22756 0.0
H1257 H 0.4656 0.85152 0.25522 0.0
H1258 H 0.46444 0.90948 0.27453 0.0
H1259 H 0.41329 0.851 0.26788 0.0
C1260 C 0.39766 0.86424 0.2535 0.0
C1261 C 0.39836 0.8807 0.24193 0.0
C1262 C 0.46467 0.89675 0.27044 0.0
C1263 C 0.43104 0.87999 0.25348 0.0
C1264 C 0.48123 0.89681 0.27564 0.0
C1265 C 0.48191 0.88056 0.26994 0.0
C1266 C 0.44864 0.88027 0.26007 0.0
C1267 C 0.46558 0.86432 0.25977 0.0
C1268 C 0.41399 0.86378 0.25883 0.0
C1269 C 0.41566 0.89649 0.23603 0.0
N1270 N 0.44953 0.86455 0.25534 0.0
N1271 N 0.43134 0.89579 0.24221 0.0
H1272 H 0.3389 0.35412 0.7734 0.0
H1273 H 0.38709 0.37421 0.55769 0.0
H1274 H 0.36037 0.40607 0.711 0.0
H1275 H 0.3661 0.32229 0.62001 0.0
H1276 H 0.37669 0.38584 0.613 0.0
H1277 H 0.34852 0.34206 0.71735 0.0
C1278 C 0.34573 0.36302 0.74801 0.0
C1279 C 0.34885 0.38113 0.74688 0.0
C1280 C 0.37433 0.37189 0.61458 0.0
C1281 C 0.35971 0.36737 0.68247 0.0
C1282 C 0.38015 0.3652 0.58287 0.0
C1283 C 0.37746 0.34725 0.58423 0.0
C1284 C 0.36574 0.36056 0.64794 0.0
C1285 C 0.36866 0.3363 0.61794 0.0
C1286 C 0.35112 0.3561 0.71592 0.0
C1287 C 0.35749 0.39196 0.71293 0.0
N1288 N 0.36312 0.34313 0.64848 0.0
N1289 N 0.36263 0.38492 0.68212 0.0
H1290 H 0.94999 0.3398 0.87617 0.0
H1291 H 0.05464 0.38944 0.8 0.0
H1292 H 0.99687 0.36758 0.95542 0.0
H1293 H 0.0074 0.36823 0.72135 0.0
H1294 H 0.0338 0.37899 0.85777 0.0
H1295 H 0.97098 0.34785 0.81948 0.0
C1296 C 0.96471 0.34769 0.88164 0.0
C1297 C 0.97168 0.35321 0.92057 0.0
C1298 C 0.02801 0.37658 0.82787 0.0
C1299 C 0.99583 0.36224 0.85575 0.0
C1300 C 0.03987 0.38244 0.79492 0.0
C1301 C 0.03271 0.37976 0.75589 0.0
C1302 C 0.00886 0.36793 0.82166 0.0
C1303 C 0.0135 0.37079 0.75097 0.0
C1304 C 0.9767 0.35218 0.84926 0.0
C1305 C 0.9909 0.36297 0.92594 0.0
N1306 N 0.00225 0.36522 0.78347 0.0
N1307 N 0.00233 0.36725 0.89383 0.0
H1308 H 0.60995 0.94257 0.03419 0.0
H1309 H 0.66252 0.04835 0.96482 0.0
H1310 H 0.63175 0.98882 0.11572 0.0
H1311 H 0.63684 0.00262 0.88209 0.0
H1312 H 0.65323 0.02654 0.0203 0.0
H1313 H 0.62185 0.96417 0.9778 0.0
C1314 C 0.61738 0.95727 0.04021 0.0
C1315 C 0.61976 0.96394 0.07963 0.0
C1316 C 0.64964 0.02125 0.99002 0.0
C1317 C 0.63326 0.98867 0.01544 0.0
C1318 C 0.65486 0.0337 0.95834 0.0
C1319 C 0.6503 0.0273 0.91879 0.0
C1320 C 0.63978 0.0022 0.9822 0.0
C1321 C 0.64073 0.00816 0.91211 0.0
C1322 C 0.62407 0.96958 0.00804 0.0
C1323 C 0.62934 0.9831 0.08576 0.0
N1324 N 0.6357 0.99627 0.94354 0.0
N1325 N 0.63569 0.99478 0.05401 0.0
H1326 H 0.63892 0.6457 0.04089 0.0
H1327 H 0.64225 0.63476 0.27811 0.0
H1328 H 0.61932 0.67062 0.12663 0.0
H1329 H 0.66717 0.61449 0.19406 0.0
H1330 H 0.63452 0.64871 0.22269 0.0
H1331 H 0.65057 0.63521 0.09621 0.0
C1332 C 0.63726 0.64916 0.07131 0.0
C1333 C 0.628 0.65893 0.07917 0.0
C1334 C 0.64176 0.6413 0.21631 0.0
C1335 C 0.64104 0.64674 0.14257 0.0
C1336 C 0.64607 0.63323 0.24791 0.0
C1337 C 0.65522 0.62333 0.24057 0.0
C1338 C 0.64652 0.63935 0.17697 0.0
C1339 C 0.66017 0.62208 0.20099 0.0
C1340 C 0.64382 0.64308 0.10288 0.0
C1341 C 0.62606 0.66283 0.11921 0.0
N1342 N 0.65563 0.62988 0.17058 0.0
N1343 N 0.63242 0.65663 0.14939 0.0
H1344 H 0.03389 0.62128 0.39793 0.0
H1345 H 0.97308 0.64356 0.24739 0.0
H1346 H 0.02834 0.66976 0.40718 0.0
H1347 H 0.97477 0.59281 0.24529 0.0
H1348 H 0.99458 0.65417 0.3038 0.0
H1349 H 0.01349 0.61138 0.3397 0.0
C1350 C 0.02831 0.62981 0.38781 0.0
C1351 C 0.03274 0.64633 0.4076 0.0
C1352 C 0.99027 0.64073 0.29095 0.0
C1353 C 0.00955 0.63518 0.34065 0.0
C1354 C 0.97793 0.63462 0.25887 0.0
C1355 C 0.97207 0.61724 0.24167 0.0
C1356 C 0.99682 0.62938 0.30595 0.0
C1357 C 0.97907 0.60639 0.25731 0.0
C1358 C 0.01675 0.6242 0.35442 0.0
C1359 C 0.02543 0.65702 0.39264 0.0
N1360 N 0.99104 0.61262 0.28863 0.0
N1361 N 0.01414 0.65123 0.36012 0.0
H1362 H 0.33306 0.94651 0.46213 0.0
H1363 H 0.38516 0.05225 0.53178 0.0
H1364 H 0.35592 0.99264 0.38022 0.0
H1365 H 0.36716 0.00642 0.61359 0.0
H1366 H 0.37247 0.03049 0.47612 0.0
H1367 H 0.34306 0.96815 0.51838 0.0
C1368 C 0.34003 0.96119 0.456 0.0
C1369 C 0.34376 0.96781 0.41648 0.0
C1370 C 0.37126 0.02518 0.50625 0.0
C1371 C 0.35538 0.99261 0.48059 0.0
C1372 C 0.37859 0.03761 0.53802 0.0
C1373 C 0.37733 0.03115 0.57739 0.0
C1374 C 0.36258 0.00614 0.51384 0.0
C1375 C 0.36831 0.012 0.58378 0.0
C1376 C 0.34583 0.97353 0.48809 0.0
C1377 C 0.35302 0.98696 0.41024 0.0
N1378 N 0.36134 0.00017 0.55231 0.0
N1379 N 0.35855 0.99869 0.44196 0.0
H1380 H 0.39657 0.21051 0.47202 0.0
H1381 H 0.433 0.20083 0.68812 0.0
H1382 H 0.43461 0.25684 0.54447 0.0
H1383 H 0.39405 0.15434 0.61735 0.0
H1384 H 0.43403 0.22159 0.63523 0.0
H1385 H 0.39573 0.1896 0.5244 0.0
C1386 C 0.40479 0.21628 0.49882 0.0
C1387 C 0.41577 0.23547 0.50366 0.0
C1388 C 0.42519 0.20684 0.63135 0.0
C1389 C 0.41487 0.21164 0.56375 0.0
C1390 C 0.42462 0.195 0.66152 0.0
C1391 C 0.41332 0.17583 0.65732 0.0
C1392 C 0.41445 0.19947 0.59658 0.0
C1393 C 0.40269 0.16904 0.62226 0.0
C1394 C 0.40434 0.20435 0.52869 0.0
C1395 C 0.42623 0.24216 0.53897 0.0
N1396 N 0.40354 0.18083 0.59324 0.0
N1397 N 0.42549 0.23028 0.56763 0.0
H1398 H 0.21393 0.39939 0.86048 0.0
H1399 H 0.20032 0.42848 0.63949 0.0
H1400 H 0.25888 0.43379 0.78094 0.0
H1401 H 0.15512 0.39357 0.71793 0.0
H1402 H 0.22199 0.43017 0.69078 0.0
H1403 H 0.19207 0.39675 0.8085 0.0
C1404 C 0.2192 0.40641 0.83216 0.0
C1405 C 0.23828 0.41694 0.82525 0.0
C1406 C 0.20732 0.42205 0.69669 0.0
C1407 C 0.21336 0.41398 0.7656 0.0
C1408 C 0.19495 0.42111 0.66742 0.0
C1409 C 0.17587 0.41084 0.67433 0.0
C1410 C 0.20059 0.41273 0.73329 0.0
C1411 C 0.1697 0.40142 0.71099 0.0
C1412 C 0.20672 0.40493 0.80251 0.0
C1413 C 0.24432 0.42584 0.78801 0.0
N1414 N 0.18201 0.40266 0.73913 0.0
N1415 N 0.23192 0.42413 0.75965 0.0
H1416 H 0.80397 0.23831 0.01443 0.0
H1417 H 0.78631 0.17291 0.82428 0.0
H1418 H 0.84661 0.2322 0.95595 0.0
H1419 H 0.74368 0.17979 0.88055 0.0
H1420 H 0.80834 0.19367 0.87409 0.0
H1421 H 0.78123 0.21542 0.9684 0.0
C1422 C 0.8085 0.23194 0.99231 0.0
C1423 C 0.82722 0.23725 0.98883 0.0
C1424 C 0.79418 0.19068 0.87552 0.0
C1425 C 0.80138 0.21132 0.93566 0.0
C1426 C 0.78159 0.17881 0.8471 0.0
C1427 C 0.76315 0.17468 0.84809 0.0
C1428 C 0.78829 0.19846 0.90531 0.0
C1429 C 0.75784 0.18283 0.87819 0.0
C1430 C 0.79555 0.21901 0.9658 0.0
C1431 C 0.83235 0.22872 0.95929 0.0
N1432 N 0.77034 0.19431 0.90562 0.0
N1433 N 0.81953 0.21626 0.93374 0.0
H1434 H 0.60819 0.8436 0.12794 0.0
H1435 H 0.56002 0.74065 0.04149 0.0
H1436 H 0.56512 0.79646 0.19028 0.0
H1437 H 0.6049 0.78758 0.98261 0.0
H1438 H 0.56104 0.76092 0.09533 0.0
H1439 H 0.60719 0.82322 0.0747 0.0
C1440 C 0.59872 0.82891 0.13083 0.0
C1441 C 0.5868 0.82174 0.16391 0.0
C1442 C 0.57061 0.76681 0.07056 0.0
C1443 C 0.58526 0.79832 0.1022 0.0
C1444 C 0.5699 0.75528 0.03956 0.0
C1445 C 0.58232 0.76247 0.00733 0.0
C1446 C 0.58383 0.78569 0.06939 0.0
C1447 C 0.59514 0.78145 0.00697 0.0
C1448 C 0.59802 0.81729 0.1001 0.0
C1449 C 0.57447 0.80262 0.16526 0.0
N1450 N 0.59556 0.7924 0.03753 0.0
N1451 N 0.574 0.79158 0.1348 0.0
H1452 H 0.78569 0.61752 0.34627 0.0
H1453 H 0.80851 0.56051 0.18655 0.0
H1454 H 0.74786 0.56057 0.31575 0.0
H1455 H 0.84005 0.61993 0.1968 0.0
H1456 H 0.78715 0.55989 0.23703 0.0
H1457 H 0.80722 0.61815 0.29586 0.0
C1458 C 0.78193 0.60513 0.32916 0.0
C1459 C 0.7649 0.58897 0.33538 0.0
C1460 C 0.7987 0.57307 0.2281 0.0
C1461 C 0.78952 0.5896 0.27773 0.0
C1462 C 0.81083 0.57347 0.19893 0.0
C1463 C 0.82614 0.59031 0.18722 0.0
C1464 C 0.80193 0.58961 0.24602 0.0
C1465 C 0.8286 0.60659 0.20521 0.0
C1466 C 0.79423 0.60551 0.30038 0.0
C1467 C 0.76092 0.57326 0.31263 0.0
N1468 N 0.81668 0.60583 0.23381 0.0
N1469 N 0.77311 0.57399 0.2848 0.0
H1470 H 0.15292 0.76408 0.45303 0.0
H1471 H 0.25542 0.81408 0.36396 0.0
H1472 H 0.19757 0.75903 0.50444 0.0
H1473 H 0.2117 0.82169 0.31627 0.0
H1474 H 0.23406 0.79291 0.4139 0.0
H1475 H 0.17409 0.78491 0.40232 0.0
C1476 C 0.16724 0.76754 0.45402 0.0
C1477 C 0.17348 0.75984 0.48325 0.0
C1478 C 0.22909 0.79913 0.39243 0.0
C1479 C 0.19773 0.78341 0.42455 0.0
C1480 C 0.24124 0.81109 0.36358 0.0
C1481 C 0.23533 0.81962 0.33569 0.0
C1482 C 0.21085 0.79565 0.39353 0.0
C1483 C 0.21689 0.81553 0.33735 0.0
C1484 C 0.17928 0.77931 0.42477 0.0
C1485 C 0.1921 0.7645 0.48232 0.0
N1486 N 0.20531 0.80385 0.36581 0.0
N1487 N 0.20355 0.77595 0.45344 0.0
loop_
_geom_bond_atom_site_label_1
_geom_bond_atom_site_label_2
_geom_bond_distance
_geom_bond_site_symmetry_2
_ccdc_geom_bond_type
Li0 N17 1.990 . S
Li0 O60 1.956 . S
Li0 O61 1.970 . S
Li0 O62 1.961 . S
Li1 N25 1.990 . S
Li1 O60 1.970 . S
Li1 O61 1.956 . S
Li1 O63 1.961 . S
Li2 N47 1.990 . S
Li2 O60 1.961 . S
Li2 O62 1.956 . S
Li2 O63 1.970 . S
Li3 N53 1.990 . S
Li3 O61 1.961 . S
Li3 O62 1.970 . S
Li3 O63 1.956 . S
C4 C6 1.348 . S
C4 C7 1.356 . S
C4 O60 1.325 . S
N5 C8 1.314 . S
N5 C9 1.279 . S
C6 C4 1.348 . S
C6 C8 1.353 . S
C6 H64 0.929 . S
C7 C4 1.356 . S
C7 C9 1.358 . S
C7 H65 0.930 . S
C8 N5 1.314 . S
C8 C6 1.353 . S
C8 H66 0.930 . S
C9 N5 1.279 . S
C9 C7 1.358 . S
C9 H67 0.930 . S
C10 C13 1.348 . S
C10 C14 1.356 . S
C10 O61 1.325 . S
C11 N12 1.279 . S
C11 C14 1.358 . S
C11 H68 0.930 . S
N12 C11 1.279 . S
N12 C15 1.314 . S
C13 C10 1.348 . S
C13 C15 1.353 . S
C13 H69 0.929 . S
C14 C10 1.356 . S
C14 C11 1.358 . S
C14 H70 0.930 . S
C15 N12 1.314 . S
C15 C13 1.353 . S
C15 H71 0.930 . S
C16 N17 1.314 . S
C16 C21 1.353 . S
C16 H22 0.930 . S
N17 Li0 1.990 . S
N17 C16 1.314 . S
N17 C19 1.279 . S
C18 C19 1.358 . S
C18 C20 1.356 . S
C18 H72 0.930 . S
C19 N17 1.279 . S
C19 C18 1.358 . S
C19 H23 0.930 . S
C20 C18 1.356 . S
C20 C21 1.348 . S
C21 C16 1.353 . S
C21 C20 1.348 . S
C21 H73 0.929 . S
H22 C16 0.930 . S
H23 C19 0.930 . S
C24 N25 1.314 . S
C24 C26 1.353 . S
C24 H30 0.930 . S
N25 Li1 1.990 . S
N25 C24 1.314 . S
N25 C28 1.279 . S
C26 C24 1.353 . S
C26 C29 1.348 . S
C26 H74 0.929 . S
C27 C28 1.358 . S
C27 C29 1.356 . S
C27 H75 0.930 . S
C28 N25 1.279 . S
C28 C27 1.358 . S
C28 H31 0.930 . S
C29 C26 1.348 . S
C29 C27 1.356 . S
H30 C24 0.930 . S
H31 C28 0.930 . S
C32 C34 1.348 . S
C32 C35 1.356 . S
C32 O62 1.325 . S
N33 C36 1.314 . S
N33 C37 1.279 . S
C34 C32 1.348 . S
C34 C36 1.353 . S
C34 H76 0.929 . S
C35 C32 1.356 . S
C35 C37 1.358 . S
C35 H77 0.930 . S
C36 N33 1.314 . S
C36 C34 1.353 . S
C36 H78 0.930 . S
C37 N33 1.279 . S
C37 C35 1.358 . S
C37 H79 0.930 . S
C38 C39 1.348 . S
C38 C40 1.356 . S
C38 O63 1.325 . S
C39 C38 1.348 . S
C39 C41 1.353 . S
C39 H80 0.929 . S
C40 C38 1.356 . S
C40 C42 1.358 . S
C40 H81 0.930 . S
C41 C39 1.353 . S
C41 N43 1.314 . S
C41 H82 0.930 . S
C42 C40 1.358 . S
C42 N43 1.279 . S
C42 H83 0.930 . S
N43 C41 1.314 . S
N43 C42 1.279 . S
C44 C46 1.353 . S
C44 N47 1.314 . S
C44 H50 0.930 . S
C45 N47 1.279 . S
C45 C48 1.358 . S
C45 H51 0.930 . S
C46 C44 1.353 . S
C46 C49 1.348 . S
C46 H84 0.929 . S
N47 Li2 1.990 . S
N47 C44 1.314 . S
N47 C45 1.279 . S
C48 C45 1.358 . S
C48 C49 1.356 . S
C48 H85 0.930 . S
C49 C46 1.348 . S
C49 C48 1.356 . S
H50 C44 0.930 . S
H51 C45 0.930 . S
C52 N53 1.314 . S
C52 C54 1.353 . S
C52 H58 0.930 . S
N53 Li3 1.990 . S
N53 C52 1.314 . S
N53 C56 1.279 . S
C54 C52 1.353 . S
C54 C57 1.348 . S
C54 H86 0.929 . S
C55 C56 1.358 . S
C55 C57 1.356 . S
C55 H87 0.930 . S
C56 N53 1.279 . S
C56 C55 1.358 . S
C56 H59 0.930 . S
C57 C54 1.348 . S
C57 C55 1.356 . S
H58 C52 0.930 . S
H59 C56 0.930 . S
O60 Li0 1.956 . S
O60 Li1 1.970 . S
O60 Li2 1.961 . S
O60 C4 1.325 . S
O61 Li0 1.970 . S
O61 Li1 1.956 . S
O61 Li3 1.961 . S
O61 C10 1.325 . S
O62 Li0 1.961 . S
O62 Li2 1.956 . S
O62 Li3 1.970 . S
O62 C32 1.325 . S
O63 Li1 1.961 . S
O63 Li2 1.970 . S
O63 Li3 1.956 . S
O63 C38 1.325 . S
H64 C6 0.929 . S
H65 C7 0.930 . S
H66 C8 0.930 . S
H67 C9 0.930 . S
H68 C11 0.930 . S
H69 C13 0.929 . S
H70 C14 0.930 . S
H71 C15 0.930 . S
H72 C18 0.930 . S
H73 C21 0.929 . S
H74 C26 0.929 . S
H75 C27 0.930 . S
H76 C34 0.929 . S
H77 C35 0.930 . S
H78 C36 0.930 . S
H79 C37 0.930 . S
H80 C39 0.929 . S
H81 C40 0.930 . S
H82 C41 0.930 . S
H83 C42 0.930 . S
H84 C46 0.929 . S
H85 C48 0.930 . S
H86 C54 0.929 . S
H87 C55 0.930 . S
Li88 N105 1.990 . S
Li88 O148 1.956 . S
Li88 O149 1.970 . S
Li88 O150 1.961 . S
Li89 N113 1.990 . S
Li89 O148 1.970 . S
Li89 O149 1.956 . S
Li89 O151 1.961 . S
Li90 N135 1.990 . S
Li90 O148 1.961 . S
Li90 O150 1.956 . S
Li90 O151 1.970 . S
Li91 N141 1.990 . S
Li91 O149 1.961 . S
Li91 O150 1.970 . S
Li91 O151 1.956 . S
C92 C94 1.348 . S
C92 C95 1.356 . S
C92 O148 1.325 . S
N93 C96 1.314 . S
N93 C97 1.279 . S
C94 C92 1.348 . S
C94 C96 1.353 . S
C94 H152 0.929 . S
C95 C92 1.356 . S
C95 C97 1.358 . S
C95 H153 0.930 . S
C96 N93 1.314 . S
C96 C94 1.353 . S
C96 H154 0.930 . S
C97 N93 1.279 . S
C97 C95 1.358 . S
C97 H155 0.930 . S
C98 C101 1.348 . S
C98 C102 1.356 . S
C98 O149 1.325 . S
C99 N100 1.279 . S
C99 C102 1.358 . S
C99 H156 0.930 . S
N100 C99 1.279 . S
N100 C103 1.314 . S
C101 C98 1.348 . S
C101 C103 1.353 . S
C101 H157 0.929 . S
C102 C98 1.356 . S
C102 C99 1.358 . S
C102 H158 0.930 . S
C103 N100 1.314 . S
C103 C101 1.353 . S
C103 H159 0.930 . S
C104 N105 1.314 . S
C104 C109 1.353 . S
C104 H110 0.930 . S
N105 Li88 1.990 . S
N105 C104 1.314 . S
N105 C107 1.279 . S
C106 C107 1.358 . S
C106 C108 1.356 . S
C106 H160 0.930 . S
C107 N105 1.279 . S
C107 C106 1.358 . S
C107 H111 0.930 . S
C108 C106 1.356 . S
C108 C109 1.348 . S
C109 C104 1.353 . S
C109 C108 1.348 . S
C109 H161 0.929 . S
H110 C104 0.930 . S
H111 C107 0.930 . S
C112 N113 1.314 . S
C112 C114 1.353 . S
C112 H118 0.930 . S
N113 Li89 1.990 . S
N113 C112 1.314 . S
N113 C116 1.279 . S
C114 C112 1.353 . S
C114 C117 1.348 . S
C114 H162 0.929 . S
C115 C116 1.358 . S
C115 C117 1.356 . S
C115 H163 0.930 . S
C116 N113 1.279 . S
C116 C115 1.358 . S
C116 H119 0.930 . S
C117 C114 1.348 . S
C117 C115 1.356 . S
H118 C112 0.930 . S
H119 C116 0.930 . S
C120 C122 1.348 . S
C120 C123 1.356 . S
C120 O150 1.325 . S
N121 C124 1.314 . S
N121 C125 1.279 . S
C122 C120 1.348 . S
C122 C124 1.353 . S
C122 H164 0.929 . S
C123 C120 1.356 . S
C123 C125 1.358 . S
C123 H165 0.930 . S
C124 N121 1.314 . S
C124 C122 1.353 . S
C124 H166 0.930 . S
C125 N121 1.279 . S
C125 C123 1.358 . S
C125 H167 0.930 . S
C126 C127 1.348 . S
C126 C128 1.356 . S
C126 O151 1.325 . S
C127 C126 1.348 . S
C127 C129 1.353 . S
C127 H168 0.929 . S
C128 C126 1.356 . S
C128 C130 1.358 . S
C128 H169 0.930 . S
C129 C127 1.353 . S
C129 N131 1.314 . S
C129 H170 0.930 . S
C130 C128 1.358 . S
C130 N131 1.279 . S
C130 H171 0.930 . S
N131 C129 1.314 . S
N131 C130 1.279 . S
C132 C134 1.353 . S
C132 N135 1.314 . S
C132 H138 0.930 . S
C133 N135 1.279 . S
C133 C136 1.358 . S
C133 H139 0.930 . S
C134 C132 1.353 . S
C134 C137 1.348 . S
C134 H172 0.929 . S
N135 Li90 1.990 . S
N135 C132 1.314 . S
N135 C133 1.279 . S
C136 C133 1.358 . S
C136 C137 1.356 . S
C136 H173 0.930 . S
C137 C134 1.348 . S
C137 C136 1.356 . S
H138 C132 0.930 . S
H139 C133 0.930 . S
C140 N141 1.314 . S
C140 C142 1.353 . S
C140 H146 0.930 . S
N141 Li91 1.990 . S
N141 C140 1.314 . S
N141 C144 1.279 . S
C142 C140 1.353 . S
C142 C145 1.348 . S
C142 H174 0.929 . S
C143 C144 1.358 . S
C143 C145 1.356 . S
C143 H175 0.930 . S
C144 N141 1.279 . S
C144 C143 1.358 . S
C144 H147 0.930 . S
C145 C142 1.348 . S
C145 C143 1.356 . S
H146 C140 0.930 . S
H147 C144 0.930 . S
O148 Li88 1.956 . S
O148 Li89 1.970 . S
O148 Li90 1.961 . S
O148 C92 1.325 . S
O149 Li88 1.970 . S
O149 Li89 1.956 . S
O149 Li91 1.961 . S
O149 C98 1.325 . S
O150 Li88 1.961 . S
O150 Li90 1.956 . S
O150 Li91 1.970 . S
O150 C120 1.325 . S
O151 Li89 1.961 . S
O151 Li90 1.970 . S
O151 Li91 1.956 . S
O151 C126 1.325 . S
H152 C94 0.929 . S
H153 C95 0.930 . S
H154 C96 0.930 . S
H155 C97 0.930 . S
H156 C99 0.930 . S
H157 C101 0.929 . S
H158 C102 0.930 . S
H159 C103 0.930 . S
H160 C106 0.930 . S
H161 C109 0.929 . S
H162 C114 0.929 . S
H163 C115 0.930 . S
H164 C122 0.929 . S
H165 C123 0.930 . S
H166 C124 0.930 . S
H167 C125 0.930 . S
H168 C127 0.929 . S
H169 C128 0.930 . S
H170 C129 0.930 . S
H171 C130 0.930 . S
H172 C134 0.929 . S
H173 C136 0.930 . S
H174 C142 0.929 . S
H175 C143 0.930 . S
Li176 N193 1.990 . S
Li176 O236 1.956 . S
Li176 O237 1.970 . S
Li176 O238 1.961 . S
Li177 N201 1.990 . S
Li177 O236 1.970 . S
Li177 O237 1.956 . S
Li177 O239 1.961 . S
Li178 N223 1.990 . S
Li178 O236 1.961 . S
Li178 O238 1.956 . S
Li178 O239 1.970 . S
Li179 N229 1.990 . S
Li179 O237 1.961 . S
Li179 O238 1.970 . S
Li179 O239 1.956 . S
C180 C182 1.348 . S
C180 C183 1.356 . S
C180 O236 1.325 . S
N181 C184 1.314 . S
N181 C185 1.279 . S
C182 C180 1.348 . S
C182 C184 1.353 . S
C182 H240 0.929 . S
C183 C180 1.356 . S
C183 C185 1.358 . S
C183 H241 0.930 . S
C184 N181 1.314 . S
C184 C182 1.353 . S
C184 H242 0.930 . S
C185 N181 1.279 . S
C185 C183 1.358 . S
C185 H243 0.930 . S
C186 C189 1.348 . S
C186 C190 1.356 . S
C186 O237 1.325 . S
C187 N188 1.279 . S
C187 C190 1.358 . S
C187 H244 0.930 . S
N188 C187 1.279 . S
N188 C191 1.314 . S
C189 C186 1.348 . S
C189 C191 1.353 . S
C189 H245 0.929 . S
C190 C186 1.356 . S
C190 C187 1.358 . S
C190 H246 0.930 . S
C191 N188 1.314 . S
C191 C189 1.353 . S
C191 H247 0.930 . S
C192 N193 1.314 . S
C192 C197 1.353 . S
C192 H198 0.930 . S
N193 Li176 1.990 . S
N193 C192 1.314 . S
N193 C195 1.279 . S
C194 C195 1.358 . S
C194 C196 1.356 . S
C194 H248 0.930 . S
C195 N193 1.279 . S
C195 C194 1.358 . S
C195 H199 0.930 . S
C196 C194 1.356 . S
C196 C197 1.348 . S
C197 C192 1.353 . S
C197 C196 1.348 . S
C197 H249 0.929 . S
H198 C192 0.930 . S
H199 C195 0.930 . S
C200 N201 1.314 . S
C200 C202 1.353 . S
C200 H206 0.930 . S
N201 Li177 1.990 . S
N201 C200 1.314 . S
N201 C204 1.279 . S
C202 C200 1.353 . S
C202 C205 1.348 . S
C202 H250 0.929 . S
C203 C204 1.358 . S
C203 C205 1.356 . S
C203 H251 0.930 . S
C204 N201 1.279 . S
C204 C203 1.358 . S
C204 H207 0.930 . S
C205 C202 1.348 . S
C205 C203 1.356 . S
H206 C200 0.930 . S
H207 C204 0.930 . S
C208 C210 1.348 . S
C208 C211 1.356 . S
C208 O238 1.325 . S
N209 C212 1.314 . S
N209 C213 1.279 . S
C210 C208 1.348 . S
C210 C212 1.353 . S
C210 H252 0.929 . S
C211 C208 1.356 . S
C211 C213 1.358 . S
C211 H253 0.930 . S
C212 N209 1.314 . S
C212 C210 1.353 . S
C212 H254 0.930 . S
C213 N209 1.279 . S
C213 C211 1.358 . S
C213 H255 0.930 . S
C214 C215 1.348 . S
C214 C216 1.356 . S
C214 O239 1.325 . S
C215 C214 1.348 . S
C215 C217 1.353 . S
C215 H256 0.929 . S
C216 C214 1.356 . S
C216 C218 1.358 . S
C216 H257 0.930 . S
C217 C215 1.353 . S
C217 N219 1.314 . S
C217 H258 0.930 . S
C218 C216 1.358 . S
C218 N219 1.279 . S
C218 H259 0.930 . S
N219 C217 1.314 . S
N219 C218 1.279 . S
C220 C222 1.353 . S
C220 N223 1.314 . S
C220 H226 0.930 . S
C221 N223 1.279 . S
C221 C224 1.358 . S
C221 H227 0.930 . S
C222 C220 1.353 . S
C222 C225 1.348 . S
C222 H260 0.929 . S
N223 Li178 1.990 . S
N223 C220 1.314 . S
N223 C221 1.279 . S
C224 C221 1.358 . S
C224 C225 1.356 . S
C224 H261 0.930 . S
C225 C222 1.348 . S
C225 C224 1.356 . S
H226 C220 0.930 . S
H227 C221 0.930 . S
C228 N229 1.314 . S
C228 C230 1.353 . S
C228 H234 0.930 . S
N229 Li179 1.990 . S
N229 C228 1.314 . S
N229 C232 1.279 . S
C230 C228 1.353 . S
C230 C233 1.348 . S
C230 H262 0.929 . S
C231 C232 1.358 . S
C231 C233 1.356 . S
C231 H263 0.930 . S
C232 N229 1.279 . S
C232 C231 1.358 . S
C232 H235 0.930 . S
C233 C230 1.348 . S
C233 C231 1.356 . S
H234 C228 0.930 . S
H235 C232 0.930 . S
O236 Li176 1.956 . S
O236 Li177 1.970 . S
O236 Li178 1.961 . S
O236 C180 1.325 . S
O237 Li176 1.970 . S
O237 Li177 1.956 . S
O237 Li179 1.961 . S
O237 C186 1.325 . S
O238 Li176 1.961 . S
O238 Li178 1.956 . S
O238 Li179 1.970 . S
O238 C208 1.325 . S
O239 Li177 1.961 . S
O239 Li178 1.970 . S
O239 Li179 1.956 . S
O239 C214 1.325 . S
H240 C182 0.929 . S
H241 C183 0.930 . S
H242 C184 0.930 . S
H243 C185 0.930 . S
H244 C187 0.930 . S
H245 C189 0.929 . S
H246 C190 0.930 . S
H247 C191 0.930 . S
H248 C194 0.930 . S
H249 C197 0.929 . S
H250 C202 0.929 . S
H251 C203 0.930 . S
H252 C210 0.929 . S
H253 C211 0.930 . S
H254 C212 0.930 . S
H255 C213 0.930 . S
H256 C215 0.929 . S
H257 C216 0.930 . S
H258 C217 0.930 . S
H259 C218 0.930 . S
H260 C222 0.929 . S
H261 C224 0.930 . S
H262 C230 0.929 . S
H263 C231 0.930 . S
Li264 N281 1.990 1_556 S
Li264 O324 1.956 . S
Li264 O325 1.970 . S
Li264 O326 1.961 . S
Li265 N289 1.990 . S
Li265 O324 1.970 . S
Li265 O325 1.956 . S
Li265 O327 1.961 . S
Li266 N311 1.990 . S
Li266 O324 1.961 . S
Li266 O326 1.956 . S
Li266 O327 1.970 . S
Li267 N317 1.990 . S
Li267 O325 1.961 . S
Li267 O326 1.970 . S
Li267 O327 1.956 . S
C268 C270 1.348 . S
C268 C271 1.356 . S
C268 O324 1.325 1_554 S
N269 C272 1.314 . S
N269 C273 1.279 . S
C270 C268 1.348 . S
C270 C272 1.353 . S
C270 H328 0.929 . S
C271 C268 1.356 . S
C271 C273 1.358 . S
C271 H329 0.930 . S
C272 N269 1.314 . S
C272 C270 1.353 . S
C272 H330 0.930 . S
C273 N269 1.279 . S
C273 C271 1.358 . S
C273 H331 0.930 . S
C274 C277 1.348 . S
C274 C278 1.356 . S
C274 O325 1.325 . S
C275 N276 1.279 . S
C275 C278 1.358 . S
C275 H332 0.930 . S
N276 C275 1.279 . S
N276 C279 1.314 . S
C277 C274 1.348 . S
C277 C279 1.353 . S
C277 H333 0.929 . S
C278 C274 1.356 . S
C278 C275 1.358 . S
C278 H334 0.930 . S
C279 N276 1.314 . S
C279 C277 1.353 . S
C279 H335 0.930 . S
C280 N281 1.314 . S
C280 C285 1.353 . S
C280 H286 0.930 1_554 S
N281 Li264 1.990 1_554 S
N281 C280 1.314 . S
N281 C283 1.279 . S
C282 C283 1.358 . S
C282 C284 1.356 . S
C282 H336 0.930 . S
C283 N281 1.279 . S
C283 C282 1.358 . S
C283 H287 0.930 . S
C284 C282 1.356 . S
C284 C285 1.348 . S
C285 C280 1.353 . S
C285 C284 1.348 . S
C285 H337 0.929 . S
H286 C280 0.930 1_556 S
H287 C283 0.930 . S
C288 N289 1.314 . S
C288 C290 1.353 . S
C288 H294 0.930 . S
N289 Li265 1.990 . S
N289 C288 1.314 . S
N289 C292 1.279 . S
C290 C288 1.353 . S
C290 C293 1.348 . S
C290 H338 0.929 . S
C291 C292 1.358 . S
C291 C293 1.356 . S
C291 H339 0.930 . S
C292 N289 1.279 . S
C292 C291 1.358 . S
C292 H295 0.930 . S
C293 C290 1.348 . S
C293 C291 1.356 . S
H294 C288 0.930 . S
H295 C292 0.930 . S
C296 C298 1.348 . S
C296 C299 1.356 . S
C296 O326 1.325 . S
N297 C300 1.314 . S
N297 C301 1.279 . S
C298 C296 1.348 . S
C298 C300 1.353 . S
C298 H340 0.929 . S
C299 C296 1.356 . S
C299 C301 1.358 . S
C299 H341 0.930 . S
C300 N297 1.314 . S
C300 C298 1.353 . S
C300 H342 0.930 . S
C301 N297 1.279 . S
C301 C299 1.358 . S
C301 H343 0.930 . S
C302 C303 1.348 . S
C302 C304 1.356 . S
C302 O327 1.325 . S
C303 C302 1.348 . S
C303 C305 1.353 . S
C303 H344 0.929 . S
C304 C302 1.356 . S
C304 C306 1.358 . S
C304 H345 0.930 . S
C305 C303 1.353 . S
C305 N307 1.314 . S
C305 H346 0.930 . S
C306 C304 1.358 . S
C306 N307 1.279 . S
C306 H347 0.930 . S
N307 C305 1.314 . S
N307 C306 1.279 . S
C308 C310 1.353 . S
C308 N311 1.314 . S
C308 H314 0.930 . S
C309 N311 1.279 . S
C309 C312 1.358 . S
C309 H315 0.930 . S
C310 C308 1.353 . S
C310 C313 1.348 . S
C310 H348 0.929 . S
N311 Li266 1.990 . S
N311 C308 1.314 . S
N311 C309 1.279 . S
C312 C309 1.358 . S
C312 C313 1.356 . S
C312 H349 0.930 . S
C313 C310 1.348 . S
C313 C312 1.356 . S
H314 C308 0.930 . S
H315 C309 0.930 . S
C316 N317 1.314 . S
C316 C318 1.353 . S
C316 H322 0.930 . S
N317 Li267 1.990 . S
N317 C316 1.314 . S
N317 C320 1.279 . S
C318 C316 1.353 . S
C318 C321 1.348 . S
C318 H350 0.929 . S
C319 C320 1.358 . S
C319 C321 1.356 . S
C319 H351 0.930 . S
C320 N317 1.279 . S
C320 C319 1.358 . S
C320 H323 0.930 . S
C321 C318 1.348 . S
C321 C319 1.356 . S
H322 C316 0.930 . S
H323 C320 0.930 . S
O324 Li264 1.956 . S
O324 Li265 1.970 . S
O324 Li266 1.961 . S
O324 C268 1.325 1_556 S
O325 Li264 1.970 . S
O325 Li265 1.956 . S
O325 Li267 1.961 . S
O325 C274 1.325 . S
O326 Li264 1.961 . S
O326 Li266 1.956 . S
O326 Li267 1.970 . S
O326 C296 1.325 . S
O327 Li265 1.961 . S
O327 Li266 1.970 . S
O327 Li267 1.956 . S
O327 C302 1.325 . S
H328 C270 0.929 . S
H329 C271 0.930 . S
H330 C272 0.930 . S
H331 C273 0.930 . S
H332 C275 0.930 . S
H333 C277 0.929 . S
H334 C278 0.930 . S
H335 C279 0.930 . S
H336 C282 0.930 . S
H337 C285 0.929 . S
H338 C290 0.929 . S
H339 C291 0.930 . S
H340 C298 0.929 . S
H341 C299 0.930 . S
H342 C300 0.930 . S
H343 C301 0.930 . S
H344 C303 0.929 . S
H345 C304 0.930 . S
H346 C305 0.930 . S
H347 C306 0.930 . S
H348 C310 0.929 . S
H349 C312 0.930 . S
H350 C318 0.929 . S
H351 C319 0.930 . S
Li352 N369 1.990 . S
Li352 O412 1.956 . S
Li352 O413 1.970 . S
Li352 O414 1.961 . S
Li353 N377 1.990 . S
Li353 O412 1.970 . S
Li353 O413 1.956 . S
Li353 O415 1.961 . S
Li354 N399 1.990 . S
Li354 O412 1.961 . S
Li354 O414 1.956 . S
Li354 O415 1.970 . S
Li355 N405 1.990 . S
Li355 O413 1.961 . S
Li355 O414 1.970 . S
Li355 O415 1.956 . S
C356 C358 1.348 . S
C356 C359 1.356 . S
C356 O412 1.325 . S
N357 C360 1.314 . S
N357 C361 1.279 . S
C358 C356 1.348 . S
C358 C360 1.353 . S
C358 H416 0.929 . S
C359 C356 1.356 . S
C359 C361 1.358 . S
C359 H417 0.930 . S
C360 N357 1.314 . S
C360 C358 1.353 . S
C360 H418 0.930 . S
C361 N357 1.279 . S
C361 C359 1.358 . S
C361 H419 0.930 . S
C362 C365 1.348 . S
C362 C366 1.356 . S
C362 O413 1.325 . S
C363 N364 1.279 . S
C363 C366 1.358 . S
C363 H420 0.930 . S
N364 C363 1.279 . S
N364 C367 1.314 . S
C365 C362 1.348 . S
C365 C367 1.353 . S
C365 H421 0.929 . S
C366 C362 1.356 . S
C366 C363 1.358 . S
C366 H422 0.930 . S
C367 N364 1.314 . S
C367 C365 1.353 . S
C367 H423 0.930 . S
C368 N369 1.314 . S
C368 C373 1.353 . S
C368 H374 0.930 . S
N369 Li352 1.990 . S
N369 C368 1.314 . S
N369 C371 1.279 . S
C370 C371 1.358 . S
C370 C372 1.356 . S
C370 H424 0.930 . S
C371 N369 1.279 . S
C371 C370 1.358 . S
C371 H375 0.930 . S
C372 C370 1.356 . S
C372 C373 1.348 . S
C373 C368 1.353 . S
C373 C372 1.348 . S
C373 H425 0.929 . S
H374 C368 0.930 . S
H375 C371 0.930 . S
C376 N377 1.314 . S
C376 C378 1.353 . S
C376 H382 0.930 . S
N377 Li353 1.990 . S
N377 C376 1.314 . S
N377 C380 1.279 . S
C378 C376 1.353 . S
C378 C381 1.348 . S
C378 H426 0.929 . S
C379 C380 1.358 . S
C379 C381 1.356 . S
C379 H427 0.930 . S
C380 N377 1.279 . S
C380 C379 1.358 . S
C380 H383 0.930 . S
C381 C378 1.348 . S
C381 C379 1.356 . S
H382 C376 0.930 . S
H383 C380 0.930 . S
C384 C386 1.348 . S
C384 C387 1.356 . S
C384 O414 1.325 . S
N385 C388 1.314 . S
N385 C389 1.279 . S
C386 C384 1.348 . S
C386 C388 1.353 . S
C386 H428 0.929 . S
C387 C384 1.356 . S
C387 C389 1.358 . S
C387 H429 0.930 . S
C388 N385 1.314 . S
C388 C386 1.353 . S
C388 H430 0.930 . S
C389 N385 1.279 . S
C389 C387 1.358 . S
C389 H431 0.930 . S
C390 C391 1.348 . S
C390 C392 1.356 . S
C390 O415 1.325 . S
C391 C390 1.348 . S
C391 C393 1.353 1_554 S
C391 H432 0.929 . S
C392 C390 1.356 . S
C392 C394 1.358 1_554 S
C392 H433 0.930 . S
C393 C391 1.353 1_556 S
C393 N395 1.314 . S
C393 H434 0.930 . S
C394 C392 1.358 1_556 S
C394 N395 1.279 . S
C394 H435 0.930 . S
N395 C393 1.314 . S
N395 C394 1.279 . S
C396 C398 1.353 . S
C396 N399 1.314 . S
C396 H402 0.930 . S
C397 N399 1.279 . S
C397 C400 1.358 . S
C397 H403 0.930 . S
C398 C396 1.353 . S
C398 C401 1.348 . S
C398 H436 0.929 . S
N399 Li354 1.990 . S
N399 C396 1.314 . S
N399 C397 1.279 . S
C400 C397 1.358 . S
C400 C401 1.356 . S
C400 H437 0.930 . S
C401 C398 1.348 . S
C401 C400 1.356 . S
H402 C396 0.930 . S
H403 C397 0.930 . S
C404 N405 1.315 . S
C404 C406 1.337 1_554 S
C404 H410 0.947 . S
N405 Li355 1.990 . S
N405 C404 1.315 . S
N405 C408 1.279 1_554 S
C406 C404 1.337 1_556 S
C406 C409 1.348 . S
C406 H438 0.929 . S
C407 C408 1.358 . S
C407 C409 1.356 . S
C407 H439 0.930 . S
C408 N405 1.279 1_556 S
C408 C407 1.358 . S
C408 H411 0.930 . S
C409 C406 1.348 . S
C409 C407 1.356 . S
H410 C404 0.947 . S
H411 C408 0.930 . S
O412 Li352 1.956 . S
O412 Li353 1.970 . S
O412 Li354 1.961 . S
O412 C356 1.325 . S
O413 Li352 1.970 . S
O413 Li353 1.956 . S
O413 Li355 1.961 . S
O413 C362 1.325 . S
O414 Li352 1.961 . S
O414 Li354 1.956 . S
O414 Li355 1.970 . S
O414 C384 1.325 . S
O415 Li353 1.961 . S
O415 Li354 1.970 . S
O415 Li355 1.956 . S
O415 C390 1.325 . S
H416 C358 0.929 . S
H417 C359 0.930 . S
H418 C360 0.930 . S
H419 C361 0.930 . S
H420 C363 0.930 . S
H421 C365 0.929 . S
H422 C366 0.930 . S
H423 C367 0.930 . S
H424 C370 0.930 . S
H425 C373 0.929 . S
H426 C378 0.929 . S
H427 C379 0.930 . S
H428 C386 0.929 . S
H429 C387 0.930 . S
H430 C388 0.930 . S
H431 C389 0.930 . S
H432 C391 0.929 . S
H433 C392 0.930 . S
H434 C393 0.930 . S
H435 C394 0.930 . S
H436 C398 0.929 . S
H437 C400 0.930 . S
H438 C406 0.929 . S
H439 C407 0.930 . S
Li440 N457 1.990 . S
Li440 O500 1.956 . S
Li440 O501 1.970 . S
Li440 O502 1.961 . S
Li441 N465 1.990 . S
Li441 O500 1.970 . S
Li441 O501 1.956 . S
Li441 O503 1.961 . S
Li442 N487 1.990 . S
Li442 O500 1.961 . S
Li442 O502 1.956 . S
Li442 O503 1.970 . S
Li443 N493 1.990 . S
Li443 O501 1.961 . S
Li443 O502 1.970 . S
Li443 O503 1.956 . S
C444 C446 1.348 . S
C444 C447 1.356 . S
C444 O500 1.325 . S
N445 C448 1.314 . S
N445 C449 1.279 . S
C446 C444 1.348 . S
C446 C448 1.353 . S
C446 H504 0.929 . S
C447 C444 1.356 . S
C447 C449 1.358 . S
C447 H505 0.930 . S
C448 N445 1.314 . S
C448 C446 1.353 . S
C448 H506 0.930 . S
C449 N445 1.279 . S
C449 C447 1.358 . S
C449 H507 0.930 . S
C450 C453 1.348 . S
C450 C454 1.356 . S
C450 O501 1.325 . S
C451 N452 1.279 . S
C451 C454 1.358 . S
C451 H508 0.930 . S
N452 C451 1.279 . S
N452 C455 1.314 . S
C453 C450 1.348 . S
C453 C455 1.353 . S
C453 H509 0.929 . S
C454 C450 1.356 . S
C454 C451 1.358 . S
C454 H510 0.930 . S
C455 N452 1.314 . S
C455 C453 1.353 . S
C455 H511 0.930 . S
C456 N457 1.314 . S
C456 C461 1.353 . S
C456 H462 0.930 . S
N457 Li440 1.990 . S
N457 C456 1.314 . S
N457 C459 1.279 . S
C458 C459 1.358 . S
C458 C460 1.356 . S
C458 H512 0.930 . S
C459 N457 1.279 . S
C459 C458 1.358 . S
C459 H463 0.930 . S
C460 C458 1.356 . S
C460 C461 1.348 . S
C461 C456 1.353 . S
C461 C460 1.348 . S
C461 H513 0.929 . S
H462 C456 0.930 . S
H463 C459 0.930 . S
C464 N465 1.314 . S
C464 C466 1.353 . S
C464 H470 0.930 . S
N465 Li441 1.990 . S
N465 C464 1.314 . S
N465 C468 1.279 . S
C466 C464 1.353 . S
C466 C469 1.348 . S
C466 H514 0.929 . S
C467 C468 1.358 . S
C467 C469 1.356 . S
C467 H515 0.930 . S
C468 N465 1.279 . S
C468 C467 1.358 . S
C468 H471 0.930 . S
C469 C466 1.348 . S
C469 C467 1.356 . S
H470 C464 0.930 . S
H471 C468 0.930 . S
C472 C474 1.348 . S
C472 C475 1.356 . S
C472 O502 1.325 . S
N473 C476 1.314 . S
N473 C477 1.279 . S
C474 C472 1.348 . S
C474 C476 1.353 . S
C474 H516 0.929 . S
C475 C472 1.356 . S
C475 C477 1.358 . S
C475 H517 0.930 . S
C476 N473 1.314 . S
C476 C474 1.353 . S
C476 H518 0.930 . S
C477 N473 1.279 . S
C477 C475 1.358 . S
C477 H519 0.930 . S
C478 C479 1.348 . S
C478 C480 1.356 . S
C478 O503 1.325 . S
C479 C478 1.348 . S
C479 C481 1.353 . S
C479 H520 0.929 . S
C480 C478 1.356 . S
C480 C482 1.358 . S
C480 H521 0.930 . S
C481 C479 1.353 . S
C481 N483 1.314 . S
C481 H522 0.930 . S
C482 C480 1.358 . S
C482 N483 1.279 . S
C482 H523 0.930 . S
N483 C481 1.314 . S
N483 C482 1.279 . S
C484 C486 1.353 . S
C484 N487 1.314 . S
C484 H490 0.930 . S
C485 N487 1.279 . S
C485 C488 1.358 . S
C485 H491 0.930 . S
C486 C484 1.353 . S
C486 C489 1.348 . S
C486 H524 0.929 . S
N487 Li442 1.990 . S
N487 C484 1.314 . S
N487 C485 1.279 . S
C488 C485 1.358 . S
C488 C489 1.356 . S
C488 H525 0.930 . S
C489 C486 1.348 . S
C489 C488 1.356 . S
H490 C484 0.930 . S
H491 C485 0.930 . S
C492 N493 1.314 . S
C492 C494 1.353 . S
C492 H498 0.930 . S
N493 Li443 1.990 . S
N493 C492 1.314 . S
N493 C496 1.279 . S
C494 C492 1.353 . S
C494 C497 1.348 . S
C494 H526 0.929 . S
C495 C496 1.358 . S
C495 C497 1.356 . S
C495 H527 0.930 . S
C496 N493 1.279 . S
C496 C495 1.358 . S
C496 H499 0.930 . S
C497 C494 1.348 . S
C497 C495 1.356 . S
H498 C492 0.930 . S
H499 C496 0.930 . S
O500 Li440 1.956 . S
O500 Li441 1.970 . S
O500 Li442 1.961 . S
O500 C444 1.325 . S
O501 Li440 1.970 . S
O501 Li441 1.956 . S
O501 Li443 1.961 . S
O501 C450 1.325 . S
O502 Li440 1.961 . S
O502 Li442 1.956 . S
O502 Li443 1.970 . S
O502 C472 1.325 . S
O503 Li441 1.961 . S
O503 Li442 1.970 . S
O503 Li443 1.956 . S
O503 C478 1.325 . S
H504 C446 0.929 . S
H505 C447 0.930 . S
H506 C448 0.930 . S
H507 C449 0.930 . S
H508 C451 0.930 . S
H509 C453 0.929 . S
H510 C454 0.930 . S
H511 C455 0.930 . S
H512 C458 0.930 . S
H513 C461 0.929 . S
H514 C466 0.929 . S
H515 C467 0.930 . S
H516 C474 0.929 . S
H517 C475 0.930 . S
H518 C476 0.930 . S
H519 C477 0.930 . S
H520 C479 0.929 . S
H521 C480 0.930 . S
H522 C481 0.930 . S
H523 C482 0.930 . S
H524 C486 0.929 . S
H525 C488 0.930 . S
H526 C494 0.929 . S
H527 C495 0.930 . S
Li528 N545 1.990 . S
Li528 O588 1.956 . S
Li528 O589 1.970 . S
Li528 O590 1.961 . S
Li529 N553 1.990 . S
Li529 O588 1.970 . S
Li529 O589 1.956 . S
Li529 O591 1.961 . S
Li530 N575 1.990 . S
Li530 O588 1.961 . S
Li530 O590 1.956 . S
Li530 O591 1.970 . S
Li531 N581 1.990 . S
Li531 O589 1.961 . S
Li531 O590 1.970 . S
Li531 O591 1.956 . S
C532 C534 1.348 . S
C532 C535 1.356 . S
C532 O588 1.325 . S
N533 C536 1.314 . S
N533 C537 1.279 . S
C534 C532 1.348 . S
C534 C536 1.353 . S
C534 H592 0.929 . S
C535 C532 1.356 . S
C535 C537 1.358 . S
C535 H593 0.930 . S
C536 N533 1.314 . S
C536 C534 1.353 . S
C536 H594 0.930 . S
C537 N533 1.279 . S
C537 C535 1.358 . S
C537 H595 0.930 . S
C538 C541 1.348 . S
C538 C542 1.356 . S
C538 O589 1.325 . S
C539 N540 1.279 . S
C539 C542 1.358 . S
C539 H596 0.930 . S
N540 C539 1.279 . S
N540 C543 1.314 . S
C541 C538 1.348 . S
C541 C543 1.353 . S
C541 H597 0.929 . S
C542 C538 1.356 . S
C542 C539 1.358 . S
C542 H598 0.930 . S
C543 N540 1.314 . S
C543 C541 1.353 . S
C543 H599 0.930 . S
C544 N545 1.314 . S
C544 C549 1.353 . S
C544 H550 0.930 . S
N545 Li528 1.990 . S
N545 C544 1.314 . S
N545 C547 1.279 . S
C546 C547 1.358 . S
C546 C548 1.356 . S
C546 H600 0.930 . S
C547 N545 1.279 . S
C547 C546 1.358 . S
C547 H551 0.930 . S
C548 C546 1.356 . S
C548 C549 1.348 . S
C549 C544 1.353 . S
C549 C548 1.348 . S
C549 H601 0.929 . S
H550 C544 0.930 . S
H551 C547 0.930 . S
C552 N553 1.314 . S
C552 C554 1.353 . S
C552 H558 0.930 . S
N553 Li529 1.990 . S
N553 C552 1.314 . S
N553 C556 1.279 . S
C554 C552 1.353 . S
C554 C557 1.348 . S
C554 H602 0.929 . S
C555 C556 1.358 . S
C555 C557 1.356 . S
C555 H603 0.930 . S
C556 N553 1.279 . S
C556 C555 1.358 . S
C556 H559 0.930 . S
C557 C554 1.348 . S
C557 C555 1.356 . S
H558 C552 0.930 . S
H559 C556 0.930 . S
C560 C562 1.348 . S
C560 C563 1.356 . S
C560 O590 1.325 . S
N561 C564 1.314 . S
N561 C565 1.279 . S
C562 C560 1.348 . S
C562 C564 1.353 . S
C562 H604 0.929 . S
C563 C560 1.356 . S
C563 C565 1.358 . S
C563 H605 0.930 . S
C564 N561 1.314 . S
C564 C562 1.353 . S
C564 H606 0.930 . S
C565 N561 1.279 . S
C565 C563 1.358 . S
C565 H607 0.930 . S
C566 C567 1.348 . S
C566 C568 1.356 . S
C566 O591 1.325 . S
C567 C566 1.348 . S
C567 C569 1.353 . S
C567 H608 0.929 . S
C568 C566 1.356 . S
C568 C570 1.358 . S
C568 H609 0.930 . S
C569 C567 1.353 . S
C569 N571 1.314 . S
C569 H610 0.930 . S
C570 C568 1.358 . S
C570 N571 1.279 . S
C570 H611 0.930 . S
N571 C569 1.314 . S
N571 C570 1.279 . S
C572 C574 1.353 . S
C572 N575 1.314 . S
C572 H578 0.930 . S
C573 N575 1.279 . S
C573 C576 1.358 . S
C573 H579 0.930 . S
C574 C572 1.353 . S
C574 C577 1.348 . S
C574 H612 0.929 . S
N575 Li530 1.990 . S
N575 C572 1.314 . S
N575 C573 1.279 . S
C576 C573 1.358 . S
C576 C577 1.356 . S
C576 H613 0.930 . S
C577 C574 1.348 . S
C577 C576 1.356 . S
H578 C572 0.930 . S
H579 C573 0.930 . S
C580 N581 1.314 . S
C580 C582 1.353 . S
C580 H586 0.930 . S
N581 Li531 1.990 . S
N581 C580 1.314 . S
N581 C584 1.279 . S
C582 C580 1.353 . S
C582 C585 1.348 . S
C582 H614 0.929 . S
C583 C584 1.358 . S
C583 C585 1.356 . S
C583 H615 0.930 . S
C584 N581 1.279 . S
C584 C583 1.358 . S
C584 H587 0.930 . S
C585 C582 1.348 . S
C585 C583 1.356 . S
H586 C580 0.930 . S
H587 C584 0.930 . S
O588 Li528 1.956 . S
O588 Li529 1.970 . S
O588 Li530 1.961 . S
O588 C532 1.325 . S
O589 Li528 1.970 . S
O589 Li529 1.956 . S
O589 Li531 1.961 . S
O589 C538 1.325 . S
O590 Li528 1.961 . S
O590 Li530 1.956 . S
O590 Li531 1.970 . S
O590 C560 1.325 . S
O591 Li529 1.961 . S
O591 Li530 1.970 . S
O591 Li531 1.956 . S
O591 C566 1.325 . S
H592 C534 0.929 . S
H593 C535 0.930 . S
H594 C536 0.930 . S
H595 C537 0.930 . S
H596 C539 0.930 . S
H597 C541 0.929 . S
H598 C542 0.930 . S
H599 C543 0.930 . S
H600 C546 0.930 . S
H601 C549 0.929 . S
H602 C554 0.929 . S
H603 C555 0.930 . S
H604 C562 0.929 . S
H605 C563 0.930 . S
H606 C564 0.930 . S
H607 C565 0.930 . S
H608 C567 0.929 . S
H609 C568 0.930 . S
H610 C569 0.930 . S
H611 C570 0.930 . S
H612 C574 0.929 . S
H613 C576 0.930 . S
H614 C582 0.929 . S
H615 C583 0.930 . S
Li616 N633 1.990 . S
Li616 O676 1.956 . S
Li616 O677 1.970 . S
Li616 O678 1.961 . S
Li617 N641 1.990 . S
Li617 O676 1.970 . S
Li617 O677 1.956 . S
Li617 O679 1.961 . S
Li618 N663 1.990 . S
Li618 O676 1.961 . S
Li618 O678 1.956 . S
Li618 O679 1.970 . S
Li619 N669 1.990 . S
Li619 O677 1.961 . S
Li619 O678 1.970 . S
Li619 O679 1.956 . S
C620 C622 1.348 . S
C620 C623 1.356 . S
C620 O676 1.325 . S
N621 C624 1.314 . S
N621 C625 1.279 . S
C622 C620 1.348 . S
C622 C624 1.353 . S
C622 H680 0.929 . S
C623 C620 1.356 . S
C623 C625 1.358 . S
C623 H681 0.930 . S
C624 N621 1.314 . S
C624 C622 1.353 . S
C624 H682 0.930 . S
C625 N621 1.279 . S
C625 C623 1.358 . S
C625 H683 0.930 . S
C626 C629 1.348 . S
C626 C630 1.356 . S
C626 O677 1.325 . S
C627 N628 1.279 . S
C627 C630 1.358 . S
C627 H684 0.930 . S
N628 C627 1.279 . S
N628 C631 1.314 . S
C629 C626 1.348 . S
C629 C631 1.353 . S
C629 H685 0.929 . S
C630 C626 1.356 . S
C630 C627 1.358 . S
C630 H686 0.930 . S
C631 N628 1.314 . S
C631 C629 1.353 . S
C631 H687 0.930 . S
C632 N633 1.314 . S
C632 C637 1.353 . S
C632 H638 0.930 . S
N633 Li616 1.990 . S
N633 C632 1.314 . S
N633 C635 1.279 . S
C634 C635 1.358 . S
C634 C636 1.356 . S
C634 H688 0.930 . S
C635 N633 1.279 . S
C635 C634 1.358 . S
C635 H639 0.930 . S
C636 C634 1.356 . S
C636 C637 1.348 . S
C637 C632 1.353 . S
C637 C636 1.348 . S
C637 H689 0.929 . S
H638 C632 0.930 . S
H639 C635 0.930 . S
C640 N641 1.314 . S
C640 C642 1.353 . S
C640 H646 0.930 . S
N641 Li617 1.990 . S
N641 C640 1.314 . S
N641 C644 1.279 . S
C642 C640 1.353 . S
C642 C645 1.348 . S
C642 H690 0.929 . S
C643 C644 1.358 . S
C643 C645 1.356 . S
C643 H691 0.930 . S
C644 N641 1.279 . S
C644 C643 1.358 . S
C644 H647 0.930 . S
C645 C642 1.348 . S
C645 C643 1.356 . S
H646 C640 0.930 . S
H647 C644 0.930 . S
C648 C650 1.348 . S
C648 C651 1.356 . S
C648 O678 1.325 . S
N649 C652 1.314 . S
N649 C653 1.279 . S
C650 C648 1.348 . S
C650 C652 1.353 . S
C650 H692 0.929 . S
C651 C648 1.356 . S
C651 C653 1.358 . S
C651 H693 0.930 . S
C652 N649 1.314 . S
C652 C650 1.353 . S
C652 H694 0.930 . S
C653 N649 1.279 . S
C653 C651 1.358 . S
C653 H695 0.930 . S
C654 C655 1.348 . S
C654 C656 1.356 . S
C654 O679 1.325 . S
C655 C654 1.348 . S
C655 C657 1.353 . S
C655 H696 0.929 . S
C656 C654 1.356 . S
C656 C658 1.358 . S
C656 H697 0.930 . S
C657 C655 1.353 . S
C657 N659 1.314 . S
C657 H698 0.930 . S
C658 C656 1.358 . S
C658 N659 1.279 . S
C658 H699 0.930 . S
N659 C657 1.314 . S
N659 C658 1.279 . S
C660 C662 1.353 . S
C660 N663 1.314 . S
C660 H666 0.930 . S
C661 N663 1.279 . S
C661 C664 1.358 . S
C661 H667 0.930 . S
C662 C660 1.353 . S
C662 C665 1.348 . S
C662 H700 0.929 . S
N663 Li618 1.990 . S
N663 C660 1.314 . S
N663 C661 1.279 . S
C664 C661 1.358 . S
C664 C665 1.356 . S
C664 H701 0.930 . S
C665 C662 1.348 . S
C665 C664 1.356 . S
H666 C660 0.930 . S
H667 C661 0.930 . S
C668 N669 1.314 . S
C668 C670 1.353 . S
C668 H674 0.930 . S
N669 Li619 1.990 . S
N669 C668 1.314 . S
N669 C672 1.279 . S
C670 C668 1.353 . S
C670 C673 1.348 . S
C670 H702 0.929 . S
C671 C672 1.358 . S
C671 C673 1.356 . S
C671 H703 0.930 . S
C672 N669 1.279 . S
C672 C671 1.358 . S
C672 H675 0.930 . S
C673 C670 1.348 . S
C673 C671 1.356 . S
H674 C668 0.930 . S
H675 C672 0.930 . S
O676 Li616 1.956 . S
O676 Li617 1.970 . S
O676 Li618 1.961 . S
O676 C620 1.325 . S
O677 Li616 1.970 . S
O677 Li617 1.956 . S
O677 Li619 1.961 . S
O677 C626 1.325 . S
O678 Li616 1.961 . S
O678 Li618 1.956 . S
O678 Li619 1.970 . S
O678 C648 1.325 . S
O679 Li617 1.961 . S
O679 Li618 1.970 . S
O679 Li619 1.956 . S
O679 C654 1.325 . S
H680 C622 0.929 . S
H681 C623 0.930 . S
H682 C624 0.930 . S
H683 C625 0.930 . S
H684 C627 0.930 . S
H685 C629 0.929 . S
H686 C630 0.930 . S
H687 C631 0.930 . S
H688 C634 0.930 . S
H689 C637 0.929 . S
H690 C642 0.929 . S
H691 C643 0.930 . S
H692 C650 0.929 . S
H693 C651 0.930 . S
H694 C652 0.930 . S
H695 C653 0.930 . S
H696 C655 0.929 . S
H697 C656 0.930 . S
H698 C657 0.930 . S
H699 C658 0.930 . S
H700 C662 0.929 . S
H701 C664 0.930 . S
H702 C670 0.929 . S
H703 C671 0.930 . S
Li704 N721 1.990 . S
Li704 O764 1.956 . S
Li704 O765 1.970 . S
Li704 O766 1.961 . S
Li705 N729 1.990 . S
Li705 O764 1.970 . S
Li705 O765 1.956 . S
Li705 O767 1.961 . S
Li706 N751 1.990 . S
Li706 O764 1.961 . S
Li706 O766 1.956 . S
Li706 O767 1.970 . S
Li707 N757 1.990 . S
Li707 O765 1.961 . S
Li707 O766 1.970 . S
Li707 O767 1.956 . S
C708 C710 1.348 . S
C708 C711 1.356 . S
C708 O764 1.325 . S
N709 C712 1.314 . S
N709 C713 1.279 . S
C710 C708 1.348 . S
C710 C712 1.353 . S
C710 H768 0.929 . S
C711 C708 1.356 . S
C711 C713 1.358 . S
C711 H769 0.930 . S
C712 N709 1.314 . S
C712 C710 1.353 . S
C712 H770 0.930 . S
C713 N709 1.279 . S
C713 C711 1.358 . S
C713 H771 0.930 . S
C714 C717 1.348 . S
C714 C718 1.356 . S
C714 O765 1.325 . S
C715 N716 1.279 . S
C715 C718 1.358 . S
C715 H772 0.930 . S
N716 C715 1.279 . S
N716 C719 1.314 . S
C717 C714 1.348 . S
C717 C719 1.353 . S
C717 H773 0.929 . S
C718 C714 1.356 . S
C718 C715 1.358 . S
C718 H774 0.930 . S
C719 N716 1.314 . S
C719 C717 1.353 . S
C719 H775 0.930 . S
C720 N721 1.314 . S
C720 C725 1.353 . S
C720 H726 0.930 . S
N721 Li704 1.990 . S
N721 C720 1.314 . S
N721 C723 1.279 . S
C722 C723 1.358 . S
C722 C724 1.356 . S
C722 H776 0.930 . S
C723 N721 1.279 . S
C723 C722 1.358 . S
C723 H727 0.930 . S
C724 C722 1.356 . S
C724 C725 1.348 . S
C725 C720 1.353 . S
C725 C724 1.348 . S
C725 H777 0.929 . S
H726 C720 0.930 . S
H727 C723 0.930 . S
C728 N729 1.314 . S
C728 C730 1.353 . S
C728 H734 0.930 . S
N729 Li705 1.990 . S
N729 C728 1.314 . S
N729 C732 1.279 . S
C730 C728 1.353 . S
C730 C733 1.348 . S
C730 H778 0.929 . S
C731 C732 1.358 . S
C731 C733 1.356 . S
C731 H779 0.930 . S
C732 N729 1.279 . S
C732 C731 1.358 . S
C732 H735 0.930 . S
C733 C730 1.348 . S
C733 C731 1.356 . S
H734 C728 0.930 . S
H735 C732 0.930 . S
C736 C738 1.348 . S
C736 C739 1.356 . S
C736 O766 1.325 . S
N737 C740 1.314 . S
N737 C741 1.279 . S
C738 C736 1.348 . S
C738 C740 1.353 . S
C738 H780 0.929 . S
C739 C736 1.356 . S
C739 C741 1.358 . S
C739 H781 0.930 . S
C740 N737 1.314 . S
C740 C738 1.353 . S
C740 H782 0.930 . S
C741 N737 1.279 . S
C741 C739 1.358 . S
C741 H783 0.930 . S
C742 C743 1.348 . S
C742 C744 1.356 . S
C742 O767 1.325 . S
C743 C742 1.348 . S
C743 C745 1.353 . S
C743 H784 0.929 . S
C744 C742 1.356 . S
C744 C746 1.358 . S
C744 H785 0.930 . S
C745 C743 1.353 . S
C745 N747 1.314 . S
C745 H786 0.930 . S
C746 C744 1.358 . S
C746 N747 1.279 . S
C746 H787 0.930 . S
N747 C745 1.314 . S
N747 C746 1.279 . S
C748 C750 1.353 . S
C748 N751 1.314 . S
C748 H754 0.930 . S
C749 N751 1.279 . S
C749 C752 1.358 . S
C749 H755 0.930 . S
C750 C748 1.353 . S
C750 C753 1.348 . S
C750 H788 0.929 . S
N751 Li706 1.990 . S
N751 C748 1.314 . S
N751 C749 1.279 . S
C752 C749 1.358 . S
C752 C753 1.356 . S
C752 H789 0.930 . S
C753 C750 1.348 . S
C753 C752 1.356 . S
H754 C748 0.930 . S
H755 C749 0.930 . S
C756 N757 1.314 . S
C756 C758 1.353 . S
C756 H762 0.930 . S
N757 Li707 1.990 . S
N757 C756 1.314 . S
N757 C760 1.279 . S
C758 C756 1.353 . S
C758 C761 1.348 . S
C758 H790 0.929 . S
C759 C760 1.358 . S
C759 C761 1.356 . S
C759 H791 0.930 . S
C760 N757 1.279 . S
C760 C759 1.358 . S
C760 H763 0.930 . S
C761 C758 1.348 . S
C761 C759 1.356 . S
H762 C756 0.930 . S
H763 C760 0.930 . S
O764 Li704 1.956 . S
O764 Li705 1.970 . S
O764 Li706 1.961 . S
O764 C708 1.325 . S
O765 Li704 1.970 . S
O765 Li705 1.956 . S
O765 Li707 1.961 . S
O765 C714 1.325 . S
O766 Li704 1.961 . S
O766 Li706 1.956 . S
O766 Li707 1.970 . S
O766 C736 1.325 . S
O767 Li705 1.961 . S
O767 Li706 1.970 . S
O767 Li707 1.956 . S
O767 C742 1.325 . S
H768 C710 0.929 . S
H769 C711 0.930 . S
H770 C712 0.930 . S
H771 C713 0.930 . S
H772 C715 0.930 . S
H773 C717 0.929 . S
H774 C718 0.930 . S
H775 C719 0.930 . S
H776 C722 0.930 . S
H777 C725 0.929 . S
H778 C730 0.929 . S
H779 C731 0.930 . S
H780 C738 0.929 . S
H781 C739 0.930 . S
H782 C740 0.930 . S
H783 C741 0.930 . S
H784 C743 0.929 . S
H785 C744 0.930 . S
H786 C745 0.930 . S
H787 C746 0.930 . S
H788 C750 0.929 . S
H789 C752 0.930 . S
H790 C758 0.929 . S
H791 C759 0.930 . S
Li792 N809 1.990 . S
Li792 O852 1.956 . S
Li792 O853 1.970 . S
Li792 O854 1.961 . S
Li793 N817 1.990 . S
Li793 O852 1.970 . S
Li793 O853 1.956 . S
Li793 O855 1.961 . S
Li794 N839 1.990 . S
Li794 O852 1.961 . S
Li794 O854 1.956 . S
Li794 O855 1.970 . S
Li795 N845 1.990 . S
Li795 O853 1.961 . S
Li795 O854 1.970 . S
Li795 O855 1.956 . S
C796 C798 1.348 . S
C796 C799 1.356 . S
C796 O852 1.325 . S
N797 C800 1.314 . S
N797 C801 1.279 . S
C798 C796 1.348 . S
C798 C800 1.353 . S
C798 H856 0.929 . S
C799 C796 1.356 . S
C799 C801 1.358 . S
C799 H857 0.930 . S
C800 N797 1.314 . S
C800 C798 1.353 . S
C800 H858 0.930 . S
C801 N797 1.279 . S
C801 C799 1.358 . S
C801 H859 0.930 . S
C802 C805 1.348 . S
C802 C806 1.356 . S
C802 O853 1.325 . S
C803 N804 1.279 . S
C803 C806 1.358 1_554 S
C803 H860 0.930 . S
N804 C803 1.279 . S
N804 C807 1.314 . S
C805 C802 1.348 . S
C805 C807 1.353 1_556 S
C805 H861 0.929 . S
C806 C802 1.356 . S
C806 C803 1.358 1_556 S
C806 H862 0.930 . S
C807 N804 1.314 . S
C807 C805 1.353 1_554 S
C807 H863 0.930 . S
C808 N809 1.314 . S
C808 C813 1.353 . S
C808 H814 0.930 . S
N809 Li792 1.990 . S
N809 C808 1.314 . S
N809 C811 1.279 . S
C810 C811 1.358 . S
C810 C812 1.356 . S
C810 H864 0.930 . S
C811 N809 1.279 . S
C811 C810 1.358 . S
C811 H815 0.930 . S
C812 C810 1.356 . S
C812 C813 1.348 . S
C813 C808 1.353 . S
C813 C812 1.348 . S
C813 H865 0.929 . S
H814 C808 0.930 . S
H815 C811 0.930 . S
C816 N817 1.315 . S
C816 C818 1.338 1_556 S
C816 H822 0.946 . S
N817 Li793 1.990 . S
N817 C816 1.315 . S
N817 C820 1.279 1_556 S
C818 C816 1.338 1_554 S
C818 C821 1.348 . S
C818 H866 0.929 . S
C819 C820 1.358 . S
C819 C821 1.356 . S
C819 H867 0.930 . S
C820 N817 1.279 1_554 S
C820 C819 1.358 . S
C820 H823 0.930 . S
C821 C818 1.348 . S
C821 C819 1.356 . S
H822 C816 0.946 . S
H823 C820 0.930 . S
C824 C826 1.348 . S
C824 C827 1.356 . S
C824 O854 1.325 . S
N825 C828 1.314 . S
N825 C829 1.279 . S
C826 C824 1.348 . S
C826 C828 1.353 . S
C826 H868 0.929 . S
C827 C824 1.356 . S
C827 C829 1.358 . S
C827 H869 0.930 . S
C828 N825 1.314 . S
C828 C826 1.353 . S
C828 H870 0.930 . S
C829 N825 1.279 . S
C829 C827 1.358 . S
C829 H871 0.930 . S
C830 C831 1.348 . S
C830 C832 1.356 . S
C830 O855 1.325 . S
C831 C830 1.348 . S
C831 C833 1.353 . S
C831 H872 0.929 . S
C832 C830 1.356 . S
C832 C834 1.358 . S
C832 H873 0.930 . S
C833 C831 1.353 . S
C833 N835 1.314 . S
C833 H874 0.930 . S
C834 C832 1.358 . S
C834 N835 1.279 . S
C834 H875 0.930 . S
N835 C833 1.314 . S
N835 C834 1.279 . S
C836 C838 1.353 . S
C836 N839 1.314 . S
C836 H842 0.930 . S
C837 N839 1.279 . S
C837 C840 1.358 . S
C837 H843 0.930 . S
C838 C836 1.353 . S
C838 C841 1.348 . S
C838 H876 0.929 . S
N839 Li794 1.990 . S
N839 C836 1.314 . S
N839 C837 1.279 . S
C840 C837 1.358 . S
C840 C841 1.356 . S
C840 H877 0.930 . S
C841 C838 1.348 . S
C841 C840 1.356 . S
H842 C836 0.930 . S
H843 C837 0.930 . S
C844 N845 1.314 . S
C844 C846 1.353 . S
C844 H850 0.930 . S
N845 Li795 1.990 . S
N845 C844 1.314 . S
N845 C848 1.279 . S
C846 C844 1.353 . S
C846 C849 1.348 . S
C846 H878 0.929 . S
C847 C848 1.358 . S
C847 C849 1.356 . S
C847 H879 0.930 . S
C848 N845 1.279 . S
C848 C847 1.358 . S
C848 H851 0.930 . S
C849 C846 1.348 . S
C849 C847 1.356 . S
H850 C844 0.930 . S
H851 C848 0.930 . S
O852 Li792 1.956 . S
O852 Li793 1.970 . S
O852 Li794 1.961 . S
O852 C796 1.325 . S
O853 Li792 1.970 . S
O853 Li793 1.956 . S
O853 Li795 1.961 . S
O853 C802 1.325 . S
O854 Li792 1.961 . S
O854 Li794 1.956 . S
O854 Li795 1.970 . S
O854 C824 1.325 . S
O855 Li793 1.961 . S
O855 Li794 1.970 . S
O855 Li795 1.956 . S
O855 C830 1.325 . S
H856 C798 0.929 . S
H857 C799 0.930 . S
H858 C800 0.930 . S
H859 C801 0.930 . S
H860 C803 0.930 . S
H861 C805 0.929 . S
H862 C806 0.930 . S
H863 C807 0.930 . S
H864 C810 0.930 . S
H865 C813 0.929 . S
H866 C818 0.929 . S
H867 C819 0.930 . S
H868 C826 0.929 . S
H869 C827 0.930 . S
H870 C828 0.930 . S
H871 C829 0.930 . S
H872 C831 0.929 . S
H873 C832 0.930 . S
H874 C833 0.930 . S
H875 C834 0.930 . S
H876 C838 0.929 . S
H877 C840 0.930 . S
H878 C846 0.929 . S
H879 C847 0.930 . S
Li880 N897 1.990 . S
Li880 O940 1.956 . S
Li880 O941 1.970 . S
Li880 O942 1.961 . S
Li881 N905 1.990 . S
Li881 O940 1.970 . S
Li881 O941 1.956 . S
Li881 O943 1.961 . S
Li882 N927 1.990 1_554 S
Li882 O940 1.961 . S
Li882 O942 1.956 . S
Li882 O943 1.970 . S
Li883 N933 1.990 . S
Li883 O941 1.961 . S
Li883 O942 1.970 . S
Li883 O943 1.956 . S
C884 C886 1.348 . S
C884 C887 1.356 . S
C884 O940 1.325 . S
N885 C888 1.314 . S
N885 C889 1.279 . S
C886 C884 1.348 . S
C886 C888 1.353 . S
C886 H944 0.929 . S
C887 C884 1.356 . S
C887 C889 1.358 . S
C887 H945 0.930 . S
C888 N885 1.314 . S
C888 C886 1.353 . S
C888 H946 0.930 . S
C889 N885 1.279 . S
C889 C887 1.358 . S
C889 H947 0.930 . S
C890 C893 1.348 . S
C890 C894 1.356 . S
C890 O941 1.325 . S
C891 N892 1.279 . S
C891 C894 1.358 . S
C891 H948 0.930 . S
N892 C891 1.279 . S
N892 C895 1.314 . S
C893 C890 1.348 . S
C893 C895 1.353 . S
C893 H949 0.929 . S
C894 C890 1.356 . S
C894 C891 1.358 . S
C894 H950 0.930 . S
C895 N892 1.314 . S
C895 C893 1.353 . S
C895 H951 0.930 . S
C896 N897 1.314 . S
C896 C901 1.353 . S
C896 H902 0.930 . S
N897 Li880 1.990 . S
N897 C896 1.314 . S
N897 C899 1.279 . S
C898 C899 1.358 . S
C898 C900 1.356 . S
C898 H952 0.930 . S
C899 N897 1.279 . S
C899 C898 1.358 . S
C899 H903 0.930 . S
C900 C898 1.356 . S
C900 C901 1.348 . S
C901 C896 1.353 . S
C901 C900 1.348 . S
C901 H953 0.929 . S
H902 C896 0.930 . S
H903 C899 0.930 . S
C904 N905 1.314 . S
C904 C906 1.353 . S
C904 H910 0.930 . S
N905 Li881 1.990 . S
N905 C904 1.314 . S
N905 C908 1.279 . S
C906 C904 1.353 . S
C906 C909 1.348 . S
C906 H954 0.929 . S
C907 C908 1.358 . S
C907 C909 1.356 . S
C907 H955 0.930 . S
C908 N905 1.279 . S
C908 C907 1.358 . S
C908 H911 0.930 . S
C909 C906 1.348 . S
C909 C907 1.356 . S
H910 C904 0.930 . S
H911 C908 0.930 . S
C912 C914 1.348 . S
C912 C915 1.356 . S
C912 O942 1.325 1_556 S
N913 C916 1.314 . S
N913 C917 1.279 . S
C914 C912 1.348 . S
C914 C916 1.353 . S
C914 H956 0.929 . S
C915 C912 1.356 . S
C915 C917 1.358 . S
C915 H957 0.930 . S
C916 N913 1.314 . S
C916 C914 1.353 . S
C916 H958 0.930 . S
C917 N913 1.279 . S
C917 C915 1.358 . S
C917 H959 0.930 . S
C918 C919 1.348 . S
C918 C920 1.356 . S
C918 O943 1.325 . S
C919 C918 1.348 . S
C919 C921 1.353 . S
C919 H960 0.929 . S
C920 C918 1.356 . S
C920 C922 1.358 . S
C920 H961 0.930 . S
C921 C919 1.353 . S
C921 N923 1.314 . S
C921 H962 0.930 . S
C922 C920 1.358 . S
C922 N923 1.279 . S
C922 H963 0.930 . S
N923 C921 1.314 . S
N923 C922 1.279 . S
C924 C926 1.353 . S
C924 N927 1.314 . S
C924 H930 0.930 1_556 S
C925 N927 1.279 . S
C925 C928 1.358 . S
C925 H931 0.930 . S
C926 C924 1.353 . S
C926 C929 1.348 . S
C926 H964 0.929 . S
N927 Li882 1.990 1_556 S
N927 C924 1.314 . S
N927 C925 1.279 . S
C928 C925 1.358 . S
C928 C929 1.356 . S
C928 H965 0.930 . S
C929 C926 1.348 . S
C929 C928 1.356 . S
H930 C924 0.930 1_554 S
H931 C925 0.930 . S
C932 N933 1.314 . S
C932 C934 1.353 . S
C932 H938 0.930 . S
N933 Li883 1.990 . S
N933 C932 1.314 . S
N933 C936 1.279 . S
C934 C932 1.353 . S
C934 C937 1.348 . S
C934 H966 0.929 . S
C935 C936 1.358 . S
C935 C937 1.356 . S
C935 H967 0.930 . S
C936 N933 1.279 . S
C936 C935 1.358 . S
C936 H939 0.930 . S
C937 C934 1.348 . S
C937 C935 1.356 . S
H938 C932 0.930 . S
H939 C936 0.930 . S
O940 Li880 1.956 . S
O940 Li881 1.970 . S
O940 Li882 1.961 . S
O940 C884 1.325 . S
O941 Li880 1.970 . S
O941 Li881 1.956 . S
O941 Li883 1.961 . S
O941 C890 1.325 . S
O942 Li880 1.961 . S
O942 Li882 1.956 . S
O942 Li883 1.970 . S
O942 C912 1.325 1_554 S
O943 Li881 1.961 . S
O943 Li882 1.970 . S
O943 Li883 1.956 . S
O943 C918 1.325 . S
H944 C886 0.929 . S
H945 C887 0.930 . S
H946 C888 0.930 . S
H947 C889 0.930 . S
H948 C891 0.930 . S
H949 C893 0.929 . S
H950 C894 0.930 . S
H951 C895 0.930 . S
H952 C898 0.930 . S
H953 C901 0.929 . S
H954 C906 0.929 . S
H955 C907 0.930 . S
H956 C914 0.929 . S
H957 C915 0.930 . S
H958 C916 0.930 . S
H959 C917 0.930 . S
H960 C919 0.929 . S
H961 C920 0.930 . S
H962 C921 0.930 . S
H963 C922 0.930 . S
H964 C926 0.929 . S
H965 C928 0.930 . S
H966 C934 0.929 . S
H967 C935 0.930 . S
Li968 N985 1.990 . S
Li968 O1028 1.956 . S
Li968 O1029 1.970 . S
Li968 O1030 1.961 . S
Li969 N993 1.990 . S
Li969 O1028 1.970 . S
Li969 O1029 1.956 . S
Li969 O1031 1.961 . S
Li970 N1015 1.990 . S
Li970 O1028 1.961 . S
Li970 O1030 1.956 . S
Li970 O1031 1.970 . S
Li971 N1021 1.990 . S
Li971 O1029 1.961 . S
Li971 O1030 1.970 . S
Li971 O1031 1.956 . S
C972 C974 1.348 . S
C972 C975 1.356 . S
C972 O1028 1.325 . S
N973 C976 1.314 . S
N973 C977 1.279 . S
C974 C972 1.348 . S
C974 C976 1.353 . S
C974 H1032 0.929 . S
C975 C972 1.356 . S
C975 C977 1.358 . S
C975 H1033 0.930 . S
C976 N973 1.314 . S
C976 C974 1.353 . S
C976 H1034 0.930 . S
C977 N973 1.279 . S
C977 C975 1.358 . S
C977 H1035 0.930 . S
C978 C981 1.348 . S
C978 C982 1.356 . S
C978 O1029 1.325 . S
C979 N980 1.279 . S
C979 C982 1.358 . S
C979 H1036 0.930 . S
N980 C979 1.279 . S
N980 C983 1.314 . S
C981 C978 1.348 . S
C981 C983 1.353 . S
C981 H1037 0.929 . S
C982 C978 1.356 . S
C982 C979 1.358 . S
C982 H1038 0.930 . S
C983 N980 1.314 . S
C983 C981 1.353 . S
C983 H1039 0.930 . S
C984 N985 1.314 . S
C984 C989 1.353 . S
C984 H990 0.930 . S
N985 Li968 1.990 . S
N985 C984 1.314 . S
N985 C987 1.279 . S
C986 C987 1.358 . S
C986 C988 1.356 . S
C986 H1040 0.930 . S
C987 N985 1.279 . S
C987 C986 1.358 . S
C987 H991 0.930 . S
C988 C986 1.356 . S
C988 C989 1.348 . S
C989 C984 1.353 . S
C989 C988 1.348 . S
C989 H1041 0.929 . S
H990 C984 0.930 . S
H991 C987 0.930 . S
C992 N993 1.314 . S
C992 C994 1.353 . S
C992 H998 0.930 . S
N993 Li969 1.990 . S
N993 C992 1.314 . S
N993 C996 1.279 . S
C994 C992 1.353 . S
C994 C997 1.348 . S
C994 H1042 0.929 . S
C995 C996 1.358 . S
C995 C997 1.356 . S
C995 H1043 0.930 . S
C996 N993 1.279 . S
C996 C995 1.358 . S
C996 H999 0.930 . S
C997 C994 1.348 . S
C997 C995 1.356 . S
H998 C992 0.930 . S
H999 C996 0.930 . S
C1000 C1002 1.348 . S
C1000 C1003 1.356 . S
C1000 O1030 1.325 . S
N1001 C1004 1.314 . S
N1001 C1005 1.279 . S
C1002 C1000 1.348 . S
C1002 C1004 1.353 . S
C1002 H1044 0.929 . S
C1003 C1000 1.356 . S
C1003 C1005 1.358 . S
C1003 H1045 0.930 . S
C1004 N1001 1.314 . S
C1004 C1002 1.353 . S
C1004 H1046 0.930 . S
C1005 N1001 1.279 . S
C1005 C1003 1.358 . S
C1005 H1047 0.930 . S
C1006 C1007 1.348 . S
C1006 C1008 1.356 . S
C1006 O1031 1.325 . S
C1007 C1006 1.348 . S
C1007 C1009 1.353 . S
C1007 H1048 0.929 . S
C1008 C1006 1.356 . S
C1008 C1010 1.358 . S
C1008 H1049 0.930 . S
C1009 C1007 1.353 . S
C1009 N1011 1.314 . S
C1009 H1050 0.930 . S
C1010 C1008 1.358 . S
C1010 N1011 1.279 . S
C1010 H1051 0.930 . S
N1011 C1009 1.314 . S
N1011 C1010 1.279 . S
C1012 C1014 1.353 . S
C1012 N1015 1.314 . S
C1012 H1018 0.930 . S
C1013 N1015 1.279 . S
C1013 C1016 1.358 . S
C1013 H1019 0.930 . S
C1014 C1012 1.353 . S
C1014 C1017 1.348 . S
C1014 H1052 0.929 . S
N1015 Li970 1.990 . S
N1015 C1012 1.314 . S
N1015 C1013 1.279 . S
C1016 C1013 1.358 . S
C1016 C1017 1.356 . S
C1016 H1053 0.930 . S
C1017 C1014 1.348 . S
C1017 C1016 1.356 . S
H1018 C1012 0.930 . S
H1019 C1013 0.930 . S
C1020 N1021 1.314 . S
C1020 C1022 1.353 . S
C1020 H1026 0.930 . S
N1021 Li971 1.990 . S
N1021 C1020 1.314 . S
N1021 C1024 1.279 . S
C1022 C1020 1.353 . S
C1022 C1025 1.348 . S
C1022 H1054 0.929 . S
C1023 C1024 1.358 . S
C1023 C1025 1.356 . S
C1023 H1055 0.930 . S
C1024 N1021 1.279 . S
C1024 C1023 1.358 . S
C1024 H1027 0.930 . S
C1025 C1022 1.348 . S
C1025 C1023 1.356 . S
H1026 C1020 0.930 . S
H1027 C1024 0.930 . S
O1028 Li968 1.956 . S
O1028 Li969 1.970 . S
O1028 Li970 1.961 . S
O1028 C972 1.325 . S
O1029 Li968 1.970 . S
O1029 Li969 1.956 . S
O1029 Li971 1.961 . S
O1029 C978 1.325 . S
O1030 Li968 1.961 . S
O1030 Li970 1.956 . S
O1030 Li971 1.970 . S
O1030 C1000 1.325 . S
O1031 Li969 1.961 . S
O1031 Li970 1.970 . S
O1031 Li971 1.956 . S
O1031 C1006 1.325 . S
H1032 C974 0.929 . S
H1033 C975 0.930 . S
H1034 C976 0.930 . S
H1035 C977 0.930 . S
H1036 C979 0.930 . S
H1037 C981 0.929 . S
H1038 C982 0.930 . S
H1039 C983 0.930 . S
H1040 C986 0.930 . S
H1041 C989 0.929 . S
H1042 C994 0.929 . S
H1043 C995 0.930 . S
H1044 C1002 0.929 . S
H1045 C1003 0.930 . S
H1046 C1004 0.930 . S
H1047 C1005 0.930 . S
H1048 C1007 0.929 . S
H1049 C1008 0.930 . S
H1050 C1009 0.930 . S
H1051 C1010 0.930 . S
H1052 C1014 0.929 . S
H1053 C1016 0.930 . S
H1054 C1022 0.929 . S
H1055 C1023 0.930 . S
H1056 C1062 0.930 . S
H1057 C1066 0.930 . S
H1058 C1071 0.929 . S
H1059 C1069 0.929 . S
H1060 C1064 0.929 . S
H1061 C1070 0.929 . S
C1062 H1056 0.930 . S
C1062 C1063 1.367 . S
C1062 C1070 1.378 . S
C1063 C1062 1.367 . S
C1063 C1071 1.433 . S
C1064 H1060 0.929 . S
C1064 C1066 1.378 . S
C1064 C1068 1.350 . S
C1065 C1068 1.463 . S
C1065 C1070 1.350 . S
C1065 N1073 1.427 . S
C1066 H1057 0.930 . S
C1066 C1064 1.378 . S
C1066 C1067 1.367 . S
C1067 C1066 1.367 . S
C1067 C1069 1.433 . S
C1068 C1064 1.350 . S
C1068 C1065 1.463 . S
C1068 N1072 1.427 . S
C1069 H1059 0.929 . S
C1069 C1067 1.433 . S
C1069 N1072 1.384 . S
C1070 H1061 0.929 . S
C1070 C1062 1.378 . S
C1070 C1065 1.350 . S
C1071 H1058 0.929 . S
C1071 C1063 1.433 . S
C1071 N1073 1.384 . S
N1072 C1068 1.427 . S
N1072 C1069 1.384 . S
N1073 C1065 1.427 . S
N1073 C1071 1.384 . S
H1074 C1080 0.930 . S
H1075 C1084 0.930 . S
H1076 C1089 0.929 . S
H1077 C1087 0.929 . S
H1078 C1082 0.929 . S
H1079 C1088 0.929 . S
C1080 H1074 0.930 . S
C1080 C1081 1.367 . S
C1080 C1088 1.378 . S
C1081 C1080 1.367 . S
C1081 C1089 1.433 . S
C1082 H1078 0.929 . S
C1082 C1084 1.378 . S
C1082 C1086 1.350 . S
C1083 C1086 1.463 1_455 S
C1083 C1088 1.350 . S
C1083 N1091 1.427 . S
C1084 H1075 0.930 . S
C1084 C1082 1.378 . S
C1084 C1085 1.367 . S
C1085 C1084 1.367 . S
C1085 C1087 1.433 . S
C1086 C1082 1.350 . S
C1086 C1083 1.463 1_655 S
C1086 N1090 1.427 . S
C1087 H1077 0.929 . S
C1087 C1085 1.433 . S
C1087 N1090 1.384 . S
C1088 H1079 0.929 . S
C1088 C1080 1.378 . S
C1088 C1083 1.350 . S
C1089 H1076 0.929 . S
C1089 C1081 1.433 . S
C1089 N1091 1.384 . S
N1090 C1086 1.427 . S
N1090 C1087 1.384 . S
N1091 C1083 1.427 . S
N1091 C1089 1.384 . S
H1092 C1098 0.930 . S
H1093 C1102 0.930 . S
H1094 C1107 0.929 . S
H1095 C1105 0.929 . S
H1096 C1100 0.929 1_565 S
H1097 C1106 0.929 1_545 S
C1098 H1092 0.930 . S
C1098 C1099 1.367 . S
C1098 C1106 1.378 . S
C1099 C1098 1.367 . S
C1099 C1107 1.433 . S
C1100 H1096 0.929 1_545 S
C1100 C1102 1.378 . S
C1100 C1104 1.350 . S
C1101 C1104 1.463 1_565 S
C1101 C1106 1.350 . S
C1101 N1109 1.427 . S
C1102 H1093 0.930 . S
C1102 C1100 1.378 . S
C1102 C1103 1.367 . S
C1103 C1102 1.367 . S
C1103 C1105 1.433 . S
C1104 C1100 1.350 . S
C1104 C1101 1.463 1_545 S
C1104 N1108 1.427 . S
C1105 H1095 0.929 . S
C1105 C1103 1.433 . S
C1105 N1108 1.384 . S
C1106 H1097 0.929 1_565 S
C1106 C1098 1.378 . S
C1106 C1101 1.350 . S
C1107 H1094 0.929 . S
C1107 C1099 1.433 . S
C1107 N1109 1.384 . S
N1108 C1104 1.427 . S
N1108 C1105 1.384 . S
N1109 C1101 1.427 . S
N1109 C1107 1.384 . S
H1110 C1116 0.930 . S
H1111 C1120 0.930 . S
H1112 C1125 0.929 . S
H1113 C1123 0.929 . S
H1114 C1118 0.929 . S
H1115 C1124 0.929 . S
C1116 H1110 0.930 . S
C1116 C1117 1.367 . S
C1116 C1124 1.378 . S
C1117 C1116 1.367 . S
C1117 C1125 1.433 . S
C1118 H1114 0.929 . S
C1118 C1120 1.378 . S
C1118 C1122 1.350 . S
C1119 C1122 1.463 . S
C1119 C1124 1.350 . S
C1119 N1127 1.427 . S
C1120 H1111 0.930 . S
C1120 C1118 1.378 . S
C1120 C1121 1.367 . S
C1121 C1120 1.367 . S
C1121 C1123 1.433 . S
C1122 C1118 1.350 . S
C1122 C1119 1.463 . S
C1122 N1126 1.427 . S
C1123 H1113 0.929 . S
C1123 C1121 1.433 . S
C1123 N1126 1.384 . S
C1124 H1115 0.929 . S
C1124 C1116 1.378 . S
C1124 C1119 1.350 . S
C1125 H1112 0.929 . S
C1125 C1117 1.433 . S
C1125 N1127 1.384 . S
N1126 C1122 1.427 . S
N1126 C1123 1.384 . S
N1127 C1119 1.427 . S
N1127 C1125 1.384 . S
H1128 C1134 0.930 . S
H1129 C1138 0.930 . S
H1130 C1143 0.929 . S
H1131 C1141 0.929 . S
H1132 C1136 0.929 . S
H1133 C1142 0.929 . S
C1134 H1128 0.930 . S
C1134 C1135 1.367 . S
C1134 C1142 1.378 . S
C1135 C1134 1.367 . S
C1135 C1143 1.433 . S
C1136 H1132 0.929 . S
C1136 C1138 1.378 . S
C1136 C1140 1.350 . S
C1137 C1140 1.463 1_455 S
C1137 C1142 1.350 . S
C1137 N1145 1.427 . S
C1138 H1129 0.930 . S
C1138 C1136 1.378 . S
C1138 C1139 1.367 . S
C1139 C1138 1.367 . S
C1139 C1141 1.433 . S
C1140 C1136 1.350 . S
C1140 C1137 1.463 1_655 S
C1140 N1144 1.427 . S
C1141 H1131 0.929 . S
C1141 C1139 1.433 . S
C1141 N1144 1.384 . S
C1142 H1133 0.929 . S
C1142 C1134 1.378 . S
C1142 C1137 1.350 . S
C1143 H1130 0.929 . S
C1143 C1135 1.433 . S
C1143 N1145 1.384 . S
N1144 C1140 1.427 . S
N1144 C1141 1.384 . S
N1145 C1137 1.427 . S
N1145 C1143 1.384 . S
H1146 C1152 0.930 . S
H1147 C1156 0.930 . S
H1148 C1161 0.929 . S
H1149 C1159 0.929 . S
H1150 C1154 0.929 1_545 S
H1151 C1160 0.929 1_565 S
C1152 H1146 0.930 . S
C1152 C1153 1.367 . S
C1152 C1160 1.378 . S
C1153 C1152 1.367 . S
C1153 C1161 1.433 . S
C1154 H1150 0.929 1_565 S
C1154 C1156 1.378 . S
C1154 C1158 1.350 . S
C1155 C1158 1.463 1_546 S
C1155 C1160 1.350 . S
C1155 N1163 1.427 . S
C1156 H1147 0.930 . S
C1156 C1154 1.378 . S
C1156 C1157 1.367 . S
C1157 C1156 1.367 . S
C1157 C1159 1.433 . S
C1158 C1154 1.350 . S
C1158 C1155 1.463 1_564 S
C1158 N1162 1.427 . S
C1159 H1149 0.929 . S
C1159 C1157 1.433 . S
C1159 N1162 1.384 . S
C1160 H1151 0.929 1_545 S
C1160 C1152 1.378 . S
C1160 C1155 1.350 . S
C1161 H1148 0.929 . S
C1161 C1153 1.433 . S
C1161 N1163 1.384 . S
N1162 C1158 1.427 . S
N1162 C1159 1.384 . S
N1163 C1155 1.427 . S
N1163 C1161 1.384 . S
H1164 C1170 0.930 . S
H1165 C1174 0.930 . S
H1166 C1179 0.929 . S
H1167 C1177 0.929 . S
H1168 C1172 0.929 . S
H1169 C1178 0.929 . S
C1170 H1164 0.930 . S
C1170 C1171 1.367 . S
C1170 C1178 1.378 . S
C1171 C1170 1.367 . S
C1171 C1179 1.433 . S
C1172 H1168 0.929 . S
C1172 C1174 1.378 . S
C1172 C1176 1.350 . S
C1173 C1176 1.463 . S
C1173 C1178 1.350 . S
C1173 N1181 1.427 . S
C1174 H1165 0.930 . S
C1174 C1172 1.378 . S
C1174 C1175 1.367 . S
C1175 C1174 1.367 . S
C1175 C1177 1.433 . S
C1176 C1172 1.350 . S
C1176 C1173 1.463 . S
C1176 N1180 1.427 . S
C1177 H1167 0.929 . S
C1177 C1175 1.433 . S
C1177 N1180 1.384 . S
C1178 H1169 0.929 . S
C1178 C1170 1.378 . S
C1178 C1173 1.350 . S
C1179 H1166 0.929 . S
C1179 C1171 1.433 . S
C1179 N1181 1.384 . S
N1180 C1176 1.427 . S
N1180 C1177 1.384 . S
N1181 C1173 1.427 . S
N1181 C1179 1.384 . S
H1182 C1188 0.930 . S
H1183 C1192 0.930 . S
H1184 C1197 0.929 . S
H1185 C1195 0.929 . S
H1186 C1190 0.929 . S
H1187 C1196 0.929 . S
C1188 H1182 0.930 . S
C1188 C1189 1.367 . S
C1188 C1196 1.378 . S
C1189 C1188 1.367 . S
C1189 C1197 1.433 . S
C1190 H1186 0.929 . S
C1190 C1192 1.378 . S
C1190 C1194 1.350 . S
C1191 C1194 1.463 . S
C1191 C1196 1.350 . S
C1191 N1199 1.427 . S
C1192 H1183 0.930 . S
C1192 C1190 1.378 . S
C1192 C1193 1.367 . S
C1193 C1192 1.367 . S
C1193 C1195 1.433 . S
C1194 C1190 1.350 . S
C1194 C1191 1.463 . S
C1194 N1198 1.427 . S
C1195 H1185 0.929 . S
C1195 C1193 1.433 . S
C1195 N1198 1.384 . S
C1196 H1187 0.929 . S
C1196 C1188 1.378 . S
C1196 C1191 1.350 . S
C1197 H1184 0.929 . S
C1197 C1189 1.433 . S
C1197 N1199 1.384 . S
N1198 C1194 1.427 . S
N1198 C1195 1.384 . S
N1199 C1191 1.427 . S
N1199 C1197 1.384 . S
H1200 C1206 0.930 . S
H1201 C1210 0.930 . S
H1202 C1215 0.929 . S
H1203 C1213 0.929 . S
H1204 C1208 0.929 . S
H1205 C1214 0.929 . S
C1206 H1200 0.930 . S
C1206 C1207 1.367 . S
C1206 C1214 1.378 . S
C1207 C1206 1.367 . S
C1207 C1215 1.433 . S
C1208 H1204 0.929 . S
C1208 C1210 1.378 . S
C1208 C1212 1.350 . S
C1209 C1212 1.463 . S
C1209 C1214 1.350 . S
C1209 N1217 1.427 . S
C1210 H1201 0.930 . S
C1210 C1208 1.378 . S
C1210 C1211 1.367 . S
C1211 C1210 1.367 . S
C1211 C1213 1.433 . S
C1212 C1208 1.350 . S
C1212 C1209 1.463 . S
C1212 N1216 1.427 . S
C1213 H1203 0.929 . S
C1213 C1211 1.433 . S
C1213 N1216 1.384 . S
C1214 H1205 0.929 . S
C1214 C1206 1.378 . S
C1214 C1209 1.350 . S
C1215 H1202 0.929 . S
C1215 C1207 1.433 . S
C1215 N1217 1.384 . S
N1216 C1212 1.427 . S
N1216 C1213 1.384 . S
N1217 C1209 1.427 . S
N1217 C1215 1.384 . S
H1218 C1224 0.930 . S
H1219 C1228 0.930 . S
H1220 C1233 0.929 . S
H1221 C1231 0.929 . S
H1222 C1226 0.929 . S
H1223 C1232 0.929 . S
C1224 H1218 0.930 . S
C1224 C1225 1.367 . S
C1224 C1232 1.378 . S
C1225 C1224 1.367 . S
C1225 C1233 1.433 . S
C1226 H1222 0.929 . S
C1226 C1228 1.378 . S
C1226 C1230 1.350 . S
C1227 C1230 1.463 . S
C1227 C1232 1.350 . S
C1227 N1235 1.427 . S
C1228 H1219 0.930 . S
C1228 C1226 1.378 . S
C1228 C1229 1.367 . S
C1229 C1228 1.367 . S
C1229 C1231 1.433 . S
C1230 C1226 1.350 . S
C1230 C1227 1.463 . S
C1230 N1234 1.427 . S
C1231 H1221 0.929 . S
C1231 C1229 1.433 . S
C1231 N1234 1.384 . S
C1232 H1223 0.929 . S
C1232 C1224 1.378 . S
C1232 C1227 1.350 . S
C1233 H1220 0.929 . S
C1233 C1225 1.433 . S
C1233 N1235 1.384 . S
N1234 C1230 1.427 . S
N1234 C1231 1.384 . S
N1235 C1227 1.427 . S
N1235 C1233 1.384 . S
H1236 C1242 0.930 . S
H1237 C1246 0.930 . S
H1238 C1251 0.929 . S
H1239 C1249 0.929 . S
H1240 C1244 0.929 . S
H1241 C1250 0.929 . S
C1242 H1236 0.930 . S
C1242 C1243 1.367 . S
C1242 C1250 1.378 . S
C1243 C1242 1.367 . S
C1243 C1251 1.433 . S
C1244 H1240 0.929 . S
C1244 C1246 1.378 . S
C1244 C1248 1.350 . S
C1245 C1248 1.463 . S
C1245 C1250 1.350 . S
C1245 N1253 1.427 . S
C1246 H1237 0.930 . S
C1246 C1244 1.378 . S
C1246 C1247 1.367 . S
C1247 C1246 1.367 . S
C1247 C1249 1.433 . S
C1248 C1244 1.350 . S
C1248 C1245 1.463 . S
C1248 N1252 1.427 . S
C1249 H1239 0.929 . S
C1249 C1247 1.433 . S
C1249 N1252 1.384 . S
C1250 H1241 0.929 . S
C1250 C1242 1.378 . S
C1250 C1245 1.350 . S
C1251 H1238 0.929 . S
C1251 C1243 1.433 . S
C1251 N1253 1.384 . S
N1252 C1248 1.427 . S
N1252 C1249 1.384 . S
N1253 C1245 1.427 . S
N1253 C1251 1.384 . S
H1254 C1260 0.930 . S
H1255 C1264 0.930 . S
H1256 C1269 0.929 . S
H1257 C1267 0.929 . S
H1258 C1262 0.929 . S
H1259 C1268 0.929 . S
C1260 H1254 0.930 . S
C1260 C1261 1.367 . S
C1260 C1268 1.378 . S
C1261 C1260 1.367 . S
C1261 C1269 1.433 . S
C1262 H1258 0.929 . S
C1262 C1264 1.378 . S
C1262 C1266 1.350 . S
C1263 C1266 1.463 . S
C1263 C1268 1.350 . S
C1263 N1271 1.427 . S
C1264 H1255 0.930 . S
C1264 C1262 1.378 . S
C1264 C1265 1.367 . S
C1265 C1264 1.367 . S
C1265 C1267 1.433 . S
C1266 C1262 1.350 . S
C1266 C1263 1.463 . S
C1266 N1270 1.427 . S
C1267 H1257 0.929 . S
C1267 C1265 1.433 . S
C1267 N1270 1.384 . S
C1268 H1259 0.929 . S
C1268 C1260 1.378 . S
C1268 C1263 1.350 . S
C1269 H1256 0.929 . S
C1269 C1261 1.433 . S
C1269 N1271 1.384 . S
N1270 C1266 1.427 . S
N1270 C1267 1.384 . S
N1271 C1263 1.427 . S
N1271 C1269 1.384 . S
H1272 C1278 0.930 . S
H1273 C1282 0.930 . S
H1274 C1287 0.929 . S
H1275 C1285 0.929 . S
H1276 C1280 0.929 . S
H1277 C1286 0.929 . S
C1278 H1272 0.930 . S
C1278 C1279 1.367 . S
C1278 C1286 1.378 . S
C1279 C1278 1.367 . S
C1279 C1287 1.433 . S
C1280 H1276 0.929 . S
C1280 C1282 1.378 . S
C1280 C1284 1.350 . S
C1281 C1284 1.463 . S
C1281 C1286 1.350 . S
C1281 N1289 1.427 . S
C1282 H1273 0.930 . S
C1282 C1280 1.378 . S
C1282 C1283 1.367 . S
C1283 C1282 1.367 . S
C1283 C1285 1.433 . S
C1284 C1280 1.350 . S
C1284 C1281 1.463 . S
C1284 N1288 1.427 . S
C1285 H1275 0.929 . S
C1285 C1283 1.433 . S
C1285 N1288 1.384 . S
C1286 H1277 0.929 . S
C1286 C1278 1.378 . S
C1286 C1281 1.350 . S
C1287 H1274 0.929 . S
C1287 C1279 1.433 . S
C1287 N1289 1.384 . S
N1288 C1284 1.427 . S
N1288 C1285 1.384 . S
N1289 C1281 1.427 . S
N1289 C1287 1.384 . S
H1290 C1296 0.930 . S
H1291 C1300 0.930 . S
H1292 C1305 0.929 . S
H1293 C1303 0.929 . S
H1294 C1298 0.929 . S
H1295 C1304 0.929 . S
C1296 H1290 0.930 . S
C1296 C1297 1.367 . S
C1296 C1304 1.378 . S
C1297 C1296 1.367 . S
C1297 C1305 1.433 . S
C1298 H1294 0.929 . S
C1298 C1300 1.378 . S
C1298 C1302 1.350 . S
C1299 C1302 1.463 1_655 S
C1299 C1304 1.350 . S
C1299 N1307 1.427 1_655 S
C1300 H1291 0.930 . S
C1300 C1298 1.378 . S
C1300 C1301 1.367 . S
C1301 C1300 1.367 . S
C1301 C1303 1.433 . S
C1302 C1298 1.350 . S
C1302 C1299 1.463 1_455 S
C1302 N1306 1.427 1_455 S
C1303 H1293 0.929 . S
C1303 C1301 1.433 . S
C1303 N1306 1.382 1_455 S
C1304 H1295 0.929 . S
C1304 C1296 1.378 . S
C1304 C1299 1.350 . S
C1305 H1292 0.929 . S
C1305 C1297 1.433 . S
C1305 N1307 1.381 1_655 S
N1306 C1302 1.427 1_655 S
N1306 C1303 1.382 1_655 S
N1307 C1299 1.427 1_455 S
N1307 C1305 1.381 1_455 S
H1308 C1314 0.930 . S
H1309 C1318 0.930 . S
H1310 C1323 0.929 . S
H1311 C1321 0.929 . S
H1312 C1316 0.929 1_554 S
H1313 C1322 0.929 1_556 S
C1314 H1308 0.930 . S
C1314 C1315 1.367 . S
C1314 C1322 1.378 . S
C1315 C1314 1.367 . S
C1315 C1323 1.433 . S
C1316 H1312 0.929 1_556 S
C1316 C1318 1.378 . S
C1316 C1320 1.350 . S
C1317 C1320 1.463 1_564 S
C1317 C1322 1.350 . S
C1317 N1325 1.427 1_565 S
C1318 H1309 0.930 . S
C1318 C1316 1.378 . S
C1318 C1319 1.367 . S
C1319 C1318 1.367 . S
C1319 C1321 1.433 . S
C1320 C1316 1.350 . S
C1320 C1317 1.463 1_546 S
C1320 N1324 1.427 1_545 S
C1321 H1311 0.929 . S
C1321 C1319 1.433 . S
C1321 N1324 1.379 1_545 S
C1322 H1313 0.929 1_554 S
C1322 C1314 1.378 . S
C1322 C1317 1.350 . S
C1323 H1310 0.929 . S
C1323 C1315 1.433 . S
C1323 N1325 1.379 1_565 S
N1324 C1320 1.427 1_565 S
N1324 C1321 1.379 1_565 S
N1325 C1317 1.427 1_545 S
N1325 C1323 1.379 1_545 S
H1326 C1332 0.930 . S
H1327 C1336 0.930 . S
H1328 C1341 0.929 . S
H1329 C1339 0.929 . S
H1330 C1334 0.929 . S
H1331 C1340 0.929 . S
C1332 H1326 0.930 . S
C1332 C1333 1.367 . S
C1332 C1340 1.378 . S
C1333 C1332 1.367 . S
C1333 C1341 1.433 . S
C1334 H1330 0.929 . S
C1334 C1336 1.378 . S
C1334 C1338 1.350 . S
C1335 C1338 1.463 . S
C1335 C1340 1.350 . S
C1335 N1343 1.427 . S
C1336 H1327 0.930 . S
C1336 C1334 1.378 . S
C1336 C1337 1.367 . S
C1337 C1336 1.367 . S
C1337 C1339 1.433 . S
C1338 C1334 1.350 . S
C1338 C1335 1.463 . S
C1338 N1342 1.427 . S
C1339 H1329 0.929 . S
C1339 C1337 1.433 . S
C1339 N1342 1.384 . S
C1340 H1331 0.929 . S
C1340 C1332 1.378 . S
C1340 C1335 1.350 . S
C1341 H1328 0.929 . S
C1341 C1333 1.433 . S
C1341 N1343 1.384 . S
N1342 C1338 1.427 . S
N1342 C1339 1.384 . S
N1343 C1335 1.427 . S
N1343 C1341 1.384 . S
H1344 C1350 0.930 . S
H1345 C1354 0.930 . S
H1346 C1359 0.929 . S
H1347 C1357 0.929 . S
H1348 C1352 0.929 . S
H1349 C1358 0.929 . S
C1350 H1344 0.930 . S
C1350 C1351 1.367 . S
C1350 C1358 1.378 . S
C1351 C1350 1.367 . S
C1351 C1359 1.433 . S
C1352 H1348 0.929 . S
C1352 C1354 1.378 . S
C1352 C1356 1.350 . S
C1353 C1356 1.463 1_455 S
C1353 C1358 1.350 . S
C1353 N1361 1.427 . S
C1354 H1345 0.930 . S
C1354 C1352 1.378 . S
C1354 C1355 1.367 . S
C1355 C1354 1.367 . S
C1355 C1357 1.433 . S
C1356 C1352 1.350 . S
C1356 C1353 1.463 1_655 S
C1356 N1360 1.427 . S
C1357 H1347 0.929 . S
C1357 C1355 1.433 . S
C1357 N1360 1.384 . S
C1358 H1349 0.929 . S
C1358 C1350 1.378 . S
C1358 C1353 1.350 . S
C1359 H1346 0.929 . S
C1359 C1351 1.433 . S
C1359 N1361 1.384 . S
N1360 C1356 1.427 . S
N1360 C1357 1.384 . S
N1361 C1353 1.427 . S
N1361 C1359 1.384 . S
H1362 C1368 0.930 . S
H1363 C1372 0.930 . S
H1364 C1377 0.929 . S
H1365 C1375 0.929 . S
H1366 C1370 0.929 . S
H1367 C1376 0.929 . S
C1368 H1362 0.930 . S
C1368 C1369 1.367 . S
C1368 C1376 1.378 . S
C1369 C1368 1.367 . S
C1369 C1377 1.433 . S
C1370 H1366 0.929 . S
C1370 C1372 1.378 . S
C1370 C1374 1.350 . S
C1371 C1374 1.463 1_565 S
C1371 C1376 1.350 . S
C1371 N1379 1.431 . S
C1372 H1363 0.930 . S
C1372 C1370 1.378 . S
C1372 C1373 1.367 . S
C1373 C1372 1.367 . S
C1373 C1375 1.433 . S
C1374 C1370 1.350 . S
C1374 C1371 1.463 1_545 S
C1374 N1378 1.431 . S
C1375 H1365 0.929 . S
C1375 C1373 1.433 . S
C1375 N1378 1.388 . S
C1376 H1367 0.929 . S
C1376 C1368 1.378 . S
C1376 C1371 1.350 . S
C1377 H1364 0.929 . S
C1377 C1369 1.433 . S
C1377 N1379 1.387 . S
N1378 C1374 1.431 . S
N1378 C1375 1.388 . S
N1379 C1371 1.431 . S
N1379 C1377 1.387 . S
H1380 C1386 0.930 . S
H1381 C1390 0.930 . S
H1382 C1395 0.929 . S
H1383 C1393 0.929 . S
H1384 C1388 0.929 . S
H1385 C1394 0.929 . S
C1386 H1380 0.930 . S
C1386 C1387 1.367 . S
C1386 C1394 1.378 . S
C1387 C1386 1.367 . S
C1387 C1395 1.433 . S
C1388 H1384 0.929 . S
C1388 C1390 1.378 . S
C1388 C1392 1.350 . S
C1389 C1392 1.463 . S
C1389 C1394 1.350 . S
C1389 N1397 1.427 . S
C1390 H1381 0.930 . S
C1390 C1388 1.378 . S
C1390 C1391 1.367 . S
C1391 C1390 1.367 . S
C1391 C1393 1.433 . S
C1392 C1388 1.350 . S
C1392 C1389 1.463 . S
C1392 N1396 1.427 . S
C1393 H1383 0.929 . S
C1393 C1391 1.433 . S
C1393 N1396 1.384 . S
C1394 H1385 0.929 . S
C1394 C1386 1.378 . S
C1394 C1389 1.350 . S
C1395 H1382 0.929 . S
C1395 C1387 1.433 . S
C1395 N1397 1.384 . S
N1396 C1392 1.427 . S
N1396 C1393 1.384 . S
N1397 C1389 1.427 . S
N1397 C1395 1.384 . S
H1398 C1404 0.930 . S
H1399 C1408 0.930 . S
H1400 C1413 0.929 . S
H1401 C1411 0.929 . S
H1402 C1406 0.929 . S
H1403 C1412 0.929 . S
C1404 H1398 0.930 . S
C1404 C1405 1.367 . S
C1404 C1412 1.378 . S
C1405 C1404 1.367 . S
C1405 C1413 1.433 . S
C1406 H1402 0.929 . S
C1406 C1408 1.378 . S
C1406 C1410 1.350 . S
C1407 C1410 1.463 . S
C1407 C1412 1.350 . S
C1407 N1415 1.427 . S
C1408 H1399 0.930 . S
C1408 C1406 1.378 . S
C1408 C1409 1.367 . S
C1409 C1408 1.367 . S
C1409 C1411 1.433 . S
C1410 C1406 1.350 . S
C1410 C1407 1.463 . S
C1410 N1414 1.427 . S
C1411 H1401 0.929 . S
C1411 C1409 1.433 . S
C1411 N1414 1.384 . S
C1412 H1403 0.929 . S
C1412 C1404 1.378 . S
C1412 C1407 1.350 . S
C1413 H1400 0.929 . S
C1413 C1405 1.433 . S
C1413 N1415 1.384 . S
N1414 C1410 1.427 . S
N1414 C1411 1.384 . S
N1415 C1407 1.427 . S
N1415 C1413 1.384 . S
H1416 C1422 0.930 . S
H1417 C1426 0.930 . S
H1418 C1431 0.929 1_554 S
H1419 C1429 0.929 . S
H1420 C1424 0.929 . S
H1421 C1430 0.929 . S
C1422 H1416 0.930 . S
C1422 C1423 1.367 1_556 S
C1422 C1430 1.378 . S
C1423 C1422 1.367 1_554 S
C1423 C1431 1.433 1_554 S
C1424 H1420 0.929 . S
C1424 C1426 1.378 . S
C1424 C1428 1.350 . S
C1425 C1428 1.463 . S
C1425 C1430 1.350 . S
C1425 N1433 1.427 . S
C1426 H1417 0.930 . S
C1426 C1424 1.378 . S
C1426 C1427 1.367 . S
C1427 C1426 1.367 . S
C1427 C1429 1.433 . S
C1428 C1424 1.350 . S
C1428 C1425 1.463 . S
C1428 N1432 1.427 . S
C1429 H1419 0.929 . S
C1429 C1427 1.433 . S
C1429 N1432 1.384 . S
C1430 H1421 0.929 . S
C1430 C1422 1.378 . S
C1430 C1425 1.350 . S
C1431 H1418 0.929 1_556 S
C1431 C1423 1.433 1_556 S
C1431 N1433 1.384 . S
N1432 C1428 1.427 . S
N1432 C1429 1.384 . S
N1433 C1425 1.427 . S
N1433 C1431 1.384 . S
H1434 C1440 0.930 . S
H1435 C1444 0.930 . S
H1436 C1449 0.929 . S
H1437 C1447 0.929 1_556 S
H1438 C1442 0.929 . S
H1439 C1448 0.929 . S
C1440 H1434 0.930 . S
C1440 C1441 1.367 . S
C1440 C1448 1.378 . S
C1441 C1440 1.367 . S
C1441 C1449 1.433 . S
C1442 H1438 0.929 . S
C1442 C1444 1.378 . S
C1442 C1446 1.350 . S
C1443 C1446 1.463 . S
C1443 C1448 1.350 . S
C1443 N1451 1.427 . S
C1444 H1435 0.930 . S
C1444 C1442 1.378 . S
C1444 C1445 1.367 1_554 S
C1445 C1444 1.367 1_556 S
C1445 C1447 1.433 1_556 S
C1446 C1442 1.350 . S
C1446 C1443 1.463 . S
C1446 N1450 1.427 . S
C1447 H1437 0.929 1_554 S
C1447 C1445 1.433 1_554 S
C1447 N1450 1.384 . S
C1448 H1439 0.929 . S
C1448 C1440 1.378 . S
C1448 C1443 1.350 . S
C1449 H1436 0.929 . S
C1449 C1441 1.433 . S
C1449 N1451 1.384 . S
N1450 C1446 1.427 . S
N1450 C1447 1.384 . S
N1451 C1443 1.427 . S
N1451 C1449 1.384 . S
H1452 C1458 0.930 . S
H1453 C1462 0.930 . S
H1454 C1467 0.929 . S
H1455 C1465 0.929 . S
H1456 C1460 0.929 . S
H1457 C1466 0.929 . S
C1458 H1452 0.930 . S
C1458 C1459 1.367 . S
C1458 C1466 1.378 . S
C1459 C1458 1.367 . S
C1459 C1467 1.433 . S
C1460 H1456 0.929 . S
C1460 C1462 1.378 . S
C1460 C1464 1.350 . S
C1461 C1464 1.463 . S
C1461 C1466 1.350 . S
C1461 N1469 1.427 . S
C1462 H1453 0.930 . S
C1462 C1460 1.378 . S
C1462 C1463 1.367 . S
C1463 C1462 1.367 . S
C1463 C1465 1.433 . S
C1464 C1460 1.350 . S
C1464 C1461 1.463 . S
C1464 N1468 1.427 . S
C1465 H1455 0.929 . S
C1465 C1463 1.433 . S
C1465 N1468 1.384 . S
C1466 H1457 0.929 . S
C1466 C1458 1.378 . S
C1466 C1461 1.350 . S
C1467 H1454 0.929 . S
C1467 C1459 1.433 . S
C1467 N1469 1.384 . S
N1468 C1464 1.427 . S
N1468 C1465 1.384 . S
N1469 C1461 1.427 . S
N1469 C1467 1.384 . S
H1470 C1476 0.930 . S
H1471 C1480 0.930 . S
H1472 C1485 0.929 . S
H1473 C1483 0.929 . S
H1474 C1478 0.929 . S
H1475 C1484 0.929 . S
C1476 H1470 0.930 . S
C1476 C1477 1.367 . S
C1476 C1484 1.378 . S
C1477 C1476 1.367 . S
C1477 C1485 1.433 . S
C1478 H1474 0.929 . S
C1478 C1480 1.378 . S
C1478 C1482 1.350 . S
C1479 C1482 1.463 . S
C1479 C1484 1.350 . S
C1479 N1487 1.427 . S
C1480 H1471 0.930 . S
C1480 C1478 1.378 . S
C1480 C1481 1.367 . S
C1481 C1480 1.367 . S
C1481 C1483 1.433 . S
C1482 C1478 1.350 . S
C1482 C1479 1.463 . S
C1482 N1486 1.427 . S
C1483 H1473 0.929 . S
C1483 C1481 1.433 . S
C1483 N1486 1.384 . S
C1484 H1475 0.929 . S
C1484 C1476 1.378 . S
C1484 C1479 1.350 . S
C1485 H1472 0.929 . S
C1485 C1477 1.433 . S
C1485 N1487 1.384 . S
N1486 C1482 1.427 . S
N1486 C1483 1.384 . S
N1487 C1479 1.427 . S
N1487 C1485 1.384 . S
C1063 C821 1.722 . S
C1067 C57 1.721 . S
C1081 C137 1.730 . S
C1085 C909 1.722 . S
C1099 C988 1.721 . S
C1103 C225 1.725 . S
C1117 C548 1.720 . S
C1121 C321 1.725 . S
C1135 C636 1.731 . S
C1139 C409 1.733 . S
C1153 C733 1.721 . S
C1157 C497 1.725 . S
C1171 C557 1.542 . S
C1175 C49 1.541 . S
C1189 C145 1.542 . S
C1193 C645 1.538 . S
C1207 C724 1.543 . S
C1211 C233 1.540 . S
C1225 C313 1.537 . S
C1229 C812 1.544 . S
C1243 C900 1.540 . S
C1247 C401 1.543 . S
C1261 C489 1.544 . S
C1265 C997 1.537 . S
C1279 C841 0.470 . S
C1283 C20 0.453 . S
C1297 C929 0.461 . S
C1301 C117 0.453 . S
C1315 C1025 0.453 . S
C1319 C205 0.461 . S
C1333 C284 0.463 . S
C1337 C585 0.467 . S
C1351 C673 0.452 . S
C1355 C372 0.469 . S
C1369 C460 0.453 . S
C1373 C753 0.462 . S
C1387 C29 1.708 . S
C1391 C761 1.708 . S
C1405 C849 1.707 . S
C1409 C108 1.707 . S
C1423 C937 1.697 . S
C1427 C196 1.697 . S
C1441 C1017 1.694 . S
C1445 C293 1.694 . S
C1459 C577 1.700 . S
C1463 C381 1.700 . S
C1477 C665 1.691 . S
C1481 C469 1.691 . S
