# Generated by pormake.
# Topology snx, (6)-cn, num edge types: 1
# Building blocks:
#     Node 0, Type 0, BuildingBlock: OJICUG_clean_sbu_0, # of connection points: 6
#     Node 1, Type 0, BuildingBlock: OJICUG_clean_sbu_0, # of connection points: 6
#     Node 2, Type 0, BuildingBlock: OJICUG_clean_sbu_0, # of connection points: 6
#     Node 3, Type 0, BuildingBlock: OJICUG_clean_sbu_0, # of connection points: 6
#     Node 4, Type 0, BuildingBlock: OJICUG_clean_sbu_0, # of connection points: 6
#     Node 5, Type 0, BuildingBlock: OJICUG_clean_sbu_0, # of connection points: 6
#     Edge 6, Type (0, 0), BuildingBlock: KIFKEQ_clean_linker_1, # of connection points: 2
#     Edge 7, Type (0, 0), BuildingBlock: KIFKEQ_clean_linker_1, # of connection points: 2
#     Edge 8, Type (0, 0), BuildingBlock: KIFKEQ_clean_linker_1, # of connection points: 2
#     Edge 9, Type (0, 0), BuildingBlock: KIFKEQ_clean_linker_1, # of connection points: 2
#     Edge 10, Type (0, 0), BuildingBlock: KIFKEQ_clean_linker_1, # of connection points: 2
#     Edge 11, Type (0, 0), BuildingBlock: KIFKEQ_clean_linker_1, # of connection points: 2
#     Edge 12, Type (0, 0), BuildingBlock: KIFKEQ_clean_linker_1, # of connection points: 2
#     Edge 13, Type (0, 0), BuildingBlock: KIFKEQ_clean_linker_1, # of connection points: 2
#     Edge 14, Type (0, 0), BuildingBlock: KIFKEQ_clean_linker_1, # of connection points: 2
#     Edge 15, Type (0, 0), BuildingBlock: KIFKEQ_clean_linker_1, # of connection points: 2
#     Edge 16, Type (0, 0), BuildingBlock: KIFKEQ_clean_linker_1, # of connection points: 2
#     Edge 17, Type (0, 0), BuildingBlock: KIFKEQ_clean_linker_1, # of connection points: 2
#     Edge 18, Type (0, 0), BuildingBlock: KIFKEQ_clean_linker_1, # of connection points: 2
#     Edge 19, Type (0, 0), BuildingBlock: KIFKEQ_clean_linker_1, # of connection points: 2
#     Edge 20, Type (0, 0), BuildingBlock: KIFKEQ_clean_linker_1, # of connection points: 2
#     Edge 21, Type (0, 0), BuildingBlock: KIFKEQ_clean_linker_1, # of connection points: 2
#     Edge 22, Type (0, 0), BuildingBlock: KIFKEQ_clean_linker_1, # of connection points: 2
#     Edge 23, Type (0, 0), BuildingBlock: KIFKEQ_clean_linker_1, # of connection points: 2
# Relax obj value: 0.060
# Max RMSD: 0.112
# Mean RMSD: 0.112
data_MOF--net-snx--node1-OJICUG_clean_sbu_0--edge1-KIFKEQ_clean_linker_1
_symmetry_space_group_name_H-M    P1
_symmetry_Int_Tables_number       1
_symmetry_cell_setting            triclinic
loop_
_symmetry_equiv_pos_as_xyz
'x, y, z'
_cell_length_a     39.124574
_cell_length_b     39.116735
_cell_length_c     21.703613
_cell_angle_alpha  89.897473
_cell_angle_beta   90.173228
_cell_angle_gamma 119.92405
loop_
_atom_site_label
_atom_site_type_symbol
_atom_site_fract_x
_atom_site_fract_y
_atom_site_fract_z
_atom_type_partial_charge
Sc0 Sc 0.19833 0.4048 0.1639 0.0
Sc1 Sc 0.19585 0.40541 0.32659 0.0
Sc2 Sc 0.15393 0.31526 0.24623 0.0
O3 O 0.18273 0.37521 0.24556 0.0
C4 C 0.1117 0.3332 0.13484 0.0
C5 C 0.17178 0.45683 0.24183 0.0
C6 C 0.11046 0.33334 0.35509 0.0
C7 C 0.27384 0.4577 0.24756 0.0
C8 C 0.21437 0.33407 0.13593 0.0
C9 C 0.21415 0.33608 0.35798 0.0
O10 O 0.14043 0.36769 0.12429 0.0
O11 O 0.17582 0.44455 0.29412 0.0
O12 O 0.11265 0.31076 0.31527 0.0
O13 O 0.25746 0.44492 0.1954 0.0
O14 O 0.1912 0.31172 0.17744 0.0
O15 O 0.21742 0.36958 0.36875 0.0
O16 O 0.22031 0.36861 0.12595 0.0
O17 O 0.25528 0.44623 0.29828 0.0
O18 O 0.19293 0.31361 0.31467 0.0
O19 O 0.179 0.44524 0.19139 0.0
O20 O 0.11241 0.31111 0.17732 0.0
O21 O 0.13786 0.3686 0.36377 0.0
Sc22 Sc 0.83204 0.15482 0.74388 0.0
Sc23 Sc 0.78775 0.20067 0.66261 0.0
Sc24 Sc 0.78671 0.19928 0.82532 0.0
O25 O 0.80215 0.18495 0.74394 0.0
C26 C 0.77145 0.11254 0.85339 0.0
C27 C 0.77188 0.11421 0.63183 0.0
C28 C 0.71034 0.17531 0.74324 0.0
C29 C 0.87425 0.21562 0.63443 0.0
C30 C 0.87316 0.21483 0.85586 0.0
C31 C 0.81187 0.27688 0.74466 0.0
O32 O 0.79362 0.11287 0.81054 0.0
O33 O 0.76517 0.14254 0.62336 0.0
O34 O 0.72701 0.17867 0.79506 0.0
O35 O 0.8739 0.19325 0.67717 0.0
O36 O 0.84499 0.22173 0.86442 0.0
O37 O 0.80841 0.26028 0.69287 0.0
O38 O 0.87206 0.19109 0.81495 0.0
O39 O 0.84525 0.22083 0.62327 0.0
O40 O 0.80445 0.25842 0.7956 0.0
O41 O 0.79555 0.11501 0.67279 0.0
O42 O 0.7665 0.14165 0.86472 0.0
O43 O 0.72873 0.18289 0.69233 0.0
Sc44 Sc 0.67033 0.83301 0.24353 0.0
Sc45 Sc 0.58065 0.78983 0.16148 0.0
Sc46 Sc 0.58043 0.79021 0.32423 0.0
O47 O 0.61041 0.80432 0.24311 0.0
C48 C 0.65029 0.77354 0.35627 0.0
C49 C 0.65074 0.77211 0.13388 0.0
C50 C 0.52811 0.7132 0.24243 0.0
C51 C 0.65231 0.87518 0.13185 0.0
C52 C 0.65251 0.87678 0.35193 0.0
C53 C 0.52867 0.81518 0.24221 0.0
O54 O 0.67318 0.79671 0.31518 0.0
O55 O 0.61762 0.76925 0.12133 0.0
O56 O 0.53941 0.73098 0.29393 0.0
O57 O 0.67499 0.87306 0.17179 0.0
O58 O 0.61815 0.84809 0.36307 0.0
O59 O 0.53981 0.80819 0.19114 0.0
O60 O 0.67441 0.87575 0.30966 0.0
O61 O 0.61684 0.84797 0.12383 0.0
O62 O 0.54152 0.811 0.2939 0.0
O63 O 0.67253 0.79302 0.17799 0.0
O64 O 0.61553 0.76743 0.36443 0.0
O65 O 0.54094 0.7304 0.19093 0.0
Sc66 Sc 0.8303 0.67317 0.74622 0.0
Sc67 Sc 0.78314 0.58338 0.66497 0.0
Sc68 Sc 0.7881 0.5834 0.8276 0.0
O69 O 0.80049 0.61324 0.74626 0.0
C70 C 0.87412 0.65481 0.8549 0.0
C71 C 0.86993 0.65398 0.63366 0.0
C72 C 0.81066 0.53144 0.74159 0.0
C73 C 0.76791 0.6545 0.6378 0.0
C74 C 0.77125 0.65373 0.85854 0.0
C75 C 0.7089 0.53114 0.75107 0.0
O76 O 0.87153 0.67749 0.81561 0.0
O77 O 0.83976 0.6206 0.62214 0.0
O78 O 0.80658 0.54337 0.79406 0.0
O79 O 0.79323 0.67726 0.67689 0.0
O80 O 0.76817 0.62037 0.87009 0.0
O81 O 0.72485 0.54312 0.69859 0.0
O82 O 0.79178 0.67568 0.8143 0.0
O83 O 0.76002 0.61919 0.62937 0.0
O84 O 0.72792 0.54318 0.80141 0.0
O85 O 0.87137 0.67582 0.6781 0.0
O86 O 0.84682 0.61948 0.86336 0.0
O87 O 0.80357 0.54342 0.69121 0.0
Sc88 Sc 0.1509 0.83345 0.24846 0.0
Sc89 Sc 0.19526 0.78781 0.33043 0.0
Sc90 Sc 0.19678 0.78933 0.16765 0.0
O91 O 0.181 0.80351 0.24884 0.0
C92 C 0.11037 0.77374 0.1366 0.0
C93 C 0.10843 0.77194 0.35798 0.0
C94 C 0.1715 0.7117 0.24793 0.0
C95 C 0.21073 0.87413 0.36043 0.0
C96 C 0.2121 0.87604 0.13894 0.0
C97 C 0.27297 0.81355 0.25085 0.0
O98 O 0.11055 0.79644 0.17855 0.0
O99 O 0.13731 0.76646 0.36866 0.0
O100 O 0.17744 0.72962 0.19668 0.0
O101 O 0.18833 0.87418 0.31795 0.0
O102 O 0.2182 0.84748 0.12911 0.0
O103 O 0.25485 0.80708 0.30187 0.0
O104 O 0.18874 0.87505 0.18038 0.0
O105 O 0.21597 0.84508 0.37067 0.0
O106 O 0.25601 0.80884 0.19895 0.0
O107 O 0.1091 0.79503 0.31611 0.0
O108 O 0.1392 0.76802 0.12724 0.0
O109 O 0.17646 0.72882 0.29961 0.0
Sc110 Sc 0.31271 0.15463 0.74529 0.0
Sc111 Sc 0.40224 0.19919 0.82782 0.0
Sc112 Sc 0.40293 0.19854 0.66508 0.0
O113 O 0.37266 0.18412 0.74607 0.0
C114 C 0.33139 0.11248 0.63554 0.0
C115 C 0.33104 0.11276 0.85702 0.0
C116 C 0.4544 0.17361 0.74786 0.0
C117 C 0.3312 0.21503 0.85544 0.0
C118 C 0.33317 0.21582 0.63438 0.0
C119 C 0.45505 0.27561 0.74667 0.0
O120 O 0.30928 0.11276 0.67802 0.0
O121 O 0.36595 0.14098 0.86634 0.0
O122 O 0.44158 0.17746 0.69588 0.0
O123 O 0.30916 0.1927 0.81274 0.0
O124 O 0.36765 0.22127 0.62531 0.0
O125 O 0.44173 0.25878 0.79826 0.0
O126 O 0.31015 0.19252 0.6754 0.0
O127 O 0.36528 0.22 0.86665 0.0
O128 O 0.44418 0.25743 0.69553 0.0
O129 O 0.30857 0.11389 0.8156 0.0
O130 O 0.36555 0.14144 0.62483 0.0
O131 O 0.44323 0.18089 0.79868 0.0
H132 H 0.13766 0.47834 0.33246 0.0
H133 H 0.18268 0.50693 0.14669 0.0
H134 H 0.12781 0.53514 0.33291 0.0
H135 H 0.17466 0.56451 0.14804 0.0
H136 H 0.1438 0.65948 0.1515 0.0
H137 H 0.13407 0.5929 0.14891 0.0
H138 H 0.16863 0.60369 0.34052 0.0
H139 H 0.17655 0.66915 0.34372 0.0
C140 C 0.14526 0.49663 0.29161 0.0
C141 C 0.16132 0.48833 0.23978 0.0
C142 C 0.13983 0.52935 0.29195 0.0
C143 C 0.15091 0.55486 0.24083 0.0
C144 C 0.16527 0.5454 0.18801 0.0
C145 C 0.17014 0.5124 0.18735 0.0
C146 C 0.14874 0.64734 0.19327 0.0
C147 C 0.1613 0.66979 0.24765 0.0
C148 C 0.14337 0.60923 0.19173 0.0
C149 C 0.15096 0.59291 0.2443 0.0
C150 C 0.16191 0.61486 0.2993 0.0
C151 C 0.16675 0.65268 0.30105 0.0
H152 H 0.65614 0.14366 0.83646 0.0
H153 H 0.66963 0.18394 0.64784 0.0
H154 H 0.58942 0.13353 0.83771 0.0
H155 H 0.60392 0.17549 0.64986 0.0
H156 H 0.47789 0.14286 0.65452 0.0
H157 H 0.53509 0.13369 0.6534 0.0
H158 H 0.56093 0.17414 0.84209 0.0
H159 H 0.50306 0.18162 0.84396 0.0
C160 C 0.64482 0.15017 0.79517 0.0
C161 C 0.66839 0.16497 0.74226 0.0
C162 C 0.60661 0.14456 0.79597 0.0
C163 C 0.59129 0.15408 0.74412 0.0
C164 C 0.61435 0.16728 0.69042 0.0
C165 C 0.65229 0.17241 0.68938 0.0
C166 C 0.49547 0.1492 0.69604 0.0
C167 C 0.4861 0.16336 0.74911 0.0
C168 C 0.52842 0.14416 0.69532 0.0
C169 C 0.55305 0.15364 0.74739 0.0
C170 C 0.54251 0.16603 0.80131 0.0
C171 C 0.50934 0.17059 0.80227 0.0
H172 H 0.32908 0.48011 0.15608 0.0
H173 H 0.31295 0.50779 0.34262 0.0
H174 H 0.39541 0.53721 0.15545 0.0
H175 H 0.37819 0.56561 0.34111 0.0
H176 H 0.5037 0.66042 0.33802 0.0
H177 H 0.447 0.59385 0.33992 0.0
H178 H 0.42312 0.60588 0.14881 0.0
H179 H 0.48058 0.67136 0.14629 0.0
C180 C 0.33976 0.49827 0.19704 0.0
C181 C 0.31559 0.48958 0.24917 0.0
C182 C 0.37772 0.53115 0.1966 0.0
C183 C 0.39215 0.55643 0.24796 0.0
C184 C 0.36849 0.54667 0.30097 0.0
C185 C 0.33081 0.51352 0.30171 0.0
C186 C 0.48662 0.64855 0.29621 0.0
C187 C 0.49646 0.67134 0.24218 0.0
C188 C 0.45396 0.61045 0.29735 0.0
C189 C 0.43006 0.59449 0.24473 0.0
C190 C 0.441 0.61678 0.19004 0.0
C191 C 0.47393 0.65459 0.18868 0.0
H192 H 0.84376 0.50893 0.83289 0.0
H193 H 0.80092 0.48237 0.64545 0.0
H194 H 0.85357 0.45213 0.83315 0.0
H195 H 0.8091 0.42482 0.6465 0.0
H196 H 0.84143 0.33068 0.6504 0.0
H197 H 0.85059 0.39705 0.64886 0.0
H198 H 0.81218 0.38322 0.83842 0.0
H199 H 0.80462 0.31786 0.84065 0.0
C200 C 0.83664 0.4911 0.79161 0.0
C201 C 0.82117 0.49996 0.73938 0.0
C202 C 0.84206 0.45839 0.79186 0.0
C203 C 0.83166 0.43347 0.74015 0.0
C204 C 0.81793 0.44349 0.68695 0.0
C205 C 0.81299 0.47646 0.68644 0.0
C206 C 0.83552 0.34208 0.692 0.0
C207 C 0.82193 0.31877 0.74547 0.0
C208 C 0.84056 0.38007 0.69103 0.0
C209 C 0.83173 0.39547 0.74328 0.0
C210 C 0.81981 0.37272 0.7975 0.0
C211 C 0.8152 0.33497 0.79868 0.0
H212 H 0.5058 0.84589 0.33636 0.0
H213 H 0.47948 0.80725 0.14699 0.0
H214 H 0.44865 0.85512 0.33878 0.0
H215 H 0.42167 0.81481 0.15014 0.0
H216 H 0.32689 0.84558 0.15758 0.0
H217 H 0.39359 0.85572 0.15553 0.0
H218 H 0.37974 0.8135 0.34316 0.0
H219 H 0.31398 0.80504 0.34595 0.0
C220 C 0.48797 0.8396 0.29513 0.0
C221 C 0.49701 0.82546 0.24168 0.0
C222 C 0.45506 0.84467 0.29661 0.0
C223 C 0.43015 0.83528 0.24492 0.0
C224 C 0.44033 0.82288 0.19063 0.0
C225 C 0.47347 0.81828 0.18892 0.0
C226 C 0.33836 0.83903 0.19866 0.0
C227 C 0.31496 0.82413 0.25172 0.0
C228 C 0.37654 0.84464 0.1974 0.0
C229 C 0.39201 0.83499 0.2489 0.0
C230 C 0.36917 0.82178 0.30284 0.0
C231 C 0.33122 0.81666 0.30435 0.0
H232 H 0.65325 0.50866 0.66002 0.0
H233 H 0.67003 0.48177 0.84707 0.0
H234 H 0.587 0.45152 0.65965 0.0
H235 H 0.60466 0.42389 0.8459 0.0
H236 H 0.47869 0.32895 0.84147 0.0
H237 H 0.53533 0.39556 0.84351 0.0
H238 H 0.5606 0.38269 0.65388 0.0
H239 H 0.50337 0.31707 0.65116 0.0
C240 C 0.64271 0.49068 0.70119 0.0
C241 C 0.66708 0.49952 0.75333 0.0
C242 C 0.60479 0.45779 0.70089 0.0
C243 C 0.59057 0.43268 0.75242 0.0
C244 C 0.61431 0.4427 0.80558 0.0
C245 C 0.65201 0.47586 0.80616 0.0
C246 C 0.49605 0.3406 0.79998 0.0
C247 C 0.48668 0.31751 0.74633 0.0
C248 C 0.52866 0.37873 0.80123 0.0
C249 C 0.55286 0.39448 0.74907 0.0
C250 C 0.54243 0.37191 0.69472 0.0
C251 C 0.50964 0.33402 0.69327 0.0
H252 H 0.25479 0.19745 0.86702 0.0
H253 H 0.37262 0.27768 0.93328 0.0
H254 H 0.22855 0.22808 0.93526 0.0
H255 H 0.34599 0.30847 0.00152 0.0
H256 H 0.27789 0.37521 0.05965 0.0
H257 H 0.30805 0.34807 0.99106 0.0
H258 H 0.22511 0.23058 0.05376 0.0
H259 H 0.19512 0.25729 0.1223 0.0
C260 C 0.27515 0.22179 0.89579 0.0
C261 C 0.31579 0.235 0.89495 0.0
C262 C 0.26005 0.23915 0.93505 0.0
C263 C 0.28528 0.2704 0.97373 0.0
C264 C 0.32602 0.28445 0.9719 0.0
C265 C 0.34114 0.26669 0.93314 0.0
C266 C 0.26621 0.34362 0.05892 0.0
C267 C 0.23402 0.3184 0.09623 0.0
C268 C 0.28359 0.32819 0.01996 0.0
C269 C 0.26864 0.2873 0.01703 0.0
C270 C 0.23687 0.2622 0.0548 0.0
C271 C 0.21988 0.27758 0.09425 0.0
H272 H 0.89464 0.27677 0.55359 0.0
H273 H 0.93357 0.19852 0.62506 0.0
H274 H 0.95178 0.30671 0.48492 0.0
H275 H 0.9902 0.22836 0.55653 0.0
H276 H 0.05468 0.25613 0.3716 0.0
H277 H -0.00246 0.22937 0.43926 0.0
H278 H 0.02826 0.34724 0.49475 0.0
H279 H 0.0858 0.37437 0.42704 0.0
C280 C 0.91536 0.26604 0.5548 0.0
C281 C 0.90948 0.23517 0.59463 0.0
C282 C 0.94807 0.28329 0.51575 0.0
C283 C 0.97508 0.26957 0.51531 0.0
C284 C 0.96949 0.23912 0.55556 0.0
C285 C 0.93718 0.22224 0.59503 0.0
C286 C 0.04923 0.27644 0.39788 0.0
C287 C 0.0749 0.31739 0.39416 0.0
C288 C 0.01663 0.26107 0.43683 0.0
C289 C 0.00876 0.28629 0.47233 0.0
C290 C 0.03372 0.32724 0.4676 0.0
C291 C 0.06669 0.34267 0.42915 0.0
H292 H 0.71035 0.09207 0.93405 0.0
H293 H 0.78799 0.05277 0.86223 0.0
H294 H 0.67992 0.03441 0.00194 0.0
H295 H 0.75766 -0.00436 0.92997 0.0
H296 H 0.72959 0.93037 0.11469 0.0
H297 H 0.75659 0.98763 0.04706 0.0
H298 H 0.6389 0.95787 0.99151 0.0
H299 H 0.6115 0.90016 0.05926 0.0
C300 C 0.72085 0.07117 0.93261 0.0
C301 C 0.7517 0.0771 0.89291 0.0
C302 C 0.7033 0.03815 0.97119 0.0
C303 C 0.71669 0.01086 0.97129 0.0
C304 C 0.74713 0.01652 0.93118 0.0
C305 C 0.7643 0.04915 0.89218 0.0
C306 C 0.70935 0.93602 0.08835 0.0
C307 C 0.66838 0.91059 0.09217 0.0
C308 C 0.72487 0.9687 0.04942 0.0
C309 C 0.69978 0.97693 0.01398 0.0
C310 C 0.6588 0.95215 0.01863 0.0
C311 C 0.64321 0.91907 0.05709 0.0
H312 H 0.60855 0.71113 0.4347 0.0
H313 H 0.72672 0.79173 0.3709 0.0
H314 H 0.63502 0.6807 0.50459 0.0
H315 H 0.75273 0.76145 0.4405 0.0
H316 H 0.78743 0.7315 0.62472 0.0
H317 H 0.75685 0.7585 0.55757 0.0
H318 H 0.67231 0.64115 0.49626 0.0
H319 H 0.70294 0.61371 0.56361 0.0
C320 C 0.64006 0.72231 0.43548 0.0
C321 C 0.66553 0.75394 0.39737 0.0
C322 C 0.65511 0.70478 0.47521 0.0
C323 C 0.69588 0.71898 0.47809 0.0
C324 C 0.72121 0.75027 0.43965 0.0
C325 C 0.70622 0.76743 0.39954 0.0
C326 C 0.76219 0.7113 0.59732 0.0
C327 C 0.74781 0.67043 0.59925 0.0
C328 C 0.74482 0.72685 0.55867 0.0
C329 C 0.71245 0.70189 0.52155 0.0
C330 C 0.69719 0.66096 0.52466 0.0
C331 C 0.71487 0.64535 0.56291 0.0
H332 H 0.89864 0.61409 0.9287 0.0
H333 H 0.93079 0.73195 0.86909 0.0
H334 H 0.95643 0.64157 -0.00355 0.0
H335 H 0.98812 0.75902 0.9367 0.0
H336 H 0.05178 0.79168 0.12328 0.0
H337 H -0.00457 0.76152 0.05382 0.0
H338 H 0.03298 0.68146 0.9879 0.0
H339 H 0.08987 0.71173 0.05754 0.0
C340 C 0.91803 0.64576 0.92984 0.0
C341 C 0.90997 0.67083 0.89375 0.0
C342 C 0.95116 0.6614 0.96833 0.0
C343 C 0.97644 0.70236 0.97196 0.0
C344 C 0.96878 0.72734 0.93519 0.0
C345 C 0.93604 0.71176 0.89627 0.0
C346 C 0.04807 0.76755 0.09427 0.0
C347 C 0.07544 0.75421 0.09582 0.0
C348 C 0.0159 0.75047 0.05426 0.0
C349 C 0.0101 0.7194 0.01536 0.0
C350 C 0.03683 0.70535 0.01765 0.0
C351 C 0.06941 0.7228 0.05725 0.0
H352 H 0.27292 0.03768 0.66208 0.0
H353 H 0.35567 0.10749 0.51972 0.0
H354 H 0.24622 0.97982 0.59514 0.0
H355 H 0.32852 0.04957 0.45273 0.0
H356 H 0.22741 0.94919 0.33449 0.0
H357 H 0.25928 0.0069 0.40163 0.0
H358 H 0.27156 0.93628 0.54353 0.0
H359 H 0.24005 0.87848 0.47633 0.0
C360 C 0.28545 0.04065 0.6166 0.0
C361 C 0.31631 0.07715 0.59606 0.0
C362 C 0.27032 0.00751 0.57855 0.0
C363 C 0.28535 0.01042 0.51894 0.0
C364 C 0.31636 0.04674 0.49847 0.0
C365 C 0.33196 0.07975 0.53689 0.0
C366 C 0.23702 0.94598 0.37992 0.0
C367 C 0.23113 0.90929 0.40024 0.0
C368 C 0.25545 0.97903 0.41808 0.0
C369 C 0.26776 0.97586 0.47757 0.0
C370 C 0.26211 0.93932 0.49788 0.0
C371 C 0.24427 0.90638 0.45934 0.0
H372 H 0.70788 0.75368 0.16131 0.0
H373 H 0.62633 0.74292 0.01759 0.0
H374 H 0.73405 0.72198 0.09472 0.0
H375 H 0.65284 0.71142 0.95099 0.0
H376 H 0.7523 0.7106 0.83249 0.0
H377 H 0.72015 0.73595 0.89965 0.0
H378 H 0.71113 0.65497 0.04254 0.0
H379 H 0.74312 0.62925 0.97528 0.0
C380 C 0.69543 0.74443 0.11564 0.0
C381 C 0.66513 0.751 0.09465 0.0
C382 C 0.71026 0.72605 0.07772 0.0
C383 C 0.6955 0.71435 0.01774 0.0
C384 C 0.66489 0.72041 -0.00305 0.0
C385 C 0.64963 0.73826 0.03519 0.0
C386 C 0.74335 0.69806 0.87814 0.0
C387 C 0.75041 0.668 0.89863 0.0
C388 C 0.7247 0.71241 0.91637 0.0
C389 C 0.71319 0.69741 0.97621 0.0
C390 C 0.71993 0.66717 -0.00332 0.0
C391 C 0.73807 0.65237 0.95808 0.0
H392 H 0.94601 0.70924 0.66058 0.0
H393 H 0.87278 0.63156 0.51524 0.0
H394 H 0.00331 0.73484 0.59293 0.0
H395 H 0.93026 0.65765 0.44742 0.0
H396 H 0.03405 0.7579 0.33229 0.0
H397 H 0.976 0.72646 0.39866 0.0
H398 H 0.04416 0.70836 0.53832 0.0
H399 H 0.10223 0.73943 0.47195 0.0
C400 C 0.94214 0.69759 0.61425 0.0
C401 C 0.90483 0.66843 0.5932 0.0
C402 C 0.97499 0.71208 0.57572 0.0
C403 C 0.97113 0.6982 0.51506 0.0
C404 C 0.93393 0.66895 0.49396 0.0
C405 C 0.90114 0.65393 0.53286 0.0
C406 C 0.03663 0.74705 0.37702 0.0
C407 C 0.0728 0.7513 0.39695 0.0
C408 C 0.00335 0.72885 0.41477 0.0
C409 C 0.00571 0.71511 0.47355 0.0
C410 C 0.04168 0.71895 0.4933 0.0
C411 C 0.07481 0.73657 0.45518 0.0
H412 H 0.27544 0.89831 0.06209 0.0
H413 H 0.19339 0.93418 0.12562 0.0
H414 H 0.30586 0.95578 0.99375 0.0
H415 H 0.22366 0.99111 0.05732 0.0
H416 H 0.25405 0.0558 0.87165 0.0
H417 H 0.22721 -0.00097 0.94031 0.0
H418 H 0.34469 0.03241 0.00232 0.0
H419 H 0.37192 0.08972 0.93361 0.0
C420 C 0.26396 0.91842 0.06164 0.0
C421 C 0.23187 0.91153 0.0992 0.0
C422 C 0.28151 0.95137 0.02277 0.0
C423 C 0.26692 0.97767 0.02007 0.0
C424 C 0.23521 0.97105 0.05805 0.0
C425 C 0.21804 0.93852 0.09742 0.0
C426 C 0.2743 0.05107 0.89961 0.0
C427 C 0.31517 0.07745 0.89724 0.0
C428 C 0.25885 0.01864 0.93919 0.0
C429 C 0.28387 0.0115 0.97681 0.0
C430 C 0.32479 0.03722 0.9736 0.0
C431 C 0.3403 0.07008 0.93452 0.0
H432 H 0.36027 0.2485 0.52077 0.0
H433 H 0.27362 0.23111 0.65881 0.0
H434 H 0.3344 0.28078 0.45393 0.0
H435 H 0.24819 0.26375 0.59211 0.0
H436 H 0.24069 0.35918 0.47592 0.0
H437 H 0.2723 0.33296 0.5437 0.0
H438 H 0.26727 0.25542 0.39833 0.0
H439 H 0.23534 0.28112 0.33079 0.0
C440 C 0.33597 0.25186 0.53708 0.0
C441 C 0.31886 0.23706 0.59496 0.0
C442 C 0.32111 0.27019 0.49872 0.0
C443 C 0.28934 0.27471 0.51795 0.0
C444 C 0.27291 0.26088 0.5764 0.0
C445 C 0.2873 0.24197 0.61433 0.0
C446 C 0.2466 0.33676 0.4583 0.0
C447 C 0.23534 0.32209 0.3981 0.0
C448 C 0.2645 0.32166 0.49717 0.0
C449 C 0.27217 0.29219 0.47616 0.0
C450 C 0.26193 0.27833 0.4155 0.0
C451 C 0.24344 0.29288 0.37703 0.0
H452 H 0.92948 0.19399 0.87217 0.0
H453 H 0.89692 0.27948 0.93081 0.0
H454 H 0.98665 0.22413 0.94 0.0
H455 H 0.95474 0.30982 -0.0012 0.0
H456 H 0.08967 0.3739 0.056 0.0
H457 H 0.03155 0.34673 0.98878 0.0
H458 H -0.0046 0.22983 0.05678 0.0
H459 H 0.05295 0.2566 0.1239 0.0
C460 C 0.93458 0.21934 0.89927 0.0
C461 C 0.90848 0.23423 0.89614 0.0
C462 C 0.96726 0.23645 0.93838 0.0
C463 C 0.97497 0.26915 0.97481 0.0
C464 C 0.94948 0.28469 0.97096 0.0
C465 C 0.91634 0.26719 0.93233 0.0
C466 C 0.06926 0.34242 0.0567 0.0
C467 C 0.07609 0.31743 0.09518 0.0
C468 C 0.03592 0.32696 0.01852 0.0
C469 C 0.00917 0.2862 0.01744 0.0
C470 C 0.01578 0.26133 0.05628 0.0
C471 C 0.0487 0.27676 0.09493 0.0
H472 H 0.72911 0.93572 0.36183 0.0
H473 H 0.61214 0.89897 0.43056 0.0
H474 H 0.7562 0.99315 0.42903 0.0
H475 H 0.63963 0.95694 0.49782 0.0
H476 H 0.7072 0.09111 0.55703 0.0
H477 H 0.67668 0.03379 0.48831 0.0
H478 H 0.76218 0.00113 0.54611 0.0
H479 H 0.79249 0.05783 0.6147 0.0
C480 C 0.70909 0.93997 0.39093 0.0
C481 C 0.66843 0.91257 0.39098 0.0
C482 C 0.7247 0.9728 0.42964 0.0
C483 C 0.70002 0.97931 0.46879 0.0
C484 C 0.65925 0.95263 0.46785 0.0
C485 C 0.64361 0.91938 0.42962 0.0
C486 C 0.7194 0.07163 0.55513 0.0
C487 C 0.75235 0.07913 0.59127 0.0
C488 C 0.70181 0.03878 0.51607 0.0
C489 C 0.71726 0.01325 0.51174 0.0
C490 C 0.74995 0.02059 0.54811 0.0
C491 C 0.76714 0.05298 0.58766 0.0
loop_
_geom_bond_atom_site_label_1
_geom_bond_atom_site_label_2
_geom_bond_distance
_geom_bond_site_symmetry_2
_ccdc_geom_bond_type
Sc0 O3 2.025 . S
Sc0 O10 2.105 . S
Sc0 O13 2.105 . S
Sc0 O16 2.105 . S
Sc0 O19 2.105 . S
Sc1 O3 2.025 . S
Sc1 O11 2.105 . S
Sc1 O15 2.105 . S
Sc1 O17 2.105 . S
Sc1 O21 2.105 . S
Sc2 O3 2.025 . S
Sc2 O12 2.105 . S
Sc2 O14 2.105 . S
Sc2 O18 2.105 . S
Sc2 O20 2.105 . S
O3 Sc0 2.025 . S
O3 Sc1 2.025 . S
O3 Sc2 2.025 . S
C4 O10 1.268 . S
C4 O20 1.268 . S
C5 O11 1.268 . S
C5 O19 1.268 . S
C6 O12 1.268 . S
C6 O21 1.268 . S
C7 O13 1.268 . S
C7 O17 1.268 . S
C8 O14 1.268 . S
C8 O16 1.268 . S
C9 O15 1.268 . S
C9 O18 1.268 . S
O10 Sc0 2.105 . S
O10 C4 1.268 . S
O11 Sc1 2.105 . S
O11 C5 1.268 . S
O12 Sc2 2.105 . S
O12 C6 1.268 . S
O13 Sc0 2.105 . S
O13 C7 1.268 . S
O14 Sc2 2.105 . S
O14 C8 1.268 . S
O15 Sc1 2.105 . S
O15 C9 1.268 . S
O16 Sc0 2.105 . S
O16 C8 1.268 . S
O17 Sc1 2.105 . S
O17 C7 1.268 . S
O18 Sc2 2.105 . S
O18 C9 1.268 . S
O19 Sc0 2.105 . S
O19 C5 1.268 . S
O20 Sc2 2.105 . S
O20 C4 1.268 . S
O21 Sc1 2.105 . S
O21 C6 1.268 . S
Sc22 O25 2.025 . S
Sc22 O32 2.105 . S
Sc22 O35 2.105 . S
Sc22 O38 2.105 . S
Sc22 O41 2.105 . S
Sc23 O25 2.025 . S
Sc23 O33 2.105 . S
Sc23 O37 2.105 . S
Sc23 O39 2.105 . S
Sc23 O43 2.105 . S
Sc24 O25 2.025 . S
Sc24 O34 2.105 . S
Sc24 O36 2.105 . S
Sc24 O40 2.105 . S
Sc24 O42 2.105 . S
O25 Sc22 2.025 . S
O25 Sc23 2.025 . S
O25 Sc24 2.025 . S
C26 O32 1.268 . S
C26 O42 1.268 . S
C27 O33 1.268 . S
C27 O41 1.268 . S
C28 O34 1.268 . S
C28 O43 1.268 . S
C29 O35 1.268 . S
C29 O39 1.268 . S
C30 O36 1.268 . S
C30 O38 1.268 . S
C31 O37 1.268 . S
C31 O40 1.268 . S
O32 Sc22 2.105 . S
O32 C26 1.268 . S
O33 Sc23 2.105 . S
O33 C27 1.268 . S
O34 Sc24 2.105 . S
O34 C28 1.268 . S
O35 Sc22 2.105 . S
O35 C29 1.268 . S
O36 Sc24 2.105 . S
O36 C30 1.268 . S
O37 Sc23 2.105 . S
O37 C31 1.268 . S
O38 Sc22 2.105 . S
O38 C30 1.268 . S
O39 Sc23 2.105 . S
O39 C29 1.268 . S
O40 Sc24 2.105 . S
O40 C31 1.268 . S
O41 Sc22 2.105 . S
O41 C27 1.268 . S
O42 Sc24 2.105 . S
O42 C26 1.268 . S
O43 Sc23 2.105 . S
O43 C28 1.268 . S
Sc44 O47 2.025 . S
Sc44 O54 2.105 . S
Sc44 O57 2.105 . S
Sc44 O60 2.105 . S
Sc44 O63 2.105 . S
Sc45 O47 2.025 . S
Sc45 O55 2.105 . S
Sc45 O59 2.105 . S
Sc45 O61 2.105 . S
Sc45 O65 2.105 . S
Sc46 O47 2.025 . S
Sc46 O56 2.105 . S
Sc46 O58 2.105 . S
Sc46 O62 2.105 . S
Sc46 O64 2.105 . S
O47 Sc44 2.025 . S
O47 Sc45 2.025 . S
O47 Sc46 2.025 . S
C48 O54 1.268 . S
C48 O64 1.268 . S
C49 O55 1.268 . S
C49 O63 1.268 . S
C50 O56 1.268 . S
C50 O65 1.268 . S
C51 O57 1.268 . S
C51 O61 1.268 . S
C52 O58 1.268 . S
C52 O60 1.268 . S
C53 O59 1.268 . S
C53 O62 1.268 . S
O54 Sc44 2.105 . S
O54 C48 1.268 . S
O55 Sc45 2.105 . S
O55 C49 1.268 . S
O56 Sc46 2.105 . S
O56 C50 1.268 . S
O57 Sc44 2.105 . S
O57 C51 1.268 . S
O58 Sc46 2.105 . S
O58 C52 1.268 . S
O59 Sc45 2.105 . S
O59 C53 1.268 . S
O60 Sc44 2.105 . S
O60 C52 1.268 . S
O61 Sc45 2.105 . S
O61 C51 1.268 . S
O62 Sc46 2.105 . S
O62 C53 1.268 . S
O63 Sc44 2.105 . S
O63 C49 1.268 . S
O64 Sc46 2.105 . S
O64 C48 1.268 . S
O65 Sc45 2.105 . S
O65 C50 1.268 . S
Sc66 O69 2.025 . S
Sc66 O76 2.105 . S
Sc66 O79 2.105 . S
Sc66 O82 2.105 . S
Sc66 O85 2.105 . S
Sc67 O69 2.025 . S
Sc67 O77 2.105 . S
Sc67 O81 2.105 . S
Sc67 O83 2.105 . S
Sc67 O87 2.105 . S
Sc68 O69 2.025 . S
Sc68 O78 2.105 . S
Sc68 O80 2.105 . S
Sc68 O84 2.105 . S
Sc68 O86 2.105 . S
O69 Sc66 2.025 . S
O69 Sc67 2.025 . S
O69 Sc68 2.025 . S
C70 O76 1.268 . S
C70 O86 1.268 . S
C71 O77 1.268 . S
C71 O85 1.268 . S
C72 O78 1.268 . S
C72 O87 1.268 . S
C73 O79 1.268 . S
C73 O83 1.268 . S
C74 O80 1.268 . S
C74 O82 1.268 . S
C75 O81 1.268 . S
C75 O84 1.268 . S
O76 Sc66 2.105 . S
O76 C70 1.268 . S
O77 Sc67 2.105 . S
O77 C71 1.268 . S
O78 Sc68 2.105 . S
O78 C72 1.268 . S
O79 Sc66 2.105 . S
O79 C73 1.268 . S
O80 Sc68 2.105 . S
O80 C74 1.268 . S
O81 Sc67 2.105 . S
O81 C75 1.268 . S
O82 Sc66 2.105 . S
O82 C74 1.268 . S
O83 Sc67 2.105 . S
O83 C73 1.268 . S
O84 Sc68 2.105 . S
O84 C75 1.268 . S
O85 Sc66 2.105 . S
O85 C71 1.268 . S
O86 Sc68 2.105 . S
O86 C70 1.268 . S
O87 Sc67 2.105 . S
O87 C72 1.268 . S
Sc88 O91 2.025 . S
Sc88 O98 2.105 . S
Sc88 O101 2.105 . S
Sc88 O104 2.105 . S
Sc88 O107 2.105 . S
Sc89 O91 2.025 . S
Sc89 O99 2.105 . S
Sc89 O103 2.105 . S
Sc89 O105 2.105 . S
Sc89 O109 2.105 . S
Sc90 O91 2.025 . S
Sc90 O100 2.105 . S
Sc90 O102 2.105 . S
Sc90 O106 2.105 . S
Sc90 O108 2.105 . S
O91 Sc88 2.025 . S
O91 Sc89 2.025 . S
O91 Sc90 2.025 . S
C92 O98 1.268 . S
C92 O108 1.268 . S
C93 O99 1.268 . S
C93 O107 1.268 . S
C94 O100 1.268 . S
C94 O109 1.268 . S
C95 O101 1.268 . S
C95 O105 1.268 . S
C96 O102 1.268 . S
C96 O104 1.268 . S
C97 O103 1.268 . S
C97 O106 1.268 . S
O98 Sc88 2.105 . S
O98 C92 1.268 . S
O99 Sc89 2.105 . S
O99 C93 1.268 . S
O100 Sc90 2.105 . S
O100 C94 1.268 . S
O101 Sc88 2.105 . S
O101 C95 1.268 . S
O102 Sc90 2.105 . S
O102 C96 1.268 . S
O103 Sc89 2.105 . S
O103 C97 1.268 . S
O104 Sc88 2.105 . S
O104 C96 1.268 . S
O105 Sc89 2.105 . S
O105 C95 1.268 . S
O106 Sc90 2.105 . S
O106 C97 1.268 . S
O107 Sc88 2.105 . S
O107 C93 1.268 . S
O108 Sc90 2.105 . S
O108 C92 1.268 . S
O109 Sc89 2.105 . S
O109 C94 1.268 . S
Sc110 O113 2.025 . S
Sc110 O120 2.105 . S
Sc110 O123 2.105 . S
Sc110 O126 2.105 . S
Sc110 O129 2.105 . S
Sc111 O113 2.025 . S
Sc111 O121 2.105 . S
Sc111 O125 2.105 . S
Sc111 O127 2.105 . S
Sc111 O131 2.105 . S
Sc112 O113 2.025 . S
Sc112 O122 2.105 . S
Sc112 O124 2.105 . S
Sc112 O128 2.105 . S
Sc112 O130 2.105 . S
O113 Sc110 2.025 . S
O113 Sc111 2.025 . S
O113 Sc112 2.025 . S
C114 O120 1.268 . S
C114 O130 1.268 . S
C115 O121 1.268 . S
C115 O129 1.268 . S
C116 O122 1.268 . S
C116 O131 1.268 . S
C117 O123 1.268 . S
C117 O127 1.268 . S
C118 O124 1.268 . S
C118 O126 1.268 . S
C119 O125 1.268 . S
C119 O128 1.268 . S
O120 Sc110 2.105 . S
O120 C114 1.268 . S
O121 Sc111 2.105 . S
O121 C115 1.268 . S
O122 Sc112 2.105 . S
O122 C116 1.268 . S
O123 Sc110 2.105 . S
O123 C117 1.268 . S
O124 Sc112 2.105 . S
O124 C118 1.268 . S
O125 Sc111 2.105 . S
O125 C119 1.268 . S
O126 Sc110 2.105 . S
O126 C118 1.268 . S
O127 Sc111 2.105 . S
O127 C117 1.268 . S
O128 Sc112 2.105 . S
O128 C119 1.268 . S
O129 Sc110 2.105 . S
O129 C115 1.268 . S
O130 Sc112 2.105 . S
O130 C114 1.268 . S
O131 Sc111 2.105 . S
O131 C116 1.268 . S
H132 C140 0.950 . S
H133 C145 0.950 . S
H134 C142 0.950 . S
H135 C144 0.950 . S
H136 C146 0.950 . S
H137 C148 0.950 . S
H138 C150 0.950 . S
H139 C151 0.950 . S
C140 H132 0.950 . S
C140 C141 1.386 . S
C140 C142 1.391 . S
C141 C140 1.386 . S
C141 C145 1.393 . S
C142 H134 0.950 . S
C142 C140 1.391 . S
C142 C143 1.400 . S
C143 C142 1.400 . S
C143 C144 1.398 . S
C143 C149 1.491 . S
C144 H135 0.950 . S
C144 C143 1.398 . S
C144 C145 1.391 . S
C145 H133 0.950 . S
C145 C141 1.393 . S
C145 C144 1.391 . S
C146 H136 0.950 . S
C146 C147 1.386 . S
C146 C148 1.391 . S
C147 C146 1.386 . S
C147 C151 1.393 . S
C148 H137 0.950 . S
C148 C146 1.391 . S
C148 C149 1.400 . S
C149 C143 1.491 . S
C149 C148 1.400 . S
C149 C150 1.398 . S
C150 H138 0.950 . S
C150 C149 1.398 . S
C150 C151 1.391 . S
C151 H139 0.950 . S
C151 C147 1.393 . S
C151 C150 1.391 . S
H152 C160 0.950 . S
H153 C165 0.950 . S
H154 C162 0.950 . S
H155 C164 0.950 . S
H156 C166 0.950 . S
H157 C168 0.950 . S
H158 C170 0.950 . S
H159 C171 0.950 . S
C160 H152 0.950 . S
C160 C161 1.386 . S
C160 C162 1.391 . S
C161 C160 1.386 . S
C161 C165 1.393 . S
C162 H154 0.950 . S
C162 C160 1.391 . S
C162 C163 1.400 . S
C163 C162 1.400 . S
C163 C164 1.398 . S
C163 C169 1.491 . S
C164 H155 0.950 . S
C164 C163 1.398 . S
C164 C165 1.391 . S
C165 H153 0.950 . S
C165 C161 1.393 . S
C165 C164 1.391 . S
C166 H156 0.950 . S
C166 C167 1.386 . S
C166 C168 1.391 . S
C167 C166 1.386 . S
C167 C171 1.393 . S
C168 H157 0.950 . S
C168 C166 1.391 . S
C168 C169 1.400 . S
C169 C163 1.491 . S
C169 C168 1.400 . S
C169 C170 1.398 . S
C170 H158 0.950 . S
C170 C169 1.398 . S
C170 C171 1.391 . S
C171 H159 0.950 . S
C171 C167 1.393 . S
C171 C170 1.391 . S
H172 C180 0.950 . S
H173 C185 0.950 . S
H174 C182 0.950 . S
H175 C184 0.950 . S
H176 C186 0.950 . S
H177 C188 0.950 . S
H178 C190 0.950 . S
H179 C191 0.950 . S
C180 H172 0.950 . S
C180 C181 1.386 . S
C180 C182 1.391 . S
C181 C180 1.386 . S
C181 C185 1.393 . S
C182 H174 0.950 . S
C182 C180 1.391 . S
C182 C183 1.400 . S
C183 C182 1.400 . S
C183 C184 1.398 . S
C183 C189 1.491 . S
C184 H175 0.950 . S
C184 C183 1.398 . S
C184 C185 1.391 . S
C185 H173 0.950 . S
C185 C181 1.393 . S
C185 C184 1.391 . S
C186 H176 0.950 . S
C186 C187 1.386 . S
C186 C188 1.391 . S
C187 C186 1.386 . S
C187 C191 1.393 . S
C188 H177 0.950 . S
C188 C186 1.391 . S
C188 C189 1.400 . S
C189 C183 1.491 . S
C189 C188 1.400 . S
C189 C190 1.398 . S
C190 H178 0.950 . S
C190 C189 1.398 . S
C190 C191 1.391 . S
C191 H179 0.950 . S
C191 C187 1.393 . S
C191 C190 1.391 . S
H192 C200 0.950 . S
H193 C205 0.950 . S
H194 C202 0.950 . S
H195 C204 0.950 . S
H196 C206 0.950 . S
H197 C208 0.950 . S
H198 C210 0.950 . S
H199 C211 0.950 . S
C200 H192 0.950 . S
C200 C201 1.386 . S
C200 C202 1.391 . S
C201 C200 1.386 . S
C201 C205 1.393 . S
C202 H194 0.950 . S
C202 C200 1.391 . S
C202 C203 1.400 . S
C203 C202 1.400 . S
C203 C204 1.398 . S
C203 C209 1.491 . S
C204 H195 0.950 . S
C204 C203 1.398 . S
C204 C205 1.391 . S
C205 H193 0.950 . S
C205 C201 1.393 . S
C205 C204 1.391 . S
C206 H196 0.950 . S
C206 C207 1.386 . S
C206 C208 1.391 . S
C207 C206 1.386 . S
C207 C211 1.393 . S
C208 H197 0.950 . S
C208 C206 1.391 . S
C208 C209 1.400 . S
C209 C203 1.491 . S
C209 C208 1.400 . S
C209 C210 1.398 . S
C210 H198 0.950 . S
C210 C209 1.398 . S
C210 C211 1.391 . S
C211 H199 0.950 . S
C211 C207 1.393 . S
C211 C210 1.391 . S
H212 C220 0.950 . S
H213 C225 0.950 . S
H214 C222 0.950 . S
H215 C224 0.950 . S
H216 C226 0.950 . S
H217 C228 0.950 . S
H218 C230 0.950 . S
H219 C231 0.950 . S
C220 H212 0.950 . S
C220 C221 1.386 . S
C220 C222 1.391 . S
C221 C220 1.386 . S
C221 C225 1.393 . S
C222 H214 0.950 . S
C222 C220 1.391 . S
C222 C223 1.400 . S
C223 C222 1.400 . S
C223 C224 1.398 . S
C223 C229 1.491 . S
C224 H215 0.950 . S
C224 C223 1.398 . S
C224 C225 1.391 . S
C225 H213 0.950 . S
C225 C221 1.393 . S
C225 C224 1.391 . S
C226 H216 0.950 . S
C226 C227 1.386 . S
C226 C228 1.391 . S
C227 C226 1.386 . S
C227 C231 1.393 . S
C228 H217 0.950 . S
C228 C226 1.391 . S
C228 C229 1.400 . S
C229 C223 1.491 . S
C229 C228 1.400 . S
C229 C230 1.398 . S
C230 H218 0.950 . S
C230 C229 1.398 . S
C230 C231 1.391 . S
C231 H219 0.950 . S
C231 C227 1.393 . S
C231 C230 1.391 . S
H232 C240 0.950 . S
H233 C245 0.950 . S
H234 C242 0.950 . S
H235 C244 0.950 . S
H236 C246 0.950 . S
H237 C248 0.950 . S
H238 C250 0.950 . S
H239 C251 0.950 . S
C240 H232 0.950 . S
C240 C241 1.386 . S
C240 C242 1.391 . S
C241 C240 1.386 . S
C241 C245 1.393 . S
C242 H234 0.950 . S
C242 C240 1.391 . S
C242 C243 1.400 . S
C243 C242 1.400 . S
C243 C244 1.398 . S
C243 C249 1.491 . S
C244 H235 0.950 . S
C244 C243 1.398 . S
C244 C245 1.391 . S
C245 H233 0.950 . S
C245 C241 1.393 . S
C245 C244 1.391 . S
C246 H236 0.950 . S
C246 C247 1.386 . S
C246 C248 1.391 . S
C247 C246 1.386 . S
C247 C251 1.393 . S
C248 H237 0.950 . S
C248 C246 1.391 . S
C248 C249 1.400 . S
C249 C243 1.491 . S
C249 C248 1.400 . S
C249 C250 1.398 . S
C250 H238 0.950 . S
C250 C249 1.398 . S
C250 C251 1.391 . S
C251 H239 0.950 . S
C251 C247 1.393 . S
C251 C250 1.391 . S
H252 C260 0.950 . S
H253 C265 0.950 . S
H254 C262 0.950 . S
H255 C264 0.950 . S
H256 C266 0.950 . S
H257 C268 0.950 . S
H258 C270 0.950 . S
H259 C271 0.950 . S
C260 H252 0.950 . S
C260 C261 1.386 . S
C260 C262 1.391 . S
C261 C260 1.386 . S
C261 C265 1.393 . S
C262 H254 0.950 . S
C262 C260 1.391 . S
C262 C263 1.400 . S
C263 C262 1.400 . S
C263 C264 1.398 . S
C263 C269 1.491 1_556 S
C264 H255 0.950 . S
C264 C263 1.398 . S
C264 C265 1.391 . S
C265 H253 0.950 . S
C265 C261 1.393 . S
C265 C264 1.391 . S
C266 H256 0.950 . S
C266 C267 1.386 . S
C266 C268 1.391 . S
C267 C266 1.386 . S
C267 C271 1.393 . S
C268 H257 0.950 . S
C268 C266 1.391 . S
C268 C269 1.400 . S
C269 C263 1.491 1_554 S
C269 C268 1.400 . S
C269 C270 1.398 . S
C270 H258 0.950 . S
C270 C269 1.398 . S
C270 C271 1.391 . S
C271 H259 0.950 . S
C271 C267 1.393 . S
C271 C270 1.391 . S
H272 C280 0.950 . S
H273 C285 0.950 . S
H274 C282 0.950 . S
H275 C284 0.950 . S
H276 C286 0.950 . S
H277 C288 0.950 . S
H278 C290 0.950 . S
H279 C291 0.950 . S
C280 H272 0.950 . S
C280 C281 1.386 . S
C280 C282 1.391 . S
C281 C280 1.386 . S
C281 C285 1.393 . S
C282 H274 0.950 . S
C282 C280 1.391 . S
C282 C283 1.400 . S
C283 C282 1.400 . S
C283 C284 1.398 . S
C283 C289 1.491 1_655 S
C284 H275 0.950 . S
C284 C283 1.398 . S
C284 C285 1.391 . S
C285 H273 0.950 . S
C285 C281 1.393 . S
C285 C284 1.391 . S
C286 H276 0.950 . S
C286 C287 1.386 . S
C286 C288 1.391 . S
C287 C286 1.386 . S
C287 C291 1.393 . S
C288 H277 0.950 . S
C288 C286 1.391 . S
C288 C289 1.400 . S
C289 C283 1.491 1_455 S
C289 C288 1.400 . S
C289 C290 1.398 . S
C290 H278 0.950 . S
C290 C289 1.398 . S
C290 C291 1.391 . S
C291 H279 0.950 . S
C291 C287 1.393 . S
C291 C290 1.391 . S
H292 C300 0.950 . S
H293 C305 0.950 . S
H294 C302 0.946 1_565 S
H295 C304 0.950 1_554 S
H296 C306 0.950 . S
H297 C308 0.946 1_545 S
H298 C310 0.950 1_556 S
H299 C311 0.950 . S
C300 H292 0.950 . S
C300 C301 1.386 . S
C300 C302 1.391 . S
C301 C300 1.386 . S
C301 C305 1.393 . S
C302 H294 0.946 1_545 S
C302 C300 1.391 . S
C302 C303 1.400 . S
C303 C302 1.400 . S
C303 C304 1.398 . S
C303 C309 1.491 1_546 S
C304 H295 0.950 1_556 S
C304 C303 1.398 . S
C304 C305 1.391 . S
C305 H293 0.950 . S
C305 C301 1.393 . S
C305 C304 1.391 . S
C306 H296 0.950 . S
C306 C307 1.386 . S
C306 C308 1.391 . S
C307 C306 1.386 . S
C307 C311 1.393 . S
C308 H297 0.946 1_565 S
C308 C306 1.391 . S
C308 C309 1.400 . S
C309 C303 1.491 1_564 S
C309 C308 1.400 . S
C309 C310 1.398 . S
C310 H298 0.950 1_554 S
C310 C309 1.398 . S
C310 C311 1.391 . S
C311 H299 0.950 . S
C311 C307 1.393 . S
C311 C310 1.391 . S
H312 C320 0.950 . S
H313 C325 0.950 . S
H314 C322 0.950 . S
H315 C324 0.950 . S
H316 C326 0.950 . S
H317 C328 0.950 . S
H318 C330 0.950 . S
H319 C331 0.950 . S
C320 H312 0.950 . S
C320 C321 1.386 . S
C320 C322 1.391 . S
C321 C320 1.386 . S
C321 C325 1.393 . S
C322 H314 0.950 . S
C322 C320 1.391 . S
C322 C323 1.400 . S
C323 C322 1.400 . S
C323 C324 1.398 . S
C323 C329 1.491 . S
C324 H315 0.950 . S
C324 C323 1.398 . S
C324 C325 1.391 . S
C325 H313 0.950 . S
C325 C321 1.393 . S
C325 C324 1.391 . S
C326 H316 0.950 . S
C326 C327 1.386 . S
C326 C328 1.391 . S
C327 C326 1.386 . S
C327 C331 1.393 . S
C328 H317 0.950 . S
C328 C326 1.391 . S
C328 C329 1.400 . S
C329 C323 1.491 . S
C329 C328 1.400 . S
C329 C330 1.398 . S
C330 H318 0.950 . S
C330 C329 1.398 . S
C330 C331 1.391 . S
C331 H319 0.950 . S
C331 C327 1.393 . S
C331 C330 1.391 . S
H332 C340 0.950 . S
H333 C345 0.950 . S
H334 C342 0.950 . S
H335 C344 0.950 . S
H336 C346 0.950 . S
H337 C348 0.950 . S
H338 C350 0.950 . S
H339 C351 0.950 . S
C340 H332 0.950 . S
C340 C341 1.386 . S
C340 C342 1.391 . S
C341 C340 1.386 . S
C341 C345 1.393 . S
C342 H334 0.950 . S
C342 C340 1.391 . S
C342 C343 1.400 . S
C343 C342 1.400 . S
C343 C344 1.398 . S
C343 C349 1.491 1_656 S
C344 H335 0.950 . S
C344 C343 1.398 . S
C344 C345 1.391 . S
C345 H333 0.950 . S
C345 C341 1.393 . S
C345 C344 1.391 . S
C346 H336 0.950 . S
C346 C347 1.386 . S
C346 C348 1.391 . S
C347 C346 1.386 . S
C347 C351 1.393 . S
C348 H337 0.950 . S
C348 C346 1.391 . S
C348 C349 1.400 . S
C349 C343 1.491 1_454 S
C349 C348 1.400 . S
C349 C350 1.398 . S
C350 H338 0.950 . S
C350 C349 1.398 . S
C350 C351 1.391 . S
C351 H339 0.950 . S
C351 C347 1.393 . S
C351 C350 1.391 . S
H352 C360 0.950 . S
H353 C365 0.950 . S
H354 C362 0.950 1_565 S
H355 C364 0.950 . S
H356 C366 0.950 . S
H357 C368 0.950 1_545 S
H358 C370 0.950 . S
H359 C371 0.950 . S
C360 H352 0.950 . S
C360 C361 1.386 . S
C360 C362 1.391 . S
C361 C360 1.386 . S
C361 C365 1.393 . S
C362 H354 0.950 1_545 S
C362 C360 1.391 . S
C362 C363 1.400 . S
C363 C362 1.400 . S
C363 C364 1.398 . S
C363 C369 1.491 1_545 S
C364 H355 0.950 . S
C364 C363 1.398 . S
C364 C365 1.391 . S
C365 H353 0.950 . S
C365 C361 1.393 . S
C365 C364 1.391 . S
C366 H356 0.950 . S
C366 C367 1.386 . S
C366 C368 1.391 . S
C367 C366 1.386 . S
C367 C371 1.393 . S
C368 H357 0.950 1_565 S
C368 C366 1.391 . S
C368 C369 1.400 . S
C369 C363 1.491 1_565 S
C369 C368 1.400 . S
C369 C370 1.398 . S
C370 H358 0.950 . S
C370 C369 1.398 . S
C370 C371 1.391 . S
C371 H359 0.950 . S
C371 C367 1.393 . S
C371 C370 1.391 . S
H372 C380 0.950 . S
H373 C385 0.950 . S
H374 C382 0.950 . S
H375 C384 0.950 1_556 S
H376 C386 0.950 . S
H377 C388 0.950 . S
H378 C390 0.950 1_554 S
H379 C391 0.950 . S
C380 H372 0.950 . S
C380 C381 1.386 . S
C380 C382 1.391 . S
C381 C380 1.386 . S
C381 C385 1.393 . S
C382 H374 0.950 . S
C382 C380 1.391 . S
C382 C383 1.400 . S
C383 C382 1.400 . S
C383 C384 1.398 . S
C383 C389 1.491 1_554 S
C384 H375 0.950 1_554 S
C384 C383 1.398 . S
C384 C385 1.391 . S
C385 H373 0.950 . S
C385 C381 1.393 . S
C385 C384 1.391 . S
C386 H376 0.950 . S
C386 C387 1.386 . S
C386 C388 1.391 . S
C387 C386 1.386 . S
C387 C391 1.393 . S
C388 H377 0.950 . S
C388 C386 1.391 . S
C388 C389 1.400 . S
C389 C383 1.491 1_556 S
C389 C388 1.400 . S
C389 C390 1.398 . S
C390 H378 0.950 1_556 S
C390 C389 1.398 . S
C390 C391 1.391 . S
C391 H379 0.950 . S
C391 C387 1.393 . S
C391 C390 1.391 . S
H392 C400 0.950 . S
H393 C405 0.950 . S
H394 C402 0.950 1_455 S
H395 C404 0.950 . S
H396 C406 0.950 . S
H397 C408 0.950 1_655 S
H398 C410 0.950 . S
H399 C411 0.950 . S
C400 H392 0.950 . S
C400 C401 1.386 . S
C400 C402 1.391 . S
C401 C400 1.386 . S
C401 C405 1.393 . S
C402 H394 0.950 1_655 S
C402 C400 1.391 . S
C402 C403 1.400 . S
C403 C402 1.400 . S
C403 C404 1.398 . S
C403 C409 1.491 1_655 S
C404 H395 0.950 . S
C404 C403 1.398 . S
C404 C405 1.391 . S
C405 H393 0.950 . S
C405 C401 1.393 . S
C405 C404 1.391 . S
C406 H396 0.950 . S
C406 C407 1.386 . S
C406 C408 1.391 . S
C407 C406 1.386 . S
C407 C411 1.393 . S
C408 H397 0.950 1_455 S
C408 C406 1.391 . S
C408 C409 1.400 . S
C409 C403 1.491 1_455 S
C409 C408 1.400 . S
C409 C410 1.398 . S
C410 H398 0.950 . S
C410 C409 1.398 . S
C410 C411 1.391 . S
C411 H399 0.950 . S
C411 C407 1.393 . S
C411 C410 1.391 . S
H412 C420 0.950 . S
H413 C425 0.950 . S
H414 C422 0.950 1_556 S
H415 C424 0.950 . S
H416 C426 0.950 . S
H417 C428 0.950 1_554 S
H418 C430 0.950 . S
H419 C431 0.950 . S
C420 H412 0.950 . S
C420 C421 1.386 . S
C420 C422 1.391 . S
C421 C420 1.386 . S
C421 C425 1.393 . S
C422 H414 0.950 1_554 S
C422 C420 1.391 . S
C422 C423 1.400 . S
C423 C422 1.400 . S
C423 C424 1.398 . S
C423 C429 1.491 1_564 S
C424 H415 0.950 . S
C424 C423 1.398 . S
C424 C425 1.391 . S
C425 H413 0.950 . S
C425 C421 1.393 . S
C425 C424 1.391 . S
C426 H416 0.950 . S
C426 C427 1.386 . S
C426 C428 1.391 . S
C427 C426 1.386 . S
C427 C431 1.393 . S
C428 H417 0.950 1_556 S
C428 C426 1.391 . S
C428 C429 1.400 . S
C429 C423 1.491 1_546 S
C429 C428 1.400 . S
C429 C430 1.398 . S
C430 H418 0.950 . S
C430 C429 1.398 . S
C430 C431 1.391 . S
C431 H419 0.950 . S
C431 C427 1.393 . S
C431 C430 1.391 . S
H432 C440 0.950 . S
H433 C445 0.950 . S
H434 C442 0.950 . S
H435 C444 0.950 . S
H436 C446 0.950 . S
H437 C448 0.950 . S
H438 C450 0.950 . S
H439 C451 0.950 . S
C440 H432 0.950 . S
C440 C441 1.386 . S
C440 C442 1.391 . S
C441 C440 1.386 . S
C441 C445 1.393 . S
C442 H434 0.950 . S
C442 C440 1.391 . S
C442 C443 1.400 . S
C443 C442 1.400 . S
C443 C444 1.398 . S
C443 C449 1.491 . S
C444 H435 0.950 . S
C444 C443 1.398 . S
C444 C445 1.391 . S
C445 H433 0.950 . S
C445 C441 1.393 . S
C445 C444 1.391 . S
C446 H436 0.950 . S
C446 C447 1.386 . S
C446 C448 1.391 . S
C447 C446 1.386 . S
C447 C451 1.393 . S
C448 H437 0.950 . S
C448 C446 1.391 . S
C448 C449 1.400 . S
C449 C443 1.491 . S
C449 C448 1.400 . S
C449 C450 1.398 . S
C450 H438 0.950 . S
C450 C449 1.398 . S
C450 C451 1.391 . S
C451 H439 0.950 . S
C451 C447 1.393 . S
C451 C450 1.391 . S
H452 C460 0.950 . S
H453 C465 0.950 . S
H454 C462 0.950 . S
H455 C464 0.950 . S
H456 C466 0.950 . S
H457 C468 0.950 . S
H458 C470 0.950 . S
H459 C471 0.950 . S
C460 H452 0.950 . S
C460 C461 1.386 . S
C460 C462 1.391 . S
C461 C460 1.386 . S
C461 C465 1.393 . S
C462 H454 0.950 . S
C462 C460 1.391 . S
C462 C463 1.400 . S
C463 C462 1.400 . S
C463 C464 1.398 . S
C463 C469 1.491 1_656 S
C464 H455 0.950 . S
C464 C463 1.398 . S
C464 C465 1.391 . S
C465 H453 0.950 . S
C465 C461 1.393 . S
C465 C464 1.391 . S
C466 H456 0.950 . S
C466 C467 1.386 . S
C466 C468 1.391 . S
C467 C466 1.386 . S
C467 C471 1.393 . S
C468 H457 0.950 . S
C468 C466 1.391 . S
C468 C469 1.400 . S
C469 C463 1.491 1_454 S
C469 C468 1.400 . S
C469 C470 1.398 . S
C470 H458 0.950 . S
C470 C469 1.398 . S
C470 C471 1.391 . S
C471 H459 0.950 . S
C471 C467 1.393 . S
C471 C470 1.391 . S
H472 C480 0.950 . S
H473 C485 0.950 . S
H474 C482 0.950 . S
H475 C484 0.950 . S
H476 C486 0.950 . S
H477 C488 0.950 . S
H478 C490 0.950 . S
H479 C491 0.950 . S
C480 H472 0.950 . S
C480 C481 1.386 . S
C480 C482 1.391 . S
C481 C480 1.386 . S
C481 C485 1.393 . S
C482 H474 0.950 . S
C482 C480 1.391 . S
C482 C483 1.400 . S
C483 C482 1.400 . S
C483 C484 1.398 . S
C483 C489 1.491 1_565 S
C484 H475 0.950 . S
C484 C483 1.398 . S
C484 C485 1.391 . S
C485 H473 0.950 . S
C485 C481 1.393 . S
C485 C484 1.391 . S
C486 H476 0.950 . S
C486 C487 1.386 . S
C486 C488 1.391 . S
C487 C486 1.386 . S
C487 C491 1.393 . S
C488 H477 0.950 . S
C488 C486 1.391 . S
C488 C489 1.400 . S
C489 C483 1.491 1_545 S
C489 C488 1.400 . S
C489 C490 1.398 . S
C490 H478 0.950 . S
C490 C489 1.398 . S
C490 C491 1.391 . S
C491 H479 0.950 . S
C491 C487 1.393 . S
C491 C490 1.391 . S
C141 C5 1.328 . S
C147 C94 1.352 . S
C161 C28 1.333 . S
C167 C116 1.347 . S
C181 C7 1.331 . S
C187 C50 1.350 . S
C201 C72 1.328 . S
C207 C31 1.352 . S
C221 C53 1.351 . S
C227 C97 1.329 . S
C241 C75 1.327 . S
C247 C119 1.353 . S
C261 C117 1.553 . S
C267 C8 1.553 . S
C281 C29 1.563 . S
C287 C6 1.564 . S
C301 C26 1.558 . S
C307 C51 1.565 . S
C321 C48 1.565 . S
C327 C73 1.561 . S
C341 C70 1.560 . S
C347 C92 1.565 . S
C361 C114 1.553 . S
C367 C95 1.563 . S
C381 C49 1.559 . S
C387 C74 1.551 . S
C401 C71 1.557 . S
C407 C93 1.551 . S
C421 C96 1.551 . S
C427 C115 1.556 . S
C441 C118 1.555 . S
C447 C9 1.565 . S
C461 C30 1.562 . S
C467 C4 1.564 . S
C481 C52 1.565 . S
C487 C27 1.558 . S
