# Generated by pormake.
# Topology mok, (4)-cn, num edge types: 1
# Building blocks:
#     Node 0, Type 0, BuildingBlock: QUQFOY_clean_sbu_3, # of connection points: 4
#     Node 1, Type 0, BuildingBlock: QUQFOY_clean_sbu_3, # of connection points: 4
#     Node 2, Type 0, BuildingBlock: QUQFOY_clean_sbu_3, # of connection points: 4
#     Node 3, Type 0, BuildingBlock: QUQFOY_clean_sbu_3, # of connection points: 4
#     Node 4, Type 0, BuildingBlock: QUQFOY_clean_sbu_3, # of connection points: 4
#     Node 5, Type 0, BuildingBlock: QUQFOY_clean_sbu_3, # of connection points: 4
#     Node 6, Type 0, BuildingBlock: QUQFOY_clean_sbu_3, # of connection points: 4
#     Node 7, Type 0, BuildingBlock: QUQFOY_clean_sbu_3, # of connection points: 4
#     Edge 8, Type (0, 0), BuildingBlock: AJUNOK_clean_linker_0, # of connection points: 2
#     Edge 9, Type (0, 0), BuildingBlock: AJUNOK_clean_linker_0, # of connection points: 2
#     Edge 10, Type (0, 0), BuildingBlock: AJUNOK_clean_linker_0, # of connection points: 2
#     Edge 11, Type (0, 0), BuildingBlock: AJUNOK_clean_linker_0, # of connection points: 2
#     Edge 12, Type (0, 0), BuildingBlock: AJUNOK_clean_linker_0, # of connection points: 2
#     Edge 13, Type (0, 0), BuildingBlock: AJUNOK_clean_linker_0, # of connection points: 2
#     Edge 14, Type (0, 0), BuildingBlock: AJUNOK_clean_linker_0, # of connection points: 2
#     Edge 15, Type (0, 0), BuildingBlock: AJUNOK_clean_linker_0, # of connection points: 2
#     Edge 16, Type (0, 0), BuildingBlock: AJUNOK_clean_linker_0, # of connection points: 2
#     Edge 17, Type (0, 0), BuildingBlock: AJUNOK_clean_linker_0, # of connection points: 2
#     Edge 18, Type (0, 0), BuildingBlock: AJUNOK_clean_linker_0, # of connection points: 2
#     Edge 19, Type (0, 0), BuildingBlock: AJUNOK_clean_linker_0, # of connection points: 2
#     Edge 20, Type (0, 0), BuildingBlock: AJUNOK_clean_linker_0, # of connection points: 2
#     Edge 21, Type (0, 0), BuildingBlock: AJUNOK_clean_linker_0, # of connection points: 2
#     Edge 22, Type (0, 0), BuildingBlock: AJUNOK_clean_linker_0, # of connection points: 2
#     Edge 23, Type (0, 0), BuildingBlock: AJUNOK_clean_linker_0, # of connection points: 2
# Relax obj value: 0.012
# Max RMSD: 0.032
# Mean RMSD: 0.032
data_MOF--net-mok--node1-QUQFOY_clean_sbu_3--edge1-AJUNOK_clean_linker_0
_symmetry_space_group_name_H-M    P1
_symmetry_Int_Tables_number       1
_symmetry_cell_setting            triclinic
loop_
_symmetry_equiv_pos_as_xyz
'x, y, z'
_cell_length_a     41.306578
_cell_length_b     12.217931
_cell_length_c     20.945417
_cell_angle_alpha  89.812698
_cell_angle_beta   89.397827
_cell_angle_gamma 89.991703
loop_
_atom_site_label
_atom_site_type_symbol
_atom_site_fract_x
_atom_site_fract_y
_atom_site_fract_z
_atom_type_partial_charge
C0 C 0.61449 0.4795 0.13657 0.0
O1 O 0.61965 0.56313 0.10173 0.0
Cd2 Cd 0.62464 0.54417 -0.01289 0.0
O3 O 0.60859 0.38752 0.11147 0.0
Cd4 Cd 0.60054 0.29577 0.01138 0.0
C5 C 0.68047 0.33328 0.98346 0.0
O6 O 0.5788 0.44448 0.94922 0.0
O7 O 0.59256 0.29707 0.89836 0.0
O8 O 0.54977 0.24164 0.05701 0.0
C9 C 0.58022 0.39206 0.89693 0.0
O10 O 0.6734 0.43348 0.97402 0.0
C11 C 0.55342 0.14005 0.04732 0.0
O12 O 0.65868 0.26447 4e-05 0.0
O13 O 0.58037 0.10925 0.02326 0.0
C14 C 0.38281 0.48502 0.10693 0.0
O15 O 0.37659 0.40777 0.06852 0.0
Cd16 Cd 0.37234 0.44482 0.95554 0.0
O17 O 0.39014 0.5795 0.086 0.0
Cd18 Cd 0.40017 0.68887 -0.00831 0.0
C19 C 0.31952 0.66413 0.9679 0.0
O20 O 0.41897 0.54755 0.92247 0.0
O21 O 0.40856 0.7027 0.87737 0.0
O22 O 0.45136 0.73605 0.03696 0.0
C23 C 0.4181 0.60449 0.87169 0.0
O24 O 0.32488 0.56444 0.95338 0.0
C25 C 0.44676 0.83868 0.03518 0.0
O26 O 0.34245 0.72687 -0.01469 0.0
O27 O 0.41965 0.87214 0.0143 0.0
C28 C 0.61085 0.51793 0.41279 0.0
O29 O 0.61647 0.43733 0.44948 0.0
Cd30 Cd 0.62144 0.4565 0.56293 0.0
O31 O 0.60466 0.61179 0.43578 0.0
Cd32 Cd 0.59679 0.70459 0.53728 0.0
C33 C 0.67685 0.66923 0.55765 0.0
O34 O 0.57515 0.55457 0.60003 0.0
O35 O 0.58999 0.6992 0.65101 0.0
O36 O 0.54832 0.7678 0.48622 0.0
C37 C 0.57732 0.60481 0.65276 0.0
O38 O 0.66981 0.5698 0.5699 0.0
C39 C 0.54989 0.86366 0.50891 0.0
O40 O 0.65492 0.73747 0.54189 0.0
O41 O 0.57458 0.8883 0.54165 0.0
C42 C 0.37261 0.44315 0.38245 0.0
O43 O 0.36494 0.52705 0.41487 0.0
Cd44 Cd 0.35777 0.52023 0.52872 0.0
O45 O 0.37937 0.35371 0.41017 0.0
Cd46 Cd 0.38533 0.2822 0.51767 0.0
C47 C 0.30505 0.30291 0.53959 0.0
O48 O 0.40559 0.4427 0.57409 0.0
O49 O 0.38945 0.30376 0.63028 0.0
O50 O 0.43554 0.2159 0.47278 0.0
C51 C 0.40309 0.39653 0.62834 0.0
O52 O 0.31028 0.40504 0.54575 0.0
C53 C 0.43409 0.12376 0.50055 0.0
O54 O 0.32807 0.23754 0.52559 0.0
O55 O 0.40884 0.10209 0.53342 0.0
C56 C 0.11768 0.94842 0.13768 0.0
O57 O 0.12361 0.03383 0.10485 0.0
Cd58 Cd 0.13059 0.0258 -0.00936 0.0
O59 O 0.11222 0.85806 0.11033 0.0
Cd60 Cd 0.10577 0.78051 0.00541 0.0
C61 C 0.1859 0.81412 0.98272 0.0
O62 O 0.0849 0.93518 0.94606 0.0
O63 O 0.10117 0.79413 0.89206 0.0
O64 O 0.05359 0.73048 0.04507 0.0
C65 C 0.08777 0.88754 0.89247 0.0
O66 O 0.17898 0.91499 0.97584 0.0
C67 C 0.05579 0.62963 0.03197 0.0
O68 O 0.1639 0.7445 -0.00324 0.0
O69 O 0.08267 0.59619 0.0088 0.0
C70 C 0.87727 0.01855 0.11753 0.0
O71 O 0.87015 0.93645 0.08335 0.0
Cd72 Cd 0.8649 0.95535 0.96912 0.0
O73 O 0.88518 0.10868 0.09168 0.0
Cd74 Cd 0.89471 0.1978 -0.0094 0.0
C75 C 0.81377 0.17936 0.971 0.0
O76 O 0.91226 0.04431 0.92747 0.0
O77 O 0.90091 0.19466 0.87701 0.0
O78 O 0.94754 0.24185 0.02876 0.0
C79 C 0.91119 0.09688 0.87506 0.0
O80 O 0.81847 0.07765 0.96127 0.0
C81 C 0.94446 0.34457 0.02254 0.0
O82 O 0.83723 0.24263 -0.01521 0.0
O83 O 0.91738 0.38021 0.0027 0.0
C84 C 0.10784 0.98315 0.41347 0.0
O85 O 0.11319 0.90396 0.45138 0.0
Cd86 Cd 0.11709 0.93483 0.5649 0.0
O87 O 0.10117 0.07753 0.43498 0.0
Cd88 Cd 0.0915 0.18438 0.52973 0.0
C89 C 0.17178 0.1499 0.55419 0.0
O90 O 0.07162 0.04214 0.59756 0.0
O91 O 0.0826 0.1953 0.64383 0.0
O92 O 0.0408 0.23363 0.4836 0.0
C93 C 0.0727 0.09732 0.64874 0.0
O94 O 0.16512 0.05089 0.56847 0.0
C95 C 0.0454 0.33615 0.48641 0.0
O96 O 0.14965 0.21617 0.53673 0.0
O97 O 0.07242 0.36884 0.50802 0.0
C98 C 0.87512 0.979 0.39359 0.0
O99 O 0.8687 0.05846 0.43056 0.0
Cd100 Cd 0.86406 0.03374 0.54437 0.0
O101 O 0.88198 0.88546 0.41614 0.0
Cd102 Cd 0.89076 0.7893 0.51534 0.0
C103 C 0.81073 0.81593 0.54548 0.0
O104 O 0.91109 0.93729 0.57869 0.0
O105 O 0.89856 0.78801 0.62893 0.0
O106 O 0.94199 0.73898 0.47 0.0
C107 C 0.90986 0.88444 0.63095 0.0
O108 O 0.81657 0.91658 0.55623 0.0
C109 C 0.93849 0.63685 0.47823 0.0
O110 O 0.83316 0.75113 0.52718 0.0
O111 O 0.91155 0.60436 0.50161 0.0
C112 C 0.75404 0.14787 0.97406 0.0
C113 C 0.78015 0.22179 0.97024 0.0
C114 C 0.722 0.18468 0.97758 0.0
C115 C 0.71464 0.29704 0.97685 0.0
H116 H 0.75829 0.06042 0.97581 0.0
H117 H 0.7029 0.1242 0.98137 0.0
S118 S 0.77413 0.52473 0.9638 0.0
N119 N 0.79647 0.41276 0.96341 0.0
N120 N 0.73627 0.48242 0.96967 0.0
C121 C 0.74049 0.37209 0.97138 0.0
C122 C 0.7732 0.33441 0.96823 0.0
C123 C 0.22773 0.6662 0.97565 0.0
C124 C 0.22012 0.77842 0.97594 0.0
C125 C 0.25987 0.63027 0.97147 0.0
C126 C 0.28577 0.70504 0.96804 0.0
H127 H 0.20876 0.60521 0.97909 0.0
H128 H 0.26441 0.54295 0.97241 0.0
S129 S 0.27912 0.00789 0.96394 0.0
N130 N 0.24138 0.96451 0.96997 0.0
N131 N 0.30167 0.89645 0.96251 0.0
C132 C 0.27857 0.81746 0.9671 0.0
C133 C 0.24582 0.85423 0.97089 0.0
C134 C 0.75123 0.85118 0.55093 0.0
C135 C 0.77703 0.77591 0.55194 0.0
C136 C 0.719 0.81606 0.55381 0.0
C137 C 0.71122 0.70424 0.55849 0.0
H138 H 0.75585 0.93816 0.54647 0.0
H139 H 0.70007 0.8773 0.55178 0.0
S140 S 0.77002 0.47408 0.56681 0.0
N141 N 0.79276 0.58469 0.56061 0.0
N142 N 0.73226 0.51818 0.5664 0.0
C143 C 0.73686 0.62807 0.56129 0.0
C144 C 0.76971 0.66398 0.55782 0.0
C145 C 0.2133 0.29831 0.54555 0.0
C146 C 0.206 0.18684 0.5546 0.0
C147 C 0.24535 0.33494 0.54194 0.0
C148 C 0.2715 0.26156 0.54663 0.0
H149 H 0.19411 0.3581 0.54057 0.0
H150 H 0.24958 0.42146 0.53406 0.0
S151 S 0.26583 0.96185 0.57391 0.0
N152 N 0.22787 0.0035 0.57078 0.0
N153 N 0.28808 0.07279 0.5636 0.0
C154 C 0.26468 0.15015 0.55696 0.0
C155 C 0.23198 0.11275 0.56113 0.0
C156 C 0.61072 0.58961 0.23652 0.0
C157 C 0.61459 0.48755 0.20689 0.0
C158 C 0.60937 0.59813 0.30305 0.0
C159 C 0.6121 0.505 0.34259 0.0
H160 H 0.60822 0.66343 0.20821 0.0
H161 H 0.60619 0.67881 0.32346 0.0
S162 S 0.62406 0.2187 0.28836 0.0
N163 N 0.6222 0.29129 0.22195 0.0
N164 N 0.61965 0.30755 0.34695 0.0
C165 C 0.61645 0.40246 0.31352 0.0
C166 C 0.61769 0.39369 0.24573 0.0
C167 C 0.37863 0.56256 0.21623 0.0
C168 C 0.3802 0.4695 0.17676 0.0
C169 C 0.37578 0.55296 0.28241 0.0
C170 C 0.37469 0.44989 0.3121 0.0
H171 H 0.37937 0.64424 0.19598 0.0
H172 H 0.37479 0.62727 0.31045 0.0
S173 S 0.37767 0.18011 0.23057 0.0
N174 N 0.38008 0.27069 0.17207 0.0
N175 N 0.37507 0.25203 0.29703 0.0
C176 C 0.37618 0.35572 0.27336 0.0
C177 C 0.3788 0.36567 0.20559 0.0
C178 C 0.41734 0.43877 0.80373 0.0
C179 C 0.42042 0.55287 0.80843 0.0
C180 C 0.4133 0.38877 0.74461 0.0
C181 C 0.41247 0.45086 0.68799 0.0
H182 H 0.41627 0.38791 0.84617 0.0
H183 H 0.40961 0.30099 0.74368 0.0
S184 S 0.42547 0.75044 0.67367 0.0
N185 N 0.42672 0.72543 0.75115 0.0
N186 N 0.41928 0.6308 0.63942 0.0
C187 C 0.41824 0.56402 0.69143 0.0
C188 C 0.42214 0.61525 0.7519 0.0
C189 C 0.57466 0.55961 0.83068 0.0
C190 C 0.5731 0.44517 0.83563 0.0
C191 C 0.57405 0.61105 0.77111 0.0
C192 C 0.57161 0.54985 0.71455 0.0
H193 H 0.57829 0.60954 0.87266 0.0
H194 H 0.57697 0.69913 0.76935 0.0
S195 S 0.56022 0.24923 0.7033 0.0
N196 N 0.5643 0.27299 0.78036 0.0
N197 N 0.56288 0.36996 0.66799 0.0
C198 C 0.56707 0.43608 0.71932 0.0
C199 C 0.56794 0.38359 0.78006 0.0
C200 C 0.1146 0.05603 0.23825 0.0
C201 C 0.11595 0.95376 0.2081 0.0
C202 C 0.11181 0.06384 0.30451 0.0
C203 C 0.11051 0.96972 0.34355 0.0
H204 H 0.11531 0.13104 0.21054 0.0
H205 H 0.11083 0.14498 0.32514 0.0
S206 S 0.11388 0.68175 0.28843 0.0
N207 N 0.11625 0.75543 0.22235 0.0
N208 N 0.11121 0.77083 0.34731 0.0
C209 C 0.11221 0.86669 0.31423 0.0
C210 C 0.11484 0.85855 0.24646 0.0
C211 C 0.87415 0.89937 0.28436 0.0
C212 C 0.8749 -0.00716 0.32358 0.0
C213 C 0.87466 0.90836 0.21787 0.0
C214 C 0.87621 0.01116 0.18793 0.0
H215 H 0.87312 0.81806 0.30508 0.0
H216 H 0.8742 0.834 0.18986 0.0
S217 S 0.87819 0.28169 0.26893 0.0
N218 N 0.87689 0.19155 0.32773 0.0
N219 N 0.87787 0.20919 0.20261 0.0
C220 C 0.87674 0.10564 0.22655 0.0
C221 C 0.87603 0.09632 0.29438 0.0
C222 C 0.91155 0.87738 0.74953 0.0
C223 C 0.91579 0.9378 0.69272 0.0
C224 C 0.91202 0.92868 0.80897 0.0
C225 C 0.91653 0.04221 0.81354 0.0
H226 H 0.90649 0.79042 0.74815 0.0
H227 H 0.90709 0.87986 0.85125 0.0
S228 S 0.93459 0.2343 0.68035 0.0
N229 N 0.92905 0.1149 0.64546 0.0
N230 N 0.92964 0.21152 0.75758 0.0
C231 C 0.92321 0.10237 0.75766 0.0
C232 C 0.92296 0.05004 0.69707 0.0
C233 C 0.07965 0.88004 0.77534 0.0
C234 C 0.07877 0.94114 0.83213 0.0
C235 C 0.07544 0.93038 0.71613 0.0
C236 C 0.07054 0.04383 0.7116 0.0
H237 H 0.08473 0.79305 0.77626 0.0
H238 H 0.07781 0.88072 0.67357 0.0
S239 S 0.06094 0.23786 0.84637 0.0
N240 N 0.0686 0.11891 0.88067 0.0
N241 N 0.06099 0.21399 0.76881 0.0
C242 C 0.0673 0.10479 0.76811 0.0
C243 C 0.07133 0.05328 0.82861 0.0
C244 C 0.50544 0.87731 0.04707 0.0
C245 C 0.47326 0.91491 0.04989 0.0
C246 C 0.53144 0.95029 0.04984 0.0
C247 C 0.52617 0.06326 0.05645 0.0
H248 H 0.51069 0.79151 0.03912 0.0
H249 H 0.55575 0.91826 0.04416 0.0
S250 S 0.44642 0.20093 0.07611 0.0
N251 N 0.43748 0.07035 0.06665 0.0
N252 N 0.48631 0.20803 0.07307 0.0
C253 C 0.49411 0.10095 0.06438 0.0
C254 C 0.46763 0.0266 0.0607 0.0
C255 C 0.5072 0.96078 0.44782 0.0
C256 C 0.52162 0.9354 0.50646 0.0
C257 C 0.47844 0.02159 0.44585 0.0
C258 C 0.4627 0.05349 0.50257 0.0
H259 H 0.51834 0.93416 0.40346 0.0
H260 H 0.46827 0.04272 0.39996 0.0
S261 S 0.49034 0.00398 0.66785 0.0
N262 N 0.51833 0.94642 0.62215 0.0
N263 N 0.46341 0.05603 0.61852 0.0
C264 C 0.47665 0.02695 0.56134 0.0
C265 C 0.5064 0.96883 0.56328 0.0
C266 C 0.0309 0.44383 0.02966 0.0
C267 C 0.02731 0.5572 0.03795 0.0
C268 C 0.00387 0.37511 0.02757 0.0
C269 C 0.97227 0.41755 0.03272 0.0
H270 H 0.0547 0.40805 0.0231 0.0
H271 H 0.0078 0.28863 0.01921 0.0
S272 S 0.94965 0.70718 0.06052 0.0
N273 N 0.98958 0.70799 0.05602 0.0
N274 N 0.93885 0.57828 0.05086 0.0
C275 C 0.96831 0.52997 0.0435 0.0
C276 C -0.00418 0.59994 0.04654 0.0
C277 C 0.9867 0.37474 0.4754 0.0
C278 C 0.01885 0.41271 0.47244 0.0
C279 C 0.96065 0.44757 0.47365 0.0
C280 C 0.96581 0.56082 0.46802 0.0
H281 H 0.98154 0.28864 0.48274 0.0
H282 H 0.93639 0.41508 0.47941 0.0
S283 S 0.04537 0.69976 0.44808 0.0
N284 N 0.05445 0.56894 0.45637 0.0
N285 N 0.00548 0.70649 0.45189 0.0
C286 C -0.0022 0.59906 0.45987 0.0
C287 C 0.02436 0.52479 0.46249 0.0
loop_
_geom_bond_atom_site_label_1
_geom_bond_atom_site_label_2
_geom_bond_distance
_geom_bond_site_symmetry_2
_ccdc_geom_bond_type
C0 O1 1.306 . S
C0 O3 1.160 . S
O1 C0 1.306 . S
O1 Cd2 2.228 . S
Cd2 O1 2.228 . S
Cd2 O6 2.273 1_554 S
Cd2 O10 2.277 . S
O3 C0 1.160 . S
O3 Cd4 2.203 . S
Cd4 O3 2.203 . S
Cd4 O6 2.411 1_554 S
Cd4 O7 2.333 1_554 S
Cd4 O8 2.352 . S
Cd4 O12 2.277 . S
Cd4 O13 2.356 . S
C5 O10 1.209 . S
C5 O12 1.226 . S
O6 Cd2 2.273 1_556 S
O6 Cd4 2.411 1_556 S
O6 C9 1.320 . S
O7 Cd4 2.333 1_556 S
O7 C9 1.214 . S
O8 Cd4 2.352 . S
O8 C11 1.258 . S
C9 O6 1.320 . S
C9 O7 1.214 . S
O10 Cd2 2.277 . S
O10 C5 1.209 . S
C11 O8 1.258 . S
C11 O13 1.282 . S
O12 Cd4 2.277 . S
O12 C5 1.226 . S
O13 Cd4 2.356 . S
O13 C11 1.282 . S
C14 O15 1.306 . S
C14 O17 1.160 . S
O15 C14 1.306 . S
O15 Cd16 2.228 . S
Cd16 O15 2.228 . S
Cd16 O20 2.273 1_554 S
Cd16 O24 2.277 . S
O17 C14 1.160 . S
O17 Cd18 2.203 . S
Cd18 O17 2.203 . S
Cd18 O20 2.411 1_554 S
Cd18 O21 2.333 1_554 S
Cd18 O22 2.352 . S
Cd18 O26 2.277 . S
Cd18 O27 2.356 . S
C19 O24 1.209 . S
C19 O26 1.226 . S
O20 Cd16 2.273 1_556 S
O20 Cd18 2.411 1_556 S
O20 C23 1.320 . S
O21 Cd18 2.333 1_556 S
O21 C23 1.214 . S
O22 Cd18 2.352 . S
O22 C25 1.258 . S
C23 O20 1.320 . S
C23 O21 1.214 . S
O24 Cd16 2.277 . S
O24 C19 1.209 . S
C25 O22 1.258 . S
C25 O27 1.282 . S
O26 Cd18 2.277 . S
O26 C19 1.226 . S
O27 Cd18 2.356 . S
O27 C25 1.282 . S
C28 O29 1.306 . S
C28 O31 1.160 . S
O29 C28 1.306 . S
O29 Cd30 2.228 . S
Cd30 O29 2.228 . S
Cd30 O34 2.273 . S
Cd30 O38 2.277 . S
O31 C28 1.160 . S
O31 Cd32 2.203 . S
Cd32 O31 2.203 . S
Cd32 O34 2.411 . S
Cd32 O35 2.333 . S
Cd32 O36 2.352 . S
Cd32 O40 2.277 . S
Cd32 O41 2.356 . S
C33 O38 1.209 . S
C33 O40 1.226 . S
O34 Cd30 2.273 . S
O34 Cd32 2.411 . S
O34 C37 1.320 . S
O35 Cd32 2.333 . S
O35 C37 1.214 . S
O36 Cd32 2.352 . S
O36 C39 1.258 . S
C37 O34 1.320 . S
C37 O35 1.214 . S
O38 Cd30 2.277 . S
O38 C33 1.209 . S
C39 O36 1.258 . S
C39 O41 1.282 . S
O40 Cd32 2.277 . S
O40 C33 1.226 . S
O41 Cd32 2.356 . S
O41 C39 1.282 . S
C42 O43 1.306 . S
C42 O45 1.160 . S
O43 C42 1.306 . S
O43 Cd44 2.228 . S
Cd44 O43 2.228 . S
Cd44 O48 2.273 . S
Cd44 O52 2.277 . S
O45 C42 1.160 . S
O45 Cd46 2.203 . S
Cd46 O45 2.203 . S
Cd46 O48 2.411 . S
Cd46 O49 2.333 . S
Cd46 O50 2.352 . S
Cd46 O54 2.277 . S
Cd46 O55 2.356 . S
C47 O52 1.209 . S
C47 O54 1.226 . S
O48 Cd44 2.273 . S
O48 Cd46 2.411 . S
O48 C51 1.320 . S
O49 Cd46 2.333 . S
O49 C51 1.214 . S
O50 Cd46 2.352 . S
O50 C53 1.258 . S
C51 O48 1.320 . S
C51 O49 1.214 . S
O52 Cd44 2.277 . S
O52 C47 1.209 . S
C53 O50 1.258 . S
C53 O55 1.282 . S
O54 Cd46 2.277 . S
O54 C47 1.226 . S
O55 Cd46 2.356 . S
O55 C53 1.282 . S
C56 O57 1.306 1_565 S
C56 O59 1.160 . S
O57 C56 1.306 1_545 S
O57 Cd58 2.228 . S
Cd58 O57 2.228 . S
Cd58 O62 2.273 1_544 S
Cd58 O66 2.277 1_545 S
O59 C56 1.160 . S
O59 Cd60 2.203 . S
Cd60 O59 2.203 . S
Cd60 O62 2.411 1_554 S
Cd60 O63 2.333 1_554 S
Cd60 O64 2.352 . S
Cd60 O68 2.277 . S
Cd60 O69 2.356 . S
C61 O66 1.209 . S
C61 O68 1.226 . S
O62 Cd58 2.273 1_566 S
O62 Cd60 2.411 1_556 S
O62 C65 1.320 . S
O63 Cd60 2.333 1_556 S
O63 C65 1.214 . S
O64 Cd60 2.352 . S
O64 C67 1.258 . S
C65 O62 1.320 . S
C65 O63 1.214 . S
O66 Cd58 2.277 1_565 S
O66 C61 1.209 . S
C67 O64 1.258 . S
C67 O69 1.282 . S
O68 Cd60 2.277 . S
O68 C61 1.226 . S
O69 Cd60 2.356 . S
O69 C67 1.282 . S
C70 O71 1.306 1_545 S
C70 O73 1.160 . S
O71 C70 1.306 1_565 S
O71 Cd72 2.228 . S
Cd72 O71 2.228 . S
Cd72 O76 2.273 1_564 S
Cd72 O80 2.277 1_565 S
O73 C70 1.160 . S
O73 Cd74 2.203 . S
Cd74 O73 2.203 . S
Cd74 O76 2.411 1_554 S
Cd74 O77 2.333 1_554 S
Cd74 O78 2.352 . S
Cd74 O82 2.277 . S
Cd74 O83 2.356 . S
C75 O80 1.209 . S
C75 O82 1.226 . S
O76 Cd72 2.273 1_546 S
O76 Cd74 2.411 1_556 S
O76 C79 1.320 . S
O77 Cd74 2.333 1_556 S
O77 C79 1.214 . S
O78 Cd74 2.352 . S
O78 C81 1.258 . S
C79 O76 1.320 . S
C79 O77 1.214 . S
O80 Cd72 2.277 1_545 S
O80 C75 1.209 . S
C81 O78 1.258 . S
C81 O83 1.282 . S
O82 Cd74 2.277 . S
O82 C75 1.226 . S
O83 Cd74 2.356 . S
O83 C81 1.282 . S
C84 O85 1.306 1_545 S
C84 O87 1.160 . S
O85 C84 1.306 1_565 S
O85 Cd86 2.228 . S
Cd86 O85 2.228 . S
Cd86 O90 2.273 1_565 S
Cd86 O94 2.277 1_565 S
O87 C84 1.160 . S
O87 Cd88 2.203 . S
Cd88 O87 2.203 . S
Cd88 O90 2.411 . S
Cd88 O91 2.333 . S
Cd88 O92 2.352 . S
Cd88 O96 2.277 . S
Cd88 O97 2.356 . S
C89 O94 1.209 . S
C89 O96 1.226 . S
O90 Cd86 2.273 1_545 S
O90 Cd88 2.411 . S
O90 C93 1.320 . S
O91 Cd88 2.333 . S
O91 C93 1.214 . S
O92 Cd88 2.352 . S
O92 C95 1.258 . S
C93 O90 1.320 . S
C93 O91 1.214 . S
O94 Cd86 2.277 1_545 S
O94 C89 1.209 . S
C95 O92 1.258 . S
C95 O97 1.282 . S
O96 Cd88 2.277 . S
O96 C89 1.226 . S
O97 Cd88 2.356 . S
O97 C95 1.282 . S
C98 O99 1.306 1_565 S
C98 O101 1.160 . S
O99 C98 1.306 1_545 S
O99 Cd100 2.228 . S
Cd100 O99 2.228 . S
Cd100 O104 2.273 1_545 S
Cd100 O108 2.277 1_545 S
O101 C98 1.160 . S
O101 Cd102 2.203 . S
Cd102 O101 2.203 . S
Cd102 O104 2.411 . S
Cd102 O105 2.333 . S
Cd102 O106 2.352 . S
Cd102 O110 2.277 . S
Cd102 O111 2.356 . S
C103 O108 1.209 . S
C103 O110 1.226 . S
O104 Cd100 2.273 1_565 S
O104 Cd102 2.411 . S
O104 C107 1.320 . S
O105 Cd102 2.333 . S
O105 C107 1.214 . S
O106 Cd102 2.352 . S
O106 C109 1.258 . S
C107 O104 1.320 . S
C107 O105 1.214 . S
O108 Cd100 2.277 1_565 S
O108 C103 1.209 . S
C109 O106 1.258 . S
C109 O111 1.282 . S
O110 Cd102 2.277 . S
O110 C103 1.226 . S
O111 Cd102 2.356 . S
O111 C109 1.282 . S
C112 C113 1.369 . S
C112 C114 1.419 . S
C112 H116 0.930 . S
C113 C112 1.369 . S
C113 C122 1.429 . S
C114 C112 1.419 . S
C114 C115 1.363 . S
C114 H117 0.929 . S
C115 C114 1.363 . S
C115 C121 1.428 . S
H116 C112 0.930 . S
H117 C114 0.929 . S
S118 N119 1.613 . S
S118 N120 1.610 . S
N119 S118 1.613 . S
N119 C122 1.350 . S
N120 S118 1.610 . S
N120 C121 1.351 . S
C121 C115 1.428 . S
C121 N120 1.351 . S
C121 C122 1.434 . S
C122 C113 1.429 . S
C122 N119 1.350 . S
C122 C121 1.434 . S
C123 C124 1.369 . S
C123 C125 1.419 . S
C123 H127 0.930 . S
C124 C123 1.369 . S
C124 C133 1.429 1_554 S
C125 C123 1.419 . S
C125 C126 1.363 . S
C125 H128 0.929 . S
C126 C125 1.363 . S
C126 C132 1.428 1_554 S
H127 C123 0.930 . S
H128 C125 0.929 . S
S129 N130 1.613 . S
S129 N131 1.610 . S
N130 S129 1.613 . S
N130 C133 1.350 . S
N131 S129 1.610 . S
N131 C132 1.351 . S
C132 C126 1.428 1_556 S
C132 N131 1.351 . S
C132 C133 1.434 . S
C133 C124 1.429 1_556 S
C133 N130 1.350 . S
C133 C132 1.434 . S
C134 C135 1.369 . S
C134 C136 1.419 . S
C134 H138 0.930 . S
C135 C134 1.369 . S
C135 C144 1.429 . S
C136 C134 1.419 . S
C136 C137 1.363 . S
C136 H139 0.929 . S
C137 C136 1.363 . S
C137 C143 1.428 . S
H138 C134 0.930 . S
H139 C136 0.929 . S
S140 N141 1.613 . S
S140 N142 1.610 . S
N141 S140 1.613 . S
N141 C144 1.350 . S
N142 S140 1.610 . S
N142 C143 1.351 . S
C143 C137 1.428 . S
C143 N142 1.351 . S
C143 C144 1.434 . S
C144 C135 1.429 . S
C144 N141 1.350 . S
C144 C143 1.434 . S
C145 C146 1.369 . S
C145 C147 1.419 . S
C145 H149 0.930 . S
C146 C145 1.369 . S
C146 C155 1.429 . S
C147 C145 1.419 . S
C147 C148 1.363 . S
C147 H150 0.929 . S
C148 C147 1.363 . S
C148 C154 1.428 . S
H149 C145 0.930 . S
H150 C147 0.929 . S
S151 N152 1.613 . S
S151 N153 1.610 . S
N152 S151 1.613 . S
N152 C155 1.350 . S
N153 S151 1.610 . S
N153 C154 1.351 . S
C154 C148 1.428 . S
C154 N153 1.351 . S
C154 C155 1.434 . S
C155 C146 1.429 . S
C155 N152 1.350 . S
C155 C154 1.434 . S
C156 C157 1.369 . S
C156 C158 1.419 . S
C156 H160 0.930 . S
C157 C156 1.369 . S
C157 C166 1.429 . S
C158 C156 1.419 . S
C158 C159 1.363 . S
C158 H161 0.929 . S
C159 C158 1.363 . S
C159 C165 1.428 . S
H160 C156 0.930 . S
H161 C158 0.929 . S
S162 N163 1.613 . S
S162 N164 1.610 . S
N163 S162 1.613 . S
N163 C166 1.350 . S
N164 S162 1.610 . S
N164 C165 1.351 . S
C165 C159 1.428 . S
C165 N164 1.351 . S
C165 C166 1.434 . S
C166 C157 1.429 . S
C166 N163 1.350 . S
C166 C165 1.434 . S
C167 C168 1.369 . S
C167 C169 1.419 . S
C167 H171 0.930 . S
C168 C167 1.369 . S
C168 C177 1.429 . S
C169 C167 1.419 . S
C169 C170 1.363 . S
C169 H172 0.929 . S
C170 C169 1.363 . S
C170 C176 1.428 . S
H171 C167 0.930 . S
H172 C169 0.929 . S
S173 N174 1.613 . S
S173 N175 1.610 . S
N174 S173 1.613 . S
N174 C177 1.350 . S
N175 S173 1.610 . S
N175 C176 1.351 . S
C176 C170 1.428 . S
C176 N175 1.351 . S
C176 C177 1.434 . S
C177 C168 1.429 . S
C177 N174 1.350 . S
C177 C176 1.434 . S
C178 C179 1.369 . S
C178 C180 1.419 . S
C178 H182 0.930 . S
C179 C178 1.369 . S
C179 C188 1.429 . S
C180 C178 1.419 . S
C180 C181 1.363 . S
C180 H183 0.929 . S
C181 C180 1.363 . S
C181 C187 1.428 . S
H182 C178 0.930 . S
H183 C180 0.929 . S
S184 N185 1.613 . S
S184 N186 1.610 . S
N185 S184 1.613 . S
N185 C188 1.350 . S
N186 S184 1.610 . S
N186 C187 1.351 . S
C187 C181 1.428 . S
C187 N186 1.351 . S
C187 C188 1.434 . S
C188 C179 1.429 . S
C188 N185 1.350 . S
C188 C187 1.434 . S
C189 C190 1.369 . S
C189 C191 1.419 . S
C189 H193 0.930 . S
C190 C189 1.369 . S
C190 C199 1.429 . S
C191 C189 1.419 . S
C191 C192 1.363 . S
C191 H194 0.929 . S
C192 C191 1.363 . S
C192 C198 1.428 . S
H193 C189 0.930 . S
H194 C191 0.929 . S
S195 N196 1.613 . S
S195 N197 1.610 . S
N196 S195 1.613 . S
N196 C199 1.350 . S
N197 S195 1.610 . S
N197 C198 1.351 . S
C198 C192 1.428 . S
C198 N197 1.351 . S
C198 C199 1.434 . S
C199 C190 1.429 . S
C199 N196 1.350 . S
C199 C198 1.434 . S
C200 C201 1.369 1_545 S
C200 C202 1.419 . S
C200 H204 0.930 . S
C201 C200 1.369 1_565 S
C201 C210 1.429 . S
C202 C200 1.419 . S
C202 C203 1.363 . S
C202 H205 0.929 . S
C203 C202 1.363 . S
C203 C209 1.428 1_545 S
H204 C200 0.930 . S
H205 C202 0.929 . S
S206 N207 1.613 . S
S206 N208 1.610 . S
N207 S206 1.613 . S
N207 C210 1.350 . S
N208 S206 1.610 . S
N208 C209 1.351 . S
C209 C203 1.428 1_565 S
C209 N208 1.351 . S
C209 C210 1.434 . S
C210 C201 1.429 . S
C210 N207 1.350 . S
C210 C209 1.434 . S
C211 C212 1.369 . S
C211 C213 1.419 1_565 S
C211 H215 0.930 . S
C212 C211 1.369 . S
C212 C221 1.431 . S
C213 C211 1.419 1_545 S
C213 C214 1.363 . S
C213 H216 0.929 . S
C214 C213 1.363 . S
C214 C220 1.428 . S
H215 C211 0.930 . S
H216 C213 0.929 . S
S217 N218 1.613 . S
S217 N219 1.610 . S
N218 S217 1.613 . S
N218 C221 1.349 1_545 S
N219 S217 1.610 . S
N219 C220 1.351 . S
C220 C214 1.428 . S
C220 N219 1.351 . S
C220 C221 1.432 1_545 S
C221 C212 1.431 . S
C221 N218 1.349 1_565 S
C221 C220 1.432 1_565 S
C222 C223 1.369 . S
C222 C224 1.419 . S
C222 H226 0.930 . S
C223 C222 1.369 . S
C223 C232 1.429 1_565 S
C224 C222 1.419 . S
C224 C225 1.363 1_565 S
C224 H227 0.929 . S
C225 C224 1.363 1_545 S
C225 C231 1.428 . S
H226 C222 0.930 . S
H227 C224 0.929 . S
S228 N229 1.613 . S
S228 N230 1.610 . S
N229 S228 1.613 . S
N229 C232 1.350 . S
N230 S228 1.610 . S
N230 C231 1.351 . S
C231 C225 1.428 . S
C231 N230 1.351 . S
C231 C232 1.434 . S
C232 C223 1.429 1_545 S
C232 N229 1.350 . S
C232 C231 1.434 . S
C233 C234 1.369 . S
C233 C235 1.419 . S
C233 H237 0.930 . S
C234 C233 1.369 . S
C234 C243 1.429 1_565 S
C235 C233 1.419 . S
C235 C236 1.363 1_565 S
C235 H238 0.929 . S
C236 C235 1.363 1_545 S
C236 C242 1.428 . S
H237 C233 0.930 . S
H238 C235 0.929 . S
S239 N240 1.613 . S
S239 N241 1.610 . S
N240 S239 1.613 . S
N240 C243 1.350 . S
N241 S239 1.610 . S
N241 C242 1.351 . S
C242 C236 1.428 . S
C242 N241 1.351 . S
C242 C243 1.434 . S
C243 C234 1.429 1_545 S
C243 N240 1.350 . S
C243 C242 1.434 . S
C244 C245 1.369 . S
C244 C246 1.421 . S
C244 H248 0.930 . S
C245 C244 1.369 . S
C245 C254 1.429 1_564 S
C246 C244 1.421 . S
C246 C247 1.360 1_565 S
C246 H249 0.929 . S
C247 C246 1.360 1_545 S
C247 C253 1.428 1_554 S
H248 C244 0.930 . S
H249 C246 0.929 . S
S250 N251 1.613 . S
S250 N252 1.610 . S
N251 S250 1.613 . S
N251 C254 1.350 . S
N252 S250 1.610 . S
N252 C253 1.351 . S
C253 C247 1.428 1_556 S
C253 N252 1.351 . S
C253 C254 1.434 . S
C254 C245 1.429 1_546 S
C254 N251 1.350 . S
C254 C253 1.434 . S
C255 C256 1.369 . S
C255 C257 1.419 1_565 S
C255 H259 0.930 . S
C256 C255 1.369 . S
C256 C265 1.429 . S
C257 C255 1.419 1_545 S
C257 C258 1.363 . S
C257 H260 0.929 . S
C258 C257 1.363 . S
C258 C264 1.428 . S
H259 C255 0.930 . S
H260 C257 0.929 . S
S261 N262 1.613 . S
S261 N263 1.610 . S
N262 S261 1.613 . S
N262 C265 1.350 1_545 S
N263 S261 1.610 . S
N263 C264 1.351 . S
C264 C258 1.428 . S
C264 N263 1.351 . S
C264 C265 1.434 1_545 S
C265 C256 1.429 . S
C265 N262 1.350 1_565 S
C265 C264 1.434 1_565 S
C266 C267 1.369 . S
C266 C268 1.419 1_455 S
C266 H270 0.930 . S
C267 C266 1.369 . S
C267 C276 1.429 1_554 S
C268 C266 1.419 1_655 S
C268 C269 1.363 . S
C268 H271 0.929 . S
C269 C268 1.363 . S
C269 C275 1.428 1_554 S
H270 C266 0.930 . S
H271 C268 0.929 . S
S272 N273 1.613 1_655 S
S272 N274 1.610 . S
N273 S272 1.613 1_455 S
N273 C276 1.350 . S
N274 S272 1.610 . S
N274 C275 1.351 . S
C275 C269 1.428 1_556 S
C275 N274 1.351 . S
C275 C276 1.434 1_655 S
C276 C267 1.429 1_556 S
C276 N273 1.350 . S
C276 C275 1.434 1_455 S
C277 C278 1.386 . S
C277 C279 1.403 1_455 S
C277 H281 0.929 1_455 S
C278 C277 1.386 . S
C278 C287 1.429 . S
C279 C277 1.403 1_655 S
C279 C280 1.363 . S
C279 H282 0.929 . S
C280 C279 1.363 . S
C280 C286 1.412 1_655 S
H281 C277 0.929 1_655 S
H282 C279 0.929 . S
S283 N284 1.613 . S
S283 N285 1.610 . S
N284 S283 1.613 . S
N284 C287 1.350 . S
N285 S283 1.610 . S
N285 C286 1.354 . S
C286 C280 1.412 1_455 S
C286 N285 1.354 . S
C286 C287 1.450 . S
C287 C278 1.429 . S
C287 N284 1.350 . S
C287 C286 1.450 . S
C113 C75 1.501 . S
C115 C5 1.499 . S
C124 C61 1.500 . S
C126 C19 1.500 . S
C135 C103 1.501 . S
C137 C33 1.499 . S
C146 C89 1.499 . S
C148 C47 1.500 . S
C157 C0 1.444 . S
C159 C28 1.443 . S
C168 C14 1.445 . S
C170 C42 1.445 . S
C179 C23 1.437 . S
C181 C51 1.441 . S
C190 C9 1.437 . S
C192 C37 1.441 . S
C201 C56 1.444 . S
C203 C84 1.444 . S
C212 C98 1.445 . S
C214 C70 1.445 . S
C223 C107 1.441 . S
C225 C79 1.438 . S
C234 C65 1.441 . S
C236 C93 1.438 . S
C245 C25 1.497 . S
C247 C11 1.498 . S
C256 C39 1.497 . S
C258 C53 1.498 . S
C267 C67 1.498 . S
C269 C81 1.497 . S
C278 C95 1.497 . S
C280 C109 1.499 . S
