# Generated by pormake.
# Topology uox, (4)-cn, num edge types: 1
# Building blocks:
#     Node 0, Type 0, BuildingBlock: QUQFOY_clean_sbu_1, # of connection points: 4
#     Node 1, Type 0, BuildingBlock: QUQFOY_clean_sbu_1, # of connection points: 4
#     Node 2, Type 0, BuildingBlock: QUQFOY_clean_sbu_1, # of connection points: 4
#     Node 3, Type 0, BuildingBlock: QUQFOY_clean_sbu_1, # of connection points: 4
#     Node 4, Type 0, BuildingBlock: QUQFOY_clean_sbu_1, # of connection points: 4
#     Node 5, Type 0, BuildingBlock: QUQFOY_clean_sbu_1, # of connection points: 4
#     Node 6, Type 0, BuildingBlock: QUQFOY_clean_sbu_1, # of connection points: 4
#     Node 7, Type 0, BuildingBlock: QUQFOY_clean_sbu_1, # of connection points: 4
#     Node 8, Type 0, BuildingBlock: QUQFOY_clean_sbu_1, # of connection points: 4
#     Node 9, Type 0, BuildingBlock: QUQFOY_clean_sbu_1, # of connection points: 4
#     Node 10, Type 0, BuildingBlock: QUQFOY_clean_sbu_1, # of connection points: 4
#     Node 11, Type 0, BuildingBlock: QUQFOY_clean_sbu_1, # of connection points: 4
#     Node 12, Type 0, BuildingBlock: QUQFOY_clean_sbu_1, # of connection points: 4
#     Node 13, Type 0, BuildingBlock: QUQFOY_clean_sbu_1, # of connection points: 4
#     Node 14, Type 0, BuildingBlock: QUQFOY_clean_sbu_1, # of connection points: 4
#     Node 15, Type 0, BuildingBlock: QUQFOY_clean_sbu_1, # of connection points: 4
#     Node 16, Type 0, BuildingBlock: QUQFOY_clean_sbu_1, # of connection points: 4
#     Node 17, Type 0, BuildingBlock: QUQFOY_clean_sbu_1, # of connection points: 4
#     Node 18, Type 0, BuildingBlock: QUQFOY_clean_sbu_1, # of connection points: 4
#     Node 19, Type 0, BuildingBlock: QUQFOY_clean_sbu_1, # of connection points: 4
#     Node 20, Type 0, BuildingBlock: QUQFOY_clean_sbu_1, # of connection points: 4
#     Node 21, Type 0, BuildingBlock: QUQFOY_clean_sbu_1, # of connection points: 4
#     Node 22, Type 0, BuildingBlock: QUQFOY_clean_sbu_1, # of connection points: 4
#     Node 23, Type 0, BuildingBlock: QUQFOY_clean_sbu_1, # of connection points: 4
#     Node 24, Type 0, BuildingBlock: QUQFOY_clean_sbu_1, # of connection points: 4
#     Node 25, Type 0, BuildingBlock: QUQFOY_clean_sbu_1, # of connection points: 4
#     Node 26, Type 0, BuildingBlock: QUQFOY_clean_sbu_1, # of connection points: 4
#     Node 27, Type 0, BuildingBlock: QUQFOY_clean_sbu_1, # of connection points: 4
#     Node 28, Type 0, BuildingBlock: QUQFOY_clean_sbu_1, # of connection points: 4
#     Node 29, Type 0, BuildingBlock: QUQFOY_clean_sbu_1, # of connection points: 4
#     Node 30, Type 0, BuildingBlock: QUQFOY_clean_sbu_1, # of connection points: 4
#     Node 31, Type 0, BuildingBlock: QUQFOY_clean_sbu_1, # of connection points: 4
#     Edge 32, Type (0, 0), BuildingBlock: KIFKEQ_clean_linker_1, # of connection points: 2
#     Edge 33, Type (0, 0), BuildingBlock: KIFKEQ_clean_linker_1, # of connection points: 2
#     Edge 34, Type (0, 0), BuildingBlock: KIFKEQ_clean_linker_1, # of connection points: 2
#     Edge 35, Type (0, 0), BuildingBlock: KIFKEQ_clean_linker_1, # of connection points: 2
#     Edge 36, Type (0, 0), BuildingBlock: KIFKEQ_clean_linker_1, # of connection points: 2
#     Edge 37, Type (0, 0), BuildingBlock: KIFKEQ_clean_linker_1, # of connection points: 2
#     Edge 38, Type (0, 0), BuildingBlock: KIFKEQ_clean_linker_1, # of connection points: 2
#     Edge 39, Type (0, 0), BuildingBlock: KIFKEQ_clean_linker_1, # of connection points: 2
#     Edge 40, Type (0, 0), BuildingBlock: KIFKEQ_clean_linker_1, # of connection points: 2
#     Edge 41, Type (0, 0), BuildingBlock: KIFKEQ_clean_linker_1, # of connection points: 2
#     Edge 42, Type (0, 0), BuildingBlock: KIFKEQ_clean_linker_1, # of connection points: 2
#     Edge 43, Type (0, 0), BuildingBlock: KIFKEQ_clean_linker_1, # of connection points: 2
#     Edge 44, Type (0, 0), BuildingBlock: KIFKEQ_clean_linker_1, # of connection points: 2
#     Edge 45, Type (0, 0), BuildingBlock: KIFKEQ_clean_linker_1, # of connection points: 2
#     Edge 46, Type (0, 0), BuildingBlock: KIFKEQ_clean_linker_1, # of connection points: 2
#     Edge 47, Type (0, 0), BuildingBlock: KIFKEQ_clean_linker_1, # of connection points: 2
#     Edge 48, Type (0, 0), BuildingBlock: KIFKEQ_clean_linker_1, # of connection points: 2
#     Edge 49, Type (0, 0), BuildingBlock: KIFKEQ_clean_linker_1, # of connection points: 2
#     Edge 50, Type (0, 0), BuildingBlock: KIFKEQ_clean_linker_1, # of connection points: 2
#     Edge 51, Type (0, 0), BuildingBlock: KIFKEQ_clean_linker_1, # of connection points: 2
#     Edge 52, Type (0, 0), BuildingBlock: KIFKEQ_clean_linker_1, # of connection points: 2
#     Edge 53, Type (0, 0), BuildingBlock: KIFKEQ_clean_linker_1, # of connection points: 2
#     Edge 54, Type (0, 0), BuildingBlock: KIFKEQ_clean_linker_1, # of connection points: 2
#     Edge 55, Type (0, 0), BuildingBlock: KIFKEQ_clean_linker_1, # of connection points: 2
#     Edge 56, Type (0, 0), BuildingBlock: KIFKEQ_clean_linker_1, # of connection points: 2
#     Edge 57, Type (0, 0), BuildingBlock: KIFKEQ_clean_linker_1, # of connection points: 2
#     Edge 58, Type (0, 0), BuildingBlock: KIFKEQ_clean_linker_1, # of connection points: 2
#     Edge 59, Type (0, 0), BuildingBlock: KIFKEQ_clean_linker_1, # of connection points: 2
#     Edge 60, Type (0, 0), BuildingBlock: KIFKEQ_clean_linker_1, # of connection points: 2
#     Edge 61, Type (0, 0), BuildingBlock: KIFKEQ_clean_linker_1, # of connection points: 2
#     Edge 62, Type (0, 0), BuildingBlock: KIFKEQ_clean_linker_1, # of connection points: 2
#     Edge 63, Type (0, 0), BuildingBlock: KIFKEQ_clean_linker_1, # of connection points: 2
#     Edge 64, Type (0, 0), BuildingBlock: KIFKEQ_clean_linker_1, # of connection points: 2
#     Edge 65, Type (0, 0), BuildingBlock: KIFKEQ_clean_linker_1, # of connection points: 2
#     Edge 66, Type (0, 0), BuildingBlock: KIFKEQ_clean_linker_1, # of connection points: 2
#     Edge 67, Type (0, 0), BuildingBlock: KIFKEQ_clean_linker_1, # of connection points: 2
#     Edge 68, Type (0, 0), BuildingBlock: KIFKEQ_clean_linker_1, # of connection points: 2
#     Edge 69, Type (0, 0), BuildingBlock: KIFKEQ_clean_linker_1, # of connection points: 2
#     Edge 70, Type (0, 0), BuildingBlock: KIFKEQ_clean_linker_1, # of connection points: 2
#     Edge 71, Type (0, 0), BuildingBlock: KIFKEQ_clean_linker_1, # of connection points: 2
#     Edge 72, Type (0, 0), BuildingBlock: KIFKEQ_clean_linker_1, # of connection points: 2
#     Edge 73, Type (0, 0), BuildingBlock: KIFKEQ_clean_linker_1, # of connection points: 2
#     Edge 74, Type (0, 0), BuildingBlock: KIFKEQ_clean_linker_1, # of connection points: 2
#     Edge 75, Type (0, 0), BuildingBlock: KIFKEQ_clean_linker_1, # of connection points: 2
#     Edge 76, Type (0, 0), BuildingBlock: KIFKEQ_clean_linker_1, # of connection points: 2
#     Edge 77, Type (0, 0), BuildingBlock: KIFKEQ_clean_linker_1, # of connection points: 2
#     Edge 78, Type (0, 0), BuildingBlock: KIFKEQ_clean_linker_1, # of connection points: 2
#     Edge 79, Type (0, 0), BuildingBlock: KIFKEQ_clean_linker_1, # of connection points: 2
#     Edge 80, Type (0, 0), BuildingBlock: KIFKEQ_clean_linker_1, # of connection points: 2
#     Edge 81, Type (0, 0), BuildingBlock: KIFKEQ_clean_linker_1, # of connection points: 2
#     Edge 82, Type (0, 0), BuildingBlock: KIFKEQ_clean_linker_1, # of connection points: 2
#     Edge 83, Type (0, 0), BuildingBlock: KIFKEQ_clean_linker_1, # of connection points: 2
#     Edge 84, Type (0, 0), BuildingBlock: KIFKEQ_clean_linker_1, # of connection points: 2
#     Edge 85, Type (0, 0), BuildingBlock: KIFKEQ_clean_linker_1, # of connection points: 2
#     Edge 86, Type (0, 0), BuildingBlock: KIFKEQ_clean_linker_1, # of connection points: 2
#     Edge 87, Type (0, 0), BuildingBlock: KIFKEQ_clean_linker_1, # of connection points: 2
#     Edge 88, Type (0, 0), BuildingBlock: KIFKEQ_clean_linker_1, # of connection points: 2
#     Edge 89, Type (0, 0), BuildingBlock: KIFKEQ_clean_linker_1, # of connection points: 2
#     Edge 90, Type (0, 0), BuildingBlock: KIFKEQ_clean_linker_1, # of connection points: 2
#     Edge 91, Type (0, 0), BuildingBlock: KIFKEQ_clean_linker_1, # of connection points: 2
#     Edge 92, Type (0, 0), BuildingBlock: KIFKEQ_clean_linker_1, # of connection points: 2
#     Edge 93, Type (0, 0), BuildingBlock: KIFKEQ_clean_linker_1, # of connection points: 2
#     Edge 94, Type (0, 0), BuildingBlock: KIFKEQ_clean_linker_1, # of connection points: 2
#     Edge 95, Type (0, 0), BuildingBlock: KIFKEQ_clean_linker_1, # of connection points: 2
# Relax obj value: 0.074
# Max RMSD: 0.135
# Mean RMSD: 0.135
data_MOF--net-uox--node1-QUQFOY_clean_sbu_1--edge1-KIFKEQ_clean_linker_1
_symmetry_space_group_name_H-M    P1
_symmetry_Int_Tables_number       1
_symmetry_cell_setting            triclinic
loop_
_symmetry_equiv_pos_as_xyz
'x, y, z'
_cell_length_a     47.606904
_cell_length_b     47.596688
_cell_length_c     87.508866
_cell_angle_alpha  89.992349
_cell_angle_beta   89.962853
_cell_angle_gamma 89.996408
loop_
_atom_site_label
_atom_site_type_symbol
_atom_site_fract_x
_atom_site_fract_y
_atom_site_fract_z
_atom_type_partial_charge
O0 O 0.3891 0.00273 0.16308 0.0
Cd1 Cd 0.40116 0.03828 0.1748 0.0
Cd2 Cd 0.43356 0.04255 0.14662 0.0
O3 O 0.41627 0.00349 0.14262 0.0
O4 O 0.38093 0.03188 0.19445 0.0
O5 O 0.42713 0.03415 0.1931 0.0
C6 C 0.40484 0.02996 0.20121 0.0
C7 C 0.48005 0.05128 0.13928 0.0
C8 C 0.39755 0.99159 0.15071 0.0
C9 C 0.39072 0.0882 0.15429 0.0
O10 O 0.40781 0.07719 0.14487 0.0
O11 O 0.38608 0.07673 0.1672 0.0
O12 O 0.46029 0.04841 0.12936 0.0
O13 O 0.47363 0.04811 0.15353 0.0
O14 O 0.24472 0.13699 0.41563 0.0
Cd15 Cd 0.20911 0.15133 0.42653 0.0
Cd16 Cd 0.20688 0.18303 0.3993 0.0
O17 O 0.2464 0.16624 0.39609 0.0
O18 O 0.21241 0.13361 0.4471 0.0
O19 O 0.21432 0.1795 0.44369 0.0
C20 C 0.21588 0.15826 0.45284 0.0
C21 C 0.1981 0.23018 0.3937 0.0
C22 C 0.25712 0.14634 0.40381 0.0
C23 C 0.16058 0.14098 0.40515 0.0
O24 O 0.17284 0.15717 0.39572 0.0
O25 O 0.17061 0.13725 0.41848 0.0
O26 O 0.20327 0.21219 0.38307 0.0
O27 O 0.19903 0.22165 0.40771 0.0
O28 O 0.11403 0.99491 0.66307 0.0
Cd29 Cd 0.0984 0.95991 0.6743 0.0
Cd30 Cd 0.06921 0.95775 0.64637 0.0
O31 O 0.08537 0.99731 0.6433 0.0
O32 O 0.11599 0.96366 0.69489 0.0
O33 O 0.07022 0.9665 0.69136 0.0
C34 C 0.09139 0.96789 0.70055 0.0
C35 C 0.0227 0.94786 0.63977 0.0
C36 C 0.10528 0.00755 0.65118 0.0
C37 C 0.11054 0.91159 0.65328 0.0
O38 O 0.09649 0.92478 0.64325 0.0
O39 O 0.11165 0.92048 0.66698 0.0
O40 O 0.04162 0.95241 0.62954 0.0
O41 O 0.02996 0.95003 0.65395 0.0
O42 O 0.25224 0.86239 0.9097 0.0
Cd43 Cd 0.28777 0.85038 0.92144 0.0
Cd44 Cd 0.29227 0.8177 0.89395 0.0
O45 O 0.25316 0.83444 0.88959 0.0
O46 O 0.28153 0.8708 0.94104 0.0
O47 O 0.28362 0.82457 0.93982 0.0
C48 C 0.27956 0.84694 0.94787 0.0
C49 C 0.3013 0.77051 0.88858 0.0
C50 C 0.2412 0.85349 0.8974 0.0
C51 C 0.33759 0.86069 0.90075 0.0
O52 O 0.32657 0.84357 0.89136 0.0
O53 O 0.32623 0.86526 0.91369 0.0
O54 O 0.29736 0.78857 0.87783 0.0
O55 O 0.29911 0.77903 0.90255 0.0
O56 O 0.38679 0.9982 0.35037 0.0
Cd57 Cd 0.40006 0.96266 0.33879 0.0
Cd58 Cd 0.43 0.95916 0.36693 0.0
O59 O 0.41475 0.99899 0.37046 0.0
O60 O 0.38019 0.96854 0.31901 0.0
O61 O 0.42638 0.96733 0.32065 0.0
C62 C 0.40421 0.97097 0.31239 0.0
C63 C 0.47645 0.94826 0.37321 0.0
C64 C 0.39557 0.0102 0.36244 0.0
C65 C 0.38719 0.91421 0.35975 0.0
O66 O 0.40213 0.92654 0.36972 0.0
O67 O 0.38557 0.92373 0.34618 0.0
O68 O 0.45775 0.95265 0.38358 0.0
O69 O 0.46901 0.95109 0.35909 0.0
O70 O 0.25698 0.13617 0.59895 0.0
Cd71 Cd 0.29203 0.15252 0.58813 0.0
Cd72 Cd 0.29303 0.18167 0.61565 0.0
O73 O 0.25321 0.16577 0.61822 0.0
O74 O 0.28948 0.1349 0.56749 0.0
O75 O 0.28532 0.18059 0.57105 0.0
C76 C 0.28478 0.15941 0.56183 0.0
C77 C 0.30282 0.22872 0.62073 0.0
C78 C 0.2436 0.14534 0.6105 0.0
C79 C 0.33977 0.14112 0.6097 0.0
O80 O 0.32587 0.1546 0.61969 0.0
O81 O 0.33143 0.14023 0.59589 0.0
O82 O 0.2968 0.21135 0.63155 0.0
O83 O 0.30223 0.21959 0.60682 0.0
O84 O 0.11389 0.00671 0.84613 0.0
Cd85 Cd 0.09748 0.04241 0.836 0.0
Cd86 Cd 0.06859 0.04183 0.86362 0.0
O87 O 0.08407 0.00163 0.86522 0.0
O88 O 0.11484 0.04101 0.81526 0.0
O89 O 0.06921 0.03654 0.81893 0.0
C90 C 0.09028 0.03647 0.80963 0.0
C91 C 0.02157 0.05163 0.86881 0.0
C92 C 0.1045 0.99248 0.85732 0.0
C93 C 0.10921 0.08881 0.8584 0.0
O94 O 0.09596 0.07424 0.8682 0.0
O95 O 0.10977 0.08137 0.84443 0.0
O96 O 0.03881 0.04481 0.87954 0.0
O97 O 0.03082 0.05187 0.85492 0.0
O98 O 0.2484 0.86383 0.09708 0.0
Cd99 Cd 0.21264 0.8519 0.08552 0.0
Cd100 Cd 0.20882 0.81931 0.11361 0.0
O101 O 0.24812 0.83621 0.11735 0.0
O102 O 0.21877 0.87199 0.06581 0.0
O103 O 0.21646 0.82579 0.06726 0.0
C104 C 0.22057 0.84801 0.05909 0.0
C105 C 0.19963 0.77298 0.1211 0.0
C106 C 0.25985 0.85508 0.1093 0.0
C107 C 0.16328 0.86251 0.10635 0.0
O108 O 0.17451 0.8454 0.11567 0.0
O109 O 0.17436 0.86709 0.09334 0.0
O110 O 0.20303 0.79276 0.13096 0.0
O111 O 0.20259 0.77926 0.10682 0.0
O112 O 0.61269 0.99689 0.84808 0.0
Cd113 Cd 0.59963 0.96093 0.83688 0.0
Cd114 Cd 0.56953 0.95857 0.86507 0.0
O115 O 0.58465 0.99855 0.86813 0.0
O116 O 0.6198 0.96636 0.81713 0.0
O117 O 0.57358 0.96528 0.81862 0.0
C118 C 0.59588 0.96886 0.81044 0.0
C119 C 0.52293 0.94814 0.8712 0.0
C120 C 0.6038 0.00944 0.85996 0.0
C121 C 0.61234 0.91326 0.85839 0.0
O122 O 0.59735 0.92599 0.8682 0.0
O123 O 0.61406 0.92225 0.84472 0.0
O124 O 0.54144 0.95273 0.88163 0.0
O125 O 0.5307 0.95039 0.85709 0.0
O126 O 0.75495 0.86309 0.59742 0.0
Cd127 Cd 0.79066 0.84897 0.58654 0.0
Cd128 Cd 0.79304 0.81711 0.61375 0.0
O129 O 0.7536 0.83398 0.61704 0.0
O130 O 0.78743 0.86686 0.56601 0.0
O131 O 0.78561 0.82094 0.5693 0.0
C132 C 0.78406 0.84225 0.5602 0.0
C133 C 0.80142 0.76982 0.61912 0.0
C134 C 0.74271 0.85375 0.60929 0.0
C135 C 0.83928 0.85921 0.60792 0.0
O136 O 0.82721 0.84282 0.61731 0.0
O137 O 0.82908 0.86313 0.59464 0.0
O138 O 0.79653 0.78769 0.62985 0.0
O139 O 0.80053 0.77859 0.60515 0.0
O140 O 0.88792 0.00275 0.34923 0.0
Cd141 Cd 0.90136 0.03817 0.33763 0.0
Cd142 Cd 0.93121 0.04153 0.36602 0.0
O143 O 0.91558 0.00182 0.36945 0.0
O144 O 0.88122 0.03233 0.31792 0.0
O145 O 0.92743 0.03321 0.3194 0.0
C146 C 0.90514 0.02966 0.31123 0.0
C147 C 0.97748 0.05208 0.37286 0.0
C148 C 0.89647 0.99071 0.36134 0.0
C149 C 0.88882 0.08683 0.35852 0.0
O150 O 0.90358 0.07443 0.36855 0.0
O151 O 0.88718 0.07723 0.34497 0.0
O152 O 0.95833 0.04781 0.383 0.0
O153 O 0.97059 0.04931 0.35866 0.0
O154 O 0.74823 0.13763 0.09682 0.0
Cd155 Cd 0.71242 0.14959 0.08533 0.0
Cd156 Cd 0.70875 0.18218 0.11317 0.0
O157 O 0.7481 0.16545 0.11699 0.0
O158 O 0.71857 0.12969 0.06558 0.0
O159 O 0.71622 0.17588 0.06715 0.0
C160 C 0.72042 0.15374 0.05893 0.0
C161 C 0.69964 0.22879 0.1201 0.0
C162 C 0.75978 0.1465 0.10898 0.0
C163 C 0.66326 0.13884 0.10623 0.0
O164 O 0.67452 0.15603 0.1155 0.0
O165 O 0.67422 0.13429 0.09319 0.0
O166 O 0.70303 0.2094 0.1302 0.0
O167 O 0.70251 0.22193 0.1059 0.0
O168 O 0.6142 0.00293 0.66211 0.0
Cd169 Cd 0.60052 0.03868 0.67329 0.0
Cd170 Cd 0.57024 0.04089 0.64567 0.0
O171 O 0.58482 0.00067 0.6427 0.0
O172 O 0.62044 0.0337 0.69313 0.0
O173 O 0.57423 0.03404 0.69143 0.0
C174 C 0.59644 0.03088 0.69972 0.0
C175 C 0.52343 0.05187 0.64062 0.0
C176 C 0.60467 0.9901 0.65048 0.0
C177 C 0.61287 0.08616 0.6516 0.0
O178 O 0.59823 0.07305 0.64179 0.0
O179 O 0.61433 0.0775 0.66535 0.0
O180 O 0.54072 0.04581 0.62978 0.0
O181 O 0.53249 0.0508 0.65453 0.0
O182 O 0.74513 0.86318 0.41378 0.0
Cd183 Cd 0.70956 0.84869 0.42466 0.0
Cd184 Cd 0.70719 0.81755 0.39706 0.0
O185 O 0.7466 0.83464 0.39392 0.0
O186 O 0.7128 0.86658 0.44519 0.0
O187 O 0.71492 0.82068 0.4419 0.0
C188 C 0.71637 0.842 0.45099 0.0
C189 C 0.69884 0.77038 0.39138 0.0
C190 C 0.75741 0.85423 0.40184 0.0
C191 C 0.66075 0.8592 0.40341 0.0
O192 O 0.67289 0.84325 0.39381 0.0
O193 O 0.671 0.86271 0.4167 0.0
O194 O 0.70365 0.7885 0.38076 0.0
O195 O 0.69984 0.77882 0.4054 0.0
O196 O 0.88847 0.99819 0.16222 0.0
Cd197 Cd 0.90021 0.96229 0.17372 0.0
Cd198 Cd 0.93268 0.95837 0.14569 0.0
O199 O 0.91584 0.99768 0.14186 0.0
O200 O 0.88014 0.96847 0.19343 0.0
O201 O 0.92632 0.96586 0.19199 0.0
C202 C 0.90411 0.9701 0.20015 0.0
C203 C 0.97924 0.9494 0.1386 0.0
C204 C 0.89714 0.00956 0.14996 0.0
C205 C 0.8893 0.91301 0.15288 0.0
O206 O 0.90658 0.92406 0.14357 0.0
O207 O 0.88472 0.92419 0.16586 0.0
O208 O 0.95973 0.95261 0.12857 0.0
O209 O 0.97253 0.95231 0.15282 0.0
O210 O 0.75394 0.13969 0.91033 0.0
Cd211 Cd 0.78978 0.1527 0.92164 0.0
Cd212 Cd 0.79254 0.18267 0.89325 0.0
O213 O 0.75268 0.16729 0.89009 0.0
O214 O 0.78426 0.13224 0.94129 0.0
O215 O 0.78528 0.17848 0.94003 0.0
C216 C 0.78173 0.15605 0.9481 0.0
C217 C 0.80285 0.22922 0.88692 0.0
C218 C 0.74163 0.14833 0.89834 0.0
C219 C 0.83785 0.14005 0.90031 0.0
O220 O 0.82533 0.155 0.89041 0.0
O221 O 0.82853 0.13832 0.91392 0.0
O222 O 0.79848 0.21051 0.87656 0.0
O223 O 0.80041 0.2217 0.90105 0.0
O224 O 0.88774 0.50228 0.66191 0.0
Cd225 Cd 0.90081 0.53838 0.67299 0.0
Cd226 Cd 0.93095 0.54073 0.64483 0.0
O227 O 0.91586 0.5007 0.64189 0.0
O228 O 0.88081 0.53335 0.69281 0.0
O229 O 0.92702 0.53447 0.69121 0.0
C230 C 0.90479 0.53116 0.69947 0.0
C231 C 0.97753 0.55109 0.63859 0.0
C232 C 0.89671 0.48974 0.65005 0.0
C233 C 0.88811 0.58599 0.65143 0.0
O234 O 0.90315 0.57332 0.64162 0.0
O235 O 0.88634 0.57694 0.66508 0.0
O236 O 0.95896 0.5464 0.6282 0.0
O237 O 0.96984 0.54897 0.65271 0.0
O238 O 0.74393 0.63649 0.91424 0.0
Cd239 Cd 0.70814 0.65124 0.92476 0.0
Cd240 Cd 0.70677 0.68246 0.8973 0.0
O241 O 0.74637 0.66549 0.89462 0.0
O242 O 0.71075 0.63366 0.94539 0.0
O243 O 0.71323 0.6795 0.94189 0.0
C244 C 0.71438 0.65832 0.95109 0.0
C245 C 0.69852 0.72966 0.8916 0.0
C246 C 0.75678 0.64566 0.90253 0.0
C247 C 0.66008 0.64077 0.90308 0.0
O248 O 0.67262 0.65671 0.89363 0.0
O249 O 0.6698 0.63727 0.91649 0.0
O250 O 0.70377 0.7116 0.88101 0.0
O251 O 0.69902 0.72113 0.90562 0.0
O252 O 0.61386 0.49724 0.1622 0.0
Cd253 Cd 0.60152 0.46141 0.17357 0.0
Cd254 Cd 0.56902 0.45808 0.1461 0.0
O255 O 0.58539 0.4976 0.14233 0.0
O256 O 0.62149 0.4671 0.19334 0.0
O257 O 0.57529 0.46533 0.19178 0.0
C258 C 0.59748 0.4692 0.2 0.0
C259 C 0.52187 0.44888 0.14073 0.0
C260 C 0.60469 0.50903 0.15018 0.0
C261 C 0.61218 0.41257 0.15234 0.0
O262 O 0.59524 0.42412 0.14303 0.0
O263 O 0.61643 0.42318 0.16549 0.0
O264 O 0.53979 0.45348 0.12998 0.0
O265 O 0.5305 0.45049 0.1547 0.0
O266 O 0.75353 0.36227 0.41124 0.0
Cd267 Cd 0.78947 0.34876 0.42225 0.0
Cd268 Cd 0.79149 0.31866 0.39426 0.0
O269 O 0.75133 0.33358 0.39151 0.0
O270 O 0.78472 0.36906 0.442 0.0
O271 O 0.78501 0.32282 0.44056 0.0
C272 C 0.78194 0.34519 0.44873 0.0
C273 C 0.80184 0.27177 0.38901 0.0
C274 C 0.74069 0.35306 0.39954 0.0
C275 C 0.83702 0.36102 0.40046 0.0
O276 O 0.82398 0.34639 0.3906 0.0
O277 O 0.82818 0.36256 0.41417 0.0
O278 O 0.79606 0.28929 0.37823 0.0
O279 O 0.80091 0.28069 0.40295 0.0
O280 O 0.88879 0.5 0.84912 0.0
Cd281 Cd 0.9011 0.46475 0.83719 0.0
Cd282 Cd 0.93332 0.46003 0.86522 0.0
O283 O 0.91565 0.49872 0.86967 0.0
O284 O 0.88101 0.47146 0.81755 0.0
O285 O 0.92721 0.46921 0.81896 0.0
C286 C 0.90497 0.47347 0.81084 0.0
C287 C 0.97997 0.45146 0.87223 0.0
C288 C 0.89697 0.51077 0.86163 0.0
C289 C 0.89083 0.41433 0.85733 0.0
O290 O 0.9079 0.42516 0.86681 0.0
O291 O 0.88608 0.42611 0.84453 0.0
O292 O 0.96036 0.45391 0.88228 0.0
O293 O 0.9733 0.45499 0.85804 0.0
O294 O 0.75498 0.63701 0.09727 0.0
Cd295 Cd 0.79053 0.65128 0.08627 0.0
Cd296 Cd 0.79279 0.68287 0.11397 0.0
O297 O 0.75359 0.66534 0.11723 0.0
O298 O 0.78694 0.6335 0.06574 0.0
O299 O 0.78518 0.67941 0.06909 0.0
C300 C 0.78347 0.65814 0.05998 0.0
C301 C 0.80097 0.72965 0.12086 0.0
C302 C 0.74276 0.64582 0.10926 0.0
C303 C 0.83942 0.64101 0.10734 0.0
O304 O 0.82736 0.65735 0.11677 0.0
O305 O 0.82908 0.63699 0.09412 0.0
O306 O 0.79728 0.71035 0.13098 0.0
O307 O 0.79881 0.7226 0.10665 0.0
O308 O 0.61152 0.5033 0.34859 0.0
Cd309 Cd 0.59882 0.5392 0.3372 0.0
Cd310 Cd 0.56844 0.54213 0.36548 0.0
O311 O 0.58354 0.50218 0.36869 0.0
O312 O 0.61932 0.53349 0.31757 0.0
O313 O 0.57309 0.53482 0.3188 0.0
C314 C 0.59552 0.53109 0.31074 0.0
C315 C 0.52196 0.55264 0.37192 0.0
C316 C 0.6026 0.49103 0.36055 0.0
C317 C 0.61154 0.58712 0.35857 0.0
O318 O 0.59636 0.57467 0.36841 0.0
O319 O 0.61337 0.57787 0.34495 0.0
O320 O 0.54074 0.54816 0.38223 0.0
O321 O 0.52939 0.55025 0.35777 0.0
O322 O 0.74818 0.36179 0.59736 0.0
Cd323 Cd 0.71226 0.35002 0.58593 0.0
Cd324 Cd 0.70847 0.31706 0.61332 0.0
O325 O 0.74801 0.33321 0.6172 0.0
O326 O 0.71826 0.37023 0.56625 0.0
O327 O 0.71595 0.32402 0.56763 0.0
C328 C 0.72012 0.34629 0.5595 0.0
C329 C 0.6993 0.26997 0.6189 0.0
C330 C 0.75974 0.35242 0.6094 0.0
C331 C 0.6633 0.36064 0.6071 0.0
O332 O 0.67455 0.34335 0.61633 0.0
O333 O 0.67417 0.36519 0.59403 0.0
O334 O 0.70379 0.28807 0.62956 0.0
O335 O 0.70091 0.2784 0.60489 0.0
O336 O 0.11401 0.49407 0.34736 0.0
Cd337 Cd 0.0979 0.45839 0.3371 0.0
Cd338 Cd 0.06829 0.45876 0.36437 0.0
O339 O 0.08362 0.49898 0.36619 0.0
O340 O 0.11544 0.46 0.31642 0.0
O341 O 0.06976 0.46429 0.31999 0.0
C342 C 0.09092 0.46452 0.31074 0.0
C343 C 0.02117 0.44889 0.36925 0.0
C344 C 0.10427 0.50822 0.35849 0.0
C345 C 0.10936 0.41202 0.3595 0.0
O346 O 0.09566 0.42645 0.36917 0.0
O347 O 0.11031 0.41949 0.34554 0.0
O348 O 0.03817 0.4557 0.38009 0.0
O349 O 0.03072 0.44866 0.35542 0.0
O350 O 0.25362 0.36249 0.10016 0.0
Cd351 Cd 0.2891 0.34901 0.08862 0.0
Cd352 Cd 0.29209 0.31913 0.11713 0.0
O353 O 0.25241 0.33495 0.12044 0.0
O354 O 0.28348 0.36935 0.06893 0.0
O355 O 0.28417 0.32312 0.07031 0.0
C356 C 0.28075 0.34551 0.06218 0.0
C357 C 0.30231 0.27263 0.12373 0.0
C358 C 0.24145 0.35406 0.11225 0.0
C359 C 0.33755 0.36144 0.1097 0.0
O360 O 0.32505 0.34668 0.11971 0.0
O361 O 0.3281 0.36309 0.09613 0.0
O362 O 0.29812 0.2916 0.13398 0.0
O363 O 0.2997 0.27985 0.10957 0.0
O364 O 0.38673 0.5035 0.84688 0.0
Cd365 Cd 0.40232 0.53893 0.83604 0.0
Cd366 Cd 0.43098 0.54066 0.86404 0.0
O367 O 0.41552 0.50064 0.86656 0.0
O368 O 0.38499 0.53579 0.81538 0.0
O369 O 0.43074 0.53298 0.81904 0.0
C370 C 0.40967 0.53186 0.80976 0.0
C371 C 0.47733 0.55113 0.87071 0.0
C372 C 0.39571 0.49045 0.85858 0.0
C373 C 0.3895 0.58667 0.85734 0.0
O374 O 0.40324 0.57323 0.86739 0.0
O375 O 0.38887 0.57811 0.84357 0.0
O376 O 0.45852 0.54591 0.88092 0.0
O377 O 0.47008 0.54927 0.85652 0.0
O378 O 0.24795 0.63669 0.5993 0.0
Cd379 Cd 0.21229 0.64867 0.58766 0.0
Cd380 Cd 0.20804 0.68131 0.6153 0.0
O381 O 0.24731 0.66471 0.61939 0.0
O382 O 0.21839 0.62841 0.56799 0.0
O383 O 0.21625 0.67463 0.56933 0.0
C384 C 0.22029 0.65233 0.56121 0.0
C385 C 0.19884 0.72831 0.62106 0.0
C386 C 0.25917 0.64567 0.61153 0.0
C387 C 0.16274 0.63822 0.60851 0.0
O388 O 0.17388 0.65526 0.6179 0.0
O389 O 0.17391 0.63376 0.59551 0.0
O390 O 0.20304 0.71001 0.63166 0.0
O391 O 0.20088 0.72015 0.60702 0.0
O392 O 0.11433 0.50613 0.1645 0.0
Cd393 Cd 0.10021 0.5416 0.17563 0.0
Cd394 Cd 0.06866 0.54426 0.14786 0.0
O395 O 0.0861 0.50508 0.14449 0.0
O396 O 0.11781 0.53758 0.19619 0.0
O397 O 0.07193 0.53617 0.19274 0.0
C398 C 0.09311 0.53417 0.2019 0.0
C399 C 0.02213 0.55276 0.14062 0.0
C400 C 0.10556 0.4941 0.15245 0.0
C401 C 0.11067 0.5907 0.15471 0.0
O402 O 0.09432 0.57876 0.14526 0.0
O403 O 0.11465 0.58023 0.16791 0.0
O404 O 0.04169 0.5491 0.13065 0.0
O405 O 0.02874 0.55037 0.15488 0.0
O406 O 0.24807 0.36291 0.91298 0.0
Cd407 Cd 0.21237 0.3514 0.92476 0.0
Cd408 Cd 0.20755 0.31835 0.89747 0.0
O409 O 0.24704 0.33429 0.89316 0.0
O410 O 0.21894 0.37142 0.94446 0.0
O411 O 0.21608 0.32525 0.94302 0.0
C412 C 0.22054 0.34741 0.95117 0.0
C413 C 0.19764 0.27141 0.89179 0.0
C414 C 0.25913 0.35348 0.90081 0.0
C415 C 0.16305 0.36249 0.90396 0.0
O416 O 0.1739 0.34502 0.89469 0.0
O417 O 0.17422 0.36695 0.91696 0.0
O418 O 0.20212 0.2896 0.88118 0.0
O419 O 0.19973 0.27962 0.90582 0.0
O420 O 0.38864 0.4947 0.6634 0.0
Cd421 Cd 0.40458 0.45917 0.67394 0.0
Cd422 Cd 0.43333 0.45853 0.64582 0.0
O423 O 0.41711 0.49832 0.6436 0.0
O424 O 0.38688 0.46151 0.69456 0.0
O425 O 0.43264 0.46505 0.69112 0.0
C426 C 0.41141 0.46565 0.70031 0.0
C427 C 0.47994 0.44919 0.63919 0.0
C428 C 0.3973 0.5081 0.65174 0.0
C429 C 0.39252 0.41174 0.65227 0.0
O430 O 0.40623 0.42548 0.64231 0.0
O431 O 0.39159 0.4201 0.66607 0.0
O432 O 0.46113 0.45422 0.62897 0.0
O433 O 0.4725 0.45057 0.65337 0.0
O434 O 0.25165 0.63735 0.41177 0.0
Cd435 Cd 0.28723 0.64929 0.42351 0.0
Cd436 Cd 0.2915 0.68251 0.39617 0.0
O437 O 0.25241 0.66574 0.39184 0.0
O438 O 0.28113 0.62887 0.44313 0.0
O439 O 0.28316 0.6751 0.44187 0.0
C440 C 0.27917 0.65274 0.44995 0.0
C441 C 0.30027 0.72975 0.39082 0.0
C442 C 0.24053 0.64651 0.39955 0.0
C443 C 0.33695 0.63944 0.40268 0.0
O444 O 0.32584 0.65674 0.39341 0.0
O445 O 0.32568 0.63459 0.41562 0.0
O446 O 0.29632 0.71172 0.38006 0.0
O447 O 0.29828 0.72117 0.40478 0.0
H448 H 0.36249 0.9934 0.29525 0.0
H449 H 0.44943 0.96797 0.29276 0.0
H450 H 0.36414 0.00863 0.2689 0.0
H451 H 0.45081 0.98198 0.26582 0.0
H452 H 0.44943 0.03413 0.22116 0.0
H453 H 0.4505 0.02003 0.24809 0.0
H454 H 0.36475 0.99087 0.24435 0.0
H455 H 0.36336 0.00619 0.218 0.0
C456 C 0.38192 0.99065 0.28897 0.0
C457 C 0.40576 0.97921 0.29608 0.0
C458 C 0.38285 0.99928 0.27376 0.0
C459 C 0.4075 0.99623 0.26503 0.0
C460 C 0.43151 0.9849 0.27217 0.0
C461 C 0.43069 0.97664 0.28758 0.0
C462 C 0.43082 0.02488 0.2262 0.0
C463 C 0.4062 0.02165 0.21751 0.0
C464 C 0.43147 0.01657 0.2416 0.0
C465 C 0.40761 0.00452 0.24855 0.0
C466 C 0.3833 0.00079 0.23964 0.0
C467 C 0.38252 0.00947 0.22443 0.0
H468 H 0.26108 0.20486 0.54729 0.0
H469 H 0.29083 0.12037 0.53942 0.0
H470 H 0.24314 0.20667 0.52106 0.0
H471 H 0.27374 0.1224 0.51332 0.0
H472 H 0.21178 0.11873 0.47513 0.0
H473 H 0.22873 0.12134 0.50124 0.0
H474 H 0.25506 0.20711 0.49377 0.0
H475 H 0.23725 0.20469 0.46753 0.0
C476 C 0.26422 0.18689 0.53989 0.0
C477 C 0.27714 0.16238 0.54548 0.0
C478 C 0.25395 0.18792 0.52486 0.0
C479 C 0.2565 0.16448 0.51514 0.0
C480 C 0.27066 0.14056 0.52059 0.0
C481 C 0.2807 0.13947 0.53555 0.0
C482 C 0.22093 0.13827 0.47906 0.0
C483 C 0.22335 0.16143 0.4692 0.0
C484 C 0.2309 0.1397 0.49403 0.0
C485 C 0.24384 0.16425 0.49955 0.0
C486 C 0.24521 0.18789 0.4899 0.0
C487 C 0.23501 0.1865 0.47487 0.0
H488 H 0.12901 0.04352 0.78713 0.0
H489 H 0.04485 0.01292 0.79502 0.0
H490 H 0.12695 0.02688 0.76093 0.0
H491 H 0.04301 0.99546 0.76869 0.0
H492 H 0.04496 0.98955 0.71516 0.0
H493 H 0.04247 0.00763 0.74137 0.0
H494 H 0.12835 0.98176 0.74886 0.0
H495 H 0.13101 0.9645 0.72281 0.0
C496 C 0.10996 0.03334 0.78324 0.0
C497 C 0.08718 0.02936 0.79321 0.0
C498 C 0.10886 0.02356 0.76822 0.0
C499 C 0.08504 0.00926 0.76276 0.0
C500 C 0.06168 0.00638 0.77251 0.0
C501 C 0.06273 0.01638 0.7876 0.0
C502 C 0.06317 0.98751 0.72249 0.0
C503 C 0.08826 0.97582 0.71686 0.0
C504 C 0.06174 0.99785 0.73751 0.0
C505 C 0.08538 0.99665 0.74715 0.0
C506 C 0.10998 0.98379 0.74165 0.0
C507 C 0.11144 0.97364 0.72671 0.0
H508 H 0.25655 0.88883 0.96471 0.0
H509 H 0.28311 0.80229 0.96784 0.0
H510 H 0.24123 0.88763 0.99105 0.0
H511 H 0.269 0.80139 0.99477 0.0
H512 H 0.21679 0.80303 0.03936 0.0
H513 H 0.23084 0.80161 0.01243 0.0
H514 H 0.25884 0.88783 0.01565 0.0
H515 H 0.24359 0.88955 0.042 0.0
C516 C 0.25953 0.86959 0.97112 0.0
C517 C 0.27131 0.84573 0.9642 0.0
C518 C 0.25084 0.86893 0.98634 0.0
C519 C 0.25416 0.84453 0.99524 0.0
C520 C 0.26585 0.8205 0.98828 0.0
C521 C 0.27417 0.82104 0.97288 0.0
C522 C 0.22576 0.82167 0.03421 0.0
C523 C 0.22871 0.8465 0.04275 0.0
C524 C 0.23405 0.82082 0.01881 0.0
C525 C 0.24579 0.84469 0.01171 0.0
C526 C 0.24919 0.86925 0.02047 0.0
C527 C 0.24054 0.87021 0.03569 0.0
H528 H 0.5512 0.9655 0.79048 0.0
H529 H 0.63756 0.9925 0.79376 0.0
H530 H 0.55017 0.98036 0.76367 0.0
H531 H 0.6362 0.00866 0.76759 0.0
H532 H 0.63828 0.0083 0.71669 0.0
H533 H 0.63668 0.99222 0.74288 0.0
H534 H 0.54997 0.01863 0.74624 0.0
H535 H 0.55128 0.03342 0.71942 0.0
C536 C 0.56989 0.97468 0.78549 0.0
C537 C 0.59457 0.97743 0.79417 0.0
C538 C 0.56927 0.98346 0.77017 0.0
C539 C 0.5932 0.99553 0.76329 0.0
C540 C 0.61758 0.99874 0.77221 0.0
C541 C 0.61834 0.98956 0.78733 0.0
C542 C 0.61886 0.01084 0.723 0.0
C543 C 0.59498 0.02241 0.716 0.0
C544 C 0.61796 0.00172 0.73813 0.0
C545 C 0.5933 0.00441 0.74689 0.0
C546 C 0.56927 0.01594 0.73986 0.0
C547 C 0.57006 0.02466 0.72453 0.0
H548 H 0.7387 0.7961 0.46573 0.0
H549 H 0.71114 0.88143 0.47325 0.0
H550 H 0.75637 0.79409 0.49201 0.0
H551 H 0.72788 0.87921 0.49942 0.0
H552 H 0.78914 0.88168 0.53792 0.0
H553 H 0.77248 0.87934 0.51175 0.0
H554 H 0.74448 0.79407 0.51917 0.0
H555 H 0.76207 0.7962 0.54546 0.0
C556 C 0.73597 0.81423 0.47307 0.0
C557 C 0.72376 0.83901 0.46737 0.0
C558 C 0.74608 0.81308 0.48812 0.0
C559 C 0.74406 0.83668 0.49777 0.0
C560 C 0.73058 0.86091 0.49221 0.0
C561 C 0.72072 0.86211 0.47721 0.0
C562 C 0.77969 0.8623 0.53396 0.0
C563 C 0.77675 0.8392 0.54382 0.0
C564 C 0.76988 0.86103 0.51896 0.0
C565 C 0.75654 0.83672 0.51341 0.0
C566 C 0.75465 0.81312 0.52306 0.0
C567 C 0.76471 0.81433 0.53812 0.0
H568 H 0.95005 0.03241 0.29138 0.0
H569 H 0.86316 0.00701 0.29438 0.0
H570 H 0.95099 0.01809 0.26449 0.0
H571 H 0.86438 0.99147 0.26808 0.0
H572 H 0.86279 0.99366 0.21716 0.0
H573 H 0.86455 0.00898 0.24348 0.0
H574 H 0.9504 0.97993 0.24686 0.0
H575 H 0.94895 0.96582 0.21993 0.0
C576 C 0.93123 0.02367 0.28632 0.0
C577 C 0.90643 0.02122 0.29495 0.0
C578 C 0.93179 0.01523 0.27094 0.0
C579 C 0.90767 0.00383 0.26396 0.0
C580 C 0.88317 0.00088 0.27281 0.0
C581 C 0.88248 0.00969 0.288 0.0
C582 C 0.88205 0.99038 0.22349 0.0
C583 C 0.90565 0.97825 0.21648 0.0
C584 C 0.88304 0.99908 0.2387 0.0
C585 C 0.9075 0.9954 0.2475 0.0
C586 C 0.93126 0.98335 0.24045 0.0
C587 C 0.93039 0.97503 0.22506 0.0
H588 H 0.78433 0.20069 0.96813 0.0
H589 H 0.75914 0.11377 0.96478 0.0
H590 H 0.76965 0.20129 0.99498 0.0
H591 H 0.74322 0.11467 0.99102 0.0
H592 H 0.74421 0.11254 0.04194 0.0
H593 H 0.7601 0.11458 0.01571 0.0
H594 H 0.73122 0.20051 0.01241 0.0
H595 H 0.71656 0.19879 0.03924 0.0
C596 C 0.77558 0.18178 0.97311 0.0
C597 C 0.77327 0.15709 0.9644 0.0
C598 C 0.76692 0.18216 0.98846 0.0
C599 C 0.75543 0.15794 0.99532 0.0
C600 C 0.75268 0.13352 0.98639 0.0
C601 C 0.76171 0.13303 0.97123 0.0
C602 C 0.74109 0.13188 0.03563 0.0
C603 C 0.72885 0.15542 0.04265 0.0
C604 C 0.75011 0.13303 0.02049 0.0
C605 C 0.74667 0.1576 0.01174 0.0
C606 C 0.73449 0.1813 0.01878 0.0
C607 C 0.72584 0.18027 0.03412 0.0
H608 H 0.95003 0.53425 0.71905 0.0
H609 H 0.86281 0.50973 0.71684 0.0
H610 H 0.95132 0.52077 0.74607 0.0
H611 H 0.86436 0.49503 0.74327 0.0
H612 H 0.86378 0.49785 0.79412 0.0
H613 H 0.86528 0.51308 0.76776 0.0
H614 H 0.95068 0.4829 0.76392 0.0
H615 H 0.94952 0.4689 0.79086 0.0
C616 C 0.9312 0.52591 0.72432 0.0
C617 C 0.90623 0.52342 0.71586 0.0
C618 C 0.93197 0.51795 0.73977 0.0
C619 C 0.90786 0.50701 0.747 0.0
C620 C 0.88315 0.50409 0.73834 0.0
C621 C 0.88228 0.51241 0.72307 0.0
C622 C 0.8829 0.49434 0.78767 0.0
C623 C 0.90644 0.48189 0.79455 0.0
C624 C 0.88373 0.50298 0.77246 0.0
C625 C 0.90796 0.49891 0.76351 0.0
C626 C 0.93171 0.48662 0.77044 0.0
C627 C 0.93101 0.47837 0.78585 0.0
H628 H 0.78779 0.61866 0.03769 0.0
H629 H 0.76153 0.70436 0.04535 0.0
H630 H 0.77057 0.62109 0.01163 0.0
H631 H 0.74341 0.7066 0.01917 0.0
H632 H 0.70852 0.61934 0.97354 0.0
H633 H 0.7255 0.62165 0.99966 0.0
H634 H 0.75503 0.70629 0.99187 0.0
H635 H 0.73716 0.7042 0.96563 0.0
C636 C 0.7784 0.63811 0.03378 0.0
C637 C 0.77585 0.66124 0.04364 0.0
C638 C 0.76827 0.63943 0.01885 0.0
C639 C 0.75501 0.66384 0.01336 0.0
C640 C 0.7535 0.68747 0.02301 0.0
C641 C 0.76387 0.68619 0.03801 0.0
C642 C 0.71836 0.63859 0.97741 0.0
C643 C 0.72168 0.6615 0.96747 0.0
C644 C 0.72835 0.63983 0.99238 0.0
C645 C 0.74223 0.66394 0.9978 0.0
C646 C 0.74445 0.6874 0.98808 0.0
C647 C 0.73421 0.68621 0.97305 0.0
H648 H 0.551 0.534 0.29066 0.0
H649 H 0.63764 0.508 0.29414 0.0
H650 H 0.55035 0.51915 0.26385 0.0
H651 H 0.63669 0.49189 0.26795 0.0
H652 H 0.63897 0.49239 0.21701 0.0
H653 H 0.63706 0.50842 0.2432 0.0
H654 H 0.55076 0.48071 0.2465 0.0
H655 H 0.55237 0.46593 0.21969 0.0
C656 C 0.56984 0.52504 0.28572 0.0
C657 C 0.59447 0.52255 0.29446 0.0
C658 C 0.56943 0.51628 0.27039 0.0
C659 C 0.59356 0.50449 0.26357 0.0
C660 C 0.61791 0.50157 0.27254 0.0
C661 C 0.61844 0.51072 0.28767 0.0
C662 C 0.61957 0.48955 0.22331 0.0
C663 C 0.5959 0.47761 0.21629 0.0
C664 C 0.6185 0.49865 0.23844 0.0
C665 C 0.59386 0.49559 0.24718 0.0
C666 C 0.57004 0.48369 0.24014 0.0
C667 C 0.57099 0.47496 0.22481 0.0
H668 H 0.716 0.30164 0.53957 0.0
H669 H 0.7443 0.38761 0.54277 0.0
H670 H 0.73086 0.30027 0.51276 0.0
H671 H 0.76044 0.3859 0.51658 0.0
H672 H 0.76007 0.38756 0.46564 0.0
H673 H 0.74403 0.38644 0.49184 0.0
H674 H 0.76925 0.29938 0.4954 0.0
H675 H 0.784 0.30023 0.46857 0.0
C676 C 0.72547 0.32018 0.53456 0.0
C677 C 0.7286 0.34485 0.54322 0.0
C678 C 0.73424 0.31935 0.51924 0.0
C679 C 0.74668 0.34307 0.51234 0.0
C680 C 0.75024 0.36745 0.52123 0.0
C681 C 0.74108 0.36841 0.53635 0.0
C682 C 0.76237 0.36816 0.47199 0.0
C683 C 0.77358 0.34405 0.46504 0.0
C684 C 0.75326 0.36754 0.48713 0.0
C685 C 0.75562 0.34292 0.49595 0.0
C686 C 0.76682 0.31867 0.48898 0.0
C687 C 0.77553 0.31918 0.47364 0.0
H688 H 0.12968 0.45742 0.28827 0.0
H689 H 0.04573 0.4886 0.29618 0.0
H690 H 0.12788 0.47445 0.26214 0.0
H691 H 0.04417 0.50649 0.26993 0.0
H692 H 0.04635 0.51317 0.21645 0.0
H693 H 0.04359 0.49487 0.2426 0.0
H694 H 0.12977 0.51961 0.25021 0.0
H695 H 0.13269 0.53705 0.22419 0.0
C696 C 0.11073 0.46781 0.2844 0.0
C697 C 0.08793 0.47184 0.29435 0.0
C698 C 0.10979 0.47783 0.26942 0.0
C699 C 0.08612 0.49243 0.26399 0.0
C700 C 0.06273 0.49535 0.27372 0.0
C701 C 0.06362 0.48511 0.28876 0.0
C702 C 0.06456 0.51494 0.2238 0.0
C703 C 0.08982 0.52633 0.2182 0.0
C704 C 0.06299 0.50446 0.23878 0.0
C705 C 0.08662 0.50525 0.24844 0.0
C706 C 0.11139 0.51788 0.24298 0.0
C707 C 0.113 0.52814 0.22807 0.0
H708 H 0.25859 0.38782 0.04535 0.0
H709 H 0.28307 0.30067 0.04227 0.0
H710 H 0.24296 0.38686 0.01907 0.0
H711 H 0.26868 0.29998 0.01539 0.0
H712 H 0.21618 0.30255 0.97096 0.0
H713 H 0.23052 0.30094 0.99783 0.0
H714 H 0.2601 0.38661 0.99441 0.0
H715 H 0.24454 0.38855 0.96813 0.0
C716 C 0.26106 0.36849 0.03896 0.0
C717 C 0.27234 0.34439 0.04588 0.0
C718 C 0.25219 0.36796 0.02378 0.0
C719 C 0.25485 0.34345 0.0149 0.0
C720 C 0.26604 0.31919 0.02186 0.0
C721 C 0.27453 0.31961 0.03723 0.0
C722 C 0.22556 0.32104 0.97606 0.0
C723 C 0.22886 0.34579 0.96747 0.0
C724 C 0.23402 0.32007 0.99143 0.0
C725 C 0.24629 0.34373 0.99845 0.0
C726 C 0.25003 0.3682 0.98965 0.0
C727 C 0.24121 0.36929 0.97447 0.0
H728 H 0.37059 0.53683 0.78733 0.0
H729 H 0.45604 0.51001 0.79519 0.0
H730 H 0.37342 0.52038 0.76114 0.0
H731 H 0.45868 0.49271 0.76883 0.0
H732 H 0.45699 0.48841 0.71515 0.0
H733 H 0.45875 0.50551 0.74156 0.0
H734 H 0.37416 0.47544 0.74884 0.0
H735 H 0.37219 0.45919 0.72258 0.0
C736 C 0.39007 0.52748 0.78344 0.0
C737 C 0.41301 0.52454 0.7934 0.0
C738 C 0.39162 0.5178 0.76842 0.0
C739 C 0.41608 0.50464 0.76293 0.0
C740 C 0.43952 0.50274 0.77268 0.0
C741 C 0.43801 0.51263 0.78778 0.0
C742 C 0.43894 0.4852 0.72249 0.0
C743 C 0.41435 0.47271 0.71673 0.0
C744 C 0.43994 0.49498 0.73762 0.0
C745 C 0.4164 0.49236 0.74726 0.0
C746 C 0.39241 0.47857 0.74164 0.0
C747 C 0.39135 0.46901 0.72658 0.0
H748 H 0.24322 0.61062 0.54421 0.0
H749 H 0.21659 0.69717 0.54138 0.0
H750 H 0.25849 0.61212 0.51785 0.0
H751 H 0.23064 0.69838 0.51445 0.0
H752 H 0.28274 0.69747 0.46986 0.0
H753 H 0.26869 0.69848 0.49679 0.0
H754 H 0.24106 0.61218 0.49324 0.0
H755 H 0.25633 0.61087 0.46688 0.0
C756 C 0.24021 0.62992 0.53786 0.0
C757 C 0.22844 0.6537 0.54487 0.0
C758 C 0.24886 0.63076 0.52264 0.0
C759 C 0.24552 0.65526 0.51382 0.0
C760 C 0.23382 0.6792 0.52087 0.0
C761 C 0.22553 0.67847 0.53627 0.0
C762 C 0.27385 0.67872 0.47494 0.0
C763 C 0.27101 0.65399 0.46629 0.0
C764 C 0.26556 0.67933 0.49034 0.0
C765 C 0.25392 0.65532 0.49735 0.0
C766 C 0.25064 0.63087 0.48849 0.0
C767 C 0.2593 0.63014 0.47327 0.0
H768 H 0.3581 0.96027 0.16559 0.0
H769 H 0.4052 0.96424 0.12339 0.0
H770 H 0.32998 0.92223 0.15532 0.0
H771 H 0.37733 0.92547 0.11321 0.0
H772 H 0.29083 0.89488 0.09447 0.0
H773 H 0.32915 0.9227 0.10466 0.0
H774 H 0.32697 0.87427 0.14641 0.0
H775 H 0.28791 0.8467 0.13633 0.0
C776 C 0.36285 0.95266 0.15421 0.0
C777 C 0.38363 0.96564 0.14522 0.0
C778 C 0.34684 0.93061 0.14836 0.0
C779 C 0.35124 0.92092 0.13338 0.0
C780 C 0.37314 0.93275 0.12471 0.0
C781 C 0.3892 0.95488 0.13057 0.0
C782 C 0.29872 0.88982 0.10575 0.0
C783 C 0.28596 0.86883 0.11468 0.0
C784 C 0.32094 0.90567 0.11154 0.0
C785 C 0.33102 0.90088 0.12641 0.0
C786 C 0.31939 0.87876 0.135 0.0
C787 C 0.29709 0.86288 0.1292 0.0
H788 H 0.28562 0.155 0.37696 0.0
H789 H 0.28725 0.10563 0.41843 0.0
H790 H 0.32453 0.12726 0.3668 0.0
H791 H 0.32563 0.07777 0.40818 0.0
H792 H 0.35572 0.04092 0.34748 0.0
H793 H 0.32712 0.07874 0.35775 0.0
H794 H 0.37458 0.07628 0.39979 0.0
H795 H 0.40303 0.03793 0.3896 0.0
C796 C 0.29451 0.13853 0.384 0.0
C797 C 0.28308 0.13231 0.39843 0.0
C798 C 0.31672 0.12257 0.37815 0.0
C799 C 0.32803 0.10018 0.38663 0.0
C800 C 0.31762 0.09503 0.4014 0.0
C801 C 0.29541 0.11089 0.40723 0.0
C802 C 0.3604 0.04869 0.35883 0.0
C803 C 0.38141 0.03609 0.3678 0.0
C804 C 0.34411 0.07057 0.36468 0.0
C805 C 0.34842 0.08037 0.37964 0.0
C806 C 0.3705 0.0689 0.3883 0.0
C807 C 0.38688 0.04702 0.38243 0.0
H808 H 0.14583 0.03739 0.66614 0.0
H809 H 0.09852 0.03531 0.624 0.0
H810 H 0.17476 0.07515 0.65597 0.0
H811 H 0.12741 0.0734 0.61389 0.0
H812 H 0.21426 0.15325 0.6371 0.0
H813 H 0.17597 0.12444 0.64705 0.0
H814 H 0.17715 0.07475 0.60576 0.0
H815 H 0.21511 0.1036 0.59573 0.0
C816 C 0.14127 0.04531 0.65481 0.0
C817 C 0.12007 0.03309 0.64582 0.0
C818 C 0.15775 0.06711 0.64901 0.0
C819 C 0.15347 0.07712 0.63409 0.0
C820 C 0.13139 0.06587 0.62537 0.0
C821 C 0.11477 0.04415 0.6312 0.0
C822 C 0.20603 0.13649 0.63003 0.0
C823 C 0.21796 0.13053 0.61568 0.0
C824 C 0.18418 0.11993 0.63577 0.0
C825 C 0.1737 0.09722 0.62724 0.0
C826 C 0.18459 0.09225 0.61256 0.0
C827 C 0.20651 0.10868 0.60685 0.0
H828 H 0.09396 0.95932 0.88227 0.0
H829 H 0.14815 0.96641 0.84279 0.0
H830 H 0.12209 0.92001 0.89154 0.0
H831 H 0.17641 0.92753 0.8522 0.0
H832 H 0.21729 0.8488 0.869 0.0
H833 H 0.17915 0.87728 0.85853 0.0
H834 H 0.16955 0.91853 0.90219 0.0
H835 H 0.20714 0.88998 0.91268 0.0
C836 C 0.11161 0.95227 0.87546 0.0
C837 C 0.11903 0.96627 0.86189 0.0
C838 C 0.12777 0.92981 0.88081 0.0
C839 C 0.15161 0.92082 0.87268 0.0
C840 C 0.15803 0.93375 0.85867 0.0
C841 C 0.14193 0.95623 0.85334 0.0
C842 C 0.20664 0.86355 0.87644 0.0
C843 C 0.21548 0.86736 0.89162 0.0
C844 C 0.18491 0.87995 0.87041 0.0
C845 C 0.17148 0.90031 0.8795 0.0
C846 C 0.17924 0.90288 0.89492 0.0
C847 C 0.20099 0.88663 0.9009 0.0
H848 H 0.71117 0.10915 0.91395 0.0
H849 H 0.71282 0.15556 0.87148 0.0
H850 H 0.67262 0.08079 0.90439 0.0
H851 H 0.67368 0.12737 0.86201 0.0
H852 H 0.64332 0.03961 0.84443 0.0
H853 H 0.67139 0.07842 0.85394 0.0
H854 H 0.62387 0.07817 0.89602 0.0
H855 H 0.59597 0.03877 0.88661 0.0
C856 C 0.70295 0.11369 0.90267 0.0
C857 C 0.71539 0.13434 0.89339 0.0
C858 C 0.68063 0.09755 0.89724 0.0
C859 C 0.67022 0.10167 0.88239 0.0
C860 C 0.68153 0.12345 0.87343 0.0
C861 C 0.70387 0.13967 0.87888 0.0
C862 C 0.63851 0.04806 0.85563 0.0
C863 C 0.61767 0.03578 0.86486 0.0
C864 C 0.65449 0.07052 0.86103 0.0
C865 C 0.65001 0.08125 0.87579 0.0
C866 C 0.62806 0.07008 0.88468 0.0
C867 C 0.61201 0.04759 0.87926 0.0
H868 H 0.59631 0.96134 0.62372 0.0
H869 H 0.64509 0.96006 0.66537 0.0
H870 H 0.62461 0.92279 0.61363 0.0
H871 H 0.6735 0.92199 0.6552 0.0
H872 H 0.71476 0.84538 0.63632 0.0
H873 H 0.67584 0.87305 0.64653 0.0
H874 H 0.67353 0.92163 0.60485 0.0
H875 H 0.71195 0.89386 0.59456 0.0
C876 C 0.61273 0.95256 0.63083 0.0
C877 C 0.61869 0.96404 0.64527 0.0
C878 C 0.62901 0.93056 0.62501 0.0
C879 C 0.65145 0.91952 0.63356 0.0
C880 C 0.65623 0.92984 0.64837 0.0
C881 C 0.64005 0.95186 0.65416 0.0
C882 C 0.7056 0.86162 0.62923 0.0
C883 C 0.71671 0.86765 0.6147 0.0
C884 C 0.68338 0.87753 0.63511 0.0
C885 C 0.67175 0.89966 0.62655 0.0
C886 C 0.68181 0.90456 0.61168 0.0
C887 C 0.70404 0.88876 0.60583 0.0
H888 H 0.78743 0.89472 0.4167 0.0
H889 H 0.78611 0.84599 0.37501 0.0
H890 H 0.82592 0.92268 0.40669 0.0
H891 H 0.82516 0.87382 0.36509 0.0
H892 H 0.85672 0.96023 0.34617 0.0
H893 H 0.82795 0.92237 0.35623 0.0
H894 H 0.87489 0.92434 0.39845 0.0
H895 H 0.90351 0.96276 0.38848 0.0
C896 C 0.79568 0.88962 0.4055 0.0
C897 C 0.78339 0.86836 0.39657 0.0
C898 C 0.81796 0.90553 0.39981 0.0
C899 C 0.8285 0.9006 0.38505 0.0
C900 C 0.81724 0.87835 0.37643 0.0
C901 C 0.79494 0.86235 0.38215 0.0
C902 C 0.86125 0.95235 0.35752 0.0
C903 C 0.88216 0.96483 0.3666 0.0
C904 C 0.84486 0.93044 0.36325 0.0
C905 C 0.84898 0.92049 0.3782 0.0
C906 C 0.87096 0.93184 0.38697 0.0
C907 C 0.88743 0.95376 0.38122 0.0
H908 H 0.79087 0.10693 0.09406 0.0
H909 H 0.78786 0.15483 0.136 0.0
H910 H 0.82928 0.07915 0.10418 0.0
H911 H 0.82701 0.12729 0.14603 0.0
H912 H 0.85791 0.04094 0.16497 0.0
H913 H 0.83 0.07924 0.15482 0.0
H914 H 0.87745 0.07637 0.11274 0.0
H915 H 0.90512 0.03732 0.12279 0.0
C916 C 0.79876 0.11193 0.10534 0.0
C917 C 0.78595 0.13283 0.11432 0.0
C918 C 0.82104 0.09612 0.1111 0.0
C919 C 0.83111 0.10083 0.12597 0.0
C920 C 0.81944 0.12287 0.13461 0.0
C921 C 0.79709 0.13873 0.12884 0.0
C922 C 0.86274 0.04868 0.15363 0.0
C923 C 0.88346 0.03571 0.1446 0.0
C924 C 0.84685 0.07089 0.14785 0.0
C925 C 0.85131 0.08075 0.13291 0.0
C926 C 0.87321 0.06895 0.12422 0.0
C927 C 0.88915 0.04666 0.13 0.0
H928 H 0.79227 0.3906 0.59436 0.0
H929 H 0.7862 0.34502 0.63697 0.0
H930 H 0.83051 0.41839 0.60469 0.0
H931 H 0.82509 0.37265 0.64725 0.0
H932 H 0.85578 0.46037 0.66498 0.0
H933 H 0.8279 0.42169 0.65514 0.0
H934 H 0.87847 0.42029 0.61413 0.0
H935 H 0.90614 0.45957 0.62384 0.0
C936 C 0.79946 0.38611 0.60584 0.0
C937 C 0.78587 0.36587 0.61492 0.0
C938 C 0.82161 0.40191 0.61173 0.0
C939 C 0.83073 0.39788 0.62684 0.0
C940 C 0.81827 0.37649 0.63563 0.0
C941 C 0.79609 0.36058 0.62971 0.0
C942 C 0.8613 0.45158 0.65396 0.0
C943 C 0.88291 0.4634 0.64509 0.0
C944 C 0.84542 0.42918 0.64837 0.0
C945 C 0.8508 0.41806 0.63378 0.0
C946 C 0.87355 0.4287 0.62531 0.0
C947 C 0.88947 0.45113 0.63091 0.0
H948 H 0.90217 0.53575 0.88976 0.0
H949 H 0.85914 0.54354 0.84648 0.0
H950 H 0.8734 0.57372 0.90016 0.0
H951 H 0.8302 0.58085 0.85692 0.0
H952 H 0.78508 0.60354 0.91706 0.0
H953 H 0.82401 0.5759 0.90728 0.0
H954 H 0.82725 0.62829 0.867 0.0
H955 H 0.78772 0.65574 0.87665 0.0
C956 C 0.88691 0.54581 0.8824 0.0
C957 C 0.88271 0.53635 0.86735 0.0
C958 C 0.87034 0.56746 0.88838 0.0
C959 C 0.84933 0.58014 0.87942 0.0
C960 C 0.84634 0.57177 0.86411 0.0
C961 C 0.86282 0.55015 0.85815 0.0
C962 C 0.7943 0.60947 0.90621 0.0
C963 C 0.78298 0.63161 0.89753 0.0
C964 C 0.81684 0.59373 0.90066 0.0
C965 C 0.82863 0.59976 0.8863 0.0
C966 C 0.81835 0.62288 0.878 0.0
C967 C 0.79577 0.63867 0.88356 0.0
H968 H 0.71345 0.65459 0.13584 0.0
H969 H 0.71329 0.60477 0.09453 0.0
H970 H 0.67433 0.62683 0.14572 0.0
H971 H 0.67476 0.57683 0.10452 0.0
H972 H 0.64345 0.5408 0.16526 0.0
H973 H 0.67179 0.57874 0.155 0.0
H974 H 0.62578 0.57456 0.11251 0.0
H975 H 0.5976 0.53597 0.12271 0.0
C976 C 0.70487 0.63799 0.12878 0.0
C977 C 0.71677 0.63166 0.11448 0.0
C978 C 0.68252 0.62203 0.13447 0.0
C979 C 0.67158 0.59947 0.12597 0.0
C980 C 0.68246 0.59422 0.11132 0.0
C981 C 0.70477 0.61012 0.10564 0.0
C982 C 0.63902 0.5482 0.1538 0.0
C983 C 0.61853 0.53503 0.14472 0.0
C984 C 0.65516 0.57018 0.14796 0.0
C985 C 0.6512 0.57954 0.13289 0.0
C986 C 0.62958 0.56752 0.1241 0.0
C987 C 0.61335 0.54552 0.12997 0.0
H988 H 0.71084 0.39306 0.41488 0.0
H989 H 0.71112 0.34479 0.37303 0.0
H990 H 0.67215 0.42119 0.40526 0.0
H991 H 0.67187 0.37277 0.3635 0.0
H992 H 0.64162 0.4601 0.34509 0.0
H993 H 0.66973 0.42152 0.35486 0.0
H994 H 0.62308 0.4235 0.39721 0.0
H995 H 0.59512 0.46264 0.38753 0.0
C996 C 0.70229 0.38807 0.40374 0.0
C997 C 0.71438 0.36695 0.39463 0.0
C998 C 0.6799 0.40407 0.39827 0.0
C999 C 0.66907 0.39935 0.38356 0.0
C1000 C 0.68004 0.37714 0.3748 0.0
C1001 C 0.70244 0.36104 0.3803 0.0
C1002 C 0.63701 0.45207 0.3564 0.0
C1003 C 0.6164 0.46477 0.36562 0.0
C1004 C 0.653 0.42974 0.36196 0.0
C1005 C 0.64879 0.41957 0.37686 0.0
C1006 C 0.62706 0.43114 0.38575 0.0
C1007 C 0.61097 0.45348 0.38017 0.0
H1008 H 0.09351 0.54075 0.38366 0.0
H1009 H 0.14781 0.53481 0.34417 0.0
H1010 H 0.1215 0.5799 0.39324 0.0
H1011 H 0.17591 0.57355 0.35387 0.0
H1012 H 0.20667 0.60945 0.41457 0.0
H1013 H 0.16908 0.58111 0.40389 0.0
H1014 H 0.17833 0.62372 0.36059 0.0
H1015 H 0.21643 0.65199 0.37124 0.0
C1016 C 0.11114 0.54803 0.3769 0.0
C1017 C 0.11864 0.53439 0.36324 0.0
C1018 C 0.12722 0.57039 0.38243 0.0
C1019 C 0.15105 0.57966 0.37438 0.0
C1020 C 0.15754 0.56711 0.36028 0.0
C1021 C 0.14153 0.54471 0.35478 0.0
C1022 C 0.20044 0.61314 0.40284 0.0
C1023 C 0.21482 0.63273 0.3937 0.0
C1024 C 0.1787 0.59702 0.39675 0.0
C1025 C 0.17085 0.60004 0.38136 0.0
C1026 C 0.18416 0.62071 0.37244 0.0
C1027 C 0.20587 0.63698 0.37857 0.0
H1028 H 0.21137 0.39397 0.09697 0.0
H1029 H 0.21318 0.34726 0.13933 0.0
H1030 H 0.17367 0.42308 0.10691 0.0
H1031 H 0.1749 0.3762 0.14919 0.0
H1032 H 0.14576 0.46379 0.16735 0.0
H1033 H 0.17355 0.42513 0.15739 0.0
H1034 H 0.12514 0.42644 0.11565 0.0
H1035 H 0.09751 0.46567 0.12553 0.0
C1036 C 0.20336 0.38953 0.1083 0.0
C1037 C 0.21561 0.36854 0.11744 0.0
C1038 C 0.18154 0.40612 0.11396 0.0
C1039 C 0.17143 0.40212 0.12889 0.0
C1040 C 0.18253 0.38005 0.13771 0.0
C1041 C 0.20437 0.36339 0.13203 0.0
C1042 C 0.14073 0.45564 0.15613 0.0
C1043 C 0.11965 0.46811 0.14716 0.0
C1044 C 0.15654 0.43325 0.15046 0.0
C1045 C 0.15167 0.4228 0.13568 0.0
C1046 C 0.12962 0.43428 0.12701 0.0
C1047 C 0.11373 0.45668 0.1327 0.0
H1048 H 0.40597 0.4592 0.88429 0.0
H1049 H 0.35269 0.46288 0.84435 0.0
H1050 H 0.37801 0.42032 0.89422 0.0
H1051 H 0.32456 0.42447 0.85441 0.0
H1052 H 0.28358 0.34699 0.87262 0.0
H1053 H 0.3218 0.37489 0.86178 0.0
H1054 H 0.33055 0.41897 0.90466 0.0
H1055 H 0.29291 0.39096 0.91554 0.0
C1056 C 0.38856 0.4515 0.87752 0.0
C1057 C 0.38134 0.46443 0.86362 0.0
C1058 C 0.37248 0.42928 0.88325 0.0
C1059 C 0.34891 0.41948 0.87517 0.0
C1060 C 0.34272 0.43132 0.86085 0.0
C1061 C 0.35875 0.45354 0.85514 0.0
C1062 C 0.29407 0.36223 0.87982 0.0
C1063 C 0.28496 0.36698 0.89489 0.0
C1064 C 0.31584 0.37831 0.87358 0.0
C1065 C 0.32904 0.3993 0.88231 0.0
C1066 C 0.32104 0.40281 0.89765 0.0
C1067 C 0.29926 0.38687 0.90386 0.0
H1068 H 0.35441 0.53499 0.66648 0.0
H1069 H 0.40669 0.53997 0.62616 0.0
H1070 H 0.32578 0.57344 0.65692 0.0
H1071 H 0.37823 0.5789 0.61672 0.0
H1072 H 0.28416 0.65134 0.63961 0.0
H1073 H 0.32266 0.62322 0.64996 0.0
H1074 H 0.33047 0.58023 0.60668 0.0
H1075 H 0.29254 0.60845 0.5963 0.0
C1076 C 0.36014 0.54462 0.65571 0.0
C1077 C 0.3826 0.53409 0.64698 0.0
C1078 C 0.34383 0.56686 0.65028 0.0
C1079 C 0.3496 0.57909 0.636 0.0
C1080 C 0.37303 0.56963 0.62767 0.0
C1081 C 0.38939 0.54739 0.63311 0.0
C1082 C 0.29448 0.63627 0.63222 0.0
C1083 C 0.28504 0.6319 0.61719 0.0
C1084 C 0.31642 0.62007 0.63818 0.0
C1085 C 0.32946 0.59934 0.62918 0.0
C1086 C 0.32109 0.59618 0.61389 0.0
C1087 C 0.29914 0.61225 0.60797 0.0
H1088 H 0.34861 0.11563 0.16976 0.0
H1089 H 0.39937 0.12032 0.12887 0.0
H1090 H 0.32422 0.15854 0.16217 0.0
H1091 H 0.37564 0.1634 0.12154 0.0
H1092 H 0.3129 0.22748 0.10514 0.0
H1093 H 0.33182 0.1818 0.11255 0.0
H1094 H 0.33253 0.20805 0.15982 0.0
H1095 H 0.31291 0.25323 0.15248 0.0
C1096 C 0.35466 0.12585 0.1592 0.0
C1097 C 0.37598 0.11449 0.14995 0.0
C1098 C 0.34073 0.15051 0.15486 0.0
C1099 C 0.34787 0.16443 0.1412 0.0
C1100 C 0.36918 0.153 0.13198 0.0
C1101 C 0.38299 0.12836 0.13627 0.0
C1102 C 0.31679 0.22335 0.11713 0.0
C1103 C 0.3115 0.24405 0.1282 0.0
C1104 C 0.32784 0.19724 0.12137 0.0
C1105 C 0.33395 0.19128 0.13678 0.0
C1106 C 0.32782 0.21173 0.14788 0.0
C1107 C 0.31669 0.23775 0.14365 0.0
H1108 H 0.13021 0.14893 0.37902 0.0
H1109 H 0.13214 0.09944 0.42042 0.0
H1110 H 0.08738 0.12521 0.37118 0.0
H1111 H 0.08965 0.07502 0.41233 0.0
H1112 H 0.99582 0.06359 0.40167 0.0
H1113 H 0.04064 0.08348 0.4093 0.0
H1114 H 0.06861 0.08155 0.36232 0.0
H1115 H 0.02319 0.06241 0.35459 0.0
C1116 C 0.12162 0.13282 0.38641 0.0
C1117 C 0.13458 0.12621 0.4004 0.0
C1118 C 0.09714 0.11902 0.38184 0.0
C1119 C 0.08503 0.09809 0.39108 0.0
C1120 C 0.09815 0.09128 0.40501 0.0
C1121 C 0.12259 0.10523 0.40964 0.0
C1122 C 0.01159 0.06717 0.39296 0.0
C1123 C 0.00586 0.06154 0.3775 0.0
C1124 C 0.03742 0.07845 0.39737 0.0
C1125 C 0.05828 0.08426 0.38644 0.0
C1126 C 0.05286 0.0778 0.37101 0.0
C1127 C 0.0269 0.06662 0.36659 0.0
H1128 H 0.12561 0.86684 0.67115 0.0
H1129 H 0.1304 0.89861 0.62503 0.0
H1130 H 0.14878 0.82366 0.66306 0.0
H1131 H 0.15513 0.85645 0.61705 0.0
H1132 H 0.16872 0.76497 0.60362 0.0
H1133 H 0.14867 0.80967 0.6115 0.0
H1134 H 0.18982 0.80184 0.65538 0.0
H1135 H 0.20829 0.75628 0.64772 0.0
C1136 C 0.13202 0.86472 0.65933 0.0
C1137 C 0.12596 0.88595 0.6487 0.0
C1138 C 0.14554 0.84004 0.65466 0.0
C1139 C 0.15389 0.8363 0.63932 0.0
C1140 C 0.14848 0.85807 0.62885 0.0
C1141 C 0.13443 0.8824 0.63344 0.0
C1142 C 0.1737 0.77301 0.61488 0.0
C1143 C 0.18996 0.75713 0.62507 0.0
C1144 C 0.16229 0.79877 0.61942 0.0
C1145 C 0.16737 0.80955 0.63418 0.0
C1146 C 0.18474 0.79405 0.6441 0.0
C1147 C 0.19563 0.76803 0.63965 0.0
H1148 H 0.47844 0.93734 0.8522 0.0
H1149 H 0.50262 0.93783 0.89978 0.0
H1150 H 0.43243 0.91873 0.85926 0.0
H1151 H 0.45716 0.91849 0.90677 0.0
H1152 H 0.36469 0.90306 0.9161 0.0
H1153 H 0.40779 0.92721 0.90865 0.0
H1154 H 0.41331 0.87525 0.86827 0.0
H1155 H 0.36998 0.85177 0.87545 0.0
C1156 C 0.4739 0.93361 0.86416 0.0
C1157 C 0.49422 0.93898 0.87541 0.0
C1158 C 0.4476 0.92274 0.86821 0.0
C1159 C 0.44111 0.91689 0.88359 0.0
C1160 C 0.46123 0.92303 0.89485 0.0
C1161 C 0.48742 0.934 0.89081 0.0
C1162 C 0.37508 0.89685 0.90562 0.0
C1163 C 0.36386 0.87543 0.8964 0.0
C1164 C 0.39985 0.91064 0.90136 0.0
C1165 C 0.41405 0.90324 0.88783 0.0
C1166 C 0.40271 0.88189 0.87861 0.0
C1167 C 0.37793 0.86823 0.88281 0.0
H1168 H 0.28981 0.75859 0.36456 0.0
H1169 H 0.33049 0.76605 0.40842 0.0
H1170 H 0.30763 0.80459 0.35723 0.0
H1171 H 0.34995 0.8112 0.40085 0.0
H1172 H 0.36794 0.90047 0.38802 0.0
H1173 H 0.34333 0.8581 0.3958 0.0
H1174 H 0.34818 0.82691 0.34942 0.0
H1175 H 0.37117 0.87031 0.34155 0.0
C1176 C 0.30257 0.77017 0.37264 0.0
C1177 C 0.30875 0.75879 0.38706 0.0
C1178 C 0.31309 0.79645 0.36839 0.0
C1179 C 0.33062 0.81174 0.37832 0.0
C1180 C 0.3362 0.80048 0.39292 0.0
C1181 C 0.32513 0.77446 0.39729 0.0
C1182 C 0.36356 0.88459 0.37948 0.0
C1183 C 0.37157 0.88863 0.36419 0.0
C1184 C 0.34959 0.86013 0.38396 0.0
C1185 C 0.34384 0.83871 0.37332 0.0
C1186 C 0.35168 0.843 0.35794 0.0
C1187 C 0.36509 0.86781 0.35341 0.0
H1188 H 0.38392 0.12521 0.59165 0.0
H1189 H 0.35408 0.12329 0.63824 0.0
H1190 H 0.42723 0.10224 0.59956 0.0
H1191 H 0.39654 0.09886 0.64608 0.0
H1192 H 0.48878 0.08432 0.65813 0.0
H1193 H 0.44403 0.10498 0.65071 0.0
H1194 H 0.44805 0.06075 0.60756 0.0
H1195 H 0.49354 0.04157 0.61472 0.0
C1196 C 0.38649 0.11952 0.60356 0.0
C1197 C 0.36569 0.12622 0.61433 0.0
C1198 C 0.41126 0.10612 0.60811 0.0
C1199 C 0.41559 0.09855 0.62351 0.0
C1200 C 0.39439 0.10482 0.6342 0.0
C1201 C 0.3699 0.1187 0.62969 0.0
C1202 C 0.4799 0.07884 0.64713 0.0
C1203 C 0.49468 0.06146 0.63698 0.0
C1204 C 0.45414 0.09059 0.64286 0.0
C1205 C 0.44231 0.0848 0.62843 0.0
C1206 C 0.4567 0.06638 0.61858 0.0
C1207 C 0.48269 0.0551 0.62274 0.0
H1208 H 0.12422 0.13425 0.84111 0.0
H1209 H 0.12799 0.1013 0.88703 0.0
H1210 H 0.14718 0.17715 0.84963 0.0
H1211 H 0.15247 0.14337 0.89545 0.0
H1212 H 0.16688 0.23501 0.90916 0.0
H1213 H 0.14655 0.19042 0.90118 0.0
H1214 H 0.18858 0.19792 0.85751 0.0
H1215 H 0.20735 0.24326 0.86525 0.0
C1216 C 0.13033 0.13604 0.853 0.0
C1217 C 0.12415 0.11448 0.86341 0.0
C1218 C 0.14375 0.16059 0.8579 0.0
C1219 C 0.15186 0.16394 0.87329 0.0
C1220 C 0.1461 0.14198 0.88361 0.0
C1221 C 0.13219 0.11771 0.87875 0.0
C1222 C 0.17197 0.2269 0.89793 0.0
C1223 C 0.18856 0.24265 0.8878 0.0
C1224 C 0.1604 0.20123 0.89333 0.0
C1225 C 0.1656 0.19045 0.87858 0.0
C1226 C 0.18336 0.20576 0.86877 0.0
C1227 C 0.19442 0.23166 0.87326 0.0
H1228 H 0.13226 0.85429 0.13221 0.0
H1229 H 0.13513 0.90432 0.09101 0.0
H1230 H 0.0894 0.87797 0.13992 0.0
H1231 H 0.09239 0.92865 0.09898 0.0
H1232 H 0.02531 0.94018 0.15671 0.0
H1233 H 0.07102 0.92189 0.14888 0.0
H1234 H 0.04301 0.91983 0.10193 0.0
H1235 H 0.9978 0.9388 0.10968 0.0
C1236 C 0.12387 0.87051 0.12482 0.0
C1237 C 0.13716 0.87731 0.11094 0.0
C1238 C 0.09935 0.88429 0.12934 0.0
C1239 C 0.08746 0.90537 0.12014 0.0
C1240 C 0.10081 0.91233 0.10628 0.0
C1241 C 0.12536 0.89843 0.10172 0.0
C1242 C 0.02907 0.93615 0.1447 0.0
C1243 C 0.00786 0.94082 0.13385 0.0
C1244 C 0.0552 0.92547 0.14021 0.0
C1245 C 0.06066 0.91912 0.12477 0.0
C1246 C 0.03972 0.92472 0.11388 0.0
C1247 C 0.01367 0.93548 0.11836 0.0
H1248 H 0.6673 0.76622 0.90855 0.0
H1249 H 0.71022 0.75809 0.86533 0.0
H1250 H 0.64809 0.81116 0.90046 0.0
H1251 H 0.69254 0.80387 0.85749 0.0
H1252 H 0.62924 0.869 0.84064 0.0
H1253 H 0.65212 0.82586 0.84902 0.0
H1254 H 0.65504 0.85804 0.89524 0.0
H1255 H 0.63063 0.90017 0.88694 0.0
C1256 C 0.67319 0.77443 0.89745 0.0
C1257 C 0.69015 0.75862 0.88756 0.0
C1258 C 0.66227 0.80033 0.89279 0.0
C1259 C 0.66852 0.81133 0.87821 0.0
C1260 C 0.68659 0.79592 0.86861 0.0
C1261 C 0.69701 0.76976 0.87317 0.0
C1262 C 0.63487 0.86678 0.85257 0.0
C1263 C 0.62791 0.88782 0.86315 0.0
C1264 C 0.64821 0.84211 0.85741 0.0
C1265 C 0.65546 0.83817 0.87289 0.0
C1266 C 0.64924 0.8598 0.88332 0.0
C1267 C 0.63538 0.88412 0.87855 0.0
H1268 H 0.00365 0.93737 0.61098 0.0
H1269 H 0.97741 0.93702 0.65825 0.0
H1270 H 0.95871 0.91761 0.60348 0.0
H1271 H 0.93184 0.91803 0.65067 0.0
H1272 H 0.8702 0.85078 0.63381 0.0
H1273 H 0.91304 0.87458 0.64159 0.0
H1274 H 0.90964 0.92581 0.60085 0.0
H1275 H 0.86716 0.90132 0.59281 0.0
C1276 C 0.98809 0.9335 0.61977 0.0
C1277 C 0.99419 0.93864 0.63524 0.0
C1278 C 0.96219 0.92229 0.61544 0.0
C1279 C 0.94161 0.91606 0.62646 0.0
C1280 C 0.94737 0.92209 0.6419 0.0
C1281 C 0.97341 0.93319 0.64625 0.0
C1282 C 0.87854 0.86714 0.6265 0.0
C1283 C 0.86528 0.87402 0.61264 0.0
C1284 C 0.90303 0.88099 0.63104 0.0
C1285 C 0.91483 0.90222 0.62189 0.0
C1286 C 0.90138 0.90931 0.60809 0.0
C1287 C 0.87696 0.89532 0.60349 0.0
H1288 H 0.83376 0.23651 0.40638 0.0
H1289 H 0.79094 0.2422 0.36304 0.0
H1290 H 0.85343 0.19138 0.39893 0.0
H1291 H 0.80909 0.19625 0.35585 0.0
H1292 H 0.87236 0.13027 0.34008 0.0
H1293 H 0.84967 0.17395 0.34777 0.0
H1294 H 0.84633 0.1442 0.39447 0.0
H1295 H 0.87054 0.10152 0.38685 0.0
C1296 C 0.82803 0.22775 0.39539 0.0
C1297 C 0.81092 0.24289 0.38528 0.0
C1298 C 0.83921 0.20175 0.3911 0.0
C1299 C 0.83306 0.18998 0.37669 0.0
C1300 C 0.81495 0.20479 0.36685 0.0
C1301 C 0.80427 0.23105 0.37103 0.0
C1302 C 0.86668 0.13314 0.35197 0.0
C1303 C 0.87344 0.11262 0.36287 0.0
C1304 C 0.85346 0.15812 0.35641 0.0
C1305 C 0.84614 0.16288 0.37181 0.0
C1306 C 0.8522 0.14179 0.38259 0.0
C1307 C 0.86594 0.11715 0.37821 0.0
H1308 H 0.63501 0.09703 0.09096 0.0
H1309 H 0.63268 0.14673 0.13228 0.0
H1310 H 0.59253 0.07244 0.09911 0.0
H1311 H 0.59007 0.12278 0.14018 0.0
H1312 H 0.52647 0.06026 0.15716 0.0
H1313 H 0.57202 0.07867 0.14913 0.0
H1314 H 0.54316 0.08112 0.10234 0.0
H1315 H 0.4981 0.06204 0.11028 0.0
C1316 C 0.62542 0.1028 0.10174 0.0
C1317 C 0.63728 0.1239 0.11094 0.0
C1318 C 0.60101 0.08875 0.1064 0.0
C1319 C 0.58788 0.09554 0.12035 0.0
C1320 C 0.59985 0.11659 0.12953 0.0
C1321 C 0.62422 0.13053 0.12491 0.0
C1322 C 0.53001 0.06439 0.14514 0.0
C1323 C 0.50861 0.05981 0.13439 0.0
C1324 C 0.55605 0.07514 0.14054 0.0
C1325 C 0.56122 0.08165 0.12509 0.0
C1326 C 0.54009 0.07611 0.11429 0.0
C1327 C 0.51414 0.06529 0.11888 0.0
H1328 H 0.71027 0.24144 0.64518 0.0
H1329 H 0.66844 0.23356 0.60166 0.0
H1330 H 0.69245 0.19563 0.65282 0.0
H1331 H 0.64901 0.18856 0.60956 0.0
H1332 H 0.63133 0.09934 0.62304 0.0
H1333 H 0.65567 0.14161 0.61482 0.0
H1334 H 0.65185 0.17381 0.66102 0.0
H1335 H 0.62909 0.1306 0.66932 0.0
C1336 C 0.69724 0.22982 0.63724 0.0
C1337 C 0.69074 0.24103 0.62283 0.0
C1338 C 0.68673 0.20365 0.64168 0.0
C1339 C 0.66888 0.1883 0.63194 0.0
C1340 C 0.66299 0.19936 0.61734 0.0
C1341 C 0.67404 0.22529 0.61279 0.0
C1342 C 0.63587 0.11543 0.63145 0.0
C1343 C 0.62824 0.11171 0.64682 0.0
C1344 C 0.64969 0.13983 0.62671 0.0
C1345 C 0.65569 0.16146 0.63717 0.0
C1346 C 0.64817 0.15753 0.65262 0.0
C1347 C 0.63489 0.13282 0.65741 0.0
H1348 H 0.49582 0.93639 0.40178 0.0
H1349 H 0.52144 0.93795 0.35441 0.0
H1350 H 0.54089 0.9164 0.40887 0.0
H1351 H 0.56713 0.91871 0.36159 0.0
H1352 H 0.62961 0.85142 0.37752 0.0
H1353 H 0.58645 0.8751 0.37015 0.0
H1354 H 0.58991 0.92492 0.41139 0.0
H1355 H 0.6327 0.90054 0.41902 0.0
C1356 C 0.51126 0.93287 0.39288 0.0
C1357 C 0.50497 0.93865 0.3775 0.0
C1358 C 0.53724 0.92152 0.39698 0.0
C1359 C 0.5577 0.91581 0.38581 0.0
C1360 C 0.5517 0.92239 0.37046 0.0
C1361 C 0.52559 0.93362 0.36635 0.0
C1362 C 0.62121 0.86744 0.38503 0.0
C1363 C 0.63458 0.87396 0.39891 0.0
C1364 C 0.59653 0.88122 0.38072 0.0
C1365 C 0.58465 0.90201 0.39014 0.0
C1366 C 0.59821 0.90875 0.40395 0.0
C1367 C 0.62282 0.89482 0.40831 0.0
H1368 H 0.81041 0.74876 0.14977 0.0
H1369 H 0.81118 0.7753 0.10256 0.0
H1370 H 0.82971 0.79387 0.15744 0.0
H1371 H 0.82976 0.82095 0.1103 0.0
H1372 H 0.89776 0.88145 0.12724 0.0
H1373 H 0.87357 0.83887 0.11953 0.0
H1374 H 0.8218 0.84336 0.16004 0.0
H1375 H 0.84665 0.88577 0.16801 0.0
C1376 C 0.81425 0.76442 0.14104 0.0
C1377 C 0.80944 0.75834 0.12553 0.0
C1378 C 0.82519 0.79041 0.14546 0.0
C1379 C 0.83152 0.81104 0.13449 0.0
C1380 C 0.82563 0.80535 0.11903 0.0
C1381 C 0.81477 0.77927 0.11459 0.0
C1382 C 0.8812 0.87344 0.13453 0.0
C1383 C 0.87425 0.88704 0.14829 0.0
C1384 C 0.86712 0.84909 0.13002 0.0
C1385 C 0.84559 0.83769 0.1391 0.0
C1386 C 0.83848 0.85137 0.15283 0.0
C1387 C 0.85268 0.87574 0.15739 0.0
H1388 H 0.9868 0.08472 0.85181 0.0
H1389 H 0.99157 0.03977 0.89456 0.0
H1390 H 0.94193 0.1047 0.85947 0.0
H1391 H 0.94587 0.05831 0.90194 0.0
H1392 H 0.8811 0.12221 0.91851 0.0
H1393 H 0.92436 0.09907 0.91053 0.0
H1394 H 0.89458 0.09814 0.86383 0.0
H1395 H 0.85231 0.12274 0.87175 0.0
C1396 C 0.97789 0.07859 0.8627 0.0
C1397 C 0.99272 0.06078 0.8726 0.0
C1398 C 0.95203 0.08996 0.86711 0.0
C1399 C 0.9401 0.08334 0.88142 0.0
C1400 C 0.95457 0.06453 0.89102 0.0
C1401 C 0.98067 0.05362 0.88673 0.0
C1402 C 0.88387 0.11697 0.90656 0.0
C1403 C 0.86344 0.12451 0.89575 0.0
C1404 C 0.9086 0.10349 0.90195 0.0
C1405 C 0.91324 0.0967 0.88647 0.0
C1406 C 0.89226 0.10357 0.87577 0.0
C1407 C 0.86786 0.11754 0.88033 0.0
H1408 H 0.83271 0.73373 0.60191 0.0
H1409 H 0.78969 0.74076 0.64516 0.0
H1410 H 0.85208 0.68868 0.60973 0.0
H1411 H 0.80749 0.69488 0.65271 0.0
H1412 H 0.87102 0.62995 0.66931 0.0
H1413 H 0.84802 0.67309 0.66109 0.0
H1414 H 0.84551 0.64164 0.61471 0.0
H1415 H 0.87007 0.59948 0.62286 0.0
C1416 C 0.82682 0.72525 0.61295 0.0
C1417 C 0.80981 0.74078 0.62295 0.0
C1418 C 0.83784 0.69929 0.61746 0.0
C1419 C 0.83162 0.68797 0.63196 0.0
C1420 C 0.81345 0.70309 0.64164 0.0
C1421 C 0.80295 0.7293 0.63725 0.0
C1422 C 0.86546 0.63232 0.65737 0.0
C1423 C 0.87256 0.61147 0.64672 0.0
C1424 C 0.85204 0.65699 0.65263 0.0
C1425 C 0.84484 0.66113 0.63716 0.0
C1426 C 0.85125 0.63972 0.62663 0.0
C1427 C 0.8652 0.61538 0.63132 0.0
H1428 H 0.62952 0.64909 0.87704 0.0
H1429 H 0.63195 0.59883 0.91815 0.0
H1430 H 0.58674 0.62528 0.86915 0.0
H1431 H 0.58961 0.57428 0.90999 0.0
H1432 H 0.52263 0.56256 0.85234 0.0
H1433 H 0.56796 0.58196 0.86004 0.0
H1434 H 0.54067 0.5821 0.90716 0.0
H1435 H 0.496 0.5619 0.89954 0.0
C1436 C 0.62105 0.63279 0.88435 0.0
C1437 C 0.63412 0.62599 0.89828 0.0
C1438 C 0.5966 0.61893 0.87975 0.0
C1439 C 0.58467 0.59775 0.88889 0.0
C1440 C 0.59794 0.59075 0.90275 0.0
C1441 C 0.6223 0.60477 0.90742 0.0
C1442 C 0.52649 0.56643 0.86435 0.0
C1443 C 0.50569 0.56072 0.87531 0.0
C1444 C 0.55239 0.57777 0.86877 0.0
C1445 C 0.55798 0.58381 0.88423 0.0
C1446 C 0.53735 0.5774 0.89519 0.0
C1447 C 0.5116 0.56593 0.8908 0.0
H1448 H 0.60421 0.38191 0.12632 0.0
H1449 H 0.65404 0.38444 0.16757 0.0
H1450 H 0.62799 0.3391 0.11853 0.0
H1451 H 0.67849 0.34186 0.15952 0.0
H1452 H 0.68891 0.24748 0.14896 0.0
H1453 H 0.66975 0.29264 0.15662 0.0
H1454 H 0.67176 0.32042 0.10961 0.0
H1455 H 0.69021 0.27471 0.10187 0.0
C1456 C 0.62041 0.37346 0.13369 0.0
C1457 C 0.62711 0.3866 0.14762 0.0
C1458 C 0.63426 0.34898 0.12914 0.0
C1459 C 0.65528 0.33702 0.13835 0.0
C1460 C 0.66218 0.3503 0.15223 0.0
C1461 C 0.64821 0.37477 0.15682 0.0
C1462 C 0.68553 0.26329 0.14025 0.0
C1463 C 0.69093 0.25741 0.12478 0.0
C1464 C 0.67467 0.28931 0.14467 0.0
C1465 C 0.66902 0.31019 0.13374 0.0
C1466 C 0.67538 0.30465 0.11831 0.0
C1467 C 0.68616 0.27853 0.11387 0.0
H1468 H 0.85174 0.37767 0.37176 0.0
H1469 H 0.88029 0.3789 0.41856 0.0
H1470 H 0.89416 0.40206 0.36379 0.0
H1471 H 0.92358 0.40184 0.41057 0.0
H1472 H 0.98675 0.41559 0.35213 0.0
H1473 H 0.94171 0.39567 0.35961 0.0
H1474 H 0.94479 0.44268 0.4019 0.0
H1475 H 0.99059 0.46115 0.39471 0.0
C1476 C 0.86725 0.38298 0.38034 0.0
C1477 C 0.86271 0.3763 0.39579 0.0
C1478 C 0.89172 0.39684 0.37576 0.0
C1479 C 0.9126 0.40391 0.38647 0.0
C1480 C 0.90788 0.39731 0.40197 0.0
C1481 C 0.88311 0.38393 0.40659 0.0
C1482 C 0.9776 0.42186 0.36294 0.0
C1483 C 0.99223 0.4398 0.37286 0.0
C1484 C 0.95166 0.41053 0.36725 0.0
C1485 C 0.93947 0.41731 0.38147 0.0
C1486 C 0.9537 0.43631 0.39106 0.0
C1487 C 0.97987 0.44718 0.38687 0.0
H1488 H 0.89986 0.38154 0.88244 0.0
H1489 H 0.84859 0.38727 0.84182 0.0
H1490 H 0.87623 0.33827 0.88954 0.0
H1491 H 0.82431 0.34415 0.84918 0.0
H1492 H 0.81318 0.24923 0.85826 0.0
H1493 H 0.83272 0.29457 0.85115 0.0
H1494 H 0.83245 0.31978 0.89859 0.0
H1495 H 0.81362 0.27393 0.90577 0.0
C1496 C 0.88339 0.37368 0.87505 0.0
C1497 C 0.8762 0.3879 0.86152 0.0
C1498 C 0.86964 0.34893 0.87922 0.0
C1499 C 0.84822 0.33775 0.87 0.0
C1500 C 0.84091 0.35201 0.85648 0.0
C1501 C 0.85478 0.37678 0.85227 0.0
C1502 C 0.81705 0.26451 0.86718 0.0
C1503 C 0.81201 0.25788 0.8826 0.0
C1504 C 0.82812 0.29063 0.86308 0.0
C1505 C 0.83434 0.31083 0.87429 0.0
C1506 C 0.82838 0.30453 0.88968 0.0
C1507 C 0.8174 0.27833 0.8938 0.0
H1508 H 0.97587 0.56263 0.15853 0.0
H1509 H 0.00408 0.56308 0.1116 0.0
H1510 H 0.93051 0.58142 0.15047 0.0
H1511 H 0.9593 0.58261 0.10362 0.0
H1512 H 0.86781 0.59927 0.09215 0.0
H1513 H 0.91012 0.57461 0.10039 0.0
H1514 H 0.91249 0.62524 0.14137 0.0
H1515 H 0.86993 0.6492 0.13337 0.0
C1516 C 0.97234 0.56655 0.1465 0.0
C1517 C 0.99364 0.56146 0.13573 0.0
C1518 C 0.94642 0.57754 0.14187 0.0
C1519 C 0.94128 0.58381 0.12639 0.0
C1520 C 0.96232 0.57779 0.1156 0.0
C1521 C 0.98812 0.5667 0.12021 0.0
C1522 C 0.87737 0.60511 0.10292 0.0
C1523 C 0.86546 0.62626 0.11207 0.0
C1524 C 0.90168 0.59101 0.10764 0.0
C1525 C 0.91473 0.59784 0.12159 0.0
C1526 C 0.90276 0.619 0.13071 0.0
C1527 C 0.87843 0.63296 0.12604 0.0
H1528 H 0.63018 0.60017 0.38704 0.0
H1529 H 0.62846 0.63125 0.34072 0.0
H1530 H 0.65493 0.64218 0.39523 0.0
H1531 H 0.65163 0.67429 0.349 0.0
H1532 H 0.71005 0.74194 0.36505 0.0
H1533 H 0.69214 0.69621 0.35729 0.0
H1534 H 0.64837 0.68902 0.40048 0.0
H1535 H 0.66785 0.73388 0.40848 0.0
C1536 C 0.63492 0.61618 0.37862 0.0
C1537 C 0.62727 0.6125 0.36325 0.0
C1538 C 0.64897 0.64043 0.38334 0.0
C1539 C 0.65518 0.66201 0.37286 0.0
C1540 C 0.64774 0.65808 0.35741 0.0
C1541 C 0.63423 0.63347 0.35263 0.0
C1542 C 0.69695 0.73029 0.37295 0.0
C1543 C 0.69036 0.74143 0.38737 0.0
C1544 C 0.68638 0.70417 0.36845 0.0
C1545 C 0.66843 0.6888 0.37813 0.0
C1546 C 0.66245 0.69981 0.39274 0.0
C1547 C 0.67353 0.72566 0.39736 0.0
H1548 H 0.63634 0.40384 0.59235 0.0
H1549 H 0.63159 0.35152 0.63264 0.0
H1550 H 0.5939 0.42849 0.60042 0.0
H1551 H 0.58889 0.37547 0.64043 0.0
H1552 H 0.52496 0.43752 0.65766 0.0
H1553 H 0.57059 0.41877 0.65001 0.0
H1554 H 0.54454 0.42073 0.60271 0.0
H1555 H 0.49949 0.44024 0.61031 0.0
C1556 C 0.6262 0.3975 0.60288 0.0
C1557 C 0.63738 0.37565 0.61182 0.0
C1558 C 0.60181 0.41158 0.6075 0.0
C1559 C 0.58794 0.40404 0.62111 0.0
C1560 C 0.59924 0.38225 0.63004 0.0
C1561 C 0.62366 0.36831 0.62548 0.0
C1562 C 0.52915 0.43427 0.64562 0.0
C1563 C 0.50855 0.44027 0.63461 0.0
C1564 C 0.55522 0.42332 0.64123 0.0
C1565 C 0.56122 0.41798 0.62573 0.0
C1566 C 0.54086 0.42484 0.61472 0.0
C1567 C 0.51491 0.43591 0.6191 0.0
H1568 H 0.12577 0.36688 0.34235 0.0
H1569 H 0.12717 0.39968 0.38833 0.0
H1570 H 0.14905 0.32429 0.3511 0.0
H1571 H 0.15193 0.35795 0.397 0.0
H1572 H 0.16645 0.2663 0.41074 0.0
H1573 H 0.14619 0.31079 0.40258 0.0
H1574 H 0.19044 0.30404 0.35952 0.0
H1575 H 0.20919 0.25876 0.36744 0.0
C1576 C 0.13142 0.36512 0.3543 0.0
C1577 C 0.12447 0.38654 0.36465 0.0
C1578 C 0.14502 0.34077 0.35934 0.0
C1579 C 0.15254 0.33747 0.37482 0.0
C1580 C 0.14603 0.3593 0.38508 0.0
C1581 C 0.13194 0.38337 0.38009 0.0
C1582 C 0.17208 0.27456 0.39961 0.0
C1583 C 0.18927 0.25902 0.3897 0.0
C1584 C 0.16053 0.30017 0.39491 0.0
C1585 C 0.16636 0.31112 0.38027 0.0
C1586 C 0.18475 0.29606 0.37069 0.0
C1587 C 0.1958 0.27021 0.37528 0.0
H1588 H 0.35149 0.3804 0.138 0.0
H1589 H 0.38146 0.3775 0.09148 0.0
H1590 H 0.39388 0.40495 0.14575 0.0
H1591 H 0.42487 0.40047 0.09931 0.0
H1592 H 0.49294 0.45923 0.11449 0.0
H1593 H 0.44708 0.4411 0.10716 0.0
H1594 H 0.44084 0.3984 0.1507 0.0
H1595 H 0.48585 0.41813 0.15827 0.0
C1596 C 0.36734 0.38482 0.12944 0.0
C1597 C 0.36322 0.37693 0.11414 0.0
C1598 C 0.39182 0.39876 0.1339 0.0
C1599 C 0.41318 0.40462 0.12324 0.0
C1600 C 0.40883 0.39688 0.10786 0.0
C1601 C 0.38401 0.38348 0.10334 0.0
C1602 C 0.48149 0.4463 0.12255 0.0
C1603 C 0.49292 0.44011 0.13695 0.0
C1604 C 0.45528 0.43561 0.1183 0.0
C1605 C 0.44013 0.4179 0.12822 0.0
C1606 C 0.45146 0.41229 0.14279 0.0
C1607 C 0.4774 0.42351 0.14715 0.0
H1608 H 0.33116 0.73413 0.90634 0.0
H1609 H 0.29175 0.7419 0.86215 0.0
H1610 H 0.35111 0.68916 0.89878 0.0
H1611 H 0.31012 0.69613 0.85481 0.0
H1612 H 0.37452 0.63126 0.83938 0.0
H1613 H 0.3513 0.67447 0.84731 0.0
H1614 H 0.34483 0.64219 0.89341 0.0
H1615 H 0.3696 0.59992 0.88559 0.0
C1616 C 0.32619 0.72583 0.89514 0.0
C1617 C 0.31003 0.74154 0.88482 0.0
C1618 C 0.33755 0.69993 0.89077 0.0
C1619 C 0.33252 0.68886 0.87608 0.0
C1620 C 0.31517 0.70416 0.86605 0.0
C1621 C 0.30435 0.73031 0.87031 0.0
C1622 C 0.36806 0.63347 0.85119 0.0
C1623 C 0.37407 0.61233 0.86188 0.0
C1624 C 0.35451 0.65818 0.85576 0.0
C1625 C 0.34608 0.66207 0.87107 0.0
C1626 C 0.3515 0.64043 0.88163 0.0
C1627 C 0.36557 0.61604 0.87712 0.0
H1628 H 0.0222 0.56184 0.65747 0.0
H1629 H 0.99762 0.56129 0.60995 0.0
H1630 H 0.06819 0.58034 0.65029 0.0
H1631 H 0.04306 0.58052 0.60283 0.0
H1632 H 0.13544 0.59587 0.59324 0.0
H1633 H 0.09238 0.57177 0.60081 0.0
H1634 H 0.08735 0.62371 0.64122 0.0
H1635 H 0.13063 0.64713 0.63392 0.0
C1636 C 0.02665 0.56554 0.64549 0.0
C1637 C 0.00622 0.56018 0.6343 0.0
C1638 C 0.05294 0.57633 0.64137 0.0
C1639 C 0.05931 0.58214 0.62597 0.0
C1640 C 0.03908 0.57601 0.61477 0.0
C1641 C 0.01291 0.56511 0.61888 0.0
C1642 C 0.12517 0.60209 0.60375 0.0
C1643 C 0.13651 0.62348 0.61294 0.0
C1644 C 0.10042 0.58833 0.60808 0.0
C1645 C 0.08636 0.59574 0.62165 0.0
C1646 C 0.09782 0.61706 0.63085 0.0
C1647 C 0.12259 0.63068 0.62657 0.0
H1648 H 0.15207 0.61932 0.17007 0.0
H1649 H 0.10291 0.62101 0.12857 0.0
H1650 H 0.17682 0.66161 0.1618 0.0
H1651 H 0.12699 0.6635 0.12056 0.0
H1652 H 0.19012 0.72639 0.10341 0.0
H1653 H 0.17112 0.68119 0.11162 0.0
H1654 H 0.16877 0.71087 0.15828 0.0
H1655 H 0.18847 0.75554 0.15015 0.0
C1656 C 0.14643 0.62877 0.15924 0.0
C1657 C 0.12547 0.61675 0.15001 0.0
C1658 C 0.16057 0.65307 0.15451 0.0
C1659 C 0.15401 0.66596 0.14047 0.0
C1660 C 0.13303 0.65388 0.13128 0.0
C1661 C 0.11901 0.6296 0.13596 0.0
C1662 C 0.18588 0.7231 0.11544 0.0
C1663 C 0.1907 0.74461 0.1261 0.0
C1664 C 0.17479 0.69727 0.12014 0.0
C1665 C 0.16814 0.69243 0.13561 0.0
C1666 C 0.17388 0.71368 0.14632 0.0
C1667 C 0.18506 0.73941 0.14162 0.0
H1668 H 0.13558 0.40461 0.9194 0.0
H1669 H 0.13213 0.35521 0.87799 0.0
H1670 H 0.09325 0.42969 0.91151 0.0
H1671 H 0.08965 0.37967 0.87036 0.0
H1672 H 0.02602 0.44269 0.85399 0.0
H1673 H 0.07169 0.42406 0.86165 0.0
H1674 H 0.04379 0.42117 0.90863 0.0
H1675 H 0.99863 0.44045 0.90106 0.0
C1676 C 0.12578 0.39902 0.90865 0.0
C1677 C 0.13726 0.37783 0.89936 0.0
C1678 C 0.10146 0.41336 0.90414 0.0
C1679 C 0.08804 0.40677 0.89027 0.0
C1680 C 0.09967 0.38569 0.88097 0.0
C1681 C 0.12396 0.37145 0.88544 0.0
C1682 C 0.0298 0.43844 0.86597 0.0
C1683 C 0.00863 0.44292 0.87689 0.0
C1684 C 0.0559 0.42756 0.87036 0.0
C1685 C 0.06136 0.42085 0.88575 0.0
C1686 C 0.04048 0.42633 0.89671 0.0
C1687 C 0.01447 0.43726 0.89234 0.0
H1688 H 0.29199 0.25852 0.64664 0.0
H1689 H 0.33518 0.26362 0.60335 0.0
H1690 H 0.3111 0.30399 0.65396 0.0
H1691 H 0.35574 0.30831 0.61093 0.0
H1692 H 0.37463 0.39787 0.62369 0.0
H1693 H 0.34982 0.35574 0.6157 0.0
H1694 H 0.35258 0.3246 0.66213 0.0
H1695 H 0.37595 0.36763 0.6702 0.0
C1696 C 0.30557 0.26946 0.63867 0.0
C1697 C 0.3121 0.25755 0.62442 0.0
C1698 C 0.31681 0.29542 0.64293 0.0
C1699 C 0.33536 0.30988 0.63316 0.0
C1700 C 0.34126 0.29817 0.61872 0.0
C1701 C 0.32955 0.27244 0.61435 0.0
C1702 C 0.36983 0.38203 0.6322 0.0
C1703 C 0.37731 0.38603 0.64757 0.0
C1704 C 0.35571 0.35773 0.6276 0.0
C1705 C 0.34919 0.33648 0.63821 0.0
C1706 C 0.35667 0.34061 0.65363 0.0
C1707 C 0.37031 0.36521 0.65828 0.0
H1708 H 0.50224 0.56283 0.40064 0.0
H1709 H 0.47705 0.56343 0.35322 0.0
H1710 H 0.45687 0.58202 0.40793 0.0
H1711 H 0.43114 0.58191 0.36058 0.0
H1712 H 0.36888 0.64866 0.37724 0.0
H1713 H 0.41214 0.62535 0.36978 0.0
H1714 H 0.40752 0.57308 0.41009 0.0
H1715 H 0.36446 0.59704 0.41781 0.0
C1716 C 0.48684 0.56667 0.39177 0.0
C1717 C 0.49333 0.56175 0.37632 0.0
C1718 C 0.46071 0.57754 0.39598 0.0
C1719 C 0.44033 0.58367 0.38485 0.0
C1720 C 0.44652 0.57789 0.36943 0.0
C1721 C 0.47275 0.56711 0.36521 0.0
C1722 C 0.37701 0.63217 0.38453 0.0
C1723 C 0.3632 0.62482 0.39817 0.0
C1724 C 0.40176 0.6186 0.38017 0.0
C1725 C 0.41332 0.59722 0.38928 0.0
C1726 C 0.39939 0.58968 0.40287 0.0
C1727 C 0.37465 0.60336 0.40729 0.0
loop_
_geom_bond_atom_site_label_1
_geom_bond_atom_site_label_2
_geom_bond_distance
_geom_bond_site_symmetry_2
_ccdc_geom_bond_type
O0 Cd1 2.223 . S
O0 C8 1.315 . S
Cd1 O0 2.223 . S
Cd1 O4 2.297 . S
Cd1 O5 2.439 . S
Cd1 O11 2.240 . S
Cd2 O3 2.240 . S
Cd2 O10 2.223 . S
Cd2 O12 2.297 . S
Cd2 O13 2.439 . S
O3 Cd2 2.240 . S
O3 C8 1.279 . S
O4 Cd1 2.297 . S
O4 C6 1.247 . S
O5 Cd1 2.439 . S
O5 C6 1.208 . S
C6 O4 1.247 . S
C6 O5 1.208 . S
C7 O12 1.247 . S
C7 O13 1.208 . S
C8 O0 1.315 . S
C8 O3 1.279 . S
C9 O10 1.315 . S
C9 O11 1.279 . S
O10 Cd2 2.223 . S
O10 C9 1.315 . S
O11 Cd1 2.240 . S
O11 C9 1.279 . S
O12 Cd2 2.297 . S
O12 C7 1.247 . S
O13 Cd2 2.439 . S
O13 C7 1.208 . S
O14 Cd15 2.223 . S
O14 C22 1.315 . S
Cd15 O14 2.223 . S
Cd15 O18 2.297 . S
Cd15 O19 2.439 . S
Cd15 O25 2.240 . S
Cd16 O17 2.240 . S
Cd16 O24 2.223 . S
Cd16 O26 2.297 . S
Cd16 O27 2.439 . S
O17 Cd16 2.240 . S
O17 C22 1.279 . S
O18 Cd15 2.297 . S
O18 C20 1.247 . S
O19 Cd15 2.439 . S
O19 C20 1.208 . S
C20 O18 1.247 . S
C20 O19 1.208 . S
C21 O26 1.247 . S
C21 O27 1.208 . S
C22 O14 1.315 . S
C22 O17 1.279 . S
C23 O24 1.315 . S
C23 O25 1.279 . S
O24 Cd16 2.223 . S
O24 C23 1.315 . S
O25 Cd15 2.240 . S
O25 C23 1.279 . S
O26 Cd16 2.297 . S
O26 C21 1.247 . S
O27 Cd16 2.439 . S
O27 C21 1.208 . S
O28 Cd29 2.223 . S
O28 C36 1.315 . S
Cd29 O28 2.223 . S
Cd29 O32 2.297 . S
Cd29 O33 2.439 . S
Cd29 O39 2.240 . S
Cd30 O31 2.240 . S
Cd30 O38 2.223 . S
Cd30 O40 2.297 . S
Cd30 O41 2.439 . S
O31 Cd30 2.240 . S
O31 C36 1.279 . S
O32 Cd29 2.297 . S
O32 C34 1.247 . S
O33 Cd29 2.439 . S
O33 C34 1.208 . S
C34 O32 1.247 . S
C34 O33 1.208 . S
C35 O40 1.247 . S
C35 O41 1.208 . S
C36 O28 1.315 . S
C36 O31 1.279 . S
C37 O38 1.315 . S
C37 O39 1.279 . S
O38 Cd30 2.223 . S
O38 C37 1.315 . S
O39 Cd29 2.240 . S
O39 C37 1.279 . S
O40 Cd30 2.297 . S
O40 C35 1.247 . S
O41 Cd30 2.439 . S
O41 C35 1.208 . S
O42 Cd43 2.223 . S
O42 C50 1.315 . S
Cd43 O42 2.223 . S
Cd43 O46 2.297 . S
Cd43 O47 2.439 . S
Cd43 O53 2.240 . S
Cd44 O45 2.240 . S
Cd44 O52 2.223 . S
Cd44 O54 2.297 . S
Cd44 O55 2.439 . S
O45 Cd44 2.240 . S
O45 C50 1.279 . S
O46 Cd43 2.297 . S
O46 C48 1.247 . S
O47 Cd43 2.439 . S
O47 C48 1.208 . S
C48 O46 1.247 . S
C48 O47 1.208 . S
C49 O54 1.247 . S
C49 O55 1.208 . S
C50 O42 1.315 . S
C50 O45 1.279 . S
C51 O52 1.315 . S
C51 O53 1.279 . S
O52 Cd44 2.223 . S
O52 C51 1.315 . S
O53 Cd43 2.240 . S
O53 C51 1.279 . S
O54 Cd44 2.297 . S
O54 C49 1.247 . S
O55 Cd44 2.439 . S
O55 C49 1.208 . S
O56 Cd57 2.223 . S
O56 C64 1.315 . S
Cd57 O56 2.223 . S
Cd57 O60 2.297 . S
Cd57 O61 2.439 . S
Cd57 O67 2.240 . S
Cd58 O59 2.240 . S
Cd58 O66 2.223 . S
Cd58 O68 2.297 . S
Cd58 O69 2.439 . S
O59 Cd58 2.240 . S
O59 C64 1.279 . S
O60 Cd57 2.297 . S
O60 C62 1.247 . S
O61 Cd57 2.439 . S
O61 C62 1.208 . S
C62 O60 1.247 . S
C62 O61 1.208 . S
C63 O68 1.247 . S
C63 O69 1.208 . S
C64 O56 1.315 . S
C64 O59 1.279 . S
C65 O66 1.315 . S
C65 O67 1.279 . S
O66 Cd58 2.223 . S
O66 C65 1.315 . S
O67 Cd57 2.240 . S
O67 C65 1.279 . S
O68 Cd58 2.297 . S
O68 C63 1.247 . S
O69 Cd58 2.439 . S
O69 C63 1.208 . S
O70 Cd71 2.223 . S
O70 C78 1.315 . S
Cd71 O70 2.223 . S
Cd71 O74 2.297 . S
Cd71 O75 2.439 . S
Cd71 O81 2.240 . S
Cd72 O73 2.240 . S
Cd72 O80 2.223 . S
Cd72 O82 2.297 . S
Cd72 O83 2.439 . S
O73 Cd72 2.240 . S
O73 C78 1.279 . S
O74 Cd71 2.297 . S
O74 C76 1.247 . S
O75 Cd71 2.439 . S
O75 C76 1.208 . S
C76 O74 1.247 . S
C76 O75 1.208 . S
C77 O82 1.247 . S
C77 O83 1.208 . S
C78 O70 1.315 . S
C78 O73 1.279 . S
C79 O80 1.315 . S
C79 O81 1.279 . S
O80 Cd72 2.223 . S
O80 C79 1.315 . S
O81 Cd71 2.240 . S
O81 C79 1.279 . S
O82 Cd72 2.297 . S
O82 C77 1.247 . S
O83 Cd72 2.439 . S
O83 C77 1.208 . S
O84 Cd85 2.223 . S
O84 C92 1.315 . S
Cd85 O84 2.223 . S
Cd85 O88 2.297 . S
Cd85 O89 2.439 . S
Cd85 O95 2.240 . S
Cd86 O87 2.240 . S
Cd86 O94 2.223 . S
Cd86 O96 2.297 . S
Cd86 O97 2.439 . S
O87 Cd86 2.240 . S
O87 C92 1.279 . S
O88 Cd85 2.297 . S
O88 C90 1.247 . S
O89 Cd85 2.439 . S
O89 C90 1.208 . S
C90 O88 1.247 . S
C90 O89 1.208 . S
C91 O96 1.247 . S
C91 O97 1.208 . S
C92 O84 1.315 . S
C92 O87 1.279 . S
C93 O94 1.315 . S
C93 O95 1.279 . S
O94 Cd86 2.223 . S
O94 C93 1.315 . S
O95 Cd85 2.240 . S
O95 C93 1.279 . S
O96 Cd86 2.297 . S
O96 C91 1.247 . S
O97 Cd86 2.439 . S
O97 C91 1.208 . S
O98 Cd99 2.223 . S
O98 C106 1.315 . S
Cd99 O98 2.223 . S
Cd99 O102 2.297 . S
Cd99 O103 2.439 . S
Cd99 O109 2.240 . S
Cd100 O101 2.240 . S
Cd100 O108 2.223 . S
Cd100 O110 2.297 . S
Cd100 O111 2.439 . S
O101 Cd100 2.240 . S
O101 C106 1.279 . S
O102 Cd99 2.297 . S
O102 C104 1.247 . S
O103 Cd99 2.439 . S
O103 C104 1.208 . S
C104 O102 1.247 . S
C104 O103 1.208 . S
C105 O110 1.247 . S
C105 O111 1.208 . S
C106 O98 1.315 . S
C106 O101 1.279 . S
C107 O108 1.315 . S
C107 O109 1.279 . S
O108 Cd100 2.223 . S
O108 C107 1.315 . S
O109 Cd99 2.240 . S
O109 C107 1.279 . S
O110 Cd100 2.297 . S
O110 C105 1.247 . S
O111 Cd100 2.439 . S
O111 C105 1.208 . S
O112 Cd113 2.223 . S
O112 C120 1.315 . S
Cd113 O112 2.223 . S
Cd113 O116 2.297 . S
Cd113 O117 2.439 . S
Cd113 O123 2.240 . S
Cd114 O115 2.240 . S
Cd114 O122 2.223 . S
Cd114 O124 2.297 . S
Cd114 O125 2.439 . S
O115 Cd114 2.240 . S
O115 C120 1.279 . S
O116 Cd113 2.297 . S
O116 C118 1.247 . S
O117 Cd113 2.439 . S
O117 C118 1.208 . S
C118 O116 1.247 . S
C118 O117 1.208 . S
C119 O124 1.247 . S
C119 O125 1.208 . S
C120 O112 1.315 . S
C120 O115 1.279 . S
C121 O122 1.315 . S
C121 O123 1.279 . S
O122 Cd114 2.223 . S
O122 C121 1.315 . S
O123 Cd113 2.240 . S
O123 C121 1.279 . S
O124 Cd114 2.297 . S
O124 C119 1.247 . S
O125 Cd114 2.439 . S
O125 C119 1.208 . S
O126 Cd127 2.223 . S
O126 C134 1.315 . S
Cd127 O126 2.223 . S
Cd127 O130 2.297 . S
Cd127 O131 2.439 . S
Cd127 O137 2.240 . S
Cd128 O129 2.240 . S
Cd128 O136 2.223 . S
Cd128 O138 2.297 . S
Cd128 O139 2.439 . S
O129 Cd128 2.240 . S
O129 C134 1.279 . S
O130 Cd127 2.297 . S
O130 C132 1.247 . S
O131 Cd127 2.439 . S
O131 C132 1.208 . S
C132 O130 1.247 . S
C132 O131 1.208 . S
C133 O138 1.247 . S
C133 O139 1.208 . S
C134 O126 1.315 . S
C134 O129 1.279 . S
C135 O136 1.315 . S
C135 O137 1.279 . S
O136 Cd128 2.223 . S
O136 C135 1.315 . S
O137 Cd127 2.240 . S
O137 C135 1.279 . S
O138 Cd128 2.297 . S
O138 C133 1.247 . S
O139 Cd128 2.439 . S
O139 C133 1.208 . S
O140 Cd141 2.223 . S
O140 C148 1.315 . S
Cd141 O140 2.223 . S
Cd141 O144 2.297 . S
Cd141 O145 2.439 . S
Cd141 O151 2.240 . S
Cd142 O143 2.240 . S
Cd142 O150 2.223 . S
Cd142 O152 2.297 . S
Cd142 O153 2.439 . S
O143 Cd142 2.240 . S
O143 C148 1.279 . S
O144 Cd141 2.297 . S
O144 C146 1.247 . S
O145 Cd141 2.439 . S
O145 C146 1.208 . S
C146 O144 1.247 . S
C146 O145 1.208 . S
C147 O152 1.247 . S
C147 O153 1.208 . S
C148 O140 1.315 . S
C148 O143 1.279 . S
C149 O150 1.315 . S
C149 O151 1.279 . S
O150 Cd142 2.223 . S
O150 C149 1.315 . S
O151 Cd141 2.240 . S
O151 C149 1.279 . S
O152 Cd142 2.297 . S
O152 C147 1.247 . S
O153 Cd142 2.439 . S
O153 C147 1.208 . S
O154 Cd155 2.223 . S
O154 C162 1.315 . S
Cd155 O154 2.223 . S
Cd155 O158 2.297 . S
Cd155 O159 2.439 . S
Cd155 O165 2.240 . S
Cd156 O157 2.240 . S
Cd156 O164 2.223 . S
Cd156 O166 2.297 . S
Cd156 O167 2.439 . S
O157 Cd156 2.240 . S
O157 C162 1.279 . S
O158 Cd155 2.297 . S
O158 C160 1.247 . S
O159 Cd155 2.439 . S
O159 C160 1.208 . S
C160 O158 1.247 . S
C160 O159 1.208 . S
C161 O166 1.247 . S
C161 O167 1.208 . S
C162 O154 1.315 . S
C162 O157 1.279 . S
C163 O164 1.315 . S
C163 O165 1.279 . S
O164 Cd156 2.223 . S
O164 C163 1.315 . S
O165 Cd155 2.240 . S
O165 C163 1.279 . S
O166 Cd156 2.297 . S
O166 C161 1.247 . S
O167 Cd156 2.439 . S
O167 C161 1.208 . S
O168 Cd169 2.223 . S
O168 C176 1.315 . S
Cd169 O168 2.223 . S
Cd169 O172 2.297 . S
Cd169 O173 2.439 . S
Cd169 O179 2.240 . S
Cd170 O171 2.240 . S
Cd170 O178 2.223 . S
Cd170 O180 2.297 . S
Cd170 O181 2.439 . S
O171 Cd170 2.240 . S
O171 C176 1.279 . S
O172 Cd169 2.297 . S
O172 C174 1.247 . S
O173 Cd169 2.439 . S
O173 C174 1.208 . S
C174 O172 1.247 . S
C174 O173 1.208 . S
C175 O180 1.247 . S
C175 O181 1.208 . S
C176 O168 1.315 . S
C176 O171 1.279 . S
C177 O178 1.315 . S
C177 O179 1.279 . S
O178 Cd170 2.223 . S
O178 C177 1.315 . S
O179 Cd169 2.240 . S
O179 C177 1.279 . S
O180 Cd170 2.297 . S
O180 C175 1.247 . S
O181 Cd170 2.439 . S
O181 C175 1.208 . S
O182 Cd183 2.223 . S
O182 C190 1.315 . S
Cd183 O182 2.223 . S
Cd183 O186 2.297 . S
Cd183 O187 2.439 . S
Cd183 O193 2.240 . S
Cd184 O185 2.240 . S
Cd184 O192 2.223 . S
Cd184 O194 2.297 . S
Cd184 O195 2.439 . S
O185 Cd184 2.240 . S
O185 C190 1.279 . S
O186 Cd183 2.297 . S
O186 C188 1.247 . S
O187 Cd183 2.439 . S
O187 C188 1.208 . S
C188 O186 1.247 . S
C188 O187 1.208 . S
C189 O194 1.247 . S
C189 O195 1.208 . S
C190 O182 1.315 . S
C190 O185 1.279 . S
C191 O192 1.315 . S
C191 O193 1.279 . S
O192 Cd184 2.223 . S
O192 C191 1.315 . S
O193 Cd183 2.240 . S
O193 C191 1.279 . S
O194 Cd184 2.297 . S
O194 C189 1.247 . S
O195 Cd184 2.439 . S
O195 C189 1.208 . S
O196 Cd197 2.223 . S
O196 C204 1.315 . S
Cd197 O196 2.223 . S
Cd197 O200 2.297 . S
Cd197 O201 2.439 . S
Cd197 O207 2.240 . S
Cd198 O199 2.240 . S
Cd198 O206 2.223 . S
Cd198 O208 2.297 . S
Cd198 O209 2.439 . S
O199 Cd198 2.240 . S
O199 C204 1.279 . S
O200 Cd197 2.297 . S
O200 C202 1.247 . S
O201 Cd197 2.439 . S
O201 C202 1.208 . S
C202 O200 1.247 . S
C202 O201 1.208 . S
C203 O208 1.247 . S
C203 O209 1.208 . S
C204 O196 1.315 . S
C204 O199 1.279 . S
C205 O206 1.315 . S
C205 O207 1.279 . S
O206 Cd198 2.223 . S
O206 C205 1.315 . S
O207 Cd197 2.240 . S
O207 C205 1.279 . S
O208 Cd198 2.297 . S
O208 C203 1.247 . S
O209 Cd198 2.439 . S
O209 C203 1.208 . S
O210 Cd211 2.223 . S
O210 C218 1.315 . S
Cd211 O210 2.223 . S
Cd211 O214 2.297 . S
Cd211 O215 2.439 . S
Cd211 O221 2.240 . S
Cd212 O213 2.240 . S
Cd212 O220 2.223 . S
Cd212 O222 2.297 . S
Cd212 O223 2.439 . S
O213 Cd212 2.240 . S
O213 C218 1.279 . S
O214 Cd211 2.297 . S
O214 C216 1.247 . S
O215 Cd211 2.439 . S
O215 C216 1.208 . S
C216 O214 1.247 . S
C216 O215 1.208 . S
C217 O222 1.247 . S
C217 O223 1.208 . S
C218 O210 1.315 . S
C218 O213 1.279 . S
C219 O220 1.315 . S
C219 O221 1.279 . S
O220 Cd212 2.223 . S
O220 C219 1.315 . S
O221 Cd211 2.240 . S
O221 C219 1.279 . S
O222 Cd212 2.297 . S
O222 C217 1.247 . S
O223 Cd212 2.439 . S
O223 C217 1.208 . S
O224 Cd225 2.223 . S
O224 C232 1.315 . S
Cd225 O224 2.223 . S
Cd225 O228 2.297 . S
Cd225 O229 2.439 . S
Cd225 O235 2.240 . S
Cd226 O227 2.240 . S
Cd226 O234 2.223 . S
Cd226 O236 2.297 . S
Cd226 O237 2.439 . S
O227 Cd226 2.240 . S
O227 C232 1.279 . S
O228 Cd225 2.297 . S
O228 C230 1.247 . S
O229 Cd225 2.439 . S
O229 C230 1.208 . S
C230 O228 1.247 . S
C230 O229 1.208 . S
C231 O236 1.247 . S
C231 O237 1.208 . S
C232 O224 1.315 . S
C232 O227 1.279 . S
C233 O234 1.315 . S
C233 O235 1.279 . S
O234 Cd226 2.223 . S
O234 C233 1.315 . S
O235 Cd225 2.240 . S
O235 C233 1.279 . S
O236 Cd226 2.297 . S
O236 C231 1.247 . S
O237 Cd226 2.439 . S
O237 C231 1.208 . S
O238 Cd239 2.223 . S
O238 C246 1.315 . S
Cd239 O238 2.223 . S
Cd239 O242 2.297 . S
Cd239 O243 2.439 . S
Cd239 O249 2.240 . S
Cd240 O241 2.240 . S
Cd240 O248 2.223 . S
Cd240 O250 2.297 . S
Cd240 O251 2.439 . S
O241 Cd240 2.240 . S
O241 C246 1.279 . S
O242 Cd239 2.297 . S
O242 C244 1.247 . S
O243 Cd239 2.439 . S
O243 C244 1.208 . S
C244 O242 1.247 . S
C244 O243 1.208 . S
C245 O250 1.247 . S
C245 O251 1.208 . S
C246 O238 1.315 . S
C246 O241 1.279 . S
C247 O248 1.315 . S
C247 O249 1.279 . S
O248 Cd240 2.223 . S
O248 C247 1.315 . S
O249 Cd239 2.240 . S
O249 C247 1.279 . S
O250 Cd240 2.297 . S
O250 C245 1.247 . S
O251 Cd240 2.439 . S
O251 C245 1.208 . S
O252 Cd253 2.223 . S
O252 C260 1.315 . S
Cd253 O252 2.223 . S
Cd253 O256 2.297 . S
Cd253 O257 2.439 . S
Cd253 O263 2.240 . S
Cd254 O255 2.240 . S
Cd254 O262 2.223 . S
Cd254 O264 2.297 . S
Cd254 O265 2.439 . S
O255 Cd254 2.240 . S
O255 C260 1.279 . S
O256 Cd253 2.297 . S
O256 C258 1.247 . S
O257 Cd253 2.439 . S
O257 C258 1.208 . S
C258 O256 1.247 . S
C258 O257 1.208 . S
C259 O264 1.247 . S
C259 O265 1.208 . S
C260 O252 1.315 . S
C260 O255 1.279 . S
C261 O262 1.315 . S
C261 O263 1.279 . S
O262 Cd254 2.223 . S
O262 C261 1.315 . S
O263 Cd253 2.240 . S
O263 C261 1.279 . S
O264 Cd254 2.297 . S
O264 C259 1.247 . S
O265 Cd254 2.439 . S
O265 C259 1.208 . S
O266 Cd267 2.223 . S
O266 C274 1.315 . S
Cd267 O266 2.223 . S
Cd267 O270 2.297 . S
Cd267 O271 2.439 . S
Cd267 O277 2.240 . S
Cd268 O269 2.240 . S
Cd268 O276 2.223 . S
Cd268 O278 2.297 . S
Cd268 O279 2.439 . S
O269 Cd268 2.240 . S
O269 C274 1.279 . S
O270 Cd267 2.297 . S
O270 C272 1.247 . S
O271 Cd267 2.439 . S
O271 C272 1.208 . S
C272 O270 1.247 . S
C272 O271 1.208 . S
C273 O278 1.247 . S
C273 O279 1.208 . S
C274 O266 1.315 . S
C274 O269 1.279 . S
C275 O276 1.315 . S
C275 O277 1.279 . S
O276 Cd268 2.223 . S
O276 C275 1.315 . S
O277 Cd267 2.240 . S
O277 C275 1.279 . S
O278 Cd268 2.297 . S
O278 C273 1.247 . S
O279 Cd268 2.439 . S
O279 C273 1.208 . S
O280 Cd281 2.223 . S
O280 C288 1.315 . S
Cd281 O280 2.223 . S
Cd281 O284 2.297 . S
Cd281 O285 2.439 . S
Cd281 O291 2.240 . S
Cd282 O283 2.240 . S
Cd282 O290 2.223 . S
Cd282 O292 2.297 . S
Cd282 O293 2.439 . S
O283 Cd282 2.240 . S
O283 C288 1.279 . S
O284 Cd281 2.297 . S
O284 C286 1.247 . S
O285 Cd281 2.439 . S
O285 C286 1.208 . S
C286 O284 1.247 . S
C286 O285 1.208 . S
C287 O292 1.247 . S
C287 O293 1.208 . S
C288 O280 1.315 . S
C288 O283 1.279 . S
C289 O290 1.315 . S
C289 O291 1.279 . S
O290 Cd282 2.223 . S
O290 C289 1.315 . S
O291 Cd281 2.240 . S
O291 C289 1.279 . S
O292 Cd282 2.297 . S
O292 C287 1.247 . S
O293 Cd282 2.439 . S
O293 C287 1.208 . S
O294 Cd295 2.223 . S
O294 C302 1.315 . S
Cd295 O294 2.223 . S
Cd295 O298 2.297 . S
Cd295 O299 2.439 . S
Cd295 O305 2.240 . S
Cd296 O297 2.240 . S
Cd296 O304 2.223 . S
Cd296 O306 2.297 . S
Cd296 O307 2.439 . S
O297 Cd296 2.240 . S
O297 C302 1.279 . S
O298 Cd295 2.297 . S
O298 C300 1.247 . S
O299 Cd295 2.439 . S
O299 C300 1.208 . S
C300 O298 1.247 . S
C300 O299 1.208 . S
C301 O306 1.247 . S
C301 O307 1.208 . S
C302 O294 1.315 . S
C302 O297 1.279 . S
C303 O304 1.315 . S
C303 O305 1.279 . S
O304 Cd296 2.223 . S
O304 C303 1.315 . S
O305 Cd295 2.240 . S
O305 C303 1.279 . S
O306 Cd296 2.297 . S
O306 C301 1.247 . S
O307 Cd296 2.439 . S
O307 C301 1.208 . S
O308 Cd309 2.223 . S
O308 C316 1.315 . S
Cd309 O308 2.223 . S
Cd309 O312 2.297 . S
Cd309 O313 2.439 . S
Cd309 O319 2.240 . S
Cd310 O311 2.240 . S
Cd310 O318 2.223 . S
Cd310 O320 2.297 . S
Cd310 O321 2.439 . S
O311 Cd310 2.240 . S
O311 C316 1.279 . S
O312 Cd309 2.297 . S
O312 C314 1.247 . S
O313 Cd309 2.439 . S
O313 C314 1.208 . S
C314 O312 1.247 . S
C314 O313 1.208 . S
C315 O320 1.247 . S
C315 O321 1.208 . S
C316 O308 1.315 . S
C316 O311 1.279 . S
C317 O318 1.315 . S
C317 O319 1.279 . S
O318 Cd310 2.223 . S
O318 C317 1.315 . S
O319 Cd309 2.240 . S
O319 C317 1.279 . S
O320 Cd310 2.297 . S
O320 C315 1.247 . S
O321 Cd310 2.439 . S
O321 C315 1.208 . S
O322 Cd323 2.223 . S
O322 C330 1.315 . S
Cd323 O322 2.223 . S
Cd323 O326 2.297 . S
Cd323 O327 2.439 . S
Cd323 O333 2.240 . S
Cd324 O325 2.240 . S
Cd324 O332 2.223 . S
Cd324 O334 2.297 . S
Cd324 O335 2.439 . S
O325 Cd324 2.240 . S
O325 C330 1.279 . S
O326 Cd323 2.297 . S
O326 C328 1.247 . S
O327 Cd323 2.439 . S
O327 C328 1.208 . S
C328 O326 1.247 . S
C328 O327 1.208 . S
C329 O334 1.247 . S
C329 O335 1.208 . S
C330 O322 1.315 . S
C330 O325 1.279 . S
C331 O332 1.315 . S
C331 O333 1.279 . S
O332 Cd324 2.223 . S
O332 C331 1.315 . S
O333 Cd323 2.240 . S
O333 C331 1.279 . S
O334 Cd324 2.297 . S
O334 C329 1.247 . S
O335 Cd324 2.439 . S
O335 C329 1.208 . S
O336 Cd337 2.223 . S
O336 C344 1.315 . S
Cd337 O336 2.223 . S
Cd337 O340 2.297 . S
Cd337 O341 2.439 . S
Cd337 O347 2.240 . S
Cd338 O339 2.240 . S
Cd338 O346 2.223 . S
Cd338 O348 2.297 . S
Cd338 O349 2.439 . S
O339 Cd338 2.240 . S
O339 C344 1.279 . S
O340 Cd337 2.297 . S
O340 C342 1.247 . S
O341 Cd337 2.439 . S
O341 C342 1.208 . S
C342 O340 1.247 . S
C342 O341 1.208 . S
C343 O348 1.247 . S
C343 O349 1.208 . S
C344 O336 1.315 . S
C344 O339 1.279 . S
C345 O346 1.315 . S
C345 O347 1.279 . S
O346 Cd338 2.223 . S
O346 C345 1.315 . S
O347 Cd337 2.240 . S
O347 C345 1.279 . S
O348 Cd338 2.297 . S
O348 C343 1.247 . S
O349 Cd338 2.439 . S
O349 C343 1.208 . S
O350 Cd351 2.223 . S
O350 C358 1.315 . S
Cd351 O350 2.223 . S
Cd351 O354 2.297 . S
Cd351 O355 2.439 . S
Cd351 O361 2.240 . S
Cd352 O353 2.240 . S
Cd352 O360 2.223 . S
Cd352 O362 2.297 . S
Cd352 O363 2.439 . S
O353 Cd352 2.240 . S
O353 C358 1.279 . S
O354 Cd351 2.297 . S
O354 C356 1.247 . S
O355 Cd351 2.439 . S
O355 C356 1.208 . S
C356 O354 1.247 . S
C356 O355 1.208 . S
C357 O362 1.247 . S
C357 O363 1.208 . S
C358 O350 1.315 . S
C358 O353 1.279 . S
C359 O360 1.315 . S
C359 O361 1.279 . S
O360 Cd352 2.223 . S
O360 C359 1.315 . S
O361 Cd351 2.240 . S
O361 C359 1.279 . S
O362 Cd352 2.297 . S
O362 C357 1.247 . S
O363 Cd352 2.439 . S
O363 C357 1.208 . S
O364 Cd365 2.223 . S
O364 C372 1.315 . S
Cd365 O364 2.223 . S
Cd365 O368 2.297 . S
Cd365 O369 2.439 . S
Cd365 O375 2.240 . S
Cd366 O367 2.240 . S
Cd366 O374 2.223 . S
Cd366 O376 2.297 . S
Cd366 O377 2.439 . S
O367 Cd366 2.240 . S
O367 C372 1.279 . S
O368 Cd365 2.297 . S
O368 C370 1.247 . S
O369 Cd365 2.439 . S
O369 C370 1.208 . S
C370 O368 1.247 . S
C370 O369 1.208 . S
C371 O376 1.247 . S
C371 O377 1.208 . S
C372 O364 1.315 . S
C372 O367 1.279 . S
C373 O374 1.315 . S
C373 O375 1.279 . S
O374 Cd366 2.223 . S
O374 C373 1.315 . S
O375 Cd365 2.240 . S
O375 C373 1.279 . S
O376 Cd366 2.297 . S
O376 C371 1.247 . S
O377 Cd366 2.439 . S
O377 C371 1.208 . S
O378 Cd379 2.223 . S
O378 C386 1.315 . S
Cd379 O378 2.223 . S
Cd379 O382 2.297 . S
Cd379 O383 2.439 . S
Cd379 O389 2.240 . S
Cd380 O381 2.240 . S
Cd380 O388 2.223 . S
Cd380 O390 2.297 . S
Cd380 O391 2.439 . S
O381 Cd380 2.240 . S
O381 C386 1.279 . S
O382 Cd379 2.297 . S
O382 C384 1.247 . S
O383 Cd379 2.439 . S
O383 C384 1.208 . S
C384 O382 1.247 . S
C384 O383 1.208 . S
C385 O390 1.247 . S
C385 O391 1.208 . S
C386 O378 1.315 . S
C386 O381 1.279 . S
C387 O388 1.315 . S
C387 O389 1.279 . S
O388 Cd380 2.223 . S
O388 C387 1.315 . S
O389 Cd379 2.240 . S
O389 C387 1.279 . S
O390 Cd380 2.297 . S
O390 C385 1.247 . S
O391 Cd380 2.439 . S
O391 C385 1.208 . S
O392 Cd393 2.223 . S
O392 C400 1.315 . S
Cd393 O392 2.223 . S
Cd393 O396 2.297 . S
Cd393 O397 2.439 . S
Cd393 O403 2.240 . S
Cd394 O395 2.240 . S
Cd394 O402 2.223 . S
Cd394 O404 2.297 . S
Cd394 O405 2.439 . S
O395 Cd394 2.240 . S
O395 C400 1.279 . S
O396 Cd393 2.297 . S
O396 C398 1.247 . S
O397 Cd393 2.439 . S
O397 C398 1.208 . S
C398 O396 1.247 . S
C398 O397 1.208 . S
C399 O404 1.247 . S
C399 O405 1.208 . S
C400 O392 1.315 . S
C400 O395 1.279 . S
C401 O402 1.315 . S
C401 O403 1.279 . S
O402 Cd394 2.223 . S
O402 C401 1.315 . S
O403 Cd393 2.240 . S
O403 C401 1.279 . S
O404 Cd394 2.297 . S
O404 C399 1.247 . S
O405 Cd394 2.439 . S
O405 C399 1.208 . S
O406 Cd407 2.223 . S
O406 C414 1.315 . S
Cd407 O406 2.223 . S
Cd407 O410 2.297 . S
Cd407 O411 2.439 . S
Cd407 O417 2.240 . S
Cd408 O409 2.240 . S
Cd408 O416 2.223 . S
Cd408 O418 2.297 . S
Cd408 O419 2.439 . S
O409 Cd408 2.240 . S
O409 C414 1.279 . S
O410 Cd407 2.297 . S
O410 C412 1.247 . S
O411 Cd407 2.439 . S
O411 C412 1.208 . S
C412 O410 1.247 . S
C412 O411 1.208 . S
C413 O418 1.247 . S
C413 O419 1.208 . S
C414 O406 1.315 . S
C414 O409 1.279 . S
C415 O416 1.315 . S
C415 O417 1.279 . S
O416 Cd408 2.223 . S
O416 C415 1.315 . S
O417 Cd407 2.240 . S
O417 C415 1.279 . S
O418 Cd408 2.297 . S
O418 C413 1.247 . S
O419 Cd408 2.439 . S
O419 C413 1.208 . S
O420 Cd421 2.223 . S
O420 C428 1.315 . S
Cd421 O420 2.223 . S
Cd421 O424 2.297 . S
Cd421 O425 2.439 . S
Cd421 O431 2.240 . S
Cd422 O423 2.240 . S
Cd422 O430 2.223 . S
Cd422 O432 2.297 . S
Cd422 O433 2.439 . S
O423 Cd422 2.240 . S
O423 C428 1.279 . S
O424 Cd421 2.297 . S
O424 C426 1.247 . S
O425 Cd421 2.439 . S
O425 C426 1.208 . S
C426 O424 1.247 . S
C426 O425 1.208 . S
C427 O432 1.247 . S
C427 O433 1.208 . S
C428 O420 1.315 . S
C428 O423 1.279 . S
C429 O430 1.315 . S
C429 O431 1.279 . S
O430 Cd422 2.223 . S
O430 C429 1.315 . S
O431 Cd421 2.240 . S
O431 C429 1.279 . S
O432 Cd422 2.297 . S
O432 C427 1.247 . S
O433 Cd422 2.439 . S
O433 C427 1.208 . S
O434 Cd435 2.223 . S
O434 C442 1.315 . S
Cd435 O434 2.223 . S
Cd435 O438 2.297 . S
Cd435 O439 2.439 . S
Cd435 O445 2.240 . S
Cd436 O437 2.240 . S
Cd436 O444 2.223 . S
Cd436 O446 2.297 . S
Cd436 O447 2.439 . S
O437 Cd436 2.240 . S
O437 C442 1.279 . S
O438 Cd435 2.297 . S
O438 C440 1.247 . S
O439 Cd435 2.439 . S
O439 C440 1.208 . S
C440 O438 1.247 . S
C440 O439 1.208 . S
C441 O446 1.247 . S
C441 O447 1.208 . S
C442 O434 1.315 . S
C442 O437 1.279 . S
C443 O444 1.315 . S
C443 O445 1.279 . S
O444 Cd436 2.223 . S
O444 C443 1.315 . S
O445 Cd435 2.240 . S
O445 C443 1.279 . S
O446 Cd436 2.297 . S
O446 C441 1.247 . S
O447 Cd436 2.439 . S
O447 C441 1.208 . S
H448 C456 0.950 . S
H449 C461 0.950 . S
H450 C458 0.950 . S
H451 C460 0.950 . S
H452 C462 0.950 . S
H453 C464 0.950 . S
H454 C466 0.950 . S
H455 C467 0.950 . S
C456 H448 0.950 . S
C456 C457 1.386 . S
C456 C458 1.391 . S
C457 C456 1.386 . S
C457 C461 1.393 1_565 S
C458 H450 0.950 . S
C458 C456 1.391 . S
C458 C459 1.400 . S
C459 C458 1.400 . S
C459 C460 1.398 1_565 S
C459 C465 1.491 1_565 S
C460 H451 0.950 . S
C460 C459 1.398 1_545 S
C460 C461 1.391 . S
C461 H449 0.950 . S
C461 C457 1.393 1_545 S
C461 C460 1.391 . S
C462 H452 0.950 . S
C462 C463 1.386 . S
C462 C464 1.391 . S
C463 C462 1.386 . S
C463 C467 1.393 1_545 S
C464 H453 0.950 . S
C464 C462 1.391 . S
C464 C465 1.400 . S
C465 C459 1.491 1_545 S
C465 C464 1.400 . S
C465 C466 1.398 1_545 S
C466 H454 0.950 . S
C466 C465 1.398 1_565 S
C466 C467 1.391 . S
C467 H455 0.950 . S
C467 C463 1.393 1_565 S
C467 C466 1.391 . S
H468 C476 0.950 . S
H469 C481 0.950 . S
H470 C478 0.950 . S
H471 C480 0.950 . S
H472 C482 0.950 . S
H473 C484 0.950 . S
H474 C486 0.950 . S
H475 C487 0.950 . S
C476 H468 0.950 . S
C476 C477 1.386 . S
C476 C478 1.391 . S
C477 C476 1.386 . S
C477 C481 1.393 . S
C478 H470 0.950 . S
C478 C476 1.391 . S
C478 C479 1.400 . S
C479 C478 1.400 . S
C479 C480 1.398 . S
C479 C485 1.491 . S
C480 H471 0.950 . S
C480 C479 1.398 . S
C480 C481 1.391 . S
C481 H469 0.950 . S
C481 C477 1.393 . S
C481 C480 1.391 . S
C482 H472 0.950 . S
C482 C483 1.386 . S
C482 C484 1.391 . S
C483 C482 1.386 . S
C483 C487 1.393 . S
C484 H473 0.950 . S
C484 C482 1.391 . S
C484 C485 1.400 . S
C485 C479 1.491 . S
C485 C484 1.400 . S
C485 C486 1.398 . S
C486 H474 0.950 . S
C486 C485 1.398 . S
C486 C487 1.391 . S
C487 H475 0.950 . S
C487 C483 1.393 . S
C487 C486 1.391 . S
H488 C496 0.950 . S
H489 C501 0.950 . S
H490 C498 0.950 . S
H491 C500 0.950 . S
H492 C502 0.950 . S
H493 C504 0.950 . S
H494 C506 0.950 . S
H495 C507 0.950 . S
C496 H488 0.950 . S
C496 C497 1.386 . S
C496 C498 1.391 . S
C497 C496 1.386 . S
C497 C501 1.393 1_545 S
C498 H490 0.950 . S
C498 C496 1.391 . S
C498 C499 1.400 . S
C499 C498 1.400 . S
C499 C500 1.398 1_545 S
C499 C505 1.491 1_545 S
C500 H491 0.950 . S
C500 C499 1.398 1_565 S
C500 C501 1.391 . S
C501 H489 0.950 . S
C501 C497 1.393 1_565 S
C501 C500 1.391 . S
C502 H492 0.950 . S
C502 C503 1.386 . S
C502 C504 1.391 . S
C503 C502 1.386 . S
C503 C507 1.393 1_565 S
C504 H493 0.950 . S
C504 C502 1.391 . S
C504 C505 1.400 . S
C505 C499 1.491 1_565 S
C505 C504 1.400 . S
C505 C506 1.398 1_565 S
C506 H494 0.950 . S
C506 C505 1.398 1_545 S
C506 C507 1.391 . S
C507 H495 0.950 . S
C507 C503 1.393 1_545 S
C507 C506 1.391 . S
H508 C516 0.950 . S
H509 C521 0.950 . S
H510 C518 0.950 . S
H511 C520 0.950 . S
H512 C522 0.950 . S
H513 C524 0.950 . S
H514 C526 0.950 . S
H515 C527 0.950 . S
C516 H508 0.950 . S
C516 C517 1.386 . S
C516 C518 1.391 . S
C517 C516 1.386 . S
C517 C521 1.393 . S
C518 H510 0.950 . S
C518 C516 1.391 . S
C518 C519 1.400 . S
C519 C518 1.400 . S
C519 C520 1.398 . S
C519 C525 1.491 1_556 S
C520 H511 0.950 . S
C520 C519 1.398 . S
C520 C521 1.391 . S
C521 H509 0.950 . S
C521 C517 1.393 . S
C521 C520 1.391 . S
C522 H512 0.950 . S
C522 C523 1.386 . S
C522 C524 1.391 . S
C523 C522 1.386 . S
C523 C527 1.393 . S
C524 H513 0.950 . S
C524 C522 1.391 . S
C524 C525 1.400 . S
C525 C519 1.491 1_554 S
C525 C524 1.400 . S
C525 C526 1.398 . S
C526 H514 0.950 . S
C526 C525 1.398 . S
C526 C527 1.391 . S
C527 H515 0.950 . S
C527 C523 1.393 . S
C527 C526 1.391 . S
H528 C536 0.950 . S
H529 C541 0.950 . S
H530 C538 0.950 . S
H531 C540 0.950 . S
H532 C542 0.950 . S
H533 C544 0.950 . S
H534 C546 0.950 . S
H535 C547 0.950 . S
C536 H528 0.950 . S
C536 C537 1.386 . S
C536 C538 1.391 . S
C537 C536 1.386 . S
C537 C541 1.393 1_565 S
C538 H530 0.950 . S
C538 C536 1.391 . S
C538 C539 1.400 . S
C539 C538 1.400 . S
C539 C540 1.398 1_565 S
C539 C545 1.491 1_565 S
C540 H531 0.950 . S
C540 C539 1.398 1_545 S
C540 C541 1.391 . S
C541 H529 0.950 . S
C541 C537 1.393 1_545 S
C541 C540 1.391 . S
C542 H532 0.950 . S
C542 C543 1.386 . S
C542 C544 1.391 . S
C543 C542 1.386 . S
C543 C547 1.393 1_545 S
C544 H533 0.950 . S
C544 C542 1.391 . S
C544 C545 1.400 . S
C545 C539 1.491 1_545 S
C545 C544 1.400 . S
C545 C546 1.398 1_545 S
C546 H534 0.950 . S
C546 C545 1.398 1_565 S
C546 C547 1.391 . S
C547 H535 0.950 . S
C547 C543 1.393 1_565 S
C547 C546 1.391 . S
H548 C556 0.950 . S
H549 C561 0.950 . S
H550 C558 0.950 . S
H551 C560 0.950 . S
H552 C562 0.950 . S
H553 C564 0.950 . S
H554 C566 0.950 . S
H555 C567 0.950 . S
C556 H548 0.950 . S
C556 C557 1.386 . S
C556 C558 1.391 . S
C557 C556 1.386 . S
C557 C561 1.393 . S
C558 H550 0.950 . S
C558 C556 1.391 . S
C558 C559 1.400 . S
C559 C558 1.400 . S
C559 C560 1.398 . S
C559 C565 1.491 . S
C560 H551 0.950 . S
C560 C559 1.398 . S
C560 C561 1.391 . S
C561 H549 0.950 . S
C561 C557 1.393 . S
C561 C560 1.391 . S
C562 H552 0.950 . S
C562 C563 1.386 . S
C562 C564 1.391 . S
C563 C562 1.386 . S
C563 C567 1.393 . S
C564 H553 0.950 . S
C564 C562 1.391 . S
C564 C565 1.400 . S
C565 C559 1.491 . S
C565 C564 1.400 . S
C565 C566 1.398 . S
C566 H554 0.950 . S
C566 C565 1.398 . S
C566 C567 1.391 . S
C567 H555 0.950 . S
C567 C563 1.393 . S
C567 C566 1.391 . S
H568 C576 0.950 . S
H569 C581 0.950 . S
H570 C578 0.950 . S
H571 C580 0.950 . S
H572 C582 0.950 . S
H573 C584 0.950 . S
H574 C586 0.950 . S
H575 C587 0.950 . S
C576 H568 0.950 . S
C576 C577 1.386 1_565 S
C576 C578 1.391 . S
C577 C576 1.386 1_545 S
C577 C581 1.393 . S
C578 H570 0.950 . S
C578 C576 1.391 . S
C578 C579 1.400 1_565 S
C579 C578 1.400 1_545 S
C579 C580 1.398 . S
C579 C585 1.491 1_545 S
C580 H571 0.950 . S
C580 C579 1.398 . S
C580 C581 1.391 . S
C581 H569 0.950 . S
C581 C577 1.393 . S
C581 C580 1.391 . S
C582 H572 0.950 . S
C582 C583 1.386 1_545 S
C582 C584 1.391 . S
C583 C582 1.386 1_565 S
C583 C587 1.393 . S
C584 H573 0.950 . S
C584 C582 1.391 . S
C584 C585 1.400 1_545 S
C585 C579 1.491 1_565 S
C585 C584 1.400 1_565 S
C585 C586 1.398 . S
C586 H574 0.950 . S
C586 C585 1.398 . S
C586 C587 1.391 . S
C587 H575 0.950 . S
C587 C583 1.393 . S
C587 C586 1.391 . S
H588 C596 0.950 . S
H589 C601 0.950 . S
H590 C598 0.950 . S
H591 C600 0.950 . S
H592 C602 0.950 . S
H593 C604 0.950 . S
H594 C606 0.950 . S
H595 C607 0.950 . S
C596 H588 0.950 . S
C596 C597 1.386 . S
C596 C598 1.391 . S
C597 C596 1.386 . S
C597 C601 1.393 . S
C598 H590 0.950 . S
C598 C596 1.391 . S
C598 C599 1.400 . S
C599 C598 1.400 . S
C599 C600 1.398 . S
C599 C605 1.491 1_556 S
C600 H591 0.950 . S
C600 C599 1.398 . S
C600 C601 1.391 . S
C601 H589 0.950 . S
C601 C597 1.393 . S
C601 C600 1.391 . S
C602 H592 0.950 . S
C602 C603 1.386 . S
C602 C604 1.391 . S
C603 C602 1.386 . S
C603 C607 1.393 . S
C604 H593 0.950 . S
C604 C602 1.391 . S
C604 C605 1.400 . S
C605 C599 1.491 1_554 S
C605 C604 1.400 . S
C605 C606 1.398 . S
C606 H594 0.950 . S
C606 C605 1.398 . S
C606 C607 1.391 . S
C607 H595 0.950 . S
C607 C603 1.393 . S
C607 C606 1.391 . S
H608 C616 0.950 . S
H609 C621 0.950 . S
H610 C618 0.950 . S
H611 C620 0.950 . S
H612 C622 0.950 . S
H613 C624 0.950 . S
H614 C626 0.950 . S
H615 C627 0.950 . S
C616 H608 0.950 . S
C616 C617 1.386 . S
C616 C618 1.391 . S
C617 C616 1.386 . S
C617 C621 1.393 . S
C618 H610 0.950 . S
C618 C616 1.391 . S
C618 C619 1.400 . S
C619 C618 1.400 . S
C619 C620 1.398 . S
C619 C625 1.491 . S
C620 H611 0.950 . S
C620 C619 1.398 . S
C620 C621 1.391 . S
C621 H609 0.950 . S
C621 C617 1.393 . S
C621 C620 1.391 . S
C622 H612 0.950 . S
C622 C623 1.386 . S
C622 C624 1.391 . S
C623 C622 1.386 . S
C623 C627 1.393 . S
C624 H613 0.950 . S
C624 C622 1.391 . S
C624 C625 1.400 . S
C625 C619 1.491 . S
C625 C624 1.400 . S
C625 C626 1.398 . S
C626 H614 0.950 . S
C626 C625 1.398 . S
C626 C627 1.391 . S
C627 H615 0.950 . S
C627 C623 1.393 . S
C627 C626 1.391 . S
H628 C636 0.950 . S
H629 C641 0.950 . S
H630 C638 0.950 . S
H631 C640 0.950 . S
H632 C642 0.950 . S
H633 C644 0.950 . S
H634 C646 0.950 . S
H635 C647 0.950 . S
C636 H628 0.950 . S
C636 C637 1.386 . S
C636 C638 1.391 . S
C637 C636 1.386 . S
C637 C641 1.393 . S
C638 H630 0.950 . S
C638 C636 1.391 . S
C638 C639 1.400 . S
C639 C638 1.400 . S
C639 C640 1.398 . S
C639 C645 1.491 1_554 S
C640 H631 0.950 . S
C640 C639 1.398 . S
C640 C641 1.391 . S
C641 H629 0.950 . S
C641 C637 1.393 . S
C641 C640 1.391 . S
C642 H632 0.950 . S
C642 C643 1.386 . S
C642 C644 1.391 . S
C643 C642 1.386 . S
C643 C647 1.393 . S
C644 H633 0.950 . S
C644 C642 1.391 . S
C644 C645 1.400 . S
C645 C639 1.491 1_556 S
C645 C644 1.400 . S
C645 C646 1.398 . S
C646 H634 0.950 . S
C646 C645 1.398 . S
C646 C647 1.391 . S
C647 H635 0.950 . S
C647 C643 1.393 . S
C647 C646 1.391 . S
H648 C656 0.950 . S
H649 C661 0.950 . S
H650 C658 0.950 . S
H651 C660 0.950 . S
H652 C662 0.950 . S
H653 C664 0.950 . S
H654 C666 0.950 . S
H655 C667 0.950 . S
C656 H648 0.950 . S
C656 C657 1.386 . S
C656 C658 1.391 . S
C657 C656 1.386 . S
C657 C661 1.393 . S
C658 H650 0.950 . S
C658 C656 1.391 . S
C658 C659 1.400 . S
C659 C658 1.400 . S
C659 C660 1.398 . S
C659 C665 1.491 . S
C660 H651 0.950 . S
C660 C659 1.398 . S
C660 C661 1.391 . S
C661 H649 0.950 . S
C661 C657 1.393 . S
C661 C660 1.391 . S
C662 H652 0.950 . S
C662 C663 1.386 . S
C662 C664 1.391 . S
C663 C662 1.386 . S
C663 C667 1.393 . S
C664 H653 0.950 . S
C664 C662 1.391 . S
C664 C665 1.400 . S
C665 C659 1.491 . S
C665 C664 1.400 . S
C665 C666 1.398 . S
C666 H654 0.950 . S
C666 C665 1.398 . S
C666 C667 1.391 . S
C667 H655 0.950 . S
C667 C663 1.393 . S
C667 C666 1.391 . S
H668 C676 0.950 . S
H669 C681 0.950 . S
H670 C678 0.950 . S
H671 C680 0.950 . S
H672 C682 0.950 . S
H673 C684 0.950 . S
H674 C686 0.950 . S
H675 C687 0.950 . S
C676 H668 0.950 . S
C676 C677 1.386 . S
C676 C678 1.391 . S
C677 C676 1.386 . S
C677 C681 1.393 . S
C678 H670 0.950 . S
C678 C676 1.391 . S
C678 C679 1.400 . S
C679 C678 1.400 . S
C679 C680 1.398 . S
C679 C685 1.491 . S
C680 H671 0.950 . S
C680 C679 1.398 . S
C680 C681 1.391 . S
C681 H669 0.950 . S
C681 C677 1.393 . S
C681 C680 1.391 . S
C682 H672 0.950 . S
C682 C683 1.386 . S
C682 C684 1.391 . S
C683 C682 1.386 . S
C683 C687 1.393 . S
C684 H673 0.950 . S
C684 C682 1.391 . S
C684 C685 1.400 . S
C685 C679 1.491 . S
C685 C684 1.400 . S
C685 C686 1.398 . S
C686 H674 0.950 . S
C686 C685 1.398 . S
C686 C687 1.391 . S
C687 H675 0.950 . S
C687 C683 1.393 . S
C687 C686 1.391 . S
H688 C696 0.950 . S
H689 C701 0.950 . S
H690 C698 0.950 . S
H691 C700 0.950 . S
H692 C702 0.950 . S
H693 C704 0.950 . S
H694 C706 0.950 . S
H695 C707 0.950 . S
C696 H688 0.950 . S
C696 C697 1.386 . S
C696 C698 1.391 . S
C697 C696 1.386 . S
C697 C701 1.393 . S
C698 H690 0.950 . S
C698 C696 1.391 . S
C698 C699 1.400 . S
C699 C698 1.400 . S
C699 C700 1.398 . S
C699 C705 1.491 . S
C700 H691 0.950 . S
C700 C699 1.398 . S
C700 C701 1.391 . S
C701 H689 0.950 . S
C701 C697 1.393 . S
C701 C700 1.391 . S
C702 H692 0.950 . S
C702 C703 1.386 . S
C702 C704 1.391 . S
C703 C702 1.386 . S
C703 C707 1.393 . S
C704 H693 0.950 . S
C704 C702 1.391 . S
C704 C705 1.400 . S
C705 C699 1.491 . S
C705 C704 1.400 . S
C705 C706 1.398 . S
C706 H694 0.950 . S
C706 C705 1.398 . S
C706 C707 1.391 . S
C707 H695 0.950 . S
C707 C703 1.393 . S
C707 C706 1.391 . S
H708 C716 0.950 . S
H709 C721 0.950 . S
H710 C718 0.950 . S
H711 C720 0.950 . S
H712 C722 0.950 . S
H713 C724 0.950 . S
H714 C726 0.950 . S
H715 C727 0.950 . S
C716 H708 0.950 . S
C716 C717 1.386 . S
C716 C718 1.391 . S
C717 C716 1.386 . S
C717 C721 1.393 . S
C718 H710 0.950 . S
C718 C716 1.391 . S
C718 C719 1.400 . S
C719 C718 1.400 . S
C719 C720 1.398 . S
C719 C725 1.491 1_554 S
C720 H711 0.950 . S
C720 C719 1.398 . S
C720 C721 1.391 . S
C721 H709 0.950 . S
C721 C717 1.393 . S
C721 C720 1.391 . S
C722 H712 0.950 . S
C722 C723 1.386 . S
C722 C724 1.391 . S
C723 C722 1.386 . S
C723 C727 1.393 . S
C724 H713 0.950 . S
C724 C722 1.391 . S
C724 C725 1.400 . S
C725 C719 1.491 1_556 S
C725 C724 1.400 . S
C725 C726 1.398 . S
C726 H714 0.950 . S
C726 C725 1.398 . S
C726 C727 1.391 . S
C727 H715 0.950 . S
C727 C723 1.393 . S
C727 C726 1.391 . S
H728 C736 0.950 . S
H729 C741 0.950 . S
H730 C738 0.950 . S
H731 C740 0.950 . S
H732 C742 0.950 . S
H733 C744 0.950 . S
H734 C746 0.950 . S
H735 C747 0.950 . S
C736 H728 0.950 . S
C736 C737 1.386 . S
C736 C738 1.391 . S
C737 C736 1.386 . S
C737 C741 1.393 . S
C738 H730 0.950 . S
C738 C736 1.391 . S
C738 C739 1.400 . S
C739 C738 1.400 . S
C739 C740 1.398 . S
C739 C745 1.491 . S
C740 H731 0.950 . S
C740 C739 1.398 . S
C740 C741 1.391 . S
C741 H729 0.950 . S
C741 C737 1.393 . S
C741 C740 1.391 . S
C742 H732 0.950 . S
C742 C743 1.386 . S
C742 C744 1.391 . S
C743 C742 1.386 . S
C743 C747 1.393 . S
C744 H733 0.950 . S
C744 C742 1.391 . S
C744 C745 1.400 . S
C745 C739 1.491 . S
C745 C744 1.400 . S
C745 C746 1.398 . S
C746 H734 0.950 . S
C746 C745 1.398 . S
C746 C747 1.391 . S
C747 H735 0.950 . S
C747 C743 1.393 . S
C747 C746 1.391 . S
H748 C756 0.950 . S
H749 C761 0.950 . S
H750 C758 0.950 . S
H751 C760 0.950 . S
H752 C762 0.950 . S
H753 C764 0.950 . S
H754 C766 0.950 . S
H755 C767 0.950 . S
C756 H748 0.950 . S
C756 C757 1.386 . S
C756 C758 1.391 . S
C757 C756 1.386 . S
C757 C761 1.393 . S
C758 H750 0.950 . S
C758 C756 1.391 . S
C758 C759 1.400 . S
C759 C758 1.400 . S
C759 C760 1.398 . S
C759 C765 1.491 . S
C760 H751 0.950 . S
C760 C759 1.398 . S
C760 C761 1.391 . S
C761 H749 0.950 . S
C761 C757 1.393 . S
C761 C760 1.391 . S
C762 H752 0.950 . S
C762 C763 1.386 . S
C762 C764 1.391 . S
C763 C762 1.386 . S
C763 C767 1.393 . S
C764 H753 0.950 . S
C764 C762 1.391 . S
C764 C765 1.400 . S
C765 C759 1.491 . S
C765 C764 1.400 . S
C765 C766 1.398 . S
C766 H754 0.950 . S
C766 C765 1.398 . S
C766 C767 1.391 . S
C767 H755 0.950 . S
C767 C763 1.393 . S
C767 C766 1.391 . S
H768 C776 0.950 . S
H769 C781 0.950 . S
H770 C778 0.950 . S
H771 C780 0.950 . S
H772 C782 0.950 . S
H773 C784 0.950 . S
H774 C786 0.950 . S
H775 C787 0.950 . S
C776 H768 0.950 . S
C776 C777 1.386 . S
C776 C778 1.391 . S
C777 C776 1.386 . S
C777 C781 1.393 . S
C778 H770 0.950 . S
C778 C776 1.391 . S
C778 C779 1.400 . S
C779 C778 1.400 . S
C779 C780 1.398 . S
C779 C785 1.491 . S
C780 H771 0.950 . S
C780 C779 1.398 . S
C780 C781 1.391 . S
C781 H769 0.950 . S
C781 C777 1.393 . S
C781 C780 1.391 . S
C782 H772 0.950 . S
C782 C783 1.386 . S
C782 C784 1.391 . S
C783 C782 1.386 . S
C783 C787 1.393 . S
C784 H773 0.950 . S
C784 C782 1.391 . S
C784 C785 1.400 . S
C785 C779 1.491 . S
C785 C784 1.400 . S
C785 C786 1.398 . S
C786 H774 0.950 . S
C786 C785 1.398 . S
C786 C787 1.391 . S
C787 H775 0.950 . S
C787 C783 1.393 . S
C787 C786 1.391 . S
H788 C796 0.950 . S
H789 C801 0.950 . S
H790 C798 0.950 . S
H791 C800 0.950 . S
H792 C802 0.916 1_565 S
H793 C804 0.950 . S
H794 C806 0.950 . S
H795 C807 0.950 . S
C796 H788 0.950 . S
C796 C797 1.386 . S
C796 C798 1.391 . S
C797 C796 1.386 . S
C797 C801 1.393 . S
C798 H790 0.950 . S
C798 C796 1.391 . S
C798 C799 1.400 . S
C799 C798 1.400 . S
C799 C800 1.398 . S
C799 C805 1.491 . S
C800 H791 0.950 . S
C800 C799 1.398 . S
C800 C801 1.391 . S
C801 H789 0.950 . S
C801 C797 1.393 . S
C801 C800 1.391 . S
C802 H792 0.916 1_545 S
C802 C803 1.396 . S
C802 C804 1.415 . S
C803 C802 1.396 . S
C803 C807 1.393 . S
C804 H793 0.950 . S
C804 C802 1.415 . S
C804 C805 1.400 . S
C805 C799 1.491 . S
C805 C804 1.400 . S
C805 C806 1.398 . S
C806 H794 0.950 . S
C806 C805 1.398 . S
C806 C807 1.391 . S
C807 H795 0.950 . S
C807 C803 1.393 . S
C807 C806 1.391 . S
H808 C816 0.950 1_565 S
H809 C821 0.950 . S
H810 C818 0.950 . S
H811 C820 0.950 . S
H812 C822 0.950 . S
H813 C824 0.950 . S
H814 C826 0.950 . S
H815 C827 0.950 . S
C816 H808 0.950 1_545 S
C816 C817 1.386 . S
C816 C818 1.391 . S
C817 C816 1.386 . S
C817 C821 1.393 . S
C818 H810 0.950 . S
C818 C816 1.391 . S
C818 C819 1.400 . S
C819 C818 1.400 . S
C819 C820 1.398 . S
C819 C825 1.491 . S
C820 H811 0.950 . S
C820 C819 1.398 . S
C820 C821 1.391 . S
C821 H809 0.950 . S
C821 C817 1.393 . S
C821 C820 1.391 . S
C822 H812 0.950 . S
C822 C823 1.386 . S
C822 C824 1.391 . S
C823 C822 1.386 . S
C823 C827 1.393 . S
C824 H813 0.950 . S
C824 C822 1.391 . S
C824 C825 1.400 . S
C825 C819 1.491 . S
C825 C824 1.400 . S
C825 C826 1.398 . S
C826 H814 0.950 . S
C826 C825 1.398 . S
C826 C827 1.391 . S
C827 H815 0.950 . S
C827 C823 1.393 . S
C827 C826 1.391 . S
H828 C836 0.950 . S
H829 C841 0.950 1_545 S
H830 C838 0.950 . S
H831 C840 0.950 . S
H832 C842 0.950 . S
H833 C844 0.950 . S
H834 C846 0.950 . S
H835 C847 0.950 . S
C836 H828 0.950 . S
C836 C837 1.386 . S
C836 C838 1.391 . S
C837 C836 1.386 . S
C837 C841 1.393 . S
C838 H830 0.950 . S
C838 C836 1.391 . S
C838 C839 1.400 . S
C839 C838 1.400 . S
C839 C840 1.398 . S
C839 C845 1.491 . S
C840 H831 0.950 . S
C840 C839 1.398 . S
C840 C841 1.391 . S
C841 H829 0.950 1_565 S
C841 C837 1.393 . S
C841 C840 1.391 . S
C842 H832 0.950 . S
C842 C843 1.386 . S
C842 C844 1.391 . S
C843 C842 1.386 . S
C843 C847 1.393 . S
C844 H833 0.950 . S
C844 C842 1.391 . S
C844 C845 1.400 . S
C845 C839 1.491 . S
C845 C844 1.400 . S
C845 C846 1.398 . S
C846 H834 0.950 . S
C846 C845 1.398 . S
C846 C847 1.391 . S
C847 H835 0.950 . S
C847 C843 1.393 . S
C847 C846 1.391 . S
H848 C856 0.950 . S
H849 C861 0.950 . S
H850 C858 0.950 . S
H851 C860 0.950 . S
H852 C862 0.950 . S
H853 C864 0.950 . S
H854 C866 0.950 . S
H855 C867 0.932 1_565 S
C856 H848 0.950 . S
C856 C857 1.386 . S
C856 C858 1.391 . S
C857 C856 1.386 . S
C857 C861 1.393 . S
C858 H850 0.950 . S
C858 C856 1.391 . S
C858 C859 1.400 . S
C859 C858 1.400 . S
C859 C860 1.398 . S
C859 C865 1.491 . S
C860 H851 0.950 . S
C860 C859 1.398 . S
C860 C861 1.391 . S
C861 H849 0.950 . S
C861 C857 1.393 . S
C861 C860 1.391 . S
C862 H852 0.950 . S
C862 C863 1.386 . S
C862 C864 1.391 . S
C863 C862 1.386 . S
C863 C867 1.393 . S
C864 H853 0.950 . S
C864 C862 1.391 . S
C864 C865 1.400 . S
C865 C859 1.491 . S
C865 C864 1.400 . S
C865 C866 1.398 . S
C866 H854 0.950 . S
C866 C865 1.398 . S
C866 C867 1.391 . S
C867 H855 0.932 1_545 S
C867 C863 1.393 . S
C867 C866 1.391 . S
H868 C876 0.950 . S
H869 C881 0.950 . S
H870 C878 0.950 . S
H871 C880 0.950 . S
H872 C882 0.950 . S
H873 C884 0.950 . S
H874 C886 0.950 . S
H875 C887 0.950 . S
C876 H868 0.950 . S
C876 C877 1.386 . S
C876 C878 1.391 . S
C877 C876 1.386 . S
C877 C881 1.393 . S
C878 H870 0.950 . S
C878 C876 1.391 . S
C878 C879 1.400 . S
C879 C878 1.400 . S
C879 C880 1.398 . S
C879 C885 1.491 . S
C880 H871 0.950 . S
C880 C879 1.398 . S
C880 C881 1.391 . S
C881 H869 0.950 . S
C881 C877 1.393 . S
C881 C880 1.391 . S
C882 H872 0.950 . S
C882 C883 1.386 . S
C882 C884 1.391 . S
C883 C882 1.386 . S
C883 C887 1.393 . S
C884 H873 0.950 . S
C884 C882 1.391 . S
C884 C885 1.400 . S
C885 C879 1.491 . S
C885 C884 1.400 . S
C885 C886 1.398 . S
C886 H874 0.950 . S
C886 C885 1.398 . S
C886 C887 1.391 . S
C887 H875 0.950 . S
C887 C883 1.393 . S
C887 C886 1.391 . S
H888 C896 0.950 . S
H889 C901 0.950 . S
H890 C898 0.950 . S
H891 C900 0.950 . S
H892 C902 0.950 . S
H893 C904 0.950 . S
H894 C906 0.950 . S
H895 C907 0.950 1_545 S
C896 H888 0.950 . S
C896 C897 1.386 . S
C896 C898 1.391 . S
C897 C896 1.386 . S
C897 C901 1.393 . S
C898 H890 0.950 . S
C898 C896 1.391 . S
C898 C899 1.400 . S
C899 C898 1.400 . S
C899 C900 1.398 . S
C899 C905 1.491 . S
C900 H891 0.950 . S
C900 C899 1.398 . S
C900 C901 1.391 . S
C901 H889 0.950 . S
C901 C897 1.393 . S
C901 C900 1.391 . S
C902 H892 0.950 . S
C902 C903 1.386 . S
C902 C904 1.391 . S
C903 C902 1.386 . S
C903 C907 1.393 . S
C904 H893 0.950 . S
C904 C902 1.391 . S
C904 C905 1.400 . S
C905 C899 1.491 . S
C905 C904 1.400 . S
C905 C906 1.398 . S
C906 H894 0.950 . S
C906 C905 1.398 . S
C906 C907 1.391 . S
C907 H895 0.950 1_565 S
C907 C903 1.393 . S
C907 C906 1.391 . S
H908 C916 0.950 . S
H909 C921 0.950 . S
H910 C918 0.950 . S
H911 C920 0.950 . S
H912 C922 0.950 . S
H913 C924 0.950 . S
H914 C926 0.950 . S
H915 C927 0.950 . S
C916 H908 0.950 . S
C916 C917 1.386 . S
C916 C918 1.391 . S
C917 C916 1.386 . S
C917 C921 1.393 . S
C918 H910 0.950 . S
C918 C916 1.391 . S
C918 C919 1.400 . S
C919 C918 1.400 . S
C919 C920 1.398 . S
C919 C925 1.491 . S
C920 H911 0.950 . S
C920 C919 1.398 . S
C920 C921 1.391 . S
C921 H909 0.950 . S
C921 C917 1.393 . S
C921 C920 1.391 . S
C922 H912 0.950 . S
C922 C923 1.386 . S
C922 C924 1.391 . S
C923 C922 1.386 . S
C923 C927 1.393 . S
C924 H913 0.950 . S
C924 C922 1.391 . S
C924 C925 1.400 . S
C925 C919 1.491 . S
C925 C924 1.400 . S
C925 C926 1.398 . S
C926 H914 0.950 . S
C926 C925 1.398 . S
C926 C927 1.391 . S
C927 H915 0.950 . S
C927 C923 1.393 . S
C927 C926 1.391 . S
H928 C936 0.950 . S
H929 C941 0.950 . S
H930 C938 0.950 . S
H931 C940 0.950 . S
H932 C942 0.950 . S
H933 C944 0.950 . S
H934 C946 0.950 . S
H935 C947 0.950 . S
C936 H928 0.950 . S
C936 C937 1.386 . S
C936 C938 1.391 . S
C937 C936 1.386 . S
C937 C941 1.393 . S
C938 H930 0.950 . S
C938 C936 1.391 . S
C938 C939 1.400 . S
C939 C938 1.400 . S
C939 C940 1.398 . S
C939 C945 1.491 . S
C940 H931 0.950 . S
C940 C939 1.398 . S
C940 C941 1.391 . S
C941 H929 0.950 . S
C941 C937 1.393 . S
C941 C940 1.391 . S
C942 H932 0.950 . S
C942 C943 1.386 . S
C942 C944 1.391 . S
C943 C942 1.386 . S
C943 C947 1.393 . S
C944 H933 0.950 . S
C944 C942 1.391 . S
C944 C945 1.400 . S
C945 C939 1.491 . S
C945 C944 1.400 . S
C945 C946 1.398 . S
C946 H934 0.950 . S
C946 C945 1.398 . S
C946 C947 1.391 . S
C947 H935 0.950 . S
C947 C943 1.393 . S
C947 C946 1.391 . S
H948 C956 0.950 . S
H949 C961 0.950 . S
H950 C958 0.950 . S
H951 C960 0.950 . S
H952 C962 0.950 . S
H953 C964 0.950 . S
H954 C966 0.950 . S
H955 C967 0.950 . S
C956 H948 0.950 . S
C956 C957 1.386 . S
C956 C958 1.391 . S
C957 C956 1.386 . S
C957 C961 1.393 . S
C958 H950 0.950 . S
C958 C956 1.391 . S
C958 C959 1.400 . S
C959 C958 1.400 . S
C959 C960 1.398 . S
C959 C965 1.491 . S
C960 H951 0.950 . S
C960 C959 1.398 . S
C960 C961 1.391 . S
C961 H949 0.950 . S
C961 C957 1.393 . S
C961 C960 1.391 . S
C962 H952 0.950 . S
C962 C963 1.386 . S
C962 C964 1.391 . S
C963 C962 1.386 . S
C963 C967 1.393 . S
C964 H953 0.950 . S
C964 C962 1.391 . S
C964 C965 1.400 . S
C965 C959 1.491 . S
C965 C964 1.400 . S
C965 C966 1.398 . S
C966 H954 0.950 . S
C966 C965 1.398 . S
C966 C967 1.391 . S
C967 H955 0.950 . S
C967 C963 1.393 . S
C967 C966 1.391 . S
H968 C976 0.950 . S
H969 C981 0.950 . S
H970 C978 0.950 . S
H971 C980 0.950 . S
H972 C982 0.950 . S
H973 C984 0.950 . S
H974 C986 0.950 . S
H975 C987 0.950 . S
C976 H968 0.950 . S
C976 C977 1.386 . S
C976 C978 1.391 . S
C977 C976 1.386 . S
C977 C981 1.393 . S
C978 H970 0.950 . S
C978 C976 1.391 . S
C978 C979 1.400 . S
C979 C978 1.400 . S
C979 C980 1.398 . S
C979 C985 1.491 . S
C980 H971 0.950 . S
C980 C979 1.398 . S
C980 C981 1.391 . S
C981 H969 0.950 . S
C981 C977 1.393 . S
C981 C980 1.391 . S
C982 H972 0.950 . S
C982 C983 1.386 . S
C982 C984 1.391 . S
C983 C982 1.386 . S
C983 C987 1.393 . S
C984 H973 0.950 . S
C984 C982 1.391 . S
C984 C985 1.400 . S
C985 C979 1.491 . S
C985 C984 1.400 . S
C985 C986 1.398 . S
C986 H974 0.950 . S
C986 C985 1.398 . S
C986 C987 1.391 . S
C987 H975 0.950 . S
C987 C983 1.393 . S
C987 C986 1.391 . S
H988 C996 0.950 . S
H989 C1001 0.950 . S
H990 C998 0.950 . S
H991 C1000 0.950 . S
H992 C1002 0.950 . S
H993 C1004 0.950 . S
H994 C1006 0.950 . S
H995 C1007 0.950 . S
C996 H988 0.950 . S
C996 C997 1.386 . S
C996 C998 1.391 . S
C997 C996 1.386 . S
C997 C1001 1.393 . S
C998 H990 0.950 . S
C998 C996 1.391 . S
C998 C999 1.400 . S
C999 C998 1.400 . S
C999 C1000 1.398 . S
C999 C1005 1.491 . S
C1000 H991 0.950 . S
C1000 C999 1.398 . S
C1000 C1001 1.391 . S
C1001 H989 0.950 . S
C1001 C997 1.393 . S
C1001 C1000 1.391 . S
C1002 H992 0.950 . S
C1002 C1003 1.386 . S
C1002 C1004 1.391 . S
C1003 C1002 1.386 . S
C1003 C1007 1.393 . S
C1004 H993 0.950 . S
C1004 C1002 1.391 . S
C1004 C1005 1.400 . S
C1005 C999 1.491 . S
C1005 C1004 1.400 . S
C1005 C1006 1.398 . S
C1006 H994 0.950 . S
C1006 C1005 1.398 . S
C1006 C1007 1.391 . S
C1007 H995 0.950 . S
C1007 C1003 1.393 . S
C1007 C1006 1.391 . S
H1008 C1016 0.950 . S
H1009 C1021 0.950 . S
H1010 C1018 0.950 . S
H1011 C1020 0.950 . S
H1012 C1022 0.950 . S
H1013 C1024 0.950 . S
H1014 C1026 0.950 . S
H1015 C1027 0.950 . S
C1016 H1008 0.950 . S
C1016 C1017 1.386 . S
C1016 C1018 1.391 . S
C1017 C1016 1.386 . S
C1017 C1021 1.393 . S
C1018 H1010 0.950 . S
C1018 C1016 1.391 . S
C1018 C1019 1.400 . S
C1019 C1018 1.400 . S
C1019 C1020 1.398 . S
C1019 C1025 1.491 . S
C1020 H1011 0.950 . S
C1020 C1019 1.398 . S
C1020 C1021 1.391 . S
C1021 H1009 0.950 . S
C1021 C1017 1.393 . S
C1021 C1020 1.391 . S
C1022 H1012 0.950 . S
C1022 C1023 1.386 . S
C1022 C1024 1.391 . S
C1023 C1022 1.386 . S
C1023 C1027 1.393 . S
C1024 H1013 0.950 . S
C1024 C1022 1.391 . S
C1024 C1025 1.400 . S
C1025 C1019 1.491 . S
C1025 C1024 1.400 . S
C1025 C1026 1.398 . S
C1026 H1014 0.950 . S
C1026 C1025 1.398 . S
C1026 C1027 1.391 . S
C1027 H1015 0.950 . S
C1027 C1023 1.393 . S
C1027 C1026 1.391 . S
H1028 C1036 0.950 . S
H1029 C1041 0.950 . S
H1030 C1038 0.950 . S
H1031 C1040 0.950 . S
H1032 C1042 0.950 . S
H1033 C1044 0.950 . S
H1034 C1046 0.950 . S
H1035 C1047 0.950 . S
C1036 H1028 0.950 . S
C1036 C1037 1.386 . S
C1036 C1038 1.391 . S
C1037 C1036 1.386 . S
C1037 C1041 1.393 . S
C1038 H1030 0.950 . S
C1038 C1036 1.391 . S
C1038 C1039 1.400 . S
C1039 C1038 1.400 . S
C1039 C1040 1.398 . S
C1039 C1045 1.491 . S
C1040 H1031 0.950 . S
C1040 C1039 1.398 . S
C1040 C1041 1.391 . S
C1041 H1029 0.950 . S
C1041 C1037 1.393 . S
C1041 C1040 1.391 . S
C1042 H1032 0.950 . S
C1042 C1043 1.386 . S
C1042 C1044 1.391 . S
C1043 C1042 1.386 . S
C1043 C1047 1.393 . S
C1044 H1033 0.950 . S
C1044 C1042 1.391 . S
C1044 C1045 1.400 . S
C1045 C1039 1.491 . S
C1045 C1044 1.400 . S
C1045 C1046 1.398 . S
C1046 H1034 0.950 . S
C1046 C1045 1.398 . S
C1046 C1047 1.391 . S
C1047 H1035 0.950 . S
C1047 C1043 1.393 . S
C1047 C1046 1.391 . S
H1048 C1056 0.950 . S
H1049 C1061 0.950 . S
H1050 C1058 0.950 . S
H1051 C1060 0.950 . S
H1052 C1062 0.950 . S
H1053 C1064 0.950 . S
H1054 C1066 0.950 . S
H1055 C1067 0.950 . S
C1056 H1048 0.950 . S
C1056 C1057 1.386 . S
C1056 C1058 1.391 . S
C1057 C1056 1.386 . S
C1057 C1061 1.393 . S
C1058 H1050 0.950 . S
C1058 C1056 1.391 . S
C1058 C1059 1.400 . S
C1059 C1058 1.400 . S
C1059 C1060 1.398 . S
C1059 C1065 1.491 . S
C1060 H1051 0.950 . S
C1060 C1059 1.398 . S
C1060 C1061 1.391 . S
C1061 H1049 0.950 . S
C1061 C1057 1.393 . S
C1061 C1060 1.391 . S
C1062 H1052 0.950 . S
C1062 C1063 1.386 . S
C1062 C1064 1.391 . S
C1063 C1062 1.386 . S
C1063 C1067 1.393 . S
C1064 H1053 0.950 . S
C1064 C1062 1.391 . S
C1064 C1065 1.400 . S
C1065 C1059 1.491 . S
C1065 C1064 1.400 . S
C1065 C1066 1.398 . S
C1066 H1054 0.950 . S
C1066 C1065 1.398 . S
C1066 C1067 1.391 . S
C1067 H1055 0.950 . S
C1067 C1063 1.393 . S
C1067 C1066 1.391 . S
H1068 C1076 0.950 . S
H1069 C1081 0.950 . S
H1070 C1078 0.950 . S
H1071 C1080 0.950 . S
H1072 C1082 0.950 . S
H1073 C1084 0.950 . S
H1074 C1086 0.950 . S
H1075 C1087 0.950 . S
C1076 H1068 0.950 . S
C1076 C1077 1.386 . S
C1076 C1078 1.391 . S
C1077 C1076 1.386 . S
C1077 C1081 1.393 . S
C1078 H1070 0.950 . S
C1078 C1076 1.391 . S
C1078 C1079 1.400 . S
C1079 C1078 1.400 . S
C1079 C1080 1.398 . S
C1079 C1085 1.491 . S
C1080 H1071 0.950 . S
C1080 C1079 1.398 . S
C1080 C1081 1.391 . S
C1081 H1069 0.950 . S
C1081 C1077 1.393 . S
C1081 C1080 1.391 . S
C1082 H1072 0.950 . S
C1082 C1083 1.386 . S
C1082 C1084 1.391 . S
C1083 C1082 1.386 . S
C1083 C1087 1.393 . S
C1084 H1073 0.950 . S
C1084 C1082 1.391 . S
C1084 C1085 1.400 . S
C1085 C1079 1.491 . S
C1085 C1084 1.400 . S
C1085 C1086 1.398 . S
C1086 H1074 0.950 . S
C1086 C1085 1.398 . S
C1086 C1087 1.391 . S
C1087 H1075 0.950 . S
C1087 C1083 1.393 . S
C1087 C1086 1.391 . S
H1088 C1096 0.950 . S
H1089 C1101 0.950 . S
H1090 C1098 0.950 . S
H1091 C1100 0.950 . S
H1092 C1102 0.950 . S
H1093 C1104 0.950 . S
H1094 C1106 0.950 . S
H1095 C1107 0.950 . S
C1096 H1088 0.950 . S
C1096 C1097 1.386 . S
C1096 C1098 1.391 . S
C1097 C1096 1.386 . S
C1097 C1101 1.393 . S
C1098 H1090 0.950 . S
C1098 C1096 1.391 . S
C1098 C1099 1.400 . S
C1099 C1098 1.400 . S
C1099 C1100 1.398 . S
C1099 C1105 1.491 . S
C1100 H1091 0.950 . S
C1100 C1099 1.398 . S
C1100 C1101 1.391 . S
C1101 H1089 0.950 . S
C1101 C1097 1.393 . S
C1101 C1100 1.391 . S
C1102 H1092 0.950 . S
C1102 C1103 1.386 . S
C1102 C1104 1.391 . S
C1103 C1102 1.386 . S
C1103 C1107 1.393 . S
C1104 H1093 0.950 . S
C1104 C1102 1.391 . S
C1104 C1105 1.400 . S
C1105 C1099 1.491 . S
C1105 C1104 1.400 . S
C1105 C1106 1.398 . S
C1106 H1094 0.950 . S
C1106 C1105 1.398 . S
C1106 C1107 1.391 . S
C1107 H1095 0.950 . S
C1107 C1103 1.393 . S
C1107 C1106 1.391 . S
H1108 C1116 0.950 . S
H1109 C1121 0.950 . S
H1110 C1118 0.950 . S
H1111 C1120 0.950 . S
H1112 C1122 0.950 1_655 S
H1113 C1124 0.950 . S
H1114 C1126 0.950 . S
H1115 C1127 0.950 . S
C1116 H1108 0.950 . S
C1116 C1117 1.386 . S
C1116 C1118 1.391 . S
C1117 C1116 1.386 . S
C1117 C1121 1.393 . S
C1118 H1110 0.950 . S
C1118 C1116 1.391 . S
C1118 C1119 1.400 . S
C1119 C1118 1.400 . S
C1119 C1120 1.398 . S
C1119 C1125 1.491 . S
C1120 H1111 0.950 . S
C1120 C1119 1.398 . S
C1120 C1121 1.391 . S
C1121 H1109 0.950 . S
C1121 C1117 1.393 . S
C1121 C1120 1.391 . S
C1122 H1112 0.950 1_455 S
C1122 C1123 1.386 . S
C1122 C1124 1.391 . S
C1123 C1122 1.386 . S
C1123 C1127 1.393 . S
C1124 H1113 0.950 . S
C1124 C1122 1.391 . S
C1124 C1125 1.400 . S
C1125 C1119 1.491 . S
C1125 C1124 1.400 . S
C1125 C1126 1.398 . S
C1126 H1114 0.950 . S
C1126 C1125 1.398 . S
C1126 C1127 1.391 . S
C1127 H1115 0.950 . S
C1127 C1123 1.393 . S
C1127 C1126 1.391 . S
H1128 C1136 0.950 . S
H1129 C1141 0.950 . S
H1130 C1138 0.950 . S
H1131 C1140 0.950 . S
H1132 C1142 0.950 . S
H1133 C1144 0.950 . S
H1134 C1146 0.950 . S
H1135 C1147 0.950 . S
C1136 H1128 0.950 . S
C1136 C1137 1.386 . S
C1136 C1138 1.391 . S
C1137 C1136 1.386 . S
C1137 C1141 1.393 . S
C1138 H1130 0.950 . S
C1138 C1136 1.391 . S
C1138 C1139 1.400 . S
C1139 C1138 1.400 . S
C1139 C1140 1.398 . S
C1139 C1145 1.491 . S
C1140 H1131 0.950 . S
C1140 C1139 1.398 . S
C1140 C1141 1.391 . S
C1141 H1129 0.950 . S
C1141 C1137 1.393 . S
C1141 C1140 1.391 . S
C1142 H1132 0.950 . S
C1142 C1143 1.386 . S
C1142 C1144 1.391 . S
C1143 C1142 1.386 . S
C1143 C1147 1.393 . S
C1144 H1133 0.950 . S
C1144 C1142 1.391 . S
C1144 C1145 1.400 . S
C1145 C1139 1.491 . S
C1145 C1144 1.400 . S
C1145 C1146 1.398 . S
C1146 H1134 0.950 . S
C1146 C1145 1.398 . S
C1146 C1147 1.391 . S
C1147 H1135 0.950 . S
C1147 C1143 1.393 . S
C1147 C1146 1.391 . S
H1148 C1156 0.950 . S
H1149 C1161 0.950 . S
H1150 C1158 0.950 . S
H1151 C1160 0.950 . S
H1152 C1162 0.950 . S
H1153 C1164 0.950 . S
H1154 C1166 0.950 . S
H1155 C1167 0.950 . S
C1156 H1148 0.950 . S
C1156 C1157 1.386 . S
C1156 C1158 1.391 . S
C1157 C1156 1.386 . S
C1157 C1161 1.393 . S
C1158 H1150 0.950 . S
C1158 C1156 1.391 . S
C1158 C1159 1.400 . S
C1159 C1158 1.400 . S
C1159 C1160 1.398 . S
C1159 C1165 1.491 . S
C1160 H1151 0.950 . S
C1160 C1159 1.398 . S
C1160 C1161 1.391 . S
C1161 H1149 0.950 . S
C1161 C1157 1.393 . S
C1161 C1160 1.391 . S
C1162 H1152 0.950 . S
C1162 C1163 1.386 . S
C1162 C1164 1.391 . S
C1163 C1162 1.386 . S
C1163 C1167 1.393 . S
C1164 H1153 0.950 . S
C1164 C1162 1.391 . S
C1164 C1165 1.400 . S
C1165 C1159 1.491 . S
C1165 C1164 1.400 . S
C1165 C1166 1.398 . S
C1166 H1154 0.950 . S
C1166 C1165 1.398 . S
C1166 C1167 1.391 . S
C1167 H1155 0.950 . S
C1167 C1163 1.393 . S
C1167 C1166 1.391 . S
H1168 C1176 0.950 . S
H1169 C1181 0.950 . S
H1170 C1178 0.950 . S
H1171 C1180 0.950 . S
H1172 C1182 0.950 . S
H1173 C1184 0.950 . S
H1174 C1186 0.950 . S
H1175 C1187 0.950 . S
C1176 H1168 0.950 . S
C1176 C1177 1.386 . S
C1176 C1178 1.391 . S
C1177 C1176 1.386 . S
C1177 C1181 1.393 . S
C1178 H1170 0.950 . S
C1178 C1176 1.391 . S
C1178 C1179 1.400 . S
C1179 C1178 1.400 . S
C1179 C1180 1.398 . S
C1179 C1185 1.491 . S
C1180 H1171 0.950 . S
C1180 C1179 1.398 . S
C1180 C1181 1.391 . S
C1181 H1169 0.950 . S
C1181 C1177 1.393 . S
C1181 C1180 1.391 . S
C1182 H1172 0.950 . S
C1182 C1183 1.386 . S
C1182 C1184 1.391 . S
C1183 C1182 1.386 . S
C1183 C1187 1.393 . S
C1184 H1173 0.950 . S
C1184 C1182 1.391 . S
C1184 C1185 1.400 . S
C1185 C1179 1.491 . S
C1185 C1184 1.400 . S
C1185 C1186 1.398 . S
C1186 H1174 0.950 . S
C1186 C1185 1.398 . S
C1186 C1187 1.391 . S
C1187 H1175 0.950 . S
C1187 C1183 1.393 . S
C1187 C1186 1.391 . S
H1188 C1196 0.950 . S
H1189 C1201 0.950 . S
H1190 C1198 0.950 . S
H1191 C1200 0.950 . S
H1192 C1202 0.950 . S
H1193 C1204 0.950 . S
H1194 C1206 0.950 . S
H1195 C1207 0.950 . S
C1196 H1188 0.950 . S
C1196 C1197 1.386 . S
C1196 C1198 1.391 . S
C1197 C1196 1.386 . S
C1197 C1201 1.393 . S
C1198 H1190 0.950 . S
C1198 C1196 1.391 . S
C1198 C1199 1.400 . S
C1199 C1198 1.400 . S
C1199 C1200 1.398 . S
C1199 C1205 1.491 . S
C1200 H1191 0.950 . S
C1200 C1199 1.398 . S
C1200 C1201 1.391 . S
C1201 H1189 0.950 . S
C1201 C1197 1.393 . S
C1201 C1200 1.391 . S
C1202 H1192 0.950 . S
C1202 C1203 1.386 . S
C1202 C1204 1.391 . S
C1203 C1202 1.386 . S
C1203 C1207 1.393 . S
C1204 H1193 0.950 . S
C1204 C1202 1.391 . S
C1204 C1205 1.400 . S
C1205 C1199 1.491 . S
C1205 C1204 1.400 . S
C1205 C1206 1.398 . S
C1206 H1194 0.950 . S
C1206 C1205 1.398 . S
C1206 C1207 1.391 . S
C1207 H1195 0.950 . S
C1207 C1203 1.393 . S
C1207 C1206 1.391 . S
H1208 C1216 0.950 . S
H1209 C1221 0.950 . S
H1210 C1218 0.950 . S
H1211 C1220 0.950 . S
H1212 C1222 0.950 . S
H1213 C1224 0.950 . S
H1214 C1226 0.950 . S
H1215 C1227 0.950 . S
C1216 H1208 0.950 . S
C1216 C1217 1.386 . S
C1216 C1218 1.391 . S
C1217 C1216 1.386 . S
C1217 C1221 1.393 . S
C1218 H1210 0.950 . S
C1218 C1216 1.391 . S
C1218 C1219 1.400 . S
C1219 C1218 1.400 . S
C1219 C1220 1.398 . S
C1219 C1225 1.491 . S
C1220 H1211 0.950 . S
C1220 C1219 1.398 . S
C1220 C1221 1.391 . S
C1221 H1209 0.950 . S
C1221 C1217 1.393 . S
C1221 C1220 1.391 . S
C1222 H1212 0.950 . S
C1222 C1223 1.386 . S
C1222 C1224 1.391 . S
C1223 C1222 1.386 . S
C1223 C1227 1.393 . S
C1224 H1213 0.950 . S
C1224 C1222 1.391 . S
C1224 C1225 1.400 . S
C1225 C1219 1.491 . S
C1225 C1224 1.400 . S
C1225 C1226 1.398 . S
C1226 H1214 0.950 . S
C1226 C1225 1.398 . S
C1226 C1227 1.391 . S
C1227 H1215 0.950 . S
C1227 C1223 1.393 . S
C1227 C1226 1.391 . S
H1228 C1236 0.950 . S
H1229 C1241 0.950 . S
H1230 C1238 0.950 . S
H1231 C1240 0.950 . S
H1232 C1242 0.950 . S
H1233 C1244 0.950 . S
H1234 C1246 0.950 . S
H1235 C1247 0.950 1_655 S
C1236 H1228 0.950 . S
C1236 C1237 1.386 . S
C1236 C1238 1.391 . S
C1237 C1236 1.386 . S
C1237 C1241 1.393 . S
C1238 H1230 0.950 . S
C1238 C1236 1.391 . S
C1238 C1239 1.400 . S
C1239 C1238 1.400 . S
C1239 C1240 1.398 . S
C1239 C1245 1.491 . S
C1240 H1231 0.950 . S
C1240 C1239 1.398 . S
C1240 C1241 1.391 . S
C1241 H1229 0.950 . S
C1241 C1237 1.393 . S
C1241 C1240 1.391 . S
C1242 H1232 0.950 . S
C1242 C1243 1.386 . S
C1242 C1244 1.391 . S
C1243 C1242 1.386 . S
C1243 C1247 1.393 . S
C1244 H1233 0.950 . S
C1244 C1242 1.391 . S
C1244 C1245 1.400 . S
C1245 C1239 1.491 . S
C1245 C1244 1.400 . S
C1245 C1246 1.398 . S
C1246 H1234 0.950 . S
C1246 C1245 1.398 . S
C1246 C1247 1.391 . S
C1247 H1235 0.950 1_455 S
C1247 C1243 1.393 . S
C1247 C1246 1.391 . S
H1248 C1256 0.950 . S
H1249 C1261 0.950 . S
H1250 C1258 0.950 . S
H1251 C1260 0.950 . S
H1252 C1262 0.950 . S
H1253 C1264 0.950 . S
H1254 C1266 0.950 . S
H1255 C1267 0.950 . S
C1256 H1248 0.950 . S
C1256 C1257 1.386 . S
C1256 C1258 1.391 . S
C1257 C1256 1.386 . S
C1257 C1261 1.393 . S
C1258 H1250 0.950 . S
C1258 C1256 1.391 . S
C1258 C1259 1.400 . S
C1259 C1258 1.400 . S
C1259 C1260 1.398 . S
C1259 C1265 1.491 . S
C1260 H1251 0.950 . S
C1260 C1259 1.398 . S
C1260 C1261 1.391 . S
C1261 H1249 0.950 . S
C1261 C1257 1.393 . S
C1261 C1260 1.391 . S
C1262 H1252 0.950 . S
C1262 C1263 1.386 . S
C1262 C1264 1.391 . S
C1263 C1262 1.386 . S
C1263 C1267 1.393 . S
C1264 H1253 0.950 . S
C1264 C1262 1.391 . S
C1264 C1265 1.400 . S
C1265 C1259 1.491 . S
C1265 C1264 1.400 . S
C1265 C1266 1.398 . S
C1266 H1254 0.950 . S
C1266 C1265 1.398 . S
C1266 C1267 1.391 . S
C1267 H1255 0.950 . S
C1267 C1263 1.393 . S
C1267 C1266 1.391 . S
H1268 C1276 0.950 1_455 S
H1269 C1281 0.950 . S
H1270 C1278 0.950 . S
H1271 C1280 0.950 . S
H1272 C1282 0.950 . S
H1273 C1284 0.950 . S
H1274 C1286 0.950 . S
H1275 C1287 0.950 . S
C1276 H1268 0.950 1_655 S
C1276 C1277 1.386 . S
C1276 C1278 1.391 . S
C1277 C1276 1.386 . S
C1277 C1281 1.393 . S
C1278 H1270 0.950 . S
C1278 C1276 1.391 . S
C1278 C1279 1.400 . S
C1279 C1278 1.400 . S
C1279 C1280 1.398 . S
C1279 C1285 1.491 . S
C1280 H1271 0.950 . S
C1280 C1279 1.398 . S
C1280 C1281 1.391 . S
C1281 H1269 0.950 . S
C1281 C1277 1.393 . S
C1281 C1280 1.391 . S
C1282 H1272 0.950 . S
C1282 C1283 1.386 . S
C1282 C1284 1.391 . S
C1283 C1282 1.386 . S
C1283 C1287 1.393 . S
C1284 H1273 0.950 . S
C1284 C1282 1.391 . S
C1284 C1285 1.400 . S
C1285 C1279 1.491 . S
C1285 C1284 1.400 . S
C1285 C1286 1.398 . S
C1286 H1274 0.950 . S
C1286 C1285 1.398 . S
C1286 C1287 1.391 . S
C1287 H1275 0.950 . S
C1287 C1283 1.393 . S
C1287 C1286 1.391 . S
H1288 C1296 0.950 . S
H1289 C1301 0.950 . S
H1290 C1298 0.950 . S
H1291 C1300 0.950 . S
H1292 C1302 0.950 . S
H1293 C1304 0.950 . S
H1294 C1306 0.950 . S
H1295 C1307 0.950 . S
C1296 H1288 0.950 . S
C1296 C1297 1.386 . S
C1296 C1298 1.391 . S
C1297 C1296 1.386 . S
C1297 C1301 1.393 . S
C1298 H1290 0.950 . S
C1298 C1296 1.391 . S
C1298 C1299 1.400 . S
C1299 C1298 1.400 . S
C1299 C1300 1.398 . S
C1299 C1305 1.491 . S
C1300 H1291 0.950 . S
C1300 C1299 1.398 . S
C1300 C1301 1.391 . S
C1301 H1289 0.950 . S
C1301 C1297 1.393 . S
C1301 C1300 1.391 . S
C1302 H1292 0.950 . S
C1302 C1303 1.386 . S
C1302 C1304 1.391 . S
C1303 C1302 1.386 . S
C1303 C1307 1.393 . S
C1304 H1293 0.950 . S
C1304 C1302 1.391 . S
C1304 C1305 1.400 . S
C1305 C1299 1.491 . S
C1305 C1304 1.400 . S
C1305 C1306 1.398 . S
C1306 H1294 0.950 . S
C1306 C1305 1.398 . S
C1306 C1307 1.391 . S
C1307 H1295 0.950 . S
C1307 C1303 1.393 . S
C1307 C1306 1.391 . S
H1308 C1316 0.950 . S
H1309 C1321 0.950 . S
H1310 C1318 0.950 . S
H1311 C1320 0.950 . S
H1312 C1322 0.950 . S
H1313 C1324 0.950 . S
H1314 C1326 0.950 . S
H1315 C1327 0.950 . S
C1316 H1308 0.950 . S
C1316 C1317 1.386 . S
C1316 C1318 1.391 . S
C1317 C1316 1.386 . S
C1317 C1321 1.393 . S
C1318 H1310 0.950 . S
C1318 C1316 1.391 . S
C1318 C1319 1.400 . S
C1319 C1318 1.400 . S
C1319 C1320 1.398 . S
C1319 C1325 1.491 . S
C1320 H1311 0.950 . S
C1320 C1319 1.398 . S
C1320 C1321 1.391 . S
C1321 H1309 0.950 . S
C1321 C1317 1.393 . S
C1321 C1320 1.391 . S
C1322 H1312 0.950 . S
C1322 C1323 1.386 . S
C1322 C1324 1.391 . S
C1323 C1322 1.386 . S
C1323 C1327 1.393 . S
C1324 H1313 0.950 . S
C1324 C1322 1.391 . S
C1324 C1325 1.400 . S
C1325 C1319 1.491 . S
C1325 C1324 1.400 . S
C1325 C1326 1.398 . S
C1326 H1314 0.950 . S
C1326 C1325 1.398 . S
C1326 C1327 1.391 . S
C1327 H1315 0.950 . S
C1327 C1323 1.393 . S
C1327 C1326 1.391 . S
H1328 C1336 0.950 . S
H1329 C1341 0.950 . S
H1330 C1338 0.950 . S
H1331 C1340 0.950 . S
H1332 C1342 0.950 . S
H1333 C1344 0.950 . S
H1334 C1346 0.950 . S
H1335 C1347 0.950 . S
C1336 H1328 0.950 . S
C1336 C1337 1.386 . S
C1336 C1338 1.391 . S
C1337 C1336 1.386 . S
C1337 C1341 1.393 . S
C1338 H1330 0.950 . S
C1338 C1336 1.391 . S
C1338 C1339 1.400 . S
C1339 C1338 1.400 . S
C1339 C1340 1.398 . S
C1339 C1345 1.491 . S
C1340 H1331 0.950 . S
C1340 C1339 1.398 . S
C1340 C1341 1.391 . S
C1341 H1329 0.950 . S
C1341 C1337 1.393 . S
C1341 C1340 1.391 . S
C1342 H1332 0.950 . S
C1342 C1343 1.386 . S
C1342 C1344 1.391 . S
C1343 C1342 1.386 . S
C1343 C1347 1.393 . S
C1344 H1333 0.950 . S
C1344 C1342 1.391 . S
C1344 C1345 1.400 . S
C1345 C1339 1.491 . S
C1345 C1344 1.400 . S
C1345 C1346 1.398 . S
C1346 H1334 0.950 . S
C1346 C1345 1.398 . S
C1346 C1347 1.391 . S
C1347 H1335 0.950 . S
C1347 C1343 1.393 . S
C1347 C1346 1.391 . S
H1348 C1356 0.950 . S
H1349 C1361 0.950 . S
H1350 C1358 0.950 . S
H1351 C1360 0.950 . S
H1352 C1362 0.950 . S
H1353 C1364 0.950 . S
H1354 C1366 0.950 . S
H1355 C1367 0.950 . S
C1356 H1348 0.950 . S
C1356 C1357 1.386 . S
C1356 C1358 1.391 . S
C1357 C1356 1.386 . S
C1357 C1361 1.393 . S
C1358 H1350 0.950 . S
C1358 C1356 1.391 . S
C1358 C1359 1.400 . S
C1359 C1358 1.400 . S
C1359 C1360 1.398 . S
C1359 C1365 1.491 . S
C1360 H1351 0.950 . S
C1360 C1359 1.398 . S
C1360 C1361 1.391 . S
C1361 H1349 0.950 . S
C1361 C1357 1.393 . S
C1361 C1360 1.391 . S
C1362 H1352 0.950 . S
C1362 C1363 1.386 . S
C1362 C1364 1.391 . S
C1363 C1362 1.386 . S
C1363 C1367 1.393 . S
C1364 H1353 0.950 . S
C1364 C1362 1.391 . S
C1364 C1365 1.400 . S
C1365 C1359 1.491 . S
C1365 C1364 1.400 . S
C1365 C1366 1.398 . S
C1366 H1354 0.950 . S
C1366 C1365 1.398 . S
C1366 C1367 1.391 . S
C1367 H1355 0.950 . S
C1367 C1363 1.393 . S
C1367 C1366 1.391 . S
H1368 C1376 0.950 . S
H1369 C1381 0.950 . S
H1370 C1378 0.950 . S
H1371 C1380 0.950 . S
H1372 C1382 0.950 . S
H1373 C1384 0.950 . S
H1374 C1386 0.950 . S
H1375 C1387 0.950 . S
C1376 H1368 0.950 . S
C1376 C1377 1.386 . S
C1376 C1378 1.391 . S
C1377 C1376 1.386 . S
C1377 C1381 1.393 . S
C1378 H1370 0.950 . S
C1378 C1376 1.391 . S
C1378 C1379 1.400 . S
C1379 C1378 1.400 . S
C1379 C1380 1.398 . S
C1379 C1385 1.491 . S
C1380 H1371 0.950 . S
C1380 C1379 1.398 . S
C1380 C1381 1.391 . S
C1381 H1369 0.950 . S
C1381 C1377 1.393 . S
C1381 C1380 1.391 . S
C1382 H1372 0.950 . S
C1382 C1383 1.386 . S
C1382 C1384 1.391 . S
C1383 C1382 1.386 . S
C1383 C1387 1.393 . S
C1384 H1373 0.950 . S
C1384 C1382 1.391 . S
C1384 C1385 1.400 . S
C1385 C1379 1.491 . S
C1385 C1384 1.400 . S
C1385 C1386 1.398 . S
C1386 H1374 0.950 . S
C1386 C1385 1.398 . S
C1386 C1387 1.391 . S
C1387 H1375 0.950 . S
C1387 C1383 1.393 . S
C1387 C1386 1.391 . S
H1388 C1396 0.950 . S
H1389 C1401 0.950 . S
H1390 C1398 0.950 . S
H1391 C1400 0.950 . S
H1392 C1402 0.950 . S
H1393 C1404 0.950 . S
H1394 C1406 0.950 . S
H1395 C1407 0.950 . S
C1396 H1388 0.950 . S
C1396 C1397 1.386 . S
C1396 C1398 1.391 . S
C1397 C1396 1.386 . S
C1397 C1401 1.393 . S
C1398 H1390 0.950 . S
C1398 C1396 1.391 . S
C1398 C1399 1.400 . S
C1399 C1398 1.400 . S
C1399 C1400 1.398 . S
C1399 C1405 1.491 . S
C1400 H1391 0.950 . S
C1400 C1399 1.398 . S
C1400 C1401 1.391 . S
C1401 H1389 0.950 . S
C1401 C1397 1.393 . S
C1401 C1400 1.391 . S
C1402 H1392 0.950 . S
C1402 C1403 1.386 . S
C1402 C1404 1.391 . S
C1403 C1402 1.386 . S
C1403 C1407 1.393 . S
C1404 H1393 0.950 . S
C1404 C1402 1.391 . S
C1404 C1405 1.400 . S
C1405 C1399 1.491 . S
C1405 C1404 1.400 . S
C1405 C1406 1.398 . S
C1406 H1394 0.950 . S
C1406 C1405 1.398 . S
C1406 C1407 1.391 . S
C1407 H1395 0.950 . S
C1407 C1403 1.393 . S
C1407 C1406 1.391 . S
H1408 C1416 0.950 . S
H1409 C1421 0.950 . S
H1410 C1418 0.950 . S
H1411 C1420 0.950 . S
H1412 C1422 0.950 . S
H1413 C1424 0.950 . S
H1414 C1426 0.950 . S
H1415 C1427 0.950 . S
C1416 H1408 0.950 . S
C1416 C1417 1.386 . S
C1416 C1418 1.391 . S
C1417 C1416 1.386 . S
C1417 C1421 1.393 . S
C1418 H1410 0.950 . S
C1418 C1416 1.391 . S
C1418 C1419 1.400 . S
C1419 C1418 1.400 . S
C1419 C1420 1.398 . S
C1419 C1425 1.491 . S
C1420 H1411 0.950 . S
C1420 C1419 1.398 . S
C1420 C1421 1.391 . S
C1421 H1409 0.950 . S
C1421 C1417 1.393 . S
C1421 C1420 1.391 . S
C1422 H1412 0.950 . S
C1422 C1423 1.386 . S
C1422 C1424 1.391 . S
C1423 C1422 1.386 . S
C1423 C1427 1.393 . S
C1424 H1413 0.950 . S
C1424 C1422 1.391 . S
C1424 C1425 1.400 . S
C1425 C1419 1.491 . S
C1425 C1424 1.400 . S
C1425 C1426 1.398 . S
C1426 H1414 0.950 . S
C1426 C1425 1.398 . S
C1426 C1427 1.391 . S
C1427 H1415 0.950 . S
C1427 C1423 1.393 . S
C1427 C1426 1.391 . S
H1428 C1436 0.950 . S
H1429 C1441 0.950 . S
H1430 C1438 0.950 . S
H1431 C1440 0.950 . S
H1432 C1442 0.950 . S
H1433 C1444 0.950 . S
H1434 C1446 0.950 . S
H1435 C1447 0.950 . S
C1436 H1428 0.950 . S
C1436 C1437 1.386 . S
C1436 C1438 1.391 . S
C1437 C1436 1.386 . S
C1437 C1441 1.393 . S
C1438 H1430 0.950 . S
C1438 C1436 1.391 . S
C1438 C1439 1.400 . S
C1439 C1438 1.400 . S
C1439 C1440 1.398 . S
C1439 C1445 1.491 . S
C1440 H1431 0.950 . S
C1440 C1439 1.398 . S
C1440 C1441 1.391 . S
C1441 H1429 0.950 . S
C1441 C1437 1.393 . S
C1441 C1440 1.391 . S
C1442 H1432 0.950 . S
C1442 C1443 1.386 . S
C1442 C1444 1.391 . S
C1443 C1442 1.386 . S
C1443 C1447 1.393 . S
C1444 H1433 0.950 . S
C1444 C1442 1.391 . S
C1444 C1445 1.400 . S
C1445 C1439 1.491 . S
C1445 C1444 1.400 . S
C1445 C1446 1.398 . S
C1446 H1434 0.950 . S
C1446 C1445 1.398 . S
C1446 C1447 1.391 . S
C1447 H1435 0.950 . S
C1447 C1443 1.393 . S
C1447 C1446 1.391 . S
H1448 C1456 0.950 . S
H1449 C1461 0.950 . S
H1450 C1458 0.950 . S
H1451 C1460 0.950 . S
H1452 C1462 0.950 . S
H1453 C1464 0.950 . S
H1454 C1466 0.950 . S
H1455 C1467 0.950 . S
C1456 H1448 0.950 . S
C1456 C1457 1.386 . S
C1456 C1458 1.391 . S
C1457 C1456 1.386 . S
C1457 C1461 1.393 . S
C1458 H1450 0.950 . S
C1458 C1456 1.391 . S
C1458 C1459 1.400 . S
C1459 C1458 1.400 . S
C1459 C1460 1.398 . S
C1459 C1465 1.491 . S
C1460 H1451 0.950 . S
C1460 C1459 1.398 . S
C1460 C1461 1.391 . S
C1461 H1449 0.950 . S
C1461 C1457 1.393 . S
C1461 C1460 1.391 . S
C1462 H1452 0.950 . S
C1462 C1463 1.386 . S
C1462 C1464 1.391 . S
C1463 C1462 1.386 . S
C1463 C1467 1.393 . S
C1464 H1453 0.950 . S
C1464 C1462 1.391 . S
C1464 C1465 1.400 . S
C1465 C1459 1.491 . S
C1465 C1464 1.400 . S
C1465 C1466 1.398 . S
C1466 H1454 0.950 . S
C1466 C1465 1.398 . S
C1466 C1467 1.391 . S
C1467 H1455 0.950 . S
C1467 C1463 1.393 . S
C1467 C1466 1.391 . S
H1468 C1476 0.950 . S
H1469 C1481 0.950 . S
H1470 C1478 0.950 . S
H1471 C1480 0.950 . S
H1472 C1482 0.950 1_455 S
H1473 C1484 0.950 . S
H1474 C1486 0.950 . S
H1475 C1487 0.950 . S
C1476 H1468 0.950 . S
C1476 C1477 1.386 . S
C1476 C1478 1.391 . S
C1477 C1476 1.386 . S
C1477 C1481 1.393 . S
C1478 H1470 0.950 . S
C1478 C1476 1.391 . S
C1478 C1479 1.400 . S
C1479 C1478 1.400 . S
C1479 C1480 1.398 . S
C1479 C1485 1.491 . S
C1480 H1471 0.950 . S
C1480 C1479 1.398 . S
C1480 C1481 1.391 . S
C1481 H1469 0.950 . S
C1481 C1477 1.393 . S
C1481 C1480 1.391 . S
C1482 H1472 0.950 1_655 S
C1482 C1483 1.386 . S
C1482 C1484 1.391 . S
C1483 C1482 1.386 . S
C1483 C1487 1.393 . S
C1484 H1473 0.950 . S
C1484 C1482 1.391 . S
C1484 C1485 1.400 . S
C1485 C1479 1.491 . S
C1485 C1484 1.400 . S
C1485 C1486 1.398 . S
C1486 H1474 0.950 . S
C1486 C1485 1.398 . S
C1486 C1487 1.391 . S
C1487 H1475 0.950 . S
C1487 C1483 1.393 . S
C1487 C1486 1.391 . S
H1488 C1496 0.950 . S
H1489 C1501 0.950 . S
H1490 C1498 0.950 . S
H1491 C1500 0.950 . S
H1492 C1502 0.950 . S
H1493 C1504 0.950 . S
H1494 C1506 0.950 . S
H1495 C1507 0.950 . S
C1496 H1488 0.950 . S
C1496 C1497 1.386 . S
C1496 C1498 1.391 . S
C1497 C1496 1.386 . S
C1497 C1501 1.393 . S
C1498 H1490 0.950 . S
C1498 C1496 1.391 . S
C1498 C1499 1.400 . S
C1499 C1498 1.400 . S
C1499 C1500 1.398 . S
C1499 C1505 1.491 . S
C1500 H1491 0.950 . S
C1500 C1499 1.398 . S
C1500 C1501 1.391 . S
C1501 H1489 0.950 . S
C1501 C1497 1.393 . S
C1501 C1500 1.391 . S
C1502 H1492 0.950 . S
C1502 C1503 1.386 . S
C1502 C1504 1.391 . S
C1503 C1502 1.386 . S
C1503 C1507 1.393 . S
C1504 H1493 0.950 . S
C1504 C1502 1.391 . S
C1504 C1505 1.400 . S
C1505 C1499 1.491 . S
C1505 C1504 1.400 . S
C1505 C1506 1.398 . S
C1506 H1494 0.950 . S
C1506 C1505 1.398 . S
C1506 C1507 1.391 . S
C1507 H1495 0.950 . S
C1507 C1503 1.393 . S
C1507 C1506 1.391 . S
H1508 C1516 0.950 . S
H1509 C1521 0.950 . S
H1510 C1518 0.950 . S
H1511 C1520 0.950 . S
H1512 C1522 0.950 . S
H1513 C1524 0.950 . S
H1514 C1526 0.950 . S
H1515 C1527 0.950 . S
C1516 H1508 0.950 . S
C1516 C1517 1.386 . S
C1516 C1518 1.391 . S
C1517 C1516 1.386 . S
C1517 C1521 1.393 . S
C1518 H1510 0.950 . S
C1518 C1516 1.391 . S
C1518 C1519 1.400 . S
C1519 C1518 1.400 . S
C1519 C1520 1.398 . S
C1519 C1525 1.491 . S
C1520 H1511 0.950 . S
C1520 C1519 1.398 . S
C1520 C1521 1.391 . S
C1521 H1509 0.950 . S
C1521 C1517 1.393 . S
C1521 C1520 1.391 . S
C1522 H1512 0.950 . S
C1522 C1523 1.386 . S
C1522 C1524 1.391 . S
C1523 C1522 1.386 . S
C1523 C1527 1.393 . S
C1524 H1513 0.950 . S
C1524 C1522 1.391 . S
C1524 C1525 1.400 . S
C1525 C1519 1.491 . S
C1525 C1524 1.400 . S
C1525 C1526 1.398 . S
C1526 H1514 0.950 . S
C1526 C1525 1.398 . S
C1526 C1527 1.391 . S
C1527 H1515 0.950 . S
C1527 C1523 1.393 . S
C1527 C1526 1.391 . S
H1528 C1536 0.950 . S
H1529 C1541 0.950 . S
H1530 C1538 0.950 . S
H1531 C1540 0.950 . S
H1532 C1542 0.950 . S
H1533 C1544 0.950 . S
H1534 C1546 0.950 . S
H1535 C1547 0.950 . S
C1536 H1528 0.950 . S
C1536 C1537 1.386 . S
C1536 C1538 1.391 . S
C1537 C1536 1.386 . S
C1537 C1541 1.393 . S
C1538 H1530 0.950 . S
C1538 C1536 1.391 . S
C1538 C1539 1.400 . S
C1539 C1538 1.400 . S
C1539 C1540 1.398 . S
C1539 C1545 1.491 . S
C1540 H1531 0.950 . S
C1540 C1539 1.398 . S
C1540 C1541 1.391 . S
C1541 H1529 0.950 . S
C1541 C1537 1.393 . S
C1541 C1540 1.391 . S
C1542 H1532 0.950 . S
C1542 C1543 1.386 . S
C1542 C1544 1.391 . S
C1543 C1542 1.386 . S
C1543 C1547 1.393 . S
C1544 H1533 0.950 . S
C1544 C1542 1.391 . S
C1544 C1545 1.400 . S
C1545 C1539 1.491 . S
C1545 C1544 1.400 . S
C1545 C1546 1.398 . S
C1546 H1534 0.950 . S
C1546 C1545 1.398 . S
C1546 C1547 1.391 . S
C1547 H1535 0.950 . S
C1547 C1543 1.393 . S
C1547 C1546 1.391 . S
H1548 C1556 0.950 . S
H1549 C1561 0.950 . S
H1550 C1558 0.950 . S
H1551 C1560 0.950 . S
H1552 C1562 0.950 . S
H1553 C1564 0.950 . S
H1554 C1566 0.950 . S
H1555 C1567 0.950 . S
C1556 H1548 0.950 . S
C1556 C1557 1.386 . S
C1556 C1558 1.391 . S
C1557 C1556 1.386 . S
C1557 C1561 1.393 . S
C1558 H1550 0.950 . S
C1558 C1556 1.391 . S
C1558 C1559 1.400 . S
C1559 C1558 1.400 . S
C1559 C1560 1.398 . S
C1559 C1565 1.491 . S
C1560 H1551 0.950 . S
C1560 C1559 1.398 . S
C1560 C1561 1.391 . S
C1561 H1549 0.950 . S
C1561 C1557 1.393 . S
C1561 C1560 1.391 . S
C1562 H1552 0.950 . S
C1562 C1563 1.386 . S
C1562 C1564 1.391 . S
C1563 C1562 1.386 . S
C1563 C1567 1.393 . S
C1564 H1553 0.950 . S
C1564 C1562 1.391 . S
C1564 C1565 1.400 . S
C1565 C1559 1.491 . S
C1565 C1564 1.400 . S
C1565 C1566 1.398 . S
C1566 H1554 0.950 . S
C1566 C1565 1.398 . S
C1566 C1567 1.391 . S
C1567 H1555 0.950 . S
C1567 C1563 1.393 . S
C1567 C1566 1.391 . S
H1568 C1576 0.950 . S
H1569 C1581 0.950 . S
H1570 C1578 0.950 . S
H1571 C1580 0.950 . S
H1572 C1582 0.950 . S
H1573 C1584 0.950 . S
H1574 C1586 0.950 . S
H1575 C1587 0.950 . S
C1576 H1568 0.950 . S
C1576 C1577 1.386 . S
C1576 C1578 1.391 . S
C1577 C1576 1.386 . S
C1577 C1581 1.393 . S
C1578 H1570 0.950 . S
C1578 C1576 1.391 . S
C1578 C1579 1.400 . S
C1579 C1578 1.400 . S
C1579 C1580 1.398 . S
C1579 C1585 1.491 . S
C1580 H1571 0.950 . S
C1580 C1579 1.398 . S
C1580 C1581 1.391 . S
C1581 H1569 0.950 . S
C1581 C1577 1.393 . S
C1581 C1580 1.391 . S
C1582 H1572 0.950 . S
C1582 C1583 1.386 . S
C1582 C1584 1.391 . S
C1583 C1582 1.386 . S
C1583 C1587 1.393 . S
C1584 H1573 0.950 . S
C1584 C1582 1.391 . S
C1584 C1585 1.400 . S
C1585 C1579 1.491 . S
C1585 C1584 1.400 . S
C1585 C1586 1.398 . S
C1586 H1574 0.950 . S
C1586 C1585 1.398 . S
C1586 C1587 1.391 . S
C1587 H1575 0.950 . S
C1587 C1583 1.393 . S
C1587 C1586 1.391 . S
H1588 C1596 0.950 . S
H1589 C1601 0.950 . S
H1590 C1598 0.950 . S
H1591 C1600 0.950 . S
H1592 C1602 0.950 . S
H1593 C1604 0.950 . S
H1594 C1606 0.950 . S
H1595 C1607 0.950 . S
C1596 H1588 0.950 . S
C1596 C1597 1.386 . S
C1596 C1598 1.391 . S
C1597 C1596 1.386 . S
C1597 C1601 1.393 . S
C1598 H1590 0.950 . S
C1598 C1596 1.391 . S
C1598 C1599 1.400 . S
C1599 C1598 1.400 . S
C1599 C1600 1.398 . S
C1599 C1605 1.491 . S
C1600 H1591 0.950 . S
C1600 C1599 1.398 . S
C1600 C1601 1.391 . S
C1601 H1589 0.950 . S
C1601 C1597 1.393 . S
C1601 C1600 1.391 . S
C1602 H1592 0.950 . S
C1602 C1603 1.386 . S
C1602 C1604 1.391 . S
C1603 C1602 1.386 . S
C1603 C1607 1.393 . S
C1604 H1593 0.950 . S
C1604 C1602 1.391 . S
C1604 C1605 1.400 . S
C1605 C1599 1.491 . S
C1605 C1604 1.400 . S
C1605 C1606 1.398 . S
C1606 H1594 0.950 . S
C1606 C1605 1.398 . S
C1606 C1607 1.391 . S
C1607 H1595 0.950 . S
C1607 C1603 1.393 . S
C1607 C1606 1.391 . S
H1608 C1616 0.950 . S
H1609 C1621 0.950 . S
H1610 C1618 0.950 . S
H1611 C1620 0.950 . S
H1612 C1622 0.950 . S
H1613 C1624 0.950 . S
H1614 C1626 0.950 . S
H1615 C1627 0.950 . S
C1616 H1608 0.950 . S
C1616 C1617 1.386 . S
C1616 C1618 1.391 . S
C1617 C1616 1.386 . S
C1617 C1621 1.393 . S
C1618 H1610 0.950 . S
C1618 C1616 1.391 . S
C1618 C1619 1.400 . S
C1619 C1618 1.400 . S
C1619 C1620 1.398 . S
C1619 C1625 1.491 . S
C1620 H1611 0.950 . S
C1620 C1619 1.398 . S
C1620 C1621 1.391 . S
C1621 H1609 0.950 . S
C1621 C1617 1.393 . S
C1621 C1620 1.391 . S
C1622 H1612 0.950 . S
C1622 C1623 1.386 . S
C1622 C1624 1.391 . S
C1623 C1622 1.386 . S
C1623 C1627 1.393 . S
C1624 H1613 0.950 . S
C1624 C1622 1.391 . S
C1624 C1625 1.400 . S
C1625 C1619 1.491 . S
C1625 C1624 1.400 . S
C1625 C1626 1.398 . S
C1626 H1614 0.950 . S
C1626 C1625 1.398 . S
C1626 C1627 1.391 . S
C1627 H1615 0.950 . S
C1627 C1623 1.393 . S
C1627 C1626 1.391 . S
H1628 C1636 0.950 . S
H1629 C1641 0.950 1_655 S
H1630 C1638 0.950 . S
H1631 C1640 0.950 . S
H1632 C1642 0.950 . S
H1633 C1644 0.950 . S
H1634 C1646 0.950 . S
H1635 C1647 0.950 . S
C1636 H1628 0.950 . S
C1636 C1637 1.386 . S
C1636 C1638 1.391 . S
C1637 C1636 1.386 . S
C1637 C1641 1.393 . S
C1638 H1630 0.950 . S
C1638 C1636 1.391 . S
C1638 C1639 1.400 . S
C1639 C1638 1.400 . S
C1639 C1640 1.398 . S
C1639 C1645 1.491 . S
C1640 H1631 0.950 . S
C1640 C1639 1.398 . S
C1640 C1641 1.391 . S
C1641 H1629 0.950 1_455 S
C1641 C1637 1.393 . S
C1641 C1640 1.391 . S
C1642 H1632 0.950 . S
C1642 C1643 1.386 . S
C1642 C1644 1.391 . S
C1643 C1642 1.386 . S
C1643 C1647 1.393 . S
C1644 H1633 0.950 . S
C1644 C1642 1.391 . S
C1644 C1645 1.400 . S
C1645 C1639 1.491 . S
C1645 C1644 1.400 . S
C1645 C1646 1.398 . S
C1646 H1634 0.950 . S
C1646 C1645 1.398 . S
C1646 C1647 1.391 . S
C1647 H1635 0.950 . S
C1647 C1643 1.393 . S
C1647 C1646 1.391 . S
H1648 C1656 0.950 . S
H1649 C1661 0.950 . S
H1650 C1658 0.950 . S
H1651 C1660 0.950 . S
H1652 C1662 0.950 . S
H1653 C1664 0.950 . S
H1654 C1666 0.950 . S
H1655 C1667 0.950 . S
C1656 H1648 0.950 . S
C1656 C1657 1.386 . S
C1656 C1658 1.391 . S
C1657 C1656 1.386 . S
C1657 C1661 1.393 . S
C1658 H1650 0.950 . S
C1658 C1656 1.391 . S
C1658 C1659 1.400 . S
C1659 C1658 1.400 . S
C1659 C1660 1.398 . S
C1659 C1665 1.491 . S
C1660 H1651 0.950 . S
C1660 C1659 1.398 . S
C1660 C1661 1.391 . S
C1661 H1649 0.950 . S
C1661 C1657 1.393 . S
C1661 C1660 1.391 . S
C1662 H1652 0.950 . S
C1662 C1663 1.386 . S
C1662 C1664 1.391 . S
C1663 C1662 1.386 . S
C1663 C1667 1.393 . S
C1664 H1653 0.950 . S
C1664 C1662 1.391 . S
C1664 C1665 1.400 . S
C1665 C1659 1.491 . S
C1665 C1664 1.400 . S
C1665 C1666 1.398 . S
C1666 H1654 0.950 . S
C1666 C1665 1.398 . S
C1666 C1667 1.391 . S
C1667 H1655 0.950 . S
C1667 C1663 1.393 . S
C1667 C1666 1.391 . S
H1668 C1676 0.950 . S
H1669 C1681 0.950 . S
H1670 C1678 0.950 . S
H1671 C1680 0.950 . S
H1672 C1682 0.950 . S
H1673 C1684 0.950 . S
H1674 C1686 0.950 . S
H1675 C1687 0.950 . S
C1676 H1668 0.950 . S
C1676 C1677 1.386 . S
C1676 C1678 1.391 . S
C1677 C1676 1.386 . S
C1677 C1681 1.393 . S
C1678 H1670 0.950 . S
C1678 C1676 1.391 . S
C1678 C1679 1.400 . S
C1679 C1678 1.400 . S
C1679 C1680 1.398 . S
C1679 C1685 1.491 . S
C1680 H1671 0.950 . S
C1680 C1679 1.398 . S
C1680 C1681 1.391 . S
C1681 H1669 0.950 . S
C1681 C1677 1.393 . S
C1681 C1680 1.391 . S
C1682 H1672 0.950 . S
C1682 C1683 1.386 . S
C1682 C1684 1.391 . S
C1683 C1682 1.386 . S
C1683 C1687 1.393 . S
C1684 H1673 0.950 . S
C1684 C1682 1.391 . S
C1684 C1685 1.400 . S
C1685 C1679 1.491 . S
C1685 C1684 1.400 . S
C1685 C1686 1.398 . S
C1686 H1674 0.950 . S
C1686 C1685 1.398 . S
C1686 C1687 1.391 . S
C1687 H1675 0.950 . S
C1687 C1683 1.393 . S
C1687 C1686 1.391 . S
H1688 C1696 0.950 . S
H1689 C1701 0.950 . S
H1690 C1698 0.950 . S
H1691 C1700 0.950 . S
H1692 C1702 0.950 . S
H1693 C1704 0.950 . S
H1694 C1706 0.950 . S
H1695 C1707 0.950 . S
C1696 H1688 0.950 . S
C1696 C1697 1.386 . S
C1696 C1698 1.391 . S
C1697 C1696 1.386 . S
C1697 C1701 1.393 . S
C1698 H1690 0.950 . S
C1698 C1696 1.391 . S
C1698 C1699 1.400 . S
C1699 C1698 1.400 . S
C1699 C1700 1.398 . S
C1699 C1705 1.491 . S
C1700 H1691 0.950 . S
C1700 C1699 1.398 . S
C1700 C1701 1.391 . S
C1701 H1689 0.950 . S
C1701 C1697 1.393 . S
C1701 C1700 1.391 . S
C1702 H1692 0.950 . S
C1702 C1703 1.386 . S
C1702 C1704 1.391 . S
C1703 C1702 1.386 . S
C1703 C1707 1.393 . S
C1704 H1693 0.950 . S
C1704 C1702 1.391 . S
C1704 C1705 1.400 . S
C1705 C1699 1.491 . S
C1705 C1704 1.400 . S
C1705 C1706 1.398 . S
C1706 H1694 0.950 . S
C1706 C1705 1.398 . S
C1706 C1707 1.391 . S
C1707 H1695 0.950 . S
C1707 C1703 1.393 . S
C1707 C1706 1.391 . S
H1708 C1716 0.950 . S
H1709 C1721 0.950 . S
H1710 C1718 0.950 . S
H1711 C1720 0.950 . S
H1712 C1722 0.950 . S
H1713 C1724 0.950 . S
H1714 C1726 0.950 . S
H1715 C1727 0.950 . S
C1716 H1708 0.950 . S
C1716 C1717 1.386 . S
C1716 C1718 1.391 . S
C1717 C1716 1.386 . S
C1717 C1721 1.393 . S
C1718 H1710 0.950 . S
C1718 C1716 1.391 . S
C1718 C1719 1.400 . S
C1719 C1718 1.400 . S
C1719 C1720 1.398 . S
C1719 C1725 1.491 . S
C1720 H1711 0.950 . S
C1720 C1719 1.398 . S
C1720 C1721 1.391 . S
C1721 H1709 0.950 . S
C1721 C1717 1.393 . S
C1721 C1720 1.391 . S
C1722 H1712 0.950 . S
C1722 C1723 1.386 . S
C1722 C1724 1.391 . S
C1723 C1722 1.386 . S
C1723 C1727 1.393 . S
C1724 H1713 0.950 . S
C1724 C1722 1.391 . S
C1724 C1725 1.400 . S
C1725 C1719 1.491 . S
C1725 C1724 1.400 . S
C1725 C1726 1.398 . S
C1726 H1714 0.950 . S
C1726 C1725 1.398 . S
C1726 C1727 1.391 . S
C1727 H1715 0.950 . S
C1727 C1723 1.393 . S
C1727 C1726 1.391 . S
C457 C62 1.522 . S
C463 C6 1.536 . S
C477 C76 1.521 . S
C483 C20 1.511 . S
C497 C90 1.525 . S
C503 C34 1.537 . S
C517 C48 1.528 . S
C523 C104 1.537 . S
C537 C118 1.536 . S
C543 C174 1.531 . S
C557 C188 1.537 . S
C563 C132 1.525 . S
C577 C146 1.525 . S
C583 C202 1.537 . S
C597 C216 1.537 . S
C603 C160 1.530 . S
C617 C230 1.514 . S
C623 C286 1.513 . S
C637 C300 1.517 . S
C643 C244 1.533 . S
C657 C314 1.513 . S
C663 C258 1.515 . S
C677 C328 1.513 . S
C683 C272 1.515 . S
C697 C342 1.511 . S
C703 C398 1.522 . S
C717 C356 1.516 . S
C723 C412 1.512 . S
C737 C370 1.512 . S
C743 C426 1.527 . S
C757 C384 1.512 . S
C763 C440 1.517 . S
C777 C8 1.753 1_565 S
C783 C106 1.756 . S
C797 C22 1.745 . S
C803 C64 1.746 1_545 S
C817 C36 1.754 1_545 S
C823 C78 1.757 . S
C837 C92 1.747 1_565 S
C843 C50 1.745 . S
C857 C218 1.754 . S
C863 C120 1.750 1_545 S
C877 C176 1.749 1_565 S
C883 C134 1.753 . S
C897 C190 1.751 . S
C903 C148 1.747 1_565 S
C917 C162 1.754 . S
C923 C204 1.750 1_545 S
C937 C330 1.746 . S
C943 C232 1.749 . S
C957 C288 1.746 . S
C963 C246 1.745 . S
C977 C302 1.745 . S
C983 C260 1.747 . S
C997 C274 1.750 . S
C1003 C316 1.754 . S
C1017 C344 1.754 . S
C1023 C442 1.756 . S
C1037 C358 1.755 . S
C1043 C400 1.751 . S
C1057 C372 1.750 . S
C1063 C414 1.754 . S
C1077 C428 1.747 . S
C1083 C386 1.745 . S
C1097 C9 1.413 . S
C1103 C357 1.414 . S
C1117 C23 1.432 . S
C1123 C147 1.428 1_455 S
C1137 C37 1.416 . S
C1143 C385 1.421 . S
C1157 C119 1.428 . S
C1163 C51 1.431 . S
C1177 C441 1.427 . S
C1183 C65 1.422 . S
C1197 C79 1.416 . S
C1203 C175 1.421 . S
C1217 C93 1.414 . S
C1223 C413 1.418 . S
C1237 C107 1.418 . S
C1243 C203 1.408 1_455 S
C1257 C245 1.420 . S
C1263 C121 1.416 . S
C1277 C35 1.429 1_655 S
C1283 C135 1.429 . S
C1297 C273 1.428 . S
C1303 C149 1.423 . S
C1317 C163 1.432 . S
C1323 C7 1.420 . S
C1337 C329 1.410 . S
C1343 C177 1.423 . S
C1357 C63 1.425 . S
C1363 C191 1.433 . S
C1377 C301 1.415 . S
C1383 C205 1.429 . S
C1397 C91 1.425 1_655 S
C1403 C219 1.419 . S
C1417 C133 1.408 . S
C1423 C233 1.418 . S
C1437 C247 1.417 . S
C1443 C371 1.408 . S
C1457 C261 1.433 . S
C1463 C161 1.425 . S
C1477 C275 1.428 . S
C1483 C343 1.429 1_655 S
C1497 C289 1.431 . S
C1503 C217 1.417 . S
C1517 C399 1.414 1_655 S
C1523 C303 1.428 . S
C1537 C317 1.421 . S
C1543 C189 1.409 . S
C1557 C331 1.416 . S
C1563 C427 1.409 . S
C1577 C345 1.422 . S
C1583 C21 1.409 . S
C1597 C359 1.416 . S
C1603 C259 1.422 . S
C1617 C49 1.428 . S
C1623 C373 1.424 . S
C1637 C231 1.410 1_455 S
C1643 C387 1.414 . S
C1657 C401 1.428 . S
C1663 C105 1.413 . S
C1677 C415 1.429 . S
C1683 C287 1.416 1_455 S
C1697 C77 1.410 . S
C1703 C429 1.423 . S
C1717 C315 1.427 . S
C1723 C443 1.432 . S
