# Generated by pormake.
# Topology ume, (4)-cn, num edge types: 1
# Building blocks:
#     Node 0, Type 0, BuildingBlock: KOZSID_clean_sbu_0, # of connection points: 4
#     Node 1, Type 0, BuildingBlock: KOZSID_clean_sbu_0, # of connection points: 4
#     Node 2, Type 0, BuildingBlock: KOZSID_clean_sbu_0, # of connection points: 4
#     Node 3, Type 0, BuildingBlock: KOZSID_clean_sbu_0, # of connection points: 4
#     Node 4, Type 0, BuildingBlock: KOZSID_clean_sbu_0, # of connection points: 4
#     Node 5, Type 0, BuildingBlock: KOZSID_clean_sbu_0, # of connection points: 4
#     Node 6, Type 0, BuildingBlock: KOZSID_clean_sbu_0, # of connection points: 4
#     Node 7, Type 0, BuildingBlock: KOZSID_clean_sbu_0, # of connection points: 4
#     Node 8, Type 0, BuildingBlock: KOZSID_clean_sbu_0, # of connection points: 4
#     Node 9, Type 0, BuildingBlock: KOZSID_clean_sbu_0, # of connection points: 4
#     Node 10, Type 0, BuildingBlock: KOZSID_clean_sbu_0, # of connection points: 4
#     Node 11, Type 0, BuildingBlock: KOZSID_clean_sbu_0, # of connection points: 4
#     Node 12, Type 0, BuildingBlock: KOZSID_clean_sbu_0, # of connection points: 4
#     Node 13, Type 0, BuildingBlock: KOZSID_clean_sbu_0, # of connection points: 4
#     Node 14, Type 0, BuildingBlock: KOZSID_clean_sbu_0, # of connection points: 4
#     Node 15, Type 0, BuildingBlock: KOZSID_clean_sbu_0, # of connection points: 4
#     Edge 16, Type (0, 0), BuildingBlock: ZUJKAS_clean_linker_0, # of connection points: 2
#     Edge 17, Type (0, 0), BuildingBlock: ZUJKAS_clean_linker_0, # of connection points: 2
#     Edge 18, Type (0, 0), BuildingBlock: ZUJKAS_clean_linker_0, # of connection points: 2
#     Edge 19, Type (0, 0), BuildingBlock: ZUJKAS_clean_linker_0, # of connection points: 2
#     Edge 20, Type (0, 0), BuildingBlock: ZUJKAS_clean_linker_0, # of connection points: 2
#     Edge 21, Type (0, 0), BuildingBlock: ZUJKAS_clean_linker_0, # of connection points: 2
#     Edge 22, Type (0, 0), BuildingBlock: ZUJKAS_clean_linker_0, # of connection points: 2
#     Edge 23, Type (0, 0), BuildingBlock: ZUJKAS_clean_linker_0, # of connection points: 2
#     Edge 24, Type (0, 0), BuildingBlock: ZUJKAS_clean_linker_0, # of connection points: 2
#     Edge 25, Type (0, 0), BuildingBlock: ZUJKAS_clean_linker_0, # of connection points: 2
#     Edge 26, Type (0, 0), BuildingBlock: ZUJKAS_clean_linker_0, # of connection points: 2
#     Edge 27, Type (0, 0), BuildingBlock: ZUJKAS_clean_linker_0, # of connection points: 2
#     Edge 28, Type (0, 0), BuildingBlock: ZUJKAS_clean_linker_0, # of connection points: 2
#     Edge 29, Type (0, 0), BuildingBlock: ZUJKAS_clean_linker_0, # of connection points: 2
#     Edge 30, Type (0, 0), BuildingBlock: ZUJKAS_clean_linker_0, # of connection points: 2
#     Edge 31, Type (0, 0), BuildingBlock: ZUJKAS_clean_linker_0, # of connection points: 2
#     Edge 32, Type (0, 0), BuildingBlock: ZUJKAS_clean_linker_0, # of connection points: 2
#     Edge 33, Type (0, 0), BuildingBlock: ZUJKAS_clean_linker_0, # of connection points: 2
#     Edge 34, Type (0, 0), BuildingBlock: ZUJKAS_clean_linker_0, # of connection points: 2
#     Edge 35, Type (0, 0), BuildingBlock: ZUJKAS_clean_linker_0, # of connection points: 2
#     Edge 36, Type (0, 0), BuildingBlock: ZUJKAS_clean_linker_0, # of connection points: 2
#     Edge 37, Type (0, 0), BuildingBlock: ZUJKAS_clean_linker_0, # of connection points: 2
#     Edge 38, Type (0, 0), BuildingBlock: ZUJKAS_clean_linker_0, # of connection points: 2
#     Edge 39, Type (0, 0), BuildingBlock: ZUJKAS_clean_linker_0, # of connection points: 2
#     Edge 40, Type (0, 0), BuildingBlock: ZUJKAS_clean_linker_0, # of connection points: 2
#     Edge 41, Type (0, 0), BuildingBlock: ZUJKAS_clean_linker_0, # of connection points: 2
#     Edge 42, Type (0, 0), BuildingBlock: ZUJKAS_clean_linker_0, # of connection points: 2
#     Edge 43, Type (0, 0), BuildingBlock: ZUJKAS_clean_linker_0, # of connection points: 2
#     Edge 44, Type (0, 0), BuildingBlock: ZUJKAS_clean_linker_0, # of connection points: 2
#     Edge 45, Type (0, 0), BuildingBlock: ZUJKAS_clean_linker_0, # of connection points: 2
#     Edge 46, Type (0, 0), BuildingBlock: ZUJKAS_clean_linker_0, # of connection points: 2
#     Edge 47, Type (0, 0), BuildingBlock: ZUJKAS_clean_linker_0, # of connection points: 2
# Relax obj value: 0.054
# Max RMSD: 0.237
# Mean RMSD: 0.213
data_MOF--net-ume--node1-KOZSID_clean_sbu_0--edge1-ZUJKAS_clean_linker_0
_symmetry_space_group_name_H-M    P1
_symmetry_Int_Tables_number       1
_symmetry_cell_setting            triclinic
loop_
_symmetry_equiv_pos_as_xyz
'x, y, z'
_cell_length_a     41.019406
_cell_length_b     47.007016
_cell_length_c     167.22988
_cell_angle_alpha  89.943443
_cell_angle_beta   89.946027
_cell_angle_gamma 90.06233
loop_
_atom_site_label
_atom_site_type_symbol
_atom_site_fract_x
_atom_site_fract_y
_atom_site_fract_z
_atom_type_partial_charge
C0 C 0.32163 0.07973 0.31582 0.0
C1 C 0.33583 0.10584 0.31751 0.0
C2 C 0.31406 0.12636 0.31512 0.0
C3 C 0.28778 0.11173 0.3121 0.0
N4 N 0.29163 0.08334 0.31255 0.0
Co5 Co 0.26013 0.05472 0.30855 0.0
N6 N 0.22379 0.0826 0.30825 0.0
C7 C 0.22709 0.11106 0.30825 0.0
C8 C 0.19753 0.12486 0.30812 0.0
C9 C 0.17432 0.10369 0.30802 0.0
C10 C 0.19102 0.07807 0.3081 0.0
N11 N 0.22861 0.02616 0.30445 0.0
C12 C 0.19554 0.02627 0.30455 0.0
C13 C 0.18317 1.00151 0.30118 0.0
C14 C 0.20942 0.98563 0.29881 0.0
C15 C 0.23628 1.00137 0.30089 0.0
N16 N 0.29578 0.02626 0.30886 0.0
C17 C 0.29621 1.00131 0.30491 0.0
C18 C 0.32417 0.98601 0.30617 0.0
C19 C 0.34267 1.00248 0.31116 0.0
C20 C 0.32485 0.02708 0.31268 0.0
N21 N 0.24877 0.04527 0.31974 0.0
C22 C 0.24353 0.03472 0.33639 0.0
C23 C 0.24762 0.0123 0.33089 0.0
C24 C 0.24995 0.01799 0.32261 0.0
C25 C 0.24087 0.0623 0.33325 0.0
C26 C 0.24345 0.06704 0.32501 0.0
N27 N 0.27303 0.06546 0.29745 0.0
C28 C 0.31666 0.07966 0.2885 0.0
C29 C 0.29467 0.09033 0.28282 0.0
C30 C 0.26118 0.08652 0.28449 0.0
C31 C 0.25092 0.07392 0.29178 0.0
C32 C 0.30556 0.06773 0.29567 0.0
H33 H 0.22511 0.07199 0.29294 0.0
H34 H 0.32383 0.06143 0.29992 0.0
H35 H 0.25373 1.00043 0.31856 0.0
H36 H 0.24253 0.08873 0.32297 0.0
C37 C 0.2576 0.12346 0.30985 0.0
C38 C 0.33813 0.05211 0.31682 0.0
C39 C 0.17533 0.04991 0.30745 0.0
C40 C 0.26826 0.99123 0.30108 0.0
H41 H 0.35956 0.10965 0.32013 0.0
H42 H 0.31676 0.14917 0.3157 0.0
H43 H 0.19326 0.14755 0.30842 0.0
H44 H 0.14817 0.1067 0.30787 0.0
H45 H 0.1579 0.99532 0.30056 0.0
H46 H 0.20895 0.96447 0.29627 0.0
H47 H 0.33011 0.9651 0.3039 0.0
H48 H 0.36687 0.99723 0.31326 0.0
H49 H 0.2493 0.99051 0.33294 0.0
H50 H 0.23817 0.08052 0.33714 0.0
H51 H 0.34271 0.08081 0.28751 0.0
H52 H 0.24287 0.09409 0.28035 0.0
C53 C 0.95916 0.77373 0.54853 0.0
C54 C 0.98386 0.77191 0.54289 0.0
C55 C 0.00988 0.75896 0.54661 0.0
C56 C 0.9998 0.75364 0.55432 0.0
N57 N 0.96912 0.76248 0.55564 0.0
Co58 Co 0.94583 0.76068 0.56605 0.0
N59 N 0.98674 0.75602 0.57225 0.0
C60 C 0.01543 0.7475 0.56916 0.0
C61 C 0.03935 0.74508 0.57487 0.0
C62 C 0.02462 0.75216 0.58198 0.0
C63 C 0.99237 0.75849 0.58024 0.0
N64 N 0.92187 0.75945 0.57637 0.0
C65 C 0.93278 0.76253 0.58398 0.0
C66 C 0.90738 0.75923 0.58941 0.0
C67 C 0.87988 0.75359 0.58505 0.0
C68 C 0.88986 0.75375 0.57721 0.0
N69 N 0.90491 0.76487 0.55986 0.0
C70 C 0.8749 0.75778 0.56242 0.0
C71 C 0.85116 0.76315 0.55683 0.0
C72 C 0.86731 0.77439 0.55037 0.0
C73 C 0.90007 0.77536 0.5524 0.0
N74 N 0.94324 0.71862 0.5652 0.0
C75 C 0.95454 0.65927 0.56383 0.0
C76 C 0.95469 0.67299 0.57128 0.0
C77 C 0.94914 0.70231 0.57183 0.0
C78 C 0.94605 0.67587 0.55713 0.0
C79 C 0.94026 0.70533 0.55795 0.0
N80 N 0.95003 0.80222 0.56689 0.0
C81 C 0.92811 0.84935 0.56896 0.0
C82 C 0.95881 0.86164 0.56741 0.0
C83 C 0.98485 0.84333 0.56579 0.0
C84 C 0.97998 0.81407 0.56553 0.0
C85 C 0.92423 0.81955 0.56865 0.0
H86 H 1.00074 0.80104 0.56415 0.0
H87 H 0.90043 0.81054 0.56977 0.0
H88 H 0.95129 0.71188 0.57765 0.0
H89 H 0.9349 0.71757 0.55264 0.0
C90 C 0.01986 0.74608 0.56081 0.0
C91 C 0.92606 0.78502 0.54699 0.0
C92 C 0.96726 0.76474 0.58634 0.0
C93 C 0.86942 0.75213 0.57053 0.0
H94 H 0.98334 0.77938 0.53677 0.0
H95 H 0.03384 0.75531 0.5441 0.0
H96 H 0.0647 0.73959 0.57395 0.0
H97 H 0.0362 0.75234 0.58779 0.0
H98 H 0.90871 0.75998 0.59587 0.0
H99 H 0.85545 0.75025 0.58731 0.0
H100 H 0.82508 0.76065 0.55752 0.0
H101 H 0.85624 0.78126 0.54482 0.0
H102 H 0.95983 0.6613 0.57672 0.0
H103 H 0.94524 0.66654 0.55122 0.0
H104 H 0.90718 0.86259 0.57024 0.0
H105 H 0.00921 0.85149 0.56477 0.0
C106 C 0.18493 0.44204 0.81553 0.0
C107 C 0.16993 0.41613 0.81708 0.0
C108 C 0.1913 0.39531 0.81467 0.0
C109 C 0.21815 0.40956 0.8118 0.0
N110 N 0.21502 0.43799 0.81235 0.0
Co111 Co 0.24752 0.46615 0.80855 0.0
N112 N 0.28314 0.43754 0.80822 0.0
C113 C 0.27908 0.40916 0.80811 0.0
C114 C 0.30827 0.39477 0.80798 0.0
C115 C 0.33205 0.41547 0.80799 0.0
C116 C 0.31604 0.44141 0.80814 0.0
N117 N 0.28 0.49428 0.80465 0.0
C118 C 0.31304 0.49343 0.8048 0.0
C119 C 0.32628 0.51789 0.80145 0.0
C120 C 0.30059 0.53447 0.79908 0.0
C121 C 0.27319 0.51933 0.80113 0.0
N122 N 0.21268 0.49537 0.80891 0.0
C123 C 0.21315 0.52055 0.80506 0.0
C124 C 0.18558 0.53638 0.80632 0.0
C125 C 0.16638 0.52003 0.8112 0.0
C126 C 0.18341 0.49496 0.81266 0.0
N127 N 0.25856 0.47464 0.81982 0.0
C128 C 0.26262 0.48371 0.83654 0.0
C129 C 0.25922 0.50664 0.83117 0.0
C130 C 0.25754 0.50169 0.82285 0.0
C131 C 0.2653 0.4564 0.83324 0.0
C132 C 0.26325 0.45238 0.82497 0.0
N133 N 0.23484 0.45626 0.79738 0.0
C134 C 0.19108 0.44374 0.78828 0.0
C135 C 0.21274 0.43141 0.78278 0.0
C136 C 0.24629 0.43378 0.78459 0.0
C137 C 0.25678 0.44652 0.79182 0.0
C138 C 0.20236 0.45545 0.79546 0.0
H139 H 0.2826 0.44737 0.79306 0.0
H140 H 0.18415 0.46266 0.79961 0.0
H141 H 0.25429 0.51962 0.81889 0.0
H142 H 0.26397 0.43086 0.82281 0.0
C143 C 0.24814 0.39732 0.80959 0.0
C144 C 0.16917 0.46995 0.81663 0.0
C145 C 0.33247 0.46931 0.80768 0.0
C146 C 0.24152 0.53019 0.8013 0.0
H147 H 0.14597 0.41267 0.81961 0.0
H148 H 0.18796 0.37253 0.81516 0.0
H149 H 0.31192 0.37199 0.8082 0.0
H150 H 0.35812 0.41193 0.80789 0.0
H151 H 0.3518 0.5233 0.8008 0.0
H152 H 0.30178 0.55563 0.79654 0.0
H153 H 0.18032 0.55752 0.8041 0.0
H154 H 0.14221 0.52568 0.81324 0.0
H155 H 0.25756 0.52824 0.83336 0.0
H156 H 0.26751 0.43784 0.83704 0.0
H157 H 0.16509 0.44399 0.7872 0.0
H158 H 0.26447 0.42498 0.78061 0.0
C159 C 0.54627 0.74279 0.04881 0.0
C160 C 0.52145 0.74411 0.0432 0.0
C161 C 0.49552 0.75739 0.04686 0.0
C162 C 0.50575 0.76337 0.05451 0.0
N163 N 0.53644 0.75461 0.05585 0.0
Co164 Co 0.55998 0.75757 0.0662 0.0
N165 N 0.51926 0.76329 0.07242 0.0
C166 C 0.49056 0.77159 0.0693 0.0
C167 C 0.46673 0.77462 0.07502 0.0
C168 C 0.48153 0.76816 0.08217 0.0
C169 C 0.51374 0.76157 0.08043 0.0
N170 N 0.58413 0.75982 0.07647 0.0
C171 C 0.57332 0.75751 0.08412 0.0
C172 C 0.5988 0.76132 0.08949 0.0
C173 C 0.62625 0.76642 0.08504 0.0
C174 C 0.61616 0.76548 0.07723 0.0
N175 N 0.60079 0.75248 0.06 0.0
C176 C 0.63087 0.75975 0.06246 0.0
C177 C 0.6545 0.75393 0.05687 0.0
C178 C 0.63823 0.74223 0.05051 0.0
C179 C 0.60548 0.74146 0.0526 0.0
N180 N 0.56294 0.79951 0.06493 0.0
C181 C 0.55392 0.85886 0.06307 0.0
C182 C 0.55406 0.84621 0.07065 0.0
C183 C 0.55827 0.81674 0.07145 0.0
C184 C 0.56012 0.84127 0.05645 0.0
C185 C 0.56521 0.81184 0.05752 0.0
N186 N 0.55546 0.71617 0.06748 0.0
C187 C 0.57703 0.66926 0.07012 0.0
C188 C 0.54578 0.65727 0.06933 0.0
C189 C 0.51986 0.67535 0.06748 0.0
C190 C 0.5252 0.7044 0.06653 0.0
C191 C 0.5813 0.69888 0.06926 0.0
H192 H 0.50454 0.71731 0.06499 0.0
H193 H 0.60535 0.70781 0.07003 0.0
H194 H 0.55613 0.80787 0.07736 0.0
H195 H 0.56967 0.79891 0.0523 0.0
C196 C 0.48592 0.7719 0.06095 0.0
C197 C 0.5794 0.73155 0.04727 0.0
C198 C 0.53886 0.75554 0.08654 0.0
C199 C 0.6365 0.76627 0.0705 0.0
H200 H 0.52189 0.73618 0.03713 0.0
H201 H 0.47154 0.76093 0.04436 0.0
H202 H 0.44137 0.77999 0.07409 0.0
H203 H 0.46998 0.76844 0.08799 0.0
H204 H 0.59756 0.76124 0.09596 0.0
H205 H 0.65073 0.76991 0.08725 0.0
H206 H 0.68059 0.75652 0.0575 0.0
H207 H 0.64921 0.73501 0.04499 0.0
H208 H 0.54934 0.85883 0.07594 0.0
H209 H 0.56073 0.85014 0.05047 0.0
H210 H 0.5978 0.65598 0.07154 0.0
H211 H 0.49544 0.66703 0.06666 0.0
C212 C 0.32045 0.43922 0.94604 0.0
C213 C 0.3374 0.41378 0.94534 0.0
C214 C 0.31606 0.39243 0.94733 0.0
C215 C 0.28739 0.40589 0.9492 0.0
N216 N 0.28917 0.43437 0.94836 0.0
Co217 Co 0.25458 0.46159 0.95162 0.0
N218 N 0.2207 0.43132 0.95208 0.0
C219 C 0.22612 0.40315 0.95231 0.0
C220 C 0.19772 0.38758 0.95219 0.0
C221 C 0.17295 0.40727 0.95186 0.0
C222 C 0.18768 0.43381 0.95183 0.0
N223 N 0.2204 0.48864 0.95515 0.0
C224 C 0.18762 0.48584 0.95508 0.0
C225 C 0.17253 0.50951 0.95838 0.0
C226 C 0.19688 0.52799 0.96046 0.0
C227 C 0.22531 0.51453 0.95837 0.0
N228 N 0.28725 0.49254 0.95091 0.0
C229 C 0.28377 0.51943 0.95356 0.0
C230 C 0.30767 0.53737 0.95082 0.0
C231 C 0.32779 0.52059 0.94633 0.0
C232 C 0.31557 0.493 0.9468 0.0
N233 N 0.24372 0.46813 0.94023 0.0
C234 C 0.24098 0.47624 0.92345 0.0
C235 C 0.23943 0.49945 0.92876 0.0
C236 C 0.24071 0.49494 0.9371 0.0
C237 C 0.24164 0.44892 0.92683 0.0
C238 C 0.24288 0.44536 0.93514 0.0
N239 N 0.26686 0.45391 0.96296 0.0
C240 C 0.31024 0.44478 0.97248 0.0
C241 C 0.2887 0.43155 0.97782 0.0
C242 C 0.25545 0.4313 0.97572 0.0
C243 C 0.24501 0.44298 0.96836 0.0
C244 C 0.29901 0.45561 0.96516 0.0
H245 H 0.21937 0.44214 0.96694 0.0
H246 H 0.31701 0.46408 0.96115 0.0
H247 H 0.24058 0.51324 0.94098 0.0
H248 H 0.24445 0.42399 0.93741 0.0
C249 C 0.25777 0.39258 0.95119 0.0
C250 C 0.33553 0.46757 0.94527 0.0
C251 C 0.17016 0.46112 0.95196 0.0
C252 C 0.25538 0.528 0.95747 0.0
H253 H 0.36274 0.41086 0.94376 0.0
H254 H 0.32094 0.36981 0.94742 0.0
H255 H 0.19528 0.36466 0.95199 0.0
H256 H 0.14713 0.40262 0.95165 0.0
H257 H 0.14665 0.51329 0.95905 0.0
H258 H 0.19404 0.54942 0.96272 0.0
H259 H 0.30983 0.56005 0.95182 0.0
H260 H 0.35021 0.52746 0.9435 0.0
H261 H 0.23863 0.52103 0.9265 0.0
H262 H 0.24178 0.43018 0.92307 0.0
H263 H 0.33612 0.4456 0.97374 0.0
H264 H 0.2376 0.42189 0.9797 0.0
C265 C 0.54933 0.77623 0.2108 0.0
C266 C 0.52507 0.774 0.21655 0.0
C267 C 0.49898 0.76078 0.21293 0.0
C268 C 0.5087 0.75559 0.20519 0.0
N269 N 0.53918 0.76478 0.20374 0.0
Co270 Co 0.56222 0.76218 0.19331 0.0
N271 N 0.52117 0.75626 0.18724 0.0
C272 C 0.49277 0.74753 0.19045 0.0
C273 C 0.46875 0.74401 0.18482 0.0
C274 C 0.4831 0.75062 0.17761 0.0
C275 C 0.5152 0.75787 0.17925 0.0
N276 N 0.58577 0.76034 0.18293 0.0
C277 C 0.57446 0.76263 0.17532 0.0
C278 C 0.59971 0.75984 0.16984 0.0
C279 C 0.62756 0.75523 0.17416 0.0
C280 C 0.6179 0.75553 0.18201 0.0
N281 N 0.6034 0.76749 0.19939 0.0
C282 C 0.63352 0.76134 0.19671 0.0
C283 C 0.65752 0.76801 0.2021 0.0
C284 C 0.64155 0.77903 0.20859 0.0
C285 C 0.60847 0.77825 0.20682 0.0
N286 N 0.56557 0.72024 0.19451 0.0
C287 C 0.55657 0.66085 0.19633 0.0
C288 C 0.55647 0.6736 0.18876 0.0
C289 C 0.56067 0.70309 0.18799 0.0
C290 C 0.56309 0.67834 0.20295 0.0
C291 C 0.56818 0.70779 0.2019 0.0
N292 N 0.55728 0.80358 0.19211 0.0
C293 C 0.57823 0.85069 0.18939 0.0
C294 C 0.54694 0.86241 0.19032 0.0
C295 C 0.52131 0.84409 0.19229 0.0
C296 C 0.52698 0.81508 0.19321 0.0
C297 C 0.58283 0.82111 0.19023 0.0
H298 H 0.50654 0.80196 0.19482 0.0
H299 H 0.60691 0.81241 0.18934 0.0
H300 H 0.5583 0.71203 0.18209 0.0
H301 H 0.57286 0.72064 0.20712 0.0
C302 C 0.4886 0.74695 0.19882 0.0
C303 C 0.58255 0.78707 0.21239 0.0
C304 C 0.53987 0.76404 0.17305 0.0
C305 C 0.63866 0.75524 0.18863 0.0
H306 H 0.52622 0.78103 0.2227 0.0
H307 H 0.47535 0.75652 0.21555 0.0
H308 H 0.44357 0.73809 0.18583 0.0
H309 H 0.47142 0.74989 0.17182 0.0
H310 H 0.5981 0.76045 0.16338 0.0
H311 H 0.65203 0.75263 0.17184 0.0
H312 H 0.68363 0.76665 0.20123 0.0
H313 H 0.65317 0.78709 0.21393 0.0
H314 H 0.55151 0.66106 0.18347 0.0
H315 H 0.56393 0.66939 0.20892 0.0
H316 H 0.59878 0.86414 0.18788 0.0
H317 H 0.49689 0.85219 0.19322 0.0
C318 C 0.18582 0.07873 0.44415 0.0
C319 C 0.17135 0.10474 0.44248 0.0
C320 C 0.19302 0.12541 0.44486 0.0
C321 C 0.21951 0.11097 0.44782 0.0
N322 N 0.21587 0.08256 0.44737 0.0
Co323 Co 0.24787 0.05413 0.4512 0.0
N324 N 0.28398 0.08231 0.45141 0.0
C325 C 0.28044 0.11074 0.45148 0.0
C326 C 0.30989 0.12477 0.45154 0.0
C327 C 0.33329 0.10378 0.45152 0.0
C328 C 0.3168 0.07804 0.45144 0.0
N329 N 0.27988 0.02572 0.45511 0.0
C330 C 0.31292 0.02614 0.45487 0.0
C331 C 0.32583 1.00172 0.4583 0.0
C332 C 0.29989 0.98558 0.46079 0.0
C333 C 0.27269 1.00095 0.45875 0.0
N334 N 0.21245 0.02541 0.45102 0.0
C335 C 0.21244 1.0005 0.45501 0.0
C336 C 0.1844 0.9851 0.45391 0.0
C337 C 0.16546 1.00146 0.44899 0.0
C338 C 0.18311 0.02608 0.44734 0.0
N339 N 0.25848 0.04507 0.43995 0.0
C340 C 0.26071 0.03524 0.42326 0.0
C341 C 0.25832 0.01251 0.42872 0.0
C342 C 0.25725 0.01787 0.43703 0.0
C343 C 0.26412 0.06267 0.42643 0.0
C344 C 0.26306 0.06707 0.43469 0.0
N345 N 0.2357 0.06444 0.46237 0.0
C346 C 0.19273 0.07808 0.47157 0.0
C347 C 0.21523 0.08747 0.47729 0.0
C348 C 0.24856 0.08415 0.47542 0.0
C349 C 0.25825 0.07236 0.468 0.0
C350 C 0.20328 0.06687 0.46426 0.0
H351 H 0.28397 0.07041 0.46672 0.0
H352 H 0.18473 0.06127 0.46001 0.0
H353 H 0.25408 1.00015 0.44107 0.0
H354 H 0.26445 0.08867 0.43678 0.0
C355 C 0.24972 0.12292 0.44999 0.0
C356 C 0.16959 0.05093 0.44315 0.0
C357 C 0.33267 0.04993 0.45188 0.0
C358 C 0.24075 0.99059 0.45873 0.0
H359 H 0.14755 0.10839 0.4399 0.0
H360 H 0.19013 0.1482 0.44428 0.0
H361 H 0.31396 0.1475 0.45126 0.0
H362 H 0.35942 0.10701 0.45156 0.0
H363 H 0.35128 0.99612 0.45893 0.0
H364 H 0.30077 0.96457 0.46343 0.0
H365 H 0.17869 0.9642 0.45625 0.0
H366 H 0.14109 0.9961 0.44702 0.0
H367 H 0.25584 0.99086 0.4266 0.0
H368 H 0.26696 0.08091 0.42253 0.0
H369 H 0.16678 0.08039 0.47256 0.0
H370 H 0.26709 0.0907 0.47965 0.0
C371 C 0.9609 0.74499 0.71067 0.0
C372 C 0.98611 0.74589 0.71619 0.0
C373 C 0.01206 0.75895 0.71245 0.0
C374 C 1.00152 0.76515 0.70484 0.0
N375 N 0.97061 0.75674 0.7036 0.0
Co376 Co 0.94688 0.75937 0.69327 0.0
N377 N 0.98752 0.76433 0.68696 0.0
C378 C 0.01638 0.77261 0.69 0.0
C379 C 0.04001 0.77552 0.68422 0.0
C380 C 0.02491 0.769 0.67712 0.0
C381 C 0.99277 0.76242 0.67894 0.0
N382 N 0.92249 0.76127 0.68302 0.0
C383 C 0.93306 0.75854 0.67536 0.0
C384 C 0.90743 0.76197 0.67002 0.0
C385 C 0.88015 0.76745 0.67449 0.0
C386 C 0.89048 0.76702 0.68229 0.0
N387 N 0.90618 0.75503 0.69955 0.0
C388 C 0.87617 0.76255 0.69711 0.0
C389 C 0.85263 0.75746 0.70279 0.0
C390 C 0.86889 0.74594 0.70918 0.0
C391 C 0.90153 0.74447 0.70702 0.0
N392 N 0.94459 0.80141 0.69433 0.0
C393 C 0.95465 0.86077 0.69592 0.0
C394 C 0.95402 0.84774 0.68839 0.0
C395 C 0.9493 0.81828 0.68773 0.0
C396 C 0.94837 0.84356 0.70263 0.0
C397 C 0.94276 0.81413 0.70169 0.0
N398 N 0.95074 0.71784 0.69222 0.0
C399 C 0.92826 0.67082 0.69021 0.0
C400 C 0.95897 0.65835 0.69158 0.0
C401 C 0.9853 0.67653 0.69306 0.0
C402 C 0.98071 0.70582 0.69338 0.0
C403 C 0.92466 0.70064 0.69057 0.0
H404 H 1.00169 0.71872 0.69466 0.0
H405 H 0.90084 0.70978 0.6896 0.0
H406 H 0.95107 0.8091 0.68186 0.0
H407 H 0.93827 0.80151 0.70698 0.0
C408 C 0.02127 0.77324 0.69833 0.0
C409 C 0.92756 0.73418 0.71232 0.0
C410 C 0.96743 0.75651 0.6729 0.0
C411 C 0.87037 0.76851 0.68904 0.0
H412 H 0.98606 0.73771 0.72223 0.0
H413 H 0.03627 0.76205 0.71487 0.0
H414 H 0.06541 0.78096 0.68508 0.0
H415 H 0.03614 0.76932 0.67126 0.0
H416 H 0.90849 0.76138 0.66355 0.0
H417 H 0.85563 0.77087 0.67231 0.0
H418 H 0.82657 0.76039 0.7022 0.0
H419 H 0.85795 0.73924 0.71476 0.0
H420 H 0.95878 0.86004 0.68303 0.0
H421 H 0.94811 0.85272 0.70856 0.0
H422 H 0.90711 0.65768 0.68904 0.0
H423 H 0.00967 0.66825 0.69394 0.0
C424 C 0.82088 0.58148 0.81552 0.0
C425 C 0.83457 0.60789 0.81709 0.0
C426 C 0.81246 0.62794 0.81456 0.0
C427 C 0.7865 0.61274 0.8116 0.0
N428 N 0.79087 0.58446 0.8122 0.0
Co429 Co 0.75986 0.55511 0.80838 0.0
N430 N 0.72304 0.58247 0.80788 0.0
C431 C 0.72589 0.61096 0.80766 0.0
C432 C 0.69612 0.62438 0.80741 0.0
C433 C 0.67324 0.60293 0.80745 0.0
C434 C 0.69033 0.57753 0.80774 0.0
N435 N 0.72878 0.52576 0.80452 0.0
C436 C 0.69569 0.52546 0.80462 0.0
C437 C 0.68371 0.50031 0.80141 0.0
C438 C 0.71022 0.48458 0.79913 0.0
C439 C 0.73683 0.50081 0.80111 0.0
N440 N 0.79606 0.52723 0.80881 0.0
C441 C 0.79691 0.50205 0.80498 0.0
C442 C 0.82525 0.48731 0.80625 0.0
C443 C 0.84353 0.50438 0.81113 0.0
C444 C 0.8252 0.52876 0.81257 0.0
N445 N 0.74893 0.54652 0.81965 0.0
C446 C 0.74767 0.53837 0.83643 0.0
C447 C 0.7513 0.5152 0.83116 0.0
C448 C 0.75178 0.51972 0.8228 0.0
C449 C 0.74228 0.56519 0.83302 0.0
C450 C 0.74296 0.56877 0.82472 0.0
N451 N 0.77244 0.56508 0.79721 0.0
C452 C 0.8154 0.58116 0.78832 0.0
C453 C 0.79294 0.58935 0.78246 0.0
C454 C 0.75979 0.58345 0.78398 0.0
C455 C 0.75005 0.5714 0.79139 0.0
C456 C 0.80485 0.56907 0.79552 0.0
H457 H 0.72437 0.56816 0.79251 0.0
H458 H 0.82329 0.56415 0.79986 0.0
H459 H 0.75597 0.50176 0.81892 0.0
H460 H 0.74035 0.59006 0.82246 0.0
C461 C 0.75617 0.62388 0.80922 0.0
C462 C 0.83791 0.55415 0.81665 0.0
C463 C 0.67507 0.54912 0.80733 0.0
C464 C 0.76903 0.49122 0.80128 0.0
H465 H 0.8582 0.6122 0.8197 0.0
H466 H 0.81476 0.65082 0.81501 0.0
H467 H 0.69149 0.64703 0.80753 0.0
H468 H 0.64705 0.60561 0.80727 0.0
H469 H 0.65852 0.49386 0.80079 0.0
H470 H 0.71008 0.46327 0.79668 0.0
H471 H 0.83156 0.46635 0.80407 0.0
H472 H 0.86788 0.49963 0.81321 0.0
H473 H 0.75524 0.49395 0.83347 0.0
H474 H 0.73834 0.58369 0.83675 0.0
H475 H 0.84129 0.58447 0.78741 0.0
H476 H 0.74137 0.58913 0.77963 0.0
C477 C 0.4597 0.27359 0.04845 0.0
C478 C 0.48413 0.27248 0.04272 0.0
C479 C 0.51075 0.26013 0.04634 0.0
C480 C 0.50115 0.25428 0.05406 0.0
N481 N 0.47023 0.2622 0.05548 0.0
Co482 Co 0.44721 0.2587 0.06589 0.0
N483 N 0.48836 0.25472 0.07205 0.0
C484 C 0.51751 0.24805 0.06885 0.0
C485 C 0.54202 0.24792 0.07443 0.0
C486 C 0.52726 0.25444 0.08158 0.0
C487 C 0.49422 0.25778 0.08002 0.0
N488 N 0.4235 0.25562 0.07622 0.0
C489 C 0.43445 0.25748 0.08386 0.0
C490 C 0.40956 0.25098 0.08923 0.0
C491 C 0.38233 0.2452 0.0848 0.0
C492 C 0.39196 0.24811 0.077 0.0
N493 N 0.40601 0.26231 0.05974 0.0
C494 C 0.37629 0.25437 0.06232 0.0
C495 C 0.35208 0.26022 0.05691 0.0
C496 C 0.36755 0.27258 0.05052 0.0
C497 C 0.40054 0.27338 0.05236 0.0
N498 N 0.44611 0.21667 0.06472 0.0
C499 C 0.45605 0.1574 0.06296 0.0
C500 C 0.45677 0.17033 0.0705 0.0
C501 C 0.45214 0.19976 0.07123 0.0
C502 C 0.44881 0.17468 0.05634 0.0
C503 C 0.44331 0.20408 0.05736 0.0
N504 N 0.4499 0.30028 0.06704 0.0
C505 C 0.42652 0.34669 0.06945 0.0
C506 C 0.45663 0.35988 0.06779 0.0
C507 C 0.48316 0.34239 0.06598 0.0
C508 C 0.47932 0.31304 0.06562 0.0
C509 C 0.42364 0.3168 0.06901 0.0
H510 H 0.50045 0.30073 0.0641 0.0
H511 H 0.40026 0.30705 0.07019 0.0
H512 H 0.4549 0.20885 0.07709 0.0
H513 H 0.43797 0.21678 0.05214 0.0
C514 C 0.52173 0.2472 0.06049 0.0
C515 C 0.42616 0.28366 0.0469 0.0
C516 C 0.46876 0.26184 0.08624 0.0
C517 C 0.37142 0.24708 0.07033 0.0
H518 H 0.48281 0.27987 0.0366 0.0
H519 H 0.5347 0.25714 0.04376 0.0
H520 H 0.56781 0.24475 0.07339 0.0
H521 H 0.53966 0.25659 0.08724 0.0
H522 H 0.41099 0.24958 0.09568 0.0
H523 H 0.35832 0.23975 0.08702 0.0
H524 H 0.32609 0.25734 0.05769 0.0
H525 H 0.35568 0.28034 0.04517 0.0
H526 H 0.4624 0.15797 0.07579 0.0
H527 H 0.44762 0.16558 0.0504 0.0
H528 H 0.40528 0.35933 0.0709 0.0
H529 H 0.50712 0.35127 0.06487 0.0
C530 C 0.68604 0.94181 0.31548 0.0
C531 C 0.67138 0.91584 0.31714 0.0
C532 C 0.69297 0.8951 0.3148 0.0
C533 C 0.7196 0.90945 0.31185 0.0
N534 N 0.71612 0.93788 0.31228 0.0
Co535 Co 0.74827 0.96619 0.30841 0.0
N536 N 0.78423 0.93793 0.30824 0.0
C537 C 0.78057 0.90951 0.30821 0.0
C538 C 0.80996 0.89544 0.30819 0.0
C539 C 0.83345 0.9164 0.30818 0.0
C540 C 0.81706 0.94216 0.30821 0.0
N541 N 0.78042 0.99446 0.30445 0.0
C542 C 0.81344 0.99398 0.3047 0.0
C543 C 0.82651 0.01828 0.30122 0.0
C544 C 0.80068 0.03442 0.2987 0.0
C545 C 0.77338 0.01917 0.30078 0.0
N546 N 0.71303 0.99501 0.30858 0.0
C547 C 0.71317 0.0199 0.30458 0.0
C548 C 0.68529 0.03543 0.30571 0.0
C549 C 0.66626 0.01918 0.31067 0.0
C550 C 0.68371 0.99447 0.31229 0.0
N551 N 0.75898 0.97542 0.31965 0.0
C552 C 0.76375 0.98589 0.33629 0.0
C553 C 0.76029 1.00836 0.33077 0.0
C554 C 0.75818 1.00271 0.3225 0.0
C555 C 0.76598 0.95827 0.33317 0.0
C556 C 0.76365 0.95357 0.32493 0.0
N557 N 0.73607 0.95574 0.29726 0.0
C558 C 0.69309 0.94264 0.288 0.0
C559 C 0.71559 0.93258 0.28237 0.0
C560 C 0.74891 0.9353 0.28429 0.0
C561 C 0.75862 0.94727 0.29169 0.0
C562 C 0.70365 0.95379 0.29532 0.0
H563 H 0.78434 0.94888 0.29299 0.0
H564 H 0.68509 0.95975 0.29954 0.0
H565 H 0.75489 0.02032 0.31843 0.0
H566 H 0.76426 0.93187 0.3229 0.0
C567 C 0.74977 0.89741 0.3097 0.0
C568 C 0.66997 0.96964 0.31646 0.0
C569 C 0.83302 0.97026 0.30776 0.0
C570 C 0.74151 0.02965 0.30082 0.0
H571 H 0.64749 0.91228 0.31971 0.0
H572 H 0.68992 0.87232 0.31538 0.0
H573 H 0.81393 0.87271 0.3085 0.0
H574 H 0.85956 0.91314 0.30817 0.0
H575 H 0.85201 0.02379 0.30058 0.0
H576 H 0.80169 0.05539 0.29603 0.0
H577 H 0.67972 0.05635 0.30338 0.0
H578 H 0.64197 0.02466 0.31267 0.0
H579 H 0.75896 0.03018 0.33281 0.0
H580 H 0.76817 0.94001 0.33708 0.0
H581 H 0.66714 0.94085 0.28692 0.0
H582 H 0.76738 0.92816 0.28013 0.0
C583 C 0.04781 0.24531 0.54858 0.0
C584 C 0.02318 0.24658 0.54292 0.0
C585 C 0.99692 0.25944 0.54656 0.0
C586 C 0.0068 0.26525 0.55425 0.0
N587 N 0.03757 0.25679 0.55563 0.0
Co588 Co 0.06069 0.25956 0.56603 0.0
N589 N 0.01964 0.2643 0.57219 0.0
C590 C 0.99088 0.2723 0.56904 0.0
C591 C 0.9668 0.27464 0.57472 0.0
C592 C 0.98149 0.26805 0.58187 0.0
C593 C 0.01389 0.26207 0.58018 0.0
N594 N 0.08446 0.26175 0.57635 0.0
C595 C 0.07346 0.25901 0.58397 0.0
C596 C 0.09869 0.26304 0.5894 0.0
C597 C 0.12617 0.26873 0.58502 0.0
C598 C 0.11635 0.26791 0.57718 0.0
N599 N 0.10177 0.25529 0.55989 0.0
C600 C 0.13164 0.26286 0.56242 0.0
C601 C 0.15555 0.25738 0.55688 0.0
C602 C 0.13967 0.24559 0.55047 0.0
C603 C 0.10687 0.24443 0.55248 0.0
N604 N 0.06288 0.30155 0.56493 0.0
C605 C 0.05324 0.36099 0.56325 0.0
C606 C 0.05197 0.34771 0.57075 0.0
C607 C 0.05677 0.31831 0.57146 0.0
C608 C 0.06111 0.34383 0.55663 0.0
C609 C 0.06621 0.31434 0.5576 0.0
N610 N 0.05697 0.21807 0.56716 0.0
C611 C 0.07937 0.17149 0.56981 0.0
C612 C 0.04845 0.15901 0.56886 0.0
C613 C 0.02227 0.17669 0.56693 0.0
C614 C 0.02704 0.20584 0.56605 0.0
C615 C 0.08306 0.20117 0.56901 0.0
H616 H 0.00621 0.21847 0.56446 0.0
H617 H 0.10685 0.21048 0.5699 0.0
H618 H 0.05392 0.30906 0.57731 0.0
H619 H 0.07167 0.30173 0.55238 0.0
C620 C 0.98655 0.27308 0.56068 0.0
C621 C 0.08109 0.23435 0.54709 0.0
C622 C 0.03898 0.25632 0.58631 0.0
C623 C 0.13689 0.26921 0.57049 0.0
H624 H 0.02392 0.23884 0.53683 0.0
H625 H 0.97297 0.26275 0.54402 0.0
H626 H 0.94136 0.27968 0.57376 0.0
H627 H 0.96975 0.26789 0.58767 0.0
H628 H 0.09726 0.2627 0.59586 0.0
H629 H 0.15051 0.27252 0.58728 0.0
H630 H 0.18158 0.26022 0.55756 0.0
H631 H 0.15093 0.23855 0.54496 0.0
H632 H 0.04578 0.35971 0.57607 0.0
H633 H 0.06301 0.35303 0.55071 0.0
H634 H 0.10033 0.15853 0.57129 0.0
H635 H 0.99811 0.16799 0.56598 0.0
C636 C 0.82181 0.94082 0.44401 0.0
C637 C 0.83581 0.91462 0.44235 0.0
C638 C 0.81382 0.89423 0.44476 0.0
C639 C 0.78762 0.90902 0.44774 0.0
N640 N 0.79173 0.93738 0.44727 0.0
Co641 Co 0.76025 0.96621 0.45114 0.0
N642 N 0.72367 0.93849 0.45141 0.0
C643 C 0.72677 0.91002 0.45148 0.0
C644 C 0.69712 0.89632 0.4516 0.0
C645 C 0.67405 0.91756 0.45163 0.0
C646 C 0.69091 0.94313 0.45151 0.0
N647 N 0.72874 0.99504 0.45509 0.0
C648 C 0.69567 0.99505 0.45493 0.0
C649 C 0.68336 0.01996 0.45822 0.0
C650 C 0.70964 0.03578 0.46061 0.0
C651 C 0.73646 0.01987 0.45862 0.0
N652 N 0.79618 0.99447 0.45089 0.0
C653 C 0.79668 0.01942 0.45484 0.0
C654 C 0.82494 0.03447 0.45368 0.0
C655 C 0.84355 0.01782 0.44876 0.0
C656 C 0.82547 0.99341 0.44717 0.0
N657 N 0.74962 0.97542 0.4399 0.0
C658 C 0.74755 0.98524 0.4232 0.0
C659 C 0.75039 1.00795 0.42865 0.0
C660 C 0.75136 1.0026 0.43696 0.0
C661 C 0.74357 0.95788 0.4264 0.0
C662 C 0.74456 0.95348 0.43466 0.0
N663 N 0.77243 0.95575 0.4623 0.0
C664 C 0.81531 0.94162 0.47145 0.0
C665 C 0.79274 0.93266 0.47723 0.0
C666 C 0.75944 0.93642 0.4754 0.0
C667 C 0.74984 0.94822 0.46797 0.0
C668 C 0.80484 0.95288 0.46414 0.0
H669 H 0.72413 0.95053 0.46673 0.0
H670 H 0.82341 0.95817 0.45985 0.0
H671 H 0.7549 0.02028 0.44099 0.0
H672 H 0.74277 0.93191 0.43677 0.0
C673 C 0.75725 0.89746 0.44996 0.0
C674 C 0.83853 0.96838 0.44299 0.0
C675 C 0.67536 0.97135 0.45209 0.0
C676 C 0.76856 0.02978 0.45854 0.0
H677 H 0.85953 0.91067 0.43974 0.0
H678 H 0.81632 0.87141 0.44419 0.0
H679 H 0.69271 0.87364 0.45135 0.0
H680 H 0.64788 0.91463 0.45175 0.0
H681 H 0.65811 0.02623 0.45879 0.0
H682 H 0.70923 0.05698 0.46313 0.0
H683 H 0.831 0.05533 0.45598 0.0
H684 H 0.86796 0.02287 0.44675 0.0
H685 H 0.75332 0.02955 0.42651 0.0
H686 H 0.74037 0.93967 0.42251 0.0
H687 H 0.84123 0.93895 0.47241 0.0
H688 H 0.74087 0.93022 0.47967 0.0
C689 C 0.04956 0.27436 0.71057 0.0
C690 C 0.02536 0.27224 0.71633 0.0
C691 C 0.99907 0.25932 0.71272 0.0
C692 C 0.0086 0.25416 0.70497 0.0
N693 N 0.03917 0.2631 0.70351 0.0
Co694 Co 0.06199 0.26043 0.69305 0.0
N695 N 0.02077 0.25502 0.68701 0.0
C696 C 0.99231 0.24651 0.69024 0.0
C697 C 0.96815 0.24332 0.68462 0.0
C698 C 0.98246 0.24991 0.67741 0.0
C699 C 0.01467 0.25682 0.67902 0.0
N700 N 0.08533 0.25852 0.68263 0.0
C701 C 0.07393 0.26104 0.67504 0.0
C702 C 0.09906 0.25815 0.66953 0.0
C703 C 0.12692 0.25321 0.67381 0.0
C704 C 0.11738 0.25344 0.68168 0.0
N705 N 0.10333 0.26527 0.6991 0.0
C706 C 0.13334 0.25898 0.69636 0.0
C707 C 0.15754 0.26565 0.70169 0.0
C708 C 0.14185 0.27679 0.7082 0.0
C709 C 0.10868 0.27603 0.70652 0.0
N710 N 0.06482 0.21843 0.69418 0.0
C711 C 0.05532 0.15904 0.69592 0.0
C712 C 0.0552 0.17197 0.68837 0.0
C713 C 0.05965 0.20145 0.68764 0.0
C714 C 0.06207 0.17637 0.70256 0.0
C715 C 0.0674 0.20581 0.70155 0.0
N716 N 0.05757 0.30189 0.6919 0.0
C717 C 0.07914 0.34879 0.68919 0.0
C718 C 0.04805 0.36086 0.69018 0.0
C719 C 0.0222 0.3428 0.69217 0.0
C720 C 0.02747 0.31371 0.69305 0.0
C721 C 0.08333 0.31917 0.68999 0.0
H722 H 0.00688 0.30079 0.69468 0.0
H723 H 0.10725 0.31022 0.68906 0.0
H724 H 0.05727 0.21053 0.68176 0.0
H725 H 0.07228 0.21852 0.70679 0.0
C726 C 0.98828 0.24583 0.6986 0.0
C727 C 0.08294 0.28487 0.71215 0.0
C728 C 0.03932 0.26281 0.67281 0.0
C729 C 0.13825 0.25293 0.68827 0.0
H730 H 0.02667 0.27916 0.72249 0.0
H731 H 0.97542 0.25522 0.71536 0.0
H732 H 0.94292 0.23762 0.68565 0.0
H733 H 0.97068 0.24937 0.67163 0.0
H734 H 0.09737 0.25893 0.66307 0.0
H735 H 0.15133 0.25047 0.67147 0.0
H736 H 0.18362 0.26428 0.70076 0.0
H737 H 0.15375 0.285 0.71348 0.0
H738 H 0.05006 0.15958 0.68306 0.0
H739 H 0.06292 0.16727 0.70851 0.0
H740 H 0.09985 0.36203 0.68766 0.0
H741 H 0.99792 0.35116 0.69315 0.0
C742 C 0.68851 0.58137 0.94564 0.0
C743 C 0.67261 0.60732 0.94489 0.0
C744 C 0.69448 0.62797 0.94708 0.0
C745 C 0.72239 0.61363 0.9491 0.0
N746 N 0.71968 0.58524 0.94817 0.0
Co747 Co 0.75296 0.55693 0.95153 0.0
N748 N 0.78775 0.58629 0.95229 0.0
C749 C 0.78325 0.61456 0.95265 0.0
C750 C 0.81216 0.62941 0.95287 0.0
C751 C 0.83629 0.60911 0.95263 0.0
C752 C 0.82066 0.583 0.95228 0.0
N753 N 0.78592 0.5288 0.95512 0.0
C754 C 0.81881 0.53068 0.95515 0.0
C755 C 0.83287 0.50618 0.95824 0.0
C756 C 0.80774 0.48822 0.96014 0.0
C757 C 0.7799 0.50273 0.95813 0.0
N758 N 0.71927 0.52691 0.95054 0.0
C759 C 0.72155 0.49981 0.95311 0.0
C760 C 0.69711 0.48272 0.95025 0.0
C761 C 0.67789 0.5003 0.94575 0.0
C762 C 0.69119 0.52747 0.94633 0.0
N763 N 0.76471 0.55062 0.94018 0.0
C764 C 0.76971 0.54291 0.92341 0.0
C765 C 0.7693 0.51955 0.92869 0.0
C766 C 0.76706 0.52384 0.93701 0.0
C767 C 0.76926 0.57017 0.92684 0.0
C768 C 0.76692 0.57352 0.93515 0.0
N769 N 0.73983 0.56433 0.96282 0.0
C770 C 0.69584 0.57454 0.97209 0.0
C771 C 0.7174 0.58603 0.97774 0.0
C772 C 0.75091 0.58491 0.97587 0.0
C773 C 0.76159 0.57372 0.96846 0.0
C774 C 0.70738 0.5639 0.96479 0.0
H775 H 0.78741 0.57361 0.9672 0.0
H776 H 0.68946 0.55659 0.9606 0.0
H777 H 0.76616 0.50543 0.94086 0.0
H778 H 0.76557 0.59485 0.93745 0.0
C779 C 0.75217 0.62604 0.95135 0.0
C780 C 0.67234 0.55352 0.94479 0.0
C781 C 0.83731 0.55533 0.95235 0.0
C782 C 0.7494 0.49021 0.95706 0.0
H783 H 0.64759 0.61105 0.94317 0.0
H784 H 0.69041 0.65071 0.94722 0.0
H785 H 0.81539 0.65226 0.95285 0.0
H786 H 0.86229 0.61302 0.95268 0.0
H787 H 0.85857 0.50153 0.95889 0.0
H788 H 0.80968 0.46646 0.96221 0.0
H789 H 0.69399 0.46009 0.95117 0.0
H790 H 0.65532 0.49427 0.94286 0.0
H791 H 0.77036 0.49801 0.92642 0.0
H792 H 0.76932 0.58904 0.92312 0.0
H793 H 0.66977 0.57488 0.9731 0.0
H794 H 0.76883 0.59287 0.98005 0.0
C795 C 0.46181 0.24617 0.21115 0.0
C796 C 0.48652 0.24717 0.21679 0.0
C797 C 0.51296 0.25968 0.2131 0.0
C798 C 0.50301 0.26563 0.20542 0.0
N799 N 0.47205 0.25763 0.2041 0.0
Co800 Co 0.44857 0.261 0.19375 0.0
N801 N 0.48943 0.26514 0.18747 0.0
C802 C 0.51872 0.27186 0.19058 0.0
C803 C 0.54298 0.27205 0.18492 0.0
C804 C 0.52791 0.26551 0.17782 0.0
C805 C 0.49493 0.26212 0.17948 0.0
N806 N 0.42436 0.26398 0.18351 0.0
C807 C 0.43495 0.26217 0.17583 0.0
C808 C 0.40979 0.26862 0.17055 0.0
C809 C 0.38277 0.27436 0.17508 0.0
C810 C 0.39278 0.27147 0.18285 0.0
N811 N 0.40771 0.25718 0.20001 0.0
C812 C 0.37792 0.26541 0.1976 0.0
C813 C 0.35412 0.2599 0.20317 0.0
C814 C 0.36999 0.2474 0.20948 0.0
C815 C 0.40267 0.24594 0.20738 0.0
N816 N 0.44742 0.30303 0.19492 0.0
C817 C 0.45755 0.36232 0.19664 0.0
C818 C 0.45786 0.34938 0.1891 0.0
C819 C 0.45315 0.31995 0.18838 0.0
C820 C 0.45059 0.34504 0.20329 0.0
C821 C 0.44499 0.31563 0.20229 0.0
N822 N 0.45131 0.21942 0.1926 0.0
C823 C 0.42786 0.17292 0.1903 0.0
C824 C 0.45807 0.15982 0.19185 0.0
C825 C 0.48468 0.17741 0.19355 0.0
C826 C 0.48082 0.20675 0.19391 0.0
C827 C 0.42497 0.20281 0.19073 0.0
H828 H 0.502 0.21913 0.19536 0.0
H829 H 0.40152 0.21249 0.18963 0.0
H830 H 0.45562 0.31086 0.18252 0.0
H831 H 0.43987 0.30293 0.20753 0.0
C832 C 0.5233 0.27272 0.19893 0.0
C833 C 0.42849 0.23539 0.21268 0.0
C834 C 0.46919 0.25803 0.17333 0.0
C835 C 0.37259 0.27268 0.1896 0.0
H836 H 0.48564 0.23945 0.22289 0.0
H837 H 0.53706 0.26258 0.2156 0.0
H838 H 0.56882 0.27526 0.18589 0.0
H839 H 0.54007 0.26338 0.17212 0.0
H840 H 0.41091 0.27007 0.1641 0.0
H841 H 0.35868 0.27984 0.17294 0.0
H842 H 0.32813 0.26325 0.20258 0.0
H843 H 0.35882 0.24015 0.21499 0.0
H844 H 0.46326 0.36174 0.18379 0.0
H845 H 0.4497 0.35414 0.20923 0.0
H846 H 0.40654 0.16022 0.18894 0.0
H847 H 0.50871 0.1686 0.19458 0.0
H848 H 0.8678 0.98992 0.32053 0.0
H849 H 0.92582 1.0035 0.32093 0.0
H850 H 0.93735 0.975 0.29661 0.0
H851 H 0.87946 0.96105 0.29627 0.0
H852 H 0.98736 0.96709 0.31636 0.0
H853 H 0.9655 0.06358 0.29785 0.0
H854 H 0.93345 0.04679 0.3036 0.0
H855 H 0.94768 0.03059 0.29455 0.0
C856 C 0.88299 0.98591 0.31536 0.0
C857 C 0.86928 0.97395 0.30842 0.0
C858 C 0.91608 0.99384 0.31556 0.0
C859 C 0.93607 0.99048 0.30879 0.0
C860 C 0.92253 0.9779 0.30191 0.0
H861 H 0.13164 0.04653 0.29511 0.0
H862 H 0.07399 0.03267 0.29572 0.0
C863 C 0.88953 0.9697 0.30174 0.0
C864 C 0.97063 1.00103 0.3088 0.0
H865 H 0.0199 0.05373 0.30138 0.0
C866 C 0.99449 0.98609 0.31311 0.0
C867 C 0.9801 0.02572 0.30453 0.0
C868 C 0.95545 0.04284 0.29989 0.0
C869 C 0.02753 0.99475 0.31312 0.0
C870 C 0.03707 0.01975 0.30892 0.0
C871 C 0.01299 0.03471 0.30464 0.0
C872 C 0.07191 0.03014 0.30865 0.0
C873 C 0.05201 0.97626 0.31739 0.0
C874 C 0.0902 0.03455 0.31568 0.0
C875 C 0.12336 0.04227 0.31531 0.0
C876 C 0.13894 0.04627 0.30791 0.0
C877 C 0.12027 0.04358 0.3009 0.0
C878 C 0.08726 0.03555 0.30126 0.0
H879 H 0.04289 0.95415 0.31814 0.0
H880 H 0.07553 0.97549 0.31411 0.0
H881 H 0.05654 0.98505 0.32345 0.0
H882 H 0.07898 0.03162 0.32149 0.0
H883 H 0.13711 0.04429 0.32081 0.0
H884 H 0.9319 0.61772 0.55336 0.0
H885 H 0.94815 0.56753 0.55256 0.0
H886 H 0.01584 0.5802 0.5719 0.0
H887 H 1.00056 0.63018 0.57262 0.0
H888 H 0.01149 0.54183 0.55007 0.0
H889 H 0.96043 0.51221 0.57963 0.0
H890 H 0.94932 0.54465 0.57453 0.0
H891 H 0.9873 0.5424 0.57985 0.0
C892 C 0.95042 0.60998 0.55742 0.0
C893 C 0.96439 0.62835 0.56315 0.0
C894 C 0.95962 0.58111 0.55697 0.0
C895 C 0.98285 0.56972 0.56227 0.0
C896 C 0.9973 0.58809 0.56787 0.0
H897 H 0.0701 0.40528 0.57322 0.0
H898 H 0.05329 0.45508 0.57249 0.0
C899 C 0.98831 0.61686 0.56829 0.0
C900 C 0.99224 0.53881 0.562 0.0
H901 H 0.99444 0.47812 0.57336 0.0
C902 C 0.00752 0.52783 0.55514 0.0
C903 C 0.98728 0.52038 0.56861 0.0
C904 C 0.96993 0.53035 0.57606 0.0
C905 C 0.01883 0.49942 0.5548 0.0
C906 C 0.01408 0.481 0.56144 0.0
C907 C 0.99835 0.49198 0.56826 0.0
C908 C 0.0256 0.45053 0.56156 0.0
C909 C 0.03687 0.4898 0.54742 0.0
C910 C 0.01592 0.43087 0.55566 0.0
C911 C 0.02573 0.40218 0.55604 0.0
C912 C 0.04511 0.39215 0.56241 0.0
C913 C 0.05495 0.41194 0.56826 0.0
C914 C 0.04534 0.4406 0.56784 0.0
H915 H 0.04687 0.50813 0.544 0.0
H916 H 0.05725 0.4753 0.54897 0.0
H917 H 0.01977 0.47822 0.54344 0.0
H918 H 1.00002 0.43749 0.55084 0.0
H919 H 0.01711 0.38762 0.5515 0.0
H920 H 0.63165 0.54592 0.79493 0.0
H921 H 0.57382 0.5321 0.79545 0.0
H922 H 0.57882 0.52821 0.82116 0.0
H923 H 0.63684 0.54173 0.82062 0.0
H924 H 0.54896 0.47955 0.80264 0.0
H925 H 0.4947 0.57578 0.81657 0.0
H926 H 0.53387 0.57641 0.81162 0.0
H927 H 0.53008 0.56121 0.82142 0.0
C928 C 0.62018 0.54264 0.80069 0.0
C929 C 0.63871 0.54512 0.80774 0.0
C930 C 0.58717 0.53455 0.80099 0.0
C931 C 0.57164 0.52917 0.80835 0.0
C932 C 0.58992 0.53253 0.81541 0.0
H933 H 0.36964 0.48224 0.82076 0.0
H934 H 0.42792 0.49456 0.82115 0.0
C935 C 0.62309 0.54034 0.81511 0.0
C936 C 0.53695 0.51873 0.80858 0.0
H937 H 0.45972 0.53658 0.81456 0.0
C938 C 0.52944 0.49206 0.80524 0.0
C939 C 0.51135 0.53477 0.81203 0.0
C940 C 0.51764 0.56374 0.81557 0.0
C941 C 0.4974 0.48093 0.80534 0.0
C942 C 0.47151 0.49724 0.80863 0.0
C943 C 0.47918 0.52388 0.81202 0.0
C944 C 0.43641 0.48742 0.80852 0.0
C945 C 0.49197 0.45134 0.80211 0.0
C946 C 0.42124 0.47892 0.80134 0.0
C947 C 0.38806 0.4713 0.80118 0.0
C948 C 0.36892 0.47239 0.80815 0.0
C949 C 0.38393 0.48064 0.81533 0.0
C950 C 0.41723 0.48798 0.81552 0.0
H951 H 0.51458 0.4384 0.80245 0.0
H952 H 0.47238 0.44007 0.80543 0.0
H953 H 0.48488 0.45276 0.79572 0.0
H954 H 0.43475 0.47908 0.79578 0.0
H955 H 0.37694 0.46574 0.79552 0.0
H956 H 0.42944 0.11202 0.07098 0.0
H957 H 0.44527 0.06188 0.07031 0.0
H958 H 0.51881 0.08266 0.05279 0.0
H959 H 0.50148 0.1326 0.05311 0.0
H960 H 0.4957 0.03478 0.04887 0.0
H961 H 0.51852 0.02579 0.08127 0.0
H962 H 0.47686 0.03497 0.07944 0.0
H963 H 0.50896 0.05931 0.07662 0.0
C964 C 0.44884 0.10583 0.06695 0.0
C965 C 0.46423 0.12641 0.06212 0.0
C966 C 0.45825 0.07709 0.06663 0.0
C967 C 0.48418 0.06814 0.0617 0.0
C968 C 0.49895 0.08865 0.05671 0.0
H969 H 0.58122 0.90444 0.07084 0.0
H970 H 0.56594 0.95471 0.06997 0.0
C971 C 0.48898 0.11732 0.05688 0.0
C972 C 0.49578 0.0376 0.06172 0.0
H973 H 0.5168 0.9822 0.07402 0.0
C974 C 0.50052 0.02343 0.05439 0.0
C975 C 0.50296 0.02247 0.06887 0.0
C976 C 0.50192 0.03654 0.07698 0.0
C977 C 0.51158 0.99497 0.05401 0.0
C978 C 0.51685 0.97933 0.06117 0.0
C979 C 0.5125 0.99364 0.06849 0.0
C980 C 0.5274 0.94848 0.06128 0.0
C981 C 0.51852 0.98247 0.04587 0.0
C982 C 0.51127 0.92761 0.05669 0.0
C983 C 0.52073 0.89884 0.05702 0.0
C984 C 0.5459 0.88987 0.06215 0.0
C985 C 0.56181 0.91058 0.06681 0.0
C986 C 0.5529 0.93943 0.06633 0.0
H987 H 0.52452 0.99934 0.04145 0.0
H988 H 0.5391 0.96718 0.04608 0.0
H989 H 0.49646 0.97124 0.04369 0.0
H990 H 0.49075 0.93335 0.05297 0.0
H991 H 0.50749 0.88339 0.05348 0.0
H992 H 0.11857 0.44014 0.96067 0.0
H993 H 0.06146 0.45568 0.95984 0.0
H994 H 0.08508 0.50762 0.93937 0.0
H995 H 0.142 0.49195 0.94018 0.0
H996 H 0.05342 0.53749 0.95175 0.0
H997 H 0.9862 0.43869 0.94405 0.0
H998 H 0.01406 0.43557 0.9523 0.0
H999 H 0.02953 0.4426 0.94244 0.0
C1000 C 0.1112 0.45387 0.95579 0.0
C1001 C 0.13451 0.46421 0.95034 0.0
C1002 C 0.07861 0.46297 0.95536 0.0
C1003 C 0.06879 0.48275 0.94951 0.0
C1004 C 0.09191 0.49229 0.94391 0.0
H1005 H 0.86807 0.53309 0.93943 0.0
H1006 H 0.92509 0.5176 0.9385 0.0
C1007 C 0.12435 0.48309 0.94432 0.0
C1008 C 0.03526 0.49522 0.94958 0.0
H1009 H 0.95441 0.47866 0.94773 0.0
C1010 C 0.03176 0.52463 0.95085 0.0
C1011 C 0.00697 0.47857 0.94834 0.0
C1012 C 0.00919 0.44714 0.94664 0.0
C1013 C 1.00087 0.53775 0.95098 0.0
C1014 C 0.97246 0.521 0.94993 0.0
C1015 C 0.97604 0.49161 0.94857 0.0
C1016 C 0.93881 0.53337 0.95018 0.0
C1017 C 0.99911 0.56955 0.95212 0.0
C1018 C 0.92742 0.548 0.95698 0.0
C1019 C 0.89495 0.55733 0.95743 0.0
C1020 C 0.87316 0.55208 0.95113 0.0
C1021 C 0.88465 0.53806 0.94427 0.0
C1022 C 0.91712 0.52891 0.94379 0.0
H1023 H 0.02244 0.58008 0.95048 0.0
H1024 H 0.97922 0.57899 0.94849 0.0
H1025 H 0.9942 0.57424 0.95851 0.0
H1026 H 0.9432 0.55109 0.96209 0.0
H1027 H 0.88636 0.56721 0.96289 0.0
H1028 H 0.43079 0.40773 0.18869 0.0
H1029 H 0.44684 0.45786 0.18931 0.0
H1030 H 0.52099 0.43703 0.20662 0.0
H1031 H 0.50346 0.38711 0.20635 0.0
H1032 H 0.49825 0.4849 0.21061 0.0
H1033 H 0.51969 0.49398 0.17814 0.0
H1034 H 0.47808 0.48483 0.1801 0.0
H1035 H 0.5102 0.46045 0.18281 0.0
C1036 C 0.45038 0.4139 0.19267 0.0
C1037 C 0.46588 0.39331 0.19745 0.0
C1038 C 0.45991 0.44264 0.19295 0.0
C1039 C 0.48606 0.45158 0.1978 0.0
C1040 C 0.50095 0.43105 0.20276 0.0
H1041 H 0.58328 0.61529 0.18843 0.0
H1042 H 0.56782 0.56503 0.18931 0.0
C1043 C 0.49087 0.40239 0.20262 0.0
C1044 C 0.49776 0.48212 0.19776 0.0
H1045 H 0.51844 0.53755 0.1854 0.0
C1046 C 0.50287 0.49626 0.20508 0.0
C1047 C 0.50468 0.49727 0.19059 0.0
C1048 C 0.50324 0.48323 0.18248 0.0
C1049 C 0.51405 0.52472 0.20544 0.0
C1050 C 0.51906 0.54038 0.19826 0.0
C1051 C 0.51434 0.5261 0.19095 0.0
C1052 C 0.52972 0.57122 0.19813 0.0
C1053 C 0.5214 0.53717 0.21355 0.0
C1054 C 0.51388 0.59208 0.20278 0.0
C1055 C 0.52346 0.62085 0.20244 0.0
C1056 C 0.54844 0.62983 0.19724 0.0
C1057 C 0.56403 0.60914 0.19252 0.0
C1058 C 0.55502 0.5803 0.193 0.0
H1059 H 0.52754 0.52028 0.21795 0.0
H1060 H 0.54202 0.55245 0.21328 0.0
H1061 H 0.49948 0.54841 0.21581 0.0
H1062 H 0.49351 0.58634 0.20656 0.0
H1063 H 0.51045 0.63627 0.20604 0.0
H1064 H 0.3683 0.03247 0.43896 0.0
H1065 H 0.42635 0.01907 0.43858 0.0
H1066 H 0.4363 0.04347 0.46329 0.0
H1067 H 0.3784 0.0572 0.46362 0.0
H1068 H 0.48701 0.05349 0.44329 0.0
H1069 H 0.46548 0.95659 0.46164 0.0
H1070 H 0.43316 0.97413 0.4562 0.0
H1071 H 0.44844 0.98939 0.46528 0.0
C1072 C 0.38314 0.0356 0.44424 0.0
C1073 C 0.36898 0.04631 0.45128 0.0
C1074 C 0.41626 0.02778 0.44404 0.0
C1075 C 0.43582 0.02997 0.45093 0.0
C1076 C 0.42182 0.04137 0.45791 0.0
H1077 H 0.63178 0.97492 0.46447 0.0
H1078 H 0.5741 0.9886 0.4639 0.0
C1079 C 0.38881 0.04947 0.45808 0.0
C1080 C 0.47044 0.01954 0.45089 0.0
H1081 H 0.52002 0.96716 0.4583 0.0
C1082 C 0.49423 0.03455 0.44654 0.0
C1083 C 0.48006 0.99491 0.45516 0.0
C1084 C 0.45554 0.97759 0.45981 0.0
C1085 C 0.52731 0.02607 0.44651 0.0
C1086 C 0.537 1.00117 0.45072 0.0
C1087 C 0.513 0.98612 0.45503 0.0
C1088 C 0.57189 0.99096 0.45097 0.0
C1089 C 0.55169 0.04464 0.4422 0.0
C1090 C 0.59013 0.98652 0.44393 0.0
C1091 C 0.62332 0.97889 0.44427 0.0
C1092 C 0.63897 0.975 0.45166 0.0
C1093 C 0.62036 0.97777 0.45869 0.0
C1094 C 0.58733 0.9857 0.45835 0.0
H1095 H 0.54246 0.06669 0.44144 0.0
H1096 H 0.57522 0.04556 0.44546 0.0
H1097 H 0.55622 0.0358 0.43615 0.0
H1098 H 0.57887 0.98935 0.43813 0.0
H1099 H 0.63701 0.97682 0.43876 0.0
H1100 H 0.00924 0.13441 0.70563 0.0
H1101 H 0.992 0.08454 0.70607 0.0
H1102 H 0.06582 0.06336 0.68868 0.0
H1103 H 0.08158 0.11356 0.68788 0.0
H1104 H 0.01622 0.03616 0.68478 0.0
H1105 H 0.02586 0.01804 0.71728 0.0
H1106 H 0.99791 0.04633 0.71522 0.0
H1107 H 0.04043 0.05027 0.71266 0.0
C1108 C 0.02208 0.11902 0.70198 0.0
C1109 C 0.04702 0.12804 0.69677 0.0
C1110 C 0.01234 0.09029 0.70228 0.0
C1111 C 0.02794 0.06948 0.69756 0.0
C1112 C 0.05319 0.07858 0.69242 0.0
H1113 H 1.00104 0.88535 0.70554 0.0
H1114 H 0.0188 0.93518 0.70582 0.0
C1115 C 0.06237 0.10739 0.69199 0.0
C1116 C 0.01711 0.03867 0.69764 0.0
H1117 H 0.9963 0.98295 0.7099 0.0
C1118 C 0.01218 0.02458 0.69031 0.0
C1119 C 0.01216 0.02284 0.70479 0.0
C1120 C 0.01973 0.03507 0.71292 0.0
C1121 C 1.00238 0.99579 0.6899 0.0
C1122 C 0.99554 0.98048 0.69705 0.0
C1123 C 1.00085 0.99443 0.70439 0.0
C1124 C 0.98377 0.94995 0.69705 0.0
C1125 C 1.00071 0.98197 0.68177 0.0
C1126 C 0.95751 0.94112 0.69221 0.0
C1127 C 0.94784 0.91241 0.69192 0.0
C1128 C 0.9633 0.89173 0.69668 0.0
C1129 C 0.98846 0.90069 0.70182 0.0
C1130 C 0.99867 0.92931 0.70197 0.0
H1131 H 0.0171 0.99278 0.67743 0.0
H1132 H 0.00761 0.95916 0.68204 0.0
H1133 H 0.9755 0.98368 0.67943 0.0
H1134 H 0.94444 0.95642 0.6886 0.0
H1135 H 0.92812 0.90636 0.68797 0.0
H1136 H 0.61658 0.95168 0.3083 0.0
H1137 H 0.55991 0.96598 0.31063 0.0
H1138 H 0.58876 1.00806 0.33243 0.0
H1139 H 0.64569 0.99423 0.32997 0.0
H1140 H 0.51424 0.95929 0.32238 0.0
H1141 H 0.5496 0.07295 0.31966 0.0
H1142 H 0.57719 0.04432 0.3173 0.0
H1143 H 0.57 0.05411 0.32754 0.0
C1144 C 0.61055 0.96316 0.31372 0.0
C1145 C 0.63527 0.97156 0.31902 0.0
C1146 C 0.57825 0.97155 0.31502 0.0
C1147 C 0.57011 0.98864 0.32162 0.0
C1148 C 0.59452 0.99541 0.3272 0.0
H1149 H 0.36306 0.02835 0.33039 0.0
H1150 H 0.42016 0.01488 0.33273 0.0
C1151 C 0.6269 0.98715 0.32588 0.0
C1152 C 0.5366 1.0007 0.32231 0.0
H1153 H 0.49417 0.06335 0.32226 0.0
C1154 C 0.50985 0.98204 0.32243 0.0
C1155 C 0.53082 0.03044 0.32221 0.0
C1156 C 0.55835 0.05167 0.32159 0.0
C1157 C 0.47759 0.99221 0.32237 0.0
C1158 C 0.47181 0.02194 0.32241 0.0
C1159 C 0.49856 0.0406 0.32236 0.0
C1160 C 0.43826 0.03397 0.3218 0.0
C1161 C 0.45004 0.97095 0.32192 0.0
C1162 C 0.42977 0.05083 0.31518 0.0
C1163 C 0.39737 0.05903 0.31394 0.0
C1164 C 0.3729 0.05067 0.31933 0.0
C1165 C 0.38164 0.0354 0.32622 0.0
C1166 C 0.41413 0.02733 0.32749 0.0
H1167 H 0.45868 0.94961 0.32002 0.0
H1168 H 0.4387 0.9687 0.32791 0.0
H1169 H 0.43097 0.97816 0.31767 0.0
H1170 H 0.44789 0.05631 0.31071 0.0
H1171 H 0.39105 0.07028 0.3085 0.0
H1172 H 0.9971 0.89276 0.55723 0.0
H1173 H 0.01222 0.94273 0.55817 0.0
H1174 H 0.94748 0.95288 0.5783 0.0
H1175 H 0.93348 0.90216 0.57765 0.0
H1176 H 0.97981 0.99071 0.55679 0.0
H1177 H 0.02982 0.98506 0.58755 0.0
H1178 H 0.01882 0.95369 0.58197 0.0
H1179 H 0.9879 0.9744 0.5869 0.0
C1180 C 0.98626 0.90546 0.56193 0.0
C1181 C 0.96454 0.89312 0.56748 0.0
C1182 C 0.99479 0.9342 0.56242 0.0
C1183 C 0.98174 0.9516 0.56844 0.0
C1184 C 0.95873 0.93979 0.57375 0.0
H1185 H 1.00104 0.13281 0.57762 0.0
H1186 H 0.9864 0.08228 0.57772 0.0
C1187 C 0.95032 0.91083 0.57329 0.0
C1188 C 0.99241 0.98197 0.56905 0.0
H1189 H 0.02681 0.03094 0.58165 0.0
C1190 C 0.99019 0.99939 0.56222 0.0
C1191 C 0.00619 0.99347 0.57612 0.0
C1192 C 0.01116 0.97565 0.58353 0.0
C1193 C 1.00095 0.02783 0.5623 0.0
C1194 C 0.01447 0.03929 0.56938 0.0
C1195 C 0.01653 0.02207 0.57622 0.0
C1196 C 0.02547 0.06946 0.56983 0.0
C1197 C 0.99733 0.04564 0.55485 0.0
C1198 C 0.05294 0.07897 0.56555 0.0
C1199 C 0.06158 0.10791 0.56554 0.0
C1200 C 0.04268 0.12784 0.56975 0.0
C1201 C 0.01594 0.118 0.57427 0.0
C1202 C 0.00756 0.08913 0.57434 0.0
H1203 H 0.98165 0.03516 0.55031 0.0
H1204 H 0.98675 0.06673 0.55633 0.0
H1205 H 0.02173 0.0493 0.55216 0.0
H1206 H 0.06729 0.0641 0.56208 0.0
H1207 H 0.08216 0.11485 0.56197 0.0
H1208 H 0.11593 0.45299 0.80825 0.0
H1209 H 0.05933 0.46777 0.81047 0.0
H1210 H 0.08767 0.50833 0.83253 0.0
H1211 H 0.14451 0.49398 0.83019 0.0
H1212 H 0.013 0.4609 0.82212 0.0
H1213 H 0.04991 0.57432 0.81987 0.0
H1214 H 0.07718 0.54551 0.81745 0.0
H1215 H 0.06982 0.55487 0.82771 0.0
C1216 C 0.10978 0.46423 0.8137 0.0
C1217 C 0.13436 0.47205 0.81911 0.0
C1218 C 0.07753 0.47289 0.81494 0.0
C1219 C 0.06929 0.48972 0.82158 0.0
C1220 C 0.09351 0.49591 0.82727 0.0
H1221 H 0.86267 0.53081 0.83028 0.0
H1222 H 0.9197 0.51718 0.83263 0.0
C1223 C 0.12584 0.48734 0.82601 0.0
C1224 C 0.0359 0.50208 0.82223 0.0
H1225 H 0.99424 0.56515 0.82233 0.0
C1226 C 0.0089 0.48369 0.82224 0.0
C1227 C 0.03048 0.53187 0.82223 0.0
C1228 C 0.05831 0.55285 0.82174 0.0
C1229 C 0.97677 0.49418 0.82218 0.0
C1230 C 0.97135 0.52396 0.82231 0.0
C1231 C 0.99835 0.54236 0.82236 0.0
C1232 C 0.93794 0.53632 0.82173 0.0
C1233 C 0.94895 0.47322 0.82163 0.0
C1234 C 0.92956 0.5533 0.81512 0.0
C1235 C 0.89717 0.56158 0.81387 0.0
C1236 C 0.87262 0.55319 0.81924 0.0
C1237 C 0.88131 0.53791 0.82614 0.0
C1238 C 0.91376 0.52974 0.82741 0.0
H1239 H 0.95736 0.45184 0.81969 0.0
H1240 H 0.93739 0.47091 0.82759 0.0
H1241 H 0.93012 0.48076 0.81736 0.0
H1242 H 0.94773 0.55873 0.81067 0.0
H1243 H 0.89092 0.5728 0.80843 0.0
H1244 H 0.57755 0.6123 0.06229 0.0
H1245 H 0.56116 0.56195 0.06248 0.0
H1246 H 0.4832 0.58197 0.07885 0.0
H1247 H 0.49893 0.63213 0.0785 0.0
H1248 H 0.55523 0.52146 0.07389 0.0
H1249 H 0.43281 0.54349 0.06137 0.0
H1250 H 0.46446 0.57011 0.06172 0.0
H1251 H 0.44041 0.56248 0.07048 0.0
C1252 C 0.55719 0.60583 0.066 0.0
C1253 C 0.53933 0.62622 0.07031 0.0
C1254 C 0.5477 0.57708 0.06608 0.0
C1255 C 0.52027 0.56817 0.07049 0.0
C1256 C 0.50369 0.58832 0.07517 0.0
H1257 H 0.43258 0.39931 0.07854 0.0
H1258 H 0.4466 0.45017 0.0794 0.0
C1259 C 0.5129 0.61699 0.07502 0.0
C1260 C 0.50873 0.53799 0.07016 0.0
H1261 H 0.44215 0.49639 0.06603 0.0
C1262 C 0.53053 0.51605 0.07215 0.0
C1263 C 0.47645 0.53071 0.06786 0.0
C1264 C 0.45228 0.5529 0.06516 0.0
C1265 C 0.5209 0.48729 0.07199 0.0
C1266 C 0.48863 0.48013 0.06977 0.0
C1267 C 0.46675 0.50194 0.06782 0.0
C1268 C 0.47795 0.44996 0.06899 0.0
C1269 C 0.54526 0.46463 0.07422 0.0
C1270 C 0.48994 0.43327 0.06271 0.0
C1271 C 0.48169 0.40448 0.06215 0.0
C1272 C 0.46139 0.39147 0.0679 0.0
C1273 C 0.44817 0.40857 0.074 0.0
C1274 C 0.45634 0.43759 0.07453 0.0
H1275 H 0.56711 0.4737 0.0772 0.0
H1276 H 0.53392 0.44865 0.07826 0.0
H1277 H 0.55332 0.4534 0.06873 0.0
H1278 H 0.50615 0.44246 0.05828 0.0
H1279 H 0.49174 0.39222 0.05725 0.0
H1280 H 0.36835 0.49338 0.95731 0.0
H1281 H 0.4228 0.51208 0.95688 0.0
H1282 H 0.44224 0.462 0.93569 0.0
H1283 H 0.3844 0.44922 0.93507 0.0
H1284 H 0.47512 0.50292 0.95868 0.0
H1285 H 0.48071 0.52668 0.92642 0.0
H1286 H 0.44378 0.51406 0.93096 0.0
H1287 H 0.47486 0.4893 0.92765 0.0
C1288 C 0.38408 0.48687 0.95244 0.0
C1289 C 0.37162 0.47104 0.94601 0.0
C1290 C 0.41579 0.49724 0.95225 0.0
C1291 C 0.43729 0.48974 0.94603 0.0
C1292 C 0.42605 0.47021 0.94023 0.0
H1293 H 0.63862 0.52809 0.95679 0.0
H1294 H 0.58258 0.51322 0.95667 0.0
C1295 C 0.39315 0.46196 0.94002 0.0
C1296 C 0.47088 0.50262 0.94577 0.0
H1297 H 0.53148 0.52586 0.93335 0.0
C1298 C 0.4865 0.50877 0.95307 0.0
C1299 C 0.48674 0.51107 0.93857 0.0
C1300 C 0.4704 0.51026 0.93049 0.0
C1301 C 0.51614 0.52353 0.95339 0.0
C1302 C 0.53395 0.52829 0.94624 0.0
C1303 C 0.51867 0.52198 0.93892 0.0
C1304 C 0.56877 0.53809 0.94625 0.0
C1305 C 0.52653 0.53511 0.96142 0.0
C1306 C 0.58144 0.55554 0.9401 0.0
C1307 C 0.61496 0.56142 0.93965 0.0
C1308 C 0.63614 0.55128 0.94559 0.0
C1309 C 0.62303 0.53592 0.95205 0.0
C1310 C 0.59039 0.52805 0.95211 0.0
H1311 H 0.50493 0.54231 0.96489 0.0
H1312 H 0.5382 0.51797 0.96498 0.0
H1313 H 0.54343 0.55345 0.96085 0.0
H1314 H 0.56569 0.56396 0.93548 0.0
H1315 H 0.6244 0.57322 0.93459 0.0
H1316 H 0.57918 0.90768 0.19711 0.0
H1317 H 0.56269 0.95796 0.19692 0.0
H1318 H 0.48315 0.9373 0.18111 0.0
H1319 H 0.49898 0.88719 0.18146 0.0
H1320 H 0.55578 0.99804 0.18549 0.0
H1321 H 0.43441 0.9764 0.19873 0.0
H1322 H 0.46593 0.94975 0.19826 0.0
H1323 H 0.44114 0.95717 0.18963 0.0
C1324 C 0.55842 0.91398 0.19353 0.0
C1325 C 0.54018 0.89342 0.18937 0.0
C1326 C 0.54889 0.9427 0.19345 0.0
C1327 C 0.52102 0.95143 0.18919 0.0
C1328 C 0.50399 0.9311 0.18467 0.0
H1329 H 0.4332 0.12019 0.18126 0.0
H1330 H 0.44702 0.06931 0.18041 0.0
C1331 C 0.51325 0.90245 0.18482 0.0
C1332 C 0.50957 0.98163 0.18951 0.0
H1333 H 0.44346 0.02337 0.19392 0.0
C1334 C 0.53125 1.0035 0.18735 0.0
C1335 C 0.47751 0.98898 0.19197 0.0
C1336 C 0.4535 0.96688 0.19486 0.0
C1337 C 0.52171 0.03227 0.1875 0.0
C1338 C 0.48967 0.03951 0.18988 0.0
C1339 C 0.46789 0.01775 0.192 0.0
C1340 C 0.47914 0.06971 0.19066 0.0
C1341 C 0.54594 0.05487 0.18508 0.0
C1342 C 0.49167 0.08652 0.19686 0.0
C1343 C 0.48354 0.11532 0.19742 0.0
C1344 C 0.46283 0.12823 0.19175 0.0
C1345 C 0.44912 0.11102 0.18574 0.0
C1346 C 0.45717 0.08199 0.18521 0.0
H1347 H 0.56753 0.0457 0.18201 0.0
H1348 H 0.53431 0.07072 0.18107 0.0
H1349 H 0.55447 0.06626 0.1905 0.0
H1350 H 0.50818 0.0774 0.20121 0.0
H1351 H 0.49397 0.12766 0.20225 0.0
H1352 H 0.86264 0.99385 0.42959 0.0
H1353 H 0.91973 1.00692 0.42701 0.0
H1354 H 0.94878 0.9624 0.44841 0.0
H1355 H 0.89196 0.949 0.45088 0.0
H1356 H 0.95548 0.0404 0.43654 0.0
H1357 H 0.01955 0.93771 0.43327 0.0
H1358 H 0.97573 0.94058 0.43268 0.0
H1359 H 0.99571 0.93887 0.44225 0.0
C1360 C 0.88151 0.98591 0.43354 0.0
C1361 C 0.87314 0.96983 0.44032 0.0
C1362 C 0.91404 0.99362 0.43212 0.0
C1363 C 0.93877 0.98542 0.43746 0.0
C1364 C 0.93045 0.96838 0.44408 0.0
H1365 H 0.11579 0.06981 0.45101 0.0
H1366 H 0.05912 0.05609 0.44849 0.0
C1367 C 0.89797 0.96062 0.44548 0.0
C1368 C 0.97249 0.99704 0.43663 0.0
H1369 H 0.0529 0.97807 0.43667 0.0
C1370 C 0.97676 0.02672 0.43645 0.0
C1371 C 1.00039 0.97934 0.43641 0.0
C1372 C 0.99764 0.94736 0.43608 0.0
C1373 C 0.008 0.03913 0.4364 0.0
C1374 C 0.03588 0.02143 0.43668 0.0
C1375 C 0.03163 0.99174 0.43652 0.0
C1376 C 0.06956 0.03307 0.43758 0.0
C1377 C 0.01076 0.07111 0.43604 0.0
C1378 C 0.0945 0.02492 0.43227 0.0
C1379 C 0.12693 0.03282 0.43372 0.0
C1380 C 0.13501 0.04902 0.44048 0.0
C1381 C 0.10999 0.0581 0.44561 0.0
C1382 C 0.07761 0.05016 0.44419 0.0
H1383 H 0.98896 0.08075 0.43319 0.0
H1384 H 0.01246 0.07961 0.44222 0.0
H1385 H 0.0328 0.07788 0.43268 0.0
H1386 H 0.08902 0.01158 0.42717 0.0
H1387 H 0.14595 0.02498 0.4298 0.0
H1388 H 0.99995 0.38629 0.68151 0.0
H1389 H 0.9853 0.43667 0.6811 0.0
H1390 H 0.06585 0.45607 0.69675 0.0
H1391 H 0.08111 0.4056 0.69697 0.0
H1392 H 0.96515 0.46952 0.69281 0.0
H1393 H 0.07787 0.51722 0.68044 0.0
H1394 H 0.07067 0.47936 0.68038 0.0
H1395 H 0.0855 0.49664 0.68927 0.0
C1396 C 0.01484 0.40138 0.68477 0.0
C1397 C 0.04178 0.39196 0.68925 0.0
C1398 C 0.00639 0.43021 0.68455 0.0
C1399 C 0.02456 0.45046 0.68883 0.0
C1400 C 0.05184 0.44115 0.69322 0.0
H1401 H 0.9978 0.62705 0.70158 0.0
H1402 H 0.01203 0.5768 0.70063 0.0
C1403 C 0.06056 0.41224 0.69336 0.0
C1404 C 0.0137 0.48086 0.68902 0.0
H1405 H 0.03933 0.54944 0.68614 0.0
C1406 C 0.98135 0.48693 0.69127 0.0
C1407 C 0.03466 0.50378 0.687 0.0
C1408 C 0.06899 0.49895 0.68406 0.0
C1409 C 0.96972 0.51508 0.69172 0.0
C1410 C 0.99089 0.53789 0.68987 0.0
C1411 C 0.02312 0.53192 0.68757 0.0
C1412 C 0.98051 0.56818 0.69057 0.0
C1413 C 0.93511 0.52033 0.69439 0.0
C1414 C 0.95764 0.58013 0.68529 0.0
C1415 C 0.94961 0.60917 0.68575 0.0
C1416 C 0.96439 0.62683 0.69151 0.0
C1417 C 0.98642 0.61438 0.69695 0.0
C1418 C 0.99454 0.58555 0.69645 0.0
H1419 H 0.9234 0.50078 0.69678 0.0
H1420 H 0.93441 0.53711 0.69905 0.0
H1421 H 0.92057 0.52794 0.68922 0.0
H1422 H 0.94665 0.56717 0.68066 0.0
H1423 H 0.93277 0.61797 0.68143 0.0
H1424 H 0.27929 0.9964 0.3454 0.0
H1425 H 0.28108 0.99147 0.36 0.0
H1426 H 0.2104 0.05872 0.36232 0.0
H1427 H 0.20731 0.06284 0.34782 0.0
H1428 H 0.29986 0.02834 0.37134 0.0
H1429 H 0.17081 1.00159 0.37708 0.0
H1430 H 0.18804 1.00118 0.36715 0.0
H1431 H 0.17462 0.03412 0.37156 0.0
C1432 C 0.26353 1.00972 0.34899 0.0
C1433 C 0.24311 0.03002 0.34532 0.0
C1434 C 0.26482 1.00705 0.35738 0.0
C1435 C 0.24555 0.02442 0.36236 0.0
C1436 C 0.22503 0.04453 0.3587 0.0
H1437 H 0.22732 0.06783 0.4124 0.0
H1438 H 0.22488 0.06298 0.39788 0.0
C1439 C 0.22363 0.04714 0.35034 0.0
C1440 C 0.24781 0.02249 0.37134 0.0
H1441 H 0.20174 0.01733 0.38841 0.0
C1442 C 0.27842 0.02554 0.37505 0.0
C1443 C 0.21996 0.01878 0.37628 0.0
C1444 C 0.18658 0.01343 0.37281 0.0
C1445 C 0.28172 0.02612 0.38347 0.0
C1446 C 0.25374 0.02329 0.38839 0.0
C1447 C 0.22325 0.01964 0.38469 0.0
C1448 C 0.25529 0.0255 0.39735 0.0
C1449 C 0.31505 0.03087 0.38703 0.0
C1450 C 0.27279 1.00578 0.40202 0.0
C1451 C 0.27422 1.00848 0.41041 0.0
C1452 C 0.25838 0.03111 0.41434 0.0
C1453 C 0.24041 0.05044 0.40963 0.0
C1454 C 0.23879 0.0476 0.40129 0.0
H1455 H 0.33294 0.03832 0.3825 0.0
H1456 H 0.31389 0.04672 0.39194 0.0
H1457 H 0.3241 0.01056 0.38958 0.0
H1458 H 0.28532 0.98823 0.39918 0.0
H1459 H 0.28827 0.99318 0.4138 0.0
H1460 H 0.96416 0.80957 0.59672 0.0
H1461 H 0.96987 0.80874 0.61135 0.0
H1462 H 0.99043 0.71884 0.61042 0.0
H1463 H 0.9856 0.71999 0.5958 0.0
H1464 H 0.93446 0.78203 0.62212 0.0
H1465 H 0.06065 0.7425 0.62548 0.0
H1466 H 0.04479 0.75448 0.616 0.0
H1467 H 0.03608 0.71908 0.61954 0.0
C1468 C 0.97083 0.78985 0.59964 0.0
C1469 C 0.97531 0.76502 0.5951 0.0
C1470 C 0.97383 0.78928 0.60802 0.0
C1471 C 0.98121 0.76382 0.61209 0.0
C1472 C 0.98579 0.739 0.60751 0.0
H1473 H 0.97189 0.71178 0.66246 0.0
H1474 H 0.97685 0.7137 0.64778 0.0
C1475 C 0.98299 0.73962 0.59913 0.0
C1476 C 0.98199 0.76293 0.6211 0.0
H1477 H 0.02751 0.74166 0.63725 0.0
C1478 C 0.95501 0.77342 0.62539 0.0
C1479 C 0.00866 0.75166 0.62549 0.0
C1480 C 0.03931 0.74156 0.6214 0.0
C1481 C 0.95372 0.7725 0.63383 0.0
C1482 C 0.98016 0.76093 0.63819 0.0
C1483 C 0.00715 0.75044 0.63394 0.0
C1484 C 0.97997 0.7596 0.64716 0.0
C1485 C 0.92368 0.78342 0.63803 0.0
C1486 C 0.98091 0.78464 0.65176 0.0
C1487 C 0.97854 0.78349 0.66014 0.0
C1488 C 0.97517 0.75729 0.66412 0.0
C1489 C 0.97499 0.7322 0.65955 0.0
C1490 C 0.97767 0.73332 0.65116 0.0
H1491 H 0.90299 0.78653 0.63384 0.0
H1492 H 0.91599 0.76847 0.64283 0.0
H1493 H 0.92931 0.80418 0.64087 0.0
H1494 H 0.98286 0.80516 0.64884 0.0
H1495 H 0.97822 0.80316 0.66351 0.0
H1496 H 0.29829 0.45501 0.84795 0.0
H1497 H 0.29349 0.45749 0.86248 0.0
H1498 H 0.22205 0.52414 0.86021 0.0
H1499 H 0.22574 0.52099 0.84561 0.0
H1500 H 0.30475 0.49878 0.87326 0.0
H1501 H 0.17373 0.46986 0.87467 0.0
H1502 H 0.19736 0.46664 0.86561 0.0
H1503 H 0.18214 0.50078 0.86871 0.0
C1504 C 0.28129 0.47009 0.8505 0.0
C1505 C 0.2621 0.48753 0.8455 0.0
C1506 C 0.27873 0.47161 0.85887 0.0
C1507 C 0.25684 0.49054 0.86254 0.0
C1508 C 0.23852 0.50878 0.85759 0.0
H1509 H 0.20949 0.5155 0.91377 0.0
H1510 H 0.21354 0.52091 0.89918 0.0
C1511 C 0.24104 0.50725 0.8492 0.0
C1512 C 0.25353 0.49101 0.87151 0.0
H1513 H 0.19907 0.48193 0.8869 0.0
C1514 C 0.28158 0.49511 0.87621 0.0
C1515 C 0.22336 0.48629 0.87547 0.0
C1516 C 0.19246 0.48038 0.87087 0.0
C1517 C 0.28035 0.49466 0.88465 0.0
C1518 C 0.25031 0.48951 0.88861 0.0
C1519 C 0.22213 0.48594 0.88392 0.0
C1520 C 0.24795 0.48656 0.89755 0.0
C1521 C 0.31134 0.50001 0.88927 0.0
C1522 C 0.2656 0.46529 0.90156 0.0
C1523 C 0.26336 0.46217 0.9099 0.0
C1524 C 0.24322 0.48011 0.91451 0.0
C1525 C 0.22548 0.50142 0.91048 0.0
C1526 C 0.22763 0.50444 0.9021 0.0
H1527 H 0.32957 0.51173 0.88561 0.0
H1528 H 0.30645 0.51234 0.8948 0.0
H1529 H 0.32226 0.47932 0.891 0.0
H1530 H 0.28103 0.45084 0.89824 0.0
H1531 H 0.27779 0.44574 0.91273 0.0
H1532 H 0.51871 0.80033 0.09577 0.0
H1533 H 0.51349 0.80211 0.11041 0.0
H1534 H 0.53836 0.71319 0.11182 0.0
H1535 H 0.54346 0.71143 0.09716 0.0
H1536 H 0.48543 0.73002 0.12228 0.0
H1537 H 0.59325 0.80058 0.12551 0.0
H1538 H 0.56228 0.81323 0.1188 0.0
H1539 H 0.58458 0.78151 0.11639 0.0
C1540 C 0.52235 0.78105 0.0992 0.0
C1541 C 0.53094 0.75562 0.09531 0.0
C1542 C 0.51975 0.78214 0.10758 0.0
C1543 C 0.5259 0.75787 0.11228 0.0
C1544 C 0.53349 0.73222 0.10837 0.0
H1545 H 0.53418 0.71731 0.16348 0.0
H1546 H 0.52893 0.71581 0.14887 0.0
C1547 C 0.53626 0.73117 0.09999 0.0
C1548 C 0.52542 0.75941 0.12126 0.0
H1549 H 0.56383 0.79004 0.13727 0.0
C1550 C 0.50258 0.74314 0.12556 0.0
C1551 C 0.54769 0.77657 0.12558 0.0
C1552 C 0.57355 0.79382 0.12137 0.0
C1553 C 0.50106 0.74389 0.13401 0.0
C1554 C 0.52364 0.76078 0.13836 0.0
C1555 C 0.54639 0.77712 0.13402 0.0
C1556 C 0.52469 0.76145 0.14737 0.0
C1557 C 0.47463 0.72707 0.13814 0.0
C1558 C 0.52474 0.78754 0.15152 0.0
C1559 C 0.52812 0.78836 0.15989 0.0
C1560 C 0.53137 0.76312 0.16432 0.0
C1561 C 0.53087 0.73704 0.16022 0.0
C1562 C 0.52777 0.73621 0.15185 0.0
H1563 H 0.45347 0.72342 0.13413 0.0
H1564 H 0.4844 0.70594 0.13988 0.0
H1565 H 0.4659 0.73804 0.14362 0.0
H1566 H 0.52267 0.80739 0.14827 0.0
H1567 H 0.52907 0.80876 0.16289 0.0
H1568 H 0.77865 0.57438 0.84684 0.0
H1569 H 0.78206 0.57161 0.86137 0.0
H1570 H 0.72747 0.49322 0.86105 0.0
H1571 H 0.72411 0.4958 0.8464 0.0
H1572 H 0.73476 0.57299 0.87237 0.0
H1573 H 0.80139 0.47106 0.87564 0.0
H1574 H 0.79759 0.48909 0.86615 0.0
H1575 H 0.76428 0.46827 0.87001 0.0
C1576 C 0.76722 0.5565 0.84983 0.0
C1577 C 0.75083 0.53542 0.84537 0.0
C1578 C 0.76935 0.55489 0.85819 0.0
C1579 C 0.75534 0.53209 0.86241 0.0
C1580 C 0.73918 0.51078 0.85799 0.0
H1581 H 0.7383 0.50183 0.9144 0.0
H1582 H 0.73469 0.49825 0.8998 0.0
C1583 C 0.73716 0.51231 0.84958 0.0
C1584 C 0.75676 0.53158 0.87141 0.0
H1585 H 0.78238 0.49256 0.88758 0.0
C1586 C 0.74526 0.55536 0.87567 0.0
C1587 C 0.77029 0.50862 0.87582 0.0
C1588 C 0.78438 0.48291 0.87169 0.0
C1589 C 0.74681 0.55684 0.88409 0.0
C1590 C 0.76075 0.5341 0.88848 0.0
C1591 C 0.77175 0.51006 0.88426 0.0
C1592 C 0.76454 0.53525 0.89742 0.0
C1593 C 0.73301 0.5827 0.88822 0.0
C1594 C 0.7833 0.55672 0.90104 0.0
C1595 C 0.78566 0.55872 0.9094 0.0
C1596 C 0.76937 0.53925 0.91444 0.0
C1597 C 0.75147 0.51714 0.91078 0.0
C1598 C 0.7492 0.51513 0.9024 0.0
H1599 H 0.71553 0.59429 0.88433 0.0
H1600 H 0.72042 0.57672 0.89386 0.0
H1601 H 0.7532 0.59749 0.88972 0.0
H1602 H 0.79611 0.57213 0.89738 0.0
H1603 H 0.80033 0.57565 0.91191 0.0
H1604 H 0.44482 0.22011 0.16248 0.0
H1605 H 0.44852 0.22156 0.14795 0.0
H1606 H 0.5158 0.29202 0.14953 0.0
H1607 H 0.5076 0.29345 0.16396 0.0
H1608 H 0.48513 0.30345 0.13814 0.0
H1609 H 0.50609 0.18994 0.13253 0.0
H1610 H 0.46794 0.19318 0.13761 0.0
H1611 H 0.50529 0.20381 0.14254 0.0
C1612 C 0.46071 0.23572 0.15972 0.0
C1613 C 0.47668 0.25609 0.16449 0.0
C1614 C 0.46327 0.2363 0.15134 0.0
C1615 C 0.48349 0.2562 0.14741 0.0
C1616 C 0.50013 0.27615 0.15223 0.0
H1617 H 0.50754 0.2267 0.09557 0.0
H1618 H 0.51589 0.22823 0.11 0.0
C1619 C 0.49614 0.27653 0.16059 0.0
C1620 C 0.48558 0.25754 0.13836 0.0
H1621 H 0.48516 0.21675 0.12139 0.0
C1622 C 0.48587 0.28432 0.13454 0.0
C1623 C 0.48732 0.23299 0.1334 0.0
C1624 C 0.49206 0.20346 0.13676 0.0
C1625 C 0.48736 0.28721 0.12614 0.0
C1626 C 0.48565 0.26265 0.12118 0.0
C1627 C 0.48589 0.23588 0.125 0.0
C1628 C 0.48358 0.26399 0.11213 0.0
C1629 C 0.49216 0.31675 0.12278 0.0
C1630 C 0.46335 0.28386 0.10821 0.0
C1631 C 0.46071 0.28438 0.09983 0.0
C1632 C 0.47659 0.26399 0.09506 0.0
C1633 C 0.49613 0.24363 0.09895 0.0
C1634 C 0.50019 0.24406 0.1073 0.0
H1635 H 0.50621 0.33027 0.127 0.0
H1636 H 0.5054 0.31641 0.11699 0.0
H1637 H 0.46806 0.32701 0.12194 0.0
H1638 H 0.44862 0.29859 0.11161 0.0
H1639 H 0.44477 0.29993 0.09708 0.0
H1640 H 0.799 0.95727 0.34782 0.0
H1641 H 0.79532 0.96141 0.36232 0.0
H1642 H 0.72658 0.03007 0.35978 0.0
H1643 H 0.72889 0.02514 0.34521 0.0
H1644 H 0.80937 1.00251 0.37268 0.0
H1645 H 0.67692 0.98014 0.37497 0.0
H1646 H 0.69938 0.9752 0.36581 0.0
H1647 H 0.68647 0.0102 0.36878 0.0
C1648 C 0.78274 0.9731 0.3503 0.0
C1649 C 0.76388 0.99056 0.34523 0.0
C1650 C 0.78086 0.97559 0.35866 0.0
C1651 C 0.76009 0.99561 0.36226 0.0
C1652 C 0.74215 0.01387 0.35723 0.0
H1653 H 0.72071 0.02752 0.41369 0.0
H1654 H 0.72402 0.03238 0.39905 0.0
C1655 C 0.74391 0.01132 0.34885 0.0
C1656 C 0.75756 0.99721 0.37124 0.0
H1657 H 0.704 0.99241 0.38697 0.0
C1658 C 0.78625 1.00033 0.37577 0.0
C1659 C 0.72748 0.99441 0.37539 0.0
C1660 C 0.69583 0.98953 0.37101 0.0
C1661 C 0.78575 1.00066 0.38421 0.0
C1662 C 0.75578 0.99748 0.38835 0.0
C1663 C 0.72699 0.99497 0.38384 0.0
C1664 C 0.75412 0.99512 0.3973 0.0
C1665 C 0.81745 1.00456 0.38865 0.0
C1666 C 0.76968 0.97253 0.40126 0.0
C1667 C 0.76775 0.96968 0.4096 0.0
C1668 C 0.7501 0.98931 0.41429 0.0
C1669 C 0.7347 0.01211 0.41033 0.0
C1670 C 0.73643 0.01482 0.40193 0.0
H1671 H 0.83637 0.01457 0.38481 0.0
H1672 H 0.81399 0.01789 0.39406 0.0
H1673 H 0.82666 0.98345 0.39058 0.0
H1674 H 0.78311 0.95679 0.39787 0.0
H1675 H 0.78031 0.95203 0.41239 0.0
H1676 H 0.02756 0.30766 0.66276 0.0
H1677 H 0.02108 0.30659 0.64813 0.0
H1678 H 0.02892 0.2151 0.64854 0.0
H1679 H 0.03424 0.21628 0.66314 0.0
H1680 H 0.06255 0.29008 0.6371 0.0
H1681 H 0.95338 0.2221 0.6338 0.0
H1682 H 0.96554 0.23663 0.64332 0.0
H1683 H 0.98457 0.20487 0.63952 0.0
C1684 C 0.02693 0.28733 0.65972 0.0
C1685 C 0.03067 0.26202 0.66409 0.0
C1686 C 0.0235 0.28669 0.65134 0.0
C1687 C 0.02389 0.26071 0.64713 0.0
C1688 C 0.02742 0.2354 0.65156 0.0
H1689 H 0.04418 0.21205 0.59687 0.0
H1690 H 0.03878 0.21343 0.61153 0.0
C1691 C 0.03056 0.23604 0.65993 0.0
C1692 C 0.02288 0.26026 0.63812 0.0
H1693 H 0.98534 0.22933 0.62198 0.0
C1694 C 0.04536 0.27701 0.63382 0.0
C1695 C 1.00063 0.24317 0.63373 0.0
C1696 C 0.97446 0.22591 0.63783 0.0
C1697 C 0.04673 0.27664 0.62539 0.0
C1698 C 0.02482 0.25927 0.62102 0.0
C1699 C 1.00223 0.24261 0.62529 0.0
C1700 C 0.02542 0.2579 0.61205 0.0
C1701 C 0.07233 0.29433 0.62121 0.0
C1702 C 0.01886 0.28217 0.60738 0.0
C1703 C 0.02163 0.28129 0.599 0.0
C1704 C 0.03081 0.25607 0.59508 0.0
C1705 C 0.03652 0.23162 0.59972 0.0
C1706 C 0.03358 0.23245 0.6081 0.0
H1707 H 0.09184 0.30131 0.62537 0.0
H1708 H 0.08364 0.28226 0.61622 0.0
H1709 H 0.06072 0.31362 0.61866 0.0
H1710 H 0.01216 0.30199 0.61023 0.0
H1711 H 0.01767 0.30058 0.59559 0.0
H1712 H 0.2679 0.09322 0.26749 0.0
H1713 H 0.29009 0.11719 0.25559 0.0
H1714 H 0.37231 0.14619 0.26933 0.0
H1715 H 0.35002 0.12355 0.28124 0.0
H1716 H 0.31011 0.17872 0.25342 0.0
H1717 H 0.41252 0.10281 0.24949 0.0
H1718 H 0.37632 0.09404 0.25515 0.0
H1719 H 0.40697 0.11665 0.25943 0.0
C1720 C 0.29052 0.10491 0.26804 0.0
C1721 C 0.30718 0.10573 0.27543 0.0
C1722 C 0.30332 0.11856 0.26118 0.0
C1723 C 0.33329 0.13321 0.26147 0.0
C1724 C 0.34954 0.13462 0.26885 0.0
H1725 H 0.42411 0.25513 0.22814 0.0
H1726 H 0.4012 0.23044 0.23987 0.0
C1727 C 0.33669 0.12132 0.27569 0.0
C1728 C 0.34779 0.14707 0.25415 0.0
H1729 H 0.41326 0.1441 0.24137 0.0
C1730 C 0.3326 0.17107 0.25078 0.0
C1731 C 0.37712 0.13719 0.25062 0.0
C1732 C 0.3942 0.11114 0.25379 0.0
C1733 C 0.34618 0.18561 0.24414 0.0
C1734 C 0.37593 0.17611 0.24072 0.0
C1735 C 0.3907 0.15172 0.24398 0.0
C1736 C 0.39166 0.19088 0.23369 0.0
C1737 C 0.32834 0.21095 0.24076 0.0
C1738 C 0.39501 0.17685 0.2263 0.0
C1739 C 0.40819 0.19098 0.21959 0.0
C1740 C 0.41908 0.21931 0.22014 0.0
C1741 C 0.41657 0.23314 0.22757 0.0
C1742 C 0.40307 0.2191 0.23426 0.0
H1743 H 0.30266 0.21184 0.24287 0.0
H1744 H 0.34079 0.23073 0.2427 0.0
H1745 H 0.32851 0.21045 0.23413 0.0
H1746 H 0.38651 0.15516 0.22564 0.0
H1747 H 0.40923 0.17994 0.21392 0.0
H1748 H 0.7666 0.88678 0.48549 0.0
H1749 H 0.78894 0.86215 0.4972 0.0
H1750 H 0.86835 0.92213 0.49807 0.0
H1751 H 0.8463 0.9467 0.4864 0.0
H1752 H 0.89146 0.86951 0.49983 0.0
H1753 H 0.78717 0.88189 0.52056 0.0
H1754 H 0.77631 0.86479 0.51136 0.0
H1755 H 0.7899 0.9012 0.51126 0.0
C1756 C 0.7885 0.8951 0.48825 0.0
C1757 C 0.80449 0.91888 0.4849 0.0
C1758 C 0.80135 0.8809 0.49499 0.0
C1759 C 0.8304 0.89023 0.49867 0.0
C1760 C 0.84606 0.91422 0.4954 0.0
H1761 H 0.90133 0.83875 0.54613 0.0
H1762 H 0.87953 0.86394 0.53443 0.0
C1763 C 0.83333 0.92832 0.48867 0.0
C1764 C 0.84518 0.87471 0.50572 0.0
H1765 H 0.82968 0.85109 0.52478 0.0
C1766 C 0.87784 0.86555 0.50528 0.0
C1767 C 0.82792 0.86964 0.51295 0.0
C1768 C 0.7935 0.88012 0.51412 0.0
C1769 C 0.8934 0.85147 0.51171 0.0
C1770 C 0.87586 0.84571 0.51886 0.0
C1771 C 0.8433 0.85511 0.51934 0.0
C1772 C 0.89089 0.83061 0.52595 0.0
C1773 C 0.92887 0.84362 0.51085 0.0
C1774 C 0.90484 0.80331 0.52522 0.0
C1775 C 0.91766 0.78898 0.53194 0.0
C1776 C 0.91691 0.80153 0.53958 0.0
C1777 C 0.90297 0.82876 0.54031 0.0
C1778 C 0.89022 0.84308 0.53361 0.0
H1779 H 0.94109 0.85651 0.50615 0.0
H1780 H 0.94219 0.84658 0.51657 0.0
H1781 H 0.93074 0.82092 0.5091 0.0
H1782 H 0.90497 0.79262 0.51949 0.0
H1783 H 0.92707 0.76762 0.5312 0.0
H1784 H 0.06852 0.33895 0.71733 0.0
H1785 H 0.08877 0.36345 0.72933 0.0
H1786 H 0.13998 0.28733 0.73635 0.0
H1787 H 0.11793 0.26253 0.72467 0.0
H1788 H 0.11993 0.30953 0.749 0.0
H1789 H 0.17448 0.39905 0.73227 0.0
H1790 H 0.13128 0.39739 0.73078 0.0
H1791 H 0.15685 0.36877 0.72729 0.0
C1792 C 0.08374 0.32741 0.72151 0.0
C1793 C 0.09204 0.29892 0.71996 0.0
C1794 C 0.09588 0.34159 0.72833 0.0
C1795 C 0.11724 0.32786 0.73371 0.0
C1796 C 0.12407 0.29888 0.73233 0.0
H1797 H 0.24195 0.42274 0.76785 0.0
H1798 H 0.22034 0.39692 0.75629 0.0
C1799 C 0.11145 0.2846 0.72562 0.0
C1800 C 0.13224 0.34322 0.7408 0.0
H1801 H 0.17296 0.40388 0.74644 0.0
C1802 C 0.13162 0.33012 0.74838 0.0
C1803 C 0.14844 0.36991 0.74013 0.0
C1804 C 0.15316 0.38445 0.73216 0.0
C1805 C 0.14601 0.34277 0.75519 0.0
C1806 C 0.16047 0.37022 0.75462 0.0
C1807 C 0.1616 0.38314 0.74702 0.0
C1808 C 0.17424 0.38585 0.7618 0.0
C1809 C 0.1464 0.32587 0.76287 0.0
C1810 C 0.1559 0.38881 0.76886 0.0
C1811 C 0.16858 0.40291 0.77558 0.0
C1812 C 0.19985 0.41567 0.77548 0.0
C1813 C 0.21805 0.41313 0.76833 0.0
C1814 C 0.20547 0.39848 0.76163 0.0
H1815 H 0.14581 0.30263 0.76166 0.0
H1816 H 0.16838 0.33061 0.7665 0.0
H1817 H 0.12437 0.3311 0.76643 0.0
H1818 H 0.13143 0.38027 0.76921 0.0
H1819 H 0.15361 0.40343 0.7809 0.0
H1820 H 0.66499 0.56969 0.9871 0.0
H1821 H 0.6412 0.59404 0.99859 0.0
H1822 H 0.71603 0.65821 0.99723 0.0
H1823 H 0.74005 0.63394 0.98566 0.0
H1824 H 0.70442 0.64349 1.01269 0.0
H1825 H 0.58586 0.6649 0.99815 0.0
H1826 H 0.59609 0.62781 0.99824 0.0
H1827 H 0.62088 0.65242 0.99265 0.0
C1828 C 0.67641 0.5891 0.98917 0.0
C1829 C 0.70445 0.59983 0.98529 0.0
C1830 C 0.66259 0.60314 0.99578 0.0
C1831 C 0.67611 0.62856 0.99875 0.0
C1832 C 0.70477 0.63882 0.99508 0.0
H1833 H 0.57785 0.74876 0.03145 0.0
H1834 H 0.60075 0.72404 0.01976 0.0
C1835 C 0.71868 0.62474 0.98845 0.0
C1836 C 0.66052 0.64417 1.00567 0.0
H1837 H 0.5886 0.6736 1.01216 0.0
C1838 C 0.6791 0.65009 1.01254 0.0
C1839 C 0.62755 0.65343 1.00553 0.0
C1840 C 0.60649 0.64961 0.99822 0.0
C1841 C 0.66564 0.66417 0.01926 0.0
C1842 C 0.63231 0.67237 0.01925 0.0
C1843 C 0.61394 0.66709 1.0123 0.0
C1844 C 0.61629 0.68672 0.02632 0.0
C1845 C 0.68762 0.67067 0.02625 0.0
C1846 C 0.61622 0.6739 0.03394 0.0
C1847 C 0.60283 0.68794 0.04061 0.0
C1848 C 0.58861 0.71506 0.03986 0.0
C1849 C 0.58778 0.72759 0.03221 0.0
C1850 C 0.6012 0.71352 0.02553 0.0
H1851 H 0.71372 0.67073 0.02446 0.0
H1852 H 0.68167 0.69163 0.02893 0.0
H1853 H 0.68434 0.65406 0.0309 0.0
H1854 H 0.62692 0.65306 0.03477 0.0
H1855 H 0.60427 0.67786 0.04643 0.0
H1856 H 0.39589 0.26128 0.03368 0.0
H1857 H 0.37374 0.28682 0.02205 0.0
H1858 H 0.41282 0.36542 0.0312 0.0
H1859 H 0.43446 0.33988 0.04293 0.0
H1860 H 0.32743 0.3361 0.02312 0.0
H1861 H 0.44194 0.36216 1.00688 0.0
H1862 H 0.43938 0.3332 1.01398 0.0
H1863 H 0.44099 0.36924 1.01746 0.0
C1864 C 0.40012 0.28396 0.03315 0.0
C1865 C 0.4169 0.29856 0.03924 0.0
C1866 C 0.38731 0.29859 0.02651 0.0
C1867 C 0.39149 0.32817 0.02568 0.0
C1868 C 0.40936 0.34262 0.03162 0.0
H1869 H 0.33557 0.45077 0.98836 0.0
H1870 H 0.35881 0.42634 0.99995 0.0
C1871 C 0.42184 0.32801 0.03832 0.0
C1872 C 0.376 0.3439 0.01881 0.0
H1873 H 0.39318 0.3808 1.00162 0.0
C1874 C 0.34182 0.34583 1.01841 0.0
C1875 C 0.39457 0.35692 1.01267 0.0
C1876 C 0.43127 0.35526 1.01268 0.0
C1877 C 0.32584 0.36064 1.01217 0.0
C1878 C 0.34435 0.37322 1.00589 0.0
C1879 C 0.37864 0.37129 1.00633 0.0
C1880 C 0.32889 0.38857 0.99888 0.0
C1881 C 0.28924 0.36343 1.01257 0.0
C1882 C 0.30405 0.37589 0.99426 0.0
C1883 C 0.29029 0.39014 0.98765 0.0
C1884 C 0.30139 0.4173 0.98531 0.0
C1885 C 0.32634 0.42989 0.98991 0.0
C1886 C 0.33977 0.41582 0.99658 0.0
H1887 H 0.28021 0.36146 0.01881 0.0
H1888 H 0.28095 0.38416 1.01012 0.0
H1889 H 0.27792 0.34608 1.00903 0.0
H1890 H 0.29569 0.35461 0.99563 0.0
H1891 H 0.27167 0.3794 0.98419 0.0
H1892 H 0.66616 0.94996 0.27236 0.0
H1893 H 0.64345 0.92536 0.2607 0.0
H1894 H 0.71436 0.85861 0.26346 0.0
H1895 H 0.73742 0.88324 0.27514 0.0
H1896 H 0.67892 0.90494 0.24565 0.0
H1897 H 0.62026 0.8188 0.26338 0.0
H1898 H 0.6309 0.85275 0.26773 0.0
H1899 H 0.66216 0.82725 0.26557 0.0
C1900 C 0.6771 0.93009 0.27049 0.0
C1901 C 0.70371 0.91867 0.27477 0.0
C1902 C 0.66405 0.91604 0.26378 0.0
C1903 C 0.67682 0.88987 0.26119 0.0
C1904 C 0.70378 0.87862 0.26534 0.0
H1905 H 0.61483 0.76457 0.22532 0.0
H1906 H 0.63698 0.78975 0.23696 0.0
C1907 C 0.71717 0.89289 0.272 0.0
C1908 C 0.66168 0.87438 0.25423 0.0
H1909 H 0.61533 0.81614 0.24938 0.0
C1910 C 0.66499 0.88554 0.24647 0.0
C1911 C 0.64358 0.84894 0.25523 0.0
C1912 C 0.63869 0.83613 0.26341 0.0
C1913 C 0.65136 0.8718 0.23972 0.0
C1914 C 0.6326 0.84654 0.24071 0.0
C1915 C 0.62937 0.83545 0.24851 0.0
C1916 C 0.6171 0.83088 0.23376 0.0
C1917 C 0.65839 0.88408 0.23156 0.0
C1918 C 0.59723 0.84494 0.22811 0.0
C1919 C 0.58484 0.83049 0.22137 0.0
C1920 C 0.59145 0.80147 0.22016 0.0
C1921 C 0.60947 0.78698 0.22605 0.0
C1922 C 0.62221 0.80146 0.23272 0.0
H1923 H 0.68083 0.89735 0.23159 0.0
H1924 H 0.6614 0.86707 0.22701 0.0
H1925 H 0.63783 0.89795 0.22973 0.0
H1926 H 0.59159 0.86726 0.22883 0.0
H1927 H 0.57085 0.84221 0.21698 0.0
H1928 H 0.16233 0.07268 0.48662 0.0
H1929 H 0.13981 0.09733 0.49821 0.0
H1930 H 0.21789 0.15856 0.4971 0.0
H1931 H 0.24076 0.13382 0.48545 0.0
H1932 H 0.20511 0.14434 0.5125 0.0
H1933 H 0.08789 0.16985 0.49786 0.0
H1934 H 0.09623 0.13241 0.49791 0.0
H1935 H 0.12235 0.15616 0.49238 0.0
C1936 C 0.17477 0.09148 0.48878 0.0
C1937 C 0.20333 0.10129 0.48494 0.0
C1938 C 0.16167 0.10572 0.49545 0.0
C1939 C 0.17642 0.13048 0.49849 0.0
C1940 C 0.20566 0.13974 0.49488 0.0
H1941 H 0.08023 0.25174 0.53129 0.0
H1942 H 0.10311 0.22698 0.51961 0.0
C1943 C 0.2189 0.1254 0.48821 0.0
C1944 C 0.16139 0.14647 0.50543 0.0
H1945 H 0.09045 0.17763 0.51193 0.0
C1946 C 0.18006 0.15166 0.51234 0.0
C1947 C 0.12879 0.15668 0.50528 0.0
C1948 C 0.10773 0.15378 0.49793 0.0
C1949 C 0.16701 0.16591 0.51907 0.0
C1950 C 0.13396 0.17499 0.51906 0.0
C1951 C 0.11555 0.17044 0.51207 0.0
C1952 C 0.11826 0.1895 0.52615 0.0
C1953 C 0.18914 0.17165 0.52609 0.0
C1954 C 0.118 0.17665 0.53377 0.0
C1955 C 0.10468 0.19076 0.54044 0.0
C1956 C 0.09064 0.21795 0.53969 0.0
C1957 C 0.09004 0.23054 0.53205 0.0
C1958 C 0.10344 0.21643 0.52537 0.0
H1959 H 0.21523 0.17134 0.52429 0.0
H1960 H 0.18371 0.19257 0.52886 0.0
H1961 H 0.18551 0.15484 0.53066 0.0
H1962 H 0.12842 0.1557 0.5346 0.0
H1963 H 0.1059 0.18062 0.54625 0.0
H1964 H 0.89722 0.68258 0.71305 0.0
H1965 H 0.87391 0.65836 0.72473 0.0
H1966 H 0.91251 0.72402 0.74003 0.0
H1967 H 0.93409 0.74904 0.72829 0.0
H1968 H 0.89525 0.63414 0.73768 0.0
H1969 H 0.8213 0.72579 0.74761 0.0
H1970 H 0.84275 0.7258 0.7382 0.0
H1971 H 0.86387 0.73429 0.74735 0.0
C1972 C 0.90105 0.69167 0.71893 0.0
C1973 C 0.91817 0.71751 0.71971 0.0
C1974 C 0.88758 0.67782 0.72563 0.0
C1975 C 0.8906 0.68942 0.73336 0.0
C1976 C 0.9088 0.71476 0.73418 0.0
H1977 H 0.83785 0.63251 0.78144 0.0
H1978 H 0.85995 0.65581 0.76951 0.0
C1979 C 0.92195 0.72881 0.72745 0.0
C1980 C 0.8746 0.67506 0.74048 0.0
H1981 H 0.82485 0.68679 0.75669 0.0
C1982 C 0.87968 0.64574 0.74178 0.0
C1983 C 0.85385 0.68976 0.7459 0.0
C1984 C 0.84481 0.72055 0.74466 0.0
C1985 C 0.86552 0.63117 0.74834 0.0
C1986 C 0.8455 0.64606 0.75383 0.0
C1987 C 0.84023 0.67525 0.75253 0.0
C1988 C 0.83083 0.63194 0.7611 0.0
C1989 C 0.8727 0.59998 0.74947 0.0
C1990 C 0.80639 0.61094 0.76046 0.0
C1991 C 0.79334 0.59762 0.76734 0.0
C1992 C 0.80469 0.60469 0.77504 0.0
C1993 C 0.82873 0.6261 0.77563 0.0
C1994 C 0.84139 0.6396 0.76879 0.0
H1995 H 0.89265 0.59253 0.7455 0.0
H1996 H 0.87953 0.59559 0.75578 0.0
H1997 H 0.85045 0.58743 0.74811 0.0
H1998 H 0.79742 0.60477 0.75462 0.0
H1999 H 0.77497 0.58127 0.76661 0.0
loop_
_geom_bond_atom_site_label_1
_geom_bond_atom_site_label_2
_geom_bond_distance
_geom_bond_site_symmetry_2
_ccdc_geom_bond_type
C0 C1 1.443 . S
C0 N4 1.376 . S
C0 C38 1.389 . S
C1 C0 1.443 . S
C1 C2 1.340 . S
C1 H41 0.951 . S
C2 C1 1.340 . S
C2 C3 1.439 . S
C2 H42 0.950 . S
C3 C2 1.439 . S
C3 N4 1.374 . S
C3 C37 1.395 . S
N4 C0 1.376 . S
N4 C3 1.374 . S
N4 Co5 2.008 . S
Co5 N4 2.008 . S
Co5 N6 1.995 . S
Co5 N11 2.008 . S
Co5 N16 1.995 . S
Co5 N21 2.282 . S
Co5 N27 2.282 . S
N6 Co5 1.995 . S
N6 C7 1.376 . S
N6 C10 1.383 . S
C7 N6 1.376 . S
C7 C8 1.446 . S
C7 C37 1.391 . S
C8 C7 1.446 . S
C8 C9 1.339 . S
C8 H43 0.949 . S
C9 C8 1.339 . S
C9 C10 1.439 . S
C9 H44 0.950 . S
C10 N6 1.383 . S
C10 C9 1.439 . S
C10 C39 1.392 . S
N11 Co5 2.008 . S
N11 C12 1.376 . S
N11 C15 1.374 1_545 S
C12 N11 1.376 . S
C12 C13 1.443 . S
C12 C39 1.389 . S
C13 C12 1.443 . S
C13 C14 1.340 1_545 S
C13 H45 0.951 . S
C14 C13 1.340 1_565 S
C14 C15 1.439 . S
C14 H46 0.950 . S
C15 N11 1.374 1_565 S
C15 C14 1.439 . S
C15 C40 1.395 . S
N16 Co5 1.995 . S
N16 C17 1.376 1_545 S
N16 C20 1.383 . S
C17 N16 1.376 1_565 S
C17 C18 1.446 . S
C17 C40 1.391 . S
C18 C17 1.446 . S
C18 C19 1.339 1_565 S
C18 H47 0.949 . S
C19 C18 1.339 1_545 S
C19 C20 1.439 . S
C19 H48 0.946 1_545 S
C20 N16 1.383 . S
C20 C19 1.439 . S
C20 C38 1.392 . S
N21 Co5 2.282 . S
N21 C24 1.332 . S
N21 C26 1.332 . S
C22 C23 1.386 . S
C22 C25 1.388 . S
C23 C22 1.386 . S
C23 C24 1.382 . S
C23 H49 0.950 1_545 S
C24 N21 1.332 . S
C24 C23 1.382 . S
C24 H35 0.952 . S
C25 C22 1.388 . S
C25 C26 1.382 . S
C25 H50 0.950 . S
C26 N21 1.332 . S
C26 C25 1.382 . S
C26 H36 0.948 . S
N27 Co5 2.282 . S
N27 C31 1.332 . S
N27 C32 1.332 . S
C28 C29 1.388 . S
C28 C32 1.382 . S
C28 H51 0.950 . S
C29 C28 1.388 . S
C29 C30 1.386 . S
C30 C29 1.386 . S
C30 C31 1.382 . S
C30 H52 0.950 . S
C31 N27 1.332 . S
C31 C30 1.382 . S
C31 H33 0.952 . S
C32 N27 1.332 . S
C32 C28 1.382 . S
C32 H34 0.948 . S
H33 C31 0.952 . S
H34 C32 0.948 . S
H35 C24 0.952 . S
H36 C26 0.948 . S
C37 C3 1.395 . S
C37 C7 1.391 . S
C38 C0 1.389 . S
C38 C20 1.392 . S
C39 C10 1.392 . S
C39 C12 1.389 . S
C40 C15 1.395 . S
C40 C17 1.391 . S
H41 C1 0.951 . S
H42 C2 0.950 . S
H43 C8 0.949 . S
H44 C9 0.950 . S
H45 C13 0.951 . S
H46 C14 0.950 . S
H47 C18 0.949 . S
H48 C19 0.946 1_565 S
H49 C23 0.950 1_565 S
H50 C25 0.950 . S
H51 C28 0.950 . S
H52 C30 0.950 . S
C53 C54 1.443 . S
C53 N57 1.376 . S
C53 C91 1.389 . S
C54 C53 1.443 . S
C54 C55 1.340 1_655 S
C54 H94 0.951 . S
C55 C54 1.340 1_455 S
C55 C56 1.439 . S
C55 H95 0.950 . S
C56 C55 1.439 . S
C56 N57 1.374 1_455 S
C56 C90 1.395 . S
N57 C53 1.376 . S
N57 C56 1.374 1_655 S
N57 Co58 2.008 . S
Co58 N57 2.008 . S
Co58 N59 1.995 . S
Co58 N64 2.008 . S
Co58 N69 1.995 . S
Co58 N74 2.282 . S
Co58 N80 2.282 . S
N59 Co58 1.995 . S
N59 C60 1.376 1_655 S
N59 C63 1.383 . S
C60 N59 1.376 1_455 S
C60 C61 1.446 . S
C60 C90 1.391 . S
C61 C60 1.446 . S
C61 C62 1.339 . S
C61 H96 0.949 . S
C62 C61 1.339 . S
C62 C63 1.439 1_455 S
C62 H97 0.950 . S
C63 N59 1.383 . S
C63 C62 1.439 1_655 S
C63 C92 1.392 . S
N64 Co58 2.008 . S
N64 C65 1.376 . S
N64 C68 1.374 . S
C65 N64 1.376 . S
C65 C66 1.443 . S
C65 C92 1.389 . S
C66 C65 1.443 . S
C66 C67 1.340 . S
C66 H98 0.951 . S
C67 C66 1.340 . S
C67 C68 1.439 . S
C67 H99 0.950 . S
C68 N64 1.374 . S
C68 C67 1.439 . S
C68 C93 1.395 . S
N69 Co58 1.995 . S
N69 C70 1.376 . S
N69 C73 1.383 . S
C70 N69 1.376 . S
C70 C71 1.446 . S
C70 C93 1.391 . S
C71 C70 1.446 . S
C71 C72 1.339 . S
C71 H100 0.949 . S
C72 C71 1.339 . S
C72 C73 1.439 . S
C72 H101 0.950 . S
C73 N69 1.383 . S
C73 C72 1.439 . S
C73 C91 1.392 . S
N74 Co58 2.282 . S
N74 C77 1.332 . S
N74 C79 1.332 . S
C75 C76 1.386 . S
C75 C78 1.388 . S
C76 C75 1.386 . S
C76 C77 1.382 . S
C76 H102 0.950 . S
C77 N74 1.332 . S
C77 C76 1.382 . S
C77 H88 0.952 . S
C78 C75 1.388 . S
C78 C79 1.382 . S
C78 H103 0.942 1_655 S
C79 N74 1.332 . S
C79 C78 1.382 . S
C79 H89 0.944 1_655 S
N80 Co58 2.282 . S
N80 C84 1.332 . S
N80 C85 1.332 . S
C81 C82 1.388 . S
C81 C85 1.382 . S
C81 H104 0.950 . S
C82 C81 1.388 . S
C82 C83 1.386 . S
C83 C82 1.386 . S
C83 C84 1.382 . S
C83 H105 0.950 1_655 S
C84 N80 1.332 . S
C84 C83 1.382 . S
C84 H86 0.952 . S
C85 N80 1.332 . S
C85 C81 1.382 . S
C85 H87 0.948 . S
H86 C84 0.952 . S
H87 C85 0.948 . S
H88 C77 0.952 . S
H89 C79 0.944 1_455 S
C90 C56 1.395 . S
C90 C60 1.391 . S
C91 C53 1.389 . S
C91 C73 1.392 . S
C92 C63 1.392 . S
C92 C65 1.389 . S
C93 C68 1.395 . S
C93 C70 1.391 . S
H94 C54 0.951 . S
H95 C55 0.950 . S
H96 C61 0.949 . S
H97 C62 0.950 . S
H98 C66 0.951 . S
H99 C67 0.950 . S
H100 C71 0.949 . S
H101 C72 0.950 . S
H102 C76 0.950 . S
H103 C78 0.942 1_455 S
H104 C81 0.950 . S
H105 C83 0.950 1_455 S
C106 C107 1.443 . S
C106 N110 1.376 . S
C106 C144 1.389 . S
C107 C106 1.443 . S
C107 C108 1.340 . S
C107 H147 0.951 . S
C108 C107 1.340 . S
C108 C109 1.439 . S
C108 H148 0.950 . S
C109 C108 1.439 . S
C109 N110 1.374 . S
C109 C143 1.395 . S
N110 C106 1.376 . S
N110 C109 1.374 . S
N110 Co111 2.008 . S
Co111 N110 2.008 . S
Co111 N112 1.995 . S
Co111 N117 2.008 . S
Co111 N122 1.995 . S
Co111 N127 2.282 . S
Co111 N133 2.282 . S
N112 Co111 1.995 . S
N112 C113 1.376 . S
N112 C116 1.383 . S
C113 N112 1.376 . S
C113 C114 1.446 . S
C113 C143 1.391 . S
C114 C113 1.446 . S
C114 C115 1.339 . S
C114 H149 0.949 . S
C115 C114 1.339 . S
C115 C116 1.439 . S
C115 H150 0.950 . S
C116 N112 1.383 . S
C116 C115 1.439 . S
C116 C145 1.392 . S
N117 Co111 2.008 . S
N117 C118 1.376 . S
N117 C121 1.374 . S
C118 N117 1.376 . S
C118 C119 1.443 . S
C118 C145 1.389 . S
C119 C118 1.443 . S
C119 C120 1.340 . S
C119 H151 0.951 . S
C120 C119 1.340 . S
C120 C121 1.439 . S
C120 H152 0.950 . S
C121 N117 1.374 . S
C121 C120 1.439 . S
C121 C146 1.395 . S
N122 Co111 1.995 . S
N122 C123 1.376 . S
N122 C126 1.383 . S
C123 N122 1.376 . S
C123 C124 1.446 . S
C123 C146 1.391 . S
C124 C123 1.446 . S
C124 C125 1.339 . S
C124 H153 0.949 . S
C125 C124 1.339 . S
C125 C126 1.439 . S
C125 H154 0.950 . S
C126 N122 1.383 . S
C126 C125 1.439 . S
C126 C144 1.392 . S
N127 Co111 2.282 . S
N127 C130 1.332 . S
N127 C132 1.332 . S
C128 C129 1.386 . S
C128 C131 1.388 . S
C129 C128 1.386 . S
C129 C130 1.382 . S
C129 H155 0.950 . S
C130 N127 1.332 . S
C130 C129 1.382 . S
C130 H141 0.952 . S
C131 C128 1.388 . S
C131 C132 1.382 . S
C131 H156 0.950 . S
C132 N127 1.332 . S
C132 C131 1.382 . S
C132 H142 0.948 . S
N133 Co111 2.282 . S
N133 C137 1.332 . S
N133 C138 1.332 . S
C134 C135 1.388 . S
C134 C138 1.382 . S
C134 H157 0.950 . S
C135 C134 1.388 . S
C135 C136 1.386 . S
C136 C135 1.386 . S
C136 C137 1.382 . S
C136 H158 0.950 . S
C137 N133 1.332 . S
C137 C136 1.382 . S
C137 H139 0.952 . S
C138 N133 1.332 . S
C138 C134 1.382 . S
C138 H140 0.948 . S
H139 C137 0.952 . S
H140 C138 0.948 . S
H141 C130 0.952 . S
H142 C132 0.948 . S
C143 C109 1.395 . S
C143 C113 1.391 . S
C144 C106 1.389 . S
C144 C126 1.392 . S
C145 C116 1.392 . S
C145 C118 1.389 . S
C146 C121 1.395 . S
C146 C123 1.391 . S
H147 C107 0.951 . S
H148 C108 0.950 . S
H149 C114 0.949 . S
H150 C115 0.950 . S
H151 C119 0.951 . S
H152 C120 0.950 . S
H153 C124 0.949 . S
H154 C125 0.950 . S
H155 C129 0.950 . S
H156 C131 0.950 . S
H157 C134 0.950 . S
H158 C136 0.950 . S
C159 C160 1.443 . S
C159 N163 1.376 . S
C159 C197 1.389 . S
C160 C159 1.443 . S
C160 C161 1.340 . S
C160 H200 0.951 . S
C161 C160 1.340 . S
C161 C162 1.439 . S
C161 H201 0.950 . S
C162 C161 1.439 . S
C162 N163 1.374 . S
C162 C196 1.395 . S
N163 C159 1.376 . S
N163 C162 1.374 . S
N163 Co164 2.008 . S
Co164 N163 2.008 . S
Co164 N165 1.995 . S
Co164 N170 2.008 . S
Co164 N175 1.995 . S
Co164 N180 2.282 . S
Co164 N186 2.282 . S
N165 Co164 1.995 . S
N165 C166 1.376 . S
N165 C169 1.383 . S
C166 N165 1.376 . S
C166 C167 1.446 . S
C166 C196 1.391 . S
C167 C166 1.446 . S
C167 C168 1.339 . S
C167 H202 0.949 . S
C168 C167 1.339 . S
C168 C169 1.439 . S
C168 H203 0.950 . S
C169 N165 1.383 . S
C169 C168 1.439 . S
C169 C198 1.392 . S
N170 Co164 2.008 . S
N170 C171 1.376 . S
N170 C174 1.374 . S
C171 N170 1.376 . S
C171 C172 1.443 . S
C171 C198 1.389 . S
C172 C171 1.443 . S
C172 C173 1.340 . S
C172 H204 0.951 . S
C173 C172 1.340 . S
C173 C174 1.439 . S
C173 H205 0.950 . S
C174 N170 1.374 . S
C174 C173 1.439 . S
C174 C199 1.395 . S
N175 Co164 1.995 . S
N175 C176 1.376 . S
N175 C179 1.383 . S
C176 N175 1.376 . S
C176 C177 1.446 . S
C176 C199 1.391 . S
C177 C176 1.446 . S
C177 C178 1.339 . S
C177 H206 0.949 . S
C178 C177 1.339 . S
C178 C179 1.439 . S
C178 H207 0.950 . S
C179 N175 1.383 . S
C179 C178 1.439 . S
C179 C197 1.392 . S
N180 Co164 2.282 . S
N180 C183 1.332 . S
N180 C185 1.332 . S
C181 C182 1.386 . S
C181 C184 1.388 . S
C182 C181 1.386 . S
C182 C183 1.382 . S
C182 H208 0.950 . S
C183 N180 1.332 . S
C183 C182 1.382 . S
C183 H194 0.952 . S
C184 C181 1.388 . S
C184 C185 1.382 . S
C184 H209 0.950 . S
C185 N180 1.332 . S
C185 C184 1.382 . S
C185 H195 0.948 . S
N186 Co164 2.282 . S
N186 C190 1.332 . S
N186 C191 1.332 . S
C187 C188 1.388 . S
C187 C191 1.382 . S
C187 H210 0.950 . S
C188 C187 1.388 . S
C188 C189 1.386 . S
C189 C188 1.386 . S
C189 C190 1.382 . S
C189 H211 0.950 . S
C190 N186 1.332 . S
C190 C189 1.382 . S
C190 H192 0.952 . S
C191 N186 1.332 . S
C191 C187 1.382 . S
C191 H193 0.948 . S
H192 C190 0.952 . S
H193 C191 0.948 . S
H194 C183 0.952 . S
H195 C185 0.948 . S
C196 C162 1.395 . S
C196 C166 1.391 . S
C197 C159 1.389 . S
C197 C179 1.392 . S
C198 C169 1.392 . S
C198 C171 1.389 . S
C199 C174 1.395 . S
C199 C176 1.391 . S
H200 C160 0.951 . S
H201 C161 0.950 . S
H202 C167 0.949 . S
H203 C168 0.950 . S
H204 C172 0.951 . S
H205 C173 0.950 . S
H206 C177 0.949 . S
H207 C178 0.950 . S
H208 C182 0.950 . S
H209 C184 0.950 . S
H210 C187 0.950 . S
H211 C189 0.950 . S
C212 C213 1.443 . S
C212 N216 1.376 . S
C212 C250 1.389 . S
C213 C212 1.443 . S
C213 C214 1.340 . S
C213 H253 0.951 . S
C214 C213 1.340 . S
C214 C215 1.439 . S
C214 H254 0.950 . S
C215 C214 1.439 . S
C215 N216 1.374 . S
C215 C249 1.395 . S
N216 C212 1.376 . S
N216 C215 1.374 . S
N216 Co217 2.008 . S
Co217 N216 2.008 . S
Co217 N218 1.995 . S
Co217 N223 2.008 . S
Co217 N228 1.995 . S
Co217 N233 2.282 . S
Co217 N239 2.282 . S
N218 Co217 1.995 . S
N218 C219 1.376 . S
N218 C222 1.383 . S
C219 N218 1.376 . S
C219 C220 1.446 . S
C219 C249 1.391 . S
C220 C219 1.446 . S
C220 C221 1.339 . S
C220 H255 0.949 . S
C221 C220 1.339 . S
C221 C222 1.439 . S
C221 H256 0.950 . S
C222 N218 1.383 . S
C222 C221 1.439 . S
C222 C251 1.392 . S
N223 Co217 2.008 . S
N223 C224 1.376 . S
N223 C227 1.374 . S
C224 N223 1.376 . S
C224 C225 1.443 . S
C224 C251 1.389 . S
C225 C224 1.443 . S
C225 C226 1.340 . S
C225 H257 0.951 . S
C226 C225 1.340 . S
C226 C227 1.439 . S
C226 H258 0.950 . S
C227 N223 1.374 . S
C227 C226 1.439 . S
C227 C252 1.395 . S
N228 Co217 1.995 . S
N228 C229 1.376 . S
N228 C232 1.383 . S
C229 N228 1.376 . S
C229 C230 1.446 . S
C229 C252 1.391 . S
C230 C229 1.446 . S
C230 C231 1.339 . S
C230 H259 0.949 . S
C231 C230 1.339 . S
C231 C232 1.439 . S
C231 H260 0.950 . S
C232 N228 1.383 . S
C232 C231 1.439 . S
C232 C250 1.392 . S
N233 Co217 2.282 . S
N233 C236 1.332 . S
N233 C238 1.332 . S
C234 C235 1.386 . S
C234 C237 1.388 . S
C235 C234 1.386 . S
C235 C236 1.382 . S
C235 H261 0.950 . S
C236 N233 1.332 . S
C236 C235 1.382 . S
C236 H247 0.952 . S
C237 C234 1.388 . S
C237 C238 1.382 . S
C237 H262 0.950 . S
C238 N233 1.332 . S
C238 C237 1.382 . S
C238 H248 0.948 . S
N239 Co217 2.282 . S
N239 C243 1.332 . S
N239 C244 1.332 . S
C240 C241 1.388 . S
C240 C244 1.382 . S
C240 H263 0.950 . S
C241 C240 1.388 . S
C241 C242 1.386 . S
C242 C241 1.386 . S
C242 C243 1.382 . S
C242 H264 0.950 . S
C243 N239 1.332 . S
C243 C242 1.382 . S
C243 H245 0.952 . S
C244 N239 1.332 . S
C244 C240 1.382 . S
C244 H246 0.948 . S
H245 C243 0.952 . S
H246 C244 0.948 . S
H247 C236 0.952 . S
H248 C238 0.948 . S
C249 C215 1.395 . S
C249 C219 1.391 . S
C250 C212 1.389 . S
C250 C232 1.392 . S
C251 C222 1.392 . S
C251 C224 1.389 . S
C252 C227 1.395 . S
C252 C229 1.391 . S
H253 C213 0.951 . S
H254 C214 0.950 . S
H255 C220 0.949 . S
H256 C221 0.950 . S
H257 C225 0.951 . S
H258 C226 0.950 . S
H259 C230 0.949 . S
H260 C231 0.950 . S
H261 C235 0.950 . S
H262 C237 0.950 . S
H263 C240 0.950 . S
H264 C242 0.950 . S
C265 C266 1.443 . S
C265 N269 1.376 . S
C265 C303 1.389 . S
C266 C265 1.443 . S
C266 C267 1.340 . S
C266 H306 0.951 . S
C267 C266 1.340 . S
C267 C268 1.439 . S
C267 H307 0.950 . S
C268 C267 1.439 . S
C268 N269 1.374 . S
C268 C302 1.395 . S
N269 C265 1.376 . S
N269 C268 1.374 . S
N269 Co270 2.008 . S
Co270 N269 2.008 . S
Co270 N271 1.995 . S
Co270 N276 2.008 . S
Co270 N281 1.995 . S
Co270 N286 2.282 . S
Co270 N292 2.282 . S
N271 Co270 1.995 . S
N271 C272 1.376 . S
N271 C275 1.383 . S
C272 N271 1.376 . S
C272 C273 1.446 . S
C272 C302 1.391 . S
C273 C272 1.446 . S
C273 C274 1.339 . S
C273 H308 0.949 . S
C274 C273 1.339 . S
C274 C275 1.439 . S
C274 H309 0.950 . S
C275 N271 1.383 . S
C275 C274 1.439 . S
C275 C304 1.392 . S
N276 Co270 2.008 . S
N276 C277 1.376 . S
N276 C280 1.374 . S
C277 N276 1.376 . S
C277 C278 1.443 . S
C277 C304 1.389 . S
C278 C277 1.443 . S
C278 C279 1.340 . S
C278 H310 0.951 . S
C279 C278 1.340 . S
C279 C280 1.439 . S
C279 H311 0.950 . S
C280 N276 1.374 . S
C280 C279 1.439 . S
C280 C305 1.395 . S
N281 Co270 1.995 . S
N281 C282 1.376 . S
N281 C285 1.383 . S
C282 N281 1.376 . S
C282 C283 1.446 . S
C282 C305 1.391 . S
C283 C282 1.446 . S
C283 C284 1.339 . S
C283 H312 0.949 . S
C284 C283 1.339 . S
C284 C285 1.439 . S
C284 H313 0.950 . S
C285 N281 1.383 . S
C285 C284 1.439 . S
C285 C303 1.392 . S
N286 Co270 2.282 . S
N286 C289 1.332 . S
N286 C291 1.332 . S
C287 C288 1.386 . S
C287 C290 1.388 . S
C288 C287 1.386 . S
C288 C289 1.382 . S
C288 H314 0.950 . S
C289 N286 1.332 . S
C289 C288 1.382 . S
C289 H300 0.952 . S
C290 C287 1.388 . S
C290 C291 1.382 . S
C290 H315 0.950 . S
C291 N286 1.332 . S
C291 C290 1.382 . S
C291 H301 0.948 . S
N292 Co270 2.282 . S
N292 C296 1.332 . S
N292 C297 1.332 . S
C293 C294 1.388 . S
C293 C297 1.382 . S
C293 H316 0.950 . S
C294 C293 1.388 . S
C294 C295 1.386 . S
C295 C294 1.386 . S
C295 C296 1.382 . S
C295 H317 0.950 . S
C296 N292 1.332 . S
C296 C295 1.382 . S
C296 H298 0.952 . S
C297 N292 1.332 . S
C297 C293 1.382 . S
C297 H299 0.948 . S
H298 C296 0.952 . S
H299 C297 0.948 . S
H300 C289 0.952 . S
H301 C291 0.948 . S
C302 C268 1.395 . S
C302 C272 1.391 . S
C303 C265 1.389 . S
C303 C285 1.392 . S
C304 C275 1.392 . S
C304 C277 1.389 . S
C305 C280 1.395 . S
C305 C282 1.391 . S
H306 C266 0.951 . S
H307 C267 0.950 . S
H308 C273 0.949 . S
H309 C274 0.950 . S
H310 C278 0.951 . S
H311 C279 0.950 . S
H312 C283 0.949 . S
H313 C284 0.950 . S
H314 C288 0.950 . S
H315 C290 0.950 . S
H316 C293 0.950 . S
H317 C295 0.950 . S
C318 C319 1.443 . S
C318 N322 1.376 . S
C318 C356 1.389 . S
C319 C318 1.443 . S
C319 C320 1.340 . S
C319 H359 0.951 . S
C320 C319 1.340 . S
C320 C321 1.439 . S
C320 H360 0.950 . S
C321 C320 1.439 . S
C321 N322 1.374 . S
C321 C355 1.395 . S
N322 C318 1.376 . S
N322 C321 1.374 . S
N322 Co323 2.008 . S
Co323 N322 2.008 . S
Co323 N324 1.995 . S
Co323 N329 2.008 . S
Co323 N334 1.995 . S
Co323 N339 2.282 . S
Co323 N345 2.282 . S
N324 Co323 1.995 . S
N324 C325 1.376 . S
N324 C328 1.383 . S
C325 N324 1.376 . S
C325 C326 1.446 . S
C325 C355 1.391 . S
C326 C325 1.446 . S
C326 C327 1.339 . S
C326 H361 0.949 . S
C327 C326 1.339 . S
C327 C328 1.439 . S
C327 H362 0.950 . S
C328 N324 1.383 . S
C328 C327 1.439 . S
C328 C357 1.392 . S
N329 Co323 2.008 . S
N329 C330 1.376 . S
N329 C333 1.374 1_545 S
C330 N329 1.376 . S
C330 C331 1.443 . S
C330 C357 1.389 . S
C331 C330 1.443 . S
C331 C332 1.340 1_545 S
C331 H363 0.951 . S
C332 C331 1.340 1_565 S
C332 C333 1.439 . S
C332 H364 0.950 . S
C333 N329 1.374 1_565 S
C333 C332 1.439 . S
C333 C358 1.395 . S
N334 Co323 1.995 . S
N334 C335 1.376 1_545 S
N334 C338 1.383 . S
C335 N334 1.376 1_565 S
C335 C336 1.446 . S
C335 C358 1.391 . S
C336 C335 1.446 . S
C336 C337 1.339 1_565 S
C336 H365 0.949 . S
C337 C336 1.339 1_545 S
C337 C338 1.439 . S
C337 H366 0.946 1_545 S
C338 N334 1.383 . S
C338 C337 1.439 . S
C338 C356 1.392 . S
N339 Co323 2.282 . S
N339 C342 1.332 . S
N339 C344 1.332 . S
C340 C341 1.386 . S
C340 C343 1.388 . S
C341 C340 1.386 . S
C341 C342 1.382 . S
C341 H367 0.950 1_545 S
C342 N339 1.332 . S
C342 C341 1.382 . S
C342 H353 0.952 . S
C343 C340 1.388 . S
C343 C344 1.382 . S
C343 H368 0.950 . S
C344 N339 1.332 . S
C344 C343 1.382 . S
C344 H354 0.948 . S
N345 Co323 2.282 . S
N345 C349 1.332 . S
N345 C350 1.332 . S
C346 C347 1.388 . S
C346 C350 1.382 . S
C346 H369 0.950 . S
C347 C346 1.388 . S
C347 C348 1.386 . S
C348 C347 1.386 . S
C348 C349 1.382 . S
C348 H370 0.950 . S
C349 N345 1.332 . S
C349 C348 1.382 . S
C349 H351 0.952 . S
C350 N345 1.332 . S
C350 C346 1.382 . S
C350 H352 0.948 . S
H351 C349 0.952 . S
H352 C350 0.948 . S
H353 C342 0.952 . S
H354 C344 0.948 . S
C355 C321 1.395 . S
C355 C325 1.391 . S
C356 C318 1.389 . S
C356 C338 1.392 . S
C357 C328 1.392 . S
C357 C330 1.389 . S
C358 C333 1.395 . S
C358 C335 1.391 . S
H359 C319 0.951 . S
H360 C320 0.950 . S
H361 C326 0.949 . S
H362 C327 0.950 . S
H363 C331 0.951 . S
H364 C332 0.950 . S
H365 C336 0.949 . S
H366 C337 0.946 1_565 S
H367 C341 0.950 1_565 S
H368 C343 0.950 . S
H369 C346 0.950 . S
H370 C348 0.950 . S
C371 C372 1.443 . S
C371 N375 1.376 . S
C371 C409 1.389 . S
C372 C371 1.443 . S
C372 C373 1.340 1_655 S
C372 H412 0.951 . S
C373 C372 1.340 1_455 S
C373 C374 1.439 . S
C373 H413 0.950 . S
C374 C373 1.439 . S
C374 N375 1.374 1_455 S
C374 C408 1.395 . S
N375 C371 1.376 . S
N375 C374 1.374 1_655 S
N375 Co376 2.008 . S
Co376 N375 2.008 . S
Co376 N377 1.995 . S
Co376 N382 2.008 . S
Co376 N387 1.995 . S
Co376 N392 2.282 . S
Co376 N398 2.282 . S
N377 Co376 1.995 . S
N377 C378 1.376 1_655 S
N377 C381 1.383 . S
C378 N377 1.376 1_455 S
C378 C379 1.446 . S
C378 C408 1.391 . S
C379 C378 1.446 . S
C379 C380 1.339 . S
C379 H414 0.949 . S
C380 C379 1.339 . S
C380 C381 1.439 1_455 S
C380 H415 0.950 . S
C381 N377 1.383 . S
C381 C380 1.439 1_655 S
C381 C410 1.392 . S
N382 Co376 2.008 . S
N382 C383 1.376 . S
N382 C386 1.374 . S
C383 N382 1.376 . S
C383 C384 1.443 . S
C383 C410 1.389 . S
C384 C383 1.443 . S
C384 C385 1.340 . S
C384 H416 0.951 . S
C385 C384 1.340 . S
C385 C386 1.439 . S
C385 H417 0.950 . S
C386 N382 1.374 . S
C386 C385 1.439 . S
C386 C411 1.395 . S
N387 Co376 1.995 . S
N387 C388 1.376 . S
N387 C391 1.383 . S
C388 N387 1.376 . S
C388 C389 1.446 . S
C388 C411 1.391 . S
C389 C388 1.446 . S
C389 C390 1.339 . S
C389 H418 0.949 . S
C390 C389 1.339 . S
C390 C391 1.439 . S
C390 H419 0.950 . S
C391 N387 1.383 . S
C391 C390 1.439 . S
C391 C409 1.392 . S
N392 Co376 2.282 . S
N392 C395 1.332 . S
N392 C397 1.332 . S
C393 C394 1.386 . S
C393 C396 1.388 . S
C394 C393 1.386 . S
C394 C395 1.382 . S
C394 H420 0.950 . S
C395 N392 1.332 . S
C395 C394 1.382 . S
C395 H406 0.952 . S
C396 C393 1.388 . S
C396 C397 1.382 . S
C396 H421 0.940 1_655 S
C397 N392 1.332 . S
C397 C396 1.382 . S
C397 H407 0.942 1_655 S
N398 Co376 2.282 . S
N398 C402 1.332 . S
N398 C403 1.332 . S
C399 C400 1.388 . S
C399 C403 1.382 . S
C399 H422 0.950 . S
C400 C399 1.388 . S
C400 C401 1.386 . S
C401 C400 1.386 . S
C401 C402 1.382 . S
C401 H423 0.950 1_655 S
C402 N398 1.332 . S
C402 C401 1.382 . S
C402 H404 0.952 . S
C403 N398 1.332 . S
C403 C399 1.382 . S
C403 H405 0.948 . S
H404 C402 0.952 . S
H405 C403 0.948 . S
H406 C395 0.952 . S
H407 C397 0.942 1_455 S
C408 C374 1.395 . S
C408 C378 1.391 . S
C409 C371 1.389 . S
C409 C391 1.392 . S
C410 C381 1.392 . S
C410 C383 1.389 . S
C411 C386 1.395 . S
C411 C388 1.391 . S
H412 C372 0.951 . S
H413 C373 0.950 . S
H414 C379 0.949 . S
H415 C380 0.950 . S
H416 C384 0.951 . S
H417 C385 0.950 . S
H418 C389 0.949 . S
H419 C390 0.950 . S
H420 C394 0.950 . S
H421 C396 0.940 1_455 S
H422 C399 0.950 . S
H423 C401 0.950 1_455 S
C424 C425 1.443 . S
C424 N428 1.376 . S
C424 C462 1.389 . S
C425 C424 1.443 . S
C425 C426 1.340 . S
C425 H465 0.951 . S
C426 C425 1.340 . S
C426 C427 1.439 . S
C426 H466 0.950 . S
C427 C426 1.439 . S
C427 N428 1.374 . S
C427 C461 1.395 . S
N428 C424 1.376 . S
N428 C427 1.374 . S
N428 Co429 2.008 . S
Co429 N428 2.008 . S
Co429 N430 1.995 . S
Co429 N435 2.008 . S
Co429 N440 1.995 . S
Co429 N445 2.282 . S
Co429 N451 2.282 . S
N430 Co429 1.995 . S
N430 C431 1.376 . S
N430 C434 1.383 . S
C431 N430 1.376 . S
C431 C432 1.446 . S
C431 C461 1.391 . S
C432 C431 1.446 . S
C432 C433 1.339 . S
C432 H467 0.949 . S
C433 C432 1.339 . S
C433 C434 1.439 . S
C433 H468 0.950 . S
C434 N430 1.383 . S
C434 C433 1.439 . S
C434 C463 1.392 . S
N435 Co429 2.008 . S
N435 C436 1.376 . S
N435 C439 1.374 . S
C436 N435 1.376 . S
C436 C437 1.443 . S
C436 C463 1.389 . S
C437 C436 1.443 . S
C437 C438 1.340 . S
C437 H469 0.951 . S
C438 C437 1.340 . S
C438 C439 1.439 . S
C438 H470 0.950 . S
C439 N435 1.374 . S
C439 C438 1.439 . S
C439 C464 1.395 . S
N440 Co429 1.995 . S
N440 C441 1.376 . S
N440 C444 1.383 . S
C441 N440 1.376 . S
C441 C442 1.446 . S
C441 C464 1.391 . S
C442 C441 1.446 . S
C442 C443 1.339 . S
C442 H471 0.949 . S
C443 C442 1.339 . S
C443 C444 1.439 . S
C443 H472 0.950 . S
C444 N440 1.383 . S
C444 C443 1.439 . S
C444 C462 1.392 . S
N445 Co429 2.282 . S
N445 C448 1.332 . S
N445 C450 1.332 . S
C446 C447 1.386 . S
C446 C449 1.388 . S
C447 C446 1.386 . S
C447 C448 1.382 . S
C447 H473 0.950 . S
C448 N445 1.332 . S
C448 C447 1.382 . S
C448 H459 0.952 . S
C449 C446 1.388 . S
C449 C450 1.382 . S
C449 H474 0.950 . S
C450 N445 1.332 . S
C450 C449 1.382 . S
C450 H460 0.948 . S
N451 Co429 2.282 . S
N451 C455 1.332 . S
N451 C456 1.332 . S
C452 C453 1.388 . S
C452 C456 1.382 . S
C452 H475 0.950 . S
C453 C452 1.388 . S
C453 C454 1.386 . S
C454 C453 1.386 . S
C454 C455 1.382 . S
C454 H476 0.950 . S
C455 N451 1.332 . S
C455 C454 1.382 . S
C455 H457 0.952 . S
C456 N451 1.332 . S
C456 C452 1.382 . S
C456 H458 0.948 . S
H457 C455 0.952 . S
H458 C456 0.948 . S
H459 C448 0.952 . S
H460 C450 0.948 . S
C461 C427 1.395 . S
C461 C431 1.391 . S
C462 C424 1.389 . S
C462 C444 1.392 . S
C463 C434 1.392 . S
C463 C436 1.389 . S
C464 C439 1.395 . S
C464 C441 1.391 . S
H465 C425 0.951 . S
H466 C426 0.950 . S
H467 C432 0.949 . S
H468 C433 0.950 . S
H469 C437 0.951 . S
H470 C438 0.950 . S
H471 C442 0.949 . S
H472 C443 0.950 . S
H473 C447 0.950 . S
H474 C449 0.950 . S
H475 C452 0.950 . S
H476 C454 0.950 . S
C477 C478 1.443 . S
C477 N481 1.376 . S
C477 C515 1.389 . S
C478 C477 1.443 . S
C478 C479 1.340 . S
C478 H518 0.951 . S
C479 C478 1.340 . S
C479 C480 1.439 . S
C479 H519 0.950 . S
C480 C479 1.439 . S
C480 N481 1.374 . S
C480 C514 1.395 . S
N481 C477 1.376 . S
N481 C480 1.374 . S
N481 Co482 2.008 . S
Co482 N481 2.008 . S
Co482 N483 1.995 . S
Co482 N488 2.008 . S
Co482 N493 1.995 . S
Co482 N498 2.282 . S
Co482 N504 2.282 . S
N483 Co482 1.995 . S
N483 C484 1.376 . S
N483 C487 1.383 . S
C484 N483 1.376 . S
C484 C485 1.446 . S
C484 C514 1.391 . S
C485 C484 1.446 . S
C485 C486 1.339 . S
C485 H520 0.949 . S
C486 C485 1.339 . S
C486 C487 1.439 . S
C486 H521 0.950 . S
C487 N483 1.383 . S
C487 C486 1.439 . S
C487 C516 1.392 . S
N488 Co482 2.008 . S
N488 C489 1.376 . S
N488 C492 1.374 . S
C489 N488 1.376 . S
C489 C490 1.443 . S
C489 C516 1.389 . S
C490 C489 1.443 . S
C490 C491 1.340 . S
C490 H522 0.951 . S
C491 C490 1.340 . S
C491 C492 1.439 . S
C491 H523 0.950 . S
C492 N488 1.374 . S
C492 C491 1.439 . S
C492 C517 1.395 . S
N493 Co482 1.995 . S
N493 C494 1.376 . S
N493 C497 1.383 . S
C494 N493 1.376 . S
C494 C495 1.446 . S
C494 C517 1.391 . S
C495 C494 1.446 . S
C495 C496 1.339 . S
C495 H524 0.949 . S
C496 C495 1.339 . S
C496 C497 1.439 . S
C496 H525 0.950 . S
C497 N493 1.383 . S
C497 C496 1.439 . S
C497 C515 1.392 . S
N498 Co482 2.282 . S
N498 C501 1.332 . S
N498 C503 1.332 . S
C499 C500 1.386 . S
C499 C502 1.388 . S
C500 C499 1.386 . S
C500 C501 1.382 . S
C500 H526 0.950 . S
C501 N498 1.332 . S
C501 C500 1.382 . S
C501 H512 0.952 . S
C502 C499 1.388 . S
C502 C503 1.382 . S
C502 H527 0.950 . S
C503 N498 1.332 . S
C503 C502 1.382 . S
C503 H513 0.948 . S
N504 Co482 2.282 . S
N504 C508 1.332 . S
N504 C509 1.332 . S
C505 C506 1.388 . S
C505 C509 1.382 . S
C505 H528 0.950 . S
C506 C505 1.388 . S
C506 C507 1.386 . S
C507 C506 1.386 . S
C507 C508 1.382 . S
C507 H529 0.950 . S
C508 N504 1.332 . S
C508 C507 1.382 . S
C508 H510 0.952 . S
C509 N504 1.332 . S
C509 C505 1.382 . S
C509 H511 0.948 . S
H510 C508 0.952 . S
H511 C509 0.948 . S
H512 C501 0.952 . S
H513 C503 0.948 . S
C514 C480 1.395 . S
C514 C484 1.391 . S
C515 C477 1.389 . S
C515 C497 1.392 . S
C516 C487 1.392 . S
C516 C489 1.389 . S
C517 C492 1.395 . S
C517 C494 1.391 . S
H518 C478 0.951 . S
H519 C479 0.950 . S
H520 C485 0.949 . S
H521 C486 0.950 . S
H522 C490 0.951 . S
H523 C491 0.950 . S
H524 C495 0.949 . S
H525 C496 0.950 . S
H526 C500 0.950 . S
H527 C502 0.950 . S
H528 C505 0.950 . S
H529 C507 0.950 . S
C530 C531 1.443 . S
C530 N534 1.376 . S
C530 C568 1.389 . S
C531 C530 1.443 . S
C531 C532 1.340 . S
C531 H571 0.951 . S
C532 C531 1.340 . S
C532 C533 1.439 . S
C532 H572 0.950 . S
C533 C532 1.439 . S
C533 N534 1.374 . S
C533 C567 1.395 . S
N534 C530 1.376 . S
N534 C533 1.374 . S
N534 Co535 2.008 . S
Co535 N534 2.008 . S
Co535 N536 1.995 . S
Co535 N541 2.008 . S
Co535 N546 1.995 . S
Co535 N551 2.282 . S
Co535 N557 2.282 . S
N536 Co535 1.995 . S
N536 C537 1.376 . S
N536 C540 1.383 . S
C537 N536 1.376 . S
C537 C538 1.446 . S
C537 C567 1.391 . S
C538 C537 1.446 . S
C538 C539 1.339 . S
C538 H573 0.949 . S
C539 C538 1.339 . S
C539 C540 1.439 . S
C539 H574 0.950 . S
C540 N536 1.383 . S
C540 C539 1.439 . S
C540 C569 1.392 . S
N541 Co535 2.008 . S
N541 C542 1.376 . S
N541 C545 1.374 1_565 S
C542 N541 1.376 . S
C542 C543 1.443 . S
C542 C569 1.389 . S
C543 C542 1.443 . S
C543 C544 1.340 1_565 S
C543 H575 0.951 . S
C544 C543 1.340 1_545 S
C544 C545 1.439 . S
C544 H576 0.950 . S
C545 N541 1.374 1_545 S
C545 C544 1.439 . S
C545 C570 1.395 . S
N546 Co535 1.995 . S
N546 C547 1.376 1_565 S
N546 C550 1.383 . S
C547 N546 1.376 1_545 S
C547 C548 1.446 . S
C547 C570 1.391 . S
C548 C547 1.446 . S
C548 C549 1.339 1_545 S
C548 H577 0.949 . S
C549 C548 1.339 1_565 S
C549 C550 1.439 . S
C549 H578 0.946 1_565 S
C550 N546 1.383 . S
C550 C549 1.439 . S
C550 C568 1.392 . S
N551 Co535 2.282 . S
N551 C554 1.332 . S
N551 C556 1.332 . S
C552 C553 1.386 . S
C552 C555 1.388 . S
C553 C552 1.386 . S
C553 C554 1.382 . S
C553 H579 0.950 1_565 S
C554 N551 1.332 . S
C554 C553 1.382 . S
C554 H565 0.952 . S
C555 C552 1.388 . S
C555 C556 1.382 . S
C555 H580 0.950 . S
C556 N551 1.332 . S
C556 C555 1.382 . S
C556 H566 0.948 . S
N557 Co535 2.282 . S
N557 C561 1.332 . S
N557 C562 1.332 . S
C558 C559 1.388 . S
C558 C562 1.382 . S
C558 H581 0.950 . S
C559 C558 1.388 . S
C559 C560 1.386 . S
C560 C559 1.386 . S
C560 C561 1.382 . S
C560 H582 0.950 . S
C561 N557 1.332 . S
C561 C560 1.382 . S
C561 H563 0.952 . S
C562 N557 1.332 . S
C562 C558 1.382 . S
C562 H564 0.948 . S
H563 C561 0.952 . S
H564 C562 0.948 . S
H565 C554 0.952 . S
H566 C556 0.948 . S
C567 C533 1.395 . S
C567 C537 1.391 . S
C568 C530 1.389 . S
C568 C550 1.392 . S
C569 C540 1.392 . S
C569 C542 1.389 . S
C570 C545 1.395 . S
C570 C547 1.391 . S
H571 C531 0.951 . S
H572 C532 0.950 . S
H573 C538 0.949 . S
H574 C539 0.950 . S
H575 C543 0.951 . S
H576 C544 0.950 . S
H577 C548 0.949 . S
H578 C549 0.946 1_545 S
H579 C553 0.950 1_545 S
H580 C555 0.950 . S
H581 C558 0.950 . S
H582 C560 0.950 . S
C583 C584 1.443 . S
C583 N587 1.376 . S
C583 C621 1.389 . S
C584 C583 1.443 . S
C584 C585 1.340 1_455 S
C584 H624 0.951 . S
C585 C584 1.340 1_655 S
C585 C586 1.439 . S
C585 H625 0.950 . S
C586 C585 1.439 . S
C586 N587 1.374 1_655 S
C586 C620 1.395 . S
N587 C583 1.376 . S
N587 C586 1.374 1_455 S
N587 Co588 2.008 . S
Co588 N587 2.008 . S
Co588 N589 1.995 . S
Co588 N594 2.008 . S
Co588 N599 1.995 . S
Co588 N604 2.282 . S
Co588 N610 2.282 . S
N589 Co588 1.995 . S
N589 C590 1.376 1_455 S
N589 C593 1.383 . S
C590 N589 1.376 1_655 S
C590 C591 1.446 . S
C590 C620 1.391 . S
C591 C590 1.446 . S
C591 C592 1.339 . S
C591 H626 0.949 . S
C592 C591 1.339 . S
C592 C593 1.439 1_655 S
C592 H627 0.950 . S
C593 N589 1.383 . S
C593 C592 1.439 1_455 S
C593 C622 1.392 . S
N594 Co588 2.008 . S
N594 C595 1.376 . S
N594 C598 1.374 . S
C595 N594 1.376 . S
C595 C596 1.443 . S
C595 C622 1.389 . S
C596 C595 1.443 . S
C596 C597 1.340 . S
C596 H628 0.951 . S
C597 C596 1.340 . S
C597 C598 1.439 . S
C597 H629 0.950 . S
C598 N594 1.374 . S
C598 C597 1.439 . S
C598 C623 1.395 . S
N599 Co588 1.995 . S
N599 C600 1.376 . S
N599 C603 1.383 . S
C600 N599 1.376 . S
C600 C601 1.446 . S
C600 C623 1.391 . S
C601 C600 1.446 . S
C601 C602 1.339 . S
C601 H630 0.949 . S
C602 C601 1.339 . S
C602 C603 1.439 . S
C602 H631 0.950 . S
C603 N599 1.383 . S
C603 C602 1.439 . S
C603 C621 1.392 . S
N604 Co588 2.282 . S
N604 C607 1.332 . S
N604 C609 1.332 . S
C605 C606 1.386 . S
C605 C608 1.388 . S
C606 C605 1.386 . S
C606 C607 1.382 . S
C606 H632 0.950 . S
C607 N604 1.332 . S
C607 C606 1.382 . S
C607 H618 0.952 . S
C608 C605 1.388 . S
C608 C609 1.382 . S
C608 H633 0.947 1_455 S
C609 N604 1.332 . S
C609 C608 1.382 . S
C609 H619 0.949 1_455 S
N610 Co588 2.282 . S
N610 C614 1.332 . S
N610 C615 1.332 . S
C611 C612 1.388 . S
C611 C615 1.382 . S
C611 H634 0.950 . S
C612 C611 1.388 . S
C612 C613 1.386 . S
C613 C612 1.386 . S
C613 C614 1.382 . S
C613 H635 0.950 1_455 S
C614 N610 1.332 . S
C614 C613 1.382 . S
C614 H616 0.952 . S
C615 N610 1.332 . S
C615 C611 1.382 . S
C615 H617 0.948 . S
H616 C614 0.952 . S
H617 C615 0.948 . S
H618 C607 0.952 . S
H619 C609 0.949 1_655 S
C620 C586 1.395 . S
C620 C590 1.391 . S
C621 C583 1.389 . S
C621 C603 1.392 . S
C622 C593 1.392 . S
C622 C595 1.389 . S
C623 C598 1.395 . S
C623 C600 1.391 . S
H624 C584 0.951 . S
H625 C585 0.950 . S
H626 C591 0.949 . S
H627 C592 0.950 . S
H628 C596 0.951 . S
H629 C597 0.950 . S
H630 C601 0.949 . S
H631 C602 0.950 . S
H632 C606 0.950 . S
H633 C608 0.947 1_655 S
H634 C611 0.950 . S
H635 C613 0.950 1_655 S
C636 C637 1.443 . S
C636 N640 1.376 . S
C636 C674 1.389 . S
C637 C636 1.443 . S
C637 C638 1.340 . S
C637 H677 0.951 . S
C638 C637 1.340 . S
C638 C639 1.439 . S
C638 H678 0.950 . S
C639 C638 1.439 . S
C639 N640 1.374 . S
C639 C673 1.395 . S
N640 C636 1.376 . S
N640 C639 1.374 . S
N640 Co641 2.008 . S
Co641 N640 2.008 . S
Co641 N642 1.995 . S
Co641 N647 2.008 . S
Co641 N652 1.995 . S
Co641 N657 2.282 . S
Co641 N663 2.282 . S
N642 Co641 1.995 . S
N642 C643 1.376 . S
N642 C646 1.383 . S
C643 N642 1.376 . S
C643 C644 1.446 . S
C643 C673 1.391 . S
C644 C643 1.446 . S
C644 C645 1.339 . S
C644 H679 0.949 . S
C645 C644 1.339 . S
C645 C646 1.439 . S
C645 H680 0.950 . S
C646 N642 1.383 . S
C646 C645 1.439 . S
C646 C675 1.392 . S
N647 Co641 2.008 . S
N647 C648 1.376 . S
N647 C651 1.374 1_565 S
C648 N647 1.376 . S
C648 C649 1.443 . S
C648 C675 1.389 . S
C649 C648 1.443 . S
C649 C650 1.340 1_565 S
C649 H681 0.951 . S
C650 C649 1.340 1_545 S
C650 C651 1.439 . S
C650 H682 0.950 . S
C651 N647 1.374 1_545 S
C651 C650 1.439 . S
C651 C676 1.395 . S
N652 Co641 1.995 . S
N652 C653 1.376 1_565 S
N652 C656 1.383 . S
C653 N652 1.376 1_545 S
C653 C654 1.446 . S
C653 C676 1.391 . S
C654 C653 1.446 . S
C654 C655 1.339 1_545 S
C654 H683 0.949 . S
C655 C654 1.339 1_565 S
C655 C656 1.439 . S
C655 H684 0.946 1_565 S
C656 N652 1.383 . S
C656 C655 1.439 . S
C656 C674 1.392 . S
N657 Co641 2.282 . S
N657 C660 1.332 . S
N657 C662 1.332 . S
C658 C659 1.386 . S
C658 C661 1.388 . S
C659 C658 1.386 . S
C659 C660 1.382 . S
C659 H685 0.950 1_565 S
C660 N657 1.332 . S
C660 C659 1.382 . S
C660 H671 0.952 . S
C661 C658 1.388 . S
C661 C662 1.382 . S
C661 H686 0.950 . S
C662 N657 1.332 . S
C662 C661 1.382 . S
C662 H672 0.948 . S
N663 Co641 2.282 . S
N663 C667 1.332 . S
N663 C668 1.332 . S
C664 C665 1.388 . S
C664 C668 1.382 . S
C664 H687 0.950 . S
C665 C664 1.388 . S
C665 C666 1.386 . S
C666 C665 1.386 . S
C666 C667 1.382 . S
C666 H688 0.950 . S
C667 N663 1.332 . S
C667 C666 1.382 . S
C667 H669 0.952 . S
C668 N663 1.332 . S
C668 C664 1.382 . S
C668 H670 0.948 . S
H669 C667 0.952 . S
H670 C668 0.948 . S
H671 C660 0.952 . S
H672 C662 0.948 . S
C673 C639 1.395 . S
C673 C643 1.391 . S
C674 C636 1.389 . S
C674 C656 1.392 . S
C675 C646 1.392 . S
C675 C648 1.389 . S
C676 C651 1.395 . S
C676 C653 1.391 . S
H677 C637 0.951 . S
H678 C638 0.950 . S
H679 C644 0.949 . S
H680 C645 0.950 . S
H681 C649 0.951 . S
H682 C650 0.950 . S
H683 C654 0.949 . S
H684 C655 0.946 1_545 S
H685 C659 0.950 1_545 S
H686 C661 0.950 . S
H687 C664 0.950 . S
H688 C666 0.950 . S
C689 C690 1.443 . S
C689 N693 1.376 . S
C689 C727 1.389 . S
C690 C689 1.443 . S
C690 C691 1.340 1_455 S
C690 H730 0.951 . S
C691 C690 1.340 1_655 S
C691 C692 1.439 . S
C691 H731 0.950 . S
C692 C691 1.439 . S
C692 N693 1.374 1_655 S
C692 C726 1.395 . S
N693 C689 1.376 . S
N693 C692 1.374 1_455 S
N693 Co694 2.008 . S
Co694 N693 2.008 . S
Co694 N695 1.995 . S
Co694 N700 2.008 . S
Co694 N705 1.995 . S
Co694 N710 2.282 . S
Co694 N716 2.282 . S
N695 Co694 1.995 . S
N695 C696 1.376 1_455 S
N695 C699 1.383 . S
C696 N695 1.376 1_655 S
C696 C697 1.446 . S
C696 C726 1.391 . S
C697 C696 1.446 . S
C697 C698 1.339 . S
C697 H732 0.949 . S
C698 C697 1.339 . S
C698 C699 1.439 1_655 S
C698 H733 0.950 . S
C699 N695 1.383 . S
C699 C698 1.439 1_455 S
C699 C728 1.392 . S
N700 Co694 2.008 . S
N700 C701 1.376 . S
N700 C704 1.374 . S
C701 N700 1.376 . S
C701 C702 1.443 . S
C701 C728 1.389 . S
C702 C701 1.443 . S
C702 C703 1.340 . S
C702 H734 0.951 . S
C703 C702 1.340 . S
C703 C704 1.439 . S
C703 H735 0.950 . S
C704 N700 1.374 . S
C704 C703 1.439 . S
C704 C729 1.395 . S
N705 Co694 1.995 . S
N705 C706 1.376 . S
N705 C709 1.383 . S
C706 N705 1.376 . S
C706 C707 1.446 . S
C706 C729 1.391 . S
C707 C706 1.446 . S
C707 C708 1.339 . S
C707 H736 0.949 . S
C708 C707 1.339 . S
C708 C709 1.439 . S
C708 H737 0.950 . S
C709 N705 1.383 . S
C709 C708 1.439 . S
C709 C727 1.392 . S
N710 Co694 2.282 . S
N710 C713 1.332 . S
N710 C715 1.332 . S
C711 C712 1.386 . S
C711 C714 1.388 . S
C712 C711 1.386 . S
C712 C713 1.382 . S
C712 H738 0.950 . S
C713 N710 1.332 . S
C713 C712 1.382 . S
C713 H724 0.952 . S
C714 C711 1.388 . S
C714 C715 1.382 . S
C714 H739 0.947 1_455 S
C715 N710 1.332 . S
C715 C714 1.382 . S
C715 H725 0.949 1_455 S
N716 Co694 2.282 . S
N716 C720 1.332 . S
N716 C721 1.332 . S
C717 C718 1.388 . S
C717 C721 1.382 . S
C717 H740 0.950 . S
C718 C717 1.388 . S
C718 C719 1.386 . S
C719 C718 1.386 . S
C719 C720 1.382 . S
C719 H741 0.950 1_455 S
C720 N716 1.332 . S
C720 C719 1.382 . S
C720 H722 0.952 . S
C721 N716 1.332 . S
C721 C717 1.382 . S
C721 H723 0.948 . S
H722 C720 0.952 . S
H723 C721 0.948 . S
H724 C713 0.952 . S
H725 C715 0.949 1_655 S
C726 C692 1.395 . S
C726 C696 1.391 . S
C727 C689 1.389 . S
C727 C709 1.392 . S
C728 C699 1.392 . S
C728 C701 1.389 . S
C729 C704 1.395 . S
C729 C706 1.391 . S
H730 C690 0.951 . S
H731 C691 0.950 . S
H732 C697 0.949 . S
H733 C698 0.950 . S
H734 C702 0.951 . S
H735 C703 0.950 . S
H736 C707 0.949 . S
H737 C708 0.950 . S
H738 C712 0.950 . S
H739 C714 0.947 1_655 S
H740 C717 0.950 . S
H741 C719 0.950 1_655 S
C742 C743 1.443 . S
C742 N746 1.376 . S
C742 C780 1.389 . S
C743 C742 1.443 . S
C743 C744 1.340 . S
C743 H783 0.951 . S
C744 C743 1.340 . S
C744 C745 1.439 . S
C744 H784 0.950 . S
C745 C744 1.439 . S
C745 N746 1.374 . S
C745 C779 1.395 . S
N746 C742 1.376 . S
N746 C745 1.374 . S
N746 Co747 2.008 . S
Co747 N746 2.008 . S
Co747 N748 1.995 . S
Co747 N753 2.008 . S
Co747 N758 1.995 . S
Co747 N763 2.282 . S
Co747 N769 2.282 . S
N748 Co747 1.995 . S
N748 C749 1.376 . S
N748 C752 1.383 . S
C749 N748 1.376 . S
C749 C750 1.446 . S
C749 C779 1.391 . S
C750 C749 1.446 . S
C750 C751 1.339 . S
C750 H785 0.949 . S
C751 C750 1.339 . S
C751 C752 1.439 . S
C751 H786 0.950 . S
C752 N748 1.383 . S
C752 C751 1.439 . S
C752 C781 1.392 . S
N753 Co747 2.008 . S
N753 C754 1.376 . S
N753 C757 1.374 . S
C754 N753 1.376 . S
C754 C755 1.443 . S
C754 C781 1.389 . S
C755 C754 1.443 . S
C755 C756 1.340 . S
C755 H787 0.951 . S
C756 C755 1.340 . S
C756 C757 1.439 . S
C756 H788 0.950 . S
C757 N753 1.374 . S
C757 C756 1.439 . S
C757 C782 1.395 . S
N758 Co747 1.995 . S
N758 C759 1.376 . S
N758 C762 1.383 . S
C759 N758 1.376 . S
C759 C760 1.446 . S
C759 C782 1.391 . S
C760 C759 1.446 . S
C760 C761 1.339 . S
C760 H789 0.949 . S
C761 C760 1.339 . S
C761 C762 1.439 . S
C761 H790 0.950 . S
C762 N758 1.383 . S
C762 C761 1.439 . S
C762 C780 1.392 . S
N763 Co747 2.282 . S
N763 C766 1.332 . S
N763 C768 1.332 . S
C764 C765 1.386 . S
C764 C767 1.388 . S
C765 C764 1.386 . S
C765 C766 1.382 . S
C765 H791 0.950 . S
C766 N763 1.332 . S
C766 C765 1.382 . S
C766 H777 0.952 . S
C767 C764 1.388 . S
C767 C768 1.382 . S
C767 H792 0.950 . S
C768 N763 1.332 . S
C768 C767 1.382 . S
C768 H778 0.948 . S
N769 Co747 2.282 . S
N769 C773 1.332 . S
N769 C774 1.332 . S
C770 C771 1.388 . S
C770 C774 1.382 . S
C770 H793 0.950 . S
C771 C770 1.388 . S
C771 C772 1.386 . S
C772 C771 1.386 . S
C772 C773 1.382 . S
C772 H794 0.950 . S
C773 N769 1.332 . S
C773 C772 1.382 . S
C773 H775 0.952 . S
C774 N769 1.332 . S
C774 C770 1.382 . S
C774 H776 0.948 . S
H775 C773 0.952 . S
H776 C774 0.948 . S
H777 C766 0.952 . S
H778 C768 0.948 . S
C779 C745 1.395 . S
C779 C749 1.391 . S
C780 C742 1.389 . S
C780 C762 1.392 . S
C781 C752 1.392 . S
C781 C754 1.389 . S
C782 C757 1.395 . S
C782 C759 1.391 . S
H783 C743 0.951 . S
H784 C744 0.950 . S
H785 C750 0.949 . S
H786 C751 0.950 . S
H787 C755 0.951 . S
H788 C756 0.950 . S
H789 C760 0.949 . S
H790 C761 0.950 . S
H791 C765 0.950 . S
H792 C767 0.950 . S
H793 C770 0.950 . S
H794 C772 0.950 . S
C795 C796 1.443 . S
C795 N799 1.376 . S
C795 C833 1.389 . S
C796 C795 1.443 . S
C796 C797 1.340 . S
C796 H836 0.951 . S
C797 C796 1.340 . S
C797 C798 1.439 . S
C797 H837 0.950 . S
C798 C797 1.439 . S
C798 N799 1.374 . S
C798 C832 1.395 . S
N799 C795 1.376 . S
N799 C798 1.374 . S
N799 Co800 2.008 . S
Co800 N799 2.008 . S
Co800 N801 1.995 . S
Co800 N806 2.008 . S
Co800 N811 1.995 . S
Co800 N816 2.282 . S
Co800 N822 2.282 . S
N801 Co800 1.995 . S
N801 C802 1.376 . S
N801 C805 1.383 . S
C802 N801 1.376 . S
C802 C803 1.446 . S
C802 C832 1.391 . S
C803 C802 1.446 . S
C803 C804 1.339 . S
C803 H838 0.949 . S
C804 C803 1.339 . S
C804 C805 1.439 . S
C804 H839 0.950 . S
C805 N801 1.383 . S
C805 C804 1.439 . S
C805 C834 1.392 . S
N806 Co800 2.008 . S
N806 C807 1.376 . S
N806 C810 1.374 . S
C807 N806 1.376 . S
C807 C808 1.443 . S
C807 C834 1.389 . S
C808 C807 1.443 . S
C808 C809 1.340 . S
C808 H840 0.951 . S
C809 C808 1.340 . S
C809 C810 1.439 . S
C809 H841 0.950 . S
C810 N806 1.374 . S
C810 C809 1.439 . S
C810 C835 1.395 . S
N811 Co800 1.995 . S
N811 C812 1.376 . S
N811 C815 1.383 . S
C812 N811 1.376 . S
C812 C813 1.446 . S
C812 C835 1.391 . S
C813 C812 1.446 . S
C813 C814 1.339 . S
C813 H842 0.949 . S
C814 C813 1.339 . S
C814 C815 1.439 . S
C814 H843 0.950 . S
C815 N811 1.383 . S
C815 C814 1.439 . S
C815 C833 1.392 . S
N816 Co800 2.282 . S
N816 C819 1.332 . S
N816 C821 1.332 . S
C817 C818 1.386 . S
C817 C820 1.388 . S
C818 C817 1.386 . S
C818 C819 1.382 . S
C818 H844 0.950 . S
C819 N816 1.332 . S
C819 C818 1.382 . S
C819 H830 0.952 . S
C820 C817 1.388 . S
C820 C821 1.382 . S
C820 H845 0.950 . S
C821 N816 1.332 . S
C821 C820 1.382 . S
C821 H831 0.948 . S
N822 Co800 2.282 . S
N822 C826 1.332 . S
N822 C827 1.332 . S
C823 C824 1.388 . S
C823 C827 1.382 . S
C823 H846 0.950 . S
C824 C823 1.388 . S
C824 C825 1.386 . S
C825 C824 1.386 . S
C825 C826 1.382 . S
C825 H847 0.950 . S
C826 N822 1.332 . S
C826 C825 1.382 . S
C826 H828 0.952 . S
C827 N822 1.332 . S
C827 C823 1.382 . S
C827 H829 0.948 . S
H828 C826 0.952 . S
H829 C827 0.948 . S
H830 C819 0.952 . S
H831 C821 0.948 . S
C832 C798 1.395 . S
C832 C802 1.391 . S
C833 C795 1.389 . S
C833 C815 1.392 . S
C834 C805 1.392 . S
C834 C807 1.389 . S
C835 C810 1.395 . S
C835 C812 1.391 . S
H836 C796 0.951 . S
H837 C797 0.950 . S
H838 C803 0.949 . S
H839 C804 0.950 . S
H840 C808 0.951 . S
H841 C809 0.950 . S
H842 C813 0.949 . S
H843 C814 0.950 . S
H844 C818 0.950 . S
H845 C820 0.950 . S
H846 C823 0.950 . S
H847 C825 0.950 . S
H848 C856 0.929 . S
H849 C858 0.930 1_545 S
H850 C860 0.930 . S
H851 C863 0.929 . S
H852 C866 0.930 . S
H853 C868 0.960 . S
H854 C868 0.960 . S
H855 C868 0.960 1_565 S
C856 H848 0.929 . S
C856 C857 1.377 . S
C856 C858 1.384 . S
C857 C856 1.377 . S
C857 C863 1.390 . S
C858 H849 0.930 1_565 S
C858 C856 1.384 . S
C858 C859 1.372 . S
C859 C858 1.372 . S
C859 C860 1.400 . S
C859 C864 1.490 . S
C860 H850 0.930 . S
C860 C859 1.400 . S
C860 C863 1.386 . S
H861 C877 0.930 . S
H862 C878 0.931 1_565 S
C863 H851 0.929 . S
C863 C857 1.390 . S
C863 C860 1.386 . S
C864 C859 1.490 . S
C864 C866 1.395 . S
C864 C867 1.403 1_565 S
H865 C871 0.930 . S
C866 H852 0.930 . S
C866 C864 1.395 . S
C866 C869 1.403 1_655 S
C867 C864 1.403 1_545 S
C867 C868 1.524 . S
C867 C871 1.400 1_655 S
C868 H853 0.960 . S
C868 H854 0.960 . S
C868 H855 0.960 1_545 S
C868 C867 1.524 . S
C869 C866 1.403 1_455 S
C869 C870 1.392 1_565 S
C869 C873 1.495 . S
C870 C869 1.392 1_545 S
C870 C871 1.385 . S
C870 C872 1.478 . S
C871 H865 0.930 . S
C871 C867 1.400 1_455 S
C871 C870 1.385 . S
C872 C870 1.478 . S
C872 C874 1.381 . S
C872 C878 1.383 . S
C873 C869 1.495 . S
C873 H879 0.959 . S
C873 H880 0.961 . S
C873 H881 0.960 1_565 S
C874 C872 1.381 . S
C874 C875 1.394 . S
C874 H882 0.930 . S
C875 C874 1.394 . S
C875 C876 1.383 . S
C875 H883 0.929 . S
C876 C875 1.383 . S
C876 C877 1.377 . S
C877 H861 0.930 . S
C877 C876 1.377 . S
C877 C878 1.379 . S
C878 H862 0.931 1_545 S
C878 C872 1.383 . S
C878 C877 1.379 . S
H879 C873 0.959 . S
H880 C873 0.961 . S
H881 C873 0.960 1_545 S
H882 C874 0.930 . S
H883 C875 0.929 . S
H884 C892 0.929 . S
H885 C894 0.930 . S
H886 C896 0.930 1_455 S
H887 C899 0.929 . S
H888 C902 0.930 . S
H889 C904 0.960 . S
H890 C904 0.960 . S
H891 C904 0.960 . S
C892 H884 0.929 . S
C892 C893 1.377 . S
C892 C894 1.384 . S
C893 C892 1.377 . S
C893 C899 1.390 . S
C894 H885 0.930 . S
C894 C892 1.384 . S
C894 C895 1.372 . S
C895 C894 1.372 . S
C895 C896 1.400 . S
C895 C900 1.490 . S
C896 H886 0.930 1_655 S
C896 C895 1.400 . S
C896 C899 1.386 . S
H897 C913 0.930 . S
H898 C914 0.931 . S
C899 H887 0.929 . S
C899 C893 1.390 . S
C899 C896 1.386 . S
C900 C895 1.490 . S
C900 C902 1.395 1_655 S
C900 C903 1.403 . S
H901 C907 0.930 . S
C902 H888 0.930 . S
C902 C900 1.395 1_455 S
C902 C905 1.403 . S
C903 C900 1.403 . S
C903 C904 1.524 . S
C903 C907 1.400 . S
C904 H889 0.960 . S
C904 H890 0.960 . S
C904 H891 0.960 . S
C904 C903 1.524 . S
C905 C902 1.403 . S
C905 C906 1.392 . S
C905 C909 1.495 . S
C906 C905 1.392 . S
C906 C907 1.385 1_455 S
C906 C908 1.478 . S
C907 H901 0.930 . S
C907 C903 1.400 . S
C907 C906 1.385 1_655 S
C908 C906 1.478 . S
C908 C910 1.381 . S
C908 C914 1.383 . S
C909 C905 1.495 . S
C909 H915 0.959 . S
C909 H916 0.961 . S
C909 H917 0.960 . S
C910 C908 1.381 . S
C910 C911 1.394 . S
C910 H918 0.930 1_455 S
C911 C910 1.394 . S
C911 C912 1.383 . S
C911 H919 0.929 . S
C912 C911 1.383 . S
C912 C913 1.377 . S
C913 H897 0.930 . S
C913 C912 1.377 . S
C913 C914 1.379 . S
C914 H898 0.931 . S
C914 C908 1.383 . S
C914 C913 1.379 . S
H915 C909 0.959 . S
H916 C909 0.961 . S
H917 C909 0.960 . S
H918 C910 0.930 1_655 S
H919 C911 0.929 . S
H920 C928 0.929 . S
H921 C930 0.930 . S
H922 C932 0.930 . S
H923 C935 0.929 . S
H924 C938 0.930 . S
H925 C940 0.960 . S
H926 C940 0.960 . S
H927 C940 0.960 . S
C928 H920 0.929 . S
C928 C929 1.377 . S
C928 C930 1.384 . S
C929 C928 1.377 . S
C929 C935 1.390 . S
C930 H921 0.930 . S
C930 C928 1.384 . S
C930 C931 1.372 . S
C931 C930 1.372 . S
C931 C932 1.400 . S
C931 C936 1.490 . S
C932 H922 0.930 . S
C932 C931 1.400 . S
C932 C935 1.386 . S
H933 C949 0.930 . S
H934 C950 0.931 . S
C935 H923 0.929 . S
C935 C929 1.390 . S
C935 C932 1.386 . S
C936 C931 1.490 . S
C936 C938 1.395 . S
C936 C939 1.403 . S
H937 C943 0.930 . S
C938 H924 0.930 . S
C938 C936 1.395 . S
C938 C941 1.403 . S
C939 C936 1.403 . S
C939 C940 1.524 . S
C939 C943 1.400 . S
C940 H925 0.960 . S
C940 H926 0.960 . S
C940 H927 0.960 . S
C940 C939 1.524 . S
C941 C938 1.403 . S
C941 C942 1.392 . S
C941 C945 1.495 . S
C942 C941 1.392 . S
C942 C943 1.385 . S
C942 C944 1.478 . S
C943 H937 0.930 . S
C943 C939 1.400 . S
C943 C942 1.385 . S
C944 C942 1.478 . S
C944 C946 1.381 . S
C944 C950 1.383 . S
C945 C941 1.495 . S
C945 H951 0.959 . S
C945 H952 0.961 . S
C945 H953 0.960 . S
C946 C944 1.381 . S
C946 C947 1.394 . S
C946 H954 0.930 . S
C947 C946 1.394 . S
C947 C948 1.383 . S
C947 H955 0.929 . S
C948 C947 1.383 . S
C948 C949 1.377 . S
C949 H933 0.930 . S
C949 C948 1.377 . S
C949 C950 1.379 . S
C950 H934 0.931 . S
C950 C944 1.383 . S
C950 C949 1.379 . S
H951 C945 0.959 . S
H952 C945 0.961 . S
H953 C945 0.960 . S
H954 C946 0.930 . S
H955 C947 0.929 . S
H956 C964 0.929 . S
H957 C966 0.930 . S
H958 C968 0.930 . S
H959 C971 0.929 . S
H960 C974 0.930 . S
H961 C976 0.960 . S
H962 C976 0.960 . S
H963 C976 0.960 . S
C964 H956 0.929 . S
C964 C965 1.377 . S
C964 C966 1.384 . S
C965 C964 1.377 . S
C965 C971 1.390 . S
C966 H957 0.930 . S
C966 C964 1.384 . S
C966 C967 1.372 . S
C967 C966 1.372 . S
C967 C968 1.400 . S
C967 C972 1.490 . S
C968 H958 0.930 . S
C968 C967 1.400 . S
C968 C971 1.386 . S
H969 C985 0.930 . S
H970 C986 0.931 . S
C971 H959 0.929 . S
C971 C965 1.390 . S
C971 C968 1.386 . S
C972 C967 1.490 . S
C972 C974 1.395 . S
C972 C975 1.403 . S
H973 C979 0.930 . S
C974 H960 0.930 . S
C974 C972 1.395 . S
C974 C977 1.403 1_545 S
C975 C972 1.403 . S
C975 C976 1.524 . S
C975 C979 1.400 1_545 S
C976 H961 0.960 . S
C976 H962 0.960 . S
C976 H963 0.960 . S
C976 C975 1.524 . S
C977 C974 1.403 1_565 S
C977 C978 1.392 . S
C977 C981 1.495 . S
C978 C977 1.392 . S
C978 C979 1.385 . S
C978 C980 1.478 . S
C979 H973 0.930 . S
C979 C975 1.400 1_565 S
C979 C978 1.385 . S
C980 C978 1.478 . S
C980 C982 1.381 . S
C980 C986 1.383 . S
C981 C977 1.495 . S
C981 H987 0.959 . S
C981 H988 0.961 . S
C981 H989 0.960 . S
C982 C980 1.381 . S
C982 C983 1.394 . S
C982 H990 0.930 . S
C983 C982 1.394 . S
C983 C984 1.383 . S
C983 H991 0.929 . S
C984 C983 1.383 . S
C984 C985 1.377 . S
C985 H969 0.930 . S
C985 C984 1.377 . S
C985 C986 1.379 . S
C986 H970 0.931 . S
C986 C980 1.383 . S
C986 C985 1.379 . S
H987 C981 0.959 . S
H988 C981 0.961 . S
H989 C981 0.960 . S
H990 C982 0.930 . S
H991 C983 0.929 . S
H992 C1000 0.929 . S
H993 C1002 0.930 . S
H994 C1004 0.930 . S
H995 C1007 0.929 . S
H996 C1010 0.930 . S
H997 C1012 0.960 1_655 S
H998 C1012 0.960 . S
H999 C1012 0.960 . S
C1000 H992 0.929 . S
C1000 C1001 1.377 . S
C1000 C1002 1.384 . S
C1001 C1000 1.377 . S
C1001 C1007 1.390 . S
C1002 H993 0.930 . S
C1002 C1000 1.384 . S
C1002 C1003 1.372 . S
C1003 C1002 1.372 . S
C1003 C1004 1.400 . S
C1003 C1008 1.490 . S
C1004 H994 0.930 . S
C1004 C1003 1.400 . S
C1004 C1007 1.386 . S
H1005 C1021 0.930 . S
H1006 C1022 0.931 . S
C1007 H995 0.929 . S
C1007 C1001 1.390 . S
C1007 C1004 1.386 . S
C1008 C1003 1.490 . S
C1008 C1010 1.395 . S
C1008 C1011 1.403 . S
H1009 C1015 0.930 . S
C1010 H996 0.930 . S
C1010 C1008 1.395 . S
C1010 C1013 1.403 1_455 S
C1011 C1008 1.403 . S
C1011 C1012 1.524 . S
C1011 C1015 1.400 1_455 S
C1012 H997 0.960 1_455 S
C1012 H998 0.960 . S
C1012 H999 0.960 . S
C1012 C1011 1.524 . S
C1013 C1010 1.403 1_655 S
C1013 C1014 1.392 . S
C1013 C1017 1.495 . S
C1014 C1013 1.392 . S
C1014 C1015 1.385 . S
C1014 C1016 1.478 . S
C1015 H1009 0.930 . S
C1015 C1011 1.400 1_655 S
C1015 C1014 1.385 . S
C1016 C1014 1.478 . S
C1016 C1018 1.381 . S
C1016 C1022 1.383 . S
C1017 C1013 1.495 . S
C1017 H1023 0.959 1_655 S
C1017 H1024 0.961 . S
C1017 H1025 0.960 . S
C1018 C1016 1.381 . S
C1018 C1019 1.394 . S
C1018 H1026 0.930 . S
C1019 C1018 1.394 . S
C1019 C1020 1.383 . S
C1019 H1027 0.929 . S
C1020 C1019 1.383 . S
C1020 C1021 1.377 . S
C1021 H1005 0.930 . S
C1021 C1020 1.377 . S
C1021 C1022 1.379 . S
C1022 H1006 0.931 . S
C1022 C1016 1.383 . S
C1022 C1021 1.379 . S
H1023 C1017 0.959 1_455 S
H1024 C1017 0.961 . S
H1025 C1017 0.960 . S
H1026 C1018 0.930 . S
H1027 C1019 0.929 . S
H1028 C1036 0.929 . S
H1029 C1038 0.930 . S
H1030 C1040 0.930 . S
H1031 C1043 0.929 . S
H1032 C1046 0.930 . S
H1033 C1048 0.960 . S
H1034 C1048 0.960 . S
H1035 C1048 0.960 . S
C1036 H1028 0.929 . S
C1036 C1037 1.377 . S
C1036 C1038 1.384 . S
C1037 C1036 1.377 . S
C1037 C1043 1.390 . S
C1038 H1029 0.930 . S
C1038 C1036 1.384 . S
C1038 C1039 1.372 . S
C1039 C1038 1.372 . S
C1039 C1040 1.400 . S
C1039 C1044 1.490 . S
C1040 H1030 0.930 . S
C1040 C1039 1.400 . S
C1040 C1043 1.386 . S
H1041 C1057 0.930 . S
H1042 C1058 0.931 . S
C1043 H1031 0.929 . S
C1043 C1037 1.390 . S
C1043 C1040 1.386 . S
C1044 C1039 1.490 . S
C1044 C1046 1.395 . S
C1044 C1047 1.403 . S
H1045 C1051 0.930 . S
C1046 H1032 0.930 . S
C1046 C1044 1.395 . S
C1046 C1049 1.403 . S
C1047 C1044 1.403 . S
C1047 C1048 1.524 . S
C1047 C1051 1.400 . S
C1048 H1033 0.960 . S
C1048 H1034 0.960 . S
C1048 H1035 0.960 . S
C1048 C1047 1.524 . S
C1049 C1046 1.403 . S
C1049 C1050 1.392 . S
C1049 C1053 1.495 . S
C1050 C1049 1.392 . S
C1050 C1051 1.385 . S
C1050 C1052 1.478 . S
C1051 H1045 0.930 . S
C1051 C1047 1.400 . S
C1051 C1050 1.385 . S
C1052 C1050 1.478 . S
C1052 C1054 1.381 . S
C1052 C1058 1.383 . S
C1053 C1049 1.495 . S
C1053 H1059 0.959 . S
C1053 H1060 0.961 . S
C1053 H1061 0.960 . S
C1054 C1052 1.381 . S
C1054 C1055 1.394 . S
C1054 H1062 0.930 . S
C1055 C1054 1.394 . S
C1055 C1056 1.383 . S
C1055 H1063 0.929 . S
C1056 C1055 1.383 . S
C1056 C1057 1.377 . S
C1057 H1041 0.930 . S
C1057 C1056 1.377 . S
C1057 C1058 1.379 . S
C1058 H1042 0.931 . S
C1058 C1052 1.383 . S
C1058 C1057 1.379 . S
H1059 C1053 0.959 . S
H1060 C1053 0.961 . S
H1061 C1053 0.960 . S
H1062 C1054 0.930 . S
H1063 C1055 0.929 . S
H1064 C1072 0.929 . S
H1065 C1074 0.930 . S
H1066 C1076 0.930 . S
H1067 C1079 0.929 . S
H1068 C1082 0.930 . S
H1069 C1084 0.960 . S
H1070 C1084 0.960 . S
H1071 C1084 0.960 . S
C1072 H1064 0.929 . S
C1072 C1073 1.377 . S
C1072 C1074 1.384 . S
C1073 C1072 1.377 . S
C1073 C1079 1.390 . S
C1074 H1065 0.930 . S
C1074 C1072 1.384 . S
C1074 C1075 1.372 . S
C1075 C1074 1.372 . S
C1075 C1076 1.400 . S
C1075 C1080 1.490 . S
C1076 H1066 0.930 . S
C1076 C1075 1.400 . S
C1076 C1079 1.386 . S
H1077 C1093 0.930 . S
H1078 C1094 0.914 1_545 S
C1079 H1067 0.929 . S
C1079 C1073 1.390 . S
C1079 C1076 1.386 . S
C1080 C1075 1.490 . S
C1080 C1082 1.395 . S
C1080 C1083 1.403 1_545 S
H1081 C1087 0.930 . S
C1082 H1068 0.930 . S
C1082 C1080 1.395 . S
C1082 C1085 1.403 . S
C1083 C1080 1.403 1_565 S
C1083 C1084 1.524 . S
C1083 C1087 1.400 . S
C1084 H1069 0.960 . S
C1084 H1070 0.960 . S
C1084 H1071 0.960 . S
C1084 C1083 1.524 . S
C1085 C1082 1.403 . S
C1085 C1086 1.392 1_545 S
C1085 C1089 1.495 . S
C1086 C1085 1.392 1_565 S
C1086 C1087 1.385 . S
C1086 C1088 1.478 . S
C1087 H1081 0.930 . S
C1087 C1083 1.400 . S
C1087 C1086 1.385 . S
C1088 C1086 1.478 . S
C1088 C1090 1.381 . S
C1088 C1094 1.383 . S
C1089 C1085 1.495 . S
C1089 H1095 0.959 . S
C1089 H1096 0.961 . S
C1089 H1097 0.960 . S
C1090 C1088 1.381 . S
C1090 C1091 1.394 . S
C1090 H1098 0.930 . S
C1091 C1090 1.394 . S
C1091 C1092 1.383 . S
C1091 H1099 0.929 . S
C1092 C1091 1.383 . S
C1092 C1093 1.377 . S
C1093 H1077 0.930 . S
C1093 C1092 1.377 . S
C1093 C1094 1.379 . S
C1094 H1078 0.914 1_565 S
C1094 C1088 1.383 . S
C1094 C1093 1.379 . S
H1095 C1089 0.959 . S
H1096 C1089 0.961 . S
H1097 C1089 0.960 . S
H1098 C1090 0.930 . S
H1099 C1091 0.929 . S
H1100 C1108 0.929 1_655 S
H1101 C1110 0.930 . S
H1102 C1112 0.930 . S
H1103 C1115 0.929 . S
H1104 C1118 0.930 . S
H1105 C1120 0.960 . S
H1106 C1120 0.960 1_655 S
H1107 C1120 0.960 . S
C1108 H1100 0.929 1_455 S
C1108 C1109 1.377 . S
C1108 C1110 1.384 1_455 S
C1109 C1108 1.377 . S
C1109 C1115 1.390 . S
C1110 H1101 0.930 . S
C1110 C1108 1.384 1_655 S
C1110 C1111 1.372 1_655 S
C1111 C1110 1.372 1_455 S
C1111 C1112 1.400 . S
C1111 C1116 1.490 . S
C1112 H1102 0.930 . S
C1112 C1111 1.400 . S
C1112 C1115 1.386 . S
H1113 C1129 0.930 1_455 S
H1114 C1130 0.931 . S
C1115 H1103 0.929 . S
C1115 C1109 1.390 . S
C1115 C1112 1.386 . S
C1116 C1111 1.490 . S
C1116 C1118 1.395 . S
C1116 C1119 1.403 . S
H1117 C1123 0.930 . S
C1118 H1104 0.930 . S
C1118 C1116 1.395 . S
C1118 C1121 1.403 1_445 S
C1119 C1116 1.403 . S
C1119 C1120 1.524 . S
C1119 C1123 1.400 1_445 S
C1120 H1105 0.960 . S
C1120 H1106 0.960 1_455 S
C1120 H1107 0.960 . S
C1120 C1119 1.524 . S
C1121 C1118 1.403 1_665 S
C1121 C1122 1.392 . S
C1121 C1125 1.495 . S
C1122 C1121 1.392 . S
C1122 C1123 1.385 . S
C1122 C1124 1.478 . S
C1123 H1117 0.930 . S
C1123 C1119 1.400 1_665 S
C1123 C1122 1.385 . S
C1124 C1122 1.478 . S
C1124 C1126 1.381 . S
C1124 C1130 1.383 1_655 S
C1125 C1121 1.495 . S
C1125 H1131 0.959 . S
C1125 H1132 0.940 1_655 S
C1125 H1133 0.960 . S
C1126 C1124 1.381 . S
C1126 C1127 1.394 . S
C1126 H1134 0.930 . S
C1127 C1126 1.394 . S
C1127 C1128 1.383 . S
C1127 H1135 0.929 . S
C1128 C1127 1.383 . S
C1128 C1129 1.377 . S
C1129 H1113 0.930 1_655 S
C1129 C1128 1.377 . S
C1129 C1130 1.379 1_655 S
C1130 H1114 0.931 . S
C1130 C1124 1.383 1_455 S
C1130 C1129 1.379 1_455 S
H1131 C1125 0.959 . S
H1132 C1125 0.940 1_455 S
H1133 C1125 0.960 . S
H1134 C1126 0.930 . S
H1135 C1127 0.929 . S
H1136 C1144 0.929 . S
H1137 C1146 0.930 . S
H1138 C1148 0.930 1_545 S
H1139 C1151 0.929 . S
H1140 C1154 0.930 . S
H1141 C1156 0.960 . S
H1142 C1156 0.960 . S
H1143 C1156 0.960 . S
C1144 H1136 0.929 . S
C1144 C1145 1.377 . S
C1144 C1146 1.384 . S
C1145 C1144 1.377 . S
C1145 C1151 1.390 . S
C1146 H1137 0.930 . S
C1146 C1144 1.384 . S
C1146 C1147 1.372 . S
C1147 C1146 1.372 . S
C1147 C1148 1.400 . S
C1147 C1152 1.490 . S
C1148 H1138 0.930 1_565 S
C1148 C1147 1.400 . S
C1148 C1151 1.386 . S
H1149 C1165 0.930 . S
H1150 C1166 0.931 . S
C1151 H1139 0.929 . S
C1151 C1145 1.390 . S
C1151 C1148 1.386 . S
C1152 C1147 1.490 . S
C1152 C1154 1.395 . S
C1152 C1155 1.403 1_565 S
H1153 C1159 0.930 . S
C1154 H1140 0.930 . S
C1154 C1152 1.395 . S
C1154 C1157 1.403 . S
C1155 C1152 1.403 1_545 S
C1155 C1156 1.524 . S
C1155 C1159 1.400 . S
C1156 H1141 0.960 . S
C1156 H1142 0.960 . S
C1156 H1143 0.960 . S
C1156 C1155 1.524 . S
C1157 C1154 1.403 . S
C1157 C1158 1.392 1_565 S
C1157 C1161 1.495 . S
C1158 C1157 1.392 1_545 S
C1158 C1159 1.385 . S
C1158 C1160 1.478 . S
C1159 H1153 0.930 . S
C1159 C1155 1.400 . S
C1159 C1158 1.385 . S
C1160 C1158 1.478 . S
C1160 C1162 1.381 . S
C1160 C1166 1.383 . S
C1161 C1157 1.495 . S
C1161 H1167 0.959 . S
C1161 H1168 0.961 . S
C1161 H1169 0.960 . S
C1162 C1160 1.381 . S
C1162 C1163 1.394 . S
C1162 H1170 0.930 1_545 S
C1163 C1162 1.394 . S
C1163 C1164 1.383 . S
C1163 H1171 0.929 . S
C1164 C1163 1.383 . S
C1164 C1165 1.377 . S
C1165 H1149 0.930 . S
C1165 C1164 1.377 . S
C1165 C1166 1.379 . S
C1166 H1150 0.931 . S
C1166 C1160 1.383 . S
C1166 C1165 1.379 . S
H1167 C1161 0.959 . S
H1168 C1161 0.961 . S
H1169 C1161 0.960 . S
H1170 C1162 0.930 1_565 S
H1171 C1163 0.929 . S
H1172 C1180 0.929 . S
H1173 C1182 0.930 1_455 S
H1174 C1184 0.930 . S
H1175 C1187 0.929 . S
H1176 C1190 0.930 . S
H1177 C1192 0.960 . S
H1178 C1192 0.960 . S
H1179 C1192 0.960 1_655 S
C1180 H1172 0.929 . S
C1180 C1181 1.377 . S
C1180 C1182 1.384 . S
C1181 C1180 1.377 . S
C1181 C1187 1.390 . S
C1182 H1173 0.930 1_655 S
C1182 C1180 1.384 . S
C1182 C1183 1.372 . S
C1183 C1182 1.372 . S
C1183 C1184 1.400 . S
C1183 C1188 1.490 . S
C1184 H1174 0.930 . S
C1184 C1183 1.400 . S
C1184 C1187 1.386 . S
H1185 C1201 0.930 . S
H1186 C1202 0.931 1_655 S
C1187 H1175 0.929 . S
C1187 C1181 1.390 . S
C1187 C1184 1.386 . S
C1188 C1183 1.490 . S
C1188 C1190 1.395 . S
C1188 C1191 1.396 1_655 S
H1189 C1195 0.930 . S
C1190 H1176 0.930 . S
C1190 C1188 1.395 . S
C1190 C1193 1.403 1_665 S
C1191 C1188 1.396 1_455 S
C1191 C1192 1.525 . S
C1191 C1195 1.407 1_565 S
C1192 H1177 0.960 . S
C1192 H1178 0.960 . S
C1192 H1179 0.960 1_455 S
C1192 C1191 1.525 . S
C1193 C1190 1.403 1_445 S
C1193 C1194 1.392 . S
C1193 C1197 1.495 . S
C1194 C1193 1.392 . S
C1194 C1195 1.385 . S
C1194 C1196 1.478 . S
C1195 H1189 0.930 . S
C1195 C1191 1.407 1_545 S
C1195 C1194 1.385 . S
C1196 C1194 1.478 . S
C1196 C1198 1.381 . S
C1196 C1202 1.383 . S
C1197 C1193 1.495 . S
C1197 H1203 0.959 1_455 S
C1197 H1204 0.961 1_455 S
C1197 H1205 0.960 . S
C1198 C1196 1.381 . S
C1198 C1199 1.394 . S
C1198 H1206 0.930 . S
C1199 C1198 1.394 . S
C1199 C1200 1.383 . S
C1199 H1207 0.929 . S
C1200 C1199 1.383 . S
C1200 C1201 1.377 . S
C1201 H1185 0.930 . S
C1201 C1200 1.377 . S
C1201 C1202 1.379 . S
C1202 H1186 0.931 1_455 S
C1202 C1196 1.383 . S
C1202 C1201 1.379 . S
H1203 C1197 0.959 1_655 S
H1204 C1197 0.961 1_655 S
H1205 C1197 0.960 . S
H1206 C1198 0.930 . S
H1207 C1199 0.929 . S
H1208 C1216 0.929 . S
H1209 C1218 0.930 . S
H1210 C1220 0.930 . S
H1211 C1223 0.929 . S
H1212 C1226 0.930 . S
H1213 C1228 0.960 . S
H1214 C1228 0.960 . S
H1215 C1228 0.960 . S
C1216 H1208 0.929 . S
C1216 C1217 1.377 . S
C1216 C1218 1.384 . S
C1217 C1216 1.377 . S
C1217 C1223 1.390 . S
C1218 H1209 0.930 . S
C1218 C1216 1.384 . S
C1218 C1219 1.372 . S
C1219 C1218 1.372 . S
C1219 C1220 1.400 . S
C1219 C1224 1.490 . S
C1220 H1210 0.930 . S
C1220 C1219 1.400 . S
C1220 C1223 1.386 . S
H1221 C1237 0.930 . S
H1222 C1238 0.931 . S
C1223 H1211 0.929 . S
C1223 C1217 1.390 . S
C1223 C1220 1.386 . S
C1224 C1219 1.490 . S
C1224 C1226 1.395 . S
C1224 C1227 1.403 . S
H1225 C1231 0.930 . S
C1226 H1212 0.930 . S
C1226 C1224 1.395 . S
C1226 C1229 1.403 1_455 S
C1227 C1224 1.403 . S
C1227 C1228 1.524 . S
C1227 C1231 1.400 1_455 S
C1228 H1213 0.960 . S
C1228 H1214 0.960 . S
C1228 H1215 0.960 . S
C1228 C1227 1.524 . S
C1229 C1226 1.403 1_655 S
C1229 C1230 1.392 . S
C1229 C1233 1.495 . S
C1230 C1229 1.392 . S
C1230 C1231 1.385 . S
C1230 C1232 1.478 . S
C1231 H1225 0.930 . S
C1231 C1227 1.400 1_655 S
C1231 C1230 1.385 . S
C1232 C1230 1.478 . S
C1232 C1234 1.381 . S
C1232 C1238 1.383 . S
C1233 C1229 1.495 . S
C1233 H1239 0.959 . S
C1233 H1240 0.961 . S
C1233 H1241 0.960 . S
C1234 C1232 1.381 . S
C1234 C1235 1.394 . S
C1234 H1242 0.930 . S
C1235 C1234 1.394 . S
C1235 C1236 1.383 . S
C1235 H1243 0.929 . S
C1236 C1235 1.383 . S
C1236 C1237 1.377 . S
C1237 H1221 0.930 . S
C1237 C1236 1.377 . S
C1237 C1238 1.379 . S
C1238 H1222 0.931 . S
C1238 C1232 1.383 . S
C1238 C1237 1.379 . S
H1239 C1233 0.959 . S
H1240 C1233 0.961 . S
H1241 C1233 0.960 . S
H1242 C1234 0.930 . S
H1243 C1235 0.929 . S
H1244 C1252 0.929 . S
H1245 C1254 0.930 . S
H1246 C1256 0.930 . S
H1247 C1259 0.929 . S
H1248 C1262 0.930 . S
H1249 C1264 0.960 . S
H1250 C1264 0.960 . S
H1251 C1264 0.960 . S
C1252 H1244 0.929 . S
C1252 C1253 1.377 . S
C1252 C1254 1.384 . S
C1253 C1252 1.377 . S
C1253 C1259 1.390 . S
C1254 H1245 0.930 . S
C1254 C1252 1.384 . S
C1254 C1255 1.372 . S
C1255 C1254 1.372 . S
C1255 C1256 1.400 . S
C1255 C1260 1.490 . S
C1256 H1246 0.930 . S
C1256 C1255 1.400 . S
C1256 C1259 1.386 . S
H1257 C1273 0.930 . S
H1258 C1274 0.931 . S
C1259 H1247 0.929 . S
C1259 C1253 1.390 . S
C1259 C1256 1.386 . S
C1260 C1255 1.490 . S
C1260 C1262 1.395 . S
C1260 C1263 1.403 . S
H1261 C1267 0.930 . S
C1262 H1248 0.930 . S
C1262 C1260 1.395 . S
C1262 C1265 1.403 . S
C1263 C1260 1.403 . S
C1263 C1264 1.524 . S
C1263 C1267 1.400 . S
C1264 H1249 0.960 . S
C1264 H1250 0.960 . S
C1264 H1251 0.960 . S
C1264 C1263 1.524 . S
C1265 C1262 1.403 . S
C1265 C1266 1.392 . S
C1265 C1269 1.495 . S
C1266 C1265 1.392 . S
C1266 C1267 1.385 . S
C1266 C1268 1.478 . S
C1267 H1261 0.930 . S
C1267 C1263 1.400 . S
C1267 C1266 1.385 . S
C1268 C1266 1.478 . S
C1268 C1270 1.381 . S
C1268 C1274 1.383 . S
C1269 C1265 1.495 . S
C1269 H1275 0.959 . S
C1269 H1276 0.961 . S
C1269 H1277 0.960 . S
C1270 C1268 1.381 . S
C1270 C1271 1.394 . S
C1270 H1278 0.930 . S
C1271 C1270 1.394 . S
C1271 C1272 1.383 . S
C1271 H1279 0.929 . S
C1272 C1271 1.383 . S
C1272 C1273 1.377 . S
C1273 H1257 0.930 . S
C1273 C1272 1.377 . S
C1273 C1274 1.379 . S
C1274 H1258 0.931 . S
C1274 C1268 1.383 . S
C1274 C1273 1.379 . S
H1275 C1269 0.959 . S
H1276 C1269 0.961 . S
H1277 C1269 0.960 . S
H1278 C1270 0.930 . S
H1279 C1271 0.929 . S
H1280 C1288 0.929 . S
H1281 C1290 0.930 . S
H1282 C1292 0.930 . S
H1283 C1295 0.929 . S
H1284 C1298 0.930 . S
H1285 C1300 0.960 . S
H1286 C1300 0.960 . S
H1287 C1300 0.960 . S
C1288 H1280 0.929 . S
C1288 C1289 1.377 . S
C1288 C1290 1.384 . S
C1289 C1288 1.377 . S
C1289 C1295 1.390 . S
C1290 H1281 0.930 . S
C1290 C1288 1.384 . S
C1290 C1291 1.372 . S
C1291 C1290 1.372 . S
C1291 C1292 1.400 . S
C1291 C1296 1.490 . S
C1292 H1282 0.930 . S
C1292 C1291 1.400 . S
C1292 C1295 1.386 . S
H1293 C1309 0.930 . S
H1294 C1310 0.931 . S
C1295 H1283 0.929 . S
C1295 C1289 1.390 . S
C1295 C1292 1.386 . S
C1296 C1291 1.490 . S
C1296 C1298 1.395 . S
C1296 C1299 1.403 . S
H1297 C1303 0.930 . S
C1298 H1284 0.930 . S
C1298 C1296 1.395 . S
C1298 C1301 1.403 . S
C1299 C1296 1.403 . S
C1299 C1300 1.524 . S
C1299 C1303 1.400 . S
C1300 H1285 0.960 . S
C1300 H1286 0.960 . S
C1300 H1287 0.960 . S
C1300 C1299 1.524 . S
C1301 C1298 1.403 . S
C1301 C1302 1.392 . S
C1301 C1305 1.495 . S
C1302 C1301 1.392 . S
C1302 C1303 1.385 . S
C1302 C1304 1.478 . S
C1303 H1297 0.930 . S
C1303 C1299 1.400 . S
C1303 C1302 1.385 . S
C1304 C1302 1.478 . S
C1304 C1306 1.381 . S
C1304 C1310 1.383 . S
C1305 C1301 1.495 . S
C1305 H1311 0.959 . S
C1305 H1312 0.961 . S
C1305 H1313 0.960 . S
C1306 C1304 1.381 . S
C1306 C1307 1.394 . S
C1306 H1314 0.930 . S
C1307 C1306 1.394 . S
C1307 C1308 1.383 . S
C1307 H1315 0.929 . S
C1308 C1307 1.383 . S
C1308 C1309 1.377 . S
C1309 H1293 0.930 . S
C1309 C1308 1.377 . S
C1309 C1310 1.379 . S
C1310 H1294 0.931 . S
C1310 C1304 1.383 . S
C1310 C1309 1.379 . S
H1311 C1305 0.959 . S
H1312 C1305 0.961 . S
H1313 C1305 0.960 . S
H1314 C1306 0.930 . S
H1315 C1307 0.929 . S
H1316 C1324 0.929 . S
H1317 C1326 0.930 . S
H1318 C1328 0.930 . S
H1319 C1331 0.929 . S
H1320 C1334 0.930 . S
H1321 C1336 0.960 . S
H1322 C1336 0.960 . S
H1323 C1336 0.960 . S
C1324 H1316 0.929 . S
C1324 C1325 1.377 . S
C1324 C1326 1.384 . S
C1325 C1324 1.377 . S
C1325 C1331 1.390 . S
C1326 H1317 0.930 . S
C1326 C1324 1.384 . S
C1326 C1327 1.372 . S
C1327 C1326 1.372 . S
C1327 C1328 1.400 . S
C1327 C1332 1.490 . S
C1328 H1318 0.930 . S
C1328 C1327 1.400 . S
C1328 C1331 1.386 . S
H1329 C1345 0.930 . S
H1330 C1346 0.931 . S
C1331 H1319 0.929 . S
C1331 C1325 1.390 . S
C1331 C1328 1.386 . S
C1332 C1327 1.490 . S
C1332 C1334 1.395 . S
C1332 C1335 1.403 . S
H1333 C1339 0.930 . S
C1334 H1320 0.930 . S
C1334 C1332 1.395 . S
C1334 C1337 1.403 1_565 S
C1335 C1332 1.403 . S
C1335 C1336 1.524 . S
C1335 C1339 1.400 1_565 S
C1336 H1321 0.960 . S
C1336 H1322 0.960 . S
C1336 H1323 0.960 . S
C1336 C1335 1.524 . S
C1337 C1334 1.403 1_545 S
C1337 C1338 1.392 . S
C1337 C1341 1.495 . S
C1338 C1337 1.392 . S
C1338 C1339 1.385 . S
C1338 C1340 1.478 . S
C1339 H1333 0.930 . S
C1339 C1335 1.400 1_545 S
C1339 C1338 1.385 . S
C1340 C1338 1.478 . S
C1340 C1342 1.381 . S
C1340 C1346 1.383 . S
C1341 C1337 1.495 . S
C1341 H1347 0.959 . S
C1341 H1348 0.961 . S
C1341 H1349 0.960 . S
C1342 C1340 1.381 . S
C1342 C1343 1.394 . S
C1342 H1350 0.930 . S
C1343 C1342 1.394 . S
C1343 C1344 1.383 . S
C1343 H1351 0.929 . S
C1344 C1343 1.383 . S
C1344 C1345 1.377 . S
C1345 H1329 0.930 . S
C1345 C1344 1.377 . S
C1345 C1346 1.379 . S
C1346 H1330 0.931 . S
C1346 C1340 1.383 . S
C1346 C1345 1.379 . S
H1347 C1341 0.959 . S
H1348 C1341 0.961 . S
H1349 C1341 0.960 . S
H1350 C1342 0.930 . S
H1351 C1343 0.929 . S
H1352 C1360 0.929 . S
H1353 C1362 0.930 1_545 S
H1354 C1364 0.930 . S
H1355 C1367 0.929 . S
H1356 C1370 0.930 . S
H1357 C1372 0.960 1_455 S
H1358 C1372 0.960 . S
H1359 C1372 0.960 . S
C1360 H1352 0.929 . S
C1360 C1361 1.377 . S
C1360 C1362 1.384 . S
C1361 C1360 1.377 . S
C1361 C1367 1.390 . S
C1362 H1353 0.930 1_565 S
C1362 C1360 1.384 . S
C1362 C1363 1.372 . S
C1363 C1362 1.372 . S
C1363 C1364 1.400 . S
C1363 C1368 1.490 . S
C1364 H1354 0.930 . S
C1364 C1363 1.400 . S
C1364 C1367 1.386 . S
H1365 C1381 0.930 . S
H1366 C1382 0.931 . S
C1367 H1355 0.929 . S
C1367 C1361 1.390 . S
C1367 C1364 1.386 . S
C1368 C1363 1.490 . S
C1368 C1370 1.395 1_565 S
C1368 C1371 1.403 . S
H1369 C1375 0.930 . S
C1370 H1356 0.930 . S
C1370 C1368 1.395 1_545 S
C1370 C1373 1.381 1_655 S
C1371 C1368 1.403 . S
C1371 C1372 1.524 . S
C1371 C1375 1.400 1_655 S
C1372 H1357 0.960 1_655 S
C1372 H1358 0.960 . S
C1372 H1359 0.960 . S
C1372 C1371 1.524 . S
C1373 C1370 1.381 1_455 S
C1373 C1374 1.414 . S
C1373 C1377 1.496 . S
C1374 C1373 1.414 . S
C1374 C1375 1.385 1_545 S
C1374 C1376 1.478 . S
C1375 H1369 0.930 . S
C1375 C1371 1.400 1_455 S
C1375 C1374 1.385 1_565 S
C1376 C1374 1.478 . S
C1376 C1378 1.381 . S
C1376 C1382 1.383 . S
C1377 C1373 1.496 . S
C1377 H1383 0.959 1_455 S
C1377 H1384 0.961 . S
C1377 H1385 0.960 . S
C1378 C1376 1.381 . S
C1378 C1379 1.394 . S
C1378 H1386 0.930 . S
C1379 C1378 1.394 . S
C1379 C1380 1.383 . S
C1379 H1387 0.929 . S
C1380 C1379 1.383 . S
C1380 C1381 1.377 . S
C1381 H1365 0.930 . S
C1381 C1380 1.377 . S
C1381 C1382 1.379 . S
C1382 H1366 0.931 . S
C1382 C1376 1.383 . S
C1382 C1381 1.379 . S
H1383 C1377 0.959 1_655 S
H1384 C1377 0.961 . S
H1385 C1377 0.960 . S
H1386 C1378 0.930 . S
H1387 C1379 0.929 . S
H1388 C1396 0.929 . S
H1389 C1398 0.930 1_655 S
H1390 C1400 0.930 . S
H1391 C1403 0.929 . S
H1392 C1406 0.930 . S
H1393 C1408 0.960 . S
H1394 C1408 0.960 . S
H1395 C1408 0.960 . S
C1396 H1388 0.929 . S
C1396 C1397 1.377 . S
C1396 C1398 1.384 . S
C1397 C1396 1.377 . S
C1397 C1403 1.390 . S
C1398 H1389 0.930 1_455 S
C1398 C1396 1.384 . S
C1398 C1399 1.372 . S
C1399 C1398 1.372 . S
C1399 C1400 1.400 . S
C1399 C1404 1.490 . S
C1400 H1390 0.930 . S
C1400 C1399 1.400 . S
C1400 C1403 1.386 . S
H1401 C1417 0.930 . S
H1402 C1418 0.931 1_455 S
C1403 H1391 0.929 . S
C1403 C1397 1.390 . S
C1403 C1400 1.386 . S
C1404 C1399 1.490 . S
C1404 C1406 1.395 1_455 S
C1404 C1407 1.403 . S
H1405 C1411 0.930 . S
C1406 H1392 0.930 . S
C1406 C1404 1.395 1_655 S
C1406 C1409 1.403 . S
C1407 C1404 1.403 . S
C1407 C1408 1.524 . S
C1407 C1411 1.400 . S
C1408 H1393 0.960 . S
C1408 H1394 0.960 . S
C1408 H1395 0.960 . S
C1408 C1407 1.524 . S
C1409 C1406 1.403 . S
C1409 C1410 1.392 . S
C1409 C1413 1.495 . S
C1410 C1409 1.392 . S
C1410 C1411 1.385 1_655 S
C1410 C1412 1.478 . S
C1411 H1405 0.930 . S
C1411 C1407 1.400 . S
C1411 C1410 1.385 1_455 S
C1412 C1410 1.478 . S
C1412 C1414 1.381 . S
C1412 C1418 1.383 . S
C1413 C1409 1.495 . S
C1413 H1419 0.959 . S
C1413 H1420 0.961 . S
C1413 H1421 0.960 . S
C1414 C1412 1.381 . S
C1414 C1415 1.394 . S
C1414 H1422 0.930 . S
C1415 C1414 1.394 . S
C1415 C1416 1.383 . S
C1415 H1423 0.929 . S
C1416 C1415 1.383 . S
C1416 C1417 1.377 . S
C1417 H1401 0.930 . S
C1417 C1416 1.377 . S
C1417 C1418 1.379 . S
C1418 H1402 0.931 1_655 S
C1418 C1412 1.383 . S
C1418 C1417 1.379 . S
H1419 C1413 0.959 . S
H1420 C1413 0.961 . S
H1421 C1413 0.960 . S
H1422 C1414 0.930 . S
H1423 C1415 0.929 . S
H1424 C1432 0.929 . S
H1425 C1434 0.930 . S
H1426 C1436 0.930 . S
H1427 C1439 0.929 . S
H1428 C1442 0.930 . S
H1429 C1444 0.960 . S
H1430 C1444 0.960 . S
H1431 C1444 0.960 1_545 S
C1432 H1424 0.929 . S
C1432 C1433 1.377 . S
C1432 C1434 1.384 . S
C1433 C1432 1.377 . S
C1433 C1439 1.390 . S
C1434 H1425 0.930 . S
C1434 C1432 1.384 . S
C1434 C1435 1.372 . S
C1435 C1434 1.372 . S
C1435 C1436 1.400 . S
C1435 C1440 1.490 . S
C1436 H1426 0.930 . S
C1436 C1435 1.400 . S
C1436 C1439 1.386 . S
H1437 C1453 0.930 . S
H1438 C1454 0.931 . S
C1439 H1427 0.929 . S
C1439 C1433 1.390 . S
C1439 C1436 1.386 . S
C1440 C1435 1.490 . S
C1440 C1442 1.395 . S
C1440 C1443 1.403 . S
H1441 C1447 0.930 . S
C1442 H1428 0.930 . S
C1442 C1440 1.395 . S
C1442 C1445 1.403 . S
C1443 C1440 1.403 . S
C1443 C1444 1.524 1_545 S
C1443 C1447 1.400 . S
C1444 H1429 0.960 . S
C1444 H1430 0.960 . S
C1444 H1431 0.960 1_565 S
C1444 C1443 1.524 1_565 S
C1445 C1442 1.403 . S
C1445 C1446 1.392 . S
C1445 C1449 1.495 . S
C1446 C1445 1.392 . S
C1446 C1447 1.385 . S
C1446 C1448 1.478 . S
C1447 H1441 0.930 . S
C1447 C1443 1.400 . S
C1447 C1446 1.385 . S
C1448 C1446 1.478 . S
C1448 C1450 1.381 . S
C1448 C1454 1.383 . S
C1449 C1445 1.495 . S
C1449 H1455 0.959 . S
C1449 H1456 0.961 . S
C1449 H1457 0.960 . S
C1450 C1448 1.381 . S
C1450 C1451 1.394 . S
C1450 H1458 0.930 . S
C1451 C1450 1.394 . S
C1451 C1452 1.383 . S
C1451 H1459 0.929 . S
C1452 C1451 1.383 . S
C1452 C1453 1.377 . S
C1453 H1437 0.930 . S
C1453 C1452 1.377 . S
C1453 C1454 1.379 . S
C1454 H1438 0.931 . S
C1454 C1448 1.383 . S
C1454 C1453 1.379 . S
H1455 C1449 0.959 . S
H1456 C1449 0.961 . S
H1457 C1449 0.960 . S
H1458 C1450 0.930 . S
H1459 C1451 0.929 . S
H1460 C1468 0.929 . S
H1461 C1470 0.930 . S
H1462 C1472 0.931 1_455 S
H1463 C1475 0.927 1_455 S
H1464 C1478 0.930 . S
H1465 C1480 0.960 . S
H1466 C1480 0.960 . S
H1467 C1480 0.960 . S
C1468 H1460 0.929 . S
C1468 C1469 1.377 . S
C1468 C1470 1.384 . S
C1469 C1468 1.377 . S
C1469 C1475 1.390 . S
C1470 H1461 0.930 . S
C1470 C1468 1.384 . S
C1470 C1471 1.372 . S
C1471 C1470 1.372 . S
C1471 C1472 1.400 . S
C1471 C1476 1.490 . S
C1472 H1462 0.931 1_655 S
C1472 C1471 1.400 . S
C1472 C1475 1.386 . S
H1473 C1489 0.930 . S
H1474 C1490 0.931 . S
C1475 H1463 0.927 1_655 S
C1475 C1469 1.390 . S
C1475 C1472 1.386 . S
C1476 C1471 1.490 . S
C1476 C1478 1.395 . S
C1476 C1479 1.403 . S
H1477 C1483 0.930 1_455 S
C1478 H1464 0.930 . S
C1478 C1476 1.395 . S
C1478 C1481 1.403 . S
C1479 C1476 1.403 . S
C1479 C1480 1.524 1_655 S
C1479 C1483 1.400 . S
C1480 H1465 0.960 . S
C1480 H1466 0.960 . S
C1480 H1467 0.960 . S
C1480 C1479 1.524 1_455 S
C1481 C1478 1.403 . S
C1481 C1482 1.392 . S
C1481 C1485 1.495 . S
C1482 C1481 1.392 . S
C1482 C1483 1.385 . S
C1482 C1484 1.478 . S
C1483 H1477 0.930 1_655 S
C1483 C1479 1.400 . S
C1483 C1482 1.385 . S
C1484 C1482 1.478 . S
C1484 C1486 1.381 . S
C1484 C1490 1.383 . S
C1485 C1481 1.495 . S
C1485 H1491 0.959 . S
C1485 H1492 0.961 . S
C1485 H1493 0.960 . S
C1486 C1484 1.381 . S
C1486 C1487 1.394 . S
C1486 H1494 0.930 . S
C1487 C1486 1.394 . S
C1487 C1488 1.383 . S
C1487 H1495 0.929 . S
C1488 C1487 1.383 . S
C1488 C1489 1.377 . S
C1489 H1473 0.930 . S
C1489 C1488 1.377 . S
C1489 C1490 1.379 . S
C1490 H1474 0.931 . S
C1490 C1484 1.383 . S
C1490 C1489 1.379 . S
H1491 C1485 0.959 . S
H1492 C1485 0.961 . S
H1493 C1485 0.960 . S
H1494 C1486 0.930 . S
H1495 C1487 0.929 . S
H1496 C1504 0.929 . S
H1497 C1506 0.930 . S
H1498 C1508 0.930 . S
H1499 C1511 0.929 . S
H1500 C1514 0.930 . S
H1501 C1516 0.960 . S
H1502 C1516 0.960 . S
H1503 C1516 0.960 . S
C1504 H1496 0.929 . S
C1504 C1505 1.377 . S
C1504 C1506 1.384 . S
C1505 C1504 1.377 . S
C1505 C1511 1.390 . S
C1506 H1497 0.930 . S
C1506 C1504 1.384 . S
C1506 C1507 1.372 . S
C1507 C1506 1.372 . S
C1507 C1508 1.400 . S
C1507 C1512 1.490 . S
C1508 H1498 0.930 . S
C1508 C1507 1.400 . S
C1508 C1511 1.386 . S
H1509 C1525 0.930 . S
H1510 C1526 0.931 . S
C1511 H1499 0.929 . S
C1511 C1505 1.390 . S
C1511 C1508 1.386 . S
C1512 C1507 1.490 . S
C1512 C1514 1.395 . S
C1512 C1515 1.403 . S
H1513 C1519 0.930 . S
C1514 H1500 0.930 . S
C1514 C1512 1.395 . S
C1514 C1517 1.403 . S
C1515 C1512 1.403 . S
C1515 C1516 1.524 . S
C1515 C1519 1.400 . S
C1516 H1501 0.960 . S
C1516 H1502 0.960 . S
C1516 H1503 0.960 . S
C1516 C1515 1.524 . S
C1517 C1514 1.403 . S
C1517 C1518 1.392 . S
C1517 C1521 1.495 . S
C1518 C1517 1.392 . S
C1518 C1519 1.385 . S
C1518 C1520 1.478 . S
C1519 H1513 0.930 . S
C1519 C1515 1.400 . S
C1519 C1518 1.385 . S
C1520 C1518 1.478 . S
C1520 C1522 1.381 . S
C1520 C1526 1.383 . S
C1521 C1517 1.495 . S
C1521 H1527 0.959 . S
C1521 H1528 0.961 . S
C1521 H1529 0.960 . S
C1522 C1520 1.381 . S
C1522 C1523 1.394 . S
C1522 H1530 0.930 . S
C1523 C1522 1.394 . S
C1523 C1524 1.383 . S
C1523 H1531 0.929 . S
C1524 C1523 1.383 . S
C1524 C1525 1.377 . S
C1525 H1509 0.930 . S
C1525 C1524 1.377 . S
C1525 C1526 1.379 . S
C1526 H1510 0.931 . S
C1526 C1520 1.383 . S
C1526 C1525 1.379 . S
H1527 C1521 0.959 . S
H1528 C1521 0.961 . S
H1529 C1521 0.960 . S
H1530 C1522 0.930 . S
H1531 C1523 0.929 . S
H1532 C1540 0.929 . S
H1533 C1542 0.930 . S
H1534 C1544 0.930 . S
H1535 C1547 0.929 . S
H1536 C1550 0.930 . S
H1537 C1552 0.960 . S
H1538 C1552 0.960 . S
H1539 C1552 0.960 . S
C1540 H1532 0.929 . S
C1540 C1541 1.377 . S
C1540 C1542 1.384 . S
C1541 C1540 1.377 . S
C1541 C1547 1.390 . S
C1542 H1533 0.930 . S
C1542 C1540 1.384 . S
C1542 C1543 1.372 . S
C1543 C1542 1.372 . S
C1543 C1544 1.400 . S
C1543 C1548 1.490 . S
C1544 H1534 0.930 . S
C1544 C1543 1.400 . S
C1544 C1547 1.386 . S
H1545 C1561 0.930 . S
H1546 C1562 0.931 . S
C1547 H1535 0.929 . S
C1547 C1541 1.390 . S
C1547 C1544 1.386 . S
C1548 C1543 1.490 . S
C1548 C1550 1.395 . S
C1548 C1551 1.403 . S
H1549 C1555 0.930 . S
C1550 H1536 0.930 . S
C1550 C1548 1.395 . S
C1550 C1553 1.403 . S
C1551 C1548 1.403 . S
C1551 C1552 1.524 . S
C1551 C1555 1.400 . S
C1552 H1537 0.960 . S
C1552 H1538 0.960 . S
C1552 H1539 0.960 . S
C1552 C1551 1.524 . S
C1553 C1550 1.403 . S
C1553 C1554 1.392 . S
C1553 C1557 1.495 . S
C1554 C1553 1.392 . S
C1554 C1555 1.385 . S
C1554 C1556 1.478 . S
C1555 H1549 0.930 . S
C1555 C1551 1.400 . S
C1555 C1554 1.385 . S
C1556 C1554 1.478 . S
C1556 C1558 1.381 . S
C1556 C1562 1.383 . S
C1557 C1553 1.495 . S
C1557 H1563 0.959 . S
C1557 H1564 0.961 . S
C1557 H1565 0.960 . S
C1558 C1556 1.381 . S
C1558 C1559 1.394 . S
C1558 H1566 0.930 . S
C1559 C1558 1.394 . S
C1559 C1560 1.383 . S
C1559 H1567 0.929 . S
C1560 C1559 1.383 . S
C1560 C1561 1.377 . S
C1561 H1545 0.930 . S
C1561 C1560 1.377 . S
C1561 C1562 1.379 . S
C1562 H1546 0.931 . S
C1562 C1556 1.383 . S
C1562 C1561 1.379 . S
H1563 C1557 0.959 . S
H1564 C1557 0.961 . S
H1565 C1557 0.960 . S
H1566 C1558 0.930 . S
H1567 C1559 0.929 . S
H1568 C1576 0.929 . S
H1569 C1578 0.930 . S
H1570 C1580 0.930 . S
H1571 C1583 0.929 . S
H1572 C1586 0.930 . S
H1573 C1588 0.960 . S
H1574 C1588 0.960 . S
H1575 C1588 0.960 . S
C1576 H1568 0.929 . S
C1576 C1577 1.377 . S
C1576 C1578 1.384 . S
C1577 C1576 1.377 . S
C1577 C1583 1.390 . S
C1578 H1569 0.930 . S
C1578 C1576 1.384 . S
C1578 C1579 1.372 . S
C1579 C1578 1.372 . S
C1579 C1580 1.400 . S
C1579 C1584 1.490 . S
C1580 H1570 0.930 . S
C1580 C1579 1.400 . S
C1580 C1583 1.386 . S
H1581 C1597 0.930 . S
H1582 C1598 0.931 . S
C1583 H1571 0.929 . S
C1583 C1577 1.390 . S
C1583 C1580 1.386 . S
C1584 C1579 1.490 . S
C1584 C1586 1.395 . S
C1584 C1587 1.403 . S
H1585 C1591 0.930 . S
C1586 H1572 0.930 . S
C1586 C1584 1.395 . S
C1586 C1589 1.403 . S
C1587 C1584 1.403 . S
C1587 C1588 1.524 . S
C1587 C1591 1.400 . S
C1588 H1573 0.960 . S
C1588 H1574 0.960 . S
C1588 H1575 0.960 . S
C1588 C1587 1.524 . S
C1589 C1586 1.403 . S
C1589 C1590 1.392 . S
C1589 C1593 1.495 . S
C1590 C1589 1.392 . S
C1590 C1591 1.385 . S
C1590 C1592 1.478 . S
C1591 H1585 0.930 . S
C1591 C1587 1.400 . S
C1591 C1590 1.385 . S
C1592 C1590 1.478 . S
C1592 C1594 1.381 . S
C1592 C1598 1.383 . S
C1593 C1589 1.495 . S
C1593 H1599 0.959 . S
C1593 H1600 0.961 . S
C1593 H1601 0.960 . S
C1594 C1592 1.381 . S
C1594 C1595 1.394 . S
C1594 H1602 0.930 . S
C1595 C1594 1.394 . S
C1595 C1596 1.383 . S
C1595 H1603 0.929 . S
C1596 C1595 1.383 . S
C1596 C1597 1.377 . S
C1597 H1581 0.930 . S
C1597 C1596 1.377 . S
C1597 C1598 1.379 . S
C1598 H1582 0.931 . S
C1598 C1592 1.383 . S
C1598 C1597 1.379 . S
H1599 C1593 0.959 . S
H1600 C1593 0.961 . S
H1601 C1593 0.960 . S
H1602 C1594 0.930 . S
H1603 C1595 0.929 . S
H1604 C1612 0.929 . S
H1605 C1614 0.930 . S
H1606 C1616 0.930 . S
H1607 C1619 0.929 . S
H1608 C1622 0.930 . S
H1609 C1624 0.960 . S
H1610 C1624 0.960 . S
H1611 C1624 0.960 . S
C1612 H1604 0.929 . S
C1612 C1613 1.377 . S
C1612 C1614 1.384 . S
C1613 C1612 1.377 . S
C1613 C1619 1.390 . S
C1614 H1605 0.930 . S
C1614 C1612 1.384 . S
C1614 C1615 1.372 . S
C1615 C1614 1.372 . S
C1615 C1616 1.400 . S
C1615 C1620 1.490 . S
C1616 H1606 0.930 . S
C1616 C1615 1.400 . S
C1616 C1619 1.386 . S
H1617 C1633 0.930 . S
H1618 C1634 0.931 . S
C1619 H1607 0.929 . S
C1619 C1613 1.390 . S
C1619 C1616 1.386 . S
C1620 C1615 1.490 . S
C1620 C1622 1.395 . S
C1620 C1623 1.403 . S
H1621 C1627 0.930 . S
C1622 H1608 0.930 . S
C1622 C1620 1.395 . S
C1622 C1625 1.403 . S
C1623 C1620 1.403 . S
C1623 C1624 1.524 . S
C1623 C1627 1.400 . S
C1624 H1609 0.960 . S
C1624 H1610 0.960 . S
C1624 H1611 0.960 . S
C1624 C1623 1.524 . S
C1625 C1622 1.403 . S
C1625 C1626 1.392 . S
C1625 C1629 1.495 . S
C1626 C1625 1.392 . S
C1626 C1627 1.385 . S
C1626 C1628 1.478 . S
C1627 H1621 0.930 . S
C1627 C1623 1.400 . S
C1627 C1626 1.385 . S
C1628 C1626 1.478 . S
C1628 C1630 1.381 . S
C1628 C1634 1.383 . S
C1629 C1625 1.495 . S
C1629 H1635 0.959 . S
C1629 H1636 0.961 . S
C1629 H1637 0.960 . S
C1630 C1628 1.381 . S
C1630 C1631 1.394 . S
C1630 H1638 0.930 . S
C1631 C1630 1.394 . S
C1631 C1632 1.383 . S
C1631 H1639 0.929 . S
C1632 C1631 1.383 . S
C1632 C1633 1.377 . S
C1633 H1617 0.930 . S
C1633 C1632 1.377 . S
C1633 C1634 1.379 . S
C1634 H1618 0.931 . S
C1634 C1628 1.383 . S
C1634 C1633 1.379 . S
H1635 C1629 0.959 . S
H1636 C1629 0.961 . S
H1637 C1629 0.960 . S
H1638 C1630 0.930 . S
H1639 C1631 0.929 . S
H1640 C1648 0.929 . S
H1641 C1650 0.930 . S
H1642 C1652 0.930 1_545 S
H1643 C1655 0.929 1_545 S
H1644 C1658 0.930 . S
H1645 C1660 0.960 . S
H1646 C1660 0.960 . S
H1647 C1660 0.960 . S
C1648 H1640 0.929 . S
C1648 C1649 1.377 . S
C1648 C1650 1.384 . S
C1649 C1648 1.377 . S
C1649 C1655 1.390 . S
C1650 H1641 0.930 . S
C1650 C1648 1.384 . S
C1650 C1651 1.372 . S
C1651 C1650 1.372 . S
C1651 C1652 1.400 . S
C1651 C1656 1.490 . S
C1652 H1642 0.930 1_565 S
C1652 C1651 1.400 . S
C1652 C1655 1.386 . S
H1653 C1669 0.930 1_545 S
H1654 C1670 0.931 1_545 S
C1655 H1643 0.929 1_565 S
C1655 C1649 1.390 . S
C1655 C1652 1.386 . S
C1656 C1651 1.490 . S
C1656 C1658 1.395 . S
C1656 C1659 1.403 . S
H1657 C1663 0.930 . S
C1658 H1644 0.930 . S
C1658 C1656 1.395 . S
C1658 C1661 1.403 . S
C1659 C1656 1.403 . S
C1659 C1660 1.524 . S
C1659 C1663 1.400 . S
C1660 H1645 0.960 . S
C1660 H1646 0.960 . S
C1660 H1647 0.960 . S
C1660 C1659 1.524 . S
C1661 C1658 1.403 . S
C1661 C1662 1.392 . S
C1661 C1665 1.495 . S
C1662 C1661 1.392 . S
C1662 C1663 1.385 . S
C1662 C1664 1.478 . S
C1663 H1657 0.930 . S
C1663 C1659 1.400 . S
C1663 C1662 1.385 . S
C1664 C1662 1.478 . S
C1664 C1666 1.381 . S
C1664 C1670 1.383 . S
C1665 C1661 1.495 . S
C1665 H1671 0.959 . S
C1665 H1672 0.961 . S
C1665 H1673 0.960 . S
C1666 C1664 1.381 . S
C1666 C1667 1.394 . S
C1666 H1674 0.930 . S
C1667 C1666 1.394 . S
C1667 C1668 1.383 . S
C1667 H1675 0.929 . S
C1668 C1667 1.383 . S
C1668 C1669 1.377 . S
C1669 H1653 0.930 1_565 S
C1669 C1668 1.377 . S
C1669 C1670 1.379 . S
C1670 H1654 0.931 1_565 S
C1670 C1664 1.383 . S
C1670 C1669 1.379 . S
H1671 C1665 0.959 . S
H1672 C1665 0.961 . S
H1673 C1665 0.960 . S
H1674 C1666 0.930 . S
H1675 C1667 0.929 . S
H1676 C1684 0.929 1_655 S
H1677 C1686 0.930 1_655 S
H1678 C1688 0.930 . S
H1679 C1691 0.929 . S
H1680 C1694 0.930 . S
H1681 C1696 0.960 . S
H1682 C1696 0.960 . S
H1683 C1696 0.960 . S
C1684 H1676 0.929 1_455 S
C1684 C1685 1.377 . S
C1684 C1686 1.384 . S
C1685 C1684 1.377 . S
C1685 C1691 1.390 . S
C1686 H1677 0.930 1_455 S
C1686 C1684 1.384 . S
C1686 C1687 1.372 . S
C1687 C1686 1.372 . S
C1687 C1688 1.400 . S
C1687 C1692 1.490 . S
C1688 H1678 0.930 . S
C1688 C1687 1.400 . S
C1688 C1691 1.386 . S
H1689 C1705 0.930 . S
H1690 C1706 0.931 . S
C1691 H1679 0.929 . S
C1691 C1685 1.390 . S
C1691 C1688 1.386 . S
C1692 C1687 1.490 . S
C1692 C1694 1.395 . S
C1692 C1695 1.403 . S
H1693 C1699 0.930 . S
C1694 H1680 0.930 . S
C1694 C1692 1.395 . S
C1694 C1697 1.403 . S
C1695 C1692 1.403 . S
C1695 C1696 1.524 . S
C1695 C1699 1.400 . S
C1696 H1681 0.960 . S
C1696 H1682 0.960 . S
C1696 H1683 0.960 . S
C1696 C1695 1.524 . S
C1697 C1694 1.403 . S
C1697 C1698 1.392 . S
C1697 C1701 1.495 . S
C1698 C1697 1.392 . S
C1698 C1699 1.385 . S
C1698 C1700 1.478 . S
C1699 H1693 0.930 . S
C1699 C1695 1.400 . S
C1699 C1698 1.385 . S
C1700 C1698 1.478 . S
C1700 C1702 1.408 . S
C1700 C1706 1.383 . S
C1701 C1697 1.495 . S
C1701 H1707 0.959 . S
C1701 H1708 0.961 . S
C1701 H1709 0.960 1_455 S
C1702 C1700 1.408 . S
C1702 C1703 1.395 . S
C1702 H1710 0.903 1_455 S
C1703 C1702 1.395 . S
C1703 C1704 1.383 . S
C1703 H1711 0.929 1_455 S
C1704 C1703 1.383 . S
C1704 C1705 1.377 . S
C1705 H1689 0.930 . S
C1705 C1704 1.377 . S
C1705 C1706 1.379 . S
C1706 H1690 0.931 . S
C1706 C1700 1.383 . S
C1706 C1705 1.379 . S
H1707 C1701 0.959 . S
H1708 C1701 0.961 . S
H1709 C1701 0.960 1_655 S
H1710 C1702 0.903 1_655 S
H1711 C1703 0.929 1_655 S
H1712 C1720 0.929 . S
H1713 C1722 0.930 . S
H1714 C1724 0.930 . S
H1715 C1727 0.929 . S
H1716 C1730 0.930 . S
H1717 C1732 0.960 . S
H1718 C1732 0.960 . S
H1719 C1732 0.960 . S
C1720 H1712 0.929 . S
C1720 C1721 1.377 . S
C1720 C1722 1.384 . S
C1721 C1720 1.377 . S
C1721 C1727 1.390 . S
C1722 H1713 0.930 . S
C1722 C1720 1.384 . S
C1722 C1723 1.372 . S
C1723 C1722 1.372 . S
C1723 C1724 1.400 . S
C1723 C1728 1.490 . S
C1724 H1714 0.930 . S
C1724 C1723 1.400 . S
C1724 C1727 1.386 . S
H1725 C1741 0.930 . S
H1726 C1742 0.931 . S
C1727 H1715 0.929 . S
C1727 C1721 1.390 . S
C1727 C1724 1.386 . S
C1728 C1723 1.490 . S
C1728 C1730 1.395 . S
C1728 C1731 1.403 . S
H1729 C1735 0.930 . S
C1730 H1716 0.930 . S
C1730 C1728 1.395 . S
C1730 C1733 1.403 . S
C1731 C1728 1.403 . S
C1731 C1732 1.524 . S
C1731 C1735 1.400 . S
C1732 H1717 0.960 . S
C1732 H1718 0.960 . S
C1732 H1719 0.960 . S
C1732 C1731 1.524 . S
C1733 C1730 1.403 . S
C1733 C1734 1.392 . S
C1733 C1737 1.495 . S
C1734 C1733 1.392 . S
C1734 C1735 1.385 . S
C1734 C1736 1.478 . S
C1735 H1729 0.930 . S
C1735 C1731 1.400 . S
C1735 C1734 1.385 . S
C1736 C1734 1.478 . S
C1736 C1738 1.381 . S
C1736 C1742 1.383 . S
C1737 C1733 1.495 . S
C1737 H1743 0.959 . S
C1737 H1744 0.961 . S
C1737 H1745 0.960 . S
C1738 C1736 1.381 . S
C1738 C1739 1.394 . S
C1738 H1746 0.930 . S
C1739 C1738 1.394 . S
C1739 C1740 1.383 . S
C1739 H1747 0.929 . S
C1740 C1739 1.383 . S
C1740 C1741 1.377 . S
C1741 H1725 0.930 . S
C1741 C1740 1.377 . S
C1741 C1742 1.379 . S
C1742 H1726 0.931 . S
C1742 C1736 1.383 . S
C1742 C1741 1.379 . S
H1743 C1737 0.959 . S
H1744 C1737 0.961 . S
H1745 C1737 0.960 . S
H1746 C1738 0.930 . S
H1747 C1739 0.929 . S
H1748 C1756 0.929 . S
H1749 C1758 0.930 . S
H1750 C1760 0.930 . S
H1751 C1763 0.929 . S
H1752 C1766 0.930 . S
H1753 C1768 0.960 . S
H1754 C1768 0.960 . S
H1755 C1768 0.960 . S
C1756 H1748 0.929 . S
C1756 C1757 1.377 . S
C1756 C1758 1.384 . S
C1757 C1756 1.377 . S
C1757 C1763 1.390 . S
C1758 H1749 0.930 . S
C1758 C1756 1.384 . S
C1758 C1759 1.372 . S
C1759 C1758 1.372 . S
C1759 C1760 1.400 . S
C1759 C1764 1.490 . S
C1760 H1750 0.930 . S
C1760 C1759 1.400 . S
C1760 C1763 1.386 . S
H1761 C1777 0.930 . S
H1762 C1778 0.931 . S
C1763 H1751 0.929 . S
C1763 C1757 1.390 . S
C1763 C1760 1.386 . S
C1764 C1759 1.490 . S
C1764 C1766 1.395 . S
C1764 C1767 1.403 . S
H1765 C1771 0.930 . S
C1766 H1752 0.930 . S
C1766 C1764 1.395 . S
C1766 C1769 1.403 . S
C1767 C1764 1.403 . S
C1767 C1768 1.524 . S
C1767 C1771 1.400 . S
C1768 H1753 0.960 . S
C1768 H1754 0.960 . S
C1768 H1755 0.960 . S
C1768 C1767 1.524 . S
C1769 C1766 1.403 . S
C1769 C1770 1.392 . S
C1769 C1773 1.495 . S
C1770 C1769 1.392 . S
C1770 C1771 1.385 . S
C1770 C1772 1.478 . S
C1771 H1765 0.930 . S
C1771 C1767 1.400 . S
C1771 C1770 1.385 . S
C1772 C1770 1.478 . S
C1772 C1774 1.381 . S
C1772 C1778 1.383 . S
C1773 C1769 1.495 . S
C1773 H1779 0.959 . S
C1773 H1780 0.961 . S
C1773 H1781 0.960 . S
C1774 C1772 1.381 . S
C1774 C1775 1.394 . S
C1774 H1782 0.930 . S
C1775 C1774 1.394 . S
C1775 C1776 1.383 . S
C1775 H1783 0.929 . S
C1776 C1775 1.383 . S
C1776 C1777 1.377 . S
C1777 H1761 0.930 . S
C1777 C1776 1.377 . S
C1777 C1778 1.379 . S
C1778 H1762 0.931 . S
C1778 C1772 1.383 . S
C1778 C1777 1.379 . S
H1779 C1773 0.959 . S
H1780 C1773 0.961 . S
H1781 C1773 0.960 . S
H1782 C1774 0.930 . S
H1783 C1775 0.929 . S
H1784 C1792 0.929 . S
H1785 C1794 0.930 . S
H1786 C1796 0.930 . S
H1787 C1799 0.929 . S
H1788 C1802 0.930 . S
H1789 C1804 0.960 . S
H1790 C1804 0.960 . S
H1791 C1804 0.960 . S
C1792 H1784 0.929 . S
C1792 C1793 1.377 . S
C1792 C1794 1.384 . S
C1793 C1792 1.377 . S
C1793 C1799 1.390 . S
C1794 H1785 0.930 . S
C1794 C1792 1.384 . S
C1794 C1795 1.372 . S
C1795 C1794 1.372 . S
C1795 C1796 1.400 . S
C1795 C1800 1.490 . S
C1796 H1786 0.930 . S
C1796 C1795 1.400 . S
C1796 C1799 1.386 . S
H1797 C1813 0.930 . S
H1798 C1814 0.931 . S
C1799 H1787 0.929 . S
C1799 C1793 1.390 . S
C1799 C1796 1.386 . S
C1800 C1795 1.490 . S
C1800 C1802 1.395 . S
C1800 C1803 1.403 . S
H1801 C1807 0.930 . S
C1802 H1788 0.930 . S
C1802 C1800 1.395 . S
C1802 C1805 1.403 . S
C1803 C1800 1.403 . S
C1803 C1804 1.524 . S
C1803 C1807 1.400 . S
C1804 H1789 0.960 . S
C1804 H1790 0.960 . S
C1804 H1791 0.960 . S
C1804 C1803 1.524 . S
C1805 C1802 1.403 . S
C1805 C1806 1.392 . S
C1805 C1809 1.495 . S
C1806 C1805 1.392 . S
C1806 C1807 1.385 . S
C1806 C1808 1.478 . S
C1807 H1801 0.930 . S
C1807 C1803 1.400 . S
C1807 C1806 1.385 . S
C1808 C1806 1.478 . S
C1808 C1810 1.381 . S
C1808 C1814 1.383 . S
C1809 C1805 1.495 . S
C1809 H1815 0.959 . S
C1809 H1816 0.961 . S
C1809 H1817 0.960 . S
C1810 C1808 1.381 . S
C1810 C1811 1.394 . S
C1810 H1818 0.930 . S
C1811 C1810 1.394 . S
C1811 C1812 1.383 . S
C1811 H1819 0.929 . S
C1812 C1811 1.383 . S
C1812 C1813 1.377 . S
C1813 H1797 0.930 . S
C1813 C1812 1.377 . S
C1813 C1814 1.379 . S
C1814 H1798 0.931 . S
C1814 C1808 1.383 . S
C1814 C1813 1.379 . S
H1815 C1809 0.959 . S
H1816 C1809 0.961 . S
H1817 C1809 0.960 . S
H1818 C1810 0.930 . S
H1819 C1811 0.929 . S
H1820 C1828 0.929 . S
H1821 C1830 0.930 . S
H1822 C1832 0.930 . S
H1823 C1835 0.929 . S
H1824 C1838 0.930 . S
H1825 C1840 0.960 . S
H1826 C1840 0.960 . S
H1827 C1840 0.960 . S
C1828 H1820 0.929 . S
C1828 C1829 1.377 . S
C1828 C1830 1.384 . S
C1829 C1828 1.377 . S
C1829 C1835 1.390 . S
C1830 H1821 0.930 . S
C1830 C1828 1.384 . S
C1830 C1831 1.372 . S
C1831 C1830 1.372 . S
C1831 C1832 1.400 . S
C1831 C1836 1.490 . S
C1832 H1822 0.930 . S
C1832 C1831 1.400 . S
C1832 C1835 1.386 . S
H1833 C1849 0.930 . S
H1834 C1850 0.931 . S
C1835 H1823 0.929 . S
C1835 C1829 1.390 . S
C1835 C1832 1.386 . S
C1836 C1831 1.490 . S
C1836 C1838 1.395 . S
C1836 C1839 1.403 . S
H1837 C1843 0.930 . S
C1838 H1824 0.930 . S
C1838 C1836 1.395 . S
C1838 C1841 1.403 1_556 S
C1839 C1836 1.403 . S
C1839 C1840 1.524 . S
C1839 C1843 1.400 . S
C1840 H1825 0.960 . S
C1840 H1826 0.960 . S
C1840 H1827 0.960 . S
C1840 C1839 1.524 . S
C1841 C1838 1.403 1_554 S
C1841 C1842 1.392 . S
C1841 C1845 1.495 . S
C1842 C1841 1.392 . S
C1842 C1843 1.385 1_554 S
C1842 C1844 1.478 . S
C1843 H1837 0.930 . S
C1843 C1839 1.400 . S
C1843 C1842 1.385 1_556 S
C1844 C1842 1.478 . S
C1844 C1846 1.381 . S
C1844 C1850 1.383 . S
C1845 C1841 1.495 . S
C1845 H1851 0.959 . S
C1845 H1852 0.961 . S
C1845 H1853 0.960 . S
C1846 C1844 1.381 . S
C1846 C1847 1.394 . S
C1846 H1854 0.930 . S
C1847 C1846 1.394 . S
C1847 C1848 1.383 . S
C1847 H1855 0.929 . S
C1848 C1847 1.383 . S
C1848 C1849 1.377 . S
C1849 H1833 0.930 . S
C1849 C1848 1.377 . S
C1849 C1850 1.379 . S
C1850 H1834 0.931 . S
C1850 C1844 1.383 . S
C1850 C1849 1.379 . S
H1851 C1845 0.959 . S
H1852 C1845 0.961 . S
H1853 C1845 0.960 . S
H1854 C1846 0.930 . S
H1855 C1847 0.929 . S
H1856 C1864 0.929 . S
H1857 C1866 0.930 . S
H1858 C1868 0.930 . S
H1859 C1871 0.929 . S
H1860 C1874 1.020 . S
H1861 C1876 0.960 . S
H1862 C1876 0.960 . S
H1863 C1876 0.960 1_554 S
C1864 H1856 0.929 . S
C1864 C1865 1.377 . S
C1864 C1866 1.384 . S
C1865 C1864 1.377 . S
C1865 C1871 1.390 . S
C1866 H1857 0.930 . S
C1866 C1864 1.384 . S
C1866 C1867 1.372 . S
C1867 C1866 1.372 . S
C1867 C1868 1.400 . S
C1867 C1872 1.490 . S
C1868 H1858 0.930 . S
C1868 C1867 1.400 . S
C1868 C1871 1.386 . S
H1869 C1885 0.930 . S
H1870 C1886 0.931 . S
C1871 H1859 0.929 . S
C1871 C1865 1.390 . S
C1871 C1868 1.386 . S
C1872 C1867 1.490 . S
C1872 C1874 1.414 . S
C1872 C1875 1.403 1_554 S
H1873 C1879 0.930 . S
C1874 H1860 1.020 . S
C1874 C1872 1.414 . S
C1874 C1877 1.310 1_554 S
C1875 C1872 1.403 1_556 S
C1875 C1876 1.524 . S
C1875 C1879 1.400 . S
C1876 H1861 0.960 . S
C1876 H1862 0.960 . S
C1876 H1863 0.960 1_556 S
C1876 C1875 1.524 . S
C1877 C1874 1.310 1_556 S
C1877 C1878 1.392 . S
C1877 C1881 1.495 . S
C1878 C1877 1.392 . S
C1878 C1879 1.385 . S
C1878 C1880 1.478 . S
C1879 H1873 0.930 . S
C1879 C1875 1.400 . S
C1879 C1878 1.385 . S
C1880 C1878 1.478 . S
C1880 C1882 1.381 . S
C1880 C1886 1.383 . S
C1881 C1877 1.495 . S
C1881 H1887 0.959 . S
C1881 H1888 0.961 . S
C1881 H1889 0.960 . S
C1882 C1880 1.381 . S
C1882 C1883 1.394 . S
C1882 H1890 0.930 . S
C1883 C1882 1.394 . S
C1883 C1884 1.383 . S
C1883 H1891 0.929 . S
C1884 C1883 1.383 . S
C1884 C1885 1.377 . S
C1885 H1869 0.930 . S
C1885 C1884 1.377 . S
C1885 C1886 1.379 . S
C1886 H1870 0.931 . S
C1886 C1880 1.383 . S
C1886 C1885 1.379 . S
H1887 C1881 0.959 . S
H1888 C1881 0.961 . S
H1889 C1881 0.960 . S
H1890 C1882 0.930 . S
H1891 C1883 0.929 . S
H1892 C1900 0.929 . S
H1893 C1902 0.930 . S
H1894 C1904 0.930 . S
H1895 C1907 0.929 . S
H1896 C1910 0.930 . S
H1897 C1912 0.960 . S
H1898 C1912 0.960 . S
H1899 C1912 0.960 . S
C1900 H1892 0.929 . S
C1900 C1901 1.377 . S
C1900 C1902 1.384 . S
C1901 C1900 1.377 . S
C1901 C1907 1.390 . S
C1902 H1893 0.930 . S
C1902 C1900 1.384 . S
C1902 C1903 1.372 . S
C1903 C1902 1.372 . S
C1903 C1904 1.400 . S
C1903 C1908 1.490 . S
C1904 H1894 0.930 . S
C1904 C1903 1.400 . S
C1904 C1907 1.386 . S
H1905 C1921 0.930 . S
H1906 C1922 0.931 . S
C1907 H1895 0.929 . S
C1907 C1901 1.390 . S
C1907 C1904 1.386 . S
C1908 C1903 1.490 . S
C1908 C1910 1.395 . S
C1908 C1911 1.403 . S
H1909 C1915 0.930 . S
C1910 H1896 0.930 . S
C1910 C1908 1.395 . S
C1910 C1913 1.403 . S
C1911 C1908 1.403 . S
C1911 C1912 1.524 . S
C1911 C1915 1.400 . S
C1912 H1897 0.960 . S
C1912 H1898 0.960 . S
C1912 H1899 0.960 . S
C1912 C1911 1.524 . S
C1913 C1910 1.403 . S
C1913 C1914 1.392 . S
C1913 C1917 1.495 . S
C1914 C1913 1.392 . S
C1914 C1915 1.385 . S
C1914 C1916 1.478 . S
C1915 H1909 0.930 . S
C1915 C1911 1.400 . S
C1915 C1914 1.385 . S
C1916 C1914 1.478 . S
C1916 C1918 1.381 . S
C1916 C1922 1.383 . S
C1917 C1913 1.495 . S
C1917 H1923 0.959 . S
C1917 H1924 0.961 . S
C1917 H1925 0.960 . S
C1918 C1916 1.381 . S
C1918 C1919 1.394 . S
C1918 H1926 0.930 . S
C1919 C1918 1.394 . S
C1919 C1920 1.383 . S
C1919 H1927 0.929 . S
C1920 C1919 1.383 . S
C1920 C1921 1.377 . S
C1921 H1905 0.930 . S
C1921 C1920 1.377 . S
C1921 C1922 1.379 . S
C1922 H1906 0.931 . S
C1922 C1916 1.383 . S
C1922 C1921 1.379 . S
H1923 C1917 0.959 . S
H1924 C1917 0.961 . S
H1925 C1917 0.960 . S
H1926 C1918 0.930 . S
H1927 C1919 0.929 . S
H1928 C1936 0.929 . S
H1929 C1938 0.930 . S
H1930 C1940 0.930 . S
H1931 C1943 0.929 . S
H1932 C1946 0.930 . S
H1933 C1948 0.960 . S
H1934 C1948 0.960 . S
H1935 C1948 0.960 . S
C1936 H1928 0.929 . S
C1936 C1937 1.377 . S
C1936 C1938 1.384 . S
C1937 C1936 1.377 . S
C1937 C1943 1.390 . S
C1938 H1929 0.930 . S
C1938 C1936 1.384 . S
C1938 C1939 1.372 . S
C1939 C1938 1.372 . S
C1939 C1940 1.400 . S
C1939 C1944 1.490 . S
C1940 H1930 0.930 . S
C1940 C1939 1.400 . S
C1940 C1943 1.386 . S
H1941 C1957 0.930 . S
H1942 C1958 0.931 . S
C1943 H1931 0.929 . S
C1943 C1937 1.390 . S
C1943 C1940 1.386 . S
C1944 C1939 1.490 . S
C1944 C1946 1.395 . S
C1944 C1947 1.403 . S
H1945 C1951 0.930 . S
C1946 H1932 0.930 . S
C1946 C1944 1.395 . S
C1946 C1949 1.403 . S
C1947 C1944 1.403 . S
C1947 C1948 1.524 . S
C1947 C1951 1.400 . S
C1948 H1933 0.960 . S
C1948 H1934 0.960 . S
C1948 H1935 0.960 . S
C1948 C1947 1.524 . S
C1949 C1946 1.403 . S
C1949 C1950 1.392 . S
C1949 C1953 1.495 . S
C1950 C1949 1.392 . S
C1950 C1951 1.385 . S
C1950 C1952 1.478 . S
C1951 H1945 0.930 . S
C1951 C1947 1.400 . S
C1951 C1950 1.385 . S
C1952 C1950 1.478 . S
C1952 C1954 1.381 . S
C1952 C1958 1.383 . S
C1953 C1949 1.495 . S
C1953 H1959 0.959 . S
C1953 H1960 0.961 . S
C1953 H1961 0.960 . S
C1954 C1952 1.381 . S
C1954 C1955 1.394 . S
C1954 H1962 0.930 . S
C1955 C1954 1.394 . S
C1955 C1956 1.383 . S
C1955 H1963 0.929 . S
C1956 C1955 1.383 . S
C1956 C1957 1.377 . S
C1957 H1941 0.930 . S
C1957 C1956 1.377 . S
C1957 C1958 1.379 . S
C1958 H1942 0.931 . S
C1958 C1952 1.383 . S
C1958 C1957 1.379 . S
H1959 C1953 0.959 . S
H1960 C1953 0.961 . S
H1961 C1953 0.960 . S
H1962 C1954 0.930 . S
H1963 C1955 0.929 . S
H1964 C1972 0.929 . S
H1965 C1974 0.930 . S
H1966 C1976 0.930 . S
H1967 C1979 0.929 . S
H1968 C1982 0.930 . S
H1969 C1984 0.960 . S
H1970 C1984 0.960 . S
H1971 C1984 0.960 . S
C1972 H1964 0.929 . S
C1972 C1973 1.377 . S
C1972 C1974 1.384 . S
C1973 C1972 1.377 . S
C1973 C1979 1.390 . S
C1974 H1965 0.930 . S
C1974 C1972 1.384 . S
C1974 C1975 1.372 . S
C1975 C1974 1.372 . S
C1975 C1976 1.400 . S
C1975 C1980 1.490 . S
C1976 H1966 0.930 . S
C1976 C1975 1.400 . S
C1976 C1979 1.386 . S
H1977 C1993 0.930 . S
H1978 C1994 0.931 . S
C1979 H1967 0.929 . S
C1979 C1973 1.390 . S
C1979 C1976 1.386 . S
C1980 C1975 1.490 . S
C1980 C1982 1.395 . S
C1980 C1983 1.403 . S
H1981 C1987 0.930 . S
C1982 H1968 0.930 . S
C1982 C1980 1.395 . S
C1982 C1985 1.403 . S
C1983 C1980 1.403 . S
C1983 C1984 1.524 . S
C1983 C1987 1.400 . S
C1984 H1969 0.960 . S
C1984 H1970 0.960 . S
C1984 H1971 0.960 . S
C1984 C1983 1.524 . S
C1985 C1982 1.403 . S
C1985 C1986 1.392 . S
C1985 C1989 1.495 . S
C1986 C1985 1.392 . S
C1986 C1987 1.385 . S
C1986 C1988 1.478 . S
C1987 H1981 0.930 . S
C1987 C1983 1.400 . S
C1987 C1986 1.385 . S
C1988 C1986 1.478 . S
C1988 C1990 1.381 . S
C1988 C1994 1.383 . S
C1989 C1985 1.495 . S
C1989 H1995 0.959 . S
C1989 H1996 0.961 . S
C1989 H1997 0.960 . S
C1990 C1988 1.381 . S
C1990 C1991 1.394 . S
C1990 H1998 0.930 . S
C1991 C1990 1.394 . S
C1991 C1992 1.383 . S
C1991 H1999 0.929 . S
C1992 C1991 1.383 . S
C1992 C1993 1.377 . S
C1993 H1977 0.930 . S
C1993 C1992 1.377 . S
C1993 C1994 1.379 . S
C1994 H1978 0.931 . S
C1994 C1988 1.383 . S
C1994 C1993 1.379 . S
H1995 C1989 0.959 . S
H1996 C1989 0.961 . S
H1997 C1989 0.960 . S
H1998 C1990 0.930 . S
H1999 C1991 0.929 . S
C857 C569 2.485 . S
C876 C39 2.482 . S
C893 C75 2.267 . S
C912 C605 2.264 . S
C929 C463 2.488 . S
C948 C145 2.492 . S
C965 C499 2.266 . S
C984 C181 2.254 . S
C1001 C251 2.490 . S
C1020 C781 2.489 . S
C1037 C817 2.266 . S
C1056 C287 2.255 . S
C1073 C357 2.485 . S
C1092 C675 2.478 . S
C1109 C711 2.263 . S
C1128 C393 2.263 . S
C1145 C568 1.089 . S
C1164 C38 1.058 . S
C1181 C82 0.840 . S
C1200 C612 0.846 . S
C1217 C144 1.087 . S
C1236 C462 1.055 . S
C1253 C188 0.847 . S
C1272 C506 0.817 . S
C1289 C250 1.082 . S
C1308 C780 1.102 . S
C1325 C294 0.843 . S
C1344 C824 0.815 . S
C1361 C674 1.085 . S
C1380 C356 1.113 . S
C1397 C718 0.844 . S
C1416 C400 0.872 . S
C1433 C22 1.924 . S
C1452 C340 1.924 . S
C1469 C92 1.837 . S
C1488 C410 1.824 . S
C1505 C128 1.924 . S
C1524 C234 1.919 . S
C1541 C198 1.843 . S
C1560 C304 1.852 . S
C1577 C446 1.922 . S
C1596 C764 1.915 . S
C1613 C834 1.836 . S
C1632 C516 1.819 . S
C1649 C552 1.921 . S
C1668 C658 1.905 . S
C1685 C728 1.843 . S
C1704 C622 1.852 . S
C1721 C29 1.921 . S
C1740 C833 1.918 . S
C1757 C665 1.917 . S
C1776 C91 1.928 . S
C1793 C727 1.923 . S
C1812 C135 1.902 . S
C1829 C771 1.920 . S
C1848 C197 1.911 . S
C1865 C515 1.926 . S
C1884 C241 1.918 . S
C1901 C559 1.918 . S
C1920 C303 1.908 . S
C1937 C347 1.921 . S
C1956 C621 1.911 . S
C1973 C409 1.923 . S
C1992 C453 1.928 . S
