# Generated by pormake.
# Topology zfu, (5)-cn, num edge types: 1
# Building blocks:
#     Node 0, Type 0, BuildingBlock: XOMCOT_clean_sbu_0, # of connection points: 5
#     Node 1, Type 0, BuildingBlock: XOMCOT_clean_sbu_0, # of connection points: 5
#     Node 2, Type 0, BuildingBlock: XOMCOT_clean_sbu_0, # of connection points: 5
#     Node 3, Type 0, BuildingBlock: XOMCOT_clean_sbu_0, # of connection points: 5
#     Node 4, Type 0, BuildingBlock: XOMCOT_clean_sbu_0, # of connection points: 5
#     Node 5, Type 0, BuildingBlock: XOMCOT_clean_sbu_0, # of connection points: 5
#     Node 6, Type 0, BuildingBlock: XOMCOT_clean_sbu_0, # of connection points: 5
#     Node 7, Type 0, BuildingBlock: XOMCOT_clean_sbu_0, # of connection points: 5
#     Edge 8, Type (0, 0), None
#     Edge 9, Type (0, 0), None
#     Edge 10, Type (0, 0), None
#     Edge 11, Type (0, 0), None
#     Edge 12, Type (0, 0), None
#     Edge 13, Type (0, 0), None
#     Edge 14, Type (0, 0), None
#     Edge 15, Type (0, 0), None
#     Edge 16, Type (0, 0), None
#     Edge 17, Type (0, 0), None
#     Edge 18, Type (0, 0), None
#     Edge 19, Type (0, 0), None
#     Edge 20, Type (0, 0), None
#     Edge 21, Type (0, 0), None
#     Edge 22, Type (0, 0), None
#     Edge 23, Type (0, 0), None
#     Edge 24, Type (0, 0), None
#     Edge 25, Type (0, 0), None
#     Edge 26, Type (0, 0), None
#     Edge 27, Type (0, 0), None
# Relax obj value: 0.208
# Max RMSD: 0.197
# Mean RMSD: 0.197
data_MOF--net-zfu--node1-XOMCOT_clean_sbu_0--edge1-none
_symmetry_space_group_name_H-M    P1
_symmetry_Int_Tables_number       1
_symmetry_cell_setting            triclinic
loop_
_symmetry_equiv_pos_as_xyz
'x, y, z'
_cell_length_a     21.098882
_cell_length_b     21.054557
_cell_length_c     11.8676
_cell_angle_alpha  90.000047
_cell_angle_beta   89.999521
_cell_angle_gamma 89.999999
loop_
_atom_site_label
_atom_site_type_symbol
_atom_site_fract_x
_atom_site_fract_y
_atom_site_fract_z
_atom_type_partial_charge
Co0 Co 0.46019 0.77359 1.00502 0.0
C1 C 0.55216 0.67526 0.09853 0.0
C2 C 0.52672 0.66144 0.92606 0.0
C3 C 0.57259 0.61785 0.95216 0.0
N4 N 0.51149 0.69642 1.01832 0.0
N5 N 0.58815 0.62676 0.0602 0.0
H6 H 0.5592 0.69684 0.18009 0.0
H7 H 0.50853 0.66895 0.8421 0.0
C8 C 0.38027 0.67851 0.88934 0.0
O9 O 0.38168 0.64793 0.98562 0.0
N10 N 0.41311 0.85091 0.97597 0.0
C11 C 0.39721 0.89149 0.05785 0.0
C12 C 0.36824 0.94224 1.01042 0.0
C13 C 0.39301 0.87816 0.87717 0.0
N14 N 0.36485 0.9352 0.8966 0.0
C15 C 0.41738 0.73152 0.21602 0.0
C16 C 0.29045 0.75652 0.1914 0.0
C17 C 0.31573 0.74624 0.29954 0.0
C18 C 0.38071 0.73801 0.31078 0.0
C19 C 0.33176 0.75979 0.09841 0.0
N20 N 0.39495 0.74635 0.11143 0.0
H21 H 0.46598 0.72046 0.23022 0.0
H22 H 0.31324 0.7729 1.01668 0.0
H23 H 0.40593 0.8846 0.1468 0.0
H24 H 0.39945 0.8573 0.79462 0.0
O25 O 0.49964 0.81178 0.13148 0.0
O26 O 0.5452 0.82199 0.97338 0.0
O27 O 0.41335 0.72995 0.87506 0.0
C28 C 0.54668 0.8333 0.08148 0.0
H29 H 0.59305 0.58267 0.89648 0.0
H30 H 0.35031 0.98221 0.05845 0.0
H31 H 0.23974 0.76019 0.17893 0.0
H32 H 0.40178 0.72692 0.39193 0.0
Co33 Co 0.75062 0.95982 0.26088 0.0
C34 C 0.84967 0.05085 0.35779 0.0
C35 C 0.86026 0.02911 0.18294 0.0
C36 C 0.90435 0.07433 0.20958 0.0
N37 N 0.8269 1.01204 0.27595 0.0
N38 N 0.8975 0.08759 0.31906 0.0
H39 H 0.82983 0.05631 0.44096 0.0
H40 H 0.85135 1.01235 0.09843 0.0
C41 C 0.84783 0.88119 0.14755 0.0
O42 O 0.87775 0.88296 0.24441 0.0
N43 N 0.67453 0.91155 0.22959 0.0
C44 C 0.63424 0.89361 0.31045 0.0
C45 C 0.5846 0.86363 0.26138 0.0
C46 C 0.6483 0.89174 0.1298 0.0
N47 N 0.59213 0.86176 0.14755 0.0
C48 C 0.78864 0.91784 0.47475 0.0
C49 C 0.77284 0.78949 0.44692 0.0
C50 C 0.78028 0.81484 0.55582 0.0
C51 C 0.78301 0.88025 0.56855 0.0
C52 C 0.76772 0.83116 0.35449 0.0
N53 N 0.77758 0.89505 0.36885 0.0
H54 H 0.79634 0.96701 0.49061 0.0
H55 H 0.75666 0.8123 0.27203 0.0
H56 H 0.64058 0.90171 0.39972 0.0
H57 H 0.6692 0.89976 1.04776 0.0
O58 O 0.71008 0.99958 0.38431 0.0
O59 O 0.70258 0.0445 0.22481 0.0
O60 O 0.79604 0.91342 0.13247 0.0
C61 C 0.68966 0.04658 0.33241 0.0
H62 H 0.93856 0.09585 0.15335 0.0
H63 H 0.54499 0.8441 0.30817 0.0
H64 H 0.77289 0.73862 0.43348 0.0
H65 H 0.79128 0.90167 0.65051 0.0
Co66 Co 0.56575 0.2545 0.50504 0.0
C67 C 0.47378 0.35283 0.59854 0.0
C68 C 0.49921 0.36664 0.42607 0.0
C69 C 0.45334 0.41023 0.45216 0.0
N70 N 0.51444 0.33167 0.51833 0.0
N71 N 0.43778 0.40133 0.5602 0.0
H72 H 0.46674 0.33126 0.68011 0.0
H73 H 0.51739 0.35913 0.3421 0.0
C74 C 0.64566 0.34959 0.38935 0.0
O75 O 0.64425 0.38017 0.48563 0.0
N76 N 0.61283 0.17719 0.47598 0.0
C77 C 0.62875 0.13661 0.55787 0.0
C78 C 0.65772 0.08586 0.51044 0.0
C79 C 0.63292 0.14993 0.37718 0.0
N80 N 0.6611 0.0929 0.39661 0.0
C81 C 0.60855 0.29657 0.71603 0.0
C82 C 0.73549 0.27158 0.6914 0.0
C83 C 0.7102 0.28186 0.79954 0.0
C84 C 0.64523 0.29008 0.81079 0.0
C85 C 0.69417 0.26832 0.59842 0.0
N86 N 0.63098 0.28175 0.61144 0.0
H87 H 0.55996 0.30763 0.73024 0.0
H88 H 0.71269 0.25521 0.51668 0.0
H89 H 0.62003 0.14351 0.64682 0.0
H90 H 0.62646 0.17077 0.29463 0.0
O91 O 0.52629 0.21631 0.63149 0.0
O92 O 0.48074 0.2061 0.47339 0.0
O93 O 0.61258 0.29814 0.37507 0.0
C94 C 0.47926 0.19479 0.58149 0.0
H95 H 0.43287 0.4454 0.39648 0.0
H96 H 0.67566 0.0459 0.55846 0.0
H97 H 0.7862 0.26791 0.67893 0.0
H98 H 0.62415 0.30117 0.89194 0.0
Co99 Co 0.27531 0.06827 0.76088 0.0
C100 C 0.17625 0.97724 0.85778 0.0
C101 C 0.16566 0.99898 0.68293 0.0
C102 C 0.12158 0.95376 0.70957 0.0
N103 N 0.19903 0.01605 0.77593 0.0
N104 N 0.12843 0.9405 0.81904 0.0
H105 H 0.1961 0.97178 0.94094 0.0
H106 H 0.17458 0.01575 0.59842 0.0
C107 C 0.1781 0.14691 0.64754 0.0
O108 O 0.14818 0.14513 0.74441 0.0
N109 N 0.3514 0.11654 0.72959 0.0
C110 C 0.39169 0.13447 0.81045 0.0
C111 C 0.44133 0.16445 0.76139 0.0
C112 C 0.37763 0.13634 0.62981 0.0
N113 N 0.4338 0.16632 0.64755 0.0
C114 C 0.23728 0.11024 0.97474 0.0
C115 C 0.25309 0.2386 0.94692 0.0
C116 C 0.24565 0.21325 0.05582 0.0
C117 C 0.24292 0.14783 0.06854 0.0
C118 C 0.25821 0.19693 0.85449 0.0
N119 N 0.24835 0.13304 0.86885 0.0
H120 H 0.22958 0.06108 0.9906 0.0
H121 H 0.26927 0.21579 0.77203 0.0
H122 H 0.38536 0.12636 0.89973 0.0
H123 H 0.35674 0.12833 0.54776 0.0
O124 O 0.31584 0.0285 0.8843 0.0
O125 O 0.32336 0.98359 0.7248 0.0
O126 O 0.22989 0.11467 0.63246 0.0
C127 C 0.33625 0.9815 0.8324 0.0
H128 H 0.08736 0.93225 0.65334 0.0
H129 H 0.48095 0.18397 0.80818 0.0
H130 H 0.25305 0.28947 0.93348 0.0
H131 H 0.23464 0.12642 0.15051 0.0
Co132 Co 0.96017 0.75451 0.938 0.0
C133 C 0.05211 0.85284 0.84442 0.0
C134 C 0.02666 0.86672 1.01687 0.0
C135 C 0.0725 0.91032 0.99073 0.0
N136 N 1.01145 0.83169 0.92465 0.0
N137 N 0.08804 0.9014 0.88268 0.0
H138 H 0.05921 0.8312 0.76292 0.0
H139 H 1.00848 0.85922 0.10084 0.0
C140 C 0.88022 0.84961 0.0536 0.0
O141 O 0.88161 0.88017 0.95731 0.0
N142 N 0.9131 0.67719 0.96709 0.0
C143 C 0.8972 0.63661 0.88521 0.0
C144 C 0.86823 0.58585 0.93265 0.0
C145 C 0.89299 0.64994 0.0659 0.0
N146 N 0.86484 0.5929 1.04648 0.0
C147 C 0.9174 0.79651 0.72694 0.0
C148 C 0.79044 0.77154 0.75153 0.0
C149 C 0.81578 0.78175 0.64342 0.0
C150 C 0.88075 0.78996 0.63215 0.0
C151 C 0.83174 0.7683 0.84454 0.0
N152 N 0.89494 0.78172 0.83153 0.0
H153 H 0.96599 0.80758 0.71275 0.0
H154 H 0.81321 0.75522 0.92629 0.0
H155 H 0.90592 0.64349 0.79627 0.0
H156 H 0.89944 0.6708 0.14844 0.0
O157 O 0.99964 0.7163 0.81157 0.0
O158 O 0.04519 0.70613 0.96967 0.0
O159 O 0.91332 0.79818 0.06792 0.0
C160 C 0.04667 0.6948 0.86158 0.0
H161 H 0.09298 0.9455 1.04639 0.0
H162 H 0.85031 0.54588 0.88463 0.0
H163 H 0.73973 0.7679 0.76396 0.0
H164 H 0.90184 0.80102 0.551 0.0
Co165 Co 0.7753 0.4598 0.18216 0.0
C166 C 0.67628 0.55084 0.0852 0.0
C167 C 0.66558 0.52905 0.26001 0.0
C168 C 0.62149 0.57426 0.23332 0.0
N169 N 0.69901 0.51202 0.16705 0.0
N170 N 0.62838 0.58751 0.12385 0.0
H171 H 0.6962 0.55636 1.00211 0.0
H172 H 0.67447 0.51227 0.34453 0.0
C173 C 0.67807 0.38114 0.29541 0.0
O174 O 0.64818 0.3829 0.19853 0.0
N175 N 0.85138 0.41154 0.21349 0.0
C176 C 0.89168 0.39361 0.13263 0.0
C177 C 0.94132 0.36363 0.1817 0.0
C178 C 0.87761 0.39173 0.31327 0.0
N179 N 0.93379 0.36175 0.29553 0.0
C180 C 0.73733 0.41787 0.96824 0.0
C181 C 0.75311 0.2895 0.99601 0.0
C182 C 0.74575 0.31491 0.88715 0.0
C183 C 0.74302 0.38031 0.87441 0.0
C184 C 0.75821 0.33115 0.08847 0.0
N185 N 0.74837 0.39505 0.07413 0.0
H186 H 0.72962 0.46704 0.95241 0.0
H187 H 0.76924 0.31228 0.17093 0.0
H188 H 0.88536 0.40172 1.04335 0.0
H189 H 0.85671 0.39974 0.39532 0.0
O190 O 0.81586 0.49958 0.05877 0.0
O191 O 0.82333 0.5445 0.21826 0.0
O192 O 0.72985 0.41339 0.31053 0.0
C193 C 0.83625 0.54659 0.11067 0.0
H194 H 0.58726 0.59577 0.28952 0.0
H195 H 0.98094 0.34411 0.13491 0.0
H196 H 0.75304 0.23862 1.00939 0.0
H197 H 0.73477 0.40174 0.79244 0.0
Co198 Co 0.06576 0.27358 0.438 0.0
C199 C 0.97381 0.17525 0.34444 0.0
C200 C 0.99928 0.16137 0.51688 0.0
C201 C 0.95343 0.11776 0.49074 0.0
N202 N 0.01448 0.19639 0.42466 0.0
N203 N 0.93789 0.12669 0.3827 0.0
H204 H 0.96672 0.19689 0.26294 0.0
H205 H 0.01745 0.16887 0.60085 0.0
C206 C 0.14571 0.17849 0.5536 0.0
O207 O 0.14433 0.14793 0.4573 0.0
N208 N 0.11283 0.3509 0.46709 0.0
C209 C 0.12872 0.39149 0.38521 0.0
C210 C 0.15768 0.44225 0.43265 0.0
C211 C 0.13293 0.37815 0.56589 0.0
N212 N 0.16108 0.4352 0.54647 0.0
C213 C 0.10853 0.23158 0.22694 0.0
C214 C 0.23549 0.25655 0.25153 0.0
C215 C 0.21015 0.24634 0.14342 0.0
C216 C 0.14518 0.23812 0.13215 0.0
C217 C 0.19418 0.2598 0.34454 0.0
N218 N 0.13099 0.24637 0.33154 0.0
H219 H 0.05994 0.22051 0.21276 0.0
H220 H 0.21272 0.27288 0.42628 0.0
H221 H 0.12 0.38461 0.29627 0.0
H222 H 0.1265 0.35729 0.64844 0.0
O223 O 0.02629 0.31179 0.31158 0.0
O224 O 0.98073 0.32196 0.46968 0.0
O225 O 0.11261 0.22992 0.56792 0.0
C226 C 0.97925 0.33328 0.36159 0.0
H227 H 0.93296 0.08258 0.5464 0.0
H228 H 0.1756 0.48222 0.38463 0.0
H229 H 0.2862 0.2602 0.26395 0.0
H230 H 0.12409 0.22707 1.051 0.0
Co231 Co 0.25063 0.56829 0.68216 0.0
C232 C 0.34965 0.47725 0.58519 0.0
C233 C 0.36034 0.49904 0.76001 0.0
C234 C 0.40443 0.45383 0.73332 0.0
N235 N 0.32691 0.51607 0.66705 0.0
N236 N 0.39755 0.44058 0.62385 0.0
H237 H 0.32974 0.47173 0.5021 0.0
H238 H 0.35145 0.51581 0.84453 0.0
C239 C 0.34786 0.64695 0.7954 0.0
O240 O 0.37776 0.64519 0.69852 0.0
N241 N 0.17455 0.61656 0.71348 0.0
C242 C 0.13425 0.63449 0.63262 0.0
C243 C 0.08461 0.66447 0.68169 0.0
C244 C 0.14831 0.63636 0.81326 0.0
N245 N 0.09214 0.66634 0.79552 0.0
C246 C 0.2886 0.61022 0.46823 0.0
C247 C 0.27282 0.7386 0.49601 0.0
C248 C 0.28019 0.71319 0.38714 0.0
C249 C 0.28292 0.64778 0.3744 0.0
C250 C 0.26772 0.69694 0.58847 0.0
N251 N 0.27756 0.63304 0.57412 0.0
H252 H 0.29631 0.56106 0.4524 0.0
H253 H 0.25669 0.71582 0.67092 0.0
H254 H 0.14058 0.62639 0.54334 0.0
H255 H 0.16921 0.62835 0.89531 0.0
O256 O 0.21007 0.52851 0.55876 0.0
O257 O 0.20259 0.4836 0.71826 0.0
O258 O 0.29607 0.6147 0.81052 0.0
C259 C 0.18968 0.48151 0.61066 0.0
H260 H 0.43866 0.43231 0.78952 0.0
H261 H 0.045 0.684 0.6349 0.0
H262 H 0.2729 0.78947 0.50939 0.0
H263 H 0.29116 0.62635 0.29244 0.0
loop_
_geom_bond_atom_site_label_1
_geom_bond_atom_site_label_2
_geom_bond_distance
_geom_bond_site_symmetry_2
_ccdc_geom_bond_type
Co0 N4 2.148 . S
Co0 N10 2.128 . S
Co0 N20 2.194 1_556 S
Co0 O25 2.351 1_556 S
Co0 O26 2.155 . S
Co0 O27 2.096 . S
C1 N4 1.301 1_554 S
C1 N5 1.328 . S
C1 H6 0.930 . S
C2 C3 1.333 . S
C2 N4 1.317 . S
C2 H7 0.930 . S
C3 C2 1.333 . S
C3 N5 1.350 1_556 S
C3 H29 0.931 . S
N4 Co0 2.148 . S
N4 C1 1.301 1_556 S
N4 C2 1.317 . S
N5 C1 1.328 . S
N5 C3 1.350 1_554 S
H6 C1 0.930 . S
H7 C2 0.930 . S
C8 O9 1.224 . S
C8 O27 1.247 . S
O9 C8 1.224 . S
N10 Co0 2.128 . S
N10 C11 1.355 1_556 S
N10 C13 1.311 . S
C11 N10 1.355 1_554 S
C11 C12 1.363 . S
C11 H23 0.929 . S
C12 C11 1.363 . S
C12 N14 1.375 1_554 S
C12 H30 0.931 . S
C13 N10 1.311 . S
C13 N14 1.347 . S
C13 H24 0.929 . S
N14 C12 1.375 1_556 S
N14 C13 1.347 . S
C15 C18 1.365 . S
C15 N20 1.328 . S
C15 H21 0.929 . S
C16 C17 1.362 . S
C16 C19 1.378 . S
C16 H31 0.929 . S
C17 C16 1.362 . S
C17 C18 1.366 . S
C18 C15 1.365 . S
C18 C17 1.366 . S
C18 H32 0.930 . S
C19 C16 1.378 . S
C19 N20 1.315 . S
C19 H22 0.930 . S
N20 Co0 2.194 1_554 S
N20 C15 1.328 . S
N20 C19 1.315 . S
H21 C15 0.929 . S
H22 C19 0.930 . S
H23 C11 0.929 . S
H24 C13 0.929 . S
O25 Co0 2.351 1_554 S
O25 C28 1.244 . S
O26 Co0 2.155 . S
O26 C28 1.240 1_556 S
O27 Co0 2.096 . S
O27 C8 1.247 . S
C28 O25 1.244 . S
C28 O26 1.240 1_554 S
H29 C3 0.931 . S
H30 C12 0.931 . S
H31 C16 0.929 . S
H32 C18 0.930 . S
Co33 N37 2.148 . S
Co33 N43 2.128 . S
Co33 N53 2.194 . S
Co33 O58 2.351 1_565 S
Co33 O59 2.155 1_565 S
Co33 O60 2.096 . S
C34 N37 1.301 1_545 S
C34 N38 1.328 . S
C34 H39 0.930 . S
C35 C36 1.327 1_565 S
C35 N37 1.317 . S
C35 H40 0.935 . S
C36 C35 1.327 1_545 S
C36 N38 1.350 . S
C36 H62 0.931 . S
N37 Co33 2.148 . S
N37 C34 1.301 1_565 S
N37 C35 1.317 . S
N38 C34 1.328 . S
N38 C36 1.350 . S
H39 C34 0.930 . S
H40 C35 0.935 . S
C41 O42 1.224 . S
C41 O60 1.247 . S
O42 C41 1.224 . S
N43 Co33 2.128 . S
N43 C44 1.355 . S
N43 C46 1.311 . S
C44 N43 1.355 . S
C44 C45 1.363 . S
C44 H56 0.929 . S
C45 C44 1.363 . S
C45 N47 1.375 . S
C45 H63 0.931 . S
C46 N43 1.311 . S
C46 N47 1.347 . S
C46 H57 0.929 . S
N47 C45 1.375 . S
N47 C46 1.347 . S
C48 C51 1.365 . S
C48 N53 1.328 . S
C48 H54 0.929 . S
C49 C50 1.362 . S
C49 C52 1.378 . S
C49 H64 0.929 . S
C50 C49 1.362 . S
C50 C51 1.366 . S
C51 C48 1.365 . S
C51 C50 1.366 . S
C51 H65 0.930 . S
C52 C49 1.378 . S
C52 N53 1.315 . S
C52 H55 0.930 . S
N53 Co33 2.194 . S
N53 C48 1.328 . S
N53 C52 1.315 . S
H54 C48 0.929 . S
H55 C52 0.930 . S
H56 C44 0.929 . S
H57 C46 0.929 . S
O58 Co33 2.351 1_545 S
O58 C61 1.244 . S
O59 Co33 2.155 1_545 S
O59 C61 1.240 . S
O60 Co33 2.096 . S
O60 C41 1.247 . S
C61 O58 1.244 . S
C61 O59 1.240 . S
H62 C36 0.931 . S
H63 C45 0.931 . S
H64 C49 0.929 . S
H65 C51 0.930 . S
Co66 N70 2.148 . S
Co66 N76 2.128 . S
Co66 N86 2.194 . S
Co66 O91 2.351 . S
Co66 O92 2.155 . S
Co66 O93 2.096 . S
C67 N70 1.301 . S
C67 N71 1.328 . S
C67 H72 0.930 . S
C68 C69 1.333 . S
C68 N70 1.317 . S
C68 H73 0.930 . S
C69 C68 1.333 . S
C69 N71 1.350 . S
C69 H95 0.931 . S
N70 Co66 2.148 . S
N70 C67 1.301 . S
N70 C68 1.317 . S
N71 C67 1.328 . S
N71 C69 1.350 . S
H72 C67 0.930 . S
H73 C68 0.930 . S
C74 O75 1.224 . S
C74 O93 1.247 . S
O75 C74 1.224 . S
N76 Co66 2.128 . S
N76 C77 1.355 . S
N76 C79 1.311 . S
C77 N76 1.355 . S
C77 C78 1.363 . S
C77 H89 0.929 . S
C78 C77 1.363 . S
C78 N80 1.375 . S
C78 H96 0.931 . S
C79 N76 1.311 . S
C79 N80 1.347 . S
C79 H90 0.929 . S
N80 C78 1.375 . S
N80 C79 1.347 . S
C81 C84 1.365 . S
C81 N86 1.328 . S
C81 H87 0.929 . S
C82 C83 1.362 . S
C82 C85 1.378 . S
C82 H97 0.929 . S
C83 C82 1.362 . S
C83 C84 1.366 . S
C84 C81 1.365 . S
C84 C83 1.366 . S
C84 H98 0.930 . S
C85 C82 1.378 . S
C85 N86 1.315 . S
C85 H88 0.930 . S
N86 Co66 2.194 . S
N86 C81 1.328 . S
N86 C85 1.315 . S
H87 C81 0.929 . S
H88 C85 0.930 . S
H89 C77 0.929 . S
H90 C79 0.929 . S
O91 Co66 2.351 . S
O91 C94 1.244 . S
O92 Co66 2.155 . S
O92 C94 1.240 . S
O93 Co66 2.096 . S
O93 C74 1.247 . S
C94 O91 1.244 . S
C94 O92 1.240 . S
H95 C69 0.931 . S
H96 C78 0.931 . S
H97 C82 0.929 . S
H98 C84 0.930 . S
Co99 N103 2.148 . S
Co99 N109 2.128 . S
Co99 N119 2.194 . S
Co99 O124 2.351 1_545 S
Co99 O125 2.155 1_545 S
Co99 O126 2.096 . S
C100 N103 1.301 1_565 S
C100 N104 1.328 . S
C100 H105 0.930 . S
C101 C102 1.327 1_545 S
C101 N103 1.317 . S
C101 H106 0.935 . S
C102 C101 1.327 1_565 S
C102 N104 1.350 . S
C102 H128 0.931 . S
N103 Co99 2.148 . S
N103 C100 1.301 1_545 S
N103 C101 1.317 . S
N104 C100 1.328 . S
N104 C102 1.350 . S
H105 C100 0.930 . S
H106 C101 0.935 . S
C107 O108 1.224 . S
C107 O126 1.247 . S
O108 C107 1.224 . S
N109 Co99 2.128 . S
N109 C110 1.355 . S
N109 C112 1.311 . S
C110 N109 1.355 . S
C110 C111 1.363 . S
C110 H122 0.929 . S
C111 C110 1.363 . S
C111 N113 1.375 . S
C111 H129 0.931 . S
C112 N109 1.311 . S
C112 N113 1.347 . S
C112 H123 0.929 . S
N113 C111 1.375 . S
N113 C112 1.347 . S
C114 C117 1.365 1_556 S
C114 N119 1.328 . S
C114 H120 0.929 . S
C115 C116 1.362 1_556 S
C115 C118 1.378 . S
C115 H130 0.929 . S
C116 C115 1.362 1_554 S
C116 C117 1.366 . S
C117 C114 1.365 1_554 S
C117 C116 1.366 . S
C117 H131 0.930 . S
C118 C115 1.378 . S
C118 N119 1.315 . S
C118 H121 0.930 . S
N119 Co99 2.194 . S
N119 C114 1.328 . S
N119 C118 1.315 . S
H120 C114 0.929 . S
H121 C118 0.930 . S
H122 C110 0.929 . S
H123 C112 0.929 . S
O124 Co99 2.351 1_565 S
O124 C127 1.244 . S
O125 Co99 2.155 1_565 S
O125 C127 1.240 . S
O126 Co99 2.096 . S
O126 C107 1.247 . S
C127 O124 1.244 . S
C127 O125 1.240 . S
H128 C102 0.931 . S
H129 C111 0.931 . S
H130 C115 0.929 . S
H131 C117 0.930 . S
Co132 N136 2.148 . S
Co132 N142 2.128 . S
Co132 N152 2.194 . S
Co132 O157 2.351 1_655 S
Co132 O158 2.155 1_655 S
Co132 O159 2.096 1_556 S
C133 N136 1.301 1_455 S
C133 N137 1.328 . S
C133 H138 0.930 . S
C134 C135 1.327 1_655 S
C134 N136 1.317 . S
C134 H139 0.935 . S
C135 C134 1.327 1_455 S
C135 N137 1.350 . S
C135 H161 0.931 . S
N136 Co132 2.148 . S
N136 C133 1.301 1_655 S
N136 C134 1.317 . S
N137 C133 1.328 . S
N137 C135 1.350 . S
H138 C133 0.930 . S
H139 C134 0.935 . S
C140 O141 1.224 1_554 S
C140 O159 1.247 . S
O141 C140 1.224 1_556 S
N142 Co132 2.128 . S
N142 C143 1.355 . S
N142 C145 1.311 . S
C143 N142 1.355 . S
C143 C144 1.363 . S
C143 H155 0.929 . S
C144 C143 1.363 . S
C144 N146 1.375 . S
C144 H162 0.931 . S
C145 N142 1.311 . S
C145 N146 1.347 . S
C145 H156 0.929 1_556 S
N146 C144 1.375 . S
N146 C145 1.347 . S
C147 C150 1.365 . S
C147 N152 1.328 . S
C147 H153 0.929 . S
C148 C149 1.362 . S
C148 C151 1.378 . S
C148 H163 0.929 . S
C149 C148 1.362 . S
C149 C150 1.366 . S
C150 C147 1.365 . S
C150 C149 1.366 . S
C150 H164 0.930 . S
C151 C148 1.378 . S
C151 N152 1.315 . S
C151 H154 0.930 . S
N152 Co132 2.194 . S
N152 C147 1.328 . S
N152 C151 1.315 . S
H153 C147 0.929 . S
H154 C151 0.930 . S
H155 C143 0.929 . S
H156 C145 0.929 1_554 S
O157 Co132 2.351 1_455 S
O157 C160 1.244 . S
O158 Co132 2.155 1_455 S
O158 C160 1.240 . S
O159 Co132 2.096 1_554 S
O159 C140 1.247 . S
C160 O157 1.244 . S
C160 O158 1.240 . S
H161 C135 0.931 . S
H162 C144 0.931 . S
H163 C148 0.929 . S
H164 C150 0.930 . S
Co165 N169 2.148 . S
Co165 N175 2.128 . S
Co165 N185 2.194 1_554 S
Co165 O190 2.351 . S
Co165 O191 2.155 . S
Co165 O192 2.096 . S
C166 N169 1.301 . S
C166 N170 1.328 . S
C166 H171 0.930 1_554 S
C167 C168 1.333 . S
C167 N169 1.317 . S
C167 H172 0.930 . S
C168 C167 1.333 . S
C168 N170 1.350 . S
C168 H194 0.931 . S
N169 Co165 2.148 . S
N169 C166 1.301 . S
N169 C167 1.317 . S
N170 C166 1.328 . S
N170 C168 1.350 . S
H171 C166 0.930 1_556 S
H172 C167 0.930 . S
C173 O174 1.224 . S
C173 O192 1.247 . S
O174 C173 1.224 . S
N175 Co165 2.128 . S
N175 C176 1.355 . S
N175 C178 1.311 . S
C176 N175 1.355 . S
C176 C177 1.363 . S
C176 H188 0.929 1_554 S
C177 C176 1.363 . S
C177 N179 1.375 . S
C177 H195 0.931 . S
C178 N175 1.311 . S
C178 N179 1.347 . S
C178 H189 0.929 . S
N179 C177 1.375 . S
N179 C178 1.347 . S
C180 C183 1.365 . S
C180 N185 1.328 . S
C180 H186 0.929 . S
C181 C182 1.362 . S
C181 C184 1.378 . S
C181 H196 0.929 . S
C182 C181 1.362 . S
C182 C183 1.366 . S
C183 C180 1.365 . S
C183 C182 1.366 . S
C183 H197 0.930 . S
C184 C181 1.378 . S
C184 N185 1.315 . S
C184 H187 0.930 1_556 S
N185 Co165 2.194 1_556 S
N185 C180 1.328 . S
N185 C184 1.315 . S
H186 C180 0.929 . S
H187 C184 0.930 1_554 S
H188 C176 0.929 1_556 S
H189 C178 0.929 . S
O190 Co165 2.351 . S
O190 C193 1.244 . S
O191 Co165 2.155 . S
O191 C193 1.240 . S
O192 Co165 2.096 . S
O192 C173 1.247 . S
C193 O190 1.244 . S
C193 O191 1.240 . S
H194 C168 0.931 . S
H195 C177 0.931 . S
H196 C181 0.929 . S
H197 C183 0.930 . S
Co198 N202 2.148 . S
Co198 N208 2.128 . S
Co198 N218 2.194 . S
Co198 O223 2.351 1_455 S
Co198 O224 2.155 1_455 S
Co198 O225 2.096 . S
C199 N202 1.301 1_655 S
C199 N203 1.328 . S
C199 H204 0.930 . S
C200 C201 1.327 1_455 S
C200 N202 1.317 . S
C200 H205 0.935 . S
C201 C200 1.327 1_655 S
C201 N203 1.350 . S
C201 H227 0.931 . S
N202 Co198 2.148 . S
N202 C199 1.301 1_455 S
N202 C200 1.317 . S
N203 C199 1.328 . S
N203 C201 1.350 . S
H204 C199 0.930 . S
H205 C200 0.935 . S
C206 O207 1.224 . S
C206 O225 1.247 . S
O207 C206 1.224 . S
N208 Co198 2.128 . S
N208 C209 1.355 . S
N208 C211 1.311 . S
C209 N208 1.355 . S
C209 C210 1.363 . S
C209 H221 0.929 . S
C210 C209 1.363 . S
C210 N212 1.375 . S
C210 H228 0.931 . S
C211 N208 1.311 . S
C211 N212 1.347 . S
C211 H222 0.929 . S
N212 C210 1.375 . S
N212 C211 1.347 . S
C213 C216 1.365 . S
C213 N218 1.328 . S
C213 H219 0.929 . S
C214 C215 1.362 . S
C214 C217 1.378 . S
C214 H229 0.929 . S
C215 C214 1.362 . S
C215 C216 1.366 . S
C216 C213 1.365 . S
C216 C215 1.366 . S
C216 H230 0.930 1_554 S
C217 C214 1.378 . S
C217 N218 1.315 . S
C217 H220 0.930 . S
N218 Co198 2.194 . S
N218 C213 1.328 . S
N218 C217 1.315 . S
H219 C213 0.929 . S
H220 C217 0.930 . S
H221 C209 0.929 . S
H222 C211 0.929 . S
O223 Co198 2.351 1_655 S
O223 C226 1.244 . S
O224 Co198 2.155 1_655 S
O224 C226 1.240 . S
O225 Co198 2.096 . S
O225 C206 1.247 . S
C226 O223 1.244 . S
C226 O224 1.240 . S
H227 C201 0.931 . S
H228 C210 0.931 . S
H229 C214 0.929 . S
H230 C216 0.930 1_556 S
Co231 N235 2.148 . S
Co231 N241 2.128 . S
Co231 N251 2.194 . S
Co231 O256 2.351 . S
Co231 O257 2.155 . S
Co231 O258 2.096 . S
C232 N235 1.301 . S
C232 N236 1.328 . S
C232 H237 0.930 . S
C233 C234 1.333 . S
C233 N235 1.317 . S
C233 H238 0.930 . S
C234 C233 1.333 . S
C234 N236 1.350 . S
C234 H260 0.931 . S
N235 Co231 2.148 . S
N235 C232 1.301 . S
N235 C233 1.317 . S
N236 C232 1.328 . S
N236 C234 1.350 . S
H237 C232 0.930 . S
H238 C233 0.930 . S
C239 O240 1.224 . S
C239 O258 1.247 . S
O240 C239 1.224 . S
N241 Co231 2.128 . S
N241 C242 1.355 . S
N241 C244 1.311 . S
C242 N241 1.355 . S
C242 C243 1.363 . S
C242 H254 0.929 . S
C243 C242 1.363 . S
C243 N245 1.375 . S
C243 H261 0.931 . S
C244 N241 1.311 . S
C244 N245 1.347 . S
C244 H255 0.929 . S
N245 C243 1.375 . S
N245 C244 1.347 . S
C246 C249 1.365 . S
C246 N251 1.328 . S
C246 H252 0.929 . S
C247 C248 1.362 . S
C247 C250 1.378 . S
C247 H262 0.929 . S
C248 C247 1.362 . S
C248 C249 1.366 . S
C249 C246 1.365 . S
C249 C248 1.366 . S
C249 H263 0.930 . S
C250 C247 1.378 . S
C250 N251 1.315 . S
C250 H253 0.930 . S
N251 Co231 2.194 . S
N251 C246 1.328 . S
N251 C250 1.315 . S
H252 C246 0.929 . S
H253 C250 0.930 . S
H254 C242 0.929 . S
H255 C244 0.929 . S
O256 Co231 2.351 . S
O256 C259 1.244 . S
O257 Co231 2.155 . S
O257 C259 1.240 . S
O258 Co231 2.096 . S
O258 C239 1.247 . S
C259 O256 1.244 . S
C259 O257 1.240 . S
H260 C234 0.931 . S
H261 C243 0.931 . S
H262 C247 0.929 . S
H263 C249 0.930 . S
N170 N5 1.242 . S
N203 N38 1.242 . S
N71 N236 1.242 . S
N137 N104 1.242 . S
C248 C17 0.704 . S
C50 C149 0.704 . S
C182 C83 0.704 . S
C116 C215 0.704 . S
C239 C8 2.818 . S
C41 C140 2.818 . S
C173 C74 2.818 . S
C206 C107 2.818 . S
N14 C127 2.480 . S
C28 N47 2.480 . S
C61 N80 2.480 . S
C94 N113 2.480 . S
N146 C193 2.480 1_556 S
C226 N179 2.480 . S
C259 N212 2.480 . S
N245 C160 2.480 . S
