# Generated by pormake.
# Topology wlu, (5)-cn, num edge types: 1
# Building blocks:
#     Node 0, Type 0, BuildingBlock: BEQFEK_clean_sbu_0, # of connection points: 5
#     Node 1, Type 0, BuildingBlock: BEQFEK_clean_sbu_0, # of connection points: 5
#     Node 2, Type 0, BuildingBlock: BEQFEK_clean_sbu_0, # of connection points: 5
#     Node 3, Type 0, BuildingBlock: BEQFEK_clean_sbu_0, # of connection points: 5
#     Node 4, Type 0, BuildingBlock: BEQFEK_clean_sbu_0, # of connection points: 5
#     Node 5, Type 0, BuildingBlock: BEQFEK_clean_sbu_0, # of connection points: 5
#     Node 6, Type 0, BuildingBlock: BEQFEK_clean_sbu_0, # of connection points: 5
#     Node 7, Type 0, BuildingBlock: BEQFEK_clean_sbu_0, # of connection points: 5
#     Node 8, Type 0, BuildingBlock: BEQFEK_clean_sbu_0, # of connection points: 5
#     Node 9, Type 0, BuildingBlock: BEQFEK_clean_sbu_0, # of connection points: 5
#     Node 10, Type 0, BuildingBlock: BEQFEK_clean_sbu_0, # of connection points: 5
#     Node 11, Type 0, BuildingBlock: BEQFEK_clean_sbu_0, # of connection points: 5
#     Node 12, Type 0, BuildingBlock: BEQFEK_clean_sbu_0, # of connection points: 5
#     Node 13, Type 0, BuildingBlock: BEQFEK_clean_sbu_0, # of connection points: 5
#     Node 14, Type 0, BuildingBlock: BEQFEK_clean_sbu_0, # of connection points: 5
#     Node 15, Type 0, BuildingBlock: BEQFEK_clean_sbu_0, # of connection points: 5
#     Node 16, Type 0, BuildingBlock: BEQFEK_clean_sbu_0, # of connection points: 5
#     Node 17, Type 0, BuildingBlock: BEQFEK_clean_sbu_0, # of connection points: 5
#     Node 18, Type 0, BuildingBlock: BEQFEK_clean_sbu_0, # of connection points: 5
#     Node 19, Type 0, BuildingBlock: BEQFEK_clean_sbu_0, # of connection points: 5
#     Node 20, Type 0, BuildingBlock: BEQFEK_clean_sbu_0, # of connection points: 5
#     Node 21, Type 0, BuildingBlock: BEQFEK_clean_sbu_0, # of connection points: 5
#     Node 22, Type 0, BuildingBlock: BEQFEK_clean_sbu_0, # of connection points: 5
#     Node 23, Type 0, BuildingBlock: BEQFEK_clean_sbu_0, # of connection points: 5
#     Node 24, Type 0, BuildingBlock: BEQFEK_clean_sbu_0, # of connection points: 5
#     Node 25, Type 0, BuildingBlock: BEQFEK_clean_sbu_0, # of connection points: 5
#     Node 26, Type 0, BuildingBlock: BEQFEK_clean_sbu_0, # of connection points: 5
#     Node 27, Type 0, BuildingBlock: BEQFEK_clean_sbu_0, # of connection points: 5
#     Node 28, Type 0, BuildingBlock: BEQFEK_clean_sbu_0, # of connection points: 5
#     Node 29, Type 0, BuildingBlock: BEQFEK_clean_sbu_0, # of connection points: 5
#     Node 30, Type 0, BuildingBlock: BEQFEK_clean_sbu_0, # of connection points: 5
#     Node 31, Type 0, BuildingBlock: BEQFEK_clean_sbu_0, # of connection points: 5
#     Node 32, Type 0, BuildingBlock: BEQFEK_clean_sbu_0, # of connection points: 5
#     Node 33, Type 0, BuildingBlock: BEQFEK_clean_sbu_0, # of connection points: 5
#     Node 34, Type 0, BuildingBlock: BEQFEK_clean_sbu_0, # of connection points: 5
#     Node 35, Type 0, BuildingBlock: BEQFEK_clean_sbu_0, # of connection points: 5
#     Edge 36, Type (0, 0), BuildingBlock: TEMPAE_clean_linker_10, # of connection points: 2
#     Edge 37, Type (0, 0), BuildingBlock: TEMPAE_clean_linker_10, # of connection points: 2
#     Edge 38, Type (0, 0), BuildingBlock: TEMPAE_clean_linker_10, # of connection points: 2
#     Edge 39, Type (0, 0), BuildingBlock: TEMPAE_clean_linker_10, # of connection points: 2
#     Edge 40, Type (0, 0), BuildingBlock: TEMPAE_clean_linker_10, # of connection points: 2
#     Edge 41, Type (0, 0), BuildingBlock: TEMPAE_clean_linker_10, # of connection points: 2
#     Edge 42, Type (0, 0), BuildingBlock: TEMPAE_clean_linker_10, # of connection points: 2
#     Edge 43, Type (0, 0), BuildingBlock: TEMPAE_clean_linker_10, # of connection points: 2
#     Edge 44, Type (0, 0), BuildingBlock: TEMPAE_clean_linker_10, # of connection points: 2
#     Edge 45, Type (0, 0), BuildingBlock: TEMPAE_clean_linker_10, # of connection points: 2
#     Edge 46, Type (0, 0), BuildingBlock: TEMPAE_clean_linker_10, # of connection points: 2
#     Edge 47, Type (0, 0), BuildingBlock: TEMPAE_clean_linker_10, # of connection points: 2
#     Edge 48, Type (0, 0), BuildingBlock: TEMPAE_clean_linker_10, # of connection points: 2
#     Edge 49, Type (0, 0), BuildingBlock: TEMPAE_clean_linker_10, # of connection points: 2
#     Edge 50, Type (0, 0), BuildingBlock: TEMPAE_clean_linker_10, # of connection points: 2
#     Edge 51, Type (0, 0), BuildingBlock: TEMPAE_clean_linker_10, # of connection points: 2
#     Edge 52, Type (0, 0), BuildingBlock: TEMPAE_clean_linker_10, # of connection points: 2
#     Edge 53, Type (0, 0), BuildingBlock: TEMPAE_clean_linker_10, # of connection points: 2
#     Edge 54, Type (0, 0), BuildingBlock: TEMPAE_clean_linker_10, # of connection points: 2
#     Edge 55, Type (0, 0), BuildingBlock: TEMPAE_clean_linker_10, # of connection points: 2
#     Edge 56, Type (0, 0), BuildingBlock: TEMPAE_clean_linker_10, # of connection points: 2
#     Edge 57, Type (0, 0), BuildingBlock: TEMPAE_clean_linker_10, # of connection points: 2
#     Edge 58, Type (0, 0), BuildingBlock: TEMPAE_clean_linker_10, # of connection points: 2
#     Edge 59, Type (0, 0), BuildingBlock: TEMPAE_clean_linker_10, # of connection points: 2
#     Edge 60, Type (0, 0), BuildingBlock: TEMPAE_clean_linker_10, # of connection points: 2
#     Edge 61, Type (0, 0), BuildingBlock: TEMPAE_clean_linker_10, # of connection points: 2
#     Edge 62, Type (0, 0), BuildingBlock: TEMPAE_clean_linker_10, # of connection points: 2
#     Edge 63, Type (0, 0), BuildingBlock: TEMPAE_clean_linker_10, # of connection points: 2
#     Edge 64, Type (0, 0), BuildingBlock: TEMPAE_clean_linker_10, # of connection points: 2
#     Edge 65, Type (0, 0), BuildingBlock: TEMPAE_clean_linker_10, # of connection points: 2
#     Edge 66, Type (0, 0), BuildingBlock: TEMPAE_clean_linker_10, # of connection points: 2
#     Edge 67, Type (0, 0), BuildingBlock: TEMPAE_clean_linker_10, # of connection points: 2
#     Edge 68, Type (0, 0), BuildingBlock: TEMPAE_clean_linker_10, # of connection points: 2
#     Edge 69, Type (0, 0), BuildingBlock: TEMPAE_clean_linker_10, # of connection points: 2
#     Edge 70, Type (0, 0), BuildingBlock: TEMPAE_clean_linker_10, # of connection points: 2
#     Edge 71, Type (0, 0), BuildingBlock: TEMPAE_clean_linker_10, # of connection points: 2
#     Edge 72, Type (0, 0), BuildingBlock: TEMPAE_clean_linker_10, # of connection points: 2
#     Edge 73, Type (0, 0), BuildingBlock: TEMPAE_clean_linker_10, # of connection points: 2
#     Edge 74, Type (0, 0), BuildingBlock: TEMPAE_clean_linker_10, # of connection points: 2
#     Edge 75, Type (0, 0), BuildingBlock: TEMPAE_clean_linker_10, # of connection points: 2
#     Edge 76, Type (0, 0), BuildingBlock: TEMPAE_clean_linker_10, # of connection points: 2
#     Edge 77, Type (0, 0), BuildingBlock: TEMPAE_clean_linker_10, # of connection points: 2
#     Edge 78, Type (0, 0), BuildingBlock: TEMPAE_clean_linker_10, # of connection points: 2
#     Edge 79, Type (0, 0), BuildingBlock: TEMPAE_clean_linker_10, # of connection points: 2
#     Edge 80, Type (0, 0), BuildingBlock: TEMPAE_clean_linker_10, # of connection points: 2
#     Edge 81, Type (0, 0), BuildingBlock: TEMPAE_clean_linker_10, # of connection points: 2
#     Edge 82, Type (0, 0), BuildingBlock: TEMPAE_clean_linker_10, # of connection points: 2
#     Edge 83, Type (0, 0), BuildingBlock: TEMPAE_clean_linker_10, # of connection points: 2
#     Edge 84, Type (0, 0), BuildingBlock: TEMPAE_clean_linker_10, # of connection points: 2
#     Edge 85, Type (0, 0), BuildingBlock: TEMPAE_clean_linker_10, # of connection points: 2
#     Edge 86, Type (0, 0), BuildingBlock: TEMPAE_clean_linker_10, # of connection points: 2
#     Edge 87, Type (0, 0), BuildingBlock: TEMPAE_clean_linker_10, # of connection points: 2
#     Edge 88, Type (0, 0), BuildingBlock: TEMPAE_clean_linker_10, # of connection points: 2
#     Edge 89, Type (0, 0), BuildingBlock: TEMPAE_clean_linker_10, # of connection points: 2
#     Edge 90, Type (0, 0), BuildingBlock: TEMPAE_clean_linker_10, # of connection points: 2
#     Edge 91, Type (0, 0), BuildingBlock: TEMPAE_clean_linker_10, # of connection points: 2
#     Edge 92, Type (0, 0), BuildingBlock: TEMPAE_clean_linker_10, # of connection points: 2
#     Edge 93, Type (0, 0), BuildingBlock: TEMPAE_clean_linker_10, # of connection points: 2
#     Edge 94, Type (0, 0), BuildingBlock: TEMPAE_clean_linker_10, # of connection points: 2
#     Edge 95, Type (0, 0), BuildingBlock: TEMPAE_clean_linker_10, # of connection points: 2
#     Edge 96, Type (0, 0), BuildingBlock: TEMPAE_clean_linker_10, # of connection points: 2
#     Edge 97, Type (0, 0), BuildingBlock: TEMPAE_clean_linker_10, # of connection points: 2
#     Edge 98, Type (0, 0), BuildingBlock: TEMPAE_clean_linker_10, # of connection points: 2
#     Edge 99, Type (0, 0), BuildingBlock: TEMPAE_clean_linker_10, # of connection points: 2
#     Edge 100, Type (0, 0), BuildingBlock: TEMPAE_clean_linker_10, # of connection points: 2
#     Edge 101, Type (0, 0), BuildingBlock: TEMPAE_clean_linker_10, # of connection points: 2
#     Edge 102, Type (0, 0), BuildingBlock: TEMPAE_clean_linker_10, # of connection points: 2
#     Edge 103, Type (0, 0), BuildingBlock: TEMPAE_clean_linker_10, # of connection points: 2
#     Edge 104, Type (0, 0), BuildingBlock: TEMPAE_clean_linker_10, # of connection points: 2
#     Edge 105, Type (0, 0), BuildingBlock: TEMPAE_clean_linker_10, # of connection points: 2
#     Edge 106, Type (0, 0), BuildingBlock: TEMPAE_clean_linker_10, # of connection points: 2
#     Edge 107, Type (0, 0), BuildingBlock: TEMPAE_clean_linker_10, # of connection points: 2
#     Edge 108, Type (0, 0), BuildingBlock: TEMPAE_clean_linker_10, # of connection points: 2
#     Edge 109, Type (0, 0), BuildingBlock: TEMPAE_clean_linker_10, # of connection points: 2
#     Edge 110, Type (0, 0), BuildingBlock: TEMPAE_clean_linker_10, # of connection points: 2
#     Edge 111, Type (0, 0), BuildingBlock: TEMPAE_clean_linker_10, # of connection points: 2
#     Edge 112, Type (0, 0), BuildingBlock: TEMPAE_clean_linker_10, # of connection points: 2
#     Edge 113, Type (0, 0), BuildingBlock: TEMPAE_clean_linker_10, # of connection points: 2
#     Edge 114, Type (0, 0), BuildingBlock: TEMPAE_clean_linker_10, # of connection points: 2
#     Edge 115, Type (0, 0), BuildingBlock: TEMPAE_clean_linker_10, # of connection points: 2
#     Edge 116, Type (0, 0), BuildingBlock: TEMPAE_clean_linker_10, # of connection points: 2
#     Edge 117, Type (0, 0), BuildingBlock: TEMPAE_clean_linker_10, # of connection points: 2
#     Edge 118, Type (0, 0), BuildingBlock: TEMPAE_clean_linker_10, # of connection points: 2
#     Edge 119, Type (0, 0), BuildingBlock: TEMPAE_clean_linker_10, # of connection points: 2
#     Edge 120, Type (0, 0), BuildingBlock: TEMPAE_clean_linker_10, # of connection points: 2
#     Edge 121, Type (0, 0), BuildingBlock: TEMPAE_clean_linker_10, # of connection points: 2
#     Edge 122, Type (0, 0), BuildingBlock: TEMPAE_clean_linker_10, # of connection points: 2
#     Edge 123, Type (0, 0), BuildingBlock: TEMPAE_clean_linker_10, # of connection points: 2
#     Edge 124, Type (0, 0), BuildingBlock: TEMPAE_clean_linker_10, # of connection points: 2
#     Edge 125, Type (0, 0), BuildingBlock: TEMPAE_clean_linker_10, # of connection points: 2
# Relax obj value: 0.084
# Max RMSD: 0.146
# Mean RMSD: 0.146
data_MOF--net-wlu--node1-BEQFEK_clean_sbu_0--edge1-TEMPAE_clean_linker_10
_symmetry_space_group_name_H-M    P1
_symmetry_Int_Tables_number       1
_symmetry_cell_setting            triclinic
loop_
_symmetry_equiv_pos_as_xyz
'x, y, z'
_cell_length_a     69.160142
_cell_length_b     69.157642
_cell_length_c     57.936013
_cell_angle_alpha  89.997878
_cell_angle_beta   89.993166
_cell_angle_gamma 120.01062
loop_
_atom_site_label
_atom_site_type_symbol
_atom_site_fract_x
_atom_site_fract_y
_atom_site_fract_z
_atom_type_partial_charge
Co0 Co 0.29798 0.21456 0.03732 0.0
Co1 Co 0.26445 0.16368 0.02889 0.0
C2 C 0.30145 0.19093 0.99555 0.0
O3 O 0.30836 0.20853 0.00774 0.0
O4 O 0.28475 0.1724 0.0018 0.0
C5 C 0.33873 0.25803 0.04155 0.0
O6 O 0.34686 0.25201 0.02427 0.0
C7 C 0.245 0.11614 0.0172 0.0
C8 C 0.21278 0.10125 0.03577 0.0
C9 C 0.2255 0.09615 0.02125 0.0
N10 N 0.24381 0.13241 0.02861 0.0
N11 N 0.22448 0.1234 0.03962 0.0
C12 C 0.26488 0.11961 0.0036 0.0
H13 H 0.26326 0.12417 0.98564 0.0
H14 H 0.28039 0.13341 0.01119 0.0
H15 H 0.26598 0.10415 0.00317 0.0
C16 C 0.30578 0.19655 0.08019 0.0
N17 N 0.29511 0.19369 0.05999 0.0
N18 N 0.28102 0.17231 0.0568 0.0
C19 C 0.28221 0.1608 0.07502 0.0
C20 C 0.29788 0.17584 0.09051 0.0
C21 C 0.32443 0.21855 0.08844 0.0
H22 H 0.31772 0.22973 0.09264 0.0
H23 H 0.33693 0.22644 0.07447 0.0
H24 H 0.33295 0.21677 0.10383 0.0
O25 O 0.26936 0.21388 0.03232 0.0
O26 O 0.24609 0.17796 0.02561 0.0
H27 H 0.25026 0.13134 0.07757 0.0
H28 H 0.27162 0.13006 0.09408 0.0
C29 C 0.2681 0.13603 0.07772 0.0
H30 H 0.27102 0.12765 0.06289 0.0
H31 H 0.21924 0.13243 0.04972 0.0
O32 O 0.31904 0.24486 0.04867 0.0
C33 C 0.24998 0.1979 0.02741 0.0
Co34 Co 0.78299 0.08036 0.0394 0.0
Co35 Co 0.83378 0.09824 0.03093 0.0
C36 C 0.80548 0.10641 0.99721 0.0
O37 O 0.78796 0.09614 0.00956 0.0
O38 O 0.82396 0.10829 0.00361 0.0
C39 C 0.7406 0.07892 0.04603 0.0
O40 O 0.7482 0.09584 0.03164 0.0
C41 C 0.87986 0.13082 0.01972 0.0
C42 C 0.89831 0.11456 0.03257 0.0
C43 C 0.90099 0.1334 0.02129 0.0
N44 N 0.86527 0.11124 0.02941 0.0
N45 N 0.87637 0.10157 0.03708 0.0
C46 C 0.8737 0.14717 0.01032 0.0
H47 H 0.85884 0.14548 0.01948 0.0
H48 H 0.88782 0.16453 0.01208 0.0
H49 H 0.86958 0.14366 0.99175 0.0
C50 C 0.80107 0.10765 0.08168 0.0
N51 N 0.80381 0.09921 0.06181 0.0
N52 N 0.82518 0.10643 0.05865 0.0
C53 C 0.83676 0.11954 0.0766 0.0
C54 C 0.82185 0.12075 0.09181 0.0
C55 C 0.77917 0.1048 0.08958 0.0
H56 H 0.77187 0.10995 0.07551 0.0
H57 H 0.7809 0.11501 0.105 0.0
H58 H 0.76751 0.08693 0.09347 0.0
O59 O 0.78476 0.05287 0.03455 0.0
O60 O 0.82083 0.06565 0.02847 0.0
H61 H 0.86705 0.13712 0.09691 0.0
H62 H 0.86994 0.14362 0.06642 0.0
C63 C 0.86152 0.13011 0.07937 0.0
H64 H 0.86661 0.11748 0.07616 0.0
H65 H 0.86894 0.08605 0.04527 0.0
O66 O 0.75259 0.07031 0.05085 0.0
C67 C 0.80087 0.04952 0.03011 0.0
Co68 Co 0.90989 0.69423 0.03815 0.0
Co69 Co 0.89263 0.728 0.03228 0.0
C70 C 0.88378 0.69216 0.99694 0.0
O71 O 0.89366 0.68416 0.00879 0.0
O72 O 0.88247 0.70893 0.00401 0.0
C73 C 0.91606 0.6554 0.03965 0.0
O74 O 0.90435 0.64858 0.02052 0.0
C75 C 0.86003 0.74203 0.02271 0.0
C76 C 0.8763 0.77612 0.03724 0.0
C77 C 0.85747 0.76052 0.02548 0.0
N78 N 0.87957 0.74654 0.03218 0.0
N79 N 0.88923 0.76694 0.04086 0.0
C80 C 0.84378 0.72001 0.01225 0.0
H81 H 0.84518 0.70638 0.02075 0.0
H82 H 0.82642 0.7168 0.01387 0.0
H83 H 0.8477 0.72019 0.99366 0.0
C84 C 0.88349 0.68401 0.08084 0.0
N85 N 0.89148 0.69572 0.06121 0.0
N86 N 0.88463 0.71029 0.05941 0.0
C87 C 0.8724 0.70866 0.07822 0.0
C88 C 0.87134 0.69194 0.09249 0.0
C89 C 0.88609 0.66446 0.08732 0.0
H90 H 0.88331 0.65387 0.07192 0.0
H91 H 0.87407 0.65405 0.10089 0.0
H92 H 0.90335 0.6706 0.09361 0.0
O93 O 0.93722 0.72346 0.03317 0.0
O94 O 0.92532 0.74778 0.03025 0.0
H95 H 0.87596 0.74118 0.0797 0.0
H96 H 0.85689 0.72198 0.10083 0.0
C97 C 0.86295 0.72358 0.08283 0.0
H98 H 0.84896 0.71934 0.07071 0.0
H99 H 0.90472 0.77465 0.04911 0.0
O100 O 0.92008 0.67375 0.04874 0.0
C101 C 0.9411 0.74335 0.03037 0.0
Co102 Co 0.21057 0.29179 0.4581 0.0
Co103 Co 0.16026 0.25689 0.46691 0.0
C104 C 0.18753 0.29396 0.50056 0.0
O105 O 0.20481 0.30209 0.48774 0.0
O106 O 0.16944 0.27659 0.49458 0.0
C107 C 0.25144 0.33416 0.4515 0.0
O108 O 0.24257 0.34262 0.46538 0.0
C109 C 0.11345 0.23938 0.47938 0.0
C110 C 0.09702 0.20589 0.46336 0.0
C111 C 0.09299 0.2201 0.47673 0.0
N112 N 0.12897 0.23666 0.46831 0.0
N113 N 0.11907 0.21659 0.45879 0.0
C114 C 0.11803 0.26054 0.49109 0.0
H115 H 0.13209 0.27512 0.48246 0.0
H116 H 0.103 0.26241 0.49091 0.0
H117 H 0.12274 0.26009 0.5093 0.0
C118 C 0.19135 0.29888 0.41547 0.0
N119 N 0.18919 0.28831 0.43564 0.0
N120 N 0.16797 0.27387 0.43927 0.0
C121 C 0.15588 0.27485 0.4215 0.0
C122 C 0.17033 0.29068 0.40579 0.0
C123 C 0.21298 0.31768 0.40666 0.0
H124 H 0.22508 0.31176 0.40422 0.0
H125 H 0.21992 0.33125 0.41966 0.0
H126 H 0.21095 0.32462 0.39019 0.0
O127 O 0.2106 0.26357 0.46364 0.0
O128 O 0.17481 0.23857 0.46859 0.0
H129 H 0.12645 0.24271 0.42046 0.0
H130 H 0.12476 0.26338 0.40296 0.0
C131 C 0.13107 0.26052 0.41945 0.0
H132 H 0.12298 0.26405 0.43411 0.0
H133 H 0.12739 0.21019 0.44922 0.0
O134 O 0.24068 0.31344 0.44681 0.0
C135 C 0.19518 0.24361 0.46752 0.0
Co136 Co 0.69473 0.91354 0.45862 0.0
Co137 Co 0.72782 0.89579 0.46705 0.0
C138 C 0.69222 0.88807 0.50131 0.0
O139 O 0.68482 0.89806 0.48872 0.0
O140 O 0.70874 0.88602 0.49493 0.0
C141 C 0.65395 0.91617 0.4553 0.0
O142 O 0.64636 0.90243 0.47295 0.0
C143 C 0.74425 0.86506 0.47742 0.0
C144 C 0.77986 0.88541 0.4678 0.0
C145 C 0.76432 0.86521 0.47736 0.0
N146 N 0.74771 0.88437 0.46825 0.0
N147 N 0.76898 0.89637 0.46234 0.0
C148 C 0.72271 0.84785 0.488 0.0
H149 H 0.72358 0.85043 0.50696 0.0
H150 H 0.70856 0.84932 0.48106 0.0
H151 H 0.71987 0.83082 0.4847 0.0
C152 C 0.68604 0.88683 0.41621 0.0
N153 N 0.69699 0.89489 0.43623 0.0
N154 N 0.71029 0.88672 0.43986 0.0
C155 C 0.70796 0.87284 0.42238 0.0
C156 C 0.6924 0.87239 0.40683 0.0
C157 C 0.67064 0.89381 0.40583 0.0
H158 H 0.67849 0.91223 0.4067 0.0
H159 H 0.65489 0.88635 0.4159 0.0
H160 H 0.66678 0.88862 0.38752 0.0
O161 O 0.72347 0.94127 0.4631 0.0
O162 O 0.74694 0.92861 0.46828 0.0
H163 H 0.73763 0.87057 0.42041 0.0
H164 H 0.71354 0.84743 0.40687 0.0
C165 C 0.7193 0.85924 0.42159 0.0
H166 H 0.71582 0.84956 0.43779 0.0
H167 H 0.77624 0.91239 0.45529 0.0
O168 O 0.67343 0.92256 0.4476 0.0
C169 C 0.74307 0.94472 0.46682 0.0
Co170 Co 0.08497 0.7817 0.46231 0.0
Co171 Co 0.10071 0.83235 0.46888 0.0
C172 C 0.11021 0.80553 0.50397 0.0
O173 O 0.10096 0.78778 0.49185 0.0
O174 O 0.11096 0.82342 0.49711 0.0
C175 C 0.08061 0.73737 0.45886 0.0
O176 O 0.09324 0.74226 0.47732 0.0
C177 C 0.13192 0.87918 0.47945 0.0
C178 C 0.1148 0.89621 0.46501 0.0
C179 C 0.13366 0.89992 0.47705 0.0
N180 N 0.11279 0.86384 0.46954 0.0
N181 N 0.10261 0.8741 0.46093 0.0
C182 C 0.14863 0.87408 0.48994 0.0
H183 H 0.14774 0.85926 0.48147 0.0
H184 H 0.16578 0.88858 0.48832 0.0
H185 H 0.14477 0.87032 0.50853 0.0
C186 C 0.11162 0.79917 0.41985 0.0
N187 N 0.10327 0.80228 0.43956 0.0
N188 N 0.10953 0.82354 0.44169 0.0
C189 C 0.12175 0.83465 0.42305 0.0
C190 C 0.1234 0.8195 0.40852 0.0
C191 C 0.10968 0.7774 0.41296 0.0
H192 H 0.09247 0.76594 0.40674 0.0
H193 H 0.11289 0.76967 0.42815 0.0
H194 H 0.12175 0.77953 0.39922 0.0
O195 O 0.05706 0.78255 0.46728 0.0
O196 O 0.06791 0.81853 0.47031 0.0
H197 H 0.11717 0.863 0.42186 0.0
H198 H 0.13695 0.86392 0.40099 0.0
C199 C 0.13061 0.859 0.41885 0.0
H200 H 0.14427 0.86884 0.43128 0.0
H201 H 0.08727 0.86599 0.4524 0.0
O202 O 0.07554 0.7514 0.45102 0.0
C203 C 0.05256 0.79814 0.47001 0.0
Co204 Co 0.6921 0.77983 0.95885 0.0
Co205 Co 0.72776 0.83002 0.96664 0.0
C206 C 0.68983 0.80499 -0.00037 0.0
O207 O 0.68175 0.7873 0.98748 0.0
O208 O 0.70757 0.82262 0.99355 0.0
C209 C 0.64851 0.74198 0.9491 0.0
O210 O 0.64078 0.75547 0.95365 0.0
C211 C 0.74507 0.87762 0.97446 0.0
C212 C 0.7815 0.89118 0.9718 0.0
C213 C 0.7655 0.89696 0.97691 0.0
N214 N 0.74879 0.86108 0.96814 0.0
N215 N 0.77058 0.86933 0.96631 0.0
C216 C 0.7226 0.87431 0.98056 0.0
H217 H 0.70917 0.85829 0.97341 0.0
H218 H 0.72074 0.88831 0.97386 0.0
H219 H 0.72096 0.87404 -0.00037 0.0
C220 C 0.68777 0.7985 0.91381 0.0
N221 N 0.69708 0.80072 0.93482 0.0
N222 N 0.71169 0.82195 0.93839 0.0
C223 C 0.71193 0.83392 0.91992 0.0
C224 C 0.69674 0.81949 0.90377 0.0
C225 C 0.66958 0.77689 0.90425 0.0
H226 H 0.65358 0.77284 0.91262 0.0
H227 H 0.66745 0.77772 0.88542 0.0
H228 H 0.67323 0.76331 0.90792 0.0
O229 O 0.71961 0.77879 0.96583 0.0
O230 O 0.74506 0.81454 0.97009 0.0
H231 H 0.72697 0.86425 0.89958 0.0
H232 H 0.72064 0.8672 0.92916 0.0
C233 C 0.72674 0.85864 0.91757 0.0
H234 H 0.744 0.86347 0.92281 0.0
H235 H 0.77804 0.85985 0.96226 0.0
O236 O 0.66936 0.74915 0.95006 0.0
C237 C 0.73961 0.79404 0.96979 0.0
Co238 Co 0.21175 0.9151 0.96066 0.0
Co239 Co 0.16034 0.89482 0.9674 0.0
C240 C 0.18849 0.88808 0.00237 0.0
O241 O 0.20605 0.89881 0.99016 0.0
O242 O 0.16977 0.8855 0.99574 0.0
C243 C 0.25348 0.91587 0.95287 0.0
O244 O 0.2437 0.89587 0.9622 0.0
C245 C 0.11334 0.86384 0.97902 0.0
C246 C 0.09594 0.87692 0.95768 0.0
C247 C 0.09239 0.86067 0.97379 0.0
N248 N 0.12863 0.88135 0.9668 0.0
N249 N 0.11812 0.88908 0.95406 0.0
C250 C 0.11866 0.84959 0.99416 0.0
H251 H 0.13325 0.8489 0.98722 0.0
H252 H 0.1042 0.83239 0.99548 0.0
H253 H 0.12285 0.85702 0.01168 0.0
C254 C 0.19629 0.88903 0.91741 0.0
N255 N 0.19231 0.89646 0.93731 0.0
N256 N 0.17062 0.88689 0.94054 0.0
C257 C 0.16008 0.87248 0.92308 0.0
C258 C 0.17607 0.87334 0.90787 0.0
C259 C 0.219 0.89752 0.90714 0.0
H260 H 0.22947 0.91572 0.91018 0.0
H261 H 0.22706 0.88887 0.91536 0.0
H262 H 0.21798 0.89441 0.88827 0.0
O263 O 0.20869 0.94148 0.96552 0.0
O264 O 0.1722 0.92762 0.96909 0.0
H265 H 0.1271 0.86654 0.91702 0.0
H266 H 0.13087 0.84328 0.90948 0.0
C267 C 0.13538 0.85697 0.92207 0.0
H268 H 0.12912 0.84963 0.93936 0.0
H269 H 0.12612 0.90273 0.94295 0.0
O270 O 0.24287 0.9264 0.95128 0.0
C271 C 0.19201 0.9442 0.96858 0.0
Co272 Co 0.08458 0.30134 0.95769 0.0
Co273 Co 0.09854 0.2655 0.9666 0.0
C274 C 0.10824 0.30241 0.00063 0.0
O275 O 0.09982 0.31122 0.98776 0.0
O276 O 0.10862 0.28494 0.99439 0.0
C277 C 0.08273 0.34248 0.95318 0.0
O278 O 0.0951 0.34969 0.97186 0.0
C279 C 0.12974 0.24964 0.9752 0.0
C280 C 0.10754 0.213 0.97447 0.0
C281 C 0.12932 0.22963 0.97854 0.0
N282 N 0.10911 0.24508 0.96936 0.0
N283 N 0.09595 0.22316 0.96871 0.0
C284 C 0.14873 0.27262 0.97992 0.0
H285 H 0.15279 0.27429 0.99861 0.0
H286 H 0.14437 0.28543 0.97477 0.0
H287 H 0.16379 0.27542 0.97033 0.0
C288 C 0.11123 0.30801 0.91555 0.0
N289 N 0.10276 0.29763 0.93576 0.0
N290 N 0.10856 0.2824 0.93909 0.0
C291 C 0.12071 0.28241 0.92087 0.0
C292 C 0.12276 0.29864 0.90535 0.0
C293 C 0.10923 0.32733 0.90684 0.0
H294 H 0.11343 0.33967 0.92091 0.0
H295 H 0.12051 0.33576 0.89203 0.0
H296 H 0.09172 0.32129 0.90148 0.0
O297 O 0.05578 0.27334 0.96249 0.0
O298 O 0.06578 0.24771 0.96707 0.0
H299 H 0.11643 0.24957 0.92385 0.0
H300 H 0.13324 0.26546 0.89948 0.0
C301 C 0.12915 0.26643 0.91781 0.0
H302 H 0.14445 0.27214 0.92832 0.0
H303 H 0.07887 0.21514 0.96518 0.0
O304 O 0.07682 0.32314 0.94543 0.0
C305 C 0.0508 0.25317 0.96577 0.0
Co306 Co 0.78203 0.70056 0.53986 0.0
Co307 Co 0.83318 0.73278 0.53143 0.0
C308 C 0.8043 0.69701 0.49734 0.0
O309 O 0.78686 0.69017 0.50975 0.0
O310 O 0.82311 0.71313 0.50382 0.0
C311 C 0.73694 0.66201 0.54298 0.0
O312 O 0.74133 0.65472 0.52387 0.0
C313 C 0.87975 0.74715 0.52018 0.0
C314 C 0.89763 0.78092 0.53552 0.0
C315 C 0.90079 0.76568 0.52299 0.0
N316 N 0.86478 0.75132 0.53042 0.0
N317 N 0.87556 0.77154 0.53952 0.0
C318 C 0.87397 0.72539 0.50907 0.0
H319 H 0.85909 0.71153 0.51754 0.0
H320 H 0.8882 0.72227 0.51009 0.0
H321 H 0.86997 0.72594 0.49063 0.0
C322 C 0.79943 0.69038 0.58167 0.0
N323 N 0.80264 0.70175 0.56189 0.0
N324 N 0.8241 0.71565 0.559 0.0
C325 C 0.83529 0.71382 0.57716 0.0
C326 C 0.81996 0.69776 0.59219 0.0
C327 C 0.77723 0.67162 0.58933 0.0
H328 H 0.76679 0.67856 0.59559 0.0
H329 H 0.76862 0.66048 0.57449 0.0
H330 H 0.7789 0.66153 0.60323 0.0
O331 O 0.78446 0.73011 0.53584 0.0
O332 O 0.82058 0.75277 0.52925 0.0
H333 H 0.8651 0.7457 0.57801 0.0
H334 H 0.86532 0.72572 0.59781 0.0
C335 C 0.86 0.72788 0.5804 0.0
H336 H 0.86862 0.72339 0.5671 0.0
H337 H 0.86783 0.77896 0.54843 0.0
O338 O 0.75159 0.68052 0.55154 0.0
C339 C 0.80083 0.74941 0.53136 0.0
Co340 Co 0.30428 0.08153 0.5369 0.0
Co341 Co 0.27083 0.09931 0.53196 0.0
C342 C 0.3048 0.10781 0.49561 0.0
O343 O 0.31285 0.09795 0.50738 0.0
O344 O 0.28832 0.1094 0.50298 0.0
C345 C 0.34782 0.08804 0.54494 0.0
O346 O 0.35415 0.10924 0.54205 0.0
C347 C 0.25295 0.12876 0.52144 0.0
C348 C 0.22189 0.11387 0.542 0.0
C349 C 0.23442 0.13074 0.52639 0.0
N350 N 0.25132 0.11131 0.53329 0.0
N351 N 0.23275 0.10251 0.54561 0.0
C352 C 0.2726 0.14403 0.50687 0.0
H353 H 0.28809 0.14542 0.51411 0.0
H354 H 0.27446 0.16091 0.50585 0.0
H355 H 0.27012 0.13706 0.48918 0.0
C356 C 0.31327 0.10596 0.58152 0.0
N357 N 0.30259 0.09914 0.56112 0.0
N358 N 0.28973 0.10795 0.55832 0.0
C359 C 0.29248 0.12134 0.57644 0.0
C360 C 0.30756 0.12055 0.59172 0.0
C361 C 0.32712 0.09723 0.59217 0.0
H362 H 0.32157 0.08006 0.58604 0.0
H363 H 0.34486 0.10833 0.58747 0.0
H364 H 0.32587 0.09708 0.61129 0.0
O365 O 0.2755 0.05381 0.5326 0.0
O366 O 0.25156 0.06629 0.5304 0.0
H367 H 0.26405 0.12483 0.58332 0.0
H368 H 0.29031 0.14893 0.59134 0.0
C369 C 0.28181 0.13551 0.57832 0.0
H370 H 0.28238 0.14319 0.56136 0.0
H371 H 0.22738 0.08861 0.55631 0.0
O372 O 0.32725 0.07342 0.54355 0.0
C373 C 0.25569 0.05028 0.53032 0.0
Co374 Co 0.91496 0.21316 0.54039 0.0
Co375 Co 0.89472 0.16187 0.53294 0.0
C376 C 0.88829 0.19034 0.49826 0.0
O377 O 0.89891 0.20779 0.51065 0.0
O378 O 0.88566 0.17158 0.50476 0.0
C379 C 0.91487 0.25436 0.54818 0.0
O380 O 0.89546 0.24459 0.5376 0.0
C381 C 0.8643 0.11509 0.52047 0.0
C382 C 0.87715 0.0975 0.54184 0.0
C383 C 0.86123 0.09415 0.52542 0.0
N384 N 0.8815 0.13024 0.53312 0.0
N385 N 0.88909 0.11962 0.54589 0.0
C386 C 0.85021 0.12048 0.50518 0.0
H387 H 0.84935 0.13497 0.51212 0.0
H388 H 0.83305 0.10599 0.50361 0.0
H389 H 0.85784 0.12477 0.48775 0.0
C390 C 0.88857 0.19692 0.58349 0.0
N391 N 0.89611 0.19329 0.56346 0.0
N392 N 0.88643 0.17167 0.55976 0.0
C393 C 0.87175 0.16083 0.57692 0.0
C394 C 0.87262 0.17651 0.59257 0.0
C395 C 0.89732 0.21944 0.59433 0.0
H396 H 0.91553 0.2298 0.59129 0.0
H397 H 0.88885 0.22786 0.58649 0.0
H398 H 0.89424 0.21805 0.61321 0.0
O399 O 0.94161 0.2104 0.53547 0.0
O400 O 0.92745 0.17388 0.53156 0.0
H401 H 0.86502 0.12753 0.58275 0.0
H402 H 0.84167 0.13157 0.58897 0.0
C403 C 0.85594 0.13616 0.57715 0.0
H404 H 0.8494 0.13035 0.55952 0.0
H405 H 0.90252 0.12751 0.55729 0.0
O406 O 0.92562 0.24402 0.55038 0.0
C407 C 0.94413 0.19361 0.53226 0.0
Co408 Co 0.96274 0.54709 0.37142 0.0
Co409 Co 0.93221 0.49591 0.3624 0.0
C410 C 0.96649 0.52545 0.32796 0.0
O411 O 0.97281 0.54258 0.34076 0.0
O412 O 0.95094 0.50626 0.33427 0.0
C413 C 0.00395 0.58879 0.37887 0.0
O414 O 0.01357 0.58016 0.36632 0.0
C415 C 0.91624 0.44918 0.34964 0.0
C416 C 0.88572 0.43142 0.37091 0.0
C417 C 0.89855 0.42812 0.35476 0.0
N418 N 0.91384 0.46427 0.36203 0.0
N419 N 0.89554 0.45356 0.37466 0.0
C420 C 0.93597 0.45481 0.33462 0.0
H421 H 0.95114 0.46937 0.34178 0.0
H422 H 0.93883 0.44043 0.33312 0.0
H423 H 0.93287 0.45923 0.31715 0.0
C424 C 0.97348 0.53003 0.41343 0.0
N425 N 0.96238 0.52677 0.39342 0.0
N426 N 0.95023 0.50521 0.38941 0.0
C427 C 0.95367 0.49404 0.40654 0.0
C428 C 0.96856 0.50945 0.42231 0.0
C429 C 0.9875 0.55238 0.42452 0.0
H430 H 0.97936 0.5626 0.42256 0.0
H431 H 0.00405 0.56111 0.41593 0.0
H432 H 0.99 0.55077 0.44319 0.0
O433 O 0.933 0.54409 0.36842 0.0
O434 O 0.91149 0.5079 0.3614 0.0
H435 H 0.92605 0.46118 0.41161 0.0
H436 H 0.95267 0.4642 0.41961 0.0
C437 C 0.94398 0.46925 0.40697 0.0
H438 H 0.94531 0.46331 0.38959 0.0
H439 H 0.88982 0.46138 0.38592 0.0
O440 O 0.98299 0.57771 0.38218 0.0
C441 C 0.91397 0.52728 0.36407 0.0
Co442 Co 0.44576 0.42201 0.37157 0.0
Co443 Co 0.49582 0.43666 0.36292 0.0
C444 C 0.46882 0.44701 0.32924 0.0
O445 O 0.45137 0.43787 0.34184 0.0
O446 O 0.48678 0.44759 0.33547 0.0
C447 C 0.40136 0.4174 0.3751 0.0
O448 O 0.40533 0.42798 0.35531 0.0
C449 C 0.54323 0.46763 0.35472 0.0
C450 C 0.55715 0.44501 0.35613 0.0
C451 C 0.56268 0.46685 0.35175 0.0
N452 N 0.52687 0.44713 0.36061 0.0
N453 N 0.53534 0.43374 0.36169 0.0
C454 C 0.53966 0.48682 0.34963 0.0
H455 H 0.52264 0.48289 0.35488 0.0
H456 H 0.55223 0.50196 0.35891 0.0
H457 H 0.54191 0.4905 0.33086 0.0
C458 C 0.4652 0.44854 0.41383 0.0
N459 N 0.46738 0.44 0.39379 0.0
N460 N 0.48848 0.44594 0.39072 0.0
C461 C 0.50039 0.45817 0.40901 0.0
C462 C 0.48598 0.46018 0.42429 0.0
C463 C 0.44383 0.44689 0.42184 0.0
H464 H 0.43561 0.4502 0.40716 0.0
H465 H 0.44664 0.459 0.43579 0.0
H466 H 0.43246 0.42971 0.4282 0.0
O467 O 0.44524 0.39342 0.36631 0.0
O468 O 0.48092 0.40388 0.36138 0.0
H469 H 0.5293 0.45448 0.40614 0.0
H470 H 0.52981 0.47105 0.43054 0.0
C471 C 0.52486 0.46698 0.41218 0.0
H472 H 0.53431 0.48234 0.4017 0.0
H473 H 0.52604 0.4167 0.36535 0.0
O474 O 0.41598 0.41359 0.38381 0.0
C475 C 0.46053 0.38868 0.3626 0.0
Co476 Co 0.58107 0.03709 0.37633 0.0
Co477 Co 0.56494 0.07116 0.36589 0.0
C478 C 0.55351 0.03241 0.33459 0.0
O479 O 0.56413 0.0257 0.34716 0.0
O480 O 0.55226 0.04962 0.34001 0.0
C481 C 0.58066 0.99519 0.38334 0.0
O482 O 0.56413 0.98644 0.36845 0.0
C483 C 0.53475 0.08857 0.35681 0.0
C484 C 0.55791 0.12497 0.35922 0.0
C485 C 0.53611 0.10911 0.35402 0.0
N486 N 0.5549 0.09213 0.36338 0.0
N487 N 0.56859 0.11391 0.36506 0.0
C488 C 0.51548 0.06611 0.35087 0.0
H489 H 0.5182 0.05265 0.35766 0.0
H490 H 0.49976 0.06419 0.35808 0.0
H491 H 0.51366 0.06456 0.33182 0.0
C492 C 0.55588 0.03172 0.41925 0.0
N493 N 0.56387 0.04167 0.39874 0.0
N494 N 0.55718 0.05613 0.39479 0.0
C495 C 0.54476 0.05595 0.41285 0.0
C496 C 0.54357 0.04049 0.42897 0.0
C497 C 0.55819 0.01261 0.42808 0.0
H498 H 0.57605 0.01846 0.43156 0.0
H499 H 0.55231 -0.00054 0.41465 0.0
H500 H 0.54832 0.00512 0.44396 0.0
O501 O 0.60945 0.06495 0.36993 0.0
O502 O 0.59761 0.08858 0.36156 0.0
H503 H 0.54652 0.08761 0.40893 0.0
H504 H 0.52911 0.07094 0.43262 0.0
C505 C 0.53442 0.07041 0.41467 0.0
H506 H 0.51964 0.06371 0.40317 0.0
H507 H 0.58547 0.12126 0.36932 0.0
O508 O 0.58963 0.01576 0.38843 0.0
C509 C 0.61332 0.08421 0.36374 0.0
Co510 Co 0.87858 0.63184 0.79323 0.0
Co511 Co 0.82728 0.59885 0.80056 0.0
C512 C 0.8546 0.63507 0.8347 0.0
O513 O 0.87222 0.64231 0.82249 0.0
O514 O 0.83618 0.61831 0.82833 0.0
C515 C 0.92293 0.67181 0.79118 0.0
O516 O 0.9174 0.67886 0.80973 0.0
C517 C 0.77977 0.58084 0.81195 0.0
C518 C 0.76363 0.55018 0.79076 0.0
C519 C 0.75921 0.56251 0.80654 0.0
N520 N 0.79567 0.57929 0.80014 0.0
N521 N 0.7859 0.5609 0.78754 0.0
C522 C 0.78411 0.60034 0.82675 0.0
H523 H 0.79847 0.61586 0.81987 0.0
H524 H 0.76922 0.60242 0.82756 0.0
H525 H 0.78821 0.59749 0.84447 0.0
C526 C 0.86185 0.64045 0.75002 0.0
N527 N 0.85833 0.62937 0.77006 0.0
N528 N 0.83674 0.61649 0.77334 0.0
C529 C 0.82575 0.61943 0.75568 0.0
C530 C 0.84135 0.63477 0.74031 0.0
C531 C 0.88452 0.65544 0.74001 0.0
H532 H 0.89468 0.64717 0.74129 0.0
H533 H 0.89295 0.67121 0.75005 0.0
H534 H 0.88363 0.65932 0.7216 0.0
O535 O 0.87711 0.60312 0.79894 0.0
O536 O 0.84082 0.57942 0.80291 0.0
H537 H 0.79335 0.59133 0.74979 0.0
H538 H 0.79581 0.61775 0.74189 0.0
C539 C 0.8009 0.60918 0.75464 0.0
H540 H 0.79443 0.61007 0.77187 0.0
H541 H 0.79446 0.5557 0.77667 0.0
O542 O 0.90922 0.65292 0.78261 0.0
C543 C 0.86093 0.5835 0.80246 0.0
Co544 Co 0.36384 0.2444 0.79218 0.0
Co545 Co 0.4 0.23087 0.80122 0.0
C546 C 0.36183 0.2196 0.83439 0.0
O547 O 0.35312 0.22805 0.82142 0.0
O548 O 0.37979 0.21992 0.82864 0.0
C549 C 0.32393 0.24848 0.7888 0.0
O550 O 0.31819 0.23881 0.80912 0.0
C551 C 0.41594 0.19973 0.81017 0.0
C552 C 0.45256 0.22207 0.80992 0.0
C553 C 0.43595 0.20026 0.81393 0.0
N554 N 0.42048 0.22034 0.80419 0.0
N555 N 0.44239 0.23357 0.8038 0.0
C556 C 0.39294 0.18071 0.81472 0.0
H557 H 0.38014 0.18475 0.80867 0.0
H558 H 0.39051 0.16544 0.80585 0.0
H559 H 0.39086 0.17718 0.83352 0.0
C560 C 0.35758 0.21799 0.75 0.0
N561 N 0.36822 0.22684 0.77001 0.0
N562 N 0.38359 0.22123 0.77332 0.0
C563 C 0.3835 0.20892 0.7552 0.0
C564 C 0.36701 0.20649 0.7398 0.0
C565 C 0.33762 0.21911 0.74183 0.0
H566 H 0.32602 0.21573 0.75646 0.0
H567 H 0.3285 0.2068 0.72797 0.0
H568 H 0.34313 0.23615 0.73525 0.0
O569 O 0.39152 0.27311 0.79857 0.0
O570 O 0.41775 0.26376 0.80237 0.0
H571 H 0.4162 0.21293 0.75864 0.0
H572 H 0.40058 0.19644 0.73399 0.0
C573 C 0.3994 0.20036 0.75233 0.0
H574 H 0.39343 0.18493 0.7627 0.0
H575 H 0.45039 0.25064 0.80027 0.0
O576 O 0.34216 0.25223 0.77962 0.0
C577 C 0.41178 0.27839 0.80183 0.0
Co578 Co 0.74953 0.11351 0.79432 0.0
Co579 Co 0.76719 0.16438 0.80267 0.0
C580 C 0.77753 0.13779 0.8356 0.0
O581 O 0.7665 0.12021 0.82352 0.0
O582 O 0.77954 0.15634 0.82936 0.0
C583 C 0.75408 0.07497 0.78535 0.0
O584 O 0.77526 0.08813 0.79034 0.0
C585 C 0.79855 0.21202 0.80989 0.0
C586 C 0.77631 0.22626 0.80661 0.0
C587 C 0.79798 0.23168 0.8118 0.0
N588 N 0.7781 0.19564 0.80382 0.0
N589 N 0.76495 0.20431 0.80162 0.0
C590 C 0.81742 0.20831 0.81618 0.0
H591 H 0.81883 0.20832 0.83527 0.0
H592 H 0.81444 0.19205 0.80937 0.0
H593 H 0.83341 0.22199 0.80931 0.0
C594 C 0.77295 0.13131 0.74953 0.0
N595 N 0.76653 0.1341 0.77065 0.0
N596 N 0.77419 0.15553 0.77422 0.0
C597 C 0.78592 0.16709 0.75556 0.0
C598 C 0.78557 0.15214 0.73932 0.0
C599 C 0.7683 0.10922 0.74008 0.0
H600 H 0.7507 0.0964 0.74354 0.0
H601 H 0.77938 0.10422 0.74876 0.0
H602 H 0.7715 0.10977 0.72133 0.0
O603 O 0.72159 0.114 0.79986 0.0
O604 O 0.73458 0.14995 0.80696 0.0
H605 H 0.78474 0.19736 0.75836 0.0
H606 H 0.80201 0.19729 0.735 0.0
C607 C 0.79665 0.19188 0.75305 0.0
H608 H 0.81143 0.20006 0.76454 0.0
H609 H 0.74799 0.19507 0.7976 0.0
O610 O 0.74072 0.08256 0.78575 0.0
C611 C 0.71841 0.13003 0.80522 0.0
Co612 Co 0.36764 0.1185 0.29044 0.0
Co613 Co 0.39655 0.16995 0.29908 0.0
C614 C 0.36201 0.14005 0.33298 0.0
O615 O 0.35656 0.12291 0.32049 0.0
O616 O 0.37724 0.15939 0.32669 0.0
C617 C 0.32698 0.07706 0.28243 0.0
O618 O 0.31722 0.08684 0.29274 0.0
C619 C 0.41008 0.21626 0.31117 0.0
C620 C 0.44142 0.23514 0.29141 0.0
C621 C 0.42741 0.23766 0.30665 0.0
N622 N 0.41379 0.20172 0.29935 0.0
N623 N 0.43255 0.21311 0.28756 0.0
C624 C 0.38951 0.2098 0.32512 0.0
H625 H 0.37505 0.19473 0.31766 0.0
H626 H 0.38572 0.2236 0.32573 0.0
H627 H 0.39225 0.20593 0.34298 0.0
C628 C 0.357 0.13443 0.24753 0.0
N629 N 0.36784 0.13822 0.26778 0.0
N630 N 0.37913 0.15984 0.27173 0.0
C631 C 0.37528 0.17049 0.25438 0.0
C632 C 0.36107 0.15469 0.23848 0.0
C633 C 0.34393 0.11194 0.23643 0.0
H634 H 0.35223 0.10201 0.23953 0.0
H635 H 0.32693 0.10301 0.24403 0.0
H636 H 0.3424 0.11343 0.21754 0.0
O637 O 0.39766 0.12257 0.29464 0.0
O638 O 0.41812 0.15896 0.30136 0.0
H639 H 0.40173 0.20409 0.24989 0.0
H640 H 0.37467 0.19952 0.24115 0.0
C641 C 0.38365 0.19507 0.25405 0.0
H642 H 0.38147 0.20057 0.27133 0.0
H643 H 0.4393 0.20582 0.27691 0.0
O644 O 0.34809 0.08751 0.28031 0.0
C645 C 0.41631 0.13978 0.29927 0.0
Co646 Co 0.88501 0.24584 0.29418 0.0
Co647 Co 0.83392 0.22791 0.30036 0.0
C648 C 0.85978 0.21907 0.33568 0.0
O649 O 0.87752 0.22939 0.32372 0.0
O650 O 0.84145 0.21717 0.32873 0.0
C651 C 0.92229 0.23973 0.28504 0.0
O652 O 0.9077 0.21839 0.28745 0.0
C653 C 0.78637 0.19715 0.30877 0.0
C654 C 0.77137 0.21728 0.29755 0.0
C655 C 0.76641 0.19713 0.30747 0.0
N656 N 0.80254 0.21648 0.29992 0.0
N657 N 0.79343 0.22835 0.29303 0.0
C658 C 0.79035 0.18004 0.32016 0.0
H659 H 0.80564 0.18077 0.31314 0.0
H660 H 0.7758 0.16304 0.31772 0.0
H661 H 0.79265 0.18351 0.33896 0.0
C662 C 0.86883 0.22182 0.24949 0.0
N663 N 0.86529 0.22836 0.27019 0.0
N664 N 0.84366 0.21956 0.2734 0.0
C665 C 0.83272 0.20645 0.2552 0.0
C666 C 0.84836 0.2074 0.23946 0.0
C667 C 0.89129 0.23072 0.23845 0.0
H668 H 0.90291 0.24787 0.24465 0.0
H669 H 0.89814 0.21972 0.2428 0.0
H670 H 0.88994 0.23101 0.21937 0.0
O671 O 0.88422 0.27364 0.2986 0.0
O672 O 0.8479 0.26091 0.30238 0.0
H673 H 0.80062 0.20348 0.25128 0.0
H674 H 0.80244 0.18024 0.23936 0.0
C675 C 0.80783 0.19245 0.2537 0.0
H676 H 0.80123 0.1832 0.27008 0.0
H677 H 0.80241 0.24436 0.286 0.0
O678 O 0.91603 0.25407 0.28702 0.0
C679 C 0.86796 0.27704 0.3017 0.0
Co680 Co 0.74872 0.63212 0.29308 0.0
Co681 Co 0.76554 0.5986 0.30371 0.0
C682 C 0.77455 0.63573 0.33611 0.0
O683 O 0.76436 0.64265 0.32314 0.0
O684 O 0.77642 0.61893 0.33053 0.0
C685 C 0.74203 0.67064 0.29133 0.0
O686 O 0.74802 0.67409 0.31314 0.0
C687 C 0.79562 0.58138 0.31427 0.0
C688 C 0.77388 0.54532 0.30738 0.0
C689 C 0.7948 0.561 0.31531 0.0
N690 N 0.77599 0.57796 0.30604 0.0
N691 N 0.76314 0.55639 0.30178 0.0
C692 C 0.81382 0.60334 0.32307 0.0
H693 H 0.81193 0.61726 0.31615 0.0
H694 H 0.83042 0.6058 0.31825 0.0
H695 H 0.81293 0.60344 0.3422 0.0
C696 C 0.77517 0.63878 0.25104 0.0
N697 N 0.76694 0.62846 0.27131 0.0
N698 N 0.77464 0.61488 0.27564 0.0
C699 C 0.78836 0.61637 0.25829 0.0
C700 C 0.78925 0.63174 0.2422 0.0
C701 C 0.76874 0.65431 0.23993 0.0
H702 H 0.7503 0.64645 0.24005 0.0
H703 H 0.77585 0.67004 0.25001 0.0
H704 H 0.77459 0.65818 0.22181 0.0
O705 O 0.72036 0.60397 0.29777 0.0
O706 O 0.73261 0.58062 0.30598 0.0
H707 H 0.78982 0.58622 0.25946 0.0
H708 H 0.81174 0.60814 0.24231 0.0
C709 C 0.80143 0.60447 0.25809 0.0
H710 H 0.81261 0.60973 0.27331 0.0
H711 H 0.74677 0.54914 0.29569 0.0
O712 O 0.7412 0.65415 0.28077 0.0
C713 C 0.71668 0.58461 0.30328 0.0
Co714 Co 0.44864 0.03122 0.87539 0.0
Co715 Co 0.49948 0.06346 0.86629 0.0
C716 C 0.47132 0.02746 0.83285 0.0
O717 O 0.45397 0.02083 0.84537 0.0
O718 O 0.49011 0.04371 0.83905 0.0
C719 C 0.40326 0.99325 0.87563 0.0
O720 O 0.40665 0.98986 0.85407 0.0
C721 C 0.54638 0.0785 0.85682 0.0
C722 C 0.56237 0.11464 0.8642 0.0
C723 C 0.56659 0.09825 0.85627 0.0
N724 N 0.5308 0.08294 0.86482 0.0
N725 N 0.54048 0.10454 0.86938 0.0
C726 C 0.54151 0.05624 0.84777 0.0
H727 H 0.54016 0.05624 0.82868 0.0
H728 H 0.52554 0.04275 0.85491 0.0
H729 H 0.55525 0.05301 0.85214 0.0
C730 C 0.46661 0.02299 0.91802 0.0
N731 N 0.46958 0.03359 0.89776 0.0
N732 N 0.49106 0.0467 0.89404 0.0
C733 C 0.50254 0.04465 0.9118 0.0
C734 C 0.48735 0.02941 0.92753 0.0
C735 C 0.44421 0.00793 0.92854 0.0
H736 H 0.43414 0.01633 0.92806 0.0
H737 H 0.43542 0.99233 0.91827 0.0
H738 H 0.44553 0.00374 0.94673 0.0
O739 O 0.44977 0.06009 0.87089 0.0
O740 O 0.48582 0.08256 0.86384 0.0
H741 H 0.53458 0.07435 0.91184 0.0
H742 H 0.53346 0.05172 0.92866 0.0
C743 C 0.52748 0.056 0.91279 0.0
H744 H 0.53363 0.05087 0.89766 0.0
H745 H 0.532 0.11249 0.87535 0.0
O746 O 0.41854 0.00962 0.88668 0.0
C747 C 0.46609 0.07929 0.86596 0.0
Co748 Co 0.96432 0.41639 0.87154 0.0
Co749 Co 0.93105 0.43405 0.86398 0.0
C750 C 0.96783 0.44378 0.83019 0.0
O751 O 0.97475 0.43299 0.84216 0.0
O752 O 0.95121 0.44561 0.8367 0.0
C753 C 0.00569 0.41537 0.8766 0.0
O754 O 0.0146 0.43221 0.86207 0.0
C755 C 0.9139 0.46421 0.85348 0.0
C756 C 0.88053 0.44677 0.86975 0.0
C757 C 0.89465 0.46536 0.85676 0.0
N758 N 0.91122 0.44565 0.86383 0.0
N759 N 0.89123 0.43529 0.87352 0.0
C760 C 0.93491 0.48096 0.84168 0.0
H761 H 0.94958 0.48124 0.8498 0.0
H762 H 0.93687 0.49789 0.84248 0.0
H763 H 0.93416 0.47617 0.8233 0.0
C764 C 0.97272 0.44186 0.91483 0.0
N765 N 0.96187 0.43427 0.89466 0.0
N766 N 0.94775 0.44159 0.89192 0.0
C767 C 0.94907 0.45403 0.91044 0.0
C768 C 0.9649 0.45452 0.92564 0.0
C769 C 0.9916 0.43861 0.92245 0.0
H770 H 0.00425 0.44424 0.90852 0.0
H771 H -9e-05 0.44821 0.93825 0.0
H772 H 0.98526 0.4206 0.9256 0.0
O773 O 0.93551 0.38869 0.86641 0.0
O774 O 0.91211 0.40132 0.86035 0.0
H775 H 0.93761 0.47268 0.93084 0.0
H776 H 0.93889 0.47721 0.89993 0.0
C777 C 0.93497 0.46462 0.91369 0.0
H778 H 0.91712 0.4517 0.91203 0.0
H779 H 0.88485 0.42029 0.8826 0.0
O780 O 0.98523 0.40674 0.88205 0.0
C781 C 0.91606 0.38526 0.86177 0.0
Co782 Co 0.57902 0.55251 0.86804 0.0
Co783 Co 0.5582 0.50079 0.86167 0.0
C784 C 0.5497 0.52779 0.82747 0.0
O785 O 0.56148 0.5455 0.83911 0.0
O786 O 0.54682 0.50901 0.83421 0.0
C787 C 0.5745 0.59042 0.87786 0.0
O788 O 0.55311 0.576 0.8755 0.0
C789 C 0.53342 0.45384 0.84671 0.0
C790 C 0.53375 0.43603 0.87818 0.0
C791 C 0.52525 0.43253 0.85591 0.0
N792 N 0.54519 0.46897 0.8631 0.0
N793 N 0.54586 0.45821 0.88164 0.0
C794 C 0.53242 0.45999 0.82216 0.0
H795 H 0.54782 0.47576 0.81769 0.0
H796 H 0.51787 0.46247 0.81994 0.0
H797 H 0.53085 0.44678 0.81015 0.0
C798 C 0.55579 0.53753 0.91318 0.0
N799 N 0.56174 0.53332 0.89245 0.0
N800 N 0.55105 0.5116 0.88888 0.0
C801 C 0.53685 0.50147 0.90665 0.0
C802 C 0.53963 0.51755 0.92273 0.0
C803 C 0.56642 0.56 0.92448 0.0
H804 H 0.58364 0.57073 0.91795 0.0
H805 H 0.55637 0.56807 0.9208 0.0
H806 H 0.56693 0.55831 0.94349 0.0
O807 O 0.6057 0.55009 0.86226 0.0
O808 O 0.59116 0.51348 0.85829 0.0
H809 H 0.52462 0.46759 0.91689 0.0
H810 H 0.50365 0.47553 0.91557 0.0
C811 C 0.51884 0.47745 0.90693 0.0
H812 H 0.51448 0.4708 0.88912 0.0
H813 H 0.55434 0.46602 0.89679 0.0
O814 O 0.58863 0.58391 0.87548 0.0
C815 C 0.60797 0.5332 0.85858 0.0
Co816 Co 0.63211 0.88611 0.70504 0.0
Co817 Co 0.59971 0.83474 0.69843 0.0
C818 C 0.63512 0.86091 0.66396 0.0
O819 O 0.64181 0.8787 0.67573 0.0
O820 O 0.6189 0.84237 0.67078 0.0
C821 C 0.67528 0.92339 0.71454 0.0
O822 O 0.6819 0.90872 0.71192 0.0
C823 C 0.57467 0.78829 0.68251 0.0
C824 C 0.55705 0.77024 0.7141 0.0
C825 C 0.56074 0.76696 0.69125 0.0
N826 N 0.57967 0.80318 0.69962 0.0
N827 N 0.56856 0.79233 0.71828 0.0
C828 C 0.58114 0.79488 0.65789 0.0
H829 H 0.58253 0.8113 0.65443 0.0
H830 H 0.59759 0.79627 0.65462 0.0
H831 H 0.56857 0.78239 0.64592 0.0
C832 C 0.64035 0.87011 0.74959 0.0
N833 N 0.62972 0.86643 0.72917 0.0
N834 N 0.61805 0.84478 0.72539 0.0
C835 C 0.62215 0.83411 0.74257 0.0
C836 C 0.63618 0.8498 0.75861 0.0
C837 C 0.65304 0.89244 0.76106 0.0
H838 H 0.64688 0.90364 0.7551 0.0
H839 H 0.67102 0.90008 0.75687 0.0
H840 H 0.65126 0.89062 0.7801 0.0
O841 O 0.60353 0.88499 0.69965 0.0
O842 O 0.58056 0.8486 0.69537 0.0
H843 H 0.60023 0.80018 0.75249 0.0
H844 H 0.6289 0.80751 0.74978 0.0
C845 C 0.61557 0.80994 0.74208 0.0
H846 H 0.61251 0.80356 0.72411 0.0
H847 H 0.569 0.8 0.73393 0.0
O848 O 0.6547 0.91723 0.71251 0.0
C849 C 0.58412 0.86853 0.69586 0.0
Co850 Co 0.11638 0.75082 0.70746 0.0
Co851 Co 0.16686 0.76682 0.69872 0.0
C852 C 0.13952 0.77792 0.66623 0.0
O853 O 0.12203 0.76802 0.67867 0.0
O854 O 0.15759 0.77849 0.67205 0.0
C855 C 0.07373 0.7492 0.715 0.0
O856 O 0.08077 0.76612 0.70068 0.0
C857 C 0.21414 0.79868 0.69037 0.0
C858 C 0.22877 0.77666 0.69158 0.0
C859 C 0.23383 0.79836 0.68717 0.0
N860 N 0.19811 0.77805 0.6964 0.0
N861 N 0.20703 0.76503 0.69739 0.0
C862 C 0.21001 0.8175 0.68527 0.0
H863 H 0.19337 0.81368 0.69177 0.0
H864 H 0.22314 0.83313 0.69333 0.0
H865 H 0.21075 0.8202 0.66633 0.0
C866 C 0.13513 0.77563 0.7508 0.0
N867 N 0.13766 0.76799 0.73033 0.0
N868 N 0.15891 0.77462 0.72709 0.0
C869 C 0.1706 0.78652 0.74563 0.0
C870 C 0.15588 0.78749 0.7613 0.0
C871 C 0.11352 0.77328 0.759 0.0
H872 H 0.10632 0.77876 0.74512 0.0
H873 H 0.11563 0.78347 0.77456 0.0
H874 H 0.10158 0.75546 0.76283 0.0
O875 O 0.1167 0.72299 0.70043 0.0
O876 O 0.15257 0.73411 0.69573 0.0
H877 H 0.20026 0.78421 0.74235 0.0
H878 H 0.20037 0.80061 0.76675 0.0
C879 C 0.19525 0.79627 0.74847 0.0
H880 H 0.20407 0.8116 0.73781 0.0
H881 H 0.19806 0.74799 0.70108 0.0
O882 O 0.08614 0.74098 0.71942 0.0
C883 C 0.13224 0.71871 0.69632 0.0
Co884 Co 0.2467 0.36249 0.70251 0.0
Co885 Co 0.22473 0.39213 0.69484 0.0
C886 C 0.21781 0.35623 0.66134 0.0
O887 O 0.22977 0.3508 0.67339 0.0
O888 O 0.21435 0.37191 0.66765 0.0
C889 C 0.24814 0.32193 0.71025 0.0
O890 O 0.2287 0.31175 0.69977 0.0
C891 C 0.19875 0.41286 0.67906 0.0
C892 C 0.20013 0.43252 0.70967 0.0
C893 C 0.19102 0.42655 0.68773 0.0
N894 N 0.21101 0.41024 0.69547 0.0
N895 N 0.21222 0.4225 0.71349 0.0
C896 C 0.19689 0.40449 0.65488 0.0
H897 H 0.21231 0.40427 0.65011 0.0
H898 H 0.18254 0.38721 0.65377 0.0
H899 H 0.1945 0.41528 0.6424 0.0
C900 C 0.22184 0.35286 0.74639 0.0
N901 N 0.22841 0.36367 0.72605 0.0
N902 N 0.21777 0.37471 0.7224 0.0
C903 C 0.20327 0.37038 0.73993 0.0
C904 C 0.20559 0.35661 0.75577 0.0
C905 C 0.2314 0.33973 0.757 0.0
H906 H 0.2496 0.34807 0.75365 0.0
H907 H 0.22325 0.3228 0.74926 0.0
H908 H 0.22859 0.33802 0.77593 0.0
O909 O 0.27267 0.39199 0.69656 0.0
O910 O 0.25742 0.41328 0.69168 0.0
H911 H 0.19177 0.3927 0.7497 0.0
H912 H 0.17041 0.36388 0.74939 0.0
C913 C 0.18552 0.37673 0.74026 0.0
H914 H 0.18086 0.37861 0.72244 0.0
H915 H 0.22117 0.42387 0.72849 0.0
O916 O 0.25832 0.34303 0.71243 0.0
C917 C 0.27451 0.41089 0.69243 0.0
Co918 Co 0.54821 0.97077 0.13164 0.0
Co919 Co 0.49765 0.93579 0.13858 0.0
C920 C 0.52454 0.97221 0.17349 0.0
O921 O 0.54221 0.98068 0.16123 0.0
O922 O 0.5066 0.95502 0.16677 0.0
C923 C 0.59324 0.01005 0.12844 0.0
O924 O 0.58945 0.01725 0.14795 0.0
C925 C 0.4506 0.91931 0.1491 0.0
C926 C 0.43418 0.88561 0.13357 0.0
C927 C 0.43003 0.90025 0.146 0.0
N928 N 0.46626 0.91605 0.13913 0.0
N929 N 0.45636 0.89585 0.12992 0.0
C930 C 0.45528 0.94074 0.16024 0.0
H931 H 0.46998 0.95503 0.15202 0.0
H932 H 0.44059 0.94311 0.15893 0.0
H933 H 0.45907 0.94027 0.17877 0.0
C934 C 0.53043 0.97966 0.08926 0.0
N935 N 0.52747 0.96834 0.10905 0.0
N936 N 0.50623 0.95334 0.11136 0.0
C937 C 0.49498 0.95431 0.09279 0.0
C938 C 0.51002 0.97102 0.0781 0.0
C939 C 0.55217 -0.00062 0.08207 0.0
H940 H 0.56025 0.01033 0.09717 0.0
H941 H 0.54987 0.00932 0.06845 0.0
H942 H 0.56338 0.99346 0.0755 0.0
O943 O 0.54755 0.94212 0.13655 0.0
O944 O 0.5116 0.91699 0.13986 0.0
H945 H 0.46685 0.92129 0.09116 0.0
H946 H 0.46544 0.94046 0.07111 0.0
C947 C 0.47062 0.93873 0.08875 0.0
H948 H 0.46082 0.94211 0.10164 0.0
H949 H 0.46477 0.88907 0.12116 0.0
O950 O 0.57838 0.99158 0.12004 0.0
C951 C 0.53198 0.92204 0.13936 0.0
Co952 Co 0.03503 0.58257 0.12391 0.0
Co953 Co 0.06538 0.56193 0.13387 0.0
C954 C 0.02991 0.55614 0.16703 0.0
O955 O 0.02417 0.56738 0.15416 0.0
O956 O 0.04556 0.55249 0.16118 0.0
C957 C 0.99375 0.58255 0.11566 0.0
O958 O 0.98411 0.56386 0.12753 0.0
C959 C 0.08018 0.5298 0.14471 0.0
C960 C 0.11572 0.54888 0.1345 0.0
C961 C 0.0998 0.52905 0.1444 0.0
N962 N 0.08428 0.54928 0.13537 0.0
N963 N 0.1055 0.5605 0.12911 0.0
C964 C 0.05852 0.51331 0.15566 0.0
H965 H 0.05954 0.51658 0.1745 0.0
H966 H 0.04459 0.51501 0.14842 0.0
H967 H 0.05519 0.49602 0.15309 0.0
C968 C 0.02555 0.55546 0.08162 0.0
N969 N 0.03636 0.5632 0.10178 0.0
N970 N 0.04843 0.55376 0.10606 0.0
C971 C 0.04525 0.53924 0.08891 0.0
C972 C 0.03048 0.53975 0.07291 0.0
C973 C 0.01151 0.56369 0.07038 0.0
H974 H 0.01941 0.58201 0.07259 0.0
H975 H 0.99481 0.55557 0.07864 0.0
H976 H 0.0094 0.55983 0.05165 0.0
O977 O 0.06442 0.60947 0.12802 0.0
O978 O 0.08568 0.59475 0.13613 0.0
H979 H 0.07335 0.53426 0.08799 0.0
H980 H 0.04856 0.51209 0.07436 0.0
C981 C 0.05487 0.52408 0.08892 0.0
H982 H 0.05049 0.51458 0.10532 0.0
H983 H 0.11319 0.57643 0.12181 0.0
O984 O 0.01478 0.59284 0.11287 0.0
C985 C 0.08323 0.61166 0.13335 0.0
Co986 Co 0.41574 0.45124 0.12414 0.0
Co987 Co 0.43076 0.50155 0.13205 0.0
C988 C 0.44124 0.4746 0.16597 0.0
O989 O 0.43245 0.45719 0.15332 0.0
O990 O 0.44134 0.49237 0.1598 0.0
C991 C 0.41429 0.40855 0.11801 0.0
O992 O 0.43008 0.41532 0.13369 0.0
C993 C 0.46089 0.54838 0.14351 0.0
C994 C 0.44338 0.56487 0.12868 0.0
C995 C 0.46215 0.56889 0.14107 0.0
N996 N 0.4421 0.53284 0.13326 0.0
N997 N 0.43167 0.54277 0.12443 0.0
C998 C 0.47783 0.54373 0.15422 0.0
H999 H 0.47742 0.52914 0.14577 0.0
H1000 H 0.49484 0.5585 0.15278 0.0
H1001 H 0.47383 0.53987 0.17277 0.0
C1002 C 0.44153 0.47003 0.08113 0.0
N1003 N 0.43322 0.47239 0.10128 0.0
N1004 N 0.43979 0.49361 0.10451 0.0
C1005 C 0.45251 0.50549 0.08647 0.0
C1006 C 0.45398 0.49091 0.07103 0.0
C1007 C 0.43894 0.44839 0.07273 0.0
H1008 H 0.44438 0.441 0.08647 0.0
H1009 H 0.44898 0.45056 0.05701 0.0
H1010 H 0.42107 0.43659 0.06901 0.0
O1011 O 0.38775 0.45143 0.1309 0.0
O1012 O 0.39797 0.48732 0.13366 0.0
H1013 H 0.47075 0.53619 0.06687 0.0
H1014 H 0.47489 0.53879 0.09782 0.0
C1015 C 0.46251 0.5302 0.08387 0.0
H1016 H 0.44922 0.53461 0.08568 0.0
H1017 H 0.41653 0.53444 0.11557 0.0
O1018 O 0.40648 0.42107 0.11242 0.0
C1019 C 0.383 0.46681 0.13384 0.0
Co1020 Co 0.02719 0.44904 0.62662 0.0
Co1021 Co 0.06254 0.49947 0.63329 0.0
C1022 C 0.02581 0.47302 0.66815 0.0
O1023 O 0.01706 0.45543 0.6558 0.0
O1024 O 0.04333 0.49073 0.66158 0.0
C1025 C 0.98784 0.40437 0.62492 0.0
O1026 O 0.98196 0.40872 0.64495 0.0
C1027 C 0.07884 0.54638 0.64385 0.0
C1028 C 0.11273 0.56301 0.62874 0.0
C1029 C 0.09791 0.567 0.64106 0.0
N1030 N 0.08227 0.53085 0.63386 0.0
N1031 N 0.10256 0.54086 0.62486 0.0
C1032 C 0.05726 0.54157 0.65472 0.0
H1033 H 0.0431 0.52694 0.64627 0.0
H1034 H 0.05488 0.55626 0.65342 0.0
H1035 H 0.05749 0.53762 0.67323 0.0
C1036 C 0.01916 0.46676 0.5836 0.0
N1037 N 0.03016 0.4697 0.60361 0.0
N1038 N 0.04505 0.49096 0.60607 0.0
C1039 C 0.0442 0.50225 0.58747 0.0
C1040 C 0.0278 0.48722 0.57256 0.0
C1041 C -0.00019 0.44495 0.57598 0.0
H1042 H 0.98828 0.43686 0.5907 0.0
H1043 H 0.99038 0.44711 0.5617 0.0
H1044 H 0.00607 0.43379 0.57018 0.0
O1045 O 0.05557 0.44938 0.63252 0.0
O1046 O 0.08127 0.48535 0.63452 0.0
H1047 H 0.05753 0.53204 0.56621 0.0
H1048 H 0.0562 0.53625 0.59689 0.0
C1049 C 0.05956 0.5267 0.58366 0.0
H1050 H 0.07708 0.53061 0.58574 0.0
H1051 H 0.10948 0.53256 0.61614 0.0
O1052 O 0.00588 0.41885 0.61543 0.0
C1053 C 0.07577 0.46485 0.63481 0.0
Co1054 Co 0.54365 0.58626 0.62566 0.0
Co1055 Co 0.49202 0.56615 0.63131 0.0
C1056 C 0.51956 0.5582 0.66632 0.0
O1057 O 0.53734 0.56888 0.65442 0.0
O1058 O 0.50109 0.5562 0.65956 0.0
C1059 C 0.58633 0.58829 0.61969 0.0
O1060 O 0.57754 0.56947 0.63134 0.0
C1061 C 0.44472 0.53562 0.64243 0.0
C1062 C 0.42791 0.54858 0.62002 0.0
C1063 C 0.42394 0.53257 0.63656 0.0
N1064 N 0.46032 0.55287 0.63015 0.0
N1065 N 0.45015 0.56054 0.61679 0.0
C1066 C 0.44961 0.52153 0.6583 0.0
H1067 H 0.46394 0.52019 0.65166 0.0
H1068 H 0.43489 0.50455 0.66012 0.0
H1069 H 0.45404 0.52954 0.67555 0.0
C1070 C 0.52883 0.56132 0.58169 0.0
N1071 N 0.52451 0.56841 0.60165 0.0
N1072 N 0.50277 0.55899 0.60435 0.0
C1073 C 0.49253 0.54515 0.58641 0.0
C1074 C 0.50875 0.54617 0.57146 0.0
C1075 C 0.55179 0.56943 0.57228 0.0
H1076 H 0.5622 0.5877 0.57486 0.0
H1077 H 0.5596 0.56107 0.58161 0.0
H1078 H 0.55135 0.56579 0.55357 0.0
O1079 O 0.54049 0.61245 0.63224 0.0
O1080 O 0.50383 0.59879 0.63378 0.0
H1081 H 0.45986 0.53968 0.57941 0.0
H1082 H 0.4635 0.51634 0.57198 0.0
C1083 C 0.46782 0.52987 0.58472 0.0
H1084 H 0.46103 0.52233 0.60182 0.0
H1085 H 0.45844 0.574 0.6055 0.0
O1086 O 0.57491 0.59778 0.61625 0.0
C1087 C 0.52372 0.61513 0.63472 0.0
Co1088 Co 0.41407 0.96888 0.62838 0.0
Co1089 Co 0.43436 0.93755 0.63388 0.0
C1090 C 0.44119 0.9707 0.67002 0.0
O1091 O 0.43002 0.97738 0.65838 0.0
O1092 O 0.44443 0.95526 0.66255 0.0
C1093 C 0.42025 0.01216 0.62075 0.0
O1094 O 0.44137 0.01835 0.62399 0.0
C1095 C 0.46399 0.91969 0.64421 0.0
C1096 C 0.45036 0.88992 0.62173 0.0
C1097 C 0.46651 0.90167 0.63826 0.0
N1098 N 0.44688 0.91849 0.63204 0.0
N1099 N 0.43884 0.90068 0.61859 0.0
C1100 C 0.4785 0.93856 0.66002 0.0
H1101 H 0.48022 0.9544 0.65342 0.0
H1102 H 0.49533 0.94041 0.66168 0.0
H1103 H 0.47063 0.93516 0.67733 0.0
C1104 C 0.43912 0.97917 0.58417 0.0
N1105 N 0.43243 0.96824 0.60444 0.0
N1106 N 0.44232 0.9564 0.60749 0.0
C1107 C 0.45643 0.96025 0.58973 0.0
C1108 C 0.45488 0.97488 0.57437 0.0
C1109 C 0.42921 0.99186 0.57325 0.0
H1110 H 0.41184 0.98539 0.57929 0.0
H1111 H 0.43941 0.00976 0.57781 0.0
H1112 H 0.42923 0.99051 0.55416 0.0
O1113 O 0.38679 0.93959 0.63157 0.0
O1114 O 0.40141 0.91764 0.6363 0.0
H1115 H 0.4628 0.93372 0.58224 0.0
H1116 H 0.48615 0.96119 0.57644 0.0
C1117 C 0.47208 0.95125 0.5884 0.0
H1118 H 0.47885 0.9514 0.60578 0.0
H1119 H 0.42538 0.8958 0.60737 0.0
O1120 O 0.40556 0.99159 0.62183 0.0
C1121 C 0.38455 0.92042 0.63513 0.0
Co1122 Co 0.11099 0.36086 0.20606 0.0
Co1123 Co 0.16265 0.39092 0.19944 0.0
C1124 C 0.13541 0.35704 0.16442 0.0
O1125 O 0.11776 0.35152 0.17605 0.0
O1126 O 0.15446 0.37198 0.17166 0.0
C1127 C 0.07353 0.31805 0.21458 0.0
O1128 O 0.08824 0.31153 0.21167 0.0
C1129 C 0.20931 0.4138 0.18398 0.0
C1130 C 0.22756 0.43092 0.21567 0.0
C1131 C 0.23071 0.42677 0.19295 0.0
N1132 N 0.19442 0.40972 0.20087 0.0
N1133 N 0.20542 0.42052 0.21959 0.0
C1134 C 0.20285 0.40747 0.15932 0.0
H1135 H 0.18699 0.40718 0.1555 0.0
H1136 H 0.2004 0.39055 0.15628 0.0
H1137 H 0.21591 0.4195 0.14743 0.0
C1138 C 0.12576 0.35087 0.25034 0.0
N1139 N 0.13009 0.36157 0.22992 0.0
N1140 N 0.15178 0.3724 0.22629 0.0
C1141 C 0.16178 0.36763 0.24364 0.0
C1142 C 0.14564 0.35405 0.25956 0.0
C1143 C 0.10333 0.33924 0.26175 0.0
H1144 H 0.09287 0.34618 0.2556 0.0
H1145 H 0.09489 0.32117 0.25774 0.0
H1146 H 0.10515 0.34111 0.28079 0.0
O1147 O 0.11352 0.39024 0.20252 0.0
O1148 O 0.15 0.41122 0.19631 0.0
H1149 H 0.19573 0.3886 0.25406 0.0
H1150 H 0.18742 0.35966 0.25155 0.0
C1151 C 0.18571 0.37334 0.24361 0.0
H1152 H 0.19235 0.37618 0.22576 0.0
H1153 H 0.19782 0.42061 0.23511 0.0
O1154 O 0.0797 0.33867 0.21307 0.0
C1155 C 0.13062 0.40904 0.19807 0.0
Co1156 Co 0.63143 0.75069 0.20312 0.0
Co1157 Co 0.59777 0.76802 0.19701 0.0
C1158 C 0.63399 0.77728 0.16206 0.0
O1159 O 0.64191 0.76734 0.17394 0.0
O1160 O 0.61711 0.77846 0.16899 0.0
C1161 C 0.67217 0.74837 0.20953 0.0
O1162 O 0.68261 0.76673 0.1972 0.0
C1163 C 0.58307 0.80012 0.18744 0.0
C1164 C 0.54896 0.78328 0.20202 0.0
C1165 C 0.56433 0.80223 0.19027 0.0
N1166 N 0.57893 0.78069 0.19689 0.0
N1167 N 0.55852 0.77068 0.20557 0.0
C1168 C 0.60496 0.8167 0.17699 0.0
H1169 H 0.61876 0.81541 0.18523 0.0
H1170 H 0.60794 0.83395 0.17893 0.0
H1171 H 0.60472 0.81305 0.15832 0.0
C1172 C 0.64068 0.7764 0.24654 0.0
N1173 N 0.6295 0.76871 0.22654 0.0
N1174 N 0.61512 0.77576 0.22433 0.0
C1175 C 0.61645 0.78794 0.24305 0.0
C1176 C 0.6327 0.78874 0.25777 0.0
C1177 C 0.6599 0.77349 0.25363 0.0
H1178 H 0.65385 0.75554 0.25681 0.0
H1179 H 0.67225 0.7792 0.23942 0.0
H1180 H 0.66846 0.78325 0.26927 0.0
O1181 O 0.60228 0.72347 0.19756 0.0
O1182 O 0.57804 0.73545 0.19486 0.0
H1183 H 0.58406 0.78468 0.24429 0.0
H1184 H 0.60344 0.80433 0.26487 0.0
C1185 C 0.6017 0.79771 0.2471 0.0
H1186 H 0.60594 0.81133 0.23449 0.0
H1187 H 0.55107 0.75518 0.2138 0.0
O1188 O 0.65139 0.73972 0.21333 0.0
C1189 C 0.58243 0.71967 0.19481 0.0
Co1190 Co 0.24479 0.88162 0.20598 0.0
Co1191 Co 0.2286 0.8311 0.19746 0.0
C1192 C 0.21883 0.85811 0.16379 0.0
O1193 O 0.22851 0.8755 0.17641 0.0
O1194 O 0.21774 0.83987 0.16985 0.0
C1195 C 0.24991 0.92623 0.20724 0.0
O1196 O 0.24086 0.92216 0.1866 0.0
C1197 C 0.19868 0.78359 0.18758 0.0
C1198 C 0.22019 0.76938 0.19616 0.0
C1199 C 0.19951 0.76401 0.18735 0.0
N1200 N 0.21805 0.7999 0.19619 0.0
N1201 N 0.23074 0.79126 0.2015 0.0
C1202 C 0.1808 0.78726 0.17763 0.0
H1203 H 0.18282 0.78883 0.1586 0.0
H1204 H 0.18207 0.80278 0.18463 0.0
H1205 H 0.16404 0.77285 0.18142 0.0
C1206 C 0.21903 0.86311 0.24873 0.0
N1207 N 0.22706 0.86044 0.22859 0.0
N1208 N 0.21947 0.83906 0.22501 0.0
C1209 C 0.20602 0.82733 0.24273 0.0
C1210 C 0.20521 0.84225 0.25831 0.0
C1211 C 0.22546 0.88539 0.25903 0.0
H1212 H 0.24388 0.89612 0.25851 0.0
H1213 H 0.21805 0.89354 0.24864 0.0
H1214 H 0.21993 0.88399 0.27722 0.0
O1215 O 0.273 0.88178 0.20065 0.0
O1216 O 0.2616 0.84585 0.19576 0.0
H1217 H 0.20496 0.79592 0.24393 0.0
H1218 H 0.18215 0.79613 0.25913 0.0
C1219 C 0.19314 0.80237 0.24376 0.0
H1220 H 0.18269 0.79582 0.22807 0.0
H1221 H 0.24693 0.80046 0.20803 0.0
O1222 O 0.25284 0.91159 0.2173 0.0
C1223 C 0.27717 0.86612 0.19689 0.0
C1224 C 0.33268 0.21145 0.86431 0.0
C1225 C 0.35187 0.21094 0.85739 0.0
C1226 C 0.32456 0.20594 0.88692 0.0
C1227 C 0.33584 0.19971 0.90304 0.0
C1228 C 0.35452 0.19804 0.89591 0.0
C1229 C 0.36234 0.20369 0.87315 0.0
C1230 C 0.30448 0.20779 0.89382 0.0
C1231 C 0.36685 0.19126 0.91258 0.0
C1232 C 0.32949 0.21303 0.96502 0.0
C1233 C 0.31205 0.19245 0.97286 0.0
C1234 C 0.33802 0.21536 0.9426 0.0
C1235 C 0.32897 0.19665 0.92768 0.0
C1236 C 0.31217 0.17559 0.93583 0.0
C1237 C 0.30388 0.17375 0.95832 0.0
C1238 C 0.35602 0.2381 0.93456 0.0
C1239 C 0.30225 0.15522 0.92047 0.0
H1240 H 0.32435 0.21685 0.85225 0.0
H1241 H 0.3771 0.2031 0.86795 0.0
H1242 H 0.2917 0.19208 0.90208 0.0
H1243 H 0.30953 0.22137 0.9067 0.0
H1244 H 0.29673 0.21141 0.87887 0.0
H1245 H 0.37947 0.1884 0.90376 0.0
H1246 H 0.37549 0.20456 0.92569 0.0
H1247 H 0.35497 0.17581 0.92191 0.0
H1248 H 0.33604 0.22757 0.97613 0.0
H1249 H 0.29051 0.15775 0.96422 0.0
H1250 H 0.3493 0.24423 0.92076 0.0
H1251 H 0.37023 0.23704 0.92711 0.0
H1252 H 0.36238 0.25056 0.94877 0.0
H1253 H 0.29233 0.15718 0.90657 0.0
H1254 H 0.29118 0.13966 0.93016 0.0
H1255 H 0.31565 0.15339 0.91205 0.0
C1256 C 0.78402 0.11337 0.96673 0.0
C1257 C 0.80406 0.11498 0.9742 0.0
C1258 C 0.78179 0.11931 0.94416 0.0
C1259 C 0.80003 0.12704 0.92869 0.0
C1260 C 0.82059 0.12962 0.93639 0.0
C1261 C 0.82236 0.12353 0.95905 0.0
C1262 C 0.75961 0.11645 0.93659 0.0
C1263 C 0.84043 0.13788 0.92042 0.0
C1264 C 0.78359 0.11551 0.86574 0.0
C1265 C 0.7862 0.13602 0.8584 0.0
C1266 C 0.78884 0.11265 0.88837 0.0
C1267 C 0.79694 0.13073 0.90405 0.0
C1268 C 0.80072 0.15179 0.89648 0.0
C1269 C 0.79532 0.15421 0.8737 0.0
C1270 C 0.78478 0.08996 0.89576 0.0
C1271 C 0.80951 0.17149 0.91269 0.0
H1272 H 0.76984 0.10692 0.97833 0.0
H1273 H 0.83791 0.12482 0.9646 0.0
H1274 H 0.762 0.13214 0.92877 0.0
H1275 H 0.75214 0.10327 0.92317 0.0
H1276 H 0.7476 0.11174 0.95112 0.0
H1277 H 0.85584 0.14117 0.92971 0.0
H1278 H 0.83686 0.12521 0.90685 0.0
H1279 H 0.84359 0.15343 0.9116 0.0
H1280 H 0.77673 0.10141 0.85401 0.0
H1281 H 0.7975 0.17015 0.86818 0.0
H1282 H 0.77132 0.08283 0.90893 0.0
H1283 H 0.80002 0.09148 0.90383 0.0
H1284 H 0.77982 0.07807 0.88109 0.0
H1285 H 0.7968 0.16828 0.9261 0.0
H1286 H 0.81359 0.18721 0.90356 0.0
H1287 H 0.82469 0.17385 0.92168 0.0
C1288 C 0.87645 0.66313 0.86527 0.0
C1289 C 0.85605 0.64533 0.85755 0.0
C1290 C 0.87884 0.67128 0.88785 0.0
C1291 C 0.86037 0.66146 0.90308 0.0
C1292 C 0.83942 0.64434 0.89507 0.0
C1293 C 0.83752 0.63644 0.8724 0.0
C1294 C 0.90146 0.68966 0.89574 0.0
C1295 C 0.8193 0.63362 0.91075 0.0
C1296 C 0.87629 0.66415 0.96596 0.0
C1297 C 0.87518 0.68277 0.97376 0.0
C1298 C 0.87066 0.65654 0.9432 0.0
C1299 C 0.86367 0.66777 0.92786 0.0
C1300 C 0.86145 0.68589 0.93587 0.0
C1301 C 0.86728 0.69321 0.95874 0.0
C1302 C 0.87314 0.63706 0.93533 0.0
C1303 C 0.85387 0.69814 0.92004 0.0
H1304 H 0.89083 0.67026 0.85392 0.0
H1305 H 0.82166 0.62277 0.8666 0.0
H1306 H 0.89996 0.70338 0.90386 0.0
H1307 H 0.90822 0.68304 0.90898 0.0
H1308 H 0.91363 0.69668 0.88131 0.0
H1309 H 0.8037 0.62248 0.90117 0.0
H1310 H 0.8218 0.62358 0.92412 0.0
H1311 H 0.81719 0.64656 0.91984 0.0
H1312 H 0.8822 0.65584 0.97744 0.0
H1313 H 0.86633 0.7076 0.96459 0.0
H1314 H 0.88649 0.64279 0.92209 0.0
H1315 H 0.85744 0.62411 0.9272 0.0
H1316 H 0.87742 0.62929 0.94976 0.0
H1317 H 0.86696 0.70752 0.90691 0.0
H1318 H 0.85054 0.71013 0.92956 0.0
H1319 H 0.8385 0.68616 0.91066 0.0
C1320 C 0.17153 0.2934 0.53956 0.0
C1321 C 0.18906 0.30395 0.5236 0.0
C1322 C 0.17373 0.30143 0.56222 0.0
C1323 C 0.19395 0.32042 0.56907 0.0
C1324 C 0.21136 0.33166 0.55282 0.0
C1325 C 0.2087 0.3233 0.5303 0.0
C1326 C 0.15476 0.28908 0.57904 0.0
C1327 C 0.23315 0.35206 0.55946 0.0
C1328 C 0.19854 0.35283 0.62362 0.0
C1329 C 0.20926 0.34527 0.63868 0.0
C1330 C 0.19266 0.3443 0.60114 0.0
C1331 C 0.19761 0.32781 0.59356 0.0
C1332 C 0.20749 0.31938 0.60897 0.0
C1333 C 0.21319 0.3282 0.63134 0.0
C1334 C 0.18202 0.35361 0.58523 0.0
C1335 C 0.2129 0.30168 0.60155 0.0
H1336 H 0.15629 0.27843 0.5346 0.0
H1337 H 0.22231 0.33167 0.51809 0.0
H1338 H 0.15982 0.28109 0.59252 0.0
H1339 H 0.15075 0.30086 0.5879 0.0
H1340 H 0.13942 0.27593 0.57046 0.0
H1341 H 0.24449 0.35963 0.54445 0.0
H1342 H 0.22998 0.36484 0.56731 0.0
H1343 H 0.24181 0.34744 0.5726 0.0
H1344 H 0.19534 0.36592 0.6291 0.0
H1345 H 0.22131 0.3221 0.64285 0.0
H1346 H 0.16682 0.33986 0.57711 0.0
H1347 H 0.19381 0.36318 0.57112 0.0
H1348 H 0.1774 0.36483 0.59439 0.0
H1349 H 0.19787 0.2871 0.5942 0.0
H1350 H 0.21919 0.29584 0.61606 0.0
H1351 H 0.2258 0.30844 0.58781 0.0
C1352 C 0.6636 0.88235 0.63354 0.0
C1353 C 0.64516 0.86228 0.64099 0.0
C1354 C 0.6716 0.88475 0.61088 0.0
C1355 C 0.66088 0.86666 0.59528 0.0
C1356 C 0.64293 0.84605 0.60295 0.0
C1357 C 0.63531 0.8441 0.62572 0.0
C1358 C 0.69093 0.90695 0.60337 0.0
C1359 C 0.63112 0.82637 0.58682 0.0
C1360 C 0.66505 0.88323 0.53238 0.0
C1361 C 0.68259 0.88026 0.52459 0.0
C1362 C 0.65736 0.87818 0.55518 0.0
C1363 C 0.66745 0.86994 0.57057 0.0
C1364 C 0.68451 0.86601 0.5626 0.0
C1365 C 0.69189 0.87121 0.53969 0.0
C1366 C 0.63899 0.88244 0.56302 0.0
C1367 C 0.69555 0.85711 0.5785 0.0
H1368 H 0.67144 0.89645 0.64524 0.0
H1369 H 0.62107 0.82854 0.63125 0.0
H1370 H 0.70408 0.90457 0.59516 0.0
H1371 H 0.68513 0.91464 0.59028 0.0
H1372 H 0.69845 0.91879 0.61801 0.0
H1373 H 0.61891 0.81093 0.59601 0.0
H1374 H 0.62208 0.83019 0.5734 0.0
H1375 H 0.64338 0.82313 0.57782 0.0
H1376 H 0.65767 0.89009 0.52084 0.0
H1377 H 0.7054 0.86877 0.53383 0.0
H1378 H 0.64554 0.89574 0.57636 0.0
H1379 H 0.62522 0.86718 0.57103 0.0
H1380 H 0.63205 0.88768 0.5486 0.0
H1381 H 0.70502 0.86965 0.59207 0.0
H1382 H 0.70724 0.85323 0.56916 0.0
H1383 H 0.68278 0.84177 0.58734 0.0
C1384 C 0.11755 0.78507 0.5352 0.0
C1385 C 0.1188 0.80482 0.52721 0.0
C1386 C 0.12325 0.78324 0.55798 0.0
C1387 C 0.1305 0.80163 0.57315 0.0
C1388 C 0.13284 0.82196 0.56494 0.0
C1389 C 0.12689 0.82329 0.54207 0.0
C1390 C 0.12059 0.76126 0.56607 0.0
C1391 C 0.14072 0.84199 0.58055 0.0
C1392 C 0.11792 0.78477 0.63591 0.0
C1393 C 0.13823 0.7871 0.64354 0.0
C1394 C 0.11552 0.79048 0.61331 0.0
C1395 C 0.13389 0.79881 0.59797 0.0
C1396 C 0.1548 0.80247 0.60593 0.0
C1397 C 0.15673 0.79655 0.62863 0.0
C1398 C 0.09295 0.78644 0.60549 0.0
C1399 C 0.17483 0.81157 0.59014 0.0
H1400 H 0.11146 0.77073 0.52386 0.0
H1401 H 0.12794 0.83863 0.5361 0.0
H1402 H 0.13629 0.76393 0.57412 0.0
H1403 H 0.10733 0.75388 0.57943 0.0
H1404 H 0.11608 0.74904 0.55177 0.0
H1405 H 0.14414 0.85725 0.57088 0.0
H1406 H 0.12776 0.83854 0.59375 0.0
H1407 H 0.1561 0.84531 0.58986 0.0
H1408 H 0.10357 0.77767 0.64732 0.0
H1409 H 0.17256 0.7986 0.6344 0.0
H1410 H 0.08596 0.77289 0.59243 0.0
H1411 H 0.0946 0.80164 0.59718 0.0
H1412 H 0.08089 0.78159 0.62 0.0
H1413 H 0.17217 0.79884 0.57695 0.0
H1414 H 0.19046 0.81605 0.59968 0.0
H1415 H 0.17701 0.82655 0.58084 0.0
C1416 C 0.68947 0.82288 0.03714 0.0
C1417 C 0.67966 0.80431 0.02235 0.0
C1418 C 0.68193 0.82136 0.05993 0.0
C1419 C 0.66424 0.8008 0.06808 0.0
C1420 C 0.65344 0.78241 0.05284 0.0
C1421 C 0.66124 0.78441 0.03016 0.0
C1422 C 0.69368 0.8414 0.0756 0.0
C1423 C 0.63441 0.76022 0.06086 0.0
C1424 C 0.66155 0.78411 0.13073 0.0
C1425 C 0.6435 0.78604 0.13893 0.0
C1426 C 0.66905 0.78977 0.10793 0.0
C1427 C 0.65833 0.79767 0.09297 0.0
C1428 C 0.64089 0.80079 0.10144 0.0
C1429 C 0.63363 0.79487 0.12432 0.0
C1430 C 0.68777 0.78629 0.09956 0.0
C1431 C 0.62922 0.80939 0.08607 0.0
H1432 H 0.7036 0.8384 0.03123 0.0
H1433 H 0.65341 0.77002 0.01883 0.0
H1434 H 0.68137 0.84415 0.08517 0.0
H1435 H 0.70367 0.83835 0.08856 0.0
H1436 H 0.70505 0.85685 0.06591 0.0
H1437 H 0.62666 0.74817 0.04643 0.0
H1438 H 0.64065 0.75282 0.07382 0.0
H1439 H 0.62134 0.76253 0.06935 0.0
H1440 H 0.66941 0.77747 0.14189 0.0
H1441 H 0.61971 0.79647 0.13047 0.0
H1442 H 0.70107 0.80174 0.09136 0.0
H1443 H 0.68133 0.77295 0.08626 0.0
H1444 H 0.69532 0.78144 0.11374 0.0
H1445 H 0.64159 0.8245 0.07659 0.0
H1446 H 0.618 0.81352 0.09597 0.0
H1447 H 0.6191 0.79653 0.07301 0.0
C1448 C 0.21069 0.88214 0.03276 0.0
C1449 C 0.19027 0.87973 0.02539 0.0
C1450 C 0.21333 0.87642 0.05528 0.0
C1451 C 0.19512 0.86805 0.07082 0.0
C1452 C 0.1742 0.86466 0.06324 0.0
C1453 C 0.17203 0.87057 0.04061 0.0
C1454 C 0.23591 0.8802 0.0627 0.0
C1455 C 0.15436 0.85565 0.07929 0.0
C1456 C 0.20169 0.84158 0.12545 0.0
C1457 C 0.2102 0.85967 0.14087 0.0
C1458 C 0.19584 0.84375 0.10279 0.0
C1459 C 0.19858 0.86448 0.09541 0.0
C1460 C 0.20618 0.88246 0.11117 0.0
C1461 C 0.21188 0.87983 0.1337 0.0
C1462 C 0.18763 0.82417 0.08649 0.0
C1463 C 0.20921 0.90481 0.10397 0.0
H1464 H 0.22486 0.88905 0.02111 0.0
H1465 H 0.1562 0.86864 0.03512 0.0
H1466 H 0.24297 0.89333 0.0762 0.0
H1467 H 0.23422 0.86473 0.07036 0.0
H1468 H 0.24793 0.88545 0.04813 0.0
H1469 H 0.13875 0.85186 0.07012 0.0
H1470 H 0.15183 0.84023 0.08794 0.0
H1471 H 0.15754 0.86809 0.093 0.0
H1472 H 0.20023 0.8259 0.13084 0.0
H1473 H 0.21827 0.89386 0.14549 0.0
H1474 H 0.20035 0.82795 0.0729 0.0
H1475 H 0.17212 0.82117 0.07772 0.0
H1476 H 0.18431 0.80862 0.09549 0.0
H1477 H 0.22251 0.91244 0.09068 0.0
H1478 H 0.21386 0.9166 0.1187 0.0
H1479 H 0.19362 0.90264 0.09612 0.0
C1480 C 0.12284 0.30048 0.03963 0.0
C1481 C 0.11598 0.31148 0.02412 0.0
C1482 C 0.12771 0.30735 0.06272 0.0
C1483 C 0.12575 0.3257 0.07044 0.0
C1484 C 0.11977 0.33746 0.05467 0.0
C1485 C 0.11495 0.33021 0.03171 0.0
C1486 C 0.13413 0.29447 0.07904 0.0
C1487 C 0.1177 0.35726 0.06223 0.0
C1488 C 0.1127 0.3304 0.13305 0.0
C1489 C 0.13348 0.3472 0.14121 0.0
C1490 C 0.11015 0.32268 0.11025 0.0
C1491 C 0.1288 0.332 0.09523 0.0
C1492 C 0.14999 0.34828 0.10359 0.0
C1493 C 0.15208 0.35565 0.12649 0.0
C1494 C 0.08729 0.30513 0.10199 0.0
C1495 C 0.17028 0.35858 0.08811 0.0
H1496 H 0.12377 0.28603 0.03394 0.0
H1497 H 0.10979 0.3389 0.01986 0.0
H1498 H 0.14973 0.306 0.08835 0.0
H1499 H 0.12085 0.28593 0.0922 0.0
H1500 H 0.13659 0.28171 0.06995 0.0
H1501 H 0.11414 0.36535 0.04756 0.0
H1502 H 0.10402 0.35179 0.07505 0.0
H1503 H 0.13332 0.36986 0.07078 0.0
H1504 H 0.09825 0.32365 0.1443 0.0
H1505 H 0.16819 0.36859 0.13256 0.0
H1506 H 0.08814 0.29102 0.09393 0.0
H1507 H 0.08131 0.31236 0.08859 0.0
H1508 H 0.07485 0.29851 0.11621 0.0
H1509 H 0.17222 0.34537 0.07939 0.0
H1510 H 0.18587 0.36965 0.09775 0.0
H1511 H 0.16811 0.36856 0.07442 0.0
C1512 C 0.78195 0.66896 0.46693 0.0
C1513 C 0.80236 0.68701 0.47423 0.0
C1514 C 0.77923 0.66065 0.44437 0.0
C1515 C 0.79735 0.67065 0.42872 0.0
C1516 C 0.81822 0.68834 0.43618 0.0
C1517 C 0.82049 0.69631 0.45886 0.0
C1518 C 0.75673 0.64164 0.43708 0.0
C1519 C 0.83794 0.69936 0.41998 0.0
C1520 C 0.79168 0.6373 0.37465 0.0
C1521 C 0.78284 0.64632 0.35894 0.0
C1522 C 0.79724 0.64557 0.39724 0.0
C1523 C 0.79396 0.66331 0.40425 0.0
C1524 C 0.78603 0.67316 0.38819 0.0
C1525 C 0.78055 0.66454 0.36574 0.0
C1526 C 0.80574 0.6347 0.41387 0.0
C1527 C 0.78248 0.69225 0.39499 0.0
H1528 H 0.76787 0.66156 0.47869 0.0
H1529 H 0.83632 0.71028 0.4643 0.0
H1530 H 0.74955 0.64744 0.42344 0.0
H1531 H 0.75858 0.62787 0.42964 0.0
H1532 H 0.74473 0.63492 0.45168 0.0
H1533 H 0.85347 0.71166 0.42896 0.0
H1534 H 0.84088 0.68663 0.41163 0.0
H1535 H 0.83434 0.70813 0.40606 0.0
H1536 H 0.79362 0.62328 0.36955 0.0
H1537 H 0.7739 0.67174 0.35371 0.0
H1538 H 0.79314 0.62592 0.42759 0.0
H1539 H 0.82123 0.64752 0.42244 0.0
H1540 H 0.80924 0.62244 0.40519 0.0
H1541 H 0.76912 0.68648 0.40822 0.0
H1542 H 0.77766 0.69902 0.38007 0.0
H1543 H 0.79792 0.70597 0.40279 0.0
C1544 C 0.30239 0.12255 0.45686 0.0
C1545 C 0.31377 0.11602 0.47222 0.0
C1546 C 0.30948 0.12815 0.4339 0.0
C1547 C 0.32838 0.12718 0.42617 0.0
C1548 C 0.34042 0.12142 0.4418 0.0
C1549 C 0.33297 0.11591 0.46462 0.0
C1550 C 0.2963 0.13431 0.41774 0.0
C1551 C 0.36077 0.12035 0.43422 0.0
C1552 C 0.33491 0.11609 0.36344 0.0
C1553 C 0.35155 0.13725 0.35597 0.0
C1554 C 0.32656 0.11278 0.38603 0.0
C1555 C 0.33505 0.13105 0.4015 0.0
C1556 C 0.35109 0.15262 0.39381 0.0
C1557 C 0.35916 0.15546 0.37113 0.0
C1558 C 0.30933 0.08952 0.3936 0.0
C1559 C 0.36045 0.17253 0.40979 0.0
H1560 H 0.28748 0.12258 0.46252 0.0
H1561 H 0.34196 0.11103 0.47638 0.0
H1562 H 0.30755 0.15019 0.4087 0.0
H1563 H 0.28815 0.1212 0.40434 0.0
H1564 H 0.28319 0.13615 0.4269 0.0
H1565 H 0.3689 0.11669 0.44878 0.0
H1566 H 0.35594 0.10716 0.42094 0.0
H1567 H 0.37317 0.13641 0.42622 0.0
H1568 H 0.32879 0.10194 0.35183 0.0
H1569 H 0.37198 0.17187 0.36556 0.0
H1570 H 0.29483 0.08967 0.40159 0.0
H1571 H 0.31665 0.08351 0.40689 0.0
H1572 H 0.30326 0.07746 0.37904 0.0
H1573 H 0.34674 0.17359 0.41852 0.0
H1574 H 0.37116 0.18847 0.40054 0.0
H1575 H 0.37059 0.17056 0.42344 0.0
C1576 C 0.87064 0.17382 0.46015 0.0
C1577 C 0.88011 0.1922 0.47519 0.0
C1578 C 0.86486 0.17591 0.43746 0.0
C1579 C 0.86871 0.1969 0.4296 0.0
C1580 C 0.87738 0.21529 0.44494 0.0
C1581 C 0.88296 0.21272 0.46755 0.0
C1582 C 0.85555 0.15589 0.42163 0.0
C1583 C 0.88164 0.23795 0.43719 0.0
C1584 C 0.88103 0.21241 0.36649 0.0
C1585 C 0.86103 0.21084 0.35891 0.0
C1586 C 0.88345 0.20718 0.38928 0.0
C1587 C 0.86543 0.20021 0.40489 0.0
C1588 C 0.84487 0.19763 0.39714 0.0
C1589 C 0.8429 0.20296 0.3742 0.0
C1590 C 0.90561 0.20997 0.39686 0.0
C1591 C 0.82526 0.1901 0.41329 0.0
H1592 H 0.86835 0.15791 0.46583 0.0
H1593 H 0.89013 0.227 0.47905 0.0
H1594 H 0.84029 0.15359 0.41284 0.0
H1595 H 0.86797 0.15867 0.40803 0.0
H1596 H 0.85141 0.14028 0.43102 0.0
H1597 H 0.88692 0.25009 0.45165 0.0
H1598 H 0.89492 0.24472 0.42383 0.0
H1599 H 0.86638 0.2365 0.42923 0.0
H1600 H 0.89509 0.21831 0.35478 0.0
H1601 H 0.82736 0.20165 0.36851 0.0
H1602 H 0.90312 0.19437 0.40501 0.0
H1603 H 0.91328 0.22339 0.41002 0.0
H1604 H 0.9175 0.21429 0.38228 0.0
H1605 H 0.82184 0.17459 0.4224 0.0
H1606 H 0.80987 0.18701 0.4041 0.0
H1607 H 0.82927 0.20308 0.42663 0.0
C1608 C 0.96721 0.51048 0.28878 0.0
C1609 C 0.97655 0.52811 0.30475 0.0
C1610 C 0.97551 0.51328 0.26619 0.0
C1611 C 0.99363 0.53417 0.25942 0.0
C1612 C 0.00356 0.55183 0.27562 0.0
C1613 C 0.99487 0.54861 0.29806 0.0
C1614 C 0.96446 0.49408 0.24938 0.0
C1615 C 0.02305 0.57431 0.26908 0.0
C1616 C 0.0276 0.53925 0.20593 0.0
C1617 C 0.01924 0.54853 0.18997 0.0
C1618 C 0.01906 0.53397 0.22846 0.0
C1619 C 0.00168 0.53796 0.23515 0.0
C1620 C 0.99261 0.54653 0.2189 0.0
C1621 C 0.00152 0.55175 0.19652 0.0
C1622 C 0.02915 0.52484 0.24532 0.0
C1623 C 0.97391 0.55081 0.22533 0.0
H1624 H 0.95301 0.4946 0.29373 0.0
H1625 H 0.00228 0.56229 0.31029 0.0
H1626 H 0.95666 0.49855 0.23517 0.0
H1627 H 0.97707 0.49068 0.24148 0.0
H1628 H 0.95138 0.47853 0.25772 0.0
H1629 H 0.02955 0.58595 0.28399 0.0
H1630 H 0.03682 0.57229 0.26192 0.0
H1631 H 0.01788 0.58203 0.25541 0.0
H1632 H 0.04127 0.53666 0.20105 0.0
H1633 H 0.99485 0.55878 0.1843 0.0
H1634 H 0.01589 0.50918 0.25324 0.0
H1635 H 0.03749 0.53701 0.2595 0.0
H1636 H 0.0416 0.5214 0.23702 0.0
H1637 H 0.95965 0.53546 0.23263 0.0
H1638 H 0.96788 0.55633 0.21034 0.0
H1639 H 0.97974 0.56389 0.23886 0.0
C1640 C 0.45778 0.49182 0.20428 0.0
C1641 C 0.44977 0.47355 0.18915 0.0
C1642 C 0.46341 0.49012 0.22718 0.0
C1643 C 0.46081 0.46962 0.23516 0.0
C1644 C 0.4537 0.45145 0.21972 0.0
C1645 C 0.44833 0.45364 0.1969 0.0
C1646 C 0.47116 0.50995 0.24307 0.0
C1647 C 0.45076 0.42931 0.22758 0.0
C1648 C 0.48625 0.46456 0.29131 0.0
C1649 C 0.46763 0.45545 0.30606 0.0
C1650 C 0.48455 0.47013 0.26838 0.0
C1651 C 0.46376 0.46646 0.26003 0.0
C1652 C 0.4452 0.45826 0.27511 0.0
C1653 C 0.44737 0.4529 0.29794 0.0
C1654 C 0.50476 0.47907 0.25287 0.0
C1655 C 0.42275 0.4542 0.26687 0.0
H1656 H 0.45899 0.50728 0.1985 0.0
H1657 H 0.44227 0.43945 0.18536 0.0
H1658 H 0.45806 0.50637 0.25614 0.0
H1659 H 0.48642 0.51309 0.25251 0.0
H1660 H 0.47475 0.52536 0.23359 0.0
H1661 H 0.44654 0.41733 0.21309 0.0
H1662 H 0.46625 0.43177 0.23598 0.0
H1663 H 0.43719 0.42175 0.2406 0.0
H1664 H 0.50203 0.46674 0.29744 0.0
H1665 H 0.43292 0.446 0.3092 0.0
H1666 H 0.50735 0.49429 0.24375 0.0
H1667 H 0.50203 0.46645 0.23951 0.0
H1668 H 0.5202 0.48315 0.26258 0.0
H1669 H 0.42449 0.46951 0.25871 0.0
H1670 H 0.41039 0.44908 0.28111 0.0
H1671 H 0.41608 0.44088 0.25356 0.0
C1672 C 0.54503 0.00055 0.20425 0.0
C1673 C 0.52541 0.98164 0.1967 0.0
C1674 C 0.54706 0.00837 0.22693 0.0
C1675 C 0.529 0.99706 0.24247 0.0
C1676 C 0.5088 0.97857 0.23473 0.0
C1677 C 0.50725 0.97104 0.21192 0.0
C1678 C 0.56887 0.02824 0.23451 0.0
C1679 C 0.48914 0.96619 0.25077 0.0
C1680 C 0.5471 0.00347 0.30499 0.0
C1681 C 0.54417 0.0212 0.31222 0.0
C1682 C 0.54118 0.9947 0.28263 0.0
C1683 C 0.53203 0.00383 0.26714 0.0
C1684 C 0.52778 0.0208 0.27473 0.0
C1685 C 0.53392 0.02931 0.29719 0.0
C1686 C 0.54585 0.97649 0.27521 0.0
C1687 C 0.51784 0.03078 0.25877 0.0
H1688 H 0.55912 0.00897 0.19262 0.0
H1689 H 0.492 0.95643 0.20628 0.0
H1690 H 0.56585 0.04114 0.24231 0.0
H1691 H 0.57675 0.02299 0.24793 0.0
H1692 H 0.58082 0.03591 0.21998 0.0
H1693 H 0.47391 0.95372 0.24148 0.0
H1694 H 0.49329 0.95736 0.26414 0.0
H1695 H 0.48539 0.97806 0.25983 0.0
H1696 H 0.55483 0.99695 0.3165 0.0
H1697 H 0.5314 0.04288 0.30266 0.0
H1698 H 0.55924 0.98313 0.26197 0.0
H1699 H 0.53077 0.96246 0.26724 0.0
H1700 H 0.55121 0.9699 0.28986 0.0
H1701 H 0.53017 0.04076 0.24522 0.0
H1702 H 0.51306 0.04181 0.26808 0.0
H1703 H 0.50287 0.01742 0.24993 0.0
C1704 C 0.45761 0.97007 0.70837 0.0
C1705 C 0.44916 0.98001 0.69337 0.0
C1706 C 0.46312 0.97735 0.73127 0.0
C1707 C 0.46013 0.99498 0.73934 0.0
C1708 C 0.45243 0.00565 0.72407 0.0
C1709 C 0.44702 0.99802 0.70128 0.0
C1710 C 0.47134 0.96561 0.74706 0.0
C1711 C 0.4492 0.02465 0.732 0.0
C1712 C 0.44871 -0.00049 0.80246 0.0
C1713 C 0.46924 0.01735 0.8098 0.0
C1714 C 0.4458 0.99148 0.77978 0.0
C1715 C 0.46383 0.00157 0.76403 0.0
C1716 C 0.48487 0.0189 0.77157 0.0
C1717 C 0.48735 0.02656 0.79439 0.0
C1718 C 0.42314 0.9728 0.7724 0.0
C1719 C 0.5045 0.03002 0.75527 0.0
H1720 H 0.45927 0.95612 0.70246 0.0
H1721 H 0.44065 0.00591 0.68979 0.0
H1722 H 0.48697 0.97794 0.75582 0.0
H1723 H 0.45874 0.95653 0.7607 0.0
H1724 H 0.47451 0.95347 0.73765 0.0
H1725 H 0.4443 0.03197 0.71765 0.0
H1726 H 0.43603 0.0186 0.74546 0.0
H1727 H 0.46481 0.03803 0.73988 0.0
H1728 H 0.43467 0.99216 0.81427 0.0
H1729 H 0.50332 0.04031 0.79989 0.0
H1730 H 0.42474 0.95921 0.76411 0.0
H1731 H 0.41586 0.97912 0.75942 0.0
H1732 H 0.41134 0.96569 0.78713 0.0
H1733 H 0.50702 0.01731 0.74623 0.0
H1734 H 0.52021 0.04181 0.76433 0.0
H1735 H 0.50107 0.03939 0.74189 0.0
C1736 C -0.00259 0.45257 0.69888 0.0
C1737 C 0.01635 0.47219 0.69135 0.0
C1738 C 0.98971 0.45042 0.72162 0.0
C1739 C 0.00112 0.46837 0.73724 0.0
C1740 C 0.01956 0.48863 0.7295 0.0
C1741 C 0.02701 0.49028 0.70664 0.0
C1742 C 0.96993 0.42854 0.7292 0.0
C1743 C 0.032 0.50821 0.7456 0.0
C1744 C 0.96968 0.4629 0.79277 0.0
C1745 C 0.97826 0.45284 0.80743 0.0
C1746 C 0.97774 0.46914 0.77016 0.0
C1747 C 0.99469 0.46511 0.76202 0.0
C1748 C 0.00418 0.45599 0.77707 0.0
C1749 C 0.9959 0.45002 0.7996 0.0
C1750 C 0.96738 0.47905 0.75468 0.0
C1751 C 0.02234 0.45147 0.76905 0.0
H1752 H 0.98894 0.43853 0.68721 0.0
H1753 H 0.04163 0.50553 0.70101 0.0
H1754 H 0.97536 0.42053 0.74231 0.0
H1755 H 0.95713 0.43147 0.73739 0.0
H1756 H 0.96208 0.41672 0.7146 0.0
H1757 H 0.04423 0.52356 0.73628 0.0
H1758 H 0.02015 0.51175 0.75503 0.0
H1759 H 0.04112 0.50411 0.75866 0.0
H1760 H 0.95612 0.46524 0.79864 0.0
H1761 H 0.00279 0.44243 0.8108 0.0
H1762 H 0.95723 0.46677 0.74117 0.0
H1763 H 0.98052 0.49411 0.74577 0.0
H1764 H 0.95643 0.48368 0.7644 0.0
H1765 H 0.01559 0.4383 0.75558 0.0
H1766 H 0.0291 0.4459 0.78335 0.0
H1767 H 0.03627 0.4667 0.76116 0.0
C1768 C 0.54331 0.54996 0.79742 0.0
C1769 C 0.54076 0.52948 0.80477 0.0
C1770 C 0.53743 0.55261 0.77497 0.0
C1771 C 0.52878 0.53435 0.75948 0.0
C1772 C 0.52513 0.51335 0.76709 0.0
C1773 C 0.53116 0.51116 0.78966 0.0
C1774 C 0.54143 0.57526 0.76753 0.0
C1775 C 0.51584 0.49346 0.7511 0.0
C1776 C 0.50279 0.54125 0.70466 0.0
C1777 C 0.5209 0.54951 0.68929 0.0
C1778 C 0.50478 0.53538 0.72737 0.0
C1779 C 0.52537 0.53786 0.73486 0.0
C1780 C 0.54338 0.54522 0.71916 0.0
C1781 C 0.54092 0.55094 0.69658 0.0
C1782 C 0.48517 0.52744 0.74359 0.0
C1783 C 0.56558 0.54796 0.72647 0.0
H1784 H 0.55053 0.56418 0.80899 0.0
H1785 H 0.52907 0.49527 0.79514 0.0
H1786 H 0.55467 0.58226 0.75413 0.0
H1787 H 0.52608 0.57373 0.75974 0.0
H1788 H 0.54666 0.58726 0.78213 0.0
H1789 H 0.51177 0.47779 0.76034 0.0
H1790 H 0.50055 0.49117 0.7424 0.0
H1791 H 0.52826 0.49638 0.73744 0.0
H1792 H 0.48726 0.54009 0.69924 0.0
H1793 H 0.55497 0.55714 0.68482 0.0
H1794 H 0.48902 0.54028 0.75705 0.0
H1795 H 0.482 0.51194 0.75254 0.0
H1796 H 0.46969 0.52419 0.73449 0.0
H1797 H 0.57329 0.56125 0.73976 0.0
H1798 H 0.57741 0.55248 0.71179 0.0
H1799 H 0.56317 0.53229 0.73436 0.0
C1800 C 0.39064 0.38105 0.08794 0.0
C1801 C 0.40579 0.38677 0.10628 0.0
C1802 C 0.38168 0.36027 0.07701 0.0
C1803 C 0.38797 0.34476 0.08459 0.0
C1804 C 0.40373 0.35061 0.10266 0.0
C1805 C 0.41249 0.3716 0.11331 0.0
C1806 C 0.36494 0.35468 0.05778 0.0
C1807 C 0.41082 0.33446 0.11116 0.0
C1808 C 0.34434 0.28452 0.07347 0.0
C1809 C 0.35229 0.27981 0.05318 0.0
C1810 C 0.35629 0.30531 0.08435 0.0
C1811 C 0.37668 0.3219 0.07467 0.0
C1812 C 0.38519 0.31708 0.0546 0.0
C1813 C 0.37289 0.29603 0.04408 0.0
C1814 C 0.34667 0.30976 0.10578 0.0
C1815 C 0.40689 0.33439 0.04382 0.0
H1816 H 0.38552 0.39274 0.08222 0.0
H1817 H 0.42427 0.37595 0.12738 0.0
H1818 H 0.37021 0.34916 0.04221 0.0
H1819 H 0.34846 0.34066 0.06316 0.0
H1820 H 0.36286 0.3691 0.053 0.0
H1821 H 0.42449 0.34216 0.12407 0.0
H1822 H 0.39636 0.31978 0.11919 0.0
H1823 H 0.41646 0.3282 0.09649 0.0
H1824 H 0.32855 0.27201 0.08078 0.0
H1825 H 0.37918 0.29248 0.02848 0.0
H1826 H 0.34233 0.32288 0.10212 0.0
H1827 H 0.35923 0.31606 0.11986 0.0
H1828 H 0.33144 0.2946 0.112 0.0
H1829 H 0.40504 0.34839 0.03705 0.0
H1830 H 0.41215 0.32744 0.02943 0.0
H1831 H 0.42035 0.34145 0.05698 0.0
C1832 C 0.70591 0.08072 0.05421 0.0
C1833 C 0.71907 0.07085 0.05813 0.0
C1834 C 0.68554 0.07309 0.06585 0.0
C1835 C 0.67823 0.05518 0.08168 0.0
C1836 C 0.69161 0.0454 0.08593 0.0
C1837 C 0.71184 0.05335 0.07412 0.0
C1838 C 0.67166 0.08389 0.06093 0.0
C1839 C 0.68435 0.02619 0.10263 0.0
C1840 C 0.63287 0.04154 0.1262 0.0
C1841 C 0.61464 0.02302 0.11598 0.0
C1842 C 0.65357 0.05285 0.11482 0.0
C1843 C 0.65594 0.04549 0.09274 0.0
C1844 C 0.63734 0.02741 0.08199 0.0
C1845 C 0.61696 0.01637 0.09375 0.0
C1846 C 0.6731 0.0721 0.12679 0.0
C1847 C 0.63916 0.01909 0.05841 0.0
H1848 H 0.71146 0.09435 0.04199 0.0
H1849 H 0.72194 0.04568 0.07738 0.0
H1850 H 0.65562 0.07154 0.05285 0.0
H1851 H 0.66756 0.08942 0.07726 0.0
H1852 H 0.68031 0.0985 0.04922 0.0
H1853 H 0.69718 0.02115 0.10477 0.0
H1854 H 0.68076 0.0308 0.11979 0.0
H1855 H 0.66871 0.01154 0.09639 0.0
H1856 H 0.63116 0.04682 0.14332 0.0
H1857 H 0.60292 0.00221 0.0856 0.0
H1858 H 0.68127 0.08676 0.11511 0.0
H1859 H 0.68574 0.06731 0.13124 0.0
H1860 H 0.66802 0.07712 0.14288 0.0
H1861 H 0.64659 0.03311 0.04591 0.0
H1862 H 0.6227 0.00605 0.05168 0.0
H1863 H 0.65038 0.01196 0.05933 0.0
C1864 C 0.9238 0.62362 0.0398 0.0
C1865 C 0.92453 0.64194 0.051 0.0
C1866 C 0.93305 0.61171 0.05014 0.0
C1867 C 0.94309 0.61826 0.0722 0.0
C1868 C 0.94304 0.63616 0.08394 0.0
C1869 C 0.93385 0.64782 0.07317 0.0
C1870 C 0.93286 0.59272 0.03711 0.0
C1871 C 0.95347 0.64357 0.10754 0.0
C1872 C 0.95735 0.58114 0.10816 0.0
C1873 C 0.98036 0.59101 0.10415 0.0
C1874 C 0.94476 0.58942 0.09738 0.0
C1875 C 0.95548 0.60788 0.08222 0.0
C1876 C 0.97859 0.61755 0.07772 0.0
C1877 C 0.99074 0.60904 0.08877 0.0
C1878 C 0.92014 0.57878 0.10262 0.0
C1879 C 0.99062 0.63723 0.0616 0.0
H1880 H 0.91653 0.61894 0.02271 0.0
H1881 H 0.93429 0.66181 0.08208 0.0
H1882 H 0.95019 0.59739 0.03228 0.0
H1883 H 0.92626 0.57765 0.0482 0.0
H1884 H 0.92263 0.58839 0.02114 0.0
H1885 H 0.95041 0.65655 0.11511 0.0
H1886 H 0.9468 0.62913 0.11952 0.0
H1887 H 0.97178 0.65046 0.1063 0.0
H1888 H 0.94921 0.56715 0.11995 0.0
H1889 H 0.00847 0.61663 0.08536 0.0
H1890 H 0.91037 0.57407 0.08635 0.0
H1891 H 0.91681 0.59095 0.11165 0.0
H1892 H 0.91404 0.56366 0.1136 0.0
H1893 H 0.9822 0.63333 0.04456 0.0
H1894 H 0.00838 0.64201 0.05898 0.0
H1895 H 0.99006 0.65185 0.06869 0.0
C1896 C 0.28181 0.33926 0.42462 0.0
C1897 C 0.27325 0.34859 0.44025 0.0
C1898 C 0.30247 0.35243 0.41386 0.0
C1899 C 0.31494 0.37554 0.4188 0.0
C1900 C 0.30628 0.3852 0.43422 0.0
C1901 C 0.28549 0.37159 0.44481 0.0
C1902 C 0.31116 0.34147 0.39755 0.0
C1903 C 0.31915 0.40981 0.43984 0.0
C1904 C 0.3769 0.39998 0.40936 0.0
C1905 C 0.37972 0.40898 0.38708 0.0
C1906 C 0.35611 0.39008 0.42036 0.0
C1907 C 0.33762 0.38908 0.4088 0.0
C1908 C 0.34054 0.39907 0.38678 0.0
C1909 C 0.36162 0.40896 0.37616 0.0
C1910 C 0.35371 0.37971 0.4439 0.0
C1911 C 0.32119 0.39837 0.37399 0.0
H1912 H 0.27242 0.32154 0.42087 0.0
H1913 H 0.27894 0.37894 0.45677 0.0
H1914 H 0.3152 0.35003 0.38057 0.0
H1915 H 0.32682 0.34301 0.40452 0.0
H1916 H 0.29897 0.32348 0.39482 0.0
H1917 H 0.30949 0.41498 0.45104 0.0
H1918 H 0.33492 0.41387 0.44879 0.0
H1919 H 0.32376 0.41981 0.42373 0.0
H1920 H 0.39086 0.40017 0.41806 0.0
H1921 H 0.36371 0.416 0.35901 0.0
H1922 H 0.34319 0.36129 0.44255 0.0
H1923 H 0.34524 0.38553 0.45597 0.0
H1924 H 0.37009 0.38373 0.45142 0.0
H1925 H 0.30929 0.38094 0.36873 0.0
H1926 H 0.32669 0.40902 0.35829 0.0
H1927 H 0.31201 0.40394 0.38538 0.0
C1928 C 0.64705 0.93596 0.42323 0.0
C1929 C 0.64028 0.9246 0.44437 0.0
C1930 C 0.63525 0.94533 0.41311 0.0
C1931 C 0.61628 0.94345 0.42447 0.0
C1932 C 0.60886 0.93135 0.44541 0.0
C1933 C 0.62094 0.92197 0.4551 0.0
C1934 C 0.64361 0.95798 0.39067 0.0
C1935 C 0.58871 0.92905 0.45801 0.0
C1936 C 0.6054 0.99078 0.41157 0.0
C1937 C 0.58867 0.98132 0.39467 0.0
C1938 C 0.61394 0.97834 0.42196 0.0
C1939 C 0.60555 0.95585 0.41533 0.0
C1940 C 0.58819 0.94595 0.3988 0.0
C1941 C 0.57994 0.95882 0.38864 0.0
C1942 C 0.63245 0.98952 0.43954 0.0
C1943 C 0.57883 0.92198 0.39138 0.0
H1944 H 0.66184 0.93786 0.41467 0.0
H1945 H 0.61558 0.91315 0.4714 0.0
H1946 H 0.62988 0.95181 0.37785 0.0
H1947 H 0.64952 0.97594 0.39361 0.0
H1948 H 0.65756 0.95643 0.38318 0.0
H1949 H 0.58391 0.91742 0.47291 0.0
H1950 H 0.59235 0.94565 0.46447 0.0
H1951 H 0.57427 0.92299 0.4461 0.0
H1952 H 0.61213 0.0081 0.41651 0.0
H1953 H 0.56691 0.95136 0.3757 0.0
H1954 H 0.64791 0.99046 0.43276 0.0
H1955 H 0.62792 0.97954 0.45566 0.0
H1956 H 0.63614 0.00669 0.44382 0.0
H1957 H 0.59188 0.92015 0.38215 0.0
H1958 H 0.56415 0.91623 0.3798 0.0
H1959 H 0.57381 0.91086 0.40668 0.0
C1960 C 0.04005 0.62434 0.3857 0.0
C1961 C 0.01733 0.61045 0.39074 0.0
C1962 C 0.05261 0.64501 0.39688 0.0
C1963 C 0.04217 0.65176 0.41352 0.0
C1964 C 0.01941 0.63754 0.41905 0.0
C1965 C 0.00726 0.61713 0.40755 0.0
C1966 C 0.07684 0.65984 0.39049 0.0
C1967 C 0.00769 0.6441 0.43678 0.0
C1968 C 0.07454 0.69848 0.45651 0.0
C1969 C 0.07243 0.71587 0.44669 0.0
C1970 C 0.06556 0.67766 0.44544 0.0
C1971 C 0.05438 0.67432 0.42406 0.0
C1972 C 0.05305 0.69211 0.41366 0.0
C1973 C 0.062 0.71261 0.42513 0.0
C1974 C 0.06725 0.65902 0.45703 0.0
C1975 C 0.04136 0.68925 0.39082 0.0
H1976 H 0.04794 0.61923 0.3728 0.0
H1977 H 0.98977 0.60639 0.41175 0.0
H1978 H 0.07915 0.67535 0.38227 0.0
H1979 H 0.08742 0.66486 0.40621 0.0
H1980 H 0.08285 0.65154 0.37837 0.0
H1981 H 0.99028 0.63057 0.44005 0.0
H1982 H 0.01699 0.64849 0.45334 0.0
H1983 H 0.00726 0.65912 0.43078 0.0
H1984 H 0.08267 0.70093 0.47311 0.0
H1985 H 0.0605 0.72602 0.41727 0.0
H1986 H 0.07373 0.6513 0.44475 0.0
H1987 H 0.05039 0.64577 0.46252 0.0
H1988 H 0.07829 0.66489 0.47244 0.0
H1989 H 0.04786 0.68222 0.37775 0.0
H1990 H 0.04346 0.70525 0.38414 0.0
H1991 H 0.02325 0.67727 0.39284 0.0
C1992 C 0.56936 0.61682 0.90286 0.0
C1993 C 0.58202 0.61312 0.88643 0.0
C1994 C 0.57779 0.63778 0.91343 0.0
C1995 C 0.599 0.65552 0.90679 0.0
C1996 C 0.6112 0.65213 0.88917 0.0
C1997 C 0.60273 0.63083 0.8795 0.0
C1998 C 0.56459 0.64057 0.93261 0.0
C1999 C 0.63359 0.67078 0.88111 0.0
C2000 C 0.61798 0.71561 0.92312 0.0
C2001 C 0.63367 0.71933 0.94033 0.0
C2002 C 0.60604 0.69467 0.91232 0.0
C2003 C 0.60947 0.67704 0.91951 0.0
C2004 C 0.62437 0.68048 0.93788 0.0
C2005 C 0.63663 0.70174 0.94776 0.0
C2006 C 0.59079 0.69182 0.89238 0.0
C2007 C 0.628 0.66193 0.94654 0.0
H2008 H 0.5534 0.60303 0.90834 0.0
H2009 H 0.61242 0.62794 0.86666 0.0
H2010 H 0.5736 0.64316 0.94919 0.0
H2011 H 0.56298 0.65553 0.92957 0.0
H2012 H 0.54762 0.62576 0.93438 0.0
H2013 H 0.63962 0.66611 0.86547 0.0
H2014 H 0.63257 0.68596 0.87723 0.0
H2015 H 0.64613 0.67516 0.89501 0.0
H2016 H 0.61596 0.72938 0.91724 0.0
H2017 H 0.64876 0.70471 0.96117 0.0
H2018 H 0.57418 0.67673 0.89484 0.0
H2019 H 0.59793 0.68942 0.87621 0.0
H2020 H 0.5885 0.70652 0.89019 0.0
H2021 H 0.61173 0.64666 0.94995 0.0
H2022 H 0.63812 0.66664 0.9626 0.0
H2023 H 0.63674 0.65768 0.93316 0.0
C2024 C 0.28537 0.94647 0.93155 0.0
C2025 C 0.27575 0.92538 0.94205 0.0
C2026 C 0.30605 0.95564 0.92043 0.0
C2027 C 0.31748 0.94347 0.91981 0.0
C2028 C 0.30793 0.92217 0.93032 0.0
C2029 C 0.28712 0.91334 0.94136 0.0
C2030 C 0.31573 0.97845 0.90946 0.0
C2031 C 0.31975 0.9088 0.93 0.0
C2032 C 0.36288 0.96363 0.87429 0.0
C2033 C 0.38165 0.97865 0.88709 0.0
C2034 C 0.34194 0.95115 0.88493 0.0
C2035 C 0.33986 0.9537 0.9089 0.0
C2036 C 0.35897 0.96798 0.92207 0.0
C2037 C 0.37959 0.98035 0.91099 0.0
C2038 C 0.32187 0.93611 0.87034 0.0
C2039 C 0.35746 0.97103 0.94771 0.0
H2040 H 0.27671 0.95589 0.93193 0.0
H2041 H 0.27973 0.897 0.94933 0.0
H2042 H 0.33186 0.99021 0.9178 0.0
H2043 H 0.31918 0.97754 0.89091 0.0
H2044 H 0.3044 0.98545 0.91094 0.0
H2045 H 0.30982 0.89227 0.93848 0.0
H2046 H 0.32325 0.90616 0.91194 0.0
H2047 H 0.33606 0.91819 0.93895 0.0
H2048 H 0.36438 0.96217 0.85583 0.0
H2049 H 0.39403 0.99172 0.92107 0.0
H2050 H 0.31061 0.94319 0.86926 0.0
H2051 H 0.31225 0.91936 0.87838 0.0
H2052 H 0.32663 0.93416 0.85254 0.0
H2053 H 0.34794 0.97979 0.95077 0.0
H2054 H 0.37419 0.98091 0.95581 0.0
H2055 H 0.34835 0.95459 0.95646 0.0
C2056 C 0.07747 0.3758 0.95134 0.0
C2057 C 0.0752 0.35639 0.94113 0.0
C2058 C 0.06862 0.38791 0.94065 0.0
C2059 C 0.05737 0.38042 0.91926 0.0
C2060 C 0.05602 0.36149 0.90837 0.0
C2061 C 0.0649 0.34969 0.91946 0.0
C2062 C 0.07038 0.40807 0.95272 0.0
C2063 C 0.04424 0.35303 0.88552 0.0
C2064 C 0.00976 0.3903 0.90461 0.0
C2065 C 0.01942 0.40718 0.88787 0.0
C2066 C 0.02218 0.38199 0.91542 0.0
C2067 C 0.04487 0.39074 0.90938 0.0
C2068 C 0.05492 0.40811 0.89288 0.0
C2069 C 0.04205 0.41615 0.88228 0.0
C2070 C 0.01084 0.36343 0.93293 0.0
C2071 C 0.0791 0.41783 0.88609 0.0
H2072 H 0.08552 0.38113 0.96803 0.0
H2073 H 0.06332 0.33487 0.91128 0.0
H2074 H 0.07642 0.42236 0.94061 0.0
H2075 H 0.05361 0.40422 0.95881 0.0
H2076 H 0.08179 0.41321 0.96783 0.0
H2077 H 0.04647 0.33936 0.87837 0.0
H2078 H 0.02611 0.34666 0.88776 0.0
H2079 H 0.05053 0.36679 0.87273 0.0
H2080 H 0.99233 0.38338 0.9092 0.0
H2081 H 0.04965 0.42929 0.86947 0.0
H2082 H 0.0203 0.36821 0.94939 0.0
H2083 H 0.01056 0.34817 0.92652 0.0
H2084 H 0.99339 0.35927 0.93653 0.0
H2085 H 0.08987 0.42322 0.90166 0.0
H2086 H 0.08483 0.43232 0.87425 0.0
H2087 H 0.08146 0.40486 0.87739 0.0
C2088 C 0.61611 0.6157 0.5936 0.0
C2089 C 0.60862 0.59761 0.60888 0.0
C2090 C 0.63694 0.62466 0.58277 0.0
C2091 C 0.65074 0.61543 0.58743 0.0
C2092 C 0.64329 0.59709 0.60273 0.0
C2093 C 0.62224 0.58834 0.61325 0.0
C2094 C 0.64427 0.64419 0.56651 0.0
C2095 C 0.65765 0.58693 0.60817 0.0
C2096 C 0.6974 0.63035 0.5442 0.0
C2097 C 0.71522 0.64892 0.55484 0.0
C2098 C 0.67643 0.6187 0.55498 0.0
C2099 C 0.67333 0.62575 0.57693 0.0
C2100 C 0.69149 0.64395 0.58811 0.0
C2101 C 0.71217 0.65535 0.5769 0.0
C2102 C 0.65739 0.59938 0.54253 0.0
C2103 C 0.68889 0.65189 0.61159 0.0
H2104 H 0.60565 0.62288 0.58996 0.0
H2105 H 0.61653 0.57433 0.62499 0.0
H2106 H 0.65957 0.6589 0.57327 0.0
H2107 H 0.64848 0.64011 0.54939 0.0
H2108 H 0.63122 0.6489 0.56413 0.0
H2109 H 0.64914 0.57229 0.61986 0.0
H2110 H 0.66225 0.5816 0.59201 0.0
H2111 H 0.67342 0.5996 0.61645 0.0
H2112 H 0.69966 0.62524 0.52719 0.0
H2113 H 0.7259 0.66955 0.58538 0.0
H2114 H 0.64448 0.6038 0.53801 0.0
H2115 H 0.64936 0.58451 0.55391 0.0
H2116 H 0.66295 0.59488 0.52643 0.0
H2117 H 0.67739 0.65867 0.61035 0.0
H2118 H 0.70507 0.6651 0.61871 0.0
H2119 H 0.68141 0.63774 0.62393 0.0
C2120 C 0.3931 0.02557 0.61795 0.0
C2121 C 0.41385 0.02812 0.612 0.0
C2122 C 0.38534 0.03863 0.60743 0.0
C2123 C 0.39831 0.05394 0.5899 0.0
C2124 C 0.41968 0.05717 0.58444 0.0
C2125 C 0.42739 0.04445 0.59591 0.0
C2126 C 0.36278 0.03524 0.6143 0.0
C2127 C 0.4337 0.07287 0.56543 0.0
C2128 C 0.36131 0.06095 0.54683 0.0
C2129 C 0.36355 0.08136 0.55369 0.0
C2130 C 0.37388 0.05265 0.5574 0.0
C2131 C 0.38834 0.06469 0.57588 0.0
C2132 C 0.39133 0.08578 0.58224 0.0
C2133 C 0.37913 0.09407 0.57073 0.0
C2134 C 0.37082 0.03045 0.54957 0.0
C2135 C 0.40611 0.0988 0.60224 0.0
H2136 H 0.38275 0.01303 0.63056 0.0
H2137 H 0.44341 0.04631 0.59123 0.0
H2138 H 0.36379 0.05158 0.61725 0.0
H2139 H 0.35065 0.02672 0.60013 0.0
H2140 H 0.35624 0.02498 0.63018 0.0
H2141 H 0.45088 0.0754 0.56513 0.0
H2142 H 0.42569 0.06588 0.54852 0.0
H2143 H 0.43477 0.08933 0.56733 0.0
H2144 H 0.34933 0.05124 0.53351 0.0
H2145 H 0.38073 0.10983 0.57609 0.0
H2146 H 0.36153 0.0176 0.56293 0.0
H2147 H 0.38726 0.03154 0.54727 0.0
H2148 H 0.3614 0.02479 0.53309 0.0
H2149 H 0.39827 0.09002 0.6186 0.0
H2150 H 0.40873 0.116 0.60319 0.0
H2151 H 0.4226 0.09984 0.60096 0.0
C2152 C 0.97868 0.37987 0.59039 0.0
C2153 C 0.97395 0.38269 0.61328 0.0
C2154 C 0.9669 0.35914 0.57938 0.0
C2155 C 0.95008 0.3407 0.59163 0.0
C2156 C 0.94456 0.34359 0.61442 0.0
C2157 C 0.95654 0.36463 0.62499 0.0
C2158 C 0.97318 0.35678 0.55499 0.0
C2159 C 0.92674 0.32423 0.628 0.0
C2160 C 0.91253 0.2887 0.55667 0.0
C2161 C 0.92345 0.27636 0.55937 0.0
C2162 C 0.92068 0.30953 0.56749 0.0
C2163 C 0.9401 0.31807 0.58135 0.0
C2164 C 0.95094 0.3055 0.58442 0.0
C2165 C 0.94253 0.28486 0.57336 0.0
C2166 C 0.90879 0.32257 0.56379 0.0
C2167 C 0.97169 0.31403 0.59911 0.0
H2168 H 0.99196 0.39378 0.58111 0.0
H2169 H 0.95274 0.36674 0.64265 0.0
H2170 H 0.98107 0.34621 0.55497 0.0
H2171 H 0.95807 0.34838 0.54396 0.0
H2172 H 0.98504 0.37317 0.54712 0.0
H2173 H 0.92284 0.32969 0.64453 0.0
H2174 H 0.9112 0.31523 0.6177 0.0
H2175 H 0.93245 0.31218 0.63192 0.0
H2176 H 0.89772 0.28218 0.54596 0.0
H2177 H 0.95098 0.27537 0.57573 0.0
H2178 H 0.92 0.33842 0.55467 0.0
H2179 H 0.90448 0.32705 0.58064 0.0
H2180 H 0.89326 0.3131 0.5535 0.0
H2181 H 0.98537 0.32964 0.59155 0.0
H2182 H 0.9775 0.30173 0.60059 0.0
H2183 H 0.96846 0.31808 0.61671 0.0
C2184 C 0.96204 0.70438 0.79109 0.0
C2185 C 0.94489 0.68562 0.77997 0.0
C2186 C 0.98323 0.71678 0.78088 0.0
C2187 C 0.9872 0.71033 0.75899 0.0
C2188 C 0.96971 0.69189 0.74736 0.0
C2189 C 0.94884 0.6797 0.75804 0.0
C2190 C 0.00155 0.73629 0.79382 0.0
C2191 C 0.97323 0.68455 0.72392 0.0
C2192 C 0.03778 0.74879 0.72258 0.0
C2193 C 0.0519 0.74007 0.72682 0.0
C2194 C 0.01688 0.73975 0.73349 0.0
C2195 C 0.01001 0.72158 0.74891 0.0
C2196 C 0.02441 0.71307 0.75363 0.0
C2197 C 0.04515 0.72241 0.74255 0.0
C2198 C 0.00194 0.74927 0.72812 0.0
C2199 C 0.01769 0.69368 0.76994 0.0
H2200 H 0.95909 0.70907 0.80803 0.0
H2201 H 0.93566 0.66534 0.74921 0.0
H2202 H 0.0148 0.73246 0.79862 0.0
H2203 H 0.00937 0.75135 0.78267 0.0
H2204 H 0.99532 0.74023 0.8098 0.0
H2205 H 0.95749 0.6709 0.71649 0.0
H2206 H 0.98032 0.69884 0.71174 0.0
H2207 H 0.98541 0.67861 0.72535 0.0
H2208 H 0.04293 0.76252 0.71057 0.0
H2209 H 0.05599 0.71563 0.74608 0.0
H2210 H 0.99653 0.75371 0.74432 0.0
H2211 H 0.98666 0.7365 0.71919 0.0
H2212 H 0.01033 0.76434 0.71699 0.0
H2213 H 0.0128 0.69734 0.78691 0.0
H2214 H 0.03131 0.68983 0.77269 0.0
H2215 H 0.00294 0.67856 0.76294 0.0
C2216 C 0.31453 0.26292 0.75366 0.0
C2217 C 0.30977 0.25565 0.77665 0.0
C2218 C 0.30252 0.2714 0.74225 0.0
C2219 C 0.28543 0.27282 0.75416 0.0
C2220 C 0.27987 0.26465 0.77703 0.0
C2221 C 0.29209 0.25607 0.78801 0.0
C2222 C 0.30885 0.2798 0.71779 0.0
C2223 C 0.26174 0.26594 0.79026 0.0
C2224 C 0.27653 0.32014 0.73522 0.0
C2225 C 0.2574 0.30906 0.72136 0.0
C2226 C 0.28547 0.30841 0.74634 0.0
C2227 C 0.27512 0.285 0.74346 0.0
C2228 C 0.25572 0.27364 0.72964 0.0
C2229 C 0.24703 0.28582 0.71877 0.0
C2230 C 0.30617 0.32114 0.76099 0.0
C2231 C 0.24434 0.24869 0.72615 0.0
H2232 H 0.32801 0.26242 0.74465 0.0
H2233 H 0.28825 0.25038 0.80574 0.0
H2234 H 0.2938 0.27274 0.70665 0.0
H2235 H 0.31646 0.29823 0.71752 0.0
H2236 H 0.32096 0.27546 0.71023 0.0
H2237 H 0.25789 0.2568 0.80693 0.0
H2238 H 0.26709 0.28368 0.79388 0.0
H2239 H 0.24623 0.25899 0.77984 0.0
H2240 H 0.28457 0.33807 0.73749 0.0
H2241 H 0.2322 0.27715 0.70815 0.0
H2242 H 0.32002 0.31935 0.75365 0.0
H2243 H 0.30302 0.31414 0.77871 0.0
H2244 H 0.3117 0.33921 0.76211 0.0
H2245 H 0.25592 0.24431 0.71744 0.0
H2246 H 0.22893 0.24225 0.71559 0.0
H2247 H 0.23993 0.24003 0.74308 0.0
C2248 C 0.72522 0.0349 0.78371 0.0
C2249 C 0.74605 0.05227 0.77663 0.0
C2250 C 0.71611 0.01361 0.77388 0.0
C2251 C 0.72777 0.00993 0.7559 0.0
C2252 C 0.74911 0.02734 0.74905 0.0
C2253 C 0.75819 0.04829 0.75982 0.0
C2254 C 0.69363 0.9953 0.78217 0.0
C2255 C 0.76173 0.02424 0.72949 0.0
C2256 C 0.70688 0.94948 0.73964 0.0
C2257 C 0.69083 0.94604 0.72293 0.0
C2258 C 0.71962 0.97044 0.75016 0.0
C2259 C 0.71666 0.98842 0.74316 0.0
C2260 C 0.70146 0.98528 0.72521 0.0
C2261 C 0.6884 0.96399 0.71562 0.0
C2262 C 0.73518 0.97297 0.76967 0.0
C2263 C 0.69833 0.00419 0.71676 0.0
H2264 H 0.71594 0.03807 0.79682 0.0
H2265 H 0.77421 0.0619 0.7542 0.0
H2266 H 0.68095 0.99126 0.76849 0.0
H2267 H 0.69427 0.97987 0.78581 0.0
H2268 H 0.68804 0.00015 0.79801 0.0
H2269 H 0.77887 0.03874 0.72761 0.0
H2270 H 0.76285 0.00896 0.73216 0.0
H2271 H 0.75256 0.02204 0.71309 0.0
H2272 H 0.7086 0.9355 0.7454 0.0
H2273 H 0.67606 0.96128 0.70256 0.0
H2274 H 0.72855 0.97564 0.78608 0.0
H2275 H 0.75191 0.9878 0.7669 0.0
H2276 H 0.73706 0.95801 0.77164 0.0
H2277 H 0.69002 0.00877 0.73034 0.0
H2278 H 0.68798 -0.00032 0.70086 0.0
H2279 H 0.71475 0.0192 0.71316 0.0
C2280 C 0.29031 0.04285 0.27361 0.0
C2281 C 0.31364 0.0549 0.27151 0.0
C2282 C 0.27768 0.02191 0.26298 0.0
C2283 C 0.28868 0.01295 0.24997 0.0
C2284 C 0.31218 0.02518 0.24756 0.0
C2285 C 0.32436 0.04596 0.25839 0.0
C2286 C 0.25263 0.00925 0.26594 0.0
C2287 C 0.32453 0.01617 0.23381 0.0
C2288 C 0.26444 0.95087 0.2418 0.0
C2289 C 0.25761 0.94801 0.21865 0.0
C2290 C 0.27351 0.97173 0.25256 0.0
C2291 C 0.27598 0.99026 0.2398 0.0
C2292 C 0.26825 0.98735 0.21673 0.0
C2293 C 0.25907 0.96618 0.20641 0.0
C2294 C 0.28141 0.97412 0.27726 0.0
C2295 C 0.27065 0.00678 0.20262 0.0
H2296 H 0.28192 0.0497 0.28364 0.0
H2297 H 0.34237 0.05521 0.25652 0.0
H2298 H 0.24433 0.00484 0.24882 0.0
H2299 H 0.24746 0.99337 0.27524 0.0
H2300 H 0.24654 0.01897 0.27571 0.0
H2301 H 0.34275 0.02819 0.23287 0.0
H2302 H 0.32199 0.00048 0.24177 0.0
H2303 H 0.31781 0.01212 0.21598 0.0
H2304 H 0.26318 0.93688 0.25148 0.0
H2305 H 0.25374 0.96407 0.18855 0.0
H2306 H 0.27466 0.98284 0.28771 0.0
H2307 H 0.29989 0.98441 0.2778 0.0
H2308 H 0.27635 0.95772 0.28541 0.0
H2309 H 0.26408 0.01611 0.21231 0.0
H2310 H 0.26177 0.00135 0.18582 0.0
H2311 H 0.28859 0.01854 0.19919 0.0
C2312 C 0.03303 0.3052 0.21635 0.0
C2313 C 0.0509 0.30232 0.22286 0.0
C2314 C 0.01181 0.29199 0.22602 0.0
C2315 C 0.00868 0.27612 0.24322 0.0
C2316 C 0.02655 0.27267 0.24933 0.0
C2317 C 0.04744 0.28561 0.23875 0.0
C2318 C 0.993 0.29569 0.21852 0.0
C2319 C 0.02401 0.25635 0.26803 0.0
C2320 C 0.96279 0.26729 0.28464 0.0
C2321 C 0.945 0.24707 0.27676 0.0
C2322 C 0.98406 0.27613 0.27486 0.0
C2323 C 0.98733 0.26486 0.25618 0.0
C2324 C 0.96956 0.244 0.24871 0.0
C2325 C 0.9486 0.23515 0.25939 0.0
C2326 C 0.00277 0.29808 0.28381 0.0
C2327 C 0.97225 0.23179 0.22848 0.0
H2328 H 0.03575 0.31804 0.20391 0.0
H2329 H 0.06136 0.28352 0.24388 0.0
H2330 H 0.97783 0.27951 0.21458 0.0
H2331 H 0.98871 0.30362 0.23275 0.0
H2332 H -0.00254 0.30661 0.20306 0.0
H2333 H 0.03875 0.25401 0.2691 0.0
H2334 H 0.02188 0.2626 0.28493 0.0
H2335 H 0.00888 0.23989 0.26504 0.0
H2336 H 0.95994 0.27639 0.2982 0.0
H2337 H 0.93472 0.21958 0.25321 0.0
H2338 H 0.00694 0.31136 0.27079 0.0
H2339 H 0.01803 0.29695 0.28674 0.0
H2340 H -0.00176 0.30319 0.30019 0.0
H2341 H 0.97419 0.24134 0.21241 0.0
H2342 H 0.95765 0.21473 0.22642 0.0
H2343 H 0.98752 0.23051 0.23044 0.0
C2344 C 0.73172 0.68287 0.25515 0.0
C2345 C 0.73538 0.68517 0.27907 0.0
C2346 C 0.72375 0.69514 0.24335 0.0
C2347 C 0.71916 0.70998 0.25578 0.0
C2348 C 0.72369 0.71312 0.27975 0.0
C2349 C 0.73183 0.7007 0.29113 0.0
C2350 C 0.71924 0.69139 0.21775 0.0
C2351 C 0.71896 0.72881 0.29356 0.0
C2352 C 0.70794 0.75016 0.22134 0.0
C2353 C 0.68453 0.73865 0.22083 0.0
C2354 C 0.71956 0.74123 0.23295 0.0
C2355 C 0.70742 0.72028 0.24412 0.0
C2356 C 0.68381 0.70859 0.24355 0.0
C2357 C 0.67268 0.71792 0.23198 0.0
C2358 C 0.74476 0.75415 0.23329 0.0
C2359 C 0.67025 0.6861 0.25508 0.0
H2360 H 0.73463 0.67109 0.24563 0.0
H2361 H 0.7347 0.70263 0.3096 0.0
H2362 H 0.70098 0.68289 0.21462 0.0
H2363 H 0.72691 0.70758 0.20847 0.0
H2364 H 0.72577 0.68099 0.21026 0.0
H2365 H 0.72552 0.73111 0.31146 0.0
H2366 H 0.72645 0.74537 0.28502 0.0
H2367 H 0.70067 0.72209 0.29441 0.0
H2368 H 0.7172 0.76625 0.21289 0.0
H2369 H 0.65458 0.70889 0.23165 0.0
H2370 H 0.75139 0.74418 0.22504 0.0
H2371 H 0.75085 0.75732 0.25137 0.0
H2372 H 0.7517 0.7704 0.22415 0.0
H2373 H 0.67441 0.67394 0.24739 0.0
H2374 H 0.65199 0.67936 0.25334 0.0
H2375 H 0.67444 0.68743 0.27371 0.0
C2376 C 0.30539 0.18295 0.13253 0.0
C2377 C 0.3052 0.17125 0.11274 0.0
C2378 C 0.31414 0.18038 0.15338 0.0
C2379 C 0.32259 0.16552 0.15443 0.0
C2380 C 0.32184 0.15318 0.1346 0.0
C2381 C 0.31326 0.15632 0.11388 0.0
C2382 C 0.31476 0.19391 0.17412 0.0
C2383 C 0.33047 0.13699 0.13517 0.0
C2384 C 0.36479 0.1741 0.20098 0.0
C2385 C 0.35125 0.15816 0.21734 0.0
C2386 C 0.35563 0.17684 0.18047 0.0
C2387 C 0.33247 0.16311 0.17622 0.0
C2388 C 0.31873 0.14707 0.1928 0.0
C2389 C 0.32828 0.14492 0.21326 0.0
C2390 C 0.37075 0.19428 0.16326 0.0
C2391 C 0.29399 0.13205 0.18884 0.0
H2392 H 0.29904 0.19443 0.13155 0.0
H2393 H 0.31332 0.1475 0.09844 0.0
H2394 H 0.30563 0.18267 0.18874 0.0
H2395 H 0.33229 0.20482 0.17976 0.0
H2396 H 0.30728 0.20455 0.17046 0.0
H2397 H 0.32778 0.12799 0.11854 0.0
H2398 H 0.3486 0.14608 0.13907 0.0
H2399 H 0.32205 0.12454 0.14911 0.0
H2400 H 0.38259 0.18418 0.20409 0.0
H2401 H 0.31778 0.13279 0.2261 0.0
H2402 H 0.36457 0.20602 0.15968 0.0
H2403 H 0.37057 0.18618 0.14668 0.0
H2404 H 0.38827 0.20401 0.16947 0.0
H2405 H 0.28585 0.14226 0.18649 0.0
H2406 H 0.28571 0.12028 0.20338 0.0
H2407 H 0.29117 0.12225 0.17278 0.0
C2408 C 0.84274 0.15629 0.11407 0.0
C2409 C 0.82676 0.13353 0.11355 0.0
C2410 C 0.84677 0.16876 0.1344 0.0
C2411 C 0.83424 0.15822 0.15451 0.0
C2412 C 0.81818 0.13517 0.15405 0.0
C2413 C 0.81481 0.12306 0.13361 0.0
C2414 C 0.86429 0.19322 0.13436 0.0
C2415 C 0.80438 0.12338 0.17508 0.0
C2416 C 0.85649 0.1838 0.21327 0.0
C2417 C 0.84455 0.19486 0.21766 0.0
C2418 C 0.85359 0.17214 0.1926 0.0
C2419 C 0.83804 0.17119 0.17612 0.0
C2420 C 0.82583 0.18225 0.18051 0.0
C2421 C 0.8294 0.19415 0.2012 0.0
C2422 C 0.86709 0.16078 0.18844 0.0
C2423 C 0.80893 0.18138 0.16343 0.0
H2424 H 0.85184 0.16439 0.09845 0.0
H2425 H 0.80261 0.10537 0.1332 0.0
H2426 H 0.85648 0.20346 0.13836 0.0
H2427 H 0.87687 0.19662 0.14799 0.0
H2428 H 0.87301 0.19872 0.11748 0.0
H2429 H 0.79229 0.10548 0.17171 0.0
H2430 H 0.81546 0.12449 0.18949 0.0
H2431 H 0.79501 0.13165 0.18089 0.0
H2432 H 0.86801 0.1841 0.22614 0.0
H2433 H 0.82044 0.20301 0.20446 0.0
H2434 H 0.87643 0.1667 0.17197 0.0
H2435 H 0.85579 0.14249 0.18685 0.0
H2436 H 0.87918 0.16396 0.20258 0.0
H2437 H 0.81716 0.18851 0.14667 0.0
H2438 H 0.80068 0.19069 0.16956 0.0
H2439 H 0.79592 0.16376 0.16025 0.0
C2440 C 0.81635 0.6635 0.21806 0.0
C2441 C 0.8032 0.6404 0.22128 0.0
C2442 C 0.82793 0.67233 0.19738 0.0
C2443 C 0.82668 0.65763 0.17971 0.0
C2444 C 0.8141 0.63423 0.18323 0.0
C2445 C 0.8023 0.62587 0.20397 0.0
C2446 C 0.84097 0.69736 0.1942 0.0
C2447 C 0.81273 0.61807 0.16491 0.0
C2448 C 0.83787 0.67874 0.11792 0.0
C2449 C 0.86011 0.68417 0.11507 0.0
C2450 C 0.82681 0.67028 0.13899 0.0
C2451 C 0.83823 0.6668 0.15739 0.0
C2452 C 0.86074 0.67235 0.15458 0.0
C2453 C 0.87149 0.68123 0.13351 0.0
C2454 C 0.80291 0.66493 0.14152 0.0
C2455 C 0.87338 0.66867 0.17371 0.0
H2456 H 0.81715 0.6747 0.23161 0.0
H2457 H 0.79192 0.608 0.20643 0.0
H2458 H 0.85868 0.7029 0.1902 0.0
H2459 H 0.83414 0.70216 0.17935 0.0
H2460 H 0.84041 0.70645 0.20976 0.0
H2461 H 0.80336 0.60046 0.1709 0.0
H2462 H 0.80435 0.61973 0.14933 0.0
H2463 H 0.82976 0.62203 0.15968 0.0
H2464 H 0.829 0.68078 0.10354 0.0
H2465 H 0.88881 0.68568 0.13134 0.0
H2466 H 0.8014 0.67418 0.15641 0.0
H2467 H 0.79198 0.64686 0.14509 0.0
H2468 H 0.79668 0.66927 0.1258 0.0
H2469 H 0.87424 0.67859 0.18911 0.0
H2470 H 0.89066 0.6734 0.16852 0.0
H2471 H 0.86446 0.65084 0.17893 0.0
C2472 C 0.15023 0.30649 0.38411 0.0
C2473 C 0.16483 0.298 0.38405 0.0
C2474 C 0.14627 0.31509 0.36384 0.0
C2475 C 0.15725 0.3152 0.34315 0.0
C2476 C 0.17164 0.30616 0.34297 0.0
C2477 C 0.17521 0.2976 0.36346 0.0
C2478 C 0.13074 0.32451 0.36467 0.0
C2479 C 0.18362 0.30595 0.32127 0.0
C2480 C 0.13447 0.32145 0.28574 0.0
C2481 C 0.14866 0.34414 0.28094 0.0
C2482 C 0.13693 0.31183 0.30603 0.0
C2483 C 0.15411 0.32523 0.32179 0.0
C2484 C 0.16855 0.34817 0.31696 0.0
C2485 C 0.16562 0.35736 0.29656 0.0
C2486 C 0.12125 0.28731 0.31054 0.0
C2487 C 0.18708 0.36299 0.33334 0.0
H2488 H 0.14237 0.3069 0.40015 0.0
H2489 H 0.18641 0.29089 0.36351 0.0
H2490 H 0.14012 0.34258 0.36049 0.0
H2491 H 0.11741 0.31626 0.35151 0.0
H2492 H 0.12282 0.32233 0.38188 0.0
H2493 H 0.19377 0.29775 0.32391 0.0
H2494 H 0.17139 0.29707 0.30727 0.0
H2495 H 0.19481 0.32331 0.31529 0.0
H2496 H 0.12161 0.31111 0.27344 0.0
H2497 H 0.17644 0.37497 0.29296 0.0
H2498 H 0.1127 0.28506 0.32736 0.0
H2499 H 0.13085 0.27842 0.31164 0.0
H2500 H 0.10839 0.27936 0.29684 0.0
H2501 H 0.18003 0.36303 0.35053 0.0
H2502 H 0.19684 0.38048 0.32705 0.0
H2503 H 0.19863 0.35638 0.33574 0.0
C2504 C 0.66037 0.84651 0.38211 0.0
C2505 C 0.68348 0.85884 0.38568 0.0
C2506 C 0.65151 0.83477 0.3615 0.0
C2507 C 0.66616 0.83496 0.34434 0.0
C2508 C 0.68952 0.84687 0.34815 0.0
C2509 C 0.69793 0.8589 0.36874 0.0
C2510 C 0.62653 0.82253 0.35794 0.0
C2511 C 0.70561 0.8471 0.33039 0.0
C2512 C 0.64215 0.78904 0.29932 0.0
C2513 C 0.64028 0.80034 0.28017 0.0
C2514 C 0.65073 0.80015 0.3203 0.0
C2515 C 0.65702 0.82295 0.32225 0.0
C2516 C 0.65456 0.83428 0.30311 0.0
C2517 C 0.64641 0.82286 0.28217 0.0
C2518 C 0.65337 0.7876 0.34024 0.0
C2519 C 0.66069 0.85848 0.30469 0.0
H2520 H 0.64921 0.84629 0.39538 0.0
H2521 H 0.71582 0.86865 0.37144 0.0
H2522 H 0.62239 0.82914 0.3424 0.0
H2523 H 0.62032 0.80454 0.35485 0.0
H2524 H 0.61749 0.82418 0.37297 0.0
H2525 H 0.72318 0.8562 0.33654 0.0
H2526 H 0.70116 0.82975 0.32594 0.0
H2527 H 0.70443 0.85515 0.31431 0.0
H2528 H 0.63714 0.77152 0.29777 0.0
H2529 H 0.64514 0.83162 0.26725 0.0
H2530 H 0.64341 0.78765 0.35522 0.0
H2531 H 0.6711 0.79603 0.34579 0.0
H2532 H 0.64801 0.77 0.33574 0.0
H2533 H 0.65147 0.86079 0.31912 0.0
H2534 H 0.65691 0.86456 0.28851 0.0
H2535 H 0.67877 0.86902 0.30846 0.0
C2536 C 0.15682 0.84067 0.38319 0.0
C2537 C 0.13468 0.82355 0.3859 0.0
C2538 C 0.168 0.84367 0.36211 0.0
C2539 C 0.15681 0.82891 0.34354 0.0
C2540 C 0.13437 0.8117 0.34618 0.0
C2541 C 0.1235 0.80941 0.36727 0.0
C2542 C 0.19182 0.86246 0.35977 0.0
C2543 C 0.12195 0.79551 0.32688 0.0
C2544 C 0.17861 0.84746 0.2828 0.0
C2545 C 0.19171 0.83746 0.27953 0.0
C2546 C 0.1672 0.84486 0.30358 0.0
C2547 C 0.16855 0.83151 0.32129 0.0
C2548 C 0.1812 0.82076 0.31779 0.0
C2549 C 0.19283 0.82404 0.29696 0.0
C2550 C 0.15409 0.85677 0.30673 0.0
C2551 C 0.18268 0.80608 0.33615 0.0
H2552 H 0.16553 0.85145 0.39769 0.0
H2553 H 0.10626 0.7963 0.36933 0.0
H2554 H 0.20295 0.85555 0.35629 0.0
H2555 H 0.1933 0.87323 0.34489 0.0
H2556 H 0.19781 0.87298 0.37554 0.0
H2557 H 0.10464 0.78287 0.33187 0.0
H2558 H 0.12121 0.80467 0.3115 0.0
H2559 H 0.13098 0.7867 0.3217 0.0
H2560 H 0.17761 0.85767 0.26917 0.0
H2561 H 0.20315 0.8165 0.29447 0.0
H2562 H 0.1607 0.86823 0.32175 0.0
H2563 H 0.13635 0.84451 0.31047 0.0
H2564 H 0.15481 0.8666 0.29126 0.0
H2565 H 0.19079 0.81611 0.35182 0.0
H2566 H 0.19235 0.79811 0.3303 0.0
H2567 H 0.16569 0.79278 0.3412 0.0
C2568 C 0.63214 0.82866 0.79497 0.0
C2569 C 0.64575 0.8459 0.77977 0.0
C2570 C 0.641 0.8247 0.81503 0.0
C2571 C 0.66401 0.83846 0.82004 0.0
C2572 C 0.67782 0.85593 0.80474 0.0
C2573 C 0.66854 0.85934 0.7847 0.0
C2574 C 0.62576 0.80584 0.83087 0.0
C2575 C 0.7024 0.87099 0.80953 0.0
C2576 C 0.68162 0.84031 0.88244 0.0
C2577 C 0.68973 0.82539 0.88206 0.0
C2578 C 0.67357 0.84507 0.86225 0.0
C2579 C 0.67358 0.83452 0.8413 0.0
C2580 C 0.68227 0.81983 0.84078 0.0
C2581 C 0.69042 0.81558 0.86119 0.0
C2582 C 0.66467 0.86101 0.86344 0.0
C2583 C 0.68253 0.80826 0.81878 0.0
H2584 H 0.61447 0.8184 0.79129 0.0
H2585 H 0.6792 0.87237 0.77271 0.0
H2586 H 0.63209 0.79402 0.83297 0.0
H2587 H 0.62558 0.8125 0.84824 0.0
H2588 H 0.60835 0.79647 0.82429 0.0
H2589 H 0.71073 0.88411 0.79614 0.0
H2590 H 0.70473 0.8792 0.82656 0.0
H2591 H 0.71086 0.86096 0.81032 0.0
H2592 H 0.68113 0.84788 0.89866 0.0
H2593 H 0.6971 0.80435 0.86092 0.0
H2594 H 0.64665 0.85209 0.85901 0.0
H2595 H 0.67333 0.87461 0.85062 0.0
H2596 H 0.66679 0.86857 0.88084 0.0
H2597 H 0.66522 0.79759 0.81241 0.0
H2598 H 0.69026 0.79766 0.82122 0.0
H2599 H 0.69189 0.82078 0.80516 0.0
C2600 C 0.15779 0.85771 0.86987 0.0
C2601 C 0.1728 0.85961 0.88711 0.0
C2602 C 0.15546 0.84556 0.84963 0.0
C2603 C 0.16862 0.83531 0.84661 0.0
C2604 C 0.18366 0.83704 0.86412 0.0
C2605 C 0.18544 0.84905 0.88425 0.0
C2606 C 0.13908 0.84387 0.83141 0.0
C2607 C 0.19801 0.8264 0.8615 0.0
C2608 C 0.14837 0.78811 0.80321 0.0
C2609 C 0.16086 0.79928 0.78365 0.0
C2610 C 0.15093 0.79958 0.82394 0.0
C2611 C 0.1666 0.8227 0.82514 0.0
C2612 C 0.17994 0.83385 0.80566 0.0
C2613 C 0.17685 0.82198 0.78506 0.0
C2614 C 0.13639 0.78711 0.84432 0.0
C2615 C 0.19702 0.85844 0.80641 0.0
H2616 H 0.14817 0.86605 0.87205 0.0
H2617 H 0.19682 0.85028 0.89778 0.0
H2618 H 0.14807 0.85148 0.81508 0.0
H2619 H 0.12694 0.82608 0.82775 0.0
H2620 H 0.12973 0.85235 0.83666 0.0
H2621 H 0.20899 0.82948 0.87668 0.0
H2622 H 0.18732 0.80811 0.85911 0.0
H2623 H 0.20863 0.83304 0.84588 0.0
H2624 H 0.13617 0.77046 0.80208 0.0
H2625 H 0.1864 0.83059 0.76983 0.0
H2626 H 0.12566 0.79423 0.84894 0.0
H2627 H 0.14691 0.78907 0.85959 0.0
H2628 H 0.12551 0.76901 0.84074 0.0
H2629 H 0.18851 0.86824 0.80923 0.0
H2630 H 0.20691 0.8643 0.79021 0.0
H2631 H 0.20864 0.86202 0.82108 0.0
C2632 C 0.18287 0.32419 0.78168 0.0
C2633 C 0.19285 0.34712 0.77727 0.0
C2634 C 0.17121 0.31504 0.80229 0.0
C2635 C 0.16954 0.32922 0.8188 0.0
C2636 C 0.17948 0.35239 0.81432 0.0
C2637 C 0.19098 0.36107 0.79351 0.0
C2638 C 0.16064 0.29023 0.80638 0.0
C2639 C 0.17809 0.36804 0.83155 0.0
C2640 C 0.12302 0.30538 0.86316 0.0
C2641 C 0.13433 0.30467 0.88288 0.0
C2642 C 0.13418 0.31288 0.84202 0.0
C2643 C 0.15719 0.31983 0.8407 0.0
C2644 C 0.16852 0.3185 0.86048 0.0
C2645 C 0.15688 0.31084 0.88139 0.0
C2646 C 0.12149 0.31387 0.82127 0.0
C2647 C 0.19305 0.32579 0.8597 0.0
H2648 H 0.18409 0.3134 0.76891 0.0
H2649 H 0.19885 0.37883 0.79009 0.0
H2650 H 0.16745 0.2871 0.82239 0.0
H2651 H 0.14238 0.28277 0.80888 0.0
H2652 H 0.16357 0.28155 0.79182 0.0
H2653 H 0.1868 0.38562 0.82545 0.0
H2654 H 0.16036 0.36282 0.83499 0.0
H2655 H 0.18561 0.36725 0.84819 0.0
H2656 H 0.10548 0.30036 0.86439 0.0
H2657 H 0.16557 0.31035 0.89676 0.0
H2658 H 0.12327 0.3045 0.80666 0.0
H2659 H 0.12856 0.33145 0.8156 0.0
H2660 H 0.10343 0.30686 0.82496 0.0
H2661 H 0.19632 0.31677 0.84579 0.0
H2662 H 0.19912 0.32277 0.87631 0.0
H2663 H 0.2029 0.34388 0.85564 0.0
C2664 C 0.84912 0.66743 0.71575 0.0
C2665 C 0.83739 0.64428 0.71921 0.0
C2666 C 0.84681 0.67678 0.69522 0.0
C2667 C 0.83197 0.66264 0.67801 0.0
C2668 C 0.81956 0.63926 0.68171 0.0
C2669 C 0.82255 0.63033 0.70226 0.0
C2670 C 0.86046 0.70176 0.69184 0.0
C2671 C 0.80329 0.62371 0.66388 0.0
C2672 C 0.81125 0.68845 0.63378 0.0
C2673 C 0.8241 0.69002 0.61443 0.0
C2674 C 0.81356 0.67945 0.65457 0.0
C2675 C 0.82946 0.67233 0.65613 0.0
C2676 C 0.84294 0.67448 0.6368 0.0
C2677 C 0.83995 0.68314 0.61606 0.0
C2678 C 0.79873 0.67724 0.67473 0.0
C2679 C 0.86032 0.66739 0.63796 0.0
H2680 H 0.86032 0.67824 0.72907 0.0
H2681 H 0.81358 0.61241 0.70492 0.0
H2682 H 0.87101 0.70559 0.67618 0.0
H2683 H 0.84927 0.70873 0.68907 0.0
H2684 H 0.87145 0.71037 0.70683 0.0
H2685 H 0.79433 0.60606 0.66979 0.0
H2686 H 0.79081 0.62881 0.65975 0.0
H2687 H 0.81229 0.62475 0.64766 0.0
H2688 H 0.79913 0.69398 0.63251 0.0
H2689 H 0.84969 0.68414 0.60098 0.0
H2690 H 0.80907 0.68674 0.68975 0.0
H2691 H 0.78882 0.65948 0.68006 0.0
H2692 H 0.78706 0.68339 0.67058 0.0
H2693 H 0.87208 0.67614 0.65236 0.0
H2694 H 0.87002 0.67098 0.62168 0.0
H2695 H 0.85216 0.64922 0.64151 0.0
C2696 C 0.35524 0.1719 0.71659 0.0
C2697 C 0.36038 0.19419 0.7177 0.0
C2698 C 0.3471 0.15958 0.6961 0.0
C2699 C 0.34404 0.16987 0.67638 0.0
C2700 C 0.34977 0.19258 0.67732 0.0
C2701 C 0.35796 0.20449 0.69797 0.0
C2702 C 0.3413 0.13544 0.69569 0.0
C2703 C 0.34683 0.20418 0.65665 0.0
C2704 C 0.33982 0.14464 0.61716 0.0
C2705 C 0.31671 0.13322 0.61338 0.0
C2706 C 0.34893 0.15642 0.63771 0.0
C2707 C 0.33456 0.15688 0.65481 0.0
C2708 C 0.31118 0.14537 0.65106 0.0
C2709 C 0.30251 0.13361 0.63035 0.0
C2710 C 0.37394 0.16849 0.64104 0.0
C2711 C 0.29534 0.14552 0.66889 0.0
H2712 H 0.35698 0.16393 0.73194 0.0
H2713 H 0.36218 0.22183 0.69884 0.0
H2714 H 0.32318 0.12456 0.69235 0.0
H2715 H 0.35035 0.13264 0.68146 0.0
H2716 H 0.34549 0.1302 0.71219 0.0
H2717 H 0.35251 0.22203 0.66013 0.0
H2718 H 0.35635 0.20318 0.64173 0.0
H2719 H 0.32898 0.19566 0.65155 0.0
H2720 H 0.35081 0.14456 0.60388 0.0
H2721 H 0.28462 0.12454 0.62751 0.0
H2722 H 0.37815 0.16265 0.65709 0.0
H2723 H 0.38037 0.18666 0.64301 0.0
H2724 H 0.38272 0.16591 0.62634 0.0
H2725 H 0.29736 0.13865 0.68544 0.0
H2726 H 0.27761 0.13561 0.66339 0.0
H2727 H 0.29934 0.16294 0.67226 0.0
C2728 C 0.84914 0.18598 0.61754 0.0
C2729 C 0.85885 0.17272 0.61345 0.0
C2730 C 0.83697 0.18347 0.63776 0.0
C2731 C 0.83397 0.16688 0.65395 0.0
C2732 C 0.84325 0.15304 0.64961 0.0
C2733 C 0.85581 0.1563 0.62949 0.0
C2734 C 0.8276 0.19876 0.64192 0.0
C2735 C 0.84005 0.13491 0.66632 0.0
C2736 C 0.82072 0.17187 0.71647 0.0
C2737 C 0.79763 0.15727 0.71711 0.0
C2738 C 0.83271 0.1756 0.69585 0.0
C2739 C 0.8213 0.16415 0.67557 0.0
C2740 C 0.79787 0.14979 0.67605 0.0
C2741 C 0.78626 0.1468 0.69679 0.0
C2742 C 0.85761 0.19144 0.69587 0.0
C2743 C 0.78516 0.13714 0.65483 0.0
H2744 H 0.85114 0.19842 0.60493 0.0
H2745 H 0.86349 0.14618 0.62642 0.0
H2746 H 0.80918 0.18882 0.64371 0.0
H2747 H 0.83429 0.20802 0.65833 0.0
H2748 H 0.83173 0.21103 0.62774 0.0
H2749 H 0.84749 0.12493 0.65988 0.0
H2750 H 0.84784 0.14242 0.68314 0.0
H2751 H 0.82198 0.12349 0.6695 0.0
H2752 H 0.82946 0.17997 0.73224 0.0
H2753 H 0.76829 0.13589 0.69727 0.0
H2754 H 0.86217 0.20424 0.68219 0.0
H2755 H 0.86644 0.18214 0.69196 0.0
H2756 H 0.86371 0.20004 0.71273 0.0
H2757 H 0.78784 0.14894 0.64059 0.0
H2758 H 0.76693 0.12676 0.65809 0.0
H2759 H 0.7915 0.12609 0.64885 0.0
C2760 C 0.01459 0.50775 0.54764 0.0
C2761 C 0.02092 0.49154 0.5499 0.0
C2762 C 0.00653 0.51083 0.52653 0.0
C2763 C 0.00467 0.49724 0.5074 0.0
C2764 C 0.01143 0.48109 0.50956 0.0
C2765 C 0.01957 0.47851 0.53081 0.0
C2766 C -0.00037 0.52832 0.5248 0.0
C2767 C 0.0097 0.46629 0.48958 0.0
C2768 C 0.96357 0.49019 0.46016 0.0
C2769 C 0.97778 0.50529 0.44353 0.0
C2770 C 0.97213 0.4872 0.48097 0.0
C2771 C 0.99542 0.49973 0.48518 0.0
C2772 C 0.00985 0.51475 0.46823 0.0
C2773 C 0.00083 0.51726 0.44754 0.0
C2774 C 0.95626 0.4709 0.49859 0.0
C2775 C 0.03475 0.52838 0.47208 0.0
H2776 H 0.01545 0.51765 0.56253 0.0
H2777 H 0.02465 0.46608 0.53262 0.0
H2778 H 0.00879 0.54008 0.51053 0.0
H2779 H 0.98156 0.52024 0.52073 0.0
H2780 H 0.00284 0.53802 0.54104 0.0
H2781 H 0.01598 0.45479 0.49404 0.0
H2782 H 0.99204 0.4562 0.484 0.0
H2783 H 0.01935 0.47665 0.47462 0.0
H2784 H 0.94571 0.48108 0.45708 0.0
H2785 H 0.01181 0.52877 0.43451 0.0
H2786 H 0.95705 0.47988 0.51474 0.0
H2787 H 0.96125 0.45839 0.50296 0.0
H2788 H 0.93871 0.46198 0.49236 0.0
H2789 H 0.03831 0.53913 0.48753 0.0
H2790 H 0.04366 0.53918 0.45706 0.0
H2791 H 0.04161 0.51719 0.47545 0.0
C2792 C 0.5175 0.52165 0.54738 0.0
C2793 C 0.50562 0.53299 0.55029 0.0
C2794 C 0.51538 0.50968 0.52711 0.0
C2795 C 0.50085 0.50888 0.50947 0.0
C2796 C 0.48861 0.52012 0.51246 0.0
C2797 C 0.4912 0.53211 0.53287 0.0
C2798 C 0.52869 0.49791 0.52456 0.0
C2799 C 0.47285 0.51952 0.49408 0.0
C2800 C 0.50818 0.49453 0.44799 0.0
C2801 C 0.49123 0.47218 0.44655 0.0
C2802 C 0.51185 0.5066 0.46857 0.0
C2803 C 0.49815 0.49601 0.48801 0.0
C2804 C 0.48145 0.47322 0.48676 0.0
C2805 C 0.47827 0.46155 0.46604 0.0
C2806 C 0.52996 0.53083 0.46934 0.0
C2807 C 0.46654 0.46132 0.50712 0.0
H2808 H 0.52844 0.52212 0.56103 0.0
H2809 H 0.48216 0.54104 0.53512 0.0
H2810 H 0.51723 0.47972 0.52227 0.0
H2811 H 0.53933 0.50403 0.50891 0.0
H2812 H 0.53953 0.5005 0.53974 0.0
H2813 H 0.46448 0.52903 0.49915 0.0
H2814 H 0.48211 0.52662 0.47776 0.0
H2815 H 0.45986 0.50198 0.4905 0.0
H2816 H 0.5181 0.50275 0.43283 0.0
H2817 H 0.46532 0.44415 0.46491 0.0
H2818 H 0.5414 0.53375 0.48403 0.0
H2819 H 0.52239 0.5415 0.47216 0.0
H2820 H 0.53991 0.53624 0.45316 0.0
H2821 H 0.47679 0.46259 0.52238 0.0
H2822 H 0.45481 0.44338 0.50351 0.0
H2823 H 0.45669 0.46941 0.51174 0.0
C2824 C 0.54139 0.03262 0.47111 0.0
C2825 C 0.53086 0.03347 0.45082 0.0
C2826 C 0.52916 0.02361 0.49145 0.0
C2827 C 0.50588 0.01555 0.4915 0.0
C2828 C 0.49533 0.0172 0.47123 0.0
C2829 C 0.50798 0.02611 0.45105 0.0
C2830 C 0.54103 0.02216 0.51269 0.0
C2831 C 0.4706 0.00901 0.47071 0.0
C2832 C 0.47067 0.972 0.53647 0.0
C2833 C 0.46806 0.98512 0.55319 0.0
C2834 C 0.48293 0.98169 0.51623 0.0
C2835 C 0.49256 0.00499 0.51265 0.0
C2836 C 0.48986 0.01826 0.52948 0.0
C2837 C 0.47776 0.00817 0.54963 0.0
C2838 C 0.48559 0.96703 0.49872 0.0
C2839 C 0.49981 0.04312 0.52627 0.0
H2840 H 0.55917 0.03852 0.47088 0.0
H2841 H 0.49986 0.02667 0.43527 0.0
H2842 H 0.53825 0.03077 0.52739 0.0
H2843 H 0.53408 0.00442 0.51771 0.0
H2844 H 0.55929 0.0297 0.50993 0.0
H2845 H 0.46518 0.01258 0.45397 0.0
H2846 H 0.46111 0.99073 0.47375 0.0
H2847 H 0.46612 0.01698 0.48474 0.0
H2848 H 0.46296 0.95414 0.53912 0.0
H2849 H 0.47608 0.0184 0.56275 0.0
H2850 H 0.50358 0.97292 0.49599 0.0
H2851 H 0.4786 0.96815 0.48187 0.0
H2852 H 0.47713 0.94924 0.50415 0.0
H2853 H 0.51826 0.05128 0.52511 0.0
H2854 H 0.49549 0.05091 0.54065 0.0
H2855 H 0.49383 0.04656 0.50985 0.0
C2856 C 0.48879 0.9832 0.05284 0.0
C2857 C 0.50581 0.97803 0.05546 0.0
C2858 C 0.48565 0.99118 0.03171 0.0
C2859 C 0.50015 0.99438 0.013 0.0
C2860 C 0.51723 0.98895 0.01555 0.0
C2861 C 0.51969 0.98061 0.03671 0.0
C2862 C 0.46702 0.99646 0.02949 0.0
C2863 C 0.53313 0.9923 0.99607 0.0
C2864 C 0.48136 0.99755 0.95237 0.0
C2865 C 0.4918 0.02065 0.9489 0.0
C2866 C 0.48387 0.98875 0.9732 0.0
C2867 C 0.49751 0.00347 0.99076 0.0
C2868 C 0.50858 0.02685 0.98709 0.0
C2869 C 0.50542 0.03519 0.9662 0.0
C2870 C 0.47164 0.96374 0.97655 0.0
C2871 C 0.52354 0.04304 0.00531 0.0
H2872 H 0.47823 0.98142 0.06745 0.0
H2873 H 0.53272 0.97638 0.03872 0.0
H2874 H 0.47409 0.01451 0.02589 0.0
H2875 H 0.45607 0.98714 0.01473 0.0
H2876 H 0.45665 0.99215 0.04535 0.0
H2877 H 0.54559 0.98737 0.00095 0.0
H2878 H 0.5237 0.98238 0.98081 0.0
H2879 H 0.54215 0.01011 0.99077 0.0
H2880 H 0.47094 0.98634 0.93884 0.0
H2881 H 0.51326 0.05307 0.96355 0.0
H2882 H 0.46034 0.95916 0.99168 0.0
H2883 H 0.48371 0.95801 0.98018 0.0
H2884 H 0.46158 0.95463 0.96119 0.0
H2885 H 0.51368 0.04127 0.02108 0.0
H2886 H 0.53161 0.06066 -0.00062 0.0
H2887 H 0.53675 0.03918 0.01021 0.0
C2888 C 0.97355 0.45478 0.96742 0.0
C2889 C 0.97254 0.46628 0.94798 0.0
C2890 C 0.98282 0.46602 0.98819 0.0
C2891 C 0.99083 0.48923 0.98965 0.0
C2892 C 0.98913 0.50079 0.97026 0.0
C2893 C 0.98014 0.48917 0.94955 0.0
C2894 C 0.9845 0.45314 0.00841 0.0
C2895 C 0.99711 0.52547 0.97129 0.0
C2896 C 0.99728 0.5149 0.049 0.0
C2897 C 0.02044 0.52565 0.05224 0.0
C2898 C 0.98741 0.50301 0.0287 0.0
C2899 C 0.00104 0.50145 0.01144 0.0
C2900 C 0.02441 0.51171 0.01494 0.0
C2901 C 0.03388 0.52388 0.03527 0.0
C2902 C 0.96248 0.4925 0.02555 0.0
C2903 C 0.03942 0.51009 0.99706 0.0
H2904 H 0.96748 0.43701 0.96618 0.0
H2905 H 0.97954 0.49808 0.93442 0.0
H2906 H 0.00225 0.46026 0.01349 0.0
H2907 H 0.97552 0.45468 0.02352 0.0
H2908 H 0.97747 0.43514 0.00443 0.0
H2909 H 0.99368 0.53174 0.95503 0.0
H2910 H 0.98886 0.52903 0.98578 0.0
H2911 H 0.01535 0.53493 0.97461 0.0
H2912 H 0.98687 0.51607 0.06227 0.0
H2913 H 0.05182 0.5324 0.0377 0.0
H2914 H 0.95486 0.47426 0.02278 0.0
H2915 H 0.9589 0.49951 0.00996 0.0
H2916 H 0.95428 0.49532 0.04064 0.0
H2917 H 0.03353 0.49232 0.993 0.0
H2918 H 0.05707 0.51812 0.00288 0.0
H2919 H 0.03873 0.51823 0.98083 0.0
C2920 C 0.48943 0.51153 0.04869 0.0
C2921 C 0.46649 0.49625 0.0491 0.0
C2922 C 0.50171 0.51575 0.02818 0.0
C2923 C 0.49069 0.50437 0.00771 0.0
C2924 C 0.4674 0.48919 0.00803 0.0
C2925 C 0.45557 0.48531 0.02878 0.0
C2926 C 0.52652 0.53205 0.0285 0.0
C2927 C 0.45505 0.47681 0.98655 0.0
C2928 C 0.51814 0.52784 0.94981 0.0
C2929 C 0.52726 0.51428 0.94455 0.0
C2930 C 0.50634 0.52494 0.97041 0.0
C2931 C 0.50356 0.50799 0.98603 0.0
C2932 C 0.51277 0.49425 0.98078 0.0
C2933 C 0.52452 0.49757 0.96005 0.0
C2934 C 0.49667 0.53984 0.97536 0.0
C2935 C 0.51018 0.47605 0.99705 0.0
H2936 H 0.49783 0.51982 0.06454 0.0
H2937 H 0.43777 0.47357 0.0292 0.0
H2938 H 0.53573 0.5233 0.02383 0.0
H2939 H 0.53081 0.54533 0.01545 0.0
H2940 H 0.53241 0.54 0.04567 0.0
H2941 H 0.43684 0.46598 0.98962 0.0
H2942 H 0.45755 0.48884 0.97262 0.0
H2943 H 0.46183 0.46623 0.98026 0.0
H2944 H 0.51993 0.54052 0.93761 0.0
H2945 H 0.53177 0.48724 0.95606 0.0
H2946 H 0.50308 0.54853 0.99208 0.0
H2947 H 0.47824 0.5296 0.97688 0.0
H2948 H 0.50079 0.55256 0.96166 0.0
H2949 H 0.51737 0.4833 0.01415 0.0
H2950 H 0.5185 0.46695 0.99048 0.0
H2951 H 0.49221 0.46388 -0.00027 0.0
C2952 C 0.21013 0.05543 0.02691 0.0
C2953 C 0.21899 0.07385 0.01209 0.0
C2954 C 0.20463 0.03421 0.01869 0.0
C2955 C 0.20755 0.03138 0.99498 0.0
C2956 C 0.21562 0.04983 0.97976 0.0
C2957 C 0.22144 0.07094 0.98856 0.0
C2958 C 0.19643 0.01502 0.03552 0.0
C2959 C 0.21848 0.04733 0.9543 0.0
C2960 C 0.21751 0.98385 0.97976 0.0
C2961 C 0.19605 0.96693 0.97344 0.0
C2962 C 0.22149 0.00497 0.98648 0.0
C2963 C 0.20366 0.00946 0.98649 0.0
C2964 C 0.18211 0.99277 0.97931 0.0
C2965 C 0.1785 0.97158 0.97307 0.0
C2966 C 0.24464 0.02225 0.99431 0.0
C2967 C 0.16282 0.99716 0.97866 0.0
H2968 H 0.20817 0.05777 0.04509 0.0
H2969 H 0.22778 0.08516 0.97703 0.0
H2970 H 0.1802 0.00093 0.0297 0.0
H2971 H 0.20847 0.00885 0.03617 0.0
H2972 H 0.19437 0.01986 0.05324 0.0
H2973 H 0.22318 0.0629 0.94453 0.0
H2974 H 0.23165 0.04286 0.95168 0.0
H2975 H 0.20277 0.03359 0.94695 0.0
H2976 H 0.23117 0.98039 0.98022 0.0
H2977 H 0.16191 0.95862 0.96808 0.0
H2978 H 0.24409 0.02681 0.01257 0.0
H2979 H 0.25087 0.03769 0.9839 0.0
H2980 H 0.25677 0.01622 0.99287 0.0
H2981 H 0.15883 5e-05 0.99642 0.0
H2982 H 0.14758 0.98302 0.97098 0.0
H2983 H 0.16744 0.01249 0.96854 0.0
C2984 C 0.92302 0.15934 0.98943 0.0
C2985 C 0.92207 0.15163 0.01199 0.0
C2986 C 0.94319 0.17612 0.98011 0.0
C2987 C 0.96273 0.18548 0.99383 0.0
C2988 C 0.96177 0.17786 0.01673 0.0
C2989 C 0.94145 0.16077 0.02544 0.0
C2990 C 0.94371 0.18348 0.95547 0.0
C2991 C 0.9822 0.18769 0.03199 0.0
C2992 C 0.02053 0.21331 0.9674 0.0
C2993 C 0.02736 0.23598 0.97018 0.0
C2994 C -0.0009 0.19667 0.97405 0.0
C2995 C 0.98437 0.20288 0.98417 0.0
C2996 C 0.9909 0.22573 0.98631 0.0
C2997 C 0.01229 0.24204 0.97906 0.0
C2998 C 0.99252 0.17245 0.97101 0.0
C2999 C 0.97573 0.23297 0.9973 0.0
H3000 H 0.90809 0.15183 0.97886 0.0
H3001 H 0.94063 0.1547 0.04288 0.0
H3002 H 0.95024 0.20175 0.9548 0.0
H3003 H 0.95518 0.18008 0.94513 0.0
H3004 H 0.92693 0.17482 0.94729 0.0
H3005 H 0.97839 0.18056 0.04969 0.0
H3006 H 0.99508 0.18455 0.02433 0.0
H3007 H 0.98954 0.20605 0.03321 0.0
H3008 H 0.03209 0.20857 0.96036 0.0
H3009 H 0.01755 0.25955 0.98138 0.0
H3010 H 0.97614 0.16322 0.96214 0.0
H3011 H 0.99065 0.16457 0.98816 0.0
H3012 H 0.00507 0.17046 0.96092 0.0
H3013 H 0.95916 0.22464 0.98875 0.0
H3014 H 0.98276 0.25133 0.99639 0.0
H3015 H 0.973 0.22783 0.0157 0.0
C3016 C 0.77941 0.80367 0.97376 0.0
C3017 C 0.75662 0.78786 0.97561 0.0
C3018 C 0.79574 0.79857 0.98082 0.0
C3019 C 0.78911 0.77732 0.99039 0.0
C3020 C 0.76615 0.76115 0.99193 0.0
C3021 C 0.75017 0.76655 0.98431 0.0
C3022 C 0.82009 0.81609 0.97846 0.0
C3023 C 0.75845 0.73843 0.00235 0.0
C3024 C 0.83172 0.75812 0.99403 0.0
C3025 C 0.83941 0.76398 0.01674 0.0
C3026 C 0.81527 0.76229 0.98521 0.0
C3027 C 0.8062 0.77233 -0.00044 0.0
C3028 C 0.81378 0.77806 0.02261 0.0
C3029 C 0.83053 0.77406 0.03083 0.0
C3030 C 0.80796 0.7564 0.96041 0.0
C3031 C 0.80425 0.78848 0.03854 0.0
H3032 H 0.78448 0.82012 0.9669 0.0
H3033 H 0.73258 0.75431 0.98593 0.0
H3034 H 0.82781 0.82112 0.9958 0.0
H3035 H 0.82919 0.80916 0.96895 0.0
H3036 H 0.82247 0.83123 0.96926 0.0
H3037 H 0.74002 0.72751 0.00165 0.0
H3038 H 0.76626 0.72998 0.99319 0.0
H3039 H 0.76385 0.74032 0.02065 0.0
H3040 H 0.83903 0.75086 0.98295 0.0
H3041 H 0.83658 0.77863 0.04838 0.0
H3042 H 0.81163 0.77171 0.95072 0.0
H3043 H 0.78966 0.7449 0.95955 0.0
H3044 H 0.81644 0.74838 0.95165 0.0
H3045 H 0.80775 0.80485 0.03155 0.0
H3046 H 0.8113 0.79107 0.05623 0.0
H3047 H 0.78584 0.7777 0.03962 0.0
C3048 C 0.98349 0.2183 0.51956 0.0
C3049 C 0.96669 0.1973 0.52722 0.0
C3050 C 0.00427 0.22163 0.51234 0.0
C3051 C 0.00851 0.20364 0.51325 0.0
C3052 C 0.99198 0.18264 0.52185 0.0
C3053 C 0.97114 0.17965 0.52852 0.0
C3054 C 0.02139 0.24418 0.50295 0.0
C3055 C 0.99613 0.16323 0.52354 0.0
C3056 C 0.05236 0.20603 0.47217 0.0
C3057 C 0.07127 0.21515 0.48631 0.0
C3058 C 0.03172 0.20199 0.48079 0.0
C3059 C 0.02996 0.20667 0.50426 0.0
C3060 C 0.04891 0.21515 0.51881 0.0
C3061 C 0.06943 0.21947 0.50958 0.0
C3062 C 0.01197 0.19331 0.46466 0.0
C3063 C 0.04754 0.21984 0.54403 0.0
H3064 H 0.98014 0.23199 0.51836 0.0
H3065 H 0.95825 0.16342 0.53456 0.0
H3066 H 0.03727 0.25079 0.51267 0.0
H3067 H 0.02506 0.24248 0.48466 0.0
H3068 H 0.01565 0.25657 0.50391 0.0
H3069 H 0.98221 0.14855 0.53226 0.0
H3070 H -0.00176 0.15812 0.506 0.0
H3071 H 0.0118 0.16825 0.53318 0.0
H3072 H 0.05388 0.20266 0.45418 0.0
H3073 H 0.08403 0.22605 0.52061 0.0
H3074 H 0.00606 0.20553 0.46355 0.0
H3075 H -0.00207 0.1775 0.47144 0.0
H3076 H 0.01607 0.19024 0.44698 0.0
H3077 H 0.04325 0.23324 0.54577 0.0
H3078 H 0.06349 0.22512 0.55328 0.0
H3079 H 0.03408 0.20474 0.55259 0.0
C3080 C 0.77773 0.76773 0.53576 0.0
C3081 C 0.79648 0.76783 0.52644 0.0
C3082 C 0.77246 0.78418 0.52956 0.0
C3083 C 0.78592 0.80064 0.51316 0.0
C3084 C 0.80508 0.80102 0.50401 0.0
C3085 C 0.8103 0.78477 0.51101 0.0
C3086 C 0.75227 0.78366 0.54017 0.0
C3087 C 0.81955 0.81802 0.48611 0.0
C3088 C 0.75946 0.82715 0.47731 0.0
C3089 C 0.76904 0.84843 0.48712 0.0
C3090 C 0.76471 0.81133 0.48575 0.0
C3091 C 0.77947 0.8169 0.50475 0.0
C3092 C 0.7887 0.83827 0.51506 0.0
C3093 C 0.78361 0.85395 0.50585 0.0
C3094 C 0.75496 0.7889 0.47397 0.0
C3095 C 0.80405 0.8446 0.53567 0.0
H3096 H 0.76711 0.75472 0.5478 0.0
H3097 H 0.82469 0.78477 0.5036 0.0
H3098 H 0.75693 0.80027 0.54746 0.0
H3099 H 0.73947 0.77987 0.52669 0.0
H3100 H 0.74469 0.77095 0.55405 0.0
H3101 H 0.8341 0.81628 0.48104 0.0
H3102 H 0.8095 0.8161 0.47045 0.0
H3103 H 0.82579 0.83517 0.49275 0.0
H3104 H 0.74834 0.82313 0.46266 0.0
H3105 H 0.79089 0.87049 0.51337 0.0
H3106 H 0.7454 0.77531 0.48654 0.0
H3107 H 0.76861 0.7865 0.46717 0.0
H3108 H 0.74371 0.78722 0.45946 0.0
H3109 H 0.79597 0.83207 0.54962 0.0
H3110 H 0.80862 0.86134 0.54257 0.0
H3111 H 0.81959 0.84466 0.5308 0.0
C3112 C 0.24229 0.01135 0.51677 0.0
C3113 C 0.23739 0.02734 0.5255 0.0
C3114 C 0.22521 0.99025 0.50977 0.0
C3115 C 0.20268 0.98485 0.51198 0.0
C3116 C 0.19758 0.00058 0.52166 0.0
C3117 C 0.21502 0.02174 0.52809 0.0
C3118 C 0.23131 0.97403 0.49923 0.0
C3119 C 0.17372 0.99521 0.52474 0.0
C3120 C 0.16005 0.94058 0.47202 0.0
C3121 C 0.15121 0.92159 0.48606 0.0
C3122 C 0.17686 0.96131 0.48025 0.0
C3123 C 0.18454 0.96309 0.50325 0.0
C3124 C 0.17523 0.94402 0.51768 0.0
C3125 C 0.15874 0.92342 0.50883 0.0
C3126 C 0.18665 0.98121 0.46424 0.0
C3127 C 0.18263 0.94538 0.54243 0.0
H3128 H 0.25954 0.0156 0.51456 0.0
H3129 H 0.21114 0.03399 0.53495 0.0
H3130 H 0.223 0.95796 0.50873 0.0
H3131 H 0.22531 0.97044 0.48112 0.0
H3132 H 0.24962 0.98057 0.49932 0.0
H3133 H 0.17257 0.00861 0.53413 0.0
H3134 H 0.16567 0.9929 0.50762 0.0
H3135 H 0.16407 0.97932 0.53437 0.0
H3136 H 0.1541 0.9391 0.45443 0.0
H3137 H 0.15145 0.90881 0.51986 0.0
H3138 H 0.20489 0.98794 0.46239 0.0
H3139 H 0.18432 0.99471 0.47162 0.0
H3140 H 0.17891 0.97697 0.44682 0.0
H3141 H 0.20067 0.95082 0.54305 0.0
H3142 H 0.17321 0.92913 0.55155 0.0
H3143 H 0.18036 0.95805 0.55189 0.0
C3144 C 0.77624 0.00801 0.03232 0.0
C3145 C 0.7961 0.02664 0.02479 0.0
C3146 C 0.77088 0.98631 0.02588 0.0
C3147 C 0.78548 0.98329 0.01113 0.0
C3148 C 0.80566 0.00202 0.00371 0.0
C3149 C 0.81085 0.02345 0.01085 0.0
C3150 C 0.74947 0.96667 0.03458 0.0
C3151 C 0.82146 -0.0005 0.98763 0.0
C3152 C 0.78263 0.92724 0.00606 0.0
C3153 C 0.76988 0.91862 0.986 0.0
C3154 C 0.78725 0.948 0.01488 0.0
C3155 C 0.77945 0.96062 0.00291 0.0
C3156 C 0.76659 0.95192 0.98255 0.0
C3157 C 0.76177 0.93086 0.97445 0.0
C3158 C 0.80059 0.9565 0.03688 0.0
C3159 C 0.75841 0.9651 0.96903 0.0
H3160 H 0.76484 0.0104 0.04319 0.0
H3161 H 0.82613 0.0378 0.0048 0.0
H3162 H 0.73813 0.95804 0.01987 0.0
H3163 H 0.75303 0.95439 0.04306 0.0
H3164 H 0.74065 0.97176 0.04707 0.0
H3165 H 0.83655 0.01576 0.98359 0.0
H3166 H 0.82684 0.9883 0.9954 0.0
H3167 H 0.81277 0.99168 0.97122 0.0
H3168 H 0.78878 0.91759 0.01495 0.0
H3169 H 0.75216 0.92418 0.95875 0.0
H3170 H 0.79135 0.96084 0.04958 0.0
H3171 H 0.81664 0.97196 0.03332 0.0
H3172 H 0.80426 0.94405 0.04481 0.0
H3173 H 0.74797 0.96927 0.98019 0.0
H3174 H 0.74845 0.95586 0.95368 0.0
H3175 H 0.77286 0.9811 0.96319 0.0
C3176 C 0.98062 0.75591 0.01947 0.0
C3177 C 0.96418 0.7613 0.02527 0.0
C3178 C 0.00189 0.77241 0.01219 0.0
C3179 C 0.00694 0.7949 0.01097 0.0
C3180 C 0.99076 0.80061 0.0177 0.0
C3181 C 0.96951 0.78372 0.02465 0.0
C3182 C 0.01868 0.76566 0.00499 0.0
C3183 C 0.9957 0.82448 0.01696 0.0
C3184 C 0.06812 0.83945 0.00714 0.0
C3185 C 0.07057 0.84401 0.98342 0.0
C3186 C 0.04742 0.8237 0.01644 0.0
C3187 C 0.02882 0.81223 0.0016 0.0
C3188 C 0.03118 0.81699 0.97765 0.0
C3189 C 0.05202 0.83302 0.96888 0.0
C3190 C 0.04544 0.81933 0.04211 0.0
C3191 C 0.01176 0.80495 0.96126 0.0
H3192 H 0.97666 0.73864 0.01983 0.0
H3193 H 0.95695 0.78805 0.02924 0.0
H3194 H 0.02267 0.76939 0.9864 0.0
H3195 H 0.03448 0.77545 0.01472 0.0
H3196 H 0.01245 0.74761 0.00787 0.0
H3197 H 0.98191 0.82636 0.02438 0.0
H3198 H 0.01127 0.83547 0.02659 0.0
H3199 H -0.00161 0.83044 0.99883 0.0
H3200 H 0.08234 0.84844 0.01849 0.0
H3201 H 0.05394 0.83667 0.95055 0.0
H3202 H 0.04019 0.80158 0.04546 0.0
H3203 H 0.03239 0.82238 0.04947 0.0
H3204 H 0.0614 0.83002 0.05132 0.0
H3205 H 0.00544 0.78672 0.96198 0.0
H3206 H 0.01638 0.81065 0.94313 0.0
H3207 H -0.00216 0.80761 0.9665 0.0
C3208 C 0.21391 0.18797 0.00834 0.0
C3209 C 0.23191 0.20272 0.02221 0.0
C3210 C 0.19733 0.19288 0.00184 0.0
C3211 C 0.19853 0.21278 0.00984 0.0
C3212 C 0.21632 0.22746 0.02436 0.0
C3213 C 0.23298 0.22238 0.03017 0.0
C3214 C 0.17882 0.177 0.98598 0.0
C3215 C 0.21782 0.24858 0.03362 0.0
C3216 C 0.16757 0.23514 0.97496 0.0
C3217 C 0.14742 0.22626 0.98705 0.0
C3218 C 0.18455 0.23115 0.98239 0.0
C3219 C 0.1813 0.21831 0.00258 0.0
C3220 C 0.1611 0.20979 0.01514 0.0
C3221 C 0.14423 0.21362 0.007 0.0
C3222 C 0.20566 0.24006 0.96826 0.0
C3223 C 0.15723 0.19641 0.03698 0.0
H3224 H 0.2131 0.17284 0.00197 0.0
H3225 H 0.24682 0.23376 0.041 0.0
H3226 H 0.16237 0.171 0.99436 0.0
H3227 H 0.17894 0.18584 0.96994 0.0
H3228 H 0.1804 0.16229 0.98121 0.0
H3229 H 0.23213 0.25766 0.04559 0.0
H3230 H 0.21966 0.25986 0.01913 0.0
H3231 H 0.20219 0.24455 0.04286 0.0
H3232 H 0.16976 0.24461 0.95931 0.0
H3233 H 0.12857 0.20686 0.0163 0.0
H3234 H 0.20745 0.22596 0.9617 0.0
H3235 H 0.22045 0.25051 0.97918 0.0
H3236 H 0.20577 0.2502 0.95333 0.0
H3237 H 0.15688 0.18056 0.03296 0.0
H3238 H 0.14127 0.19237 0.04556 0.0
H3239 H 0.17114 0.2058 0.04929 0.0
C3240 C 0.92431 0.76392 0.49126 0.0
C3241 C 0.92236 0.76935 0.51411 0.0
C3242 C 0.94497 0.76819 0.48244 0.0
C3243 C 0.96399 0.77787 0.49695 0.0
C3244 C 0.96203 0.78326 0.52009 0.0
C3245 C 0.94125 0.77918 0.52831 0.0
C3246 C 0.94653 0.76265 0.45755 0.0
C3247 C 0.98186 0.79329 0.53619 0.0
C3248 C 0.01375 0.77099 0.4828 0.0
C3249 C 0.02925 0.79236 0.47471 0.0
C3250 C 0.99227 0.7659 0.48968 0.0
C3251 C 0.98602 0.78245 0.48801 0.0
C3252 C 0.00125 0.80375 0.47891 0.0
C3253 C 0.02278 0.80853 0.47257 0.0
C3254 C 0.97659 0.7431 0.4996 0.0
C3255 C 0.995 0.82168 0.47644 0.0
H3256 H 0.90978 0.75684 0.48011 0.0
H3257 H 0.93968 0.78343 0.54596 0.0
H3258 H 0.95862 0.778 0.4482 0.0
H3259 H 0.95285 0.75076 0.45653 0.0
H3260 H 0.93016 0.7552 0.44856 0.0
H3261 H 0.97736 0.79593 0.55386 0.0
H3262 H 0.98912 0.78219 0.53734 0.0
H3263 H 0.99503 0.80957 0.52933 0.0
H3264 H 0.01867 0.75844 0.48463 0.0
H3265 H 0.03463 0.82502 0.46617 0.0
H3266 H 0.96047 0.7352 0.49017 0.0
H3267 H 0.97293 0.7448 0.5179 0.0
H3268 H 0.98365 0.73179 0.4988 0.0
H3269 H 0.97907 0.81512 0.46682 0.0
H3270 H 0.00807 0.83668 0.46733 0.0
H3271 H 0.99238 0.82682 0.49376 0.0
C3272 C 0.22002 0.15711 0.53086 0.0
C3273 C 0.22838 0.14669 0.51656 0.0
C3274 C 0.21455 0.1726 0.52183 0.0
C3275 C 0.2171 0.17734 0.49787 0.0
C3276 C 0.225 0.16638 0.48327 0.0
C3277 C 0.23061 0.15121 0.49283 0.0
C3278 C 0.20637 0.18412 0.53797 0.0
C3279 C 0.22754 0.1707 0.4576 0.0
C3280 C 0.18468 0.20372 0.47374 0.0
C3281 C 0.20118 0.22636 0.47295 0.0
C3282 C 0.18978 0.18745 0.48113 0.0
C3283 C 0.21181 0.19405 0.4882 0.0
C3284 C 0.22867 0.21677 0.48685 0.0
C3285 C 0.22318 0.23264 0.47907 0.0
C3286 C 0.17146 0.1633 0.48195 0.0
C3287 C 0.25232 0.22445 0.49441 0.0
H3288 H 0.2182 0.15348 0.54919 0.0
H3289 H 0.23647 0.14263 0.48167 0.0
H3290 H 0.21777 0.20245 0.53721 0.0
H3291 H 0.18961 0.1808 0.5325 0.0
H3292 H 0.20533 0.17854 0.55614 0.0
H3293 H 0.23342 0.16041 0.44858 0.0
H3294 H 0.21133 0.16706 0.45001 0.0
H3295 H 0.23962 0.18857 0.45425 0.0
H3296 H 0.16767 0.19872 0.46891 0.0
H3297 H 0.23602 0.2501 0.47862 0.0
H3298 H 0.16824 0.15745 0.50011 0.0
H3299 H 0.17669 0.15269 0.47254 0.0
H3300 H 0.15561 0.16074 0.47431 0.0
H3301 H 0.25253 0.22088 0.51306 0.0
H3302 H 0.26364 0.24261 0.49151 0.0
H3303 H 0.25902 0.21513 0.48494 0.0
C3304 C 0.75643 0.98453 0.47697 0.0
C3305 C 0.76133 0.96766 0.47164 0.0
C3306 C 0.7732 0.0056 0.48441 0.0
C3307 C 0.79543 0.00997 0.48624 0.0
C3308 C 0.80069 0.99339 0.47981 0.0
C3309 C 0.78354 0.97236 0.47272 0.0
C3310 C 0.76696 0.02285 0.49126 0.0
C3311 C 0.8243 0.99762 0.48117 0.0
C3312 C 0.84101 0.07055 0.49142 0.0
C3313 C 0.84481 0.07255 0.51528 0.0
C3314 C 0.82521 0.05016 0.48162 0.0
C3315 C 0.81291 0.03145 0.49611 0.0
C3316 C 0.81697 0.03333 0.5202 0.0
C3317 C 0.83308 0.05387 0.52948 0.0
C3318 C 0.82162 0.04864 0.45582 0.0
C3319 C 0.80401 0.01377 0.53621 0.0
H3320 H 0.73931 0.98102 0.47624 0.0
H3321 H 0.78748 0.95946 0.46845 0.0
H3322 H 0.77012 0.02652 0.50997 0.0
H3323 H 0.77747 0.0387 0.48185 0.0
H3324 H 0.74913 0.01721 0.48772 0.0
H3325 H 0.8259 0.9837 0.47368 0.0
H3326 H 0.83588 0.01327 0.47195 0.0
H3327 H 0.82973 -0.0002 0.49946 0.0
H3328 H 0.85058 0.0849 0.48038 0.0
H3329 H 0.83615 0.05547 0.54792 0.0
H3330 H 0.80415 0.04411 0.45191 0.0
H3331 H 0.82424 0.03527 0.44859 0.0
H3332 H 0.83304 0.06459 0.44693 0.0
H3333 H 0.78592 0.008 0.53496 0.0
H3334 H 0.80928 0.018 0.5545 0.0
H3335 H 0.80628 -0.00041 0.53102 0.0
C3336 C 0.89432 0.31698 0.31161 0.0
C3337 C 0.87257 0.30003 0.30625 0.0
C3338 C 0.89865 0.33827 0.31823 0.0
C3339 C 0.88086 0.34281 0.31923 0.0
C3340 C 0.85904 0.32609 0.31291 0.0
C3341 C 0.85512 0.30483 0.30664 0.0
C3342 C 0.92212 0.35564 0.32503 0.0
C3343 C 0.83973 0.33046 0.31343 0.0
C3344 C 0.88686 0.38811 0.36038 0.0
C3345 C 0.89392 0.40636 0.3455 0.0
C3346 C 0.88254 0.36731 0.35202 0.0
C3347 C 0.88492 0.36466 0.32813 0.0
C3348 C 0.89155 0.38294 0.31294 0.0
C3349 C 0.89606 0.40365 0.32185 0.0
C3350 C 0.87574 0.34825 0.36879 0.0
C3351 C 0.89387 0.38062 0.28733 0.0
H3352 H 0.9079 0.31342 0.31141 0.0
H3353 H 0.83829 0.29187 0.30236 0.0
H3354 H 0.92766 0.37118 0.31495 0.0
H3355 H 0.92246 0.35997 0.34353 0.0
H3356 H 0.93426 0.34979 0.32228 0.0
H3357 H 0.82419 0.31631 0.30623 0.0
H3358 H 0.83643 0.33336 0.33147 0.0
H3359 H 0.84391 0.34577 0.30346 0.0
H3360 H 0.88514 0.39025 0.37866 0.0
H3361 H 0.90095 0.41765 0.31026 0.0
H3362 H 0.88798 0.34234 0.36818 0.0
H3363 H 0.85926 0.33398 0.36382 0.0
H3364 H 0.87466 0.3531 0.38682 0.0
H3365 H 0.90669 0.37577 0.2841 0.0
H3366 H 0.89866 0.39633 0.2778 0.0
H3367 H 0.87787 0.36715 0.2802 0.0
C3368 C 0.59374 0.48081 0.32348 0.0
C3369 C 0.58436 0.48456 0.34317 0.0
C3370 C 0.61472 0.4972 0.31538 0.0
C3371 C 0.62676 0.51747 0.32773 0.0
C3372 C 0.61725 0.52131 0.34765 0.0
C3373 C 0.596 0.50482 0.35503 0.0
C3374 C 0.62411 0.49271 0.29382 0.0
C3375 C 0.62981 0.54252 0.36155 0.0
C3376 C 0.68981 0.54878 0.32238 0.0
C3377 C 0.69359 0.56678 0.30822 0.0
C3378 C 0.66811 0.5326 0.32882 0.0
C3379 C 0.64974 0.53422 0.32048 0.0
C3380 C 0.65338 0.55197 0.30561 0.0
C3381 C 0.67532 0.56821 0.29985 0.0
C3382 C 0.6649 0.51411 0.34503 0.0
C3383 C 0.63413 0.5539 0.29598 0.0
H3384 H 0.58456 0.46507 0.31435 0.0
H3385 H 0.58878 0.50743 0.37049 0.0
H3386 H 0.62907 0.50653 0.28128 0.0
H3387 H 0.63934 0.49195 0.29815 0.0
H3388 H 0.61196 0.47677 0.28538 0.0
H3389 H 0.61985 0.5431 0.3763 0.0
H3390 H 0.64547 0.54393 0.36834 0.0
H3391 H 0.6346 0.55727 0.35039 0.0
H3392 H 0.70387 0.54768 0.32906 0.0
H3393 H 0.67817 0.58204 0.28879 0.0
H3394 H 0.65413 0.49762 0.33685 0.0
H3395 H 0.6563 0.51472 0.36095 0.0
H3396 H 0.68097 0.51527 0.34998 0.0
H3397 H 0.62227 0.53824 0.28695 0.0
H3398 H 0.63975 0.56807 0.28373 0.0
H3399 H 0.62484 0.55629 0.31026 0.0
C3400 C 0.43622 0.11811 0.29627 0.0
C3401 C 0.43571 0.13698 0.30431 0.0
C3402 C 0.45332 0.11399 0.30295 0.0
C3403 C 0.47 0.12884 0.31841 0.0
C3404 C 0.46991 0.14823 0.32609 0.0
C3405 C 0.45287 0.15219 0.31874 0.0
C3406 C 0.45318 0.09342 0.29398 0.0
C3407 C 0.48724 0.16428 0.34284 0.0
C3408 C 0.49834 0.10515 0.35569 0.0
C3409 C 0.51905 0.11375 0.34476 0.0
C3410 C 0.48223 0.11005 0.34733 0.0
C3411 C 0.48694 0.12356 0.32739 0.0
C3412 C 0.50783 0.1321 0.3162 0.0
C3413 C 0.52379 0.12731 0.32524 0.0
C3414 C 0.4603 0.10101 0.35999 0.0
C3415 C 0.51328 0.14618 0.29467 0.0
H3416 H 0.42307 0.10639 0.28498 0.0
H3417 H 0.45246 0.16671 0.32513 0.0
H3418 H 0.46967 0.098 0.28643 0.0
H3419 H 0.45016 0.08172 0.30844 0.0
H3420 H 0.4401 0.08455 0.28067 0.0
H3421 H 0.48533 0.17902 0.34644 0.0
H3422 H 0.48588 0.15558 0.35938 0.0
H3423 H 0.50427 0.17021 0.33597 0.0
H3424 H 0.49496 0.09504 0.37107 0.0
H3425 H 0.5399 0.13391 0.31686 0.0
H3426 H 0.44627 0.09031 0.3483 0.0
H3427 H 0.45788 0.115 0.36559 0.0
H3428 H 0.45941 0.09104 0.37541 0.0
H3429 H 0.50064 0.13689 0.28112 0.0
H3430 H 0.53007 0.15102 0.28772 0.0
H3431 H 0.51264 0.16158 0.2984 0.0
C3432 C 0.63457 0.51887 0.85285 0.0
C3433 C 0.63047 0.53679 0.8531 0.0
C3434 C 0.65556 0.52205 0.84641 0.0
C3435 C 0.67269 0.54358 0.83973 0.0
C3436 C 0.66873 0.56176 0.84024 0.0
C3437 C 0.64775 0.55819 0.84708 0.0
C3438 C 0.65932 0.50234 0.84646 0.0
C3439 C 0.68649 0.58493 0.83298 0.0
C3440 C 0.73362 0.55893 0.83878 0.0
C3441 C 0.73694 0.55691 0.81525 0.0
C3442 C 0.7126 0.55401 0.84713 0.0
C3443 C 0.69459 0.54711 0.83151 0.0
C3444 C 0.69779 0.54462 0.80778 0.0
C3445 C 0.71892 0.54933 0.79998 0.0
C3446 C 0.70972 0.55645 0.87261 0.0
C3447 C 0.67907 0.53756 0.79054 0.0
H3448 H 0.62135 0.50231 0.85759 0.0
H3449 H 0.64473 0.57213 0.8471 0.0
H3450 H 0.66266 0.49893 0.82863 0.0
H3451 H 0.67421 0.50618 0.857 0.0
H3452 H 0.64473 0.48699 0.85337 0.0
H3453 H 0.68084 0.59733 0.83467 0.0
H3454 H 0.70172 0.59057 0.8436 0.0
H3455 H 0.69125 0.58466 0.81474 0.0
H3456 H 0.74744 0.5642 0.8507 0.0
H3457 H 0.72151 0.54767 0.78179 0.0
H3458 H 0.6957 0.54071 0.87955 0.0
H3459 H 0.70545 0.56975 0.87537 0.0
H3460 H 0.72505 0.56073 0.88263 0.0
H3461 H 0.66452 0.52138 0.79575 0.0
H3462 H 0.68416 0.53584 0.77281 0.0
H3463 H 0.67347 0.55006 0.79019 0.0
C3464 C 0.43084 0.1621 0.81107 0.0
C3465 C 0.43932 0.18231 0.82297 0.0
C3466 C 0.4348 0.14525 0.81908 0.0
C3467 C 0.44716 0.14868 0.83967 0.0
C3468 C 0.45528 0.16894 0.85202 0.0
C3469 C 0.45152 0.18569 0.84331 0.0
C3470 C 0.42631 0.12406 0.80517 0.0
C3471 C 0.46812 0.17301 0.87427 0.0
C3472 C 0.44215 0.09694 0.86819 0.0
C3473 C 0.46186 0.09778 0.8608 0.0
C3474 C 0.4374 0.11375 0.86199 0.0
C3475 C 0.4525 0.13149 0.84766 0.0
C3476 C 0.47255 0.13257 0.84039 0.0
C3477 C 0.4771 0.11582 0.84726 0.0
C3478 C 0.41611 0.11237 0.87049 0.0
C3479 C 0.4889 0.15104 0.82478 0.0
H3480 H 0.42171 0.15976 0.79514 0.0
H3481 H 0.45796 0.20139 0.85247 0.0
H3482 H 0.4406 0.12223 0.79934 0.0
H3483 H 0.41551 0.10934 0.81604 0.0
H3484 H 0.41664 0.12387 0.78978 0.0
H3485 H 0.47197 0.18905 0.88253 0.0
H3486 H 0.45842 0.15921 0.88661 0.0
H3487 H 0.48405 0.1733 0.8709 0.0
H3488 H 0.43038 0.08309 0.87877 0.0
H3489 H 0.49229 0.1165 0.84134 0.0
H3490 H 0.4051 0.11026 0.85563 0.0
H3491 H 0.41992 0.12814 0.8793 0.0
H3492 H 0.40681 0.09825 0.88263 0.0
H3493 H 0.48058 0.15077 0.80831 0.0
H3494 H 0.5038 0.14953 0.82083 0.0
H3495 H 0.49455 0.16753 0.83293 0.0
C3496 C 0.83591 0.26511 0.80853 0.0
C3497 C 0.81561 0.25345 0.82031 0.0
C3498 C 0.85236 0.2864 0.81591 0.0
C3499 C 0.84845 0.29592 0.83578 0.0
C3500 C 0.82809 0.28388 0.848 0.0
C3501 C 0.81175 0.26288 0.83989 0.0
C3502 C 0.87365 0.29894 0.80213 0.0
C3503 C 0.82351 0.29325 0.86952 0.0
C3504 C 0.89922 0.34381 0.86444 0.0
C3505 C 0.8981 0.36234 0.85637 0.0
C3506 C 0.88288 0.32202 0.85831 0.0
C3507 C 0.86534 0.31878 0.84331 0.0
C3508 C 0.86407 0.33742 0.83521 0.0
C3509 C 0.88032 0.35897 0.84207 0.0
C3510 C 0.88445 0.3025 0.86773 0.0
C3511 C 0.84585 0.33466 0.81885 0.0
H3512 H 0.83863 0.25783 0.79317 0.0
H3513 H 0.79597 0.2537 0.84895 0.0
H3514 H 0.87532 0.31479 0.79559 0.0
H3515 H 0.8883 0.30339 0.81331 0.0
H3516 H 0.87416 0.2891 0.78723 0.0
H3517 H 0.80739 0.2812 0.87774 0.0
H3518 H 0.83713 0.2979 0.88224 0.0
H3519 H 0.82309 0.30867 0.86524 0.0
H3520 H 0.91288 0.34635 0.87559 0.0
H3521 H 0.87949 0.37325 0.83561 0.0
H3522 H 0.88681 0.29328 0.85336 0.0
H3523 H 0.86866 0.29067 0.87659 0.0
H3524 H 0.89849 0.30781 0.88009 0.0
H3525 H 0.84652 0.32618 0.80286 0.0
H3526 H 0.8473 0.35089 0.81406 0.0
H3527 H 0.82924 0.32394 0.82679 0.0
C3528 C 0.43878 0.2777 0.30176 0.0
C3529 C 0.43101 0.25901 0.31614 0.0
C3530 C 0.44273 0.29827 0.3105 0.0
C3531 C 0.43921 0.30021 0.33427 0.0
C3532 C 0.43152 0.2814 0.3489 0.0
C3533 C 0.42748 0.26097 0.33963 0.0
C3534 C 0.45074 0.31792 0.29431 0.0
C3535 C 0.42795 0.28295 0.37439 0.0
C3536 C 0.47095 0.35913 0.35794 0.0
C3537 C 0.45448 0.36531 0.35783 0.0
C3538 C 0.46599 0.33767 0.35116 0.0
C3539 C 0.44409 0.32213 0.34379 0.0
C3540 C 0.4272 0.32799 0.34435 0.0
C3541 C 0.43257 0.34949 0.35152 0.0
C3542 C 0.48435 0.33189 0.35116 0.0
C3543 C 0.4037 0.31189 0.33645 0.0
H3544 H 0.44157 0.27615 0.28361 0.0
H3545 H 0.42207 0.24667 0.35089 0.0
H3546 H 0.43918 0.32468 0.29494 0.0
H3547 H 0.46741 0.33149 0.29984 0.0
H3548 H 0.45195 0.31342 0.27617 0.0
H3549 H 0.42141 0.26662 0.38329 0.0
H3550 H 0.44395 0.29519 0.38262 0.0
H3551 H 0.41604 0.28907 0.37709 0.0
H3552 H 0.48788 0.37121 0.36297 0.0
H3553 H 0.41976 0.35416 0.35131 0.0
H3554 H 0.48804 0.32924 0.33318 0.0
H3555 H 0.47892 0.31608 0.3607 0.0
H3556 H 0.49999 0.34521 0.35911 0.0
H3557 H 0.40381 0.3083 0.3178 0.0
H3558 H 0.39223 0.31855 0.3392 0.0
H3559 H 0.39701 0.29579 0.34579 0.0
C3560 C 0.73567 0.18589 0.33572 0.0
C3561 C 0.74468 0.18045 0.3169 0.0
C3562 C 0.71481 0.17026 0.34481 0.0
C3563 C 0.70255 0.14898 0.33432 0.0
C3564 C 0.71169 0.14348 0.31522 0.0
C3565 C 0.73285 0.15927 0.30689 0.0
C3566 C 0.70584 0.17654 0.36549 0.0
C3567 C 0.6989 0.12116 0.30325 0.0
C3568 C 0.65477 0.10067 0.36614 0.0
C3569 C 0.63627 0.10141 0.35734 0.0
C3570 C 0.67654 0.1164 0.35923 0.0
C3571 C 0.67975 0.13282 0.34268 0.0
C3572 C 0.66112 0.13365 0.33378 0.0
C3573 C 0.63963 0.11811 0.34145 0.0
C3574 C 0.69607 0.11539 0.36951 0.0
C3575 C 0.66384 0.1506 0.31574 0.0
H3576 H 0.74505 0.20235 0.34342 0.0
H3577 H 0.73996 0.15528 0.29222 0.0
H3578 H 0.69042 0.17675 0.36066 0.0
H3579 H 0.70129 0.16391 0.37935 0.0
H3580 H 0.71808 0.19321 0.3725 0.0
H3581 H 0.70847 0.11947 0.28876 0.0
H3582 H 0.69463 0.10744 0.31573 0.0
H3583 H 0.68295 0.11899 0.29639 0.0
H3584 H 0.65222 0.08785 0.37851 0.0
H3585 H 0.62536 0.11861 0.33441 0.0
H3586 H 0.70808 0.13177 0.37722 0.0
H3587 H 0.70508 0.11189 0.35578 0.0
H3588 H 0.6908 0.1023 0.38302 0.0
H3589 H 0.67469 0.16776 0.32242 0.0
H3590 H 0.64761 0.14887 0.31045 0.0
H3591 H 0.67214 0.14869 0.30022 0.0
C3592 C 0.8327 0.5655 0.31346 0.0
C3593 C 0.81187 0.55626 0.32424 0.0
C3594 C 0.84879 0.56032 0.32116 0.0
C3595 C 0.84397 0.54594 0.34038 0.0
C3596 C 0.82303 0.53692 0.35158 0.0
C3597 C 0.80704 0.54195 0.34311 0.0
C3598 C 0.87075 0.56986 0.30846 0.0
C3599 C 0.8175 0.52195 0.37242 0.0
C3600 C 0.87738 0.51628 0.3455 0.0
C3601 C 0.89482 0.53073 0.36011 0.0
C3602 C 0.86046 0.52081 0.33926 0.0
C3603 C 0.86072 0.53996 0.34832 0.0
C3604 C 0.87768 0.55399 0.364 0.0
C3605 C 0.89471 0.54937 0.36948 0.0
C3606 C 0.84288 0.50568 0.32217 0.0
C3607 C 0.87816 0.57422 0.37447 0.0
H3608 H 0.83616 0.57633 0.29864 0.0
H3609 H 0.79084 0.53488 0.35136 0.0
H3610 H 0.88478 0.57989 0.32042 0.0
H3611 H 0.87305 0.5561 0.30181 0.0
H3612 H 0.87177 0.58062 0.29373 0.0
H3613 H 0.80088 0.51721 0.37979 0.0
H3614 H 0.81766 0.5065 0.36766 0.0
H3615 H 0.83036 0.53047 0.38598 0.0
H3616 H 0.87749 0.50195 0.33808 0.0
H3617 H 0.90809 0.56048 0.38093 0.0
H3618 H 0.8442 0.51518 0.30624 0.0
H3619 H 0.82595 0.49958 0.32938 0.0
H3620 H 0.84456 0.49103 0.3174 0.0
H3621 H 0.88138 0.58671 0.3608 0.0
H3622 H 0.89126 0.58222 0.38793 0.0
H3623 H 0.86172 0.56949 0.38227 0.0
C3624 C 0.59866 0.09161 0.85816 0.0
C3625 C 0.58802 0.10185 0.84741 0.0
C3626 C 0.61961 0.09572 0.8505 0.0
C3627 C 0.62978 0.11006 0.83138 0.0
C3628 C 0.61874 0.12 0.82014 0.0
C3629 C 0.59806 0.11602 0.82856 0.0
C3630 C 0.63112 0.08526 0.86324 0.0
C3631 C 0.62886 0.135 0.79943 0.0
C3632 C 0.69276 0.13934 0.82627 0.0
C3633 C 0.69568 0.12534 0.81092 0.0
C3634 C 0.67138 0.1345 0.8331 0.0
C3635 C 0.65246 0.11552 0.82387 0.0
C3636 C 0.65527 0.10165 0.80787 0.0
C3637 C 0.67691 0.10656 0.80181 0.0
C3638 C 0.66905 0.1494 0.85061 0.0
C3639 C 0.63544 0.08161 0.79724 0.0
H3640 H 0.59083 0.08086 0.87294 0.0
H3641 H 0.58962 0.12383 0.82031 0.0
H3642 H 0.63512 0.0753 0.85118 0.0
H3643 H 0.64716 0.09854 0.87051 0.0
H3644 H 0.62076 0.07424 0.87755 0.0
H3645 H 0.61741 0.14014 0.79174 0.0
H3646 H 0.64456 0.15023 0.80449 0.0
H3647 H 0.63321 0.12634 0.78603 0.0
H3648 H 0.70725 0.15376 0.83352 0.0
H3649 H 0.67915 0.0958 0.78982 0.0
H3650 H 0.65993 0.13948 0.86601 0.0
H3651 H 0.65912 0.15648 0.84324 0.0
H3652 H 0.68547 0.16339 0.85626 0.0
H3653 H 0.62555 0.06937 0.81089 0.0
H3654 H 0.64048 0.07318 0.78422 0.0
H3655 H 0.62431 0.08677 0.78883 0.0
C3656 C 0.88713 0.57093 0.81588 0.0
C3657 C 0.86584 0.5655 0.80794 0.0
C3658 C 0.8917 0.55429 0.8231 0.0
C3659 C 0.87468 0.53163 0.82194 0.0
C3660 C 0.85336 0.52595 0.8132 0.0
C3661 C 0.84911 0.543 0.80653 0.0
C3662 C 0.91454 0.56102 0.83266 0.0
C3663 C 0.83496 0.50192 0.81126 0.0
C3664 C 0.89372 0.48888 0.82463 0.0
C3665 C 0.88938 0.48211 0.84774 0.0
C3666 C 0.88854 0.50464 0.81582 0.0
C3667 C 0.87908 0.51398 0.8306 0.0
C3668 C 0.8745 0.50703 0.85394 0.0
C3669 C 0.87946 0.49092 0.86215 0.0
C3670 C 0.89322 0.5113 0.79073 0.0
C3671 C 0.86477 0.51691 0.87032 0.0
H3672 H 0.9001 0.5883 0.81719 0.0
H3673 H 0.83266 0.5387 0.8003 0.0
H3674 H 0.91299 0.5554 0.85085 0.0
H3675 H 0.92215 0.55278 0.82279 0.0
H3676 H 0.92603 0.57937 0.83206 0.0
H3677 H 0.81982 0.50025 0.80271 0.0
H3678 H 0.84089 0.49217 0.8013 0.0
H3679 H 0.83026 0.49434 0.82869 0.0
H3680 H 0.90086 0.48159 0.81335 0.0
H3681 H 0.87603 0.48555 0.88001 0.0
H3682 H 0.90564 0.52935 0.78935 0.0
H3683 H 0.87775 0.50858 0.78208 0.0
H3684 H 0.89973 0.50174 0.78132 0.0
H3685 H 0.87611 0.53522 0.87161 0.0
H3686 H 0.86212 0.5096 0.88791 0.0
H3687 H 0.84855 0.51414 0.86364 0.0
C3688 C 0.44981 0.31166 0.79774 0.0
C3689 C 0.42835 0.30169 0.80727 0.0
C3690 C 0.46608 0.33345 0.80396 0.0
C3691 C 0.46097 0.34501 0.82087 0.0
C3692 C 0.43929 0.33488 0.83061 0.0
C3693 C 0.42309 0.31348 0.82331 0.0
C3694 C 0.48873 0.34407 0.79254 0.0
C3695 C 0.4334 0.3463 0.84929 0.0
C3696 C 0.50866 0.39106 0.85495 0.0
C3697 C 0.50968 0.41032 0.8457 0.0
C3698 C 0.49298 0.36971 0.84696 0.0
C3699 C 0.47835 0.36754 0.82878 0.0
C3700 C 0.47958 0.38685 0.81899 0.0
C3701 C 0.49472 0.40791 0.82804 0.0
C3702 C 0.49161 0.34946 0.85846 0.0
C3703 C 0.46459 0.38527 0.79926 0.0
H3704 H 0.45379 0.30245 0.78529 0.0
H3705 H 0.40654 0.30555 0.8309 0.0
H3706 H 0.49287 0.36051 0.78513 0.0
H3707 H 0.50174 0.34715 0.80552 0.0
H3708 H 0.4895 0.33346 0.77858 0.0
H3709 H 0.41593 0.33589 0.85543 0.0
H3710 H 0.44482 0.35016 0.86421 0.0
H3711 H 0.43562 0.36238 0.84285 0.0
H3712 H 0.51988 0.39264 0.86881 0.0
H3713 H 0.49417 0.42227 0.82161 0.0
H3714 H 0.49427 0.33916 0.84558 0.0
H3715 H 0.47469 0.33889 0.86587 0.0
H3716 H 0.50411 0.35401 0.87248 0.0
H3717 H 0.46492 0.37432 0.78545 0.0
H3718 H 0.46957 0.40188 0.7917 0.0
H3719 H 0.4471 0.3777 0.80539 0.0
C3720 C 0.51498 0.64601 0.63168 0.0
C3721 C 0.5276 0.63732 0.6413 0.0
C3722 C 0.51881 0.66722 0.6382 0.0
C3723 C 0.53495 0.67941 0.65539 0.0
C3724 C 0.54727 0.67031 0.66556 0.0
C3725 C 0.54374 0.64956 0.65804 0.0
C3726 C 0.50598 0.67678 0.62642 0.0
C3727 C 0.56411 0.68242 0.68448 0.0
C3728 C 0.56451 0.74217 0.66193 0.0
C3729 C 0.55266 0.74485 0.68015 0.0
C3730 C 0.55782 0.72108 0.65256 0.0
C3731 C 0.53962 0.70197 0.66249 0.0
C3732 C 0.5275 0.70443 0.68083 0.0
C3733 C 0.53401 0.72587 0.68924 0.0
C3734 C 0.57096 0.7192 0.63271 0.0
C3735 C 0.50847 0.68438 0.69242 0.0
H3736 H 0.50251 0.63645 0.6187 0.0
H3737 H 0.55323 0.6426 0.66571 0.0
H3738 H 0.49654 0.68062 0.63934 0.0
H3739 H 0.5178 0.69272 0.61779 0.0
H3740 H 0.49407 0.6652 0.61334 0.0
H3741 H 0.5711 0.6723 0.69166 0.0
H3742 H 0.57809 0.69827 0.67772 0.0
H3743 H 0.55624 0.68676 0.69873 0.0
H3744 H 0.57964 0.75628 0.6555 0.0
H3745 H 0.52487 0.72769 0.70347 0.0
H3746 H 0.55952 0.70776 0.61927 0.0
H3747 H 0.58126 0.71211 0.63897 0.0
H3748 H 0.58223 0.73566 0.62465 0.0
H3749 H 0.49614 0.67325 0.67943 0.0
H3750 H 0.49975 0.68919 0.70533 0.0
H3751 H 0.51498 0.67459 0.70128 0.0
C3752 C 0.35966 0.88352 0.65359 0.0
C3753 C 0.36205 0.90136 0.63999 0.0
C3754 C 0.33849 0.8665 0.66054 0.0
C3755 C 0.31925 0.86709 0.65325 0.0
C3756 C 0.32151 0.88457 0.63874 0.0
C3757 C 0.34293 0.90167 0.63251 0.0
C3758 C 0.33678 0.84834 0.67635 0.0
C3759 C 0.30134 0.88542 0.63016 0.0
C3760 C 0.26418 0.8127 0.65801 0.0
C3761 C 0.25519 0.81627 0.67812 0.0
C3762 C 0.28477 0.82936 0.64931 0.0
C3763 C 0.29683 0.84976 0.66146 0.0
C3764 C 0.28778 0.85336 0.68188 0.0
C3765 C 0.26689 0.83659 0.68985 0.0
C3766 C 0.29364 0.82511 0.62723 0.0
C3767 C 0.30038 0.87469 0.69558 0.0
H3768 H 0.37439 0.8833 0.65959 0.0
H3769 H 0.34471 0.91537 0.62188 0.0
H3770 H 0.3289 0.84876 0.69289 0.0
H3771 H 0.32596 0.8317 0.66849 0.0
H3772 H 0.35333 0.85011 0.68015 0.0
H3773 H 0.30588 0.89926 0.61771 0.0
H3774 H 0.28947 0.86942 0.62167 0.0
H3775 H 0.29246 0.88767 0.64494 0.0
H3776 H 0.25498 0.79691 0.64898 0.0
H3777 H 0.25998 0.83908 0.70562 0.0
H3778 H 0.30946 0.82521 0.63071 0.0
H3779 H 0.29746 0.83864 0.61462 0.0
H3780 H 0.28163 0.80886 0.61924 0.0
H3781 H 0.31666 0.87683 0.70127 0.0
H3782 H 0.29097 0.87487 0.71104 0.0
H3783 H 0.30399 0.88925 0.6846 0.0
C3784 C 0.08871 0.44317 0.65757 0.0
C3785 C 0.09284 0.45883 0.6402 0.0
C3786 C 0.10531 0.43843 0.66446 0.0
C3787 C 0.12619 0.44894 0.65299 0.0
C3788 C 0.13016 0.46422 0.63484 0.0
C3789 C 0.11355 0.46939 0.629 0.0
C3790 C 0.10071 0.42267 0.68445 0.0
C3791 C 0.15189 0.47505 0.62164 0.0
C3792 C 0.17549 0.45222 0.68521 0.0
C3793 C 0.17546 0.43302 0.67728 0.0
C3794 C 0.15976 0.4578 0.67719 0.0
C3795 C 0.14395 0.44416 0.66039 0.0
C3796 C 0.14417 0.42513 0.65183 0.0
C3797 C 0.15949 0.41944 0.66085 0.0
C3798 C 0.15955 0.47781 0.68735 0.0
C3799 C 0.12783 0.41039 0.63359 0.0
H3800 H 0.07273 0.43528 0.6664 0.0
H3801 H 0.11661 0.48147 0.61552 0.0
H3802 H 0.10215 0.40814 0.67877 0.0
H3803 H 0.11331 0.43127 0.69823 0.0
H3804 H 0.08382 0.41643 0.69193 0.0
H3805 H 0.15177 0.48545 0.60707 0.0
H3806 H 0.16588 0.48577 0.63335 0.0
H3807 H 0.15524 0.46205 0.61471 0.0
H3808 H 0.18756 0.46269 0.6981 0.0
H3809 H 0.15831 0.40393 0.65548 0.0
H3810 H 0.14334 0.47234 0.69608 0.0
H3811 H 0.16123 0.4896 0.67349 0.0
H3812 H 0.1732 0.48687 0.70007 0.0
H3813 H 0.11078 0.40117 0.64101 0.0
H3814 H 0.13212 0.39804 0.6266 0.0
H3815 H 0.12738 0.42067 0.61911 0.0
C3816 C 0.30663 0.85534 0.19394 0.0
C3817 C 0.30039 0.8717 0.19209 0.0
C3818 C 0.32818 0.86005 0.1878 0.0
C3819 C 0.34364 0.88147 0.17914 0.0
C3820 C 0.33756 0.89816 0.17762 0.0
C3821 C 0.31607 0.89314 0.18434 0.0
C3822 C 0.33426 0.84199 0.19013 0.0
C3823 C 0.35349 0.92108 0.16812 0.0
C3824 C 0.40547 0.90051 0.17738 0.0
C3825 C 0.40806 0.89568 0.15449 0.0
C3826 C 0.38451 0.89571 0.18577 0.0
C3827 C 0.36586 0.88617 0.17076 0.0
C3828 C 0.36845 0.8813 0.1476 0.0
C3829 C 0.38952 0.88585 0.13983 0.0
C3830 C 0.38228 0.90067 0.2107 0.0
C3831 C 0.34902 0.87148 0.13099 0.0
H3832 H 0.29461 0.83879 0.20006 0.0
H3833 H 0.31129 0.90581 0.18272 0.0
H3834 H 0.33734 0.83725 0.17281 0.0
H3835 H 0.34991 0.84826 0.20021 0.0
H3836 H 0.3209 0.8268 0.19872 0.0
H3837 H 0.34638 0.93236 0.16866 0.0
H3838 H 0.36931 0.92889 0.17805 0.0
H3839 H 0.35769 0.91962 0.14996 0.0
H3840 H 0.41976 0.90761 0.18885 0.0
H3841 H 0.3916 0.88209 0.12214 0.0
H3842 H 0.36976 0.88516 0.21951 0.0
H3843 H 0.37618 0.91274 0.21171 0.0
H3844 H 0.39835 0.90768 0.2202 0.0
H3845 H 0.33566 0.85512 0.13749 0.0
H3846 H 0.35395 0.86905 0.11345 0.0
H3847 H 0.34181 0.88261 0.12966 0.0
C3848 C 0.1191 0.51701 0.17211 0.0
C3849 C 0.10389 0.51175 0.15401 0.0
C3850 C 0.12371 0.50089 0.18106 0.0
C3851 C 0.11334 0.4793 0.17109 0.0
C3852 C 0.09801 0.47402 0.15268 0.0
C3853 C 0.09327 0.4903 0.14451 0.0
C3854 C 0.1397 0.50696 0.20107 0.0
C3855 C 0.08701 0.45136 0.14126 0.0
C3856 C 0.1415 0.44448 0.17703 0.0
C3857 C 0.12754 0.42825 0.193 0.0
C3858 C 0.13721 0.46136 0.16992 0.0
C3859 C 0.11889 0.46236 0.17951 0.0
C3860 C 0.10536 0.44661 0.19644 0.0
C3861 C 0.10966 0.42952 0.20274 0.0
C3862 C 0.15171 0.47756 0.15146 0.0
C3863 C 0.08608 0.44753 0.20753 0.0
H3864 H 0.12723 0.5337 0.17937 0.0
H3865 H 0.08171 0.48648 0.13029 0.0
H3866 H 0.1316 0.49491 0.21541 0.0
H3867 H 0.15455 0.50592 0.19572 0.0
H3868 H 0.14539 0.52408 0.20762 0.0
H3869 H 0.07564 0.45002 0.12703 0.0
H3870 H 0.09996 0.44801 0.13418 0.0
H3871 H 0.07728 0.43815 0.15415 0.0
H3872 H 0.15521 0.4434 0.1693 0.0
H3873 H 0.09892 0.41704 0.2152 0.0
H3874 H 0.15892 0.49498 0.15768 0.0
H3875 H 0.14142 0.47579 0.13605 0.0
H3876 H 0.16558 0.47482 0.14612 0.0
H3877 H 0.09179 0.46448 0.21451 0.0
H3878 H 0.07837 0.4352 0.22175 0.0
H3879 H 0.07307 0.44411 0.19441 0.0
C3880 C 0.56964 0.68085 0.18134 0.0
C3881 C 0.56441 0.6967 0.18975 0.0
C3882 C 0.5528 0.65967 0.17428 0.0
C3883 C 0.53019 0.65409 0.1761 0.0
C3884 C 0.52475 0.66969 0.18543 0.0
C3885 C 0.54196 0.69092 0.19195 0.0
C3886 C 0.55923 0.64355 0.16412 0.0
C3887 C 0.50078 0.66412 0.18807 0.0
C3888 C 0.48826 0.60955 0.13596 0.0
C3889 C 0.47936 0.59065 0.15013 0.0
C3890 C 0.5049 0.63034 0.14421 0.0
C3891 C 0.5123 0.63226 0.16733 0.0
C3892 C 0.50291 0.61327 0.18187 0.0
C3893 C 0.48661 0.59261 0.17302 0.0
C3894 C 0.51479 0.65016 0.12809 0.0
C3895 C 0.51004 0.61481 0.20675 0.0
H3896 H 0.58697 0.68526 0.17946 0.0
H3897 H 0.53782 0.70306 0.19859 0.0
H3898 H 0.55091 0.62752 0.17369 0.0
H3899 H 0.55347 0.63984 0.14594 0.0
H3900 H 0.57755 0.65024 0.16451 0.0
H3901 H 0.49935 0.67748 0.19717 0.0
H3902 H 0.49293 0.66162 0.17081 0.0
H3903 H 0.49112 0.64827 0.19778 0.0
H3904 H 0.48253 0.60793 0.11827 0.0
H3905 H 0.47927 0.57804 0.18411 0.0
H3906 H 0.53306 0.65699 0.12651 0.0
H3907 H 0.51227 0.66363 0.13521 0.0
H3908 H 0.50726 0.6458 0.11058 0.0
H3909 H 0.5281 0.62035 0.20766 0.0
H3910 H 0.50059 0.59859 0.21594 0.0
H3911 H 0.50756 0.62746 0.21598 0.0
C3912 C 0.14263 0.68909 0.69227 0.0
C3913 C 0.12649 0.69562 0.6906 0.0
C3914 C 0.13782 0.6677 0.68535 0.0
C3915 C 0.11652 0.65271 0.67612 0.0
C3916 C 0.10004 0.65909 0.67473 0.0
C3917 C 0.10516 0.68041 0.68221 0.0
C3918 C 0.15565 0.66128 0.68756 0.0
C3919 C 0.07726 0.64367 0.66464 0.0
C3920 C 0.1125 0.60766 0.63576 0.0
C3921 C 0.10239 0.5888 0.64998 0.0
C3922 C 0.11698 0.62857 0.644 0.0
C3923 C 0.11171 0.63064 0.66717 0.0
C3924 C 0.10184 0.61165 0.6817 0.0
C3925 C 0.09717 0.59088 0.67286 0.0
C3926 C 0.12719 0.64839 0.62789 0.0
C3927 C 0.09645 0.61332 0.70663 0.0
H3928 H 0.1591 0.70075 0.69888 0.0
H3929 H 0.09266 0.68543 0.68073 0.0
H3930 H 0.14908 0.64538 0.69726 0.0
H3931 H 0.16053 0.65849 0.67017 0.0
H3932 H 0.17082 0.67431 0.69648 0.0
H3933 H 0.06616 0.65098 0.66526 0.0
H3934 H 0.07901 0.63991 0.64639 0.0
H3935 H 0.06908 0.62757 0.67411 0.0
H3936 H 0.11657 0.60597 0.61808 0.0
H3937 H 0.08987 0.57635 0.68401 0.0
H3938 H 0.14351 0.66148 0.63477 0.0
H3939 H 0.11623 0.6558 0.6267 0.0
H3940 H 0.12981 0.64383 0.61024 0.0
H3941 H 0.11185 0.62544 0.71588 0.0
H3942 H 0.08903 0.59699 0.71568 0.0
H3943 H 0.08458 0.61966 0.70767 0.0
C3944 C 0.31452 0.42623 0.68169 0.0
C3945 C 0.29681 0.42998 0.68674 0.0
C3946 C 0.33526 0.44367 0.67435 0.0
C3947 C 0.33852 0.46549 0.67234 0.0
C3948 C 0.321 0.46958 0.67814 0.0
C3949 C 0.30027 0.45173 0.68511 0.0
C3950 C 0.35348 0.4386 0.66811 0.0
C3951 C 0.32404 0.49273 0.67656 0.0
C3952 C 0.39889 0.51212 0.66967 0.0
C3953 C 0.40193 0.51605 0.64587 0.0
C3954 C 0.37811 0.49616 0.67864 0.0
C3955 C 0.36008 0.48377 0.66337 0.0
C3956 C 0.36297 0.48806 0.63934 0.0
C3957 C 0.38385 0.50437 0.6309 0.0
C3958 C 0.37554 0.49233 0.70439 0.0
C3959 C 0.3442 0.475 0.6225 0.0
H3960 H 0.31201 0.40948 0.68279 0.0
H3961 H 0.28671 0.45478 0.6891 0.0
H3962 H 0.35801 0.44258 0.64965 0.0
H3963 H 0.36872 0.4492 0.6784 0.0
H3964 H 0.3484 0.42081 0.67109 0.0
H3965 H 0.30927 0.49338 0.68309 0.0
H3966 H 0.33894 0.5047 0.68659 0.0
H3967 H 0.32697 0.49843 0.65835 0.0
H3968 H 0.41275 0.52163 0.68129 0.0
H3969 H 0.38624 0.50756 0.6125 0.0
H3970 H 0.37185 0.47512 0.70839 0.0
H3971 H 0.36126 0.4939 0.71076 0.0
H3972 H 0.39081 0.50429 0.71398 0.0
H3973 H 0.33912 0.45704 0.62337 0.0
H3974 H 0.34901 0.48083 0.60444 0.0
H3975 H 0.3294 0.4764 0.62717 0.0
C3976 C 0.57052 0.89459 0.68469 0.0
C3977 C 0.56576 0.87285 0.69006 0.0
C3978 C 0.55374 0.89876 0.67701 0.0
C3979 C 0.53157 0.88082 0.67494 0.0
C3980 C 0.52646 0.85895 0.68107 0.0
C3981 C 0.54365 0.85519 0.68843 0.0
C3982 C 0.55986 0.9223 0.67046 0.0
C3983 C 0.50293 0.83947 0.67942 0.0
C3984 C 0.48637 0.89652 0.67157 0.0
C3985 C 0.48252 0.89555 0.64775 0.0
C3986 C 0.50192 0.89124 0.68075 0.0
C3987 C 0.51393 0.88495 0.66569 0.0
C3988 C 0.50972 0.88346 0.64163 0.0
C3989 C 0.49386 0.88858 0.63297 0.0
C3990 C 0.50567 0.89263 0.70652 0.0
C3991 C 0.52235 0.87701 0.62501 0.0
H3992 H 0.58755 0.90834 0.6858 0.0
H3993 H 0.5398 0.83836 0.69264 0.0
H3994 H 0.55618 0.9229 0.65191 0.0
H3995 H 0.54964 0.92762 0.68045 0.0
H3996 H 0.57779 0.93447 0.67356 0.0
H3997 H 0.5015 0.82376 0.68616 0.0
H3998 H 0.49133 0.8431 0.68922 0.0
H3999 H 0.49738 0.83679 0.66116 0.0
H4000 H 0.4771 0.90129 0.68306 0.0
H4001 H 0.49074 0.88771 0.61455 0.0
H4002 H 0.52311 0.90562 0.71048 0.0
H4003 H 0.5033 0.87653 0.71314 0.0
H4004 H 0.49419 0.89674 0.71593 0.0
H4005 H 0.54046 0.88938 0.62595 0.0
H4006 H 0.51671 0.87612 0.60689 0.0
H4007 H 0.52025 0.86054 0.62985 0.0
C4008 C 0.27202 0.45226 0.19079 0.0
C4009 C 0.25269 0.43382 0.182 0.0
C4010 C 0.29321 0.45824 0.18202 0.0
C4011 C 0.29507 0.44579 0.16363 0.0
C4012 C 0.27562 0.42753 0.15428 0.0
C4013 C 0.25478 0.42138 0.16401 0.0
C4014 C 0.31365 0.47735 0.19301 0.0
C4015 C 0.27686 0.41406 0.13439 0.0
C4016 C 0.35007 0.47231 0.13095 0.0
C4017 C 0.36005 0.4607 0.14014 0.0
C4018 C 0.32859 0.46721 0.13795 0.0
C4019 C 0.31741 0.45086 0.15525 0.0
C4020 C 0.32762 0.43928 0.16472 0.0
C4021 C 0.34865 0.44404 0.15669 0.0
C4022 C 0.31784 0.47924 0.12684 0.0
C4023 C 0.3166 0.42229 0.18377 0.0
H4024 H 0.27065 0.46181 0.20489 0.0
H4025 H 0.24033 0.40634 0.1579 0.0
H4026 H 0.3243 0.47112 0.20044 0.0
H4027 H 0.32377 0.49004 0.17982 0.0
H4028 H 0.30932 0.48559 0.20692 0.0
H4029 H 0.26011 0.40232 0.1272 0.0
H4030 H 0.28748 0.4253 0.12038 0.0
H4031 H 0.28463 0.40424 0.14025 0.0
H4032 H 0.35899 0.48519 0.11813 0.0
H4033 H 0.35661 0.43535 0.16404 0.0
H4034 H 0.31489 0.48915 0.13997 0.0
H4035 H 0.30133 0.46694 0.1196 0.0
H4036 H 0.32827 0.49063 0.1128 0.0
H4037 H 0.31296 0.43006 0.19867 0.0
H4038 H 0.32718 0.41541 0.18984 0.0
H4039 H 0.30044 0.40827 0.1777 0.0
C4040 C 0.56618 0.82796 0.1591 0.0
C4041 C 0.56054 0.82014 0.18179 0.0
C4042 C 0.56194 0.84447 0.15063 0.0
C4043 C 0.55208 0.85348 0.16534 0.0
C4044 C 0.54647 0.84567 0.18833 0.0
C4045 C 0.55052 0.82885 0.19619 0.0
C4046 C 0.56769 0.85205 0.12588 0.0
C4047 C 0.53627 0.85513 0.20463 0.0
C4048 C 0.55904 0.91029 0.15213 0.0
C4049 C 0.53774 0.90449 0.14387 0.0
C4050 C 0.56407 0.89382 0.15881 0.0
C4051 C 0.54754 0.87104 0.15676 0.0
C4052 C 0.52634 0.86506 0.1475 0.0
C4053 C 0.52161 0.88188 0.14138 0.0
C4054 C 0.58677 0.90081 0.16891 0.0
C4055 C 0.50846 0.84091 0.1446 0.0
H4056 H 0.57341 0.82078 0.1478 0.0
H4057 H 0.54613 0.82269 0.21372 0.0
H4058 H 0.55242 0.84894 0.11647 0.0
H4059 H 0.57958 0.87028 0.12523 0.0
H4060 H 0.57524 0.84332 0.1167 0.0
H4061 H 0.53347 0.84766 0.22215 0.0
H4062 H 0.54732 0.87348 0.20614 0.0
H4063 H 0.52004 0.85212 0.19771 0.0
H4064 H 0.57154 0.92774 0.15423 0.0
H4065 H 0.50518 0.87732 0.13484 0.0
H4066 H 0.59482 0.89283 0.15933 0.0
H4067 H 0.58489 0.8951 0.1871 0.0
H4068 H 0.59804 0.91921 0.16849 0.0
H4069 H 0.51513 0.83173 0.13479 0.0
H4070 H 0.49351 0.8391 0.13548 0.0
H4071 H 0.5032 0.83285 0.16178 0.0
C4072 C 0.10264 0.65312 0.12885 0.0
C4073 C 0.10208 0.6342 0.13836 0.0
C4074 C 0.11928 0.67468 0.13524 0.0
C4075 C 0.13534 0.67732 0.15197 0.0
C4076 C 0.13514 0.65828 0.16124 0.0
C4077 C 0.11866 0.63693 0.1541 0.0
C4078 C 0.11935 0.69462 0.12453 0.0
C4079 C 0.15173 0.66041 0.17944 0.0
C4080 C 0.1887 0.73293 0.15956 0.0
C4081 C 0.18294 0.74221 0.17791 0.0
C4082 C 0.17318 0.712 0.15053 0.0
C4083 C 0.1517 0.69992 0.16061 0.0
C4084 C 0.14593 0.70925 0.17933 0.0
C4085 C 0.16161 0.73046 0.18761 0.0
C4086 C 0.17974 0.70282 0.13023 0.0
C4087 C 0.12336 0.69667 0.19086 0.0
H4088 H 0.08992 0.65106 0.11657 0.0
H4089 H 0.11817 0.62234 0.16163 0.0
H4090 H 0.11549 0.70369 0.13788 0.0
H4091 H 0.13616 0.70643 0.11756 0.0
H4092 H 0.10693 0.68976 0.11038 0.0
H4093 H 0.14974 0.64398 0.18437 0.0
H4094 H 0.16903 0.67131 0.17318 0.0
H4095 H 0.14958 0.66838 0.19511 0.0
H4096 H 0.20528 0.7422 0.15213 0.0
H4097 H 0.1574 0.73767 0.20204 0.0
H4098 H 0.16764 0.69875 0.11592 0.0
H4099 H 0.17923 0.68709 0.13522 0.0
H4100 H 0.19675 0.71476 0.12377 0.0
H4101 H 0.10996 0.69288 0.17812 0.0
H4102 H 0.12163 0.7062 0.20537 0.0
H4103 H 0.12069 0.68049 0.19758 0.0
loop_
_geom_bond_atom_site_label_1
_geom_bond_atom_site_label_2
_geom_bond_distance
_geom_bond_site_symmetry_2
_ccdc_geom_bond_type
Co0 O3 1.970 . S
Co0 N17 1.989 . S
Co0 O25 1.967 . S
Co0 O32 1.920 . S
Co1 O4 1.966 . S
Co1 N10 2.022 . S
Co1 N18 1.993 . S
Co1 O26 1.941 . S
C2 O3 1.258 1_556 S
C2 O4 1.263 1_556 S
O3 Co0 1.970 . S
O3 C2 1.258 1_554 S
O4 Co1 1.966 . S
O4 C2 1.263 1_554 S
C5 O6 1.235 . S
C5 O32 1.289 . S
O6 C5 1.235 . S
C7 C9 1.400 . S
C7 N10 1.351 . S
C7 C12 1.501 1_554 S
C8 C9 1.387 . S
C8 N11 1.341 . S
C9 C7 1.400 . S
C9 C8 1.387 . S
N10 Co1 2.022 . S
N10 C7 1.351 . S
N10 N11 1.365 . S
N11 C8 1.341 . S
N11 N10 1.365 . S
N11 H31 0.862 . S
C12 C7 1.501 1_556 S
C12 H13 0.961 . S
C12 H14 0.967 . S
C12 H15 0.960 . S
H13 C12 0.961 . S
H14 C12 0.967 . S
H15 C12 0.960 . S
C16 N17 1.342 . S
C16 C20 1.401 . S
C16 C21 1.499 . S
N17 Co0 1.989 . S
N17 C16 1.342 . S
N17 N18 1.388 . S
N18 Co1 1.993 . S
N18 N17 1.388 . S
N18 C19 1.346 . S
C19 N18 1.346 . S
C19 C20 1.396 . S
C19 C29 1.510 . S
C20 C16 1.401 . S
C20 C19 1.396 . S
C21 C16 1.499 . S
C21 H22 0.959 . S
C21 H23 0.960 . S
C21 H24 0.961 . S
H22 C21 0.959 . S
H23 C21 0.960 . S
H24 C21 0.961 . S
O25 Co0 1.967 . S
O25 C33 1.258 . S
O26 Co1 1.941 . S
O26 C33 1.266 . S
H27 C29 0.959 . S
H28 C29 0.961 . S
C29 C19 1.510 . S
C29 H27 0.959 . S
C29 H28 0.961 . S
C29 H30 0.960 . S
H30 C29 0.960 . S
H31 N11 0.862 . S
O32 Co0 1.920 . S
O32 C5 1.289 . S
C33 O25 1.258 . S
C33 O26 1.266 . S
Co34 O37 1.970 . S
Co34 N51 1.989 . S
Co34 O59 1.967 . S
Co34 O66 1.920 . S
Co35 O38 1.966 . S
Co35 N44 2.022 . S
Co35 N52 1.993 . S
Co35 O60 1.941 . S
C36 O37 1.258 1_556 S
C36 O38 1.263 1_556 S
O37 Co34 1.970 . S
O37 C36 1.258 1_554 S
O38 Co35 1.966 . S
O38 C36 1.263 1_554 S
C39 O40 1.235 . S
C39 O66 1.289 . S
O40 C39 1.235 . S
C41 C43 1.400 . S
C41 N44 1.351 . S
C41 C46 1.501 1_554 S
C42 C43 1.387 . S
C42 N45 1.341 . S
C43 C41 1.400 . S
C43 C42 1.387 . S
N44 Co35 2.022 . S
N44 C41 1.351 . S
N44 N45 1.365 . S
N45 C42 1.341 . S
N45 N44 1.365 . S
N45 H65 0.862 . S
C46 C41 1.501 1_556 S
C46 H47 0.961 . S
C46 H48 0.967 . S
C46 H49 0.960 . S
H47 C46 0.961 . S
H48 C46 0.967 . S
H49 C46 0.960 . S
C50 N51 1.342 . S
C50 C54 1.401 . S
C50 C55 1.499 . S
N51 Co34 1.989 . S
N51 C50 1.342 . S
N51 N52 1.388 . S
N52 Co35 1.993 . S
N52 N51 1.388 . S
N52 C53 1.346 . S
C53 N52 1.346 . S
C53 C54 1.396 . S
C53 C63 1.510 . S
C54 C50 1.401 . S
C54 C53 1.396 . S
C55 C50 1.499 . S
C55 H56 0.959 . S
C55 H57 0.960 . S
C55 H58 0.961 . S
H56 C55 0.959 . S
H57 C55 0.960 . S
H58 C55 0.961 . S
O59 Co34 1.967 . S
O59 C67 1.258 . S
O60 Co35 1.941 . S
O60 C67 1.266 . S
H61 C63 0.959 . S
H62 C63 0.961 . S
C63 C53 1.510 . S
C63 H61 0.959 . S
C63 H62 0.961 . S
C63 H64 0.960 . S
H64 C63 0.960 . S
H65 N45 0.862 . S
O66 Co34 1.920 . S
O66 C39 1.289 . S
C67 O59 1.258 . S
C67 O60 1.266 . S
Co68 O71 1.970 . S
Co68 N85 1.989 . S
Co68 O93 1.967 . S
Co68 O100 1.920 . S
Co69 O72 1.966 . S
Co69 N78 2.022 . S
Co69 N86 1.993 . S
Co69 O94 1.941 . S
C70 O71 1.258 1_556 S
C70 O72 1.263 1_556 S
O71 Co68 1.970 . S
O71 C70 1.258 1_554 S
O72 Co69 1.966 . S
O72 C70 1.263 1_554 S
C73 O74 1.235 . S
C73 O100 1.289 . S
O74 C73 1.235 . S
C75 C77 1.400 . S
C75 N78 1.351 . S
C75 C80 1.501 1_554 S
C76 C77 1.387 . S
C76 N79 1.341 . S
C77 C75 1.400 . S
C77 C76 1.387 . S
N78 Co69 2.022 . S
N78 C75 1.351 . S
N78 N79 1.365 . S
N79 C76 1.341 . S
N79 N78 1.365 . S
N79 H99 0.862 . S
C80 C75 1.501 1_556 S
C80 H81 0.961 . S
C80 H82 0.967 . S
C80 H83 0.960 . S
H81 C80 0.961 . S
H82 C80 0.967 . S
H83 C80 0.960 . S
C84 N85 1.342 . S
C84 C88 1.401 . S
C84 C89 1.499 . S
N85 Co68 1.989 . S
N85 C84 1.342 . S
N85 N86 1.388 . S
N86 Co69 1.993 . S
N86 N85 1.388 . S
N86 C87 1.346 . S
C87 N86 1.346 . S
C87 C88 1.396 . S
C87 C97 1.510 . S
C88 C84 1.401 . S
C88 C87 1.396 . S
C89 C84 1.499 . S
C89 H90 0.959 . S
C89 H91 0.960 . S
C89 H92 0.961 . S
H90 C89 0.959 . S
H91 C89 0.960 . S
H92 C89 0.961 . S
O93 Co68 1.967 . S
O93 C101 1.258 . S
O94 Co69 1.941 . S
O94 C101 1.266 . S
H95 C97 0.959 . S
H96 C97 0.961 . S
C97 C87 1.510 . S
C97 H95 0.959 . S
C97 H96 0.961 . S
C97 H98 0.960 . S
H98 C97 0.960 . S
H99 N79 0.862 . S
O100 Co68 1.920 . S
O100 C73 1.289 . S
C101 O93 1.258 . S
C101 O94 1.266 . S
Co102 O105 1.970 . S
Co102 N119 1.989 . S
Co102 O127 1.967 . S
Co102 O134 1.920 . S
Co103 O106 1.966 . S
Co103 N112 2.022 . S
Co103 N120 1.993 . S
Co103 O128 1.941 . S
C104 O105 1.258 . S
C104 O106 1.263 . S
O105 Co102 1.970 . S
O105 C104 1.258 . S
O106 Co103 1.966 . S
O106 C104 1.263 . S
C107 O108 1.235 . S
C107 O134 1.289 . S
O108 C107 1.235 . S
C109 C111 1.400 . S
C109 N112 1.351 . S
C109 C114 1.501 . S
C110 C111 1.387 . S
C110 N113 1.341 . S
C111 C109 1.400 . S
C111 C110 1.387 . S
N112 Co103 2.022 . S
N112 C109 1.351 . S
N112 N113 1.365 . S
N113 C110 1.341 . S
N113 N112 1.365 . S
N113 H133 0.862 . S
C114 C109 1.501 . S
C114 H115 0.961 . S
C114 H116 0.961 . S
C114 H117 0.960 . S
H115 C114 0.961 . S
H116 C114 0.961 . S
H117 C114 0.960 . S
C118 N119 1.342 . S
C118 C122 1.401 . S
C118 C123 1.499 . S
N119 Co102 1.989 . S
N119 C118 1.342 . S
N119 N120 1.388 . S
N120 Co103 1.993 . S
N120 N119 1.388 . S
N120 C121 1.346 . S
C121 N120 1.346 . S
C121 C122 1.396 . S
C121 C131 1.510 . S
C122 C118 1.401 . S
C122 C121 1.396 . S
C123 C118 1.499 . S
C123 H124 0.959 . S
C123 H125 0.960 . S
C123 H126 0.961 . S
H124 C123 0.959 . S
H125 C123 0.960 . S
H126 C123 0.961 . S
O127 Co102 1.967 . S
O127 C135 1.258 . S
O128 Co103 1.941 . S
O128 C135 1.266 . S
H129 C131 0.959 . S
H130 C131 0.961 . S
C131 C121 1.510 . S
C131 H129 0.959 . S
C131 H130 0.961 . S
C131 H132 0.960 . S
H132 C131 0.960 . S
H133 N113 0.862 . S
O134 Co102 1.920 . S
O134 C107 1.289 . S
C135 O127 1.258 . S
C135 O128 1.266 . S
Co136 O139 1.970 . S
Co136 N153 1.989 . S
Co136 O161 1.967 . S
Co136 O168 1.920 . S
Co137 O140 1.966 . S
Co137 N146 2.022 . S
Co137 N154 1.993 . S
Co137 O162 1.941 . S
C138 O139 1.258 . S
C138 O140 1.263 . S
O139 Co136 1.970 . S
O139 C138 1.258 . S
O140 Co137 1.966 . S
O140 C138 1.263 . S
C141 O142 1.235 . S
C141 O168 1.289 . S
O142 C141 1.235 . S
C143 C145 1.400 . S
C143 N146 1.351 . S
C143 C148 1.501 . S
C144 C145 1.387 . S
C144 N147 1.341 . S
C145 C143 1.400 . S
C145 C144 1.387 . S
N146 Co137 2.022 . S
N146 C143 1.351 . S
N146 N147 1.365 . S
N147 C144 1.341 . S
N147 N146 1.365 . S
N147 H167 0.862 . S
C148 C143 1.501 . S
C148 H149 0.961 . S
C148 H150 0.961 . S
C148 H151 0.960 . S
H149 C148 0.961 . S
H150 C148 0.961 . S
H151 C148 0.960 . S
C152 N153 1.342 . S
C152 C156 1.401 . S
C152 C157 1.499 . S
N153 Co136 1.989 . S
N153 C152 1.342 . S
N153 N154 1.388 . S
N154 Co137 1.993 . S
N154 N153 1.388 . S
N154 C155 1.346 . S
C155 N154 1.346 . S
C155 C156 1.396 . S
C155 C165 1.510 . S
C156 C152 1.401 . S
C156 C155 1.396 . S
C157 C152 1.499 . S
C157 H158 0.959 . S
C157 H159 0.960 . S
C157 H160 0.961 . S
H158 C157 0.959 . S
H159 C157 0.960 . S
H160 C157 0.961 . S
O161 Co136 1.967 . S
O161 C169 1.258 . S
O162 Co137 1.941 . S
O162 C169 1.266 . S
H163 C165 0.959 . S
H164 C165 0.961 . S
C165 C155 1.510 . S
C165 H163 0.959 . S
C165 H164 0.961 . S
C165 H166 0.960 . S
H166 C165 0.960 . S
H167 N147 0.862 . S
O168 Co136 1.920 . S
O168 C141 1.289 . S
C169 O161 1.258 . S
C169 O162 1.266 . S
Co170 O173 1.970 . S
Co170 N187 1.989 . S
Co170 O195 1.967 . S
Co170 O202 1.920 . S
Co171 O174 1.966 . S
Co171 N180 2.022 . S
Co171 N188 1.993 . S
Co171 O196 1.941 . S
C172 O173 1.258 . S
C172 O174 1.263 . S
O173 Co170 1.970 . S
O173 C172 1.258 . S
O174 Co171 1.966 . S
O174 C172 1.263 . S
C175 O176 1.235 . S
C175 O202 1.289 . S
O176 C175 1.235 . S
C177 C179 1.400 . S
C177 N180 1.351 . S
C177 C182 1.501 . S
C178 C179 1.387 . S
C178 N181 1.341 . S
C179 C177 1.400 . S
C179 C178 1.387 . S
N180 Co171 2.022 . S
N180 C177 1.351 . S
N180 N181 1.365 . S
N181 C178 1.341 . S
N181 N180 1.365 . S
N181 H201 0.862 . S
C182 C177 1.501 . S
C182 H183 0.961 . S
C182 H184 0.961 . S
C182 H185 0.960 . S
H183 C182 0.961 . S
H184 C182 0.961 . S
H185 C182 0.960 . S
C186 N187 1.342 . S
C186 C190 1.401 . S
C186 C191 1.499 . S
N187 Co170 1.989 . S
N187 C186 1.342 . S
N187 N188 1.388 . S
N188 Co171 1.993 . S
N188 N187 1.388 . S
N188 C189 1.346 . S
C189 N188 1.346 . S
C189 C190 1.396 . S
C189 C199 1.510 . S
C190 C186 1.401 . S
C190 C189 1.396 . S
C191 C186 1.499 . S
C191 H192 0.959 . S
C191 H193 0.960 . S
C191 H194 0.961 . S
H192 C191 0.959 . S
H193 C191 0.960 . S
H194 C191 0.961 . S
O195 Co170 1.967 . S
O195 C203 1.258 . S
O196 Co171 1.941 . S
O196 C203 1.266 . S
H197 C199 0.959 . S
H198 C199 0.961 . S
C199 C189 1.510 . S
C199 H197 0.959 . S
C199 H198 0.961 . S
C199 H200 0.960 . S
H200 C199 0.960 . S
H201 N181 0.862 . S
O202 Co170 1.920 . S
O202 C175 1.289 . S
C203 O195 1.258 . S
C203 O196 1.266 . S
Co204 O207 1.970 . S
Co204 N221 1.989 . S
Co204 O229 1.967 . S
Co204 O236 1.920 . S
Co205 O208 1.966 . S
Co205 N214 2.022 . S
Co205 N222 1.993 . S
Co205 O230 1.941 . S
C206 O207 1.258 1_554 S
C206 O208 1.263 1_554 S
O207 Co204 1.970 . S
O207 C206 1.258 1_556 S
O208 Co205 1.966 . S
O208 C206 1.263 1_556 S
C209 O210 1.235 . S
C209 O236 1.289 . S
O210 C209 1.235 . S
C211 C213 1.400 . S
C211 N214 1.351 . S
C211 C216 1.501 1_556 S
C212 C213 1.387 . S
C212 N215 1.341 . S
C213 C211 1.400 . S
C213 C212 1.387 . S
N214 Co205 2.022 . S
N214 C211 1.351 . S
N214 N215 1.365 . S
N215 C212 1.341 . S
N215 N214 1.365 . S
N215 H235 0.862 . S
C216 C211 1.501 1_554 S
C216 H217 0.961 . S
C216 H218 0.967 . S
C216 H219 0.960 . S
H217 C216 0.961 . S
H218 C216 0.967 . S
H219 C216 0.960 . S
C220 N221 1.342 . S
C220 C224 1.401 . S
C220 C225 1.499 . S
N221 Co204 1.989 . S
N221 C220 1.342 . S
N221 N222 1.388 . S
N222 Co205 1.993 . S
N222 N221 1.388 . S
N222 C223 1.346 . S
C223 N222 1.346 . S
C223 C224 1.396 . S
C223 C233 1.510 . S
C224 C220 1.401 . S
C224 C223 1.396 . S
C225 C220 1.499 . S
C225 H226 0.959 . S
C225 H227 0.960 . S
C225 H228 0.961 . S
H226 C225 0.959 . S
H227 C225 0.960 . S
H228 C225 0.961 . S
O229 Co204 1.967 . S
O229 C237 1.258 . S
O230 Co205 1.941 . S
O230 C237 1.266 . S
H231 C233 0.959 . S
H232 C233 0.961 . S
C233 C223 1.510 . S
C233 H231 0.959 . S
C233 H232 0.961 . S
C233 H234 0.960 . S
H234 C233 0.960 . S
H235 N215 0.862 . S
O236 Co204 1.920 . S
O236 C209 1.289 . S
C237 O229 1.258 . S
C237 O230 1.266 . S
Co238 O241 1.970 . S
Co238 N255 1.989 . S
Co238 O263 1.967 . S
Co238 O270 1.920 . S
Co239 O242 1.966 . S
Co239 N248 2.022 . S
Co239 N256 1.993 . S
Co239 O264 1.941 . S
C240 O241 1.258 1_554 S
C240 O242 1.263 1_554 S
O241 Co238 1.970 . S
O241 C240 1.258 1_556 S
O242 Co239 1.966 . S
O242 C240 1.263 1_556 S
C243 O244 1.235 . S
C243 O270 1.289 . S
O244 C243 1.235 . S
C245 C247 1.400 . S
C245 N248 1.351 . S
C245 C250 1.501 1_556 S
C246 C247 1.387 . S
C246 N249 1.341 . S
C247 C245 1.400 . S
C247 C246 1.387 . S
N248 Co239 2.022 . S
N248 C245 1.351 . S
N248 N249 1.365 . S
N249 C246 1.341 . S
N249 N248 1.365 . S
N249 H269 0.862 . S
C250 C245 1.501 1_554 S
C250 H251 0.961 . S
C250 H252 0.967 . S
C250 H253 0.960 . S
H251 C250 0.961 . S
H252 C250 0.967 . S
H253 C250 0.960 . S
C254 N255 1.342 . S
C254 C258 1.401 . S
C254 C259 1.499 . S
N255 Co238 1.989 . S
N255 C254 1.342 . S
N255 N256 1.388 . S
N256 Co239 1.993 . S
N256 N255 1.388 . S
N256 C257 1.346 . S
C257 N256 1.346 . S
C257 C258 1.396 . S
C257 C267 1.510 . S
C258 C254 1.401 . S
C258 C257 1.396 . S
C259 C254 1.499 . S
C259 H260 0.959 . S
C259 H261 0.960 . S
C259 H262 0.961 . S
H260 C259 0.959 . S
H261 C259 0.960 . S
H262 C259 0.961 . S
O263 Co238 1.967 . S
O263 C271 1.258 . S
O264 Co239 1.941 . S
O264 C271 1.266 . S
H265 C267 0.959 . S
H266 C267 0.961 . S
C267 C257 1.510 . S
C267 H265 0.959 . S
C267 H266 0.961 . S
C267 H268 0.960 . S
H268 C267 0.960 . S
H269 N249 0.862 . S
O270 Co238 1.920 . S
O270 C243 1.289 . S
C271 O263 1.258 . S
C271 O264 1.266 . S
Co272 O275 1.970 . S
Co272 N289 1.989 . S
Co272 O297 1.967 . S
Co272 O304 1.920 . S
Co273 O276 1.966 . S
Co273 N282 2.022 . S
Co273 N290 1.993 . S
Co273 O298 1.941 . S
C274 O275 1.258 1_554 S
C274 O276 1.263 1_554 S
O275 Co272 1.970 . S
O275 C274 1.258 1_556 S
O276 Co273 1.966 . S
O276 C274 1.263 1_556 S
C277 O278 1.235 . S
C277 O304 1.289 . S
O278 C277 1.235 . S
C279 C281 1.400 . S
C279 N282 1.351 . S
C279 C284 1.501 1_556 S
C280 C281 1.387 . S
C280 N283 1.341 . S
C281 C279 1.400 . S
C281 C280 1.387 . S
N282 Co273 2.022 . S
N282 C279 1.351 . S
N282 N283 1.365 . S
N283 C280 1.341 . S
N283 N282 1.365 . S
N283 H303 0.862 . S
C284 C279 1.501 1_554 S
C284 H285 0.961 . S
C284 H286 0.967 . S
C284 H287 0.960 . S
H285 C284 0.961 . S
H286 C284 0.967 . S
H287 C284 0.960 . S
C288 N289 1.342 . S
C288 C292 1.401 . S
C288 C293 1.499 . S
N289 Co272 1.989 . S
N289 C288 1.342 . S
N289 N290 1.388 . S
N290 Co273 1.993 . S
N290 N289 1.388 . S
N290 C291 1.346 . S
C291 N290 1.346 . S
C291 C292 1.396 . S
C291 C301 1.510 . S
C292 C288 1.401 . S
C292 C291 1.396 . S
C293 C288 1.499 . S
C293 H294 0.959 . S
C293 H295 0.960 . S
C293 H296 0.961 . S
H294 C293 0.959 . S
H295 C293 0.960 . S
H296 C293 0.961 . S
O297 Co272 1.967 . S
O297 C305 1.258 . S
O298 Co273 1.941 . S
O298 C305 1.266 . S
H299 C301 0.959 . S
H300 C301 0.961 . S
C301 C291 1.510 . S
C301 H299 0.959 . S
C301 H300 0.961 . S
C301 H302 0.960 . S
H302 C301 0.960 . S
H303 N283 0.862 . S
O304 Co272 1.920 . S
O304 C277 1.289 . S
C305 O297 1.258 . S
C305 O298 1.266 . S
Co306 O309 1.970 . S
Co306 N323 1.989 . S
Co306 O331 1.967 . S
Co306 O338 1.920 . S
Co307 O310 1.966 . S
Co307 N316 2.022 . S
Co307 N324 1.993 . S
Co307 O332 1.941 . S
C308 O309 1.258 . S
C308 O310 1.263 . S
O309 Co306 1.970 . S
O309 C308 1.258 . S
O310 Co307 1.966 . S
O310 C308 1.263 . S
C311 O312 1.235 . S
C311 O338 1.289 . S
O312 C311 1.235 . S
C313 C315 1.400 . S
C313 N316 1.351 . S
C313 C318 1.501 . S
C314 C315 1.387 . S
C314 N317 1.341 . S
C315 C313 1.400 . S
C315 C314 1.387 . S
N316 Co307 2.022 . S
N316 C313 1.351 . S
N316 N317 1.365 . S
N317 C314 1.341 . S
N317 N316 1.365 . S
N317 H337 0.862 . S
C318 C313 1.501 . S
C318 H319 0.961 . S
C318 H320 0.961 . S
C318 H321 0.960 . S
H319 C318 0.961 . S
H320 C318 0.961 . S
H321 C318 0.960 . S
C322 N323 1.342 . S
C322 C326 1.401 . S
C322 C327 1.499 . S
N323 Co306 1.989 . S
N323 C322 1.342 . S
N323 N324 1.388 . S
N324 Co307 1.993 . S
N324 N323 1.388 . S
N324 C325 1.346 . S
C325 N324 1.346 . S
C325 C326 1.396 . S
C325 C335 1.510 . S
C326 C322 1.401 . S
C326 C325 1.396 . S
C327 C322 1.499 . S
C327 H328 0.959 . S
C327 H329 0.960 . S
C327 H330 0.961 . S
H328 C327 0.959 . S
H329 C327 0.960 . S
H330 C327 0.961 . S
O331 Co306 1.967 . S
O331 C339 1.258 . S
O332 Co307 1.941 . S
O332 C339 1.266 . S
H333 C335 0.959 . S
H334 C335 0.961 . S
C335 C325 1.510 . S
C335 H333 0.959 . S
C335 H334 0.961 . S
C335 H336 0.960 . S
H336 C335 0.960 . S
H337 N317 0.862 . S
O338 Co306 1.920 . S
O338 C311 1.289 . S
C339 O331 1.258 . S
C339 O332 1.266 . S
Co340 O343 1.970 . S
Co340 N357 1.989 . S
Co340 O365 1.967 . S
Co340 O372 1.920 . S
Co341 O344 1.966 . S
Co341 N350 2.022 . S
Co341 N358 1.993 . S
Co341 O366 1.941 . S
C342 O343 1.258 . S
C342 O344 1.263 . S
O343 Co340 1.970 . S
O343 C342 1.258 . S
O344 Co341 1.966 . S
O344 C342 1.263 . S
C345 O346 1.235 . S
C345 O372 1.289 . S
O346 C345 1.235 . S
C347 C349 1.400 . S
C347 N350 1.351 . S
C347 C352 1.501 . S
C348 C349 1.387 . S
C348 N351 1.341 . S
C349 C347 1.400 . S
C349 C348 1.387 . S
N350 Co341 2.022 . S
N350 C347 1.351 . S
N350 N351 1.365 . S
N351 C348 1.341 . S
N351 N350 1.365 . S
N351 H371 0.862 . S
C352 C347 1.501 . S
C352 H353 0.961 . S
C352 H354 0.961 . S
C352 H355 0.960 . S
H353 C352 0.961 . S
H354 C352 0.961 . S
H355 C352 0.960 . S
C356 N357 1.342 . S
C356 C360 1.401 . S
C356 C361 1.499 . S
N357 Co340 1.989 . S
N357 C356 1.342 . S
N357 N358 1.388 . S
N358 Co341 1.993 . S
N358 N357 1.388 . S
N358 C359 1.346 . S
C359 N358 1.346 . S
C359 C360 1.396 . S
C359 C369 1.510 . S
C360 C356 1.401 . S
C360 C359 1.396 . S
C361 C356 1.499 . S
C361 H362 0.959 . S
C361 H363 0.960 . S
C361 H364 0.961 . S
H362 C361 0.959 . S
H363 C361 0.960 . S
H364 C361 0.961 . S
O365 Co340 1.967 . S
O365 C373 1.258 . S
O366 Co341 1.941 . S
O366 C373 1.266 . S
H367 C369 0.959 . S
H368 C369 0.961 . S
C369 C359 1.510 . S
C369 H367 0.959 . S
C369 H368 0.961 . S
C369 H370 0.960 . S
H370 C369 0.960 . S
H371 N351 0.862 . S
O372 Co340 1.920 . S
O372 C345 1.289 . S
C373 O365 1.258 . S
C373 O366 1.266 . S
Co374 O377 1.970 . S
Co374 N391 1.989 . S
Co374 O399 1.967 . S
Co374 O406 1.920 . S
Co375 O378 1.966 . S
Co375 N384 2.022 . S
Co375 N392 1.993 . S
Co375 O400 1.941 . S
C376 O377 1.258 . S
C376 O378 1.263 . S
O377 Co374 1.970 . S
O377 C376 1.258 . S
O378 Co375 1.966 . S
O378 C376 1.263 . S
C379 O380 1.235 . S
C379 O406 1.289 . S
O380 C379 1.235 . S
C381 C383 1.400 . S
C381 N384 1.351 . S
C381 C386 1.501 . S
C382 C383 1.387 . S
C382 N385 1.341 . S
C383 C381 1.400 . S
C383 C382 1.387 . S
N384 Co375 2.022 . S
N384 C381 1.351 . S
N384 N385 1.365 . S
N385 C382 1.341 . S
N385 N384 1.365 . S
N385 H405 0.862 . S
C386 C381 1.501 . S
C386 H387 0.961 . S
C386 H388 0.961 . S
C386 H389 0.960 . S
H387 C386 0.961 . S
H388 C386 0.961 . S
H389 C386 0.960 . S
C390 N391 1.342 . S
C390 C394 1.401 . S
C390 C395 1.499 . S
N391 Co374 1.989 . S
N391 C390 1.342 . S
N391 N392 1.388 . S
N392 Co375 1.993 . S
N392 N391 1.388 . S
N392 C393 1.346 . S
C393 N392 1.346 . S
C393 C394 1.396 . S
C393 C403 1.510 . S
C394 C390 1.401 . S
C394 C393 1.396 . S
C395 C390 1.499 . S
C395 H396 0.959 . S
C395 H397 0.960 . S
C395 H398 0.961 . S
H396 C395 0.959 . S
H397 C395 0.960 . S
H398 C395 0.961 . S
O399 Co374 1.967 . S
O399 C407 1.258 . S
O400 Co375 1.941 . S
O400 C407 1.266 . S
H401 C403 0.959 . S
H402 C403 0.961 . S
C403 C393 1.510 . S
C403 H401 0.959 . S
C403 H402 0.961 . S
C403 H404 0.960 . S
H404 C403 0.960 . S
H405 N385 0.862 . S
O406 Co374 1.920 . S
O406 C379 1.289 . S
C407 O399 1.258 . S
C407 O400 1.266 . S
Co408 O411 1.970 . S
Co408 N425 1.989 . S
Co408 O433 1.967 . S
Co408 O440 1.920 . S
Co409 O412 1.966 . S
Co409 N418 2.022 . S
Co409 N426 1.993 . S
Co409 O434 1.941 . S
C410 O411 1.258 . S
C410 O412 1.263 . S
O411 Co408 1.970 . S
O411 C410 1.258 . S
O412 Co409 1.966 . S
O412 C410 1.263 . S
C413 O414 1.242 . S
C413 O440 1.282 1_455 S
O414 C413 1.242 . S
C415 C417 1.400 . S
C415 N418 1.351 . S
C415 C420 1.501 . S
C416 C417 1.387 . S
C416 N419 1.341 . S
C417 C415 1.400 . S
C417 C416 1.387 . S
N418 Co409 2.022 . S
N418 C415 1.351 . S
N418 N419 1.365 . S
N419 C416 1.341 . S
N419 N418 1.365 . S
N419 H439 0.862 . S
C420 C415 1.501 . S
C420 H421 0.961 . S
C420 H422 0.961 . S
C420 H423 0.960 . S
H421 C420 0.961 . S
H422 C420 0.961 . S
H423 C420 0.960 . S
C424 N425 1.342 . S
C424 C428 1.401 . S
C424 C429 1.499 . S
N425 Co408 1.989 . S
N425 C424 1.342 . S
N425 N426 1.388 . S
N426 Co409 1.993 . S
N426 N425 1.388 . S
N426 C427 1.346 . S
C427 N426 1.346 . S
C427 C428 1.396 . S
C427 C437 1.510 . S
C428 C424 1.401 . S
C428 C427 1.396 . S
C429 C424 1.499 . S
C429 H430 0.959 . S
C429 H431 0.960 . S
C429 H432 0.961 . S
H430 C429 0.959 . S
H431 C429 0.960 . S
H432 C429 0.961 . S
O433 Co408 1.967 . S
O433 C441 1.258 . S
O434 Co409 1.941 . S
O434 C441 1.266 . S
H435 C437 0.959 . S
H436 C437 0.961 . S
C437 C427 1.510 . S
C437 H435 0.959 . S
C437 H436 0.961 . S
C437 H438 0.960 . S
H438 C437 0.960 . S
H439 N419 0.862 . S
O440 Co408 1.920 . S
O440 C413 1.282 1_655 S
C441 O433 1.258 . S
C441 O434 1.266 . S
Co442 O445 1.970 . S
Co442 N459 1.989 . S
Co442 O467 1.967 . S
Co442 O474 1.920 . S
Co443 O446 1.966 . S
Co443 N452 2.022 . S
Co443 N460 1.993 . S
Co443 O468 1.941 . S
C444 O445 1.258 . S
C444 O446 1.263 . S
O445 Co442 1.970 . S
O445 C444 1.258 . S
O446 Co443 1.966 . S
O446 C444 1.263 . S
C447 O448 1.235 . S
C447 O474 1.289 . S
O448 C447 1.235 . S
C449 C451 1.400 . S
C449 N452 1.351 . S
C449 C454 1.501 . S
C450 C451 1.387 . S
C450 N453 1.341 . S
C451 C449 1.400 . S
C451 C450 1.387 . S
N452 Co443 2.022 . S
N452 C449 1.351 . S
N452 N453 1.365 . S
N453 C450 1.341 . S
N453 N452 1.365 . S
N453 H473 0.862 . S
C454 C449 1.501 . S
C454 H455 0.961 . S
C454 H456 0.961 . S
C454 H457 0.960 . S
H455 C454 0.961 . S
H456 C454 0.961 . S
H457 C454 0.960 . S
C458 N459 1.342 . S
C458 C462 1.401 . S
C458 C463 1.499 . S
N459 Co442 1.989 . S
N459 C458 1.342 . S
N459 N460 1.388 . S
N460 Co443 1.993 . S
N460 N459 1.388 . S
N460 C461 1.346 . S
C461 N460 1.346 . S
C461 C462 1.396 . S
C461 C471 1.510 . S
C462 C458 1.401 . S
C462 C461 1.396 . S
C463 C458 1.499 . S
C463 H464 0.959 . S
C463 H465 0.960 . S
C463 H466 0.961 . S
H464 C463 0.959 . S
H465 C463 0.960 . S
H466 C463 0.961 . S
O467 Co442 1.967 . S
O467 C475 1.258 . S
O468 Co443 1.941 . S
O468 C475 1.266 . S
H469 C471 0.959 . S
H470 C471 0.961 . S
C471 C461 1.510 . S
C471 H469 0.959 . S
C471 H470 0.961 . S
C471 H472 0.960 . S
H472 C471 0.960 . S
H473 N453 0.862 . S
O474 Co442 1.920 . S
O474 C447 1.289 . S
C475 O467 1.258 . S
C475 O468 1.266 . S
Co476 O479 1.970 . S
Co476 N493 1.989 . S
Co476 O501 1.967 . S
Co476 O508 1.920 . S
Co477 O480 1.966 . S
Co477 N486 2.022 . S
Co477 N494 1.993 . S
Co477 O502 1.941 . S
C478 O479 1.258 . S
C478 O480 1.263 . S
O479 Co476 1.970 . S
O479 C478 1.258 . S
O480 Co477 1.966 . S
O480 C478 1.263 . S
C481 O482 1.236 . S
C481 O508 1.281 1_565 S
O482 C481 1.236 . S
C483 C485 1.400 . S
C483 N486 1.351 . S
C483 C488 1.501 . S
C484 C485 1.387 . S
C484 N487 1.341 . S
C485 C483 1.400 . S
C485 C484 1.387 . S
N486 Co477 2.022 . S
N486 C483 1.351 . S
N486 N487 1.365 . S
N487 C484 1.341 . S
N487 N486 1.365 . S
N487 H507 0.862 . S
C488 C483 1.501 . S
C488 H489 0.961 . S
C488 H490 0.961 . S
C488 H491 0.960 . S
H489 C488 0.961 . S
H490 C488 0.961 . S
H491 C488 0.960 . S
C492 N493 1.342 . S
C492 C496 1.401 . S
C492 C497 1.499 . S
N493 Co476 1.989 . S
N493 C492 1.342 . S
N493 N494 1.388 . S
N494 Co477 1.993 . S
N494 N493 1.388 . S
N494 C495 1.346 . S
C495 N494 1.346 . S
C495 C496 1.396 . S
C495 C505 1.510 . S
C496 C492 1.401 . S
C496 C495 1.396 . S
C497 C492 1.499 . S
C497 H498 0.959 . S
C497 H499 0.960 . S
C497 H500 0.961 . S
H498 C497 0.959 . S
H499 C497 0.960 . S
H500 C497 0.961 . S
O501 Co476 1.967 . S
O501 C509 1.258 . S
O502 Co477 1.941 . S
O502 C509 1.266 . S
H503 C505 0.959 . S
H504 C505 0.961 . S
C505 C495 1.510 . S
C505 H503 0.959 . S
C505 H504 0.961 . S
C505 H506 0.960 . S
H506 C505 0.960 . S
H507 N487 0.862 . S
O508 Co476 1.920 . S
O508 C481 1.281 1_545 S
C509 O501 1.258 . S
C509 O502 1.266 . S
Co510 O513 1.970 . S
Co510 N527 1.989 . S
Co510 O535 1.967 . S
Co510 O542 1.920 . S
Co511 O514 1.966 . S
Co511 N520 2.022 . S
Co511 N528 1.993 . S
Co511 O536 1.941 . S
C512 O513 1.258 . S
C512 O514 1.263 . S
O513 Co510 1.970 . S
O513 C512 1.258 . S
O514 Co511 1.966 . S
O514 C512 1.263 . S
C515 O516 1.235 . S
C515 O542 1.289 . S
O516 C515 1.235 . S
C517 C519 1.400 . S
C517 N520 1.351 . S
C517 C522 1.501 . S
C518 C519 1.387 . S
C518 N521 1.341 . S
C519 C517 1.400 . S
C519 C518 1.387 . S
N520 Co511 2.022 . S
N520 C517 1.351 . S
N520 N521 1.365 . S
N521 C518 1.341 . S
N521 N520 1.365 . S
N521 H541 0.862 . S
C522 C517 1.501 . S
C522 H523 0.961 . S
C522 H524 0.961 . S
C522 H525 0.960 . S
H523 C522 0.961 . S
H524 C522 0.961 . S
H525 C522 0.960 . S
C526 N527 1.342 . S
C526 C530 1.401 . S
C526 C531 1.499 . S
N527 Co510 1.989 . S
N527 C526 1.342 . S
N527 N528 1.388 . S
N528 Co511 1.993 . S
N528 N527 1.388 . S
N528 C529 1.346 . S
C529 N528 1.346 . S
C529 C530 1.396 . S
C529 C539 1.510 . S
C530 C526 1.401 . S
C530 C529 1.396 . S
C531 C526 1.499 . S
C531 H532 0.959 . S
C531 H533 0.960 . S
C531 H534 0.961 . S
H532 C531 0.959 . S
H533 C531 0.960 . S
H534 C531 0.961 . S
O535 Co510 1.967 . S
O535 C543 1.258 . S
O536 Co511 1.941 . S
O536 C543 1.266 . S
H537 C539 0.959 . S
H538 C539 0.961 . S
C539 C529 1.510 . S
C539 H537 0.959 . S
C539 H538 0.961 . S
C539 H540 0.960 . S
H540 C539 0.960 . S
H541 N521 0.862 . S
O542 Co510 1.920 . S
O542 C515 1.289 . S
C543 O535 1.258 . S
C543 O536 1.266 . S
Co544 O547 1.970 . S
Co544 N561 1.989 . S
Co544 O569 1.967 . S
Co544 O576 1.920 . S
Co545 O548 1.966 . S
Co545 N554 2.022 . S
Co545 N562 1.993 . S
Co545 O570 1.941 . S
C546 O547 1.258 . S
C546 O548 1.263 . S
O547 Co544 1.970 . S
O547 C546 1.258 . S
O548 Co545 1.966 . S
O548 C546 1.263 . S
C549 O550 1.235 . S
C549 O576 1.289 . S
O550 C549 1.235 . S
C551 C553 1.400 . S
C551 N554 1.351 . S
C551 C556 1.501 . S
C552 C553 1.387 . S
C552 N555 1.341 . S
C553 C551 1.400 . S
C553 C552 1.387 . S
N554 Co545 2.022 . S
N554 C551 1.351 . S
N554 N555 1.365 . S
N555 C552 1.341 . S
N555 N554 1.365 . S
N555 H575 0.862 . S
C556 C551 1.501 . S
C556 H557 0.961 . S
C556 H558 0.961 . S
C556 H559 0.960 . S
H557 C556 0.961 . S
H558 C556 0.961 . S
H559 C556 0.960 . S
C560 N561 1.342 . S
C560 C564 1.401 . S
C560 C565 1.499 . S
N561 Co544 1.989 . S
N561 C560 1.342 . S
N561 N562 1.388 . S
N562 Co545 1.993 . S
N562 N561 1.388 . S
N562 C563 1.346 . S
C563 N562 1.346 . S
C563 C564 1.396 . S
C563 C573 1.510 . S
C564 C560 1.401 . S
C564 C563 1.396 . S
C565 C560 1.499 . S
C565 H566 0.959 . S
C565 H567 0.960 . S
C565 H568 0.961 . S
H566 C565 0.959 . S
H567 C565 0.960 . S
H568 C565 0.961 . S
O569 Co544 1.967 . S
O569 C577 1.258 . S
O570 Co545 1.941 . S
O570 C577 1.266 . S
H571 C573 0.959 . S
H572 C573 0.961 . S
C573 C563 1.510 . S
C573 H571 0.959 . S
C573 H572 0.961 . S
C573 H574 0.960 . S
H574 C573 0.960 . S
H575 N555 0.862 . S
O576 Co544 1.920 . S
O576 C549 1.289 . S
C577 O569 1.258 . S
C577 O570 1.266 . S
Co578 O581 1.970 . S
Co578 N595 1.989 . S
Co578 O603 1.967 . S
Co578 O610 1.920 . S
Co579 O582 1.966 . S
Co579 N588 2.022 . S
Co579 N596 1.993 . S
Co579 O604 1.941 . S
C580 O581 1.258 . S
C580 O582 1.263 . S
O581 Co578 1.970 . S
O581 C580 1.258 . S
O582 Co579 1.966 . S
O582 C580 1.263 . S
C583 O584 1.235 . S
C583 O610 1.289 . S
O584 C583 1.235 . S
C585 C587 1.400 . S
C585 N588 1.351 . S
C585 C590 1.501 . S
C586 C587 1.387 . S
C586 N589 1.341 . S
C587 C585 1.400 . S
C587 C586 1.387 . S
N588 Co579 2.022 . S
N588 C585 1.351 . S
N588 N589 1.365 . S
N589 C586 1.341 . S
N589 N588 1.365 . S
N589 H609 0.862 . S
C590 C585 1.501 . S
C590 H591 0.961 . S
C590 H592 0.961 . S
C590 H593 0.960 . S
H591 C590 0.961 . S
H592 C590 0.961 . S
H593 C590 0.960 . S
C594 N595 1.342 . S
C594 C598 1.401 . S
C594 C599 1.499 . S
N595 Co578 1.989 . S
N595 C594 1.342 . S
N595 N596 1.388 . S
N596 Co579 1.993 . S
N596 N595 1.388 . S
N596 C597 1.346 . S
C597 N596 1.346 . S
C597 C598 1.396 . S
C597 C607 1.510 . S
C598 C594 1.401 . S
C598 C597 1.396 . S
C599 C594 1.499 . S
C599 H600 0.959 . S
C599 H601 0.960 . S
C599 H602 0.961 . S
H600 C599 0.959 . S
H601 C599 0.960 . S
H602 C599 0.961 . S
O603 Co578 1.967 . S
O603 C611 1.258 . S
O604 Co579 1.941 . S
O604 C611 1.266 . S
H605 C607 0.959 . S
H606 C607 0.961 . S
C607 C597 1.510 . S
C607 H605 0.959 . S
C607 H606 0.961 . S
C607 H608 0.960 . S
H608 C607 0.960 . S
H609 N589 0.862 . S
O610 Co578 1.920 . S
O610 C583 1.289 . S
C611 O603 1.258 . S
C611 O604 1.266 . S
Co612 O615 1.970 . S
Co612 N629 1.989 . S
Co612 O637 1.967 . S
Co612 O644 1.920 . S
Co613 O616 1.966 . S
Co613 N622 2.022 . S
Co613 N630 1.993 . S
Co613 O638 1.941 . S
C614 O615 1.258 . S
C614 O616 1.263 . S
O615 Co612 1.970 . S
O615 C614 1.258 . S
O616 Co613 1.966 . S
O616 C614 1.263 . S
C617 O618 1.235 . S
C617 O644 1.289 . S
O618 C617 1.235 . S
C619 C621 1.400 . S
C619 N622 1.351 . S
C619 C624 1.501 . S
C620 C621 1.387 . S
C620 N623 1.341 . S
C621 C619 1.400 . S
C621 C620 1.387 . S
N622 Co613 2.022 . S
N622 C619 1.351 . S
N622 N623 1.365 . S
N623 C620 1.341 . S
N623 N622 1.365 . S
N623 H643 0.862 . S
C624 C619 1.501 . S
C624 H625 0.961 . S
C624 H626 0.961 . S
C624 H627 0.960 . S
H625 C624 0.961 . S
H626 C624 0.961 . S
H627 C624 0.960 . S
C628 N629 1.342 . S
C628 C632 1.401 . S
C628 C633 1.499 . S
N629 Co612 1.989 . S
N629 C628 1.342 . S
N629 N630 1.388 . S
N630 Co613 1.993 . S
N630 N629 1.388 . S
N630 C631 1.346 . S
C631 N630 1.346 . S
C631 C632 1.396 . S
C631 C641 1.510 . S
C632 C628 1.401 . S
C632 C631 1.396 . S
C633 C628 1.499 . S
C633 H634 0.959 . S
C633 H635 0.960 . S
C633 H636 0.961 . S
H634 C633 0.959 . S
H635 C633 0.960 . S
H636 C633 0.961 . S
O637 Co612 1.967 . S
O637 C645 1.258 . S
O638 Co613 1.941 . S
O638 C645 1.266 . S
H639 C641 0.959 . S
H640 C641 0.961 . S
C641 C631 1.510 . S
C641 H639 0.959 . S
C641 H640 0.961 . S
C641 H642 0.960 . S
H642 C641 0.960 . S
H643 N623 0.862 . S
O644 Co612 1.920 . S
O644 C617 1.289 . S
C645 O637 1.258 . S
C645 O638 1.266 . S
Co646 O649 1.970 . S
Co646 N663 1.989 . S
Co646 O671 1.967 . S
Co646 O678 1.920 . S
Co647 O650 1.966 . S
Co647 N656 2.022 . S
Co647 N664 1.993 . S
Co647 O672 1.941 . S
C648 O649 1.258 . S
C648 O650 1.263 . S
O649 Co646 1.970 . S
O649 C648 1.258 . S
O650 Co647 1.966 . S
O650 C648 1.263 . S
C651 O652 1.235 . S
C651 O678 1.289 . S
O652 C651 1.235 . S
C653 C655 1.400 . S
C653 N656 1.351 . S
C653 C658 1.501 . S
C654 C655 1.387 . S
C654 N657 1.341 . S
C655 C653 1.400 . S
C655 C654 1.387 . S
N656 Co647 2.022 . S
N656 C653 1.351 . S
N656 N657 1.365 . S
N657 C654 1.341 . S
N657 N656 1.365 . S
N657 H677 0.862 . S
C658 C653 1.501 . S
C658 H659 0.961 . S
C658 H660 0.961 . S
C658 H661 0.960 . S
H659 C658 0.961 . S
H660 C658 0.961 . S
H661 C658 0.960 . S
C662 N663 1.342 . S
C662 C666 1.401 . S
C662 C667 1.499 . S
N663 Co646 1.989 . S
N663 C662 1.342 . S
N663 N664 1.388 . S
N664 Co647 1.993 . S
N664 N663 1.388 . S
N664 C665 1.346 . S
C665 N664 1.346 . S
C665 C666 1.396 . S
C665 C675 1.510 . S
C666 C662 1.401 . S
C666 C665 1.396 . S
C667 C662 1.499 . S
C667 H668 0.959 . S
C667 H669 0.960 . S
C667 H670 0.961 . S
H668 C667 0.959 . S
H669 C667 0.960 . S
H670 C667 0.961 . S
O671 Co646 1.967 . S
O671 C679 1.258 . S
O672 Co647 1.941 . S
O672 C679 1.266 . S
H673 C675 0.959 . S
H674 C675 0.961 . S
C675 C665 1.510 . S
C675 H673 0.959 . S
C675 H674 0.961 . S
C675 H676 0.960 . S
H676 C675 0.960 . S
H677 N657 0.862 . S
O678 Co646 1.920 . S
O678 C651 1.289 . S
C679 O671 1.258 . S
C679 O672 1.266 . S
Co680 O683 1.970 . S
Co680 N697 1.989 . S
Co680 O705 1.967 . S
Co680 O712 1.920 . S
Co681 O684 1.966 . S
Co681 N690 2.022 . S
Co681 N698 1.993 . S
Co681 O706 1.941 . S
C682 O683 1.258 . S
C682 O684 1.263 . S
O683 Co680 1.970 . S
O683 C682 1.258 . S
O684 Co681 1.966 . S
O684 C682 1.263 . S
C685 O686 1.235 . S
C685 O712 1.289 . S
O686 C685 1.235 . S
C687 C689 1.400 . S
C687 N690 1.351 . S
C687 C692 1.501 . S
C688 C689 1.387 . S
C688 N691 1.341 . S
C689 C687 1.400 . S
C689 C688 1.387 . S
N690 Co681 2.022 . S
N690 C687 1.351 . S
N690 N691 1.365 . S
N691 C688 1.341 . S
N691 N690 1.365 . S
N691 H711 0.862 . S
C692 C687 1.501 . S
C692 H693 0.961 . S
C692 H694 0.961 . S
C692 H695 0.960 . S
H693 C692 0.961 . S
H694 C692 0.961 . S
H695 C692 0.960 . S
C696 N697 1.342 . S
C696 C700 1.401 . S
C696 C701 1.499 . S
N697 Co680 1.989 . S
N697 C696 1.342 . S
N697 N698 1.388 . S
N698 Co681 1.993 . S
N698 N697 1.388 . S
N698 C699 1.346 . S
C699 N698 1.346 . S
C699 C700 1.396 . S
C699 C709 1.510 . S
C700 C696 1.401 . S
C700 C699 1.396 . S
C701 C696 1.499 . S
C701 H702 0.959 . S
C701 H703 0.960 . S
C701 H704 0.961 . S
H702 C701 0.959 . S
H703 C701 0.960 . S
H704 C701 0.961 . S
O705 Co680 1.967 . S
O705 C713 1.258 . S
O706 Co681 1.941 . S
O706 C713 1.266 . S
H707 C709 0.959 . S
H708 C709 0.961 . S
C709 C699 1.510 . S
C709 H707 0.959 . S
C709 H708 0.961 . S
C709 H710 0.960 . S
H710 C709 0.960 . S
H711 N691 0.862 . S
O712 Co680 1.920 . S
O712 C685 1.289 . S
C713 O705 1.258 . S
C713 O706 1.266 . S
Co714 O717 1.970 . S
Co714 N731 1.989 . S
Co714 O739 1.967 . S
Co714 O746 1.920 . S
Co715 O718 1.966 . S
Co715 N724 2.022 . S
Co715 N732 1.993 . S
Co715 O740 1.941 . S
C716 O717 1.258 . S
C716 O718 1.263 . S
O717 Co714 1.970 . S
O717 C716 1.258 . S
O718 Co715 1.966 . S
O718 C716 1.263 . S
C719 O720 1.242 . S
C719 O746 1.282 1_565 S
O720 C719 1.242 . S
C721 C723 1.400 . S
C721 N724 1.351 . S
C721 C726 1.501 . S
C722 C723 1.387 . S
C722 N725 1.341 . S
C723 C721 1.400 . S
C723 C722 1.387 . S
N724 Co715 2.022 . S
N724 C721 1.351 . S
N724 N725 1.365 . S
N725 C722 1.341 . S
N725 N724 1.365 . S
N725 H745 0.862 . S
C726 C721 1.501 . S
C726 H727 0.961 . S
C726 H728 0.961 . S
C726 H729 0.960 . S
H727 C726 0.961 . S
H728 C726 0.961 . S
H729 C726 0.960 . S
C730 N731 1.342 . S
C730 C734 1.401 . S
C730 C735 1.499 . S
N731 Co714 1.989 . S
N731 C730 1.342 . S
N731 N732 1.388 . S
N732 Co715 1.993 . S
N732 N731 1.388 . S
N732 C733 1.346 . S
C733 N732 1.346 . S
C733 C734 1.396 . S
C733 C743 1.510 . S
C734 C730 1.401 . S
C734 C733 1.396 . S
C735 C730 1.499 . S
C735 H736 0.959 . S
C735 H737 0.960 . S
C735 H738 0.961 . S
H736 C735 0.959 . S
H737 C735 0.960 . S
H738 C735 0.961 . S
O739 Co714 1.967 . S
O739 C747 1.258 . S
O740 Co715 1.941 . S
O740 C747 1.266 . S
H741 C743 0.959 . S
H742 C743 0.961 . S
C743 C733 1.510 . S
C743 H741 0.959 . S
C743 H742 0.961 . S
C743 H744 0.960 . S
H744 C743 0.960 . S
H745 N725 0.862 . S
O746 Co714 1.920 . S
O746 C719 1.282 1_545 S
C747 O739 1.258 . S
C747 O740 1.266 . S
Co748 O751 1.970 . S
Co748 N765 1.989 . S
Co748 O773 1.967 . S
Co748 O780 1.920 . S
Co749 O752 1.966 . S
Co749 N758 2.022 . S
Co749 N766 1.993 . S
Co749 O774 1.941 . S
C750 O751 1.258 . S
C750 O752 1.263 . S
O751 Co748 1.970 . S
O751 C750 1.258 . S
O752 Co749 1.966 . S
O752 C750 1.263 . S
C753 O754 1.236 . S
C753 O780 1.281 1_455 S
O754 C753 1.236 . S
C755 C757 1.400 . S
C755 N758 1.351 . S
C755 C760 1.501 . S
C756 C757 1.387 . S
C756 N759 1.341 . S
C757 C755 1.400 . S
C757 C756 1.387 . S
N758 Co749 2.022 . S
N758 C755 1.351 . S
N758 N759 1.365 . S
N759 C756 1.341 . S
N759 N758 1.365 . S
N759 H779 0.862 . S
C760 C755 1.501 . S
C760 H761 0.961 . S
C760 H762 0.961 . S
C760 H763 0.960 . S
H761 C760 0.961 . S
H762 C760 0.961 . S
H763 C760 0.960 . S
C764 N765 1.342 . S
C764 C768 1.401 . S
C764 C769 1.499 . S
N765 Co748 1.989 . S
N765 C764 1.342 . S
N765 N766 1.388 . S
N766 Co749 1.993 . S
N766 N765 1.388 . S
N766 C767 1.346 . S
C767 N766 1.346 . S
C767 C768 1.396 . S
C767 C777 1.510 . S
C768 C764 1.401 . S
C768 C767 1.396 . S
C769 C764 1.499 . S
C769 H770 0.959 . S
C769 H771 0.960 . S
C769 H772 0.961 . S
H770 C769 0.959 . S
H771 C769 0.960 . S
H772 C769 0.961 . S
O773 Co748 1.967 . S
O773 C781 1.258 . S
O774 Co749 1.941 . S
O774 C781 1.266 . S
H775 C777 0.959 . S
H776 C777 0.961 . S
C777 C767 1.510 . S
C777 H775 0.959 . S
C777 H776 0.961 . S
C777 H778 0.960 . S
H778 C777 0.960 . S
H779 N759 0.862 . S
O780 Co748 1.920 . S
O780 C753 1.281 1_655 S
C781 O773 1.258 . S
C781 O774 1.266 . S
Co782 O785 1.970 . S
Co782 N799 1.989 . S
Co782 O807 1.967 . S
Co782 O814 1.920 . S
Co783 O786 1.966 . S
Co783 N792 2.022 . S
Co783 N800 1.993 . S
Co783 O808 1.941 . S
C784 O785 1.258 . S
C784 O786 1.263 . S
O785 Co782 1.970 . S
O785 C784 1.258 . S
O786 Co783 1.966 . S
O786 C784 1.263 . S
C787 O788 1.235 . S
C787 O814 1.289 . S
O788 C787 1.235 . S
C789 C791 1.400 . S
C789 N792 1.351 . S
C789 C794 1.501 . S
C790 C791 1.387 . S
C790 N793 1.341 . S
C791 C789 1.400 . S
C791 C790 1.387 . S
N792 Co783 2.022 . S
N792 C789 1.351 . S
N792 N793 1.365 . S
N793 C790 1.341 . S
N793 N792 1.365 . S
N793 H813 0.862 . S
C794 C789 1.501 . S
C794 H795 0.961 . S
C794 H796 0.961 . S
C794 H797 0.960 . S
H795 C794 0.961 . S
H796 C794 0.961 . S
H797 C794 0.960 . S
C798 N799 1.342 . S
C798 C802 1.401 . S
C798 C803 1.499 . S
N799 Co782 1.989 . S
N799 C798 1.342 . S
N799 N800 1.388 . S
N800 Co783 1.993 . S
N800 N799 1.388 . S
N800 C801 1.346 . S
C801 N800 1.346 . S
C801 C802 1.396 . S
C801 C811 1.510 . S
C802 C798 1.401 . S
C802 C801 1.396 . S
C803 C798 1.499 . S
C803 H804 0.959 . S
C803 H805 0.960 . S
C803 H806 0.961 . S
H804 C803 0.959 . S
H805 C803 0.960 . S
H806 C803 0.961 . S
O807 Co782 1.967 . S
O807 C815 1.258 . S
O808 Co783 1.941 . S
O808 C815 1.266 . S
H809 C811 0.959 . S
H810 C811 0.961 . S
C811 C801 1.510 . S
C811 H809 0.959 . S
C811 H810 0.961 . S
C811 H812 0.960 . S
H812 C811 0.960 . S
H813 N793 0.862 . S
O814 Co782 1.920 . S
O814 C787 1.289 . S
C815 O807 1.258 . S
C815 O808 1.266 . S
Co816 O819 1.970 . S
Co816 N833 1.989 . S
Co816 O841 1.967 . S
Co816 O848 1.920 . S
Co817 O820 1.966 . S
Co817 N826 2.022 . S
Co817 N834 1.993 . S
Co817 O842 1.941 . S
C818 O819 1.258 . S
C818 O820 1.263 . S
O819 Co816 1.970 . S
O819 C818 1.258 . S
O820 Co817 1.966 . S
O820 C818 1.263 . S
C821 O822 1.235 . S
C821 O848 1.289 . S
O822 C821 1.235 . S
C823 C825 1.400 . S
C823 N826 1.351 . S
C823 C828 1.501 . S
C824 C825 1.387 . S
C824 N827 1.341 . S
C825 C823 1.400 . S
C825 C824 1.387 . S
N826 Co817 2.022 . S
N826 C823 1.351 . S
N826 N827 1.365 . S
N827 C824 1.341 . S
N827 N826 1.365 . S
N827 H847 0.862 . S
C828 C823 1.501 . S
C828 H829 0.961 . S
C828 H830 0.961 . S
C828 H831 0.960 . S
H829 C828 0.961 . S
H830 C828 0.961 . S
H831 C828 0.960 . S
C832 N833 1.342 . S
C832 C836 1.401 . S
C832 C837 1.499 . S
N833 Co816 1.989 . S
N833 C832 1.342 . S
N833 N834 1.388 . S
N834 Co817 1.993 . S
N834 N833 1.388 . S
N834 C835 1.346 . S
C835 N834 1.346 . S
C835 C836 1.396 . S
C835 C845 1.510 . S
C836 C832 1.401 . S
C836 C835 1.396 . S
C837 C832 1.499 . S
C837 H838 0.959 . S
C837 H839 0.960 . S
C837 H840 0.961 . S
H838 C837 0.959 . S
H839 C837 0.960 . S
H840 C837 0.961 . S
O841 Co816 1.967 . S
O841 C849 1.258 . S
O842 Co817 1.941 . S
O842 C849 1.266 . S
H843 C845 0.959 . S
H844 C845 0.961 . S
C845 C835 1.510 . S
C845 H843 0.959 . S
C845 H844 0.961 . S
C845 H846 0.960 . S
H846 C845 0.960 . S
H847 N827 0.862 . S
O848 Co816 1.920 . S
O848 C821 1.289 . S
C849 O841 1.258 . S
C849 O842 1.266 . S
Co850 O853 1.970 . S
Co850 N867 1.989 . S
Co850 O875 1.967 . S
Co850 O882 1.920 . S
Co851 O854 1.966 . S
Co851 N860 2.022 . S
Co851 N868 1.993 . S
Co851 O876 1.941 . S
C852 O853 1.258 . S
C852 O854 1.263 . S
O853 Co850 1.970 . S
O853 C852 1.258 . S
O854 Co851 1.966 . S
O854 C852 1.263 . S
C855 O856 1.235 . S
C855 O882 1.289 . S
O856 C855 1.235 . S
C857 C859 1.400 . S
C857 N860 1.351 . S
C857 C862 1.501 . S
C858 C859 1.387 . S
C858 N861 1.341 . S
C859 C857 1.400 . S
C859 C858 1.387 . S
N860 Co851 2.022 . S
N860 C857 1.351 . S
N860 N861 1.365 . S
N861 C858 1.341 . S
N861 N860 1.365 . S
N861 H881 0.862 . S
C862 C857 1.501 . S
C862 H863 0.961 . S
C862 H864 0.961 . S
C862 H865 0.960 . S
H863 C862 0.961 . S
H864 C862 0.961 . S
H865 C862 0.960 . S
C866 N867 1.342 . S
C866 C870 1.401 . S
C866 C871 1.499 . S
N867 Co850 1.989 . S
N867 C866 1.342 . S
N867 N868 1.388 . S
N868 Co851 1.993 . S
N868 N867 1.388 . S
N868 C869 1.346 . S
C869 N868 1.346 . S
C869 C870 1.396 . S
C869 C879 1.510 . S
C870 C866 1.401 . S
C870 C869 1.396 . S
C871 C866 1.499 . S
C871 H872 0.959 . S
C871 H873 0.960 . S
C871 H874 0.961 . S
H872 C871 0.959 . S
H873 C871 0.960 . S
H874 C871 0.961 . S
O875 Co850 1.967 . S
O875 C883 1.258 . S
O876 Co851 1.941 . S
O876 C883 1.266 . S
H877 C879 0.959 . S
H878 C879 0.961 . S
C879 C869 1.510 . S
C879 H877 0.959 . S
C879 H878 0.961 . S
C879 H880 0.960 . S
H880 C879 0.960 . S
H881 N861 0.862 . S
O882 Co850 1.920 . S
O882 C855 1.289 . S
C883 O875 1.258 . S
C883 O876 1.266 . S
Co884 O887 1.970 . S
Co884 N901 1.989 . S
Co884 O909 1.967 . S
Co884 O916 1.920 . S
Co885 O888 1.966 . S
Co885 N894 2.022 . S
Co885 N902 1.993 . S
Co885 O910 1.941 . S
C886 O887 1.258 . S
C886 O888 1.263 . S
O887 Co884 1.970 . S
O887 C886 1.258 . S
O888 Co885 1.966 . S
O888 C886 1.263 . S
C889 O890 1.235 . S
C889 O916 1.289 . S
O890 C889 1.235 . S
C891 C893 1.400 . S
C891 N894 1.351 . S
C891 C896 1.501 . S
C892 C893 1.387 . S
C892 N895 1.341 . S
C893 C891 1.400 . S
C893 C892 1.387 . S
N894 Co885 2.022 . S
N894 C891 1.351 . S
N894 N895 1.365 . S
N895 C892 1.341 . S
N895 N894 1.365 . S
N895 H915 0.862 . S
C896 C891 1.501 . S
C896 H897 0.961 . S
C896 H898 0.961 . S
C896 H899 0.960 . S
H897 C896 0.961 . S
H898 C896 0.961 . S
H899 C896 0.960 . S
C900 N901 1.342 . S
C900 C904 1.401 . S
C900 C905 1.499 . S
N901 Co884 1.989 . S
N901 C900 1.342 . S
N901 N902 1.388 . S
N902 Co885 1.993 . S
N902 N901 1.388 . S
N902 C903 1.346 . S
C903 N902 1.346 . S
C903 C904 1.396 . S
C903 C913 1.510 . S
C904 C900 1.401 . S
C904 C903 1.396 . S
C905 C900 1.499 . S
C905 H906 0.959 . S
C905 H907 0.960 . S
C905 H908 0.961 . S
H906 C905 0.959 . S
H907 C905 0.960 . S
H908 C905 0.961 . S
O909 Co884 1.967 . S
O909 C917 1.258 . S
O910 Co885 1.941 . S
O910 C917 1.266 . S
H911 C913 0.959 . S
H912 C913 0.961 . S
C913 C903 1.510 . S
C913 H911 0.959 . S
C913 H912 0.961 . S
C913 H914 0.960 . S
H914 C913 0.960 . S
H915 N895 0.862 . S
O916 Co884 1.920 . S
O916 C889 1.289 . S
C917 O909 1.258 . S
C917 O910 1.266 . S
Co918 O921 1.970 . S
Co918 N935 1.989 . S
Co918 O943 1.967 . S
Co918 O950 1.920 . S
Co919 O922 1.966 . S
Co919 N928 2.022 . S
Co919 N936 1.993 . S
Co919 O944 1.941 . S
C920 O921 1.258 . S
C920 O922 1.263 . S
O921 Co918 1.970 . S
O921 C920 1.258 . S
O922 Co919 1.966 . S
O922 C920 1.263 . S
C923 O924 1.242 . S
C923 O950 1.282 1_545 S
O924 C923 1.242 . S
C925 C927 1.400 . S
C925 N928 1.351 . S
C925 C930 1.501 . S
C926 C927 1.387 . S
C926 N929 1.341 . S
C927 C925 1.400 . S
C927 C926 1.387 . S
N928 Co919 2.022 . S
N928 C925 1.351 . S
N928 N929 1.365 . S
N929 C926 1.341 . S
N929 N928 1.365 . S
N929 H949 0.862 . S
C930 C925 1.501 . S
C930 H931 0.961 . S
C930 H932 0.961 . S
C930 H933 0.960 . S
H931 C930 0.961 . S
H932 C930 0.961 . S
H933 C930 0.960 . S
C934 N935 1.342 . S
C934 C938 1.401 . S
C934 C939 1.499 . S
N935 Co918 1.989 . S
N935 C934 1.342 . S
N935 N936 1.388 . S
N936 Co919 1.993 . S
N936 N935 1.388 . S
N936 C937 1.346 . S
C937 N936 1.346 . S
C937 C938 1.396 . S
C937 C947 1.510 . S
C938 C934 1.401 . S
C938 C937 1.396 . S
C939 C934 1.499 . S
C939 H940 0.959 . S
C939 H941 0.960 . S
C939 H942 0.961 . S
H940 C939 0.959 . S
H941 C939 0.960 . S
H942 C939 0.961 . S
O943 Co918 1.967 . S
O943 C951 1.258 . S
O944 Co919 1.941 . S
O944 C951 1.266 . S
H945 C947 0.959 . S
H946 C947 0.961 . S
C947 C937 1.510 . S
C947 H945 0.959 . S
C947 H946 0.961 . S
C947 H948 0.960 . S
H948 C947 0.960 . S
H949 N929 0.862 . S
O950 Co918 1.920 . S
O950 C923 1.282 1_565 S
C951 O943 1.258 . S
C951 O944 1.266 . S
Co952 O955 1.970 . S
Co952 N969 1.989 . S
Co952 O977 1.967 . S
Co952 O984 1.920 . S
Co953 O956 1.966 . S
Co953 N962 2.022 . S
Co953 N970 1.993 . S
Co953 O978 1.941 . S
C954 O955 1.258 . S
C954 O956 1.263 . S
O955 Co952 1.970 . S
O955 C954 1.258 . S
O956 Co953 1.966 . S
O956 C954 1.263 . S
C957 O958 1.236 . S
C957 O984 1.281 1_655 S
O958 C957 1.236 . S
C959 C961 1.400 . S
C959 N962 1.351 . S
C959 C964 1.501 . S
C960 C961 1.387 . S
C960 N963 1.341 . S
C961 C959 1.400 . S
C961 C960 1.387 . S
N962 Co953 2.022 . S
N962 C959 1.351 . S
N962 N963 1.365 . S
N963 C960 1.341 . S
N963 N962 1.365 . S
N963 H983 0.862 . S
C964 C959 1.501 . S
C964 H965 0.961 . S
C964 H966 0.961 . S
C964 H967 0.960 . S
H965 C964 0.961 . S
H966 C964 0.961 . S
H967 C964 0.960 . S
C968 N969 1.342 . S
C968 C972 1.401 . S
C968 C973 1.499 . S
N969 Co952 1.989 . S
N969 C968 1.342 . S
N969 N970 1.388 . S
N970 Co953 1.993 . S
N970 N969 1.388 . S
N970 C971 1.346 . S
C971 N970 1.346 . S
C971 C972 1.396 . S
C971 C981 1.510 . S
C972 C968 1.401 . S
C972 C971 1.396 . S
C973 C968 1.499 . S
C973 H974 0.959 . S
C973 H975 0.960 . S
C973 H976 0.961 . S
H974 C973 0.959 . S
H975 C973 0.960 . S
H976 C973 0.961 . S
O977 Co952 1.967 . S
O977 C985 1.258 . S
O978 Co953 1.941 . S
O978 C985 1.266 . S
H979 C981 0.959 . S
H980 C981 0.961 . S
C981 C971 1.510 . S
C981 H979 0.959 . S
C981 H980 0.961 . S
C981 H982 0.960 . S
H982 C981 0.960 . S
H983 N963 0.862 . S
O984 Co952 1.920 . S
O984 C957 1.281 1_455 S
C985 O977 1.258 . S
C985 O978 1.266 . S
Co986 O989 1.970 . S
Co986 N1003 1.989 . S
Co986 O1011 1.967 . S
Co986 O1018 1.920 . S
Co987 O990 1.966 . S
Co987 N996 2.022 . S
Co987 N1004 1.993 . S
Co987 O1012 1.941 . S
C988 O989 1.258 . S
C988 O990 1.263 . S
O989 Co986 1.970 . S
O989 C988 1.258 . S
O990 Co987 1.966 . S
O990 C988 1.263 . S
C991 O992 1.235 . S
C991 O1018 1.289 . S
O992 C991 1.235 . S
C993 C995 1.400 . S
C993 N996 1.351 . S
C993 C998 1.501 . S
C994 C995 1.387 . S
C994 N997 1.341 . S
C995 C993 1.400 . S
C995 C994 1.387 . S
N996 Co987 2.022 . S
N996 C993 1.351 . S
N996 N997 1.365 . S
N997 C994 1.341 . S
N997 N996 1.365 . S
N997 H1017 0.862 . S
C998 C993 1.501 . S
C998 H999 0.961 . S
C998 H1000 0.961 . S
C998 H1001 0.960 . S
H999 C998 0.961 . S
H1000 C998 0.961 . S
H1001 C998 0.960 . S
C1002 N1003 1.342 . S
C1002 C1006 1.401 . S
C1002 C1007 1.499 . S
N1003 Co986 1.989 . S
N1003 C1002 1.342 . S
N1003 N1004 1.388 . S
N1004 Co987 1.993 . S
N1004 N1003 1.388 . S
N1004 C1005 1.346 . S
C1005 N1004 1.346 . S
C1005 C1006 1.396 . S
C1005 C1015 1.510 . S
C1006 C1002 1.401 . S
C1006 C1005 1.396 . S
C1007 C1002 1.499 . S
C1007 H1008 0.959 . S
C1007 H1009 0.960 . S
C1007 H1010 0.961 . S
H1008 C1007 0.959 . S
H1009 C1007 0.960 . S
H1010 C1007 0.961 . S
O1011 Co986 1.967 . S
O1011 C1019 1.258 . S
O1012 Co987 1.941 . S
O1012 C1019 1.266 . S
H1013 C1015 0.959 . S
H1014 C1015 0.961 . S
C1015 C1005 1.510 . S
C1015 H1013 0.959 . S
C1015 H1014 0.961 . S
C1015 H1016 0.960 . S
H1016 C1015 0.960 . S
H1017 N997 0.862 . S
O1018 Co986 1.920 . S
O1018 C991 1.289 . S
C1019 O1011 1.258 . S
C1019 O1012 1.266 . S
Co1020 O1023 1.970 . S
Co1020 N1037 1.989 . S
Co1020 O1045 1.967 . S
Co1020 O1052 1.920 . S
Co1021 O1024 1.966 . S
Co1021 N1030 2.022 . S
Co1021 N1038 1.993 . S
Co1021 O1046 1.941 . S
C1022 O1023 1.258 . S
C1022 O1024 1.263 . S
O1023 Co1020 1.970 . S
O1023 C1022 1.258 . S
O1024 Co1021 1.966 . S
O1024 C1022 1.263 . S
C1025 O1026 1.242 . S
C1025 O1052 1.282 1_655 S
O1026 C1025 1.242 . S
C1027 C1029 1.400 . S
C1027 N1030 1.351 . S
C1027 C1032 1.501 . S
C1028 C1029 1.387 . S
C1028 N1031 1.341 . S
C1029 C1027 1.400 . S
C1029 C1028 1.387 . S
N1030 Co1021 2.022 . S
N1030 C1027 1.351 . S
N1030 N1031 1.365 . S
N1031 C1028 1.341 . S
N1031 N1030 1.365 . S
N1031 H1051 0.862 . S
C1032 C1027 1.501 . S
C1032 H1033 0.961 . S
C1032 H1034 0.961 . S
C1032 H1035 0.960 . S
H1033 C1032 0.961 . S
H1034 C1032 0.961 . S
H1035 C1032 0.960 . S
C1036 N1037 1.342 . S
C1036 C1040 1.401 . S
C1036 C1041 1.499 . S
N1037 Co1020 1.989 . S
N1037 C1036 1.342 . S
N1037 N1038 1.388 . S
N1038 Co1021 1.993 . S
N1038 N1037 1.388 . S
N1038 C1039 1.346 . S
C1039 N1038 1.346 . S
C1039 C1040 1.396 . S
C1039 C1049 1.510 . S
C1040 C1036 1.401 . S
C1040 C1039 1.396 . S
C1041 C1036 1.499 . S
C1041 H1042 0.959 . S
C1041 H1043 0.960 . S
C1041 H1044 0.961 . S
H1042 C1041 0.959 . S
H1043 C1041 0.960 . S
H1044 C1041 0.961 . S
O1045 Co1020 1.967 . S
O1045 C1053 1.258 . S
O1046 Co1021 1.941 . S
O1046 C1053 1.266 . S
H1047 C1049 0.959 . S
H1048 C1049 0.961 . S
C1049 C1039 1.510 . S
C1049 H1047 0.959 . S
C1049 H1048 0.961 . S
C1049 H1050 0.960 . S
H1050 C1049 0.960 . S
H1051 N1031 0.862 . S
O1052 Co1020 1.920 . S
O1052 C1025 1.282 1_455 S
C1053 O1045 1.258 . S
C1053 O1046 1.266 . S
Co1054 O1057 1.970 . S
Co1054 N1071 1.989 . S
Co1054 O1079 1.967 . S
Co1054 O1086 1.920 . S
Co1055 O1058 1.966 . S
Co1055 N1064 2.022 . S
Co1055 N1072 1.993 . S
Co1055 O1080 1.941 . S
C1056 O1057 1.258 . S
C1056 O1058 1.263 . S
O1057 Co1054 1.970 . S
O1057 C1056 1.258 . S
O1058 Co1055 1.966 . S
O1058 C1056 1.263 . S
C1059 O1060 1.235 . S
C1059 O1086 1.289 . S
O1060 C1059 1.235 . S
C1061 C1063 1.400 . S
C1061 N1064 1.351 . S
C1061 C1066 1.501 . S
C1062 C1063 1.387 . S
C1062 N1065 1.341 . S
C1063 C1061 1.400 . S
C1063 C1062 1.387 . S
N1064 Co1055 2.022 . S
N1064 C1061 1.351 . S
N1064 N1065 1.365 . S
N1065 C1062 1.341 . S
N1065 N1064 1.365 . S
N1065 H1085 0.862 . S
C1066 C1061 1.501 . S
C1066 H1067 0.961 . S
C1066 H1068 0.961 . S
C1066 H1069 0.960 . S
H1067 C1066 0.961 . S
H1068 C1066 0.961 . S
H1069 C1066 0.960 . S
C1070 N1071 1.342 . S
C1070 C1074 1.401 . S
C1070 C1075 1.499 . S
N1071 Co1054 1.989 . S
N1071 C1070 1.342 . S
N1071 N1072 1.388 . S
N1072 Co1055 1.993 . S
N1072 N1071 1.388 . S
N1072 C1073 1.346 . S
C1073 N1072 1.346 . S
C1073 C1074 1.396 . S
C1073 C1083 1.510 . S
C1074 C1070 1.401 . S
C1074 C1073 1.396 . S
C1075 C1070 1.499 . S
C1075 H1076 0.959 . S
C1075 H1077 0.960 . S
C1075 H1078 0.961 . S
H1076 C1075 0.959 . S
H1077 C1075 0.960 . S
H1078 C1075 0.961 . S
O1079 Co1054 1.967 . S
O1079 C1087 1.258 . S
O1080 Co1055 1.941 . S
O1080 C1087 1.266 . S
H1081 C1083 0.959 . S
H1082 C1083 0.961 . S
C1083 C1073 1.510 . S
C1083 H1081 0.959 . S
C1083 H1082 0.961 . S
C1083 H1084 0.960 . S
H1084 C1083 0.960 . S
H1085 N1065 0.862 . S
O1086 Co1054 1.920 . S
O1086 C1059 1.289 . S
C1087 O1079 1.258 . S
C1087 O1080 1.266 . S
Co1088 O1091 1.970 . S
Co1088 N1105 1.989 . S
Co1088 O1113 1.967 . S
Co1088 O1120 1.920 . S
Co1089 O1092 1.966 . S
Co1089 N1098 2.022 . S
Co1089 N1106 1.993 . S
Co1089 O1114 1.941 . S
C1090 O1091 1.258 . S
C1090 O1092 1.263 . S
O1091 Co1088 1.970 . S
O1091 C1090 1.258 . S
O1092 Co1089 1.966 . S
O1092 C1090 1.263 . S
C1093 O1094 1.236 . S
C1093 O1120 1.281 1_545 S
O1094 C1093 1.236 . S
C1095 C1097 1.400 . S
C1095 N1098 1.351 . S
C1095 C1100 1.501 . S
C1096 C1097 1.387 . S
C1096 N1099 1.341 . S
C1097 C1095 1.400 . S
C1097 C1096 1.387 . S
N1098 Co1089 2.022 . S
N1098 C1095 1.351 . S
N1098 N1099 1.365 . S
N1099 C1096 1.341 . S
N1099 N1098 1.365 . S
N1099 H1119 0.862 . S
C1100 C1095 1.501 . S
C1100 H1101 0.961 . S
C1100 H1102 0.961 . S
C1100 H1103 0.960 . S
H1101 C1100 0.961 . S
H1102 C1100 0.961 . S
H1103 C1100 0.960 . S
C1104 N1105 1.342 . S
C1104 C1108 1.401 . S
C1104 C1109 1.499 . S
N1105 Co1088 1.989 . S
N1105 C1104 1.342 . S
N1105 N1106 1.388 . S
N1106 Co1089 1.993 . S
N1106 N1105 1.388 . S
N1106 C1107 1.346 . S
C1107 N1106 1.346 . S
C1107 C1108 1.396 . S
C1107 C1117 1.510 . S
C1108 C1104 1.401 . S
C1108 C1107 1.396 . S
C1109 C1104 1.499 . S
C1109 H1110 0.959 . S
C1109 H1111 0.960 . S
C1109 H1112 0.961 . S
H1110 C1109 0.959 . S
H1111 C1109 0.960 . S
H1112 C1109 0.961 . S
O1113 Co1088 1.967 . S
O1113 C1121 1.258 . S
O1114 Co1089 1.941 . S
O1114 C1121 1.266 . S
H1115 C1117 0.959 . S
H1116 C1117 0.961 . S
C1117 C1107 1.510 . S
C1117 H1115 0.959 . S
C1117 H1116 0.961 . S
C1117 H1118 0.960 . S
H1118 C1117 0.960 . S
H1119 N1099 0.862 . S
O1120 Co1088 1.920 . S
O1120 C1093 1.281 1_565 S
C1121 O1113 1.258 . S
C1121 O1114 1.266 . S
Co1122 O1125 1.970 . S
Co1122 N1139 1.989 . S
Co1122 O1147 1.967 . S
Co1122 O1154 1.920 . S
Co1123 O1126 1.966 . S
Co1123 N1132 2.022 . S
Co1123 N1140 1.993 . S
Co1123 O1148 1.941 . S
C1124 O1125 1.258 . S
C1124 O1126 1.263 . S
O1125 Co1122 1.970 . S
O1125 C1124 1.258 . S
O1126 Co1123 1.966 . S
O1126 C1124 1.263 . S
C1127 O1128 1.235 . S
C1127 O1154 1.289 . S
O1128 C1127 1.235 . S
C1129 C1131 1.400 . S
C1129 N1132 1.351 . S
C1129 C1134 1.501 . S
C1130 C1131 1.387 . S
C1130 N1133 1.341 . S
C1131 C1129 1.400 . S
C1131 C1130 1.387 . S
N1132 Co1123 2.022 . S
N1132 C1129 1.351 . S
N1132 N1133 1.365 . S
N1133 C1130 1.341 . S
N1133 N1132 1.365 . S
N1133 H1153 0.862 . S
C1134 C1129 1.501 . S
C1134 H1135 0.961 . S
C1134 H1136 0.961 . S
C1134 H1137 0.960 . S
H1135 C1134 0.961 . S
H1136 C1134 0.961 . S
H1137 C1134 0.960 . S
C1138 N1139 1.342 . S
C1138 C1142 1.401 . S
C1138 C1143 1.499 . S
N1139 Co1122 1.989 . S
N1139 C1138 1.342 . S
N1139 N1140 1.388 . S
N1140 Co1123 1.993 . S
N1140 N1139 1.388 . S
N1140 C1141 1.346 . S
C1141 N1140 1.346 . S
C1141 C1142 1.396 . S
C1141 C1151 1.510 . S
C1142 C1138 1.401 . S
C1142 C1141 1.396 . S
C1143 C1138 1.499 . S
C1143 H1144 0.959 . S
C1143 H1145 0.960 . S
C1143 H1146 0.961 . S
H1144 C1143 0.959 . S
H1145 C1143 0.960 . S
H1146 C1143 0.961 . S
O1147 Co1122 1.967 . S
O1147 C1155 1.258 . S
O1148 Co1123 1.941 . S
O1148 C1155 1.266 . S
H1149 C1151 0.959 . S
H1150 C1151 0.961 . S
C1151 C1141 1.510 . S
C1151 H1149 0.959 . S
C1151 H1150 0.961 . S
C1151 H1152 0.960 . S
H1152 C1151 0.960 . S
H1153 N1133 0.862 . S
O1154 Co1122 1.920 . S
O1154 C1127 1.289 . S
C1155 O1147 1.258 . S
C1155 O1148 1.266 . S
Co1156 O1159 1.970 . S
Co1156 N1173 1.989 . S
Co1156 O1181 1.967 . S
Co1156 O1188 1.920 . S
Co1157 O1160 1.966 . S
Co1157 N1166 2.022 . S
Co1157 N1174 1.993 . S
Co1157 O1182 1.941 . S
C1158 O1159 1.258 . S
C1158 O1160 1.263 . S
O1159 Co1156 1.970 . S
O1159 C1158 1.258 . S
O1160 Co1157 1.966 . S
O1160 C1158 1.263 . S
C1161 O1162 1.235 . S
C1161 O1188 1.289 . S
O1162 C1161 1.235 . S
C1163 C1165 1.400 . S
C1163 N1166 1.351 . S
C1163 C1168 1.501 . S
C1164 C1165 1.387 . S
C1164 N1167 1.341 . S
C1165 C1163 1.400 . S
C1165 C1164 1.387 . S
N1166 Co1157 2.022 . S
N1166 C1163 1.351 . S
N1166 N1167 1.365 . S
N1167 C1164 1.341 . S
N1167 N1166 1.365 . S
N1167 H1187 0.862 . S
C1168 C1163 1.501 . S
C1168 H1169 0.961 . S
C1168 H1170 0.961 . S
C1168 H1171 0.960 . S
H1169 C1168 0.961 . S
H1170 C1168 0.961 . S
H1171 C1168 0.960 . S
C1172 N1173 1.342 . S
C1172 C1176 1.401 . S
C1172 C1177 1.499 . S
N1173 Co1156 1.989 . S
N1173 C1172 1.342 . S
N1173 N1174 1.388 . S
N1174 Co1157 1.993 . S
N1174 N1173 1.388 . S
N1174 C1175 1.346 . S
C1175 N1174 1.346 . S
C1175 C1176 1.396 . S
C1175 C1185 1.510 . S
C1176 C1172 1.401 . S
C1176 C1175 1.396 . S
C1177 C1172 1.499 . S
C1177 H1178 0.959 . S
C1177 H1179 0.960 . S
C1177 H1180 0.961 . S
H1178 C1177 0.959 . S
H1179 C1177 0.960 . S
H1180 C1177 0.961 . S
O1181 Co1156 1.967 . S
O1181 C1189 1.258 . S
O1182 Co1157 1.941 . S
O1182 C1189 1.266 . S
H1183 C1185 0.959 . S
H1184 C1185 0.961 . S
C1185 C1175 1.510 . S
C1185 H1183 0.959 . S
C1185 H1184 0.961 . S
C1185 H1186 0.960 . S
H1186 C1185 0.960 . S
H1187 N1167 0.862 . S
O1188 Co1156 1.920 . S
O1188 C1161 1.289 . S
C1189 O1181 1.258 . S
C1189 O1182 1.266 . S
Co1190 O1193 1.970 . S
Co1190 N1207 1.989 . S
Co1190 O1215 1.967 . S
Co1190 O1222 1.920 . S
Co1191 O1194 1.966 . S
Co1191 N1200 2.022 . S
Co1191 N1208 1.993 . S
Co1191 O1216 1.941 . S
C1192 O1193 1.258 . S
C1192 O1194 1.263 . S
O1193 Co1190 1.970 . S
O1193 C1192 1.258 . S
O1194 Co1191 1.966 . S
O1194 C1192 1.263 . S
C1195 O1196 1.235 . S
C1195 O1222 1.289 . S
O1196 C1195 1.235 . S
C1197 C1199 1.400 . S
C1197 N1200 1.351 . S
C1197 C1202 1.501 . S
C1198 C1199 1.387 . S
C1198 N1201 1.341 . S
C1199 C1197 1.400 . S
C1199 C1198 1.387 . S
N1200 Co1191 2.022 . S
N1200 C1197 1.351 . S
N1200 N1201 1.365 . S
N1201 C1198 1.341 . S
N1201 N1200 1.365 . S
N1201 H1221 0.862 . S
C1202 C1197 1.501 . S
C1202 H1203 0.961 . S
C1202 H1204 0.961 . S
C1202 H1205 0.960 . S
H1203 C1202 0.961 . S
H1204 C1202 0.961 . S
H1205 C1202 0.960 . S
C1206 N1207 1.342 . S
C1206 C1210 1.401 . S
C1206 C1211 1.499 . S
N1207 Co1190 1.989 . S
N1207 C1206 1.342 . S
N1207 N1208 1.388 . S
N1208 Co1191 1.993 . S
N1208 N1207 1.388 . S
N1208 C1209 1.346 . S
C1209 N1208 1.346 . S
C1209 C1210 1.396 . S
C1209 C1219 1.510 . S
C1210 C1206 1.401 . S
C1210 C1209 1.396 . S
C1211 C1206 1.499 . S
C1211 H1212 0.959 . S
C1211 H1213 0.960 . S
C1211 H1214 0.961 . S
H1212 C1211 0.959 . S
H1213 C1211 0.960 . S
H1214 C1211 0.961 . S
O1215 Co1190 1.967 . S
O1215 C1223 1.258 . S
O1216 Co1191 1.941 . S
O1216 C1223 1.266 . S
H1217 C1219 0.959 . S
H1218 C1219 0.961 . S
C1219 C1209 1.510 . S
C1219 H1217 0.959 . S
C1219 H1218 0.961 . S
C1219 H1220 0.960 . S
H1220 C1219 0.960 . S
H1221 N1201 0.862 . S
O1222 Co1190 1.920 . S
O1222 C1195 1.289 . S
C1223 O1215 1.258 . S
C1223 O1216 1.266 . S
C1224 C1225 1.391 . S
C1224 C1226 1.394 . S
C1224 H1240 0.931 . S
C1225 C1224 1.391 . S
C1225 C1229 1.376 . S
C1226 C1224 1.394 . S
C1226 C1227 1.369 . S
C1226 C1230 1.531 . S
C1227 C1226 1.369 . S
C1227 C1228 1.410 . S
C1227 C1235 1.503 . S
C1228 C1227 1.410 . S
C1228 C1229 1.392 . S
C1228 C1231 1.511 . S
C1229 C1225 1.376 . S
C1229 C1228 1.392 . S
C1229 H1241 0.929 . S
C1230 C1226 1.531 . S
C1230 H1242 0.960 . S
C1230 H1243 0.962 . S
C1230 H1244 0.960 . S
C1231 C1228 1.511 . S
C1231 H1245 0.961 . S
C1231 H1246 0.961 . S
C1231 H1247 0.961 . S
C1232 C1233 1.370 . S
C1232 C1234 1.363 . S
C1232 H1248 0.931 . S
C1233 C1232 1.370 . S
C1233 C1237 1.408 . S
C1234 C1232 1.363 . S
C1234 C1235 1.370 . S
C1234 C1238 1.524 . S
C1235 C1227 1.503 . S
C1235 C1234 1.370 . S
C1235 C1236 1.403 . S
C1236 C1235 1.403 . S
C1236 C1237 1.404 . S
C1236 C1239 1.539 . S
C1237 C1233 1.408 . S
C1237 C1236 1.404 . S
C1237 H1249 0.930 . S
C1238 C1234 1.524 . S
C1238 H1250 0.956 . S
C1238 H1251 0.961 . S
C1238 H1252 0.961 . S
C1239 C1236 1.539 . S
C1239 H1253 0.958 . S
C1239 H1254 0.961 . S
C1239 H1255 0.960 . S
H1240 C1224 0.931 . S
H1241 C1229 0.929 . S
H1242 C1230 0.960 . S
H1243 C1230 0.962 . S
H1244 C1230 0.960 . S
H1245 C1231 0.961 . S
H1246 C1231 0.961 . S
H1247 C1231 0.961 . S
H1248 C1232 0.931 . S
H1249 C1237 0.930 . S
H1250 C1238 0.956 . S
H1251 C1238 0.961 . S
H1252 C1238 0.961 . S
H1253 C1239 0.958 . S
H1254 C1239 0.961 . S
H1255 C1239 0.960 . S
C1256 C1257 1.391 . S
C1256 C1258 1.394 . S
C1256 H1272 0.931 . S
C1257 C1256 1.391 . S
C1257 C1261 1.376 . S
C1258 C1256 1.394 . S
C1258 C1259 1.369 . S
C1258 C1262 1.531 . S
C1259 C1258 1.369 . S
C1259 C1260 1.410 . S
C1259 C1267 1.503 . S
C1260 C1259 1.410 . S
C1260 C1261 1.392 . S
C1260 C1263 1.511 . S
C1261 C1257 1.376 . S
C1261 C1260 1.392 . S
C1261 H1273 0.929 . S
C1262 C1258 1.531 . S
C1262 H1274 0.960 . S
C1262 H1275 0.962 . S
C1262 H1276 0.960 . S
C1263 C1260 1.511 . S
C1263 H1277 0.961 . S
C1263 H1278 0.961 . S
C1263 H1279 0.961 . S
C1264 C1265 1.370 . S
C1264 C1266 1.363 . S
C1264 H1280 0.931 . S
C1265 C1264 1.370 . S
C1265 C1269 1.408 . S
C1266 C1264 1.363 . S
C1266 C1267 1.370 . S
C1266 C1270 1.524 . S
C1267 C1259 1.503 . S
C1267 C1266 1.370 . S
C1267 C1268 1.403 . S
C1268 C1267 1.403 . S
C1268 C1269 1.404 . S
C1268 C1271 1.539 . S
C1269 C1265 1.408 . S
C1269 C1268 1.404 . S
C1269 H1281 0.930 . S
C1270 C1266 1.524 . S
C1270 H1282 0.956 . S
C1270 H1283 0.961 . S
C1270 H1284 0.961 . S
C1271 C1268 1.539 . S
C1271 H1285 0.958 . S
C1271 H1286 0.961 . S
C1271 H1287 0.960 . S
H1272 C1256 0.931 . S
H1273 C1261 0.929 . S
H1274 C1262 0.960 . S
H1275 C1262 0.962 . S
H1276 C1262 0.960 . S
H1277 C1263 0.961 . S
H1278 C1263 0.961 . S
H1279 C1263 0.961 . S
H1280 C1264 0.931 . S
H1281 C1269 0.930 . S
H1282 C1270 0.956 . S
H1283 C1270 0.961 . S
H1284 C1270 0.961 . S
H1285 C1271 0.958 . S
H1286 C1271 0.961 . S
H1287 C1271 0.960 . S
C1288 C1289 1.391 . S
C1288 C1290 1.394 . S
C1288 H1304 0.931 . S
C1289 C1288 1.391 . S
C1289 C1293 1.376 . S
C1290 C1288 1.394 . S
C1290 C1291 1.369 . S
C1290 C1294 1.531 . S
C1291 C1290 1.369 . S
C1291 C1292 1.410 . S
C1291 C1299 1.503 . S
C1292 C1291 1.410 . S
C1292 C1293 1.392 . S
C1292 C1295 1.511 . S
C1293 C1289 1.376 . S
C1293 C1292 1.392 . S
C1293 H1305 0.929 . S
C1294 C1290 1.531 . S
C1294 H1306 0.960 . S
C1294 H1307 0.962 . S
C1294 H1308 0.960 . S
C1295 C1292 1.511 . S
C1295 H1309 0.961 . S
C1295 H1310 0.961 . S
C1295 H1311 0.961 . S
C1296 C1297 1.370 . S
C1296 C1298 1.363 . S
C1296 H1312 0.931 . S
C1297 C1296 1.370 . S
C1297 C1301 1.408 . S
C1298 C1296 1.363 . S
C1298 C1299 1.370 . S
C1298 C1302 1.524 . S
C1299 C1291 1.503 . S
C1299 C1298 1.370 . S
C1299 C1300 1.403 . S
C1300 C1299 1.403 . S
C1300 C1301 1.404 . S
C1300 C1303 1.539 . S
C1301 C1297 1.408 . S
C1301 C1300 1.404 . S
C1301 H1313 0.930 . S
C1302 C1298 1.524 . S
C1302 H1314 0.956 . S
C1302 H1315 0.961 . S
C1302 H1316 0.961 . S
C1303 C1300 1.539 . S
C1303 H1317 0.958 . S
C1303 H1318 0.961 . S
C1303 H1319 0.960 . S
H1304 C1288 0.931 . S
H1305 C1293 0.929 . S
H1306 C1294 0.960 . S
H1307 C1294 0.962 . S
H1308 C1294 0.960 . S
H1309 C1295 0.961 . S
H1310 C1295 0.961 . S
H1311 C1295 0.961 . S
H1312 C1296 0.931 . S
H1313 C1301 0.930 . S
H1314 C1302 0.956 . S
H1315 C1302 0.961 . S
H1316 C1302 0.961 . S
H1317 C1303 0.958 . S
H1318 C1303 0.961 . S
H1319 C1303 0.960 . S
C1320 C1321 1.391 . S
C1320 C1322 1.394 . S
C1320 H1336 0.931 . S
C1321 C1320 1.391 . S
C1321 C1325 1.376 . S
C1322 C1320 1.394 . S
C1322 C1323 1.369 . S
C1322 C1326 1.531 . S
C1323 C1322 1.369 . S
C1323 C1324 1.410 . S
C1323 C1331 1.503 . S
C1324 C1323 1.410 . S
C1324 C1325 1.392 . S
C1324 C1327 1.511 . S
C1325 C1321 1.376 . S
C1325 C1324 1.392 . S
C1325 H1337 0.929 . S
C1326 C1322 1.531 . S
C1326 H1338 0.960 . S
C1326 H1339 0.962 . S
C1326 H1340 0.960 . S
C1327 C1324 1.511 . S
C1327 H1341 0.961 . S
C1327 H1342 0.961 . S
C1327 H1343 0.961 . S
C1328 C1329 1.370 . S
C1328 C1330 1.363 . S
C1328 H1344 0.931 . S
C1329 C1328 1.370 . S
C1329 C1333 1.408 . S
C1330 C1328 1.363 . S
C1330 C1331 1.370 . S
C1330 C1334 1.524 . S
C1331 C1323 1.503 . S
C1331 C1330 1.370 . S
C1331 C1332 1.403 . S
C1332 C1331 1.403 . S
C1332 C1333 1.404 . S
C1332 C1335 1.539 . S
C1333 C1329 1.408 . S
C1333 C1332 1.404 . S
C1333 H1345 0.930 . S
C1334 C1330 1.524 . S
C1334 H1346 0.956 . S
C1334 H1347 0.961 . S
C1334 H1348 0.961 . S
C1335 C1332 1.539 . S
C1335 H1349 0.958 . S
C1335 H1350 0.961 . S
C1335 H1351 0.960 . S
H1336 C1320 0.931 . S
H1337 C1325 0.929 . S
H1338 C1326 0.960 . S
H1339 C1326 0.962 . S
H1340 C1326 0.960 . S
H1341 C1327 0.961 . S
H1342 C1327 0.961 . S
H1343 C1327 0.961 . S
H1344 C1328 0.931 . S
H1345 C1333 0.930 . S
H1346 C1334 0.956 . S
H1347 C1334 0.961 . S
H1348 C1334 0.961 . S
H1349 C1335 0.958 . S
H1350 C1335 0.961 . S
H1351 C1335 0.960 . S
C1352 C1353 1.391 . S
C1352 C1354 1.394 . S
C1352 H1368 0.931 . S
C1353 C1352 1.391 . S
C1353 C1357 1.376 . S
C1354 C1352 1.394 . S
C1354 C1355 1.369 . S
C1354 C1358 1.531 . S
C1355 C1354 1.369 . S
C1355 C1356 1.410 . S
C1355 C1363 1.503 . S
C1356 C1355 1.410 . S
C1356 C1357 1.392 . S
C1356 C1359 1.511 . S
C1357 C1353 1.376 . S
C1357 C1356 1.392 . S
C1357 H1369 0.929 . S
C1358 C1354 1.531 . S
C1358 H1370 0.960 . S
C1358 H1371 0.962 . S
C1358 H1372 0.960 . S
C1359 C1356 1.511 . S
C1359 H1373 0.961 . S
C1359 H1374 0.961 . S
C1359 H1375 0.961 . S
C1360 C1361 1.370 . S
C1360 C1362 1.363 . S
C1360 H1376 0.931 . S
C1361 C1360 1.370 . S
C1361 C1365 1.408 . S
C1362 C1360 1.363 . S
C1362 C1363 1.370 . S
C1362 C1366 1.524 . S
C1363 C1355 1.503 . S
C1363 C1362 1.370 . S
C1363 C1364 1.403 . S
C1364 C1363 1.403 . S
C1364 C1365 1.404 . S
C1364 C1367 1.539 . S
C1365 C1361 1.408 . S
C1365 C1364 1.404 . S
C1365 H1377 0.930 . S
C1366 C1362 1.524 . S
C1366 H1378 0.956 . S
C1366 H1379 0.961 . S
C1366 H1380 0.961 . S
C1367 C1364 1.539 . S
C1367 H1381 0.958 . S
C1367 H1382 0.961 . S
C1367 H1383 0.960 . S
H1368 C1352 0.931 . S
H1369 C1357 0.929 . S
H1370 C1358 0.960 . S
H1371 C1358 0.962 . S
H1372 C1358 0.960 . S
H1373 C1359 0.961 . S
H1374 C1359 0.961 . S
H1375 C1359 0.961 . S
H1376 C1360 0.931 . S
H1377 C1365 0.930 . S
H1378 C1366 0.956 . S
H1379 C1366 0.961 . S
H1380 C1366 0.961 . S
H1381 C1367 0.958 . S
H1382 C1367 0.961 . S
H1383 C1367 0.960 . S
C1384 C1385 1.391 . S
C1384 C1386 1.394 . S
C1384 H1400 0.931 . S
C1385 C1384 1.391 . S
C1385 C1389 1.376 . S
C1386 C1384 1.394 . S
C1386 C1387 1.369 . S
C1386 C1390 1.531 . S
C1387 C1386 1.369 . S
C1387 C1388 1.410 . S
C1387 C1395 1.503 . S
C1388 C1387 1.410 . S
C1388 C1389 1.392 . S
C1388 C1391 1.511 . S
C1389 C1385 1.376 . S
C1389 C1388 1.392 . S
C1389 H1401 0.929 . S
C1390 C1386 1.531 . S
C1390 H1402 0.960 . S
C1390 H1403 0.962 . S
C1390 H1404 0.960 . S
C1391 C1388 1.511 . S
C1391 H1405 0.961 . S
C1391 H1406 0.961 . S
C1391 H1407 0.961 . S
C1392 C1393 1.370 . S
C1392 C1394 1.363 . S
C1392 H1408 0.931 . S
C1393 C1392 1.370 . S
C1393 C1397 1.408 . S
C1394 C1392 1.363 . S
C1394 C1395 1.370 . S
C1394 C1398 1.524 . S
C1395 C1387 1.503 . S
C1395 C1394 1.370 . S
C1395 C1396 1.403 . S
C1396 C1395 1.403 . S
C1396 C1397 1.404 . S
C1396 C1399 1.539 . S
C1397 C1393 1.408 . S
C1397 C1396 1.404 . S
C1397 H1409 0.930 . S
C1398 C1394 1.524 . S
C1398 H1410 0.956 . S
C1398 H1411 0.961 . S
C1398 H1412 0.961 . S
C1399 C1396 1.539 . S
C1399 H1413 0.958 . S
C1399 H1414 0.961 . S
C1399 H1415 0.960 . S
H1400 C1384 0.931 . S
H1401 C1389 0.929 . S
H1402 C1390 0.960 . S
H1403 C1390 0.962 . S
H1404 C1390 0.960 . S
H1405 C1391 0.961 . S
H1406 C1391 0.961 . S
H1407 C1391 0.961 . S
H1408 C1392 0.931 . S
H1409 C1397 0.930 . S
H1410 C1398 0.956 . S
H1411 C1398 0.961 . S
H1412 C1398 0.961 . S
H1413 C1399 0.958 . S
H1414 C1399 0.961 . S
H1415 C1399 0.960 . S
C1416 C1417 1.391 . S
C1416 C1418 1.394 . S
C1416 H1432 0.931 . S
C1417 C1416 1.391 . S
C1417 C1421 1.376 . S
C1418 C1416 1.394 . S
C1418 C1419 1.369 . S
C1418 C1422 1.531 . S
C1419 C1418 1.369 . S
C1419 C1420 1.410 . S
C1419 C1427 1.503 . S
C1420 C1419 1.410 . S
C1420 C1421 1.392 . S
C1420 C1423 1.511 . S
C1421 C1417 1.376 . S
C1421 C1420 1.392 . S
C1421 H1433 0.929 . S
C1422 C1418 1.531 . S
C1422 H1434 0.960 . S
C1422 H1435 0.962 . S
C1422 H1436 0.960 . S
C1423 C1420 1.511 . S
C1423 H1437 0.961 . S
C1423 H1438 0.961 . S
C1423 H1439 0.961 . S
C1424 C1425 1.370 . S
C1424 C1426 1.363 . S
C1424 H1440 0.931 . S
C1425 C1424 1.370 . S
C1425 C1429 1.408 . S
C1426 C1424 1.363 . S
C1426 C1427 1.370 . S
C1426 C1430 1.524 . S
C1427 C1419 1.503 . S
C1427 C1426 1.370 . S
C1427 C1428 1.403 . S
C1428 C1427 1.403 . S
C1428 C1429 1.404 . S
C1428 C1431 1.539 . S
C1429 C1425 1.408 . S
C1429 C1428 1.404 . S
C1429 H1441 0.930 . S
C1430 C1426 1.524 . S
C1430 H1442 0.956 . S
C1430 H1443 0.961 . S
C1430 H1444 0.961 . S
C1431 C1428 1.539 . S
C1431 H1445 0.958 . S
C1431 H1446 0.961 . S
C1431 H1447 0.960 . S
H1432 C1416 0.931 . S
H1433 C1421 0.929 . S
H1434 C1422 0.960 . S
H1435 C1422 0.962 . S
H1436 C1422 0.960 . S
H1437 C1423 0.961 . S
H1438 C1423 0.961 . S
H1439 C1423 0.961 . S
H1440 C1424 0.931 . S
H1441 C1429 0.930 . S
H1442 C1430 0.956 . S
H1443 C1430 0.961 . S
H1444 C1430 0.961 . S
H1445 C1431 0.958 . S
H1446 C1431 0.961 . S
H1447 C1431 0.960 . S
C1448 C1449 1.391 . S
C1448 C1450 1.394 . S
C1448 H1464 0.931 . S
C1449 C1448 1.391 . S
C1449 C1453 1.376 . S
C1450 C1448 1.394 . S
C1450 C1451 1.369 . S
C1450 C1454 1.531 . S
C1451 C1450 1.369 . S
C1451 C1452 1.410 . S
C1451 C1459 1.503 . S
C1452 C1451 1.410 . S
C1452 C1453 1.392 . S
C1452 C1455 1.511 . S
C1453 C1449 1.376 . S
C1453 C1452 1.392 . S
C1453 H1465 0.929 . S
C1454 C1450 1.531 . S
C1454 H1466 0.960 . S
C1454 H1467 0.962 . S
C1454 H1468 0.960 . S
C1455 C1452 1.511 . S
C1455 H1469 0.961 . S
C1455 H1470 0.961 . S
C1455 H1471 0.961 . S
C1456 C1457 1.370 . S
C1456 C1458 1.363 . S
C1456 H1472 0.931 . S
C1457 C1456 1.370 . S
C1457 C1461 1.408 . S
C1458 C1456 1.363 . S
C1458 C1459 1.370 . S
C1458 C1462 1.524 . S
C1459 C1451 1.503 . S
C1459 C1458 1.370 . S
C1459 C1460 1.403 . S
C1460 C1459 1.403 . S
C1460 C1461 1.404 . S
C1460 C1463 1.539 . S
C1461 C1457 1.408 . S
C1461 C1460 1.404 . S
C1461 H1473 0.930 . S
C1462 C1458 1.524 . S
C1462 H1474 0.956 . S
C1462 H1475 0.961 . S
C1462 H1476 0.961 . S
C1463 C1460 1.539 . S
C1463 H1477 0.958 . S
C1463 H1478 0.961 . S
C1463 H1479 0.960 . S
H1464 C1448 0.931 . S
H1465 C1453 0.929 . S
H1466 C1454 0.960 . S
H1467 C1454 0.962 . S
H1468 C1454 0.960 . S
H1469 C1455 0.961 . S
H1470 C1455 0.961 . S
H1471 C1455 0.961 . S
H1472 C1456 0.931 . S
H1473 C1461 0.930 . S
H1474 C1462 0.956 . S
H1475 C1462 0.961 . S
H1476 C1462 0.961 . S
H1477 C1463 0.958 . S
H1478 C1463 0.961 . S
H1479 C1463 0.960 . S
C1480 C1481 1.391 . S
C1480 C1482 1.394 . S
C1480 H1496 0.931 . S
C1481 C1480 1.391 . S
C1481 C1485 1.376 . S
C1482 C1480 1.394 . S
C1482 C1483 1.369 . S
C1482 C1486 1.531 . S
C1483 C1482 1.369 . S
C1483 C1484 1.410 . S
C1483 C1491 1.503 . S
C1484 C1483 1.410 . S
C1484 C1485 1.392 . S
C1484 C1487 1.511 . S
C1485 C1481 1.376 . S
C1485 C1484 1.392 . S
C1485 H1497 0.929 . S
C1486 C1482 1.531 . S
C1486 H1498 0.960 . S
C1486 H1499 0.962 . S
C1486 H1500 0.960 . S
C1487 C1484 1.511 . S
C1487 H1501 0.961 . S
C1487 H1502 0.961 . S
C1487 H1503 0.961 . S
C1488 C1489 1.370 . S
C1488 C1490 1.363 . S
C1488 H1504 0.931 . S
C1489 C1488 1.370 . S
C1489 C1493 1.408 . S
C1490 C1488 1.363 . S
C1490 C1491 1.370 . S
C1490 C1494 1.524 . S
C1491 C1483 1.503 . S
C1491 C1490 1.370 . S
C1491 C1492 1.403 . S
C1492 C1491 1.403 . S
C1492 C1493 1.404 . S
C1492 C1495 1.539 . S
C1493 C1489 1.408 . S
C1493 C1492 1.404 . S
C1493 H1505 0.930 . S
C1494 C1490 1.524 . S
C1494 H1506 0.956 . S
C1494 H1507 0.961 . S
C1494 H1508 0.961 . S
C1495 C1492 1.539 . S
C1495 H1509 0.958 . S
C1495 H1510 0.961 . S
C1495 H1511 0.960 . S
H1496 C1480 0.931 . S
H1497 C1485 0.929 . S
H1498 C1486 0.960 . S
H1499 C1486 0.962 . S
H1500 C1486 0.960 . S
H1501 C1487 0.961 . S
H1502 C1487 0.961 . S
H1503 C1487 0.961 . S
H1504 C1488 0.931 . S
H1505 C1493 0.930 . S
H1506 C1494 0.956 . S
H1507 C1494 0.961 . S
H1508 C1494 0.961 . S
H1509 C1495 0.958 . S
H1510 C1495 0.961 . S
H1511 C1495 0.960 . S
C1512 C1513 1.391 . S
C1512 C1514 1.394 . S
C1512 H1528 0.931 . S
C1513 C1512 1.391 . S
C1513 C1517 1.376 . S
C1514 C1512 1.394 . S
C1514 C1515 1.369 . S
C1514 C1518 1.531 . S
C1515 C1514 1.369 . S
C1515 C1516 1.410 . S
C1515 C1523 1.503 . S
C1516 C1515 1.410 . S
C1516 C1517 1.392 . S
C1516 C1519 1.511 . S
C1517 C1513 1.376 . S
C1517 C1516 1.392 . S
C1517 H1529 0.929 . S
C1518 C1514 1.531 . S
C1518 H1530 0.960 . S
C1518 H1531 0.962 . S
C1518 H1532 0.960 . S
C1519 C1516 1.511 . S
C1519 H1533 0.961 . S
C1519 H1534 0.961 . S
C1519 H1535 0.961 . S
C1520 C1521 1.370 . S
C1520 C1522 1.363 . S
C1520 H1536 0.931 . S
C1521 C1520 1.370 . S
C1521 C1525 1.408 . S
C1522 C1520 1.363 . S
C1522 C1523 1.370 . S
C1522 C1526 1.524 . S
C1523 C1515 1.503 . S
C1523 C1522 1.370 . S
C1523 C1524 1.403 . S
C1524 C1523 1.403 . S
C1524 C1525 1.404 . S
C1524 C1527 1.539 . S
C1525 C1521 1.408 . S
C1525 C1524 1.404 . S
C1525 H1537 0.930 . S
C1526 C1522 1.524 . S
C1526 H1538 0.956 . S
C1526 H1539 0.961 . S
C1526 H1540 0.961 . S
C1527 C1524 1.539 . S
C1527 H1541 0.958 . S
C1527 H1542 0.961 . S
C1527 H1543 0.960 . S
H1528 C1512 0.931 . S
H1529 C1517 0.929 . S
H1530 C1518 0.960 . S
H1531 C1518 0.962 . S
H1532 C1518 0.960 . S
H1533 C1519 0.961 . S
H1534 C1519 0.961 . S
H1535 C1519 0.961 . S
H1536 C1520 0.931 . S
H1537 C1525 0.930 . S
H1538 C1526 0.956 . S
H1539 C1526 0.961 . S
H1540 C1526 0.961 . S
H1541 C1527 0.958 . S
H1542 C1527 0.961 . S
H1543 C1527 0.960 . S
C1544 C1545 1.391 . S
C1544 C1546 1.394 . S
C1544 H1560 0.931 . S
C1545 C1544 1.391 . S
C1545 C1549 1.376 . S
C1546 C1544 1.394 . S
C1546 C1547 1.369 . S
C1546 C1550 1.531 . S
C1547 C1546 1.369 . S
C1547 C1548 1.410 . S
C1547 C1555 1.503 . S
C1548 C1547 1.410 . S
C1548 C1549 1.392 . S
C1548 C1551 1.511 . S
C1549 C1545 1.376 . S
C1549 C1548 1.392 . S
C1549 H1561 0.929 . S
C1550 C1546 1.531 . S
C1550 H1562 0.960 . S
C1550 H1563 0.962 . S
C1550 H1564 0.960 . S
C1551 C1548 1.511 . S
C1551 H1565 0.961 . S
C1551 H1566 0.961 . S
C1551 H1567 0.961 . S
C1552 C1553 1.370 . S
C1552 C1554 1.363 . S
C1552 H1568 0.931 . S
C1553 C1552 1.370 . S
C1553 C1557 1.408 . S
C1554 C1552 1.363 . S
C1554 C1555 1.370 . S
C1554 C1558 1.524 . S
C1555 C1547 1.503 . S
C1555 C1554 1.370 . S
C1555 C1556 1.403 . S
C1556 C1555 1.403 . S
C1556 C1557 1.404 . S
C1556 C1559 1.539 . S
C1557 C1553 1.408 . S
C1557 C1556 1.404 . S
C1557 H1569 0.930 . S
C1558 C1554 1.524 . S
C1558 H1570 0.956 . S
C1558 H1571 0.961 . S
C1558 H1572 0.961 . S
C1559 C1556 1.539 . S
C1559 H1573 0.958 . S
C1559 H1574 0.961 . S
C1559 H1575 0.960 . S
H1560 C1544 0.931 . S
H1561 C1549 0.929 . S
H1562 C1550 0.960 . S
H1563 C1550 0.962 . S
H1564 C1550 0.960 . S
H1565 C1551 0.961 . S
H1566 C1551 0.961 . S
H1567 C1551 0.961 . S
H1568 C1552 0.931 . S
H1569 C1557 0.930 . S
H1570 C1558 0.956 . S
H1571 C1558 0.961 . S
H1572 C1558 0.961 . S
H1573 C1559 0.958 . S
H1574 C1559 0.961 . S
H1575 C1559 0.960 . S
C1576 C1577 1.391 . S
C1576 C1578 1.394 . S
C1576 H1592 0.931 . S
C1577 C1576 1.391 . S
C1577 C1581 1.376 . S
C1578 C1576 1.394 . S
C1578 C1579 1.369 . S
C1578 C1582 1.531 . S
C1579 C1578 1.369 . S
C1579 C1580 1.410 . S
C1579 C1587 1.503 . S
C1580 C1579 1.410 . S
C1580 C1581 1.392 . S
C1580 C1583 1.511 . S
C1581 C1577 1.376 . S
C1581 C1580 1.392 . S
C1581 H1593 0.929 . S
C1582 C1578 1.531 . S
C1582 H1594 0.960 . S
C1582 H1595 0.962 . S
C1582 H1596 0.960 . S
C1583 C1580 1.511 . S
C1583 H1597 0.961 . S
C1583 H1598 0.961 . S
C1583 H1599 0.961 . S
C1584 C1585 1.370 . S
C1584 C1586 1.363 . S
C1584 H1600 0.931 . S
C1585 C1584 1.370 . S
C1585 C1589 1.408 . S
C1586 C1584 1.363 . S
C1586 C1587 1.370 . S
C1586 C1590 1.524 . S
C1587 C1579 1.503 . S
C1587 C1586 1.370 . S
C1587 C1588 1.403 . S
C1588 C1587 1.403 . S
C1588 C1589 1.404 . S
C1588 C1591 1.539 . S
C1589 C1585 1.408 . S
C1589 C1588 1.404 . S
C1589 H1601 0.930 . S
C1590 C1586 1.524 . S
C1590 H1602 0.956 . S
C1590 H1603 0.961 . S
C1590 H1604 0.961 . S
C1591 C1588 1.539 . S
C1591 H1605 0.958 . S
C1591 H1606 0.961 . S
C1591 H1607 0.960 . S
H1592 C1576 0.931 . S
H1593 C1581 0.929 . S
H1594 C1582 0.960 . S
H1595 C1582 0.962 . S
H1596 C1582 0.960 . S
H1597 C1583 0.961 . S
H1598 C1583 0.961 . S
H1599 C1583 0.961 . S
H1600 C1584 0.931 . S
H1601 C1589 0.930 . S
H1602 C1590 0.956 . S
H1603 C1590 0.961 . S
H1604 C1590 0.961 . S
H1605 C1591 0.958 . S
H1606 C1591 0.961 . S
H1607 C1591 0.960 . S
C1608 C1609 1.391 . S
C1608 C1610 1.394 . S
C1608 H1624 0.931 . S
C1609 C1608 1.391 . S
C1609 C1613 1.376 . S
C1610 C1608 1.394 . S
C1610 C1611 1.369 . S
C1610 C1614 1.531 . S
C1611 C1610 1.369 . S
C1611 C1612 1.410 1_655 S
C1611 C1619 1.503 1_655 S
C1612 C1611 1.410 1_455 S
C1612 C1613 1.392 1_455 S
C1612 C1615 1.511 . S
C1613 C1609 1.376 . S
C1613 C1612 1.392 1_655 S
C1613 H1625 0.929 1_655 S
C1614 C1610 1.531 . S
C1614 H1626 0.960 . S
C1614 H1627 0.962 . S
C1614 H1628 0.960 . S
C1615 C1612 1.511 . S
C1615 H1629 0.961 . S
C1615 H1630 0.961 . S
C1615 H1631 0.961 . S
C1616 C1617 1.370 . S
C1616 C1618 1.363 . S
C1616 H1632 0.931 . S
C1617 C1616 1.370 . S
C1617 C1621 1.408 . S
C1618 C1616 1.363 . S
C1618 C1619 1.370 . S
C1618 C1622 1.524 . S
C1619 C1611 1.503 1_455 S
C1619 C1618 1.370 . S
C1619 C1620 1.422 . S
C1620 C1619 1.422 . S
C1620 C1621 1.420 . S
C1620 C1623 1.506 1_455 S
C1621 C1617 1.408 . S
C1621 C1620 1.420 . S
C1621 H1633 0.930 . S
C1622 C1618 1.524 . S
C1622 H1634 0.956 . S
C1622 H1635 0.961 . S
C1622 H1636 0.961 . S
C1623 C1620 1.506 1_655 S
C1623 H1637 0.958 . S
C1623 H1638 0.961 . S
C1623 H1639 0.960 . S
H1624 C1608 0.931 . S
H1625 C1613 0.929 1_455 S
H1626 C1614 0.960 . S
H1627 C1614 0.962 . S
H1628 C1614 0.960 . S
H1629 C1615 0.961 . S
H1630 C1615 0.961 . S
H1631 C1615 0.961 . S
H1632 C1616 0.931 . S
H1633 C1621 0.930 . S
H1634 C1622 0.956 . S
H1635 C1622 0.961 . S
H1636 C1622 0.961 . S
H1637 C1623 0.958 . S
H1638 C1623 0.961 . S
H1639 C1623 0.960 . S
C1640 C1641 1.391 . S
C1640 C1642 1.394 . S
C1640 H1656 0.931 . S
C1641 C1640 1.391 . S
C1641 C1645 1.376 . S
C1642 C1640 1.394 . S
C1642 C1643 1.369 . S
C1642 C1646 1.531 . S
C1643 C1642 1.369 . S
C1643 C1644 1.410 . S
C1643 C1651 1.503 . S
C1644 C1643 1.410 . S
C1644 C1645 1.392 . S
C1644 C1647 1.511 . S
C1645 C1641 1.376 . S
C1645 C1644 1.392 . S
C1645 H1657 0.929 . S
C1646 C1642 1.531 . S
C1646 H1658 0.960 . S
C1646 H1659 0.962 . S
C1646 H1660 0.960 . S
C1647 C1644 1.511 . S
C1647 H1661 0.961 . S
C1647 H1662 0.961 . S
C1647 H1663 0.961 . S
C1648 C1649 1.370 . S
C1648 C1650 1.363 . S
C1648 H1664 0.931 . S
C1649 C1648 1.370 . S
C1649 C1653 1.408 . S
C1650 C1648 1.363 . S
C1650 C1651 1.370 . S
C1650 C1654 1.524 . S
C1651 C1643 1.503 . S
C1651 C1650 1.370 . S
C1651 C1652 1.403 . S
C1652 C1651 1.403 . S
C1652 C1653 1.404 . S
C1652 C1655 1.539 . S
C1653 C1649 1.408 . S
C1653 C1652 1.404 . S
C1653 H1665 0.930 . S
C1654 C1650 1.524 . S
C1654 H1666 0.956 . S
C1654 H1667 0.961 . S
C1654 H1668 0.961 . S
C1655 C1652 1.539 . S
C1655 H1669 0.958 . S
C1655 H1670 0.961 . S
C1655 H1671 0.960 . S
H1656 C1640 0.931 . S
H1657 C1645 0.929 . S
H1658 C1646 0.960 . S
H1659 C1646 0.962 . S
H1660 C1646 0.960 . S
H1661 C1647 0.961 . S
H1662 C1647 0.961 . S
H1663 C1647 0.961 . S
H1664 C1648 0.931 . S
H1665 C1653 0.930 . S
H1666 C1654 0.956 . S
H1667 C1654 0.961 . S
H1668 C1654 0.961 . S
H1669 C1655 0.958 . S
H1670 C1655 0.961 . S
H1671 C1655 0.960 . S
C1672 C1673 1.415 . S
C1672 C1674 1.379 1_565 S
C1672 H1688 0.924 1_565 S
C1673 C1672 1.415 . S
C1673 C1677 1.376 . S
C1674 C1672 1.379 1_545 S
C1674 C1675 1.369 1_545 S
C1674 C1678 1.531 . S
C1675 C1674 1.369 1_565 S
C1675 C1676 1.410 . S
C1675 C1683 1.503 1_565 S
C1676 C1675 1.410 . S
C1676 C1677 1.392 . S
C1676 C1679 1.511 . S
C1677 C1673 1.376 . S
C1677 C1676 1.392 . S
C1677 H1689 0.929 . S
C1678 C1674 1.531 . S
C1678 H1690 0.960 . S
C1678 H1691 0.962 . S
C1678 H1692 0.960 . S
C1679 C1676 1.511 . S
C1679 H1693 0.961 . S
C1679 H1694 0.961 . S
C1679 H1695 0.961 . S
C1680 C1681 1.370 . S
C1680 C1682 1.378 . S
C1680 H1696 0.931 . S
C1681 C1680 1.370 . S
C1681 C1685 1.408 . S
C1682 C1680 1.378 . S
C1682 C1683 1.401 . S
C1682 C1686 1.481 1_545 S
C1683 C1675 1.503 1_545 S
C1683 C1682 1.401 . S
C1683 C1684 1.403 . S
C1684 C1683 1.403 . S
C1684 C1685 1.404 . S
C1684 C1687 1.539 . S
C1685 C1681 1.408 . S
C1685 C1684 1.404 . S
C1685 H1697 0.930 . S
C1686 C1682 1.481 1_565 S
C1686 H1698 0.956 . S
C1686 H1699 0.961 . S
C1686 H1700 0.961 . S
C1687 C1684 1.539 . S
C1687 H1701 0.958 . S
C1687 H1702 0.961 . S
C1687 H1703 0.960 . S
H1688 C1672 0.924 1_545 S
H1689 C1677 0.929 . S
H1690 C1678 0.960 . S
H1691 C1678 0.962 . S
H1692 C1678 0.960 . S
H1693 C1679 0.961 . S
H1694 C1679 0.961 . S
H1695 C1679 0.961 . S
H1696 C1680 0.931 . S
H1697 C1685 0.930 . S
H1698 C1686 0.956 . S
H1699 C1686 0.961 . S
H1700 C1686 0.961 . S
H1701 C1687 0.958 . S
H1702 C1687 0.961 . S
H1703 C1687 0.960 . S
C1704 C1705 1.391 . S
C1704 C1706 1.381 1_565 S
C1704 H1720 0.931 . S
C1705 C1704 1.391 . S
C1705 C1709 1.376 . S
C1706 C1704 1.381 1_545 S
C1706 C1707 1.382 1_545 S
C1706 C1710 1.531 . S
C1707 C1706 1.382 1_565 S
C1707 C1708 1.410 . S
C1707 C1715 1.504 1_565 S
C1708 C1707 1.410 . S
C1708 C1709 1.392 . S
C1708 C1711 1.511 . S
C1709 C1705 1.376 . S
C1709 C1708 1.392 . S
C1709 H1721 0.929 . S
C1710 C1706 1.531 . S
C1710 H1722 0.960 . S
C1710 H1723 0.962 . S
C1710 H1724 0.960 . S
C1711 C1708 1.511 . S
C1711 H1725 0.961 . S
C1711 H1726 0.961 . S
C1711 H1727 0.961 1_565 S
C1712 C1713 1.370 . S
C1712 C1714 1.363 1_545 S
C1712 H1728 0.931 1_545 S
C1713 C1712 1.370 . S
C1713 C1717 1.408 . S
C1714 C1712 1.363 1_565 S
C1714 C1715 1.370 1_565 S
C1714 C1718 1.524 . S
C1715 C1707 1.504 1_545 S
C1715 C1714 1.370 1_545 S
C1715 C1716 1.403 . S
C1716 C1715 1.403 . S
C1716 C1717 1.404 . S
C1716 C1719 1.539 . S
C1717 C1713 1.408 . S
C1717 C1716 1.404 . S
C1717 H1729 0.930 . S
C1718 C1714 1.524 . S
C1718 H1730 0.956 . S
C1718 H1731 0.961 . S
C1718 H1732 0.961 . S
C1719 C1716 1.539 . S
C1719 H1733 0.958 . S
C1719 H1734 0.961 . S
C1719 H1735 0.960 . S
H1720 C1704 0.931 . S
H1721 C1709 0.929 . S
H1722 C1710 0.960 . S
H1723 C1710 0.962 . S
H1724 C1710 0.960 . S
H1725 C1711 0.961 . S
H1726 C1711 0.961 . S
H1727 C1711 0.961 1_545 S
H1728 C1712 0.931 1_565 S
H1729 C1717 0.930 . S
H1730 C1718 0.956 . S
H1731 C1718 0.961 . S
H1732 C1718 0.961 . S
H1733 C1719 0.958 . S
H1734 C1719 0.961 . S
H1735 C1719 0.960 . S
C1736 C1737 1.391 . S
C1736 C1738 1.394 . S
C1736 H1752 0.931 . S
C1737 C1736 1.391 . S
C1737 C1741 1.376 . S
C1738 C1736 1.394 . S
C1738 C1739 1.369 . S
C1738 C1742 1.531 . S
C1739 C1738 1.369 . S
C1739 C1740 1.410 . S
C1739 C1747 1.503 1_455 S
C1740 C1739 1.410 . S
C1740 C1741 1.392 . S
C1740 C1743 1.511 . S
C1741 C1737 1.376 . S
C1741 C1740 1.392 . S
C1741 H1753 0.929 . S
C1742 C1738 1.531 . S
C1742 H1754 0.960 . S
C1742 H1755 0.962 1_455 S
C1742 H1756 0.960 . S
C1743 C1740 1.511 . S
C1743 H1757 0.961 . S
C1743 H1758 0.961 . S
C1743 H1759 0.961 . S
C1744 C1745 1.370 . S
C1744 C1746 1.363 . S
C1744 H1760 0.931 . S
C1745 C1744 1.370 . S
C1745 C1749 1.408 1_655 S
C1746 C1744 1.363 . S
C1746 C1747 1.370 . S
C1746 C1750 1.524 . S
C1747 C1739 1.503 1_655 S
C1747 C1746 1.370 . S
C1747 C1748 1.403 1_655 S
C1748 C1747 1.403 1_455 S
C1748 C1749 1.404 . S
C1748 C1751 1.539 . S
C1749 C1745 1.408 1_455 S
C1749 C1748 1.404 . S
C1749 H1761 0.930 . S
C1750 C1746 1.524 . S
C1750 H1762 0.956 . S
C1750 H1763 0.961 . S
C1750 H1764 0.961 . S
C1751 C1748 1.539 . S
C1751 H1765 0.958 . S
C1751 H1766 0.961 . S
C1751 H1767 0.960 . S
H1752 C1736 0.931 . S
H1753 C1741 0.929 . S
H1754 C1742 0.960 . S
H1755 C1742 0.962 1_655 S
H1756 C1742 0.960 . S
H1757 C1743 0.961 . S
H1758 C1743 0.961 . S
H1759 C1743 0.961 . S
H1760 C1744 0.931 . S
H1761 C1749 0.930 . S
H1762 C1750 0.956 . S
H1763 C1750 0.961 . S
H1764 C1750 0.961 . S
H1765 C1751 0.958 . S
H1766 C1751 0.961 . S
H1767 C1751 0.960 . S
C1768 C1769 1.391 . S
C1768 C1770 1.394 . S
C1768 H1784 0.931 . S
C1769 C1768 1.391 . S
C1769 C1773 1.376 . S
C1770 C1768 1.394 . S
C1770 C1771 1.369 . S
C1770 C1774 1.531 . S
C1771 C1770 1.369 . S
C1771 C1772 1.410 . S
C1771 C1779 1.503 . S
C1772 C1771 1.410 . S
C1772 C1773 1.392 . S
C1772 C1775 1.511 . S
C1773 C1769 1.376 . S
C1773 C1772 1.392 . S
C1773 H1785 0.929 . S
C1774 C1770 1.531 . S
C1774 H1786 0.960 . S
C1774 H1787 0.962 . S
C1774 H1788 0.960 . S
C1775 C1772 1.511 . S
C1775 H1789 0.961 . S
C1775 H1790 0.961 . S
C1775 H1791 0.961 . S
C1776 C1777 1.370 . S
C1776 C1778 1.363 . S
C1776 H1792 0.931 . S
C1777 C1776 1.370 . S
C1777 C1781 1.408 . S
C1778 C1776 1.363 . S
C1778 C1779 1.370 . S
C1778 C1782 1.524 . S
C1779 C1771 1.503 . S
C1779 C1778 1.370 . S
C1779 C1780 1.403 . S
C1780 C1779 1.403 . S
C1780 C1781 1.404 . S
C1780 C1783 1.539 . S
C1781 C1777 1.408 . S
C1781 C1780 1.404 . S
C1781 H1793 0.930 . S
C1782 C1778 1.524 . S
C1782 H1794 0.956 . S
C1782 H1795 0.961 . S
C1782 H1796 0.961 . S
C1783 C1780 1.539 . S
C1783 H1797 0.958 . S
C1783 H1798 0.961 . S
C1783 H1799 0.960 . S
H1784 C1768 0.931 . S
H1785 C1773 0.929 . S
H1786 C1774 0.960 . S
H1787 C1774 0.962 . S
H1788 C1774 0.960 . S
H1789 C1775 0.961 . S
H1790 C1775 0.961 . S
H1791 C1775 0.961 . S
H1792 C1776 0.931 . S
H1793 C1781 0.930 . S
H1794 C1782 0.956 . S
H1795 C1782 0.961 . S
H1796 C1782 0.961 . S
H1797 C1783 0.958 . S
H1798 C1783 0.961 . S
H1799 C1783 0.960 . S
C1800 C1801 1.391 . S
C1800 C1802 1.394 . S
C1800 H1816 0.931 . S
C1801 C1800 1.391 . S
C1801 C1805 1.376 . S
C1802 C1800 1.394 . S
C1802 C1803 1.369 . S
C1802 C1806 1.531 . S
C1803 C1802 1.369 . S
C1803 C1804 1.410 . S
C1803 C1811 1.503 . S
C1804 C1803 1.410 . S
C1804 C1805 1.392 . S
C1804 C1807 1.511 . S
C1805 C1801 1.376 . S
C1805 C1804 1.392 . S
C1805 H1817 0.929 . S
C1806 C1802 1.531 . S
C1806 H1818 0.960 . S
C1806 H1819 0.962 . S
C1806 H1820 0.960 . S
C1807 C1804 1.511 . S
C1807 H1821 0.961 . S
C1807 H1822 0.961 . S
C1807 H1823 0.961 . S
C1808 C1809 1.370 . S
C1808 C1810 1.363 . S
C1808 H1824 0.931 . S
C1809 C1808 1.370 . S
C1809 C1813 1.408 . S
C1810 C1808 1.363 . S
C1810 C1811 1.370 . S
C1810 C1814 1.524 . S
C1811 C1803 1.503 . S
C1811 C1810 1.370 . S
C1811 C1812 1.403 . S
C1812 C1811 1.403 . S
C1812 C1813 1.404 . S
C1812 C1815 1.539 . S
C1813 C1809 1.408 . S
C1813 C1812 1.404 . S
C1813 H1825 0.930 . S
C1814 C1810 1.524 . S
C1814 H1826 0.956 . S
C1814 H1827 0.961 . S
C1814 H1828 0.961 . S
C1815 C1812 1.539 . S
C1815 H1829 0.958 . S
C1815 H1830 0.961 . S
C1815 H1831 0.960 . S
H1816 C1800 0.931 . S
H1817 C1805 0.929 . S
H1818 C1806 0.960 . S
H1819 C1806 0.962 . S
H1820 C1806 0.960 . S
H1821 C1807 0.961 . S
H1822 C1807 0.961 . S
H1823 C1807 0.961 . S
H1824 C1808 0.931 . S
H1825 C1813 0.930 . S
H1826 C1814 0.956 . S
H1827 C1814 0.961 . S
H1828 C1814 0.961 . S
H1829 C1815 0.958 . S
H1830 C1815 0.961 . S
H1831 C1815 0.960 . S
C1832 C1833 1.391 . S
C1832 C1834 1.394 . S
C1832 H1848 0.931 . S
C1833 C1832 1.391 . S
C1833 C1837 1.376 . S
C1834 C1832 1.394 . S
C1834 C1835 1.369 . S
C1834 C1838 1.531 . S
C1835 C1834 1.369 . S
C1835 C1836 1.410 . S
C1835 C1843 1.503 . S
C1836 C1835 1.410 . S
C1836 C1837 1.392 . S
C1836 C1839 1.511 . S
C1837 C1833 1.376 . S
C1837 C1836 1.392 . S
C1837 H1849 0.929 . S
C1838 C1834 1.531 . S
C1838 H1850 0.960 . S
C1838 H1851 0.962 . S
C1838 H1852 0.960 . S
C1839 C1836 1.511 . S
C1839 H1853 0.982 . S
C1839 H1854 0.958 . S
C1839 H1855 0.961 1_545 S
C1840 C1841 1.370 . S
C1840 C1842 1.363 . S
C1840 H1856 0.931 . S
C1841 C1840 1.370 . S
C1841 C1845 1.408 . S
C1842 C1840 1.363 . S
C1842 C1843 1.370 . S
C1842 C1846 1.524 . S
C1843 C1835 1.503 . S
C1843 C1842 1.370 . S
C1843 C1844 1.403 . S
C1844 C1843 1.403 . S
C1844 C1845 1.404 . S
C1844 C1847 1.539 . S
C1845 C1841 1.408 . S
C1845 C1844 1.404 . S
C1845 H1857 0.932 . S
C1846 C1842 1.524 . S
C1846 H1858 0.956 . S
C1846 H1859 0.961 . S
C1846 H1860 0.961 . S
C1847 C1844 1.539 . S
C1847 H1861 0.958 . S
C1847 H1862 0.961 . S
C1847 H1863 0.960 . S
H1848 C1832 0.931 . S
H1849 C1837 0.929 . S
H1850 C1838 0.960 . S
H1851 C1838 0.962 . S
H1852 C1838 0.960 . S
H1853 C1839 0.982 . S
H1854 C1839 0.958 . S
H1855 C1839 0.961 1_565 S
H1856 C1840 0.931 . S
H1857 C1845 0.932 . S
H1858 C1846 0.956 . S
H1859 C1846 0.961 . S
H1860 C1846 0.961 . S
H1861 C1847 0.958 . S
H1862 C1847 0.961 . S
H1863 C1847 0.960 . S
C1864 C1865 1.391 . S
C1864 C1866 1.394 . S
C1864 H1880 0.931 . S
C1865 C1864 1.391 . S
C1865 C1869 1.376 . S
C1866 C1864 1.394 . S
C1866 C1867 1.369 . S
C1866 C1870 1.531 . S
C1867 C1866 1.369 . S
C1867 C1868 1.410 . S
C1867 C1875 1.503 . S
C1868 C1867 1.410 . S
C1868 C1869 1.392 . S
C1868 C1871 1.511 . S
C1869 C1865 1.376 . S
C1869 C1868 1.392 . S
C1869 H1881 0.929 . S
C1870 C1866 1.531 . S
C1870 H1882 0.960 . S
C1870 H1883 0.962 . S
C1870 H1884 0.960 . S
C1871 C1868 1.511 . S
C1871 H1885 0.961 . S
C1871 H1886 0.961 . S
C1871 H1887 0.961 . S
C1872 C1873 1.370 . S
C1872 C1874 1.363 . S
C1872 H1888 0.931 . S
C1873 C1872 1.370 . S
C1873 C1877 1.408 1_655 S
C1874 C1872 1.363 . S
C1874 C1875 1.370 . S
C1874 C1878 1.524 . S
C1875 C1867 1.503 . S
C1875 C1874 1.370 . S
C1875 C1876 1.403 . S
C1876 C1875 1.403 . S
C1876 C1877 1.404 1_655 S
C1876 C1879 1.539 1_655 S
C1877 C1873 1.408 1_455 S
C1877 C1876 1.404 1_455 S
C1877 H1889 0.930 . S
C1878 C1874 1.524 . S
C1878 H1890 0.956 . S
C1878 H1891 0.961 . S
C1878 H1892 0.961 . S
C1879 C1876 1.539 1_455 S
C1879 H1893 0.958 . S
C1879 H1894 0.961 . S
C1879 H1895 0.960 . S
H1880 C1864 0.931 . S
H1881 C1869 0.929 . S
H1882 C1870 0.960 . S
H1883 C1870 0.962 . S
H1884 C1870 0.960 . S
H1885 C1871 0.961 . S
H1886 C1871 0.961 . S
H1887 C1871 0.961 . S
H1888 C1872 0.931 . S
H1889 C1877 0.930 . S
H1890 C1878 0.956 . S
H1891 C1878 0.961 . S
H1892 C1878 0.961 . S
H1893 C1879 0.958 . S
H1894 C1879 0.961 . S
H1895 C1879 0.960 . S
C1896 C1897 1.391 . S
C1896 C1898 1.394 . S
C1896 H1912 0.931 . S
C1897 C1896 1.391 . S
C1897 C1901 1.376 . S
C1898 C1896 1.394 . S
C1898 C1899 1.369 . S
C1898 C1902 1.531 . S
C1899 C1898 1.369 . S
C1899 C1900 1.410 . S
C1899 C1907 1.503 . S
C1900 C1899 1.410 . S
C1900 C1901 1.392 . S
C1900 C1903 1.511 . S
C1901 C1897 1.376 . S
C1901 C1900 1.392 . S
C1901 H1913 0.929 . S
C1902 C1898 1.531 . S
C1902 H1914 0.960 . S
C1902 H1915 0.962 . S
C1902 H1916 0.960 . S
C1903 C1900 1.511 . S
C1903 H1917 0.961 . S
C1903 H1918 0.961 . S
C1903 H1919 0.961 . S
C1904 C1905 1.370 . S
C1904 C1906 1.363 . S
C1904 H1920 0.931 . S
C1905 C1904 1.370 . S
C1905 C1909 1.408 . S
C1906 C1904 1.363 . S
C1906 C1907 1.370 . S
C1906 C1910 1.524 . S
C1907 C1899 1.503 . S
C1907 C1906 1.370 . S
C1907 C1908 1.403 . S
C1908 C1907 1.403 . S
C1908 C1909 1.404 . S
C1908 C1911 1.539 . S
C1909 C1905 1.408 . S
C1909 C1908 1.404 . S
C1909 H1921 0.930 . S
C1910 C1906 1.524 . S
C1910 H1922 0.956 . S
C1910 H1923 0.961 . S
C1910 H1924 0.961 . S
C1911 C1908 1.539 . S
C1911 H1925 0.958 . S
C1911 H1926 0.961 . S
C1911 H1927 0.960 . S
H1912 C1896 0.931 . S
H1913 C1901 0.929 . S
H1914 C1902 0.960 . S
H1915 C1902 0.962 . S
H1916 C1902 0.960 . S
H1917 C1903 0.961 . S
H1918 C1903 0.961 . S
H1919 C1903 0.961 . S
H1920 C1904 0.931 . S
H1921 C1909 0.930 . S
H1922 C1910 0.956 . S
H1923 C1910 0.961 . S
H1924 C1910 0.961 . S
H1925 C1911 0.958 . S
H1926 C1911 0.961 . S
H1927 C1911 0.960 . S
C1928 C1929 1.391 . S
C1928 C1930 1.394 . S
C1928 H1944 0.931 . S
C1929 C1928 1.391 . S
C1929 C1933 1.376 . S
C1930 C1928 1.394 . S
C1930 C1931 1.369 . S
C1930 C1934 1.531 . S
C1931 C1930 1.369 . S
C1931 C1932 1.410 . S
C1931 C1939 1.503 . S
C1932 C1931 1.410 . S
C1932 C1933 1.392 . S
C1932 C1935 1.511 . S
C1933 C1929 1.376 . S
C1933 C1932 1.392 . S
C1933 H1945 0.929 . S
C1934 C1930 1.531 . S
C1934 H1946 0.960 . S
C1934 H1947 0.962 . S
C1934 H1948 0.960 . S
C1935 C1932 1.511 . S
C1935 H1949 0.961 . S
C1935 H1950 0.961 . S
C1935 H1951 0.961 . S
C1936 C1937 1.372 1_545 S
C1936 C1938 1.339 1_545 S
C1936 H1952 0.954 . S
C1937 C1936 1.372 1_565 S
C1937 C1941 1.408 . S
C1938 C1936 1.339 1_565 S
C1938 C1939 1.370 . S
C1938 C1942 1.524 1_565 S
C1939 C1931 1.503 . S
C1939 C1938 1.370 . S
C1939 C1940 1.403 . S
C1940 C1939 1.403 . S
C1940 C1941 1.404 . S
C1940 C1943 1.539 . S
C1941 C1937 1.408 . S
C1941 C1940 1.404 . S
C1941 H1953 0.930 . S
C1942 C1938 1.524 1_545 S
C1942 H1954 0.956 1_545 S
C1942 H1955 0.961 1_545 S
C1942 H1956 0.961 . S
C1943 C1940 1.539 . S
C1943 H1957 0.958 . S
C1943 H1958 0.961 . S
C1943 H1959 0.960 . S
H1944 C1928 0.931 . S
H1945 C1933 0.929 . S
H1946 C1934 0.960 . S
H1947 C1934 0.962 . S
H1948 C1934 0.960 . S
H1949 C1935 0.961 . S
H1950 C1935 0.961 . S
H1951 C1935 0.961 . S
H1952 C1936 0.954 . S
H1953 C1941 0.930 . S
H1954 C1942 0.956 1_565 S
H1955 C1942 0.961 1_565 S
H1956 C1942 0.961 . S
H1957 C1943 0.958 . S
H1958 C1943 0.961 . S
H1959 C1943 0.960 . S
C1960 C1961 1.391 . S
C1960 C1962 1.394 . S
C1960 H1976 0.931 . S
C1961 C1960 1.391 . S
C1961 C1965 1.376 1_455 S
C1962 C1960 1.394 . S
C1962 C1963 1.369 . S
C1962 C1966 1.531 . S
C1963 C1962 1.369 . S
C1963 C1964 1.410 . S
C1963 C1971 1.503 . S
C1964 C1963 1.410 . S
C1964 C1965 1.392 1_455 S
C1964 C1967 1.511 1_455 S
C1965 C1961 1.376 1_655 S
C1965 C1964 1.392 1_655 S
C1965 H1977 0.929 . S
C1966 C1962 1.531 . S
C1966 H1978 0.960 . S
C1966 H1979 0.962 . S
C1966 H1980 0.960 . S
C1967 C1964 1.511 1_655 S
C1967 H1981 0.961 . S
C1967 H1982 0.961 1_655 S
C1967 H1983 0.961 . S
C1968 C1969 1.370 . S
C1968 C1970 1.363 . S
C1968 H1984 0.931 . S
C1969 C1968 1.370 . S
C1969 C1973 1.408 . S
C1970 C1968 1.363 . S
C1970 C1971 1.370 . S
C1970 C1974 1.524 . S
C1971 C1963 1.503 . S
C1971 C1970 1.370 . S
C1971 C1972 1.403 . S
C1972 C1971 1.403 . S
C1972 C1973 1.404 . S
C1972 C1975 1.539 . S
C1973 C1969 1.408 . S
C1973 C1972 1.404 . S
C1973 H1985 0.930 . S
C1974 C1970 1.524 . S
C1974 H1986 0.956 . S
C1974 H1987 0.961 . S
C1974 H1988 0.961 . S
C1975 C1972 1.539 . S
C1975 H1989 0.958 . S
C1975 H1990 0.961 . S
C1975 H1991 0.960 . S
H1976 C1960 0.931 . S
H1977 C1965 0.929 . S
H1978 C1966 0.960 . S
H1979 C1966 0.962 . S
H1980 C1966 0.960 . S
H1981 C1967 0.961 . S
H1982 C1967 0.961 1_455 S
H1983 C1967 0.961 . S
H1984 C1968 0.931 . S
H1985 C1973 0.930 . S
H1986 C1974 0.956 . S
H1987 C1974 0.961 . S
H1988 C1974 0.961 . S
H1989 C1975 0.958 . S
H1990 C1975 0.961 . S
H1991 C1975 0.960 . S
C1992 C1993 1.391 . S
C1992 C1994 1.394 . S
C1992 H2008 0.931 . S
C1993 C1992 1.391 . S
C1993 C1997 1.376 . S
C1994 C1992 1.394 . S
C1994 C1995 1.369 . S
C1994 C1998 1.531 . S
C1995 C1994 1.369 . S
C1995 C1996 1.410 . S
C1995 C2003 1.503 . S
C1996 C1995 1.410 . S
C1996 C1997 1.392 . S
C1996 C1999 1.511 . S
C1997 C1993 1.376 . S
C1997 C1996 1.392 . S
C1997 H2009 0.929 . S
C1998 C1994 1.531 . S
C1998 H2010 0.960 . S
C1998 H2011 0.962 . S
C1998 H2012 0.960 . S
C1999 C1996 1.511 . S
C1999 H2013 0.961 . S
C1999 H2014 0.961 . S
C1999 H2015 0.961 . S
C2000 C2001 1.370 . S
C2000 C2002 1.363 . S
C2000 H2016 0.931 . S
C2001 C2000 1.370 . S
C2001 C2005 1.408 . S
C2002 C2000 1.363 . S
C2002 C2003 1.370 . S
C2002 C2006 1.524 . S
C2003 C1995 1.503 . S
C2003 C2002 1.370 . S
C2003 C2004 1.403 . S
C2004 C2003 1.403 . S
C2004 C2005 1.404 . S
C2004 C2007 1.539 . S
C2005 C2001 1.408 . S
C2005 C2004 1.404 . S
C2005 H2017 0.930 . S
C2006 C2002 1.524 . S
C2006 H2018 0.956 . S
C2006 H2019 0.961 . S
C2006 H2020 0.961 . S
C2007 C2004 1.539 . S
C2007 H2021 0.958 . S
C2007 H2022 0.961 . S
C2007 H2023 0.960 . S
H2008 C1992 0.931 . S
H2009 C1997 0.929 . S
H2010 C1998 0.960 . S
H2011 C1998 0.962 . S
H2012 C1998 0.960 . S
H2013 C1999 0.961 . S
H2014 C1999 0.961 . S
H2015 C1999 0.961 . S
H2016 C2000 0.931 . S
H2017 C2005 0.930 . S
H2018 C2006 0.956 . S
H2019 C2006 0.961 . S
H2020 C2006 0.961 . S
H2021 C2007 0.958 . S
H2022 C2007 0.961 . S
H2023 C2007 0.960 . S
C2024 C2025 1.391 . S
C2024 C2026 1.394 . S
C2024 H2040 0.931 . S
C2025 C2024 1.391 . S
C2025 C2029 1.376 . S
C2026 C2024 1.394 . S
C2026 C2027 1.369 . S
C2026 C2030 1.531 . S
C2027 C2026 1.369 . S
C2027 C2028 1.410 . S
C2027 C2035 1.503 . S
C2028 C2027 1.410 . S
C2028 C2029 1.392 . S
C2028 C2031 1.511 . S
C2029 C2025 1.376 . S
C2029 C2028 1.392 . S
C2029 H2041 0.929 . S
C2030 C2026 1.531 . S
C2030 H2042 0.960 1_565 S
C2030 H2043 0.976 . S
C2030 H2044 0.960 1_565 S
C2031 C2028 1.511 . S
C2031 H2045 0.961 . S
C2031 H2046 0.961 . S
C2031 H2047 0.961 . S
C2032 C2033 1.370 . S
C2032 C2034 1.363 . S
C2032 H2048 0.931 . S
C2033 C2032 1.370 . S
C2033 C2037 1.408 . S
C2034 C2032 1.363 . S
C2034 C2035 1.370 . S
C2034 C2038 1.524 . S
C2035 C2027 1.503 . S
C2035 C2034 1.370 . S
C2035 C2036 1.403 . S
C2036 C2035 1.403 . S
C2036 C2037 1.404 . S
C2036 C2039 1.539 . S
C2037 C2033 1.408 . S
C2037 C2036 1.404 . S
C2037 H2049 0.930 . S
C2038 C2034 1.524 . S
C2038 H2050 0.956 . S
C2038 H2051 0.961 . S
C2038 H2052 0.961 . S
C2039 C2036 1.539 . S
C2039 H2053 0.958 . S
C2039 H2054 0.961 . S
C2039 H2055 0.960 . S
H2040 C2024 0.931 . S
H2041 C2029 0.929 . S
H2042 C2030 0.960 1_545 S
H2043 C2030 0.976 . S
H2044 C2030 0.960 1_545 S
H2045 C2031 0.961 . S
H2046 C2031 0.961 . S
H2047 C2031 0.961 . S
H2048 C2032 0.931 . S
H2049 C2037 0.930 . S
H2050 C2038 0.956 . S
H2051 C2038 0.961 . S
H2052 C2038 0.961 . S
H2053 C2039 0.958 . S
H2054 C2039 0.961 . S
H2055 C2039 0.960 . S
C2056 C2057 1.391 . S
C2056 C2058 1.394 . S
C2056 H2072 0.931 . S
C2057 C2056 1.391 . S
C2057 C2061 1.376 . S
C2058 C2056 1.394 . S
C2058 C2059 1.369 . S
C2058 C2062 1.531 . S
C2059 C2058 1.369 . S
C2059 C2060 1.410 . S
C2059 C2067 1.503 . S
C2060 C2059 1.410 . S
C2060 C2061 1.392 . S
C2060 C2063 1.511 . S
C2061 C2057 1.376 . S
C2061 C2060 1.392 . S
C2061 H2073 0.929 . S
C2062 C2058 1.531 . S
C2062 H2074 0.960 . S
C2062 H2075 0.962 . S
C2062 H2076 0.960 . S
C2063 C2060 1.511 . S
C2063 H2077 0.961 . S
C2063 H2078 0.961 . S
C2063 H2079 0.961 . S
C2064 C2065 1.370 1_655 S
C2064 C2066 1.332 1_655 S
C2064 H2080 0.964 . S
C2065 C2064 1.370 1_455 S
C2065 C2069 1.408 . S
C2066 C2064 1.332 1_455 S
C2066 C2067 1.370 . S
C2066 C2070 1.524 1_455 S
C2067 C2059 1.503 . S
C2067 C2066 1.370 . S
C2067 C2068 1.403 . S
C2068 C2067 1.403 . S
C2068 C2069 1.404 . S
C2068 C2071 1.539 . S
C2069 C2065 1.408 . S
C2069 C2068 1.404 . S
C2069 H2081 0.930 . S
C2070 C2066 1.524 1_655 S
C2070 H2082 0.956 1_655 S
C2070 H2083 0.961 1_655 S
C2070 H2084 0.961 . S
C2071 C2068 1.539 . S
C2071 H2085 0.958 . S
C2071 H2086 0.961 . S
C2071 H2087 0.960 . S
H2072 C2056 0.931 . S
H2073 C2061 0.929 . S
H2074 C2062 0.960 . S
H2075 C2062 0.962 . S
H2076 C2062 0.960 . S
H2077 C2063 0.961 . S
H2078 C2063 0.961 . S
H2079 C2063 0.961 . S
H2080 C2064 0.964 . S
H2081 C2069 0.930 . S
H2082 C2070 0.956 1_455 S
H2083 C2070 0.961 1_455 S
H2084 C2070 0.961 . S
H2085 C2071 0.958 . S
H2086 C2071 0.961 . S
H2087 C2071 0.960 . S
C2088 C2089 1.391 . S
C2088 C2090 1.394 . S
C2088 H2104 0.931 . S
C2089 C2088 1.391 . S
C2089 C2093 1.376 . S
C2090 C2088 1.394 . S
C2090 C2091 1.369 . S
C2090 C2094 1.531 . S
C2091 C2090 1.369 . S
C2091 C2092 1.410 . S
C2091 C2099 1.503 . S
C2092 C2091 1.410 . S
C2092 C2093 1.392 . S
C2092 C2095 1.511 . S
C2093 C2089 1.376 . S
C2093 C2092 1.392 . S
C2093 H2105 0.929 . S
C2094 C2090 1.531 . S
C2094 H2106 0.960 . S
C2094 H2107 0.962 . S
C2094 H2108 0.960 . S
C2095 C2092 1.511 . S
C2095 H2109 0.961 . S
C2095 H2110 0.961 . S
C2095 H2111 0.961 . S
C2096 C2097 1.370 . S
C2096 C2098 1.363 . S
C2096 H2112 0.931 . S
C2097 C2096 1.370 . S
C2097 C2101 1.408 . S
C2098 C2096 1.363 . S
C2098 C2099 1.370 . S
C2098 C2102 1.524 . S
C2099 C2091 1.503 . S
C2099 C2098 1.370 . S
C2099 C2100 1.403 . S
C2100 C2099 1.403 . S
C2100 C2101 1.404 . S
C2100 C2103 1.539 . S
C2101 C2097 1.408 . S
C2101 C2100 1.404 . S
C2101 H2113 0.930 . S
C2102 C2098 1.524 . S
C2102 H2114 0.956 . S
C2102 H2115 0.961 . S
C2102 H2116 0.961 . S
C2103 C2100 1.539 . S
C2103 H2117 0.958 . S
C2103 H2118 0.961 . S
C2103 H2119 0.960 . S
H2104 C2088 0.931 . S
H2105 C2093 0.929 . S
H2106 C2094 0.960 . S
H2107 C2094 0.962 . S
H2108 C2094 0.960 . S
H2109 C2095 0.961 . S
H2110 C2095 0.961 . S
H2111 C2095 0.961 . S
H2112 C2096 0.931 . S
H2113 C2101 0.930 . S
H2114 C2102 0.956 . S
H2115 C2102 0.961 . S
H2116 C2102 0.961 . S
H2117 C2103 0.958 . S
H2118 C2103 0.961 . S
H2119 C2103 0.960 . S
C2120 C2121 1.391 . S
C2120 C2122 1.394 . S
C2120 H2136 0.931 1_545 S
C2121 C2120 1.391 . S
C2121 C2125 1.376 . S
C2122 C2120 1.394 . S
C2122 C2123 1.369 . S
C2122 C2126 1.531 . S
C2123 C2122 1.369 . S
C2123 C2124 1.410 . S
C2123 C2131 1.503 . S
C2124 C2123 1.410 . S
C2124 C2125 1.392 . S
C2124 C2127 1.511 . S
C2125 C2121 1.376 . S
C2125 C2124 1.392 . S
C2125 H2137 0.929 . S
C2126 C2122 1.531 . S
C2126 H2138 0.960 . S
C2126 H2139 0.962 1_545 S
C2126 H2140 0.964 . S
C2127 C2124 1.511 . S
C2127 H2141 0.961 . S
C2127 H2142 0.961 . S
C2127 H2143 0.961 . S
C2128 C2129 1.370 . S
C2128 C2130 1.363 . S
C2128 H2144 0.931 . S
C2129 C2128 1.370 . S
C2129 C2133 1.408 . S
C2130 C2128 1.363 . S
C2130 C2131 1.370 . S
C2130 C2134 1.524 . S
C2131 C2123 1.503 . S
C2131 C2130 1.370 . S
C2131 C2132 1.403 . S
C2132 C2131 1.403 . S
C2132 C2133 1.404 . S
C2132 C2135 1.539 . S
C2133 C2129 1.408 . S
C2133 C2132 1.404 . S
C2133 H2145 0.930 . S
C2134 C2130 1.524 . S
C2134 H2146 0.956 . S
C2134 H2147 0.961 . S
C2134 H2148 0.961 . S
C2135 C2132 1.539 . S
C2135 H2149 0.958 . S
C2135 H2150 0.961 . S
C2135 H2151 0.960 . S
H2136 C2120 0.931 1_565 S
H2137 C2125 0.929 . S
H2138 C2126 0.960 . S
H2139 C2126 0.962 1_565 S
H2140 C2126 0.964 . S
H2141 C2127 0.961 . S
H2142 C2127 0.961 . S
H2143 C2127 0.961 . S
H2144 C2128 0.931 . S
H2145 C2133 0.930 . S
H2146 C2134 0.956 . S
H2147 C2134 0.961 . S
H2148 C2134 0.961 . S
H2149 C2135 0.958 . S
H2150 C2135 0.961 . S
H2151 C2135 0.960 . S
C2152 C2153 1.391 . S
C2152 C2154 1.394 . S
C2152 H2168 0.931 1_655 S
C2153 C2152 1.391 . S
C2153 C2157 1.376 . S
C2154 C2152 1.394 . S
C2154 C2155 1.369 . S
C2154 C2158 1.531 . S
C2155 C2154 1.369 . S
C2155 C2156 1.410 . S
C2155 C2163 1.503 . S
C2156 C2155 1.410 . S
C2156 C2157 1.392 . S
C2156 C2159 1.511 . S
C2157 C2153 1.376 . S
C2157 C2156 1.392 . S
C2157 H2169 0.929 . S
C2158 C2154 1.531 . S
C2158 H2170 0.960 . S
C2158 H2171 0.962 . S
C2158 H2172 0.960 1_655 S
C2159 C2156 1.511 . S
C2159 H2173 0.961 . S
C2159 H2174 0.961 . S
C2159 H2175 0.961 . S
C2160 C2161 1.370 . S
C2160 C2162 1.363 . S
C2160 H2176 0.931 . S
C2161 C2160 1.370 . S
C2161 C2165 1.408 . S
C2162 C2160 1.363 . S
C2162 C2163 1.370 . S
C2162 C2166 1.524 . S
C2163 C2155 1.503 . S
C2163 C2162 1.370 . S
C2163 C2164 1.403 . S
C2164 C2163 1.403 . S
C2164 C2165 1.404 . S
C2164 C2167 1.539 . S
C2165 C2161 1.408 . S
C2165 C2164 1.404 . S
C2165 H2177 0.930 . S
C2166 C2162 1.524 . S
C2166 H2178 0.956 . S
C2166 H2179 0.961 . S
C2166 H2180 0.961 . S
C2167 C2164 1.539 . S
C2167 H2181 0.958 1_655 S
C2167 H2182 0.961 . S
C2167 H2183 0.960 . S
H2168 C2152 0.931 1_455 S
H2169 C2157 0.929 . S
H2170 C2158 0.960 . S
H2171 C2158 0.962 . S
H2172 C2158 0.960 1_455 S
H2173 C2159 0.961 . S
H2174 C2159 0.961 . S
H2175 C2159 0.961 . S
H2176 C2160 0.931 . S
H2177 C2165 0.930 . S
H2178 C2166 0.956 . S
H2179 C2166 0.961 . S
H2180 C2166 0.961 . S
H2181 C2167 0.958 1_455 S
H2182 C2167 0.961 . S
H2183 C2167 0.960 . S
C2184 C2185 1.391 . S
C2184 C2186 1.394 . S
C2184 H2200 0.931 . S
C2185 C2184 1.391 . S
C2185 C2189 1.376 . S
C2186 C2184 1.394 . S
C2186 C2187 1.369 . S
C2186 C2190 1.531 1_655 S
C2187 C2186 1.369 . S
C2187 C2188 1.410 . S
C2187 C2195 1.503 1_655 S
C2188 C2187 1.410 . S
C2188 C2189 1.392 . S
C2188 C2191 1.511 . S
C2189 C2185 1.376 . S
C2189 C2188 1.392 . S
C2189 H2201 0.929 . S
C2190 C2186 1.531 1_455 S
C2190 H2202 0.960 . S
C2190 H2203 0.962 . S
C2190 H2204 0.962 . S
C2191 C2188 1.511 . S
C2191 H2205 0.961 . S
C2191 H2206 0.961 . S
C2191 H2207 0.961 . S
C2192 C2193 1.370 . S
C2192 C2194 1.363 . S
C2192 H2208 0.931 . S
C2193 C2192 1.370 . S
C2193 C2197 1.408 . S
C2194 C2192 1.363 . S
C2194 C2195 1.370 . S
C2194 C2198 1.524 . S
C2195 C2187 1.503 1_455 S
C2195 C2194 1.370 . S
C2195 C2196 1.403 . S
C2196 C2195 1.403 . S
C2196 C2197 1.404 . S
C2196 C2199 1.539 . S
C2197 C2193 1.408 . S
C2197 C2196 1.404 . S
C2197 H2209 0.930 . S
C2198 C2194 1.524 . S
C2198 H2210 0.956 . S
C2198 H2211 0.961 1_455 S
C2198 H2212 0.961 . S
C2199 C2196 1.539 . S
C2199 H2213 0.958 . S
C2199 H2214 0.961 . S
C2199 H2215 0.960 1_455 S
H2200 C2184 0.931 . S
H2201 C2189 0.929 . S
H2202 C2190 0.960 . S
H2203 C2190 0.962 . S
H2204 C2190 0.962 . S
H2205 C2191 0.961 . S
H2206 C2191 0.961 . S
H2207 C2191 0.961 . S
H2208 C2192 0.931 . S
H2209 C2197 0.930 . S
H2210 C2198 0.956 . S
H2211 C2198 0.961 1_655 S
H2212 C2198 0.961 . S
H2213 C2199 0.958 . S
H2214 C2199 0.961 . S
H2215 C2199 0.960 1_655 S
C2216 C2217 1.391 . S
C2216 C2218 1.394 . S
C2216 H2232 0.931 . S
C2217 C2216 1.391 . S
C2217 C2221 1.376 . S
C2218 C2216 1.394 . S
C2218 C2219 1.369 . S
C2218 C2222 1.531 . S
C2219 C2218 1.369 . S
C2219 C2220 1.410 . S
C2219 C2227 1.503 . S
C2220 C2219 1.410 . S
C2220 C2221 1.392 . S
C2220 C2223 1.511 . S
C2221 C2217 1.376 . S
C2221 C2220 1.392 . S
C2221 H2233 0.929 . S
C2222 C2218 1.531 . S
C2222 H2234 0.960 . S
C2222 H2235 0.962 . S
C2222 H2236 0.960 . S
C2223 C2220 1.511 . S
C2223 H2237 0.961 . S
C2223 H2238 0.961 . S
C2223 H2239 0.961 . S
C2224 C2225 1.370 . S
C2224 C2226 1.363 . S
C2224 H2240 0.931 . S
C2225 C2224 1.370 . S
C2225 C2229 1.408 . S
C2226 C2224 1.363 . S
C2226 C2227 1.370 . S
C2226 C2230 1.524 . S
C2227 C2219 1.503 . S
C2227 C2226 1.370 . S
C2227 C2228 1.403 . S
C2228 C2227 1.403 . S
C2228 C2229 1.404 . S
C2228 C2231 1.539 . S
C2229 C2225 1.408 . S
C2229 C2228 1.404 . S
C2229 H2241 0.930 . S
C2230 C2226 1.524 . S
C2230 H2242 0.956 . S
C2230 H2243 0.961 . S
C2230 H2244 0.961 . S
C2231 C2228 1.539 . S
C2231 H2245 0.958 . S
C2231 H2246 0.961 . S
C2231 H2247 0.960 . S
H2232 C2216 0.931 . S
H2233 C2221 0.929 . S
H2234 C2222 0.960 . S
H2235 C2222 0.962 . S
H2236 C2222 0.960 . S
H2237 C2223 0.961 . S
H2238 C2223 0.961 . S
H2239 C2223 0.961 . S
H2240 C2224 0.931 . S
H2241 C2229 0.930 . S
H2242 C2230 0.956 . S
H2243 C2230 0.961 . S
H2244 C2230 0.961 . S
H2245 C2231 0.958 . S
H2246 C2231 0.961 . S
H2247 C2231 0.960 . S
C2248 C2249 1.391 . S
C2248 C2250 1.394 . S
C2248 H2264 0.931 . S
C2249 C2248 1.391 . S
C2249 C2253 1.376 . S
C2250 C2248 1.394 . S
C2250 C2251 1.369 . S
C2250 C2254 1.531 1_545 S
C2251 C2250 1.369 . S
C2251 C2252 1.410 . S
C2251 C2259 1.503 1_545 S
C2252 C2251 1.410 . S
C2252 C2253 1.392 . S
C2252 C2255 1.511 . S
C2253 C2249 1.376 . S
C2253 C2252 1.392 . S
C2253 H2265 0.929 . S
C2254 C2250 1.531 1_565 S
C2254 H2266 0.960 . S
C2254 H2267 0.962 . S
C2254 H2268 0.960 1_565 S
C2255 C2252 1.511 . S
C2255 H2269 0.961 . S
C2255 H2270 0.961 . S
C2255 H2271 0.961 . S
C2256 C2257 1.370 . S
C2256 C2258 1.363 . S
C2256 H2272 0.931 . S
C2257 C2256 1.370 . S
C2257 C2261 1.408 . S
C2258 C2256 1.363 . S
C2258 C2259 1.370 . S
C2258 C2262 1.524 . S
C2259 C2251 1.503 1_565 S
C2259 C2258 1.370 . S
C2259 C2260 1.403 . S
C2260 C2259 1.403 . S
C2260 C2261 1.404 . S
C2260 C2263 1.539 . S
C2261 C2257 1.408 . S
C2261 C2260 1.404 . S
C2261 H2273 0.930 . S
C2262 C2258 1.524 . S
C2262 H2274 0.956 . S
C2262 H2275 0.961 . S
C2262 H2276 0.961 . S
C2263 C2260 1.539 . S
C2263 H2277 0.958 . S
C2263 H2278 0.961 . S
C2263 H2279 0.960 1_565 S
H2264 C2248 0.931 . S
H2265 C2253 0.929 . S
H2266 C2254 0.960 . S
H2267 C2254 0.962 . S
H2268 C2254 0.960 1_545 S
H2269 C2255 0.961 . S
H2270 C2255 0.961 . S
H2271 C2255 0.961 . S
H2272 C2256 0.931 . S
H2273 C2261 0.930 . S
H2274 C2262 0.956 . S
H2275 C2262 0.961 . S
H2276 C2262 0.961 . S
H2277 C2263 0.958 . S
H2278 C2263 0.961 . S
H2279 C2263 0.960 1_545 S
C2280 C2281 1.391 . S
C2280 C2282 1.394 . S
C2280 H2296 0.931 . S
C2281 C2280 1.391 . S
C2281 C2285 1.376 . S
C2282 C2280 1.394 . S
C2282 C2283 1.369 . S
C2282 C2286 1.531 . S
C2283 C2282 1.369 . S
C2283 C2284 1.410 . S
C2283 C2291 1.503 1_545 S
C2284 C2283 1.410 . S
C2284 C2285 1.392 . S
C2284 C2287 1.511 . S
C2285 C2281 1.376 . S
C2285 C2284 1.392 . S
C2285 H2297 0.929 . S
C2286 C2282 1.531 . S
C2286 H2298 0.960 1_545 S
C2286 H2299 0.962 1_545 S
C2286 H2300 0.960 . S
C2287 C2284 1.511 . S
C2287 H2301 0.961 . S
C2287 H2302 0.961 . S
C2287 H2303 0.961 . S
C2288 C2289 1.370 . S
C2288 C2290 1.363 . S
C2288 H2304 0.931 . S
C2289 C2288 1.370 . S
C2289 C2293 1.408 . S
C2290 C2288 1.363 . S
C2290 C2291 1.370 . S
C2290 C2294 1.524 . S
C2291 C2283 1.503 1_565 S
C2291 C2290 1.370 . S
C2291 C2292 1.403 . S
C2292 C2291 1.403 . S
C2292 C2293 1.404 . S
C2292 C2295 1.539 1_565 S
C2293 C2289 1.408 . S
C2293 C2292 1.404 . S
C2293 H2305 0.930 . S
C2294 C2290 1.524 . S
C2294 H2306 0.956 . S
C2294 H2307 0.961 . S
C2294 H2308 0.961 . S
C2295 C2292 1.539 1_545 S
C2295 H2309 0.958 . S
C2295 H2310 0.950 1_545 S
C2295 H2311 0.960 . S
H2296 C2280 0.931 . S
H2297 C2285 0.929 . S
H2298 C2286 0.960 1_565 S
H2299 C2286 0.962 1_565 S
H2300 C2286 0.960 . S
H2301 C2287 0.961 . S
H2302 C2287 0.961 . S
H2303 C2287 0.961 . S
H2304 C2288 0.931 . S
H2305 C2293 0.930 . S
H2306 C2294 0.956 . S
H2307 C2294 0.961 . S
H2308 C2294 0.961 . S
H2309 C2295 0.958 . S
H2310 C2295 0.950 1_565 S
H2311 C2295 0.960 . S
C2312 C2313 1.391 . S
C2312 C2314 1.394 . S
C2312 H2328 0.931 . S
C2313 C2312 1.391 . S
C2313 C2317 1.376 . S
C2314 C2312 1.394 . S
C2314 C2315 1.369 . S
C2314 C2318 1.531 1_455 S
C2315 C2314 1.369 . S
C2315 C2316 1.410 . S
C2315 C2323 1.503 1_455 S
C2316 C2315 1.410 . S
C2316 C2317 1.392 . S
C2316 C2319 1.511 . S
C2317 C2313 1.376 . S
C2317 C2316 1.392 . S
C2317 H2329 0.929 . S
C2318 C2314 1.531 1_655 S
C2318 H2330 0.960 . S
C2318 H2331 0.962 . S
C2318 H2332 0.957 1_655 S
C2319 C2316 1.511 . S
C2319 H2333 0.961 . S
C2319 H2334 0.961 . S
C2319 H2335 0.961 . S
C2320 C2321 1.370 . S
C2320 C2322 1.363 . S
C2320 H2336 0.931 . S
C2321 C2320 1.370 . S
C2321 C2325 1.408 . S
C2322 C2320 1.363 . S
C2322 C2323 1.370 . S
C2322 C2326 1.508 1_655 S
C2323 C2315 1.503 1_655 S
C2323 C2322 1.370 . S
C2323 C2324 1.403 . S
C2324 C2323 1.403 . S
C2324 C2325 1.404 . S
C2324 C2327 1.539 . S
C2325 C2321 1.408 . S
C2325 C2324 1.404 . S
C2325 H2337 0.930 . S
C2326 C2322 1.508 1_455 S
C2326 H2338 0.952 . S
C2326 H2339 1.019 . S
C2326 H2340 0.928 1_455 S
C2327 C2324 1.539 . S
C2327 H2341 0.958 . S
C2327 H2342 0.961 . S
C2327 H2343 0.960 . S
H2328 C2312 0.931 . S
H2329 C2317 0.929 . S
H2330 C2318 0.960 . S
H2331 C2318 0.962 . S
H2332 C2318 0.957 1_455 S
H2333 C2319 0.961 . S
H2334 C2319 0.961 . S
H2335 C2319 0.961 . S
H2336 C2320 0.931 . S
H2337 C2325 0.930 . S
H2338 C2326 0.952 . S
H2339 C2326 1.019 . S
H2340 C2326 0.928 1_655 S
H2341 C2327 0.958 . S
H2342 C2327 0.961 . S
H2343 C2327 0.960 . S
C2344 C2345 1.391 . S
C2344 C2346 1.394 . S
C2344 H2360 0.931 . S
C2345 C2344 1.391 . S
C2345 C2349 1.376 . S
C2346 C2344 1.394 . S
C2346 C2347 1.369 . S
C2346 C2350 1.531 . S
C2347 C2346 1.369 . S
C2347 C2348 1.410 . S
C2347 C2355 1.503 . S
C2348 C2347 1.410 . S
C2348 C2349 1.392 . S
C2348 C2351 1.511 . S
C2349 C2345 1.376 . S
C2349 C2348 1.392 . S
C2349 H2361 0.929 . S
C2350 C2346 1.531 . S
C2350 H2362 0.960 . S
C2350 H2363 0.962 . S
C2350 H2364 0.960 . S
C2351 C2348 1.511 . S
C2351 H2365 0.961 . S
C2351 H2366 0.961 . S
C2351 H2367 0.961 . S
C2352 C2353 1.370 . S
C2352 C2354 1.363 . S
C2352 H2368 0.931 . S
C2353 C2352 1.370 . S
C2353 C2357 1.408 . S
C2354 C2352 1.363 . S
C2354 C2355 1.370 . S
C2354 C2358 1.524 . S
C2355 C2347 1.503 . S
C2355 C2354 1.370 . S
C2355 C2356 1.403 . S
C2356 C2355 1.403 . S
C2356 C2357 1.404 . S
C2356 C2359 1.539 . S
C2357 C2353 1.408 . S
C2357 C2356 1.404 . S
C2357 H2369 0.930 . S
C2358 C2354 1.524 . S
C2358 H2370 0.956 . S
C2358 H2371 0.961 . S
C2358 H2372 0.961 . S
C2359 C2356 1.539 . S
C2359 H2373 0.958 . S
C2359 H2374 0.961 . S
C2359 H2375 0.960 . S
H2360 C2344 0.931 . S
H2361 C2349 0.929 . S
H2362 C2350 0.960 . S
H2363 C2350 0.962 . S
H2364 C2350 0.960 . S
H2365 C2351 0.961 . S
H2366 C2351 0.961 . S
H2367 C2351 0.961 . S
H2368 C2352 0.931 . S
H2369 C2357 0.930 . S
H2370 C2358 0.956 . S
H2371 C2358 0.961 . S
H2372 C2358 0.961 . S
H2373 C2359 0.958 . S
H2374 C2359 0.961 . S
H2375 C2359 0.960 . S
C2376 C2377 1.391 . S
C2376 C2378 1.394 . S
C2376 H2392 0.931 . S
C2377 C2376 1.391 . S
C2377 C2381 1.376 . S
C2378 C2376 1.394 . S
C2378 C2379 1.369 . S
C2378 C2382 1.531 . S
C2379 C2378 1.369 . S
C2379 C2380 1.410 . S
C2379 C2387 1.503 . S
C2380 C2379 1.410 . S
C2380 C2381 1.392 . S
C2380 C2383 1.511 . S
C2381 C2377 1.376 . S
C2381 C2380 1.392 . S
C2381 H2393 0.929 . S
C2382 C2378 1.531 . S
C2382 H2394 0.960 . S
C2382 H2395 0.962 . S
C2382 H2396 0.960 . S
C2383 C2380 1.511 . S
C2383 H2397 0.961 . S
C2383 H2398 0.961 . S
C2383 H2399 0.961 . S
C2384 C2385 1.370 . S
C2384 C2386 1.363 . S
C2384 H2400 0.931 . S
C2385 C2384 1.370 . S
C2385 C2389 1.408 . S
C2386 C2384 1.363 . S
C2386 C2387 1.370 . S
C2386 C2390 1.524 . S
C2387 C2379 1.503 . S
C2387 C2386 1.370 . S
C2387 C2388 1.403 . S
C2388 C2387 1.403 . S
C2388 C2389 1.404 . S
C2388 C2391 1.539 . S
C2389 C2385 1.408 . S
C2389 C2388 1.404 . S
C2389 H2401 0.930 . S
C2390 C2386 1.524 . S
C2390 H2402 0.956 . S
C2390 H2403 0.961 . S
C2390 H2404 0.961 . S
C2391 C2388 1.539 . S
C2391 H2405 0.958 . S
C2391 H2406 0.961 . S
C2391 H2407 0.960 . S
H2392 C2376 0.931 . S
H2393 C2381 0.929 . S
H2394 C2382 0.960 . S
H2395 C2382 0.962 . S
H2396 C2382 0.960 . S
H2397 C2383 0.961 . S
H2398 C2383 0.961 . S
H2399 C2383 0.961 . S
H2400 C2384 0.931 . S
H2401 C2389 0.930 . S
H2402 C2390 0.956 . S
H2403 C2390 0.961 . S
H2404 C2390 0.961 . S
H2405 C2391 0.958 . S
H2406 C2391 0.961 . S
H2407 C2391 0.960 . S
C2408 C2409 1.391 . S
C2408 C2410 1.394 . S
C2408 H2424 0.931 . S
C2409 C2408 1.391 . S
C2409 C2413 1.376 . S
C2410 C2408 1.394 . S
C2410 C2411 1.369 . S
C2410 C2414 1.531 . S
C2411 C2410 1.369 . S
C2411 C2412 1.410 . S
C2411 C2419 1.503 . S
C2412 C2411 1.410 . S
C2412 C2413 1.392 . S
C2412 C2415 1.511 . S
C2413 C2409 1.376 . S
C2413 C2412 1.392 . S
C2413 H2425 0.929 . S
C2414 C2410 1.531 . S
C2414 H2426 0.960 . S
C2414 H2427 0.962 . S
C2414 H2428 0.960 . S
C2415 C2412 1.511 . S
C2415 H2429 0.961 . S
C2415 H2430 0.961 . S
C2415 H2431 0.961 . S
C2416 C2417 1.370 . S
C2416 C2418 1.363 . S
C2416 H2432 0.931 . S
C2417 C2416 1.370 . S
C2417 C2421 1.408 . S
C2418 C2416 1.363 . S
C2418 C2419 1.370 . S
C2418 C2422 1.524 . S
C2419 C2411 1.503 . S
C2419 C2418 1.370 . S
C2419 C2420 1.403 . S
C2420 C2419 1.403 . S
C2420 C2421 1.404 . S
C2420 C2423 1.539 . S
C2421 C2417 1.408 . S
C2421 C2420 1.404 . S
C2421 H2433 0.930 . S
C2422 C2418 1.524 . S
C2422 H2434 0.956 . S
C2422 H2435 0.961 . S
C2422 H2436 0.961 . S
C2423 C2420 1.539 . S
C2423 H2437 0.958 . S
C2423 H2438 0.961 . S
C2423 H2439 0.960 . S
H2424 C2408 0.931 . S
H2425 C2413 0.929 . S
H2426 C2414 0.960 . S
H2427 C2414 0.962 . S
H2428 C2414 0.960 . S
H2429 C2415 0.961 . S
H2430 C2415 0.961 . S
H2431 C2415 0.961 . S
H2432 C2416 0.931 . S
H2433 C2421 0.930 . S
H2434 C2422 0.956 . S
H2435 C2422 0.961 . S
H2436 C2422 0.961 . S
H2437 C2423 0.958 . S
H2438 C2423 0.961 . S
H2439 C2423 0.960 . S
C2440 C2441 1.391 . S
C2440 C2442 1.394 . S
C2440 H2456 0.931 . S
C2441 C2440 1.391 . S
C2441 C2445 1.376 . S
C2442 C2440 1.394 . S
C2442 C2443 1.369 . S
C2442 C2446 1.531 . S
C2443 C2442 1.369 . S
C2443 C2444 1.410 . S
C2443 C2451 1.503 . S
C2444 C2443 1.410 . S
C2444 C2445 1.392 . S
C2444 C2447 1.511 . S
C2445 C2441 1.376 . S
C2445 C2444 1.392 . S
C2445 H2457 0.929 . S
C2446 C2442 1.531 . S
C2446 H2458 0.960 . S
C2446 H2459 0.962 . S
C2446 H2460 0.960 . S
C2447 C2444 1.511 . S
C2447 H2461 0.961 . S
C2447 H2462 0.961 . S
C2447 H2463 0.961 . S
C2448 C2449 1.370 . S
C2448 C2450 1.363 . S
C2448 H2464 0.931 . S
C2449 C2448 1.370 . S
C2449 C2453 1.408 . S
C2450 C2448 1.363 . S
C2450 C2451 1.370 . S
C2450 C2454 1.524 . S
C2451 C2443 1.503 . S
C2451 C2450 1.370 . S
C2451 C2452 1.403 . S
C2452 C2451 1.403 . S
C2452 C2453 1.404 . S
C2452 C2455 1.539 . S
C2453 C2449 1.408 . S
C2453 C2452 1.404 . S
C2453 H2465 0.930 . S
C2454 C2450 1.524 . S
C2454 H2466 0.956 . S
C2454 H2467 0.961 . S
C2454 H2468 0.961 . S
C2455 C2452 1.539 . S
C2455 H2469 0.958 . S
C2455 H2470 0.961 . S
C2455 H2471 0.960 . S
H2456 C2440 0.931 . S
H2457 C2445 0.929 . S
H2458 C2446 0.960 . S
H2459 C2446 0.962 . S
H2460 C2446 0.960 . S
H2461 C2447 0.961 . S
H2462 C2447 0.961 . S
H2463 C2447 0.961 . S
H2464 C2448 0.931 . S
H2465 C2453 0.930 . S
H2466 C2454 0.956 . S
H2467 C2454 0.961 . S
H2468 C2454 0.961 . S
H2469 C2455 0.958 . S
H2470 C2455 0.961 . S
H2471 C2455 0.960 . S
C2472 C2473 1.391 . S
C2472 C2474 1.394 . S
C2472 H2488 0.931 . S
C2473 C2472 1.391 . S
C2473 C2477 1.376 . S
C2474 C2472 1.394 . S
C2474 C2475 1.369 . S
C2474 C2478 1.531 . S
C2475 C2474 1.369 . S
C2475 C2476 1.410 . S
C2475 C2483 1.503 . S
C2476 C2475 1.410 . S
C2476 C2477 1.392 . S
C2476 C2479 1.511 . S
C2477 C2473 1.376 . S
C2477 C2476 1.392 . S
C2477 H2489 0.929 . S
C2478 C2474 1.531 . S
C2478 H2490 0.960 . S
C2478 H2491 0.962 . S
C2478 H2492 0.960 . S
C2479 C2476 1.511 . S
C2479 H2493 0.961 . S
C2479 H2494 0.961 . S
C2479 H2495 0.961 . S
C2480 C2481 1.370 . S
C2480 C2482 1.363 . S
C2480 H2496 0.931 . S
C2481 C2480 1.370 . S
C2481 C2485 1.408 . S
C2482 C2480 1.363 . S
C2482 C2483 1.370 . S
C2482 C2486 1.524 . S
C2483 C2475 1.503 . S
C2483 C2482 1.370 . S
C2483 C2484 1.403 . S
C2484 C2483 1.403 . S
C2484 C2485 1.404 . S
C2484 C2487 1.539 . S
C2485 C2481 1.408 . S
C2485 C2484 1.404 . S
C2485 H2497 0.930 . S
C2486 C2482 1.524 . S
C2486 H2498 0.956 . S
C2486 H2499 0.961 . S
C2486 H2500 0.961 . S
C2487 C2484 1.539 . S
C2487 H2501 0.958 . S
C2487 H2502 0.961 . S
C2487 H2503 0.960 . S
H2488 C2472 0.931 . S
H2489 C2477 0.929 . S
H2490 C2478 0.960 . S
H2491 C2478 0.962 . S
H2492 C2478 0.960 . S
H2493 C2479 0.961 . S
H2494 C2479 0.961 . S
H2495 C2479 0.961 . S
H2496 C2480 0.931 . S
H2497 C2485 0.930 . S
H2498 C2486 0.956 . S
H2499 C2486 0.961 . S
H2500 C2486 0.961 . S
H2501 C2487 0.958 . S
H2502 C2487 0.961 . S
H2503 C2487 0.960 . S
C2504 C2505 1.391 . S
C2504 C2506 1.394 . S
C2504 H2520 0.931 . S
C2505 C2504 1.391 . S
C2505 C2509 1.376 . S
C2506 C2504 1.394 . S
C2506 C2507 1.369 . S
C2506 C2510 1.531 . S
C2507 C2506 1.369 . S
C2507 C2508 1.410 . S
C2507 C2515 1.503 . S
C2508 C2507 1.410 . S
C2508 C2509 1.392 . S
C2508 C2511 1.511 . S
C2509 C2505 1.376 . S
C2509 C2508 1.392 . S
C2509 H2521 0.929 . S
C2510 C2506 1.531 . S
C2510 H2522 0.960 . S
C2510 H2523 0.962 . S
C2510 H2524 0.960 . S
C2511 C2508 1.511 . S
C2511 H2525 0.961 . S
C2511 H2526 0.961 . S
C2511 H2527 0.961 . S
C2512 C2513 1.370 . S
C2512 C2514 1.363 . S
C2512 H2528 0.931 . S
C2513 C2512 1.370 . S
C2513 C2517 1.408 . S
C2514 C2512 1.363 . S
C2514 C2515 1.370 . S
C2514 C2518 1.524 . S
C2515 C2507 1.503 . S
C2515 C2514 1.370 . S
C2515 C2516 1.403 . S
C2516 C2515 1.403 . S
C2516 C2517 1.404 . S
C2516 C2519 1.539 . S
C2517 C2513 1.408 . S
C2517 C2516 1.404 . S
C2517 H2529 0.930 . S
C2518 C2514 1.524 . S
C2518 H2530 0.956 . S
C2518 H2531 0.961 . S
C2518 H2532 0.961 . S
C2519 C2516 1.539 . S
C2519 H2533 0.958 . S
C2519 H2534 0.961 . S
C2519 H2535 0.960 . S
H2520 C2504 0.931 . S
H2521 C2509 0.929 . S
H2522 C2510 0.960 . S
H2523 C2510 0.962 . S
H2524 C2510 0.960 . S
H2525 C2511 0.961 . S
H2526 C2511 0.961 . S
H2527 C2511 0.961 . S
H2528 C2512 0.931 . S
H2529 C2517 0.930 . S
H2530 C2518 0.956 . S
H2531 C2518 0.961 . S
H2532 C2518 0.961 . S
H2533 C2519 0.958 . S
H2534 C2519 0.961 . S
H2535 C2519 0.960 . S
C2536 C2537 1.391 . S
C2536 C2538 1.394 . S
C2536 H2552 0.931 . S
C2537 C2536 1.391 . S
C2537 C2541 1.376 . S
C2538 C2536 1.394 . S
C2538 C2539 1.369 . S
C2538 C2542 1.531 . S
C2539 C2538 1.369 . S
C2539 C2540 1.410 . S
C2539 C2547 1.503 . S
C2540 C2539 1.410 . S
C2540 C2541 1.392 . S
C2540 C2543 1.511 . S
C2541 C2537 1.376 . S
C2541 C2540 1.392 . S
C2541 H2553 0.929 . S
C2542 C2538 1.531 . S
C2542 H2554 0.960 . S
C2542 H2555 0.962 . S
C2542 H2556 0.960 . S
C2543 C2540 1.511 . S
C2543 H2557 0.961 . S
C2543 H2558 0.961 . S
C2543 H2559 0.961 . S
C2544 C2545 1.370 . S
C2544 C2546 1.363 . S
C2544 H2560 0.931 . S
C2545 C2544 1.370 . S
C2545 C2549 1.408 . S
C2546 C2544 1.363 . S
C2546 C2547 1.370 . S
C2546 C2550 1.524 . S
C2547 C2539 1.503 . S
C2547 C2546 1.370 . S
C2547 C2548 1.403 . S
C2548 C2547 1.403 . S
C2548 C2549 1.404 . S
C2548 C2551 1.539 . S
C2549 C2545 1.408 . S
C2549 C2548 1.404 . S
C2549 H2561 0.930 . S
C2550 C2546 1.524 . S
C2550 H2562 0.956 . S
C2550 H2563 0.961 . S
C2550 H2564 0.961 . S
C2551 C2548 1.539 . S
C2551 H2565 0.958 . S
C2551 H2566 0.961 . S
C2551 H2567 0.960 . S
H2552 C2536 0.931 . S
H2553 C2541 0.929 . S
H2554 C2542 0.960 . S
H2555 C2542 0.962 . S
H2556 C2542 0.960 . S
H2557 C2543 0.961 . S
H2558 C2543 0.961 . S
H2559 C2543 0.961 . S
H2560 C2544 0.931 . S
H2561 C2549 0.930 . S
H2562 C2550 0.956 . S
H2563 C2550 0.961 . S
H2564 C2550 0.961 . S
H2565 C2551 0.958 . S
H2566 C2551 0.961 . S
H2567 C2551 0.960 . S
C2568 C2569 1.391 . S
C2568 C2570 1.394 . S
C2568 H2584 0.931 . S
C2569 C2568 1.391 . S
C2569 C2573 1.376 . S
C2570 C2568 1.394 . S
C2570 C2571 1.369 . S
C2570 C2574 1.531 . S
C2571 C2570 1.369 . S
C2571 C2572 1.410 . S
C2571 C2579 1.503 . S
C2572 C2571 1.410 . S
C2572 C2573 1.392 . S
C2572 C2575 1.511 . S
C2573 C2569 1.376 . S
C2573 C2572 1.392 . S
C2573 H2585 0.929 . S
C2574 C2570 1.531 . S
C2574 H2586 0.960 . S
C2574 H2587 0.962 . S
C2574 H2588 0.960 . S
C2575 C2572 1.511 . S
C2575 H2589 0.961 . S
C2575 H2590 0.961 . S
C2575 H2591 0.961 . S
C2576 C2577 1.370 . S
C2576 C2578 1.363 . S
C2576 H2592 0.931 . S
C2577 C2576 1.370 . S
C2577 C2581 1.408 . S
C2578 C2576 1.363 . S
C2578 C2579 1.370 . S
C2578 C2582 1.524 . S
C2579 C2571 1.503 . S
C2579 C2578 1.370 . S
C2579 C2580 1.403 . S
C2580 C2579 1.403 . S
C2580 C2581 1.404 . S
C2580 C2583 1.539 . S
C2581 C2577 1.408 . S
C2581 C2580 1.404 . S
C2581 H2593 0.930 . S
C2582 C2578 1.524 . S
C2582 H2594 0.956 . S
C2582 H2595 0.961 . S
C2582 H2596 0.961 . S
C2583 C2580 1.539 . S
C2583 H2597 0.958 . S
C2583 H2598 0.961 . S
C2583 H2599 0.960 . S
H2584 C2568 0.931 . S
H2585 C2573 0.929 . S
H2586 C2574 0.960 . S
H2587 C2574 0.962 . S
H2588 C2574 0.960 . S
H2589 C2575 0.961 . S
H2590 C2575 0.961 . S
H2591 C2575 0.961 . S
H2592 C2576 0.931 . S
H2593 C2581 0.930 . S
H2594 C2582 0.956 . S
H2595 C2582 0.961 . S
H2596 C2582 0.961 . S
H2597 C2583 0.958 . S
H2598 C2583 0.961 . S
H2599 C2583 0.960 . S
C2600 C2601 1.391 . S
C2600 C2602 1.394 . S
C2600 H2616 0.931 . S
C2601 C2600 1.391 . S
C2601 C2605 1.376 . S
C2602 C2600 1.394 . S
C2602 C2603 1.369 . S
C2602 C2606 1.531 . S
C2603 C2602 1.369 . S
C2603 C2604 1.410 . S
C2603 C2611 1.503 . S
C2604 C2603 1.410 . S
C2604 C2605 1.392 . S
C2604 C2607 1.511 . S
C2605 C2601 1.376 . S
C2605 C2604 1.392 . S
C2605 H2617 0.929 . S
C2606 C2602 1.531 . S
C2606 H2618 0.960 . S
C2606 H2619 0.962 . S
C2606 H2620 0.960 . S
C2607 C2604 1.511 . S
C2607 H2621 0.961 . S
C2607 H2622 0.961 . S
C2607 H2623 0.961 . S
C2608 C2609 1.370 . S
C2608 C2610 1.363 . S
C2608 H2624 0.931 . S
C2609 C2608 1.370 . S
C2609 C2613 1.408 . S
C2610 C2608 1.363 . S
C2610 C2611 1.370 . S
C2610 C2614 1.524 . S
C2611 C2603 1.503 . S
C2611 C2610 1.370 . S
C2611 C2612 1.403 . S
C2612 C2611 1.403 . S
C2612 C2613 1.404 . S
C2612 C2615 1.539 . S
C2613 C2609 1.408 . S
C2613 C2612 1.404 . S
C2613 H2625 0.930 . S
C2614 C2610 1.524 . S
C2614 H2626 0.956 . S
C2614 H2627 0.961 . S
C2614 H2628 0.961 . S
C2615 C2612 1.539 . S
C2615 H2629 0.958 . S
C2615 H2630 0.961 . S
C2615 H2631 0.960 . S
H2616 C2600 0.931 . S
H2617 C2605 0.929 . S
H2618 C2606 0.960 . S
H2619 C2606 0.962 . S
H2620 C2606 0.960 . S
H2621 C2607 0.961 . S
H2622 C2607 0.961 . S
H2623 C2607 0.961 . S
H2624 C2608 0.931 . S
H2625 C2613 0.930 . S
H2626 C2614 0.956 . S
H2627 C2614 0.961 . S
H2628 C2614 0.961 . S
H2629 C2615 0.958 . S
H2630 C2615 0.961 . S
H2631 C2615 0.960 . S
C2632 C2633 1.391 . S
C2632 C2634 1.394 . S
C2632 H2648 0.931 . S
C2633 C2632 1.391 . S
C2633 C2637 1.376 . S
C2634 C2632 1.394 . S
C2634 C2635 1.369 . S
C2634 C2638 1.531 . S
C2635 C2634 1.369 . S
C2635 C2636 1.410 . S
C2635 C2643 1.503 . S
C2636 C2635 1.410 . S
C2636 C2637 1.392 . S
C2636 C2639 1.511 . S
C2637 C2633 1.376 . S
C2637 C2636 1.392 . S
C2637 H2649 0.929 . S
C2638 C2634 1.531 . S
C2638 H2650 0.960 . S
C2638 H2651 0.962 . S
C2638 H2652 0.960 . S
C2639 C2636 1.511 . S
C2639 H2653 0.961 . S
C2639 H2654 0.961 . S
C2639 H2655 0.961 . S
C2640 C2641 1.370 . S
C2640 C2642 1.363 . S
C2640 H2656 0.931 . S
C2641 C2640 1.370 . S
C2641 C2645 1.408 . S
C2642 C2640 1.363 . S
C2642 C2643 1.370 . S
C2642 C2646 1.524 . S
C2643 C2635 1.503 . S
C2643 C2642 1.370 . S
C2643 C2644 1.403 . S
C2644 C2643 1.403 . S
C2644 C2645 1.404 . S
C2644 C2647 1.539 . S
C2645 C2641 1.408 . S
C2645 C2644 1.404 . S
C2645 H2657 0.930 . S
C2646 C2642 1.524 . S
C2646 H2658 0.956 . S
C2646 H2659 0.961 . S
C2646 H2660 0.961 . S
C2647 C2644 1.539 . S
C2647 H2661 0.958 . S
C2647 H2662 0.961 . S
C2647 H2663 0.960 . S
H2648 C2632 0.931 . S
H2649 C2637 0.929 . S
H2650 C2638 0.960 . S
H2651 C2638 0.962 . S
H2652 C2638 0.960 . S
H2653 C2639 0.961 . S
H2654 C2639 0.961 . S
H2655 C2639 0.961 . S
H2656 C2640 0.931 . S
H2657 C2645 0.930 . S
H2658 C2646 0.956 . S
H2659 C2646 0.961 . S
H2660 C2646 0.961 . S
H2661 C2647 0.958 . S
H2662 C2647 0.961 . S
H2663 C2647 0.960 . S
C2664 C2665 1.391 . S
C2664 C2666 1.394 . S
C2664 H2680 0.931 . S
C2665 C2664 1.391 . S
C2665 C2669 1.376 . S
C2666 C2664 1.394 . S
C2666 C2667 1.369 . S
C2666 C2670 1.531 . S
C2667 C2666 1.369 . S
C2667 C2668 1.410 . S
C2667 C2675 1.503 . S
C2668 C2667 1.410 . S
C2668 C2669 1.392 . S
C2668 C2671 1.511 . S
C2669 C2665 1.376 . S
C2669 C2668 1.392 . S
C2669 H2681 0.929 . S
C2670 C2666 1.531 . S
C2670 H2682 0.960 . S
C2670 H2683 0.962 . S
C2670 H2684 0.960 . S
C2671 C2668 1.511 . S
C2671 H2685 0.961 . S
C2671 H2686 0.961 . S
C2671 H2687 0.961 . S
C2672 C2673 1.370 . S
C2672 C2674 1.363 . S
C2672 H2688 0.931 . S
C2673 C2672 1.370 . S
C2673 C2677 1.408 . S
C2674 C2672 1.363 . S
C2674 C2675 1.370 . S
C2674 C2678 1.524 . S
C2675 C2667 1.503 . S
C2675 C2674 1.370 . S
C2675 C2676 1.403 . S
C2676 C2675 1.403 . S
C2676 C2677 1.404 . S
C2676 C2679 1.539 . S
C2677 C2673 1.408 . S
C2677 C2676 1.404 . S
C2677 H2689 0.930 . S
C2678 C2674 1.524 . S
C2678 H2690 0.956 . S
C2678 H2691 0.961 . S
C2678 H2692 0.961 . S
C2679 C2676 1.539 . S
C2679 H2693 0.958 . S
C2679 H2694 0.961 . S
C2679 H2695 0.960 . S
H2680 C2664 0.931 . S
H2681 C2669 0.929 . S
H2682 C2670 0.960 . S
H2683 C2670 0.962 . S
H2684 C2670 0.960 . S
H2685 C2671 0.961 . S
H2686 C2671 0.961 . S
H2687 C2671 0.961 . S
H2688 C2672 0.931 . S
H2689 C2677 0.930 . S
H2690 C2678 0.956 . S
H2691 C2678 0.961 . S
H2692 C2678 0.961 . S
H2693 C2679 0.958 . S
H2694 C2679 0.961 . S
H2695 C2679 0.960 . S
C2696 C2697 1.391 . S
C2696 C2698 1.394 . S
C2696 H2712 0.931 . S
C2697 C2696 1.391 . S
C2697 C2701 1.376 . S
C2698 C2696 1.394 . S
C2698 C2699 1.369 . S
C2698 C2702 1.531 . S
C2699 C2698 1.369 . S
C2699 C2700 1.410 . S
C2699 C2707 1.503 . S
C2700 C2699 1.410 . S
C2700 C2701 1.392 . S
C2700 C2703 1.511 . S
C2701 C2697 1.376 . S
C2701 C2700 1.392 . S
C2701 H2713 0.929 . S
C2702 C2698 1.531 . S
C2702 H2714 0.960 . S
C2702 H2715 0.962 . S
C2702 H2716 0.960 . S
C2703 C2700 1.511 . S
C2703 H2717 0.961 . S
C2703 H2718 0.961 . S
C2703 H2719 0.961 . S
C2704 C2705 1.370 . S
C2704 C2706 1.363 . S
C2704 H2720 0.931 . S
C2705 C2704 1.370 . S
C2705 C2709 1.408 . S
C2706 C2704 1.363 . S
C2706 C2707 1.370 . S
C2706 C2710 1.524 . S
C2707 C2699 1.503 . S
C2707 C2706 1.370 . S
C2707 C2708 1.403 . S
C2708 C2707 1.403 . S
C2708 C2709 1.404 . S
C2708 C2711 1.539 . S
C2709 C2705 1.408 . S
C2709 C2708 1.404 . S
C2709 H2721 0.930 . S
C2710 C2706 1.524 . S
C2710 H2722 0.956 . S
C2710 H2723 0.961 . S
C2710 H2724 0.961 . S
C2711 C2708 1.539 . S
C2711 H2725 0.958 . S
C2711 H2726 0.961 . S
C2711 H2727 0.960 . S
H2712 C2696 0.931 . S
H2713 C2701 0.929 . S
H2714 C2702 0.960 . S
H2715 C2702 0.962 . S
H2716 C2702 0.960 . S
H2717 C2703 0.961 . S
H2718 C2703 0.961 . S
H2719 C2703 0.961 . S
H2720 C2704 0.931 . S
H2721 C2709 0.930 . S
H2722 C2710 0.956 . S
H2723 C2710 0.961 . S
H2724 C2710 0.961 . S
H2725 C2711 0.958 . S
H2726 C2711 0.961 . S
H2727 C2711 0.960 . S
C2728 C2729 1.391 . S
C2728 C2730 1.394 . S
C2728 H2744 0.931 . S
C2729 C2728 1.391 . S
C2729 C2733 1.376 . S
C2730 C2728 1.394 . S
C2730 C2731 1.369 . S
C2730 C2734 1.531 . S
C2731 C2730 1.369 . S
C2731 C2732 1.410 . S
C2731 C2739 1.503 . S
C2732 C2731 1.410 . S
C2732 C2733 1.392 . S
C2732 C2735 1.511 . S
C2733 C2729 1.376 . S
C2733 C2732 1.392 . S
C2733 H2745 0.929 . S
C2734 C2730 1.531 . S
C2734 H2746 0.960 . S
C2734 H2747 0.962 . S
C2734 H2748 0.960 . S
C2735 C2732 1.511 . S
C2735 H2749 0.961 . S
C2735 H2750 0.961 . S
C2735 H2751 0.961 . S
C2736 C2737 1.370 . S
C2736 C2738 1.363 . S
C2736 H2752 0.931 . S
C2737 C2736 1.370 . S
C2737 C2741 1.408 . S
C2738 C2736 1.363 . S
C2738 C2739 1.370 . S
C2738 C2742 1.524 . S
C2739 C2731 1.503 . S
C2739 C2738 1.370 . S
C2739 C2740 1.403 . S
C2740 C2739 1.403 . S
C2740 C2741 1.404 . S
C2740 C2743 1.539 . S
C2741 C2737 1.408 . S
C2741 C2740 1.404 . S
C2741 H2753 0.930 . S
C2742 C2738 1.524 . S
C2742 H2754 0.956 . S
C2742 H2755 0.961 . S
C2742 H2756 0.961 . S
C2743 C2740 1.539 . S
C2743 H2757 0.958 . S
C2743 H2758 0.961 . S
C2743 H2759 0.960 . S
H2744 C2728 0.931 . S
H2745 C2733 0.929 . S
H2746 C2734 0.960 . S
H2747 C2734 0.962 . S
H2748 C2734 0.960 . S
H2749 C2735 0.961 . S
H2750 C2735 0.961 . S
H2751 C2735 0.961 . S
H2752 C2736 0.931 . S
H2753 C2741 0.930 . S
H2754 C2742 0.956 . S
H2755 C2742 0.961 . S
H2756 C2742 0.961 . S
H2757 C2743 0.958 . S
H2758 C2743 0.961 . S
H2759 C2743 0.960 . S
C2760 C2761 1.391 . S
C2760 C2762 1.394 . S
C2760 H2776 0.931 . S
C2761 C2760 1.391 . S
C2761 C2765 1.376 . S
C2762 C2760 1.394 . S
C2762 C2763 1.369 . S
C2762 C2766 1.531 . S
C2763 C2762 1.369 . S
C2763 C2764 1.410 . S
C2763 C2771 1.503 1_455 S
C2764 C2763 1.410 . S
C2764 C2765 1.392 . S
C2764 C2767 1.511 . S
C2765 C2761 1.376 . S
C2765 C2764 1.392 . S
C2765 H2777 0.929 . S
C2766 C2762 1.531 . S
C2766 H2778 0.960 . S
C2766 H2779 0.962 1_455 S
C2766 H2780 0.960 . S
C2767 C2764 1.511 . S
C2767 H2781 0.961 . S
C2767 H2782 0.961 1_455 S
C2767 H2783 0.961 . S
C2768 C2769 1.370 . S
C2768 C2770 1.363 . S
C2768 H2784 0.931 . S
C2769 C2768 1.370 . S
C2769 C2773 1.408 . S
C2770 C2768 1.363 . S
C2770 C2771 1.370 . S
C2770 C2774 1.524 . S
C2771 C2763 1.503 1_655 S
C2771 C2770 1.370 . S
C2771 C2772 1.403 1_655 S
C2772 C2771 1.403 1_455 S
C2772 C2773 1.404 1_455 S
C2772 C2775 1.539 . S
C2773 C2769 1.408 . S
C2773 C2772 1.404 1_655 S
C2773 H2785 0.930 1_655 S
C2774 C2770 1.524 . S
C2774 H2786 0.956 . S
C2774 H2787 0.961 . S
C2774 H2788 0.961 . S
C2775 C2772 1.539 . S
C2775 H2789 0.958 . S
C2775 H2790 0.961 . S
C2775 H2791 0.960 . S
H2776 C2760 0.931 . S
H2777 C2765 0.929 . S
H2778 C2766 0.960 . S
H2779 C2766 0.962 1_655 S
H2780 C2766 0.960 . S
H2781 C2767 0.961 . S
H2782 C2767 0.961 1_655 S
H2783 C2767 0.961 . S
H2784 C2768 0.931 . S
H2785 C2773 0.930 1_455 S
H2786 C2774 0.956 . S
H2787 C2774 0.961 . S
H2788 C2774 0.961 . S
H2789 C2775 0.958 . S
H2790 C2775 0.961 . S
H2791 C2775 0.960 . S
C2792 C2793 1.391 . S
C2792 C2794 1.394 . S
C2792 H2808 0.931 . S
C2793 C2792 1.391 . S
C2793 C2797 1.376 . S
C2794 C2792 1.394 . S
C2794 C2795 1.369 . S
C2794 C2798 1.531 . S
C2795 C2794 1.369 . S
C2795 C2796 1.410 . S
C2795 C2803 1.503 . S
C2796 C2795 1.410 . S
C2796 C2797 1.392 . S
C2796 C2799 1.511 . S
C2797 C2793 1.376 . S
C2797 C2796 1.392 . S
C2797 H2809 0.929 . S
C2798 C2794 1.531 . S
C2798 H2810 0.960 . S
C2798 H2811 0.962 . S
C2798 H2812 0.960 . S
C2799 C2796 1.511 . S
C2799 H2813 0.961 . S
C2799 H2814 0.961 . S
C2799 H2815 0.961 . S
C2800 C2801 1.370 . S
C2800 C2802 1.363 . S
C2800 H2816 0.931 . S
C2801 C2800 1.370 . S
C2801 C2805 1.408 . S
C2802 C2800 1.363 . S
C2802 C2803 1.370 . S
C2802 C2806 1.524 . S
C2803 C2795 1.503 . S
C2803 C2802 1.370 . S
C2803 C2804 1.403 . S
C2804 C2803 1.403 . S
C2804 C2805 1.404 . S
C2804 C2807 1.539 . S
C2805 C2801 1.408 . S
C2805 C2804 1.404 . S
C2805 H2817 0.930 . S
C2806 C2802 1.524 . S
C2806 H2818 0.956 . S
C2806 H2819 0.961 . S
C2806 H2820 0.961 . S
C2807 C2804 1.539 . S
C2807 H2821 0.958 . S
C2807 H2822 0.961 . S
C2807 H2823 0.960 . S
H2808 C2792 0.931 . S
H2809 C2797 0.929 . S
H2810 C2798 0.960 . S
H2811 C2798 0.962 . S
H2812 C2798 0.960 . S
H2813 C2799 0.961 . S
H2814 C2799 0.961 . S
H2815 C2799 0.961 . S
H2816 C2800 0.931 . S
H2817 C2805 0.930 . S
H2818 C2806 0.956 . S
H2819 C2806 0.961 . S
H2820 C2806 0.961 . S
H2821 C2807 0.958 . S
H2822 C2807 0.961 . S
H2823 C2807 0.960 . S
C2824 C2825 1.391 . S
C2824 C2826 1.394 . S
C2824 H2840 0.931 . S
C2825 C2824 1.391 . S
C2825 C2829 1.376 . S
C2826 C2824 1.394 . S
C2826 C2827 1.369 . S
C2826 C2830 1.531 . S
C2827 C2826 1.369 . S
C2827 C2828 1.410 . S
C2827 C2835 1.503 1_545 S
C2828 C2827 1.410 . S
C2828 C2829 1.392 . S
C2828 C2831 1.511 1_545 S
C2829 C2825 1.376 . S
C2829 C2828 1.392 . S
C2829 H2841 0.929 . S
C2830 C2826 1.531 . S
C2830 H2842 0.960 . S
C2830 H2843 0.962 . S
C2830 H2844 0.960 . S
C2831 C2828 1.511 1_565 S
C2831 H2845 0.961 . S
C2831 H2846 0.961 . S
C2831 H2847 1.003 . S
C2832 C2833 1.370 . S
C2832 C2834 1.363 . S
C2832 H2848 0.931 . S
C2833 C2832 1.370 . S
C2833 C2837 1.408 . S
C2834 C2832 1.363 . S
C2834 C2835 1.370 . S
C2834 C2838 1.524 . S
C2835 C2827 1.503 1_565 S
C2835 C2834 1.370 . S
C2835 C2836 1.403 1_565 S
C2836 C2835 1.403 1_545 S
C2836 C2837 1.404 1_545 S
C2836 C2839 1.539 . S
C2837 C2833 1.408 . S
C2837 C2836 1.404 1_565 S
C2837 H2849 0.930 . S
C2838 C2834 1.524 . S
C2838 H2850 0.956 . S
C2838 H2851 0.961 . S
C2838 H2852 0.961 . S
C2839 C2836 1.539 . S
C2839 H2853 0.958 . S
C2839 H2854 0.961 . S
C2839 H2855 0.960 . S
H2840 C2824 0.931 . S
H2841 C2829 0.929 . S
H2842 C2830 0.960 . S
H2843 C2830 0.962 . S
H2844 C2830 0.960 . S
H2845 C2831 0.961 . S
H2846 C2831 0.961 . S
H2847 C2831 1.003 . S
H2848 C2832 0.931 . S
H2849 C2837 0.930 . S
H2850 C2838 0.956 . S
H2851 C2838 0.961 . S
H2852 C2838 0.961 . S
H2853 C2839 0.958 . S
H2854 C2839 0.961 . S
H2855 C2839 0.960 . S
C2856 C2857 1.391 . S
C2856 C2858 1.394 . S
C2856 H2872 0.931 . S
C2857 C2856 1.391 . S
C2857 C2861 1.376 . S
C2858 C2856 1.394 . S
C2858 C2859 1.369 . S
C2858 C2862 1.531 1_565 S
C2859 C2858 1.369 . S
C2859 C2860 1.410 . S
C2859 C2867 1.503 1_564 S
C2860 C2859 1.410 . S
C2860 C2861 1.392 . S
C2860 C2863 1.511 1_554 S
C2861 C2857 1.376 . S
C2861 C2860 1.392 . S
C2861 H2873 0.929 . S
C2862 C2858 1.531 1_545 S
C2862 H2874 0.960 . S
C2862 H2875 0.962 . S
C2862 H2876 0.960 . S
C2863 C2860 1.511 1_556 S
C2863 H2877 0.961 . S
C2863 H2878 0.961 . S
C2863 H2879 0.961 . S
C2864 C2865 1.370 . S
C2864 C2866 1.363 1_545 S
C2864 H2880 0.937 . S
C2865 C2864 1.370 . S
C2865 C2869 1.408 . S
C2866 C2864 1.363 1_565 S
C2866 C2867 1.370 1_565 S
C2866 C2870 1.524 . S
C2867 C2859 1.503 1_546 S
C2867 C2866 1.370 1_545 S
C2867 C2868 1.403 . S
C2868 C2867 1.403 . S
C2868 C2869 1.404 . S
C2868 C2871 1.552 . S
C2869 C2865 1.408 . S
C2869 C2868 1.404 . S
C2869 H2881 0.930 . S
C2870 C2866 1.524 . S
C2870 H2882 0.956 . S
C2870 H2883 0.961 . S
C2870 H2884 0.961 . S
C2871 C2868 1.552 . S
C2871 H2885 0.941 1_556 S
C2871 H2886 0.976 . S
C2871 H2887 0.949 1_556 S
H2872 C2856 0.931 . S
H2873 C2861 0.929 . S
H2874 C2862 0.960 . S
H2875 C2862 0.962 . S
H2876 C2862 0.960 . S
H2877 C2863 0.961 . S
H2878 C2863 0.961 . S
H2879 C2863 0.961 . S
H2880 C2864 0.937 . S
H2881 C2869 0.930 . S
H2882 C2870 0.956 . S
H2883 C2870 0.961 . S
H2884 C2870 0.961 . S
H2885 C2871 0.941 1_554 S
H2886 C2871 0.976 . S
H2887 C2871 0.949 1_554 S
C2888 C2889 1.391 . S
C2888 C2890 1.394 . S
C2888 H2904 0.931 . S
C2889 C2888 1.391 . S
C2889 C2893 1.376 . S
C2890 C2888 1.394 . S
C2890 C2891 1.369 . S
C2890 C2894 1.531 1_656 S
C2891 C2890 1.369 . S
C2891 C2892 1.410 . S
C2891 C2899 1.503 1_656 S
C2892 C2891 1.410 . S
C2892 C2893 1.392 . S
C2892 C2895 1.511 . S
C2893 C2889 1.376 . S
C2893 C2892 1.392 . S
C2893 H2905 0.929 . S
C2894 C2890 1.531 1_454 S
C2894 H2906 0.960 . S
C2894 H2907 0.962 1_455 S
C2894 H2908 0.960 1_554 S
C2895 C2892 1.511 . S
C2895 H2909 0.961 . S
C2895 H2910 0.961 . S
C2895 H2911 0.961 1_655 S
C2896 C2897 1.370 . S
C2896 C2898 1.363 1_455 S
C2896 H2912 0.931 1_455 S
C2897 C2896 1.370 . S
C2897 C2901 1.408 . S
C2898 C2896 1.363 1_655 S
C2898 C2899 1.370 1_655 S
C2898 C2902 1.524 . S
C2899 C2891 1.503 1_454 S
C2899 C2898 1.370 1_455 S
C2899 C2900 1.403 . S
C2900 C2899 1.403 . S
C2900 C2901 1.404 . S
C2900 C2903 1.539 1_554 S
C2901 C2897 1.408 . S
C2901 C2900 1.404 . S
C2901 H2913 0.930 . S
C2902 C2898 1.524 . S
C2902 H2914 0.956 . S
C2902 H2915 0.961 . S
C2902 H2916 0.961 . S
C2903 C2900 1.539 1_556 S
C2903 H2917 0.958 . S
C2903 H2918 0.961 . S
C2903 H2919 0.960 . S
H2904 C2888 0.931 . S
H2905 C2893 0.929 . S
H2906 C2894 0.960 . S
H2907 C2894 0.962 1_655 S
H2908 C2894 0.960 1_556 S
H2909 C2895 0.961 . S
H2910 C2895 0.961 . S
H2911 C2895 0.961 1_455 S
H2912 C2896 0.931 1_655 S
H2913 C2901 0.930 . S
H2914 C2902 0.956 . S
H2915 C2902 0.961 . S
H2916 C2902 0.961 . S
H2917 C2903 0.958 . S
H2918 C2903 0.961 . S
H2919 C2903 0.960 . S
C2920 C2921 1.391 . S
C2920 C2922 1.394 . S
C2920 H2936 0.931 . S
C2921 C2920 1.391 . S
C2921 C2925 1.376 . S
C2922 C2920 1.394 . S
C2922 C2923 1.369 . S
C2922 C2926 1.531 . S
C2923 C2922 1.369 . S
C2923 C2924 1.410 . S
C2923 C2931 1.503 1_554 S
C2924 C2923 1.410 . S
C2924 C2925 1.392 . S
C2924 C2927 1.511 1_554 S
C2925 C2921 1.376 . S
C2925 C2924 1.392 . S
C2925 H2937 0.929 . S
C2926 C2922 1.531 . S
C2926 H2938 0.960 . S
C2926 H2939 0.962 . S
C2926 H2940 0.960 . S
C2927 C2924 1.511 1_556 S
C2927 H2941 0.961 . S
C2927 H2942 0.961 . S
C2927 H2943 0.961 . S
C2928 C2929 1.370 . S
C2928 C2930 1.363 . S
C2928 H2944 0.931 . S
C2929 C2928 1.370 . S
C2929 C2933 1.408 . S
C2930 C2928 1.363 . S
C2930 C2931 1.370 . S
C2930 C2934 1.524 . S
C2931 C2923 1.503 1_556 S
C2931 C2930 1.370 . S
C2931 C2932 1.403 . S
C2932 C2931 1.403 . S
C2932 C2933 1.404 . S
C2932 C2935 1.539 1_556 S
C2933 C2929 1.408 . S
C2933 C2932 1.404 . S
C2933 H2945 0.930 . S
C2934 C2930 1.524 . S
C2934 H2946 0.956 . S
C2934 H2947 0.961 . S
C2934 H2948 0.961 . S
C2935 C2932 1.539 1_554 S
C2935 H2949 0.958 . S
C2935 H2950 0.961 . S
C2935 H2951 0.960 . S
H2936 C2920 0.931 . S
H2937 C2925 0.929 . S
H2938 C2926 0.960 . S
H2939 C2926 0.962 . S
H2940 C2926 0.960 . S
H2941 C2927 0.961 . S
H2942 C2927 0.961 . S
H2943 C2927 0.961 . S
H2944 C2928 0.931 . S
H2945 C2933 0.930 . S
H2946 C2934 0.956 . S
H2947 C2934 0.961 . S
H2948 C2934 0.961 . S
H2949 C2935 0.958 . S
H2950 C2935 0.961 . S
H2951 C2935 0.960 . S
C2952 C2953 1.391 . S
C2952 C2954 1.394 . S
C2952 H2968 0.931 . S
C2953 C2952 1.391 . S
C2953 C2957 1.376 1_554 S
C2954 C2952 1.394 . S
C2954 C2955 1.369 . S
C2954 C2958 1.531 . S
C2955 C2954 1.369 . S
C2955 C2956 1.410 1_554 S
C2955 C2963 1.503 1_554 S
C2956 C2955 1.410 1_556 S
C2956 C2957 1.392 . S
C2956 C2959 1.511 . S
C2957 C2953 1.376 1_556 S
C2957 C2956 1.392 . S
C2957 H2969 0.929 . S
C2958 C2954 1.531 . S
C2958 H2970 0.960 . S
C2958 H2971 0.962 . S
C2958 H2972 0.960 . S
C2959 C2956 1.511 . S
C2959 H2973 0.961 . S
C2959 H2974 0.961 . S
C2959 H2975 0.961 . S
C2960 C2961 1.370 . S
C2960 C2962 1.363 1_565 S
C2960 H2976 0.931 . S
C2961 C2960 1.370 . S
C2961 C2965 1.408 . S
C2962 C2960 1.363 1_545 S
C2962 C2963 1.370 . S
C2962 C2966 1.524 . S
C2963 C2955 1.503 1_556 S
C2963 C2962 1.370 . S
C2963 C2964 1.403 1_546 S
C2964 C2963 1.403 1_564 S
C2964 C2965 1.404 1_554 S
C2964 C2967 1.539 . S
C2965 C2961 1.408 . S
C2965 C2964 1.404 1_556 S
C2965 H2977 0.930 . S
C2966 C2962 1.524 . S
C2966 H2978 0.956 . S
C2966 H2979 0.961 . S
C2966 H2980 0.961 . S
C2967 C2964 1.539 . S
C2967 H2981 0.958 . S
C2967 H2982 0.961 . S
C2967 H2983 0.960 1_565 S
H2968 C2952 0.931 . S
H2969 C2957 0.929 . S
H2970 C2958 0.960 . S
H2971 C2958 0.962 . S
H2972 C2958 0.960 . S
H2973 C2959 0.961 . S
H2974 C2959 0.961 . S
H2975 C2959 0.961 . S
H2976 C2960 0.931 . S
H2977 C2965 0.930 . S
H2978 C2966 0.956 . S
H2979 C2966 0.961 . S
H2980 C2966 0.961 . S
H2981 C2967 0.958 . S
H2982 C2967 0.961 . S
H2983 C2967 0.960 1_545 S
C2984 C2985 1.391 1_556 S
C2984 C2986 1.394 . S
C2984 H3000 0.931 . S
C2985 C2984 1.391 1_554 S
C2985 C2989 1.376 . S
C2986 C2984 1.394 . S
C2986 C2987 1.369 1_556 S
C2986 C2990 1.531 . S
C2987 C2986 1.369 1_554 S
C2987 C2988 1.410 . S
C2987 C2995 1.503 1_554 S
C2988 C2987 1.410 . S
C2988 C2989 1.392 . S
C2988 C2991 1.511 . S
C2989 C2985 1.376 . S
C2989 C2988 1.392 . S
C2989 H3001 0.929 . S
C2990 C2986 1.531 . S
C2990 H3002 0.960 . S
C2990 H3003 0.962 . S
C2990 H3004 0.960 . S
C2991 C2988 1.511 . S
C2991 H3005 0.961 . S
C2991 H3006 0.961 . S
C2991 H3007 0.961 . S
C2992 C2993 1.370 . S
C2992 C2994 1.318 1_455 S
C2992 H3008 0.931 . S
C2993 C2992 1.370 . S
C2993 C2997 1.408 . S
C2994 C2992 1.318 1_655 S
C2994 C2995 1.409 . S
C2994 C2998 1.532 . S
C2995 C2987 1.503 1_556 S
C2995 C2994 1.409 . S
C2995 C2996 1.406 1_655 S
C2996 C2995 1.406 1_455 S
C2996 C2997 1.408 . S
C2996 C2999 1.531 1_456 S
C2997 C2993 1.408 . S
C2997 C2996 1.408 . S
C2997 H3009 0.930 . S
C2998 C2994 1.532 . S
C2998 H3010 0.956 . S
C2998 H3011 0.961 . S
C2998 H3012 0.961 . S
C2999 C2996 1.531 1_654 S
C2999 H3013 0.958 . S
C2999 H3014 0.961 1_655 S
C2999 H3015 0.960 . S
H3000 C2984 0.931 . S
H3001 C2989 0.929 . S
H3002 C2990 0.960 . S
H3003 C2990 0.962 . S
H3004 C2990 0.960 . S
H3005 C2991 0.961 . S
H3006 C2991 0.961 . S
H3007 C2991 0.961 . S
H3008 C2992 0.931 . S
H3009 C2997 0.930 . S
H3010 C2998 0.956 . S
H3011 C2998 0.961 . S
H3012 C2998 0.961 . S
H3013 C2999 0.958 . S
H3014 C2999 0.961 1_455 S
H3015 C2999 0.960 . S
C3016 C3017 1.391 . S
C3016 C3018 1.394 . S
C3016 H3032 0.931 . S
C3017 C3016 1.391 . S
C3017 C3021 1.376 . S
C3018 C3016 1.394 . S
C3018 C3019 1.369 . S
C3018 C3022 1.531 . S
C3019 C3018 1.369 . S
C3019 C3020 1.410 . S
C3019 C3027 1.503 1_556 S
C3020 C3019 1.410 . S
C3020 C3021 1.392 . S
C3020 C3023 1.511 1_556 S
C3021 C3017 1.376 . S
C3021 C3020 1.392 . S
C3021 H3033 0.929 . S
C3022 C3018 1.531 . S
C3022 H3034 0.960 . S
C3022 H3035 0.962 . S
C3022 H3036 0.960 . S
C3023 C3020 1.511 1_554 S
C3023 H3037 0.961 . S
C3023 H3038 0.961 . S
C3023 H3039 0.961 . S
C3024 C3025 1.370 1_556 S
C3024 C3026 1.363 . S
C3024 H3040 0.931 . S
C3025 C3024 1.370 1_554 S
C3025 C3029 1.408 . S
C3026 C3024 1.363 . S
C3026 C3027 1.370 1_556 S
C3026 C3030 1.524 . S
C3027 C3019 1.503 1_554 S
C3027 C3026 1.370 1_554 S
C3027 C3028 1.403 . S
C3028 C3027 1.403 . S
C3028 C3029 1.404 . S
C3028 C3031 1.539 . S
C3029 C3025 1.408 . S
C3029 C3028 1.404 . S
C3029 H3041 0.930 . S
C3030 C3026 1.524 . S
C3030 H3042 0.956 . S
C3030 H3043 0.961 . S
C3030 H3044 0.961 . S
C3031 C3028 1.539 . S
C3031 H3045 0.958 . S
C3031 H3046 0.961 . S
C3031 H3047 0.960 . S
H3032 C3016 0.931 . S
H3033 C3021 0.929 . S
H3034 C3022 0.960 . S
H3035 C3022 0.962 . S
H3036 C3022 0.960 . S
H3037 C3023 0.961 . S
H3038 C3023 0.961 . S
H3039 C3023 0.961 . S
H3040 C3024 0.931 . S
H3041 C3029 0.930 . S
H3042 C3030 0.956 . S
H3043 C3030 0.961 . S
H3044 C3030 0.961 . S
H3045 C3031 0.958 . S
H3046 C3031 0.961 . S
H3047 C3031 0.960 . S
C3048 C3049 1.391 . S
C3048 C3050 1.394 1_655 S
C3048 H3064 0.931 . S
C3049 C3048 1.391 . S
C3049 C3053 1.376 . S
C3050 C3048 1.394 1_455 S
C3050 C3051 1.369 . S
C3050 C3054 1.531 . S
C3051 C3050 1.369 . S
C3051 C3052 1.410 1_455 S
C3051 C3059 1.503 . S
C3052 C3051 1.410 1_655 S
C3052 C3053 1.392 . S
C3052 C3055 1.511 1_655 S
C3053 C3049 1.376 . S
C3053 C3052 1.392 . S
C3053 H3065 0.929 . S
C3054 C3050 1.531 . S
C3054 H3066 0.960 . S
C3054 H3067 0.962 . S
C3054 H3068 0.960 . S
C3055 C3052 1.511 1_455 S
C3055 H3069 0.961 1_455 S
C3055 H3070 0.961 . S
C3055 H3071 0.961 . S
C3056 C3057 1.370 . S
C3056 C3058 1.363 . S
C3056 H3072 0.931 . S
C3057 C3056 1.370 . S
C3057 C3061 1.408 . S
C3058 C3056 1.363 . S
C3058 C3059 1.370 . S
C3058 C3062 1.524 . S
C3059 C3051 1.503 . S
C3059 C3058 1.370 . S
C3059 C3060 1.403 . S
C3060 C3059 1.403 . S
C3060 C3061 1.404 . S
C3060 C3063 1.539 . S
C3061 C3057 1.408 . S
C3061 C3060 1.404 . S
C3061 H3073 0.930 . S
C3062 C3058 1.524 . S
C3062 H3074 0.956 . S
C3062 H3075 0.961 . S
C3062 H3076 0.961 . S
C3063 C3060 1.539 . S
C3063 H3077 0.958 . S
C3063 H3078 0.961 . S
C3063 H3079 0.960 . S
H3064 C3048 0.931 . S
H3065 C3053 0.929 . S
H3066 C3054 0.960 . S
H3067 C3054 0.962 . S
H3068 C3054 0.960 . S
H3069 C3055 0.961 1_655 S
H3070 C3055 0.961 . S
H3071 C3055 0.961 . S
H3072 C3056 0.931 . S
H3073 C3061 0.930 . S
H3074 C3062 0.956 . S
H3075 C3062 0.961 . S
H3076 C3062 0.961 . S
H3077 C3063 0.958 . S
H3078 C3063 0.961 . S
H3079 C3063 0.960 . S
C3080 C3081 1.391 . S
C3080 C3082 1.394 . S
C3080 H3096 0.931 . S
C3081 C3080 1.391 . S
C3081 C3085 1.376 . S
C3082 C3080 1.394 . S
C3082 C3083 1.369 . S
C3082 C3086 1.531 . S
C3083 C3082 1.369 . S
C3083 C3084 1.410 . S
C3083 C3091 1.503 . S
C3084 C3083 1.410 . S
C3084 C3085 1.392 . S
C3084 C3087 1.511 . S
C3085 C3081 1.376 . S
C3085 C3084 1.392 . S
C3085 H3097 0.929 . S
C3086 C3082 1.531 . S
C3086 H3098 0.960 . S
C3086 H3099 0.962 . S
C3086 H3100 0.960 . S
C3087 C3084 1.511 . S
C3087 H3101 0.961 . S
C3087 H3102 0.961 . S
C3087 H3103 0.961 . S
C3088 C3089 1.370 . S
C3088 C3090 1.363 . S
C3088 H3104 0.931 . S
C3089 C3088 1.370 . S
C3089 C3093 1.408 . S
C3090 C3088 1.363 . S
C3090 C3091 1.370 . S
C3090 C3094 1.524 . S
C3091 C3083 1.503 . S
C3091 C3090 1.370 . S
C3091 C3092 1.403 . S
C3092 C3091 1.403 . S
C3092 C3093 1.404 . S
C3092 C3095 1.539 . S
C3093 C3089 1.408 . S
C3093 C3092 1.404 . S
C3093 H3105 0.930 . S
C3094 C3090 1.524 . S
C3094 H3106 0.956 . S
C3094 H3107 0.961 . S
C3094 H3108 0.961 . S
C3095 C3092 1.539 . S
C3095 H3109 0.958 . S
C3095 H3110 0.961 . S
C3095 H3111 0.960 . S
H3096 C3080 0.931 . S
H3097 C3085 0.929 . S
H3098 C3086 0.960 . S
H3099 C3086 0.962 . S
H3100 C3086 0.960 . S
H3101 C3087 0.961 . S
H3102 C3087 0.961 . S
H3103 C3087 0.961 . S
H3104 C3088 0.931 . S
H3105 C3093 0.930 . S
H3106 C3094 0.956 . S
H3107 C3094 0.961 . S
H3108 C3094 0.961 . S
H3109 C3095 0.958 . S
H3110 C3095 0.961 . S
H3111 C3095 0.960 . S
C3112 C3113 1.391 . S
C3112 C3114 1.394 . S
C3112 H3128 0.931 . S
C3113 C3112 1.391 . S
C3113 C3117 1.376 . S
C3114 C3112 1.394 . S
C3114 C3115 1.369 1_545 S
C3114 C3118 1.531 1_545 S
C3115 C3114 1.369 1_565 S
C3115 C3116 1.410 . S
C3115 C3123 1.503 . S
C3116 C3115 1.410 . S
C3116 C3117 1.392 1_565 S
C3116 C3119 1.511 . S
C3117 C3113 1.376 . S
C3117 C3116 1.392 1_545 S
C3117 H3129 0.929 . S
C3118 C3114 1.531 1_565 S
C3118 H3130 0.960 . S
C3118 H3131 0.962 . S
C3118 H3132 0.961 1_565 S
C3119 C3116 1.511 . S
C3119 H3133 0.961 . S
C3119 H3134 0.961 . S
C3119 H3135 0.961 . S
C3120 C3121 1.370 . S
C3120 C3122 1.363 . S
C3120 H3136 0.931 . S
C3121 C3120 1.370 . S
C3121 C3125 1.408 . S
C3122 C3120 1.363 . S
C3122 C3123 1.370 . S
C3122 C3126 1.524 . S
C3123 C3115 1.503 . S
C3123 C3122 1.370 . S
C3123 C3124 1.403 . S
C3124 C3123 1.403 . S
C3124 C3125 1.404 . S
C3124 C3127 1.539 . S
C3125 C3121 1.408 . S
C3125 C3124 1.404 . S
C3125 H3137 0.930 . S
C3126 C3122 1.524 . S
C3126 H3138 0.956 . S
C3126 H3139 0.961 . S
C3126 H3140 0.961 . S
C3127 C3124 1.539 . S
C3127 H3141 0.958 . S
C3127 H3142 0.961 . S
C3127 H3143 0.960 . S
H3128 C3112 0.931 . S
H3129 C3117 0.929 . S
H3130 C3118 0.960 . S
H3131 C3118 0.962 . S
H3132 C3118 0.961 1_545 S
H3133 C3119 0.961 . S
H3134 C3119 0.961 . S
H3135 C3119 0.961 . S
H3136 C3120 0.931 . S
H3137 C3125 0.930 . S
H3138 C3126 0.956 . S
H3139 C3126 0.961 . S
H3140 C3126 0.961 . S
H3141 C3127 0.958 . S
H3142 C3127 0.961 . S
H3143 C3127 0.960 . S
C3144 C3145 1.391 . S
C3144 C3146 1.394 1_545 S
C3144 H3160 0.931 . S
C3145 C3144 1.391 . S
C3145 C3149 1.373 1_554 S
C3146 C3144 1.394 1_565 S
C3146 C3147 1.369 . S
C3146 C3150 1.531 . S
C3147 C3146 1.369 . S
C3147 C3148 1.410 1_564 S
C3147 C3155 1.503 . S
C3148 C3147 1.410 1_546 S
C3148 C3149 1.393 . S
C3148 C3151 1.511 . S
C3149 C3145 1.373 1_556 S
C3149 C3148 1.393 . S
C3149 H3161 0.931 . S
C3150 C3146 1.531 . S
C3150 H3162 0.960 . S
C3150 H3163 0.962 . S
C3150 H3164 0.960 . S
C3151 C3148 1.511 . S
C3151 H3165 0.961 . S
C3151 H3166 0.961 1_545 S
C3151 H3167 0.945 . S
C3152 C3153 1.370 . S
C3152 C3154 1.356 1_556 S
C3152 H3168 0.931 . S
C3153 C3152 1.370 . S
C3153 C3157 1.408 . S
C3154 C3152 1.356 1_554 S
C3154 C3155 1.371 . S
C3154 C3158 1.531 . S
C3155 C3147 1.503 . S
C3155 C3154 1.371 . S
C3155 C3156 1.403 1_554 S
C3156 C3155 1.403 1_556 S
C3156 C3157 1.404 . S
C3156 C3159 1.539 . S
C3157 C3153 1.408 . S
C3157 C3156 1.404 . S
C3157 H3169 0.930 . S
C3158 C3154 1.531 . S
C3158 H3170 0.956 . S
C3158 H3171 0.961 1_554 S
C3158 H3172 0.961 . S
C3159 C3156 1.539 . S
C3159 H3173 0.958 1_556 S
C3159 H3174 0.961 . S
C3159 H3175 0.960 . S
H3160 C3144 0.931 . S
H3161 C3149 0.931 . S
H3162 C3150 0.960 . S
H3163 C3150 0.962 . S
H3164 C3150 0.960 . S
H3165 C3151 0.961 . S
H3166 C3151 0.961 1_565 S
H3167 C3151 0.945 . S
H3168 C3152 0.931 . S
H3169 C3157 0.930 . S
H3170 C3158 0.956 . S
H3171 C3158 0.961 1_556 S
H3172 C3158 0.961 . S
H3173 C3159 0.958 1_554 S
H3174 C3159 0.961 . S
H3175 C3159 0.960 . S
C3176 C3177 1.391 . S
C3176 C3178 1.434 . S
C3176 H3192 0.931 . S
C3177 C3176 1.391 . S
C3177 C3181 1.376 . S
C3178 C3176 1.434 . S
C3178 C3179 1.376 1_655 S
C3178 C3182 1.484 1_655 S
C3179 C3178 1.376 1_455 S
C3179 C3180 1.410 1_455 S
C3179 C3187 1.503 1_554 S
C3180 C3179 1.410 1_655 S
C3180 C3181 1.392 . S
C3180 C3183 1.511 1_655 S
C3181 C3177 1.376 . S
C3181 C3180 1.392 . S
C3181 H3193 0.929 . S
C3182 C3178 1.484 1_455 S
C3182 H3194 0.960 1_554 S
C3182 H3195 0.962 . S
C3182 H3196 0.952 1_554 S
C3183 C3180 1.511 1_455 S
C3183 H3197 0.961 1_455 S
C3183 H3198 0.961 . S
C3183 H3199 0.970 1_554 S
C3184 C3185 1.370 1_554 S
C3184 C3186 1.363 . S
C3184 H3200 0.931 . S
C3185 C3184 1.370 1_556 S
C3185 C3189 1.408 . S
C3186 C3184 1.363 . S
C3186 C3187 1.370 1_554 S
C3186 C3190 1.524 . S
C3187 C3179 1.503 1_556 S
C3187 C3186 1.370 1_556 S
C3187 C3188 1.403 . S
C3188 C3187 1.403 . S
C3188 C3189 1.404 . S
C3188 C3191 1.539 . S
C3189 C3185 1.408 . S
C3189 C3188 1.404 . S
C3189 H3201 0.930 . S
C3190 C3186 1.524 . S
C3190 H3202 0.956 . S
C3190 H3203 0.961 . S
C3190 H3204 0.961 . S
C3191 C3188 1.539 . S
C3191 H3205 0.958 . S
C3191 H3206 0.961 . S
C3191 H3207 0.960 . S
H3192 C3176 0.931 . S
H3193 C3181 0.929 . S
H3194 C3182 0.960 1_556 S
H3195 C3182 0.962 . S
H3196 C3182 0.952 1_556 S
H3197 C3183 0.961 1_655 S
H3198 C3183 0.961 . S
H3199 C3183 0.970 1_556 S
H3200 C3184 0.931 . S
H3201 C3189 0.930 . S
H3202 C3190 0.956 . S
H3203 C3190 0.961 . S
H3204 C3190 0.961 . S
H3205 C3191 0.958 . S
H3206 C3191 0.961 . S
H3207 C3191 0.960 . S
C3208 C3209 1.391 . S
C3208 C3210 1.399 . S
C3208 H3224 0.931 1_554 S
C3209 C3208 1.391 . S
C3209 C3213 1.376 . S
C3210 C3208 1.399 . S
C3210 C3211 1.380 . S
C3210 C3214 1.514 1_554 S
C3211 C3210 1.380 . S
C3211 C3212 1.410 . S
C3211 C3219 1.503 . S
C3212 C3211 1.410 . S
C3212 C3213 1.392 . S
C3212 C3215 1.511 . S
C3213 C3209 1.376 . S
C3213 C3212 1.392 . S
C3213 H3225 0.929 . S
C3214 C3210 1.514 1_556 S
C3214 H3226 0.960 . S
C3214 H3227 0.962 . S
C3214 H3228 0.960 . S
C3215 C3212 1.511 . S
C3215 H3229 0.961 . S
C3215 H3230 0.961 . S
C3215 H3231 0.961 . S
C3216 C3217 1.370 . S
C3216 C3218 1.363 . S
C3216 H3232 0.931 . S
C3217 C3216 1.370 . S
C3217 C3221 1.408 1_556 S
C3218 C3216 1.363 . S
C3218 C3219 1.370 1_556 S
C3218 C3222 1.524 . S
C3219 C3211 1.503 . S
C3219 C3218 1.370 1_554 S
C3219 C3220 1.403 . S
C3220 C3219 1.403 . S
C3220 C3221 1.404 . S
C3220 C3223 1.539 . S
C3221 C3217 1.408 1_554 S
C3221 C3220 1.404 . S
C3221 H3233 0.930 . S
C3222 C3218 1.524 . S
C3222 H3234 0.956 . S
C3222 H3235 0.961 . S
C3222 H3236 0.961 . S
C3223 C3220 1.539 . S
C3223 H3237 0.958 . S
C3223 H3238 0.961 . S
C3223 H3239 0.960 . S
H3224 C3208 0.931 1_556 S
H3225 C3213 0.929 . S
H3226 C3214 0.960 . S
H3227 C3214 0.962 . S
H3228 C3214 0.960 . S
H3229 C3215 0.961 . S
H3230 C3215 0.961 . S
H3231 C3215 0.961 . S
H3232 C3216 0.931 . S
H3233 C3221 0.930 . S
H3234 C3222 0.956 . S
H3235 C3222 0.961 . S
H3236 C3222 0.961 . S
H3237 C3223 0.958 . S
H3238 C3223 0.961 . S
H3239 C3223 0.960 . S
C3240 C3241 1.391 . S
C3240 C3242 1.394 . S
C3240 H3256 0.931 . S
C3241 C3240 1.391 . S
C3241 C3245 1.376 . S
C3242 C3240 1.394 . S
C3242 C3243 1.369 . S
C3242 C3246 1.531 . S
C3243 C3242 1.369 . S
C3243 C3244 1.410 . S
C3243 C3251 1.503 . S
C3244 C3243 1.410 . S
C3244 C3245 1.392 . S
C3244 C3247 1.511 . S
C3245 C3241 1.376 . S
C3245 C3244 1.392 . S
C3245 H3257 0.929 . S
C3246 C3242 1.531 . S
C3246 H3258 0.960 . S
C3246 H3259 0.962 . S
C3246 H3260 0.960 . S
C3247 C3244 1.511 . S
C3247 H3261 0.961 . S
C3247 H3262 0.961 . S
C3247 H3263 0.961 . S
C3248 C3249 1.370 . S
C3248 C3250 1.363 . S
C3248 H3264 0.931 . S
C3249 C3248 1.370 . S
C3249 C3253 1.408 . S
C3250 C3248 1.363 . S
C3250 C3251 1.370 1_455 S
C3250 C3254 1.524 1_455 S
C3251 C3243 1.503 . S
C3251 C3250 1.370 1_655 S
C3251 C3252 1.403 . S
C3252 C3251 1.403 . S
C3252 C3253 1.399 1_655 S
C3252 C3255 1.544 . S
C3253 C3249 1.408 . S
C3253 C3252 1.399 1_455 S
C3253 H3265 0.930 . S
C3254 C3250 1.524 1_655 S
C3254 H3266 0.956 . S
C3254 H3267 0.961 . S
C3254 H3268 0.961 1_655 S
C3255 C3252 1.544 . S
C3255 H3269 0.958 . S
C3255 H3270 0.961 . S
C3255 H3271 0.960 . S
H3256 C3240 0.931 . S
H3257 C3245 0.929 . S
H3258 C3246 0.960 . S
H3259 C3246 0.962 . S
H3260 C3246 0.960 . S
H3261 C3247 0.961 . S
H3262 C3247 0.961 . S
H3263 C3247 0.961 . S
H3264 C3248 0.931 . S
H3265 C3253 0.930 . S
H3266 C3254 0.956 . S
H3267 C3254 0.961 . S
H3268 C3254 0.961 1_455 S
H3269 C3255 0.958 . S
H3270 C3255 0.961 . S
H3271 C3255 0.960 . S
C3272 C3273 1.391 . S
C3272 C3274 1.394 . S
C3272 H3288 0.931 . S
C3273 C3272 1.391 . S
C3273 C3277 1.376 . S
C3274 C3272 1.394 . S
C3274 C3275 1.369 . S
C3274 C3278 1.531 . S
C3275 C3274 1.369 . S
C3275 C3276 1.410 . S
C3275 C3283 1.503 . S
C3276 C3275 1.410 . S
C3276 C3277 1.392 . S
C3276 C3279 1.511 . S
C3277 C3273 1.376 . S
C3277 C3276 1.392 . S
C3277 H3289 0.929 . S
C3278 C3274 1.531 . S
C3278 H3290 0.960 . S
C3278 H3291 0.962 . S
C3278 H3292 0.960 . S
C3279 C3276 1.511 . S
C3279 H3293 0.961 . S
C3279 H3294 0.961 . S
C3279 H3295 0.961 . S
C3280 C3281 1.370 . S
C3280 C3282 1.363 . S
C3280 H3296 0.931 . S
C3281 C3280 1.370 . S
C3281 C3285 1.408 . S
C3282 C3280 1.363 . S
C3282 C3283 1.370 . S
C3282 C3286 1.524 . S
C3283 C3275 1.503 . S
C3283 C3282 1.370 . S
C3283 C3284 1.403 . S
C3284 C3283 1.403 . S
C3284 C3285 1.404 . S
C3284 C3287 1.539 . S
C3285 C3281 1.408 . S
C3285 C3284 1.404 . S
C3285 H3297 0.930 . S
C3286 C3282 1.524 . S
C3286 H3298 0.956 . S
C3286 H3299 0.961 . S
C3286 H3300 0.961 . S
C3287 C3284 1.539 . S
C3287 H3301 0.958 . S
C3287 H3302 0.961 . S
C3287 H3303 0.960 . S
H3288 C3272 0.931 . S
H3289 C3277 0.929 . S
H3290 C3278 0.960 . S
H3291 C3278 0.962 . S
H3292 C3278 0.960 . S
H3293 C3279 0.961 . S
H3294 C3279 0.961 . S
H3295 C3279 0.961 . S
H3296 C3280 0.931 . S
H3297 C3285 0.930 . S
H3298 C3286 0.956 . S
H3299 C3286 0.961 . S
H3300 C3286 0.961 . S
H3301 C3287 0.958 . S
H3302 C3287 0.961 . S
H3303 C3287 0.960 . S
C3304 C3305 1.391 . S
C3304 C3306 1.408 . S
C3304 H3320 0.931 . S
C3305 C3304 1.391 . S
C3305 C3309 1.376 . S
C3306 C3304 1.408 . S
C3306 C3307 1.372 1_565 S
C3306 C3310 1.513 1_565 S
C3307 C3306 1.372 1_545 S
C3307 C3308 1.410 1_545 S
C3307 C3315 1.503 . S
C3308 C3307 1.410 1_565 S
C3308 C3309 1.392 . S
C3308 C3311 1.511 1_565 S
C3309 C3305 1.376 . S
C3309 C3308 1.392 . S
C3309 H3321 0.929 . S
C3310 C3306 1.513 1_545 S
C3310 H3322 0.960 . S
C3310 H3323 0.962 . S
C3310 H3324 0.960 . S
C3311 C3308 1.511 1_545 S
C3311 H3325 0.961 1_545 S
C3311 H3326 0.961 . S
C3311 H3327 0.958 1_545 S
C3312 C3313 1.370 . S
C3312 C3314 1.363 . S
C3312 H3328 0.931 . S
C3313 C3312 1.370 . S
C3313 C3317 1.408 . S
C3314 C3312 1.363 . S
C3314 C3315 1.370 . S
C3314 C3318 1.524 . S
C3315 C3307 1.503 . S
C3315 C3314 1.370 . S
C3315 C3316 1.403 . S
C3316 C3315 1.403 . S
C3316 C3317 1.404 . S
C3316 C3319 1.539 . S
C3317 C3313 1.408 . S
C3317 C3316 1.404 . S
C3317 H3329 0.930 . S
C3318 C3314 1.524 . S
C3318 H3330 0.956 . S
C3318 H3331 0.961 . S
C3318 H3332 0.961 . S
C3319 C3316 1.539 . S
C3319 H3333 0.958 . S
C3319 H3334 0.961 . S
C3319 H3335 0.960 . S
H3320 C3304 0.931 . S
H3321 C3309 0.929 . S
H3322 C3310 0.960 . S
H3323 C3310 0.962 . S
H3324 C3310 0.960 . S
H3325 C3311 0.961 1_565 S
H3326 C3311 0.961 . S
H3327 C3311 0.958 1_565 S
H3328 C3312 0.931 . S
H3329 C3317 0.930 . S
H3330 C3318 0.956 . S
H3331 C3318 0.961 . S
H3332 C3318 0.961 . S
H3333 C3319 0.958 . S
H3334 C3319 0.961 . S
H3335 C3319 0.960 . S
C3336 C3337 1.391 . S
C3336 C3338 1.394 . S
C3336 H3352 0.931 . S
C3337 C3336 1.391 . S
C3337 C3341 1.376 . S
C3338 C3336 1.394 . S
C3338 C3339 1.369 . S
C3338 C3342 1.531 . S
C3339 C3338 1.369 . S
C3339 C3340 1.410 . S
C3339 C3347 1.503 . S
C3340 C3339 1.410 . S
C3340 C3341 1.392 . S
C3340 C3343 1.511 . S
C3341 C3337 1.376 . S
C3341 C3340 1.392 . S
C3341 H3353 0.929 . S
C3342 C3338 1.531 . S
C3342 H3354 0.960 . S
C3342 H3355 0.962 . S
C3342 H3356 0.960 . S
C3343 C3340 1.511 . S
C3343 H3357 0.961 . S
C3343 H3358 0.961 . S
C3343 H3359 0.961 . S
C3344 C3345 1.370 . S
C3344 C3346 1.363 . S
C3344 H3360 0.931 . S
C3345 C3344 1.370 . S
C3345 C3349 1.408 . S
C3346 C3344 1.363 . S
C3346 C3347 1.370 . S
C3346 C3350 1.524 . S
C3347 C3339 1.503 . S
C3347 C3346 1.370 . S
C3347 C3348 1.403 . S
C3348 C3347 1.403 . S
C3348 C3349 1.404 . S
C3348 C3351 1.539 . S
C3349 C3345 1.408 . S
C3349 C3348 1.404 . S
C3349 H3361 0.930 . S
C3350 C3346 1.524 . S
C3350 H3362 0.956 . S
C3350 H3363 0.961 . S
C3350 H3364 0.961 . S
C3351 C3348 1.539 . S
C3351 H3365 0.958 . S
C3351 H3366 0.961 . S
C3351 H3367 0.960 . S
H3352 C3336 0.931 . S
H3353 C3341 0.929 . S
H3354 C3342 0.960 . S
H3355 C3342 0.962 . S
H3356 C3342 0.960 . S
H3357 C3343 0.961 . S
H3358 C3343 0.961 . S
H3359 C3343 0.961 . S
H3360 C3344 0.931 . S
H3361 C3349 0.930 . S
H3362 C3350 0.956 . S
H3363 C3350 0.961 . S
H3364 C3350 0.961 . S
H3365 C3351 0.958 . S
H3366 C3351 0.961 . S
H3367 C3351 0.960 . S
C3368 C3369 1.391 . S
C3368 C3370 1.394 . S
C3368 H3384 0.931 . S
C3369 C3368 1.391 . S
C3369 C3373 1.376 . S
C3370 C3368 1.394 . S
C3370 C3371 1.369 . S
C3370 C3374 1.531 . S
C3371 C3370 1.369 . S
C3371 C3372 1.410 . S
C3371 C3379 1.503 . S
C3372 C3371 1.410 . S
C3372 C3373 1.392 . S
C3372 C3375 1.511 . S
C3373 C3369 1.376 . S
C3373 C3372 1.392 . S
C3373 H3385 0.929 . S
C3374 C3370 1.531 . S
C3374 H3386 0.960 . S
C3374 H3387 0.962 . S
C3374 H3388 0.960 . S
C3375 C3372 1.511 . S
C3375 H3389 0.961 . S
C3375 H3390 0.961 . S
C3375 H3391 0.961 . S
C3376 C3377 1.370 . S
C3376 C3378 1.363 . S
C3376 H3392 0.931 . S
C3377 C3376 1.370 . S
C3377 C3381 1.408 . S
C3378 C3376 1.363 . S
C3378 C3379 1.370 . S
C3378 C3382 1.524 . S
C3379 C3371 1.503 . S
C3379 C3378 1.370 . S
C3379 C3380 1.403 . S
C3380 C3379 1.403 . S
C3380 C3381 1.404 . S
C3380 C3383 1.539 . S
C3381 C3377 1.408 . S
C3381 C3380 1.404 . S
C3381 H3393 0.930 . S
C3382 C3378 1.524 . S
C3382 H3394 0.956 . S
C3382 H3395 0.961 . S
C3382 H3396 0.961 . S
C3383 C3380 1.539 . S
C3383 H3397 0.958 . S
C3383 H3398 0.961 . S
C3383 H3399 0.960 . S
H3384 C3368 0.931 . S
H3385 C3373 0.929 . S
H3386 C3374 0.960 . S
H3387 C3374 0.962 . S
H3388 C3374 0.960 . S
H3389 C3375 0.961 . S
H3390 C3375 0.961 . S
H3391 C3375 0.961 . S
H3392 C3376 0.931 . S
H3393 C3381 0.930 . S
H3394 C3382 0.956 . S
H3395 C3382 0.961 . S
H3396 C3382 0.961 . S
H3397 C3383 0.958 . S
H3398 C3383 0.961 . S
H3399 C3383 0.960 . S
C3400 C3401 1.391 . S
C3400 C3402 1.394 . S
C3400 H3416 0.931 . S
C3401 C3400 1.391 . S
C3401 C3405 1.376 . S
C3402 C3400 1.394 . S
C3402 C3403 1.369 . S
C3402 C3406 1.531 . S
C3403 C3402 1.369 . S
C3403 C3404 1.410 . S
C3403 C3411 1.503 . S
C3404 C3403 1.410 . S
C3404 C3405 1.392 . S
C3404 C3407 1.511 . S
C3405 C3401 1.376 . S
C3405 C3404 1.392 . S
C3405 H3417 0.929 . S
C3406 C3402 1.531 . S
C3406 H3418 0.960 . S
C3406 H3419 0.962 . S
C3406 H3420 0.960 . S
C3407 C3404 1.511 . S
C3407 H3421 0.961 . S
C3407 H3422 0.961 . S
C3407 H3423 0.961 . S
C3408 C3409 1.370 . S
C3408 C3410 1.363 . S
C3408 H3424 0.931 . S
C3409 C3408 1.370 . S
C3409 C3413 1.408 . S
C3410 C3408 1.363 . S
C3410 C3411 1.370 . S
C3410 C3414 1.524 . S
C3411 C3403 1.503 . S
C3411 C3410 1.370 . S
C3411 C3412 1.403 . S
C3412 C3411 1.403 . S
C3412 C3413 1.404 . S
C3412 C3415 1.539 . S
C3413 C3409 1.408 . S
C3413 C3412 1.404 . S
C3413 H3425 0.930 . S
C3414 C3410 1.524 . S
C3414 H3426 0.956 . S
C3414 H3427 0.961 . S
C3414 H3428 0.961 . S
C3415 C3412 1.539 . S
C3415 H3429 0.958 . S
C3415 H3430 0.961 . S
C3415 H3431 0.960 . S
H3416 C3400 0.931 . S
H3417 C3405 0.929 . S
H3418 C3406 0.960 . S
H3419 C3406 0.962 . S
H3420 C3406 0.960 . S
H3421 C3407 0.961 . S
H3422 C3407 0.961 . S
H3423 C3407 0.961 . S
H3424 C3408 0.931 . S
H3425 C3413 0.930 . S
H3426 C3414 0.956 . S
H3427 C3414 0.961 . S
H3428 C3414 0.961 . S
H3429 C3415 0.958 . S
H3430 C3415 0.961 . S
H3431 C3415 0.960 . S
C3432 C3433 1.391 . S
C3432 C3434 1.394 . S
C3432 H3448 0.931 . S
C3433 C3432 1.391 . S
C3433 C3437 1.376 . S
C3434 C3432 1.394 . S
C3434 C3435 1.369 . S
C3434 C3438 1.531 . S
C3435 C3434 1.369 . S
C3435 C3436 1.410 . S
C3435 C3443 1.503 . S
C3436 C3435 1.410 . S
C3436 C3437 1.392 . S
C3436 C3439 1.511 . S
C3437 C3433 1.376 . S
C3437 C3436 1.392 . S
C3437 H3449 0.929 . S
C3438 C3434 1.531 . S
C3438 H3450 0.960 . S
C3438 H3451 0.962 . S
C3438 H3452 0.960 . S
C3439 C3436 1.511 . S
C3439 H3453 0.961 . S
C3439 H3454 0.961 . S
C3439 H3455 0.961 . S
C3440 C3441 1.370 . S
C3440 C3442 1.363 . S
C3440 H3456 0.931 . S
C3441 C3440 1.370 . S
C3441 C3445 1.408 . S
C3442 C3440 1.363 . S
C3442 C3443 1.370 . S
C3442 C3446 1.524 . S
C3443 C3435 1.503 . S
C3443 C3442 1.370 . S
C3443 C3444 1.403 . S
C3444 C3443 1.403 . S
C3444 C3445 1.404 . S
C3444 C3447 1.539 . S
C3445 C3441 1.408 . S
C3445 C3444 1.404 . S
C3445 H3457 0.930 . S
C3446 C3442 1.524 . S
C3446 H3458 0.956 . S
C3446 H3459 0.961 . S
C3446 H3460 0.961 . S
C3447 C3444 1.539 . S
C3447 H3461 0.958 . S
C3447 H3462 0.961 . S
C3447 H3463 0.960 . S
H3448 C3432 0.931 . S
H3449 C3437 0.929 . S
H3450 C3438 0.960 . S
H3451 C3438 0.962 . S
H3452 C3438 0.960 . S
H3453 C3439 0.961 . S
H3454 C3439 0.961 . S
H3455 C3439 0.961 . S
H3456 C3440 0.931 . S
H3457 C3445 0.930 . S
H3458 C3446 0.956 . S
H3459 C3446 0.961 . S
H3460 C3446 0.961 . S
H3461 C3447 0.958 . S
H3462 C3447 0.961 . S
H3463 C3447 0.960 . S
C3464 C3465 1.391 . S
C3464 C3466 1.394 . S
C3464 H3480 0.931 . S
C3465 C3464 1.391 . S
C3465 C3469 1.376 . S
C3466 C3464 1.394 . S
C3466 C3467 1.369 . S
C3466 C3470 1.531 . S
C3467 C3466 1.369 . S
C3467 C3468 1.410 . S
C3467 C3475 1.503 . S
C3468 C3467 1.410 . S
C3468 C3469 1.392 . S
C3468 C3471 1.511 . S
C3469 C3465 1.376 . S
C3469 C3468 1.392 . S
C3469 H3481 0.929 . S
C3470 C3466 1.531 . S
C3470 H3482 0.960 . S
C3470 H3483 0.962 . S
C3470 H3484 0.960 . S
C3471 C3468 1.511 . S
C3471 H3485 0.961 . S
C3471 H3486 0.961 . S
C3471 H3487 0.961 . S
C3472 C3473 1.370 . S
C3472 C3474 1.363 . S
C3472 H3488 0.931 . S
C3473 C3472 1.370 . S
C3473 C3477 1.408 . S
C3474 C3472 1.363 . S
C3474 C3475 1.370 . S
C3474 C3478 1.524 . S
C3475 C3467 1.503 . S
C3475 C3474 1.370 . S
C3475 C3476 1.403 . S
C3476 C3475 1.403 . S
C3476 C3477 1.404 . S
C3476 C3479 1.539 . S
C3477 C3473 1.408 . S
C3477 C3476 1.404 . S
C3477 H3489 0.930 . S
C3478 C3474 1.524 . S
C3478 H3490 0.956 . S
C3478 H3491 0.961 . S
C3478 H3492 0.961 . S
C3479 C3476 1.539 . S
C3479 H3493 0.958 . S
C3479 H3494 0.961 . S
C3479 H3495 0.960 . S
H3480 C3464 0.931 . S
H3481 C3469 0.929 . S
H3482 C3470 0.960 . S
H3483 C3470 0.962 . S
H3484 C3470 0.960 . S
H3485 C3471 0.961 . S
H3486 C3471 0.961 . S
H3487 C3471 0.961 . S
H3488 C3472 0.931 . S
H3489 C3477 0.930 . S
H3490 C3478 0.956 . S
H3491 C3478 0.961 . S
H3492 C3478 0.961 . S
H3493 C3479 0.958 . S
H3494 C3479 0.961 . S
H3495 C3479 0.960 . S
C3496 C3497 1.391 . S
C3496 C3498 1.394 . S
C3496 H3512 0.931 . S
C3497 C3496 1.391 . S
C3497 C3501 1.376 . S
C3498 C3496 1.394 . S
C3498 C3499 1.369 . S
C3498 C3502 1.531 . S
C3499 C3498 1.369 . S
C3499 C3500 1.410 . S
C3499 C3507 1.503 . S
C3500 C3499 1.410 . S
C3500 C3501 1.392 . S
C3500 C3503 1.511 . S
C3501 C3497 1.376 . S
C3501 C3500 1.392 . S
C3501 H3513 0.929 . S
C3502 C3498 1.531 . S
C3502 H3514 0.960 . S
C3502 H3515 0.962 . S
C3502 H3516 0.960 . S
C3503 C3500 1.511 . S
C3503 H3517 0.961 . S
C3503 H3518 0.961 . S
C3503 H3519 0.961 . S
C3504 C3505 1.370 . S
C3504 C3506 1.363 . S
C3504 H3520 0.931 . S
C3505 C3504 1.370 . S
C3505 C3509 1.408 . S
C3506 C3504 1.363 . S
C3506 C3507 1.370 . S
C3506 C3510 1.524 . S
C3507 C3499 1.503 . S
C3507 C3506 1.370 . S
C3507 C3508 1.403 . S
C3508 C3507 1.403 . S
C3508 C3509 1.404 . S
C3508 C3511 1.539 . S
C3509 C3505 1.408 . S
C3509 C3508 1.404 . S
C3509 H3521 0.930 . S
C3510 C3506 1.524 . S
C3510 H3522 0.956 . S
C3510 H3523 0.961 . S
C3510 H3524 0.961 . S
C3511 C3508 1.539 . S
C3511 H3525 0.958 . S
C3511 H3526 0.961 . S
C3511 H3527 0.960 . S
H3512 C3496 0.931 . S
H3513 C3501 0.929 . S
H3514 C3502 0.960 . S
H3515 C3502 0.962 . S
H3516 C3502 0.960 . S
H3517 C3503 0.961 . S
H3518 C3503 0.961 . S
H3519 C3503 0.961 . S
H3520 C3504 0.931 . S
H3521 C3509 0.930 . S
H3522 C3510 0.956 . S
H3523 C3510 0.961 . S
H3524 C3510 0.961 . S
H3525 C3511 0.958 . S
H3526 C3511 0.961 . S
H3527 C3511 0.960 . S
C3528 C3529 1.391 . S
C3528 C3530 1.394 . S
C3528 H3544 0.931 . S
C3529 C3528 1.391 . S
C3529 C3533 1.376 . S
C3530 C3528 1.394 . S
C3530 C3531 1.369 . S
C3530 C3534 1.531 . S
C3531 C3530 1.369 . S
C3531 C3532 1.410 . S
C3531 C3539 1.503 . S
C3532 C3531 1.410 . S
C3532 C3533 1.392 . S
C3532 C3535 1.511 . S
C3533 C3529 1.376 . S
C3533 C3532 1.392 . S
C3533 H3545 0.929 . S
C3534 C3530 1.531 . S
C3534 H3546 0.960 . S
C3534 H3547 0.962 . S
C3534 H3548 0.960 . S
C3535 C3532 1.511 . S
C3535 H3549 0.961 . S
C3535 H3550 0.961 . S
C3535 H3551 0.961 . S
C3536 C3537 1.370 . S
C3536 C3538 1.363 . S
C3536 H3552 0.931 . S
C3537 C3536 1.370 . S
C3537 C3541 1.408 . S
C3538 C3536 1.363 . S
C3538 C3539 1.370 . S
C3538 C3542 1.524 . S
C3539 C3531 1.503 . S
C3539 C3538 1.370 . S
C3539 C3540 1.403 . S
C3540 C3539 1.403 . S
C3540 C3541 1.404 . S
C3540 C3543 1.539 . S
C3541 C3537 1.408 . S
C3541 C3540 1.404 . S
C3541 H3553 0.930 . S
C3542 C3538 1.524 . S
C3542 H3554 0.956 . S
C3542 H3555 0.961 . S
C3542 H3556 0.961 . S
C3543 C3540 1.539 . S
C3543 H3557 0.958 . S
C3543 H3558 0.961 . S
C3543 H3559 0.960 . S
H3544 C3528 0.931 . S
H3545 C3533 0.929 . S
H3546 C3534 0.960 . S
H3547 C3534 0.962 . S
H3548 C3534 0.960 . S
H3549 C3535 0.961 . S
H3550 C3535 0.961 . S
H3551 C3535 0.961 . S
H3552 C3536 0.931 . S
H3553 C3541 0.930 . S
H3554 C3542 0.956 . S
H3555 C3542 0.961 . S
H3556 C3542 0.961 . S
H3557 C3543 0.958 . S
H3558 C3543 0.961 . S
H3559 C3543 0.960 . S
C3560 C3561 1.391 . S
C3560 C3562 1.394 . S
C3560 H3576 0.931 . S
C3561 C3560 1.391 . S
C3561 C3565 1.376 . S
C3562 C3560 1.394 . S
C3562 C3563 1.369 . S
C3562 C3566 1.531 . S
C3563 C3562 1.369 . S
C3563 C3564 1.410 . S
C3563 C3571 1.503 . S
C3564 C3563 1.410 . S
C3564 C3565 1.392 . S
C3564 C3567 1.511 . S
C3565 C3561 1.376 . S
C3565 C3564 1.392 . S
C3565 H3577 0.929 . S
C3566 C3562 1.531 . S
C3566 H3578 0.960 . S
C3566 H3579 0.962 . S
C3566 H3580 0.960 . S
C3567 C3564 1.511 . S
C3567 H3581 0.961 . S
C3567 H3582 0.961 . S
C3567 H3583 0.961 . S
C3568 C3569 1.370 . S
C3568 C3570 1.363 . S
C3568 H3584 0.931 . S
C3569 C3568 1.370 . S
C3569 C3573 1.408 . S
C3570 C3568 1.363 . S
C3570 C3571 1.370 . S
C3570 C3574 1.524 . S
C3571 C3563 1.503 . S
C3571 C3570 1.370 . S
C3571 C3572 1.403 . S
C3572 C3571 1.403 . S
C3572 C3573 1.404 . S
C3572 C3575 1.539 . S
C3573 C3569 1.408 . S
C3573 C3572 1.404 . S
C3573 H3585 0.930 . S
C3574 C3570 1.524 . S
C3574 H3586 0.956 . S
C3574 H3587 0.961 . S
C3574 H3588 0.961 . S
C3575 C3572 1.539 . S
C3575 H3589 0.958 . S
C3575 H3590 0.961 . S
C3575 H3591 0.960 . S
H3576 C3560 0.931 . S
H3577 C3565 0.929 . S
H3578 C3566 0.960 . S
H3579 C3566 0.962 . S
H3580 C3566 0.960 . S
H3581 C3567 0.961 . S
H3582 C3567 0.961 . S
H3583 C3567 0.961 . S
H3584 C3568 0.931 . S
H3585 C3573 0.930 . S
H3586 C3574 0.956 . S
H3587 C3574 0.961 . S
H3588 C3574 0.961 . S
H3589 C3575 0.958 . S
H3590 C3575 0.961 . S
H3591 C3575 0.960 . S
C3592 C3593 1.391 . S
C3592 C3594 1.394 . S
C3592 H3608 0.931 . S
C3593 C3592 1.391 . S
C3593 C3597 1.376 . S
C3594 C3592 1.394 . S
C3594 C3595 1.369 . S
C3594 C3598 1.531 . S
C3595 C3594 1.369 . S
C3595 C3596 1.410 . S
C3595 C3603 1.503 . S
C3596 C3595 1.410 . S
C3596 C3597 1.392 . S
C3596 C3599 1.511 . S
C3597 C3593 1.376 . S
C3597 C3596 1.392 . S
C3597 H3609 0.929 . S
C3598 C3594 1.531 . S
C3598 H3610 0.960 . S
C3598 H3611 0.962 . S
C3598 H3612 0.960 . S
C3599 C3596 1.511 . S
C3599 H3613 0.961 . S
C3599 H3614 0.961 . S
C3599 H3615 0.961 . S
C3600 C3601 1.370 . S
C3600 C3602 1.363 . S
C3600 H3616 0.931 . S
C3601 C3600 1.370 . S
C3601 C3605 1.408 . S
C3602 C3600 1.363 . S
C3602 C3603 1.370 . S
C3602 C3606 1.524 . S
C3603 C3595 1.503 . S
C3603 C3602 1.370 . S
C3603 C3604 1.403 . S
C3604 C3603 1.403 . S
C3604 C3605 1.404 . S
C3604 C3607 1.539 . S
C3605 C3601 1.408 . S
C3605 C3604 1.404 . S
C3605 H3617 0.930 . S
C3606 C3602 1.524 . S
C3606 H3618 0.956 . S
C3606 H3619 0.961 . S
C3606 H3620 0.961 . S
C3607 C3604 1.539 . S
C3607 H3621 0.958 . S
C3607 H3622 0.961 . S
C3607 H3623 0.960 . S
H3608 C3592 0.931 . S
H3609 C3597 0.929 . S
H3610 C3598 0.960 . S
H3611 C3598 0.962 . S
H3612 C3598 0.960 . S
H3613 C3599 0.961 . S
H3614 C3599 0.961 . S
H3615 C3599 0.961 . S
H3616 C3600 0.931 . S
H3617 C3605 0.930 . S
H3618 C3606 0.956 . S
H3619 C3606 0.961 . S
H3620 C3606 0.961 . S
H3621 C3607 0.958 . S
H3622 C3607 0.961 . S
H3623 C3607 0.960 . S
C3624 C3625 1.391 . S
C3624 C3626 1.394 . S
C3624 H3640 0.931 . S
C3625 C3624 1.391 . S
C3625 C3629 1.376 . S
C3626 C3624 1.394 . S
C3626 C3627 1.369 . S
C3626 C3630 1.531 . S
C3627 C3626 1.369 . S
C3627 C3628 1.410 . S
C3627 C3635 1.503 . S
C3628 C3627 1.410 . S
C3628 C3629 1.392 . S
C3628 C3631 1.511 . S
C3629 C3625 1.376 . S
C3629 C3628 1.392 . S
C3629 H3641 0.929 . S
C3630 C3626 1.531 . S
C3630 H3642 0.960 . S
C3630 H3643 0.962 . S
C3630 H3644 0.960 . S
C3631 C3628 1.511 . S
C3631 H3645 0.961 . S
C3631 H3646 0.961 . S
C3631 H3647 0.961 . S
C3632 C3633 1.370 . S
C3632 C3634 1.363 . S
C3632 H3648 0.931 . S
C3633 C3632 1.370 . S
C3633 C3637 1.408 . S
C3634 C3632 1.363 . S
C3634 C3635 1.370 . S
C3634 C3638 1.524 . S
C3635 C3627 1.503 . S
C3635 C3634 1.370 . S
C3635 C3636 1.403 . S
C3636 C3635 1.403 . S
C3636 C3637 1.404 . S
C3636 C3639 1.539 . S
C3637 C3633 1.408 . S
C3637 C3636 1.404 . S
C3637 H3649 0.930 . S
C3638 C3634 1.524 . S
C3638 H3650 0.956 . S
C3638 H3651 0.961 . S
C3638 H3652 0.961 . S
C3639 C3636 1.539 . S
C3639 H3653 0.958 . S
C3639 H3654 0.961 . S
C3639 H3655 0.960 . S
H3640 C3624 0.931 . S
H3641 C3629 0.929 . S
H3642 C3630 0.960 . S
H3643 C3630 0.962 . S
H3644 C3630 0.960 . S
H3645 C3631 0.961 . S
H3646 C3631 0.961 . S
H3647 C3631 0.961 . S
H3648 C3632 0.931 . S
H3649 C3637 0.930 . S
H3650 C3638 0.956 . S
H3651 C3638 0.961 . S
H3652 C3638 0.961 . S
H3653 C3639 0.958 . S
H3654 C3639 0.961 . S
H3655 C3639 0.960 . S
C3656 C3657 1.391 . S
C3656 C3658 1.394 . S
C3656 H3672 0.931 . S
C3657 C3656 1.391 . S
C3657 C3661 1.376 . S
C3658 C3656 1.394 . S
C3658 C3659 1.369 . S
C3658 C3662 1.531 . S
C3659 C3658 1.369 . S
C3659 C3660 1.410 . S
C3659 C3667 1.503 . S
C3660 C3659 1.410 . S
C3660 C3661 1.392 . S
C3660 C3663 1.511 . S
C3661 C3657 1.376 . S
C3661 C3660 1.392 . S
C3661 H3673 0.929 . S
C3662 C3658 1.531 . S
C3662 H3674 0.960 . S
C3662 H3675 0.962 . S
C3662 H3676 0.960 . S
C3663 C3660 1.511 . S
C3663 H3677 0.961 . S
C3663 H3678 0.961 . S
C3663 H3679 0.961 . S
C3664 C3665 1.370 . S
C3664 C3666 1.363 . S
C3664 H3680 0.931 . S
C3665 C3664 1.370 . S
C3665 C3669 1.408 . S
C3666 C3664 1.363 . S
C3666 C3667 1.370 . S
C3666 C3670 1.524 . S
C3667 C3659 1.503 . S
C3667 C3666 1.370 . S
C3667 C3668 1.403 . S
C3668 C3667 1.403 . S
C3668 C3669 1.404 . S
C3668 C3671 1.539 . S
C3669 C3665 1.408 . S
C3669 C3668 1.404 . S
C3669 H3681 0.930 . S
C3670 C3666 1.524 . S
C3670 H3682 0.956 . S
C3670 H3683 0.961 . S
C3670 H3684 0.961 . S
C3671 C3668 1.539 . S
C3671 H3685 0.958 . S
C3671 H3686 0.961 . S
C3671 H3687 0.960 . S
H3672 C3656 0.931 . S
H3673 C3661 0.929 . S
H3674 C3662 0.960 . S
H3675 C3662 0.962 . S
H3676 C3662 0.960 . S
H3677 C3663 0.961 . S
H3678 C3663 0.961 . S
H3679 C3663 0.961 . S
H3680 C3664 0.931 . S
H3681 C3669 0.930 . S
H3682 C3670 0.956 . S
H3683 C3670 0.961 . S
H3684 C3670 0.961 . S
H3685 C3671 0.958 . S
H3686 C3671 0.961 . S
H3687 C3671 0.960 . S
C3688 C3689 1.391 . S
C3688 C3690 1.394 . S
C3688 H3704 0.931 . S
C3689 C3688 1.391 . S
C3689 C3693 1.376 . S
C3690 C3688 1.394 . S
C3690 C3691 1.369 . S
C3690 C3694 1.531 . S
C3691 C3690 1.369 . S
C3691 C3692 1.410 . S
C3691 C3699 1.503 . S
C3692 C3691 1.410 . S
C3692 C3693 1.392 . S
C3692 C3695 1.511 . S
C3693 C3689 1.376 . S
C3693 C3692 1.392 . S
C3693 H3705 0.929 . S
C3694 C3690 1.531 . S
C3694 H3706 0.960 . S
C3694 H3707 0.962 . S
C3694 H3708 0.960 . S
C3695 C3692 1.511 . S
C3695 H3709 0.961 . S
C3695 H3710 0.961 . S
C3695 H3711 0.961 . S
C3696 C3697 1.370 . S
C3696 C3698 1.363 . S
C3696 H3712 0.931 . S
C3697 C3696 1.370 . S
C3697 C3701 1.408 . S
C3698 C3696 1.363 . S
C3698 C3699 1.370 . S
C3698 C3702 1.524 . S
C3699 C3691 1.503 . S
C3699 C3698 1.370 . S
C3699 C3700 1.403 . S
C3700 C3699 1.403 . S
C3700 C3701 1.404 . S
C3700 C3703 1.539 . S
C3701 C3697 1.408 . S
C3701 C3700 1.404 . S
C3701 H3713 0.930 . S
C3702 C3698 1.524 . S
C3702 H3714 0.956 . S
C3702 H3715 0.961 . S
C3702 H3716 0.961 . S
C3703 C3700 1.539 . S
C3703 H3717 0.958 . S
C3703 H3718 0.961 . S
C3703 H3719 0.960 . S
H3704 C3688 0.931 . S
H3705 C3693 0.929 . S
H3706 C3694 0.960 . S
H3707 C3694 0.962 . S
H3708 C3694 0.960 . S
H3709 C3695 0.961 . S
H3710 C3695 0.961 . S
H3711 C3695 0.961 . S
H3712 C3696 0.931 . S
H3713 C3701 0.930 . S
H3714 C3702 0.956 . S
H3715 C3702 0.961 . S
H3716 C3702 0.961 . S
H3717 C3703 0.958 . S
H3718 C3703 0.961 . S
H3719 C3703 0.960 . S
C3720 C3721 1.391 . S
C3720 C3722 1.394 . S
C3720 H3736 0.931 . S
C3721 C3720 1.391 . S
C3721 C3725 1.376 . S
C3722 C3720 1.394 . S
C3722 C3723 1.369 . S
C3722 C3726 1.531 . S
C3723 C3722 1.369 . S
C3723 C3724 1.410 . S
C3723 C3731 1.503 . S
C3724 C3723 1.410 . S
C3724 C3725 1.392 . S
C3724 C3727 1.511 . S
C3725 C3721 1.376 . S
C3725 C3724 1.392 . S
C3725 H3737 0.929 . S
C3726 C3722 1.531 . S
C3726 H3738 0.960 . S
C3726 H3739 0.962 . S
C3726 H3740 0.960 . S
C3727 C3724 1.511 . S
C3727 H3741 0.961 . S
C3727 H3742 0.961 . S
C3727 H3743 0.961 . S
C3728 C3729 1.370 . S
C3728 C3730 1.363 . S
C3728 H3744 0.931 . S
C3729 C3728 1.370 . S
C3729 C3733 1.408 . S
C3730 C3728 1.363 . S
C3730 C3731 1.370 . S
C3730 C3734 1.524 . S
C3731 C3723 1.503 . S
C3731 C3730 1.370 . S
C3731 C3732 1.403 . S
C3732 C3731 1.403 . S
C3732 C3733 1.404 . S
C3732 C3735 1.539 . S
C3733 C3729 1.408 . S
C3733 C3732 1.404 . S
C3733 H3745 0.930 . S
C3734 C3730 1.524 . S
C3734 H3746 0.956 . S
C3734 H3747 0.961 . S
C3734 H3748 0.961 . S
C3735 C3732 1.539 . S
C3735 H3749 0.958 . S
C3735 H3750 0.961 . S
C3735 H3751 0.960 . S
H3736 C3720 0.931 . S
H3737 C3725 0.929 . S
H3738 C3726 0.960 . S
H3739 C3726 0.962 . S
H3740 C3726 0.960 . S
H3741 C3727 0.961 . S
H3742 C3727 0.961 . S
H3743 C3727 0.961 . S
H3744 C3728 0.931 . S
H3745 C3733 0.930 . S
H3746 C3734 0.956 . S
H3747 C3734 0.961 . S
H3748 C3734 0.961 . S
H3749 C3735 0.958 . S
H3750 C3735 0.961 . S
H3751 C3735 0.960 . S
C3752 C3753 1.391 . S
C3752 C3754 1.394 . S
C3752 H3768 0.931 . S
C3753 C3752 1.391 . S
C3753 C3757 1.376 . S
C3754 C3752 1.394 . S
C3754 C3755 1.369 . S
C3754 C3758 1.531 . S
C3755 C3754 1.369 . S
C3755 C3756 1.410 . S
C3755 C3763 1.503 . S
C3756 C3755 1.410 . S
C3756 C3757 1.392 . S
C3756 C3759 1.511 . S
C3757 C3753 1.376 . S
C3757 C3756 1.392 . S
C3757 H3769 0.929 . S
C3758 C3754 1.531 . S
C3758 H3770 0.960 . S
C3758 H3771 0.962 . S
C3758 H3772 0.960 . S
C3759 C3756 1.511 . S
C3759 H3773 0.961 . S
C3759 H3774 0.961 . S
C3759 H3775 0.961 . S
C3760 C3761 1.370 . S
C3760 C3762 1.363 . S
C3760 H3776 0.931 . S
C3761 C3760 1.370 . S
C3761 C3765 1.408 . S
C3762 C3760 1.363 . S
C3762 C3763 1.370 . S
C3762 C3766 1.524 . S
C3763 C3755 1.503 . S
C3763 C3762 1.370 . S
C3763 C3764 1.403 . S
C3764 C3763 1.403 . S
C3764 C3765 1.404 . S
C3764 C3767 1.539 . S
C3765 C3761 1.408 . S
C3765 C3764 1.404 . S
C3765 H3777 0.930 . S
C3766 C3762 1.524 . S
C3766 H3778 0.956 . S
C3766 H3779 0.961 . S
C3766 H3780 0.961 . S
C3767 C3764 1.539 . S
C3767 H3781 0.958 . S
C3767 H3782 0.961 . S
C3767 H3783 0.960 . S
H3768 C3752 0.931 . S
H3769 C3757 0.929 . S
H3770 C3758 0.960 . S
H3771 C3758 0.962 . S
H3772 C3758 0.960 . S
H3773 C3759 0.961 . S
H3774 C3759 0.961 . S
H3775 C3759 0.961 . S
H3776 C3760 0.931 . S
H3777 C3765 0.930 . S
H3778 C3766 0.956 . S
H3779 C3766 0.961 . S
H3780 C3766 0.961 . S
H3781 C3767 0.958 . S
H3782 C3767 0.961 . S
H3783 C3767 0.960 . S
C3784 C3785 1.391 . S
C3784 C3786 1.394 . S
C3784 H3800 0.931 . S
C3785 C3784 1.391 . S
C3785 C3789 1.376 . S
C3786 C3784 1.394 . S
C3786 C3787 1.369 . S
C3786 C3790 1.531 . S
C3787 C3786 1.369 . S
C3787 C3788 1.410 . S
C3787 C3795 1.503 . S
C3788 C3787 1.410 . S
C3788 C3789 1.392 . S
C3788 C3791 1.511 . S
C3789 C3785 1.376 . S
C3789 C3788 1.392 . S
C3789 H3801 0.929 . S
C3790 C3786 1.531 . S
C3790 H3802 0.960 . S
C3790 H3803 0.962 . S
C3790 H3804 0.960 . S
C3791 C3788 1.511 . S
C3791 H3805 0.961 . S
C3791 H3806 0.961 . S
C3791 H3807 0.961 . S
C3792 C3793 1.370 . S
C3792 C3794 1.363 . S
C3792 H3808 0.931 . S
C3793 C3792 1.370 . S
C3793 C3797 1.408 . S
C3794 C3792 1.363 . S
C3794 C3795 1.370 . S
C3794 C3798 1.524 . S
C3795 C3787 1.503 . S
C3795 C3794 1.370 . S
C3795 C3796 1.403 . S
C3796 C3795 1.403 . S
C3796 C3797 1.404 . S
C3796 C3799 1.539 . S
C3797 C3793 1.408 . S
C3797 C3796 1.404 . S
C3797 H3809 0.930 . S
C3798 C3794 1.524 . S
C3798 H3810 0.956 . S
C3798 H3811 0.961 . S
C3798 H3812 0.961 . S
C3799 C3796 1.539 . S
C3799 H3813 0.958 . S
C3799 H3814 0.961 . S
C3799 H3815 0.960 . S
H3800 C3784 0.931 . S
H3801 C3789 0.929 . S
H3802 C3790 0.960 . S
H3803 C3790 0.962 . S
H3804 C3790 0.960 . S
H3805 C3791 0.961 . S
H3806 C3791 0.961 . S
H3807 C3791 0.961 . S
H3808 C3792 0.931 . S
H3809 C3797 0.930 . S
H3810 C3798 0.956 . S
H3811 C3798 0.961 . S
H3812 C3798 0.961 . S
H3813 C3799 0.958 . S
H3814 C3799 0.961 . S
H3815 C3799 0.960 . S
C3816 C3817 1.391 . S
C3816 C3818 1.394 . S
C3816 H3832 0.931 . S
C3817 C3816 1.391 . S
C3817 C3821 1.376 . S
C3818 C3816 1.394 . S
C3818 C3819 1.369 . S
C3818 C3822 1.531 . S
C3819 C3818 1.369 . S
C3819 C3820 1.410 . S
C3819 C3827 1.503 . S
C3820 C3819 1.410 . S
C3820 C3821 1.392 . S
C3820 C3823 1.511 . S
C3821 C3817 1.376 . S
C3821 C3820 1.392 . S
C3821 H3833 0.929 . S
C3822 C3818 1.531 . S
C3822 H3834 0.960 . S
C3822 H3835 0.962 . S
C3822 H3836 0.960 . S
C3823 C3820 1.511 . S
C3823 H3837 0.961 . S
C3823 H3838 0.961 . S
C3823 H3839 0.961 . S
C3824 C3825 1.370 . S
C3824 C3826 1.363 . S
C3824 H3840 0.931 . S
C3825 C3824 1.370 . S
C3825 C3829 1.408 . S
C3826 C3824 1.363 . S
C3826 C3827 1.370 . S
C3826 C3830 1.524 . S
C3827 C3819 1.503 . S
C3827 C3826 1.370 . S
C3827 C3828 1.403 . S
C3828 C3827 1.403 . S
C3828 C3829 1.404 . S
C3828 C3831 1.539 . S
C3829 C3825 1.408 . S
C3829 C3828 1.404 . S
C3829 H3841 0.930 . S
C3830 C3826 1.524 . S
C3830 H3842 0.956 . S
C3830 H3843 0.961 . S
C3830 H3844 0.961 . S
C3831 C3828 1.539 . S
C3831 H3845 0.958 . S
C3831 H3846 0.961 . S
C3831 H3847 0.960 . S
H3832 C3816 0.931 . S
H3833 C3821 0.929 . S
H3834 C3822 0.960 . S
H3835 C3822 0.962 . S
H3836 C3822 0.960 . S
H3837 C3823 0.961 . S
H3838 C3823 0.961 . S
H3839 C3823 0.961 . S
H3840 C3824 0.931 . S
H3841 C3829 0.930 . S
H3842 C3830 0.956 . S
H3843 C3830 0.961 . S
H3844 C3830 0.961 . S
H3845 C3831 0.958 . S
H3846 C3831 0.961 . S
H3847 C3831 0.960 . S
C3848 C3849 1.391 . S
C3848 C3850 1.394 . S
C3848 H3864 0.931 . S
C3849 C3848 1.391 . S
C3849 C3853 1.376 . S
C3850 C3848 1.394 . S
C3850 C3851 1.369 . S
C3850 C3854 1.531 . S
C3851 C3850 1.369 . S
C3851 C3852 1.410 . S
C3851 C3859 1.503 . S
C3852 C3851 1.410 . S
C3852 C3853 1.392 . S
C3852 C3855 1.511 . S
C3853 C3849 1.376 . S
C3853 C3852 1.392 . S
C3853 H3865 0.929 . S
C3854 C3850 1.531 . S
C3854 H3866 0.960 . S
C3854 H3867 0.962 . S
C3854 H3868 0.960 . S
C3855 C3852 1.511 . S
C3855 H3869 0.961 . S
C3855 H3870 0.961 . S
C3855 H3871 0.961 . S
C3856 C3857 1.370 . S
C3856 C3858 1.363 . S
C3856 H3872 0.931 . S
C3857 C3856 1.370 . S
C3857 C3861 1.408 . S
C3858 C3856 1.363 . S
C3858 C3859 1.370 . S
C3858 C3862 1.524 . S
C3859 C3851 1.503 . S
C3859 C3858 1.370 . S
C3859 C3860 1.403 . S
C3860 C3859 1.403 . S
C3860 C3861 1.404 . S
C3860 C3863 1.539 . S
C3861 C3857 1.408 . S
C3861 C3860 1.404 . S
C3861 H3873 0.930 . S
C3862 C3858 1.524 . S
C3862 H3874 0.956 . S
C3862 H3875 0.961 . S
C3862 H3876 0.961 . S
C3863 C3860 1.539 . S
C3863 H3877 0.958 . S
C3863 H3878 0.961 . S
C3863 H3879 0.960 . S
H3864 C3848 0.931 . S
H3865 C3853 0.929 . S
H3866 C3854 0.960 . S
H3867 C3854 0.962 . S
H3868 C3854 0.960 . S
H3869 C3855 0.961 . S
H3870 C3855 0.961 . S
H3871 C3855 0.961 . S
H3872 C3856 0.931 . S
H3873 C3861 0.930 . S
H3874 C3862 0.956 . S
H3875 C3862 0.961 . S
H3876 C3862 0.961 . S
H3877 C3863 0.958 . S
H3878 C3863 0.961 . S
H3879 C3863 0.960 . S
C3880 C3881 1.391 . S
C3880 C3882 1.394 . S
C3880 H3896 0.931 . S
C3881 C3880 1.391 . S
C3881 C3885 1.376 . S
C3882 C3880 1.394 . S
C3882 C3883 1.369 . S
C3882 C3886 1.531 . S
C3883 C3882 1.369 . S
C3883 C3884 1.410 . S
C3883 C3891 1.503 . S
C3884 C3883 1.410 . S
C3884 C3885 1.392 . S
C3884 C3887 1.511 . S
C3885 C3881 1.376 . S
C3885 C3884 1.392 . S
C3885 H3897 0.929 . S
C3886 C3882 1.531 . S
C3886 H3898 0.960 . S
C3886 H3899 0.962 . S
C3886 H3900 0.960 . S
C3887 C3884 1.511 . S
C3887 H3901 0.961 . S
C3887 H3902 0.961 . S
C3887 H3903 0.961 . S
C3888 C3889 1.370 . S
C3888 C3890 1.363 . S
C3888 H3904 0.931 . S
C3889 C3888 1.370 . S
C3889 C3893 1.408 . S
C3890 C3888 1.363 . S
C3890 C3891 1.370 . S
C3890 C3894 1.524 . S
C3891 C3883 1.503 . S
C3891 C3890 1.370 . S
C3891 C3892 1.403 . S
C3892 C3891 1.403 . S
C3892 C3893 1.404 . S
C3892 C3895 1.539 . S
C3893 C3889 1.408 . S
C3893 C3892 1.404 . S
C3893 H3905 0.930 . S
C3894 C3890 1.524 . S
C3894 H3906 0.956 . S
C3894 H3907 0.961 . S
C3894 H3908 0.961 . S
C3895 C3892 1.539 . S
C3895 H3909 0.958 . S
C3895 H3910 0.961 . S
C3895 H3911 0.960 . S
H3896 C3880 0.931 . S
H3897 C3885 0.929 . S
H3898 C3886 0.960 . S
H3899 C3886 0.962 . S
H3900 C3886 0.960 . S
H3901 C3887 0.961 . S
H3902 C3887 0.961 . S
H3903 C3887 0.961 . S
H3904 C3888 0.931 . S
H3905 C3893 0.930 . S
H3906 C3894 0.956 . S
H3907 C3894 0.961 . S
H3908 C3894 0.961 . S
H3909 C3895 0.958 . S
H3910 C3895 0.961 . S
H3911 C3895 0.960 . S
C3912 C3913 1.391 . S
C3912 C3914 1.394 . S
C3912 H3928 0.931 . S
C3913 C3912 1.391 . S
C3913 C3917 1.376 . S
C3914 C3912 1.394 . S
C3914 C3915 1.369 . S
C3914 C3918 1.531 . S
C3915 C3914 1.369 . S
C3915 C3916 1.410 . S
C3915 C3923 1.503 . S
C3916 C3915 1.410 . S
C3916 C3917 1.392 . S
C3916 C3919 1.511 . S
C3917 C3913 1.376 . S
C3917 C3916 1.392 . S
C3917 H3929 0.929 . S
C3918 C3914 1.531 . S
C3918 H3930 0.960 . S
C3918 H3931 0.962 . S
C3918 H3932 0.960 . S
C3919 C3916 1.511 . S
C3919 H3933 0.961 . S
C3919 H3934 0.961 . S
C3919 H3935 0.961 . S
C3920 C3921 1.370 . S
C3920 C3922 1.363 . S
C3920 H3936 0.931 . S
C3921 C3920 1.370 . S
C3921 C3925 1.408 . S
C3922 C3920 1.363 . S
C3922 C3923 1.370 . S
C3922 C3926 1.524 . S
C3923 C3915 1.503 . S
C3923 C3922 1.370 . S
C3923 C3924 1.403 . S
C3924 C3923 1.403 . S
C3924 C3925 1.404 . S
C3924 C3927 1.539 . S
C3925 C3921 1.408 . S
C3925 C3924 1.404 . S
C3925 H3937 0.930 . S
C3926 C3922 1.524 . S
C3926 H3938 0.956 . S
C3926 H3939 0.961 . S
C3926 H3940 0.961 . S
C3927 C3924 1.539 . S
C3927 H3941 0.958 . S
C3927 H3942 0.961 . S
C3927 H3943 0.960 . S
H3928 C3912 0.931 . S
H3929 C3917 0.929 . S
H3930 C3918 0.960 . S
H3931 C3918 0.962 . S
H3932 C3918 0.960 . S
H3933 C3919 0.961 . S
H3934 C3919 0.961 . S
H3935 C3919 0.961 . S
H3936 C3920 0.931 . S
H3937 C3925 0.930 . S
H3938 C3926 0.956 . S
H3939 C3926 0.961 . S
H3940 C3926 0.961 . S
H3941 C3927 0.958 . S
H3942 C3927 0.961 . S
H3943 C3927 0.960 . S
C3944 C3945 1.391 . S
C3944 C3946 1.394 . S
C3944 H3960 0.931 . S
C3945 C3944 1.391 . S
C3945 C3949 1.376 . S
C3946 C3944 1.394 . S
C3946 C3947 1.369 . S
C3946 C3950 1.531 . S
C3947 C3946 1.369 . S
C3947 C3948 1.410 . S
C3947 C3955 1.503 . S
C3948 C3947 1.410 . S
C3948 C3949 1.392 . S
C3948 C3951 1.511 . S
C3949 C3945 1.376 . S
C3949 C3948 1.392 . S
C3949 H3961 0.929 . S
C3950 C3946 1.531 . S
C3950 H3962 0.960 . S
C3950 H3963 0.962 . S
C3950 H3964 0.960 . S
C3951 C3948 1.511 . S
C3951 H3965 0.961 . S
C3951 H3966 0.961 . S
C3951 H3967 0.961 . S
C3952 C3953 1.370 . S
C3952 C3954 1.363 . S
C3952 H3968 0.931 . S
C3953 C3952 1.370 . S
C3953 C3957 1.408 . S
C3954 C3952 1.363 . S
C3954 C3955 1.370 . S
C3954 C3958 1.524 . S
C3955 C3947 1.503 . S
C3955 C3954 1.370 . S
C3955 C3956 1.403 . S
C3956 C3955 1.403 . S
C3956 C3957 1.404 . S
C3956 C3959 1.539 . S
C3957 C3953 1.408 . S
C3957 C3956 1.404 . S
C3957 H3969 0.930 . S
C3958 C3954 1.524 . S
C3958 H3970 0.956 . S
C3958 H3971 0.961 . S
C3958 H3972 0.961 . S
C3959 C3956 1.539 . S
C3959 H3973 0.958 . S
C3959 H3974 0.961 . S
C3959 H3975 0.960 . S
H3960 C3944 0.931 . S
H3961 C3949 0.929 . S
H3962 C3950 0.960 . S
H3963 C3950 0.962 . S
H3964 C3950 0.960 . S
H3965 C3951 0.961 . S
H3966 C3951 0.961 . S
H3967 C3951 0.961 . S
H3968 C3952 0.931 . S
H3969 C3957 0.930 . S
H3970 C3958 0.956 . S
H3971 C3958 0.961 . S
H3972 C3958 0.961 . S
H3973 C3959 0.958 . S
H3974 C3959 0.961 . S
H3975 C3959 0.960 . S
C3976 C3977 1.391 . S
C3976 C3978 1.394 . S
C3976 H3992 0.931 . S
C3977 C3976 1.391 . S
C3977 C3981 1.376 . S
C3978 C3976 1.394 . S
C3978 C3979 1.369 . S
C3978 C3982 1.531 . S
C3979 C3978 1.369 . S
C3979 C3980 1.410 . S
C3979 C3987 1.503 . S
C3980 C3979 1.410 . S
C3980 C3981 1.392 . S
C3980 C3983 1.511 . S
C3981 C3977 1.376 . S
C3981 C3980 1.392 . S
C3981 H3993 0.929 . S
C3982 C3978 1.531 . S
C3982 H3994 0.960 . S
C3982 H3995 0.962 . S
C3982 H3996 0.960 . S
C3983 C3980 1.511 . S
C3983 H3997 0.961 . S
C3983 H3998 0.961 . S
C3983 H3999 0.961 . S
C3984 C3985 1.370 . S
C3984 C3986 1.363 . S
C3984 H4000 0.931 . S
C3985 C3984 1.370 . S
C3985 C3989 1.408 . S
C3986 C3984 1.363 . S
C3986 C3987 1.370 . S
C3986 C3990 1.524 . S
C3987 C3979 1.503 . S
C3987 C3986 1.370 . S
C3987 C3988 1.403 . S
C3988 C3987 1.403 . S
C3988 C3989 1.404 . S
C3988 C3991 1.539 . S
C3989 C3985 1.408 . S
C3989 C3988 1.404 . S
C3989 H4001 0.930 . S
C3990 C3986 1.524 . S
C3990 H4002 0.956 . S
C3990 H4003 0.961 . S
C3990 H4004 0.961 . S
C3991 C3988 1.539 . S
C3991 H4005 0.958 . S
C3991 H4006 0.961 . S
C3991 H4007 0.960 . S
H3992 C3976 0.931 . S
H3993 C3981 0.929 . S
H3994 C3982 0.960 . S
H3995 C3982 0.962 . S
H3996 C3982 0.960 . S
H3997 C3983 0.961 . S
H3998 C3983 0.961 . S
H3999 C3983 0.961 . S
H4000 C3984 0.931 . S
H4001 C3989 0.930 . S
H4002 C3990 0.956 . S
H4003 C3990 0.961 . S
H4004 C3990 0.961 . S
H4005 C3991 0.958 . S
H4006 C3991 0.961 . S
H4007 C3991 0.960 . S
C4008 C4009 1.391 . S
C4008 C4010 1.394 . S
C4008 H4024 0.931 . S
C4009 C4008 1.391 . S
C4009 C4013 1.376 . S
C4010 C4008 1.394 . S
C4010 C4011 1.369 . S
C4010 C4014 1.531 . S
C4011 C4010 1.369 . S
C4011 C4012 1.410 . S
C4011 C4019 1.503 . S
C4012 C4011 1.410 . S
C4012 C4013 1.392 . S
C4012 C4015 1.511 . S
C4013 C4009 1.376 . S
C4013 C4012 1.392 . S
C4013 H4025 0.929 . S
C4014 C4010 1.531 . S
C4014 H4026 0.960 . S
C4014 H4027 0.962 . S
C4014 H4028 0.960 . S
C4015 C4012 1.511 . S
C4015 H4029 0.961 . S
C4015 H4030 0.961 . S
C4015 H4031 0.961 . S
C4016 C4017 1.370 . S
C4016 C4018 1.363 . S
C4016 H4032 0.931 . S
C4017 C4016 1.370 . S
C4017 C4021 1.408 . S
C4018 C4016 1.363 . S
C4018 C4019 1.370 . S
C4018 C4022 1.524 . S
C4019 C4011 1.503 . S
C4019 C4018 1.370 . S
C4019 C4020 1.403 . S
C4020 C4019 1.403 . S
C4020 C4021 1.404 . S
C4020 C4023 1.539 . S
C4021 C4017 1.408 . S
C4021 C4020 1.404 . S
C4021 H4033 0.930 . S
C4022 C4018 1.524 . S
C4022 H4034 0.956 . S
C4022 H4035 0.961 . S
C4022 H4036 0.961 . S
C4023 C4020 1.539 . S
C4023 H4037 0.958 . S
C4023 H4038 0.961 . S
C4023 H4039 0.960 . S
H4024 C4008 0.931 . S
H4025 C4013 0.929 . S
H4026 C4014 0.960 . S
H4027 C4014 0.962 . S
H4028 C4014 0.960 . S
H4029 C4015 0.961 . S
H4030 C4015 0.961 . S
H4031 C4015 0.961 . S
H4032 C4016 0.931 . S
H4033 C4021 0.930 . S
H4034 C4022 0.956 . S
H4035 C4022 0.961 . S
H4036 C4022 0.961 . S
H4037 C4023 0.958 . S
H4038 C4023 0.961 . S
H4039 C4023 0.960 . S
C4040 C4041 1.391 . S
C4040 C4042 1.394 . S
C4040 H4056 0.931 . S
C4041 C4040 1.391 . S
C4041 C4045 1.376 . S
C4042 C4040 1.394 . S
C4042 C4043 1.369 . S
C4042 C4046 1.531 . S
C4043 C4042 1.369 . S
C4043 C4044 1.410 . S
C4043 C4051 1.503 . S
C4044 C4043 1.410 . S
C4044 C4045 1.392 . S
C4044 C4047 1.511 . S
C4045 C4041 1.376 . S
C4045 C4044 1.392 . S
C4045 H4057 0.929 . S
C4046 C4042 1.531 . S
C4046 H4058 0.960 . S
C4046 H4059 0.962 . S
C4046 H4060 0.960 . S
C4047 C4044 1.511 . S
C4047 H4061 0.961 . S
C4047 H4062 0.961 . S
C4047 H4063 0.961 . S
C4048 C4049 1.370 . S
C4048 C4050 1.363 . S
C4048 H4064 0.931 . S
C4049 C4048 1.370 . S
C4049 C4053 1.408 . S
C4050 C4048 1.363 . S
C4050 C4051 1.370 . S
C4050 C4054 1.524 . S
C4051 C4043 1.503 . S
C4051 C4050 1.370 . S
C4051 C4052 1.403 . S
C4052 C4051 1.403 . S
C4052 C4053 1.404 . S
C4052 C4055 1.539 . S
C4053 C4049 1.408 . S
C4053 C4052 1.404 . S
C4053 H4065 0.930 . S
C4054 C4050 1.524 . S
C4054 H4066 0.956 . S
C4054 H4067 0.961 . S
C4054 H4068 0.961 . S
C4055 C4052 1.539 . S
C4055 H4069 0.958 . S
C4055 H4070 0.961 . S
C4055 H4071 0.960 . S
H4056 C4040 0.931 . S
H4057 C4045 0.929 . S
H4058 C4046 0.960 . S
H4059 C4046 0.962 . S
H4060 C4046 0.960 . S
H4061 C4047 0.961 . S
H4062 C4047 0.961 . S
H4063 C4047 0.961 . S
H4064 C4048 0.931 . S
H4065 C4053 0.930 . S
H4066 C4054 0.956 . S
H4067 C4054 0.961 . S
H4068 C4054 0.961 . S
H4069 C4055 0.958 . S
H4070 C4055 0.961 . S
H4071 C4055 0.960 . S
C4072 C4073 1.391 . S
C4072 C4074 1.394 . S
C4072 H4088 0.931 . S
C4073 C4072 1.391 . S
C4073 C4077 1.376 . S
C4074 C4072 1.394 . S
C4074 C4075 1.369 . S
C4074 C4078 1.531 . S
C4075 C4074 1.369 . S
C4075 C4076 1.410 . S
C4075 C4083 1.503 . S
C4076 C4075 1.410 . S
C4076 C4077 1.392 . S
C4076 C4079 1.511 . S
C4077 C4073 1.376 . S
C4077 C4076 1.392 . S
C4077 H4089 0.929 . S
C4078 C4074 1.531 . S
C4078 H4090 0.960 . S
C4078 H4091 0.962 . S
C4078 H4092 0.960 . S
C4079 C4076 1.511 . S
C4079 H4093 0.961 . S
C4079 H4094 0.961 . S
C4079 H4095 0.961 . S
C4080 C4081 1.370 . S
C4080 C4082 1.363 . S
C4080 H4096 0.931 . S
C4081 C4080 1.370 . S
C4081 C4085 1.408 . S
C4082 C4080 1.363 . S
C4082 C4083 1.370 . S
C4082 C4086 1.524 . S
C4083 C4075 1.503 . S
C4083 C4082 1.370 . S
C4083 C4084 1.403 . S
C4084 C4083 1.403 . S
C4084 C4085 1.404 . S
C4084 C4087 1.539 . S
C4085 C4081 1.408 . S
C4085 C4084 1.404 . S
C4085 H4097 0.930 . S
C4086 C4082 1.524 . S
C4086 H4098 0.956 . S
C4086 H4099 0.961 . S
C4086 H4100 0.961 . S
C4087 C4084 1.539 . S
C4087 H4101 0.958 . S
C4087 H4102 0.961 . S
C4087 H4103 0.960 . S
H4088 C4072 0.931 . S
H4089 C4077 0.929 . S
H4090 C4078 0.960 . S
H4091 C4078 0.962 . S
H4092 C4078 0.960 . S
H4093 C4079 0.961 . S
H4094 C4079 0.961 . S
H4095 C4079 0.961 . S
H4096 C4080 0.931 . S
H4097 C4085 0.930 . S
H4098 C4086 0.956 . S
H4099 C4086 0.961 . S
H4100 C4086 0.961 . S
H4101 C4087 0.958 . S
H4102 C4087 0.961 . S
H4103 C4087 0.960 . S
C1225 C546 1.484 . S
C1233 C2 1.487 . S
C1257 C36 1.485 . S
C1265 C580 1.486 . S
C1289 C512 1.481 . S
C1297 C70 1.488 . S
C1321 C104 1.484 . S
C1329 C886 1.485 . S
C1353 C818 1.485 . S
C1361 C138 1.486 . S
C1385 C172 1.479 . S
C1393 C852 1.487 . S
C1417 C206 1.485 . S
C1425 C1158 1.487 . S
C1449 C240 1.484 . S
C1457 C1192 1.485 . S
C1481 C274 1.480 . S
C1489 C1124 1.487 . S
C1513 C308 1.485 . S
C1521 C682 1.486 . S
C1545 C342 1.483 . S
C1553 C614 1.487 . S
C1577 C376 1.479 . S
C1585 C648 1.487 . S
C1609 C410 1.481 . S
C1617 C954 1.485 . S
C1641 C988 1.485 . S
C1649 C444 1.486 . S
C1673 C920 1.483 . S
C1681 C478 1.487 . S
C1705 C1090 1.479 . S
C1713 C716 1.487 . S
C1737 C1022 1.484 . S
C1745 C750 1.485 . S
C1769 C784 1.480 . S
C1777 C1056 1.485 . S
C1801 C991 1.304 . S
C1809 C5 1.320 . S
C1833 C39 1.325 . S
C1841 C923 1.316 . S
C1865 C73 1.328 . S
C1873 C957 1.328 . S
C1897 C107 1.304 . S
C1905 C447 1.320 . S
C1929 C141 1.306 . S
C1937 C481 1.321 . S
C1961 C413 1.327 . S
C1969 C175 1.321 . S
C1993 C787 1.316 . S
C2001 C209 1.324 . S
C2025 C243 1.324 . S
C2033 C719 1.314 . S
C2057 C277 1.304 . S
C2065 C753 1.324 . S
C2089 C1059 1.328 . S
C2097 C311 1.317 . S
C2121 C1093 1.325 . S
C2129 C345 1.314 . S
C2153 C1025 1.326 . S
C2161 C379 1.321 . S
C2185 C515 1.325 . S
C2193 C855 1.324 . S
C2217 C549 1.303 . S
C2225 C889 1.316 . S
C2249 C583 1.319 . S
C2257 C821 1.324 . S
C2281 C617 1.305 . S
C2289 C1195 1.322 . S
C2313 C1127 1.314 . S
C2321 C651 1.314 . S
C2345 C685 1.323 . S
C2353 C1161 1.323 . S
C2377 C20 1.594 . S
C2385 C632 1.583 . S
C2409 C54 1.558 . S
C2417 C666 1.596 . S
C2441 C700 1.570 . S
C2449 C88 1.590 . S
C2473 C122 1.568 . S
C2481 C1142 1.591 . S
C2505 C156 1.604 . S
C2513 C1176 1.577 . S
C2537 C190 1.571 . S
C2545 C1210 1.590 . S
C2569 C836 1.587 . S
C2577 C224 1.586 . S
C2601 C258 1.591 . S
C2609 C870 1.584 . S
C2633 C904 1.597 . S
C2641 C292 1.579 . S
C2665 C530 1.603 . S
C2673 C326 1.577 . S
C2697 C564 1.559 . S
C2705 C360 1.596 . S
C2729 C394 1.564 . S
C2737 C598 1.593 . S
C2761 C1040 1.606 . S
C2769 C428 1.576 . S
C2793 C1074 1.571 . S
C2801 C462 1.590 . S
C2825 C496 1.601 . S
C2833 C1108 1.580 . S
C2857 C938 1.562 . S
C2865 C734 1.594 . S
C2889 C768 1.558 . S
C2897 C972 1.596 . S
C2921 C1006 1.558 . S
C2929 C802 1.596 . S
C2953 C9 1.265 . S
C2961 C271 1.341 . S
C2985 C43 1.324 . S
C2993 C305 1.331 . S
C3017 C237 1.328 . S
C3025 C77 1.296 . S
C3049 C407 1.349 . S
C3057 C111 1.298 . S
C3081 C339 1.347 . S
C3089 C145 1.285 . S
C3113 C373 1.335 . S
C3121 C179 1.309 . S
C3145 C67 1.319 . S
C3153 C213 1.314 . S
C3177 C101 1.323 . S
C3185 C247 1.296 . S
C3209 C33 1.354 . S
C3217 C281 1.292 . S
C3241 C315 1.273 . S
C3249 C203 1.346 . S
C3273 C349 1.321 . S
C3281 C135 1.331 . S
C3305 C169 1.322 . S
C3313 C383 1.297 . S
C3337 C679 1.353 . S
C3345 C417 1.290 . S
C3369 C451 1.322 . S
C3377 C713 1.338 . S
C3401 C645 1.353 . S
C3409 C485 1.291 . S
C3433 C815 1.333 . S
C3441 C519 1.292 . S
C3465 C553 1.264 . S
C3473 C747 1.342 . S
C3497 C587 1.274 . S
C3505 C781 1.339 . S
C3529 C621 1.314 . S
C3537 C475 1.331 . S
C3561 C655 1.274 . S
C3569 C509 1.336 . S
C3593 C689 1.323 . S
C3601 C441 1.340 . S
C3625 C723 1.295 . S
C3633 C611 1.345 . S
C3657 C543 1.337 . S
C3665 C757 1.287 . S
C3689 C577 1.330 . S
C3697 C791 1.315 . S
C3721 C1087 1.340 . S
C3729 C825 1.288 . S
C3753 C1121 1.316 . S
C3761 C859 1.311 . S
C3785 C1053 1.325 . S
C3793 C893 1.314 . S
C3817 C1223 1.328 . S
C3825 C927 1.296 . S
C3849 C961 1.299 . S
C3857 C1155 1.343 . S
C3881 C1189 1.349 . S
C3889 C995 1.297 . S
C3913 C883 1.342 . S
C3921 C1029 1.309 . S
C3945 C917 1.324 . S
C3953 C1063 1.294 . S
C3977 C849 1.338 . S
C3985 C1097 1.286 . S
C4009 C1131 1.305 . S
C4017 C1019 1.331 . S
C4041 C1165 1.260 . S
C4049 C951 1.343 . S
C4073 C985 1.319 . S
C4081 C1199 1.314 . S
