# Generated by pormake.
# Topology svj, (7)-cn, num edge types: 1
# Building blocks:
#     Node 0, Type 0, BuildingBlock: HICVOG_clean_sbu_0, # of connection points: 7
#     Node 1, Type 0, BuildingBlock: HICVOG_clean_sbu_0, # of connection points: 7
#     Node 2, Type 0, BuildingBlock: HICVOG_clean_sbu_0, # of connection points: 7
#     Node 3, Type 0, BuildingBlock: HICVOG_clean_sbu_0, # of connection points: 7
#     Node 4, Type 0, BuildingBlock: HICVOG_clean_sbu_0, # of connection points: 7
#     Node 5, Type 0, BuildingBlock: HICVOG_clean_sbu_0, # of connection points: 7
#     Edge 6, Type (0, 0), BuildingBlock: OJICUG_clean_linker_0, # of connection points: 2
#     Edge 7, Type (0, 0), BuildingBlock: OJICUG_clean_linker_0, # of connection points: 2
#     Edge 8, Type (0, 0), BuildingBlock: OJICUG_clean_linker_0, # of connection points: 2
#     Edge 9, Type (0, 0), BuildingBlock: OJICUG_clean_linker_0, # of connection points: 2
#     Edge 10, Type (0, 0), BuildingBlock: OJICUG_clean_linker_0, # of connection points: 2
#     Edge 11, Type (0, 0), BuildingBlock: OJICUG_clean_linker_0, # of connection points: 2
#     Edge 12, Type (0, 0), BuildingBlock: OJICUG_clean_linker_0, # of connection points: 2
#     Edge 13, Type (0, 0), BuildingBlock: OJICUG_clean_linker_0, # of connection points: 2
#     Edge 14, Type (0, 0), BuildingBlock: OJICUG_clean_linker_0, # of connection points: 2
#     Edge 15, Type (0, 0), BuildingBlock: OJICUG_clean_linker_0, # of connection points: 2
#     Edge 16, Type (0, 0), BuildingBlock: OJICUG_clean_linker_0, # of connection points: 2
#     Edge 17, Type (0, 0), BuildingBlock: OJICUG_clean_linker_0, # of connection points: 2
#     Edge 18, Type (0, 0), BuildingBlock: OJICUG_clean_linker_0, # of connection points: 2
#     Edge 19, Type (0, 0), BuildingBlock: OJICUG_clean_linker_0, # of connection points: 2
#     Edge 20, Type (0, 0), BuildingBlock: OJICUG_clean_linker_0, # of connection points: 2
#     Edge 21, Type (0, 0), BuildingBlock: OJICUG_clean_linker_0, # of connection points: 2
#     Edge 22, Type (0, 0), BuildingBlock: OJICUG_clean_linker_0, # of connection points: 2
#     Edge 23, Type (0, 0), BuildingBlock: OJICUG_clean_linker_0, # of connection points: 2
#     Edge 24, Type (0, 0), BuildingBlock: OJICUG_clean_linker_0, # of connection points: 2
#     Edge 25, Type (0, 0), BuildingBlock: OJICUG_clean_linker_0, # of connection points: 2
#     Edge 26, Type (0, 0), BuildingBlock: OJICUG_clean_linker_0, # of connection points: 2
# Relax obj value: 0.283
# Max RMSD: 0.258
# Mean RMSD: 0.241
data_MOF--net-svj--node1-HICVOG_clean_sbu_0--edge1-OJICUG_clean_linker_0
_symmetry_space_group_name_H-M    P1
_symmetry_Int_Tables_number       1
_symmetry_cell_setting            triclinic
loop_
_symmetry_equiv_pos_as_xyz
'x, y, z'
_cell_length_a     30.416408
_cell_length_b     30.443952
_cell_length_c     16.26446
_cell_angle_alpha  89.736048
_cell_angle_beta   90.120826
_cell_angle_gamma 119.99531
loop_
_atom_site_label
_atom_site_type_symbol
_atom_site_fract_x
_atom_site_fract_y
_atom_site_fract_z
_atom_type_partial_charge
Zn0 Zn 0.22523 0.44655 0.96536 0.0
C1 C 0.1094 0.45196 0.06556 0.0
N2 N 0.12319 0.49081 0.0131 0.0
C3 C 0.16767 0.49844 0.98344 0.0
N4 N 0.17999 0.46516 0.01628 0.0
N5 N 0.14397 0.43668 0.0694 0.0
C6 C 0.04783 0.31667 0.11913 0.0
O7 O 0.06786 0.32595 0.04515 0.0
O8 O 0.28712 0.50839 0.92058 0.0
Zn9 Zn 0.14836 0.39667 0.15846 0.0
N10 N 0.18879 0.40147 0.87657 0.0
C11 C 0.13187 0.31818 0.82919 0.0
C12 C 0.1588 0.35125 0.89295 0.0
C13 C 0.19301 0.42023 0.79932 0.0
N14 N 0.13648 0.33671 0.75163 0.0
C15 C 0.16665 0.38699 0.73427 0.0
O16 O 0.20069 0.37308 0.14838 0.0
C17 C 0.23851 0.38221 0.10288 0.0
O18 O 0.24945 0.40961 0.03857 0.0
H19 H 0.15578 0.33719 0.95508 0.0
H20 H 0.21619 0.46067 0.78975 0.0
C21 C 0.16311 0.42241 0.33016 0.0
C22 C 0.18383 0.45592 0.39693 0.0
C23 C 0.21969 0.52539 0.30361 0.0
C24 C 0.19981 0.49202 0.23786 0.0
N25 N 0.17161 0.44132 0.2523 0.0
N26 N 0.21157 0.50663 0.3813 0.0
H27 H 0.14215 0.38175 0.33921 0.0
C28 C 0.31665 0.53771 0.97561 0.0
O29 O 0.30493 0.52525 0.05323 0.0
O30 O 0.07639 0.33962 0.18007 0.0
H31 H 0.20704 0.50643 0.17576 0.0
H32 H 0.10763 0.27808 0.8411 0.0
H33 H 0.24204 0.56585 0.29302 0.0
Zn34 Zn 0.6302 0.10885 0.26888 0.0
C35 C 0.72352 0.24737 0.2301 0.0
N36 N 0.6882 0.2525 0.27183 0.0
C37 C 0.64589 0.20725 0.26388 0.0
N38 N 0.65559 0.17523 0.2211 0.0
N39 N 0.70334 0.20069 0.19592 0.0
C40 C 0.82919 0.21935 0.15371 0.0
O41 O 0.80755 0.2035 0.22591 0.0
O42 O 0.5536 0.073 0.27589 0.0
Zn43 Zn 0.72449 0.17676 0.09958 0.0
N44 N 0.66685 0.11684 0.37222 0.0
C45 C 0.74381 0.12379 0.42156 0.0
C46 C 0.71145 0.11819 0.35717 0.0
C47 C 0.65365 0.12204 0.45046 0.0
N48 N 0.73082 0.12866 0.49908 0.0
C49 C 0.68685 0.12824 0.51658 0.0
O50 O 0.7012 0.1007 0.1012 0.0
C51 C 0.67115 0.06088 0.14179 0.0
O52 O 0.64466 0.06214 0.20115 0.0
H53 H 0.722 0.11515 0.29499 0.0
H54 H 0.61805 0.12106 0.46064 0.0
C55 C 0.69504 0.16979 0.9256 0.0
C56 C 0.6725 0.17992 0.85689 0.0
C57 C 0.65045 0.22857 0.944 0.0
C58 C 0.67313 0.2189 0.01053 0.0
N59 N 0.69504 0.18981 1.00065 0.0
N60 N 0.65082 0.20914 0.86941 0.0
H61 H 0.71217 0.14627 0.92079 0.0
C62 C 0.53477 0.07653 0.20786 0.0
O63 O 0.56591 0.10475 0.14931 0.0
O64 O 0.80149 0.21324 0.09113 0.0
H65 H 0.67354 0.23492 0.06971 0.0
H66 H 0.77926 0.12467 0.41006 0.0
H67 H 0.63289 0.25167 0.9514 0.0
Zn68 Zn 0.62889 0.76024 0.13312 0.0
C69 C 0.52167 0.66772 0.97393 0.0
N70 N 0.5273 0.63252 0.01521 0.0
C71 C 0.56714 0.66028 0.06401 0.0
N72 N 0.58513 0.7104 0.0543 0.0
N73 N 0.5571 0.71517 0.99666 0.0
C74 C 0.48604 0.77633 0.94866 0.0
O75 O 0.50118 0.77744 0.02474 0.0
O76 O 0.68895 0.74934 0.14848 0.0
Zn77 Zn 0.57534 0.77693 0.93708 0.0
N78 N 0.58819 0.74109 0.23128 0.0
C79 C 0.50594 0.71007 0.28839 0.0
C80 C 0.538 0.72469 0.22057 0.0
C81 C 0.60811 0.74488 0.30746 0.0
N82 N 0.5257 0.7141 0.36458 0.0
C83 C 0.57612 0.73165 0.37661 0.0
O84 O 0.60999 0.84106 1.00292 0.0
C85 C 0.63743 0.8607 0.06604 0.0
O86 O 0.64844 0.83473 0.11502 0.0
H87 H 0.52302 0.7228 0.15964 0.0
H88 H 0.64824 0.75815 0.31349 0.0
C89 C 0.60616 0.76751 0.77499 0.0
C90 C 0.64181 0.77417 0.71416 0.0
C91 C 0.70783 0.81374 0.81272 0.0
C92 C 0.67236 0.80739 0.87245 0.0
N93 N 0.62237 0.78434 0.85237 0.0
N94 N 0.69184 0.79734 0.73506 0.0
H95 H 0.56616 0.75059 0.76116 0.0
C96 C 0.7089 0.742 0.08503 0.0
O97 O 0.69408 0.74806 0.0121 0.0
O98 O 0.51312 0.77509 0.8905 0.0
H99 H 0.68446 0.82093 0.93433 0.0
H100 H 0.4658 0.69631 0.28076 0.0
H101 H 0.7478 0.83201 0.82766 0.0
Zn102 Zn 0.90646 0.5192 0.23949 0.0
C103 C 0.78066 0.48336 0.11234 0.0
N104 N 0.77487 0.43677 0.10564 0.0
C105 C 0.81769 0.44173 0.13805 0.0
N106 N 0.8488 0.48962 0.16404 0.0
N107 N 0.82706 0.51626 0.1424 0.0
C108 C 0.81248 0.62656 0.1128 0.0
O109 O 0.82055 0.61407 0.18619 0.0
O110 O 0.93876 0.47483 0.25588 0.0
Zn111 Zn 0.86697 0.57589 0.07426 0.0
N112 N 0.88418 0.5387 0.3391 0.0
C113 C 0.85227 0.59308 0.37572 0.0
C114 C 0.87029 0.57308 0.31725 0.0
C115 C 0.88288 0.52487 0.41961 0.0
N116 N 0.8507 0.57949 0.45531 0.0
C117 C 0.8659 0.54645 0.48057 0.0
O118 O 0.93563 0.62809 0.12103 0.0
C119 C 0.97131 0.6259 0.1587 0.0
O120 O 0.96405 0.58592 0.19627 0.0
H121 H 0.87394 0.58521 0.25422 0.0
H122 H 0.89602 0.49886 0.4352 0.0
C123 C 0.86837 0.54936 0.89638 0.0
C124 C 0.88659 0.53029 0.83355 0.0
C125 C 0.93535 0.51603 0.93315 0.0
C126 C 0.91843 0.53596 0.9938 0.0
N127 N 0.88486 0.55157 0.97528 0.0
N128 N 0.91927 0.51386 0.85488 0.0
H129 H 0.84168 0.56211 0.88323 0.0
C130 C 0.94355 0.45541 0.18968 0.0
O131 O 0.9242 0.46192 0.12183 0.0
O132 O 0.82758 0.6126 0.05035 0.0
H133 H 0.93198 0.53913 0.05585 0.0
H134 H 0.84054 0.62004 0.35845 0.0
H135 H 0.96167 0.50301 0.94787 0.0
Zn136 Zn 0.27582 0.87683 0.13928 0.0
C137 C 0.3621 0.86042 0.96711 0.0
N138 N 0.39796 0.9051 0.99745 0.0
C139 C 0.37187 0.91714 0.05038 0.0
N140 N 0.32243 0.88132 0.05388 0.0
N141 N 0.31626 0.84626 1.0002 0.0
C142 C 0.25397 0.70686 0.97121 0.0
O143 O 0.25408 0.72089 0.04754 0.0
O144 O 0.29275 0.94898 0.16235 0.0
Zn145 Zn 0.25308 0.79714 0.9533 0.0
N146 N 0.29231 0.84993 0.23546 0.0
C147 C 0.32264 0.797 0.28838 0.0
C148 C 0.31102 0.81833 0.22197 0.0
C149 C 0.28341 0.86007 0.31316 0.0
N150 N 0.31376 0.80698 0.36582 0.0
C151 C 0.29395 0.8376 0.38079 0.0
O152 O 0.19455 0.77135 0.03147 0.0
C153 C 0.17518 0.78502 0.08791 0.0
O154 O 0.19954 0.82812 0.12295 0.0
H155 H 0.31698 0.80987 0.16003 0.0
H156 H 0.26838 0.88529 0.32155 0.0
C157 C 0.25351 0.82666 0.78478 0.0
C158 C 0.24467 0.85259 0.72061 0.0
C159 C 0.20812 0.88339 0.81733 0.0
C160 C 0.21739 0.85801 0.88046 0.0
N161 N 0.23958 0.82999 0.86289 0.0
N162 N 0.22183 0.88004 0.73926 0.0
H163 H 0.27069 0.80359 0.77339 0.0
C164 C 0.30089 0.97909 0.1023 0.0
O165 O 0.29173 0.96078 0.02726 0.0
O166 O 0.2547 0.73531 0.91331 0.0
H167 H 0.20719 0.86071 0.94313 0.0
H168 H 0.33807 0.77223 0.27852 0.0
H169 H 0.19032 0.90574 0.83024 0.0
Zn170 Zn 0.46802 0.30199 0.11661 0.0
C171 C 0.59079 0.39169 0.24648 0.0
N172 N 0.59398 0.3508 0.26812 0.0
C173 C 0.55036 0.31155 0.24041 0.0
N174 N 0.52164 0.32779 0.2013 0.0
N175 N 0.54478 0.3773 0.21371 0.0
C176 C 0.56815 0.50148 0.22916 0.0
O177 O 0.57595 0.47702 0.17039 0.0
O178 O 0.43926 0.22717 0.09286 0.0
Zn179 Zn 0.50439 0.39819 0.27864 0.0
N180 N 0.49516 0.34632 0.01876 0.0
C181 C 0.52795 0.43289 0.98149 0.0
C182 C 0.50891 0.39457 0.04001 0.0
C183 C 0.4963 0.33406 0.93815 0.0
N184 N 0.52956 0.42111 0.90199 0.0
C185 C 0.51359 0.37282 0.87686 0.0
O186 O 0.43563 0.37823 0.22775 0.0
C187 C 0.40128 0.34423 0.18254 0.0
O188 O 0.40808 0.31145 0.14478 0.0
H189 H 0.50374 0.40293 0.10222 0.0
H190 H 0.48209 0.2948 0.9225 0.0
C191 C 0.50448 0.37319 0.45996 0.0
C192 C 0.48705 0.33614 0.5238 0.0
C193 C 0.43737 0.27268 0.42599 0.0
C194 C 0.45369 0.30914 0.36435 0.0
N195 N 0.48721 0.3585 0.38147 0.0
N196 N 0.45421 0.28698 0.50371 0.0
H197 H 0.53144 0.41262 0.47196 0.0
C198 C 0.41793 0.19641 0.15239 0.0
O199 O 0.41911 0.21478 0.22575 0.0
O200 O 0.53994 0.47606 0.2894 0.0
H201 H 0.44003 0.29816 0.30237 0.0
H202 H 0.53981 0.47156 0.99857 0.0
H203 H 0.41115 0.23326 0.41237 0.0
C204 C 0.3338 0.36399 0.22679 0.0
C205 C 0.35438 0.34648 0.16643 0.0
H206 H 0.2793 0.38716 0.25463 0.0
C207 C 0.33266 0.33579 0.08748 0.0
H208 H 0.34985 0.37264 0.28809 0.0
C209 C 0.29337 0.34539 0.06789 0.0
C210 C 0.27375 0.3642 0.12751 0.0
H211 H 0.34798 0.32276 0.03946 0.0
H212 H 0.27922 0.33943 1.00536 0.0
C213 C 0.29328 0.372 0.20784 0.0
C214 C 0.96011 0.27189 0.05924 0.0
C215 C 0.99176 0.28795 0.12895 0.0
H216 H 0.88436 0.23859 0.01216 0.0
C217 C 0.96929 0.28043 0.20704 0.0
H218 H 0.97606 0.27747 0.99805 0.0
C219 C 0.91653 0.25788 0.21509 0.0
C220 C 0.88506 0.24286 0.14521 0.0
H221 H 0.99251 0.29272 0.26197 0.0
H222 H 0.90048 0.25297 0.27611 0.0
C223 C 0.90748 0.24996 0.06723 0.0
C224 C 0.65314 0.9288 0.16763 0.0
C225 C 0.65268 0.91405 0.08581 0.0
H226 H 0.65833 0.98644 0.24904 0.0
C227 C 0.6615 0.94927 0.02249 0.0
H228 H 0.64595 0.90241 0.21764 0.0
C229 C 0.66969 0.99784 0.04054 0.0
C230 C 0.66755 0.01158 0.12211 0.0
H231 H 0.66121 0.9389 0.95878 0.0
H232 H 0.67557 0.02384 0.99051 0.0
C233 C 0.65978 0.97675 0.18547 0.0
C234 C 0.78088 0.67447 0.02777 0.0
C235 C 0.7878 0.65784 0.10485 0.0
H236 H 0.75145 0.715 0.96114 0.0
C237 C 0.77147 0.67203 0.17569 0.0
H238 H 0.79326 0.66447 0.97209 0.0
C239 C 0.74792 0.70129 0.16961 0.0
C240 C 0.73998 0.71704 0.09248 0.0
H241 H 0.7763 0.66005 0.23621 0.0
H242 H 0.73467 0.71031 0.22532 0.0
C243 C 0.75726 0.70378 0.02166 0.0
C244 C 0.11404 0.69829 0.13632 0.0
C245 C 0.12387 0.74726 0.11624 0.0
H246 H 0.05853 0.62212 0.16753 0.0
C247 C 0.08373 0.75752 0.11643 0.0
H248 H 0.14449 0.68953 0.13641 0.0
C249 C 0.03394 0.71841 0.13239 0.0
C250 C 0.02396 0.66894 0.15053 0.0
H251 H 0.09049 0.79498 0.10047 0.0
H252 H 1.00319 0.72661 0.12902 0.0
C253 C 0.06482 0.65976 0.15438 0.0
C254 C 0.34128 0.05499 0.19496 0.0
C255 C 0.32871 0.03478 0.11528 0.0
H256 H 0.37956 0.12167 0.26902 0.0
C257 C 0.34653 0.06826 0.04766 0.0
H258 H 0.32872 0.03033 0.24838 0.0
C259 C 0.37643 0.12065 0.05944 0.0
C260 C 0.38871 0.14082 0.13913 0.0
H261 H 0.33811 0.05398 0.98536 0.0
H262 H 0.38945 0.14535 1.00607 0.0
C263 C 0.37074 0.10739 0.20674 0.0
C264 C 0.13155 0.37717 0.59166 0.0
C265 C 0.17087 0.40508 0.64807 0.0
H266 H 0.10399 0.37141 0.46874 0.0
C267 C 0.21432 0.44934 0.62051 0.0
H268 H 0.09749 0.34298 0.61073 0.0
C269 C 0.21796 0.4656 0.53923 0.0
C270 C 0.17872 0.43774 0.48294 0.0
H271 H 0.24623 0.47115 0.66083 0.0
H272 H 0.25214 0.49968 0.52008 0.0
C273 C 0.13537 0.39333 0.51003 0.0
C274 C 0.64765 0.1573 0.62608 0.0
C275 C 0.67749 0.13587 0.60422 0.0
H276 H 0.62241 0.18728 0.72161 0.0
C277 C 0.70307 0.12573 0.66735 0.0
H278 H 0.6279 0.16648 0.57976 0.0
C279 C 0.70068 0.13841 0.74919 0.0
C280 C 0.67232 0.16158 0.7711 0.0
H281 H 0.72624 0.10891 0.65338 0.0
H282 H 0.72256 0.13113 0.79392 0.0
C283 C 0.64504 0.16982 0.70816 0.0
C284 C 0.57852 0.71887 0.60742 0.0
C285 C 0.62663 0.75965 0.62755 0.0
H286 H 0.52538 0.67774 0.51211 0.0
C287 C 0.65999 0.78817 0.5638 0.0
H288 H 0.55241 0.69504 0.65479 0.0
C289 C 0.64461 0.77802 0.48183 0.0
C290 C 0.59562 0.73871 0.46186 0.0
H291 H 0.69732 0.81986 0.57729 0.0
H292 H 0.67039 0.80264 0.43483 0.0
C293 C 0.56316 0.70867 0.5255 0.0
C294 C 0.87999 0.497 0.69027 0.0
C295 C 0.87441 0.52991 0.74458 0.0
H296 H 0.88103 0.47492 0.56618 0.0
C297 C 0.86273 0.56542 0.71136 0.0
H298 H 0.88857 0.46875 0.71362 0.0
C299 C 0.85875 0.56925 0.62632 0.0
C300 C 0.86652 0.53791 0.57134 0.0
H301 H 0.85899 0.59208 0.7503 0.0
H302 H 0.85117 0.59837 0.60395 0.0
C303 C 0.87599 0.50079 0.60495 0.0
C304 C 0.24349 0.85412 0.48709 0.0
C305 C 0.28309 0.84482 0.46731 0.0
H306 H 0.2003 0.86339 0.58209 0.0
C307 C 0.3108 0.83917 0.53181 0.0
H308 H 0.22046 0.85759 0.43955 0.0
C309 C 0.29893 0.8421 0.61385 0.0
C310 C 0.25864 0.85033 0.63369 0.0
H311 H 0.34184 0.83239 0.51895 0.0
H312 H 0.32179 0.83833 0.66138 0.0
C313 C 0.2316 0.85703 0.5692 0.0
C314 C 0.49519 0.30916 0.66685 0.0
C315 C 0.50068 0.34792 0.61251 0.0
H316 H 0.49554 0.28574 0.79076 0.0
C317 C 0.51392 0.39537 0.64576 0.0
H318 H 0.4855 0.27211 0.64363 0.0
C319 C 0.51944 0.40316 0.73079 0.0
C320 C 0.5117 0.36377 0.78584 0.0
H321 H 0.5178 0.42605 0.60691 0.0
H322 H 0.52818 0.44009 0.75321 0.0
C323 C 0.50068 0.31692 0.75208 0.0
C324 C 0.21415 0.62598 0.89125 0.0
C325 C 0.24597 0.65579 0.95539 0.0
H326 H 0.16428 0.55019 0.84866 0.0
C327 C 0.2621 0.63323 0.01442 0.0
H328 H 0.201 0.64256 0.84518 0.0
C329 C 0.24173 0.58087 0.01558 0.0
C330 C 0.20529 0.55009 0.95737 0.0
H331 H 0.28677 0.65546 0.06433 0.0
H332 H 0.24962 0.5643 0.06839 0.0
C333 C 0.19346 0.57321 0.89279 0.0
C334 C 0.55192 0.24498 0.32249 0.0
C335 C 0.54357 0.26008 0.24476 0.0
H336 H 0.59225 0.21556 0.39016 0.0
C337 C 0.5536 0.23998 0.17459 0.0
H338 H 0.54485 0.2603 0.37773 0.0
C339 C 0.57971 0.21295 0.18203 0.0
C340 C 0.5969 0.20669 0.25946 0.0
H341 H 0.54832 0.25149 0.11395 0.0
H342 H 0.59262 0.2036 0.12647 0.0
C343 C 0.57933 0.21943 0.32985 0.0
C344 C 0.39503 0.58137 0.88893 0.0
C345 C 0.36579 0.58251 0.95477 0.0
H346 H 0.47042 0.61089 0.84116 0.0
C347 C 0.38751 0.62314 0.00991 0.0
H348 H 0.379 0.55029 0.84558 0.0
C349 C 0.43921 0.65819 1.00615 0.0
C350 C 0.47014 0.65332 0.9472 0.0
H351 H 0.36561 0.62503 0.06086 0.0
H352 H 0.45584 0.68413 0.057 0.0
C353 C 0.4472 0.61644 0.88566 0.0
C354 C 0.80609 0.35802 0.10153 0.0
C355 C 0.8196 0.39594 0.16117 0.0
H356 H 0.76718 0.27849 0.07741 0.0
C357 C 0.81734 0.38306 0.24435 0.0
H358 H 0.80781 0.36733 0.03678 0.0
C359 C 0.79349 0.33194 0.26749 0.0
C360 C 0.77145 0.29352 0.20772 0.0
H361 H 0.82728 0.4116 0.29141 0.0
H362 H 0.78571 0.32253 0.33215 0.0
C363 C 0.78268 0.30695 0.12479 0.0
C364 C 0.40435 0.76692 0.99351 0.0
C365 C 0.44252 0.78377 0.93371 0.0
H366 H 0.34866 0.77907 0.05059 0.0
C367 C 0.44406 0.81639 0.87094 0.0
H368 H 0.40249 0.74185 0.04262 0.0
C369 C 0.41189 0.83695 0.87456 0.0
C370 C 0.3774 0.82415 0.93985 0.0
H371 H 0.47355 0.83021 0.82454 0.0
H372 H 0.41748 0.86652 0.8314 0.0
C373 C 0.37242 0.78728 0.99691 0.0
C374 C 0.6917 0.46105 0.089 0.0
C375 C 0.7349 0.48445 0.13914 0.0
H376 H 0.6111 0.41345 0.08479 0.0
C377 C 0.72858 0.48875 0.22399 0.0
H378 H 0.69549 0.45637 0.02387 0.0
C379 C 0.68013 0.46292 0.2595 0.0
C380 C 0.63739 0.43408 0.21025 0.0
H381 H 0.76122 0.50569 0.26445 0.0
H382 H 0.67664 0.46138 0.32587 0.0
C383 C 0.6433 0.43612 0.12424 0.0
C384 C 0.97472 0.40594 0.11469 0.0
C385 C 0.98016 0.43736 0.18154 0.0
H386 H 1.01306 0.386 0.02511 0.0
C387 C 0.02669 0.462 0.22352 0.0
H388 H 0.93914 0.38639 0.0814 0.0
C389 C 0.06898 0.46107 0.19162 0.0
C390 C 0.06477 0.43488 0.1185 0.0
H391 H 0.03207 0.48695 0.27454 0.0
H392 H 0.1058 0.48557 0.2186 0.0
C393 C 1.01691 0.40537 0.08271 0.0
C394 C 0.4622 0.04921 0.11234 0.0
C395 C 0.48162 0.04059 0.18532 0.0
H396 H 0.41082 0.01536 0.01169 0.0
C397 C 0.45484 0.99295 0.22394 0.0
H398 H 0.48166 0.08577 0.08175 0.0
C399 C 0.41349 0.95281 0.18416 0.0
C400 C 0.39837 0.96022 0.10618 0.0
H401 H 0.46904 0.98517 0.28002 0.0
H402 H 0.39732 0.91512 0.21008 0.0
C403 C 0.42145 1.00908 0.0724 0.0
C404 C 0.61757 0.58135 0.15026 0.0
C405 C 0.58112 0.55433 0.21145 0.0
H406 H 0.64064 0.63625 0.05356 0.0
C407 C 0.54931 0.57263 0.23765 0.0
H408 H 0.64267 0.56817 0.12873 0.0
C409 C 0.54949 0.61306 0.19568 0.0
C410 C 0.5819 0.63598 0.12807 0.0
H411 H 0.52048 0.55231 0.2839 0.0
H412 H 0.52057 0.6226 0.21036 0.0
C413 C 0.6172 0.6211 0.10788 0.0
loop_
_geom_bond_atom_site_label_1
_geom_bond_atom_site_label_2
_geom_bond_distance
_geom_bond_site_symmetry_2
_ccdc_geom_bond_type
Zn0 N4 2.020 1_556 S
Zn0 O8 2.019 . S
Zn0 N10 2.119 . S
Zn0 O18 1.975 1_556 S
C1 N2 1.334 . S
C1 N5 1.336 . S
N2 C1 1.334 . S
N2 C3 1.334 . S
C3 N2 1.334 . S
C3 N4 1.336 . S
N4 Zn0 2.020 1_554 S
N4 C3 1.336 . S
N4 N5 1.354 . S
N5 C1 1.336 . S
N5 N4 1.354 . S
N5 Zn9 2.020 . S
C6 O7 1.244 . S
C6 O30 1.257 . S
O7 C6 1.244 . S
O8 Zn0 2.019 . S
O8 C28 1.257 . S
Zn9 N5 2.020 . S
Zn9 O16 1.975 . S
Zn9 N25 2.119 . S
Zn9 O30 2.019 . S
N10 Zn0 2.119 . S
N10 C12 1.334 . S
N10 C13 1.328 . S
C11 C12 1.391 . S
C11 N14 1.329 . S
C11 H32 0.930 . S
C12 N10 1.334 . S
C12 C11 1.391 . S
C12 H19 0.930 . S
C13 N10 1.328 . S
C13 C15 1.392 . S
C13 H20 0.930 . S
N14 C11 1.329 . S
N14 C15 1.331 . S
C15 C13 1.392 . S
C15 N14 1.331 . S
O16 Zn9 1.975 . S
O16 C17 1.252 . S
C17 O16 1.252 . S
C17 O18 1.252 . S
O18 Zn0 1.975 1_554 S
O18 C17 1.252 . S
H19 C12 0.930 . S
H20 C13 0.930 . S
C21 C22 1.392 . S
C21 N25 1.328 . S
C21 H27 0.930 . S
C22 C21 1.392 . S
C22 N26 1.331 . S
C23 C24 1.391 . S
C23 N26 1.329 . S
C23 H33 0.930 . S
C24 C23 1.391 . S
C24 N25 1.334 . S
C24 H31 0.930 . S
N25 Zn9 2.119 . S
N25 C21 1.328 . S
N25 C24 1.334 . S
N26 C22 1.331 . S
N26 C23 1.329 . S
H27 C21 0.930 . S
C28 O8 1.257 . S
C28 O29 1.244 1_556 S
O29 C28 1.244 1_554 S
O30 C6 1.257 . S
O30 Zn9 2.019 . S
H31 C24 0.930 . S
H32 C11 0.930 . S
H33 C23 0.930 . S
Zn34 N38 2.020 . S
Zn34 O42 2.019 . S
Zn34 N44 2.119 . S
Zn34 O52 1.975 . S
C35 N36 1.334 . S
C35 N39 1.336 . S
N36 C35 1.334 . S
N36 C37 1.334 . S
C37 N36 1.334 . S
C37 N38 1.336 . S
N38 Zn34 2.020 . S
N38 C37 1.336 . S
N38 N39 1.354 . S
N39 C35 1.336 . S
N39 N38 1.354 . S
N39 Zn43 2.020 . S
C40 O41 1.244 . S
C40 O64 1.257 . S
O41 C40 1.244 . S
O42 Zn34 2.019 . S
O42 C62 1.257 . S
Zn43 N39 2.020 . S
Zn43 O50 1.975 . S
Zn43 N59 2.119 1_554 S
Zn43 O64 2.019 . S
N44 Zn34 2.119 . S
N44 C46 1.334 . S
N44 C47 1.328 . S
C45 C46 1.391 . S
C45 N48 1.329 . S
C45 H66 0.930 . S
C46 N44 1.334 . S
C46 C45 1.391 . S
C46 H53 0.930 . S
C47 N44 1.328 . S
C47 C49 1.392 . S
C47 H54 0.930 . S
N48 C45 1.329 . S
N48 C49 1.331 . S
C49 C47 1.392 . S
C49 N48 1.331 . S
O50 Zn43 1.975 . S
O50 C51 1.252 . S
C51 O50 1.252 . S
C51 O52 1.252 . S
O52 Zn34 1.975 . S
O52 C51 1.252 . S
H53 C46 0.930 . S
H54 C47 0.930 . S
C55 C56 1.392 . S
C55 N59 1.328 . S
C55 H61 0.930 . S
C56 C55 1.392 . S
C56 N60 1.331 . S
C57 C58 1.391 . S
C57 N60 1.329 . S
C57 H67 0.930 . S
C58 C57 1.391 . S
C58 N59 1.334 . S
C58 H65 0.930 1_556 S
N59 Zn43 2.119 1_556 S
N59 C55 1.328 . S
N59 C58 1.334 . S
N60 C56 1.331 . S
N60 C57 1.329 . S
H61 C55 0.930 . S
C62 O42 1.257 . S
C62 O63 1.244 . S
O63 C62 1.244 . S
O64 C40 1.257 . S
O64 Zn43 2.019 . S
H65 C58 0.930 1_554 S
H66 C45 0.930 . S
H67 C57 0.930 . S
Zn68 N72 2.020 . S
Zn68 O76 2.019 . S
Zn68 N78 2.119 . S
Zn68 O86 1.975 . S
C69 N70 1.334 . S
C69 N73 1.336 . S
N70 C69 1.334 . S
N70 C71 1.334 . S
C71 N70 1.334 . S
C71 N72 1.336 . S
N72 Zn68 2.020 . S
N72 C71 1.336 . S
N72 N73 1.354 . S
N73 C69 1.336 . S
N73 N72 1.354 . S
N73 Zn77 2.020 1_554 S
C74 O75 1.244 1_556 S
C74 O98 1.257 . S
O75 C74 1.244 1_554 S
O76 Zn68 2.019 . S
O76 C96 1.257 . S
Zn77 N73 2.020 1_556 S
Zn77 O84 1.975 1_556 S
Zn77 N93 2.119 . S
Zn77 O98 2.019 . S
N78 Zn68 2.119 . S
N78 C80 1.334 . S
N78 C81 1.328 . S
C79 C80 1.391 . S
C79 N82 1.329 . S
C79 H100 0.930 . S
C80 N78 1.334 . S
C80 C79 1.391 . S
C80 H87 0.930 . S
C81 N78 1.328 . S
C81 C83 1.392 . S
C81 H88 0.930 . S
N82 C79 1.329 . S
N82 C83 1.331 . S
C83 C81 1.392 . S
C83 N82 1.331 . S
O84 Zn77 1.975 1_554 S
O84 C85 1.252 . S
C85 O84 1.252 . S
C85 O86 1.252 . S
O86 Zn68 1.975 . S
O86 C85 1.252 . S
H87 C80 0.930 . S
H88 C81 0.930 . S
C89 C90 1.392 . S
C89 N93 1.328 . S
C89 H95 0.930 . S
C90 C89 1.392 . S
C90 N94 1.331 . S
C91 C92 1.391 . S
C91 N94 1.329 . S
C91 H101 0.930 . S
C92 C91 1.391 . S
C92 N93 1.334 . S
C92 H99 0.930 . S
N93 Zn77 2.119 . S
N93 C89 1.328 . S
N93 C92 1.334 . S
N94 C90 1.331 . S
N94 C91 1.329 . S
H95 C89 0.930 . S
C96 O76 1.257 . S
C96 O97 1.244 . S
O97 C96 1.244 . S
O98 C74 1.257 . S
O98 Zn77 2.019 . S
H99 C92 0.930 . S
H100 C79 0.930 . S
H101 C91 0.930 . S
Zn102 N106 2.020 . S
Zn102 O110 2.019 . S
Zn102 N112 2.119 . S
Zn102 O120 1.975 . S
C103 N104 1.334 . S
C103 N107 1.336 . S
N104 C103 1.334 . S
N104 C105 1.334 . S
C105 N104 1.334 . S
C105 N106 1.336 . S
N106 Zn102 2.020 . S
N106 C105 1.336 . S
N106 N107 1.354 . S
N107 C103 1.336 . S
N107 N106 1.354 . S
N107 Zn111 2.020 . S
C108 O109 1.244 . S
C108 O132 1.257 . S
O109 C108 1.244 . S
O110 Zn102 2.019 . S
O110 C130 1.257 . S
Zn111 N107 2.020 . S
Zn111 O118 1.975 . S
Zn111 N127 2.119 1_554 S
Zn111 O132 2.019 . S
N112 Zn102 2.119 . S
N112 C114 1.334 . S
N112 C115 1.328 . S
C113 C114 1.391 . S
C113 N116 1.329 . S
C113 H134 0.930 . S
C114 N112 1.334 . S
C114 C113 1.391 . S
C114 H121 0.930 . S
C115 N112 1.328 . S
C115 C117 1.392 . S
C115 H122 0.930 . S
N116 C113 1.329 . S
N116 C117 1.331 . S
C117 C115 1.392 . S
C117 N116 1.331 . S
O118 Zn111 1.975 . S
O118 C119 1.252 . S
C119 O118 1.252 . S
C119 O120 1.252 . S
O120 Zn102 1.975 . S
O120 C119 1.252 . S
H121 C114 0.930 . S
H122 C115 0.930 . S
C123 C124 1.392 . S
C123 N127 1.328 . S
C123 H129 0.930 . S
C124 C123 1.392 . S
C124 N128 1.331 . S
C125 C126 1.391 . S
C125 N128 1.329 . S
C125 H135 0.930 . S
C126 C125 1.391 . S
C126 N127 1.334 . S
C126 H133 0.930 1_556 S
N127 Zn111 2.119 1_556 S
N127 C123 1.328 . S
N127 C126 1.334 . S
N128 C124 1.331 . S
N128 C125 1.329 . S
H129 C123 0.930 . S
C130 O110 1.257 . S
C130 O131 1.244 . S
O131 C130 1.244 . S
O132 C108 1.257 . S
O132 Zn111 2.019 . S
H133 C126 0.930 1_554 S
H134 C113 0.930 . S
H135 C125 0.930 . S
Zn136 N140 2.020 . S
Zn136 O144 2.019 . S
Zn136 N146 2.119 . S
Zn136 O154 1.975 . S
C137 N138 1.334 . S
C137 N141 1.336 . S
N138 C137 1.334 . S
N138 C139 1.334 . S
C139 N138 1.334 . S
C139 N140 1.336 . S
N140 Zn136 2.020 . S
N140 C139 1.336 . S
N140 N141 1.354 . S
N141 C137 1.336 . S
N141 N140 1.354 . S
N141 Zn145 2.020 1_554 S
C142 O143 1.244 1_556 S
C142 O166 1.257 . S
O143 C142 1.244 1_554 S
O144 Zn136 2.019 . S
O144 C164 1.257 . S
Zn145 N141 2.020 1_556 S
Zn145 O152 1.975 1_556 S
Zn145 N161 2.119 . S
Zn145 O166 2.019 . S
N146 Zn136 2.119 . S
N146 C148 1.334 . S
N146 C149 1.328 . S
C147 C148 1.391 . S
C147 N150 1.329 . S
C147 H168 0.930 . S
C148 N146 1.334 . S
C148 C147 1.391 . S
C148 H155 0.930 . S
C149 N146 1.328 . S
C149 C151 1.392 . S
C149 H156 0.930 . S
N150 C147 1.329 . S
N150 C151 1.331 . S
C151 C149 1.392 . S
C151 N150 1.331 . S
O152 Zn145 1.975 1_554 S
O152 C153 1.252 . S
C153 O152 1.252 . S
C153 O154 1.252 . S
O154 Zn136 1.975 . S
O154 C153 1.252 . S
H155 C148 0.930 . S
H156 C149 0.930 . S
C157 C158 1.392 . S
C157 N161 1.328 . S
C157 H163 0.930 . S
C158 C157 1.392 . S
C158 N162 1.331 . S
C159 C160 1.391 . S
C159 N162 1.329 . S
C159 H169 0.930 . S
C160 C159 1.391 . S
C160 N161 1.334 . S
C160 H167 0.930 . S
N161 Zn145 2.119 . S
N161 C157 1.328 . S
N161 C160 1.334 . S
N162 C158 1.331 . S
N162 C159 1.329 . S
H163 C157 0.930 . S
C164 O144 1.257 . S
C164 O165 1.244 . S
O165 C164 1.244 . S
O166 C142 1.257 . S
O166 Zn145 2.019 . S
H167 C160 0.930 . S
H168 C147 0.930 . S
H169 C159 0.930 . S
Zn170 N174 2.020 . S
Zn170 O178 2.019 . S
Zn170 N180 2.119 1_554 S
Zn170 O188 1.975 . S
C171 N172 1.334 . S
C171 N175 1.336 . S
N172 C171 1.334 . S
N172 C173 1.334 . S
C173 N172 1.334 . S
C173 N174 1.336 . S
N174 Zn170 2.020 . S
N174 C173 1.336 . S
N174 N175 1.354 . S
N175 C171 1.336 . S
N175 N174 1.354 . S
N175 Zn179 2.020 . S
C176 O177 1.244 . S
C176 O200 1.257 . S
O177 C176 1.244 . S
O178 Zn170 2.019 . S
O178 C198 1.257 . S
Zn179 N175 2.020 . S
Zn179 O186 1.975 . S
Zn179 N195 2.119 . S
Zn179 O200 2.019 . S
N180 Zn170 2.119 1_556 S
N180 C182 1.334 . S
N180 C183 1.328 . S
C181 C182 1.391 . S
C181 N184 1.329 . S
C181 H202 0.930 . S
C182 N180 1.334 . S
C182 C181 1.391 . S
C182 H189 0.930 1_556 S
C183 N180 1.328 . S
C183 C185 1.392 . S
C183 H190 0.930 . S
N184 C181 1.329 . S
N184 C185 1.331 . S
C185 C183 1.392 . S
C185 N184 1.331 . S
O186 Zn179 1.975 . S
O186 C187 1.252 . S
C187 O186 1.252 . S
C187 O188 1.252 . S
O188 Zn170 1.975 . S
O188 C187 1.252 . S
H189 C182 0.930 1_554 S
H190 C183 0.930 . S
C191 C192 1.392 . S
C191 N195 1.328 . S
C191 H197 0.930 . S
C192 C191 1.392 . S
C192 N196 1.331 . S
C193 C194 1.391 . S
C193 N196 1.329 . S
C193 H203 0.930 . S
C194 C193 1.391 . S
C194 N195 1.334 . S
C194 H201 0.930 . S
N195 Zn179 2.119 . S
N195 C191 1.328 . S
N195 C194 1.334 . S
N196 C192 1.331 . S
N196 C193 1.329 . S
H197 C191 0.930 . S
C198 O178 1.257 . S
C198 O199 1.244 . S
O199 C198 1.244 . S
O200 C176 1.257 . S
O200 Zn179 2.019 . S
H201 C194 0.930 . S
H202 C181 0.930 . S
H203 C193 0.930 . S
C204 C205 1.387 . S
C204 H208 0.950 . S
C204 C213 1.390 . S
C205 C204 1.387 . S
C205 C207 1.387 . S
H206 C213 0.950 . S
C207 C205 1.387 . S
C207 C209 1.390 . S
C207 H211 0.950 . S
H208 C204 0.950 . S
C209 C207 1.390 . S
C209 C210 1.387 . S
C209 H212 0.950 . S
C210 C209 1.387 . S
C210 C213 1.387 . S
H211 C207 0.950 . S
H212 C209 0.950 . S
C213 C204 1.390 . S
C213 H206 0.950 . S
C213 C210 1.387 . S
C214 C215 1.387 . S
C214 H218 0.950 1_554 S
C214 C223 1.390 . S
C215 C214 1.387 . S
C215 C217 1.387 . S
H216 C223 0.950 . S
C217 C215 1.387 . S
C217 C219 1.390 . S
C217 H221 0.950 . S
H218 C214 0.950 1_556 S
C219 C217 1.390 . S
C219 C220 1.387 . S
C219 H222 0.950 . S
C220 C219 1.387 . S
C220 C223 1.387 . S
H221 C217 0.950 . S
H222 C219 0.950 . S
C223 C214 1.390 . S
C223 H216 0.950 . S
C223 C220 1.387 . S
C224 C225 1.387 . S
C224 H228 0.950 . S
C224 C233 1.390 . S
C225 C224 1.387 . S
C225 C227 1.387 . S
H226 C233 0.950 . S
C227 C225 1.387 . S
C227 C229 1.390 . S
C227 H231 0.950 1_554 S
H228 C224 0.950 . S
C229 C227 1.390 . S
C229 C230 1.387 . S
C229 H232 0.950 1_565 S
C230 C229 1.387 . S
C230 C233 1.387 . S
H231 C227 0.950 1_556 S
H232 C229 0.950 1_545 S
C233 C224 1.390 . S
C233 H226 0.950 . S
C233 C230 1.387 . S
C234 C235 1.387 . S
C234 H238 0.950 1_554 S
C234 C243 1.390 . S
C235 C234 1.387 . S
C235 C237 1.387 . S
H236 C243 0.950 1_556 S
C237 C235 1.387 . S
C237 C239 1.390 . S
C237 H241 0.950 . S
H238 C234 0.950 1_556 S
C239 C237 1.390 . S
C239 C240 1.387 . S
C239 H242 0.950 . S
C240 C239 1.387 . S
C240 C243 1.387 . S
H241 C237 0.950 . S
H242 C239 0.950 . S
C243 C234 1.390 . S
C243 H236 0.950 1_554 S
C243 C240 1.387 . S
C244 C245 1.387 . S
C244 H248 0.950 1_554 S
C244 C253 1.390 . S
C245 C244 1.387 . S
C245 C247 1.387 . S
H246 C253 0.950 . S
C247 C245 1.387 . S
C247 C249 1.390 . S
C247 H251 0.950 . S
H248 C244 0.950 1_556 S
C249 C247 1.390 . S
C249 C250 1.387 . S
C249 H252 0.950 . S
C250 C249 1.387 . S
C250 C253 1.387 . S
H251 C247 0.950 . S
H252 C249 0.950 . S
C253 C244 1.390 . S
C253 H246 0.950 . S
C253 C250 1.387 . S
C254 C255 1.387 . S
C254 H258 0.950 . S
C254 C263 1.390 . S
C255 C254 1.387 . S
C255 C257 1.387 . S
H256 C263 0.950 . S
C257 C255 1.387 . S
C257 C259 1.390 . S
C257 H261 0.950 1_554 S
H258 C254 0.950 . S
C259 C257 1.390 . S
C259 C260 1.387 . S
C259 H262 0.950 . S
C260 C259 1.387 . S
C260 C263 1.387 . S
H261 C257 0.950 1_556 S
H262 C259 0.950 . S
C263 C254 1.390 . S
C263 H256 0.950 . S
C263 C260 1.387 . S
C264 C265 1.387 . S
C264 H268 0.950 . S
C264 C273 1.390 . S
C265 C264 1.387 . S
C265 C267 1.387 . S
H266 C273 0.950 . S
C267 C265 1.387 . S
C267 C269 1.390 . S
C267 H271 0.950 . S
H268 C264 0.950 . S
C269 C267 1.390 . S
C269 C270 1.387 . S
C269 H272 0.950 . S
C270 C269 1.387 . S
C270 C273 1.387 . S
H271 C267 0.950 . S
H272 C269 0.950 . S
C273 C264 1.390 . S
C273 H266 0.950 . S
C273 C270 1.387 . S
C274 C275 1.387 . S
C274 H278 0.950 . S
C274 C283 1.390 . S
C275 C274 1.387 . S
C275 C277 1.387 . S
H276 C283 0.950 . S
C277 C275 1.387 . S
C277 C279 1.390 . S
C277 H281 0.950 . S
H278 C274 0.950 . S
C279 C277 1.390 . S
C279 C280 1.387 . S
C279 H282 0.950 . S
C280 C279 1.387 . S
C280 C283 1.387 . S
H281 C277 0.950 . S
H282 C279 0.950 . S
C283 C274 1.390 . S
C283 H276 0.950 . S
C283 C280 1.387 . S
C284 C285 1.387 . S
C284 H288 0.950 . S
C284 C293 1.390 . S
C285 C284 1.387 . S
C285 C287 1.387 . S
H286 C293 0.950 . S
C287 C285 1.387 . S
C287 C289 1.390 . S
C287 H291 0.950 . S
H288 C284 0.950 . S
C289 C287 1.390 . S
C289 C290 1.387 . S
C289 H292 0.950 . S
C290 C289 1.387 . S
C290 C293 1.387 . S
H291 C287 0.950 . S
H292 C289 0.950 . S
C293 C284 1.390 . S
C293 H286 0.950 . S
C293 C290 1.387 . S
C294 C295 1.387 . S
C294 H298 0.950 . S
C294 C303 1.390 . S
C295 C294 1.387 . S
C295 C297 1.387 . S
H296 C303 0.950 . S
C297 C295 1.387 . S
C297 C299 1.390 . S
C297 H301 0.950 . S
H298 C294 0.950 . S
C299 C297 1.390 . S
C299 C300 1.387 . S
C299 H302 0.950 . S
C300 C299 1.387 . S
C300 C303 1.387 . S
H301 C297 0.950 . S
H302 C299 0.950 . S
C303 C294 1.390 . S
C303 H296 0.950 . S
C303 C300 1.387 . S
C304 C305 1.387 . S
C304 H308 0.950 . S
C304 C313 1.390 . S
C305 C304 1.387 . S
C305 C307 1.387 . S
H306 C313 0.950 . S
C307 C305 1.387 . S
C307 C309 1.390 . S
C307 H311 0.950 . S
H308 C304 0.950 . S
C309 C307 1.390 . S
C309 C310 1.387 . S
C309 H312 0.950 . S
C310 C309 1.387 . S
C310 C313 1.387 . S
H311 C307 0.950 . S
H312 C309 0.950 . S
C313 C304 1.390 . S
C313 H306 0.950 . S
C313 C310 1.387 . S
C314 C315 1.387 . S
C314 H318 0.950 . S
C314 C323 1.390 . S
C315 C314 1.387 . S
C315 C317 1.387 . S
H316 C323 0.950 . S
C317 C315 1.387 . S
C317 C319 1.390 . S
C317 H321 0.950 . S
H318 C314 0.950 . S
C319 C317 1.390 . S
C319 C320 1.387 . S
C319 H322 0.950 . S
C320 C319 1.387 . S
C320 C323 1.387 . S
H321 C317 0.950 . S
H322 C319 0.950 . S
C323 C314 1.390 . S
C323 H316 0.950 . S
C323 C320 1.387 . S
C324 C325 1.387 . S
C324 H328 0.950 . S
C324 C333 1.390 . S
C325 C324 1.387 . S
C325 C327 1.387 1_556 S
H326 C333 0.950 . S
C327 C325 1.387 1_554 S
C327 C329 1.390 . S
C327 H331 0.950 . S
H328 C324 0.950 . S
C329 C327 1.390 . S
C329 C330 1.387 1_554 S
C329 H332 0.950 . S
C330 C329 1.387 1_556 S
C330 C333 1.387 . S
H331 C327 0.950 . S
H332 C329 0.950 . S
C333 C324 1.390 . S
C333 H326 0.950 . S
C333 C330 1.387 . S
C334 C335 1.387 . S
C334 H338 0.950 . S
C334 C343 1.390 . S
C335 C334 1.387 . S
C335 C337 1.387 . S
H336 C343 0.950 . S
C337 C335 1.387 . S
C337 C339 1.390 . S
C337 H341 0.950 . S
H338 C334 0.950 . S
C339 C337 1.390 . S
C339 C340 1.387 . S
C339 H342 0.950 . S
C340 C339 1.387 . S
C340 C343 1.387 . S
H341 C337 0.950 . S
H342 C339 0.950 . S
C343 C334 1.390 . S
C343 H336 0.950 . S
C343 C340 1.387 . S
C344 C345 1.387 . S
C344 H348 0.950 . S
C344 C353 1.390 . S
C345 C344 1.387 . S
C345 C347 1.387 1_556 S
H346 C353 0.950 . S
C347 C345 1.387 1_554 S
C347 C349 1.390 . S
C347 H351 0.950 . S
H348 C344 0.950 . S
C349 C347 1.390 . S
C349 C350 1.387 1_554 S
C349 H352 0.950 . S
C350 C349 1.387 1_556 S
C350 C353 1.387 . S
H351 C347 0.950 . S
H352 C349 0.950 . S
C353 C344 1.390 . S
C353 H346 0.950 . S
C353 C350 1.387 . S
C354 C355 1.387 . S
C354 H358 0.950 . S
C354 C363 1.390 . S
C355 C354 1.387 . S
C355 C357 1.387 . S
H356 C363 0.950 . S
C357 C355 1.387 . S
C357 C359 1.390 . S
C357 H361 0.950 . S
H358 C354 0.950 . S
C359 C357 1.390 . S
C359 C360 1.387 . S
C359 H362 0.950 . S
C360 C359 1.387 . S
C360 C363 1.387 . S
H361 C357 0.950 . S
H362 C359 0.950 . S
C363 C354 1.390 . S
C363 H356 0.950 . S
C363 C360 1.387 . S
C364 C365 1.387 . S
C364 H368 0.950 . S
C364 C373 1.390 . S
C365 C364 1.387 . S
C365 C367 1.387 . S
H366 C373 0.950 . S
C367 C365 1.387 . S
C367 C369 1.390 . S
C367 H371 0.950 . S
H368 C364 0.950 . S
C369 C367 1.390 . S
C369 C370 1.387 . S
C369 H372 0.950 . S
C370 C369 1.387 . S
C370 C373 1.387 . S
H371 C367 0.950 . S
H372 C369 0.950 . S
C373 C364 1.390 . S
C373 H366 0.950 . S
C373 C370 1.387 . S
C374 C375 1.387 . S
C374 H378 0.950 . S
C374 C383 1.390 . S
C375 C374 1.387 . S
C375 C377 1.387 . S
H376 C383 0.950 . S
C377 C375 1.387 . S
C377 C379 1.390 . S
C377 H381 0.950 . S
H378 C374 0.950 . S
C379 C377 1.390 . S
C379 C380 1.387 . S
C379 H382 0.950 . S
C380 C379 1.387 . S
C380 C383 1.387 . S
H381 C377 0.950 . S
H382 C379 0.950 . S
C383 C374 1.390 . S
C383 H376 0.950 . S
C383 C380 1.387 . S
C384 C385 1.387 1_655 S
C384 H388 0.950 . S
C384 C393 1.390 1_655 S
C385 C384 1.387 1_455 S
C385 C387 1.387 . S
H386 C393 0.950 . S
C387 C385 1.387 . S
C387 C389 1.390 . S
C387 H391 0.950 . S
H388 C384 0.950 . S
C389 C387 1.390 . S
C389 C390 1.387 . S
C389 H392 0.950 . S
C390 C389 1.387 . S
C390 C393 1.387 . S
H391 C387 0.950 . S
H392 C389 0.950 . S
C393 C384 1.390 1_455 S
C393 H386 0.950 . S
C393 C390 1.387 . S
C394 C395 1.387 . S
C394 H398 0.950 1_565 S
C394 C403 1.390 . S
C395 C394 1.387 . S
C395 C397 1.387 . S
H396 C403 0.950 . S
C397 C395 1.387 . S
C397 C399 1.390 . S
C397 H401 0.950 . S
H398 C394 0.950 1_545 S
C399 C397 1.390 . S
C399 C400 1.387 . S
C399 H402 0.950 . S
C400 C399 1.387 . S
C400 C403 1.387 . S
H401 C397 0.950 . S
H402 C399 0.950 . S
C403 C394 1.390 . S
C403 H396 0.950 . S
C403 C400 1.387 . S
C404 C405 1.387 . S
C404 H408 0.950 . S
C404 C413 1.390 . S
C405 C404 1.387 . S
C405 C407 1.387 . S
H406 C413 0.950 . S
C407 C405 1.387 . S
C407 C409 1.390 . S
C407 H411 0.950 . S
H408 C404 0.950 . S
C409 C407 1.390 . S
C409 C410 1.387 . S
C409 H412 0.950 . S
C410 C409 1.387 . S
C410 C413 1.387 . S
H411 C407 0.950 . S
H412 C409 0.950 . S
C413 C404 1.390 . S
C413 H406 0.950 . S
C413 C410 1.387 . S
C205 C187 1.691 . S
C210 C17 1.625 . S
C215 C6 1.237 1_655 S
C220 C40 1.291 . S
C225 C85 1.624 . S
C230 C51 1.691 1_565 S
C235 C108 1.291 . S
C240 C96 1.237 . S
C245 C153 1.627 . S
C250 C119 1.690 1_455 S
C255 C164 1.241 1_545 S
C260 C198 1.291 . S
C265 C15 1.710 . S
C270 C22 1.713 . S
C275 C49 1.907 . S
C280 C56 1.915 . S
C285 C90 1.709 . S
C290 C83 1.712 . S
C295 C124 1.914 . S
C300 C117 1.906 . S
C305 C151 1.717 . S
C310 C158 1.714 . S
C315 C192 1.908 . S
C320 C185 1.915 . S
C325 C142 1.436 . S
C330 C3 1.273 1_556 S
C335 C173 1.911 . S
C340 C37 1.907 . S
C345 C28 1.437 . S
C350 C69 1.272 1_556 S
C355 C105 1.905 . S
C360 C35 1.912 . S
C365 C74 1.436 . S
C370 C137 1.268 1_556 S
C375 C103 1.915 . S
C380 C171 1.907 . S
C385 C130 1.492 1_455 S
C390 C1 1.410 . S
C395 C62 1.491 1_565 S
C400 C139 1.408 . S
C405 C176 1.491 . S
C410 C71 1.408 . S
