# Generated by pormake.
# Topology wjd, (6)-cn, num edge types: 1
# Building blocks:
#     Node 0, Type 0, BuildingBlock: KUMJIN_clean_sbu_1, # of connection points: 6
#     Node 1, Type 0, BuildingBlock: KUMJIN_clean_sbu_1, # of connection points: 6
#     Node 2, Type 0, BuildingBlock: KUMJIN_clean_sbu_1, # of connection points: 6
#     Node 3, Type 0, BuildingBlock: KUMJIN_clean_sbu_1, # of connection points: 6
#     Node 4, Type 0, BuildingBlock: KUMJIN_clean_sbu_1, # of connection points: 6
#     Node 5, Type 0, BuildingBlock: KUMJIN_clean_sbu_1, # of connection points: 6
#     Node 6, Type 0, BuildingBlock: KUMJIN_clean_sbu_1, # of connection points: 6
#     Node 7, Type 0, BuildingBlock: KUMJIN_clean_sbu_1, # of connection points: 6
#     Node 8, Type 0, BuildingBlock: KUMJIN_clean_sbu_1, # of connection points: 6
#     Node 9, Type 0, BuildingBlock: KUMJIN_clean_sbu_1, # of connection points: 6
#     Node 10, Type 0, BuildingBlock: KUMJIN_clean_sbu_1, # of connection points: 6
#     Node 11, Type 0, BuildingBlock: KUMJIN_clean_sbu_1, # of connection points: 6
#     Edge 12, Type (0, 0), BuildingBlock: TEMPAE_clean_linker_10, # of connection points: 2
#     Edge 13, Type (0, 0), BuildingBlock: TEMPAE_clean_linker_10, # of connection points: 2
#     Edge 14, Type (0, 0), BuildingBlock: TEMPAE_clean_linker_10, # of connection points: 2
#     Edge 15, Type (0, 0), BuildingBlock: TEMPAE_clean_linker_10, # of connection points: 2
#     Edge 16, Type (0, 0), BuildingBlock: TEMPAE_clean_linker_10, # of connection points: 2
#     Edge 17, Type (0, 0), BuildingBlock: TEMPAE_clean_linker_10, # of connection points: 2
#     Edge 18, Type (0, 0), BuildingBlock: TEMPAE_clean_linker_10, # of connection points: 2
#     Edge 19, Type (0, 0), BuildingBlock: TEMPAE_clean_linker_10, # of connection points: 2
#     Edge 20, Type (0, 0), BuildingBlock: TEMPAE_clean_linker_10, # of connection points: 2
#     Edge 21, Type (0, 0), BuildingBlock: TEMPAE_clean_linker_10, # of connection points: 2
#     Edge 22, Type (0, 0), BuildingBlock: TEMPAE_clean_linker_10, # of connection points: 2
#     Edge 23, Type (0, 0), BuildingBlock: TEMPAE_clean_linker_10, # of connection points: 2
#     Edge 24, Type (0, 0), BuildingBlock: TEMPAE_clean_linker_10, # of connection points: 2
#     Edge 25, Type (0, 0), BuildingBlock: TEMPAE_clean_linker_10, # of connection points: 2
#     Edge 26, Type (0, 0), BuildingBlock: TEMPAE_clean_linker_10, # of connection points: 2
#     Edge 27, Type (0, 0), BuildingBlock: TEMPAE_clean_linker_10, # of connection points: 2
#     Edge 28, Type (0, 0), BuildingBlock: TEMPAE_clean_linker_10, # of connection points: 2
#     Edge 29, Type (0, 0), BuildingBlock: TEMPAE_clean_linker_10, # of connection points: 2
#     Edge 30, Type (0, 0), BuildingBlock: TEMPAE_clean_linker_10, # of connection points: 2
#     Edge 31, Type (0, 0), BuildingBlock: TEMPAE_clean_linker_10, # of connection points: 2
#     Edge 32, Type (0, 0), BuildingBlock: TEMPAE_clean_linker_10, # of connection points: 2
#     Edge 33, Type (0, 0), BuildingBlock: TEMPAE_clean_linker_10, # of connection points: 2
#     Edge 34, Type (0, 0), BuildingBlock: TEMPAE_clean_linker_10, # of connection points: 2
#     Edge 35, Type (0, 0), BuildingBlock: TEMPAE_clean_linker_10, # of connection points: 2
#     Edge 36, Type (0, 0), BuildingBlock: TEMPAE_clean_linker_10, # of connection points: 2
#     Edge 37, Type (0, 0), BuildingBlock: TEMPAE_clean_linker_10, # of connection points: 2
#     Edge 38, Type (0, 0), BuildingBlock: TEMPAE_clean_linker_10, # of connection points: 2
#     Edge 39, Type (0, 0), BuildingBlock: TEMPAE_clean_linker_10, # of connection points: 2
#     Edge 40, Type (0, 0), BuildingBlock: TEMPAE_clean_linker_10, # of connection points: 2
#     Edge 41, Type (0, 0), BuildingBlock: TEMPAE_clean_linker_10, # of connection points: 2
#     Edge 42, Type (0, 0), BuildingBlock: TEMPAE_clean_linker_10, # of connection points: 2
#     Edge 43, Type (0, 0), BuildingBlock: TEMPAE_clean_linker_10, # of connection points: 2
#     Edge 44, Type (0, 0), BuildingBlock: TEMPAE_clean_linker_10, # of connection points: 2
#     Edge 45, Type (0, 0), BuildingBlock: TEMPAE_clean_linker_10, # of connection points: 2
#     Edge 46, Type (0, 0), BuildingBlock: TEMPAE_clean_linker_10, # of connection points: 2
#     Edge 47, Type (0, 0), BuildingBlock: TEMPAE_clean_linker_10, # of connection points: 2
# Relax obj value: 0.073
# Max RMSD: 0.186
# Mean RMSD: 0.186
data_MOF--net-wjd--node1-KUMJIN_clean_sbu_1--edge1-TEMPAE_clean_linker_10
_symmetry_space_group_name_H-M    P1
_symmetry_Int_Tables_number       1
_symmetry_cell_setting            triclinic
loop_
_symmetry_equiv_pos_as_xyz
'x, y, z'
_cell_length_a     39.857509
_cell_length_b     39.862168
_cell_length_c     53.508244
_cell_angle_alpha  90.147614
_cell_angle_beta   89.93598
_cell_angle_gamma 120.03582
loop_
_atom_site_label
_atom_site_type_symbol
_atom_site_fract_x
_atom_site_fract_y
_atom_site_fract_z
_atom_type_partial_charge
Eu0 Eu 0.30725 0.09961 0.14333 0.0
C1 C 0.33161 0.24265 0.0785 0.0
N2 N 0.34733 0.21981 0.07394 0.0
C3 C 0.33582 0.22076 0.03003 0.0
C4 C 0.31696 0.25515 0.05883 0.0
C5 C 0.34979 0.2089 0.05012 0.0
C6 C 0.31925 0.2439 0.03439 0.0
C7 C 0.31362 0.27688 0.10832 0.0
C8 C 0.32965 0.25307 0.10299 0.0
C9 C 0.29885 0.2892 0.08881 0.0
C10 C 0.30047 0.27833 0.06414 0.0
Eu11 Eu 0.37033 0.20094 0.10893 0.0
N12 N 0.34388 0.24035 0.12154 0.0
C13 C 0.31373 0.28836 0.13305 0.0
C14 C 0.34702 0.25436 0.14518 0.0
C15 C 0.33118 0.27761 0.15149 0.0
H16 H 0.36312 0.19154 0.04653 0.0
H17 H 0.33333 0.28802 0.17046 0.0
H18 H 0.29855 0.09698 0.20584 0.0
H19 H 0.37163 0.03386 0.08308 0.0
H20 H 0.36334 0.24937 0.15894 0.0
H21 H 0.30178 0.30667 0.13792 0.0
H22 H 0.3432 0.07356 0.0924 0.0
H23 H 0.33795 0.21214 1.01117 0.0
H24 H 0.28647 0.30749 0.09259 0.0
H25 H 0.28905 0.28816 0.04927 0.0
H26 H 0.30996 0.06506 0.24162 0.0
H27 H 0.30841 0.25299 0.01878 0.0
H28 H 0.38669 1.00215 0.1173 0.0
N29 N 0.32171 0.07448 0.17906 0.0
C30 C 0.33819 0.05221 0.17498 0.0
C31 C 0.31865 0.0618 0.22304 0.0
C32 C 0.3467 0.03487 0.19513 0.0
C33 C 0.31198 0.07955 0.20268 0.0
C34 C 0.33665 0.03989 0.21933 0.0
N35 N 0.3384 0.06382 0.1315 0.0
C36 C 0.34754 0.05933 0.10757 0.0
C37 C 0.36451 0.02417 0.1461 0.0
C38 C 0.34669 0.04666 0.15064 0.0
C39 C 0.37316 0.01927 0.12152 0.0
C40 C 0.36465 0.037 0.10219 0.0
H41 H 0.34229 0.02666 0.23523 0.0
H42 H 0.37133 0.99934 0.20586 0.0
H43 H 0.38711 0.99017 0.16294 0.0
O44 O 0.25546 0.04597 0.13019 0.0
O45 O 0.37307 0.12831 0.14656 0.0
O46 O 0.38798 0.15582 0.10809 0.0
O47 O 0.25756 0.06988 0.16739 0.0
O48 O 0.29439 0.10226 0.10219 0.0
O49 O 0.35064 0.14684 0.08242 0.0
O50 O 0.42485 0.25157 0.12267 0.0
O51 O 0.30637 0.17359 0.10496 0.0
O52 O 0.28723 0.14411 0.14277 0.0
O53 O 0.41589 0.23759 0.08292 0.0
O54 O 0.37791 0.19925 0.15259 0.0
O55 O 0.32112 0.14936 0.16945 0.0
C56 C 0.39823 0.14549 0.12848 0.0
C57 C 0.1978 0.01272 0.15696 0.0
C58 C 0.13736 0.95557 0.14559 0.0
C59 C 0.12071 0.95858 0.168 0.0
C60 C 0.18075 0.01511 0.17946 0.0
C61 C 0.14237 0.9882 0.18485 0.0
C62 C 0.17589 0.98278 0.13988 0.0
C63 C 0.31615 0.11406 0.08205 0.0
C64 C 0.23738 0.04323 0.15107 0.0
C65 C 0.36447 0.01267 0.19058 0.0
C66 C 0.37338 0.00738 0.16615 0.0
C67 C 0.28032 0.1578 0.12236 0.0
C68 C 0.47569 0.29633 0.09354 0.0
C69 C 0.53549 0.35625 0.10439 0.0
C70 C 0.54294 0.36441 0.07883 0.0
C71 C 0.48434 0.30548 0.06812 0.0
C72 C 0.50144 0.32219 0.11187 0.0
C73 C 0.51759 0.33926 0.0609 0.0
C74 C 0.35443 0.18165 0.17198 0.0
C75 C 0.43787 0.26192 0.10001 0.0
H76 H 0.09081 0.93778 0.17245 0.0
H77 H 0.19688 0.03814 0.19281 0.0
H78 H 0.12935 0.99037 0.2021 0.0
H79 H 0.18851 0.98064 0.1224 0.0
H80 H 0.56856 0.39065 0.07271 0.0
H81 H 0.46492 0.28688 0.05364 0.0
H82 H 0.49505 0.3161 0.13158 0.0
H83 H 0.52361 0.34613 0.04126 0.0
Eu84 Eu 0.84021 0.6438 0.42016 0.0
C85 C 0.71922 0.66344 0.3593 0.0
N86 N 0.75771 0.68021 0.35425 0.0
C87 C 0.74407 0.66691 0.31059 0.0
C88 C 0.69147 0.64635 0.34008 0.0
C89 C 0.77036 0.68335 0.33028 0.0
C90 C 0.70438 0.64783 0.31553 0.0
C91 C 0.66792 0.64759 0.38943 0.0
C92 C 0.70762 0.66377 0.38377 0.0
C93 C 0.64015 0.62939 0.37049 0.0
C94 C 0.65189 0.62882 0.34588 0.0
Eu95 Eu 0.80017 0.70739 0.38856 0.0
N96 N 0.73517 0.68156 0.40177 0.0
C97 C 0.6574 0.65163 0.41372 0.0
C98 C 0.72519 0.68939 0.42447 0.0
C99 C 0.68625 0.67356 0.43114 0.0
H100 H 0.80063 0.70014 0.32632 0.0
H101 H 0.67856 0.67932 0.44941 0.0
H102 H 0.8378 0.65201 0.48236 0.0
H103 H 0.9651 0.68155 0.35872 0.0
H104 H 0.74707 0.70961 0.43691 0.0
H105 H 0.62724 0.63981 0.4188 0.0
H106 H 0.89666 0.65344 0.369 0.0
H107 H 0.75445 0.66958 0.29161 0.0
H108 H 0.60952 0.61656 0.37456 0.0
H109 H 0.63016 0.61533 0.33139 0.0
H110 H 0.88322 0.67499 0.51801 0.0
H111 H 0.68401 0.63523 0.30022 0.0
H112 H 0.01457 0.70962 0.39199 0.0
N113 N 0.88186 0.66623 0.45519 0.0
C114 C 0.92026 0.68058 0.45079 0.0
C115 C 0.89403 0.67688 0.4992 0.0
C116 C 0.94718 0.69387 0.47068 0.0
C117 C 0.86843 0.66417 0.47895 0.0
C118 C 0.93358 0.69179 0.49507 0.0
N119 N 0.90612 0.66999 0.40742 0.0
C120 C 0.91739 0.66793 0.3836 0.0
C121 C 0.97259 0.69781 0.42126 0.0
C122 C 0.93277 0.68285 0.42627 0.0
C123 C 0.98431 0.6984 0.39658 0.0
C124 C 0.95652 0.68288 0.37773 0.0
H125 H 0.95334 0.70163 0.51081 0.0
H126 H 0.00778 0.71933 0.48068 0.0
H127 H 0.03 0.72251 0.43745 0.0
O128 O 0.83425 0.58846 0.40596 0.0
O129 O 0.87535 0.7078 0.42714 0.0
O130 O 0.86572 0.73314 0.39118 0.0
O131 O 0.83292 0.59868 0.44588 0.0
O132 O 0.8327 0.64098 0.37652 0.0
O133 O 0.84467 0.70185 0.36604 0.0
O134 O 0.80036 0.76016 0.40063 0.0
O135 O 0.76489 0.64098 0.3847 0.0
O136 O 0.77709 0.62395 0.42249 0.0
O137 O 0.80812 0.75082 0.3611 0.0
O138 O 0.81243 0.71689 0.43008 0.0
O139 O 0.80187 0.65852 0.44622 0.0
C140 C 0.8864 0.736 0.4111 0.0
C141 C 0.8281 0.53738 0.43502 0.0
C142 C 0.83018 0.47844 0.42487 0.0
C143 C 0.82392 0.46792 0.45017 0.0
C144 C 0.82182 0.52579 0.46021 0.0
C145 C 0.8198 0.49142 0.46766 0.0
C146 C 0.83248 0.51346 0.41718 0.0
C147 C 0.84222 0.66892 0.35969 0.0
C148 C 0.83262 0.57566 0.42858 0.0
C149 C 0.98673 0.70902 0.46564 0.0
C150 C 0.99939 0.71097 0.44102 0.0
C151 C 0.75565 0.61527 0.40257 0.0
C152 C 0.80774 0.80971 0.37101 0.0
C153 C 0.816 0.87222 0.38246 0.0
C154 C 0.81189 0.87926 0.35728 0.0
C155 C 0.80394 0.8172 0.34584 0.0
C156 C 0.81369 0.83734 0.38943 0.0
C157 C 0.80588 0.85182 0.33907 0.0
C158 C 0.80279 0.69236 0.44868 0.0
C159 C 0.80511 0.77294 0.37776 0.0
H160 H 0.82255 0.44142 0.45645 0.0
H161 H 0.81886 0.54357 0.4744 0.0
H162 H 0.81528 0.48308 0.48715 0.0
H163 H 0.838 0.52209 0.39774 0.0
H164 H 0.81376 0.90628 0.35173 0.0
H165 H 0.79924 0.79621 0.33138 0.0
H166 H 0.81708 0.83212 0.4089 0.0
H167 H 0.80291 0.85748 0.31967 0.0
Eu168 Eu 0.91867 0.21365 0.14459 0.0
C169 C 0.76504 0.09646 0.08156 0.0
N170 N 0.794 0.13345 0.07759 0.0
C171 C 0.79237 0.12099 0.0336 0.0
C172 C 0.74846 0.07023 0.06141 0.0
C173 C 0.80783 0.14603 0.05407 0.0
C174 C 0.76241 0.08301 0.03725 0.0
C175 C 0.72448 0.04523 0.11055 0.0
C176 C 0.75343 0.08408 0.10599 0.0
C177 C 0.70713 0.01953 0.09045 0.0
C178 C 0.71908 0.03198 0.06596 0.0
Eu179 Eu 0.81402 0.17481 0.11277 0.0
N180 N 0.77113 0.10948 0.12523 0.0
C181 C 0.71377 0.03317 0.1352 0.0
C182 C 0.75929 0.09793 0.14925 0.0
C183 C 0.73119 0.05967 0.1546 0.0
H184 H 0.83009 0.17567 0.05091 0.0
H185 H 0.72234 0.05087 0.17373 0.0
H186 H 0.91358 0.21444 0.20697 0.0
H187 H 0.02674 0.33136 0.08735 0.0
H188 H 0.76987 0.11787 0.16454 0.0
H189 H 0.69176 1.00362 0.13944 0.0
H190 H 0.98022 0.26345 0.09833 0.0
H191 H 0.8033 0.13113 1.01498 0.0
H192 H 0.68475 0.98976 0.09368 0.0
H193 H 0.70587 0.01158 0.05069 0.0
H194 H 0.92799 0.26101 0.24139 0.0
H195 H 0.75046 0.0637 0.02134 0.0
H196 H 0.03687 0.38432 0.11593 0.0
N197 N 0.9363 0.25678 0.17888 0.0
C198 C 0.95865 0.2951 0.17378 0.0
C199 C 0.93612 0.27111 0.22239 0.0
C200 C 0.96917 0.3232 0.19278 0.0
C201 C 0.92675 0.24454 0.20287 0.0
C202 C 0.95681 0.31073 0.21725 0.0
N203 N 0.96229 0.27795 0.13192 0.0
C204 C 0.98291 0.28642 0.11029 0.0
C205 C 0.99812 0.34529 0.14411 0.0
C206 C 0.97215 0.306 0.14958 0.0
C207 C 0.01608 0.35461 0.12071 0.0
C208 C 0.00981 0.32483 0.10424 0.0
H209 H 0.96435 0.33136 0.23241 0.0
H210 H 1.00055 0.38465 0.20117 0.0
H211 H 0.02655 0.40399 0.15862 0.0
O212 O 0.9671 0.20723 0.13155 0.0
O213 O 0.88981 0.25084 0.14921 0.0
O214 O 0.85701 0.23819 0.11248 0.0
O215 O 0.95337 0.20315 0.17157 0.0
O216 O 0.91464 0.20201 0.10282 0.0
O217 O 0.8675 0.21396 0.08735 0.0
O218 O 0.76254 0.17844 0.12534 0.0
O219 O 0.84067 0.13727 0.10675 0.0
O220 O 0.87562 0.14895 0.14295 0.0
O221 O 0.77942 0.1849 0.08608 0.0
O222 O 0.81844 0.18296 0.15633 0.0
O223 O 0.86755 0.17132 0.16745 0.0
C224 C 0.86994 0.25848 0.13291 0.0
C225 C 0.00781 0.19543 0.15961 0.0
C226 C 0.06202 0.18876 0.14574 0.0
C227 C 0.06815 0.18125 0.17042 0.0
C228 C 0.01427 0.18799 0.18426 0.0
C229 C 0.04435 0.18089 0.18959 0.0
C230 C 0.03185 0.19579 0.14026 0.0
C231 C 0.90064 0.21359 0.08478 0.0
C232 C 0.97561 0.20201 0.15417 0.0
C233 C 0.99254 0.36259 0.1869 0.0
C234 C 0.00719 0.37361 0.16264 0.0
C235 C 0.8588 0.12765 0.12305 0.0
C236 C 0.72061 0.18624 0.09448 0.0
C237 C 0.6584 0.18261 0.10232 0.0
C238 C 0.65514 0.18781 0.0767 0.0
C239 C 0.71636 0.19138 0.06889 0.0
C240 C 0.69118 0.18162 0.11132 0.0
C241 C 0.6839 0.19212 0.06014 0.0
C242 C 0.83742 0.17468 0.17351 0.0
C243 C 0.75401 0.18214 0.10237 0.0
H244 H 0.09147 0.17568 0.1748 0.0
H245 H 0.99597 0.18745 0.19942 0.0
H246 H 0.04919 0.17506 0.20858 0.0
H247 H 0.02725 0.20146 0.12112 0.0
H248 H 0.62995 0.18822 0.06946 0.0
H249 H 0.73791 0.19421 0.0554 0.0
H250 H 0.69346 0.17686 0.13103 0.0
H251 H 0.68087 0.19575 0.04039 0.0
Eu252 Eu 0.36869 0.19815 0.42225 0.0
C253 C 0.34672 0.05747 0.35727 0.0
N254 N 0.32986 0.07934 0.35301 0.0
C255 C 0.33652 0.07475 0.30892 0.0
C256 C 0.36043 0.04454 0.33726 0.0
C257 C 0.32468 0.08822 0.32929 0.0
C258 C 0.35517 0.05353 0.31287 0.0
C259 C 0.36618 0.02389 0.38651 0.0
C260 C 0.34944 0.04717 0.38166 0.0
C261 C 0.38077 0.01188 0.36667 0.0
C262 C 0.37779 0.02208 0.34211 0.0
Eu263 Eu 0.30649 0.09663 0.38828 0.0
N264 N 0.33461 0.0588 0.40051 0.0
C265 C 0.36672 0.01231 0.41108 0.0
C266 C 0.33256 0.045 0.42406 0.0
C267 C 0.34927 0.02247 0.42989 0.0
H268 H 0.30973 0.10411 0.32608 0.0
H269 H 0.34774 0.01211 0.44878 0.0
H270 H 0.36087 0.18914 0.48451 0.0
H271 H 0.33201 0.2851 0.36008 0.0
H272 H 0.31663 0.04952 0.43817 0.0
H273 H 0.37919 0.99435 0.41555 0.0
H274 H 0.36026 0.24517 0.37088 0.0
H275 H 0.33019 0.07958 0.29019 0.0
H276 H 0.39367 0.99399 0.37007 0.0
H277 H 0.38847 0.01192 0.32694 0.0
H278 H 0.33702 0.21146 0.5198 0.0
H279 H 0.36442 0.04334 0.29695 0.0
H280 H 0.30296 0.30624 0.39288 0.0
N281 N 0.34631 0.21814 0.45701 0.0
C282 C 0.33139 0.24159 0.45233 0.0
C283 C 0.33513 0.22002 0.50091 0.0
C284 C 0.31751 0.25507 0.47198 0.0
C285 C 0.34838 0.20724 0.48086 0.0
C286 C 0.31961 0.24403 0.49647 0.0
N287 N 0.34323 0.23834 0.40917 0.0
C288 C 0.34555 0.25145 0.38529 0.0
C289 C 0.3144 0.27634 0.42244 0.0
C290 C 0.32963 0.25184 0.42777 0.0
C291 C 0.31431 0.28743 0.39771 0.0
C292 C 0.33044 0.27534 0.37913 0.0
H293 H 0.30939 0.2539 0.51206 0.0
H294 H 0.2913 0.28973 0.48152 0.0
H295 H 0.28868 0.30844 0.43816 0.0
O296 O 0.42389 0.24734 0.40848 0.0
O297 O 0.30412 0.17082 0.42654 0.0
O298 O 0.28418 0.13922 0.3891 0.0
O299 O 0.4149 0.23416 0.44834 0.0
O300 O 0.37526 0.19525 0.37855 0.0
O301 O 0.31533 0.14739 0.36525 0.0
O302 O 0.25359 0.04527 0.40144 0.0
O303 O 0.37269 0.12697 0.38528 0.0
O304 O 0.38662 0.15319 0.42405 0.0
O305 O 0.26055 0.06189 0.36189 0.0
O306 O 0.29434 0.09912 0.42939 0.0
O307 O 0.35054 0.14466 0.44872 0.0
C308 C 0.27767 0.15377 0.40934 0.0
C309 C 0.47706 0.28936 0.43697 0.0
C310 C 0.53359 0.35296 0.42841 0.0
C311 C 0.55036 0.3504 0.45084 0.0
C312 C 0.49459 0.28788 0.45939 0.0
C313 C 0.531 0.3181 0.46617 0.0
C314 C 0.49684 0.32216 0.42128 0.0
C315 C 0.34925 0.17761 0.36039 0.0
C316 C 0.43784 0.25688 0.43102 0.0
C317 C 0.30201 0.27907 0.46665 0.0
C318 C 0.30045 0.28965 0.44196 0.0
C319 C 0.39722 0.14306 0.40376 0.0
C320 C 0.19994 0.00546 0.37335 0.0
C321 C 0.13905 0.95051 0.38659 0.0
C322 C 0.12484 0.94628 0.36211 0.0
C323 C 0.1854 1.00078 0.34889 0.0
C324 C 0.17654 0.98019 0.39231 0.0
C325 C 0.14797 0.97132 0.34336 0.0
C326 C 0.31641 0.11171 0.44933 0.0
C327 C 0.23839 0.03823 0.37913 0.0
H328 H 0.57847 0.37383 0.45664 0.0
H329 H 0.4801 0.26321 0.47177 0.0
H330 H 0.54416 0.31662 0.4835 0.0
H331 H 0.48353 0.3241 0.4041 0.0
H332 H 0.09574 0.92347 0.35756 0.0
H333 H 0.20275 0.02019 0.33405 0.0
H334 H 0.18719 0.98359 0.41133 0.0
H335 H 0.13682 0.96798 0.32453 0.0
Eu336 Eu 0.79769 0.70548 0.14602 0.0
C337 C 0.91722 0.67109 0.07984 0.0
N338 N 0.87946 0.65972 0.07539 0.0
C339 C 0.89162 0.66616 0.0312 0.0
C340 C 0.94365 0.67994 0.05991 0.0
C341 C 0.86637 0.65713 0.05148 0.0
C342 C 0.93039 0.67746 0.03542 0.0
C343 C 0.96875 0.68551 0.10945 0.0
C344 C 0.92964 0.67422 0.10438 0.0
C345 C 0.99484 0.69358 0.08967 0.0
C346 C 0.98236 0.6909 0.06496 0.0
Eu347 Eu 0.83796 0.6427 0.11055 0.0
N348 N 0.90348 0.66532 0.1232 0.0
C349 C 0.98039 0.68746 0.13427 0.0
C350 C 0.91443 0.66431 0.14726 0.0
C351 C 0.95299 0.67645 0.15324 0.0
H352 H 0.83619 0.64723 0.04788 0.0
H353 H 0.96126 0.67605 0.17246 0.0
H354 H 0.81206 0.70754 0.20809 0.0
H355 H 0.66328 0.67124 0.09882 0.0
H356 H 0.8937 0.65229 0.16199 0.0
H357 H 0.0101 0.69611 0.13892 0.0
H358 H 0.73444 0.70718 0.10671 0.0
H359 H 0.88103 0.66396 1.01231 0.0
H360 H 0.02479 0.70196 0.09328 0.0
H361 H 1.0029 0.69745 0.04988 0.0
H362 H 0.77297 0.68178 0.24654 0.0
H363 H 0.94981 0.68412 0.01965 0.0
H364 H 0.61939 0.62818 0.13157 0.0
N365 N 0.76328 0.6811 0.18394 0.0
C366 C 0.72393 0.66045 0.18219 0.0
C367 C 0.75893 0.67494 0.2285 0.0
C368 C 0.7006 0.64455 0.20356 0.0
C369 C 0.78095 0.68933 0.20672 0.0
C370 C 0.71869 0.65167 0.2269 0.0
N371 N 0.73027 0.67641 0.13947 0.0
C372 C 0.71532 0.68459 0.11917 0.0
C373 C 0.66623 0.63911 0.15687 0.0
C374 C 0.7069 0.65767 0.15915 0.0
C375 C 0.65046 0.64189 0.13414 0.0
C376 C 0.6752 0.66597 0.11549 0.0
H377 H 0.70182 0.64048 0.24385 0.0
H378 H 0.64166 0.61101 0.21728 0.0
H379 H 0.61157 0.60619 0.1763 0.0
O380 O 0.79744 0.75665 0.13203 0.0
O381 O 0.76376 0.63945 0.14817 0.0
O382 O 0.77515 0.62553 0.10919 0.0
O383 O 0.80124 0.74931 0.17184 0.0
O384 O 0.79829 0.71001 0.10347 0.0
O385 O 0.80692 0.66325 0.0826 0.0
O386 O 0.83067 0.58748 0.12561 0.0
O387 O 0.87386 0.70698 0.10548 0.0
O388 O 0.86325 0.73302 0.14131 0.0
O389 O 0.82314 0.59402 0.08579 0.0
O390 O 0.8291 0.63867 0.15385 0.0
O391 O 0.84342 0.69951 0.16699 0.0
C392 C 0.75454 0.61515 0.12951 0.0
C393 C 0.8283 0.81312 0.15652 0.0
C394 C 0.84377 0.87837 0.14645 0.0
C395 C 0.87504 0.89304 0.16317 0.0
C396 C 0.85982 0.82785 0.17315 0.0
C397 C 0.88312 0.86779 0.17639 0.0
C398 C 0.82059 0.83851 0.14301 0.0
C399 C 0.79943 0.69241 0.08281 0.0
C400 C 0.80118 0.77164 0.15421 0.0
C401 C 0.66004 0.62373 0.20109 0.0
C402 C 0.64288 0.62088 0.17774 0.0
C403 C 0.88408 0.73543 0.12145 0.0
C404 C 0.8131 0.53132 0.09805 0.0
C405 C 0.81946 0.4739 0.10452 0.0
C406 C 0.79337 0.4555 0.08475 0.0
C407 C 0.78741 0.5121 0.07825 0.0
C408 C 0.82894 0.51191 0.11153 0.0
C409 C 0.77748 0.47443 0.0718 0.0
C410 C 0.83951 0.66545 0.17162 0.0
C411 C 0.82339 0.57179 0.10344 0.0
H412 H 0.89254 0.92396 0.1664 0.0
H413 H 0.86601 0.80861 0.18392 0.0
H414 H 0.90694 0.87917 0.18953 0.0
H415 H 0.79581 0.82729 0.13054 0.0
H416 H 0.78556 0.42634 0.07912 0.0
H417 H 0.77488 0.52627 0.06766 0.0
H418 H 0.84932 0.52658 0.12659 0.0
H419 H 0.75766 0.45995 0.05648 0.0
Eu420 Eu 0.81491 0.17751 0.42285 0.0
C421 C 0.95488 0.29136 0.3558 0.0
N422 N 0.93189 0.25262 0.35184 0.0
C423 C 0.93143 0.26313 0.30784 0.0
C424 C 0.9666 0.31765 0.3357 0.0
C425 C 0.92031 0.23817 0.32834 0.0
C426 C 0.9545 0.30305 0.31153 0.0
C427 C 0.98976 0.345 0.3847 0.0
C428 C 0.9662 0.30488 0.38012 0.0
C429 C 1.00151 0.37116 0.36469 0.0
C430 C 0.98996 0.35754 0.34029 0.0
Eu431 Eu 0.91565 0.21272 0.38732 0.0
N432 N 0.95385 0.27892 0.39926 0.0
C433 C 1.00109 0.35772 0.40926 0.0
C434 C 0.96632 0.2913 0.42299 0.0
C435 C 0.98955 0.33066 0.42846 0.0
H436 H 0.90302 0.20727 0.32535 0.0
H437 H 0.99896 0.34001 0.44746 0.0
H438 H 0.82043 0.17913 0.48511 0.0
H439 H 0.72759 0.05385 0.36026 0.0
H440 H 0.95955 0.27132 0.43775 0.0
H441 H 0.01923 0.38825 0.41353 0.0
H442 H 0.76552 0.12226 0.37168 0.0
H443 H 0.92243 0.25156 0.2892 0.0
H444 H 0.01962 0.40202 0.36791 0.0
H445 H 0.9993 0.37814 0.32505 0.0
H446 H 0.79782 0.13298 0.52042 0.0
H447 H 0.963 0.3223 0.29559 0.0
H448 H 0.70781 1.00345 0.39273 0.0
N449 N 0.79219 0.13533 0.45758 0.0
C450 C 0.76935 0.09684 0.45279 0.0
C451 C 0.78966 0.12244 0.50148 0.0
C452 C 0.75615 0.06945 0.47234 0.0
C453 C 0.80243 0.14847 0.48147 0.0
C454 C 0.76652 0.08275 0.49691 0.0
N455 N 0.77275 0.11196 0.4098 0.0
C456 C 0.75975 0.10117 0.38588 0.0
C457 C 0.73611 0.0449 0.42263 0.0
C458 C 0.75955 0.08476 0.42821 0.0
C459 C 0.72564 0.03372 0.39778 0.0
C460 C 0.73697 0.06206 0.3794 0.0
H461 H 0.75687 0.06265 0.51244 0.0
H462 H 0.72306 0.00836 0.48157 0.0
H463 H 0.70559 0.98686 0.43803 0.0
O464 O 0.7681 0.18641 0.4087 0.0
O465 O 0.84004 0.13814 0.42589 0.0
O466 O 0.87161 0.14818 0.38826 0.0
O467 O 0.78305 0.19508 0.44779 0.0
O468 O 0.81784 0.18679 0.37951 0.0
O469 O 0.8633 0.17187 0.36473 0.0
O470 O 0.96753 0.21176 0.3998 0.0
O471 O 0.88742 0.25003 0.38449 0.0
O472 O 0.86329 0.23914 0.42352 0.0
O473 O 0.95 0.20158 0.36039 0.0
O474 O 0.91315 0.19748 0.42839 0.0
O475 O 0.86915 0.20919 0.44923 0.0
C476 C 0.8552 0.12718 0.40824 0.0
C477 C 0.7176 0.17614 0.43726 0.0
C478 C 0.65368 0.16982 0.43065 0.0
C479 C 0.64087 0.14884 0.45301 0.0
C480 C 0.70356 0.15451 0.45938 0.0
C481 C 0.66554 0.14112 0.46716 0.0
C482 C 0.69219 0.18341 0.42268 0.0
C483 C 0.83373 0.17711 0.36102 0.0
C484 C 0.75933 0.19397 0.43064 0.0
C485 C 0.7333 0.02979 0.4668 0.0
C486 C 0.72341 0.01754 0.44201 0.0
C487 C 0.87219 0.25925 0.40302 0.0
C488 C 0.00802 0.19971 0.37126 0.0
C489 C 0.06107 0.19014 0.38395 0.0
C490 C 0.07059 0.18967 0.35874 0.0
C491 C 0.01787 0.1991 0.34611 0.0
C492 C 0.02981 0.19523 0.3903 0.0
C493 C 0.04907 0.19416 0.33994 0.0
C494 C 0.90159 0.20701 0.44888 0.0
C495 C 0.9747 0.20439 0.3773 0.0
H496 H 0.61159 0.13856 0.45961 0.0
H497 H 0.72216 0.14854 0.47102 0.0
H498 H 0.65527 0.12507 0.48443 0.0
H499 H 0.70257 0.20034 0.4057 0.0
H500 H 0.09469 0.18566 0.35366 0.0
H501 H 1.00149 0.20249 0.33117 0.0
H502 H 0.02243 0.19538 0.4098 0.0
H503 H 0.05653 0.19369 0.32054 0.0
Eu504 Eu 0.20169 0.36732 0.6104 0.0
C505 C 0.06034 0.34611 0.67274 0.0
N506 N 0.08234 0.32955 0.67758 0.0
C507 C 0.07688 0.33683 0.72151 0.0
C508 C 0.0468 0.35986 0.69238 0.0
C509 C 0.09081 0.32474 0.70151 0.0
C510 C 0.05545 0.3551 0.71697 0.0
C511 C 0.02667 0.36442 0.64273 0.0
C512 C 0.05047 0.34844 0.64809 0.0
C513 C 0.0141 0.37907 0.66223 0.0
C514 C 0.02406 0.37672 0.68697 0.0
Eu515 Eu 0.09908 0.30477 0.64286 0.0
N516 N 0.06263 0.33358 0.62953 0.0
C517 C 0.01494 0.36387 0.61804 0.0
C518 C 0.04817 0.3298 0.60599 0.0
C519 C 0.02518 0.34582 0.59965 0.0
H520 H 0.10665 0.30985 0.70516 0.0
H521 H 0.01431 0.34304 0.58078 0.0
H522 H 0.19207 0.35864 0.5481 0.0
H523 H 0.28869 0.33101 0.67274 0.0
H524 H 0.052 0.31245 0.59245 0.0
H525 H 0.99654 0.37569 0.61319 0.0
H526 H 0.24896 0.35953 0.66178 0.0
H527 H 0.08146 0.33099 0.74042 0.0
H528 H 0.99583 0.39142 0.65842 0.0
H529 H 0.0134 0.38738 0.70186 0.0
H530 H 0.21388 0.33408 0.51295 0.0
H531 H 0.04481 0.36442 0.73262 0.0
H532 H 0.30925 0.3012 0.64008 0.0
N533 N 0.22108 0.34422 0.5757 0.0
C534 C 0.2446 0.32939 0.58045 0.0
C535 C 0.22256 0.3324 0.53185 0.0
C536 C 0.25772 0.31503 0.56087 0.0
C537 C 0.21004 0.34604 0.55184 0.0
C538 C 0.24644 0.31677 0.53637 0.0
N539 N 0.24197 0.34208 0.62354 0.0
C540 C 0.25517 0.34462 0.64743 0.0
C541 C 0.27944 0.31263 0.61043 0.0
C542 C 0.25515 0.32806 0.60502 0.0
C543 C 0.29064 0.31276 0.63518 0.0
C544 C 0.27888 0.32932 0.65369 0.0
H545 H 0.25606 0.3062 0.52084 0.0
H546 H 0.29188 0.28823 0.55149 0.0
H547 H 0.31098 0.28621 0.59486 0.0
O548 O 0.25129 0.4224 0.6241 0.0
O549 O 0.17401 0.30278 0.60646 0.0
O550 O 0.13936 0.27977 0.64291 0.0
O551 O 0.23785 0.41294 0.58424 0.0
O552 O 0.19761 0.37247 0.65395 0.0
O553 O 0.14874 0.31253 0.66692 0.0
O554 O 0.0465 0.25347 0.62847 0.0
O555 O 0.12982 0.37062 0.64694 0.0
O556 O 0.15803 0.38683 0.60881 0.0
O557 O 0.06064 0.26021 0.66853 0.0
O558 O 0.10358 0.29297 0.60196 0.0
O559 O 0.14878 0.35039 0.58389 0.0
C560 C 0.15791 0.27619 0.62367 0.0
C561 C 0.29333 0.47491 0.5953 0.0
C562 C 0.35643 0.53172 0.60415 0.0
C563 C 0.35494 0.54749 0.58105 0.0
C564 C 0.2928 0.49137 0.5722 0.0
C565 C 0.32334 0.52743 0.56522 0.0
C566 C 0.32541 0.49535 0.61144 0.0
C567 C 0.17972 0.34606 0.67179 0.0
C568 C 0.26074 0.43601 0.60149 0.0
C569 C 0.28155 0.29937 0.56629 0.0
C570 C 0.29235 0.29815 0.59099 0.0
C571 C 0.14719 0.39622 0.62929 0.0
C572 C 1.00041 0.20435 0.65712 0.0
C573 C 0.94797 0.14058 0.64596 0.0
C574 C 0.93017 0.1385 0.66904 0.0
C575 C 0.98265 0.20161 0.68029 0.0
C576 C 0.98289 0.17384 0.63977 0.0
C577 C 0.94749 0.16887 0.68611 0.0
C578 C 0.11661 0.31585 0.58247 0.0
C579 C 0.03626 0.23983 0.65102 0.0
H580 H 0.37865 0.57531 0.57513 0.0
H581 H 0.26869 0.47629 0.55942 0.0
H582 H 0.32265 0.53975 0.54736 0.0
H583 H 0.32662 0.48287 0.62915 0.0
H584 H 0.90313 0.11287 0.67404 0.0
H585 H 0.9957 0.22505 0.69376 0.0
H586 H 0.9967 0.17551 0.62197 0.0
H587 H 0.93379 0.16688 0.70394 0.0
Eu588 Eu 0.21202 0.91114 0.88904 0.0
C589 C 0.09917 0.76018 0.9542 0.0
N590 N 0.13611 0.78953 0.95801 0.0
C591 C 0.12307 0.79033 1.0017 0.0
C592 C 0.07262 0.74486 0.97421 0.0
C593 C 0.14848 0.80443 0.98137 0.0
C594 C 0.085 0.76045 0.99813 0.0
C595 C 0.04905 0.71607 0.92558 0.0
C596 C 0.08749 0.74612 0.93005 0.0
C597 C 0.02291 0.70029 0.94557 0.0
C598 C 0.0346 0.71477 0.96979 0.0
Eu599 Eu 0.17722 0.80897 0.92268 0.0
N600 N 0.11275 0.76346 0.91078 0.0
C601 C 0.03757 0.70371 0.90099 0.0
C602 C 0.102 0.75013 0.88694 0.0
C603 C 0.06421 0.72076 0.88162 0.0
H604 H 0.17815 0.8266 0.98458 0.0
H605 H 0.05587 0.71081 0.86258 0.0
H606 H 0.20762 0.90402 0.82653 0.0
H607 H 0.33615 1.00317 0.94873 0.0
H608 H 0.12252 0.76082 0.87196 0.0
H609 H 0.00827 0.68103 0.89677 0.0
H610 H 0.26722 0.96527 0.93729 0.0
H611 H 0.13299 0.80227 0.02019 0.0
H612 H 0.99331 0.6774 0.94241 0.0
H613 H 0.01388 0.70268 0.98496 0.0
H614 H 0.25266 0.92488 0.79066 0.0
H615 H 0.06544 0.74954 1.01395 0.0
H616 H 0.3861 0.01764 0.91644 0.0
N617 N 0.25254 0.92973 0.85359 0.0
C618 C 0.29128 0.95156 0.85792 0.0
C619 C 0.26392 0.93217 0.8095 0.0
C620 C 0.31804 0.96348 0.83805 0.0
C621 C 0.23851 0.92038 0.82983 0.0
C622 C 0.30387 0.95331 0.81363 0.0
N623 N 0.27747 0.95201 0.90093 0.0
C624 C 0.28848 0.96818 0.92403 0.0
C625 C 0.34406 0.9863 0.88732 0.0
C626 C 0.30413 0.96279 0.88229 0.0
C627 C 0.35572 0.99947 0.9118 0.0
C628 C 0.32768 0.99111 0.93012 0.0
H629 H 0.32347 0.96218 0.79782 0.0
H630 H 0.37891 0.99496 0.8281 0.0
H631 H 0.40168 0.01488 0.87122 0.0
O632 O 0.20769 0.96136 0.90281 0.0
O633 O 0.25067 0.88349 0.88668 0.0
O634 O 0.23934 0.85555 0.92494 0.0
O635 O 0.19885 0.94448 0.86329 0.0
O636 O 0.19601 0.90546 0.93023 0.0
O637 O 0.21311 0.86376 0.94812 0.0
O638 O 0.18514 0.76077 0.90853 0.0
O639 O 0.13464 0.83018 0.9246 0.0
O640 O 0.14769 0.86741 0.88914 0.0
O641 O 0.18552 0.77204 0.94852 0.0
O642 O 0.18762 0.81313 0.87941 0.0
O643 O 0.17378 0.8595 0.86479 0.0
C644 C 0.2603 0.8677 0.90478 0.0
C645 C 0.19008 0.99822 0.87406 0.0
C646 C 0.18425 0.05439 0.88485 0.0
C647 C 0.16831 0.05266 0.86118 0.0
C648 C 0.17435 0.9973 0.85038 0.0
C649 C 0.16344 0.0243 0.84407 0.0
C650 C 0.19485 0.02687 0.8915 0.0
C651 C 0.2097 0.89542 0.94929 0.0
C652 C 0.1988 0.96753 0.88049 0.0
C653 C 0.35791 0.98573 0.84311 0.0
C654 C 0.37089 0.99702 0.86769 0.0
C655 C 0.12589 0.84923 0.9085 0.0
C656 C 0.18918 0.71486 0.93781 0.0
C657 C 0.18619 0.65345 0.92721 0.0
C658 C 0.18596 0.64576 0.95281 0.0
C659 C 0.18906 0.70609 0.96328 0.0
C660 C 0.18752 0.68808 0.9196 0.0
C661 C 0.18741 0.67185 0.97063 0.0
C662 C 0.17886 0.82979 0.86094 0.0
C663 C 0.18526 0.74891 0.9312 0.0
H664 H 0.15973 0.07354 0.85591 0.0
H665 H 0.1699 0.9753 0.83675 0.0
H666 H 0.15112 0.0232 0.82587 0.0
H667 H 0.20679 0.02792 0.90987 0.0
H668 H 0.18442 0.61916 0.95903 0.0
H669 H 0.18922 0.72527 0.97771 0.0
H670 H 0.1866 0.69372 0.89988 0.0
H671 H 0.18682 0.6653 0.9903 0.0
Eu672 Eu 0.646 0.83765 0.60903 0.0
C673 C 0.67376 0.71984 0.67394 0.0
N674 N 0.68828 0.75836 0.67807 0.0
C675 C 0.68607 0.74835 0.72223 0.0
C676 C 0.66404 0.69391 0.69414 0.0
C677 C 0.69399 0.77284 0.70177 0.0
C678 C 0.6706 0.7087 0.71848 0.0
C679 C 0.64998 0.66572 0.64494 0.0
C680 C 0.66712 0.70596 0.64948 0.0
C681 C 0.64127 0.64011 0.66501 0.0
C682 C 0.64825 0.65415 0.68954 0.0
Eu683 Eu 0.70833 0.79812 0.64246 0.0
N684 N 0.67476 0.73129 0.63034 0.0
C685 C 0.64085 0.65211 0.62039 0.0
C686 C 0.66319 0.71742 0.60666 0.0
C687 C 0.6469 0.67805 0.60124 0.0
H688 H 0.70678 0.80361 0.70482 0.0
H689 H 0.63831 0.66767 0.5823 0.0
H690 H 0.65491 0.83757 0.54683 0.0
H691 H 0.67509 0.95876 0.67198 0.0
H692 H 0.66439 0.73571 0.59192 0.0
H693 H 0.62775 0.62149 0.61617 0.0
H694 H 0.6503 0.8911 0.66069 0.0
H695 H 0.69309 0.76014 0.74083 0.0
H696 H 0.62837 0.60924 0.66179 0.0
H697 H 0.64087 0.63393 0.70486 0.0
H698 H 0.67861 0.88435 0.51199 0.0
H699 H 0.66421 0.68984 0.73448 0.0
H700 H 0.70408 0.00973 0.63978 0.0
N701 N 0.66821 0.88051 0.57471 0.0
C702 C 0.68195 0.91865 0.57975 0.0
C703 C 0.6799 0.8944 0.53096 0.0
C704 C 0.69554 0.94632 0.56036 0.0
C705 C 0.6668 0.86803 0.55076 0.0
C706 C 0.6944 0.93373 0.53577 0.0
N707 N 0.66909 0.90265 0.62274 0.0
C708 C 0.66494 0.91257 0.64655 0.0
C709 C 0.6959 0.96943 0.61002 0.0
C710 C 0.68246 0.93005 0.6044 0.0
C711 C 0.69415 0.97986 0.63473 0.0
C712 C 0.67806 0.95121 0.65299 0.0
H713 H 0.70445 0.95408 0.52037 0.0
H714 H 0.7202 0.00717 0.55138 0.0
H715 H 0.72035 0.02738 0.59483 0.0
O716 O 0.59106 0.8324 0.62231 0.0
O717 O 0.71022 0.87564 0.60468 0.0
O718 O 0.73131 0.86326 0.64151 0.0
O719 O 0.5994 0.82556 0.58267 0.0
O720 O 0.63984 0.82811 0.65263 0.0
O721 O 0.69997 0.84048 0.66545 0.0
O722 O 0.75974 0.79562 0.62987 0.0
O723 O 0.6426 0.76223 0.64649 0.0
O724 O 0.62764 0.7748 0.60824 0.0
O725 O 0.7546 0.81049 0.66858 0.0
O726 O 0.72239 0.8141 0.60177 0.0
O727 O 0.66646 0.80408 0.58229 0.0
C728 C 0.737 0.88437 0.62145 0.0
C729 C 0.5377 0.82029 0.59399 0.0
C730 C 0.48109 0.82685 0.60344 0.0
C731 C 0.46495 0.80963 0.58035 0.0
C732 C 0.52077 0.80331 0.57096 0.0
C733 C 0.48466 0.79797 0.56426 0.0
C734 C 0.5176 0.83213 0.6104 0.0
C735 C 0.66614 0.83677 0.67057 0.0
C736 C 0.57687 0.82683 0.5998 0.0
C737 C 0.70965 0.98555 0.56604 0.0
C738 C 0.70982 0.99706 0.59079 0.0
C739 C 0.61707 0.75448 0.62872 0.0
C740 C 0.81295 0.80942 0.65858 0.0
C741 C 0.87455 0.81564 0.64679 0.0
C742 C 0.88616 0.82193 0.67192 0.0
C743 C 0.82494 0.8156 0.68371 0.0
C744 C 0.83789 0.80931 0.64002 0.0
C745 C 0.86139 0.82182 0.69029 0.0
C746 C 0.70046 0.80478 0.58184 0.0
C747 C 0.77532 0.80519 0.65204 0.0
H748 H 0.43709 0.80561 0.57463 0.0
H749 H 0.53555 0.7942 0.55797 0.0
H750 H 0.47202 0.785 0.54641 0.0
H751 H 0.53044 0.84587 0.62808 0.0
H752 H 0.91455 0.82697 0.67728 0.0
H753 H 0.80629 0.81596 0.69832 0.0
H754 H 0.8292 0.80489 0.62055 0.0
H755 H 0.87054 0.82675 0.70963 0.0
Eu756 Eu 0.09938 0.30179 0.88723 0.0
C757 C 0.25099 0.33797 0.95431 0.0
N758 N 0.22774 0.35334 0.95835 0.0
C759 C 0.23151 0.34612 1.00262 0.0
C760 C 0.26568 0.32628 0.97443 0.0
C761 C 0.21805 0.35774 0.98212 0.0
C762 C 0.25548 0.33038 0.99877 0.0
C763 C 0.28295 0.31654 0.92509 0.0
C764 C 0.2589 0.33254 0.92996 0.0
C765 C 0.29824 0.30562 0.94503 0.0
C766 C 0.28945 0.31028 0.96965 0.0
Eu767 Eu 0.20279 0.36912 0.92279 0.0
N768 N 0.2428 0.34247 0.91105 0.0
C769 C 0.29101 0.312 0.90031 0.0
C770 C 0.25189 0.33918 0.88698 0.0
C771 C 0.27561 0.3237 0.88115 0.0
H772 H 0.19981 0.37019 0.98537 0.0
H773 H 0.28229 0.32119 0.86186 0.0
H774 H 0.09501 0.28307 0.8251 0.0
H775 H 0.99547 0.33249 0.93436 0.0
H776 H 0.24191 0.34927 0.87219 0.0
H777 H 0.3094 0.3 0.89578 0.0
H778 H 0.03042 0.29592 0.92687 0.0
H779 H 0.22337 0.3493 0.0214 0.0
H780 H 0.31664 0.29327 0.9416 0.0
H781 H 0.301 0.30121 0.98487 0.0
H782 H 0.06987 0.29728 0.78679 0.0
H783 H 0.26579 0.32133 1.01469 0.0
H784 H 0.99501 0.37552 0.90183 0.0
N785 N 0.07775 0.31459 0.84885 0.0
C786 C 0.06044 0.33649 0.85027 0.0
C787 C 0.06806 0.30941 0.80449 0.0
C788 C 0.04921 0.34851 0.82869 0.0
C789 C 0.08158 0.30079 0.8263 0.0
C790 C 0.05319 0.33458 0.80554 0.0
N791 N 0.05545 0.32502 0.89314 0.0
C792 C 0.03293 0.31749 0.91376 0.0
C793 C 0.02859 0.36228 0.87594 0.0
C794 C 0.04977 0.34281 0.87345 0.0
C795 C 0.01163 0.36107 0.89901 0.0
C796 C 0.01206 0.33683 0.91758 0.0
H797 H 0.04373 0.34201 0.78851 0.0
H798 H 0.02414 0.38221 0.81472 0.0
H799 H 1.00663 0.39489 0.85645 0.0
O800 O 0.05815 0.24788 0.90573 0.0
O801 O 0.12738 0.36745 0.88273 0.0
O802 O 0.15465 0.38287 0.92102 0.0
O803 O 0.06641 0.249 0.86566 0.0
O804 O 0.09536 0.30436 0.92996 0.0
O805 O 0.15158 0.349 0.95116 0.0
O806 O 0.25227 0.42296 0.9087 0.0
O807 O 0.17394 0.30551 0.9307 0.0
O808 O 0.14714 0.28723 0.89247 0.0
O809 O 0.2316 0.42067 0.9463 0.0
O810 O 0.20003 0.37424 0.87895 0.0
O811 O 0.15125 0.31587 0.8629 0.0
C812 C 0.14529 0.3932 0.90034 0.0
C813 C 1.00431 0.20631 0.8812 0.0
C814 C 0.94391 0.14761 0.88969 0.0
C815 C 0.92504 0.15889 0.87237 0.0
C816 C 0.98527 0.21777 0.86406 0.0
C817 C 0.94567 0.19401 0.85971 0.0
C818 C 0.98344 0.1715 0.89427 0.0
C819 C 0.11406 0.32179 0.95075 0.0
C820 C 0.04617 0.22895 0.88472 0.0
C821 C 0.03191 0.37167 0.8311 0.0
C822 C 0.02199 0.37896 0.85483 0.0
C823 C 0.15569 0.27824 0.91418 0.0
C824 C 0.29744 0.46895 0.93798 0.0
C825 C 0.36051 0.52658 0.93005 0.0
C826 C 0.36921 0.52836 0.95559 0.0
C827 C 0.30725 0.47117 0.96341 0.0
C828 C 0.32464 0.49661 0.92118 0.0
C829 C 0.3429 0.50071 0.97208 0.0
C830 C 0.18198 0.3504 0.85974 0.0
C831 C 0.25734 0.44168 0.92959 0.0
H832 H 0.89464 0.13991 0.8681 0.0
H833 H 1.00106 0.24456 0.85371 0.0
H834 H 0.93117 0.20236 0.84609 0.0
H835 H 0.99823 0.16214 0.90706 0.0
H836 H 0.39648 0.55147 0.9628 0.0
H837 H 0.28698 0.45077 0.97682 0.0
H838 H 0.31734 0.49579 0.90159 0.0
H839 H 0.34988 0.50262 0.99176 0.0
Eu840 Eu 0.17926 0.81129 0.61124 0.0
C841 C 0.29591 0.95307 0.67332 0.0
N842 N 0.25743 0.93134 0.67842 0.0
C843 C 0.27111 0.93317 0.72215 0.0
C844 C 0.32368 0.96448 0.69256 0.0
C845 C 0.24476 0.92223 0.70242 0.0
C846 C 0.3108 0.95397 0.71718 0.0
C847 C 0.34724 0.98674 0.64292 0.0
C848 C 0.3075 0.9639 0.64873 0.0
C849 C 0.37501 0.99727 0.66194 0.0
C850 C 0.36326 0.98623 0.68669 0.0
Eu851 Eu 0.21474 0.91352 0.64408 0.0
N852 N 0.27992 0.95306 0.63065 0.0
C853 C 0.35787 0.99929 0.61829 0.0
C854 C 0.29017 0.96859 0.60735 0.0
C855 C 0.32912 0.99088 0.60054 0.0
H856 H 0.21434 0.90791 0.70636 0.0
H857 H 0.33687 1.00242 0.58179 0.0
H858 H 0.18139 0.81667 0.54897 0.0
H859 H 0.05496 0.7235 0.67311 0.0
H860 H 0.2687 0.9658 0.59439 0.0
H861 H 0.38807 0.01694 0.61307 0.0
H862 H 0.12347 0.76225 0.66229 0.0
H863 H 0.26077 0.92601 0.74117 0.0
H864 H 0.40565 0.01461 0.65777 0.0
H865 H 0.38502 0.99509 0.70121 0.0
H866 H 0.13554 0.79476 0.51346 0.0
H867 H 0.3312 0.96242 0.73252 0.0
H868 H 1.00489 0.70364 0.64034 0.0
N869 N 0.13735 0.78832 0.57628 0.0
C870 C 0.09881 0.76545 0.58084 0.0
C871 C 0.12483 0.78636 0.53232 0.0
C872 C 0.07159 0.75263 0.56115 0.0
C873 C 0.1507 0.79874 0.55246 0.0
C874 C 0.08509 0.76336 0.53668 0.0
N875 N 0.11356 0.76907 0.62395 0.0
C876 C 0.10254 0.75611 0.64784 0.0
C877 C 0.04663 0.73223 0.6107 0.0
C878 C 0.08654 0.75569 0.60536 0.0
C879 C 0.03521 0.72158 0.63547 0.0
C880 C 0.06336 0.73298 0.65403 0.0
H881 H 0.06511 0.7541 0.52106 0.0
H882 H 0.01055 0.72009 0.55162 0.0
H883 H 0.98871 0.70199 0.59501 0.0
O884 O 0.18934 0.76569 0.62619 0.0
O885 O 0.14077 0.83684 0.60559 0.0
O886 O 0.14974 0.87041 0.6422 0.0
O887 O 0.19579 0.7781 0.58678 0.0
O888 O 0.18659 0.81543 0.65507 0.0
O889 O 0.17235 0.86243 0.66667 0.0
O890 O 0.21267 0.96508 0.63223 0.0
O891 O 0.25147 0.88445 0.64828 0.0
O892 O 0.24066 0.8593 0.60959 0.0
O893 O 0.2029 0.94653 0.67145 0.0
O894 O 0.20072 0.91003 0.60279 0.0
O895 O 0.2131 0.86474 0.58446 0.0
C896 C 0.12879 0.85217 0.62245 0.0
C897 C 0.17617 0.71335 0.59866 0.0
C898 C 0.17098 0.64993 0.60449 0.0
C899 C 0.14482 0.63544 0.58441 0.0
C900 C 0.14947 0.69777 0.57885 0.0
C901 C 0.13403 0.65911 0.57182 0.0
C902 C 0.18647 0.68899 0.61178 0.0
C903 C 0.17661 0.83287 0.67246 0.0
C904 C 0.19547 0.7554 0.60433 0.0
C905 C 0.03187 0.72996 0.56648 0.0
C906 C 0.01943 0.71977 0.59119 0.0
C907 C 0.26138 0.86962 0.62982 0.0
C908 C 0.19915 1.00356 0.66164 0.0
C909 C 0.19144 0.05785 0.64989 0.0
C910 C 0.18536 0.06337 0.67503 0.0
C911 C 0.19307 0.00933 0.68679 0.0
C912 C 0.19834 0.02799 0.6431 0.0
C913 C 0.18621 0.03916 0.6934 0.0
C914 C 0.21076 0.89705 0.58322 0.0
C915 C 0.20485 0.97121 0.6549 0.0
H916 H 0.13284 0.60562 0.57838 0.0
H917 H 0.14104 0.71562 0.56843 0.0
H918 H 0.11398 0.64756 0.5563 0.0
H919 H 0.20728 0.70064 0.62693 0.0
H920 H 0.17998 0.0865 0.68039 0.0
H921 H 0.1934 0.99068 0.70136 0.0
H922 H 0.20277 0.02378 0.6236 0.0
H923 H 0.18146 0.04348 0.71277 0.0
Eu924 Eu 0.70702 0.79322 0.88797 0.0
C925 C 0.68308 0.91567 0.95119 0.0
N926 N 0.67012 0.87751 0.95564 0.0
C927 C 0.68328 0.89087 0.99941 0.0
C928 C 0.69705 0.94305 0.97085 0.0
C929 C 0.66971 0.86477 0.97937 0.0
C930 C 0.69713 0.93018 0.99514 0.0
C931 C 0.69315 0.9664 0.922 0.0
C932 C 0.6814 0.92724 0.92699 0.0
C933 C 0.7079 0.99383 0.94142 0.0
C934 C 0.7098 0.98218 0.96578 0.0
Eu935 Eu 0.64469 0.83511 0.92086 0.0
N936 N 0.66682 0.90002 0.90853 0.0
C937 C 0.68857 0.97665 0.89779 0.0
C938 C 0.65943 0.90946 0.88553 0.0
C939 C 0.67107 0.94792 0.87957 0.0
H940 H 0.65789 0.83432 0.98308 0.0
H941 H 0.66564 0.9552 0.86111 0.0
H942 H 0.71964 0.7996 0.82542 0.0
H943 H 0.6625 0.66528 0.94533 0.0
H944 H 0.64295 0.88728 0.87207 0.0
H945 H 0.69717 0.00636 0.89323 0.0
H946 H 0.69893 0.73541 0.93458 0.0
H947 H 0.68261 0.88056 0.01819 0.0
H948 H 0.71719 0.024 0.93787 0.0
H949 H 0.72062 1.00356 0.98065 0.0
H950 H 0.70324 0.75515 0.78932 0.0
H951 H 0.70731 0.95025 1.01075 0.0
H952 H 0.62512 0.61751 0.91274 0.0
N953 N 0.68899 0.75415 0.85152 0.0
C954 C 0.66732 0.71523 0.85521 0.0
C955 C 0.6919 0.74372 0.80763 0.0
C956 C 0.65521 0.68913 0.83491 0.0
C957 C 0.70148 0.7687 0.82812 0.0
C958 C 0.66763 0.70392 0.81089 0.0
N959 N 0.6755 0.72703 0.8986 0.0
C960 C 0.67911 0.71473 0.92149 0.0
C961 C 0.64057 0.661 0.88401 0.0
C962 C 0.66008 0.70125 0.87948 0.0
C963 C 0.63929 0.64816 0.90847 0.0
C964 C 0.66003 0.67517 0.92709 0.0
H965 H 0.65986 0.68476 0.79487 0.0
H966 H 0.62314 0.62863 0.82394 0.0
H967 H 0.61022 0.60402 0.86704 0.0
O968 O 0.7574 0.79585 0.90615 0.0
O969 O 0.64122 0.75912 0.88485 0.0
O970 O 0.62453 0.77165 0.92291 0.0
O971 O 0.75346 0.79511 0.86581 0.0
O972 O 0.71696 0.80744 0.92983 0.0
O973 O 0.65951 0.79761 0.94695 0.0
O974 O 0.58824 0.82715 0.90751 0.0
O975 O 0.70969 0.87281 0.92236 0.0
O976 O 0.73162 0.858 0.88631 0.0
O977 O 0.60134 0.83053 0.94733 0.0
O978 O 0.63969 0.82646 0.87741 0.0
O979 O 0.69703 0.83224 0.86192 0.0
C980 C 0.61578 0.75076 0.90267 0.0
C981 C 0.8154 0.82883 0.88335 0.0
C982 C 0.88241 0.8489 0.89149 0.0
C983 C 0.89403 0.88136 0.87613 0.0
C984 C 0.82707 0.86173 0.86833 0.0
C985 C 0.86638 0.88793 0.8648 0.0
C986 C 0.84312 0.82293 0.89538 0.0
C987 C 0.69344 0.79895 0.94903 0.0
C988 C 0.77484 0.79866 0.885 0.0
C989 C 0.63313 0.64907 0.83934 0.0
C990 C 0.62569 0.63503 0.86387 0.0
C991 C 0.73632 0.88061 0.90544 0.0
C992 C 0.53918 0.82438 0.93721 0.0
C993 C 0.47961 0.82555 0.92756 0.0
C994 C 0.47089 0.82224 0.95316 0.0
C995 C 0.52938 0.82108 0.96271 0.0
C996 C 0.51404 0.82681 0.91946 0.0
C997 C 0.4956 0.82006 0.97055 0.0
C998 C 0.66434 0.83265 0.85873 0.0
C999 C 0.5771 0.82826 0.93027 0.0
H1000 H 0.92449 0.90102 0.87245 0.0
H1001 H 0.80591 0.86662 0.85884 0.0
H1002 H 0.87542 0.91275 0.85273 0.0
H1003 H 0.83421 0.79711 0.90654 0.0
H1004 H 0.4449 0.82172 0.95974 0.0
H1005 H 0.54815 0.81977 0.97682 0.0
H1006 H 0.52133 0.83013 0.89977 0.0
H1007 H 0.48866 0.81786 0.99025 0.0
C1008 C 0.08062 0.15378 0.11607 0.0
C1009 C 0.08805 0.18911 0.12635 0.0
C1010 C 0.1113 0.14902 0.10778 0.0
C1011 C 0.14964 0.1803 0.11033 0.0
C1012 C 0.15631 0.21764 0.11666 0.0
C1013 C 0.12507 0.22163 0.12466 0.0
C1014 C 0.10302 0.1092 0.10001 0.0
C1015 C 0.19682 0.252 0.11854 0.0
C1016 C 0.22128 0.15618 0.1396 0.0
C1017 C 0.24501 0.16036 0.11926 0.0
C1018 C 0.18964 0.16199 0.13668 0.0
C1019 C 0.18179 0.17218 0.11286 0.0
C1020 C 0.20519 0.17563 0.09216 0.0
C1021 C 0.23625 0.16919 0.09557 0.0
C1022 C 0.1652 0.15823 0.15928 0.0
C1023 C 0.19753 0.1859 0.06645 0.0
H1024 H 0.05167 0.12881 0.11728 0.0
H1025 H 0.13034 0.24898 0.13246 0.0
H1026 H 0.12386 0.1109 0.08561 0.0
H1027 H 0.10592 0.09403 0.11652 0.0
H1028 H 0.07309 0.09156 0.0926 0.0
H1029 H 0.19673 0.27969 0.12069 0.0
H1030 H 0.21174 0.2484 0.13495 0.0
H1031 H 0.21389 0.25386 0.10171 0.0
H1032 H 0.22798 0.14934 0.15786 0.0
H1033 H 0.25403 0.17157 0.07958 0.0
H1034 H 0.13449 0.1361 0.15573 0.0
H1035 H 0.16627 0.18618 0.16292 0.0
H1036 H 0.17506 0.14987 0.17635 0.0
H1037 H 0.17182 0.1604 0.05827 0.0
H1038 H 0.22248 0.19448 0.05364 0.0
H1039 H 0.19104 0.20987 0.06735 0.0
C1040 C 0.1072 0.88509 0.4043 0.0
C1041 C 0.11367 0.92288 0.40546 0.0
C1042 C 0.07207 0.854 0.41252 0.0
C1043 C 0.04335 0.86149 0.42212 0.0
C1044 C 0.05263 0.90007 0.42722 0.0
C1045 C 0.08791 0.93064 0.41853 0.0
C1046 C 0.06372 0.81337 0.40708 0.0
C1047 C 0.02324 0.909 0.43848 0.0
C1048 C 0.94389 0.7958 0.39494 0.0
C1049 C 0.92539 0.76996 0.41457 0.0
C1050 C 0.98207 0.82628 0.39753 0.0
C1051 C 1.00217 0.83083 0.42031 0.0
C1052 C 0.98332 0.80547 0.44045 0.0
C1053 C 0.94497 0.77554 0.43741 0.0
C1054 C 1.00122 0.85304 0.37561 0.0
C1055 C 1.0039 0.80915 0.46486 0.0
H1056 H 0.12751 0.87946 0.39421 0.0
H1057 H 0.0933 0.96012 0.41945 0.0
H1058 H 0.04376 0.79244 0.42106 0.0
H1059 H 0.04973 0.80429 0.38845 0.0
H1060 H 0.09083 0.8119 0.40668 0.0
H1061 H 0.03701 0.93932 0.44542 0.0
H1062 H 1.00146 0.90489 0.42409 0.0
H1063 H 0.00761 0.88897 0.45413 0.0
H1064 H 0.9289 0.79172 0.37733 0.0
H1065 H 0.93049 0.75621 0.45291 0.0
H1066 H 0.0271 0.85156 0.36961 0.0
H1067 H 0.01118 0.88344 0.38117 0.0
H1068 H 0.98142 0.84567 0.35935 0.0
H1069 H 0.0264 0.80089 0.46202 0.0
H1070 H 0.98373 0.79021 0.47963 0.0
H1071 H 0.01886 0.83958 0.47157 0.0
C1072 C 0.87673 0.07848 0.13571 0.0
C1073 C 0.85376 0.08843 0.12132 0.0
C1074 C 0.8704 0.04061 0.13529 0.0
C1075 C 0.83929 0.01185 0.121 0.0
C1076 C 0.81656 0.02187 0.10607 0.0
C1077 C 0.82513 0.06037 0.10574 0.0
C1078 C 0.89686 0.03131 0.15023 0.0
C1079 C 0.7821 0.99202 0.09136 0.0
C1080 C 0.85171 0.92525 0.1135 0.0
C1081 C 0.83302 0.90493 0.13514 0.0
C1082 C 0.85019 0.95836 0.10676 0.0
C1083 C 0.83043 0.9713 0.12253 0.0
C1084 C 0.80756 0.94794 0.14255 0.0
C1085 C 0.80913 0.91472 0.14864 0.0
C1086 C 0.87267 0.98142 0.08426 0.0
C1087 C 0.78512 0.96022 0.15931 0.0
H1088 H 0.89976 0.10029 0.1472 0.0
H1089 H 0.80873 0.06805 0.09353 0.0
H1090 H 0.87975 0.00741 0.16353 0.0
H1091 H 0.91203 0.02132 0.13741 0.0
H1092 H 0.91899 0.05674 0.16089 0.0
H1093 H 0.77598 0.00531 0.07505 0.0
H1094 H 0.78619 0.96798 0.08462 0.0
H1095 H 0.75616 0.97944 0.10363 0.0
H1096 H 0.86958 0.91685 0.10294 0.0
H1097 H 0.79436 0.89828 0.1652 0.0
H1098 H 0.9001 0.00701 0.09055 0.0
H1099 H 0.85598 0.99219 0.07374 0.0
H1100 H 0.87988 0.96395 0.07145 0.0
H1101 H 0.80538 0.9822 0.17282 0.0
H1102 H 0.76242 0.93537 0.17005 0.0
H1103 H 0.77121 0.97357 0.14836 0.0
C1104 C 0.22181 0.15615 0.39062 0.0
C1105 C 0.24182 0.15547 0.41185 0.0
C1106 C 0.1892 0.16052 0.39285 0.0
C1107 C 0.17599 0.16352 0.41695 0.0
C1108 C 0.19538 0.16156 0.43849 0.0
C1109 C 0.22839 0.15792 0.43567 0.0
C1110 C 0.16971 0.16327 0.36934 0.0
C1111 C 0.18141 0.16345 0.46441 0.0
C1112 C 0.12093 0.21584 0.40876 0.0
C1113 C 0.0844 0.18459 0.4029 0.0
C1114 C 0.15061 0.2094 0.41692 0.0
C1115 C 0.14313 0.17084 0.41897 0.0
C1116 C 0.10468 0.13952 0.4168 0.0
C1117 C 0.07557 0.14683 0.40862 0.0
C1118 C 0.19105 0.24366 0.41968 0.0
C1119 C 0.09522 0.09802 0.41945 0.0
H1120 H 0.23241 0.15459 0.37223 0.0
H1121 H 0.24374 0.15698 0.45213 0.0
H1122 H 0.13836 0.14144 0.36967 0.0
H1123 H 0.17234 0.1923 0.36829 0.0
H1124 H 0.18259 0.15872 0.35215 0.0
H1125 H 0.2009 0.16336 0.4792 0.0
H1126 H 0.17912 0.18991 0.46656 0.0
H1127 H 0.15198 0.13822 0.46734 0.0
H1128 H 0.12746 0.24502 0.40429 0.0
H1129 H 0.04712 0.12276 0.40403 0.0
H1130 H 0.20777 0.24671 0.4024 0.0
H1131 H 0.20658 0.2395 0.43548 0.0
H1132 H 0.19065 0.27105 0.42268 0.0
H1133 H 0.09991 0.08766 0.40122 0.0
H1134 H 0.06442 0.07893 0.42485 0.0
H1135 H 0.11405 0.09515 0.43351 0.0
C1136 C 0.09128 0.92744 0.11052 0.0
C1137 C 0.11327 0.92286 0.12914 0.0
C1138 C 0.05587 0.89573 0.10298 0.0
C1139 C 0.04245 0.85966 0.11499 0.0
C1140 C 0.06748 0.85392 0.13084 0.0
C1141 C 0.10303 0.88582 0.13761 0.0
C1142 C 0.03112 0.90169 0.08424 0.0
C1143 C 0.05489 0.81519 0.14286 0.0
C1144 C 0.93746 0.80099 0.13473 0.0
C1145 C 0.92343 0.76939 0.11833 0.0
C1146 C 0.97577 0.83167 0.13285 0.0
C1147 C 1.00075 0.83021 0.11449 0.0
C1148 C 0.98634 0.79928 0.09726 0.0
C1149 C 0.94772 0.76968 0.09913 0.0
C1150 C 0.98987 0.86515 0.151 0.0
C1151 C 0.01138 0.79605 0.07726 0.0
H1152 H 0.09966 0.95626 0.10384 0.0
H1153 H 0.1206 0.88264 0.15184 0.0
H1154 H 0.01612 0.87618 0.07166 0.0
H1155 H 0.00862 0.90512 0.09425 0.0
H1156 H 0.04863 0.928 0.07274 0.0
H1157 H 0.0788 0.81503 0.15342 0.0
H1158 H 0.03059 0.80799 0.15595 0.0
H1159 H 0.04425 0.79212 0.12839 0.0
H1160 H 0.91875 0.80155 0.14924 0.0
H1161 H 0.937 0.74636 0.08565 0.0
H1162 H 1.00154 0.89282 0.1406 0.0
H1163 H 0.01381 0.86687 0.16253 0.0
H1164 H 0.9665 0.86243 0.16364 0.0
H1165 H 0.99618 0.7893 0.05898 0.0
H1166 H 0.016 0.77158 0.08186 0.0
H1167 H 0.04014 0.8225 0.07519 0.0
C1168 C 0.86216 0.93506 0.40072 0.0
C1169 C 0.8247 0.90306 0.40058 0.0
C1170 C 0.86854 0.97143 0.40816 0.0
C1171 C 0.8366 0.97517 0.4159 0.0
C1172 C 0.79985 0.94171 0.41942 0.0
C1173 C 0.79419 0.90573 0.41143 0.0
C1174 C 0.90823 0.00638 0.40434 0.0
C1175 C 0.76529 0.94447 0.42817 0.0
C1176 C 0.85558 0.0753 0.43336 0.0
C1177 C 0.85026 0.0884 0.41025 0.0
C1178 C 0.85098 0.03823 0.43571 0.0
C1179 C 0.83972 0.01367 0.41457 0.0
C1180 C 0.83297 0.02644 0.39137 0.0
C1181 C 0.83894 0.06403 0.38941 0.0
C1182 C 0.85852 0.02552 0.4606 0.0
C1183 C 0.82007 1.0007 0.36847 0.0
H1184 H 0.88555 0.93252 0.39227 0.0
H1185 H 0.76522 0.88068 0.41122 0.0
H1186 H 0.90769 0.02262 0.38766 0.0
H1187 H 0.91658 0.02625 0.42061 0.0
H1188 H 0.93076 0.99813 0.40139 0.0
H1189 H 0.74276 0.91669 0.43643 0.0
H1190 H 0.77372 0.96794 0.44215 0.0
H1191 H 0.75229 0.95114 0.41195 0.0
H1192 H 0.86414 0.0944 0.44947 0.0
H1193 H 0.83408 0.07416 0.37172 0.0
H1194 H 0.88225 0.01878 0.45875 0.0
H1195 H 0.83236 0.99859 0.46681 0.0
H1196 H 0.86663 0.04804 0.47529 0.0
H1197 H 0.84369 0.99553 0.36228 0.0
H1198 H 0.81239 0.01367 0.35271 0.0
H1199 H 0.79451 0.9721 0.37286 0.0
C1200 C 0.15476 0.07716 0.62235 0.0
C1201 C 0.19062 0.08425 0.63136 0.0
C1202 C 0.1501 0.10792 0.61423 0.0
C1203 C 0.18209 0.14608 0.61557 0.0
C1204 C 0.21949 0.15235 0.62119 0.0
C1205 C 0.22331 0.121 0.62902 0.0
C1206 C 0.11002 0.10016 0.60764 0.0
C1207 C 0.25435 0.19259 0.62288 0.0
C1208 C 0.17181 0.23233 0.59821 0.0
C1209 C 0.16263 0.24208 0.62146 0.0
C1210 C 0.17793 0.20086 0.5958 0.0
C1211 C 0.17494 0.17893 0.6172 0.0
C1212 C 0.16561 0.1886 0.64073 0.0
C1213 C 0.15927 0.21999 0.64253 0.0
C1214 C 0.18773 0.19122 0.57049 0.0
C1215 C 0.16247 0.16593 0.6641 0.0
H1216 H 0.12962 0.04844 0.62424 0.0
H1217 H 0.25096 0.12606 0.63611 0.0
H1218 H 0.09764 0.10778 0.62381 0.0
H1219 H 0.11115 0.11831 0.59162 0.0
H1220 H 0.09022 0.06918 0.60294 0.0
H1221 H 0.28179 0.19199 0.62089 0.0
H1222 H 0.25352 0.21205 0.60844 0.0
H1223 H 0.25451 0.20514 0.64145 0.0
H1224 H 0.1741 0.24925 0.5818 0.0
H1225 H 0.15246 0.2277 0.66051 0.0
H1226 H 0.16615 0.16099 0.56529 0.0
H1227 H 0.21645 0.19313 0.57115 0.0
H1228 H 0.18841 0.21099 0.55564 0.0
H1229 H 0.13745 0.13606 0.66239 0.0
H1230 H 0.15843 0.17941 0.68118 0.0
H1231 H 0.18887 0.16361 0.66653 0.0
C1232 C 0.05555 0.81097 0.91666 0.0
C1233 C 0.08816 0.84672 0.91141 0.0
C1234 C 0.01934 0.80726 0.92053 0.0
C1235 C 0.0154 0.84026 0.91791 0.0
C1236 C 0.04864 0.87717 0.91382 0.0
C1237 C 0.0849 0.87996 0.9106 0.0
C1238 C 0.98546 0.76734 0.92575 0.0
C1239 C 0.04571 0.91342 0.91196 0.0
C1240 C 0.92956 0.82847 0.88213 0.0
C1241 C 0.9114 0.83938 0.90003 0.0
C1242 C 0.96232 0.82631 0.88827 0.0
C1243 C 0.97678 0.83507 0.913 0.0
C1244 C 0.95589 0.84178 0.93185 0.0
C1245 C 0.92316 0.84418 0.92505 0.0
C1246 C 0.98252 0.81661 0.86795 0.0
C1247 C 0.9685 0.84695 0.95883 0.0
H1248 H 0.05775 0.78541 0.91668 0.0
H1249 H 0.11051 0.9079 0.90729 0.0
H1250 H 0.95862 0.76751 0.93099 0.0
H1251 H 0.97962 0.74868 0.90902 0.0
H1252 H 0.99306 0.7538 0.94119 0.0
H1253 H 0.07359 0.93906 0.90632 0.0
H1254 H 0.02306 0.90937 0.89828 0.0
H1255 H 0.03718 0.91962 0.93038 0.0
H1256 H 0.91913 0.82349 0.863 0.0
H1257 H 0.90789 0.85138 0.9389 0.0
H1258 H 0.98201 0.78927 0.87264 0.0
H1259 H 0.01331 0.8398 0.86646 0.0
H1260 H 0.96858 0.81289 0.84939 0.0
H1261 H 0.96976 0.82108 0.96514 0.0
H1262 H 0.94852 0.85107 0.97127 0.0
H1263 H 0.99809 0.87228 0.96083 0.0
C1264 C 0.80094 0.92714 0.60249 0.0
C1265 C 0.7718 0.92214 0.61917 0.0
C1266 C 0.83354 0.96387 0.59889 0.0
C1267 C 0.83652 0.99588 0.6123 0.0
C1268 C 0.80569 0.99103 0.62804 0.0
C1269 C 0.7738 0.95395 0.63144 0.0
C1270 C 0.8651 0.96818 0.58133 0.0
C1271 C 0.80637 0.02472 0.64158 0.0
C1272 C 0.92928 0.07271 0.64016 0.0
C1273 C 0.9309 0.10579 0.63018 0.0
C1274 C 0.9004 0.03593 0.63272 0.0
C1275 C 0.87399 0.03252 0.61384 0.0
C1276 C 0.87969 0.06589 0.60083 0.0
C1277 C 0.90796 0.10264 0.60952 0.0
C1278 C 0.89462 1.00147 0.64787 0.0
C1279 C 0.85377 0.06278 0.57934 0.0
H1280 H 0.79836 0.90226 0.59247 0.0
H1281 H 0.75037 0.94977 0.64369 0.0
H1282 H 0.87571 0.99474 0.56985 0.0
H1283 H 0.89006 0.97108 0.59223 0.0
H1284 H 0.85499 0.94274 0.56872 0.0
H1285 H 0.78337 0.01496 0.65606 0.0
H1286 H 0.83482 0.04348 0.65064 0.0
H1287 H 0.80145 0.04272 0.62792 0.0
H1288 H 0.9475 0.07569 0.65604 0.0
H1289 H 0.90979 0.12856 0.60167 0.0
H1290 H 0.89049 0.97736 0.63552 0.0
H1291 H 0.8681 0.99086 0.65946 0.0
H1292 H 0.91946 0.00881 0.66052 0.0
H1293 H 0.85314 0.04204 0.56521 0.0
H1294 H 0.8636 0.09121 0.5702 0.0
H1295 H 0.82361 0.05129 0.58598 0.0
C1296 C 0.17939 0.23893 0.9366 0.0
C1297 C 0.15741 0.24215 0.91718 0.0
C1298 C 0.18593 0.20755 0.9378 0.0
C1299 C 0.16873 0.17779 0.91974 0.0
C1300 C 0.14361 0.17906 0.90146 0.0
C1301 C 0.13866 0.21152 0.90019 0.0
C1302 C 0.21317 0.20764 0.95744 0.0
C1303 C 0.12316 0.1468 0.8826 0.0
C1304 C 0.21615 0.12405 0.8938 0.0
C1305 C 0.19003 0.08627 0.90149 0.0
C1306 C 0.21158 0.15508 0.90147 0.0
C1307 C 0.18057 0.148 0.91762 0.0
C1308 C 0.15759 0.11076 0.92824 0.0
C1309 C 0.16236 0.07996 0.9198 0.0
C1310 C 0.23687 0.19433 0.88974 0.0
C1311 C 0.1258 0.1028 0.94668 0.0
H1312 H 0.19287 0.26164 0.95044 0.0
H1313 H 0.12071 0.21323 0.88561 0.0
H1314 H 0.20255 0.17817 0.96506 0.0
H1315 H 0.24192 0.21728 0.94886 0.0
H1316 H 0.21721 0.22767 0.97311 0.0
H1317 H 0.10468 0.15221 0.8696 0.0
H1318 H 0.14468 0.14321 0.87147 0.0
H1319 H 0.10462 0.11904 0.89244 0.0
H1320 H 0.23748 0.12862 0.87961 0.0
H1321 H 0.14224 0.05059 0.92573 0.0
H1322 H 0.24722 0.21759 0.90403 0.0
H1323 H 0.21962 0.19996 0.87584 0.0
H1324 H 0.26239 0.19613 0.88006 0.0
H1325 H 0.13703 0.12483 0.96181 0.0
H1326 H 0.11338 0.07355 0.95515 0.0
H1327 H 0.10222 0.1049 0.93714 0.0
C1328 C 0.07058 0.83602 0.5966 0.0
C1329 C 0.08892 0.84501 0.62004 0.0
C1330 C 0.03239 0.82837 0.59396 0.0
C1331 C 0.01225 0.82977 0.6153 0.0
C1332 C 0.03044 0.83821 0.63909 0.0
C1333 C 0.06868 0.84597 0.64113 0.0
C1334 C 0.01412 0.8198 0.56833 0.0
C1335 C 0.00943 0.8389 0.66246 0.0
C1336 C 0.93175 0.85199 0.61999 0.0
C1337 C 0.90196 0.81617 0.62833 0.0
C1338 C 0.96717 0.85605 0.61226 0.0
C1339 C 0.97244 0.82349 0.61328 0.0
C1340 C 0.94046 0.78628 0.61823 0.0
C1341 C 0.90529 0.78306 0.62573 0.0
C1342 C 1.00039 0.89606 0.60658 0.0
C1343 C 0.94478 0.75077 0.61887 0.0
H1344 H 0.08625 0.83539 0.5802 0.0
H1345 H 0.08256 0.85226 0.6593 0.0
H1346 H 0.98443 0.79432 0.56883 0.0
H1347 H 0.01158 0.84488 0.56191 0.0
H1348 H 0.03148 0.81426 0.55439 0.0
H1349 H 0.02773 0.84587 0.67946 0.0
H1350 H 1.00008 0.86073 0.66058 0.0
H1351 H 0.98296 0.81026 0.66515 0.0
H1352 H 0.92889 0.87751 0.62215 0.0
H1353 H 0.88193 0.75543 0.63226 0.0
H1354 H 0.01853 0.89515 0.59116 0.0
H1355 H 0.01907 0.90777 0.62339 0.0
H1356 H 0.98998 0.91629 0.60145 0.0
H1357 H 0.95917 0.7489 0.60161 0.0
H1358 H 0.9164 0.72367 0.62079 0.0
H1359 H 0.9634 0.75285 0.63489 0.0
C1360 C 0.9041 0.0994 0.92225 0.0
C1361 C 0.92363 0.10806 0.89937 0.0
C1362 C 0.8779 0.06074 0.92859 0.0
C1363 C 0.87102 0.031 0.91128 0.0
C1364 C 0.89354 0.03982 0.88923 0.0
C1365 C 0.91992 0.07841 0.88369 0.0
C1366 C 0.85537 0.05206 0.95268 0.0
C1367 C 0.88625 0.00932 0.86979 0.0
C1368 C 0.80441 0.92307 0.91844 0.0
C1369 C 0.77101 0.91862 0.90688 0.0
C1370 C 0.83683 0.96008 0.92168 0.0
C1371 C 0.83537 0.99281 0.91292 0.0
C1372 C 0.80092 0.98819 0.90196 0.0
C1373 C 0.76923 0.95095 0.89896 0.0
C1374 C 0.87269 0.96416 0.93406 0.0
C1375 C 0.79719 0.02228 0.89329 0.0
H1376 H 0.90765 0.12278 0.93439 0.0
H1377 H 0.93552 0.08572 0.86609 0.0
H1378 H 0.82544 0.0457 0.94868 0.0
H1379 H 0.85324 0.02609 0.9618 0.0
H1380 H 0.86888 0.07688 0.96592 0.0
H1381 H 0.90981 0.01995 0.85566 0.0
H1382 H 0.88329 0.9828 0.8785 0.0
H1383 H 0.85865 1.0011 0.85996 0.0
H1384 H 0.80504 0.89766 0.925 0.0
H1385 H 0.7431 0.94704 0.89017 0.0
H1386 H 0.883 0.9868 0.9488 0.0
H1387 H 0.89632 0.97352 0.92012 0.0
H1388 H 0.86746 0.93652 0.94251 0.0
H1389 H 0.79143 0.03569 0.90971 0.0
H1390 H 0.77277 0.01327 0.87997 0.0
H1391 H 0.82405 0.04483 0.88417 0.0
C1392 C 0.32442 0.1794 0.31739 0.0
C1393 C 0.35638 0.19119 0.3335 0.0
C1394 C 0.32876 0.18509 0.2913 0.0
C1395 C 0.36627 0.20406 0.28043 0.0
C1396 C 0.39885 0.21909 0.29679 0.0
C1397 C 0.3936 0.21223 0.323 0.0
C1398 C 0.29273 0.1683 0.2753 0.0
C1399 C 0.43937 0.24173 0.28644 0.0
C1400 C 0.37495 0.17135 0.21411 0.0
C1401 C 0.36677 0.19463 0.1986 0.0
C1402 C 0.37594 0.17493 0.24043 0.0
C1403 C 0.37089 0.20413 0.25211 0.0
C1404 C 0.36651 0.23041 0.23638 0.0
C1405 C 0.36297 0.22445 0.21009 0.0
C1406 C 0.37766 0.1443 0.25573 0.0
C1407 C 0.36381 0.264 0.24711 0.0
H1408 H 0.2954 0.16392 0.32512 0.0
H1409 H 0.41863 0.22208 0.33506 0.0
H1410 H 0.29437 0.18996 0.26171 0.0
H1411 H 0.29022 0.14333 0.2645 0.0
H1412 H 0.26599 0.15821 0.28663 0.0
H1413 H 0.46166 0.25322 0.30143 0.0
H1414 H 0.44526 0.22312 0.27386 0.0
H1415 H 0.44218 0.26628 0.27509 0.0
H1416 H 0.37826 0.14848 0.20564 0.0
H1417 H 0.35563 0.2424 0.19899 0.0
H1418 H 0.34805 0.12508 0.26281 0.0
H1419 H 0.39707 0.15666 0.2721 0.0
H1420 H 0.38701 0.12687 0.2446 0.0
H1421 H 0.33293 0.25532 0.24985 0.0
H1422 H 0.37645 0.28892 0.234 0.0
H1423 H 0.37896 0.27368 0.26535 0.0
C1424 C 0.86007 0.69581 0.31612 0.0
C1425 C 0.84967 0.66446 0.33246 0.0
C1426 C 0.85866 0.69135 0.29001 0.0
C1427 C 0.85278 0.65624 0.27932 0.0
C1428 C 0.84817 0.62616 0.2958 0.0
C1429 C 0.84501 0.62995 0.32205 0.0
C1430 C 0.86159 0.72398 0.27407 0.0
C1431 C 0.84862 0.59092 0.28594 0.0
C1432 C 0.81164 0.63179 0.21255 0.0
C1433 C 0.84414 0.6565 0.19815 0.0
C1434 C 0.81405 0.63031 0.2389 0.0
C1435 C 0.85057 0.65154 0.25111 0.0
C1436 C 0.88413 0.67284 0.23605 0.0
C1437 C 0.88029 0.67652 0.21009 0.0
C1438 C 0.77699 0.60824 0.2537 0.0
C1439 C 0.92436 0.6928 0.24712 0.0
H1440 H 0.86639 0.72364 0.32366 0.0
H1441 H 0.83926 0.60609 0.33433 0.0
H1442 H 0.89049 0.7397 0.26518 0.0
H1443 H 0.83955 0.71258 0.259 0.0
H1444 H 0.85755 0.74527 0.28522 0.0
H1445 H 0.8386 0.56759 0.30015 0.0
H1446 H 0.83074 0.57922 0.26888 0.0
H1447 H 0.87881 0.59953 0.28061 0.0
H1448 H 0.78361 0.61628 0.20346 0.0
H1449 H 0.90575 0.69546 0.19916 0.0
H1450 H 0.77561 0.62696 0.26858 0.0
H1451 H 0.77602 0.58298 0.26298 0.0
H1452 H 0.75081 0.59742 0.24173 0.0
H1453 H 0.93472 0.7241 0.24956 0.0
H1454 H 0.94494 0.69051 0.23417 0.0
H1455 H 0.92541 0.68035 0.26544 0.0
C1456 C 0.84716 0.15949 0.21759 0.0
C1457 C 0.82535 0.16789 0.20068 0.0
C1458 C 0.84433 0.16261 0.24354 0.0
C1459 C 0.81335 0.16611 0.25364 0.0
C1460 C 0.78661 0.16768 0.23663 0.0
C1461 C 0.79422 0.17091 0.21049 0.0
C1462 C 0.8759 0.16346 0.25968 0.0
C1463 C 0.74985 0.16574 0.24568 0.0
C1464 C 0.8056 0.13701 0.32237 0.0
C1465 C 0.81923 0.17251 0.33481 0.0
C1466 C 0.7993 0.1337 0.2963 0.0
C1467 C 0.8094 0.16727 0.28177 0.0
C1468 C 0.8218 0.203 0.29451 0.0
C1469 C 0.82575 0.20493 0.32085 0.0
C1470 C 0.7836 0.09431 0.28435 0.0
C1471 C 0.83481 0.24021 0.28038 0.0
H1472 H 0.869 0.15326 0.21061 0.0
H1473 H 0.77541 0.17509 0.19784 0.0
H1474 H 0.87963 0.17892 0.27763 0.0
H1475 H 0.86904 0.13343 0.26368 0.0
H1476 H 0.90417 0.17794 0.24973 0.0
H1477 H 0.72603 0.14976 0.23203 0.0
H1478 H 0.74054 0.15126 0.26412 0.0
H1479 H 0.75435 0.19544 0.24728 0.0
H1480 H 0.80084 0.11184 0.33297 0.0
H1481 H 0.83718 0.23263 0.33028 0.0
H1482 H 0.80794 0.08974 0.27917 0.0
H1483 H 0.76666 0.09151 0.26724 0.0
H1484 H 0.76485 0.07092 0.29759 0.0
H1485 H 0.86393 0.25007 0.27233 0.0
H1486 H 0.83657 0.26352 0.29271 0.0
H1487 H 0.81507 0.23606 0.26468 0.0
C1488 C 0.18256 0.32151 0.71462 0.0
C1489 C 0.19337 0.35328 0.6986 0.0
C1490 C 0.18882 0.32615 0.74067 0.0
C1491 C 0.20678 0.36371 0.75152 0.0
C1492 C 0.22076 0.39617 0.73521 0.0
C1493 C 0.21374 0.39063 0.70906 0.0
C1494 C 0.17379 0.29033 0.75667 0.0
C1495 C 0.24219 0.43682 0.74556 0.0
C1496 C 0.17058 0.36909 0.81718 0.0
C1497 C 0.19474 0.36264 0.83303 0.0
C1498 C 0.17542 0.37128 0.79095 0.0
C1499 C 0.20607 0.36829 0.77974 0.0
C1500 C 0.2333 0.36619 0.79579 0.0
C1501 C 0.22689 0.36248 0.82201 0.0
C1502 C 0.14525 0.37286 0.77504 0.0
C1503 C 0.26859 0.36635 0.78544 0.0
H1504 H 0.16762 0.29246 0.70686 0.0
H1505 H 0.22276 0.4155 0.697 0.0
H1506 H 0.19596 0.29344 0.7704 0.0
H1507 H 0.1481 0.28628 0.76731 0.0
H1508 H 0.16526 0.26385 0.74535 0.0
H1509 H 0.25263 0.45905 0.73059 0.0
H1510 H 0.22317 0.44182 0.75832 0.0
H1511 H 0.26736 0.44077 0.75674 0.0
H1512 H 0.14663 0.37085 0.82531 0.0
H1513 H 0.24673 0.35819 0.83331 0.0
H1514 H 0.12705 0.34354 0.76716 0.0
H1515 H 0.1581 0.39304 0.75913 0.0
H1516 H 0.12708 0.38154 0.78587 0.0
H1517 H 0.26163 0.33614 0.78181 0.0
H1518 H 0.29289 0.37925 0.79907 0.0
H1519 H 0.27841 0.38277 0.76767 0.0
C1520 C 0.21007 0.83068 0.81986 0.0
C1521 C 0.17636 0.8167 0.83436 0.0
C1522 C 0.20832 0.82732 0.79346 0.0
C1523 C 0.17187 0.8075 0.7811 0.0
C1524 C 0.13779 0.79001 0.79603 0.0
C1525 C 0.14038 0.79607 0.82222 0.0
C1526 C 0.24559 0.84699 0.77876 0.0
C1527 C 0.09849 0.76497 0.78431 0.0
C1528 C 0.15822 0.83997 0.71641 0.0
C1529 C 0.17062 0.82096 0.69972 0.0
C1530 C 0.16 0.83686 0.74251 0.0
C1531 C 0.16921 0.80977 0.75287 0.0
C1532 C 0.17704 0.78666 0.73608 0.0
C1533 C 0.17909 0.79351 0.70985 0.0
C1534 C 0.15427 0.86458 0.7589 0.0
C1535 C 0.18385 0.75497 0.74548 0.0
H1536 H 0.23797 0.84683 0.82903 0.0
H1537 H 0.11407 0.78532 0.83313 0.0
H1538 H 0.24973 0.82495 0.7688 0.0
H1539 H 0.24422 0.86638 0.76447 0.0
H1540 H 0.27126 0.86424 0.79087 0.0
H1541 H 0.07505 0.7517 0.7985 0.0
H1542 H 0.0915 0.78205 0.77118 0.0
H1543 H 0.0988 0.74151 0.77325 0.0
H1544 H 0.14959 0.85988 0.70915 0.0
H1545 H 0.18746 0.77747 0.69742 0.0
H1546 H 0.1786 0.8791 0.77238 0.0
H1547 H 0.12718 0.84867 0.76985 0.0
H1548 H 0.15261 0.88728 0.74787 0.0
H1549 H 0.21546 0.76601 0.74659 0.0
H1550 H 0.1715 0.73011 0.73225 0.0
H1551 H 0.17089 0.74436 0.76421 0.0
C1552 C 0.6221 0.82457 0.70845 0.0
C1553 C 0.65915 0.84267 0.69755 0.0
C1554 C 0.61727 0.82554 0.73474 0.0
C1555 C 0.65019 0.84441 0.75076 0.0
C1556 C 0.68743 0.86449 0.73955 0.0
C1557 C 0.69126 0.8638 0.71338 0.0
C1558 C 0.57692 0.80483 0.74554 0.0
C1559 C 0.7239 0.88413 0.75516 0.0
C1560 C 0.65549 0.86737 0.82125 0.0
C1561 C 0.65292 0.834 0.8321 0.0
C1562 C 0.6505 0.86962 0.79513 0.0
C1563 C 0.64646 0.83941 0.779 0.0
C1564 C 0.64241 0.80532 0.79013 0.0
C1565 C 0.64406 0.80256 0.81635 0.0
C1566 C 0.65032 0.90468 0.78476 0.0
C1567 C 0.64118 0.77338 0.77449 0.0
H1568 H 0.59699 0.80824 0.6966 0.0
H1569 H 0.7201 0.87847 0.70534 0.0
H1570 H 0.57222 0.7789 0.75606 0.0
H1571 H 0.57326 0.82407 0.75894 0.0
H1572 H 0.55432 0.79533 0.73082 0.0
H1573 H 0.74982 0.9034 0.74377 0.0
H1574 H 0.72147 0.90161 0.7704 0.0
H1575 H 0.72867 0.86166 0.76393 0.0
H1576 H 0.66259 0.8923 0.8328 0.0
H1577 H 0.6402 0.7761 0.82454 0.0
H1578 H 0.62633 0.89555 0.7711 0.0
H1579 H 0.67779 0.92347 0.77472 0.0
H1580 H 0.64689 0.92209 0.79974 0.0
H1581 H 0.62871 0.7456 0.78485 0.0
H1582 H 0.67149 0.7828 0.76954 0.0
H1583 H 0.62494 0.76838 0.75683 0.0
C1584 C 0.25635 0.93246 0.98539 0.0
C1585 C 0.22293 0.92323 0.97139 0.0
C1586 C 0.27353 0.9652 1.00174 0.0
C1587 C 0.25703 0.98955 1.00462 0.0
C1588 C 0.22271 0.97957 0.99101 0.0
C1589 C 0.2064 0.94705 0.97481 0.0
C1590 C 0.30984 0.97416 1.01575 0.0
C1591 C 0.20368 1.00408 0.9928 0.0
C1592 C 0.2714 0.04624 0.06571 0.0
C1593 C 0.30159 0.08441 0.06062 0.0
C1594 C 0.25782 0.01584 0.04811 0.0
C1595 C 0.27309 0.02288 0.02359 0.0
C1596 C 0.30242 0.06161 0.01761 0.0
C1597 C 0.31692 0.09155 0.03622 0.0
C1598 C 0.22678 0.97574 0.05599 0.0
C1599 C 0.31867 0.0715 0.99152 0.0
H1600 H 0.27029 0.91536 0.98258 0.0
H1601 H 0.18095 0.94096 0.96401 0.0
H1602 H 0.33293 1.0044 1.01196 0.0
H1603 H 0.30404 0.97182 0.03615 0.0
H1604 H 0.32071 0.9543 1.01056 0.0
H1605 H 0.17537 0.99072 0.98292 0.0
H1606 H 0.19894 0.00891 1.0126 0.0
H1607 H 0.22308 0.03292 0.98443 0.0
H1608 H 0.25848 0.03923 0.08406 0.0
H1609 H 0.33988 0.12046 0.03155 0.0
H1610 H 0.23659 0.95457 0.05234 0.0
H1611 H 0.2001 0.96652 0.04485 0.0
H1612 H 0.21926 0.9743 0.07611 0.0
H1613 H 0.33878 0.06023 0.9885 0.0
H1614 H 0.33478 0.10329 0.98831 0.0
H1615 H 0.29518 0.05767 0.97741 0.0
C1616 C 0.81275 0.74303 0.48034 0.0
C1617 C 0.79038 0.70442 0.47204 0.0
C1618 C 0.79795 0.75999 0.49711 0.0
C1619 C 0.75899 0.73847 0.50552 0.0
C1620 C 0.73648 0.69915 0.49765 0.0
C1621 C 0.75258 0.68241 0.48155 0.0
C1622 C 0.82403 0.80131 0.50549 0.0
C1623 C 0.69467 0.67518 0.50549 0.0
C1624 C 0.73372 0.7685 0.56767 0.0
C1625 C 0.71333 0.78768 0.56093 0.0
C1626 C 0.74764 0.75213 0.55008 0.0
C1627 C 0.74299 0.75583 0.52426 0.0
C1628 C 0.7235 0.77614 0.51689 0.0
C1629 C 0.70837 0.79124 0.53523 0.0
C1630 C 0.76759 0.73078 0.55939 0.0
C1631 C 0.71972 0.78303 0.48963 0.0
H1632 H 0.84179 0.76059 0.47292 0.0
H1633 H 0.73445 0.6531 0.4747 0.0
H1634 H 0.81012 0.81889 0.50168 0.0
H1635 H 0.82874 0.80209 0.52597 0.0
H1636 H 0.85272 0.81502 0.49608 0.0
H1637 H 0.68039 0.64563 0.49723 0.0
H1638 H 0.6927 0.67268 0.52615 0.0
H1639 H 0.67849 0.68981 0.49963 0.0
H1640 H 0.73828 0.76529 0.5872 0.0
H1641 H 0.69387 0.80676 0.52943 0.0
H1642 H 0.79799 0.7454 0.55267 0.0
H1643 H 0.75286 0.70081 0.55184 0.0
H1644 H 0.7678 0.72924 0.58011 0.0
H1645 H 0.74855 0.80487 0.48228 0.0
H1646 H 0.69929 0.79395 0.48659 0.0
H1647 H 0.70984 0.75603 0.47864 0.0
C1648 C 0.09065 0.2922 0.99462 0.0
C1649 C 0.08853 0.31262 0.9738 0.0
C1650 C 0.0608 0.2768 1.01323 0.0
C1651 C 0.02565 0.27788 1.00969 0.0
C1652 C 0.02355 0.29725 0.98808 0.0
C1653 C 0.05632 0.3178 0.9726 0.0
C1654 C 0.0674 0.2589 0.03611 0.0
C1655 C 0.98593 0.29389 0.97939 0.0
C1656 C 0.93739 0.2045 0.0494 0.0
C1657 C 0.92575 0.22826 0.06173 0.0
C1658 C 0.96847 0.21957 0.032 0.0
C1659 C 0.99154 0.26035 0.02818 0.0
C1660 C 0.97955 0.2844 0.04066 0.0
C1661 C 0.9461 0.26796 0.05616 0.0
C1662 C 0.97612 0.19118 0.01798 0.0
C1663 C 1.00265 0.32801 0.03837 0.0
H1664 H 0.11537 0.28795 0.99638 0.0
H1665 H 0.05587 0.33676 0.95852 0.0
H1666 H 0.04709 0.25473 0.05154 0.0
H1667 H 0.0643 0.23048 0.031 0.0
H1668 H 0.09754 0.2774 0.04298 0.0
H1669 H 0.97872 0.28 0.96067 0.0
H1670 H 0.9607 0.27601 0.99153 0.0
H1671 H 0.98945 0.32319 0.97748 0.0
H1672 H 0.92227 0.17377 0.05362 0.0
H1673 H 0.93811 0.28682 0.06589 0.0
H1674 H 0.9956 0.18482 0.02925 0.0
H1675 H 0.98974 0.20251 0.99951 0.0
H1676 H 0.9488 0.16326 1.01504 0.0
H1677 H 0.03424 0.33853 0.03867 0.0
H1678 H 0.99562 0.34261 0.0535 0.0
H1679 H 0.99565 0.33719 0.0206 0.0
C1680 C 0.2639 0.05072 0.46954 0.0
C1681 C 0.30131 0.08386 0.47148 0.0
C1682 C 0.25053 0.01884 0.48585 0.0
C1683 C 0.27325 0.02035 0.50661 0.0
C1684 C 0.30994 0.05478 0.50997 0.0
C1685 C 0.32396 0.08551 0.49211 0.0
C1686 C 0.21181 0.98326 0.48036 0.0
C1687 C 0.33464 0.05906 0.53239 0.0
C1688 C 0.21253 0.95295 0.56017 0.0
C1689 C 0.22263 0.92363 0.56056 0.0
C1690 C 0.2299 0.98479 0.5437 0.0
C1691 C 0.25684 0.98718 0.5255 0.0
C1692 C 0.26535 0.9564 0.52447 0.0
C1693 C 0.24879 0.92548 0.54218 0.0
C1694 C 0.22001 0.0166 0.54641 0.0
C1695 C 0.29157 0.95583 0.50438 0.0
H1696 H 0.24518 0.04842 0.45417 0.0
H1697 H 0.35276 0.11041 0.49414 0.0
H1698 H 0.21165 0.95624 0.48551 0.0
H1699 H 0.18883 0.98459 0.49124 0.0
H1700 H 0.20411 0.98148 0.46025 0.0
H1701 H 0.35898 0.08924 0.53462 0.0
H1702 H 0.31687 0.05044 0.54969 0.0
H1703 H 0.34688 0.0396 0.53032 0.0
H1704 H 0.19217 0.95227 0.57389 0.0
H1705 H 0.25713 0.90345 0.54202 0.0
H1706 H 0.20282 0.01638 0.53009 0.0
H1707 H 0.24689 0.04534 0.54696 0.0
H1708 H 0.20295 0.01332 0.56359 0.0
H1709 H 0.27736 0.95188 0.48591 0.0
H1710 H 0.29816 0.93212 0.50714 0.0
H1711 H 0.31916 0.98387 0.50382 0.0
C1712 C 0.74697 0.69691 0.06033 0.0
C1713 C 0.78476 0.70321 0.0598 0.0
C1714 C 0.73566 0.71936 0.0462 0.0
C1715 C 0.75836 0.74132 0.02556 0.0
C1716 C 0.79541 0.74395 0.02246 0.0
C1717 C 0.80905 0.72715 0.04056 0.0
C1718 C 0.69918 0.71923 0.05411 0.0
C1719 C 0.8215 0.76473 1.00059 0.0
C1720 C 0.68727 0.74711 0.97884 0.0
C1721 C 0.70529 0.78643 0.97252 0.0
C1722 C 0.70607 0.73219 0.99386 0.0
C1723 C 0.74107 0.75771 1.00685 0.0
C1724 C 0.75638 0.79835 1.00337 0.0
C1725 C 0.73979 0.81185 0.98521 0.0
C1726 C 0.68973 0.6888 0.99355 0.0
C1727 C 0.7886 0.82797 0.01961 0.0
H1728 H 0.72637 0.67533 0.07286 0.0
H1729 H 0.83856 0.73267 0.0395 0.0
H1730 H 0.69349 0.73977 0.04359 0.0
H1731 H 0.67387 0.68954 0.05237 0.0
H1732 H 0.70173 0.7276 0.0741 0.0
H1733 H 0.83376 0.74724 0.99289 0.0
H1734 H 0.80643 0.77076 0.98536 0.0
H1735 H 0.84644 0.7925 1.00712 0.0
H1736 H 0.66033 0.7272 0.96958 0.0
H1737 H 0.75366 0.84256 0.98112 0.0
H1738 H 0.69166 0.67661 1.01157 0.0
H1739 H 0.70667 0.68214 0.97997 0.0
H1740 H 0.65879 0.6731 0.98787 0.0
H1741 H 0.77595 0.82996 0.03766 0.0
H1742 H 0.80313 0.85719 1.01091 0.0
H1743 H 0.8107 0.8199 0.02397 0.0
C1744 C 0.0855 0.32509 0.54289 0.0
C1745 C 0.09056 0.30085 0.55965 0.0
C1746 C 0.05418 0.30978 0.52548 0.0
C1747 C 0.02646 0.26934 0.52501 0.0
C1748 C 0.03237 0.24484 0.54136 0.0
C1749 C 0.06423 0.26063 0.55792 0.0
C1750 C 0.05033 0.33706 0.50784 0.0
C1751 C 1.0048 0.2016 0.54156 0.0
C1752 C 0.92619 0.23433 0.49341 0.0
C1753 C 0.93015 0.21898 0.47062 0.0
C1754 C 0.95665 0.24982 0.51153 0.0
C1755 C 0.99288 0.25197 0.50644 0.0
C1756 C 0.99647 0.23571 0.48374 0.0
C1757 C 0.96521 0.21874 0.46683 0.0
C1758 C 0.95004 0.26378 0.53624 0.0
C1759 C 0.03412 0.23795 0.47621 0.0
H1760 H 0.10491 0.35611 0.5441 0.0
H1761 H 0.06758 0.24119 0.57046 0.0
H1762 H 0.04598 0.32574 0.48842 0.0
H1763 H 0.02451 0.3392 0.513 0.0
H1764 H 0.07619 0.36659 0.50832 0.0
H1765 H 0.01019 0.18716 0.55753 0.0
H1766 H 0.97434 0.19523 0.54249 0.0
H1767 H 0.00808 0.18867 0.52399 0.0
H1768 H 0.89957 0.23458 0.49705 0.0
H1769 H 0.96949 0.20688 0.4497 0.0
H1770 H 0.96976 0.29549 0.53801 0.0
H1771 H 0.9569 0.2498 0.55179 0.0
H1772 H 0.91968 0.25741 0.53837 0.0
H1773 H 0.05314 0.26659 0.46748 0.0
H1774 H 0.02933 0.21521 0.4623 0.0
H1775 H 0.04993 0.23518 0.49235 0.0
C1776 C 0.62084 0.20966 0.12192 0.0
C1777 C 0.62628 0.17786 0.11855 0.0
C1778 C 0.5844 0.20443 0.1284 0.0
C1779 C 0.55271 0.16641 0.1316 0.0
C1780 C 0.55907 0.13447 0.13072 0.0
C1781 C 0.59589 0.14058 0.12408 0.0
C1782 C 0.57901 0.23931 0.12926 0.0
C1783 C 0.52607 0.09348 0.13394 0.0
C1784 C 0.45492 0.15212 0.15271 0.0
C1785 C 0.43687 0.14903 0.12969 0.0
C1786 C 0.49275 0.15794 0.15377 0.0
C1787 C 0.5124 0.1597 0.1313 0.0
C1788 C 0.49373 0.15563 0.10804 0.0
C1789 C 0.45642 0.15078 0.10753 0.0
C1790 C 0.51189 0.16278 0.17885 0.0
C1791 C 0.51338 0.15707 0.08356 0.0
H1792 H 0.64428 0.2384 0.11729 0.0
H1793 H 0.59992 0.11592 0.12101 0.0
H1794 H 0.56232 0.23916 0.11263 0.0
H1795 H 0.56219 0.23829 0.14605 0.0
H1796 H 0.60714 0.26696 0.1294 0.0
H1797 H 0.53672 0.07308 0.13794 0.0
H1798 H 0.50644 0.09165 0.14925 0.0
H1799 H 0.50874 0.08396 0.11647 0.0
H1800 H 0.43989 0.15106 0.16985 0.0
H1801 H 0.44245 0.14818 0.08968 0.0
H1802 H 0.53915 0.19113 0.1797 0.0
H1803 H 0.51974 0.13995 0.18142 0.0
H1804 H 0.49289 0.16119 0.19456 0.0
H1805 H 0.53854 0.18657 0.08075 0.0
H1806 H 0.49356 0.14984 0.06733 0.0
H1807 H 0.52454 0.13655 0.08385 0.0
C1808 C 0.71387 0.54846 0.41935 0.0
C1809 C 0.7203 0.57632 0.4011 0.0
C1810 C 0.68023 0.51189 0.41922 0.0
C1811 C 0.6519 0.50267 0.40041 0.0
C1812 C 0.65846 0.53034 0.38165 0.0
C1813 C 0.69277 0.56666 0.38208 0.0
C1814 C 0.67512 0.48312 0.43933 0.0
C1815 C 0.62894 0.52199 0.36144 0.0
C1816 C 0.58453 0.3939 0.39753 0.0
C1817 C 0.55514 0.38931 0.41396 0.0
C1818 C 0.61449 0.43107 0.39077 0.0
C1819 C 0.61534 0.46428 0.40112 0.0
C1820 C 0.5837 0.45963 0.41584 0.0
C1821 C 0.55396 0.42215 0.42205 0.0
C1822 C 0.64709 0.43466 0.37454 0.0
C1823 C 0.58338 0.49392 0.4276 0.0
H1824 H 0.73522 0.55517 0.43391 0.0
H1825 H 0.69778 0.58748 0.36761 0.0
H1826 H 0.6464 0.47141 0.44844 0.0
H1827 H 0.67632 0.45835 0.43079 0.0
H1828 H 0.69792 0.49611 0.45395 0.0
H1829 H 0.64048 0.54428 0.34649 0.0
H1830 H 0.61924 0.49315 0.35293 0.0
H1831 H 0.6031 0.52134 0.36973 0.0
H1832 H 0.5858 0.36853 0.39159 0.0
H1833 H 0.53161 0.41861 0.43514 0.0
H1834 H 0.67224 0.44064 0.38648 0.0
H1835 H 0.65674 0.4591 0.36123 0.0
H1836 H 0.63845 0.40762 0.36383 0.0
H1837 H 0.60139 0.50248 0.44479 0.0
H1838 H 0.55357 0.48678 0.4329 0.0
H1839 H 0.59578 0.51925 0.41489 0.0
C1840 C 0.8289 0.28896 0.12799 0.0
C1841 C 0.86343 0.29168 0.13648 0.0
C1842 C 0.82358 0.32123 0.12839 0.0
C1843 C 0.85421 0.35765 0.13654 0.0
C1844 C 0.88846 0.36005 0.14624 0.0
C1845 C 0.89216 0.32677 0.14662 0.0
C1846 C 0.78599 0.31673 0.11866 0.0
C1847 C 0.92194 0.39765 0.15569 0.0
C1848 C 0.85796 0.441 0.10036 0.0
C1849 C 0.83742 0.45271 0.11596 0.0
C1850 C 0.86533 0.4115 0.1075 0.0
C1851 C 0.85238 0.39348 0.13107 0.0
C1852 C 0.83503 0.40782 0.14796 0.0
C1853 C 0.82731 0.43709 0.14009 0.0
C1854 C 0.88471 0.39782 0.08909 0.0
C1855 C 0.82235 0.3906 0.17366 0.0
H1856 H 0.80619 0.26165 0.12057 0.0
H1857 H 0.91853 0.32898 0.1536 0.0
H1858 H 0.77467 0.33042 0.13167 0.0
H1859 H 0.7912 0.33164 0.10039 0.0
H1860 H 0.76343 0.28581 0.11611 0.0
H1861 H 0.94999 0.39913 0.15165 0.0
H1862 H 0.92272 0.42355 0.14752 0.0
H1863 H 0.91941 0.3989 0.17629 0.0
H1864 H 0.86588 0.45316 0.08174 0.0
H1865 H 0.81124 0.44592 0.15217 0.0
H1866 H 0.86408 0.3675 0.08342 0.0
H1867 H 0.91 0.39809 0.09798 0.0
H1868 H 0.89472 0.41606 0.07203 0.0
H1869 H 0.79373 0.36372 0.17231 0.0
H1870 H 0.81942 0.41092 0.18651 0.0
H1871 H 0.84317 0.38288 0.18183 0.0
C1872 C 0.46352 0.17597 0.38501 0.0
C1873 C 0.43692 0.14955 0.40218 0.0
C1874 C 0.50265 0.18533 0.38528 0.0
C1875 C 0.515 0.16695 0.4027 0.0
C1876 C 0.48773 0.13982 0.41983 0.0
C1877 C 0.44921 0.13186 0.41954 0.0
C1878 C 0.53059 0.21482 0.36698 0.0
C1879 C 0.49945 0.11979 0.43895 0.0
C1880 C 0.60174 0.15211 0.39863 0.0
C1881 C 0.626 0.1779 0.41705 0.0
C1882 C 0.56716 0.15114 0.39165 0.0
C1883 C 0.55625 0.1759 0.40381 0.0
C1884 C 0.58262 0.2045 0.42063 0.0
C1885 C 0.61724 0.2052 0.42695 0.0
C1886 C 0.54055 0.12115 0.373 0.0
C1887 C 0.57318 0.2327 0.4333 0.0
H1888 H 0.45395 0.1902 0.37192 0.0
H1889 H 0.42856 0.11179 0.43298 0.0
H1890 H 0.5576 0.23626 0.37655 0.0
H1891 H 0.53871 0.19995 0.35268 0.0
H1892 H 0.51789 0.23054 0.35735 0.0
H1893 H 0.47461 0.09888 0.45053 0.0
H1894 H 0.51219 0.10394 0.4295 0.0
H1895 H 0.52199 0.14169 0.45148 0.0
H1896 H 0.60828 0.13076 0.39108 0.0
H1897 H 0.63608 0.22518 0.44116 0.0
H1898 H 0.52839 0.13384 0.35988 0.0
H1899 H 0.51587 0.09709 0.38303 0.0
H1900 H 0.55569 0.10895 0.36209 0.0
H1901 H 0.57426 0.25375 0.41935 0.0
H1902 H 0.59395 0.24917 0.44853 0.0
H1903 H 0.54348 0.21744 0.44126 0.0
C1904 C 0.55807 0.41298 0.13319 0.0
C1905 C 0.56445 0.38477 0.12206 0.0
C1906 C 0.58953 0.4489 0.14078 0.0
C1907 C 0.62793 0.45682 0.13653 0.0
C1908 C 0.63415 0.42661 0.12824 0.0
C1909 C 0.60226 0.39085 0.12125 0.0
C1910 C 0.58174 0.47983 0.15068 0.0
C1911 C 0.67455 0.43346 0.12396 0.0
C1912 C 0.69883 0.55658 0.11102 0.0
C1913 C 0.722 0.57512 0.13182 0.0
C1914 C 0.66781 0.51843 0.11262 0.0
C1915 C 0.66047 0.4978 0.13543 0.0
C1916 C 0.68448 0.51626 0.15641 0.0
C1917 C 0.71452 0.55505 0.15448 0.0
C1918 C 0.64279 0.50025 0.08982 0.0
C1919 C 0.67843 0.49555 0.18099 0.0
H1920 H 0.52891 0.4085 0.13376 0.0
H1921 H 0.60717 0.36902 0.11262 0.0
H1922 H 0.60277 0.4971 0.16557 0.0
H1923 H 0.5851 0.49992 0.13531 0.0
H1924 H 0.55189 0.46715 0.15828 0.0
H1925 H 0.67457 0.40611 0.11995 0.0
H1926 H 0.68793 0.45333 0.10787 0.0
H1927 H 0.69302 0.44755 0.14056 0.0
H1928 H 0.70459 0.57223 0.09353 0.0
H1929 H 0.73276 0.56939 0.17053 0.0
H1930 H 0.61249 0.49257 0.09398 0.0
H1931 H 0.64249 0.47308 0.08477 0.0
H1932 H 0.65296 0.51987 0.07339 0.0
H1933 H 0.65544 0.49725 0.19164 0.0
H1934 H 0.70526 0.50909 0.19248 0.0
H1935 H 0.669 0.46447 0.17823 0.0
C1936 C 0.80288 0.41526 0.40303 0.0
C1937 C 0.83503 0.45192 0.40774 0.0
C1938 C 0.80761 0.38371 0.39648 0.0
C1939 C 0.84543 0.38901 0.39482 0.0
C1940 C 0.87789 0.42695 0.39659 0.0
C1941 C 0.8723 0.45804 0.40314 0.0
C1942 C 0.7721 0.34403 0.39429 0.0
C1943 C 0.91865 0.43393 0.39434 0.0
C1944 C 0.85939 0.30891 0.42206 0.0
C1945 C 0.86486 0.29197 0.40065 0.0
C1946 C 0.85297 0.34034 0.42026 0.0
C1947 C 0.85121 0.35484 0.3964 0.0
C1948 C 0.85583 0.33722 0.37465 0.0
C1949 C 0.86297 0.3062 0.37705 0.0
C1950 C 0.84856 0.35838 0.44401 0.0
C1951 C 0.8525 0.35052 0.34888 0.0
H1952 H 0.77407 0.41042 0.40685 0.0
H1953 H 0.89719 0.48626 0.40707 0.0
H1954 H 0.77601 0.32634 0.37979 0.0
H1955 H 0.76694 0.3287 0.4124 0.0
H1956 H 0.74592 0.34593 0.38969 0.0
H1957 H 0.94044 0.46528 0.39317 0.0
H1958 H 0.92542 0.4216 0.41087 0.0
H1959 H 0.9214 0.41908 0.37755 0.0
H1960 H 0.8608 0.29799 0.44034 0.0
H1961 H 0.86659 0.29275 0.36041 0.0
H1962 H 0.82013 0.35713 0.44414 0.0
H1963 H 0.8714 0.38938 0.44491 0.0
H1964 H 0.85065 0.34366 0.46104 0.0
H1965 H 0.82191 0.34242 0.34538 0.0
H1966 H 0.86161 0.33717 0.33405 0.0
H1967 H 0.87026 0.3825 0.34738 0.0
C1968 C 0.20198 0.60943 0.6016 0.0
C1969 C 0.18255 0.62353 0.61624 0.0
C1970 C 0.20236 0.57559 0.60824 0.0
C1971 C 0.18283 0.55535 0.63017 0.0
C1972 C 0.16732 0.57214 0.6466 0.0
C1973 C 0.16698 0.60596 0.63931 0.0
C1974 C 0.21966 0.5593 0.59014 0.0
C1975 C 0.14879 0.55281 0.67099 0.0
C1976 C 0.1284 0.44593 0.62243 0.0
C1977 C 0.15456 0.43594 0.6323 0.0
C1978 C 0.1367 0.48454 0.62268 0.0
C1979 C 0.17217 0.51388 0.63307 0.0
C1980 C 0.19808 0.50343 0.64397 0.0
C1981 C 0.18906 0.46448 0.64322 0.0
C1982 C 0.10794 0.49401 0.61102 0.0
C1983 C 0.23597 0.53327 0.65551 0.0
H1984 H 0.21412 0.62312 0.5838 0.0
H1985 H 0.15206 0.61693 0.65072 0.0
H1986 H 0.23439 0.54588 0.60003 0.0
H1987 H 0.19608 0.53644 0.57866 0.0
H1988 H 0.24083 0.58199 0.57737 0.0
H1989 H 0.14032 0.57066 0.68245 0.0
H1990 H 0.12259 0.52429 0.66739 0.0
H1991 H 0.1692 0.54729 0.68191 0.0
H1992 H 0.1019 0.42365 0.61386 0.0
H1993 H 0.2094 0.45649 0.65066 0.0
H1994 H 0.12215 0.51587 0.59604 0.0
H1995 H 0.09735 0.50671 0.62531 0.0
H1996 H 0.08251 0.46804 0.60293 0.0
H1997 H 0.25822 0.54679 0.64067 0.0
H1998 H 0.24661 0.51986 0.66925 0.0
H1999 H 0.23317 0.55656 0.66496 0.0
C2000 C 0.31098 0.85689 0.92381 0.0
C2001 C 0.29333 0.86076 0.90223 0.0
C2002 C 0.34136 0.84883 0.92233 0.0
C2003 C 0.35432 0.84401 0.89862 0.0
C2004 C 0.33588 0.84685 0.87672 0.0
C2005 C 0.30586 0.85569 0.87877 0.0
C2006 C 0.36001 0.84615 0.94625 0.0
C2007 C 0.34746 0.83997 0.85122 0.0
C2008 C 0.45776 0.86543 0.90458 0.0
C2009 C 0.45197 0.82869 0.91054 0.0
C2010 C 0.42635 0.87038 0.89787 0.0
C2011 C 0.38834 0.83784 0.89731 0.0
C2012 C 0.38315 0.80025 0.90056 0.0
C2013 C 0.41506 0.79618 0.90723 0.0
C2014 C 0.43324 0.91089 0.89425 0.0
C2015 C 0.34343 0.76454 0.90005 0.0
H2016 H 0.30128 0.8606 0.94202 0.0
H2017 H 0.29164 0.85777 0.86207 0.0
H2018 H 0.36032 0.8185 0.94688 0.0
H2019 H 0.39056 0.87009 0.94697 0.0
H2020 H 0.34477 0.84796 0.96315 0.0
H2021 H 0.33089 0.84406 0.836 0.0
H2022 H 0.37885 0.85992 0.8481 0.0
H2023 H 0.34239 0.80998 0.8501 0.0
H2024 H 0.48613 0.89067 0.90752 0.0
H2025 H 0.41043 0.7678 0.91218 0.0
H2026 H 0.42325 0.91971 0.9111 0.0
H2027 H 0.41639 0.91198 0.87809 0.0
H2028 H 0.46439 0.93223 0.89125 0.0
H2029 H 0.33018 0.76003 0.91889 0.0
H2030 H 0.34516 0.73833 0.89518 0.0
H2031 H 0.32399 0.76751 0.88655 0.0
C2032 C 0.5515 0.71064 0.61083 0.0
C2033 C 0.57854 0.71894 0.62998 0.0
C2034 C 0.51513 0.67678 0.61127 0.0
C2035 C 0.50529 0.6506 0.6315 0.0
C2036 C 0.5323 0.65902 0.65106 0.0
C2037 C 0.56866 0.69307 0.65004 0.0
C2038 C 0.48723 0.66918 0.59002 0.0
C2039 C 0.52304 0.63192 0.67289 0.0
C2040 C 0.3965 0.58523 0.63361 0.0
C2041 C 0.39197 0.55384 0.61921 0.0
C2042 C 0.43361 0.61543 0.64016 0.0
C2043 C 0.46675 0.61439 0.63163 0.0
C2044 C 0.46204 0.58082 0.61926 0.0
C2045 C 0.42459 0.55087 0.61323 0.0
C2046 C 0.4373 0.65017 0.654 0.0
C2047 C 0.49635 0.57843 0.60954 0.0
H2048 H 0.55872 0.73062 0.59536 0.0
H2049 H 0.58936 0.6993 0.66495 0.0
H2050 H 0.47597 0.6395 0.58246 0.0
H2051 H 0.46207 0.67119 0.59699 0.0
H2052 H 0.50084 0.69023 0.5745 0.0
H2053 H 0.54534 0.64471 0.68784 0.0
H2054 H 0.49441 0.62425 0.68094 0.0
H2055 H 0.52133 0.60465 0.66642 0.0
H2056 H 0.37125 0.58774 0.63793 0.0
H2057 H 0.42104 0.52686 0.60172 0.0
H2058 H 0.44414 0.67384 0.64051 0.0
H2059 H 0.46124 0.66112 0.66783 0.0
H2060 H 0.41002 0.64325 0.66382 0.0
H2061 H 0.50541 0.59366 0.59132 0.0
H2062 H 0.48893 0.54787 0.60657 0.0
H2063 H 0.52146 0.59256 0.62242 0.0
C2064 C 0.14934 0.59547 0.89965 0.0
C2065 C 0.18487 0.62392 0.90964 0.0
C2066 C 0.14405 0.55926 0.89193 0.0
C2067 C 0.17468 0.5512 0.89489 0.0
C2068 C 0.21174 0.58149 0.90221 0.0
C2069 C 0.21639 0.61751 0.90938 0.0
C2070 C 0.10455 0.52831 0.88315 0.0
C2071 C 0.24548 0.57462 0.90516 0.0
C2072 C 0.1478 0.45139 0.91948 0.0
C2073 C 0.1513 0.43285 0.89821 0.0
C2074 C 0.15455 0.48944 0.91834 0.0
C2075 C 0.16623 0.51011 0.89546 0.0
C2076 C 0.17038 0.49164 0.87393 0.0
C2077 C 0.16211 0.4529 0.87546 0.0
C2078 C 0.14927 0.50759 0.94175 0.0
C2079 C 0.18323 0.5124 0.84923 0.0
H2080 H 0.12479 0.60016 0.89998 0.0
H2081 H 0.2438 0.63944 0.91721 0.0
H2082 H 0.10707 0.51083 0.86787 0.0
H2083 H 0.08896 0.50842 0.89888 0.0
H2084 H 0.0869 0.54097 0.87647 0.0
H2085 H 0.27319 0.60201 0.90841 0.0
H2086 H 0.24011 0.5551 0.92128 0.0
H2087 H 0.24854 0.56015 0.88828 0.0
H2088 H 0.13932 0.43588 0.93708 0.0
H2089 H 0.16519 0.43867 0.85904 0.0
H2090 H 0.12655 0.51547 0.93862 0.0
H2091 H 0.17655 0.53465 0.94634 0.0
H2092 H 0.14073 0.48789 0.95811 0.0
H2093 H 0.15789 0.5112 0.83978 0.0
H2094 H 0.19521 0.49864 0.83674 0.0
H2095 H 0.20543 0.54336 0.85177 0.0
C2096 C 0.30457 0.84746 0.61144 0.0
C2097 C 0.29626 0.86543 0.63116 0.0
C2098 C 0.33777 0.84382 0.61176 0.0
C2099 C 0.3635 0.85842 0.63237 0.0
C2100 C 0.35504 0.87614 0.65253 0.0
C2101 C 0.32144 0.87932 0.65171 0.0
C2102 C 0.3452 0.82424 0.58994 0.0
C2103 C 0.3817 0.89226 0.67476 0.0
C2104 C 0.42727 0.81306 0.63279 0.0
C2105 C 0.45911 0.84018 0.61887 0.0
C2106 C 0.39747 0.82036 0.63977 0.0
C2107 C 0.39933 0.85529 0.63219 0.0
C2108 C 0.43328 0.88427 0.62027 0.0
C2109 C 0.46281 0.87633 0.61376 0.0
C2110 C 0.36226 0.78903 0.653 0.0
C2111 C 0.43656 0.92179 0.61157 0.0
H2112 H 0.2851 0.8362 0.59557 0.0
H2113 H 0.31505 0.89286 0.66712 0.0
H2114 H 0.37494 0.84283 0.58257 0.0
H2115 H 0.34294 0.79669 0.59624 0.0
H2116 H 0.32425 0.8176 0.57444 0.0
H2117 H 0.36874 0.90087 0.69012 0.0
H2118 H 0.38901 0.87063 0.68199 0.0
H2119 H 0.40919 0.91816 0.66898 0.0
H2120 H 0.42413 0.78487 0.63643 0.0
H2121 H 0.48709 0.89703 0.6026 0.0
H2122 H 0.33868 0.77314 0.63922 0.0
H2123 H 0.35148 0.80166 0.66723 0.0
H2124 H 0.36856 0.76786 0.66225 0.0
H2125 H 0.42108 0.91669 0.59349 0.0
H2126 H 0.46727 0.94454 0.60868 0.0
H2127 H 0.42311 0.93271 0.62507 0.0
C2128 C 0.55478 0.71063 0.87895 0.0
C2129 C 0.57722 0.71638 0.90034 0.0
C2130 C 0.51666 0.67922 0.87741 0.0
C2131 C 0.50128 0.65279 0.89758 0.0
C2132 C 0.5248 0.65791 0.91877 0.0
C2133 C 0.56233 0.68997 0.92 0.0
C2134 C 0.49265 0.67518 0.85463 0.0
C2135 C 0.51032 0.62965 0.9403 0.0
C2136 C 0.39688 0.59566 0.9176 0.0
C2137 C 0.38922 0.5577 0.91374 0.0
C2138 C 0.43202 0.62752 0.90982 0.0
C2139 C 0.46002 0.62109 0.89786 0.0
C2140 C 0.45033 0.58286 0.89114 0.0
C2141 C 0.41496 0.55141 0.89934 0.0
C2142 C 0.441 0.66774 0.91731 0.0
C2143 C 0.47888 0.5751 0.87744 0.0
H2144 H 0.56657 0.73147 0.86383 0.0
H2145 H 0.58021 0.69438 0.93633 0.0
H2146 H 0.4772 0.64477 0.84789 0.0
H2147 H 0.4704 0.68302 0.85955 0.0
H2148 H 0.51059 0.69434 0.83916 0.0
H2149 H 0.53109 0.63955 0.95616 0.0
H2150 H 0.48212 0.62518 0.94721 0.0
H2151 H 0.50565 0.60116 0.93382 0.0
H2152 H 0.37688 0.60041 0.92875 0.0
H2153 H 0.40899 0.52201 0.89636 0.0
H2154 H 0.45542 0.68857 0.90184 0.0
H2155 H 0.46125 0.67774 0.93344 0.0
H2156 H 0.41449 0.66845 0.92282 0.0
H2157 H 0.49069 0.59436 0.86094 0.0
H2158 H 0.46552 0.54448 0.87114 0.0
H2159 H 0.50369 0.58158 0.88987 0.0
loop_
_geom_bond_atom_site_label_1
_geom_bond_atom_site_label_2
_geom_bond_distance
_geom_bond_site_symmetry_2
_ccdc_geom_bond_type
Eu0 N29 2.600 . S
Eu0 N35 2.562 . S
Eu0 O44 2.462 . S
Eu0 O45 2.373 . S
Eu0 O47 2.432 . S
Eu0 O48 2.291 . S
Eu0 O52 2.335 . S
Eu0 O55 2.372 . S
Eu0 C64 2.787 . S
C1 N2 1.365 . S
C1 C4 1.405 . S
C1 C8 1.448 . S
N2 C1 1.365 . S
N2 C5 1.319 . S
N2 Eu11 2.600 . S
C3 C5 1.397 . S
C3 C6 1.367 . S
C3 H23 0.931 1_554 S
C4 C1 1.405 . S
C4 C6 1.403 . S
C4 C10 1.439 . S
C5 N2 1.319 . S
C5 C3 1.397 . S
C5 H16 0.930 . S
C6 C3 1.367 . S
C6 C4 1.403 . S
C6 H27 0.929 . S
C7 C8 1.430 . S
C7 C9 1.387 . S
C7 C13 1.404 . S
C8 C1 1.448 . S
C8 C7 1.430 . S
C8 N12 1.351 . S
C9 C7 1.387 . S
C9 C10 1.374 . S
C9 H24 0.931 . S
C10 C4 1.439 . S
C10 C9 1.374 . S
C10 H25 0.931 . S
Eu11 N2 2.600 . S
Eu11 N12 2.562 . S
Eu11 O46 2.335 . S
Eu11 O49 2.372 . S
Eu11 O50 2.462 . S
Eu11 O51 2.373 . S
Eu11 O53 2.432 . S
Eu11 O54 2.291 . S
Eu11 C75 2.787 . S
N12 C8 1.351 . S
N12 Eu11 2.562 . S
N12 C14 1.325 . S
C13 C7 1.404 . S
C13 C15 1.366 . S
C13 H21 0.930 . S
C14 N12 1.325 . S
C14 C15 1.416 . S
C14 H20 0.929 . S
C15 C13 1.366 . S
C15 C14 1.416 . S
C15 H17 0.930 . S
H16 C5 0.930 . S
H17 C15 0.930 . S
H18 C33 0.930 . S
H19 C40 0.930 . S
H20 C14 0.929 . S
H21 C13 0.930 . S
H22 C36 0.929 . S
H23 C3 0.931 1_556 S
H24 C9 0.931 . S
H25 C10 0.931 . S
H26 C31 0.931 . S
H27 C6 0.929 . S
H28 C39 0.930 . S
N29 Eu0 2.600 . S
N29 C30 1.365 . S
N29 C33 1.319 . S
C30 N29 1.365 . S
C30 C32 1.405 . S
C30 C38 1.448 . S
C31 H26 0.931 . S
C31 C33 1.397 . S
C31 C34 1.367 . S
C32 C30 1.405 . S
C32 C34 1.403 . S
C32 C65 1.439 . S
C33 H18 0.930 . S
C33 N29 1.319 . S
C33 C31 1.397 . S
C34 C31 1.367 . S
C34 C32 1.403 . S
C34 H41 0.929 . S
N35 Eu0 2.562 . S
N35 C36 1.325 . S
N35 C38 1.351 . S
C36 H22 0.929 . S
C36 N35 1.325 . S
C36 C40 1.416 . S
C37 C38 1.430 . S
C37 C39 1.404 1_545 S
C37 C66 1.387 1_545 S
C38 C30 1.448 . S
C38 N35 1.351 . S
C38 C37 1.430 . S
C39 H28 0.930 . S
C39 C37 1.404 1_565 S
C39 C40 1.366 1_565 S
C40 H19 0.930 . S
C40 C36 1.416 . S
C40 C39 1.366 1_545 S
H41 C34 0.929 . S
H42 C65 0.933 1_565 S
H43 C66 0.931 . S
O44 Eu0 2.462 . S
O44 C64 1.252 . S
O45 Eu0 2.373 . S
O45 C56 1.249 . S
O46 Eu11 2.335 . S
O46 C56 1.264 . S
O47 Eu0 2.432 . S
O47 C64 1.268 . S
O48 Eu0 2.291 . S
O48 C63 1.255 . S
O49 Eu11 2.372 . S
O49 C63 1.257 . S
O50 Eu11 2.462 . S
O50 C75 1.252 . S
O51 Eu11 2.373 . S
O51 C67 1.249 . S
O52 Eu0 2.335 . S
O52 C67 1.264 . S
O53 Eu11 2.432 . S
O53 C75 1.268 . S
O54 Eu11 2.291 . S
O54 C74 1.255 . S
O55 Eu0 2.372 . S
O55 C74 1.257 . S
C56 O45 1.249 . S
C56 O46 1.264 . S
C57 C60 1.382 . S
C57 C62 1.390 . S
C57 C64 1.506 1_565 S
C58 C59 1.398 . S
C58 C62 1.392 . S
C59 C58 1.398 . S
C59 C61 1.372 . S
C59 H76 0.931 . S
C60 C57 1.382 . S
C60 C61 1.390 . S
C60 H77 0.931 . S
C61 C59 1.372 . S
C61 C60 1.390 . S
C61 H78 0.929 . S
C62 C57 1.390 . S
C62 C58 1.392 . S
C62 H79 0.930 . S
C63 O48 1.255 . S
C63 O49 1.257 . S
C64 Eu0 2.787 . S
C64 O44 1.252 . S
C64 O47 1.268 . S
C64 C57 1.506 1_545 S
C65 C32 1.439 . S
C65 H42 0.933 1_545 S
C65 C66 1.374 1_545 S
C66 C37 1.387 1_565 S
C66 H43 0.931 . S
C66 C65 1.374 1_565 S
C67 O51 1.249 . S
C67 O52 1.264 . S
C68 C71 1.382 . S
C68 C72 1.390 . S
C68 C75 1.506 . S
C69 C70 1.398 . S
C69 C72 1.392 . S
C70 C69 1.398 . S
C70 C73 1.372 . S
C70 H80 0.931 . S
C71 C68 1.382 . S
C71 C73 1.390 . S
C71 H81 0.931 . S
C72 C68 1.390 . S
C72 C69 1.392 . S
C72 H82 0.930 . S
C73 C70 1.372 . S
C73 C71 1.390 . S
C73 H83 0.929 . S
C74 O54 1.255 . S
C74 O55 1.257 . S
C75 Eu11 2.787 . S
C75 O50 1.252 . S
C75 O53 1.268 . S
C75 C68 1.506 . S
H76 C59 0.931 . S
H77 C60 0.931 . S
H78 C61 0.929 . S
H79 C62 0.930 . S
H80 C70 0.931 . S
H81 C71 0.931 . S
H82 C72 0.930 . S
H83 C73 0.929 . S
Eu84 N113 2.600 . S
Eu84 N119 2.562 . S
Eu84 O128 2.462 . S
Eu84 O129 2.373 . S
Eu84 O131 2.432 . S
Eu84 O132 2.291 . S
Eu84 O136 2.335 . S
Eu84 O139 2.372 . S
Eu84 C148 2.787 . S
C85 N86 1.365 . S
C85 C88 1.405 . S
C85 C92 1.448 . S
N86 C85 1.365 . S
N86 C89 1.319 . S
N86 Eu95 2.600 . S
C87 C89 1.397 . S
C87 C90 1.367 . S
C87 H107 0.931 . S
C88 C85 1.405 . S
C88 C90 1.403 . S
C88 C94 1.439 . S
C89 N86 1.319 . S
C89 C87 1.397 . S
C89 H100 0.930 . S
C90 C87 1.367 . S
C90 C88 1.403 . S
C90 H111 0.929 . S
C91 C92 1.430 . S
C91 C93 1.387 . S
C91 C97 1.404 . S
C92 C85 1.448 . S
C92 C91 1.430 . S
C92 N96 1.351 . S
C93 C91 1.387 . S
C93 C94 1.374 . S
C93 H108 0.931 . S
C94 C88 1.439 . S
C94 C93 1.374 . S
C94 H109 0.931 . S
Eu95 N86 2.600 . S
Eu95 N96 2.562 . S
Eu95 O130 2.335 . S
Eu95 O133 2.372 . S
Eu95 O134 2.462 . S
Eu95 O135 2.373 . S
Eu95 O137 2.432 . S
Eu95 O138 2.291 . S
Eu95 C159 2.787 . S
N96 C92 1.351 . S
N96 Eu95 2.562 . S
N96 C98 1.325 . S
C97 C91 1.404 . S
C97 C99 1.366 . S
C97 H105 0.930 . S
C98 N96 1.325 . S
C98 C99 1.416 . S
C98 H104 0.929 . S
C99 C97 1.366 . S
C99 C98 1.416 . S
C99 H101 0.930 . S
H100 C89 0.930 . S
H101 C99 0.930 . S
H102 C117 0.930 . S
H103 C124 0.930 . S
H104 C98 0.929 . S
H105 C97 0.930 . S
H106 C120 0.929 . S
H107 C87 0.931 . S
H108 C93 0.931 . S
H109 C94 0.931 . S
H110 C115 0.931 . S
H111 C90 0.929 . S
H112 C123 0.930 1_455 S
N113 Eu84 2.600 . S
N113 C114 1.365 . S
N113 C117 1.319 . S
C114 N113 1.365 . S
C114 C116 1.405 . S
C114 C122 1.448 . S
C115 H110 0.931 . S
C115 C117 1.397 . S
C115 C118 1.367 . S
C116 C114 1.405 . S
C116 C118 1.403 . S
C116 C149 1.449 . S
C117 H102 0.930 . S
C117 N113 1.319 . S
C117 C115 1.397 . S
C118 C115 1.367 . S
C118 C116 1.403 . S
C118 H125 0.929 . S
N119 Eu84 2.562 . S
N119 C120 1.325 . S
N119 C122 1.351 . S
C120 H106 0.929 . S
C120 N119 1.325 . S
C120 C124 1.416 . S
C121 C122 1.430 . S
C121 C123 1.404 . S
C121 C150 1.387 1_655 S
C122 C114 1.448 . S
C122 N119 1.351 . S
C122 C121 1.430 . S
C123 H112 0.930 1_655 S
C123 C121 1.404 . S
C123 C124 1.366 . S
C124 H103 0.930 . S
C124 C120 1.416 . S
C124 C123 1.366 . S
H125 C118 0.929 . S
H126 C149 0.925 1_455 S
H127 C150 0.931 . S
O128 Eu84 2.462 . S
O128 C148 1.252 . S
O129 Eu84 2.373 . S
O129 C140 1.249 . S
O130 Eu95 2.335 . S
O130 C140 1.264 . S
O131 Eu84 2.432 . S
O131 C148 1.268 . S
O132 Eu84 2.291 . S
O132 C147 1.255 . S
O133 Eu95 2.372 . S
O133 C147 1.257 . S
O134 Eu95 2.462 . S
O134 C159 1.252 . S
O135 Eu95 2.373 . S
O135 C151 1.249 . S
O136 Eu84 2.335 . S
O136 C151 1.264 . S
O137 Eu95 2.432 . S
O137 C159 1.268 . S
O138 Eu95 2.291 . S
O138 C158 1.255 . S
O139 Eu84 2.372 . S
O139 C158 1.257 . S
C140 O129 1.249 . S
C140 O130 1.264 . S
C141 C144 1.382 . S
C141 C146 1.390 . S
C141 C148 1.506 . S
C142 C143 1.398 . S
C142 C146 1.392 . S
C143 C142 1.398 . S
C143 C145 1.372 . S
C143 H160 0.931 . S
C144 C141 1.382 . S
C144 C145 1.390 . S
C144 H161 0.931 . S
C145 C143 1.372 . S
C145 C144 1.390 . S
C145 H162 0.929 . S
C146 C141 1.390 . S
C146 C142 1.392 . S
C146 H163 0.930 . S
C147 O132 1.255 . S
C147 O133 1.257 . S
C148 Eu84 2.787 . S
C148 O128 1.252 . S
C148 O131 1.268 . S
C148 C141 1.506 . S
C149 C116 1.449 . S
C149 H126 0.925 1_655 S
C149 C150 1.371 1_655 S
C150 C121 1.387 1_455 S
C150 H127 0.931 . S
C150 C149 1.371 1_455 S
C151 O135 1.249 . S
C151 O136 1.264 . S
C152 C155 1.382 . S
C152 C156 1.390 . S
C152 C159 1.506 . S
C153 C154 1.398 . S
C153 C156 1.392 . S
C154 C153 1.398 . S
C154 C157 1.372 . S
C154 H164 0.931 . S
C155 C152 1.382 . S
C155 C157 1.390 . S
C155 H165 0.931 . S
C156 C152 1.390 . S
C156 C153 1.392 . S
C156 H166 0.930 . S
C157 C154 1.372 . S
C157 C155 1.390 . S
C157 H167 0.929 . S
C158 O138 1.255 . S
C158 O139 1.257 . S
C159 Eu95 2.787 . S
C159 O134 1.252 . S
C159 O137 1.268 . S
C159 C152 1.506 . S
H160 C143 0.931 . S
H161 C144 0.931 . S
H162 C145 0.929 . S
H163 C146 0.930 . S
H164 C154 0.931 . S
H165 C155 0.931 . S
H166 C156 0.930 . S
H167 C157 0.929 . S
Eu168 N197 2.600 . S
Eu168 N203 2.562 . S
Eu168 O212 2.462 . S
Eu168 O213 2.373 . S
Eu168 O215 2.432 . S
Eu168 O216 2.291 . S
Eu168 O220 2.335 . S
Eu168 O223 2.372 . S
Eu168 C232 2.787 . S
C169 N170 1.365 . S
C169 C172 1.405 . S
C169 C176 1.448 . S
N170 C169 1.365 . S
N170 C173 1.319 . S
N170 Eu179 2.600 . S
C171 C173 1.397 . S
C171 C174 1.367 . S
C171 H191 0.931 1_554 S
C172 C169 1.405 . S
C172 C174 1.403 . S
C172 C178 1.447 . S
C173 N170 1.319 . S
C173 C171 1.397 . S
C173 H184 0.930 . S
C174 C171 1.367 . S
C174 C172 1.403 . S
C174 H195 0.929 . S
C175 C176 1.430 . S
C175 C177 1.387 1_545 S
C175 C181 1.404 . S
C176 C169 1.448 . S
C176 C175 1.430 . S
C176 N180 1.351 . S
C177 C175 1.387 1_565 S
C177 C178 1.373 1_565 S
C177 H192 0.931 . S
C178 C172 1.447 . S
C178 C177 1.373 1_545 S
C178 H193 0.924 1_545 S
Eu179 N170 2.600 . S
Eu179 N180 2.562 . S
Eu179 O214 2.335 . S
Eu179 O217 2.372 . S
Eu179 O218 2.462 . S
Eu179 O219 2.373 . S
Eu179 O221 2.432 . S
Eu179 O222 2.291 . S
Eu179 C243 2.787 . S
N180 C176 1.351 . S
N180 Eu179 2.562 . S
N180 C182 1.325 . S
C181 C175 1.404 . S
C181 C183 1.366 . S
C181 H189 0.930 1_545 S
C182 N180 1.325 . S
C182 C183 1.416 . S
C182 H188 0.929 . S
C183 C181 1.366 . S
C183 C182 1.416 . S
C183 H185 0.930 . S
H184 C173 0.930 . S
H185 C183 0.930 . S
H186 C201 0.930 . S
H187 C208 0.930 . S
H188 C182 0.929 . S
H189 C181 0.930 1_565 S
H190 C204 0.929 . S
H191 C171 0.931 1_556 S
H192 C177 0.931 . S
H193 C178 0.924 1_565 S
H194 C199 0.931 . S
H195 C174 0.929 . S
H196 C207 0.930 . S
N197 Eu168 2.600 . S
N197 C198 1.365 . S
N197 C201 1.319 . S
C198 N197 1.365 . S
C198 C200 1.405 . S
C198 C206 1.448 . S
C199 H194 0.931 . S
C199 C201 1.397 . S
C199 C202 1.367 . S
C200 C198 1.405 . S
C200 C202 1.403 . S
C200 C233 1.439 . S
C201 H186 0.930 . S
C201 N197 1.319 . S
C201 C199 1.397 . S
C202 C199 1.367 . S
C202 C200 1.403 . S
C202 H209 0.929 . S
N203 Eu168 2.562 . S
N203 C204 1.325 . S
N203 C206 1.351 . S
C204 H190 0.929 . S
C204 N203 1.325 . S
C204 C208 1.416 . S
C205 C206 1.430 . S
C205 C207 1.404 1_655 S
C205 C234 1.387 1_655 S
C206 C198 1.448 . S
C206 N203 1.351 . S
C206 C205 1.430 . S
C207 H196 0.930 . S
C207 C205 1.404 1_455 S
C207 C208 1.366 1_455 S
C208 H187 0.930 . S
C208 C204 1.416 . S
C208 C207 1.366 1_655 S
H209 C202 0.929 . S
H210 C233 0.931 1_455 S
H211 C234 0.931 . S
O212 Eu168 2.462 . S
O212 C232 1.252 . S
O213 Eu168 2.373 . S
O213 C224 1.249 . S
O214 Eu179 2.335 . S
O214 C224 1.264 . S
O215 Eu168 2.432 . S
O215 C232 1.268 . S
O216 Eu168 2.291 . S
O216 C231 1.255 . S
O217 Eu179 2.372 . S
O217 C231 1.257 . S
O218 Eu179 2.462 . S
O218 C243 1.252 . S
O219 Eu179 2.373 . S
O219 C235 1.249 . S
O220 Eu168 2.335 . S
O220 C235 1.264 . S
O221 Eu179 2.432 . S
O221 C243 1.268 . S
O222 Eu179 2.291 . S
O222 C242 1.255 . S
O223 Eu168 2.372 . S
O223 C242 1.257 . S
C224 O213 1.249 . S
C224 O214 1.264 . S
C225 C228 1.382 . S
C225 C230 1.390 . S
C225 C232 1.506 1_455 S
C226 C227 1.398 . S
C226 C230 1.392 . S
C227 C226 1.398 . S
C227 C229 1.372 . S
C227 H244 0.931 . S
C228 C225 1.382 . S
C228 C229 1.390 . S
C228 H245 0.931 . S
C229 C227 1.372 . S
C229 C228 1.390 . S
C229 H246 0.929 . S
C230 C225 1.390 . S
C230 C226 1.392 . S
C230 H247 0.930 . S
C231 O216 1.255 . S
C231 O217 1.257 . S
C232 Eu168 2.787 . S
C232 O212 1.252 . S
C232 O215 1.268 . S
C232 C225 1.506 1_655 S
C233 C200 1.439 . S
C233 H210 0.931 1_655 S
C233 C234 1.374 1_655 S
C234 C205 1.387 1_455 S
C234 H211 0.931 . S
C234 C233 1.374 1_455 S
C235 O219 1.249 . S
C235 O220 1.264 . S
C236 C239 1.382 . S
C236 C240 1.390 . S
C236 C243 1.506 . S
C237 C238 1.398 . S
C237 C240 1.392 . S
C238 C237 1.398 . S
C238 C241 1.372 . S
C238 H248 0.931 . S
C239 C236 1.382 . S
C239 C241 1.390 . S
C239 H249 0.931 . S
C240 C236 1.390 . S
C240 C237 1.392 . S
C240 H250 0.930 . S
C241 C238 1.372 . S
C241 C239 1.390 . S
C241 H251 0.929 . S
C242 O222 1.255 . S
C242 O223 1.257 . S
C243 Eu179 2.787 . S
C243 O218 1.252 . S
C243 O221 1.268 . S
C243 C236 1.506 . S
H244 C227 0.931 . S
H245 C228 0.931 . S
H246 C229 0.929 . S
H247 C230 0.930 . S
H248 C238 0.931 . S
H249 C239 0.931 . S
H250 C240 0.930 . S
H251 C241 0.929 . S
Eu252 N281 2.600 . S
Eu252 N287 2.562 . S
Eu252 O296 2.462 . S
Eu252 O297 2.373 . S
Eu252 O299 2.432 . S
Eu252 O300 2.291 . S
Eu252 O304 2.335 . S
Eu252 O307 2.372 . S
Eu252 C316 2.787 . S
C253 N254 1.365 . S
C253 C256 1.405 . S
C253 C260 1.448 . S
N254 C253 1.365 . S
N254 C257 1.319 . S
N254 Eu263 2.600 . S
C255 C257 1.397 . S
C255 C258 1.367 . S
C255 H275 0.931 . S
C256 C253 1.405 . S
C256 C258 1.403 . S
C256 C262 1.439 . S
C257 N254 1.319 . S
C257 C255 1.397 . S
C257 H268 0.930 . S
C258 C255 1.367 . S
C258 C256 1.403 . S
C258 H279 0.929 . S
C259 C260 1.430 . S
C259 C261 1.387 1_545 S
C259 C265 1.404 1_545 S
C260 C253 1.448 . S
C260 C259 1.430 . S
C260 N264 1.351 . S
C261 C259 1.387 1_565 S
C261 C262 1.374 1_565 S
C261 H276 0.931 . S
C262 C256 1.439 . S
C262 C261 1.374 1_545 S
C262 H277 0.933 1_545 S
Eu263 N254 2.600 . S
Eu263 N264 2.562 . S
Eu263 O298 2.335 . S
Eu263 O301 2.372 . S
Eu263 O302 2.462 . S
Eu263 O303 2.373 . S
Eu263 O305 2.432 . S
Eu263 O306 2.291 . S
Eu263 C327 2.787 . S
N264 C260 1.351 . S
N264 Eu263 2.562 . S
N264 C266 1.325 . S
C265 C259 1.404 1_565 S
C265 C267 1.366 1_565 S
C265 H273 0.930 . S
C266 N264 1.325 . S
C266 C267 1.416 . S
C266 H272 0.929 . S
C267 C265 1.366 1_545 S
C267 C266 1.416 . S
C267 H269 0.930 . S
H268 C257 0.930 . S
H269 C267 0.930 . S
H270 C285 0.930 . S
H271 C292 0.930 . S
H272 C266 0.929 . S
H273 C265 0.930 . S
H274 C288 0.929 . S
H275 C255 0.931 . S
H276 C261 0.931 . S
H277 C262 0.933 1_565 S
H278 C283 0.931 . S
H279 C258 0.929 . S
H280 C291 0.930 . S
N281 Eu252 2.600 . S
N281 C282 1.365 . S
N281 C285 1.319 . S
C282 N281 1.365 . S
C282 C284 1.405 . S
C282 C290 1.448 . S
C283 H278 0.931 . S
C283 C285 1.397 . S
C283 C286 1.367 . S
C284 C282 1.405 . S
C284 C286 1.403 . S
C284 C317 1.439 . S
C285 H270 0.930 . S
C285 N281 1.319 . S
C285 C283 1.397 . S
C286 C283 1.367 . S
C286 C284 1.403 . S
C286 H293 0.929 . S
N287 Eu252 2.562 . S
N287 C288 1.325 . S
N287 C290 1.351 . S
C288 H274 0.929 . S
C288 N287 1.325 . S
C288 C292 1.416 . S
C289 C290 1.430 . S
C289 C291 1.404 . S
C289 C318 1.387 . S
C290 C282 1.448 . S
C290 N287 1.351 . S
C290 C289 1.430 . S
C291 H280 0.930 . S
C291 C289 1.404 . S
C291 C292 1.366 . S
C292 H271 0.930 . S
C292 C288 1.416 . S
C292 C291 1.366 . S
H293 C286 0.929 . S
H294 C317 0.931 . S
H295 C318 0.931 . S
O296 Eu252 2.462 . S
O296 C316 1.252 . S
O297 Eu252 2.373 . S
O297 C308 1.249 . S
O298 Eu263 2.335 . S
O298 C308 1.264 . S
O299 Eu252 2.432 . S
O299 C316 1.268 . S
O300 Eu252 2.291 . S
O300 C315 1.255 . S
O301 Eu263 2.372 . S
O301 C315 1.257 . S
O302 Eu263 2.462 . S
O302 C327 1.252 . S
O303 Eu263 2.373 . S
O303 C319 1.249 . S
O304 Eu252 2.335 . S
O304 C319 1.264 . S
O305 Eu263 2.432 . S
O305 C327 1.268 . S
O306 Eu263 2.291 . S
O306 C326 1.255 . S
O307 Eu252 2.372 . S
O307 C326 1.257 . S
C308 O297 1.249 . S
C308 O298 1.264 . S
C309 C312 1.382 . S
C309 C314 1.390 . S
C309 C316 1.506 . S
C310 C311 1.398 . S
C310 C314 1.392 . S
C311 C310 1.398 . S
C311 C313 1.372 . S
C311 H328 0.931 . S
C312 C309 1.382 . S
C312 C313 1.390 . S
C312 H329 0.931 . S
C313 C311 1.372 . S
C313 C312 1.390 . S
C313 H330 0.929 . S
C314 C309 1.390 . S
C314 C310 1.392 . S
C314 H331 0.930 . S
C315 O300 1.255 . S
C315 O301 1.257 . S
C316 Eu252 2.787 . S
C316 O296 1.252 . S
C316 O299 1.268 . S
C316 C309 1.506 . S
C317 C284 1.439 . S
C317 H294 0.931 . S
C317 C318 1.374 . S
C318 C289 1.387 . S
C318 H295 0.931 . S
C318 C317 1.374 . S
C319 O303 1.249 . S
C319 O304 1.264 . S
C320 C323 1.382 . S
C320 C324 1.390 . S
C320 C327 1.506 1_565 S
C321 C322 1.398 . S
C321 C324 1.392 . S
C322 C321 1.398 . S
C322 C325 1.372 . S
C322 H332 0.931 . S
C323 C320 1.382 . S
C323 C325 1.390 . S
C323 H333 0.931 . S
C324 C320 1.390 . S
C324 C321 1.392 . S
C324 H334 0.930 . S
C325 C322 1.372 . S
C325 C323 1.390 . S
C325 H335 0.929 . S
C326 O306 1.255 . S
C326 O307 1.257 . S
C327 Eu263 2.787 . S
C327 O302 1.252 . S
C327 O305 1.268 . S
C327 C320 1.506 1_545 S
H328 C311 0.931 . S
H329 C312 0.931 . S
H330 C313 0.929 . S
H331 C314 0.930 . S
H332 C322 0.931 . S
H333 C323 0.931 . S
H334 C324 0.930 . S
H335 C325 0.929 . S
Eu336 N365 2.600 . S
Eu336 N371 2.562 . S
Eu336 O380 2.462 . S
Eu336 O381 2.373 . S
Eu336 O383 2.432 . S
Eu336 O384 2.291 . S
Eu336 O388 2.335 . S
Eu336 O391 2.372 . S
Eu336 C400 2.787 . S
C337 N338 1.365 . S
C337 C340 1.405 . S
C337 C344 1.448 . S
N338 C337 1.365 . S
N338 C341 1.319 . S
N338 Eu347 2.600 . S
C339 C341 1.397 . S
C339 C342 1.367 . S
C339 H359 0.931 1_554 S
C340 C337 1.405 . S
C340 C342 1.403 . S
C340 C346 1.449 . S
C341 N338 1.319 . S
C341 C339 1.397 . S
C341 H352 0.930 . S
C342 C339 1.367 . S
C342 C340 1.403 . S
C342 H363 0.929 . S
C343 C344 1.430 . S
C343 C345 1.387 1_655 S
C343 C349 1.404 . S
C344 C337 1.448 . S
C344 C343 1.430 . S
C344 N348 1.351 . S
C345 C343 1.387 1_455 S
C345 C346 1.371 1_455 S
C345 H360 0.931 . S
C346 C340 1.449 . S
C346 C345 1.371 1_655 S
C346 H361 0.925 1_655 S
Eu347 N338 2.600 . S
Eu347 N348 2.562 . S
Eu347 O382 2.335 . S
Eu347 O385 2.372 . S
Eu347 O386 2.462 . S
Eu347 O387 2.373 . S
Eu347 O389 2.432 . S
Eu347 O390 2.291 . S
Eu347 C411 2.787 . S
N348 C344 1.351 . S
N348 Eu347 2.562 . S
N348 C350 1.325 . S
C349 C343 1.404 . S
C349 C351 1.366 . S
C349 H357 0.930 1_655 S
C350 N348 1.325 . S
C350 C351 1.416 . S
C350 H356 0.929 . S
C351 C349 1.366 . S
C351 C350 1.416 . S
C351 H353 0.930 . S
H352 C341 0.930 . S
H353 C351 0.930 . S
H354 C369 0.930 . S
H355 C376 0.930 . S
H356 C350 0.929 . S
H357 C349 0.930 1_455 S
H358 C372 0.929 . S
H359 C339 0.931 1_556 S
H360 C345 0.931 . S
H361 C346 0.925 1_455 S
H362 C367 0.931 . S
H363 C342 0.929 . S
H364 C375 0.930 . S
N365 Eu336 2.600 . S
N365 C366 1.365 . S
N365 C369 1.319 . S
C366 N365 1.365 . S
C366 C368 1.405 . S
C366 C374 1.448 . S
C367 H362 0.931 . S
C367 C369 1.397 . S
C367 C370 1.367 . S
C368 C366 1.405 . S
C368 C370 1.403 . S
C368 C401 1.439 . S
C369 H354 0.930 . S
C369 N365 1.319 . S
C369 C367 1.397 . S
C370 C367 1.367 . S
C370 C368 1.403 . S
C370 H377 0.929 . S
N371 Eu336 2.562 . S
N371 C372 1.325 . S
N371 C374 1.351 . S
C372 H358 0.929 . S
C372 N371 1.325 . S
C372 C376 1.416 . S
C373 C374 1.430 . S
C373 C375 1.404 . S
C373 C402 1.387 . S
C374 C366 1.448 . S
C374 N371 1.351 . S
C374 C373 1.430 . S
C375 H364 0.930 . S
C375 C373 1.404 . S
C375 C376 1.366 . S
C376 H355 0.930 . S
C376 C372 1.416 . S
C376 C375 1.366 . S
H377 C370 0.929 . S
H378 C401 0.931 . S
H379 C402 0.931 . S
O380 Eu336 2.462 . S
O380 C400 1.252 . S
O381 Eu336 2.373 . S
O381 C392 1.249 . S
O382 Eu347 2.335 . S
O382 C392 1.264 . S
O383 Eu336 2.432 . S
O383 C400 1.268 . S
O384 Eu336 2.291 . S
O384 C399 1.255 . S
O385 Eu347 2.372 . S
O385 C399 1.257 . S
O386 Eu347 2.462 . S
O386 C411 1.252 . S
O387 Eu347 2.373 . S
O387 C403 1.249 . S
O388 Eu336 2.335 . S
O388 C403 1.264 . S
O389 Eu347 2.432 . S
O389 C411 1.268 . S
O390 Eu347 2.291 . S
O390 C410 1.255 . S
O391 Eu336 2.372 . S
O391 C410 1.257 . S
C392 O381 1.249 . S
C392 O382 1.264 . S
C393 C396 1.382 . S
C393 C398 1.390 . S
C393 C400 1.506 . S
C394 C395 1.398 . S
C394 C398 1.392 . S
C395 C394 1.398 . S
C395 C397 1.372 . S
C395 H412 0.931 . S
C396 C393 1.382 . S
C396 C397 1.390 . S
C396 H413 0.931 . S
C397 C395 1.372 . S
C397 C396 1.390 . S
C397 H414 0.929 . S
C398 C393 1.390 . S
C398 C394 1.392 . S
C398 H415 0.930 . S
C399 O384 1.255 . S
C399 O385 1.257 . S
C400 Eu336 2.787 . S
C400 O380 1.252 . S
C400 O383 1.268 . S
C400 C393 1.506 . S
C401 C368 1.439 . S
C401 H378 0.931 . S
C401 C402 1.374 . S
C402 C373 1.387 . S
C402 H379 0.931 . S
C402 C401 1.374 . S
C403 O387 1.249 . S
C403 O388 1.264 . S
C404 C407 1.382 . S
C404 C408 1.390 . S
C404 C411 1.506 . S
C405 C406 1.398 . S
C405 C408 1.392 . S
C406 C405 1.398 . S
C406 C409 1.372 . S
C406 H416 0.931 . S
C407 C404 1.382 . S
C407 C409 1.390 . S
C407 H417 0.931 . S
C408 C404 1.390 . S
C408 C405 1.392 . S
C408 H418 0.930 . S
C409 C406 1.372 . S
C409 C407 1.390 . S
C409 H419 0.929 . S
C410 O390 1.255 . S
C410 O391 1.257 . S
C411 Eu347 2.787 . S
C411 O386 1.252 . S
C411 O389 1.268 . S
C411 C404 1.506 . S
H412 C395 0.931 . S
H413 C396 0.931 . S
H414 C397 0.929 . S
H415 C398 0.930 . S
H416 C406 0.931 . S
H417 C407 0.931 . S
H418 C408 0.930 . S
H419 C409 0.929 . S
Eu420 N449 2.600 . S
Eu420 N455 2.562 . S
Eu420 O464 2.462 . S
Eu420 O465 2.373 . S
Eu420 O467 2.432 . S
Eu420 O468 2.291 . S
Eu420 O472 2.335 . S
Eu420 O475 2.372 . S
Eu420 C484 2.787 . S
C421 N422 1.365 . S
C421 C424 1.405 . S
C421 C428 1.448 . S
N422 C421 1.365 . S
N422 C425 1.319 . S
N422 Eu431 2.600 . S
C423 C425 1.397 . S
C423 C426 1.367 . S
C423 H443 0.931 . S
C424 C421 1.405 . S
C424 C426 1.403 . S
C424 C430 1.439 . S
C425 N422 1.319 . S
C425 C423 1.397 . S
C425 H436 0.930 . S
C426 C423 1.367 . S
C426 C424 1.403 . S
C426 H447 0.929 . S
C427 C428 1.430 . S
C427 C429 1.387 1_655 S
C427 C433 1.404 1_655 S
C428 C421 1.448 . S
C428 C427 1.430 . S
C428 N432 1.351 . S
C429 C427 1.387 1_455 S
C429 C430 1.374 1_455 S
C429 H444 0.931 . S
C430 C424 1.439 . S
C430 C429 1.374 1_655 S
C430 H445 0.931 1_655 S
Eu431 N422 2.600 . S
Eu431 N432 2.562 . S
Eu431 O466 2.335 . S
Eu431 O469 2.372 . S
Eu431 O470 2.462 . S
Eu431 O471 2.373 . S
Eu431 O473 2.432 . S
Eu431 O474 2.291 . S
Eu431 C495 2.787 . S
N432 C428 1.351 . S
N432 Eu431 2.562 . S
N432 C434 1.325 . S
C433 C427 1.404 1_455 S
C433 C435 1.366 1_455 S
C433 H441 0.930 . S
C434 N432 1.325 . S
C434 C435 1.416 . S
C434 H440 0.929 . S
C435 C433 1.366 1_655 S
C435 C434 1.416 . S
C435 H437 0.930 . S
H436 C425 0.930 . S
H437 C435 0.930 . S
H438 C453 0.930 . S
H439 C460 0.930 . S
H440 C434 0.929 . S
H441 C433 0.930 . S
H442 C456 0.929 . S
H443 C423 0.931 . S
H444 C429 0.931 . S
H445 C430 0.931 1_455 S
H446 C451 0.931 . S
H447 C426 0.929 . S
H448 C459 0.930 1_565 S
N449 Eu420 2.600 . S
N449 C450 1.365 . S
N449 C453 1.319 . S
C450 N449 1.365 . S
C450 C452 1.405 . S
C450 C458 1.448 . S
C451 H446 0.931 . S
C451 C453 1.397 . S
C451 C454 1.367 . S
C452 C450 1.405 . S
C452 C454 1.403 . S
C452 C485 1.447 . S
C453 H438 0.930 . S
C453 N449 1.319 . S
C453 C451 1.397 . S
C454 C451 1.367 . S
C454 C452 1.403 . S
C454 H461 0.929 . S
N455 Eu420 2.562 . S
N455 C456 1.325 . S
N455 C458 1.351 . S
C456 H442 0.929 . S
C456 N455 1.325 . S
C456 C460 1.416 . S
C457 C458 1.430 . S
C457 C459 1.404 . S
C457 C486 1.387 1_545 S
C458 C450 1.448 . S
C458 N455 1.351 . S
C458 C457 1.430 . S
C459 H448 0.930 1_545 S
C459 C457 1.404 . S
C459 C460 1.366 . S
C460 H439 0.930 . S
C460 C456 1.416 . S
C460 C459 1.366 . S
H461 C454 0.929 . S
H462 C485 0.924 1_565 S
H463 C486 0.931 . S
O464 Eu420 2.462 . S
O464 C484 1.252 . S
O465 Eu420 2.373 . S
O465 C476 1.249 . S
O466 Eu431 2.335 . S
O466 C476 1.264 . S
O467 Eu420 2.432 . S
O467 C484 1.268 . S
O468 Eu420 2.291 . S
O468 C483 1.255 . S
O469 Eu431 2.372 . S
O469 C483 1.257 . S
O470 Eu431 2.462 . S
O470 C495 1.252 . S
O471 Eu431 2.373 . S
O471 C487 1.249 . S
O472 Eu420 2.335 . S
O472 C487 1.264 . S
O473 Eu431 2.432 . S
O473 C495 1.268 . S
O474 Eu431 2.291 . S
O474 C494 1.255 . S
O475 Eu420 2.372 . S
O475 C494 1.257 . S
C476 O465 1.249 . S
C476 O466 1.264 . S
C477 C480 1.382 . S
C477 C482 1.390 . S
C477 C484 1.506 . S
C478 C479 1.398 . S
C478 C482 1.392 . S
C479 C478 1.398 . S
C479 C481 1.372 . S
C479 H496 0.931 . S
C480 C477 1.382 . S
C480 C481 1.390 . S
C480 H497 0.931 . S
C481 C479 1.372 . S
C481 C480 1.390 . S
C481 H498 0.929 . S
C482 C477 1.390 . S
C482 C478 1.392 . S
C482 H499 0.930 . S
C483 O468 1.255 . S
C483 O469 1.257 . S
C484 Eu420 2.787 . S
C484 O464 1.252 . S
C484 O467 1.268 . S
C484 C477 1.506 . S
C485 C452 1.447 . S
C485 H462 0.924 1_545 S
C485 C486 1.373 1_545 S
C486 C457 1.387 1_565 S
C486 H463 0.931 . S
C486 C485 1.373 1_565 S
C487 O471 1.249 . S
C487 O472 1.264 . S
C488 C491 1.382 . S
C488 C492 1.390 . S
C488 C495 1.506 1_455 S
C489 C490 1.398 . S
C489 C492 1.392 . S
C490 C489 1.398 . S
C490 C493 1.372 . S
C490 H500 0.931 . S
C491 C488 1.382 . S
C491 C493 1.390 . S
C491 H501 0.931 . S
C492 C488 1.390 . S
C492 C489 1.392 . S
C492 H502 0.930 . S
C493 C490 1.372 . S
C493 C491 1.390 . S
C493 H503 0.929 . S
C494 O474 1.255 . S
C494 O475 1.257 . S
C495 Eu431 2.787 . S
C495 O470 1.252 . S
C495 O473 1.268 . S
C495 C488 1.506 1_655 S
H496 C479 0.931 . S
H497 C480 0.931 . S
H498 C481 0.929 . S
H499 C482 0.930 . S
H500 C490 0.931 . S
H501 C491 0.931 . S
H502 C492 0.930 . S
H503 C493 0.929 . S
Eu504 N533 2.600 . S
Eu504 N539 2.562 . S
Eu504 O548 2.462 . S
Eu504 O549 2.373 . S
Eu504 O551 2.432 . S
Eu504 O552 2.291 . S
Eu504 O556 2.335 . S
Eu504 O559 2.372 . S
Eu504 C568 2.787 . S
C505 N506 1.365 . S
C505 C508 1.405 . S
C505 C512 1.448 . S
N506 C505 1.365 . S
N506 C509 1.319 . S
N506 Eu515 2.600 . S
C507 C509 1.397 . S
C507 C510 1.367 . S
C507 H527 0.931 . S
C508 C505 1.405 . S
C508 C510 1.403 . S
C508 C514 1.439 . S
C509 N506 1.319 . S
C509 C507 1.397 . S
C509 H520 0.930 . S
C510 C507 1.367 . S
C510 C508 1.403 . S
C510 H531 0.929 . S
C511 C512 1.430 . S
C511 C513 1.387 1_455 S
C511 C517 1.404 1_455 S
C512 C505 1.448 . S
C512 C511 1.430 . S
C512 N516 1.351 . S
C513 C511 1.387 1_655 S
C513 C514 1.374 1_655 S
C513 H528 0.931 . S
C514 C508 1.439 . S
C514 C513 1.374 1_455 S
C514 H529 0.933 1_455 S
Eu515 N506 2.600 . S
Eu515 N516 2.562 . S
Eu515 O550 2.335 . S
Eu515 O553 2.372 . S
Eu515 O554 2.462 . S
Eu515 O555 2.373 . S
Eu515 O557 2.432 . S
Eu515 O558 2.291 . S
Eu515 C579 2.787 . S
N516 C512 1.351 . S
N516 Eu515 2.562 . S
N516 C518 1.325 . S
C517 C511 1.404 1_655 S
C517 C519 1.366 1_655 S
C517 H525 0.930 . S
C518 N516 1.325 . S
C518 C519 1.416 . S
C518 H524 0.929 . S
C519 C517 1.366 1_455 S
C519 C518 1.416 . S
C519 H521 0.930 . S
H520 C509 0.930 . S
H521 C519 0.930 . S
H522 C537 0.930 . S
H523 C544 0.930 . S
H524 C518 0.929 . S
H525 C517 0.930 . S
H526 C540 0.929 . S
H527 C507 0.931 . S
H528 C513 0.931 . S
H529 C514 0.933 1_655 S
H530 C535 0.931 . S
H531 C510 0.929 . S
H532 C543 0.930 . S
N533 Eu504 2.600 . S
N533 C534 1.365 . S
N533 C537 1.319 . S
C534 N533 1.365 . S
C534 C536 1.405 . S
C534 C542 1.448 . S
C535 H530 0.931 . S
C535 C537 1.397 . S
C535 C538 1.367 . S
C536 C534 1.405 . S
C536 C538 1.403 . S
C536 C569 1.439 . S
C537 H522 0.930 . S
C537 N533 1.319 . S
C537 C535 1.397 . S
C538 C535 1.367 . S
C538 C536 1.403 . S
C538 H545 0.929 . S
N539 Eu504 2.562 . S
N539 C540 1.325 . S
N539 C542 1.351 . S
C540 H526 0.929 . S
C540 N539 1.325 . S
C540 C544 1.416 . S
C541 C542 1.430 . S
C541 C543 1.404 . S
C541 C570 1.387 . S
C542 C534 1.448 . S
C542 N539 1.351 . S
C542 C541 1.430 . S
C543 H532 0.930 . S
C543 C541 1.404 . S
C543 C544 1.366 . S
C544 H523 0.930 . S
C544 C540 1.416 . S
C544 C543 1.366 . S
H545 C538 0.929 . S
H546 C569 0.931 . S
H547 C570 0.931 . S
O548 Eu504 2.462 . S
O548 C568 1.252 . S
O549 Eu504 2.373 . S
O549 C560 1.249 . S
O550 Eu515 2.335 . S
O550 C560 1.264 . S
O551 Eu504 2.432 . S
O551 C568 1.268 . S
O552 Eu504 2.291 . S
O552 C567 1.255 . S
O553 Eu515 2.372 . S
O553 C567 1.257 . S
O554 Eu515 2.462 . S
O554 C579 1.252 . S
O555 Eu515 2.373 . S
O555 C571 1.249 . S
O556 Eu504 2.335 . S
O556 C571 1.264 . S
O557 Eu515 2.432 . S
O557 C579 1.268 . S
O558 Eu515 2.291 . S
O558 C578 1.255 . S
O559 Eu504 2.372 . S
O559 C578 1.257 . S
C560 O549 1.249 . S
C560 O550 1.264 . S
C561 C564 1.382 . S
C561 C566 1.390 . S
C561 C568 1.506 . S
C562 C563 1.398 . S
C562 C566 1.392 . S
C563 C562 1.398 . S
C563 C565 1.372 . S
C563 H580 0.931 . S
C564 C561 1.382 . S
C564 C565 1.390 . S
C564 H581 0.931 . S
C565 C563 1.372 . S
C565 C564 1.390 . S
C565 H582 0.929 . S
C566 C561 1.390 . S
C566 C562 1.392 . S
C566 H583 0.930 . S
C567 O552 1.255 . S
C567 O553 1.257 . S
C568 Eu504 2.787 . S
C568 O548 1.252 . S
C568 O551 1.268 . S
C568 C561 1.506 . S
C569 C536 1.439 . S
C569 H546 0.931 . S
C569 C570 1.374 . S
C570 C541 1.387 . S
C570 H547 0.931 . S
C570 C569 1.374 . S
C571 O555 1.249 . S
C571 O556 1.264 . S
C572 C575 1.382 . S
C572 C576 1.390 . S
C572 C579 1.506 1_655 S
C573 C574 1.398 . S
C573 C576 1.392 . S
C574 C573 1.398 . S
C574 C577 1.372 . S
C574 H584 0.931 . S
C575 C572 1.382 . S
C575 C577 1.390 . S
C575 H585 0.931 . S
C576 C572 1.390 . S
C576 C573 1.392 . S
C576 H586 0.930 . S
C577 C574 1.372 . S
C577 C575 1.390 . S
C577 H587 0.929 . S
C578 O558 1.255 . S
C578 O559 1.257 . S
C579 Eu515 2.787 . S
C579 O554 1.252 . S
C579 O557 1.268 . S
C579 C572 1.506 1_455 S
H580 C563 0.931 . S
H581 C564 0.931 . S
H582 C565 0.929 . S
H583 C566 0.930 . S
H584 C574 0.931 . S
H585 C575 0.931 . S
H586 C576 0.930 . S
H587 C577 0.929 . S
Eu588 N617 2.600 . S
Eu588 N623 2.562 . S
Eu588 O632 2.462 . S
Eu588 O633 2.373 . S
Eu588 O635 2.432 . S
Eu588 O636 2.291 . S
Eu588 O640 2.335 . S
Eu588 O643 2.372 . S
Eu588 C652 2.787 . S
C589 N590 1.365 . S
C589 C592 1.405 . S
C589 C596 1.448 . S
N590 C589 1.365 . S
N590 C593 1.319 . S
N590 Eu599 2.600 . S
C591 C593 1.397 . S
C591 C594 1.367 . S
C591 H611 0.931 1_556 S
C592 C589 1.405 . S
C592 C594 1.403 . S
C592 C598 1.447 . S
C593 N590 1.319 . S
C593 C591 1.397 . S
C593 H604 0.930 . S
C594 C591 1.367 . S
C594 C592 1.403 . S
C594 H615 0.929 . S
C595 C596 1.430 . S
C595 C597 1.387 1_455 S
C595 C601 1.404 . S
C596 C589 1.448 . S
C596 C595 1.430 . S
C596 N600 1.351 . S
C597 C595 1.387 1_655 S
C597 C598 1.373 1_655 S
C597 H612 0.931 . S
C598 C592 1.447 . S
C598 C597 1.373 1_455 S
C598 H613 0.924 1_455 S
Eu599 N590 2.600 . S
Eu599 N600 2.562 . S
Eu599 O634 2.335 . S
Eu599 O637 2.372 . S
Eu599 O638 2.462 . S
Eu599 O639 2.373 . S
Eu599 O641 2.432 . S
Eu599 O642 2.291 . S
Eu599 C663 2.787 . S
N600 C596 1.351 . S
N600 Eu599 2.562 . S
N600 C602 1.325 . S
C601 C595 1.404 . S
C601 C603 1.366 . S
C601 H609 0.930 1_455 S
C602 N600 1.325 . S
C602 C603 1.416 . S
C602 H608 0.929 . S
C603 C601 1.366 . S
C603 C602 1.416 . S
C603 H605 0.930 . S
H604 C593 0.930 . S
H605 C603 0.930 . S
H606 C621 0.930 . S
H607 C628 0.930 . S
H608 C602 0.929 . S
H609 C601 0.930 1_655 S
H610 C624 0.929 . S
H611 C591 0.931 1_554 S
H612 C597 0.931 . S
H613 C598 0.924 1_655 S
H614 C619 0.931 . S
H615 C594 0.929 . S
H616 C627 0.930 . S
N617 Eu588 2.600 . S
N617 C618 1.365 . S
N617 C621 1.319 . S
C618 N617 1.365 . S
C618 C620 1.405 . S
C618 C626 1.448 . S
C619 H614 0.931 . S
C619 C621 1.397 . S
C619 C622 1.367 . S
C620 C618 1.405 . S
C620 C622 1.403 . S
C620 C653 1.439 . S
C621 H606 0.930 . S
C621 N617 1.319 . S
C621 C619 1.397 . S
C622 C619 1.367 . S
C622 C620 1.403 . S
C622 H629 0.929 . S
N623 Eu588 2.562 . S
N623 C624 1.325 . S
N623 C626 1.351 . S
C624 H610 0.929 . S
C624 N623 1.325 . S
C624 C628 1.416 . S
C625 C626 1.430 . S
C625 C627 1.404 1_565 S
C625 C654 1.387 1_565 S
C626 C618 1.448 . S
C626 N623 1.351 . S
C626 C625 1.430 . S
C627 H616 0.930 . S
C627 C625 1.404 1_545 S
C627 C628 1.366 1_545 S
C628 H607 0.930 . S
C628 C624 1.416 . S
C628 C627 1.366 1_565 S
H629 C622 0.929 . S
H630 C653 0.931 1_545 S
H631 C654 0.931 . S
O632 Eu588 2.462 . S
O632 C652 1.252 . S
O633 Eu588 2.373 . S
O633 C644 1.249 . S
O634 Eu599 2.335 . S
O634 C644 1.264 . S
O635 Eu588 2.432 . S
O635 C652 1.268 . S
O636 Eu588 2.291 . S
O636 C651 1.255 . S
O637 Eu599 2.372 . S
O637 C651 1.257 . S
O638 Eu599 2.462 . S
O638 C663 1.252 . S
O639 Eu599 2.373 . S
O639 C655 1.249 . S
O640 Eu588 2.335 . S
O640 C655 1.264 . S
O641 Eu599 2.432 . S
O641 C663 1.268 . S
O642 Eu599 2.291 . S
O642 C662 1.255 . S
O643 Eu588 2.372 . S
O643 C662 1.257 . S
C644 O633 1.249 . S
C644 O634 1.264 . S
C645 C648 1.382 . S
C645 C650 1.390 . S
C645 C652 1.506 1_545 S
C646 C647 1.398 . S
C646 C650 1.392 . S
C647 C646 1.398 . S
C647 C649 1.372 . S
C647 H664 0.931 . S
C648 C645 1.382 . S
C648 C649 1.390 . S
C648 H665 0.931 . S
C649 C647 1.372 . S
C649 C648 1.390 . S
C649 H666 0.929 . S
C650 C645 1.390 . S
C650 C646 1.392 . S
C650 H667 0.930 . S
C651 O636 1.255 . S
C651 O637 1.257 . S
C652 Eu588 2.787 . S
C652 O632 1.252 . S
C652 O635 1.268 . S
C652 C645 1.506 1_565 S
C653 C620 1.439 . S
C653 H630 0.931 1_565 S
C653 C654 1.374 1_565 S
C654 C625 1.387 1_545 S
C654 H631 0.931 . S
C654 C653 1.374 1_545 S
C655 O639 1.249 . S
C655 O640 1.264 . S
C656 C659 1.382 . S
C656 C660 1.390 . S
C656 C663 1.506 . S
C657 C658 1.398 . S
C657 C660 1.392 . S
C658 C657 1.398 . S
C658 C661 1.372 . S
C658 H668 0.931 . S
C659 C656 1.382 . S
C659 C661 1.390 . S
C659 H669 0.931 . S
C660 C656 1.390 . S
C660 C657 1.392 . S
C660 H670 0.930 . S
C661 C658 1.372 . S
C661 C659 1.390 . S
C661 H671 0.929 . S
C662 O642 1.255 . S
C662 O643 1.257 . S
C663 Eu599 2.787 . S
C663 O638 1.252 . S
C663 O641 1.268 . S
C663 C656 1.506 . S
H664 C647 0.931 . S
H665 C648 0.931 . S
H666 C649 0.929 . S
H667 C650 0.930 . S
H668 C658 0.931 . S
H669 C659 0.931 . S
H670 C660 0.930 . S
H671 C661 0.929 . S
Eu672 N701 2.600 . S
Eu672 N707 2.562 . S
Eu672 O716 2.462 . S
Eu672 O717 2.373 . S
Eu672 O719 2.432 . S
Eu672 O720 2.291 . S
Eu672 O724 2.335 . S
Eu672 O727 2.372 . S
Eu672 C736 2.787 . S
C673 N674 1.365 . S
C673 C676 1.405 . S
C673 C680 1.448 . S
N674 C673 1.365 . S
N674 C677 1.319 . S
N674 Eu683 2.600 . S
C675 C677 1.397 . S
C675 C678 1.367 . S
C675 H695 0.931 . S
C676 C673 1.405 . S
C676 C678 1.403 . S
C676 C682 1.439 . S
C677 N674 1.319 . S
C677 C675 1.397 . S
C677 H688 0.930 . S
C678 C675 1.367 . S
C678 C676 1.403 . S
C678 H699 0.929 . S
C679 C680 1.430 . S
C679 C681 1.387 . S
C679 C685 1.404 . S
C680 C673 1.448 . S
C680 C679 1.430 . S
C680 N684 1.351 . S
C681 C679 1.387 . S
C681 C682 1.374 . S
C681 H696 0.931 . S
C682 C676 1.439 . S
C682 C681 1.374 . S
C682 H697 0.931 . S
Eu683 N674 2.600 . S
Eu683 N684 2.562 . S
Eu683 O718 2.335 . S
Eu683 O721 2.372 . S
Eu683 O722 2.462 . S
Eu683 O723 2.373 . S
Eu683 O725 2.432 . S
Eu683 O726 2.291 . S
Eu683 C747 2.787 . S
N684 C680 1.351 . S
N684 Eu683 2.562 . S
N684 C686 1.325 . S
C685 C679 1.404 . S
C685 C687 1.366 . S
C685 H693 0.930 . S
C686 N684 1.325 . S
C686 C687 1.416 . S
C686 H692 0.929 . S
C687 C685 1.366 . S
C687 C686 1.416 . S
C687 H689 0.930 . S
H688 C677 0.930 . S
H689 C687 0.930 . S
H690 C705 0.930 . S
H691 C712 0.930 . S
H692 C686 0.929 . S
H693 C685 0.930 . S
H694 C708 0.929 . S
H695 C675 0.931 . S
H696 C681 0.931 . S
H697 C682 0.931 . S
H698 C703 0.931 . S
H699 C678 0.929 . S
H700 C711 0.930 1_545 S
N701 Eu672 2.600 . S
N701 C702 1.365 . S
N701 C705 1.319 . S
C702 N701 1.365 . S
C702 C704 1.405 . S
C702 C710 1.448 . S
C703 H698 0.931 . S
C703 C705 1.397 . S
C703 C706 1.367 . S
C704 C702 1.405 . S
C704 C706 1.403 . S
C704 C737 1.449 . S
C705 H690 0.930 . S
C705 N701 1.319 . S
C705 C703 1.397 . S
C706 C703 1.367 . S
C706 C704 1.403 . S
C706 H713 0.929 . S
N707 Eu672 2.562 . S
N707 C708 1.325 . S
N707 C710 1.351 . S
C708 H694 0.929 . S
C708 N707 1.325 . S
C708 C712 1.416 . S
C709 C710 1.430 . S
C709 C711 1.404 . S
C709 C738 1.387 1_565 S
C710 C702 1.448 . S
C710 N707 1.351 . S
C710 C709 1.430 . S
C711 H700 0.930 1_565 S
C711 C709 1.404 . S
C711 C712 1.366 . S
C712 H691 0.930 . S
C712 C708 1.416 . S
C712 C711 1.366 . S
H713 C706 0.929 . S
H714 C737 0.925 1_545 S
H715 C738 0.931 . S
O716 Eu672 2.462 . S
O716 C736 1.252 . S
O717 Eu672 2.373 . S
O717 C728 1.249 . S
O718 Eu683 2.335 . S
O718 C728 1.264 . S
O719 Eu672 2.432 . S
O719 C736 1.268 . S
O720 Eu672 2.291 . S
O720 C735 1.255 . S
O721 Eu683 2.372 . S
O721 C735 1.257 . S
O722 Eu683 2.462 . S
O722 C747 1.252 . S
O723 Eu683 2.373 . S
O723 C739 1.249 . S
O724 Eu672 2.335 . S
O724 C739 1.264 . S
O725 Eu683 2.432 . S
O725 C747 1.268 . S
O726 Eu683 2.291 . S
O726 C746 1.255 . S
O727 Eu672 2.372 . S
O727 C746 1.257 . S
C728 O717 1.249 . S
C728 O718 1.264 . S
C729 C732 1.382 . S
C729 C734 1.390 . S
C729 C736 1.506 . S
C730 C731 1.398 . S
C730 C734 1.392 . S
C731 C730 1.398 . S
C731 C733 1.372 . S
C731 H748 0.931 . S
C732 C729 1.382 . S
C732 C733 1.390 . S
C732 H749 0.931 . S
C733 C731 1.372 . S
C733 C732 1.390 . S
C733 H750 0.929 . S
C734 C729 1.390 . S
C734 C730 1.392 . S
C734 H751 0.930 . S
C735 O720 1.255 . S
C735 O721 1.257 . S
C736 Eu672 2.787 . S
C736 O716 1.252 . S
C736 O719 1.268 . S
C736 C729 1.506 . S
C737 C704 1.449 . S
C737 H714 0.925 1_565 S
C737 C738 1.371 1_565 S
C738 C709 1.387 1_545 S
C738 H715 0.931 . S
C738 C737 1.371 1_545 S
C739 O723 1.249 . S
C739 O724 1.264 . S
C740 C743 1.382 . S
C740 C744 1.390 . S
C740 C747 1.506 . S
C741 C742 1.398 . S
C741 C744 1.392 . S
C742 C741 1.398 . S
C742 C745 1.372 . S
C742 H752 0.931 . S
C743 C740 1.382 . S
C743 C745 1.390 . S
C743 H753 0.931 . S
C744 C740 1.390 . S
C744 C741 1.392 . S
C744 H754 0.930 . S
C745 C742 1.372 . S
C745 C743 1.390 . S
C745 H755 0.929 . S
C746 O726 1.255 . S
C746 O727 1.257 . S
C747 Eu683 2.787 . S
C747 O722 1.252 . S
C747 O725 1.268 . S
C747 C740 1.506 . S
H748 C731 0.931 . S
H749 C732 0.931 . S
H750 C733 0.929 . S
H751 C734 0.930 . S
H752 C742 0.931 . S
H753 C743 0.931 . S
H754 C744 0.930 . S
H755 C745 0.929 . S
Eu756 N785 2.600 . S
Eu756 N791 2.562 . S
Eu756 O800 2.462 . S
Eu756 O801 2.373 . S
Eu756 O803 2.432 . S
Eu756 O804 2.291 . S
Eu756 O808 2.335 . S
Eu756 O811 2.372 . S
Eu756 C820 2.787 . S
C757 N758 1.365 . S
C757 C760 1.405 . S
C757 C764 1.448 . S
N758 C757 1.365 . S
N758 C761 1.319 . S
N758 Eu767 2.600 . S
C759 C761 1.397 . S
C759 C762 1.367 . S
C759 H779 0.931 1_556 S
C760 C757 1.405 . S
C760 C762 1.403 . S
C760 C766 1.439 . S
C761 N758 1.319 . S
C761 C759 1.397 . S
C761 H772 0.930 . S
C762 C759 1.367 . S
C762 C760 1.403 . S
C762 H783 0.929 . S
C763 C764 1.430 . S
C763 C765 1.387 . S
C763 C769 1.404 . S
C764 C757 1.448 . S
C764 C763 1.430 . S
C764 N768 1.351 . S
C765 C763 1.387 . S
C765 C766 1.374 . S
C765 H780 0.931 . S
C766 C760 1.439 . S
C766 C765 1.374 . S
C766 H781 0.931 . S
Eu767 N758 2.600 . S
Eu767 N768 2.562 . S
Eu767 O802 2.335 . S
Eu767 O805 2.372 . S
Eu767 O806 2.462 . S
Eu767 O807 2.373 . S
Eu767 O809 2.432 . S
Eu767 O810 2.291 . S
Eu767 C831 2.787 . S
N768 C764 1.351 . S
N768 Eu767 2.562 . S
N768 C770 1.325 . S
C769 C763 1.404 . S
C769 C771 1.366 . S
C769 H777 0.930 . S
C770 N768 1.325 . S
C770 C771 1.416 . S
C770 H776 0.929 . S
C771 C769 1.366 . S
C771 C770 1.416 . S
C771 H773 0.930 . S
H772 C761 0.930 . S
H773 C771 0.930 . S
H774 C789 0.930 . S
H775 C796 0.930 . S
H776 C770 0.929 . S
H777 C769 0.930 . S
H778 C792 0.929 . S
H779 C759 0.931 1_554 S
H780 C765 0.931 . S
H781 C766 0.931 . S
H782 C787 0.931 . S
H783 C762 0.929 . S
H784 C795 0.930 . S
N785 Eu756 2.600 . S
N785 C786 1.365 . S
N785 C789 1.319 . S
C786 N785 1.365 . S
C786 C788 1.405 . S
C786 C794 1.448 . S
C787 H782 0.931 . S
C787 C789 1.397 . S
C787 C790 1.367 . S
C788 C786 1.405 . S
C788 C790 1.403 . S
C788 C821 1.439 . S
C789 H774 0.930 . S
C789 N785 1.319 . S
C789 C787 1.397 . S
C790 C787 1.367 . S
C790 C788 1.403 . S
C790 H797 0.929 . S
N791 Eu756 2.562 . S
N791 C792 1.325 . S
N791 C794 1.351 . S
C792 H778 0.929 . S
C792 N791 1.325 . S
C792 C796 1.416 . S
C793 C794 1.430 . S
C793 C795 1.404 1_455 S
C793 C822 1.387 1_455 S
C794 C786 1.448 . S
C794 N791 1.351 . S
C794 C793 1.430 . S
C795 H784 0.930 . S
C795 C793 1.404 1_655 S
C795 C796 1.366 1_655 S
C796 H775 0.930 . S
C796 C792 1.416 . S
C796 C795 1.366 1_455 S
H797 C790 0.929 . S
H798 C821 0.933 1_655 S
H799 C822 0.931 . S
O800 Eu756 2.462 . S
O800 C820 1.252 . S
O801 Eu756 2.373 . S
O801 C812 1.249 . S
O802 Eu767 2.335 . S
O802 C812 1.264 . S
O803 Eu756 2.432 . S
O803 C820 1.268 . S
O804 Eu756 2.291 . S
O804 C819 1.255 . S
O805 Eu767 2.372 . S
O805 C819 1.257 . S
O806 Eu767 2.462 . S
O806 C831 1.252 . S
O807 Eu767 2.373 . S
O807 C823 1.249 . S
O808 Eu756 2.335 . S
O808 C823 1.264 . S
O809 Eu767 2.432 . S
O809 C831 1.268 . S
O810 Eu767 2.291 . S
O810 C830 1.255 . S
O811 Eu756 2.372 . S
O811 C830 1.257 . S
C812 O801 1.249 . S
C812 O802 1.264 . S
C813 C816 1.382 . S
C813 C818 1.390 . S
C813 C820 1.506 1_655 S
C814 C815 1.398 . S
C814 C818 1.392 . S
C815 C814 1.398 . S
C815 C817 1.372 . S
C815 H832 0.931 . S
C816 C813 1.382 . S
C816 C817 1.390 . S
C816 H833 0.931 . S
C817 C815 1.372 . S
C817 C816 1.390 . S
C817 H834 0.929 . S
C818 C813 1.390 . S
C818 C814 1.392 . S
C818 H835 0.930 . S
C819 O804 1.255 . S
C819 O805 1.257 . S
C820 Eu756 2.787 . S
C820 O800 1.252 . S
C820 O803 1.268 . S
C820 C813 1.506 1_455 S
C821 C788 1.439 . S
C821 H798 0.933 1_455 S
C821 C822 1.374 1_455 S
C822 C793 1.387 1_655 S
C822 H799 0.931 . S
C822 C821 1.374 1_655 S
C823 O807 1.249 . S
C823 O808 1.264 . S
C824 C827 1.382 . S
C824 C828 1.390 . S
C824 C831 1.506 . S
C825 C826 1.398 . S
C825 C828 1.392 . S
C826 C825 1.398 . S
C826 C829 1.372 . S
C826 H836 0.931 . S
C827 C824 1.382 . S
C827 C829 1.390 . S
C827 H837 0.931 . S
C828 C824 1.390 . S
C828 C825 1.392 . S
C828 H838 0.930 . S
C829 C826 1.372 . S
C829 C827 1.390 . S
C829 H839 0.929 . S
C830 O810 1.255 . S
C830 O811 1.257 . S
C831 Eu767 2.787 . S
C831 O806 1.252 . S
C831 O809 1.268 . S
C831 C824 1.506 . S
H832 C815 0.931 . S
H833 C816 0.931 . S
H834 C817 0.929 . S
H835 C818 0.930 . S
H836 C826 0.931 . S
H837 C827 0.931 . S
H838 C828 0.930 . S
H839 C829 0.929 . S
Eu840 N869 2.600 . S
Eu840 N875 2.562 . S
Eu840 O884 2.462 . S
Eu840 O885 2.373 . S
Eu840 O887 2.432 . S
Eu840 O888 2.291 . S
Eu840 O892 2.335 . S
Eu840 O895 2.372 . S
Eu840 C904 2.787 . S
C841 N842 1.365 . S
C841 C844 1.405 . S
C841 C848 1.448 . S
N842 C841 1.365 . S
N842 C845 1.319 . S
N842 Eu851 2.600 . S
C843 C845 1.397 . S
C843 C846 1.367 . S
C843 H863 0.931 . S
C844 C841 1.405 . S
C844 C846 1.403 . S
C844 C850 1.439 . S
C845 N842 1.319 . S
C845 C843 1.397 . S
C845 H856 0.930 . S
C846 C843 1.367 . S
C846 C844 1.403 . S
C846 H867 0.929 . S
C847 C848 1.430 . S
C847 C849 1.387 1_565 S
C847 C853 1.404 1_565 S
C848 C841 1.448 . S
C848 C847 1.430 . S
C848 N852 1.351 . S
C849 C847 1.387 1_545 S
C849 C850 1.374 1_545 S
C849 H864 0.931 . S
C850 C844 1.439 . S
C850 C849 1.374 1_565 S
C850 H865 0.931 1_565 S
Eu851 N842 2.600 . S
Eu851 N852 2.562 . S
Eu851 O886 2.335 . S
Eu851 O889 2.372 . S
Eu851 O890 2.462 . S
Eu851 O891 2.373 . S
Eu851 O893 2.432 . S
Eu851 O894 2.291 . S
Eu851 C915 2.787 . S
N852 C848 1.351 . S
N852 Eu851 2.562 . S
N852 C854 1.325 . S
C853 C847 1.404 1_545 S
C853 C855 1.366 1_545 S
C853 H861 0.930 . S
C854 N852 1.325 . S
C854 C855 1.416 . S
C854 H860 0.929 . S
C855 C853 1.366 1_565 S
C855 C854 1.416 . S
C855 H857 0.930 . S
H856 C845 0.930 . S
H857 C855 0.930 . S
H858 C873 0.930 . S
H859 C880 0.930 . S
H860 C854 0.929 . S
H861 C853 0.930 . S
H862 C876 0.929 . S
H863 C843 0.931 . S
H864 C849 0.931 . S
H865 C850 0.931 1_545 S
H866 C871 0.931 . S
H867 C846 0.929 . S
H868 C879 0.930 1_655 S
N869 Eu840 2.600 . S
N869 C870 1.365 . S
N869 C873 1.319 . S
C870 N869 1.365 . S
C870 C872 1.405 . S
C870 C878 1.448 . S
C871 H866 0.931 . S
C871 C873 1.397 . S
C871 C874 1.367 . S
C872 C870 1.405 . S
C872 C874 1.403 . S
C872 C905 1.447 . S
C873 H858 0.930 . S
C873 N869 1.319 . S
C873 C871 1.397 . S
C874 C871 1.367 . S
C874 C872 1.403 . S
C874 H881 0.929 . S
N875 Eu840 2.562 . S
N875 C876 1.325 . S
N875 C878 1.351 . S
C876 H862 0.929 . S
C876 N875 1.325 . S
C876 C880 1.416 . S
C877 C878 1.430 . S
C877 C879 1.404 . S
C877 C906 1.387 1_455 S
C878 C870 1.448 . S
C878 N875 1.351 . S
C878 C877 1.430 . S
C879 H868 0.930 1_455 S
C879 C877 1.404 . S
C879 C880 1.366 . S
C880 H859 0.930 . S
C880 C876 1.416 . S
C880 C879 1.366 . S
H881 C874 0.929 . S
H882 C905 0.924 1_655 S
H883 C906 0.931 . S
O884 Eu840 2.462 . S
O884 C904 1.252 . S
O885 Eu840 2.373 . S
O885 C896 1.249 . S
O886 Eu851 2.335 . S
O886 C896 1.264 . S
O887 Eu840 2.432 . S
O887 C904 1.268 . S
O888 Eu840 2.291 . S
O888 C903 1.255 . S
O889 Eu851 2.372 . S
O889 C903 1.257 . S
O890 Eu851 2.462 . S
O890 C915 1.252 . S
O891 Eu851 2.373 . S
O891 C907 1.249 . S
O892 Eu840 2.335 . S
O892 C907 1.264 . S
O893 Eu851 2.432 . S
O893 C915 1.268 . S
O894 Eu851 2.291 . S
O894 C914 1.255 . S
O895 Eu840 2.372 . S
O895 C914 1.257 . S
C896 O885 1.249 . S
C896 O886 1.264 . S
C897 C900 1.382 . S
C897 C902 1.390 . S
C897 C904 1.506 . S
C898 C899 1.398 . S
C898 C902 1.392 . S
C899 C898 1.398 . S
C899 C901 1.372 . S
C899 H916 0.931 . S
C900 C897 1.382 . S
C900 C901 1.390 . S
C900 H917 0.931 . S
C901 C899 1.372 . S
C901 C900 1.390 . S
C901 H918 0.929 . S
C902 C897 1.390 . S
C902 C898 1.392 . S
C902 H919 0.930 . S
C903 O888 1.255 . S
C903 O889 1.257 . S
C904 Eu840 2.787 . S
C904 O884 1.252 . S
C904 O887 1.268 . S
C904 C897 1.506 . S
C905 C872 1.447 . S
C905 H882 0.924 1_455 S
C905 C906 1.373 1_455 S
C906 C877 1.387 1_655 S
C906 H883 0.931 . S
C906 C905 1.373 1_655 S
C907 O891 1.249 . S
C907 O892 1.264 . S
C908 C911 1.382 . S
C908 C912 1.390 . S
C908 C915 1.506 1_545 S
C909 C910 1.398 . S
C909 C912 1.392 . S
C910 C909 1.398 . S
C910 C913 1.372 . S
C910 H920 0.931 . S
C911 C908 1.382 . S
C911 C913 1.390 . S
C911 H921 0.931 . S
C912 C908 1.390 . S
C912 C909 1.392 . S
C912 H922 0.930 . S
C913 C910 1.372 . S
C913 C911 1.390 . S
C913 H923 0.929 . S
C914 O894 1.255 . S
C914 O895 1.257 . S
C915 Eu851 2.787 . S
C915 O890 1.252 . S
C915 O893 1.268 . S
C915 C908 1.506 1_565 S
H916 C899 0.931 . S
H917 C900 0.931 . S
H918 C901 0.929 . S
H919 C902 0.930 . S
H920 C910 0.931 . S
H921 C911 0.931 . S
H922 C912 0.930 . S
H923 C913 0.929 . S
Eu924 N953 2.600 . S
Eu924 N959 2.562 . S
Eu924 O968 2.462 . S
Eu924 O969 2.373 . S
Eu924 O971 2.432 . S
Eu924 O972 2.291 . S
Eu924 O976 2.335 . S
Eu924 O979 2.372 . S
Eu924 C988 2.787 . S
C925 N926 1.365 . S
C925 C928 1.405 . S
C925 C932 1.448 . S
N926 C925 1.365 . S
N926 C929 1.319 . S
N926 Eu935 2.600 . S
C927 C929 1.397 . S
C927 C930 1.367 . S
C927 H947 0.931 1_556 S
C928 C925 1.405 . S
C928 C930 1.403 . S
C928 C934 1.449 . S
C929 N926 1.319 . S
C929 C927 1.397 . S
C929 H940 0.930 . S
C930 C927 1.367 . S
C930 C928 1.403 . S
C930 H951 0.929 . S
C931 C932 1.430 . S
C931 C933 1.387 1_565 S
C931 C937 1.404 . S
C932 C925 1.448 . S
C932 C931 1.430 . S
C932 N936 1.351 . S
C933 C931 1.387 1_545 S
C933 C934 1.371 1_545 S
C933 H948 0.931 . S
C934 C928 1.449 . S
C934 C933 1.371 1_565 S
C934 H949 0.925 1_565 S
Eu935 N926 2.600 . S
Eu935 N936 2.562 . S
Eu935 O970 2.335 . S
Eu935 O973 2.372 . S
Eu935 O974 2.462 . S
Eu935 O975 2.373 . S
Eu935 O977 2.432 . S
Eu935 O978 2.291 . S
Eu935 C999 2.787 . S
N936 C932 1.351 . S
N936 Eu935 2.562 . S
N936 C938 1.325 . S
C937 C931 1.404 . S
C937 C939 1.366 . S
C937 H945 0.930 1_565 S
C938 N936 1.325 . S
C938 C939 1.416 . S
C938 H944 0.929 . S
C939 C937 1.366 . S
C939 C938 1.416 . S
C939 H941 0.930 . S
H940 C929 0.930 . S
H941 C939 0.930 . S
H942 C957 0.930 . S
H943 C964 0.930 . S
H944 C938 0.929 . S
H945 C937 0.930 1_545 S
H946 C960 0.929 . S
H947 C927 0.931 1_554 S
H948 C933 0.931 . S
H949 C934 0.925 1_545 S
H950 C955 0.931 . S
H951 C930 0.929 . S
H952 C963 0.930 . S
N953 Eu924 2.600 . S
N953 C954 1.365 . S
N953 C957 1.319 . S
C954 N953 1.365 . S
C954 C956 1.405 . S
C954 C962 1.448 . S
C955 H950 0.931 . S
C955 C957 1.397 . S
C955 C958 1.367 . S
C956 C954 1.405 . S
C956 C958 1.403 . S
C956 C989 1.439 . S
C957 H942 0.930 . S
C957 N953 1.319 . S
C957 C955 1.397 . S
C958 C955 1.367 . S
C958 C956 1.403 . S
C958 H965 0.929 . S
N959 Eu924 2.562 . S
N959 C960 1.325 . S
N959 C962 1.351 . S
C960 H946 0.929 . S
C960 N959 1.325 . S
C960 C964 1.416 . S
C961 C962 1.430 . S
C961 C963 1.404 . S
C961 C990 1.387 . S
C962 C954 1.448 . S
C962 N959 1.351 . S
C962 C961 1.430 . S
C963 H952 0.930 . S
C963 C961 1.404 . S
C963 C964 1.366 . S
C964 H943 0.930 . S
C964 C960 1.416 . S
C964 C963 1.366 . S
H965 C958 0.929 . S
H966 C989 0.931 . S
H967 C990 0.931 . S
O968 Eu924 2.462 . S
O968 C988 1.252 . S
O969 Eu924 2.373 . S
O969 C980 1.249 . S
O970 Eu935 2.335 . S
O970 C980 1.264 . S
O971 Eu924 2.432 . S
O971 C988 1.268 . S
O972 Eu924 2.291 . S
O972 C987 1.255 . S
O973 Eu935 2.372 . S
O973 C987 1.257 . S
O974 Eu935 2.462 . S
O974 C999 1.252 . S
O975 Eu935 2.373 . S
O975 C991 1.249 . S
O976 Eu924 2.335 . S
O976 C991 1.264 . S
O977 Eu935 2.432 . S
O977 C999 1.268 . S
O978 Eu935 2.291 . S
O978 C998 1.255 . S
O979 Eu924 2.372 . S
O979 C998 1.257 . S
C980 O969 1.249 . S
C980 O970 1.264 . S
C981 C984 1.382 . S
C981 C986 1.390 . S
C981 C988 1.506 . S
C982 C983 1.398 . S
C982 C986 1.392 . S
C983 C982 1.398 . S
C983 C985 1.372 . S
C983 H1000 0.931 . S
C984 C981 1.382 . S
C984 C985 1.390 . S
C984 H1001 0.931 . S
C985 C983 1.372 . S
C985 C984 1.390 . S
C985 H1002 0.929 . S
C986 C981 1.390 . S
C986 C982 1.392 . S
C986 H1003 0.930 . S
C987 O972 1.255 . S
C987 O973 1.257 . S
C988 Eu924 2.787 . S
C988 O968 1.252 . S
C988 O971 1.268 . S
C988 C981 1.506 . S
C989 C956 1.439 . S
C989 H966 0.931 . S
C989 C990 1.374 . S
C990 C961 1.387 . S
C990 H967 0.931 . S
C990 C989 1.374 . S
C991 O975 1.249 . S
C991 O976 1.264 . S
C992 C995 1.382 . S
C992 C996 1.390 . S
C992 C999 1.506 . S
C993 C994 1.398 . S
C993 C996 1.392 . S
C994 C993 1.398 . S
C994 C997 1.372 . S
C994 H1004 0.931 . S
C995 C992 1.382 . S
C995 C997 1.390 . S
C995 H1005 0.931 . S
C996 C992 1.390 . S
C996 C993 1.392 . S
C996 H1006 0.930 . S
C997 C994 1.372 . S
C997 C995 1.390 . S
C997 H1007 0.929 . S
C998 O978 1.255 . S
C998 O979 1.257 . S
C999 Eu935 2.787 . S
C999 O974 1.252 . S
C999 O977 1.268 . S
C999 C992 1.506 . S
H1000 C983 0.931 . S
H1001 C984 0.931 . S
H1002 C985 0.929 . S
H1003 C986 0.930 . S
H1004 C994 0.931 . S
H1005 C995 0.931 . S
H1006 C996 0.930 . S
H1007 C997 0.929 . S
C1008 C1009 1.391 . S
C1008 C1010 1.394 . S
C1008 H1024 0.931 . S
C1009 C1008 1.391 . S
C1009 C1013 1.376 . S
C1010 C1008 1.394 . S
C1010 C1011 1.369 . S
C1010 C1014 1.531 . S
C1011 C1010 1.369 . S
C1011 C1012 1.410 . S
C1011 C1019 1.503 . S
C1012 C1011 1.410 . S
C1012 C1013 1.392 . S
C1012 C1015 1.511 . S
C1013 C1009 1.376 . S
C1013 C1012 1.392 . S
C1013 H1025 0.929 . S
C1014 C1010 1.531 . S
C1014 H1026 0.960 . S
C1014 H1027 0.962 . S
C1014 H1028 0.960 . S
C1015 C1012 1.511 . S
C1015 H1029 0.961 . S
C1015 H1030 0.961 . S
C1015 H1031 0.961 . S
C1016 C1017 1.370 . S
C1016 C1018 1.363 . S
C1016 H1032 0.931 . S
C1017 C1016 1.370 . S
C1017 C1021 1.408 . S
C1018 C1016 1.363 . S
C1018 C1019 1.370 . S
C1018 C1022 1.524 . S
C1019 C1011 1.503 . S
C1019 C1018 1.370 . S
C1019 C1020 1.403 . S
C1020 C1019 1.403 . S
C1020 C1021 1.404 . S
C1020 C1023 1.539 . S
C1021 C1017 1.408 . S
C1021 C1020 1.404 . S
C1021 H1033 0.930 . S
C1022 C1018 1.524 . S
C1022 H1034 0.956 . S
C1022 H1035 0.961 . S
C1022 H1036 0.961 . S
C1023 C1020 1.539 . S
C1023 H1037 0.958 . S
C1023 H1038 0.961 . S
C1023 H1039 0.960 . S
H1024 C1008 0.931 . S
H1025 C1013 0.929 . S
H1026 C1014 0.960 . S
H1027 C1014 0.962 . S
H1028 C1014 0.960 . S
H1029 C1015 0.961 . S
H1030 C1015 0.961 . S
H1031 C1015 0.961 . S
H1032 C1016 0.931 . S
H1033 C1021 0.930 . S
H1034 C1022 0.956 . S
H1035 C1022 0.961 . S
H1036 C1022 0.961 . S
H1037 C1023 0.958 . S
H1038 C1023 0.961 . S
H1039 C1023 0.960 . S
C1040 C1041 1.391 . S
C1040 C1042 1.394 . S
C1040 H1056 0.931 . S
C1041 C1040 1.391 . S
C1041 C1045 1.376 . S
C1042 C1040 1.394 . S
C1042 C1043 1.369 . S
C1042 C1046 1.531 . S
C1043 C1042 1.369 . S
C1043 C1044 1.410 . S
C1043 C1051 1.503 1_455 S
C1044 C1043 1.410 . S
C1044 C1045 1.392 . S
C1044 C1047 1.511 . S
C1045 C1041 1.376 . S
C1045 C1044 1.392 . S
C1045 H1057 0.929 . S
C1046 C1042 1.531 . S
C1046 H1058 0.960 . S
C1046 H1059 0.962 . S
C1046 H1060 0.960 . S
C1047 C1044 1.511 . S
C1047 H1061 0.961 . S
C1047 H1062 0.961 1_455 S
C1047 H1063 0.961 . S
C1048 C1049 1.370 . S
C1048 C1050 1.363 . S
C1048 H1064 0.931 . S
C1049 C1048 1.370 . S
C1049 C1053 1.408 . S
C1050 C1048 1.363 . S
C1050 C1051 1.370 . S
C1050 C1054 1.524 . S
C1051 C1043 1.503 1_655 S
C1051 C1050 1.370 . S
C1051 C1052 1.403 . S
C1052 C1051 1.403 . S
C1052 C1053 1.404 . S
C1052 C1055 1.550 . S
C1053 C1049 1.408 . S
C1053 C1052 1.404 . S
C1053 H1065 0.930 . S
C1054 C1050 1.524 . S
C1054 H1066 0.956 1_655 S
C1054 H1067 0.961 1_655 S
C1054 H1068 0.961 . S
C1055 C1052 1.550 . S
C1055 H1069 0.940 1_655 S
C1055 H1070 0.974 . S
C1055 H1071 0.956 1_655 S
H1056 C1040 0.931 . S
H1057 C1045 0.929 . S
H1058 C1046 0.960 . S
H1059 C1046 0.962 . S
H1060 C1046 0.960 . S
H1061 C1047 0.961 . S
H1062 C1047 0.961 1_655 S
H1063 C1047 0.961 . S
H1064 C1048 0.931 . S
H1065 C1053 0.930 . S
H1066 C1054 0.956 1_455 S
H1067 C1054 0.961 1_455 S
H1068 C1054 0.961 . S
H1069 C1055 0.940 1_455 S
H1070 C1055 0.974 . S
H1071 C1055 0.956 1_455 S
C1072 C1073 1.391 . S
C1072 C1074 1.394 . S
C1072 H1088 0.931 . S
C1073 C1072 1.391 . S
C1073 C1077 1.376 . S
C1074 C1072 1.394 . S
C1074 C1075 1.369 . S
C1074 C1078 1.531 . S
C1075 C1074 1.369 . S
C1075 C1076 1.410 . S
C1075 C1083 1.503 1_545 S
C1076 C1075 1.410 . S
C1076 C1077 1.392 . S
C1076 C1079 1.511 1_545 S
C1077 C1073 1.376 . S
C1077 C1076 1.392 . S
C1077 H1089 0.929 . S
C1078 C1074 1.531 . S
C1078 H1090 0.962 . S
C1078 H1091 0.962 . S
C1078 H1092 0.960 . S
C1079 C1076 1.511 1_565 S
C1079 H1093 0.961 . S
C1079 H1094 0.961 . S
C1079 H1095 0.961 . S
C1080 C1081 1.370 . S
C1080 C1082 1.363 . S
C1080 H1096 0.931 . S
C1081 C1080 1.370 . S
C1081 C1085 1.408 . S
C1082 C1080 1.363 . S
C1082 C1083 1.370 . S
C1082 C1086 1.524 . S
C1083 C1075 1.503 1_565 S
C1083 C1082 1.370 . S
C1083 C1084 1.403 . S
C1084 C1083 1.403 . S
C1084 C1085 1.404 . S
C1084 C1087 1.539 . S
C1085 C1081 1.408 . S
C1085 C1084 1.404 . S
C1085 H1097 0.930 . S
C1086 C1082 1.524 . S
C1086 H1098 0.956 1_565 S
C1086 H1099 0.961 . S
C1086 H1100 0.961 . S
C1087 C1084 1.539 . S
C1087 H1101 0.958 . S
C1087 H1102 0.961 . S
C1087 H1103 0.960 . S
H1088 C1072 0.931 . S
H1089 C1077 0.929 . S
H1090 C1078 0.962 . S
H1091 C1078 0.962 . S
H1092 C1078 0.960 . S
H1093 C1079 0.961 . S
H1094 C1079 0.961 . S
H1095 C1079 0.961 . S
H1096 C1080 0.931 . S
H1097 C1085 0.930 . S
H1098 C1086 0.956 1_545 S
H1099 C1086 0.961 . S
H1100 C1086 0.961 . S
H1101 C1087 0.958 . S
H1102 C1087 0.961 . S
H1103 C1087 0.960 . S
C1104 C1105 1.391 . S
C1104 C1106 1.394 . S
C1104 H1120 0.931 . S
C1105 C1104 1.391 . S
C1105 C1109 1.376 . S
C1106 C1104 1.394 . S
C1106 C1107 1.369 . S
C1106 C1110 1.531 . S
C1107 C1106 1.369 . S
C1107 C1108 1.410 . S
C1107 C1115 1.503 . S
C1108 C1107 1.410 . S
C1108 C1109 1.392 . S
C1108 C1111 1.511 . S
C1109 C1105 1.376 . S
C1109 C1108 1.392 . S
C1109 H1121 0.929 . S
C1110 C1106 1.531 . S
C1110 H1122 0.960 . S
C1110 H1123 0.962 . S
C1110 H1124 0.960 . S
C1111 C1108 1.511 . S
C1111 H1125 0.961 . S
C1111 H1126 0.961 . S
C1111 H1127 0.961 . S
C1112 C1113 1.370 . S
C1112 C1114 1.363 . S
C1112 H1128 0.931 . S
C1113 C1112 1.370 . S
C1113 C1117 1.408 . S
C1114 C1112 1.363 . S
C1114 C1115 1.370 . S
C1114 C1118 1.524 . S
C1115 C1107 1.503 . S
C1115 C1114 1.370 . S
C1115 C1116 1.403 . S
C1116 C1115 1.403 . S
C1116 C1117 1.404 . S
C1116 C1119 1.539 . S
C1117 C1113 1.408 . S
C1117 C1116 1.404 . S
C1117 H1129 0.930 . S
C1118 C1114 1.524 . S
C1118 H1130 0.956 . S
C1118 H1131 0.961 . S
C1118 H1132 0.961 . S
C1119 C1116 1.539 . S
C1119 H1133 0.958 . S
C1119 H1134 0.961 . S
C1119 H1135 0.960 . S
H1120 C1104 0.931 . S
H1121 C1109 0.929 . S
H1122 C1110 0.960 . S
H1123 C1110 0.962 . S
H1124 C1110 0.960 . S
H1125 C1111 0.961 . S
H1126 C1111 0.961 . S
H1127 C1111 0.961 . S
H1128 C1112 0.931 . S
H1129 C1117 0.930 . S
H1130 C1118 0.956 . S
H1131 C1118 0.961 . S
H1132 C1118 0.961 . S
H1133 C1119 0.958 . S
H1134 C1119 0.961 . S
H1135 C1119 0.960 . S
C1136 C1137 1.391 . S
C1136 C1138 1.394 . S
C1136 H1152 0.931 . S
C1137 C1136 1.391 . S
C1137 C1141 1.376 . S
C1138 C1136 1.394 . S
C1138 C1139 1.369 . S
C1138 C1142 1.531 . S
C1139 C1138 1.369 . S
C1139 C1140 1.410 . S
C1139 C1147 1.503 1_455 S
C1140 C1139 1.410 . S
C1140 C1141 1.392 . S
C1140 C1143 1.511 . S
C1141 C1137 1.376 . S
C1141 C1140 1.392 . S
C1141 H1153 0.929 . S
C1142 C1138 1.531 . S
C1142 H1154 0.956 1_455 S
C1142 H1155 0.962 . S
C1142 H1156 0.960 . S
C1143 C1140 1.511 . S
C1143 H1157 0.961 . S
C1143 H1158 0.961 . S
C1143 H1159 0.961 . S
C1144 C1145 1.370 . S
C1144 C1146 1.363 . S
C1144 H1160 0.931 . S
C1145 C1144 1.370 . S
C1145 C1149 1.408 . S
C1146 C1144 1.363 . S
C1146 C1147 1.370 . S
C1146 C1150 1.524 . S
C1147 C1139 1.503 1_655 S
C1147 C1146 1.370 . S
C1147 C1148 1.403 . S
C1148 C1147 1.403 . S
C1148 C1149 1.404 . S
C1148 C1151 1.539 1_655 S
C1149 C1145 1.408 . S
C1149 C1148 1.404 . S
C1149 H1161 0.930 . S
C1150 C1146 1.524 . S
C1150 H1162 0.956 . S
C1150 H1163 0.961 1_655 S
C1150 H1164 0.961 . S
C1151 C1148 1.539 1_455 S
C1151 H1165 0.958 . S
C1151 H1166 0.961 . S
C1151 H1167 0.960 . S
H1152 C1136 0.931 . S
H1153 C1141 0.929 . S
H1154 C1142 0.956 1_655 S
H1155 C1142 0.962 . S
H1156 C1142 0.960 . S
H1157 C1143 0.961 . S
H1158 C1143 0.961 . S
H1159 C1143 0.961 . S
H1160 C1144 0.931 . S
H1161 C1149 0.930 . S
H1162 C1150 0.956 . S
H1163 C1150 0.961 1_455 S
H1164 C1150 0.961 . S
H1165 C1151 0.958 . S
H1166 C1151 0.961 . S
H1167 C1151 0.960 . S
C1168 C1169 1.391 . S
C1168 C1170 1.394 . S
C1168 H1184 0.931 . S
C1169 C1168 1.391 . S
C1169 C1173 1.376 . S
C1170 C1168 1.394 . S
C1170 C1171 1.369 . S
C1170 C1174 1.531 . S
C1171 C1170 1.369 . S
C1171 C1172 1.410 . S
C1171 C1179 1.503 1_565 S
C1172 C1171 1.410 . S
C1172 C1173 1.392 . S
C1172 C1175 1.511 . S
C1173 C1169 1.376 . S
C1173 C1172 1.392 . S
C1173 H1185 0.929 . S
C1174 C1170 1.531 . S
C1174 H1186 0.960 1_565 S
C1174 H1187 0.962 1_565 S
C1174 H1188 0.960 . S
C1175 C1172 1.511 . S
C1175 H1189 0.961 . S
C1175 H1190 0.961 . S
C1175 H1191 0.961 . S
C1176 C1177 1.370 . S
C1176 C1178 1.363 . S
C1176 H1192 0.931 . S
C1177 C1176 1.370 . S
C1177 C1181 1.408 . S
C1178 C1176 1.363 . S
C1178 C1179 1.370 . S
C1178 C1182 1.524 . S
C1179 C1171 1.503 1_545 S
C1179 C1178 1.370 . S
C1179 C1180 1.403 . S
C1180 C1179 1.403 . S
C1180 C1181 1.404 . S
C1180 C1183 1.539 1_545 S
C1181 C1177 1.408 . S
C1181 C1180 1.404 . S
C1181 H1193 0.930 . S
C1182 C1178 1.524 . S
C1182 H1194 0.956 . S
C1182 H1195 0.961 1_545 S
C1182 H1196 0.961 . S
C1183 C1180 1.539 1_565 S
C1183 H1197 0.958 . S
C1183 H1198 0.960 . S
C1183 H1199 0.960 . S
H1184 C1168 0.931 . S
H1185 C1173 0.929 . S
H1186 C1174 0.960 1_545 S
H1187 C1174 0.962 1_545 S
H1188 C1174 0.960 . S
H1189 C1175 0.961 . S
H1190 C1175 0.961 . S
H1191 C1175 0.961 . S
H1192 C1176 0.931 . S
H1193 C1181 0.930 . S
H1194 C1182 0.956 . S
H1195 C1182 0.961 1_565 S
H1196 C1182 0.961 . S
H1197 C1183 0.958 . S
H1198 C1183 0.960 . S
H1199 C1183 0.960 . S
C1200 C1201 1.391 . S
C1200 C1202 1.394 . S
C1200 H1216 0.931 . S
C1201 C1200 1.391 . S
C1201 C1205 1.376 . S
C1202 C1200 1.394 . S
C1202 C1203 1.369 . S
C1202 C1206 1.531 . S
C1203 C1202 1.369 . S
C1203 C1204 1.410 . S
C1203 C1211 1.503 . S
C1204 C1203 1.410 . S
C1204 C1205 1.392 . S
C1204 C1207 1.511 . S
C1205 C1201 1.376 . S
C1205 C1204 1.392 . S
C1205 H1217 0.929 . S
C1206 C1202 1.531 . S
C1206 H1218 0.960 . S
C1206 H1219 0.962 . S
C1206 H1220 0.960 . S
C1207 C1204 1.511 . S
C1207 H1221 0.961 . S
C1207 H1222 0.961 . S
C1207 H1223 0.961 . S
C1208 C1209 1.370 . S
C1208 C1210 1.363 . S
C1208 H1224 0.931 . S
C1209 C1208 1.370 . S
C1209 C1213 1.408 . S
C1210 C1208 1.363 . S
C1210 C1211 1.370 . S
C1210 C1214 1.524 . S
C1211 C1203 1.503 . S
C1211 C1210 1.370 . S
C1211 C1212 1.403 . S
C1212 C1211 1.403 . S
C1212 C1213 1.404 . S
C1212 C1215 1.539 . S
C1213 C1209 1.408 . S
C1213 C1212 1.404 . S
C1213 H1225 0.930 . S
C1214 C1210 1.524 . S
C1214 H1226 0.956 . S
C1214 H1227 0.961 . S
C1214 H1228 0.961 . S
C1215 C1212 1.539 . S
C1215 H1229 0.958 . S
C1215 H1230 0.961 . S
C1215 H1231 0.960 . S
H1216 C1200 0.931 . S
H1217 C1205 0.929 . S
H1218 C1206 0.960 . S
H1219 C1206 0.962 . S
H1220 C1206 0.960 . S
H1221 C1207 0.961 . S
H1222 C1207 0.961 . S
H1223 C1207 0.961 . S
H1224 C1208 0.931 . S
H1225 C1213 0.930 . S
H1226 C1214 0.956 . S
H1227 C1214 0.961 . S
H1228 C1214 0.961 . S
H1229 C1215 0.958 . S
H1230 C1215 0.961 . S
H1231 C1215 0.960 . S
C1232 C1233 1.391 . S
C1232 C1234 1.394 . S
C1232 H1248 0.931 . S
C1233 C1232 1.391 . S
C1233 C1237 1.376 . S
C1234 C1232 1.394 . S
C1234 C1235 1.369 . S
C1234 C1238 1.531 1_455 S
C1235 C1234 1.369 . S
C1235 C1236 1.410 . S
C1235 C1243 1.503 1_455 S
C1236 C1235 1.410 . S
C1236 C1237 1.392 . S
C1236 C1239 1.511 . S
C1237 C1233 1.376 . S
C1237 C1236 1.392 . S
C1237 H1249 0.929 . S
C1238 C1234 1.531 1_655 S
C1238 H1250 0.960 . S
C1238 H1251 0.962 . S
C1238 H1252 0.960 . S
C1239 C1236 1.511 . S
C1239 H1253 0.961 . S
C1239 H1254 0.961 . S
C1239 H1255 0.961 . S
C1240 C1241 1.370 . S
C1240 C1242 1.363 . S
C1240 H1256 0.931 . S
C1241 C1240 1.370 . S
C1241 C1245 1.408 . S
C1242 C1240 1.363 . S
C1242 C1243 1.370 . S
C1242 C1246 1.524 . S
C1243 C1235 1.503 1_655 S
C1243 C1242 1.370 . S
C1243 C1244 1.403 . S
C1244 C1243 1.403 . S
C1244 C1245 1.404 . S
C1244 C1247 1.539 . S
C1245 C1241 1.408 . S
C1245 C1244 1.404 . S
C1245 H1257 0.930 . S
C1246 C1242 1.524 . S
C1246 H1258 0.956 . S
C1246 H1259 0.961 . S
C1246 H1260 0.961 . S
C1247 C1244 1.539 . S
C1247 H1261 0.958 . S
C1247 H1262 0.961 . S
C1247 H1263 0.960 . S
H1248 C1232 0.931 . S
H1249 C1237 0.929 . S
H1250 C1238 0.960 . S
H1251 C1238 0.962 . S
H1252 C1238 0.960 . S
H1253 C1239 0.961 . S
H1254 C1239 0.961 . S
H1255 C1239 0.961 . S
H1256 C1240 0.931 . S
H1257 C1245 0.930 . S
H1258 C1246 0.956 . S
H1259 C1246 0.961 . S
H1260 C1246 0.961 . S
H1261 C1247 0.958 . S
H1262 C1247 0.961 . S
H1263 C1247 0.960 . S
C1264 C1265 1.391 . S
C1264 C1266 1.394 . S
C1264 H1280 0.931 . S
C1265 C1264 1.391 . S
C1265 C1269 1.376 . S
C1266 C1264 1.394 . S
C1266 C1267 1.369 . S
C1266 C1270 1.531 . S
C1267 C1266 1.369 . S
C1267 C1268 1.410 . S
C1267 C1275 1.503 1_565 S
C1268 C1267 1.410 . S
C1268 C1269 1.392 . S
C1268 C1271 1.511 1_565 S
C1269 C1265 1.376 . S
C1269 C1268 1.392 . S
C1269 H1281 0.929 . S
C1270 C1266 1.531 . S
C1270 H1282 0.960 . S
C1270 H1283 0.962 . S
C1270 H1284 0.960 . S
C1271 C1268 1.511 1_545 S
C1271 H1285 0.961 . S
C1271 H1286 0.961 . S
C1271 H1287 0.961 . S
C1272 C1273 1.370 . S
C1272 C1274 1.363 . S
C1272 H1288 0.931 . S
C1273 C1272 1.370 . S
C1273 C1277 1.408 . S
C1274 C1272 1.363 . S
C1274 C1275 1.370 . S
C1274 C1278 1.524 . S
C1275 C1267 1.503 1_545 S
C1275 C1274 1.370 . S
C1275 C1276 1.403 . S
C1276 C1275 1.403 . S
C1276 C1277 1.404 . S
C1276 C1279 1.539 . S
C1277 C1273 1.408 . S
C1277 C1276 1.404 . S
C1277 H1289 0.930 . S
C1278 C1274 1.524 . S
C1278 H1290 0.949 1_545 S
C1278 H1291 0.961 . S
C1278 H1292 0.961 . S
C1279 C1276 1.539 . S
C1279 H1293 0.958 . S
C1279 H1294 0.961 . S
C1279 H1295 0.960 . S
H1280 C1264 0.931 . S
H1281 C1269 0.929 . S
H1282 C1270 0.960 . S
H1283 C1270 0.962 . S
H1284 C1270 0.960 . S
H1285 C1271 0.961 . S
H1286 C1271 0.961 . S
H1287 C1271 0.961 . S
H1288 C1272 0.931 . S
H1289 C1277 0.930 . S
H1290 C1278 0.949 1_565 S
H1291 C1278 0.961 . S
H1292 C1278 0.961 . S
H1293 C1279 0.958 . S
H1294 C1279 0.961 . S
H1295 C1279 0.960 . S
C1296 C1297 1.391 . S
C1296 C1298 1.394 . S
C1296 H1312 0.931 . S
C1297 C1296 1.391 . S
C1297 C1301 1.376 . S
C1298 C1296 1.394 . S
C1298 C1299 1.369 . S
C1298 C1302 1.531 . S
C1299 C1298 1.369 . S
C1299 C1300 1.410 . S
C1299 C1307 1.503 . S
C1300 C1299 1.410 . S
C1300 C1301 1.392 . S
C1300 C1303 1.511 . S
C1301 C1297 1.376 . S
C1301 C1300 1.392 . S
C1301 H1313 0.929 . S
C1302 C1298 1.531 . S
C1302 H1314 0.960 . S
C1302 H1315 0.962 . S
C1302 H1316 0.960 . S
C1303 C1300 1.511 . S
C1303 H1317 0.961 . S
C1303 H1318 0.961 . S
C1303 H1319 0.961 . S
C1304 C1305 1.370 . S
C1304 C1306 1.363 . S
C1304 H1320 0.931 . S
C1305 C1304 1.370 . S
C1305 C1309 1.408 . S
C1306 C1304 1.363 . S
C1306 C1307 1.370 . S
C1306 C1310 1.524 . S
C1307 C1299 1.503 . S
C1307 C1306 1.370 . S
C1307 C1308 1.403 . S
C1308 C1307 1.403 . S
C1308 C1309 1.404 . S
C1308 C1311 1.539 . S
C1309 C1305 1.408 . S
C1309 C1308 1.404 . S
C1309 H1321 0.930 . S
C1310 C1306 1.524 . S
C1310 H1322 0.956 . S
C1310 H1323 0.961 . S
C1310 H1324 0.961 . S
C1311 C1308 1.539 . S
C1311 H1325 0.958 . S
C1311 H1326 0.961 . S
C1311 H1327 0.960 . S
H1312 C1296 0.931 . S
H1313 C1301 0.929 . S
H1314 C1302 0.960 . S
H1315 C1302 0.962 . S
H1316 C1302 0.960 . S
H1317 C1303 0.961 . S
H1318 C1303 0.961 . S
H1319 C1303 0.961 . S
H1320 C1304 0.931 . S
H1321 C1309 0.930 . S
H1322 C1310 0.956 . S
H1323 C1310 0.961 . S
H1324 C1310 0.961 . S
H1325 C1311 0.958 . S
H1326 C1311 0.961 . S
H1327 C1311 0.960 . S
C1328 C1329 1.391 . S
C1328 C1330 1.394 . S
C1328 H1344 0.931 . S
C1329 C1328 1.391 . S
C1329 C1333 1.376 . S
C1330 C1328 1.394 . S
C1330 C1331 1.369 . S
C1330 C1334 1.531 . S
C1331 C1330 1.369 . S
C1331 C1332 1.410 . S
C1331 C1339 1.503 1_455 S
C1332 C1331 1.410 . S
C1332 C1333 1.392 . S
C1332 C1335 1.511 1_455 S
C1333 C1329 1.376 . S
C1333 C1332 1.392 . S
C1333 H1345 0.929 . S
C1334 C1330 1.531 . S
C1334 H1346 0.960 1_455 S
C1334 H1347 0.962 . S
C1334 H1348 0.960 . S
C1335 C1332 1.511 1_655 S
C1335 H1349 0.961 1_655 S
C1335 H1350 0.961 . S
C1335 H1351 0.961 . S
C1336 C1337 1.370 . S
C1336 C1338 1.363 . S
C1336 H1352 0.931 . S
C1337 C1336 1.370 . S
C1337 C1341 1.408 . S
C1338 C1336 1.363 . S
C1338 C1339 1.370 . S
C1338 C1342 1.524 . S
C1339 C1331 1.503 1_655 S
C1339 C1338 1.370 . S
C1339 C1340 1.403 . S
C1340 C1339 1.403 . S
C1340 C1341 1.404 . S
C1340 C1343 1.539 . S
C1341 C1337 1.408 . S
C1341 C1340 1.404 . S
C1341 H1353 0.930 . S
C1342 C1338 1.524 . S
C1342 H1354 0.956 1_655 S
C1342 H1355 0.961 1_655 S
C1342 H1356 0.961 . S
C1343 C1340 1.539 . S
C1343 H1357 0.958 . S
C1343 H1358 0.961 . S
C1343 H1359 0.960 . S
H1344 C1328 0.931 . S
H1345 C1333 0.929 . S
H1346 C1334 0.960 1_655 S
H1347 C1334 0.962 . S
H1348 C1334 0.960 . S
H1349 C1335 0.961 1_455 S
H1350 C1335 0.961 . S
H1351 C1335 0.961 . S
H1352 C1336 0.931 . S
H1353 C1341 0.930 . S
H1354 C1342 0.956 1_455 S
H1355 C1342 0.961 1_455 S
H1356 C1342 0.961 . S
H1357 C1343 0.958 . S
H1358 C1343 0.961 . S
H1359 C1343 0.960 . S
C1360 C1361 1.391 . S
C1360 C1362 1.394 . S
C1360 H1376 0.931 . S
C1361 C1360 1.391 . S
C1361 C1365 1.376 . S
C1362 C1360 1.394 . S
C1362 C1363 1.369 . S
C1362 C1366 1.531 . S
C1363 C1362 1.369 . S
C1363 C1364 1.410 . S
C1363 C1371 1.503 1_545 S
C1364 C1363 1.410 . S
C1364 C1365 1.392 . S
C1364 C1367 1.511 . S
C1365 C1361 1.376 . S
C1365 C1364 1.392 . S
C1365 H1377 0.929 . S
C1366 C1362 1.531 . S
C1366 H1378 0.960 . S
C1366 H1379 0.962 . S
C1366 H1380 0.960 . S
C1367 C1364 1.511 . S
C1367 H1381 0.961 . S
C1367 H1382 0.961 . S
C1367 H1383 0.961 . S
C1368 C1369 1.370 . S
C1368 C1370 1.363 . S
C1368 H1384 0.931 . S
C1369 C1368 1.370 . S
C1369 C1373 1.408 . S
C1370 C1368 1.363 . S
C1370 C1371 1.370 . S
C1370 C1374 1.524 . S
C1371 C1363 1.503 1_565 S
C1371 C1370 1.370 . S
C1371 C1372 1.403 . S
C1372 C1371 1.403 . S
C1372 C1373 1.404 . S
C1372 C1375 1.539 1_565 S
C1373 C1369 1.408 . S
C1373 C1372 1.404 . S
C1373 H1385 0.930 . S
C1374 C1370 1.524 . S
C1374 H1386 0.956 . S
C1374 H1387 0.961 . S
C1374 H1388 0.961 . S
C1375 C1372 1.539 1_545 S
C1375 H1389 0.958 . S
C1375 H1390 0.961 . S
C1375 H1391 0.960 . S
H1376 C1360 0.931 . S
H1377 C1365 0.929 . S
H1378 C1366 0.960 . S
H1379 C1366 0.962 . S
H1380 C1366 0.960 . S
H1381 C1367 0.961 . S
H1382 C1367 0.961 . S
H1383 C1367 0.961 . S
H1384 C1368 0.931 . S
H1385 C1373 0.930 . S
H1386 C1374 0.956 . S
H1387 C1374 0.961 . S
H1388 C1374 0.961 . S
H1389 C1375 0.958 . S
H1390 C1375 0.961 . S
H1391 C1375 0.960 . S
C1392 C1393 1.391 . S
C1392 C1394 1.394 . S
C1392 H1408 0.931 . S
C1393 C1392 1.391 . S
C1393 C1397 1.376 . S
C1394 C1392 1.394 . S
C1394 C1395 1.369 . S
C1394 C1398 1.531 . S
C1395 C1394 1.369 . S
C1395 C1396 1.410 . S
C1395 C1403 1.503 . S
C1396 C1395 1.410 . S
C1396 C1397 1.392 . S
C1396 C1399 1.511 . S
C1397 C1393 1.376 . S
C1397 C1396 1.392 . S
C1397 H1409 0.929 . S
C1398 C1394 1.531 . S
C1398 H1410 0.960 . S
C1398 H1411 0.962 . S
C1398 H1412 0.960 . S
C1399 C1396 1.511 . S
C1399 H1413 0.961 . S
C1399 H1414 0.961 . S
C1399 H1415 0.961 . S
C1400 C1401 1.370 . S
C1400 C1402 1.363 . S
C1400 H1416 0.931 . S
C1401 C1400 1.370 . S
C1401 C1405 1.408 . S
C1402 C1400 1.363 . S
C1402 C1403 1.370 . S
C1402 C1406 1.524 . S
C1403 C1395 1.503 . S
C1403 C1402 1.370 . S
C1403 C1404 1.403 . S
C1404 C1403 1.403 . S
C1404 C1405 1.404 . S
C1404 C1407 1.539 . S
C1405 C1401 1.408 . S
C1405 C1404 1.404 . S
C1405 H1417 0.930 . S
C1406 C1402 1.524 . S
C1406 H1418 0.956 . S
C1406 H1419 0.961 . S
C1406 H1420 0.961 . S
C1407 C1404 1.539 . S
C1407 H1421 0.958 . S
C1407 H1422 0.961 . S
C1407 H1423 0.960 . S
H1408 C1392 0.931 . S
H1409 C1397 0.929 . S
H1410 C1398 0.960 . S
H1411 C1398 0.962 . S
H1412 C1398 0.960 . S
H1413 C1399 0.961 . S
H1414 C1399 0.961 . S
H1415 C1399 0.961 . S
H1416 C1400 0.931 . S
H1417 C1405 0.930 . S
H1418 C1406 0.956 . S
H1419 C1406 0.961 . S
H1420 C1406 0.961 . S
H1421 C1407 0.958 . S
H1422 C1407 0.961 . S
H1423 C1407 0.960 . S
C1424 C1425 1.391 . S
C1424 C1426 1.394 . S
C1424 H1440 0.931 . S
C1425 C1424 1.391 . S
C1425 C1429 1.376 . S
C1426 C1424 1.394 . S
C1426 C1427 1.369 . S
C1426 C1430 1.531 . S
C1427 C1426 1.369 . S
C1427 C1428 1.410 . S
C1427 C1435 1.503 . S
C1428 C1427 1.410 . S
C1428 C1429 1.392 . S
C1428 C1431 1.511 . S
C1429 C1425 1.376 . S
C1429 C1428 1.392 . S
C1429 H1441 0.929 . S
C1430 C1426 1.531 . S
C1430 H1442 0.960 . S
C1430 H1443 0.962 . S
C1430 H1444 0.960 . S
C1431 C1428 1.511 . S
C1431 H1445 0.961 . S
C1431 H1446 0.961 . S
C1431 H1447 0.961 . S
C1432 C1433 1.370 . S
C1432 C1434 1.363 . S
C1432 H1448 0.931 . S
C1433 C1432 1.370 . S
C1433 C1437 1.408 . S
C1434 C1432 1.363 . S
C1434 C1435 1.370 . S
C1434 C1438 1.524 . S
C1435 C1427 1.503 . S
C1435 C1434 1.370 . S
C1435 C1436 1.403 . S
C1436 C1435 1.403 . S
C1436 C1437 1.404 . S
C1436 C1439 1.539 . S
C1437 C1433 1.408 . S
C1437 C1436 1.404 . S
C1437 H1449 0.930 . S
C1438 C1434 1.524 . S
C1438 H1450 0.956 . S
C1438 H1451 0.961 . S
C1438 H1452 0.961 . S
C1439 C1436 1.539 . S
C1439 H1453 0.958 . S
C1439 H1454 0.961 . S
C1439 H1455 0.960 . S
H1440 C1424 0.931 . S
H1441 C1429 0.929 . S
H1442 C1430 0.960 . S
H1443 C1430 0.962 . S
H1444 C1430 0.960 . S
H1445 C1431 0.961 . S
H1446 C1431 0.961 . S
H1447 C1431 0.961 . S
H1448 C1432 0.931 . S
H1449 C1437 0.930 . S
H1450 C1438 0.956 . S
H1451 C1438 0.961 . S
H1452 C1438 0.961 . S
H1453 C1439 0.958 . S
H1454 C1439 0.961 . S
H1455 C1439 0.960 . S
C1456 C1457 1.391 . S
C1456 C1458 1.394 . S
C1456 H1472 0.931 . S
C1457 C1456 1.391 . S
C1457 C1461 1.376 . S
C1458 C1456 1.394 . S
C1458 C1459 1.369 . S
C1458 C1462 1.531 . S
C1459 C1458 1.369 . S
C1459 C1460 1.410 . S
C1459 C1467 1.503 . S
C1460 C1459 1.410 . S
C1460 C1461 1.392 . S
C1460 C1463 1.511 . S
C1461 C1457 1.376 . S
C1461 C1460 1.392 . S
C1461 H1473 0.929 . S
C1462 C1458 1.531 . S
C1462 H1474 0.960 . S
C1462 H1475 0.962 . S
C1462 H1476 0.960 . S
C1463 C1460 1.511 . S
C1463 H1477 0.961 . S
C1463 H1478 0.961 . S
C1463 H1479 0.961 . S
C1464 C1465 1.370 . S
C1464 C1466 1.363 . S
C1464 H1480 0.931 . S
C1465 C1464 1.370 . S
C1465 C1469 1.408 . S
C1466 C1464 1.363 . S
C1466 C1467 1.370 . S
C1466 C1470 1.524 . S
C1467 C1459 1.503 . S
C1467 C1466 1.370 . S
C1467 C1468 1.403 . S
C1468 C1467 1.403 . S
C1468 C1469 1.404 . S
C1468 C1471 1.539 . S
C1469 C1465 1.408 . S
C1469 C1468 1.404 . S
C1469 H1481 0.930 . S
C1470 C1466 1.524 . S
C1470 H1482 0.956 . S
C1470 H1483 0.961 . S
C1470 H1484 0.961 . S
C1471 C1468 1.539 . S
C1471 H1485 0.958 . S
C1471 H1486 0.961 . S
C1471 H1487 0.960 . S
H1472 C1456 0.931 . S
H1473 C1461 0.929 . S
H1474 C1462 0.960 . S
H1475 C1462 0.962 . S
H1476 C1462 0.960 . S
H1477 C1463 0.961 . S
H1478 C1463 0.961 . S
H1479 C1463 0.961 . S
H1480 C1464 0.931 . S
H1481 C1469 0.930 . S
H1482 C1470 0.956 . S
H1483 C1470 0.961 . S
H1484 C1470 0.961 . S
H1485 C1471 0.958 . S
H1486 C1471 0.961 . S
H1487 C1471 0.960 . S
C1488 C1489 1.391 . S
C1488 C1490 1.394 . S
C1488 H1504 0.931 . S
C1489 C1488 1.391 . S
C1489 C1493 1.376 . S
C1490 C1488 1.394 . S
C1490 C1491 1.369 . S
C1490 C1494 1.531 . S
C1491 C1490 1.369 . S
C1491 C1492 1.410 . S
C1491 C1499 1.503 . S
C1492 C1491 1.410 . S
C1492 C1493 1.392 . S
C1492 C1495 1.511 . S
C1493 C1489 1.376 . S
C1493 C1492 1.392 . S
C1493 H1505 0.929 . S
C1494 C1490 1.531 . S
C1494 H1506 0.960 . S
C1494 H1507 0.962 . S
C1494 H1508 0.960 . S
C1495 C1492 1.511 . S
C1495 H1509 0.961 . S
C1495 H1510 0.961 . S
C1495 H1511 0.961 . S
C1496 C1497 1.370 . S
C1496 C1498 1.363 . S
C1496 H1512 0.931 . S
C1497 C1496 1.370 . S
C1497 C1501 1.408 . S
C1498 C1496 1.363 . S
C1498 C1499 1.370 . S
C1498 C1502 1.524 . S
C1499 C1491 1.503 . S
C1499 C1498 1.370 . S
C1499 C1500 1.403 . S
C1500 C1499 1.403 . S
C1500 C1501 1.404 . S
C1500 C1503 1.539 . S
C1501 C1497 1.408 . S
C1501 C1500 1.404 . S
C1501 H1513 0.930 . S
C1502 C1498 1.524 . S
C1502 H1514 0.956 . S
C1502 H1515 0.961 . S
C1502 H1516 0.961 . S
C1503 C1500 1.539 . S
C1503 H1517 0.958 . S
C1503 H1518 0.961 . S
C1503 H1519 0.960 . S
H1504 C1488 0.931 . S
H1505 C1493 0.929 . S
H1506 C1494 0.960 . S
H1507 C1494 0.962 . S
H1508 C1494 0.960 . S
H1509 C1495 0.961 . S
H1510 C1495 0.961 . S
H1511 C1495 0.961 . S
H1512 C1496 0.931 . S
H1513 C1501 0.930 . S
H1514 C1502 0.956 . S
H1515 C1502 0.961 . S
H1516 C1502 0.961 . S
H1517 C1503 0.958 . S
H1518 C1503 0.961 . S
H1519 C1503 0.960 . S
C1520 C1521 1.391 . S
C1520 C1522 1.394 . S
C1520 H1536 0.931 . S
C1521 C1520 1.391 . S
C1521 C1525 1.376 . S
C1522 C1520 1.394 . S
C1522 C1523 1.369 . S
C1522 C1526 1.531 . S
C1523 C1522 1.369 . S
C1523 C1524 1.410 . S
C1523 C1531 1.503 . S
C1524 C1523 1.410 . S
C1524 C1525 1.392 . S
C1524 C1527 1.511 . S
C1525 C1521 1.376 . S
C1525 C1524 1.392 . S
C1525 H1537 0.929 . S
C1526 C1522 1.531 . S
C1526 H1538 0.960 . S
C1526 H1539 0.962 . S
C1526 H1540 0.960 . S
C1527 C1524 1.511 . S
C1527 H1541 0.961 . S
C1527 H1542 0.961 . S
C1527 H1543 0.961 . S
C1528 C1529 1.370 . S
C1528 C1530 1.363 . S
C1528 H1544 0.931 . S
C1529 C1528 1.370 . S
C1529 C1533 1.408 . S
C1530 C1528 1.363 . S
C1530 C1531 1.370 . S
C1530 C1534 1.524 . S
C1531 C1523 1.503 . S
C1531 C1530 1.370 . S
C1531 C1532 1.403 . S
C1532 C1531 1.403 . S
C1532 C1533 1.404 . S
C1532 C1535 1.539 . S
C1533 C1529 1.408 . S
C1533 C1532 1.404 . S
C1533 H1545 0.930 . S
C1534 C1530 1.524 . S
C1534 H1546 0.956 . S
C1534 H1547 0.961 . S
C1534 H1548 0.961 . S
C1535 C1532 1.539 . S
C1535 H1549 0.958 . S
C1535 H1550 0.961 . S
C1535 H1551 0.960 . S
H1536 C1520 0.931 . S
H1537 C1525 0.929 . S
H1538 C1526 0.960 . S
H1539 C1526 0.962 . S
H1540 C1526 0.960 . S
H1541 C1527 0.961 . S
H1542 C1527 0.961 . S
H1543 C1527 0.961 . S
H1544 C1528 0.931 . S
H1545 C1533 0.930 . S
H1546 C1534 0.956 . S
H1547 C1534 0.961 . S
H1548 C1534 0.961 . S
H1549 C1535 0.958 . S
H1550 C1535 0.961 . S
H1551 C1535 0.960 . S
C1552 C1553 1.391 . S
C1552 C1554 1.394 . S
C1552 H1568 0.931 . S
C1553 C1552 1.391 . S
C1553 C1557 1.376 . S
C1554 C1552 1.394 . S
C1554 C1555 1.369 . S
C1554 C1558 1.531 . S
C1555 C1554 1.369 . S
C1555 C1556 1.410 . S
C1555 C1563 1.503 . S
C1556 C1555 1.410 . S
C1556 C1557 1.392 . S
C1556 C1559 1.511 . S
C1557 C1553 1.376 . S
C1557 C1556 1.392 . S
C1557 H1569 0.929 . S
C1558 C1554 1.531 . S
C1558 H1570 0.960 . S
C1558 H1571 0.962 . S
C1558 H1572 0.960 . S
C1559 C1556 1.511 . S
C1559 H1573 0.961 . S
C1559 H1574 0.961 . S
C1559 H1575 0.961 . S
C1560 C1561 1.370 . S
C1560 C1562 1.363 . S
C1560 H1576 0.931 . S
C1561 C1560 1.370 . S
C1561 C1565 1.408 . S
C1562 C1560 1.363 . S
C1562 C1563 1.370 . S
C1562 C1566 1.524 . S
C1563 C1555 1.503 . S
C1563 C1562 1.370 . S
C1563 C1564 1.403 . S
C1564 C1563 1.403 . S
C1564 C1565 1.404 . S
C1564 C1567 1.539 . S
C1565 C1561 1.408 . S
C1565 C1564 1.404 . S
C1565 H1577 0.930 . S
C1566 C1562 1.524 . S
C1566 H1578 0.956 . S
C1566 H1579 0.961 . S
C1566 H1580 0.961 . S
C1567 C1564 1.539 . S
C1567 H1581 0.958 . S
C1567 H1582 0.961 . S
C1567 H1583 0.960 . S
H1568 C1552 0.931 . S
H1569 C1557 0.929 . S
H1570 C1558 0.960 . S
H1571 C1558 0.962 . S
H1572 C1558 0.960 . S
H1573 C1559 0.961 . S
H1574 C1559 0.961 . S
H1575 C1559 0.961 . S
H1576 C1560 0.931 . S
H1577 C1565 0.930 . S
H1578 C1566 0.956 . S
H1579 C1566 0.961 . S
H1580 C1566 0.961 . S
H1581 C1567 0.958 . S
H1582 C1567 0.961 . S
H1583 C1567 0.960 . S
C1584 C1585 1.391 . S
C1584 C1586 1.394 . S
C1584 H1600 0.931 . S
C1585 C1584 1.391 . S
C1585 C1589 1.376 . S
C1586 C1584 1.394 . S
C1586 C1587 1.369 . S
C1586 C1590 1.531 . S
C1587 C1586 1.369 . S
C1587 C1588 1.410 . S
C1587 C1595 1.503 1_566 S
C1588 C1587 1.410 . S
C1588 C1589 1.392 . S
C1588 C1591 1.510 . S
C1589 C1585 1.376 . S
C1589 C1588 1.392 . S
C1589 H1601 0.929 . S
C1590 C1586 1.531 . S
C1590 H1602 0.960 1_565 S
C1590 H1603 0.962 1_556 S
C1590 H1604 0.960 . S
C1591 C1588 1.510 . S
C1591 H1605 0.960 . S
C1591 H1606 0.962 1_565 S
C1591 H1607 0.962 1_565 S
C1592 C1593 1.370 . S
C1592 C1594 1.363 . S
C1592 H1608 0.931 . S
C1593 C1592 1.370 . S
C1593 C1597 1.408 . S
C1594 C1592 1.363 . S
C1594 C1595 1.370 . S
C1594 C1598 1.524 1_545 S
C1595 C1587 1.503 1_544 S
C1595 C1594 1.370 . S
C1595 C1596 1.403 1_554 S
C1596 C1595 1.403 1_556 S
C1596 C1597 1.404 1_556 S
C1596 C1599 1.539 . S
C1597 C1593 1.408 . S
C1597 C1596 1.404 1_554 S
C1597 H1609 0.930 . S
C1598 C1594 1.524 1_565 S
C1598 H1610 0.956 . S
C1598 H1611 0.961 . S
C1598 H1612 0.961 . S
C1599 C1596 1.539 . S
C1599 H1613 0.958 . S
C1599 H1614 0.961 . S
C1599 H1615 0.960 . S
H1600 C1584 0.931 . S
H1601 C1589 0.929 . S
H1602 C1590 0.960 1_545 S
H1603 C1590 0.962 1_554 S
H1604 C1590 0.960 . S
H1605 C1591 0.960 . S
H1606 C1591 0.962 1_545 S
H1607 C1591 0.962 1_545 S
H1608 C1592 0.931 . S
H1609 C1597 0.930 . S
H1610 C1598 0.956 . S
H1611 C1598 0.961 . S
H1612 C1598 0.961 . S
H1613 C1599 0.958 . S
H1614 C1599 0.961 . S
H1615 C1599 0.960 . S
C1616 C1617 1.391 . S
C1616 C1618 1.394 . S
C1616 H1632 0.931 . S
C1617 C1616 1.391 . S
C1617 C1621 1.376 . S
C1618 C1616 1.394 . S
C1618 C1619 1.369 . S
C1618 C1622 1.531 . S
C1619 C1618 1.369 . S
C1619 C1620 1.410 . S
C1619 C1627 1.503 . S
C1620 C1619 1.410 . S
C1620 C1621 1.392 . S
C1620 C1623 1.511 . S
C1621 C1617 1.376 . S
C1621 C1620 1.392 . S
C1621 H1633 0.929 . S
C1622 C1618 1.531 . S
C1622 H1634 0.960 . S
C1622 H1635 0.962 . S
C1622 H1636 0.960 . S
C1623 C1620 1.511 . S
C1623 H1637 0.961 . S
C1623 H1638 0.961 . S
C1623 H1639 0.961 . S
C1624 C1625 1.370 . S
C1624 C1626 1.363 . S
C1624 H1640 0.931 . S
C1625 C1624 1.370 . S
C1625 C1629 1.408 . S
C1626 C1624 1.363 . S
C1626 C1627 1.370 . S
C1626 C1630 1.524 . S
C1627 C1619 1.503 . S
C1627 C1626 1.370 . S
C1627 C1628 1.403 . S
C1628 C1627 1.403 . S
C1628 C1629 1.404 . S
C1628 C1631 1.539 . S
C1629 C1625 1.408 . S
C1629 C1628 1.404 . S
C1629 H1641 0.930 . S
C1630 C1626 1.524 . S
C1630 H1642 0.956 . S
C1630 H1643 0.961 . S
C1630 H1644 0.961 . S
C1631 C1628 1.539 . S
C1631 H1645 0.958 . S
C1631 H1646 0.961 . S
C1631 H1647 0.960 . S
H1632 C1616 0.931 . S
H1633 C1621 0.929 . S
H1634 C1622 0.960 . S
H1635 C1622 0.962 . S
H1636 C1622 0.960 . S
H1637 C1623 0.961 . S
H1638 C1623 0.961 . S
H1639 C1623 0.961 . S
H1640 C1624 0.931 . S
H1641 C1629 0.930 . S
H1642 C1630 0.956 . S
H1643 C1630 0.961 . S
H1644 C1630 0.961 . S
H1645 C1631 0.958 . S
H1646 C1631 0.961 . S
H1647 C1631 0.960 . S
C1648 C1649 1.391 . S
C1648 C1650 1.394 1_556 S
C1648 H1664 0.931 . S
C1649 C1648 1.391 . S
C1649 C1653 1.376 . S
C1650 C1648 1.394 1_554 S
C1650 C1651 1.369 1_554 S
C1650 C1654 1.531 . S
C1651 C1650 1.369 1_556 S
C1651 C1652 1.410 . S
C1651 C1659 1.503 1_456 S
C1652 C1651 1.410 . S
C1652 C1653 1.392 . S
C1652 C1655 1.511 1_455 S
C1653 C1649 1.376 . S
C1653 C1652 1.392 . S
C1653 H1665 0.929 . S
C1654 C1650 1.531 . S
C1654 H1666 0.960 . S
C1654 H1667 0.962 . S
C1654 H1668 0.960 . S
C1655 C1652 1.511 1_655 S
C1655 H1669 0.961 . S
C1655 H1670 0.961 . S
C1655 H1671 0.961 . S
C1656 C1657 1.370 . S
C1656 C1658 1.363 . S
C1656 H1672 0.931 . S
C1657 C1656 1.370 . S
C1657 C1661 1.408 . S
C1658 C1656 1.363 . S
C1658 C1659 1.370 . S
C1658 C1662 1.524 1_554 S
C1659 C1651 1.503 1_654 S
C1659 C1658 1.370 . S
C1659 C1660 1.403 . S
C1660 C1659 1.403 . S
C1660 C1661 1.404 . S
C1660 C1663 1.539 1_655 S
C1661 C1657 1.408 . S
C1661 C1660 1.404 . S
C1661 H1673 0.930 . S
C1662 C1658 1.524 1_556 S
C1662 H1674 0.956 . S
C1662 H1675 0.961 . S
C1662 H1676 0.961 . S
C1663 C1660 1.539 1_455 S
C1663 H1677 0.958 . S
C1663 H1678 0.961 1_455 S
C1663 H1679 0.960 . S
H1664 C1648 0.931 . S
H1665 C1653 0.929 . S
H1666 C1654 0.960 . S
H1667 C1654 0.962 . S
H1668 C1654 0.960 . S
H1669 C1655 0.961 . S
H1670 C1655 0.961 . S
H1671 C1655 0.961 . S
H1672 C1656 0.931 . S
H1673 C1661 0.930 . S
H1674 C1662 0.956 . S
H1675 C1662 0.961 . S
H1676 C1662 0.961 . S
H1677 C1663 0.958 . S
H1678 C1663 0.961 1_655 S
H1679 C1663 0.960 . S
C1680 C1681 1.391 . S
C1680 C1682 1.394 . S
C1680 H1696 0.931 . S
C1681 C1680 1.391 . S
C1681 C1685 1.376 . S
C1682 C1680 1.394 . S
C1682 C1683 1.369 . S
C1682 C1686 1.531 1_545 S
C1683 C1682 1.369 . S
C1683 C1684 1.410 . S
C1683 C1691 1.503 1_545 S
C1684 C1683 1.410 . S
C1684 C1685 1.392 . S
C1684 C1687 1.511 . S
C1685 C1681 1.376 . S
C1685 C1684 1.392 . S
C1685 H1697 0.929 . S
C1686 C1682 1.531 1_565 S
C1686 H1698 0.960 . S
C1686 H1699 0.962 . S
C1686 H1700 0.960 . S
C1687 C1684 1.511 . S
C1687 H1701 0.961 . S
C1687 H1702 0.961 . S
C1687 H1703 0.961 . S
C1688 C1689 1.370 . S
C1688 C1690 1.363 . S
C1688 H1704 0.931 . S
C1689 C1688 1.370 . S
C1689 C1693 1.408 . S
C1690 C1688 1.363 . S
C1690 C1691 1.370 . S
C1690 C1694 1.524 1_565 S
C1691 C1683 1.503 1_565 S
C1691 C1690 1.370 . S
C1691 C1692 1.403 . S
C1692 C1691 1.403 . S
C1692 C1693 1.404 . S
C1692 C1695 1.539 . S
C1693 C1689 1.408 . S
C1693 C1692 1.404 . S
C1693 H1705 0.930 . S
C1694 C1690 1.524 1_545 S
C1694 H1706 0.956 . S
C1694 H1707 0.961 . S
C1694 H1708 0.961 . S
C1695 C1692 1.539 . S
C1695 H1709 0.958 . S
C1695 H1710 0.961 . S
C1695 H1711 0.960 . S
H1696 C1680 0.931 . S
H1697 C1685 0.929 . S
H1698 C1686 0.960 . S
H1699 C1686 0.962 . S
H1700 C1686 0.960 . S
H1701 C1687 0.961 . S
H1702 C1687 0.961 . S
H1703 C1687 0.961 . S
H1704 C1688 0.931 . S
H1705 C1693 0.930 . S
H1706 C1694 0.956 . S
H1707 C1694 0.961 . S
H1708 C1694 0.961 . S
H1709 C1695 0.958 . S
H1710 C1695 0.961 . S
H1711 C1695 0.960 . S
C1712 C1713 1.391 . S
C1712 C1714 1.394 . S
C1712 H1728 0.931 . S
C1713 C1712 1.391 . S
C1713 C1717 1.376 . S
C1714 C1712 1.394 . S
C1714 C1715 1.369 . S
C1714 C1718 1.531 . S
C1715 C1714 1.369 . S
C1715 C1716 1.410 . S
C1715 C1723 1.503 1_554 S
C1716 C1715 1.410 . S
C1716 C1717 1.392 . S
C1716 C1719 1.511 1_554 S
C1717 C1713 1.376 . S
C1717 C1716 1.392 . S
C1717 H1729 0.929 . S
C1718 C1714 1.531 . S
C1718 H1730 0.960 . S
C1718 H1731 0.962 . S
C1718 H1732 0.960 . S
C1719 C1716 1.511 1_556 S
C1719 H1733 0.961 . S
C1719 H1734 0.961 . S
C1719 H1735 0.961 . S
C1720 C1721 1.370 . S
C1720 C1722 1.363 . S
C1720 H1736 0.931 . S
C1721 C1720 1.370 . S
C1721 C1725 1.408 . S
C1722 C1720 1.363 . S
C1722 C1723 1.370 . S
C1722 C1726 1.524 . S
C1723 C1715 1.503 1_556 S
C1723 C1722 1.370 . S
C1723 C1724 1.403 . S
C1724 C1723 1.403 . S
C1724 C1725 1.404 . S
C1724 C1727 1.539 1_556 S
C1725 C1721 1.408 . S
C1725 C1724 1.404 . S
C1725 H1737 0.930 . S
C1726 C1722 1.524 . S
C1726 H1738 0.956 . S
C1726 H1739 0.961 . S
C1726 H1740 0.961 . S
C1727 C1724 1.539 1_554 S
C1727 H1741 0.958 . S
C1727 H1742 0.961 . S
C1727 H1743 0.960 . S
H1728 C1712 0.931 . S
H1729 C1717 0.929 . S
H1730 C1718 0.960 . S
H1731 C1718 0.962 . S
H1732 C1718 0.960 . S
H1733 C1719 0.961 . S
H1734 C1719 0.961 . S
H1735 C1719 0.961 . S
H1736 C1720 0.931 . S
H1737 C1725 0.930 . S
H1738 C1726 0.956 . S
H1739 C1726 0.961 . S
H1740 C1726 0.961 . S
H1741 C1727 0.958 . S
H1742 C1727 0.961 . S
H1743 C1727 0.960 . S
C1744 C1745 1.391 . S
C1744 C1746 1.394 . S
C1744 H1760 0.931 . S
C1745 C1744 1.391 . S
C1745 C1749 1.376 . S
C1746 C1744 1.394 . S
C1746 C1747 1.369 . S
C1746 C1750 1.531 . S
C1747 C1746 1.369 . S
C1747 C1748 1.410 . S
C1747 C1755 1.503 1_455 S
C1748 C1747 1.410 . S
C1748 C1749 1.392 . S
C1748 C1751 1.511 . S
C1749 C1745 1.376 . S
C1749 C1748 1.392 . S
C1749 H1761 0.929 . S
C1750 C1746 1.531 . S
C1750 H1762 0.960 . S
C1750 H1763 0.962 . S
C1750 H1764 0.960 . S
C1751 C1748 1.511 . S
C1751 H1765 0.961 . S
C1751 H1766 0.961 1_455 S
C1751 H1767 0.961 . S
C1752 C1753 1.370 . S
C1752 C1754 1.363 . S
C1752 H1768 0.931 . S
C1753 C1752 1.370 . S
C1753 C1757 1.408 . S
C1754 C1752 1.363 . S
C1754 C1755 1.370 . S
C1754 C1758 1.524 . S
C1755 C1747 1.503 1_655 S
C1755 C1754 1.370 . S
C1755 C1756 1.403 . S
C1756 C1755 1.403 . S
C1756 C1757 1.404 . S
C1756 C1759 1.539 1_655 S
C1757 C1753 1.408 . S
C1757 C1756 1.404 . S
C1757 H1769 0.930 . S
C1758 C1754 1.524 . S
C1758 H1770 0.956 . S
C1758 H1771 0.961 . S
C1758 H1772 0.961 . S
C1759 C1756 1.539 1_455 S
C1759 H1773 0.958 . S
C1759 H1774 0.961 . S
C1759 H1775 0.960 . S
H1760 C1744 0.931 . S
H1761 C1749 0.929 . S
H1762 C1750 0.960 . S
H1763 C1750 0.962 . S
H1764 C1750 0.960 . S
H1765 C1751 0.961 . S
H1766 C1751 0.961 1_655 S
H1767 C1751 0.961 . S
H1768 C1752 0.931 . S
H1769 C1757 0.930 . S
H1770 C1758 0.956 . S
H1771 C1758 0.961 . S
H1772 C1758 0.961 . S
H1773 C1759 0.958 . S
H1774 C1759 0.961 . S
H1775 C1759 0.960 . S
C1776 C1777 1.391 . S
C1776 C1778 1.394 . S
C1776 H1792 0.931 . S
C1777 C1776 1.391 . S
C1777 C1781 1.376 . S
C1778 C1776 1.394 . S
C1778 C1779 1.369 . S
C1778 C1782 1.531 . S
C1779 C1778 1.369 . S
C1779 C1780 1.410 . S
C1779 C1787 1.503 . S
C1780 C1779 1.410 . S
C1780 C1781 1.392 . S
C1780 C1783 1.511 . S
C1781 C1777 1.376 . S
C1781 C1780 1.392 . S
C1781 H1793 0.929 . S
C1782 C1778 1.531 . S
C1782 H1794 0.960 . S
C1782 H1795 0.962 . S
C1782 H1796 0.960 . S
C1783 C1780 1.511 . S
C1783 H1797 0.961 . S
C1783 H1798 0.961 . S
C1783 H1799 0.961 . S
C1784 C1785 1.370 . S
C1784 C1786 1.363 . S
C1784 H1800 0.931 . S
C1785 C1784 1.370 . S
C1785 C1789 1.408 . S
C1786 C1784 1.363 . S
C1786 C1787 1.370 . S
C1786 C1790 1.524 . S
C1787 C1779 1.503 . S
C1787 C1786 1.370 . S
C1787 C1788 1.403 . S
C1788 C1787 1.403 . S
C1788 C1789 1.404 . S
C1788 C1791 1.539 . S
C1789 C1785 1.408 . S
C1789 C1788 1.404 . S
C1789 H1801 0.930 . S
C1790 C1786 1.524 . S
C1790 H1802 0.956 . S
C1790 H1803 0.961 . S
C1790 H1804 0.961 . S
C1791 C1788 1.539 . S
C1791 H1805 0.958 . S
C1791 H1806 0.961 . S
C1791 H1807 0.960 . S
H1792 C1776 0.931 . S
H1793 C1781 0.929 . S
H1794 C1782 0.960 . S
H1795 C1782 0.962 . S
H1796 C1782 0.960 . S
H1797 C1783 0.961 . S
H1798 C1783 0.961 . S
H1799 C1783 0.961 . S
H1800 C1784 0.931 . S
H1801 C1789 0.930 . S
H1802 C1790 0.956 . S
H1803 C1790 0.961 . S
H1804 C1790 0.961 . S
H1805 C1791 0.958 . S
H1806 C1791 0.961 . S
H1807 C1791 0.960 . S
C1808 C1809 1.391 . S
C1808 C1810 1.394 . S
C1808 H1824 0.931 . S
C1809 C1808 1.391 . S
C1809 C1813 1.376 . S
C1810 C1808 1.394 . S
C1810 C1811 1.369 . S
C1810 C1814 1.531 . S
C1811 C1810 1.369 . S
C1811 C1812 1.410 . S
C1811 C1819 1.503 . S
C1812 C1811 1.410 . S
C1812 C1813 1.392 . S
C1812 C1815 1.511 . S
C1813 C1809 1.376 . S
C1813 C1812 1.392 . S
C1813 H1825 0.929 . S
C1814 C1810 1.531 . S
C1814 H1826 0.960 . S
C1814 H1827 0.962 . S
C1814 H1828 0.960 . S
C1815 C1812 1.511 . S
C1815 H1829 0.961 . S
C1815 H1830 0.961 . S
C1815 H1831 0.961 . S
C1816 C1817 1.370 . S
C1816 C1818 1.363 . S
C1816 H1832 0.931 . S
C1817 C1816 1.370 . S
C1817 C1821 1.408 . S
C1818 C1816 1.363 . S
C1818 C1819 1.370 . S
C1818 C1822 1.524 . S
C1819 C1811 1.503 . S
C1819 C1818 1.370 . S
C1819 C1820 1.403 . S
C1820 C1819 1.403 . S
C1820 C1821 1.404 . S
C1820 C1823 1.539 . S
C1821 C1817 1.408 . S
C1821 C1820 1.404 . S
C1821 H1833 0.930 . S
C1822 C1818 1.524 . S
C1822 H1834 0.956 . S
C1822 H1835 0.961 . S
C1822 H1836 0.961 . S
C1823 C1820 1.539 . S
C1823 H1837 0.958 . S
C1823 H1838 0.961 . S
C1823 H1839 0.960 . S
H1824 C1808 0.931 . S
H1825 C1813 0.929 . S
H1826 C1814 0.960 . S
H1827 C1814 0.962 . S
H1828 C1814 0.960 . S
H1829 C1815 0.961 . S
H1830 C1815 0.961 . S
H1831 C1815 0.961 . S
H1832 C1816 0.931 . S
H1833 C1821 0.930 . S
H1834 C1822 0.956 . S
H1835 C1822 0.961 . S
H1836 C1822 0.961 . S
H1837 C1823 0.958 . S
H1838 C1823 0.961 . S
H1839 C1823 0.960 . S
C1840 C1841 1.391 . S
C1840 C1842 1.394 . S
C1840 H1856 0.931 . S
C1841 C1840 1.391 . S
C1841 C1845 1.376 . S
C1842 C1840 1.394 . S
C1842 C1843 1.369 . S
C1842 C1846 1.531 . S
C1843 C1842 1.369 . S
C1843 C1844 1.410 . S
C1843 C1851 1.503 . S
C1844 C1843 1.410 . S
C1844 C1845 1.392 . S
C1844 C1847 1.511 . S
C1845 C1841 1.376 . S
C1845 C1844 1.392 . S
C1845 H1857 0.929 . S
C1846 C1842 1.531 . S
C1846 H1858 0.960 . S
C1846 H1859 0.962 . S
C1846 H1860 0.960 . S
C1847 C1844 1.511 . S
C1847 H1861 0.961 . S
C1847 H1862 0.961 . S
C1847 H1863 0.961 . S
C1848 C1849 1.370 . S
C1848 C1850 1.363 . S
C1848 H1864 0.931 . S
C1849 C1848 1.370 . S
C1849 C1853 1.408 . S
C1850 C1848 1.363 . S
C1850 C1851 1.370 . S
C1850 C1854 1.524 . S
C1851 C1843 1.503 . S
C1851 C1850 1.370 . S
C1851 C1852 1.403 . S
C1852 C1851 1.403 . S
C1852 C1853 1.404 . S
C1852 C1855 1.539 . S
C1853 C1849 1.408 . S
C1853 C1852 1.404 . S
C1853 H1865 0.930 . S
C1854 C1850 1.524 . S
C1854 H1866 0.956 . S
C1854 H1867 0.961 . S
C1854 H1868 0.961 . S
C1855 C1852 1.539 . S
C1855 H1869 0.958 . S
C1855 H1870 0.961 . S
C1855 H1871 0.960 . S
H1856 C1840 0.931 . S
H1857 C1845 0.929 . S
H1858 C1846 0.960 . S
H1859 C1846 0.962 . S
H1860 C1846 0.960 . S
H1861 C1847 0.961 . S
H1862 C1847 0.961 . S
H1863 C1847 0.961 . S
H1864 C1848 0.931 . S
H1865 C1853 0.930 . S
H1866 C1854 0.956 . S
H1867 C1854 0.961 . S
H1868 C1854 0.961 . S
H1869 C1855 0.958 . S
H1870 C1855 0.961 . S
H1871 C1855 0.960 . S
C1872 C1873 1.391 . S
C1872 C1874 1.394 . S
C1872 H1888 0.931 . S
C1873 C1872 1.391 . S
C1873 C1877 1.376 . S
C1874 C1872 1.394 . S
C1874 C1875 1.369 . S
C1874 C1878 1.531 . S
C1875 C1874 1.369 . S
C1875 C1876 1.410 . S
C1875 C1883 1.503 . S
C1876 C1875 1.410 . S
C1876 C1877 1.392 . S
C1876 C1879 1.511 . S
C1877 C1873 1.376 . S
C1877 C1876 1.392 . S
C1877 H1889 0.929 . S
C1878 C1874 1.531 . S
C1878 H1890 0.960 . S
C1878 H1891 0.962 . S
C1878 H1892 0.960 . S
C1879 C1876 1.511 . S
C1879 H1893 0.961 . S
C1879 H1894 0.961 . S
C1879 H1895 0.961 . S
C1880 C1881 1.370 . S
C1880 C1882 1.363 . S
C1880 H1896 0.931 . S
C1881 C1880 1.370 . S
C1881 C1885 1.408 . S
C1882 C1880 1.363 . S
C1882 C1883 1.370 . S
C1882 C1886 1.524 . S
C1883 C1875 1.503 . S
C1883 C1882 1.370 . S
C1883 C1884 1.403 . S
C1884 C1883 1.403 . S
C1884 C1885 1.404 . S
C1884 C1887 1.539 . S
C1885 C1881 1.408 . S
C1885 C1884 1.404 . S
C1885 H1897 0.930 . S
C1886 C1882 1.524 . S
C1886 H1898 0.956 . S
C1886 H1899 0.961 . S
C1886 H1900 0.961 . S
C1887 C1884 1.539 . S
C1887 H1901 0.958 . S
C1887 H1902 0.961 . S
C1887 H1903 0.960 . S
H1888 C1872 0.931 . S
H1889 C1877 0.929 . S
H1890 C1878 0.960 . S
H1891 C1878 0.962 . S
H1892 C1878 0.960 . S
H1893 C1879 0.961 . S
H1894 C1879 0.961 . S
H1895 C1879 0.961 . S
H1896 C1880 0.931 . S
H1897 C1885 0.930 . S
H1898 C1886 0.956 . S
H1899 C1886 0.961 . S
H1900 C1886 0.961 . S
H1901 C1887 0.958 . S
H1902 C1887 0.961 . S
H1903 C1887 0.960 . S
C1904 C1905 1.391 . S
C1904 C1906 1.394 . S
C1904 H1920 0.931 . S
C1905 C1904 1.391 . S
C1905 C1909 1.376 . S
C1906 C1904 1.394 . S
C1906 C1907 1.369 . S
C1906 C1910 1.531 . S
C1907 C1906 1.369 . S
C1907 C1908 1.410 . S
C1907 C1915 1.503 . S
C1908 C1907 1.410 . S
C1908 C1909 1.392 . S
C1908 C1911 1.511 . S
C1909 C1905 1.376 . S
C1909 C1908 1.392 . S
C1909 H1921 0.929 . S
C1910 C1906 1.531 . S
C1910 H1922 0.960 . S
C1910 H1923 0.962 . S
C1910 H1924 0.960 . S
C1911 C1908 1.511 . S
C1911 H1925 0.961 . S
C1911 H1926 0.961 . S
C1911 H1927 0.961 . S
C1912 C1913 1.370 . S
C1912 C1914 1.363 . S
C1912 H1928 0.931 . S
C1913 C1912 1.370 . S
C1913 C1917 1.408 . S
C1914 C1912 1.363 . S
C1914 C1915 1.370 . S
C1914 C1918 1.524 . S
C1915 C1907 1.503 . S
C1915 C1914 1.370 . S
C1915 C1916 1.403 . S
C1916 C1915 1.403 . S
C1916 C1917 1.404 . S
C1916 C1919 1.539 . S
C1917 C1913 1.408 . S
C1917 C1916 1.404 . S
C1917 H1929 0.930 . S
C1918 C1914 1.524 . S
C1918 H1930 0.956 . S
C1918 H1931 0.961 . S
C1918 H1932 0.961 . S
C1919 C1916 1.539 . S
C1919 H1933 0.958 . S
C1919 H1934 0.961 . S
C1919 H1935 0.960 . S
H1920 C1904 0.931 . S
H1921 C1909 0.929 . S
H1922 C1910 0.960 . S
H1923 C1910 0.962 . S
H1924 C1910 0.960 . S
H1925 C1911 0.961 . S
H1926 C1911 0.961 . S
H1927 C1911 0.961 . S
H1928 C1912 0.931 . S
H1929 C1917 0.930 . S
H1930 C1918 0.956 . S
H1931 C1918 0.961 . S
H1932 C1918 0.961 . S
H1933 C1919 0.958 . S
H1934 C1919 0.961 . S
H1935 C1919 0.960 . S
C1936 C1937 1.391 . S
C1936 C1938 1.394 . S
C1936 H1952 0.931 . S
C1937 C1936 1.391 . S
C1937 C1941 1.376 . S
C1938 C1936 1.394 . S
C1938 C1939 1.369 . S
C1938 C1942 1.531 . S
C1939 C1938 1.369 . S
C1939 C1940 1.410 . S
C1939 C1947 1.503 . S
C1940 C1939 1.410 . S
C1940 C1941 1.392 . S
C1940 C1943 1.511 . S
C1941 C1937 1.376 . S
C1941 C1940 1.392 . S
C1941 H1953 0.929 . S
C1942 C1938 1.531 . S
C1942 H1954 0.960 . S
C1942 H1955 0.962 . S
C1942 H1956 0.960 . S
C1943 C1940 1.511 . S
C1943 H1957 0.961 . S
C1943 H1958 0.961 . S
C1943 H1959 0.961 . S
C1944 C1945 1.370 . S
C1944 C1946 1.363 . S
C1944 H1960 0.931 . S
C1945 C1944 1.370 . S
C1945 C1949 1.408 . S
C1946 C1944 1.363 . S
C1946 C1947 1.370 . S
C1946 C1950 1.524 . S
C1947 C1939 1.503 . S
C1947 C1946 1.370 . S
C1947 C1948 1.403 . S
C1948 C1947 1.403 . S
C1948 C1949 1.404 . S
C1948 C1951 1.539 . S
C1949 C1945 1.408 . S
C1949 C1948 1.404 . S
C1949 H1961 0.930 . S
C1950 C1946 1.524 . S
C1950 H1962 0.956 . S
C1950 H1963 0.961 . S
C1950 H1964 0.961 . S
C1951 C1948 1.539 . S
C1951 H1965 0.958 . S
C1951 H1966 0.961 . S
C1951 H1967 0.960 . S
H1952 C1936 0.931 . S
H1953 C1941 0.929 . S
H1954 C1942 0.960 . S
H1955 C1942 0.962 . S
H1956 C1942 0.960 . S
H1957 C1943 0.961 . S
H1958 C1943 0.961 . S
H1959 C1943 0.961 . S
H1960 C1944 0.931 . S
H1961 C1949 0.930 . S
H1962 C1950 0.956 . S
H1963 C1950 0.961 . S
H1964 C1950 0.961 . S
H1965 C1951 0.958 . S
H1966 C1951 0.961 . S
H1967 C1951 0.960 . S
C1968 C1969 1.391 . S
C1968 C1970 1.394 . S
C1968 H1984 0.931 . S
C1969 C1968 1.391 . S
C1969 C1973 1.376 . S
C1970 C1968 1.394 . S
C1970 C1971 1.369 . S
C1970 C1974 1.531 . S
C1971 C1970 1.369 . S
C1971 C1972 1.410 . S
C1971 C1979 1.503 . S
C1972 C1971 1.410 . S
C1972 C1973 1.392 . S
C1972 C1975 1.511 . S
C1973 C1969 1.376 . S
C1973 C1972 1.392 . S
C1973 H1985 0.929 . S
C1974 C1970 1.531 . S
C1974 H1986 0.960 . S
C1974 H1987 0.962 . S
C1974 H1988 0.960 . S
C1975 C1972 1.511 . S
C1975 H1989 0.961 . S
C1975 H1990 0.961 . S
C1975 H1991 0.961 . S
C1976 C1977 1.370 . S
C1976 C1978 1.363 . S
C1976 H1992 0.931 . S
C1977 C1976 1.370 . S
C1977 C1981 1.408 . S
C1978 C1976 1.363 . S
C1978 C1979 1.370 . S
C1978 C1982 1.524 . S
C1979 C1971 1.503 . S
C1979 C1978 1.370 . S
C1979 C1980 1.403 . S
C1980 C1979 1.403 . S
C1980 C1981 1.404 . S
C1980 C1983 1.539 . S
C1981 C1977 1.408 . S
C1981 C1980 1.404 . S
C1981 H1993 0.930 . S
C1982 C1978 1.524 . S
C1982 H1994 0.956 . S
C1982 H1995 0.961 . S
C1982 H1996 0.961 . S
C1983 C1980 1.539 . S
C1983 H1997 0.958 . S
C1983 H1998 0.961 . S
C1983 H1999 0.960 . S
H1984 C1968 0.931 . S
H1985 C1973 0.929 . S
H1986 C1974 0.960 . S
H1987 C1974 0.962 . S
H1988 C1974 0.960 . S
H1989 C1975 0.961 . S
H1990 C1975 0.961 . S
H1991 C1975 0.961 . S
H1992 C1976 0.931 . S
H1993 C1981 0.930 . S
H1994 C1982 0.956 . S
H1995 C1982 0.961 . S
H1996 C1982 0.961 . S
H1997 C1983 0.958 . S
H1998 C1983 0.961 . S
H1999 C1983 0.960 . S
C2000 C2001 1.391 . S
C2000 C2002 1.394 . S
C2000 H2016 0.931 . S
C2001 C2000 1.391 . S
C2001 C2005 1.376 . S
C2002 C2000 1.394 . S
C2002 C2003 1.369 . S
C2002 C2006 1.531 . S
C2003 C2002 1.369 . S
C2003 C2004 1.410 . S
C2003 C2011 1.503 . S
C2004 C2003 1.410 . S
C2004 C2005 1.392 . S
C2004 C2007 1.511 . S
C2005 C2001 1.376 . S
C2005 C2004 1.392 . S
C2005 H2017 0.929 . S
C2006 C2002 1.531 . S
C2006 H2018 0.960 . S
C2006 H2019 0.962 . S
C2006 H2020 0.960 . S
C2007 C2004 1.511 . S
C2007 H2021 0.961 . S
C2007 H2022 0.961 . S
C2007 H2023 0.961 . S
C2008 C2009 1.370 . S
C2008 C2010 1.363 . S
C2008 H2024 0.931 . S
C2009 C2008 1.370 . S
C2009 C2013 1.408 . S
C2010 C2008 1.363 . S
C2010 C2011 1.370 . S
C2010 C2014 1.524 . S
C2011 C2003 1.503 . S
C2011 C2010 1.370 . S
C2011 C2012 1.403 . S
C2012 C2011 1.403 . S
C2012 C2013 1.404 . S
C2012 C2015 1.539 . S
C2013 C2009 1.408 . S
C2013 C2012 1.404 . S
C2013 H2025 0.930 . S
C2014 C2010 1.524 . S
C2014 H2026 0.956 . S
C2014 H2027 0.961 . S
C2014 H2028 0.961 . S
C2015 C2012 1.539 . S
C2015 H2029 0.958 . S
C2015 H2030 0.961 . S
C2015 H2031 0.960 . S
H2016 C2000 0.931 . S
H2017 C2005 0.929 . S
H2018 C2006 0.960 . S
H2019 C2006 0.962 . S
H2020 C2006 0.960 . S
H2021 C2007 0.961 . S
H2022 C2007 0.961 . S
H2023 C2007 0.961 . S
H2024 C2008 0.931 . S
H2025 C2013 0.930 . S
H2026 C2014 0.956 . S
H2027 C2014 0.961 . S
H2028 C2014 0.961 . S
H2029 C2015 0.958 . S
H2030 C2015 0.961 . S
H2031 C2015 0.960 . S
C2032 C2033 1.391 . S
C2032 C2034 1.394 . S
C2032 H2048 0.931 . S
C2033 C2032 1.391 . S
C2033 C2037 1.376 . S
C2034 C2032 1.394 . S
C2034 C2035 1.369 . S
C2034 C2038 1.531 . S
C2035 C2034 1.369 . S
C2035 C2036 1.410 . S
C2035 C2043 1.503 . S
C2036 C2035 1.410 . S
C2036 C2037 1.392 . S
C2036 C2039 1.511 . S
C2037 C2033 1.376 . S
C2037 C2036 1.392 . S
C2037 H2049 0.929 . S
C2038 C2034 1.531 . S
C2038 H2050 0.960 . S
C2038 H2051 0.962 . S
C2038 H2052 0.960 . S
C2039 C2036 1.511 . S
C2039 H2053 0.961 . S
C2039 H2054 0.961 . S
C2039 H2055 0.961 . S
C2040 C2041 1.370 . S
C2040 C2042 1.363 . S
C2040 H2056 0.931 . S
C2041 C2040 1.370 . S
C2041 C2045 1.408 . S
C2042 C2040 1.363 . S
C2042 C2043 1.370 . S
C2042 C2046 1.524 . S
C2043 C2035 1.503 . S
C2043 C2042 1.370 . S
C2043 C2044 1.403 . S
C2044 C2043 1.403 . S
C2044 C2045 1.404 . S
C2044 C2047 1.539 . S
C2045 C2041 1.408 . S
C2045 C2044 1.404 . S
C2045 H2057 0.930 . S
C2046 C2042 1.524 . S
C2046 H2058 0.956 . S
C2046 H2059 0.961 . S
C2046 H2060 0.961 . S
C2047 C2044 1.539 . S
C2047 H2061 0.958 . S
C2047 H2062 0.961 . S
C2047 H2063 0.960 . S
H2048 C2032 0.931 . S
H2049 C2037 0.929 . S
H2050 C2038 0.960 . S
H2051 C2038 0.962 . S
H2052 C2038 0.960 . S
H2053 C2039 0.961 . S
H2054 C2039 0.961 . S
H2055 C2039 0.961 . S
H2056 C2040 0.931 . S
H2057 C2045 0.930 . S
H2058 C2046 0.956 . S
H2059 C2046 0.961 . S
H2060 C2046 0.961 . S
H2061 C2047 0.958 . S
H2062 C2047 0.961 . S
H2063 C2047 0.960 . S
C2064 C2065 1.391 . S
C2064 C2066 1.394 . S
C2064 H2080 0.931 . S
C2065 C2064 1.391 . S
C2065 C2069 1.376 . S
C2066 C2064 1.394 . S
C2066 C2067 1.369 . S
C2066 C2070 1.531 . S
C2067 C2066 1.369 . S
C2067 C2068 1.410 . S
C2067 C2075 1.503 . S
C2068 C2067 1.410 . S
C2068 C2069 1.392 . S
C2068 C2071 1.511 . S
C2069 C2065 1.376 . S
C2069 C2068 1.392 . S
C2069 H2081 0.929 . S
C2070 C2066 1.531 . S
C2070 H2082 0.960 . S
C2070 H2083 0.962 . S
C2070 H2084 0.960 . S
C2071 C2068 1.511 . S
C2071 H2085 0.961 . S
C2071 H2086 0.961 . S
C2071 H2087 0.961 . S
C2072 C2073 1.370 . S
C2072 C2074 1.363 . S
C2072 H2088 0.931 . S
C2073 C2072 1.370 . S
C2073 C2077 1.408 . S
C2074 C2072 1.363 . S
C2074 C2075 1.370 . S
C2074 C2078 1.524 . S
C2075 C2067 1.503 . S
C2075 C2074 1.370 . S
C2075 C2076 1.403 . S
C2076 C2075 1.403 . S
C2076 C2077 1.404 . S
C2076 C2079 1.539 . S
C2077 C2073 1.408 . S
C2077 C2076 1.404 . S
C2077 H2089 0.930 . S
C2078 C2074 1.524 . S
C2078 H2090 0.956 . S
C2078 H2091 0.961 . S
C2078 H2092 0.961 . S
C2079 C2076 1.539 . S
C2079 H2093 0.958 . S
C2079 H2094 0.961 . S
C2079 H2095 0.960 . S
H2080 C2064 0.931 . S
H2081 C2069 0.929 . S
H2082 C2070 0.960 . S
H2083 C2070 0.962 . S
H2084 C2070 0.960 . S
H2085 C2071 0.961 . S
H2086 C2071 0.961 . S
H2087 C2071 0.961 . S
H2088 C2072 0.931 . S
H2089 C2077 0.930 . S
H2090 C2078 0.956 . S
H2091 C2078 0.961 . S
H2092 C2078 0.961 . S
H2093 C2079 0.958 . S
H2094 C2079 0.961 . S
H2095 C2079 0.960 . S
C2096 C2097 1.391 . S
C2096 C2098 1.394 . S
C2096 H2112 0.931 . S
C2097 C2096 1.391 . S
C2097 C2101 1.376 . S
C2098 C2096 1.394 . S
C2098 C2099 1.369 . S
C2098 C2102 1.531 . S
C2099 C2098 1.369 . S
C2099 C2100 1.410 . S
C2099 C2107 1.503 . S
C2100 C2099 1.410 . S
C2100 C2101 1.392 . S
C2100 C2103 1.511 . S
C2101 C2097 1.376 . S
C2101 C2100 1.392 . S
C2101 H2113 0.929 . S
C2102 C2098 1.531 . S
C2102 H2114 0.960 . S
C2102 H2115 0.962 . S
C2102 H2116 0.960 . S
C2103 C2100 1.511 . S
C2103 H2117 0.961 . S
C2103 H2118 0.961 . S
C2103 H2119 0.961 . S
C2104 C2105 1.370 . S
C2104 C2106 1.363 . S
C2104 H2120 0.931 . S
C2105 C2104 1.370 . S
C2105 C2109 1.408 . S
C2106 C2104 1.363 . S
C2106 C2107 1.370 . S
C2106 C2110 1.524 . S
C2107 C2099 1.503 . S
C2107 C2106 1.370 . S
C2107 C2108 1.403 . S
C2108 C2107 1.403 . S
C2108 C2109 1.404 . S
C2108 C2111 1.539 . S
C2109 C2105 1.408 . S
C2109 C2108 1.404 . S
C2109 H2121 0.930 . S
C2110 C2106 1.524 . S
C2110 H2122 0.956 . S
C2110 H2123 0.961 . S
C2110 H2124 0.961 . S
C2111 C2108 1.539 . S
C2111 H2125 0.958 . S
C2111 H2126 0.961 . S
C2111 H2127 0.960 . S
H2112 C2096 0.931 . S
H2113 C2101 0.929 . S
H2114 C2102 0.960 . S
H2115 C2102 0.962 . S
H2116 C2102 0.960 . S
H2117 C2103 0.961 . S
H2118 C2103 0.961 . S
H2119 C2103 0.961 . S
H2120 C2104 0.931 . S
H2121 C2109 0.930 . S
H2122 C2110 0.956 . S
H2123 C2110 0.961 . S
H2124 C2110 0.961 . S
H2125 C2111 0.958 . S
H2126 C2111 0.961 . S
H2127 C2111 0.960 . S
C2128 C2129 1.391 . S
C2128 C2130 1.394 . S
C2128 H2144 0.931 . S
C2129 C2128 1.391 . S
C2129 C2133 1.376 . S
C2130 C2128 1.394 . S
C2130 C2131 1.369 . S
C2130 C2134 1.531 . S
C2131 C2130 1.369 . S
C2131 C2132 1.410 . S
C2131 C2139 1.503 . S
C2132 C2131 1.410 . S
C2132 C2133 1.392 . S
C2132 C2135 1.511 . S
C2133 C2129 1.376 . S
C2133 C2132 1.392 . S
C2133 H2145 0.929 . S
C2134 C2130 1.531 . S
C2134 H2146 0.960 . S
C2134 H2147 0.962 . S
C2134 H2148 0.960 . S
C2135 C2132 1.511 . S
C2135 H2149 0.961 . S
C2135 H2150 0.961 . S
C2135 H2151 0.961 . S
C2136 C2137 1.370 . S
C2136 C2138 1.363 . S
C2136 H2152 0.931 . S
C2137 C2136 1.370 . S
C2137 C2141 1.408 . S
C2138 C2136 1.363 . S
C2138 C2139 1.370 . S
C2138 C2142 1.524 . S
C2139 C2131 1.503 . S
C2139 C2138 1.370 . S
C2139 C2140 1.403 . S
C2140 C2139 1.403 . S
C2140 C2141 1.404 . S
C2140 C2143 1.539 . S
C2141 C2137 1.408 . S
C2141 C2140 1.404 . S
C2141 H2153 0.930 . S
C2142 C2138 1.524 . S
C2142 H2154 0.956 . S
C2142 H2155 0.961 . S
C2142 H2156 0.961 . S
C2143 C2140 1.539 . S
C2143 H2157 0.958 . S
C2143 H2158 0.961 . S
C2143 H2159 0.960 . S
H2144 C2128 0.931 . S
H2145 C2133 0.929 . S
H2146 C2134 0.960 . S
H2147 C2134 0.962 . S
H2148 C2134 0.960 . S
H2149 C2135 0.961 . S
H2150 C2135 0.961 . S
H2151 C2135 0.961 . S
H2152 C2136 0.931 . S
H2153 C2141 0.930 . S
H2154 C2142 0.956 . S
H2155 C2142 0.961 . S
H2156 C2142 0.961 . S
H2157 C2143 0.958 . S
H2158 C2143 0.961 . S
H2159 C2143 0.960 . S
C1009 C226 1.183 . S
C1017 C67 1.257 . S
C1041 C321 1.180 . S
C1049 C140 1.257 . S
C1073 C235 1.273 . S
C1081 C394 1.097 . S
C1105 C308 1.264 . S
C1113 C489 1.119 . S
C1137 C58 1.163 . S
C1145 C403 1.260 . S
C1169 C153 1.057 . S
C1177 C476 1.269 . S
C1201 C909 1.048 . S
C1209 C560 1.270 . S
C1233 C655 1.245 . S
C1241 C982 1.145 . S
C1265 C728 1.246 . S
C1273 C573 1.143 . S
C1297 C823 1.251 . S
C1305 C646 1.135 . S
C1329 C896 1.259 . S
C1337 C741 1.114 . S
C1361 C814 1.110 . S
C1369 C991 1.265 . S
C1393 C315 1.943 . S
C1401 C74 1.938 . S
C1425 C147 1.923 . S
C1433 C410 1.930 . S
C1457 C242 1.931 . S
C1465 C483 1.933 . S
C1489 C567 1.944 . S
C1497 C830 1.938 . S
C1521 C662 1.952 . S
C1529 C903 1.940 . S
C1553 C735 1.903 . S
C1561 C998 1.918 . S
C1585 C651 2.139 . S
C1593 C63 2.163 . S
C1617 C158 2.144 . S
C1625 C746 2.163 . S
C1649 C819 2.149 . S
C1657 C231 2.152 . S
C1681 C326 2.137 . S
C1689 C914 2.156 . S
C1713 C399 2.155 . S
C1721 C987 2.164 . S
C1745 C578 2.168 . S
C1753 C494 2.156 . S
C1777 C237 1.193 . S
C1785 C56 1.421 . S
C1809 C151 1.428 . S
C1817 C310 1.242 . S
C1841 C224 1.396 . S
C1849 C405 1.280 . S
C1873 C319 1.414 . S
C1881 C478 1.235 . S
C1905 C69 1.308 . S
C1913 C392 1.407 . S
C1937 C142 1.312 . S
C1945 C487 1.410 . S
C1969 C898 1.275 . S
C1977 C571 1.408 . S
C2001 C644 1.402 . S
C2009 C993 1.258 . S
C2033 C739 1.427 . S
C2041 C562 1.246 . S
C2065 C657 1.309 . S
C2073 C812 1.407 . S
C2097 C907 1.427 . S
C2105 C730 1.247 . S
C2129 C980 1.413 . S
C2137 C825 1.266 . S
