# Generated by pormake.
# Topology noy, (5)-cn, num edge types: 1
# Building blocks:
#     Node 0, Type 0, BuildingBlock: BEQFEK_clean_sbu_0, # of connection points: 5
#     Node 1, Type 0, BuildingBlock: BEQFEK_clean_sbu_0, # of connection points: 5
#     Node 2, Type 0, BuildingBlock: BEQFEK_clean_sbu_0, # of connection points: 5
#     Node 3, Type 0, BuildingBlock: BEQFEK_clean_sbu_0, # of connection points: 5
#     Node 4, Type 0, BuildingBlock: BEQFEK_clean_sbu_0, # of connection points: 5
#     Node 5, Type 0, BuildingBlock: BEQFEK_clean_sbu_0, # of connection points: 5
#     Node 6, Type 0, BuildingBlock: BEQFEK_clean_sbu_0, # of connection points: 5
#     Node 7, Type 0, BuildingBlock: BEQFEK_clean_sbu_0, # of connection points: 5
#     Edge 8, Type (0, 0), BuildingBlock: TEMPAE_clean_linker_10, # of connection points: 2
#     Edge 9, Type (0, 0), BuildingBlock: TEMPAE_clean_linker_10, # of connection points: 2
#     Edge 10, Type (0, 0), BuildingBlock: TEMPAE_clean_linker_10, # of connection points: 2
#     Edge 11, Type (0, 0), BuildingBlock: TEMPAE_clean_linker_10, # of connection points: 2
#     Edge 12, Type (0, 0), BuildingBlock: TEMPAE_clean_linker_10, # of connection points: 2
#     Edge 13, Type (0, 0), BuildingBlock: TEMPAE_clean_linker_10, # of connection points: 2
#     Edge 14, Type (0, 0), BuildingBlock: TEMPAE_clean_linker_10, # of connection points: 2
#     Edge 15, Type (0, 0), BuildingBlock: TEMPAE_clean_linker_10, # of connection points: 2
#     Edge 16, Type (0, 0), BuildingBlock: TEMPAE_clean_linker_10, # of connection points: 2
#     Edge 17, Type (0, 0), BuildingBlock: TEMPAE_clean_linker_10, # of connection points: 2
#     Edge 18, Type (0, 0), BuildingBlock: TEMPAE_clean_linker_10, # of connection points: 2
#     Edge 19, Type (0, 0), BuildingBlock: TEMPAE_clean_linker_10, # of connection points: 2
#     Edge 20, Type (0, 0), BuildingBlock: TEMPAE_clean_linker_10, # of connection points: 2
#     Edge 21, Type (0, 0), BuildingBlock: TEMPAE_clean_linker_10, # of connection points: 2
#     Edge 22, Type (0, 0), BuildingBlock: TEMPAE_clean_linker_10, # of connection points: 2
#     Edge 23, Type (0, 0), BuildingBlock: TEMPAE_clean_linker_10, # of connection points: 2
#     Edge 24, Type (0, 0), BuildingBlock: TEMPAE_clean_linker_10, # of connection points: 2
#     Edge 25, Type (0, 0), BuildingBlock: TEMPAE_clean_linker_10, # of connection points: 2
#     Edge 26, Type (0, 0), BuildingBlock: TEMPAE_clean_linker_10, # of connection points: 2
#     Edge 27, Type (0, 0), BuildingBlock: TEMPAE_clean_linker_10, # of connection points: 2
# Relax obj value: 0.052
# Max RMSD: 0.089
# Mean RMSD: 0.089
data_MOF--net-noy--node1-BEQFEK_clean_sbu_0--edge1-TEMPAE_clean_linker_10
_symmetry_space_group_name_H-M    P1
_symmetry_Int_Tables_number       1
_symmetry_cell_setting            triclinic
loop_
_symmetry_equiv_pos_as_xyz
'x, y, z'
_cell_length_a     45.617414
_cell_length_b     47.559936
_cell_length_c     24.376401
_cell_angle_alpha  90.065808
_cell_angle_beta   90.007954
_cell_angle_gamma 89.943531
loop_
_atom_site_label
_atom_site_type_symbol
_atom_site_fract_x
_atom_site_fract_y
_atom_site_fract_z
_atom_type_partial_charge
Co0 Co 0.33257 0.40931 0.25558 0.0
Co1 Co 0.34075 0.36414 0.16345 0.0
C2 C 0.32462 0.42523 0.13935 0.0
O3 O 0.32323 0.43191 0.18985 0.0
O4 O 0.33136 0.40033 0.12438 0.0
C5 C 0.30966 0.45325 0.32726 0.0
O6 O 0.29349 0.46085 0.2852 0.0
C7 C 0.31662 0.32548 0.08107 0.0
C8 C 0.35578 0.30117 0.05644 0.0
C9 C 0.326 0.30397 0.04673 0.0
N10 N 0.33975 0.33474 0.11009 0.0
N11 N 0.3631 0.32015 0.09511 0.0
C12 C 0.28675 0.33843 0.08369 0.0
H13 H 0.28773 0.35942 0.10355 0.0
H14 H 0.27198 0.32483 0.10811 0.0
H15 H 0.27737 0.34028 0.04181 0.0
C16 C 0.29181 0.3663 0.2983 0.0
N17 N 0.30965 0.37611 0.25873 0.0
N18 N 0.31465 0.35605 0.22275 0.0
C19 C 0.30135 0.33227 0.24 0.0
C20 C 0.28616 0.33798 0.28841 0.0
C21 C 0.28045 0.38401 0.34445 0.0
H22 H 0.27445 0.4051 0.32876 0.0
H23 H 0.26083 0.37445 0.36375 0.0
H24 H 0.2979 0.38661 0.37577 0.0
O25 O 0.37522 0.39936 0.25622 0.0
O26 O 0.38099 0.36645 0.19255 0.0
H27 H 0.30658 0.28736 0.24832 0.0
H28 H 0.28987 0.29877 0.18547 0.0
C29 C 0.30709 0.30378 0.21602 0.0
H30 H 0.32876 0.30324 0.19555 0.0
H31 H 0.38406 0.3232 0.11117 0.0
O32 O 0.3267 0.43222 0.32267 0.0
C33 C 0.39146 0.38205 0.23021 0.0
Co34 Co 0.67001 0.60576 0.75099 0.0
Co35 Co 0.6657 0.64945 0.65524 0.0
C36 C 0.68148 0.58904 0.63419 0.0
O37 O 0.67881 0.58317 0.68484 0.0
O38 O 0.67797 0.61405 0.61658 0.0
C39 C 0.67968 0.55597 0.8159 0.0
O40 O 0.67777 0.54272 0.76872 0.0
C41 C 0.68852 0.68676 0.56951 0.0
C42 C 0.65232 0.71726 0.56 0.0
C43 C 0.68028 0.71094 0.54128 0.0
N44 N 0.6665 0.67938 0.6032 0.0
N45 N 0.64482 0.69752 0.59691 0.0
C46 C 0.71753 0.67205 0.56848 0.0
H47 H 0.7206 0.65949 0.6064 0.0
H48 H 0.73565 0.68746 0.56424 0.0
H49 H 0.71818 0.6575 0.5329 0.0
C50 C 0.709 0.64942 0.79664 0.0
N51 N 0.69273 0.63901 0.75524 0.0
N52 N 0.69048 0.65803 0.71629 0.0
C53 C 0.70505 0.6814 0.73222 0.0
C54 C 0.71729 0.67669 0.78368 0.0
C55 C 0.71575 0.63364 0.84823 0.0
H56 H 0.72336 0.61214 0.8378 0.0
H57 H 0.7329 0.64432 0.87287 0.0
H58 H 0.69546 0.63173 0.87307 0.0
O59 O 0.62794 0.61542 0.75024 0.0
O60 O 0.62424 0.64559 0.68115 0.0
H61 H 0.71071 0.7266 0.72899 0.0
H62 H 0.71964 0.70785 0.66699 0.0
C63 C 0.70425 0.70881 0.70212 0.0
H64 H 0.68189 0.71273 0.68611 0.0
H65 H 0.62516 0.6968 0.61875 0.0
O66 O 0.67698 0.58255 0.81712 0.0
C67 C 0.61255 0.63141 0.71978 0.0
Co68 Co 0.3355 0.6042 0.75613 0.0
Co69 Co 0.34177 0.64789 0.85165 0.0
C70 C 0.32592 0.5867 0.87172 0.0
O71 O 0.32535 0.58083 0.82078 0.0
O72 O 0.33216 0.61139 0.88851 0.0
C73 C 0.31247 0.56095 0.68409 0.0
O74 O 0.29719 0.55299 0.72702 0.0
C75 C 0.31662 0.68477 0.93592 0.0
C76 C 0.35483 0.7102 0.96113 0.0
C77 C 0.32521 0.70626 0.97084 0.0
N78 N 0.34003 0.67656 0.90645 0.0
N79 N 0.36283 0.69179 0.92185 0.0
C80 C 0.28723 0.67089 0.93323 0.0
H81 H 0.28767 0.65275 0.90457 0.0
H82 H 0.27043 0.68615 0.91936 0.0
H83 H 0.28081 0.6637 0.97483 0.0
C84 C 0.29632 0.64836 0.71245 0.0
N85 N 0.31295 0.63765 0.75306 0.0
N86 N 0.31605 0.65664 0.79197 0.0
C87 C 0.30185 0.68033 0.77658 0.0
C88 C 0.28871 0.67575 0.72593 0.0
C89 C 0.28887 0.63291 0.6608 0.0
H90 H 0.3091 0.62971 0.63631 0.0
H91 H 0.27986 0.61195 0.67127 0.0
H92 H 0.27251 0.64449 0.6358 0.0
O93 O 0.378 0.61384 0.75794 0.0
O94 O 0.38256 0.64581 0.82383 0.0
H95 H 0.32609 0.71014 0.82502 0.0
H96 H 0.30108 0.72577 0.77631 0.0
C97 C 0.30431 0.70807 0.80533 0.0
H98 H 0.28711 0.70952 0.83728 0.0
H99 H 0.38385 0.68963 0.9055 0.0
O100 O 0.32955 0.58194 0.68821 0.0
C101 C 0.39373 0.63073 0.78594 0.0
Co102 Co 0.66596 0.40967 0.24946 0.0
Co103 Co 0.66627 0.36845 0.34933 0.0
C104 C 0.68131 0.42931 0.36331 0.0
O105 O 0.67688 0.43388 0.31254 0.0
O106 O 0.67885 0.40473 0.38355 0.0
C107 C 0.69203 0.44598 0.16812 0.0
O108 O 0.71579 0.44421 0.19838 0.0
C109 C 0.69092 0.33367 0.43817 0.0
C110 C 0.6554 0.30289 0.45162 0.0
C111 C 0.68317 0.3104 0.46907 0.0
N112 N 0.6688 0.33955 0.40353 0.0
N113 N 0.64755 0.32118 0.41213 0.0
C114 C 0.71834 0.35073 0.44297 0.0
H115 H 0.72049 0.36532 0.40771 0.0
H116 H 0.73784 0.33683 0.44516 0.0
H117 H 0.71751 0.36313 0.48154 0.0
C118 C 0.703 0.36441 0.20147 0.0
N119 N 0.68865 0.3762 0.24404 0.0
N120 N 0.68947 0.35896 0.28624 0.0
C121 C 0.705 0.33584 0.27205 0.0
C122 C 0.71412 0.3385 0.21774 0.0
C123 C 0.70286 0.37608 0.14443 0.0
H124 H 0.68153 0.38632 0.13578 0.0
H125 H 0.72049 0.392 0.14065 0.0
H126 H 0.70662 0.35938 0.11339 0.0
O127 O 0.62447 0.39986 0.25642 0.0
O128 O 0.62372 0.37113 0.32799 0.0
H129 H 0.69035 0.30245 0.32415 0.0
H130 H 0.72519 0.29552 0.29104 0.0
C131 C 0.71127 0.3119 0.31014 0.0
H132 H 0.72311 0.31997 0.34642 0.0
H133 H 0.62779 0.32094 0.39057 0.0
O134 O 0.66913 0.43273 0.18249 0.0
C135 C 0.61046 0.3844 0.28985 0.0
Co136 Co 0.83543 0.9127 0.25086 0.0
Co137 Co 0.84146 0.86694 0.15791 0.0
C138 C 0.82321 0.92664 0.13358 0.0
O139 O 0.82336 0.93354 0.18405 0.0
O140 O 0.83012 0.9019 0.11817 0.0
C141 C 0.8061 0.95064 0.32715 0.0
O142 O 0.7825 0.94611 0.2976 0.0
C143 C 0.81837 0.82917 0.07227 0.0
C144 C 0.8548 0.79905 0.06185 0.0
C145 C 0.82673 0.80513 0.04333 0.0
N146 N 0.8404 0.8366 0.10604 0.0
N147 N 0.8622 0.81864 0.09922 0.0
C148 C 0.78935 0.84385 0.07155 0.0
H149 H 0.78644 0.85655 0.10941 0.0
H150 H 0.77123 0.82841 0.06783 0.0
H151 H 0.78851 0.85829 0.03587 0.0
C152 C 0.79939 0.86725 0.30115 0.0
N153 N 0.81451 0.87828 0.25876 0.0
N154 N 0.81672 0.85925 0.21957 0.0
C155 C 0.80289 0.83558 0.23587 0.0
C156 C 0.79136 0.83994 0.28783 0.0
C157 C 0.79355 0.8823 0.35403 0.0
H158 H 0.77634 0.89835 0.34716 0.0
H159 H 0.78561 0.86796 0.38654 0.0
H160 H 0.81375 0.89301 0.36824 0.0
O161 O 0.87808 0.90419 0.24773 0.0
O162 O 0.88252 0.87099 0.18408 0.0
H163 H 0.79695 0.79041 0.23195 0.0
H164 H 0.78871 0.80931 0.16991 0.0
C165 C 0.80377 0.80822 0.20551 0.0
H166 H 0.82626 0.80419 0.19025 0.0
H167 H 0.88195 0.81949 0.12076 0.0
O168 O 0.82999 0.9384 0.31477 0.0
C169 C 0.89382 0.88705 0.22026 0.0
Co170 Co 0.16957 0.10052 0.75958 0.0
Co171 Co 0.16677 0.14599 0.66534 0.0
C172 C 0.1824 0.086 0.64181 0.0
O173 O 0.18146 0.07951 0.69246 0.0
O174 O 0.17663 0.11081 0.62549 0.0
C175 C 0.20013 0.06609 0.8392 0.0
O176 O 0.22401 0.07527 0.81506 0.0
C177 C 0.18399 0.18212 0.57035 0.0
C178 C 0.16201 0.22186 0.59288 0.0
C179 C 0.1808 0.21015 0.5544 0.0
N180 N 0.16854 0.17797 0.61684 0.0
N181 N 0.15508 0.20173 0.62934 0.0
C182 C 0.20029 0.15927 0.54103 0.0
H183 H 0.18804 0.13926 0.54384 0.0
H184 H 0.22202 0.15628 0.56067 0.0
H185 H 0.20326 0.16433 0.49699 0.0
C186 C 0.20543 0.14563 0.81149 0.0
N187 N 0.19117 0.13436 0.76826 0.0
N188 N 0.19229 0.15206 0.72678 0.0
C189 C 0.20877 0.1744 0.74148 0.0
C190 C 0.21739 0.17125 0.79584 0.0
C191 C 0.20365 0.13444 0.86881 0.0
H192 H 0.18372 0.12141 0.87402 0.0
H193 H 0.22332 0.12148 0.87751 0.0
H194 H 0.20308 0.15191 0.89903 0.0
O195 O 0.12746 0.10984 0.75579 0.0
O196 O 0.12529 0.14303 0.69183 0.0
H197 H 0.19862 0.2135 0.70274 0.0
H198 H 0.23696 0.20881 0.71796 0.0
C199 C 0.21678 0.198 0.70382 0.0
H200 H 0.22053 0.18983 0.66185 0.0
H201 H 0.14186 0.20445 0.66389 0.0
O202 O 0.17518 0.0744 0.82254 0.0
C203 C 0.11283 0.12749 0.72757 0.0
Co204 Co 0.83594 0.10355 0.75124 0.0
Co205 Co 0.83979 0.14782 0.84733 0.0
C206 C 0.82287 0.08779 0.86798 0.0
O207 O 0.8236 0.08178 0.81709 0.0
O208 O 0.82904 0.11237 0.88517 0.0
C209 C 0.80567 0.07004 0.66889 0.0
O210 O 0.78151 0.07905 0.69238 0.0
C211 C 0.81657 0.18379 0.93608 0.0
C212 C 0.85207 0.21487 0.9466 0.0
C213 C 0.8246 0.20742 0.96582 0.0
N214 N 0.83817 0.17765 0.9004 0.0
N215 N 0.85943 0.19622 0.90726 0.0
C216 C 0.78929 0.1667 0.94283 0.0
H217 H 0.78692 0.15146 0.90862 0.0
H218 H 0.76976 0.18058 0.9446 0.0
H219 H 0.79048 0.15507 0.98222 0.0
C220 C 0.80153 0.15024 0.70083 0.0
N221 N 0.8151 0.13811 0.74395 0.0
N222 N 0.81514 0.15587 0.78552 0.0
C223 C 0.80059 0.17942 0.77065 0.0
C224 C 0.79152 0.17665 0.71644 0.0
C225 C 0.80233 0.13895 0.64346 0.0
H226 H 0.8218 0.12536 0.63748 0.0
H227 H 0.78219 0.12656 0.63561 0.0
H228 H 0.80306 0.15633 0.61314 0.0
O229 O 0.87831 0.11213 0.75596 0.0
O230 O 0.88127 0.14446 0.82165 0.0
H231 H 0.81689 0.21354 0.81924 0.0
H232 H 0.78131 0.22024 0.78888 0.0
C233 C 0.79555 0.20405 0.80776 0.0
H234 H 0.78453 0.19676 0.8455 0.0
H235 H 0.87887 0.19632 0.88472 0.0
O236 O 0.83044 0.07814 0.68681 0.0
C237 C 0.89335 0.1291 0.78509 0.0
Co238 Co 0.17048 0.91084 0.25782 0.0
Co239 Co 0.16537 0.8655 0.35138 0.0
C240 C 0.18319 0.92497 0.37542 0.0
O241 O 0.18282 0.93158 0.32484 0.0
O242 O 0.17651 0.90032 0.39134 0.0
C243 C 0.20141 0.94533 0.17825 0.0
O244 O 0.22539 0.93634 0.20238 0.0
C245 C 0.18663 0.82884 0.44062 0.0
C246 C 0.15271 0.79578 0.4421 0.0
C247 C 0.17888 0.80377 0.46666 0.0
N248 N 0.16615 0.8349 0.4026 0.0
N249 N 0.14578 0.81522 0.40419 0.0
C250 C 0.21404 0.84575 0.44769 0.0
H251 H 0.21764 0.8595 0.41156 0.0
H252 H 0.23327 0.83172 0.4532 0.0
H253 H 0.21183 0.85932 0.48451 0.0
C254 C 0.20494 0.86461 0.20593 0.0
N255 N 0.19092 0.87619 0.24914 0.0
N256 N 0.19027 0.85787 0.28966 0.0
C257 C 0.20481 0.83443 0.27399 0.0
C258 C 0.21458 0.83792 0.22038 0.0
C259 C 0.20506 0.8768 0.1493 0.0
H260 H 0.18562 0.89041 0.14307 0.0
H261 H 0.22525 0.88941 0.14347 0.0
H262 H 0.20491 0.85992 0.11781 0.0
O263 O 0.12799 0.90288 0.26133 0.0
O264 O 0.12406 0.86983 0.32525 0.0
H265 H 0.18758 0.7992 0.31795 0.0
H266 H 0.22415 0.79357 0.29108 0.0
C267 C 0.2091 0.80918 0.30972 0.0
H268 H 0.21871 0.81583 0.34925 0.0
H269 H 0.12745 0.81476 0.37861 0.0
O270 O 0.17653 0.93684 0.19485 0.0
C271 C 0.11247 0.88586 0.2893 0.0
C272 C 0.43584 0.39888 0.28144 0.0
C273 C 0.42319 0.38025 0.24353 0.0
C274 C 0.46605 0.39823 0.29251 0.0
C275 C 0.48407 0.37841 0.2652 0.0
C276 C 0.47133 0.35899 0.22818 0.0
C277 C 0.44109 0.36018 0.21771 0.0
C278 C 0.47883 0.41936 0.3321 0.0
C279 C 0.48979 0.33748 0.19836 0.0
C280 C 0.56378 0.39783 0.24288 0.0
C281 C 0.57811 0.38233 0.28395 0.0
C282 C 0.53329 0.39666 0.23648 0.0
C283 C 0.5165 0.37951 0.2719 0.0
C284 C 0.5307 0.36366 0.31333 0.0
C285 C 0.56137 0.36528 0.31893 0.0
C286 C 0.51902 0.41391 0.19179 0.0
C287 C 0.51349 0.34507 0.35173 0.0
H288 H 0.42225 0.41441 0.30179 0.0
H289 H 0.43155 0.34554 0.18865 0.0
H290 H 0.49207 0.40851 0.36386 0.0
H291 H 0.49374 0.4338 0.30979 0.0
H292 H 0.46164 0.4321 0.35278 0.0
H293 H 0.47628 0.32253 0.17414 0.0
H294 H 0.50513 0.3483 0.17008 0.0
H295 H 0.50325 0.32537 0.228 0.0
H296 H 0.5764 0.4111 0.21556 0.0
H297 H 0.57219 0.3532 0.35073 0.0
H298 H 0.50293 0.42873 0.21 0.0
H299 H 0.50682 0.39995 0.16334 0.0
H300 H 0.53521 0.42618 0.16765 0.0
H301 H 0.49733 0.35787 0.37489 0.0
H302 H 0.52781 0.33391 0.38148 0.0
H303 H 0.50097 0.32925 0.32787 0.0
C304 C 0.56727 0.61626 0.76975 0.0
C305 C 0.58041 0.63304 0.72927 0.0
C306 C 0.5369 0.61691 0.77865 0.0
C307 C 0.5191 0.63484 0.74647 0.0
C308 C 0.53217 0.65211 0.70599 0.0
C309 C 0.56266 0.65098 0.6978 0.0
C310 C 0.52381 0.59812 0.82215 0.0
C311 C 0.5139 0.67157 0.67101 0.0
C312 C 0.43866 0.61496 0.73514 0.0
C313 C 0.42567 0.6326 0.77448 0.0
C314 C 0.46893 0.61587 0.7249 0.0
C315 C 0.48672 0.63494 0.75455 0.0
C316 C 0.47374 0.65317 0.79358 0.0
C317 C 0.4434 0.65176 0.80315 0.0
C318 C 0.48195 0.59602 0.68307 0.0
C319 C 0.49198 0.67385 0.8259 0.0
H320 H 0.58069 0.60232 0.79437 0.0
H321 H 0.57256 0.66408 0.66654 0.0
H322 H 0.51149 0.61093 0.85244 0.0
H323 H 0.50801 0.58332 0.80311 0.0
H324 H 0.54073 0.58574 0.84431 0.0
H325 H 0.52748 0.6842 0.64235 0.0
H326 H 0.49789 0.65919 0.64672 0.0
H327 H 0.50116 0.68612 0.69748 0.0
H328 H 0.42522 0.60011 0.71265 0.0
H329 H 0.43362 0.66557 0.83346 0.0
H330 H 0.4977 0.58162 0.70342 0.0
H331 H 0.49432 0.60801 0.65169 0.0
H332 H 0.46498 0.58318 0.66204 0.0
H333 H 0.508 0.66234 0.85176 0.0
H334 H 0.47838 0.68746 0.85286 0.0
H335 H 0.5047 0.68743 0.79761 0.0
C336 C 0.06227 0.86678 0.30992 0.0
C337 C 0.08034 0.88482 0.27943 0.0
C338 C 0.03183 0.86595 0.30096 0.0
C339 C 0.01916 0.88356 0.26055 0.0
C340 C 0.03728 0.90163 0.22939 0.0
C341 C 0.06758 0.90205 0.23919 0.0
C342 C 0.01319 0.84641 0.33501 0.0
C343 C 0.02463 0.92072 0.1859 0.0
C344 C 0.94379 0.86678 0.20227 0.0
C345 C 0.92585 0.88572 0.23107 0.0
C346 C 0.97413 0.86552 0.21203 0.0
C347 C 0.98687 0.88365 0.2515 0.0
C348 C 0.96888 0.9026 0.28107 0.0
C349 C 0.93864 0.90341 0.27053 0.0
C350 C 0.9926 0.84502 0.17967 0.0
C351 C 0.98163 0.9223 0.32345 0.0
H352 H 0.07186 0.85335 0.34102 0.0
H353 H 0.08127 0.91603 0.21525 0.0
H354 H 0.99694 0.85875 0.35887 0.0
H355 H 1.00073 0.83199 0.30788 0.0
H356 H 0.02646 0.83365 0.36399 0.0
H357 H 0.04177 0.93315 0.16453 0.0
H358 H 0.01254 0.90813 0.15497 0.0
H359 H 0.0087 0.93549 0.20475 0.0
H360 H 0.93417 0.85295 0.17183 0.0
H361 H 0.92504 0.91809 0.29316 0.0
H362 H 0.00492 0.8311 0.20797 0.0
H363 H 0.00898 0.85665 0.15486 0.0
H364 H 0.97923 0.83176 0.15172 0.0
H365 H 0.99365 0.91015 0.35512 0.0
H366 H 0.96455 0.93521 0.34403 0.0
H367 H 0.99765 0.93663 0.30374 0.0
C368 C 0.06682 0.11203 0.77475 0.0
C369 C 0.08068 0.12968 0.73659 0.0
C370 C 0.03643 0.11324 0.78321 0.0
C371 C 0.01934 0.1326 0.75287 0.0
C372 C 0.03316 0.15078 0.71487 0.0
C373 C 0.06366 0.14909 0.70713 0.0
C374 C 0.02253 0.09344 0.82404 0.0
C375 C 0.01566 0.17174 0.68184 0.0
C376 C 0.93889 0.11418 0.73545 0.0
C377 C 0.92552 0.13081 0.77601 0.0
C378 C 0.96929 0.11501 0.72683 0.0
C379 C 0.98688 0.13291 0.75952 0.0
C380 C 0.97355 0.15008 0.79997 0.0
C381 C 0.94304 0.14883 0.80775 0.0
C382 C 0.98264 0.09635 0.68329 0.0
C383 C 0.99159 0.16944 0.83561 0.0
H384 H 0.07968 0.09698 0.79789 0.0
H385 H 0.07412 0.16289 0.6777 0.0
H386 H 0.00996 0.10553 0.85508 0.0
H387 H 0.00682 0.07938 0.80271 0.0
H388 H 0.039 0.08024 0.8456 0.0
H389 H 0.02981 0.18515 0.65561 0.0
H390 H 0.99981 0.16049 0.65519 0.0
H391 H 0.00277 0.1855 0.70963 0.0
H392 H 0.92563 0.10025 0.71049 0.0
H393 H 0.93297 0.16184 0.83907 0.0
H394 H 0.99797 0.08116 0.70256 0.0
H395 H 0.99554 0.10917 0.65396 0.0
H396 H 0.96583 0.08439 0.66001 0.0
H397 H 0.00712 0.15691 0.86072 0.0
H398 H 0.9778 0.18232 0.86356 0.0
H399 H 0.00486 0.18374 0.80966 0.0
C400 C 0.30332 0.54095 0.9004 0.0
C401 C 0.3217 0.56381 0.91218 0.0
C402 C 0.30082 0.51822 0.93701 0.0
C403 C 0.31796 0.51783 0.9855 0.0
C404 C 0.3364 0.54098 0.99766 0.0
C405 C 0.33765 0.56388 0.96134 0.0
C406 C 0.28011 0.49447 0.92347 0.0
C407 C 0.3557 0.54111 0.04801 0.0
C408 C 0.30148 0.47005 0.107 0.0
C409 C 0.32063 0.44748 0.09748 0.0
C410 C 0.29933 0.49245 0.06957 0.0
C411 C 0.3176 0.49283 0.02257 0.0
C412 C 0.33673 0.46989 0.0125 0.0
C413 C 0.33763 0.44728 0.04957 0.0
C414 C 0.2779 0.51596 0.08087 0.0
C415 C 0.35722 0.46978 0.96385 0.0
H416 H 0.29085 0.54089 0.86253 0.0
H417 H 0.35214 0.58135 0.97031 0.0
H418 H 0.29273 0.47495 0.91554 0.0
H419 H 0.26543 0.49027 0.95882 0.0
H420 H 0.26645 0.4991 0.88683 0.0
H421 H 0.36889 0.56066 0.05146 0.0
H422 H 0.34216 0.53895 0.08553 0.0
H423 H 0.37087 0.52286 0.04672 0.0
H424 H 0.28819 0.47021 0.14388 0.0
H425 H 0.3527 0.43003 0.04237 0.0
H426 H 0.26428 0.52006 0.044 0.0
H427 H 0.29 0.53559 0.09028 0.0
H428 H 0.26319 0.51113 0.11594 0.0
H429 H 0.34463 0.47206 0.9252 0.0
H430 H 0.37048 0.45021 0.96142 0.0
H431 H 0.37234 0.488 0.9666 0.0
C432 C 0.70494 0.45172 0.44543 0.0
C433 C 0.68603 0.45358 0.40028 0.0
C434 C 0.70787 0.47435 0.48233 0.0
C435 C 0.69044 0.49879 0.47525 0.0
C436 C 0.67147 0.50073 0.42939 0.0
C437 C 0.66998 0.47835 0.39192 0.0
C438 C 0.72919 0.47189 0.52943 0.0
C439 C 0.65159 0.52581 0.42135 0.0
C440 C 0.66968 0.54075 0.6022 0.0
C441 C 0.68553 0.56568 0.59483 0.0
C442 C 0.67123 0.51883 0.56376 0.0
C443 C 0.69008 0.52137 0.51787 0.0
C444 C 0.70711 0.54609 0.51142 0.0
C445 C 0.7041 0.56828 0.54935 0.0
C446 C 0.65178 0.49342 0.57121 0.0
C447 C 0.72833 0.54916 0.46433 0.0
H448 H 0.71747 0.43261 0.45177 0.0
H449 H 0.65507 0.47968 0.35736 0.0
H450 H 0.7429 0.49111 0.53224 0.0
H451 H 0.71701 0.46997 0.5686 0.0
H452 H 0.74379 0.45331 0.5251 0.0
H453 H 0.63841 0.52423 0.38315 0.0
H454 H 0.63638 0.52765 0.45672 0.0
H455 H 0.66463 0.54545 0.41978 0.0
H456 H 0.65507 0.53885 0.63709 0.0
H457 H 0.7165 0.58752 0.54386 0.0
H458 H 0.66526 0.47406 0.57379 0.0
H459 H 0.6371 0.49111 0.53516 0.0
H460 H 0.63805 0.49489 0.60875 0.0
H461 H 0.74285 0.53045 0.46199 0.0
H462 H 0.74213 0.56828 0.46834 0.0
H463 H 0.71613 0.55037 0.42506 0.0
C464 C 0.6868 0.51072 0.86651 0.0
C465 C 0.68408 0.5401 0.86745 0.0
C466 C 0.6898 0.49536 0.91529 0.0
C467 C 0.68999 0.50972 0.96619 0.0
C468 C 0.68786 0.5394 0.96738 0.0
C469 C 0.68499 0.55424 0.91798 0.0
C470 C 0.69213 0.46371 0.91245 0.0
C471 C 0.68786 0.55542 0.0209 0.0
C472 C 0.66507 0.46901 0.09131 0.0
C473 C 0.69179 0.46262 0.11691 0.0
C474 C 0.66422 0.48451 0.04251 0.0
C475 C 0.69077 0.49358 0.01832 0.0
C476 C 0.71785 0.48717 0.04383 0.0
C477 C 0.71803 0.47189 0.09311 0.0
C478 C 0.63488 0.4912 0.01684 0.0
C479 C 0.74658 0.49628 0.01885 0.0
H480 H 0.68624 0.49964 0.82765 0.0
H481 H 0.68302 0.57695 0.9191 0.0
H482 H 0.71187 0.45644 0.93493 0.0
H483 H 0.67281 0.45405 0.93262 0.0
H484 H 0.69333 0.45588 0.86955 0.0
H485 H 0.6874 0.57855 0.01463 0.0
H486 H 0.66844 0.54936 0.04558 0.0
H487 H 0.7076 0.54998 0.04528 0.0
H488 H 0.64468 0.46204 0.10963 0.0
H489 H 0.73875 0.46688 0.11257 0.0
H490 H 0.63371 0.48205 0.97502 0.0
H491 H 0.63227 0.51429 0.01264 0.0
H492 H 0.61625 0.48294 0.04133 0.0
H493 H 0.74882 0.48729 0.97704 0.0
H494 H 0.76574 0.48959 0.04377 0.0
H495 H 0.74707 0.5195 0.01463 0.0
C496 C 0.32813 0.46261 0.42206 0.0
C497 C 0.30829 0.46889 0.3798 0.0
C498 C 0.32775 0.47757 0.47165 0.0
C499 C 0.30685 0.49921 0.47946 0.0
C500 C 0.28645 0.50541 0.43736 0.0
C501 C 0.28749 0.49023 0.3879 0.0
C502 C 0.35001 0.47047 0.51539 0.0
C503 C 0.26373 0.52822 0.44442 0.0
C504 C 0.29233 0.52169 0.62667 0.0
C505 C 0.31003 0.54569 0.63125 0.0
C506 C 0.29061 0.50664 0.57716 0.0
C507 C 0.30698 0.51582 0.53121 0.0
C508 C 0.32449 0.54028 0.53531 0.0
C509 C 0.32578 0.55492 0.58523 0.0
C510 C 0.27167 0.48066 0.57427 0.0
C511 C 0.34231 0.55071 0.48724 0.0
H512 H 0.34432 0.44618 0.4162 0.0
H513 H 0.27199 0.49513 0.35557 0.0
H514 H 0.36389 0.4891 0.52405 0.0
H515 H 0.33871 0.46484 0.55415 0.0
H516 H 0.36448 0.45272 0.50324 0.0
H517 H 0.24884 0.52985 0.40848 0.0
H518 H 0.25037 0.5241 0.48158 0.0
H519 H 0.27469 0.5488 0.45049 0.0
H520 H 0.28004 0.51444 0.66196 0.0
H521 H 0.33941 0.57352 0.58826 0.0
H522 H 0.28554 0.46196 0.56596 0.0
H523 H 0.25583 0.48248 0.53992 0.0
H524 H 0.25931 0.47703 0.61287 0.0
H525 H 0.3587 0.53457 0.47533 0.0
H526 H 0.35402 0.57061 0.49661 0.0
H527 H 0.32788 0.55421 0.45125 0.0
C528 C 0.79908 0.04256 0.89617 0.0
C529 C 0.81782 0.06507 0.90827 0.0
C530 C 0.79612 0.01983 0.93265 0.0
C531 C 0.81324 0.01911 0.98114 0.0
C532 C 0.83194 0.042 0.99372 0.0
C533 C 0.83357 0.06492 0.95763 0.0
C534 C 0.7751 0.99638 0.91882 0.0
C535 C 0.85128 0.04173 0.04403 0.0
C536 C 0.79841 0.97082 0.10234 0.0
C537 C 0.81785 0.9486 0.09185 0.0
C538 C 0.79537 0.99316 0.06501 0.0
C539 C 0.81308 0.99383 0.01728 0.0
C540 C 0.83234 0.97114 0.00611 0.0
C541 C 0.83408 0.94856 0.04304 0.0
C542 C 0.77378 0.01638 0.07738 0.0
C543 C 0.8523 0.97139 0.95667 0.0
H544 H 0.78676 0.04272 0.85812 0.0
H545 H 0.84833 0.08215 0.9668 0.0
H546 H 0.78752 0.97692 0.9093 0.0
H547 H 0.76082 0.99176 0.95455 0.0
H548 H 0.76105 1.00159 0.88302 0.0
H549 H 0.86452 0.06122 0.04799 0.0
H550 H 0.83778 0.03932 0.08154 0.0
H551 H 0.86641 0.02346 0.04217 0.0
H552 H 0.78572 0.97079 0.13994 0.0
H553 H 0.84936 0.93156 0.03512 0.0
H554 H 0.76016 0.02092 0.0407 0.0
H555 H 0.78576 0.03593 0.08789 0.0
H556 H 0.75909 0.01098 0.11215 0.0
H557 H 0.83932 0.97397 0.91856 0.0
H558 H 0.86551 0.95183 0.95319 0.0
H559 H 0.86748 0.98957 0.95941 0.0
C560 C 0.17188 0.06366 0.55147 0.0
C561 C 0.1876 0.0636 0.60085 0.0
C562 C 0.17368 0.04092 0.51486 0.0
C563 C 0.19253 0.01805 0.52696 0.0
C564 C 0.20969 0.01864 0.5754 0.0
C565 C 0.20655 0.04116 0.61239 0.0
C566 C 0.15429 0.04076 0.46462 0.0
C567 C 0.23088 0.99523 0.58872 0.0
C568 C 0.1721 0.94729 0.46552 0.0
C569 C 0.18834 0.94721 0.41674 0.0
C570 C 0.17361 0.97004 0.50213 0.0
C571 C 0.19267 0.99279 0.49068 0.0
C572 C 0.21035 0.99206 0.44292 0.0
C573 C 0.20752 0.96953 0.40588 0.0
C574 C 0.15368 0.97035 0.55162 0.0
C575 C 0.23176 0.01536 0.43033 0.0
H576 H 0.157 0.08088 0.54274 0.0
H577 H 0.21886 0.04119 0.65044 0.0
H578 H 0.16773 0.03827 0.42704 0.0
H579 H 0.1391 0.02257 0.46648 0.0
H580 H 0.14112 0.06032 0.46081 0.0
H581 H 0.24506 1.00045 0.62435 0.0
H582 H 0.21859 0.97574 0.59832 0.0
H583 H 0.24502 0.99066 0.55275 0.0
H584 H 0.157 0.9302 0.4737 0.0
H585 H 0.22021 0.96942 0.36827 0.0
H586 H 0.13858 0.98862 0.54912 0.0
H587 H 0.16671 0.97279 0.58971 0.0
H588 H 0.14039 0.95087 0.55498 0.0
H589 H 0.21963 0.03488 0.42009 0.0
H590 H 0.24634 0.01001 0.39533 0.0
H591 H 0.24549 0.01994 0.46684 0.0
C592 C 0.22289 0.05338 0.9288 0.0
C593 C 0.20215 0.04783 0.88786 0.0
C594 C 0.22381 0.03719 0.97696 0.0
C595 C 0.20427 0.01426 0.98312 0.0
C596 C 0.18392 0.00807 0.94088 0.0
C597 C 0.18269 0.02533 0.89425 0.0
C598 C 0.24504 0.04513 0.02187 0.0
C599 C 0.16342 0.98325 0.94495 0.0
C600 C 0.22335 0.95782 0.08786 0.0
C601 C 0.20317 0.96363 0.12964 0.0
C602 C 0.22385 0.974 0.03966 0.0
C603 C 0.2045 0.99718 0.03432 0.0
C604 C 0.18477 1.00363 0.07743 0.0
C605 C 0.18391 0.98638 0.12409 0.0
C606 C 0.24441 0.96579 0.99383 0.0
C607 C 0.16451 0.02871 0.07424 0.0
H608 H 0.23772 0.07102 0.92398 0.0
H609 H 0.16676 0.02101 0.86232 0.0
H610 H 0.23281 0.04984 0.06016 0.0
H611 H 0.25994 0.02729 0.03083 0.0
H612 H 0.25849 0.06376 0.01093 0.0
H613 H 0.15056 0.98005 0.90676 0.0
H614 H 0.17606 0.9638 0.95365 0.0
H615 H 0.14792 0.9864 0.97945 0.0
H616 H 0.238 0.93998 0.09206 0.0
H617 H 0.16841 0.99088 0.15668 0.0
H618 H 0.25938 0.98346 0.98416 0.0
H619 H 0.23164 0.9612 0.95612 0.0
H620 H 0.25781 0.94702 1.00423 0.0
H621 H 0.17725 0.04799 0.06493 0.0
H622 H 0.15218 0.03208 0.113 0.0
H623 H 0.14852 0.02574 0.04046 0.0
C624 C 0.78602 0.05959 0.57571 0.0
C625 C 0.8042 0.05214 0.61961 0.0
C626 C 0.78571 0.04358 0.5272 0.0
C627 C 0.80307 0.01891 0.52364 0.0
C628 C 0.82077 0.01088 0.56879 0.0
C629 C 0.82163 0.02798 0.61579 0.0
C630 C 0.76746 0.05349 0.47929 0.0
C631 C 0.83876 0.98422 0.56751 0.0
C632 C 0.78241 0.96479 0.41509 0.0
C633 C 0.8047 0.96861 0.37635 0.0
C634 C 0.7818 0.98077 0.46363 0.0
C635 C 0.80328 1.00183 0.47232 0.0
C636 C 0.82532 0.00625 0.43229 0.0
C637 C 0.82614 0.98913 0.38533 0.0
C638 C 0.75865 0.97462 0.50621 0.0
C639 C 0.84798 0.02913 0.43894 0.0
H640 H 0.7728 0.07849 0.57864 0.0
H641 H 0.83557 0.02222 0.65003 0.0
H642 H 0.78173 0.05673 0.44296 0.0
H643 H 0.75109 0.03726 0.46807 0.0
H644 H 0.75573 0.07345 0.48828 0.0
H645 H 0.84956 0.97989 0.60748 0.0
H646 H 0.82462 0.96606 0.55672 0.0
H647 H 0.85594 0.98578 0.53548 0.0
H648 H 0.76605 0.94864 0.40823 0.0
H649 H 0.84328 0.99209 0.35506 0.0
H650 H 0.74505 0.99359 0.51359 0.0
H651 H 0.76926 0.9691 0.54574 0.0
H652 H 0.74401 0.95708 0.49379 0.0
H653 H 0.83702 0.04962 0.44643 0.0
H654 H 0.8623 0.03113 0.40229 0.0
H655 H 0.86199 0.02466 0.47508 0.0
C656 C 0.28182 0.27506 0.02433 0.0
C657 C 0.30868 0.28665 0.00821 0.0
C658 C 0.26635 0.25684 0.9894 0.0
C659 C 0.27792 0.25037 0.93694 0.0
C660 C 0.30477 0.26253 0.92011 0.0
C661 C 0.32001 0.28026 0.95627 0.0
C662 C 0.23809 0.24386 0.00927 0.0
C663 C 0.31757 0.25654 0.86419 0.0
C664 C 0.25503 0.18233 0.86724 0.0
C665 C 0.23323 0.19167 0.83111 0.0
C666 C 0.26954 0.20117 0.90228 0.0
C667 C 0.26245 0.23016 0.90036 0.0
C668 C 0.24066 0.23976 0.86349 0.0
C669 C 0.22607 0.22034 0.82975 0.0
C670 C 0.29238 0.19003 0.94152 0.0
C671 C 0.23272 0.27052 0.85978 0.0
H672 H 0.27344 0.27932 0.06507 0.0
H673 H 0.34084 0.2892 0.9439 0.0
H674 H 0.22008 0.24849 0.98006 0.0
H675 H 0.24048 0.22066 0.01112 0.0
H676 H 0.23166 0.25165 0.05054 0.0
H677 H 0.33782 0.26886 0.85628 0.0
H678 H 0.32289 0.23385 0.86053 0.0
H679 H 0.30128 0.26152 0.83181 0.0
H680 H 0.26081 0.16023 0.86802 0.0
H681 H 0.20876 0.22758 0.8028 0.0
H682 H 0.2865 0.19582 0.98424 0.0
H683 H 0.31395 0.19973 0.93255 0.0
H684 H 0.2947 0.16681 0.93903 0.0
H685 H 0.2241 0.27797 0.8998 0.0
H686 H 0.21598 0.27468 0.82768 0.0
H687 H 0.25255 0.28313 0.85048 0.0
C688 C 0.71726 0.71644 0.46535 0.0
C689 C 0.69753 0.72849 0.50274 0.0
C690 C 0.73339 0.73328 0.42888 0.0
C691 C 0.72941 0.76282 0.42944 0.0
C692 C 0.70925 0.77504 0.46662 0.0
C693 C 0.69353 0.75773 0.50266 0.0
C694 C 0.75458 0.71949 0.3896 0.0
C695 C 0.70435 0.80644 0.46848 0.0
C696 C 0.78819 0.81152 0.37363 0.0
C697 C 0.77625 0.8192 0.32292 0.0
C698 C 0.7735 0.79264 0.40823 0.0
C699 C 0.74632 0.78112 0.3914 0.0
C700 C 0.73466 0.7882 0.33932 0.0
C701 C 0.74986 0.80714 0.30557 0.0
C702 C 0.78675 0.7855 0.46324 0.0
C703 C 0.70578 0.77635 0.31987 0.0
H704 H 0.71974 0.69383 0.46371 0.0
H705 H 0.67826 0.76719 0.53134 0.0
H706 H 0.74814 0.72422 0.3467 0.0
H707 H 0.77692 0.72813 0.39579 0.0
H708 H 0.75545 0.6963 0.39486 0.0
H709 H 0.68775 0.8126 0.49961 0.0
H710 H 0.72524 0.81732 0.4781 0.0
H711 H 0.69697 0.81405 0.42774 0.0
H712 H 0.80896 0.82049 0.38634 0.0
H713 H 0.74086 0.81301 0.26603 0.0
H714 H 0.78898 0.76237 0.46751 0.0
H715 H 0.77204 0.79283 0.49657 0.0
H716 H 0.80864 0.79527 0.46911 0.0
H717 H 0.70619 0.75305 0.32186 0.0
H718 H 0.70052 0.78279 0.2772 0.0
H719 H 0.68789 0.78364 0.34727 0.0
C720 C 0.22047 0.78949 0.18088 0.0
C721 C 0.23002 0.81743 0.18467 0.0
C722 C 0.23514 0.77002 0.14728 0.0
C723 C 0.25935 0.77898 0.11543 0.0
C724 C 0.26864 0.80735 0.11819 0.0
C725 C 0.25403 0.82615 0.15322 0.0
C726 C 0.22481 0.73988 0.14598 0.0
C727 C 0.29397 0.81789 0.08409 0.0
C728 C 0.31621 0.72706 0.06305 0.0
C729 C 0.30706 0.72301 0.00882 0.0
C730 C 0.30026 0.74445 0.09883 0.0
C731 C 0.27509 0.75874 0.07925 0.0
C732 C 0.26575 0.75461 0.0244 0.0
C733 C 0.28177 0.7366 0.98991 0.0
C734 C 0.3106 0.74789 0.15729 0.0
C735 C 0.23947 0.76998 1.00158 0.0
H736 H 0.2014 0.78288 0.204 0.0
H737 H 0.26147 0.84774 0.15614 0.0
H738 H 0.21779 0.73418 0.10386 0.0
H739 H 0.24312 0.72562 0.1572 0.0
H740 H 0.20624 0.73612 0.17451 0.0
H741 H 0.29771 0.84081 0.08942 0.0
H742 H 0.31433 0.80656 0.09555 0.0
H743 H 0.28983 0.81358 0.04001 0.0
H744 H 0.33588 0.71659 0.07744 0.0
H745 H 0.27522 0.7341 0.94745 0.0
H746 H 0.29241 0.74333 0.18615 0.0
H747 H 0.31746 0.76996 0.16447 0.0
H748 H 0.32935 0.73383 0.16709 0.0
H749 H 0.21988 0.76589 0.02728 0.0
H750 H 0.23449 0.7637 0.95867 0.0
H751 H 0.24354 0.79298 1.00259 0.0
C752 C 0.72715 0.28131 0.48941 0.0
C753 C 0.70132 0.29416 0.50765 0.0
C754 C 0.74291 0.26303 0.5237 0.0
C755 C 0.73274 0.25794 0.5777 0.0
C756 C 0.7071 0.27166 0.59675 0.0
C757 C 0.6914 0.28928 0.56109 0.0
C758 C 0.7697 0.24828 0.50136 0.0
C759 C 0.69591 0.26725 0.65438 0.0
C760 C 0.75303 0.18939 0.64802 0.0
C761 C 0.77656 0.19765 0.68122 0.0
C762 C 0.73886 0.20872 0.61357 0.0
C763 C 0.74804 0.23716 0.61327 0.0
C764 C 0.77176 0.24565 0.64688 0.0
C765 C 0.78608 0.22565 0.67972 0.0
C766 C 0.7141 0.19868 0.57741 0.0
C767 C 0.78192 0.27584 0.64831 0.0
H768 H 0.73432 0.28461 0.4475 0.0
H769 H 0.67124 0.29914 0.57479 0.0
H770 H 0.78882 0.25202 0.5285 0.0
H771 H 0.76582 0.22525 0.50044 0.0
H772 H 0.77534 0.25537 0.45926 0.0
H773 H 0.67708 0.2812 0.66419 0.0
H774 H 0.68887 0.2451 0.6596 0.0
H775 H 0.71369 0.27122 0.68449 0.0
H776 H 0.74564 0.16774 0.64911 0.0
H777 H 0.80484 0.23192 0.70411 0.0
H778 H 0.71885 0.20382 0.53391 0.0
H779 H 0.6935 0.20967 0.58865 0.0
H780 H 0.71046 0.17565 0.58084 0.0
H781 H 0.78959 0.28232 0.60706 0.0
H782 H 0.79999 0.27919 0.67815 0.0
H783 H 0.76335 0.28981 0.65946 0.0
C784 C 0.7575 0.71127 0.80147 0.0
C785 C 0.73238 0.69721 0.81969 0.0
C786 C 0.7726 0.72995 0.83615 0.0
C787 C 0.76209 0.73484 0.89007 0.0
C788 C 0.73624 0.72118 0.90801 0.0
C789 C 0.72175 0.70247 0.87262 0.0
C790 C 0.80019 0.74391 0.81558 0.0
C791 C 0.72411 0.72601 0.96487 0.0
C792 C 0.81561 0.75865 1.00028 0.0
C793 C 0.80982 0.7876 1.00378 0.0
C794 C 0.80043 0.74137 0.96321 0.0
C795 C 0.77879 0.75322 0.92862 0.0
C796 C 0.77297 0.78245 0.93147 0.0
C797 C 0.78875 0.79932 0.9686 0.0
C798 C 0.80749 0.71034 0.96125 0.0
C799 C 0.75006 0.79589 0.89528 0.0
H800 H 0.76566 0.70715 0.76046 0.0
H801 H 0.70204 0.69188 0.88635 0.0
H802 H 0.79839 0.76706 0.81985 0.0
H803 H 0.81915 0.73707 0.8408 0.0
H804 H 0.80479 0.73877 0.77195 0.0
H805 H 0.70309 0.71476 0.97162 0.0
H806 H 0.74017 0.71874 0.99598 0.0
H807 H 0.7205 0.74881 0.97189 0.0
H808 H 0.83193 0.74935 0.02702 0.0
H809 H 0.78487 0.82174 0.96912 0.0
H810 H 0.81411 0.70423 0.91909 0.0
H811 H 0.78771 0.69793 0.97179 0.0
H812 H 0.82538 0.70451 0.99 0.0
H813 H 0.75579 0.79265 0.8515 0.0
H814 H 0.74781 0.81881 0.90303 0.0
H815 H 0.72848 0.78574 0.90222 0.0
C816 C 0.18196 0.25046 0.48868 0.0
C817 C 0.1955 0.22625 0.50978 0.0
C818 C 0.19628 0.26777 0.45052 0.0
C819 C 0.2247 0.26047 0.43198 0.0
C820 C 0.23821 0.23569 0.4519 0.0
C821 C 0.22378 0.21928 0.4915 0.0
C822 C 0.18143 0.29445 0.43163 0.0
C823 C 0.26831 0.22689 0.43257 0.0
C824 C 0.2522 0.29709 0.30285 0.0
C825 C 0.27078 0.31769 0.32485 0.0
C826 C 0.2376 0.27784 0.33704 0.0
C827 C 0.24101 0.27978 0.39469 0.0
C828 C 0.25976 0.30055 0.41705 0.0
C829 C 0.27485 0.31881 0.38182 0.0
C830 C 0.2185 0.25547 0.31152 0.0
C831 C 0.26364 0.30375 0.47828 0.0
H832 H 0.16028 0.25626 0.50296 0.0
H833 H 0.23528 0.20166 0.50938 0.0
H834 H 0.19471 0.31292 0.44417 0.0
H835 H 0.17989 0.2948 0.38624 0.0
H836 H 0.15903 0.29681 0.44895 0.0
H837 H 0.27415 0.20538 0.44654 0.0
H838 H 0.26949 0.22754 0.38712 0.0
H839 H 0.28496 0.24176 0.44856 0.0
H840 H 0.2489 0.29613 0.25887 0.0
H841 H 0.28993 0.33402 0.39908 0.0
H842 H 0.1954 0.25853 0.32438 0.0
H843 H 0.22541 0.23438 0.32612 0.0
H844 H 0.21948 0.25576 0.26599 0.0
H845 H 0.24201 0.30698 0.49816 0.0
H846 H 0.2781 0.32171 0.48908 0.0
H847 H 0.27322 0.28428 0.49575 0.0
C848 C 0.78069 0.23635 0.9885 0.0
C849 C 0.80695 0.22378 0.00531 0.0
C850 C 0.76506 0.25428 0.02383 0.0
C851 C 0.77574 0.25929 0.07757 0.0
C852 C 0.80191 0.24595 0.09512 0.0
C853 C 0.81747 0.2287 0.05838 0.0
C854 C 0.73771 0.26863 1.00298 0.0
C855 C 0.81367 0.25021 0.1524 0.0
C856 C 0.75367 0.32691 0.15032 0.0
C857 C 0.73031 0.3179 0.18321 0.0
C858 C 0.76848 0.30812 0.1155 0.0
C859 C 0.76021 0.27941 0.11455 0.0
C860 C 0.7369 0.27011 0.14833 0.0
C861 C 0.7219 0.28957 0.1815 0.0
C862 C 0.79273 0.31907 0.07923 0.0
C863 C 0.72774 0.23962 0.14927 0.0
H864 H 0.77298 0.233 0.94692 0.0
H865 H 0.83792 0.21905 0.07106 0.0
H866 H 0.71891 0.26394 0.03029 0.0
H867 H 0.7409 0.29176 1.00342 0.0
H868 H 0.732 0.26202 0.96059 0.0
H869 H 0.83305 0.23674 0.16091 0.0
H870 H 0.82007 0.27251 0.15817 0.0
H871 H 0.79639 0.24548 0.18307 0.0
H872 H 0.76025 0.3488 0.15158 0.0
H873 H 0.70334 0.28265 0.20573 0.0
H874 H 0.7877 0.31439 0.03562 0.0
H875 H 0.81364 0.30832 0.08925 0.0
H876 H 0.79594 0.34211 0.08375 0.0
H877 H 0.71952 0.23328 0.10827 0.0
H878 H 0.71031 0.23551 0.18005 0.0
H879 H 0.74691 0.22608 0.15874 0.0
C880 C 0.19066 0.75743 0.50972 0.0
C881 C 0.19523 0.78662 0.50779 0.0
C882 C 0.20574 0.74036 0.54726 0.0
C883 C 0.22624 0.75263 0.58365 0.0
C884 C 0.23073 0.78208 0.58262 0.0
C885 C 0.21484 0.79876 0.54534 0.0
C886 C 0.1999 0.7091 0.54758 0.0
C887 C 0.25254 0.79594 0.62057 0.0
C888 C 0.24801 0.70988 0.70933 0.0
C889 C 0.27353 0.69656 0.69084 0.0
C890 C 0.23256 0.72856 0.67522 0.0
C891 C 0.24332 0.73441 0.62187 0.0
C892 C 0.26974 0.72168 0.60394 0.0
C893 C 0.28441 0.70274 0.63854 0.0
C894 C 0.20427 0.74132 0.69559 0.0
C895 C 0.28225 0.72771 0.54784 0.0
H896 H 0.17543 0.74773 0.48131 0.0
H897 H 0.21765 0.8213 0.5464 0.0
H898 H 0.22018 0.69751 0.53655 0.0
H899 H 0.19345 0.70223 0.58936 0.0
H900 H 0.18231 0.70301 0.51837 0.0
H901 H 0.25382 0.81903 0.61416 0.0
H902 H 0.24646 0.7919 0.66389 0.0
H903 H 0.27464 0.78677 0.61401 0.0
H904 H 0.23973 0.70505 0.74993 0.0
H905 H 0.30442 0.69266 0.6247 0.0
H906 H 0.18582 0.73407 0.66952 0.0
H907 H 0.20512 0.76456 0.69239 0.0
H908 H 0.19954 0.73556 0.73884 0.0
H909 H 0.26696 0.72005 0.51574 0.0
H910 H 0.30391 0.71751 0.54149 0.0
H911 H 0.28473 0.75072 0.542 0.0
loop_
_geom_bond_atom_site_label_1
_geom_bond_atom_site_label_2
_geom_bond_distance
_geom_bond_site_symmetry_2
_ccdc_geom_bond_type
Co0 O3 1.970 . S
Co0 N17 1.989 . S
Co0 O25 1.967 . S
Co0 O32 1.920 . S
Co1 O4 1.966 . S
Co1 N10 2.022 . S
Co1 N18 1.993 . S
Co1 O26 1.941 . S
C2 O3 1.258 . S
C2 O4 1.263 . S
O3 Co0 1.970 . S
O3 C2 1.258 . S
O4 Co1 1.966 . S
O4 C2 1.263 . S
C5 O6 1.235 . S
C5 O32 1.289 . S
O6 C5 1.235 . S
C7 C9 1.400 . S
C7 N10 1.351 . S
C7 C12 1.501 . S
C8 C9 1.387 . S
C8 N11 1.341 . S
C9 C7 1.400 . S
C9 C8 1.387 . S
N10 Co1 2.022 . S
N10 C7 1.351 . S
N10 N11 1.365 . S
N11 C8 1.341 . S
N11 N10 1.365 . S
N11 H31 0.862 . S
C12 C7 1.501 . S
C12 H13 0.961 . S
C12 H14 0.961 . S
C12 H15 0.960 . S
H13 C12 0.961 . S
H14 C12 0.961 . S
H15 C12 0.960 . S
C16 N17 1.342 . S
C16 C20 1.401 . S
C16 C21 1.499 . S
N17 Co0 1.989 . S
N17 C16 1.342 . S
N17 N18 1.388 . S
N18 Co1 1.993 . S
N18 N17 1.388 . S
N18 C19 1.346 . S
C19 N18 1.346 . S
C19 C20 1.396 . S
C19 C29 1.510 . S
C20 C16 1.401 . S
C20 C19 1.396 . S
C21 C16 1.499 . S
C21 H22 0.959 . S
C21 H23 0.960 . S
C21 H24 0.961 . S
H22 C21 0.959 . S
H23 C21 0.960 . S
H24 C21 0.961 . S
O25 Co0 1.967 . S
O25 C33 1.258 . S
O26 Co1 1.941 . S
O26 C33 1.266 . S
H27 C29 0.959 . S
H28 C29 0.961 . S
C29 C19 1.510 . S
C29 H27 0.959 . S
C29 H28 0.961 . S
C29 H30 0.960 . S
H30 C29 0.960 . S
H31 N11 0.862 . S
O32 Co0 1.920 . S
O32 C5 1.289 . S
C33 O25 1.258 . S
C33 O26 1.266 . S
Co34 O37 1.970 . S
Co34 N51 1.989 . S
Co34 O59 1.967 . S
Co34 O66 1.920 . S
Co35 O38 1.966 . S
Co35 N44 2.022 . S
Co35 N52 1.993 . S
Co35 O60 1.941 . S
C36 O37 1.258 . S
C36 O38 1.263 . S
O37 Co34 1.970 . S
O37 C36 1.258 . S
O38 Co35 1.966 . S
O38 C36 1.263 . S
C39 O40 1.235 . S
C39 O66 1.289 . S
O40 C39 1.235 . S
C41 C43 1.400 . S
C41 N44 1.351 . S
C41 C46 1.501 . S
C42 C43 1.387 . S
C42 N45 1.341 . S
C43 C41 1.400 . S
C43 C42 1.387 . S
N44 Co35 2.022 . S
N44 C41 1.351 . S
N44 N45 1.365 . S
N45 C42 1.341 . S
N45 N44 1.365 . S
N45 H65 0.862 . S
C46 C41 1.501 . S
C46 H47 0.961 . S
C46 H48 0.961 . S
C46 H49 0.960 . S
H47 C46 0.961 . S
H48 C46 0.961 . S
H49 C46 0.960 . S
C50 N51 1.342 . S
C50 C54 1.401 . S
C50 C55 1.499 . S
N51 Co34 1.989 . S
N51 C50 1.342 . S
N51 N52 1.388 . S
N52 Co35 1.993 . S
N52 N51 1.388 . S
N52 C53 1.346 . S
C53 N52 1.346 . S
C53 C54 1.396 . S
C53 C63 1.510 . S
C54 C50 1.401 . S
C54 C53 1.396 . S
C55 C50 1.499 . S
C55 H56 0.959 . S
C55 H57 0.960 . S
C55 H58 0.961 . S
H56 C55 0.959 . S
H57 C55 0.960 . S
H58 C55 0.961 . S
O59 Co34 1.967 . S
O59 C67 1.258 . S
O60 Co35 1.941 . S
O60 C67 1.266 . S
H61 C63 0.959 . S
H62 C63 0.961 . S
C63 C53 1.510 . S
C63 H61 0.959 . S
C63 H62 0.961 . S
C63 H64 0.960 . S
H64 C63 0.960 . S
H65 N45 0.862 . S
O66 Co34 1.920 . S
O66 C39 1.289 . S
C67 O59 1.258 . S
C67 O60 1.266 . S
Co68 O71 1.970 . S
Co68 N85 1.989 . S
Co68 O93 1.967 . S
Co68 O100 1.920 . S
Co69 O72 1.966 . S
Co69 N78 2.022 . S
Co69 N86 1.993 . S
Co69 O94 1.941 . S
C70 O71 1.258 . S
C70 O72 1.263 . S
O71 Co68 1.970 . S
O71 C70 1.258 . S
O72 Co69 1.966 . S
O72 C70 1.263 . S
C73 O74 1.235 . S
C73 O100 1.289 . S
O74 C73 1.235 . S
C75 C77 1.400 . S
C75 N78 1.351 . S
C75 C80 1.501 . S
C76 C77 1.387 . S
C76 N79 1.341 . S
C77 C75 1.400 . S
C77 C76 1.387 . S
N78 Co69 2.022 . S
N78 C75 1.351 . S
N78 N79 1.365 . S
N79 C76 1.341 . S
N79 N78 1.365 . S
N79 H99 0.862 . S
C80 C75 1.501 . S
C80 H81 0.961 . S
C80 H82 0.961 . S
C80 H83 0.960 . S
H81 C80 0.961 . S
H82 C80 0.961 . S
H83 C80 0.960 . S
C84 N85 1.342 . S
C84 C88 1.401 . S
C84 C89 1.499 . S
N85 Co68 1.989 . S
N85 C84 1.342 . S
N85 N86 1.388 . S
N86 Co69 1.993 . S
N86 N85 1.388 . S
N86 C87 1.346 . S
C87 N86 1.346 . S
C87 C88 1.396 . S
C87 C97 1.510 . S
C88 C84 1.401 . S
C88 C87 1.396 . S
C89 C84 1.499 . S
C89 H90 0.959 . S
C89 H91 0.960 . S
C89 H92 0.961 . S
H90 C89 0.959 . S
H91 C89 0.960 . S
H92 C89 0.961 . S
O93 Co68 1.967 . S
O93 C101 1.258 . S
O94 Co69 1.941 . S
O94 C101 1.266 . S
H95 C97 0.959 . S
H96 C97 0.961 . S
C97 C87 1.510 . S
C97 H95 0.959 . S
C97 H96 0.961 . S
C97 H98 0.960 . S
H98 C97 0.960 . S
H99 N79 0.862 . S
O100 Co68 1.920 . S
O100 C73 1.289 . S
C101 O93 1.258 . S
C101 O94 1.266 . S
Co102 O105 1.970 . S
Co102 N119 1.989 . S
Co102 O127 1.967 . S
Co102 O134 1.920 . S
Co103 O106 1.966 . S
Co103 N112 2.022 . S
Co103 N120 1.993 . S
Co103 O128 1.941 . S
C104 O105 1.258 . S
C104 O106 1.263 . S
O105 Co102 1.970 . S
O105 C104 1.258 . S
O106 Co103 1.966 . S
O106 C104 1.263 . S
C107 O108 1.235 . S
C107 O134 1.289 . S
O108 C107 1.235 . S
C109 C111 1.400 . S
C109 N112 1.351 . S
C109 C114 1.501 . S
C110 C111 1.387 . S
C110 N113 1.341 . S
C111 C109 1.400 . S
C111 C110 1.387 . S
N112 Co103 2.022 . S
N112 C109 1.351 . S
N112 N113 1.365 . S
N113 C110 1.341 . S
N113 N112 1.365 . S
N113 H133 0.862 . S
C114 C109 1.501 . S
C114 H115 0.961 . S
C114 H116 0.961 . S
C114 H117 0.960 . S
H115 C114 0.961 . S
H116 C114 0.961 . S
H117 C114 0.960 . S
C118 N119 1.342 . S
C118 C122 1.401 . S
C118 C123 1.499 . S
N119 Co102 1.989 . S
N119 C118 1.342 . S
N119 N120 1.388 . S
N120 Co103 1.993 . S
N120 N119 1.388 . S
N120 C121 1.346 . S
C121 N120 1.346 . S
C121 C122 1.396 . S
C121 C131 1.510 . S
C122 C118 1.401 . S
C122 C121 1.396 . S
C123 C118 1.499 . S
C123 H124 0.959 . S
C123 H125 0.960 . S
C123 H126 0.961 . S
H124 C123 0.959 . S
H125 C123 0.960 . S
H126 C123 0.961 . S
O127 Co102 1.967 . S
O127 C135 1.258 . S
O128 Co103 1.941 . S
O128 C135 1.266 . S
H129 C131 0.959 . S
H130 C131 0.961 . S
C131 C121 1.510 . S
C131 H129 0.959 . S
C131 H130 0.961 . S
C131 H132 0.960 . S
H132 C131 0.960 . S
H133 N113 0.862 . S
O134 Co102 1.920 . S
O134 C107 1.289 . S
C135 O127 1.258 . S
C135 O128 1.266 . S
Co136 O139 1.970 . S
Co136 N153 1.989 . S
Co136 O161 1.967 . S
Co136 O168 1.920 . S
Co137 O140 1.966 . S
Co137 N146 2.022 . S
Co137 N154 1.993 . S
Co137 O162 1.941 . S
C138 O139 1.258 . S
C138 O140 1.263 . S
O139 Co136 1.970 . S
O139 C138 1.258 . S
O140 Co137 1.966 . S
O140 C138 1.263 . S
C141 O142 1.235 . S
C141 O168 1.289 . S
O142 C141 1.235 . S
C143 C145 1.400 . S
C143 N146 1.351 . S
C143 C148 1.501 . S
C144 C145 1.387 . S
C144 N147 1.341 . S
C145 C143 1.400 . S
C145 C144 1.387 . S
N146 Co137 2.022 . S
N146 C143 1.351 . S
N146 N147 1.365 . S
N147 C144 1.341 . S
N147 N146 1.365 . S
N147 H167 0.862 . S
C148 C143 1.501 . S
C148 H149 0.961 . S
C148 H150 0.961 . S
C148 H151 0.960 . S
H149 C148 0.961 . S
H150 C148 0.961 . S
H151 C148 0.960 . S
C152 N153 1.342 . S
C152 C156 1.401 . S
C152 C157 1.499 . S
N153 Co136 1.989 . S
N153 C152 1.342 . S
N153 N154 1.388 . S
N154 Co137 1.993 . S
N154 N153 1.388 . S
N154 C155 1.346 . S
C155 N154 1.346 . S
C155 C156 1.396 . S
C155 C165 1.510 . S
C156 C152 1.401 . S
C156 C155 1.396 . S
C157 C152 1.499 . S
C157 H158 0.959 . S
C157 H159 0.960 . S
C157 H160 0.961 . S
H158 C157 0.959 . S
H159 C157 0.960 . S
H160 C157 0.961 . S
O161 Co136 1.967 . S
O161 C169 1.258 . S
O162 Co137 1.941 . S
O162 C169 1.266 . S
H163 C165 0.959 . S
H164 C165 0.961 . S
C165 C155 1.510 . S
C165 H163 0.959 . S
C165 H164 0.961 . S
C165 H166 0.960 . S
H166 C165 0.960 . S
H167 N147 0.862 . S
O168 Co136 1.920 . S
O168 C141 1.289 . S
C169 O161 1.258 . S
C169 O162 1.266 . S
Co170 O173 1.970 . S
Co170 N187 1.989 . S
Co170 O195 1.967 . S
Co170 O202 1.920 . S
Co171 O174 1.966 . S
Co171 N180 2.022 . S
Co171 N188 1.993 . S
Co171 O196 1.941 . S
C172 O173 1.258 . S
C172 O174 1.263 . S
O173 Co170 1.970 . S
O173 C172 1.258 . S
O174 Co171 1.966 . S
O174 C172 1.263 . S
C175 O176 1.235 . S
C175 O202 1.289 . S
O176 C175 1.235 . S
C177 C179 1.400 . S
C177 N180 1.351 . S
C177 C182 1.501 . S
C178 C179 1.387 . S
C178 N181 1.341 . S
C179 C177 1.400 . S
C179 C178 1.387 . S
N180 Co171 2.022 . S
N180 C177 1.351 . S
N180 N181 1.365 . S
N181 C178 1.341 . S
N181 N180 1.365 . S
N181 H201 0.862 . S
C182 C177 1.501 . S
C182 H183 0.961 . S
C182 H184 0.961 . S
C182 H185 0.960 . S
H183 C182 0.961 . S
H184 C182 0.961 . S
H185 C182 0.960 . S
C186 N187 1.342 . S
C186 C190 1.401 . S
C186 C191 1.499 . S
N187 Co170 1.989 . S
N187 C186 1.342 . S
N187 N188 1.388 . S
N188 Co171 1.993 . S
N188 N187 1.388 . S
N188 C189 1.346 . S
C189 N188 1.346 . S
C189 C190 1.396 . S
C189 C199 1.510 . S
C190 C186 1.401 . S
C190 C189 1.396 . S
C191 C186 1.499 . S
C191 H192 0.959 . S
C191 H193 0.960 . S
C191 H194 0.961 . S
H192 C191 0.959 . S
H193 C191 0.960 . S
H194 C191 0.961 . S
O195 Co170 1.967 . S
O195 C203 1.258 . S
O196 Co171 1.941 . S
O196 C203 1.266 . S
H197 C199 0.959 . S
H198 C199 0.961 . S
C199 C189 1.510 . S
C199 H197 0.959 . S
C199 H198 0.961 . S
C199 H200 0.960 . S
H200 C199 0.960 . S
H201 N181 0.862 . S
O202 Co170 1.920 . S
O202 C175 1.289 . S
C203 O195 1.258 . S
C203 O196 1.266 . S
Co204 O207 1.970 . S
Co204 N221 1.989 . S
Co204 O229 1.967 . S
Co204 O236 1.920 . S
Co205 O208 1.966 . S
Co205 N214 2.022 . S
Co205 N222 1.993 . S
Co205 O230 1.941 . S
C206 O207 1.258 . S
C206 O208 1.263 . S
O207 Co204 1.970 . S
O207 C206 1.258 . S
O208 Co205 1.966 . S
O208 C206 1.263 . S
C209 O210 1.235 . S
C209 O236 1.289 . S
O210 C209 1.235 . S
C211 C213 1.400 . S
C211 N214 1.351 . S
C211 C216 1.501 . S
C212 C213 1.387 . S
C212 N215 1.341 . S
C213 C211 1.400 . S
C213 C212 1.387 . S
N214 Co205 2.022 . S
N214 C211 1.351 . S
N214 N215 1.365 . S
N215 C212 1.341 . S
N215 N214 1.365 . S
N215 H235 0.862 . S
C216 C211 1.501 . S
C216 H217 0.961 . S
C216 H218 0.961 . S
C216 H219 0.960 . S
H217 C216 0.961 . S
H218 C216 0.961 . S
H219 C216 0.960 . S
C220 N221 1.342 . S
C220 C224 1.401 . S
C220 C225 1.499 . S
N221 Co204 1.989 . S
N221 C220 1.342 . S
N221 N222 1.388 . S
N222 Co205 1.993 . S
N222 N221 1.388 . S
N222 C223 1.346 . S
C223 N222 1.346 . S
C223 C224 1.396 . S
C223 C233 1.510 . S
C224 C220 1.401 . S
C224 C223 1.396 . S
C225 C220 1.499 . S
C225 H226 0.959 . S
C225 H227 0.960 . S
C225 H228 0.961 . S
H226 C225 0.959 . S
H227 C225 0.960 . S
H228 C225 0.961 . S
O229 Co204 1.967 . S
O229 C237 1.258 . S
O230 Co205 1.941 . S
O230 C237 1.266 . S
H231 C233 0.959 . S
H232 C233 0.961 . S
C233 C223 1.510 . S
C233 H231 0.959 . S
C233 H232 0.961 . S
C233 H234 0.960 . S
H234 C233 0.960 . S
H235 N215 0.862 . S
O236 Co204 1.920 . S
O236 C209 1.289 . S
C237 O229 1.258 . S
C237 O230 1.266 . S
Co238 O241 1.970 . S
Co238 N255 1.989 . S
Co238 O263 1.967 . S
Co238 O270 1.920 . S
Co239 O242 1.966 . S
Co239 N248 2.022 . S
Co239 N256 1.993 . S
Co239 O264 1.941 . S
C240 O241 1.258 . S
C240 O242 1.263 . S
O241 Co238 1.970 . S
O241 C240 1.258 . S
O242 Co239 1.966 . S
O242 C240 1.263 . S
C243 O244 1.235 . S
C243 O270 1.289 . S
O244 C243 1.235 . S
C245 C247 1.400 . S
C245 N248 1.351 . S
C245 C250 1.501 . S
C246 C247 1.387 . S
C246 N249 1.341 . S
C247 C245 1.400 . S
C247 C246 1.387 . S
N248 Co239 2.022 . S
N248 C245 1.351 . S
N248 N249 1.365 . S
N249 C246 1.341 . S
N249 N248 1.365 . S
N249 H269 0.862 . S
C250 C245 1.501 . S
C250 H251 0.961 . S
C250 H252 0.961 . S
C250 H253 0.960 . S
H251 C250 0.961 . S
H252 C250 0.961 . S
H253 C250 0.960 . S
C254 N255 1.342 . S
C254 C258 1.401 . S
C254 C259 1.499 . S
N255 Co238 1.989 . S
N255 C254 1.342 . S
N255 N256 1.388 . S
N256 Co239 1.993 . S
N256 N255 1.388 . S
N256 C257 1.346 . S
C257 N256 1.346 . S
C257 C258 1.396 . S
C257 C267 1.510 . S
C258 C254 1.401 . S
C258 C257 1.396 . S
C259 C254 1.499 . S
C259 H260 0.959 . S
C259 H261 0.960 . S
C259 H262 0.961 . S
H260 C259 0.959 . S
H261 C259 0.960 . S
H262 C259 0.961 . S
O263 Co238 1.967 . S
O263 C271 1.258 . S
O264 Co239 1.941 . S
O264 C271 1.266 . S
H265 C267 0.959 . S
H266 C267 0.961 . S
C267 C257 1.510 . S
C267 H265 0.959 . S
C267 H266 0.961 . S
C267 H268 0.960 . S
H268 C267 0.960 . S
H269 N249 0.862 . S
O270 Co238 1.920 . S
O270 C243 1.289 . S
C271 O263 1.258 . S
C271 O264 1.266 . S
C272 C273 1.391 . S
C272 C274 1.394 . S
C272 H288 0.931 . S
C273 C272 1.391 . S
C273 C277 1.376 . S
C274 C272 1.394 . S
C274 C275 1.369 . S
C274 C278 1.531 . S
C275 C274 1.369 . S
C275 C276 1.410 . S
C275 C283 1.503 . S
C276 C275 1.410 . S
C276 C277 1.392 . S
C276 C279 1.511 . S
C277 C273 1.376 . S
C277 C276 1.392 . S
C277 H289 0.929 . S
C278 C274 1.531 . S
C278 H290 0.960 . S
C278 H291 0.962 . S
C278 H292 0.960 . S
C279 C276 1.511 . S
C279 H293 0.961 . S
C279 H294 0.961 . S
C279 H295 0.961 . S
C280 C281 1.370 . S
C280 C282 1.363 . S
C280 H296 0.931 . S
C281 C280 1.370 . S
C281 C285 1.408 . S
C282 C280 1.363 . S
C282 C283 1.370 . S
C282 C286 1.524 . S
C283 C275 1.503 . S
C283 C282 1.370 . S
C283 C284 1.403 . S
C284 C283 1.403 . S
C284 C285 1.404 . S
C284 C287 1.539 . S
C285 C281 1.408 . S
C285 C284 1.404 . S
C285 H297 0.930 . S
C286 C282 1.524 . S
C286 H298 0.956 . S
C286 H299 0.961 . S
C286 H300 0.961 . S
C287 C284 1.539 . S
C287 H301 0.958 . S
C287 H302 0.961 . S
C287 H303 0.960 . S
H288 C272 0.931 . S
H289 C277 0.929 . S
H290 C278 0.960 . S
H291 C278 0.962 . S
H292 C278 0.960 . S
H293 C279 0.961 . S
H294 C279 0.961 . S
H295 C279 0.961 . S
H296 C280 0.931 . S
H297 C285 0.930 . S
H298 C286 0.956 . S
H299 C286 0.961 . S
H300 C286 0.961 . S
H301 C287 0.958 . S
H302 C287 0.961 . S
H303 C287 0.960 . S
C304 C305 1.391 . S
C304 C306 1.394 . S
C304 H320 0.931 . S
C305 C304 1.391 . S
C305 C309 1.376 . S
C306 C304 1.394 . S
C306 C307 1.369 . S
C306 C310 1.531 . S
C307 C306 1.369 . S
C307 C308 1.410 . S
C307 C315 1.503 . S
C308 C307 1.410 . S
C308 C309 1.392 . S
C308 C311 1.511 . S
C309 C305 1.376 . S
C309 C308 1.392 . S
C309 H321 0.929 . S
C310 C306 1.531 . S
C310 H322 0.960 . S
C310 H323 0.962 . S
C310 H324 0.960 . S
C311 C308 1.511 . S
C311 H325 0.961 . S
C311 H326 0.961 . S
C311 H327 0.961 . S
C312 C313 1.370 . S
C312 C314 1.363 . S
C312 H328 0.931 . S
C313 C312 1.370 . S
C313 C317 1.408 . S
C314 C312 1.363 . S
C314 C315 1.370 . S
C314 C318 1.524 . S
C315 C307 1.503 . S
C315 C314 1.370 . S
C315 C316 1.403 . S
C316 C315 1.403 . S
C316 C317 1.404 . S
C316 C319 1.539 . S
C317 C313 1.408 . S
C317 C316 1.404 . S
C317 H329 0.930 . S
C318 C314 1.524 . S
C318 H330 0.956 . S
C318 H331 0.961 . S
C318 H332 0.961 . S
C319 C316 1.539 . S
C319 H333 0.958 . S
C319 H334 0.961 . S
C319 H335 0.960 . S
H320 C304 0.931 . S
H321 C309 0.929 . S
H322 C310 0.960 . S
H323 C310 0.962 . S
H324 C310 0.960 . S
H325 C311 0.961 . S
H326 C311 0.961 . S
H327 C311 0.961 . S
H328 C312 0.931 . S
H329 C317 0.930 . S
H330 C318 0.956 . S
H331 C318 0.961 . S
H332 C318 0.961 . S
H333 C319 0.958 . S
H334 C319 0.961 . S
H335 C319 0.960 . S
C336 C337 1.391 . S
C336 C338 1.394 . S
C336 H352 0.931 . S
C337 C336 1.391 . S
C337 C341 1.376 . S
C338 C336 1.394 . S
C338 C339 1.369 . S
C338 C342 1.531 . S
C339 C338 1.369 . S
C339 C340 1.410 . S
C339 C347 1.503 1_455 S
C340 C339 1.410 . S
C340 C341 1.392 . S
C340 C343 1.511 . S
C341 C337 1.376 . S
C341 C340 1.392 . S
C341 H353 0.929 . S
C342 C338 1.531 . S
C342 H354 0.960 1_455 S
C342 H355 0.962 1_455 S
C342 H356 0.960 . S
C343 C340 1.511 . S
C343 H357 0.961 . S
C343 H358 0.961 . S
C343 H359 0.961 . S
C344 C345 1.370 . S
C344 C346 1.363 . S
C344 H360 0.931 . S
C345 C344 1.370 . S
C345 C349 1.408 . S
C346 C344 1.363 . S
C346 C347 1.370 . S
C346 C350 1.524 . S
C347 C339 1.503 1_655 S
C347 C346 1.370 . S
C347 C348 1.403 . S
C348 C347 1.403 . S
C348 C349 1.404 . S
C348 C351 1.539 . S
C349 C345 1.408 . S
C349 C348 1.404 . S
C349 H361 0.930 . S
C350 C346 1.524 . S
C350 H362 0.956 . S
C350 H363 0.961 1_655 S
C350 H364 0.961 . S
C351 C348 1.539 . S
C351 H365 0.958 . S
C351 H366 0.961 . S
C351 H367 0.974 . S
H352 C336 0.931 . S
H353 C341 0.929 . S
H354 C342 0.960 1_655 S
H355 C342 0.962 1_655 S
H356 C342 0.960 . S
H357 C343 0.961 . S
H358 C343 0.961 . S
H359 C343 0.961 . S
H360 C344 0.931 . S
H361 C349 0.930 . S
H362 C350 0.956 . S
H363 C350 0.961 1_455 S
H364 C350 0.961 . S
H365 C351 0.958 . S
H366 C351 0.961 . S
H367 C351 0.974 . S
C368 C369 1.391 . S
C368 C370 1.394 . S
C368 H384 0.931 . S
C369 C368 1.391 . S
C369 C373 1.376 . S
C370 C368 1.394 . S
C370 C371 1.369 . S
C370 C374 1.531 . S
C371 C370 1.369 . S
C371 C372 1.410 . S
C371 C379 1.503 1_455 S
C372 C371 1.410 . S
C372 C373 1.392 . S
C372 C375 1.511 . S
C373 C369 1.376 . S
C373 C372 1.392 . S
C373 H385 0.929 . S
C374 C370 1.531 . S
C374 H386 0.960 . S
C374 H387 0.962 . S
C374 H388 0.960 . S
C375 C372 1.511 . S
C375 H389 0.961 . S
C375 H390 0.961 1_455 S
C375 H391 0.961 . S
C376 C377 1.370 . S
C376 C378 1.363 . S
C376 H392 0.931 . S
C377 C376 1.370 . S
C377 C381 1.408 . S
C378 C376 1.363 . S
C378 C379 1.370 . S
C378 C382 1.524 . S
C379 C371 1.503 1_655 S
C379 C378 1.370 . S
C379 C380 1.403 . S
C380 C379 1.403 . S
C380 C381 1.404 . S
C380 C383 1.539 . S
C381 C377 1.408 . S
C381 C380 1.404 . S
C381 H393 0.930 . S
C382 C378 1.524 . S
C382 H394 0.956 . S
C382 H395 0.961 . S
C382 H396 0.961 . S
C383 C380 1.539 . S
C383 H397 0.958 . S
C383 H398 0.961 . S
C383 H399 0.960 1_655 S
H384 C368 0.931 . S
H385 C373 0.929 . S
H386 C374 0.960 . S
H387 C374 0.962 . S
H388 C374 0.960 . S
H389 C375 0.961 . S
H390 C375 0.961 1_655 S
H391 C375 0.961 . S
H392 C376 0.931 . S
H393 C381 0.930 . S
H394 C382 0.956 . S
H395 C382 0.961 . S
H396 C382 0.961 . S
H397 C383 0.958 . S
H398 C383 0.961 . S
H399 C383 0.960 1_455 S
C400 C401 1.391 . S
C400 C402 1.394 . S
C400 H416 0.931 . S
C401 C400 1.391 . S
C401 C405 1.376 . S
C402 C400 1.394 . S
C402 C403 1.369 . S
C402 C406 1.531 . S
C403 C402 1.369 . S
C403 C404 1.410 . S
C403 C411 1.503 1_556 S
C404 C403 1.410 . S
C404 C405 1.392 . S
C404 C407 1.511 1_556 S
C405 C401 1.376 . S
C405 C404 1.392 . S
C405 H417 0.929 . S
C406 C402 1.531 . S
C406 H418 0.960 . S
C406 H419 0.962 . S
C406 H420 0.960 . S
C407 C404 1.511 1_554 S
C407 H421 0.961 . S
C407 H422 0.961 . S
C407 H423 0.961 . S
C408 C409 1.370 . S
C408 C410 1.363 . S
C408 H424 0.931 . S
C409 C408 1.370 . S
C409 C413 1.408 . S
C410 C408 1.363 . S
C410 C411 1.370 . S
C410 C414 1.524 . S
C411 C403 1.503 1_554 S
C411 C410 1.370 . S
C411 C412 1.403 . S
C412 C411 1.403 . S
C412 C413 1.404 . S
C412 C415 1.539 1_554 S
C413 C409 1.408 . S
C413 C412 1.404 . S
C413 H425 0.930 . S
C414 C410 1.524 . S
C414 H426 0.956 . S
C414 H427 0.961 . S
C414 H428 0.961 . S
C415 C412 1.539 1_556 S
C415 H429 0.958 . S
C415 H430 0.961 . S
C415 H431 0.960 . S
H416 C400 0.931 . S
H417 C405 0.929 . S
H418 C406 0.960 . S
H419 C406 0.962 . S
H420 C406 0.960 . S
H421 C407 0.961 . S
H422 C407 0.961 . S
H423 C407 0.961 . S
H424 C408 0.931 . S
H425 C413 0.930 . S
H426 C414 0.956 . S
H427 C414 0.961 . S
H428 C414 0.961 . S
H429 C415 0.958 . S
H430 C415 0.961 . S
H431 C415 0.960 . S
C432 C433 1.391 . S
C432 C434 1.394 . S
C432 H448 0.931 . S
C433 C432 1.391 . S
C433 C437 1.376 . S
C434 C432 1.394 . S
C434 C435 1.369 . S
C434 C438 1.531 . S
C435 C434 1.369 . S
C435 C436 1.410 . S
C435 C443 1.503 . S
C436 C435 1.410 . S
C436 C437 1.392 . S
C436 C439 1.511 . S
C437 C433 1.376 . S
C437 C436 1.392 . S
C437 H449 0.929 . S
C438 C434 1.531 . S
C438 H450 0.960 . S
C438 H451 0.962 . S
C438 H452 0.960 . S
C439 C436 1.511 . S
C439 H453 0.961 . S
C439 H454 0.961 . S
C439 H455 0.961 . S
C440 C441 1.370 . S
C440 C442 1.363 . S
C440 H456 0.931 . S
C441 C440 1.370 . S
C441 C445 1.408 . S
C442 C440 1.363 . S
C442 C443 1.370 . S
C442 C446 1.524 . S
C443 C435 1.503 . S
C443 C442 1.370 . S
C443 C444 1.403 . S
C444 C443 1.403 . S
C444 C445 1.404 . S
C444 C447 1.539 . S
C445 C441 1.408 . S
C445 C444 1.404 . S
C445 H457 0.930 . S
C446 C442 1.524 . S
C446 H458 0.956 . S
C446 H459 0.961 . S
C446 H460 0.961 . S
C447 C444 1.539 . S
C447 H461 0.958 . S
C447 H462 0.961 . S
C447 H463 0.960 . S
H448 C432 0.931 . S
H449 C437 0.929 . S
H450 C438 0.960 . S
H451 C438 0.962 . S
H452 C438 0.960 . S
H453 C439 0.961 . S
H454 C439 0.961 . S
H455 C439 0.961 . S
H456 C440 0.931 . S
H457 C445 0.930 . S
H458 C446 0.956 . S
H459 C446 0.961 . S
H460 C446 0.961 . S
H461 C447 0.958 . S
H462 C447 0.961 . S
H463 C447 0.960 . S
C464 C465 1.391 . S
C464 C466 1.394 . S
C464 H480 0.931 . S
C465 C464 1.391 . S
C465 C469 1.376 . S
C466 C464 1.394 . S
C466 C467 1.369 . S
C466 C470 1.531 . S
C467 C466 1.369 . S
C467 C468 1.410 . S
C467 C475 1.503 1_556 S
C468 C467 1.410 . S
C468 C469 1.392 . S
C468 C471 1.511 1_556 S
C469 C465 1.376 . S
C469 C468 1.392 . S
C469 H481 0.929 . S
C470 C466 1.531 . S
C470 H482 0.960 . S
C470 H483 0.962 . S
C470 H484 0.960 . S
C471 C468 1.511 1_554 S
C471 H485 0.961 . S
C471 H486 0.961 . S
C471 H487 0.961 . S
C472 C473 1.370 . S
C472 C474 1.363 . S
C472 H488 0.931 . S
C473 C472 1.370 . S
C473 C477 1.408 . S
C474 C472 1.363 . S
C474 C475 1.370 . S
C474 C478 1.524 . S
C475 C467 1.503 1_554 S
C475 C474 1.370 . S
C475 C476 1.403 . S
C476 C475 1.403 . S
C476 C477 1.404 . S
C476 C479 1.539 1_554 S
C477 C473 1.408 . S
C477 C476 1.404 . S
C477 H489 0.930 . S
C478 C474 1.524 . S
C478 H490 0.956 . S
C478 H491 0.961 . S
C478 H492 0.961 . S
C479 C476 1.539 1_556 S
C479 H493 0.958 . S
C479 H494 0.961 1_556 S
C479 H495 0.960 . S
H480 C464 0.931 . S
H481 C469 0.929 . S
H482 C470 0.960 . S
H483 C470 0.962 . S
H484 C470 0.960 . S
H485 C471 0.961 . S
H486 C471 0.961 . S
H487 C471 0.961 . S
H488 C472 0.931 . S
H489 C477 0.930 . S
H490 C478 0.956 . S
H491 C478 0.961 . S
H492 C478 0.961 . S
H493 C479 0.958 . S
H494 C479 0.961 1_554 S
H495 C479 0.960 . S
C496 C497 1.391 . S
C496 C498 1.394 . S
C496 H512 0.931 . S
C497 C496 1.391 . S
C497 C501 1.376 . S
C498 C496 1.394 . S
C498 C499 1.369 . S
C498 C502 1.531 . S
C499 C498 1.369 . S
C499 C500 1.410 . S
C499 C507 1.503 . S
C500 C499 1.410 . S
C500 C501 1.392 . S
C500 C503 1.511 . S
C501 C497 1.376 . S
C501 C500 1.392 . S
C501 H513 0.929 . S
C502 C498 1.531 . S
C502 H514 0.960 . S
C502 H515 0.962 . S
C502 H516 0.960 . S
C503 C500 1.511 . S
C503 H517 0.961 . S
C503 H518 0.961 . S
C503 H519 0.961 . S
C504 C505 1.370 . S
C504 C506 1.363 . S
C504 H520 0.931 . S
C505 C504 1.370 . S
C505 C509 1.408 . S
C506 C504 1.363 . S
C506 C507 1.370 . S
C506 C510 1.524 . S
C507 C499 1.503 . S
C507 C506 1.370 . S
C507 C508 1.403 . S
C508 C507 1.403 . S
C508 C509 1.404 . S
C508 C511 1.539 . S
C509 C505 1.408 . S
C509 C508 1.404 . S
C509 H521 0.930 . S
C510 C506 1.524 . S
C510 H522 0.956 . S
C510 H523 0.961 . S
C510 H524 0.961 . S
C511 C508 1.539 . S
C511 H525 0.958 . S
C511 H526 0.961 . S
C511 H527 0.960 . S
H512 C496 0.931 . S
H513 C501 0.929 . S
H514 C502 0.960 . S
H515 C502 0.962 . S
H516 C502 0.960 . S
H517 C503 0.961 . S
H518 C503 0.961 . S
H519 C503 0.961 . S
H520 C504 0.931 . S
H521 C509 0.930 . S
H522 C510 0.956 . S
H523 C510 0.961 . S
H524 C510 0.961 . S
H525 C511 0.958 . S
H526 C511 0.961 . S
H527 C511 0.960 . S
C528 C529 1.391 . S
C528 C530 1.394 . S
C528 H544 0.931 . S
C529 C528 1.391 . S
C529 C533 1.376 . S
C530 C528 1.394 . S
C530 C531 1.369 . S
C530 C534 1.531 1_545 S
C531 C530 1.369 . S
C531 C532 1.410 . S
C531 C539 1.503 1_546 S
C532 C531 1.410 . S
C532 C533 1.392 . S
C532 C535 1.511 1_556 S
C533 C529 1.376 . S
C533 C532 1.392 . S
C533 H545 0.929 . S
C534 C530 1.531 1_565 S
C534 H546 0.960 . S
C534 H547 0.962 . S
C534 H548 0.960 . S
C535 C532 1.511 1_554 S
C535 H549 0.961 . S
C535 H550 0.961 . S
C535 H551 0.961 1_554 S
C536 C537 1.370 . S
C536 C538 1.363 . S
C536 H552 0.931 . S
C537 C536 1.370 . S
C537 C541 1.408 . S
C538 C536 1.363 . S
C538 C539 1.370 . S
C538 C542 1.524 1_565 S
C539 C531 1.503 1_564 S
C539 C538 1.370 . S
C539 C540 1.403 . S
C540 C539 1.403 . S
C540 C541 1.404 . S
C540 C543 1.539 1_554 S
C541 C537 1.408 . S
C541 C540 1.404 . S
C541 H553 0.930 . S
C542 C538 1.524 1_545 S
C542 H554 0.956 . S
C542 H555 0.961 . S
C542 H556 0.961 . S
C543 C540 1.539 1_556 S
C543 H557 0.958 . S
C543 H558 0.961 . S
C543 H559 0.960 . S
H544 C528 0.931 . S
H545 C533 0.929 . S
H546 C534 0.960 . S
H547 C534 0.962 . S
H548 C534 0.960 . S
H549 C535 0.961 . S
H550 C535 0.961 . S
H551 C535 0.961 1_556 S
H552 C536 0.931 . S
H553 C541 0.930 . S
H554 C542 0.956 . S
H555 C542 0.961 . S
H556 C542 0.961 . S
H557 C543 0.958 . S
H558 C543 0.961 . S
H559 C543 0.960 . S
C560 C561 1.391 . S
C560 C562 1.394 . S
C560 H576 0.931 . S
C561 C560 1.391 . S
C561 C565 1.376 . S
C562 C560 1.394 . S
C562 C563 1.369 . S
C562 C566 1.531 . S
C563 C562 1.369 . S
C563 C564 1.410 . S
C563 C571 1.503 1_545 S
C564 C563 1.410 . S
C564 C565 1.392 . S
C564 C567 1.511 1_545 S
C565 C561 1.376 . S
C565 C564 1.392 . S
C565 H577 0.929 . S
C566 C562 1.531 . S
C566 H578 0.960 . S
C566 H579 0.962 . S
C566 H580 0.960 . S
C567 C564 1.511 1_565 S
C567 H581 0.961 . S
C567 H582 0.961 . S
C567 H583 0.961 1_565 S
C568 C569 1.370 . S
C568 C570 1.363 . S
C568 H584 0.931 . S
C569 C568 1.370 . S
C569 C573 1.408 . S
C570 C568 1.363 . S
C570 C571 1.370 . S
C570 C574 1.524 . S
C571 C563 1.503 1_565 S
C571 C570 1.370 . S
C571 C572 1.403 . S
C572 C571 1.403 . S
C572 C573 1.404 . S
C572 C575 1.539 1_565 S
C573 C569 1.408 . S
C573 C572 1.404 . S
C573 H585 0.930 . S
C574 C570 1.524 . S
C574 H586 0.956 . S
C574 H587 0.961 . S
C574 H588 0.961 . S
C575 C572 1.539 1_545 S
C575 H589 0.958 . S
C575 H590 0.961 . S
C575 H591 0.960 . S
H576 C560 0.931 . S
H577 C565 0.929 . S
H578 C566 0.960 . S
H579 C566 0.962 . S
H580 C566 0.960 . S
H581 C567 0.961 . S
H582 C567 0.961 . S
H583 C567 0.961 1_545 S
H584 C568 0.931 . S
H585 C573 0.930 . S
H586 C574 0.956 . S
H587 C574 0.961 . S
H588 C574 0.961 . S
H589 C575 0.958 . S
H590 C575 0.961 . S
H591 C575 0.960 . S
C592 C593 1.391 . S
C592 C594 1.394 . S
C592 H608 0.931 . S
C593 C592 1.391 . S
C593 C597 1.376 . S
C594 C592 1.394 . S
C594 C595 1.369 . S
C594 C598 1.531 1_556 S
C595 C594 1.369 . S
C595 C596 1.410 . S
C595 C603 1.503 1_546 S
C596 C595 1.410 . S
C596 C597 1.392 . S
C596 C599 1.511 1_545 S
C597 C593 1.376 . S
C597 C596 1.392 . S
C597 H609 0.929 . S
C598 C594 1.531 1_554 S
C598 H610 0.960 . S
C598 H611 0.962 . S
C598 H612 0.960 . S
C599 C596 1.511 1_565 S
C599 H613 0.961 . S
C599 H614 0.961 . S
C599 H615 0.961 . S
C600 C601 1.370 . S
C600 C602 1.363 . S
C600 H616 0.931 . S
C601 C600 1.370 . S
C601 C605 1.408 . S
C602 C600 1.363 . S
C602 C603 1.370 . S
C602 C606 1.524 1_554 S
C603 C595 1.503 1_564 S
C603 C602 1.370 . S
C603 C604 1.403 . S
C604 C603 1.403 . S
C604 C605 1.405 . S
C604 C607 1.538 1_565 S
C605 C601 1.408 . S
C605 C604 1.405 . S
C605 H617 0.930 . S
C606 C602 1.524 1_556 S
C606 H618 0.956 . S
C606 H619 0.961 . S
C606 H620 0.961 . S
C607 C604 1.538 1_545 S
C607 H621 0.958 . S
C607 H622 0.961 . S
C607 H623 0.960 . S
H608 C592 0.931 . S
H609 C597 0.929 . S
H610 C598 0.960 . S
H611 C598 0.962 . S
H612 C598 0.960 . S
H613 C599 0.961 . S
H614 C599 0.961 . S
H615 C599 0.961 . S
H616 C600 0.931 . S
H617 C605 0.930 . S
H618 C606 0.956 . S
H619 C606 0.961 . S
H620 C606 0.961 . S
H621 C607 0.958 . S
H622 C607 0.961 . S
H623 C607 0.960 . S
C624 C625 1.391 . S
C624 C626 1.394 . S
C624 H640 0.931 . S
C625 C624 1.391 . S
C625 C629 1.376 . S
C626 C624 1.394 . S
C626 C627 1.369 . S
C626 C630 1.531 . S
C627 C626 1.369 . S
C627 C628 1.410 . S
C627 C635 1.503 1_545 S
C628 C627 1.410 . S
C628 C629 1.392 . S
C628 C631 1.511 1_545 S
C629 C625 1.376 . S
C629 C628 1.392 . S
C629 H641 0.929 . S
C630 C626 1.531 . S
C630 H642 0.960 . S
C630 H643 0.962 . S
C630 H644 0.960 . S
C631 C628 1.511 1_565 S
C631 H645 0.961 . S
C631 H646 0.961 . S
C631 H647 0.961 . S
C632 C633 1.370 . S
C632 C634 1.363 . S
C632 H648 0.931 . S
C633 C632 1.370 . S
C633 C637 1.408 . S
C634 C632 1.363 . S
C634 C635 1.370 . S
C634 C638 1.524 . S
C635 C627 1.503 1_565 S
C635 C634 1.370 . S
C635 C636 1.403 . S
C636 C635 1.403 . S
C636 C637 1.404 . S
C636 C639 1.539 1_565 S
C637 C633 1.408 . S
C637 C636 1.404 . S
C637 H649 0.930 . S
C638 C634 1.524 . S
C638 H650 0.956 . S
C638 H651 0.961 . S
C638 H652 0.961 . S
C639 C636 1.539 1_545 S
C639 H653 0.958 . S
C639 H654 0.961 . S
C639 H655 0.960 . S
H640 C624 0.931 . S
H641 C629 0.929 . S
H642 C630 0.960 . S
H643 C630 0.962 . S
H644 C630 0.960 . S
H645 C631 0.961 . S
H646 C631 0.961 . S
H647 C631 0.961 . S
H648 C632 0.931 . S
H649 C637 0.930 . S
H650 C638 0.956 . S
H651 C638 0.961 . S
H652 C638 0.961 . S
H653 C639 0.958 . S
H654 C639 0.961 . S
H655 C639 0.960 . S
C656 C657 1.391 . S
C656 C658 1.394 1_554 S
C656 H672 0.931 . S
C657 C656 1.391 . S
C657 C661 1.376 1_554 S
C658 C656 1.394 1_556 S
C658 C659 1.369 . S
C658 C662 1.531 . S
C659 C658 1.369 . S
C659 C660 1.410 . S
C659 C667 1.503 . S
C660 C659 1.410 . S
C660 C661 1.392 . S
C660 C663 1.511 . S
C661 C657 1.376 1_556 S
C661 C660 1.392 . S
C661 H673 0.929 . S
C662 C658 1.531 . S
C662 H674 0.960 . S
C662 H675 0.962 1_556 S
C662 H676 0.960 1_556 S
C663 C660 1.511 . S
C663 H677 0.961 . S
C663 H678 0.961 . S
C663 H679 0.961 . S
C664 C665 1.370 . S
C664 C666 1.363 . S
C664 H680 0.931 . S
C665 C664 1.370 . S
C665 C669 1.408 . S
C666 C664 1.363 . S
C666 C667 1.370 . S
C666 C670 1.524 . S
C667 C659 1.503 . S
C667 C666 1.370 . S
C667 C668 1.403 . S
C668 C667 1.403 . S
C668 C669 1.404 . S
C668 C671 1.539 . S
C669 C665 1.408 . S
C669 C668 1.404 . S
C669 H681 0.930 . S
C670 C666 1.524 . S
C670 H682 0.956 1_556 S
C670 H683 0.961 . S
C670 H684 0.961 . S
C671 C668 1.539 . S
C671 H685 0.958 . S
C671 H686 0.961 . S
C671 H687 0.960 . S
H672 C656 0.931 . S
H673 C661 0.929 . S
H674 C662 0.960 . S
H675 C662 0.962 1_554 S
H676 C662 0.960 1_554 S
H677 C663 0.961 . S
H678 C663 0.961 . S
H679 C663 0.961 . S
H680 C664 0.931 . S
H681 C669 0.930 . S
H682 C670 0.956 1_554 S
H683 C670 0.961 . S
H684 C670 0.961 . S
H685 C671 0.958 . S
H686 C671 0.961 . S
H687 C671 0.960 . S
C688 C689 1.391 . S
C688 C690 1.394 . S
C688 H704 0.931 . S
C689 C688 1.391 . S
C689 C693 1.376 . S
C690 C688 1.394 . S
C690 C691 1.369 . S
C690 C694 1.531 . S
C691 C690 1.369 . S
C691 C692 1.410 . S
C691 C699 1.503 . S
C692 C691 1.410 . S
C692 C693 1.392 . S
C692 C695 1.511 . S
C693 C689 1.376 . S
C693 C692 1.392 . S
C693 H705 0.929 . S
C694 C690 1.531 . S
C694 H706 0.960 . S
C694 H707 0.962 . S
C694 H708 0.960 . S
C695 C692 1.511 . S
C695 H709 0.961 . S
C695 H710 0.961 . S
C695 H711 0.961 . S
C696 C697 1.370 . S
C696 C698 1.363 . S
C696 H712 0.931 . S
C697 C696 1.370 . S
C697 C701 1.408 . S
C698 C696 1.363 . S
C698 C699 1.370 . S
C698 C702 1.524 . S
C699 C691 1.503 . S
C699 C698 1.370 . S
C699 C700 1.403 . S
C700 C699 1.403 . S
C700 C701 1.404 . S
C700 C703 1.539 . S
C701 C697 1.408 . S
C701 C700 1.404 . S
C701 H713 0.930 . S
C702 C698 1.524 . S
C702 H714 0.956 . S
C702 H715 0.961 . S
C702 H716 0.961 . S
C703 C700 1.539 . S
C703 H717 0.958 . S
C703 H718 0.961 . S
C703 H719 0.960 . S
H704 C688 0.931 . S
H705 C693 0.929 . S
H706 C694 0.960 . S
H707 C694 0.962 . S
H708 C694 0.960 . S
H709 C695 0.961 . S
H710 C695 0.961 . S
H711 C695 0.961 . S
H712 C696 0.931 . S
H713 C701 0.930 . S
H714 C702 0.956 . S
H715 C702 0.961 . S
H716 C702 0.961 . S
H717 C703 0.958 . S
H718 C703 0.961 . S
H719 C703 0.960 . S
C720 C721 1.391 . S
C720 C722 1.394 . S
C720 H736 0.931 . S
C721 C720 1.391 . S
C721 C725 1.376 . S
C722 C720 1.394 . S
C722 C723 1.369 . S
C722 C726 1.531 . S
C723 C722 1.369 . S
C723 C724 1.410 . S
C723 C731 1.503 . S
C724 C723 1.410 . S
C724 C725 1.392 . S
C724 C727 1.511 . S
C725 C721 1.376 . S
C725 C724 1.392 . S
C725 H737 0.929 . S
C726 C722 1.531 . S
C726 H738 0.960 . S
C726 H739 0.962 . S
C726 H740 0.960 . S
C727 C724 1.511 . S
C727 H741 0.961 . S
C727 H742 0.961 . S
C727 H743 0.961 . S
C728 C729 1.370 1_554 S
C728 C730 1.363 . S
C728 H744 0.931 . S
C729 C728 1.370 1_556 S
C729 C733 1.408 . S
C730 C728 1.363 . S
C730 C731 1.370 . S
C730 C734 1.524 . S
C731 C723 1.503 . S
C731 C730 1.370 . S
C731 C732 1.403 1_554 S
C732 C731 1.403 1_556 S
C732 C733 1.404 . S
C732 C735 1.539 . S
C733 C729 1.408 . S
C733 C732 1.404 . S
C733 H745 0.930 . S
C734 C730 1.524 . S
C734 H746 0.956 . S
C734 H747 0.961 . S
C734 H748 0.961 . S
C735 C732 1.539 . S
C735 H749 0.958 . S
C735 H750 0.961 . S
C735 H751 0.960 . S
H736 C720 0.931 . S
H737 C725 0.929 . S
H738 C726 0.960 . S
H739 C726 0.962 . S
H740 C726 0.960 . S
H741 C727 0.961 . S
H742 C727 0.961 . S
H743 C727 0.961 . S
H744 C728 0.931 . S
H745 C733 0.930 . S
H746 C734 0.956 . S
H747 C734 0.961 . S
H748 C734 0.961 . S
H749 C735 0.958 . S
H750 C735 0.961 . S
H751 C735 0.960 . S
C752 C753 1.391 . S
C752 C754 1.394 . S
C752 H768 0.931 . S
C753 C752 1.391 . S
C753 C757 1.376 . S
C754 C752 1.394 . S
C754 C755 1.369 . S
C754 C758 1.531 . S
C755 C754 1.369 . S
C755 C756 1.410 . S
C755 C763 1.503 . S
C756 C755 1.410 . S
C756 C757 1.392 . S
C756 C759 1.511 . S
C757 C753 1.376 . S
C757 C756 1.392 . S
C757 H769 0.929 . S
C758 C754 1.531 . S
C758 H770 0.960 . S
C758 H771 0.962 . S
C758 H772 0.960 . S
C759 C756 1.511 . S
C759 H773 0.961 . S
C759 H774 0.961 . S
C759 H775 0.961 . S
C760 C761 1.370 . S
C760 C762 1.363 . S
C760 H776 0.931 . S
C761 C760 1.370 . S
C761 C765 1.408 . S
C762 C760 1.363 . S
C762 C763 1.370 . S
C762 C766 1.524 . S
C763 C755 1.503 . S
C763 C762 1.370 . S
C763 C764 1.403 . S
C764 C763 1.403 . S
C764 C765 1.404 . S
C764 C767 1.539 . S
C765 C761 1.408 . S
C765 C764 1.404 . S
C765 H777 0.930 . S
C766 C762 1.524 . S
C766 H778 0.956 . S
C766 H779 0.961 . S
C766 H780 0.961 . S
C767 C764 1.539 . S
C767 H781 0.958 . S
C767 H782 0.961 . S
C767 H783 0.960 . S
H768 C752 0.931 . S
H769 C757 0.929 . S
H770 C758 0.960 . S
H771 C758 0.962 . S
H772 C758 0.960 . S
H773 C759 0.961 . S
H774 C759 0.961 . S
H775 C759 0.961 . S
H776 C760 0.931 . S
H777 C765 0.930 . S
H778 C766 0.956 . S
H779 C766 0.961 . S
H780 C766 0.961 . S
H781 C767 0.958 . S
H782 C767 0.961 . S
H783 C767 0.960 . S
C784 C785 1.391 . S
C784 C786 1.394 . S
C784 H800 0.931 . S
C785 C784 1.391 . S
C785 C789 1.376 . S
C786 C784 1.394 . S
C786 C787 1.369 . S
C786 C790 1.531 . S
C787 C786 1.369 . S
C787 C788 1.410 . S
C787 C795 1.503 . S
C788 C787 1.410 . S
C788 C789 1.392 . S
C788 C791 1.511 . S
C789 C785 1.376 . S
C789 C788 1.392 . S
C789 H801 0.929 . S
C790 C786 1.531 . S
C790 H802 0.960 . S
C790 H803 0.962 . S
C790 H804 0.960 . S
C791 C788 1.511 . S
C791 H805 0.961 1_556 S
C791 H806 0.961 1_556 S
C791 H807 0.961 1_556 S
C792 C793 1.370 . S
C792 C794 1.363 1_554 S
C792 H808 0.931 . S
C793 C792 1.370 . S
C793 C797 1.408 . S
C794 C792 1.363 1_556 S
C794 C795 1.370 . S
C794 C798 1.524 . S
C795 C787 1.503 . S
C795 C794 1.370 . S
C795 C796 1.403 . S
C796 C795 1.403 . S
C796 C797 1.404 1_556 S
C796 C799 1.539 . S
C797 C793 1.408 . S
C797 C796 1.404 1_554 S
C797 H809 0.930 . S
C798 C794 1.524 . S
C798 H810 0.956 . S
C798 H811 0.961 . S
C798 H812 0.961 . S
C799 C796 1.539 . S
C799 H813 0.958 . S
C799 H814 0.961 . S
C799 H815 0.960 . S
H800 C784 0.931 . S
H801 C789 0.929 . S
H802 C790 0.960 . S
H803 C790 0.962 . S
H804 C790 0.960 . S
H805 C791 0.961 1_554 S
H806 C791 0.961 1_554 S
H807 C791 0.961 1_554 S
H808 C792 0.931 . S
H809 C797 0.930 . S
H810 C798 0.956 . S
H811 C798 0.961 . S
H812 C798 0.961 . S
H813 C799 0.958 . S
H814 C799 0.961 . S
H815 C799 0.960 . S
C816 C817 1.391 . S
C816 C818 1.394 . S
C816 H832 0.931 . S
C817 C816 1.391 . S
C817 C821 1.376 . S
C818 C816 1.394 . S
C818 C819 1.369 . S
C818 C822 1.531 . S
C819 C818 1.369 . S
C819 C820 1.410 . S
C819 C827 1.503 . S
C820 C819 1.410 . S
C820 C821 1.392 . S
C820 C823 1.511 . S
C821 C817 1.376 . S
C821 C820 1.392 . S
C821 H833 0.929 . S
C822 C818 1.531 . S
C822 H834 0.960 . S
C822 H835 0.962 . S
C822 H836 0.960 . S
C823 C820 1.511 . S
C823 H837 0.961 . S
C823 H838 0.961 . S
C823 H839 0.961 . S
C824 C825 1.370 . S
C824 C826 1.363 . S
C824 H840 0.931 . S
C825 C824 1.370 . S
C825 C829 1.408 . S
C826 C824 1.363 . S
C826 C827 1.370 . S
C826 C830 1.524 . S
C827 C819 1.503 . S
C827 C826 1.370 . S
C827 C828 1.403 . S
C828 C827 1.403 . S
C828 C829 1.404 . S
C828 C831 1.539 . S
C829 C825 1.408 . S
C829 C828 1.404 . S
C829 H841 0.930 . S
C830 C826 1.524 . S
C830 H842 0.956 . S
C830 H843 0.961 . S
C830 H844 0.961 . S
C831 C828 1.539 . S
C831 H845 0.958 . S
C831 H846 0.961 . S
C831 H847 0.960 . S
H832 C816 0.931 . S
H833 C821 0.929 . S
H834 C822 0.960 . S
H835 C822 0.962 . S
H836 C822 0.960 . S
H837 C823 0.961 . S
H838 C823 0.961 . S
H839 C823 0.961 . S
H840 C824 0.931 . S
H841 C829 0.930 . S
H842 C830 0.956 . S
H843 C830 0.961 . S
H844 C830 0.961 . S
H845 C831 0.958 . S
H846 C831 0.961 . S
H847 C831 0.960 . S
C848 C849 1.391 . S
C848 C850 1.394 1_556 S
C848 H864 0.931 . S
C849 C848 1.391 . S
C849 C853 1.376 1_556 S
C850 C848 1.394 1_554 S
C850 C851 1.369 . S
C850 C854 1.531 . S
C851 C850 1.369 . S
C851 C852 1.410 . S
C851 C859 1.503 . S
C852 C851 1.410 . S
C852 C853 1.392 . S
C852 C855 1.511 . S
C853 C849 1.376 1_554 S
C853 C852 1.392 . S
C853 H865 0.929 1_554 S
C854 C850 1.531 . S
C854 H866 0.960 . S
C854 H867 0.962 . S
C854 H868 0.960 . S
C855 C852 1.511 . S
C855 H869 0.961 . S
C855 H870 0.961 . S
C855 H871 0.961 . S
C856 C857 1.370 . S
C856 C858 1.363 . S
C856 H872 0.931 . S
C857 C856 1.370 . S
C857 C861 1.408 . S
C858 C856 1.363 . S
C858 C859 1.370 . S
C858 C862 1.524 . S
C859 C851 1.503 . S
C859 C858 1.370 . S
C859 C860 1.403 . S
C860 C859 1.403 . S
C860 C861 1.404 . S
C860 C863 1.539 . S
C861 C857 1.408 . S
C861 C860 1.404 . S
C861 H873 0.930 . S
C862 C858 1.524 . S
C862 H874 0.956 1_554 S
C862 H875 0.961 1_554 S
C862 H876 0.961 . S
C863 C860 1.539 . S
C863 H877 0.958 . S
C863 H878 0.961 . S
C863 H879 0.960 . S
H864 C848 0.931 . S
H865 C853 0.929 1_556 S
H866 C854 0.960 . S
H867 C854 0.962 . S
H868 C854 0.960 . S
H869 C855 0.961 . S
H870 C855 0.961 . S
H871 C855 0.961 . S
H872 C856 0.931 . S
H873 C861 0.930 . S
H874 C862 0.956 1_556 S
H875 C862 0.961 1_556 S
H876 C862 0.961 . S
H877 C863 0.958 . S
H878 C863 0.961 . S
H879 C863 0.960 . S
C880 C881 1.391 . S
C880 C882 1.394 . S
C880 H896 0.931 . S
C881 C880 1.391 . S
C881 C885 1.376 . S
C882 C880 1.394 . S
C882 C883 1.369 . S
C882 C886 1.531 . S
C883 C882 1.369 . S
C883 C884 1.410 . S
C883 C891 1.503 . S
C884 C883 1.410 . S
C884 C885 1.392 . S
C884 C887 1.511 . S
C885 C881 1.376 . S
C885 C884 1.392 . S
C885 H897 0.929 . S
C886 C882 1.531 . S
C886 H898 0.960 . S
C886 H899 0.962 . S
C886 H900 0.960 . S
C887 C884 1.511 . S
C887 H901 0.961 . S
C887 H902 0.961 . S
C887 H903 0.961 . S
C888 C889 1.370 . S
C888 C890 1.363 . S
C888 H904 0.931 . S
C889 C888 1.370 . S
C889 C893 1.408 . S
C890 C888 1.363 . S
C890 C891 1.370 . S
C890 C894 1.524 . S
C891 C883 1.503 . S
C891 C890 1.370 . S
C891 C892 1.403 . S
C892 C891 1.403 . S
C892 C893 1.404 . S
C892 C895 1.539 . S
C893 C889 1.408 . S
C893 C892 1.404 . S
C893 H905 0.930 . S
C894 C890 1.524 . S
C894 H906 0.956 . S
C894 H907 0.961 . S
C894 H908 0.961 . S
C895 C892 1.539 . S
C895 H909 0.958 . S
C895 H910 0.961 . S
C895 H911 0.960 . S
H896 C880 0.931 . S
H897 C885 0.929 . S
H898 C886 0.960 . S
H899 C886 0.962 . S
H900 C886 0.960 . S
H901 C887 0.961 . S
H902 C887 0.961 . S
H903 C887 0.961 . S
H904 C888 0.931 . S
H905 C893 0.930 . S
H906 C894 0.956 . S
H907 C894 0.961 . S
H908 C894 0.961 . S
H909 C895 0.958 . S
H910 C895 0.961 . S
H911 C895 0.960 . S
C273 C33 1.528 . S
C281 C135 1.546 . S
C305 C67 1.534 . S
C313 C101 1.544 . S
C337 C271 1.537 . S
C345 C169 1.541 . S
C369 C203 1.528 . S
C377 C237 1.545 . S
C401 C70 2.045 . S
C409 C2 2.055 . S
C433 C104 2.053 . S
C441 C36 2.058 . S
C465 C39 1.325 . S
C473 C107 1.336 . S
C497 C5 1.341 . S
C505 C73 1.342 . S
C529 C206 2.046 . S
C537 C138 2.055 . S
C561 C172 2.056 . S
C569 C240 2.056 . S
C593 C175 1.350 . S
C601 C243 1.349 . S
C625 C209 1.354 . S
C633 C141 1.350 . S
C657 C9 1.335 . S
C665 C190 1.349 . S
C689 C43 1.307 . S
C697 C156 1.350 . S
C721 C258 1.344 . S
C729 C77 1.307 . S
C753 C111 1.326 . S
C761 C224 1.349 . S
C785 C54 1.344 . S
C793 C145 1.322 . S
C817 C179 1.297 . S
C825 C20 1.348 . S
C849 C213 1.324 . S
C857 C122 1.349 . S
C881 C247 1.320 . S
C889 C88 1.348 . S
