# Generated by pormake.
# Topology umh, (4)-cn, num edge types: 1
# Building blocks:
#     Node 0, Type 0, BuildingBlock: ESEHIV_clean_sbu_0, # of connection points: 4
#     Node 1, Type 0, BuildingBlock: ESEHIV_clean_sbu_0, # of connection points: 4
#     Node 2, Type 0, BuildingBlock: ESEHIV_clean_sbu_0, # of connection points: 4
#     Node 3, Type 0, BuildingBlock: ESEHIV_clean_sbu_0, # of connection points: 4
#     Node 4, Type 0, BuildingBlock: ESEHIV_clean_sbu_0, # of connection points: 4
#     Node 5, Type 0, BuildingBlock: ESEHIV_clean_sbu_0, # of connection points: 4
#     Node 6, Type 0, BuildingBlock: ESEHIV_clean_sbu_0, # of connection points: 4
#     Node 7, Type 0, BuildingBlock: ESEHIV_clean_sbu_0, # of connection points: 4
#     Node 8, Type 0, BuildingBlock: ESEHIV_clean_sbu_0, # of connection points: 4
#     Node 9, Type 0, BuildingBlock: ESEHIV_clean_sbu_0, # of connection points: 4
#     Node 10, Type 0, BuildingBlock: ESEHIV_clean_sbu_0, # of connection points: 4
#     Node 11, Type 0, BuildingBlock: ESEHIV_clean_sbu_0, # of connection points: 4
#     Node 12, Type 0, BuildingBlock: ESEHIV_clean_sbu_0, # of connection points: 4
#     Node 13, Type 0, BuildingBlock: ESEHIV_clean_sbu_0, # of connection points: 4
#     Node 14, Type 0, BuildingBlock: ESEHIV_clean_sbu_0, # of connection points: 4
#     Node 15, Type 0, BuildingBlock: ESEHIV_clean_sbu_0, # of connection points: 4
#     Edge 16, Type (0, 0), BuildingBlock: OJICUG_clean_linker_0, # of connection points: 2
#     Edge 17, Type (0, 0), BuildingBlock: OJICUG_clean_linker_0, # of connection points: 2
#     Edge 18, Type (0, 0), BuildingBlock: OJICUG_clean_linker_0, # of connection points: 2
#     Edge 19, Type (0, 0), BuildingBlock: OJICUG_clean_linker_0, # of connection points: 2
#     Edge 20, Type (0, 0), BuildingBlock: OJICUG_clean_linker_0, # of connection points: 2
#     Edge 21, Type (0, 0), BuildingBlock: OJICUG_clean_linker_0, # of connection points: 2
#     Edge 22, Type (0, 0), BuildingBlock: OJICUG_clean_linker_0, # of connection points: 2
#     Edge 23, Type (0, 0), BuildingBlock: OJICUG_clean_linker_0, # of connection points: 2
#     Edge 24, Type (0, 0), BuildingBlock: OJICUG_clean_linker_0, # of connection points: 2
#     Edge 25, Type (0, 0), BuildingBlock: OJICUG_clean_linker_0, # of connection points: 2
#     Edge 26, Type (0, 0), BuildingBlock: OJICUG_clean_linker_0, # of connection points: 2
#     Edge 27, Type (0, 0), BuildingBlock: OJICUG_clean_linker_0, # of connection points: 2
#     Edge 28, Type (0, 0), BuildingBlock: OJICUG_clean_linker_0, # of connection points: 2
#     Edge 29, Type (0, 0), BuildingBlock: OJICUG_clean_linker_0, # of connection points: 2
#     Edge 30, Type (0, 0), BuildingBlock: OJICUG_clean_linker_0, # of connection points: 2
#     Edge 31, Type (0, 0), BuildingBlock: OJICUG_clean_linker_0, # of connection points: 2
#     Edge 32, Type (0, 0), BuildingBlock: OJICUG_clean_linker_0, # of connection points: 2
#     Edge 33, Type (0, 0), BuildingBlock: OJICUG_clean_linker_0, # of connection points: 2
#     Edge 34, Type (0, 0), BuildingBlock: OJICUG_clean_linker_0, # of connection points: 2
#     Edge 35, Type (0, 0), BuildingBlock: OJICUG_clean_linker_0, # of connection points: 2
#     Edge 36, Type (0, 0), BuildingBlock: OJICUG_clean_linker_0, # of connection points: 2
#     Edge 37, Type (0, 0), BuildingBlock: OJICUG_clean_linker_0, # of connection points: 2
#     Edge 38, Type (0, 0), BuildingBlock: OJICUG_clean_linker_0, # of connection points: 2
#     Edge 39, Type (0, 0), BuildingBlock: OJICUG_clean_linker_0, # of connection points: 2
#     Edge 40, Type (0, 0), BuildingBlock: OJICUG_clean_linker_0, # of connection points: 2
#     Edge 41, Type (0, 0), BuildingBlock: OJICUG_clean_linker_0, # of connection points: 2
#     Edge 42, Type (0, 0), BuildingBlock: OJICUG_clean_linker_0, # of connection points: 2
#     Edge 43, Type (0, 0), BuildingBlock: OJICUG_clean_linker_0, # of connection points: 2
#     Edge 44, Type (0, 0), BuildingBlock: OJICUG_clean_linker_0, # of connection points: 2
#     Edge 45, Type (0, 0), BuildingBlock: OJICUG_clean_linker_0, # of connection points: 2
#     Edge 46, Type (0, 0), BuildingBlock: OJICUG_clean_linker_0, # of connection points: 2
#     Edge 47, Type (0, 0), BuildingBlock: OJICUG_clean_linker_0, # of connection points: 2
# Relax obj value: 0.061
# Max RMSD: 0.086
# Mean RMSD: 0.086
data_MOF--net-umh--node1-ESEHIV_clean_sbu_0--edge1-OJICUG_clean_linker_0
_symmetry_space_group_name_H-M    P1
_symmetry_Int_Tables_number       1
_symmetry_cell_setting            triclinic
loop_
_symmetry_equiv_pos_as_xyz
'x, y, z'
_cell_length_a     36.893921
_cell_length_b     36.91259
_cell_length_c     36.191612
_cell_angle_alpha  90.039041
_cell_angle_beta   90.032051
_cell_angle_gamma 90.000446
loop_
_atom_site_label
_atom_site_type_symbol
_atom_site_fract_x
_atom_site_fract_y
_atom_site_fract_z
_atom_type_partial_charge
Cu0 Cu 0.37549 0.12487 0.19356 0.0
N1 N 0.36392 0.17316 0.20294 0.0
N2 N 0.32851 0.22164 0.21129 0.0
C3 C 0.3298 0.18537 0.2067 0.0
C4 C 0.36346 0.2326 0.21059 0.0
C5 C 0.38525 0.20261 0.20534 0.0
O6 O 0.33681 0.09745 0.21717 0.0
C7 C 0.40026 0.13612 0.12165 0.0
O8 O 0.42322 0.15703 0.13943 0.0
H9 H 0.30637 0.16776 0.20573 0.0
H10 H 0.41444 0.20243 0.20261 0.0
N11 N 0.42051 0.1125 0.21355 0.0
N12 N 0.47181 0.0821 0.22465 0.0
C13 C 0.44062 0.08321 0.20504 0.0
C14 C 0.43947 0.13055 0.23941 0.0
C15 C 0.4711 0.11192 0.24631 0.0
C16 C 0.33598 0.0961 0.25236 0.0
O17 O 0.36378 0.10877 0.27101 0.0
H18 H 0.43258 0.06334 0.18462 0.0
H19 H 0.43068 0.15526 0.25271 0.0
O20 O 0.37683 0.11839 0.14016 0.0
H21 H 0.37265 0.26038 0.2124 0.0
H22 H 0.49156 0.11941 0.26634 0.0
Cu23 Cu 0.41188 0.37469 0.69398 0.0
N24 N 0.36328 0.36483 0.70369 0.0
N25 N 0.3132 0.33194 0.71246 0.0
C26 C 0.34948 0.33135 0.70787 0.0
C27 C 0.30384 0.36729 0.71118 0.0
C28 C 0.33483 0.38754 0.70583 0.0
O29 O 0.4384 0.33513 0.71718 0.0
C30 C 0.40079 0.40002 0.62214 0.0
O31 O 0.38075 0.42361 0.64007 0.0
H32 H 0.36566 0.30695 0.7061 0.0
H33 H 0.3364 0.41666 0.70294 0.0
N34 N 0.42548 0.41928 0.71415 0.0
N35 N 0.45617 0.47047 0.72488 0.0
C36 C 0.45454 0.43948 0.70499 0.0
C37 C 0.4082 0.43799 0.74073 0.0
C38 C 0.42701 0.46953 0.7474 0.0
C39 C 0.4406 0.33421 0.75233 0.0
O40 O 0.42914 0.36227 0.77134 0.0
H41 H 0.47378 0.43173 0.68386 0.0
H42 H 0.38382 0.42911 0.7546 0.0
O43 O 0.41796 0.37606 0.64051 0.0
H44 H 0.27653 0.37776 0.71354 0.0
H45 H 0.42007 0.48982 0.7678 0.0
Cu46 Cu 0.16025 0.41122 0.19424 0.0
N47 N 0.17017 0.36263 0.20385 0.0
N48 N 0.20317 0.31259 0.2124 0.0
C49 C 0.2037 0.34886 0.20789 0.0
C50 C 0.16781 0.3032 0.21122 0.0
C51 C 0.14749 0.33417 0.206 0.0
O52 O 0.19976 0.43773 0.21763 0.0
C53 C 0.1352 0.40001 0.12227 0.0
O54 O 0.11176 0.37972 0.14007 0.0
H55 H 0.22809 0.36507 0.20608 0.0
H56 H 0.11835 0.3357 0.20318 0.0
N57 N 0.11559 0.42475 0.21434 0.0
N58 N 0.06452 0.45561 0.22519 0.0
C59 C 0.09554 0.45396 0.20537 0.0
C60 C 0.09675 0.40737 0.24072 0.0
C61 C 0.06527 0.42628 0.24746 0.0
C62 C 0.20067 0.43975 0.25279 0.0
O63 O 0.17264 0.42807 0.2717 0.0
H64 H 0.10345 0.47334 0.18445 0.0
H65 H 0.1055 0.38288 0.25445 0.0
O66 O 0.15895 0.4174 0.14077 0.0
H67 H 0.15737 0.2759 0.21355 0.0
H68 H 0.04491 0.41931 0.26776 0.0
Cu69 Cu 0.12538 0.15968 0.69398 0.0
N70 N 0.17367 0.17126 0.70343 0.0
N71 N 0.22216 0.2067 0.71179 0.0
C72 C 0.18587 0.20538 0.70714 0.0
C73 C 0.23313 0.17176 0.71119 0.0
C74 C 0.20314 0.14996 0.70594 0.0
O75 O 0.09792 0.19834 0.71761 0.0
C76 C 0.13694 0.13513 0.62198 0.0
O77 O 0.15809 0.11238 0.6397 0.0
H78 H 0.16826 0.22879 0.70608 0.0
H79 H 0.20299 0.12078 0.70326 0.0
N80 N 0.11293 0.11468 0.71389 0.0
N81 N 0.08229 0.06355 0.72502 0.0
C82 C 0.08348 0.09474 0.70547 0.0
C83 C 0.13099 0.0956 0.73964 0.0
C84 C 0.11221 0.06408 0.74654 0.0
C85 C 0.09661 0.1992 0.75281 0.0
O86 O 0.10938 0.17146 0.77143 0.0
H87 H 0.06355 0.10291 0.68517 0.0
H88 H 0.1558 0.10426 0.75288 0.0
O89 O 0.11894 0.15835 0.64055 0.0
H90 H 0.26093 0.16259 0.71306 0.0
H91 H 0.11967 0.04356 0.76649 0.0
Cu92 Cu 0.37564 0.41115 0.38992 0.0
N93 N 0.36407 0.36289 0.38042 0.0
N94 N 0.32864 0.3144 0.37213 0.0
C95 C 0.32993 0.35066 0.37685 0.0
C96 C 0.3636 0.30347 0.37253 0.0
C97 C 0.38541 0.33346 0.37774 0.0
O98 O 0.33685 0.43858 0.36646 0.0
C99 C 0.4005 0.39943 0.46174 0.0
O100 O 0.42323 0.37841 0.44382 0.0
H101 H 0.3065 0.36824 0.37806 0.0
H102 H 0.41462 0.33365 0.38028 0.0
N103 N 0.42059 0.42364 0.36987 0.0
N104 N 0.47177 0.45417 0.35865 0.0
C105 C 0.44067 0.45297 0.37837 0.0
C106 C 0.43949 0.40567 0.34392 0.0
C107 C 0.47104 0.42439 0.33696 0.0
C108 C 0.33594 0.44 0.33127 0.0
O109 O 0.36371 0.42741 0.31255 0.0
H110 H 0.43266 0.4728 0.39882 0.0
H111 H 0.43068 0.38097 0.33059 0.0
O112 O 0.37716 0.41745 0.44336 0.0
H113 H 0.3728 0.27571 0.37055 0.0
H114 H 0.49143 0.41698 0.31684 0.0
Cu115 Cu 0.12504 0.37477 0.88993 0.0
N116 N 0.17367 0.3648 0.88039 0.0
N117 N 0.2237 0.33182 0.87159 0.0
C118 C 0.18741 0.3313 0.87614 0.0
C119 C 0.23312 0.36716 0.87296 0.0
C120 C 0.20215 0.38746 0.87833 0.0
O121 O 0.09853 0.33525 0.86657 0.0
C122 C 0.13604 0.40007 0.96185 0.0
O123 O 0.15637 0.42346 0.94402 0.0
H124 H 0.17118 0.30692 0.8778 0.0
H125 H 0.20064 0.41658 0.88125 0.0
N126 N 0.11164 0.41938 0.86969 0.0
N127 N 0.08108 0.47058 0.85873 0.0
C128 C 0.08257 0.43964 0.87867 0.0
C129 C 0.12909 0.43799 0.84318 0.0
C130 C 0.11036 0.46953 0.83637 0.0
C131 C 0.09643 0.33434 0.83141 0.0
O132 O 0.10798 0.36239 0.81248 0.0
H133 H 0.06319 0.43196 0.89969 0.0
H134 H 0.15351 0.42902 0.82944 0.0
O135 O 0.11875 0.37623 0.94338 0.0
H136 H 0.26044 0.37759 0.87062 0.0
H137 H 0.11743 0.48975 0.81596 0.0
Cu138 Cu 0.16055 0.12467 0.38954 0.0
N139 N 0.17043 0.17329 0.38007 0.0
N140 N 0.20335 0.22337 0.37151 0.0
C141 C 0.20393 0.18709 0.37587 0.0
C142 C 0.16799 0.23275 0.37295 0.0
C143 C 0.14772 0.20175 0.37818 0.0
O144 O 0.20003 0.09822 0.3661 0.0
C145 C 0.13549 0.13544 0.46157 0.0
O146 O 0.11183 0.15558 0.44385 0.0
H147 H 0.22833 0.17088 0.37747 0.0
H148 H 0.1186 0.20019 0.38116 0.0
N149 N 0.11587 0.1112 0.36942 0.0
N150 N 0.06474 0.08044 0.35851 0.0
C151 C 0.09579 0.082 0.37833 0.0
C152 C 0.09701 0.12867 0.34308 0.0
C153 C 0.0655 0.10981 0.3363 0.0
C154 C 0.20087 0.09616 0.33094 0.0
O155 O 0.17278 0.10776 0.31204 0.0
H156 H 0.1037 0.06257 0.39921 0.0
H157 H 0.10578 0.15319 0.32941 0.0
O158 O 0.15936 0.11833 0.44299 0.0
H159 H 0.15752 0.26005 0.3708 0.0
H160 H 0.04513 0.11686 0.31602 0.0
Cu161 Cu 0.41142 0.1595 0.88931 0.0
N162 N 0.36314 0.17106 0.87978 0.0
N163 N 0.31465 0.20652 0.8716 0.0
C164 C 0.35094 0.20519 0.87618 0.0
C165 C 0.30367 0.17158 0.87212 0.0
C166 C 0.33366 0.14976 0.87727 0.0
O167 O 0.43893 0.19814 0.86577 0.0
C168 C 0.39984 0.13498 0.96126 0.0
O169 O 0.37892 0.11203 0.94348 0.0
H170 H 0.36856 0.22859 0.87731 0.0
H171 H 0.33382 0.12058 0.87992 0.0
N172 N 0.42394 0.11448 0.86944 0.0
N173 N 0.45467 0.06337 0.85842 0.0
C174 C 0.45341 0.09461 0.87793 0.0
C175 C 0.40593 0.09531 0.8437 0.0
C176 C 0.42477 0.06379 0.83687 0.0
C177 C 0.44027 0.199 0.83058 0.0
O178 O 0.42749 0.17128 0.8119 0.0
H179 H 0.4733 0.10286 0.89824 0.0
H180 H 0.38112 0.10389 0.83042 0.0
O181 O 0.41773 0.15829 0.94274 0.0
H182 H 0.27587 0.16242 0.8703 0.0
H183 H 0.41737 0.04321 0.81694 0.0
Cu184 Cu 0.66156 0.91213 0.88984 0.0
N185 N 0.67331 0.86388 0.88046 0.0
N186 N 0.70882 0.8155 0.87199 0.0
C187 C 0.70747 0.85175 0.87671 0.0
C188 C 0.6739 0.80446 0.87262 0.0
C189 C 0.65204 0.83439 0.87793 0.0
O190 O 0.70021 0.93972 0.86636 0.0
C191 C 0.63687 0.90059 0.96179 0.0
O192 O 0.61417 0.87939 0.94403 0.0
H193 H 0.73086 0.86939 0.87774 0.0
H194 H 0.62285 0.8345 0.88061 0.0
N195 N 0.61651 0.92431 0.86975 0.0
N196 N 0.56506 0.95444 0.85856 0.0
C197 C 0.59624 0.95351 0.87821 0.0
C198 C 0.59765 0.90614 0.84389 0.0
C199 C 0.56593 0.92461 0.83694 0.0
C200 C 0.70101 0.94144 0.83118 0.0
O201 O 0.67319 0.929 0.8124 0.0
H202 H 0.60415 0.97344 0.89861 0.0
H203 H 0.60658 0.88146 0.83061 0.0
O204 O 0.66009 0.9186 0.94327 0.0
H205 H 0.66477 0.77667 0.87069 0.0
H206 H 0.54551 0.917 0.81692 0.0
Cu207 Cu 0.6258 0.65967 0.38846 0.0
N208 N 0.67444 0.66943 0.3788 0.0
N209 N 0.72454 0.70227 0.37001 0.0
C210 C 0.68827 0.7029 0.37462 0.0
C211 C 0.73387 0.66691 0.37126 0.0
C212 C 0.70285 0.64669 0.37662 0.0
O213 O 0.59946 0.69927 0.36515 0.0
C214 C 0.63692 0.63486 0.46054 0.0
O215 O 0.65738 0.61144 0.44288 0.0
H216 H 0.67212 0.72732 0.37642 0.0
H217 H 0.70125 0.61758 0.37949 0.0
N218 N 0.61209 0.61509 0.36831 0.0
N219 N 0.58122 0.56402 0.35753 0.0
C220 C 0.58293 0.59501 0.37741 0.0
C221 C 0.62936 0.59629 0.34179 0.0
C222 C 0.61044 0.56482 0.33509 0.0
C223 C 0.59795 0.70045 0.32998 0.0
O224 O 0.60996 0.6726 0.31099 0.0
H225 H 0.56366 0.60287 0.39848 0.0
H226 H 0.6538 0.60507 0.32796 0.0
O227 O 0.61953 0.65848 0.44192 0.0
H228 H 0.76116 0.65642 0.3689 0.0
H229 H 0.61733 0.54449 0.31472 0.0
Cu230 Cu 0.87667 0.62588 0.88925 0.0
N231 N 0.86698 0.6745 0.87953 0.0
N232 N 0.83417 0.72461 0.87074 0.0
C233 C 0.83352 0.68834 0.87522 0.0
C234 C 0.86955 0.73392 0.8722 0.0
C235 C 0.88975 0.7029 0.87757 0.0
O236 O 0.83715 0.59954 0.86572 0.0
C237 C 0.90166 0.63682 0.96125 0.0
O238 O 0.92542 0.65679 0.94349 0.0
H239 H 0.80908 0.6722 0.87687 0.0
H240 H 0.91886 0.70129 0.88063 0.0
N241 N 0.92131 0.61211 0.86933 0.0
N242 N 0.97222 0.58094 0.8586 0.0
C243 C 0.94117 0.58278 0.87836 0.0
C244 C 0.94031 0.62938 0.84299 0.0
C245 C 0.97167 0.61028 0.83631 0.0
C246 C 0.83627 0.59788 0.83054 0.0
O247 O 0.86429 0.60979 0.81178 0.0
H248 H 0.93308 0.56344 0.89925 0.0
H249 H 0.93172 0.65391 0.82923 0.0
O250 O 0.87773 0.61974 0.94271 0.0
H251 H 0.88006 0.76121 0.87001 0.0
H252 H 0.99209 0.61712 0.81603 0.0
Cu253 Cu 0.91203 0.87476 0.39012 0.0
N254 N 0.86381 0.86307 0.38039 0.0
N255 N 0.81544 0.82758 0.3716 0.0
C256 C 0.8517 0.82894 0.37642 0.0
C257 C 0.80439 0.86248 0.37236 0.0
C258 C 0.83431 0.88432 0.37788 0.0
O259 O 0.93976 0.83614 0.36672 0.0
C260 C 0.90029 0.89975 0.46192 0.0
O261 O 0.8795 0.92265 0.44396 0.0
H262 H 0.86936 0.80556 0.37741 0.0
H263 H 0.83439 0.91348 0.38074 0.0
N264 N 0.92443 0.91976 0.3702 0.0
N265 N 0.95492 0.97098 0.35912 0.0
C266 C 0.95377 0.93982 0.37872 0.0
C267 C 0.9064 0.93872 0.34435 0.0
C268 C 0.92509 0.9703 0.33747 0.0
C269 C 0.94183 0.83549 0.33156 0.0
O270 O 0.92965 0.86342 0.31283 0.0
H271 H 0.97364 0.93176 0.39912 0.0
H272 H 0.88168 0.92995 0.33101 0.0
O273 O 0.91814 0.87625 0.44358 0.0
H274 H 0.77658 0.8716 0.37043 0.0
H275 H 0.91765 0.99075 0.31744 0.0
Cu276 Cu 0.66066 0.62543 0.69306 0.0
N277 N 0.67037 0.67408 0.70263 0.0
N278 N 0.70314 0.72419 0.71164 0.0
C279 C 0.70381 0.68792 0.70715 0.0
C280 C 0.66778 0.73352 0.70995 0.0
C281 C 0.6476 0.7025 0.70445 0.0
O282 O 0.70017 0.59918 0.71667 0.0
C283 C 0.63577 0.63611 0.62095 0.0
O284 O 0.61215 0.65636 0.63858 0.0
H285 H 0.72825 0.67176 0.70571 0.0
H286 H 0.6185 0.70089 0.70127 0.0
N287 N 0.61602 0.61181 0.71307 0.0
N288 N 0.5651 0.58076 0.72409 0.0
C289 C 0.59611 0.58244 0.70424 0.0
C290 C 0.5971 0.62925 0.73939 0.0
C291 C 0.56574 0.61022 0.74623 0.0
C292 C 0.70106 0.59765 0.75185 0.0
O293 O 0.67303 0.60962 0.77059 0.0
H294 H 0.60413 0.56298 0.68342 0.0
H295 H 0.60576 0.65384 0.75302 0.0
O296 O 0.65957 0.61899 0.63961 0.0
H297 H 0.65726 0.76081 0.71211 0.0
H298 H 0.54539 0.6172 0.76654 0.0
Cu299 Cu 0.91222 0.66162 0.19359 0.0
N300 N 0.864 0.67338 0.20316 0.0
N301 N 0.81565 0.70895 0.21173 0.0
C302 C 0.85191 0.70754 0.20692 0.0
C303 C 0.80458 0.67405 0.21117 0.0
C304 C 0.83448 0.65216 0.20579 0.0
O305 O 0.93994 0.70017 0.21715 0.0
C306 C 0.90036 0.63702 0.12165 0.0
O307 O 0.87918 0.61438 0.13945 0.0
H308 H 0.86958 0.7309 0.20579 0.0
H309 H 0.83454 0.62298 0.20312 0.0
N310 N 0.92452 0.61657 0.21347 0.0
N311 N 0.9549 0.56527 0.22451 0.0
C312 C 0.95379 0.59644 0.20492 0.0
C313 C 0.90649 0.59764 0.23933 0.0
C314 C 0.92511 0.56602 0.24618 0.0
C315 C 0.94183 0.70082 0.25232 0.0
O316 O 0.92946 0.67292 0.27097 0.0
H317 H 0.97365 0.60447 0.18452 0.0
H318 H 0.88182 0.60648 0.25269 0.0
O319 O 0.91847 0.66022 0.14015 0.0
H320 H 0.77676 0.66496 0.21317 0.0
H321 H 0.91765 0.54559 0.26621 0.0
Cu322 Cu 0.87564 0.91183 0.69414 0.0
N323 N 0.86395 0.86361 0.70364 0.0
N324 N 0.82843 0.81518 0.7118 0.0
C325 C 0.82978 0.85144 0.70713 0.0
C326 C 0.86337 0.8042 0.71144 0.0
C327 C 0.88523 0.83415 0.70631 0.0
O328 O 0.83692 0.93947 0.71748 0.0
C329 C 0.90055 0.90001 0.62233 0.0
O330 O 0.92339 0.87914 0.64029 0.0
H331 H 0.80637 0.86905 0.70588 0.0
H332 H 0.91443 0.83428 0.70379 0.0
N333 N 0.92065 0.92419 0.71422 0.0
N334 N 0.97205 0.95446 0.7253 0.0
C335 C 0.94087 0.95339 0.70566 0.0
C336 C 0.93954 0.90618 0.74014 0.0
C337 C 0.97123 0.92473 0.74702 0.0
C338 C 0.8361 0.94139 0.75265 0.0
O339 O 0.86394 0.92914 0.77149 0.0
H340 H 0.93292 0.97321 0.68518 0.0
H341 H 0.93067 0.88154 0.7535 0.0
O342 O 0.87716 0.91798 0.64069 0.0
H343 H 0.87252 0.77641 0.71338 0.0
H344 H 0.99168 0.91725 0.76706 0.0
Cu345 Cu 0.62617 0.877 0.19421 0.0
N346 N 0.6748 0.86722 0.20391 0.0
N347 N 0.72489 0.83436 0.21279 0.0
C348 C 0.6886 0.83376 0.20827 0.0
C349 C 0.73426 0.86969 0.21129 0.0
C350 C 0.70326 0.88993 0.20587 0.0
O351 O 0.59978 0.83742 0.21746 0.0
C352 C 0.63704 0.9021 0.12221 0.0
O353 O 0.65714 0.92578 0.13997 0.0
H354 H 0.67241 0.80935 0.20665 0.0
H355 H 0.70169 0.91903 0.2028 0.0
N356 N 0.6125 0.92158 0.21439 0.0
N357 N 0.58157 0.97257 0.22532 0.0
C358 C 0.58324 0.94157 0.20544 0.0
C359 C 0.62989 0.94043 0.24081 0.0
C360 C 0.61093 0.97185 0.2476 0.0
C361 C 0.59822 0.83626 0.25264 0.0
O362 O 0.61026 0.86409 0.27165 0.0
H363 H 0.56385 0.93366 0.18449 0.0
H364 H 0.65444 0.93171 0.25451 0.0
O365 O 0.61994 0.87823 0.14074 0.0
H366 H 0.76158 0.88016 0.2135 0.0
H367 H 0.6179 0.99221 0.26793 0.0
C368 C 0.37799 0.11117 1.02229 0.0
C369 C 0.40101 0.13444 1.00229 0.0
H370 H 0.35957 0.09344 0.07546 0.0
C371 C 0.42436 0.15753 1.02194 0.0
H372 H 0.35962 0.09301 1.00808 0.0
C373 C 0.42442 0.15762 0.06063 0.0
C374 C 0.40098 0.13477 0.08063 0.0
H375 H 0.44246 0.17573 1.00746 0.0
H376 H 0.44258 0.17599 0.07484 0.0
C377 C 0.3779 0.11141 0.06098 0.0
C378 C 0.42444 0.37722 0.52261 0.0
C379 C 0.40138 0.4006 0.50277 0.0
H380 H 0.44235 0.35856 0.57565 0.0
C381 C 0.37885 0.42433 0.52258 0.0
H382 H 0.44218 0.35854 0.50827 0.0
C383 C 0.37912 0.42445 0.56127 0.0
C384 C 0.40176 0.40067 0.58111 0.0
H385 H 0.36082 0.44272 0.50822 0.0
H386 H 0.36118 0.44293 0.57561 0.0
C387 C 0.42454 0.37717 0.5613 0.0
C388 C 0.11149 0.37781 1.02257 0.0
C389 C 0.13483 0.40082 1.00288 0.0
H390 H 0.09314 0.3597 0.07551 0.0
C391 C 0.15775 0.42426 1.02284 0.0
H392 H 0.09345 0.35948 1.00812 0.0
C393 C 0.15776 0.42428 0.06153 0.0
C394 C 0.13464 0.40104 0.08123 0.0
H395 H 0.17613 0.44237 1.00859 0.0
H396 H 0.17601 0.44239 0.07598 0.0
C397 C 0.11131 0.37801 0.06127 0.0
C398 C 0.11168 0.15698 0.56136 0.0
C399 C 0.13556 0.13441 0.58095 0.0
H400 H 0.09278 0.17481 0.50851 0.0
C401 C 0.15886 0.11146 0.56089 0.0
H402 H 0.09335 0.17493 0.57589 0.0
C403 C 0.1587 0.11149 0.52219 0.0
C404 C 0.13506 0.13431 0.50261 0.0
H405 H 0.17765 0.0937 0.57505 0.0
H406 H 0.17726 0.09377 0.50766 0.0
C407 C 0.11136 0.15684 0.52267 0.0
C408 C 0.65847 0.92623 0.06114 0.0
C409 C 0.63594 0.90252 0.08117 0.0
H410 H 0.67659 0.94423 1.00795 0.0
C411 C 0.61314 0.87887 0.06154 0.0
H412 H 0.67642 0.94483 0.07534 0.0
C413 C 0.61314 0.87869 1.02284 0.0
C414 C 0.63609 0.902 1.00282 0.0
H415 H 0.59542 0.86031 0.07604 0.0
H416 H 0.5954 0.85989 1.00865 0.0
C417 C 0.65864 0.92589 1.02245 0.0
C418 C 0.65861 0.61154 0.56042 0.0
C419 C 0.63532 0.63479 0.57992 0.0
H420 H 0.67718 0.59316 0.50763 0.0
C421 C 0.61189 0.65754 0.55977 0.0
H422 H 0.67694 0.59365 0.57502 0.0
C423 C 0.61214 0.65745 0.52107 0.0
C424 C 0.63565 0.63441 0.50157 0.0
H425 H 0.59358 0.67584 0.57386 0.0
H426 H 0.59403 0.67556 0.50647 0.0
C427 C 0.65868 0.61127 0.52172 0.0
C428 C 0.9259 0.65835 1.02229 0.0
C429 C 0.90209 0.63584 1.00229 0.0
H430 H 0.94403 0.67653 0.07545 0.0
C431 C 0.87838 0.61317 1.02195 0.0
H432 H 0.94454 0.6762 1.00807 0.0
C433 C 0.87825 0.61327 0.06064 0.0
C434 C 0.90167 0.63619 0.08063 0.0
H435 H 0.85975 0.59547 1.00747 0.0
H436 H 0.85942 0.59562 0.07486 0.0
C437 C 0.92561 0.65861 0.06098 0.0
C438 C 0.92465 0.87764 0.52281 0.0
C439 C 0.9014 0.90063 0.50296 0.0
H440 H 0.94278 0.85959 0.57587 0.0
C441 C 0.87844 0.92415 0.52275 0.0
H442 H 0.94271 0.85925 0.50849 0.0
C443 C 0.87832 0.92426 0.56145 0.0
C444 C 0.90131 0.901 0.5813 0.0
H445 H 0.86015 0.94225 0.50838 0.0
H446 H 0.86004 0.94242 0.57577 0.0
C447 C 0.92468 0.8779 0.5615 0.0
C448 C 0.26724 0.30123 0.22913 0.0
C449 C 0.23417 0.28888 0.21443 0.0
H450 H 0.32295 0.28937 0.24038 0.0
C451 C 0.23233 0.25355 0.20017 0.0
H452 H 0.26937 0.32812 0.24089 0.0
C453 C 0.26305 0.23144 0.19963 0.0
C454 C 0.29642 0.24399 0.21354 0.0
H455 H 0.20745 0.24337 0.18821 0.0
H456 H 0.26072 0.2049 0.1872 0.0
C457 C 0.29798 0.27902 0.22877 0.0
C458 C 0.30179 0.268 0.72945 0.0
C459 C 0.28945 0.30099 0.71463 0.0
H460 H 0.28991 0.21237 0.74089 0.0
C461 C 0.25409 0.30278 0.7004 0.0
H462 H 0.3287 0.26591 0.74119 0.0
C463 C 0.23196 0.27209 0.69997 0.0
C464 C 0.24451 0.23879 0.71397 0.0
H465 H 0.24391 0.3276 0.68836 0.0
H466 H 0.20541 0.27438 0.68754 0.0
C467 C 0.27956 0.23728 0.7292 0.0
C468 C 0.26327 0.30451 0.38421 0.0
C469 C 0.29654 0.29204 0.37001 0.0
H470 H 0.20778 0.29251 0.39595 0.0
C471 C 0.29802 0.25706 0.35464 0.0
H472 H 0.26102 0.331 0.39675 0.0
C473 C 0.26729 0.23483 0.35441 0.0
C474 C 0.23433 0.24711 0.36938 0.0
H475 H 0.3229 0.24677 0.34282 0.0
H476 H 0.26935 0.20799 0.34254 0.0
C477 C 0.23257 0.28238 0.38378 0.0
C478 C 0.25722 0.23716 0.85445 0.0
C479 C 0.2923 0.23862 0.86961 0.0
H480 H 0.20808 0.26586 0.84267 0.0
C481 C 0.30489 0.27187 0.88374 0.0
H482 H 0.24684 0.21229 0.84268 0.0
C483 C 0.28278 0.30258 0.88347 0.0
C484 C 0.2474 0.30084 0.86929 0.0
H485 H 0.33147 0.27411 0.89612 0.0
H486 H 0.293 0.32736 0.89559 0.0
C487 C 0.235 0.2679 0.85437 0.0
C488 C 0.77426 0.80568 0.88378 0.0
C489 C 0.74095 0.79322 0.86964 0.0
H490 H 0.82981 0.79369 0.89535 0.0
C491 C 0.73948 0.75832 0.85408 0.0
H492 H 0.77651 0.83213 0.89644 0.0
C493 C 0.77024 0.73614 0.85364 0.0
C494 C 0.80322 0.74838 0.86863 0.0
H495 H 0.71456 0.74805 0.84228 0.0
H496 H 0.76818 0.70935 0.84164 0.0
C497 C 0.80499 0.7836 0.88317 0.0
C498 C 0.73604 0.76621 0.35309 0.0
C499 C 0.74831 0.73321 0.36795 0.0
H500 H 0.74793 0.82189 0.34192 0.0
C501 C 0.78357 0.73142 0.38242 0.0
H502 H 0.70922 0.76829 0.34115 0.0
C503 C 0.80566 0.76213 0.3831 0.0
C504 C 0.79316 0.79546 0.36911 0.0
H505 H 0.79368 0.70658 0.39449 0.0
H506 H 0.83213 0.75985 0.39572 0.0
C507 C 0.75823 0.79696 0.3536 0.0
C508 C 0.79767 0.75794 0.72925 0.0
C509 C 0.7963 0.79286 0.71377 0.0
H510 H 0.7689 0.70893 0.74128 0.0
C511 C 0.76312 0.80531 0.69933 0.0
H512 H 0.82249 0.74769 0.74126 0.0
C513 C 0.73241 0.78319 0.69958 0.0
C514 C 0.73407 0.74796 0.71406 0.0
H515 H 0.76096 0.83176 0.68671 0.0
H516 H 0.70769 0.79327 0.6872 0.0
C517 C 0.76693 0.73573 0.72933 0.0
C518 C 0.80589 0.77433 0.19982 0.0
C519 C 0.7934 0.7411 0.21405 0.0
H520 H 0.79393 0.82983 0.18814 0.0
C521 C 0.75852 0.73972 0.22964 0.0
H522 H 0.83232 0.7765 0.18713 0.0
C523 C 0.73637 0.7705 0.23003 0.0
C524 C 0.74863 0.8034 0.21495 0.0
H525 H 0.74824 0.71486 0.2415 0.0
H526 H 0.70958 0.76852 0.24205 0.0
C527 C 0.78383 0.80507 0.20038 0.0
C528 C 0.26833 0.08709 0.3304 0.0
C529 C 0.23524 0.08821 0.31122 0.0
H530 H 0.32621 0.08826 0.32676 0.0
C531 C 0.23576 0.08638 0.27236 0.0
H532 H 0.26895 0.08836 0.3603 0.0
C533 C 0.26864 0.08623 0.25307 0.0
C534 C 0.30172 0.08809 0.27223 0.0
H535 H 0.21075 0.08692 0.2567 0.0
H536 H 0.26801 0.08685 0.22316 0.0
C537 C 0.3012 0.08712 0.31111 0.0
C538 C 0.44938 0.26674 0.75266 0.0
C539 C 0.44848 0.29978 0.77193 0.0
H540 H 0.44793 0.20889 0.75617 0.0
C541 C 0.45044 0.29916 0.81078 0.0
H542 H 0.448 0.2662 0.72277 0.0
C543 C 0.45048 0.26626 0.82999 0.0
C544 C 0.44839 0.23324 0.81076 0.0
H545 H 0.45008 0.32413 0.82651 0.0
H546 H 0.44996 0.26682 0.85991 0.0
C547 C 0.44924 0.23384 0.77187 0.0
C548 C 0.26811 0.449 0.25329 0.0
C549 C 0.23505 0.44775 0.2725 0.0
H550 H 0.326 0.44798 0.25689 0.0
C551 C 0.23565 0.44951 0.31136 0.0
H552 H 0.26868 0.44779 0.2234 0.0
C553 C 0.26856 0.44971 0.33063 0.0
C554 C 0.30161 0.44797 0.31144 0.0
H555 H 0.21066 0.44887 0.32705 0.0
H556 H 0.26799 0.44902 0.36054 0.0
C557 C 0.30102 0.44902 0.27256 0.0
C558 C 0.08765 0.234 0.81159 0.0
C559 C 0.08854 0.23345 0.7727 0.0
H560 H 0.0889 0.26629 0.86078 0.0
C561 C 0.08653 0.26648 0.75356 0.0
H562 H 0.08891 0.20902 0.82723 0.0
C563 C 0.08661 0.29936 0.77286 0.0
C564 C 0.08852 0.29994 0.81171 0.0
H565 H 0.08708 0.26708 0.72364 0.0
H566 H 0.08703 0.32435 0.75719 0.0
C567 C 0.08755 0.26688 0.83089 0.0
C568 C 0.73582 0.95091 0.7725 0.0
C569 C 0.73529 0.9496 0.81138 0.0
H570 H 0.76808 0.94992 0.72331 0.0
C571 C 0.76838 0.95124 0.83055 0.0
H572 H 0.71081 0.94997 0.75685 0.0
C573 C 0.80126 0.95114 0.81126 0.0
C574 C 0.80179 0.94958 0.7724 0.0
H575 H 0.769 0.95037 0.86046 0.0
H576 H 0.82627 0.95037 0.82693 0.0
C577 C 0.7687 0.951 0.75322 0.0
C578 C 0.58883 0.76787 0.32997 0.0
C579 C 0.59022 0.73497 0.31048 0.0
H580 H 0.58986 0.82576 0.32688 0.0
C581 C 0.58887 0.73584 0.27162 0.0
H582 H 0.58975 0.76822 0.35988 0.0
C583 C 0.58885 0.76887 0.25264 0.0
C584 C 0.59037 0.80177 0.27213 0.0
H585 H 0.58964 0.71098 0.25572 0.0
H586 H 0.58978 0.76851 0.22273 0.0
C587 C 0.589 0.8009 0.31099 0.0
C588 C 0.76884 0.58858 0.82987 0.0
C589 C 0.80192 0.59003 0.81072 0.0
H590 H 0.71095 0.58945 0.82621 0.0
C591 C 0.80138 0.58859 0.77185 0.0
H592 H 0.76824 0.58956 0.85978 0.0
C593 C 0.76849 0.58844 0.75254 0.0
C594 C 0.73542 0.58991 0.77169 0.0
H595 H 0.82638 0.5894 0.7562 0.0
H596 H 0.7691 0.58932 0.72263 0.0
C597 C 0.73596 0.58862 0.81056 0.0
C598 C 0.9516 0.80092 0.27277 0.0
C599 C 0.95005 0.80129 0.31164 0.0
H600 H 0.95079 0.76888 0.2234 0.0
C601 C 0.95148 0.76815 0.33064 0.0
H602 H 0.95083 0.82598 0.25724 0.0
C603 C 0.9514 0.73536 0.31118 0.0
C604 C 0.95005 0.73499 0.2723 0.0
H605 H 0.95043 0.7674 0.36054 0.0
H606 H 0.95046 0.7103 0.3267 0.0
C607 C 0.95169 0.76813 0.25331 0.0
C608 C 0.53536 0.06284 0.23442 0.0
C609 C 0.49971 0.05465 0.22349 0.0
H610 H 0.58932 0.04352 0.24294 0.0
C611 C 0.49173 0.01908 0.21208 0.0
H612 H 0.54272 0.09004 0.24266 0.0
C613 C 0.5186 0.99229 0.2122 0.0
C614 C 0.55408 1.0004 0.22378 0.0
H615 H 0.46452 1.01165 0.20389 0.0
H616 H 0.51129 0.96503 0.20411 0.0
C617 C 0.56215 0.03609 0.23458 0.0
C618 C 0.50175 0.56104 0.73386 0.0
C619 C 0.53739 0.55314 0.72273 0.0
H620 H 0.448 0.54131 0.74263 0.0
C621 C 0.54555 0.51771 0.71106 0.0
H622 H 0.49425 0.58815 0.74227 0.0
C623 C 0.51887 0.49071 0.71125 0.0
C624 C 0.48342 0.49851 0.72314 0.0
H625 H 0.57276 0.51053 0.70268 0.0
H626 H 0.52631 0.46353 0.70301 0.0
C627 C 0.47515 0.53411 0.73407 0.0
C628 C 0.04476 0.51853 0.21209 0.0
C629 C 0.03667 0.48307 0.22365 0.0
H630 H 0.02537 0.57256 0.20378 0.0
C631 C 1.00096 0.47499 0.23441 0.0
H632 H 0.07203 0.52583 0.20402 0.0
C633 C 0.97419 0.50177 0.23425 0.0
C634 C 0.98237 0.53739 0.22334 0.0
H635 H 0.99355 0.44785 0.24276 0.0
H636 H 0.94698 0.49441 0.24247 0.0
C637 C 1.01794 0.54537 0.21195 0.0
C638 C 0.03574 0.97347 0.73467 0.0
C639 C 1.00004 0.98181 0.72406 0.0
H640 H 0.08987 0.99256 0.74266 0.0
C641 C 0.99209 1.01741 0.71283 0.0
H642 H 0.04304 0.94623 0.74279 0.0
C643 C 0.01905 0.0441 0.71277 0.0
C644 C 0.05464 0.03585 0.72392 0.0
H645 H 0.96484 0.02495 0.70491 0.0
H646 H 1.01174 0.07138 0.70481 0.0
C647 C 0.06266 1.00011 0.7346 0.0
C648 C 0.56194 0.50044 0.34838 0.0
C649 C 0.55382 0.53611 0.35922 0.0
H650 H 0.54261 0.44644 0.34036 0.0
C651 C 0.51838 0.54411 0.37097 0.0
H652 H 0.58907 0.4931 0.33988 0.0
C653 C 0.49159 0.51724 0.37122 0.0
C654 C 0.4996 0.4817 0.35974 0.0
H655 H 0.51105 0.57135 0.37912 0.0
H656 H 0.46441 0.52459 0.37953 0.0
C657 C 0.53522 0.47362 0.34865 0.0
C658 C 0.06218 0.53419 0.84921 0.0
C659 C 0.05384 0.49865 0.86024 0.0
H660 H 0.04315 0.5882 0.8407 0.0
C661 C 1.01833 0.49093 0.87199 0.0
H662 H 0.08938 0.54133 0.84075 0.0
C663 C 0.99168 0.51795 0.87195 0.0
C664 C 0.99991 0.55332 0.86018 0.0
H665 H 1.01083 0.4638 0.8803 0.0
H666 H 0.96442 0.51084 0.88024 0.0
C667 C 0.0356 0.56114 0.84918 0.0
C668 C 1.01803 0.99075 0.37165 0.0
C669 C 0.98245 0.9988 0.36028 0.0
H670 H 0.07216 1.01017 0.37958 0.0
C671 C 0.97432 0.03445 0.34941 0.0
H672 H 0.02541 0.96354 0.37979 0.0
C673 C 1.00114 0.06117 0.34927 0.0
C674 C 0.03684 0.05302 0.36001 0.0
H675 H 0.94711 0.04186 0.34121 0.0
H676 H 0.99376 0.08834 0.34095 0.0
C677 C 0.04489 1.01754 0.37153 0.0
C678 C 0.50135 0.97332 0.84905 0.0
C679 C 0.53703 0.98175 0.85969 0.0
H680 H 0.4472 0.99231 0.84094 0.0
C681 C 0.54492 1.01741 0.87082 0.0
H682 H 0.49409 0.94604 0.841 0.0
C683 C 0.51792 0.04406 0.87078 0.0
C684 C 0.48236 0.03571 0.85961 0.0
H685 H 0.57215 0.02502 0.87874 0.0
H686 H 0.52519 0.07138 0.87867 0.0
C687 C 0.47439 0.99993 0.84902 0.0
loop_
_geom_bond_atom_site_label_1
_geom_bond_atom_site_label_2
_geom_bond_distance
_geom_bond_site_symmetry_2
_ccdc_geom_bond_type
Cu0 N1 1.999 . S
Cu0 O6 1.974 . S
Cu0 N11 1.985 . S
Cu0 O20 1.959 . S
N1 Cu0 1.999 . S
N1 C3 1.263 . S
N1 C5 1.389 . S
N2 C3 1.358 . S
N2 C4 1.400 . S
C3 N1 1.263 . S
C3 N2 1.358 . S
C3 H9 0.930 . S
C4 N2 1.400 . S
C4 C5 1.351 . S
C4 H21 0.930 . S
C5 N1 1.389 . S
C5 C4 1.351 . S
C5 H10 0.930 . S
O6 Cu0 1.974 . S
O6 C16 1.282 . S
C7 O8 1.261 . S
C7 O20 1.251 . S
O8 C7 1.261 . S
H9 C3 0.930 . S
H10 C5 0.930 . S
N11 Cu0 1.985 . S
N11 C13 1.335 . S
N11 C14 1.390 . S
N12 C13 1.345 . S
N12 C15 1.336 . S
C13 N11 1.335 . S
C13 N12 1.345 . S
C13 H18 0.930 . S
C14 N11 1.390 . S
C14 C15 1.346 . S
C14 H19 0.930 . S
C15 N12 1.336 . S
C15 C14 1.346 . S
C15 H22 0.929 1_545 S
C16 O6 1.282 . S
C16 O17 1.216 . S
O17 C16 1.216 . S
H18 C13 0.930 . S
H19 C14 0.930 . S
O20 Cu0 1.959 . S
O20 C7 1.251 . S
H21 C4 0.930 . S
H22 C15 0.929 1_565 S
Cu23 N24 1.999 . S
Cu23 O29 1.974 . S
Cu23 N34 1.985 . S
Cu23 O43 1.959 . S
N24 Cu23 1.999 . S
N24 C26 1.263 . S
N24 C28 1.389 . S
N25 C26 1.358 . S
N25 C27 1.400 . S
C26 N24 1.263 . S
C26 N25 1.358 . S
C26 H32 0.930 . S
C27 N25 1.400 . S
C27 C28 1.351 . S
C27 H44 0.930 . S
C28 N24 1.389 . S
C28 C27 1.351 . S
C28 H33 0.930 . S
O29 Cu23 1.974 . S
O29 C39 1.282 . S
C30 O31 1.261 . S
C30 O43 1.251 . S
O31 C30 1.261 . S
H32 C26 0.930 . S
H33 C28 0.930 . S
N34 Cu23 1.985 . S
N34 C36 1.335 . S
N34 C37 1.390 . S
N35 C36 1.345 . S
N35 C38 1.336 . S
C36 N34 1.335 . S
C36 N35 1.345 . S
C36 H41 0.930 . S
C37 N34 1.390 . S
C37 C38 1.346 . S
C37 H42 0.930 . S
C38 N35 1.336 . S
C38 C37 1.346 . S
C38 H45 0.929 . S
C39 O29 1.282 . S
C39 O40 1.216 . S
O40 C39 1.216 . S
H41 C36 0.930 . S
H42 C37 0.930 . S
O43 Cu23 1.959 . S
O43 C30 1.251 . S
H44 C27 0.930 . S
H45 C38 0.929 . S
Cu46 N47 1.999 . S
Cu46 O52 1.974 . S
Cu46 N57 1.985 . S
Cu46 O66 1.959 . S
N47 Cu46 1.999 . S
N47 C49 1.263 . S
N47 C51 1.389 . S
N48 C49 1.358 . S
N48 C50 1.400 . S
C49 N47 1.263 . S
C49 N48 1.358 . S
C49 H55 0.930 . S
C50 N48 1.400 . S
C50 C51 1.351 . S
C50 H67 0.930 . S
C51 N47 1.389 . S
C51 C50 1.351 . S
C51 H56 0.930 . S
O52 Cu46 1.974 . S
O52 C62 1.282 . S
C53 O54 1.261 . S
C53 O66 1.251 . S
O54 C53 1.261 . S
H55 C49 0.930 . S
H56 C51 0.930 . S
N57 Cu46 1.985 . S
N57 C59 1.335 . S
N57 C60 1.390 . S
N58 C59 1.345 . S
N58 C61 1.336 . S
C59 N57 1.335 . S
C59 N58 1.345 . S
C59 H64 0.930 . S
C60 N57 1.390 . S
C60 C61 1.346 . S
C60 H65 0.930 . S
C61 N58 1.336 . S
C61 C60 1.346 . S
C61 H68 0.929 . S
C62 O52 1.282 . S
C62 O63 1.216 . S
O63 C62 1.216 . S
H64 C59 0.930 . S
H65 C60 0.930 . S
O66 Cu46 1.959 . S
O66 C53 1.251 . S
H67 C50 0.930 . S
H68 C61 0.929 . S
Cu69 N70 1.999 . S
Cu69 O75 1.974 . S
Cu69 N80 1.985 . S
Cu69 O89 1.959 . S
N70 Cu69 1.999 . S
N70 C72 1.263 . S
N70 C74 1.389 . S
N71 C72 1.358 . S
N71 C73 1.400 . S
C72 N70 1.263 . S
C72 N71 1.358 . S
C72 H78 0.930 . S
C73 N71 1.400 . S
C73 C74 1.351 . S
C73 H90 0.930 . S
C74 N70 1.389 . S
C74 C73 1.351 . S
C74 H79 0.930 . S
O75 Cu69 1.974 . S
O75 C85 1.282 . S
C76 O77 1.261 . S
C76 O89 1.251 . S
O77 C76 1.261 . S
H78 C72 0.930 . S
H79 C74 0.930 . S
N80 Cu69 1.985 . S
N80 C82 1.335 . S
N80 C83 1.390 . S
N81 C82 1.345 . S
N81 C84 1.336 . S
C82 N80 1.335 . S
C82 N81 1.345 . S
C82 H87 0.930 . S
C83 N80 1.390 . S
C83 C84 1.346 . S
C83 H88 0.930 . S
C84 N81 1.336 . S
C84 C83 1.346 . S
C84 H91 0.929 1_455 S
C85 O75 1.282 . S
C85 O86 1.216 . S
O86 C85 1.216 . S
H87 C82 0.930 . S
H88 C83 0.930 . S
O89 Cu69 1.959 . S
O89 C76 1.251 . S
H90 C73 0.930 . S
H91 C84 0.929 1_655 S
Cu92 N93 1.999 . S
Cu92 O98 1.974 . S
Cu92 N103 1.985 . S
Cu92 O112 1.959 . S
N93 Cu92 1.999 . S
N93 C95 1.263 . S
N93 C97 1.389 . S
N94 C95 1.358 . S
N94 C96 1.400 . S
C95 N93 1.263 . S
C95 N94 1.358 . S
C95 H101 0.930 . S
C96 N94 1.400 . S
C96 C97 1.351 . S
C96 H113 0.930 . S
C97 N93 1.389 . S
C97 C96 1.351 . S
C97 H102 0.930 . S
O98 Cu92 1.974 . S
O98 C108 1.282 . S
C99 O100 1.261 . S
C99 O112 1.251 . S
O100 C99 1.261 . S
H101 C95 0.930 . S
H102 C97 0.930 . S
N103 Cu92 1.985 . S
N103 C105 1.335 . S
N103 C106 1.390 . S
N104 C105 1.345 . S
N104 C107 1.336 . S
C105 N103 1.335 . S
C105 N104 1.345 . S
C105 H110 0.930 . S
C106 N103 1.390 . S
C106 C107 1.346 . S
C106 H111 0.930 . S
C107 N104 1.336 . S
C107 C106 1.346 . S
C107 H114 0.929 . S
C108 O98 1.282 . S
C108 O109 1.216 . S
O109 C108 1.216 . S
H110 C105 0.930 . S
H111 C106 0.930 . S
O112 Cu92 1.959 . S
O112 C99 1.251 . S
H113 C96 0.930 . S
H114 C107 0.929 . S
Cu115 N116 1.999 . S
Cu115 O121 1.974 . S
Cu115 N126 1.985 . S
Cu115 O135 1.959 . S
N116 Cu115 1.999 . S
N116 C118 1.263 . S
N116 C120 1.389 . S
N117 C118 1.358 . S
N117 C119 1.400 . S
C118 N116 1.263 . S
C118 N117 1.358 . S
C118 H124 0.930 . S
C119 N117 1.400 . S
C119 C120 1.351 . S
C119 H136 0.930 . S
C120 N116 1.389 . S
C120 C119 1.351 . S
C120 H125 0.930 . S
O121 Cu115 1.974 . S
O121 C131 1.282 . S
C122 O123 1.261 . S
C122 O135 1.251 . S
O123 C122 1.261 . S
H124 C118 0.930 . S
H125 C120 0.930 . S
N126 Cu115 1.985 . S
N126 C128 1.335 . S
N126 C129 1.390 . S
N127 C128 1.345 . S
N127 C130 1.336 . S
C128 N126 1.335 . S
C128 N127 1.345 . S
C128 H133 0.930 . S
C129 N126 1.390 . S
C129 C130 1.346 . S
C129 H134 0.930 . S
C130 N127 1.336 . S
C130 C129 1.346 . S
C130 H137 0.929 1_455 S
C131 O121 1.282 . S
C131 O132 1.216 . S
O132 C131 1.216 . S
H133 C128 0.930 . S
H134 C129 0.930 . S
O135 Cu115 1.959 . S
O135 C122 1.251 . S
H136 C119 0.930 . S
H137 C130 0.929 1_655 S
Cu138 N139 1.999 . S
Cu138 O144 1.974 . S
Cu138 N149 1.985 . S
Cu138 O158 1.959 . S
N139 Cu138 1.999 . S
N139 C141 1.263 . S
N139 C143 1.389 . S
N140 C141 1.358 . S
N140 C142 1.400 . S
C141 N139 1.263 . S
C141 N140 1.358 . S
C141 H147 0.930 . S
C142 N140 1.400 . S
C142 C143 1.351 . S
C142 H159 0.930 . S
C143 N139 1.389 . S
C143 C142 1.351 . S
C143 H148 0.930 . S
O144 Cu138 1.974 . S
O144 C154 1.282 . S
C145 O146 1.261 . S
C145 O158 1.251 . S
O146 C145 1.261 . S
H147 C141 0.930 . S
H148 C143 0.930 . S
N149 Cu138 1.985 . S
N149 C151 1.335 . S
N149 C152 1.390 . S
N150 C151 1.345 . S
N150 C153 1.336 . S
C151 N149 1.335 . S
C151 N150 1.345 . S
C151 H156 0.930 . S
C152 N149 1.390 . S
C152 C153 1.346 . S
C152 H157 0.930 . S
C153 N150 1.336 . S
C153 C152 1.346 . S
C153 H160 0.929 1_545 S
C154 O144 1.282 . S
C154 O155 1.216 . S
O155 C154 1.216 . S
H156 C151 0.930 . S
H157 C152 0.930 . S
O158 Cu138 1.959 . S
O158 C145 1.251 . S
H159 C142 0.930 . S
H160 C153 0.929 1_565 S
Cu161 N162 1.999 . S
Cu161 O167 1.974 . S
Cu161 N172 1.985 . S
Cu161 O181 1.959 . S
N162 Cu161 1.999 . S
N162 C164 1.263 . S
N162 C166 1.389 . S
N163 C164 1.358 . S
N163 C165 1.400 . S
C164 N162 1.263 . S
C164 N163 1.358 . S
C164 H170 0.930 . S
C165 N163 1.400 . S
C165 C166 1.351 . S
C165 H182 0.930 . S
C166 N162 1.389 . S
C166 C165 1.351 . S
C166 H171 0.930 . S
O167 Cu161 1.974 . S
O167 C177 1.282 . S
C168 O169 1.261 . S
C168 O181 1.251 . S
O169 C168 1.261 . S
H170 C164 0.930 . S
H171 C166 0.930 . S
N172 Cu161 1.985 . S
N172 C174 1.335 . S
N172 C175 1.390 . S
N173 C174 1.345 . S
N173 C176 1.336 . S
C174 N172 1.335 . S
C174 N173 1.345 . S
C174 H179 0.930 . S
C175 N172 1.390 . S
C175 C176 1.346 . S
C175 H180 0.930 . S
C176 N173 1.336 . S
C176 C175 1.346 . S
C176 H183 0.929 . S
C177 O167 1.282 . S
C177 O178 1.216 . S
O178 C177 1.216 . S
H179 C174 0.930 . S
H180 C175 0.930 . S
O181 Cu161 1.959 . S
O181 C168 1.251 . S
H182 C165 0.930 . S
H183 C176 0.929 . S
Cu184 N185 1.999 . S
Cu184 O190 1.974 . S
Cu184 N195 1.985 . S
Cu184 O204 1.959 . S
N185 Cu184 1.999 . S
N185 C187 1.263 . S
N185 C189 1.389 . S
N186 C187 1.358 . S
N186 C188 1.400 . S
C187 N185 1.263 . S
C187 N186 1.358 . S
C187 H193 0.930 . S
C188 N186 1.400 . S
C188 C189 1.351 . S
C188 H205 0.930 . S
C189 N185 1.389 . S
C189 C188 1.351 . S
C189 H194 0.930 . S
O190 Cu184 1.974 . S
O190 C200 1.282 . S
C191 O192 1.261 . S
C191 O204 1.251 . S
O192 C191 1.261 . S
H193 C187 0.930 . S
H194 C189 0.930 . S
N195 Cu184 1.985 . S
N195 C197 1.335 . S
N195 C198 1.390 . S
N196 C197 1.345 . S
N196 C199 1.336 . S
C197 N195 1.335 . S
C197 N196 1.345 . S
C197 H202 0.930 . S
C198 N195 1.390 . S
C198 C199 1.346 . S
C198 H203 0.930 . S
C199 N196 1.336 . S
C199 C198 1.346 . S
C199 H206 0.929 1_565 S
C200 O190 1.282 . S
C200 O201 1.216 . S
O201 C200 1.216 . S
H202 C197 0.930 . S
H203 C198 0.930 . S
O204 Cu184 1.959 . S
O204 C191 1.251 . S
H205 C188 0.930 . S
H206 C199 0.929 1_545 S
Cu207 N208 1.999 . S
Cu207 O213 1.974 . S
Cu207 N218 1.985 . S
Cu207 O227 1.959 . S
N208 Cu207 1.999 . S
N208 C210 1.263 . S
N208 C212 1.389 . S
N209 C210 1.358 . S
N209 C211 1.400 . S
C210 N208 1.263 . S
C210 N209 1.358 . S
C210 H216 0.930 . S
C211 N209 1.400 . S
C211 C212 1.351 . S
C211 H228 0.930 . S
C212 N208 1.389 . S
C212 C211 1.351 . S
C212 H217 0.930 . S
O213 Cu207 1.974 . S
O213 C223 1.282 . S
C214 O215 1.261 . S
C214 O227 1.251 . S
O215 C214 1.261 . S
H216 C210 0.930 . S
H217 C212 0.930 . S
N218 Cu207 1.985 . S
N218 C220 1.335 . S
N218 C221 1.390 . S
N219 C220 1.345 . S
N219 C222 1.336 . S
C220 N218 1.335 . S
C220 N219 1.345 . S
C220 H225 0.930 . S
C221 N218 1.390 . S
C221 C222 1.346 . S
C221 H226 0.930 . S
C222 N219 1.336 . S
C222 C221 1.346 . S
C222 H229 0.929 . S
C223 O213 1.282 . S
C223 O224 1.216 . S
O224 C223 1.216 . S
H225 C220 0.930 . S
H226 C221 0.930 . S
O227 Cu207 1.959 . S
O227 C214 1.251 . S
H228 C211 0.930 . S
H229 C222 0.929 . S
Cu230 N231 1.999 . S
Cu230 O236 1.974 . S
Cu230 N241 1.985 . S
Cu230 O250 1.959 . S
N231 Cu230 1.999 . S
N231 C233 1.263 . S
N231 C235 1.389 . S
N232 C233 1.358 . S
N232 C234 1.400 . S
C233 N231 1.263 . S
C233 N232 1.358 . S
C233 H239 0.930 . S
C234 N232 1.400 . S
C234 C235 1.351 . S
C234 H251 0.930 . S
C235 N231 1.389 . S
C235 C234 1.351 . S
C235 H240 0.930 . S
O236 Cu230 1.974 . S
O236 C246 1.282 . S
C237 O238 1.261 . S
C237 O250 1.251 . S
O238 C237 1.261 . S
H239 C233 0.930 . S
H240 C235 0.930 . S
N241 Cu230 1.985 . S
N241 C243 1.335 . S
N241 C244 1.390 . S
N242 C243 1.345 . S
N242 C245 1.336 . S
C243 N241 1.335 . S
C243 N242 1.345 . S
C243 H248 0.930 . S
C244 N241 1.390 . S
C244 C245 1.346 . S
C244 H249 0.930 . S
C245 N242 1.336 . S
C245 C244 1.346 . S
C245 H252 0.929 . S
C246 O236 1.282 . S
C246 O247 1.216 . S
O247 C246 1.216 . S
H248 C243 0.930 . S
H249 C244 0.930 . S
O250 Cu230 1.959 . S
O250 C237 1.251 . S
H251 C234 0.930 . S
H252 C245 0.929 . S
Cu253 N254 1.999 . S
Cu253 O259 1.974 . S
Cu253 N264 1.985 . S
Cu253 O273 1.959 . S
N254 Cu253 1.999 . S
N254 C256 1.263 . S
N254 C258 1.389 . S
N255 C256 1.358 . S
N255 C257 1.400 . S
C256 N254 1.263 . S
C256 N255 1.358 . S
C256 H262 0.930 . S
C257 N255 1.400 . S
C257 C258 1.351 . S
C257 H274 0.930 . S
C258 N254 1.389 . S
C258 C257 1.351 . S
C258 H263 0.930 . S
O259 Cu253 1.974 . S
O259 C269 1.282 . S
C260 O261 1.261 . S
C260 O273 1.251 . S
O261 C260 1.261 . S
H262 C256 0.930 . S
H263 C258 0.930 . S
N264 Cu253 1.985 . S
N264 C266 1.335 . S
N264 C267 1.390 . S
N265 C266 1.345 . S
N265 C268 1.336 . S
C266 N264 1.335 . S
C266 N265 1.345 . S
C266 H271 0.930 . S
C267 N264 1.390 . S
C267 C268 1.346 . S
C267 H272 0.930 . S
C268 N265 1.336 . S
C268 C267 1.346 . S
C268 H275 0.929 1_655 S
C269 O259 1.282 . S
C269 O270 1.216 . S
O270 C269 1.216 . S
H271 C266 0.930 . S
H272 C267 0.930 . S
O273 Cu253 1.959 . S
O273 C260 1.251 . S
H274 C257 0.930 . S
H275 C268 0.929 1_455 S
Cu276 N277 1.999 . S
Cu276 O282 1.974 . S
Cu276 N287 1.985 . S
Cu276 O296 1.959 . S
N277 Cu276 1.999 . S
N277 C279 1.263 . S
N277 C281 1.389 . S
N278 C279 1.358 . S
N278 C280 1.400 . S
C279 N277 1.263 . S
C279 N278 1.358 . S
C279 H285 0.930 . S
C280 N278 1.400 . S
C280 C281 1.351 . S
C280 H297 0.930 . S
C281 N277 1.389 . S
C281 C280 1.351 . S
C281 H286 0.930 . S
O282 Cu276 1.974 . S
O282 C292 1.282 . S
C283 O284 1.261 . S
C283 O296 1.251 . S
O284 C283 1.261 . S
H285 C279 0.930 . S
H286 C281 0.930 . S
N287 Cu276 1.985 . S
N287 C289 1.335 . S
N287 C290 1.390 . S
N288 C289 1.345 . S
N288 C291 1.336 . S
C289 N287 1.335 . S
C289 N288 1.345 . S
C289 H294 0.930 . S
C290 N287 1.390 . S
C290 C291 1.346 . S
C290 H295 0.930 . S
C291 N288 1.336 . S
C291 C290 1.346 . S
C291 H298 0.929 . S
C292 O282 1.282 . S
C292 O293 1.216 . S
O293 C292 1.216 . S
H294 C289 0.930 . S
H295 C290 0.930 . S
O296 Cu276 1.959 . S
O296 C283 1.251 . S
H297 C280 0.930 . S
H298 C291 0.929 . S
Cu299 N300 1.999 . S
Cu299 O305 1.974 . S
Cu299 N310 1.985 . S
Cu299 O319 1.959 . S
N300 Cu299 1.999 . S
N300 C302 1.263 . S
N300 C304 1.389 . S
N301 C302 1.358 . S
N301 C303 1.400 . S
C302 N300 1.263 . S
C302 N301 1.358 . S
C302 H308 0.930 . S
C303 N301 1.400 . S
C303 C304 1.351 . S
C303 H320 0.930 . S
C304 N300 1.389 . S
C304 C303 1.351 . S
C304 H309 0.930 . S
O305 Cu299 1.974 . S
O305 C315 1.282 . S
C306 O307 1.261 . S
C306 O319 1.251 . S
O307 C306 1.261 . S
H308 C302 0.930 . S
H309 C304 0.930 . S
N310 Cu299 1.985 . S
N310 C312 1.335 . S
N310 C313 1.390 . S
N311 C312 1.345 . S
N311 C314 1.336 . S
C312 N310 1.335 . S
C312 N311 1.345 . S
C312 H317 0.930 . S
C313 N310 1.390 . S
C313 C314 1.346 . S
C313 H318 0.930 . S
C314 N311 1.336 . S
C314 C313 1.346 . S
C314 H321 0.929 1_655 S
C315 O305 1.282 . S
C315 O316 1.216 . S
O316 C315 1.216 . S
H317 C312 0.930 . S
H318 C313 0.930 . S
O319 Cu299 1.959 . S
O319 C306 1.251 . S
H320 C303 0.930 . S
H321 C314 0.929 1_455 S
Cu322 N323 1.999 . S
Cu322 O328 1.974 . S
Cu322 N333 1.985 . S
Cu322 O342 1.959 . S
N323 Cu322 1.999 . S
N323 C325 1.263 . S
N323 C327 1.389 . S
N324 C325 1.358 . S
N324 C326 1.400 . S
C325 N323 1.263 . S
C325 N324 1.358 . S
C325 H331 0.930 . S
C326 N324 1.400 . S
C326 C327 1.351 . S
C326 H343 0.930 . S
C327 N323 1.389 . S
C327 C326 1.351 . S
C327 H332 0.930 . S
O328 Cu322 1.974 . S
O328 C338 1.282 . S
C329 O330 1.261 . S
C329 O342 1.251 . S
O330 C329 1.261 . S
H331 C325 0.930 . S
H332 C327 0.930 . S
N333 Cu322 1.985 . S
N333 C335 1.335 . S
N333 C336 1.390 . S
N334 C335 1.345 . S
N334 C337 1.336 . S
C335 N333 1.335 . S
C335 N334 1.345 . S
C335 H340 0.930 . S
C336 N333 1.390 . S
C336 C337 1.346 . S
C336 H341 0.930 . S
C337 N334 1.336 . S
C337 C336 1.346 . S
C337 H344 0.929 1_565 S
C338 O328 1.282 . S
C338 O339 1.216 . S
O339 C338 1.216 . S
H340 C335 0.930 . S
H341 C336 0.930 . S
O342 Cu322 1.959 . S
O342 C329 1.251 . S
H343 C326 0.930 . S
H344 C337 0.929 1_545 S
Cu345 N346 1.999 . S
Cu345 O351 1.974 . S
Cu345 N356 1.985 . S
Cu345 O365 1.959 . S
N346 Cu345 1.999 . S
N346 C348 1.263 . S
N346 C350 1.389 . S
N347 C348 1.358 . S
N347 C349 1.400 . S
C348 N346 1.263 . S
C348 N347 1.358 . S
C348 H354 0.930 . S
C349 N347 1.400 . S
C349 C350 1.351 . S
C349 H366 0.930 . S
C350 N346 1.389 . S
C350 C349 1.351 . S
C350 H355 0.930 . S
O351 Cu345 1.974 . S
O351 C361 1.282 . S
C352 O353 1.261 . S
C352 O365 1.251 . S
O353 C352 1.261 . S
H354 C348 0.930 . S
H355 C350 0.930 . S
N356 Cu345 1.985 . S
N356 C358 1.335 . S
N356 C359 1.390 . S
N357 C358 1.345 . S
N357 C360 1.336 . S
C358 N356 1.335 . S
C358 N357 1.345 . S
C358 H363 0.930 . S
C359 N356 1.390 . S
C359 C360 1.346 . S
C359 H364 0.930 . S
C360 N357 1.336 . S
C360 C359 1.346 . S
C360 H367 0.929 . S
C361 O351 1.282 . S
C361 O362 1.216 . S
O362 C361 1.216 . S
H363 C358 0.930 . S
H364 C359 0.930 . S
O365 Cu345 1.959 . S
O365 C352 1.251 . S
H366 C349 0.930 . S
H367 C360 0.929 . S
C368 C369 1.387 . S
C368 H372 0.950 . S
C368 C377 1.390 1_556 S
C369 C368 1.387 . S
C369 C371 1.387 . S
H370 C377 0.950 . S
C371 C369 1.387 . S
C371 C373 1.390 1_556 S
C371 H375 0.950 . S
H372 C368 0.950 . S
C373 C371 1.390 1_554 S
C373 C374 1.387 . S
C373 H376 0.950 . S
C374 C373 1.387 . S
C374 C377 1.387 . S
H375 C371 0.950 . S
H376 C373 0.950 . S
C377 C368 1.390 1_554 S
C377 H370 0.950 . S
C377 C374 1.387 . S
C378 C379 1.387 . S
C378 H382 0.950 . S
C378 C387 1.390 . S
C379 C378 1.387 . S
C379 C381 1.387 . S
H380 C387 0.950 . S
C381 C379 1.387 . S
C381 C383 1.390 . S
C381 H385 0.950 . S
H382 C378 0.950 . S
C383 C381 1.390 . S
C383 C384 1.387 . S
C383 H386 0.950 . S
C384 C383 1.387 . S
C384 C387 1.387 . S
H385 C381 0.950 . S
H386 C383 0.950 . S
C387 C378 1.390 . S
C387 H380 0.950 . S
C387 C384 1.387 . S
C388 C389 1.387 . S
C388 H392 0.950 . S
C388 C397 1.390 1_556 S
C389 C388 1.387 . S
C389 C391 1.387 . S
H390 C397 0.950 . S
C391 C389 1.387 . S
C391 C393 1.390 1_556 S
C391 H395 0.950 . S
H392 C388 0.950 . S
C393 C391 1.390 1_554 S
C393 C394 1.387 . S
C393 H396 0.950 . S
C394 C393 1.387 . S
C394 C397 1.387 . S
H395 C391 0.950 . S
H396 C393 0.950 . S
C397 C388 1.390 1_554 S
C397 H390 0.950 . S
C397 C394 1.387 . S
C398 C399 1.387 . S
C398 H402 0.950 . S
C398 C407 1.390 . S
C399 C398 1.387 . S
C399 C401 1.387 . S
H400 C407 0.950 . S
C401 C399 1.387 . S
C401 C403 1.390 . S
C401 H405 0.950 . S
H402 C398 0.950 . S
C403 C401 1.390 . S
C403 C404 1.387 . S
C403 H406 0.950 . S
C404 C403 1.387 . S
C404 C407 1.387 . S
H405 C401 0.950 . S
H406 C403 0.950 . S
C407 C398 1.390 . S
C407 H400 0.950 . S
C407 C404 1.387 . S
C408 C409 1.387 . S
C408 H412 0.950 . S
C408 C417 1.390 1_554 S
C409 C408 1.387 . S
C409 C411 1.387 . S
H410 C417 0.950 . S
C411 C409 1.387 . S
C411 C413 1.390 1_554 S
C411 H415 0.950 . S
H412 C408 0.950 . S
C413 C411 1.390 1_556 S
C413 C414 1.387 . S
C413 H416 0.950 . S
C414 C413 1.387 . S
C414 C417 1.387 . S
H415 C411 0.950 . S
H416 C413 0.950 . S
C417 C408 1.390 1_556 S
C417 H410 0.950 . S
C417 C414 1.387 . S
C418 C419 1.387 . S
C418 H422 0.950 . S
C418 C427 1.390 . S
C419 C418 1.387 . S
C419 C421 1.387 . S
H420 C427 0.950 . S
C421 C419 1.387 . S
C421 C423 1.390 . S
C421 H425 0.950 . S
H422 C418 0.950 . S
C423 C421 1.390 . S
C423 C424 1.387 . S
C423 H426 0.950 . S
C424 C423 1.387 . S
C424 C427 1.387 . S
H425 C421 0.950 . S
H426 C423 0.950 . S
C427 C418 1.390 . S
C427 H420 0.950 . S
C427 C424 1.387 . S
C428 C429 1.387 . S
C428 H432 0.950 . S
C428 C437 1.390 1_556 S
C429 C428 1.387 . S
C429 C431 1.387 . S
H430 C437 0.950 . S
C431 C429 1.387 . S
C431 C433 1.390 1_556 S
C431 H435 0.950 . S
H432 C428 0.950 . S
C433 C431 1.390 1_554 S
C433 C434 1.387 . S
C433 H436 0.950 . S
C434 C433 1.387 . S
C434 C437 1.387 . S
H435 C431 0.950 . S
H436 C433 0.950 . S
C437 C428 1.390 1_554 S
C437 H430 0.950 . S
C437 C434 1.387 . S
C438 C439 1.387 . S
C438 H442 0.950 . S
C438 C447 1.390 . S
C439 C438 1.387 . S
C439 C441 1.387 . S
H440 C447 0.950 . S
C441 C439 1.387 . S
C441 C443 1.390 . S
C441 H445 0.950 . S
H442 C438 0.950 . S
C443 C441 1.390 . S
C443 C444 1.387 . S
C443 H446 0.950 . S
C444 C443 1.387 . S
C444 C447 1.387 . S
H445 C441 0.950 . S
H446 C443 0.950 . S
C447 C438 1.390 . S
C447 H440 0.950 . S
C447 C444 1.387 . S
C448 C449 1.387 . S
C448 H452 0.950 . S
C448 C457 1.390 . S
C449 C448 1.387 . S
C449 C451 1.387 . S
H450 C457 0.950 . S
C451 C449 1.387 . S
C451 C453 1.390 . S
C451 H455 0.950 . S
H452 C448 0.950 . S
C453 C451 1.390 . S
C453 C454 1.387 . S
C453 H456 0.950 . S
C454 C453 1.387 . S
C454 C457 1.387 . S
H455 C451 0.950 . S
H456 C453 0.950 . S
C457 C448 1.390 . S
C457 H450 0.950 . S
C457 C454 1.387 . S
C458 C459 1.387 . S
C458 H462 0.950 . S
C458 C467 1.390 . S
C459 C458 1.387 . S
C459 C461 1.387 . S
H460 C467 0.950 . S
C461 C459 1.387 . S
C461 C463 1.390 . S
C461 H465 0.950 . S
H462 C458 0.950 . S
C463 C461 1.390 . S
C463 C464 1.387 . S
C463 H466 0.950 . S
C464 C463 1.387 . S
C464 C467 1.387 . S
H465 C461 0.950 . S
H466 C463 0.950 . S
C467 C458 1.390 . S
C467 H460 0.950 . S
C467 C464 1.387 . S
C468 C469 1.387 . S
C468 H472 0.950 . S
C468 C477 1.390 . S
C469 C468 1.387 . S
C469 C471 1.387 . S
H470 C477 0.950 . S
C471 C469 1.387 . S
C471 C473 1.390 . S
C471 H475 0.950 . S
H472 C468 0.950 . S
C473 C471 1.390 . S
C473 C474 1.387 . S
C473 H476 0.950 . S
C474 C473 1.387 . S
C474 C477 1.387 . S
H475 C471 0.950 . S
H476 C473 0.950 . S
C477 C468 1.390 . S
C477 H470 0.950 . S
C477 C474 1.387 . S
C478 C479 1.387 . S
C478 H482 0.950 . S
C478 C487 1.390 . S
C479 C478 1.387 . S
C479 C481 1.387 . S
H480 C487 0.950 . S
C481 C479 1.387 . S
C481 C483 1.390 . S
C481 H485 0.950 . S
H482 C478 0.950 . S
C483 C481 1.390 . S
C483 C484 1.387 . S
C483 H486 0.950 . S
C484 C483 1.387 . S
C484 C487 1.387 . S
H485 C481 0.950 . S
H486 C483 0.950 . S
C487 C478 1.390 . S
C487 H480 0.950 . S
C487 C484 1.387 . S
C488 C489 1.387 . S
C488 H492 0.950 . S
C488 C497 1.390 . S
C489 C488 1.387 . S
C489 C491 1.387 . S
H490 C497 0.950 . S
C491 C489 1.387 . S
C491 C493 1.390 . S
C491 H495 0.950 . S
H492 C488 0.950 . S
C493 C491 1.390 . S
C493 C494 1.387 . S
C493 H496 0.950 . S
C494 C493 1.387 . S
C494 C497 1.387 . S
H495 C491 0.950 . S
H496 C493 0.950 . S
C497 C488 1.390 . S
C497 H490 0.950 . S
C497 C494 1.387 . S
C498 C499 1.387 . S
C498 H502 0.950 . S
C498 C507 1.390 . S
C499 C498 1.387 . S
C499 C501 1.387 . S
H500 C507 0.950 . S
C501 C499 1.387 . S
C501 C503 1.390 . S
C501 H505 0.950 . S
H502 C498 0.950 . S
C503 C501 1.390 . S
C503 C504 1.387 . S
C503 H506 0.950 . S
C504 C503 1.387 . S
C504 C507 1.387 . S
H505 C501 0.950 . S
H506 C503 0.950 . S
C507 C498 1.390 . S
C507 H500 0.950 . S
C507 C504 1.387 . S
C508 C509 1.387 . S
C508 H512 0.950 . S
C508 C517 1.390 . S
C509 C508 1.387 . S
C509 C511 1.387 . S
H510 C517 0.950 . S
C511 C509 1.387 . S
C511 C513 1.390 . S
C511 H515 0.950 . S
H512 C508 0.950 . S
C513 C511 1.390 . S
C513 C514 1.387 . S
C513 H516 0.950 . S
C514 C513 1.387 . S
C514 C517 1.387 . S
H515 C511 0.950 . S
H516 C513 0.950 . S
C517 C508 1.390 . S
C517 H510 0.950 . S
C517 C514 1.387 . S
C518 C519 1.387 . S
C518 H522 0.950 . S
C518 C527 1.390 . S
C519 C518 1.387 . S
C519 C521 1.387 . S
H520 C527 0.950 . S
C521 C519 1.387 . S
C521 C523 1.390 . S
C521 H525 0.950 . S
H522 C518 0.950 . S
C523 C521 1.390 . S
C523 C524 1.387 . S
C523 H526 0.950 . S
C524 C523 1.387 . S
C524 C527 1.387 . S
H525 C521 0.950 . S
H526 C523 0.950 . S
C527 C518 1.390 . S
C527 H520 0.950 . S
C527 C524 1.387 . S
C528 C529 1.387 . S
C528 H532 0.950 . S
C528 C537 1.390 . S
C529 C528 1.387 . S
C529 C531 1.387 . S
H530 C537 0.950 . S
C531 C529 1.387 . S
C531 C533 1.390 . S
C531 H535 0.950 . S
H532 C528 0.950 . S
C533 C531 1.390 . S
C533 C534 1.387 . S
C533 H536 0.950 . S
C534 C533 1.387 . S
C534 C537 1.387 . S
H535 C531 0.950 . S
H536 C533 0.950 . S
C537 C528 1.390 . S
C537 H530 0.950 . S
C537 C534 1.387 . S
C538 C539 1.387 . S
C538 H542 0.950 . S
C538 C547 1.390 . S
C539 C538 1.387 . S
C539 C541 1.387 . S
H540 C547 0.950 . S
C541 C539 1.387 . S
C541 C543 1.390 . S
C541 H545 0.950 . S
H542 C538 0.950 . S
C543 C541 1.390 . S
C543 C544 1.387 . S
C543 H546 0.950 . S
C544 C543 1.387 . S
C544 C547 1.387 . S
H545 C541 0.950 . S
H546 C543 0.950 . S
C547 C538 1.390 . S
C547 H540 0.950 . S
C547 C544 1.387 . S
C548 C549 1.387 . S
C548 H552 0.950 . S
C548 C557 1.390 . S
C549 C548 1.387 . S
C549 C551 1.387 . S
H550 C557 0.950 . S
C551 C549 1.387 . S
C551 C553 1.390 . S
C551 H555 0.950 . S
H552 C548 0.950 . S
C553 C551 1.390 . S
C553 C554 1.387 . S
C553 H556 0.950 . S
C554 C553 1.387 . S
C554 C557 1.387 . S
H555 C551 0.950 . S
H556 C553 0.950 . S
C557 C548 1.390 . S
C557 H550 0.950 . S
C557 C554 1.387 . S
C558 C559 1.387 . S
C558 H562 0.950 . S
C558 C567 1.390 . S
C559 C558 1.387 . S
C559 C561 1.387 . S
H560 C567 0.950 . S
C561 C559 1.387 . S
C561 C563 1.390 . S
C561 H565 0.950 . S
H562 C558 0.950 . S
C563 C561 1.390 . S
C563 C564 1.387 . S
C563 H566 0.950 . S
C564 C563 1.387 . S
C564 C567 1.387 . S
H565 C561 0.950 . S
H566 C563 0.950 . S
C567 C558 1.390 . S
C567 H560 0.950 . S
C567 C564 1.387 . S
C568 C569 1.387 . S
C568 H572 0.950 . S
C568 C577 1.390 . S
C569 C568 1.387 . S
C569 C571 1.387 . S
H570 C577 0.950 . S
C571 C569 1.387 . S
C571 C573 1.390 . S
C571 H575 0.950 . S
H572 C568 0.950 . S
C573 C571 1.390 . S
C573 C574 1.387 . S
C573 H576 0.950 . S
C574 C573 1.387 . S
C574 C577 1.387 . S
H575 C571 0.950 . S
H576 C573 0.950 . S
C577 C568 1.390 . S
C577 H570 0.950 . S
C577 C574 1.387 . S
C578 C579 1.387 . S
C578 H582 0.950 . S
C578 C587 1.390 . S
C579 C578 1.387 . S
C579 C581 1.387 . S
H580 C587 0.950 . S
C581 C579 1.387 . S
C581 C583 1.390 . S
C581 H585 0.950 . S
H582 C578 0.950 . S
C583 C581 1.390 . S
C583 C584 1.387 . S
C583 H586 0.950 . S
C584 C583 1.387 . S
C584 C587 1.387 . S
H585 C581 0.950 . S
H586 C583 0.950 . S
C587 C578 1.390 . S
C587 H580 0.950 . S
C587 C584 1.387 . S
C588 C589 1.387 . S
C588 H592 0.950 . S
C588 C597 1.390 . S
C589 C588 1.387 . S
C589 C591 1.387 . S
H590 C597 0.950 . S
C591 C589 1.387 . S
C591 C593 1.390 . S
C591 H595 0.950 . S
H592 C588 0.950 . S
C593 C591 1.390 . S
C593 C594 1.387 . S
C593 H596 0.950 . S
C594 C593 1.387 . S
C594 C597 1.387 . S
H595 C591 0.950 . S
H596 C593 0.950 . S
C597 C588 1.390 . S
C597 H590 0.950 . S
C597 C594 1.387 . S
C598 C599 1.387 . S
C598 H602 0.950 . S
C598 C607 1.390 . S
C599 C598 1.387 . S
C599 C601 1.387 . S
H600 C607 0.950 . S
C601 C599 1.387 . S
C601 C603 1.390 . S
C601 H605 0.950 . S
H602 C598 0.950 . S
C603 C601 1.390 . S
C603 C604 1.387 . S
C603 H606 0.950 . S
C604 C603 1.387 . S
C604 C607 1.387 . S
H605 C601 0.950 . S
H606 C603 0.950 . S
C607 C598 1.390 . S
C607 H600 0.950 . S
C607 C604 1.387 . S
C608 C609 1.387 . S
C608 H612 0.950 . S
C608 C617 1.390 . S
C609 C608 1.387 . S
C609 C611 1.387 . S
H610 C617 0.950 . S
C611 C609 1.387 . S
C611 C613 1.390 . S
C611 H615 0.950 . S
H612 C608 0.950 . S
C613 C611 1.390 . S
C613 C614 1.387 . S
C613 H616 0.950 . S
C614 C613 1.387 . S
C614 C617 1.387 . S
H615 C611 0.950 . S
H616 C613 0.950 . S
C617 C608 1.390 . S
C617 H610 0.950 . S
C617 C614 1.387 . S
C618 C619 1.387 . S
C618 H622 0.950 . S
C618 C627 1.390 . S
C619 C618 1.387 . S
C619 C621 1.387 . S
H620 C627 0.950 . S
C621 C619 1.387 . S
C621 C623 1.390 . S
C621 H625 0.950 . S
H622 C618 0.950 . S
C623 C621 1.390 . S
C623 C624 1.387 . S
C623 H626 0.950 . S
C624 C623 1.387 . S
C624 C627 1.387 . S
H625 C621 0.950 . S
H626 C623 0.950 . S
C627 C618 1.390 . S
C627 H620 0.950 . S
C627 C624 1.387 . S
C628 C629 1.387 . S
C628 H632 0.950 . S
C628 C637 1.390 . S
C629 C628 1.387 . S
C629 C631 1.387 . S
H630 C637 0.950 . S
C631 C629 1.387 . S
C631 C633 1.390 . S
C631 H635 0.950 . S
H632 C628 0.950 . S
C633 C631 1.390 . S
C633 C634 1.387 . S
C633 H636 0.950 . S
C634 C633 1.387 . S
C634 C637 1.387 . S
H635 C631 0.950 . S
H636 C633 0.950 . S
C637 C628 1.390 . S
C637 H630 0.950 . S
C637 C634 1.387 . S
C638 C639 1.387 . S
C638 H642 0.950 . S
C638 C647 1.390 . S
C639 C638 1.387 . S
C639 C641 1.387 . S
H640 C647 0.950 . S
C641 C639 1.387 . S
C641 C643 1.390 . S
C641 H645 0.950 . S
H642 C638 0.950 . S
C643 C641 1.390 . S
C643 C644 1.387 . S
C643 H646 0.950 . S
C644 C643 1.387 . S
C644 C647 1.387 . S
H645 C641 0.950 . S
H646 C643 0.950 . S
C647 C638 1.390 . S
C647 H640 0.950 . S
C647 C644 1.387 . S
C648 C649 1.387 . S
C648 H652 0.950 . S
C648 C657 1.390 . S
C649 C648 1.387 . S
C649 C651 1.387 . S
H650 C657 0.950 . S
C651 C649 1.387 . S
C651 C653 1.390 . S
C651 H655 0.950 . S
H652 C648 0.950 . S
C653 C651 1.390 . S
C653 C654 1.387 . S
C653 H656 0.950 . S
C654 C653 1.387 . S
C654 C657 1.387 . S
H655 C651 0.950 . S
H656 C653 0.950 . S
C657 C648 1.390 . S
C657 H650 0.950 . S
C657 C654 1.387 . S
C658 C659 1.387 . S
C658 H662 0.950 . S
C658 C667 1.390 . S
C659 C658 1.387 . S
C659 C661 1.387 . S
H660 C667 0.950 . S
C661 C659 1.387 . S
C661 C663 1.390 . S
C661 H665 0.950 . S
H662 C658 0.950 . S
C663 C661 1.390 . S
C663 C664 1.387 . S
C663 H666 0.950 . S
C664 C663 1.387 . S
C664 C667 1.387 . S
H665 C661 0.950 . S
H666 C663 0.950 . S
C667 C658 1.390 . S
C667 H660 0.950 . S
C667 C664 1.387 . S
C668 C669 1.387 . S
C668 H672 0.950 . S
C668 C677 1.390 . S
C669 C668 1.387 . S
C669 C671 1.387 . S
H670 C677 0.950 . S
C671 C669 1.387 . S
C671 C673 1.390 . S
C671 H675 0.950 . S
H672 C668 0.950 . S
C673 C671 1.390 . S
C673 C674 1.387 . S
C673 H676 0.950 . S
C674 C673 1.387 . S
C674 C677 1.387 . S
H675 C671 0.950 . S
H676 C673 0.950 . S
C677 C668 1.390 . S
C677 H670 0.950 . S
C677 C674 1.387 . S
C678 C679 1.387 . S
C678 H682 0.950 . S
C678 C687 1.390 . S
C679 C678 1.387 . S
C679 C681 1.387 . S
H680 C687 0.950 . S
C681 C679 1.387 . S
C681 C683 1.390 . S
C681 H685 0.950 . S
H682 C678 0.950 . S
C683 C681 1.390 . S
C683 C684 1.387 . S
C683 H686 0.950 . S
C684 C683 1.387 . S
C684 C687 1.387 . S
H685 C681 0.950 . S
H686 C683 0.950 . S
C687 C678 1.390 . S
C687 H680 0.950 . S
C687 C684 1.387 . S
C369 C168 1.646 . S
C374 C7 1.644 . S
C379 C99 1.646 . S
C384 C30 1.645 . S
C389 C122 1.645 . S
C394 C53 1.646 . S
C399 C76 1.644 . S
C404 C145 1.646 . S
C409 C352 1.645 . S
C414 C191 1.646 . S
C419 C283 1.645 . S
C424 C214 1.645 . S
C429 C237 1.645 . S
C434 C306 1.646 . S
C439 C260 1.645 . S
C444 C329 1.645 . S
C449 N48 1.330 . S
C454 N2 1.330 . S
C459 N25 1.330 . S
C464 N71 1.330 . S
C469 N94 1.326 . S
C474 N140 1.326 . S
C479 N163 1.330 . S
C484 N117 1.330 . S
C489 N186 1.330 . S
C494 N232 1.330 . S
C499 N209 1.326 . S
C504 N255 1.326 . S
C509 N324 1.326 . S
C514 N278 1.326 . S
C519 N301 1.330 . S
C524 N347 1.330 . S
C529 C154 1.616 . S
C534 C16 1.616 . S
C539 C39 1.616 . S
C544 C177 1.616 . S
C549 C62 1.616 . S
C554 C108 1.616 . S
C559 C85 1.616 . S
C564 C131 1.616 . S
C569 C200 1.616 . S
C574 C338 1.616 . S
C579 C223 1.613 . S
C584 C361 1.613 . S
C589 C246 1.613 . S
C594 C292 1.613 . S
C599 C269 1.616 . S
C604 C315 1.616 . S
C609 N12 1.470 1_565 S
C614 N357 1.469 . S
C619 N288 1.469 . S
C624 N35 1.470 . S
C629 N58 1.469 . S
C634 N311 1.470 1_455 S
C639 N334 1.469 1_545 S
C644 N81 1.470 1_655 S
C649 N219 1.469 . S
C654 N104 1.470 . S
C659 N127 1.470 1_655 S
C664 N242 1.469 . S
C669 N265 1.470 1_455 S
C674 N150 1.469 1_565 S
C679 N196 1.469 1_545 S
C684 N173 1.470 . S
