# Generated by pormake.
# Topology umg, (4)-cn, num edge types: 1
# Building blocks:
#     Node 0, Type 0, BuildingBlock: GALJAG_clean_sbu_0, # of connection points: 4
#     Node 1, Type 0, BuildingBlock: GALJAG_clean_sbu_0, # of connection points: 4
#     Node 2, Type 0, BuildingBlock: GALJAG_clean_sbu_0, # of connection points: 4
#     Node 3, Type 0, BuildingBlock: GALJAG_clean_sbu_0, # of connection points: 4
#     Node 4, Type 0, BuildingBlock: GALJAG_clean_sbu_0, # of connection points: 4
#     Node 5, Type 0, BuildingBlock: GALJAG_clean_sbu_0, # of connection points: 4
#     Node 6, Type 0, BuildingBlock: GALJAG_clean_sbu_0, # of connection points: 4
#     Node 7, Type 0, BuildingBlock: GALJAG_clean_sbu_0, # of connection points: 4
#     Node 8, Type 0, BuildingBlock: GALJAG_clean_sbu_0, # of connection points: 4
#     Node 9, Type 0, BuildingBlock: GALJAG_clean_sbu_0, # of connection points: 4
#     Node 10, Type 0, BuildingBlock: GALJAG_clean_sbu_0, # of connection points: 4
#     Node 11, Type 0, BuildingBlock: GALJAG_clean_sbu_0, # of connection points: 4
#     Edge 12, Type (0, 0), BuildingBlock: MIFKUJ_clean_linker_0, # of connection points: 2
#     Edge 13, Type (0, 0), BuildingBlock: MIFKUJ_clean_linker_0, # of connection points: 2
#     Edge 14, Type (0, 0), BuildingBlock: MIFKUJ_clean_linker_0, # of connection points: 2
#     Edge 15, Type (0, 0), BuildingBlock: MIFKUJ_clean_linker_0, # of connection points: 2
#     Edge 16, Type (0, 0), BuildingBlock: MIFKUJ_clean_linker_0, # of connection points: 2
#     Edge 17, Type (0, 0), BuildingBlock: MIFKUJ_clean_linker_0, # of connection points: 2
#     Edge 18, Type (0, 0), BuildingBlock: MIFKUJ_clean_linker_0, # of connection points: 2
#     Edge 19, Type (0, 0), BuildingBlock: MIFKUJ_clean_linker_0, # of connection points: 2
#     Edge 20, Type (0, 0), BuildingBlock: MIFKUJ_clean_linker_0, # of connection points: 2
#     Edge 21, Type (0, 0), BuildingBlock: MIFKUJ_clean_linker_0, # of connection points: 2
#     Edge 22, Type (0, 0), BuildingBlock: MIFKUJ_clean_linker_0, # of connection points: 2
#     Edge 23, Type (0, 0), BuildingBlock: MIFKUJ_clean_linker_0, # of connection points: 2
#     Edge 24, Type (0, 0), BuildingBlock: MIFKUJ_clean_linker_0, # of connection points: 2
#     Edge 25, Type (0, 0), BuildingBlock: MIFKUJ_clean_linker_0, # of connection points: 2
#     Edge 26, Type (0, 0), BuildingBlock: MIFKUJ_clean_linker_0, # of connection points: 2
#     Edge 27, Type (0, 0), BuildingBlock: MIFKUJ_clean_linker_0, # of connection points: 2
#     Edge 28, Type (0, 0), BuildingBlock: MIFKUJ_clean_linker_0, # of connection points: 2
#     Edge 29, Type (0, 0), BuildingBlock: MIFKUJ_clean_linker_0, # of connection points: 2
#     Edge 30, Type (0, 0), BuildingBlock: MIFKUJ_clean_linker_0, # of connection points: 2
#     Edge 31, Type (0, 0), BuildingBlock: MIFKUJ_clean_linker_0, # of connection points: 2
#     Edge 32, Type (0, 0), BuildingBlock: MIFKUJ_clean_linker_0, # of connection points: 2
#     Edge 33, Type (0, 0), BuildingBlock: MIFKUJ_clean_linker_0, # of connection points: 2
#     Edge 34, Type (0, 0), BuildingBlock: MIFKUJ_clean_linker_0, # of connection points: 2
#     Edge 35, Type (0, 0), BuildingBlock: MIFKUJ_clean_linker_0, # of connection points: 2
# Relax obj value: 0.078
# Max RMSD: 0.205
# Mean RMSD: 0.205
data_MOF--net-umg--node1-GALJAG_clean_sbu_0--edge1-MIFKUJ_clean_linker_0
_symmetry_space_group_name_H-M    P1
_symmetry_Int_Tables_number       1
_symmetry_cell_setting            triclinic
loop_
_symmetry_equiv_pos_as_xyz
'x, y, z'
_cell_length_a     37.246655
_cell_length_b     37.248824
_cell_length_c     111.81065
_cell_angle_alpha  90.011531
_cell_angle_beta   89.959924
_cell_angle_gamma 119.99654
loop_
_atom_site_label
_atom_site_type_symbol
_atom_site_fract_x
_atom_site_fract_y
_atom_site_fract_z
_atom_type_partial_charge
In0 In 0.30195 0.59022 0.08143 0.0
O1 O 0.32815 0.64964 0.0702 0.0
O2 O 0.28984 0.59133 0.06175 0.0
C3 C 0.32464 0.61683 0.10397 0.0
C4 C 0.35273 0.55914 0.07777 0.0
C5 C 0.21906 0.55675 0.0831 0.0
O6 O 0.33133 0.6417 0.09543 0.0
O7 O 0.30653 0.57903 0.10108 0.0
O8 O 0.23537 0.53562 0.07978 0.0
O9 O 0.24454 0.59387 0.08581 0.0
C10 C 0.31073 0.63024 0.0607 0.0
O11 O 0.31472 0.53601 0.08024 0.0
O12 O 0.36433 0.59717 0.07693 0.0
In13 In 0.69828 0.29469 0.40862 0.0
O14 O 0.76453 0.30595 0.40692 0.0
O15 O 0.75534 0.358 0.40818 0.0
C16 C 0.64487 0.21227 0.40878 0.0
C17 C 0.68094 0.31524 0.38726 0.0
C18 C 0.69143 0.31125 0.43157 0.0
O19 O 0.68361 0.22703 0.4077 0.0
O20 O 0.63367 0.23901 0.40965 0.0
O21 O 0.67454 0.32065 0.42325 0.0
O22 O 0.71096 0.29342 0.42824 0.0
C23 C 0.78075 0.34508 0.40722 0.0
O24 O 0.66986 0.32472 0.39692 0.0
O25 O 0.69958 0.295 0.38853 0.0
In26 In 0.3958 0.69025 0.74694 0.0
O27 O 0.33761 0.66121 0.73507 0.0
O28 O 0.39677 0.70005 0.72711 0.0
C29 C 0.37081 0.6772 0.7698 0.0
C30 C 0.43083 0.7733 0.74769 0.0
C31 C 0.42356 0.63613 0.74501 0.0
O32 O 0.34595 0.67173 0.76135 0.0
O33 O 0.40746 0.6884 0.76663 0.0
O34 O 0.44797 0.67499 0.74476 0.0
O35 O 0.38568 0.62511 0.74609 0.0
C36 C 0.35809 0.67827 0.72567 0.0
O37 O 0.45243 0.75605 0.7461 0.0
O38 O 0.39251 0.74865 0.74898 0.0
In39 In 0.70205 0.39108 0.07657 0.0
O40 O 0.67381 0.33607 0.06354 0.0
O41 O 0.69099 0.39633 0.05703 0.0
C42 C 0.69155 0.35544 0.09811 0.0
C43 C 0.65445 0.42611 0.07964 0.0
C44 C 0.78461 0.42341 0.07432 0.0
O45 O 0.66904 0.33574 0.08929 0.0
O46 O 0.71915 0.39233 0.09597 0.0
O47 O 0.76885 0.44541 0.07726 0.0
O48 O 0.75868 0.3858 0.07228 0.0
C49 C 0.67549 0.35826 0.05475 0.0
O50 O 0.69207 0.44732 0.07649 0.0
O51 O 0.64189 0.38827 0.08145 0.0
In52 In 0.29897 0.69307 0.41453 0.0
O53 O 0.23198 0.67938 0.41252 0.0
O54 O 0.24387 0.62904 0.41192 0.0
C55 C 0.34865 0.77592 0.41582 0.0
C56 C 0.32448 0.68261 0.39304 0.0
C57 C 0.30692 0.67342 0.43708 0.0
O58 O 0.3097 0.75948 0.41471 0.0
O59 O 0.36168 0.75057 0.41651 0.0
O60 O 0.32667 0.66909 0.42851 0.0
O61 O 0.28357 0.6875 0.4342 0.0
C62 C 0.21733 0.64064 0.41149 0.0
O63 O 0.32833 0.66523 0.4023 0.0
O64 O 0.30766 0.70436 0.39474 0.0
In65 In 0.60125 0.29224 0.74381 0.0
O66 O 0.54831 0.22475 0.7435 0.0
O67 O 0.61076 0.23697 0.74345 0.0
C68 C 0.56692 0.34123 0.74321 0.0
C69 C 0.63656 0.30812 0.72208 0.0
C70 C 0.631 0.30587 0.76623 0.0
O71 O 0.54486 0.30212 0.74367 0.0
O72 O 0.60544 0.35485 0.74305 0.0
O73 O 0.65444 0.32261 0.75731 0.0
O74 O 0.59314 0.28295 0.76378 0.0
C75 C 0.57264 0.21017 0.74338 0.0
O76 O 0.65787 0.32341 0.73146 0.0
O77 O 0.59803 0.28555 0.72375 0.0
In78 In 0.4044 0.7062 0.58492 0.0
O79 O 0.46052 0.69714 0.58761 0.0
O80 O 0.39977 0.64461 0.58896 0.0
C81 C 0.43265 0.78815 0.58274 0.0
C82 C 0.36436 0.6941 0.60577 0.0
C83 C 0.38081 0.68325 0.56219 0.0
O84 O 0.45706 0.77415 0.58437 0.0
O85 O 0.39479 0.76092 0.58214 0.0
O86 O 0.35475 0.67733 0.57032 0.0
O87 O 0.41802 0.70053 0.56559 0.0
C88 C 0.43835 0.65842 0.5893 0.0
O89 O 0.34535 0.67581 0.5963 0.0
O90 O 0.40297 0.71789 0.6046 0.0
In91 In 0.70577 0.4159 0.91362 0.0
O92 O 0.77301 0.46824 0.91596 0.0
O93 O 0.75978 0.40562 0.91691 0.0
C94 C 0.65701 0.45011 0.91268 0.0
C95 C 0.67539 0.37525 0.93428 0.0
C96 C 0.70271 0.3942 0.89061 0.0
O97 O 0.69507 0.47124 0.9154 0.0
O98 O 0.64445 0.41261 0.91021 0.0
O99 O 0.683 0.36757 0.89866 0.0
O100 O 0.72328 0.43117 0.89423 0.0
C101 C 0.78687 0.44358 0.91726 0.0
O102 O 0.67206 0.35593 0.92464 0.0
O103 O 0.6942 0.41423 0.93336 0.0
In104 In 0.30239 0.70485 0.25042 0.0
O105 O 0.31545 0.77193 0.25019 0.0
O106 O 0.36586 0.76091 0.25294 0.0
C107 C 0.21912 0.65446 0.25015 0.0
C108 C 0.32044 0.68677 0.27203 0.0
C109 C 0.32373 0.69692 0.22803 0.0
O110 O 0.23558 0.69326 0.25154 0.0
O111 O 0.24457 0.64181 0.24881 0.0
O112 O 0.327 0.67675 0.23666 0.0
O113 O 0.30929 0.7201 0.23073 0.0
C114 C 0.35403 0.78716 0.25191 0.0
O115 O 0.32961 0.67469 0.26252 0.0
O116 O 0.30169 0.7068 0.27051 0.0
In117 In 0.60144 0.30614 0.57938 0.0
O118 O 0.65948 0.3342 0.59125 0.0
O119 O 0.60085 0.29189 0.59894 0.0
C120 C 0.62726 0.32667 0.55674 0.0
C121 C 0.57389 0.35968 0.58312 0.0
C122 C 0.56766 0.2235 0.57688 0.0
O123 O 0.65183 0.33002 0.56506 0.0
O124 O 0.59013 0.31314 0.55991 0.0
O125 O 0.54562 0.23978 0.57925 0.0
O126 O 0.60586 0.24893 0.57565 0.0
C127 C 0.63934 0.31492 0.60047 0.0
O128 O 0.5492 0.32087 0.58274 0.0
O129 O 0.61163 0.37067 0.58174 0.0
In130 In 0.30543 0.61536 0.91862 0.0
O131 O 0.2394 0.55913 0.91902 0.0
O132 O 0.24762 0.61906 0.91557 0.0
C133 C 0.35809 0.58624 0.92112 0.0
C134 C 0.31444 0.64991 0.94026 0.0
C135 C 0.3245 0.64265 0.89605 0.0
O136 O 0.3196 0.56231 0.91943 0.0
O137 O 0.36938 0.62431 0.92177 0.0
O138 O 0.3255 0.66625 0.90436 0.0
O139 O 0.31449 0.60635 0.89922 0.0
C140 C 0.22261 0.58087 0.91696 0.0
O141 O 0.33294 0.67179 0.93119 0.0
O142 O 0.29256 0.61151 0.9383 0.0
In143 In 0.69986 0.30562 0.24691 0.0
O144 O 0.69011 0.24007 0.24959 0.0
O145 O 0.64003 0.24675 0.24304 0.0
C146 C 0.78165 0.3578 0.25037 0.0
C147 C 0.66904 0.31958 0.26697 0.0
C148 C 0.6925 0.31913 0.22371 0.0
O149 O 0.7667 0.31901 0.24938 0.0
O150 O 0.75531 0.36962 0.2498 0.0
O151 O 0.66974 0.32201 0.23161 0.0
O152 O 0.71916 0.31061 0.2276 0.0
C153 C 0.65271 0.22243 0.24612 0.0
O154 O 0.67264 0.33947 0.25745 0.0
O155 O 0.68107 0.29345 0.26627 0.0
H156 H 0.37031 0.72764 0.94883 0.0
H157 H 0.37643 0.75206 0.96963 0.0
H158 H 0.27121 0.63431 0.97952 0.0
H159 H 0.26501 0.61016 0.95907 0.0
H160 H 0.26828 0.69867 0.99013 0.0
H161 H 0.37066 0.65337 0.98282 0.0
H162 H 0.4328 0.66017 0.97278 0.0
H163 H 0.50412 0.78609 0.98494 0.0
H164 H 0.44218 0.78006 0.99495 0.0
H165 H 0.26322 0.59572 0.04114 0.0
H166 H 0.27006 0.62666 0.02154 0.0
H167 H 0.37256 0.74181 0.03422 0.0
H168 H 0.36571 0.71065 0.05413 0.0
H169 H 0.38925 0.71375 0.01294 0.0
H170 H 0.28624 0.74222 0.02693 0.0
H171 H 0.22219 0.72908 0.03721 0.0
H172 H 0.14948 0.63032 0.01269 0.0
H173 H 0.213 0.64229 0.00238 0.0
C174 C 0.3483 0.70732 0.95546 0.0
C175 C 0.31742 0.66689 0.95238 0.0
C176 C 0.35181 0.72127 0.9673 0.0
C177 C 0.32425 0.69497 0.97611 0.0
C178 C 0.29262 0.65527 0.97287 0.0
C179 C 0.28932 0.64135 0.96117 0.0
C180 C 0.32932 0.7062 0.98896 0.0
C181 C 0.29491 0.70259 0.99516 0.0
C182 C 0.36473 0.71294 0.99546 0.0
C183 C 0.4018 0.71647 0.98947 0.0
C184 C 0.39955 0.68257 0.98327 0.0
C185 C 0.43471 0.68627 0.9776 0.0
C186 C 0.47235 0.72359 0.97818 0.0
C187 C 0.47492 0.75725 0.98446 0.0
C188 C 0.43982 0.75372 0.99013 0.0
C189 C 0.28699 0.62776 0.03983 0.0
C190 C 0.31404 0.65074 0.04914 0.0
C191 C 0.29064 0.64556 0.02864 0.0
C192 C 0.3214 0.68675 0.02647 0.0
C193 C 0.34834 0.71011 0.03577 0.0
C194 C 0.3444 0.69231 0.0471 0.0
C195 C 0.32689 0.70305 0.01412 0.0
C196 C 0.36334 0.71199 0.008 0.0
C197 C 0.29305 0.70064 0.00769 0.0
C198 C 0.25454 0.69332 0.01384 0.0
C199 C 0.25662 0.71757 0.02375 0.0
C200 C 0.22038 0.71032 0.02959 0.0
C201 C 0.1818 0.67897 0.02558 0.0
C202 C 0.17938 0.6547 0.01576 0.0
C203 C 0.21551 0.66178 0.00989 0.0
H204 H 0.15376 0.6735 0.03006 0.0
H205 H 0.49955 0.7264 0.97379 0.0
H206 H 0.63334 0.35004 0.38113 0.0
H207 H 0.62202 0.36842 0.36086 0.0
H208 H 0.70241 0.32675 0.34643 0.0
H209 H 0.7136 0.30845 0.36637 0.0
H210 H 0.7176 0.40051 0.3364 0.0
H211 H 0.59888 0.26319 0.3466 0.0
H212 H 0.53728 0.21721 0.35869 0.0
H213 H 0.48326 0.29258 0.35038 0.0
H214 H 0.54482 0.33924 0.33834 0.0
H215 H 0.63404 0.26559 0.2852 0.0
H216 H 0.62239 0.28098 0.30552 0.0
H217 H 0.66051 0.4066 0.29513 0.0
H218 H 0.67196 0.39103 0.27455 0.0
H219 H 0.57927 0.31292 0.31802 0.0
H220 H 0.72789 0.46509 0.31664 0.0
H221 H 0.78997 0.50372 0.30391 0.0
H222 H 0.78529 0.38984 0.29429 0.0
H223 H 0.72343 0.35069 0.30703 0.0
C224 C 0.6487 0.3451 0.3736 0.0
C225 C 0.67414 0.32757 0.37531 0.0
C226 C 0.64229 0.35568 0.36207 0.0
C227 C 0.66157 0.34914 0.35217 0.0
C228 C 0.68757 0.33248 0.35395 0.0
C229 C 0.69366 0.32166 0.36537 0.0
C230 C 0.65319 0.35655 0.33973 0.0
C231 C 0.6871 0.38237 0.33243 0.0
C232 C 0.61345 0.33297 0.33454 0.0
C233 C 0.57657 0.30492 0.34173 0.0
C234 C 0.57397 0.27008 0.34744 0.0
C235 C 0.53907 0.24389 0.35426 0.0
C236 C 0.50644 0.25205 0.35534 0.0
C237 C 0.5086 0.28636 0.34956 0.0
C238 C 0.54347 0.31268 0.34274 0.0
C239 C 0.6389 0.29619 0.28716 0.0
C240 C 0.65442 0.32731 0.27839 0.0
C241 C 0.63184 0.30486 0.29875 0.0
C242 C 0.64078 0.34497 0.30184 0.0
C243 C 0.65337 0.37542 0.29289 0.0
C244 C 0.65994 0.36654 0.28118 0.0
C245 C 0.64396 0.35563 0.3147 0.0
C246 C 0.60923 0.33311 0.32207 0.0
C247 C 0.68305 0.38177 0.31998 0.0
C248 C 0.721 0.40509 0.31267 0.0
C249 C 0.7403 0.44841 0.31184 0.0
C250 C 0.77537 0.47035 0.30462 0.0
C251 C 0.79144 0.44922 0.29826 0.0
C252 C 0.77273 0.40614 0.29919 0.0
C253 C 0.73771 0.38409 0.30641 0.0
H254 H 0.81836 0.46621 0.29261 0.0
H255 H 0.47943 0.23173 0.36062 0.0
H256 H 0.27978 0.62053 0.71799 0.0
H257 H 0.25166 0.61381 0.69762 0.0
H258 H 0.36593 0.72132 0.68662 0.0
H259 H 0.39392 0.72788 0.70662 0.0
H260 H 0.2954 0.7211 0.67784 0.0
H261 H 0.3517 0.62568 0.68232 0.0
H262 H 0.35008 0.56455 0.69144 0.0
H263 H 0.22313 0.48838 0.68068 0.0
H264 H 0.22398 0.54927 0.67161 0.0
H265 H 0.39652 0.74129 0.62553 0.0
H266 H 0.36615 0.72972 0.64538 0.0
H267 H 0.25563 0.62166 0.63262 0.0
H268 H 0.28625 0.63327 0.61247 0.0
H269 H 0.28736 0.60659 0.65317 0.0
H270 H 0.24542 0.70134 0.64167 0.0
H271 H 0.25058 0.76338 0.63211 0.0
H272 H 0.34988 0.84165 0.65582 0.0
H273 H 0.34584 0.78019 0.6654 0.0
C274 C 0.29856 0.64285 0.71121 0.0
C275 C 0.33913 0.67451 0.71383 0.0
C276 C 0.28249 0.63902 0.69963 0.0
C277 C 0.30671 0.66719 0.69065 0.0
C278 C 0.34659 0.69947 0.69343 0.0
C279 C 0.3627 0.70297 0.70485 0.0
C280 C 0.29311 0.66224 0.67803 0.0
C281 C 0.29292 0.69582 0.67241 0.0
C282 C 0.28809 0.62841 0.67104 0.0
C283 C 0.28773 0.59199 0.67644 0.0
C284 C 0.32339 0.59593 0.68198 0.0
C285 C 0.32262 0.56134 0.68712 0.0
C286 C 0.28648 0.52263 0.68668 0.0
C287 C 0.25107 0.5184 0.68105 0.0
C288 C 0.25166 0.55292 0.67591 0.0
C289 C 0.36555 0.71532 0.62687 0.0
C290 C 0.3438 0.68811 0.61747 0.0
C291 C 0.34803 0.70892 0.63822 0.0
C292 C 0.30834 0.67519 0.64044 0.0
C293 C 0.28612 0.64811 0.63104 0.0
C294 C 0.30361 0.65479 0.61958 0.0
C295 C 0.29284 0.66701 0.65292 0.0
C296 C 0.2875 0.63096 0.65853 0.0
C297 C 0.2928 0.69867 0.6599 0.0
C298 C 0.29521 0.736 0.65428 0.0
C299 C 0.26848 0.73177 0.64482 0.0
C300 C 0.27121 0.76687 0.6394 0.0
C301 C 0.30051 0.80643 0.64336 0.0
C302 C 0.32712 0.81098 0.65277 0.0
C303 C 0.32454 0.77599 0.65823 0.0
H304 H 0.30261 0.83356 0.63914 0.0
H305 H 0.28594 0.49588 0.69066 0.0
H306 H 0.66584 0.39913 0.03619 0.0
H307 H 0.64429 0.37456 0.0159 0.0
H308 H 0.62956 0.25564 0.02538 0.0
H309 H 0.65149 0.28041 0.04599 0.0
H310 H 0.67564 0.2888 0.00471 0.0
H311 H 0.5438 0.25887 0.01867 0.0
H312 H 0.493 0.27028 0.0297 0.0
H313 H 0.52305 0.37646 0.00787 0.0
H314 H 0.57452 0.36622 0.99684 0.0
H315 H 0.64957 0.29453 0.94073 0.0
H316 H 0.62805 0.26403 0.96084 0.0
H317 H 0.64325 0.3799 0.97387 0.0
H318 H 0.66447 0.41008 0.95408 0.0
H319 H 0.57364 0.3133 0.98306 0.0
H320 H 0.72139 0.35745 0.97615 0.0
H321 H 0.77671 0.35205 0.96559 0.0
H322 H 0.71814 0.2227 0.97447 0.0
H323 H 0.66224 0.22735 0.98498 0.0
C324 C 0.65772 0.36762 0.03403 0.0
C325 C 0.66046 0.34172 0.04266 0.0
C326 C 0.64501 0.35344 0.02244 0.0
C327 C 0.63459 0.31301 0.01919 0.0
C328 C 0.63704 0.28679 0.02777 0.0
C329 C 0.64956 0.30097 0.03949 0.0
C330 C 0.62476 0.30047 0.0065 0.0
C331 C 0.65231 0.2926 -1e-05 0.0
C332 C 0.59434 0.30547 0.00035 0.0
C333 C 0.56301 0.31162 0.00688 0.0
C334 C 0.53972 0.28475 0.01624 0.0
C335 C 0.51079 0.29103 0.0225 0.0
C336 C 0.50475 0.32401 0.01946 0.0
C337 C 0.52767 0.35084 0.01018 0.0
C338 C 0.55665 0.34474 0.0039 0.0
C339 C 0.64772 0.31313 0.94789 0.0
C340 C 0.65904 0.35476 0.9459 0.0
C341 C 0.63544 0.29572 0.95933 0.0
C342 C 0.63408 0.31974 0.96884 0.0
C343 C 0.64377 0.36069 0.96666 0.0
C344 C 0.65626 0.37805 0.95536 0.0
C345 C 0.6264 0.30473 0.98135 0.0
C346 C 0.59546 0.30729 0.98782 0.0
C347 C 0.6539 0.29529 0.98746 0.0
C348 C 0.68747 0.2926 0.98119 0.0
C349 C 0.72022 0.32782 0.97577 0.0
C350 C 0.75167 0.32491 0.96981 0.0
C351 C 0.75086 0.28702 0.96932 0.0
C352 C 0.71866 0.252 0.97483 0.0
C353 C 0.68709 0.25475 0.98078 0.0
H354 H 0.77524 0.28482 0.9647 0.0
H355 H 0.48227 0.32877 0.02428 0.0
H356 H 0.34504 0.63151 0.27905 0.0
H357 H 0.36355 0.6216 0.29949 0.0
H358 H 0.34201 0.71854 0.31223 0.0
H359 H 0.32296 0.72796 0.29216 0.0
H360 H 0.41795 0.72362 0.32055 0.0
H361 H 0.26792 0.62368 0.31532 0.0
H362 H 0.21035 0.56261 0.30556 0.0
H363 H 0.26563 0.48932 0.31505 0.0
H364 H 0.32379 0.5502 0.32476 0.0
H365 H 0.33494 0.73075 0.37383 0.0
H366 H 0.35339 0.72283 0.35357 0.0
H367 H 0.36348 0.61711 0.36449 0.0
H368 H 0.34487 0.62508 0.3851 0.0
H369 H 0.31491 0.60267 0.34402 0.0
H370 H 0.45004 0.69971 0.35605 0.0
H371 H 0.50539 0.76124 0.36622 0.0
H372 H 0.48045 0.84051 0.34413 0.0
H373 H 0.42442 0.77952 0.33397 0.0
C374 C 0.34443 0.65068 0.28625 0.0
C375 C 0.33235 0.68033 0.28407 0.0
C376 C 0.35507 0.64506 0.29786 0.0
C377 C 0.3544 0.66958 0.3073 0.0
C378 C 0.34307 0.69959 0.30503 0.0
C379 C 0.33187 0.7047 0.29357 0.0
C380 C 0.3631 0.66346 0.3198 0.0
C381 C 0.39592 0.69699 0.32571 0.0
C382 C 0.33531 0.62793 0.32639 0.0
C383 C 0.30038 0.59151 0.3206 0.0
C384 C 0.26793 0.59461 0.31523 0.0
C385 C 0.23518 0.56004 0.30973 0.0
C386 C 0.23441 0.52214 0.30965 0.0
C387 C 0.26633 0.51872 0.3151 0.0
C388 C 0.29918 0.55323 0.32059 0.0
C389 C 0.34144 0.70601 0.372 0.0
C390 C 0.33836 0.67845 0.38103 0.0
C391 C 0.35234 0.70171 0.36041 0.0
C392 C 0.36042 0.66975 0.35756 0.0
C393 C 0.35775 0.64221 0.36656 0.0
C394 C 0.34718 0.64681 0.37828 0.0
C395 C 0.36817 0.66417 0.34489 0.0
C396 C 0.33844 0.6285 0.3389 0.0
C397 C 0.39897 0.69778 0.33822 0.0
C398 C 0.43297 0.73487 0.34422 0.0
C399 C 0.45619 0.73024 0.35339 0.0
C400 C 0.48771 0.76505 0.35916 0.0
C401 C 0.49646 0.80476 0.35581 0.0
C402 C 0.47371 0.80973 0.34669 0.0
C403 C 0.4421 0.77502 0.3409 0.0
H404 H 0.52085 0.83167 0.3603 0.0
H405 H 0.20902 0.4954 0.30539 0.0
H406 H 0.60181 0.26065 0.70253 0.0
H407 H 0.62909 0.27265 0.68222 0.0
H408 H 0.73884 0.38383 0.69374 0.0
H409 H 0.71183 0.37141 0.71438 0.0
H410 H 0.69376 0.39087 0.67278 0.0
H411 H 0.7578 0.31527 0.68568 0.0
H412 H 0.76265 0.25968 0.69618 0.0
H413 H 0.66689 0.16848 0.67378 0.0
H414 H 0.66094 0.22341 0.66326 0.0
H415 H 0.71269 0.37908 0.60892 0.0
H416 H 0.73842 0.38867 0.62963 0.0
H417 H 0.63397 0.27 0.6392 0.0
H418 H 0.60818 0.26058 0.61877 0.0
H419 H 0.70715 0.28397 0.64991 0.0
H420 H 0.62754 0.35464 0.64316 0.0
H421 H 0.61502 0.40649 0.6332 0.0
H422 H 0.73489 0.50366 0.64438 0.0
H423 H 0.74823 0.4522 0.6543 0.0
C424 C 0.63191 0.28749 0.70079 0.0
C425 C 0.65469 0.31517 0.71 0.0
C426 C 0.64756 0.29418 0.6892 0.0
C427 C 0.68609 0.32891 0.68653 0.0
C428 C 0.70917 0.35671 0.69569 0.0
C429 C 0.69376 0.34956 0.70742 0.0
C430 C 0.69995 0.33651 0.67393 0.0
C431 C 0.69834 0.36849 0.66779 0.0
C432 C 0.7053 0.30689 0.66747 0.0
C433 C 0.70893 0.27357 0.67367 0.0
C434 C 0.7376 0.28335 0.68303 0.0
C435 C 0.74056 0.25194 0.68898 0.0
C436 C 0.7151 0.21057 0.68565 0.0
C437 C 0.68665 0.20054 0.67634 0.0
C438 C 0.68354 0.23183 0.67035 0.0
C439 C 0.69577 0.35483 0.61544 0.0
C440 C 0.6583 0.31927 0.61232 0.0
C441 C 0.71044 0.36034 0.62722 0.0
C442 C 0.68802 0.33005 0.63593 0.0
C443 C 0.65186 0.29363 0.63261 0.0
C444 C 0.63699 0.28842 0.62096 0.0
C445 C 0.69895 0.33711 0.64877 0.0
C446 C 0.7049 0.30769 0.65493 0.0
C447 C 0.69708 0.36875 0.65525 0.0
C448 C 0.68911 0.39961 0.64931 0.0
C449 C 0.65134 0.38703 0.6434 0.0
C450 C 0.64407 0.41633 0.63778 0.0
C451 C 0.67421 0.45833 0.63812 0.0
C452 C 0.71163 0.47111 0.6441 0.0
C453 C 0.71906 0.4419 0.64972 0.0
H454 H 0.66851 0.48097 0.63377 0.0
H455 H 0.71742 0.18629 0.69028 0.0
H456 H 0.32611 0.6319 0.21751 0.0
H457 H 0.33789 0.62467 0.19631 0.0
H458 H 0.36078 0.7486 0.18965 0.0
H459 H 0.34683 0.75489 0.21065 0.0
H460 H 0.31041 0.7012 0.17411 0.0
H461 H 0.43931 0.71989 0.18852 0.0
H462 H 0.48573 0.70696 0.20124 0.0
H463 H 0.42939 0.58197 0.1882 0.0
H464 H 0.38223 0.59397 0.17552 0.0
H465 H 0.35799 0.6954 0.11302 0.0
H466 H 0.37045 0.71592 0.13413 0.0
H467 H 0.32798 0.58912 0.14421 0.0
H468 H 0.31588 0.56852 0.12322 0.0
H469 H 0.39543 0.6445 0.15755 0.0
H470 H 0.26224 0.62582 0.14494 0.0
H471 H 0.21694 0.64002 0.1321 0.0
H472 H 0.28497 0.76865 0.14191 0.0
H473 H 0.33104 0.75527 0.15469 0.0
C474 C 0.33417 0.65768 0.21151 0.0
C475 C 0.33527 0.69378 0.21564 0.0
C476 C 0.34119 0.65369 0.19942 0.0
C477 C 0.35061 0.68625 0.19135 0.0
C478 C 0.35338 0.72297 0.19565 0.0
C479 C 0.34544 0.72656 0.20765 0.0
C480 C 0.35401 0.68089 0.1783 0.0
C481 C 0.32979 0.68968 0.17052 0.0
C482 C 0.37858 0.66505 0.17355 0.0
C483 C 0.407 0.65776 0.18114 0.0
C484 C 0.43661 0.68956 0.18843 0.0
C485 C 0.46309 0.6824 0.19562 0.0
C486 C 0.46045 0.64364 0.19555 0.0
C487 C 0.43138 0.61197 0.18826 0.0
C488 C 0.40481 0.61895 0.18105 0.0
C489 C 0.35178 0.67203 0.11974 0.0
C490 C 0.33553 0.6303 0.1165 0.0
C491 C 0.35891 0.68378 0.13177 0.0
C492 C 0.34973 0.65393 0.14072 0.0
C493 C 0.3353 0.61262 0.13744 0.0
C494 C 0.32815 0.60086 0.12545 0.0
C495 C 0.35189 0.66481 0.15354 0.0
C496 C 0.37682 0.65679 0.16123 0.0
C497 C 0.32829 0.68171 0.15824 0.0
C498 C 0.30032 0.68963 0.15066 0.0
C499 C 0.26769 0.65717 0.1443 0.0
C500 C 0.24186 0.66506 0.13704 0.0
C501 C 0.24815 0.70523 0.13616 0.0
C502 C 0.28019 0.73757 0.14258 0.0
C503 C 0.30615 0.72985 0.14983 0.0
H504 H 0.22812 0.71128 0.13054 0.0
H505 H 0.48097 0.63817 0.20113 0.0
H506 H 0.64107 0.33642 0.44203 0.0
H507 H 0.63517 0.34704 0.46343 0.0
H508 H 0.73111 0.31756 0.47107 0.0
H509 H 0.73621 0.3058 0.44986 0.0
H510 H 0.66938 0.27678 0.4855 0.0
H511 H 0.74788 0.41811 0.47282 0.0
H512 H 0.76399 0.47956 0.46065 0.0
H513 H 0.65204 0.47441 0.47271 0.0
H514 H 0.63495 0.41254 0.48484 0.0
H515 H 0.69769 0.33537 0.54644 0.0
H516 H 0.71406 0.34156 0.52502 0.0
H517 H 0.602 0.34413 0.51721 0.0
H518 H 0.58516 0.33742 0.53855 0.0
H519 H 0.67412 0.40129 0.50317 0.0
H520 H 0.59526 0.257 0.51496 0.0
H521 H 0.58148 0.19692 0.52747 0.0
H522 H 0.69844 0.20998 0.51707 0.0
H523 H 0.7132 0.27063 0.50464 0.0
C524 C 0.66103 0.33249 0.4483 0.0
C525 C 0.68892 0.32008 0.44431 0.0
C526 C 0.65781 0.33878 0.4605 0.0
C527 C 0.68293 0.33338 0.46886 0.0
C528 C 0.71132 0.32177 0.46481 0.0
C529 C 0.71422 0.31509 0.45268 0.0
C530 C 0.6783 0.33761 0.48188 0.0
C531 C 0.67112 0.30434 0.48935 0.0
C532 C 0.67975 0.3732 0.48692 0.0
C533 C 0.68993 0.41043 0.47965 0.0
C534 C 0.72652 0.42986 0.4728 0.0
C535 C 0.73586 0.46481 0.46593 0.0
C536 C 0.709 0.48081 0.46588 0.0
C537 C 0.67279 0.46195 0.47274 0.0
C538 C 0.66327 0.42696 0.47963 0.0
C539 C 0.67693 0.33794 0.54016 0.0
C540 C 0.63998 0.33551 0.54411 0.0
C541 C 0.6863 0.34147 0.52797 0.0
C542 C 0.65907 0.34307 0.51959 0.0
C543 C 0.62339 0.34303 0.52357 0.0
C544 C 0.61372 0.33893 0.53573 0.0
C545 C 0.66563 0.3407 0.50665 0.0
C546 C 0.67284 0.37405 0.49924 0.0
C547 C 0.6646 0.30537 0.50164 0.0
C548 C 0.65554 0.26861 0.50898 0.0
C549 C 0.61819 0.24727 0.51542 0.0
C550 C 0.61018 0.21309 0.52248 0.0
C551 C 0.63912 0.19971 0.52309 0.0
C552 C 0.67608 0.22042 0.5166 0.0
C553 C 0.68428 0.25469 0.50955 0.0
H554 H 0.63287 0.17324 0.52857 0.0
H555 H 0.71629 0.50788 0.46055 0.0
H556 H 0.40936 0.66322 0.78821 0.0
H557 H 0.39325 0.65979 0.80952 0.0
H558 H 0.29119 0.67956 0.80158 0.0
H559 H 0.30649 0.68192 0.78006 0.0
H560 H 0.36137 0.73429 0.82136 0.0
H561 H 0.25488 0.59683 0.80941 0.0
H562 H 0.22929 0.53049 0.79875 0.0
H563 H 0.3139 0.50635 0.81845 0.0
H564 H 0.34045 0.57289 0.8291 0.0
H565 H 0.30459 0.69414 0.88395 0.0
H566 H 0.30613 0.70339 0.86216 0.0
H567 H 0.36329 0.6278 0.85809 0.0
H568 H 0.35961 0.61683 0.87965 0.0
H569 H 0.30306 0.60159 0.8436 0.0
H570 H 0.41537 0.73812 0.85386 0.0
H571 H 0.4479 0.80594 0.86403 0.0
H572 H 0.36063 0.83379 0.8475 0.0
H573 H 0.32727 0.76588 0.83734 0.0
C574 C 0.38329 0.66653 0.79098 0.0
C575 C 0.35905 0.67269 0.78252 0.0
C576 C 0.37422 0.66466 0.80313 0.0
C577 C 0.34122 0.66961 0.80704 0.0
C578 C 0.31684 0.67579 0.79866 0.0
C579 C 0.32541 0.67682 0.78642 0.0
C580 C 0.33277 0.66798 0.81997 0.0
C581 C 0.34774 0.70531 0.82628 0.0
C582 C 0.31604 0.63021 0.82628 0.0
C583 C 0.29987 0.59 0.81997 0.0
C584 C 0.26829 0.57755 0.81139 0.0
C585 C 0.25355 0.53987 0.80536 0.0
C586 C 0.27002 0.51426 0.8079 0.0
C587 C 0.30119 0.52623 0.81649 0.0
C588 C 0.31605 0.5639 0.82253 0.0
C589 C 0.31815 0.68026 0.87836 0.0
C590 C 0.33194 0.65476 0.88339 0.0
C591 C 0.31903 0.68551 0.86593 0.0
C592 C 0.33476 0.66621 0.85845 0.0
C593 C 0.35053 0.64258 0.86363 0.0
C594 C 0.34871 0.63655 0.87595 0.0
C595 C 0.33292 0.66817 0.8452 0.0
C596 C 0.31598 0.63074 0.83879 0.0
C597 C 0.34854 0.70599 0.83884 0.0
C598 C 0.36852 0.74673 0.84496 0.0
C599 C 0.40291 0.75857 0.85248 0.0
C600 C 0.42154 0.79705 0.85822 0.0
C601 C 0.40625 0.82409 0.85645 0.0
C602 C 0.37237 0.81277 0.84889 0.0
C603 C 0.35361 0.7743 0.84313 0.0
H604 H 0.42072 0.85388 0.8609 0.0
H605 H 0.25858 0.4851 0.80323 0.0
H606 H 0.61794 0.30134 0.10868 0.0
H607 H 0.60651 0.28338 0.13006 0.0
H608 H 0.73842 0.35372 0.13616 0.0
H609 H 0.74983 0.37286 0.11499 0.0
H610 H 0.68892 0.26968 0.14843 0.0
H611 H 0.69529 0.4035 0.14082 0.0
H612 H 0.66971 0.4451 0.13064 0.0
H613 H 0.54756 0.36508 0.14458 0.0
H614 H 0.57238 0.32261 0.15469 0.0
H615 H 0.74901 0.33623 0.2062 0.0
H616 H 0.73782 0.3326 0.18467 0.0
H617 H 0.61094 0.30182 0.19039 0.0
H618 H 0.62267 0.30717 0.2121 0.0
H619 H 0.64088 0.35095 0.1719 0.0
H620 H 0.63497 0.22606 0.18304 0.0
H621 H 0.65606 0.18051 0.19302 0.0
H622 H 0.76839 0.23458 0.17241 0.0
H623 H 0.74832 0.28096 0.16243 0.0
C624 C 0.64443 0.31211 0.11457 0.0
C625 C 0.68473 0.33848 0.11028 0.0
C626 C 0.63787 0.30198 0.12673 0.0
C627 C 0.67167 0.31735 0.13461 0.0
C628 C 0.71204 0.34151 0.13017 0.0
C629 C 0.7185 0.35248 0.11812 0.0
C630 C 0.66548 0.31191 0.14765 0.0
C631 C 0.67835 0.28726 0.15361 0.0
C632 C 0.65019 0.33372 0.15429 0.0
C633 C 0.63554 0.35962 0.14837 0.0
C634 C 0.66291 0.39458 0.14162 0.0
C635 C 0.64857 0.41835 0.13588 0.0
C636 C 0.607 0.40766 0.13693 0.0
C637 C 0.57973 0.37326 0.14375 0.0
C638 C 0.59391 0.34935 0.14949 0.0
C639 C 0.71886 0.32916 0.20287 0.0
C640 C 0.68662 0.32173 0.21078 0.0
C641 C 0.71236 0.3267 0.19056 0.0
C642 C 0.67314 0.31561 0.18591 0.0
C643 C 0.64131 0.30997 0.19379 0.0
C644 C 0.64806 0.31316 0.20616 0.0
C645 C 0.66595 0.30986 0.17283 0.0
C646 C 0.6505 0.33239 0.16682 0.0
C647 C 0.67804 0.28528 0.16614 0.0
C648 C 0.69019 0.25717 0.17202 0.0
C649 C 0.66429 0.22843 0.18068 0.0
C650 C 0.67606 0.20244 0.18633 0.0
C651 C 0.71356 0.20468 0.18336 0.0
C652 C 0.73934 0.23287 0.1747 0.0
C653 C 0.72775 0.25898 0.16903 0.0
H654 H 0.72263 0.18454 0.18775 0.0
H655 H 0.59594 0.42609 0.13248 0.0
H656 H 0.42969 0.6812 0.54452 0.0
H657 H 0.41431 0.67019 0.52321 0.0
H658 H 0.29186 0.65128 0.52976 0.0
H659 H 0.30682 0.66138 0.55127 0.0
H660 H 0.29028 0.59899 0.51264 0.0
H661 H 0.36816 0.7444 0.52059 0.0
H662 H 0.42602 0.80911 0.52868 0.0
H663 H 0.51189 0.79397 0.50659 0.0
H664 H 0.45457 0.72877 0.4985 0.0
H665 H 0.25543 0.66286 0.45562 0.0
H666 H 0.26584 0.65422 0.47677 0.0
H667 H 0.37978 0.65634 0.46817 0.0
H668 H 0.36921 0.6644 0.44688 0.0
H669 H 0.38629 0.71406 0.48608 0.0
H670 H 0.3034 0.56925 0.47702 0.0
H671 H 0.24276 0.50681 0.46894 0.0
H672 H 0.16281 0.52416 0.493 0.0
H673 H 0.22292 0.5871 0.50111 0.0
C674 C 0.39932 0.67431 0.54145 0.0
C675 C 0.36958 0.67264 0.54952 0.0
C676 C 0.39061 0.66808 0.52926 0.0
C677 C 0.35225 0.66073 0.52488 0.0
C678 C 0.32172 0.65708 0.53297 0.0
C679 C 0.33032 0.66295 0.54522 0.0
C680 C 0.34513 0.65931 0.51181 0.0
C681 C 0.31102 0.62428 0.50683 0.0
C682 C 0.37256 0.69214 0.50423 0.0
C683 C 0.40712 0.73146 0.50903 0.0
C684 C 0.39943 0.75469 0.51753 0.0
C685 C 0.43211 0.79149 0.5221 0.0
C686 C 0.47262 0.80559 0.51817 0.0
C687 C 0.4805 0.78297 0.50964 0.0
C688 C 0.44792 0.7461 0.50505 0.0
C689 C 0.28243 0.66094 0.45821 0.0
C690 C 0.31163 0.66445 0.44964 0.0
C691 C 0.28821 0.65581 0.47028 0.0
C692 C 0.32346 0.65449 0.47399 0.0
C693 C 0.3523 0.65715 0.46544 0.0
C694 C 0.3462 0.66165 0.45331 0.0
C695 C 0.33161 0.65368 0.4869 0.0
C696 C 0.36582 0.68854 0.49186 0.0
C697 C 0.30388 0.62104 0.49444 0.0
C698 C 0.26766 0.58313 0.4896 0.0
C699 C 0.27285 0.55998 0.48052 0.0
C700 C 0.23858 0.52444 0.47594 0.0
C701 C 0.19895 0.51158 0.48043 0.0
C702 C 0.19352 0.53418 0.48952 0.0
C703 C 0.2277 0.56977 0.49412 0.0
H704 H 0.17245 0.48405 0.47688 0.0
H705 H 0.49789 0.83408 0.52173 0.0
H706 H 0.65313 0.31947 0.87973 0.0
H707 H 0.64926 0.30398 0.85832 0.0
H708 H 0.74662 0.42939 0.8514 0.0
H709 H 0.74985 0.44525 0.87268 0.0
H710 H 0.68599 0.40941 0.83652 0.0
H711 H 0.76327 0.34613 0.84928 0.0
H712 H 0.7797 0.30109 0.86147 0.0
H713 H 0.66789 0.19393 0.84956 0.0
H714 H 0.65046 0.2384 0.83742 0.0
H715 H 0.70346 0.36964 0.77501 0.0
H716 H 0.72412 0.38407 0.79612 0.0
H717 H 0.61299 0.27209 0.80646 0.0
H718 H 0.59187 0.25792 0.7855 0.0
H719 H 0.68761 0.28771 0.81909 0.0
H720 H 0.60864 0.35415 0.80805 0.0
H721 H 0.59413 0.40014 0.79563 0.0
H722 H 0.71367 0.50335 0.80434 0.0
H723 H 0.72912 0.45775 0.81666 0.0
C724 C 0.67389 0.34358 0.87364 0.0
C725 C 0.70164 0.38359 0.87785 0.0
C726 C 0.67184 0.33465 0.86142 0.0
C727 C 0.69793 0.36545 0.85326 0.0
C728 C 0.72617 0.40517 0.85752 0.0
C729 C 0.72799 0.41418 0.86969 0.0
C730 C 0.69411 0.35706 0.84021 0.0
C731 C 0.68718 0.38324 0.83272 0.0
C732 C 0.69504 0.32258 0.83523 0.0
C733 C 0.70537 0.29567 0.84252 0.0
C734 C 0.742 0.313 0.84933 0.0
C735 C 0.75153 0.28756 0.85622 0.0
C736 C 0.72481 0.24469 0.85631 0.0
C737 C 0.68854 0.22715 0.84949 0.0
C738 C 0.67884 0.25246 0.84259 0.0
C739 C 0.68378 0.3479 0.78179 0.0
C740 C 0.64593 0.3129 0.77868 0.0
C741 C 0.69559 0.35614 0.79381 0.0
C742 C 0.66996 0.32914 0.8028 0.0
C743 C 0.63319 0.29316 0.79963 0.0
C744 C 0.62107 0.28529 0.78768 0.0
C745 C 0.67941 0.33995 0.81556 0.0
C746 C 0.68713 0.31417 0.82297 0.0
C747 C 0.67961 0.37499 0.82048 0.0
C748 C 0.67023 0.40246 0.81315 0.0
C749 C 0.63197 0.38657 0.80722 0.0
C750 C 0.62355 0.41257 0.80022 0.0
C751 C 0.65302 0.45462 0.79916 0.0
C752 C 0.69092 0.47076 0.80514 0.0
C753 C 0.69952 0.44486 0.81214 0.0
H754 H 0.64644 0.47471 0.79374 0.0
H755 H 0.73224 0.22504 0.86165 0.0
H756 H 0.82415 0.38267 0.0668 0.0
H757 H 0.89799 0.40584 0.06806 0.0
H758 H 0.92127 0.52237 0.08297 0.0
H759 H 0.84719 0.49958 0.08151 0.0
H760 H 0.9808 0.53426 0.06732 0.0
H761 H 0.91583 0.44573 0.10091 0.0
H762 H 0.86478 0.3821 0.11132 0.0
H763 H 0.90848 0.31165 0.09206 0.0
H764 H 0.95942 0.37479 0.08139 0.0
H765 H 0.17875 0.59612 0.09108 0.0
H766 H 0.105 0.57301 0.08953 0.0
H767 H 0.08315 0.45886 0.07321 0.0
H768 H 0.15721 0.48164 0.07492 0.0
H769 H 0.02314 0.44603 0.08953 0.0
H770 H 0.08967 0.53773 0.05609 0.0
H771 H 0.14211 0.60337 0.04683 0.0
H772 H 0.09617 0.66996 0.06706 0.0
H773 H 0.04379 0.60481 0.07656 0.0
C774 C 0.845 0.4134 0.07026 0.0
C775 C 0.82982 0.43923 0.07413 0.0
C776 C 0.88721 0.42651 0.07103 0.0
C777 C 0.91512 0.46553 0.07583 0.0
C778 C 0.90029 0.49205 0.07929 0.0
C779 C 0.85798 0.479 0.07846 0.0
C780 C 0.95949 0.47808 0.07749 0.0
C781 C 0.99005 0.51519 0.07229 0.0
C782 C 0.97164 0.45294 0.08383 0.0
C783 C 0.94117 0.41493 0.09027 0.0
C784 C 0.91435 0.41661 0.09883 0.0
C785 C 0.88546 0.38065 0.10478 0.0
C786 C 0.88332 0.34284 0.10233 0.0
C787 C 0.91014 0.34095 0.09394 0.0
C788 C 0.93904 0.37682 0.08794 0.0
C789 C 0.15825 0.56593 0.08724 0.0
C790 C 0.17382 0.54077 0.08305 0.0
C791 C 0.1161 0.55286 0.08631 0.0
C792 C 0.08867 0.51457 0.08104 0.0
C793 C 0.10383 0.48865 0.07724 0.0
C794 C 0.1461 0.50168 0.07822 0.0
C795 C 0.04436 0.50205 0.07932 0.0
C796 C 0.01383 0.46497 0.08452 0.0
C797 C 0.03229 0.52741 0.07307 0.0
C798 C 0.06303 0.56643 0.06711 0.0
C799 C 0.09087 0.5664 0.0586 0.0
C800 C 0.12057 0.60351 0.05331 0.0
C801 C 0.12256 0.64082 0.0564 0.0
C802 C 0.09463 0.64105 0.0647 0.0
C803 C 0.06489 0.60403 0.07002 0.0
H804 H 0.14575 0.66957 0.05237 0.0
H805 H 0.86094 0.31503 0.10695 0.0
H806 H 0.56123 0.17567 0.41133 0.0
H807 H 0.51068 0.10185 0.41261 0.0
H808 H 0.60874 0.07298 0.40872 0.0
H809 H 0.65975 0.14724 0.4073 0.0
H810 H 0.54182 0.02248 0.39506 0.0
H811 H 0.5661 0.06743 0.43585 0.0
H812 H 0.57185 0.11137 0.45307 0.0
H813 H 0.44387 0.0768 0.44913 0.0
H814 H 0.43751 0.03309 0.43177 0.0
H815 H 0.43274 0.81541 0.41525 0.0
H816 H 0.48131 0.88971 0.41401 0.0
H817 H 0.37943 0.91369 0.4148 0.0
H818 H 0.33018 0.83876 0.41598 0.0
H819 H 0.44696 0.96649 0.42992 0.0
H820 H 0.42283 0.92097 0.3892 0.0
H821 H 0.41708 0.87608 0.37225 0.0
H822 H 0.54511 0.91108 0.37631 0.0
H823 H 0.55149 0.95578 0.39343 0.0
C824 C 0.57213 0.15367 0.41073 0.0
C825 C 0.61455 0.1673 0.40926 0.0
C826 C 0.54316 0.11144 0.41151 0.0
C827 C 0.55594 0.08187 0.41093 0.0
C828 C 0.5982 0.09529 0.40924 0.0
C829 C 0.62731 0.13768 0.40845 0.0
C830 C 0.52503 0.03702 0.41207 0.0
C831 C 0.5215 0.01017 0.40276 0.0
C832 C 0.49775 0.02109 0.42198 0.0
C833 C 0.50145 0.04731 0.43243 0.0
C834 C 0.53927 0.06947 0.43859 0.0
C835 C 0.54262 0.09428 0.44839 0.0
C836 C 0.50828 0.09696 0.45217 0.0
C837 C 0.47047 0.07474 0.44618 0.0
C838 C 0.46696 0.04991 0.43636 0.0
C839 C 0.42054 0.8364 0.41522 0.0
C840 C 0.37758 0.82122 0.41568 0.0
C841 C 0.44839 0.87888 0.41446 0.0
C842 C 0.43396 0.90715 0.41419 0.0
C843 C 0.39114 0.89229 0.41497 0.0
C844 C 0.36309 0.84957 0.41562 0.0
C845 C 0.4639 0.95211 0.41293 0.0
C846 C 0.46726 0.97892 0.42222 0.0
C847 C 0.49108 0.968 0.40302 0.0
C848 C 0.48753 0.94144 0.39267 0.0
C849 C 0.44968 0.91885 0.38655 0.0
C850 C 0.44632 0.89349 0.3769 0.0
C851 C 0.48069 0.89068 0.37322 0.0
C852 C 0.51852 0.91329 0.37918 0.0
C853 C 0.52204 0.93868 0.38885 0.0
H854 H 0.47801 0.87107 0.36575 0.0
H855 H 0.51093 0.11618 0.45976 0.0
H856 H 0.48638 0.32262 0.74682 0.0
H857 H 0.46002 0.37127 0.7471 0.0
H858 H 0.5827 0.47214 0.73911 0.0
H859 H 0.60921 0.42415 0.73915 0.0
H860 H 0.55014 0.49441 0.75617 0.0
H861 H 0.50281 0.42797 0.71772 0.0
H862 H 0.46564 0.36839 0.70412 0.0
H863 H 0.35108 0.3343 0.72212 0.0
H864 H 0.38768 0.39341 0.73592 0.0
H865 H 0.50204 0.65028 0.74061 0.0
H866 H 0.5249 0.59899 0.74002 0.0
H867 H 0.40023 0.50181 0.74786 0.0
H868 H 0.37709 0.55263 0.7481 0.0
H869 H 0.43189 0.47622 0.73135 0.0
H870 H 0.47827 0.54269 0.76954 0.0
H871 H 0.51487 0.60174 0.78334 0.0
H872 H 0.63054 0.63502 0.76616 0.0
H873 H 0.59454 0.57647 0.75215 0.0
C874 C 0.50759 0.35516 0.74508 0.0
C875 C 0.54984 0.36956 0.74297 0.0
C876 C 0.49251 0.38292 0.7452 0.0
C877 C 0.51931 0.42542 0.74303 0.0
C878 C 0.56141 0.4396 0.74085 0.0
C879 C 0.5765 0.41205 0.74084 0.0
C880 C 0.50414 0.45559 0.74323 0.0
C881 C 0.52458 0.49064 0.75062 0.0
C882 C 0.47009 0.45024 0.73626 0.0
C883 C 0.44806 0.41485 0.72792 0.0
C884 C 0.46975 0.40759 0.71883 0.0
C885 C 0.44877 0.37394 0.71107 0.0
C886 C 0.40605 0.34751 0.71227 0.0
C887 C 0.38418 0.35476 0.72121 0.0
C888 C 0.40502 0.38834 0.72899 0.0
C889 C 0.47955 0.61797 0.74217 0.0
C890 C 0.43782 0.60552 0.74444 0.0
C891 C 0.49265 0.58868 0.7419 0.0
C892 C 0.4644 0.54651 0.74407 0.0
C893 C 0.42263 0.53408 0.74616 0.0
C894 C 0.40947 0.56323 0.74633 0.0
C895 C 0.4782 0.51527 0.74418 0.0
C896 C 0.45744 0.47997 0.73689 0.0
C897 C 0.51191 0.52031 0.75127 0.0
C898 C 0.53364 0.55543 0.75972 0.0
C899 C 0.51147 0.56278 0.76865 0.0
C900 C 0.53211 0.59613 0.77652 0.0
C901 C 0.57499 0.62218 0.77561 0.0
C902 C 0.59733 0.61485 0.76685 0.0
C903 C 0.57682 0.58157 0.75894 0.0
H904 H 0.59092 0.64798 0.78171 0.0
H905 H 0.38987 0.32147 0.70626 0.0
H906 H 0.4882 0.16049 0.5812 0.0
H907 H 0.46331 0.08577 0.58133 0.0
H908 H 0.5853 0.1099 0.57133 0.0
H909 H 0.61004 0.18412 0.571 0.0
H910 H 0.52804 0.04448 0.55945 0.0
H911 H 0.55219 0.08989 0.60033 0.0
H912 H 0.54465 0.12309 0.6185 0.0
H913 H 0.41375 0.03675 0.61896 0.0
H914 H 0.42042 0.0034 0.60068 0.0
H915 H 0.51153 0.85306 0.57907 0.0
H916 H 0.53307 0.92691 0.57724 0.0
H917 H 0.40663 0.89763 0.58265 0.0
H918 H 0.38488 0.82413 0.5843 0.0
H919 H 0.46471 0.96476 0.5966 0.0
H920 H 0.44234 0.91809 0.55579 0.0
H921 H 0.45183 0.88469 0.53797 0.0
H922 H 0.58208 0.97355 0.53783 0.0
H923 H 0.57347 0.00712 0.55578 0.0
C924 C 0.50954 0.14977 0.57892 0.0
C925 C 0.55112 0.1782 0.57617 0.0
C926 C 0.49537 0.10711 0.57905 0.0
C927 C 0.5226 0.09221 0.57649 0.0
C928 C 0.56372 0.12056 0.57335 0.0
C929 C 0.57785 0.16305 0.57321 0.0
C930 C 0.50892 0.04733 0.57746 0.0
C931 C 0.51456 0.02718 0.56762 0.0
C932 C 0.49084 0.02451 0.58806 0.0
C933 C 0.48673 0.04446 0.59906 0.0
C934 C 0.52174 0.0782 0.60425 0.0
C935 C 0.51764 0.09701 0.61457 0.0
C936 C 0.47873 0.08212 0.61986 0.0
C937 C 0.44385 0.04831 0.61484 0.0
C938 C 0.44778 0.02943 0.6045 0.0
C939 C 0.48841 0.86245 0.57987 0.0
C940 C 0.44653 0.83284 0.58179 0.0
C941 C 0.5007 0.90455 0.57879 0.0
C942 C 0.47137 0.91765 0.57977 0.0
C943 C 0.42972 0.88817 0.58187 0.0
C944 C 0.41736 0.84617 0.58277 0.0
C945 C 0.48391 0.9621 0.57862 0.0
C946 C 0.47808 0.98211 0.58843 0.0
C947 C 0.50209 0.98482 0.56804 0.0
C948 C 0.50733 0.96483 0.55721 0.0
C949 C 0.47308 0.93028 0.55203 0.0
C950 C 0.47828 0.91135 0.54189 0.0
C951 C 0.51755 0.9269 0.5368 0.0
C952 C 0.55168 0.96149 0.54181 0.0
C953 C 0.54666 0.9805 0.55196 0.0
H954 H 0.52151 0.91222 0.52894 0.0
H955 H 0.47561 0.09671 0.62786 0.0
H956 H 0.34489 0.50861 0.91608 0.0
H957 H 0.39677 0.48661 0.91521 0.0
H958 H 0.49141 0.60877 0.92626 0.0
H959 H 0.43997 0.63114 0.92685 0.0
H960 H 0.51846 0.5843 0.90817 0.0
H961 H 0.4521 0.52371 0.94541 0.0
H962 H 0.39339 0.48161 0.95889 0.0
H963 H 0.36231 0.37284 0.93817 0.0
H964 H 0.42053 0.4144 0.92446 0.0
H965 H 0.67348 0.52771 0.9195 0.0
H966 H 0.62373 0.55237 0.92137 0.0
H967 H 0.526 0.4343 0.90866 0.0
H968 H 0.5752 0.40945 0.90689 0.0
H969 H 0.50211 0.45829 0.92827 0.0
H970 H 0.56789 0.52002 0.89077 0.0
H971 H 0.62706 0.5625 0.87747 0.0
H972 H 0.65991 0.66981 0.89911 0.0
H973 H 0.60123 0.62781 0.91264 0.0
C974 C 0.37668 0.5306 0.91844 0.0
C975 C 0.38836 0.57157 0.92154 0.0
C976 C 0.40631 0.518 0.91797 0.0
C977 C 0.44803 0.54595 0.92076 0.0
C978 C 0.4595 0.58667 0.92404 0.0
C979 C 0.43001 0.59936 0.92442 0.0
C980 C 0.48001 0.53329 0.91986 0.0
C981 C 0.51516 0.55708 0.91272 0.0
C982 C 0.47543 0.49735 0.9256 0.0
C983 C 0.44045 0.47225 0.93384 0.0
C984 C 0.43256 0.49087 0.94367 0.0
C985 C 0.3994 0.46709 0.95137 0.0
C986 C 0.37408 0.4246 0.94937 0.0
C987 C 0.38193 0.40577 0.93969 0.0
C988 C 0.41502 0.42941 0.93197 0.0
C989 C 0.64146 0.50721 0.91701 0.0
C990 C 0.62826 0.46668 0.91304 0.0
C991 C 0.61308 0.52132 0.91807 0.0
C992 C 0.57112 0.49519 0.91512 0.0
C993 C 0.55813 0.45494 0.91102 0.0
C994 C 0.58638 0.44086 0.90997 0.0
C995 C 0.54033 0.50915 0.91653 0.0
C996 C 0.50544 0.4856 0.92377 0.0
C997 C 0.54522 0.54538 0.91092 0.0
C998 C 0.58044 0.57067 0.90278 0.0
C999 C 0.58794 0.5526 0.89275 0.0
C1000 C 0.62134 0.5766 0.88516 0.0
C1001 C 0.6473 0.6188 0.88746 0.0
C1002 C 0.63983 0.63711 0.89735 0.0
C1003 C 0.60648 0.61323 0.90497 0.0
H1004 H 0.67315 0.63734 0.88157 0.0
H1005 H 0.34843 0.40624 0.95534 0.0
H1006 H 0.1794 0.57074 0.24752 0.0
H1007 H 0.1051 0.52191 0.24796 0.0
H1008 H 0.08139 0.62284 0.25343 0.0
H1009 H 0.15633 0.67221 0.25318 0.0
H1010 H 0.03371 0.55804 0.268 0.0
H1011 H 0.06485 0.57632 0.22625 0.0
H1012 H 0.10257 0.57935 0.2078 0.0
H1013 H 0.06797 0.45152 0.21219 0.0
H1014 H 0.03051 0.44788 0.23077 0.0
H1015 H 0.81855 0.44105 0.25404 0.0
H1016 H 0.89256 0.49159 0.25461 0.0
H1017 H 0.92069 0.39337 0.24976 0.0
H1018 H 0.84631 0.34244 0.24908 0.0
H1019 H 0.96575 0.45811 0.23481 0.0
H1020 H 0.93378 0.44044 0.27671 0.0
H1021 H 0.89562 0.43831 0.29498 0.0
H1022 H 0.93107 0.56614 0.29005 0.0
H1023 H 0.96885 0.56886 0.27163 0.0
C1024 C 0.15846 0.58269 0.24879 0.0
C1025 C 0.17377 0.62542 0.25026 0.0
C1026 C 0.1159 0.55467 0.249 0.0
C1027 C 0.08755 0.56868 0.25057 0.0
C1028 C 0.10269 0.61132 0.25217 0.0
C1029 C 0.14546 0.6395 0.25198 0.0
C1030 C 0.04223 0.53852 0.25062 0.0
C1031 C 0.01869 0.53662 0.26066 0.0
C1032 C 0.02278 0.50992 0.24116 0.0
C1033 C 0.04518 0.51194 0.22996 0.0
C1034 C 0.06555 0.54894 0.22333 0.0
C1035 C 0.08684 0.55075 0.21284 0.0
C1036 C 0.08775 0.51568 0.20884 0.0
C1037 C 0.06728 0.47868 0.21531 0.0
C1038 C 0.04597 0.47671 0.22581 0.0
C1039 C 0.84045 0.43009 0.25319 0.0
C1040 C 0.82658 0.38771 0.25152 0.0
C1041 C 0.88279 0.45906 0.25356 0.0
C1042 C 0.91224 0.4463 0.25232 0.0
C1043 C 0.89851 0.40392 0.25075 0.0
C1044 C 0.85604 0.37484 0.25041 0.0
C1045 C 0.95727 0.4774 0.25223 0.0
C1046 C 0.98075 0.47953 0.24215 0.0
C1047 C 0.97655 0.50631 0.26163 0.0
C1048 C 0.95387 0.50475 0.27272 0.0
C1049 C 0.93316 0.46801 0.27946 0.0
C1050 C 0.91165 0.46671 0.28986 0.0
C1051 C 0.91094 0.50207 0.29367 0.0
C1052 C 0.93167 0.53878 0.28709 0.0
C1053 C 0.95315 0.54022 0.27667 0.0
H1054 H 0.89434 0.50103 0.30174 0.0
H1055 H 0.10425 0.51715 0.20072 0.0
H1056 H 0.57486 0.38596 0.08754 0.0
H1057 H 0.52477 0.40988 0.08694 0.0
H1058 H 0.61826 0.5272 0.07251 0.0
H1059 H 0.66905 0.50345 0.0732 0.0
H1060 H 0.56964 0.53571 0.08976 0.0
H1061 H 0.54806 0.45494 0.05408 0.0
H1062 H 0.53629 0.39286 0.0429 0.0
H1063 H 0.42201 0.31914 0.06181 0.0
H1064 H 0.43333 0.38066 0.07321 0.0
H1065 H 0.43307 0.60277 0.07051 0.0
H1066 H 0.48441 0.58035 0.07042 0.0
H1067 H 0.39177 0.45932 0.08288 0.0
H1068 H 0.33978 0.48144 0.08276 0.0
H1069 H 0.44073 0.45325 0.06628 0.0
H1070 H 0.46149 0.5311 0.10222 0.0
H1071 H 0.47272 0.59115 0.11434 0.0
H1072 H 0.58739 0.66828 0.09597 0.0
H1073 H 0.57654 0.60878 0.08361 0.0
C1074 C 0.58496 0.41702 0.08433 0.0
C1075 C 0.62585 0.44276 0.08033 0.0
C1076 C 0.5562 0.43055 0.08394 0.0
C1077 C 0.56756 0.46998 0.07946 0.0
C1078 C 0.60882 0.49651 0.07593 0.0
C1079 C 0.63777 0.48297 0.07633 0.0
C1080 C 0.53595 0.48289 0.07827 0.0
C1081 C 0.54177 0.51812 0.08447 0.0
C1082 C 0.49904 0.45919 0.07163 0.0
C1083 C 0.49173 0.42236 0.06457 0.0
C1084 C 0.52053 0.42545 0.0559 0.0
C1085 C 0.51392 0.39037 0.04951 0.0
C1086 C 0.4785 0.35207 0.05168 0.0
C1087 C 0.44946 0.34882 0.06016 0.0
C1088 C 0.45592 0.3838 0.06657 0.0
C1089 C 0.42347 0.57124 0.07314 0.0
C1090 C 0.38244 0.54392 0.07673 0.0
C1091 C 0.45294 0.55854 0.07314 0.0
C1092 C 0.44218 0.51843 0.07688 0.0
C1093 C 0.40082 0.4905 0.08002 0.0
C1094 C 0.37116 0.50315 0.07996 0.0
C1095 C 0.4744 0.50616 0.07778 0.0
C1096 C 0.46868 0.47101 0.07153 0.0
C1097 C 0.51127 0.52976 0.08445 0.0
C1098 C 0.51799 0.56557 0.09191 0.0
C1099 C 0.48895 0.56094 0.1007 0.0
C1100 C 0.49527 0.59486 0.10763 0.0
C1101 C 0.5307 0.63353 0.1059 0.0
C1102 C 0.55993 0.63832 0.09728 0.0
C1103 C 0.55373 0.6045 0.09032 0.0
H1104 H 0.53554 0.65976 0.11127 0.0
H1105 H 0.47353 0.32488 0.04679 0.0
H1106 H 0.84362 0.32686 0.40616 0.0
H1107 H 0.91846 0.37625 0.406 0.0
H1108 H 0.89429 0.47803 0.40723 0.0
H1109 H 0.81995 0.42918 0.40724 0.0
H1110 H 0.95445 0.49353 0.39152 0.0
H1111 H 0.92245 0.44628 0.43226 0.0
H1112 H 0.89482 0.39418 0.44839 0.0
H1113 H 0.97927 0.35232 0.43853 0.0
H1114 H 0.00702 0.40383 0.42222 0.0
H1115 H 0.15262 0.65608 0.41068 0.0
H1116 H 0.07851 0.60499 0.40911 0.0
H1117 H 0.10729 0.50633 0.40773 0.0
H1118 H 0.18099 0.55693 0.40942 0.0
H1119 H 0.04523 0.48806 0.42305 0.0
H1120 H 0.07878 0.53733 0.38264 0.0
H1121 H 0.10628 0.58988 0.36662 0.0
H1122 H 0.01894 0.62854 0.37602 0.0
H1123 H 0.99128 0.57658 0.3922 0.0
C1124 C 0.85435 0.35977 0.40635 0.0
C1125 C 0.82594 0.37414 0.40676 0.0
C1126 C 0.89706 0.38794 0.4063 0.0
C1127 C 0.91196 0.43086 0.40672 0.0
C1128 C 0.88354 0.44512 0.40689 0.0
C1129 C 0.84102 0.4171 0.40694 0.0
C1130 C 0.95708 0.46116 0.40717 0.0
C1131 C 0.97424 0.49258 0.39848 0.0
C1132 C 0.98304 0.45949 0.41612 0.0
C1133 C 0.96648 0.42859 0.42594 0.0
C1134 C 0.93489 0.42573 0.43347 0.0
C1135 C 0.91925 0.39636 0.44266 0.0
C1136 C 0.9352 0.36988 0.44446 0.0
C1137 C 0.9669 0.3728 0.43711 0.0
C1138 C 0.98261 0.40209 0.42789 0.0
C1139 C 0.14309 0.62351 0.40999 0.0
C1140 C 0.1726 0.61053 0.41017 0.0
C1141 C 0.10079 0.59437 0.40905 0.0
C1142 C 0.08739 0.55183 0.40822 0.0
C1143 C 0.11689 0.53894 0.40838 0.0
C1144 C 0.15903 0.56796 0.40931 0.0
C1145 C 0.04261 0.52051 0.40742 0.0
C1146 C 0.0255 0.48892 0.41606 0.0
C1147 C 0.0167 0.5221 0.39844 0.0
C1148 C 0.03325 0.55334 0.38871 0.0
C1149 C 0.06567 0.55727 0.38135 0.0
C1150 C 0.08124 0.5869 0.37223 0.0
C1151 C 0.06444 0.6126 0.37032 0.0
C1152 C 0.03196 0.60865 0.37751 0.0
C1153 C 0.0163 0.57909 0.38666 0.0
H1154 H 0.07654 0.63552 0.36325 0.0
H1155 H 0.92306 0.34716 0.45158 0.0
H1156 H 0.4933 0.14535 0.74612 0.0
H1157 H 0.47089 0.07123 0.74689 0.0
H1158 H 0.59716 0.09985 0.74146 0.0
H1159 H 0.61968 0.17366 0.74067 0.0
H1160 H 0.54252 0.03428 0.72771 0.0
H1161 H 0.55672 0.07696 0.76881 0.0
H1162 H 0.54415 0.10869 0.7865 0.0
H1163 H 0.4138 0.021 0.78443 0.0
H1164 H 0.42553 0.98911 0.76661 0.0
H1165 H 0.51143 0.83486 0.74389 0.0
H1166 H 0.53792 0.90992 0.7433 0.0
H1167 H 0.4151 0.88867 0.75072 0.0
H1168 H 0.38877 0.81429 0.7515 0.0
H1169 H 0.47071 0.95145 0.76371 0.0
H1170 H 0.45542 0.90998 0.72242 0.0
H1171 H 0.46695 0.87829 0.70453 0.0
H1172 H 0.5979 0.96337 0.70674 0.0
H1173 H 0.58719 0.99521 0.72475 0.0
C1174 C 0.51619 0.13577 0.74504 0.0
C1175 C 0.55824 0.16529 0.74339 0.0
C1176 C 0.50341 0.09348 0.74553 0.0
C1177 C 0.53246 0.08009 0.74434 0.0
C1178 C 0.57426 0.10949 0.74241 0.0
C1179 C 0.58707 0.15167 0.742 0.0
C1180 C 0.51953 0.03551 0.7453 0.0
C1181 C 0.52727 0.01625 0.73564 0.0
C1182 C 0.49908 0.01189 0.75556 0.0
C1183 C 0.49196 0.03093 0.7663 0.0
C1184 C 0.52533 0.06466 0.77206 0.0
C1185 C 0.51837 0.08264 0.78213 0.0
C1186 C 0.47819 0.06694 0.78657 0.0
C1187 C 0.4449 0.03316 0.78097 0.0
C1188 C 0.45169 0.01511 0.7709 0.0
C1189 C 0.49022 0.84632 0.74546 0.0
C1190 C 0.44803 0.8187 0.74771 0.0
C1191 C 0.50531 0.88913 0.74506 0.0
C1192 C 0.47838 0.90489 0.74685 0.0
C1193 C 0.43647 0.87729 0.74932 0.0
C1194 C 0.42145 0.83472 0.74973 0.0
C1195 C 0.49335 0.95002 0.74608 0.0
C1196 C 0.48605 0.96945 0.75579 0.0
C1197 C 0.51404 0.97372 0.73583 0.0
C1198 C 0.52055 0.95465 0.72501 0.0
C1199 C 0.48671 0.9217 0.71915 0.0
C1200 C 0.49309 0.90375 0.70898 0.0
C1201 C 0.53315 0.91872 0.70452 0.0
C1202 C 0.5669 0.95175 0.71021 0.0
C1203 C 0.56069 0.96977 0.7204 0.0
H1204 H 0.53802 0.9048 0.69665 0.0
H1205 H 0.47286 0.08089 0.79436 0.0
H1206 H 0.51829 0.67573 0.58569 0.0
H1207 H 0.54381 0.62641 0.58606 0.0
H1208 H 0.42231 0.52861 0.59642 0.0
H1209 H 0.39672 0.57752 0.59608 0.0
H1210 H 0.48434 0.52405 0.60856 0.0
H1211 H 0.44984 0.53818 0.56798 0.0
H1212 H 0.45319 0.5766 0.54966 0.0
H1213 H 0.58398 0.62205 0.54696 0.0
H1214 H 0.5815 0.58439 0.56539 0.0
H1215 H 0.497 0.34639 0.58962 0.0
H1216 H 0.47597 0.39889 0.59206 0.0
H1217 H 0.5993 0.49487 0.5825 0.0
H1218 H 0.62053 0.44299 0.58017 0.0
H1219 H 0.53805 0.50146 0.57035 0.0
H1220 H 0.57252 0.48563 0.61048 0.0
H1221 H 0.56948 0.44721 0.62876 0.0
H1222 H 0.43952 0.40491 0.6323 0.0
H1223 H 0.44165 0.44259 0.61392 0.0
C1224 C 0.49724 0.64385 0.58821 0.0
C1225 C 0.45546 0.63041 0.59077 0.0
C1226 C 0.51178 0.61569 0.58838 0.0
C1227 C 0.4848 0.57373 0.59115 0.0
C1228 C 0.44363 0.56078 0.59425 0.0
C1229 C 0.42904 0.58877 0.59401 0.0
C1230 C 0.49859 0.54272 0.59013 0.0
C1231 C 0.49575 0.51884 0.60018 0.0
C1232 C 0.51404 0.53635 0.57925 0.0
C1233 C 0.51557 0.55886 0.56814 0.0
C1234 C 0.47938 0.55665 0.56354 0.0
C1235 C 0.4811 0.57824 0.55313 0.0
C1236 C 0.5188 0.60185 0.54717 0.0
C1237 C 0.55482 0.60382 0.5516 0.0
C1238 C 0.55327 0.58235 0.56202 0.0
C1239 C 0.51957 0.37869 0.58807 0.0
C1240 C 0.56039 0.39058 0.58472 0.0
C1241 C 0.50759 0.40863 0.5895 0.0
C1242 C 0.53617 0.45078 0.5875 0.0
C1243 C 0.57679 0.46255 0.58408 0.0
C1244 C 0.58886 0.43282 0.58279 0.0
C1245 C 0.52381 0.48277 0.58877 0.0
C1246 C 0.52681 0.50677 0.57875 0.0
C1247 C 0.50856 0.48921 0.59968 0.0
C1248 C 0.50714 0.46656 0.61074 0.0
C1249 C 0.5432 0.46781 0.61509 0.0
C1250 C 0.54166 0.44624 0.62549 0.0
C1251 C 0.5043 0.42353 0.63167 0.0
C1252 C 0.46842 0.42245 0.62749 0.0
C1253 C 0.46978 0.44394 0.61708 0.0
H1254 H 0.50317 0.40685 0.63972 0.0
H1255 H 0.52007 0.61853 0.53911 0.0
H1256 H 0.16042 0.50029 0.92028 0.0
H1257 H 0.08548 0.47451 0.92088 0.0
H1258 H 0.10808 0.598 0.91388 0.0
H1259 H 0.18244 0.62383 0.91333 0.0
H1260 H 0.05417 0.56198 0.93219 0.0
H1261 H 0.07228 0.52583 0.8921 0.0
H1262 H 0.09407 0.49266 0.87688 0.0
H1263 H 0.01285 0.37323 0.89226 0.0
H1264 H 0.99099 0.40578 0.90768 0.0
H1265 H 0.85291 0.52276 0.91597 0.0
H1266 H 0.92671 0.54412 0.91665 0.0
H1267 H 0.89503 0.41686 0.92194 0.0
H1268 H 0.8215 0.39533 0.92108 0.0
H1269 H 0.95307 0.45195 0.9053 0.0
H1270 H 0.93269 0.48708 0.94491 0.0
H1271 H 0.9108 0.51972 0.96026 0.0
H1272 H 0.99606 0.64011 0.94616 0.0
H1273 H 0.01807 0.60813 0.93061 0.0
C1274 C 0.14929 0.52179 0.91879 0.0
C1275 C 0.17728 0.56404 0.91675 0.0
C1276 C 0.10654 0.50707 0.91913 0.0
C1277 C 0.09123 0.53438 0.9174 0.0
C1278 C 0.1192 0.57644 0.91528 0.0
C1279 C 0.16171 0.59109 0.91492 0.0
C1280 C 0.04617 0.51965 0.91795 0.0
C1281 C 0.03208 0.53819 0.92624 0.0
C1282 C 0.01727 0.48789 0.91039 0.0
C1283 C 0.03036 0.46829 0.90113 0.0
C1284 C 0.05934 0.49253 0.8923 0.0
C1285 C 0.07165 0.47384 0.88363 0.0
C1286 C 0.05495 0.43088 0.88363 0.0
C1287 C 0.02582 0.40651 0.89229 0.0
C1288 C 0.01344 0.42506 0.90099 0.0
C1289 C 0.86174 0.49944 0.91738 0.0
C1290 C 0.83145 0.4574 0.91847 0.0
C1291 C 0.90389 0.51166 0.91779 0.0
C1292 C 0.91642 0.48209 0.91942 0.0
C1293 C 0.88613 0.44019 0.92065 0.0
C1294 C 0.8441 0.42798 0.9202 0.0
C1295 C 0.96104 0.49455 0.91948 0.0
C1296 C 0.97506 0.47557 0.91131 0.0
C1297 C 0.98988 0.52583 0.92718 0.0
C1298 C 0.97674 0.54517 0.93652 0.0
C1299 C 0.94653 0.52049 0.94502 0.0
C1300 C 0.93415 0.53888 0.95377 0.0
C1301 C 0.95195 0.58195 0.95417 0.0
C1302 C 0.98226 0.60674 0.94583 0.0
C1303 C 0.99473 0.5885 0.93705 0.0
H1304 H 0.94233 0.59613 0.96095 0.0
H1305 H 0.06451 0.41646 0.8769 0.0
H1306 H 0.34226 0.85073 0.24455 0.0
H1307 H 0.3944 0.92478 0.2437 0.0
H1308 H 0.48518 0.89886 0.25909 0.0
H1309 H 0.43354 0.82508 0.25987 0.0
H1310 H 0.48702 0.96859 0.26905 0.0
H1311 H 0.48758 0.91275 0.23037 0.0
H1312 H 0.45631 0.87486 0.21167 0.0
H1313 H 0.41617 0.96153 0.20294 0.0
H1314 H 0.44664 0.99957 0.2217 0.0
H1315 H 0.66699 0.16211 0.25519 0.0
H1316 H 0.61759 0.08731 0.25621 0.0
H1317 H 0.52572 0.10598 0.23825 0.0
H1318 H 0.57472 0.18016 0.2371 0.0
H1319 H 0.5258 0.03901 0.22961 0.0
H1320 H 0.52316 0.0939 0.2683 0.0
H1321 H 0.55319 0.13176 0.28709 0.0
H1322 H 0.59598 0.04724 0.2959 0.0
H1323 H 0.5667 0.00922 0.27706 0.0
C1324 C 0.37322 0.86094 0.24785 0.0
C1325 C 0.38391 0.83216 0.25222 0.0
C1326 C 0.40299 0.90314 0.24732 0.0
C1327 C 0.44373 0.91719 0.25125 0.0
C1328 C 0.45396 0.88866 0.25601 0.0
C1329 C 0.42444 0.84652 0.25641 0.0
C1330 C 0.47613 0.96141 0.25007 0.0
C1331 C 0.49588 0.98391 0.26042 0.0
C1332 C 0.48719 0.98146 0.23882 0.0
C1333 C 0.46899 0.95874 0.22751 0.0
C1334 C 0.47175 0.92352 0.22452 0.0
C1335 C 0.45424 0.90205 0.2139 0.0
C1336 C 0.43417 0.91571 0.20614 0.0
C1337 C 0.43167 0.95094 0.20897 0.0
C1338 C 0.44907 0.97248 0.21959 0.0
C1339 C 0.63638 0.15012 0.25138 0.0
C1340 C 0.62466 0.177 0.24612 0.0
C1341 C 0.60813 0.10747 0.25201 0.0
C1342 C 0.56778 0.09112 0.24742 0.0
C1343 C 0.55661 0.11784 0.24186 0.0
C1344 C 0.58467 0.1603 0.24125 0.0
C1345 C 0.5366 0.0464 0.24861 0.0
C1346 C 0.51706 0.02374 0.23825 0.0
C1347 C 0.52562 0.02627 0.25986 0.0
C1348 C 0.54317 0.04901 0.27121 0.0
C1349 C 0.53928 0.0836 0.2742 0.0
C1350 C 0.55611 0.10505 0.28486 0.0
C1351 C 0.57659 0.09199 0.29267 0.0
C1352 C 0.58018 0.05737 0.28983 0.0
C1353 C 0.56346 0.03585 0.27916 0.0
H1354 H 0.58959 0.10863 0.30093 0.0
H1355 H 0.42064 0.89905 0.19792 0.0
loop_
_geom_bond_atom_site_label_1
_geom_bond_atom_site_label_2
_geom_bond_distance
_geom_bond_site_symmetry_2
_ccdc_geom_bond_type
In0 O1 2.294 . S
In0 O2 2.326 . S
In0 O6 2.266 . S
In0 O7 2.326 . S
In0 O8 2.266 . S
In0 O9 2.326 . S
In0 O11 2.294 . S
In0 O12 2.326 . S
O1 In0 2.294 . S
O1 C10 1.240 . S
O2 In0 2.326 . S
O2 C10 1.252 . S
C3 O6 1.252 . S
C3 O7 1.260 . S
C4 O11 1.240 . S
C4 O12 1.252 . S
C5 O8 1.252 . S
C5 O9 1.260 . S
O6 In0 2.266 . S
O6 C3 1.252 . S
O7 In0 2.326 . S
O7 C3 1.260 . S
O8 In0 2.266 . S
O8 C5 1.252 . S
O9 In0 2.326 . S
O9 C5 1.260 . S
C10 O1 1.240 . S
C10 O2 1.252 . S
O11 In0 2.294 . S
O11 C4 1.240 . S
O12 In0 2.326 . S
O12 C4 1.252 . S
In13 O14 2.294 . S
In13 O15 2.326 . S
In13 O19 2.266 . S
In13 O20 2.326 . S
In13 O21 2.266 . S
In13 O22 2.326 . S
In13 O24 2.294 . S
In13 O25 2.326 . S
O14 In13 2.294 . S
O14 C23 1.240 . S
O15 In13 2.326 . S
O15 C23 1.252 . S
C16 O19 1.252 . S
C16 O20 1.260 . S
C17 O24 1.240 . S
C17 O25 1.252 . S
C18 O21 1.252 . S
C18 O22 1.260 . S
O19 In13 2.266 . S
O19 C16 1.252 . S
O20 In13 2.326 . S
O20 C16 1.260 . S
O21 In13 2.266 . S
O21 C18 1.252 . S
O22 In13 2.326 . S
O22 C18 1.260 . S
C23 O14 1.240 . S
C23 O15 1.252 . S
O24 In13 2.294 . S
O24 C17 1.240 . S
O25 In13 2.326 . S
O25 C17 1.252 . S
In26 O27 2.294 . S
In26 O28 2.326 . S
In26 O32 2.266 . S
In26 O33 2.326 . S
In26 O34 2.266 . S
In26 O35 2.326 . S
In26 O37 2.294 . S
In26 O38 2.326 . S
O27 In26 2.294 . S
O27 C36 1.240 . S
O28 In26 2.326 . S
O28 C36 1.252 . S
C29 O32 1.252 . S
C29 O33 1.260 . S
C30 O37 1.240 . S
C30 O38 1.252 . S
C31 O34 1.252 . S
C31 O35 1.260 . S
O32 In26 2.266 . S
O32 C29 1.252 . S
O33 In26 2.326 . S
O33 C29 1.260 . S
O34 In26 2.266 . S
O34 C31 1.252 . S
O35 In26 2.326 . S
O35 C31 1.260 . S
C36 O27 1.240 . S
C36 O28 1.252 . S
O37 In26 2.294 . S
O37 C30 1.240 . S
O38 In26 2.326 . S
O38 C30 1.252 . S
In39 O40 2.294 . S
In39 O41 2.326 . S
In39 O45 2.266 . S
In39 O46 2.326 . S
In39 O47 2.266 . S
In39 O48 2.326 . S
In39 O50 2.294 . S
In39 O51 2.326 . S
O40 In39 2.294 . S
O40 C49 1.240 . S
O41 In39 2.326 . S
O41 C49 1.252 . S
C42 O45 1.252 . S
C42 O46 1.260 . S
C43 O50 1.240 . S
C43 O51 1.252 . S
C44 O47 1.252 . S
C44 O48 1.260 . S
O45 In39 2.266 . S
O45 C42 1.252 . S
O46 In39 2.326 . S
O46 C42 1.260 . S
O47 In39 2.266 . S
O47 C44 1.252 . S
O48 In39 2.326 . S
O48 C44 1.260 . S
C49 O40 1.240 . S
C49 O41 1.252 . S
O50 In39 2.294 . S
O50 C43 1.240 . S
O51 In39 2.326 . S
O51 C43 1.252 . S
In52 O53 2.294 . S
In52 O54 2.326 . S
In52 O58 2.266 . S
In52 O59 2.326 . S
In52 O60 2.266 . S
In52 O61 2.326 . S
In52 O63 2.294 . S
In52 O64 2.326 . S
O53 In52 2.294 . S
O53 C62 1.240 . S
O54 In52 2.326 . S
O54 C62 1.252 . S
C55 O58 1.252 . S
C55 O59 1.260 . S
C56 O63 1.240 . S
C56 O64 1.252 . S
C57 O60 1.252 . S
C57 O61 1.260 . S
O58 In52 2.266 . S
O58 C55 1.252 . S
O59 In52 2.326 . S
O59 C55 1.260 . S
O60 In52 2.266 . S
O60 C57 1.252 . S
O61 In52 2.326 . S
O61 C57 1.260 . S
C62 O53 1.240 . S
C62 O54 1.252 . S
O63 In52 2.294 . S
O63 C56 1.240 . S
O64 In52 2.326 . S
O64 C56 1.252 . S
In65 O66 2.294 . S
In65 O67 2.326 . S
In65 O71 2.266 . S
In65 O72 2.326 . S
In65 O73 2.266 . S
In65 O74 2.326 . S
In65 O76 2.294 . S
In65 O77 2.326 . S
O66 In65 2.294 . S
O66 C75 1.240 . S
O67 In65 2.326 . S
O67 C75 1.252 . S
C68 O71 1.252 . S
C68 O72 1.260 . S
C69 O76 1.240 . S
C69 O77 1.252 . S
C70 O73 1.252 . S
C70 O74 1.260 . S
O71 In65 2.266 . S
O71 C68 1.252 . S
O72 In65 2.326 . S
O72 C68 1.260 . S
O73 In65 2.266 . S
O73 C70 1.252 . S
O74 In65 2.326 . S
O74 C70 1.260 . S
C75 O66 1.240 . S
C75 O67 1.252 . S
O76 In65 2.294 . S
O76 C69 1.240 . S
O77 In65 2.326 . S
O77 C69 1.252 . S
In78 O79 2.294 . S
In78 O80 2.326 . S
In78 O84 2.266 . S
In78 O85 2.326 . S
In78 O86 2.266 . S
In78 O87 2.326 . S
In78 O89 2.294 . S
In78 O90 2.326 . S
O79 In78 2.294 . S
O79 C88 1.240 . S
O80 In78 2.326 . S
O80 C88 1.252 . S
C81 O84 1.252 . S
C81 O85 1.260 . S
C82 O89 1.240 . S
C82 O90 1.252 . S
C83 O86 1.252 . S
C83 O87 1.260 . S
O84 In78 2.266 . S
O84 C81 1.252 . S
O85 In78 2.326 . S
O85 C81 1.260 . S
O86 In78 2.266 . S
O86 C83 1.252 . S
O87 In78 2.326 . S
O87 C83 1.260 . S
C88 O79 1.240 . S
C88 O80 1.252 . S
O89 In78 2.294 . S
O89 C82 1.240 . S
O90 In78 2.326 . S
O90 C82 1.252 . S
In91 O92 2.294 . S
In91 O93 2.326 . S
In91 O97 2.266 . S
In91 O98 2.326 . S
In91 O99 2.266 . S
In91 O100 2.326 . S
In91 O102 2.294 . S
In91 O103 2.326 . S
O92 In91 2.294 . S
O92 C101 1.240 . S
O93 In91 2.326 . S
O93 C101 1.252 . S
C94 O97 1.252 . S
C94 O98 1.260 . S
C95 O102 1.240 . S
C95 O103 1.252 . S
C96 O99 1.252 . S
C96 O100 1.260 . S
O97 In91 2.266 . S
O97 C94 1.252 . S
O98 In91 2.326 . S
O98 C94 1.260 . S
O99 In91 2.266 . S
O99 C96 1.252 . S
O100 In91 2.326 . S
O100 C96 1.260 . S
C101 O92 1.240 . S
C101 O93 1.252 . S
O102 In91 2.294 . S
O102 C95 1.240 . S
O103 In91 2.326 . S
O103 C95 1.252 . S
In104 O105 2.294 . S
In104 O106 2.326 . S
In104 O110 2.266 . S
In104 O111 2.326 . S
In104 O112 2.266 . S
In104 O113 2.326 . S
In104 O115 2.294 . S
In104 O116 2.326 . S
O105 In104 2.294 . S
O105 C114 1.240 . S
O106 In104 2.326 . S
O106 C114 1.252 . S
C107 O110 1.252 . S
C107 O111 1.260 . S
C108 O115 1.240 . S
C108 O116 1.252 . S
C109 O112 1.252 . S
C109 O113 1.260 . S
O110 In104 2.266 . S
O110 C107 1.252 . S
O111 In104 2.326 . S
O111 C107 1.260 . S
O112 In104 2.266 . S
O112 C109 1.252 . S
O113 In104 2.326 . S
O113 C109 1.260 . S
C114 O105 1.240 . S
C114 O106 1.252 . S
O115 In104 2.294 . S
O115 C108 1.240 . S
O116 In104 2.326 . S
O116 C108 1.252 . S
In117 O118 2.294 . S
In117 O119 2.326 . S
In117 O123 2.266 . S
In117 O124 2.326 . S
In117 O125 2.266 . S
In117 O126 2.326 . S
In117 O128 2.294 . S
In117 O129 2.326 . S
O118 In117 2.294 . S
O118 C127 1.240 . S
O119 In117 2.326 . S
O119 C127 1.252 . S
C120 O123 1.252 . S
C120 O124 1.260 . S
C121 O128 1.240 . S
C121 O129 1.252 . S
C122 O125 1.252 . S
C122 O126 1.260 . S
O123 In117 2.266 . S
O123 C120 1.252 . S
O124 In117 2.326 . S
O124 C120 1.260 . S
O125 In117 2.266 . S
O125 C122 1.252 . S
O126 In117 2.326 . S
O126 C122 1.260 . S
C127 O118 1.240 . S
C127 O119 1.252 . S
O128 In117 2.294 . S
O128 C121 1.240 . S
O129 In117 2.326 . S
O129 C121 1.252 . S
In130 O131 2.294 . S
In130 O132 2.326 . S
In130 O136 2.266 . S
In130 O137 2.326 . S
In130 O138 2.266 . S
In130 O139 2.326 . S
In130 O141 2.294 . S
In130 O142 2.326 . S
O131 In130 2.294 . S
O131 C140 1.240 . S
O132 In130 2.326 . S
O132 C140 1.252 . S
C133 O136 1.252 . S
C133 O137 1.260 . S
C134 O141 1.240 . S
C134 O142 1.252 . S
C135 O138 1.252 . S
C135 O139 1.260 . S
O136 In130 2.266 . S
O136 C133 1.252 . S
O137 In130 2.326 . S
O137 C133 1.260 . S
O138 In130 2.266 . S
O138 C135 1.252 . S
O139 In130 2.326 . S
O139 C135 1.260 . S
C140 O131 1.240 . S
C140 O132 1.252 . S
O141 In130 2.294 . S
O141 C134 1.240 . S
O142 In130 2.326 . S
O142 C134 1.252 . S
In143 O144 2.294 . S
In143 O145 2.326 . S
In143 O149 2.266 . S
In143 O150 2.326 . S
In143 O151 2.266 . S
In143 O152 2.326 . S
In143 O154 2.294 . S
In143 O155 2.326 . S
O144 In143 2.294 . S
O144 C153 1.240 . S
O145 In143 2.326 . S
O145 C153 1.252 . S
C146 O149 1.252 . S
C146 O150 1.260 . S
C147 O154 1.240 . S
C147 O155 1.252 . S
C148 O151 1.252 . S
C148 O152 1.260 . S
O149 In143 2.266 . S
O149 C146 1.252 . S
O150 In143 2.326 . S
O150 C146 1.260 . S
O151 In143 2.266 . S
O151 C148 1.252 . S
O152 In143 2.326 . S
O152 C148 1.260 . S
C153 O144 1.240 . S
C153 O145 1.252 . S
O154 In143 2.294 . S
O154 C147 1.240 . S
O155 In143 2.326 . S
O155 C147 1.252 . S
H156 C174 0.951 . S
H157 C176 0.951 . S
H158 C178 0.950 . S
H159 C179 0.950 . S
H160 C181 0.950 . S
H161 C184 0.950 . S
H162 C185 0.950 . S
H163 C187 0.950 . S
H164 C188 0.950 . S
H165 C189 0.951 . S
H166 C191 0.951 . S
H167 C193 0.950 . S
H168 C194 0.950 . S
H169 C196 0.950 . S
H170 C199 0.950 . S
H171 C200 0.950 . S
H172 C202 0.950 . S
H173 C203 0.950 . S
C174 H156 0.951 . S
C174 C175 1.366 . S
C174 C176 1.388 . S
C175 C174 1.366 . S
C175 C179 1.385 . S
C176 H157 0.951 . S
C176 C174 1.388 . S
C176 C177 1.366 . S
C177 C176 1.366 . S
C177 C178 1.414 . S
C177 C180 1.499 . S
C178 H158 0.950 . S
C178 C177 1.414 . S
C178 C179 1.374 . S
C179 H159 0.950 . S
C179 C175 1.385 . S
C179 C178 1.374 . S
C180 C177 1.499 . S
C180 C181 1.373 . S
C180 C182 1.389 . S
C181 H160 0.950 . S
C181 C180 1.373 . S
C181 C197 1.377 1_556 S
C182 C180 1.389 . S
C182 C183 1.524 . S
C182 C196 1.377 1_556 S
C183 C182 1.524 . S
C183 C184 1.397 . S
C183 C188 1.363 . S
C184 H161 0.950 . S
C184 C183 1.397 . S
C184 C185 1.334 . S
C185 H162 0.950 . S
C185 C184 1.334 . S
C185 C186 1.287 . S
C186 C185 1.287 . S
C186 C187 1.524 . S
C186 H205 0.913 . S
C187 H163 0.950 . S
C187 C186 1.524 . S
C187 C188 1.415 . S
C188 H164 0.950 . S
C188 C183 1.363 . S
C188 C187 1.415 . S
C189 H165 0.951 . S
C189 C190 1.366 . S
C189 C191 1.388 . S
C190 C189 1.366 . S
C190 C194 1.385 . S
C191 H166 0.951 . S
C191 C189 1.388 . S
C191 C192 1.366 . S
C192 C191 1.366 . S
C192 C193 1.414 . S
C192 C195 1.499 . S
C193 H167 0.950 . S
C193 C192 1.414 . S
C193 C194 1.374 . S
C194 H168 0.950 . S
C194 C190 1.385 . S
C194 C193 1.374 . S
C195 C192 1.499 . S
C195 C196 1.373 . S
C195 C197 1.389 . S
C196 H169 0.950 . S
C196 C182 1.377 1_554 S
C196 C195 1.373 . S
C197 C181 1.377 1_554 S
C197 C195 1.389 . S
C197 C198 1.524 . S
C198 C197 1.524 . S
C198 C199 1.397 . S
C198 C203 1.363 . S
C199 H170 0.950 . S
C199 C198 1.397 . S
C199 C200 1.334 . S
C200 H171 0.950 . S
C200 C199 1.334 . S
C200 C201 1.287 . S
C201 C200 1.287 . S
C201 C202 1.524 . S
C201 H204 0.999 . S
C202 H172 0.950 . S
C202 C201 1.524 . S
C202 C203 1.415 . S
C203 H173 0.950 . S
C203 C198 1.363 . S
C203 C202 1.415 . S
H204 C201 0.999 . S
H205 C186 0.913 . S
H206 C224 0.951 . S
H207 C226 0.951 . S
H208 C228 0.950 . S
H209 C229 0.950 . S
H210 C231 0.950 . S
H211 C234 0.950 . S
H212 C235 0.950 . S
H213 C237 0.950 . S
H214 C238 0.950 . S
H215 C239 0.951 . S
H216 C241 0.951 . S
H217 C243 0.950 . S
H218 C244 0.950 . S
H219 C246 0.950 . S
H220 C249 0.950 . S
H221 C250 0.950 . S
H222 C252 0.950 . S
H223 C253 0.950 . S
C224 H206 0.951 . S
C224 C225 1.366 . S
C224 C226 1.388 . S
C225 C224 1.366 . S
C225 C229 1.385 . S
C226 H207 0.951 . S
C226 C224 1.388 . S
C226 C227 1.366 . S
C227 C226 1.366 . S
C227 C228 1.414 . S
C227 C230 1.499 . S
C228 H208 0.950 . S
C228 C227 1.414 . S
C228 C229 1.374 . S
C229 H209 0.950 . S
C229 C225 1.385 . S
C229 C228 1.374 . S
C230 C227 1.499 . S
C230 C231 1.373 . S
C230 C232 1.389 . S
C231 H210 0.950 . S
C231 C230 1.373 . S
C231 C247 1.377 . S
C232 C230 1.389 . S
C232 C233 1.524 . S
C232 C246 1.377 . S
C233 C232 1.524 . S
C233 C234 1.397 . S
C233 C238 1.363 . S
C234 H211 0.950 . S
C234 C233 1.397 . S
C234 C235 1.334 . S
C235 H212 0.950 . S
C235 C234 1.334 . S
C235 C236 1.287 . S
C236 C235 1.287 . S
C236 C237 1.524 . S
C236 H255 0.913 . S
C237 H213 0.950 . S
C237 C236 1.524 . S
C237 C238 1.415 . S
C238 H214 0.950 . S
C238 C233 1.363 . S
C238 C237 1.415 . S
C239 H215 0.951 . S
C239 C240 1.366 . S
C239 C241 1.388 . S
C240 C239 1.366 . S
C240 C244 1.385 . S
C241 H216 0.951 . S
C241 C239 1.388 . S
C241 C242 1.366 . S
C242 C241 1.366 . S
C242 C243 1.414 . S
C242 C245 1.499 . S
C243 H217 0.950 . S
C243 C242 1.414 . S
C243 C244 1.374 . S
C244 H218 0.950 . S
C244 C240 1.385 . S
C244 C243 1.374 . S
C245 C242 1.499 . S
C245 C246 1.373 . S
C245 C247 1.389 . S
C246 H219 0.950 . S
C246 C232 1.377 . S
C246 C245 1.373 . S
C247 C231 1.377 . S
C247 C245 1.389 . S
C247 C248 1.524 . S
C248 C247 1.524 . S
C248 C249 1.397 . S
C248 C253 1.363 . S
C249 H220 0.950 . S
C249 C248 1.397 . S
C249 C250 1.334 . S
C250 H221 0.950 . S
C250 C249 1.334 . S
C250 C251 1.287 . S
C251 C250 1.287 . S
C251 C252 1.524 . S
C251 H254 0.999 . S
C252 H222 0.950 . S
C252 C251 1.524 . S
C252 C253 1.415 . S
C253 H223 0.950 . S
C253 C248 1.363 . S
C253 C252 1.415 . S
H254 C251 0.999 . S
H255 C236 0.913 . S
H256 C274 0.951 . S
H257 C276 0.951 . S
H258 C278 0.950 . S
H259 C279 0.950 . S
H260 C281 0.950 . S
H261 C284 0.950 . S
H262 C285 0.950 . S
H263 C287 0.950 . S
H264 C288 0.950 . S
H265 C289 0.951 . S
H266 C291 0.951 . S
H267 C293 0.950 . S
H268 C294 0.950 . S
H269 C296 0.950 . S
H270 C299 0.950 . S
H271 C300 0.950 . S
H272 C302 0.950 . S
H273 C303 0.950 . S
C274 H256 0.951 . S
C274 C275 1.366 . S
C274 C276 1.388 . S
C275 C274 1.366 . S
C275 C279 1.385 . S
C276 H257 0.951 . S
C276 C274 1.388 . S
C276 C277 1.366 . S
C277 C276 1.366 . S
C277 C278 1.414 . S
C277 C280 1.499 . S
C278 H258 0.950 . S
C278 C277 1.414 . S
C278 C279 1.374 . S
C279 H259 0.950 . S
C279 C275 1.385 . S
C279 C278 1.374 . S
C280 C277 1.499 . S
C280 C281 1.373 . S
C280 C282 1.389 . S
C281 H260 0.950 . S
C281 C280 1.373 . S
C281 C297 1.377 . S
C282 C280 1.389 . S
C282 C283 1.524 . S
C282 C296 1.377 . S
C283 C282 1.524 . S
C283 C284 1.397 . S
C283 C288 1.363 . S
C284 H261 0.950 . S
C284 C283 1.397 . S
C284 C285 1.334 . S
C285 H262 0.950 . S
C285 C284 1.334 . S
C285 C286 1.287 . S
C286 C285 1.287 . S
C286 C287 1.524 . S
C286 H305 0.913 . S
C287 H263 0.950 . S
C287 C286 1.524 . S
C287 C288 1.415 . S
C288 H264 0.950 . S
C288 C283 1.363 . S
C288 C287 1.415 . S
C289 H265 0.951 . S
C289 C290 1.366 . S
C289 C291 1.388 . S
C290 C289 1.366 . S
C290 C294 1.385 . S
C291 H266 0.951 . S
C291 C289 1.388 . S
C291 C292 1.366 . S
C292 C291 1.366 . S
C292 C293 1.414 . S
C292 C295 1.499 . S
C293 H267 0.950 . S
C293 C292 1.414 . S
C293 C294 1.374 . S
C294 H268 0.950 . S
C294 C290 1.385 . S
C294 C293 1.374 . S
C295 C292 1.499 . S
C295 C296 1.373 . S
C295 C297 1.389 . S
C296 H269 0.950 . S
C296 C282 1.377 . S
C296 C295 1.373 . S
C297 C281 1.377 . S
C297 C295 1.389 . S
C297 C298 1.524 . S
C298 C297 1.524 . S
C298 C299 1.397 . S
C298 C303 1.363 . S
C299 H270 0.950 . S
C299 C298 1.397 . S
C299 C300 1.334 . S
C300 H271 0.950 . S
C300 C299 1.334 . S
C300 C301 1.287 . S
C301 C300 1.287 . S
C301 C302 1.524 . S
C301 H304 0.999 . S
C302 H272 0.950 . S
C302 C301 1.524 . S
C302 C303 1.415 . S
C303 H273 0.950 . S
C303 C298 1.363 . S
C303 C302 1.415 . S
H304 C301 0.999 . S
H305 C286 0.913 . S
H306 C324 0.951 . S
H307 C326 0.951 . S
H308 C328 0.950 . S
H309 C329 0.950 . S
H310 C331 0.950 . S
H311 C334 0.950 . S
H312 C335 0.950 . S
H313 C337 0.950 . S
H314 C338 0.950 . S
H315 C339 0.951 . S
H316 C341 0.951 . S
H317 C343 0.950 . S
H318 C344 0.950 . S
H319 C346 0.950 . S
H320 C349 0.950 . S
H321 C350 0.950 . S
H322 C352 0.950 . S
H323 C353 0.950 . S
C324 H306 0.951 . S
C324 C325 1.366 . S
C324 C326 1.388 . S
C325 C324 1.366 . S
C325 C329 1.385 . S
C326 H307 0.951 . S
C326 C324 1.388 . S
C326 C327 1.366 . S
C327 C326 1.366 . S
C327 C328 1.414 . S
C327 C330 1.499 . S
C328 H308 0.950 . S
C328 C327 1.414 . S
C328 C329 1.374 . S
C329 H309 0.950 . S
C329 C325 1.385 . S
C329 C328 1.374 . S
C330 C327 1.499 . S
C330 C331 1.373 . S
C330 C332 1.389 . S
C331 H310 0.950 . S
C331 C330 1.373 . S
C331 C347 1.377 1_554 S
C332 C330 1.389 . S
C332 C333 1.524 . S
C332 C346 1.377 1_554 S
C333 C332 1.524 . S
C333 C334 1.397 . S
C333 C338 1.363 . S
C334 H311 0.950 . S
C334 C333 1.397 . S
C334 C335 1.334 . S
C335 H312 0.950 . S
C335 C334 1.334 . S
C335 C336 1.287 . S
C336 C335 1.287 . S
C336 C337 1.524 . S
C336 H355 0.913 . S
C337 H313 0.950 . S
C337 C336 1.524 . S
C337 C338 1.415 . S
C338 H314 0.950 . S
C338 C333 1.363 . S
C338 C337 1.415 . S
C339 H315 0.951 . S
C339 C340 1.366 . S
C339 C341 1.388 . S
C340 C339 1.366 . S
C340 C344 1.385 . S
C341 H316 0.951 . S
C341 C339 1.388 . S
C341 C342 1.366 . S
C342 C341 1.366 . S
C342 C343 1.414 . S
C342 C345 1.499 . S
C343 H317 0.950 . S
C343 C342 1.414 . S
C343 C344 1.374 . S
C344 H318 0.950 . S
C344 C340 1.385 . S
C344 C343 1.374 . S
C345 C342 1.499 . S
C345 C346 1.373 . S
C345 C347 1.389 . S
C346 H319 0.950 . S
C346 C332 1.377 1_556 S
C346 C345 1.373 . S
C347 C331 1.377 1_556 S
C347 C345 1.389 . S
C347 C348 1.524 . S
C348 C347 1.524 . S
C348 C349 1.397 . S
C348 C353 1.363 . S
C349 H320 0.950 . S
C349 C348 1.397 . S
C349 C350 1.334 . S
C350 H321 0.950 . S
C350 C349 1.334 . S
C350 C351 1.287 . S
C351 C350 1.287 . S
C351 C352 1.524 . S
C351 H354 0.999 . S
C352 H322 0.950 . S
C352 C351 1.524 . S
C352 C353 1.415 . S
C353 H323 0.950 . S
C353 C348 1.363 . S
C353 C352 1.415 . S
H354 C351 0.999 . S
H355 C336 0.913 . S
H356 C374 0.951 . S
H357 C376 0.951 . S
H358 C378 0.950 . S
H359 C379 0.950 . S
H360 C381 0.950 . S
H361 C384 0.950 . S
H362 C385 0.950 . S
H363 C387 0.950 . S
H364 C388 0.950 . S
H365 C389 0.951 . S
H366 C391 0.951 . S
H367 C393 0.950 . S
H368 C394 0.950 . S
H369 C396 0.950 . S
H370 C399 0.950 . S
H371 C400 0.950 . S
H372 C402 0.950 . S
H373 C403 0.950 . S
C374 H356 0.951 . S
C374 C375 1.366 . S
C374 C376 1.388 . S
C375 C374 1.366 . S
C375 C379 1.385 . S
C376 H357 0.951 . S
C376 C374 1.388 . S
C376 C377 1.366 . S
C377 C376 1.366 . S
C377 C378 1.414 . S
C377 C380 1.499 . S
C378 H358 0.950 . S
C378 C377 1.414 . S
C378 C379 1.374 . S
C379 H359 0.950 . S
C379 C375 1.385 . S
C379 C378 1.374 . S
C380 C377 1.499 . S
C380 C381 1.373 . S
C380 C382 1.389 . S
C381 H360 0.950 . S
C381 C380 1.373 . S
C381 C397 1.377 . S
C382 C380 1.389 . S
C382 C383 1.524 . S
C382 C396 1.377 . S
C383 C382 1.524 . S
C383 C384 1.397 . S
C383 C388 1.363 . S
C384 H361 0.950 . S
C384 C383 1.397 . S
C384 C385 1.334 . S
C385 H362 0.950 . S
C385 C384 1.334 . S
C385 C386 1.287 . S
C386 C385 1.287 . S
C386 C387 1.524 . S
C386 H405 0.913 . S
C387 H363 0.950 . S
C387 C386 1.524 . S
C387 C388 1.415 . S
C388 H364 0.950 . S
C388 C383 1.363 . S
C388 C387 1.415 . S
C389 H365 0.951 . S
C389 C390 1.366 . S
C389 C391 1.388 . S
C390 C389 1.366 . S
C390 C394 1.385 . S
C391 H366 0.951 . S
C391 C389 1.388 . S
C391 C392 1.366 . S
C392 C391 1.366 . S
C392 C393 1.414 . S
C392 C395 1.499 . S
C393 H367 0.950 . S
C393 C392 1.414 . S
C393 C394 1.374 . S
C394 H368 0.950 . S
C394 C390 1.385 . S
C394 C393 1.374 . S
C395 C392 1.499 . S
C395 C396 1.373 . S
C395 C397 1.389 . S
C396 H369 0.950 . S
C396 C382 1.377 . S
C396 C395 1.373 . S
C397 C381 1.377 . S
C397 C395 1.389 . S
C397 C398 1.524 . S
C398 C397 1.524 . S
C398 C399 1.397 . S
C398 C403 1.363 . S
C399 H370 0.950 . S
C399 C398 1.397 . S
C399 C400 1.334 . S
C400 H371 0.950 . S
C400 C399 1.334 . S
C400 C401 1.287 . S
C401 C400 1.287 . S
C401 C402 1.524 . S
C401 H404 0.999 . S
C402 H372 0.950 . S
C402 C401 1.524 . S
C402 C403 1.415 . S
C403 H373 0.950 . S
C403 C398 1.363 . S
C403 C402 1.415 . S
H404 C401 0.999 . S
H405 C386 0.913 . S
H406 C424 0.951 . S
H407 C426 0.951 . S
H408 C428 0.950 . S
H409 C429 0.950 . S
H410 C431 0.950 . S
H411 C434 0.950 . S
H412 C435 0.950 . S
H413 C437 0.950 . S
H414 C438 0.950 . S
H415 C439 0.951 . S
H416 C441 0.951 . S
H417 C443 0.950 . S
H418 C444 0.950 . S
H419 C446 0.950 . S
H420 C449 0.950 . S
H421 C450 0.950 . S
H422 C452 0.950 . S
H423 C453 0.950 . S
C424 H406 0.951 . S
C424 C425 1.366 . S
C424 C426 1.388 . S
C425 C424 1.366 . S
C425 C429 1.385 . S
C426 H407 0.951 . S
C426 C424 1.388 . S
C426 C427 1.366 . S
C427 C426 1.366 . S
C427 C428 1.414 . S
C427 C430 1.499 . S
C428 H408 0.950 . S
C428 C427 1.414 . S
C428 C429 1.374 . S
C429 H409 0.950 . S
C429 C425 1.385 . S
C429 C428 1.374 . S
C430 C427 1.499 . S
C430 C431 1.373 . S
C430 C432 1.389 . S
C431 H410 0.950 . S
C431 C430 1.373 . S
C431 C447 1.377 . S
C432 C430 1.389 . S
C432 C433 1.524 . S
C432 C446 1.377 . S
C433 C432 1.524 . S
C433 C434 1.397 . S
C433 C438 1.363 . S
C434 H411 0.950 . S
C434 C433 1.397 . S
C434 C435 1.334 . S
C435 H412 0.950 . S
C435 C434 1.334 . S
C435 C436 1.287 . S
C436 C435 1.287 . S
C436 C437 1.524 . S
C436 H455 0.913 . S
C437 H413 0.950 . S
C437 C436 1.524 . S
C437 C438 1.415 . S
C438 H414 0.950 . S
C438 C433 1.363 . S
C438 C437 1.415 . S
C439 H415 0.951 . S
C439 C440 1.366 . S
C439 C441 1.388 . S
C440 C439 1.366 . S
C440 C444 1.385 . S
C441 H416 0.951 . S
C441 C439 1.388 . S
C441 C442 1.366 . S
C442 C441 1.366 . S
C442 C443 1.414 . S
C442 C445 1.499 . S
C443 H417 0.950 . S
C443 C442 1.414 . S
C443 C444 1.374 . S
C444 H418 0.950 . S
C444 C440 1.385 . S
C444 C443 1.374 . S
C445 C442 1.499 . S
C445 C446 1.373 . S
C445 C447 1.389 . S
C446 H419 0.950 . S
C446 C432 1.377 . S
C446 C445 1.373 . S
C447 C431 1.377 . S
C447 C445 1.389 . S
C447 C448 1.524 . S
C448 C447 1.524 . S
C448 C449 1.397 . S
C448 C453 1.363 . S
C449 H420 0.950 . S
C449 C448 1.397 . S
C449 C450 1.334 . S
C450 H421 0.950 . S
C450 C449 1.334 . S
C450 C451 1.287 . S
C451 C450 1.287 . S
C451 C452 1.524 . S
C451 H454 0.999 . S
C452 H422 0.950 . S
C452 C451 1.524 . S
C452 C453 1.415 . S
C453 H423 0.950 . S
C453 C448 1.363 . S
C453 C452 1.415 . S
H454 C451 0.999 . S
H455 C436 0.913 . S
H456 C474 0.951 . S
H457 C476 0.951 . S
H458 C478 0.950 . S
H459 C479 0.950 . S
H460 C481 0.950 . S
H461 C484 0.950 . S
H462 C485 0.950 . S
H463 C487 0.950 . S
H464 C488 0.950 . S
H465 C489 0.951 . S
H466 C491 0.951 . S
H467 C493 0.950 . S
H468 C494 0.950 . S
H469 C496 0.950 . S
H470 C499 0.950 . S
H471 C500 0.950 . S
H472 C502 0.950 . S
H473 C503 0.950 . S
C474 H456 0.951 . S
C474 C475 1.366 . S
C474 C476 1.388 . S
C475 C474 1.366 . S
C475 C479 1.385 . S
C476 H457 0.951 . S
C476 C474 1.388 . S
C476 C477 1.366 . S
C477 C476 1.366 . S
C477 C478 1.414 . S
C477 C480 1.499 . S
C478 H458 0.950 . S
C478 C477 1.414 . S
C478 C479 1.374 . S
C479 H459 0.950 . S
C479 C475 1.385 . S
C479 C478 1.374 . S
C480 C477 1.499 . S
C480 C481 1.373 . S
C480 C482 1.389 . S
C481 H460 0.950 . S
C481 C480 1.373 . S
C481 C497 1.377 . S
C482 C480 1.389 . S
C482 C483 1.524 . S
C482 C496 1.377 . S
C483 C482 1.524 . S
C483 C484 1.397 . S
C483 C488 1.363 . S
C484 H461 0.950 . S
C484 C483 1.397 . S
C484 C485 1.334 . S
C485 H462 0.950 . S
C485 C484 1.334 . S
C485 C486 1.287 . S
C486 C485 1.287 . S
C486 C487 1.524 . S
C486 H505 0.913 . S
C487 H463 0.950 . S
C487 C486 1.524 . S
C487 C488 1.415 . S
C488 H464 0.950 . S
C488 C483 1.363 . S
C488 C487 1.415 . S
C489 H465 0.951 . S
C489 C490 1.366 . S
C489 C491 1.388 . S
C490 C489 1.366 . S
C490 C494 1.385 . S
C491 H466 0.951 . S
C491 C489 1.388 . S
C491 C492 1.366 . S
C492 C491 1.366 . S
C492 C493 1.414 . S
C492 C495 1.499 . S
C493 H467 0.950 . S
C493 C492 1.414 . S
C493 C494 1.374 . S
C494 H468 0.950 . S
C494 C490 1.385 . S
C494 C493 1.374 . S
C495 C492 1.499 . S
C495 C496 1.373 . S
C495 C497 1.389 . S
C496 H469 0.950 . S
C496 C482 1.377 . S
C496 C495 1.373 . S
C497 C481 1.377 . S
C497 C495 1.389 . S
C497 C498 1.524 . S
C498 C497 1.524 . S
C498 C499 1.397 . S
C498 C503 1.363 . S
C499 H470 0.950 . S
C499 C498 1.397 . S
C499 C500 1.334 . S
C500 H471 0.950 . S
C500 C499 1.334 . S
C500 C501 1.287 . S
C501 C500 1.287 . S
C501 C502 1.524 . S
C501 H504 0.999 . S
C502 H472 0.950 . S
C502 C501 1.524 . S
C502 C503 1.415 . S
C503 H473 0.950 . S
C503 C498 1.363 . S
C503 C502 1.415 . S
H504 C501 0.999 . S
H505 C486 0.913 . S
H506 C524 0.951 . S
H507 C526 0.951 . S
H508 C528 0.950 . S
H509 C529 0.950 . S
H510 C531 0.950 . S
H511 C534 0.950 . S
H512 C535 0.950 . S
H513 C537 0.950 . S
H514 C538 0.950 . S
H515 C539 0.951 . S
H516 C541 0.951 . S
H517 C543 0.950 . S
H518 C544 0.950 . S
H519 C546 0.950 . S
H520 C549 0.950 . S
H521 C550 0.950 . S
H522 C552 0.950 . S
H523 C553 0.950 . S
C524 H506 0.951 . S
C524 C525 1.366 . S
C524 C526 1.388 . S
C525 C524 1.366 . S
C525 C529 1.385 . S
C526 H507 0.951 . S
C526 C524 1.388 . S
C526 C527 1.366 . S
C527 C526 1.366 . S
C527 C528 1.414 . S
C527 C530 1.499 . S
C528 H508 0.950 . S
C528 C527 1.414 . S
C528 C529 1.374 . S
C529 H509 0.950 . S
C529 C525 1.385 . S
C529 C528 1.374 . S
C530 C527 1.499 . S
C530 C531 1.373 . S
C530 C532 1.389 . S
C531 H510 0.950 . S
C531 C530 1.373 . S
C531 C547 1.377 . S
C532 C530 1.389 . S
C532 C533 1.524 . S
C532 C546 1.377 . S
C533 C532 1.524 . S
C533 C534 1.397 . S
C533 C538 1.363 . S
C534 H511 0.950 . S
C534 C533 1.397 . S
C534 C535 1.334 . S
C535 H512 0.950 . S
C535 C534 1.334 . S
C535 C536 1.287 . S
C536 C535 1.287 . S
C536 C537 1.524 . S
C536 H555 0.913 . S
C537 H513 0.950 . S
C537 C536 1.524 . S
C537 C538 1.415 . S
C538 H514 0.950 . S
C538 C533 1.363 . S
C538 C537 1.415 . S
C539 H515 0.951 . S
C539 C540 1.366 . S
C539 C541 1.388 . S
C540 C539 1.366 . S
C540 C544 1.385 . S
C541 H516 0.951 . S
C541 C539 1.388 . S
C541 C542 1.366 . S
C542 C541 1.366 . S
C542 C543 1.414 . S
C542 C545 1.499 . S
C543 H517 0.950 . S
C543 C542 1.414 . S
C543 C544 1.374 . S
C544 H518 0.950 . S
C544 C540 1.385 . S
C544 C543 1.374 . S
C545 C542 1.499 . S
C545 C546 1.373 . S
C545 C547 1.389 . S
C546 H519 0.950 . S
C546 C532 1.377 . S
C546 C545 1.373 . S
C547 C531 1.377 . S
C547 C545 1.389 . S
C547 C548 1.524 . S
C548 C547 1.524 . S
C548 C549 1.397 . S
C548 C553 1.363 . S
C549 H520 0.950 . S
C549 C548 1.397 . S
C549 C550 1.334 . S
C550 H521 0.950 . S
C550 C549 1.334 . S
C550 C551 1.287 . S
C551 C550 1.287 . S
C551 C552 1.524 . S
C551 H554 0.999 . S
C552 H522 0.950 . S
C552 C551 1.524 . S
C552 C553 1.415 . S
C553 H523 0.950 . S
C553 C548 1.363 . S
C553 C552 1.415 . S
H554 C551 0.999 . S
H555 C536 0.913 . S
H556 C574 0.951 . S
H557 C576 0.951 . S
H558 C578 0.950 . S
H559 C579 0.950 . S
H560 C581 0.950 . S
H561 C584 0.950 . S
H562 C585 0.950 . S
H563 C587 0.950 . S
H564 C588 0.950 . S
H565 C589 0.951 . S
H566 C591 0.951 . S
H567 C593 0.950 . S
H568 C594 0.950 . S
H569 C596 0.950 . S
H570 C599 0.950 . S
H571 C600 0.950 . S
H572 C602 0.950 . S
H573 C603 0.950 . S
C574 H556 0.951 . S
C574 C575 1.366 . S
C574 C576 1.388 . S
C575 C574 1.366 . S
C575 C579 1.385 . S
C576 H557 0.951 . S
C576 C574 1.388 . S
C576 C577 1.366 . S
C577 C576 1.366 . S
C577 C578 1.414 . S
C577 C580 1.499 . S
C578 H558 0.950 . S
C578 C577 1.414 . S
C578 C579 1.374 . S
C579 H559 0.950 . S
C579 C575 1.385 . S
C579 C578 1.374 . S
C580 C577 1.499 . S
C580 C581 1.373 . S
C580 C582 1.389 . S
C581 H560 0.950 . S
C581 C580 1.373 . S
C581 C597 1.377 . S
C582 C580 1.389 . S
C582 C583 1.524 . S
C582 C596 1.377 . S
C583 C582 1.524 . S
C583 C584 1.397 . S
C583 C588 1.363 . S
C584 H561 0.950 . S
C584 C583 1.397 . S
C584 C585 1.334 . S
C585 H562 0.950 . S
C585 C584 1.334 . S
C585 C586 1.287 . S
C586 C585 1.287 . S
C586 C587 1.524 . S
C586 H605 0.913 . S
C587 H563 0.950 . S
C587 C586 1.524 . S
C587 C588 1.415 . S
C588 H564 0.950 . S
C588 C583 1.363 . S
C588 C587 1.415 . S
C589 H565 0.951 . S
C589 C590 1.366 . S
C589 C591 1.388 . S
C590 C589 1.366 . S
C590 C594 1.385 . S
C591 H566 0.951 . S
C591 C589 1.388 . S
C591 C592 1.366 . S
C592 C591 1.366 . S
C592 C593 1.414 . S
C592 C595 1.499 . S
C593 H567 0.950 . S
C593 C592 1.414 . S
C593 C594 1.374 . S
C594 H568 0.950 . S
C594 C590 1.385 . S
C594 C593 1.374 . S
C595 C592 1.499 . S
C595 C596 1.373 . S
C595 C597 1.389 . S
C596 H569 0.950 . S
C596 C582 1.377 . S
C596 C595 1.373 . S
C597 C581 1.377 . S
C597 C595 1.389 . S
C597 C598 1.524 . S
C598 C597 1.524 . S
C598 C599 1.397 . S
C598 C603 1.363 . S
C599 H570 0.950 . S
C599 C598 1.397 . S
C599 C600 1.334 . S
C600 H571 0.950 . S
C600 C599 1.334 . S
C600 C601 1.287 . S
C601 C600 1.287 . S
C601 C602 1.524 . S
C601 H604 0.999 . S
C602 H572 0.950 . S
C602 C601 1.524 . S
C602 C603 1.415 . S
C603 H573 0.950 . S
C603 C598 1.363 . S
C603 C602 1.415 . S
H604 C601 0.999 . S
H605 C586 0.913 . S
H606 C624 0.951 . S
H607 C626 0.951 . S
H608 C628 0.950 . S
H609 C629 0.950 . S
H610 C631 0.950 . S
H611 C634 0.950 . S
H612 C635 0.950 . S
H613 C637 0.950 . S
H614 C638 0.950 . S
H615 C639 0.951 . S
H616 C641 0.951 . S
H617 C643 0.950 . S
H618 C644 0.950 . S
H619 C646 0.950 . S
H620 C649 0.950 . S
H621 C650 0.950 . S
H622 C652 0.950 . S
H623 C653 0.950 . S
C624 H606 0.951 . S
C624 C625 1.366 . S
C624 C626 1.388 . S
C625 C624 1.366 . S
C625 C629 1.385 . S
C626 H607 0.951 . S
C626 C624 1.388 . S
C626 C627 1.366 . S
C627 C626 1.366 . S
C627 C628 1.414 . S
C627 C630 1.499 . S
C628 H608 0.950 . S
C628 C627 1.414 . S
C628 C629 1.374 . S
C629 H609 0.950 . S
C629 C625 1.385 . S
C629 C628 1.374 . S
C630 C627 1.499 . S
C630 C631 1.373 . S
C630 C632 1.389 . S
C631 H610 0.950 . S
C631 C630 1.373 . S
C631 C647 1.377 . S
C632 C630 1.389 . S
C632 C633 1.524 . S
C632 C646 1.377 . S
C633 C632 1.524 . S
C633 C634 1.397 . S
C633 C638 1.363 . S
C634 H611 0.950 . S
C634 C633 1.397 . S
C634 C635 1.334 . S
C635 H612 0.950 . S
C635 C634 1.334 . S
C635 C636 1.287 . S
C636 C635 1.287 . S
C636 C637 1.524 . S
C636 H655 0.913 . S
C637 H613 0.950 . S
C637 C636 1.524 . S
C637 C638 1.415 . S
C638 H614 0.950 . S
C638 C633 1.363 . S
C638 C637 1.415 . S
C639 H615 0.951 . S
C639 C640 1.366 . S
C639 C641 1.388 . S
C640 C639 1.366 . S
C640 C644 1.385 . S
C641 H616 0.951 . S
C641 C639 1.388 . S
C641 C642 1.366 . S
C642 C641 1.366 . S
C642 C643 1.414 . S
C642 C645 1.499 . S
C643 H617 0.950 . S
C643 C642 1.414 . S
C643 C644 1.374 . S
C644 H618 0.950 . S
C644 C640 1.385 . S
C644 C643 1.374 . S
C645 C642 1.499 . S
C645 C646 1.373 . S
C645 C647 1.389 . S
C646 H619 0.950 . S
C646 C632 1.377 . S
C646 C645 1.373 . S
C647 C631 1.377 . S
C647 C645 1.389 . S
C647 C648 1.524 . S
C648 C647 1.524 . S
C648 C649 1.397 . S
C648 C653 1.363 . S
C649 H620 0.950 . S
C649 C648 1.397 . S
C649 C650 1.334 . S
C650 H621 0.950 . S
C650 C649 1.334 . S
C650 C651 1.287 . S
C651 C650 1.287 . S
C651 C652 1.524 . S
C651 H654 0.999 . S
C652 H622 0.950 . S
C652 C651 1.524 . S
C652 C653 1.415 . S
C653 H623 0.950 . S
C653 C648 1.363 . S
C653 C652 1.415 . S
H654 C651 0.999 . S
H655 C636 0.913 . S
H656 C674 0.951 . S
H657 C676 0.951 . S
H658 C678 0.950 . S
H659 C679 0.950 . S
H660 C681 0.950 . S
H661 C684 0.950 . S
H662 C685 0.950 . S
H663 C687 0.950 . S
H664 C688 0.950 . S
H665 C689 0.951 . S
H666 C691 0.951 . S
H667 C693 0.950 . S
H668 C694 0.950 . S
H669 C696 0.950 . S
H670 C699 0.950 . S
H671 C700 0.950 . S
H672 C702 0.950 . S
H673 C703 0.950 . S
C674 H656 0.951 . S
C674 C675 1.366 . S
C674 C676 1.388 . S
C675 C674 1.366 . S
C675 C679 1.385 . S
C676 H657 0.951 . S
C676 C674 1.388 . S
C676 C677 1.366 . S
C677 C676 1.366 . S
C677 C678 1.414 . S
C677 C680 1.499 . S
C678 H658 0.950 . S
C678 C677 1.414 . S
C678 C679 1.374 . S
C679 H659 0.950 . S
C679 C675 1.385 . S
C679 C678 1.374 . S
C680 C677 1.499 . S
C680 C681 1.373 . S
C680 C682 1.389 . S
C681 H660 0.950 . S
C681 C680 1.373 . S
C681 C697 1.377 . S
C682 C680 1.389 . S
C682 C683 1.524 . S
C682 C696 1.377 . S
C683 C682 1.524 . S
C683 C684 1.397 . S
C683 C688 1.363 . S
C684 H661 0.950 . S
C684 C683 1.397 . S
C684 C685 1.334 . S
C685 H662 0.950 . S
C685 C684 1.334 . S
C685 C686 1.287 . S
C686 C685 1.287 . S
C686 C687 1.524 . S
C686 H705 0.913 . S
C687 H663 0.950 . S
C687 C686 1.524 . S
C687 C688 1.415 . S
C688 H664 0.950 . S
C688 C683 1.363 . S
C688 C687 1.415 . S
C689 H665 0.951 . S
C689 C690 1.366 . S
C689 C691 1.388 . S
C690 C689 1.366 . S
C690 C694 1.385 . S
C691 H666 0.951 . S
C691 C689 1.388 . S
C691 C692 1.366 . S
C692 C691 1.366 . S
C692 C693 1.414 . S
C692 C695 1.499 . S
C693 H667 0.950 . S
C693 C692 1.414 . S
C693 C694 1.374 . S
C694 H668 0.950 . S
C694 C690 1.385 . S
C694 C693 1.374 . S
C695 C692 1.499 . S
C695 C696 1.373 . S
C695 C697 1.389 . S
C696 H669 0.950 . S
C696 C682 1.377 . S
C696 C695 1.373 . S
C697 C681 1.377 . S
C697 C695 1.389 . S
C697 C698 1.524 . S
C698 C697 1.524 . S
C698 C699 1.397 . S
C698 C703 1.363 . S
C699 H670 0.950 . S
C699 C698 1.397 . S
C699 C700 1.334 . S
C700 H671 0.950 . S
C700 C699 1.334 . S
C700 C701 1.287 . S
C701 C700 1.287 . S
C701 C702 1.524 . S
C701 H704 0.999 . S
C702 H672 0.950 . S
C702 C701 1.524 . S
C702 C703 1.415 . S
C703 H673 0.950 . S
C703 C698 1.363 . S
C703 C702 1.415 . S
H704 C701 0.999 . S
H705 C686 0.913 . S
H706 C724 0.951 . S
H707 C726 0.951 . S
H708 C728 0.950 . S
H709 C729 0.950 . S
H710 C731 0.950 . S
H711 C734 0.950 . S
H712 C735 0.950 . S
H713 C737 0.950 . S
H714 C738 0.950 . S
H715 C739 0.951 . S
H716 C741 0.951 . S
H717 C743 0.950 . S
H718 C744 0.950 . S
H719 C746 0.950 . S
H720 C749 0.950 . S
H721 C750 0.950 . S
H722 C752 0.950 . S
H723 C753 0.950 . S
C724 H706 0.951 . S
C724 C725 1.366 . S
C724 C726 1.388 . S
C725 C724 1.366 . S
C725 C729 1.385 . S
C726 H707 0.951 . S
C726 C724 1.388 . S
C726 C727 1.366 . S
C727 C726 1.366 . S
C727 C728 1.414 . S
C727 C730 1.499 . S
C728 H708 0.950 . S
C728 C727 1.414 . S
C728 C729 1.374 . S
C729 H709 0.950 . S
C729 C725 1.385 . S
C729 C728 1.374 . S
C730 C727 1.499 . S
C730 C731 1.373 . S
C730 C732 1.389 . S
C731 H710 0.950 . S
C731 C730 1.373 . S
C731 C747 1.377 . S
C732 C730 1.389 . S
C732 C733 1.524 . S
C732 C746 1.377 . S
C733 C732 1.524 . S
C733 C734 1.397 . S
C733 C738 1.363 . S
C734 H711 0.950 . S
C734 C733 1.397 . S
C734 C735 1.334 . S
C735 H712 0.950 . S
C735 C734 1.334 . S
C735 C736 1.287 . S
C736 C735 1.287 . S
C736 C737 1.524 . S
C736 H755 0.913 . S
C737 H713 0.950 . S
C737 C736 1.524 . S
C737 C738 1.415 . S
C738 H714 0.950 . S
C738 C733 1.363 . S
C738 C737 1.415 . S
C739 H715 0.951 . S
C739 C740 1.366 . S
C739 C741 1.388 . S
C740 C739 1.366 . S
C740 C744 1.385 . S
C741 H716 0.951 . S
C741 C739 1.388 . S
C741 C742 1.366 . S
C742 C741 1.366 . S
C742 C743 1.414 . S
C742 C745 1.499 . S
C743 H717 0.950 . S
C743 C742 1.414 . S
C743 C744 1.374 . S
C744 H718 0.950 . S
C744 C740 1.385 . S
C744 C743 1.374 . S
C745 C742 1.499 . S
C745 C746 1.373 . S
C745 C747 1.389 . S
C746 H719 0.950 . S
C746 C732 1.377 . S
C746 C745 1.373 . S
C747 C731 1.377 . S
C747 C745 1.389 . S
C747 C748 1.524 . S
C748 C747 1.524 . S
C748 C749 1.397 . S
C748 C753 1.363 . S
C749 H720 0.950 . S
C749 C748 1.397 . S
C749 C750 1.334 . S
C750 H721 0.950 . S
C750 C749 1.334 . S
C750 C751 1.287 . S
C751 C750 1.287 . S
C751 C752 1.524 . S
C751 H754 0.999 . S
C752 H722 0.950 . S
C752 C751 1.524 . S
C752 C753 1.415 . S
C753 H723 0.950 . S
C753 C748 1.363 . S
C753 C752 1.415 . S
H754 C751 0.999 . S
H755 C736 0.913 . S
H756 C774 0.951 . S
H757 C776 0.951 . S
H758 C778 0.950 . S
H759 C779 0.950 . S
H760 C781 0.950 . S
H761 C784 0.950 . S
H762 C785 0.950 . S
H763 C787 0.950 . S
H764 C788 0.950 . S
H765 C789 0.951 . S
H766 C791 0.951 . S
H767 C793 0.950 . S
H768 C794 0.950 . S
H769 C796 0.950 . S
H770 C799 0.950 . S
H771 C800 0.950 . S
H772 C802 0.950 . S
H773 C803 0.950 . S
C774 H756 0.951 . S
C774 C775 1.366 . S
C774 C776 1.388 . S
C775 C774 1.366 . S
C775 C779 1.385 . S
C776 H757 0.951 . S
C776 C774 1.388 . S
C776 C777 1.366 . S
C777 C776 1.366 . S
C777 C778 1.414 . S
C777 C780 1.499 . S
C778 H758 0.950 . S
C778 C777 1.414 . S
C778 C779 1.374 . S
C779 H759 0.950 . S
C779 C775 1.385 . S
C779 C778 1.374 . S
C780 C777 1.499 . S
C780 C781 1.373 . S
C780 C782 1.389 . S
C781 H760 0.950 . S
C781 C780 1.373 . S
C781 C797 1.377 1_655 S
C782 C780 1.389 . S
C782 C783 1.524 . S
C782 C796 1.377 1_655 S
C783 C782 1.524 . S
C783 C784 1.397 . S
C783 C788 1.363 . S
C784 H761 0.950 . S
C784 C783 1.397 . S
C784 C785 1.334 . S
C785 H762 0.950 . S
C785 C784 1.334 . S
C785 C786 1.287 . S
C786 C785 1.287 . S
C786 C787 1.524 . S
C786 H805 0.913 . S
C787 H763 0.950 . S
C787 C786 1.524 . S
C787 C788 1.415 . S
C788 H764 0.950 . S
C788 C783 1.363 . S
C788 C787 1.415 . S
C789 H765 0.951 . S
C789 C790 1.366 . S
C789 C791 1.388 . S
C790 C789 1.366 . S
C790 C794 1.385 . S
C791 H766 0.951 . S
C791 C789 1.388 . S
C791 C792 1.366 . S
C792 C791 1.366 . S
C792 C793 1.414 . S
C792 C795 1.499 . S
C793 H767 0.950 . S
C793 C792 1.414 . S
C793 C794 1.374 . S
C794 H768 0.950 . S
C794 C790 1.385 . S
C794 C793 1.374 . S
C795 C792 1.499 . S
C795 C796 1.373 . S
C795 C797 1.389 . S
C796 H769 0.950 . S
C796 C782 1.377 1_455 S
C796 C795 1.373 . S
C797 C781 1.377 1_455 S
C797 C795 1.389 . S
C797 C798 1.524 . S
C798 C797 1.524 . S
C798 C799 1.397 . S
C798 C803 1.363 . S
C799 H770 0.950 . S
C799 C798 1.397 . S
C799 C800 1.334 . S
C800 H771 0.950 . S
C800 C799 1.334 . S
C800 C801 1.287 . S
C801 C800 1.287 . S
C801 C802 1.524 . S
C801 H804 0.999 . S
C802 H772 0.950 . S
C802 C801 1.524 . S
C802 C803 1.415 . S
C803 H773 0.950 . S
C803 C798 1.363 . S
C803 C802 1.415 . S
H804 C801 0.999 . S
H805 C786 0.913 . S
H806 C824 0.951 . S
H807 C826 0.951 . S
H808 C828 0.950 . S
H809 C829 0.950 . S
H810 C831 0.950 . S
H811 C834 0.950 . S
H812 C835 0.950 . S
H813 C837 0.950 . S
H814 C838 0.950 . S
H815 C839 0.951 . S
H816 C841 0.951 . S
H817 C843 0.950 . S
H818 C844 0.950 . S
H819 C846 0.950 . S
H820 C849 0.950 . S
H821 C850 0.950 . S
H822 C852 0.950 . S
H823 C853 0.950 . S
C824 H806 0.951 . S
C824 C825 1.366 . S
C824 C826 1.388 . S
C825 C824 1.366 . S
C825 C829 1.385 . S
C826 H807 0.951 . S
C826 C824 1.388 . S
C826 C827 1.366 . S
C827 C826 1.366 . S
C827 C828 1.414 . S
C827 C830 1.499 . S
C828 H808 0.950 . S
C828 C827 1.414 . S
C828 C829 1.374 . S
C829 H809 0.950 . S
C829 C825 1.385 . S
C829 C828 1.374 . S
C830 C827 1.499 . S
C830 C831 1.373 . S
C830 C832 1.389 . S
C831 H810 0.950 . S
C831 C830 1.373 . S
C831 C847 1.377 1_545 S
C832 C830 1.389 . S
C832 C833 1.524 . S
C832 C846 1.377 1_545 S
C833 C832 1.524 . S
C833 C834 1.397 . S
C833 C838 1.363 . S
C834 H811 0.950 . S
C834 C833 1.397 . S
C834 C835 1.334 . S
C835 H812 0.950 . S
C835 C834 1.334 . S
C835 C836 1.287 . S
C836 C835 1.287 . S
C836 C837 1.524 . S
C836 H855 0.913 . S
C837 H813 0.950 . S
C837 C836 1.524 . S
C837 C838 1.415 . S
C838 H814 0.950 . S
C838 C833 1.363 . S
C838 C837 1.415 . S
C839 H815 0.951 . S
C839 C840 1.366 . S
C839 C841 1.388 . S
C840 C839 1.366 . S
C840 C844 1.385 . S
C841 H816 0.951 . S
C841 C839 1.388 . S
C841 C842 1.366 . S
C842 C841 1.366 . S
C842 C843 1.414 . S
C842 C845 1.499 . S
C843 H817 0.950 . S
C843 C842 1.414 . S
C843 C844 1.374 . S
C844 H818 0.950 . S
C844 C840 1.385 . S
C844 C843 1.374 . S
C845 C842 1.499 . S
C845 C846 1.373 . S
C845 C847 1.389 . S
C846 H819 0.950 . S
C846 C832 1.377 1_565 S
C846 C845 1.373 . S
C847 C831 1.377 1_565 S
C847 C845 1.389 . S
C847 C848 1.524 . S
C848 C847 1.524 . S
C848 C849 1.397 . S
C848 C853 1.363 . S
C849 H820 0.950 . S
C849 C848 1.397 . S
C849 C850 1.334 . S
C850 H821 0.950 . S
C850 C849 1.334 . S
C850 C851 1.287 . S
C851 C850 1.287 . S
C851 C852 1.524 . S
C851 H854 0.999 . S
C852 H822 0.950 . S
C852 C851 1.524 . S
C852 C853 1.415 . S
C853 H823 0.950 . S
C853 C848 1.363 . S
C853 C852 1.415 . S
H854 C851 0.999 . S
H855 C836 0.913 . S
H856 C874 0.951 . S
H857 C876 0.951 . S
H858 C878 0.950 . S
H859 C879 0.950 . S
H860 C881 0.950 . S
H861 C884 0.950 . S
H862 C885 0.950 . S
H863 C887 0.950 . S
H864 C888 0.950 . S
H865 C889 0.951 . S
H866 C891 0.951 . S
H867 C893 0.950 . S
H868 C894 0.950 . S
H869 C896 0.950 . S
H870 C899 0.950 . S
H871 C900 0.950 . S
H872 C902 0.950 . S
H873 C903 0.950 . S
C874 H856 0.951 . S
C874 C875 1.366 . S
C874 C876 1.388 . S
C875 C874 1.366 . S
C875 C879 1.385 . S
C876 H857 0.951 . S
C876 C874 1.388 . S
C876 C877 1.366 . S
C877 C876 1.366 . S
C877 C878 1.414 . S
C877 C880 1.499 . S
C878 H858 0.950 . S
C878 C877 1.414 . S
C878 C879 1.374 . S
C879 H859 0.950 . S
C879 C875 1.385 . S
C879 C878 1.374 . S
C880 C877 1.499 . S
C880 C881 1.373 . S
C880 C882 1.389 . S
C881 H860 0.950 . S
C881 C880 1.373 . S
C881 C897 1.377 . S
C882 C880 1.389 . S
C882 C883 1.524 . S
C882 C896 1.377 . S
C883 C882 1.524 . S
C883 C884 1.397 . S
C883 C888 1.363 . S
C884 H861 0.950 . S
C884 C883 1.397 . S
C884 C885 1.334 . S
C885 H862 0.950 . S
C885 C884 1.334 . S
C885 C886 1.287 . S
C886 C885 1.287 . S
C886 C887 1.524 . S
C886 H905 0.913 . S
C887 H863 0.950 . S
C887 C886 1.524 . S
C887 C888 1.415 . S
C888 H864 0.950 . S
C888 C883 1.363 . S
C888 C887 1.415 . S
C889 H865 0.951 . S
C889 C890 1.366 . S
C889 C891 1.388 . S
C890 C889 1.366 . S
C890 C894 1.385 . S
C891 H866 0.951 . S
C891 C889 1.388 . S
C891 C892 1.366 . S
C892 C891 1.366 . S
C892 C893 1.414 . S
C892 C895 1.499 . S
C893 H867 0.950 . S
C893 C892 1.414 . S
C893 C894 1.374 . S
C894 H868 0.950 . S
C894 C890 1.385 . S
C894 C893 1.374 . S
C895 C892 1.499 . S
C895 C896 1.373 . S
C895 C897 1.389 . S
C896 H869 0.950 . S
C896 C882 1.377 . S
C896 C895 1.373 . S
C897 C881 1.377 . S
C897 C895 1.389 . S
C897 C898 1.524 . S
C898 C897 1.524 . S
C898 C899 1.397 . S
C898 C903 1.363 . S
C899 H870 0.950 . S
C899 C898 1.397 . S
C899 C900 1.334 . S
C900 H871 0.950 . S
C900 C899 1.334 . S
C900 C901 1.287 . S
C901 C900 1.287 . S
C901 C902 1.524 . S
C901 H904 0.999 . S
C902 H872 0.950 . S
C902 C901 1.524 . S
C902 C903 1.415 . S
C903 H873 0.950 . S
C903 C898 1.363 . S
C903 C902 1.415 . S
H904 C901 0.999 . S
H905 C886 0.913 . S
H906 C924 0.951 . S
H907 C926 0.951 . S
H908 C928 0.950 . S
H909 C929 0.950 . S
H910 C931 0.950 . S
H911 C934 0.950 . S
H912 C935 0.950 . S
H913 C937 0.950 . S
H914 C938 0.950 . S
H915 C939 0.951 . S
H916 C941 0.951 . S
H917 C943 0.950 . S
H918 C944 0.950 . S
H919 C946 0.950 . S
H920 C949 0.950 . S
H921 C950 0.950 . S
H922 C952 0.950 . S
H923 C953 0.950 . S
C924 H906 0.951 . S
C924 C925 1.366 . S
C924 C926 1.388 . S
C925 C924 1.366 . S
C925 C929 1.385 . S
C926 H907 0.951 . S
C926 C924 1.388 . S
C926 C927 1.366 . S
C927 C926 1.366 . S
C927 C928 1.414 . S
C927 C930 1.499 . S
C928 H908 0.950 . S
C928 C927 1.414 . S
C928 C929 1.374 . S
C929 H909 0.950 . S
C929 C925 1.385 . S
C929 C928 1.374 . S
C930 C927 1.499 . S
C930 C931 1.373 . S
C930 C932 1.389 . S
C931 H910 0.950 . S
C931 C930 1.373 . S
C931 C947 1.377 1_545 S
C932 C930 1.389 . S
C932 C933 1.524 . S
C932 C946 1.377 1_545 S
C933 C932 1.524 . S
C933 C934 1.397 . S
C933 C938 1.363 . S
C934 H911 0.950 . S
C934 C933 1.397 . S
C934 C935 1.334 . S
C935 H912 0.950 . S
C935 C934 1.334 . S
C935 C936 1.287 . S
C936 C935 1.287 . S
C936 C937 1.524 . S
C936 H955 0.913 . S
C937 H913 0.950 . S
C937 C936 1.524 . S
C937 C938 1.415 . S
C938 H914 0.950 . S
C938 C933 1.363 . S
C938 C937 1.415 . S
C939 H915 0.951 . S
C939 C940 1.366 . S
C939 C941 1.388 . S
C940 C939 1.366 . S
C940 C944 1.385 . S
C941 H916 0.951 . S
C941 C939 1.388 . S
C941 C942 1.366 . S
C942 C941 1.366 . S
C942 C943 1.414 . S
C942 C945 1.499 . S
C943 H917 0.950 . S
C943 C942 1.414 . S
C943 C944 1.374 . S
C944 H918 0.950 . S
C944 C940 1.385 . S
C944 C943 1.374 . S
C945 C942 1.499 . S
C945 C946 1.373 . S
C945 C947 1.389 . S
C946 H919 0.950 . S
C946 C932 1.377 1_565 S
C946 C945 1.373 . S
C947 C931 1.377 1_565 S
C947 C945 1.389 . S
C947 C948 1.524 . S
C948 C947 1.524 . S
C948 C949 1.397 . S
C948 C953 1.363 . S
C949 H920 0.950 . S
C949 C948 1.397 . S
C949 C950 1.334 . S
C950 H921 0.950 . S
C950 C949 1.334 . S
C950 C951 1.287 . S
C951 C950 1.287 . S
C951 C952 1.524 . S
C951 H954 0.999 . S
C952 H922 0.950 . S
C952 C951 1.524 . S
C952 C953 1.415 . S
C953 H923 0.950 . S
C953 C948 1.363 . S
C953 C952 1.415 . S
H954 C951 0.999 . S
H955 C936 0.913 . S
H956 C974 0.951 . S
H957 C976 0.951 . S
H958 C978 0.950 . S
H959 C979 0.950 . S
H960 C981 0.950 . S
H961 C984 0.950 . S
H962 C985 0.950 . S
H963 C987 0.950 . S
H964 C988 0.950 . S
H965 C989 0.951 . S
H966 C991 0.951 . S
H967 C993 0.950 . S
H968 C994 0.950 . S
H969 C996 0.950 . S
H970 C999 0.950 . S
H971 C1000 0.950 . S
H972 C1002 0.950 . S
H973 C1003 0.950 . S
C974 H956 0.951 . S
C974 C975 1.366 . S
C974 C976 1.388 . S
C975 C974 1.366 . S
C975 C979 1.385 . S
C976 H957 0.951 . S
C976 C974 1.388 . S
C976 C977 1.366 . S
C977 C976 1.366 . S
C977 C978 1.414 . S
C977 C980 1.499 . S
C978 H958 0.950 . S
C978 C977 1.414 . S
C978 C979 1.374 . S
C979 H959 0.950 . S
C979 C975 1.385 . S
C979 C978 1.374 . S
C980 C977 1.499 . S
C980 C981 1.373 . S
C980 C982 1.389 . S
C981 H960 0.950 . S
C981 C980 1.373 . S
C981 C997 1.377 . S
C982 C980 1.389 . S
C982 C983 1.524 . S
C982 C996 1.377 . S
C983 C982 1.524 . S
C983 C984 1.397 . S
C983 C988 1.363 . S
C984 H961 0.950 . S
C984 C983 1.397 . S
C984 C985 1.334 . S
C985 H962 0.950 . S
C985 C984 1.334 . S
C985 C986 1.287 . S
C986 C985 1.287 . S
C986 C987 1.524 . S
C986 H1005 0.913 . S
C987 H963 0.950 . S
C987 C986 1.524 . S
C987 C988 1.415 . S
C988 H964 0.950 . S
C988 C983 1.363 . S
C988 C987 1.415 . S
C989 H965 0.951 . S
C989 C990 1.366 . S
C989 C991 1.388 . S
C990 C989 1.366 . S
C990 C994 1.385 . S
C991 H966 0.951 . S
C991 C989 1.388 . S
C991 C992 1.366 . S
C992 C991 1.366 . S
C992 C993 1.414 . S
C992 C995 1.499 . S
C993 H967 0.950 . S
C993 C992 1.414 . S
C993 C994 1.374 . S
C994 H968 0.950 . S
C994 C990 1.385 . S
C994 C993 1.374 . S
C995 C992 1.499 . S
C995 C996 1.373 . S
C995 C997 1.389 . S
C996 H969 0.950 . S
C996 C982 1.377 . S
C996 C995 1.373 . S
C997 C981 1.377 . S
C997 C995 1.389 . S
C997 C998 1.524 . S
C998 C997 1.524 . S
C998 C999 1.397 . S
C998 C1003 1.363 . S
C999 H970 0.950 . S
C999 C998 1.397 . S
C999 C1000 1.334 . S
C1000 H971 0.950 . S
C1000 C999 1.334 . S
C1000 C1001 1.287 . S
C1001 C1000 1.287 . S
C1001 C1002 1.524 . S
C1001 H1004 0.999 . S
C1002 H972 0.950 . S
C1002 C1001 1.524 . S
C1002 C1003 1.415 . S
C1003 H973 0.950 . S
C1003 C998 1.363 . S
C1003 C1002 1.415 . S
H1004 C1001 0.999 . S
H1005 C986 0.913 . S
H1006 C1024 0.951 . S
H1007 C1026 0.951 . S
H1008 C1028 0.950 . S
H1009 C1029 0.950 . S
H1010 C1031 0.950 . S
H1011 C1034 0.950 . S
H1012 C1035 0.950 . S
H1013 C1037 0.950 . S
H1014 C1038 0.950 . S
H1015 C1039 0.951 . S
H1016 C1041 0.951 . S
H1017 C1043 0.950 . S
H1018 C1044 0.950 . S
H1019 C1046 0.950 . S
H1020 C1049 0.950 . S
H1021 C1050 0.950 . S
H1022 C1052 0.950 . S
H1023 C1053 0.950 . S
C1024 H1006 0.951 . S
C1024 C1025 1.366 . S
C1024 C1026 1.388 . S
C1025 C1024 1.366 . S
C1025 C1029 1.385 . S
C1026 H1007 0.951 . S
C1026 C1024 1.388 . S
C1026 C1027 1.366 . S
C1027 C1026 1.366 . S
C1027 C1028 1.414 . S
C1027 C1030 1.499 . S
C1028 H1008 0.950 . S
C1028 C1027 1.414 . S
C1028 C1029 1.374 . S
C1029 H1009 0.950 . S
C1029 C1025 1.385 . S
C1029 C1028 1.374 . S
C1030 C1027 1.499 . S
C1030 C1031 1.373 . S
C1030 C1032 1.389 . S
C1031 H1010 0.950 . S
C1031 C1030 1.373 . S
C1031 C1047 1.377 1_455 S
C1032 C1030 1.389 . S
C1032 C1033 1.524 . S
C1032 C1046 1.377 1_455 S
C1033 C1032 1.524 . S
C1033 C1034 1.397 . S
C1033 C1038 1.363 . S
C1034 H1011 0.950 . S
C1034 C1033 1.397 . S
C1034 C1035 1.334 . S
C1035 H1012 0.950 . S
C1035 C1034 1.334 . S
C1035 C1036 1.287 . S
C1036 C1035 1.287 . S
C1036 C1037 1.524 . S
C1036 H1055 0.913 . S
C1037 H1013 0.950 . S
C1037 C1036 1.524 . S
C1037 C1038 1.415 . S
C1038 H1014 0.950 . S
C1038 C1033 1.363 . S
C1038 C1037 1.415 . S
C1039 H1015 0.951 . S
C1039 C1040 1.366 . S
C1039 C1041 1.388 . S
C1040 C1039 1.366 . S
C1040 C1044 1.385 . S
C1041 H1016 0.951 . S
C1041 C1039 1.388 . S
C1041 C1042 1.366 . S
C1042 C1041 1.366 . S
C1042 C1043 1.414 . S
C1042 C1045 1.499 . S
C1043 H1017 0.950 . S
C1043 C1042 1.414 . S
C1043 C1044 1.374 . S
C1044 H1018 0.950 . S
C1044 C1040 1.385 . S
C1044 C1043 1.374 . S
C1045 C1042 1.499 . S
C1045 C1046 1.373 . S
C1045 C1047 1.389 . S
C1046 H1019 0.950 . S
C1046 C1032 1.377 1_655 S
C1046 C1045 1.373 . S
C1047 C1031 1.377 1_655 S
C1047 C1045 1.389 . S
C1047 C1048 1.524 . S
C1048 C1047 1.524 . S
C1048 C1049 1.397 . S
C1048 C1053 1.363 . S
C1049 H1020 0.950 . S
C1049 C1048 1.397 . S
C1049 C1050 1.334 . S
C1050 H1021 0.950 . S
C1050 C1049 1.334 . S
C1050 C1051 1.287 . S
C1051 C1050 1.287 . S
C1051 C1052 1.524 . S
C1051 H1054 0.999 . S
C1052 H1022 0.950 . S
C1052 C1051 1.524 . S
C1052 C1053 1.415 . S
C1053 H1023 0.950 . S
C1053 C1048 1.363 . S
C1053 C1052 1.415 . S
H1054 C1051 0.999 . S
H1055 C1036 0.913 . S
H1056 C1074 0.951 . S
H1057 C1076 0.951 . S
H1058 C1078 0.950 . S
H1059 C1079 0.950 . S
H1060 C1081 0.950 . S
H1061 C1084 0.950 . S
H1062 C1085 0.950 . S
H1063 C1087 0.950 . S
H1064 C1088 0.950 . S
H1065 C1089 0.951 . S
H1066 C1091 0.951 . S
H1067 C1093 0.950 . S
H1068 C1094 0.950 . S
H1069 C1096 0.950 . S
H1070 C1099 0.950 . S
H1071 C1100 0.950 . S
H1072 C1102 0.950 . S
H1073 C1103 0.950 . S
C1074 H1056 0.951 . S
C1074 C1075 1.366 . S
C1074 C1076 1.388 . S
C1075 C1074 1.366 . S
C1075 C1079 1.385 . S
C1076 H1057 0.951 . S
C1076 C1074 1.388 . S
C1076 C1077 1.366 . S
C1077 C1076 1.366 . S
C1077 C1078 1.414 . S
C1077 C1080 1.499 . S
C1078 H1058 0.950 . S
C1078 C1077 1.414 . S
C1078 C1079 1.374 . S
C1079 H1059 0.950 . S
C1079 C1075 1.385 . S
C1079 C1078 1.374 . S
C1080 C1077 1.499 . S
C1080 C1081 1.373 . S
C1080 C1082 1.389 . S
C1081 H1060 0.950 . S
C1081 C1080 1.373 . S
C1081 C1097 1.377 . S
C1082 C1080 1.389 . S
C1082 C1083 1.524 . S
C1082 C1096 1.377 . S
C1083 C1082 1.524 . S
C1083 C1084 1.397 . S
C1083 C1088 1.363 . S
C1084 H1061 0.950 . S
C1084 C1083 1.397 . S
C1084 C1085 1.334 . S
C1085 H1062 0.950 . S
C1085 C1084 1.334 . S
C1085 C1086 1.287 . S
C1086 C1085 1.287 . S
C1086 C1087 1.524 . S
C1086 H1105 0.913 . S
C1087 H1063 0.950 . S
C1087 C1086 1.524 . S
C1087 C1088 1.415 . S
C1088 H1064 0.950 . S
C1088 C1083 1.363 . S
C1088 C1087 1.415 . S
C1089 H1065 0.951 . S
C1089 C1090 1.366 . S
C1089 C1091 1.388 . S
C1090 C1089 1.366 . S
C1090 C1094 1.385 . S
C1091 H1066 0.951 . S
C1091 C1089 1.388 . S
C1091 C1092 1.366 . S
C1092 C1091 1.366 . S
C1092 C1093 1.414 . S
C1092 C1095 1.499 . S
C1093 H1067 0.950 . S
C1093 C1092 1.414 . S
C1093 C1094 1.374 . S
C1094 H1068 0.950 . S
C1094 C1090 1.385 . S
C1094 C1093 1.374 . S
C1095 C1092 1.499 . S
C1095 C1096 1.373 . S
C1095 C1097 1.389 . S
C1096 H1069 0.950 . S
C1096 C1082 1.377 . S
C1096 C1095 1.373 . S
C1097 C1081 1.377 . S
C1097 C1095 1.389 . S
C1097 C1098 1.524 . S
C1098 C1097 1.524 . S
C1098 C1099 1.397 . S
C1098 C1103 1.363 . S
C1099 H1070 0.950 . S
C1099 C1098 1.397 . S
C1099 C1100 1.334 . S
C1100 H1071 0.950 . S
C1100 C1099 1.334 . S
C1100 C1101 1.287 . S
C1101 C1100 1.287 . S
C1101 C1102 1.524 . S
C1101 H1104 0.999 . S
C1102 H1072 0.950 . S
C1102 C1101 1.524 . S
C1102 C1103 1.415 . S
C1103 H1073 0.950 . S
C1103 C1098 1.363 . S
C1103 C1102 1.415 . S
H1104 C1101 0.999 . S
H1105 C1086 0.913 . S
H1106 C1124 0.951 . S
H1107 C1126 0.951 . S
H1108 C1128 0.950 . S
H1109 C1129 0.950 . S
H1110 C1131 0.950 . S
H1111 C1134 0.950 . S
H1112 C1135 0.950 . S
H1113 C1137 0.950 1_455 S
H1114 C1138 0.950 1_455 S
H1115 C1139 0.951 . S
H1116 C1141 0.951 . S
H1117 C1143 0.950 . S
H1118 C1144 0.950 . S
H1119 C1146 0.950 . S
H1120 C1149 0.950 . S
H1121 C1150 0.950 . S
H1122 C1152 0.950 1_655 S
H1123 C1153 0.950 1_655 S
C1124 H1106 0.951 . S
C1124 C1125 1.366 . S
C1124 C1126 1.388 . S
C1125 C1124 1.366 . S
C1125 C1129 1.385 . S
C1126 H1107 0.951 . S
C1126 C1124 1.388 . S
C1126 C1127 1.366 . S
C1127 C1126 1.366 . S
C1127 C1128 1.414 . S
C1127 C1130 1.499 . S
C1128 H1108 0.950 . S
C1128 C1127 1.414 . S
C1128 C1129 1.374 . S
C1129 H1109 0.950 . S
C1129 C1125 1.385 . S
C1129 C1128 1.374 . S
C1130 C1127 1.499 . S
C1130 C1131 1.373 . S
C1130 C1132 1.389 . S
C1131 H1110 0.950 . S
C1131 C1130 1.373 . S
C1131 C1147 1.377 1_655 S
C1132 C1130 1.389 . S
C1132 C1133 1.524 . S
C1132 C1146 1.377 1_655 S
C1133 C1132 1.524 . S
C1133 C1134 1.397 . S
C1133 C1138 1.363 . S
C1134 H1111 0.950 . S
C1134 C1133 1.397 . S
C1134 C1135 1.334 . S
C1135 H1112 0.950 . S
C1135 C1134 1.334 . S
C1135 C1136 1.287 . S
C1136 C1135 1.287 . S
C1136 C1137 1.524 . S
C1136 H1155 0.913 . S
C1137 H1113 0.950 1_655 S
C1137 C1136 1.524 . S
C1137 C1138 1.415 . S
C1138 H1114 0.950 1_655 S
C1138 C1133 1.363 . S
C1138 C1137 1.415 . S
C1139 H1115 0.951 . S
C1139 C1140 1.366 . S
C1139 C1141 1.388 . S
C1140 C1139 1.366 . S
C1140 C1144 1.385 . S
C1141 H1116 0.951 . S
C1141 C1139 1.388 . S
C1141 C1142 1.366 . S
C1142 C1141 1.366 . S
C1142 C1143 1.414 . S
C1142 C1145 1.499 . S
C1143 H1117 0.950 . S
C1143 C1142 1.414 . S
C1143 C1144 1.374 . S
C1144 H1118 0.950 . S
C1144 C1140 1.385 . S
C1144 C1143 1.374 . S
C1145 C1142 1.499 . S
C1145 C1146 1.373 . S
C1145 C1147 1.389 . S
C1146 H1119 0.950 . S
C1146 C1132 1.377 1_455 S
C1146 C1145 1.373 . S
C1147 C1131 1.377 1_455 S
C1147 C1145 1.389 . S
C1147 C1148 1.524 . S
C1148 C1147 1.524 . S
C1148 C1149 1.397 . S
C1148 C1153 1.363 . S
C1149 H1120 0.950 . S
C1149 C1148 1.397 . S
C1149 C1150 1.334 . S
C1150 H1121 0.950 . S
C1150 C1149 1.334 . S
C1150 C1151 1.287 . S
C1151 C1150 1.287 . S
C1151 C1152 1.524 . S
C1151 H1154 0.999 . S
C1152 H1122 0.950 1_455 S
C1152 C1151 1.524 . S
C1152 C1153 1.415 . S
C1153 H1123 0.950 1_455 S
C1153 C1148 1.363 . S
C1153 C1152 1.415 . S
H1154 C1151 0.999 . S
H1155 C1136 0.913 . S
H1156 C1174 0.951 . S
H1157 C1176 0.951 . S
H1158 C1178 0.950 . S
H1159 C1179 0.950 . S
H1160 C1181 0.950 . S
H1161 C1184 0.950 . S
H1162 C1185 0.950 . S
H1163 C1187 0.950 . S
H1164 C1188 0.950 1_565 S
H1165 C1189 0.951 . S
H1166 C1191 0.951 . S
H1167 C1193 0.950 . S
H1168 C1194 0.950 . S
H1169 C1196 0.950 . S
H1170 C1199 0.950 . S
H1171 C1200 0.950 . S
H1172 C1202 0.950 . S
H1173 C1203 0.950 1_545 S
C1174 H1156 0.951 . S
C1174 C1175 1.366 . S
C1174 C1176 1.388 . S
C1175 C1174 1.366 . S
C1175 C1179 1.385 . S
C1176 H1157 0.951 . S
C1176 C1174 1.388 . S
C1176 C1177 1.366 . S
C1177 C1176 1.366 . S
C1177 C1178 1.414 . S
C1177 C1180 1.499 . S
C1178 H1158 0.950 . S
C1178 C1177 1.414 . S
C1178 C1179 1.374 . S
C1179 H1159 0.950 . S
C1179 C1175 1.385 . S
C1179 C1178 1.374 . S
C1180 C1177 1.499 . S
C1180 C1181 1.373 . S
C1180 C1182 1.389 . S
C1181 H1160 0.950 . S
C1181 C1180 1.373 . S
C1181 C1197 1.377 1_545 S
C1182 C1180 1.389 . S
C1182 C1183 1.524 . S
C1182 C1196 1.377 1_545 S
C1183 C1182 1.524 . S
C1183 C1184 1.397 . S
C1183 C1188 1.363 . S
C1184 H1161 0.950 . S
C1184 C1183 1.397 . S
C1184 C1185 1.334 . S
C1185 H1162 0.950 . S
C1185 C1184 1.334 . S
C1185 C1186 1.287 . S
C1186 C1185 1.287 . S
C1186 C1187 1.524 . S
C1186 H1205 0.913 . S
C1187 H1163 0.950 . S
C1187 C1186 1.524 . S
C1187 C1188 1.415 . S
C1188 H1164 0.950 1_545 S
C1188 C1183 1.363 . S
C1188 C1187 1.415 . S
C1189 H1165 0.951 . S
C1189 C1190 1.366 . S
C1189 C1191 1.388 . S
C1190 C1189 1.366 . S
C1190 C1194 1.385 . S
C1191 H1166 0.951 . S
C1191 C1189 1.388 . S
C1191 C1192 1.366 . S
C1192 C1191 1.366 . S
C1192 C1193 1.414 . S
C1192 C1195 1.499 . S
C1193 H1167 0.950 . S
C1193 C1192 1.414 . S
C1193 C1194 1.374 . S
C1194 H1168 0.950 . S
C1194 C1190 1.385 . S
C1194 C1193 1.374 . S
C1195 C1192 1.499 . S
C1195 C1196 1.373 . S
C1195 C1197 1.389 . S
C1196 H1169 0.950 . S
C1196 C1182 1.377 1_565 S
C1196 C1195 1.373 . S
C1197 C1181 1.377 1_565 S
C1197 C1195 1.389 . S
C1197 C1198 1.524 . S
C1198 C1197 1.524 . S
C1198 C1199 1.397 . S
C1198 C1203 1.363 . S
C1199 H1170 0.950 . S
C1199 C1198 1.397 . S
C1199 C1200 1.334 . S
C1200 H1171 0.950 . S
C1200 C1199 1.334 . S
C1200 C1201 1.287 . S
C1201 C1200 1.287 . S
C1201 C1202 1.524 . S
C1201 H1204 0.999 . S
C1202 H1172 0.950 . S
C1202 C1201 1.524 . S
C1202 C1203 1.415 . S
C1203 H1173 0.950 1_565 S
C1203 C1198 1.363 . S
C1203 C1202 1.415 . S
H1204 C1201 0.999 . S
H1205 C1186 0.913 . S
H1206 C1224 0.951 . S
H1207 C1226 0.951 . S
H1208 C1228 0.950 . S
H1209 C1229 0.950 . S
H1210 C1231 0.950 . S
H1211 C1234 0.950 . S
H1212 C1235 0.950 . S
H1213 C1237 0.950 . S
H1214 C1238 0.950 . S
H1215 C1239 0.951 . S
H1216 C1241 0.951 . S
H1217 C1243 0.950 . S
H1218 C1244 0.950 . S
H1219 C1246 0.950 . S
H1220 C1249 0.950 . S
H1221 C1250 0.950 . S
H1222 C1252 0.950 . S
H1223 C1253 0.950 . S
C1224 H1206 0.951 . S
C1224 C1225 1.366 . S
C1224 C1226 1.388 . S
C1225 C1224 1.366 . S
C1225 C1229 1.385 . S
C1226 H1207 0.951 . S
C1226 C1224 1.388 . S
C1226 C1227 1.366 . S
C1227 C1226 1.366 . S
C1227 C1228 1.414 . S
C1227 C1230 1.499 . S
C1228 H1208 0.950 . S
C1228 C1227 1.414 . S
C1228 C1229 1.374 . S
C1229 H1209 0.950 . S
C1229 C1225 1.385 . S
C1229 C1228 1.374 . S
C1230 C1227 1.499 . S
C1230 C1231 1.373 . S
C1230 C1232 1.389 . S
C1231 H1210 0.950 . S
C1231 C1230 1.373 . S
C1231 C1247 1.377 . S
C1232 C1230 1.389 . S
C1232 C1233 1.524 . S
C1232 C1246 1.377 . S
C1233 C1232 1.524 . S
C1233 C1234 1.397 . S
C1233 C1238 1.363 . S
C1234 H1211 0.950 . S
C1234 C1233 1.397 . S
C1234 C1235 1.334 . S
C1235 H1212 0.950 . S
C1235 C1234 1.334 . S
C1235 C1236 1.287 . S
C1236 C1235 1.287 . S
C1236 C1237 1.524 . S
C1236 H1255 0.913 . S
C1237 H1213 0.950 . S
C1237 C1236 1.524 . S
C1237 C1238 1.415 . S
C1238 H1214 0.950 . S
C1238 C1233 1.363 . S
C1238 C1237 1.415 . S
C1239 H1215 0.951 . S
C1239 C1240 1.366 . S
C1239 C1241 1.388 . S
C1240 C1239 1.366 . S
C1240 C1244 1.385 . S
C1241 H1216 0.951 . S
C1241 C1239 1.388 . S
C1241 C1242 1.366 . S
C1242 C1241 1.366 . S
C1242 C1243 1.414 . S
C1242 C1245 1.499 . S
C1243 H1217 0.950 . S
C1243 C1242 1.414 . S
C1243 C1244 1.374 . S
C1244 H1218 0.950 . S
C1244 C1240 1.385 . S
C1244 C1243 1.374 . S
C1245 C1242 1.499 . S
C1245 C1246 1.373 . S
C1245 C1247 1.389 . S
C1246 H1219 0.950 . S
C1246 C1232 1.377 . S
C1246 C1245 1.373 . S
C1247 C1231 1.377 . S
C1247 C1245 1.389 . S
C1247 C1248 1.524 . S
C1248 C1247 1.524 . S
C1248 C1249 1.397 . S
C1248 C1253 1.363 . S
C1249 H1220 0.950 . S
C1249 C1248 1.397 . S
C1249 C1250 1.334 . S
C1250 H1221 0.950 . S
C1250 C1249 1.334 . S
C1250 C1251 1.287 . S
C1251 C1250 1.287 . S
C1251 C1252 1.524 . S
C1251 H1254 0.999 . S
C1252 H1222 0.950 . S
C1252 C1251 1.524 . S
C1252 C1253 1.415 . S
C1253 H1223 0.950 . S
C1253 C1248 1.363 . S
C1253 C1252 1.415 . S
H1254 C1251 0.999 . S
H1255 C1236 0.913 . S
H1256 C1274 0.951 . S
H1257 C1276 0.951 . S
H1258 C1278 0.950 . S
H1259 C1279 0.950 . S
H1260 C1281 0.950 . S
H1261 C1284 0.950 . S
H1262 C1285 0.950 . S
H1263 C1287 0.950 1_655 S
H1264 C1288 0.950 1_655 S
H1265 C1289 0.951 . S
H1266 C1291 0.951 . S
H1267 C1293 0.950 . S
H1268 C1294 0.950 . S
H1269 C1296 0.950 . S
H1270 C1299 0.950 . S
H1271 C1300 0.950 . S
H1272 C1302 0.950 1_455 S
H1273 C1303 0.950 1_455 S
C1274 H1256 0.951 . S
C1274 C1275 1.366 . S
C1274 C1276 1.388 . S
C1275 C1274 1.366 . S
C1275 C1279 1.385 . S
C1276 H1257 0.951 . S
C1276 C1274 1.388 . S
C1276 C1277 1.366 . S
C1277 C1276 1.366 . S
C1277 C1278 1.414 . S
C1277 C1280 1.499 . S
C1278 H1258 0.950 . S
C1278 C1277 1.414 . S
C1278 C1279 1.374 . S
C1279 H1259 0.950 . S
C1279 C1275 1.385 . S
C1279 C1278 1.374 . S
C1280 C1277 1.499 . S
C1280 C1281 1.373 . S
C1280 C1282 1.389 . S
C1281 H1260 0.950 . S
C1281 C1280 1.373 . S
C1281 C1297 1.377 1_455 S
C1282 C1280 1.389 . S
C1282 C1283 1.524 . S
C1282 C1296 1.377 1_455 S
C1283 C1282 1.524 . S
C1283 C1284 1.397 . S
C1283 C1288 1.363 . S
C1284 H1261 0.950 . S
C1284 C1283 1.397 . S
C1284 C1285 1.334 . S
C1285 H1262 0.950 . S
C1285 C1284 1.334 . S
C1285 C1286 1.287 . S
C1286 C1285 1.287 . S
C1286 C1287 1.524 . S
C1286 H1305 0.913 . S
C1287 H1263 0.950 1_455 S
C1287 C1286 1.524 . S
C1287 C1288 1.415 . S
C1288 H1264 0.950 1_455 S
C1288 C1283 1.363 . S
C1288 C1287 1.415 . S
C1289 H1265 0.951 . S
C1289 C1290 1.366 . S
C1289 C1291 1.388 . S
C1290 C1289 1.366 . S
C1290 C1294 1.385 . S
C1291 H1266 0.951 . S
C1291 C1289 1.388 . S
C1291 C1292 1.366 . S
C1292 C1291 1.366 . S
C1292 C1293 1.414 . S
C1292 C1295 1.499 . S
C1293 H1267 0.950 . S
C1293 C1292 1.414 . S
C1293 C1294 1.374 . S
C1294 H1268 0.950 . S
C1294 C1290 1.385 . S
C1294 C1293 1.374 . S
C1295 C1292 1.499 . S
C1295 C1296 1.373 . S
C1295 C1297 1.389 . S
C1296 H1269 0.950 . S
C1296 C1282 1.377 1_655 S
C1296 C1295 1.373 . S
C1297 C1281 1.377 1_655 S
C1297 C1295 1.389 . S
C1297 C1298 1.524 . S
C1298 C1297 1.524 . S
C1298 C1299 1.397 . S
C1298 C1303 1.363 . S
C1299 H1270 0.950 . S
C1299 C1298 1.397 . S
C1299 C1300 1.334 . S
C1300 H1271 0.950 . S
C1300 C1299 1.334 . S
C1300 C1301 1.287 . S
C1301 C1300 1.287 . S
C1301 C1302 1.524 . S
C1301 H1304 0.999 . S
C1302 H1272 0.950 1_655 S
C1302 C1301 1.524 . S
C1302 C1303 1.415 . S
C1303 H1273 0.950 1_655 S
C1303 C1298 1.363 . S
C1303 C1302 1.415 . S
H1304 C1301 0.999 . S
H1305 C1286 0.913 . S
H1306 C1324 0.951 . S
H1307 C1326 0.951 . S
H1308 C1328 0.950 . S
H1309 C1329 0.950 . S
H1310 C1331 0.950 . S
H1311 C1334 0.950 . S
H1312 C1335 0.950 . S
H1313 C1337 0.950 . S
H1314 C1338 0.950 . S
H1315 C1339 0.951 . S
H1316 C1341 0.951 . S
H1317 C1343 0.950 . S
H1318 C1344 0.950 . S
H1319 C1346 0.950 . S
H1320 C1349 0.950 . S
H1321 C1350 0.950 . S
H1322 C1352 0.950 . S
H1323 C1353 0.950 . S
C1324 H1306 0.951 . S
C1324 C1325 1.366 . S
C1324 C1326 1.388 . S
C1325 C1324 1.366 . S
C1325 C1329 1.385 . S
C1326 H1307 0.951 . S
C1326 C1324 1.388 . S
C1326 C1327 1.366 . S
C1327 C1326 1.366 . S
C1327 C1328 1.414 . S
C1327 C1330 1.499 . S
C1328 H1308 0.950 . S
C1328 C1327 1.414 . S
C1328 C1329 1.374 . S
C1329 H1309 0.950 . S
C1329 C1325 1.385 . S
C1329 C1328 1.374 . S
C1330 C1327 1.499 . S
C1330 C1331 1.373 . S
C1330 C1332 1.389 . S
C1331 H1310 0.950 . S
C1331 C1330 1.373 . S
C1331 C1347 1.377 1_565 S
C1332 C1330 1.389 . S
C1332 C1333 1.524 . S
C1332 C1346 1.377 1_565 S
C1333 C1332 1.524 . S
C1333 C1334 1.397 . S
C1333 C1338 1.363 . S
C1334 H1311 0.950 . S
C1334 C1333 1.397 . S
C1334 C1335 1.334 . S
C1335 H1312 0.950 . S
C1335 C1334 1.334 . S
C1335 C1336 1.287 . S
C1336 C1335 1.287 . S
C1336 C1337 1.524 . S
C1336 H1355 0.913 . S
C1337 H1313 0.950 . S
C1337 C1336 1.524 . S
C1337 C1338 1.415 . S
C1338 H1314 0.950 . S
C1338 C1333 1.363 . S
C1338 C1337 1.415 . S
C1339 H1315 0.951 . S
C1339 C1340 1.366 . S
C1339 C1341 1.388 . S
C1340 C1339 1.366 . S
C1340 C1344 1.385 . S
C1341 H1316 0.951 . S
C1341 C1339 1.388 . S
C1341 C1342 1.366 . S
C1342 C1341 1.366 . S
C1342 C1343 1.414 . S
C1342 C1345 1.499 . S
C1343 H1317 0.950 . S
C1343 C1342 1.414 . S
C1343 C1344 1.374 . S
C1344 H1318 0.950 . S
C1344 C1340 1.385 . S
C1344 C1343 1.374 . S
C1345 C1342 1.499 . S
C1345 C1346 1.373 . S
C1345 C1347 1.389 . S
C1346 H1319 0.950 . S
C1346 C1332 1.377 1_545 S
C1346 C1345 1.373 . S
C1347 C1331 1.377 1_545 S
C1347 C1345 1.389 . S
C1347 C1348 1.524 . S
C1348 C1347 1.524 . S
C1348 C1349 1.397 . S
C1348 C1353 1.363 . S
C1349 H1320 0.950 . S
C1349 C1348 1.397 . S
C1349 C1350 1.334 . S
C1350 H1321 0.950 . S
C1350 C1349 1.334 . S
C1350 C1351 1.287 . S
C1351 C1350 1.287 . S
C1351 C1352 1.524 . S
C1351 H1354 0.999 . S
C1352 H1322 0.950 . S
C1352 C1351 1.524 . S
C1352 C1353 1.415 . S
C1353 H1323 0.950 . S
C1353 C1348 1.363 . S
C1353 C1352 1.415 . S
H1354 C1351 0.999 . S
H1355 C1336 0.913 . S
C175 C134 1.235 . S
C190 C10 1.235 . S
C225 C17 1.235 . S
C240 C147 1.235 . S
C275 C36 1.234 . S
C290 C82 1.235 . S
C325 C49 1.234 . S
C340 C95 1.234 . S
C375 C108 1.235 . S
C390 C56 1.234 . S
C425 C69 1.234 . S
C440 C127 1.235 . S
C475 C109 1.208 . S
C490 C3 1.208 . S
C525 C18 1.208 . S
C540 C120 1.209 . S
C575 C29 1.208 . S
C590 C135 1.208 . S
C625 C42 1.209 . S
C640 C148 1.209 . S
C675 C83 1.208 . S
C690 C57 1.208 . S
C725 C96 1.208 . S
C740 C70 1.209 . S
C775 C44 1.121 . S
C790 C5 1.121 . S
C825 C16 1.121 . S
C840 C55 1.121 . S
C875 C68 1.120 . S
C890 C31 1.120 . S
C925 C122 1.121 . S
C940 C81 1.121 . S
C975 C133 1.121 . S
C990 C94 1.120 . S
C1025 C107 1.121 . S
C1040 C146 1.121 . S
C1075 C43 1.630 . S
C1090 C4 1.630 . S
C1125 C23 1.630 . S
C1140 C62 1.630 . S
C1175 C75 1.630 . S
C1190 C30 1.630 . S
C1225 C88 1.630 . S
C1240 C121 1.630 . S
C1275 C140 1.630 . S
C1290 C101 1.630 . S
C1325 C114 1.631 . S
C1340 C153 1.631 . S
