# Generated by pormake.
# Topology tsi, (8)-cn, num edge types: 1
# Building blocks:
#     Node 0, Type 0, BuildingBlock: TAGTUT_clean_sbu_3, # of connection points: 8
#     Node 1, Type 0, BuildingBlock: TAGTUT_clean_sbu_3, # of connection points: 8
#     Node 2, Type 0, BuildingBlock: TAGTUT_clean_sbu_3, # of connection points: 8
#     Node 3, Type 0, BuildingBlock: TAGTUT_clean_sbu_3, # of connection points: 8
#     Edge 4, Type (0, 0), BuildingBlock: ZUJKAS_clean_linker_0, # of connection points: 2
#     Edge 5, Type (0, 0), BuildingBlock: ZUJKAS_clean_linker_0, # of connection points: 2
#     Edge 6, Type (0, 0), BuildingBlock: ZUJKAS_clean_linker_0, # of connection points: 2
#     Edge 7, Type (0, 0), BuildingBlock: ZUJKAS_clean_linker_0, # of connection points: 2
#     Edge 8, Type (0, 0), BuildingBlock: ZUJKAS_clean_linker_0, # of connection points: 2
#     Edge 9, Type (0, 0), BuildingBlock: ZUJKAS_clean_linker_0, # of connection points: 2
#     Edge 10, Type (0, 0), BuildingBlock: ZUJKAS_clean_linker_0, # of connection points: 2
#     Edge 11, Type (0, 0), BuildingBlock: ZUJKAS_clean_linker_0, # of connection points: 2
#     Edge 12, Type (0, 0), BuildingBlock: ZUJKAS_clean_linker_0, # of connection points: 2
#     Edge 13, Type (0, 0), BuildingBlock: ZUJKAS_clean_linker_0, # of connection points: 2
#     Edge 14, Type (0, 0), BuildingBlock: ZUJKAS_clean_linker_0, # of connection points: 2
#     Edge 15, Type (0, 0), BuildingBlock: ZUJKAS_clean_linker_0, # of connection points: 2
#     Edge 16, Type (0, 0), BuildingBlock: ZUJKAS_clean_linker_0, # of connection points: 2
#     Edge 17, Type (0, 0), BuildingBlock: ZUJKAS_clean_linker_0, # of connection points: 2
#     Edge 18, Type (0, 0), BuildingBlock: ZUJKAS_clean_linker_0, # of connection points: 2
#     Edge 19, Type (0, 0), BuildingBlock: ZUJKAS_clean_linker_0, # of connection points: 2
# Relax obj value: 0.143
# Max RMSD: 0.224
# Mean RMSD: 0.224
data_MOF--net-tsi--node1-TAGTUT_clean_sbu_3--edge1-ZUJKAS_clean_linker_0
_symmetry_space_group_name_H-M    P1
_symmetry_Int_Tables_number       1
_symmetry_cell_setting            triclinic
loop_
_symmetry_equiv_pos_as_xyz
'x, y, z'
_cell_length_a     20.365505
_cell_length_b     20.34226
_cell_length_c     81.211607
_cell_angle_alpha  89.122402
_cell_angle_beta   90.080715
_cell_angle_gamma 90.074692
loop_
_atom_site_label
_atom_site_type_symbol
_atom_site_fract_x
_atom_site_fract_y
_atom_site_fract_z
_atom_type_partial_charge
C0 C 0.13942 0.19418 0.36478 0.0
C1 C 0.00368 0.16001 0.31018 0.0
C2 C 0.84766 0.25125 0.33711 0.0
Mg3 Mg 0.09115 0.20979 0.4021 0.0
Mg4 Mg 0.95252 0.14557 0.41659 0.0
O5 O -0.0058 0.1936 0.39991 0.0
Mg6 Mg 0.98837 0.17384 0.37596 0.0
O7 O 0.98981 0.16045 0.35161 0.0
Mg8 Mg 0.01223 0.25249 0.34427 0.0
Mg9 Mg 0.91964 0.121 0.34069 0.0
C10 C 0.83647 0.15755 0.39023 0.0
O11 O 0.97659 0.06071 0.37883 0.0
O12 O 0.0687 0.25247 0.42762 0.0
O13 O 0.91437 0.03506 0.3567 0.0
O14 O 0.1083 0.10934 0.41509 0.0
O15 O 0.96987 0.21535 0.43594 0.0
O16 O 0.0133 0.06178 0.42204 0.0
O17 O -0.00305 0.28458 0.37105 0.0
O18 O 0.07131 0.30919 0.39014 0.0
C19 C 0.03337 0.3265 0.37832 0.0
C20 C 0.02107 0.25118 0.43797 0.0
O21 O 0.87552 0.17646 0.37861 0.0
O22 O 0.0251 0.20958 0.31823 0.0
O23 O 0.85676 0.13922 0.40459 0.0
O24 O 0.90418 0.27878 0.33764 0.0
O25 O 0.96304 0.11834 0.3164 0.0
O26 O 0.84079 0.18969 0.33974 0.0
O27 O 0.10002 0.17022 0.3756 0.0
O28 O 0.1179 0.22444 0.35188 0.0
C29 C 0.07605 0.06208 0.42185 0.0
C30 C 0.94282 0.01952 0.37035 0.0
C31 C 0.14712 0.79327 0.63846 0.0
C32 C 0.01348 0.83481 0.69293 0.0
C33 C 0.85593 0.74052 0.66683 0.0
Mg34 Mg 0.09759 0.77402 0.60128 0.0
Mg35 Mg 0.95889 0.83755 0.58666 0.0
O36 O 0.00081 0.79073 0.60353 0.0
Mg37 Mg -0.00402 0.81315 0.62731 0.0
O38 O -0.00176 0.82917 0.65154 0.0
Mg39 Mg 0.02015 0.73787 0.65954 0.0
Mg40 Mg 0.92872 0.87022 0.66224 0.0
C41 C 0.84371 0.8287 0.61321 0.0
O42 O 0.98485 0.92623 0.62366 0.0
O43 O 0.07379 0.72878 0.57607 0.0
O44 O 0.92294 0.95415 0.64561 0.0
O45 O 0.11486 0.87309 0.58759 0.0
O46 O 0.97508 0.76605 0.56769 0.0
O47 O 0.01988 0.92065 0.58067 0.0
O48 O 0.00404 0.70275 0.63299 0.0
O49 O 0.0777 0.67602 0.61396 0.0
C50 C 0.04015 0.66003 0.62596 0.0
C51 C 0.02577 0.72957 0.56579 0.0
O52 O 0.88308 0.81076 0.62486 0.0
O53 O 0.03379 0.78369 0.68533 0.0
O54 O 0.86356 0.84555 0.59871 0.0
O55 O 0.91219 0.71262 0.66637 0.0
O56 O 0.97362 0.8762 0.6863 0.0
O57 O 0.84949 0.80193 0.66392 0.0
O58 O 0.10764 0.81625 0.62751 0.0
O59 O 0.12572 0.76471 0.65161 0.0
C60 C 0.08263 0.91996 0.58066 0.0
C61 C 0.95118 0.96826 0.63185 0.0
C62 C 0.53549 0.83392 0.87539 0.0
C63 C 0.52219 0.75686 0.93539 0.0
C64 C 0.57867 0.56971 0.91906 0.0
Mg65 Mg 0.51516 0.75927 0.84142 0.0
Mg66 Mg 0.4238 0.62679 0.83788 0.0
O67 O 0.49307 0.66732 0.84889 0.0
Mg68 Mg 0.49105 0.68114 0.87322 0.0
O69 O 0.49604 0.70132 0.89716 0.0
Mg70 Mg 0.59288 0.71793 0.89946 0.0
Mg71 Mg 0.45485 0.65151 0.91362 0.0
C72 C 0.4467 0.52639 0.86779 0.0
O73 O 0.37827 0.68329 0.87571 0.0
O74 O 0.52866 0.71597 0.81536 0.0
O75 O 0.35909 0.64542 0.90161 0.0
O76 O 0.4072 0.7849 0.83474 0.0
O77 O 0.46904 0.6231 0.81385 0.0
O78 O 0.34459 0.69512 0.83647 0.0
O79 O 0.60271 0.67809 0.87301 0.0
O80 O 0.62065 0.73167 0.84918 0.0
C81 C 0.64209 0.70188 0.86216 0.0
C82 C 0.50867 0.66536 0.80747 0.0
O83 O 0.47985 0.56814 0.87624 0.0
O84 O 0.56957 0.75994 0.92499 0.0
O85 O 0.41852 0.54129 0.85406 0.0
O86 O 0.61034 0.61799 0.9126 0.0
O87 O 0.47176 0.72003 0.93328 0.0
O88 O 0.51599 0.56757 0.9188 0.0
O89 O 0.49937 0.79162 0.86817 0.0
O90 O 0.57298 0.81715 0.88736 0.0
C91 C 0.35098 0.75685 0.83402 0.0
C92 C 0.33903 0.66416 0.88726 0.0
C93 C 0.64821 0.27939 0.14072 0.0
C94 C 0.51223 0.31932 0.19524 0.0
C95 C 0.35756 0.22202 0.16874 0.0
Mg96 Mg 0.59864 0.25858 0.10356 0.0
Mg97 Mg 0.4605 0.32219 0.08884 0.0
O98 O 0.50189 0.27585 0.10583 0.0
Mg99 Mg 0.49669 0.29856 0.12964 0.0
O100 O 0.49879 0.3144 0.1539 0.0
Mg101 Mg 0.52171 0.22313 0.16189 0.0
Mg102 Mg 0.42728 0.35315 0.16429 0.0
C103 C 0.34446 0.31385 0.11515 0.0
O104 O 0.48563 0.41136 0.12609 0.0
O105 O 0.57506 0.2125 0.07841 0.0
O106 O 0.422 0.43789 0.14784 0.0
O107 O 0.61597 0.35668 0.08945 0.0
O108 O 0.47702 0.25094 0.0699 0.0
O109 O 0.52126 0.40554 0.08285 0.0
O110 O 0.50501 0.18807 0.13537 0.0
O111 O 0.57876 0.1611 0.11641 0.0
C112 C 0.54119 0.14528 0.12841 0.0
C113 C 0.52728 0.21389 0.06807 0.0
O114 O 0.38326 0.29759 0.12709 0.0
O115 O 0.53469 0.26913 0.18764 0.0
O116 O 0.3648 0.32861 0.10057 0.0
O117 O 0.41469 0.196 0.16896 0.0
O118 O 0.47081 0.35914 0.18859 0.0
O119 O 0.34934 0.28268 0.16523 0.0
O120 O 0.60852 0.30171 0.12974 0.0
O121 O 0.62702 0.25098 0.15391 0.0
C122 C 0.58395 0.4036 0.08249 0.0
C123 C 0.4513 0.45289 0.13427 0.0
H124 H 0.92834 0.26866 0.46196 0.0
H125 H 0.92952 0.35029 0.48377 0.0
H126 H 0.12065 0.41663 0.46787 0.0
H127 H 0.12005 0.33584 0.44599 0.0
H128 H 0.02243 0.37067 0.50968 0.0
H129 H 0.00513 0.58424 0.4664 0.0
H130 H 0.98718 0.50115 0.46028 0.0
H131 H 0.07085 0.52812 0.46219 0.0
C132 C 0.97085 0.30029 0.46315 0.0
C133 C 0.02382 0.29608 0.45211 0.0
C134 C 0.97137 0.34687 0.47561 0.0
C135 C 0.02461 0.39008 0.47717 0.0
C136 C 0.07856 0.38446 0.46661 0.0
H137 H 0.12265 0.64206 0.55824 0.0
H138 H 0.12167 0.56044 0.53654 0.0
C139 C 0.07819 0.33797 0.45417 0.0
C140 C 0.02354 0.44164 0.48974 0.0
H141 H 0.02465 0.60801 0.49452 0.0
C142 C 0.02272 0.42258 0.5064 0.0
C143 C 0.0231 0.50917 0.48534 0.0
C144 C 0.02102 0.53215 0.46759 0.0
C145 C 0.02278 0.46953 0.51886 0.0
C146 C 0.02449 0.53705 0.51445 0.0
C147 C 0.02398 0.55611 0.49779 0.0
C148 C 0.02641 0.58866 0.52702 0.0
C149 C 0.0203 0.44659 0.53661 0.0
C150 C 0.97413 0.63298 0.52841 0.0
C151 C 0.97454 0.68003 0.54075 0.0
C152 C 0.0275 0.68363 0.55185 0.0
C153 C 0.08085 0.64046 0.55 0.0
C154 C 0.0803 0.59348 0.53767 0.0
H155 H 0.00337 0.39478 0.53778 0.0
H156 H 0.07022 0.44974 0.54203 0.0
H157 H 0.98711 0.47818 0.54389 0.0
H158 H 0.93236 0.63019 0.52017 0.0
H159 H 0.9328 0.71263 0.54177 0.0
H160 H 0.47721 0.56604 0.78623 0.0
H161 H 0.52171 0.54827 0.7586 0.0
H162 H 0.63913 0.72372 0.76274 0.0
H163 H 0.59567 0.74188 0.79021 0.0
H164 H 0.52201 0.63563 0.72961 0.0
H165 H 0.77146 0.57455 0.75214 0.0
H166 H 0.70006 0.57203 0.76532 0.0
H167 H 0.74024 0.649 0.76076 0.0
C168 C 0.51248 0.60091 0.78126 0.0
C169 C 0.53329 0.65513 0.79053 0.0
C170 C 0.53765 0.59067 0.76547 0.0
C171 C 0.5843 0.63416 0.75879 0.0
C172 C 0.6039 0.68903 0.76782 0.0
H173 H 0.73337 0.78771 0.67346 0.0
H174 H 0.65566 0.73997 0.6928 0.0
C175 C 0.57881 0.69939 0.78353 0.0
C176 C 0.61384 0.62288 0.74246 0.0
H177 H 0.76334 0.61276 0.72408 0.0
C178 C 0.5746 0.62914 0.72831 0.0
C179 C 0.68202 0.61248 0.74081 0.0
C180 C 0.72584 0.60091 0.75557 0.0
C181 C 0.6029 0.63109 0.71253 0.0
C182 C 0.67207 0.62792 0.711 0.0
C183 C 0.71035 0.61574 0.72513 0.0
C184 C 0.7071 0.64729 0.69565 0.0
C185 C 0.55852 0.63847 0.69774 0.0
C186 C 0.76092 0.61039 0.69019 0.0
C187 C 0.80667 0.63839 0.67933 0.0
C188 C 0.79923 0.70379 0.67377 0.0
C189 C 0.74118 0.73753 0.67766 0.0
C190 C 0.69596 0.70983 0.68864 0.0
H191 H 0.51135 0.61218 0.69984 0.0
H192 H 0.54684 0.69127 0.69575 0.0
H193 H 0.58176 0.61932 0.68642 0.0
H194 H 0.7704 0.5619 0.69535 0.0
H195 H 0.85034 0.61063 0.67639 0.0
H196 H 0.68877 0.60279 0.93587 0.0
H197 H 0.71376 0.56743 0.96364 0.0
H198 H 0.57262 0.40982 0.95977 0.0
H199 H 0.54253 0.44968 0.93222 0.0
H200 H 0.54164 0.47247 0.98394 0.0
H201 H 0.80799 0.44411 0.99133 0.0
H202 H 0.79337 0.52327 0.9822 0.0
H203 H 0.77073 0.44997 0.97121 0.0
C204 C 0.66475 0.55883 0.94058 0.0
C205 C 0.61262 0.5298 0.93189 0.0
C206 C 0.6796 0.53823 0.95662 0.0
C207 C 0.64508 0.48593 0.96407 0.0
C208 C 0.59942 0.45101 0.95448 0.0
H209 H 0.69458 0.36827 0.06608 0.0
H210 H 0.71593 0.39488 0.0374 0.0
C211 C 0.58268 0.47326 0.93862 0.0
C212 C 0.64733 0.47626 0.98234 0.0
H213 H 0.74894 0.4789 0.01589 0.0
C214 C 0.5873 0.47251 0.99082 0.0
C215 C 0.70649 0.47602 0.99158 0.0
C216 C 0.77311 0.4728 0.98353 0.0
C217 C 0.58452 0.46942 0.00806 0.0
C218 C 0.64332 0.47493 0.01731 0.0
C219 C 0.70359 0.47713 0.00889 0.0
C220 C 0.64305 0.4721 0.03568 0.0
C221 C 0.51834 0.45793 0.01601 0.0
C222 C 0.59959 0.51088 0.04485 0.0
C223 C 0.58557 0.49431 0.06128 0.0
C224 C 0.61689 0.44041 0.06893 0.0
C225 C 0.66877 0.40964 0.06057 0.0
C226 C 0.68097 0.42462 0.04402 0.0
H227 H 0.48304 0.43516 0.00733 0.0
H228 H 0.52245 0.42528 0.02704 0.0
H229 H 0.49734 0.5057 0.01976 0.0
H230 H 0.57229 0.5503 0.03893 0.0
H231 H 0.54616 0.51974 0.06746 0.0
H232 H 0.84292 0.38162 0.32792 0.0
H233 H 0.76417 0.43097 0.30872 0.0
H234 H 0.64853 0.25309 0.31058 0.0
H235 H 0.72484 0.2049 0.33019 0.0
H236 H 0.75907 0.38186 0.28001 0.0
H237 H 0.50509 0.37969 0.30252 0.0
H238 H 0.57409 0.37225 0.31643 0.0
H239 H 0.53995 0.30052 0.30675 0.0
C240 C 0.79921 0.35407 0.32479 0.0
C241 C 0.79123 0.28855 0.33022 0.0
C242 C 0.75414 0.38242 0.31379 0.0
C243 C 0.70052 0.34572 0.30803 0.0
C244 C 0.68865 0.28314 0.31495 0.0
H245 H 0.6016 0.24778 0.21305 0.0
H246 H 0.64255 0.26894 0.24064 0.0
C247 C 0.73311 0.25514 0.32609 0.0
C248 C 0.66676 0.36519 0.29247 0.0
H249 H 0.51875 0.35502 0.27282 0.0
C250 C 0.70624 0.37806 0.2786 0.0
C251 C 0.59779 0.36111 0.29046 0.0
C252 C 0.55198 0.35335 0.30493 0.0
C253 C 0.67946 0.38084 0.26273 0.0
C254 C 0.61165 0.36909 0.2606 0.0
C255 C 0.57108 0.36244 0.27448 0.0
C256 C 0.58407 0.35635 0.24409 0.0
C257 C 0.72459 0.39324 0.24829 0.0
C258 C 0.53615 0.39755 0.23708 0.0
C259 C 0.51234 0.38553 0.22121 0.0
C260 C 0.53578 0.33176 0.2122 0.0
C261 C 0.5827 0.28988 0.21952 0.0
C262 C 0.6064 0.302 0.23529 0.0
H263 H 0.76887 0.42135 0.25201 0.0
H264 H 0.74124 0.34544 0.24339 0.0
H265 H 0.69912 0.42076 0.23824 0.0
H266 H 0.51802 0.43948 0.24376 0.0
H267 H 0.47594 0.41858 0.216 0.0
H268 H 0.22613 0.23879 0.16283 0.0
H269 H 0.13713 0.20382 0.18122 0.0
H270 H 0.27597 0.09323 0.21071 0.0
H271 H 0.36362 0.12426 0.19183 0.0
H272 H 0.15766 0.04034 0.21371 0.0
H273 H 0.13942 0.31131 0.22176 0.0
H274 H 0.11707 0.28249 0.20178 0.0
H275 H 0.20071 0.27529 0.20881 0.0
C276 C 0.23698 0.20496 0.17287 0.0
C277 C 0.30198 0.18557 0.17614 0.0
C278 C 0.18625 0.18543 0.18346 0.0
C279 C 0.20047 0.14848 0.19778 0.0
C280 C 0.26384 0.12253 0.19987 0.0
H281 H 0.11323 0.21245 0.29609 0.0
H282 H 0.14987 0.20267 0.26772 0.0
C283 C 0.31411 0.14041 0.18904 0.0
C284 C 0.15425 0.14598 0.2119 0.0
H285 H 0.08489 0.24468 0.24069 0.0
C286 C 0.14075 0.08491 0.2195 0.0
C287 C 0.13273 0.2044 0.21953 0.0
C288 C 0.14852 0.2721 0.21267 0.0
C289 C 0.11011 0.08086 0.23499 0.0
C290 C 0.09089 0.13942 0.24281 0.0
C291 C 0.10006 0.19997 0.23466 0.0
C292 C 0.069 0.14069 0.2602 0.0
C293 C 0.10254 0.01446 0.24331 0.0
C294 C 0.01162 0.10845 0.26548 0.0
C295 C 0.99092 0.11329 0.28186 0.0
C296 C 0.02669 0.15143 0.29309 0.0
C297 C 0.08427 0.18314 0.28774 0.0
C298 C 0.1053 0.17756 0.27151 0.0
H299 H 0.13094 0.97572 0.23698 0.0
H300 H 0.11894 0.01632 0.25635 0.0
H301 H 0.04999 4e-05 0.24321 0.0
H302 H 0.98218 0.08079 0.2569 0.0
H303 H 0.94606 0.08866 0.28561 0.0
H304 H 0.97824 0.93336 0.71398 0.0
H305 H 0.0206 0.95258 0.74179 0.0
H306 H 0.1443 0.78167 0.73805 0.0
H307 H 0.10297 0.7621 0.7104 0.0
H308 H 0.02096 0.86493 0.77054 0.0
H309 H 0.27075 0.93418 0.74999 0.0
H310 H 0.20077 0.93499 0.73629 0.0
H311 H 0.24292 0.85919 0.74092 0.0
C312 C 0.01454 0.89988 0.71907 0.0
C313 C 0.03756 0.84641 0.70988 0.0
C314 C 0.03849 0.91094 0.73496 0.0
C315 C 0.08617 0.86909 0.74182 0.0
C316 C 0.10825 0.81515 0.73283 0.0
H317 H 0.22886 0.70992 0.82662 0.0
H318 H 0.15192 0.75977 0.80741 0.0
C319 C 0.08435 0.80394 0.71703 0.0
C320 C 0.11372 0.88069 0.75837 0.0
H321 H 0.26117 0.89257 0.7778 0.0
C322 C 0.07325 0.87254 0.77223 0.0
C323 C 0.18145 0.89265 0.76054 0.0
C324 C 0.2264 0.90648 0.74614 0.0
C325 C 0.10007 0.86985 0.78819 0.0
C326 C 0.16902 0.87414 0.79019 0.0
C327 C 0.20835 0.88861 0.77639 0.0
C328 C 0.20297 0.85315 0.80559 0.0
C329 C 0.05445 0.86034 0.80263 0.0
C330 C 0.25624 0.88966 0.81161 0.0
C331 C 0.30161 0.86043 0.82238 0.0
C332 C 0.29431 0.79421 0.82729 0.0
C333 C 0.23658 0.76071 0.8229 0.0
C334 C 0.19177 0.78963 0.812 0.0
H335 H 0.00733 0.8865 0.80041 0.0
H336 H 0.04288 0.80726 0.80414 0.0
H337 H 0.07652 0.87828 0.81424 0.0
H338 H 0.26573 0.93889 0.80692 0.0
H339 H 0.345 0.88805 0.82574 0.0
H340 H 0.42933 0.77104 0.95949 0.0
H341 H 0.43109 0.84846 0.98224 0.0
H342 H 0.62234 0.91687 0.96698 0.0
H343 H 0.6211 0.84038 0.94415 0.0
H344 H 0.52367 0.863 0.00829 0.0
H345 H 0.50869 0.08504 0.96776 0.0
H346 H 0.49041 0.00349 0.96056 0.0
H347 H 0.5742 0.02959 0.96289 0.0
C348 C 0.47194 0.80231 0.961 0.0
C349 C 0.52479 0.79992 0.94989 0.0
C350 C 0.4728 0.84644 0.974 0.0
C351 C 0.52631 0.88897 0.97605 0.0
C352 C 0.58005 0.88524 0.96536 0.0
H353 H 0.62292 0.12492 0.06051 0.0
H354 H 0.62246 0.04619 0.03812 0.0
C355 C 0.57929 0.84123 0.95237 0.0
C356 C 0.52573 0.93785 0.98928 0.0
H357 H 0.5282 0.10286 0.99616 0.0
C358 C 0.5245 0.91545 0.00568 0.0
C359 C 0.526 0.00613 0.98574 0.0
C360 C 0.5243 0.03273 0.96829 0.0
C361 C 0.52467 0.95978 0.01873 0.0
C362 C 0.52698 0.02802 0.01519 0.0
C363 C 0.52707 0.05041 0.99878 0.0
C364 C 0.52834 0.0771 0.02837 0.0
C365 C 0.52145 0.93332 0.03618 0.0
C366 C 0.47654 0.12185 0.02992 0.0
C367 C 0.47672 0.16723 0.04263 0.0
C368 C 0.52896 0.16875 0.05397 0.0
C369 C 0.5817 0.12489 0.05207 0.0
C370 C 0.58141 0.07956 0.03935 0.0
H371 H 0.50407 0.88153 0.03666 0.0
H372 H 0.57123 0.93493 0.04173 0.0
H373 H 0.4883 0.96364 0.0438 0.0
H374 H 0.4354 0.12088 0.02145 0.0
H375 H 0.43545 0.20042 0.04369 0.0
H376 H 0.20561 0.06796 0.43098 0.0
H377 H 0.24658 0.03831 0.4583 0.0
H378 H 0.06626 0.93467 0.46872 0.0
H379 H 0.02479 0.96383 0.44147 0.0
H380 H 0.17634 0.09165 0.48392 0.0
H381 H 0.2007 0.82336 0.49365 0.0
H382 H 0.20136 0.86126 0.47337 0.0
H383 H 0.12479 0.84437 0.48366 0.0
C384 C 0.17567 0.03623 0.43874 0.0
C385 C 0.11088 0.02006 0.43417 0.0
C386 C 0.19923 0.01965 0.45445 0.0
C387 C 0.15916 0.98519 0.46565 0.0
C388 C 0.09829 0.96105 0.46027 0.0
H389 H 0.03145 0.01853 0.56114 0.0
H390 H 0.07065 0.04628 0.53361 0.0
C391 C 0.07453 0.97788 0.44461 0.0
C392 C 0.17422 0.98563 0.48354 0.0
H393 H 0.17531 0.88707 0.51785 0.0
C394 C 0.17787 0.04682 0.49132 0.0
C395 C 0.17669 0.92739 0.4932 0.0
C396 C 0.17635 0.86039 0.48551 0.0
C397 C 0.17899 0.05128 0.50856 0.0
C398 C 0.17593 -0.0069 0.51824 0.0
C399 C 0.17729 0.93184 0.51044 0.0
C400 C 0.16264 -0.0061 0.5362 0.0
C401 C 0.18107 0.11825 0.51625 0.0
C402 C 0.20305 0.95878 0.5472 0.0
C403 C 0.18083 0.94304 0.56306 0.0
C404 C 0.11699 0.96073 0.56801 0.0
C405 C 0.08048 0.00336 0.55772 0.0
C406 C 0.10293 0.01937 0.5419 0.0
H407 H 0.20547 0.15477 0.50797 0.0
H408 H 0.13012 0.13536 0.51839 0.0
H409 H 0.20731 0.11681 0.52824 0.0
H410 H 0.24953 0.93907 0.54309 0.0
H411 H 0.21085 0.91085 0.57069 0.0
H412 H 0.03281 0.95138 0.38903 0.0
H413 H 0.04251 0.83133 0.39126 0.0
H414 H 0.86 0.80973 0.36489 0.0
H415 H 0.85037 0.929 0.3624 0.0
H416 H 0.95921 0.7259 0.4029 0.0
H417 H -0.00243 0.72172 0.33516 0.0
H418 H 0.00109 0.79654 0.34679 0.0
H419 H 0.92311 0.761 0.34154 0.0
C420 C -0.00599 0.92102 0.38407 0.0
C421 C 0.94152 0.9494 0.37525 0.0
C422 C -0.00027 0.85256 0.38529 0.0
C423 C 0.95289 0.81202 0.3778 0.0
C424 C 0.89747 0.84035 0.37035 0.0
H425 H 0.93358 0.38955 0.36167 0.0
H426 H 0.91278 0.50841 0.3609 0.0
C427 C 0.89197 0.90846 0.36901 0.0
C428 C 0.96416 0.74053 0.37664 0.0
H429 H -0.00882 0.61871 0.34896 0.0
C430 C 0.96627 0.70238 0.39114 0.0
C431 C 0.97334 0.71024 0.36122 0.0
C432 C 0.97428 0.74943 0.34528 0.0
C433 C 0.97671 0.63431 0.39062 0.0
C434 C 0.98628 0.60416 0.37521 0.0
C435 C 0.98359 0.64217 0.36071 0.0
C436 C 0.00167 0.5335 0.37403 0.0
C437 C 0.97681 0.59504 0.40654 0.0
C438 C 0.05999 0.50915 0.3809 0.0
C439 C 0.07211 0.4418 0.3813 0.0
C440 C 0.02616 0.39753 0.37477 0.0
C441 C 0.96984 0.42241 0.36682 0.0
C442 C 0.9577 0.49014 0.36646 0.0
H443 H 0.95254 0.62204 0.41664 0.0
H444 H 0.95157 0.54709 0.405 0.0
H445 H 0.02829 0.58507 0.41031 0.0
H446 H 0.09526 0.54216 0.38641 0.0
H447 H 0.11641 0.42429 0.38732 0.0
H448 H 0.21211 0.85379 0.61285 0.0
H449 H 0.33094 0.86042 0.60861 0.0
H450 H 0.36292 0.74955 0.65357 0.0
H451 H 0.2446 0.74215 0.65791 0.0
H452 H 0.42704 0.91439 0.63091 0.0
H453 H 0.46942 0.65 0.61836 0.0
H454 H 0.3891 0.6873 0.61712 0.0
H455 H 0.42406 0.66624 0.63682 0.0
C456 C 0.24436 0.8305 0.6218 0.0
C457 C 0.21879 0.79716 0.63568 0.0
C458 C 0.31217 0.83448 0.61936 0.0
C459 C 0.35539 0.80477 0.63068 0.0
C460 C 0.33018 0.77185 0.64457 0.0
H461 H 0.7777 0.7649 0.63801 0.0
H462 H 0.65936 0.76332 0.64295 0.0
C463 C 0.26252 0.76796 0.64705 0.0
C464 C 0.42707 0.8093 0.62819 0.0
H465 H 0.56384 0.71666 0.62172 0.0
C466 C 0.45705 0.87131 0.62881 0.0
C467 C 0.46578 0.75283 0.62556 0.0
C468 C 0.43558 0.68531 0.62428 0.0
C469 C 0.52527 0.87827 0.62715 0.0
C470 C 0.56401 0.8218 0.62446 0.0
C471 C 0.53392 0.75979 0.62383 0.0
C472 C 0.6358 0.82591 0.62198 0.0
C473 C 0.5554 0.94574 0.62864 0.0
C474 C 0.66162 0.86138 0.60854 0.0
C475 C 0.72926 0.86299 0.60581 0.0
C476 C 0.77228 0.82881 0.61645 0.0
C477 C 0.74613 0.79309 0.62987 0.0
C478 C 0.67847 0.79163 0.63261 0.0
H479 H 0.52215 0.98011 0.63508 0.0
H480 H 0.60282 0.94338 0.63539 0.0
H481 H 0.56494 0.9663 0.61613 0.0
H482 H 0.62936 0.88695 0.59998 0.0
H483 H 0.74775 0.89073 0.59531 0.0
H484 H 0.5349 0.46092 0.88759 0.0
H485 H 0.54688 0.34122 0.89026 0.0
H486 H 0.37063 0.31439 0.86165 0.0
H487 H 0.35805 0.43329 0.85896 0.0
H488 H 0.38951 0.22247 0.88948 0.0
H489 H 0.60287 0.2445 0.84695 0.0
H490 H 0.60548 0.29413 0.86508 0.0
H491 H 0.54442 0.31013 0.84958 0.0
C492 C 0.49778 0.42952 0.88226 0.0
C493 C 0.44621 0.45637 0.87281 0.0
C494 C 0.50492 0.36128 0.8837 0.0
C495 C 0.46033 0.31939 0.87584 0.0
C496 C 0.40577 0.34609 0.86766 0.0
H497 H 0.43516 0.89679 0.85893 0.0
H498 H 0.41589 0.01585 0.85757 0.0
C499 C 0.39882 0.41401 0.86612 0.0
C500 C 0.4734 0.2483 0.87467 0.0
H501 H 0.57536 0.13804 0.85649 0.0
C502 C 0.43013 0.2038 0.88231 0.0
C503 C 0.526 0.22457 0.8651 0.0
C504 C 0.57223 0.27059 0.85607 0.0
C505 C 0.43905 0.1357 0.88096 0.0
C506 C 0.49174 0.11196 0.87139 0.0
C507 C 0.53477 0.15658 0.86369 0.0
C508 C 0.5059 0.04097 0.87024 0.0
C509 C 0.39316 0.08977 0.89011 0.0
C510 C 0.56443 0.01638 0.87696 0.0
C511 C 0.57576 0.94892 0.87763 0.0
C512 C 0.5288 0.90472 0.87153 0.0
C513 C 0.47215 0.92964 0.86375 0.0
C514 C 0.46076 -0.00252 0.86313 0.0
H515 H 0.36398 0.11578 0.89955 0.0
H516 H 0.35849 0.06745 0.88125 0.0
H517 H 0.42097 0.04938 0.89627 0.0
H518 H 0.60015 0.04925 0.88234 0.0
H519 H 0.62023 0.9313 0.88355 0.0
H520 H 0.24861 0.28611 0.09303 0.0
H521 H 0.12996 0.28374 0.09763 0.0
H522 H 0.15992 0.3391 0.14813 0.0
H523 H 0.27894 0.34267 0.14351 0.0
H524 H 0.063 0.20346 0.12203 0.0
H525 H 0.02072 0.47158 0.12943 0.0
H526 H 0.0936 0.43933 0.11982 0.0
H527 H 0.08514 0.43584 0.14181 0.0
C528 C 0.22991 0.29818 0.10509 0.0
C529 C 0.27295 0.31375 0.118 0.0
C530 C 0.16224 0.29659 0.1077 0.0
C531 C 0.1364 0.31149 0.12318 0.0
C532 C 0.17907 0.32788 0.13606 0.0
H533 H 0.74612 0.22761 0.15995 0.0
H534 H 0.86443 0.23555 0.15553 0.0
C535 C 0.24695 0.32901 0.13348 0.0
C536 C 0.06477 0.30792 0.12587 0.0
H537 H 0.92967 0.40111 0.13394 0.0
C538 C 0.03375 0.24659 0.12464 0.0
C539 C 0.02701 0.36449 0.12911 0.0
C540 C 0.05797 0.43175 0.13001 0.0
C541 C 0.96571 0.24019 0.12672 0.0
C542 C 0.92807 0.29655 0.13024 0.0
C543 C 0.95894 0.35803 0.13131 0.0
C544 C 0.85645 0.29244 0.13291 0.0
C545 C 0.93441 0.17339 0.12494 0.0
C546 C 0.81301 0.32274 0.12174 0.0
C547 C 0.74522 0.3183 0.1242 0.0
C548 C 0.71989 0.28393 0.13796 0.0
C549 C 0.76385 0.25425 0.14919 0.0
C550 C 0.8315 0.25852 0.14668 0.0
H551 H 0.96764 0.13821 0.11876 0.0
H552 H 0.92239 0.15309 0.13733 0.0
H553 H 0.88802 0.17711 0.11778 0.0
H554 H 0.83159 0.34934 0.11107 0.0
H555 H 0.71279 0.34199 0.11536 0.0
H556 H 0.85632 0.05771 0.63828 0.0
H557 H 0.86518 0.17696 0.6356 0.0
H558 H 0.05288 0.15631 0.61168 0.0
H559 H 0.04369 0.03641 0.61404 0.0
H560 H 0.96367 0.24183 0.65144 0.0
H561 H 0.96742 0.30331 0.58465 0.0
H562 H 0.93824 0.22515 0.59258 0.0
H563 H 0.02488 0.24047 0.59064 0.0
C564 C 0.89868 0.07849 0.63203 0.0
C565 C 0.94969 0.03788 0.62652 0.0
C566 C 0.90367 0.14662 0.63054 0.0
C567 C 0.95972 0.17548 0.62352 0.0
C568 C 0.00875 0.13502 0.61694 0.0
H569 H 0.12633 0.56262 0.61908 0.0
H570 H 0.10567 0.4446 0.62007 0.0
C571 C 0.00349 0.06652 0.6183 0.0
C572 C 0.97017 0.24718 0.62496 0.0
H573 H 0.00085 0.38778 0.6029 0.0
C574 C 0.97121 0.27392 0.64082 0.0
C575 C 0.98021 0.28871 0.6111 0.0
C576 C 0.97707 0.26317 0.59377 0.0
C577 C 0.98355 0.34093 0.64322 0.0
C578 C -0.00562 0.38227 0.62937 0.0
C579 C -0.00732 0.35573 0.6135 0.0
C580 C 0.00933 0.45303 0.63099 0.0
C581 C 0.98676 0.36658 0.66054 0.0
C582 C 0.96279 0.49672 0.63736 0.0
C583 C 0.97468 0.56454 0.63695 0.0
C584 C 0.03291 0.58935 0.62994 0.0
C585 C 0.08078 0.54504 0.62445 0.0
C586 C 0.06901 0.47759 0.62494 0.0
H587 H -0.00802 0.3262 0.66981 0.0
H588 H 0.02854 0.40121 0.66193 0.0
H589 H 0.94083 0.39361 0.66324 0.0
H590 H 0.91609 0.47869 0.64193 0.0
H591 H 0.93671 0.59751 0.64116 0.0
H592 H 0.73978 0.75347 0.84286 0.0
H593 H 0.85816 0.74429 0.84706 0.0
H594 H 0.82553 0.63127 0.89166 0.0
H595 H 0.70682 0.63958 0.88754 0.0
H596 H 0.93191 0.78603 0.87492 0.0
H597 H 0.95343 0.51738 0.86456 0.0
H598 H 0.88236 0.56439 0.85821 0.0
H599 H 0.89299 0.54092 0.87946 0.0
C600 C 0.75761 0.72648 0.85356 0.0
C601 C 0.71376 0.69706 0.86484 0.0
C602 C 0.82528 0.72137 0.85593 0.0
C603 C 0.85035 0.68641 0.86953 0.0
C604 C 0.80695 0.65751 0.88092 0.0
H605 H 0.24228 0.60333 0.90518 0.0
H606 H 0.12376 0.60957 0.90066 0.0
C607 C 0.73917 0.66268 0.87859 0.0
C608 C 0.92205 0.68152 0.87195 0.0
H609 H 0.0491 0.57246 0.87361 0.0
C610 C 0.9577 0.73944 0.87459 0.0
C611 C 0.95517 0.62057 0.87151 0.0
C612 C 0.91929 0.55722 0.86815 0.0
C613 C 0.02581 0.73795 0.87709 0.0
C614 C 0.05905 0.677 0.87659 0.0
C615 C 0.02334 0.61906 0.87396 0.0
C616 C 0.13086 0.67226 0.87897 0.0
C617 C 0.06128 0.80142 0.88061 0.0
C618 C 0.17399 0.70465 0.86811 0.0
C619 C 0.24167 0.70161 0.87073 0.0
C620 C 0.26749 0.66537 0.88411 0.0
C621 C 0.22406 0.63188 0.89478 0.0
C622 C 0.15635 0.63518 0.89219 0.0
H623 H 0.02703 0.84017 0.88481 0.0
H624 H 0.09975 0.79389 0.89015 0.0
H625 H 0.08543 0.81962 0.86917 0.0
H626 H 0.15529 0.73267 0.85767 0.0
H627 H 0.27359 0.72886 0.86249 0.0
H628 H 0.54211 0.51943 0.11549 0.0
H629 H 0.55439 0.63927 0.11335 0.0
H630 H 0.37366 0.66416 0.14012 0.0
H631 H 0.36074 0.5451 0.14225 0.0
H632 H 0.39621 0.75786 0.11319 0.0
H633 H 0.60466 0.73359 0.15726 0.0
H634 H 0.61002 0.68559 0.1389 0.0
H635 H 0.54704 0.66775 0.15376 0.0
C636 C 0.50408 0.55046 0.1205 0.0
C637 C 0.45108 0.52298 0.12929 0.0
C638 C 0.51142 0.61878 0.11938 0.0
C639 C 0.46564 0.66016 0.12692 0.0
C640 C 0.40976 0.63289 0.13437 0.0
H641 H 0.43929 0.08277 0.14433 0.0
H642 H 0.41971 0.96367 0.14567 0.0
C643 C 0.40258 0.56487 0.13559 0.0
C644 C 0.47854 0.73123 0.1285 0.0
H645 H 0.57877 0.84055 0.14777 0.0
C646 C 0.43609 0.77615 0.12072 0.0
C647 C 0.53015 0.75449 0.13853 0.0
C648 C 0.57542 0.70805 0.14773 0.0
C649 C 0.44496 0.84417 0.12237 0.0
C650 C 0.49673 0.86745 0.13237 0.0
C651 C 0.53886 0.8224 0.14023 0.0
C652 C 0.51114 0.93839 0.13377 0.0
C653 C 0.4001 0.89051 0.11302 0.0
C654 C 0.57057 0.96294 0.12757 0.0
C655 C 0.58208 0.0304 0.12693 0.0
C656 C 0.53439 0.07469 0.13254 0.0
C657 C 0.47685 0.04985 0.13989 0.0
C658 C 0.46529 0.98198 0.14049 0.0
H659 H 0.37189 0.86497 0.1033 0.0
H660 H 0.36451 0.91232 0.12171 0.0
H661 H 0.42856 0.93123 0.1072 0.0
H662 H 0.60686 0.93003 0.1225 0.0
H663 H 0.62723 0.04798 0.12136 0.0
H664 H 0.76975 0.22431 0.36599 0.0
H665 H 0.65106 0.2275 0.36144 0.0
H666 H 0.62241 0.09716 0.4032 0.0
H667 H 0.741 0.09308 0.40772 0.0
H668 H 0.56139 0.12125 0.35608 0.0
H669 H 0.50562 0.25752 0.41317 0.0
H670 H 0.58739 0.25262 0.40472 0.0
H671 H 0.55369 0.18431 0.41618 0.0
C672 C 0.73835 0.19549 0.37403 0.0
C673 C 0.76489 0.15814 0.38713 0.0
C674 C 0.67053 0.19777 0.3715 0.0
C675 C 0.62813 0.16326 0.38213 0.0
C676 C 0.65439 0.12507 0.39505 0.0
H677 H 0.20437 0.1288 0.38965 0.0
H678 H 0.32312 0.11915 0.39352 0.0
C679 C 0.72215 0.1227 0.39758 0.0
C680 C 0.55631 0.16725 0.37973 0.0
H681 H 0.41479 0.21815 0.39798 0.0
C682 C 0.52923 0.14257 0.3652 0.0
C683 C 0.51477 0.19502 0.3917 0.0
C684 C 0.54169 0.22444 0.40727 0.0
C685 C 0.46125 0.14393 0.3624 0.0
C686 C 0.41968 0.17195 0.37434 0.0
C687 C 0.44684 0.19655 0.38889 0.0
C688 C 0.3479 0.17732 0.37187 0.0
C689 C 0.4345 0.1142 0.34685 0.0
C690 C 0.32264 0.21406 0.35856 0.0
C691 C 0.25494 0.21956 0.35629 0.0
C692 C 0.21115 0.18893 0.36739 0.0
C693 C 0.23667 0.15295 0.38087 0.0
C694 C 0.30449 0.14733 0.38309 0.0
H695 H 0.46971 0.07897 0.34142 0.0
H696 H 0.38736 0.08827 0.34923 0.0
H697 H 0.42544 0.15392 0.33762 0.0
H698 H 0.35533 0.23892 0.34999 0.0
H699 H 0.23703 0.24805 0.34584 0.0
loop_
_geom_bond_atom_site_label_1
_geom_bond_atom_site_label_2
_geom_bond_distance
_geom_bond_site_symmetry_2
_ccdc_geom_bond_type
C0 O27 1.312 . S
C0 O28 1.208 . S
C1 O22 1.331 . S
C1 O25 1.244 . S
C2 O24 1.264 . S
C2 O26 1.273 . S
Mg3 O5 1.936 1_455 S
Mg3 O12 2.081 1_455 S
Mg3 O14 2.023 . S
Mg3 O18 2.031 . S
Mg3 O27 2.291 . S
Mg4 O5 1.963 . S
Mg4 O15 1.942 . S
Mg4 O16 1.955 . S
Mg4 O23 1.986 . S
O5 Mg3 1.936 1_655 S
O5 Mg4 1.963 . S
O5 Mg6 1.915 . S
Mg6 O5 1.915 . S
Mg6 O7 1.915 1_655 S
Mg6 O11 2.013 . S
Mg6 O17 2.114 1_655 S
Mg6 O21 2.013 . S
Mg6 O27 2.114 1_655 S
O7 Mg6 1.915 1_455 S
O7 Mg8 1.936 . S
O7 Mg9 1.963 1_455 S
Mg8 O7 1.936 . S
Mg8 O17 2.291 . S
Mg8 O22 2.081 . S
Mg8 O24 2.023 1_455 S
Mg8 O28 2.031 . S
Mg9 O7 1.963 1_655 S
Mg9 O13 1.986 . S
Mg9 O25 1.942 1_655 S
Mg9 O26 1.955 . S
C10 O21 1.191 . S
C10 O23 1.307 . S
O11 Mg6 2.013 . S
O11 C30 1.191 . S
O12 Mg3 2.081 1_655 S
O12 C20 1.331 . S
O13 Mg9 1.986 . S
O13 C30 1.307 . S
O14 Mg3 2.023 . S
O14 C29 1.264 . S
O15 Mg4 1.942 . S
O15 C20 1.244 . S
O16 Mg4 1.955 . S
O16 C29 1.273 1_655 S
O17 Mg6 2.114 1_455 S
O17 Mg8 2.291 . S
O17 C19 1.312 . S
O18 Mg3 2.031 . S
O18 C19 1.208 . S
C19 O17 1.312 . S
C19 O18 1.208 . S
C20 O12 1.331 . S
C20 O15 1.244 . S
O21 Mg6 2.013 . S
O21 C10 1.191 . S
O22 C1 1.331 . S
O22 Mg8 2.081 . S
O23 Mg4 1.986 . S
O23 C10 1.307 . S
O24 C2 1.264 . S
O24 Mg8 2.023 1_655 S
O25 C1 1.244 . S
O25 Mg9 1.942 1_455 S
O26 C2 1.273 . S
O26 Mg9 1.955 . S
O27 C0 1.312 . S
O27 Mg3 2.291 . S
O27 Mg6 2.114 1_455 S
O28 C0 1.208 . S
O28 Mg8 2.031 . S
C29 O14 1.264 . S
C29 O16 1.273 1_455 S
C30 O11 1.191 . S
C30 O13 1.307 . S
C31 O58 1.312 . S
C31 O59 1.208 . S
C32 O53 1.331 . S
C32 O56 1.244 . S
C33 O55 1.264 . S
C33 O57 1.273 . S
Mg34 O36 1.936 1_455 S
Mg34 O43 2.081 1_455 S
Mg34 O45 2.023 . S
Mg34 O49 2.031 . S
Mg34 O58 2.291 . S
Mg35 O36 1.963 . S
Mg35 O46 1.942 . S
Mg35 O47 1.955 . S
Mg35 O54 1.986 . S
O36 Mg34 1.936 1_655 S
O36 Mg35 1.963 . S
O36 Mg37 1.915 . S
Mg37 O36 1.915 . S
Mg37 O38 1.915 1_655 S
Mg37 O42 2.013 . S
Mg37 O48 2.114 1_655 S
Mg37 O52 2.013 . S
Mg37 O58 2.114 1_655 S
O38 Mg37 1.915 1_455 S
O38 Mg39 1.936 . S
O38 Mg40 1.963 1_455 S
Mg39 O38 1.936 . S
Mg39 O48 2.291 . S
Mg39 O53 2.081 . S
Mg39 O55 2.023 1_455 S
Mg39 O59 2.031 . S
Mg40 O38 1.963 1_655 S
Mg40 O44 1.986 . S
Mg40 O56 1.942 1_655 S
Mg40 O57 1.955 . S
C41 O52 1.191 . S
C41 O54 1.307 . S
O42 Mg37 2.013 . S
O42 C61 1.191 . S
O43 Mg34 2.081 1_655 S
O43 C51 1.331 . S
O44 Mg40 1.986 . S
O44 C61 1.307 . S
O45 Mg34 2.023 . S
O45 C60 1.264 . S
O46 Mg35 1.942 . S
O46 C51 1.244 . S
O47 Mg35 1.955 . S
O47 C60 1.273 1_655 S
O48 Mg37 2.114 1_455 S
O48 Mg39 2.291 . S
O48 C50 1.312 . S
O49 Mg34 2.031 . S
O49 C50 1.208 . S
C50 O48 1.312 . S
C50 O49 1.208 . S
C51 O43 1.331 . S
C51 O46 1.244 . S
O52 Mg37 2.013 . S
O52 C41 1.191 . S
O53 C32 1.331 . S
O53 Mg39 2.081 . S
O54 Mg35 1.986 . S
O54 C41 1.307 . S
O55 C33 1.264 . S
O55 Mg39 2.023 1_655 S
O56 C32 1.244 . S
O56 Mg40 1.942 1_455 S
O57 C33 1.273 . S
O57 Mg40 1.955 . S
O58 C31 1.312 . S
O58 Mg34 2.291 . S
O58 Mg37 2.114 1_455 S
O59 C31 1.208 . S
O59 Mg39 2.031 . S
C60 O45 1.264 . S
C60 O47 1.273 1_455 S
C61 O42 1.191 . S
C61 O44 1.307 . S
C62 O89 1.312 . S
C62 O90 1.208 . S
C63 O84 1.331 . S
C63 O87 1.244 . S
C64 O86 1.264 . S
C64 O88 1.273 . S
Mg65 O67 1.936 . S
Mg65 O74 2.081 . S
Mg65 O76 2.023 . S
Mg65 O80 2.031 . S
Mg65 O89 2.291 . S
Mg66 O67 1.963 . S
Mg66 O77 1.942 . S
Mg66 O78 1.955 . S
Mg66 O85 1.986 . S
O67 Mg65 1.936 . S
O67 Mg66 1.963 . S
O67 Mg68 1.915 . S
Mg68 O67 1.915 . S
Mg68 O69 1.915 . S
Mg68 O73 2.013 . S
Mg68 O79 2.114 . S
Mg68 O83 2.013 . S
Mg68 O89 2.114 . S
O69 Mg68 1.915 . S
O69 Mg70 1.936 . S
O69 Mg71 1.963 . S
Mg70 O69 1.936 . S
Mg70 O79 2.291 . S
Mg70 O84 2.081 . S
Mg70 O86 2.023 . S
Mg70 O90 2.031 . S
Mg71 O69 1.963 . S
Mg71 O75 1.986 . S
Mg71 O87 1.942 . S
Mg71 O88 1.955 . S
C72 O83 1.191 . S
C72 O85 1.307 . S
O73 Mg68 2.013 . S
O73 C92 1.191 . S
O74 Mg65 2.081 . S
O74 C82 1.331 . S
O75 Mg71 1.986 . S
O75 C92 1.307 . S
O76 Mg65 2.023 . S
O76 C91 1.264 . S
O77 Mg66 1.942 . S
O77 C82 1.244 . S
O78 Mg66 1.955 . S
O78 C91 1.273 . S
O79 Mg68 2.114 . S
O79 Mg70 2.291 . S
O79 C81 1.312 . S
O80 Mg65 2.031 . S
O80 C81 1.208 . S
C81 O79 1.312 . S
C81 O80 1.208 . S
C82 O74 1.331 . S
C82 O77 1.244 . S
O83 Mg68 2.013 . S
O83 C72 1.191 . S
O84 C63 1.331 . S
O84 Mg70 2.081 . S
O85 Mg66 1.986 . S
O85 C72 1.307 . S
O86 C64 1.264 . S
O86 Mg70 2.023 . S
O87 C63 1.244 . S
O87 Mg71 1.942 . S
O88 C64 1.273 . S
O88 Mg71 1.955 . S
O89 C62 1.312 . S
O89 Mg65 2.291 . S
O89 Mg68 2.114 . S
O90 C62 1.208 . S
O90 Mg70 2.031 . S
C91 O76 1.264 . S
C91 O78 1.273 . S
C92 O73 1.191 . S
C92 O75 1.307 . S
C93 O120 1.312 . S
C93 O121 1.208 . S
C94 O115 1.331 . S
C94 O118 1.244 . S
C95 O117 1.264 . S
C95 O119 1.273 . S
Mg96 O98 1.936 . S
Mg96 O105 2.081 . S
Mg96 O107 2.023 . S
Mg96 O111 2.031 . S
Mg96 O120 2.291 . S
Mg97 O98 1.963 . S
Mg97 O108 1.942 . S
Mg97 O109 1.955 . S
Mg97 O116 1.986 . S
O98 Mg96 1.936 . S
O98 Mg97 1.963 . S
O98 Mg99 1.915 . S
Mg99 O98 1.915 . S
Mg99 O100 1.915 . S
Mg99 O104 2.013 . S
Mg99 O110 2.114 . S
Mg99 O114 2.013 . S
Mg99 O120 2.114 . S
O100 Mg99 1.915 . S
O100 Mg101 1.936 . S
O100 Mg102 1.963 . S
Mg101 O100 1.936 . S
Mg101 O110 2.291 . S
Mg101 O115 2.081 . S
Mg101 O117 2.023 . S
Mg101 O121 2.031 . S
Mg102 O100 1.963 . S
Mg102 O106 1.986 . S
Mg102 O118 1.942 . S
Mg102 O119 1.955 . S
C103 O114 1.191 . S
C103 O116 1.307 . S
O104 Mg99 2.013 . S
O104 C123 1.191 . S
O105 Mg96 2.081 . S
O105 C113 1.331 . S
O106 Mg102 1.986 . S
O106 C123 1.307 . S
O107 Mg96 2.023 . S
O107 C122 1.264 . S
O108 Mg97 1.942 . S
O108 C113 1.244 . S
O109 Mg97 1.955 . S
O109 C122 1.273 . S
O110 Mg99 2.114 . S
O110 Mg101 2.291 . S
O110 C112 1.312 . S
O111 Mg96 2.031 . S
O111 C112 1.208 . S
C112 O110 1.312 . S
C112 O111 1.208 . S
C113 O105 1.331 . S
C113 O108 1.244 . S
O114 Mg99 2.013 . S
O114 C103 1.191 . S
O115 C94 1.331 . S
O115 Mg101 2.081 . S
O116 Mg97 1.986 . S
O116 C103 1.307 . S
O117 C95 1.264 . S
O117 Mg101 2.023 . S
O118 C94 1.244 . S
O118 Mg102 1.942 . S
O119 C95 1.273 . S
O119 Mg102 1.955 . S
O120 C93 1.312 . S
O120 Mg96 2.291 . S
O120 Mg99 2.114 . S
O121 C93 1.208 . S
O121 Mg101 2.031 . S
C122 O107 1.264 . S
C122 O109 1.273 . S
C123 O104 1.191 . S
C123 O106 1.307 . S
H124 C132 0.929 . S
H125 C134 0.930 . S
H126 C136 0.930 1_455 S
H127 C139 0.929 1_455 S
H128 C142 0.930 . S
H129 C144 0.960 . S
H130 C144 0.960 1_655 S
H131 C144 0.960 . S
C132 H124 0.929 . S
C132 C133 1.377 . S
C132 C134 1.384 . S
C133 C132 1.377 . S
C133 C139 1.390 . S
C134 H125 0.930 . S
C134 C132 1.384 . S
C134 C135 1.372 . S
C135 C134 1.372 . S
C135 C136 1.400 . S
C135 C140 1.490 . S
C136 H126 0.930 1_655 S
C136 C135 1.400 . S
C136 C139 1.386 . S
H137 C153 0.930 . S
H138 C154 0.931 . S
C139 H127 0.929 1_655 S
C139 C133 1.390 . S
C139 C136 1.386 . S
C140 C135 1.490 . S
C140 C142 1.395 . S
C140 C143 1.403 . S
H141 C147 0.930 . S
C142 H128 0.930 . S
C142 C140 1.395 . S
C142 C145 1.403 . S
C143 C140 1.403 . S
C143 C144 1.524 1_655 S
C143 C147 1.400 . S
C144 H129 0.960 . S
C144 H130 0.960 1_455 S
C144 H131 0.960 . S
C144 C143 1.524 1_455 S
C145 C142 1.403 . S
C145 C146 1.392 . S
C145 C149 1.495 . S
C146 C145 1.392 . S
C146 C147 1.385 . S
C146 C148 1.478 . S
C147 H141 0.930 . S
C147 C143 1.400 . S
C147 C146 1.385 . S
C148 C146 1.478 . S
C148 C150 1.381 . S
C148 C154 1.383 . S
C149 C145 1.495 . S
C149 H155 0.959 . S
C149 H156 0.961 . S
C149 H157 0.960 . S
C150 C148 1.381 . S
C150 C151 1.394 . S
C150 H158 0.930 . S
C151 C150 1.394 . S
C151 C152 1.383 . S
C151 H159 0.929 . S
C152 C151 1.383 . S
C152 C153 1.377 . S
C153 H137 0.930 . S
C153 C152 1.377 . S
C153 C154 1.379 . S
C154 H138 0.931 . S
C154 C148 1.383 . S
C154 C153 1.379 . S
H155 C149 0.959 . S
H156 C149 0.961 . S
H157 C149 0.960 . S
H158 C150 0.930 . S
H159 C151 0.929 . S
H160 C168 0.929 . S
H161 C170 0.930 . S
H162 C172 0.930 . S
H163 C175 0.929 . S
H164 C178 0.930 . S
H165 C180 0.960 . S
H166 C180 0.960 . S
H167 C180 0.960 . S
C168 H160 0.929 . S
C168 C169 1.377 . S
C168 C170 1.384 . S
C169 C168 1.377 . S
C169 C175 1.390 . S
C170 H161 0.930 . S
C170 C168 1.384 . S
C170 C171 1.372 . S
C171 C170 1.372 . S
C171 C172 1.400 . S
C171 C176 1.490 . S
C172 H162 0.930 . S
C172 C171 1.400 . S
C172 C175 1.386 . S
H173 C189 0.930 . S
H174 C190 0.931 . S
C175 H163 0.929 . S
C175 C169 1.390 . S
C175 C172 1.386 . S
C176 C171 1.490 . S
C176 C178 1.395 . S
C176 C179 1.403 . S
H177 C183 0.930 . S
C178 H164 0.930 . S
C178 C176 1.395 . S
C178 C181 1.403 . S
C179 C176 1.403 . S
C179 C180 1.524 . S
C179 C183 1.400 . S
C180 H165 0.960 . S
C180 H166 0.960 . S
C180 H167 0.960 . S
C180 C179 1.524 . S
C181 C178 1.403 . S
C181 C182 1.392 . S
C181 C185 1.495 . S
C182 C181 1.392 . S
C182 C183 1.385 . S
C182 C184 1.478 . S
C183 H177 0.930 . S
C183 C179 1.400 . S
C183 C182 1.385 . S
C184 C182 1.478 . S
C184 C186 1.381 . S
C184 C190 1.383 . S
C185 C181 1.495 . S
C185 H191 0.959 . S
C185 H192 0.961 . S
C185 H193 0.960 . S
C186 C184 1.381 . S
C186 C187 1.394 . S
C186 H194 0.930 . S
C187 C186 1.394 . S
C187 C188 1.383 . S
C187 H195 0.929 . S
C188 C187 1.383 . S
C188 C189 1.377 . S
C189 H173 0.930 . S
C189 C188 1.377 . S
C189 C190 1.379 . S
C190 H174 0.931 . S
C190 C184 1.383 . S
C190 C189 1.379 . S
H191 C185 0.959 . S
H192 C185 0.961 . S
H193 C185 0.960 . S
H194 C186 0.930 . S
H195 C187 0.929 . S
H196 C204 0.929 . S
H197 C206 0.930 . S
H198 C208 0.930 . S
H199 C211 0.929 . S
H200 C214 0.930 . S
H201 C216 0.960 . S
H202 C216 0.960 . S
H203 C216 0.960 . S
C204 H196 0.929 . S
C204 C205 1.377 . S
C204 C206 1.384 . S
C205 C204 1.377 . S
C205 C211 1.390 . S
C206 H197 0.930 . S
C206 C204 1.384 . S
C206 C207 1.372 . S
C207 C206 1.372 . S
C207 C208 1.400 . S
C207 C212 1.490 . S
C208 H198 0.930 . S
C208 C207 1.400 . S
C208 C211 1.386 . S
H209 C225 0.930 . S
H210 C226 0.931 . S
C211 H199 0.929 . S
C211 C205 1.390 . S
C211 C208 1.386 . S
C212 C207 1.490 . S
C212 C214 1.395 . S
C212 C215 1.403 . S
H213 C219 0.930 . S
C214 H200 0.930 . S
C214 C212 1.395 . S
C214 C217 1.403 1_556 S
C215 C212 1.403 . S
C215 C216 1.524 . S
C215 C219 1.400 1_556 S
C216 H201 0.960 . S
C216 H202 0.960 . S
C216 H203 0.960 . S
C216 C215 1.524 . S
C217 C214 1.403 1_554 S
C217 C218 1.392 . S
C217 C221 1.495 . S
C218 C217 1.392 . S
C218 C219 1.385 . S
C218 C220 1.478 . S
C219 H213 0.930 . S
C219 C215 1.400 1_554 S
C219 C218 1.385 . S
C220 C218 1.478 . S
C220 C222 1.381 . S
C220 C226 1.383 . S
C221 C217 1.495 . S
C221 H227 0.959 . S
C221 H228 0.961 . S
C221 H229 0.960 . S
C222 C220 1.381 . S
C222 C223 1.394 . S
C222 H230 0.930 . S
C223 C222 1.394 . S
C223 C224 1.383 . S
C223 H231 0.929 . S
C224 C223 1.383 . S
C224 C225 1.377 . S
C225 H209 0.930 . S
C225 C224 1.377 . S
C225 C226 1.379 . S
C226 H210 0.931 . S
C226 C220 1.383 . S
C226 C225 1.379 . S
H227 C221 0.959 . S
H228 C221 0.961 . S
H229 C221 0.960 . S
H230 C222 0.930 . S
H231 C223 0.929 . S
H232 C240 0.929 . S
H233 C242 0.930 . S
H234 C244 0.930 . S
H235 C247 0.929 . S
H236 C250 0.930 . S
H237 C252 0.960 . S
H238 C252 0.960 . S
H239 C252 0.960 . S
C240 H232 0.929 . S
C240 C241 1.377 . S
C240 C242 1.384 . S
C241 C240 1.377 . S
C241 C247 1.390 . S
C242 H233 0.930 . S
C242 C240 1.384 . S
C242 C243 1.372 . S
C243 C242 1.372 . S
C243 C244 1.400 . S
C243 C248 1.490 . S
C244 H234 0.930 . S
C244 C243 1.400 . S
C244 C247 1.386 . S
H245 C261 0.930 . S
H246 C262 0.931 . S
C247 H235 0.929 . S
C247 C241 1.390 . S
C247 C244 1.386 . S
C248 C243 1.490 . S
C248 C250 1.395 . S
C248 C251 1.403 . S
H249 C255 0.930 . S
C250 H236 0.930 . S
C250 C248 1.395 . S
C250 C253 1.403 . S
C251 C248 1.403 . S
C251 C252 1.524 . S
C251 C255 1.400 . S
C252 H237 0.960 . S
C252 H238 0.960 . S
C252 H239 0.960 . S
C252 C251 1.524 . S
C253 C250 1.403 . S
C253 C254 1.392 . S
C253 C257 1.495 . S
C254 C253 1.392 . S
C254 C255 1.385 . S
C254 C256 1.478 . S
C255 H249 0.930 . S
C255 C251 1.400 . S
C255 C254 1.385 . S
C256 C254 1.478 . S
C256 C258 1.381 . S
C256 C262 1.383 . S
C257 C253 1.495 . S
C257 H263 0.959 . S
C257 H264 0.961 . S
C257 H265 0.960 . S
C258 C256 1.381 . S
C258 C259 1.394 . S
C258 H266 0.930 . S
C259 C258 1.394 . S
C259 C260 1.383 . S
C259 H267 0.929 . S
C260 C259 1.383 . S
C260 C261 1.377 . S
C261 H245 0.930 . S
C261 C260 1.377 . S
C261 C262 1.379 . S
C262 H246 0.931 . S
C262 C256 1.383 . S
C262 C261 1.379 . S
H263 C257 0.959 . S
H264 C257 0.961 . S
H265 C257 0.960 . S
H266 C258 0.930 . S
H267 C259 0.929 . S
H268 C276 0.929 . S
H269 C278 0.930 . S
H270 C280 0.930 . S
H271 C283 0.929 . S
H272 C286 0.930 . S
H273 C288 0.960 . S
H274 C288 0.960 . S
H275 C288 0.960 . S
C276 H268 0.929 . S
C276 C277 1.377 . S
C276 C278 1.384 . S
C277 C276 1.377 . S
C277 C283 1.390 . S
C278 H269 0.930 . S
C278 C276 1.384 . S
C278 C279 1.372 . S
C279 C278 1.372 . S
C279 C280 1.400 . S
C279 C284 1.490 . S
C280 H270 0.930 . S
C280 C279 1.400 . S
C280 C283 1.386 . S
H281 C297 0.930 . S
H282 C298 0.931 . S
C283 H271 0.929 . S
C283 C277 1.390 . S
C283 C280 1.386 . S
C284 C279 1.490 . S
C284 C286 1.395 . S
C284 C287 1.403 . S
H285 C291 0.930 . S
C286 H272 0.930 . S
C286 C284 1.395 . S
C286 C289 1.403 . S
C287 C284 1.403 . S
C287 C288 1.524 . S
C287 C291 1.400 . S
C288 H273 0.960 . S
C288 H274 0.960 . S
C288 H275 0.960 . S
C288 C287 1.524 . S
C289 C286 1.403 . S
C289 C290 1.392 . S
C289 C293 1.495 . S
C290 C289 1.392 . S
C290 C291 1.385 . S
C290 C292 1.478 . S
C291 H285 0.930 . S
C291 C287 1.400 . S
C291 C290 1.385 . S
C292 C290 1.478 . S
C292 C294 1.381 . S
C292 C298 1.383 . S
C293 C289 1.495 . S
C293 H299 0.959 . S
C293 H300 0.961 . S
C293 H301 0.960 . S
C294 C292 1.381 . S
C294 C295 1.394 . S
C294 H302 0.930 . S
C295 C294 1.394 . S
C295 C296 1.383 . S
C295 H303 0.929 . S
C296 C295 1.383 . S
C296 C297 1.377 . S
C297 H281 0.930 . S
C297 C296 1.377 . S
C297 C298 1.379 . S
C298 H282 0.931 . S
C298 C292 1.383 . S
C298 C297 1.379 . S
H299 C293 0.959 . S
H300 C293 0.961 . S
H301 C293 0.960 . S
H302 C294 0.930 . S
H303 C295 0.929 . S
H304 C312 0.929 . S
H305 C314 0.930 . S
H306 C316 0.930 . S
H307 C319 0.929 . S
H308 C322 0.930 . S
H309 C324 0.960 . S
H310 C324 0.960 . S
H311 C324 0.960 . S
C312 H304 0.929 . S
C312 C313 1.377 . S
C312 C314 1.384 . S
C313 C312 1.377 . S
C313 C319 1.390 . S
C314 H305 0.930 . S
C314 C312 1.384 . S
C314 C315 1.372 . S
C315 C314 1.372 . S
C315 C316 1.400 . S
C315 C320 1.490 . S
C316 H306 0.930 . S
C316 C315 1.400 . S
C316 C319 1.386 . S
H317 C333 0.930 . S
H318 C334 0.931 . S
C319 H307 0.929 . S
C319 C313 1.390 . S
C319 C316 1.386 . S
C320 C315 1.490 . S
C320 C322 1.395 . S
C320 C323 1.403 . S
H321 C327 0.930 . S
C322 H308 0.930 . S
C322 C320 1.395 . S
C322 C325 1.403 . S
C323 C320 1.403 . S
C323 C324 1.524 . S
C323 C327 1.400 . S
C324 H309 0.960 . S
C324 H310 0.960 . S
C324 H311 0.960 . S
C324 C323 1.524 . S
C325 C322 1.403 . S
C325 C326 1.392 . S
C325 C329 1.495 . S
C326 C325 1.392 . S
C326 C327 1.385 . S
C326 C328 1.478 . S
C327 H321 0.930 . S
C327 C323 1.400 . S
C327 C326 1.385 . S
C328 C326 1.478 . S
C328 C330 1.381 . S
C328 C334 1.383 . S
C329 C325 1.495 . S
C329 H335 0.959 . S
C329 H336 0.961 . S
C329 H337 0.960 . S
C330 C328 1.381 . S
C330 C331 1.394 . S
C330 H338 0.930 . S
C331 C330 1.394 . S
C331 C332 1.383 . S
C331 H339 0.929 . S
C332 C331 1.383 . S
C332 C333 1.377 . S
C333 H317 0.930 . S
C333 C332 1.377 . S
C333 C334 1.379 . S
C334 H318 0.931 . S
C334 C328 1.383 . S
C334 C333 1.379 . S
H335 C329 0.959 . S
H336 C329 0.961 . S
H337 C329 0.960 . S
H338 C330 0.930 . S
H339 C331 0.929 . S
H340 C348 0.929 . S
H341 C350 0.930 . S
H342 C352 0.930 . S
H343 C355 0.929 . S
H344 C358 0.935 . S
H345 C360 0.960 . S
H346 C360 0.960 . S
H347 C360 0.960 . S
C348 H340 0.929 . S
C348 C349 1.377 . S
C348 C350 1.384 . S
C349 C348 1.377 . S
C349 C355 1.390 . S
C350 H341 0.930 . S
C350 C348 1.384 . S
C350 C351 1.372 . S
C351 C350 1.372 . S
C351 C352 1.400 . S
C351 C356 1.490 . S
C352 H342 0.930 . S
C352 C351 1.400 . S
C352 C355 1.386 . S
H353 C369 0.930 . S
H354 C370 0.931 . S
C355 H343 0.929 . S
C355 C349 1.390 . S
C355 C352 1.386 . S
C356 C351 1.490 . S
C356 C358 1.422 . S
C356 C359 1.403 1_565 S
H357 C363 0.930 . S
C358 H344 0.935 . S
C358 C356 1.422 . S
C358 C361 1.372 1_556 S
C359 C356 1.403 1_545 S
C359 C360 1.524 . S
C359 C363 1.400 1_556 S
C360 H345 0.960 . S
C360 H346 0.960 . S
C360 H347 0.960 . S
C360 C359 1.524 . S
C361 C358 1.372 1_554 S
C361 C362 1.392 1_565 S
C361 C365 1.495 . S
C362 C361 1.392 1_545 S
C362 C363 1.385 . S
C362 C364 1.478 . S
C363 H357 0.930 . S
C363 C359 1.400 1_554 S
C363 C362 1.385 . S
C364 C362 1.478 . S
C364 C366 1.381 . S
C364 C370 1.383 . S
C365 C361 1.495 . S
C365 H371 0.959 . S
C365 H372 0.961 . S
C365 H373 0.960 . S
C366 C364 1.381 . S
C366 C367 1.394 . S
C366 H374 0.930 . S
C367 C366 1.394 . S
C367 C368 1.383 . S
C367 H375 0.929 . S
C368 C367 1.383 . S
C368 C369 1.377 . S
C369 H353 0.930 . S
C369 C368 1.377 . S
C369 C370 1.379 . S
C370 H354 0.931 . S
C370 C364 1.383 . S
C370 C369 1.379 . S
H371 C365 0.959 . S
H372 C365 0.961 . S
H373 C365 0.960 . S
H374 C366 0.930 . S
H375 C367 0.929 . S
H376 C384 0.929 . S
H377 C386 0.930 . S
H378 C388 0.930 1_655 S
H379 C391 0.929 1_655 S
H380 C394 0.930 . S
H381 C396 0.960 1_655 S
H382 C396 0.960 . S
H383 C396 0.960 1_655 S
C384 H376 0.929 . S
C384 C385 1.377 . S
C384 C386 1.384 . S
C385 C384 1.377 . S
C385 C391 1.390 . S
C386 H377 0.930 . S
C386 C384 1.384 . S
C386 C387 1.372 . S
C387 C386 1.372 . S
C387 C388 1.400 . S
C387 C392 1.490 . S
C388 H378 0.930 1_455 S
C388 C387 1.400 . S
C388 C391 1.386 . S
H389 C405 0.930 1_655 S
H390 C406 0.931 1_655 S
C391 H379 0.929 1_455 S
C391 C385 1.390 . S
C391 C388 1.386 . S
C392 C387 1.490 . S
C392 C394 1.395 . S
C392 C395 1.403 1_545 S
H393 C399 0.930 . S
C394 H380 0.930 . S
C394 C392 1.395 . S
C394 C397 1.403 . S
C395 C392 1.403 1_565 S
C395 C396 1.524 . S
C395 C399 1.400 . S
C396 H381 0.960 1_455 S
C396 H382 0.960 . S
C396 H383 0.960 1_455 S
C396 C395 1.524 . S
C397 C394 1.403 . S
C397 C398 1.392 1_545 S
C397 C401 1.495 . S
C398 C397 1.392 1_565 S
C398 C399 1.385 . S
C398 C400 1.478 . S
C399 H393 0.930 . S
C399 C395 1.400 . S
C399 C398 1.385 . S
C400 C398 1.478 . S
C400 C402 1.381 . S
C400 C406 1.383 . S
C401 C397 1.495 . S
C401 H407 0.959 . S
C401 H408 0.961 . S
C401 H409 0.960 . S
C402 C400 1.381 . S
C402 C403 1.394 . S
C402 H410 0.930 . S
C403 C402 1.394 . S
C403 C404 1.383 . S
C403 H411 0.929 . S
C404 C403 1.383 . S
C404 C405 1.377 . S
C405 H389 0.930 1_455 S
C405 C404 1.377 . S
C405 C406 1.379 . S
C406 H390 0.931 1_455 S
C406 C400 1.383 . S
C406 C405 1.379 . S
H407 C401 0.959 . S
H408 C401 0.961 . S
H409 C401 0.960 . S
H410 C402 0.930 . S
H411 C403 0.929 . S
H412 C420 0.929 1_545 S
H413 C422 0.930 . S
H414 C424 0.930 . S
H415 C427 0.929 1_545 S
H416 C430 0.930 . S
H417 C432 0.960 . S
H418 C432 0.960 . S
H419 C432 0.960 . S
C420 H412 0.929 1_565 S
C420 C421 1.379 1_565 S
C420 C422 1.384 . S
C421 C420 1.379 1_545 S
C421 C427 1.388 1_445 S
C422 H413 0.930 . S
C422 C420 1.384 . S
C422 C423 1.372 . S
C423 C422 1.372 . S
C423 C424 1.400 1_455 S
C423 C428 1.490 . S
C424 H414 0.930 . S
C424 C423 1.400 1_655 S
C424 C427 1.386 . S
H425 C441 0.930 . S
H426 C442 0.931 . S
C427 H415 0.929 1_565 S
C427 C421 1.388 1_665 S
C427 C424 1.386 . S
C428 C423 1.490 . S
C428 C430 1.395 . S
C428 C431 1.403 1_455 S
H429 C435 0.930 . S
C430 H416 0.930 . S
C430 C428 1.395 . S
C430 C433 1.403 . S
C431 C428 1.403 1_655 S
C431 C432 1.524 . S
C431 C435 1.400 . S
C432 H417 0.960 . S
C432 H418 0.960 . S
C432 H419 0.960 . S
C432 C431 1.524 . S
C433 C430 1.403 . S
C433 C434 1.392 . S
C433 C437 1.495 . S
C434 C433 1.392 . S
C434 C435 1.385 1_455 S
C434 C436 1.478 . S
C435 H429 0.930 . S
C435 C431 1.400 . S
C435 C434 1.385 1_655 S
C436 C434 1.478 . S
C436 C438 1.381 . S
C436 C442 1.383 1_455 S
C437 C433 1.495 . S
C437 H443 0.959 . S
C437 H444 0.961 . S
C437 H445 0.960 . S
C438 C436 1.381 . S
C438 C439 1.394 . S
C438 H446 0.930 . S
C439 C438 1.394 . S
C439 C440 1.383 . S
C439 H447 0.929 . S
C440 C439 1.383 . S
C440 C441 1.377 1_455 S
C441 H425 0.930 . S
C441 C440 1.377 1_655 S
C441 C442 1.379 . S
C442 H426 0.931 . S
C442 C436 1.383 1_655 S
C442 C441 1.379 . S
H443 C437 0.959 . S
H444 C437 0.961 . S
H445 C437 0.960 . S
H446 C438 0.930 . S
H447 C439 0.929 . S
H448 C456 0.929 . S
H449 C458 0.930 . S
H450 C460 0.930 . S
H451 C463 0.929 . S
H452 C466 0.930 . S
H453 C468 0.960 . S
H454 C468 0.960 . S
H455 C468 0.960 . S
C456 H448 0.929 . S
C456 C457 1.377 . S
C456 C458 1.384 . S
C457 C456 1.377 . S
C457 C463 1.390 . S
C458 H449 0.930 . S
C458 C456 1.384 . S
C458 C459 1.372 . S
C459 C458 1.372 . S
C459 C460 1.400 . S
C459 C464 1.490 . S
C460 H450 0.930 . S
C460 C459 1.400 . S
C460 C463 1.386 . S
H461 C477 0.930 . S
H462 C478 0.931 . S
C463 H451 0.929 . S
C463 C457 1.390 . S
C463 C460 1.386 . S
C464 C459 1.490 . S
C464 C466 1.395 . S
C464 C467 1.403 . S
H465 C471 0.930 . S
C466 H452 0.930 . S
C466 C464 1.395 . S
C466 C469 1.403 . S
C467 C464 1.403 . S
C467 C468 1.524 . S
C467 C471 1.400 . S
C468 H453 0.960 . S
C468 H454 0.960 . S
C468 H455 0.960 . S
C468 C467 1.524 . S
C469 C466 1.403 . S
C469 C470 1.392 . S
C469 C473 1.495 . S
C470 C469 1.392 . S
C470 C471 1.385 . S
C470 C472 1.478 . S
C471 H465 0.930 . S
C471 C467 1.400 . S
C471 C470 1.385 . S
C472 C470 1.478 . S
C472 C474 1.381 . S
C472 C478 1.383 . S
C473 C469 1.495 . S
C473 H479 0.959 . S
C473 H480 0.961 . S
C473 H481 0.960 . S
C474 C472 1.381 . S
C474 C475 1.394 . S
C474 H482 0.930 . S
C475 C474 1.394 . S
C475 C476 1.383 . S
C475 H483 0.929 . S
C476 C475 1.383 . S
C476 C477 1.377 . S
C477 H461 0.930 . S
C477 C476 1.377 . S
C477 C478 1.379 . S
C478 H462 0.931 . S
C478 C472 1.383 . S
C478 C477 1.379 . S
H479 C473 0.959 . S
H480 C473 0.961 . S
H481 C473 0.960 . S
H482 C474 0.930 . S
H483 C475 0.929 . S
H484 C492 0.929 . S
H485 C494 0.930 . S
H486 C496 0.930 . S
H487 C499 0.929 . S
H488 C502 0.930 . S
H489 C504 0.960 . S
H490 C504 0.960 . S
H491 C504 0.960 . S
C492 H484 0.929 . S
C492 C493 1.377 . S
C492 C494 1.384 . S
C493 C492 1.377 . S
C493 C499 1.390 . S
C494 H485 0.930 . S
C494 C492 1.384 . S
C494 C495 1.372 . S
C495 C494 1.372 . S
C495 C496 1.400 . S
C495 C500 1.490 . S
C496 H486 0.930 . S
C496 C495 1.400 . S
C496 C499 1.386 . S
H497 C513 0.930 . S
H498 C514 0.931 . S
C499 H487 0.929 . S
C499 C493 1.390 . S
C499 C496 1.386 . S
C500 C495 1.490 . S
C500 C502 1.395 . S
C500 C503 1.403 . S
H501 C507 0.930 . S
C502 H488 0.930 . S
C502 C500 1.395 . S
C502 C505 1.403 . S
C503 C500 1.403 . S
C503 C504 1.524 . S
C503 C507 1.400 . S
C504 H489 0.960 . S
C504 H490 0.960 . S
C504 H491 0.960 . S
C504 C503 1.524 . S
C505 C502 1.403 . S
C505 C506 1.392 . S
C505 C509 1.495 . S
C506 C505 1.392 . S
C506 C507 1.385 . S
C506 C508 1.478 . S
C507 H501 0.930 . S
C507 C503 1.400 . S
C507 C506 1.385 . S
C508 C506 1.478 . S
C508 C510 1.381 . S
C508 C514 1.383 . S
C509 C505 1.495 . S
C509 H515 0.959 . S
C509 H516 0.961 . S
C509 H517 0.960 . S
C510 C508 1.381 . S
C510 C511 1.394 1_545 S
C510 H518 0.930 . S
C511 C510 1.394 1_565 S
C511 C512 1.383 . S
C511 H519 0.929 . S
C512 C511 1.383 . S
C512 C513 1.377 . S
C513 H497 0.930 . S
C513 C512 1.377 . S
C513 C514 1.379 1_565 S
C514 H498 0.931 . S
C514 C508 1.383 . S
C514 C513 1.379 1_545 S
H515 C509 0.959 . S
H516 C509 0.961 . S
H517 C509 0.960 . S
H518 C510 0.930 . S
H519 C511 0.929 . S
H520 C528 0.929 . S
H521 C530 0.930 . S
H522 C532 0.930 . S
H523 C535 0.929 . S
H524 C538 0.930 . S
H525 C540 0.960 . S
H526 C540 0.960 . S
H527 C540 0.960 . S
C528 H520 0.929 . S
C528 C529 1.377 . S
C528 C530 1.384 . S
C529 C528 1.377 . S
C529 C535 1.390 . S
C530 H521 0.930 . S
C530 C528 1.384 . S
C530 C531 1.372 . S
C531 C530 1.372 . S
C531 C532 1.400 . S
C531 C536 1.490 . S
C532 H522 0.930 . S
C532 C531 1.400 . S
C532 C535 1.386 . S
H533 C549 0.930 . S
H534 C550 0.931 . S
C535 H523 0.929 . S
C535 C529 1.390 . S
C535 C532 1.386 . S
C536 C531 1.490 . S
C536 C538 1.395 . S
C536 C539 1.403 . S
H537 C543 0.930 . S
C538 H524 0.930 . S
C538 C536 1.395 . S
C538 C541 1.403 1_455 S
C539 C536 1.403 . S
C539 C540 1.524 . S
C539 C543 1.400 1_455 S
C540 H525 0.960 . S
C540 H526 0.960 . S
C540 H527 0.960 . S
C540 C539 1.524 . S
C541 C538 1.403 1_655 S
C541 C542 1.392 . S
C541 C545 1.495 . S
C542 C541 1.392 . S
C542 C543 1.385 . S
C542 C544 1.478 . S
C543 H537 0.930 . S
C543 C539 1.400 1_655 S
C543 C542 1.385 . S
C544 C542 1.478 . S
C544 C546 1.381 . S
C544 C550 1.383 . S
C545 C541 1.495 . S
C545 H551 0.959 . S
C545 H552 0.961 . S
C545 H553 0.960 . S
C546 C544 1.381 . S
C546 C547 1.394 . S
C546 H554 0.930 . S
C547 C546 1.394 . S
C547 C548 1.383 . S
C547 H555 0.929 . S
C548 C547 1.383 . S
C548 C549 1.377 . S
C549 H533 0.930 . S
C549 C548 1.377 . S
C549 C550 1.379 . S
C550 H534 0.931 . S
C550 C544 1.383 . S
C550 C549 1.379 . S
H551 C545 0.959 . S
H552 C545 0.961 . S
H553 C545 0.960 . S
H554 C546 0.930 . S
H555 C547 0.929 . S
H556 C564 0.929 1_565 S
H557 C566 0.930 . S
H558 C568 0.930 . S
H559 C571 0.929 1_565 S
H560 C574 0.930 . S
H561 C576 0.960 . S
H562 C576 0.960 . S
H563 C576 0.960 . S
C564 H556 0.929 1_545 S
C564 C565 1.385 1_545 S
C564 C566 1.384 . S
C565 C564 1.385 1_565 S
C565 C571 1.382 1_665 S
C566 H557 0.930 . S
C566 C564 1.384 . S
C566 C567 1.372 . S
C567 C566 1.372 . S
C567 C568 1.400 1_655 S
C567 C572 1.490 . S
C568 H558 0.930 . S
C568 C567 1.400 1_455 S
C568 C571 1.386 . S
H569 C585 0.930 . S
H570 C586 0.931 . S
C571 H559 0.929 1_545 S
C571 C565 1.382 1_445 S
C571 C568 1.386 . S
C572 C567 1.490 . S
C572 C574 1.395 . S
C572 C575 1.403 1_655 S
H573 C579 0.930 . S
C574 H560 0.930 . S
C574 C572 1.395 . S
C574 C577 1.403 . S
C575 C572 1.403 1_455 S
C575 C576 1.524 . S
C575 C579 1.400 . S
C576 H561 0.960 . S
C576 H562 0.960 . S
C576 H563 0.960 . S
C576 C575 1.524 . S
C577 C574 1.403 . S
C577 C578 1.392 . S
C577 C581 1.495 . S
C578 C577 1.392 . S
C578 C579 1.385 1_655 S
C578 C580 1.478 . S
C579 H573 0.930 . S
C579 C575 1.400 . S
C579 C578 1.385 1_455 S
C580 C578 1.478 . S
C580 C582 1.381 . S
C580 C586 1.383 1_655 S
C581 C577 1.495 . S
C581 H587 0.959 . S
C581 H588 0.961 . S
C581 H589 0.960 . S
C582 C580 1.381 . S
C582 C583 1.394 . S
C582 H590 0.930 . S
C583 C582 1.394 . S
C583 C584 1.383 . S
C583 H591 0.929 . S
C584 C583 1.383 . S
C584 C585 1.377 1_655 S
C585 H569 0.930 . S
C585 C584 1.377 1_455 S
C585 C586 1.379 . S
C586 H570 0.931 . S
C586 C580 1.383 1_455 S
C586 C585 1.379 . S
H587 C581 0.959 . S
H588 C581 0.961 . S
H589 C581 0.960 . S
H590 C582 0.930 . S
H591 C583 0.929 . S
H592 C600 0.929 . S
H593 C602 0.930 . S
H594 C604 0.930 . S
H595 C607 0.929 . S
H596 C610 0.930 . S
H597 C612 0.960 . S
H598 C612 0.960 . S
H599 C612 0.960 . S
C600 H592 0.929 . S
C600 C601 1.377 . S
C600 C602 1.384 . S
C601 C600 1.377 . S
C601 C607 1.390 . S
C602 H593 0.930 . S
C602 C600 1.384 . S
C602 C603 1.372 . S
C603 C602 1.372 . S
C603 C604 1.400 . S
C603 C608 1.490 . S
C604 H594 0.930 . S
C604 C603 1.400 . S
C604 C607 1.386 . S
H605 C621 0.930 . S
H606 C622 0.931 . S
C607 H595 0.929 . S
C607 C601 1.390 . S
C607 C604 1.386 . S
C608 C603 1.490 . S
C608 C610 1.395 . S
C608 C611 1.403 . S
H609 C615 0.930 . S
C610 H596 0.930 . S
C610 C608 1.395 . S
C610 C613 1.403 1_655 S
C611 C608 1.403 . S
C611 C612 1.524 . S
C611 C615 1.400 1_655 S
C612 H597 0.960 . S
C612 H598 0.960 . S
C612 H599 0.960 . S
C612 C611 1.524 . S
C613 C610 1.403 1_455 S
C613 C614 1.392 . S
C613 C617 1.495 . S
C614 C613 1.392 . S
C614 C615 1.385 . S
C614 C616 1.478 . S
C615 H609 0.930 . S
C615 C611 1.400 1_455 S
C615 C614 1.385 . S
C616 C614 1.478 . S
C616 C618 1.381 . S
C616 C622 1.383 . S
C617 C613 1.495 . S
C617 H623 0.959 . S
C617 H624 0.961 . S
C617 H625 0.960 . S
C618 C616 1.381 . S
C618 C619 1.394 . S
C618 H626 0.930 . S
C619 C618 1.394 . S
C619 C620 1.383 . S
C619 H627 0.929 . S
C620 C619 1.383 . S
C620 C621 1.377 . S
C621 H605 0.930 . S
C621 C620 1.377 . S
C621 C622 1.379 . S
C622 H606 0.931 . S
C622 C616 1.383 . S
C622 C621 1.379 . S
H623 C617 0.959 . S
H624 C617 0.961 . S
H625 C617 0.960 . S
H626 C618 0.930 . S
H627 C619 0.929 . S
H628 C636 0.929 . S
H629 C638 0.930 . S
H630 C640 0.930 . S
H631 C643 0.929 . S
H632 C646 0.930 . S
H633 C648 0.960 . S
H634 C648 0.960 . S
H635 C648 0.960 . S
C636 H628 0.929 . S
C636 C637 1.377 . S
C636 C638 1.384 . S
C637 C636 1.377 . S
C637 C643 1.390 . S
C638 H629 0.930 . S
C638 C636 1.384 . S
C638 C639 1.372 . S
C639 C638 1.372 . S
C639 C640 1.400 . S
C639 C644 1.490 . S
C640 H630 0.930 . S
C640 C639 1.400 . S
C640 C643 1.386 . S
H641 C657 0.930 . S
H642 C658 0.931 . S
C643 H631 0.929 . S
C643 C637 1.390 . S
C643 C640 1.386 . S
C644 C639 1.490 . S
C644 C646 1.395 . S
C644 C647 1.403 . S
H645 C651 0.930 . S
C646 H632 0.930 . S
C646 C644 1.395 . S
C646 C649 1.403 . S
C647 C644 1.403 . S
C647 C648 1.524 . S
C647 C651 1.400 . S
C648 H633 0.960 . S
C648 H634 0.960 . S
C648 H635 0.960 . S
C648 C647 1.524 . S
C649 C646 1.403 . S
C649 C650 1.392 . S
C649 C653 1.495 . S
C650 C649 1.392 . S
C650 C651 1.385 . S
C650 C652 1.478 . S
C651 H645 0.930 . S
C651 C647 1.400 . S
C651 C650 1.385 . S
C652 C650 1.478 . S
C652 C654 1.381 . S
C652 C658 1.383 . S
C653 C649 1.495 . S
C653 H659 0.959 . S
C653 H660 0.961 . S
C653 H661 0.960 . S
C654 C652 1.381 . S
C654 C655 1.394 1_565 S
C654 H662 0.930 . S
C655 C654 1.394 1_545 S
C655 C656 1.383 . S
C655 H663 0.929 . S
C656 C655 1.383 . S
C656 C657 1.377 . S
C657 H641 0.930 . S
C657 C656 1.377 . S
C657 C658 1.379 1_545 S
C658 H642 0.931 . S
C658 C652 1.383 . S
C658 C657 1.379 1_565 S
H659 C653 0.959 . S
H660 C653 0.961 . S
H661 C653 0.960 . S
H662 C654 0.930 . S
H663 C655 0.929 . S
H664 C672 0.929 . S
H665 C674 0.930 . S
H666 C676 0.930 . S
H667 C679 0.929 . S
H668 C682 0.930 . S
H669 C684 0.960 . S
H670 C684 0.960 . S
H671 C684 0.960 . S
C672 H664 0.929 . S
C672 C673 1.377 . S
C672 C674 1.384 . S
C673 C672 1.377 . S
C673 C679 1.390 . S
C674 H665 0.930 . S
C674 C672 1.384 . S
C674 C675 1.372 . S
C675 C674 1.372 . S
C675 C676 1.400 . S
C675 C680 1.490 . S
C676 H666 0.930 . S
C676 C675 1.400 . S
C676 C679 1.386 . S
H677 C693 0.930 . S
H678 C694 0.931 . S
C679 H667 0.929 . S
C679 C673 1.390 . S
C679 C676 1.386 . S
C680 C675 1.490 . S
C680 C682 1.395 . S
C680 C683 1.403 . S
H681 C687 0.930 . S
C682 H668 0.930 . S
C682 C680 1.395 . S
C682 C685 1.403 . S
C683 C680 1.403 . S
C683 C684 1.524 . S
C683 C687 1.400 . S
C684 H669 0.960 . S
C684 H670 0.960 . S
C684 H671 0.960 . S
C684 C683 1.524 . S
C685 C682 1.403 . S
C685 C686 1.392 . S
C685 C689 1.495 . S
C686 C685 1.392 . S
C686 C687 1.385 . S
C686 C688 1.478 . S
C687 H681 0.930 . S
C687 C683 1.400 . S
C687 C686 1.385 . S
C688 C686 1.478 . S
C688 C690 1.381 . S
C688 C694 1.383 . S
C689 C685 1.495 . S
C689 H695 0.959 . S
C689 H696 0.961 . S
C689 H697 0.960 . S
C690 C688 1.381 . S
C690 C691 1.394 . S
C690 H698 0.930 . S
C691 C690 1.394 . S
C691 C692 1.383 . S
C691 H699 0.929 . S
C692 C691 1.383 . S
C692 C693 1.377 . S
C693 H677 0.930 . S
C693 C692 1.377 . S
C693 C694 1.379 . S
C694 H678 0.931 . S
C694 C688 1.383 . S
C694 C693 1.379 . S
H695 C689 0.959 . S
H696 C689 0.961 . S
H697 C689 0.960 . S
H698 C690 0.930 . S
H699 C691 0.929 . S
C133 C20 1.254 . S
C152 C51 1.282 . S
C169 C82 1.360 . S
C188 C33 1.386 . S
C205 C64 1.458 . S
C224 C122 1.425 . S
C241 C2 1.359 . S
C260 C94 1.370 . S
C277 C95 1.346 . S
C296 C1 1.354 . S
C313 C32 1.362 . S
C332 C91 1.365 . S
C349 C63 1.256 . S
C368 C113 1.273 . S
C385 C29 1.466 . S
C404 C60 1.486 . S
C421 C30 1.446 1_455 S
C440 C19 1.403 . S
C457 C31 1.433 . S
C476 C41 1.435 . S
C493 C72 1.453 . S
C512 C62 1.433 . S
C529 C103 1.446 . S
C548 C93 1.409 . S
C565 C61 1.453 . S
C584 C50 1.454 1_655 S
C601 C81 1.431 . S
C620 C92 1.457 . S
C637 C123 1.453 . S
C656 C112 1.433 . S
C673 C10 1.450 . S
C692 C0 1.410 . S
