# Generated by pormake.
# Topology xfu, (5)-cn, num edge types: 1
# Building blocks:
#     Node 0, Type 0, BuildingBlock: XOMCOT_clean_sbu_1, # of connection points: 5
#     Node 1, Type 0, BuildingBlock: XOMCOT_clean_sbu_1, # of connection points: 5
#     Node 2, Type 0, BuildingBlock: XOMCOT_clean_sbu_1, # of connection points: 5
#     Node 3, Type 0, BuildingBlock: XOMCOT_clean_sbu_1, # of connection points: 5
#     Node 4, Type 0, BuildingBlock: XOMCOT_clean_sbu_1, # of connection points: 5
#     Node 5, Type 0, BuildingBlock: XOMCOT_clean_sbu_1, # of connection points: 5
#     Node 6, Type 0, BuildingBlock: XOMCOT_clean_sbu_1, # of connection points: 5
#     Node 7, Type 0, BuildingBlock: XOMCOT_clean_sbu_1, # of connection points: 5
#     Edge 8, Type (0, 0), BuildingBlock: MIFKUJ_clean_linker_0, # of connection points: 2
#     Edge 9, Type (0, 0), BuildingBlock: MIFKUJ_clean_linker_0, # of connection points: 2
#     Edge 10, Type (0, 0), BuildingBlock: MIFKUJ_clean_linker_0, # of connection points: 2
#     Edge 11, Type (0, 0), BuildingBlock: MIFKUJ_clean_linker_0, # of connection points: 2
#     Edge 12, Type (0, 0), BuildingBlock: MIFKUJ_clean_linker_0, # of connection points: 2
#     Edge 13, Type (0, 0), BuildingBlock: MIFKUJ_clean_linker_0, # of connection points: 2
#     Edge 14, Type (0, 0), BuildingBlock: MIFKUJ_clean_linker_0, # of connection points: 2
#     Edge 15, Type (0, 0), BuildingBlock: MIFKUJ_clean_linker_0, # of connection points: 2
#     Edge 16, Type (0, 0), BuildingBlock: MIFKUJ_clean_linker_0, # of connection points: 2
#     Edge 17, Type (0, 0), BuildingBlock: MIFKUJ_clean_linker_0, # of connection points: 2
#     Edge 18, Type (0, 0), BuildingBlock: MIFKUJ_clean_linker_0, # of connection points: 2
#     Edge 19, Type (0, 0), BuildingBlock: MIFKUJ_clean_linker_0, # of connection points: 2
#     Edge 20, Type (0, 0), BuildingBlock: MIFKUJ_clean_linker_0, # of connection points: 2
#     Edge 21, Type (0, 0), BuildingBlock: MIFKUJ_clean_linker_0, # of connection points: 2
#     Edge 22, Type (0, 0), BuildingBlock: MIFKUJ_clean_linker_0, # of connection points: 2
#     Edge 23, Type (0, 0), BuildingBlock: MIFKUJ_clean_linker_0, # of connection points: 2
#     Edge 24, Type (0, 0), BuildingBlock: MIFKUJ_clean_linker_0, # of connection points: 2
#     Edge 25, Type (0, 0), BuildingBlock: MIFKUJ_clean_linker_0, # of connection points: 2
#     Edge 26, Type (0, 0), BuildingBlock: MIFKUJ_clean_linker_0, # of connection points: 2
#     Edge 27, Type (0, 0), BuildingBlock: MIFKUJ_clean_linker_0, # of connection points: 2
# Relax obj value: 0.490
# Max RMSD: 0.274
# Mean RMSD: 0.274
data_MOF--net-xfu--node1-XOMCOT_clean_sbu_1--edge1-MIFKUJ_clean_linker_0
_symmetry_space_group_name_H-M    P1
_symmetry_Int_Tables_number       1
_symmetry_cell_setting            triclinic
loop_
_symmetry_equiv_pos_as_xyz
'x, y, z'
_cell_length_a     36.716113
_cell_length_b     36.788885
_cell_length_c     64.649415
_cell_angle_alpha  90.372597
_cell_angle_beta   90.045657
_cell_angle_gamma 90.0339
loop_
_atom_site_label
_atom_site_type_symbol
_atom_site_fract_x
_atom_site_fract_y
_atom_site_fract_z
_atom_type_partial_charge
C0 C 0.9897 0.30671 0.63121 0.0
C1 C 0.99294 0.33499 0.64518 0.0
N2 N 0.02859 0.3427 0.64747 0.0
N3 N 0.02316 0.29682 0.62463 0.0
C4 C 0.04605 0.31965 0.63458 0.0
H5 H 0.9647 0.2927 0.62738 0.0
Co6 Co 0.03602 0.25476 0.61006 0.0
C7 C 0.096 0.30463 0.59276 0.0
O8 O 0.07731 0.33477 0.59047 0.0
N9 N 0.05014 0.21221 0.59552 0.0
C10 C 0.08529 0.16629 0.58497 0.0
C11 C 0.08253 0.19525 0.59822 0.0
C12 C 0.03402 0.19302 0.58006 0.0
N13 N 0.05481 0.16498 0.57356 0.0
O14 O 0.00722 0.27104 0.58697 0.0
H15 H 0.10372 0.20378 0.60872 0.0
H16 H 0.00775 0.1992 0.57348 0.0
O17 O 0.08064 0.27627 0.59985 0.0
C18 C 0.9766 0.2554 0.59012 0.0
O19 O 0.97422 0.23232 0.60551 0.0
N20 N 0.05928 0.23765 0.6337 0.0
C21 C 0.08415 0.20495 0.66965 0.0
C22 C 0.10621 0.22976 0.65899 0.0
C23 C 0.09319 0.24605 0.64101 0.0
C24 C 0.03722 0.21443 0.64415 0.0
C25 C 0.04909 0.19769 0.66216 0.0
H26 H 0.11072 0.26462 0.63283 0.0
H27 H 0.01034 0.20842 0.63822 0.0
H28 H 0.07529 0.31803 0.63335 0.0
H29 H 0.97102 0.34677 0.65417 0.0
H30 H 0.10844 0.14827 0.58337 0.0
H31 H 0.13335 0.23634 0.66444 0.0
H32 H 0.03136 0.17844 0.66979 0.0
C33 C 0.8051 0.49436 0.14436 0.0
C34 C 0.77945 0.4938 0.15984 0.0
N35 N 0.7533 0.51802 0.15518 0.0
N36 N 0.79541 0.51943 0.13029 0.0
C37 C 0.76338 0.5328 0.13709 0.0
H38 H 0.83097 0.48031 0.14446 0.0
Co39 Co 0.82609 0.5376 0.11014 0.0
C40 C 0.78159 0.59461 0.0901 0.0
O41 O 0.78242 0.57707 0.07234 0.0
N42 N 0.85717 0.55593 0.08993 0.0
C43 C 0.88885 0.59408 0.07035 0.0
C44 C 0.86586 0.59127 0.08699 0.0
C45 C 0.87618 0.5377 0.07536 0.0
N46 N 0.89511 0.56035 0.06318 0.0
O47 O 0.80061 0.50879 0.09004 0.0
H48 H 0.8565 0.61362 0.09653 0.0
H49 H 0.87663 0.50846 0.07371 0.0
O50 O 0.79519 0.57979 0.10613 0.0
C51 C 0.8152 0.47736 0.09063 0.0
O52 O 0.84382 0.47257 0.1025 0.0
N53 N 0.8522 0.56251 0.13062 0.0
C54 C 0.89173 0.58766 0.16458 0.0
C55 C 0.85554 0.59852 0.16161 0.0
C56 C 0.83619 0.5856 0.14451 0.0
C57 C 0.8875 0.55204 0.13309 0.0
C58 C 0.90796 0.56466 0.14986 0.0
H59 H 0.80782 0.59269 0.14312 0.0
H60 H 0.89944 0.53275 0.12238 0.0
H61 H 0.74999 0.5562 0.13049 0.0
H62 H 0.78194 0.47987 0.17447 0.0
H63 H 0.9012 0.61867 0.06448 0.0
H64 H 0.84205 0.61627 0.17263 0.0
H65 H 0.9357 0.55525 0.15177 0.0
C66 C 0.59429 0.28735 0.63589 0.0
C67 C 0.596 0.2614 0.65118 0.0
N68 N 0.56335 0.24501 0.65213 0.0
N69 N 0.56073 0.28697 0.62729 0.0
C70 C 0.54281 0.26061 0.63744 0.0
H71 H 0.61548 0.30666 0.63226 0.0
Co72 Co 0.54123 0.32 0.6086 0.0
C73 C 0.48455 0.25868 0.59591 0.0
O74 O 0.49944 0.22638 0.59752 0.0
N75 N 0.52074 0.35297 0.58994 0.0
C76 C 0.47879 0.38606 0.57384 0.0
C77 C 0.48488 0.36124 0.58915 0.0
C78 C 0.53586 0.37329 0.57491 0.0
N79 N 0.51094 0.39362 0.56492 0.0
O80 O 0.57426 0.30169 0.58793 0.0
H81 H 0.46425 0.35015 0.59922 0.0
H82 H 0.56447 0.37333 0.57116 0.0
O83 O 0.5028 0.28702 0.60051 0.0
C84 C 0.60273 0.32163 0.58913 0.0
O85 O 0.60195 0.35017 0.60148 0.0
N86 N 0.5128 0.3398 0.62967 0.0
C87 C 0.48077 0.37579 0.66285 0.0
C88 C 0.46702 0.34224 0.65603 0.0
C89 C 0.48311 0.32483 0.63909 0.0
C90 C 0.52654 0.37223 0.6362 0.0
C91 C 0.51067 0.39096 0.65261 0.0
H92 H 0.47188 0.29929 0.63386 0.0
H93 H 0.55023 0.38345 0.62862 0.0
H94 H 0.5144 0.25427 0.63518 0.0
H95 H 0.61834 0.257 0.66181 0.0
H96 H 0.4529 0.39837 0.57001 0.0
H97 H 0.44408 0.32965 0.66368 0.0
H98 H 0.52232 0.41661 0.65762 0.0
C99 C 0.78738 0.09391 0.13858 0.0
C100 C 0.81498 0.09488 0.15286 0.0
N101 N 0.83476 0.06428 0.15072 0.0
N102 N 0.7899 0.06306 0.12736 0.0
C103 C 0.8193 0.04569 0.13494 0.0
H104 H 0.76474 0.11255 0.13794 0.0
Co105 Co 0.75253 0.04663 0.11068 0.0
C106 C 0.77176 0.97196 0.09726 0.0
O107 O 0.73804 0.96252 0.1009 0.0
N108 N 0.71273 0.03084 0.09367 0.0
C109 C 0.65906 0.00856 0.0835 0.0
C110 C 0.68333 0.01086 0.0994 0.0
C111 C 0.70514 0.04018 0.07387 0.0
N112 N 0.67258 0.02732 0.06757 0.0
O113 O 0.77078 0.07731 0.08908 0.0
H114 H 0.6792 0.99802 0.11415 0.0
H115 H 0.72181 0.05791 0.06455 0.0
O116 O 0.7825 0.00452 0.10104 0.0
C117 C 0.75329 0.10707 0.09138 0.0
O118 O 0.72479 0.10717 0.10367 0.0
N119 N 0.73409 0.02202 0.13344 0.0
C120 C 0.70102 0.99731 0.16916 0.0
C121 C 0.73212 0.97987 0.16148 0.0
C122 C 0.74865 0.99296 0.14356 0.0
C123 C 0.70566 0.04087 0.1418 0.0
C124 C 0.68795 0.02833 0.15933 0.0
H125 H 0.77324 0.9801 0.13815 0.0
H126 H 0.69593 0.06517 0.13428 0.0
H127 H 0.82667 0.01816 0.13072 0.0
H128 H 0.81817 0.11484 0.16511 0.0
H129 H 0.63259 0.99557 0.08388 0.0
H130 H 0.74317 0.95621 0.1691 0.0
H131 H 0.66437 0.04277 0.1652 0.0
C132 C 0.08409 0.80061 0.34046 0.0
C133 C 0.09141 0.77311 0.32671 0.0
N134 N 0.07677 0.74205 0.33395 0.0
N135 N 0.06429 0.78748 0.35625 0.0
C136 C 0.06217 0.7514 0.35249 0.0
H137 H 0.09017 0.82909 0.33824 0.0
Co138 Co 0.04266 0.81917 0.37533 0.0
C139 C 0.97802 0.76141 0.37722 0.0
O140 O 0.98604 0.73747 0.36286 0.0
N141 N 0.02144 0.85183 0.39416 0.0
C142 C 0.98019 0.88924 0.40777 0.0
C143 C 0.98599 0.86184 0.39373 0.0
C144 C 0.03656 0.87341 0.40883 0.0
N145 N 0.01201 0.89642 0.41718 0.0
O146 O 0.07177 0.79778 0.39678 0.0
H147 H 0.96585 0.85107 0.38312 0.0
H148 H 0.06521 0.87379 0.41266 0.0
O149 O 0.99939 0.78834 0.38054 0.0
C150 C 0.10133 0.81619 0.3959 0.0
O151 O 0.10279 0.8438 0.38311 0.0
N152 N 0.01835 0.84203 0.35367 0.0
C153 C 0.99339 0.87873 0.31914 0.0
C154 C 0.98494 0.84196 0.32185 0.0
C155 C 0.99767 0.82402 0.33935 0.0
C156 C 0.02707 0.87774 0.35109 0.0
C157 C 0.01426 0.89686 0.33408 0.0
H158 H 0.99253 0.79532 0.34077 0.0
H159 H 0.04484 0.89121 0.36207 0.0
H160 H 0.04943 0.7324 0.36281 0.0
H161 H 0.10315 0.77678 0.31152 0.0
H162 H 0.9548 0.90341 0.41054 0.0
H163 H 0.96911 0.82717 0.31042 0.0
H164 H 0.0217 0.92515 0.33221 0.0
C165 C 0.28171 0.58526 0.84856 0.0
C166 C 0.30679 0.58727 0.83283 0.0
N167 N 0.3331 0.56238 0.83624 0.0
N168 N 0.29204 0.55921 0.86185 0.0
C169 C 0.32393 0.54667 0.85435 0.0
H170 H 0.25599 0.59952 0.84927 0.0
Co171 Co 0.26234 0.53921 0.88206 0.0
C172 C 0.30847 0.48292 0.90186 0.0
O173 O 0.30696 0.50013 0.91971 0.0
N174 N 0.23221 0.51875 0.90225 0.0
C175 C 0.19987 0.47806 0.91979 0.0
C176 C 0.22434 0.48294 0.90405 0.0
C177 C 0.21149 0.5351 0.9168 0.0
N178 N 0.19216 0.51089 0.92774 0.0
O179 O 0.28619 0.56944 0.90222 0.0
H180 H 0.23449 0.46177 0.89392 0.0
H181 H 0.20912 0.56415 0.9189 0.0
O182 O 0.29523 0.49802 0.88578 0.0
C183 C 0.2678 0.59894 0.90211 0.0
O184 O 0.23832 0.60043 0.89059 0.0
N185 N 0.23713 0.51368 0.86157 0.0
C186 C 0.19709 0.48815 0.82783 0.0
C187 C 0.23391 0.47865 0.83027 0.0
C188 C 0.25344 0.49162 0.8473 0.0
C189 C 0.20136 0.52282 0.85967 0.0
C190 C 0.18066 0.50985 0.84313 0.0
H191 H 0.28211 0.48555 0.84832 0.0
H192 H 0.18906 0.54116 0.87078 0.0
H193 H 0.33854 0.52431 0.86118 0.0
H194 H 0.30369 0.60331 0.81897 0.0
H195 H 0.18698 0.45279 0.92421 0.0
H196 H 0.24813 0.46275 0.81868 0.0
H197 H 0.15224 0.51747 0.84217 0.0
C198 C 0.48548 0.79364 0.35474 0.0
C199 C 0.48376 0.81994 0.33975 0.0
N200 N 0.51678 0.83567 0.33836 0.0
N201 N 0.5194 0.79281 0.3628 0.0
C202 C 0.53765 0.81892 0.35256 0.0
H203 H 0.46382 0.77496 0.35854 0.0
Co204 Co 0.53782 0.75751 0.38054 0.0
C205 C 0.59358 0.81772 0.39422 0.0
O206 O 0.57501 0.84819 0.39356 0.0
N207 N 0.55711 0.72193 0.39821 0.0
C208 C 0.59765 0.68505 0.41282 0.0
C209 C 0.59195 0.70999 0.39752 0.0
C210 C 0.5422 0.70354 0.41413 0.0
N211 N 0.56628 0.68105 0.4232 0.0
O212 O 0.5058 0.77552 0.4019 0.0
H213 H 0.61232 0.71902 0.38665 0.0
H214 H 0.51443 0.70655 0.41929 0.0
O215 O 0.57847 0.78769 0.38927 0.0
C216 C 0.47728 0.7558 0.39983 0.0
O217 O 0.47869 0.72814 0.38686 0.0
N218 N 0.56445 0.73807 0.35869 0.0
C219 C 0.59046 0.70502 0.32282 0.0
C220 C 0.6076 0.7362 0.33095 0.0
C221 C 0.59433 0.75223 0.34911 0.0
C222 C 0.54822 0.70736 0.35139 0.0
C223 C 0.56105 0.69009 0.33369 0.0
H224 H 0.60752 0.77636 0.35503 0.0
H225 H 0.52469 0.69651 0.35929 0.0
H226 H 0.5665 0.82367 0.35421 0.0
H227 H 0.46056 0.82574 0.32998 0.0
H228 H 0.62267 0.67039 0.41575 0.0
H229 H 0.63029 0.7488 0.32309 0.0
H230 H 0.54765 0.66545 0.32849 0.0
C231 C 0.31648 0.99737 0.84161 0.0
C232 C 0.2934 0.99224 0.82511 0.0
N233 N 0.26341 0.01262 0.82826 0.0
N234 N 0.30115 0.02083 0.85512 0.0
C235 C 0.26864 0.02922 0.84668 0.0
H236 H 0.34377 0.98662 0.84293 0.0
Co237 Co 0.32511 0.04124 0.87781 0.0
C238 C 0.25825 0.09599 0.88732 0.0
O239 O 0.22475 0.08374 0.88592 0.0
N240 N 0.34926 0.06159 0.90033 0.0
C241 C 0.37582 0.10236 0.92089 0.0
C242 C 0.35258 0.09746 0.90448 0.0
C243 C 0.37134 0.04527 0.91408 0.0
N244 N 0.38756 0.06944 0.92676 0.0
O245 O 0.3048 0.00348 0.89488 0.0
H246 H 0.34155 0.1188 0.89496 0.0
H247 H 0.37754 0.01658 0.91407 0.0
O248 O 0.28481 0.07446 0.88357 0.0
C249 C 0.32688 0.97691 0.89243 0.0
O250 O 0.35698 0.98304 0.88199 0.0
N251 N 0.34782 0.07411 0.86019 0.0
C252 C 0.38696 0.09826 0.82597 0.0
C253 C 0.34945 0.10569 0.82796 0.0
C254 C 0.33042 0.09392 0.84544 0.0
C255 C 0.38449 0.06889 0.85928 0.0
C256 C 0.40469 0.08161 0.84266 0.0
H257 H 0.30126 0.09767 0.84609 0.0
H258 H 0.39789 0.05242 0.8708 0.0
H259 H 0.2507 0.04986 0.85278 0.0
H260 H 0.29931 0.97663 0.81127 0.0
H261 H 0.386 0.12807 0.92676 0.0
H262 H 0.33423 0.11822 0.81563 0.0
H263 H 0.43371 0.07656 0.8425 0.0
H264 H 0.98717 0.96491 0.41501 0.0
H265 H 0.99589 0.01336 0.44078 0.0
H266 H 0.05997 0.94062 0.47813 0.0
H267 H 0.052 0.89226 0.452 0.0
H268 H 0.99557 0.97928 0.49767 0.0
H269 H 0.10586 0.99827 0.45906 0.0
H270 H 0.14214 0.00797 0.42751 0.0
H271 H 0.08361 0.10666 0.41557 0.0
H272 H 0.04656 0.09723 0.44693 0.0
H273 H 0.07217 0.09415 0.57328 0.0
H274 H 0.06278 0.05074 0.54501 0.0
H275 H 0.01143 0.13441 0.50876 0.0
H276 H 0.0208 0.17816 0.53723 0.0
H277 H 0.06676 0.09254 0.48747 0.0
H278 H 0.9581 0.07556 0.5264 0.0
H279 H 0.92135 0.06651 0.55783 0.0
H280 H 0.97517 0.96481 0.56871 0.0
H281 H 0.01267 0.97352 0.53748 0.0
C282 C 0.00327 0.95947 0.42869 0.0
C283 C 0.01879 0.92507 0.43174 0.0
C284 C 0.00835 0.98706 0.44326 0.0
C285 C 0.02851 0.98033 0.46122 0.0
C286 C 0.04438 0.9461 0.46426 0.0
C287 C 0.03996 0.91871 0.44942 0.0
C288 C 0.03126 0.00863 0.47731 0.0
C289 C 0.01149 0.00385 0.4956 0.0
C290 C 0.05099 0.04107 0.47409 0.0
C291 C 0.0731 0.04678 0.4552 0.0
C292 C 0.10042 0.02181 0.44958 0.0
C293 C 0.1212 0.02732 0.43177 0.0
C294 C 0.11509 0.05785 0.4195 0.0
C295 C 0.08825 0.08298 0.42507 0.0
C296 C 0.06737 0.07758 0.44287 0.0
C297 C 0.05883 0.10321 0.55929 0.0
C298 C 0.04717 0.13934 0.55735 0.0
C299 C 0.05338 0.07846 0.54323 0.0
C300 C 0.03637 0.08949 0.52491 0.0
C301 C 0.02459 0.12555 0.52286 0.0
C302 C 0.02964 0.1503 0.5391 0.0
C303 C 0.03144 0.06297 0.50798 0.0
C304 C 0.05067 0.06807 0.48949 0.0
C305 C 0.01102 0.03086 0.51094 0.0
C306 C 0.98843 0.02535 0.52969 0.0
C307 C 0.96233 0.05141 0.53559 0.0
C308 C 0.94131 0.04631 0.55335 0.0
C309 C 0.94598 0.01514 0.56529 0.0
C310 C 0.97161 0.98896 0.55946 0.0
C311 C 0.99273 0.99394 0.54171 0.0
H312 H 0.92968 0.01124 0.57904 0.0
H313 H 0.13123 0.06208 0.40572 0.0
H314 H 0.95346 0.51789 0.06811 0.0
H315 H 0.00251 0.5082 0.0428 0.0
H316 H 0.94287 0.57086 -0.00208 0.0
H317 H 0.89455 0.58185 0.02364 0.0
H318 H 0.98702 0.49103 0.9881 0.0
H319 H 0.99138 0.62025 0.00817 0.0
H320 H 0.98827 0.66884 0.03456 0.0
H321 H 0.07723 0.62017 0.06746 0.0
H322 H 0.08025 0.57079 0.04144 0.0
H323 H 0.12675 0.53521 0.91662 0.0
H324 H 0.07365 0.54334 0.93936 0.0
H325 H 0.13893 0.51222 0.9919 0.0
H326 H 0.19179 0.50329 0.9689 0.0
H327 H 0.09082 0.5764 -0.00262 0.0
H328 H 0.09098 0.45112 0.97583 0.0
H329 H 0.09455 0.4015 0.95011 0.0
H330 H 0.99795 0.44119 0.92037 0.0
H331 H 0.99419 0.4915 0.94574 0.0
C332 C 0.95075 0.52889 0.05269 0.0
C333 C 0.92077 0.55058 0.04759 0.0
C334 C 0.97851 0.5234 0.03834 0.0
C335 C 0.97601 0.53892 0.01866 0.0
C336 C 0.94499 0.55875 0.0131 0.0
C337 C 0.91768 0.56507 0.02767 0.0
C338 C 0.00759 0.5375 0.00481 0.0
C339 C 0.00951 0.50996 0.98983 0.0
C340 C 0.03702 0.56177 0.00759 0.0
C341 C 0.03565 0.59159 0.02307 0.0
C342 C 0.00995 0.61968 0.02117 0.0
C343 C 0.00826 0.64739 0.03603 0.0
C344 C 0.03245 0.64751 0.05273 0.0
C345 C 0.05844 0.61997 0.05456 0.0
C346 C 0.06014 0.59211 0.03977 0.0
C347 C 0.12953 0.53064 0.93308 0.0
C348 C 0.16272 0.51884 0.9413 0.0
C349 C 0.09949 0.53516 0.94596 0.0
C350 C 0.10263 0.52823 0.96718 0.0
C351 C 0.13626 0.51772 0.97553 0.0
C352 C 0.16617 0.51261 0.96254 0.0
C353 C 0.07019 0.53016 0.98041 0.0
C354 C 0.06823 0.55765 -0.00456 0.0
C355 C 0.04074 0.50582 0.97762 0.0
C356 C 0.04253 0.4753 0.96254 0.0
C357 C 0.07068 0.44946 0.9637 0.0
C358 C 0.07271 0.42118 0.9492 0.0
C359 C 0.04655 0.41825 0.93358 0.0
C360 C 0.01823 0.44353 0.93247 0.0
C361 C 0.01612 0.47193 0.94691 0.0
H362 H 0.04816 0.39634 0.92236 0.0
H363 H 0.03112 0.66901 0.06421 0.0
H364 H 0.57276 0.43228 0.55916 0.0
H365 H 0.58208 0.48109 0.53439 0.0
H366 H 0.47335 0.465 0.5107 0.0
H367 H 0.46413 0.41527 0.53511 0.0
H368 H 0.52495 0.47785 0.47983 0.0
H369 H 0.48579 0.53003 0.54443 0.0
H370 H 0.48829 0.53874 0.58225 0.0
H371 H 0.59704 0.5808 0.57734 0.0
H372 H 0.59537 0.57183 0.53948 0.0
H373 H 0.50313 0.646 0.43071 0.0
H374 H 0.49322 0.59814 0.45612 0.0
H375 H 0.60376 0.61047 0.47771 0.0
H376 H 0.61375 0.6588 0.45243 0.0
H377 H 0.55088 0.5999 0.50975 0.0
H378 H 0.59045 0.54697 0.44537 0.0
H379 H 0.58835 0.53807 0.40756 0.0
H380 H 0.47906 0.49727 0.4121 0.0
H381 H 0.48033 0.50649 0.44996 0.0
C382 C 0.55109 0.43856 0.54842 0.0
C383 C 0.51757 0.42018 0.5492 0.0
C384 C 0.55637 0.46662 0.5344 0.0
C385 C 0.52818 0.47684 0.52103 0.0
C386 C 0.4953 0.45751 0.52104 0.0
C387 C 0.48998 0.42941 0.53509 0.0
C388 C 0.5324 0.50902 0.50784 0.0
C389 C 0.53016 0.50461 0.48634 0.0
C390 C 0.53979 0.5437 0.51646 0.0
C391 C 0.54056 0.54999 0.53915 0.0
C392 C 0.51031 0.54096 0.55143 0.0
C393 C 0.51156 0.54595 0.57287 0.0
C394 C 0.54283 0.56024 0.5822 0.0
C395 C 0.57285 0.56971 0.57009 0.0
C396 C 0.57175 0.56472 0.54864 0.0
C397 C 0.52505 0.63907 0.44116 0.0
C398 C 0.55931 0.65578 0.43951 0.0
C399 C 0.51942 0.61166 0.45556 0.0
C400 C 0.54792 0.6007 0.46852 0.0
C401 C 0.58155 0.61863 0.46773 0.0
C402 C 0.58728 0.64589 0.45321 0.0
C403 C 0.5434 0.56868 0.48177 0.0
C404 C 0.5456 0.57313 0.50326 0.0
C405 C 0.53599 0.53404 0.47315 0.0
C406 C 0.53537 0.52774 0.45046 0.0
C407 C 0.56588 0.53633 0.43829 0.0
C408 C 0.56485 0.5312 0.41686 0.0
C409 C 0.53355 0.5172 0.40743 0.0
C410 C 0.50327 0.50816 0.41943 0.0
C411 C 0.50414 0.5133 0.44088 0.0
H412 H 0.53279 0.51327 0.39083 0.0
H413 H 0.54377 0.56404 0.59881 0.0
H414 H 0.44933 0.03697 0.91492 0.0
H415 H 0.50552 0.03232 0.93514 0.0
H416 H 0.45099 0.08184 0.98743 0.0
H417 H 0.39554 0.0884 0.96655 0.0
H418 H 0.51218 0.11274 0.98248 0.0
H419 H 0.47443 0.98723 0.98387 0.0
H420 H 0.45591 0.92806 0.96908 0.0
H421 H 0.55727 0.92085 0.93622 0.0
H422 H 0.57621 0.9802 0.95065 0.0
H423 H 0.6063 0.05624 0.06905 0.0
H424 H 0.56624 0.06841 0.03994 0.0
H425 H 0.65142 0.03649 -0.00246 0.0
H426 H 0.69188 0.02377 0.02722 0.0
H427 H 0.58509 1.00048 0.99143 0.0
H428 H 0.62432 0.12471 -0.00204 0.0
H429 H 0.63948 0.18075 0.0173 0.0
H430 H 0.53003 0.18657 0.04041 0.0
H431 H 0.51429 0.13044 0.02139 0.0
C432 C 0.44949 0.04626 0.93085 0.0
C433 C 0.41858 0.06281 0.93943 0.0
C434 C 0.48141 0.04355 0.94239 0.0
C435 C 0.48239 0.05643 0.96286 0.0
C436 C 0.4509 0.0719 0.97162 0.0
C437 C 0.4193 0.07547 0.95986 0.0
C438 C 0.51664 0.05575 0.97486 0.0
C439 C 0.52797 0.0881 0.98452 0.0
C440 C 0.538 0.02394 0.9769 0.0
C441 C 0.52654 0.98836 0.96813 0.0
C442 C 0.49263 0.97317 0.97335 0.0
C443 C 0.48209 0.93957 0.96507 0.0
C444 C 0.50535 0.92077 0.95166 0.0
C445 C 0.53924 0.93548 0.94657 0.0
C446 C 0.54991 0.96908 0.9548 0.0
C447 C 0.61657 0.05236 0.05349 0.0
C448 C 0.65175 0.03886 0.05017 0.0
C449 C 0.5939 0.05962 0.0369 0.0
C450 C 0.60608 0.05377 0.01663 0.0
C451 C 0.64179 0.04143 0.01314 0.0
C452 C 0.66476 0.03431 0.02993 0.0
C453 C 0.57959 0.05704 -0.00036 0.0
C454 C 0.56973 0.02526 0.98893 0.0
C455 C 0.55893 0.08908 -0.0029 0.0
C456 C 0.56814 0.12336 0.0082 0.0
C457 C 0.60351 0.13791 0.00719 0.0
C458 C 0.6122 0.1697 0.0181 0.0
C459 C 0.58573 0.18722 0.03006 0.0
C460 C 0.55048 0.17304 0.0311 0.0
C461 C 0.54163 0.1413 0.0202 0.0
H462 H 0.59254 0.21177 0.03853 0.0
H463 H 0.49715 0.89475 0.94527 0.0
H464 H 0.27323 0.01587 0.78684 0.0
H465 H 0.23343 0.04586 0.76215 0.0
H466 H 0.15432 0.06523 0.81021 0.0
H467 H 0.19414 0.03471 0.8352 0.0
H468 H 0.12531 0.04674 0.76776 0.0
H469 H 0.2031 0.13014 0.80412 0.0
H470 H 0.25998 0.15562 0.81847 0.0
H471 H 0.30685 0.15795 0.75767 0.0
H472 H 0.25047 0.13188 0.74299 0.0
H473 H 0.04879 0.19096 0.70603 0.0
H474 H 0.07152 0.15574 0.73539 0.0
H475 H 0.17324 0.13874 0.70336 0.0
H476 H 0.1508 0.1738 0.67411 0.0
H477 H 0.18397 0.1596 0.74243 0.0
H478 H 0.10715 0.07214 0.70643 0.0
H479 H 0.04911 0.04983 0.69189 0.0
H480 H 0.99949 0.05662 0.75191 0.0
H481 H 0.05714 0.07943 0.76676 0.0
C482 C 0.2469 0.02532 0.79209 0.0
C483 C 0.23696 0.02325 0.81304 0.0
C484 C 0.22428 0.04266 0.77797 0.0
C485 C 0.19132 0.05808 0.7845 0.0
C486 C 0.17979 0.05352 0.80497 0.0
C487 C 0.20259 0.03632 0.8192 0.0
C488 C 0.17155 0.08248 0.77044 0.0
C489 C 0.13771 0.07175 0.76241 0.0
C490 C 0.18799 0.11494 0.76354 0.0
C491 C 0.2226 0.12888 0.77247 0.0
C492 C 0.2257 0.13559 0.79384 0.0
C493 C 0.25778 0.15029 0.80203 0.0
C494 C 0.28684 0.15863 0.78895 0.0
C495 C 0.2842 0.15166 0.76774 0.0
C496 C 0.2522 0.13692 0.75949 0.0
C497 C 0.07596 0.17959 0.70528 0.0
C498 C 0.09813 0.18521 0.68785 0.0
C499 C 0.08883 0.15944 0.72201 0.0
C500 C 0.1239 0.14438 0.72143 0.0
C501 C 0.1461 0.15022 0.7041 0.0
C502 C 0.13336 0.17044 0.68747 0.0
C503 C 0.13835 0.12325 0.73898 0.0
C504 C 0.17124 0.13479 0.74784 0.0
C505 C 0.12092 0.09169 0.74658 0.0
C506 C 0.08633 0.07788 0.73766 0.0
C507 C 0.08378 0.06916 0.71649 0.0
C508 C 0.05097 0.05637 0.7082 0.0
C509 C 0.0206 0.05192 0.72095 0.0
C510 C 0.02301 0.06015 0.74204 0.0
C511 C 0.05575 0.07298 0.75041 0.0
H512 H 0.99523 0.042 0.7145 0.0
H513 H 0.31133 0.17068 0.79524 0.0
H514 H 0.02006 0.6948 0.33935 0.0
H515 H 0.99183 0.65883 0.31213 0.0
H516 H 0.08224 0.68192 0.27179 0.0
H517 H 0.11068 0.71836 0.299 0.0
H518 H 0.01686 0.7064 0.25663 0.0
H519 H 0.06265 0.59523 0.28699 0.0
H520 H 0.07146 0.55184 0.31547 0.0
H521 H 0.95563 0.53962 0.32139 0.0
H522 H 0.94611 0.5833 0.29311 0.0
H523 H 0.96139 0.61316 0.16697 0.0
H524 H 0.99486 0.6316 0.19806 0.0
H525 H 0.90135 0.60605 0.23563 0.0
H526 H 0.86778 0.58723 0.20456 0.0
H527 H 0.9657 0.58169 0.2531 0.0
H528 H 0.91648 0.69046 0.22678 0.0
H529 H 0.90094 0.7368 0.20088 0.0
H530 H 0.01456 0.75777 0.19071 0.0
H531 H 0.03082 0.71107 0.21635 0.0
C532 C 0.03456 0.69169 0.32497 0.0
C533 C 0.06687 0.71121 0.32112 0.0
C534 C 0.01834 0.67079 0.30936 0.0
C535 C 0.03455 0.66836 0.28978 0.0
C536 C 0.06895 0.68401 0.28671 0.0
C537 C 0.08513 0.70493 0.30229 0.0
C538 C 0.0135 0.6545 0.27181 0.0
C539 C 0.0064 0.67884 0.25566 0.0
C540 C 0.99792 0.61932 0.27118 0.0
C541 C 0.00368 0.59276 0.28803 0.0
C542 C 0.03905 0.58349 0.29445 0.0
C543 C 0.04417 0.5588 0.31055 0.0
C544 C 0.01412 0.54304 0.32026 0.0
C545 C 0.97888 0.55186 0.31386 0.0
C546 C 0.97361 0.57654 0.29778 0.0
C547 C 0.94807 0.61129 0.18187 0.0
C548 C 0.91196 0.59901 0.18336 0.0
C549 C 0.96713 0.62192 0.19959 0.0
C550 C 0.95048 0.62032 0.21911 0.0
C551 C 0.91465 0.60745 0.22071 0.0
C552 C 0.89544 0.59708 0.20295 0.0
C553 C 0.97035 0.63322 0.23769 0.0
C554 C 0.97668 0.60903 0.25401 0.0
C555 C 0.98441 0.66893 0.23885 0.0
C556 C 0.97488 0.69693 0.22331 0.0
C557 C 0.93818 0.70466 0.21886 0.0
C558 C 0.92923 0.73106 0.20426 0.0
C559 C 0.95675 0.75014 0.1941 0.0
C560 C 0.99328 0.74291 0.19856 0.0
C561 C 0.00238 0.71649 0.21314 0.0
H562 H 0.94977 0.77059 0.18281 0.0
H563 H 0.01815 0.52396 0.33273 0.0
H564 H 0.36597 0.49564 0.83577 0.0
H565 H 0.39809 0.46798 0.80712 0.0
H566 H 0.38937 0.56741 0.77258 0.0
H567 H 0.35777 0.5962 0.80161 0.0
H568 H 0.35988 0.50768 0.75232 0.0
H569 H 0.47136 0.53837 0.78682 0.0
H570 H 0.51459 0.54174 0.81596 0.0
H571 H 0.51707 0.42523 0.81916 0.0
H572 H 0.47345 0.42114 0.7902 0.0
H573 H 0.46052 0.44666 0.66529 0.0
H574 H 0.43935 0.47988 0.6959 0.0
H575 H 0.44483 0.38142 0.73166 0.0
H576 H 0.46615 0.34798 0.70097 0.0
H577 H 0.47774 0.44176 0.75119 0.0
H578 H 0.36595 0.41007 0.71819 0.0
H579 H 0.32292 0.40483 0.68906 0.0
H580 H 0.3194 0.52109 0.68398 0.0
H581 H 0.36323 0.52702 0.71275 0.0
C582 C 0.37163 0.51238 0.8225 0.0
C583 C 0.35836 0.54825 0.82103 0.0
C584 C 0.39012 0.49626 0.806 0.0
C585 C 0.39585 0.51555 0.7877 0.0
C586 C 0.38491 0.552 0.78658 0.0
C587 C 0.36666 0.56833 0.80317 0.0
C588 C 0.40931 0.49627 0.76908 0.0
C589 C 0.386 0.49391 0.7519 0.0
C590 C 0.4427 0.47711 0.76894 0.0
C591 C 0.46885 0.47947 0.78643 0.0
C592 C 0.48084 0.51347 0.79385 0.0
C593 C 0.50549 0.5155 0.81031 0.0
C594 C 0.5185 0.48372 0.81944 0.0
C595 C 0.50694 0.44983 0.81209 0.0
C596 C 0.48229 0.44764 0.79563 0.0
C597 C 0.45701 0.43212 0.67967 0.0
C598 C 0.46493 0.39486 0.68086 0.0
C599 C 0.44491 0.45105 0.69709 0.0
C600 C 0.44062 0.43305 0.71599 0.0
C601 C 0.44812 0.39573 0.71719 0.0
C602 C 0.45991 0.37665 0.69967 0.0
C603 C 0.42843 0.4535 0.73446 0.0
C604 C 0.45179 0.45585 0.7516 0.0
C605 C 0.39492 0.47239 0.73468 0.0
C606 C 0.36824 0.46898 0.71749 0.0
C607 C 0.35633 0.43453 0.71072 0.0
C608 C 0.33181 0.43142 0.69426 0.0
C609 C 0.31853 0.46261 0.68462 0.0
C610 C 0.32979 0.49695 0.69142 0.0
C611 C 0.35452 0.5002 0.70779 0.0
H612 H 0.2994 0.46016 0.67194 0.0
H613 H 0.53759 0.48536 0.83218 0.0
H614 H 0.57266 0.88326 0.34116 0.0
H615 H 0.60158 0.9153 0.3126 0.0
H616 H 0.51948 0.87421 0.27075 0.0
H617 H 0.49124 0.84096 0.29911 0.0
H618 H 0.58631 0.86184 0.25611 0.0
H619 H 0.52248 0.96442 0.28439 0.0
H620 H 0.50275 0.00698 0.31179 0.0
H621 H 0.61386 0.03825 0.32261 0.0
H622 H 0.63432 0.99553 0.29545 0.0
H623 H 0.63269 0.97039 0.16986 0.0
H624 H 0.59953 0.94672 0.19983 0.0
H625 H 0.6922 0.96993 0.23886 0.0
H626 H 0.72555 0.99343 0.20874 0.0
H627 H 0.62052 0.99236 0.25487 0.0
H628 H 0.68373 0.8907 0.2255 0.0
H629 H 0.70256 0.84986 0.19713 0.0
H630 H 0.59155 0.81656 0.18817 0.0
H631 H 0.57182 0.85814 0.21606 0.0
C632 C 0.56059 0.88132 0.32591 0.0
C633 C 0.52986 0.85933 0.32237 0.0
C634 C 0.57696 0.89989 0.30964 0.0
C635 C 0.56262 0.89716 0.28957 0.0
C636 C 0.53097 0.8766 0.28615 0.0
C637 C 0.51464 0.85792 0.30241 0.0
C638 C 0.58224 0.91348 0.27195 0.0
C639 C 0.59324 0.8905 0.25568 0.0
C640 C 0.5922 0.95064 0.27173 0.0
C641 C 0.57995 0.97652 0.288 0.0
C642 C 0.54273 0.98017 0.29272 0.0
C643 C 0.53141 0.00436 0.30818 0.0
C644 C 0.55704 0.02524 0.31897 0.0
C645 C 0.59404 0.02204 0.31426 0.0
C646 C 0.60551 0.99788 0.29881 0.0
C647 C 0.64583 0.97033 0.18487 0.0
C648 C 0.6816 0.98309 0.18718 0.0
C649 C 0.62698 0.95697 0.20189 0.0
C650 C 0.64359 0.95659 0.22142 0.0
C651 C 0.67907 0.97013 0.22385 0.0
C652 C 0.69812 0.98312 0.20673 0.0
C653 C 0.62413 0.94077 0.23911 0.0
C654 C 0.61336 0.96375 0.25535 0.0
C655 C 0.61429 0.90363 0.23928 0.0
C656 C 0.62619 0.87802 0.22272 0.0
C657 C 0.66321 0.87511 0.21729 0.0
C658 C 0.67407 0.85182 0.20127 0.0
C659 C 0.64824 0.83079 0.19076 0.0
C660 C 0.61151 0.83299 0.19627 0.0
C661 C 0.60046 0.85646 0.21217 0.0
H662 H 0.65673 0.8126 0.17845 0.0
H663 H 0.54822 0.04394 0.33094 0.0
H664 H 0.00645 0.85967 0.27914 0.0
H665 H 0.98653 0.89202 0.24794 0.0
H666 H 0.93336 0.97256 0.28611 0.0
H667 H 0.95403 0.94093 0.31731 0.0
H668 H 0.89187 0.92809 0.25055 0.0
H669 H 0.9952 0.00582 0.2689 0.0
H670 H 0.06004 0.01721 0.27648 0.0
H671 H 0.08959 0.97347 0.21708 0.0
H672 H 0.02488 0.96123 0.20931 0.0
H673 H 0.82864 0.07174 0.19207 0.0
H674 H 0.86242 0.03833 0.21821 0.0
H675 H 0.92691 0.98707 0.17053 0.0
H676 H 0.89275 0.02069 0.14403 0.0
H677 H 0.96682 0.01072 0.20754 0.0
H678 H 0.86655 0.9381 0.18689 0.0
H679 H 0.80345 0.92099 0.17825 0.0
H680 H 0.76931 0.9489 0.23983 0.0
H681 H 0.83222 0.96674 0.24879 0.0
C682 C 0.99062 0.88437 0.28077 0.0
C683 C 0.98152 0.89794 0.30045 0.0
C684 C 0.97955 0.90283 0.26306 0.0
C685 C 0.95885 0.93464 0.26492 0.0
C686 C 0.94963 0.94814 0.28454 0.0
C687 C 0.96132 0.93014 0.30224 0.0
C688 C 0.94454 0.95259 0.2464 0.0
C689 C 0.90805 0.94642 0.24121 0.0
C690 C 0.96641 0.97509 0.23389 0.0
C691 C 0.00528 0.98204 0.23868 0.0
C692 C 0.01556 0.99811 0.25759 0.0
C693 C 0.05228 0.00486 0.26188 0.0
C694 C 0.07894 0.99591 0.24731 0.0
C695 C 0.06892 0.98027 0.22839 0.0
C696 C 0.03224 0.97342 0.22403 0.0
C697 C 0.85064 0.05416 0.18713 0.0
C698 C 0.85829 0.04885 0.16604 0.0
C699 C 0.86965 0.03484 0.20207 0.0
C700 C 0.89674 0.01008 0.19619 0.0
C701 C 0.90592 0.00607 0.17525 0.0
C702 C 0.8865 0.02513 0.16022 0.0
C703 C 0.9137 0.98717 0.21207 0.0
C704 C 0.95065 0.99218 0.21675 0.0
C705 C 0.89239 0.96309 0.22399 0.0
C706 C 0.85412 0.95407 0.21846 0.0
C707 C 0.84553 0.94112 0.19852 0.0
C708 C 0.80981 0.93113 0.19359 0.0
C709 C 0.78242 0.93376 0.20851 0.0
C710 C 0.79061 0.94678 0.22832 0.0
C711 C 0.8263 0.95684 0.23333 0.0
H712 H 0.75487 0.92558 0.20473 0.0
H713 H 0.10735 0.00122 0.25065 0.0
H714 H 0.20297 0.42463 0.8055 0.0
H715 H 0.17222 0.40883 0.77316 0.0
H716 H 0.11289 0.50978 0.77532 0.0
H717 H 0.14499 0.52709 0.80697 0.0
H718 H 0.07226 0.43514 0.7674 0.0
H719 H 0.16805 0.51606 0.74345 0.0
H720 H 0.23187 0.537 0.74239 0.0
H721 H 0.2656 0.43231 0.7198 0.0
H722 H 0.20203 0.41071 0.72085 0.0
H723 H 0.99968 0.40191 0.66664 0.0
H724 H 0.02595 0.43543 0.69601 0.0
H725 H 0.12069 0.36619 0.69403 0.0
H726 H 0.09484 0.33269 0.6652 0.0
H727 H 0.14063 0.43429 0.70118 0.0
H728 H 0.05282 0.34989 0.72765 0.0
H729 H 0.99245 0.32117 0.73106 0.0
H730 H 0.94689 0.42289 0.75118 0.0
H731 H 0.00699 0.45234 0.74761 0.0
C732 C 0.18374 0.44376 0.79905 0.0
C733 C 0.17664 0.47722 0.80892 0.0
C734 C 0.16602 0.43452 0.78066 0.0
C735 C 0.1405 0.45825 0.77198 0.0
C736 C 0.13249 0.49116 0.78193 0.0
C737 C 0.15069 0.50078 0.80013 0.0
C738 C 0.12265 0.4486 0.7523 0.0
C739 C 0.08676 0.43573 0.75278 0.0
C740 C 0.14221 0.44847 0.73351 0.0
C741 C 0.18033 0.4617 0.73239 0.0
C742 C 0.18912 0.49746 0.73836 0.0
C743 C 0.22524 0.50948 0.73771 0.0
C744 C 0.2528 0.486 0.73104 0.0
C745 C 0.24425 0.45052 0.7249 0.0
C746 C 0.20817 0.43839 0.72548 0.0
C747 C 0.02618 0.39404 0.67242 0.0
C748 C 0.04508 0.36465 0.66348 0.0
C749 C 0.04117 0.41322 0.68914 0.0
C750 C 0.07519 0.40313 0.69724 0.0
C751 C 0.09456 0.37465 0.68791 0.0
C752 C 0.07968 0.35556 0.67129 0.0
C753 C 0.09005 0.42049 0.71616 0.0
C754 C 0.12558 0.4346 0.71562 0.0
C755 C 0.07042 0.42094 0.73501 0.0
C756 C 0.03424 0.40343 0.73707 0.0
C757 C 0.02985 0.36621 0.7326 0.0
C758 C 0.99571 0.34978 0.7346 0.0
C759 C 0.96582 0.37023 0.74126 0.0
C760 C 0.97005 0.40712 0.74597 0.0
C761 C 0.00414 0.4237 0.74396 0.0
H762 H 0.93941 0.35745 0.74282 0.0
H763 H 0.28076 0.49529 0.73065 0.0
H764 H 0.66002 0.69942 0.30741 0.0
H765 H 0.67908 0.67074 0.275 0.0
H766 H 0.56763 0.64266 0.26128 0.0
H767 H 0.54786 0.67299 0.29298 0.0
H768 H 0.62069 0.58352 0.25851 0.0
H769 H 0.59765 0.70311 0.23406 0.0
H770 H 0.60155 0.76993 0.23629 0.0
H771 H 0.71758 0.76457 0.22886 0.0
H772 H 0.71454 0.69762 0.22702 0.0
H773 H 0.68052 0.51425 0.15977 0.0
H774 H 0.64373 0.5493 0.18488 0.0
H775 H 0.74163 0.60046 0.20802 0.0
H776 H 0.77792 0.5653 0.18314 0.0
H777 H 0.68438 0.64947 0.20237 0.0
H778 H 0.70832 0.53211 0.23356 0.0
H779 H 0.70686 0.46511 0.23437 0.0
H780 H 0.59016 0.46681 0.22993 0.0
H781 H 0.59102 0.53389 0.22881 0.0
C782 C 0.63941 0.68779 0.29737 0.0
C783 C 0.6024 0.68834 0.30297 0.0
C784 C 0.6504 0.67122 0.27893 0.0
C785 C 0.62467 0.65464 0.26589 0.0
C786 C 0.5878 0.65518 0.27128 0.0
C787 C 0.57669 0.67228 0.28951 0.0
C788 C 0.63665 0.6359 0.24688 0.0
C789 C 0.63386 0.59793 0.24597 0.0
C790 C 0.65406 0.65492 0.23074 0.0
C791 C 0.65591 0.69526 0.2307 0.0
C792 C 0.62405 0.71614 0.23302 0.0
C793 C 0.62609 0.75403 0.23423 0.0
C794 C 0.65983 0.77139 0.23295 0.0
C795 C 0.69151 0.751 0.23 0.0
C796 C 0.68963 0.71307 0.22886 0.0
C797 C 0.6938 0.53287 0.1704 0.0
C798 C 0.73172 0.53689 0.17009 0.0
C799 C 0.673 0.55293 0.18454 0.0
C800 C 0.6901 0.57739 0.19824 0.0
C801 C 0.72799 0.58185 0.19751 0.0
C802 C 0.74866 0.5616 0.18358 0.0
C803 C 0.6692 0.597 0.21426 0.0
C804 C 0.67035 0.63514 0.21463 0.0
C805 C 0.65036 0.57817 0.22996 0.0
C806 C 0.64976 0.53793 0.23085 0.0
C807 C 0.68238 0.51817 0.2326 0.0
C808 C 0.68166 0.4802 0.23313 0.0
C809 C 0.64845 0.46171 0.23213 0.0
C810 C 0.61587 0.48117 0.23066 0.0
C811 C 0.61645 0.51916 0.23008 0.0
H812 H 0.64794 0.43231 0.23254 0.0
H813 H 0.66142 0.80064 0.23431 0.0
H814 H 0.44522 0.06039 0.8095 0.0
H815 H 0.47938 0.07362 0.77822 0.0
H816 H 0.40782 0.16358 0.76549 0.0
H817 H 0.3737 0.1509 0.79661 0.0
H818 H 0.42088 0.12346 0.73125 0.0
H819 H 0.49192 0.17661 0.78757 0.0
H820 H 0.52731 0.17508 0.82 0.0
H821 H 0.60127 0.09798 0.7929 0.0
H822 H 0.56602 0.09876 0.76037 0.0
H823 H 0.50137 0.25582 0.67293 0.0
H824 H 0.47617 0.2182 0.7002 0.0
H825 H 0.56879 0.1463 0.69577 0.0
H826 H 0.59485 0.18525 0.66854 0.0
H827 H 0.55082 0.16011 0.73537 0.0
H828 H 0.48566 0.11972 0.67592 0.0
H829 H 0.45183 0.12782 0.64331 0.0
H830 H 0.36688 0.18405 0.67599 0.0
H831 H 0.40039 0.17676 0.70876 0.0
C832 C 0.43701 0.08357 0.80041 0.0
C833 C 0.4072 0.10554 0.80636 0.0
C834 C 0.45649 0.09077 0.78234 0.0
C835 C 0.44649 0.1199 0.76973 0.0
C836 C 0.41614 0.14102 0.77509 0.0
C837 C 0.39669 0.13385 0.79312 0.0
C838 C 0.46774 0.12921 0.75106 0.0
C839 C 0.44931 0.1314 0.7321 0.0
C840 C 0.5052 0.13817 0.75206 0.0
C841 C 0.52604 0.13733 0.77168 0.0
C842 C 0.5155 0.15905 0.78862 0.0
C843 C 0.53559 0.15838 0.80699 0.0
C844 C 0.56644 0.13633 0.80854 0.0
C845 C 0.57731 0.11496 0.7917 0.0
C846 C 0.55729 0.1155 0.7733 0.0
C847 C 0.51619 0.23182 0.67767 0.0
C848 C 0.54964 0.22288 0.66851 0.0
C849 C 0.50176 0.21026 0.69317 0.0
C850 C 0.52002 0.17878 0.69953 0.0
C851 C 0.55405 0.17022 0.69083 0.0
C852 C 0.5689 0.19233 0.67541 0.0
C853 C 0.50345 0.15608 0.71581 0.0
C854 C 0.52273 0.15108 0.7343 0.0
C855 C 0.46669 0.14462 0.7144 0.0
C856 C 0.44561 0.14767 0.69483 0.0
C857 C 0.45977 0.13382 0.67617 0.0
C858 C 0.44066 0.13831 0.65764 0.0
C859 C 0.40724 0.15645 0.65758 0.0
C860 C 0.39275 0.16995 0.67606 0.0
C861 C 0.41174 0.16554 0.69463 0.0
H862 H 0.39258 0.16006 0.6432 0.0
H863 H 0.58198 0.1359 0.82277 0.0
H864 H 0.95068 0.32114 0.57622 0.0
H865 H 0.88673 0.33387 0.56743 0.0
H866 H 0.86216 0.21934 0.57136 0.0
H867 H 0.92561 0.20672 0.57915 0.0
H868 H 0.81895 0.24524 0.54514 0.0
H869 H 0.85491 0.27963 0.61337 0.0
H870 H 0.89077 0.31168 0.64011 0.0
H871 H 0.85321 0.41437 0.61724 0.0
H872 H 0.81769 0.38293 0.59006 0.0
H873 H 0.63471 0.25455 0.58511 0.0
H874 H 0.69947 0.24321 0.57786 0.0
H875 H 0.71495 0.35715 0.5651 0.0
H876 H 0.65083 0.36849 0.57269 0.0
H877 H 0.76251 0.33368 0.5936 0.0
H878 H 0.71971 0.28941 0.52638 0.0
H879 H 0.68158 0.24948 0.50448 0.0
H880 H 0.72947 0.15532 0.53243 0.0
H881 H 0.7676 0.19469 0.55464 0.0
C882 C 0.93187 0.29869 0.57423 0.0
C883 C 0.94295 0.26299 0.57843 0.0
C884 C 0.8952 0.30595 0.56955 0.0
C885 C 0.86922 0.27765 0.56933 0.0
C886 C 0.88133 0.24174 0.57154 0.0
C887 C 0.91773 0.23453 0.57601 0.0
C888 C 0.82923 0.28508 0.56907 0.0
C889 C 0.8067 0.26465 0.55574 0.0
C890 C 0.81284 0.30992 0.58311 0.0
C891 C 0.83407 0.32895 0.59947 0.0
C892 C 0.85455 0.30906 0.61392 0.0
C893 C 0.8748 0.32711 0.62917 0.0
C894 C 0.87438 0.36504 0.63033 0.0
C895 C 0.85362 0.38499 0.61627 0.0
C896 C 0.83345 0.36708 0.60092 0.0
C897 C 0.65171 0.27681 0.57998 0.0
C898 C 0.6378 0.31232 0.57929 0.0
C899 C 0.68878 0.27042 0.57598 0.0
C900 C 0.71222 0.2994 0.57097 0.0
C901 C 0.69758 0.33441 0.56903 0.0
C902 C 0.66085 0.3408 0.5732 0.0
C903 C 0.75242 0.29425 0.56948 0.0
C904 C 0.7749 0.31487 0.58269 0.0
C905 C 0.76858 0.26854 0.55598 0.0
C906 C 0.74637 0.24499 0.54221 0.0
C907 C 0.72202 0.26019 0.52788 0.0
C908 C 0.70042 0.23766 0.51542 0.0
C909 C 0.70307 0.19989 0.51708 0.0
C910 C 0.72745 0.18457 0.53115 0.0
C911 C 0.74911 0.20698 0.54364 0.0
H912 H 0.68627 0.1825 0.50745 0.0
H913 H 0.89005 0.37896 0.64215 0.0
H914 H 0.82331 0.44673 0.05247 0.0
H915 H 0.81309 0.38195 0.0445 0.0
H916 H 0.76223 0.36824 0.10401 0.0
H917 H 0.77148 0.4328 0.11169 0.0
H918 H 0.83656 0.32896 0.09136 0.0
H919 H 0.70924 0.34993 0.07662 0.0
H920 H 0.65729 0.37732 0.05829 0.0
H921 H 0.69648 0.33354 0.00073 0.0
H922 H 0.7491 0.30639 0.01875 0.0
H923 H 0.76201 0.1635 0.11708 0.0
H924 H 0.77863 0.22531 0.10893 0.0
H925 H 0.7943 0.19495 0.04498 0.0
H926 H 0.77796 0.13138 0.05339 0.0
H927 H 0.74675 0.25562 0.05173 0.0
H928 H 0.86761 0.2216 0.07178 0.0
H929 H 0.91391 0.19233 0.09374 0.0
H930 H 0.88205 0.25956 0.14514 0.0
H931 H 0.83527 0.28892 0.1236 0.0
C932 C 0.80803 0.43024 0.06325 0.0
C933 C 0.79729 0.4447 0.08244 0.0
C934 C 0.80256 0.39326 0.0588 0.0
C935 C 0.78685 0.37047 0.07367 0.0
C936 C 0.77398 0.38553 0.09225 0.0
C937 C 0.77894 0.42242 0.09654 0.0
C938 C 0.78941 0.33048 0.07161 0.0
C939 C 0.8171 0.31283 0.0826 0.0
C940 C 0.76442 0.30974 0.05987 0.0
C941 C 0.7335 0.32685 0.04894 0.0
C942 C 0.70716 0.34674 0.06 0.0
C943 C 0.67749 0.36204 0.04969 0.0
C944 C 0.6737 0.35737 0.02833 0.0
C945 C 0.69955 0.3373 0.01726 0.0
C946 C 0.72932 0.32197 0.02751 0.0
C947 C 0.76995 0.16951 0.10136 0.0
C948 C 0.76901 0.14257 0.08589 0.0
C949 C 0.77951 0.20501 0.09672 0.0
C950 C 0.78809 0.21475 0.07641 0.0
C951 C 0.78807 0.18782 0.06082 0.0
C952 C 0.77898 0.15164 0.0656 0.0
C953 C 0.7935 0.25386 0.07188 0.0
C954 C 0.7672 0.27161 0.0598 0.0
C955 C 0.81936 0.27478 0.08304 0.0
C956 C 0.84788 0.25748 0.09602 0.0
C957 C 0.87037 0.23006 0.08778 0.0
C958 C 0.89672 0.21345 0.10016 0.0
C959 C 0.90092 0.22408 0.12082 0.0
C960 C 0.87882 0.25139 0.12913 0.0
C961 C 0.85245 0.2681 0.11682 0.0
H962 H 0.92131 0.21116 0.13038 0.0
H963 H 0.65065 0.36916 0.02038 0.0
H964 H 0.42503 0.70771 0.40966 0.0
H965 H 0.36069 0.72021 0.41522 0.0
H966 H 0.38287 0.83528 0.41605 0.0
H967 H 0.44806 0.82282 0.40996 0.0
H968 H 0.32563 0.80658 0.44619 0.0
H969 H 0.35698 0.81049 0.37486 0.0
H970 H 0.38583 0.78987 0.34246 0.0
H971 H 0.32169 0.69227 0.34338 0.0
H972 H 0.29312 0.71187 0.37613 0.0
H973 H 0.14729 0.86243 0.41496 0.0
H974 H 0.21136 0.85178 0.42268 0.0
H975 H 0.19785 0.7382 0.4075 0.0
H976 H 0.13323 0.7491 0.39949 0.0
H977 H 0.25185 0.7687 0.38539 0.0
H978 H 0.21957 0.76797 0.45758 0.0
H979 H 0.19126 0.79183 0.48947 0.0
H980 H 0.25654 0.88842 0.48556 0.0
H981 H 0.28492 0.86534 0.4535 0.0
C982 C 0.41649 0.73573 0.41157 0.0
C983 C 0.44157 0.76433 0.40926 0.0
C984 C 0.37964 0.74278 0.4147 0.0
C985 C 0.36694 0.77861 0.41574 0.0
C986 C 0.39222 0.80739 0.41527 0.0
C987 C 0.42943 0.80028 0.41195 0.0
C988 C 0.32704 0.78521 0.41518 0.0
C989 C 0.30944 0.79884 0.43283 0.0
C990 C 0.30599 0.77452 0.39782 0.0
C991 C 0.32327 0.76243 0.37816 0.0
C992 C 0.34939 0.78438 0.36834 0.0
C993 C 0.36563 0.77292 0.34987 0.0
C994 C 0.35568 0.73972 0.3409 0.0
C995 C 0.32945 0.71793 0.35038 0.0
C996 C 0.31324 0.72919 0.36892 0.0
C997 C 0.15764 0.83488 0.41407 0.0
C998 C 0.13524 0.8065 0.40685 0.0
C999 C 0.19437 0.82882 0.41846 0.0
C1000 C 0.20963 0.79417 0.41572 0.0
C1001 C 0.18669 0.76517 0.40978 0.0
C1002 C 0.14967 0.77124 0.40549 0.0
C1003 C 0.24998 0.78948 0.41661 0.0
C1004 C 0.26782 0.77631 0.39887 0.0
C1005 C 0.27118 0.80117 0.43377 0.0
C1006 C 0.25416 0.81504 0.45305 0.0
C1007 C 0.22769 0.79442 0.46343 0.0
C1008 C 0.21167 0.80778 0.48156 0.0
C1009 C 0.22204 0.84165 0.48951 0.0
C1010 C 0.24852 0.8622 0.47938 0.0
C1011 C 0.26461 0.84897 0.46125 0.0
H1012 H 0.20961 0.85194 0.50355 0.0
H1013 H 0.36821 0.73094 0.32657 0.0
H1014 H 0.26563 0.94868 0.91202 0.0
H1015 H 0.25331 0.88388 0.91911 0.0
H1016 H 0.35782 0.85526 0.89343 0.0
H1017 H 0.37053 0.91861 0.88679 0.0
H1018 H 0.29919 0.81494 0.8767 0.0
H1019 H 0.34921 0.85387 0.94288 0.0
H1020 H 0.34995 0.8915 0.97458 0.0
H1021 H 0.24363 0.85217 0.99073 0.0
H1022 H 0.24207 0.81468 0.95893 0.0
H1023 H 0.3329 0.63295 0.89651 0.0
H1024 H 0.34279 0.69863 0.9006 0.0
H1025 H 0.23883 0.70879 0.93109 0.0
H1026 H 0.22891 0.64339 0.92688 0.0
H1027 H 0.28967 0.75925 0.94621 0.0
H1028 H 0.24026 0.7175 0.88194 0.0
H1029 H 0.23793 0.67953 0.85041 0.0
H1030 H 0.33912 0.72534 0.82988 0.0
H1031 H 0.34253 0.76296 0.86157 0.0
C1032 C 0.28605 0.92853 0.90816 0.0
C1033 C 0.31898 0.93897 0.89879 0.0
C1034 C 0.27898 0.89158 0.91215 0.0
C1035 C 0.30461 0.86476 0.90662 0.0
C1036 C 0.33756 0.87538 0.89767 0.0
C1037 C 0.34476 0.91187 0.89395 0.0
C1038 C 0.29774 0.8253 0.90952 0.0
C1039 C 0.29727 0.80276 0.89191 0.0
C1040 C 0.29434 0.80949 0.9293 0.0
C1041 C 0.29534 0.83185 0.94842 0.0
C1042 C 0.32585 0.85352 0.95309 0.0
C1043 C 0.32645 0.87476 0.97109 0.0
C1044 C 0.2968 0.87432 0.98463 0.0
C1045 C 0.26654 0.85254 0.98021 0.0
C1046 C 0.26579 0.83128 0.96221 0.0
C1047 C 0.31315 0.64893 0.90507 0.0
C1048 C 0.28035 0.63318 0.9116 0.0
C1049 C 0.31853 0.68651 0.90715 0.0
C1050 C 0.29122 0.70869 0.91585 0.0
C1051 C 0.26023 0.69229 0.92434 0.0
C1052 C 0.25469 0.65489 0.92204 0.0
C1053 C 0.29241 0.74887 0.91341 0.0
C1054 C 0.29144 0.77145 0.93101 0.0
C1055 C 0.29414 0.76487 0.89356 0.0
C1056 C 0.2919 0.74272 0.87429 0.0
C1057 C 0.26221 0.71924 0.87081 0.0
C1058 C 0.26068 0.69779 0.8529 0.0
C1059 C 0.28843 0.69993 0.83819 0.0
C1060 C 0.3177 0.72363 0.84132 0.0
C1061 C 0.31946 0.745 0.85927 0.0
H1062 H 0.2872 0.68328 0.82433 0.0
H1063 H 0.29732 0.89077 -0.00143 0.0
H1064 H 0.44995 0.30198 0.56823 0.0
H1065 H 0.38434 0.31442 0.56589 0.0
H1066 H 0.36427 0.23773 0.61473 0.0
H1067 H 0.42995 0.22512 0.61702 0.0
H1068 H 0.32436 0.26134 0.55893 0.0
H1069 H 0.31479 0.27508 0.6441 0.0
H1070 H 0.34724 0.3005 0.67445 0.0
H1071 H 0.38505 0.38982 0.6378 0.0
H1072 H 0.35313 0.3646 0.60721 0.0
H1073 H 0.13835 0.2454 0.58512 0.0
H1074 H 0.20455 0.24203 0.58342 0.0
H1075 H 0.21146 0.35823 0.59174 0.0
H1076 H 0.14462 0.36172 0.59367 0.0
H1077 H 0.25975 0.3222 0.61701 0.0
H1078 H 0.22975 0.32212 0.54519 0.0
H1079 H 0.1975 0.30286 0.51349 0.0
H1080 H 0.23992 0.1948 0.52003 0.0
H1081 H 0.27207 0.2133 0.55193 0.0
C1082 C 0.43144 0.28765 0.57835 0.0
C1083 C 0.44487 0.26258 0.59277 0.0
C1084 C 0.39405 0.29476 0.577 0.0
C1085 C 0.36949 0.2773 0.59027 0.0
C1086 C 0.38281 0.25172 0.60446 0.0
C1087 C 0.4202 0.24423 0.6056 0.0
C1088 C 0.3299 0.28548 0.58916 0.0
C1089 C 0.31014 0.27453 0.57162 0.0
C1090 C 0.31158 0.30359 0.60542 0.0
C1091 C 0.33159 0.31808 0.62351 0.0
C1092 C 0.33005 0.30012 0.64258 0.0
C1093 C 0.34837 0.31445 0.65978 0.0
C1094 C 0.36795 0.34691 0.65808 0.0
C1095 C 0.36976 0.36478 0.6391 0.0
C1096 C 0.35173 0.35039 0.62182 0.0
C1097 C 0.15383 0.27031 0.58652 0.0
C1098 C 0.13611 0.30381 0.5896 0.0
C1099 C 0.19178 0.26836 0.58543 0.0
C1100 C 0.21312 0.29987 0.58737 0.0
C1101 C 0.19558 0.33353 0.5902 0.0
C1102 C 0.15739 0.33554 0.59113 0.0
C1103 C 0.25366 0.29708 0.58695 0.0
C1104 C 0.27374 0.30904 0.60423 0.0
C1105 C 0.27233 0.28029 0.57024 0.0
C1106 C 0.2531 0.26905 0.55104 0.0
C1107 C 0.23198 0.29418 0.53995 0.0
C1108 C 0.21376 0.28341 0.52193 0.0
C1109 C 0.2166 0.24761 0.51477 0.0
C1110 C 0.23773 0.22252 0.5256 0.0
C1111 C 0.25601 0.23315 0.54363 0.0
H1112 H 0.20247 0.23933 0.50082 0.0
H1113 H 0.38179 0.35816 0.67146 0.0
H1114 H 0.7883 0.64078 0.1232 0.0
H1115 H 0.79425 0.70621 0.12262 0.0
H1116 H 0.76818 0.70635 0.05751 0.0
H1117 H 0.76468 0.63987 0.05772 0.0
H1118 H 0.82275 0.74792 0.06287 0.0
H1119 H 0.70887 0.73956 0.09826 0.0
H1120 H 0.66459 0.71978 0.12455 0.0
H1121 H 0.73164 0.76524 0.17263 0.0
H1122 H 0.77667 0.78477 0.14666 0.0
H1123 H 0.77651 0.93703 0.06074 0.0
H1124 H 0.78906 0.87214 0.05769 0.0
H1125 H 0.83088 0.87197 0.12005 0.0
H1126 H 0.81825 0.93712 0.12304 0.0
H1127 H 0.77088 0.83069 0.11595 0.0
H1128 H 0.88341 0.8416 0.07876 0.0
H1129 H 0.92429 0.86348 0.05126 0.0
H1130 H 0.85458 0.81599 0.00507 0.0
H1131 H 0.81306 0.79415 0.03227 0.0
C1132 C 0.78333 0.6545 0.10876 0.0
C1133 C 0.77636 0.63472 0.09047 0.0
C1134 C 0.78648 0.69228 0.10848 0.0
C1135 C 0.78142 0.71163 0.09006 0.0
C1136 C 0.77242 0.69217 0.07194 0.0
C1137 C 0.77001 0.65411 0.07212 0.0
C1138 C 0.78773 0.75174 0.08957 0.0
C1139 C 0.8109 0.76606 0.07432 0.0
C1140 C 0.77318 0.77554 0.1048 0.0
C1141 C 0.74635 0.76332 0.12049 0.0
C1142 C 0.71437 0.74503 0.11445 0.0
C1143 C 0.68911 0.73391 0.1293 0.0
C1144 C 0.69536 0.74116 0.15025 0.0
C1145 C 0.72688 0.75957 0.1564 0.0
C1146 C 0.75227 0.77068 0.14162 0.0
C1147 C 0.79067 0.92363 0.07328 0.0
C1148 C 0.79669 0.9421 0.09204 0.0
C1149 C 0.79755 0.88635 0.0716 0.0
C1150 C 0.8105 0.86696 0.08873 0.0
C1151 C 0.82076 0.88633 0.10665 0.0
C1152 C 0.81403 0.92372 0.10826 0.0
C1153 C 0.80602 0.82674 0.08939 0.0
C1154 C 0.78294 0.81244 0.10462 0.0
C1155 C 0.82011 0.80321 0.07396 0.0
C1156 C 0.84497 0.81648 0.05757 0.0
C1157 C 0.87663 0.83608 0.06273 0.0
C1158 C 0.89996 0.84841 0.0472 0.0
C1159 C 0.892 0.8412 0.02643 0.0
C1160 C 0.86072 0.82157 0.02116 0.0
C1161 C 0.83731 0.80916 0.03663 0.0
H1162 H 0.9101 0.85076 0.01443 0.0
H1163 H 0.67573 0.73259 0.16172 0.0
H1164 H 0.64379 0.87114 0.38552 0.0
H1165 H 0.71044 0.86611 0.38751 0.0
H1166 H 0.69969 0.75858 0.4131 0.0
H1167 H 0.63367 0.76466 0.41236 0.0
H1168 H 0.75549 0.78822 0.42998 0.0
H1169 H 0.7131 0.77593 0.35935 0.0
H1170 H 0.68195 0.79604 0.32759 0.0
H1171 H 0.75323 0.88835 0.32395 0.0
H1172 H 0.78451 0.86903 0.35585 0.0
H1173 H 0.91854 0.72814 0.36022 0.0
H1174 H 0.85458 0.73998 0.36755 0.0
H1175 H 0.88516 0.81263 0.4172 0.0
H1176 H 0.94972 0.80039 0.41013 0.0
H1177 H 0.82107 0.80478 0.36367 0.0
H1178 H 0.81854 0.81291 0.45221 0.0
H1179 H 0.84759 0.78392 0.48238 0.0
H1180 H 0.86306 0.68576 0.44716 0.0
H1181 H 0.83423 0.71425 0.41681 0.0
C1182 C 0.65573 0.8468 0.39198 0.0
C1183 C 0.63346 0.81777 0.3982 0.0
C1184 C 0.69386 0.84376 0.39293 0.0
C1185 C 0.71037 0.81149 0.39993 0.0
C1186 C 0.68794 0.7836 0.40741 0.0
C1187 C 0.65005 0.78682 0.40665 0.0
C1188 C 0.75056 0.80536 0.39824 0.0
C1189 C 0.76981 0.79225 0.41551 0.0
C1190 C 0.7695 0.80978 0.37932 0.0
C1191 C 0.75086 0.82127 0.36009 0.0
C1192 C 0.72197 0.80063 0.35183 0.0
C1193 C 0.70431 0.81188 0.33381 0.0
C1194 C 0.71553 0.84351 0.32379 0.0
C1195 C 0.74452 0.8639 0.33175 0.0
C1196 C 0.76222 0.85282 0.34979 0.0
C1197 C 0.91187 0.74613 0.37299 0.0
C1198 C 0.93949 0.76385 0.38435 0.0
C1199 C 0.87513 0.75309 0.37705 0.0
C1200 C 0.86491 0.77756 0.39274 0.0
C1201 C 0.89228 0.7937 0.40497 0.0
C1202 C 0.92922 0.78686 0.40083 0.0
C1203 C 0.82576 0.78753 0.39533 0.0
C1204 C 0.80681 0.80138 0.37822 0.0
C1205 C 0.80691 0.78284 0.41418 0.0
C1206 C 0.82456 0.76579 0.43226 0.0
C1207 C 0.82817 0.78515 0.45094 0.0
C1208 C 0.84464 0.76884 0.46804 0.0
C1209 C 0.85724 0.73305 0.46667 0.0
C1210 C 0.85346 0.71353 0.44818 0.0
C1211 C 0.8372 0.72979 0.43101 0.0
H1212 H 0.86987 0.72044 0.47994 0.0
H1213 H 0.70182 0.85217 0.30984 0.0
H1214 H 0.2407 0.1521 0.8623 0.0
H1215 H 0.2517 0.2171 0.86817 0.0
H1216 H 0.3 0.19331 0.92742 0.0
H1217 H 0.28725 0.12825 0.92188 0.0
H1218 H 0.26055 0.25652 0.92933 0.0
H1219 H 0.35439 0.20786 0.88512 0.0
H1220 H 0.37776 0.17406 0.85483 0.0
H1221 H 0.32093 0.24642 0.81416 0.0
H1222 H 0.29692 0.28045 0.8442 0.0
H1223 H 0.33138 0.43802 0.93336 0.0
H1224 H 0.32908 0.37143 0.93397 0.0
H1225 H 0.29166 0.37048 0.87066 0.0
H1226 H 0.29639 0.436 0.86956 0.0
H1227 H 0.33229 0.31721 0.87449 0.0
H1228 H 0.23401 0.36331 0.91801 0.0
H1229 H 0.20986 0.39795 0.9478 0.0
H1230 H 0.27208 0.33182 0.98936 0.0
H1231 H 0.29691 0.29705 0.95979 0.0
C1232 C 0.25352 0.16085 0.87659 0.0
C1233 C 0.26438 0.1352 0.89131 0.0
C1234 C 0.25987 0.19796 0.87996 0.0
C1235 C 0.27758 0.21022 0.89804 0.0
C1236 C 0.28667 0.18466 0.91326 0.0
C1237 C 0.27984 0.14748 0.90999 0.0
C1238 C 0.28839 0.24929 0.90029 0.0
C1239 C 0.27657 0.26974 0.91746 0.0
C1240 C 0.3092 0.26683 0.88488 0.0
C1241 C 0.32397 0.2467 0.86686 0.0
C1242 C 0.34684 0.2165 0.86971 0.0
C1243 C 0.36016 0.19731 0.85261 0.0
C1244 C 0.35095 0.2083 0.83265 0.0
C1245 C 0.32814 0.23817 0.82967 0.0
C1246 C 0.31475 0.25744 0.84671 0.0
C1247 C 0.32348 0.42352 0.91943 0.0
C1248 C 0.31378 0.44269 0.90146 0.0
C1249 C 0.32162 0.38535 0.91989 0.0
C1250 C 0.30903 0.36557 0.90256 0.0
C1251 C 0.30124 0.38471 0.88435 0.0
C1252 C 0.30396 0.42255 0.88373 0.0
C1253 C 0.30312 0.32523 0.90306 0.0
C1254 C 0.31627 0.30424 0.88645 0.0
C1255 C 0.28321 0.30751 0.91893 0.0
C1256 C 0.26753 0.32779 0.93669 0.0
C1257 C 0.24259 0.35623 0.9335 0.0
C1258 C 0.22881 0.3759 0.95034 0.0
C1259 C 0.2395 0.36714 0.97045 0.0
C1260 C 0.26386 0.33859 0.97377 0.0
C1261 C 0.27777 0.31888 0.95699 0.0
H1262 H 0.22886 0.38244 0.98346 0.0
H1263 H 0.3617 0.19392 0.81947 0.0
loop_
_geom_bond_atom_site_label_1
_geom_bond_atom_site_label_2
_geom_bond_distance
_geom_bond_site_symmetry_2
_ccdc_geom_bond_type
C0 C1 1.351 . S
C0 N3 1.368 . S
C0 H5 0.931 . S
C1 C0 1.351 . S
C1 N2 1.373 . S
C1 H29 0.930 . S
N2 C1 1.373 . S
N2 C4 1.340 . S
N3 C0 1.368 . S
N3 C4 1.321 . S
N3 Co6 2.135 . S
C4 N2 1.340 . S
C4 N3 1.321 . S
C4 H28 0.930 . S
H5 C0 0.931 . S
Co6 N3 2.135 . S
Co6 N9 2.121 . S
Co6 O14 2.055 . S
Co6 O17 2.039 . S
Co6 N20 2.140 . S
C7 O8 1.227 . S
C7 O17 1.265 . S
O8 C7 1.227 . S
N9 Co6 2.121 . S
N9 C11 1.375 . S
N9 C12 1.313 . S
C10 C11 1.338 . S
C10 N13 1.377 . S
C10 H30 0.930 . S
C11 N9 1.375 . S
C11 C10 1.338 . S
C11 H15 0.931 . S
C12 N9 1.313 . S
C12 N13 1.344 . S
C12 H16 0.930 . S
N13 C10 1.377 . S
N13 C12 1.344 . S
O14 Co6 2.055 . S
O14 C18 1.253 1_455 S
H15 C11 0.931 . S
H16 C12 0.930 . S
O17 Co6 2.039 . S
O17 C7 1.265 . S
C18 O14 1.253 1_655 S
C18 O19 1.227 . S
O19 C18 1.227 . S
N20 Co6 2.140 . S
N20 C23 1.346 . S
N20 C24 1.345 . S
C21 C22 1.387 . S
C21 C25 1.391 . S
C22 C21 1.387 . S
C22 C23 1.369 . S
C22 H31 0.929 . S
C23 N20 1.346 . S
C23 C22 1.369 . S
C23 H26 0.928 . S
C24 N20 1.345 . S
C24 C25 1.371 . S
C24 H27 0.931 . S
C25 C21 1.391 . S
C25 C24 1.371 . S
C25 H32 0.930 . S
H26 C23 0.928 . S
H27 C24 0.931 . S
H28 C4 0.930 . S
H29 C1 0.930 . S
H30 C10 0.930 . S
H31 C22 0.929 . S
H32 C25 0.930 . S
C33 C34 1.351 . S
C33 N36 1.368 . S
C33 H38 0.931 . S
C34 C33 1.351 . S
C34 N35 1.373 . S
C34 H62 0.930 . S
N35 C34 1.373 . S
N35 C37 1.340 . S
N36 C33 1.368 . S
N36 C37 1.321 . S
N36 Co39 2.135 . S
C37 N35 1.340 . S
C37 N36 1.321 . S
C37 H61 0.930 . S
H38 C33 0.931 . S
Co39 N36 2.135 . S
Co39 N42 2.121 . S
Co39 O47 2.055 . S
Co39 O50 2.039 . S
Co39 N53 2.140 . S
C40 O41 1.227 . S
C40 O50 1.265 . S
O41 C40 1.227 . S
N42 Co39 2.121 . S
N42 C44 1.375 . S
N42 C45 1.313 . S
C43 C44 1.338 . S
C43 N46 1.377 . S
C43 H63 0.930 . S
C44 N42 1.375 . S
C44 C43 1.338 . S
C44 H48 0.931 . S
C45 N42 1.313 . S
C45 N46 1.344 . S
C45 H49 0.930 . S
N46 C43 1.377 . S
N46 C45 1.344 . S
O47 Co39 2.055 . S
O47 C51 1.253 . S
H48 C44 0.931 . S
H49 C45 0.930 . S
O50 Co39 2.039 . S
O50 C40 1.265 . S
C51 O47 1.253 . S
C51 O52 1.227 . S
O52 C51 1.227 . S
N53 Co39 2.140 . S
N53 C56 1.346 . S
N53 C57 1.345 . S
C54 C55 1.387 . S
C54 C58 1.391 . S
C55 C54 1.387 . S
C55 C56 1.369 . S
C55 H64 0.929 . S
C56 N53 1.346 . S
C56 C55 1.369 . S
C56 H59 0.928 . S
C57 N53 1.345 . S
C57 C58 1.371 . S
C57 H60 0.931 . S
C58 C54 1.391 . S
C58 C57 1.371 . S
C58 H65 0.930 . S
H59 C56 0.928 . S
H60 C57 0.931 . S
H61 C37 0.930 . S
H62 C34 0.930 . S
H63 C43 0.930 . S
H64 C55 0.929 . S
H65 C58 0.930 . S
C66 C67 1.351 . S
C66 N69 1.368 . S
C66 H71 0.931 . S
C67 C66 1.351 . S
C67 N68 1.373 . S
C67 H95 0.930 . S
N68 C67 1.373 . S
N68 C70 1.340 . S
N69 C66 1.368 . S
N69 C70 1.321 . S
N69 Co72 2.135 . S
C70 N68 1.340 . S
C70 N69 1.321 . S
C70 H94 0.930 . S
H71 C66 0.931 . S
Co72 N69 2.135 . S
Co72 N75 2.121 . S
Co72 O80 2.055 . S
Co72 O83 2.039 . S
Co72 N86 2.140 . S
C73 O74 1.227 . S
C73 O83 1.265 . S
O74 C73 1.227 . S
N75 Co72 2.121 . S
N75 C77 1.375 . S
N75 C78 1.313 . S
C76 C77 1.338 . S
C76 N79 1.377 . S
C76 H96 0.930 . S
C77 N75 1.375 . S
C77 C76 1.338 . S
C77 H81 0.931 . S
C78 N75 1.313 . S
C78 N79 1.344 . S
C78 H82 0.930 . S
N79 C76 1.377 . S
N79 C78 1.344 . S
O80 Co72 2.055 . S
O80 C84 1.253 . S
H81 C77 0.931 . S
H82 C78 0.930 . S
O83 Co72 2.039 . S
O83 C73 1.265 . S
C84 O80 1.253 . S
C84 O85 1.227 . S
O85 C84 1.227 . S
N86 Co72 2.140 . S
N86 C89 1.346 . S
N86 C90 1.345 . S
C87 C88 1.387 . S
C87 C91 1.391 . S
C88 C87 1.387 . S
C88 C89 1.369 . S
C88 H97 0.929 . S
C89 N86 1.346 . S
C89 C88 1.369 . S
C89 H92 0.928 . S
C90 N86 1.345 . S
C90 C91 1.371 . S
C90 H93 0.931 . S
C91 C87 1.391 . S
C91 C90 1.371 . S
C91 H98 0.930 . S
H92 C89 0.928 . S
H93 C90 0.931 . S
H94 C70 0.930 . S
H95 C67 0.930 . S
H96 C76 0.930 . S
H97 C88 0.929 . S
H98 C91 0.930 . S
C99 C100 1.351 . S
C99 N102 1.368 . S
C99 H104 0.931 . S
C100 C99 1.351 . S
C100 N101 1.373 . S
C100 H128 0.930 . S
N101 C100 1.373 . S
N101 C103 1.347 . S
N102 C99 1.368 . S
N102 C103 1.339 . S
N102 Co105 2.135 . S
C103 N101 1.347 . S
C103 N102 1.339 . S
C103 H127 0.909 1_545 S
H104 C99 0.931 . S
Co105 N102 2.135 . S
Co105 N108 2.121 . S
Co105 O113 2.055 . S
Co105 O116 2.039 1_545 S
Co105 N119 2.140 . S
C106 O107 1.227 . S
C106 O116 1.265 . S
O107 C106 1.227 . S
N108 Co105 2.121 . S
N108 C110 1.375 1_545 S
N108 C111 1.313 . S
C109 C110 1.338 . S
C109 N112 1.377 1_565 S
C109 H129 0.930 . S
C110 N108 1.375 1_565 S
C110 C109 1.338 . S
C110 H114 0.931 . S
C111 N108 1.313 . S
C111 N112 1.344 . S
C111 H115 0.930 . S
N112 C109 1.377 1_545 S
N112 C111 1.344 . S
O113 Co105 2.055 . S
O113 C117 1.253 . S
H114 C110 0.931 . S
H115 C111 0.930 . S
O116 Co105 2.039 1_565 S
O116 C106 1.265 . S
C117 O113 1.253 . S
C117 O118 1.227 . S
O118 C117 1.227 . S
N119 Co105 2.140 . S
N119 C122 1.346 1_545 S
N119 C123 1.345 . S
C120 C121 1.387 . S
C120 C124 1.391 1_565 S
C121 C120 1.387 . S
C121 C122 1.369 . S
C121 H130 0.929 . S
C122 N119 1.346 1_565 S
C122 C121 1.369 . S
C122 H125 0.928 . S
C123 N119 1.345 . S
C123 C124 1.371 . S
C123 H126 0.931 . S
C124 C120 1.391 1_545 S
C124 C123 1.371 . S
C124 H131 0.930 . S
H125 C122 0.928 . S
H126 C123 0.931 . S
H127 C103 0.909 1_565 S
H128 C100 0.930 . S
H129 C109 0.930 . S
H130 C121 0.929 . S
H131 C124 0.930 . S
C132 C133 1.351 . S
C132 N135 1.368 . S
C132 H137 0.931 . S
C133 C132 1.351 . S
C133 N134 1.373 . S
C133 H161 0.930 . S
N134 C133 1.373 . S
N134 C136 1.340 . S
N135 C132 1.368 . S
N135 C136 1.321 . S
N135 Co138 2.135 . S
C136 N134 1.340 . S
C136 N135 1.321 . S
C136 H160 0.930 1_455 S
H137 C132 0.931 . S
Co138 N135 2.135 . S
Co138 N141 2.121 . S
Co138 O146 2.055 . S
Co138 O149 2.039 1_455 S
Co138 N152 2.140 . S
C139 O140 1.227 . S
C139 O149 1.265 . S
O140 C139 1.227 . S
N141 Co138 2.121 . S
N141 C143 1.375 1_455 S
N141 C144 1.313 . S
C142 C143 1.338 . S
C142 N145 1.377 1_655 S
C142 H162 0.930 . S
C143 N141 1.375 1_655 S
C143 C142 1.338 . S
C143 H147 0.931 . S
C144 N141 1.313 . S
C144 N145 1.344 . S
C144 H148 0.930 . S
N145 C142 1.377 1_455 S
N145 C144 1.344 . S
O146 Co138 2.055 . S
O146 C150 1.253 . S
H147 C143 0.931 . S
H148 C144 0.930 . S
O149 Co138 2.039 1_655 S
O149 C139 1.265 . S
C150 O146 1.253 . S
C150 O151 1.227 . S
O151 C150 1.227 . S
N152 Co138 2.140 . S
N152 C155 1.346 1_455 S
N152 C156 1.345 . S
C153 C154 1.387 . S
C153 C157 1.391 1_655 S
C154 C153 1.387 . S
C154 C155 1.369 . S
C154 H163 0.929 . S
C155 N152 1.346 1_655 S
C155 C154 1.369 . S
C155 H158 0.928 . S
C156 N152 1.345 . S
C156 C157 1.371 . S
C156 H159 0.931 . S
C157 C153 1.391 1_455 S
C157 C156 1.371 . S
C157 H164 0.930 . S
H158 C155 0.928 . S
H159 C156 0.931 . S
H160 C136 0.930 1_655 S
H161 C133 0.930 . S
H162 C142 0.930 . S
H163 C154 0.929 . S
H164 C157 0.930 . S
C165 C166 1.351 . S
C165 N168 1.368 . S
C165 H170 0.931 . S
C166 C165 1.351 . S
C166 N167 1.373 . S
C166 H194 0.930 . S
N167 C166 1.373 . S
N167 C169 1.340 . S
N168 C165 1.368 . S
N168 C169 1.321 . S
N168 Co171 2.135 . S
C169 N167 1.340 . S
C169 N168 1.321 . S
C169 H193 0.930 . S
H170 C165 0.931 . S
Co171 N168 2.135 . S
Co171 N174 2.121 . S
Co171 O179 2.055 . S
Co171 O182 2.039 . S
Co171 N185 2.140 . S
C172 O173 1.227 . S
C172 O182 1.265 . S
O173 C172 1.227 . S
N174 Co171 2.121 . S
N174 C176 1.375 . S
N174 C177 1.313 . S
C175 C176 1.338 . S
C175 N178 1.377 . S
C175 H195 0.930 . S
C176 N174 1.375 . S
C176 C175 1.338 . S
C176 H180 0.931 . S
C177 N174 1.313 . S
C177 N178 1.344 . S
C177 H181 0.930 . S
N178 C175 1.377 . S
N178 C177 1.344 . S
O179 Co171 2.055 . S
O179 C183 1.253 . S
H180 C176 0.931 . S
H181 C177 0.930 . S
O182 Co171 2.039 . S
O182 C172 1.265 . S
C183 O179 1.253 . S
C183 O184 1.227 . S
O184 C183 1.227 . S
N185 Co171 2.140 . S
N185 C188 1.346 . S
N185 C189 1.345 . S
C186 C187 1.387 . S
C186 C190 1.391 . S
C187 C186 1.387 . S
C187 C188 1.369 . S
C187 H196 0.929 . S
C188 N185 1.346 . S
C188 C187 1.369 . S
C188 H191 0.928 . S
C189 N185 1.345 . S
C189 C190 1.371 . S
C189 H192 0.931 . S
C190 C186 1.391 . S
C190 C189 1.371 . S
C190 H197 0.930 . S
H191 C188 0.928 . S
H192 C189 0.931 . S
H193 C169 0.930 . S
H194 C166 0.930 . S
H195 C175 0.930 . S
H196 C187 0.929 . S
H197 C190 0.930 . S
C198 C199 1.351 . S
C198 N201 1.368 . S
C198 H203 0.931 . S
C199 C198 1.351 . S
C199 N200 1.373 . S
C199 H227 0.930 . S
N200 C199 1.373 . S
N200 C202 1.340 . S
N201 C198 1.368 . S
N201 C202 1.321 . S
N201 Co204 2.135 . S
C202 N200 1.340 . S
C202 N201 1.321 . S
C202 H226 0.930 . S
H203 C198 0.931 . S
Co204 N201 2.135 . S
Co204 N207 2.121 . S
Co204 O212 2.055 . S
Co204 O215 2.039 . S
Co204 N218 2.140 . S
C205 O206 1.227 . S
C205 O215 1.265 . S
O206 C205 1.227 . S
N207 Co204 2.121 . S
N207 C209 1.375 . S
N207 C210 1.313 . S
C208 C209 1.338 . S
C208 N211 1.377 . S
C208 H228 0.930 . S
C209 N207 1.375 . S
C209 C208 1.338 . S
C209 H213 0.931 . S
C210 N207 1.313 . S
C210 N211 1.344 . S
C210 H214 0.930 . S
N211 C208 1.377 . S
N211 C210 1.344 . S
O212 Co204 2.055 . S
O212 C216 1.253 . S
H213 C209 0.931 . S
H214 C210 0.930 . S
O215 Co204 2.039 . S
O215 C205 1.265 . S
C216 O212 1.253 . S
C216 O217 1.227 . S
O217 C216 1.227 . S
N218 Co204 2.140 . S
N218 C221 1.346 . S
N218 C222 1.345 . S
C219 C220 1.387 . S
C219 C223 1.391 . S
C220 C219 1.387 . S
C220 C221 1.369 . S
C220 H229 0.929 . S
C221 N218 1.346 . S
C221 C220 1.369 . S
C221 H224 0.928 . S
C222 N218 1.345 . S
C222 C223 1.371 . S
C222 H225 0.931 . S
C223 C219 1.391 . S
C223 C222 1.371 . S
C223 H230 0.930 . S
H224 C221 0.928 . S
H225 C222 0.931 . S
H226 C202 0.930 . S
H227 C199 0.930 . S
H228 C208 0.930 . S
H229 C220 0.929 . S
H230 C223 0.930 . S
C231 C232 1.351 . S
C231 N234 1.368 . S
C231 H236 0.931 . S
C232 C231 1.351 . S
C232 N233 1.373 . S
C232 H260 0.930 . S
N233 C232 1.373 . S
N233 C235 1.340 . S
N234 C231 1.368 . S
N234 C235 1.321 . S
N234 Co237 2.135 . S
C235 N233 1.340 . S
C235 N234 1.321 . S
C235 H259 0.930 . S
H236 C231 0.931 . S
Co237 N234 2.135 . S
Co237 N240 2.121 . S
Co237 O245 2.055 . S
Co237 O248 2.039 . S
Co237 N251 2.140 . S
C238 O239 1.227 . S
C238 O248 1.265 . S
O239 C238 1.227 . S
N240 Co237 2.121 . S
N240 C242 1.375 . S
N240 C243 1.313 . S
C241 C242 1.338 . S
C241 N244 1.377 . S
C241 H261 0.930 . S
C242 N240 1.375 . S
C242 C241 1.338 . S
C242 H246 0.931 . S
C243 N240 1.313 . S
C243 N244 1.344 . S
C243 H247 0.930 . S
N244 C241 1.377 . S
N244 C243 1.344 . S
O245 Co237 2.055 . S
O245 C249 1.253 1_545 S
H246 C242 0.931 . S
H247 C243 0.930 . S
O248 Co237 2.039 . S
O248 C238 1.265 . S
C249 O245 1.253 1_565 S
C249 O250 1.227 . S
O250 C249 1.227 . S
N251 Co237 2.140 . S
N251 C254 1.346 . S
N251 C255 1.345 . S
C252 C253 1.387 . S
C252 C256 1.391 . S
C253 C252 1.387 . S
C253 C254 1.369 . S
C253 H262 0.929 . S
C254 N251 1.346 . S
C254 C253 1.369 . S
C254 H257 0.928 . S
C255 N251 1.345 . S
C255 C256 1.371 . S
C255 H258 0.931 . S
C256 C252 1.391 . S
C256 C255 1.371 . S
C256 H263 0.930 . S
H257 C254 0.928 . S
H258 C255 0.931 . S
H259 C235 0.930 . S
H260 C232 0.930 . S
H261 C241 0.930 . S
H262 C253 0.929 . S
H263 C256 0.930 . S
H264 C282 0.951 . S
H265 C284 0.951 1_545 S
H266 C286 0.950 . S
H267 C287 0.950 . S
H268 C289 0.950 1_565 S
H269 C292 0.950 . S
H270 C293 0.950 . S
H271 C295 0.950 . S
H272 C296 0.950 . S
H273 C297 0.951 . S
H274 C299 0.951 . S
H275 C301 0.950 . S
H276 C302 0.950 . S
H277 C304 0.950 . S
H278 C307 0.950 . S
H279 C308 0.950 . S
H280 C310 0.950 . S
H281 C311 0.950 1_455 S
C282 H264 0.951 . S
C282 C283 1.366 . S
C282 C284 1.388 . S
C283 C282 1.366 . S
C283 C287 1.385 . S
C284 H265 0.951 1_565 S
C284 C282 1.388 . S
C284 C285 1.366 . S
C285 C284 1.366 . S
C285 C286 1.414 . S
C285 C288 1.499 1_565 S
C286 H266 0.950 . S
C286 C285 1.414 . S
C286 C287 1.374 . S
C287 H267 0.950 . S
C287 C283 1.385 . S
C287 C286 1.374 . S
C288 C285 1.499 1_545 S
C288 C289 1.373 . S
C288 C290 1.389 . S
C289 H268 0.950 1_545 S
C289 C288 1.373 . S
C289 C305 1.377 . S
C290 C288 1.389 . S
C290 C291 1.524 . S
C290 C304 1.377 . S
C291 C290 1.524 . S
C291 C292 1.397 . S
C291 C296 1.363 . S
C292 H269 0.950 . S
C292 C291 1.397 . S
C292 C293 1.334 . S
C293 H270 0.950 . S
C293 C292 1.334 . S
C293 C294 1.287 . S
C294 C293 1.287 . S
C294 C295 1.524 . S
C294 H313 0.913 . S
C295 H271 0.950 . S
C295 C294 1.524 . S
C295 C296 1.415 . S
C296 H272 0.950 . S
C296 C291 1.363 . S
C296 C295 1.415 . S
C297 H273 0.951 . S
C297 C298 1.366 . S
C297 C299 1.388 . S
C298 C297 1.366 . S
C298 C302 1.385 . S
C299 H274 0.951 . S
C299 C297 1.388 . S
C299 C300 1.366 . S
C300 C299 1.366 . S
C300 C301 1.414 . S
C300 C303 1.499 . S
C301 H275 0.950 . S
C301 C300 1.414 . S
C301 C302 1.374 . S
C302 H276 0.950 . S
C302 C298 1.385 . S
C302 C301 1.374 . S
C303 C300 1.499 . S
C303 C304 1.373 . S
C303 C305 1.389 . S
C304 H277 0.950 . S
C304 C290 1.377 . S
C304 C303 1.373 . S
C305 C289 1.377 . S
C305 C303 1.389 . S
C305 C306 1.524 1_455 S
C306 C305 1.524 1_655 S
C306 C307 1.397 . S
C306 C311 1.363 1_545 S
C307 H278 0.950 . S
C307 C306 1.397 . S
C307 C308 1.334 . S
C308 H279 0.950 . S
C308 C307 1.334 . S
C308 C309 1.287 . S
C309 C308 1.287 . S
C309 C310 1.524 1_545 S
C309 H312 0.999 . S
C310 H280 0.950 . S
C310 C309 1.524 1_565 S
C310 C311 1.415 . S
C311 H281 0.950 1_655 S
C311 C306 1.363 1_565 S
C311 C310 1.415 . S
H312 C309 0.999 . S
H313 C294 0.913 . S
H314 C332 0.951 . S
H315 C334 0.951 1_455 S
H316 C336 0.950 . S
H317 C337 0.950 . S
H318 C339 0.955 1_655 S
H319 C342 0.950 1_655 S
H320 C343 0.929 1_655 S
H321 C345 0.950 . S
H322 C346 0.950 . S
H323 C347 0.951 . S
H324 C349 0.951 . S
H325 C351 0.950 . S
H326 C352 0.950 . S
H327 C354 0.955 . S
H328 C357 0.950 . S
H329 C358 0.950 . S
H330 C360 0.950 1_655 S
H331 C361 0.950 1_655 S
C332 H314 0.951 . S
C332 C333 1.366 . S
C332 C334 1.388 . S
C333 C332 1.366 . S
C333 C337 1.385 . S
C334 H315 0.951 1_655 S
C334 C332 1.388 . S
C334 C335 1.366 . S
C335 C334 1.366 . S
C335 C336 1.414 . S
C335 C338 1.499 1_655 S
C336 H316 0.950 . S
C336 C335 1.414 . S
C336 C337 1.374 . S
C337 H317 0.950 . S
C337 C333 1.385 . S
C337 C336 1.374 . S
C338 C335 1.499 1_455 S
C338 C339 1.334 1_554 S
C338 C340 1.389 . S
C339 H318 0.955 1_455 S
C339 C338 1.334 1_556 S
C339 C355 1.414 . S
C340 C338 1.389 . S
C340 C341 1.524 . S
C340 C354 1.414 . S
C341 C340 1.524 . S
C341 C342 1.397 . S
C341 C346 1.363 . S
C342 H319 0.950 1_455 S
C342 C341 1.397 . S
C342 C343 1.337 . S
C343 H320 0.929 1_455 S
C343 C342 1.337 . S
C343 C344 1.306 . S
C344 C343 1.306 . S
C344 C345 1.524 . S
C344 H363 0.913 . S
C345 H321 0.950 . S
C345 C344 1.524 . S
C345 C346 1.415 . S
C346 H322 0.950 . S
C346 C341 1.363 . S
C346 C345 1.415 . S
C347 H323 0.951 . S
C347 C348 1.366 . S
C347 C349 1.388 . S
C348 C347 1.366 . S
C348 C352 1.385 . S
C349 H324 0.951 . S
C349 C347 1.388 . S
C349 C350 1.366 . S
C350 C349 1.366 . S
C350 C351 1.414 . S
C350 C353 1.499 . S
C351 H325 0.950 . S
C351 C350 1.414 . S
C351 C352 1.374 . S
C352 H326 0.950 . S
C352 C348 1.385 . S
C352 C351 1.374 . S
C353 C350 1.499 . S
C353 C354 1.334 1_556 S
C353 C355 1.389 . S
C354 H327 0.955 . S
C354 C340 1.414 . S
C354 C353 1.334 1_554 S
C355 C339 1.414 . S
C355 C353 1.389 . S
C355 C356 1.524 . S
C356 C355 1.524 . S
C356 C357 1.397 . S
C356 C361 1.363 . S
C357 H328 0.950 . S
C357 C356 1.397 . S
C357 C358 1.334 . S
C358 H329 0.950 . S
C358 C357 1.334 . S
C358 C359 1.287 . S
C359 C358 1.287 . S
C359 C360 1.524 . S
C359 H362 0.999 . S
C360 H330 0.950 1_455 S
C360 C359 1.524 . S
C360 C361 1.415 . S
C361 H331 0.950 1_455 S
C361 C356 1.363 . S
C361 C360 1.415 . S
H362 C359 0.999 . S
H363 C344 0.913 . S
H364 C382 0.951 . S
H365 C384 0.951 . S
H366 C386 0.950 . S
H367 C387 0.950 . S
H368 C389 0.950 . S
H369 C392 0.950 . S
H370 C393 0.950 . S
H371 C395 0.950 . S
H372 C396 0.950 . S
H373 C397 0.951 . S
H374 C399 0.951 . S
H375 C401 0.950 . S
H376 C402 0.950 . S
H377 C404 0.950 . S
H378 C407 0.950 . S
H379 C408 0.950 . S
H380 C410 0.950 . S
H381 C411 0.950 . S
C382 H364 0.951 . S
C382 C383 1.366 . S
C382 C384 1.388 . S
C383 C382 1.366 . S
C383 C387 1.385 . S
C384 H365 0.951 . S
C384 C382 1.388 . S
C384 C385 1.366 . S
C385 C384 1.366 . S
C385 C386 1.414 . S
C385 C388 1.499 . S
C386 H366 0.950 . S
C386 C385 1.414 . S
C386 C387 1.374 . S
C387 H367 0.950 . S
C387 C383 1.385 . S
C387 C386 1.374 . S
C388 C385 1.499 . S
C388 C389 1.373 . S
C388 C390 1.389 . S
C389 H368 0.950 . S
C389 C388 1.373 . S
C389 C405 1.377 . S
C390 C388 1.389 . S
C390 C391 1.524 . S
C390 C404 1.377 . S
C391 C390 1.524 . S
C391 C392 1.397 . S
C391 C396 1.363 . S
C392 H369 0.950 . S
C392 C391 1.397 . S
C392 C393 1.334 . S
C393 H370 0.950 . S
C393 C392 1.334 . S
C393 C394 1.287 . S
C394 C393 1.287 . S
C394 C395 1.524 . S
C394 H413 0.913 . S
C395 H371 0.950 . S
C395 C394 1.524 . S
C395 C396 1.415 . S
C396 H372 0.950 . S
C396 C391 1.363 . S
C396 C395 1.415 . S
C397 H373 0.951 . S
C397 C398 1.366 . S
C397 C399 1.388 . S
C398 C397 1.366 . S
C398 C402 1.385 . S
C399 H374 0.951 . S
C399 C397 1.388 . S
C399 C400 1.366 . S
C400 C399 1.366 . S
C400 C401 1.414 . S
C400 C403 1.499 . S
C401 H375 0.950 . S
C401 C400 1.414 . S
C401 C402 1.374 . S
C402 H376 0.950 . S
C402 C398 1.385 . S
C402 C401 1.374 . S
C403 C400 1.499 . S
C403 C404 1.373 . S
C403 C405 1.389 . S
C404 H377 0.950 . S
C404 C390 1.377 . S
C404 C403 1.373 . S
C405 C389 1.377 . S
C405 C403 1.389 . S
C405 C406 1.524 . S
C406 C405 1.524 . S
C406 C407 1.397 . S
C406 C411 1.363 . S
C407 H378 0.950 . S
C407 C406 1.397 . S
C407 C408 1.334 . S
C408 H379 0.950 . S
C408 C407 1.334 . S
C408 C409 1.287 . S
C409 C408 1.287 . S
C409 C410 1.524 . S
C409 H412 0.999 . S
C410 H380 0.950 . S
C410 C409 1.524 . S
C410 C411 1.415 . S
C411 H381 0.950 . S
C411 C406 1.363 . S
C411 C410 1.415 . S
H412 C409 0.999 . S
H413 C394 0.913 . S
H414 C432 0.951 . S
H415 C434 0.951 . S
H416 C436 0.950 . S
H417 C437 0.950 . S
H418 C439 0.950 . S
H419 C442 0.950 . S
H420 C443 0.950 . S
H421 C445 0.950 . S
H422 C446 0.950 . S
H423 C447 0.951 . S
H424 C449 0.951 . S
H425 C451 0.950 . S
H426 C452 0.950 . S
H427 C454 0.950 1_565 S
H428 C457 0.950 . S
H429 C458 0.950 . S
H430 C460 0.950 . S
H431 C461 0.950 . S
C432 H414 0.951 . S
C432 C433 1.366 . S
C432 C434 1.388 . S
C433 C432 1.366 . S
C433 C437 1.385 . S
C434 H415 0.951 . S
C434 C432 1.388 . S
C434 C435 1.366 . S
C435 C434 1.366 . S
C435 C436 1.414 . S
C435 C438 1.499 . S
C436 H416 0.950 . S
C436 C435 1.414 . S
C436 C437 1.374 . S
C437 H417 0.950 . S
C437 C433 1.385 . S
C437 C436 1.374 . S
C438 C435 1.499 . S
C438 C439 1.373 . S
C438 C440 1.389 . S
C439 H418 0.950 . S
C439 C438 1.373 . S
C439 C455 1.377 1_556 S
C440 C438 1.389 . S
C440 C441 1.524 1_545 S
C440 C454 1.377 1_556 S
C441 C440 1.524 1_565 S
C441 C442 1.397 . S
C441 C446 1.363 . S
C442 H419 0.950 . S
C442 C441 1.397 . S
C442 C443 1.334 . S
C443 H420 0.950 . S
C443 C442 1.334 . S
C443 C444 1.287 . S
C444 C443 1.287 . S
C444 C445 1.524 . S
C444 H463 0.913 . S
C445 H421 0.950 . S
C445 C444 1.524 . S
C445 C446 1.415 . S
C446 H422 0.950 . S
C446 C441 1.363 . S
C446 C445 1.415 . S
C447 H423 0.951 . S
C447 C448 1.366 . S
C447 C449 1.388 . S
C448 C447 1.366 . S
C448 C452 1.385 . S
C449 H424 0.951 . S
C449 C447 1.388 . S
C449 C450 1.366 . S
C450 C449 1.366 . S
C450 C451 1.414 . S
C450 C453 1.499 . S
C451 H425 0.950 . S
C451 C450 1.414 . S
C451 C452 1.374 . S
C452 H426 0.950 . S
C452 C448 1.385 . S
C452 C451 1.374 . S
C453 C450 1.499 . S
C453 C454 1.373 . S
C453 C455 1.389 . S
C454 H427 0.950 1_545 S
C454 C440 1.377 1_554 S
C454 C453 1.373 . S
C455 C439 1.377 1_554 S
C455 C453 1.389 . S
C455 C456 1.524 . S
C456 C455 1.524 . S
C456 C457 1.397 . S
C456 C461 1.363 . S
C457 H428 0.950 . S
C457 C456 1.397 . S
C457 C458 1.334 . S
C458 H429 0.950 . S
C458 C457 1.334 . S
C458 C459 1.287 . S
C459 C458 1.287 . S
C459 C460 1.524 . S
C459 H462 0.999 . S
C460 H430 0.950 . S
C460 C459 1.524 . S
C460 C461 1.415 . S
C461 H431 0.950 . S
C461 C456 1.363 . S
C461 C460 1.415 . S
H462 C459 0.999 . S
H463 C444 0.913 . S
H464 C482 0.951 . S
H465 C484 0.951 . S
H466 C486 0.950 . S
H467 C487 0.950 . S
H468 C489 0.950 . S
H469 C492 0.950 . S
H470 C493 0.950 . S
H471 C495 0.950 . S
H472 C496 0.950 . S
H473 C497 0.951 . S
H474 C499 0.951 . S
H475 C501 0.950 . S
H476 C502 0.950 . S
H477 C504 0.950 . S
H478 C507 0.950 . S
H479 C508 0.950 . S
H480 C510 0.950 . S
H481 C511 0.950 . S
C482 H464 0.951 . S
C482 C483 1.366 . S
C482 C484 1.388 . S
C483 C482 1.366 . S
C483 C487 1.385 . S
C484 H465 0.951 . S
C484 C482 1.388 . S
C484 C485 1.366 . S
C485 C484 1.366 . S
C485 C486 1.414 . S
C485 C488 1.499 . S
C486 H466 0.950 . S
C486 C485 1.414 . S
C486 C487 1.374 . S
C487 H467 0.950 . S
C487 C483 1.385 . S
C487 C486 1.374 . S
C488 C485 1.499 . S
C488 C489 1.373 . S
C488 C490 1.389 . S
C489 H468 0.950 . S
C489 C488 1.373 . S
C489 C505 1.377 . S
C490 C488 1.389 . S
C490 C491 1.524 . S
C490 C504 1.377 . S
C491 C490 1.524 . S
C491 C492 1.397 . S
C491 C496 1.363 . S
C492 H469 0.950 . S
C492 C491 1.397 . S
C492 C493 1.334 . S
C493 H470 0.950 . S
C493 C492 1.334 . S
C493 C494 1.287 . S
C494 C493 1.287 . S
C494 C495 1.524 . S
C494 H513 0.913 . S
C495 H471 0.950 . S
C495 C494 1.524 . S
C495 C496 1.415 . S
C496 H472 0.950 . S
C496 C491 1.363 . S
C496 C495 1.415 . S
C497 H473 0.951 . S
C497 C498 1.366 . S
C497 C499 1.388 . S
C498 C497 1.366 . S
C498 C502 1.385 . S
C499 H474 0.951 . S
C499 C497 1.388 . S
C499 C500 1.366 . S
C500 C499 1.366 . S
C500 C501 1.414 . S
C500 C503 1.499 . S
C501 H475 0.950 . S
C501 C500 1.414 . S
C501 C502 1.374 . S
C502 H476 0.950 . S
C502 C498 1.385 . S
C502 C501 1.374 . S
C503 C500 1.499 . S
C503 C504 1.373 . S
C503 C505 1.389 . S
C504 H477 0.950 . S
C504 C490 1.377 . S
C504 C503 1.373 . S
C505 C489 1.377 . S
C505 C503 1.389 . S
C505 C506 1.524 . S
C506 C505 1.524 . S
C506 C507 1.397 . S
C506 C511 1.363 . S
C507 H478 0.950 . S
C507 C506 1.397 . S
C507 C508 1.334 . S
C508 H479 0.950 . S
C508 C507 1.334 . S
C508 C509 1.287 . S
C509 C508 1.287 . S
C509 C510 1.524 . S
C509 H512 0.999 . S
C510 H480 0.950 . S
C510 C509 1.524 . S
C510 C511 1.415 . S
C511 H481 0.950 . S
C511 C506 1.363 . S
C511 C510 1.415 . S
H512 C509 0.999 . S
H513 C494 0.913 . S
H514 C532 0.951 . S
H515 C534 0.951 . S
H516 C536 0.950 . S
H517 C537 0.950 . S
H518 C539 0.950 . S
H519 C542 0.967 . S
H520 C543 0.950 . S
H521 C545 0.950 . S
H522 C546 0.950 . S
H523 C547 0.951 . S
H524 C549 0.951 . S
H525 C551 0.950 . S
H526 C552 0.950 . S
H527 C554 0.950 . S
H528 C557 0.950 . S
H529 C558 0.950 . S
H530 C560 0.950 . S
H531 C561 0.950 . S
C532 H514 0.951 . S
C532 C533 1.366 1_655 S
C532 C534 1.388 . S
C533 C532 1.366 1_455 S
C533 C537 1.385 . S
C534 H515 0.951 . S
C534 C532 1.388 . S
C534 C535 1.366 . S
C535 C534 1.366 . S
C535 C536 1.414 1_655 S
C535 C538 1.499 . S
C536 H516 0.950 . S
C536 C535 1.414 1_455 S
C536 C537 1.374 . S
C537 H517 0.950 . S
C537 C533 1.385 . S
C537 C536 1.374 . S
C538 C535 1.499 . S
C538 C539 1.373 . S
C538 C540 1.389 . S
C539 H518 0.950 . S
C539 C538 1.373 . S
C539 C555 1.377 . S
C540 C538 1.389 . S
C540 C541 1.524 . S
C540 C554 1.377 . S
C541 C540 1.524 . S
C541 C542 1.374 1_655 S
C541 C546 1.363 . S
C542 H519 0.967 . S
C542 C541 1.374 1_455 S
C542 C543 1.340 . S
C543 H520 0.950 . S
C543 C542 1.340 . S
C543 C544 1.287 1_455 S
C544 C543 1.287 1_655 S
C544 C545 1.524 . S
C544 H563 0.913 . S
C545 H521 0.950 . S
C545 C544 1.524 . S
C545 C546 1.415 . S
C546 H522 0.950 . S
C546 C541 1.363 . S
C546 C545 1.415 . S
C547 H523 0.951 . S
C547 C548 1.366 . S
C547 C549 1.388 . S
C548 C547 1.366 . S
C548 C552 1.385 . S
C549 H524 0.951 . S
C549 C547 1.388 . S
C549 C550 1.366 . S
C550 C549 1.366 . S
C550 C551 1.414 . S
C550 C553 1.499 . S
C551 H525 0.950 . S
C551 C550 1.414 . S
C551 C552 1.374 . S
C552 H526 0.950 . S
C552 C548 1.385 . S
C552 C551 1.374 . S
C553 C550 1.499 . S
C553 C554 1.373 . S
C553 C555 1.389 . S
C554 H527 0.950 . S
C554 C540 1.377 . S
C554 C553 1.373 . S
C555 C539 1.377 . S
C555 C553 1.389 . S
C555 C556 1.524 . S
C556 C555 1.524 . S
C556 C557 1.397 . S
C556 C561 1.363 . S
C557 H528 0.950 . S
C557 C556 1.397 . S
C557 C558 1.334 . S
C558 H529 0.950 . S
C558 C557 1.334 . S
C558 C559 1.287 . S
C559 C558 1.287 . S
C559 C560 1.524 . S
C559 H562 0.999 . S
C560 H530 0.950 . S
C560 C559 1.524 . S
C560 C561 1.415 . S
C561 H531 0.950 . S
C561 C556 1.363 . S
C561 C560 1.415 . S
H562 C559 0.999 . S
H563 C544 0.913 . S
H564 C582 0.951 . S
H565 C584 0.951 . S
H566 C586 0.950 . S
H567 C587 0.950 . S
H568 C589 0.950 . S
H569 C592 0.950 . S
H570 C593 0.950 . S
H571 C595 0.950 . S
H572 C596 0.950 . S
H573 C597 0.951 . S
H574 C599 0.951 . S
H575 C601 0.950 . S
H576 C602 0.950 . S
H577 C604 0.950 . S
H578 C607 0.950 . S
H579 C608 0.950 . S
H580 C610 0.950 . S
H581 C611 0.950 . S
C582 H564 0.951 . S
C582 C583 1.366 . S
C582 C584 1.388 . S
C583 C582 1.366 . S
C583 C587 1.385 . S
C584 H565 0.951 . S
C584 C582 1.388 . S
C584 C585 1.366 . S
C585 C584 1.366 . S
C585 C586 1.414 . S
C585 C588 1.499 . S
C586 H566 0.950 . S
C586 C585 1.414 . S
C586 C587 1.374 . S
C587 H567 0.950 . S
C587 C583 1.385 . S
C587 C586 1.374 . S
C588 C585 1.499 . S
C588 C589 1.373 . S
C588 C590 1.389 . S
C589 H568 0.950 . S
C589 C588 1.373 . S
C589 C605 1.377 . S
C590 C588 1.389 . S
C590 C591 1.524 . S
C590 C604 1.377 . S
C591 C590 1.524 . S
C591 C592 1.397 . S
C591 C596 1.363 . S
C592 H569 0.950 . S
C592 C591 1.397 . S
C592 C593 1.334 . S
C593 H570 0.950 . S
C593 C592 1.334 . S
C593 C594 1.287 . S
C594 C593 1.287 . S
C594 C595 1.524 . S
C594 H613 0.913 . S
C595 H571 0.950 . S
C595 C594 1.524 . S
C595 C596 1.415 . S
C596 H572 0.950 . S
C596 C591 1.363 . S
C596 C595 1.415 . S
C597 H573 0.951 . S
C597 C598 1.366 . S
C597 C599 1.388 . S
C598 C597 1.366 . S
C598 C602 1.385 . S
C599 H574 0.951 . S
C599 C597 1.388 . S
C599 C600 1.366 . S
C600 C599 1.366 . S
C600 C601 1.414 . S
C600 C603 1.499 . S
C601 H575 0.950 . S
C601 C600 1.414 . S
C601 C602 1.374 . S
C602 H576 0.950 . S
C602 C598 1.385 . S
C602 C601 1.374 . S
C603 C600 1.499 . S
C603 C604 1.373 . S
C603 C605 1.389 . S
C604 H577 0.950 . S
C604 C590 1.377 . S
C604 C603 1.373 . S
C605 C589 1.377 . S
C605 C603 1.389 . S
C605 C606 1.524 . S
C606 C605 1.524 . S
C606 C607 1.397 . S
C606 C611 1.363 . S
C607 H578 0.950 . S
C607 C606 1.397 . S
C607 C608 1.334 . S
C608 H579 0.950 . S
C608 C607 1.334 . S
C608 C609 1.287 . S
C609 C608 1.287 . S
C609 C610 1.524 . S
C609 H612 0.999 . S
C610 H580 0.950 . S
C610 C609 1.524 . S
C610 C611 1.415 . S
C611 H581 0.950 . S
C611 C606 1.363 . S
C611 C610 1.415 . S
H612 C609 0.999 . S
H613 C594 0.913 . S
H614 C632 0.951 . S
H615 C634 0.951 . S
H616 C636 0.950 . S
H617 C637 0.950 . S
H618 C639 0.950 . S
H619 C642 0.950 . S
H620 C643 0.950 . S
H621 C645 0.950 . S
H622 C646 0.950 . S
H623 C647 0.951 . S
H624 C649 0.951 . S
H625 C651 0.950 . S
H626 C652 0.956 . S
H627 C654 0.950 . S
H628 C657 0.950 . S
H629 C658 0.950 . S
H630 C660 0.950 . S
H631 C661 0.950 . S
C632 H614 0.951 . S
C632 C633 1.366 . S
C632 C634 1.388 . S
C633 C632 1.366 . S
C633 C637 1.385 . S
C634 H615 0.951 . S
C634 C632 1.388 . S
C634 C635 1.366 . S
C635 C634 1.366 . S
C635 C636 1.414 . S
C635 C638 1.499 . S
C636 H616 0.950 . S
C636 C635 1.414 . S
C636 C637 1.374 . S
C637 H617 0.950 . S
C637 C633 1.385 . S
C637 C636 1.374 . S
C638 C635 1.499 . S
C638 C639 1.373 . S
C638 C640 1.389 . S
C639 H618 0.950 . S
C639 C638 1.373 . S
C639 C655 1.377 . S
C640 C638 1.389 . S
C640 C641 1.524 . S
C640 C654 1.377 . S
C641 C640 1.524 . S
C641 C642 1.397 . S
C641 C646 1.375 . S
C642 H619 0.950 . S
C642 C641 1.397 . S
C642 C643 1.334 . S
C643 H620 0.950 . S
C643 C642 1.334 . S
C643 C644 1.287 1_565 S
C644 C643 1.287 1_545 S
C644 C645 1.524 . S
C644 H663 0.913 . S
C645 H621 0.950 . S
C645 C644 1.524 . S
C645 C646 1.403 1_545 S
C646 H622 0.950 . S
C646 C641 1.375 . S
C646 C645 1.403 1_565 S
C647 H623 0.951 . S
C647 C648 1.366 . S
C647 C649 1.388 . S
C648 C647 1.366 . S
C648 C652 1.383 1_565 S
C649 H624 0.951 . S
C649 C647 1.388 . S
C649 C650 1.366 . S
C650 C649 1.366 . S
C650 C651 1.414 . S
C650 C653 1.499 . S
C651 H625 0.950 . S
C651 C650 1.414 . S
C651 C652 1.370 1_565 S
C652 H626 0.956 . S
C652 C648 1.383 1_545 S
C652 C651 1.370 1_545 S
C653 C650 1.499 . S
C653 C654 1.373 . S
C653 C655 1.389 . S
C654 H627 0.950 . S
C654 C640 1.377 . S
C654 C653 1.373 . S
C655 C639 1.377 . S
C655 C653 1.389 . S
C655 C656 1.524 . S
C656 C655 1.524 . S
C656 C657 1.397 . S
C656 C661 1.363 . S
C657 H628 0.950 . S
C657 C656 1.397 . S
C657 C658 1.334 . S
C658 H629 0.950 . S
C658 C657 1.334 . S
C658 C659 1.287 . S
C659 C658 1.287 . S
C659 C660 1.524 . S
C659 H662 0.999 . S
C660 H630 0.950 . S
C660 C659 1.524 . S
C660 C661 1.415 . S
C661 H631 0.950 . S
C661 C656 1.363 . S
C661 C660 1.415 . S
H662 C659 0.999 . S
H663 C644 0.913 . S
H664 C682 0.951 . S
H665 C684 0.951 1_455 S
H666 C686 0.950 . S
H667 C687 0.950 . S
H668 C689 0.950 . S
H669 C692 0.950 1_645 S
H670 C693 0.950 . S
H671 C695 0.950 . S
H672 C696 0.950 . S
H673 C697 0.951 . S
H674 C699 0.951 1_545 S
H675 C701 0.950 . S
H676 C702 0.950 . S
H677 C704 0.950 . S
H678 C707 0.950 . S
H679 C708 0.950 . S
H680 C710 0.950 . S
H681 C711 0.950 . S
C682 H664 0.951 . S
C682 C683 1.366 1_455 S
C682 C684 1.388 1_455 S
C683 C682 1.366 1_655 S
C683 C687 1.385 . S
C684 H665 0.951 1_655 S
C684 C682 1.388 1_655 S
C684 C685 1.366 . S
C685 C684 1.366 . S
C685 C686 1.414 . S
C685 C688 1.499 . S
C686 H666 0.950 . S
C686 C685 1.414 . S
C686 C687 1.374 . S
C687 H667 0.950 . S
C687 C683 1.385 . S
C687 C686 1.374 . S
C688 C685 1.499 . S
C688 C689 1.373 . S
C688 C690 1.389 . S
C689 H668 0.950 . S
C689 C688 1.373 . S
C689 C705 1.377 . S
C690 C688 1.389 . S
C690 C691 1.524 1_655 S
C690 C704 1.377 . S
C691 C690 1.524 1_455 S
C691 C692 1.397 . S
C691 C696 1.363 . S
C692 H669 0.950 1_465 S
C692 C691 1.397 . S
C692 C693 1.334 1_565 S
C693 H670 0.950 . S
C693 C692 1.334 1_545 S
C693 C694 1.287 . S
C694 C693 1.287 . S
C694 C695 1.524 1_545 S
C694 H713 0.913 . S
C695 H671 0.950 . S
C695 C694 1.524 1_565 S
C695 C696 1.415 . S
C696 H672 0.950 . S
C696 C691 1.363 . S
C696 C695 1.415 . S
C697 H673 0.951 . S
C697 C698 1.366 . S
C697 C699 1.388 1_545 S
C698 C697 1.366 . S
C698 C702 1.385 1_545 S
C699 H674 0.951 1_565 S
C699 C697 1.388 1_565 S
C699 C700 1.366 . S
C700 C699 1.366 . S
C700 C701 1.414 . S
C700 C703 1.499 . S
C701 H675 0.950 . S
C701 C700 1.414 . S
C701 C702 1.374 . S
C702 H676 0.950 . S
C702 C698 1.385 1_565 S
C702 C701 1.374 . S
C703 C700 1.499 . S
C703 C704 1.373 . S
C703 C705 1.389 . S
C704 H677 0.950 . S
C704 C690 1.377 . S
C704 C703 1.373 . S
C705 C689 1.377 . S
C705 C703 1.389 . S
C705 C706 1.524 . S
C706 C705 1.524 . S
C706 C707 1.397 . S
C706 C711 1.363 . S
C707 H678 0.950 . S
C707 C706 1.397 . S
C707 C708 1.334 . S
C708 H679 0.950 . S
C708 C707 1.334 . S
C708 C709 1.287 . S
C709 C708 1.287 . S
C709 C710 1.524 . S
C709 H712 0.999 . S
C710 H680 0.950 . S
C710 C709 1.524 . S
C710 C711 1.415 . S
C711 H681 0.950 . S
C711 C706 1.363 . S
C711 C710 1.415 . S
H712 C709 0.999 . S
H713 C694 0.913 . S
H714 C732 0.951 . S
H715 C734 0.951 . S
H716 C736 0.950 . S
H717 C737 0.950 . S
H718 C739 0.950 . S
H719 C742 0.950 . S
H720 C743 0.950 . S
H721 C745 0.950 . S
H722 C746 0.950 . S
H723 C747 0.951 . S
H724 C749 0.951 . S
H725 C751 0.950 . S
H726 C752 0.950 . S
H727 C754 0.950 . S
H728 C757 0.950 . S
H729 C758 0.950 . S
H730 C760 0.950 . S
H731 C761 0.950 . S
C732 H714 0.951 . S
C732 C733 1.366 . S
C732 C734 1.388 . S
C733 C732 1.366 . S
C733 C737 1.385 . S
C734 H715 0.951 . S
C734 C732 1.388 . S
C734 C735 1.366 . S
C735 C734 1.366 . S
C735 C736 1.414 . S
C735 C738 1.499 . S
C736 H716 0.950 . S
C736 C735 1.414 . S
C736 C737 1.374 . S
C737 H717 0.950 . S
C737 C733 1.385 . S
C737 C736 1.374 . S
C738 C735 1.499 . S
C738 C739 1.373 . S
C738 C740 1.389 . S
C739 H718 0.950 . S
C739 C738 1.373 . S
C739 C755 1.377 . S
C740 C738 1.389 . S
C740 C741 1.524 . S
C740 C754 1.377 . S
C741 C740 1.524 . S
C741 C742 1.397 . S
C741 C746 1.363 . S
C742 H719 0.950 . S
C742 C741 1.397 . S
C742 C743 1.334 . S
C743 H720 0.950 . S
C743 C742 1.334 . S
C743 C744 1.287 . S
C744 C743 1.287 . S
C744 C745 1.524 . S
C744 H763 0.913 . S
C745 H721 0.950 . S
C745 C744 1.524 . S
C745 C746 1.415 . S
C746 H722 0.950 . S
C746 C741 1.363 . S
C746 C745 1.415 . S
C747 H723 0.951 . S
C747 C748 1.366 . S
C747 C749 1.388 . S
C748 C747 1.366 . S
C748 C752 1.385 . S
C749 H724 0.951 . S
C749 C747 1.388 . S
C749 C750 1.366 . S
C750 C749 1.366 . S
C750 C751 1.414 . S
C750 C753 1.499 . S
C751 H725 0.950 . S
C751 C750 1.414 . S
C751 C752 1.374 . S
C752 H726 0.950 . S
C752 C748 1.385 . S
C752 C751 1.374 . S
C753 C750 1.499 . S
C753 C754 1.373 . S
C753 C755 1.389 . S
C754 H727 0.950 . S
C754 C740 1.377 . S
C754 C753 1.373 . S
C755 C739 1.377 . S
C755 C753 1.389 . S
C755 C756 1.524 . S
C756 C755 1.524 . S
C756 C757 1.397 . S
C756 C761 1.363 . S
C757 H728 0.950 . S
C757 C756 1.397 . S
C757 C758 1.334 . S
C758 H729 0.950 . S
C758 C757 1.334 . S
C758 C759 1.287 1_455 S
C759 C758 1.287 1_655 S
C759 C760 1.524 . S
C759 H762 0.999 . S
C760 H730 0.950 . S
C760 C759 1.524 . S
C760 C761 1.415 1_655 S
C761 H731 0.950 . S
C761 C756 1.363 . S
C761 C760 1.415 1_455 S
H762 C759 0.999 . S
H763 C744 0.913 . S
H764 C782 0.951 . S
H765 C784 0.951 . S
H766 C786 0.950 . S
H767 C787 0.950 . S
H768 C789 0.950 . S
H769 C792 0.950 . S
H770 C793 0.950 . S
H771 C795 0.950 . S
H772 C796 0.950 . S
H773 C797 0.951 . S
H774 C799 0.951 . S
H775 C801 0.950 . S
H776 C802 0.950 . S
H777 C804 0.950 . S
H778 C807 0.950 . S
H779 C808 0.950 . S
H780 C810 0.950 . S
H781 C811 0.950 . S
C782 H764 0.951 . S
C782 C783 1.366 . S
C782 C784 1.388 . S
C783 C782 1.366 . S
C783 C787 1.385 . S
C784 H765 0.951 . S
C784 C782 1.388 . S
C784 C785 1.366 . S
C785 C784 1.366 . S
C785 C786 1.414 . S
C785 C788 1.499 . S
C786 H766 0.950 . S
C786 C785 1.414 . S
C786 C787 1.374 . S
C787 H767 0.950 . S
C787 C783 1.385 . S
C787 C786 1.374 . S
C788 C785 1.499 . S
C788 C789 1.373 . S
C788 C790 1.389 . S
C789 H768 0.950 . S
C789 C788 1.373 . S
C789 C805 1.377 . S
C790 C788 1.389 . S
C790 C791 1.524 . S
C790 C804 1.377 . S
C791 C790 1.524 . S
C791 C792 1.397 . S
C791 C796 1.363 . S
C792 H769 0.950 . S
C792 C791 1.397 . S
C792 C793 1.334 . S
C793 H770 0.950 . S
C793 C792 1.334 . S
C793 C794 1.287 . S
C794 C793 1.287 . S
C794 C795 1.524 . S
C794 H813 0.913 . S
C795 H771 0.950 . S
C795 C794 1.524 . S
C795 C796 1.415 . S
C796 H772 0.950 . S
C796 C791 1.363 . S
C796 C795 1.415 . S
C797 H773 0.951 . S
C797 C798 1.366 . S
C797 C799 1.388 . S
C798 C797 1.366 . S
C798 C802 1.385 . S
C799 H774 0.951 . S
C799 C797 1.388 . S
C799 C800 1.366 . S
C800 C799 1.366 . S
C800 C801 1.414 . S
C800 C803 1.499 . S
C801 H775 0.950 . S
C801 C800 1.414 . S
C801 C802 1.374 . S
C802 H776 0.950 . S
C802 C798 1.385 . S
C802 C801 1.374 . S
C803 C800 1.499 . S
C803 C804 1.373 . S
C803 C805 1.389 . S
C804 H777 0.950 . S
C804 C790 1.377 . S
C804 C803 1.373 . S
C805 C789 1.377 . S
C805 C803 1.389 . S
C805 C806 1.524 . S
C806 C805 1.524 . S
C806 C807 1.397 . S
C806 C811 1.363 . S
C807 H778 0.950 . S
C807 C806 1.397 . S
C807 C808 1.334 . S
C808 H779 0.950 . S
C808 C807 1.334 . S
C808 C809 1.287 . S
C809 C808 1.287 . S
C809 C810 1.524 . S
C809 H812 0.999 . S
C810 H780 0.950 . S
C810 C809 1.524 . S
C810 C811 1.415 . S
C811 H781 0.950 . S
C811 C806 1.363 . S
C811 C810 1.415 . S
H812 C809 0.999 . S
H813 C794 0.913 . S
H814 C832 0.951 . S
H815 C834 0.951 . S
H816 C836 0.950 . S
H817 C837 0.950 . S
H818 C839 0.950 . S
H819 C842 0.950 . S
H820 C843 0.950 . S
H821 C845 0.950 . S
H822 C846 0.950 . S
H823 C847 0.951 . S
H824 C849 0.951 . S
H825 C851 0.950 . S
H826 C852 0.950 . S
H827 C854 0.950 . S
H828 C857 0.950 . S
H829 C858 0.950 . S
H830 C860 0.950 . S
H831 C861 0.950 . S
C832 H814 0.951 . S
C832 C833 1.366 . S
C832 C834 1.388 . S
C833 C832 1.366 . S
C833 C837 1.385 . S
C834 H815 0.951 . S
C834 C832 1.388 . S
C834 C835 1.366 . S
C835 C834 1.366 . S
C835 C836 1.414 . S
C835 C838 1.499 . S
C836 H816 0.950 . S
C836 C835 1.414 . S
C836 C837 1.374 . S
C837 H817 0.950 . S
C837 C833 1.385 . S
C837 C836 1.374 . S
C838 C835 1.499 . S
C838 C839 1.373 . S
C838 C840 1.389 . S
C839 H818 0.950 . S
C839 C838 1.373 . S
C839 C855 1.377 . S
C840 C838 1.389 . S
C840 C841 1.524 . S
C840 C854 1.377 . S
C841 C840 1.524 . S
C841 C842 1.397 . S
C841 C846 1.363 . S
C842 H819 0.950 . S
C842 C841 1.397 . S
C842 C843 1.334 . S
C843 H820 0.950 . S
C843 C842 1.334 . S
C843 C844 1.287 . S
C844 C843 1.287 . S
C844 C845 1.524 . S
C844 H863 0.913 . S
C845 H821 0.950 . S
C845 C844 1.524 . S
C845 C846 1.415 . S
C846 H822 0.950 . S
C846 C841 1.363 . S
C846 C845 1.415 . S
C847 H823 0.951 . S
C847 C848 1.366 . S
C847 C849 1.388 . S
C848 C847 1.366 . S
C848 C852 1.385 . S
C849 H824 0.951 . S
C849 C847 1.388 . S
C849 C850 1.366 . S
C850 C849 1.366 . S
C850 C851 1.414 . S
C850 C853 1.499 . S
C851 H825 0.950 . S
C851 C850 1.414 . S
C851 C852 1.374 . S
C852 H826 0.950 . S
C852 C848 1.385 . S
C852 C851 1.374 . S
C853 C850 1.499 . S
C853 C854 1.373 . S
C853 C855 1.389 . S
C854 H827 0.950 . S
C854 C840 1.377 . S
C854 C853 1.373 . S
C855 C839 1.377 . S
C855 C853 1.389 . S
C855 C856 1.524 . S
C856 C855 1.524 . S
C856 C857 1.397 . S
C856 C861 1.363 . S
C857 H828 0.950 . S
C857 C856 1.397 . S
C857 C858 1.334 . S
C858 H829 0.950 . S
C858 C857 1.334 . S
C858 C859 1.287 . S
C859 C858 1.287 . S
C859 C860 1.524 . S
C859 H862 0.999 . S
C860 H830 0.950 . S
C860 C859 1.524 . S
C860 C861 1.415 . S
C861 H831 0.950 . S
C861 C856 1.363 . S
C861 C860 1.415 . S
H862 C859 0.999 . S
H863 C844 0.913 . S
H864 C882 0.951 . S
H865 C884 0.951 . S
H866 C886 0.950 . S
H867 C887 0.950 . S
H868 C889 0.950 . S
H869 C892 0.950 . S
H870 C893 0.950 . S
H871 C895 0.950 . S
H872 C896 0.950 . S
H873 C897 0.951 . S
H874 C899 0.951 . S
H875 C901 0.950 . S
H876 C902 0.950 . S
H877 C904 0.950 . S
H878 C907 0.950 . S
H879 C908 0.950 . S
H880 C910 0.950 . S
H881 C911 0.950 . S
C882 H864 0.951 . S
C882 C883 1.366 . S
C882 C884 1.388 . S
C883 C882 1.366 . S
C883 C887 1.385 . S
C884 H865 0.951 . S
C884 C882 1.388 . S
C884 C885 1.366 . S
C885 C884 1.366 . S
C885 C886 1.414 . S
C885 C888 1.499 . S
C886 H866 0.950 . S
C886 C885 1.414 . S
C886 C887 1.374 . S
C887 H867 0.950 . S
C887 C883 1.385 . S
C887 C886 1.374 . S
C888 C885 1.499 . S
C888 C889 1.373 . S
C888 C890 1.389 . S
C889 H868 0.950 . S
C889 C888 1.373 . S
C889 C905 1.377 . S
C890 C888 1.389 . S
C890 C891 1.524 . S
C890 C904 1.377 . S
C891 C890 1.524 . S
C891 C892 1.397 . S
C891 C896 1.363 . S
C892 H869 0.950 . S
C892 C891 1.397 . S
C892 C893 1.334 . S
C893 H870 0.950 . S
C893 C892 1.334 . S
C893 C894 1.287 . S
C894 C893 1.287 . S
C894 C895 1.524 . S
C894 H913 0.913 . S
C895 H871 0.950 . S
C895 C894 1.524 . S
C895 C896 1.415 . S
C896 H872 0.950 . S
C896 C891 1.363 . S
C896 C895 1.415 . S
C897 H873 0.951 . S
C897 C898 1.366 . S
C897 C899 1.388 . S
C898 C897 1.366 . S
C898 C902 1.385 . S
C899 H874 0.951 . S
C899 C897 1.388 . S
C899 C900 1.366 . S
C900 C899 1.366 . S
C900 C901 1.414 . S
C900 C903 1.499 . S
C901 H875 0.950 . S
C901 C900 1.414 . S
C901 C902 1.374 . S
C902 H876 0.950 . S
C902 C898 1.385 . S
C902 C901 1.374 . S
C903 C900 1.499 . S
C903 C904 1.373 . S
C903 C905 1.389 . S
C904 H877 0.950 . S
C904 C890 1.377 . S
C904 C903 1.373 . S
C905 C889 1.377 . S
C905 C903 1.389 . S
C905 C906 1.524 . S
C906 C905 1.524 . S
C906 C907 1.397 . S
C906 C911 1.363 . S
C907 H878 0.950 . S
C907 C906 1.397 . S
C907 C908 1.334 . S
C908 H879 0.950 . S
C908 C907 1.334 . S
C908 C909 1.287 . S
C909 C908 1.287 . S
C909 C910 1.524 . S
C909 H912 0.999 . S
C910 H880 0.950 . S
C910 C909 1.524 . S
C910 C911 1.415 . S
C911 H881 0.950 . S
C911 C906 1.363 . S
C911 C910 1.415 . S
H912 C909 0.999 . S
H913 C894 0.913 . S
H914 C932 0.951 . S
H915 C934 0.951 . S
H916 C936 0.950 . S
H917 C937 0.950 . S
H918 C939 0.950 . S
H919 C942 0.950 . S
H920 C943 0.950 . S
H921 C945 0.950 . S
H922 C946 0.950 . S
H923 C947 0.951 . S
H924 C949 0.951 . S
H925 C951 0.950 . S
H926 C952 0.950 . S
H927 C954 0.950 . S
H928 C957 0.950 . S
H929 C958 0.950 . S
H930 C960 0.950 . S
H931 C961 0.950 . S
C932 H914 0.951 . S
C932 C933 1.366 . S
C932 C934 1.388 . S
C933 C932 1.366 . S
C933 C937 1.385 . S
C934 H915 0.951 . S
C934 C932 1.388 . S
C934 C935 1.366 . S
C935 C934 1.366 . S
C935 C936 1.414 . S
C935 C938 1.499 . S
C936 H916 0.950 . S
C936 C935 1.414 . S
C936 C937 1.374 . S
C937 H917 0.950 . S
C937 C933 1.385 . S
C937 C936 1.374 . S
C938 C935 1.499 . S
C938 C939 1.373 . S
C938 C940 1.389 . S
C939 H918 0.950 . S
C939 C938 1.373 . S
C939 C955 1.377 . S
C940 C938 1.389 . S
C940 C941 1.524 . S
C940 C954 1.377 . S
C941 C940 1.524 . S
C941 C942 1.397 . S
C941 C946 1.363 . S
C942 H919 0.950 . S
C942 C941 1.397 . S
C942 C943 1.334 . S
C943 H920 0.950 . S
C943 C942 1.334 . S
C943 C944 1.287 . S
C944 C943 1.287 . S
C944 C945 1.524 . S
C944 H963 0.913 . S
C945 H921 0.950 . S
C945 C944 1.524 . S
C945 C946 1.415 . S
C946 H922 0.950 . S
C946 C941 1.363 . S
C946 C945 1.415 . S
C947 H923 0.951 . S
C947 C948 1.366 . S
C947 C949 1.388 . S
C948 C947 1.366 . S
C948 C952 1.385 . S
C949 H924 0.951 . S
C949 C947 1.388 . S
C949 C950 1.366 . S
C950 C949 1.366 . S
C950 C951 1.414 . S
C950 C953 1.499 . S
C951 H925 0.950 . S
C951 C950 1.414 . S
C951 C952 1.374 . S
C952 H926 0.950 . S
C952 C948 1.385 . S
C952 C951 1.374 . S
C953 C950 1.499 . S
C953 C954 1.373 . S
C953 C955 1.389 . S
C954 H927 0.950 . S
C954 C940 1.377 . S
C954 C953 1.373 . S
C955 C939 1.377 . S
C955 C953 1.389 . S
C955 C956 1.524 . S
C956 C955 1.524 . S
C956 C957 1.397 . S
C956 C961 1.363 . S
C957 H928 0.950 . S
C957 C956 1.397 . S
C957 C958 1.334 . S
C958 H929 0.950 . S
C958 C957 1.334 . S
C958 C959 1.287 . S
C959 C958 1.287 . S
C959 C960 1.524 . S
C959 H962 0.999 . S
C960 H930 0.950 . S
C960 C959 1.524 . S
C960 C961 1.415 . S
C961 H931 0.950 . S
C961 C956 1.363 . S
C961 C960 1.415 . S
H962 C959 0.999 . S
H963 C944 0.913 . S
H964 C982 0.951 . S
H965 C984 0.951 . S
H966 C986 0.950 . S
H967 C987 0.950 . S
H968 C989 0.950 . S
H969 C992 0.950 . S
H970 C993 0.950 . S
H971 C995 0.950 . S
H972 C996 0.950 . S
H973 C997 0.951 . S
H974 C999 0.951 . S
H975 C1001 0.950 . S
H976 C1002 0.950 . S
H977 C1004 0.950 . S
H978 C1007 0.950 . S
H979 C1008 0.950 . S
H980 C1010 0.950 . S
H981 C1011 0.950 . S
C982 H964 0.951 . S
C982 C983 1.366 . S
C982 C984 1.388 . S
C983 C982 1.366 . S
C983 C987 1.385 . S
C984 H965 0.951 . S
C984 C982 1.388 . S
C984 C985 1.366 . S
C985 C984 1.366 . S
C985 C986 1.414 . S
C985 C988 1.499 . S
C986 H966 0.950 . S
C986 C985 1.414 . S
C986 C987 1.374 . S
C987 H967 0.950 . S
C987 C983 1.385 . S
C987 C986 1.374 . S
C988 C985 1.499 . S
C988 C989 1.373 . S
C988 C990 1.389 . S
C989 H968 0.950 . S
C989 C988 1.373 . S
C989 C1005 1.377 . S
C990 C988 1.389 . S
C990 C991 1.524 . S
C990 C1004 1.377 . S
C991 C990 1.524 . S
C991 C992 1.397 . S
C991 C996 1.363 . S
C992 H969 0.950 . S
C992 C991 1.397 . S
C992 C993 1.334 . S
C993 H970 0.950 . S
C993 C992 1.334 . S
C993 C994 1.287 . S
C994 C993 1.287 . S
C994 C995 1.524 . S
C994 H1013 0.913 . S
C995 H971 0.950 . S
C995 C994 1.524 . S
C995 C996 1.415 . S
C996 H972 0.950 . S
C996 C991 1.363 . S
C996 C995 1.415 . S
C997 H973 0.951 . S
C997 C998 1.366 . S
C997 C999 1.388 . S
C998 C997 1.366 . S
C998 C1002 1.385 . S
C999 H974 0.951 . S
C999 C997 1.388 . S
C999 C1000 1.366 . S
C1000 C999 1.366 . S
C1000 C1001 1.414 . S
C1000 C1003 1.499 . S
C1001 H975 0.950 . S
C1001 C1000 1.414 . S
C1001 C1002 1.374 . S
C1002 H976 0.950 . S
C1002 C998 1.385 . S
C1002 C1001 1.374 . S
C1003 C1000 1.499 . S
C1003 C1004 1.373 . S
C1003 C1005 1.389 . S
C1004 H977 0.950 . S
C1004 C990 1.377 . S
C1004 C1003 1.373 . S
C1005 C989 1.377 . S
C1005 C1003 1.389 . S
C1005 C1006 1.524 . S
C1006 C1005 1.524 . S
C1006 C1007 1.397 . S
C1006 C1011 1.363 . S
C1007 H978 0.950 . S
C1007 C1006 1.397 . S
C1007 C1008 1.334 . S
C1008 H979 0.950 . S
C1008 C1007 1.334 . S
C1008 C1009 1.287 . S
C1009 C1008 1.287 . S
C1009 C1010 1.524 . S
C1009 H1012 0.999 . S
C1010 H980 0.950 . S
C1010 C1009 1.524 . S
C1010 C1011 1.415 . S
C1011 H981 0.950 . S
C1011 C1006 1.363 . S
C1011 C1010 1.415 . S
H1012 C1009 0.999 . S
H1013 C994 0.913 . S
H1014 C1032 0.951 . S
H1015 C1034 0.951 . S
H1016 C1036 0.950 . S
H1017 C1037 0.950 . S
H1018 C1039 0.950 . S
H1019 C1042 0.950 . S
H1020 C1043 0.950 . S
H1021 C1045 0.950 . S
H1022 C1046 0.950 . S
H1023 C1047 0.951 . S
H1024 C1049 0.951 . S
H1025 C1051 0.950 . S
H1026 C1052 0.950 . S
H1027 C1054 0.950 . S
H1028 C1057 0.950 . S
H1029 C1058 0.950 . S
H1030 C1060 0.950 . S
H1031 C1061 0.950 . S
C1032 H1014 0.951 . S
C1032 C1033 1.366 . S
C1032 C1034 1.388 . S
C1033 C1032 1.366 . S
C1033 C1037 1.385 . S
C1034 H1015 0.951 . S
C1034 C1032 1.388 . S
C1034 C1035 1.366 . S
C1035 C1034 1.366 . S
C1035 C1036 1.414 . S
C1035 C1038 1.499 . S
C1036 H1016 0.950 . S
C1036 C1035 1.414 . S
C1036 C1037 1.374 . S
C1037 H1017 0.950 . S
C1037 C1033 1.385 . S
C1037 C1036 1.374 . S
C1038 C1035 1.499 . S
C1038 C1039 1.373 . S
C1038 C1040 1.389 . S
C1039 H1018 0.950 . S
C1039 C1038 1.373 . S
C1039 C1055 1.377 . S
C1040 C1038 1.389 . S
C1040 C1041 1.524 . S
C1040 C1054 1.377 . S
C1041 C1040 1.524 . S
C1041 C1042 1.397 . S
C1041 C1046 1.363 . S
C1042 H1019 0.950 . S
C1042 C1041 1.397 . S
C1042 C1043 1.334 . S
C1043 H1020 0.950 . S
C1043 C1042 1.334 . S
C1043 C1044 1.287 . S
C1044 C1043 1.287 . S
C1044 C1045 1.524 . S
C1044 H1063 0.913 . S
C1045 H1021 0.950 . S
C1045 C1044 1.524 . S
C1045 C1046 1.415 . S
C1046 H1022 0.950 . S
C1046 C1041 1.363 . S
C1046 C1045 1.415 . S
C1047 H1023 0.951 . S
C1047 C1048 1.366 . S
C1047 C1049 1.388 . S
C1048 C1047 1.366 . S
C1048 C1052 1.385 . S
C1049 H1024 0.951 . S
C1049 C1047 1.388 . S
C1049 C1050 1.366 . S
C1050 C1049 1.366 . S
C1050 C1051 1.414 . S
C1050 C1053 1.499 . S
C1051 H1025 0.950 . S
C1051 C1050 1.414 . S
C1051 C1052 1.374 . S
C1052 H1026 0.950 . S
C1052 C1048 1.385 . S
C1052 C1051 1.374 . S
C1053 C1050 1.499 . S
C1053 C1054 1.373 . S
C1053 C1055 1.389 . S
C1054 H1027 0.950 . S
C1054 C1040 1.377 . S
C1054 C1053 1.373 . S
C1055 C1039 1.377 . S
C1055 C1053 1.389 . S
C1055 C1056 1.524 . S
C1056 C1055 1.524 . S
C1056 C1057 1.397 . S
C1056 C1061 1.363 . S
C1057 H1028 0.950 . S
C1057 C1056 1.397 . S
C1057 C1058 1.334 . S
C1058 H1029 0.950 . S
C1058 C1057 1.334 . S
C1058 C1059 1.287 . S
C1059 C1058 1.287 . S
C1059 C1060 1.524 . S
C1059 H1062 0.999 . S
C1060 H1030 0.950 . S
C1060 C1059 1.524 . S
C1060 C1061 1.415 . S
C1061 H1031 0.950 . S
C1061 C1056 1.363 . S
C1061 C1060 1.415 . S
H1062 C1059 0.999 . S
H1063 C1044 0.913 . S
H1064 C1082 0.951 . S
H1065 C1084 0.951 . S
H1066 C1086 0.950 . S
H1067 C1087 0.950 . S
H1068 C1089 0.950 . S
H1069 C1092 0.950 . S
H1070 C1093 0.950 . S
H1071 C1095 0.950 . S
H1072 C1096 0.950 . S
H1073 C1097 0.951 . S
H1074 C1099 0.951 . S
H1075 C1101 0.950 . S
H1076 C1102 0.950 . S
H1077 C1104 0.950 . S
H1078 C1107 0.950 . S
H1079 C1108 0.950 . S
H1080 C1110 0.950 . S
H1081 C1111 0.950 . S
C1082 H1064 0.951 . S
C1082 C1083 1.366 . S
C1082 C1084 1.388 . S
C1083 C1082 1.366 . S
C1083 C1087 1.385 . S
C1084 H1065 0.951 . S
C1084 C1082 1.388 . S
C1084 C1085 1.366 . S
C1085 C1084 1.366 . S
C1085 C1086 1.414 . S
C1085 C1088 1.499 . S
C1086 H1066 0.950 . S
C1086 C1085 1.414 . S
C1086 C1087 1.374 . S
C1087 H1067 0.950 . S
C1087 C1083 1.385 . S
C1087 C1086 1.374 . S
C1088 C1085 1.499 . S
C1088 C1089 1.373 . S
C1088 C1090 1.389 . S
C1089 H1068 0.950 . S
C1089 C1088 1.373 . S
C1089 C1105 1.377 . S
C1090 C1088 1.389 . S
C1090 C1091 1.524 . S
C1090 C1104 1.377 . S
C1091 C1090 1.524 . S
C1091 C1092 1.397 . S
C1091 C1096 1.363 . S
C1092 H1069 0.950 . S
C1092 C1091 1.397 . S
C1092 C1093 1.334 . S
C1093 H1070 0.950 . S
C1093 C1092 1.334 . S
C1093 C1094 1.287 . S
C1094 C1093 1.287 . S
C1094 C1095 1.524 . S
C1094 H1113 0.913 . S
C1095 H1071 0.950 . S
C1095 C1094 1.524 . S
C1095 C1096 1.415 . S
C1096 H1072 0.950 . S
C1096 C1091 1.363 . S
C1096 C1095 1.415 . S
C1097 H1073 0.951 . S
C1097 C1098 1.366 . S
C1097 C1099 1.388 . S
C1098 C1097 1.366 . S
C1098 C1102 1.385 . S
C1099 H1074 0.951 . S
C1099 C1097 1.388 . S
C1099 C1100 1.366 . S
C1100 C1099 1.366 . S
C1100 C1101 1.414 . S
C1100 C1103 1.499 . S
C1101 H1075 0.950 . S
C1101 C1100 1.414 . S
C1101 C1102 1.374 . S
C1102 H1076 0.950 . S
C1102 C1098 1.385 . S
C1102 C1101 1.374 . S
C1103 C1100 1.499 . S
C1103 C1104 1.373 . S
C1103 C1105 1.389 . S
C1104 H1077 0.950 . S
C1104 C1090 1.377 . S
C1104 C1103 1.373 . S
C1105 C1089 1.377 . S
C1105 C1103 1.389 . S
C1105 C1106 1.524 . S
C1106 C1105 1.524 . S
C1106 C1107 1.397 . S
C1106 C1111 1.363 . S
C1107 H1078 0.950 . S
C1107 C1106 1.397 . S
C1107 C1108 1.334 . S
C1108 H1079 0.950 . S
C1108 C1107 1.334 . S
C1108 C1109 1.287 . S
C1109 C1108 1.287 . S
C1109 C1110 1.524 . S
C1109 H1112 0.999 . S
C1110 H1080 0.950 . S
C1110 C1109 1.524 . S
C1110 C1111 1.415 . S
C1111 H1081 0.950 . S
C1111 C1106 1.363 . S
C1111 C1110 1.415 . S
H1112 C1109 0.999 . S
H1113 C1094 0.913 . S
H1114 C1132 0.951 . S
H1115 C1134 0.951 . S
H1116 C1136 0.950 . S
H1117 C1137 0.950 . S
H1118 C1139 0.950 . S
H1119 C1142 0.950 . S
H1120 C1143 0.950 . S
H1121 C1145 0.950 . S
H1122 C1146 0.950 . S
H1123 C1147 0.951 . S
H1124 C1149 0.951 . S
H1125 C1151 0.950 . S
H1126 C1152 0.950 . S
H1127 C1154 0.950 . S
H1128 C1157 0.950 . S
H1129 C1158 0.950 . S
H1130 C1160 0.950 . S
H1131 C1161 0.950 . S
C1132 H1114 0.951 . S
C1132 C1133 1.366 . S
C1132 C1134 1.388 . S
C1133 C1132 1.366 . S
C1133 C1137 1.385 . S
C1134 H1115 0.951 . S
C1134 C1132 1.388 . S
C1134 C1135 1.366 . S
C1135 C1134 1.366 . S
C1135 C1136 1.414 . S
C1135 C1138 1.499 . S
C1136 H1116 0.950 . S
C1136 C1135 1.414 . S
C1136 C1137 1.374 . S
C1137 H1117 0.950 . S
C1137 C1133 1.385 . S
C1137 C1136 1.374 . S
C1138 C1135 1.499 . S
C1138 C1139 1.373 . S
C1138 C1140 1.389 . S
C1139 H1118 0.950 . S
C1139 C1138 1.373 . S
C1139 C1155 1.377 . S
C1140 C1138 1.389 . S
C1140 C1141 1.524 . S
C1140 C1154 1.377 . S
C1141 C1140 1.524 . S
C1141 C1142 1.397 . S
C1141 C1146 1.363 . S
C1142 H1119 0.950 . S
C1142 C1141 1.397 . S
C1142 C1143 1.334 . S
C1143 H1120 0.950 . S
C1143 C1142 1.334 . S
C1143 C1144 1.287 . S
C1144 C1143 1.287 . S
C1144 C1145 1.524 . S
C1144 H1163 0.913 . S
C1145 H1121 0.950 . S
C1145 C1144 1.524 . S
C1145 C1146 1.415 . S
C1146 H1122 0.950 . S
C1146 C1141 1.363 . S
C1146 C1145 1.415 . S
C1147 H1123 0.951 . S
C1147 C1148 1.366 . S
C1147 C1149 1.388 . S
C1148 C1147 1.366 . S
C1148 C1152 1.385 . S
C1149 H1124 0.951 . S
C1149 C1147 1.388 . S
C1149 C1150 1.366 . S
C1150 C1149 1.366 . S
C1150 C1151 1.414 . S
C1150 C1153 1.499 . S
C1151 H1125 0.950 . S
C1151 C1150 1.414 . S
C1151 C1152 1.374 . S
C1152 H1126 0.950 . S
C1152 C1148 1.385 . S
C1152 C1151 1.374 . S
C1153 C1150 1.499 . S
C1153 C1154 1.373 . S
C1153 C1155 1.389 . S
C1154 H1127 0.950 . S
C1154 C1140 1.377 . S
C1154 C1153 1.373 . S
C1155 C1139 1.377 . S
C1155 C1153 1.389 . S
C1155 C1156 1.524 . S
C1156 C1155 1.524 . S
C1156 C1157 1.397 . S
C1156 C1161 1.363 . S
C1157 H1128 0.950 . S
C1157 C1156 1.397 . S
C1157 C1158 1.334 . S
C1158 H1129 0.950 . S
C1158 C1157 1.334 . S
C1158 C1159 1.287 . S
C1159 C1158 1.287 . S
C1159 C1160 1.524 . S
C1159 H1162 0.999 . S
C1160 H1130 0.950 . S
C1160 C1159 1.524 . S
C1160 C1161 1.415 . S
C1161 H1131 0.950 . S
C1161 C1156 1.363 . S
C1161 C1160 1.415 . S
H1162 C1159 0.999 . S
H1163 C1144 0.913 . S
H1164 C1182 0.951 . S
H1165 C1184 0.951 . S
H1166 C1186 0.950 . S
H1167 C1187 0.950 . S
H1168 C1189 0.950 . S
H1169 C1192 0.950 . S
H1170 C1193 0.950 . S
H1171 C1195 0.950 . S
H1172 C1196 0.950 . S
H1173 C1197 0.951 . S
H1174 C1199 0.951 . S
H1175 C1201 0.950 . S
H1176 C1202 0.950 . S
H1177 C1204 0.950 . S
H1178 C1207 0.950 . S
H1179 C1208 0.950 . S
H1180 C1210 0.950 . S
H1181 C1211 0.950 . S
C1182 H1164 0.951 . S
C1182 C1183 1.366 . S
C1182 C1184 1.388 . S
C1183 C1182 1.366 . S
C1183 C1187 1.385 . S
C1184 H1165 0.951 . S
C1184 C1182 1.388 . S
C1184 C1185 1.366 . S
C1185 C1184 1.366 . S
C1185 C1186 1.414 . S
C1185 C1188 1.499 . S
C1186 H1166 0.950 . S
C1186 C1185 1.414 . S
C1186 C1187 1.374 . S
C1187 H1167 0.950 . S
C1187 C1183 1.385 . S
C1187 C1186 1.374 . S
C1188 C1185 1.499 . S
C1188 C1189 1.373 . S
C1188 C1190 1.389 . S
C1189 H1168 0.950 . S
C1189 C1188 1.373 . S
C1189 C1205 1.377 . S
C1190 C1188 1.389 . S
C1190 C1191 1.524 . S
C1190 C1204 1.377 . S
C1191 C1190 1.524 . S
C1191 C1192 1.397 . S
C1191 C1196 1.363 . S
C1192 H1169 0.950 . S
C1192 C1191 1.397 . S
C1192 C1193 1.334 . S
C1193 H1170 0.950 . S
C1193 C1192 1.334 . S
C1193 C1194 1.287 . S
C1194 C1193 1.287 . S
C1194 C1195 1.524 . S
C1194 H1213 0.913 . S
C1195 H1171 0.950 . S
C1195 C1194 1.524 . S
C1195 C1196 1.415 . S
C1196 H1172 0.950 . S
C1196 C1191 1.363 . S
C1196 C1195 1.415 . S
C1197 H1173 0.951 . S
C1197 C1198 1.366 . S
C1197 C1199 1.388 . S
C1198 C1197 1.366 . S
C1198 C1202 1.385 . S
C1199 H1174 0.951 . S
C1199 C1197 1.388 . S
C1199 C1200 1.366 . S
C1200 C1199 1.366 . S
C1200 C1201 1.414 . S
C1200 C1203 1.499 . S
C1201 H1175 0.950 . S
C1201 C1200 1.414 . S
C1201 C1202 1.374 . S
C1202 H1176 0.950 . S
C1202 C1198 1.385 . S
C1202 C1201 1.374 . S
C1203 C1200 1.499 . S
C1203 C1204 1.373 . S
C1203 C1205 1.389 . S
C1204 H1177 0.950 . S
C1204 C1190 1.377 . S
C1204 C1203 1.373 . S
C1205 C1189 1.377 . S
C1205 C1203 1.389 . S
C1205 C1206 1.524 . S
C1206 C1205 1.524 . S
C1206 C1207 1.397 . S
C1206 C1211 1.363 . S
C1207 H1178 0.950 . S
C1207 C1206 1.397 . S
C1207 C1208 1.334 . S
C1208 H1179 0.950 . S
C1208 C1207 1.334 . S
C1208 C1209 1.287 . S
C1209 C1208 1.287 . S
C1209 C1210 1.524 . S
C1209 H1212 0.999 . S
C1210 H1180 0.950 . S
C1210 C1209 1.524 . S
C1210 C1211 1.415 . S
C1211 H1181 0.950 . S
C1211 C1206 1.363 . S
C1211 C1210 1.415 . S
H1212 C1209 0.999 . S
H1213 C1194 0.913 . S
H1214 C1232 0.951 . S
H1215 C1234 0.951 . S
H1216 C1236 0.950 . S
H1217 C1237 0.950 . S
H1218 C1239 0.950 . S
H1219 C1242 0.950 . S
H1220 C1243 0.950 . S
H1221 C1245 0.950 . S
H1222 C1246 0.950 . S
H1223 C1247 0.951 . S
H1224 C1249 0.951 . S
H1225 C1251 0.950 . S
H1226 C1252 0.950 . S
H1227 C1254 0.950 . S
H1228 C1257 0.950 . S
H1229 C1258 0.950 . S
H1230 C1260 0.950 . S
H1231 C1261 0.950 . S
C1232 H1214 0.951 . S
C1232 C1233 1.366 . S
C1232 C1234 1.388 . S
C1233 C1232 1.366 . S
C1233 C1237 1.385 . S
C1234 H1215 0.951 . S
C1234 C1232 1.388 . S
C1234 C1235 1.366 . S
C1235 C1234 1.366 . S
C1235 C1236 1.414 . S
C1235 C1238 1.499 . S
C1236 H1216 0.950 . S
C1236 C1235 1.414 . S
C1236 C1237 1.374 . S
C1237 H1217 0.950 . S
C1237 C1233 1.385 . S
C1237 C1236 1.374 . S
C1238 C1235 1.499 . S
C1238 C1239 1.373 . S
C1238 C1240 1.389 . S
C1239 H1218 0.950 . S
C1239 C1238 1.373 . S
C1239 C1255 1.377 . S
C1240 C1238 1.389 . S
C1240 C1241 1.524 . S
C1240 C1254 1.377 . S
C1241 C1240 1.524 . S
C1241 C1242 1.397 . S
C1241 C1246 1.363 . S
C1242 H1219 0.950 . S
C1242 C1241 1.397 . S
C1242 C1243 1.334 . S
C1243 H1220 0.950 . S
C1243 C1242 1.334 . S
C1243 C1244 1.287 . S
C1244 C1243 1.287 . S
C1244 C1245 1.524 . S
C1244 H1263 0.913 . S
C1245 H1221 0.950 . S
C1245 C1244 1.524 . S
C1245 C1246 1.415 . S
C1246 H1222 0.950 . S
C1246 C1241 1.363 . S
C1246 C1245 1.415 . S
C1247 H1223 0.951 . S
C1247 C1248 1.366 . S
C1247 C1249 1.388 . S
C1248 C1247 1.366 . S
C1248 C1252 1.385 . S
C1249 H1224 0.951 . S
C1249 C1247 1.388 . S
C1249 C1250 1.366 . S
C1250 C1249 1.366 . S
C1250 C1251 1.414 . S
C1250 C1253 1.499 . S
C1251 H1225 0.950 . S
C1251 C1250 1.414 . S
C1251 C1252 1.374 . S
C1252 H1226 0.950 . S
C1252 C1248 1.385 . S
C1252 C1251 1.374 . S
C1253 C1250 1.499 . S
C1253 C1254 1.373 . S
C1253 C1255 1.389 . S
C1254 H1227 0.950 . S
C1254 C1240 1.377 . S
C1254 C1253 1.373 . S
C1255 C1239 1.377 . S
C1255 C1253 1.389 . S
C1255 C1256 1.524 . S
C1256 C1255 1.524 . S
C1256 C1257 1.397 . S
C1256 C1261 1.363 . S
C1257 H1228 0.950 . S
C1257 C1256 1.397 . S
C1257 C1258 1.334 . S
C1258 H1229 0.950 . S
C1258 C1257 1.334 . S
C1258 C1259 1.287 . S
C1259 C1258 1.287 . S
C1259 C1260 1.524 . S
C1259 H1262 0.999 . S
C1260 H1230 0.950 . S
C1260 C1259 1.524 . S
C1260 C1261 1.415 . S
C1261 H1231 0.950 . S
C1261 C1256 1.363 . S
C1261 C1260 1.415 . S
H1262 C1259 0.999 . S
H1263 C1244 0.913 . S
C283 N145 1.627 . S
C298 N13 1.627 . S
C333 N46 1.628 . S
C348 N178 1.628 . S
C383 N79 1.627 . S
C398 N211 1.627 . S
C433 N244 1.626 . S
C448 N112 1.626 . S
C483 N233 0.418 . S
C498 C21 0.425 . S
C533 N134 0.418 . S
C548 C54 0.428 . S
C583 N167 0.418 . S
C598 C87 0.428 . S
C633 N200 0.418 . S
C648 C120 0.428 . S
C683 C153 0.425 . S
C698 N101 0.418 . S
C733 C186 0.428 . S
C748 N2 0.420 . S
C783 C219 0.429 . S
C798 N35 0.420 . S
C833 C252 0.426 . S
C848 N68 0.417 . S
C883 C18 1.473 . S
C898 C84 1.473 . S
C933 C51 1.473 . S
C948 C117 1.473 . S
C983 C216 1.473 . S
C998 C150 1.473 . S
C1033 C249 1.473 . S
C1048 C183 1.473 . S
C1083 C73 0.654 . S
C1098 C7 0.651 . S
C1133 C40 0.653 . S
C1148 C106 0.651 . S
C1183 C205 0.654 . S
C1198 C139 0.651 . S
C1233 C238 0.654 . S
C1248 C172 0.651 . S
