# Generated by pormake.
# Topology afi, (4)-cn, num edge types: 1
# Building blocks:
#     Node 0, Type 0, BuildingBlock: UXUYUI_clean_sbu_0, # of connection points: 4
#     Node 1, Type 0, BuildingBlock: UXUYUI_clean_sbu_0, # of connection points: 4
#     Node 2, Type 0, BuildingBlock: UXUYUI_clean_sbu_0, # of connection points: 4
#     Node 3, Type 0, BuildingBlock: UXUYUI_clean_sbu_0, # of connection points: 4
#     Node 4, Type 0, BuildingBlock: UXUYUI_clean_sbu_0, # of connection points: 4
#     Node 5, Type 0, BuildingBlock: UXUYUI_clean_sbu_0, # of connection points: 4
#     Node 6, Type 0, BuildingBlock: UXUYUI_clean_sbu_0, # of connection points: 4
#     Node 7, Type 0, BuildingBlock: UXUYUI_clean_sbu_0, # of connection points: 4
#     Node 8, Type 0, BuildingBlock: UXUYUI_clean_sbu_0, # of connection points: 4
#     Node 9, Type 0, BuildingBlock: UXUYUI_clean_sbu_0, # of connection points: 4
#     Node 10, Type 0, BuildingBlock: UXUYUI_clean_sbu_0, # of connection points: 4
#     Node 11, Type 0, BuildingBlock: UXUYUI_clean_sbu_0, # of connection points: 4
#     Node 12, Type 0, BuildingBlock: UXUYUI_clean_sbu_0, # of connection points: 4
#     Node 13, Type 0, BuildingBlock: UXUYUI_clean_sbu_0, # of connection points: 4
#     Node 14, Type 0, BuildingBlock: UXUYUI_clean_sbu_0, # of connection points: 4
#     Node 15, Type 0, BuildingBlock: UXUYUI_clean_sbu_0, # of connection points: 4
#     Node 16, Type 0, BuildingBlock: UXUYUI_clean_sbu_0, # of connection points: 4
#     Node 17, Type 0, BuildingBlock: UXUYUI_clean_sbu_0, # of connection points: 4
#     Node 18, Type 0, BuildingBlock: UXUYUI_clean_sbu_0, # of connection points: 4
#     Node 19, Type 0, BuildingBlock: UXUYUI_clean_sbu_0, # of connection points: 4
#     Node 20, Type 0, BuildingBlock: UXUYUI_clean_sbu_0, # of connection points: 4
#     Node 21, Type 0, BuildingBlock: UXUYUI_clean_sbu_0, # of connection points: 4
#     Node 22, Type 0, BuildingBlock: UXUYUI_clean_sbu_0, # of connection points: 4
#     Node 23, Type 0, BuildingBlock: UXUYUI_clean_sbu_0, # of connection points: 4
#     Edge 24, Type (0, 0), BuildingBlock: TEMPAE_clean_linker_10, # of connection points: 2
#     Edge 25, Type (0, 0), BuildingBlock: TEMPAE_clean_linker_10, # of connection points: 2
#     Edge 26, Type (0, 0), BuildingBlock: TEMPAE_clean_linker_10, # of connection points: 2
#     Edge 27, Type (0, 0), BuildingBlock: TEMPAE_clean_linker_10, # of connection points: 2
#     Edge 28, Type (0, 0), BuildingBlock: TEMPAE_clean_linker_10, # of connection points: 2
#     Edge 29, Type (0, 0), BuildingBlock: TEMPAE_clean_linker_10, # of connection points: 2
#     Edge 30, Type (0, 0), BuildingBlock: TEMPAE_clean_linker_10, # of connection points: 2
#     Edge 31, Type (0, 0), BuildingBlock: TEMPAE_clean_linker_10, # of connection points: 2
#     Edge 32, Type (0, 0), BuildingBlock: TEMPAE_clean_linker_10, # of connection points: 2
#     Edge 33, Type (0, 0), BuildingBlock: TEMPAE_clean_linker_10, # of connection points: 2
#     Edge 34, Type (0, 0), BuildingBlock: TEMPAE_clean_linker_10, # of connection points: 2
#     Edge 35, Type (0, 0), BuildingBlock: TEMPAE_clean_linker_10, # of connection points: 2
#     Edge 36, Type (0, 0), BuildingBlock: TEMPAE_clean_linker_10, # of connection points: 2
#     Edge 37, Type (0, 0), BuildingBlock: TEMPAE_clean_linker_10, # of connection points: 2
#     Edge 38, Type (0, 0), BuildingBlock: TEMPAE_clean_linker_10, # of connection points: 2
#     Edge 39, Type (0, 0), BuildingBlock: TEMPAE_clean_linker_10, # of connection points: 2
#     Edge 40, Type (0, 0), BuildingBlock: TEMPAE_clean_linker_10, # of connection points: 2
#     Edge 41, Type (0, 0), BuildingBlock: TEMPAE_clean_linker_10, # of connection points: 2
#     Edge 42, Type (0, 0), BuildingBlock: TEMPAE_clean_linker_10, # of connection points: 2
#     Edge 43, Type (0, 0), BuildingBlock: TEMPAE_clean_linker_10, # of connection points: 2
#     Edge 44, Type (0, 0), BuildingBlock: TEMPAE_clean_linker_10, # of connection points: 2
#     Edge 45, Type (0, 0), BuildingBlock: TEMPAE_clean_linker_10, # of connection points: 2
#     Edge 46, Type (0, 0), BuildingBlock: TEMPAE_clean_linker_10, # of connection points: 2
#     Edge 47, Type (0, 0), BuildingBlock: TEMPAE_clean_linker_10, # of connection points: 2
#     Edge 48, Type (0, 0), BuildingBlock: TEMPAE_clean_linker_10, # of connection points: 2
#     Edge 49, Type (0, 0), BuildingBlock: TEMPAE_clean_linker_10, # of connection points: 2
#     Edge 50, Type (0, 0), BuildingBlock: TEMPAE_clean_linker_10, # of connection points: 2
#     Edge 51, Type (0, 0), BuildingBlock: TEMPAE_clean_linker_10, # of connection points: 2
#     Edge 52, Type (0, 0), BuildingBlock: TEMPAE_clean_linker_10, # of connection points: 2
#     Edge 53, Type (0, 0), BuildingBlock: TEMPAE_clean_linker_10, # of connection points: 2
#     Edge 54, Type (0, 0), BuildingBlock: TEMPAE_clean_linker_10, # of connection points: 2
#     Edge 55, Type (0, 0), BuildingBlock: TEMPAE_clean_linker_10, # of connection points: 2
#     Edge 56, Type (0, 0), BuildingBlock: TEMPAE_clean_linker_10, # of connection points: 2
#     Edge 57, Type (0, 0), BuildingBlock: TEMPAE_clean_linker_10, # of connection points: 2
#     Edge 58, Type (0, 0), BuildingBlock: TEMPAE_clean_linker_10, # of connection points: 2
#     Edge 59, Type (0, 0), BuildingBlock: TEMPAE_clean_linker_10, # of connection points: 2
#     Edge 60, Type (0, 0), BuildingBlock: TEMPAE_clean_linker_10, # of connection points: 2
#     Edge 61, Type (0, 0), BuildingBlock: TEMPAE_clean_linker_10, # of connection points: 2
#     Edge 62, Type (0, 0), BuildingBlock: TEMPAE_clean_linker_10, # of connection points: 2
#     Edge 63, Type (0, 0), BuildingBlock: TEMPAE_clean_linker_10, # of connection points: 2
#     Edge 64, Type (0, 0), BuildingBlock: TEMPAE_clean_linker_10, # of connection points: 2
#     Edge 65, Type (0, 0), BuildingBlock: TEMPAE_clean_linker_10, # of connection points: 2
#     Edge 66, Type (0, 0), BuildingBlock: TEMPAE_clean_linker_10, # of connection points: 2
#     Edge 67, Type (0, 0), BuildingBlock: TEMPAE_clean_linker_10, # of connection points: 2
#     Edge 68, Type (0, 0), BuildingBlock: TEMPAE_clean_linker_10, # of connection points: 2
#     Edge 69, Type (0, 0), BuildingBlock: TEMPAE_clean_linker_10, # of connection points: 2
#     Edge 70, Type (0, 0), BuildingBlock: TEMPAE_clean_linker_10, # of connection points: 2
#     Edge 71, Type (0, 0), BuildingBlock: TEMPAE_clean_linker_10, # of connection points: 2
# Relax obj value: 0.134
# Max RMSD: 0.127
# Mean RMSD: 0.126
data_MOF--net-afi--node1-UXUYUI_clean_sbu_0--edge1-TEMPAE_clean_linker_10
_symmetry_space_group_name_H-M    P1
_symmetry_Int_Tables_number       1
_symmetry_cell_setting            triclinic
loop_
_symmetry_equiv_pos_as_xyz
'x, y, z'
_cell_length_a     97.757907
_cell_length_b     97.753633
_cell_length_c     60.889619
_cell_angle_alpha  90.001612
_cell_angle_beta   90.000803
_cell_angle_gamma 119.99902
loop_
_atom_site_label
_atom_site_type_symbol
_atom_site_fract_x
_atom_site_fract_y
_atom_site_fract_z
_atom_type_partial_charge
Li0 Li 0.46621 0.11996 0.19238 0.0
Li1 Li 0.43735 0.10363 0.19323 0.0
Li2 Li 0.45102 0.11874 0.16034 0.0
Li3 Li 0.44919 0.13169 0.19353 0.0
C4 C 0.45983 0.09265 0.17368 0.0
N5 N 0.47564 0.07583 0.17424 0.0
C6 C 0.45418 0.07902 0.18649 0.0
C7 C 0.47344 0.09766 0.16102 0.0
C8 C 0.46235 0.07069 0.18657 0.0
C9 C 0.48129 0.08902 0.16158 0.0
C10 C 0.45309 0.12656 0.23449 0.0
C11 C 0.44202 0.13567 0.26242 0.0
N12 N 0.45671 0.14489 0.27097 0.0
C13 C 0.46806 0.13609 0.24359 0.0
C14 C 0.43994 0.12628 0.24403 0.0
C15 C 0.46964 0.14527 0.26203 0.0
C16 C 0.49937 0.13474 0.1986 0.0
N17 N 0.48527 0.12167 0.20304 0.0
C18 C 0.49795 0.11071 0.22436 0.0
C19 C 0.4843 0.10988 0.21594 0.0
C20 C 0.51278 0.12407 0.22012 0.0
C21 C 0.51333 0.13624 0.20709 0.0
H22 H 0.49976 0.14414 0.18877 0.0
H23 H 0.47289 0.09983 0.21973 0.0
C24 C 0.41271 0.07187 0.18968 0.0
N25 N 0.42071 0.0841 0.20384 0.0
C26 C 0.40159 0.05699 0.19761 0.0
C27 C 0.40696 0.06768 0.23444 0.0
C28 C 0.41794 0.08234 0.2258 0.0
C29 C 0.39885 0.0547 0.22032 0.0
H30 H 0.4154 0.07356 0.17233 0.0
H31 H 0.42462 0.09219 0.2367 0.0
C32 C 0.47585 0.14795 0.15846 0.0
N33 N 0.49078 0.16794 0.12349 0.0
C34 C 0.47304 0.16035 0.15394 0.0
C35 C 0.48636 0.1458 0.14534 0.0
C36 C 0.48069 0.17031 0.13616 0.0
C37 C 0.49375 0.156 0.12768 0.0
C38 C 0.41614 0.1067 0.17141 0.0
C39 C 0.41071 0.09849 0.15161 0.0
C40 C 0.40543 0.10401 0.18836 0.0
C41 C 0.39463 0.08761 0.14915 0.0
C42 C 0.38945 0.09301 0.18527 0.0
N43 N 0.38443 0.08511 0.16589 0.0
C44 C 0.45235 0.10814 0.11756 0.0
C45 C 0.44866 0.1303 0.11893 0.0
C46 C 0.45216 0.1083 0.09464 0.0
N47 N 0.45076 0.11914 0.12915 0.0
C48 C 0.44866 0.13107 0.09605 0.0
C49 C 0.45043 0.11996 0.08353 0.0
H50 H 0.45361 0.09914 0.12611 0.0
H51 H 0.44703 0.13866 0.12858 0.0
C52 C 0.46118 0.16174 0.21222 0.0
N53 N 0.44784 0.14916 0.20425 0.0
C54 C 0.4607 0.17474 0.22068 0.0
C55 C 0.43281 0.16168 0.21222 0.0
C56 C 0.43382 0.14891 0.20396 0.0
C57 C 0.44637 0.1748 0.22079 0.0
H58 H 0.47219 0.16163 0.212 0.0
H59 H 0.42344 0.13878 0.19738 0.0
O60 O 0.45209 0.10107 0.17355 0.0
O61 O 0.45134 0.11778 0.21612 0.0
O62 O 0.46833 0.13794 0.17562 0.0
O63 O 0.43186 0.11721 0.17428 0.0
H64 H 0.44371 0.075 0.19647 0.0
H65 H 0.47796 0.10816 0.15099 0.0
H66 H 0.45817 0.06016 0.1965 0.0
H67 H 0.49189 0.09281 0.15196 0.0
H68 H 0.43197 0.13567 0.26986 0.0
H69 H 0.47838 0.13651 0.23639 0.0
H70 H 0.42828 0.1191 0.23706 0.0
H71 H 0.48117 0.15275 0.26919 0.0
H72 H 0.49685 0.1009 0.23399 0.0
H73 H 0.52438 0.14693 0.20376 0.0
H74 H 0.39576 0.04724 0.1862 0.0
H75 H 0.40511 0.06643 0.25203 0.0
H76 H 0.46491 0.16215 0.16388 0.0
H77 H 0.48871 0.1363 0.14867 0.0
H78 H 0.47856 0.1799 0.13238 0.0
H79 H 0.50183 0.15442 0.11731 0.0
H80 H 0.41883 0.10039 0.13834 0.0
H81 H 0.40945 0.11015 0.20387 0.0
H82 H 0.39028 0.08113 0.13395 0.0
H83 H 0.38105 0.09072 0.1983 0.0
H84 H 0.45316 0.09923 0.08578 0.0
H85 H 0.44745 0.14037 0.08831 0.0
H86 H 0.47148 0.18472 0.22683 0.0
H87 H 0.4215 0.16122 0.21215 0.0
Li88 Li 0.3455 0.46814 0.1909 0.0
Li89 Li 0.33476 0.43941 0.19354 0.0
Li90 Li 0.33191 0.45235 0.15925 0.0
Li91 Li 0.31626 0.44974 0.19172 0.0
C92 C 0.36744 0.46309 0.17279 0.0
N93 N 0.40005 0.48053 0.17282 0.0
C94 C 0.37616 0.45837 0.18574 0.0
C95 C 0.3753 0.47655 0.15964 0.0
C96 C 0.39264 0.46738 0.18557 0.0
C97 C 0.39179 0.48525 0.15995 0.0
C98 C 0.3284 0.44912 0.23586 0.0
C99 C 0.3103 0.43116 0.26289 0.0
N100 N 0.32034 0.44015 0.27912 0.0
C101 C 0.33848 0.45826 0.2528 0.0
C102 C 0.31415 0.43551 0.24093 0.0
C103 C 0.33423 0.4535 0.27456 0.0
C104 C 0.36336 0.50156 0.19592 0.0
N105 N 0.36225 0.48758 0.20152 0.0
C106 C 0.38559 0.5008 0.22335 0.0
C107 C 0.37292 0.48695 0.21513 0.0
C108 C 0.38713 0.51549 0.21792 0.0
C109 C 0.37576 0.51574 0.20402 0.0
H110 H 0.35455 0.50169 0.18532 0.0
H111 H 0.37159 0.47564 0.21957 0.0
C112 C 0.33711 0.41173 0.19217 0.0
N113 N 0.33897 0.42387 0.20513 0.0
C114 C 0.34172 0.40113 0.19976 0.0
C115 C 0.34959 0.4155 0.23404 0.0
C116 C 0.34502 0.42588 0.22572 0.0
C117 C 0.34831 0.40312 0.22086 0.0
H118 H 0.33248 0.41057 0.17571 0.0
H119 H 0.34682 0.43584 0.23549 0.0
C120 C 0.32598 0.47636 0.15669 0.0
N121 N 0.32019 0.49092 0.12193 0.0
C122 C 0.3107 0.47355 0.15283 0.0
C123 C 0.33836 0.48674 0.14308 0.0
C124 C 0.308 0.481 0.13513 0.0
C125 C 0.33517 0.49392 0.12552 0.0
C126 C 0.30237 0.41833 0.17335 0.0
C127 C 0.29246 0.41426 0.15504 0.0
C128 C 0.29841 0.40755 0.19058 0.0
C129 C 0.27851 0.39965 0.15458 0.0
C130 C 0.28437 0.39305 0.1895 0.0
N131 N 0.27478 0.38945 0.17168 0.0
C132 C 0.344 0.45249 0.11707 0.0
C133 C 0.3187 0.45023 0.11714 0.0
C134 C 0.34412 0.4523 0.09414 0.0
N135 N 0.33146 0.45159 0.12803 0.0
C136 C 0.31841 0.45022 0.09424 0.0
C137 C 0.33125 0.45129 0.08248 0.0
H138 H 0.35392 0.45339 0.12613 0.0
H139 H 0.30876 0.44924 0.12625 0.0
C140 C 0.29794 0.45591 0.22073 0.0
N141 N 0.29699 0.44742 0.20254 0.0
C142 C 0.2844 0.45512 0.2295 0.0
C143 C 0.26915 0.43723 0.20026 0.0
C144 C 0.283 0.43828 0.19213 0.0
C145 C 0.26976 0.4457 0.21922 0.0
H146 H 0.30929 0.46342 0.22833 0.0
H147 H 0.2826 0.43204 0.17733 0.0
O148 O 0.35129 0.45455 0.17299 0.0
O149 O 0.33246 0.45363 0.21446 0.0
O150 O 0.32881 0.46905 0.17381 0.0
O151 O 0.31616 0.43252 0.17393 0.0
H152 H 0.37028 0.44794 0.19593 0.0
H153 H 0.36874 0.48029 0.1494 0.0
H154 H 0.39954 0.46392 0.19561 0.0
H155 H 0.39803 0.49576 0.14997 0.0
H156 H 0.29929 0.42066 0.26704 0.0
H157 H 0.34951 0.46889 0.24919 0.0
H158 H 0.30603 0.42854 0.2281 0.0
H159 H 0.34195 0.46042 0.28784 0.0
H160 H 0.39416 0.49998 0.23369 0.0
H161 H 0.37629 0.52673 0.19967 0.0
H162 H 0.34071 0.3919 0.1889 0.0
H163 H 0.35439 0.41739 0.2505 0.0
H164 H 0.301 0.46563 0.16328 0.0
H165 H 0.35027 0.48913 0.14594 0.0
H166 H 0.29621 0.47886 0.13186 0.0
H167 H 0.34462 0.50189 0.11474 0.0
H168 H 0.29543 0.42234 0.14141 0.0
H169 H 0.30616 0.41023 0.20455 0.0
H170 H 0.27066 0.39642 0.1406 0.0
H171 H 0.28114 0.38463 0.20277 0.0
H172 H 0.35426 0.4532 0.08561 0.0
H173 H 0.30819 0.44921 0.08581 0.0
H174 H 0.28542 0.46209 0.24389 0.0
H175 H 0.25808 0.42985 0.19183 0.0
Li176 Li 0.87725 0.34636 0.18961 0.0
Li177 Li 0.89483 0.3354 0.19232 0.0
Li178 Li 0.88069 0.33343 0.15835 0.0
Li179 Li 0.86687 0.31789 0.19044 0.0
C180 C 0.90452 0.36867 0.17499 0.0
N181 N 0.91871 0.40097 0.18085 0.0
C182 C 0.91701 0.37638 0.18982 0.0
C183 C 0.8993 0.37742 0.16305 0.0
C184 C 0.92403 0.39271 0.19254 0.0
C185 C 0.9066 0.39373 0.16629 0.0
C186 C 0.86987 0.32625 0.2314 0.0
C187 C 0.86127 0.30634 0.25966 0.0
N188 N 0.85017 0.31001 0.26609 0.0
C189 C 0.8584 0.32985 0.23831 0.0
C190 C 0.87137 0.31444 0.24218 0.0
C191 C 0.84855 0.3215 0.25589 0.0
C192 C 0.86343 0.36616 0.19149 0.0
N193 N 0.87437 0.36303 0.20022 0.0
C194 C 0.88292 0.38451 0.22538 0.0
C195 C 0.88387 0.37173 0.21704 0.0
C196 C 0.87194 0.38824 0.21647 0.0
C197 C 0.862 0.37881 0.19943 0.0
H198 H 0.85588 0.35891 0.17833 0.0
H199 H 0.89229 0.36878 0.22386 0.0
C200 C 0.92678 0.34301 0.19109 0.0
N201 N 0.9143 0.33924 0.20457 0.0
C202 C 0.94152 0.34713 0.19992 0.0
C203 C 0.93031 0.34354 0.2363 0.0
C204 C 0.91575 0.33934 0.22677 0.0
C205 C 0.94345 0.34766 0.22281 0.0
H206 H 0.92538 0.34325 0.17351 0.0
H207 H 0.90572 0.33662 0.2371 0.0
C208 C 0.85159 0.32679 0.15275 0.0
N209 N 0.83463 0.31985 0.11406 0.0
C210 C 0.84132 0.31108 0.14684 0.0
C211 C 0.85321 0.33897 0.13901 0.0
C212 C 0.83283 0.30782 0.12722 0.0
C213 C 0.84455 0.33521 0.1195 0.0
C214 C 0.89371 0.3115 0.17136 0.0
C215 C 0.90251 0.31417 0.15213 0.0
C216 C 0.89626 0.30404 0.1892 0.0
C217 C 0.91376 0.30935 0.1511 0.0
C218 C 0.90764 0.29943 0.18753 0.0
N219 N 0.91608 0.30216 0.16867 0.0
C220 C 0.88864 0.34655 0.11548 0.0
C221 C 0.8737 0.31858 0.11709 0.0
C222 C 0.8882 0.34614 0.09257 0.0
N223 N 0.88129 0.3329 0.12718 0.0
C224 C 0.87304 0.31762 0.09421 0.0
C225 C 0.88024 0.33154 0.08168 0.0
H226 H 0.89471 0.35775 0.12392 0.0
H227 H 0.86797 0.30793 0.12687 0.0
C228 C 0.83581 0.29838 0.20448 0.0
N229 N 0.84956 0.29858 0.20031 0.0
C230 C 0.8227 0.28465 0.21217 0.0
C231 C 0.83818 0.2716 0.2112 0.0
C232 C 0.85096 0.28556 0.20334 0.0
C233 C 0.82382 0.27106 0.21567 0.0
H234 H 0.83508 0.30895 0.20193 0.0
H235 H 0.862 0.28603 0.19973 0.0
O236 O 0.89725 0.35263 0.17244 0.0
O237 O 0.8793 0.33394 0.2138 0.0
O238 O 0.86032 0.33022 0.17161 0.0
O239 O 0.88275 0.31627 0.17278 0.0
H240 H 0.92117 0.36983 0.1993 0.0
H241 H 0.8895 0.37165 0.15176 0.0
H242 H 0.93367 0.39881 0.20403 0.0
H243 H 0.90259 0.40062 0.15732 0.0
H244 H 0.86222 0.2971 0.26804 0.0
H245 H 0.85696 0.33884 0.23003 0.0
H246 H 0.88007 0.31138 0.23689 0.0
H247 H 0.83957 0.32411 0.26135 0.0
H248 H 0.89061 0.39131 0.23878 0.0
H249 H 0.85342 0.38133 0.19209 0.0
H250 H 0.95145 0.3505 0.18899 0.0
H251 H 0.93134 0.34381 0.25403 0.0
H252 H 0.84006 0.30149 0.15711 0.0
H253 H 0.86128 0.35118 0.14315 0.0
H254 H 0.82489 0.29572 0.1224 0.0
H255 H 0.84579 0.34452 0.10863 0.0
H256 H 0.90081 0.32003 0.13823 0.0
H257 H 0.88975 0.3021 0.20432 0.0
H258 H 0.92069 0.31139 0.13635 0.0
H259 H 0.90982 0.29376 0.20126 0.0
H260 H 0.89408 0.35713 0.08347 0.0
H261 H 0.8667 0.30613 0.08643 0.0
H262 H 0.81187 0.28473 0.21564 0.0
H263 H 0.83943 0.2613 0.21353 0.0
Li264 Li 0.5602 0.89448 0.1953 0.0
Li265 Li 0.53077 0.87782 0.19518 0.0
Li266 Li 0.54802 0.86695 0.19655 0.0
Li267 Li 0.5472 0.87955 0.1623 0.0
C268 C 0.54475 0.87381 0.2386 0.0
N269 N 0.54222 0.85952 0.2788 0.0
C270 C 0.53066 0.86741 0.25053 0.0
C271 C 0.55766 0.87322 0.24741 0.0
C272 C 0.52958 0.86017 0.27074 0.0
C273 C 0.55612 0.86586 0.26765 0.0
C274 C 0.53726 0.90135 0.16208 0.0
C275 C 0.51529 0.89527 0.13813 0.0
N276 N 0.52204 0.91083 0.13281 0.0
C277 C 0.544 0.91726 0.15634 0.0
C278 C 0.52281 0.89023 0.15288 0.0
C279 C 0.53611 0.92183 0.14153 0.0
C280 C 0.58364 0.92669 0.19144 0.0
N281 N 0.57683 0.9142 0.20543 0.0
C282 C 0.5918 0.93046 0.23552 0.0
C283 C 0.58085 0.91575 0.22702 0.0
C284 C 0.59859 0.94373 0.22169 0.0
C285 C 0.59466 0.94166 0.19926 0.0
H286 H 0.58013 0.9251 0.17436 0.0
H287 H 0.57518 0.90568 0.23781 0.0
C288 C 0.49949 0.86271 0.21175 0.0
N289 N 0.51165 0.8767 0.20465 0.0
C290 C 0.48565 0.86181 0.21965 0.0
C291 C 0.49697 0.88969 0.2123 0.0
C292 C 0.51069 0.8901 0.20494 0.0
C293 C 0.48422 0.87543 0.22 0.0
H294 H 0.50075 0.85236 0.212 0.0
H295 H 0.52062 0.90115 0.19958 0.0
C296 C 0.58202 0.89027 0.1782 0.0
N297 N 0.61441 0.90981 0.18075 0.0
C298 C 0.59024 0.90072 0.1611 0.0
C299 C 0.59035 0.88957 0.19641 0.0
C300 C 0.60659 0.91056 0.16273 0.0
C301 C 0.6067 0.89959 0.19746 0.0
C302 C 0.52529 0.84524 0.17241 0.0
C303 C 0.53575 0.84197 0.16099 0.0
C304 C 0.51099 0.83276 0.18006 0.0
C305 C 0.5318 0.82628 0.15763 0.0
C306 C 0.50747 0.81722 0.17636 0.0
N307 N 0.51787 0.81433 0.16535 0.0
C308 C 0.53751 0.83905 0.22178 0.0
C309 C 0.56097 0.84687 0.20153 0.0
C310 C 0.53788 0.82594 0.23002 0.0
N311 N 0.54909 0.84932 0.2081 0.0
C312 C 0.56164 0.83372 0.20903 0.0
C313 C 0.55004 0.82306 0.22361 0.0
H314 H 0.52792 0.84101 0.22622 0.0
H315 H 0.56974 0.85492 0.19006 0.0
C316 C 0.55701 0.89371 0.12043 0.0
N317 N 0.54708 0.87999 0.13094 0.0
C318 C 0.55728 0.89441 0.09751 0.0
C319 C 0.53648 0.8671 0.09666 0.0
C320 C 0.53666 0.86692 0.11957 0.0
C321 C 0.54703 0.88092 0.08529 0.0
H322 H 0.56466 0.90415 0.12986 0.0
H323 H 0.52833 0.85638 0.12821 0.0
O324 O 0.54596 0.8809 0.21871 0.0
O325 O 0.54499 0.89664 0.17622 0.0
O326 O 0.56593 0.88082 0.17717 0.0
O327 O 0.52923 0.86057 0.17639 0.0
H328 H 0.52067 0.86808 0.24436 0.0
H329 H 0.56871 0.87825 0.23866 0.0
H330 H 0.51871 0.8551 0.28005 0.0
H331 H 0.56598 0.86519 0.2745 0.0
H332 H 0.50411 0.8868 0.13087 0.0
H333 H 0.55521 0.92599 0.16325 0.0
H334 H 0.51749 0.87784 0.157 0.0
H335 H 0.54117 0.93411 0.13695 0.0
H336 H 0.59464 0.93151 0.25285 0.0
H337 H 0.59948 0.95161 0.18808 0.0
H338 H 0.47635 0.85063 0.22588 0.0
H339 H 0.4964 0.90047 0.21192 0.0
H340 H 0.58409 0.9013 0.14674 0.0
H341 H 0.58429 0.88136 0.20959 0.0
H342 H 0.61305 0.91878 0.14967 0.0
H343 H 0.61325 0.89922 0.21154 0.0
H344 H 0.54692 0.85148 0.15505 0.0
H345 H 0.50269 0.83499 0.18877 0.0
H346 H 0.53985 0.82361 0.14898 0.0
H347 H 0.49648 0.80746 0.18227 0.0
H348 H 0.52875 0.81821 0.24139 0.0
H349 H 0.57099 0.83181 0.20311 0.0
H350 H 0.56557 0.90535 0.08947 0.0
H351 H 0.52803 0.85657 0.08796 0.0
Li352 Li 0.65421 0.53183 0.19202 0.0
Li353 Li 0.66648 0.56051 0.19459 0.0
Li354 Li 0.66763 0.54788 0.16055 0.0
Li355 Li 0.6829 0.5489 0.19274 0.0
C356 C 0.63284 0.53796 0.17681 0.0
N357 N 0.6004 0.52078 0.18149 0.0
C358 C 0.62538 0.54218 0.19283 0.0
C359 C 0.6238 0.52505 0.1631 0.0
C360 C 0.60897 0.53334 0.19493 0.0
C361 C 0.60742 0.5165 0.16577 0.0
C362 C 0.67449 0.54394 0.23393 0.0
C363 C 0.69502 0.55447 0.2614 0.0
N364 N 0.68983 0.5396 0.26904 0.0
C365 C 0.66935 0.52876 0.24207 0.0
C366 C 0.6874 0.55692 0.2437 0.0
C367 C 0.67726 0.52682 0.25984 0.0
C368 C 0.63319 0.49851 0.19273 0.0
N369 N 0.63691 0.51253 0.20222 0.0
C370 C 0.61568 0.49962 0.22778 0.0
C371 C 0.62854 0.51332 0.21951 0.0
C372 C 0.61146 0.48494 0.21826 0.0
C373 C 0.62041 0.48449 0.20049 0.0
H374 H 0.64019 0.49819 0.17924 0.0
H375 H 0.63189 0.52465 0.22685 0.0
C376 C 0.6579 0.58398 0.19299 0.0
N377 N 0.66358 0.57686 0.20641 0.0
C378 C 0.65416 0.59496 0.20147 0.0
C379 C 0.66256 0.59137 0.2373 0.0
C380 C 0.6661 0.58042 0.22814 0.0
C381 C 0.65622 0.59859 0.224 0.0
H382 H 0.6558 0.58071 0.17584 0.0
H383 H 0.67042 0.57443 0.23848 0.0
C384 C 0.67248 0.52366 0.15574 0.0
N385 N 0.67784 0.51087 0.11849 0.0
C386 C 0.68762 0.52627 0.1512 0.0
C387 C 0.66005 0.51446 0.1414 0.0
C388 C 0.69009 0.5197 0.13227 0.0
C389 C 0.66301 0.50814 0.12262 0.0
C390 C 0.69025 0.58243 0.17313 0.0
C391 C 0.68675 0.58824 0.15426 0.0
C392 C 0.69857 0.59274 0.19033 0.0
C393 C 0.69157 0.6043 0.15297 0.0
C394 C 0.70316 0.60871 0.18842 0.0
N395 N 0.69959 0.61411 0.16994 0.0
C396 C 0.65526 0.5475 0.11827 0.0
C397 C 0.68135 0.55171 0.11875 0.0
C398 C 0.65541 0.54802 0.09535 0.0
N399 N 0.66805 0.54914 0.1294 0.0
C400 C 0.68189 0.55197 0.09586 0.0
C401 C 0.66878 0.55007 0.08394 0.0
H402 H 0.64496 0.54577 0.12718 0.0
H403 H 0.69149 0.55338 0.12808 0.0
C404 C 0.70145 0.53675 0.20933 0.0
N405 N 0.70195 0.5502 0.20235 0.0
C406 C 0.71509 0.53722 0.21712 0.0
C407 C 0.72954 0.56534 0.21009 0.0
C408 C 0.71561 0.56432 0.20241 0.0
C409 C 0.72937 0.55167 0.21764 0.0
H410 H 0.69039 0.52568 0.20897 0.0
H411 H 0.71568 0.57478 0.19654 0.0
O412 O 0.64893 0.54623 0.17481 0.0
O413 O 0.66711 0.54606 0.21624 0.0
O414 O 0.66988 0.53018 0.17402 0.0
O415 O 0.68534 0.56669 0.17491 0.0
H416 H 0.63219 0.55203 0.20372 0.0
H417 H 0.62939 0.52158 0.1507 0.0
H418 H 0.60304 0.53642 0.20733 0.0
H419 H 0.60028 0.50642 0.15536 0.0
H420 H 0.70511 0.56439 0.26899 0.0
H421 H 0.65948 0.51857 0.23461 0.0
H422 H 0.6917 0.56872 0.2374 0.0
H423 H 0.67345 0.51514 0.26625 0.0
H424 H 0.60901 0.50055 0.24133 0.0
H425 H 0.6177 0.4734 0.19288 0.0
H426 H 0.64905 0.60002 0.19067 0.0
H427 H 0.66446 0.59392 0.2547 0.0
H428 H 0.69741 0.53343 0.16201 0.0
H429 H 0.64829 0.51244 0.14454 0.0
H430 H 0.70175 0.52169 0.1285 0.0
H431 H 0.65352 0.50111 0.1113 0.0
H432 H 0.68026 0.58043 0.14084 0.0
H433 H 0.70121 0.58841 0.20516 0.0
H434 H 0.68889 0.60895 0.13851 0.0
H435 H 0.70949 0.6168 0.20168 0.0
H436 H 0.6451 0.54654 0.08661 0.0
H437 H 0.69247 0.55378 0.08755 0.0
H438 H 0.71441 0.52644 0.22299 0.0
H439 H 0.74036 0.57667 0.20994 0.0
Li440 Li 0.12044 0.66632 0.1559 0.0
Li441 Li 0.1318 0.68072 0.18975 0.0
Li442 Li 0.12197 0.65235 0.18742 0.0
Li443 Li 0.10392 0.6628 0.18785 0.0
C444 C 0.15111 0.66565 0.17337 0.0
N445 N 0.17355 0.65673 0.17986 0.0
C446 C 0.1637 0.67417 0.18779 0.0
C447 C 0.14997 0.65262 0.1622 0.0
C448 C 0.17493 0.66948 0.19084 0.0
C449 C 0.16142 0.64828 0.16574 0.0
C450 C 0.12212 0.69791 0.16939 0.0
C451 C 0.12738 0.72231 0.18656 0.0
N452 N 0.13548 0.73038 0.16838 0.0
C453 C 0.13048 0.70644 0.15087 0.0
C454 C 0.1205 0.70589 0.18736 0.0
C455 C 0.13715 0.72285 0.15067 0.0
C456 C 0.11158 0.67175 0.11422 0.0
N457 N 0.12117 0.66751 0.12472 0.0
C458 C 0.13108 0.66417 0.09052 0.0
C459 C 0.13091 0.66387 0.11343 0.0
C460 C 0.12131 0.6685 0.07923 0.0
C461 C 0.11153 0.67242 0.09132 0.0
H462 H 0.10391 0.67454 0.12367 0.0
H463 H 0.13847 0.66063 0.12218 0.0
C464 C 0.14929 0.70265 0.22334 0.0
N465 N 0.14822 0.69997 0.20135 0.0
C466 C 0.16182 0.71648 0.23195 0.0
C467 C 0.17183 0.72454 0.19508 0.0
C468 C 0.15918 0.7105 0.18723 0.0
C469 C 0.17336 0.72762 0.21776 0.0
H470 H 0.14059 0.6939 0.23423 0.0
H471 H 0.15818 0.70789 0.16985 0.0
C472 C 0.09544 0.63904 0.15 0.0
N473 N 0.08003 0.62595 0.11094 0.0
C474 C 0.08258 0.64063 0.14355 0.0
C475 C 0.10045 0.63077 0.13661 0.0
C476 C 0.07494 0.63391 0.12375 0.0
C477 C 0.09252 0.62426 0.1169 0.0
C478 C 0.10923 0.65996 0.22909 0.0
C479 C 0.10183 0.64434 0.23653 0.0
C480 C 0.1061 0.67085 0.23949 0.0
C481 C 0.09133 0.63986 0.25418 0.0
C482 C 0.0955 0.6659 0.25706 0.0
N483 N 0.08839 0.65063 0.26398 0.0
C484 C 0.13548 0.63884 0.2144 0.0
C485 C 0.11535 0.62072 0.19063 0.0
C486 C 0.13726 0.62672 0.2235 0.0
N487 N 0.12472 0.63565 0.19822 0.0
C488 C 0.11666 0.60822 0.19935 0.0
C489 C 0.12769 0.61113 0.21609 0.0
H490 H 0.14256 0.65079 0.22039 0.0
H491 H 0.1066 0.61846 0.17817 0.0
C492 C 0.07875 0.66845 0.20048 0.0
N493 N 0.08342 0.6576 0.19756 0.0
C494 C 0.06359 0.66373 0.20842 0.0
C495 C 0.0584 0.63682 0.20973 0.0
C496 C 0.07359 0.64204 0.20187 0.0
C497 C 0.05322 0.64771 0.21313 0.0
H498 H 0.08677 0.68073 0.19678 0.0
H499 H 0.07767 0.63371 0.19942 0.0
O500 O 0.13988 0.66993 0.17036 0.0
O501 O 0.1157 0.68186 0.17003 0.0
O502 O 0.10338 0.64595 0.16898 0.0
O503 O 0.11919 0.66447 0.21141 0.0
H504 H 0.16476 0.68422 0.19668 0.0
H505 H 0.14017 0.6457 0.15129 0.0
H506 H 0.1847 0.67594 0.202 0.0
H507 H 0.1606 0.63814 0.15735 0.0
H508 H 0.12632 0.72865 0.20041 0.0
H509 H 0.132 0.7005 0.13689 0.0
H510 H 0.11425 0.69952 0.20193 0.0
H511 H 0.14371 0.72961 0.13649 0.0
H512 H 0.13888 0.6612 0.08172 0.0
H513 H 0.10375 0.67571 0.08314 0.0
H514 H 0.16268 0.71822 0.24957 0.0
H515 H 0.18035 0.73284 0.18351 0.0
H516 H 0.07867 0.64717 0.15356 0.0
H517 H 0.11053 0.62963 0.14118 0.0
H518 H 0.06501 0.63511 0.11851 0.0
H519 H 0.09633 0.61793 0.1063 0.0
H520 H 0.104 0.63571 0.22859 0.0
H521 H 0.11162 0.68295 0.23385 0.0
H522 H 0.08546 0.6278 0.26003 0.0
H523 H 0.09288 0.67418 0.26515 0.0
H524 H 0.146 0.62952 0.23625 0.0
H525 H 0.10881 0.59636 0.19345 0.0
H526 H 0.06 0.67247 0.21068 0.0
H527 H 0.05089 0.6244 0.21349 0.0
Li528 Li 0.86797 0.54913 0.30888 0.0
Li529 Li 0.87908 0.54651 0.34177 0.0
Li530 Li 0.89536 0.55888 0.3091 0.0
Li531 Li 0.8769 0.52981 0.30915 0.0
C532 C 0.87875 0.5771 0.32723 0.0
N533 N 0.86764 0.59813 0.32646 0.0
C534 C 0.87177 0.57929 0.34594 0.0
C535 C 0.88015 0.58568 0.30817 0.0
C536 C 0.86622 0.58996 0.34522 0.0
C537 C 0.87442 0.59622 0.30809 0.0
C538 C 0.84434 0.52426 0.32926 0.0
C539 C 0.81812 0.51042 0.3138 0.0
N540 N 0.81241 0.51389 0.33204 0.0
C541 C 0.8382 0.52763 0.3479 0.0
C542 C 0.83422 0.5155 0.31212 0.0
C543 C 0.82202 0.52229 0.34899 0.0
C544 C 0.84871 0.5501 0.2751 0.0
N545 N 0.85135 0.55192 0.2971 0.0
C546 C 0.82924 0.55573 0.30209 0.0
C547 C 0.84195 0.55475 0.31059 0.0
C548 C 0.82611 0.55371 0.27946 0.0
C549 C 0.83612 0.55101 0.26586 0.0
H550 H 0.85618 0.5476 0.26476 0.0
H551 H 0.8441 0.55593 0.32806 0.0
C552 C 0.88737 0.56037 0.38382 0.0
N553 N 0.87901 0.54649 0.37287 0.0
C554 C 0.88764 0.56058 0.40672 0.0
C555 C 0.8711 0.53214 0.4066 0.0
C556 C 0.871 0.53251 0.38369 0.0
C557 C 0.87943 0.54632 0.41846 0.0
H558 H 0.89383 0.57128 0.37472 0.0
H559 H 0.86468 0.52163 0.37447 0.0
C560 C 0.88917 0.55014 0.26784 0.0
N561 N 0.90897 0.5606 0.23178 0.0
C562 C 0.89663 0.5419 0.26076 0.0
C563 C 0.89167 0.56362 0.25646 0.0
C564 C 0.90661 0.54739 0.24251 0.0
C565 C 0.90176 0.56874 0.23831 0.0
C566 C 0.90468 0.54437 0.34613 0.0
C567 C 0.91682 0.55939 0.35209 0.0
C568 C 0.90131 0.53139 0.35943 0.0
C569 C 0.92547 0.56117 0.3712 0.0
C570 C 0.91021 0.53367 0.37843 0.0
N571 N 0.92201 0.54838 0.38386 0.0
C572 C 0.92067 0.58943 0.296 0.0
C573 C 0.92539 0.56792 0.29389 0.0
C574 C 0.93578 0.59972 0.28781 0.0
N575 N 0.9158 0.57384 0.29869 0.0
C576 C 0.94053 0.57774 0.28571 0.0
C577 C 0.94591 0.59388 0.28257 0.0
H578 H 0.91289 0.59388 0.30021 0.0
H579 H 0.92119 0.55547 0.29626 0.0
C580 C 0.86311 0.5027 0.28245 0.0
N581 N 0.8738 0.5102 0.29873 0.0
C582 C 0.86122 0.48871 0.27345 0.0
C583 C 0.88142 0.49049 0.29814 0.0
C584 C 0.88294 0.50446 0.3066 0.0
C585 C 0.87049 0.48247 0.28126 0.0
H586 H 0.85628 0.50776 0.27613 0.0
H587 H 0.89168 0.51091 0.31907 0.0
O588 O 0.88427 0.5667 0.32762 0.0
O589 O 0.86017 0.52956 0.32779 0.0
O590 O 0.87969 0.54522 0.28604 0.0
O591 O 0.8957 0.54248 0.32791 0.0
H592 H 0.87043 0.57265 0.36077 0.0
H593 H 0.8854 0.58407 0.29351 0.0
H594 H 0.86072 0.5917 0.35954 0.0
H595 H 0.87534 0.60285 0.2934 0.0
H596 H 0.81018 0.50375 0.30058 0.0
H597 H 0.84587 0.53449 0.36125 0.0
H598 H 0.83878 0.51285 0.29755 0.0
H599 H 0.81712 0.52489 0.36325 0.0
H600 H 0.82189 0.55797 0.31313 0.0
H601 H 0.83398 0.54916 0.24837 0.0
H602 H 0.89408 0.57182 0.41511 0.0
H603 H 0.86487 0.52084 0.41488 0.0
H604 H 0.89494 0.53152 0.26944 0.0
H605 H 0.88595 0.5701 0.26165 0.0
H606 H 0.91255 0.54119 0.23695 0.0
H607 H 0.90387 0.57921 0.22943 0.0
H608 H 0.9194 0.56962 0.34227 0.0
H609 H 0.8917 0.51974 0.3554 0.0
H610 H 0.93487 0.57274 0.37603 0.0
H611 H 0.90767 0.52375 0.38893 0.0
H612 H 0.93954 0.61212 0.28582 0.0
H613 H 0.94784 0.57268 0.28157 0.0
H614 H 0.85264 0.48288 0.2605 0.0
H615 H 0.88904 0.48627 0.30431 0.0
Li616 Li 0.33066 0.87997 0.33849 0.0
Li617 Li 0.3155 0.86651 0.30596 0.0
Li618 Li 0.34419 0.87799 0.3067 0.0
Li619 Li 0.33204 0.8946 0.30521 0.0
C620 C 0.32556 0.85115 0.34237 0.0
N621 N 0.31979 0.83316 0.37986 0.0
C622 C 0.31008 0.84006 0.34824 0.0
C623 C 0.33812 0.85302 0.35549 0.0
C624 C 0.30741 0.83108 0.36726 0.0
C625 C 0.33495 0.84384 0.37442 0.0
C626 C 0.30798 0.8922 0.32693 0.0
C627 C 0.29525 0.90595 0.31231 0.0
N628 N 0.29811 0.91407 0.33149 0.0
C629 C 0.31079 0.90067 0.3465 0.0
C630 C 0.30012 0.89483 0.30969 0.0
C631 C 0.3057 0.91167 0.34849 0.0
C632 C 0.34359 0.88837 0.38141 0.0
N633 N 0.33008 0.87991 0.3697 0.0
C634 C 0.31496 0.87032 0.40267 0.0
C635 C 0.3159 0.87109 0.37979 0.0
C636 C 0.32876 0.87877 0.41523 0.0
C637 C 0.34321 0.88794 0.40431 0.0
H638 H 0.35466 0.89547 0.37298 0.0
H639 H 0.30532 0.86457 0.37002 0.0
C640 C 0.29682 0.83564 0.29027 0.0
N641 N 0.29651 0.84896 0.29571 0.0
C642 C 0.28328 0.82249 0.28219 0.0
C643 C 0.26935 0.83704 0.28547 0.0
C644 C 0.28314 0.84987 0.29365 0.0
C645 C 0.26934 0.82314 0.27963 0.0
H646 H 0.30765 0.8353 0.29209 0.0
H647 H 0.28321 0.86056 0.29828 0.0
C648 C 0.36561 0.90542 0.32336 0.0
N649 N 0.39816 0.92148 0.31987 0.0
C650 C 0.37328 0.91882 0.31003 0.0
C651 C 0.37451 0.90024 0.335 0.0
C652 C 0.38975 0.92677 0.30848 0.0
C653 C 0.39094 0.9085 0.33298 0.0
C654 C 0.32406 0.87059 0.26502 0.0
C655 C 0.32875 0.86012 0.2572 0.0
C656 C 0.31158 0.87124 0.25483 0.0
C657 C 0.32081 0.8504 0.23932 0.0
C658 C 0.30392 0.86129 0.23703 0.0
N659 N 0.30866 0.85117 0.22972 0.0
C660 C 0.36364 0.86406 0.30208 0.0
C661 C 0.3712 0.8872 0.28118 0.0
C662 C 0.37638 0.86295 0.29379 0.0
N663 N 0.36141 0.87613 0.29581 0.0
C664 C 0.38421 0.88672 0.27278 0.0
C665 C 0.38697 0.87445 0.27901 0.0
H666 H 0.35546 0.85521 0.31337 0.0
H667 H 0.36894 0.8965 0.27617 0.0
C668 C 0.33918 0.92639 0.30771 0.0
N669 N 0.33507 0.91402 0.29387 0.0
C670 C 0.34298 0.94118 0.29936 0.0
C671 C 0.33804 0.93012 0.26275 0.0
C672 C 0.33429 0.91556 0.2718 0.0
C673 C 0.34272 0.94323 0.27656 0.0
H674 H 0.34003 0.92489 0.32516 0.0
H675 H 0.33125 0.9056 0.26116 0.0
O676 O 0.3284 0.86032 0.32409 0.0
O677 O 0.31305 0.88153 0.32455 0.0
O678 O 0.34948 0.89734 0.32486 0.0
O679 O 0.33139 0.87988 0.28289 0.0
H680 H 0.30021 0.83855 0.33839 0.0
H681 H 0.35017 0.86161 0.35125 0.0
H682 H 0.29548 0.82251 0.37207 0.0
H683 H 0.34455 0.84525 0.38481 0.0
H684 H 0.28926 0.90818 0.29905 0.0
H685 H 0.31696 0.8989 0.35995 0.0
H686 H 0.29807 0.88858 0.2943 0.0
H687 H 0.30784 0.91834 0.36352 0.0
H688 H 0.3036 0.86302 0.41042 0.0
H689 H 0.35409 0.89484 0.41339 0.0
H690 H 0.28377 0.81203 0.27767 0.0
H691 H 0.25878 0.83792 0.28394 0.0
H692 H 0.36662 0.92296 0.30079 0.0
H693 H 0.36877 0.88981 0.34521 0.0
H694 H 0.39583 0.93712 0.29816 0.0
H695 H 0.39796 0.90455 0.34176 0.0
H696 H 0.3383 0.85937 0.26497 0.0
H697 H 0.30767 0.87913 0.26085 0.0
H698 H 0.32427 0.8422 0.23315 0.0
H699 H 0.29416 0.86157 0.22911 0.0
H700 H 0.37779 0.85308 0.29872 0.0
H701 H 0.39211 0.896 0.26172 0.0
H702 H 0.34678 0.95104 0.31054 0.0
H703 H 0.33761 0.9312 0.24509 0.0
Li704 Li 0.44032 0.33512 0.30646 0.0
Li705 Li 0.46953 0.3462 0.30734 0.0
Li706 Li 0.45043 0.31776 0.30785 0.0
Li707 Li 0.45262 0.33214 0.33997 0.0
C708 C 0.44932 0.33602 0.26508 0.0
N709 N 0.43862 0.34238 0.22656 0.0
C710 C 0.45797 0.3508 0.25504 0.0
C711 C 0.43533 0.32442 0.25539 0.0
C712 C 0.45234 0.35379 0.23559 0.0
C713 C 0.43008 0.32788 0.23596 0.0
C714 C 0.45483 0.36007 0.34266 0.0
C715 C 0.46569 0.37594 0.37522 0.0
N716 N 0.45147 0.37478 0.37933 0.0
C717 C 0.44032 0.35903 0.34721 0.0
C718 C 0.46763 0.3686 0.35675 0.0
C719 C 0.43887 0.36657 0.36582 0.0
C720 C 0.40926 0.32911 0.29589 0.0
N721 N 0.42501 0.33962 0.29481 0.0
C722 C 0.42035 0.35812 0.27548 0.0
C723 C 0.43067 0.35399 0.28521 0.0
C724 C 0.40404 0.3475 0.27613 0.0
C725 C 0.39845 0.33289 0.28669 0.0
H726 H 0.40509 0.31786 0.30392 0.0
H727 H 0.44324 0.36221 0.28504 0.0
C728 C 0.49731 0.36047 0.2814 0.0
N729 N 0.48894 0.36311 0.29698 0.0
C730 C 0.51102 0.37309 0.27258 0.0
C731 C 0.50714 0.39086 0.29596 0.0
C732 C 0.49355 0.37791 0.30432 0.0
C733 C 0.51601 0.38855 0.27975 0.0
H734 H 0.4931 0.34863 0.27537 0.0
H735 H 0.48649 0.37972 0.31636 0.0
C736 C 0.42247 0.30084 0.32758 0.0
N737 N 0.40164 0.26879 0.33126 0.0
C738 C 0.42126 0.29304 0.34734 0.0
C739 C 0.41298 0.29239 0.30977 0.0
C740 C 0.41067 0.27682 0.34886 0.0
C741 C 0.40257 0.27618 0.31193 0.0
C742 C 0.47523 0.3196 0.32827 0.0
C743 C 0.47132 0.30953 0.34638 0.0
C744 C 0.48451 0.31877 0.31144 0.0
C745 C 0.47672 0.29873 0.34729 0.0
C746 C 0.48962 0.30777 0.31292 0.0
N747 N 0.48566 0.29806 0.33067 0.0
C748 C 0.45023 0.29746 0.27494 0.0
C749 C 0.44427 0.28583 0.31033 0.0
C750 C 0.44926 0.28388 0.26596 0.0
N751 N 0.44775 0.29821 0.29677 0.0
C752 C 0.44315 0.27201 0.30205 0.0
C753 C 0.44575 0.27095 0.2796 0.0
H754 H 0.45322 0.30752 0.26453 0.0
H755 H 0.44269 0.28676 0.32768 0.0
C756 C 0.43877 0.3296 0.38155 0.0
N757 N 0.45225 0.33252 0.37111 0.0
C758 C 0.43828 0.32991 0.40444 0.0
C759 C 0.46557 0.33628 0.40534 0.0
C760 C 0.46557 0.336 0.38244 0.0
C761 C 0.45178 0.33318 0.41669 0.0
H762 H 0.42841 0.32706 0.37204 0.0
H763 H 0.47618 0.33847 0.37364 0.0
O764 O 0.45445 0.33295 0.28436 0.0
O765 O 0.45635 0.35237 0.3249 0.0
O766 O 0.43272 0.31672 0.32582 0.0
O767 O 0.4699 0.33012 0.32694 0.0
H768 H 0.46879 0.35994 0.26233 0.0
H769 H 0.42855 0.3129 0.26288 0.0
H770 H 0.45885 0.36521 0.22773 0.0
H771 H 0.41922 0.31905 0.22837 0.0
H772 H 0.47547 0.38249 0.38635 0.0
H773 H 0.43024 0.35233 0.33663 0.0
H774 H 0.47887 0.3693 0.35368 0.0
H775 H 0.4277 0.36582 0.36959 0.0
H776 H 0.42506 0.36962 0.26786 0.0
H777 H 0.38592 0.32447 0.2876 0.0
H778 H 0.51737 0.37082 0.25985 0.0
H779 H 0.51063 0.40256 0.30207 0.0
H780 H 0.42854 0.29938 0.36128 0.0
H781 H 0.41372 0.29826 0.2944 0.0
H782 H 0.40968 0.2706 0.364 0.0
H783 H 0.39523 0.26947 0.29823 0.0
H784 H 0.46396 0.30983 0.35941 0.0
H785 H 0.48755 0.32638 0.29725 0.0
H786 H 0.4737 0.2908 0.36114 0.0
H787 H 0.49671 0.30692 0.29993 0.0
H788 H 0.45124 0.28351 0.24852 0.0
H789 H 0.4407 0.26242 0.31321 0.0
H790 H 0.42748 0.32774 0.41243 0.0
H791 H 0.4762 0.33868 0.41404 0.0
Li792 Li 0.1201 0.46853 0.30984 0.0
Li793 Li 0.10417 0.44028 0.30727 0.0
Li794 Li 0.11779 0.45178 0.34096 0.0
Li795 Li 0.13241 0.45159 0.30742 0.0
C796 C 0.08851 0.45622 0.32115 0.0
N797 N 0.06329 0.45969 0.30839 0.0
C798 C 0.0856 0.45714 0.29887 0.0
C799 C 0.07858 0.45706 0.33693 0.0
C800 C 0.07279 0.45889 0.29275 0.0
C801 C 0.0659 0.45883 0.33016 0.0
C802 C 0.11897 0.45207 0.26371 0.0
C803 C 0.12302 0.43897 0.23292 0.0
N804 N 0.11807 0.44653 0.21908 0.0
C805 C 0.11402 0.4598 0.24916 0.0
C806 C 0.1236 0.44164 0.25552 0.0
C807 C 0.1136 0.4568 0.22666 0.0
C808 C 0.1324 0.49541 0.28324 0.0
N809 N 0.12282 0.48831 0.30075 0.0
C810 C 0.11657 0.50896 0.3032 0.0
C811 C 0.11516 0.4949 0.31103 0.0
C812 C 0.12606 0.51636 0.28476 0.0
C813 C 0.13421 0.50953 0.27492 0.0
H814 H 0.13841 0.48992 0.2755 0.0
H815 H 0.10783 0.48917 0.32517 0.0
C816 C 0.07195 0.41768 0.31003 0.0
N817 N 0.08446 0.42364 0.29602 0.0
C818 C 0.05683 0.4068 0.30261 0.0
C819 C 0.06779 0.40792 0.26665 0.0
C820 C 0.08271 0.41868 0.27482 0.0
C821 C 0.05459 0.40211 0.28051 0.0
H822 H 0.07365 0.42176 0.32686 0.0
H823 H 0.09273 0.42326 0.26401 0.0
C824 C 0.14399 0.48302 0.34041 0.0
N825 N 0.15697 0.51021 0.36547 0.0
C826 C 0.16033 0.49316 0.34069 0.0
C827 C 0.13424 0.48672 0.35281 0.0
C828 C 0.16667 0.50685 0.35349 0.0
C829 C 0.14103 0.50052 0.36539 0.0
C830 C 0.10698 0.4176 0.3244 0.0
C831 C 0.09593 0.40991 0.34108 0.0
C832 C 0.10755 0.40897 0.30647 0.0
C833 C 0.08545 0.39367 0.3394 0.0
C834 C 0.09686 0.39275 0.3054 0.0
N835 N 0.08612 0.38551 0.32174 0.0
C836 C 0.1035 0.4442 0.38277 0.0
C837 C 0.13142 0.45607 0.38293 0.0
C838 C 0.10311 0.44343 0.40568 0.0
N839 N 0.11753 0.45047 0.37197 0.0
C840 C 0.1316 0.45578 0.40583 0.0
C841 C 0.11731 0.44941 0.41744 0.0
H842 H 0.09265 0.43985 0.37355 0.0
H843 H 0.14238 0.46087 0.37387 0.0
C844 C 0.15975 0.46174 0.28217 0.0
N845 N 0.14998 0.45063 0.29678 0.0
C846 C 0.17263 0.46111 0.27351 0.0
C847 C 0.16522 0.43774 0.29534 0.0
C848 C 0.15245 0.4388 0.30354 0.0
C849 C 0.17549 0.44897 0.28006 0.0
H850 H 0.15738 0.47096 0.27708 0.0
H851 H 0.14448 0.43019 0.31526 0.0
O852 O 0.10094 0.45445 0.32761 0.0
O853 O 0.1197 0.45509 0.28577 0.0
O854 O 0.13762 0.46963 0.32786 0.0
O855 O 0.11703 0.43355 0.32544 0.0
H856 H 0.09309 0.45643 0.28645 0.0
H857 H 0.08068 0.45637 0.35425 0.0
H858 H 0.0704 0.45959 0.27557 0.0
H859 H 0.05812 0.4595 0.3422 0.0
H860 H 0.1265 0.43087 0.22638 0.0
H861 H 0.11056 0.46805 0.25514 0.0
H862 H 0.12744 0.43553 0.26647 0.0
H863 H 0.10975 0.46266 0.21523 0.0
H864 H 0.11028 0.51399 0.31145 0.0
H865 H 0.14156 0.5148 0.26059 0.0
H866 H 0.04692 0.40267 0.31378 0.0
H867 H 0.06655 0.4044 0.24957 0.0
H868 H 0.16802 0.49047 0.33112 0.0
H869 H 0.12156 0.47903 0.35274 0.0
H870 H 0.17931 0.51481 0.35388 0.0
H871 H 0.13363 0.50352 0.37507 0.0
H872 H 0.09533 0.41643 0.35504 0.0
H873 H 0.11605 0.41474 0.29345 0.0
H874 H 0.07676 0.38757 0.35212 0.0
H875 H 0.09709 0.38594 0.29155 0.0
H876 H 0.09188 0.43851 0.41413 0.0
H877 H 0.14276 0.46037 0.41439 0.0
H878 H 0.18013 0.46988 0.26157 0.0
H879 H 0.16711 0.42832 0.30105 0.0
Li880 Li 0.66747 0.12019 0.3377 0.0
Li881 Li 0.68159 0.13247 0.30373 0.0
Li882 Li 0.65335 0.12205 0.30552 0.0
Li883 Li 0.66524 0.10493 0.30494 0.0
C884 C 0.67996 0.15326 0.33346 0.0
N885 N 0.70092 0.18108 0.35432 0.0
C886 C 0.69373 0.15493 0.34301 0.0
C887 C 0.67688 0.16575 0.33447 0.0
C888 C 0.70417 0.16909 0.35349 0.0
C889 C 0.68762 0.17972 0.34511 0.0
C890 C 0.69145 0.10878 0.32369 0.0
C891 C 0.70319 0.09544 0.30488 0.0
N892 N 0.70523 0.09003 0.32448 0.0
C893 C 0.69391 0.1033 0.34366 0.0
C894 C 0.69637 0.10503 0.30418 0.0
C895 C 0.70081 0.09376 0.34371 0.0
C896 C 0.66508 0.10661 0.37933 0.0
N897 N 0.66673 0.11972 0.36913 0.0
C898 C 0.66639 0.13116 0.40368 0.0
C899 C 0.66694 0.13169 0.3808 0.0
C900 C 0.66532 0.11806 0.41471 0.0
C901 C 0.66446 0.10556 0.40224 0.0
H902 H 0.66418 0.09692 0.36964 0.0
H903 H 0.66731 0.1416 0.37246 0.0
C904 C 0.70025 0.16286 0.28616 0.0
N905 N 0.7005 0.14961 0.29223 0.0
C906 C 0.71382 0.17586 0.27791 0.0
C907 C 0.72765 0.16127 0.28203 0.0
C908 C 0.71382 0.14859 0.29039 0.0
C909 C 0.72775 0.17514 0.27579 0.0
H910 H 0.68946 0.16331 0.28773 0.0
H911 H 0.71373 0.13797 0.29551 0.0
C912 C 0.63554 0.09938 0.33777 0.0
N913 N 0.61043 0.09161 0.36568 0.0
C914 C 0.62524 0.0836 0.34325 0.0
C915 C 0.63312 0.11122 0.34653 0.0
C916 C 0.61259 0.07991 0.35738 0.0
C917 C 0.62035 0.10705 0.3606 0.0
C918 C 0.67238 0.12755 0.26304 0.0
C919 C 0.66836 0.13852 0.2552 0.0
C920 C 0.68384 0.12561 0.25201 0.0
C921 C 0.67603 0.14752 0.23666 0.0
C922 C 0.69127 0.13486 0.23355 0.0
N923 N 0.68725 0.14555 0.22633 0.0
C924 C 0.63699 0.138 0.29269 0.0
C925 C 0.62195 0.11004 0.29244 0.0
C926 C 0.62412 0.13898 0.28467 0.0
N927 N 0.63571 0.12367 0.29611 0.0
C928 C 0.6087 0.11046 0.28492 0.0
C929 C 0.60969 0.12507 0.28057 0.0
H930 H 0.64814 0.14865 0.29565 0.0
H931 H 0.62129 0.0988 0.29531 0.0
C932 C 0.65882 0.07324 0.30878 0.0
N933 N 0.66122 0.08495 0.29454 0.0
C934 C 0.65459 0.05821 0.30089 0.0
C935 C 0.65561 0.06771 0.26391 0.0
C936 C 0.65982 0.08251 0.27249 0.0
C937 C 0.65266 0.05525 0.27818 0.0
H938 H 0.65984 0.07551 0.32627 0.0
H939 H 0.66158 0.09196 0.26157 0.0
O940 O 0.66968 0.13964 0.32273 0.0
O941 O 0.68463 0.11808 0.32332 0.0
O942 O 0.64809 0.10316 0.32421 0.0
O943 O 0.66528 0.11892 0.28155 0.0
H944 H 0.69636 0.14544 0.34236 0.0
H945 H 0.66631 0.16467 0.32709 0.0
H946 H 0.71485 0.17054 0.36096 0.0
H947 H 0.68538 0.18948 0.34603 0.0
H948 H 0.70686 0.0923 0.28986 0.0
H949 H 0.69075 0.10653 0.359 0.0
H950 H 0.69474 0.10931 0.28861 0.0
H951 H 0.70272 0.08939 0.35906 0.0
H952 H 0.66657 0.14083 0.41263 0.0
H953 H 0.66352 0.09518 0.41007 0.0
H954 H 0.7134 0.1863 0.27305 0.0
H955 H 0.73821 0.16034 0.2808 0.0
H956 H 0.62702 0.07432 0.33668 0.0
H957 H 0.64105 0.12351 0.3426 0.0
H958 H 0.6045 0.06774 0.36176 0.0
H959 H 0.61833 0.11609 0.36751 0.0
H960 H 0.65954 0.1402 0.26345 0.0
H961 H 0.68708 0.11715 0.25767 0.0
H962 H 0.67309 0.15613 0.23053 0.0
H963 H 0.70024 0.13356 0.22497 0.0
H964 H 0.6256 0.15051 0.28128 0.0
H965 H 0.5978 0.09941 0.28257 0.0
H966 H 0.65224 0.04886 0.31245 0.0
H967 H 0.65438 0.06596 0.2463 0.0
Li968 Li 0.5494 0.68105 0.3073 0.0
Li969 Li 0.54622 0.66563 0.33881 0.0
Li970 Li 0.56074 0.664 0.30692 0.0
Li971 Li 0.53071 0.65276 0.30609 0.0
C972 C 0.58072 0.69526 0.32792 0.0
N973 N 0.60997 0.72228 0.33106 0.0
C974 C 0.58479 0.70465 0.34679 0.0
C975 C 0.59162 0.6995 0.3108 0.0
C976 C 0.59961 0.7183 0.34802 0.0
C977 C 0.60632 0.71323 0.31266 0.0
C978 C 0.52618 0.67854 0.33614 0.0
C979 C 0.50737 0.68598 0.34846 0.0
N980 N 0.51914 0.69858 0.35919 0.0
C981 C 0.5381 0.69157 0.34724 0.0
C982 C 0.5107 0.67572 0.33669 0.0
C983 C 0.5343 0.70156 0.35881 0.0
C984 C 0.53896 0.69891 0.28497 0.0
N985 N 0.55139 0.70045 0.29696 0.0
C986 C 0.56434 0.72858 0.29392 0.0
C987 C 0.56392 0.71493 0.30168 0.0
C988 C 0.55186 0.72722 0.281 0.0
C989 C 0.53907 0.7122 0.27645 0.0
H990 H 0.52892 0.68731 0.28206 0.0
H991 H 0.57353 0.71602 0.31157 0.0
C992 C 0.55954 0.66868 0.38058 0.0
N993 N 0.54588 0.665 0.37001 0.0
C994 C 0.56001 0.66855 0.40347 0.0
C995 C 0.53231 0.6607 0.40415 0.0
C996 C 0.53236 0.66091 0.38123 0.0
C997 C 0.54629 0.66463 0.41559 0.0
H998 H 0.57005 0.67167 0.37117 0.0
H999 H 0.52161 0.65785 0.37237 0.0
C1000 C 0.54786 0.67322 0.26467 0.0
N1001 N 0.54914 0.68887 0.22625 0.0
C1002 C 0.53428 0.6682 0.25194 0.0
C1003 C 0.56215 0.68604 0.25766 0.0
C1004 C 0.53515 0.6763 0.23261 0.0
C1005 C 0.56253 0.69385 0.23825 0.0
C1006 C 0.53981 0.63646 0.34179 0.0
C1007 C 0.55155 0.63479 0.35244 0.0
C1008 C 0.52439 0.62869 0.34999 0.0
C1009 C 0.54767 0.6254 0.37127 0.0
C1010 C 0.52099 0.6194 0.36885 0.0
N1011 N 0.5326 0.61797 0.37902 0.0
C1012 C 0.5874 0.65985 0.31039 0.0
C1013 C 0.5769 0.65756 0.2746 0.0
C1014 C 0.59828 0.6557 0.30257 0.0
N1015 N 0.57684 0.66039 0.29642 0.0
C1016 C 0.58763 0.65352 0.26606 0.0
C1017 C 0.59828 0.65217 0.28017 0.0
H1018 H 0.58709 0.66224 0.32767 0.0
H1019 H 0.56837 0.65812 0.26389 0.0
C1020 C 0.49993 0.63896 0.28804 0.0
N1021 N 0.51155 0.63618 0.2949 0.0
C1022 C 0.48601 0.62671 0.27908 0.0
C1023 C 0.49617 0.60897 0.28509 0.0
C1024 C 0.50994 0.62159 0.29364 0.0
C1025 C 0.48401 0.61145 0.27743 0.0
H1026 H 0.50161 0.65074 0.2892 0.0
H1027 H 0.5194 0.61975 0.29929 0.0
O1028 O 0.56628 0.68182 0.32654 0.0
O1029 O 0.52961 0.66866 0.32449 0.0
O1030 O 0.54715 0.66559 0.28385 0.0
O1031 O 0.54347 0.64602 0.32379 0.0
H1032 H 0.57658 0.70147 0.36033 0.0
H1033 H 0.58883 0.69225 0.29627 0.0
H1034 H 0.60287 0.72572 0.36247 0.0
H1035 H 0.61485 0.71667 0.2995 0.0
H1036 H 0.49543 0.68394 0.34906 0.0
H1037 H 0.55014 0.69397 0.34687 0.0
H1038 H 0.50135 0.6657 0.3281 0.0
H1039 H 0.54341 0.71169 0.36748 0.0
H1040 H 0.57435 0.74005 0.29779 0.0
H1041 H 0.52915 0.7108 0.26677 0.0
H1042 H 0.57097 0.67137 0.41158 0.0
H1043 H 0.52149 0.65775 0.41279 0.0
H1044 H 0.52316 0.65821 0.25697 0.0
H1045 H 0.57278 0.69004 0.26719 0.0
H1046 H 0.5247 0.6726 0.22268 0.0
H1047 H 0.57348 0.70389 0.23275 0.0
H1048 H 0.56355 0.64079 0.34637 0.0
H1049 H 0.51521 0.63001 0.34206 0.0
H1050 H 0.55665 0.62405 0.37975 0.0
H1051 H 0.50913 0.61339 0.37546 0.0
H1052 H 0.60619 0.6547 0.31406 0.0
H1053 H 0.58739 0.65119 0.24863 0.0
H1054 H 0.47707 0.62925 0.27316 0.0
H1055 H 0.49506 0.59739 0.28463 0.0
Li1056 Li 0.55524 0.89347 0.80945 0.0
Li1057 Li 0.54349 0.87769 0.84255 0.0
Li1058 Li 0.54685 0.86592 0.80921 0.0
Li1059 Li 0.52701 0.87409 0.8112 0.0
C1060 C 0.57356 0.87692 0.82968 0.0
N1061 N 0.59265 0.86363 0.83255 0.0
C1062 C 0.57266 0.86793 0.84804 0.0
C1063 C 0.58421 0.87923 0.81283 0.0
C1064 C 0.58241 0.8613 0.84918 0.0
C1065 C 0.59374 0.87237 0.81457 0.0
C1066 C 0.5392 0.90212 0.84626 0.0
C1067 C 0.52722 0.90508 0.87919 0.0
N1068 N 0.54037 0.91929 0.88296 0.0
C1069 C 0.55258 0.91678 0.85041 0.0
C1070 C 0.52638 0.89624 0.86069 0.0
C1071 C 0.55295 0.92528 0.86906 0.0
C1072 C 0.56342 0.92207 0.7894 0.0
N1073 N 0.56975 0.9139 0.79876 0.0
C1074 C 0.59588 0.93525 0.79227 0.0
C1075 C 0.58564 0.92014 0.80047 0.0
C1076 C 0.58967 0.94392 0.78216 0.0
C1077 C 0.57317 0.93705 0.7807 0.0
H1078 H 0.55073 0.91685 0.78853 0.0
H1079 H 0.59033 0.91343 0.8083 0.0
C1080 C 0.53309 0.86593 0.88551 0.0
N1081 N 0.54455 0.87803 0.87373 0.0
C1082 C 0.53348 0.86636 0.90842 0.0
C1083 C 0.55762 0.8916 0.90663 0.0
C1084 C 0.55681 0.89061 0.88375 0.0
C1085 C 0.54579 0.8794 0.9193 0.0
H1086 H 0.52365 0.85592 0.87713 0.0
H1087 H 0.56586 0.89998 0.87392 0.0
C1088 C 0.54623 0.88605 0.7682 0.0
N1089 N 0.55542 0.90459 0.73084 0.0
C1090 C 0.53594 0.8902 0.75822 0.0
C1091 C 0.56117 0.89127 0.75909 0.0
C1092 C 0.54081 0.89959 0.73934 0.0
C1093 C 0.56561 0.90066 0.74024 0.0
C1094 C 0.51288 0.84563 0.82794 0.0
C1095 C 0.50853 0.83287 0.81375 0.0
C1096 C 0.50134 0.84637 0.84061 0.0
C1097 C 0.49268 0.82105 0.81244 0.0
C1098 C 0.48561 0.83434 0.8388 0.0
N1099 N 0.48164 0.82203 0.82487 0.0
C1100 C 0.54861 0.83808 0.81178 0.0
C1101 C 0.55535 0.85063 0.777 0.0
C1102 C 0.55053 0.82573 0.80388 0.0
N1103 N 0.5509 0.8501 0.79825 0.0
C1104 C 0.55753 0.83861 0.76845 0.0
C1105 C 0.55488 0.82581 0.78185 0.0
H1106 H 0.54492 0.83791 0.82857 0.0
H1107 H 0.55698 0.86025 0.76656 0.0
C1108 C 0.50138 0.87951 0.80837 0.0
N1109 N 0.50683 0.86992 0.80136 0.0
C1110 C 0.4871 0.87749 0.80045 0.0
C1111 C 0.48421 0.85564 0.77838 0.0
C1112 C 0.49863 0.85818 0.78659 0.0
C1113 C 0.47832 0.86547 0.78515 0.0
H1114 H 0.50832 0.889 0.81969 0.0
H1115 H 0.50343 0.85096 0.78092 0.0
O1116 O 0.56381 0.88315 0.82798 0.0
O1117 O 0.53873 0.89347 0.82832 0.0
O1118 O 0.54176 0.87706 0.78688 0.0
O1119 O 0.52831 0.85742 0.82926 0.0
H1120 H 0.5644 0.86595 0.86116 0.0
H1121 H 0.58496 0.88606 0.79844 0.0
H1122 H 0.5818 0.85425 0.86324 0.0
H1123 H 0.60197 0.87397 0.8016 0.0
H1124 H 0.51743 0.90062 0.89059 0.0
H1125 H 0.56265 0.92148 0.83949 0.0
H1126 H 0.51596 0.88489 0.85778 0.0
H1127 H 0.56325 0.9366 0.87253 0.0
H1128 H 0.6085 0.94014 0.79411 0.0
H1129 H 0.5678 0.9431 0.77274 0.0
H1130 H 0.5243 0.85653 0.91751 0.0
H1131 H 0.56726 0.90193 0.91427 0.0
H1132 H 0.52436 0.88635 0.76504 0.0
H1133 H 0.56938 0.88837 0.76675 0.0
H1134 H 0.53298 0.90294 0.7315 0.0
H1135 H 0.57718 0.90489 0.73314 0.0
H1136 H 0.51726 0.83216 0.80365 0.0
H1137 H 0.50446 0.85623 0.85152 0.0
H1138 H 0.48914 0.81114 0.80147 0.0
H1139 H 0.47655 0.83481 0.84841 0.0
H1140 H 0.54813 0.81601 0.81473 0.0
H1141 H 0.5611 0.83929 0.75147 0.0
H1142 H 0.48325 0.8856 0.80577 0.0
H1143 H 0.47781 0.84617 0.76674 0.0
Li1144 Li 0.66598 0.54791 0.84176 0.0
Li1145 Li 0.66403 0.56041 0.80774 0.0
Li1146 Li 0.65257 0.53093 0.80957 0.0
Li1147 Li 0.68108 0.54919 0.80761 0.0
C1148 C 0.63341 0.54019 0.83863 0.0
N1149 N 0.60658 0.53121 0.86348 0.0
C1150 C 0.62776 0.55066 0.84181 0.0
C1151 C 0.6253 0.52509 0.84787 0.0
C1152 C 0.61421 0.54591 0.8545 0.0
C1153 C 0.61179 0.52079 0.86043 0.0
C1154 C 0.68965 0.58269 0.8287 0.0
C1155 C 0.70474 0.60906 0.81406 0.0
N1156 N 0.70266 0.61496 0.8332 0.0
C1157 C 0.68776 0.58901 0.8483 0.0
C1158 C 0.69831 0.59278 0.8115 0.0
C1159 C 0.69439 0.60536 0.85023 0.0
C1160 C 0.67745 0.5461 0.88322 0.0
N1161 N 0.66666 0.5488 0.87298 0.0
C1162 C 0.6571 0.55219 0.90749 0.0
C1163 C 0.65676 0.55208 0.8846 0.0
C1164 C 0.66798 0.54926 0.91848 0.0
C1165 C 0.67837 0.54635 0.90612 0.0
H1166 H 0.68526 0.54365 0.87354 0.0
H1167 H 0.64865 0.55471 0.87617 0.0
C1168 C 0.65709 0.57557 0.77422 0.0
N1169 N 0.66023 0.57624 0.79606 0.0
C1170 C 0.65278 0.5859 0.76493 0.0
C1171 C 0.65537 0.59773 0.80068 0.0
C1172 C 0.65949 0.58704 0.80933 0.0
C1173 C 0.65169 0.59702 0.77827 0.0
H1174 H 0.65746 0.56668 0.7641 0.0
H1175 H 0.66156 0.58703 0.82675 0.0
C1176 C 0.66606 0.51696 0.83645 0.0
N1177 N 0.65938 0.48799 0.85319 0.0
C1178 C 0.6732 0.50893 0.82745 0.0
C1179 C 0.65574 0.51039 0.85422 0.0
C1180 C 0.66961 0.49425 0.83606 0.0
C1181 C 0.65246 0.4957 0.86238 0.0
C1182 C 0.67096 0.54591 0.76566 0.0
C1183 C 0.66531 0.53188 0.75378 0.0
C1184 C 0.68316 0.55999 0.75699 0.0
C1185 C 0.67217 0.53212 0.73354 0.0
C1186 C 0.68971 0.55975 0.73672 0.0
N1187 N 0.68414 0.54593 0.72551 0.0
C1188 C 0.62141 0.51059 0.79643 0.0
C1189 C 0.63743 0.49873 0.79552 0.0
C1190 C 0.60845 0.49672 0.78877 0.0
N1191 N 0.63548 0.5113 0.79987 0.0
C1192 C 0.62478 0.48461 0.78774 0.0
C1193 C 0.61004 0.48349 0.78432 0.0
H1194 H 0.62031 0.5209 0.79939 0.0
H1195 H 0.64885 0.49973 0.79769 0.0
C1196 C 0.71425 0.56406 0.80276 0.0
N1197 N 0.70025 0.55138 0.79671 0.0
C1198 C 0.72842 0.56592 0.79452 0.0
C1199 C 0.71343 0.54174 0.77386 0.0
C1200 C 0.69961 0.54016 0.78287 0.0
C1201 C 0.72803 0.55474 0.77971 0.0
H1202 H 0.7144 0.57271 0.81398 0.0
H1203 H 0.68835 0.53001 0.77876 0.0
O1204 O 0.6467 0.5447 0.82632 0.0
O1205 O 0.68319 0.56672 0.82648 0.0
O1206 O 0.66952 0.53137 0.82825 0.0
O1207 O 0.66451 0.54587 0.78561 0.0
H1208 H 0.63382 0.56235 0.83466 0.0
H1209 H 0.62927 0.51672 0.84516 0.0
H1210 H 0.60976 0.55392 0.85719 0.0
H1211 H 0.60542 0.50914 0.86769 0.0
H1212 H 0.7114 0.61701 0.80083 0.0
H1213 H 0.68115 0.58137 0.86182 0.0
H1214 H 0.70003 0.58809 0.79633 0.0
H1215 H 0.69296 0.61041 0.86526 0.0
H1216 H 0.64908 0.55473 0.91653 0.0
H1217 H 0.68691 0.54402 0.91409 0.0
H1218 H 0.65004 0.58501 0.74757 0.0
H1219 H 0.65439 0.60597 0.81154 0.0
H1220 H 0.68136 0.51392 0.81386 0.0
H1221 H 0.65044 0.51661 0.8618 0.0
H1222 H 0.67496 0.48785 0.82914 0.0
H1223 H 0.64446 0.49046 0.87609 0.0
H1224 H 0.65582 0.52089 0.76018 0.0
H1225 H 0.68756 0.57097 0.7659 0.0
H1226 H 0.66798 0.52133 0.72422 0.0
H1227 H 0.69924 0.57054 0.72989 0.0
H1228 H 0.59739 0.49646 0.78591 0.0
H1229 H 0.62652 0.47469 0.78447 0.0
H1230 H 0.73954 0.57605 0.79941 0.0
H1231 H 0.71277 0.53279 0.76272 0.0
Li1232 Li 0.1045 0.6628 0.80441 0.0
Li1233 Li 0.12082 0.66644 0.83678 0.0
Li1234 Li 0.13236 0.68154 0.80352 0.0
Li1235 Li 0.12352 0.65411 0.80422 0.0
C1236 C 0.10648 0.68467 0.83599 0.0
N1237 N 0.08667 0.68955 0.86313 0.0
C1238 C 0.09297 0.67179 0.84483 0.0
C1239 C 0.10992 0.70001 0.84097 0.0
C1240 C 0.0831 0.67451 0.85851 0.0
C1241 C 0.09975 0.70224 0.85472 0.0
C1242 C 0.10213 0.632 0.83009 0.0
C1243 C 0.11058 0.61624 0.85014 0.0
N1244 N 0.09775 0.6029 0.8426 0.0
C1245 C 0.08901 0.61814 0.82257 0.0
C1246 C 0.11301 0.63106 0.844 0.0
C1247 C 0.08701 0.60354 0.82907 0.0
C1248 C 0.0756 0.64332 0.78478 0.0
N1249 N 0.08437 0.65795 0.79356 0.0
C1250 C 0.06429 0.66426 0.78499 0.0
C1251 C 0.07915 0.66851 0.79358 0.0
C1252 C 0.05484 0.64908 0.77615 0.0
C1253 C 0.0607 0.63856 0.7761 0.0
H1254 H 0.08029 0.63538 0.78441 0.0
H1255 H 0.08654 0.68026 0.80006 0.0
C1256 C 0.13344 0.67955 0.87813 0.0
N1257 N 0.12113 0.66717 0.86789 0.0
C1258 C 0.1338 0.68063 0.90102 0.0
C1259 C 0.10886 0.65613 0.9023 0.0
C1260 C 0.1089 0.65563 0.87942 0.0
C1261 C 0.1214 0.66878 0.91345 0.0
H1262 H 0.1429 0.68866 0.86846 0.0
H1263 H 0.09915 0.64603 0.87084 0.0
C1264 C 0.11677 0.67267 0.76329 0.0
N1265 N 0.11095 0.68666 0.72783 0.0
C1266 C 0.11589 0.66678 0.74211 0.0
C1267 C 0.11467 0.68567 0.76644 0.0
C1268 C 0.11295 0.67402 0.72439 0.0
C1269 C 0.11174 0.69258 0.74831 0.0
C1270 C 0.15531 0.67423 0.81499 0.0
C1271 C 0.15779 0.67271 0.79272 0.0
C1272 C 0.16792 0.67957 0.82972 0.0
C1273 C 0.17288 0.67657 0.78557 0.0
C1274 C 0.18283 0.6833 0.82192 0.0
N1275 N 0.18498 0.68174 0.80019 0.0
C1276 C 0.15409 0.71417 0.80633 0.0
C1277 C 0.1541 0.70252 0.77217 0.0
C1278 C 0.16627 0.72882 0.79922 0.0
N1279 N 0.14832 0.70142 0.7928 0.0
C1280 C 0.16615 0.71693 0.76434 0.0
C1281 C 0.17244 0.7303 0.77796 0.0
H1282 H 0.14932 0.71288 0.82272 0.0
H1283 H 0.14951 0.69216 0.76185 0.0
C1284 C 0.11797 0.6297 0.77553 0.0
N1285 N 0.12667 0.63766 0.79335 0.0
C1286 C 0.11918 0.61717 0.76679 0.0
C1287 C 0.1383 0.62123 0.79496 0.0
C1288 C 0.13672 0.63371 0.80315 0.0
C1289 C 0.12944 0.61277 0.77653 0.0
H1290 H 0.10993 0.63301 0.76828 0.0
H1291 H 0.1434 0.64017 0.81743 0.0
O1292 O 0.11646 0.68239 0.82272 0.0
O1293 O 0.10457 0.64643 0.82345 0.0
O1294 O 0.11954 0.66556 0.78074 0.0
O1295 O 0.1407 0.67068 0.82246 0.0
H1296 H 0.09007 0.65982 0.84115 0.0
H1297 H 0.12035 0.7101 0.8343 0.0
H1298 H 0.07261 0.66466 0.86544 0.0
H1299 H 0.10227 0.71406 0.85871 0.0
H1300 H 0.11896 0.61535 0.8608 0.0
H1301 H 0.08045 0.61861 0.81184 0.0
H1302 H 0.12336 0.64166 0.84972 0.0
H1303 H 0.07692 0.59272 0.82336 0.0
H1304 H 0.06034 0.67282 0.78501 0.0
H1305 H 0.05379 0.62669 0.76965 0.0
H1306 H 0.14358 0.69073 0.90885 0.0
H1307 H 0.09915 0.64661 0.91112 0.0
H1308 H 0.11748 0.65672 0.73941 0.0
H1309 H 0.11532 0.69043 0.78267 0.0
H1310 H 0.11224 0.66959 0.70791 0.0
H1311 H 0.1101 0.70265 0.75051 0.0
H1312 H 0.1482 0.66861 0.78106 0.0
H1313 H 0.16618 0.68083 0.847 0.0
H1314 H 0.17497 0.67545 0.76839 0.0
H1315 H 0.1927 0.68746 0.83314 0.0
H1316 H 0.1708 0.73888 0.81018 0.0
H1317 H 0.17078 0.71752 0.74799 0.0
H1318 H 0.11193 0.6108 0.75281 0.0
H1319 H 0.14641 0.61828 0.80288 0.0
Li1320 Li 0.44015 0.10454 0.80663 0.0
Li1321 Li 0.45225 0.11946 0.84058 0.0
Li1322 Li 0.45118 0.13278 0.80597 0.0
Li1323 Li 0.46965 0.12294 0.8089 0.0
C1324 C 0.41752 0.10803 0.8269 0.0
N1325 N 0.38522 0.08903 0.8315 0.0
C1326 C 0.41109 0.1008 0.84704 0.0
C1327 C 0.40751 0.10575 0.80918 0.0
C1328 C 0.39473 0.09121 0.84902 0.0
C1329 C 0.39121 0.09604 0.81181 0.0
C1330 C 0.45949 0.094 0.83822 0.0
C1331 C 0.47792 0.09011 0.8599 0.0
N1332 N 0.46667 0.07475 0.86306 0.0
C1333 C 0.44816 0.07813 0.8415 0.0
C1334 C 0.47454 0.10001 0.84734 0.0
C1335 C 0.45199 0.06861 0.85418 0.0
C1336 C 0.42656 0.08148 0.77396 0.0
N1337 N 0.42468 0.08465 0.79511 0.0
C1338 C 0.40262 0.05862 0.79955 0.0
C1339 C 0.41299 0.0736 0.80794 0.0
C1340 C 0.4045 0.05485 0.77789 0.0
C1341 C 0.41659 0.06661 0.76498 0.0
H1342 H 0.43616 0.09036 0.76425 0.0
H1343 H 0.41199 0.07622 0.82489 0.0
C1344 C 0.45371 0.13292 0.88192 0.0
N1345 N 0.45094 0.11937 0.87181 0.0
C1346 C 0.45315 0.13359 0.9048 0.0
C1347 C 0.44682 0.10634 0.90639 0.0
C1348 C 0.44731 0.10615 0.88351 0.0
C1349 C 0.44978 0.1202 0.91741 0.0
H1350 H 0.45639 0.14321 0.87217 0.0
H1351 H 0.44475 0.09541 0.87518 0.0
C1352 C 0.45482 0.12611 0.76473 0.0
N1353 N 0.45482 0.13991 0.72514 0.0
C1354 C 0.46905 0.13587 0.7539 0.0
C1355 C 0.44058 0.12318 0.75529 0.0
C1356 C 0.46881 0.14278 0.73393 0.0
C1357 C 0.44083 0.13033 0.73531 0.0
C1358 C 0.48315 0.14968 0.83655 0.0
C1359 C 0.49193 0.16529 0.82924 0.0
C1360 C 0.48884 0.1446 0.85394 0.0
C1361 C 0.50641 0.17547 0.83916 0.0
C1362 C 0.50337 0.15514 0.86346 0.0
N1363 N 0.51179 0.17022 0.85591 0.0
C1364 C 0.43543 0.14991 0.79698 0.0
C1365 C 0.4615 0.16121 0.78305 0.0
C1366 C 0.43386 0.16224 0.7881 0.0
N1367 N 0.44907 0.14962 0.79422 0.0
C1368 C 0.46039 0.17364 0.7737 0.0
C1369 C 0.44644 0.17425 0.77619 0.0
H1370 H 0.42578 0.14061 0.8061 0.0
H1371 H 0.47228 0.16077 0.78137 0.0
C1372 C 0.49026 0.11227 0.79664 0.0
N1373 N 0.48943 0.12559 0.79981 0.0
C1374 C 0.50426 0.11326 0.78941 0.0
C1375 C 0.51621 0.14169 0.78817 0.0
C1376 C 0.50198 0.14014 0.79559 0.0
C1377 C 0.51747 0.12812 0.78504 0.0
H1378 H 0.47996 0.10083 0.79949 0.0
H1379 H 0.50088 0.15052 0.79758 0.0
O1380 O 0.4335 0.11746 0.82466 0.0
O1381 O 0.45589 0.10347 0.82583 0.0
O1382 O 0.45484 0.11946 0.78447 0.0
O1383 O 0.46894 0.13957 0.82698 0.0
H1384 H 0.41865 0.10252 0.86097 0.0
H1385 H 0.41227 0.11135 0.79354 0.0
H1386 H 0.3896 0.08547 0.86448 0.0
H1387 H 0.38334 0.09409 0.79819 0.0
H1388 H 0.48952 0.09462 0.86705 0.0
H1389 H 0.43649 0.07324 0.83447 0.0
H1390 H 0.4836 0.11212 0.84452 0.0
H1391 H 0.4433 0.05634 0.85696 0.0
H1392 H 0.39341 0.05001 0.81008 0.0
H1393 H 0.41875 0.0642 0.74838 0.0
H1394 H 0.45522 0.14445 0.91248 0.0
H1395 H 0.44435 0.09577 0.91531 0.0
H1396 H 0.48017 0.1382 0.76094 0.0
H1397 H 0.42947 0.11553 0.76336 0.0
H1398 H 0.47974 0.15045 0.72544 0.0
H1399 H 0.4299 0.12826 0.72788 0.0
H1400 H 0.48763 0.16948 0.81596 0.0
H1401 H 0.48206 0.1327 0.86018 0.0
H1402 H 0.51337 0.18755 0.83356 0.0
H1403 H 0.50792 0.15134 0.8769 0.0
H1404 H 0.42289 0.16229 0.79031 0.0
H1405 H 0.47044 0.18281 0.76493 0.0
H1406 H 0.50463 0.1025 0.78676 0.0
H1407 H 0.52612 0.15335 0.78493 0.0
Li1408 Li 0.33295 0.4528 0.8401 0.0
Li1409 Li 0.33407 0.43939 0.80653 0.0
Li1410 Li 0.34573 0.46891 0.80692 0.0
Li1411 Li 0.31724 0.45071 0.8065 0.0
C1412 C 0.36625 0.46091 0.83366 0.0
N1413 N 0.39558 0.47177 0.85266 0.0
C1414 C 0.37217 0.45066 0.8368 0.0
C1415 C 0.37534 0.47673 0.83999 0.0
C1416 C 0.38699 0.45636 0.84649 0.0
C1417 C 0.39012 0.48198 0.84961 0.0
C1418 C 0.30913 0.41774 0.82877 0.0
C1419 C 0.29486 0.39115 0.81466 0.0
N1420 N 0.29671 0.38563 0.83428 0.0
C1421 C 0.31081 0.41181 0.84885 0.0
C1422 C 0.301 0.40735 0.81157 0.0
C1423 C 0.30446 0.39553 0.8513 0.0
C1424 C 0.32113 0.45334 0.88175 0.0
N1425 N 0.33295 0.45247 0.87129 0.0
C1426 C 0.3442 0.45131 0.90558 0.0
C1427 C 0.3443 0.45132 0.88267 0.0
C1428 C 0.33218 0.45227 0.91683 0.0
C1429 C 0.32047 0.45321 0.90466 0.0
H1430 H 0.31224 0.45419 0.87223 0.0
H1431 H 0.3534 0.45033 0.87404 0.0
C1432 C 0.33971 0.42242 0.77396 0.0
N1433 N 0.33759 0.42313 0.79589 0.0
C1434 C 0.34385 0.41167 0.76566 0.0
C1435 C 0.34305 0.40226 0.80261 0.0
C1436 C 0.33908 0.41329 0.8102 0.0
C1437 C 0.34581 0.40155 0.78009 0.0
H1438 H 0.33873 0.43058 0.76298 0.0
H1439 H 0.33763 0.41431 0.82761 0.0
C1440 C 0.33298 0.483 0.83641 0.0
N1441 N 0.34015 0.51085 0.85746 0.0
C1442 C 0.32512 0.49112 0.83067 0.0
C1443 C 0.34436 0.48896 0.85304 0.0
C1444 C 0.32895 0.50521 0.84145 0.0
C1445 C 0.34785 0.50308 0.86344 0.0
C1446 C 0.32606 0.45382 0.76474 0.0
C1447 C 0.33092 0.46825 0.75425 0.0
C1448 C 0.31384 0.43991 0.7557 0.0
C1449 C 0.32331 0.46855 0.73499 0.0
C1450 C 0.30651 0.44071 0.73644 0.0
N1451 N 0.31135 0.4549 0.72658 0.0
C1452 C 0.37364 0.48633 0.78393 0.0
C1453 C 0.36415 0.50241 0.79889 0.0
C1454 C 0.3866 0.49951 0.77474 0.0
N1455 N 0.36278 0.488 0.79576 0.0
C1456 C 0.37702 0.51594 0.79016 0.0
C1457 C 0.38842 0.51455 0.77787 0.0
H1458 H 0.37219 0.4747 0.78167 0.0
H1459 H 0.35527 0.50347 0.80801 0.0
C1460 C 0.2841 0.43507 0.7994 0.0
N1461 N 0.29801 0.44865 0.79611 0.0
C1462 C 0.27001 0.43361 0.79149 0.0
C1463 C 0.28489 0.46013 0.77698 0.0
C1464 C 0.29863 0.46111 0.78531 0.0
C1465 C 0.2703 0.44626 0.78008 0.0
H1466 H 0.28393 0.42541 0.80825 0.0
H1467 H 0.30986 0.47179 0.78302 0.0
O1468 O 0.35176 0.45549 0.82413 0.0
O1469 O 0.31533 0.43364 0.82602 0.0
O1470 O 0.32932 0.46917 0.826 0.0
O1471 O 0.3332 0.45332 0.78378 0.0
H1472 H 0.36537 0.43842 0.83189 0.0
H1473 H 0.37115 0.48493 0.83734 0.0
H1474 H 0.39167 0.44853 0.8491 0.0
H1475 H 0.39726 0.49419 0.85458 0.0
H1476 H 0.28863 0.38298 0.80144 0.0
H1477 H 0.31702 0.41969 0.86235 0.0
H1478 H 0.29957 0.41175 0.79595 0.0
H1479 H 0.30573 0.39077 0.86671 0.0
H1480 H 0.3533 0.45034 0.91441 0.0
H1481 H 0.31106 0.45405 0.91278 0.0
H1482 H 0.34614 0.41178 0.74825 0.0
H1483 H 0.34427 0.3946 0.81433 0.0
H1484 H 0.31617 0.48662 0.818 0.0
H1485 H 0.35037 0.48273 0.85801 0.0
H1486 H 0.323 0.51165 0.8371 0.0
H1487 H 0.35665 0.50782 0.87631 0.0
H1488 H 0.34037 0.47912 0.76103 0.0
H1489 H 0.31 0.42865 0.76358 0.0
H1490 H 0.32688 0.47964 0.72676 0.0
H1491 H 0.29697 0.43006 0.72934 0.0
H1492 H 0.39522 0.49797 0.76552 0.0
H1493 H 0.37792 0.52733 0.79271 0.0
H1494 H 0.25902 0.42279 0.79455 0.0
H1495 H 0.28574 0.47009 0.76802 0.0
Li1496 Li 0.89258 0.33166 0.80731 0.0
Li1497 Li 0.87744 0.33047 0.83933 0.0
Li1498 Li 0.86417 0.31539 0.8059 0.0
Li1499 Li 0.87583 0.34412 0.80653 0.0
C1500 C 0.88453 0.30266 0.82552 0.0
N1501 N 0.89631 0.28219 0.82507 0.0
C1502 C 0.89088 0.30013 0.84464 0.0
C1503 C 0.88398 0.29461 0.80628 0.0
C1504 C 0.89683 0.28977 0.84405 0.0
C1505 C 0.89004 0.28436 0.80635 0.0
C1506 C 0.90862 0.35649 0.83659 0.0
C1507 C 0.9332 0.37941 0.84707 0.0
N1508 N 0.9369 0.37004 0.85924 0.0
C1509 C 0.91265 0.34711 0.84923 0.0
C1510 C 0.91895 0.37279 0.83551 0.0
C1511 C 0.927 0.35417 0.86055 0.0
C1512 C 0.91706 0.34287 0.77737 0.0
N1513 N 0.91218 0.33471 0.79653 0.0
C1514 C 0.93636 0.33431 0.79961 0.0
C1515 C 0.92143 0.33032 0.80766 0.0
C1516 C 0.94179 0.34296 0.77999 0.0
C1517 C 0.93183 0.34707 0.76871 0.0
H1518 H 0.90962 0.34653 0.76912 0.0
H1519 H 0.9175 0.32413 0.82309 0.0
C1520 C 0.86949 0.3162 0.88106 0.0
N1521 N 0.87684 0.33033 0.87049 0.0
C1522 C 0.86923 0.31564 0.90398 0.0
C1523 C 0.88395 0.3442 0.90464 0.0
C1524 C 0.88386 0.3442 0.88174 0.0
C1525 C 0.87665 0.32978 0.91604 0.0
H1526 H 0.86397 0.30536 0.87164 0.0
H1527 H 0.88949 0.35529 0.87294 0.0
C1528 C 0.87426 0.32634 0.76293 0.0
N1529 N 0.86598 0.31675 0.71992 0.0
C1530 C 0.86544 0.33144 0.75093 0.0
C1531 C 0.87915 0.31665 0.75291 0.0
C1532 C 0.86128 0.32637 0.72925 0.0
C1533 C 0.87477 0.31185 0.73119 0.0
C1534 C 0.85167 0.33509 0.83753 0.0
C1535 C 0.83567 0.32674 0.84311 0.0
C1536 C 0.86119 0.35049 0.8453 0.0
C1537 C 0.82943 0.33395 0.8564 0.0
C1538 C 0.85451 0.35728 0.85855 0.0
N1539 N 0.8389 0.34894 0.86378 0.0
C1540 C 0.8437 0.28227 0.80246 0.0
C1541 C 0.8376 0.29785 0.77908 0.0
C1542 C 0.83107 0.26843 0.79399 0.0
N1543 N 0.84684 0.29658 0.79467 0.0
C1544 C 0.825 0.28435 0.76993 0.0
C1545 C 0.82159 0.26934 0.77733 0.0
H1546 H 0.85091 0.28159 0.81538 0.0
H1547 H 0.83998 0.30938 0.77378 0.0
C1548 C 0.88772 0.37484 0.79062 0.0
N1549 N 0.87415 0.36124 0.79525 0.0
C1550 C 0.88716 0.38783 0.78222 0.0
C1551 C 0.85863 0.37248 0.78329 0.0
C1552 C 0.85975 0.35979 0.79169 0.0
C1553 C 0.87247 0.38675 0.77845 0.0
H1554 H 0.89898 0.37556 0.79345 0.0
H1555 H 0.84914 0.34873 0.79526 0.0
O1556 O 0.87874 0.31282 0.82577 0.0
O1557 O 0.89467 0.34983 0.82524 0.0
O1558 O 0.87851 0.33126 0.78415 0.0
O1559 O 0.85792 0.32812 0.82462 0.0
H1560 H 0.89128 0.30614 0.85975 0.0
H1561 H 0.87881 0.29619 0.7915 0.0
H1562 H 0.90186 0.28777 0.85868 0.0
H1563 H 0.88972 0.27809 0.79154 0.0
H1564 H 0.94131 0.39201 0.84637 0.0
H1565 H 0.90479 0.33451 0.8503 0.0
H1566 H 0.916 0.38025 0.82586 0.0
H1567 H 0.93026 0.34702 0.87037 0.0
H1568 H 0.94366 0.3309 0.8088 0.0
H1569 H 0.93567 0.35403 0.75379 0.0
H1570 H 0.86356 0.30428 0.91218 0.0
H1571 H 0.8896 0.35536 0.91334 0.0
H1572 H 0.86172 0.3391 0.75835 0.0
H1573 H 0.8864 0.313 0.76169 0.0
H1574 H 0.85434 0.3301 0.71984 0.0
H1575 H 0.87842 0.30429 0.72325 0.0
H1576 H 0.82816 0.3148 0.83723 0.0
H1577 H 0.87359 0.35715 0.84116 0.0
H1578 H 0.81706 0.32762 0.86085 0.0
H1579 H 0.86174 0.36919 0.86468 0.0
H1580 H 0.82866 0.25717 0.80064 0.0
H1581 H 0.81812 0.28569 0.75706 0.0
H1582 H 0.89812 0.39864 0.77894 0.0
H1583 H 0.84707 0.37108 0.78035 0.0
Li1584 Li 0.13106 0.44952 0.69424 0.0
Li1585 Li 0.1205 0.4674 0.6907 0.0
Li1586 Li 0.10216 0.43836 0.69318 0.0
Li1587 Li 0.11731 0.4507 0.65974 0.0
C1588 C 0.11729 0.44767 0.7362 0.0
N1589 N 0.11663 0.437 0.77842 0.0
C1590 C 0.12229 0.45823 0.75384 0.0
C1591 C 0.11178 0.43167 0.74007 0.0
C1592 C 0.12193 0.45261 0.77506 0.0
C1593 C 0.11157 0.4265 0.76151 0.0
C1594 C 0.14837 0.48294 0.67251 0.0
C1595 C 0.15746 0.5091 0.65824 0.0
N1596 N 0.16979 0.51496 0.67256 0.0
C1597 C 0.16118 0.48918 0.68698 0.0
C1598 C 0.14653 0.49293 0.65791 0.0
C1599 C 0.17187 0.50542 0.68678 0.0
C1600 C 0.15356 0.43963 0.69299 0.0
N1601 N 0.14784 0.44716 0.70551 0.0
C1602 C 0.1667 0.45187 0.73367 0.0
C1603 C 0.15421 0.45337 0.72542 0.0
C1604 C 0.17283 0.44411 0.72115 0.0
C1605 C 0.16614 0.43796 0.70053 0.0
H1606 H 0.14837 0.43498 0.67709 0.0
H1607 H 0.1498 0.45975 0.73473 0.0
C1608 C 0.11412 0.49258 0.69189 0.0
N1609 N 0.12354 0.48728 0.70011 0.0
C1610 C 0.1156 0.50674 0.6994 0.0
C1611 C 0.13653 0.50979 0.72364 0.0
C1612 C 0.13463 0.49554 0.71566 0.0
C1613 C 0.12682 0.51547 0.71564 0.0
H1614 H 0.10527 0.4857 0.67976 0.0
H1615 H 0.14183 0.49094 0.7221 0.0
C1616 C 0.11025 0.41623 0.67413 0.0
N1617 N 0.10049 0.38445 0.67068 0.0
C1618 C 0.10156 0.40759 0.65587 0.0
C1619 C 0.11422 0.40875 0.69044 0.0
C1620 C 0.09666 0.39152 0.65448 0.0
C1621 C 0.10911 0.39267 0.68845 0.0
C1622 C 0.0912 0.45358 0.65752 0.0
C1623 C 0.07585 0.44074 0.65582 0.0
C1624 C 0.09656 0.46585 0.6422 0.0
C1625 C 0.06617 0.44032 0.63865 0.0
C1626 C 0.08653 0.46497 0.62524 0.0
N1627 N 0.07167 0.45232 0.62382 0.0
C1628 C 0.07694 0.42834 0.72161 0.0
C1629 C 0.07373 0.40802 0.69725 0.0
C1630 C 0.06217 0.4185 0.73089 0.0
N1631 N 0.08239 0.423 0.70509 0.0
C1632 C 0.05885 0.39775 0.70607 0.0
C1633 C 0.05283 0.40304 0.72295 0.0
H1634 H 0.08403 0.44036 0.72736 0.0
H1635 H 0.07812 0.40413 0.68382 0.0
C1636 C 0.13101 0.45838 0.61759 0.0
N1637 N 0.11722 0.44937 0.62851 0.0
C1638 C 0.1314 0.45814 0.59467 0.0
C1639 C 0.10338 0.43933 0.59467 0.0
C1640 C 0.1036 0.43973 0.61757 0.0
C1641 C 0.1174 0.44865 0.58298 0.0
H1642 H 0.14171 0.46583 0.62669 0.0
H1643 H 0.09285 0.43244 0.62659 0.0
O1644 O 0.11764 0.45303 0.71532 0.0
O1645 O 0.1376 0.46713 0.67277 0.0
O1646 O 0.11528 0.43203 0.6756 0.0
O1647 O 0.10087 0.45415 0.67417 0.0
H1648 H 0.12648 0.47064 0.75117 0.0
H1649 H 0.10751 0.42329 0.72672 0.0
H1650 H 0.12584 0.46067 0.78885 0.0
H1651 H 0.10733 0.41413 0.76473 0.0
H1652 H 0.15613 0.51699 0.64713 0.0
H1653 H 0.16277 0.4816 0.69837 0.0
H1654 H 0.13672 0.48826 0.64654 0.0
H1655 H 0.18179 0.51044 0.69798 0.0
H1656 H 0.17176 0.45706 0.74944 0.0
H1657 H 0.17053 0.43187 0.69042 0.0
H1658 H 0.10799 0.51077 0.69262 0.0
H1659 H 0.14519 0.51604 0.73636 0.0
H1660 H 0.09851 0.41317 0.64298 0.0
H1661 H 0.1213 0.41529 0.7044 0.0
H1662 H 0.08983 0.38467 0.64052 0.0
H1663 H 0.11206 0.38673 0.701 0.0
H1664 H 0.07147 0.43118 0.66757 0.0
H1665 H 0.1084 0.47586 0.64326 0.0
H1666 H 0.05428 0.43043 0.63708 0.0
H1667 H 0.09057 0.47432 0.61318 0.0
H1668 H 0.05805 0.42299 0.74404 0.0
H1669 H 0.05192 0.38599 0.69926 0.0
H1670 H 0.14242 0.46551 0.58616 0.0
H1671 H 0.0924 0.43173 0.58618 0.0
Li1672 Li 0.6802 0.13001 0.68895 0.0
Li1673 Li 0.65238 0.12052 0.69055 0.0
Li1674 Li 0.66209 0.10213 0.68967 0.0
Li1675 Li 0.66386 0.11718 0.65743 0.0
C1676 C 0.66751 0.12717 0.73062 0.0
N1677 N 0.6718 0.14636 0.76635 0.0
C1678 C 0.67146 0.1429 0.72749 0.0
C1679 C 0.66581 0.12123 0.75193 0.0
C1680 C 0.67356 0.1524 0.74575 0.0
C1681 C 0.668 0.13111 0.76978 0.0
C1682 C 0.66094 0.14379 0.65878 0.0
C1683 C 0.63816 0.14116 0.63956 0.0
N1684 N 0.64652 0.15669 0.63393 0.0
C1685 C 0.66929 0.15973 0.65284 0.0
C1686 C 0.64523 0.13443 0.65213 0.0
C1687 C 0.6618 0.16602 0.64026 0.0
C1688 C 0.70727 0.16015 0.68691 0.0
N1689 N 0.70024 0.14645 0.6985 0.0
C1690 C 0.72079 0.15726 0.72535 0.0
C1691 C 0.70671 0.14476 0.71734 0.0
C1692 C 0.72814 0.17176 0.71411 0.0
C1693 C 0.72126 0.17305 0.69449 0.0
H1694 H 0.70178 0.16118 0.67207 0.0
H1695 H 0.70076 0.13383 0.72646 0.0
C1696 C 0.62274 0.11028 0.70888 0.0
N1697 N 0.63616 0.12354 0.70266 0.0
C1698 C 0.61017 0.11134 0.71784 0.0
C1699 C 0.62557 0.13975 0.71414 0.0
C1700 C 0.63782 0.13813 0.70514 0.0
C1701 C 0.61149 0.12623 0.72053 0.0
H1702 H 0.62184 0.09886 0.70691 0.0
H1703 H 0.64863 0.1485 0.70007 0.0
C1704 C 0.69285 0.11145 0.67597 0.0
N1705 N 0.71758 0.10697 0.68802 0.0
C1706 C 0.70364 0.1123 0.66022 0.0
C1707 C 0.69461 0.10827 0.69784 0.0
C1708 C 0.71607 0.11001 0.66664 0.0
C1709 C 0.70719 0.10605 0.70361 0.0
C1710 C 0.63687 0.08722 0.66118 0.0
C1711 C 0.64554 0.08244 0.64822 0.0
C1712 C 0.62047 0.07767 0.66252 0.0
C1713 C 0.63764 0.06815 0.63684 0.0
C1714 C 0.613 0.06345 0.65088 0.0
N1715 N 0.62167 0.05902 0.63839 0.0
C1716 C 0.65071 0.07807 0.72061 0.0
C1717 C 0.66124 0.07238 0.68908 0.0
C1718 C 0.64644 0.06337 0.72962 0.0
N1719 N 0.65786 0.08222 0.70067 0.0
C1720 C 0.65688 0.0574 0.69729 0.0
C1721 C 0.64933 0.05277 0.71776 0.0
H1722 H 0.64806 0.0861 0.72932 0.0
H1723 H 0.66707 0.07604 0.67334 0.0
C1724 C 0.67729 0.12321 0.61541 0.0
N1725 N 0.66329 0.11716 0.62619 0.0
C1726 C 0.67767 0.12322 0.59249 0.0
C1727 C 0.6492 0.11093 0.59221 0.0
C1728 C 0.64937 0.11114 0.61513 0.0
C1729 C 0.66348 0.11697 0.58059 0.0
H1730 H 0.68817 0.12801 0.62467 0.0
H1731 H 0.63838 0.10638 0.62408 0.0
O1732 O 0.66547 0.1176 0.71303 0.0
O1733 O 0.66821 0.13753 0.67111 0.0
O1734 O 0.68061 0.11363 0.6698 0.0
O1735 O 0.6443 0.10114 0.67259 0.0
H1736 H 0.67297 0.14778 0.71117 0.0
H1737 H 0.66286 0.10912 0.75468 0.0
H1738 H 0.67662 0.16458 0.74354 0.0
H1739 H 0.66671 0.12666 0.78637 0.0
H1740 H 0.62601 0.13403 0.63431 0.0
H1741 H 0.68144 0.16717 0.65791 0.0
H1742 H 0.6385 0.12211 0.65665 0.0
H1743 H 0.66814 0.17834 0.63554 0.0
H1744 H 0.72574 0.1556 0.74035 0.0
H1745 H 0.72633 0.18404 0.68543 0.0
H1746 H 0.59961 0.10065 0.72285 0.0
H1747 H 0.627 0.15143 0.71579 0.0
H1748 H 0.70241 0.11469 0.64319 0.0
H1749 H 0.68638 0.10754 0.71028 0.0
H1750 H 0.72452 0.11065 0.65462 0.0
H1751 H 0.7087 0.10361 0.72049 0.0
H1752 H 0.65823 0.08967 0.64694 0.0
H1753 H 0.61358 0.08121 0.67244 0.0
H1754 H 0.64421 0.06431 0.62677 0.0
H1755 H 0.60031 0.05593 0.65177 0.0
H1756 H 0.64044 0.06009 0.74533 0.0
H1757 H 0.65929 0.04948 0.68774 0.0
H1758 H 0.68896 0.12821 0.58419 0.0
H1759 H 0.63798 0.10584 0.5837 0.0
Li1760 Li 0.54808 0.68209 0.69271 0.0
Li1761 Li 0.53081 0.65328 0.68946 0.0
Li1762 Li 0.56033 0.66532 0.69046 0.0
Li1763 Li 0.54668 0.66747 0.65836 0.0
C1764 C 0.54883 0.66797 0.73513 0.0
N1765 N 0.55487 0.6729 0.77966 0.0
C1766 C 0.53638 0.66171 0.7502 0.0
C1767 C 0.56438 0.67656 0.74277 0.0
C1768 C 0.53966 0.66439 0.77262 0.0
C1769 C 0.56719 0.67896 0.76532 0.0
C1770 C 0.5142 0.6656 0.67294 0.0
C1771 C 0.48727 0.64751 0.66233 0.0
N1772 N 0.48238 0.65587 0.67465 0.0
C1773 C 0.50892 0.67407 0.68539 0.0
C1774 C 0.50331 0.65227 0.66119 0.0
C1775 C 0.49278 0.66894 0.68607 0.0
C1776 C 0.5566 0.71415 0.69232 0.0
N1777 N 0.54984 0.70082 0.70475 0.0
C1778 C 0.54549 0.71439 0.73409 0.0
C1779 C 0.54422 0.70066 0.7252 0.0
C1780 C 0.55246 0.7284 0.7217 0.0
C1781 C 0.55805 0.72815 0.70052 0.0
H1782 H 0.56081 0.71386 0.67599 0.0
H1783 H 0.5386 0.68985 0.73457 0.0
C1784 C 0.50886 0.62095 0.69458 0.0
N1785 N 0.51164 0.63568 0.69952 0.0
C1786 C 0.49524 0.60767 0.70226 0.0
C1787 C 0.48753 0.62497 0.71981 0.0
C1788 C 0.50137 0.63791 0.71196 0.0
C1789 C 0.4844 0.60961 0.71509 0.0
H1790 H 0.51731 0.61951 0.68486 0.0
H1791 H 0.504 0.64975 0.71601 0.0
C1792 C 0.58094 0.6967 0.67587 0.0
N1793 N 0.61167 0.72102 0.68124 0.0
C1794 C 0.59168 0.70121 0.65848 0.0
C1795 C 0.58579 0.70471 0.69589 0.0
C1796 C 0.60717 0.71349 0.66155 0.0
C1797 C 0.60138 0.71693 0.69831 0.0
C1798 C 0.54558 0.64019 0.6539 0.0
C1799 C 0.55988 0.64095 0.64882 0.0
C1800 C 0.53248 0.63175 0.64025 0.0
C1801 C 0.56089 0.63336 0.62996 0.0
C1802 C 0.53399 0.62435 0.62152 0.0
N1803 N 0.54805 0.62531 0.61679 0.0
C1804 C 0.57044 0.64884 0.71535 0.0
C1805 C 0.59183 0.67001 0.6967 0.0
C1806 C 0.58054 0.64432 0.7248 0.0
N1807 N 0.57619 0.66147 0.70167 0.0
C1808 C 0.60242 0.66592 0.70587 0.0
C1809 C 0.59679 0.65291 0.72014 0.0
H1810 H 0.55791 0.64219 0.71879 0.0
H1811 H 0.59612 0.67988 0.68556 0.0
C1812 C 0.53464 0.66702 0.61594 0.0
N1813 N 0.54725 0.66831 0.62713 0.0
C1814 C 0.53448 0.66675 0.59302 0.0
C1815 C 0.56046 0.66948 0.59357 0.0
C1816 C 0.56008 0.66966 0.61648 0.0
C1817 C 0.54749 0.66792 0.58152 0.0
H1818 H 0.52461 0.66603 0.6248 0.0
H1819 H 0.56994 0.67062 0.6258 0.0
O1820 O 0.54578 0.66535 0.7131 0.0
O1821 O 0.52995 0.67038 0.6722 0.0
O1822 O 0.56572 0.68469 0.67307 0.0
O1823 O 0.54445 0.64783 0.67202 0.0
H1824 H 0.52428 0.65492 0.74466 0.0
H1825 H 0.57422 0.68116 0.73151 0.0
H1826 H 0.53012 0.65969 0.78443 0.0
H1827 H 0.57916 0.68559 0.77143 0.0
H1828 H 0.47871 0.63715 0.65347 0.0
H1829 H 0.51718 0.68445 0.69448 0.0
H1830 H 0.50719 0.64555 0.65155 0.0
H1831 H 0.48851 0.67535 0.6957 0.0
H1832 H 0.54113 0.71405 0.75055 0.0
H1833 H 0.56326 0.73859 0.69024 0.0
H1834 H 0.4932 0.59601 0.69817 0.0
H1835 H 0.47956 0.62695 0.7299 0.0
H1836 H 0.58811 0.69528 0.64279 0.0
H1837 H 0.57761 0.70165 0.70937 0.0
H1838 H 0.61562 0.71705 0.64826 0.0
H1839 H 0.60529 0.7232 0.71375 0.0
H1840 H 0.57013 0.64746 0.6592 0.0
H1841 H 0.52133 0.63105 0.64398 0.0
H1842 H 0.57191 0.63392 0.62574 0.0
H1843 H 0.52399 0.61788 0.61071 0.0
H1844 H 0.57561 0.634 0.7353 0.0
H1845 H 0.61485 0.67289 0.70188 0.0
H1846 H 0.52415 0.66535 0.58444 0.0
H1847 H 0.57082 0.67063 0.5854 0.0
Li1848 Li 0.87638 0.53021 0.69396 0.0
Li1849 Li 0.86563 0.54808 0.69432 0.0
Li1850 Li 0.88 0.54652 0.66096 0.0
Li1851 Li 0.89381 0.55962 0.69487 0.0
C1852 C 0.84884 0.51575 0.66589 0.0
N1853 N 0.82619 0.48723 0.64836 0.0
C1854 C 0.83359 0.50788 0.67468 0.0
C1855 C 0.85247 0.50925 0.6479 0.0
C1856 C 0.82234 0.49343 0.66568 0.0
C1857 C 0.84088 0.49479 0.63935 0.0
C1858 C 0.87157 0.54499 0.73665 0.0
C1859 C 0.86461 0.55789 0.76463 0.0
N1860 N 0.85671 0.54398 0.7757 0.0
C1861 C 0.86349 0.53084 0.74838 0.0
C1862 C 0.87226 0.55866 0.7449 0.0
C1863 C 0.85602 0.53057 0.76807 0.0
C1864 C 0.88765 0.51118 0.71076 0.0
N1865 N 0.87416 0.51093 0.70461 0.0
C1866 C 0.8587 0.48374 0.71474 0.0
C1867 C 0.85982 0.49763 0.70664 0.0
C1868 C 0.87247 0.4836 0.72098 0.0
C1869 C 0.88709 0.49758 0.7189 0.0
H1870 H 0.89888 0.52199 0.70927 0.0
H1871 H 0.84923 0.49783 0.7023 0.0
C1872 C 0.84667 0.56239 0.69749 0.0
N1873 N 0.84818 0.54993 0.70408 0.0
C1874 C 0.83393 0.56389 0.70475 0.0
C1875 C 0.82469 0.53981 0.7256 0.0
C1876 C 0.83742 0.53863 0.71762 0.0
C1877 C 0.82273 0.55253 0.71912 0.0
H1878 H 0.85533 0.57111 0.6865 0.0
H1879 H 0.83879 0.52874 0.72238 0.0
C1880 C 0.90413 0.53789 0.66615 0.0
N1881 N 0.92042 0.52581 0.64392 0.0
C1882 C 0.92046 0.54712 0.66318 0.0
C1883 C 0.89614 0.52244 0.65805 0.0
C1884 C 0.92847 0.54083 0.65182 0.0
C1885 C 0.90456 0.51657 0.64681 0.0
C1886 C 0.89091 0.58133 0.67309 0.0
C1887 C 0.9 0.58747 0.65411 0.0
C1888 C 0.89199 0.59153 0.68995 0.0
C1889 C 0.91022 0.60376 0.65243 0.0
C1890 C 0.90236 0.60774 0.68766 0.0
N1891 N 0.91119 0.61346 0.66911 0.0
C1892 C 0.86742 0.54487 0.61915 0.0
C1893 C 0.89363 0.54943 0.61857 0.0
C1894 C 0.86697 0.54487 0.59623 0.0
N1895 N 0.88057 0.547 0.62978 0.0
C1896 C 0.89362 0.54931 0.59567 0.0
C1897 C 0.88015 0.54697 0.58426 0.0
H1898 H 0.85725 0.54307 0.62853 0.0
H1899 H 0.9041 0.55156 0.62733 0.0
C1900 C 0.91525 0.57774 0.72817 0.0
N1901 N 0.91329 0.57596 0.70607 0.0
C1902 C 0.92998 0.58837 0.73698 0.0
C1903 C 0.94029 0.59547 0.70008 0.0
C1904 C 0.92536 0.58466 0.69199 0.0
C1905 C 0.94281 0.59716 0.72287 0.0
H1906 H 0.90553 0.57051 0.739 0.0
H1907 H 0.92355 0.58277 0.67449 0.0
O1908 O 0.85996 0.52999 0.67443 0.0
O1909 O 0.87884 0.54544 0.71725 0.0
O1910 O 0.89613 0.54392 0.67722 0.0
O1911 O 0.881 0.56541 0.67516 0.0
H1912 H 0.83049 0.5128 0.6884 0.0
H1913 H 0.86403 0.51535 0.64042 0.0
H1914 H 0.81053 0.48716 0.67244 0.0
H1915 H 0.84356 0.48962 0.62547 0.0
H1916 H 0.86494 0.56835 0.77112 0.0
H1917 H 0.86292 0.52017 0.74229 0.0
H1918 H 0.87851 0.5697 0.73606 0.0
H1919 H 0.84965 0.51969 0.77727 0.0
H1920 H 0.84717 0.4733 0.71646 0.0
H1921 H 0.89801 0.49798 0.72333 0.0
H1922 H 0.83279 0.57374 0.69896 0.0
H1923 H 0.81659 0.53089 0.73692 0.0
H1924 H 0.92688 0.55904 0.66951 0.0
H1925 H 0.88361 0.51498 0.66069 0.0
H1926 H 0.94109 0.54787 0.64931 0.0
H1927 H 0.89851 0.50463 0.64046 0.0
H1928 H 0.89928 0.57974 0.64089 0.0
H1929 H 0.88495 0.58696 0.70467 0.0
H1930 H 0.9174 0.60867 0.63789 0.0
H1931 H 0.90339 0.61577 0.70062 0.0
H1932 H 0.85635 0.54299 0.58796 0.0
H1933 H 0.9041 0.55123 0.58695 0.0
H1934 H 0.93143 0.58939 0.75465 0.0
H1935 H 0.94993 0.60185 0.68865 0.0
Li1936 Li 0.34475 0.87512 0.68948 0.0
Li1937 Li 0.3169 0.8662 0.69098 0.0
Li1938 Li 0.33131 0.87883 0.65752 0.0
Li1939 Li 0.33547 0.89356 0.69064 0.0
C1940 C 0.33301 0.85132 0.65696 0.0
N1941 N 0.34393 0.83682 0.62862 0.0
C1942 C 0.32396 0.8351 0.65294 0.0
C1943 C 0.34763 0.86017 0.64655 0.0
C1944 C 0.32969 0.82799 0.63857 0.0
C1945 C 0.35294 0.85262 0.63228 0.0
C1946 C 0.33177 0.86867 0.73066 0.0
C1947 C 0.33279 0.86434 0.76947 0.0
N1948 N 0.32918 0.84923 0.76528 0.0
C1949 C 0.32808 0.85309 0.72673 0.0
C1950 C 0.33416 0.87435 0.75219 0.0
C1951 C 0.32682 0.84346 0.74445 0.0
C1952 C 0.37191 0.88322 0.71308 0.0
N1953 N 0.36104 0.87154 0.7001 0.0
C1954 C 0.37377 0.8563 0.70509 0.0
C1955 C 0.36156 0.85809 0.69631 0.0
C1956 C 0.38538 0.86833 0.71824 0.0
C1957 C 0.38423 0.88187 0.72234 0.0
H1958 H 0.37084 0.8935 0.7165 0.0
H1959 H 0.35247 0.84866 0.68669 0.0
C1960 C 0.28861 0.83721 0.6891 0.0
N1961 N 0.2972 0.8501 0.70193 0.0
C1962 C 0.2744 0.82469 0.6968 0.0
C1963 C 0.27799 0.83914 0.73058 0.0
C1964 C 0.29217 0.85133 0.72227 0.0
C1965 C 0.26899 0.82554 0.71786 0.0
H1966 H 0.29289 0.83662 0.67295 0.0
H1967 H 0.29928 0.86166 0.73221 0.0
C1968 C 0.36099 0.90977 0.66693 0.0
N1969 N 0.3789 0.94203 0.6606 0.0
C1970 C 0.35536 0.91752 0.65357 0.0
C1971 C 0.37578 0.91841 0.67692 0.0
C1972 C 0.36458 0.93383 0.6506 0.0
C1973 C 0.38464 0.93471 0.67356 0.0
C1974 C 0.30404 0.88499 0.68117 0.0
C1975 C 0.29252 0.88445 0.66704 0.0
C1976 C 0.30342 0.8878 0.70356 0.0
C1977 C 0.28054 0.88675 0.67557 0.0
C1978 C 0.29126 0.89003 0.71145 0.0
N1979 N 0.28017 0.88946 0.69742 0.0
C1980 C 0.31604 0.86989 0.61653 0.0
C1981 C 0.34372 0.88726 0.61461 0.0
C1982 C 0.31494 0.8694 0.59363 0.0
N1983 N 0.33027 0.87876 0.62646 0.0
C1984 C 0.34315 0.88722 0.59173 0.0
C1985 C 0.32862 0.87821 0.58097 0.0
H1986 H 0.30556 0.86318 0.62644 0.0
H1987 H 0.35492 0.894 0.62294 0.0
C1988 C 0.35213 0.91925 0.71829 0.0
N1989 N 0.34112 0.91381 0.70206 0.0
C1990 C 0.35801 0.93448 0.72654 0.0
C1991 C 0.34072 0.93805 0.70172 0.0
C1992 C 0.33532 0.9228 0.69371 0.0
C1993 C 0.35235 0.94408 0.71814 0.0
H1994 H 0.35659 0.91185 0.72443 0.0
H1995 H 0.3268 0.91829 0.68049 0.0
O1996 O 0.32739 0.85841 0.67079 0.0
O1997 O 0.33315 0.87844 0.71366 0.0
O1998 O 0.3519 0.89388 0.67056 0.0
O1999 O 0.31575 0.88267 0.67296 0.0
H2000 H 0.31262 0.82808 0.66086 0.0
H2001 H 0.35487 0.87269 0.64953 0.0
H2002 H 0.32281 0.81545 0.63533 0.0
H2003 H 0.36423 0.85932 0.62414 0.0
H2004 H 0.33461 0.86859 0.78622 0.0
H2005 H 0.32618 0.84844 0.71022 0.0
H2006 H 0.33705 0.88639 0.75548 0.0
H2007 H 0.32396 0.83139 0.74165 0.0
H2008 H 0.37417 0.84566 0.70147 0.0
H2009 H 0.39262 0.89125 0.73287 0.0
H2010 H 0.26771 0.81447 0.68642 0.0
H2011 H 0.27431 0.84016 0.74698 0.0
H2012 H 0.34386 0.91103 0.6459 0.0
H2013 H 0.38036 0.91261 0.68722 0.0
H2014 H 0.36031 0.94 0.64045 0.0
H2015 H 0.39607 0.94156 0.68128 0.0
H2016 H 0.29283 0.88227 0.64967 0.0
H2017 H 0.31223 0.88827 0.71475 0.0
H2018 H 0.27154 0.88636 0.66483 0.0
H2019 H 0.29065 0.8922 0.72874 0.0
H2020 H 0.3035 0.86237 0.58593 0.0
H2021 H 0.354 0.89397 0.58254 0.0
H2022 H 0.36693 0.93872 0.73929 0.0
H2023 H 0.33622 0.94521 0.69472 0.0
Li2024 Li 0.45097 0.31797 0.69167 0.0
Li2025 Li 0.46838 0.34684 0.69118 0.0
Li2026 Li 0.43935 0.33504 0.69163 0.0
Li2027 Li 0.45263 0.33337 0.65924 0.0
C2028 C 0.45275 0.33284 0.73603 0.0
N2029 N 0.45207 0.33143 0.78138 0.0
C2030 C 0.46675 0.33821 0.7479 0.0
C2031 C 0.43841 0.3269 0.74725 0.0
C2032 C 0.46616 0.33735 0.77081 0.0
C2033 C 0.43831 0.32625 0.77017 0.0
C2034 C 0.48282 0.33753 0.6595 0.0
C2035 C 0.50208 0.35969 0.63835 0.0
N2036 N 0.50903 0.35117 0.63247 0.0
C2037 C 0.49014 0.32898 0.65324 0.0
C2038 C 0.48882 0.35301 0.652 0.0
C2039 C 0.50338 0.33609 0.63957 0.0
C2040 C 0.44203 0.28569 0.68955 0.0
N2041 N 0.44929 0.29889 0.70221 0.0
C2042 C 0.45473 0.28499 0.72993 0.0
C2043 C 0.45567 0.29881 0.722 0.0
C2044 C 0.44733 0.27113 0.71725 0.0
C2045 C 0.44088 0.27159 0.6968 0.0
H2046 H 0.43723 0.28615 0.67374 0.0
H2047 H 0.46158 0.3095 0.73158 0.0
C2048 C 0.4877 0.37749 0.70688 0.0
N2049 N 0.4874 0.36375 0.70231 0.0
C2050 C 0.50133 0.3903 0.71542 0.0
C2051 C 0.51406 0.37452 0.71447 0.0
C2052 C 0.50017 0.36201 0.7059 0.0
C2053 C 0.51475 0.3889 0.71934 0.0
H2054 H 0.47728 0.37844 0.70401 0.0
H2055 H 0.49952 0.35088 0.70221 0.0
C2056 C 0.41876 0.30367 0.67837 0.0
N2057 N 0.38933 0.27881 0.68925 0.0
C2058 C 0.40707 0.29658 0.6623 0.0
C2059 C 0.41552 0.2981 0.69995 0.0
C2060 C 0.39225 0.28404 0.66813 0.0
C2061 C 0.40056 0.28552 0.70514 0.0
C2062 C 0.44759 0.35906 0.66173 0.0
C2063 C 0.43302 0.34907 0.6518 0.0
C2064 C 0.45425 0.37542 0.65993 0.0
C2065 C 0.42538 0.35564 0.6402 0.0
C2066 C 0.44624 0.38153 0.64818 0.0
N2067 N 0.43209 0.3716 0.63864 0.0
C2068 C 0.4299 0.35258 0.71533 0.0
C2069 C 0.40801 0.33059 0.6987 0.0
C2070 C 0.42014 0.35794 0.72361 0.0
N2071 N 0.42375 0.3392 0.70307 0.0
C2072 C 0.39776 0.33545 0.70688 0.0
C2073 C 0.40387 0.34941 0.71926 0.0
H2074 H 0.44249 0.35923 0.71834 0.0
H2075 H 0.40342 0.32018 0.68851 0.0
C2076 C 0.44562 0.31915 0.61751 0.0
N2077 N 0.45254 0.33329 0.62805 0.0
C2078 C 0.44516 0.31857 0.59458 0.0
C2079 C 0.45889 0.34713 0.59388 0.0
C2080 C 0.45924 0.34715 0.61677 0.0
C2081 C 0.45177 0.3327 0.58253 0.0
H2082 H 0.44042 0.30832 0.62695 0.0
H2083 H 0.46487 0.35826 0.62553 0.0
O2084 O 0.45314 0.33377 0.71358 0.0
O2085 O 0.46978 0.33065 0.67274 0.0
O2086 O 0.43327 0.31601 0.67283 0.0
O2087 O 0.45527 0.35295 0.67339 0.0
H2088 H 0.47795 0.34285 0.73951 0.0
H2089 H 0.42746 0.32291 0.73842 0.0
H2090 H 0.4769 0.34138 0.78018 0.0
H2091 H 0.4273 0.32166 0.77906 0.0
H2092 H 0.50684 0.37166 0.63242 0.0
H2093 H 0.4856 0.31697 0.65887 0.0
H2094 H 0.48331 0.35981 0.65662 0.0
H2095 H 0.50916 0.32961 0.63459 0.0
H2096 H 0.4597 0.28516 0.74589 0.0
H2097 H 0.43527 0.26125 0.68634 0.0
H2098 H 0.50129 0.4011 0.71926 0.0
H2099 H 0.52417 0.37299 0.71707 0.0
H2100 H 0.40942 0.30078 0.6455 0.0
H2101 H 0.42445 0.30335 0.71253 0.0
H2102 H 0.38308 0.27846 0.65587 0.0
H2103 H 0.39789 0.28108 0.72178 0.0
H2104 H 0.42765 0.33638 0.65302 0.0
H2105 H 0.46551 0.38331 0.66755 0.0
H2106 H 0.41411 0.34805 0.63244 0.0
H2107 H 0.45126 0.39417 0.64665 0.0
H2108 H 0.42527 0.36869 0.73326 0.0
H2109 H 0.38528 0.32867 0.70301 0.0
H2110 H 0.43951 0.30722 0.58638 0.0
H2111 H 0.4643 0.35827 0.58513 0.0
C2112 C 0.37411 0.02817 0.21949 0.0
C2113 C 0.38861 0.03863 0.22936 0.0
C2114 C 0.36498 0.01257 0.22703 0.0
C2115 C 0.37059 0.00732 0.24471 0.0
C2116 C 0.38501 0.01795 0.2551 0.0
C2117 C 0.39383 0.03347 0.24732 0.0
C2118 C 0.34958 0.00159 0.2157 0.0
C2119 C 0.39146 0.01277 0.27389 0.0
C2120 C 0.34439 0.96971 0.27655 0.0
C2121 C 0.34858 0.95921 0.26716 0.0
C2122 C 0.35096 0.98527 0.26881 0.0
C2123 C 0.36206 0.99045 0.25143 0.0
C2124 C 0.36596 0.97976 0.24148 0.0
C2125 C 0.35916 0.96427 0.24945 0.0
C2126 C 0.34641 0.99631 0.27967 0.0
C2127 C 0.37785 0.98486 0.22303 0.0
H2128 H 0.36997 0.03217 0.20574 0.0
H2129 H 0.40514 0.04143 0.25481 0.0
H2130 H 0.35057 0.9921 0.20716 0.0
H2131 H 0.33994 0.99582 0.22794 0.0
H2132 H 0.34625 0.00784 0.20346 0.0
H2133 H 0.40241 0.02272 0.28094 0.0
H2134 H 0.38252 0.00741 0.28713 0.0
H2135 H 0.39413 0.0036 0.26809 0.0
H2136 H 0.3361 0.96578 0.2901 0.0
H2137 H 0.36262 0.95629 0.24233 0.0
H2138 H 0.34283 0.00214 0.26712 0.0
H2139 H 0.35676 0.00575 0.28851 0.0
H2140 H 0.33659 0.99009 0.29158 0.0
H2141 H 0.37453 0.99028 0.20956 0.0
H2142 H 0.37885 0.97486 0.21619 0.0
H2143 H 0.38964 0.99396 0.2291 0.0
C2144 C 0.39566 0.35829 0.24512 0.0
C2145 C 0.39305 0.35207 0.26643 0.0
C2146 C 0.38668 0.36463 0.23667 0.0
C2147 C 0.37501 0.36499 0.25002 0.0
C2148 C 0.37176 0.35796 0.27113 0.0
C2149 C 0.38079 0.35149 0.27905 0.0
C2150 C 0.39033 0.37177 0.21394 0.0
C2151 C 0.35951 0.35824 0.28592 0.0
C2152 C 0.36898 0.39987 0.24049 0.0
C2153 C 0.35476 0.39305 0.22866 0.0
C2154 C 0.37546 0.39077 0.24785 0.0
C2155 C 0.36769 0.37444 0.24299 0.0
C2156 C 0.35336 0.36741 0.23102 0.0
C2157 C 0.34702 0.37681 0.22406 0.0
C2158 C 0.39077 0.39872 0.26061 0.0
C2159 C 0.34484 0.35005 0.22541 0.0
H2160 H 0.40503 0.35855 0.23528 0.0
H2161 H 0.37883 0.34674 0.29558 0.0
H2162 H 0.37928 0.36766 0.20441 0.0
H2163 H 0.39615 0.38482 0.21522 0.0
H2164 H 0.39826 0.36875 0.2047 0.0
H2165 H 0.3571 0.35068 0.30067 0.0
H2166 H 0.36373 0.37054 0.29144 0.0
H2167 H 0.34829 0.35424 0.2769 0.0
H2168 H 0.37526 0.41247 0.2437 0.0
H2169 H 0.33596 0.37141 0.21509 0.0
H2170 H 0.40008 0.39784 0.25137 0.0
H2171 H 0.38927 0.39266 0.27659 0.0
H2172 H 0.39495 0.4114 0.26381 0.0
H2173 H 0.35259 0.3473 0.21527 0.0
H2174 H 0.33369 0.34635 0.21626 0.0
H2175 H 0.34204 0.3429 0.24062 0.0
C2176 C 0.96938 0.34832 0.22478 0.0
C2177 C 0.95933 0.35363 0.23252 0.0
C2178 C 0.98483 0.35473 0.23291 0.0
C2179 C 0.99037 0.36687 0.24888 0.0
C2180 C 0.98014 0.37202 0.25706 0.0
C2181 C 0.96472 0.36528 0.24885 0.0
C2182 C 0.99534 0.3488 0.22404 0.0
C2183 C 0.98567 0.38509 0.27389 0.0
C2184 C 0.02723 0.37872 0.28283 0.0
C2185 C 0.03845 0.3922 0.27158 0.0
C2186 C 0.01162 0.36996 0.27518 0.0
C2187 C 0.00714 0.37498 0.25605 0.0
C2188 C 0.01853 0.3884 0.2444 0.0
C2189 C 0.03406 0.3968 0.25225 0.0
C2190 C -0.00016 0.35557 0.28784 0.0
C2191 C 0.01417 0.39425 0.22408 0.0
H2192 H 0.96517 0.33922 0.21227 0.0
H2193 H 0.95704 0.36954 0.25466 0.0
H2194 H 0.00526 0.35835 0.2147 0.0
H2195 H 0.00055 0.34545 0.23775 0.0
H2196 H 0.98885 0.33845 0.21302 0.0
H2197 H 0.97604 0.38723 0.27925 0.0
H2198 H 0.99046 0.38216 0.28853 0.0
H2199 H 0.99537 0.3962 0.26688 0.0
H2200 H 0.03065 0.37509 0.29769 0.0
H2201 H 0.04267 0.40735 0.24369 0.0
H2202 H 0.99377 0.34527 0.27668 0.0
H2203 H 0.99065 0.35773 0.29501 0.0
H2204 H 0.00549 0.35252 0.30134 0.0
H2205 H 0.00859 0.38465 0.21175 0.0
H2206 H 0.02457 0.40448 0.21642 0.0
H2207 H 0.00539 0.39786 0.22837 0.0
C2208 C 0.62218 0.97108 0.21989 0.0
C2209 C 0.60862 0.95979 0.23096 0.0
C2210 C 0.63092 0.98665 0.22772 0.0
C2211 C 0.62588 0.99101 0.24695 0.0
C2212 C 0.61251 0.97952 0.25857 0.0
C2213 C 0.60405 0.96407 0.25044 0.0
C2214 C 0.6452 0.99856 0.215 0.0
C2215 C 0.60668 0.98372 0.27906 0.0
C2216 C 0.65227 0.02937 0.27728 0.0
C2217 C 0.64655 0.03905 0.26945 0.0
C2218 C 0.64601 0.01381 0.26962 0.0
C2219 C 0.63366 0.00781 0.25394 0.0
C2220 C 0.62802 0.01763 0.24576 0.0
C2221 C 0.63454 0.03311 0.25359 0.0
C2222 C 0.65238 0.0037 0.27858 0.0
C2223 C 0.61475 0.01163 0.22918 0.0
H2224 H 0.62585 0.96778 0.20496 0.0
H2225 H 0.59345 0.95547 0.25891 0.0
H2226 H 0.64277 0.00752 0.20767 0.0
H2227 H 0.65548 0.00489 0.22614 0.0
H2228 H 0.64842 0.99298 0.20161 0.0
H2229 H 0.59681 0.97318 0.28703 0.0
H2230 H 0.61644 0.98971 0.29109 0.0
H2231 H 0.60254 0.9921 0.27484 0.0
H2232 H 0.66166 0.03397 0.28939 0.0
H2233 H 0.62989 0.04046 0.24774 0.0
H2234 H 0.65599 0.99868 0.26491 0.0
H2235 H 0.64299 0.99362 0.2879 0.0
H2236 H 0.66267 0.01043 0.28962 0.0
H2237 H 0.61776 0.00694 0.21451 0.0
H2238 H 0.61219 0.02098 0.2238 0.0
H2239 H 0.60385 0.00177 0.2364 0.0
C2240 C 0.60246 0.63359 0.25672 0.0
C2241 C 0.60854 0.64614 0.27176 0.0
C2242 C 0.61163 0.62722 0.24917 0.0
C2243 C 0.62727 0.63346 0.25696 0.0
C2244 C 0.6336 0.64626 0.27191 0.0
C2245 C 0.62416 0.65247 0.27914 0.0
C2246 C 0.60443 0.61355 0.23323 0.0
C2247 C 0.65024 0.6532 0.28056 0.0
C2248 C 0.64211 0.60441 0.25361 0.0
C2249 C 0.65055 0.60879 0.23378 0.0
C2250 C 0.63516 0.61287 0.26193 0.0
C2251 C 0.6366 0.62598 0.25009 0.0
C2252 C 0.64569 0.63091 0.23058 0.0
C2253 C 0.65257 0.62225 0.22266 0.0
C2254 C 0.62557 0.60725 0.28281 0.0
C2255 C 0.64753 0.64486 0.21755 0.0
H2256 H 0.59032 0.62842 0.25124 0.0
H2257 H 0.62899 0.66228 0.29058 0.0
H2258 H 0.61195 0.61639 0.21839 0.0
H2259 H 0.60379 0.60295 0.24092 0.0
H2260 H 0.59234 0.61054 0.22803 0.0
H2261 H 0.65364 0.6636 0.29131 0.0
H2262 H 0.65135 0.64413 0.29008 0.0
H2263 H 0.65873 0.65682 0.26671 0.0
H2264 H 0.64031 0.59392 0.26217 0.0
H2265 H 0.65928 0.62584 0.2075 0.0
H2266 H 0.61289 0.60248 0.27895 0.0
H2267 H 0.62915 0.61724 0.29438 0.0
H2268 H 0.62689 0.59787 0.29116 0.0
H2269 H 0.63597 0.64199 0.21032 0.0
H2270 H 0.65626 0.64815 0.20403 0.0
H2271 H 0.65129 0.65525 0.22841 0.0
C2272 C 0.03475 0.65045 0.23899 0.0
C2273 C 0.03714 0.64222 0.22194 0.0
C2274 C 0.01987 0.64441 0.24895 0.0
C2275 C 0.00716 0.6298 0.24168 0.0
C2276 C 0.00935 0.62183 0.22383 0.0
C2277 C 0.0243 0.62815 0.21415 0.0
C2278 C 0.01794 0.65329 0.26786 0.0
C2279 C 0.99607 0.60625 0.21553 0.0
C2280 C 0.97473 0.60282 0.28083 0.0
C2281 C 0.96196 0.60437 0.27359 0.0
C2282 C 0.98966 0.6115 0.27112 0.0
C2283 C 0.99192 0.62209 0.2538 0.0
C2284 C 0.97928 0.62427 0.24707 0.0
C2285 C 0.96441 0.61535 0.25703 0.0
C2286 C 0.00286 0.60888 0.27884 0.0
C2287 C 0.98128 0.63552 0.22873 0.0
H2288 H 0.04466 0.66129 0.24515 0.0
H2289 H 0.02603 0.62191 0.2007 0.0
H2290 H 0.00733 0.65447 0.26541 0.0
H2291 H 0.01617 0.64658 0.2833 0.0
H2292 H 0.02841 0.66526 0.2699 0.0
H2293 H -0.00056 0.6021 0.20059 0.0
H2294 H 0.9926 0.59713 0.2285 0.0
H2295 H 0.98554 0.60729 0.2117 0.0
H2296 H 0.97297 0.59458 0.29392 0.0
H2297 H 0.95456 0.61655 0.25128 0.0
H2298 H 0.01343 0.62031 0.2831 0.0
H2299 H 0.00629 0.60352 0.26539 0.0
H2300 H -0.00057 0.60097 0.29338 0.0
H2301 H 0.99192 0.64722 0.23158 0.0
H2302 H 0.97085 0.63713 0.22706 0.0
H2303 H 0.98304 0.63092 0.21297 0.0
C2304 C 0.61444 0.9638 0.76268 0.0
C2305 C 0.60021 0.96004 0.77326 0.0
C2306 C 0.62412 0.97885 0.75359 0.0
C2307 C 0.61931 0.99028 0.75474 0.0
C2308 C 0.60508 0.98664 0.76557 0.0
C2309 C 0.59582 0.97166 0.77492 0.0
C2310 C 0.63937 0.98244 0.74249 0.0
C2311 C 0.59946 0.99848 0.76701 0.0
C2312 C 0.64692 0.03427 0.74774 0.0
C2313 C 0.64346 0.03662 0.72622 0.0
C2314 C 0.63988 0.01906 0.75683 0.0
C2315 C 0.62885 0.006 0.74423 0.0
C2316 C 0.62579 0.00827 0.72218 0.0
C2317 C 0.63327 0.02357 0.71337 0.0
C2318 C 0.6437 0.01707 0.78022 0.0
C2319 C 0.61392 0.99469 0.70834 0.0
H2320 H 0.61788 0.95489 0.7611 0.0
H2321 H 0.58509 0.96905 0.78352 0.0
H2322 H 0.63876 0.98463 0.72475 0.0
H2323 H 0.64936 0.99334 0.74951 0.0
H2324 H 0.64193 0.97263 0.74427 0.0
H2325 H 0.58801 0.9937 0.77579 0.0
H2326 H 0.60837 0.00926 0.77569 0.0
H2327 H 0.59808 0.0021 0.75026 0.0
H2328 H 0.65491 0.0444 0.75759 0.0
H2329 H 0.63051 0.02544 0.69678 0.0
H2330 H 0.64637 0.0073 0.78134 0.0
H2331 H 0.63332 0.01389 0.79085 0.0
H2332 H 0.65392 0.02802 0.78678 0.0
H2333 H 0.61646 0.98484 0.70853 0.0
H2334 H 0.61382 0.99822 0.69102 0.0
H2335 H 0.60192 0.99012 0.71532 0.0
C2336 C 0.63166 0.59991 0.75666 0.0
C2337 C 0.64554 0.60693 0.76919 0.0
C2338 C 0.6251 0.60882 0.74876 0.0
C2339 C 0.6327 0.62521 0.75331 0.0
C2340 C 0.64692 0.63245 0.76556 0.0
C2341 C 0.65311 0.62318 0.77355 0.0
C2342 C 0.60979 0.6006 0.73602 0.0
C2343 C 0.65546 0.64993 0.77042 0.0
C2344 C 0.61922 0.64749 0.71652 0.0
C2345 C 0.60753 0.64779 0.72955 0.0
C2346 C 0.62819 0.64097 0.7245 0.0
C2347 C 0.62528 0.63447 0.74591 0.0
C2348 C 0.61406 0.63545 0.75951 0.0
C2349 C 0.6054 0.64218 0.75121 0.0
C2350 C 0.64019 0.6403 0.70961 0.0
C2351 C 0.6106 0.62863 0.78243 0.0
H2352 H 0.62567 0.5873 0.75354 0.0
H2353 H 0.6639 0.62862 0.78313 0.0
H2354 H 0.60052 0.6018 0.74486 0.0
H2355 H 0.61133 0.60622 0.71969 0.0
H2356 H 0.60555 0.58783 0.73357 0.0
H2357 H 0.66682 0.65389 0.77913 0.0
H2358 H 0.65787 0.65673 0.75492 0.0
H2359 H 0.6479 0.65285 0.78071 0.0
H2360 H 0.62089 0.65171 0.69973 0.0
H2361 H 0.59664 0.6427 0.76154 0.0
H2362 H 0.63584 0.6279 0.7045 0.0
H2363 H 0.65151 0.6444 0.71844 0.0
H2364 H 0.64248 0.64761 0.69462 0.0
H2365 H 0.60513 0.61559 0.78153 0.0
H2366 H 0.60245 0.63145 0.79148 0.0
H2367 H 0.62169 0.63316 0.79197 0.0
C2368 C 0.96436 0.60066 0.74823 0.0
C2369 C 0.95899 0.60688 0.7318 0.0
C2370 C 0.98003 0.60896 0.75557 0.0
C2371 C 0.99057 0.62388 0.74634 0.0
C2372 C 0.9851 0.63049 0.7303 0.0
C2373 C 0.96936 0.62186 0.72311 0.0
C2374 C 0.98545 0.60144 0.77258 0.0
C2375 C 0.99596 0.64647 0.72032 0.0
C2376 C 0.02862 0.64788 0.77831 0.0
C2377 C 0.03885 0.64403 0.76727 0.0
C2378 C 0.01303 0.642 0.77108 0.0
C2379 C 0.00754 0.63195 0.75252 0.0
C2380 C 0.01799 0.62855 0.74082 0.0
C2381 C 0.03354 0.6347 0.74827 0.0
C2382 C 0.00225 0.646 0.78385 0.0
C2383 C 0.01258 0.61787 0.72094 0.0
H2384 H 0.95646 0.58899 0.75476 0.0
H2385 H 0.96519 0.62674 0.71054 0.0
H2386 H 0.99448 0.59908 0.76531 0.0
H2387 H 0.99106 0.60959 0.78662 0.0
H2388 H 0.97558 0.59013 0.77891 0.0
H2389 H 0.98956 0.65052 0.70946 0.0
H2390 H 0.00201 0.65539 0.73342 0.0
H2391 H 0.00525 0.64593 0.71052 0.0
H2392 H 0.0326 0.655 0.79308 0.0
H2393 H 0.04148 0.63198 0.73937 0.0
H2394 H 0.99307 0.63528 0.79234 0.0
H2395 H 0.99606 0.65004 0.77258 0.0
H2396 H 0.00876 0.65533 0.79634 0.0
H2397 H 0.00338 0.60579 0.72587 0.0
H2398 H 0.02241 0.61714 0.71295 0.0
H2399 H 0.00718 0.62215 0.70869 0.0
C2400 C 0.39072 0.02545 0.78283 0.0
C2401 C 0.39469 0.03852 0.76923 0.0
C2402 C 0.38263 0.01002 0.7745 0.0
C2403 C 0.37862 0.00757 0.75196 0.0
C2404 C 0.38216 0.02062 0.73826 0.0
C2405 C 0.39006 0.03593 0.74709 0.0
C2406 C 0.37891 0.99637 0.78968 0.0
C2407 C 0.37815 0.01847 0.71409 0.0
C2408 C 0.37533 0.97049 0.72709 0.0
C2409 C 0.35894 0.96048 0.72612 0.0
C2410 C 0.38186 0.98596 0.73503 0.0
C2411 C 0.37173 0.99146 0.74246 0.0
C2412 C 0.35514 0.98142 0.74135 0.0
C2413 C 0.34893 0.96605 0.73301 0.0
C2414 C 0.39961 0.99639 0.73564 0.0
C2415 C 0.344 0.98681 0.74941 0.0
H2416 H 0.39442 0.02728 0.79986 0.0
H2417 H 0.39281 0.04591 0.73655 0.0
H2418 H 0.36627 0.98717 0.78826 0.0
H2419 H 0.38599 0.99084 0.7849 0.0
H2420 H 0.38151 0.00013 0.80713 0.0
H2421 H 0.38089 0.02973 0.70596 0.0
H2422 H 0.38494 0.01365 0.70577 0.0
H2423 H 0.36544 0.00982 0.71172 0.0
H2424 H 0.38306 0.96623 0.72148 0.0
H2425 H 0.33624 0.95825 0.73235 0.0
H2426 H 0.40363 -0.00033 0.75286 0.0
H2427 H 0.4032 0.0075 0.7265 0.0
H2428 H 0.40579 0.99052 0.72843 0.0
H2429 H 0.34595 0.98959 0.76719 0.0
H2430 H 0.33141 0.97772 0.74683 0.0
H2431 H 0.34639 0.99779 0.74081 0.0
C2432 C 0.36329 0.38975 0.78395 0.0
C2433 C 0.35187 0.39124 0.77188 0.0
C2434 C 0.37032 0.38139 0.77553 0.0
C2435 C 0.36598 0.3745 0.7544 0.0
C2436 C 0.35404 0.37542 0.74246 0.0
C2437 C 0.34709 0.38374 0.75139 0.0
C2438 C 0.38294 0.38058 0.78882 0.0
C2439 C 0.34912 0.36823 0.71987 0.0
C2440 C 0.39812 0.37136 0.72408 0.0
C2441 C 0.39353 0.35543 0.72714 0.0
C2442 C 0.38898 0.37757 0.73234 0.0
C2443 C 0.37497 0.36762 0.7441 0.0
C2444 C 0.37007 0.35142 0.74683 0.0
C2445 C 0.37939 0.34548 0.73818 0.0
C2446 C 0.39452 0.39487 0.72886 0.0
C2447 C 0.35526 0.34051 0.75943 0.0
H2448 H 0.36725 0.39567 0.79964 0.0
H2449 H 0.33809 0.3846 0.74211 0.0
H2450 H 0.38048 0.36822 0.78982 0.0
H2451 H 0.39456 0.38764 0.78062 0.0
H2452 H 0.38385 0.38519 0.80576 0.0
H2453 H 0.33875 0.3688 0.71356 0.0
H2454 H 0.35908 0.37461 0.70824 0.0
H2455 H 0.3462 0.35571 0.7201 0.0
H2456 H 0.40893 0.37901 0.71523 0.0
H2457 H 0.37588 0.33317 0.74063 0.0
H2458 H 0.39721 0.40102 0.74493 0.0
H2459 H 0.38504 0.39627 0.72103 0.0
H2460 H 0.40525 0.40079 0.7184 0.0
H2461 H 0.35664 0.34434 0.77684 0.0
H2462 H 0.35257 0.32804 0.75892 0.0
H2463 H 0.34502 0.34109 0.7527 0.0
C2464 C 0.02671 0.39908 0.73515 0.0
C2465 C 0.03664 0.39279 0.73161 0.0
C2466 C 0.01135 0.38967 0.74322 0.0
C2467 C 0.00575 0.37353 0.74785 0.0
C2468 C 0.01568 0.36706 0.74427 0.0
C2469 C 0.03103 0.37678 0.73615 0.0
C2470 C 0.00109 0.397 0.74671 0.0
C2471 C 0.0101 0.34992 0.7491 0.0
C2472 C 0.97085 0.35551 0.78677 0.0
C2473 C 0.95812 0.34873 0.77204 0.0
C2474 C 0.98649 0.36291 0.77919 0.0
C2475 C 0.98944 0.36356 0.75634 0.0
C2476 C 0.97665 0.35601 0.74149 0.0
C2477 C 0.96114 0.34867 0.74953 0.0
C2478 C -0.00017 0.37081 0.79553 0.0
C2479 C 0.97932 0.35638 0.71702 0.0
H2480 H 0.03088 0.41137 0.7313 0.0
H2481 H 0.03872 0.37189 0.73359 0.0
H2482 H 0.99025 0.39078 0.73654 0.0
H2483 H 0.99731 0.39569 0.76413 0.0
H2484 H 0.00728 0.40975 0.74241 0.0
H2485 H 0.01925 0.34669 0.74533 0.0
H2486 H 0.0068 0.34737 0.76667 0.0
H2487 H -0.00063 0.34224 0.73932 0.0
H2488 H 0.96862 0.35573 0.80417 0.0
H2489 H 0.95133 0.34322 0.73812 0.0
H2490 H 0.00561 0.38382 0.79366 0.0
H2491 H 0.00893 0.36743 0.7924 0.0
H2492 H 0.99565 0.36771 0.81276 0.0
H2493 H 0.98423 0.36864 0.7109 0.0
H2494 H 0.96824 0.34863 0.70792 0.0
H2495 H 0.98807 0.35264 0.71324 0.0
C2496 C 0.43722 0.19455 0.21842 0.0
C2497 C 0.44562 0.18855 0.22964 0.0
C2498 C 0.43671 0.20775 0.22637 0.0
C2499 C 0.4448 0.21511 0.246 0.0
C2500 C 0.45316 0.20902 0.25753 0.0
C2501 C 0.45347 0.1958 0.24921 0.0
C2502 C 0.42771 0.21396 0.21361 0.0
C2503 C 0.46188 0.21652 0.27858 0.0
C2504 C 0.45687 0.258 0.2558 0.0
C2505 C 0.44525 0.25661 0.27061 0.0
C2506 C 0.45679 0.24458 0.24754 0.0
C2507 C 0.44481 0.2294 0.25427 0.0
C2508 C 0.43298 0.2279 0.26909 0.0
C2509 C 0.43335 0.24154 0.2771 0.0
C2510 C 0.46963 0.24664 0.23181 0.0
C2511 C 0.41999 0.2119 0.27656 0.0
H2512 H 0.43128 0.18909 0.20316 0.0
H2513 H 0.45978 0.19106 0.2581 0.0
H2514 H 0.41872 0.21435 0.22429 0.0
H2515 H 0.43591 0.22623 0.20811 0.0
H2516 H 0.42169 0.20662 0.19897 0.0
H2517 H 0.46762 0.21019 0.28571 0.0
H2518 H 0.47108 0.22897 0.27548 0.0
H2519 H 0.45359 0.21669 0.29089 0.0
H2520 H 0.46622 0.26963 0.25098 0.0
H2521 H 0.42424 0.2404 0.28835 0.0
H2522 H 0.46432 0.24021 0.21629 0.0
H2523 H 0.47648 0.24149 0.239 0.0
H2524 H 0.4779 0.25925 0.22787 0.0
H2525 H 0.4133 0.20471 0.26216 0.0
H2526 H 0.4116 0.21277 0.28799 0.0
H2527 H 0.42517 0.20546 0.28494 0.0
C2528 C 0.20381 0.46176 0.26839 0.0
C2529 C 0.18909 0.44803 0.27101 0.0
C2530 C 0.21676 0.46107 0.25981 0.0
C2531 C 0.21495 0.44627 0.25378 0.0
C2532 C 0.20014 0.43235 0.25639 0.0
C2533 C 0.18738 0.4334 0.26495 0.0
C2534 C 0.23238 0.47616 0.25727 0.0
C2535 C 0.19779 0.41637 0.25012 0.0
C2536 C 0.24481 0.4465 0.21374 0.0
C2537 C 0.25532 0.4451 0.22795 0.0
C2538 C 0.23149 0.4467 0.2219 0.0
C2539 C 0.22861 0.44539 0.2448 0.0
C2540 C 0.23902 0.44367 0.25919 0.0
C2541 C 0.25228 0.44358 0.25059 0.0
C2542 C 0.22068 0.44864 0.20607 0.0
C2543 C 0.23626 0.44211 0.28369 0.0
H2544 H 0.20527 0.47307 0.27333 0.0
H2545 H 0.17597 0.42277 0.26664 0.0
H2546 H 0.24156 0.47552 0.2672 0.0
H2547 H 0.23627 0.47772 0.23988 0.0
H2548 H 0.23176 0.48673 0.26248 0.0
H2549 H 0.18556 0.40667 0.25336 0.0
H2550 H 0.20042 0.41624 0.23243 0.0
H2551 H 0.20612 0.41397 0.25945 0.0
H2552 H 0.24722 0.44786 0.19625 0.0
H2553 H 0.26029 0.4423 0.26158 0.0
H2554 H 0.22066 0.45974 0.20975 0.0
H2555 H 0.20838 0.43878 0.20805 0.0
H2556 H 0.22429 0.44898 0.18869 0.0
H2557 H 0.23659 0.45287 0.29021 0.0
H2558 H 0.24522 0.44038 0.29255 0.0
H2559 H 0.22437 0.43197 0.28734 0.0
C2560 C 0.74715 0.20408 0.27517 0.0
C2561 C 0.74231 0.18888 0.26722 0.0
C2562 C 0.76075 0.21726 0.26696 0.0
C2563 C 0.76962 0.21518 0.25027 0.0
C2564 C 0.76486 0.19984 0.24228 0.0
C2565 C 0.75128 0.18684 0.25094 0.0
C2566 C 0.76556 0.23342 0.27606 0.0
C2567 C 0.77395 0.1972 0.22434 0.0
C2568 C 0.79508 0.25094 0.21484 0.0
C2569 C 0.81007 0.25642 0.22404 0.0
C2570 C 0.78186 0.23735 0.22296 0.0
C2571 C 0.78367 0.22914 0.24084 0.0
C2572 C 0.79881 0.23453 0.25007 0.0
C2573 C 0.81186 0.24809 0.24148 0.0
C2574 C 0.76592 0.23185 0.21254 0.0
C2575 C 0.80116 0.22615 0.26929 0.0
H2576 H 0.74033 0.20564 0.28796 0.0
H2577 H 0.74746 0.17509 0.24465 0.0
H2578 H 0.77782 0.23907 0.28244 0.0
H2579 H 0.76539 0.24111 0.26279 0.0
H2580 H 0.75764 0.23295 0.28949 0.0
H2581 H 0.76885 0.18449 0.22025 0.0
H2582 H 0.77401 0.20361 0.20928 0.0
H2583 H 0.78643 0.20201 0.2294 0.0
H2584 H 0.79372 0.25728 0.20118 0.0
H2585 H 0.82343 0.2524 0.24874 0.0
H2586 H 0.75772 0.23221 0.22481 0.0
H2587 H 0.76072 0.21942 0.20702 0.0
H2588 H 0.76663 0.23924 0.19824 0.0
H2589 H 0.79423 0.22638 0.28359 0.0
H2590 H 0.81376 0.23164 0.27421 0.0
H2591 H 0.79673 0.21357 0.26515 0.0
C2592 C 0.56501 0.8098 0.23631 0.0
C2593 C 0.55051 0.80897 0.2319 0.0
C2594 C 0.56562 0.79658 0.24397 0.0
C2595 C 0.55138 0.78228 0.24786 0.0
C2596 C 0.53671 0.78137 0.24367 0.0
C2597 C 0.53646 0.79464 0.23548 0.0
C2598 C 0.58149 0.79791 0.2479 0.0
C2599 C 0.52127 0.76637 0.24794 0.0
C2600 C 0.55142 0.74351 0.24988 0.0
C2601 C 0.55206 0.74143 0.27252 0.0
C2602 C 0.5515 0.75693 0.24158 0.0
C2603 C 0.55181 0.76827 0.25637 0.0
C2604 C 0.55234 0.76612 0.27929 0.0
C2605 C 0.55266 0.75279 0.2871 0.0
C2606 C 0.55131 0.759 0.21703 0.0
C2607 C 0.55231 0.77777 0.29556 0.0
H2608 H 0.57594 0.82084 0.234 0.0
H2609 H 0.52519 0.79371 0.23171 0.0
H2610 H 0.58275 0.79581 0.26549 0.0
H2611 H 0.5824 0.78874 0.23833 0.0
H2612 H 0.59146 0.80969 0.24323 0.0
H2613 H 0.51087 0.76777 0.24453 0.0
H2614 H 0.52044 0.75668 0.23753 0.0
H2615 H 0.52073 0.7627 0.26531 0.0
H2616 H 0.55104 0.73469 0.2387 0.0
H2617 H 0.55304 0.75103 0.30463 0.0
H2618 H 0.56158 0.77047 0.21204 0.0
H2619 H 0.54049 0.75926 0.21221 0.0
H2620 H 0.55166 0.74939 0.2078 0.0
H2621 H 0.56268 0.78966 0.29275 0.0
H2622 H 0.55257 0.77426 0.31284 0.0
H2623 H 0.54159 0.77877 0.29317 0.0
C2624 C 0.75406 0.56474 0.24024 0.0
C2625 C 0.74397 0.55247 0.22613 0.0
C2626 C 0.76773 0.56544 0.24877 0.0
C2627 C 0.77137 0.55359 0.24303 0.0
C2628 C 0.76132 0.54126 0.22862 0.0
C2629 C 0.74773 0.54085 0.22034 0.0
C2630 C 0.77815 0.57873 0.26417 0.0
C2631 C 0.76486 0.52845 0.22207 0.0
C2632 C 0.81337 0.5618 0.25045 0.0
C2633 C 0.81218 0.55393 0.27023 0.0
C2634 C 0.80019 0.56187 0.24144 0.0
C2635 C 0.7855 0.55387 0.25249 0.0
C2636 C 0.78424 0.54596 0.2725 0.0
C2637 C 0.7976 0.54607 0.28111 0.0
C2638 C 0.80197 0.57047 0.22009 0.0
C2639 C 0.76875 0.53724 0.28471 0.0
H2640 H 0.7511 0.57364 0.24497 0.0
H2641 H 0.74008 0.53147 0.20919 0.0
H2642 H 0.77859 0.57385 0.28043 0.0
H2643 H 0.7904 0.5852 0.25774 0.0
H2644 H 0.77389 0.58725 0.26649 0.0
H2645 H 0.75597 0.51984 0.21042 0.0
H2646 H 0.77669 0.53376 0.21431 0.0
H2647 H 0.76512 0.52197 0.23687 0.0
H2648 H 0.82466 0.56804 0.2421 0.0
H2649 H 0.79655 0.53976 0.29623 0.0
H2650 H 0.79862 0.57967 0.22245 0.0
H2651 H 0.79388 0.5621 0.20756 0.0
H2652 H 0.81424 0.57619 0.21363 0.0
H2653 H 0.76431 0.54542 0.28859 0.0
H2654 H 0.76983 0.53192 0.30026 0.0
H2655 H 0.75976 0.52771 0.2742 0.0
C2656 C 0.20229 0.74754 0.21772 0.0
C2657 C 0.18719 0.74211 0.22661 0.0
C2658 C 0.21552 0.76099 0.22614 0.0
C2659 C 0.21366 0.76913 0.24406 0.0
C2660 C 0.19848 0.76378 0.25309 0.0
C2661 C 0.18541 0.75037 0.24419 0.0
C2662 C 0.23154 0.76637 0.21603 0.0
C2663 C 0.19606 0.77215 0.27226 0.0
C2664 C 0.24999 0.79415 0.27882 0.0
C2665 C 0.25487 0.80937 0.27087 0.0
C2666 C 0.23645 0.78097 0.27046 0.0
C2667 C 0.22769 0.78306 0.25361 0.0
C2668 C 0.23252 0.79841 0.24558 0.0
C2669 C 0.24604 0.8114 0.25438 0.0
C2670 C 0.23158 0.7648 0.27957 0.0
C2671 C 0.22355 0.80107 0.22746 0.0
H2672 H 0.20383 0.74108 0.20439 0.0
H2673 H 0.17376 0.74639 0.25096 0.0
H2674 H 0.23694 0.77887 0.2107 0.0
H2675 H 0.23954 0.76578 0.22843 0.0
H2676 H 0.23088 0.75907 0.20165 0.0
H2677 H 0.18348 0.76653 0.27729 0.0
H2678 H 0.20312 0.77215 0.28653 0.0
H2679 H 0.20029 0.78466 0.26796 0.0
H2680 H 0.25671 0.79259 0.29175 0.0
H2681 H 0.24989 0.82314 0.24805 0.0
H2682 H 0.23173 0.75708 0.26633 0.0
H2683 H 0.21931 0.75921 0.28592 0.0
H2684 H 0.23946 0.76525 0.29304 0.0
H2685 H 0.22359 0.79465 0.21245 0.0
H2686 H 0.2287 0.81378 0.22335 0.0
H2687 H 0.21105 0.79627 0.23235 0.0
C2688 C 0.54107 0.74236 0.74286 0.0
C2689 C 0.55361 0.74307 0.7307 0.0
C2690 C 0.54191 0.75608 0.7514 0.0
C2691 C 0.55555 0.7709 0.74751 0.0
C2692 C 0.56826 0.77174 0.73528 0.0
C2693 C 0.56716 0.7578 0.72709 0.0
C2694 C 0.52812 0.75471 0.76441 0.0
C2695 C 0.58296 0.78737 0.73073 0.0
C2696 C 0.55007 0.80657 0.75154 0.0
C2697 C 0.55592 0.81227 0.77265 0.0
C2698 C 0.55027 0.79337 0.74295 0.0
C2699 C 0.5563 0.78555 0.75586 0.0
C2700 C 0.56244 0.79134 0.77703 0.0
C2701 C 0.56223 0.80467 0.78514 0.0
C2702 C 0.54369 0.78758 0.72024 0.0
C2703 C 0.56892 0.78326 0.79129 0.0
H2704 H 0.53045 0.73107 0.74543 0.0
H2705 H 0.57698 0.75844 0.71797 0.0
H2706 H 0.53216 0.76011 0.78087 0.0
H2707 H 0.52311 0.76128 0.75598 0.0
H2708 H 0.5186 0.74225 0.76655 0.0
H2709 H 0.59185 0.78598 0.7211 0.0
H2710 H 0.57983 0.7952 0.7215 0.0
H2711 H 0.58844 0.7934 0.74641 0.0
H2712 H 0.54493 0.81219 0.74189 0.0
H2713 H 0.56698 0.80913 0.80133 0.0
H2714 H 0.53314 0.77561 0.72133 0.0
H2715 H 0.55253 0.78662 0.70995 0.0
H2716 H 0.54026 0.79551 0.71185 0.0
H2717 H 0.55946 0.771 0.79491 0.0
H2718 H 0.57372 0.78954 0.80708 0.0
H2719 H 0.57843 0.78246 0.78248 0.0
C2720 C 0.7543 0.55684 0.7847 0.0
C2721 C 0.74275 0.55636 0.77063 0.0
C2722 C 0.76774 0.55704 0.77624 0.0
C2723 C 0.76978 0.55713 0.75319 0.0
C2724 C 0.75841 0.5573 0.73895 0.0
C2725 C 0.7449 0.55669 0.74787 0.0
C2726 C 0.77944 0.55652 0.79193 0.0
C2727 C 0.76036 0.55777 0.71431 0.0
C2728 C 0.81073 0.56865 0.73212 0.0
C2729 C 0.80907 0.55384 0.72731 0.0
C2730 C 0.79797 0.56995 0.74018 0.0
C2731 C 0.78331 0.5561 0.74399 0.0
C2732 C 0.78153 0.54113 0.73919 0.0
C2733 C 0.79435 0.5402 0.73064 0.0
C2734 C 0.8002 0.58612 0.74473 0.0
C2735 C 0.76611 0.52606 0.74327 0.0
H2736 H 0.7525 0.55646 0.80231 0.0
H2737 H 0.73594 0.55643 0.73706 0.0
H2738 H 0.77976 0.54544 0.78937 0.0
H2739 H 0.79149 0.56649 0.78867 0.0
H2740 H 0.77642 0.55706 0.80937 0.0
H2741 H 0.75115 0.55919 0.70564 0.0
H2742 H 0.77215 0.56767 0.70959 0.0
H2743 H 0.75971 0.5467 0.70857 0.0
H2744 H 0.82208 0.57926 0.72991 0.0
H2745 H 0.79278 0.52872 0.72651 0.0
H2746 H 0.79851 0.58734 0.76249 0.0
H2747 H 0.79119 0.58766 0.73573 0.0
H2748 H 0.81211 0.59575 0.73987 0.0
H2749 H 0.76267 0.5254 0.76077 0.0
H2750 H 0.7668 0.51535 0.73919 0.0
H2751 H 0.75658 0.52598 0.73329 0.0
C2752 C 0.24323 0.81473 0.73783 0.0
C2753 C 0.2543 0.81211 0.7268 0.0
C2754 C 0.22941 0.80209 0.74665 0.0
C2755 C 0.22672 0.78652 0.74451 0.0
C2756 C 0.23787 0.78382 0.73339 0.0
C2757 C 0.25151 0.79665 0.72462 0.0
C2758 C 0.2177 0.80539 0.75823 0.0
C2759 C 0.23546 0.76738 0.73092 0.0
C2760 C 0.19907 0.75414 0.78347 0.0
C2761 C 0.18577 0.74549 0.77015 0.0
C2762 C 0.21235 0.76781 0.77554 0.0
C2763 C 0.21224 0.77296 0.75384 0.0
C2764 C 0.19861 0.7646 0.74061 0.0
C2765 C 0.18555 0.75092 0.74891 0.0
C2766 C 0.22671 0.77638 0.79008 0.0
C2767 C 0.198 0.76983 0.71748 0.0
H2768 H 0.2453 0.82667 0.73937 0.0
H2769 H 0.26016 0.79461 0.71637 0.0
H2770 H 0.20601 0.79885 0.75006 0.0
H2771 H 0.2161 0.80113 0.77544 0.0
H2772 H 0.22151 0.81817 0.75836 0.0
H2773 H 0.2453 0.76731 0.72189 0.0
H2774 H 0.23443 0.76203 0.74735 0.0
H2775 H 0.22428 0.75974 0.72201 0.0
H2776 H 0.19933 0.74989 0.79982 0.0
H2777 H 0.17519 0.74435 0.73869 0.0
H2778 H 0.2304 0.78909 0.79113 0.0
H2779 H 0.23671 0.77558 0.78285 0.0
H2780 H 0.22455 0.77141 0.80696 0.0
H2781 H 0.20116 0.78242 0.71736 0.0
H2782 H 0.18614 0.76267 0.70991 0.0
H2783 H 0.20678 0.76881 0.70711 0.0
C2784 C 0.43287 0.24168 0.72227 0.0
C2785 C 0.44657 0.25639 0.72525 0.0
C2786 C 0.43202 0.22773 0.72997 0.0
C2787 C 0.44515 0.22855 0.74101 0.0
C2788 C 0.45902 0.24335 0.74402 0.0
C2789 C 0.45958 0.25706 0.73601 0.0
C2790 C 0.41707 0.21214 0.72639 0.0
C2791 C 0.47327 0.2447 0.75573 0.0
C2792 C 0.43947 0.19555 0.7795 0.0
C2793 C 0.4452 0.18756 0.76674 0.0
C2794 C 0.4391 0.20875 0.77118 0.0
C2795 C 0.44446 0.21397 0.74952 0.0
C2796 C 0.44984 0.20567 0.73637 0.0
C2797 C 0.45022 0.1926 0.74518 0.0
C2798 C 0.43342 0.21739 0.78577 0.0
C2799 C 0.45548 0.21076 0.71312 0.0
H2800 H 0.4227 0.24107 0.7142 0.0
H2801 H 0.47032 0.26834 0.73803 0.0
H2802 H 0.41976 0.20394 0.71728 0.0
H2803 H 0.41196 0.20655 0.74244 0.0
H2804 H 0.40804 0.21349 0.71707 0.0
H2805 H 0.48307 0.25712 0.75693 0.0
H2806 H 0.46994 0.23978 0.77256 0.0
H2807 H 0.47763 0.23769 0.74695 0.0
H2808 H 0.43572 0.19176 0.79624 0.0
H2809 H 0.45447 0.18631 0.7352 0.0
H2810 H 0.42382 0.21836 0.77754 0.0
H2811 H 0.44323 0.22959 0.78878 0.0
H2812 H 0.42902 0.21143 0.80186 0.0
H2813 H 0.44624 0.21149 0.70346 0.0
H2814 H 0.45849 0.20253 0.70469 0.0
H2815 H 0.46609 0.22272 0.7132 0.0
C2816 C 0.19937 0.44668 0.71562 0.0
C2817 C 0.18645 0.4429 0.72937 0.0
C2818 C 0.21276 0.44652 0.72357 0.0
C2819 C 0.21316 0.44236 0.74574 0.0
C2820 C 0.19997 0.43811 0.75952 0.0
C2821 C 0.1868 0.4385 0.75119 0.0
C2822 C 0.22666 0.45127 0.70844 0.0
C2823 C 0.1999 0.43343 0.78318 0.0
C2824 C 0.24371 0.43103 0.76202 0.0
C2825 C 0.2555 0.4451 0.77156 0.0
C2826 C 0.22979 0.42991 0.75371 0.0
C2827 C 0.22768 0.4432 0.75478 0.0
C2828 C 0.23949 0.4574 0.76442 0.0
C2829 C 0.2532 0.45814 0.7728 0.0
C2830 C 0.21739 0.41454 0.74365 0.0
C2831 C 0.23768 0.47184 0.76582 0.0
H2832 H 0.1992 0.45024 0.69881 0.0
H2833 H 0.17674 0.43538 0.76177 0.0
H2834 H 0.23707 0.46215 0.71473 0.0
H2835 H 0.2299 0.44189 0.708 0.0
H2836 H 0.22419 0.4535 0.6914 0.0
H2837 H 0.18839 0.42963 0.79136 0.0
H2838 H 0.20253 0.42364 0.78415 0.0
H2839 H 0.20929 0.44355 0.79243 0.0
H2840 H 0.24547 0.42096 0.76074 0.0
H2841 H 0.2621 0.46896 0.78049 0.0
H2842 H 0.21561 0.41641 0.72615 0.0
H2843 H 0.20592 0.4103 0.75212 0.0
H2844 H 0.22065 0.40518 0.74461 0.0
H2845 H 0.23609 0.47539 0.74913 0.0
H2846 H 0.24804 0.48202 0.77363 0.0
H2847 H 0.22697 0.46909 0.77545 0.0
C2848 C 0.79405 0.25441 0.76213 0.0
C2849 C 0.80814 0.25477 0.76788 0.0
C2850 C 0.78135 0.24084 0.75297 0.0
C2851 C 0.78262 0.22718 0.74983 0.0
C2852 C 0.79672 0.22738 0.75572 0.0
C2853 C 0.80935 0.24121 0.7645 0.0
C2854 C 0.76654 0.24112 0.74671 0.0
C2855 C 0.79842 0.21295 0.75285 0.0
C2856 C 0.74401 0.18836 0.74602 0.0
C2857 C 0.7425 0.18563 0.72327 0.0
C2858 C 0.7572 0.20163 0.75491 0.0
C2859 C 0.76906 0.21261 0.7407 0.0
C2860 C 0.7677 0.20993 0.71776 0.0
C2861 C 0.7545 0.19641 0.70933 0.0
C2862 C 0.75832 0.20401 0.77949 0.0
C2863 C 0.78005 0.22148 0.70209 0.0
H2864 H 0.79285 0.26469 0.76503 0.0
H2865 H 0.82025 0.24142 0.76854 0.0
H2866 H 0.76374 0.23794 0.72914 0.0
H2867 H 0.75639 0.23221 0.75644 0.0
H2868 H 0.76766 0.25287 0.74948 0.0
H2869 H 0.81011 0.21499 0.75846 0.0
H2870 H 0.78905 0.2029 0.76224 0.0
H2871 H 0.79687 0.20941 0.73532 0.0
H2872 H 0.7347 0.18031 0.75693 0.0
H2873 H 0.75359 0.1943 0.69178 0.0
H2874 H 0.75798 0.21489 0.78364 0.0
H2875 H 0.76973 0.20563 0.78559 0.0
H2876 H 0.74856 0.19391 0.78834 0.0
H2877 H 0.78092 0.2332 0.70364 0.0
H2878 H 0.77735 0.21757 0.68471 0.0
H2879 H 0.7918 0.22308 0.70629 0.0
C2880 C 0.46012 0.11658 0.04681 0.0
C2881 C 0.45035 0.12045 0.05907 0.0
C2882 C 0.45995 0.11669 0.02378 0.0
C2883 C 0.45002 0.12109 0.01267 0.0
C2884 C 0.44033 0.12526 0.02486 0.0
C2885 C 0.44049 0.12474 0.04788 0.0
C2886 C 0.47033 0.11199 0.01133 0.0
C2887 C 0.42973 0.13021 0.01357 0.0
C2888 C 0.46033 0.13427 0.95334 0.0
C2889 C 0.44948 0.12066 0.94185 0.0
C2890 C 0.46043 0.13468 0.97638 0.0
C2891 C 0.44962 0.12108 0.98826 0.0
C2892 C 0.43859 0.10735 0.97683 0.0
C2893 C 0.43855 0.10736 0.9538 0.0
C2894 C 0.47221 0.14963 0.98802 0.0
C2895 C 0.42697 0.09255 0.98893 0.0
H2896 H 0.46801 0.11355 0.05522 0.0
H2897 H 0.43269 0.12749 0.0571 0.0
H2898 H 0.46297 0.10183 0.00041 0.0
H2899 H 0.4787 0.12188 0.00072 0.0
H2900 H 0.47721 0.10866 0.02243 0.0
H2901 H 0.42341 0.13373 0.02543 0.0
H2902 H 0.43678 0.14028 0.00237 0.0
H2903 H 0.42085 0.12035 0.00338 0.0
H2904 H 0.46897 0.14454 0.94435 0.0
H2905 H 0.4299 0.09689 0.94514 0.0
H2906 H 0.4804 0.14736 0.99791 0.0
H2907 H 0.46601 0.15348 0.99955 0.0
H2908 H 0.47928 0.15942 0.9764 0.0
H2909 H 0.43344 0.08842 0.9995 0.0
H2910 H 0.41921 0.08284 0.97759 0.0
H2911 H 0.41945 0.09511 -0.00014 0.0
C2912 C 0.31785 0.44235 0.9525 0.0
C2913 C 0.33187 0.45226 0.94116 0.0
C2914 C 0.31749 0.44201 0.97554 0.0
C2915 C 0.33144 0.45195 0.98746 0.0
C2916 C 0.34558 0.46211 0.97607 0.0
C2917 C 0.34564 0.46206 0.95304 0.0
C2918 C 0.30225 0.43089 0.98712 0.0
C2919 C 0.36062 0.47303 0.98822 0.0
C2920 C 0.32729 0.46139 0.04673 0.0
C2921 C 0.33124 0.4514 0.05816 0.0
C2922 C 0.32736 0.46174 0.0237 0.0
C2923 C 0.33127 0.45169 0.01186 0.0
C2924 C 0.33513 0.44148 0.02334 0.0
C2925 C 0.33518 0.44154 0.04638 0.0
C2926 C 0.32339 0.47294 0.01203 0.0
C2927 C 0.33916 0.43045 0.01128 0.0
H2928 H 0.30724 0.43465 0.94332 0.0
H2929 H 0.35644 0.46985 0.94427 0.0
H2930 H 0.30398 0.42262 0.99767 0.0
H2931 H 0.29867 0.43765 0.998 0.0
H2932 H 0.29247 0.42388 0.97543 0.0
H2933 H 0.37053 0.4804 0.97691 0.0
H2934 H 0.35865 0.48096 0.99918 0.0
H2935 H 0.36415 0.46606 0.99876 0.0
H2936 H 0.32439 0.46913 0.05585 0.0
H2937 H 0.33808 0.43369 0.05523 0.0
H2938 H 0.31304 0.46624 0.00113 0.0
H2939 H 0.33343 0.48113 0.00148 0.0
H2940 H 0.32069 0.48004 0.02366 0.0
H2941 H 0.32926 0.42257 0.0003 0.0
H2942 H 0.34161 0.42305 0.02265 0.0
H2943 H 0.34969 0.43735 0.00076 0.0
C2944 C 0.86328 0.31955 0.95231 0.0
C2945 C 0.87697 0.32956 0.94038 0.0
C2946 C 0.86342 0.31945 0.97536 0.0
C2947 C 0.87761 0.32952 0.98669 0.0
C2948 C 0.8915 0.33953 0.97473 0.0
C2949 C 0.891 0.33945 0.95171 0.0
C2950 C 0.84835 0.30869 0.98758 0.0
C2951 C 0.90689 0.35034 0.98624 0.0
C2952 C 0.87574 0.34099 0.04569 0.0
C2953 C 0.87936 0.33084 0.05736 0.0
C2954 C 0.87494 0.34055 0.02268 0.0
C2955 C 0.87793 0.32976 0.01109 0.0
C2956 C 0.88151 0.31943 0.02279 0.0
C2957 C 0.88214 0.32006 0.04581 0.0
C2958 C 0.87096 0.35166 0.01078 0.0
C2959 C 0.88488 0.30784 0.01097 0.0
H2960 H 0.85238 0.31199 0.9436 0.0
H2961 H 0.90166 0.34705 0.94254 0.0
H2962 H 0.85017 0.30064 0.99847 0.0
H2963 H 0.84506 0.31581 0.99821 0.0
H2964 H 0.83836 0.30147 0.97631 0.0
H2965 H 0.91668 0.35721 0.97451 0.0
H2966 H 0.90547 0.35874 0.99692 0.0
H2967 H 0.91026 0.34334 0.99698 0.0
H2968 H 0.87337 0.34919 0.0546 0.0
H2969 H 0.88508 0.3123 0.05478 0.0
H2970 H 0.86039 0.34485 0.0003 0.0
H2971 H 0.88085 0.35954 -0.00021 0.0
H2972 H 0.86862 0.3591 0.02225 0.0
H2973 H 0.87471 0.29995 0.0004 0.0
H2974 H 0.88724 0.30046 0.0225 0.0
H2975 H 0.89528 0.31431 7e-05 0.0
C2976 C 0.5457 0.86817 0.04904 0.0
C2977 C 0.54726 0.88119 0.06087 0.0
C2978 C 0.54565 0.86809 0.026 0.0
C2979 C 0.54732 0.88142 0.01448 0.0
C2980 C 0.54907 0.89468 0.02628 0.0
C2981 C 0.54898 0.89439 0.04934 0.0
C2982 C 0.54373 0.85372 0.014 0.0
C2983 C 0.55094 0.90912 0.01454 0.0
C2984 C 0.56063 0.88603 0.95499 0.0
C2985 C 0.54626 0.88023 0.9437 0.0
C2986 C 0.56118 0.88671 0.97802 0.0
C2987 C 0.54702 0.88135 0.99007 0.0
C2988 C 0.5325 0.87558 0.9788 0.0
C2989 C 0.53231 0.87515 0.95577 0.0
C2990 C 0.5769 0.893 0.98948 0.0
C2991 C 0.51715 0.86972 0.99108 0.0
H2992 H 0.54464 0.85803 0.0578 0.0
H2993 H 0.54999 0.90443 0.05834 0.0
H2994 H 0.53308 0.84878 0.00338 0.0
H2995 H 0.55404 0.85707 0.00313 0.0
H2996 H 0.54257 0.84432 0.0254 0.0
H2997 H 0.55258 0.91861 0.02612 0.0
H2998 H 0.56125 0.91387 0.00333 0.0
H2999 H 0.54036 0.90589 0.00431 0.0
H3000 H 0.57144 0.8898 0.94584 0.0
H3001 H 0.52119 0.87092 0.94719 0.0
H3002 H 0.57679 0.88363 -0.00014 0.0
H3003 H 0.57902 0.90291 0.00051 0.0
H3004 H 0.58689 0.89723 0.97771 0.0
H3005 H 0.51504 0.85972 0.0019 0.0
H3006 H 0.50688 0.86573 0.97986 0.0
H3007 H 0.51781 0.87922 0.00178 0.0
C3008 C 0.66564 0.56033 0.04789 0.0
C3009 C 0.66901 0.55008 0.05968 0.0
C3010 C 0.66587 0.56048 0.02485 0.0
C3011 C 0.66921 0.54986 0.01342 0.0
C3012 C 0.67253 0.53941 0.02532 0.0
C3013 C 0.67255 0.53976 0.04835 0.0
C3014 C 0.66258 0.57201 0.01273 0.0
C3015 C 0.67582 0.5277 0.01372 0.0
C3016 C 0.6545 0.54003 0.95469 0.0
C3017 C 0.66841 0.54921 0.94275 0.0
C3018 C 0.65464 0.53995 0.97772 0.0
C3019 C 0.66899 0.54953 0.98902 0.0
C3020 C 0.68307 0.55887 0.97702 0.0
C3021 C 0.68264 0.55847 0.95397 0.0
C3022 C 0.63946 0.52959 0.98994 0.0
C3023 C 0.69853 0.56945 0.9885 0.0
H3024 H 0.66302 0.56838 0.05673 0.0
H3025 H 0.67504 0.53176 0.05755 0.0
H3026 H 0.67257 0.57944 0.0016 0.0
H3027 H 0.65189 0.5655 0.00238 0.0
H3028 H 0.66076 0.57986 0.02407 0.0
H3029 H 0.67806 0.52031 0.0254 0.0
H3030 H 0.66562 0.51981 0.00318 0.0
H3031 H 0.68623 0.534 0.00282 0.0
H3032 H 0.64353 0.53276 0.94595 0.0
H3033 H 0.69336 0.56566 0.94469 0.0
H3034 H 0.63637 0.53698 0.00033 0.0
H3035 H 0.64099 0.52146 0.00106 0.0
H3036 H 0.62942 0.52246 0.97868 0.0
H3037 H 0.69734 0.57806 0.99904 0.0
H3038 H 0.70838 0.57606 0.97676 0.0
H3039 H 0.70166 0.56233 0.9994 0.0
C3040 C 0.10744 0.66455 0.94956 0.0
C3041 C 0.12153 0.6695 0.93788 0.0
C3042 C 0.10726 0.66456 0.97259 0.0
C3043 C 0.12156 0.66991 0.98426 0.0
C3044 C 0.13588 0.67525 0.97263 0.0
C3045 C 0.13568 0.67488 0.94959 0.0
C3046 C 0.09173 0.65867 0.98444 0.0
C3047 C 0.15138 0.68117 0.98453 0.0
C3048 C 0.12287 0.68212 0.04379 0.0
C3049 C 0.1213 0.66886 0.05494 0.0
C3050 C 0.12311 0.68269 0.02075 0.0
C3051 C 0.12148 0.66958 0.00866 0.0
C3052 C 0.11972 0.6561 0.01988 0.0
C3053 C 0.11977 0.65596 0.04291 0.0
C3054 C 0.12524 0.69734 0.00936 0.0
C3055 C 0.11769 0.6418 0.00755 0.0
H3056 H 0.09649 0.66067 0.9407 0.0
H3057 H 0.14659 0.67852 0.94077 0.0
H3058 H 0.08938 0.64851 0.99508 0.0
H3059 H 0.09232 0.66807 0.99528 0.0
H3060 H 0.08166 0.65491 0.97294 0.0
H3061 H 0.16157 0.68562 0.97307 0.0
H3062 H 0.15337 0.69083 0.99597 0.0
H3063 H 0.15103 0.67152 0.99454 0.0
H3064 H 0.12419 0.69215 0.05312 0.0
H3065 H 0.11839 0.64564 0.05155 0.0
H3066 H 0.11497 0.69431 0.99856 0.0
H3067 H 0.13588 0.70235 0.99874 0.0
H3068 H 0.1265 0.70657 0.02117 0.0
H3069 H 0.10717 0.63715 0.99672 0.0
H3070 H 0.11627 0.63219 0.01874 0.0
H3071 H 0.12808 0.64514 0.99686 0.0
C3072 C 0.87501 0.5559 0.54831 0.0
C3073 C 0.87988 0.54673 0.55996 0.0
C3074 C 0.87495 0.55597 0.52527 0.0
C3075 C 0.87965 0.54643 0.51369 0.0
C3076 C 0.88442 0.53701 0.5254 0.0
C3077 C 0.8846 0.53737 0.54843 0.0
C3078 C 0.87003 0.56635 0.51332 0.0
C3079 C 0.88925 0.52649 0.51362 0.0
C3080 C 0.86588 0.53583 0.45466 0.0
C3081 C 0.87953 0.54626 0.4429 0.0
C3082 C 0.8658 0.53566 0.4777 0.0
C3083 C 0.87962 0.54634 0.48929 0.0
C3084 C 0.8934 0.55695 0.47758 0.0
C3085 C 0.89323 0.55669 0.45455 0.0
C3086 C 0.85092 0.52406 0.48964 0.0
C3087 C 0.90832 0.5686 0.48939 0.0
H3088 H 0.87151 0.56325 0.55725 0.0
H3089 H 0.88822 0.53015 0.55748 0.0
H3090 H 0.87978 0.57478 0.50256 0.0
H3091 H 0.85974 0.55904 0.5026 0.0
H3092 H 0.86684 0.57316 0.52477 0.0
H3093 H 0.89241 0.51971 0.52518 0.0
H3094 H 0.87948 0.51804 0.50292 0.0
H3095 H 0.89956 0.5337 0.50287 0.0
H3096 H 0.85516 0.52791 0.44587 0.0
H3097 H 0.90392 0.5646 0.44566 0.0
H3098 H 0.84666 0.53051 0.49996 0.0
H3099 H 0.85343 0.5166 0.50079 0.0
H3100 H 0.84132 0.51623 0.47819 0.0
H3101 H 0.90587 0.57619 0.50036 0.0
H3102 H 0.91793 0.5763 0.47786 0.0
H3103 H 0.91256 0.5622 0.49988 0.0
C3104 C 0.31923 0.86368 0.54529 0.0
C3105 C 0.32783 0.87799 0.55664 0.0
C3106 C 0.31885 0.86331 0.52225 0.0
C3107 C 0.32717 0.8776 0.51033 0.0
C3108 C 0.33567 0.89211 0.52172 0.0
C3109 C 0.33594 0.89212 0.54475 0.0
C3110 C 0.30975 0.84761 0.51065 0.0
C3111 C 0.34457 0.90761 0.50958 0.0
C3112 C 0.33958 0.87664 0.45155 0.0
C3113 C 0.32811 0.8781 0.43959 0.0
C3114 C 0.33929 0.87627 0.47458 0.0
C3115 C 0.32726 0.87741 0.48592 0.0
C3116 C 0.31556 0.87873 0.47396 0.0
C3117 C 0.31612 0.87904 0.45092 0.0
C3118 C 0.35193 0.87476 0.48678 0.0
C3119 C 0.30259 0.88003 0.4855 0.0
H3120 H 0.31308 0.85273 0.55445 0.0
H3121 H 0.34243 0.90322 0.55349 0.0
H3122 H 0.30081 0.8477 0.49953 0.0
H3123 H 0.31789 0.84553 0.50033 0.0
H3124 H 0.30366 0.8376 0.52232 0.0
H3125 H 0.35027 0.91788 0.5209 0.0
H3126 H 0.35383 0.90756 0.49909 0.0
H3127 H 0.33642 0.9092 0.49857 0.0
H3128 H 0.34874 0.87567 0.44287 0.0
H3129 H 0.30732 0.88034 0.44177 0.0
H3130 H 0.34642 0.86427 0.49769 0.0
H3131 H 0.35877 0.88527 0.49737 0.0
H3132 H 0.36025 0.87365 0.4755 0.0
H3133 H 0.29593 0.86976 0.49654 0.0
H3134 H 0.29416 0.88059 0.47379 0.0
H3135 H 0.3078 0.8908 0.49588 0.0
C3136 C 0.45585 0.3231 0.54639 0.0
C3137 C 0.45128 0.33246 0.55821 0.0
C3138 C 0.45585 0.32311 0.52335 0.0
C3139 C 0.45096 0.33255 0.51191 0.0
C3140 C 0.44612 0.34185 0.52379 0.0
C3141 C 0.44644 0.34177 0.54682 0.0
C3142 C 0.46128 0.31319 0.51123 0.0
C3143 C 0.44062 0.35189 0.51218 0.0
C3144 C 0.46464 0.34431 0.45307 0.0
C3145 C 0.45146 0.33319 0.44112 0.0
C3146 C 0.46465 0.34419 0.47611 0.0
C3147 C 0.45108 0.33283 0.48751 0.0
C3148 C 0.43765 0.32172 0.4756 0.0
C3149 C 0.43804 0.32197 0.45256 0.0
C3150 C 0.47923 0.35619 0.48825 0.0
C3151 C 0.42291 0.3095 0.4872 0.0
H3152 H 0.45974 0.31601 0.5552 0.0
H3153 H 0.44274 0.34889 0.55597 0.0
H3154 H 0.45177 0.30471 0.50022 0.0
H3155 H 0.4716 0.32088 0.50075 0.0
H3156 H 0.46465 0.30647 0.52257 0.0
H3157 H 0.43691 0.35817 0.52384 0.0
H3158 H 0.45023 0.36077 0.50167 0.0
H3159 H 0.43052 0.3444 0.50124 0.0
H3160 H 0.47496 0.3532 0.44441 0.0
H3161 H 0.42789 0.31318 0.44351 0.0
H3162 H 0.48361 0.35007 0.49907 0.0
H3163 H 0.47629 0.36355 0.49894 0.0
H3164 H 0.48889 0.36409 0.47694 0.0
H3165 H 0.42565 0.30177 0.49739 0.0
H3166 H 0.41332 0.30199 0.47554 0.0
H3167 H 0.41853 0.3154 0.49844 0.0
C3168 C 0.12827 0.44609 0.54705 0.0
C3169 C 0.11736 0.4486 0.5587 0.0
C3170 C 0.12825 0.4459 0.52401 0.0
C3171 C 0.11725 0.44859 0.51242 0.0
C3172 C 0.10629 0.45126 0.52414 0.0
C3173 C 0.10639 0.45109 0.54717 0.0
C3174 C 0.13992 0.44273 0.51207 0.0
C3175 C 0.09459 0.45447 0.51236 0.0
C3176 C 0.12711 0.46296 0.45353 0.0
C3177 C 0.11727 0.44916 0.44173 0.0
C3178 C 0.12714 0.46297 0.47656 0.0
C3179 C 0.11729 0.44876 0.48801 0.0
C3180 C 0.10743 0.43475 0.47615 0.0
C3181 C 0.10743 0.43516 0.45311 0.0
C3182 C 0.13759 0.4782 0.48864 0.0
C3183 C 0.09698 0.41932 0.48779 0.0
H3184 H 0.13666 0.44404 0.55601 0.0
H3185 H 0.09805 0.45317 0.55623 0.0
H3186 H 0.13355 0.43235 0.5011 0.0
H3187 H 0.14771 0.45298 0.50155 0.0
H3188 H 0.14741 0.44047 0.52352 0.0
H3189 H 0.08699 0.4565 0.52392 0.0
H3190 H 0.10096 0.46501 0.50168 0.0
H3191 H 0.0869 0.44436 0.50158 0.0
H3192 H 0.13461 0.47382 0.44469 0.0
H3193 H 0.09992 0.42446 0.44395 0.0
H3194 H 0.14606 0.47683 0.49923 0.0
H3195 H 0.13031 0.48111 0.49954 0.0
H3196 H 0.14436 0.48827 0.47727 0.0
H3197 H 0.10424 0.41628 0.49853 0.0
H3198 H 0.09028 0.40943 0.47614 0.0
H3199 H 0.08845 0.4205 0.49851 0.0
C3200 C 0.65457 0.10358 0.45024 0.0
C3201 C 0.66508 0.11749 0.43909 0.0
C3202 C 0.6541 0.10305 0.47328 0.0
C3203 C 0.66439 0.11674 0.48543 0.0
C3204 C 0.67509 0.13077 0.47428 0.0
C3205 C 0.67531 0.13098 0.45125 0.0
C3206 C 0.6425 0.08788 0.48462 0.0
C3207 C 0.68631 0.14559 0.48667 0.0
C3208 C 0.65382 0.12071 0.54418 0.0
C3209 C 0.66357 0.11673 0.5562 0.0
C3210 C 0.65386 0.12062 0.52114 0.0
C3211 C 0.66391 0.11646 0.50984 0.0
C3212 C 0.67373 0.11235 0.52185 0.0
C3213 C 0.67344 0.11252 0.54489 0.0
C3214 C 0.64327 0.12514 0.50889 0.0
C3215 C 0.68457 0.10781 0.51037 0.0
H3216 H 0.64651 0.09318 0.44093 0.0
H3217 H 0.68362 0.14169 0.44273 0.0
H3218 H 0.64886 0.084 0.49581 0.0
H3219 H 0.63425 0.08987 0.49484 0.0
H3220 H 0.63548 0.07821 0.4728 0.0
H3221 H 0.69394 0.15551 0.47553 0.0
H3222 H 0.67954 0.14934 0.49728 0.0
H3223 H 0.69397 0.14322 0.4976 0.0
H3224 H 0.64631 0.12416 0.55282 0.0
H3225 H 0.68083 0.10921 0.55407 0.0
H3226 H 0.63537 0.11546 0.49763 0.0
H3227 H 0.65052 0.13574 0.49865 0.0
H3228 H 0.63588 0.12771 0.52012 0.0
H3229 H 0.67762 0.09753 0.49945 0.0
H3230 H 0.69134 0.10476 0.52211 0.0
H3231 H 0.69306 0.1177 0.49985 0.0
C3232 C 0.55959 0.67686 0.45129 0.0
C3233 C 0.54662 0.66484 0.44001 0.0
C3234 C 0.56 0.67734 0.47432 0.0
C3235 C 0.54707 0.6656 0.48637 0.0
C3236 C 0.53396 0.65342 0.47512 0.0
C3237 C 0.53392 0.65316 0.45208 0.0
C3238 C 0.57421 0.69049 0.48575 0.0
C3239 C 0.51994 0.64072 0.48744 0.0
C3240 C 0.55345 0.65891 0.54604 0.0
C3241 C 0.54746 0.66739 0.55712 0.0
C3242 C 0.55344 0.65826 0.52302 0.0
C3243 C 0.54719 0.66619 0.51077 0.0
C3244 C 0.54108 0.67472 0.52182 0.0
C3245 C 0.54134 0.67526 0.54485 0.0
C3246 C 0.5601 0.64908 0.51179 0.0
C3247 C 0.53429 0.6833 0.50931 0.0
H3248 H 0.56935 0.68607 0.44211 0.0
H3249 H 0.52396 0.64371 0.44351 0.0
H3250 H 0.57057 0.69759 0.49579 0.0
H3251 H 0.57944 0.68547 0.49711 0.0
H3252 H 0.58346 0.69848 0.47399 0.0
H3253 H 0.51069 0.63206 0.47623 0.0
H3254 H 0.52381 0.63428 0.49851 0.0
H3255 H 0.51464 0.64615 0.49788 0.0
H3256 H 0.55798 0.65259 0.55539 0.0
H3257 H 0.53689 0.68202 0.55326 0.0
H3258 H 0.56984 0.65695 0.50061 0.0
H3259 H 0.55084 0.63953 0.5016 0.0
H3260 H 0.56467 0.64371 0.52369 0.0
H3261 H 0.54343 0.69232 0.49839 0.0
H3262 H 0.52983 0.68923 0.52038 0.0
H3263 H 0.52443 0.67487 0.4987 0.0
C3264 C 0.52733 0.11883 0.25002 0.0
C3265 C 0.52749 0.12528 0.22933 0.0
C3266 C 0.54086 0.11921 0.25847 0.0
C3267 C 0.55507 0.12662 0.24626 0.0
C3268 C 0.55551 0.13361 0.22573 0.0
C3269 C 0.54168 0.13268 0.21738 0.0
C3270 C 0.53985 0.1114 0.28028 0.0
C3271 C 0.57054 0.14189 0.21243 0.0
C3272 C 0.59293 0.13791 0.27746 0.0
C3273 C 0.59584 0.12571 0.2715 0.0
C3274 C 0.57992 0.13857 0.26898 0.0
C3275 C 0.5693 0.12653 0.25465 0.0
C3276 C 0.5721 0.11417 0.2486 0.0
C3277 C 0.58543 0.11404 0.25683 0.0
C3278 C 0.57747 0.15211 0.27546 0.0
C3279 C 0.56092 0.10097 0.23361 0.0
H3280 H 0.5166 0.11344 0.2597 0.0
H3281 H 0.54197 0.13752 0.20127 0.0
H3282 H 0.54289 0.10196 0.2781 0.0
H3283 H 0.54853 0.12012 0.29197 0.0
H3284 H 0.52789 0.10611 0.28771 0.0
H3285 H 0.56921 0.14772 0.19757 0.0
H3286 H 0.58028 0.15093 0.22263 0.0
H3287 H 0.57411 0.13326 0.20718 0.0
H3288 H 0.60071 0.14688 0.28899 0.0
H3289 H 0.5877 0.10476 0.25161 0.0
H3290 H 0.56626 0.14757 0.28474 0.0
H3291 H 0.57645 0.15808 0.26056 0.0
H3292 H 0.58727 0.16099 0.28577 0.0
H3293 H 0.54886 0.09494 0.24076 0.0
H3294 H 0.56462 0.09206 0.23085 0.0
H3295 H 0.5602 0.10584 0.21748 0.0
C3296 C 0.47025 0.58674 0.25478 0.0
C3297 C 0.4694 0.59817 0.26775 0.0
C3298 C 0.45657 0.57374 0.24637 0.0
C3299 C 0.44166 0.57226 0.25064 0.0
C3300 C 0.44071 0.58396 0.26313 0.0
C3301 C 0.45457 0.59671 0.27168 0.0
C3302 C 0.45807 0.56143 0.23327 0.0
C3303 C 0.42502 0.58288 0.26776 0.0
C3304 C 0.40807 0.54402 0.21359 0.0
C3305 C 0.40057 0.53039 0.22668 0.0
C3306 C 0.42116 0.55791 0.22142 0.0
C3307 C 0.42706 0.55811 0.24271 0.0
C3308 C 0.41942 0.5445 0.25614 0.0
C3309 C 0.4062 0.53088 0.24806 0.0
C3310 C 0.42888 0.57227 0.20674 0.0
C3311 C 0.42545 0.5442 0.27888 0.0
H3312 H 0.48164 0.58792 0.25119 0.0
H3313 H 0.45373 0.60536 0.28185 0.0
H3314 H 0.45149 0.54979 0.24157 0.0
H3315 H 0.45275 0.56013 0.21676 0.0
H3316 H 0.47055 0.56442 0.23123 0.0
H3317 H 0.42639 0.59348 0.27647 0.0
H3318 H 0.41855 0.58145 0.25218 0.0
H3319 H 0.4176 0.57231 0.27798 0.0
H3320 H 0.40396 0.54374 0.19698 0.0
H3321 H 0.40029 0.52057 0.25852 0.0
H3322 H 0.44099 0.57495 0.20242 0.0
H3323 H 0.42998 0.58273 0.21551 0.0
H3324 H 0.42215 0.57058 0.19131 0.0
H3325 H 0.43768 0.54631 0.27782 0.0
H3326 H 0.41799 0.53277 0.28739 0.0
H3327 H 0.42585 0.55381 0.28905 0.0
C3328 C 0.86943 0.45642 0.28477 0.0
C3329 C 0.86923 0.46799 0.27139 0.0
C3330 C 0.86908 0.44308 0.2756 0.0
C3331 C 0.86855 0.44129 0.25249 0.0
C3332 C 0.868 0.45275 0.2389 0.0
C3333 C 0.86834 0.46597 0.24852 0.0
C3334 C 0.86959 0.43105 0.29064 0.0
C3335 C 0.86748 0.45127 0.21419 0.0
C3336 C 0.8848 0.41631 0.22914 0.0
C3337 C 0.87096 0.40195 0.22499 0.0
C3338 C 0.88415 0.42925 0.23784 0.0
C3339 C 0.8693 0.42779 0.24255 0.0
C3340 C 0.85526 0.41339 0.23813 0.0
C3341 C 0.85626 0.40064 0.22935 0.0
C3342 C 0.89938 0.44445 0.24216 0.0
C3343 C 0.83922 0.41139 0.24301 0.0
H3344 H 0.8699 0.45781 0.30246 0.0
H3345 H 0.86836 0.47496 0.23808 0.0
H3346 H 0.85945 0.41912 0.28719 0.0
H3347 H 0.88053 0.43058 0.28755 0.0
H3348 H 0.86928 0.43383 0.30826 0.0
H3349 H 0.86628 0.46078 0.20601 0.0
H3350 H 0.87844 0.45178 0.20821 0.0
H3351 H 0.85743 0.43968 0.20913 0.0
H3352 H 0.89617 0.41745 0.22547 0.0
H3353 H 0.84554 0.38951 0.22635 0.0
H3354 H 0.90038 0.44736 0.25992 0.0
H3355 H 0.89941 0.45433 0.23315 0.0
H3356 H 0.90994 0.44375 0.23714 0.0
H3357 H 0.83817 0.41301 0.26085 0.0
H3358 H 0.82944 0.39958 0.23808 0.0
H3359 H 0.8378 0.42057 0.23428 0.0
C3360 C 0.45475 0.86148 0.22529 0.0
C3361 C 0.46968 0.87484 0.22871 0.0
C3362 C 0.44101 0.86074 0.23362 0.0
C3363 C 0.44216 0.8738 0.24528 0.0
C3364 C 0.45713 0.88735 0.24868 0.0
C3365 C 0.47071 0.88764 0.24059 0.0
C3366 C 0.42526 0.84599 0.22993 0.0
C3367 C 0.45881 0.9016 0.2608 0.0
C3368 C 0.40594 0.87849 0.24849 0.0
C3369 C 0.40081 0.87374 0.27014 0.0
C3370 C 0.41936 0.87855 0.24019 0.0
C3371 C 0.42768 0.8734 0.25369 0.0
C3372 C 0.42238 0.8682 0.27535 0.0
C3373 C 0.40912 0.86858 0.28339 0.0
C3374 C 0.42477 0.88437 0.21708 0.0
C3375 C 0.43083 0.8624 0.29012 0.0
H3376 H 0.45375 0.85162 0.21587 0.0
H3377 H 0.48216 0.89789 0.24378 0.0
H3378 H 0.41928 0.84123 0.2459 0.0
H3379 H 0.41747 0.84885 0.22007 0.0
H3380 H 0.42645 0.83663 0.22128 0.0
H3381 H 0.47128 0.91134 0.26167 0.0
H3382 H 0.4517 0.90607 0.25251 0.0
H3383 H 0.45419 0.89825 0.27776 0.0
H3384 H 0.39946 0.88217 0.23791 0.0
H3385 H 0.40544 0.8651 0.30023 0.0
H3386 H 0.42498 0.87496 0.20717 0.0
H3387 H 0.43699 0.89457 0.2174 0.0
H3388 H 0.41702 0.88805 0.20875 0.0
H3389 H 0.43177 0.85277 0.28191 0.0
H3390 H 0.42471 0.85796 0.30611 0.0
H3391 H 0.44303 0.87212 0.29335 0.0
C3392 C 0.59535 0.4679 0.24962 0.0
C3393 C 0.59783 0.47021 0.22691 0.0
C3394 C 0.58227 0.4543 0.25805 0.0
C3395 C 0.57141 0.44269 0.24342 0.0
C3396 C 0.57397 0.44481 0.22049 0.0
C3397 C 0.58715 0.45856 0.2125 0.0
C3398 C 0.57995 0.45244 0.28262 0.0
C3399 C 0.56264 0.43269 0.20438 0.0
C3400 C 0.544 0.40167 0.26625 0.0
C3401 C 0.53015 0.40226 0.27002 0.0
C3402 C 0.5575 0.41469 0.25739 0.0
C3403 C 0.5571 0.4286 0.25215 0.0
C3404 C 0.5431 0.4292 0.25567 0.0
C3405 C 0.5298 0.41603 0.26455 0.0
C3406 C 0.57224 0.41364 0.25389 0.0
C3407 C 0.54219 0.44379 0.2502 0.0
H3408 H 0.60369 0.47674 0.26086 0.0
H3409 H 0.5889 0.46034 0.19492 0.0
H3410 H 0.56867 0.45183 0.28717 0.0
H3411 H 0.57916 0.44122 0.28799 0.0
H3412 H 0.5897 0.46235 0.29177 0.0
H3413 H 0.56665 0.43581 0.1871 0.0
H3414 H 0.56121 0.42093 0.20807 0.0
H3415 H 0.55082 0.43159 0.20601 0.0
H3416 H 0.54438 0.39112 0.27061 0.0
H3417 H 0.51905 0.41646 0.26706 0.0
H3418 H 0.58202 0.4227 0.264 0.0
H3419 H 0.576 0.41614 0.23647 0.0
H3420 H 0.57048 0.40184 0.25828 0.0
H3421 H 0.55107 0.45397 0.25994 0.0
H3422 H 0.53033 0.44224 0.25359 0.0
H3423 H 0.54502 0.44684 0.2326 0.0
C3424 C 0.13055 0.59739 0.24909 0.0
C3425 C 0.12877 0.59787 0.22628 0.0
C3426 C 0.13088 0.58462 0.25905 0.0
C3427 C 0.12926 0.57195 0.24591 0.0
C3428 C 0.12771 0.57246 0.22285 0.0
C3429 C 0.12754 0.58544 0.21331 0.0
C3430 C 0.13261 0.58451 0.28369 0.0
C3431 C 0.12594 0.55916 0.2083 0.0
C3432 C 0.14159 0.54356 0.26879 0.0
C3433 C 0.12702 0.53082 0.27538 0.0
C3434 C 0.14254 0.55712 0.25937 0.0
C3435 C 0.12857 0.55787 0.25634 0.0
C3436 C 0.11385 0.54507 0.26306 0.0
C3437 C 0.11326 0.53172 0.27255 0.0
C3438 C 0.15846 0.57061 0.2526 0.0
C3439 C 0.09868 0.54538 0.25995 0.0
H3440 H 0.13129 0.60683 0.25928 0.0
H3441 H 0.1264 0.58583 0.19565 0.0
H3442 H 0.12178 0.57454 0.29088 0.0
H3443 H 0.14262 0.58269 0.28796 0.0
H3444 H 0.13463 0.59566 0.29142 0.0
H3445 H 0.12526 0.56155 0.19062 0.0
H3446 H 0.13607 0.55718 0.21075 0.0
H3447 H 0.11508 0.54805 0.21284 0.0
H3448 H 0.15227 0.54297 0.27115 0.0
H3449 H 0.10195 0.5218 0.27735 0.0
H3450 H 0.16079 0.58161 0.2611 0.0
H3451 H 0.15854 0.57277 0.2347 0.0
H3452 H 0.16822 0.56828 0.25641 0.0
H3453 H 0.09943 0.55576 0.26851 0.0
H3454 H 0.08823 0.53453 0.26629 0.0
H3455 H 0.09682 0.54661 0.24225 0.0
C3456 C 0.46022 0.86052 0.75316 0.0
C3457 C 0.46354 0.86377 0.77561 0.0
C3458 C 0.44692 0.86004 0.74361 0.0
C3459 C 0.4368 0.86308 0.75676 0.0
C3460 C 0.43982 0.86595 0.77951 0.0
C3461 C 0.45309 0.86616 0.78868 0.0
C3462 C 0.444 0.85679 0.71932 0.0
C3463 C 0.42932 0.8693 0.79405 0.0
C3464 C 0.41383 0.88 0.72884 0.0
C3465 C 0.39858 0.86681 0.72774 0.0
C3466 C 0.42635 0.87892 0.73823 0.0
C3467 C 0.42362 0.86423 0.74649 0.0
C3468 C 0.40833 0.85079 0.74515 0.0
C3469 C 0.39597 0.85226 0.73589 0.0
C3470 C 0.44249 0.89354 0.73944 0.0
C3471 C 0.40502 0.83491 0.75363 0.0
H3472 H 0.4683 0.85885 0.74284 0.0
H3473 H 0.45538 0.86838 0.80611 0.0
H3474 H 0.43169 0.8472 0.71639 0.0
H3475 H 0.4455 0.86749 0.71082 0.0
H3476 H 0.4522 0.85335 0.71179 0.0
H3477 H 0.43288 0.87058 0.8116 0.0
H3478 H 0.42978 0.88036 0.78863 0.0
H3479 H 0.41687 0.85966 0.79262 0.0
H3480 H 0.41604 0.89122 0.72222 0.0
H3481 H 0.38419 0.84204 0.73538 0.0
H3482 H 0.45122 0.89156 0.73047 0.0
H3483 H 0.44643 0.89609 0.75679 0.0
H3484 H 0.44262 0.90408 0.73238 0.0
H3485 H 0.41301 0.83143 0.74558 0.0
H3486 H 0.39261 0.8255 0.75069 0.0
H3487 H 0.40741 0.83564 0.77152 0.0
C3488 C 0.58131 0.46307 0.78435 0.0
C3489 C 0.59647 0.46878 0.77557 0.0
C3490 C 0.56822 0.44965 0.77556 0.0
C3491 C 0.57034 0.44176 0.75752 0.0
C3492 C 0.58566 0.44727 0.74886 0.0
C3493 C 0.59855 0.46071 0.75801 0.0
C3494 C 0.55207 0.44407 0.78533 0.0
C3495 C 0.58836 0.43918 0.7296 0.0
C3496 C 0.5377 0.39986 0.74538 0.0
C3497 C 0.52931 0.40236 0.72866 0.0
C3498 C 0.5512 0.41255 0.75477 0.0
C3499 C 0.55642 0.4281 0.74724 0.0
C3500 C 0.54813 0.43067 0.73017 0.0
C3501 C 0.53468 0.41777 0.72109 0.0
C3502 C 0.55972 0.40937 0.77297 0.0
C3503 C 0.55338 0.44707 0.72163 0.0
H3504 H 0.57968 0.46913 0.79813 0.0
H3505 H 0.61021 0.46517 0.75101 0.0
H3506 H 0.54421 0.44479 0.77281 0.0
H3507 H 0.54665 0.43151 0.79035 0.0
H3508 H 0.55252 0.45117 0.79984 0.0
H3509 H 0.60109 0.44452 0.72543 0.0
H3510 H 0.58354 0.42646 0.73323 0.0
H3511 H 0.582 0.43993 0.71497 0.0
H3512 H 0.5335 0.388 0.75147 0.0
H3513 H 0.52838 0.41974 0.70796 0.0
H3514 H 0.55939 0.41541 0.78822 0.0
H3515 H 0.57233 0.41423 0.76857 0.0
H3516 H 0.55444 0.39655 0.77647 0.0
H3517 H 0.55306 0.45456 0.73509 0.0
H3518 H 0.54583 0.44701 0.70796 0.0
H3519 H 0.56577 0.45266 0.71575 0.0
C3520 C 0.13081 0.58806 0.78201 0.0
C3521 C 0.13058 0.5992 0.76773 0.0
C3522 C 0.13103 0.57474 0.77386 0.0
C3523 C 0.13101 0.57252 0.75088 0.0
C3524 C 0.13115 0.58391 0.73638 0.0
C3525 C 0.13095 0.59711 0.74498 0.0
C3526 C 0.13086 0.56284 0.78983 0.0
C3527 C 0.13118 0.58197 0.71178 0.0
C3528 C 0.14279 0.54351 0.72873 0.0
C3529 C 0.12801 0.53015 0.72466 0.0
C3530 C 0.14398 0.5574 0.73733 0.0
C3531 C 0.13005 0.5579 0.74198 0.0
C3532 C 0.1151 0.54444 0.73798 0.0
C3533 C 0.11427 0.53073 0.7294 0.0
C3534 C 0.16012 0.57154 0.74134 0.0
C3535 C 0.09997 0.5445 0.7428 0.0
H3536 H 0.13036 0.58951 0.7996 0.0
H3537 H 0.13102 0.60581 0.73387 0.0
H3538 H 0.11976 0.55138 0.78786 0.0
H3539 H 0.14079 0.56073 0.78631 0.0
H3540 H 0.13176 0.56673 0.80717 0.0
H3541 H 0.13199 0.59224 0.70278 0.0
H3542 H 0.14125 0.58043 0.70682 0.0
H3543 H 0.12019 0.57118 0.70664 0.0
H3544 H 0.15345 0.54318 0.7249 0.0
H3545 H 0.1028 0.52036 0.72666 0.0
H3546 H 0.16133 0.57508 0.75886 0.0
H3547 H 0.16157 0.58172 0.73146 0.0
H3548 H 0.16979 0.56917 0.73708 0.0
H3549 H 0.09951 0.54711 0.76043 0.0
H3550 H 0.0893 0.53303 0.73879 0.0
H3551 H 0.0996 0.55395 0.73319 0.0
C3552 C 0.58268 0.11727 0.72305 0.0
C3553 C 0.59821 0.12757 0.72995 0.0
C3554 C 0.56993 0.1181 0.73214 0.0
C3555 C 0.57277 0.12945 0.74858 0.0
C3556 C 0.58844 0.14 0.75547 0.0
C3557 C 0.60099 0.13895 0.74601 0.0
C3558 C 0.5534 0.10672 0.72424 0.0
C3559 C 0.5919 0.1522 0.77305 0.0
C3560 C 0.5402 0.13912 0.75871 0.0
C3561 C 0.53226 0.1293 0.77661 0.0
C3562 C 0.55362 0.13956 0.74968 0.0
C3563 C 0.55926 0.13 0.75887 0.0
C3564 C 0.55155 0.1204 0.77732 0.0
C3565 C 0.53812 0.12014 0.78593 0.0
C3566 C 0.56149 0.14988 0.72993 0.0
C3567 C 0.5573 0.11015 0.78769 0.0
H3568 H 0.5805 0.1086 0.71041 0.0
H3569 H 0.61296 0.14684 0.75154 0.0
H3570 H 0.54613 0.09928 0.73811 0.0
H3571 H 0.54771 0.11335 0.71806 0.0
H3572 H 0.55325 0.09886 0.71095 0.0
H3573 H 0.60477 0.15978 0.77616 0.0
H3574 H 0.58702 0.15986 0.76824 0.0
H3575 H 0.58605 0.14625 0.78861 0.0
H3576 H 0.53562 0.14611 0.75132 0.0
H3577 H 0.53213 0.11269 0.79995 0.0
H3578 H 0.56051 0.1424 0.71565 0.0
H3579 H 0.57425 0.15783 0.73317 0.0
H3580 H 0.55612 0.15719 0.72545 0.0
H3581 H 0.55632 0.10115 0.7757 0.0
H3582 H 0.55046 0.10398 0.80262 0.0
H3583 H 0.56995 0.11741 0.7922 0.0
C3584 C 0.40665 0.52861 0.74653 0.0
C3585 C 0.40216 0.52872 0.76836 0.0
C3586 C 0.41977 0.54184 0.7374 0.0
C3587 C 0.42869 0.55543 0.75051 0.0
C3588 C 0.42417 0.55563 0.77255 0.0
C3589 C 0.41089 0.54229 0.78118 0.0
C3590 C 0.42412 0.54126 0.71376 0.0
C3591 C 0.43349 0.56985 0.7871 0.0
C3592 C 0.47121 0.58338 0.73395 0.0
C3593 C 0.47008 0.59569 0.72395 0.0
C3594 C 0.45784 0.57023 0.74274 0.0
C3595 C 0.44295 0.56933 0.7413 0.0
C3596 C 0.44171 0.58167 0.73109 0.0
C3597 C 0.45532 0.59476 0.72263 0.0
C3598 C 0.45965 0.55738 0.75372 0.0
C3599 C 0.42601 0.58103 0.72904 0.0
H3600 H 0.39979 0.5182 0.73651 0.0
H3601 H 0.40753 0.54234 0.79813 0.0
H3602 H 0.42443 0.55115 0.7044 0.0
H3603 H 0.43612 0.54273 0.7129 0.0
H3604 H 0.4157 0.52996 0.70562 0.0
H3605 H 0.42829 0.56818 0.80378 0.0
H3606 H 0.44581 0.57227 0.78869 0.0
H3607 H 0.43404 0.58045 0.77958 0.0
H3608 H 0.48265 0.58416 0.73524 0.0
H3609 H 0.4544 0.6042 0.71472 0.0
H3610 H 0.45218 0.54594 0.74529 0.0
H3611 H 0.45556 0.55593 0.771 0.0
H3612 H 0.47208 0.55993 0.7536 0.0
H3613 H 0.41756 0.57027 0.71988 0.0
H3614 H 0.42704 0.59153 0.72044 0.0
H3615 H 0.42091 0.58028 0.74557 0.0
C3616 C 0.88186 0.40968 0.75266 0.0
C3617 C 0.87164 0.40046 0.76955 0.0
C3618 C 0.88155 0.42294 0.74451 0.0
C3619 C 0.87073 0.42707 0.75345 0.0
C3620 C 0.86023 0.4177 0.77028 0.0
C3621 C 0.86082 0.40451 0.77815 0.0
C3622 C 0.89291 0.43263 0.7265 0.0
C3623 C 0.84854 0.42175 0.78021 0.0
C3624 C 0.88098 0.4698 0.74764 0.0
C3625 C 0.87164 0.46901 0.72968 0.0
C3626 C 0.88067 0.4562 0.75568 0.0
C3627 C 0.87073 0.44145 0.74555 0.0
C3628 C 0.8611 0.44052 0.7276 0.0
C3629 C 0.86167 0.45433 0.71987 0.0
C3630 C 0.89108 0.45765 0.7749 0.0
C3631 C 0.85037 0.42499 0.71638 0.0
H3632 H 0.89007 0.40647 0.7457 0.0
H3633 H 0.85301 0.39754 0.79137 0.0
H3634 H 0.8863 0.43332 0.71214 0.0
H3635 H 0.90076 0.44488 0.73235 0.0
H3636 H 0.90035 0.42763 0.72102 0.0
H3637 H 0.84082 0.41295 0.79265 0.0
H3638 H 0.85495 0.43353 0.78815 0.0
H3639 H 0.84098 0.42244 0.76717 0.0
H3640 H 0.88852 0.48107 0.75552 0.0
H3641 H 0.85454 0.45367 0.70584 0.0
H3642 H 0.8995 0.45373 0.76997 0.0
H3643 H 0.88379 0.44985 0.78849 0.0
H3644 H 0.89792 0.46995 0.78118 0.0
H3645 H 0.85749 0.42013 0.70923 0.0
H3646 H 0.84326 0.4262 0.70308 0.0
H3647 H 0.8422 0.41626 0.72852 0.0
loop_
_geom_bond_atom_site_label_1
_geom_bond_atom_site_label_2
_geom_bond_distance
_geom_bond_site_symmetry_2
_ccdc_geom_bond_type
Li0 N17 1.990 . S
Li0 O60 1.956 . S
Li0 O61 1.970 . S
Li0 O62 1.961 . S
Li1 N25 1.990 . S
Li1 O60 1.970 . S
Li1 O61 1.956 . S
Li1 O63 1.961 . S
Li2 N47 1.990 . S
Li2 O60 1.961 . S
Li2 O62 1.956 . S
Li2 O63 1.970 . S
Li3 N53 1.990 . S
Li3 O61 1.961 . S
Li3 O62 1.970 . S
Li3 O63 1.956 . S
C4 C6 1.348 . S
C4 C7 1.356 . S
C4 O60 1.325 . S
N5 C8 1.314 . S
N5 C9 1.279 . S
C6 C4 1.348 . S
C6 C8 1.353 . S
C6 H64 0.929 . S
C7 C4 1.356 . S
C7 C9 1.358 . S
C7 H65 0.930 . S
C8 N5 1.314 . S
C8 C6 1.353 . S
C8 H66 0.930 . S
C9 N5 1.279 . S
C9 C7 1.358 . S
C9 H67 0.930 . S
C10 C13 1.348 . S
C10 C14 1.356 . S
C10 O61 1.325 . S
C11 N12 1.279 . S
C11 C14 1.358 . S
C11 H68 0.930 . S
N12 C11 1.279 . S
N12 C15 1.314 . S
C13 C10 1.348 . S
C13 C15 1.353 . S
C13 H69 0.929 . S
C14 C10 1.356 . S
C14 C11 1.358 . S
C14 H70 0.930 . S
C15 N12 1.314 . S
C15 C13 1.353 . S
C15 H71 0.930 . S
C16 N17 1.314 . S
C16 C21 1.353 . S
C16 H22 0.930 . S
N17 Li0 1.990 . S
N17 C16 1.314 . S
N17 C19 1.279 . S
C18 C19 1.358 . S
C18 C20 1.356 . S
C18 H72 0.930 . S
C19 N17 1.279 . S
C19 C18 1.358 . S
C19 H23 0.930 . S
C20 C18 1.356 . S
C20 C21 1.348 . S
C21 C16 1.353 . S
C21 C20 1.348 . S
C21 H73 0.929 . S
H22 C16 0.930 . S
H23 C19 0.930 . S
C24 N25 1.314 . S
C24 C26 1.353 . S
C24 H30 0.930 . S
N25 Li1 1.990 . S
N25 C24 1.314 . S
N25 C28 1.279 . S
C26 C24 1.353 . S
C26 C29 1.348 . S
C26 H74 0.929 . S
C27 C28 1.358 . S
C27 C29 1.356 . S
C27 H75 0.930 . S
C28 N25 1.279 . S
C28 C27 1.358 . S
C28 H31 0.930 . S
C29 C26 1.348 . S
C29 C27 1.356 . S
H30 C24 0.930 . S
H31 C28 0.930 . S
C32 C34 1.348 . S
C32 C35 1.356 . S
C32 O62 1.325 . S
N33 C36 1.314 . S
N33 C37 1.279 . S
C34 C32 1.348 . S
C34 C36 1.353 . S
C34 H76 0.929 . S
C35 C32 1.356 . S
C35 C37 1.358 . S
C35 H77 0.930 . S
C36 N33 1.314 . S
C36 C34 1.353 . S
C36 H78 0.930 . S
C37 N33 1.279 . S
C37 C35 1.358 . S
C37 H79 0.930 . S
C38 C39 1.348 . S
C38 C40 1.356 . S
C38 O63 1.325 . S
C39 C38 1.348 . S
C39 C41 1.353 . S
C39 H80 0.929 . S
C40 C38 1.356 . S
C40 C42 1.358 . S
C40 H81 0.930 . S
C41 C39 1.353 . S
C41 N43 1.314 . S
C41 H82 0.930 . S
C42 C40 1.358 . S
C42 N43 1.279 . S
C42 H83 0.930 . S
N43 C41 1.314 . S
N43 C42 1.279 . S
C44 C46 1.353 . S
C44 N47 1.314 . S
C44 H50 0.930 . S
C45 N47 1.279 . S
C45 C48 1.358 . S
C45 H51 0.930 . S
C46 C44 1.353 . S
C46 C49 1.348 . S
C46 H84 0.929 . S
N47 Li2 1.990 . S
N47 C44 1.314 . S
N47 C45 1.279 . S
C48 C45 1.358 . S
C48 C49 1.356 . S
C48 H85 0.930 . S
C49 C46 1.348 . S
C49 C48 1.356 . S
H50 C44 0.930 . S
H51 C45 0.930 . S
C52 N53 1.314 . S
C52 C54 1.353 . S
C52 H58 0.930 . S
N53 Li3 1.990 . S
N53 C52 1.314 . S
N53 C56 1.279 . S
C54 C52 1.353 . S
C54 C57 1.348 . S
C54 H86 0.929 . S
C55 C56 1.358 . S
C55 C57 1.356 . S
C55 H87 0.930 . S
C56 N53 1.279 . S
C56 C55 1.358 . S
C56 H59 0.930 . S
C57 C54 1.348 . S
C57 C55 1.356 . S
H58 C52 0.930 . S
H59 C56 0.930 . S
O60 Li0 1.956 . S
O60 Li1 1.970 . S
O60 Li2 1.961 . S
O60 C4 1.325 . S
O61 Li0 1.970 . S
O61 Li1 1.956 . S
O61 Li3 1.961 . S
O61 C10 1.325 . S
O62 Li0 1.961 . S
O62 Li2 1.956 . S
O62 Li3 1.970 . S
O62 C32 1.325 . S
O63 Li1 1.961 . S
O63 Li2 1.970 . S
O63 Li3 1.956 . S
O63 C38 1.325 . S
H64 C6 0.929 . S
H65 C7 0.930 . S
H66 C8 0.930 . S
H67 C9 0.930 . S
H68 C11 0.930 . S
H69 C13 0.929 . S
H70 C14 0.930 . S
H71 C15 0.930 . S
H72 C18 0.930 . S
H73 C21 0.929 . S
H74 C26 0.929 . S
H75 C27 0.930 . S
H76 C34 0.929 . S
H77 C35 0.930 . S
H78 C36 0.930 . S
H79 C37 0.930 . S
H80 C39 0.929 . S
H81 C40 0.930 . S
H82 C41 0.930 . S
H83 C42 0.930 . S
H84 C46 0.929 . S
H85 C48 0.930 . S
H86 C54 0.929 . S
H87 C55 0.930 . S
Li88 N105 1.990 . S
Li88 O148 1.956 . S
Li88 O149 1.970 . S
Li88 O150 1.961 . S
Li89 N113 1.990 . S
Li89 O148 1.970 . S
Li89 O149 1.956 . S
Li89 O151 1.961 . S
Li90 N135 1.990 . S
Li90 O148 1.961 . S
Li90 O150 1.956 . S
Li90 O151 1.970 . S
Li91 N141 1.990 . S
Li91 O149 1.961 . S
Li91 O150 1.970 . S
Li91 O151 1.956 . S
C92 C94 1.348 . S
C92 C95 1.356 . S
C92 O148 1.325 . S
N93 C96 1.314 . S
N93 C97 1.279 . S
C94 C92 1.348 . S
C94 C96 1.353 . S
C94 H152 0.929 . S
C95 C92 1.356 . S
C95 C97 1.358 . S
C95 H153 0.930 . S
C96 N93 1.314 . S
C96 C94 1.353 . S
C96 H154 0.930 . S
C97 N93 1.279 . S
C97 C95 1.358 . S
C97 H155 0.930 . S
C98 C101 1.348 . S
C98 C102 1.356 . S
C98 O149 1.325 . S
C99 N100 1.279 . S
C99 C102 1.358 . S
C99 H156 0.930 . S
N100 C99 1.279 . S
N100 C103 1.314 . S
C101 C98 1.348 . S
C101 C103 1.353 . S
C101 H157 0.929 . S
C102 C98 1.356 . S
C102 C99 1.358 . S
C102 H158 0.930 . S
C103 N100 1.314 . S
C103 C101 1.353 . S
C103 H159 0.930 . S
C104 N105 1.314 . S
C104 C109 1.353 . S
C104 H110 0.930 . S
N105 Li88 1.990 . S
N105 C104 1.314 . S
N105 C107 1.279 . S
C106 C107 1.358 . S
C106 C108 1.356 . S
C106 H160 0.930 . S
C107 N105 1.279 . S
C107 C106 1.358 . S
C107 H111 0.930 . S
C108 C106 1.356 . S
C108 C109 1.348 . S
C109 C104 1.353 . S
C109 C108 1.348 . S
C109 H161 0.929 . S
H110 C104 0.930 . S
H111 C107 0.930 . S
C112 N113 1.314 . S
C112 C114 1.353 . S
C112 H118 0.930 . S
N113 Li89 1.990 . S
N113 C112 1.314 . S
N113 C116 1.279 . S
C114 C112 1.353 . S
C114 C117 1.348 . S
C114 H162 0.929 . S
C115 C116 1.358 . S
C115 C117 1.356 . S
C115 H163 0.930 . S
C116 N113 1.279 . S
C116 C115 1.358 . S
C116 H119 0.930 . S
C117 C114 1.348 . S
C117 C115 1.356 . S
H118 C112 0.930 . S
H119 C116 0.930 . S
C120 C122 1.348 . S
C120 C123 1.356 . S
C120 O150 1.325 . S
N121 C124 1.314 . S
N121 C125 1.279 . S
C122 C120 1.348 . S
C122 C124 1.353 . S
C122 H164 0.929 . S
C123 C120 1.356 . S
C123 C125 1.358 . S
C123 H165 0.930 . S
C124 N121 1.314 . S
C124 C122 1.353 . S
C124 H166 0.930 . S
C125 N121 1.279 . S
C125 C123 1.358 . S
C125 H167 0.930 . S
C126 C127 1.348 . S
C126 C128 1.356 . S
C126 O151 1.325 . S
C127 C126 1.348 . S
C127 C129 1.353 . S
C127 H168 0.929 . S
C128 C126 1.356 . S
C128 C130 1.358 . S
C128 H169 0.930 . S
C129 C127 1.353 . S
C129 N131 1.314 . S
C129 H170 0.930 . S
C130 C128 1.358 . S
C130 N131 1.279 . S
C130 H171 0.930 . S
N131 C129 1.314 . S
N131 C130 1.279 . S
C132 C134 1.353 . S
C132 N135 1.314 . S
C132 H138 0.930 . S
C133 N135 1.279 . S
C133 C136 1.358 . S
C133 H139 0.930 . S
C134 C132 1.353 . S
C134 C137 1.348 . S
C134 H172 0.929 . S
N135 Li90 1.990 . S
N135 C132 1.314 . S
N135 C133 1.279 . S
C136 C133 1.358 . S
C136 C137 1.356 . S
C136 H173 0.930 . S
C137 C134 1.348 . S
C137 C136 1.356 . S
H138 C132 0.930 . S
H139 C133 0.930 . S
C140 N141 1.314 . S
C140 C142 1.353 . S
C140 H146 0.930 . S
N141 Li91 1.990 . S
N141 C140 1.314 . S
N141 C144 1.279 . S
C142 C140 1.353 . S
C142 C145 1.348 . S
C142 H174 0.929 . S
C143 C144 1.358 . S
C143 C145 1.356 . S
C143 H175 0.930 . S
C144 N141 1.279 . S
C144 C143 1.358 . S
C144 H147 0.930 . S
C145 C142 1.348 . S
C145 C143 1.356 . S
H146 C140 0.930 . S
H147 C144 0.930 . S
O148 Li88 1.956 . S
O148 Li89 1.970 . S
O148 Li90 1.961 . S
O148 C92 1.325 . S
O149 Li88 1.970 . S
O149 Li89 1.956 . S
O149 Li91 1.961 . S
O149 C98 1.325 . S
O150 Li88 1.961 . S
O150 Li90 1.956 . S
O150 Li91 1.970 . S
O150 C120 1.325 . S
O151 Li89 1.961 . S
O151 Li90 1.970 . S
O151 Li91 1.956 . S
O151 C126 1.325 . S
H152 C94 0.929 . S
H153 C95 0.930 . S
H154 C96 0.930 . S
H155 C97 0.930 . S
H156 C99 0.930 . S
H157 C101 0.929 . S
H158 C102 0.930 . S
H159 C103 0.930 . S
H160 C106 0.930 . S
H161 C109 0.929 . S
H162 C114 0.929 . S
H163 C115 0.930 . S
H164 C122 0.929 . S
H165 C123 0.930 . S
H166 C124 0.930 . S
H167 C125 0.930 . S
H168 C127 0.929 . S
H169 C128 0.930 . S
H170 C129 0.930 . S
H171 C130 0.930 . S
H172 C134 0.929 . S
H173 C136 0.930 . S
H174 C142 0.929 . S
H175 C143 0.930 . S
Li176 N193 1.990 . S
Li176 O236 1.956 . S
Li176 O237 1.970 . S
Li176 O238 1.961 . S
Li177 N201 1.990 . S
Li177 O236 1.970 . S
Li177 O237 1.956 . S
Li177 O239 1.961 . S
Li178 N223 1.990 . S
Li178 O236 1.961 . S
Li178 O238 1.956 . S
Li178 O239 1.970 . S
Li179 N229 1.990 . S
Li179 O237 1.961 . S
Li179 O238 1.970 . S
Li179 O239 1.956 . S
C180 C182 1.348 . S
C180 C183 1.356 . S
C180 O236 1.325 . S
N181 C184 1.314 . S
N181 C185 1.279 . S
C182 C180 1.348 . S
C182 C184 1.353 . S
C182 H240 0.929 . S
C183 C180 1.356 . S
C183 C185 1.358 . S
C183 H241 0.930 . S
C184 N181 1.314 . S
C184 C182 1.353 . S
C184 H242 0.930 . S
C185 N181 1.279 . S
C185 C183 1.358 . S
C185 H243 0.930 . S
C186 C189 1.348 . S
C186 C190 1.356 . S
C186 O237 1.325 . S
C187 N188 1.279 . S
C187 C190 1.358 . S
C187 H244 0.930 . S
N188 C187 1.279 . S
N188 C191 1.314 . S
C189 C186 1.348 . S
C189 C191 1.353 . S
C189 H245 0.929 . S
C190 C186 1.356 . S
C190 C187 1.358 . S
C190 H246 0.930 . S
C191 N188 1.314 . S
C191 C189 1.353 . S
C191 H247 0.930 . S
C192 N193 1.314 . S
C192 C197 1.353 . S
C192 H198 0.930 . S
N193 Li176 1.990 . S
N193 C192 1.314 . S
N193 C195 1.279 . S
C194 C195 1.358 . S
C194 C196 1.356 . S
C194 H248 0.930 . S
C195 N193 1.279 . S
C195 C194 1.358 . S
C195 H199 0.930 . S
C196 C194 1.356 . S
C196 C197 1.348 . S
C197 C192 1.353 . S
C197 C196 1.348 . S
C197 H249 0.929 . S
H198 C192 0.930 . S
H199 C195 0.930 . S
C200 N201 1.314 . S
C200 C202 1.353 . S
C200 H206 0.930 . S
N201 Li177 1.990 . S
N201 C200 1.314 . S
N201 C204 1.279 . S
C202 C200 1.353 . S
C202 C205 1.348 . S
C202 H250 0.929 . S
C203 C204 1.358 . S
C203 C205 1.356 . S
C203 H251 0.930 . S
C204 N201 1.279 . S
C204 C203 1.358 . S
C204 H207 0.930 . S
C205 C202 1.348 . S
C205 C203 1.356 . S
H206 C200 0.930 . S
H207 C204 0.930 . S
C208 C210 1.348 . S
C208 C211 1.356 . S
C208 O238 1.325 . S
N209 C212 1.314 . S
N209 C213 1.279 . S
C210 C208 1.348 . S
C210 C212 1.353 . S
C210 H252 0.929 . S
C211 C208 1.356 . S
C211 C213 1.358 . S
C211 H253 0.930 . S
C212 N209 1.314 . S
C212 C210 1.353 . S
C212 H254 0.930 . S
C213 N209 1.279 . S
C213 C211 1.358 . S
C213 H255 0.930 . S
C214 C215 1.348 . S
C214 C216 1.356 . S
C214 O239 1.325 . S
C215 C214 1.348 . S
C215 C217 1.353 . S
C215 H256 0.929 . S
C216 C214 1.356 . S
C216 C218 1.358 . S
C216 H257 0.930 . S
C217 C215 1.353 . S
C217 N219 1.314 . S
C217 H258 0.930 . S
C218 C216 1.358 . S
C218 N219 1.279 . S
C218 H259 0.930 . S
N219 C217 1.314 . S
N219 C218 1.279 . S
C220 C222 1.353 . S
C220 N223 1.314 . S
C220 H226 0.930 . S
C221 N223 1.279 . S
C221 C224 1.358 . S
C221 H227 0.930 . S
C222 C220 1.353 . S
C222 C225 1.348 . S
C222 H260 0.929 . S
N223 Li178 1.990 . S
N223 C220 1.314 . S
N223 C221 1.279 . S
C224 C221 1.358 . S
C224 C225 1.356 . S
C224 H261 0.930 . S
C225 C222 1.348 . S
C225 C224 1.356 . S
H226 C220 0.930 . S
H227 C221 0.930 . S
C228 N229 1.314 . S
C228 C230 1.353 . S
C228 H234 0.930 . S
N229 Li179 1.990 . S
N229 C228 1.314 . S
N229 C232 1.279 . S
C230 C228 1.353 . S
C230 C233 1.348 . S
C230 H262 0.929 . S
C231 C232 1.358 . S
C231 C233 1.356 . S
C231 H263 0.930 . S
C232 N229 1.279 . S
C232 C231 1.358 . S
C232 H235 0.930 . S
C233 C230 1.348 . S
C233 C231 1.356 . S
H234 C228 0.930 . S
H235 C232 0.930 . S
O236 Li176 1.956 . S
O236 Li177 1.970 . S
O236 Li178 1.961 . S
O236 C180 1.325 . S
O237 Li176 1.970 . S
O237 Li177 1.956 . S
O237 Li179 1.961 . S
O237 C186 1.325 . S
O238 Li176 1.961 . S
O238 Li178 1.956 . S
O238 Li179 1.970 . S
O238 C208 1.325 . S
O239 Li177 1.961 . S
O239 Li178 1.970 . S
O239 Li179 1.956 . S
O239 C214 1.325 . S
H240 C182 0.929 . S
H241 C183 0.930 . S
H242 C184 0.930 . S
H243 C185 0.930 . S
H244 C187 0.930 . S
H245 C189 0.929 . S
H246 C190 0.930 . S
H247 C191 0.930 . S
H248 C194 0.930 . S
H249 C197 0.929 . S
H250 C202 0.929 . S
H251 C203 0.930 . S
H252 C210 0.929 . S
H253 C211 0.930 . S
H254 C212 0.930 . S
H255 C213 0.930 . S
H256 C215 0.929 . S
H257 C216 0.930 . S
H258 C217 0.930 . S
H259 C218 0.930 . S
H260 C222 0.929 . S
H261 C224 0.930 . S
H262 C230 0.929 . S
H263 C231 0.930 . S
Li264 N281 1.990 . S
Li264 O324 1.956 . S
Li264 O325 1.970 . S
Li264 O326 1.961 . S
Li265 N289 1.990 . S
Li265 O324 1.970 . S
Li265 O325 1.956 . S
Li265 O327 1.961 . S
Li266 N311 1.990 . S
Li266 O324 1.961 . S
Li266 O326 1.956 . S
Li266 O327 1.970 . S
Li267 N317 1.990 . S
Li267 O325 1.961 . S
Li267 O326 1.970 . S
Li267 O327 1.956 . S
C268 C270 1.348 . S
C268 C271 1.356 . S
C268 O324 1.325 . S
N269 C272 1.314 . S
N269 C273 1.279 . S
C270 C268 1.348 . S
C270 C272 1.353 . S
C270 H328 0.929 . S
C271 C268 1.356 . S
C271 C273 1.358 . S
C271 H329 0.930 . S
C272 N269 1.314 . S
C272 C270 1.353 . S
C272 H330 0.930 . S
C273 N269 1.279 . S
C273 C271 1.358 . S
C273 H331 0.930 . S
C274 C277 1.348 . S
C274 C278 1.356 . S
C274 O325 1.325 . S
C275 N276 1.279 . S
C275 C278 1.358 . S
C275 H332 0.930 . S
N276 C275 1.279 . S
N276 C279 1.314 . S
C277 C274 1.348 . S
C277 C279 1.353 . S
C277 H333 0.929 . S
C278 C274 1.356 . S
C278 C275 1.358 . S
C278 H334 0.930 . S
C279 N276 1.314 . S
C279 C277 1.353 . S
C279 H335 0.930 . S
C280 N281 1.314 . S
C280 C285 1.353 . S
C280 H286 0.930 . S
N281 Li264 1.990 . S
N281 C280 1.314 . S
N281 C283 1.279 . S
C282 C283 1.358 . S
C282 C284 1.356 . S
C282 H336 0.930 . S
C283 N281 1.279 . S
C283 C282 1.358 . S
C283 H287 0.930 . S
C284 C282 1.356 . S
C284 C285 1.348 . S
C285 C280 1.353 . S
C285 C284 1.348 . S
C285 H337 0.929 . S
H286 C280 0.930 . S
H287 C283 0.930 . S
C288 N289 1.314 . S
C288 C290 1.353 . S
C288 H294 0.930 . S
N289 Li265 1.990 . S
N289 C288 1.314 . S
N289 C292 1.279 . S
C290 C288 1.353 . S
C290 C293 1.348 . S
C290 H338 0.929 . S
C291 C292 1.358 . S
C291 C293 1.356 . S
C291 H339 0.930 . S
C292 N289 1.279 . S
C292 C291 1.358 . S
C292 H295 0.930 . S
C293 C290 1.348 . S
C293 C291 1.356 . S
H294 C288 0.930 . S
H295 C292 0.930 . S
C296 C298 1.348 . S
C296 C299 1.356 . S
C296 O326 1.325 . S
N297 C300 1.314 . S
N297 C301 1.279 . S
C298 C296 1.348 . S
C298 C300 1.353 . S
C298 H340 0.929 . S
C299 C296 1.356 . S
C299 C301 1.358 . S
C299 H341 0.930 . S
C300 N297 1.314 . S
C300 C298 1.353 . S
C300 H342 0.930 . S
C301 N297 1.279 . S
C301 C299 1.358 . S
C301 H343 0.930 . S
C302 C303 1.348 . S
C302 C304 1.356 . S
C302 O327 1.325 . S
C303 C302 1.348 . S
C303 C305 1.353 . S
C303 H344 0.929 . S
C304 C302 1.356 . S
C304 C306 1.358 . S
C304 H345 0.930 . S
C305 C303 1.353 . S
C305 N307 1.314 . S
C305 H346 0.930 . S
C306 C304 1.358 . S
C306 N307 1.279 . S
C306 H347 0.930 . S
N307 C305 1.314 . S
N307 C306 1.279 . S
C308 C310 1.353 . S
C308 N311 1.314 . S
C308 H314 0.930 . S
C309 N311 1.279 . S
C309 C312 1.358 . S
C309 H315 0.930 . S
C310 C308 1.353 . S
C310 C313 1.348 . S
C310 H348 0.929 . S
N311 Li266 1.990 . S
N311 C308 1.314 . S
N311 C309 1.279 . S
C312 C309 1.358 . S
C312 C313 1.356 . S
C312 H349 0.930 . S
C313 C310 1.348 . S
C313 C312 1.356 . S
H314 C308 0.930 . S
H315 C309 0.930 . S
C316 N317 1.314 . S
C316 C318 1.353 . S
C316 H322 0.930 . S
N317 Li267 1.990 . S
N317 C316 1.314 . S
N317 C320 1.279 . S
C318 C316 1.353 . S
C318 C321 1.348 . S
C318 H350 0.929 . S
C319 C320 1.358 . S
C319 C321 1.356 . S
C319 H351 0.930 . S
C320 N317 1.279 . S
C320 C319 1.358 . S
C320 H323 0.930 . S
C321 C318 1.348 . S
C321 C319 1.356 . S
H322 C316 0.930 . S
H323 C320 0.930 . S
O324 Li264 1.956 . S
O324 Li265 1.970 . S
O324 Li266 1.961 . S
O324 C268 1.325 . S
O325 Li264 1.970 . S
O325 Li265 1.956 . S
O325 Li267 1.961 . S
O325 C274 1.325 . S
O326 Li264 1.961 . S
O326 Li266 1.956 . S
O326 Li267 1.970 . S
O326 C296 1.325 . S
O327 Li265 1.961 . S
O327 Li266 1.970 . S
O327 Li267 1.956 . S
O327 C302 1.325 . S
H328 C270 0.929 . S
H329 C271 0.930 . S
H330 C272 0.930 . S
H331 C273 0.930 . S
H332 C275 0.930 . S
H333 C277 0.929 . S
H334 C278 0.930 . S
H335 C279 0.930 . S
H336 C282 0.930 . S
H337 C285 0.929 . S
H338 C290 0.929 . S
H339 C291 0.930 . S
H340 C298 0.929 . S
H341 C299 0.930 . S
H342 C300 0.930 . S
H343 C301 0.930 . S
H344 C303 0.929 . S
H345 C304 0.930 . S
H346 C305 0.930 . S
H347 C306 0.930 . S
H348 C310 0.929 . S
H349 C312 0.930 . S
H350 C318 0.929 . S
H351 C319 0.930 . S
Li352 N369 1.990 . S
Li352 O412 1.956 . S
Li352 O413 1.970 . S
Li352 O414 1.961 . S
Li353 N377 1.990 . S
Li353 O412 1.970 . S
Li353 O413 1.956 . S
Li353 O415 1.961 . S
Li354 N399 1.990 . S
Li354 O412 1.961 . S
Li354 O414 1.956 . S
Li354 O415 1.970 . S
Li355 N405 1.990 . S
Li355 O413 1.961 . S
Li355 O414 1.970 . S
Li355 O415 1.956 . S
C356 C358 1.348 . S
C356 C359 1.356 . S
C356 O412 1.325 . S
N357 C360 1.314 . S
N357 C361 1.279 . S
C358 C356 1.348 . S
C358 C360 1.353 . S
C358 H416 0.929 . S
C359 C356 1.356 . S
C359 C361 1.358 . S
C359 H417 0.930 . S
C360 N357 1.314 . S
C360 C358 1.353 . S
C360 H418 0.930 . S
C361 N357 1.279 . S
C361 C359 1.358 . S
C361 H419 0.930 . S
C362 C365 1.348 . S
C362 C366 1.356 . S
C362 O413 1.325 . S
C363 N364 1.279 . S
C363 C366 1.358 . S
C363 H420 0.930 . S
N364 C363 1.279 . S
N364 C367 1.314 . S
C365 C362 1.348 . S
C365 C367 1.353 . S
C365 H421 0.929 . S
C366 C362 1.356 . S
C366 C363 1.358 . S
C366 H422 0.930 . S
C367 N364 1.314 . S
C367 C365 1.353 . S
C367 H423 0.930 . S
C368 N369 1.314 . S
C368 C373 1.353 . S
C368 H374 0.930 . S
N369 Li352 1.990 . S
N369 C368 1.314 . S
N369 C371 1.279 . S
C370 C371 1.358 . S
C370 C372 1.356 . S
C370 H424 0.930 . S
C371 N369 1.279 . S
C371 C370 1.358 . S
C371 H375 0.930 . S
C372 C370 1.356 . S
C372 C373 1.348 . S
C373 C368 1.353 . S
C373 C372 1.348 . S
C373 H425 0.929 . S
H374 C368 0.930 . S
H375 C371 0.930 . S
C376 N377 1.314 . S
C376 C378 1.353 . S
C376 H382 0.930 . S
N377 Li353 1.990 . S
N377 C376 1.314 . S
N377 C380 1.279 . S
C378 C376 1.353 . S
C378 C381 1.348 . S
C378 H426 0.929 . S
C379 C380 1.358 . S
C379 C381 1.356 . S
C379 H427 0.930 . S
C380 N377 1.279 . S
C380 C379 1.358 . S
C380 H383 0.930 . S
C381 C378 1.348 . S
C381 C379 1.356 . S
H382 C376 0.930 . S
H383 C380 0.930 . S
C384 C386 1.348 . S
C384 C387 1.356 . S
C384 O414 1.325 . S
N385 C388 1.314 . S
N385 C389 1.279 . S
C386 C384 1.348 . S
C386 C388 1.353 . S
C386 H428 0.929 . S
C387 C384 1.356 . S
C387 C389 1.358 . S
C387 H429 0.930 . S
C388 N385 1.314 . S
C388 C386 1.353 . S
C388 H430 0.930 . S
C389 N385 1.279 . S
C389 C387 1.358 . S
C389 H431 0.930 . S
C390 C391 1.348 . S
C390 C392 1.356 . S
C390 O415 1.325 . S
C391 C390 1.348 . S
C391 C393 1.353 . S
C391 H432 0.929 . S
C392 C390 1.356 . S
C392 C394 1.358 . S
C392 H433 0.930 . S
C393 C391 1.353 . S
C393 N395 1.314 . S
C393 H434 0.930 . S
C394 C392 1.358 . S
C394 N395 1.279 . S
C394 H435 0.930 . S
N395 C393 1.314 . S
N395 C394 1.279 . S
C396 C398 1.353 . S
C396 N399 1.314 . S
C396 H402 0.930 . S
C397 N399 1.279 . S
C397 C400 1.358 . S
C397 H403 0.930 . S
C398 C396 1.353 . S
C398 C401 1.348 . S
C398 H436 0.929 . S
N399 Li354 1.990 . S
N399 C396 1.314 . S
N399 C397 1.279 . S
C400 C397 1.358 . S
C400 C401 1.356 . S
C400 H437 0.930 . S
C401 C398 1.348 . S
C401 C400 1.356 . S
H402 C396 0.930 . S
H403 C397 0.930 . S
C404 N405 1.314 . S
C404 C406 1.353 . S
C404 H410 0.930 . S
N405 Li355 1.990 . S
N405 C404 1.314 . S
N405 C408 1.279 . S
C406 C404 1.353 . S
C406 C409 1.348 . S
C406 H438 0.929 . S
C407 C408 1.358 . S
C407 C409 1.356 . S
C407 H439 0.930 . S
C408 N405 1.279 . S
C408 C407 1.358 . S
C408 H411 0.930 . S
C409 C406 1.348 . S
C409 C407 1.356 . S
H410 C404 0.930 . S
H411 C408 0.930 . S
O412 Li352 1.956 . S
O412 Li353 1.970 . S
O412 Li354 1.961 . S
O412 C356 1.325 . S
O413 Li352 1.970 . S
O413 Li353 1.956 . S
O413 Li355 1.961 . S
O413 C362 1.325 . S
O414 Li352 1.961 . S
O414 Li354 1.956 . S
O414 Li355 1.970 . S
O414 C384 1.325 . S
O415 Li353 1.961 . S
O415 Li354 1.970 . S
O415 Li355 1.956 . S
O415 C390 1.325 . S
H416 C358 0.929 . S
H417 C359 0.930 . S
H418 C360 0.930 . S
H419 C361 0.930 . S
H420 C363 0.930 . S
H421 C365 0.929 . S
H422 C366 0.930 . S
H423 C367 0.930 . S
H424 C370 0.930 . S
H425 C373 0.929 . S
H426 C378 0.929 . S
H427 C379 0.930 . S
H428 C386 0.929 . S
H429 C387 0.930 . S
H430 C388 0.930 . S
H431 C389 0.930 . S
H432 C391 0.929 . S
H433 C392 0.930 . S
H434 C393 0.930 . S
H435 C394 0.930 . S
H436 C398 0.929 . S
H437 C400 0.930 . S
H438 C406 0.929 . S
H439 C407 0.930 . S
Li440 N457 1.990 . S
Li440 O500 1.956 . S
Li440 O501 1.970 . S
Li440 O502 1.961 . S
Li441 N465 1.990 . S
Li441 O500 1.970 . S
Li441 O501 1.956 . S
Li441 O503 1.961 . S
Li442 N487 1.990 . S
Li442 O500 1.961 . S
Li442 O502 1.956 . S
Li442 O503 1.970 . S
Li443 N493 1.990 . S
Li443 O501 1.961 . S
Li443 O502 1.970 . S
Li443 O503 1.956 . S
C444 C446 1.348 . S
C444 C447 1.356 . S
C444 O500 1.325 . S
N445 C448 1.314 . S
N445 C449 1.279 . S
C446 C444 1.348 . S
C446 C448 1.353 . S
C446 H504 0.929 . S
C447 C444 1.356 . S
C447 C449 1.358 . S
C447 H505 0.930 . S
C448 N445 1.314 . S
C448 C446 1.353 . S
C448 H506 0.930 . S
C449 N445 1.279 . S
C449 C447 1.358 . S
C449 H507 0.930 . S
C450 C453 1.348 . S
C450 C454 1.356 . S
C450 O501 1.325 . S
C451 N452 1.279 . S
C451 C454 1.358 . S
C451 H508 0.930 . S
N452 C451 1.279 . S
N452 C455 1.314 . S
C453 C450 1.348 . S
C453 C455 1.353 . S
C453 H509 0.929 . S
C454 C450 1.356 . S
C454 C451 1.358 . S
C454 H510 0.930 . S
C455 N452 1.314 . S
C455 C453 1.353 . S
C455 H511 0.930 . S
C456 N457 1.314 . S
C456 C461 1.353 . S
C456 H462 0.930 . S
N457 Li440 1.990 . S
N457 C456 1.314 . S
N457 C459 1.279 . S
C458 C459 1.358 . S
C458 C460 1.356 . S
C458 H512 0.930 . S
C459 N457 1.279 . S
C459 C458 1.358 . S
C459 H463 0.930 . S
C460 C458 1.356 . S
C460 C461 1.348 . S
C461 C456 1.353 . S
C461 C460 1.348 . S
C461 H513 0.929 . S
H462 C456 0.930 . S
H463 C459 0.930 . S
C464 N465 1.314 . S
C464 C466 1.353 . S
C464 H470 0.930 . S
N465 Li441 1.990 . S
N465 C464 1.314 . S
N465 C468 1.279 . S
C466 C464 1.353 . S
C466 C469 1.348 . S
C466 H514 0.929 . S
C467 C468 1.358 . S
C467 C469 1.356 . S
C467 H515 0.930 . S
C468 N465 1.279 . S
C468 C467 1.358 . S
C468 H471 0.930 . S
C469 C466 1.348 . S
C469 C467 1.356 . S
H470 C464 0.930 . S
H471 C468 0.930 . S
C472 C474 1.348 . S
C472 C475 1.356 . S
C472 O502 1.325 . S
N473 C476 1.314 . S
N473 C477 1.279 . S
C474 C472 1.348 . S
C474 C476 1.353 . S
C474 H516 0.929 . S
C475 C472 1.356 . S
C475 C477 1.358 . S
C475 H517 0.930 . S
C476 N473 1.314 . S
C476 C474 1.353 . S
C476 H518 0.930 . S
C477 N473 1.279 . S
C477 C475 1.358 . S
C477 H519 0.930 . S
C478 C479 1.348 . S
C478 C480 1.356 . S
C478 O503 1.325 . S
C479 C478 1.348 . S
C479 C481 1.353 . S
C479 H520 0.929 . S
C480 C478 1.356 . S
C480 C482 1.358 . S
C480 H521 0.930 . S
C481 C479 1.353 . S
C481 N483 1.314 . S
C481 H522 0.930 . S
C482 C480 1.358 . S
C482 N483 1.279 . S
C482 H523 0.930 . S
N483 C481 1.314 . S
N483 C482 1.279 . S
C484 C486 1.353 . S
C484 N487 1.314 . S
C484 H490 0.930 . S
C485 N487 1.279 . S
C485 C488 1.358 . S
C485 H491 0.930 . S
C486 C484 1.353 . S
C486 C489 1.348 . S
C486 H524 0.929 . S
N487 Li442 1.990 . S
N487 C484 1.314 . S
N487 C485 1.279 . S
C488 C485 1.358 . S
C488 C489 1.356 . S
C488 H525 0.930 . S
C489 C486 1.348 . S
C489 C488 1.356 . S
H490 C484 0.930 . S
H491 C485 0.930 . S
C492 N493 1.314 . S
C492 C494 1.353 . S
C492 H498 0.930 . S
N493 Li443 1.990 . S
N493 C492 1.314 . S
N493 C496 1.279 . S
C494 C492 1.353 . S
C494 C497 1.348 . S
C494 H526 0.929 . S
C495 C496 1.358 . S
C495 C497 1.356 . S
C495 H527 0.930 . S
C496 N493 1.279 . S
C496 C495 1.358 . S
C496 H499 0.930 . S
C497 C494 1.348 . S
C497 C495 1.356 . S
H498 C492 0.930 . S
H499 C496 0.930 . S
O500 Li440 1.956 . S
O500 Li441 1.970 . S
O500 Li442 1.961 . S
O500 C444 1.325 . S
O501 Li440 1.970 . S
O501 Li441 1.956 . S
O501 Li443 1.961 . S
O501 C450 1.325 . S
O502 Li440 1.961 . S
O502 Li442 1.956 . S
O502 Li443 1.970 . S
O502 C472 1.325 . S
O503 Li441 1.961 . S
O503 Li442 1.970 . S
O503 Li443 1.956 . S
O503 C478 1.325 . S
H504 C446 0.929 . S
H505 C447 0.930 . S
H506 C448 0.930 . S
H507 C449 0.930 . S
H508 C451 0.930 . S
H509 C453 0.929 . S
H510 C454 0.930 . S
H511 C455 0.930 . S
H512 C458 0.930 . S
H513 C461 0.929 . S
H514 C466 0.929 . S
H515 C467 0.930 . S
H516 C474 0.929 . S
H517 C475 0.930 . S
H518 C476 0.930 . S
H519 C477 0.930 . S
H520 C479 0.929 . S
H521 C480 0.930 . S
H522 C481 0.930 . S
H523 C482 0.930 . S
H524 C486 0.929 . S
H525 C488 0.930 . S
H526 C494 0.929 . S
H527 C495 0.930 . S
Li528 N545 1.990 . S
Li528 O588 1.956 . S
Li528 O589 1.970 . S
Li528 O590 1.961 . S
Li529 N553 1.990 . S
Li529 O588 1.970 . S
Li529 O589 1.956 . S
Li529 O591 1.961 . S
Li530 N575 1.990 . S
Li530 O588 1.961 . S
Li530 O590 1.956 . S
Li530 O591 1.970 . S
Li531 N581 1.990 . S
Li531 O589 1.961 . S
Li531 O590 1.970 . S
Li531 O591 1.956 . S
C532 C534 1.348 . S
C532 C535 1.356 . S
C532 O588 1.325 . S
N533 C536 1.314 . S
N533 C537 1.279 . S
C534 C532 1.348 . S
C534 C536 1.353 . S
C534 H592 0.929 . S
C535 C532 1.356 . S
C535 C537 1.358 . S
C535 H593 0.930 . S
C536 N533 1.314 . S
C536 C534 1.353 . S
C536 H594 0.930 . S
C537 N533 1.279 . S
C537 C535 1.358 . S
C537 H595 0.930 . S
C538 C541 1.348 . S
C538 C542 1.356 . S
C538 O589 1.325 . S
C539 N540 1.279 . S
C539 C542 1.358 . S
C539 H596 0.930 . S
N540 C539 1.279 . S
N540 C543 1.314 . S
C541 C538 1.348 . S
C541 C543 1.353 . S
C541 H597 0.929 . S
C542 C538 1.356 . S
C542 C539 1.358 . S
C542 H598 0.930 . S
C543 N540 1.314 . S
C543 C541 1.353 . S
C543 H599 0.930 . S
C544 N545 1.314 . S
C544 C549 1.353 . S
C544 H550 0.930 . S
N545 Li528 1.990 . S
N545 C544 1.314 . S
N545 C547 1.279 . S
C546 C547 1.358 . S
C546 C548 1.356 . S
C546 H600 0.930 . S
C547 N545 1.279 . S
C547 C546 1.358 . S
C547 H551 0.930 . S
C548 C546 1.356 . S
C548 C549 1.348 . S
C549 C544 1.353 . S
C549 C548 1.348 . S
C549 H601 0.929 . S
H550 C544 0.930 . S
H551 C547 0.930 . S
C552 N553 1.314 . S
C552 C554 1.353 . S
C552 H558 0.930 . S
N553 Li529 1.990 . S
N553 C552 1.314 . S
N553 C556 1.279 . S
C554 C552 1.353 . S
C554 C557 1.348 . S
C554 H602 0.929 . S
C555 C556 1.358 . S
C555 C557 1.356 . S
C555 H603 0.930 . S
C556 N553 1.279 . S
C556 C555 1.358 . S
C556 H559 0.930 . S
C557 C554 1.348 . S
C557 C555 1.356 . S
H558 C552 0.930 . S
H559 C556 0.930 . S
C560 C562 1.348 . S
C560 C563 1.356 . S
C560 O590 1.325 . S
N561 C564 1.314 . S
N561 C565 1.279 . S
C562 C560 1.348 . S
C562 C564 1.353 . S
C562 H604 0.929 . S
C563 C560 1.356 . S
C563 C565 1.358 . S
C563 H605 0.930 . S
C564 N561 1.314 . S
C564 C562 1.353 . S
C564 H606 0.930 . S
C565 N561 1.279 . S
C565 C563 1.358 . S
C565 H607 0.930 . S
C566 C567 1.348 . S
C566 C568 1.356 . S
C566 O591 1.325 . S
C567 C566 1.348 . S
C567 C569 1.353 . S
C567 H608 0.929 . S
C568 C566 1.356 . S
C568 C570 1.358 . S
C568 H609 0.930 . S
C569 C567 1.353 . S
C569 N571 1.314 . S
C569 H610 0.930 . S
C570 C568 1.358 . S
C570 N571 1.279 . S
C570 H611 0.930 . S
N571 C569 1.314 . S
N571 C570 1.279 . S
C572 C574 1.353 . S
C572 N575 1.314 . S
C572 H578 0.930 . S
C573 N575 1.279 . S
C573 C576 1.358 . S
C573 H579 0.930 . S
C574 C572 1.353 . S
C574 C577 1.348 . S
C574 H612 0.929 . S
N575 Li530 1.990 . S
N575 C572 1.314 . S
N575 C573 1.279 . S
C576 C573 1.358 . S
C576 C577 1.356 . S
C576 H613 0.930 . S
C577 C574 1.348 . S
C577 C576 1.356 . S
H578 C572 0.930 . S
H579 C573 0.930 . S
C580 N581 1.314 . S
C580 C582 1.353 . S
C580 H586 0.930 . S
N581 Li531 1.990 . S
N581 C580 1.314 . S
N581 C584 1.279 . S
C582 C580 1.353 . S
C582 C585 1.348 . S
C582 H614 0.929 . S
C583 C584 1.358 . S
C583 C585 1.356 . S
C583 H615 0.930 . S
C584 N581 1.279 . S
C584 C583 1.358 . S
C584 H587 0.930 . S
C585 C582 1.348 . S
C585 C583 1.356 . S
H586 C580 0.930 . S
H587 C584 0.930 . S
O588 Li528 1.956 . S
O588 Li529 1.970 . S
O588 Li530 1.961 . S
O588 C532 1.325 . S
O589 Li528 1.970 . S
O589 Li529 1.956 . S
O589 Li531 1.961 . S
O589 C538 1.325 . S
O590 Li528 1.961 . S
O590 Li530 1.956 . S
O590 Li531 1.970 . S
O590 C560 1.325 . S
O591 Li529 1.961 . S
O591 Li530 1.970 . S
O591 Li531 1.956 . S
O591 C566 1.325 . S
H592 C534 0.929 . S
H593 C535 0.930 . S
H594 C536 0.930 . S
H595 C537 0.930 . S
H596 C539 0.930 . S
H597 C541 0.929 . S
H598 C542 0.930 . S
H599 C543 0.930 . S
H600 C546 0.930 . S
H601 C549 0.929 . S
H602 C554 0.929 . S
H603 C555 0.930 . S
H604 C562 0.929 . S
H605 C563 0.930 . S
H606 C564 0.930 . S
H607 C565 0.930 . S
H608 C567 0.929 . S
H609 C568 0.930 . S
H610 C569 0.930 . S
H611 C570 0.930 . S
H612 C574 0.929 . S
H613 C576 0.930 . S
H614 C582 0.929 . S
H615 C583 0.930 . S
Li616 N633 1.990 . S
Li616 O676 1.956 . S
Li616 O677 1.970 . S
Li616 O678 1.961 . S
Li617 N641 1.990 . S
Li617 O676 1.970 . S
Li617 O677 1.956 . S
Li617 O679 1.961 . S
Li618 N663 1.990 . S
Li618 O676 1.961 . S
Li618 O678 1.956 . S
Li618 O679 1.970 . S
Li619 N669 1.990 . S
Li619 O677 1.961 . S
Li619 O678 1.970 . S
Li619 O679 1.956 . S
C620 C622 1.348 . S
C620 C623 1.356 . S
C620 O676 1.325 . S
N621 C624 1.314 . S
N621 C625 1.279 . S
C622 C620 1.348 . S
C622 C624 1.353 . S
C622 H680 0.929 . S
C623 C620 1.356 . S
C623 C625 1.358 . S
C623 H681 0.930 . S
C624 N621 1.314 . S
C624 C622 1.353 . S
C624 H682 0.930 . S
C625 N621 1.279 . S
C625 C623 1.358 . S
C625 H683 0.930 . S
C626 C629 1.348 . S
C626 C630 1.356 . S
C626 O677 1.325 . S
C627 N628 1.279 . S
C627 C630 1.358 . S
C627 H684 0.930 . S
N628 C627 1.279 . S
N628 C631 1.314 . S
C629 C626 1.348 . S
C629 C631 1.353 . S
C629 H685 0.929 . S
C630 C626 1.356 . S
C630 C627 1.358 . S
C630 H686 0.930 . S
C631 N628 1.314 . S
C631 C629 1.353 . S
C631 H687 0.930 . S
C632 N633 1.314 . S
C632 C637 1.353 . S
C632 H638 0.930 . S
N633 Li616 1.990 . S
N633 C632 1.314 . S
N633 C635 1.279 . S
C634 C635 1.358 . S
C634 C636 1.356 . S
C634 H688 0.930 . S
C635 N633 1.279 . S
C635 C634 1.358 . S
C635 H639 0.930 . S
C636 C634 1.356 . S
C636 C637 1.348 . S
C637 C632 1.353 . S
C637 C636 1.348 . S
C637 H689 0.929 . S
H638 C632 0.930 . S
H639 C635 0.930 . S
C640 N641 1.314 . S
C640 C642 1.353 . S
C640 H646 0.930 . S
N641 Li617 1.990 . S
N641 C640 1.314 . S
N641 C644 1.279 . S
C642 C640 1.353 . S
C642 C645 1.348 . S
C642 H690 0.929 . S
C643 C644 1.358 . S
C643 C645 1.356 . S
C643 H691 0.930 . S
C644 N641 1.279 . S
C644 C643 1.358 . S
C644 H647 0.930 . S
C645 C642 1.348 . S
C645 C643 1.356 . S
H646 C640 0.930 . S
H647 C644 0.930 . S
C648 C650 1.348 . S
C648 C651 1.356 . S
C648 O678 1.325 . S
N649 C652 1.314 . S
N649 C653 1.279 . S
C650 C648 1.348 . S
C650 C652 1.353 . S
C650 H692 0.929 . S
C651 C648 1.356 . S
C651 C653 1.358 . S
C651 H693 0.930 . S
C652 N649 1.314 . S
C652 C650 1.353 . S
C652 H694 0.930 . S
C653 N649 1.279 . S
C653 C651 1.358 . S
C653 H695 0.930 . S
C654 C655 1.348 . S
C654 C656 1.356 . S
C654 O679 1.325 . S
C655 C654 1.348 . S
C655 C657 1.353 . S
C655 H696 0.929 . S
C656 C654 1.356 . S
C656 C658 1.358 . S
C656 H697 0.930 . S
C657 C655 1.353 . S
C657 N659 1.314 . S
C657 H698 0.930 . S
C658 C656 1.358 . S
C658 N659 1.279 . S
C658 H699 0.930 . S
N659 C657 1.314 . S
N659 C658 1.279 . S
C660 C662 1.353 . S
C660 N663 1.314 . S
C660 H666 0.930 . S
C661 N663 1.279 . S
C661 C664 1.358 . S
C661 H667 0.930 . S
C662 C660 1.353 . S
C662 C665 1.348 . S
C662 H700 0.929 . S
N663 Li618 1.990 . S
N663 C660 1.314 . S
N663 C661 1.279 . S
C664 C661 1.358 . S
C664 C665 1.356 . S
C664 H701 0.930 . S
C665 C662 1.348 . S
C665 C664 1.356 . S
H666 C660 0.930 . S
H667 C661 0.930 . S
C668 N669 1.314 . S
C668 C670 1.353 . S
C668 H674 0.930 . S
N669 Li619 1.990 . S
N669 C668 1.314 . S
N669 C672 1.279 . S
C670 C668 1.353 . S
C670 C673 1.348 . S
C670 H702 0.929 . S
C671 C672 1.358 . S
C671 C673 1.356 . S
C671 H703 0.930 . S
C672 N669 1.279 . S
C672 C671 1.358 . S
C672 H675 0.930 . S
C673 C670 1.348 . S
C673 C671 1.356 . S
H674 C668 0.930 . S
H675 C672 0.930 . S
O676 Li616 1.956 . S
O676 Li617 1.970 . S
O676 Li618 1.961 . S
O676 C620 1.325 . S
O677 Li616 1.970 . S
O677 Li617 1.956 . S
O677 Li619 1.961 . S
O677 C626 1.325 . S
O678 Li616 1.961 . S
O678 Li618 1.956 . S
O678 Li619 1.970 . S
O678 C648 1.325 . S
O679 Li617 1.961 . S
O679 Li618 1.970 . S
O679 Li619 1.956 . S
O679 C654 1.325 . S
H680 C622 0.929 . S
H681 C623 0.930 . S
H682 C624 0.930 . S
H683 C625 0.930 . S
H684 C627 0.930 . S
H685 C629 0.929 . S
H686 C630 0.930 . S
H687 C631 0.930 . S
H688 C634 0.930 . S
H689 C637 0.929 . S
H690 C642 0.929 . S
H691 C643 0.930 . S
H692 C650 0.929 . S
H693 C651 0.930 . S
H694 C652 0.930 . S
H695 C653 0.930 . S
H696 C655 0.929 . S
H697 C656 0.930 . S
H698 C657 0.930 . S
H699 C658 0.930 . S
H700 C662 0.929 . S
H701 C664 0.930 . S
H702 C670 0.929 . S
H703 C671 0.930 . S
Li704 N721 1.990 . S
Li704 O764 1.956 . S
Li704 O765 1.970 . S
Li704 O766 1.961 . S
Li705 N729 1.990 . S
Li705 O764 1.970 . S
Li705 O765 1.956 . S
Li705 O767 1.961 . S
Li706 N751 1.990 . S
Li706 O764 1.961 . S
Li706 O766 1.956 . S
Li706 O767 1.970 . S
Li707 N757 1.990 . S
Li707 O765 1.961 . S
Li707 O766 1.970 . S
Li707 O767 1.956 . S
C708 C710 1.348 . S
C708 C711 1.356 . S
C708 O764 1.325 . S
N709 C712 1.314 . S
N709 C713 1.279 . S
C710 C708 1.348 . S
C710 C712 1.353 . S
C710 H768 0.929 . S
C711 C708 1.356 . S
C711 C713 1.358 . S
C711 H769 0.930 . S
C712 N709 1.314 . S
C712 C710 1.353 . S
C712 H770 0.930 . S
C713 N709 1.279 . S
C713 C711 1.358 . S
C713 H771 0.930 . S
C714 C717 1.348 . S
C714 C718 1.356 . S
C714 O765 1.325 . S
C715 N716 1.279 . S
C715 C718 1.358 . S
C715 H772 0.930 . S
N716 C715 1.279 . S
N716 C719 1.314 . S
C717 C714 1.348 . S
C717 C719 1.353 . S
C717 H773 0.929 . S
C718 C714 1.356 . S
C718 C715 1.358 . S
C718 H774 0.930 . S
C719 N716 1.314 . S
C719 C717 1.353 . S
C719 H775 0.930 . S
C720 N721 1.314 . S
C720 C725 1.353 . S
C720 H726 0.930 . S
N721 Li704 1.990 . S
N721 C720 1.314 . S
N721 C723 1.279 . S
C722 C723 1.358 . S
C722 C724 1.356 . S
C722 H776 0.930 . S
C723 N721 1.279 . S
C723 C722 1.358 . S
C723 H727 0.930 . S
C724 C722 1.356 . S
C724 C725 1.348 . S
C725 C720 1.353 . S
C725 C724 1.348 . S
C725 H777 0.929 . S
H726 C720 0.930 . S
H727 C723 0.930 . S
C728 N729 1.314 . S
C728 C730 1.353 . S
C728 H734 0.930 . S
N729 Li705 1.990 . S
N729 C728 1.314 . S
N729 C732 1.279 . S
C730 C728 1.353 . S
C730 C733 1.348 . S
C730 H778 0.929 . S
C731 C732 1.358 . S
C731 C733 1.356 . S
C731 H779 0.930 . S
C732 N729 1.279 . S
C732 C731 1.358 . S
C732 H735 0.930 . S
C733 C730 1.348 . S
C733 C731 1.356 . S
H734 C728 0.930 . S
H735 C732 0.930 . S
C736 C738 1.348 . S
C736 C739 1.356 . S
C736 O766 1.325 . S
N737 C740 1.314 . S
N737 C741 1.279 . S
C738 C736 1.348 . S
C738 C740 1.353 . S
C738 H780 0.929 . S
C739 C736 1.356 . S
C739 C741 1.358 . S
C739 H781 0.930 . S
C740 N737 1.314 . S
C740 C738 1.353 . S
C740 H782 0.930 . S
C741 N737 1.279 . S
C741 C739 1.358 . S
C741 H783 0.930 . S
C742 C743 1.348 . S
C742 C744 1.356 . S
C742 O767 1.325 . S
C743 C742 1.348 . S
C743 C745 1.353 . S
C743 H784 0.929 . S
C744 C742 1.356 . S
C744 C746 1.358 . S
C744 H785 0.930 . S
C745 C743 1.353 . S
C745 N747 1.314 . S
C745 H786 0.930 . S
C746 C744 1.358 . S
C746 N747 1.279 . S
C746 H787 0.930 . S
N747 C745 1.314 . S
N747 C746 1.279 . S
C748 C750 1.353 . S
C748 N751 1.314 . S
C748 H754 0.930 . S
C749 N751 1.279 . S
C749 C752 1.358 . S
C749 H755 0.930 . S
C750 C748 1.353 . S
C750 C753 1.348 . S
C750 H788 0.929 . S
N751 Li706 1.990 . S
N751 C748 1.314 . S
N751 C749 1.279 . S
C752 C749 1.358 . S
C752 C753 1.356 . S
C752 H789 0.930 . S
C753 C750 1.348 . S
C753 C752 1.356 . S
H754 C748 0.930 . S
H755 C749 0.930 . S
C756 N757 1.314 . S
C756 C758 1.353 . S
C756 H762 0.930 . S
N757 Li707 1.990 . S
N757 C756 1.314 . S
N757 C760 1.279 . S
C758 C756 1.353 . S
C758 C761 1.348 . S
C758 H790 0.929 . S
C759 C760 1.358 . S
C759 C761 1.356 . S
C759 H791 0.930 . S
C760 N757 1.279 . S
C760 C759 1.358 . S
C760 H763 0.930 . S
C761 C758 1.348 . S
C761 C759 1.356 . S
H762 C756 0.930 . S
H763 C760 0.930 . S
O764 Li704 1.956 . S
O764 Li705 1.970 . S
O764 Li706 1.961 . S
O764 C708 1.325 . S
O765 Li704 1.970 . S
O765 Li705 1.956 . S
O765 Li707 1.961 . S
O765 C714 1.325 . S
O766 Li704 1.961 . S
O766 Li706 1.956 . S
O766 Li707 1.970 . S
O766 C736 1.325 . S
O767 Li705 1.961 . S
O767 Li706 1.970 . S
O767 Li707 1.956 . S
O767 C742 1.325 . S
H768 C710 0.929 . S
H769 C711 0.930 . S
H770 C712 0.930 . S
H771 C713 0.930 . S
H772 C715 0.930 . S
H773 C717 0.929 . S
H774 C718 0.930 . S
H775 C719 0.930 . S
H776 C722 0.930 . S
H777 C725 0.929 . S
H778 C730 0.929 . S
H779 C731 0.930 . S
H780 C738 0.929 . S
H781 C739 0.930 . S
H782 C740 0.930 . S
H783 C741 0.930 . S
H784 C743 0.929 . S
H785 C744 0.930 . S
H786 C745 0.930 . S
H787 C746 0.930 . S
H788 C750 0.929 . S
H789 C752 0.930 . S
H790 C758 0.929 . S
H791 C759 0.930 . S
Li792 N809 1.990 . S
Li792 O852 1.956 . S
Li792 O853 1.970 . S
Li792 O854 1.961 . S
Li793 N817 1.990 . S
Li793 O852 1.970 . S
Li793 O853 1.956 . S
Li793 O855 1.961 . S
Li794 N839 1.990 . S
Li794 O852 1.961 . S
Li794 O854 1.956 . S
Li794 O855 1.970 . S
Li795 N845 1.990 . S
Li795 O853 1.961 . S
Li795 O854 1.970 . S
Li795 O855 1.956 . S
C796 C798 1.348 . S
C796 C799 1.356 . S
C796 O852 1.325 . S
N797 C800 1.314 . S
N797 C801 1.279 . S
C798 C796 1.348 . S
C798 C800 1.353 . S
C798 H856 0.929 . S
C799 C796 1.356 . S
C799 C801 1.358 . S
C799 H857 0.930 . S
C800 N797 1.314 . S
C800 C798 1.353 . S
C800 H858 0.930 . S
C801 N797 1.279 . S
C801 C799 1.358 . S
C801 H859 0.930 . S
C802 C805 1.348 . S
C802 C806 1.356 . S
C802 O853 1.325 . S
C803 N804 1.279 . S
C803 C806 1.358 . S
C803 H860 0.930 . S
N804 C803 1.279 . S
N804 C807 1.314 . S
C805 C802 1.348 . S
C805 C807 1.353 . S
C805 H861 0.929 . S
C806 C802 1.356 . S
C806 C803 1.358 . S
C806 H862 0.930 . S
C807 N804 1.314 . S
C807 C805 1.353 . S
C807 H863 0.930 . S
C808 N809 1.314 . S
C808 C813 1.353 . S
C808 H814 0.930 . S
N809 Li792 1.990 . S
N809 C808 1.314 . S
N809 C811 1.279 . S
C810 C811 1.358 . S
C810 C812 1.356 . S
C810 H864 0.930 . S
C811 N809 1.279 . S
C811 C810 1.358 . S
C811 H815 0.930 . S
C812 C810 1.356 . S
C812 C813 1.348 . S
C813 C808 1.353 . S
C813 C812 1.348 . S
C813 H865 0.929 . S
H814 C808 0.930 . S
H815 C811 0.930 . S
C816 N817 1.314 . S
C816 C818 1.353 . S
C816 H822 0.930 . S
N817 Li793 1.990 . S
N817 C816 1.314 . S
N817 C820 1.279 . S
C818 C816 1.353 . S
C818 C821 1.348 . S
C818 H866 0.929 . S
C819 C820 1.358 . S
C819 C821 1.356 . S
C819 H867 0.930 . S
C820 N817 1.279 . S
C820 C819 1.358 . S
C820 H823 0.930 . S
C821 C818 1.348 . S
C821 C819 1.356 . S
H822 C816 0.930 . S
H823 C820 0.930 . S
C824 C826 1.348 . S
C824 C827 1.356 . S
C824 O854 1.325 . S
N825 C828 1.314 . S
N825 C829 1.279 . S
C826 C824 1.348 . S
C826 C828 1.353 . S
C826 H868 0.929 . S
C827 C824 1.356 . S
C827 C829 1.358 . S
C827 H869 0.930 . S
C828 N825 1.314 . S
C828 C826 1.353 . S
C828 H870 0.930 . S
C829 N825 1.279 . S
C829 C827 1.358 . S
C829 H871 0.930 . S
C830 C831 1.348 . S
C830 C832 1.356 . S
C830 O855 1.325 . S
C831 C830 1.348 . S
C831 C833 1.353 . S
C831 H872 0.929 . S
C832 C830 1.356 . S
C832 C834 1.358 . S
C832 H873 0.930 . S
C833 C831 1.353 . S
C833 N835 1.314 . S
C833 H874 0.930 . S
C834 C832 1.358 . S
C834 N835 1.279 . S
C834 H875 0.930 . S
N835 C833 1.314 . S
N835 C834 1.279 . S
C836 C838 1.353 . S
C836 N839 1.314 . S
C836 H842 0.930 . S
C837 N839 1.279 . S
C837 C840 1.358 . S
C837 H843 0.930 . S
C838 C836 1.353 . S
C838 C841 1.348 . S
C838 H876 0.929 . S
N839 Li794 1.990 . S
N839 C836 1.314 . S
N839 C837 1.279 . S
C840 C837 1.358 . S
C840 C841 1.356 . S
C840 H877 0.930 . S
C841 C838 1.348 . S
C841 C840 1.356 . S
H842 C836 0.930 . S
H843 C837 0.930 . S
C844 N845 1.314 . S
C844 C846 1.353 . S
C844 H850 0.930 . S
N845 Li795 1.990 . S
N845 C844 1.314 . S
N845 C848 1.279 . S
C846 C844 1.353 . S
C846 C849 1.348 . S
C846 H878 0.929 . S
C847 C848 1.358 . S
C847 C849 1.356 . S
C847 H879 0.930 . S
C848 N845 1.279 . S
C848 C847 1.358 . S
C848 H851 0.930 . S
C849 C846 1.348 . S
C849 C847 1.356 . S
H850 C844 0.930 . S
H851 C848 0.930 . S
O852 Li792 1.956 . S
O852 Li793 1.970 . S
O852 Li794 1.961 . S
O852 C796 1.325 . S
O853 Li792 1.970 . S
O853 Li793 1.956 . S
O853 Li795 1.961 . S
O853 C802 1.325 . S
O854 Li792 1.961 . S
O854 Li794 1.956 . S
O854 Li795 1.970 . S
O854 C824 1.325 . S
O855 Li793 1.961 . S
O855 Li794 1.970 . S
O855 Li795 1.956 . S
O855 C830 1.325 . S
H856 C798 0.929 . S
H857 C799 0.930 . S
H858 C800 0.930 . S
H859 C801 0.930 . S
H860 C803 0.930 . S
H861 C805 0.929 . S
H862 C806 0.930 . S
H863 C807 0.930 . S
H864 C810 0.930 . S
H865 C813 0.929 . S
H866 C818 0.929 . S
H867 C819 0.930 . S
H868 C826 0.929 . S
H869 C827 0.930 . S
H870 C828 0.930 . S
H871 C829 0.930 . S
H872 C831 0.929 . S
H873 C832 0.930 . S
H874 C833 0.930 . S
H875 C834 0.930 . S
H876 C838 0.929 . S
H877 C840 0.930 . S
H878 C846 0.929 . S
H879 C847 0.930 . S
Li880 N897 1.990 . S
Li880 O940 1.956 . S
Li880 O941 1.970 . S
Li880 O942 1.961 . S
Li881 N905 1.990 . S
Li881 O940 1.970 . S
Li881 O941 1.956 . S
Li881 O943 1.961 . S
Li882 N927 1.990 . S
Li882 O940 1.961 . S
Li882 O942 1.956 . S
Li882 O943 1.970 . S
Li883 N933 1.990 . S
Li883 O941 1.961 . S
Li883 O942 1.970 . S
Li883 O943 1.956 . S
C884 C886 1.348 . S
C884 C887 1.356 . S
C884 O940 1.325 . S
N885 C888 1.314 . S
N885 C889 1.279 . S
C886 C884 1.348 . S
C886 C888 1.353 . S
C886 H944 0.929 . S
C887 C884 1.356 . S
C887 C889 1.358 . S
C887 H945 0.930 . S
C888 N885 1.314 . S
C888 C886 1.353 . S
C888 H946 0.930 . S
C889 N885 1.279 . S
C889 C887 1.358 . S
C889 H947 0.930 . S
C890 C893 1.348 . S
C890 C894 1.356 . S
C890 O941 1.325 . S
C891 N892 1.279 . S
C891 C894 1.358 . S
C891 H948 0.930 . S
N892 C891 1.279 . S
N892 C895 1.314 . S
C893 C890 1.348 . S
C893 C895 1.353 . S
C893 H949 0.929 . S
C894 C890 1.356 . S
C894 C891 1.358 . S
C894 H950 0.930 . S
C895 N892 1.314 . S
C895 C893 1.353 . S
C895 H951 0.930 . S
C896 N897 1.314 . S
C896 C901 1.353 . S
C896 H902 0.930 . S
N897 Li880 1.990 . S
N897 C896 1.314 . S
N897 C899 1.279 . S
C898 C899 1.358 . S
C898 C900 1.356 . S
C898 H952 0.930 . S
C899 N897 1.279 . S
C899 C898 1.358 . S
C899 H903 0.930 . S
C900 C898 1.356 . S
C900 C901 1.348 . S
C901 C896 1.353 . S
C901 C900 1.348 . S
C901 H953 0.929 . S
H902 C896 0.930 . S
H903 C899 0.930 . S
C904 N905 1.314 . S
C904 C906 1.353 . S
C904 H910 0.930 . S
N905 Li881 1.990 . S
N905 C904 1.314 . S
N905 C908 1.279 . S
C906 C904 1.353 . S
C906 C909 1.348 . S
C906 H954 0.929 . S
C907 C908 1.358 . S
C907 C909 1.356 . S
C907 H955 0.930 . S
C908 N905 1.279 . S
C908 C907 1.358 . S
C908 H911 0.930 . S
C909 C906 1.348 . S
C909 C907 1.356 . S
H910 C904 0.930 . S
H911 C908 0.930 . S
C912 C914 1.348 . S
C912 C915 1.356 . S
C912 O942 1.325 . S
N913 C916 1.314 . S
N913 C917 1.279 . S
C914 C912 1.348 . S
C914 C916 1.353 . S
C914 H956 0.929 . S
C915 C912 1.356 . S
C915 C917 1.358 . S
C915 H957 0.930 . S
C916 N913 1.314 . S
C916 C914 1.353 . S
C916 H958 0.930 . S
C917 N913 1.279 . S
C917 C915 1.358 . S
C917 H959 0.930 . S
C918 C919 1.348 . S
C918 C920 1.356 . S
C918 O943 1.325 . S
C919 C918 1.348 . S
C919 C921 1.353 . S
C919 H960 0.929 . S
C920 C918 1.356 . S
C920 C922 1.358 . S
C920 H961 0.930 . S
C921 C919 1.353 . S
C921 N923 1.314 . S
C921 H962 0.930 . S
C922 C920 1.358 . S
C922 N923 1.279 . S
C922 H963 0.930 . S
N923 C921 1.314 . S
N923 C922 1.279 . S
C924 C926 1.353 . S
C924 N927 1.314 . S
C924 H930 0.930 . S
C925 N927 1.279 . S
C925 C928 1.358 . S
C925 H931 0.930 . S
C926 C924 1.353 . S
C926 C929 1.348 . S
C926 H964 0.929 . S
N927 Li882 1.990 . S
N927 C924 1.314 . S
N927 C925 1.279 . S
C928 C925 1.358 . S
C928 C929 1.356 . S
C928 H965 0.930 . S
C929 C926 1.348 . S
C929 C928 1.356 . S
H930 C924 0.930 . S
H931 C925 0.930 . S
C932 N933 1.314 . S
C932 C934 1.353 . S
C932 H938 0.930 . S
N933 Li883 1.990 . S
N933 C932 1.314 . S
N933 C936 1.279 . S
C934 C932 1.353 . S
C934 C937 1.348 . S
C934 H966 0.929 . S
C935 C936 1.358 . S
C935 C937 1.356 . S
C935 H967 0.930 . S
C936 N933 1.279 . S
C936 C935 1.358 . S
C936 H939 0.930 . S
C937 C934 1.348 . S
C937 C935 1.356 . S
H938 C932 0.930 . S
H939 C936 0.930 . S
O940 Li880 1.956 . S
O940 Li881 1.970 . S
O940 Li882 1.961 . S
O940 C884 1.325 . S
O941 Li880 1.970 . S
O941 Li881 1.956 . S
O941 Li883 1.961 . S
O941 C890 1.325 . S
O942 Li880 1.961 . S
O942 Li882 1.956 . S
O942 Li883 1.970 . S
O942 C912 1.325 . S
O943 Li881 1.961 . S
O943 Li882 1.970 . S
O943 Li883 1.956 . S
O943 C918 1.325 . S
H944 C886 0.929 . S
H945 C887 0.930 . S
H946 C888 0.930 . S
H947 C889 0.930 . S
H948 C891 0.930 . S
H949 C893 0.929 . S
H950 C894 0.930 . S
H951 C895 0.930 . S
H952 C898 0.930 . S
H953 C901 0.929 . S
H954 C906 0.929 . S
H955 C907 0.930 . S
H956 C914 0.929 . S
H957 C915 0.930 . S
H958 C916 0.930 . S
H959 C917 0.930 . S
H960 C919 0.929 . S
H961 C920 0.930 . S
H962 C921 0.930 . S
H963 C922 0.930 . S
H964 C926 0.929 . S
H965 C928 0.930 . S
H966 C934 0.929 . S
H967 C935 0.930 . S
Li968 N985 1.990 . S
Li968 O1028 1.956 . S
Li968 O1029 1.970 . S
Li968 O1030 1.961 . S
Li969 N993 1.990 . S
Li969 O1028 1.970 . S
Li969 O1029 1.956 . S
Li969 O1031 1.961 . S
Li970 N1015 1.990 . S
Li970 O1028 1.961 . S
Li970 O1030 1.956 . S
Li970 O1031 1.970 . S
Li971 N1021 1.990 . S
Li971 O1029 1.961 . S
Li971 O1030 1.970 . S
Li971 O1031 1.956 . S
C972 C974 1.348 . S
C972 C975 1.356 . S
C972 O1028 1.325 . S
N973 C976 1.314 . S
N973 C977 1.279 . S
C974 C972 1.348 . S
C974 C976 1.353 . S
C974 H1032 0.929 . S
C975 C972 1.356 . S
C975 C977 1.358 . S
C975 H1033 0.930 . S
C976 N973 1.314 . S
C976 C974 1.353 . S
C976 H1034 0.930 . S
C977 N973 1.279 . S
C977 C975 1.358 . S
C977 H1035 0.930 . S
C978 C981 1.348 . S
C978 C982 1.356 . S
C978 O1029 1.325 . S
C979 N980 1.279 . S
C979 C982 1.358 . S
C979 H1036 0.930 . S
N980 C979 1.279 . S
N980 C983 1.314 . S
C981 C978 1.348 . S
C981 C983 1.353 . S
C981 H1037 0.929 . S
C982 C978 1.356 . S
C982 C979 1.358 . S
C982 H1038 0.930 . S
C983 N980 1.314 . S
C983 C981 1.353 . S
C983 H1039 0.930 . S
C984 N985 1.314 . S
C984 C989 1.353 . S
C984 H990 0.930 . S
N985 Li968 1.990 . S
N985 C984 1.314 . S
N985 C987 1.279 . S
C986 C987 1.358 . S
C986 C988 1.356 . S
C986 H1040 0.930 . S
C987 N985 1.279 . S
C987 C986 1.358 . S
C987 H991 0.930 . S
C988 C986 1.356 . S
C988 C989 1.348 . S
C989 C984 1.353 . S
C989 C988 1.348 . S
C989 H1041 0.929 . S
H990 C984 0.930 . S
H991 C987 0.930 . S
C992 N993 1.314 . S
C992 C994 1.353 . S
C992 H998 0.930 . S
N993 Li969 1.990 . S
N993 C992 1.314 . S
N993 C996 1.279 . S
C994 C992 1.353 . S
C994 C997 1.348 . S
C994 H1042 0.929 . S
C995 C996 1.358 . S
C995 C997 1.356 . S
C995 H1043 0.930 . S
C996 N993 1.279 . S
C996 C995 1.358 . S
C996 H999 0.930 . S
C997 C994 1.348 . S
C997 C995 1.356 . S
H998 C992 0.930 . S
H999 C996 0.930 . S
C1000 C1002 1.348 . S
C1000 C1003 1.356 . S
C1000 O1030 1.325 . S
N1001 C1004 1.314 . S
N1001 C1005 1.279 . S
C1002 C1000 1.348 . S
C1002 C1004 1.353 . S
C1002 H1044 0.929 . S
C1003 C1000 1.356 . S
C1003 C1005 1.358 . S
C1003 H1045 0.930 . S
C1004 N1001 1.314 . S
C1004 C1002 1.353 . S
C1004 H1046 0.930 . S
C1005 N1001 1.279 . S
C1005 C1003 1.358 . S
C1005 H1047 0.930 . S
C1006 C1007 1.348 . S
C1006 C1008 1.356 . S
C1006 O1031 1.325 . S
C1007 C1006 1.348 . S
C1007 C1009 1.353 . S
C1007 H1048 0.929 . S
C1008 C1006 1.356 . S
C1008 C1010 1.358 . S
C1008 H1049 0.930 . S
C1009 C1007 1.353 . S
C1009 N1011 1.314 . S
C1009 H1050 0.930 . S
C1010 C1008 1.358 . S
C1010 N1011 1.279 . S
C1010 H1051 0.930 . S
N1011 C1009 1.314 . S
N1011 C1010 1.279 . S
C1012 C1014 1.353 . S
C1012 N1015 1.314 . S
C1012 H1018 0.930 . S
C1013 N1015 1.279 . S
C1013 C1016 1.358 . S
C1013 H1019 0.930 . S
C1014 C1012 1.353 . S
C1014 C1017 1.348 . S
C1014 H1052 0.929 . S
N1015 Li970 1.990 . S
N1015 C1012 1.314 . S
N1015 C1013 1.279 . S
C1016 C1013 1.358 . S
C1016 C1017 1.356 . S
C1016 H1053 0.930 . S
C1017 C1014 1.348 . S
C1017 C1016 1.356 . S
H1018 C1012 0.930 . S
H1019 C1013 0.930 . S
C1020 N1021 1.314 . S
C1020 C1022 1.353 . S
C1020 H1026 0.930 . S
N1021 Li971 1.990 . S
N1021 C1020 1.314 . S
N1021 C1024 1.279 . S
C1022 C1020 1.353 . S
C1022 C1025 1.348 . S
C1022 H1054 0.929 . S
C1023 C1024 1.358 . S
C1023 C1025 1.356 . S
C1023 H1055 0.930 . S
C1024 N1021 1.279 . S
C1024 C1023 1.358 . S
C1024 H1027 0.930 . S
C1025 C1022 1.348 . S
C1025 C1023 1.356 . S
H1026 C1020 0.930 . S
H1027 C1024 0.930 . S
O1028 Li968 1.956 . S
O1028 Li969 1.970 . S
O1028 Li970 1.961 . S
O1028 C972 1.325 . S
O1029 Li968 1.970 . S
O1029 Li969 1.956 . S
O1029 Li971 1.961 . S
O1029 C978 1.325 . S
O1030 Li968 1.961 . S
O1030 Li970 1.956 . S
O1030 Li971 1.970 . S
O1030 C1000 1.325 . S
O1031 Li969 1.961 . S
O1031 Li970 1.970 . S
O1031 Li971 1.956 . S
O1031 C1006 1.325 . S
H1032 C974 0.929 . S
H1033 C975 0.930 . S
H1034 C976 0.930 . S
H1035 C977 0.930 . S
H1036 C979 0.930 . S
H1037 C981 0.929 . S
H1038 C982 0.930 . S
H1039 C983 0.930 . S
H1040 C986 0.930 . S
H1041 C989 0.929 . S
H1042 C994 0.929 . S
H1043 C995 0.930 . S
H1044 C1002 0.929 . S
H1045 C1003 0.930 . S
H1046 C1004 0.930 . S
H1047 C1005 0.930 . S
H1048 C1007 0.929 . S
H1049 C1008 0.930 . S
H1050 C1009 0.930 . S
H1051 C1010 0.930 . S
H1052 C1014 0.929 . S
H1053 C1016 0.930 . S
H1054 C1022 0.929 . S
H1055 C1023 0.930 . S
Li1056 N1073 1.990 . S
Li1056 O1116 1.956 . S
Li1056 O1117 1.970 . S
Li1056 O1118 1.961 . S
Li1057 N1081 1.990 . S
Li1057 O1116 1.970 . S
Li1057 O1117 1.956 . S
Li1057 O1119 1.961 . S
Li1058 N1103 1.990 . S
Li1058 O1116 1.961 . S
Li1058 O1118 1.956 . S
Li1058 O1119 1.970 . S
Li1059 N1109 1.990 . S
Li1059 O1117 1.961 . S
Li1059 O1118 1.970 . S
Li1059 O1119 1.956 . S
C1060 C1062 1.348 . S
C1060 C1063 1.356 . S
C1060 O1116 1.325 . S
N1061 C1064 1.314 . S
N1061 C1065 1.279 . S
C1062 C1060 1.348 . S
C1062 C1064 1.353 . S
C1062 H1120 0.929 . S
C1063 C1060 1.356 . S
C1063 C1065 1.358 . S
C1063 H1121 0.930 . S
C1064 N1061 1.314 . S
C1064 C1062 1.353 . S
C1064 H1122 0.930 . S
C1065 N1061 1.279 . S
C1065 C1063 1.358 . S
C1065 H1123 0.930 . S
C1066 C1069 1.348 . S
C1066 C1070 1.356 . S
C1066 O1117 1.325 . S
C1067 N1068 1.279 . S
C1067 C1070 1.358 . S
C1067 H1124 0.930 . S
N1068 C1067 1.279 . S
N1068 C1071 1.314 . S
C1069 C1066 1.348 . S
C1069 C1071 1.353 . S
C1069 H1125 0.929 . S
C1070 C1066 1.356 . S
C1070 C1067 1.358 . S
C1070 H1126 0.930 . S
C1071 N1068 1.314 . S
C1071 C1069 1.353 . S
C1071 H1127 0.930 . S
C1072 N1073 1.314 . S
C1072 C1077 1.353 . S
C1072 H1078 0.930 . S
N1073 Li1056 1.990 . S
N1073 C1072 1.314 . S
N1073 C1075 1.279 . S
C1074 C1075 1.358 . S
C1074 C1076 1.356 . S
C1074 H1128 0.930 . S
C1075 N1073 1.279 . S
C1075 C1074 1.358 . S
C1075 H1079 0.930 . S
C1076 C1074 1.356 . S
C1076 C1077 1.348 . S
C1077 C1072 1.353 . S
C1077 C1076 1.348 . S
C1077 H1129 0.929 . S
H1078 C1072 0.930 . S
H1079 C1075 0.930 . S
C1080 N1081 1.314 . S
C1080 C1082 1.353 . S
C1080 H1086 0.930 . S
N1081 Li1057 1.990 . S
N1081 C1080 1.314 . S
N1081 C1084 1.279 . S
C1082 C1080 1.353 . S
C1082 C1085 1.348 . S
C1082 H1130 0.929 . S
C1083 C1084 1.358 . S
C1083 C1085 1.356 . S
C1083 H1131 0.930 . S
C1084 N1081 1.279 . S
C1084 C1083 1.358 . S
C1084 H1087 0.930 . S
C1085 C1082 1.348 . S
C1085 C1083 1.356 . S
H1086 C1080 0.930 . S
H1087 C1084 0.930 . S
C1088 C1090 1.348 . S
C1088 C1091 1.356 . S
C1088 O1118 1.325 . S
N1089 C1092 1.314 . S
N1089 C1093 1.279 . S
C1090 C1088 1.348 . S
C1090 C1092 1.353 . S
C1090 H1132 0.929 . S
C1091 C1088 1.356 . S
C1091 C1093 1.358 . S
C1091 H1133 0.930 . S
C1092 N1089 1.314 . S
C1092 C1090 1.353 . S
C1092 H1134 0.930 . S
C1093 N1089 1.279 . S
C1093 C1091 1.358 . S
C1093 H1135 0.930 . S
C1094 C1095 1.348 . S
C1094 C1096 1.356 . S
C1094 O1119 1.325 . S
C1095 C1094 1.348 . S
C1095 C1097 1.353 . S
C1095 H1136 0.929 . S
C1096 C1094 1.356 . S
C1096 C1098 1.358 . S
C1096 H1137 0.930 . S
C1097 C1095 1.353 . S
C1097 N1099 1.314 . S
C1097 H1138 0.930 . S
C1098 C1096 1.358 . S
C1098 N1099 1.279 . S
C1098 H1139 0.930 . S
N1099 C1097 1.314 . S
N1099 C1098 1.279 . S
C1100 C1102 1.353 . S
C1100 N1103 1.314 . S
C1100 H1106 0.930 . S
C1101 N1103 1.279 . S
C1101 C1104 1.358 . S
C1101 H1107 0.930 . S
C1102 C1100 1.353 . S
C1102 C1105 1.348 . S
C1102 H1140 0.929 . S
N1103 Li1058 1.990 . S
N1103 C1100 1.314 . S
N1103 C1101 1.279 . S
C1104 C1101 1.358 . S
C1104 C1105 1.356 . S
C1104 H1141 0.930 . S
C1105 C1102 1.348 . S
C1105 C1104 1.356 . S
H1106 C1100 0.930 . S
H1107 C1101 0.930 . S
C1108 N1109 1.314 . S
C1108 C1110 1.353 . S
C1108 H1114 0.930 . S
N1109 Li1059 1.990 . S
N1109 C1108 1.314 . S
N1109 C1112 1.279 . S
C1110 C1108 1.353 . S
C1110 C1113 1.348 . S
C1110 H1142 0.929 . S
C1111 C1112 1.358 . S
C1111 C1113 1.356 . S
C1111 H1143 0.930 . S
C1112 N1109 1.279 . S
C1112 C1111 1.358 . S
C1112 H1115 0.930 . S
C1113 C1110 1.348 . S
C1113 C1111 1.356 . S
H1114 C1108 0.930 . S
H1115 C1112 0.930 . S
O1116 Li1056 1.956 . S
O1116 Li1057 1.970 . S
O1116 Li1058 1.961 . S
O1116 C1060 1.325 . S
O1117 Li1056 1.970 . S
O1117 Li1057 1.956 . S
O1117 Li1059 1.961 . S
O1117 C1066 1.325 . S
O1118 Li1056 1.961 . S
O1118 Li1058 1.956 . S
O1118 Li1059 1.970 . S
O1118 C1088 1.325 . S
O1119 Li1057 1.961 . S
O1119 Li1058 1.970 . S
O1119 Li1059 1.956 . S
O1119 C1094 1.325 . S
H1120 C1062 0.929 . S
H1121 C1063 0.930 . S
H1122 C1064 0.930 . S
H1123 C1065 0.930 . S
H1124 C1067 0.930 . S
H1125 C1069 0.929 . S
H1126 C1070 0.930 . S
H1127 C1071 0.930 . S
H1128 C1074 0.930 . S
H1129 C1077 0.929 . S
H1130 C1082 0.929 . S
H1131 C1083 0.930 . S
H1132 C1090 0.929 . S
H1133 C1091 0.930 . S
H1134 C1092 0.930 . S
H1135 C1093 0.930 . S
H1136 C1095 0.929 . S
H1137 C1096 0.930 . S
H1138 C1097 0.930 . S
H1139 C1098 0.930 . S
H1140 C1102 0.929 . S
H1141 C1104 0.930 . S
H1142 C1110 0.929 . S
H1143 C1111 0.930 . S
Li1144 N1161 1.990 . S
Li1144 O1204 1.956 . S
Li1144 O1205 1.970 . S
Li1144 O1206 1.961 . S
Li1145 N1169 1.990 . S
Li1145 O1204 1.970 . S
Li1145 O1205 1.956 . S
Li1145 O1207 1.961 . S
Li1146 N1191 1.990 . S
Li1146 O1204 1.961 . S
Li1146 O1206 1.956 . S
Li1146 O1207 1.970 . S
Li1147 N1197 1.990 . S
Li1147 O1205 1.961 . S
Li1147 O1206 1.970 . S
Li1147 O1207 1.956 . S
C1148 C1150 1.348 . S
C1148 C1151 1.356 . S
C1148 O1204 1.325 . S
N1149 C1152 1.314 . S
N1149 C1153 1.279 . S
C1150 C1148 1.348 . S
C1150 C1152 1.353 . S
C1150 H1208 0.929 . S
C1151 C1148 1.356 . S
C1151 C1153 1.358 . S
C1151 H1209 0.930 . S
C1152 N1149 1.314 . S
C1152 C1150 1.353 . S
C1152 H1210 0.930 . S
C1153 N1149 1.279 . S
C1153 C1151 1.358 . S
C1153 H1211 0.930 . S
C1154 C1157 1.348 . S
C1154 C1158 1.356 . S
C1154 O1205 1.325 . S
C1155 N1156 1.279 . S
C1155 C1158 1.358 . S
C1155 H1212 0.930 . S
N1156 C1155 1.279 . S
N1156 C1159 1.314 . S
C1157 C1154 1.348 . S
C1157 C1159 1.353 . S
C1157 H1213 0.929 . S
C1158 C1154 1.356 . S
C1158 C1155 1.358 . S
C1158 H1214 0.930 . S
C1159 N1156 1.314 . S
C1159 C1157 1.353 . S
C1159 H1215 0.930 . S
C1160 N1161 1.314 . S
C1160 C1165 1.353 . S
C1160 H1166 0.930 . S
N1161 Li1144 1.990 . S
N1161 C1160 1.314 . S
N1161 C1163 1.279 . S
C1162 C1163 1.358 . S
C1162 C1164 1.356 . S
C1162 H1216 0.930 . S
C1163 N1161 1.279 . S
C1163 C1162 1.358 . S
C1163 H1167 0.930 . S
C1164 C1162 1.356 . S
C1164 C1165 1.348 . S
C1165 C1160 1.353 . S
C1165 C1164 1.348 . S
C1165 H1217 0.929 . S
H1166 C1160 0.930 . S
H1167 C1163 0.930 . S
C1168 N1169 1.314 . S
C1168 C1170 1.353 . S
C1168 H1174 0.930 . S
N1169 Li1145 1.990 . S
N1169 C1168 1.314 . S
N1169 C1172 1.279 . S
C1170 C1168 1.353 . S
C1170 C1173 1.348 . S
C1170 H1218 0.929 . S
C1171 C1172 1.358 . S
C1171 C1173 1.356 . S
C1171 H1219 0.930 . S
C1172 N1169 1.279 . S
C1172 C1171 1.358 . S
C1172 H1175 0.930 . S
C1173 C1170 1.348 . S
C1173 C1171 1.356 . S
H1174 C1168 0.930 . S
H1175 C1172 0.930 . S
C1176 C1178 1.348 . S
C1176 C1179 1.356 . S
C1176 O1206 1.325 . S
N1177 C1180 1.314 . S
N1177 C1181 1.279 . S
C1178 C1176 1.348 . S
C1178 C1180 1.353 . S
C1178 H1220 0.929 . S
C1179 C1176 1.356 . S
C1179 C1181 1.358 . S
C1179 H1221 0.930 . S
C1180 N1177 1.314 . S
C1180 C1178 1.353 . S
C1180 H1222 0.930 . S
C1181 N1177 1.279 . S
C1181 C1179 1.358 . S
C1181 H1223 0.930 . S
C1182 C1183 1.348 . S
C1182 C1184 1.356 . S
C1182 O1207 1.325 . S
C1183 C1182 1.348 . S
C1183 C1185 1.353 . S
C1183 H1224 0.929 . S
C1184 C1182 1.356 . S
C1184 C1186 1.358 . S
C1184 H1225 0.930 . S
C1185 C1183 1.353 . S
C1185 N1187 1.314 . S
C1185 H1226 0.930 . S
C1186 C1184 1.358 . S
C1186 N1187 1.279 . S
C1186 H1227 0.930 . S
N1187 C1185 1.314 . S
N1187 C1186 1.279 . S
C1188 C1190 1.353 . S
C1188 N1191 1.314 . S
C1188 H1194 0.930 . S
C1189 N1191 1.279 . S
C1189 C1192 1.358 . S
C1189 H1195 0.930 . S
C1190 C1188 1.353 . S
C1190 C1193 1.348 . S
C1190 H1228 0.929 . S
N1191 Li1146 1.990 . S
N1191 C1188 1.314 . S
N1191 C1189 1.279 . S
C1192 C1189 1.358 . S
C1192 C1193 1.356 . S
C1192 H1229 0.930 . S
C1193 C1190 1.348 . S
C1193 C1192 1.356 . S
H1194 C1188 0.930 . S
H1195 C1189 0.930 . S
C1196 N1197 1.314 . S
C1196 C1198 1.353 . S
C1196 H1202 0.930 . S
N1197 Li1147 1.990 . S
N1197 C1196 1.314 . S
N1197 C1200 1.279 . S
C1198 C1196 1.353 . S
C1198 C1201 1.348 . S
C1198 H1230 0.929 . S
C1199 C1200 1.358 . S
C1199 C1201 1.356 . S
C1199 H1231 0.930 . S
C1200 N1197 1.279 . S
C1200 C1199 1.358 . S
C1200 H1203 0.930 . S
C1201 C1198 1.348 . S
C1201 C1199 1.356 . S
H1202 C1196 0.930 . S
H1203 C1200 0.930 . S
O1204 Li1144 1.956 . S
O1204 Li1145 1.970 . S
O1204 Li1146 1.961 . S
O1204 C1148 1.325 . S
O1205 Li1144 1.970 . S
O1205 Li1145 1.956 . S
O1205 Li1147 1.961 . S
O1205 C1154 1.325 . S
O1206 Li1144 1.961 . S
O1206 Li1146 1.956 . S
O1206 Li1147 1.970 . S
O1206 C1176 1.325 . S
O1207 Li1145 1.961 . S
O1207 Li1146 1.970 . S
O1207 Li1147 1.956 . S
O1207 C1182 1.325 . S
H1208 C1150 0.929 . S
H1209 C1151 0.930 . S
H1210 C1152 0.930 . S
H1211 C1153 0.930 . S
H1212 C1155 0.930 . S
H1213 C1157 0.929 . S
H1214 C1158 0.930 . S
H1215 C1159 0.930 . S
H1216 C1162 0.930 . S
H1217 C1165 0.929 . S
H1218 C1170 0.929 . S
H1219 C1171 0.930 . S
H1220 C1178 0.929 . S
H1221 C1179 0.930 . S
H1222 C1180 0.930 . S
H1223 C1181 0.930 . S
H1224 C1183 0.929 . S
H1225 C1184 0.930 . S
H1226 C1185 0.930 . S
H1227 C1186 0.930 . S
H1228 C1190 0.929 . S
H1229 C1192 0.930 . S
H1230 C1198 0.929 . S
H1231 C1199 0.930 . S
Li1232 N1249 1.990 . S
Li1232 O1292 1.956 . S
Li1232 O1293 1.970 . S
Li1232 O1294 1.961 . S
Li1233 N1257 1.990 . S
Li1233 O1292 1.970 . S
Li1233 O1293 1.956 . S
Li1233 O1295 1.961 . S
Li1234 N1279 1.990 . S
Li1234 O1292 1.961 . S
Li1234 O1294 1.956 . S
Li1234 O1295 1.970 . S
Li1235 N1285 1.990 . S
Li1235 O1293 1.961 . S
Li1235 O1294 1.970 . S
Li1235 O1295 1.956 . S
C1236 C1238 1.348 . S
C1236 C1239 1.356 . S
C1236 O1292 1.325 . S
N1237 C1240 1.314 . S
N1237 C1241 1.279 . S
C1238 C1236 1.348 . S
C1238 C1240 1.353 . S
C1238 H1296 0.929 . S
C1239 C1236 1.356 . S
C1239 C1241 1.358 . S
C1239 H1297 0.930 . S
C1240 N1237 1.314 . S
C1240 C1238 1.353 . S
C1240 H1298 0.930 . S
C1241 N1237 1.279 . S
C1241 C1239 1.358 . S
C1241 H1299 0.930 . S
C1242 C1245 1.348 . S
C1242 C1246 1.356 . S
C1242 O1293 1.325 . S
C1243 N1244 1.279 . S
C1243 C1246 1.358 . S
C1243 H1300 0.930 . S
N1244 C1243 1.279 . S
N1244 C1247 1.314 . S
C1245 C1242 1.348 . S
C1245 C1247 1.353 . S
C1245 H1301 0.929 . S
C1246 C1242 1.356 . S
C1246 C1243 1.358 . S
C1246 H1302 0.930 . S
C1247 N1244 1.314 . S
C1247 C1245 1.353 . S
C1247 H1303 0.930 . S
C1248 N1249 1.314 . S
C1248 C1253 1.353 . S
C1248 H1254 0.930 . S
N1249 Li1232 1.990 . S
N1249 C1248 1.314 . S
N1249 C1251 1.279 . S
C1250 C1251 1.358 . S
C1250 C1252 1.356 . S
C1250 H1304 0.930 . S
C1251 N1249 1.279 . S
C1251 C1250 1.358 . S
C1251 H1255 0.930 . S
C1252 C1250 1.356 . S
C1252 C1253 1.348 . S
C1253 C1248 1.353 . S
C1253 C1252 1.348 . S
C1253 H1305 0.929 . S
H1254 C1248 0.930 . S
H1255 C1251 0.930 . S
C1256 N1257 1.314 . S
C1256 C1258 1.353 . S
C1256 H1262 0.930 . S
N1257 Li1233 1.990 . S
N1257 C1256 1.314 . S
N1257 C1260 1.279 . S
C1258 C1256 1.353 . S
C1258 C1261 1.348 . S
C1258 H1306 0.929 . S
C1259 C1260 1.358 . S
C1259 C1261 1.356 . S
C1259 H1307 0.930 . S
C1260 N1257 1.279 . S
C1260 C1259 1.358 . S
C1260 H1263 0.930 . S
C1261 C1258 1.348 . S
C1261 C1259 1.356 . S
H1262 C1256 0.930 . S
H1263 C1260 0.930 . S
C1264 C1266 1.348 . S
C1264 C1267 1.356 . S
C1264 O1294 1.325 . S
N1265 C1268 1.314 . S
N1265 C1269 1.279 . S
C1266 C1264 1.348 . S
C1266 C1268 1.353 . S
C1266 H1308 0.929 . S
C1267 C1264 1.356 . S
C1267 C1269 1.358 . S
C1267 H1309 0.930 . S
C1268 N1265 1.314 . S
C1268 C1266 1.353 . S
C1268 H1310 0.930 . S
C1269 N1265 1.279 . S
C1269 C1267 1.358 . S
C1269 H1311 0.930 . S
C1270 C1271 1.348 . S
C1270 C1272 1.356 . S
C1270 O1295 1.325 . S
C1271 C1270 1.348 . S
C1271 C1273 1.353 . S
C1271 H1312 0.929 . S
C1272 C1270 1.356 . S
C1272 C1274 1.358 . S
C1272 H1313 0.930 . S
C1273 C1271 1.353 . S
C1273 N1275 1.314 . S
C1273 H1314 0.930 . S
C1274 C1272 1.358 . S
C1274 N1275 1.279 . S
C1274 H1315 0.930 . S
N1275 C1273 1.314 . S
N1275 C1274 1.279 . S
C1276 C1278 1.353 . S
C1276 N1279 1.314 . S
C1276 H1282 0.930 . S
C1277 N1279 1.279 . S
C1277 C1280 1.358 . S
C1277 H1283 0.930 . S
C1278 C1276 1.353 . S
C1278 C1281 1.348 . S
C1278 H1316 0.929 . S
N1279 Li1234 1.990 . S
N1279 C1276 1.314 . S
N1279 C1277 1.279 . S
C1280 C1277 1.358 . S
C1280 C1281 1.356 . S
C1280 H1317 0.930 . S
C1281 C1278 1.348 . S
C1281 C1280 1.356 . S
H1282 C1276 0.930 . S
H1283 C1277 0.930 . S
C1284 N1285 1.314 . S
C1284 C1286 1.353 . S
C1284 H1290 0.930 . S
N1285 Li1235 1.990 . S
N1285 C1284 1.314 . S
N1285 C1288 1.279 . S
C1286 C1284 1.353 . S
C1286 C1289 1.348 . S
C1286 H1318 0.929 . S
C1287 C1288 1.358 . S
C1287 C1289 1.356 . S
C1287 H1319 0.930 . S
C1288 N1285 1.279 . S
C1288 C1287 1.358 . S
C1288 H1291 0.930 . S
C1289 C1286 1.348 . S
C1289 C1287 1.356 . S
H1290 C1284 0.930 . S
H1291 C1288 0.930 . S
O1292 Li1232 1.956 . S
O1292 Li1233 1.970 . S
O1292 Li1234 1.961 . S
O1292 C1236 1.325 . S
O1293 Li1232 1.970 . S
O1293 Li1233 1.956 . S
O1293 Li1235 1.961 . S
O1293 C1242 1.325 . S
O1294 Li1232 1.961 . S
O1294 Li1234 1.956 . S
O1294 Li1235 1.970 . S
O1294 C1264 1.325 . S
O1295 Li1233 1.961 . S
O1295 Li1234 1.970 . S
O1295 Li1235 1.956 . S
O1295 C1270 1.325 . S
H1296 C1238 0.929 . S
H1297 C1239 0.930 . S
H1298 C1240 0.930 . S
H1299 C1241 0.930 . S
H1300 C1243 0.930 . S
H1301 C1245 0.929 . S
H1302 C1246 0.930 . S
H1303 C1247 0.930 . S
H1304 C1250 0.930 . S
H1305 C1253 0.929 . S
H1306 C1258 0.929 . S
H1307 C1259 0.930 . S
H1308 C1266 0.929 . S
H1309 C1267 0.930 . S
H1310 C1268 0.930 . S
H1311 C1269 0.930 . S
H1312 C1271 0.929 . S
H1313 C1272 0.930 . S
H1314 C1273 0.930 . S
H1315 C1274 0.930 . S
H1316 C1278 0.929 . S
H1317 C1280 0.930 . S
H1318 C1286 0.929 . S
H1319 C1287 0.930 . S
Li1320 N1337 1.990 . S
Li1320 O1380 1.956 . S
Li1320 O1381 1.970 . S
Li1320 O1382 1.961 . S
Li1321 N1345 1.990 . S
Li1321 O1380 1.970 . S
Li1321 O1381 1.956 . S
Li1321 O1383 1.961 . S
Li1322 N1367 1.990 . S
Li1322 O1380 1.961 . S
Li1322 O1382 1.956 . S
Li1322 O1383 1.970 . S
Li1323 N1373 1.990 . S
Li1323 O1381 1.961 . S
Li1323 O1382 1.970 . S
Li1323 O1383 1.956 . S
C1324 C1326 1.348 . S
C1324 C1327 1.356 . S
C1324 O1380 1.325 . S
N1325 C1328 1.314 . S
N1325 C1329 1.279 . S
C1326 C1324 1.348 . S
C1326 C1328 1.353 . S
C1326 H1384 0.929 . S
C1327 C1324 1.356 . S
C1327 C1329 1.358 . S
C1327 H1385 0.930 . S
C1328 N1325 1.314 . S
C1328 C1326 1.353 . S
C1328 H1386 0.930 . S
C1329 N1325 1.279 . S
C1329 C1327 1.358 . S
C1329 H1387 0.930 . S
C1330 C1333 1.348 . S
C1330 C1334 1.356 . S
C1330 O1381 1.325 . S
C1331 N1332 1.279 . S
C1331 C1334 1.358 . S
C1331 H1388 0.930 . S
N1332 C1331 1.279 . S
N1332 C1335 1.314 . S
C1333 C1330 1.348 . S
C1333 C1335 1.353 . S
C1333 H1389 0.929 . S
C1334 C1330 1.356 . S
C1334 C1331 1.358 . S
C1334 H1390 0.930 . S
C1335 N1332 1.314 . S
C1335 C1333 1.353 . S
C1335 H1391 0.930 . S
C1336 N1337 1.314 . S
C1336 C1341 1.353 . S
C1336 H1342 0.930 . S
N1337 Li1320 1.990 . S
N1337 C1336 1.314 . S
N1337 C1339 1.279 . S
C1338 C1339 1.358 . S
C1338 C1340 1.356 . S
C1338 H1392 0.930 . S
C1339 N1337 1.279 . S
C1339 C1338 1.358 . S
C1339 H1343 0.930 . S
C1340 C1338 1.356 . S
C1340 C1341 1.348 . S
C1341 C1336 1.353 . S
C1341 C1340 1.348 . S
C1341 H1393 0.929 . S
H1342 C1336 0.930 . S
H1343 C1339 0.930 . S
C1344 N1345 1.314 . S
C1344 C1346 1.353 . S
C1344 H1350 0.930 . S
N1345 Li1321 1.990 . S
N1345 C1344 1.314 . S
N1345 C1348 1.279 . S
C1346 C1344 1.353 . S
C1346 C1349 1.348 . S
C1346 H1394 0.929 . S
C1347 C1348 1.358 . S
C1347 C1349 1.356 . S
C1347 H1395 0.930 . S
C1348 N1345 1.279 . S
C1348 C1347 1.358 . S
C1348 H1351 0.930 . S
C1349 C1346 1.348 . S
C1349 C1347 1.356 . S
H1350 C1344 0.930 . S
H1351 C1348 0.930 . S
C1352 C1354 1.348 . S
C1352 C1355 1.356 . S
C1352 O1382 1.325 . S
N1353 C1356 1.314 . S
N1353 C1357 1.279 . S
C1354 C1352 1.348 . S
C1354 C1356 1.353 . S
C1354 H1396 0.929 . S
C1355 C1352 1.356 . S
C1355 C1357 1.358 . S
C1355 H1397 0.930 . S
C1356 N1353 1.314 . S
C1356 C1354 1.353 . S
C1356 H1398 0.930 . S
C1357 N1353 1.279 . S
C1357 C1355 1.358 . S
C1357 H1399 0.930 . S
C1358 C1359 1.348 . S
C1358 C1360 1.356 . S
C1358 O1383 1.325 . S
C1359 C1358 1.348 . S
C1359 C1361 1.353 . S
C1359 H1400 0.929 . S
C1360 C1358 1.356 . S
C1360 C1362 1.358 . S
C1360 H1401 0.930 . S
C1361 C1359 1.353 . S
C1361 N1363 1.314 . S
C1361 H1402 0.930 . S
C1362 C1360 1.358 . S
C1362 N1363 1.279 . S
C1362 H1403 0.930 . S
N1363 C1361 1.314 . S
N1363 C1362 1.279 . S
C1364 C1366 1.353 . S
C1364 N1367 1.314 . S
C1364 H1370 0.930 . S
C1365 N1367 1.279 . S
C1365 C1368 1.358 . S
C1365 H1371 0.930 . S
C1366 C1364 1.353 . S
C1366 C1369 1.348 . S
C1366 H1404 0.929 . S
N1367 Li1322 1.990 . S
N1367 C1364 1.314 . S
N1367 C1365 1.279 . S
C1368 C1365 1.358 . S
C1368 C1369 1.356 . S
C1368 H1405 0.930 . S
C1369 C1366 1.348 . S
C1369 C1368 1.356 . S
H1370 C1364 0.930 . S
H1371 C1365 0.930 . S
C1372 N1373 1.314 . S
C1372 C1374 1.353 . S
C1372 H1378 0.930 . S
N1373 Li1323 1.990 . S
N1373 C1372 1.314 . S
N1373 C1376 1.279 . S
C1374 C1372 1.353 . S
C1374 C1377 1.348 . S
C1374 H1406 0.929 . S
C1375 C1376 1.358 . S
C1375 C1377 1.356 . S
C1375 H1407 0.930 . S
C1376 N1373 1.279 . S
C1376 C1375 1.358 . S
C1376 H1379 0.930 . S
C1377 C1374 1.348 . S
C1377 C1375 1.356 . S
H1378 C1372 0.930 . S
H1379 C1376 0.930 . S
O1380 Li1320 1.956 . S
O1380 Li1321 1.970 . S
O1380 Li1322 1.961 . S
O1380 C1324 1.325 . S
O1381 Li1320 1.970 . S
O1381 Li1321 1.956 . S
O1381 Li1323 1.961 . S
O1381 C1330 1.325 . S
O1382 Li1320 1.961 . S
O1382 Li1322 1.956 . S
O1382 Li1323 1.970 . S
O1382 C1352 1.325 . S
O1383 Li1321 1.961 . S
O1383 Li1322 1.970 . S
O1383 Li1323 1.956 . S
O1383 C1358 1.325 . S
H1384 C1326 0.929 . S
H1385 C1327 0.930 . S
H1386 C1328 0.930 . S
H1387 C1329 0.930 . S
H1388 C1331 0.930 . S
H1389 C1333 0.929 . S
H1390 C1334 0.930 . S
H1391 C1335 0.930 . S
H1392 C1338 0.930 . S
H1393 C1341 0.929 . S
H1394 C1346 0.929 . S
H1395 C1347 0.930 . S
H1396 C1354 0.929 . S
H1397 C1355 0.930 . S
H1398 C1356 0.930 . S
H1399 C1357 0.930 . S
H1400 C1359 0.929 . S
H1401 C1360 0.930 . S
H1402 C1361 0.930 . S
H1403 C1362 0.930 . S
H1404 C1366 0.929 . S
H1405 C1368 0.930 . S
H1406 C1374 0.929 . S
H1407 C1375 0.930 . S
Li1408 N1425 1.990 . S
Li1408 O1468 1.956 . S
Li1408 O1469 1.970 . S
Li1408 O1470 1.961 . S
Li1409 N1433 1.990 . S
Li1409 O1468 1.970 . S
Li1409 O1469 1.956 . S
Li1409 O1471 1.961 . S
Li1410 N1455 1.990 . S
Li1410 O1468 1.961 . S
Li1410 O1470 1.956 . S
Li1410 O1471 1.970 . S
Li1411 N1461 1.990 . S
Li1411 O1469 1.961 . S
Li1411 O1470 1.970 . S
Li1411 O1471 1.956 . S
C1412 C1414 1.348 . S
C1412 C1415 1.356 . S
C1412 O1468 1.325 . S
N1413 C1416 1.314 . S
N1413 C1417 1.279 . S
C1414 C1412 1.348 . S
C1414 C1416 1.353 . S
C1414 H1472 0.929 . S
C1415 C1412 1.356 . S
C1415 C1417 1.358 . S
C1415 H1473 0.930 . S
C1416 N1413 1.314 . S
C1416 C1414 1.353 . S
C1416 H1474 0.930 . S
C1417 N1413 1.279 . S
C1417 C1415 1.358 . S
C1417 H1475 0.930 . S
C1418 C1421 1.348 . S
C1418 C1422 1.356 . S
C1418 O1469 1.325 . S
C1419 N1420 1.279 . S
C1419 C1422 1.358 . S
C1419 H1476 0.930 . S
N1420 C1419 1.279 . S
N1420 C1423 1.314 . S
C1421 C1418 1.348 . S
C1421 C1423 1.353 . S
C1421 H1477 0.929 . S
C1422 C1418 1.356 . S
C1422 C1419 1.358 . S
C1422 H1478 0.930 . S
C1423 N1420 1.314 . S
C1423 C1421 1.353 . S
C1423 H1479 0.930 . S
C1424 N1425 1.314 . S
C1424 C1429 1.353 . S
C1424 H1430 0.930 . S
N1425 Li1408 1.990 . S
N1425 C1424 1.314 . S
N1425 C1427 1.279 . S
C1426 C1427 1.358 . S
C1426 C1428 1.356 . S
C1426 H1480 0.930 . S
C1427 N1425 1.279 . S
C1427 C1426 1.358 . S
C1427 H1431 0.930 . S
C1428 C1426 1.356 . S
C1428 C1429 1.348 . S
C1429 C1424 1.353 . S
C1429 C1428 1.348 . S
C1429 H1481 0.929 . S
H1430 C1424 0.930 . S
H1431 C1427 0.930 . S
C1432 N1433 1.314 . S
C1432 C1434 1.353 . S
C1432 H1438 0.930 . S
N1433 Li1409 1.990 . S
N1433 C1432 1.314 . S
N1433 C1436 1.279 . S
C1434 C1432 1.353 . S
C1434 C1437 1.348 . S
C1434 H1482 0.929 . S
C1435 C1436 1.358 . S
C1435 C1437 1.356 . S
C1435 H1483 0.930 . S
C1436 N1433 1.279 . S
C1436 C1435 1.358 . S
C1436 H1439 0.930 . S
C1437 C1434 1.348 . S
C1437 C1435 1.356 . S
H1438 C1432 0.930 . S
H1439 C1436 0.930 . S
C1440 C1442 1.348 . S
C1440 C1443 1.356 . S
C1440 O1470 1.325 . S
N1441 C1444 1.314 . S
N1441 C1445 1.279 . S
C1442 C1440 1.348 . S
C1442 C1444 1.353 . S
C1442 H1484 0.929 . S
C1443 C1440 1.356 . S
C1443 C1445 1.358 . S
C1443 H1485 0.930 . S
C1444 N1441 1.314 . S
C1444 C1442 1.353 . S
C1444 H1486 0.930 . S
C1445 N1441 1.279 . S
C1445 C1443 1.358 . S
C1445 H1487 0.930 . S
C1446 C1447 1.348 . S
C1446 C1448 1.356 . S
C1446 O1471 1.325 . S
C1447 C1446 1.348 . S
C1447 C1449 1.353 . S
C1447 H1488 0.929 . S
C1448 C1446 1.356 . S
C1448 C1450 1.358 . S
C1448 H1489 0.930 . S
C1449 C1447 1.353 . S
C1449 N1451 1.314 . S
C1449 H1490 0.930 . S
C1450 C1448 1.358 . S
C1450 N1451 1.279 . S
C1450 H1491 0.930 . S
N1451 C1449 1.314 . S
N1451 C1450 1.279 . S
C1452 C1454 1.353 . S
C1452 N1455 1.314 . S
C1452 H1458 0.930 . S
C1453 N1455 1.279 . S
C1453 C1456 1.358 . S
C1453 H1459 0.930 . S
C1454 C1452 1.353 . S
C1454 C1457 1.348 . S
C1454 H1492 0.929 . S
N1455 Li1410 1.990 . S
N1455 C1452 1.314 . S
N1455 C1453 1.279 . S
C1456 C1453 1.358 . S
C1456 C1457 1.356 . S
C1456 H1493 0.930 . S
C1457 C1454 1.348 . S
C1457 C1456 1.356 . S
H1458 C1452 0.930 . S
H1459 C1453 0.930 . S
C1460 N1461 1.314 . S
C1460 C1462 1.353 . S
C1460 H1466 0.930 . S
N1461 Li1411 1.990 . S
N1461 C1460 1.314 . S
N1461 C1464 1.279 . S
C1462 C1460 1.353 . S
C1462 C1465 1.348 . S
C1462 H1494 0.929 . S
C1463 C1464 1.358 . S
C1463 C1465 1.356 . S
C1463 H1495 0.930 . S
C1464 N1461 1.279 . S
C1464 C1463 1.358 . S
C1464 H1467 0.930 . S
C1465 C1462 1.348 . S
C1465 C1463 1.356 . S
H1466 C1460 0.930 . S
H1467 C1464 0.930 . S
O1468 Li1408 1.956 . S
O1468 Li1409 1.970 . S
O1468 Li1410 1.961 . S
O1468 C1412 1.325 . S
O1469 Li1408 1.970 . S
O1469 Li1409 1.956 . S
O1469 Li1411 1.961 . S
O1469 C1418 1.325 . S
O1470 Li1408 1.961 . S
O1470 Li1410 1.956 . S
O1470 Li1411 1.970 . S
O1470 C1440 1.325 . S
O1471 Li1409 1.961 . S
O1471 Li1410 1.970 . S
O1471 Li1411 1.956 . S
O1471 C1446 1.325 . S
H1472 C1414 0.929 . S
H1473 C1415 0.930 . S
H1474 C1416 0.930 . S
H1475 C1417 0.930 . S
H1476 C1419 0.930 . S
H1477 C1421 0.929 . S
H1478 C1422 0.930 . S
H1479 C1423 0.930 . S
H1480 C1426 0.930 . S
H1481 C1429 0.929 . S
H1482 C1434 0.929 . S
H1483 C1435 0.930 . S
H1484 C1442 0.929 . S
H1485 C1443 0.930 . S
H1486 C1444 0.930 . S
H1487 C1445 0.930 . S
H1488 C1447 0.929 . S
H1489 C1448 0.930 . S
H1490 C1449 0.930 . S
H1491 C1450 0.930 . S
H1492 C1454 0.929 . S
H1493 C1456 0.930 . S
H1494 C1462 0.929 . S
H1495 C1463 0.930 . S
Li1496 N1513 1.990 . S
Li1496 O1556 1.956 . S
Li1496 O1557 1.970 . S
Li1496 O1558 1.961 . S
Li1497 N1521 1.990 . S
Li1497 O1556 1.970 . S
Li1497 O1557 1.956 . S
Li1497 O1559 1.961 . S
Li1498 N1543 1.990 . S
Li1498 O1556 1.961 . S
Li1498 O1558 1.956 . S
Li1498 O1559 1.970 . S
Li1499 N1549 1.990 . S
Li1499 O1557 1.961 . S
Li1499 O1558 1.970 . S
Li1499 O1559 1.956 . S
C1500 C1502 1.348 . S
C1500 C1503 1.356 . S
C1500 O1556 1.325 . S
N1501 C1504 1.314 . S
N1501 C1505 1.279 . S
C1502 C1500 1.348 . S
C1502 C1504 1.353 . S
C1502 H1560 0.929 . S
C1503 C1500 1.356 . S
C1503 C1505 1.358 . S
C1503 H1561 0.930 . S
C1504 N1501 1.314 . S
C1504 C1502 1.353 . S
C1504 H1562 0.930 . S
C1505 N1501 1.279 . S
C1505 C1503 1.358 . S
C1505 H1563 0.930 . S
C1506 C1509 1.348 . S
C1506 C1510 1.356 . S
C1506 O1557 1.325 . S
C1507 N1508 1.279 . S
C1507 C1510 1.358 . S
C1507 H1564 0.930 . S
N1508 C1507 1.279 . S
N1508 C1511 1.314 . S
C1509 C1506 1.348 . S
C1509 C1511 1.353 . S
C1509 H1565 0.929 . S
C1510 C1506 1.356 . S
C1510 C1507 1.358 . S
C1510 H1566 0.930 . S
C1511 N1508 1.314 . S
C1511 C1509 1.353 . S
C1511 H1567 0.930 . S
C1512 N1513 1.314 . S
C1512 C1517 1.353 . S
C1512 H1518 0.930 . S
N1513 Li1496 1.990 . S
N1513 C1512 1.314 . S
N1513 C1515 1.279 . S
C1514 C1515 1.358 . S
C1514 C1516 1.356 . S
C1514 H1568 0.930 . S
C1515 N1513 1.279 . S
C1515 C1514 1.358 . S
C1515 H1519 0.930 . S
C1516 C1514 1.356 . S
C1516 C1517 1.348 . S
C1517 C1512 1.353 . S
C1517 C1516 1.348 . S
C1517 H1569 0.929 . S
H1518 C1512 0.930 . S
H1519 C1515 0.930 . S
C1520 N1521 1.314 . S
C1520 C1522 1.353 . S
C1520 H1526 0.930 . S
N1521 Li1497 1.990 . S
N1521 C1520 1.314 . S
N1521 C1524 1.279 . S
C1522 C1520 1.353 . S
C1522 C1525 1.348 . S
C1522 H1570 0.929 . S
C1523 C1524 1.358 . S
C1523 C1525 1.356 . S
C1523 H1571 0.930 . S
C1524 N1521 1.279 . S
C1524 C1523 1.358 . S
C1524 H1527 0.930 . S
C1525 C1522 1.348 . S
C1525 C1523 1.356 . S
H1526 C1520 0.930 . S
H1527 C1524 0.930 . S
C1528 C1530 1.348 . S
C1528 C1531 1.356 . S
C1528 O1558 1.325 . S
N1529 C1532 1.314 . S
N1529 C1533 1.279 . S
C1530 C1528 1.348 . S
C1530 C1532 1.353 . S
C1530 H1572 0.929 . S
C1531 C1528 1.356 . S
C1531 C1533 1.358 . S
C1531 H1573 0.930 . S
C1532 N1529 1.314 . S
C1532 C1530 1.353 . S
C1532 H1574 0.930 . S
C1533 N1529 1.279 . S
C1533 C1531 1.358 . S
C1533 H1575 0.930 . S
C1534 C1535 1.348 . S
C1534 C1536 1.356 . S
C1534 O1559 1.325 . S
C1535 C1534 1.348 . S
C1535 C1537 1.353 . S
C1535 H1576 0.929 . S
C1536 C1534 1.356 . S
C1536 C1538 1.358 . S
C1536 H1577 0.930 . S
C1537 C1535 1.353 . S
C1537 N1539 1.314 . S
C1537 H1578 0.930 . S
C1538 C1536 1.358 . S
C1538 N1539 1.279 . S
C1538 H1579 0.930 . S
N1539 C1537 1.314 . S
N1539 C1538 1.279 . S
C1540 C1542 1.353 . S
C1540 N1543 1.314 . S
C1540 H1546 0.930 . S
C1541 N1543 1.279 . S
C1541 C1544 1.358 . S
C1541 H1547 0.930 . S
C1542 C1540 1.353 . S
C1542 C1545 1.348 . S
C1542 H1580 0.929 . S
N1543 Li1498 1.990 . S
N1543 C1540 1.314 . S
N1543 C1541 1.279 . S
C1544 C1541 1.358 . S
C1544 C1545 1.356 . S
C1544 H1581 0.930 . S
C1545 C1542 1.348 . S
C1545 C1544 1.356 . S
H1546 C1540 0.930 . S
H1547 C1541 0.930 . S
C1548 N1549 1.314 . S
C1548 C1550 1.353 . S
C1548 H1554 0.930 . S
N1549 Li1499 1.990 . S
N1549 C1548 1.314 . S
N1549 C1552 1.279 . S
C1550 C1548 1.353 . S
C1550 C1553 1.348 . S
C1550 H1582 0.929 . S
C1551 C1552 1.358 . S
C1551 C1553 1.356 . S
C1551 H1583 0.930 . S
C1552 N1549 1.279 . S
C1552 C1551 1.358 . S
C1552 H1555 0.930 . S
C1553 C1550 1.348 . S
C1553 C1551 1.356 . S
H1554 C1548 0.930 . S
H1555 C1552 0.930 . S
O1556 Li1496 1.956 . S
O1556 Li1497 1.970 . S
O1556 Li1498 1.961 . S
O1556 C1500 1.325 . S
O1557 Li1496 1.970 . S
O1557 Li1497 1.956 . S
O1557 Li1499 1.961 . S
O1557 C1506 1.325 . S
O1558 Li1496 1.961 . S
O1558 Li1498 1.956 . S
O1558 Li1499 1.970 . S
O1558 C1528 1.325 . S
O1559 Li1497 1.961 . S
O1559 Li1498 1.970 . S
O1559 Li1499 1.956 . S
O1559 C1534 1.325 . S
H1560 C1502 0.929 . S
H1561 C1503 0.930 . S
H1562 C1504 0.930 . S
H1563 C1505 0.930 . S
H1564 C1507 0.930 . S
H1565 C1509 0.929 . S
H1566 C1510 0.930 . S
H1567 C1511 0.930 . S
H1568 C1514 0.930 . S
H1569 C1517 0.929 . S
H1570 C1522 0.929 . S
H1571 C1523 0.930 . S
H1572 C1530 0.929 . S
H1573 C1531 0.930 . S
H1574 C1532 0.930 . S
H1575 C1533 0.930 . S
H1576 C1535 0.929 . S
H1577 C1536 0.930 . S
H1578 C1537 0.930 . S
H1579 C1538 0.930 . S
H1580 C1542 0.929 . S
H1581 C1544 0.930 . S
H1582 C1550 0.929 . S
H1583 C1551 0.930 . S
Li1584 N1601 1.990 . S
Li1584 O1644 1.956 . S
Li1584 O1645 1.970 . S
Li1584 O1646 1.961 . S
Li1585 N1609 1.990 . S
Li1585 O1644 1.970 . S
Li1585 O1645 1.956 . S
Li1585 O1647 1.961 . S
Li1586 N1631 1.990 . S
Li1586 O1644 1.961 . S
Li1586 O1646 1.956 . S
Li1586 O1647 1.970 . S
Li1587 N1637 1.990 . S
Li1587 O1645 1.961 . S
Li1587 O1646 1.970 . S
Li1587 O1647 1.956 . S
C1588 C1590 1.348 . S
C1588 C1591 1.356 . S
C1588 O1644 1.325 . S
N1589 C1592 1.314 . S
N1589 C1593 1.279 . S
C1590 C1588 1.348 . S
C1590 C1592 1.353 . S
C1590 H1648 0.929 . S
C1591 C1588 1.356 . S
C1591 C1593 1.358 . S
C1591 H1649 0.930 . S
C1592 N1589 1.314 . S
C1592 C1590 1.353 . S
C1592 H1650 0.930 . S
C1593 N1589 1.279 . S
C1593 C1591 1.358 . S
C1593 H1651 0.930 . S
C1594 C1597 1.348 . S
C1594 C1598 1.356 . S
C1594 O1645 1.325 . S
C1595 N1596 1.279 . S
C1595 C1598 1.358 . S
C1595 H1652 0.930 . S
N1596 C1595 1.279 . S
N1596 C1599 1.314 . S
C1597 C1594 1.348 . S
C1597 C1599 1.353 . S
C1597 H1653 0.929 . S
C1598 C1594 1.356 . S
C1598 C1595 1.358 . S
C1598 H1654 0.930 . S
C1599 N1596 1.314 . S
C1599 C1597 1.353 . S
C1599 H1655 0.930 . S
C1600 N1601 1.314 . S
C1600 C1605 1.353 . S
C1600 H1606 0.930 . S
N1601 Li1584 1.990 . S
N1601 C1600 1.314 . S
N1601 C1603 1.279 . S
C1602 C1603 1.358 . S
C1602 C1604 1.356 . S
C1602 H1656 0.930 . S
C1603 N1601 1.279 . S
C1603 C1602 1.358 . S
C1603 H1607 0.930 . S
C1604 C1602 1.356 . S
C1604 C1605 1.348 . S
C1605 C1600 1.353 . S
C1605 C1604 1.348 . S
C1605 H1657 0.929 . S
H1606 C1600 0.930 . S
H1607 C1603 0.930 . S
C1608 N1609 1.314 . S
C1608 C1610 1.353 . S
C1608 H1614 0.930 . S
N1609 Li1585 1.990 . S
N1609 C1608 1.314 . S
N1609 C1612 1.279 . S
C1610 C1608 1.353 . S
C1610 C1613 1.348 . S
C1610 H1658 0.929 . S
C1611 C1612 1.358 . S
C1611 C1613 1.356 . S
C1611 H1659 0.930 . S
C1612 N1609 1.279 . S
C1612 C1611 1.358 . S
C1612 H1615 0.930 . S
C1613 C1610 1.348 . S
C1613 C1611 1.356 . S
H1614 C1608 0.930 . S
H1615 C1612 0.930 . S
C1616 C1618 1.348 . S
C1616 C1619 1.356 . S
C1616 O1646 1.325 . S
N1617 C1620 1.314 . S
N1617 C1621 1.279 . S
C1618 C1616 1.348 . S
C1618 C1620 1.353 . S
C1618 H1660 0.929 . S
C1619 C1616 1.356 . S
C1619 C1621 1.358 . S
C1619 H1661 0.930 . S
C1620 N1617 1.314 . S
C1620 C1618 1.353 . S
C1620 H1662 0.930 . S
C1621 N1617 1.279 . S
C1621 C1619 1.358 . S
C1621 H1663 0.930 . S
C1622 C1623 1.348 . S
C1622 C1624 1.356 . S
C1622 O1647 1.325 . S
C1623 C1622 1.348 . S
C1623 C1625 1.353 . S
C1623 H1664 0.929 . S
C1624 C1622 1.356 . S
C1624 C1626 1.358 . S
C1624 H1665 0.930 . S
C1625 C1623 1.353 . S
C1625 N1627 1.314 . S
C1625 H1666 0.930 . S
C1626 C1624 1.358 . S
C1626 N1627 1.279 . S
C1626 H1667 0.930 . S
N1627 C1625 1.314 . S
N1627 C1626 1.279 . S
C1628 C1630 1.353 . S
C1628 N1631 1.314 . S
C1628 H1634 0.930 . S
C1629 N1631 1.279 . S
C1629 C1632 1.358 . S
C1629 H1635 0.930 . S
C1630 C1628 1.353 . S
C1630 C1633 1.348 . S
C1630 H1668 0.929 . S
N1631 Li1586 1.990 . S
N1631 C1628 1.314 . S
N1631 C1629 1.279 . S
C1632 C1629 1.358 . S
C1632 C1633 1.356 . S
C1632 H1669 0.930 . S
C1633 C1630 1.348 . S
C1633 C1632 1.356 . S
H1634 C1628 0.930 . S
H1635 C1629 0.930 . S
C1636 N1637 1.314 . S
C1636 C1638 1.353 . S
C1636 H1642 0.930 . S
N1637 Li1587 1.990 . S
N1637 C1636 1.314 . S
N1637 C1640 1.279 . S
C1638 C1636 1.353 . S
C1638 C1641 1.348 . S
C1638 H1670 0.929 . S
C1639 C1640 1.358 . S
C1639 C1641 1.356 . S
C1639 H1671 0.930 . S
C1640 N1637 1.279 . S
C1640 C1639 1.358 . S
C1640 H1643 0.930 . S
C1641 C1638 1.348 . S
C1641 C1639 1.356 . S
H1642 C1636 0.930 . S
H1643 C1640 0.930 . S
O1644 Li1584 1.956 . S
O1644 Li1585 1.970 . S
O1644 Li1586 1.961 . S
O1644 C1588 1.325 . S
O1645 Li1584 1.970 . S
O1645 Li1585 1.956 . S
O1645 Li1587 1.961 . S
O1645 C1594 1.325 . S
O1646 Li1584 1.961 . S
O1646 Li1586 1.956 . S
O1646 Li1587 1.970 . S
O1646 C1616 1.325 . S
O1647 Li1585 1.961 . S
O1647 Li1586 1.970 . S
O1647 Li1587 1.956 . S
O1647 C1622 1.325 . S
H1648 C1590 0.929 . S
H1649 C1591 0.930 . S
H1650 C1592 0.930 . S
H1651 C1593 0.930 . S
H1652 C1595 0.930 . S
H1653 C1597 0.929 . S
H1654 C1598 0.930 . S
H1655 C1599 0.930 . S
H1656 C1602 0.930 . S
H1657 C1605 0.929 . S
H1658 C1610 0.929 . S
H1659 C1611 0.930 . S
H1660 C1618 0.929 . S
H1661 C1619 0.930 . S
H1662 C1620 0.930 . S
H1663 C1621 0.930 . S
H1664 C1623 0.929 . S
H1665 C1624 0.930 . S
H1666 C1625 0.930 . S
H1667 C1626 0.930 . S
H1668 C1630 0.929 . S
H1669 C1632 0.930 . S
H1670 C1638 0.929 . S
H1671 C1639 0.930 . S
Li1672 N1689 1.990 . S
Li1672 O1732 1.956 . S
Li1672 O1733 1.970 . S
Li1672 O1734 1.961 . S
Li1673 N1697 1.990 . S
Li1673 O1732 1.970 . S
Li1673 O1733 1.956 . S
Li1673 O1735 1.961 . S
Li1674 N1719 1.990 . S
Li1674 O1732 1.961 . S
Li1674 O1734 1.956 . S
Li1674 O1735 1.970 . S
Li1675 N1725 1.990 . S
Li1675 O1733 1.961 . S
Li1675 O1734 1.970 . S
Li1675 O1735 1.956 . S
C1676 C1678 1.348 . S
C1676 C1679 1.356 . S
C1676 O1732 1.325 . S
N1677 C1680 1.314 . S
N1677 C1681 1.279 . S
C1678 C1676 1.348 . S
C1678 C1680 1.353 . S
C1678 H1736 0.929 . S
C1679 C1676 1.356 . S
C1679 C1681 1.358 . S
C1679 H1737 0.930 . S
C1680 N1677 1.314 . S
C1680 C1678 1.353 . S
C1680 H1738 0.930 . S
C1681 N1677 1.279 . S
C1681 C1679 1.358 . S
C1681 H1739 0.930 . S
C1682 C1685 1.348 . S
C1682 C1686 1.356 . S
C1682 O1733 1.325 . S
C1683 N1684 1.279 . S
C1683 C1686 1.358 . S
C1683 H1740 0.930 . S
N1684 C1683 1.279 . S
N1684 C1687 1.314 . S
C1685 C1682 1.348 . S
C1685 C1687 1.353 . S
C1685 H1741 0.929 . S
C1686 C1682 1.356 . S
C1686 C1683 1.358 . S
C1686 H1742 0.930 . S
C1687 N1684 1.314 . S
C1687 C1685 1.353 . S
C1687 H1743 0.930 . S
C1688 N1689 1.314 . S
C1688 C1693 1.353 . S
C1688 H1694 0.930 . S
N1689 Li1672 1.990 . S
N1689 C1688 1.314 . S
N1689 C1691 1.279 . S
C1690 C1691 1.358 . S
C1690 C1692 1.356 . S
C1690 H1744 0.930 . S
C1691 N1689 1.279 . S
C1691 C1690 1.358 . S
C1691 H1695 0.930 . S
C1692 C1690 1.356 . S
C1692 C1693 1.348 . S
C1693 C1688 1.353 . S
C1693 C1692 1.348 . S
C1693 H1745 0.929 . S
H1694 C1688 0.930 . S
H1695 C1691 0.930 . S
C1696 N1697 1.314 . S
C1696 C1698 1.353 . S
C1696 H1702 0.930 . S
N1697 Li1673 1.990 . S
N1697 C1696 1.314 . S
N1697 C1700 1.279 . S
C1698 C1696 1.353 . S
C1698 C1701 1.348 . S
C1698 H1746 0.929 . S
C1699 C1700 1.358 . S
C1699 C1701 1.356 . S
C1699 H1747 0.930 . S
C1700 N1697 1.279 . S
C1700 C1699 1.358 . S
C1700 H1703 0.930 . S
C1701 C1698 1.348 . S
C1701 C1699 1.356 . S
H1702 C1696 0.930 . S
H1703 C1700 0.930 . S
C1704 C1706 1.348 . S
C1704 C1707 1.356 . S
C1704 O1734 1.325 . S
N1705 C1708 1.314 . S
N1705 C1709 1.279 . S
C1706 C1704 1.348 . S
C1706 C1708 1.353 . S
C1706 H1748 0.929 . S
C1707 C1704 1.356 . S
C1707 C1709 1.358 . S
C1707 H1749 0.930 . S
C1708 N1705 1.314 . S
C1708 C1706 1.353 . S
C1708 H1750 0.930 . S
C1709 N1705 1.279 . S
C1709 C1707 1.358 . S
C1709 H1751 0.930 . S
C1710 C1711 1.348 . S
C1710 C1712 1.356 . S
C1710 O1735 1.325 . S
C1711 C1710 1.348 . S
C1711 C1713 1.353 . S
C1711 H1752 0.929 . S
C1712 C1710 1.356 . S
C1712 C1714 1.358 . S
C1712 H1753 0.930 . S
C1713 C1711 1.353 . S
C1713 N1715 1.314 . S
C1713 H1754 0.930 . S
C1714 C1712 1.358 . S
C1714 N1715 1.279 . S
C1714 H1755 0.930 . S
N1715 C1713 1.314 . S
N1715 C1714 1.279 . S
C1716 C1718 1.353 . S
C1716 N1719 1.314 . S
C1716 H1722 0.930 . S
C1717 N1719 1.279 . S
C1717 C1720 1.358 . S
C1717 H1723 0.930 . S
C1718 C1716 1.353 . S
C1718 C1721 1.348 . S
C1718 H1756 0.929 . S
N1719 Li1674 1.990 . S
N1719 C1716 1.314 . S
N1719 C1717 1.279 . S
C1720 C1717 1.358 . S
C1720 C1721 1.356 . S
C1720 H1757 0.930 . S
C1721 C1718 1.348 . S
C1721 C1720 1.356 . S
H1722 C1716 0.930 . S
H1723 C1717 0.930 . S
C1724 N1725 1.314 . S
C1724 C1726 1.353 . S
C1724 H1730 0.930 . S
N1725 Li1675 1.990 . S
N1725 C1724 1.314 . S
N1725 C1728 1.279 . S
C1726 C1724 1.353 . S
C1726 C1729 1.348 . S
C1726 H1758 0.929 . S
C1727 C1728 1.358 . S
C1727 C1729 1.356 . S
C1727 H1759 0.930 . S
C1728 N1725 1.279 . S
C1728 C1727 1.358 . S
C1728 H1731 0.930 . S
C1729 C1726 1.348 . S
C1729 C1727 1.356 . S
H1730 C1724 0.930 . S
H1731 C1728 0.930 . S
O1732 Li1672 1.956 . S
O1732 Li1673 1.970 . S
O1732 Li1674 1.961 . S
O1732 C1676 1.325 . S
O1733 Li1672 1.970 . S
O1733 Li1673 1.956 . S
O1733 Li1675 1.961 . S
O1733 C1682 1.325 . S
O1734 Li1672 1.961 . S
O1734 Li1674 1.956 . S
O1734 Li1675 1.970 . S
O1734 C1704 1.325 . S
O1735 Li1673 1.961 . S
O1735 Li1674 1.970 . S
O1735 Li1675 1.956 . S
O1735 C1710 1.325 . S
H1736 C1678 0.929 . S
H1737 C1679 0.930 . S
H1738 C1680 0.930 . S
H1739 C1681 0.930 . S
H1740 C1683 0.930 . S
H1741 C1685 0.929 . S
H1742 C1686 0.930 . S
H1743 C1687 0.930 . S
H1744 C1690 0.930 . S
H1745 C1693 0.929 . S
H1746 C1698 0.929 . S
H1747 C1699 0.930 . S
H1748 C1706 0.929 . S
H1749 C1707 0.930 . S
H1750 C1708 0.930 . S
H1751 C1709 0.930 . S
H1752 C1711 0.929 . S
H1753 C1712 0.930 . S
H1754 C1713 0.930 . S
H1755 C1714 0.930 . S
H1756 C1718 0.929 . S
H1757 C1720 0.930 . S
H1758 C1726 0.929 . S
H1759 C1727 0.930 . S
Li1760 N1777 1.990 . S
Li1760 O1820 1.956 . S
Li1760 O1821 1.970 . S
Li1760 O1822 1.961 . S
Li1761 N1785 1.990 . S
Li1761 O1820 1.970 . S
Li1761 O1821 1.956 . S
Li1761 O1823 1.961 . S
Li1762 N1807 1.990 . S
Li1762 O1820 1.961 . S
Li1762 O1822 1.956 . S
Li1762 O1823 1.970 . S
Li1763 N1813 1.990 . S
Li1763 O1821 1.961 . S
Li1763 O1822 1.970 . S
Li1763 O1823 1.956 . S
C1764 C1766 1.348 . S
C1764 C1767 1.356 . S
C1764 O1820 1.325 . S
N1765 C1768 1.314 . S
N1765 C1769 1.279 . S
C1766 C1764 1.348 . S
C1766 C1768 1.353 . S
C1766 H1824 0.929 . S
C1767 C1764 1.356 . S
C1767 C1769 1.358 . S
C1767 H1825 0.930 . S
C1768 N1765 1.314 . S
C1768 C1766 1.353 . S
C1768 H1826 0.930 . S
C1769 N1765 1.279 . S
C1769 C1767 1.358 . S
C1769 H1827 0.930 . S
C1770 C1773 1.348 . S
C1770 C1774 1.356 . S
C1770 O1821 1.325 . S
C1771 N1772 1.279 . S
C1771 C1774 1.358 . S
C1771 H1828 0.930 . S
N1772 C1771 1.279 . S
N1772 C1775 1.314 . S
C1773 C1770 1.348 . S
C1773 C1775 1.353 . S
C1773 H1829 0.929 . S
C1774 C1770 1.356 . S
C1774 C1771 1.358 . S
C1774 H1830 0.930 . S
C1775 N1772 1.314 . S
C1775 C1773 1.353 . S
C1775 H1831 0.930 . S
C1776 N1777 1.314 . S
C1776 C1781 1.353 . S
C1776 H1782 0.930 . S
N1777 Li1760 1.990 . S
N1777 C1776 1.314 . S
N1777 C1779 1.279 . S
C1778 C1779 1.358 . S
C1778 C1780 1.356 . S
C1778 H1832 0.930 . S
C1779 N1777 1.279 . S
C1779 C1778 1.358 . S
C1779 H1783 0.930 . S
C1780 C1778 1.356 . S
C1780 C1781 1.348 . S
C1781 C1776 1.353 . S
C1781 C1780 1.348 . S
C1781 H1833 0.929 . S
H1782 C1776 0.930 . S
H1783 C1779 0.930 . S
C1784 N1785 1.314 . S
C1784 C1786 1.353 . S
C1784 H1790 0.930 . S
N1785 Li1761 1.990 . S
N1785 C1784 1.314 . S
N1785 C1788 1.279 . S
C1786 C1784 1.353 . S
C1786 C1789 1.348 . S
C1786 H1834 0.929 . S
C1787 C1788 1.358 . S
C1787 C1789 1.356 . S
C1787 H1835 0.930 . S
C1788 N1785 1.279 . S
C1788 C1787 1.358 . S
C1788 H1791 0.930 . S
C1789 C1786 1.348 . S
C1789 C1787 1.356 . S
H1790 C1784 0.930 . S
H1791 C1788 0.930 . S
C1792 C1794 1.348 . S
C1792 C1795 1.356 . S
C1792 O1822 1.325 . S
N1793 C1796 1.314 . S
N1793 C1797 1.279 . S
C1794 C1792 1.348 . S
C1794 C1796 1.353 . S
C1794 H1836 0.929 . S
C1795 C1792 1.356 . S
C1795 C1797 1.358 . S
C1795 H1837 0.930 . S
C1796 N1793 1.314 . S
C1796 C1794 1.353 . S
C1796 H1838 0.930 . S
C1797 N1793 1.279 . S
C1797 C1795 1.358 . S
C1797 H1839 0.930 . S
C1798 C1799 1.348 . S
C1798 C1800 1.356 . S
C1798 O1823 1.325 . S
C1799 C1798 1.348 . S
C1799 C1801 1.353 . S
C1799 H1840 0.929 . S
C1800 C1798 1.356 . S
C1800 C1802 1.358 . S
C1800 H1841 0.930 . S
C1801 C1799 1.353 . S
C1801 N1803 1.314 . S
C1801 H1842 0.930 . S
C1802 C1800 1.358 . S
C1802 N1803 1.279 . S
C1802 H1843 0.930 . S
N1803 C1801 1.314 . S
N1803 C1802 1.279 . S
C1804 C1806 1.353 . S
C1804 N1807 1.314 . S
C1804 H1810 0.930 . S
C1805 N1807 1.279 . S
C1805 C1808 1.358 . S
C1805 H1811 0.930 . S
C1806 C1804 1.353 . S
C1806 C1809 1.348 . S
C1806 H1844 0.929 . S
N1807 Li1762 1.990 . S
N1807 C1804 1.314 . S
N1807 C1805 1.279 . S
C1808 C1805 1.358 . S
C1808 C1809 1.356 . S
C1808 H1845 0.930 . S
C1809 C1806 1.348 . S
C1809 C1808 1.356 . S
H1810 C1804 0.930 . S
H1811 C1805 0.930 . S
C1812 N1813 1.314 . S
C1812 C1814 1.353 . S
C1812 H1818 0.930 . S
N1813 Li1763 1.990 . S
N1813 C1812 1.314 . S
N1813 C1816 1.279 . S
C1814 C1812 1.353 . S
C1814 C1817 1.348 . S
C1814 H1846 0.929 . S
C1815 C1816 1.358 . S
C1815 C1817 1.356 . S
C1815 H1847 0.930 . S
C1816 N1813 1.279 . S
C1816 C1815 1.358 . S
C1816 H1819 0.930 . S
C1817 C1814 1.348 . S
C1817 C1815 1.356 . S
H1818 C1812 0.930 . S
H1819 C1816 0.930 . S
O1820 Li1760 1.956 . S
O1820 Li1761 1.970 . S
O1820 Li1762 1.961 . S
O1820 C1764 1.325 . S
O1821 Li1760 1.970 . S
O1821 Li1761 1.956 . S
O1821 Li1763 1.961 . S
O1821 C1770 1.325 . S
O1822 Li1760 1.961 . S
O1822 Li1762 1.956 . S
O1822 Li1763 1.970 . S
O1822 C1792 1.325 . S
O1823 Li1761 1.961 . S
O1823 Li1762 1.970 . S
O1823 Li1763 1.956 . S
O1823 C1798 1.325 . S
H1824 C1766 0.929 . S
H1825 C1767 0.930 . S
H1826 C1768 0.930 . S
H1827 C1769 0.930 . S
H1828 C1771 0.930 . S
H1829 C1773 0.929 . S
H1830 C1774 0.930 . S
H1831 C1775 0.930 . S
H1832 C1778 0.930 . S
H1833 C1781 0.929 . S
H1834 C1786 0.929 . S
H1835 C1787 0.930 . S
H1836 C1794 0.929 . S
H1837 C1795 0.930 . S
H1838 C1796 0.930 . S
H1839 C1797 0.930 . S
H1840 C1799 0.929 . S
H1841 C1800 0.930 . S
H1842 C1801 0.930 . S
H1843 C1802 0.930 . S
H1844 C1806 0.929 . S
H1845 C1808 0.930 . S
H1846 C1814 0.929 . S
H1847 C1815 0.930 . S
Li1848 N1865 1.990 . S
Li1848 O1908 1.956 . S
Li1848 O1909 1.970 . S
Li1848 O1910 1.961 . S
Li1849 N1873 1.990 . S
Li1849 O1908 1.970 . S
Li1849 O1909 1.956 . S
Li1849 O1911 1.961 . S
Li1850 N1895 1.990 . S
Li1850 O1908 1.961 . S
Li1850 O1910 1.956 . S
Li1850 O1911 1.970 . S
Li1851 N1901 1.990 . S
Li1851 O1909 1.961 . S
Li1851 O1910 1.970 . S
Li1851 O1911 1.956 . S
C1852 C1854 1.348 . S
C1852 C1855 1.356 . S
C1852 O1908 1.325 . S
N1853 C1856 1.314 . S
N1853 C1857 1.279 . S
C1854 C1852 1.348 . S
C1854 C1856 1.353 . S
C1854 H1912 0.929 . S
C1855 C1852 1.356 . S
C1855 C1857 1.358 . S
C1855 H1913 0.930 . S
C1856 N1853 1.314 . S
C1856 C1854 1.353 . S
C1856 H1914 0.930 . S
C1857 N1853 1.279 . S
C1857 C1855 1.358 . S
C1857 H1915 0.930 . S
C1858 C1861 1.348 . S
C1858 C1862 1.356 . S
C1858 O1909 1.325 . S
C1859 N1860 1.279 . S
C1859 C1862 1.358 . S
C1859 H1916 0.930 . S
N1860 C1859 1.279 . S
N1860 C1863 1.314 . S
C1861 C1858 1.348 . S
C1861 C1863 1.353 . S
C1861 H1917 0.929 . S
C1862 C1858 1.356 . S
C1862 C1859 1.358 . S
C1862 H1918 0.930 . S
C1863 N1860 1.314 . S
C1863 C1861 1.353 . S
C1863 H1919 0.930 . S
C1864 N1865 1.314 . S
C1864 C1869 1.353 . S
C1864 H1870 0.930 . S
N1865 Li1848 1.990 . S
N1865 C1864 1.314 . S
N1865 C1867 1.279 . S
C1866 C1867 1.358 . S
C1866 C1868 1.356 . S
C1866 H1920 0.930 . S
C1867 N1865 1.279 . S
C1867 C1866 1.358 . S
C1867 H1871 0.930 . S
C1868 C1866 1.356 . S
C1868 C1869 1.348 . S
C1869 C1864 1.353 . S
C1869 C1868 1.348 . S
C1869 H1921 0.929 . S
H1870 C1864 0.930 . S
H1871 C1867 0.930 . S
C1872 N1873 1.314 . S
C1872 C1874 1.353 . S
C1872 H1878 0.930 . S
N1873 Li1849 1.990 . S
N1873 C1872 1.314 . S
N1873 C1876 1.279 . S
C1874 C1872 1.353 . S
C1874 C1877 1.348 . S
C1874 H1922 0.929 . S
C1875 C1876 1.358 . S
C1875 C1877 1.356 . S
C1875 H1923 0.930 . S
C1876 N1873 1.279 . S
C1876 C1875 1.358 . S
C1876 H1879 0.930 . S
C1877 C1874 1.348 . S
C1877 C1875 1.356 . S
H1878 C1872 0.930 . S
H1879 C1876 0.930 . S
C1880 C1882 1.348 . S
C1880 C1883 1.356 . S
C1880 O1910 1.325 . S
N1881 C1884 1.314 . S
N1881 C1885 1.279 . S
C1882 C1880 1.348 . S
C1882 C1884 1.353 . S
C1882 H1924 0.929 . S
C1883 C1880 1.356 . S
C1883 C1885 1.358 . S
C1883 H1925 0.930 . S
C1884 N1881 1.314 . S
C1884 C1882 1.353 . S
C1884 H1926 0.930 . S
C1885 N1881 1.279 . S
C1885 C1883 1.358 . S
C1885 H1927 0.930 . S
C1886 C1887 1.348 . S
C1886 C1888 1.356 . S
C1886 O1911 1.325 . S
C1887 C1886 1.348 . S
C1887 C1889 1.353 . S
C1887 H1928 0.929 . S
C1888 C1886 1.356 . S
C1888 C1890 1.358 . S
C1888 H1929 0.930 . S
C1889 C1887 1.353 . S
C1889 N1891 1.314 . S
C1889 H1930 0.930 . S
C1890 C1888 1.358 . S
C1890 N1891 1.279 . S
C1890 H1931 0.930 . S
N1891 C1889 1.314 . S
N1891 C1890 1.279 . S
C1892 C1894 1.353 . S
C1892 N1895 1.314 . S
C1892 H1898 0.930 . S
C1893 N1895 1.279 . S
C1893 C1896 1.358 . S
C1893 H1899 0.930 . S
C1894 C1892 1.353 . S
C1894 C1897 1.348 . S
C1894 H1932 0.929 . S
N1895 Li1850 1.990 . S
N1895 C1892 1.314 . S
N1895 C1893 1.279 . S
C1896 C1893 1.358 . S
C1896 C1897 1.356 . S
C1896 H1933 0.930 . S
C1897 C1894 1.348 . S
C1897 C1896 1.356 . S
H1898 C1892 0.930 . S
H1899 C1893 0.930 . S
C1900 N1901 1.314 . S
C1900 C1902 1.353 . S
C1900 H1906 0.930 . S
N1901 Li1851 1.990 . S
N1901 C1900 1.314 . S
N1901 C1904 1.279 . S
C1902 C1900 1.353 . S
C1902 C1905 1.348 . S
C1902 H1934 0.929 . S
C1903 C1904 1.358 . S
C1903 C1905 1.356 . S
C1903 H1935 0.930 . S
C1904 N1901 1.279 . S
C1904 C1903 1.358 . S
C1904 H1907 0.930 . S
C1905 C1902 1.348 . S
C1905 C1903 1.356 . S
H1906 C1900 0.930 . S
H1907 C1904 0.930 . S
O1908 Li1848 1.956 . S
O1908 Li1849 1.970 . S
O1908 Li1850 1.961 . S
O1908 C1852 1.325 . S
O1909 Li1848 1.970 . S
O1909 Li1849 1.956 . S
O1909 Li1851 1.961 . S
O1909 C1858 1.325 . S
O1910 Li1848 1.961 . S
O1910 Li1850 1.956 . S
O1910 Li1851 1.970 . S
O1910 C1880 1.325 . S
O1911 Li1849 1.961 . S
O1911 Li1850 1.970 . S
O1911 Li1851 1.956 . S
O1911 C1886 1.325 . S
H1912 C1854 0.929 . S
H1913 C1855 0.930 . S
H1914 C1856 0.930 . S
H1915 C1857 0.930 . S
H1916 C1859 0.930 . S
H1917 C1861 0.929 . S
H1918 C1862 0.930 . S
H1919 C1863 0.930 . S
H1920 C1866 0.930 . S
H1921 C1869 0.929 . S
H1922 C1874 0.929 . S
H1923 C1875 0.930 . S
H1924 C1882 0.929 . S
H1925 C1883 0.930 . S
H1926 C1884 0.930 . S
H1927 C1885 0.930 . S
H1928 C1887 0.929 . S
H1929 C1888 0.930 . S
H1930 C1889 0.930 . S
H1931 C1890 0.930 . S
H1932 C1894 0.929 . S
H1933 C1896 0.930 . S
H1934 C1902 0.929 . S
H1935 C1903 0.930 . S
Li1936 N1953 1.990 . S
Li1936 O1996 1.956 . S
Li1936 O1997 1.970 . S
Li1936 O1998 1.961 . S
Li1937 N1961 1.990 . S
Li1937 O1996 1.970 . S
Li1937 O1997 1.956 . S
Li1937 O1999 1.961 . S
Li1938 N1983 1.990 . S
Li1938 O1996 1.961 . S
Li1938 O1998 1.956 . S
Li1938 O1999 1.970 . S
Li1939 N1989 1.990 . S
Li1939 O1997 1.961 . S
Li1939 O1998 1.970 . S
Li1939 O1999 1.956 . S
C1940 C1942 1.348 . S
C1940 C1943 1.356 . S
C1940 O1996 1.325 . S
N1941 C1944 1.314 . S
N1941 C1945 1.279 . S
C1942 C1940 1.348 . S
C1942 C1944 1.353 . S
C1942 H2000 0.929 . S
C1943 C1940 1.356 . S
C1943 C1945 1.358 . S
C1943 H2001 0.930 . S
C1944 N1941 1.314 . S
C1944 C1942 1.353 . S
C1944 H2002 0.930 . S
C1945 N1941 1.279 . S
C1945 C1943 1.358 . S
C1945 H2003 0.930 . S
C1946 C1949 1.348 . S
C1946 C1950 1.356 . S
C1946 O1997 1.325 . S
C1947 N1948 1.279 . S
C1947 C1950 1.358 . S
C1947 H2004 0.930 . S
N1948 C1947 1.279 . S
N1948 C1951 1.314 . S
C1949 C1946 1.348 . S
C1949 C1951 1.353 . S
C1949 H2005 0.929 . S
C1950 C1946 1.356 . S
C1950 C1947 1.358 . S
C1950 H2006 0.930 . S
C1951 N1948 1.314 . S
C1951 C1949 1.353 . S
C1951 H2007 0.930 . S
C1952 N1953 1.314 . S
C1952 C1957 1.353 . S
C1952 H1958 0.930 . S
N1953 Li1936 1.990 . S
N1953 C1952 1.314 . S
N1953 C1955 1.279 . S
C1954 C1955 1.358 . S
C1954 C1956 1.356 . S
C1954 H2008 0.930 . S
C1955 N1953 1.279 . S
C1955 C1954 1.358 . S
C1955 H1959 0.930 . S
C1956 C1954 1.356 . S
C1956 C1957 1.348 . S
C1957 C1952 1.353 . S
C1957 C1956 1.348 . S
C1957 H2009 0.929 . S
H1958 C1952 0.930 . S
H1959 C1955 0.930 . S
C1960 N1961 1.314 . S
C1960 C1962 1.353 . S
C1960 H1966 0.930 . S
N1961 Li1937 1.990 . S
N1961 C1960 1.314 . S
N1961 C1964 1.279 . S
C1962 C1960 1.353 . S
C1962 C1965 1.348 . S
C1962 H2010 0.929 . S
C1963 C1964 1.358 . S
C1963 C1965 1.356 . S
C1963 H2011 0.930 . S
C1964 N1961 1.279 . S
C1964 C1963 1.358 . S
C1964 H1967 0.930 . S
C1965 C1962 1.348 . S
C1965 C1963 1.356 . S
H1966 C1960 0.930 . S
H1967 C1964 0.930 . S
C1968 C1970 1.348 . S
C1968 C1971 1.356 . S
C1968 O1998 1.325 . S
N1969 C1972 1.314 . S
N1969 C1973 1.279 . S
C1970 C1968 1.348 . S
C1970 C1972 1.353 . S
C1970 H2012 0.929 . S
C1971 C1968 1.356 . S
C1971 C1973 1.358 . S
C1971 H2013 0.930 . S
C1972 N1969 1.314 . S
C1972 C1970 1.353 . S
C1972 H2014 0.930 . S
C1973 N1969 1.279 . S
C1973 C1971 1.358 . S
C1973 H2015 0.930 . S
C1974 C1975 1.348 . S
C1974 C1976 1.356 . S
C1974 O1999 1.325 . S
C1975 C1974 1.348 . S
C1975 C1977 1.353 . S
C1975 H2016 0.929 . S
C1976 C1974 1.356 . S
C1976 C1978 1.358 . S
C1976 H2017 0.930 . S
C1977 C1975 1.353 . S
C1977 N1979 1.314 . S
C1977 H2018 0.930 . S
C1978 C1976 1.358 . S
C1978 N1979 1.279 . S
C1978 H2019 0.930 . S
N1979 C1977 1.314 . S
N1979 C1978 1.279 . S
C1980 C1982 1.353 . S
C1980 N1983 1.314 . S
C1980 H1986 0.930 . S
C1981 N1983 1.279 . S
C1981 C1984 1.358 . S
C1981 H1987 0.930 . S
C1982 C1980 1.353 . S
C1982 C1985 1.348 . S
C1982 H2020 0.929 . S
N1983 Li1938 1.990 . S
N1983 C1980 1.314 . S
N1983 C1981 1.279 . S
C1984 C1981 1.358 . S
C1984 C1985 1.356 . S
C1984 H2021 0.930 . S
C1985 C1982 1.348 . S
C1985 C1984 1.356 . S
H1986 C1980 0.930 . S
H1987 C1981 0.930 . S
C1988 N1989 1.314 . S
C1988 C1990 1.353 . S
C1988 H1994 0.930 . S
N1989 Li1939 1.990 . S
N1989 C1988 1.314 . S
N1989 C1992 1.279 . S
C1990 C1988 1.353 . S
C1990 C1993 1.348 . S
C1990 H2022 0.929 . S
C1991 C1992 1.358 . S
C1991 C1993 1.356 . S
C1991 H2023 0.930 . S
C1992 N1989 1.279 . S
C1992 C1991 1.358 . S
C1992 H1995 0.930 . S
C1993 C1990 1.348 . S
C1993 C1991 1.356 . S
H1994 C1988 0.930 . S
H1995 C1992 0.930 . S
O1996 Li1936 1.956 . S
O1996 Li1937 1.970 . S
O1996 Li1938 1.961 . S
O1996 C1940 1.325 . S
O1997 Li1936 1.970 . S
O1997 Li1937 1.956 . S
O1997 Li1939 1.961 . S
O1997 C1946 1.325 . S
O1998 Li1936 1.961 . S
O1998 Li1938 1.956 . S
O1998 Li1939 1.970 . S
O1998 C1968 1.325 . S
O1999 Li1937 1.961 . S
O1999 Li1938 1.970 . S
O1999 Li1939 1.956 . S
O1999 C1974 1.325 . S
H2000 C1942 0.929 . S
H2001 C1943 0.930 . S
H2002 C1944 0.930 . S
H2003 C1945 0.930 . S
H2004 C1947 0.930 . S
H2005 C1949 0.929 . S
H2006 C1950 0.930 . S
H2007 C1951 0.930 . S
H2008 C1954 0.930 . S
H2009 C1957 0.929 . S
H2010 C1962 0.929 . S
H2011 C1963 0.930 . S
H2012 C1970 0.929 . S
H2013 C1971 0.930 . S
H2014 C1972 0.930 . S
H2015 C1973 0.930 . S
H2016 C1975 0.929 . S
H2017 C1976 0.930 . S
H2018 C1977 0.930 . S
H2019 C1978 0.930 . S
H2020 C1982 0.929 . S
H2021 C1984 0.930 . S
H2022 C1990 0.929 . S
H2023 C1991 0.930 . S
Li2024 N2041 1.990 . S
Li2024 O2084 1.956 . S
Li2024 O2085 1.970 . S
Li2024 O2086 1.961 . S
Li2025 N2049 1.990 . S
Li2025 O2084 1.970 . S
Li2025 O2085 1.956 . S
Li2025 O2087 1.961 . S
Li2026 N2071 1.990 . S
Li2026 O2084 1.961 . S
Li2026 O2086 1.956 . S
Li2026 O2087 1.970 . S
Li2027 N2077 1.990 . S
Li2027 O2085 1.961 . S
Li2027 O2086 1.970 . S
Li2027 O2087 1.956 . S
C2028 C2030 1.348 . S
C2028 C2031 1.356 . S
C2028 O2084 1.325 . S
N2029 C2032 1.314 . S
N2029 C2033 1.279 . S
C2030 C2028 1.348 . S
C2030 C2032 1.353 . S
C2030 H2088 0.929 . S
C2031 C2028 1.356 . S
C2031 C2033 1.358 . S
C2031 H2089 0.930 . S
C2032 N2029 1.314 . S
C2032 C2030 1.353 . S
C2032 H2090 0.930 . S
C2033 N2029 1.279 . S
C2033 C2031 1.358 . S
C2033 H2091 0.930 . S
C2034 C2037 1.348 . S
C2034 C2038 1.356 . S
C2034 O2085 1.325 . S
C2035 N2036 1.279 . S
C2035 C2038 1.358 . S
C2035 H2092 0.930 . S
N2036 C2035 1.279 . S
N2036 C2039 1.314 . S
C2037 C2034 1.348 . S
C2037 C2039 1.353 . S
C2037 H2093 0.929 . S
C2038 C2034 1.356 . S
C2038 C2035 1.358 . S
C2038 H2094 0.930 . S
C2039 N2036 1.314 . S
C2039 C2037 1.353 . S
C2039 H2095 0.930 . S
C2040 N2041 1.314 . S
C2040 C2045 1.353 . S
C2040 H2046 0.930 . S
N2041 Li2024 1.990 . S
N2041 C2040 1.314 . S
N2041 C2043 1.279 . S
C2042 C2043 1.358 . S
C2042 C2044 1.356 . S
C2042 H2096 0.930 . S
C2043 N2041 1.279 . S
C2043 C2042 1.358 . S
C2043 H2047 0.930 . S
C2044 C2042 1.356 . S
C2044 C2045 1.348 . S
C2045 C2040 1.353 . S
C2045 C2044 1.348 . S
C2045 H2097 0.929 . S
H2046 C2040 0.930 . S
H2047 C2043 0.930 . S
C2048 N2049 1.314 . S
C2048 C2050 1.353 . S
C2048 H2054 0.930 . S
N2049 Li2025 1.990 . S
N2049 C2048 1.314 . S
N2049 C2052 1.279 . S
C2050 C2048 1.353 . S
C2050 C2053 1.348 . S
C2050 H2098 0.929 . S
C2051 C2052 1.358 . S
C2051 C2053 1.356 . S
C2051 H2099 0.930 . S
C2052 N2049 1.279 . S
C2052 C2051 1.358 . S
C2052 H2055 0.930 . S
C2053 C2050 1.348 . S
C2053 C2051 1.356 . S
H2054 C2048 0.930 . S
H2055 C2052 0.930 . S
C2056 C2058 1.348 . S
C2056 C2059 1.356 . S
C2056 O2086 1.325 . S
N2057 C2060 1.314 . S
N2057 C2061 1.279 . S
C2058 C2056 1.348 . S
C2058 C2060 1.353 . S
C2058 H2100 0.929 . S
C2059 C2056 1.356 . S
C2059 C2061 1.358 . S
C2059 H2101 0.930 . S
C2060 N2057 1.314 . S
C2060 C2058 1.353 . S
C2060 H2102 0.930 . S
C2061 N2057 1.279 . S
C2061 C2059 1.358 . S
C2061 H2103 0.930 . S
C2062 C2063 1.348 . S
C2062 C2064 1.356 . S
C2062 O2087 1.325 . S
C2063 C2062 1.348 . S
C2063 C2065 1.353 . S
C2063 H2104 0.929 . S
C2064 C2062 1.356 . S
C2064 C2066 1.358 . S
C2064 H2105 0.930 . S
C2065 C2063 1.353 . S
C2065 N2067 1.314 . S
C2065 H2106 0.930 . S
C2066 C2064 1.358 . S
C2066 N2067 1.279 . S
C2066 H2107 0.930 . S
N2067 C2065 1.314 . S
N2067 C2066 1.279 . S
C2068 C2070 1.353 . S
C2068 N2071 1.314 . S
C2068 H2074 0.930 . S
C2069 N2071 1.279 . S
C2069 C2072 1.358 . S
C2069 H2075 0.930 . S
C2070 C2068 1.353 . S
C2070 C2073 1.348 . S
C2070 H2108 0.929 . S
N2071 Li2026 1.990 . S
N2071 C2068 1.314 . S
N2071 C2069 1.279 . S
C2072 C2069 1.358 . S
C2072 C2073 1.356 . S
C2072 H2109 0.930 . S
C2073 C2070 1.348 . S
C2073 C2072 1.356 . S
H2074 C2068 0.930 . S
H2075 C2069 0.930 . S
C2076 N2077 1.314 . S
C2076 C2078 1.353 . S
C2076 H2082 0.930 . S
N2077 Li2027 1.990 . S
N2077 C2076 1.314 . S
N2077 C2080 1.279 . S
C2078 C2076 1.353 . S
C2078 C2081 1.348 . S
C2078 H2110 0.929 . S
C2079 C2080 1.358 . S
C2079 C2081 1.356 . S
C2079 H2111 0.930 . S
C2080 N2077 1.279 . S
C2080 C2079 1.358 . S
C2080 H2083 0.930 . S
C2081 C2078 1.348 . S
C2081 C2079 1.356 . S
H2082 C2076 0.930 . S
H2083 C2080 0.930 . S
O2084 Li2024 1.956 . S
O2084 Li2025 1.970 . S
O2084 Li2026 1.961 . S
O2084 C2028 1.325 . S
O2085 Li2024 1.970 . S
O2085 Li2025 1.956 . S
O2085 Li2027 1.961 . S
O2085 C2034 1.325 . S
O2086 Li2024 1.961 . S
O2086 Li2026 1.956 . S
O2086 Li2027 1.970 . S
O2086 C2056 1.325 . S
O2087 Li2025 1.961 . S
O2087 Li2026 1.970 . S
O2087 Li2027 1.956 . S
O2087 C2062 1.325 . S
H2088 C2030 0.929 . S
H2089 C2031 0.930 . S
H2090 C2032 0.930 . S
H2091 C2033 0.930 . S
H2092 C2035 0.930 . S
H2093 C2037 0.929 . S
H2094 C2038 0.930 . S
H2095 C2039 0.930 . S
H2096 C2042 0.930 . S
H2097 C2045 0.929 . S
H2098 C2050 0.929 . S
H2099 C2051 0.930 . S
H2100 C2058 0.929 . S
H2101 C2059 0.930 . S
H2102 C2060 0.930 . S
H2103 C2061 0.930 . S
H2104 C2063 0.929 . S
H2105 C2064 0.930 . S
H2106 C2065 0.930 . S
H2107 C2066 0.930 . S
H2108 C2070 0.929 . S
H2109 C2072 0.930 . S
H2110 C2078 0.929 . S
H2111 C2079 0.930 . S
C2112 C2113 1.391 . S
C2112 C2114 1.394 . S
C2112 H2128 0.931 . S
C2113 C2112 1.391 . S
C2113 C2117 1.376 . S
C2114 C2112 1.394 . S
C2114 C2115 1.369 . S
C2114 C2118 1.540 . S
C2115 C2114 1.369 . S
C2115 C2116 1.410 . S
C2115 C2123 1.503 1_545 S
C2116 C2115 1.410 . S
C2116 C2117 1.392 . S
C2116 C2119 1.511 . S
C2117 C2113 1.376 . S
C2117 C2116 1.392 . S
C2117 H2129 0.929 . S
C2118 C2114 1.540 . S
C2118 H2130 0.922 1_545 S
C2118 H2131 0.975 . S
C2118 H2132 0.976 . S
C2119 C2116 1.511 . S
C2119 H2133 0.961 . S
C2119 H2134 0.961 . S
C2119 H2135 0.961 . S
C2120 C2121 1.370 . S
C2120 C2122 1.363 . S
C2120 H2136 0.931 . S
C2121 C2120 1.370 . S
C2121 C2125 1.408 . S
C2122 C2120 1.363 . S
C2122 C2123 1.370 . S
C2122 C2126 1.450 1_565 S
C2123 C2115 1.503 1_565 S
C2123 C2122 1.370 . S
C2123 C2124 1.403 . S
C2124 C2123 1.403 . S
C2124 C2125 1.404 . S
C2124 C2127 1.539 . S
C2125 C2121 1.408 . S
C2125 C2124 1.404 . S
C2125 H2137 0.930 . S
C2126 C2122 1.450 1_545 S
C2126 H2138 1.011 . S
C2126 H2139 0.993 . S
C2126 H2140 0.956 1_545 S
C2127 C2124 1.539 . S
C2127 H2141 0.958 . S
C2127 H2142 0.961 . S
C2127 H2143 0.960 . S
H2128 C2112 0.931 . S
H2129 C2117 0.929 . S
H2130 C2118 0.922 1_565 S
H2131 C2118 0.975 . S
H2132 C2118 0.976 . S
H2133 C2119 0.961 . S
H2134 C2119 0.961 . S
H2135 C2119 0.961 . S
H2136 C2120 0.931 . S
H2137 C2125 0.930 . S
H2138 C2126 1.011 . S
H2139 C2126 0.993 . S
H2140 C2126 0.956 1_565 S
H2141 C2127 0.958 . S
H2142 C2127 0.961 . S
H2143 C2127 0.960 . S
C2144 C2145 1.391 . S
C2144 C2146 1.394 . S
C2144 H2160 0.931 . S
C2145 C2144 1.391 . S
C2145 C2149 1.376 . S
C2146 C2144 1.394 . S
C2146 C2147 1.369 . S
C2146 C2150 1.531 . S
C2147 C2146 1.369 . S
C2147 C2148 1.410 . S
C2147 C2155 1.503 . S
C2148 C2147 1.410 . S
C2148 C2149 1.392 . S
C2148 C2151 1.511 . S
C2149 C2145 1.376 . S
C2149 C2148 1.392 . S
C2149 H2161 0.929 . S
C2150 C2146 1.531 . S
C2150 H2162 0.960 . S
C2150 H2163 0.962 . S
C2150 H2164 0.960 . S
C2151 C2148 1.511 . S
C2151 H2165 0.961 . S
C2151 H2166 0.961 . S
C2151 H2167 0.961 . S
C2152 C2153 1.370 . S
C2152 C2154 1.363 . S
C2152 H2168 0.931 . S
C2153 C2152 1.370 . S
C2153 C2157 1.408 . S
C2154 C2152 1.363 . S
C2154 C2155 1.370 . S
C2154 C2158 1.524 . S
C2155 C2147 1.503 . S
C2155 C2154 1.370 . S
C2155 C2156 1.403 . S
C2156 C2155 1.403 . S
C2156 C2157 1.404 . S
C2156 C2159 1.539 . S
C2157 C2153 1.408 . S
C2157 C2156 1.404 . S
C2157 H2169 0.930 . S
C2158 C2154 1.524 . S
C2158 H2170 0.956 . S
C2158 H2171 0.961 . S
C2158 H2172 0.961 . S
C2159 C2156 1.539 . S
C2159 H2173 0.958 . S
C2159 H2174 0.961 . S
C2159 H2175 0.960 . S
H2160 C2144 0.931 . S
H2161 C2149 0.929 . S
H2162 C2150 0.960 . S
H2163 C2150 0.962 . S
H2164 C2150 0.960 . S
H2165 C2151 0.961 . S
H2166 C2151 0.961 . S
H2167 C2151 0.961 . S
H2168 C2152 0.931 . S
H2169 C2157 0.930 . S
H2170 C2158 0.956 . S
H2171 C2158 0.961 . S
H2172 C2158 0.961 . S
H2173 C2159 0.958 . S
H2174 C2159 0.961 . S
H2175 C2159 0.960 . S
C2176 C2177 1.391 . S
C2176 C2178 1.394 . S
C2176 H2192 0.931 . S
C2177 C2176 1.391 . S
C2177 C2181 1.376 . S
C2178 C2176 1.394 . S
C2178 C2179 1.369 . S
C2178 C2182 1.531 1_655 S
C2179 C2178 1.369 . S
C2179 C2180 1.410 . S
C2179 C2187 1.503 1_655 S
C2180 C2179 1.410 . S
C2180 C2181 1.392 . S
C2180 C2183 1.511 . S
C2181 C2177 1.376 . S
C2181 C2180 1.392 . S
C2181 H2193 0.929 . S
C2182 C2178 1.531 1_455 S
C2182 H2194 0.960 . S
C2182 H2195 0.962 . S
C2182 H2196 0.960 1_455 S
C2183 C2180 1.511 . S
C2183 H2197 0.961 . S
C2183 H2198 0.961 . S
C2183 H2199 0.961 . S
C2184 C2185 1.370 . S
C2184 C2186 1.363 . S
C2184 H2200 0.931 . S
C2185 C2184 1.370 . S
C2185 C2189 1.408 . S
C2186 C2184 1.363 . S
C2186 C2187 1.370 . S
C2186 C2190 1.542 . S
C2187 C2179 1.503 1_455 S
C2187 C2186 1.370 . S
C2187 C2188 1.403 . S
C2188 C2187 1.403 . S
C2188 C2189 1.404 . S
C2188 C2191 1.539 . S
C2189 C2185 1.408 . S
C2189 C2188 1.404 . S
C2189 H2201 0.930 . S
C2190 C2186 1.542 . S
C2190 H2202 0.962 1_455 S
C2190 H2203 0.898 1_455 S
C2190 H2204 1.004 . S
C2191 C2188 1.539 . S
C2191 H2205 0.958 . S
C2191 H2206 0.961 . S
C2191 H2207 0.960 . S
H2192 C2176 0.931 . S
H2193 C2181 0.929 . S
H2194 C2182 0.960 . S
H2195 C2182 0.962 . S
H2196 C2182 0.960 1_655 S
H2197 C2183 0.961 . S
H2198 C2183 0.961 . S
H2199 C2183 0.961 . S
H2200 C2184 0.931 . S
H2201 C2189 0.930 . S
H2202 C2190 0.962 1_655 S
H2203 C2190 0.898 1_655 S
H2204 C2190 1.004 . S
H2205 C2191 0.958 . S
H2206 C2191 0.961 . S
H2207 C2191 0.960 . S
C2208 C2209 1.391 . S
C2208 C2210 1.394 . S
C2208 H2224 0.931 . S
C2209 C2208 1.391 . S
C2209 C2213 1.376 . S
C2210 C2208 1.394 . S
C2210 C2211 1.369 . S
C2210 C2214 1.546 . S
C2211 C2210 1.369 . S
C2211 C2212 1.410 . S
C2211 C2219 1.503 1_565 S
C2212 C2211 1.410 . S
C2212 C2213 1.392 . S
C2212 C2215 1.511 . S
C2213 C2209 1.376 . S
C2213 C2212 1.392 . S
C2213 H2225 0.929 . S
C2214 C2210 1.546 . S
C2214 H2226 0.899 1_565 S
C2214 H2227 0.971 . S
C2214 H2228 0.986 . S
C2215 C2212 1.511 . S
C2215 H2229 0.961 . S
C2215 H2230 0.961 . S
C2215 H2231 0.961 . S
C2216 C2217 1.370 . S
C2216 C2218 1.363 . S
C2216 H2232 0.931 . S
C2217 C2216 1.370 . S
C2217 C2221 1.408 . S
C2218 C2216 1.363 . S
C2218 C2219 1.370 . S
C2218 C2222 1.524 1_545 S
C2219 C2211 1.503 1_545 S
C2219 C2218 1.370 . S
C2219 C2220 1.403 . S
C2220 C2219 1.403 . S
C2220 C2221 1.404 . S
C2220 C2223 1.539 . S
C2221 C2217 1.408 . S
C2221 C2220 1.404 . S
C2221 H2233 0.930 . S
C2222 C2218 1.524 1_565 S
C2222 H2234 0.956 . S
C2222 H2235 0.961 . S
C2222 H2236 0.961 1_565 S
C2223 C2220 1.539 . S
C2223 H2237 0.958 . S
C2223 H2238 0.961 . S
C2223 H2239 0.960 . S
H2224 C2208 0.931 . S
H2225 C2213 0.929 . S
H2226 C2214 0.899 1_545 S
H2227 C2214 0.971 . S
H2228 C2214 0.986 . S
H2229 C2215 0.961 . S
H2230 C2215 0.961 . S
H2231 C2215 0.961 . S
H2232 C2216 0.931 . S
H2233 C2221 0.930 . S
H2234 C2222 0.956 . S
H2235 C2222 0.961 . S
H2236 C2222 0.961 1_545 S
H2237 C2223 0.958 . S
H2238 C2223 0.961 . S
H2239 C2223 0.960 . S
C2240 C2241 1.391 . S
C2240 C2242 1.394 . S
C2240 H2256 0.931 . S
C2241 C2240 1.391 . S
C2241 C2245 1.376 . S
C2242 C2240 1.394 . S
C2242 C2243 1.369 . S
C2242 C2246 1.531 . S
C2243 C2242 1.369 . S
C2243 C2244 1.410 . S
C2243 C2251 1.503 . S
C2244 C2243 1.410 . S
C2244 C2245 1.392 . S
C2244 C2247 1.511 . S
C2245 C2241 1.376 . S
C2245 C2244 1.392 . S
C2245 H2257 0.929 . S
C2246 C2242 1.531 . S
C2246 H2258 0.960 . S
C2246 H2259 0.962 . S
C2246 H2260 0.960 . S
C2247 C2244 1.511 . S
C2247 H2261 0.961 . S
C2247 H2262 0.961 . S
C2247 H2263 0.961 . S
C2248 C2249 1.370 . S
C2248 C2250 1.363 . S
C2248 H2264 0.931 . S
C2249 C2248 1.370 . S
C2249 C2253 1.408 . S
C2250 C2248 1.363 . S
C2250 C2251 1.370 . S
C2250 C2254 1.524 . S
C2251 C2243 1.503 . S
C2251 C2250 1.370 . S
C2251 C2252 1.403 . S
C2252 C2251 1.403 . S
C2252 C2253 1.404 . S
C2252 C2255 1.539 . S
C2253 C2249 1.408 . S
C2253 C2252 1.404 . S
C2253 H2265 0.930 . S
C2254 C2250 1.524 . S
C2254 H2266 0.956 . S
C2254 H2267 0.961 . S
C2254 H2268 0.961 . S
C2255 C2252 1.539 . S
C2255 H2269 0.958 . S
C2255 H2270 0.961 . S
C2255 H2271 0.960 . S
H2256 C2240 0.931 . S
H2257 C2245 0.929 . S
H2258 C2246 0.960 . S
H2259 C2246 0.962 . S
H2260 C2246 0.960 . S
H2261 C2247 0.961 . S
H2262 C2247 0.961 . S
H2263 C2247 0.961 . S
H2264 C2248 0.931 . S
H2265 C2253 0.930 . S
H2266 C2254 0.956 . S
H2267 C2254 0.961 . S
H2268 C2254 0.961 . S
H2269 C2255 0.958 . S
H2270 C2255 0.961 . S
H2271 C2255 0.960 . S
C2272 C2273 1.391 . S
C2272 C2274 1.394 . S
C2272 H2288 0.931 . S
C2273 C2272 1.391 . S
C2273 C2277 1.376 . S
C2274 C2272 1.394 . S
C2274 C2275 1.369 . S
C2274 C2278 1.531 . S
C2275 C2274 1.369 . S
C2275 C2276 1.410 . S
C2275 C2283 1.503 1_455 S
C2276 C2275 1.410 . S
C2276 C2277 1.392 . S
C2276 C2279 1.511 1_455 S
C2277 C2273 1.376 . S
C2277 C2276 1.392 . S
C2277 H2289 0.929 . S
C2278 C2274 1.531 . S
C2278 H2290 0.960 . S
C2278 H2291 0.962 . S
C2278 H2292 0.960 . S
C2279 C2276 1.511 1_655 S
C2279 H2293 0.961 1_655 S
C2279 H2294 0.961 . S
C2279 H2295 0.961 . S
C2280 C2281 1.370 . S
C2280 C2282 1.363 . S
C2280 H2296 0.931 . S
C2281 C2280 1.370 . S
C2281 C2285 1.408 . S
C2282 C2280 1.363 . S
C2282 C2283 1.370 . S
C2282 C2286 1.524 . S
C2283 C2275 1.503 1_655 S
C2283 C2282 1.370 . S
C2283 C2284 1.403 . S
C2284 C2283 1.403 . S
C2284 C2285 1.404 . S
C2284 C2287 1.539 . S
C2285 C2281 1.408 . S
C2285 C2284 1.404 . S
C2285 H2297 0.930 . S
C2286 C2282 1.524 . S
C2286 H2298 0.956 1_655 S
C2286 H2299 0.961 1_655 S
C2286 H2300 0.961 . S
C2287 C2284 1.539 . S
C2287 H2301 0.958 . S
C2287 H2302 0.961 . S
C2287 H2303 0.960 . S
H2288 C2272 0.931 . S
H2289 C2277 0.929 . S
H2290 C2278 0.960 . S
H2291 C2278 0.962 . S
H2292 C2278 0.960 . S
H2293 C2279 0.961 1_455 S
H2294 C2279 0.961 . S
H2295 C2279 0.961 . S
H2296 C2280 0.931 . S
H2297 C2285 0.930 . S
H2298 C2286 0.956 1_455 S
H2299 C2286 0.961 1_455 S
H2300 C2286 0.961 . S
H2301 C2287 0.958 . S
H2302 C2287 0.961 . S
H2303 C2287 0.960 . S
C2304 C2305 1.391 . S
C2304 C2306 1.394 . S
C2304 H2320 0.931 . S
C2305 C2304 1.391 . S
C2305 C2309 1.376 . S
C2306 C2304 1.394 . S
C2306 C2307 1.369 . S
C2306 C2310 1.531 . S
C2307 C2306 1.369 . S
C2307 C2308 1.410 . S
C2307 C2315 1.503 1_565 S
C2308 C2307 1.410 . S
C2308 C2309 1.392 . S
C2308 C2311 1.511 . S
C2309 C2305 1.376 . S
C2309 C2308 1.392 . S
C2309 H2321 0.929 . S
C2310 C2306 1.531 . S
C2310 H2322 0.960 . S
C2310 H2323 0.962 . S
C2310 H2324 0.960 . S
C2311 C2308 1.511 . S
C2311 H2325 0.961 . S
C2311 H2326 0.961 1_565 S
C2311 H2327 0.961 . S
C2312 C2313 1.370 . S
C2312 C2314 1.363 . S
C2312 H2328 0.931 . S
C2313 C2312 1.370 . S
C2313 C2317 1.408 . S
C2314 C2312 1.363 . S
C2314 C2315 1.370 . S
C2314 C2318 1.524 . S
C2315 C2307 1.503 1_545 S
C2315 C2314 1.370 . S
C2315 C2316 1.403 . S
C2316 C2315 1.403 . S
C2316 C2317 1.404 . S
C2316 C2319 1.539 . S
C2317 C2313 1.408 . S
C2317 C2316 1.404 . S
C2317 H2329 0.930 . S
C2318 C2314 1.524 . S
C2318 H2330 0.956 . S
C2318 H2331 0.961 . S
C2318 H2332 0.961 . S
C2319 C2316 1.539 . S
C2319 H2333 0.958 1_545 S
C2319 H2334 0.961 . S
C2319 H2335 0.960 1_545 S
H2320 C2304 0.931 . S
H2321 C2309 0.929 . S
H2322 C2310 0.960 . S
H2323 C2310 0.962 . S
H2324 C2310 0.960 . S
H2325 C2311 0.961 . S
H2326 C2311 0.961 1_545 S
H2327 C2311 0.961 . S
H2328 C2312 0.931 . S
H2329 C2317 0.930 . S
H2330 C2318 0.956 . S
H2331 C2318 0.961 . S
H2332 C2318 0.961 . S
H2333 C2319 0.958 1_565 S
H2334 C2319 0.961 . S
H2335 C2319 0.960 1_565 S
C2336 C2337 1.391 . S
C2336 C2338 1.394 . S
C2336 H2352 0.931 . S
C2337 C2336 1.391 . S
C2337 C2341 1.376 . S
C2338 C2336 1.394 . S
C2338 C2339 1.369 . S
C2338 C2342 1.531 . S
C2339 C2338 1.369 . S
C2339 C2340 1.410 . S
C2339 C2347 1.503 . S
C2340 C2339 1.410 . S
C2340 C2341 1.392 . S
C2340 C2343 1.511 . S
C2341 C2337 1.376 . S
C2341 C2340 1.392 . S
C2341 H2353 0.929 . S
C2342 C2338 1.531 . S
C2342 H2354 0.960 . S
C2342 H2355 0.962 . S
C2342 H2356 0.960 . S
C2343 C2340 1.511 . S
C2343 H2357 0.961 . S
C2343 H2358 0.961 . S
C2343 H2359 0.961 . S
C2344 C2345 1.370 . S
C2344 C2346 1.363 . S
C2344 H2360 0.931 . S
C2345 C2344 1.370 . S
C2345 C2349 1.408 . S
C2346 C2344 1.363 . S
C2346 C2347 1.370 . S
C2346 C2350 1.524 . S
C2347 C2339 1.503 . S
C2347 C2346 1.370 . S
C2347 C2348 1.403 . S
C2348 C2347 1.403 . S
C2348 C2349 1.404 . S
C2348 C2351 1.539 . S
C2349 C2345 1.408 . S
C2349 C2348 1.404 . S
C2349 H2361 0.930 . S
C2350 C2346 1.524 . S
C2350 H2362 0.956 . S
C2350 H2363 0.961 . S
C2350 H2364 0.961 . S
C2351 C2348 1.539 . S
C2351 H2365 0.958 . S
C2351 H2366 0.961 . S
C2351 H2367 0.960 . S
H2352 C2336 0.931 . S
H2353 C2341 0.929 . S
H2354 C2342 0.960 . S
H2355 C2342 0.962 . S
H2356 C2342 0.960 . S
H2357 C2343 0.961 . S
H2358 C2343 0.961 . S
H2359 C2343 0.961 . S
H2360 C2344 0.931 . S
H2361 C2349 0.930 . S
H2362 C2350 0.956 . S
H2363 C2350 0.961 . S
H2364 C2350 0.961 . S
H2365 C2351 0.958 . S
H2366 C2351 0.961 . S
H2367 C2351 0.960 . S
C2368 C2369 1.391 . S
C2368 C2370 1.394 . S
C2368 H2384 0.931 . S
C2369 C2368 1.391 . S
C2369 C2373 1.376 . S
C2370 C2368 1.394 . S
C2370 C2371 1.369 . S
C2370 C2374 1.531 . S
C2371 C2370 1.369 . S
C2371 C2372 1.410 . S
C2371 C2379 1.503 1_655 S
C2372 C2371 1.410 . S
C2372 C2373 1.392 . S
C2372 C2375 1.511 . S
C2373 C2369 1.376 . S
C2373 C2372 1.392 . S
C2373 H2385 0.929 . S
C2374 C2370 1.531 . S
C2374 H2386 0.902 1_655 S
C2374 H2387 0.962 . S
C2374 H2388 0.960 . S
C2375 C2372 1.511 . S
C2375 H2389 0.961 . S
C2375 H2390 0.961 1_655 S
C2375 H2391 0.961 1_655 S
C2376 C2377 1.370 . S
C2376 C2378 1.363 . S
C2376 H2392 0.931 . S
C2377 C2376 1.370 . S
C2377 C2381 1.408 . S
C2378 C2376 1.363 . S
C2378 C2379 1.370 . S
C2378 C2382 1.524 1_455 S
C2379 C2371 1.503 1_455 S
C2379 C2378 1.370 . S
C2379 C2380 1.403 . S
C2380 C2379 1.403 . S
C2380 C2381 1.404 . S
C2380 C2383 1.539 . S
C2381 C2377 1.408 . S
C2381 C2380 1.404 . S
C2381 H2393 0.930 . S
C2382 C2378 1.524 1_655 S
C2382 H2394 0.956 . S
C2382 H2395 0.961 . S
C2382 H2396 0.961 1_655 S
C2383 C2380 1.539 . S
C2383 H2397 0.958 . S
C2383 H2398 0.961 . S
C2383 H2399 0.960 . S
H2384 C2368 0.931 . S
H2385 C2373 0.929 . S
H2386 C2374 0.902 1_455 S
H2387 C2374 0.962 . S
H2388 C2374 0.960 . S
H2389 C2375 0.961 . S
H2390 C2375 0.961 1_455 S
H2391 C2375 0.961 1_455 S
H2392 C2376 0.931 . S
H2393 C2381 0.930 . S
H2394 C2382 0.956 . S
H2395 C2382 0.961 . S
H2396 C2382 0.961 1_455 S
H2397 C2383 0.958 . S
H2398 C2383 0.961 . S
H2399 C2383 0.960 . S
C2400 C2401 1.391 . S
C2400 C2402 1.394 . S
C2400 H2416 0.931 . S
C2401 C2400 1.391 . S
C2401 C2405 1.376 . S
C2402 C2400 1.394 . S
C2402 C2403 1.369 . S
C2402 C2406 1.531 1_545 S
C2403 C2402 1.369 . S
C2403 C2404 1.410 . S
C2403 C2411 1.503 1_545 S
C2404 C2403 1.410 . S
C2404 C2405 1.392 . S
C2404 C2407 1.511 . S
C2405 C2401 1.376 . S
C2405 C2404 1.392 . S
C2405 H2417 0.929 . S
C2406 C2402 1.531 1_565 S
C2406 H2418 0.960 . S
C2406 H2419 0.962 . S
C2406 H2420 0.960 1_565 S
C2407 C2404 1.511 . S
C2407 H2421 0.961 . S
C2407 H2422 0.961 . S
C2407 H2423 0.961 . S
C2408 C2409 1.370 . S
C2408 C2410 1.363 . S
C2408 H2424 0.931 . S
C2409 C2408 1.370 . S
C2409 C2413 1.408 . S
C2410 C2408 1.363 . S
C2410 C2411 1.370 . S
C2410 C2414 1.524 . S
C2411 C2403 1.503 1_565 S
C2411 C2410 1.370 . S
C2411 C2412 1.403 . S
C2412 C2411 1.403 . S
C2412 C2413 1.404 . S
C2412 C2415 1.539 . S
C2413 C2409 1.408 . S
C2413 C2412 1.404 . S
C2413 H2425 0.930 . S
C2414 C2410 1.524 . S
C2414 H2426 0.956 . S
C2414 H2427 0.961 1_565 S
C2414 H2428 0.961 . S
C2415 C2412 1.539 . S
C2415 H2429 0.958 . S
C2415 H2430 0.961 . S
C2415 H2431 0.960 1_565 S
H2416 C2400 0.931 . S
H2417 C2405 0.929 . S
H2418 C2406 0.960 . S
H2419 C2406 0.962 . S
H2420 C2406 0.960 1_545 S
H2421 C2407 0.961 . S
H2422 C2407 0.961 . S
H2423 C2407 0.961 . S
H2424 C2408 0.931 . S
H2425 C2413 0.930 . S
H2426 C2414 0.956 . S
H2427 C2414 0.961 1_545 S
H2428 C2414 0.961 . S
H2429 C2415 0.958 . S
H2430 C2415 0.961 . S
H2431 C2415 0.960 1_545 S
C2432 C2433 1.391 . S
C2432 C2434 1.394 . S
C2432 H2448 0.931 . S
C2433 C2432 1.391 . S
C2433 C2437 1.376 . S
C2434 C2432 1.394 . S
C2434 C2435 1.369 . S
C2434 C2438 1.531 . S
C2435 C2434 1.369 . S
C2435 C2436 1.410 . S
C2435 C2443 1.503 . S
C2436 C2435 1.410 . S
C2436 C2437 1.392 . S
C2436 C2439 1.511 . S
C2437 C2433 1.376 . S
C2437 C2436 1.392 . S
C2437 H2449 0.929 . S
C2438 C2434 1.531 . S
C2438 H2450 0.960 . S
C2438 H2451 0.962 . S
C2438 H2452 0.960 . S
C2439 C2436 1.511 . S
C2439 H2453 0.961 . S
C2439 H2454 0.961 . S
C2439 H2455 0.961 . S
C2440 C2441 1.370 . S
C2440 C2442 1.363 . S
C2440 H2456 0.931 . S
C2441 C2440 1.370 . S
C2441 C2445 1.408 . S
C2442 C2440 1.363 . S
C2442 C2443 1.370 . S
C2442 C2446 1.524 . S
C2443 C2435 1.503 . S
C2443 C2442 1.370 . S
C2443 C2444 1.403 . S
C2444 C2443 1.403 . S
C2444 C2445 1.404 . S
C2444 C2447 1.539 . S
C2445 C2441 1.408 . S
C2445 C2444 1.404 . S
C2445 H2457 0.930 . S
C2446 C2442 1.524 . S
C2446 H2458 0.956 . S
C2446 H2459 0.961 . S
C2446 H2460 0.961 . S
C2447 C2444 1.539 . S
C2447 H2461 0.958 . S
C2447 H2462 0.961 . S
C2447 H2463 0.960 . S
H2448 C2432 0.931 . S
H2449 C2437 0.929 . S
H2450 C2438 0.960 . S
H2451 C2438 0.962 . S
H2452 C2438 0.960 . S
H2453 C2439 0.961 . S
H2454 C2439 0.961 . S
H2455 C2439 0.961 . S
H2456 C2440 0.931 . S
H2457 C2445 0.930 . S
H2458 C2446 0.956 . S
H2459 C2446 0.961 . S
H2460 C2446 0.961 . S
H2461 C2447 0.958 . S
H2462 C2447 0.961 . S
H2463 C2447 0.960 . S
C2464 C2465 1.391 . S
C2464 C2466 1.394 . S
C2464 H2480 0.931 . S
C2465 C2464 1.391 . S
C2465 C2469 1.376 . S
C2466 C2464 1.394 . S
C2466 C2467 1.369 . S
C2466 C2470 1.531 . S
C2467 C2466 1.369 . S
C2467 C2468 1.410 . S
C2467 C2475 1.503 1_455 S
C2468 C2467 1.410 . S
C2468 C2469 1.392 . S
C2468 C2471 1.511 . S
C2469 C2465 1.376 . S
C2469 C2468 1.392 . S
C2469 H2481 0.929 . S
C2470 C2466 1.531 . S
C2470 H2482 0.960 1_455 S
C2470 H2483 0.962 . S
C2470 H2484 0.960 . S
C2471 C2468 1.511 . S
C2471 H2485 0.961 . S
C2471 H2486 0.961 . S
C2471 H2487 0.961 . S
C2472 C2473 1.370 . S
C2472 C2474 1.363 . S
C2472 H2488 0.931 . S
C2473 C2472 1.370 . S
C2473 C2477 1.408 . S
C2474 C2472 1.363 . S
C2474 C2475 1.370 . S
C2474 C2478 1.524 1_655 S
C2475 C2467 1.503 1_655 S
C2475 C2474 1.370 . S
C2475 C2476 1.403 . S
C2476 C2475 1.403 . S
C2476 C2477 1.404 . S
C2476 C2479 1.539 . S
C2477 C2473 1.408 . S
C2477 C2476 1.404 . S
C2477 H2489 0.930 . S
C2478 C2474 1.524 1_455 S
C2478 H2490 0.956 . S
C2478 H2491 0.961 . S
C2478 H2492 0.961 1_455 S
C2479 C2476 1.539 . S
C2479 H2493 0.958 . S
C2479 H2494 0.961 . S
C2479 H2495 0.960 . S
H2480 C2464 0.931 . S
H2481 C2469 0.929 . S
H2482 C2470 0.960 1_655 S
H2483 C2470 0.962 . S
H2484 C2470 0.960 . S
H2485 C2471 0.961 . S
H2486 C2471 0.961 . S
H2487 C2471 0.961 . S
H2488 C2472 0.931 . S
H2489 C2477 0.930 . S
H2490 C2478 0.956 . S
H2491 C2478 0.961 . S
H2492 C2478 0.961 1_655 S
H2493 C2479 0.958 . S
H2494 C2479 0.961 . S
H2495 C2479 0.960 . S
C2496 C2497 1.391 . S
C2496 C2498 1.394 . S
C2496 H2512 0.931 . S
C2497 C2496 1.391 . S
C2497 C2501 1.376 . S
C2498 C2496 1.394 . S
C2498 C2499 1.369 . S
C2498 C2502 1.531 . S
C2499 C2498 1.369 . S
C2499 C2500 1.410 . S
C2499 C2507 1.503 . S
C2500 C2499 1.410 . S
C2500 C2501 1.392 . S
C2500 C2503 1.511 . S
C2501 C2497 1.376 . S
C2501 C2500 1.392 . S
C2501 H2513 0.929 . S
C2502 C2498 1.531 . S
C2502 H2514 0.960 . S
C2502 H2515 0.962 . S
C2502 H2516 0.960 . S
C2503 C2500 1.511 . S
C2503 H2517 0.961 . S
C2503 H2518 0.961 . S
C2503 H2519 0.961 . S
C2504 C2505 1.370 . S
C2504 C2506 1.363 . S
C2504 H2520 0.931 . S
C2505 C2504 1.370 . S
C2505 C2509 1.408 . S
C2506 C2504 1.363 . S
C2506 C2507 1.370 . S
C2506 C2510 1.524 . S
C2507 C2499 1.503 . S
C2507 C2506 1.370 . S
C2507 C2508 1.403 . S
C2508 C2507 1.403 . S
C2508 C2509 1.404 . S
C2508 C2511 1.539 . S
C2509 C2505 1.408 . S
C2509 C2508 1.404 . S
C2509 H2521 0.930 . S
C2510 C2506 1.524 . S
C2510 H2522 0.956 . S
C2510 H2523 0.961 . S
C2510 H2524 0.961 . S
C2511 C2508 1.539 . S
C2511 H2525 0.958 . S
C2511 H2526 0.961 . S
C2511 H2527 0.960 . S
H2512 C2496 0.931 . S
H2513 C2501 0.929 . S
H2514 C2502 0.960 . S
H2515 C2502 0.962 . S
H2516 C2502 0.960 . S
H2517 C2503 0.961 . S
H2518 C2503 0.961 . S
H2519 C2503 0.961 . S
H2520 C2504 0.931 . S
H2521 C2509 0.930 . S
H2522 C2510 0.956 . S
H2523 C2510 0.961 . S
H2524 C2510 0.961 . S
H2525 C2511 0.958 . S
H2526 C2511 0.961 . S
H2527 C2511 0.960 . S
C2528 C2529 1.391 . S
C2528 C2530 1.394 . S
C2528 H2544 0.931 . S
C2529 C2528 1.391 . S
C2529 C2533 1.376 . S
C2530 C2528 1.394 . S
C2530 C2531 1.369 . S
C2530 C2534 1.531 . S
C2531 C2530 1.369 . S
C2531 C2532 1.410 . S
C2531 C2539 1.503 . S
C2532 C2531 1.410 . S
C2532 C2533 1.392 . S
C2532 C2535 1.511 . S
C2533 C2529 1.376 . S
C2533 C2532 1.392 . S
C2533 H2545 0.929 . S
C2534 C2530 1.531 . S
C2534 H2546 0.960 . S
C2534 H2547 0.962 . S
C2534 H2548 0.960 . S
C2535 C2532 1.511 . S
C2535 H2549 0.961 . S
C2535 H2550 0.961 . S
C2535 H2551 0.961 . S
C2536 C2537 1.370 . S
C2536 C2538 1.363 . S
C2536 H2552 0.931 . S
C2537 C2536 1.370 . S
C2537 C2541 1.408 . S
C2538 C2536 1.363 . S
C2538 C2539 1.370 . S
C2538 C2542 1.524 . S
C2539 C2531 1.503 . S
C2539 C2538 1.370 . S
C2539 C2540 1.403 . S
C2540 C2539 1.403 . S
C2540 C2541 1.404 . S
C2540 C2543 1.539 . S
C2541 C2537 1.408 . S
C2541 C2540 1.404 . S
C2541 H2553 0.930 . S
C2542 C2538 1.524 . S
C2542 H2554 0.956 . S
C2542 H2555 0.961 . S
C2542 H2556 0.961 . S
C2543 C2540 1.539 . S
C2543 H2557 0.958 . S
C2543 H2558 0.961 . S
C2543 H2559 0.960 . S
H2544 C2528 0.931 . S
H2545 C2533 0.929 . S
H2546 C2534 0.960 . S
H2547 C2534 0.962 . S
H2548 C2534 0.960 . S
H2549 C2535 0.961 . S
H2550 C2535 0.961 . S
H2551 C2535 0.961 . S
H2552 C2536 0.931 . S
H2553 C2541 0.930 . S
H2554 C2542 0.956 . S
H2555 C2542 0.961 . S
H2556 C2542 0.961 . S
H2557 C2543 0.958 . S
H2558 C2543 0.961 . S
H2559 C2543 0.960 . S
C2560 C2561 1.391 . S
C2560 C2562 1.394 . S
C2560 H2576 0.931 . S
C2561 C2560 1.391 . S
C2561 C2565 1.376 . S
C2562 C2560 1.394 . S
C2562 C2563 1.369 . S
C2562 C2566 1.531 . S
C2563 C2562 1.369 . S
C2563 C2564 1.410 . S
C2563 C2571 1.503 . S
C2564 C2563 1.410 . S
C2564 C2565 1.392 . S
C2564 C2567 1.511 . S
C2565 C2561 1.376 . S
C2565 C2564 1.392 . S
C2565 H2577 0.929 . S
C2566 C2562 1.531 . S
C2566 H2578 0.960 . S
C2566 H2579 0.962 . S
C2566 H2580 0.960 . S
C2567 C2564 1.511 . S
C2567 H2581 0.961 . S
C2567 H2582 0.961 . S
C2567 H2583 0.961 . S
C2568 C2569 1.370 . S
C2568 C2570 1.363 . S
C2568 H2584 0.931 . S
C2569 C2568 1.370 . S
C2569 C2573 1.408 . S
C2570 C2568 1.363 . S
C2570 C2571 1.370 . S
C2570 C2574 1.524 . S
C2571 C2563 1.503 . S
C2571 C2570 1.370 . S
C2571 C2572 1.403 . S
C2572 C2571 1.403 . S
C2572 C2573 1.404 . S
C2572 C2575 1.539 . S
C2573 C2569 1.408 . S
C2573 C2572 1.404 . S
C2573 H2585 0.930 . S
C2574 C2570 1.524 . S
C2574 H2586 0.956 . S
C2574 H2587 0.961 . S
C2574 H2588 0.961 . S
C2575 C2572 1.539 . S
C2575 H2589 0.958 . S
C2575 H2590 0.961 . S
C2575 H2591 0.960 . S
H2576 C2560 0.931 . S
H2577 C2565 0.929 . S
H2578 C2566 0.960 . S
H2579 C2566 0.962 . S
H2580 C2566 0.960 . S
H2581 C2567 0.961 . S
H2582 C2567 0.961 . S
H2583 C2567 0.961 . S
H2584 C2568 0.931 . S
H2585 C2573 0.930 . S
H2586 C2574 0.956 . S
H2587 C2574 0.961 . S
H2588 C2574 0.961 . S
H2589 C2575 0.958 . S
H2590 C2575 0.961 . S
H2591 C2575 0.960 . S
C2592 C2593 1.391 . S
C2592 C2594 1.394 . S
C2592 H2608 0.931 . S
C2593 C2592 1.391 . S
C2593 C2597 1.376 . S
C2594 C2592 1.394 . S
C2594 C2595 1.369 . S
C2594 C2598 1.531 . S
C2595 C2594 1.369 . S
C2595 C2596 1.410 . S
C2595 C2603 1.503 . S
C2596 C2595 1.410 . S
C2596 C2597 1.392 . S
C2596 C2599 1.511 . S
C2597 C2593 1.376 . S
C2597 C2596 1.392 . S
C2597 H2609 0.929 . S
C2598 C2594 1.531 . S
C2598 H2610 0.960 . S
C2598 H2611 0.962 . S
C2598 H2612 0.960 . S
C2599 C2596 1.511 . S
C2599 H2613 0.961 . S
C2599 H2614 0.961 . S
C2599 H2615 0.961 . S
C2600 C2601 1.370 . S
C2600 C2602 1.363 . S
C2600 H2616 0.931 . S
C2601 C2600 1.370 . S
C2601 C2605 1.408 . S
C2602 C2600 1.363 . S
C2602 C2603 1.370 . S
C2602 C2606 1.524 . S
C2603 C2595 1.503 . S
C2603 C2602 1.370 . S
C2603 C2604 1.403 . S
C2604 C2603 1.403 . S
C2604 C2605 1.404 . S
C2604 C2607 1.539 . S
C2605 C2601 1.408 . S
C2605 C2604 1.404 . S
C2605 H2617 0.930 . S
C2606 C2602 1.524 . S
C2606 H2618 0.956 . S
C2606 H2619 0.961 . S
C2606 H2620 0.961 . S
C2607 C2604 1.539 . S
C2607 H2621 0.958 . S
C2607 H2622 0.961 . S
C2607 H2623 0.960 . S
H2608 C2592 0.931 . S
H2609 C2597 0.929 . S
H2610 C2598 0.960 . S
H2611 C2598 0.962 . S
H2612 C2598 0.960 . S
H2613 C2599 0.961 . S
H2614 C2599 0.961 . S
H2615 C2599 0.961 . S
H2616 C2600 0.931 . S
H2617 C2605 0.930 . S
H2618 C2606 0.956 . S
H2619 C2606 0.961 . S
H2620 C2606 0.961 . S
H2621 C2607 0.958 . S
H2622 C2607 0.961 . S
H2623 C2607 0.960 . S
C2624 C2625 1.391 . S
C2624 C2626 1.394 . S
C2624 H2640 0.931 . S
C2625 C2624 1.391 . S
C2625 C2629 1.376 . S
C2626 C2624 1.394 . S
C2626 C2627 1.369 . S
C2626 C2630 1.531 . S
C2627 C2626 1.369 . S
C2627 C2628 1.410 . S
C2627 C2635 1.503 . S
C2628 C2627 1.410 . S
C2628 C2629 1.392 . S
C2628 C2631 1.511 . S
C2629 C2625 1.376 . S
C2629 C2628 1.392 . S
C2629 H2641 0.929 . S
C2630 C2626 1.531 . S
C2630 H2642 0.960 . S
C2630 H2643 0.962 . S
C2630 H2644 0.960 . S
C2631 C2628 1.511 . S
C2631 H2645 0.961 . S
C2631 H2646 0.961 . S
C2631 H2647 0.961 . S
C2632 C2633 1.370 . S
C2632 C2634 1.363 . S
C2632 H2648 0.931 . S
C2633 C2632 1.370 . S
C2633 C2637 1.408 . S
C2634 C2632 1.363 . S
C2634 C2635 1.370 . S
C2634 C2638 1.524 . S
C2635 C2627 1.503 . S
C2635 C2634 1.370 . S
C2635 C2636 1.403 . S
C2636 C2635 1.403 . S
C2636 C2637 1.404 . S
C2636 C2639 1.539 . S
C2637 C2633 1.408 . S
C2637 C2636 1.404 . S
C2637 H2649 0.930 . S
C2638 C2634 1.524 . S
C2638 H2650 0.956 . S
C2638 H2651 0.961 . S
C2638 H2652 0.961 . S
C2639 C2636 1.539 . S
C2639 H2653 0.958 . S
C2639 H2654 0.961 . S
C2639 H2655 0.960 . S
H2640 C2624 0.931 . S
H2641 C2629 0.929 . S
H2642 C2630 0.960 . S
H2643 C2630 0.962 . S
H2644 C2630 0.960 . S
H2645 C2631 0.961 . S
H2646 C2631 0.961 . S
H2647 C2631 0.961 . S
H2648 C2632 0.931 . S
H2649 C2637 0.930 . S
H2650 C2638 0.956 . S
H2651 C2638 0.961 . S
H2652 C2638 0.961 . S
H2653 C2639 0.958 . S
H2654 C2639 0.961 . S
H2655 C2639 0.960 . S
C2656 C2657 1.391 . S
C2656 C2658 1.394 . S
C2656 H2672 0.931 . S
C2657 C2656 1.391 . S
C2657 C2661 1.376 . S
C2658 C2656 1.394 . S
C2658 C2659 1.369 . S
C2658 C2662 1.531 . S
C2659 C2658 1.369 . S
C2659 C2660 1.410 . S
C2659 C2667 1.503 . S
C2660 C2659 1.410 . S
C2660 C2661 1.392 . S
C2660 C2663 1.511 . S
C2661 C2657 1.376 . S
C2661 C2660 1.392 . S
C2661 H2673 0.929 . S
C2662 C2658 1.531 . S
C2662 H2674 0.960 . S
C2662 H2675 0.962 . S
C2662 H2676 0.960 . S
C2663 C2660 1.511 . S
C2663 H2677 0.961 . S
C2663 H2678 0.961 . S
C2663 H2679 0.961 . S
C2664 C2665 1.370 . S
C2664 C2666 1.363 . S
C2664 H2680 0.931 . S
C2665 C2664 1.370 . S
C2665 C2669 1.408 . S
C2666 C2664 1.363 . S
C2666 C2667 1.370 . S
C2666 C2670 1.524 . S
C2667 C2659 1.503 . S
C2667 C2666 1.370 . S
C2667 C2668 1.403 . S
C2668 C2667 1.403 . S
C2668 C2669 1.404 . S
C2668 C2671 1.539 . S
C2669 C2665 1.408 . S
C2669 C2668 1.404 . S
C2669 H2681 0.930 . S
C2670 C2666 1.524 . S
C2670 H2682 0.956 . S
C2670 H2683 0.961 . S
C2670 H2684 0.961 . S
C2671 C2668 1.539 . S
C2671 H2685 0.958 . S
C2671 H2686 0.961 . S
C2671 H2687 0.960 . S
H2672 C2656 0.931 . S
H2673 C2661 0.929 . S
H2674 C2662 0.960 . S
H2675 C2662 0.962 . S
H2676 C2662 0.960 . S
H2677 C2663 0.961 . S
H2678 C2663 0.961 . S
H2679 C2663 0.961 . S
H2680 C2664 0.931 . S
H2681 C2669 0.930 . S
H2682 C2670 0.956 . S
H2683 C2670 0.961 . S
H2684 C2670 0.961 . S
H2685 C2671 0.958 . S
H2686 C2671 0.961 . S
H2687 C2671 0.960 . S
C2688 C2689 1.391 . S
C2688 C2690 1.394 . S
C2688 H2704 0.931 . S
C2689 C2688 1.391 . S
C2689 C2693 1.376 . S
C2690 C2688 1.394 . S
C2690 C2691 1.369 . S
C2690 C2694 1.531 . S
C2691 C2690 1.369 . S
C2691 C2692 1.410 . S
C2691 C2699 1.503 . S
C2692 C2691 1.410 . S
C2692 C2693 1.392 . S
C2692 C2695 1.511 . S
C2693 C2689 1.376 . S
C2693 C2692 1.392 . S
C2693 H2705 0.929 . S
C2694 C2690 1.531 . S
C2694 H2706 0.960 . S
C2694 H2707 0.962 . S
C2694 H2708 0.960 . S
C2695 C2692 1.511 . S
C2695 H2709 0.961 . S
C2695 H2710 0.961 . S
C2695 H2711 0.961 . S
C2696 C2697 1.370 . S
C2696 C2698 1.363 . S
C2696 H2712 0.931 . S
C2697 C2696 1.370 . S
C2697 C2701 1.408 . S
C2698 C2696 1.363 . S
C2698 C2699 1.370 . S
C2698 C2702 1.524 . S
C2699 C2691 1.503 . S
C2699 C2698 1.370 . S
C2699 C2700 1.403 . S
C2700 C2699 1.403 . S
C2700 C2701 1.404 . S
C2700 C2703 1.539 . S
C2701 C2697 1.408 . S
C2701 C2700 1.404 . S
C2701 H2713 0.930 . S
C2702 C2698 1.524 . S
C2702 H2714 0.956 . S
C2702 H2715 0.961 . S
C2702 H2716 0.961 . S
C2703 C2700 1.539 . S
C2703 H2717 0.958 . S
C2703 H2718 0.961 . S
C2703 H2719 0.960 . S
H2704 C2688 0.931 . S
H2705 C2693 0.929 . S
H2706 C2694 0.960 . S
H2707 C2694 0.962 . S
H2708 C2694 0.960 . S
H2709 C2695 0.961 . S
H2710 C2695 0.961 . S
H2711 C2695 0.961 . S
H2712 C2696 0.931 . S
H2713 C2701 0.930 . S
H2714 C2702 0.956 . S
H2715 C2702 0.961 . S
H2716 C2702 0.961 . S
H2717 C2703 0.958 . S
H2718 C2703 0.961 . S
H2719 C2703 0.960 . S
C2720 C2721 1.391 . S
C2720 C2722 1.394 . S
C2720 H2736 0.931 . S
C2721 C2720 1.391 . S
C2721 C2725 1.376 . S
C2722 C2720 1.394 . S
C2722 C2723 1.369 . S
C2722 C2726 1.531 . S
C2723 C2722 1.369 . S
C2723 C2724 1.410 . S
C2723 C2731 1.503 . S
C2724 C2723 1.410 . S
C2724 C2725 1.392 . S
C2724 C2727 1.511 . S
C2725 C2721 1.376 . S
C2725 C2724 1.392 . S
C2725 H2737 0.929 . S
C2726 C2722 1.531 . S
C2726 H2738 0.960 . S
C2726 H2739 0.962 . S
C2726 H2740 0.960 . S
C2727 C2724 1.511 . S
C2727 H2741 0.961 . S
C2727 H2742 0.961 . S
C2727 H2743 0.961 . S
C2728 C2729 1.370 . S
C2728 C2730 1.363 . S
C2728 H2744 0.931 . S
C2729 C2728 1.370 . S
C2729 C2733 1.408 . S
C2730 C2728 1.363 . S
C2730 C2731 1.370 . S
C2730 C2734 1.524 . S
C2731 C2723 1.503 . S
C2731 C2730 1.370 . S
C2731 C2732 1.403 . S
C2732 C2731 1.403 . S
C2732 C2733 1.404 . S
C2732 C2735 1.539 . S
C2733 C2729 1.408 . S
C2733 C2732 1.404 . S
C2733 H2745 0.930 . S
C2734 C2730 1.524 . S
C2734 H2746 0.956 . S
C2734 H2747 0.961 . S
C2734 H2748 0.961 . S
C2735 C2732 1.539 . S
C2735 H2749 0.958 . S
C2735 H2750 0.961 . S
C2735 H2751 0.960 . S
H2736 C2720 0.931 . S
H2737 C2725 0.929 . S
H2738 C2726 0.960 . S
H2739 C2726 0.962 . S
H2740 C2726 0.960 . S
H2741 C2727 0.961 . S
H2742 C2727 0.961 . S
H2743 C2727 0.961 . S
H2744 C2728 0.931 . S
H2745 C2733 0.930 . S
H2746 C2734 0.956 . S
H2747 C2734 0.961 . S
H2748 C2734 0.961 . S
H2749 C2735 0.958 . S
H2750 C2735 0.961 . S
H2751 C2735 0.960 . S
C2752 C2753 1.391 . S
C2752 C2754 1.394 . S
C2752 H2768 0.931 . S
C2753 C2752 1.391 . S
C2753 C2757 1.376 . S
C2754 C2752 1.394 . S
C2754 C2755 1.369 . S
C2754 C2758 1.531 . S
C2755 C2754 1.369 . S
C2755 C2756 1.410 . S
C2755 C2763 1.503 . S
C2756 C2755 1.410 . S
C2756 C2757 1.392 . S
C2756 C2759 1.511 . S
C2757 C2753 1.376 . S
C2757 C2756 1.392 . S
C2757 H2769 0.929 . S
C2758 C2754 1.531 . S
C2758 H2770 0.960 . S
C2758 H2771 0.962 . S
C2758 H2772 0.960 . S
C2759 C2756 1.511 . S
C2759 H2773 0.961 . S
C2759 H2774 0.961 . S
C2759 H2775 0.961 . S
C2760 C2761 1.370 . S
C2760 C2762 1.363 . S
C2760 H2776 0.931 . S
C2761 C2760 1.370 . S
C2761 C2765 1.408 . S
C2762 C2760 1.363 . S
C2762 C2763 1.370 . S
C2762 C2766 1.524 . S
C2763 C2755 1.503 . S
C2763 C2762 1.370 . S
C2763 C2764 1.403 . S
C2764 C2763 1.403 . S
C2764 C2765 1.404 . S
C2764 C2767 1.539 . S
C2765 C2761 1.408 . S
C2765 C2764 1.404 . S
C2765 H2777 0.930 . S
C2766 C2762 1.524 . S
C2766 H2778 0.956 . S
C2766 H2779 0.961 . S
C2766 H2780 0.961 . S
C2767 C2764 1.539 . S
C2767 H2781 0.958 . S
C2767 H2782 0.961 . S
C2767 H2783 0.960 . S
H2768 C2752 0.931 . S
H2769 C2757 0.929 . S
H2770 C2758 0.960 . S
H2771 C2758 0.962 . S
H2772 C2758 0.960 . S
H2773 C2759 0.961 . S
H2774 C2759 0.961 . S
H2775 C2759 0.961 . S
H2776 C2760 0.931 . S
H2777 C2765 0.930 . S
H2778 C2766 0.956 . S
H2779 C2766 0.961 . S
H2780 C2766 0.961 . S
H2781 C2767 0.958 . S
H2782 C2767 0.961 . S
H2783 C2767 0.960 . S
C2784 C2785 1.391 . S
C2784 C2786 1.394 . S
C2784 H2800 0.931 . S
C2785 C2784 1.391 . S
C2785 C2789 1.376 . S
C2786 C2784 1.394 . S
C2786 C2787 1.369 . S
C2786 C2790 1.531 . S
C2787 C2786 1.369 . S
C2787 C2788 1.410 . S
C2787 C2795 1.503 . S
C2788 C2787 1.410 . S
C2788 C2789 1.392 . S
C2788 C2791 1.511 . S
C2789 C2785 1.376 . S
C2789 C2788 1.392 . S
C2789 H2801 0.929 . S
C2790 C2786 1.531 . S
C2790 H2802 0.960 . S
C2790 H2803 0.962 . S
C2790 H2804 0.960 . S
C2791 C2788 1.511 . S
C2791 H2805 0.961 . S
C2791 H2806 0.961 . S
C2791 H2807 0.961 . S
C2792 C2793 1.370 . S
C2792 C2794 1.363 . S
C2792 H2808 0.931 . S
C2793 C2792 1.370 . S
C2793 C2797 1.408 . S
C2794 C2792 1.363 . S
C2794 C2795 1.370 . S
C2794 C2798 1.524 . S
C2795 C2787 1.503 . S
C2795 C2794 1.370 . S
C2795 C2796 1.403 . S
C2796 C2795 1.403 . S
C2796 C2797 1.404 . S
C2796 C2799 1.539 . S
C2797 C2793 1.408 . S
C2797 C2796 1.404 . S
C2797 H2809 0.930 . S
C2798 C2794 1.524 . S
C2798 H2810 0.956 . S
C2798 H2811 0.961 . S
C2798 H2812 0.961 . S
C2799 C2796 1.539 . S
C2799 H2813 0.958 . S
C2799 H2814 0.961 . S
C2799 H2815 0.960 . S
H2800 C2784 0.931 . S
H2801 C2789 0.929 . S
H2802 C2790 0.960 . S
H2803 C2790 0.962 . S
H2804 C2790 0.960 . S
H2805 C2791 0.961 . S
H2806 C2791 0.961 . S
H2807 C2791 0.961 . S
H2808 C2792 0.931 . S
H2809 C2797 0.930 . S
H2810 C2798 0.956 . S
H2811 C2798 0.961 . S
H2812 C2798 0.961 . S
H2813 C2799 0.958 . S
H2814 C2799 0.961 . S
H2815 C2799 0.960 . S
C2816 C2817 1.391 . S
C2816 C2818 1.394 . S
C2816 H2832 0.931 . S
C2817 C2816 1.391 . S
C2817 C2821 1.376 . S
C2818 C2816 1.394 . S
C2818 C2819 1.369 . S
C2818 C2822 1.531 . S
C2819 C2818 1.369 . S
C2819 C2820 1.410 . S
C2819 C2827 1.503 . S
C2820 C2819 1.410 . S
C2820 C2821 1.392 . S
C2820 C2823 1.511 . S
C2821 C2817 1.376 . S
C2821 C2820 1.392 . S
C2821 H2833 0.929 . S
C2822 C2818 1.531 . S
C2822 H2834 0.960 . S
C2822 H2835 0.962 . S
C2822 H2836 0.960 . S
C2823 C2820 1.511 . S
C2823 H2837 0.961 . S
C2823 H2838 0.961 . S
C2823 H2839 0.961 . S
C2824 C2825 1.370 . S
C2824 C2826 1.363 . S
C2824 H2840 0.931 . S
C2825 C2824 1.370 . S
C2825 C2829 1.408 . S
C2826 C2824 1.363 . S
C2826 C2827 1.370 . S
C2826 C2830 1.524 . S
C2827 C2819 1.503 . S
C2827 C2826 1.370 . S
C2827 C2828 1.403 . S
C2828 C2827 1.403 . S
C2828 C2829 1.404 . S
C2828 C2831 1.539 . S
C2829 C2825 1.408 . S
C2829 C2828 1.404 . S
C2829 H2841 0.930 . S
C2830 C2826 1.524 . S
C2830 H2842 0.956 . S
C2830 H2843 0.961 . S
C2830 H2844 0.961 . S
C2831 C2828 1.539 . S
C2831 H2845 0.958 . S
C2831 H2846 0.961 . S
C2831 H2847 0.960 . S
H2832 C2816 0.931 . S
H2833 C2821 0.929 . S
H2834 C2822 0.960 . S
H2835 C2822 0.962 . S
H2836 C2822 0.960 . S
H2837 C2823 0.961 . S
H2838 C2823 0.961 . S
H2839 C2823 0.961 . S
H2840 C2824 0.931 . S
H2841 C2829 0.930 . S
H2842 C2830 0.956 . S
H2843 C2830 0.961 . S
H2844 C2830 0.961 . S
H2845 C2831 0.958 . S
H2846 C2831 0.961 . S
H2847 C2831 0.960 . S
C2848 C2849 1.391 . S
C2848 C2850 1.394 . S
C2848 H2864 0.931 . S
C2849 C2848 1.391 . S
C2849 C2853 1.376 . S
C2850 C2848 1.394 . S
C2850 C2851 1.369 . S
C2850 C2854 1.531 . S
C2851 C2850 1.369 . S
C2851 C2852 1.410 . S
C2851 C2859 1.503 . S
C2852 C2851 1.410 . S
C2852 C2853 1.392 . S
C2852 C2855 1.511 . S
C2853 C2849 1.376 . S
C2853 C2852 1.392 . S
C2853 H2865 0.929 . S
C2854 C2850 1.531 . S
C2854 H2866 0.960 . S
C2854 H2867 0.962 . S
C2854 H2868 0.960 . S
C2855 C2852 1.511 . S
C2855 H2869 0.961 . S
C2855 H2870 0.961 . S
C2855 H2871 0.961 . S
C2856 C2857 1.370 . S
C2856 C2858 1.363 . S
C2856 H2872 0.931 . S
C2857 C2856 1.370 . S
C2857 C2861 1.408 . S
C2858 C2856 1.363 . S
C2858 C2859 1.370 . S
C2858 C2862 1.524 . S
C2859 C2851 1.503 . S
C2859 C2858 1.370 . S
C2859 C2860 1.403 . S
C2860 C2859 1.403 . S
C2860 C2861 1.404 . S
C2860 C2863 1.539 . S
C2861 C2857 1.408 . S
C2861 C2860 1.404 . S
C2861 H2873 0.930 . S
C2862 C2858 1.524 . S
C2862 H2874 0.956 . S
C2862 H2875 0.961 . S
C2862 H2876 0.961 . S
C2863 C2860 1.539 . S
C2863 H2877 0.958 . S
C2863 H2878 0.961 . S
C2863 H2879 0.960 . S
H2864 C2848 0.931 . S
H2865 C2853 0.929 . S
H2866 C2854 0.960 . S
H2867 C2854 0.962 . S
H2868 C2854 0.960 . S
H2869 C2855 0.961 . S
H2870 C2855 0.961 . S
H2871 C2855 0.961 . S
H2872 C2856 0.931 . S
H2873 C2861 0.930 . S
H2874 C2862 0.956 . S
H2875 C2862 0.961 . S
H2876 C2862 0.961 . S
H2877 C2863 0.958 . S
H2878 C2863 0.961 . S
H2879 C2863 0.960 . S
C2880 C2881 1.391 . S
C2880 C2882 1.394 . S
C2880 H2896 0.931 . S
C2881 C2880 1.391 . S
C2881 C2885 1.376 . S
C2882 C2880 1.394 . S
C2882 C2883 1.369 . S
C2882 C2886 1.531 . S
C2883 C2882 1.369 . S
C2883 C2884 1.410 . S
C2883 C2891 1.503 1_554 S
C2884 C2883 1.410 . S
C2884 C2885 1.392 . S
C2884 C2887 1.511 . S
C2885 C2881 1.376 . S
C2885 C2884 1.392 . S
C2885 H2897 0.929 . S
C2886 C2882 1.531 . S
C2886 H2898 0.960 1_554 S
C2886 H2899 0.962 . S
C2886 H2900 0.960 . S
C2887 C2884 1.511 . S
C2887 H2901 0.961 . S
C2887 H2902 0.961 1_554 S
C2887 H2903 0.961 . S
C2888 C2889 1.370 . S
C2888 C2890 1.363 . S
C2888 H2904 0.931 . S
C2889 C2888 1.370 . S
C2889 C2893 1.408 . S
C2890 C2888 1.363 . S
C2890 C2891 1.370 . S
C2890 C2894 1.524 . S
C2891 C2883 1.503 1_556 S
C2891 C2890 1.370 . S
C2891 C2892 1.403 . S
C2892 C2891 1.403 . S
C2892 C2893 1.404 . S
C2892 C2895 1.539 . S
C2893 C2889 1.408 . S
C2893 C2892 1.404 . S
C2893 H2905 0.930 . S
C2894 C2890 1.524 . S
C2894 H2906 0.983 . S
C2894 H2907 0.961 1_556 S
C2894 H2908 0.961 . S
C2895 C2892 1.539 . S
C2895 H2909 0.958 . S
C2895 H2910 0.961 . S
C2895 H2911 0.970 . S
H2896 C2880 0.931 . S
H2897 C2885 0.929 . S
H2898 C2886 0.960 1_556 S
H2899 C2886 0.962 . S
H2900 C2886 0.960 . S
H2901 C2887 0.961 . S
H2902 C2887 0.961 1_556 S
H2903 C2887 0.961 . S
H2904 C2888 0.931 . S
H2905 C2893 0.930 . S
H2906 C2894 0.983 . S
H2907 C2894 0.961 1_554 S
H2908 C2894 0.961 . S
H2909 C2895 0.958 . S
H2910 C2895 0.961 . S
H2911 C2895 0.970 . S
C2912 C2913 1.391 . S
C2912 C2914 1.394 . S
C2912 H2928 0.931 . S
C2913 C2912 1.391 . S
C2913 C2917 1.376 . S
C2914 C2912 1.394 . S
C2914 C2915 1.369 . S
C2914 C2918 1.531 . S
C2915 C2914 1.369 . S
C2915 C2916 1.410 . S
C2915 C2923 1.503 1_556 S
C2916 C2915 1.410 . S
C2916 C2917 1.392 . S
C2916 C2919 1.511 . S
C2917 C2913 1.376 . S
C2917 C2916 1.392 . S
C2917 H2929 0.929 . S
C2918 C2914 1.531 . S
C2918 H2930 0.960 1_556 S
C2918 H2931 0.962 . S
C2918 H2932 0.960 . S
C2919 C2916 1.511 . S
C2919 H2933 0.961 . S
C2919 H2934 0.961 1_556 S
C2919 H2935 0.961 . S
C2920 C2921 1.370 . S
C2920 C2922 1.363 . S
C2920 H2936 0.931 . S
C2921 C2920 1.370 . S
C2921 C2925 1.408 . S
C2922 C2920 1.363 . S
C2922 C2923 1.370 . S
C2922 C2926 1.524 . S
C2923 C2915 1.503 1_554 S
C2923 C2922 1.370 . S
C2923 C2924 1.403 . S
C2924 C2923 1.403 . S
C2924 C2925 1.404 . S
C2924 C2927 1.539 . S
C2925 C2921 1.408 . S
C2925 C2924 1.404 . S
C2925 H2937 0.930 . S
C2926 C2922 1.524 . S
C2926 H2938 0.984 . S
C2926 H2939 0.961 1_554 S
C2926 H2940 0.961 . S
C2927 C2924 1.539 . S
C2927 H2941 0.958 . S
C2927 H2942 0.961 . S
C2927 H2943 0.969 . S
H2928 C2912 0.931 . S
H2929 C2917 0.929 . S
H2930 C2918 0.960 1_554 S
H2931 C2918 0.962 . S
H2932 C2918 0.960 . S
H2933 C2919 0.961 . S
H2934 C2919 0.961 1_554 S
H2935 C2919 0.961 . S
H2936 C2920 0.931 . S
H2937 C2925 0.930 . S
H2938 C2926 0.984 . S
H2939 C2926 0.961 1_556 S
H2940 C2926 0.961 . S
H2941 C2927 0.958 . S
H2942 C2927 0.961 . S
H2943 C2927 0.969 . S
C2944 C2945 1.391 . S
C2944 C2946 1.394 . S
C2944 H2960 0.931 . S
C2945 C2944 1.391 . S
C2945 C2949 1.376 . S
C2946 C2944 1.394 . S
C2946 C2947 1.369 . S
C2946 C2950 1.531 . S
C2947 C2946 1.369 . S
C2947 C2948 1.410 . S
C2947 C2955 1.503 1_556 S
C2948 C2947 1.410 . S
C2948 C2949 1.392 . S
C2948 C2951 1.511 . S
C2949 C2945 1.376 . S
C2949 C2948 1.392 . S
C2949 H2961 0.929 . S
C2950 C2946 1.531 . S
C2950 H2962 0.960 1_556 S
C2950 H2963 0.962 . S
C2950 H2964 0.960 . S
C2951 C2948 1.511 . S
C2951 H2965 0.961 . S
C2951 H2966 0.961 1_556 S
C2951 H2967 0.961 . S
C2952 C2953 1.370 . S
C2952 C2954 1.363 . S
C2952 H2968 0.931 . S
C2953 C2952 1.370 . S
C2953 C2957 1.408 . S
C2954 C2952 1.363 . S
C2954 C2955 1.370 . S
C2954 C2958 1.524 . S
C2955 C2947 1.503 1_554 S
C2955 C2954 1.370 . S
C2955 C2956 1.403 . S
C2956 C2955 1.403 . S
C2956 C2957 1.404 . S
C2956 C2959 1.539 . S
C2957 C2953 1.408 . S
C2957 C2956 1.404 . S
C2957 H2969 0.930 . S
C2958 C2954 1.524 . S
C2958 H2970 0.983 . S
C2958 H2971 0.961 1_554 S
C2958 H2972 0.961 . S
C2959 C2956 1.539 . S
C2959 H2973 0.958 . S
C2959 H2974 0.961 . S
C2959 H2975 0.971 . S
H2960 C2944 0.931 . S
H2961 C2949 0.929 . S
H2962 C2950 0.960 1_554 S
H2963 C2950 0.962 . S
H2964 C2950 0.960 . S
H2965 C2951 0.961 . S
H2966 C2951 0.961 1_554 S
H2967 C2951 0.961 . S
H2968 C2952 0.931 . S
H2969 C2957 0.930 . S
H2970 C2958 0.983 . S
H2971 C2958 0.961 1_556 S
H2972 C2958 0.961 . S
H2973 C2959 0.958 . S
H2974 C2959 0.961 . S
H2975 C2959 0.971 . S
C2976 C2977 1.391 . S
C2976 C2978 1.394 . S
C2976 H2992 0.931 . S
C2977 C2976 1.391 . S
C2977 C2981 1.376 . S
C2978 C2976 1.394 . S
C2978 C2979 1.369 . S
C2978 C2982 1.531 . S
C2979 C2978 1.369 . S
C2979 C2980 1.410 . S
C2979 C2987 1.503 1_554 S
C2980 C2979 1.410 . S
C2980 C2981 1.392 . S
C2980 C2983 1.511 . S
C2981 C2977 1.376 . S
C2981 C2980 1.392 . S
C2981 H2993 0.929 . S
C2982 C2978 1.531 . S
C2982 H2994 0.960 1_554 S
C2982 H2995 0.962 . S
C2982 H2996 0.960 . S
C2983 C2980 1.511 . S
C2983 H2997 0.961 . S
C2983 H2998 0.961 1_554 S
C2983 H2999 0.961 . S
C2984 C2985 1.370 . S
C2984 C2986 1.363 . S
C2984 H3000 0.931 . S
C2985 C2984 1.370 . S
C2985 C2989 1.408 . S
C2986 C2984 1.363 . S
C2986 C2987 1.370 . S
C2986 C2990 1.524 . S
C2987 C2979 1.503 1_556 S
C2987 C2986 1.370 . S
C2987 C2988 1.403 . S
C2988 C2987 1.403 . S
C2988 C2989 1.404 . S
C2988 C2991 1.539 . S
C2989 C2985 1.408 . S
C2989 C2988 1.404 . S
C2989 H3001 0.930 . S
C2990 C2986 1.524 . S
C2990 H3002 0.984 . S
C2990 H3003 0.961 1_556 S
C2990 H3004 0.961 . S
C2991 C2988 1.539 . S
C2991 H3005 0.958 . S
C2991 H3006 0.961 . S
C2991 H3007 0.969 . S
H2992 C2976 0.931 . S
H2993 C2981 0.929 . S
H2994 C2982 0.960 1_556 S
H2995 C2982 0.962 . S
H2996 C2982 0.960 . S
H2997 C2983 0.961 . S
H2998 C2983 0.961 1_556 S
H2999 C2983 0.961 . S
H3000 C2984 0.931 . S
H3001 C2989 0.930 . S
H3002 C2990 0.984 . S
H3003 C2990 0.961 1_554 S
H3004 C2990 0.961 . S
H3005 C2991 0.958 . S
H3006 C2991 0.961 . S
H3007 C2991 0.969 . S
C3008 C3009 1.391 . S
C3008 C3010 1.394 . S
C3008 H3024 0.931 . S
C3009 C3008 1.391 . S
C3009 C3013 1.376 . S
C3010 C3008 1.394 . S
C3010 C3011 1.369 . S
C3010 C3014 1.531 . S
C3011 C3010 1.369 . S
C3011 C3012 1.410 . S
C3011 C3019 1.503 1_554 S
C3012 C3011 1.410 . S
C3012 C3013 1.392 . S
C3012 C3015 1.511 . S
C3013 C3009 1.376 . S
C3013 C3012 1.392 . S
C3013 H3025 0.929 . S
C3014 C3010 1.531 . S
C3014 H3026 0.960 1_554 S
C3014 H3027 0.962 . S
C3014 H3028 0.960 . S
C3015 C3012 1.511 . S
C3015 H3029 0.961 . S
C3015 H3030 0.961 1_554 S
C3015 H3031 0.961 . S
C3016 C3017 1.370 . S
C3016 C3018 1.363 . S
C3016 H3032 0.931 . S
C3017 C3016 1.370 . S
C3017 C3021 1.408 . S
C3018 C3016 1.363 . S
C3018 C3019 1.370 . S
C3018 C3022 1.524 . S
C3019 C3011 1.503 1_556 S
C3019 C3018 1.370 . S
C3019 C3020 1.403 . S
C3020 C3019 1.403 . S
C3020 C3021 1.404 . S
C3020 C3023 1.539 . S
C3021 C3017 1.408 . S
C3021 C3020 1.404 . S
C3021 H3033 0.930 . S
C3022 C3018 1.524 . S
C3022 H3034 0.985 . S
C3022 H3035 0.961 1_556 S
C3022 H3036 0.961 . S
C3023 C3020 1.539 . S
C3023 H3037 0.958 . S
C3023 H3038 0.961 . S
C3023 H3039 0.969 . S
H3024 C3008 0.931 . S
H3025 C3013 0.929 . S
H3026 C3014 0.960 1_556 S
H3027 C3014 0.962 . S
H3028 C3014 0.960 . S
H3029 C3015 0.961 . S
H3030 C3015 0.961 1_556 S
H3031 C3015 0.961 . S
H3032 C3016 0.931 . S
H3033 C3021 0.930 . S
H3034 C3022 0.985 . S
H3035 C3022 0.961 1_554 S
H3036 C3022 0.961 . S
H3037 C3023 0.958 . S
H3038 C3023 0.961 . S
H3039 C3023 0.969 . S
C3040 C3041 1.391 . S
C3040 C3042 1.394 . S
C3040 H3056 0.931 . S
C3041 C3040 1.391 . S
C3041 C3045 1.376 . S
C3042 C3040 1.394 . S
C3042 C3043 1.369 . S
C3042 C3046 1.531 . S
C3043 C3042 1.369 . S
C3043 C3044 1.410 . S
C3043 C3051 1.503 1_556 S
C3044 C3043 1.410 . S
C3044 C3045 1.392 . S
C3044 C3047 1.511 . S
C3045 C3041 1.376 . S
C3045 C3044 1.392 . S
C3045 H3057 0.929 . S
C3046 C3042 1.531 . S
C3046 H3058 0.960 1_556 S
C3046 H3059 0.962 . S
C3046 H3060 0.960 . S
C3047 C3044 1.511 . S
C3047 H3061 0.961 . S
C3047 H3062 0.961 1_556 S
C3047 H3063 0.961 . S
C3048 C3049 1.370 . S
C3048 C3050 1.363 . S
C3048 H3064 0.931 . S
C3049 C3048 1.370 . S
C3049 C3053 1.408 . S
C3050 C3048 1.363 . S
C3050 C3051 1.370 . S
C3050 C3054 1.524 . S
C3051 C3043 1.503 1_554 S
C3051 C3050 1.370 . S
C3051 C3052 1.403 . S
C3052 C3051 1.403 . S
C3052 C3053 1.404 . S
C3052 C3055 1.539 . S
C3053 C3049 1.408 . S
C3053 C3052 1.404 . S
C3053 H3065 0.930 . S
C3054 C3050 1.524 . S
C3054 H3066 0.984 . S
C3054 H3067 0.961 1_554 S
C3054 H3068 0.961 . S
C3055 C3052 1.539 . S
C3055 H3069 0.958 . S
C3055 H3070 0.961 . S
C3055 H3071 0.969 . S
H3056 C3040 0.931 . S
H3057 C3045 0.929 . S
H3058 C3046 0.960 1_554 S
H3059 C3046 0.962 . S
H3060 C3046 0.960 . S
H3061 C3047 0.961 . S
H3062 C3047 0.961 1_554 S
H3063 C3047 0.961 . S
H3064 C3048 0.931 . S
H3065 C3053 0.930 . S
H3066 C3054 0.984 . S
H3067 C3054 0.961 1_556 S
H3068 C3054 0.961 . S
H3069 C3055 0.958 . S
H3070 C3055 0.961 . S
H3071 C3055 0.969 . S
C3072 C3073 1.391 . S
C3072 C3074 1.394 . S
C3072 H3088 0.931 . S
C3073 C3072 1.391 . S
C3073 C3077 1.376 . S
C3074 C3072 1.394 . S
C3074 C3075 1.369 . S
C3074 C3078 1.531 . S
C3075 C3074 1.369 . S
C3075 C3076 1.410 . S
C3075 C3083 1.503 . S
C3076 C3075 1.410 . S
C3076 C3077 1.392 . S
C3076 C3079 1.511 . S
C3077 C3073 1.376 . S
C3077 C3076 1.392 . S
C3077 H3089 0.929 . S
C3078 C3074 1.531 . S
C3078 H3090 0.960 . S
C3078 H3091 0.962 . S
C3078 H3092 0.960 . S
C3079 C3076 1.511 . S
C3079 H3093 0.961 . S
C3079 H3094 0.961 . S
C3079 H3095 0.961 . S
C3080 C3081 1.370 . S
C3080 C3082 1.363 . S
C3080 H3096 0.931 . S
C3081 C3080 1.370 . S
C3081 C3085 1.408 . S
C3082 C3080 1.363 . S
C3082 C3083 1.370 . S
C3082 C3086 1.524 . S
C3083 C3075 1.503 . S
C3083 C3082 1.370 . S
C3083 C3084 1.403 . S
C3084 C3083 1.403 . S
C3084 C3085 1.404 . S
C3084 C3087 1.539 . S
C3085 C3081 1.408 . S
C3085 C3084 1.404 . S
C3085 H3097 0.930 . S
C3086 C3082 1.524 . S
C3086 H3098 0.956 . S
C3086 H3099 0.961 . S
C3086 H3100 0.961 . S
C3087 C3084 1.539 . S
C3087 H3101 0.958 . S
C3087 H3102 0.961 . S
C3087 H3103 0.960 . S
H3088 C3072 0.931 . S
H3089 C3077 0.929 . S
H3090 C3078 0.960 . S
H3091 C3078 0.962 . S
H3092 C3078 0.960 . S
H3093 C3079 0.961 . S
H3094 C3079 0.961 . S
H3095 C3079 0.961 . S
H3096 C3080 0.931 . S
H3097 C3085 0.930 . S
H3098 C3086 0.956 . S
H3099 C3086 0.961 . S
H3100 C3086 0.961 . S
H3101 C3087 0.958 . S
H3102 C3087 0.961 . S
H3103 C3087 0.960 . S
C3104 C3105 1.391 . S
C3104 C3106 1.394 . S
C3104 H3120 0.931 . S
C3105 C3104 1.391 . S
C3105 C3109 1.376 . S
C3106 C3104 1.394 . S
C3106 C3107 1.369 . S
C3106 C3110 1.531 . S
C3107 C3106 1.369 . S
C3107 C3108 1.410 . S
C3107 C3115 1.503 . S
C3108 C3107 1.410 . S
C3108 C3109 1.392 . S
C3108 C3111 1.511 . S
C3109 C3105 1.376 . S
C3109 C3108 1.392 . S
C3109 H3121 0.929 . S
C3110 C3106 1.531 . S
C3110 H3122 0.960 . S
C3110 H3123 0.962 . S
C3110 H3124 0.960 . S
C3111 C3108 1.511 . S
C3111 H3125 0.961 . S
C3111 H3126 0.961 . S
C3111 H3127 0.961 . S
C3112 C3113 1.370 . S
C3112 C3114 1.363 . S
C3112 H3128 0.931 . S
C3113 C3112 1.370 . S
C3113 C3117 1.408 . S
C3114 C3112 1.363 . S
C3114 C3115 1.370 . S
C3114 C3118 1.524 . S
C3115 C3107 1.503 . S
C3115 C3114 1.370 . S
C3115 C3116 1.403 . S
C3116 C3115 1.403 . S
C3116 C3117 1.404 . S
C3116 C3119 1.539 . S
C3117 C3113 1.408 . S
C3117 C3116 1.404 . S
C3117 H3129 0.930 . S
C3118 C3114 1.524 . S
C3118 H3130 0.956 . S
C3118 H3131 0.961 . S
C3118 H3132 0.961 . S
C3119 C3116 1.539 . S
C3119 H3133 0.958 . S
C3119 H3134 0.961 . S
C3119 H3135 0.960 . S
H3120 C3104 0.931 . S
H3121 C3109 0.929 . S
H3122 C3110 0.960 . S
H3123 C3110 0.962 . S
H3124 C3110 0.960 . S
H3125 C3111 0.961 . S
H3126 C3111 0.961 . S
H3127 C3111 0.961 . S
H3128 C3112 0.931 . S
H3129 C3117 0.930 . S
H3130 C3118 0.956 . S
H3131 C3118 0.961 . S
H3132 C3118 0.961 . S
H3133 C3119 0.958 . S
H3134 C3119 0.961 . S
H3135 C3119 0.960 . S
C3136 C3137 1.391 . S
C3136 C3138 1.394 . S
C3136 H3152 0.931 . S
C3137 C3136 1.391 . S
C3137 C3141 1.376 . S
C3138 C3136 1.394 . S
C3138 C3139 1.369 . S
C3138 C3142 1.531 . S
C3139 C3138 1.369 . S
C3139 C3140 1.410 . S
C3139 C3147 1.503 . S
C3140 C3139 1.410 . S
C3140 C3141 1.392 . S
C3140 C3143 1.511 . S
C3141 C3137 1.376 . S
C3141 C3140 1.392 . S
C3141 H3153 0.929 . S
C3142 C3138 1.531 . S
C3142 H3154 0.960 . S
C3142 H3155 0.962 . S
C3142 H3156 0.960 . S
C3143 C3140 1.511 . S
C3143 H3157 0.961 . S
C3143 H3158 0.961 . S
C3143 H3159 0.961 . S
C3144 C3145 1.370 . S
C3144 C3146 1.363 . S
C3144 H3160 0.931 . S
C3145 C3144 1.370 . S
C3145 C3149 1.408 . S
C3146 C3144 1.363 . S
C3146 C3147 1.370 . S
C3146 C3150 1.524 . S
C3147 C3139 1.503 . S
C3147 C3146 1.370 . S
C3147 C3148 1.403 . S
C3148 C3147 1.403 . S
C3148 C3149 1.404 . S
C3148 C3151 1.539 . S
C3149 C3145 1.408 . S
C3149 C3148 1.404 . S
C3149 H3161 0.930 . S
C3150 C3146 1.524 . S
C3150 H3162 0.956 . S
C3150 H3163 0.961 . S
C3150 H3164 0.961 . S
C3151 C3148 1.539 . S
C3151 H3165 0.958 . S
C3151 H3166 0.961 . S
C3151 H3167 0.960 . S
H3152 C3136 0.931 . S
H3153 C3141 0.929 . S
H3154 C3142 0.960 . S
H3155 C3142 0.962 . S
H3156 C3142 0.960 . S
H3157 C3143 0.961 . S
H3158 C3143 0.961 . S
H3159 C3143 0.961 . S
H3160 C3144 0.931 . S
H3161 C3149 0.930 . S
H3162 C3150 0.956 . S
H3163 C3150 0.961 . S
H3164 C3150 0.961 . S
H3165 C3151 0.958 . S
H3166 C3151 0.961 . S
H3167 C3151 0.960 . S
C3168 C3169 1.391 . S
C3168 C3170 1.394 . S
C3168 H3184 0.931 . S
C3169 C3168 1.391 . S
C3169 C3173 1.376 . S
C3170 C3168 1.394 . S
C3170 C3171 1.369 . S
C3170 C3174 1.531 . S
C3171 C3170 1.369 . S
C3171 C3172 1.410 . S
C3171 C3179 1.503 . S
C3172 C3171 1.410 . S
C3172 C3173 1.392 . S
C3172 C3175 1.511 . S
C3173 C3169 1.376 . S
C3173 C3172 1.392 . S
C3173 H3185 0.929 . S
C3174 C3170 1.531 . S
C3174 H3186 0.960 . S
C3174 H3187 0.962 . S
C3174 H3188 0.960 . S
C3175 C3172 1.511 . S
C3175 H3189 0.961 . S
C3175 H3190 0.961 . S
C3175 H3191 0.961 . S
C3176 C3177 1.370 . S
C3176 C3178 1.363 . S
C3176 H3192 0.931 . S
C3177 C3176 1.370 . S
C3177 C3181 1.408 . S
C3178 C3176 1.363 . S
C3178 C3179 1.370 . S
C3178 C3182 1.524 . S
C3179 C3171 1.503 . S
C3179 C3178 1.370 . S
C3179 C3180 1.403 . S
C3180 C3179 1.403 . S
C3180 C3181 1.404 . S
C3180 C3183 1.539 . S
C3181 C3177 1.408 . S
C3181 C3180 1.404 . S
C3181 H3193 0.930 . S
C3182 C3178 1.524 . S
C3182 H3194 0.956 . S
C3182 H3195 0.961 . S
C3182 H3196 0.961 . S
C3183 C3180 1.539 . S
C3183 H3197 0.958 . S
C3183 H3198 0.961 . S
C3183 H3199 0.960 . S
H3184 C3168 0.931 . S
H3185 C3173 0.929 . S
H3186 C3174 0.960 . S
H3187 C3174 0.962 . S
H3188 C3174 0.960 . S
H3189 C3175 0.961 . S
H3190 C3175 0.961 . S
H3191 C3175 0.961 . S
H3192 C3176 0.931 . S
H3193 C3181 0.930 . S
H3194 C3182 0.956 . S
H3195 C3182 0.961 . S
H3196 C3182 0.961 . S
H3197 C3183 0.958 . S
H3198 C3183 0.961 . S
H3199 C3183 0.960 . S
C3200 C3201 1.391 . S
C3200 C3202 1.394 . S
C3200 H3216 0.931 . S
C3201 C3200 1.391 . S
C3201 C3205 1.376 . S
C3202 C3200 1.394 . S
C3202 C3203 1.369 . S
C3202 C3206 1.531 . S
C3203 C3202 1.369 . S
C3203 C3204 1.410 . S
C3203 C3211 1.503 . S
C3204 C3203 1.410 . S
C3204 C3205 1.392 . S
C3204 C3207 1.511 . S
C3205 C3201 1.376 . S
C3205 C3204 1.392 . S
C3205 H3217 0.929 . S
C3206 C3202 1.531 . S
C3206 H3218 0.960 . S
C3206 H3219 0.962 . S
C3206 H3220 0.960 . S
C3207 C3204 1.511 . S
C3207 H3221 0.961 . S
C3207 H3222 0.961 . S
C3207 H3223 0.961 . S
C3208 C3209 1.370 . S
C3208 C3210 1.363 . S
C3208 H3224 0.931 . S
C3209 C3208 1.370 . S
C3209 C3213 1.408 . S
C3210 C3208 1.363 . S
C3210 C3211 1.370 . S
C3210 C3214 1.524 . S
C3211 C3203 1.503 . S
C3211 C3210 1.370 . S
C3211 C3212 1.403 . S
C3212 C3211 1.403 . S
C3212 C3213 1.404 . S
C3212 C3215 1.539 . S
C3213 C3209 1.408 . S
C3213 C3212 1.404 . S
C3213 H3225 0.930 . S
C3214 C3210 1.524 . S
C3214 H3226 0.956 . S
C3214 H3227 0.961 . S
C3214 H3228 0.961 . S
C3215 C3212 1.539 . S
C3215 H3229 0.958 . S
C3215 H3230 0.961 . S
C3215 H3231 0.960 . S
H3216 C3200 0.931 . S
H3217 C3205 0.929 . S
H3218 C3206 0.960 . S
H3219 C3206 0.962 . S
H3220 C3206 0.960 . S
H3221 C3207 0.961 . S
H3222 C3207 0.961 . S
H3223 C3207 0.961 . S
H3224 C3208 0.931 . S
H3225 C3213 0.930 . S
H3226 C3214 0.956 . S
H3227 C3214 0.961 . S
H3228 C3214 0.961 . S
H3229 C3215 0.958 . S
H3230 C3215 0.961 . S
H3231 C3215 0.960 . S
C3232 C3233 1.391 . S
C3232 C3234 1.394 . S
C3232 H3248 0.931 . S
C3233 C3232 1.391 . S
C3233 C3237 1.376 . S
C3234 C3232 1.394 . S
C3234 C3235 1.369 . S
C3234 C3238 1.531 . S
C3235 C3234 1.369 . S
C3235 C3236 1.410 . S
C3235 C3243 1.503 . S
C3236 C3235 1.410 . S
C3236 C3237 1.392 . S
C3236 C3239 1.511 . S
C3237 C3233 1.376 . S
C3237 C3236 1.392 . S
C3237 H3249 0.929 . S
C3238 C3234 1.531 . S
C3238 H3250 0.960 . S
C3238 H3251 0.962 . S
C3238 H3252 0.960 . S
C3239 C3236 1.511 . S
C3239 H3253 0.961 . S
C3239 H3254 0.961 . S
C3239 H3255 0.961 . S
C3240 C3241 1.370 . S
C3240 C3242 1.363 . S
C3240 H3256 0.931 . S
C3241 C3240 1.370 . S
C3241 C3245 1.408 . S
C3242 C3240 1.363 . S
C3242 C3243 1.370 . S
C3242 C3246 1.524 . S
C3243 C3235 1.503 . S
C3243 C3242 1.370 . S
C3243 C3244 1.403 . S
C3244 C3243 1.403 . S
C3244 C3245 1.404 . S
C3244 C3247 1.539 . S
C3245 C3241 1.408 . S
C3245 C3244 1.404 . S
C3245 H3257 0.930 . S
C3246 C3242 1.524 . S
C3246 H3258 0.956 . S
C3246 H3259 0.961 . S
C3246 H3260 0.961 . S
C3247 C3244 1.539 . S
C3247 H3261 0.958 . S
C3247 H3262 0.961 . S
C3247 H3263 0.960 . S
H3248 C3232 0.931 . S
H3249 C3237 0.929 . S
H3250 C3238 0.960 . S
H3251 C3238 0.962 . S
H3252 C3238 0.960 . S
H3253 C3239 0.961 . S
H3254 C3239 0.961 . S
H3255 C3239 0.961 . S
H3256 C3240 0.931 . S
H3257 C3245 0.930 . S
H3258 C3246 0.956 . S
H3259 C3246 0.961 . S
H3260 C3246 0.961 . S
H3261 C3247 0.958 . S
H3262 C3247 0.961 . S
H3263 C3247 0.960 . S
C3264 C3265 1.391 . S
C3264 C3266 1.394 . S
C3264 H3280 0.931 . S
C3265 C3264 1.391 . S
C3265 C3269 1.376 . S
C3266 C3264 1.394 . S
C3266 C3267 1.369 . S
C3266 C3270 1.531 . S
C3267 C3266 1.369 . S
C3267 C3268 1.410 . S
C3267 C3275 1.503 . S
C3268 C3267 1.410 . S
C3268 C3269 1.392 . S
C3268 C3271 1.511 . S
C3269 C3265 1.376 . S
C3269 C3268 1.392 . S
C3269 H3281 0.929 . S
C3270 C3266 1.531 . S
C3270 H3282 0.960 . S
C3270 H3283 0.962 . S
C3270 H3284 0.960 . S
C3271 C3268 1.511 . S
C3271 H3285 0.961 . S
C3271 H3286 0.961 . S
C3271 H3287 0.961 . S
C3272 C3273 1.370 . S
C3272 C3274 1.363 . S
C3272 H3288 0.931 . S
C3273 C3272 1.370 . S
C3273 C3277 1.408 . S
C3274 C3272 1.363 . S
C3274 C3275 1.370 . S
C3274 C3278 1.524 . S
C3275 C3267 1.503 . S
C3275 C3274 1.370 . S
C3275 C3276 1.403 . S
C3276 C3275 1.403 . S
C3276 C3277 1.404 . S
C3276 C3279 1.539 . S
C3277 C3273 1.408 . S
C3277 C3276 1.404 . S
C3277 H3289 0.930 . S
C3278 C3274 1.524 . S
C3278 H3290 0.956 . S
C3278 H3291 0.961 . S
C3278 H3292 0.961 . S
C3279 C3276 1.539 . S
C3279 H3293 0.958 . S
C3279 H3294 0.961 . S
C3279 H3295 0.960 . S
H3280 C3264 0.931 . S
H3281 C3269 0.929 . S
H3282 C3270 0.960 . S
H3283 C3270 0.962 . S
H3284 C3270 0.960 . S
H3285 C3271 0.961 . S
H3286 C3271 0.961 . S
H3287 C3271 0.961 . S
H3288 C3272 0.931 . S
H3289 C3277 0.930 . S
H3290 C3278 0.956 . S
H3291 C3278 0.961 . S
H3292 C3278 0.961 . S
H3293 C3279 0.958 . S
H3294 C3279 0.961 . S
H3295 C3279 0.960 . S
C3296 C3297 1.391 . S
C3296 C3298 1.394 . S
C3296 H3312 0.931 . S
C3297 C3296 1.391 . S
C3297 C3301 1.376 . S
C3298 C3296 1.394 . S
C3298 C3299 1.369 . S
C3298 C3302 1.531 . S
C3299 C3298 1.369 . S
C3299 C3300 1.410 . S
C3299 C3307 1.503 . S
C3300 C3299 1.410 . S
C3300 C3301 1.392 . S
C3300 C3303 1.511 . S
C3301 C3297 1.376 . S
C3301 C3300 1.392 . S
C3301 H3313 0.929 . S
C3302 C3298 1.531 . S
C3302 H3314 0.960 . S
C3302 H3315 0.962 . S
C3302 H3316 0.960 . S
C3303 C3300 1.511 . S
C3303 H3317 0.961 . S
C3303 H3318 0.961 . S
C3303 H3319 0.961 . S
C3304 C3305 1.370 . S
C3304 C3306 1.363 . S
C3304 H3320 0.931 . S
C3305 C3304 1.370 . S
C3305 C3309 1.408 . S
C3306 C3304 1.363 . S
C3306 C3307 1.370 . S
C3306 C3310 1.524 . S
C3307 C3299 1.503 . S
C3307 C3306 1.370 . S
C3307 C3308 1.403 . S
C3308 C3307 1.403 . S
C3308 C3309 1.404 . S
C3308 C3311 1.539 . S
C3309 C3305 1.408 . S
C3309 C3308 1.404 . S
C3309 H3321 0.930 . S
C3310 C3306 1.524 . S
C3310 H3322 0.956 . S
C3310 H3323 0.961 . S
C3310 H3324 0.961 . S
C3311 C3308 1.539 . S
C3311 H3325 0.958 . S
C3311 H3326 0.961 . S
C3311 H3327 0.960 . S
H3312 C3296 0.931 . S
H3313 C3301 0.929 . S
H3314 C3302 0.960 . S
H3315 C3302 0.962 . S
H3316 C3302 0.960 . S
H3317 C3303 0.961 . S
H3318 C3303 0.961 . S
H3319 C3303 0.961 . S
H3320 C3304 0.931 . S
H3321 C3309 0.930 . S
H3322 C3310 0.956 . S
H3323 C3310 0.961 . S
H3324 C3310 0.961 . S
H3325 C3311 0.958 . S
H3326 C3311 0.961 . S
H3327 C3311 0.960 . S
C3328 C3329 1.391 . S
C3328 C3330 1.394 . S
C3328 H3344 0.931 . S
C3329 C3328 1.391 . S
C3329 C3333 1.376 . S
C3330 C3328 1.394 . S
C3330 C3331 1.369 . S
C3330 C3334 1.531 . S
C3331 C3330 1.369 . S
C3331 C3332 1.410 . S
C3331 C3339 1.503 . S
C3332 C3331 1.410 . S
C3332 C3333 1.392 . S
C3332 C3335 1.511 . S
C3333 C3329 1.376 . S
C3333 C3332 1.392 . S
C3333 H3345 0.929 . S
C3334 C3330 1.531 . S
C3334 H3346 0.960 . S
C3334 H3347 0.962 . S
C3334 H3348 0.960 . S
C3335 C3332 1.511 . S
C3335 H3349 0.961 . S
C3335 H3350 0.961 . S
C3335 H3351 0.961 . S
C3336 C3337 1.370 . S
C3336 C3338 1.363 . S
C3336 H3352 0.931 . S
C3337 C3336 1.370 . S
C3337 C3341 1.408 . S
C3338 C3336 1.363 . S
C3338 C3339 1.370 . S
C3338 C3342 1.524 . S
C3339 C3331 1.503 . S
C3339 C3338 1.370 . S
C3339 C3340 1.403 . S
C3340 C3339 1.403 . S
C3340 C3341 1.404 . S
C3340 C3343 1.539 . S
C3341 C3337 1.408 . S
C3341 C3340 1.404 . S
C3341 H3353 0.930 . S
C3342 C3338 1.524 . S
C3342 H3354 0.956 . S
C3342 H3355 0.961 . S
C3342 H3356 0.961 . S
C3343 C3340 1.539 . S
C3343 H3357 0.958 . S
C3343 H3358 0.961 . S
C3343 H3359 0.960 . S
H3344 C3328 0.931 . S
H3345 C3333 0.929 . S
H3346 C3334 0.960 . S
H3347 C3334 0.962 . S
H3348 C3334 0.960 . S
H3349 C3335 0.961 . S
H3350 C3335 0.961 . S
H3351 C3335 0.961 . S
H3352 C3336 0.931 . S
H3353 C3341 0.930 . S
H3354 C3342 0.956 . S
H3355 C3342 0.961 . S
H3356 C3342 0.961 . S
H3357 C3343 0.958 . S
H3358 C3343 0.961 . S
H3359 C3343 0.960 . S
C3360 C3361 1.391 . S
C3360 C3362 1.394 . S
C3360 H3376 0.931 . S
C3361 C3360 1.391 . S
C3361 C3365 1.376 . S
C3362 C3360 1.394 . S
C3362 C3363 1.369 . S
C3362 C3366 1.531 . S
C3363 C3362 1.369 . S
C3363 C3364 1.410 . S
C3363 C3371 1.503 . S
C3364 C3363 1.410 . S
C3364 C3365 1.392 . S
C3364 C3367 1.511 . S
C3365 C3361 1.376 . S
C3365 C3364 1.392 . S
C3365 H3377 0.929 . S
C3366 C3362 1.531 . S
C3366 H3378 0.960 . S
C3366 H3379 0.962 . S
C3366 H3380 0.960 . S
C3367 C3364 1.511 . S
C3367 H3381 0.961 . S
C3367 H3382 0.961 . S
C3367 H3383 0.961 . S
C3368 C3369 1.370 . S
C3368 C3370 1.363 . S
C3368 H3384 0.931 . S
C3369 C3368 1.370 . S
C3369 C3373 1.408 . S
C3370 C3368 1.363 . S
C3370 C3371 1.370 . S
C3370 C3374 1.524 . S
C3371 C3363 1.503 . S
C3371 C3370 1.370 . S
C3371 C3372 1.403 . S
C3372 C3371 1.403 . S
C3372 C3373 1.404 . S
C3372 C3375 1.539 . S
C3373 C3369 1.408 . S
C3373 C3372 1.404 . S
C3373 H3385 0.930 . S
C3374 C3370 1.524 . S
C3374 H3386 0.956 . S
C3374 H3387 0.961 . S
C3374 H3388 0.961 . S
C3375 C3372 1.539 . S
C3375 H3389 0.958 . S
C3375 H3390 0.961 . S
C3375 H3391 0.960 . S
H3376 C3360 0.931 . S
H3377 C3365 0.929 . S
H3378 C3366 0.960 . S
H3379 C3366 0.962 . S
H3380 C3366 0.960 . S
H3381 C3367 0.961 . S
H3382 C3367 0.961 . S
H3383 C3367 0.961 . S
H3384 C3368 0.931 . S
H3385 C3373 0.930 . S
H3386 C3374 0.956 . S
H3387 C3374 0.961 . S
H3388 C3374 0.961 . S
H3389 C3375 0.958 . S
H3390 C3375 0.961 . S
H3391 C3375 0.960 . S
C3392 C3393 1.391 . S
C3392 C3394 1.394 . S
C3392 H3408 0.931 . S
C3393 C3392 1.391 . S
C3393 C3397 1.376 . S
C3394 C3392 1.394 . S
C3394 C3395 1.369 . S
C3394 C3398 1.531 . S
C3395 C3394 1.369 . S
C3395 C3396 1.410 . S
C3395 C3403 1.503 . S
C3396 C3395 1.410 . S
C3396 C3397 1.392 . S
C3396 C3399 1.511 . S
C3397 C3393 1.376 . S
C3397 C3396 1.392 . S
C3397 H3409 0.929 . S
C3398 C3394 1.531 . S
C3398 H3410 0.960 . S
C3398 H3411 0.962 . S
C3398 H3412 0.960 . S
C3399 C3396 1.511 . S
C3399 H3413 0.961 . S
C3399 H3414 0.961 . S
C3399 H3415 0.961 . S
C3400 C3401 1.370 . S
C3400 C3402 1.363 . S
C3400 H3416 0.931 . S
C3401 C3400 1.370 . S
C3401 C3405 1.408 . S
C3402 C3400 1.363 . S
C3402 C3403 1.370 . S
C3402 C3406 1.524 . S
C3403 C3395 1.503 . S
C3403 C3402 1.370 . S
C3403 C3404 1.403 . S
C3404 C3403 1.403 . S
C3404 C3405 1.404 . S
C3404 C3407 1.539 . S
C3405 C3401 1.408 . S
C3405 C3404 1.404 . S
C3405 H3417 0.930 . S
C3406 C3402 1.524 . S
C3406 H3418 0.956 . S
C3406 H3419 0.961 . S
C3406 H3420 0.961 . S
C3407 C3404 1.539 . S
C3407 H3421 0.958 . S
C3407 H3422 0.961 . S
C3407 H3423 0.960 . S
H3408 C3392 0.931 . S
H3409 C3397 0.929 . S
H3410 C3398 0.960 . S
H3411 C3398 0.962 . S
H3412 C3398 0.960 . S
H3413 C3399 0.961 . S
H3414 C3399 0.961 . S
H3415 C3399 0.961 . S
H3416 C3400 0.931 . S
H3417 C3405 0.930 . S
H3418 C3406 0.956 . S
H3419 C3406 0.961 . S
H3420 C3406 0.961 . S
H3421 C3407 0.958 . S
H3422 C3407 0.961 . S
H3423 C3407 0.960 . S
C3424 C3425 1.391 . S
C3424 C3426 1.394 . S
C3424 H3440 0.931 . S
C3425 C3424 1.391 . S
C3425 C3429 1.376 . S
C3426 C3424 1.394 . S
C3426 C3427 1.369 . S
C3426 C3430 1.531 . S
C3427 C3426 1.369 . S
C3427 C3428 1.410 . S
C3427 C3435 1.503 . S
C3428 C3427 1.410 . S
C3428 C3429 1.392 . S
C3428 C3431 1.511 . S
C3429 C3425 1.376 . S
C3429 C3428 1.392 . S
C3429 H3441 0.929 . S
C3430 C3426 1.531 . S
C3430 H3442 0.960 . S
C3430 H3443 0.962 . S
C3430 H3444 0.960 . S
C3431 C3428 1.511 . S
C3431 H3445 0.961 . S
C3431 H3446 0.961 . S
C3431 H3447 0.961 . S
C3432 C3433 1.370 . S
C3432 C3434 1.363 . S
C3432 H3448 0.931 . S
C3433 C3432 1.370 . S
C3433 C3437 1.408 . S
C3434 C3432 1.363 . S
C3434 C3435 1.370 . S
C3434 C3438 1.524 . S
C3435 C3427 1.503 . S
C3435 C3434 1.370 . S
C3435 C3436 1.403 . S
C3436 C3435 1.403 . S
C3436 C3437 1.404 . S
C3436 C3439 1.539 . S
C3437 C3433 1.408 . S
C3437 C3436 1.404 . S
C3437 H3449 0.930 . S
C3438 C3434 1.524 . S
C3438 H3450 0.956 . S
C3438 H3451 0.961 . S
C3438 H3452 0.961 . S
C3439 C3436 1.539 . S
C3439 H3453 0.958 . S
C3439 H3454 0.961 . S
C3439 H3455 0.960 . S
H3440 C3424 0.931 . S
H3441 C3429 0.929 . S
H3442 C3430 0.960 . S
H3443 C3430 0.962 . S
H3444 C3430 0.960 . S
H3445 C3431 0.961 . S
H3446 C3431 0.961 . S
H3447 C3431 0.961 . S
H3448 C3432 0.931 . S
H3449 C3437 0.930 . S
H3450 C3438 0.956 . S
H3451 C3438 0.961 . S
H3452 C3438 0.961 . S
H3453 C3439 0.958 . S
H3454 C3439 0.961 . S
H3455 C3439 0.960 . S
C3456 C3457 1.391 . S
C3456 C3458 1.394 . S
C3456 H3472 0.931 . S
C3457 C3456 1.391 . S
C3457 C3461 1.376 . S
C3458 C3456 1.394 . S
C3458 C3459 1.369 . S
C3458 C3462 1.531 . S
C3459 C3458 1.369 . S
C3459 C3460 1.410 . S
C3459 C3467 1.503 . S
C3460 C3459 1.410 . S
C3460 C3461 1.392 . S
C3460 C3463 1.511 . S
C3461 C3457 1.376 . S
C3461 C3460 1.392 . S
C3461 H3473 0.929 . S
C3462 C3458 1.531 . S
C3462 H3474 0.960 . S
C3462 H3475 0.962 . S
C3462 H3476 0.960 . S
C3463 C3460 1.511 . S
C3463 H3477 0.961 . S
C3463 H3478 0.961 . S
C3463 H3479 0.961 . S
C3464 C3465 1.370 . S
C3464 C3466 1.363 . S
C3464 H3480 0.931 . S
C3465 C3464 1.370 . S
C3465 C3469 1.408 . S
C3466 C3464 1.363 . S
C3466 C3467 1.370 . S
C3466 C3470 1.524 . S
C3467 C3459 1.503 . S
C3467 C3466 1.370 . S
C3467 C3468 1.403 . S
C3468 C3467 1.403 . S
C3468 C3469 1.404 . S
C3468 C3471 1.539 . S
C3469 C3465 1.408 . S
C3469 C3468 1.404 . S
C3469 H3481 0.930 . S
C3470 C3466 1.524 . S
C3470 H3482 0.956 . S
C3470 H3483 0.961 . S
C3470 H3484 0.961 . S
C3471 C3468 1.539 . S
C3471 H3485 0.958 . S
C3471 H3486 0.961 . S
C3471 H3487 0.960 . S
H3472 C3456 0.931 . S
H3473 C3461 0.929 . S
H3474 C3462 0.960 . S
H3475 C3462 0.962 . S
H3476 C3462 0.960 . S
H3477 C3463 0.961 . S
H3478 C3463 0.961 . S
H3479 C3463 0.961 . S
H3480 C3464 0.931 . S
H3481 C3469 0.930 . S
H3482 C3470 0.956 . S
H3483 C3470 0.961 . S
H3484 C3470 0.961 . S
H3485 C3471 0.958 . S
H3486 C3471 0.961 . S
H3487 C3471 0.960 . S
C3488 C3489 1.391 . S
C3488 C3490 1.394 . S
C3488 H3504 0.931 . S
C3489 C3488 1.391 . S
C3489 C3493 1.376 . S
C3490 C3488 1.394 . S
C3490 C3491 1.369 . S
C3490 C3494 1.531 . S
C3491 C3490 1.369 . S
C3491 C3492 1.410 . S
C3491 C3499 1.503 . S
C3492 C3491 1.410 . S
C3492 C3493 1.392 . S
C3492 C3495 1.511 . S
C3493 C3489 1.376 . S
C3493 C3492 1.392 . S
C3493 H3505 0.929 . S
C3494 C3490 1.531 . S
C3494 H3506 0.960 . S
C3494 H3507 0.962 . S
C3494 H3508 0.960 . S
C3495 C3492 1.511 . S
C3495 H3509 0.961 . S
C3495 H3510 0.961 . S
C3495 H3511 0.961 . S
C3496 C3497 1.370 . S
C3496 C3498 1.363 . S
C3496 H3512 0.931 . S
C3497 C3496 1.370 . S
C3497 C3501 1.408 . S
C3498 C3496 1.363 . S
C3498 C3499 1.370 . S
C3498 C3502 1.524 . S
C3499 C3491 1.503 . S
C3499 C3498 1.370 . S
C3499 C3500 1.403 . S
C3500 C3499 1.403 . S
C3500 C3501 1.404 . S
C3500 C3503 1.539 . S
C3501 C3497 1.408 . S
C3501 C3500 1.404 . S
C3501 H3513 0.930 . S
C3502 C3498 1.524 . S
C3502 H3514 0.956 . S
C3502 H3515 0.961 . S
C3502 H3516 0.961 . S
C3503 C3500 1.539 . S
C3503 H3517 0.958 . S
C3503 H3518 0.961 . S
C3503 H3519 0.960 . S
H3504 C3488 0.931 . S
H3505 C3493 0.929 . S
H3506 C3494 0.960 . S
H3507 C3494 0.962 . S
H3508 C3494 0.960 . S
H3509 C3495 0.961 . S
H3510 C3495 0.961 . S
H3511 C3495 0.961 . S
H3512 C3496 0.931 . S
H3513 C3501 0.930 . S
H3514 C3502 0.956 . S
H3515 C3502 0.961 . S
H3516 C3502 0.961 . S
H3517 C3503 0.958 . S
H3518 C3503 0.961 . S
H3519 C3503 0.960 . S
C3520 C3521 1.391 . S
C3520 C3522 1.394 . S
C3520 H3536 0.931 . S
C3521 C3520 1.391 . S
C3521 C3525 1.376 . S
C3522 C3520 1.394 . S
C3522 C3523 1.369 . S
C3522 C3526 1.531 . S
C3523 C3522 1.369 . S
C3523 C3524 1.410 . S
C3523 C3531 1.503 . S
C3524 C3523 1.410 . S
C3524 C3525 1.392 . S
C3524 C3527 1.511 . S
C3525 C3521 1.376 . S
C3525 C3524 1.392 . S
C3525 H3537 0.929 . S
C3526 C3522 1.531 . S
C3526 H3538 0.960 . S
C3526 H3539 0.962 . S
C3526 H3540 0.960 . S
C3527 C3524 1.511 . S
C3527 H3541 0.961 . S
C3527 H3542 0.961 . S
C3527 H3543 0.961 . S
C3528 C3529 1.370 . S
C3528 C3530 1.363 . S
C3528 H3544 0.931 . S
C3529 C3528 1.370 . S
C3529 C3533 1.408 . S
C3530 C3528 1.363 . S
C3530 C3531 1.370 . S
C3530 C3534 1.524 . S
C3531 C3523 1.503 . S
C3531 C3530 1.370 . S
C3531 C3532 1.403 . S
C3532 C3531 1.403 . S
C3532 C3533 1.404 . S
C3532 C3535 1.539 . S
C3533 C3529 1.408 . S
C3533 C3532 1.404 . S
C3533 H3545 0.930 . S
C3534 C3530 1.524 . S
C3534 H3546 0.956 . S
C3534 H3547 0.961 . S
C3534 H3548 0.961 . S
C3535 C3532 1.539 . S
C3535 H3549 0.958 . S
C3535 H3550 0.961 . S
C3535 H3551 0.960 . S
H3536 C3520 0.931 . S
H3537 C3525 0.929 . S
H3538 C3526 0.960 . S
H3539 C3526 0.962 . S
H3540 C3526 0.960 . S
H3541 C3527 0.961 . S
H3542 C3527 0.961 . S
H3543 C3527 0.961 . S
H3544 C3528 0.931 . S
H3545 C3533 0.930 . S
H3546 C3534 0.956 . S
H3547 C3534 0.961 . S
H3548 C3534 0.961 . S
H3549 C3535 0.958 . S
H3550 C3535 0.961 . S
H3551 C3535 0.960 . S
C3552 C3553 1.391 . S
C3552 C3554 1.394 . S
C3552 H3568 0.931 . S
C3553 C3552 1.391 . S
C3553 C3557 1.376 . S
C3554 C3552 1.394 . S
C3554 C3555 1.369 . S
C3554 C3558 1.531 . S
C3555 C3554 1.369 . S
C3555 C3556 1.410 . S
C3555 C3563 1.503 . S
C3556 C3555 1.410 . S
C3556 C3557 1.392 . S
C3556 C3559 1.511 . S
C3557 C3553 1.376 . S
C3557 C3556 1.392 . S
C3557 H3569 0.929 . S
C3558 C3554 1.531 . S
C3558 H3570 0.960 . S
C3558 H3571 0.962 . S
C3558 H3572 0.960 . S
C3559 C3556 1.511 . S
C3559 H3573 0.961 . S
C3559 H3574 0.961 . S
C3559 H3575 0.961 . S
C3560 C3561 1.370 . S
C3560 C3562 1.363 . S
C3560 H3576 0.931 . S
C3561 C3560 1.370 . S
C3561 C3565 1.408 . S
C3562 C3560 1.363 . S
C3562 C3563 1.370 . S
C3562 C3566 1.524 . S
C3563 C3555 1.503 . S
C3563 C3562 1.370 . S
C3563 C3564 1.403 . S
C3564 C3563 1.403 . S
C3564 C3565 1.404 . S
C3564 C3567 1.539 . S
C3565 C3561 1.408 . S
C3565 C3564 1.404 . S
C3565 H3577 0.930 . S
C3566 C3562 1.524 . S
C3566 H3578 0.956 . S
C3566 H3579 0.961 . S
C3566 H3580 0.961 . S
C3567 C3564 1.539 . S
C3567 H3581 0.958 . S
C3567 H3582 0.961 . S
C3567 H3583 0.960 . S
H3568 C3552 0.931 . S
H3569 C3557 0.929 . S
H3570 C3558 0.960 . S
H3571 C3558 0.962 . S
H3572 C3558 0.960 . S
H3573 C3559 0.961 . S
H3574 C3559 0.961 . S
H3575 C3559 0.961 . S
H3576 C3560 0.931 . S
H3577 C3565 0.930 . S
H3578 C3566 0.956 . S
H3579 C3566 0.961 . S
H3580 C3566 0.961 . S
H3581 C3567 0.958 . S
H3582 C3567 0.961 . S
H3583 C3567 0.960 . S
C3584 C3585 1.391 . S
C3584 C3586 1.394 . S
C3584 H3600 0.931 . S
C3585 C3584 1.391 . S
C3585 C3589 1.376 . S
C3586 C3584 1.394 . S
C3586 C3587 1.369 . S
C3586 C3590 1.531 . S
C3587 C3586 1.369 . S
C3587 C3588 1.410 . S
C3587 C3595 1.503 . S
C3588 C3587 1.410 . S
C3588 C3589 1.392 . S
C3588 C3591 1.511 . S
C3589 C3585 1.376 . S
C3589 C3588 1.392 . S
C3589 H3601 0.929 . S
C3590 C3586 1.531 . S
C3590 H3602 0.960 . S
C3590 H3603 0.962 . S
C3590 H3604 0.960 . S
C3591 C3588 1.511 . S
C3591 H3605 0.961 . S
C3591 H3606 0.961 . S
C3591 H3607 0.961 . S
C3592 C3593 1.370 . S
C3592 C3594 1.363 . S
C3592 H3608 0.931 . S
C3593 C3592 1.370 . S
C3593 C3597 1.408 . S
C3594 C3592 1.363 . S
C3594 C3595 1.370 . S
C3594 C3598 1.524 . S
C3595 C3587 1.503 . S
C3595 C3594 1.370 . S
C3595 C3596 1.403 . S
C3596 C3595 1.403 . S
C3596 C3597 1.404 . S
C3596 C3599 1.539 . S
C3597 C3593 1.408 . S
C3597 C3596 1.404 . S
C3597 H3609 0.930 . S
C3598 C3594 1.524 . S
C3598 H3610 0.956 . S
C3598 H3611 0.961 . S
C3598 H3612 0.961 . S
C3599 C3596 1.539 . S
C3599 H3613 0.958 . S
C3599 H3614 0.961 . S
C3599 H3615 0.960 . S
H3600 C3584 0.931 . S
H3601 C3589 0.929 . S
H3602 C3590 0.960 . S
H3603 C3590 0.962 . S
H3604 C3590 0.960 . S
H3605 C3591 0.961 . S
H3606 C3591 0.961 . S
H3607 C3591 0.961 . S
H3608 C3592 0.931 . S
H3609 C3597 0.930 . S
H3610 C3598 0.956 . S
H3611 C3598 0.961 . S
H3612 C3598 0.961 . S
H3613 C3599 0.958 . S
H3614 C3599 0.961 . S
H3615 C3599 0.960 . S
C3616 C3617 1.391 . S
C3616 C3618 1.394 . S
C3616 H3632 0.931 . S
C3617 C3616 1.391 . S
C3617 C3621 1.376 . S
C3618 C3616 1.394 . S
C3618 C3619 1.369 . S
C3618 C3622 1.531 . S
C3619 C3618 1.369 . S
C3619 C3620 1.410 . S
C3619 C3627 1.503 . S
C3620 C3619 1.410 . S
C3620 C3621 1.392 . S
C3620 C3623 1.511 . S
C3621 C3617 1.376 . S
C3621 C3620 1.392 . S
C3621 H3633 0.929 . S
C3622 C3618 1.531 . S
C3622 H3634 0.960 . S
C3622 H3635 0.962 . S
C3622 H3636 0.960 . S
C3623 C3620 1.511 . S
C3623 H3637 0.961 . S
C3623 H3638 0.961 . S
C3623 H3639 0.961 . S
C3624 C3625 1.370 . S
C3624 C3626 1.363 . S
C3624 H3640 0.931 . S
C3625 C3624 1.370 . S
C3625 C3629 1.408 . S
C3626 C3624 1.363 . S
C3626 C3627 1.370 . S
C3626 C3630 1.524 . S
C3627 C3619 1.503 . S
C3627 C3626 1.370 . S
C3627 C3628 1.403 . S
C3628 C3627 1.403 . S
C3628 C3629 1.404 . S
C3628 C3631 1.539 . S
C3629 C3625 1.408 . S
C3629 C3628 1.404 . S
C3629 H3641 0.930 . S
C3630 C3626 1.524 . S
C3630 H3642 0.956 . S
C3630 H3643 0.961 . S
C3630 H3644 0.961 . S
C3631 C3628 1.539 . S
C3631 H3645 0.958 . S
C3631 H3646 0.961 . S
C3631 H3647 0.960 . S
H3632 C3616 0.931 . S
H3633 C3621 0.929 . S
H3634 C3622 0.960 . S
H3635 C3622 0.962 . S
H3636 C3622 0.960 . S
H3637 C3623 0.961 . S
H3638 C3623 0.961 . S
H3639 C3623 0.961 . S
H3640 C3624 0.931 . S
H3641 C3629 0.930 . S
H3642 C3630 0.956 . S
H3643 C3630 0.961 . S
H3644 C3630 0.961 . S
H3645 C3631 0.958 . S
H3646 C3631 0.961 . S
H3647 C3631 0.960 . S
C2113 C29 1.213 . S
C2121 C673 1.222 . S
C2145 C724 1.245 . S
C2153 C117 1.237 . S
C2177 C205 1.209 . S
C2185 C821 1.221 . S
C2209 C284 1.213 . S
C2217 C937 1.222 . S
C2241 C1017 1.238 . S
C2249 C381 1.235 . S
C2273 C497 1.243 . S
C2281 C577 1.235 . S
C2305 C1076 1.201 . S
C2313 C1721 1.210 . S
C2337 C1173 1.215 . S
C2345 C1809 1.219 . S
C2369 C1905 1.205 . S
C2377 C1252 1.215 . S
C2401 C1340 1.233 . S
C2409 C1993 1.224 . S
C2433 C1437 1.230 . S
C2441 C2073 1.224 . S
C2465 C1633 1.218 . S
C2473 C1516 1.220 . S
C2497 C57 1.010 . S
C2505 C753 1.005 . S
C2529 C849 0.999 . S
C2537 C145 1.008 . S
C2561 C909 1.000 . S
C2569 C233 1.008 . S
C2593 C313 1.003 . S
C2601 C988 0.997 . S
C2625 C409 1.006 . S
C2633 C548 0.997 . S
C2657 C469 1.001 . S
C2665 C645 1.008 . S
C2689 C1780 1.022 . S
C2697 C1105 1.013 . S
C2721 C1201 1.003 . S
C2729 C1877 1.007 . S
C2753 C1965 1.013 . S
C2761 C1281 1.017 . S
C2785 C2044 1.004 . S
C2793 C1369 1.015 . S
C2817 C1604 0.999 . S
C2825 C1465 1.008 . S
C2849 C1545 1.022 . S
C2857 C1692 1.013 . S
C2881 C49 1.524 . S
C2889 C1349 1.526 . S
C2913 C1428 1.523 . S
C2921 C137 1.527 . S
C2945 C1525 1.528 . S
C2953 C225 1.529 . S
C2977 C321 1.519 . S
C2985 C1085 1.525 . S
C3009 C401 1.528 . S
C3017 C1164 1.528 . S
C3041 C1261 1.516 . S
C3049 C460 1.524 . S
C3073 C1897 1.521 . S
C3081 C557 1.526 . S
C3105 C1985 1.526 . S
C3113 C636 1.528 . S
C3137 C2081 1.528 . S
C3145 C761 1.528 . S
C3169 C1641 1.523 . S
C3177 C841 1.527 . S
C3201 C900 1.528 . S
C3209 C1729 1.528 . S
C3233 C997 1.524 . S
C3241 C1817 1.527 . S
C3265 C20 1.616 . S
C3273 C929 1.617 . S
C3297 C1025 1.616 . S
C3305 C108 1.617 . S
C3329 C585 1.626 . S
C3337 C196 1.623 . S
C3361 C293 1.615 . S
C3369 C665 1.623 . S
C3393 C372 1.610 . S
C3401 C733 1.616 . S
C3425 C489 1.606 . S
C3433 C812 1.616 . S
C3457 C1113 1.625 . S
C3465 C1956 1.623 . S
C3489 C1193 1.607 . S
C3497 C2053 1.620 . S
C3521 C1289 1.611 . S
C3529 C1613 1.617 . S
C3553 C1701 1.610 . S
C3561 C1377 1.622 . S
C3585 C1457 1.623 . S
C3593 C1789 1.624 . S
C3617 C1553 1.619 . S
C3625 C1868 1.624 . S
