# Generated by pormake.
# Topology ato, (4)-cn, num edge types: 1
# Building blocks:
#     Node 0, Type 0, BuildingBlock: QUQFOY_clean_sbu_3, # of connection points: 4
#     Node 1, Type 0, BuildingBlock: QUQFOY_clean_sbu_3, # of connection points: 4
#     Node 2, Type 0, BuildingBlock: QUQFOY_clean_sbu_3, # of connection points: 4
#     Node 3, Type 0, BuildingBlock: QUQFOY_clean_sbu_3, # of connection points: 4
#     Node 4, Type 0, BuildingBlock: QUQFOY_clean_sbu_3, # of connection points: 4
#     Node 5, Type 0, BuildingBlock: QUQFOY_clean_sbu_3, # of connection points: 4
#     Node 6, Type 0, BuildingBlock: QUQFOY_clean_sbu_3, # of connection points: 4
#     Node 7, Type 0, BuildingBlock: QUQFOY_clean_sbu_3, # of connection points: 4
#     Node 8, Type 0, BuildingBlock: QUQFOY_clean_sbu_3, # of connection points: 4
#     Node 9, Type 0, BuildingBlock: QUQFOY_clean_sbu_3, # of connection points: 4
#     Node 10, Type 0, BuildingBlock: QUQFOY_clean_sbu_3, # of connection points: 4
#     Node 11, Type 0, BuildingBlock: QUQFOY_clean_sbu_3, # of connection points: 4
#     Node 12, Type 0, BuildingBlock: QUQFOY_clean_sbu_3, # of connection points: 4
#     Node 13, Type 0, BuildingBlock: QUQFOY_clean_sbu_3, # of connection points: 4
#     Node 14, Type 0, BuildingBlock: QUQFOY_clean_sbu_3, # of connection points: 4
#     Node 15, Type 0, BuildingBlock: QUQFOY_clean_sbu_3, # of connection points: 4
#     Node 16, Type 0, BuildingBlock: QUQFOY_clean_sbu_3, # of connection points: 4
#     Node 17, Type 0, BuildingBlock: QUQFOY_clean_sbu_3, # of connection points: 4
#     Node 18, Type 0, BuildingBlock: QUQFOY_clean_sbu_3, # of connection points: 4
#     Node 19, Type 0, BuildingBlock: QUQFOY_clean_sbu_3, # of connection points: 4
#     Node 20, Type 0, BuildingBlock: QUQFOY_clean_sbu_3, # of connection points: 4
#     Node 21, Type 0, BuildingBlock: QUQFOY_clean_sbu_3, # of connection points: 4
#     Node 22, Type 0, BuildingBlock: QUQFOY_clean_sbu_3, # of connection points: 4
#     Node 23, Type 0, BuildingBlock: QUQFOY_clean_sbu_3, # of connection points: 4
#     Node 24, Type 0, BuildingBlock: QUQFOY_clean_sbu_3, # of connection points: 4
#     Node 25, Type 0, BuildingBlock: QUQFOY_clean_sbu_3, # of connection points: 4
#     Node 26, Type 0, BuildingBlock: QUQFOY_clean_sbu_3, # of connection points: 4
#     Node 27, Type 0, BuildingBlock: QUQFOY_clean_sbu_3, # of connection points: 4
#     Node 28, Type 0, BuildingBlock: QUQFOY_clean_sbu_3, # of connection points: 4
#     Node 29, Type 0, BuildingBlock: QUQFOY_clean_sbu_3, # of connection points: 4
#     Node 30, Type 0, BuildingBlock: QUQFOY_clean_sbu_3, # of connection points: 4
#     Node 31, Type 0, BuildingBlock: QUQFOY_clean_sbu_3, # of connection points: 4
#     Node 32, Type 0, BuildingBlock: QUQFOY_clean_sbu_3, # of connection points: 4
#     Node 33, Type 0, BuildingBlock: QUQFOY_clean_sbu_3, # of connection points: 4
#     Node 34, Type 0, BuildingBlock: QUQFOY_clean_sbu_3, # of connection points: 4
#     Node 35, Type 0, BuildingBlock: QUQFOY_clean_sbu_3, # of connection points: 4
#     Edge 36, Type (0, 0), BuildingBlock: OJICUG_clean_linker_0, # of connection points: 2
#     Edge 37, Type (0, 0), BuildingBlock: OJICUG_clean_linker_0, # of connection points: 2
#     Edge 38, Type (0, 0), BuildingBlock: OJICUG_clean_linker_0, # of connection points: 2
#     Edge 39, Type (0, 0), BuildingBlock: OJICUG_clean_linker_0, # of connection points: 2
#     Edge 40, Type (0, 0), BuildingBlock: OJICUG_clean_linker_0, # of connection points: 2
#     Edge 41, Type (0, 0), BuildingBlock: OJICUG_clean_linker_0, # of connection points: 2
#     Edge 42, Type (0, 0), BuildingBlock: OJICUG_clean_linker_0, # of connection points: 2
#     Edge 43, Type (0, 0), BuildingBlock: OJICUG_clean_linker_0, # of connection points: 2
#     Edge 44, Type (0, 0), BuildingBlock: OJICUG_clean_linker_0, # of connection points: 2
#     Edge 45, Type (0, 0), BuildingBlock: OJICUG_clean_linker_0, # of connection points: 2
#     Edge 46, Type (0, 0), BuildingBlock: OJICUG_clean_linker_0, # of connection points: 2
#     Edge 47, Type (0, 0), BuildingBlock: OJICUG_clean_linker_0, # of connection points: 2
#     Edge 48, Type (0, 0), BuildingBlock: OJICUG_clean_linker_0, # of connection points: 2
#     Edge 49, Type (0, 0), BuildingBlock: OJICUG_clean_linker_0, # of connection points: 2
#     Edge 50, Type (0, 0), BuildingBlock: OJICUG_clean_linker_0, # of connection points: 2
#     Edge 51, Type (0, 0), BuildingBlock: OJICUG_clean_linker_0, # of connection points: 2
#     Edge 52, Type (0, 0), BuildingBlock: OJICUG_clean_linker_0, # of connection points: 2
#     Edge 53, Type (0, 0), BuildingBlock: OJICUG_clean_linker_0, # of connection points: 2
#     Edge 54, Type (0, 0), BuildingBlock: OJICUG_clean_linker_0, # of connection points: 2
#     Edge 55, Type (0, 0), BuildingBlock: OJICUG_clean_linker_0, # of connection points: 2
#     Edge 56, Type (0, 0), BuildingBlock: OJICUG_clean_linker_0, # of connection points: 2
#     Edge 57, Type (0, 0), BuildingBlock: OJICUG_clean_linker_0, # of connection points: 2
#     Edge 58, Type (0, 0), BuildingBlock: OJICUG_clean_linker_0, # of connection points: 2
#     Edge 59, Type (0, 0), BuildingBlock: OJICUG_clean_linker_0, # of connection points: 2
#     Edge 60, Type (0, 0), BuildingBlock: OJICUG_clean_linker_0, # of connection points: 2
#     Edge 61, Type (0, 0), BuildingBlock: OJICUG_clean_linker_0, # of connection points: 2
#     Edge 62, Type (0, 0), BuildingBlock: OJICUG_clean_linker_0, # of connection points: 2
#     Edge 63, Type (0, 0), BuildingBlock: OJICUG_clean_linker_0, # of connection points: 2
#     Edge 64, Type (0, 0), BuildingBlock: OJICUG_clean_linker_0, # of connection points: 2
#     Edge 65, Type (0, 0), BuildingBlock: OJICUG_clean_linker_0, # of connection points: 2
#     Edge 66, Type (0, 0), BuildingBlock: OJICUG_clean_linker_0, # of connection points: 2
#     Edge 67, Type (0, 0), BuildingBlock: OJICUG_clean_linker_0, # of connection points: 2
#     Edge 68, Type (0, 0), BuildingBlock: OJICUG_clean_linker_0, # of connection points: 2
#     Edge 69, Type (0, 0), BuildingBlock: OJICUG_clean_linker_0, # of connection points: 2
#     Edge 70, Type (0, 0), BuildingBlock: OJICUG_clean_linker_0, # of connection points: 2
#     Edge 71, Type (0, 0), BuildingBlock: OJICUG_clean_linker_0, # of connection points: 2
#     Edge 72, Type (0, 0), BuildingBlock: OJICUG_clean_linker_0, # of connection points: 2
#     Edge 73, Type (0, 0), BuildingBlock: OJICUG_clean_linker_0, # of connection points: 2
#     Edge 74, Type (0, 0), BuildingBlock: OJICUG_clean_linker_0, # of connection points: 2
#     Edge 75, Type (0, 0), BuildingBlock: OJICUG_clean_linker_0, # of connection points: 2
#     Edge 76, Type (0, 0), BuildingBlock: OJICUG_clean_linker_0, # of connection points: 2
#     Edge 77, Type (0, 0), BuildingBlock: OJICUG_clean_linker_0, # of connection points: 2
#     Edge 78, Type (0, 0), BuildingBlock: OJICUG_clean_linker_0, # of connection points: 2
#     Edge 79, Type (0, 0), BuildingBlock: OJICUG_clean_linker_0, # of connection points: 2
#     Edge 80, Type (0, 0), BuildingBlock: OJICUG_clean_linker_0, # of connection points: 2
#     Edge 81, Type (0, 0), BuildingBlock: OJICUG_clean_linker_0, # of connection points: 2
#     Edge 82, Type (0, 0), BuildingBlock: OJICUG_clean_linker_0, # of connection points: 2
#     Edge 83, Type (0, 0), BuildingBlock: OJICUG_clean_linker_0, # of connection points: 2
#     Edge 84, Type (0, 0), BuildingBlock: OJICUG_clean_linker_0, # of connection points: 2
#     Edge 85, Type (0, 0), BuildingBlock: OJICUG_clean_linker_0, # of connection points: 2
#     Edge 86, Type (0, 0), BuildingBlock: OJICUG_clean_linker_0, # of connection points: 2
#     Edge 87, Type (0, 0), BuildingBlock: OJICUG_clean_linker_0, # of connection points: 2
#     Edge 88, Type (0, 0), BuildingBlock: OJICUG_clean_linker_0, # of connection points: 2
#     Edge 89, Type (0, 0), BuildingBlock: OJICUG_clean_linker_0, # of connection points: 2
#     Edge 90, Type (0, 0), BuildingBlock: OJICUG_clean_linker_0, # of connection points: 2
#     Edge 91, Type (0, 0), BuildingBlock: OJICUG_clean_linker_0, # of connection points: 2
#     Edge 92, Type (0, 0), BuildingBlock: OJICUG_clean_linker_0, # of connection points: 2
#     Edge 93, Type (0, 0), BuildingBlock: OJICUG_clean_linker_0, # of connection points: 2
#     Edge 94, Type (0, 0), BuildingBlock: OJICUG_clean_linker_0, # of connection points: 2
#     Edge 95, Type (0, 0), BuildingBlock: OJICUG_clean_linker_0, # of connection points: 2
#     Edge 96, Type (0, 0), BuildingBlock: OJICUG_clean_linker_0, # of connection points: 2
#     Edge 97, Type (0, 0), BuildingBlock: OJICUG_clean_linker_0, # of connection points: 2
#     Edge 98, Type (0, 0), BuildingBlock: OJICUG_clean_linker_0, # of connection points: 2
#     Edge 99, Type (0, 0), BuildingBlock: OJICUG_clean_linker_0, # of connection points: 2
#     Edge 100, Type (0, 0), BuildingBlock: OJICUG_clean_linker_0, # of connection points: 2
#     Edge 101, Type (0, 0), BuildingBlock: OJICUG_clean_linker_0, # of connection points: 2
#     Edge 102, Type (0, 0), BuildingBlock: OJICUG_clean_linker_0, # of connection points: 2
#     Edge 103, Type (0, 0), BuildingBlock: OJICUG_clean_linker_0, # of connection points: 2
#     Edge 104, Type (0, 0), BuildingBlock: OJICUG_clean_linker_0, # of connection points: 2
#     Edge 105, Type (0, 0), BuildingBlock: OJICUG_clean_linker_0, # of connection points: 2
#     Edge 106, Type (0, 0), BuildingBlock: OJICUG_clean_linker_0, # of connection points: 2
#     Edge 107, Type (0, 0), BuildingBlock: OJICUG_clean_linker_0, # of connection points: 2
# Relax obj value: 0.074
# Max RMSD: 0.090
# Mean RMSD: 0.090
data_MOF--net-ato--node1-QUQFOY_clean_sbu_3--edge1-OJICUG_clean_linker_0
_symmetry_space_group_name_H-M    P1
_symmetry_Int_Tables_number       1
_symmetry_cell_setting            triclinic
loop_
_symmetry_equiv_pos_as_xyz
'x, y, z'
_cell_length_a     78.190339
_cell_length_b     78.316188
_cell_length_c     18.442974
_cell_angle_alpha  89.91791
_cell_angle_beta   90.038036
_cell_angle_gamma 120.02279
loop_
_atom_site_label
_atom_site_type_symbol
_atom_site_fract_x
_atom_site_fract_y
_atom_site_fract_z
_atom_type_partial_charge
C0 C 0.21513 0.06704 0.18978 0.0
O1 O 0.21527 0.06573 0.12124 0.0
Cd2 Cd 0.22856 0.04986 0.05197 0.0
O3 O 0.22155 0.05828 0.23033 0.0
Cd4 Cd 0.23246 0.03381 0.20751 0.0
C5 C 0.27455 0.06841 0.13261 0.0
O6 O 0.21284 0.01811 0.10257 0.0
O7 O 0.23715 0.013 0.11847 0.0
O8 O 0.20881 0.01247 0.29645 0.0
C9 C 0.22188 0.00936 0.0825 0.0
O10 O 0.264 0.06652 0.07715 0.0
C11 C 0.2207 0.00881 0.33068 0.0
O12 O 0.2667 0.05916 0.19119 0.0
O13 O 0.23855 0.01757 0.30943 0.0
C14 C 0.8975 0.13759 0.24065 0.0
O15 O 0.90472 0.1429 0.17756 0.0
Cd16 Cd 0.92627 0.17527 0.13742 0.0
O17 O 0.90268 0.15001 0.29235 0.0
Cd18 Cd 0.92831 0.18553 0.30555 0.0
C19 C 0.90083 0.19771 0.20237 0.0
O20 O 0.95208 0.18639 0.22262 0.0
O21 O 0.95517 0.21473 0.24271 0.0
O22 O 0.94053 0.17783 0.41388 0.0
C23 C 0.96193 0.20477 0.21276 0.0
O24 O 0.90757 0.19269 0.14858 0.0
C25 C 0.94232 0.19238 0.45024 0.0
O26 O 0.905 0.19547 0.26716 0.0
O27 O 0.93633 0.20311 0.42065 0.0
C28 C 0.82668 0.75499 0.16059 0.0
O29 O 0.82565 0.75157 0.09303 0.0
Cd30 Cd 0.7969 0.73579 0.02088 0.0
O31 O 0.81133 0.75084 0.19751 0.0
Cd32 Cd 0.77636 0.73908 0.1634 0.0
C33 C 0.76973 0.69439 0.12454 0.0
O34 O 0.78176 0.75461 0.04684 0.0
O35 O 0.75185 0.73155 0.06564 0.0
O36 O 0.77726 0.76464 0.24009 0.0
C37 C 0.76409 0.74536 0.02517 0.0
O38 O 0.7779 0.70163 0.06376 0.0
C39 C 0.76132 0.75325 0.2733 0.0
O40 O 0.76848 0.70519 0.17327 0.0
O41 O 0.75254 0.73512 0.25607 0.0
C42 C 0.05754 0.21573 0.81282 0.0
O43 O 0.05946 0.21883 0.88064 0.0
Cd44 Cd 0.0462 0.23442 0.95205 0.0
O45 O 0.04668 0.22014 0.77493 0.0
Cd46 Cd 0.02332 0.23189 0.80716 0.0
C47 C 0.0612 0.27636 0.85041 0.0
O48 O 0.01239 0.21601 0.92287 0.0
O49 O 0.00597 0.23931 0.90368 0.0
O50 O -0.0012 0.20659 0.72891 0.0
C51 C 0.00405 0.22535 0.94407 0.0
O52 O 0.06172 0.26873 0.91084 0.0
C53 C -0.00548 0.21813 0.6954 0.0
O54 O 0.04946 0.26587 0.8003 0.0
O55 O 0.004 0.23623 0.71296 0.0
C56 C 0.74583 0.83381 0.72963 0.0
O57 O 0.74783 0.82863 0.79287 0.0
Cd58 Cd 0.73726 0.79627 0.83289 0.0
O59 O 0.73875 0.82133 0.6781 0.0
Cd60 Cd 0.72886 0.78593 0.66446 0.0
C61 C 0.68933 0.77393 0.76821 0.0
O62 O 0.75172 0.78497 0.74743 0.0
O63 O 0.72646 0.75665 0.72613 0.0
O64 O 0.74861 0.79365 0.55575 0.0
C65 C 0.74313 0.76655 0.75664 0.0
O66 O 0.70109 0.77886 0.82209 0.0
C67 C 0.73564 0.77922 0.51932 0.0
O68 O 0.69575 0.77618 0.70345 0.0
O69 O 0.71895 0.76854 0.54919 0.0
C70 C 0.1342 0.90474 0.75492 0.0
O71 O 0.13797 0.90952 0.82117 0.0
Cd72 Cd 0.16923 0.92899 0.87452 0.0
O73 O 0.1479 0.91131 0.70744 0.0
Cd74 Cd 0.18388 0.93621 0.70887 0.0
C75 C 0.1937 0.9059 0.80524 0.0
O76 O 0.18262 0.95709 0.79996 0.0
O77 O 0.21162 0.96143 0.78194 0.0
O78 O 0.17839 0.95173 0.60557 0.0
C79 C 0.20082 0.96687 0.81397 0.0
O80 O 0.18704 0.91088 0.85939 0.0
C81 C 0.19363 0.95461 0.57101 0.0
O82 O 0.19315 0.91193 0.74157 0.0
O83 O 0.20383 0.94775 0.59872 0.0
C84 C 0.74292 0.9038 0.75636 0.0
O85 O 0.74427 0.90807 0.82325 0.0
Cd86 Cd 0.73332 0.92772 0.88103 0.0
O87 O 0.73601 0.9111 0.71096 0.0
Cd88 Cd 0.72581 0.93652 0.71688 0.0
C89 C 0.68558 0.90616 0.81303 0.0
O90 O 0.7481 0.95647 0.80988 0.0
O91 O 0.72384 0.96151 0.79219 0.0
O92 O 0.74711 0.9527 0.61498 0.0
C93 C 0.73988 0.96637 0.82497 0.0
O94 O 0.69737 0.91046 0.86652 0.0
C95 C 0.73488 0.95584 0.58074 0.0
O96 O 0.69205 0.91258 0.74956 0.0
O97 O 0.71773 0.94887 0.60796 0.0
C98 C 0.06097 0.83534 0.75284 0.0
O99 O 0.05644 0.83148 0.81926 0.0
Cd100 Cd 0.03613 0.80003 0.8702 0.0
O101 O 0.0534 0.8219 0.70474 0.0
Cd102 Cd 0.02703 0.78659 0.70631 0.0
C103 C 0.05787 0.77556 0.79227 0.0
O104 O 0.00699 0.78794 0.80104 0.0
O105 O 0.00237 0.75892 0.78151 0.0
O106 O 0.01107 0.79266 0.60526 0.0
C107 C -0.00293 0.76971 0.81436 0.0
O108 O 0.05348 0.78161 0.84959 0.0
C109 C 0.00799 0.77752 0.56968 0.0
O110 O 0.05124 0.77686 0.73072 0.0
O111 O 0.01475 0.76709 0.59613 0.0
C112 C 0.12576 0.21552 0.79771 0.0
O113 O 0.12855 0.21866 0.86532 0.0
Cd114 Cd 0.15867 0.23291 0.92919 0.0
O115 O 0.14002 0.2195 0.75468 0.0
Cd116 Cd 0.17561 0.23063 0.77662 0.0
C117 C 0.1851 0.27539 0.83022 0.0
O118 O 0.17186 0.2134 0.88827 0.0
O119 O 0.20155 0.23648 0.86711 0.0
O120 O 0.17329 0.20597 0.69127 0.0
C121 C 0.18981 0.22204 0.90636 0.0
O122 O 0.17805 0.2675 0.89154 0.0
C123 C 0.18895 0.21764 0.65711 0.0
O124 O 0.18464 0.26498 0.77657 0.0
O125 O 0.19802 0.23555 0.67714 0.0
C126 C 0.89468 0.75465 0.18116 0.0
O127 O 0.89466 0.75156 0.11364 0.0
Cd128 Cd 0.91063 0.73715 0.05189 0.0
O129 O 0.90455 0.75042 0.22533 0.0
Cd130 Cd 0.92875 0.7389 0.20607 0.0
C131 C 0.89348 0.69438 0.14992 0.0
O132 O 0.94308 0.75653 0.09607 0.0
O133 O 0.94936 0.73327 0.11738 0.0
O134 O 0.95057 0.76325 0.29325 0.0
C135 C 0.95248 0.74796 0.07881 0.0
O136 O 0.8948 0.70243 0.08855 0.0
C137 C 0.95435 0.75148 0.32768 0.0
O138 O 0.90316 0.70463 0.20431 0.0
O139 O 0.9456 0.73363 0.30697 0.0
C140 C 0.21054 0.13475 0.22361 0.0
O141 O 0.20969 0.13927 0.15815 0.0
Cd142 Cd 0.22091 0.17108 0.11112 0.0
O143 O 0.21676 0.14773 0.27352 0.0
Cd144 Cd 0.22589 0.18316 0.27647 0.0
C145 C 0.26753 0.19501 0.18702 0.0
O146 O 0.20406 0.18246 0.18456 0.0
O147 O 0.22878 0.21128 0.2041 0.0
O148 O 0.20422 0.1766 0.37921 0.0
C149 C 0.21244 0.20073 0.17218 0.0
O150 O 0.25682 0.18936 0.13016 0.0
C151 C 0.21642 0.1916 0.41519 0.0
O152 O 0.25984 0.1932 0.24939 0.0
O153 O 0.23354 0.20211 0.38825 0.0
C154 C 0.82563 0.06853 0.19668 0.0
O155 O 0.82422 0.06666 0.12827 0.0
Cd156 Cd 0.79494 0.04956 0.05972 0.0
O157 O 0.81046 0.05973 0.23727 0.0
Cd158 Cd 0.77524 0.03447 0.21564 0.0
C159 C 0.76681 0.06784 0.13592 0.0
O160 O 0.77927 0.01809 0.11287 0.0
O161 O 0.74981 0.01297 0.12798 0.0
O162 O 0.77791 0.01391 0.307 0.0
C163 C 0.76142 0.00909 0.09319 0.0
O164 O 0.77557 0.06575 0.08126 0.0
C165 C 0.7623 0.01021 0.34077 0.0
O166 O 0.76567 0.05915 0.19565 0.0
O167 O 0.75302 0.01866 0.31823 0.0
C168 C 0.88105 0.40231 0.53767 0.0
O169 O 0.88071 0.39995 0.46953 0.0
Cd170 Cd 0.8925 0.38198 0.40472 0.0
O171 O 0.88713 0.39365 0.58026 0.0
Cd172 Cd 0.89679 0.36806 0.56298 0.0
C173 C 0.93882 0.40057 0.48186 0.0
O174 O 0.8761 0.35097 0.46158 0.0
O175 O 0.90029 0.34571 0.47816 0.0
O176 O 0.8738 0.34843 0.65667 0.0
C177 C 0.88471 0.34164 0.44349 0.0
O178 O 0.92811 0.39807 0.42631 0.0
C179 C 0.88575 0.34483 0.69066 0.0
O180 O 0.9311 0.39244 0.54217 0.0
O181 O 0.90338 0.35294 0.66716 0.0
C182 C 0.56643 0.47174 0.5722 0.0
O183 O 0.57336 0.47689 0.50867 0.0
Cd184 Cd 0.59521 0.50921 0.46835 0.0
O185 O 0.57206 0.48423 0.62375 0.0
Cd186 Cd 0.59778 0.51962 0.6367 0.0
C187 C 0.57021 0.53194 0.53453 0.0
O188 O 0.62121 0.52018 0.55289 0.0
O189 O 0.62481 0.54869 0.57409 0.0
O190 O 0.60994 0.51168 0.7447 0.0
C191 C 0.63128 0.53858 0.54348 0.0
O192 O 0.57677 0.52687 0.48031 0.0
C193 C 0.61172 0.52617 0.78144 0.0
O194 O 0.57453 0.52968 0.59907 0.0
O195 O 0.60585 0.53702 0.75208 0.0
C196 C 0.49721 0.08789 0.49329 0.0
O197 O 0.49531 0.08438 0.42574 0.0
Cd198 Cd 0.46596 0.06925 0.35697 0.0
O199 O 0.48238 0.08397 0.53313 0.0
Cd200 Cd 0.44706 0.07249 0.50473 0.0
C201 C 0.4389 0.02755 0.45973 0.0
O202 O 0.45186 0.08855 0.38979 0.0
O203 O 0.42189 0.06596 0.41014 0.0
O204 O 0.44898 0.09797 0.5847 0.0
C205 C 0.43407 0.0798 0.36962 0.0
O206 O 0.44669 0.03502 0.39869 0.0
C207 C 0.43314 0.08667 0.61862 0.0
O208 O 0.4384 0.03825 0.51055 0.0
O209 O 0.42402 0.0686 0.6006 0.0
C210 C 0.72758 0.55033 0.14434 0.0
O211 O 0.73008 0.55452 0.21134 0.0
Cd212 Cd 0.7163 0.56981 0.28155 0.0
O213 O 0.71603 0.55367 0.10598 0.0
Cd214 Cd 0.69271 0.56548 0.138 0.0
C215 C 0.72975 0.61078 0.17719 0.0
O216 O 0.68238 0.55009 0.25499 0.0
O217 O 0.6753 0.57287 0.2344 0.0
O218 O 0.66801 0.53997 0.06054 0.0
C219 C 0.67369 0.55915 0.27546 0.0
O220 O 0.73056 0.60386 0.23881 0.0
C221 C 0.66364 0.55147 0.02722 0.0
O222 O 0.7183 0.5996 0.12778 0.0
O223 O 0.67312 0.56957 0.04464 0.0
C224 C 0.41653 0.16888 0.06914 0.0
O225 O 0.41785 0.16351 0.13287 0.0
Cd226 Cd 0.40651 0.13107 0.17326 0.0
O227 O 0.40975 0.1565 0.01721 0.0
Cd228 Cd 0.39982 0.12099 0.00573 0.0
C229 C 0.3593 0.10914 0.10278 0.0
O230 O 0.42198 0.11988 0.09181 0.0
O231 O 0.39643 0.09172 0.07118 0.0
O232 O 0.42033 0.12807 0.89921 0.0
C233 C 0.41309 0.10149 0.10187 0.0
O234 O 0.37043 0.11377 0.1584 0.0
C235 C 0.40751 0.11356 0.86271 0.0
O236 O 0.36643 0.11157 0.03912 0.0
O237 O 0.39058 0.10318 0.89131 0.0
C238 C 0.79782 0.23669 0.09838 0.0
O239 O 0.80041 0.2402 0.16586 0.0
Cd240 Cd 0.83081 0.25912 0.22624 0.0
O241 O 0.81227 0.24445 0.05411 0.0
Cd242 Cd 0.84789 0.26975 0.06404 0.0
C243 C 0.85734 0.23841 0.15503 0.0
O244 O 0.84518 0.28873 0.15997 0.0
O245 O 0.87456 0.29389 0.14277 0.0
O246 O 0.8433 0.28707 0.9648 0.0
C247 C 0.86327 0.29847 0.17614 0.0
O248 O 0.84959 0.24209 0.2092 0.0
C249 C 0.85873 0.2904 0.93054 0.0
O250 O 0.85756 0.2455 0.0926 0.0
O251 O 0.86872 0.28309 0.95652 0.0
C252 C 0.41168 0.23666 0.11113 0.0
O253 O 0.41123 0.23798 0.17959 0.0
Cd254 Cd 0.39828 0.2546 0.24642 0.0
O255 O 0.40569 0.24562 0.06964 0.0
Cd256 Cd 0.39497 0.27028 0.0902 0.0
C257 C 0.35251 0.23628 0.16509 0.0
O258 O 0.41485 0.28624 0.19438 0.0
O259 O 0.39081 0.29174 0.1778 0.0
O260 O 0.41847 0.29096 -0.00047 0.0
C261 C 0.40614 0.29541 0.2134 0.0
O262 O 0.36281 0.23827 0.22137 0.0
C263 C 0.40662 0.2947 0.96544 0.0
O264 O 0.36064 0.24521 0.10634 0.0
O265 O 0.38886 0.28627 -0.0124 0.0
C266 C 0.72491 0.16718 0.06421 0.0
O267 O 0.71774 0.16165 0.12726 0.0
Cd268 Cd 0.69609 0.12906 0.16531 0.0
O269 O 0.71958 0.15496 0.01183 0.0
Cd270 Cd 0.69416 0.11955 -0.00318 0.0
C271 C 0.72203 0.10749 0.09817 0.0
O272 O 0.67022 0.11811 0.08013 0.0
O273 O 0.66752 0.08998 0.05855 0.0
O274 O 0.68187 0.12725 0.88857 0.0
C275 C 0.66053 0.09967 0.08899 0.0
O276 O 0.71507 0.11195 0.15283 0.0
C277 C 0.68053 0.11296 0.85173 0.0
O278 O 0.71782 0.11004 0.03387 0.0
O279 O 0.68673 0.10239 0.88118 0.0
C280 C 0.79487 0.54908 0.14279 0.0
O281 O 0.79648 0.55182 0.21082 0.0
Cd282 Cd 0.82568 0.56724 0.28038 0.0
O283 O 0.80995 0.55388 0.10315 0.0
Cd284 Cd 0.84536 0.56575 0.13213 0.0
C285 C 0.8522 0.60989 0.18137 0.0
O286 O 0.84102 0.54922 0.24595 0.0
O287 O 0.87058 0.5729 0.22685 0.0
O288 O 0.84453 0.54094 0.05132 0.0
C289 C 0.85878 0.55861 0.26653 0.0
O290 O 0.84424 0.60179 0.2415 0.0
C291 C 0.86024 0.55272 0.01765 0.0
O292 O 0.85326 0.59979 0.12941 0.0
O293 O 0.86874 0.57075 0.03598 0.0
C294 C 0.56472 0.08725 0.4893 0.0
O295 O 0.56215 0.08312 0.42225 0.0
Cd296 Cd 0.57562 0.0676 0.35168 0.0
O297 O 0.57625 0.0838 0.52734 0.0
Cd298 Cd 0.5996 0.07205 0.49522 0.0
C299 C 0.5622 0.02678 0.45739 0.0
O300 O 0.60953 0.08725 0.37804 0.0
O301 O 0.61709 0.06481 0.39852 0.0
O302 O 0.62413 0.09788 0.572 0.0
C303 C 0.61833 0.07833 0.35724 0.0
O304 O 0.5612 0.03367 0.39593 0.0
C305 C 0.6288 0.08663 0.60553 0.0
O306 O 0.57397 0.03796 0.50615 0.0
O307 O 0.61957 0.0685 0.58846 0.0
C308 C 0.87869 0.47189 0.57088 0.0
O309 O 0.87671 0.47672 0.50704 0.0
Cd310 Cd 0.88736 0.50875 0.46353 0.0
O311 O 0.88589 0.48467 0.62145 0.0
Cd312 Cd 0.89558 0.52019 0.63118 0.0
C313 C 0.93535 0.53216 0.52909 0.0
O314 O 0.87259 0.52024 0.54646 0.0
O315 O 0.8976 0.54887 0.56563 0.0
O316 O 0.87529 0.51265 0.73829 0.0
C317 C 0.88095 0.53856 0.53539 0.0
O318 O 0.92349 0.52654 0.47538 0.0
C319 C 0.88779 0.52744 0.77438 0.0
O320 O 0.92899 0.53036 0.59381 0.0
O321 O 0.90458 0.53828 0.74536 0.0
C322 C 0.49368 0.40127 0.54841 0.0
O323 O 0.49056 0.39701 0.48156 0.0
Cd324 Cd 0.45975 0.37724 0.42495 0.0
O325 O 0.47961 0.39388 0.59433 0.0
Cd326 Cd 0.44397 0.3683 0.58906 0.0
C327 C 0.43379 0.39867 0.49502 0.0
O328 O 0.44602 0.34837 0.49549 0.0
O329 O 0.4168 0.34351 0.5136 0.0
O330 O 0.4491 0.35197 0.69057 0.0
C331 C 0.42785 0.33854 0.4807 0.0
O332 O 0.44105 0.3944 0.44077 0.0
C333 C 0.43379 0.34892 0.72505 0.0
O334 O 0.43413 0.39224 0.55818 0.0
O335 O 0.42368 0.35599 0.69809 0.0
C336 C 0.54738 0.73507 0.87226 0.0
O337 O 0.54639 0.73198 0.80446 0.0
Cd338 Cd 0.55796 0.71365 0.7408 0.0
O339 O 0.55403 0.727 0.9152 0.0
Cd340 Cd 0.56397 0.70154 0.90091 0.0
C341 C 0.60504 0.73363 0.8135 0.0
O342 O 0.54271 0.68332 0.80234 0.0
O343 O 0.56725 0.67859 0.81867 0.0
O344 O 0.54159 0.68275 -0.0028 0.0
C345 C 0.55145 0.67407 0.78473 0.0
O346 O 0.59373 0.73045 0.75922 0.0
C347 C 0.55375 0.67944 0.03123 0.0
O348 O 0.59801 0.726 0.87515 0.0
O349 O 0.57126 0.68742 0.0066 0.0
C350 C 0.23255 0.80369 0.89703 0.0
O351 O 0.23909 0.80837 0.83282 0.0
Cd352 Cd 0.26012 0.84034 0.7879 0.0
O353 O 0.23825 0.81662 0.94707 0.0
Cd354 Cd 0.26409 0.85221 0.95484 0.0
C355 C 0.23582 0.86388 0.8543 0.0
O356 O 0.28689 0.85226 0.86891 0.0
O357 O 0.29039 0.88083 0.8878 0.0
O358 O 0.27743 0.84495 0.06103 0.0
C359 C 0.29673 0.87058 0.85739 0.0
O360 O 0.24183 0.85812 0.8004 0.0
C361 C 0.27974 0.85971 0.09728 0.0
O362 O 0.24064 0.86224 0.91883 0.0
O363 O 0.27357 0.87042 0.06877 0.0
C364 C 0.1639 0.42044 0.84091 0.0
O365 O 0.16166 0.41687 0.77342 0.0
Cd366 Cd 0.13203 0.40223 0.70621 0.0
O367 O 0.14931 0.41676 0.88168 0.0
Cd368 Cd 0.11397 0.40545 0.85457 0.0
C369 C 0.10497 0.36042 0.80752 0.0
O370 O 0.11841 0.4219 0.74042 0.0
O371 O 0.0886 0.39896 0.76109 0.0
O372 O 0.11564 0.43054 0.93623 0.0
C373 C 0.10054 0.4131 0.72111 0.0
O374 O 0.11236 0.36786 0.74602 0.0
C375 C 0.09985 0.41897 0.96991 0.0
O376 O 0.1051 0.37119 0.85926 0.0
O377 O 0.09095 0.40096 0.95108 0.0
C378 C 0.39501 0.88295 0.47027 0.0
O379 O 0.39641 0.8866 0.5377 0.0
Cd380 Cd 0.38184 0.90162 0.60477 0.0
O381 O 0.38422 0.88678 0.42932 0.0
Cd382 Cd 0.36048 0.89852 0.45594 0.0
C383 C 0.39706 0.94343 0.50278 0.0
O384 O 0.34848 0.88224 0.57034 0.0
O385 O 0.3418 0.90526 0.54947 0.0
O386 O 0.33673 0.87353 0.3745 0.0
C387 C 0.33958 0.89117 0.58974 0.0
O388 O 0.39698 0.93596 0.56426 0.0
C389 C 0.3327 0.88521 0.3407 0.0
O390 O 0.38623 0.93271 0.45119 0.0
O391 O 0.34206 0.90323 0.35928 0.0
C392 C 0.08008 0.50055 0.41262 0.0
O393 O 0.08142 0.49589 0.47745 0.0
Cd394 Cd 0.07069 0.4639 0.52191 0.0
O395 O 0.07365 0.48769 0.36225 0.0
Cd396 Cd 0.06435 0.45234 0.35496 0.0
C397 C 0.02354 0.44055 0.45017 0.0
O398 O 0.08665 0.45255 0.44349 0.0
O399 O 0.06186 0.42383 0.423 0.0
O400 O 0.08528 0.45952 0.24972 0.0
C401 C 0.07831 0.43422 0.45449 0.0
O402 O 0.03468 0.44598 0.50593 0.0
C403 C 0.07283 0.44474 0.2134 0.0
O404 O 0.03072 0.44244 0.38681 0.0
O405 O 0.05588 0.43407 0.24152 0.0
C406 C 0.46598 0.56923 0.43332 0.0
O407 O 0.46837 0.57249 0.50099 0.0
Cd408 Cd 0.49844 0.59143 0.56317 0.0
O409 O 0.48051 0.57735 0.38952 0.0
Cd410 Cd 0.51592 0.60322 0.40206 0.0
C411 C 0.52594 0.57196 0.49051 0.0
O412 O 0.51257 0.62142 0.49959 0.0
O413 O 0.54212 0.627 0.48308 0.0
O414 O 0.51149 0.62115 0.30464 0.0
C415 C 0.53059 0.63122 0.51667 0.0
O416 O 0.51786 0.57513 0.54493 0.0
C417 C 0.52706 0.62483 0.2706 0.0
O418 O 0.52616 0.57931 0.42861 0.0
O419 O 0.53707 0.61743 0.29576 0.0
C420 C 0.07695 0.57049 0.42716 0.0
O421 O 0.07813 0.57513 0.49361 0.0
Cd422 Cd 0.06715 0.59513 0.54796 0.0
O423 O 0.07014 0.5775 0.3802 0.0
Cd424 Cd 0.05991 0.60295 0.38246 0.0
C425 C 0.01952 0.57317 0.47888 0.0
O426 O 0.08229 0.62336 0.47408 0.0
O427 O 0.05812 0.62847 0.45564 0.0
O428 O 0.08116 0.61831 0.27964 0.0
C429 C 0.07424 0.63347 0.48809 0.0
O430 O 0.0312 0.5778 0.53288 0.0
C431 C 0.06901 0.62144 0.2448 0.0
O432 O 0.02613 0.5792 0.41523 0.0
O433 O 0.05193 0.61482 0.2722 0.0
C434 C 0.39365 0.49925 0.40546 0.0
O435 O 0.38698 0.49451 0.46948 0.0
Cd436 Cd 0.36565 0.46249 0.51351 0.0
O437 O 0.38793 0.48641 0.35511 0.0
Cd438 Cd 0.36208 0.45089 0.3461 0.0
C439 C 0.39028 0.43931 0.44747 0.0
O440 O 0.3391 0.4507 0.4314 0.0
O441 O 0.33563 0.42216 0.41196 0.0
O442 O 0.34905 0.45811 0.23899 0.0
C443 C 0.32923 0.43236 0.44243 0.0
O444 O 0.38409 0.44486 0.50143 0.0
C445 C 0.34691 0.44336 0.20308 0.0
O446 O 0.38556 0.44104 0.38291 0.0
O447 O 0.35304 0.4327 0.23224 0.0
C448 C 0.46289 0.88271 0.47861 0.0
O449 O 0.46438 0.88659 0.54585 0.0
Cd450 Cd 0.4934 0.90214 0.61666 0.0
O451 O 0.47796 0.88638 0.44068 0.0
Cd452 Cd 0.5131 0.89818 0.47344 0.0
C453 C 0.52063 0.94323 0.51214 0.0
O454 O 0.50802 0.88284 0.59048 0.0
O455 O 0.53785 0.90586 0.57047 0.0
O456 O 0.51251 0.87276 0.39629 0.0
C457 C 0.52575 0.8921 0.61142 0.0
O458 O 0.51279 0.93624 0.57356 0.0
C459 C 0.5284 0.88433 0.36316 0.0
O460 O 0.52128 0.93216 0.46314 0.0
O461 O 0.53694 0.90244 0.3805 0.0
C462 C 0.23214 0.42049 0.83541 0.0
O463 O 0.2308 0.41767 0.76741 0.0
Cd464 Cd 0.24459 0.40236 0.69745 0.0
O465 O 0.24259 0.41582 0.87463 0.0
Cd466 Cd 0.26611 0.40407 0.84498 0.0
C467 C 0.22876 0.35981 0.79648 0.0
O468 O 0.27807 0.42066 0.73111 0.0
O469 O 0.28429 0.39722 0.75 0.0
O470 O 0.29001 0.42905 0.92557 0.0
C471 C 0.28661 0.41147 0.71044 0.0
O472 O 0.22876 0.36783 0.73633 0.0
C473 C 0.29414 0.41743 0.95927 0.0
O474 O 0.24002 0.36999 0.84818 0.0
O475 O 0.28477 0.39938 0.94095 0.0
C476 C 0.54508 0.80492 0.90722 0.0
O477 O 0.54287 0.81007 0.84423 0.0
Cd478 Cd 0.55334 0.84235 0.80385 0.0
O479 O 0.55243 0.81744 0.95858 0.0
Cd480 Cd 0.56225 0.85287 0.97228 0.0
C481 C 0.60157 0.86522 0.86676 0.0
O482 O 0.53906 0.85354 0.89022 0.0
O483 O 0.56419 0.88199 0.91061 0.0
O484 O 0.54243 0.84478 0.08091 0.0
C485 C 0.54748 0.87193 0.88057 0.0
O486 O 0.58952 0.85997 0.81368 0.0
C487 C 0.55519 0.85927 0.11759 0.0
O488 O 0.59545 0.86308 0.93195 0.0
O489 O 0.57188 0.87019 0.08795 0.0
C490 C 0.16066 0.73472 0.86195 0.0
O491 O 0.15894 0.73345 0.79347 0.0
Cd492 Cd 0.12946 0.71685 0.72584 0.0
O493 O 0.14569 0.72556 0.90321 0.0
Cd494 Cd 0.1104 0.70057 0.8812 0.0
C495 C 0.10193 0.73472 0.80877 0.0
O496 O 0.11423 0.68497 0.77572 0.0
O497 O 0.08481 0.67982 0.79231 0.0
O498 O 0.11262 0.67921 0.97057 0.0
C499 C 0.09636 0.67612 0.75627 0.0
O500 O 0.11021 0.73294 0.75202 0.0
C501 C 0.09703 0.67559 0.00437 0.0
O502 O 0.10119 0.72562 0.86698 0.0
O503 O 0.08802 0.68438 0.9827 0.0
C504 C 0.21934 0.9746 0.4785 0.0
C505 C 0.20009 0.96707 0.50555 0.0
H506 H 0.24112 -0.00597 0.40239 0.0
C507 C 0.18761 0.97303 0.47367 0.0
H508 H 0.22933 0.97036 0.50242 0.0
C509 C 0.19435 -0.01344 0.41676 0.0
C510 C 0.21375 -0.00549 0.39089 0.0
H511 H 0.17271 0.9675 0.49347 0.0
H512 H 0.1844 -0.00903 0.39369 0.0
C513 C 0.22615 -0.01171 0.42178 0.0
C514 C 0.97344 0.22337 0.60643 0.0
C515 C -0.02049 0.21088 0.63752 0.0
H516 H 0.95645 0.2271 0.52346 0.0
C517 C 0.97154 0.19154 0.61139 0.0
H518 H -0.0208 0.23829 0.62602 0.0
C519 C 0.95855 0.18515 0.55268 0.0
C520 C 0.95317 0.19792 0.51947 0.0
H521 H 0.97583 0.18153 0.63467 0.0
H522 H 0.95325 0.17041 0.53181 0.0
C523 C 0.9603 0.21691 0.54812 0.0
C524 C 0.73508 0.74829 0.36202 0.0
C525 C 0.75368 0.76066 0.33091 0.0
H526 H 0.71453 0.74469 0.44543 0.0
C527 C 0.76528 0.77996 0.35717 0.0
H528 H 0.72574 0.7334 0.34233 0.0
C529 C 0.75888 0.7864 0.41621 0.0
C530 C 0.74071 0.77372 0.44961 0.0
H531 H 0.77962 0.78987 0.33386 0.0
H532 H 0.7685 0.80108 0.43728 0.0
C533 C 0.7286 0.75481 0.42067 0.0
C534 C 0.72933 0.97603 0.4885 0.0
C535 C 0.74106 0.96857 0.51597 0.0
H536 H 0.727 -0.00463 0.41197 0.0
C537 C 0.75964 0.97473 0.48485 0.0
H538 H 0.715 0.97163 0.51184 0.0
C539 C 0.7665 -0.0117 0.42809 0.0
C540 C 0.75499 -0.00391 0.40154 0.0
H541 H 0.76904 0.96927 0.50499 0.0
H542 H 0.78093 -0.00719 0.40548 0.0
C543 C 0.73627 -0.01026 0.43188 0.0
C544 C -0.01043 0.78398 0.4732 0.0
C545 C -0.00441 0.77143 0.50408 0.0
H546 H 0.97177 0.78747 0.39312 0.0
C547 C -0.01165 0.75244 0.47533 0.0
H548 H -0.0051 0.79869 0.49432 0.0
C549 C 0.9749 0.74593 0.41799 0.0
C550 C 0.96861 0.75836 0.38801 0.0
H551 H -0.00734 0.74241 0.49832 0.0
H552 H 0.96937 0.73113 0.39743 0.0
C553 C 0.97627 0.77753 0.41547 0.0
C554 C 0.1917 0.185 0.51247 0.0
C555 C 0.21027 0.19756 0.48146 0.0
H556 H 0.17039 0.18152 0.59245 0.0
C557 C 0.22208 0.21653 0.51034 0.0
H558 H 0.18226 0.1703 0.49126 0.0
C559 C 0.21517 0.22305 0.56764 0.0
C560 C 0.1964 0.21065 0.59749 0.0
H561 H 0.23642 0.22657 0.48728 0.0
H562 H 0.22447 0.23786 0.58809 0.0
C563 C 0.18487 0.19145 0.57018 0.0
C564 C 0.89129 0.32442 0.78195 0.0
C565 C 0.87905 0.331 0.75231 0.0
H566 H 0.89431 0.30604 0.86105 0.0
C567 C 0.85988 0.32355 0.77993 0.0
H568 H 0.90608 0.32978 0.76123 0.0
C569 C 0.85315 0.30998 0.83669 0.0
C570 C 0.8654 0.30347 0.86671 0.0
H571 H 0.85005 0.32826 0.7579 0.0
H572 H 0.83838 0.30472 0.85742 0.0
C573 C 0.8845 0.3107 0.83854 0.0
C574 C 0.62786 0.5187 0.88364 0.0
C575 C 0.62244 0.53152 0.85093 0.0
H576 H 0.64511 0.51497 0.96546 0.0
C577 C 0.62941 0.55039 0.88042 0.0
H578 H 0.62267 0.50405 0.86214 0.0
C579 C 0.64246 0.55672 0.93898 0.0
C580 C 0.6486 0.54423 0.96948 0.0
H581 H 0.62551 0.5606 0.85622 0.0
H582 H 0.64811 0.57158 0.95915 0.0
C583 C 0.64075 0.52497 0.94263 0.0
C584 C 0.40707 0.08207 0.70748 0.0
C585 C 0.42581 0.09417 0.67695 0.0
H586 H 0.38635 0.07894 0.78948 0.0
C587 C 0.43766 0.11339 0.70358 0.0
H588 H 0.39753 0.06725 0.68751 0.0
C589 C 0.43128 0.12007 0.76198 0.0
C590 C 0.41286 0.1077 0.79435 0.0
H591 H 0.45212 0.1231 0.68074 0.0
H592 H 0.44103 0.13471 0.78311 0.0
C593 C 0.4006 0.08882 0.76545 0.0
C594 C 0.43956 0.32995 0.82092 0.0
C595 C 0.42722 0.33621 0.78987 0.0
H596 H 0.44266 0.31184 0.90047 0.0
C597 C 0.40807 0.32891 0.81753 0.0
H598 H 0.45438 0.33529 0.80061 0.0
C599 C 0.40124 0.31524 0.87429 0.0
C600 C 0.41352 0.3088 0.90461 0.0
H601 H 0.39819 0.33338 0.79425 0.0
H602 H 0.38636 0.30973 0.89432 0.0
C603 C 0.4328 0.31644 0.87788 0.0
C604 C 0.66412 0.11992 0.74916 0.0
C605 C 0.66991 0.10743 0.78205 0.0
H606 H 0.6466 0.12315 0.6671 0.0
C607 C 0.66339 0.08863 0.75258 0.0
H608 H 0.66895 0.13451 0.77066 0.0
C609 C 0.65038 0.08203 0.6939 0.0
C610 C 0.64384 0.09419 0.66325 0.0
H611 H 0.66758 0.07866 0.77691 0.0
H612 H 0.64506 0.06722 0.67378 0.0
C613 C 0.65126 0.11339 0.69004 0.0
C614 C 0.86392 0.52008 0.87539 0.0
C615 C 0.88211 0.53303 0.84264 0.0
H616 H 0.84275 0.51617 0.95659 0.0
C617 C 0.89366 0.55212 0.87085 0.0
H618 H 0.8547 0.50526 0.85481 0.0
C619 C 0.88669 0.55846 0.92856 0.0
C620 C 0.86814 0.54575 0.95943 0.0
H621 H 0.90771 0.56245 0.84648 0.0
H622 H 0.89566 0.57343 0.94804 0.0
C623 C 0.85703 0.52635 0.93347 0.0
C624 C 0.52158 0.64493 0.17874 0.0
C625 C 0.5338 0.63825 0.20773 0.0
H626 H 0.5184 0.66332 0.10073 0.0
C627 C 0.55284 0.64548 0.1791 0.0
H628 H 0.50685 0.63968 0.1999 0.0
C629 C 0.55957 0.65926 0.12268 0.0
C630 C 0.5473 0.66589 0.09371 0.0
H631 H 0.56264 0.64071 0.20085 0.0
H632 H 0.57428 0.66454 0.10131 0.0
C633 C 0.52823 0.65856 0.12218 0.0
C634 C 0.3098 0.85886 0.2557 0.0
C635 C 0.31788 0.87817 0.28219 0.0
H636 H 0.29116 0.83778 0.17664 0.0
C637 C 0.31186 0.89076 0.25165 0.0
H638 H 0.31405 0.84877 0.27854 0.0
C639 C 0.29853 0.88438 0.1939 0.0
C640 C 0.29116 0.86536 0.16527 0.0
H641 H 0.3177 0.90567 0.27152 0.0
H642 H 0.29464 0.89461 0.1699 0.0
C643 C 0.29663 0.85254 0.19756 0.0
C644 C 0.09703 0.45172 0.11382 0.0
C645 C 0.07861 0.43905 0.14562 0.0
H646 H 0.11819 0.45528 0.03306 0.0
C647 C 0.06672 0.42012 0.11651 0.0
H648 H 0.1065 0.4664 0.13512 0.0
C649 C 0.07352 0.41367 0.05868 0.0
C650 C 0.09225 0.4261 0.02856 0.0
H651 H 0.05248 0.41001 0.1401 0.0
H652 H 0.06425 0.39883 0.0384 0.0
C653 C 0.10375 0.44533 0.05558 0.0
C654 C 0.06373 0.64157 0.1517 0.0
C655 C 0.07525 0.6339 0.17934 0.0
H656 H 0.06174 0.66109 0.0751 0.0
C657 C 0.09373 0.6397 0.148 0.0
H658 H 0.04948 0.63745 0.17517 0.0
C659 C 0.10074 0.65321 0.09102 0.0
C660 C 0.08948 0.6613 0.06459 0.0
H661 H 0.10295 0.63406 0.16826 0.0
H662 H 0.11512 0.6575 0.06835 0.0
C663 C 0.07082 0.65523 0.09494 0.0
C664 C 0.33021 0.45039 0.10178 0.0
C665 C 0.33564 0.43763 0.13476 0.0
H666 H 0.31283 0.45399 0.02022 0.0
C667 C 0.32832 0.41856 0.10661 0.0
H668 H 0.33564 0.46517 0.1223 0.0
C669 C 0.31503 0.41206 0.04872 0.0
C670 C 0.30901 0.42458 0.01761 0.0
H671 H 0.33219 0.40838 0.13116 0.0
H672 H 0.3092 0.39711 0.0293 0.0
C673 C 0.31708 0.44395 0.04352 0.0
C674 C 0.52502 0.85786 0.2791 0.0
C675 C 0.53631 0.87717 0.30564 0.0
H676 H 0.5223 0.83694 0.19893 0.0
C677 C 0.55492 0.88977 0.27496 0.0
H678 H 0.51069 0.84776 0.30208 0.0
C679 C 0.56169 0.88349 0.21647 0.0
C680 C 0.54987 0.86457 0.18725 0.0
H681 H 0.56404 0.90468 0.29487 0.0
H682 H 0.57574 0.89379 0.19205 0.0
C683 C 0.5317 0.85164 0.22022 0.0
C684 C 0.22496 0.98329 0.91491 0.0
C685 C 0.20754 0.97936 0.87883 0.0
H686 H 0.24306 -0.00434 0.00918 0.0
C687 C 0.19528 -0.01424 0.90925 0.0
H688 H 0.23458 0.97837 0.89273 0.0
C689 C 0.20003 -0.00453 0.9755 0.0
C690 C 0.21712 -0.00105 0.01279 0.0
H691 H 0.18176 0.98291 0.88248 0.0
H692 H 0.19014 5e-05 -0.00215 0.0
C693 C 0.22968 -0.00704 0.98176 0.0
C694 C 0.97765 0.22868 0.11066 0.0
C695 C 0.97549 0.21245 0.15079 0.0
H696 H -0.01177 0.24538 0.0123 0.0
C697 C -0.01595 0.2016 0.12514 0.0
H698 H 0.97104 0.23718 0.12913 0.0
C699 C -0.00628 0.20618 0.05869 0.0
C700 C -0.00505 0.22167 0.01637 0.0
H701 H -0.0174 0.18904 0.15522 0.0
H702 H -0.0003 0.19716 0.03959 0.0
C703 C -0.01272 0.23322 0.04358 0.0
C704 C 0.73469 0.74242 0.85802 0.0
C705 C 0.74888 0.75871 0.81841 0.0
H706 H 0.72831 0.72554 0.95601 0.0
C707 C 0.76829 0.76942 0.84446 0.0
H708 H 0.71956 0.73402 0.83922 0.0
C709 C 0.77324 0.76467 0.91085 0.0
C710 C 0.75884 0.74915 0.95272 0.0
H711 H 0.7795 0.78201 0.81476 0.0
H712 H 0.78825 0.7736 0.93033 0.0
C713 C 0.73963 0.73772 0.92507 0.0
C714 C 0.73247 0.98314 0.92514 0.0
C715 C 0.74566 0.97854 0.89067 0.0
H716 H 0.72697 -0.00383 0.01774 0.0
C717 C 0.76399 0.98419 0.92286 0.0
H718 H 0.71817 0.9788 0.90161 0.0
C719 C 0.76897 -0.00601 -0.01103 0.0
C720 C 0.75567 -0.00173 0.02433 0.0
H721 H 0.77443 0.9808 0.8974 0.0
H722 H 0.7832 -0.0019 0.01262 0.0
C723 C 0.73741 -0.00714 -0.00817 0.0
C724 C -0.01973 0.74548 0.91499 0.0
C725 C -0.01581 0.76281 0.87832 0.0
H726 H 0.96735 0.72727 0.00883 0.0
C727 C 0.97724 0.77476 0.90708 0.0
H728 H -0.01437 0.7361 0.89405 0.0
C729 C 0.96694 0.7698 0.97217 0.0
C730 C 0.96344 0.7528 0.01012 0.0
H731 H -0.01994 0.78819 0.87982 0.0
H732 H 0.96195 0.77947 -0.0068 0.0
C733 C 0.97003 0.74055 0.98084 0.0
C734 C 0.1873 0.19619 0.08124 0.0
C735 C 0.20645 0.20782 0.10875 0.0
H736 H 0.16716 0.19154 -0.00446 0.0
C737 C 0.2201 0.22476 0.07069 0.0
H738 H 0.1765 0.18306 0.10962 0.0
C739 C 0.21481 0.22953 0.00445 0.0
C740 C 0.19576 0.21752 0.97612 0.0
H741 H 0.23503 0.23387 0.09063 0.0
H742 H 0.22563 0.24246 0.97521 0.0
C743 C 0.182 0.20101 0.01572 0.0
C744 C 0.86163 0.32573 0.34089 0.0
C745 C 0.87941 0.33038 0.3756 0.0
H746 H 0.84279 0.31221 0.24991 0.0
C747 C 0.89232 0.32509 0.34299 0.0
H748 H 0.85145 0.32971 0.3647 0.0
C749 C 0.88746 0.31525 0.27653 0.0
C750 C 0.86953 0.31041 0.24242 0.0
H751 H 0.90622 0.32867 0.36843 0.0
H752 H 0.89751 0.3111 0.25267 0.0
C753 C 0.85672 0.3158 0.27503 0.0
C754 C 0.66317 0.53992 0.38989 0.0
C755 C 0.6645 0.55545 0.34757 0.0
H756 H 0.65188 0.52273 0.48626 0.0
C757 C 0.65683 0.56701 0.37458 0.0
H758 H 0.66914 0.53087 0.3709 0.0
C759 C 0.64714 0.56247 0.44152 0.0
C760 C 0.64488 0.54621 0.48165 0.0
H761 H 0.65785 0.57921 0.34328 0.0
H762 H 0.64054 0.57101 0.45987 0.0
C763 C 0.65341 0.53532 0.45617 0.0
C764 C 0.43815 0.10415 0.18969 0.0
C765 C 0.41869 0.09362 0.16402 0.0
H766 H 0.45817 0.10805 0.27489 0.0
C767 C 0.4044 0.07748 0.20397 0.0
H768 H 0.44943 0.11663 0.15975 0.0
C769 C 0.40935 0.07267 0.27082 0.0
C770 C 0.42867 0.08385 0.2979 0.0
H771 H 0.38924 0.06924 0.18545 0.0
H772 H 0.39801 0.06056 0.30191 0.0
C773 C 0.4431 0.0993 0.25586 0.0
C774 C 0.42882 0.31046 0.31762 0.0
C775 C 0.4113 0.30632 0.28206 0.0
H776 H 0.44758 0.32364 0.40908 0.0
C777 C 0.39861 0.31198 0.31413 0.0
H778 H 0.43884 0.30617 0.2943 0.0
C779 C 0.40353 0.32182 0.38061 0.0
C780 C 0.42129 0.32627 0.41526 0.0
H781 H 0.38491 0.30879 0.28802 0.0
H782 H 0.39371 0.32636 0.40385 0.0
C783 C 0.43379 0.32037 0.38348 0.0
C784 C 0.63773 0.10199 0.17562 0.0
C785 C 0.64688 0.09164 0.15054 0.0
H786 H 0.62159 0.10588 0.26071 0.0
C787 C 0.64524 0.07569 0.19106 0.0
H788 H 0.63877 0.11432 0.14521 0.0
C789 C 0.63559 0.07097 0.25809 0.0
C790 C 0.62735 0.08206 0.2848 0.0
H791 H 0.65233 0.06759 0.17301 0.0
H792 H 0.63508 0.05907 0.28978 0.0
C793 C 0.62802 0.09722 0.24199 0.0
C794 C 0.85558 0.53451 0.44633 0.0
C795 C 0.8749 0.54584 0.47269 0.0
H796 H 0.83544 0.52962 0.36037 0.0
C797 C 0.88875 0.56233 0.43305 0.0
H798 H 0.84463 0.52174 0.47599 0.0
C799 C 0.88354 0.56676 0.36597 0.0
C800 C 0.86441 0.55482 0.33828 0.0
H801 H 0.9038 0.57122 0.45207 0.0
H802 H 0.89457 0.5792 0.33523 0.0
C803 C 0.85037 0.53896 0.37989 0.0
C804 C 0.55461 0.64805 0.61747 0.0
C805 C 0.53655 0.64285 0.5837 0.0
H806 H 0.57339 0.66174 0.7091 0.0
C807 C 0.52342 0.6477 0.61706 0.0
H808 H 0.56492 0.64433 0.59306 0.0
C809 C 0.5282 0.65753 0.68311 0.0
C810 C 0.54617 0.66264 0.71725 0.0
H811 H 0.50937 0.64381 0.59226 0.0
H812 H 0.5178 0.66115 0.70738 0.0
C813 C 0.55935 0.6578 0.6841 0.0
C814 C 0.31265 0.89436 0.75498 0.0
C815 C 0.31004 0.87789 0.79464 0.0
H816 H 0.32386 0.91137 0.65753 0.0
C817 C 0.31816 0.86668 0.76853 0.0
H818 H 0.30637 0.90314 0.77381 0.0
C819 C 0.328 0.87129 0.70246 0.0
C820 C 0.32986 0.88717 0.66092 0.0
H821 H 0.31636 0.85393 0.79819 0.0
H822 H 0.33374 0.86207 0.68318 0.0
C823 C 0.32244 0.89892 0.68823 0.0
C824 C 0.10882 0.43344 0.60962 0.0
C825 C 0.09483 0.41731 0.6503 0.0
H826 H 0.11451 0.45112 0.5148 0.0
C827 C 0.07569 0.40549 0.62246 0.0
H828 H 0.12374 0.44272 0.62936 0.0
C829 C 0.07047 0.4102 0.55597 0.0
C830 C 0.0843 0.42689 0.51715 0.0
H831 H 0.0647 0.39286 0.65252 0.0
H832 H 0.05544 0.40134 0.53667 0.0
C833 C 0.10358 0.4382 0.54383 0.0
C834 C 0.07206 0.65992 0.65555 0.0
C835 C 0.09052 0.66557 0.68685 0.0
H836 H 0.05249 0.6456 0.56633 0.0
C837 C 0.10389 0.66167 0.65003 0.0
H838 H 0.06157 0.66294 0.68262 0.0
C839 C 0.09877 0.65191 0.58388 0.0
C840 C 0.08021 0.6459 0.55309 0.0
H841 H 0.11828 0.66597 0.67266 0.0
H842 H 0.10925 0.64875 0.55742 0.0
C843 C 0.06697 0.65022 0.58879 0.0
C844 C 0.30346 0.40371 0.61092 0.0
C845 C 0.29616 0.4155 0.63893 0.0
H846 H 0.31942 0.39957 0.52479 0.0
C847 C 0.29804 0.43146 0.59792 0.0
H848 H 0.30201 0.3912 0.64121 0.0
C849 C 0.30783 0.43615 0.53174 0.0
C850 C 0.31588 0.42494 0.50503 0.0
H851 H 0.29238 0.4407 0.61773 0.0
H852 H 0.30968 0.44898 0.50253 0.0
C853 C 0.3132 0.40836 0.54409 0.0
C854 C 0.52207 0.86863 0.79305 0.0
C855 C 0.54153 0.87953 0.81857 0.0
H856 H 0.50191 0.86405 0.70746 0.0
C857 C 0.55558 0.89572 0.77819 0.0
H858 H 0.51097 0.8561 0.82333 0.0
C859 C 0.55046 0.90015 0.71097 0.0
C860 C 0.5312 0.88855 0.6839 0.0
H861 H 0.57074 0.90426 0.79654 0.0
H862 H 0.56167 0.91227 0.67949 0.0
C863 C 0.51694 0.87311 0.72648 0.0
C864 C 0.3289 0.09339 0.1803 0.0
C865 C 0.33773 0.10018 0.11205 0.0
H866 H 0.30197 0.07801 0.24052 0.0
C867 C 0.32566 0.09762 0.05184 0.0
H868 H 0.33781 0.09518 0.2278 0.0
C869 C 0.30518 0.08793 0.05922 0.0
C870 C 0.29628 0.08043 0.12685 0.0
H871 H 0.33201 0.10283 -0.00138 0.0
H872 H 0.29633 0.08584 0.0113 0.0
C873 C 0.30836 0.08353 0.1876 0.0
C874 C 0.86911 0.2208 0.23625 0.0
C875 C 0.86716 0.22665 0.16607 0.0
H876 H 0.88124 0.20712 0.30276 0.0
C877 C 0.87552 0.22197 0.10735 0.0
H878 H 0.86282 0.22412 0.28274 0.0
C879 C 0.88606 0.21214 0.11888 0.0
C880 C 0.88854 0.20688 0.18939 0.0
H881 H 0.87423 0.2262 0.05256 0.0
H882 H 0.89263 0.20908 0.07263 0.0
C883 C 0.87972 0.21108 0.24781 0.0
C884 C 0.74536 0.63952 0.09256 0.0
C885 C 0.74145 0.63218 0.16382 0.0
H886 H 0.7577 0.66505 0.02426 0.0
C887 C 0.74792 0.64548 0.22209 0.0
H888 H 0.74063 0.62958 0.04662 0.0
C889 C 0.75741 0.66575 0.20928 0.0
C890 C 0.76092 0.67308 0.138 0.0
H891 H 0.74508 0.64023 0.27759 0.0
H892 H 0.76182 0.67567 0.25521 0.0
C893 C 0.75518 0.65981 0.07977 0.0
C894 C 0.08133 0.31055 0.8989 0.0
C895 C 0.07375 0.29778 0.83921 0.0
H896 H 0.09707 0.34045 0.93559 0.0
C897 C 0.07755 0.30574 0.76884 0.0
H898 H 0.07862 0.30484 0.95377 0.0
C899 C 0.08835 0.32611 0.7584 0.0
C900 C 0.09523 0.3389 0.81819 0.0
H901 H 0.072 0.29623 0.7218 0.0
H902 H 0.09073 0.33185 0.70358 0.0
C903 C 0.09182 0.33093 0.8885 0.0
C904 C 0.65497 0.76124 0.72243 0.0
C905 C 0.66787 0.7649 0.78093 0.0
H906 H 0.62509 0.74871 0.68692 0.0
C907 C 0.66 0.75925 0.85109 0.0
H908 H 0.66056 0.76553 0.66777 0.0
C909 C 0.63959 0.74952 0.86213 0.0
C910 C 0.62667 0.74536 0.80326 0.0
H911 H 0.66955 0.76191 0.89736 0.0
H912 H 0.63395 0.74495 0.91658 0.0
C913 C 0.63461 0.75163 0.73351 0.0
C914 C 0.20595 0.88901 0.88813 0.0
C915 C 0.20312 0.8938 0.81732 0.0
H916 H 0.21846 0.87582 0.95539 0.0
C917 C 0.2102 0.8877 0.75857 0.0
H918 H 0.20065 0.89344 0.93466 0.0
C919 C 0.22037 0.87753 0.77051 0.0
C920 C 0.22377 0.87332 0.84145 0.0
H921 H 0.20819 0.89108 0.70333 0.0
H922 H 0.22596 0.87337 0.72407 0.0
C923 C 0.2162 0.87892 0.90008 0.0
C924 C 0.65064 0.88918 0.76809 0.0
C925 C 0.66405 0.89442 0.82592 0.0
H926 H 0.62039 0.87578 0.73551 0.0
C927 C 0.65669 0.8891 0.89687 0.0
H928 H 0.65581 0.893 0.71276 0.0
C929 C 0.63639 0.8793 0.90996 0.0
C930 C 0.62299 0.87452 0.85236 0.0
H931 H 0.6666 0.89286 0.94271 0.0
H932 H 0.63125 0.87574 0.96541 0.0
C933 C 0.63032 0.8793 0.78117 0.0
C934 C 0.07406 0.76052 0.86481 0.0
C935 C 0.07034 0.76637 0.79733 0.0
H936 H 0.08697 0.74589 0.92144 0.0
C937 C 0.07809 0.76276 0.73428 0.0
H938 H 0.06831 0.76313 0.9144 0.0
C939 C 0.08891 0.75305 0.73836 0.0
C940 C 0.09204 0.74657 0.80552 0.0
H941 H 0.0756 0.76722 0.68151 0.0
H942 H 0.09435 0.75017 0.68854 0.0
C943 C 0.08473 0.75062 0.86883 0.0
C944 C 0.19835 0.30553 0.75255 0.0
C945 C 0.19482 0.29699 0.82192 0.0
H946 H 0.21162 0.33214 0.69016 0.0
C947 C 0.20154 0.3093 0.88308 0.0
H948 H 0.19324 0.29641 0.70443 0.0
C949 C 0.21228 0.32976 0.87487 0.0
C950 C 0.21622 0.33829 0.80541 0.0
H951 H 0.19906 0.30314 0.93723 0.0
H952 H 0.21769 0.33888 0.92292 0.0
C953 C 0.20881 0.32599 0.7444 0.0
C954 C 0.87606 0.66408 0.22657 0.0
C955 C 0.88138 0.67277 0.15749 0.0
H956 H 0.8624 0.63735 0.28822 0.0
C957 C 0.87593 0.66058 0.09602 0.0
H958 H 0.87996 0.67311 0.27492 0.0
C959 C 0.86607 0.6401 0.10368 0.0
C960 C 0.86122 0.63143 0.17289 0.0
H961 H 0.87983 0.66685 0.04207 0.0
H962 H 0.86249 0.63108 0.05542 0.0
C963 C 0.86594 0.6436 0.23417 0.0
C964 C 0.32145 0.2177 0.23719 0.0
C965 C 0.33075 0.22436 0.16958 0.0
H966 H 0.29422 0.20328 0.29572 0.0
C967 C 0.31904 0.22038 0.10715 0.0
H968 H 0.33002 0.22051 0.28638 0.0
C969 C 0.29846 0.21038 0.11251 0.0
C970 C 0.2892 0.20433 0.18047 0.0
H971 H 0.32576 0.22525 0.05423 0.0
H972 H 0.28985 0.20784 0.06357 0.0
C973 C 0.30091 0.20788 0.24261 0.0
C974 C 0.7366 0.09219 0.17837 0.0
C975 C 0.73469 0.09867 0.10932 0.0
H976 H 0.74829 0.07736 0.24112 0.0
C977 C 0.74445 0.09603 0.05023 0.0
H978 H 0.72929 0.09405 0.22506 0.0
C979 C 0.75543 0.08661 0.05952 0.0
C980 C 0.75677 0.07948 0.128 0.0
H981 H 0.74341 0.10099 -0.00358 0.0
H982 H 0.76243 0.08448 0.01243 0.0
C983 C 0.74748 0.08262 0.18759 0.0
C984 C -0.00674 0.42588 0.52816 0.0
C985 C 0.00195 0.43149 0.45916 0.0
H986 H 0.96647 0.41172 0.58958 0.0
C987 C -0.01023 0.42782 0.39835 0.0
H988 H 0.00225 0.42854 0.57613 0.0
C989 C 0.9693 0.41831 0.40612 0.0
C990 C 0.96054 0.41212 0.4748 0.0
H991 H -0.00399 0.43207 0.34448 0.0
H992 H 0.96033 0.4154 0.3579 0.0
C993 C 0.97275 0.41623 0.53588 0.0
C994 C 0.54895 0.54497 0.58127 0.0
C995 C 0.55786 0.54106 0.52238 0.0
H996 H 0.53175 0.55758 0.61734 0.0
C997 C 0.55531 0.54648 0.45223 0.0
H998 H 0.55051 0.54088 0.63596 0.0
C999 C 0.54457 0.55614 0.4415 0.0
C1000 C 0.53607 0.56047 0.50068 0.0
H1001 H 0.56195 0.54365 0.40565 0.0
H1002 H 0.54321 0.56048 0.38698 0.0
C1003 C 0.53813 0.55451 0.57051 0.0
C1004 C 0.42381 -0.00673 0.41115 0.0
C1005 C 0.42956 0.00607 0.47086 0.0
H1006 H 0.40887 0.96335 0.37448 0.0
C1007 C 0.42555 -0.00187 0.54126 0.0
H1008 H 0.42669 -0.00104 0.35625 0.0
C1009 C 0.41557 0.97774 0.55172 0.0
C1010 C 0.40914 0.96493 0.49194 0.0
H1011 H 0.42993 0.00766 0.58833 0.0
H1012 H 0.41237 0.97203 0.60658 0.0
C1013 C 0.41354 0.97288 0.42158 0.0
C1014 C 0.54309 -0.00798 0.41353 0.0
C1015 C 0.55021 0.00544 0.47144 0.0
H1016 H 0.52826 0.96174 0.38113 0.0
C1017 C 0.54653 -0.00176 0.5429 0.0
H1018 H 0.54573 -0.00284 0.35788 0.0
C1019 C 0.53628 0.97797 0.55622 0.0
C1020 C 0.52987 0.96457 0.49828 0.0
H1021 H 0.55175 0.00826 0.58859 0.0
H1022 H 0.53395 0.97283 0.61184 0.0
C1023 C 0.53317 0.97177 0.42683 0.0
C1024 C 0.96436 0.54581 0.44484 0.0
C1025 C 0.95683 0.54149 0.51585 0.0
H1026 H -0.00995 0.55917 0.37735 0.0
C1027 C 0.97007 0.54676 0.57424 0.0
H1028 H 0.95456 0.54191 0.39859 0.0
C1029 C -0.0096 0.55659 0.56202 0.0
C1030 C -0.00203 0.56144 0.49116 0.0
H1031 H 0.96476 0.54356 0.62959 0.0
H1032 H 0.00019 0.56073 0.60839 0.0
C1033 C -0.01528 0.55573 0.43262 0.0
C1034 C 0.40576 0.42562 0.53089 0.0
C1035 C 0.40257 0.43014 0.46015 0.0
H1036 H 0.41815 0.41216 0.59751 0.0
C1037 C 0.41068 0.42519 0.40139 0.0
H1038 H 0.39975 0.42927 0.57739 0.0
C1039 C 0.42129 0.41547 0.41297 0.0
C1040 C 0.42395 0.41038 0.48352 0.0
H1041 H 0.4086 0.42857 0.34624 0.0
H1042 H 0.42703 0.41156 0.36632 0.0
C1043 C 0.4163 0.41579 0.54245 0.0
C1044 C 0.22083 0.09448 0.27279 0.0
C1045 C 0.20914 0.08054 0.22019 0.0
H1046 H 0.23023 0.12325 0.31627 0.0
C1047 C 0.19433 0.08242 0.18451 0.0
H1048 H 0.23234 0.09326 0.3009 0.0
C1049 C 0.19308 0.09937 0.1934 0.0
C1050 C 0.20667 0.11468 0.23785 0.0
H1051 H 0.18497 0.07166 0.14448 0.0
H1052 H 0.18279 0.10134 0.15992 0.0
C1053 C 0.2196 0.1116 0.28163 0.0
C1054 C 0.862 0.08562 0.19057 0.0
C1055 C 0.845 0.08269 0.22688 0.0
H1056 H 0.89247 0.10542 0.1687 0.0
C1057 C 0.84668 0.09588 0.28169 0.0
H1058 H 0.86109 0.07544 0.14895 0.0
C1059 C 0.86475 0.1132 0.29294 0.0
C1060 C 0.88111 0.11728 0.24941 0.0
H1061 H 0.83371 0.09384 0.31045 0.0
H1062 H 0.86533 0.12419 0.33006 0.0
C1063 C 0.87994 0.10275 0.20192 0.0
C1064 C 0.8652 0.74864 0.25106 0.0
C1065 C 0.88118 0.76119 0.20661 0.0
H1066 H 0.83438 0.73716 0.27217 0.0
C1067 C 0.88041 0.77609 0.16704 0.0
H1068 H 0.86551 0.73697 0.28163 0.0
C1069 C 0.86271 0.77617 0.16149 0.0
C1070 C 0.84572 0.76139 0.19569 0.0
H1071 H 0.89266 0.78595 0.13264 0.0
H1072 H 0.86169 0.78608 0.12295 0.0
C1073 C 0.8474 0.74875 0.24562 0.0
C1074 C 0.085 0.22207 0.73018 0.0
C1075 C 0.07032 0.20935 0.77889 0.0
H1076 H 0.11508 0.23372 0.6965 0.0
C1077 C 0.07217 0.19439 0.81327 0.0
H1078 H 0.08385 0.2338 0.70354 0.0
C1079 C 0.08989 0.19431 0.80913 0.0
C1080 C 0.10587 0.20923 0.77073 0.0
H1081 H 0.06095 0.18441 0.8509 0.0
H1082 H 0.09196 0.18428 0.84371 0.0
C1083 C 0.10285 0.22202 0.72611 0.0
C1084 C 0.7381 0.858 0.67128 0.0
C1085 C 0.74947 0.854 0.72007 0.0
H1086 H 0.72713 0.87744 0.64436 0.0
C1087 C 0.76181 0.86856 0.76963 0.0
H1088 H 0.72851 0.847 0.63237 0.0
C1089 C 0.76097 0.88579 0.77657 0.0
C1090 C 0.74783 0.88877 0.73393 0.0
H1091 H 0.77102 0.86601 0.8069 0.0
H1092 H 0.76959 0.89612 0.81892 0.0
C1093 C 0.73729 0.87538 0.67818 0.0
C1094 C 0.09841 0.88818 0.77993 0.0
C1095 C 0.11384 0.88986 0.73611 0.0
H1096 H 0.06904 0.86938 0.81799 0.0
C1097 C 0.10998 0.87518 0.68455 0.0
H1098 H 0.10093 0.89951 0.8191 0.0
C1099 C 0.09157 0.85783 0.6838 0.0
C1100 C 0.07706 0.85519 0.73463 0.0
H1101 H 0.12166 0.87623 0.65 0.0
H1102 H 0.08946 0.84583 0.64879 0.0
C1103 C 0.08016 0.87097 0.77921 0.0
C1104 C 0.88756 0.43042 0.61881 0.0
C1105 C 0.87599 0.4168 0.56512 0.0
H1106 H 0.89738 0.45914 0.6636 0.0
C1107 C 0.86199 0.41951 0.52711 0.0
H1108 H 0.89843 0.42856 0.64881 0.0
C1109 C 0.86133 0.43678 0.53568 0.0
C1110 C 0.87473 0.45165 0.58209 0.0
H1111 H 0.85268 0.409 0.4863 0.0
H1112 H 0.85151 0.43921 0.50125 0.0
C1113 C 0.88694 0.44787 0.62727 0.0
C1114 C 0.52971 0.41956 0.52683 0.0
C1115 C 0.51367 0.41646 0.57014 0.0
H1116 H 0.55941 0.43955 0.4952 0.0
C1117 C 0.51658 0.42991 0.6257 0.0
H1118 H 0.52794 0.40919 0.4846 0.0
C1119 C 0.53472 0.44743 0.63179 0.0
C1120 C 0.54997 0.45151 0.58236 0.0
H1121 H 0.50441 0.42776 0.66 0.0
H1122 H 0.53616 0.45844 0.67059 0.0
C1123 C 0.54772 0.43692 0.53295 0.0
C1124 C 0.53698 0.08126 0.56933 0.0
C1125 C 0.55217 0.09402 0.52241 0.0
H1126 H 0.50659 0.06965 0.59833 0.0
C1127 C 0.55084 0.10919 0.48728 0.0
H1128 H 0.53774 0.06937 0.59644 0.0
C1129 C 0.53314 0.10936 0.48837 0.0
C1130 C 0.51671 0.09434 0.52451 0.0
H1131 H 0.56245 0.11917 0.45087 0.0
H1132 H 0.53149 0.11947 0.45279 0.0
C1133 C 0.51917 0.08142 0.57042 0.0
C1134 C 0.74124 0.5282 0.14701 0.0
C1135 C 0.74014 0.54349 0.11178 0.0
H1136 H 0.76029 0.51763 0.18222 0.0
C1137 C 0.75551 0.55623 0.06544 0.0
H1138 H 0.72948 0.51824 0.18297 0.0
C1139 C 0.77324 0.5559 0.06501 0.0
C1140 C 0.77546 0.54285 0.11107 0.0
H1141 H 0.75494 0.56822 0.03826 0.0
H1142 H 0.78594 0.56764 0.0375 0.0
C1143 C 0.75886 0.52787 0.14658 0.0
C1144 C 0.40815 0.19296 0.01458 0.0
C1145 C 0.4203 0.1891 0.05981 0.0
H1146 H 0.39594 0.21177 -0.00466 0.0
C1147 C 0.43307 0.20362 0.10867 0.0
H1148 H 0.39819 0.18197 0.9764 0.0
C1149 C 0.43171 0.22044 0.11968 0.0
C1150 C 0.41765 0.22304 0.08161 0.0
H1151 H 0.44282 0.20112 0.14326 0.0
H1152 H 0.44045 0.23056 0.16238 0.0
C1153 C 0.40684 0.20996 0.02546 0.0
C1154 C 0.75707 0.19168 0.0081 0.0
C1155 C 0.74146 0.18744 0.05596 0.0
H1156 H 0.7877 0.21116 0.98393 0.0
C1157 C 0.7435 0.20174 0.10639 0.0
H1158 H 0.75581 0.18089 0.96858 0.0
C1159 C 0.7616 0.21885 0.11529 0.0
C1160 C 0.77794 0.22199 0.07371 0.0
H1161 H 0.73155 0.19899 0.14299 0.0
H1162 H 0.76318 0.22893 0.1584 0.0
C1163 C 0.77531 0.20895 0.01694 0.0
C1164 C 0.55375 0.76316 0.95348 0.0
C1165 C 0.54248 0.74979 0.89868 0.0
H1166 H 0.56332 0.79164 -4e-05 0.0
C1167 C 0.52882 0.75278 0.85956 0.0
H1168 H 0.56435 0.76109 -0.01553 0.0
C1169 C 0.52817 0.77005 0.86849 0.0
C1170 C 0.54125 0.78466 0.91648 0.0
H1171 H 0.51969 0.74246 0.81796 0.0
H1172 H 0.51857 0.77266 0.83352 0.0
C1173 C 0.55315 0.78061 0.96235 0.0
C1174 C 0.19694 0.75122 0.85484 0.0
C1175 C 0.18014 0.7487 0.89156 0.0
H1176 H 0.22727 0.7708 0.82997 0.0
C1177 C 0.18213 0.76238 0.94478 0.0
H1178 H 0.19575 0.74067 0.8143 0.0
C1179 C 0.20026 0.7798 0.95361 0.0
C1180 C 0.21635 0.78345 0.90924 0.0
H1181 H 0.16931 0.76067 0.97368 0.0
H1182 H 0.20105 0.79116 -0.01081 0.0
C1183 C 0.21494 0.76845 0.86379 0.0
C1184 C 0.1998 0.44189 0.83407 0.0
C1185 C 0.18352 0.42687 0.87083 0.0
H1186 H 0.2291 0.45194 0.79597 0.0
C1187 C 0.18619 0.41404 0.91651 0.0
H1188 H 0.19799 0.45193 0.79866 0.0
C1189 C 0.20409 0.41404 0.91498 0.0
C1190 C 0.21916 0.42685 0.86769 0.0
H1191 H 0.17373 0.40226 0.94487 0.0
H1192 H 0.20502 0.40227 0.94224 0.0
C1193 C 0.21758 0.44188 0.83251 0.0
C1194 C 0.42365 0.88903 0.39506 0.0
C1195 C 0.40805 0.87632 0.44066 0.0
H1196 H 0.4543 0.90069 0.37017 0.0
C1197 C 0.40917 0.86129 0.47793 0.0
H1198 H 0.42308 0.90082 0.36632 0.0
C1199 C 0.42693 0.86123 0.4802 0.0
C1200 C 0.44363 0.87618 0.44511 0.0
H1201 H 0.39725 0.85133 0.51332 0.0
H1202 H 0.4283 0.85124 0.5173 0.0
C1203 C 0.44151 0.88896 0.39727 0.0
C1204 C 0.07142 0.54145 0.35299 0.0
C1205 C 0.082 0.5554 0.40716 0.0
H1206 H 0.06266 0.51263 0.31157 0.0
C1207 C 0.09527 0.55293 0.45105 0.0
H1208 H 0.06117 0.54312 0.31828 0.0
C1209 C 0.09616 0.53569 0.44713 0.0
C1210 C 0.08377 0.52061 0.39934 0.0
H1211 H 0.10391 0.5637 0.4922 0.0
H1212 H 0.10541 0.53352 0.48549 0.0
C1213 C 0.0723 0.52405 0.34909 0.0
C1214 C 0.42974 0.55173 0.4474 0.0
C1215 C 0.44625 0.5544 0.40806 0.0
H1216 H 0.39967 0.53205 0.47543 0.0
C1217 C 0.44389 0.54064 0.35456 0.0
H1218 H 0.43115 0.56235 0.488 0.0
C1219 C 0.42575 0.52315 0.34739 0.0
C1220 C 0.40999 0.51945 0.39368 0.0
H1221 H 0.45645 0.54247 0.32346 0.0
H1222 H 0.4247 0.51182 0.31098 0.0
C1223 C 0.41174 0.53441 0.44015 0.0
loop_
_geom_bond_atom_site_label_1
_geom_bond_atom_site_label_2
_geom_bond_distance
_geom_bond_site_symmetry_2
_ccdc_geom_bond_type
C0 O1 1.306 . S
C0 O3 1.160 . S
O1 C0 1.306 . S
O1 Cd2 2.228 . S
Cd2 O1 2.228 . S
Cd2 O6 2.273 . S
Cd2 O10 2.277 . S
O3 C0 1.160 . S
O3 Cd4 2.203 . S
Cd4 O3 2.203 . S
Cd4 O6 2.411 . S
Cd4 O7 2.333 . S
Cd4 O8 2.352 . S
Cd4 O12 2.277 . S
Cd4 O13 2.356 . S
C5 O10 1.209 . S
C5 O12 1.226 . S
O6 Cd2 2.273 . S
O6 Cd4 2.411 . S
O6 C9 1.320 . S
O7 Cd4 2.333 . S
O7 C9 1.214 . S
O8 Cd4 2.352 . S
O8 C11 1.258 . S
C9 O6 1.320 . S
C9 O7 1.214 . S
O10 Cd2 2.277 . S
O10 C5 1.209 . S
C11 O8 1.258 . S
C11 O13 1.282 . S
O12 Cd4 2.277 . S
O12 C5 1.226 . S
O13 Cd4 2.356 . S
O13 C11 1.282 . S
C14 O15 1.306 . S
C14 O17 1.160 . S
O15 C14 1.306 . S
O15 Cd16 2.228 . S
Cd16 O15 2.228 . S
Cd16 O20 2.273 . S
Cd16 O24 2.277 . S
O17 C14 1.160 . S
O17 Cd18 2.203 . S
Cd18 O17 2.203 . S
Cd18 O20 2.411 . S
Cd18 O21 2.333 . S
Cd18 O22 2.352 . S
Cd18 O26 2.277 . S
Cd18 O27 2.356 . S
C19 O24 1.209 . S
C19 O26 1.226 . S
O20 Cd16 2.273 . S
O20 Cd18 2.411 . S
O20 C23 1.320 . S
O21 Cd18 2.333 . S
O21 C23 1.214 . S
O22 Cd18 2.352 . S
O22 C25 1.258 . S
C23 O20 1.320 . S
C23 O21 1.214 . S
O24 Cd16 2.277 . S
O24 C19 1.209 . S
C25 O22 1.258 . S
C25 O27 1.282 . S
O26 Cd18 2.277 . S
O26 C19 1.226 . S
O27 Cd18 2.356 . S
O27 C25 1.282 . S
C28 O29 1.306 . S
C28 O31 1.160 . S
O29 C28 1.306 . S
O29 Cd30 2.228 . S
Cd30 O29 2.228 . S
Cd30 O34 2.273 . S
Cd30 O38 2.277 . S
O31 C28 1.160 . S
O31 Cd32 2.203 . S
Cd32 O31 2.203 . S
Cd32 O34 2.411 . S
Cd32 O35 2.333 . S
Cd32 O36 2.352 . S
Cd32 O40 2.277 . S
Cd32 O41 2.356 . S
C33 O38 1.209 . S
C33 O40 1.226 . S
O34 Cd30 2.273 . S
O34 Cd32 2.411 . S
O34 C37 1.320 . S
O35 Cd32 2.333 . S
O35 C37 1.214 . S
O36 Cd32 2.352 . S
O36 C39 1.258 . S
C37 O34 1.320 . S
C37 O35 1.214 . S
O38 Cd30 2.277 . S
O38 C33 1.209 . S
C39 O36 1.258 . S
C39 O41 1.282 . S
O40 Cd32 2.277 . S
O40 C33 1.226 . S
O41 Cd32 2.356 . S
O41 C39 1.282 . S
C42 O43 1.306 . S
C42 O45 1.160 . S
O43 C42 1.306 . S
O43 Cd44 2.228 . S
Cd44 O43 2.228 . S
Cd44 O48 2.273 . S
Cd44 O52 2.277 . S
O45 C42 1.160 . S
O45 Cd46 2.203 . S
Cd46 O45 2.203 . S
Cd46 O48 2.411 . S
Cd46 O49 2.333 . S
Cd46 O50 2.352 . S
Cd46 O54 2.277 . S
Cd46 O55 2.356 . S
C47 O52 1.209 . S
C47 O54 1.226 . S
O48 Cd44 2.273 . S
O48 Cd46 2.411 . S
O48 C51 1.320 . S
O49 Cd46 2.333 . S
O49 C51 1.214 . S
O50 Cd46 2.352 . S
O50 C53 1.258 . S
C51 O48 1.320 . S
C51 O49 1.214 . S
O52 Cd44 2.277 . S
O52 C47 1.209 . S
C53 O50 1.258 . S
C53 O55 1.282 . S
O54 Cd46 2.277 . S
O54 C47 1.226 . S
O55 Cd46 2.356 . S
O55 C53 1.282 . S
C56 O57 1.306 . S
C56 O59 1.160 . S
O57 C56 1.306 . S
O57 Cd58 2.228 . S
Cd58 O57 2.228 . S
Cd58 O62 2.273 . S
Cd58 O66 2.277 . S
O59 C56 1.160 . S
O59 Cd60 2.203 . S
Cd60 O59 2.203 . S
Cd60 O62 2.411 . S
Cd60 O63 2.333 . S
Cd60 O64 2.352 . S
Cd60 O68 2.277 . S
Cd60 O69 2.356 . S
C61 O66 1.209 . S
C61 O68 1.226 . S
O62 Cd58 2.273 . S
O62 Cd60 2.411 . S
O62 C65 1.320 . S
O63 Cd60 2.333 . S
O63 C65 1.214 . S
O64 Cd60 2.352 . S
O64 C67 1.258 . S
C65 O62 1.320 . S
C65 O63 1.214 . S
O66 Cd58 2.277 . S
O66 C61 1.209 . S
C67 O64 1.258 . S
C67 O69 1.282 . S
O68 Cd60 2.277 . S
O68 C61 1.226 . S
O69 Cd60 2.356 . S
O69 C67 1.282 . S
C70 O71 1.306 . S
C70 O73 1.160 . S
O71 C70 1.306 . S
O71 Cd72 2.228 . S
Cd72 O71 2.228 . S
Cd72 O76 2.273 . S
Cd72 O80 2.277 . S
O73 C70 1.160 . S
O73 Cd74 2.203 . S
Cd74 O73 2.203 . S
Cd74 O76 2.411 . S
Cd74 O77 2.333 . S
Cd74 O78 2.352 . S
Cd74 O82 2.277 . S
Cd74 O83 2.356 . S
C75 O80 1.209 . S
C75 O82 1.226 . S
O76 Cd72 2.273 . S
O76 Cd74 2.411 . S
O76 C79 1.320 . S
O77 Cd74 2.333 . S
O77 C79 1.214 . S
O78 Cd74 2.352 . S
O78 C81 1.258 . S
C79 O76 1.320 . S
C79 O77 1.214 . S
O80 Cd72 2.277 . S
O80 C75 1.209 . S
C81 O78 1.258 . S
C81 O83 1.282 . S
O82 Cd74 2.277 . S
O82 C75 1.226 . S
O83 Cd74 2.356 . S
O83 C81 1.282 . S
C84 O85 1.306 . S
C84 O87 1.160 . S
O85 C84 1.306 . S
O85 Cd86 2.228 . S
Cd86 O85 2.228 . S
Cd86 O90 2.273 . S
Cd86 O94 2.277 . S
O87 C84 1.160 . S
O87 Cd88 2.203 . S
Cd88 O87 2.203 . S
Cd88 O90 2.411 . S
Cd88 O91 2.333 . S
Cd88 O92 2.352 . S
Cd88 O96 2.277 . S
Cd88 O97 2.356 . S
C89 O94 1.209 . S
C89 O96 1.226 . S
O90 Cd86 2.273 . S
O90 Cd88 2.411 . S
O90 C93 1.320 . S
O91 Cd88 2.333 . S
O91 C93 1.214 . S
O92 Cd88 2.352 . S
O92 C95 1.258 . S
C93 O90 1.320 . S
C93 O91 1.214 . S
O94 Cd86 2.277 . S
O94 C89 1.209 . S
C95 O92 1.258 . S
C95 O97 1.282 . S
O96 Cd88 2.277 . S
O96 C89 1.226 . S
O97 Cd88 2.356 . S
O97 C95 1.282 . S
C98 O99 1.306 . S
C98 O101 1.160 . S
O99 C98 1.306 . S
O99 Cd100 2.228 . S
Cd100 O99 2.228 . S
Cd100 O104 2.273 . S
Cd100 O108 2.277 . S
O101 C98 1.160 . S
O101 Cd102 2.203 . S
Cd102 O101 2.203 . S
Cd102 O104 2.411 . S
Cd102 O105 2.333 . S
Cd102 O106 2.352 . S
Cd102 O110 2.277 . S
Cd102 O111 2.356 . S
C103 O108 1.209 . S
C103 O110 1.226 . S
O104 Cd100 2.273 . S
O104 Cd102 2.411 . S
O104 C107 1.320 . S
O105 Cd102 2.333 . S
O105 C107 1.214 . S
O106 Cd102 2.352 . S
O106 C109 1.258 . S
C107 O104 1.320 . S
C107 O105 1.214 . S
O108 Cd100 2.277 . S
O108 C103 1.209 . S
C109 O106 1.258 . S
C109 O111 1.282 . S
O110 Cd102 2.277 . S
O110 C103 1.226 . S
O111 Cd102 2.356 . S
O111 C109 1.282 . S
C112 O113 1.306 . S
C112 O115 1.160 . S
O113 C112 1.306 . S
O113 Cd114 2.228 . S
Cd114 O113 2.228 . S
Cd114 O118 2.273 . S
Cd114 O122 2.277 . S
O115 C112 1.160 . S
O115 Cd116 2.203 . S
Cd116 O115 2.203 . S
Cd116 O118 2.411 . S
Cd116 O119 2.333 . S
Cd116 O120 2.352 . S
Cd116 O124 2.277 . S
Cd116 O125 2.356 . S
C117 O122 1.209 . S
C117 O124 1.226 . S
O118 Cd114 2.273 . S
O118 Cd116 2.411 . S
O118 C121 1.320 . S
O119 Cd116 2.333 . S
O119 C121 1.214 . S
O120 Cd116 2.352 . S
O120 C123 1.258 . S
C121 O118 1.320 . S
C121 O119 1.214 . S
O122 Cd114 2.277 . S
O122 C117 1.209 . S
C123 O120 1.258 . S
C123 O125 1.282 . S
O124 Cd116 2.277 . S
O124 C117 1.226 . S
O125 Cd116 2.356 . S
O125 C123 1.282 . S
C126 O127 1.306 . S
C126 O129 1.160 . S
O127 C126 1.306 . S
O127 Cd128 2.228 . S
Cd128 O127 2.228 . S
Cd128 O132 2.273 . S
Cd128 O136 2.277 . S
O129 C126 1.160 . S
O129 Cd130 2.203 . S
Cd130 O129 2.203 . S
Cd130 O132 2.411 . S
Cd130 O133 2.333 . S
Cd130 O134 2.352 . S
Cd130 O138 2.277 . S
Cd130 O139 2.356 . S
C131 O136 1.209 . S
C131 O138 1.226 . S
O132 Cd128 2.273 . S
O132 Cd130 2.411 . S
O132 C135 1.320 . S
O133 Cd130 2.333 . S
O133 C135 1.214 . S
O134 Cd130 2.352 . S
O134 C137 1.258 . S
C135 O132 1.320 . S
C135 O133 1.214 . S
O136 Cd128 2.277 . S
O136 C131 1.209 . S
C137 O134 1.258 . S
C137 O139 1.282 . S
O138 Cd130 2.277 . S
O138 C131 1.226 . S
O139 Cd130 2.356 . S
O139 C137 1.282 . S
C140 O141 1.306 . S
C140 O143 1.160 . S
O141 C140 1.306 . S
O141 Cd142 2.228 . S
Cd142 O141 2.228 . S
Cd142 O146 2.273 . S
Cd142 O150 2.277 . S
O143 C140 1.160 . S
O143 Cd144 2.203 . S
Cd144 O143 2.203 . S
Cd144 O146 2.411 . S
Cd144 O147 2.333 . S
Cd144 O148 2.352 . S
Cd144 O152 2.277 . S
Cd144 O153 2.356 . S
C145 O150 1.209 . S
C145 O152 1.226 . S
O146 Cd142 2.273 . S
O146 Cd144 2.411 . S
O146 C149 1.320 . S
O147 Cd144 2.333 . S
O147 C149 1.214 . S
O148 Cd144 2.352 . S
O148 C151 1.258 . S
C149 O146 1.320 . S
C149 O147 1.214 . S
O150 Cd142 2.277 . S
O150 C145 1.209 . S
C151 O148 1.258 . S
C151 O153 1.282 . S
O152 Cd144 2.277 . S
O152 C145 1.226 . S
O153 Cd144 2.356 . S
O153 C151 1.282 . S
C154 O155 1.306 . S
C154 O157 1.160 . S
O155 C154 1.306 . S
O155 Cd156 2.228 . S
Cd156 O155 2.228 . S
Cd156 O160 2.273 . S
Cd156 O164 2.277 . S
O157 C154 1.160 . S
O157 Cd158 2.203 . S
Cd158 O157 2.203 . S
Cd158 O160 2.411 . S
Cd158 O161 2.333 . S
Cd158 O162 2.352 . S
Cd158 O166 2.277 . S
Cd158 O167 2.356 . S
C159 O164 1.209 . S
C159 O166 1.226 . S
O160 Cd156 2.273 . S
O160 Cd158 2.411 . S
O160 C163 1.320 . S
O161 Cd158 2.333 . S
O161 C163 1.214 . S
O162 Cd158 2.352 . S
O162 C165 1.258 . S
C163 O160 1.320 . S
C163 O161 1.214 . S
O164 Cd156 2.277 . S
O164 C159 1.209 . S
C165 O162 1.258 . S
C165 O167 1.282 . S
O166 Cd158 2.277 . S
O166 C159 1.226 . S
O167 Cd158 2.356 . S
O167 C165 1.282 . S
C168 O169 1.306 . S
C168 O171 1.160 . S
O169 C168 1.306 . S
O169 Cd170 2.228 . S
Cd170 O169 2.228 . S
Cd170 O174 2.273 . S
Cd170 O178 2.277 . S
O171 C168 1.160 . S
O171 Cd172 2.203 . S
Cd172 O171 2.203 . S
Cd172 O174 2.411 . S
Cd172 O175 2.333 . S
Cd172 O176 2.352 . S
Cd172 O180 2.277 . S
Cd172 O181 2.356 . S
C173 O178 1.209 . S
C173 O180 1.226 . S
O174 Cd170 2.273 . S
O174 Cd172 2.411 . S
O174 C177 1.320 . S
O175 Cd172 2.333 . S
O175 C177 1.214 . S
O176 Cd172 2.352 . S
O176 C179 1.258 . S
C177 O174 1.320 . S
C177 O175 1.214 . S
O178 Cd170 2.277 . S
O178 C173 1.209 . S
C179 O176 1.258 . S
C179 O181 1.282 . S
O180 Cd172 2.277 . S
O180 C173 1.226 . S
O181 Cd172 2.356 . S
O181 C179 1.282 . S
C182 O183 1.306 . S
C182 O185 1.160 . S
O183 C182 1.306 . S
O183 Cd184 2.228 . S
Cd184 O183 2.228 . S
Cd184 O188 2.273 . S
Cd184 O192 2.277 . S
O185 C182 1.160 . S
O185 Cd186 2.203 . S
Cd186 O185 2.203 . S
Cd186 O188 2.411 . S
Cd186 O189 2.333 . S
Cd186 O190 2.352 . S
Cd186 O194 2.277 . S
Cd186 O195 2.356 . S
C187 O192 1.209 . S
C187 O194 1.226 . S
O188 Cd184 2.273 . S
O188 Cd186 2.411 . S
O188 C191 1.320 . S
O189 Cd186 2.333 . S
O189 C191 1.214 . S
O190 Cd186 2.352 . S
O190 C193 1.258 . S
C191 O188 1.320 . S
C191 O189 1.214 . S
O192 Cd184 2.277 . S
O192 C187 1.209 . S
C193 O190 1.258 . S
C193 O195 1.282 . S
O194 Cd186 2.277 . S
O194 C187 1.226 . S
O195 Cd186 2.356 . S
O195 C193 1.282 . S
C196 O197 1.306 . S
C196 O199 1.160 . S
O197 C196 1.306 . S
O197 Cd198 2.228 . S
Cd198 O197 2.228 . S
Cd198 O202 2.273 . S
Cd198 O206 2.277 . S
O199 C196 1.160 . S
O199 Cd200 2.203 . S
Cd200 O199 2.203 . S
Cd200 O202 2.411 . S
Cd200 O203 2.333 . S
Cd200 O204 2.352 . S
Cd200 O208 2.277 . S
Cd200 O209 2.356 . S
C201 O206 1.209 . S
C201 O208 1.226 . S
O202 Cd198 2.273 . S
O202 Cd200 2.411 . S
O202 C205 1.320 . S
O203 Cd200 2.333 . S
O203 C205 1.214 . S
O204 Cd200 2.352 . S
O204 C207 1.258 . S
C205 O202 1.320 . S
C205 O203 1.214 . S
O206 Cd198 2.277 . S
O206 C201 1.209 . S
C207 O204 1.258 . S
C207 O209 1.282 . S
O208 Cd200 2.277 . S
O208 C201 1.226 . S
O209 Cd200 2.356 . S
O209 C207 1.282 . S
C210 O211 1.306 . S
C210 O213 1.160 . S
O211 C210 1.306 . S
O211 Cd212 2.228 . S
Cd212 O211 2.228 . S
Cd212 O216 2.273 . S
Cd212 O220 2.277 . S
O213 C210 1.160 . S
O213 Cd214 2.203 . S
Cd214 O213 2.203 . S
Cd214 O216 2.411 . S
Cd214 O217 2.333 . S
Cd214 O218 2.352 . S
Cd214 O222 2.277 . S
Cd214 O223 2.356 1_554 S
C215 O220 1.209 . S
C215 O222 1.226 . S
O216 Cd212 2.273 . S
O216 Cd214 2.411 . S
O216 C219 1.320 . S
O217 Cd214 2.333 . S
O217 C219 1.214 . S
O218 Cd214 2.352 . S
O218 C221 1.258 1_554 S
C219 O216 1.320 . S
C219 O217 1.214 . S
O220 Cd212 2.277 . S
O220 C215 1.209 . S
C221 O218 1.258 1_556 S
C221 O223 1.282 . S
O222 Cd214 2.277 . S
O222 C215 1.226 . S
O223 Cd214 2.356 1_556 S
O223 C221 1.282 . S
C224 O225 1.306 . S
C224 O227 1.160 . S
O225 C224 1.306 . S
O225 Cd226 2.228 . S
Cd226 O225 2.228 . S
Cd226 O230 2.273 . S
Cd226 O234 2.277 . S
O227 C224 1.160 . S
O227 Cd228 2.203 . S
Cd228 O227 2.203 . S
Cd228 O230 2.411 . S
Cd228 O231 2.333 . S
Cd228 O232 2.352 . S
Cd228 O236 2.277 . S
Cd228 O237 2.356 1_554 S
C229 O234 1.209 . S
C229 O236 1.226 . S
O230 Cd226 2.273 . S
O230 Cd228 2.411 . S
O230 C233 1.320 . S
O231 Cd228 2.333 . S
O231 C233 1.214 . S
O232 Cd228 2.352 . S
O232 C235 1.258 1_554 S
C233 O230 1.320 . S
C233 O231 1.214 . S
O234 Cd226 2.277 . S
O234 C229 1.209 . S
C235 O232 1.258 1_556 S
C235 O237 1.282 . S
O236 Cd228 2.277 . S
O236 C229 1.226 . S
O237 Cd228 2.356 1_556 S
O237 C235 1.282 . S
C238 O239 1.306 . S
C238 O241 1.160 . S
O239 C238 1.306 . S
O239 Cd240 2.228 . S
Cd240 O239 2.228 . S
Cd240 O244 2.273 . S
Cd240 O248 2.277 . S
O241 C238 1.160 . S
O241 Cd242 2.203 . S
Cd242 O241 2.203 . S
Cd242 O244 2.411 . S
Cd242 O245 2.333 . S
Cd242 O246 2.352 . S
Cd242 O250 2.277 . S
Cd242 O251 2.356 1_554 S
C243 O248 1.209 . S
C243 O250 1.226 . S
O244 Cd240 2.273 . S
O244 Cd242 2.411 . S
O244 C247 1.320 . S
O245 Cd242 2.333 . S
O245 C247 1.214 . S
O246 Cd242 2.352 . S
O246 C249 1.258 1_554 S
C247 O244 1.320 . S
C247 O245 1.214 . S
O248 Cd240 2.277 . S
O248 C243 1.209 . S
C249 O246 1.258 1_556 S
C249 O251 1.282 . S
O250 Cd242 2.277 . S
O250 C243 1.226 . S
O251 Cd242 2.356 1_556 S
O251 C249 1.282 . S
C252 O253 1.306 . S
C252 O255 1.160 . S
O253 C252 1.306 . S
O253 Cd254 2.228 . S
Cd254 O253 2.228 . S
Cd254 O258 2.273 . S
Cd254 O262 2.277 . S
O255 C252 1.160 . S
O255 Cd256 2.203 . S
Cd256 O255 2.203 . S
Cd256 O258 2.411 . S
Cd256 O259 2.333 . S
Cd256 O260 2.352 . S
Cd256 O264 2.277 . S
Cd256 O265 2.356 1_554 S
C257 O262 1.209 . S
C257 O264 1.226 . S
O258 Cd254 2.273 . S
O258 Cd256 2.411 . S
O258 C261 1.320 . S
O259 Cd256 2.333 . S
O259 C261 1.214 . S
O260 Cd256 2.352 . S
O260 C263 1.258 1_554 S
C261 O258 1.320 . S
C261 O259 1.214 . S
O262 Cd254 2.277 . S
O262 C257 1.209 . S
C263 O260 1.258 1_556 S
C263 O265 1.282 . S
O264 Cd256 2.277 . S
O264 C257 1.226 . S
O265 Cd256 2.356 1_556 S
O265 C263 1.282 . S
C266 O267 1.306 . S
C266 O269 1.160 . S
O267 C266 1.306 . S
O267 Cd268 2.228 . S
Cd268 O267 2.228 . S
Cd268 O272 2.273 . S
Cd268 O276 2.277 . S
O269 C266 1.160 . S
O269 Cd270 2.203 . S
Cd270 O269 2.203 . S
Cd270 O272 2.411 . S
Cd270 O273 2.333 . S
Cd270 O274 2.352 . S
Cd270 O278 2.277 . S
Cd270 O279 2.356 1_554 S
C271 O276 1.209 . S
C271 O278 1.226 . S
O272 Cd268 2.273 . S
O272 Cd270 2.411 . S
O272 C275 1.320 . S
O273 Cd270 2.333 . S
O273 C275 1.214 . S
O274 Cd270 2.352 . S
O274 C277 1.258 1_554 S
C275 O272 1.320 . S
C275 O273 1.214 . S
O276 Cd268 2.277 . S
O276 C271 1.209 . S
C277 O274 1.258 1_556 S
C277 O279 1.282 . S
O278 Cd270 2.277 . S
O278 C271 1.226 . S
O279 Cd270 2.356 1_556 S
O279 C277 1.282 . S
C280 O281 1.306 . S
C280 O283 1.160 . S
O281 C280 1.306 . S
O281 Cd282 2.228 . S
Cd282 O281 2.228 . S
Cd282 O286 2.273 . S
Cd282 O290 2.277 . S
O283 C280 1.160 . S
O283 Cd284 2.203 . S
Cd284 O283 2.203 . S
Cd284 O286 2.411 . S
Cd284 O287 2.333 . S
Cd284 O288 2.352 . S
Cd284 O292 2.277 . S
Cd284 O293 2.356 1_554 S
C285 O290 1.209 . S
C285 O292 1.226 . S
O286 Cd282 2.273 . S
O286 Cd284 2.411 . S
O286 C289 1.320 . S
O287 Cd284 2.333 . S
O287 C289 1.214 . S
O288 Cd284 2.352 . S
O288 C291 1.258 1_554 S
C289 O286 1.320 . S
C289 O287 1.214 . S
O290 Cd282 2.277 . S
O290 C285 1.209 . S
C291 O288 1.258 1_556 S
C291 O293 1.282 . S
O292 Cd284 2.277 . S
O292 C285 1.226 . S
O293 Cd284 2.356 1_556 S
O293 C291 1.282 . S
C294 O295 1.306 . S
C294 O297 1.160 . S
O295 C294 1.306 . S
O295 Cd296 2.228 . S
Cd296 O295 2.228 . S
Cd296 O300 2.273 . S
Cd296 O304 2.277 . S
O297 C294 1.160 . S
O297 Cd298 2.203 . S
Cd298 O297 2.203 . S
Cd298 O300 2.411 . S
Cd298 O301 2.333 . S
Cd298 O302 2.352 . S
Cd298 O306 2.277 . S
Cd298 O307 2.356 . S
C299 O304 1.209 . S
C299 O306 1.226 . S
O300 Cd296 2.273 . S
O300 Cd298 2.411 . S
O300 C303 1.320 . S
O301 Cd298 2.333 . S
O301 C303 1.214 . S
O302 Cd298 2.352 . S
O302 C305 1.258 . S
C303 O300 1.320 . S
C303 O301 1.214 . S
O304 Cd296 2.277 . S
O304 C299 1.209 . S
C305 O302 1.258 . S
C305 O307 1.282 . S
O306 Cd298 2.277 . S
O306 C299 1.226 . S
O307 Cd298 2.356 . S
O307 C305 1.282 . S
C308 O309 1.306 . S
C308 O311 1.160 . S
O309 C308 1.306 . S
O309 Cd310 2.228 . S
Cd310 O309 2.228 . S
Cd310 O314 2.273 . S
Cd310 O318 2.277 . S
O311 C308 1.160 . S
O311 Cd312 2.203 . S
Cd312 O311 2.203 . S
Cd312 O314 2.411 . S
Cd312 O315 2.333 . S
Cd312 O316 2.352 . S
Cd312 O320 2.277 . S
Cd312 O321 2.356 . S
C313 O318 1.209 . S
C313 O320 1.226 . S
O314 Cd310 2.273 . S
O314 Cd312 2.411 . S
O314 C317 1.320 . S
O315 Cd312 2.333 . S
O315 C317 1.214 . S
O316 Cd312 2.352 . S
O316 C319 1.258 . S
C317 O314 1.320 . S
C317 O315 1.214 . S
O318 Cd310 2.277 . S
O318 C313 1.209 . S
C319 O316 1.258 . S
C319 O321 1.282 . S
O320 Cd312 2.277 . S
O320 C313 1.226 . S
O321 Cd312 2.356 . S
O321 C319 1.282 . S
C322 O323 1.306 . S
C322 O325 1.160 . S
O323 C322 1.306 . S
O323 Cd324 2.228 . S
Cd324 O323 2.228 . S
Cd324 O328 2.273 . S
Cd324 O332 2.277 . S
O325 C322 1.160 . S
O325 Cd326 2.203 . S
Cd326 O325 2.203 . S
Cd326 O328 2.411 . S
Cd326 O329 2.333 . S
Cd326 O330 2.352 . S
Cd326 O334 2.277 . S
Cd326 O335 2.356 . S
C327 O332 1.209 . S
C327 O334 1.226 . S
O328 Cd324 2.273 . S
O328 Cd326 2.411 . S
O328 C331 1.320 . S
O329 Cd326 2.333 . S
O329 C331 1.214 . S
O330 Cd326 2.352 . S
O330 C333 1.258 . S
C331 O328 1.320 . S
C331 O329 1.214 . S
O332 Cd324 2.277 . S
O332 C327 1.209 . S
C333 O330 1.258 . S
C333 O335 1.282 . S
O334 Cd326 2.277 . S
O334 C327 1.226 . S
O335 Cd326 2.356 . S
O335 C333 1.282 . S
C336 O337 1.306 . S
C336 O339 1.160 . S
O337 C336 1.306 . S
O337 Cd338 2.228 . S
Cd338 O337 2.228 . S
Cd338 O342 2.273 . S
Cd338 O346 2.277 . S
O339 C336 1.160 . S
O339 Cd340 2.203 . S
Cd340 O339 2.203 . S
Cd340 O342 2.411 . S
Cd340 O343 2.333 . S
Cd340 O344 2.352 . S
Cd340 O348 2.277 . S
Cd340 O349 2.356 1_556 S
C341 O346 1.209 . S
C341 O348 1.226 . S
O342 Cd338 2.273 . S
O342 Cd340 2.411 . S
O342 C345 1.320 . S
O343 Cd340 2.333 . S
O343 C345 1.214 . S
O344 Cd340 2.352 . S
O344 C347 1.258 1_556 S
C345 O342 1.320 . S
C345 O343 1.214 . S
O346 Cd338 2.277 . S
O346 C341 1.209 . S
C347 O344 1.258 1_554 S
C347 O349 1.282 . S
O348 Cd340 2.277 . S
O348 C341 1.226 . S
O349 Cd340 2.356 1_554 S
O349 C347 1.282 . S
C350 O351 1.306 . S
C350 O353 1.160 . S
O351 C350 1.306 . S
O351 Cd352 2.228 . S
Cd352 O351 2.228 . S
Cd352 O356 2.273 . S
Cd352 O360 2.277 . S
O353 C350 1.160 . S
O353 Cd354 2.203 . S
Cd354 O353 2.203 . S
Cd354 O356 2.411 . S
Cd354 O357 2.333 . S
Cd354 O358 2.352 . S
Cd354 O362 2.277 . S
Cd354 O363 2.356 1_556 S
C355 O360 1.209 . S
C355 O362 1.226 . S
O356 Cd352 2.273 . S
O356 Cd354 2.411 . S
O356 C359 1.320 . S
O357 Cd354 2.333 . S
O357 C359 1.214 . S
O358 Cd354 2.352 . S
O358 C361 1.258 1_556 S
C359 O356 1.320 . S
C359 O357 1.214 . S
O360 Cd352 2.277 . S
O360 C355 1.209 . S
C361 O358 1.258 1_554 S
C361 O363 1.282 . S
O362 Cd354 2.277 . S
O362 C355 1.226 . S
O363 Cd354 2.356 1_554 S
O363 C361 1.282 . S
C364 O365 1.306 . S
C364 O367 1.160 . S
O365 C364 1.306 . S
O365 Cd366 2.228 . S
Cd366 O365 2.228 . S
Cd366 O370 2.273 . S
Cd366 O374 2.277 . S
O367 C364 1.160 . S
O367 Cd368 2.203 . S
Cd368 O367 2.203 . S
Cd368 O370 2.411 . S
Cd368 O371 2.333 . S
Cd368 O372 2.352 . S
Cd368 O376 2.277 . S
Cd368 O377 2.356 1_556 S
C369 O374 1.209 . S
C369 O376 1.226 . S
O370 Cd366 2.273 . S
O370 Cd368 2.411 . S
O370 C373 1.320 . S
O371 Cd368 2.333 . S
O371 C373 1.214 . S
O372 Cd368 2.352 . S
O372 C375 1.258 1_556 S
C373 O370 1.320 . S
C373 O371 1.214 . S
O374 Cd366 2.277 . S
O374 C369 1.209 . S
C375 O372 1.258 1_554 S
C375 O377 1.282 . S
O376 Cd368 2.277 . S
O376 C369 1.226 . S
O377 Cd368 2.356 1_554 S
O377 C375 1.282 . S
C378 O379 1.306 . S
C378 O381 1.160 . S
O379 C378 1.306 . S
O379 Cd380 2.228 . S
Cd380 O379 2.228 . S
Cd380 O384 2.273 . S
Cd380 O388 2.277 . S
O381 C378 1.160 . S
O381 Cd382 2.203 . S
Cd382 O381 2.203 . S
Cd382 O384 2.411 . S
Cd382 O385 2.333 . S
Cd382 O386 2.352 . S
Cd382 O390 2.277 . S
Cd382 O391 2.356 . S
C383 O388 1.209 . S
C383 O390 1.226 . S
O384 Cd380 2.273 . S
O384 Cd382 2.411 . S
O384 C387 1.320 . S
O385 Cd382 2.333 . S
O385 C387 1.214 . S
O386 Cd382 2.352 . S
O386 C389 1.258 . S
C387 O384 1.320 . S
C387 O385 1.214 . S
O388 Cd380 2.277 . S
O388 C383 1.209 . S
C389 O386 1.258 . S
C389 O391 1.282 . S
O390 Cd382 2.277 . S
O390 C383 1.226 . S
O391 Cd382 2.356 . S
O391 C389 1.282 . S
C392 O393 1.306 . S
C392 O395 1.160 . S
O393 C392 1.306 . S
O393 Cd394 2.228 . S
Cd394 O393 2.228 . S
Cd394 O398 2.273 . S
Cd394 O402 2.277 . S
O395 C392 1.160 . S
O395 Cd396 2.203 . S
Cd396 O395 2.203 . S
Cd396 O398 2.411 . S
Cd396 O399 2.333 . S
Cd396 O400 2.352 . S
Cd396 O404 2.277 . S
Cd396 O405 2.356 . S
C397 O402 1.209 . S
C397 O404 1.226 . S
O398 Cd394 2.273 . S
O398 Cd396 2.411 . S
O398 C401 1.320 . S
O399 Cd396 2.333 . S
O399 C401 1.214 . S
O400 Cd396 2.352 . S
O400 C403 1.258 . S
C401 O398 1.320 . S
C401 O399 1.214 . S
O402 Cd394 2.277 . S
O402 C397 1.209 . S
C403 O400 1.258 . S
C403 O405 1.282 . S
O404 Cd396 2.277 . S
O404 C397 1.226 . S
O405 Cd396 2.356 . S
O405 C403 1.282 . S
C406 O407 1.306 . S
C406 O409 1.160 . S
O407 C406 1.306 . S
O407 Cd408 2.228 . S
Cd408 O407 2.228 . S
Cd408 O412 2.273 . S
Cd408 O416 2.277 . S
O409 C406 1.160 . S
O409 Cd410 2.203 . S
Cd410 O409 2.203 . S
Cd410 O412 2.411 . S
Cd410 O413 2.333 . S
Cd410 O414 2.352 . S
Cd410 O418 2.277 . S
Cd410 O419 2.356 . S
C411 O416 1.209 . S
C411 O418 1.226 . S
O412 Cd408 2.273 . S
O412 Cd410 2.411 . S
O412 C415 1.320 . S
O413 Cd410 2.333 . S
O413 C415 1.214 . S
O414 Cd410 2.352 . S
O414 C417 1.258 . S
C415 O412 1.320 . S
C415 O413 1.214 . S
O416 Cd408 2.277 . S
O416 C411 1.209 . S
C417 O414 1.258 . S
C417 O419 1.282 . S
O418 Cd410 2.277 . S
O418 C411 1.226 . S
O419 Cd410 2.356 . S
O419 C417 1.282 . S
C420 O421 1.306 . S
C420 O423 1.160 . S
O421 C420 1.306 . S
O421 Cd422 2.228 . S
Cd422 O421 2.228 . S
Cd422 O426 2.273 . S
Cd422 O430 2.277 . S
O423 C420 1.160 . S
O423 Cd424 2.203 . S
Cd424 O423 2.203 . S
Cd424 O426 2.411 . S
Cd424 O427 2.333 . S
Cd424 O428 2.352 . S
Cd424 O432 2.277 . S
Cd424 O433 2.356 . S
C425 O430 1.209 . S
C425 O432 1.226 . S
O426 Cd422 2.273 . S
O426 Cd424 2.411 . S
O426 C429 1.320 . S
O427 Cd424 2.333 . S
O427 C429 1.214 . S
O428 Cd424 2.352 . S
O428 C431 1.258 . S
C429 O426 1.320 . S
C429 O427 1.214 . S
O430 Cd422 2.277 . S
O430 C425 1.209 . S
C431 O428 1.258 . S
C431 O433 1.282 . S
O432 Cd424 2.277 . S
O432 C425 1.226 . S
O433 Cd424 2.356 . S
O433 C431 1.282 . S
C434 O435 1.306 . S
C434 O437 1.160 . S
O435 C434 1.306 . S
O435 Cd436 2.228 . S
Cd436 O435 2.228 . S
Cd436 O440 2.273 . S
Cd436 O444 2.277 . S
O437 C434 1.160 . S
O437 Cd438 2.203 . S
Cd438 O437 2.203 . S
Cd438 O440 2.411 . S
Cd438 O441 2.333 . S
Cd438 O442 2.352 . S
Cd438 O446 2.277 . S
Cd438 O447 2.356 . S
C439 O444 1.209 . S
C439 O446 1.226 . S
O440 Cd436 2.273 . S
O440 Cd438 2.411 . S
O440 C443 1.320 . S
O441 Cd438 2.333 . S
O441 C443 1.214 . S
O442 Cd438 2.352 . S
O442 C445 1.258 . S
C443 O440 1.320 . S
C443 O441 1.214 . S
O444 Cd436 2.277 . S
O444 C439 1.209 . S
C445 O442 1.258 . S
C445 O447 1.282 . S
O446 Cd438 2.277 . S
O446 C439 1.226 . S
O447 Cd438 2.356 . S
O447 C445 1.282 . S
C448 O449 1.306 . S
C448 O451 1.160 . S
O449 C448 1.306 . S
O449 Cd450 2.228 . S
Cd450 O449 2.228 . S
Cd450 O454 2.273 . S
Cd450 O458 2.277 . S
O451 C448 1.160 . S
O451 Cd452 2.203 . S
Cd452 O451 2.203 . S
Cd452 O454 2.411 . S
Cd452 O455 2.333 . S
Cd452 O456 2.352 . S
Cd452 O460 2.277 . S
Cd452 O461 2.356 . S
C453 O458 1.209 . S
C453 O460 1.226 . S
O454 Cd450 2.273 . S
O454 Cd452 2.411 . S
O454 C457 1.320 . S
O455 Cd452 2.333 . S
O455 C457 1.214 . S
O456 Cd452 2.352 . S
O456 C459 1.258 . S
C457 O454 1.320 . S
C457 O455 1.214 . S
O458 Cd450 2.277 . S
O458 C453 1.209 . S
C459 O456 1.258 . S
C459 O461 1.282 . S
O460 Cd452 2.277 . S
O460 C453 1.226 . S
O461 Cd452 2.356 . S
O461 C459 1.282 . S
C462 O463 1.306 . S
C462 O465 1.160 . S
O463 C462 1.306 . S
O463 Cd464 2.228 . S
Cd464 O463 2.228 . S
Cd464 O468 2.273 . S
Cd464 O472 2.277 . S
O465 C462 1.160 . S
O465 Cd466 2.203 . S
Cd466 O465 2.203 . S
Cd466 O468 2.411 . S
Cd466 O469 2.333 . S
Cd466 O470 2.352 . S
Cd466 O474 2.277 . S
Cd466 O475 2.356 1_556 S
C467 O472 1.209 . S
C467 O474 1.226 . S
O468 Cd464 2.273 . S
O468 Cd466 2.411 . S
O468 C471 1.320 . S
O469 Cd466 2.333 . S
O469 C471 1.214 . S
O470 Cd466 2.352 . S
O470 C473 1.258 1_556 S
C471 O468 1.320 . S
C471 O469 1.214 . S
O472 Cd464 2.277 . S
O472 C467 1.209 . S
C473 O470 1.258 1_554 S
C473 O475 1.282 . S
O474 Cd466 2.277 . S
O474 C467 1.226 . S
O475 Cd466 2.356 1_554 S
O475 C473 1.282 . S
C476 O477 1.306 . S
C476 O479 1.160 . S
O477 C476 1.306 . S
O477 Cd478 2.228 . S
Cd478 O477 2.228 . S
Cd478 O482 2.273 . S
Cd478 O486 2.277 . S
O479 C476 1.160 . S
O479 Cd480 2.203 . S
Cd480 O479 2.203 . S
Cd480 O482 2.411 . S
Cd480 O483 2.333 . S
Cd480 O484 2.352 . S
Cd480 O488 2.277 . S
Cd480 O489 2.356 1_556 S
C481 O486 1.209 . S
C481 O488 1.226 . S
O482 Cd478 2.273 . S
O482 Cd480 2.411 . S
O482 C485 1.320 . S
O483 Cd480 2.333 . S
O483 C485 1.214 . S
O484 Cd480 2.352 . S
O484 C487 1.258 1_556 S
C485 O482 1.320 . S
C485 O483 1.214 . S
O486 Cd478 2.277 . S
O486 C481 1.209 . S
C487 O484 1.258 1_554 S
C487 O489 1.282 . S
O488 Cd480 2.277 . S
O488 C481 1.226 . S
O489 Cd480 2.356 1_554 S
O489 C487 1.282 . S
C490 O491 1.306 . S
C490 O493 1.160 . S
O491 C490 1.306 . S
O491 Cd492 2.228 . S
Cd492 O491 2.228 . S
Cd492 O496 2.273 . S
Cd492 O500 2.277 . S
O493 C490 1.160 . S
O493 Cd494 2.203 . S
Cd494 O493 2.203 . S
Cd494 O496 2.411 . S
Cd494 O497 2.333 . S
Cd494 O498 2.352 . S
Cd494 O502 2.277 . S
Cd494 O503 2.356 1_556 S
C495 O500 1.209 . S
C495 O502 1.226 . S
O496 Cd492 2.273 . S
O496 Cd494 2.411 . S
O496 C499 1.320 . S
O497 Cd494 2.333 . S
O497 C499 1.214 . S
O498 Cd494 2.352 . S
O498 C501 1.258 1_556 S
C499 O496 1.320 . S
C499 O497 1.214 . S
O500 Cd492 2.277 . S
O500 C495 1.209 . S
C501 O498 1.258 1_554 S
C501 O503 1.282 . S
O502 Cd494 2.277 . S
O502 C495 1.226 . S
O503 Cd494 2.356 1_554 S
O503 C501 1.282 . S
C504 C505 1.387 . S
C504 H508 0.950 . S
C504 C513 1.390 1_565 S
C505 C504 1.387 . S
C505 C507 1.387 . S
H506 C513 0.950 . S
C507 C505 1.387 . S
C507 C509 1.390 1_565 S
C507 H511 0.950 . S
H508 C504 0.950 . S
C509 C507 1.390 1_545 S
C509 C510 1.387 . S
C509 H512 0.950 . S
C510 C509 1.387 . S
C510 C513 1.387 . S
H511 C507 0.950 . S
H512 C509 0.950 . S
C513 C504 1.390 1_545 S
C513 H506 0.950 . S
C513 C510 1.387 . S
C514 C515 1.387 . S
C514 H518 0.950 . S
C514 C523 1.390 . S
C515 C514 1.387 . S
C515 C517 1.387 1_455 S
H516 C523 0.950 . S
C517 C515 1.387 1_655 S
C517 C519 1.390 . S
C517 H521 0.950 . S
H518 C514 0.950 . S
C519 C517 1.390 . S
C519 C520 1.387 . S
C519 H522 0.950 . S
C520 C519 1.387 . S
C520 C523 1.387 1_655 S
H521 C517 0.950 . S
H522 C519 0.950 . S
C523 C514 1.390 . S
C523 H516 0.950 . S
C523 C520 1.387 1_455 S
C524 C525 1.387 . S
C524 H528 0.950 . S
C524 C533 1.390 . S
C525 C524 1.387 . S
C525 C527 1.387 . S
H526 C533 0.950 . S
C527 C525 1.387 . S
C527 C529 1.390 . S
C527 H531 0.950 . S
H528 C524 0.950 . S
C529 C527 1.390 . S
C529 C530 1.387 . S
C529 H532 0.950 . S
C530 C529 1.387 . S
C530 C533 1.387 . S
H531 C527 0.950 . S
H532 C529 0.950 . S
C533 C524 1.390 . S
C533 H526 0.950 . S
C533 C530 1.387 . S
C534 C535 1.387 . S
C534 H538 0.950 . S
C534 C543 1.390 1_565 S
C535 C534 1.387 . S
C535 C537 1.387 . S
H536 C543 0.950 . S
C537 C535 1.387 . S
C537 C539 1.390 1_565 S
C537 H541 0.950 . S
H538 C534 0.950 . S
C539 C537 1.390 1_545 S
C539 C540 1.387 . S
C539 H542 0.950 . S
C540 C539 1.387 . S
C540 C543 1.387 . S
H541 C537 0.950 . S
H542 C539 0.950 . S
C543 C534 1.390 1_545 S
C543 H536 0.950 . S
C543 C540 1.387 . S
C544 C545 1.387 . S
C544 H548 0.950 . S
C544 C553 1.390 . S
C545 C544 1.387 . S
C545 C547 1.387 1_455 S
H546 C553 0.950 . S
C547 C545 1.387 1_655 S
C547 C549 1.390 . S
C547 H551 0.950 . S
H548 C544 0.950 . S
C549 C547 1.390 . S
C549 C550 1.387 . S
C549 H552 0.950 . S
C550 C549 1.387 . S
C550 C553 1.387 1_655 S
H551 C547 0.950 . S
H552 C549 0.950 . S
C553 C544 1.390 . S
C553 H546 0.950 . S
C553 C550 1.387 1_455 S
C554 C555 1.387 . S
C554 H558 0.950 . S
C554 C563 1.390 . S
C555 C554 1.387 . S
C555 C557 1.387 . S
H556 C563 0.950 . S
C557 C555 1.387 . S
C557 C559 1.390 . S
C557 H561 0.950 . S
H558 C554 0.950 . S
C559 C557 1.390 . S
C559 C560 1.387 . S
C559 H562 0.950 . S
C560 C559 1.387 . S
C560 C563 1.387 . S
H561 C557 0.950 . S
H562 C559 0.950 . S
C563 C554 1.390 . S
C563 H556 0.950 . S
C563 C560 1.387 . S
C564 C565 1.387 . S
C564 H568 0.950 . S
C564 C573 1.390 . S
C565 C564 1.387 . S
C565 C567 1.387 . S
H566 C573 0.950 . S
C567 C565 1.387 . S
C567 C569 1.390 . S
C567 H571 0.950 . S
H568 C564 0.950 . S
C569 C567 1.390 . S
C569 C570 1.387 . S
C569 H572 0.950 . S
C570 C569 1.387 . S
C570 C573 1.387 . S
H571 C567 0.950 . S
H572 C569 0.950 . S
C573 C564 1.390 . S
C573 H566 0.950 . S
C573 C570 1.387 . S
C574 C575 1.387 . S
C574 H578 0.950 . S
C574 C583 1.390 . S
C575 C574 1.387 . S
C575 C577 1.387 . S
H576 C583 0.950 . S
C577 C575 1.387 . S
C577 C579 1.390 . S
C577 H581 0.950 . S
H578 C574 0.950 . S
C579 C577 1.390 . S
C579 C580 1.387 . S
C579 H582 0.950 . S
C580 C579 1.387 . S
C580 C583 1.387 . S
H581 C577 0.950 . S
H582 C579 0.950 . S
C583 C574 1.390 . S
C583 H576 0.950 . S
C583 C580 1.387 . S
C584 C585 1.387 . S
C584 H588 0.950 . S
C584 C593 1.390 . S
C585 C584 1.387 . S
C585 C587 1.387 . S
H586 C593 0.950 . S
C587 C585 1.387 . S
C587 C589 1.390 . S
C587 H591 0.950 . S
H588 C584 0.950 . S
C589 C587 1.390 . S
C589 C590 1.387 . S
C589 H592 0.950 . S
C590 C589 1.387 . S
C590 C593 1.387 . S
H591 C587 0.950 . S
H592 C589 0.950 . S
C593 C584 1.390 . S
C593 H586 0.950 . S
C593 C590 1.387 . S
C594 C595 1.387 . S
C594 H598 0.950 . S
C594 C603 1.390 . S
C595 C594 1.387 . S
C595 C597 1.387 . S
H596 C603 0.950 . S
C597 C595 1.387 . S
C597 C599 1.390 . S
C597 H601 0.950 . S
H598 C594 0.950 . S
C599 C597 1.390 . S
C599 C600 1.387 . S
C599 H602 0.950 . S
C600 C599 1.387 . S
C600 C603 1.387 . S
H601 C597 0.950 . S
H602 C599 0.950 . S
C603 C594 1.390 . S
C603 H596 0.950 . S
C603 C600 1.387 . S
C604 C605 1.387 . S
C604 H608 0.950 . S
C604 C613 1.390 . S
C605 C604 1.387 . S
C605 C607 1.387 . S
H606 C613 0.950 . S
C607 C605 1.387 . S
C607 C609 1.390 . S
C607 H611 0.950 . S
H608 C604 0.950 . S
C609 C607 1.390 . S
C609 C610 1.387 . S
C609 H612 0.950 . S
C610 C609 1.387 . S
C610 C613 1.387 . S
H611 C607 0.950 . S
H612 C609 0.950 . S
C613 C604 1.390 . S
C613 H606 0.950 . S
C613 C610 1.387 . S
C614 C615 1.387 . S
C614 H618 0.950 . S
C614 C623 1.390 . S
C615 C614 1.387 . S
C615 C617 1.387 . S
H616 C623 0.950 . S
C617 C615 1.387 . S
C617 C619 1.390 . S
C617 H621 0.950 . S
H618 C614 0.950 . S
C619 C617 1.390 . S
C619 C620 1.387 . S
C619 H622 0.950 . S
C620 C619 1.387 . S
C620 C623 1.387 . S
H621 C617 0.950 . S
H622 C619 0.950 . S
C623 C614 1.390 . S
C623 H616 0.950 . S
C623 C620 1.387 . S
C624 C625 1.387 . S
C624 H628 0.950 . S
C624 C633 1.390 . S
C625 C624 1.387 . S
C625 C627 1.387 . S
H626 C633 0.950 . S
C627 C625 1.387 . S
C627 C629 1.390 . S
C627 H631 0.950 . S
H628 C624 0.950 . S
C629 C627 1.390 . S
C629 C630 1.387 . S
C629 H632 0.950 . S
C630 C629 1.387 . S
C630 C633 1.387 . S
H631 C627 0.950 . S
H632 C629 0.950 . S
C633 C624 1.390 . S
C633 H626 0.950 . S
C633 C630 1.387 . S
C634 C635 1.387 . S
C634 H638 0.950 . S
C634 C643 1.390 . S
C635 C634 1.387 . S
C635 C637 1.387 . S
H636 C643 0.950 . S
C637 C635 1.387 . S
C637 C639 1.390 . S
C637 H641 0.950 . S
H638 C634 0.950 . S
C639 C637 1.390 . S
C639 C640 1.387 . S
C639 H642 0.950 . S
C640 C639 1.387 . S
C640 C643 1.387 . S
H641 C637 0.950 . S
H642 C639 0.950 . S
C643 C634 1.390 . S
C643 H636 0.950 . S
C643 C640 1.387 . S
C644 C645 1.387 . S
C644 H648 0.950 . S
C644 C653 1.390 . S
C645 C644 1.387 . S
C645 C647 1.387 . S
H646 C653 0.950 . S
C647 C645 1.387 . S
C647 C649 1.390 . S
C647 H651 0.950 . S
H648 C644 0.950 . S
C649 C647 1.390 . S
C649 C650 1.387 . S
C649 H652 0.950 . S
C650 C649 1.387 . S
C650 C653 1.387 . S
H651 C647 0.950 . S
H652 C649 0.950 . S
C653 C644 1.390 . S
C653 H646 0.950 . S
C653 C650 1.387 . S
C654 C655 1.387 . S
C654 H658 0.950 . S
C654 C663 1.390 . S
C655 C654 1.387 . S
C655 C657 1.387 . S
H656 C663 0.950 . S
C657 C655 1.387 . S
C657 C659 1.390 . S
C657 H661 0.950 . S
H658 C654 0.950 . S
C659 C657 1.390 . S
C659 C660 1.387 . S
C659 H662 0.950 . S
C660 C659 1.387 . S
C660 C663 1.387 . S
H661 C657 0.950 . S
H662 C659 0.950 . S
C663 C654 1.390 . S
C663 H656 0.950 . S
C663 C660 1.387 . S
C664 C665 1.387 . S
C664 H668 0.950 . S
C664 C673 1.390 . S
C665 C664 1.387 . S
C665 C667 1.387 . S
H666 C673 0.950 . S
C667 C665 1.387 . S
C667 C669 1.390 . S
C667 H671 0.950 . S
H668 C664 0.950 . S
C669 C667 1.390 . S
C669 C670 1.387 . S
C669 H672 0.950 . S
C670 C669 1.387 . S
C670 C673 1.387 . S
H671 C667 0.950 . S
H672 C669 0.950 . S
C673 C664 1.390 . S
C673 H666 0.950 . S
C673 C670 1.387 . S
C674 C675 1.387 . S
C674 H678 0.950 . S
C674 C683 1.390 . S
C675 C674 1.387 . S
C675 C677 1.387 . S
H676 C683 0.950 . S
C677 C675 1.387 . S
C677 C679 1.390 . S
C677 H681 0.950 . S
H678 C674 0.950 . S
C679 C677 1.390 . S
C679 C680 1.387 . S
C679 H682 0.950 . S
C680 C679 1.387 . S
C680 C683 1.387 . S
H681 C677 0.950 . S
H682 C679 0.950 . S
C683 C674 1.390 . S
C683 H676 0.950 . S
C683 C680 1.387 . S
C684 C685 1.387 . S
C684 H688 0.950 . S
C684 C693 1.390 1_566 S
C685 C684 1.387 . S
C685 C687 1.387 . S
H686 C693 0.950 . S
C687 C685 1.387 . S
C687 C689 1.390 1_566 S
C687 H691 0.950 . S
H688 C684 0.950 . S
C689 C687 1.390 1_544 S
C689 C690 1.387 . S
C689 H692 0.950 . S
C690 C689 1.387 . S
C690 C693 1.387 . S
H691 C687 0.950 . S
H692 C689 0.950 . S
C693 C684 1.390 1_544 S
C693 H686 0.950 . S
C693 C690 1.387 . S
C694 C695 1.387 1_455 S
C694 H698 0.950 . S
C694 C703 1.390 1_554 S
C695 C694 1.387 1_655 S
C695 C697 1.387 . S
H696 C703 0.950 . S
C697 C695 1.387 . S
C697 C699 1.390 1_554 S
C697 H701 0.950 . S
H698 C694 0.950 . S
C699 C697 1.390 1_556 S
C699 C700 1.387 1_655 S
C699 H702 0.950 . S
C700 C699 1.387 1_455 S
C700 C703 1.387 . S
H701 C697 0.950 . S
H702 C699 0.950 . S
C703 C694 1.390 1_556 S
C703 H696 0.950 . S
C703 C700 1.387 . S
C704 C705 1.387 . S
C704 H708 0.950 . S
C704 C713 1.390 . S
C705 C704 1.387 . S
C705 C707 1.387 1_556 S
H706 C713 0.950 . S
C707 C705 1.387 1_554 S
C707 C709 1.390 . S
C707 H711 0.950 . S
H708 C704 0.950 . S
C709 C707 1.390 . S
C709 C710 1.387 . S
C709 H712 0.950 . S
C710 C709 1.387 . S
C710 C713 1.387 1_554 S
H711 C707 0.950 . S
H712 C709 0.950 . S
C713 C704 1.390 . S
C713 H706 0.950 . S
C713 C710 1.387 1_556 S
C714 C715 1.387 . S
C714 H718 0.950 . S
C714 C723 1.390 1_566 S
C715 C714 1.387 . S
C715 C717 1.387 . S
H716 C723 0.950 . S
C717 C715 1.387 . S
C717 C719 1.390 1_566 S
C717 H721 0.950 . S
H718 C714 0.950 . S
C719 C717 1.390 1_544 S
C719 C720 1.387 . S
C719 H722 0.950 . S
C720 C719 1.387 . S
C720 C723 1.387 . S
H721 C717 0.950 . S
H722 C719 0.950 . S
C723 C714 1.390 1_544 S
C723 H716 0.950 . S
C723 C720 1.387 . S
C724 C725 1.387 1_655 S
C724 H728 0.950 . S
C724 C733 1.396 . S
C725 C724 1.387 1_455 S
C725 C727 1.382 1_556 S
H726 C733 0.950 . S
C727 C725 1.382 1_554 S
C727 C729 1.396 . S
C727 H731 0.950 . S
H728 C724 0.950 . S
C729 C727 1.396 . S
C729 C730 1.387 1_455 S
C729 H732 0.950 . S
C730 C729 1.387 1_655 S
C730 C733 1.382 1_554 S
H731 C727 0.950 . S
H732 C729 0.950 . S
C733 C724 1.396 . S
C733 H726 0.950 . S
C733 C730 1.382 1_556 S
C734 C735 1.387 1_556 S
C734 H738 0.950 . S
C734 C743 1.390 . S
C735 C734 1.387 1_554 S
C735 C737 1.387 . S
H736 C743 0.950 . S
C737 C735 1.387 . S
C737 C739 1.390 . S
C737 H741 0.950 . S
H738 C734 0.950 . S
C739 C737 1.390 . S
C739 C740 1.387 1_554 S
C739 H742 0.950 . S
C740 C739 1.387 1_556 S
C740 C743 1.387 . S
H741 C737 0.950 . S
H742 C739 0.950 . S
C743 C734 1.390 . S
C743 H736 0.950 . S
C743 C740 1.387 . S
C744 C745 1.387 . S
C744 H748 0.950 . S
C744 C753 1.390 . S
C745 C744 1.387 . S
C745 C747 1.387 . S
H746 C753 0.950 . S
C747 C745 1.387 . S
C747 C749 1.390 . S
C747 H751 0.950 . S
H748 C744 0.950 . S
C749 C747 1.390 . S
C749 C750 1.387 . S
C749 H752 0.950 . S
C750 C749 1.387 . S
C750 C753 1.387 . S
H751 C747 0.950 . S
H752 C749 0.950 . S
C753 C744 1.390 . S
C753 H746 0.950 . S
C753 C750 1.387 . S
C754 C755 1.387 . S
C754 H758 0.950 . S
C754 C763 1.390 . S
C755 C754 1.387 . S
C755 C757 1.387 . S
H756 C763 0.950 . S
C757 C755 1.387 . S
C757 C759 1.390 . S
C757 H761 0.950 . S
H758 C754 0.950 . S
C759 C757 1.390 . S
C759 C760 1.387 . S
C759 H762 0.950 . S
C760 C759 1.387 . S
C760 C763 1.387 . S
H761 C757 0.950 . S
H762 C759 0.950 . S
C763 C754 1.390 . S
C763 H756 0.950 . S
C763 C760 1.387 . S
C764 C765 1.387 . S
C764 H768 0.950 . S
C764 C773 1.390 . S
C765 C764 1.387 . S
C765 C767 1.387 . S
H766 C773 0.950 . S
C767 C765 1.387 . S
C767 C769 1.390 . S
C767 H771 0.950 . S
H768 C764 0.950 . S
C769 C767 1.390 . S
C769 C770 1.387 . S
C769 H772 0.950 . S
C770 C769 1.387 . S
C770 C773 1.387 . S
H771 C767 0.950 . S
H772 C769 0.950 . S
C773 C764 1.390 . S
C773 H766 0.950 . S
C773 C770 1.387 . S
C774 C775 1.387 . S
C774 H778 0.950 . S
C774 C783 1.390 . S
C775 C774 1.387 . S
C775 C777 1.387 . S
H776 C783 0.950 . S
C777 C775 1.387 . S
C777 C779 1.390 . S
C777 H781 0.950 . S
H778 C774 0.950 . S
C779 C777 1.390 . S
C779 C780 1.387 . S
C779 H782 0.950 . S
C780 C779 1.387 . S
C780 C783 1.387 . S
H781 C777 0.950 . S
H782 C779 0.950 . S
C783 C774 1.390 . S
C783 H776 0.950 . S
C783 C780 1.387 . S
C784 C785 1.387 . S
C784 H788 0.950 . S
C784 C793 1.390 . S
C785 C784 1.387 . S
C785 C787 1.387 . S
H786 C793 0.950 . S
C787 C785 1.387 . S
C787 C789 1.390 . S
C787 H791 0.950 . S
H788 C784 0.950 . S
C789 C787 1.390 . S
C789 C790 1.387 . S
C789 H792 0.950 . S
C790 C789 1.387 . S
C790 C793 1.387 . S
H791 C787 0.950 . S
H792 C789 0.950 . S
C793 C784 1.390 . S
C793 H786 0.950 . S
C793 C790 1.387 . S
C794 C795 1.387 . S
C794 H798 0.950 . S
C794 C803 1.390 . S
C795 C794 1.387 . S
C795 C797 1.387 . S
H796 C803 0.950 . S
C797 C795 1.387 . S
C797 C799 1.390 . S
C797 H801 0.950 . S
H798 C794 0.950 . S
C799 C797 1.390 . S
C799 C800 1.387 . S
C799 H802 0.950 . S
C800 C799 1.387 . S
C800 C803 1.387 . S
H801 C797 0.950 . S
H802 C799 0.950 . S
C803 C794 1.390 . S
C803 H796 0.950 . S
C803 C800 1.387 . S
C804 C805 1.387 . S
C804 H808 0.950 . S
C804 C813 1.390 . S
C805 C804 1.387 . S
C805 C807 1.387 . S
H806 C813 0.950 . S
C807 C805 1.387 . S
C807 C809 1.390 . S
C807 H811 0.950 . S
H808 C804 0.950 . S
C809 C807 1.390 . S
C809 C810 1.387 . S
C809 H812 0.950 . S
C810 C809 1.387 . S
C810 C813 1.387 . S
H811 C807 0.950 . S
H812 C809 0.950 . S
C813 C804 1.390 . S
C813 H806 0.950 . S
C813 C810 1.387 . S
C814 C815 1.387 . S
C814 H818 0.950 . S
C814 C823 1.390 . S
C815 C814 1.387 . S
C815 C817 1.387 . S
H816 C823 0.950 . S
C817 C815 1.387 . S
C817 C819 1.390 . S
C817 H821 0.950 . S
H818 C814 0.950 . S
C819 C817 1.390 . S
C819 C820 1.387 . S
C819 H822 0.950 . S
C820 C819 1.387 . S
C820 C823 1.387 . S
H821 C817 0.950 . S
H822 C819 0.950 . S
C823 C814 1.390 . S
C823 H816 0.950 . S
C823 C820 1.387 . S
C824 C825 1.387 . S
C824 H828 0.950 . S
C824 C833 1.390 . S
C825 C824 1.387 . S
C825 C827 1.387 . S
H826 C833 0.950 . S
C827 C825 1.387 . S
C827 C829 1.390 . S
C827 H831 0.950 . S
H828 C824 0.950 . S
C829 C827 1.390 . S
C829 C830 1.387 . S
C829 H832 0.950 . S
C830 C829 1.387 . S
C830 C833 1.387 . S
H831 C827 0.950 . S
H832 C829 0.950 . S
C833 C824 1.390 . S
C833 H826 0.950 . S
C833 C830 1.387 . S
C834 C835 1.387 . S
C834 H838 0.950 . S
C834 C843 1.390 . S
C835 C834 1.387 . S
C835 C837 1.387 . S
H836 C843 0.950 . S
C837 C835 1.387 . S
C837 C839 1.390 . S
C837 H841 0.950 . S
H838 C834 0.950 . S
C839 C837 1.390 . S
C839 C840 1.387 . S
C839 H842 0.950 . S
C840 C839 1.387 . S
C840 C843 1.387 . S
H841 C837 0.950 . S
H842 C839 0.950 . S
C843 C834 1.390 . S
C843 H836 0.950 . S
C843 C840 1.387 . S
C844 C845 1.387 . S
C844 H848 0.950 . S
C844 C853 1.390 . S
C845 C844 1.387 . S
C845 C847 1.387 . S
H846 C853 0.950 . S
C847 C845 1.387 . S
C847 C849 1.390 . S
C847 H851 0.950 . S
H848 C844 0.950 . S
C849 C847 1.390 . S
C849 C850 1.387 . S
C849 H852 0.950 . S
C850 C849 1.387 . S
C850 C853 1.387 . S
H851 C847 0.950 . S
H852 C849 0.950 . S
C853 C844 1.390 . S
C853 H846 0.950 . S
C853 C850 1.387 . S
C854 C855 1.387 . S
C854 H858 0.950 . S
C854 C863 1.390 . S
C855 C854 1.387 . S
C855 C857 1.387 . S
H856 C863 0.950 . S
C857 C855 1.387 . S
C857 C859 1.390 . S
C857 H861 0.950 . S
H858 C854 0.950 . S
C859 C857 1.390 . S
C859 C860 1.387 . S
C859 H862 0.950 . S
C860 C859 1.387 . S
C860 C863 1.387 . S
H861 C857 0.950 . S
H862 C859 0.950 . S
C863 C854 1.390 . S
C863 H856 0.950 . S
C863 C860 1.387 . S
C864 C865 1.387 . S
C864 H868 0.950 . S
C864 C873 1.390 . S
C865 C864 1.387 . S
C865 C867 1.387 . S
H866 C873 0.950 . S
C867 C865 1.387 . S
C867 C869 1.390 . S
C867 H871 0.950 . S
H868 C864 0.950 . S
C869 C867 1.390 . S
C869 C870 1.387 . S
C869 H872 0.950 . S
C870 C869 1.387 . S
C870 C873 1.387 . S
H871 C867 0.950 . S
H872 C869 0.950 . S
C873 C864 1.390 . S
C873 H866 0.950 . S
C873 C870 1.387 . S
C874 C875 1.387 . S
C874 H878 0.950 . S
C874 C883 1.390 . S
C875 C874 1.387 . S
C875 C877 1.387 . S
H876 C883 0.950 . S
C877 C875 1.387 . S
C877 C879 1.390 . S
C877 H881 0.950 . S
H878 C874 0.950 . S
C879 C877 1.390 . S
C879 C880 1.387 . S
C879 H882 0.950 . S
C880 C879 1.387 . S
C880 C883 1.387 . S
H881 C877 0.950 . S
H882 C879 0.950 . S
C883 C874 1.390 . S
C883 H876 0.950 . S
C883 C880 1.387 . S
C884 C885 1.387 . S
C884 H888 0.950 . S
C884 C893 1.390 . S
C885 C884 1.387 . S
C885 C887 1.387 . S
H886 C893 0.950 . S
C887 C885 1.387 . S
C887 C889 1.390 . S
C887 H891 0.950 . S
H888 C884 0.950 . S
C889 C887 1.390 . S
C889 C890 1.387 . S
C889 H892 0.950 . S
C890 C889 1.387 . S
C890 C893 1.387 . S
H891 C887 0.950 . S
H892 C889 0.950 . S
C893 C884 1.390 . S
C893 H886 0.950 . S
C893 C890 1.387 . S
C894 C895 1.387 . S
C894 H898 0.950 . S
C894 C903 1.390 . S
C895 C894 1.387 . S
C895 C897 1.387 . S
H896 C903 0.950 . S
C897 C895 1.387 . S
C897 C899 1.390 . S
C897 H901 0.950 . S
H898 C894 0.950 . S
C899 C897 1.390 . S
C899 C900 1.387 . S
C899 H902 0.950 . S
C900 C899 1.387 . S
C900 C903 1.387 . S
H901 C897 0.950 . S
H902 C899 0.950 . S
C903 C894 1.390 . S
C903 H896 0.950 . S
C903 C900 1.387 . S
C904 C905 1.387 . S
C904 H908 0.950 . S
C904 C913 1.390 . S
C905 C904 1.387 . S
C905 C907 1.387 . S
H906 C913 0.950 . S
C907 C905 1.387 . S
C907 C909 1.390 . S
C907 H911 0.950 . S
H908 C904 0.950 . S
C909 C907 1.390 . S
C909 C910 1.387 . S
C909 H912 0.950 . S
C910 C909 1.387 . S
C910 C913 1.387 . S
H911 C907 0.950 . S
H912 C909 0.950 . S
C913 C904 1.390 . S
C913 H906 0.950 . S
C913 C910 1.387 . S
C914 C915 1.387 . S
C914 H918 0.950 . S
C914 C923 1.390 . S
C915 C914 1.387 . S
C915 C917 1.387 . S
H916 C923 0.950 . S
C917 C915 1.387 . S
C917 C919 1.390 . S
C917 H921 0.950 . S
H918 C914 0.950 . S
C919 C917 1.390 . S
C919 C920 1.387 . S
C919 H922 0.950 . S
C920 C919 1.387 . S
C920 C923 1.387 . S
H921 C917 0.950 . S
H922 C919 0.950 . S
C923 C914 1.390 . S
C923 H916 0.950 . S
C923 C920 1.387 . S
C924 C925 1.387 . S
C924 H928 0.950 . S
C924 C933 1.390 . S
C925 C924 1.387 . S
C925 C927 1.387 . S
H926 C933 0.950 . S
C927 C925 1.387 . S
C927 C929 1.390 . S
C927 H931 0.950 . S
H928 C924 0.950 . S
C929 C927 1.390 . S
C929 C930 1.387 . S
C929 H932 0.950 . S
C930 C929 1.387 . S
C930 C933 1.387 . S
H931 C927 0.950 . S
H932 C929 0.950 . S
C933 C924 1.390 . S
C933 H926 0.950 . S
C933 C930 1.387 . S
C934 C935 1.387 . S
C934 H938 0.950 . S
C934 C943 1.390 . S
C935 C934 1.387 . S
C935 C937 1.387 . S
H936 C943 0.950 . S
C937 C935 1.387 . S
C937 C939 1.390 . S
C937 H941 0.950 . S
H938 C934 0.950 . S
C939 C937 1.390 . S
C939 C940 1.387 . S
C939 H942 0.950 . S
C940 C939 1.387 . S
C940 C943 1.387 . S
H941 C937 0.950 . S
H942 C939 0.950 . S
C943 C934 1.390 . S
C943 H936 0.950 . S
C943 C940 1.387 . S
C944 C945 1.387 . S
C944 H948 0.950 . S
C944 C953 1.390 . S
C945 C944 1.387 . S
C945 C947 1.387 . S
H946 C953 0.950 . S
C947 C945 1.387 . S
C947 C949 1.390 . S
C947 H951 0.950 . S
H948 C944 0.950 . S
C949 C947 1.390 . S
C949 C950 1.387 . S
C949 H952 0.950 . S
C950 C949 1.387 . S
C950 C953 1.387 . S
H951 C947 0.950 . S
H952 C949 0.950 . S
C953 C944 1.390 . S
C953 H946 0.950 . S
C953 C950 1.387 . S
C954 C955 1.387 . S
C954 H958 0.950 . S
C954 C963 1.390 . S
C955 C954 1.387 . S
C955 C957 1.387 . S
H956 C963 0.950 . S
C957 C955 1.387 . S
C957 C959 1.390 . S
C957 H961 0.950 . S
H958 C954 0.950 . S
C959 C957 1.390 . S
C959 C960 1.387 . S
C959 H962 0.950 . S
C960 C959 1.387 . S
C960 C963 1.387 . S
H961 C957 0.950 . S
H962 C959 0.950 . S
C963 C954 1.390 . S
C963 H956 0.950 . S
C963 C960 1.387 . S
C964 C965 1.387 . S
C964 H968 0.950 . S
C964 C973 1.390 . S
C965 C964 1.387 . S
C965 C967 1.387 . S
H966 C973 0.950 . S
C967 C965 1.387 . S
C967 C969 1.390 . S
C967 H971 0.950 . S
H968 C964 0.950 . S
C969 C967 1.390 . S
C969 C970 1.387 . S
C969 H972 0.950 . S
C970 C969 1.387 . S
C970 C973 1.387 . S
H971 C967 0.950 . S
H972 C969 0.950 . S
C973 C964 1.390 . S
C973 H966 0.950 . S
C973 C970 1.387 . S
C974 C975 1.387 . S
C974 H978 0.950 . S
C974 C983 1.390 . S
C975 C974 1.387 . S
C975 C977 1.387 . S
H976 C983 0.950 . S
C977 C975 1.387 . S
C977 C979 1.390 . S
C977 H981 0.950 . S
H978 C974 0.950 . S
C979 C977 1.390 . S
C979 C980 1.387 . S
C979 H982 0.950 . S
C980 C979 1.387 . S
C980 C983 1.387 . S
H981 C977 0.950 . S
H982 C979 0.950 . S
C983 C974 1.390 . S
C983 H976 0.950 . S
C983 C980 1.387 . S
C984 C985 1.387 . S
C984 H988 0.950 . S
C984 C993 1.390 1_455 S
C985 C984 1.387 . S
C985 C987 1.387 . S
H986 C993 0.950 . S
C987 C985 1.387 . S
C987 C989 1.390 1_455 S
C987 H991 0.950 . S
H988 C984 0.950 . S
C989 C987 1.390 1_655 S
C989 C990 1.387 . S
C989 H992 0.950 . S
C990 C989 1.387 . S
C990 C993 1.387 . S
H991 C987 0.950 . S
H992 C989 0.950 . S
C993 C984 1.390 1_655 S
C993 H986 0.950 . S
C993 C990 1.387 . S
C994 C995 1.387 . S
C994 H998 0.950 . S
C994 C1003 1.390 . S
C995 C994 1.387 . S
C995 C997 1.387 . S
H996 C1003 0.950 . S
C997 C995 1.387 . S
C997 C999 1.390 . S
C997 H1001 0.950 . S
H998 C994 0.950 . S
C999 C997 1.390 . S
C999 C1000 1.387 . S
C999 H1002 0.950 . S
C1000 C999 1.387 . S
C1000 C1003 1.387 . S
H1001 C997 0.950 . S
H1002 C999 0.950 . S
C1003 C994 1.390 . S
C1003 H996 0.950 . S
C1003 C1000 1.387 . S
C1004 C1005 1.387 . S
C1004 H1008 0.950 . S
C1004 C1013 1.390 1_545 S
C1005 C1004 1.387 . S
C1005 C1007 1.387 . S
H1006 C1013 0.950 . S
C1007 C1005 1.387 . S
C1007 C1009 1.390 1_545 S
C1007 H1011 0.950 . S
H1008 C1004 0.950 . S
C1009 C1007 1.390 1_565 S
C1009 C1010 1.387 . S
C1009 H1012 0.950 . S
C1010 C1009 1.387 . S
C1010 C1013 1.387 . S
H1011 C1007 0.950 . S
H1012 C1009 0.950 . S
C1013 C1004 1.390 1_565 S
C1013 H1006 0.950 . S
C1013 C1010 1.387 . S
C1014 C1015 1.387 . S
C1014 H1018 0.950 . S
C1014 C1023 1.390 1_545 S
C1015 C1014 1.387 . S
C1015 C1017 1.387 . S
H1016 C1023 0.950 . S
C1017 C1015 1.387 . S
C1017 C1019 1.390 1_545 S
C1017 H1021 0.950 . S
H1018 C1014 0.950 . S
C1019 C1017 1.390 1_565 S
C1019 C1020 1.387 . S
C1019 H1022 0.950 . S
C1020 C1019 1.387 . S
C1020 C1023 1.387 . S
H1021 C1017 0.950 . S
H1022 C1019 0.950 . S
C1023 C1014 1.390 1_565 S
C1023 H1016 0.950 . S
C1023 C1020 1.387 . S
C1024 C1025 1.387 . S
C1024 H1028 0.950 . S
C1024 C1033 1.390 1_655 S
C1025 C1024 1.387 . S
C1025 C1027 1.387 . S
H1026 C1033 0.950 . S
C1027 C1025 1.387 . S
C1027 C1029 1.390 1_655 S
C1027 H1031 0.950 . S
H1028 C1024 0.950 . S
C1029 C1027 1.390 1_455 S
C1029 C1030 1.387 . S
C1029 H1032 0.950 . S
C1030 C1029 1.387 . S
C1030 C1033 1.387 . S
H1031 C1027 0.950 . S
H1032 C1029 0.950 . S
C1033 C1024 1.390 1_455 S
C1033 H1026 0.950 . S
C1033 C1030 1.387 . S
C1034 C1035 1.387 . S
C1034 H1038 0.950 . S
C1034 C1043 1.390 . S
C1035 C1034 1.387 . S
C1035 C1037 1.387 . S
H1036 C1043 0.950 . S
C1037 C1035 1.387 . S
C1037 C1039 1.390 . S
C1037 H1041 0.950 . S
H1038 C1034 0.950 . S
C1039 C1037 1.390 . S
C1039 C1040 1.387 . S
C1039 H1042 0.950 . S
C1040 C1039 1.387 . S
C1040 C1043 1.387 . S
H1041 C1037 0.950 . S
H1042 C1039 0.950 . S
C1043 C1034 1.390 . S
C1043 H1036 0.950 . S
C1043 C1040 1.387 . S
C1044 C1045 1.387 . S
C1044 H1048 0.950 . S
C1044 C1053 1.390 . S
C1045 C1044 1.387 . S
C1045 C1047 1.387 . S
H1046 C1053 0.950 . S
C1047 C1045 1.387 . S
C1047 C1049 1.390 . S
C1047 H1051 0.950 . S
H1048 C1044 0.950 . S
C1049 C1047 1.390 . S
C1049 C1050 1.387 . S
C1049 H1052 0.950 . S
C1050 C1049 1.387 . S
C1050 C1053 1.387 . S
H1051 C1047 0.950 . S
H1052 C1049 0.950 . S
C1053 C1044 1.390 . S
C1053 H1046 0.950 . S
C1053 C1050 1.387 . S
C1054 C1055 1.387 . S
C1054 H1058 0.950 . S
C1054 C1063 1.390 . S
C1055 C1054 1.387 . S
C1055 C1057 1.387 . S
H1056 C1063 0.950 . S
C1057 C1055 1.387 . S
C1057 C1059 1.390 . S
C1057 H1061 0.950 . S
H1058 C1054 0.950 . S
C1059 C1057 1.390 . S
C1059 C1060 1.387 . S
C1059 H1062 0.950 . S
C1060 C1059 1.387 . S
C1060 C1063 1.387 . S
H1061 C1057 0.950 . S
H1062 C1059 0.950 . S
C1063 C1054 1.390 . S
C1063 H1056 0.950 . S
C1063 C1060 1.387 . S
C1064 C1065 1.387 . S
C1064 H1068 0.950 . S
C1064 C1073 1.390 . S
C1065 C1064 1.387 . S
C1065 C1067 1.387 . S
H1066 C1073 0.950 . S
C1067 C1065 1.387 . S
C1067 C1069 1.390 . S
C1067 H1071 0.950 . S
H1068 C1064 0.950 . S
C1069 C1067 1.390 . S
C1069 C1070 1.387 . S
C1069 H1072 0.950 . S
C1070 C1069 1.387 . S
C1070 C1073 1.387 . S
H1071 C1067 0.950 . S
H1072 C1069 0.950 . S
C1073 C1064 1.390 . S
C1073 H1066 0.950 . S
C1073 C1070 1.387 . S
C1074 C1075 1.387 . S
C1074 H1078 0.950 . S
C1074 C1083 1.390 . S
C1075 C1074 1.387 . S
C1075 C1077 1.387 . S
H1076 C1083 0.950 . S
C1077 C1075 1.387 . S
C1077 C1079 1.390 . S
C1077 H1081 0.950 . S
H1078 C1074 0.950 . S
C1079 C1077 1.390 . S
C1079 C1080 1.387 . S
C1079 H1082 0.950 . S
C1080 C1079 1.387 . S
C1080 C1083 1.387 . S
H1081 C1077 0.950 . S
H1082 C1079 0.950 . S
C1083 C1074 1.390 . S
C1083 H1076 0.950 . S
C1083 C1080 1.387 . S
C1084 C1085 1.387 . S
C1084 H1088 0.950 . S
C1084 C1093 1.390 . S
C1085 C1084 1.387 . S
C1085 C1087 1.387 . S
H1086 C1093 0.950 . S
C1087 C1085 1.387 . S
C1087 C1089 1.390 . S
C1087 H1091 0.950 . S
H1088 C1084 0.950 . S
C1089 C1087 1.390 . S
C1089 C1090 1.387 . S
C1089 H1092 0.950 . S
C1090 C1089 1.387 . S
C1090 C1093 1.387 . S
H1091 C1087 0.950 . S
H1092 C1089 0.950 . S
C1093 C1084 1.390 . S
C1093 H1086 0.950 . S
C1093 C1090 1.387 . S
C1094 C1095 1.387 . S
C1094 H1098 0.950 . S
C1094 C1103 1.390 . S
C1095 C1094 1.387 . S
C1095 C1097 1.387 . S
H1096 C1103 0.950 . S
C1097 C1095 1.387 . S
C1097 C1099 1.390 . S
C1097 H1101 0.950 . S
H1098 C1094 0.950 . S
C1099 C1097 1.390 . S
C1099 C1100 1.387 . S
C1099 H1102 0.950 . S
C1100 C1099 1.387 . S
C1100 C1103 1.387 . S
H1101 C1097 0.950 . S
H1102 C1099 0.950 . S
C1103 C1094 1.390 . S
C1103 H1096 0.950 . S
C1103 C1100 1.387 . S
C1104 C1105 1.387 . S
C1104 H1108 0.950 . S
C1104 C1113 1.390 . S
C1105 C1104 1.387 . S
C1105 C1107 1.387 . S
H1106 C1113 0.950 . S
C1107 C1105 1.387 . S
C1107 C1109 1.390 . S
C1107 H1111 0.950 . S
H1108 C1104 0.950 . S
C1109 C1107 1.390 . S
C1109 C1110 1.387 . S
C1109 H1112 0.950 . S
C1110 C1109 1.387 . S
C1110 C1113 1.387 . S
H1111 C1107 0.950 . S
H1112 C1109 0.950 . S
C1113 C1104 1.390 . S
C1113 H1106 0.950 . S
C1113 C1110 1.387 . S
C1114 C1115 1.387 . S
C1114 H1118 0.950 . S
C1114 C1123 1.390 . S
C1115 C1114 1.387 . S
C1115 C1117 1.387 . S
H1116 C1123 0.950 . S
C1117 C1115 1.387 . S
C1117 C1119 1.390 . S
C1117 H1121 0.950 . S
H1118 C1114 0.950 . S
C1119 C1117 1.390 . S
C1119 C1120 1.387 . S
C1119 H1122 0.950 . S
C1120 C1119 1.387 . S
C1120 C1123 1.387 . S
H1121 C1117 0.950 . S
H1122 C1119 0.950 . S
C1123 C1114 1.390 . S
C1123 H1116 0.950 . S
C1123 C1120 1.387 . S
C1124 C1125 1.387 . S
C1124 H1128 0.950 . S
C1124 C1133 1.390 . S
C1125 C1124 1.387 . S
C1125 C1127 1.387 . S
H1126 C1133 0.950 . S
C1127 C1125 1.387 . S
C1127 C1129 1.390 . S
C1127 H1131 0.950 . S
H1128 C1124 0.950 . S
C1129 C1127 1.390 . S
C1129 C1130 1.387 . S
C1129 H1132 0.950 . S
C1130 C1129 1.387 . S
C1130 C1133 1.387 . S
H1131 C1127 0.950 . S
H1132 C1129 0.950 . S
C1133 C1124 1.390 . S
C1133 H1126 0.950 . S
C1133 C1130 1.387 . S
C1134 C1135 1.387 . S
C1134 H1138 0.950 . S
C1134 C1143 1.390 . S
C1135 C1134 1.387 . S
C1135 C1137 1.387 . S
H1136 C1143 0.950 . S
C1137 C1135 1.387 . S
C1137 C1139 1.390 . S
C1137 H1141 0.950 . S
H1138 C1134 0.950 . S
C1139 C1137 1.390 . S
C1139 C1140 1.387 . S
C1139 H1142 0.950 . S
C1140 C1139 1.387 . S
C1140 C1143 1.387 . S
H1141 C1137 0.950 . S
H1142 C1139 0.950 . S
C1143 C1134 1.390 . S
C1143 H1136 0.950 . S
C1143 C1140 1.387 . S
C1144 C1145 1.387 1_556 S
C1144 H1148 0.950 . S
C1144 C1153 1.390 . S
C1145 C1144 1.387 1_554 S
C1145 C1147 1.387 . S
H1146 C1153 0.950 . S
C1147 C1145 1.387 . S
C1147 C1149 1.390 . S
C1147 H1151 0.950 . S
H1148 C1144 0.950 . S
C1149 C1147 1.390 . S
C1149 C1150 1.387 . S
C1149 H1152 0.950 . S
C1150 C1149 1.387 . S
C1150 C1153 1.387 1_554 S
H1151 C1147 0.950 . S
H1152 C1149 0.950 . S
C1153 C1144 1.390 . S
C1153 H1146 0.950 . S
C1153 C1150 1.387 1_556 S
C1154 C1155 1.387 1_556 S
C1154 H1158 0.950 . S
C1154 C1163 1.390 . S
C1155 C1154 1.387 1_554 S
C1155 C1157 1.387 . S
H1156 C1163 0.950 . S
C1157 C1155 1.387 . S
C1157 C1159 1.390 . S
C1157 H1161 0.950 . S
H1158 C1154 0.950 . S
C1159 C1157 1.390 . S
C1159 C1160 1.387 . S
C1159 H1162 0.950 . S
C1160 C1159 1.387 . S
C1160 C1163 1.387 1_554 S
H1161 C1157 0.950 . S
H1162 C1159 0.950 . S
C1163 C1154 1.390 . S
C1163 H1156 0.950 . S
C1163 C1160 1.387 1_556 S
C1164 C1165 1.387 1_554 S
C1164 H1168 0.950 . S
C1164 C1173 1.390 . S
C1165 C1164 1.387 1_556 S
C1165 C1167 1.387 . S
H1166 C1173 0.950 . S
C1167 C1165 1.387 . S
C1167 C1169 1.390 . S
C1167 H1171 0.950 . S
H1168 C1164 0.950 . S
C1169 C1167 1.390 . S
C1169 C1170 1.387 . S
C1169 H1172 0.950 . S
C1170 C1169 1.387 . S
C1170 C1173 1.387 1_556 S
H1171 C1167 0.950 . S
H1172 C1169 0.950 . S
C1173 C1164 1.390 . S
C1173 H1166 0.950 . S
C1173 C1170 1.387 1_554 S
C1174 C1175 1.387 . S
C1174 H1178 0.950 . S
C1174 C1183 1.390 . S
C1175 C1174 1.387 . S
C1175 C1177 1.387 1_556 S
H1176 C1183 0.950 . S
C1177 C1175 1.387 1_554 S
C1177 C1179 1.390 . S
C1177 H1181 0.950 . S
H1178 C1174 0.950 . S
C1179 C1177 1.390 . S
C1179 C1180 1.387 1_554 S
C1179 H1182 0.950 . S
C1180 C1179 1.387 1_556 S
C1180 C1183 1.387 . S
H1181 C1177 0.950 . S
H1182 C1179 0.950 . S
C1183 C1174 1.390 . S
C1183 H1176 0.950 . S
C1183 C1180 1.387 . S
C1184 C1185 1.387 . S
C1184 H1188 0.950 . S
C1184 C1193 1.390 . S
C1185 C1184 1.387 . S
C1185 C1187 1.387 . S
H1186 C1193 0.950 . S
C1187 C1185 1.387 . S
C1187 C1189 1.390 . S
C1187 H1191 0.950 . S
H1188 C1184 0.950 . S
C1189 C1187 1.390 . S
C1189 C1190 1.387 . S
C1189 H1192 0.950 . S
C1190 C1189 1.387 . S
C1190 C1193 1.387 . S
H1191 C1187 0.950 . S
H1192 C1189 0.950 . S
C1193 C1184 1.390 . S
C1193 H1186 0.950 . S
C1193 C1190 1.387 . S
C1194 C1195 1.387 . S
C1194 H1198 0.950 . S
C1194 C1203 1.390 . S
C1195 C1194 1.387 . S
C1195 C1197 1.387 . S
H1196 C1203 0.950 . S
C1197 C1195 1.387 . S
C1197 C1199 1.390 . S
C1197 H1201 0.950 . S
H1198 C1194 0.950 . S
C1199 C1197 1.390 . S
C1199 C1200 1.387 . S
C1199 H1202 0.950 . S
C1200 C1199 1.387 . S
C1200 C1203 1.387 . S
H1201 C1197 0.950 . S
H1202 C1199 0.950 . S
C1203 C1194 1.390 . S
C1203 H1196 0.950 . S
C1203 C1200 1.387 . S
C1204 C1205 1.387 . S
C1204 H1208 0.950 . S
C1204 C1213 1.390 . S
C1205 C1204 1.387 . S
C1205 C1207 1.387 . S
H1206 C1213 0.950 . S
C1207 C1205 1.387 . S
C1207 C1209 1.390 . S
C1207 H1211 0.950 . S
H1208 C1204 0.950 . S
C1209 C1207 1.390 . S
C1209 C1210 1.387 . S
C1209 H1212 0.950 . S
C1210 C1209 1.387 . S
C1210 C1213 1.387 . S
H1211 C1207 0.950 . S
H1212 C1209 0.950 . S
C1213 C1204 1.390 . S
C1213 H1206 0.950 . S
C1213 C1210 1.387 . S
C1214 C1215 1.387 . S
C1214 H1218 0.950 . S
C1214 C1223 1.390 . S
C1215 C1214 1.387 . S
C1215 C1217 1.387 . S
H1216 C1223 0.950 . S
C1217 C1215 1.387 . S
C1217 C1219 1.390 . S
C1217 H1221 0.950 . S
H1218 C1214 0.950 . S
C1219 C1217 1.390 . S
C1219 C1220 1.387 . S
C1219 H1222 0.950 . S
C1220 C1219 1.387 . S
C1220 C1223 1.387 . S
H1221 C1217 0.950 . S
H1222 C1219 0.950 . S
C1223 C1214 1.390 . S
C1223 H1216 0.950 . S
C1223 C1220 1.387 . S
C505 C81 1.489 . S
C510 C11 1.489 . S
C515 C53 1.489 . S
C520 C25 1.490 . S
C525 C39 1.490 . S
C530 C67 1.489 . S
C535 C95 1.490 . S
C540 C165 1.490 . S
C545 C109 1.490 . S
C550 C137 1.489 . S
C555 C151 1.490 . S
C560 C123 1.489 . S
C565 C179 1.489 . S
C570 C249 1.489 . S
C575 C193 1.489 . S
C580 C221 1.491 . S
C585 C207 1.489 . S
C590 C235 1.491 . S
C595 C333 1.489 . S
C600 C263 1.489 . S
C605 C277 1.490 . S
C610 C305 1.489 . S
C615 C319 1.491 . S
C620 C291 1.489 . S
C625 C417 1.490 . S
C630 C347 1.490 . S
C635 C389 1.490 . S
C640 C361 1.489 . S
C645 C403 1.490 . S
C650 C375 1.490 . S
C655 C431 1.490 . S
C660 C501 1.490 . S
C665 C445 1.490 . S
C670 C473 1.489 . S
C675 C459 1.489 . S
C680 C487 1.490 . S
C685 C79 1.593 . S
C690 C9 1.593 . S
C695 C23 1.593 . S
C700 C51 1.593 . S
C705 C65 1.592 . S
C710 C37 1.593 . S
C715 C93 1.593 . S
C720 C163 1.593 . S
C725 C107 1.593 . S
C730 C135 1.593 . S
C735 C149 1.592 . S
C740 C121 1.593 . S
C745 C177 1.593 . S
C750 C247 1.593 . S
C755 C219 1.593 . S
C760 C191 1.593 . S
C765 C233 1.593 . S
C770 C205 1.593 . S
C775 C261 1.593 . S
C780 C331 1.593 . S
C785 C275 1.593 . S
C790 C303 1.593 . S
C795 C317 1.593 . S
C800 C289 1.593 . S
C805 C415 1.593 . S
C810 C345 1.593 . S
C815 C359 1.593 . S
C820 C387 1.593 . S
C825 C373 1.593 . S
C830 C401 1.593 . S
C835 C499 1.593 . S
C840 C429 1.593 . S
C845 C471 1.593 . S
C850 C443 1.593 . S
C855 C485 1.593 . S
C860 C457 1.593 . S
C865 C229 1.610 . S
C870 C5 1.610 . S
C875 C243 1.610 . S
C880 C19 1.610 . S
C885 C215 1.610 . S
C890 C33 1.610 . S
C895 C47 1.611 . S
C900 C369 1.611 . S
C905 C61 1.611 . S
C910 C341 1.611 . S
C915 C75 1.610 . S
C920 C355 1.610 . S
C925 C89 1.610 . S
C930 C481 1.610 . S
C935 C103 1.611 . S
C940 C495 1.611 . S
C945 C117 1.611 . S
C950 C467 1.611 . S
C955 C131 1.610 . S
C960 C285 1.610 . S
C965 C257 1.611 . S
C970 C145 1.611 . S
C975 C271 1.611 . S
C980 C159 1.611 . S
C985 C397 1.611 . S
C990 C173 1.611 . S
C995 C187 1.611 . S
C1000 C411 1.611 . S
C1005 C201 1.610 . S
C1010 C383 1.610 . S
C1015 C299 1.610 . S
C1020 C453 1.610 . S
C1025 C313 1.610 . S
C1030 C425 1.610 . S
C1035 C439 1.611 . S
C1040 C327 1.611 . S
C1045 C0 1.372 . S
C1050 C140 1.371 . S
C1055 C154 1.372 . S
C1060 C14 1.370 . S
C1065 C126 1.370 . S
C1070 C28 1.372 . S
C1075 C42 1.372 . S
C1080 C112 1.370 . S
C1085 C56 1.372 . S
C1090 C84 1.370 . S
C1095 C70 1.370 . S
C1100 C98 1.372 . S
C1105 C168 1.371 . S
C1110 C308 1.370 . S
C1115 C322 1.372 . S
C1120 C182 1.370 . S
C1125 C294 1.370 . S
C1130 C196 1.372 . S
C1135 C210 1.370 . S
C1140 C280 1.372 . S
C1145 C224 1.371 . S
C1150 C252 1.370 . S
C1155 C266 1.370 . S
C1160 C238 1.372 . S
C1165 C336 1.372 . S
C1170 C476 1.370 . S
C1175 C490 1.372 . S
C1180 C350 1.370 . S
C1185 C364 1.370 . S
C1190 C462 1.372 . S
C1195 C378 1.372 . S
C1200 C448 1.370 . S
C1205 C420 1.370 . S
C1210 C392 1.372 . S
C1215 C406 1.370 . S
C1220 C434 1.372 . S
