# Generated by pormake.
# Topology zni, (4)-cn, num edge types: 1
# Building blocks:
#     Node 0, Type 0, BuildingBlock: GALJAG_clean_sbu_0, # of connection points: 4
#     Node 1, Type 0, BuildingBlock: GALJAG_clean_sbu_0, # of connection points: 4
#     Node 2, Type 0, BuildingBlock: GALJAG_clean_sbu_0, # of connection points: 4
#     Node 3, Type 0, BuildingBlock: GALJAG_clean_sbu_0, # of connection points: 4
#     Node 4, Type 0, BuildingBlock: GALJAG_clean_sbu_0, # of connection points: 4
#     Node 5, Type 0, BuildingBlock: GALJAG_clean_sbu_0, # of connection points: 4
#     Node 6, Type 0, BuildingBlock: GALJAG_clean_sbu_0, # of connection points: 4
#     Node 7, Type 0, BuildingBlock: GALJAG_clean_sbu_0, # of connection points: 4
#     Node 8, Type 0, BuildingBlock: GALJAG_clean_sbu_0, # of connection points: 4
#     Node 9, Type 0, BuildingBlock: GALJAG_clean_sbu_0, # of connection points: 4
#     Node 10, Type 0, BuildingBlock: GALJAG_clean_sbu_0, # of connection points: 4
#     Node 11, Type 0, BuildingBlock: GALJAG_clean_sbu_0, # of connection points: 4
#     Node 12, Type 0, BuildingBlock: GALJAG_clean_sbu_0, # of connection points: 4
#     Node 13, Type 0, BuildingBlock: GALJAG_clean_sbu_0, # of connection points: 4
#     Node 14, Type 0, BuildingBlock: GALJAG_clean_sbu_0, # of connection points: 4
#     Node 15, Type 0, BuildingBlock: GALJAG_clean_sbu_0, # of connection points: 4
#     Node 16, Type 0, BuildingBlock: GALJAG_clean_sbu_0, # of connection points: 4
#     Node 17, Type 0, BuildingBlock: GALJAG_clean_sbu_0, # of connection points: 4
#     Node 18, Type 0, BuildingBlock: GALJAG_clean_sbu_0, # of connection points: 4
#     Node 19, Type 0, BuildingBlock: GALJAG_clean_sbu_0, # of connection points: 4
#     Node 20, Type 0, BuildingBlock: GALJAG_clean_sbu_0, # of connection points: 4
#     Node 21, Type 0, BuildingBlock: GALJAG_clean_sbu_0, # of connection points: 4
#     Node 22, Type 0, BuildingBlock: GALJAG_clean_sbu_0, # of connection points: 4
#     Node 23, Type 0, BuildingBlock: GALJAG_clean_sbu_0, # of connection points: 4
#     Node 24, Type 0, BuildingBlock: GALJAG_clean_sbu_0, # of connection points: 4
#     Node 25, Type 0, BuildingBlock: GALJAG_clean_sbu_0, # of connection points: 4
#     Node 26, Type 0, BuildingBlock: GALJAG_clean_sbu_0, # of connection points: 4
#     Node 27, Type 0, BuildingBlock: GALJAG_clean_sbu_0, # of connection points: 4
#     Node 28, Type 0, BuildingBlock: GALJAG_clean_sbu_0, # of connection points: 4
#     Node 29, Type 0, BuildingBlock: GALJAG_clean_sbu_0, # of connection points: 4
#     Node 30, Type 0, BuildingBlock: GALJAG_clean_sbu_0, # of connection points: 4
#     Node 31, Type 0, BuildingBlock: GALJAG_clean_sbu_0, # of connection points: 4
#     Edge 32, Type (0, 0), BuildingBlock: EZIPEK_clean_linker_0, # of connection points: 2
#     Edge 33, Type (0, 0), BuildingBlock: EZIPEK_clean_linker_0, # of connection points: 2
#     Edge 34, Type (0, 0), BuildingBlock: EZIPEK_clean_linker_0, # of connection points: 2
#     Edge 35, Type (0, 0), BuildingBlock: EZIPEK_clean_linker_0, # of connection points: 2
#     Edge 36, Type (0, 0), BuildingBlock: EZIPEK_clean_linker_0, # of connection points: 2
#     Edge 37, Type (0, 0), BuildingBlock: EZIPEK_clean_linker_0, # of connection points: 2
#     Edge 38, Type (0, 0), BuildingBlock: EZIPEK_clean_linker_0, # of connection points: 2
#     Edge 39, Type (0, 0), BuildingBlock: EZIPEK_clean_linker_0, # of connection points: 2
#     Edge 40, Type (0, 0), BuildingBlock: EZIPEK_clean_linker_0, # of connection points: 2
#     Edge 41, Type (0, 0), BuildingBlock: EZIPEK_clean_linker_0, # of connection points: 2
#     Edge 42, Type (0, 0), BuildingBlock: EZIPEK_clean_linker_0, # of connection points: 2
#     Edge 43, Type (0, 0), BuildingBlock: EZIPEK_clean_linker_0, # of connection points: 2
#     Edge 44, Type (0, 0), BuildingBlock: EZIPEK_clean_linker_0, # of connection points: 2
#     Edge 45, Type (0, 0), BuildingBlock: EZIPEK_clean_linker_0, # of connection points: 2
#     Edge 46, Type (0, 0), BuildingBlock: EZIPEK_clean_linker_0, # of connection points: 2
#     Edge 47, Type (0, 0), BuildingBlock: EZIPEK_clean_linker_0, # of connection points: 2
#     Edge 48, Type (0, 0), BuildingBlock: EZIPEK_clean_linker_0, # of connection points: 2
#     Edge 49, Type (0, 0), BuildingBlock: EZIPEK_clean_linker_0, # of connection points: 2
#     Edge 50, Type (0, 0), BuildingBlock: EZIPEK_clean_linker_0, # of connection points: 2
#     Edge 51, Type (0, 0), BuildingBlock: EZIPEK_clean_linker_0, # of connection points: 2
#     Edge 52, Type (0, 0), BuildingBlock: EZIPEK_clean_linker_0, # of connection points: 2
#     Edge 53, Type (0, 0), BuildingBlock: EZIPEK_clean_linker_0, # of connection points: 2
#     Edge 54, Type (0, 0), BuildingBlock: EZIPEK_clean_linker_0, # of connection points: 2
#     Edge 55, Type (0, 0), BuildingBlock: EZIPEK_clean_linker_0, # of connection points: 2
#     Edge 56, Type (0, 0), BuildingBlock: EZIPEK_clean_linker_0, # of connection points: 2
#     Edge 57, Type (0, 0), BuildingBlock: EZIPEK_clean_linker_0, # of connection points: 2
#     Edge 58, Type (0, 0), BuildingBlock: EZIPEK_clean_linker_0, # of connection points: 2
#     Edge 59, Type (0, 0), BuildingBlock: EZIPEK_clean_linker_0, # of connection points: 2
#     Edge 60, Type (0, 0), BuildingBlock: EZIPEK_clean_linker_0, # of connection points: 2
#     Edge 61, Type (0, 0), BuildingBlock: EZIPEK_clean_linker_0, # of connection points: 2
#     Edge 62, Type (0, 0), BuildingBlock: EZIPEK_clean_linker_0, # of connection points: 2
#     Edge 63, Type (0, 0), BuildingBlock: EZIPEK_clean_linker_0, # of connection points: 2
#     Edge 64, Type (0, 0), BuildingBlock: EZIPEK_clean_linker_0, # of connection points: 2
#     Edge 65, Type (0, 0), BuildingBlock: EZIPEK_clean_linker_0, # of connection points: 2
#     Edge 66, Type (0, 0), BuildingBlock: EZIPEK_clean_linker_0, # of connection points: 2
#     Edge 67, Type (0, 0), BuildingBlock: EZIPEK_clean_linker_0, # of connection points: 2
#     Edge 68, Type (0, 0), BuildingBlock: EZIPEK_clean_linker_0, # of connection points: 2
#     Edge 69, Type (0, 0), BuildingBlock: EZIPEK_clean_linker_0, # of connection points: 2
#     Edge 70, Type (0, 0), BuildingBlock: EZIPEK_clean_linker_0, # of connection points: 2
#     Edge 71, Type (0, 0), BuildingBlock: EZIPEK_clean_linker_0, # of connection points: 2
#     Edge 72, Type (0, 0), BuildingBlock: EZIPEK_clean_linker_0, # of connection points: 2
#     Edge 73, Type (0, 0), BuildingBlock: EZIPEK_clean_linker_0, # of connection points: 2
#     Edge 74, Type (0, 0), BuildingBlock: EZIPEK_clean_linker_0, # of connection points: 2
#     Edge 75, Type (0, 0), BuildingBlock: EZIPEK_clean_linker_0, # of connection points: 2
#     Edge 76, Type (0, 0), BuildingBlock: EZIPEK_clean_linker_0, # of connection points: 2
#     Edge 77, Type (0, 0), BuildingBlock: EZIPEK_clean_linker_0, # of connection points: 2
#     Edge 78, Type (0, 0), BuildingBlock: EZIPEK_clean_linker_0, # of connection points: 2
#     Edge 79, Type (0, 0), BuildingBlock: EZIPEK_clean_linker_0, # of connection points: 2
#     Edge 80, Type (0, 0), BuildingBlock: EZIPEK_clean_linker_0, # of connection points: 2
#     Edge 81, Type (0, 0), BuildingBlock: EZIPEK_clean_linker_0, # of connection points: 2
#     Edge 82, Type (0, 0), BuildingBlock: EZIPEK_clean_linker_0, # of connection points: 2
#     Edge 83, Type (0, 0), BuildingBlock: EZIPEK_clean_linker_0, # of connection points: 2
#     Edge 84, Type (0, 0), BuildingBlock: EZIPEK_clean_linker_0, # of connection points: 2
#     Edge 85, Type (0, 0), BuildingBlock: EZIPEK_clean_linker_0, # of connection points: 2
#     Edge 86, Type (0, 0), BuildingBlock: EZIPEK_clean_linker_0, # of connection points: 2
#     Edge 87, Type (0, 0), BuildingBlock: EZIPEK_clean_linker_0, # of connection points: 2
#     Edge 88, Type (0, 0), BuildingBlock: EZIPEK_clean_linker_0, # of connection points: 2
#     Edge 89, Type (0, 0), BuildingBlock: EZIPEK_clean_linker_0, # of connection points: 2
#     Edge 90, Type (0, 0), BuildingBlock: EZIPEK_clean_linker_0, # of connection points: 2
#     Edge 91, Type (0, 0), BuildingBlock: EZIPEK_clean_linker_0, # of connection points: 2
#     Edge 92, Type (0, 0), BuildingBlock: EZIPEK_clean_linker_0, # of connection points: 2
#     Edge 93, Type (0, 0), BuildingBlock: EZIPEK_clean_linker_0, # of connection points: 2
#     Edge 94, Type (0, 0), BuildingBlock: EZIPEK_clean_linker_0, # of connection points: 2
#     Edge 95, Type (0, 0), BuildingBlock: EZIPEK_clean_linker_0, # of connection points: 2
# Relax obj value: 0.235
# Max RMSD: 0.125
# Mean RMSD: 0.125
data_MOF--net-zni--node1-GALJAG_clean_sbu_0--edge1-EZIPEK_clean_linker_0
_symmetry_space_group_name_H-M    P1
_symmetry_Int_Tables_number       1
_symmetry_cell_setting            triclinic
loop_
_symmetry_equiv_pos_as_xyz
'x, y, z'
_cell_length_a     42.988953
_cell_length_b     42.98372
_cell_length_c     22.323961
_cell_angle_alpha  89.974647
_cell_angle_beta   89.962614
_cell_angle_gamma 89.970517
loop_
_atom_site_label
_atom_site_type_symbol
_atom_site_fract_x
_atom_site_fract_y
_atom_site_fract_z
_atom_type_partial_charge
In0 In 0.10526 0.10383 0.38867 0.0
O1 O 0.1324 0.08489 0.30823 0.0
O2 O 0.10099 0.05471 0.35334 0.0
C3 C 0.12079 0.16325 0.36356 0.0
C4 C 0.04307 0.10296 0.40076 0.0
C5 C 0.13148 0.09436 0.49548 0.0
O6 O 0.13725 0.14608 0.39637 0.0
O7 O 0.09744 0.15012 0.34083 0.0
O8 O 0.1065 0.1093 0.48854 0.0
O9 O 0.14333 0.0832 0.44834 0.0
C10 C 0.1199 0.05839 0.31087 0.0
O11 O 0.06105 0.09486 0.44254 0.0
O12 O 0.05627 0.11079 0.35258 0.0
In13 In 0.14895 0.85581 0.63728 0.0
O14 O 0.17337 0.86142 0.54696 0.0
O15 O 0.20092 0.86268 0.62611 0.0
C16 C 0.09011 0.87378 0.61402 0.0
C17 C 0.14815 0.79323 0.64004 0.0
C18 C 0.15617 0.88948 0.73724 0.0
O19 O 0.1131 0.88659 0.5888 0.0
O20 O 0.09681 0.85204 0.64949 0.0
O21 O 0.15243 0.86035 0.73754 0.0
O22 O 0.1574 0.90179 0.68594 0.0
C23 C 0.20019 0.86332 0.56973 0.0
O24 O 0.15716 0.80928 0.68404 0.0
O25 O 0.14001 0.8086 0.59452 0.0
In26 In 0.39036 0.89511 0.8942 0.0
O27 O 0.43668 0.89918 0.9438 0.0
O28 O 0.43781 0.88805 0.85087 0.0
C29 C 0.36587 0.9048 0.00282 0.0
C30 C 0.3746 0.94405 0.82515 0.0
C31 C 0.3738 0.83641 0.86384 0.0
O32 O 0.39247 0.89309 0.99503 0.0
O33 O 0.35147 0.9124 0.95571 0.0
O34 O 0.36148 0.85078 0.90673 0.0
O35 O 0.39364 0.85176 0.83486 0.0
C36 C 0.45293 0.89263 0.89845 0.0
O37 O 0.36018 0.91855 0.82268 0.0
O38 O 0.39632 0.94495 0.86289 0.0
In39 In 0.35815 0.14449 0.14366 0.0
O40 O 0.34254 0.12881 0.05106 0.0
O41 O 0.30773 0.14098 0.11494 0.0
C42 C 0.41807 0.12835 0.12836 0.0
C43 C 0.35574 0.2069 0.13916 0.0
C44 C 0.34838 0.11542 0.24834 0.0
O45 O 0.39609 0.11165 0.10926 0.0
O46 O 0.40983 0.15296 0.15453 0.0
O47 O 0.35449 0.14398 0.24454 0.0
O48 O 0.34598 0.10131 0.19908 0.0
C49 C 0.31403 0.13236 0.06238 0.0
O50 O 0.34322 0.19157 0.18093 0.0
O51 O 0.3688 0.19083 0.09905 0.0
In52 In 0.10145 0.90777 0.0778 0.0
O53 O 0.05267 0.91917 0.043 0.0
O54 O 0.05667 0.89263 0.12317 0.0
C55 C 0.12996 0.91867 0.97302 0.0
C56 C 0.11703 0.95561 0.14893 0.0
C57 C 0.11757 0.84846 0.10107 0.0
O58 O 0.10173 0.91096 0.97675 0.0
O59 O 0.14366 0.92245 0.02241 0.0
O60 O 0.11559 0.86863 0.14194 0.0
O61 O 0.11198 0.85819 0.049 0.0
C62 C 0.03898 0.90483 0.08474 0.0
O63 O 0.13328 0.93121 0.14597 0.0
O64 O 0.09352 0.95605 0.11527 0.0
In65 In 0.3587 0.85139 0.34792 0.0
O66 O 0.33678 0.86816 0.43511 0.0
O67 O 0.30699 0.84907 0.36827 0.0
C68 C 0.41737 0.87106 0.3674 0.0
C69 C 0.36189 0.78898 0.35622 0.0
C70 C 0.34752 0.88134 0.24435 0.0
O71 O 0.39436 0.88322 0.39353 0.0
O72 O 0.41089 0.84917 0.33212 0.0
O73 O 0.35415 0.85284 0.24716 0.0
O74 O 0.34537 0.89492 0.29421 0.0
C75 C 0.30954 0.86064 0.41988 0.0
O76 O 0.35218 0.80265 0.30985 0.0
O77 O 0.36973 0.80664 0.39876 0.0
In78 In 0.38872 0.09907 0.60198 0.0
O79 O 0.43547 0.08883 0.55743 0.0
O80 O 0.43556 0.11027 0.64349 0.0
C81 C 0.36666 0.09086 0.49114 0.0
C82 C 0.37299 0.05139 0.6744 0.0
C83 C 0.37183 0.1581 0.62836 0.0
O84 O 0.39214 0.10427 0.50182 0.0
O85 O 0.35214 0.08088 0.53645 0.0
O86 O 0.35727 0.14178 0.59097 0.0
O87 O 0.3938 0.14434 0.65455 0.0
C88 C 0.45122 0.10014 0.59984 0.0
O89 O 0.35903 0.07718 0.67662 0.0
O90 O 0.39399 0.04966 0.63535 0.0
In91 In 0.15686 0.14556 0.84311 0.0
O92 O 0.18178 0.13259 0.92923 0.0
O93 O 0.20895 0.13906 0.85006 0.0
C94 C 0.09893 0.12821 0.87571 0.0
C95 C 0.15557 0.20809 0.84829 0.0
C96 C 0.16118 0.11846 0.73552 0.0
O97 O 0.12125 0.10921 0.87541 0.0
O98 O 0.10627 0.15575 0.86338 0.0
O99 O 0.16219 0.14759 0.74213 0.0
O100 O 0.1599 0.10292 0.78331 0.0
C101 C 0.20846 0.13332 0.90549 0.0
O102 O 0.14724 0.19324 0.80217 0.0
O103 O 0.16556 0.19144 0.89074 0.0
In104 In 0.89588 0.89306 0.60824 0.0
O105 O 0.94184 0.90864 0.56621 0.0
O106 O 0.94363 0.88084 0.64511 0.0
C107 C 0.86847 0.8996 0.50121 0.0
C108 C 0.88565 0.94211 0.68037 0.0
C109 C 0.87607 0.83504 0.63413 0.0
O110 O 0.89721 0.89465 0.5073 0.0
O111 O 0.85326 0.90188 0.54942 0.0
O112 O 0.86248 0.85879 0.65469 0.0
O113 O 0.89924 0.84067 0.60144 0.0
C114 C 0.95845 0.89478 0.60439 0.0
O115 O 0.89513 0.91635 0.70018 0.0
O116 O 0.88025 0.9428 0.62499 0.0
In117 In 0.85443 0.14425 0.36923 0.0
O118 O 0.84655 0.19094 0.3243 0.0
O119 O 0.86343 0.19099 0.41425 0.0
C120 C 0.85463 0.1187 0.25973 0.0
C121 C 0.80339 0.13378 0.43584 0.0
C122 C 0.91191 0.12474 0.399 0.0
O123 O 0.85619 0.14754 0.26881 0.0
O124 O 0.85145 0.10222 0.3061 0.0
O125 O 0.88844 0.10735 0.40429 0.0
O126 O 0.90617 0.15204 0.38186 0.0
C127 C 0.85561 0.20662 0.36871 0.0
O128 O 0.83047 0.13146 0.45688 0.0
O129 O 0.80198 0.14017 0.38088 0.0
In130 In 0.61254 0.10745 0.10846 0.0
O131 O 0.63438 0.08888 0.19478 0.0
O132 O 0.61794 0.05631 0.13017 0.0
C133 C 0.62723 0.16618 0.14105 0.0
C134 C 0.55 0.10713 0.10957 0.0
C135 C 0.63424 0.09813 0.99707 0.0
O136 O 0.64499 0.14974 0.10925 0.0
O137 O 0.60319 0.1525 0.15947 0.0
O138 O 0.60576 0.10167 0.00851 0.0
O139 O 0.65191 0.09773 0.04215 0.0
C140 C 0.62982 0.06075 0.18101 0.0
O141 O 0.56545 0.12374 0.0737 0.0
O142 O 0.56597 0.08993 0.14344 0.0
In143 In 0.6429 0.84918 0.86294 0.0
O144 O 0.64336 0.80107 0.8211 0.0
O145 O 0.63571 0.80389 0.91506 0.0
C146 C 0.65098 0.86928 0.7499 0.0
C147 C 0.69036 0.86458 0.93638 0.0
C148 C 0.58434 0.86847 0.88397 0.0
O149 O 0.66441 0.8455 0.77029 0.0
O150 O 0.63512 0.88428 0.78756 0.0
O151 O 0.60733 0.88667 0.88834 0.0
O152 O 0.59094 0.8408 0.87016 0.0
C153 C 0.63827 0.78679 0.86936 0.0
O154 O 0.66234 0.86749 0.95173 0.0
O155 O 0.69444 0.85544 0.88352 0.0
In156 In 0.90533 0.0978 0.90523 0.0
O157 O 0.88903 0.07847 0.81532 0.0
O158 O 0.897 0.04643 0.88635 0.0
C159 C 0.88659 0.15684 0.88585 0.0
C160 C 0.96768 0.10199 0.89592 0.0
C161 C 0.8847 0.08831 0.01701 0.0
O162 O 0.86829 0.13409 0.87969 0.0
O163 O 0.91408 0.14968 0.89943 0.0
O164 O 0.91043 0.07784 -0.00123 0.0
O165 O 0.86836 0.10161 0.97778 0.0
C166 C 0.88984 0.05047 0.83219 0.0
O167 O 0.95365 0.10502 0.94514 0.0
O168 O 0.95034 0.09651 0.85164 0.0
In169 In 0.6394 0.14507 0.64196 0.0
O170 O 0.64829 0.1944 0.6754 0.0
O171 O 0.62688 0.18903 0.59013 0.0
C172 C 0.64728 0.11887 0.74994 0.0
C173 C 0.69111 0.13515 0.57726 0.0
C174 C 0.58197 0.12355 0.61897 0.0
O175 O 0.64039 0.14715 0.74275 0.0
O176 O 0.65074 0.10347 0.70224 0.0
O177 O 0.6058 0.11111 0.59609 0.0
O178 O 0.58714 0.14628 0.65303 0.0
C179 C 0.63677 0.20737 0.62984 0.0
O180 O 0.66436 0.13394 0.5541 0.0
O181 O 0.69159 0.14021 0.63279 0.0
In182 In 0.61068 0.89843 0.38762 0.0
O183 O 0.56315 0.90962 0.42845 0.0
O184 O 0.56448 0.88878 0.34196 0.0
C185 C 0.63006 0.89501 0.50129 0.0
C186 C 0.62571 0.9507 0.32721 0.0
C187 C 0.63004 0.84091 0.35625 0.0
O188 O 0.60308 0.8872 0.48505 0.0
O189 O 0.64762 0.90502 0.4602 0.0
O190 O 0.64838 0.86067 0.37845 0.0
O191 O 0.60316 0.85101 0.34548 0.0
C192 C 0.54807 0.8986 0.38483 0.0
O193 O 0.62705 0.92419 0.3032 0.0
O194 O 0.61826 0.95058 0.38166 0.0
In195 In 0.85227 0.85675 0.14799 0.0
O196 O 0.82616 0.86495 0.06026 0.0
O197 O 0.80011 0.86454 0.14127 0.0
C198 C 0.90931 0.87821 0.11942 0.0
C199 C 0.85357 0.79426 0.1415 0.0
C200 C 0.84685 0.8825 0.25678 0.0
O201 O 0.8849 0.89187 0.10223 0.0
O202 O 0.90495 0.85416 0.15042 0.0
O203 O 0.85287 0.8541 0.24871 0.0
O204 O 0.84295 0.89827 0.20962 0.0
C205 C 0.79983 0.86663 0.08502 0.0
O206 O 0.84445 0.80853 0.18759 0.0
O207 O 0.86165 0.81135 0.09827 0.0
In208 In 0.59759 0.59608 0.90212 0.0
O209 O 0.54934 0.58385 0.93828 0.0
O210 O 0.55234 0.60946 0.85678 0.0
C211 C 0.62813 0.58682 0.00516 0.0
C212 C 0.60738 0.54774 0.82847 0.0
C213 C 0.61611 0.65506 0.88554 0.0
O214 O 0.59934 0.59245 0.00261 0.0
O215 O 0.64156 0.58462 0.95507 0.0
O216 O 0.62867 0.63278 0.85763 0.0
O217 O 0.59458 0.64764 0.92094 0.0
C218 C 0.53516 0.59726 0.89605 0.0
O219 O 0.60712 0.57547 0.80983 0.0
O220 O 0.60394 0.54459 0.8842 0.0
In221 In 0.65101 0.36141 0.15489 0.0
O222 O 0.67354 0.38706 0.076 0.0
O223 O 0.69981 0.35228 0.12139 0.0
C224 C 0.59097 0.37526 0.13392 0.0
C225 C 0.64458 0.29918 0.15541 0.0
C226 C 0.66768 0.39485 0.25233 0.0
O227 O 0.61203 0.38057 0.09578 0.0
O228 O 0.60021 0.36345 0.18248 0.0
O229 O 0.67424 0.36648 0.24552 0.0
O230 O 0.65243 0.4063 0.20948 0.0
C231 C 0.69873 0.37216 0.08011 0.0
O232 O 0.64953 0.31446 0.20268 0.0
O233 O 0.64274 0.31518 0.10815 0.0
In234 In 0.89592 0.3977 0.39123 0.0
O235 O 0.94462 0.40989 0.42178 0.0
O236 O 0.93962 0.38752 0.33682 0.0
C237 C 0.87651 0.399 0.50557 0.0
C238 C 0.8788 0.44599 0.32156 0.0
C239 C 0.87857 0.33847 0.37081 0.0
O240 O 0.90472 0.39827 0.49079 0.0
O241 O 0.85763 0.401 0.4626 0.0
O242 O 0.85959 0.36078 0.36721 0.0
O243 O 0.90624 0.34613 0.3818 0.0
C244 C 0.95771 0.39851 0.37614 0.0
O245 O 0.87243 0.41822 0.30853 0.0
O246 O 0.89258 0.44947 0.37086 0.0
In247 In 0.84843 0.64202 0.6568 0.0
O248 O 0.86783 0.68805 0.69233 0.0
O249 O 0.82855 0.68986 0.63484 0.0
C250 C 0.83462 0.61352 0.76039 0.0
C251 C 0.80571 0.62786 0.57417 0.0
C252 C 0.90712 0.62619 0.62665 0.0
O253 O 0.84246 0.64176 0.75778 0.0
O254 O 0.83212 0.6 0.71054 0.0
O255 O 0.89143 0.61102 0.66424 0.0
O256 O 0.89277 0.64826 0.60179 0.0
C257 C 0.84873 0.70471 0.66396 0.0
O258 O 0.83434 0.62304 0.56529 0.0
O259 O 0.79873 0.63856 0.62499 0.0
In260 In 0.60065 0.39895 0.58376 0.0
O261 O 0.55246 0.40846 0.54462 0.0
O262 O 0.55534 0.38668 0.63026 0.0
C263 C 0.6342 0.41213 0.48537 0.0
C264 C 0.60892 0.44524 0.66232 0.0
C265 C 0.61744 0.3393 0.601 0.0
O266 O 0.60597 0.40437 0.48331 0.0
O267 O 0.64547 0.41435 0.53727 0.0
O268 O 0.62951 0.36129 0.63031 0.0
O269 O 0.59742 0.34736 0.5629 0.0
C270 C 0.53823 0.39672 0.58865 0.0
O271 O 0.61718 0.41767 0.67352 0.0
O272 O 0.59713 0.44962 0.61131 0.0
In273 In 0.85727 0.35091 0.86582 0.0
O274 O 0.83246 0.36373 0.95278 0.0
O275 O 0.806 0.36316 0.87225 0.0
C276 C 0.91422 0.3725 0.89545 0.0
C277 C 0.8608 0.28846 0.87446 0.0
C278 C 0.85132 0.36931 0.75178 0.0
O279 O 0.89082 0.39014 0.89271 0.0
O280 O 0.90863 0.34417 0.88659 0.0
O281 O 0.84301 0.3427 0.7694 0.0
O282 O 0.8611 0.38728 0.79217 0.0
C283 C 0.80622 0.36682 0.92823 0.0
O284 O 0.86939 0.30317 0.82847 0.0
O285 O 0.85008 0.30516 0.91619 0.0
In286 In 0.8855 0.60241 0.09694 0.0
O287 O 0.93241 0.60798 0.05048 0.0
O288 O 0.93126 0.60926 0.14596 0.0
C289 C 0.85355 0.58552 -0.0022 0.0
C290 C 0.87462 0.55356 0.16921 0.0
C291 C 0.87073 0.66187 0.12025 0.0
O292 O 0.88166 0.57841 0.00645 0.0
O293 O 0.84188 0.60159 0.03922 0.0
O294 O 0.86427 0.64022 0.15653 0.0
O295 O 0.88414 0.65345 0.07277 0.0
C296 C 0.94743 0.61093 0.09878 0.0
O297 O 0.8568 0.57691 0.16827 0.0
O298 O 0.89741 0.55502 0.13386 0.0
In299 In 0.65166 0.64543 0.34642 0.0
O300 O 0.67533 0.63216 0.43399 0.0
O301 O 0.70382 0.64043 0.35741 0.0
C302 C 0.59228 0.62931 0.37159 0.0
C303 C 0.65131 0.70797 0.35099 0.0
C304 C 0.65687 0.6153 0.24198 0.0
O305 O 0.61481 0.61162 0.38391 0.0
O306 O 0.59994 0.65487 0.34859 0.0
O307 O 0.65522 0.64454 0.24535 0.0
O308 O 0.65742 0.60118 0.29146 0.0
C309 C 0.70241 0.63368 0.41229 0.0
O310 O 0.65504 0.69328 0.3025 0.0
O311 O 0.64872 0.69117 0.39718 0.0
In312 In 0.39618 0.39629 0.09537 0.0
O313 O 0.38578 0.41763 0.18683 0.0
O314 O 0.3921 0.44816 0.11263 0.0
C315 C 0.37529 0.3383 0.11524 0.0
C316 C 0.45866 0.39302 0.10433 0.0
C317 C 0.36694 0.40578 0.99069 0.0
O318 O 0.3634 0.36159 0.14115 0.0
O319 O 0.3971 0.34434 0.07937 0.0
O320 O 0.39549 0.39919 0.99423 0.0
O321 O 0.35311 0.40863 0.04025 0.0
C322 C 0.38722 0.44527 0.16799 0.0
O323 O 0.44535 0.40825 0.06334 0.0
O324 O 0.44062 0.37968 0.14066 0.0
In325 In 0.34758 0.64199 0.83585 0.0
O326 O 0.32197 0.62954 0.9221 0.0
O327 O 0.29524 0.64433 0.84688 0.0
C328 C 0.405 0.62173 0.8637 0.0
C329 C 0.35276 0.70438 0.84031 0.0
C330 C 0.33956 0.60906 0.73488 0.0
O331 O 0.38103 0.61053 0.88825 0.0
O332 O 0.39996 0.64273 0.82563 0.0
O333 O 0.34629 0.6376 0.73491 0.0
O334 O 0.33577 0.59711 0.78595 0.0
C335 C 0.29545 0.63552 0.90075 0.0
O336 O 0.34376 0.69035 0.7938 0.0
O337 O 0.3588 0.68708 0.88449 0.0
In338 In 0.10212 0.60579 0.5975 0.0
O339 O 0.1128 0.58132 0.68538 0.0
O340 O 0.11055 0.55353 0.60677 0.0
C341 C 0.12454 0.66232 0.62614 0.0
C342 C 0.03988 0.60787 0.60732 0.0
C343 C 0.12208 0.60641 0.48385 0.0
O344 O 0.14128 0.63824 0.62951 0.0
O345 O 0.09686 0.65769 0.61039 0.0
O346 O 0.09383 0.6086 0.49817 0.0
O347 O 0.14072 0.60267 0.52693 0.0
C348 C 0.11419 0.55455 0.66269 0.0
O349 O 0.0533 0.59578 0.56273 0.0
O350 O 0.05778 0.61819 0.64747 0.0
In351 In 0.14829 0.35759 0.33842 0.0
O352 O 0.15407 0.30831 0.30332 0.0
O353 O 0.1335 0.31421 0.38946 0.0
C354 C 0.16191 0.38559 0.23406 0.0
C355 C 0.19602 0.36535 0.41433 0.0
C356 C 0.08941 0.37746 0.35316 0.0
O357 O 0.15476 0.35731 0.2384 0.0
O358 O 0.16367 0.39996 0.28318 0.0
O359 O 0.11168 0.38894 0.38259 0.0
O360 O 0.09681 0.35649 0.31656 0.0
C361 C 0.14198 0.29569 0.34872 0.0
O362 O 0.1694 0.37642 0.42492 0.0
O363 O 0.19872 0.35097 0.36544 0.0
In364 In 0.39822 0.59781 0.40422 0.0
O365 O 0.38172 0.57643 0.31633 0.0
O366 O 0.40047 0.54625 0.38318 0.0
C367 C 0.38121 0.65703 0.38312 0.0
C368 C 0.46052 0.60479 0.39815 0.0
C369 C 0.36496 0.58076 0.50149 0.0
O370 O 0.3714 0.63481 0.35131 0.0
O371 O 0.39905 0.64939 0.42538 0.0
O372 O 0.3939 0.57636 0.49687 0.0
O373 O 0.35307 0.59434 0.45701 0.0
C374 C 0.38916 0.54909 0.33136 0.0
O375 O 0.44583 0.60709 0.44692 0.0
O376 O 0.44382 0.5987 0.35333 0.0
In377 In 0.13931 0.65405 0.12359 0.0
O378 O 0.14277 0.70149 0.16807 0.0
O379 O 0.13292 0.70015 0.07454 0.0
C380 C 0.14616 0.63394 0.23651 0.0
C381 C 0.18608 0.63734 0.04949 0.0
C382 C 0.07934 0.63783 0.10649 0.0
O383 O 0.1568 0.65962 0.21854 0.0
O384 O 0.1336 0.61736 0.19671 0.0
O385 O 0.10065 0.61778 0.11194 0.0
O386 O 0.08848 0.66566 0.1074 0.0
C387 C 0.13708 0.71649 0.12082 0.0
O388 O 0.15806 0.63669 0.03334 0.0
O389 O 0.19041 0.64506 0.10306 0.0
In390 In 0.10787 0.39775 0.88978 0.0
O391 O 0.11103 0.41895 0.79605 0.0
O392 O 0.11733 0.44879 0.87097 0.0
C393 C 0.12762 0.33915 0.86835 0.0
C394 C 0.04542 0.39726 0.89714 0.0
C395 C 0.13777 0.40578 0.99374 0.0
O396 O 0.14356 0.36253 0.8533 0.0
O397 O 0.1019 0.34548 0.89233 0.0
O398 O 0.10879 0.40159 0.99049 0.0
O399 O 0.15189 0.40692 0.9442 0.0
C400 C 0.11564 0.44619 0.81493 0.0
O401 O 0.06227 0.40847 0.93807 0.0
O402 O 0.05993 0.3871 0.85202 0.0
In403 In 0.34978 0.35364 0.64753 0.0
O404 O 0.34409 0.30526 0.68847 0.0
O405 O 0.36047 0.30835 0.5987 0.0
C406 C 0.3413 0.38427 0.75132 0.0
C407 C 0.29955 0.3622 0.57782 0.0
C408 C 0.40793 0.3729 0.62217 0.0
O409 O 0.34622 0.35543 0.74834 0.0
O410 O 0.33944 0.39794 0.70144 0.0
O411 O 0.38437 0.38503 0.59788 0.0
O412 O 0.40222 0.35152 0.65908 0.0
C413 C 0.35338 0.29109 0.64235 0.0
O414 O 0.32681 0.36719 0.55932 0.0
O415 O 0.29751 0.35358 0.63166 0.0
C416 C 0.12111 0.03811 0.20511 0.0
C417 C 0.12599 0.03326 0.26731 0.0
C418 C 0.12842 0.97701 0.25155 0.0
C419 C 0.12431 0.9819 0.18914 0.0
N420 N 0.12661 0.01707 0.10506 0.0
N421 N 0.14393 0.99953 0.34634 0.0
C422 C 0.12392 0.0125 0.16544 0.0
C423 C 0.13288 0.00312 0.28936 0.0
N424 N 0.11174 0.06649 0.18409 0.0
N425 N 0.1259 0.94786 0.27559 0.0
H426 H 0.14811 0.01837 0.3747 0.0
H427 H 0.15206 0.97837 0.36294 0.0
H428 H 0.12166 0.92798 0.25026 0.0
H429 H 0.12522 0.94373 0.32157 0.0
H430 H 0.10439 0.07009 0.14016 0.0
H431 H 0.10869 0.08591 0.21132 0.0
H432 H 0.1293 0.03899 0.08579 0.0
H433 H 0.12958 0.99877 0.07488 0.0
C434 C 0.23249 0.8865 0.48734 0.0
C435 C 0.22891 0.86388 0.53316 0.0
C436 C 0.28065 0.84283 0.51061 0.0
C437 C 0.28268 0.86316 0.46075 0.0
N438 N 0.25992 0.90258 0.39753 0.0
N439 N 0.24721 0.81707 0.58211 0.0
C440 C 0.25835 0.88443 0.44777 0.0
C441 C 0.25246 0.84128 0.54357 0.0
N442 N 0.212 0.91077 0.48344 0.0
N443 N 0.30554 0.82473 0.5263 0.0
H444 H 0.2268 0.81441 0.60669 0.0
H445 H 0.26186 0.79787 0.58574 0.0
H446 H 0.32605 0.82363 0.50149 0.0
H447 H 0.30679 0.81245 0.56645 0.0
H448 H 0.21509 0.9297 0.45496 0.0
H449 H 0.19328 0.91354 0.51269 0.0
H450 H 0.24131 0.91569 0.38162 0.0
H451 H 0.27936 0.90317 0.36953 0.0
C452 C 0.36726 0.02786 0.77728 0.0
C453 C 0.36597 0.02473 0.71403 0.0
C454 C 0.36664 0.96801 0.7233 0.0
C455 C 0.36734 0.97109 0.7866 0.0
N456 N 0.35841 0.00324 0.87342 0.0
N457 N 0.35433 0.99255 0.62858 0.0
C458 C 0.36437 0.00085 0.81345 0.0
C459 C 0.36226 0.99497 0.68767 0.0
N460 N 0.37334 0.05607 0.80295 0.0
N461 N 0.37235 0.93992 0.69676 0.0
H462 H 0.35021 0.01198 0.60165 0.0
H463 H 0.34855 0.97151 0.60827 0.0
H464 H 0.37663 0.91954 0.72061 0.0
H465 H 0.37561 0.93736 0.65077 0.0
H466 H 0.37815 0.05875 0.8484 0.0
H467 H 0.37613 0.07652 0.77853 0.0
H468 H 0.35319 0.02426 0.8944 0.0
H469 H 0.35534 0.98382 0.90088 0.0
C470 C 0.24193 0.10518 0.97961 0.0
C471 C 0.23719 0.13109 0.94131 0.0
C472 C 0.28719 0.15304 0.97206 0.0
C473 C 0.28969 0.12957 0.01639 0.0
N474 N 0.26926 0.08399 0.06549 0.0
N475 N 0.25246 0.18268 0.90917 0.0
C476 C 0.267 0.10578 0.02106 0.0
C477 C 0.25921 0.15569 0.93902 0.0
N478 N 0.22312 0.07965 0.9749 0.0
N479 N 0.31126 0.17318 0.96206 0.0
H480 H 0.23165 0.18656 0.88651 0.0
H481 H 0.26612 0.20264 0.91202 0.0
H482 H 0.3318 0.17299 0.98678 0.0
H483 H 0.31195 0.1884 0.92576 0.0
H484 H 0.22718 0.05887 -0.00245 0.0
H485 H 0.20496 0.07821 0.94406 0.0
H486 H 0.25157 0.06835 0.07585 0.0
H487 H 0.28834 0.08259 0.09424 0.0
C488 C 0.86378 0.97353 0.76524 0.0
C489 C 0.88531 0.97053 0.71739 0.0
C490 C 0.90936 0.02027 0.74406 0.0
C491 C 0.88687 0.02409 0.79014 0.0
N492 N 0.83997 0.00734 0.83952 0.0
N493 N 0.92653 0.99203 0.65635 0.0
C494 C 0.86332 0.00148 0.79943 0.0
C495 C 0.90726 0.99434 0.70502 0.0
N496 N 0.84396 0.94956 0.77814 0.0
N497 N 0.93406 0.04025 0.74007 0.0
H498 H 0.92844 0.97212 0.63 0.0
H499 H 0.9396 0.01054 0.63987 0.0
H500 H 0.93666 0.05973 0.76716 0.0
H501 H 0.95342 0.03635 0.71307 0.0
H502 H 0.83017 0.94866 0.81644 0.0
H503 H 0.84247 0.92951 0.752 0.0
H504 H 0.8204 0.99335 0.84456 0.0
H505 H 0.83886 0.02775 0.86473 0.0
C506 C 0.77019 0.15739 0.51538 0.0
C507 C 0.77539 0.1329 0.47395 0.0
C508 C 0.7264 0.10822 0.50405 0.0
C509 C 0.71997 0.13414 0.54138 0.0
N510 N 0.73259 0.18637 0.57336 0.0
N511 N 0.75757 0.08664 0.42345 0.0
C512 C 0.74108 0.15946 0.54491 0.0
C513 C 0.75314 0.10884 0.46647 0.0
N514 N 0.79295 0.17888 0.52641 0.0
N515 N 0.70779 0.08246 0.5066 0.0
H516 H 0.77775 0.08523 0.39762 0.0
H517 H 0.74055 0.07071 0.41089 0.0
H518 H 0.68831 0.08098 0.53433 0.0
H519 H 0.71301 0.06158 0.48524 0.0
H520 H 0.79192 0.19472 0.56165 0.0
H521 H 0.81398 0.17968 0.50329 0.0
H522 H 0.74541 0.20689 0.57102 0.0
H523 H 0.71121 0.18943 0.59454 0.0
C524 C 0.65511 0.98554 0.25635 0.0
C525 C 0.62859 0.97997 0.29275 0.0
C526 C 0.60791 0.03136 0.26698 0.0
C527 C 0.63219 0.03511 0.22465 0.0
N528 N 0.67772 0.01528 0.17469 0.0
N529 N 0.57648 0.99486 0.32245 0.0
C530 C 0.65551 0.01204 0.21808 0.0
C531 C 0.60421 0.00226 0.29587 0.0
N532 N 0.68024 0.96614 0.25987 0.0
N533 N 0.58799 0.05538 0.279 0.0
H534 H 0.57176 0.97321 0.34138 0.0
H535 H 0.5568 0.00894 0.31993 0.0
H536 H 0.58918 0.0769 0.25765 0.0
H537 H 0.57208 0.05495 0.31421 0.0
H538 H 0.70138 0.97063 0.23876 0.0
H539 H 0.68095 0.94689 0.28828 0.0
H540 H 0.69315 0.99764 0.16286 0.0
H541 H 0.67958 0.03518 0.14814 0.0
C542 C 0.73951 0.89076 0.96944 0.0
C543 C 0.71652 0.86759 0.97881 0.0
C544 C 0.74819 0.84382 0.05773 0.0
C545 C 0.77055 0.86786 0.05039 0.0
N546 N 0.78514 0.91731 0.00794 0.0
N547 N 0.69627 0.82486 0.0376 0.0
C548 C 0.76558 0.89222 0.00857 0.0
C549 C 0.71988 0.84522 0.02517 0.0
N550 N 0.73654 0.91116 0.92277 0.0
N551 N 0.75484 0.81845 0.09257 0.0
H552 H 0.67602 0.82318 0.01226 0.0
H553 H 0.69574 0.81095 0.0758 0.0
H554 H 0.77536 0.81597 0.11687 0.0
H555 H 0.74132 0.79838 0.0934 0.0
H556 H 0.75423 0.92605 0.90889 0.0
H557 H 0.7168 0.9121 0.89566 0.0
H558 H 0.78113 0.93729 0.98275 0.0
H559 H 0.80413 0.91937 0.03674 0.0
C560 C 0.58843 0.47045 0.75467 0.0
C561 C 0.6104 0.47021 0.70734 0.0
C562 C 0.63323 0.51866 0.74458 0.0
C563 C 0.60897 0.52076 0.78756 0.0
N564 N 0.55977 0.50172 0.82559 0.0
N565 N 0.6519 0.49505 0.65263 0.0
C566 C 0.58567 0.49737 0.79089 0.0
C567 C 0.63224 0.49467 0.7008 0.0
N568 N 0.57003 0.44505 0.76494 0.0
N569 N 0.65789 0.53869 0.74726 0.0
H570 H 0.65296 0.47701 0.62142 0.0
H571 H 0.66577 0.51406 0.64154 0.0
H572 H 0.65989 0.55598 0.7798 0.0
H573 H 0.67776 0.53639 0.72093 0.0
H574 H 0.55619 0.44261 0.80298 0.0
H575 H 0.57037 0.42521 0.73811 0.0
H576 H 0.54044 0.48715 0.8241 0.0
H577 H 0.55596 0.52152 0.85146 0.0
C578 C 0.77414 0.39568 0.00401 0.0
C579 C 0.77729 0.37053 0.96324 0.0
C580 C 0.72514 0.35215 0.98941 0.0
C581 C 0.72387 0.37457 0.03566 0.0
N582 N 0.74724 0.4166 0.09083 0.0
N583 N 0.75808 0.32151 0.92466 0.0
C584 C 0.74832 0.39621 0.0439 0.0
C585 C 0.75327 0.34802 0.95733 0.0
N586 N 0.79532 0.41938 0.00338 0.0
N587 N 0.69941 0.33475 0.97624 0.0
H588 H 0.77885 0.31651 0.90259 0.0
H589 H 0.74262 0.30286 0.92437 0.0
H590 H 0.67843 0.33702 -0.00063 0.0
H591 H 0.69794 0.32032 0.93888 0.0
H592 H 0.79276 0.43977 0.02806 0.0
H593 H 0.81424 0.4199 0.97408 0.0
H594 H 0.76592 0.43051 0.10355 0.0
H595 H 0.72807 0.41832 0.11936 0.0
C596 C 0.88001 0.47032 0.21883 0.0
C597 C 0.87264 0.47249 0.28076 0.0
C598 C 0.86386 0.52851 0.2697 0.0
C599 C 0.86945 0.52581 0.20721 0.0
N600 N 0.8718 0.49235 0.12054 0.0
N601 N 0.84826 0.50176 0.3603 0.0
C602 C 0.87382 0.49607 0.18121 0.0
C603 C 0.86154 0.50101 0.30469 0.0
N604 N 0.89506 0.44486 0.19623 0.0
N605 N 0.86267 0.55704 0.29659 0.0
H606 H 0.84502 0.48181 0.3862 0.0
H607 H 0.83735 0.52147 0.37758 0.0
H608 H 0.86516 0.57792 0.27344 0.0
H609 H 0.86203 0.55986 0.34294 0.0
H610 H 0.90345 0.44395 0.15245 0.0
H611 H 0.90244 0.42617 0.22226 0.0
H612 H 0.87219 0.47058 0.09997 0.0
H613 H 0.86605 0.51058 0.09169 0.0
C614 C 0.75238 0.65516 0.4517 0.0
C615 C 0.73056 0.6304 0.44957 0.0
C616 C 0.75984 0.60214 0.52641 0.0
C617 C 0.78233 0.6262 0.52616 0.0
N618 N 0.80392 0.67222 0.48017 0.0
N619 N 0.71656 0.57769 0.47507 0.0
C620 C 0.77998 0.65147 0.48563 0.0
C621 C 0.73515 0.60306 0.48411 0.0
N622 N 0.74576 0.68307 0.42501 0.0
N623 N 0.76181 0.57877 0.5678 0.0
H624 H 0.69862 0.5774 0.44362 0.0
H625 H 0.72059 0.55609 0.49472 0.0
H626 H 0.78052 0.5766 0.59728 0.0
H627 H 0.7442 0.56258 0.57508 0.0
H628 H 0.7592 0.70299 0.43089 0.0
H629 H 0.72519 0.68749 0.40183 0.0
H630 H 0.80487 0.68914 0.44679 0.0
H631 H 0.82423 0.67086 0.50547 0.0
C632 C 0.3593 0.48134 0.2381 0.0
C633 C 0.38715 0.47226 0.20876 0.0
C634 C 0.41635 0.51232 0.26264 0.0
C635 C 0.38819 0.52279 0.28899 0.0
N636 N 0.33242 0.52015 0.29814 0.0
N637 N 0.44131 0.48155 0.18566 0.0
C638 C 0.35947 0.50816 0.27554 0.0
C639 C 0.4154 0.48853 0.21872 0.0
N640 N 0.33284 0.46414 0.23049 0.0
N641 N 0.44418 0.52464 0.28057 0.0
H642 H 0.44231 0.46336 0.15492 0.0
H643 H 0.46135 0.49513 0.18539 0.0
H644 H 0.446 0.54297 0.31079 0.0
H645 H 0.46569 0.51525 0.26901 0.0
H646 H 0.31264 0.46733 0.25544 0.0
H647 H 0.33154 0.44529 0.20116 0.0
H648 H 0.31039 0.51272 0.28525 0.0
H649 H 0.33189 0.53903 0.32747 0.0
C650 C 0.23139 0.60828 0.0063 0.0
C651 C 0.21217 0.63507 0.00692 0.0
C652 C 0.24888 0.66261 0.94229 0.0
C653 C 0.26688 0.63506 0.93749 0.0
N654 N 0.27288 0.58011 0.95633 0.0
N655 N 0.19923 0.6857 0.96699 0.0
C656 C 0.25753 0.6074 0.96721 0.0
C657 C 0.21974 0.6615 0.97183 0.0
N658 N 0.22484 0.5839 0.04357 0.0
N659 N 0.26053 0.69034 0.9222 0.0
H660 H 0.17791 0.68628 0.98916 0.0
H661 H 0.20213 0.70398 0.93686 0.0
H662 H 0.28259 0.69254 0.90328 0.0
H663 H 0.24988 0.7117 0.93017 0.0
H664 H 0.23989 0.56524 0.05031 0.0
H665 H 0.20504 0.58325 0.07061 0.0
H666 H 0.26528 0.55859 0.97194 0.0
H667 H 0.29186 0.57854 0.92735 0.0
C668 C 0.09072 0.49534 0.77964 0.0
C669 C 0.11549 0.47358 0.77503 0.0
C670 C 0.1403 0.50552 0.69742 0.0
C671 C 0.1147 0.52627 0.70003 0.0
N672 N 0.06239 0.53751 0.7329 0.0
N673 N 0.16202 0.45544 0.72567 0.0
C674 C 0.08906 0.52031 0.73832 0.0
C675 C 0.13967 0.47782 0.73243 0.0
N676 N 0.06868 0.49224 0.82352 0.0
N677 N 0.16568 0.51298 0.66336 0.0
H678 H 0.16338 0.43578 0.75293 0.0
H679 H 0.17822 0.45537 0.691 0.0
H680 H 0.16674 0.53299 0.63697 0.0
H681 H 0.18651 0.50064 0.66423 0.0
H682 H 0.05265 0.50958 0.834 0.0
H683 H 0.06743 0.47323 0.85234 0.0
H684 H 0.04164 0.53198 0.75449 0.0
H685 H 0.05987 0.55565 0.70226 0.0
C686 C 0.22663 0.33865 0.49358 0.0
C687 C 0.22123 0.36572 0.4589 0.0
C688 C 0.26487 0.39197 0.50791 0.0
C689 C 0.27223 0.36377 0.53785 0.0
N690 N 0.26368 0.3086 0.55095 0.0
N691 N 0.23643 0.41709 0.4273 0.0
C692 C 0.25396 0.33666 0.52884 0.0
C693 C 0.24065 0.39217 0.46451 0.0
N694 N 0.20536 0.31498 0.49344 0.0
N695 N 0.28028 0.41874 0.52249 0.0
H696 H 0.21837 0.41827 0.39617 0.0
H697 H 0.25196 0.4356 0.42437 0.0
H698 H 0.29788 0.41951 0.55461 0.0
H699 H 0.27393 0.44062 0.50666 0.0
H700 H 0.20628 0.29622 0.52292 0.0
H701 H 0.1852 0.3154 0.46749 0.0
H702 H 0.25306 0.28754 0.5404 0.0
H703 H 0.28424 0.30578 0.57508 0.0
C704 C 0.10231 0.21809 0.37535 0.0
C705 C 0.12625 0.19707 0.35847 0.0
C706 C 0.16177 0.24082 0.34257 0.0
C707 C 0.13674 0.26177 0.35249 0.0
N708 N 0.08146 0.26999 0.36518 0.0
N709 N 0.17721 0.18833 0.31638 0.0
C710 C 0.1065 0.25034 0.36521 0.0
C711 C 0.1556 0.20839 0.33936 0.0
N712 N 0.07617 0.20753 0.40378 0.0
N713 N 0.19158 0.25173 0.33886 0.0
H714 H 0.17332 0.16446 0.3125 0.0
H715 H 0.19774 0.1957 0.29607 0.0
H716 H 0.1972 0.27523 0.34294 0.0
H717 H 0.21099 0.23723 0.33773 0.0
H718 H 0.05964 0.22234 0.4226 0.0
H719 H 0.07249 0.1842 0.41437 0.0
H720 H 0.05857 0.26218 0.36809 0.0
H721 H 0.08315 0.2937 0.35593 0.0
C722 C 0.00989 0.9053 0.65171 0.0
C723 C 0.99283 0.8943 0.60178 0.0
C724 C 0.04138 0.87804 0.55297 0.0
C725 C 0.05763 0.88447 0.60678 0.0
N726 N 0.05774 0.90316 0.70875 0.0
N727 N 0.9915 0.86794 0.50628 0.0
C728 C 0.04201 0.89798 0.65647 0.0
C729 C 0.00836 0.88055 0.55219 0.0
N730 N 0.99549 0.92346 0.6937 0.0
N731 N 0.05743 0.869 0.50304 0.0
H732 H 0.96731 0.86892 0.50407 0.0
H733 H 0.00122 0.85437 0.47248 0.0
H734 H 0.08147 0.86577 0.50272 0.0
H735 H 0.04736 0.86714 0.4608 0.0
H736 H 0.00725 0.93476 0.72813 0.0
H737 H 0.97208 0.92976 0.69075 0.0
H738 H 0.04692 0.90934 0.74875 0.0
H739 H 0.08161 0.89955 0.71314 0.0
C740 C 0.39286 0.78159 0.86767 0.0
C741 C 0.36864 0.80285 0.85395 0.0
C742 C 0.33345 0.75953 0.8314 0.0
C743 C 0.35826 0.73836 0.84191 0.0
N744 N 0.41321 0.72945 0.85618 0.0
N745 N 0.31768 0.81305 0.8138 0.0
C746 C 0.38845 0.74945 0.85609 0.0
C747 C 0.33941 0.7921 0.83318 0.0
N748 N 0.41962 0.79189 0.89419 0.0
N749 N 0.30399 0.74856 0.82221 0.0
H750 H 0.3213 0.83705 0.81495 0.0
H751 H 0.29719 0.80672 0.79219 0.0
H752 H 0.29875 0.72493 0.81959 0.0
H753 H 0.28435 0.76272 0.82132 0.0
H754 H 0.43646 0.77704 0.91175 0.0
H755 H 0.42394 0.81527 0.90345 0.0
H756 H 0.43622 0.73675 0.8599 0.0
H757 H 0.41116 0.70582 0.84642 0.0
C758 C 0.46483 0.11371 0.06662 0.0
C759 C 0.45114 0.11941 0.12345 0.0
C760 C 0.50233 0.1174 0.17099 0.0
C761 C 0.51584 0.10967 0.11489 0.0
N762 N 0.50932 0.09363 0.01214 0.0
N763 N 0.45558 0.11844 0.23123 0.0
C764 C 0.49688 0.10574 0.06347 0.0
C765 C 0.46951 0.11868 0.17614 0.0
N766 N 0.44774 0.11745 0.01549 0.0
N767 N 0.52069 0.12538 0.21858 0.0
H768 H 0.4315 0.11873 0.23692 0.0
H769 H 0.46775 0.11466 0.27092 0.0
H770 H 0.54491 0.12598 0.21667 0.0
H771 H 0.51184 0.13447 0.25835 0.0
H772 H 0.45745 0.11698 0.97274 0.0
H773 H 0.4243 0.12366 0.01566 0.0
H774 H 0.49596 0.08732 0.97519 0.0
H775 H 0.53261 0.08705 0.00858 0.0
C776 C 0.10776 0.76435 0.15006 0.0
C777 C 0.13358 0.75062 0.12044 0.0
C778 C 0.1519 0.80207 0.08893 0.0
C779 C 0.12438 0.81536 0.11283 0.0
N780 N 0.07447 0.80952 0.16106 0.0
N781 N 0.17981 0.75535 0.0599 0.0
C782 C 0.10203 0.7967 0.1428 0.0
C783 C 0.15556 0.7692 0.0893 0.0
N784 N 0.08848 0.74644 0.18459 0.0
N785 N 0.17495 0.82108 0.06788 0.0
H786 H 0.18454 0.7316 0.06287 0.0
H787 H 0.19444 0.76701 0.03029 0.0
H788 H 0.17318 0.84529 0.06852 0.0
H789 H 0.19682 0.81327 0.05471 0.0
H790 H 0.07174 0.7556 0.21332 0.0
H791 H 0.09031 0.72231 0.18764 0.0
H792 H 0.0556 0.79657 0.17624 0.0
H793 H 0.06943 0.83315 0.15721 0.0
C794 C 0.4965 0.90688 0.33551 0.0
C795 C 0.51377 0.8953 0.38484 0.0
C796 C 0.46588 0.87425 0.42898 0.0
C797 C 0.44968 0.88193 0.37573 0.0
N798 N 0.44959 0.90337 0.27584 0.0
N799 N 0.51584 0.86379 0.47459 0.0
C800 C 0.46499 0.89771 0.32829 0.0
C801 C 0.49869 0.87824 0.4311 0.0
N802 N 0.51002 0.92738 0.29654 0.0
N803 N 0.45003 0.86263 0.47714 0.0
H804 H 0.54 0.86499 0.47699 0.0
H805 H 0.50643 0.84814 0.50525 0.0
H806 H 0.4262 0.85809 0.4764 0.0
H807 H 0.45999 0.85986 0.51933 0.0
H808 H 0.4978 0.93908 0.26317 0.0
H809 H 0.53291 0.93504 0.30115 0.0
H810 H 0.46048 0.91143 0.23715 0.0
H811 H 0.42615 0.89809 0.26967 0.0
C812 C 0.33819 0.20385 0.655 0.0
C813 C 0.36692 0.19201 0.63372 0.0
C814 C 0.38764 0.24487 0.62577 0.0
C815 C 0.35793 0.25695 0.64088 0.0
N816 N 0.30354 0.24824 0.66213 0.0
N817 N 0.41681 0.20122 0.58697 0.0
C818 C 0.33279 0.23654 0.65369 0.0
C819 C 0.39108 0.21249 0.61587 0.0
N820 N 0.31644 0.18395 0.67797 0.0
N821 N 0.41295 0.26412 0.62339 0.0
H822 H 0.42016 0.1777 0.57756 0.0
H823 H 0.43342 0.21552 0.56705 0.0
H824 H 0.41177 0.2879 0.63223 0.0
H825 H 0.43567 0.256 0.61885 0.0
H826 H 0.29644 0.19136 0.7001 0.0
H827 H 0.31965 0.15989 0.67935 0.0
H828 H 0.28373 0.2344 0.66505 0.0
H829 H 0.29858 0.27198 0.66135 0.0
C830 C 0.05466 0.10111 0.92878 0.0
C831 C 0.06597 0.11864 0.87957 0.0
C832 C 0.01292 0.12675 0.8438 0.0
C833 C 0.00159 0.10699 0.8898 0.0
N834 N 0.01256 0.06959 0.96788 0.0
N835 N 0.05656 0.1392 0.78034 0.0
C836 C 0.02271 0.09244 0.93005 0.0
C837 C 0.04532 0.1287 0.83399 0.0
N838 N 0.07398 0.09374 0.97525 0.0
N839 N 0.99307 0.14513 0.81156 0.0
H840 H 0.08021 0.13956 0.76988 0.0
H841 H 0.04223 0.144 0.74383 0.0
H842 H 0.96921 0.14625 0.81954 0.0
H843 H 0.00083 0.16204 0.78159 0.0
H844 H 0.06614 0.08387 0.01512 0.0
H845 H 0.09744 0.09986 0.97606 0.0
H846 H 0.02752 0.0562 0.99404 0.0
H847 H 0.9896 0.0618 0.96865 0.0
C848 C 0.85768 0.75128 0.59915 0.0
C849 C 0.85285 0.73869 0.65721 0.0
C850 C 0.86212 0.79002 0.70171 0.0
C851 C 0.8649 0.80282 0.64328 0.0
N852 N 0.85702 0.79721 0.53678 0.0
N853 N 0.8445 0.74671 0.76282 0.0
C854 C 0.86001 0.78392 0.59214 0.0
C855 C 0.85323 0.75828 0.70832 0.0
N856 N 0.86212 0.73209 0.55101 0.0
N857 N 0.86953 0.80759 0.75068 0.0
H858 H 0.83777 0.72361 0.76901 0.0
H859 H 0.84127 0.76056 0.80059 0.0
H860 H 0.87629 0.83082 0.7478 0.0
H861 H 0.87133 0.79849 0.79378 0.0
H862 H 0.86902 0.74013 0.50903 0.0
H863 H 0.86226 0.7079 0.55408 0.0
H864 H 0.85015 0.78482 0.49893 0.0
H865 H 0.85822 0.82116 0.5298 0.0
C866 C 0.96302 0.13031 0.45005 0.0
C867 C 0.94421 0.11406 0.40847 0.0
C868 C 0.98977 0.08489 0.37359 0.0
C869 C 0.00902 0.10467 0.40819 0.0
N870 N 0.01477 0.14756 0.47711 0.0
N871 N 0.93932 0.07661 0.32824 0.0
C872 C 0.99588 0.12748 0.44657 0.0
C873 C 0.95735 0.09113 0.37019 0.0
N874 N 0.94929 0.1481 0.49341 0.0
N875 N 0.00252 0.05987 0.34478 0.0
H876 H 0.91535 0.07974 0.32503 0.0
H877 H 0.94833 0.06289 0.29395 0.0
H878 H 0.02623 0.05471 0.34653 0.0
H879 H 0.98939 0.0427 0.32379 0.0
H880 H 0.96147 0.15821 0.52869 0.0
H881 H 0.92519 0.15024 0.49742 0.0
H882 H 0.00658 0.16705 0.49989 0.0
H883 H 0.03897 0.14612 0.47637 0.0
C884 C 0.61158 0.25299 0.13247 0.0
C885 C 0.63981 0.26512 0.15534 0.0
C886 C 0.65819 0.21218 0.17651 0.0
C887 C 0.63146 0.20015 0.1475 0.0
N888 N 0.58574 0.20915 0.08678 0.0
N889 N 0.69199 0.25664 0.19174 0.0
C890 C 0.60889 0.22054 0.12259 0.0
C891 C 0.66366 0.24484 0.17573 0.0
N892 N 0.58691 0.27236 0.12198 0.0
N893 N 0.67788 0.19248 0.20606 0.0
H894 H 0.69701 0.28037 0.19124 0.0
H895 H 0.71133 0.24281 0.20075 0.0
H896 H 0.67453 0.16845 0.20737 0.0
H897 H 0.69596 0.2001 0.23338 0.0
H898 H 0.56474 0.26434 0.11123 0.0
H899 H 0.58767 0.29625 0.13 0.0
H900 H 0.57081 0.22334 0.0622 0.0
H901 H 0.5833 0.18562 0.07659 0.0
C902 C 0.53784 0.90081 0.85541 0.0
C903 C 0.55176 0.87839 0.89371 0.0
C904 C 0.50095 0.86637 0.93776 0.0
C905 C 0.48717 0.88946 0.9008 0.0
N906 N 0.49315 0.93365 0.83536 0.0
N907 N 0.54832 0.84556 0.98096 0.0
C908 C 0.50586 0.90826 0.86298 0.0
C909 C 0.53381 0.86297 0.93795 0.0
N910 N 0.55462 0.91373 0.8097 0.0
N911 N 0.48263 0.8465 0.97013 0.0
H912 H 0.57244 0.84296 0.98288 0.0
H913 H 0.53683 0.8363 0.01797 0.0
H914 H 0.45845 0.84801 0.97135 0.0
H915 H 0.49122 0.8269 0.99202 0.0
H916 H 0.54472 0.92728 0.77606 0.0
H917 H 0.5781 0.90904 0.80252 0.0
H918 H 0.50625 0.95009 0.81214 0.0
H919 H 0.46986 0.93996 0.84051 0.0
C920 C 0.85327 0.23456 0.83355 0.0
C921 C 0.86455 0.2543 0.87973 0.0
C922 C 0.88291 0.20874 0.93505 0.0
C923 C 0.8763 0.18971 0.88475 0.0
N924 N 0.85805 0.18488 0.78299 0.0
N925 N 0.8953 0.26043 0.96974 0.0
C926 C 0.86201 0.20262 0.83319 0.0
C927 C 0.8806 0.2415 0.92951 0.0
N928 N 0.83345 0.24608 0.79112 0.0
N929 N 0.89059 0.19548 0.98874 0.0
H930 H 0.89553 0.28461 0.96635 0.0
H931 H 0.91004 0.25201 0.00305 0.0
H932 H 0.89137 0.17145 0.99528 0.0
H933 H 0.89272 0.20819 0.02826 0.0
H934 H 0.82215 0.23212 0.75984 0.0
H935 H 0.82581 0.26912 0.79096 0.0
H936 H 0.85098 0.19402 0.74198 0.0
H937 H 0.86424 0.16145 0.78089 0.0
C938 C 0.53421 0.09629 0.65501 0.0
C939 C 0.55001 0.11231 0.60856 0.0
C940 C 0.50127 0.11835 0.55313 0.0
C941 C 0.48557 0.10169 0.59909 0.0
N942 N 0.48808 0.06792 0.68518 0.0
N943 N 0.55063 0.13268 0.50803 0.0
C944 C 0.50239 0.08851 0.64745 0.0
C945 C 0.53421 0.12115 0.55556 0.0
N946 N 0.54942 0.08931 0.70708 0.0
N947 N 0.48466 0.13336 0.5096 0.0
H948 H 0.57468 0.13584 0.50908 0.0
H949 H 0.54089 0.13658 0.466 0.0
H950 H 0.46048 0.13255 0.5067 0.0
H951 H 0.49456 0.14878 0.47909 0.0
H952 H 0.53827 0.08103 0.74532 0.0
H953 H 0.57304 0.09368 0.71331 0.0
H954 H 0.49985 0.05524 0.71783 0.0
H955 H 0.46494 0.06113 0.67998 0.0
C956 C 0.66915 0.7625 0.32703 0.0
C957 C 0.64678 0.74216 0.3528 0.0
C958 C 0.61679 0.78691 0.38804 0.0
C959 C 0.63684 0.80714 0.35579 0.0
N960 N 0.68015 0.81422 0.28859 0.0
N961 N 0.59554 0.73523 0.39581 0.0
C962 C 0.6626 0.79498 0.32371 0.0
C963 C 0.61958 0.7544 0.38008 0.0
N964 N 0.69706 0.75099 0.30778 0.0
N965 N 0.59579 0.79857 0.42831 0.0
H966 H 0.59581 0.71129 0.38899 0.0
H967 H 0.57391 0.74352 0.40963 0.0
H968 H 0.5934 0.82222 0.43753 0.0
H969 H 0.58315 0.78454 0.45758 0.0
H970 H 0.71547 0.76504 0.29414 0.0
H971 H 0.70287 0.72747 0.31055 0.0
H972 H 0.69718 0.8062 0.25917 0.0
H973 H 0.67598 0.83807 0.28523 0.0
C974 C 0.95878 0.90275 0.15431 0.0
C975 C 0.94099 0.88983 0.10697 0.0
C976 C 0.98711 0.88873 0.04246 0.0
C977 C 0.00471 0.90247 0.08938 0.0
N978 N 0.00574 0.92998 0.18344 0.0
N979 N 0.93605 0.8764 0.00263 0.0
C980 C 0.99003 0.91175 0.1434 0.0
C981 C 0.95443 0.88501 0.04973 0.0
N982 N 0.94602 0.90573 0.21014 0.0
N983 N 0.00181 0.87726 0.9928 0.0
H984 H 0.91222 0.87242 0.0069 0.0
H985 H 0.94386 0.87569 0.95849 0.0
H986 H 0.02574 0.8789 0.98601 0.0
H987 H 0.99073 0.86382 0.96044 0.0
H988 H 0.95887 0.91146 0.24808 0.0
H989 H 0.92284 0.90049 0.21938 0.0
H990 H 0.99536 0.94001 0.22091 0.0
H991 H 0.02842 0.93773 0.17603 0.0
C992 C 0.65206 0.73453 0.91184 0.0
C993 C 0.63416 0.75266 0.87138 0.0
C994 C 0.61008 0.70532 0.83154 0.0
C995 C 0.62498 0.68784 0.87691 0.0
N996 N 0.65753 0.68553 0.96464 0.0
N997 N 0.59208 0.75601 0.79975 0.0
C998 C 0.64529 0.70236 0.91834 0.0
C999 C 0.61225 0.73826 0.83262 0.0
N1000 N 0.67629 0.74775 0.94226 0.0
N1001 N 0.59369 0.69042 0.7876 0.0
H1002 H 0.59174 0.78024 0.80115 0.0
H1003 H 0.57352 0.74677 0.77566 0.0
H1004 H 0.59107 0.6663 0.78627 0.0
H1005 H 0.58507 0.70166 0.74975 0.0
H1006 H 0.69205 0.73503 0.96784 0.0
H1007 H 0.6825 0.77108 0.93752 0.0
H1008 H 0.66956 0.6955 0.00026 0.0
H1009 H 0.65384 0.66169 0.9695 0.0
C1010 C 0.50832 0.40313 0.15996 0.0
C1011 C 0.49291 0.39044 0.10931 0.0
C1012 C 0.542 0.36764 0.07427 0.0
C1013 C 0.55768 0.38198 0.12292 0.0
N1014 N 0.55732 0.41873 0.20447 0.0
N1015 N 0.49539 0.36434 0.0136 0.0
C1016 C 0.54126 0.40125 0.16368 0.0
C1017 C 0.50993 0.37412 0.0647 0.0
N1018 N 0.4915 0.41668 0.20496 0.0
N1019 N 0.55717 0.34621 0.03958 0.0
H1020 H 0.47153 0.36651 0.00651 0.0
H1021 H 0.5073 0.35585 0.9764 0.0
H1022 H 0.58048 0.3403 0.04555 0.0
H1023 H 0.54606 0.33222 0.00812 0.0
H1024 H 0.50102 0.42294 0.2461 0.0
H1025 H 0.46748 0.41979 0.20308 0.0
H1026 H 0.54701 0.43567 0.23126 0.0
H1027 H 0.58153 0.41854 0.20756 0.0
C1028 C 0.8816 0.25375 0.32618 0.0
C1029 C 0.85929 0.24072 0.36576 0.0
C1030 C 0.84807 0.29228 0.40703 0.0
C1031 C 0.86933 0.3055 0.3654 0.0
N1032 N 0.90087 0.30012 0.27676 0.0
N1033 N 0.81656 0.24767 0.4343 0.0
C1034 C 0.88443 0.28659 0.32229 0.0
C1035 C 0.84107 0.26003 0.40336 0.0
N1036 N 0.90116 0.23479 0.29445 0.0
N1037 N 0.83578 0.31008 0.45197 0.0
H1038 H 0.81059 0.22418 0.43186 0.0
H1039 H 0.80045 0.26106 0.45774 0.0
H1040 H 0.83996 0.33384 0.45627 0.0
H1041 H 0.82331 0.30085 0.48781 0.0
H1042 H 0.92018 0.24299 0.27023 0.0
H1043 H 0.90011 0.21057 0.29625 0.0
H1044 H 0.9098 0.28774 0.24052 0.0
H1045 H 0.90298 0.32419 0.27207 0.0
C1046 C 0.9616 0.64627 0.63174 0.0
C1047 C 0.94094 0.62139 0.61913 0.0
C1048 C 0.98537 0.58656 0.60331 0.0
C1049 C 0.00578 0.61228 0.60996 0.0
N1050 N 0.01257 0.66805 0.61508 0.0
N1051 N 0.93272 0.56918 0.58306 0.0
C1052 C 0.9937 0.64257 0.61973 0.0
C1053 C 0.95269 0.59185 0.60205 0.0
N1054 N 0.95096 0.67295 0.65806 0.0
N1055 N 0.99705 0.557 0.60083 0.0
H1056 H 0.90869 0.57239 0.58111 0.0
H1057 H 0.94015 0.54829 0.56421 0.0
H1058 H 0.0208 0.55213 0.60286 0.0
H1059 H 0.98315 0.53718 0.60223 0.0
H1060 H 0.96571 0.69028 0.67408 0.0
H1061 H 0.92778 0.67645 0.66986 0.0
H1062 H 0.00417 0.69079 0.61592 0.0
H1063 H 0.03601 0.66663 0.60354 0.0
C1064 C 0.6468 0.25703 0.57409 0.0
C1065 C 0.63377 0.24155 0.62439 0.0
C1066 C 0.61528 0.29139 0.66442 0.0
C1067 C 0.62532 0.30627 0.6111 0.0
N1068 N 0.64869 0.30367 0.51298 0.0
N1069 N 0.60126 0.24291 0.71265 0.0
C1070 C 0.64053 0.28919 0.56526 0.0
C1071 C 0.61714 0.25845 0.66872 0.0
N1072 N 0.66612 0.24125 0.53602 0.0
N1073 N 0.60354 0.30864 0.71069 0.0
H1074 H 0.60106 0.21874 0.71651 0.0
H1075 H 0.58585 0.25365 0.7421 0.0
H1076 H 0.60002 0.3326 0.7082 0.0
H1077 H 0.59938 0.29959 0.75322 0.0
H1078 H 0.67912 0.25192 0.50246 0.0
H1079 H 0.67126 0.21769 0.54091 0.0
H1080 H 0.65625 0.29185 0.47496 0.0
H1081 H 0.64631 0.32757 0.50629 0.0
C1082 C 0.99232 0.40914 0.85777 0.0
C1083 C 0.01117 0.39496 0.90213 0.0
C1084 C 0.96461 0.37371 0.95078 0.0
C1085 C 0.94648 0.38398 0.90167 0.0
N1086 N 0.94327 0.40892 0.8048 0.0
N1087 N 0.01599 0.36101 0.98797 0.0
C1088 C 0.96025 0.40141 0.85452 0.0
C1089 C 0.99752 0.37684 0.94846 0.0
N1090 N 0.005 0.43039 0.81927 0.0
N1091 N 0.95024 0.36121 -0.00016 0.0
H1092 H 0.0402 0.36221 0.98751 0.0
H1093 H 0.00749 0.34465 0.01823 0.0
H1094 H 0.92613 0.35873 0.00271 0.0
H1095 H 0.96178 0.35606 0.03962 0.0
H1096 H 0.99183 0.44408 0.79032 0.0
H1097 H 0.02849 0.43641 0.82003 0.0
H1098 H 0.95305 0.41802 0.76587 0.0
H1099 H 0.91969 0.40398 0.8004 0.0
C1100 C 0.87675 0.74442 0.17864 0.0
C1101 C 0.85601 0.75998 0.13922 0.0
C1102 C 0.84285 0.71054 0.09076 0.0
C1103 C 0.86304 0.6949 0.13114 0.0
N1104 N 0.89531 0.69556 0.21959 0.0
N1105 N 0.81568 0.75813 0.06438 0.0
C1106 C 0.87854 0.71139 0.17737 0.0
C1107 C 0.83804 0.74311 0.09703 0.0
N1108 N 0.89625 0.76132 0.2145 0.0
N1109 N 0.8285 0.69421 0.04602 0.0
H1110 H 0.81187 0.78204 0.06706 0.0
H1111 H 0.79936 0.74684 0.03773 0.0
H1112 H 0.82914 0.66999 0.04318 0.0
H1113 H 0.8169 0.70455 0.01028 0.0
H1114 H 0.91443 0.75164 0.239 0.0
H1115 H 0.89612 0.78557 0.21617 0.0
H1116 H 0.90405 0.70582 0.2583 0.0
H1117 H 0.89872 0.67158 0.21849 0.0
C1118 C 0.54767 0.60665 0.43183 0.0
C1119 C 0.55912 0.62044 0.37835 0.0
C1120 C 0.50587 0.62755 0.34293 0.0
C1121 C 0.49448 0.61037 0.3926 0.0
N1122 N 0.50601 0.57692 0.47698 0.0
N1123 N 0.54895 0.63428 0.27512 0.0
C1124 C 0.51577 0.59795 0.4351 0.0
C1125 C 0.53818 0.62791 0.33143 0.0
N1126 N 0.56665 0.60303 0.48039 0.0
N1127 N 0.48623 0.64496 0.30833 0.0
H1128 H 0.57239 0.63259 0.26342 0.0
H1129 H 0.53417 0.63733 0.23856 0.0
H1130 H 0.46265 0.64771 0.3179 0.0
H1131 H 0.4942 0.65982 0.27473 0.0
H1132 H 0.55845 0.59597 0.52218 0.0
H1133 H 0.58987 0.60997 0.48078 0.0
H1134 H 0.5213 0.56511 0.50518 0.0
H1135 H 0.48324 0.56869 0.4792 0.0
C1136 C 0.35074 0.28903 0.07904 0.0
C1137 C 0.36515 0.30595 0.126 0.0
C1138 C 0.37124 0.25809 0.18445 0.0
C1139 C 0.35625 0.24129 0.13791 0.0
N1140 N 0.32466 0.24152 0.0489 0.0
N1141 N 0.38332 0.3083 0.22813 0.0
C1142 C 0.34383 0.25703 0.08754 0.0
C1143 C 0.37321 0.29105 0.18053 0.0
N1144 N 0.34425 0.30341 0.02586 0.0
N1145 N 0.38553 0.24248 0.23022 0.0
H1146 H 0.38643 0.33233 0.22619 0.0
H1147 H 0.38625 0.2992 0.27099 0.0
H1148 H 0.38516 0.21834 0.23453 0.0
H1149 H 0.39997 0.25316 0.26146 0.0
H1150 H 0.33719 0.29156 0.98754 0.0
H1151 H 0.3477 0.32714 0.01893 0.0
H1152 H 0.31256 0.2523 0.01424 0.0
H1153 H 0.31836 0.21832 0.05527 0.0
C1154 C 0.45093 0.61758 0.93221 0.0
C1155 C 0.43688 0.6107 0.8763 0.0
C1156 C 0.48579 0.58822 0.84007 0.0
C1157 C 0.50087 0.59916 0.89244 0.0
N1158 N 0.49887 0.62715 0.98618 0.0
N1159 N 0.44062 0.59075 0.77551 0.0
C1160 C 0.48368 0.61415 0.93851 0.0
C1161 C 0.4542 0.59623 0.82987 0.0
N1162 N 0.43312 0.62797 0.97886 0.0
N1163 N 0.50151 0.56945 0.8009 0.0
H1164 H 0.41708 0.59467 0.76725 0.0
H1165 H 0.45294 0.58396 0.73754 0.0
H1166 H 0.52464 0.56294 0.8072 0.0
H1167 H 0.49098 0.558 0.76518 0.0
H1168 H 0.44138 0.63003 0.02252 0.0
H1169 H 0.40934 0.63231 0.97516 0.0
H1170 H 0.48813 0.64158 0.01741 0.0
H1171 H 0.52285 0.62572 0.99225 0.0
C1172 C 0.15622 0.70845 0.59485 0.0
C1173 C 0.13611 0.69414 0.63704 0.0
C1174 C 0.12545 0.74451 0.68389 0.0
C1175 C 0.14584 0.75891 0.64216 0.0
N1176 N 0.18544 0.75435 0.56612 0.0
N1177 N 0.10759 0.6965 0.72962 0.0
C1178 C 0.16276 0.74075 0.60019 0.0
C1179 C 0.12272 0.71159 0.68423 0.0
N1180 N 0.1677 0.69158 0.54783 0.0
N1181 N 0.10716 0.76233 0.7205 0.0
H1182 H 0.1054 0.67232 0.73102 0.0
H1183 H 0.0999 0.7075 0.76845 0.0
H1184 H 0.10796 0.78656 0.72119 0.0
H1185 H 0.0893 0.7533 0.74677 0.0
H1186 H 0.179 0.70149 0.51125 0.0
H1187 H 0.16436 0.66768 0.54342 0.0
H1188 H 0.20093 0.74188 0.53949 0.0
H1189 H 0.19046 0.77804 0.56811 0.0
C1190 C 0.04067 0.37498 0.41356 0.0
C1191 C 0.05661 0.38636 0.3625 0.0
C1192 C 0.00834 0.40957 0.32458 0.0
C1193 C 0.99186 0.39524 0.3722 0.0
N1194 N 0.9912 0.36022 0.45692 0.0
N1195 N 0.05616 0.41253 0.26697 0.0
C1196 C 0.00773 0.37711 0.41578 0.0
C1197 C 0.04059 0.40315 0.31727 0.0
N1198 N 0.05696 0.3618 0.45967 0.0
N1199 N 0.99334 0.43005 0.28763 0.0
H1200 H 0.0801 0.40966 0.26161 0.0
H1201 H 0.04522 0.4216 0.22921 0.0
H1202 H 0.96976 0.43537 0.29201 0.0
H1203 H 0.00464 0.4437 0.25584 0.0
H1204 H 0.04707 0.35634 0.50094 0.0
H1205 H 0.08098 0.35849 0.45865 0.0
H1206 H 0.00121 0.34382 0.4853 0.0
H1207 H 0.96698 0.36032 0.45929 0.0
C1208 C 0.3538 0.706 0.41309 0.0
C1209 C 0.37311 0.68993 0.37182 0.0
C1210 C 0.38496 0.73878 0.32002 0.0
C1211 C 0.36473 0.75472 0.35989 0.0
N1212 N 0.32506 0.75313 0.43619 0.0
N1213 N 0.40283 0.68941 0.28015 0.0
C1214 C 0.34777 0.73822 0.40423 0.0
C1215 C 0.38715 0.70581 0.32312 0.0
N1216 N 0.3415 0.6905 0.46109 0.0
N1217 N 0.40354 0.75529 0.2817 0.0
H1218 H 0.40609 0.6654 0.28215 0.0
H1219 H 0.41057 0.69917 0.24014 0.0
H1220 H 0.40311 0.77949 0.27863 0.0
H1221 H 0.42132 0.74535 0.25647 0.0
H1222 H 0.33048 0.70154 0.49677 0.0
H1223 H 0.3437 0.66651 0.46693 0.0
H1224 H 0.30976 0.74184 0.46505 0.0
H1225 H 0.3196 0.77656 0.42988 0.0
C1226 C 0.00237 0.59864 0.06701 0.0
C1227 C 0.98129 0.61739 0.10021 0.0
C1228 C 0.02507 0.64551 0.14423 0.0
C1229 C 0.04582 0.6298 0.10504 0.0
N1230 N 0.05334 0.59507 0.02122 0.0
N1231 N 0.97255 0.66379 0.15912 0.0
C1232 C 0.03428 0.60729 0.06422 0.0
C1233 C 0.9926 0.64229 0.13569 0.0
N1234 N 0.99228 0.57192 0.04015 0.0
N1235 N 0.03623 0.66247 0.19137 0.0
H1236 H 0.94864 0.6634 0.15132 0.0
H1237 H 0.98006 0.68399 0.18048 0.0
H1238 H 0.05982 0.66403 0.20165 0.0
H1239 H 0.02186 0.67191 0.2243 0.0
H1240 H 0.00731 0.55585 0.02055 0.0
H1241 H 0.96933 0.56419 0.0427 0.0
H1242 H 0.04526 0.58101 0.98655 0.0
H1243 H 0.07664 0.60134 0.01664 0.0
C1244 C 0.13697 0.25437 0.90689 0.0
C1245 C 0.15108 0.24217 0.85436 0.0
C1246 C 0.15044 0.29428 0.80932 0.0
C1247 C 0.13882 0.30661 0.86392 0.0
N1248 N 0.13113 0.29946 0.97026 0.0
N1249 N 0.17834 0.25199 0.76161 0.0
C1250 C 0.13532 0.28699 0.91451 0.0
C1251 C 0.16 0.26257 0.80728 0.0
N1252 N 0.12322 0.23515 0.9479 0.0
N1253 N 0.15099 0.31216 0.75873 0.0
H1254 H 0.18672 0.22924 0.7597 0.0
H1255 H 0.18789 0.2666 0.72919 0.0
H1256 H 0.14367 0.33526 0.75784 0.0
H1257 H 0.15613 0.30322 0.71649 0.0
H1258 H 0.11016 0.24348 0.98384 0.0
H1259 H 0.12151 0.21114 0.94251 0.0
H1260 H 0.13124 0.28603 0.00917 0.0
H1261 H 0.13131 0.32337 0.97829 0.0
C1262 C 0.4569 0.39989 0.65279 0.0
C1263 C 0.44008 0.38285 0.60913 0.0
C1264 C 0.48735 0.37662 0.54896 0.0
C1265 C 0.50395 0.39449 0.59184 0.0
N1266 N 0.50324 0.42972 0.6757 0.0
N1267 N 0.43721 0.36006 0.51062 0.0
C1268 C 0.4883 0.40812 0.64117 0.0
C1269 C 0.45461 0.37309 0.55529 0.0
N1270 N 0.44307 0.40761 0.7059 0.0
N1271 N 0.50307 0.36133 0.50454 0.0
H1272 H 0.4134 0.35594 0.51466 0.0
H1273 H 0.44583 0.35556 0.46789 0.0
H1274 H 0.52706 0.36295 0.49858 0.0
H1275 H 0.49277 0.34505 0.47631 0.0
H1276 H 0.45512 0.41683 0.74222 0.0
H1277 H 0.41977 0.40289 0.71515 0.0
H1278 H 0.49228 0.44264 0.70905 0.0
H1279 H 0.52591 0.43706 0.66686 0.0
C1280 C 0.12682 0.07757 0.60059 0.0
C1281 C 0.14534 0.09115 0.55536 0.0
C1282 C 0.18065 0.11176 0.6313 0.0
C1283 C 0.15837 0.10418 0.67577 0.0
N1284 N 0.10889 0.08095 0.70278 0.0
N1285 N 0.19048 0.12075 0.52581 0.0
C1286 C 0.13141 0.08666 0.66089 0.0
C1287 C 0.17291 0.10752 0.57002 0.0
N1288 N 0.10452 0.05637 0.58535 0.0
N1289 N 0.2091 0.12297 0.64795 0.0
H1290 H 0.18598 0.11745 0.48039 0.0
H1291 H 0.20858 0.13625 0.53408 0.0
H1292 H 0.21536 0.12591 0.69277 0.0
H1293 H 0.22737 0.12646 0.61804 0.0
H1294 H 0.09202 0.04348 0.6167 0.0
H1295 H 0.10093 0.0494 0.54107 0.0
H1296 H 0.08716 0.07176 0.6922 0.0
H1297 H 0.11061 0.08749 0.74752 0.0
C1298 C 0.1368 0.93091 0.80809 0.0
C1299 C 0.15844 0.90701 0.79405 0.0
C1300 C 0.16989 0.89908 0.90006 0.0
C1301 C 0.14573 0.92037 0.91437 0.0
N1302 N 0.11454 0.96414 0.88518 0.0
N1303 N 0.20383 0.87818 0.823 0.0
C1304 C 0.1321 0.93897 0.86916 0.0
C1305 C 0.17791 0.89458 0.8391 0.0
N1306 N 0.11938 0.94441 0.76403 0.0
N1307 N 0.18343 0.88139 0.94374 0.0
H1308 H 0.21014 0.8751 0.7782 0.0
H1309 H 0.22054 0.8706 0.85347 0.0
H1310 H 0.1791 0.88444 0.98919 0.0
H1311 H 0.19796 0.86257 0.93475 0.0
H1312 H 0.1003 0.95867 0.77241 0.0
H1313 H 0.12326 0.94063 0.71862 0.0
H1314 H 0.10588 0.98032 0.85475 0.0
H1315 H 0.11123 0.97041 0.92994 0.0
C1316 C 0.32896 0.8866 0.08196 0.0
C1317 C 0.35251 0.90755 0.06335 0.0
C1318 C 0.36461 0.92048 0.1674 0.0
C1319 C 0.34353 0.89693 0.18586 0.0
N1320 N 0.29827 0.8662 0.16453 0.0
N1321 N 0.38525 0.95132 0.08505 0.0
C1322 C 0.32308 0.88301 0.14412 0.0
C1323 C 0.36772 0.92695 0.10525 0.0
N1324 N 0.31386 0.86863 0.0407 0.0
N1325 N 0.383 0.9351 0.20855 0.0
H1326 H 0.3875 0.95636 0.03948 0.0
H1327 H 0.39511 0.96803 0.11288 0.0
H1328 H 0.38025 0.93231 0.25456 0.0
H1329 H 0.40169 0.94934 0.1973 0.0
H1330 H 0.29932 0.85017 0.05197 0.0
H1331 H 0.31688 0.87132 0.99467 0.0
H1332 H 0.28092 0.85736 0.13685 0.0
H1333 H 0.29355 0.86377 0.2102 0.0
C1334 C 0.37314 0.0719 0.3872 0.0
C1335 C 0.35488 0.08829 0.42943 0.0
C1336 C 0.32397 0.11083 0.34849 0.0
C1337 C 0.3464 0.09995 0.3071 0.0
N1338 N 0.39198 0.06911 0.2851 0.0
N1339 N 0.31188 0.12241 0.45217 0.0
C1340 C 0.37045 0.07946 0.32554 0.0
C1341 C 0.32941 0.10687 0.41074 0.0
N1342 N 0.39315 0.04933 0.40656 0.0
N1343 N 0.29768 0.12512 0.32781 0.0
H1344 H 0.31466 0.11944 0.49819 0.0
H1345 H 0.29552 0.13933 0.44116 0.0
H1346 H 0.29332 0.12798 0.28212 0.0
H1347 H 0.27907 0.13142 0.3551 0.0
H1348 H 0.40532 0.03458 0.37791 0.0
H1349 H 0.39525 0.04342 0.45176 0.0
H1350 H 0.41232 0.05755 0.29716 0.0
H1351 H 0.39041 0.07342 0.23928 0.0
C1352 C 0.82488 0.87946 0.35917 0.0
C1353 C 0.84424 0.89534 0.31794 0.0
C1354 C 0.86823 0.92391 0.40044 0.0
C1355 C 0.85447 0.90268 0.44112 0.0
N1356 N 0.81783 0.86129 0.46087 0.0
N1357 N 0.88274 0.9349 0.29778 0.0
C1358 C 0.83159 0.88127 0.42129 0.0
C1359 C 0.8649 0.91885 0.33793 0.0
N1360 N 0.80012 0.86271 0.3384 0.0
N1361 N 0.88436 0.94889 0.42206 0.0
H1362 H 0.87988 0.93314 0.25162 0.0
H1363 H 0.90126 0.94911 0.3101 0.0
H1364 H 0.88656 0.95322 0.46789 0.0
H1365 H 0.89281 0.96679 0.39517 0.0
H1366 H 0.78343 0.85266 0.36613 0.0
H1367 H 0.79461 0.8616 0.29289 0.0
H1368 H 0.80428 0.84241 0.44783 0.0
H1369 H 0.82105 0.8626 0.50701 0.0
C1370 C 0.89872 0.11042 0.11626 0.0
C1371 C 0.87807 0.09218 0.0813 0.0
C1372 C 0.84189 0.08873 0.16599 0.0
C1373 C 0.86341 0.10573 0.20114 0.0
N1374 N 0.91579 0.12458 0.21543 0.0
N1375 N 0.83269 0.05955 0.07439 0.0
C1376 C 0.893 0.11379 0.17809 0.0
C1377 C 0.85042 0.07988 0.1067 0.0
N1378 N 0.9225 0.1266 0.08996 0.0
N1379 N 0.813 0.08228 0.18831 0.0
H1380 H 0.83847 0.05278 0.03089 0.0
H1381 H 0.81377 0.04756 0.09212 0.0
H1382 H 0.80642 0.08799 0.23193 0.0
H1383 H 0.79504 0.07295 0.16274 0.0
H1384 H 0.93588 0.14296 0.1128 0.0
H1385 H 0.92686 0.12653 0.0441 0.0
H1386 H 0.93879 0.12757 0.20186 0.0
H1387 H 0.91255 0.12744 0.26137 0.0
C1388 C 0.63359 0.08091 0.83212 0.0
C1389 C 0.65201 0.10594 0.81066 0.0
C1390 C 0.66567 0.12082 0.9129 0.0
C1391 C 0.64561 0.09713 0.93469 0.0
N1392 N 0.61862 0.049 0.91726 0.0
N1393 N 0.69434 0.1413 0.82806 0.0
C1394 C 0.63231 0.07523 0.89482 0.0
C1395 C 0.67109 0.12298 0.85044 0.0
N1396 N 0.61601 0.06377 0.79334 0.0
N1397 N 0.67759 0.14275 0.95081 0.0
H1398 H 0.699 0.14274 0.78222 0.0
H1399 H 0.7109 0.1522 0.85484 0.0
H1400 H 0.67439 0.14238 0.997 0.0
H1401 H 0.68897 0.1627 0.93595 0.0
H1402 H 0.59886 0.04823 0.80706 0.0
H1403 H 0.61772 0.06584 0.74702 0.0
H1404 H 0.61079 0.03071 0.8907 0.0
H1405 H 0.61785 0.04425 0.96311 0.0
C1406 C 0.63966 0.85761 0.58321 0.0
C1407 C 0.64101 0.88864 0.56255 0.0
C1408 C 0.65593 0.90607 0.66287 0.0
C1409 C 0.64936 0.87582 0.68505 0.0
N1410 N 0.62808 0.8244 0.66699 0.0
N1411 N 0.64856 0.94325 0.58218 0.0
C1412 C 0.63964 0.85186 0.64544 0.0
C1413 C 0.64896 0.91319 0.60204 0.0
N1414 N 0.63869 0.83357 0.54322 0.0
N1415 N 0.66937 0.92769 0.69949 0.0
H1416 H 0.64406 0.94915 0.53769 0.0
H1417 H 0.65069 0.96239 0.61047 0.0
H1418 H 0.67513 0.923 0.74399 0.0
H1419 H 0.67733 0.94919 0.68442 0.0
H1420 H 0.64045 0.8103 0.55595 0.0
H1421 H 0.6398 0.83706 0.49702 0.0
H1422 H 0.61789 0.80763 0.6396 0.0
H1423 H 0.62515 0.81974 0.7124 0.0
C1424 C 0.67033 0.60294 0.07776 0.0
C1425 C 0.64407 0.58421 0.06373 0.0
C1426 C 0.63157 0.57839 0.16978 0.0
C1427 C 0.65613 0.59923 0.18367 0.0
N1428 N 0.70491 0.62227 0.15531 0.0
N1429 N 0.6089 0.54408 0.09557 0.0
C1430 C 0.67761 0.60841 0.13893 0.0
C1431 C 0.62798 0.56838 0.10979 0.0
N1432 N 0.68713 0.61701 0.03344 0.0
N1433 N 0.61012 0.5702 0.2122 0.0
H1434 H 0.60646 0.5362 0.05156 0.0
H1435 H 0.59844 0.52986 0.12756 0.0
H1436 H 0.61129 0.5772 0.25677 0.0
H1437 H 0.58973 0.55821 0.20216 0.0
H1438 H 0.70338 0.63447 0.04142 0.0
H1439 H 0.68436 0.61205 0.9882 0.0
H1440 H 0.72289 0.62709 0.12545 0.0
H1441 H 0.71079 0.62609 0.20009 0.0
C1442 C 0.67755 0.39644 0.41637 0.0
C1443 C 0.65251 0.41685 0.43014 0.0
C1444 C 0.65246 0.43609 0.32686 0.0
C1445 C 0.67158 0.41059 0.31125 0.0
N1446 N 0.71504 0.37948 0.34158 0.0
N1447 N 0.61989 0.46017 0.40288 0.0
C1448 C 0.68849 0.39509 0.35648 0.0
C1449 C 0.64154 0.43842 0.38682 0.0
N1450 N 0.68896 0.3765 0.45871 0.0
N1451 N 0.64589 0.4583 0.28503 0.0
H1452 H 0.61317 0.46358 0.44735 0.0
H1453 H 0.60816 0.47431 0.37252 0.0
H1454 H 0.65663 0.45839 0.2431 0.0
H1455 H 0.6331 0.47835 0.29373 0.0
H1456 H 0.70422 0.35837 0.44896 0.0
H1457 H 0.68211 0.37694 0.50342 0.0
H1458 H 0.72996 0.36946 0.37285 0.0
H1459 H 0.72379 0.37982 0.29791 0.0
C1460 C 0.87546 0.35726 0.65334 0.0
C1461 C 0.85551 0.37649 0.6878 0.0
C1462 C 0.84866 0.41143 0.60196 0.0
C1463 C 0.86682 0.39079 0.56684 0.0
N1464 N 0.88976 0.33981 0.55453 0.0
N1465 N 0.81915 0.41907 0.69366 0.0
C1466 C 0.87777 0.36237 0.59111 0.0
C1467 C 0.84088 0.40282 0.66175 0.0
N1468 N 0.8938 0.33533 0.68035 0.0
N1469 N 0.83995 0.4396 0.57907 0.0
H1470 H 0.81298 0.41324 0.73747 0.0
H1471 H 0.80548 0.43666 0.6753 0.0
H1472 H 0.84507 0.44639 0.53529 0.0
H1473 H 0.82956 0.45704 0.60452 0.0
H1474 H 0.91113 0.32313 0.65765 0.0
H1475 H 0.89431 0.33166 0.72647 0.0
H1476 H 0.89496 0.31743 0.56947 0.0
H1477 H 0.89133 0.3422 0.50816 0.0
C1478 C 0.8537 0.56327 0.89459 0.0
C1479 C 0.83819 0.58094 0.93866 0.0
C1480 C 0.80986 0.60925 0.86121 0.0
C1481 C 0.83112 0.59729 0.81829 0.0
N1482 N 0.87211 0.56088 0.79245 0.0
N1483 N 0.79014 0.60657 0.96323 0.0
C1484 C 0.85201 0.5729 0.83393 0.0
C1485 C 0.81249 0.59956 0.92188 0.0
N1486 N 0.86939 0.53703 0.91117 0.0
N1487 N 0.78806 0.63061 0.84406 0.0
H1488 H 0.79008 0.59652 0.00578 0.0
H1489 H 0.76991 0.61881 0.95355 0.0
H1490 H 0.78432 0.63646 0.79926 0.0
H1491 H 0.7743 0.64314 0.874 0.0
H1492 H 0.87932 0.52151 0.88077 0.0
H1493 H 0.86908 0.52897 0.9553 0.0
H1494 H 0.89047 0.54618 0.8034 0.0
H1495 H 0.87166 0.56678 0.74727 0.0
C1496 C 0.31909 0.38647 0.85345 0.0
C1497 C 0.33888 0.40001 0.81006 0.0
C1498 C 0.36567 0.42895 0.88887 0.0
C1499 C 0.3515 0.4093 0.93187 0.0
N1500 N 0.31191 0.37152 0.95706 0.0
N1501 N 0.37838 0.43769 0.78448 0.0
C1502 C 0.3267 0.38932 0.91509 0.0
C1503 C 0.36084 0.42302 0.82697 0.0
N1504 N 0.29318 0.37076 0.83506 0.0
N1505 N 0.38367 0.45323 0.90779 0.0
H1506 H 0.37418 0.43559 0.73876 0.0
H1507 H 0.3977 0.45134 0.79432 0.0
H1508 H 0.38693 0.45814 0.95317 0.0
H1509 H 0.39277 0.47011 0.8793 0.0
H1510 H 0.27619 0.36238 0.86413 0.0
H1511 H 0.28724 0.36891 0.78983 0.0
H1512 H 0.29674 0.35348 0.94646 0.0
H1513 H 0.31561 0.37385 0.00289 0.0
C1514 C 0.35833 0.56711 0.66539 0.0
C1515 C 0.33695 0.59145 0.6783 0.0
C1516 C 0.3213 0.59317 0.573 0.0
C1517 C 0.34815 0.57559 0.55902 0.0
N1518 N 0.38049 0.53302 0.58942 0.0
N1519 N 0.29403 0.62381 0.64776 0.0
C1520 C 0.36288 0.55825 0.60471 0.0
C1521 C 0.31673 0.60287 0.63314 0.0
N1522 N 0.37579 0.55422 0.71008 0.0
N1523 N 0.29982 0.59927 0.52956 0.0
H1524 H 0.28882 0.62951 0.69212 0.0
H1525 H 0.28103 0.63607 0.61631 0.0
H1526 H 0.3011 0.58908 0.48725 0.0
H1527 H 0.27887 0.61073 0.53739 0.0
H1528 H 0.39458 0.53945 0.70254 0.0
H1529 H 0.37215 0.55895 0.75525 0.0
H1530 H 0.3904 0.51782 0.62026 0.0
H1531 H 0.38224 0.5255 0.54505 0.0
C1532 C 0.12403 0.64347 0.39926 0.0
C1533 C 0.13238 0.61402 0.42268 0.0
C1534 C 0.15492 0.59942 0.32589 0.0
C1535 C 0.14256 0.62714 0.30084 0.0
N1536 N 0.10939 0.67241 0.31133 0.0
N1537 N 0.15393 0.56278 0.40881 0.0
C1538 C 0.12567 0.64846 0.33688 0.0
C1539 C 0.14761 0.59167 0.38634 0.0
N1540 N 0.11501 0.66694 0.43683 0.0
N1541 N 0.17407 0.58097 0.29233 0.0
H1542 H 0.14928 0.55663 0.45314 0.0
H1543 H 0.16191 0.54434 0.38275 0.0
H1544 H 0.1798 0.58611 0.24798 0.0
H1545 H 0.18622 0.56204 0.30966 0.0
H1546 H 0.11188 0.68982 0.42254 0.0
H1547 H 0.11388 0.66439 0.48324 0.0
H1548 H 0.09402 0.68643 0.33529 0.0
H1549 H 0.10842 0.67631 0.26532 0.0
C1550 C 0.1462 0.42486 0.15603 0.0
C1551 C 0.16585 0.40009 0.17449 0.0
C1552 C 0.17519 0.38521 0.0704 0.0
C1553 C 0.15344 0.40817 0.05227 0.0
N1554 N 0.12724 0.45633 0.07335 0.0
N1555 N 0.20774 0.36529 0.15052 0.0
C1556 C 0.1421 0.43031 0.09381 0.0
C1557 C 0.1835 0.38338 0.13174 0.0
N1558 N 0.12968 0.44161 0.19719 0.0
N1559 N 0.18593 0.36364 0.03044 0.0
H1560 H 0.21417 0.36401 0.19557 0.0
H1561 H 0.22319 0.35436 0.12134 0.0
H1562 H 0.18067 0.36414 0.98493 0.0
H1563 H 0.19863 0.34407 0.04304 0.0
H1564 H 0.11172 0.45675 0.18578 0.0
H1565 H 0.13297 0.43963 0.24318 0.0
H1566 H 0.1207 0.47477 0.10086 0.0
H1567 H 0.1243 0.46076 0.02769 0.0
loop_
_geom_bond_atom_site_label_1
_geom_bond_atom_site_label_2
_geom_bond_distance
_geom_bond_site_symmetry_2
_ccdc_geom_bond_type
In0 O1 2.294 . S
In0 O2 2.326 . S
In0 O6 2.266 . S
In0 O7 2.326 . S
In0 O8 2.266 . S
In0 O9 2.326 . S
In0 O11 2.294 . S
In0 O12 2.326 . S
O1 In0 2.294 . S
O1 C10 1.240 . S
O2 In0 2.326 . S
O2 C10 1.252 . S
C3 O6 1.252 . S
C3 O7 1.260 . S
C4 O11 1.240 . S
C4 O12 1.252 . S
C5 O8 1.252 . S
C5 O9 1.260 . S
O6 In0 2.266 . S
O6 C3 1.252 . S
O7 In0 2.326 . S
O7 C3 1.260 . S
O8 In0 2.266 . S
O8 C5 1.252 . S
O9 In0 2.326 . S
O9 C5 1.260 . S
C10 O1 1.240 . S
C10 O2 1.252 . S
O11 In0 2.294 . S
O11 C4 1.240 . S
O12 In0 2.326 . S
O12 C4 1.252 . S
In13 O14 2.294 . S
In13 O15 2.326 . S
In13 O19 2.266 . S
In13 O20 2.326 . S
In13 O21 2.266 . S
In13 O22 2.326 . S
In13 O24 2.294 . S
In13 O25 2.326 . S
O14 In13 2.294 . S
O14 C23 1.240 . S
O15 In13 2.326 . S
O15 C23 1.252 . S
C16 O19 1.252 . S
C16 O20 1.260 . S
C17 O24 1.240 . S
C17 O25 1.252 . S
C18 O21 1.252 . S
C18 O22 1.260 . S
O19 In13 2.266 . S
O19 C16 1.252 . S
O20 In13 2.326 . S
O20 C16 1.260 . S
O21 In13 2.266 . S
O21 C18 1.252 . S
O22 In13 2.326 . S
O22 C18 1.260 . S
C23 O14 1.240 . S
C23 O15 1.252 . S
O24 In13 2.294 . S
O24 C17 1.240 . S
O25 In13 2.326 . S
O25 C17 1.252 . S
In26 O27 2.294 . S
In26 O28 2.326 . S
In26 O32 2.266 1_556 S
In26 O33 2.326 . S
In26 O34 2.266 . S
In26 O35 2.326 . S
In26 O37 2.294 . S
In26 O38 2.326 . S
O27 In26 2.294 . S
O27 C36 1.240 . S
O28 In26 2.326 . S
O28 C36 1.252 . S
C29 O32 1.252 . S
C29 O33 1.260 1_554 S
C30 O37 1.240 . S
C30 O38 1.252 . S
C31 O34 1.252 . S
C31 O35 1.260 . S
O32 In26 2.266 1_554 S
O32 C29 1.252 . S
O33 In26 2.326 . S
O33 C29 1.260 1_556 S
O34 In26 2.266 . S
O34 C31 1.252 . S
O35 In26 2.326 . S
O35 C31 1.260 . S
C36 O27 1.240 . S
C36 O28 1.252 . S
O37 In26 2.294 . S
O37 C30 1.240 . S
O38 In26 2.326 . S
O38 C30 1.252 . S
In39 O40 2.294 . S
In39 O41 2.326 . S
In39 O45 2.266 . S
In39 O46 2.326 . S
In39 O47 2.266 . S
In39 O48 2.326 . S
In39 O50 2.294 . S
In39 O51 2.326 . S
O40 In39 2.294 . S
O40 C49 1.240 . S
O41 In39 2.326 . S
O41 C49 1.252 . S
C42 O45 1.252 . S
C42 O46 1.260 . S
C43 O50 1.240 . S
C43 O51 1.252 . S
C44 O47 1.252 . S
C44 O48 1.260 . S
O45 In39 2.266 . S
O45 C42 1.252 . S
O46 In39 2.326 . S
O46 C42 1.260 . S
O47 In39 2.266 . S
O47 C44 1.252 . S
O48 In39 2.326 . S
O48 C44 1.260 . S
C49 O40 1.240 . S
C49 O41 1.252 . S
O50 In39 2.294 . S
O50 C43 1.240 . S
O51 In39 2.326 . S
O51 C43 1.252 . S
In52 O53 2.294 . S
In52 O54 2.326 . S
In52 O58 2.266 1_554 S
In52 O59 2.326 . S
In52 O60 2.266 . S
In52 O61 2.326 . S
In52 O63 2.294 . S
In52 O64 2.326 . S
O53 In52 2.294 . S
O53 C62 1.240 . S
O54 In52 2.326 . S
O54 C62 1.252 . S
C55 O58 1.252 . S
C55 O59 1.260 1_556 S
C56 O63 1.240 . S
C56 O64 1.252 . S
C57 O60 1.252 . S
C57 O61 1.260 . S
O58 In52 2.266 1_556 S
O58 C55 1.252 . S
O59 In52 2.326 . S
O59 C55 1.260 1_554 S
O60 In52 2.266 . S
O60 C57 1.252 . S
O61 In52 2.326 . S
O61 C57 1.260 . S
C62 O53 1.240 . S
C62 O54 1.252 . S
O63 In52 2.294 . S
O63 C56 1.240 . S
O64 In52 2.326 . S
O64 C56 1.252 . S
In65 O66 2.294 . S
In65 O67 2.326 . S
In65 O71 2.266 . S
In65 O72 2.326 . S
In65 O73 2.266 . S
In65 O74 2.326 . S
In65 O76 2.294 . S
In65 O77 2.326 . S
O66 In65 2.294 . S
O66 C75 1.240 . S
O67 In65 2.326 . S
O67 C75 1.252 . S
C68 O71 1.252 . S
C68 O72 1.260 . S
C69 O76 1.240 . S
C69 O77 1.252 . S
C70 O73 1.252 . S
C70 O74 1.260 . S
O71 In65 2.266 . S
O71 C68 1.252 . S
O72 In65 2.326 . S
O72 C68 1.260 . S
O73 In65 2.266 . S
O73 C70 1.252 . S
O74 In65 2.326 . S
O74 C70 1.260 . S
C75 O66 1.240 . S
C75 O67 1.252 . S
O76 In65 2.294 . S
O76 C69 1.240 . S
O77 In65 2.326 . S
O77 C69 1.252 . S
In78 O79 2.294 . S
In78 O80 2.326 . S
In78 O84 2.266 . S
In78 O85 2.326 . S
In78 O86 2.266 . S
In78 O87 2.326 . S
In78 O89 2.294 . S
In78 O90 2.326 . S
O79 In78 2.294 . S
O79 C88 1.240 . S
O80 In78 2.326 . S
O80 C88 1.252 . S
C81 O84 1.252 . S
C81 O85 1.260 . S
C82 O89 1.240 . S
C82 O90 1.252 . S
C83 O86 1.252 . S
C83 O87 1.260 . S
O84 In78 2.266 . S
O84 C81 1.252 . S
O85 In78 2.326 . S
O85 C81 1.260 . S
O86 In78 2.266 . S
O86 C83 1.252 . S
O87 In78 2.326 . S
O87 C83 1.260 . S
C88 O79 1.240 . S
C88 O80 1.252 . S
O89 In78 2.294 . S
O89 C82 1.240 . S
O90 In78 2.326 . S
O90 C82 1.252 . S
In91 O92 2.294 . S
In91 O93 2.326 . S
In91 O97 2.266 . S
In91 O98 2.326 . S
In91 O99 2.266 . S
In91 O100 2.326 . S
In91 O102 2.294 . S
In91 O103 2.326 . S
O92 In91 2.294 . S
O92 C101 1.240 . S
O93 In91 2.326 . S
O93 C101 1.252 . S
C94 O97 1.252 . S
C94 O98 1.260 . S
C95 O102 1.240 . S
C95 O103 1.252 . S
C96 O99 1.252 . S
C96 O100 1.260 . S
O97 In91 2.266 . S
O97 C94 1.252 . S
O98 In91 2.326 . S
O98 C94 1.260 . S
O99 In91 2.266 . S
O99 C96 1.252 . S
O100 In91 2.326 . S
O100 C96 1.260 . S
C101 O92 1.240 . S
C101 O93 1.252 . S
O102 In91 2.294 . S
O102 C95 1.240 . S
O103 In91 2.326 . S
O103 C95 1.252 . S
In104 O105 2.294 . S
In104 O106 2.326 . S
In104 O110 2.266 . S
In104 O111 2.326 . S
In104 O112 2.266 . S
In104 O113 2.326 . S
In104 O115 2.294 . S
In104 O116 2.326 . S
O105 In104 2.294 . S
O105 C114 1.240 . S
O106 In104 2.326 . S
O106 C114 1.252 . S
C107 O110 1.252 . S
C107 O111 1.260 . S
C108 O115 1.240 . S
C108 O116 1.252 . S
C109 O112 1.252 . S
C109 O113 1.260 . S
O110 In104 2.266 . S
O110 C107 1.252 . S
O111 In104 2.326 . S
O111 C107 1.260 . S
O112 In104 2.266 . S
O112 C109 1.252 . S
O113 In104 2.326 . S
O113 C109 1.260 . S
C114 O105 1.240 . S
C114 O106 1.252 . S
O115 In104 2.294 . S
O115 C108 1.240 . S
O116 In104 2.326 . S
O116 C108 1.252 . S
In117 O118 2.294 . S
In117 O119 2.326 . S
In117 O123 2.266 . S
In117 O124 2.326 . S
In117 O125 2.266 . S
In117 O126 2.326 . S
In117 O128 2.294 . S
In117 O129 2.326 . S
O118 In117 2.294 . S
O118 C127 1.240 . S
O119 In117 2.326 . S
O119 C127 1.252 . S
C120 O123 1.252 . S
C120 O124 1.260 . S
C121 O128 1.240 . S
C121 O129 1.252 . S
C122 O125 1.252 . S
C122 O126 1.260 . S
O123 In117 2.266 . S
O123 C120 1.252 . S
O124 In117 2.326 . S
O124 C120 1.260 . S
O125 In117 2.266 . S
O125 C122 1.252 . S
O126 In117 2.326 . S
O126 C122 1.260 . S
C127 O118 1.240 . S
C127 O119 1.252 . S
O128 In117 2.294 . S
O128 C121 1.240 . S
O129 In117 2.326 . S
O129 C121 1.252 . S
In130 O131 2.294 . S
In130 O132 2.326 . S
In130 O136 2.266 . S
In130 O137 2.326 . S
In130 O138 2.266 1_554 S
In130 O139 2.326 . S
In130 O141 2.294 . S
In130 O142 2.326 . S
O131 In130 2.294 . S
O131 C140 1.240 . S
O132 In130 2.326 . S
O132 C140 1.252 . S
C133 O136 1.252 . S
C133 O137 1.260 . S
C134 O141 1.240 . S
C134 O142 1.252 . S
C135 O138 1.252 . S
C135 O139 1.260 1_556 S
O136 In130 2.266 . S
O136 C133 1.252 . S
O137 In130 2.326 . S
O137 C133 1.260 . S
O138 In130 2.266 1_556 S
O138 C135 1.252 . S
O139 In130 2.326 . S
O139 C135 1.260 1_554 S
C140 O131 1.240 . S
C140 O132 1.252 . S
O141 In130 2.294 . S
O141 C134 1.240 . S
O142 In130 2.326 . S
O142 C134 1.252 . S
In143 O144 2.294 . S
In143 O145 2.326 . S
In143 O149 2.266 . S
In143 O150 2.326 . S
In143 O151 2.266 . S
In143 O152 2.326 . S
In143 O154 2.294 . S
In143 O155 2.326 . S
O144 In143 2.294 . S
O144 C153 1.240 . S
O145 In143 2.326 . S
O145 C153 1.252 . S
C146 O149 1.252 . S
C146 O150 1.260 . S
C147 O154 1.240 . S
C147 O155 1.252 . S
C148 O151 1.252 . S
C148 O152 1.260 . S
O149 In143 2.266 . S
O149 C146 1.252 . S
O150 In143 2.326 . S
O150 C146 1.260 . S
O151 In143 2.266 . S
O151 C148 1.252 . S
O152 In143 2.326 . S
O152 C148 1.260 . S
C153 O144 1.240 . S
C153 O145 1.252 . S
O154 In143 2.294 . S
O154 C147 1.240 . S
O155 In143 2.326 . S
O155 C147 1.252 . S
In156 O157 2.294 . S
In156 O158 2.326 . S
In156 O162 2.266 . S
In156 O163 2.326 . S
In156 O164 2.266 1_556 S
In156 O165 2.326 . S
In156 O167 2.294 . S
In156 O168 2.326 . S
O157 In156 2.294 . S
O157 C166 1.240 . S
O158 In156 2.326 . S
O158 C166 1.252 . S
C159 O162 1.252 . S
C159 O163 1.260 . S
C160 O167 1.240 . S
C160 O168 1.252 . S
C161 O164 1.252 . S
C161 O165 1.260 1_554 S
O162 In156 2.266 . S
O162 C159 1.252 . S
O163 In156 2.326 . S
O163 C159 1.260 . S
O164 In156 2.266 1_554 S
O164 C161 1.252 . S
O165 In156 2.326 . S
O165 C161 1.260 1_556 S
C166 O157 1.240 . S
C166 O158 1.252 . S
O167 In156 2.294 . S
O167 C160 1.240 . S
O168 In156 2.326 . S
O168 C160 1.252 . S
In169 O170 2.294 . S
In169 O171 2.326 . S
In169 O175 2.266 . S
In169 O176 2.326 . S
In169 O177 2.266 . S
In169 O178 2.326 . S
In169 O180 2.294 . S
In169 O181 2.326 . S
O170 In169 2.294 . S
O170 C179 1.240 . S
O171 In169 2.326 . S
O171 C179 1.252 . S
C172 O175 1.252 . S
C172 O176 1.260 . S
C173 O180 1.240 . S
C173 O181 1.252 . S
C174 O177 1.252 . S
C174 O178 1.260 . S
O175 In169 2.266 . S
O175 C172 1.252 . S
O176 In169 2.326 . S
O176 C172 1.260 . S
O177 In169 2.266 . S
O177 C174 1.252 . S
O178 In169 2.326 . S
O178 C174 1.260 . S
C179 O170 1.240 . S
C179 O171 1.252 . S
O180 In169 2.294 . S
O180 C173 1.240 . S
O181 In169 2.326 . S
O181 C173 1.252 . S
In182 O183 2.294 . S
In182 O184 2.326 . S
In182 O188 2.266 . S
In182 O189 2.326 . S
In182 O190 2.266 . S
In182 O191 2.326 . S
In182 O193 2.294 . S
In182 O194 2.326 . S
O183 In182 2.294 . S
O183 C192 1.240 . S
O184 In182 2.326 . S
O184 C192 1.252 . S
C185 O188 1.252 . S
C185 O189 1.260 . S
C186 O193 1.240 . S
C186 O194 1.252 . S
C187 O190 1.252 . S
C187 O191 1.260 . S
O188 In182 2.266 . S
O188 C185 1.252 . S
O189 In182 2.326 . S
O189 C185 1.260 . S
O190 In182 2.266 . S
O190 C187 1.252 . S
O191 In182 2.326 . S
O191 C187 1.260 . S
C192 O183 1.240 . S
C192 O184 1.252 . S
O193 In182 2.294 . S
O193 C186 1.240 . S
O194 In182 2.326 . S
O194 C186 1.252 . S
In195 O196 2.294 . S
In195 O197 2.326 . S
In195 O201 2.266 . S
In195 O202 2.326 . S
In195 O203 2.266 . S
In195 O204 2.326 . S
In195 O206 2.294 . S
In195 O207 2.326 . S
O196 In195 2.294 . S
O196 C205 1.240 . S
O197 In195 2.326 . S
O197 C205 1.252 . S
C198 O201 1.252 . S
C198 O202 1.260 . S
C199 O206 1.240 . S
C199 O207 1.252 . S
C200 O203 1.252 . S
C200 O204 1.260 . S
O201 In195 2.266 . S
O201 C198 1.252 . S
O202 In195 2.326 . S
O202 C198 1.260 . S
O203 In195 2.266 . S
O203 C200 1.252 . S
O204 In195 2.326 . S
O204 C200 1.260 . S
C205 O196 1.240 . S
C205 O197 1.252 . S
O206 In195 2.294 . S
O206 C199 1.240 . S
O207 In195 2.326 . S
O207 C199 1.252 . S
In208 O209 2.294 . S
In208 O210 2.326 . S
In208 O214 2.266 1_556 S
In208 O215 2.326 . S
In208 O216 2.266 . S
In208 O217 2.326 . S
In208 O219 2.294 . S
In208 O220 2.326 . S
O209 In208 2.294 . S
O209 C218 1.240 . S
O210 In208 2.326 . S
O210 C218 1.252 . S
C211 O214 1.252 . S
C211 O215 1.260 1_554 S
C212 O219 1.240 . S
C212 O220 1.252 . S
C213 O216 1.252 . S
C213 O217 1.260 . S
O214 In208 2.266 1_554 S
O214 C211 1.252 . S
O215 In208 2.326 . S
O215 C211 1.260 1_556 S
O216 In208 2.266 . S
O216 C213 1.252 . S
O217 In208 2.326 . S
O217 C213 1.260 . S
C218 O209 1.240 . S
C218 O210 1.252 . S
O219 In208 2.294 . S
O219 C212 1.240 . S
O220 In208 2.326 . S
O220 C212 1.252 . S
In221 O222 2.294 . S
In221 O223 2.326 . S
In221 O227 2.266 . S
In221 O228 2.326 . S
In221 O229 2.266 . S
In221 O230 2.326 . S
In221 O232 2.294 . S
In221 O233 2.326 . S
O222 In221 2.294 . S
O222 C231 1.240 . S
O223 In221 2.326 . S
O223 C231 1.252 . S
C224 O227 1.252 . S
C224 O228 1.260 . S
C225 O232 1.240 . S
C225 O233 1.252 . S
C226 O229 1.252 . S
C226 O230 1.260 . S
O227 In221 2.266 . S
O227 C224 1.252 . S
O228 In221 2.326 . S
O228 C224 1.260 . S
O229 In221 2.266 . S
O229 C226 1.252 . S
O230 In221 2.326 . S
O230 C226 1.260 . S
C231 O222 1.240 . S
C231 O223 1.252 . S
O232 In221 2.294 . S
O232 C225 1.240 . S
O233 In221 2.326 . S
O233 C225 1.252 . S
In234 O235 2.294 . S
In234 O236 2.326 . S
In234 O240 2.266 . S
In234 O241 2.326 . S
In234 O242 2.266 . S
In234 O243 2.326 . S
In234 O245 2.294 . S
In234 O246 2.326 . S
O235 In234 2.294 . S
O235 C244 1.240 . S
O236 In234 2.326 . S
O236 C244 1.252 . S
C237 O240 1.252 . S
C237 O241 1.260 . S
C238 O245 1.240 . S
C238 O246 1.252 . S
C239 O242 1.252 . S
C239 O243 1.260 . S
O240 In234 2.266 . S
O240 C237 1.252 . S
O241 In234 2.326 . S
O241 C237 1.260 . S
O242 In234 2.266 . S
O242 C239 1.252 . S
O243 In234 2.326 . S
O243 C239 1.260 . S
C244 O235 1.240 . S
C244 O236 1.252 . S
O245 In234 2.294 . S
O245 C238 1.240 . S
O246 In234 2.326 . S
O246 C238 1.252 . S
In247 O248 2.294 . S
In247 O249 2.326 . S
In247 O253 2.266 . S
In247 O254 2.326 . S
In247 O255 2.266 . S
In247 O256 2.326 . S
In247 O258 2.294 . S
In247 O259 2.326 . S
O248 In247 2.294 . S
O248 C257 1.240 . S
O249 In247 2.326 . S
O249 C257 1.252 . S
C250 O253 1.252 . S
C250 O254 1.260 . S
C251 O258 1.240 . S
C251 O259 1.252 . S
C252 O255 1.252 . S
C252 O256 1.260 . S
O253 In247 2.266 . S
O253 C250 1.252 . S
O254 In247 2.326 . S
O254 C250 1.260 . S
O255 In247 2.266 . S
O255 C252 1.252 . S
O256 In247 2.326 . S
O256 C252 1.260 . S
C257 O248 1.240 . S
C257 O249 1.252 . S
O258 In247 2.294 . S
O258 C251 1.240 . S
O259 In247 2.326 . S
O259 C251 1.252 . S
In260 O261 2.294 . S
In260 O262 2.326 . S
In260 O266 2.266 . S
In260 O267 2.326 . S
In260 O268 2.266 . S
In260 O269 2.326 . S
In260 O271 2.294 . S
In260 O272 2.326 . S
O261 In260 2.294 . S
O261 C270 1.240 . S
O262 In260 2.326 . S
O262 C270 1.252 . S
C263 O266 1.252 . S
C263 O267 1.260 . S
C264 O271 1.240 . S
C264 O272 1.252 . S
C265 O268 1.252 . S
C265 O269 1.260 . S
O266 In260 2.266 . S
O266 C263 1.252 . S
O267 In260 2.326 . S
O267 C263 1.260 . S
O268 In260 2.266 . S
O268 C265 1.252 . S
O269 In260 2.326 . S
O269 C265 1.260 . S
C270 O261 1.240 . S
C270 O262 1.252 . S
O271 In260 2.294 . S
O271 C264 1.240 . S
O272 In260 2.326 . S
O272 C264 1.252 . S
In273 O274 2.294 . S
In273 O275 2.326 . S
In273 O279 2.266 . S
In273 O280 2.326 . S
In273 O281 2.266 . S
In273 O282 2.326 . S
In273 O284 2.294 . S
In273 O285 2.326 . S
O274 In273 2.294 . S
O274 C283 1.240 . S
O275 In273 2.326 . S
O275 C283 1.252 . S
C276 O279 1.252 . S
C276 O280 1.260 . S
C277 O284 1.240 . S
C277 O285 1.252 . S
C278 O281 1.252 . S
C278 O282 1.260 . S
O279 In273 2.266 . S
O279 C276 1.252 . S
O280 In273 2.326 . S
O280 C276 1.260 . S
O281 In273 2.266 . S
O281 C278 1.252 . S
O282 In273 2.326 . S
O282 C278 1.260 . S
C283 O274 1.240 . S
C283 O275 1.252 . S
O284 In273 2.294 . S
O284 C277 1.240 . S
O285 In273 2.326 . S
O285 C277 1.252 . S
In286 O287 2.294 . S
In286 O288 2.326 . S
In286 O292 2.266 1_554 S
In286 O293 2.326 . S
In286 O294 2.266 . S
In286 O295 2.326 . S
In286 O297 2.294 . S
In286 O298 2.326 . S
O287 In286 2.294 . S
O287 C296 1.240 . S
O288 In286 2.326 . S
O288 C296 1.252 . S
C289 O292 1.252 . S
C289 O293 1.260 1_556 S
C290 O297 1.240 . S
C290 O298 1.252 . S
C291 O294 1.252 . S
C291 O295 1.260 . S
O292 In286 2.266 1_556 S
O292 C289 1.252 . S
O293 In286 2.326 . S
O293 C289 1.260 1_554 S
O294 In286 2.266 . S
O294 C291 1.252 . S
O295 In286 2.326 . S
O295 C291 1.260 . S
C296 O287 1.240 . S
C296 O288 1.252 . S
O297 In286 2.294 . S
O297 C290 1.240 . S
O298 In286 2.326 . S
O298 C290 1.252 . S
In299 O300 2.294 . S
In299 O301 2.326 . S
In299 O305 2.266 . S
In299 O306 2.326 . S
In299 O307 2.266 . S
In299 O308 2.326 . S
In299 O310 2.294 . S
In299 O311 2.326 . S
O300 In299 2.294 . S
O300 C309 1.240 . S
O301 In299 2.326 . S
O301 C309 1.252 . S
C302 O305 1.252 . S
C302 O306 1.260 . S
C303 O310 1.240 . S
C303 O311 1.252 . S
C304 O307 1.252 . S
C304 O308 1.260 . S
O305 In299 2.266 . S
O305 C302 1.252 . S
O306 In299 2.326 . S
O306 C302 1.260 . S
O307 In299 2.266 . S
O307 C304 1.252 . S
O308 In299 2.326 . S
O308 C304 1.260 . S
C309 O300 1.240 . S
C309 O301 1.252 . S
O310 In299 2.294 . S
O310 C303 1.240 . S
O311 In299 2.326 . S
O311 C303 1.252 . S
In312 O313 2.294 . S
In312 O314 2.326 . S
In312 O318 2.266 . S
In312 O319 2.326 . S
In312 O320 2.266 1_554 S
In312 O321 2.326 . S
In312 O323 2.294 . S
In312 O324 2.326 . S
O313 In312 2.294 . S
O313 C322 1.240 . S
O314 In312 2.326 . S
O314 C322 1.252 . S
C315 O318 1.252 . S
C315 O319 1.260 . S
C316 O323 1.240 . S
C316 O324 1.252 . S
C317 O320 1.252 . S
C317 O321 1.260 1_556 S
O318 In312 2.266 . S
O318 C315 1.252 . S
O319 In312 2.326 . S
O319 C315 1.260 . S
O320 In312 2.266 1_556 S
O320 C317 1.252 . S
O321 In312 2.326 . S
O321 C317 1.260 1_554 S
C322 O313 1.240 . S
C322 O314 1.252 . S
O323 In312 2.294 . S
O323 C316 1.240 . S
O324 In312 2.326 . S
O324 C316 1.252 . S
In325 O326 2.294 . S
In325 O327 2.326 . S
In325 O331 2.266 . S
In325 O332 2.326 . S
In325 O333 2.266 . S
In325 O334 2.326 . S
In325 O336 2.294 . S
In325 O337 2.326 . S
O326 In325 2.294 . S
O326 C335 1.240 . S
O327 In325 2.326 . S
O327 C335 1.252 . S
C328 O331 1.252 . S
C328 O332 1.260 . S
C329 O336 1.240 . S
C329 O337 1.252 . S
C330 O333 1.252 . S
C330 O334 1.260 . S
O331 In325 2.266 . S
O331 C328 1.252 . S
O332 In325 2.326 . S
O332 C328 1.260 . S
O333 In325 2.266 . S
O333 C330 1.252 . S
O334 In325 2.326 . S
O334 C330 1.260 . S
C335 O326 1.240 . S
C335 O327 1.252 . S
O336 In325 2.294 . S
O336 C329 1.240 . S
O337 In325 2.326 . S
O337 C329 1.252 . S
In338 O339 2.294 . S
In338 O340 2.326 . S
In338 O344 2.266 . S
In338 O345 2.326 . S
In338 O346 2.266 . S
In338 O347 2.326 . S
In338 O349 2.294 . S
In338 O350 2.326 . S
O339 In338 2.294 . S
O339 C348 1.240 . S
O340 In338 2.326 . S
O340 C348 1.252 . S
C341 O344 1.252 . S
C341 O345 1.260 . S
C342 O349 1.240 . S
C342 O350 1.252 . S
C343 O346 1.252 . S
C343 O347 1.260 . S
O344 In338 2.266 . S
O344 C341 1.252 . S
O345 In338 2.326 . S
O345 C341 1.260 . S
O346 In338 2.266 . S
O346 C343 1.252 . S
O347 In338 2.326 . S
O347 C343 1.260 . S
C348 O339 1.240 . S
C348 O340 1.252 . S
O349 In338 2.294 . S
O349 C342 1.240 . S
O350 In338 2.326 . S
O350 C342 1.252 . S
In351 O352 2.294 . S
In351 O353 2.326 . S
In351 O357 2.266 . S
In351 O358 2.326 . S
In351 O359 2.266 . S
In351 O360 2.326 . S
In351 O362 2.294 . S
In351 O363 2.326 . S
O352 In351 2.294 . S
O352 C361 1.240 . S
O353 In351 2.326 . S
O353 C361 1.252 . S
C354 O357 1.252 . S
C354 O358 1.260 . S
C355 O362 1.240 . S
C355 O363 1.252 . S
C356 O359 1.252 . S
C356 O360 1.260 . S
O357 In351 2.266 . S
O357 C354 1.252 . S
O358 In351 2.326 . S
O358 C354 1.260 . S
O359 In351 2.266 . S
O359 C356 1.252 . S
O360 In351 2.326 . S
O360 C356 1.260 . S
C361 O352 1.240 . S
C361 O353 1.252 . S
O362 In351 2.294 . S
O362 C355 1.240 . S
O363 In351 2.326 . S
O363 C355 1.252 . S
In364 O365 2.294 . S
In364 O366 2.326 . S
In364 O370 2.266 . S
In364 O371 2.326 . S
In364 O372 2.266 . S
In364 O373 2.326 . S
In364 O375 2.294 . S
In364 O376 2.326 . S
O365 In364 2.294 . S
O365 C374 1.240 . S
O366 In364 2.326 . S
O366 C374 1.252 . S
C367 O370 1.252 . S
C367 O371 1.260 . S
C368 O375 1.240 . S
C368 O376 1.252 . S
C369 O372 1.252 . S
C369 O373 1.260 . S
O370 In364 2.266 . S
O370 C367 1.252 . S
O371 In364 2.326 . S
O371 C367 1.260 . S
O372 In364 2.266 . S
O372 C369 1.252 . S
O373 In364 2.326 . S
O373 C369 1.260 . S
C374 O365 1.240 . S
C374 O366 1.252 . S
O375 In364 2.294 . S
O375 C368 1.240 . S
O376 In364 2.326 . S
O376 C368 1.252 . S
In377 O378 2.294 . S
In377 O379 2.326 . S
In377 O383 2.266 . S
In377 O384 2.326 . S
In377 O385 2.266 . S
In377 O386 2.326 . S
In377 O388 2.294 . S
In377 O389 2.326 . S
O378 In377 2.294 . S
O378 C387 1.240 . S
O379 In377 2.326 . S
O379 C387 1.252 . S
C380 O383 1.252 . S
C380 O384 1.260 . S
C381 O388 1.240 . S
C381 O389 1.252 . S
C382 O385 1.252 . S
C382 O386 1.260 . S
O383 In377 2.266 . S
O383 C380 1.252 . S
O384 In377 2.326 . S
O384 C380 1.260 . S
O385 In377 2.266 . S
O385 C382 1.252 . S
O386 In377 2.326 . S
O386 C382 1.260 . S
C387 O378 1.240 . S
C387 O379 1.252 . S
O388 In377 2.294 . S
O388 C381 1.240 . S
O389 In377 2.326 . S
O389 C381 1.252 . S
In390 O391 2.294 . S
In390 O392 2.326 . S
In390 O396 2.266 . S
In390 O397 2.326 . S
In390 O398 2.266 1_556 S
In390 O399 2.326 . S
In390 O401 2.294 . S
In390 O402 2.326 . S
O391 In390 2.294 . S
O391 C400 1.240 . S
O392 In390 2.326 . S
O392 C400 1.252 . S
C393 O396 1.252 . S
C393 O397 1.260 . S
C394 O401 1.240 . S
C394 O402 1.252 . S
C395 O398 1.252 . S
C395 O399 1.260 1_554 S
O396 In390 2.266 . S
O396 C393 1.252 . S
O397 In390 2.326 . S
O397 C393 1.260 . S
O398 In390 2.266 1_554 S
O398 C395 1.252 . S
O399 In390 2.326 . S
O399 C395 1.260 1_556 S
C400 O391 1.240 . S
C400 O392 1.252 . S
O401 In390 2.294 . S
O401 C394 1.240 . S
O402 In390 2.326 . S
O402 C394 1.252 . S
In403 O404 2.294 . S
In403 O405 2.326 . S
In403 O409 2.266 . S
In403 O410 2.326 . S
In403 O411 2.266 . S
In403 O412 2.326 . S
In403 O414 2.294 . S
In403 O415 2.326 . S
O404 In403 2.294 . S
O404 C413 1.240 . S
O405 In403 2.326 . S
O405 C413 1.252 . S
C406 O409 1.252 . S
C406 O410 1.260 . S
C407 O414 1.240 . S
C407 O415 1.252 . S
C408 O411 1.252 . S
C408 O412 1.260 . S
O409 In403 2.266 . S
O409 C406 1.252 . S
O410 In403 2.326 . S
O410 C406 1.260 . S
O411 In403 2.266 . S
O411 C408 1.252 . S
O412 In403 2.326 . S
O412 C408 1.260 . S
C413 O404 1.240 . S
C413 O405 1.252 . S
O414 In403 2.294 . S
O414 C407 1.240 . S
O415 In403 2.326 . S
O415 C407 1.252 . S
C416 C417 1.363 . S
C416 C422 1.379 . S
C416 N424 1.356 . S
C417 C416 1.363 . S
C417 C423 1.363 1_545 S
C418 C419 1.363 . S
C418 C423 1.379 . S
C418 N425 1.356 . S
C419 C418 1.363 . S
C419 C422 1.363 1_565 S
N420 C422 1.356 . S
N420 H432 0.984 . S
N420 H433 0.985 1_545 S
N421 C423 1.356 . S
N421 H426 0.984 1_565 S
N421 H427 0.985 . S
C422 C416 1.379 . S
C422 C419 1.363 1_545 S
C422 N420 1.356 . S
C423 C417 1.363 1_565 S
C423 C418 1.379 . S
C423 N421 1.356 . S
N424 C416 1.356 . S
N424 H430 0.984 . S
N424 H431 0.984 . S
N425 C418 1.356 . S
N425 H428 0.984 . S
N425 H429 0.985 . S
H426 N421 0.984 1_545 S
H427 N421 0.985 . S
H428 N425 0.984 . S
H429 N425 0.985 . S
H430 N424 0.984 . S
H431 N424 0.984 . S
H432 N420 0.984 . S
H433 N420 0.985 1_565 S
C434 C435 1.363 . S
C434 C440 1.379 . S
C434 N442 1.356 . S
C435 C434 1.363 . S
C435 C441 1.363 . S
C436 C437 1.363 . S
C436 C441 1.379 . S
C436 N443 1.356 . S
C437 C436 1.363 . S
C437 C440 1.363 . S
N438 C440 1.356 . S
N438 H450 0.984 . S
N438 H451 0.985 . S
N439 C441 1.356 . S
N439 H444 0.984 . S
N439 H445 0.985 . S
C440 C434 1.379 . S
C440 C437 1.363 . S
C440 N438 1.356 . S
C441 C435 1.363 . S
C441 C436 1.379 . S
C441 N439 1.356 . S
N442 C434 1.356 . S
N442 H448 0.984 . S
N442 H449 0.984 . S
N443 C436 1.356 . S
N443 H446 0.984 . S
N443 H447 0.985 . S
H444 N439 0.984 . S
H445 N439 0.985 . S
H446 N443 0.984 . S
H447 N443 0.985 . S
H448 N442 0.984 . S
H449 N442 0.984 . S
H450 N438 0.984 . S
H451 N438 0.985 . S
C452 C453 1.363 . S
C452 C458 1.379 . S
C452 N460 1.356 . S
C453 C452 1.363 . S
C453 C459 1.363 1_545 S
C454 C455 1.363 . S
C454 C459 1.379 . S
C454 N461 1.356 . S
C455 C454 1.363 . S
C455 C458 1.363 1_565 S
N456 C458 1.356 . S
N456 H468 0.984 . S
N456 H469 0.985 1_545 S
N457 C459 1.356 . S
N457 H462 0.984 1_565 S
N457 H463 0.985 . S
C458 C452 1.379 . S
C458 C455 1.363 1_545 S
C458 N456 1.356 . S
C459 C453 1.363 1_565 S
C459 C454 1.379 . S
C459 N457 1.356 . S
N460 C452 1.356 . S
N460 H466 0.984 . S
N460 H467 0.984 . S
N461 C454 1.356 . S
N461 H464 0.984 . S
N461 H465 0.985 . S
H462 N457 0.984 1_545 S
H463 N457 0.985 . S
H464 N461 0.984 . S
H465 N461 0.985 . S
H466 N460 0.984 . S
H467 N460 0.984 . S
H468 N456 0.984 . S
H469 N456 0.985 1_565 S
C470 C471 1.363 . S
C470 C476 1.379 1_556 S
C470 N478 1.356 . S
C471 C470 1.363 . S
C471 C477 1.363 . S
C472 C473 1.363 . S
C472 C477 1.379 1_554 S
C472 N479 1.356 . S
C473 C472 1.363 . S
C473 C476 1.363 . S
N474 C476 1.356 . S
N474 H486 0.984 . S
N474 H487 0.985 . S
N475 C477 1.356 . S
N475 H480 0.984 . S
N475 H481 0.985 . S
C476 C470 1.379 1_554 S
C476 C473 1.363 . S
C476 N474 1.356 . S
C477 C471 1.363 . S
C477 C472 1.379 1_556 S
C477 N475 1.356 . S
N478 C470 1.356 . S
N478 H484 0.984 . S
N478 H485 0.984 . S
N479 C472 1.356 . S
N479 H482 0.984 . S
N479 H483 0.985 . S
H480 N475 0.984 . S
H481 N475 0.985 . S
H482 N479 0.984 . S
H483 N479 0.985 . S
H484 N478 0.984 . S
H485 N478 0.984 . S
H486 N474 0.984 . S
H487 N474 0.985 . S
C488 C489 1.363 . S
C488 C494 1.379 . S
C488 N496 1.356 . S
C489 C488 1.363 . S
C489 C495 1.363 1_565 S
C490 C491 1.363 . S
C490 C495 1.379 . S
C490 N497 1.356 . S
C491 C490 1.363 . S
C491 C494 1.363 1_545 S
N492 C494 1.356 1_545 S
N492 H504 0.984 1_545 S
N492 H505 0.985 . S
N493 C495 1.356 1_565 S
N493 H498 0.984 . S
N493 H499 0.985 1_565 S
C494 C488 1.379 . S
C494 C491 1.363 1_565 S
C494 N492 1.356 1_565 S
C495 C489 1.363 1_545 S
C495 C490 1.379 . S
C495 N493 1.356 1_545 S
N496 C488 1.356 . S
N496 H502 0.984 . S
N496 H503 0.984 . S
N497 C490 1.356 . S
N497 H500 0.984 . S
N497 H501 0.985 . S
H498 N493 0.984 . S
H499 N493 0.985 1_545 S
H500 N497 0.984 . S
H501 N497 0.985 . S
H502 N496 0.984 . S
H503 N496 0.984 . S
H504 N492 0.984 1_565 S
H505 N492 0.985 . S
C506 C507 1.363 . S
C506 C512 1.379 . S
C506 N514 1.356 . S
C507 C506 1.363 . S
C507 C513 1.363 . S
C508 C509 1.363 . S
C508 C513 1.379 . S
C508 N515 1.356 . S
C509 C508 1.363 . S
C509 C512 1.363 . S
N510 C512 1.356 . S
N510 H522 0.984 . S
N510 H523 0.985 . S
N511 C513 1.356 . S
N511 H516 0.984 . S
N511 H517 0.985 . S
C512 C506 1.379 . S
C512 C509 1.363 . S
C512 N510 1.356 . S
C513 C507 1.363 . S
C513 C508 1.379 . S
C513 N511 1.356 . S
N514 C506 1.356 . S
N514 H520 0.984 . S
N514 H521 0.984 . S
N515 C508 1.356 . S
N515 H518 0.984 . S
N515 H519 0.985 . S
H516 N511 0.984 . S
H517 N511 0.985 . S
H518 N515 0.984 . S
H519 N515 0.985 . S
H520 N514 0.984 . S
H521 N514 0.984 . S
H522 N510 0.984 . S
H523 N510 0.985 . S
C524 C525 1.363 . S
C524 C530 1.379 . S
C524 N532 1.356 . S
C525 C524 1.363 . S
C525 C531 1.363 1_565 S
C526 C527 1.363 . S
C526 C531 1.379 . S
C526 N533 1.356 . S
C527 C526 1.363 . S
C527 C530 1.363 1_545 S
N528 C530 1.356 . S
N528 H540 0.984 . S
N528 H541 0.985 1_565 S
N529 C531 1.356 . S
N529 H534 0.984 1_545 S
N529 H535 0.985 . S
C530 C524 1.379 . S
C530 C527 1.363 1_565 S
C530 N528 1.356 . S
C531 C525 1.363 1_545 S
C531 C526 1.379 . S
C531 N529 1.356 . S
N532 C524 1.356 . S
N532 H538 0.984 . S
N532 H539 0.984 . S
N533 C526 1.356 . S
N533 H536 0.984 . S
N533 H537 0.985 . S
H534 N529 0.984 1_565 S
H535 N529 0.985 . S
H536 N533 0.984 . S
H537 N533 0.985 . S
H538 N532 0.984 . S
H539 N532 0.984 . S
H540 N528 0.984 . S
H541 N528 0.985 1_545 S
C542 C543 1.363 . S
C542 C548 1.379 1_556 S
C542 N550 1.356 . S
C543 C542 1.363 . S
C543 C549 1.363 . S
C544 C545 1.363 . S
C544 C549 1.379 1_554 S
C544 N551 1.356 . S
C545 C544 1.363 . S
C545 C548 1.363 . S
N546 C548 1.356 . S
N546 H558 0.984 . S
N546 H559 0.985 . S
N547 C549 1.356 . S
N547 H552 0.984 . S
N547 H553 0.985 . S
C548 C542 1.379 1_554 S
C548 C545 1.363 . S
C548 N546 1.356 . S
C549 C543 1.363 . S
C549 C544 1.379 1_556 S
C549 N547 1.356 . S
N550 C542 1.356 . S
N550 H556 0.984 . S
N550 H557 0.984 . S
N551 C544 1.356 . S
N551 H554 0.984 . S
N551 H555 0.985 . S
H552 N547 0.984 . S
H553 N547 0.985 . S
H554 N551 0.984 . S
H555 N551 0.985 . S
H556 N550 0.984 . S
H557 N550 0.984 . S
H558 N546 0.984 . S
H559 N546 0.985 . S
C560 C561 1.363 . S
C560 C566 1.379 . S
C560 N568 1.356 . S
C561 C560 1.363 . S
C561 C567 1.363 . S
C562 C563 1.363 . S
C562 C567 1.379 . S
C562 N569 1.356 . S
C563 C562 1.363 . S
C563 C566 1.363 . S
N564 C566 1.356 . S
N564 H576 0.984 . S
N564 H577 0.985 . S
N565 C567 1.356 . S
N565 H570 0.984 . S
N565 H571 0.985 . S
C566 C560 1.379 . S
C566 C563 1.363 . S
C566 N564 1.356 . S
C567 C561 1.363 . S
C567 C562 1.379 . S
C567 N565 1.356 . S
N568 C560 1.356 . S
N568 H574 0.984 . S
N568 H575 0.984 . S
N569 C562 1.356 . S
N569 H572 0.984 . S
N569 H573 0.985 . S
H570 N565 0.984 . S
H571 N565 0.985 . S
H572 N569 0.984 . S
H573 N569 0.985 . S
H574 N568 0.984 . S
H575 N568 0.984 . S
H576 N564 0.984 . S
H577 N564 0.985 . S
C578 C579 1.363 . S
C578 C584 1.379 1_556 S
C578 N586 1.356 . S
C579 C578 1.363 . S
C579 C585 1.363 . S
C580 C581 1.363 . S
C580 C585 1.379 1_554 S
C580 N587 1.356 . S
C581 C580 1.363 . S
C581 C584 1.363 . S
N582 C584 1.356 . S
N582 H594 0.984 . S
N582 H595 0.985 . S
N583 C585 1.356 . S
N583 H588 0.984 . S
N583 H589 0.985 . S
C584 C578 1.379 1_554 S
C584 C581 1.363 . S
C584 N582 1.356 . S
C585 C579 1.363 . S
C585 C580 1.379 1_556 S
C585 N583 1.356 . S
N586 C578 1.356 . S
N586 H592 0.984 . S
N586 H593 0.984 . S
N587 C580 1.356 . S
N587 H590 0.984 . S
N587 H591 0.985 . S
H588 N583 0.984 . S
H589 N583 0.985 . S
H590 N587 0.984 . S
H591 N587 0.985 . S
H592 N586 0.984 . S
H593 N586 0.984 . S
H594 N582 0.984 . S
H595 N582 0.985 . S
C596 C597 1.363 . S
C596 C602 1.379 . S
C596 N604 1.356 . S
C597 C596 1.363 . S
C597 C603 1.363 . S
C598 C599 1.363 . S
C598 C603 1.379 . S
C598 N605 1.356 . S
C599 C598 1.363 . S
C599 C602 1.363 . S
N600 C602 1.356 . S
N600 H612 0.984 . S
N600 H613 0.985 . S
N601 C603 1.356 . S
N601 H606 0.984 . S
N601 H607 0.985 . S
C602 C596 1.379 . S
C602 C599 1.363 . S
C602 N600 1.356 . S
C603 C597 1.363 . S
C603 C598 1.379 . S
C603 N601 1.356 . S
N604 C596 1.356 . S
N604 H610 0.984 . S
N604 H611 0.984 . S
N605 C598 1.356 . S
N605 H608 0.984 . S
N605 H609 0.985 . S
H606 N601 0.984 . S
H607 N601 0.985 . S
H608 N605 0.984 . S
H609 N605 0.985 . S
H610 N604 0.984 . S
H611 N604 0.984 . S
H612 N600 0.984 . S
H613 N600 0.985 . S
C614 C615 1.363 . S
C614 C620 1.379 . S
C614 N622 1.356 . S
C615 C614 1.363 . S
C615 C621 1.363 . S
C616 C617 1.363 . S
C616 C621 1.379 . S
C616 N623 1.356 . S
C617 C616 1.363 . S
C617 C620 1.363 . S
N618 C620 1.356 . S
N618 H630 0.984 . S
N618 H631 0.985 . S
N619 C621 1.356 . S
N619 H624 0.984 . S
N619 H625 0.985 . S
C620 C614 1.379 . S
C620 C617 1.363 . S
C620 N618 1.356 . S
C621 C615 1.363 . S
C621 C616 1.379 . S
C621 N619 1.356 . S
N622 C614 1.356 . S
N622 H628 0.984 . S
N622 H629 0.984 . S
N623 C616 1.356 . S
N623 H626 0.984 . S
N623 H627 0.985 . S
H624 N619 0.984 . S
H625 N619 0.985 . S
H626 N623 0.984 . S
H627 N623 0.985 . S
H628 N622 0.984 . S
H629 N622 0.984 . S
H630 N618 0.984 . S
H631 N618 0.985 . S
C632 C633 1.363 . S
C632 C638 1.379 . S
C632 N640 1.356 . S
C633 C632 1.363 . S
C633 C639 1.363 . S
C634 C635 1.363 . S
C634 C639 1.379 . S
C634 N641 1.356 . S
C635 C634 1.363 . S
C635 C638 1.363 . S
N636 C638 1.356 . S
N636 H648 0.984 . S
N636 H649 0.985 . S
N637 C639 1.356 . S
N637 H642 0.984 . S
N637 H643 0.985 . S
C638 C632 1.379 . S
C638 C635 1.363 . S
C638 N636 1.356 . S
C639 C633 1.363 . S
C639 C634 1.379 . S
C639 N637 1.356 . S
N640 C632 1.356 . S
N640 H646 0.984 . S
N640 H647 0.984 . S
N641 C634 1.356 . S
N641 H644 0.984 . S
N641 H645 0.985 . S
H642 N637 0.984 . S
H643 N637 0.985 . S
H644 N641 0.984 . S
H645 N641 0.985 . S
H646 N640 0.984 . S
H647 N640 0.984 . S
H648 N636 0.984 . S
H649 N636 0.985 . S
C650 C651 1.363 . S
C650 C656 1.379 1_554 S
C650 N658 1.356 . S
C651 C650 1.363 . S
C651 C657 1.363 . S
C652 C653 1.363 . S
C652 C657 1.379 1_556 S
C652 N659 1.356 . S
C653 C652 1.363 . S
C653 C656 1.363 . S
N654 C656 1.356 . S
N654 H666 0.984 . S
N654 H667 0.985 . S
N655 C657 1.356 . S
N655 H660 0.984 . S
N655 H661 0.985 . S
C656 C650 1.379 1_556 S
C656 C653 1.363 . S
C656 N654 1.356 . S
C657 C651 1.363 . S
C657 C652 1.379 1_554 S
C657 N655 1.356 . S
N658 C650 1.356 . S
N658 H664 0.984 . S
N658 H665 0.984 . S
N659 C652 1.356 . S
N659 H662 0.984 . S
N659 H663 0.985 . S
H660 N655 0.984 . S
H661 N655 0.985 . S
H662 N659 0.984 . S
H663 N659 0.985 . S
H664 N658 0.984 . S
H665 N658 0.984 . S
H666 N654 0.984 . S
H667 N654 0.985 . S
C668 C669 1.363 . S
C668 C674 1.379 . S
C668 N676 1.356 . S
C669 C668 1.363 . S
C669 C675 1.363 . S
C670 C671 1.363 . S
C670 C675 1.379 . S
C670 N677 1.356 . S
C671 C670 1.363 . S
C671 C674 1.363 . S
N672 C674 1.356 . S
N672 H684 0.984 . S
N672 H685 0.985 . S
N673 C675 1.356 . S
N673 H678 0.984 . S
N673 H679 0.985 . S
C674 C668 1.379 . S
C674 C671 1.363 . S
C674 N672 1.356 . S
C675 C669 1.363 . S
C675 C670 1.379 . S
C675 N673 1.356 . S
N676 C668 1.356 . S
N676 H682 0.984 . S
N676 H683 0.984 . S
N677 C670 1.356 . S
N677 H680 0.984 . S
N677 H681 0.985 . S
H678 N673 0.984 . S
H679 N673 0.985 . S
H680 N677 0.984 . S
H681 N677 0.985 . S
H682 N676 0.984 . S
H683 N676 0.984 . S
H684 N672 0.984 . S
H685 N672 0.985 . S
C686 C687 1.363 . S
C686 C692 1.379 . S
C686 N694 1.356 . S
C687 C686 1.363 . S
C687 C693 1.363 . S
C688 C689 1.363 . S
C688 C693 1.379 . S
C688 N695 1.356 . S
C689 C688 1.363 . S
C689 C692 1.363 . S
N690 C692 1.356 . S
N690 H702 0.984 . S
N690 H703 0.985 . S
N691 C693 1.356 . S
N691 H696 0.984 . S
N691 H697 0.985 . S
C692 C686 1.379 . S
C692 C689 1.363 . S
C692 N690 1.356 . S
C693 C687 1.363 . S
C693 C688 1.379 . S
C693 N691 1.356 . S
N694 C686 1.356 . S
N694 H700 0.984 . S
N694 H701 0.984 . S
N695 C688 1.356 . S
N695 H698 0.984 . S
N695 H699 0.985 . S
H696 N691 0.984 . S
H697 N691 0.985 . S
H698 N695 0.984 . S
H699 N695 0.985 . S
H700 N694 0.984 . S
H701 N694 0.984 . S
H702 N690 0.984 . S
H703 N690 0.985 . S
C704 C705 1.363 . S
C704 C710 1.379 . S
C704 N712 1.356 . S
C705 C704 1.363 . S
C705 C711 1.363 . S
C706 C707 1.363 . S
C706 C711 1.379 . S
C706 N713 1.356 . S
C707 C706 1.363 . S
C707 C710 1.363 . S
N708 C710 1.356 . S
N708 H720 0.984 . S
N708 H721 0.985 . S
N709 C711 1.356 . S
N709 H714 0.984 . S
N709 H715 0.985 . S
C710 C704 1.379 . S
C710 C707 1.363 . S
C710 N708 1.356 . S
C711 C705 1.363 . S
C711 C706 1.379 . S
C711 N709 1.356 . S
N712 C704 1.356 . S
N712 H718 0.984 . S
N712 H719 0.984 . S
N713 C706 1.356 . S
N713 H716 0.984 . S
N713 H717 0.985 . S
H714 N709 0.984 . S
H715 N709 0.985 . S
H716 N713 0.984 . S
H717 N713 0.985 . S
H718 N712 0.984 . S
H719 N712 0.984 . S
H720 N708 0.984 . S
H721 N708 0.985 . S
C722 C723 1.363 1_455 S
C722 C728 1.379 . S
C722 N730 1.356 1_455 S
C723 C722 1.363 1_655 S
C723 C729 1.363 1_655 S
C724 C725 1.363 . S
C724 C729 1.379 . S
C724 N731 1.356 . S
C725 C724 1.363 . S
C725 C728 1.363 . S
N726 C728 1.356 . S
N726 H738 0.984 . S
N726 H739 0.985 . S
N727 C729 1.356 1_655 S
N727 H732 0.984 . S
N727 H733 0.985 . S
C728 C722 1.379 . S
C728 C725 1.363 . S
C728 N726 1.356 . S
C729 C723 1.363 1_455 S
C729 C724 1.379 . S
C729 N727 1.356 1_455 S
N730 C722 1.356 1_655 S
N730 H736 0.984 . S
N730 H737 0.984 . S
N731 C724 1.356 . S
N731 H734 0.984 . S
N731 H735 0.985 . S
H732 N727 0.984 . S
H733 N727 0.985 . S
H734 N731 0.984 . S
H735 N731 0.985 . S
H736 N730 0.984 . S
H737 N730 0.984 . S
H738 N726 0.984 . S
H739 N726 0.985 . S
C740 C741 1.363 . S
C740 C746 1.379 . S
C740 N748 1.356 . S
C741 C740 1.363 . S
C741 C747 1.363 . S
C742 C743 1.363 . S
C742 C747 1.379 . S
C742 N749 1.356 . S
C743 C742 1.363 . S
C743 C746 1.363 . S
N744 C746 1.356 . S
N744 H756 0.984 1_556 S
N744 H757 0.985 . S
N745 C747 1.356 . S
N745 H750 0.984 . S
N745 H751 0.985 . S
C746 C740 1.379 . S
C746 C743 1.363 . S
C746 N744 1.356 . S
C747 C741 1.363 . S
C747 C742 1.379 . S
C747 N745 1.356 . S
N748 C740 1.356 . S
N748 H754 0.984 1_556 S
N748 H755 0.984 . S
N749 C742 1.356 . S
N749 H752 0.984 . S
N749 H753 0.985 . S
H750 N745 0.984 . S
H751 N745 0.985 . S
H752 N749 0.984 . S
H753 N749 0.985 . S
H754 N748 0.984 1_554 S
H755 N748 0.984 . S
H756 N744 0.984 1_554 S
H757 N744 0.985 . S
C758 C759 1.363 . S
C758 C764 1.379 . S
C758 N766 1.356 . S
C759 C758 1.363 . S
C759 C765 1.363 . S
C760 C761 1.363 . S
C760 C765 1.379 . S
C760 N767 1.356 . S
C761 C760 1.363 . S
C761 C764 1.363 . S
N762 C764 1.356 . S
N762 H774 0.984 . S
N762 H775 0.985 . S
N763 C765 1.356 . S
N763 H768 0.984 . S
N763 H769 0.985 . S
C764 C758 1.379 . S
C764 C761 1.363 . S
C764 N762 1.356 . S
C765 C759 1.363 . S
C765 C760 1.379 . S
C765 N763 1.356 . S
N766 C758 1.356 . S
N766 H772 0.984 . S
N766 H773 0.984 . S
N767 C760 1.356 . S
N767 H770 0.984 . S
N767 H771 0.985 . S
H768 N763 0.984 . S
H769 N763 0.985 . S
H770 N767 0.984 . S
H771 N767 0.985 . S
H772 N766 0.984 . S
H773 N766 0.984 . S
H774 N762 0.984 . S
H775 N762 0.985 . S
C776 C777 1.363 . S
C776 C782 1.379 . S
C776 N784 1.356 . S
C777 C776 1.363 . S
C777 C783 1.363 . S
C778 C779 1.363 . S
C778 C783 1.379 . S
C778 N785 1.356 . S
C779 C778 1.363 . S
C779 C782 1.363 . S
N780 C782 1.356 . S
N780 H792 0.984 . S
N780 H793 0.985 . S
N781 C783 1.356 . S
N781 H786 0.984 . S
N781 H787 0.985 1_554 S
C782 C776 1.379 . S
C782 C779 1.363 . S
C782 N780 1.356 . S
C783 C777 1.363 . S
C783 C778 1.379 . S
C783 N781 1.356 . S
N784 C776 1.356 . S
N784 H790 0.984 . S
N784 H791 0.984 . S
N785 C778 1.356 . S
N785 H788 0.984 . S
N785 H789 0.985 1_554 S
H786 N781 0.984 . S
H787 N781 0.985 1_556 S
H788 N785 0.984 . S
H789 N785 0.985 1_556 S
H790 N784 0.984 . S
H791 N784 0.984 . S
H792 N780 0.984 . S
H793 N780 0.985 . S
C794 C795 1.363 . S
C794 C800 1.379 . S
C794 N802 1.356 . S
C795 C794 1.363 . S
C795 C801 1.363 . S
C796 C797 1.363 . S
C796 C801 1.379 . S
C796 N803 1.356 . S
C797 C796 1.363 . S
C797 C800 1.363 . S
N798 C800 1.356 . S
N798 H810 0.984 . S
N798 H811 0.985 . S
N799 C801 1.356 . S
N799 H804 0.984 . S
N799 H805 0.985 . S
C800 C794 1.379 . S
C800 C797 1.363 . S
C800 N798 1.356 . S
C801 C795 1.363 . S
C801 C796 1.379 . S
C801 N799 1.356 . S
N802 C794 1.356 . S
N802 H808 0.984 . S
N802 H809 0.984 . S
N803 C796 1.356 . S
N803 H806 0.984 . S
N803 H807 0.985 . S
H804 N799 0.984 . S
H805 N799 0.985 . S
H806 N803 0.984 . S
H807 N803 0.985 . S
H808 N802 0.984 . S
H809 N802 0.984 . S
H810 N798 0.984 . S
H811 N798 0.985 . S
C812 C813 1.363 . S
C812 C818 1.379 . S
C812 N820 1.356 . S
C813 C812 1.363 . S
C813 C819 1.363 . S
C814 C815 1.363 . S
C814 C819 1.379 . S
C814 N821 1.356 . S
C815 C814 1.363 . S
C815 C818 1.363 . S
N816 C818 1.356 . S
N816 H828 0.984 . S
N816 H829 0.985 . S
N817 C819 1.356 . S
N817 H822 0.984 . S
N817 H823 0.985 . S
C818 C812 1.379 . S
C818 C815 1.363 . S
C818 N816 1.356 . S
C819 C813 1.363 . S
C819 C814 1.379 . S
C819 N817 1.356 . S
N820 C812 1.356 . S
N820 H826 0.984 . S
N820 H827 0.984 . S
N821 C814 1.356 . S
N821 H824 0.984 . S
N821 H825 0.985 . S
H822 N817 0.984 . S
H823 N817 0.985 . S
H824 N821 0.984 . S
H825 N821 0.985 . S
H826 N820 0.984 . S
H827 N820 0.984 . S
H828 N816 0.984 . S
H829 N816 0.985 . S
C830 C831 1.363 . S
C830 C836 1.379 . S
C830 N838 1.356 . S
C831 C830 1.363 . S
C831 C837 1.363 . S
C832 C833 1.363 1_455 S
C832 C837 1.379 . S
C832 N839 1.356 1_455 S
C833 C832 1.363 1_655 S
C833 C836 1.363 1_655 S
N834 C836 1.356 1_655 S
N834 H846 0.984 . S
N834 H847 0.985 . S
N835 C837 1.356 . S
N835 H840 0.984 . S
N835 H841 0.985 . S
C836 C830 1.379 . S
C836 C833 1.363 1_455 S
C836 N834 1.356 1_455 S
C837 C831 1.363 . S
C837 C832 1.379 . S
C837 N835 1.356 . S
N838 C830 1.356 . S
N838 H844 0.984 . S
N838 H845 0.984 . S
N839 C832 1.356 1_655 S
N839 H842 0.984 . S
N839 H843 0.985 . S
H840 N835 0.984 . S
H841 N835 0.985 . S
H842 N839 0.984 . S
H843 N839 0.985 . S
H844 N838 0.984 . S
H845 N838 0.984 . S
H846 N834 0.984 . S
H847 N834 0.985 . S
C848 C849 1.363 . S
C848 C854 1.379 . S
C848 N856 1.356 . S
C849 C848 1.363 . S
C849 C855 1.363 . S
C850 C851 1.363 . S
C850 C855 1.379 . S
C850 N857 1.356 . S
C851 C850 1.363 . S
C851 C854 1.363 . S
N852 C854 1.356 . S
N852 H864 0.984 . S
N852 H865 0.985 . S
N853 C855 1.356 . S
N853 H858 0.984 . S
N853 H859 0.985 . S
C854 C848 1.379 . S
C854 C851 1.363 . S
C854 N852 1.356 . S
C855 C849 1.363 . S
C855 C850 1.379 . S
C855 N853 1.356 . S
N856 C848 1.356 . S
N856 H862 0.984 . S
N856 H863 0.984 . S
N857 C850 1.356 . S
N857 H860 0.984 . S
N857 H861 0.985 . S
H858 N853 0.984 . S
H859 N853 0.985 . S
H860 N857 0.984 . S
H861 N857 0.985 . S
H862 N856 0.984 . S
H863 N856 0.984 . S
H864 N852 0.984 . S
H865 N852 0.985 . S
C866 C867 1.363 . S
C866 C872 1.379 . S
C866 N874 1.356 . S
C867 C866 1.363 . S
C867 C873 1.363 . S
C868 C869 1.363 1_655 S
C868 C873 1.379 . S
C868 N875 1.356 1_655 S
C869 C868 1.363 1_455 S
C869 C872 1.363 1_455 S
N870 C872 1.356 1_455 S
N870 H882 0.984 . S
N870 H883 0.985 . S
N871 C873 1.356 . S
N871 H876 0.984 . S
N871 H877 0.985 . S
C872 C866 1.379 . S
C872 C869 1.363 1_655 S
C872 N870 1.356 1_655 S
C873 C867 1.363 . S
C873 C868 1.379 . S
C873 N871 1.356 . S
N874 C866 1.356 . S
N874 H880 0.984 . S
N874 H881 0.984 . S
N875 C868 1.356 1_455 S
N875 H878 0.984 . S
N875 H879 0.985 . S
H876 N871 0.984 . S
H877 N871 0.985 . S
H878 N875 0.984 . S
H879 N875 0.985 . S
H880 N874 0.984 . S
H881 N874 0.984 . S
H882 N870 0.984 . S
H883 N870 0.985 . S
C884 C885 1.363 . S
C884 C890 1.379 . S
C884 N892 1.356 . S
C885 C884 1.363 . S
C885 C891 1.363 . S
C886 C887 1.363 . S
C886 C891 1.379 . S
C886 N893 1.356 . S
C887 C886 1.363 . S
C887 C890 1.363 . S
N888 C890 1.356 . S
N888 H900 0.984 1_554 S
N888 H901 0.985 . S
N889 C891 1.356 . S
N889 H894 0.984 . S
N889 H895 0.985 . S
C890 C884 1.379 . S
C890 C887 1.363 . S
C890 N888 1.356 . S
C891 C885 1.363 . S
C891 C886 1.379 . S
C891 N889 1.356 . S
N892 C884 1.356 . S
N892 H898 0.984 1_554 S
N892 H899 0.984 . S
N893 C886 1.356 . S
N893 H896 0.984 . S
N893 H897 0.985 . S
H894 N889 0.984 . S
H895 N889 0.985 . S
H896 N893 0.984 . S
H897 N893 0.985 . S
H898 N892 0.984 1_556 S
H899 N892 0.984 . S
H900 N888 0.984 1_556 S
H901 N888 0.985 . S
C902 C903 1.363 . S
C902 C908 1.379 . S
C902 N910 1.356 . S
C903 C902 1.363 . S
C903 C909 1.363 . S
C904 C905 1.363 . S
C904 C909 1.379 . S
C904 N911 1.356 . S
C905 C904 1.363 . S
C905 C908 1.363 . S
N906 C908 1.356 . S
N906 H918 0.984 . S
N906 H919 0.985 . S
N907 C909 1.356 . S
N907 H912 0.984 . S
N907 H913 0.985 . S
C908 C902 1.379 . S
C908 C905 1.363 . S
C908 N906 1.356 . S
C909 C903 1.363 . S
C909 C904 1.379 . S
C909 N907 1.356 . S
N910 C902 1.356 . S
N910 H916 0.984 . S
N910 H917 0.984 . S
N911 C904 1.356 . S
N911 H914 0.984 . S
N911 H915 0.985 . S
H912 N907 0.984 . S
H913 N907 0.985 . S
H914 N911 0.984 . S
H915 N911 0.985 . S
H916 N910 0.984 . S
H917 N910 0.984 . S
H918 N906 0.984 . S
H919 N906 0.985 . S
C920 C921 1.363 . S
C920 C926 1.379 . S
C920 N928 1.356 . S
C921 C920 1.363 . S
C921 C927 1.363 . S
C922 C923 1.363 . S
C922 C927 1.379 . S
C922 N929 1.356 . S
C923 C922 1.363 . S
C923 C926 1.363 . S
N924 C926 1.356 . S
N924 H936 0.984 . S
N924 H937 0.985 . S
N925 C927 1.356 . S
N925 H930 0.984 . S
N925 H931 0.985 1_556 S
C926 C920 1.379 . S
C926 C923 1.363 . S
C926 N924 1.356 . S
C927 C921 1.363 . S
C927 C922 1.379 . S
C927 N925 1.356 . S
N928 C920 1.356 . S
N928 H934 0.984 . S
N928 H935 0.984 . S
N929 C922 1.356 . S
N929 H932 0.984 . S
N929 H933 0.985 1_556 S
H930 N925 0.984 . S
H931 N925 0.985 1_554 S
H932 N929 0.984 . S
H933 N929 0.985 1_554 S
H934 N928 0.984 . S
H935 N928 0.984 . S
H936 N924 0.984 . S
H937 N924 0.985 . S
C938 C939 1.363 . S
C938 C944 1.379 . S
C938 N946 1.356 . S
C939 C938 1.363 . S
C939 C945 1.363 . S
C940 C941 1.363 . S
C940 C945 1.379 . S
C940 N947 1.356 . S
C941 C940 1.363 . S
C941 C944 1.363 . S
N942 C944 1.356 . S
N942 H954 0.984 . S
N942 H955 0.985 . S
N943 C945 1.356 . S
N943 H948 0.984 . S
N943 H949 0.985 . S
C944 C938 1.379 . S
C944 C941 1.363 . S
C944 N942 1.356 . S
C945 C939 1.363 . S
C945 C940 1.379 . S
C945 N943 1.356 . S
N946 C938 1.356 . S
N946 H952 0.984 . S
N946 H953 0.984 . S
N947 C940 1.356 . S
N947 H950 0.984 . S
N947 H951 0.985 . S
H948 N943 0.984 . S
H949 N943 0.985 . S
H950 N947 0.984 . S
H951 N947 0.985 . S
H952 N946 0.984 . S
H953 N946 0.984 . S
H954 N942 0.984 . S
H955 N942 0.985 . S
C956 C957 1.363 . S
C956 C962 1.379 . S
C956 N964 1.356 . S
C957 C956 1.363 . S
C957 C963 1.363 . S
C958 C959 1.363 . S
C958 C963 1.379 . S
C958 N965 1.356 . S
C959 C958 1.363 . S
C959 C962 1.363 . S
N960 C962 1.356 . S
N960 H972 0.984 . S
N960 H973 0.985 . S
N961 C963 1.356 . S
N961 H966 0.984 . S
N961 H967 0.985 . S
C962 C956 1.379 . S
C962 C959 1.363 . S
C962 N960 1.356 . S
C963 C957 1.363 . S
C963 C958 1.379 . S
C963 N961 1.356 . S
N964 C956 1.356 . S
N964 H970 0.984 . S
N964 H971 0.984 . S
N965 C958 1.356 . S
N965 H968 0.984 . S
N965 H969 0.985 . S
H966 N961 0.984 . S
H967 N961 0.985 . S
H968 N965 0.984 . S
H969 N965 0.985 . S
H970 N964 0.984 . S
H971 N964 0.984 . S
H972 N960 0.984 . S
H973 N960 0.985 . S
C974 C975 1.363 . S
C974 C980 1.379 . S
C974 N982 1.356 . S
C975 C974 1.363 . S
C975 C981 1.363 . S
C976 C977 1.363 1_655 S
C976 C981 1.379 . S
C976 N983 1.356 1_655 S
C977 C976 1.363 1_455 S
C977 C980 1.363 1_455 S
N978 C980 1.356 1_455 S
N978 H990 0.984 . S
N978 H991 0.985 . S
N979 C981 1.356 . S
N979 H984 0.984 . S
N979 H985 0.985 . S
C980 C974 1.379 . S
C980 C977 1.363 1_655 S
C980 N978 1.356 1_655 S
C981 C975 1.363 . S
C981 C976 1.379 . S
C981 N979 1.356 . S
N982 C974 1.356 . S
N982 H988 0.984 . S
N982 H989 0.984 . S
N983 C976 1.356 1_455 S
N983 H986 0.984 . S
N983 H987 0.985 . S
H984 N979 0.984 . S
H985 N979 0.985 . S
H986 N983 0.984 . S
H987 N983 0.985 . S
H988 N982 0.984 . S
H989 N982 0.984 . S
H990 N978 0.984 . S
H991 N978 0.985 . S
C992 C993 1.363 . S
C992 C998 1.379 . S
C992 N1000 1.356 . S
C993 C992 1.363 . S
C993 C999 1.363 . S
C994 C995 1.363 . S
C994 C999 1.379 . S
C994 N1001 1.356 . S
C995 C994 1.363 . S
C995 C998 1.363 . S
N996 C998 1.356 . S
N996 H1008 0.984 1_556 S
N996 H1009 0.985 . S
N997 C999 1.356 . S
N997 H1002 0.984 . S
N997 H1003 0.985 . S
C998 C992 1.379 . S
C998 C995 1.363 . S
C998 N996 1.356 . S
C999 C993 1.363 . S
C999 C994 1.379 . S
C999 N997 1.356 . S
N1000 C992 1.356 . S
N1000 H1006 0.984 1_556 S
N1000 H1007 0.984 . S
N1001 C994 1.356 . S
N1001 H1004 0.984 . S
N1001 H1005 0.985 . S
H1002 N997 0.984 . S
H1003 N997 0.985 . S
H1004 N1001 0.984 . S
H1005 N1001 0.985 . S
H1006 N1000 0.984 1_554 S
H1007 N1000 0.984 . S
H1008 N996 0.984 1_554 S
H1009 N996 0.985 . S
C1010 C1011 1.363 . S
C1010 C1016 1.379 . S
C1010 N1018 1.356 . S
C1011 C1010 1.363 . S
C1011 C1017 1.363 . S
C1012 C1013 1.363 . S
C1012 C1017 1.379 . S
C1012 N1019 1.356 . S
C1013 C1012 1.363 . S
C1013 C1016 1.363 . S
N1014 C1016 1.356 . S
N1014 H1026 0.984 . S
N1014 H1027 0.985 . S
N1015 C1017 1.356 . S
N1015 H1020 0.984 . S
N1015 H1021 0.985 . S
C1016 C1010 1.379 . S
C1016 C1013 1.363 . S
C1016 N1014 1.356 . S
C1017 C1011 1.363 . S
C1017 C1012 1.379 . S
C1017 N1015 1.356 . S
N1018 C1010 1.356 . S
N1018 H1024 0.984 . S
N1018 H1025 0.984 . S
N1019 C1012 1.356 . S
N1019 H1022 0.984 . S
N1019 H1023 0.985 . S
H1020 N1015 0.984 . S
H1021 N1015 0.985 . S
H1022 N1019 0.984 . S
H1023 N1019 0.985 . S
H1024 N1018 0.984 . S
H1025 N1018 0.984 . S
H1026 N1014 0.984 . S
H1027 N1014 0.985 . S
C1028 C1029 1.363 . S
C1028 C1034 1.379 . S
C1028 N1036 1.356 . S
C1029 C1028 1.363 . S
C1029 C1035 1.363 . S
C1030 C1031 1.363 . S
C1030 C1035 1.379 . S
C1030 N1037 1.356 . S
C1031 C1030 1.363 . S
C1031 C1034 1.363 . S
N1032 C1034 1.356 . S
N1032 H1044 0.984 . S
N1032 H1045 0.985 . S
N1033 C1035 1.356 . S
N1033 H1038 0.984 . S
N1033 H1039 0.985 . S
C1034 C1028 1.379 . S
C1034 C1031 1.363 . S
C1034 N1032 1.356 . S
C1035 C1029 1.363 . S
C1035 C1030 1.379 . S
C1035 N1033 1.356 . S
N1036 C1028 1.356 . S
N1036 H1042 0.984 . S
N1036 H1043 0.984 . S
N1037 C1030 1.356 . S
N1037 H1040 0.984 . S
N1037 H1041 0.985 . S
H1038 N1033 0.984 . S
H1039 N1033 0.985 . S
H1040 N1037 0.984 . S
H1041 N1037 0.985 . S
H1042 N1036 0.984 . S
H1043 N1036 0.984 . S
H1044 N1032 0.984 . S
H1045 N1032 0.985 . S
C1046 C1047 1.363 . S
C1046 C1052 1.379 . S
C1046 N1054 1.356 . S
C1047 C1046 1.363 . S
C1047 C1053 1.363 . S
C1048 C1049 1.363 1_655 S
C1048 C1053 1.379 . S
C1048 N1055 1.356 1_655 S
C1049 C1048 1.363 1_455 S
C1049 C1052 1.363 1_455 S
N1050 C1052 1.356 1_455 S
N1050 H1062 0.984 . S
N1050 H1063 0.985 . S
N1051 C1053 1.356 . S
N1051 H1056 0.984 . S
N1051 H1057 0.985 . S
C1052 C1046 1.379 . S
C1052 C1049 1.363 1_655 S
C1052 N1050 1.356 1_655 S
C1053 C1047 1.363 . S
C1053 C1048 1.379 . S
C1053 N1051 1.356 . S
N1054 C1046 1.356 . S
N1054 H1060 0.984 . S
N1054 H1061 0.984 . S
N1055 C1048 1.356 1_455 S
N1055 H1058 0.984 . S
N1055 H1059 0.985 . S
H1056 N1051 0.984 . S
H1057 N1051 0.985 . S
H1058 N1055 0.984 . S
H1059 N1055 0.985 . S
H1060 N1054 0.984 . S
H1061 N1054 0.984 . S
H1062 N1050 0.984 . S
H1063 N1050 0.985 . S
C1064 C1065 1.363 . S
C1064 C1070 1.379 . S
C1064 N1072 1.356 . S
C1065 C1064 1.363 . S
C1065 C1071 1.363 . S
C1066 C1067 1.363 . S
C1066 C1071 1.379 . S
C1066 N1073 1.356 . S
C1067 C1066 1.363 . S
C1067 C1070 1.363 . S
N1068 C1070 1.356 . S
N1068 H1080 0.984 . S
N1068 H1081 0.985 . S
N1069 C1071 1.356 . S
N1069 H1074 0.984 . S
N1069 H1075 0.985 . S
C1070 C1064 1.379 . S
C1070 C1067 1.363 . S
C1070 N1068 1.356 . S
C1071 C1065 1.363 . S
C1071 C1066 1.379 . S
C1071 N1069 1.356 . S
N1072 C1064 1.356 . S
N1072 H1078 0.984 . S
N1072 H1079 0.984 . S
N1073 C1066 1.356 . S
N1073 H1076 0.984 . S
N1073 H1077 0.985 . S
H1074 N1069 0.984 . S
H1075 N1069 0.985 . S
H1076 N1073 0.984 . S
H1077 N1073 0.985 . S
H1078 N1072 0.984 . S
H1079 N1072 0.984 . S
H1080 N1068 0.984 . S
H1081 N1068 0.985 . S
C1082 C1083 1.363 1_655 S
C1082 C1088 1.379 . S
C1082 N1090 1.356 1_655 S
C1083 C1082 1.363 1_455 S
C1083 C1089 1.363 1_455 S
C1084 C1085 1.363 . S
C1084 C1089 1.379 . S
C1084 N1091 1.356 . S
C1085 C1084 1.363 . S
C1085 C1088 1.363 . S
N1086 C1088 1.356 . S
N1086 H1098 0.984 . S
N1086 H1099 0.985 . S
N1087 C1089 1.356 1_455 S
N1087 H1092 0.984 . S
N1087 H1093 0.985 . S
C1088 C1082 1.379 . S
C1088 C1085 1.363 . S
C1088 N1086 1.356 . S
C1089 C1083 1.363 1_655 S
C1089 C1084 1.379 . S
C1089 N1087 1.356 1_655 S
N1090 C1082 1.356 1_455 S
N1090 H1096 0.984 . S
N1090 H1097 0.984 . S
N1091 C1084 1.356 . S
N1091 H1094 0.984 . S
N1091 H1095 0.985 . S
H1092 N1087 0.984 . S
H1093 N1087 0.985 . S
H1094 N1091 0.984 . S
H1095 N1091 0.985 . S
H1096 N1090 0.984 . S
H1097 N1090 0.984 . S
H1098 N1086 0.984 . S
H1099 N1086 0.985 . S
C1100 C1101 1.363 . S
C1100 C1106 1.379 . S
C1100 N1108 1.356 . S
C1101 C1100 1.363 . S
C1101 C1107 1.363 . S
C1102 C1103 1.363 . S
C1102 C1107 1.379 . S
C1102 N1109 1.356 . S
C1103 C1102 1.363 . S
C1103 C1106 1.363 . S
N1104 C1106 1.356 . S
N1104 H1116 0.984 . S
N1104 H1117 0.985 . S
N1105 C1107 1.356 . S
N1105 H1110 0.984 . S
N1105 H1111 0.985 1_554 S
C1106 C1100 1.379 . S
C1106 C1103 1.363 . S
C1106 N1104 1.356 . S
C1107 C1101 1.363 . S
C1107 C1102 1.379 . S
C1107 N1105 1.356 . S
N1108 C1100 1.356 . S
N1108 H1114 0.984 . S
N1108 H1115 0.984 . S
N1109 C1102 1.356 . S
N1109 H1112 0.984 . S
N1109 H1113 0.985 1_554 S
H1110 N1105 0.984 . S
H1111 N1105 0.985 1_556 S
H1112 N1109 0.984 . S
H1113 N1109 0.985 1_556 S
H1114 N1108 0.984 . S
H1115 N1108 0.984 . S
H1116 N1104 0.984 . S
H1117 N1104 0.985 . S
C1118 C1119 1.363 . S
C1118 C1124 1.379 . S
C1118 N1126 1.356 . S
C1119 C1118 1.363 . S
C1119 C1125 1.363 . S
C1120 C1121 1.363 . S
C1120 C1125 1.379 . S
C1120 N1127 1.356 . S
C1121 C1120 1.363 . S
C1121 C1124 1.363 . S
N1122 C1124 1.356 . S
N1122 H1134 0.984 . S
N1122 H1135 0.985 . S
N1123 C1125 1.356 . S
N1123 H1128 0.984 . S
N1123 H1129 0.985 . S
C1124 C1118 1.379 . S
C1124 C1121 1.363 . S
C1124 N1122 1.356 . S
C1125 C1119 1.363 . S
C1125 C1120 1.379 . S
C1125 N1123 1.356 . S
N1126 C1118 1.356 . S
N1126 H1132 0.984 . S
N1126 H1133 0.984 . S
N1127 C1120 1.356 . S
N1127 H1130 0.984 . S
N1127 H1131 0.985 . S
H1128 N1123 0.984 . S
H1129 N1123 0.985 . S
H1130 N1127 0.984 . S
H1131 N1127 0.985 . S
H1132 N1126 0.984 . S
H1133 N1126 0.984 . S
H1134 N1122 0.984 . S
H1135 N1122 0.985 . S
C1136 C1137 1.363 . S
C1136 C1142 1.379 . S
C1136 N1144 1.356 . S
C1137 C1136 1.363 . S
C1137 C1143 1.363 . S
C1138 C1139 1.363 . S
C1138 C1143 1.379 . S
C1138 N1145 1.356 . S
C1139 C1138 1.363 . S
C1139 C1142 1.363 . S
N1140 C1142 1.356 . S
N1140 H1152 0.984 1_554 S
N1140 H1153 0.985 . S
N1141 C1143 1.356 . S
N1141 H1146 0.984 . S
N1141 H1147 0.985 . S
C1142 C1136 1.379 . S
C1142 C1139 1.363 . S
C1142 N1140 1.356 . S
C1143 C1137 1.363 . S
C1143 C1138 1.379 . S
C1143 N1141 1.356 . S
N1144 C1136 1.356 . S
N1144 H1150 0.984 1_554 S
N1144 H1151 0.984 . S
N1145 C1138 1.356 . S
N1145 H1148 0.984 . S
N1145 H1149 0.985 . S
H1146 N1141 0.984 . S
H1147 N1141 0.985 . S
H1148 N1145 0.984 . S
H1149 N1145 0.985 . S
H1150 N1144 0.984 1_556 S
H1151 N1144 0.984 . S
H1152 N1140 0.984 1_556 S
H1153 N1140 0.985 . S
C1154 C1155 1.363 . S
C1154 C1160 1.379 . S
C1154 N1162 1.356 . S
C1155 C1154 1.363 . S
C1155 C1161 1.363 . S
C1156 C1157 1.363 . S
C1156 C1161 1.379 . S
C1156 N1163 1.356 . S
C1157 C1156 1.363 . S
C1157 C1160 1.363 . S
N1158 C1160 1.356 . S
N1158 H1170 0.984 . S
N1158 H1171 0.985 . S
N1159 C1161 1.356 . S
N1159 H1164 0.984 . S
N1159 H1165 0.985 . S
C1160 C1154 1.379 . S
C1160 C1157 1.363 . S
C1160 N1158 1.356 . S
C1161 C1155 1.363 . S
C1161 C1156 1.379 . S
C1161 N1159 1.356 . S
N1162 C1154 1.356 . S
N1162 H1168 0.984 . S
N1162 H1169 0.984 . S
N1163 C1156 1.356 . S
N1163 H1166 0.984 . S
N1163 H1167 0.985 . S
H1164 N1159 0.984 . S
H1165 N1159 0.985 . S
H1166 N1163 0.984 . S
H1167 N1163 0.985 . S
H1168 N1162 0.984 . S
H1169 N1162 0.984 . S
H1170 N1158 0.984 . S
H1171 N1158 0.985 . S
C1172 C1173 1.363 . S
C1172 C1178 1.379 . S
C1172 N1180 1.356 . S
C1173 C1172 1.363 . S
C1173 C1179 1.363 . S
C1174 C1175 1.363 . S
C1174 C1179 1.379 . S
C1174 N1181 1.356 . S
C1175 C1174 1.363 . S
C1175 C1178 1.363 . S
N1176 C1178 1.356 . S
N1176 H1188 0.984 . S
N1176 H1189 0.985 . S
N1177 C1179 1.356 . S
N1177 H1182 0.984 . S
N1177 H1183 0.985 . S
C1178 C1172 1.379 . S
C1178 C1175 1.363 . S
C1178 N1176 1.356 . S
C1179 C1173 1.363 . S
C1179 C1174 1.379 . S
C1179 N1177 1.356 . S
N1180 C1172 1.356 . S
N1180 H1186 0.984 . S
N1180 H1187 0.984 . S
N1181 C1174 1.356 . S
N1181 H1184 0.984 . S
N1181 H1185 0.985 . S
H1182 N1177 0.984 . S
H1183 N1177 0.985 . S
H1184 N1181 0.984 . S
H1185 N1181 0.985 . S
H1186 N1180 0.984 . S
H1187 N1180 0.984 . S
H1188 N1176 0.984 . S
H1189 N1176 0.985 . S
C1190 C1191 1.363 . S
C1190 C1196 1.379 . S
C1190 N1198 1.356 . S
C1191 C1190 1.363 . S
C1191 C1197 1.363 . S
C1192 C1193 1.363 1_455 S
C1192 C1197 1.379 . S
C1192 N1199 1.356 1_455 S
C1193 C1192 1.363 1_655 S
C1193 C1196 1.363 1_655 S
N1194 C1196 1.356 1_655 S
N1194 H1206 0.984 . S
N1194 H1207 0.985 . S
N1195 C1197 1.356 . S
N1195 H1200 0.984 . S
N1195 H1201 0.985 . S
C1196 C1190 1.379 . S
C1196 C1193 1.363 1_455 S
C1196 N1194 1.356 1_455 S
C1197 C1191 1.363 . S
C1197 C1192 1.379 . S
C1197 N1195 1.356 . S
N1198 C1190 1.356 . S
N1198 H1204 0.984 . S
N1198 H1205 0.984 . S
N1199 C1192 1.356 1_655 S
N1199 H1202 0.984 . S
N1199 H1203 0.985 . S
H1200 N1195 0.984 . S
H1201 N1195 0.985 . S
H1202 N1199 0.984 . S
H1203 N1199 0.985 . S
H1204 N1198 0.984 . S
H1205 N1198 0.984 . S
H1206 N1194 0.984 . S
H1207 N1194 0.985 . S
C1208 C1209 1.363 . S
C1208 C1214 1.379 . S
C1208 N1216 1.356 . S
C1209 C1208 1.363 . S
C1209 C1215 1.363 . S
C1210 C1211 1.363 . S
C1210 C1215 1.379 . S
C1210 N1217 1.356 . S
C1211 C1210 1.363 . S
C1211 C1214 1.363 . S
N1212 C1214 1.356 . S
N1212 H1224 0.984 . S
N1212 H1225 0.985 . S
N1213 C1215 1.356 . S
N1213 H1218 0.984 . S
N1213 H1219 0.985 . S
C1214 C1208 1.379 . S
C1214 C1211 1.363 . S
C1214 N1212 1.356 . S
C1215 C1209 1.363 . S
C1215 C1210 1.379 . S
C1215 N1213 1.356 . S
N1216 C1208 1.356 . S
N1216 H1222 0.984 . S
N1216 H1223 0.984 . S
N1217 C1210 1.356 . S
N1217 H1220 0.984 . S
N1217 H1221 0.985 . S
H1218 N1213 0.984 . S
H1219 N1213 0.985 . S
H1220 N1217 0.984 . S
H1221 N1217 0.985 . S
H1222 N1216 0.984 . S
H1223 N1216 0.984 . S
H1224 N1212 0.984 . S
H1225 N1212 0.985 . S
C1226 C1227 1.363 1_455 S
C1226 C1232 1.379 . S
C1226 N1234 1.356 1_455 S
C1227 C1226 1.363 1_655 S
C1227 C1233 1.363 1_655 S
C1228 C1229 1.363 . S
C1228 C1233 1.379 . S
C1228 N1235 1.356 . S
C1229 C1228 1.363 . S
C1229 C1232 1.363 . S
N1230 C1232 1.356 . S
N1230 H1242 0.984 . S
N1230 H1243 0.985 . S
N1231 C1233 1.356 1_655 S
N1231 H1236 0.984 . S
N1231 H1237 0.985 . S
C1232 C1226 1.379 . S
C1232 C1229 1.363 . S
C1232 N1230 1.356 . S
C1233 C1227 1.363 1_455 S
C1233 C1228 1.379 . S
C1233 N1231 1.356 1_455 S
N1234 C1226 1.356 1_655 S
N1234 H1240 0.984 . S
N1234 H1241 0.984 . S
N1235 C1228 1.356 . S
N1235 H1238 0.984 . S
N1235 H1239 0.985 . S
H1236 N1231 0.984 . S
H1237 N1231 0.985 . S
H1238 N1235 0.984 . S
H1239 N1235 0.985 . S
H1240 N1234 0.984 . S
H1241 N1234 0.984 . S
H1242 N1230 0.984 . S
H1243 N1230 0.985 . S
C1244 C1245 1.363 . S
C1244 C1250 1.379 . S
C1244 N1252 1.356 . S
C1245 C1244 1.363 . S
C1245 C1251 1.363 . S
C1246 C1247 1.363 . S
C1246 C1251 1.379 . S
C1246 N1253 1.356 . S
C1247 C1246 1.363 . S
C1247 C1250 1.363 . S
N1248 C1250 1.356 . S
N1248 H1260 0.984 1_556 S
N1248 H1261 0.985 . S
N1249 C1251 1.356 . S
N1249 H1254 0.984 . S
N1249 H1255 0.985 . S
C1250 C1244 1.379 . S
C1250 C1247 1.363 . S
C1250 N1248 1.356 . S
C1251 C1245 1.363 . S
C1251 C1246 1.379 . S
C1251 N1249 1.356 . S
N1252 C1244 1.356 . S
N1252 H1258 0.984 1_556 S
N1252 H1259 0.984 . S
N1253 C1246 1.356 . S
N1253 H1256 0.984 . S
N1253 H1257 0.985 . S
H1254 N1249 0.984 . S
H1255 N1249 0.985 . S
H1256 N1253 0.984 . S
H1257 N1253 0.985 . S
H1258 N1252 0.984 1_554 S
H1259 N1252 0.984 . S
H1260 N1248 0.984 1_554 S
H1261 N1248 0.985 . S
C1262 C1263 1.363 . S
C1262 C1268 1.379 . S
C1262 N1270 1.356 . S
C1263 C1262 1.363 . S
C1263 C1269 1.363 . S
C1264 C1265 1.363 . S
C1264 C1269 1.379 . S
C1264 N1271 1.356 . S
C1265 C1264 1.363 . S
C1265 C1268 1.363 . S
N1266 C1268 1.356 . S
N1266 H1278 0.984 . S
N1266 H1279 0.985 . S
N1267 C1269 1.356 . S
N1267 H1272 0.984 . S
N1267 H1273 0.985 . S
C1268 C1262 1.379 . S
C1268 C1265 1.363 . S
C1268 N1266 1.356 . S
C1269 C1263 1.363 . S
C1269 C1264 1.379 . S
C1269 N1267 1.356 . S
N1270 C1262 1.356 . S
N1270 H1276 0.984 . S
N1270 H1277 0.984 . S
N1271 C1264 1.356 . S
N1271 H1274 0.984 . S
N1271 H1275 0.985 . S
H1272 N1267 0.984 . S
H1273 N1267 0.985 . S
H1274 N1271 0.984 . S
H1275 N1271 0.985 . S
H1276 N1270 0.984 . S
H1277 N1270 0.984 . S
H1278 N1266 0.984 . S
H1279 N1266 0.985 . S
C1280 C1281 1.363 . S
C1280 C1286 1.379 . S
C1280 N1288 1.356 . S
C1281 C1280 1.363 . S
C1281 C1287 1.363 . S
C1282 C1283 1.363 . S
C1282 C1287 1.379 . S
C1282 N1289 1.356 . S
C1283 C1282 1.363 . S
C1283 C1286 1.363 . S
N1284 C1286 1.356 . S
N1284 H1296 0.984 . S
N1284 H1297 0.985 . S
N1285 C1287 1.356 . S
N1285 H1290 0.984 . S
N1285 H1291 0.985 . S
C1286 C1280 1.379 . S
C1286 C1283 1.363 . S
C1286 N1284 1.356 . S
C1287 C1281 1.363 . S
C1287 C1282 1.379 . S
C1287 N1285 1.356 . S
N1288 C1280 1.356 . S
N1288 H1294 0.984 . S
N1288 H1295 0.984 . S
N1289 C1282 1.356 . S
N1289 H1292 0.984 . S
N1289 H1293 0.985 . S
H1290 N1285 0.984 . S
H1291 N1285 0.985 . S
H1292 N1289 0.984 . S
H1293 N1289 0.985 . S
H1294 N1288 0.984 . S
H1295 N1288 0.984 . S
H1296 N1284 0.984 . S
H1297 N1284 0.985 . S
C1298 C1299 1.363 . S
C1298 C1304 1.379 . S
C1298 N1306 1.356 . S
C1299 C1298 1.363 . S
C1299 C1305 1.363 . S
C1300 C1301 1.363 . S
C1300 C1305 1.379 . S
C1300 N1307 1.356 . S
C1301 C1300 1.363 . S
C1301 C1304 1.363 . S
N1302 C1304 1.356 . S
N1302 H1314 0.984 . S
N1302 H1315 0.985 . S
N1303 C1305 1.356 . S
N1303 H1308 0.984 . S
N1303 H1309 0.985 . S
C1304 C1298 1.379 . S
C1304 C1301 1.363 . S
C1304 N1302 1.356 . S
C1305 C1299 1.363 . S
C1305 C1300 1.379 . S
C1305 N1303 1.356 . S
N1306 C1298 1.356 . S
N1306 H1312 0.984 . S
N1306 H1313 0.984 . S
N1307 C1300 1.356 . S
N1307 H1310 0.984 1_556 S
N1307 H1311 0.985 . S
H1308 N1303 0.984 . S
H1309 N1303 0.985 . S
H1310 N1307 0.984 1_554 S
H1311 N1307 0.985 . S
H1312 N1306 0.984 . S
H1313 N1306 0.984 . S
H1314 N1302 0.984 . S
H1315 N1302 0.985 . S
C1316 C1317 1.363 . S
C1316 C1322 1.379 . S
C1316 N1324 1.356 . S
C1317 C1316 1.363 . S
C1317 C1323 1.363 . S
C1318 C1319 1.363 . S
C1318 C1323 1.379 . S
C1318 N1325 1.356 . S
C1319 C1318 1.363 . S
C1319 C1322 1.363 . S
N1320 C1322 1.356 . S
N1320 H1332 0.984 . S
N1320 H1333 0.985 . S
N1321 C1323 1.356 . S
N1321 H1326 0.984 . S
N1321 H1327 0.985 . S
C1322 C1316 1.379 . S
C1322 C1319 1.363 . S
C1322 N1320 1.356 . S
C1323 C1317 1.363 . S
C1323 C1318 1.379 . S
C1323 N1321 1.356 . S
N1324 C1316 1.356 . S
N1324 H1330 0.984 . S
N1324 H1331 0.984 1_554 S
N1325 C1318 1.356 . S
N1325 H1328 0.984 . S
N1325 H1329 0.985 . S
H1326 N1321 0.984 . S
H1327 N1321 0.985 . S
H1328 N1325 0.984 . S
H1329 N1325 0.985 . S
H1330 N1324 0.984 . S
H1331 N1324 0.984 1_556 S
H1332 N1320 0.984 . S
H1333 N1320 0.985 . S
C1334 C1335 1.363 . S
C1334 C1340 1.379 . S
C1334 N1342 1.356 . S
C1335 C1334 1.363 . S
C1335 C1341 1.363 . S
C1336 C1337 1.363 . S
C1336 C1341 1.379 . S
C1336 N1343 1.356 . S
C1337 C1336 1.363 . S
C1337 C1340 1.363 . S
N1338 C1340 1.356 . S
N1338 H1350 0.984 . S
N1338 H1351 0.985 . S
N1339 C1341 1.356 . S
N1339 H1344 0.984 . S
N1339 H1345 0.985 . S
C1340 C1334 1.379 . S
C1340 C1337 1.363 . S
C1340 N1338 1.356 . S
C1341 C1335 1.363 . S
C1341 C1336 1.379 . S
C1341 N1339 1.356 . S
N1342 C1334 1.356 . S
N1342 H1348 0.984 . S
N1342 H1349 0.984 . S
N1343 C1336 1.356 . S
N1343 H1346 0.984 . S
N1343 H1347 0.985 . S
H1344 N1339 0.984 . S
H1345 N1339 0.985 . S
H1346 N1343 0.984 . S
H1347 N1343 0.985 . S
H1348 N1342 0.984 . S
H1349 N1342 0.984 . S
H1350 N1338 0.984 . S
H1351 N1338 0.985 . S
C1352 C1353 1.363 . S
C1352 C1358 1.379 . S
C1352 N1360 1.356 . S
C1353 C1352 1.363 . S
C1353 C1359 1.363 . S
C1354 C1355 1.363 . S
C1354 C1359 1.379 . S
C1354 N1361 1.356 . S
C1355 C1354 1.363 . S
C1355 C1358 1.363 . S
N1356 C1358 1.356 . S
N1356 H1368 0.984 . S
N1356 H1369 0.985 . S
N1357 C1359 1.356 . S
N1357 H1362 0.984 . S
N1357 H1363 0.985 . S
C1358 C1352 1.379 . S
C1358 C1355 1.363 . S
C1358 N1356 1.356 . S
C1359 C1353 1.363 . S
C1359 C1354 1.379 . S
C1359 N1357 1.356 . S
N1360 C1352 1.356 . S
N1360 H1366 0.984 . S
N1360 H1367 0.984 . S
N1361 C1354 1.356 . S
N1361 H1364 0.984 . S
N1361 H1365 0.985 . S
H1362 N1357 0.984 . S
H1363 N1357 0.985 . S
H1364 N1361 0.984 . S
H1365 N1361 0.985 . S
H1366 N1360 0.984 . S
H1367 N1360 0.984 . S
H1368 N1356 0.984 . S
H1369 N1356 0.985 . S
C1370 C1371 1.363 . S
C1370 C1376 1.379 . S
C1370 N1378 1.356 . S
C1371 C1370 1.363 . S
C1371 C1377 1.363 . S
C1372 C1373 1.363 . S
C1372 C1377 1.379 . S
C1372 N1379 1.356 . S
C1373 C1372 1.363 . S
C1373 C1376 1.363 . S
N1374 C1376 1.356 . S
N1374 H1386 0.984 . S
N1374 H1387 0.985 . S
N1375 C1377 1.356 . S
N1375 H1380 0.984 . S
N1375 H1381 0.985 . S
C1376 C1370 1.379 . S
C1376 C1373 1.363 . S
C1376 N1374 1.356 . S
C1377 C1371 1.363 . S
C1377 C1372 1.379 . S
C1377 N1375 1.356 . S
N1378 C1370 1.356 . S
N1378 H1384 0.984 . S
N1378 H1385 0.984 . S
N1379 C1372 1.356 . S
N1379 H1382 0.984 . S
N1379 H1383 0.985 . S
H1380 N1375 0.984 . S
H1381 N1375 0.985 . S
H1382 N1379 0.984 . S
H1383 N1379 0.985 . S
H1384 N1378 0.984 . S
H1385 N1378 0.984 . S
H1386 N1374 0.984 . S
H1387 N1374 0.985 . S
C1388 C1389 1.363 . S
C1388 C1394 1.379 . S
C1388 N1396 1.356 . S
C1389 C1388 1.363 . S
C1389 C1395 1.363 . S
C1390 C1391 1.363 . S
C1390 C1395 1.379 . S
C1390 N1397 1.356 . S
C1391 C1390 1.363 . S
C1391 C1394 1.363 . S
N1392 C1394 1.356 . S
N1392 H1404 0.984 . S
N1392 H1405 0.985 . S
N1393 C1395 1.356 . S
N1393 H1398 0.984 . S
N1393 H1399 0.985 . S
C1394 C1388 1.379 . S
C1394 C1391 1.363 . S
C1394 N1392 1.356 . S
C1395 C1389 1.363 . S
C1395 C1390 1.379 . S
C1395 N1393 1.356 . S
N1396 C1388 1.356 . S
N1396 H1402 0.984 . S
N1396 H1403 0.984 . S
N1397 C1390 1.356 . S
N1397 H1400 0.984 1_556 S
N1397 H1401 0.985 . S
H1398 N1393 0.984 . S
H1399 N1393 0.985 . S
H1400 N1397 0.984 1_554 S
H1401 N1397 0.985 . S
H1402 N1396 0.984 . S
H1403 N1396 0.984 . S
H1404 N1392 0.984 . S
H1405 N1392 0.985 . S
C1406 C1407 1.363 . S
C1406 C1412 1.379 . S
C1406 N1414 1.356 . S
C1407 C1406 1.363 . S
C1407 C1413 1.363 . S
C1408 C1409 1.363 . S
C1408 C1413 1.379 . S
C1408 N1415 1.356 . S
C1409 C1408 1.363 . S
C1409 C1412 1.363 . S
N1410 C1412 1.356 . S
N1410 H1422 0.984 . S
N1410 H1423 0.985 . S
N1411 C1413 1.356 . S
N1411 H1416 0.984 . S
N1411 H1417 0.985 . S
C1412 C1406 1.379 . S
C1412 C1409 1.363 . S
C1412 N1410 1.356 . S
C1413 C1407 1.363 . S
C1413 C1408 1.379 . S
C1413 N1411 1.356 . S
N1414 C1406 1.356 . S
N1414 H1420 0.984 . S
N1414 H1421 0.984 . S
N1415 C1408 1.356 . S
N1415 H1418 0.984 . S
N1415 H1419 0.985 . S
H1416 N1411 0.984 . S
H1417 N1411 0.985 . S
H1418 N1415 0.984 . S
H1419 N1415 0.985 . S
H1420 N1414 0.984 . S
H1421 N1414 0.984 . S
H1422 N1410 0.984 . S
H1423 N1410 0.985 . S
C1424 C1425 1.363 . S
C1424 C1430 1.379 . S
C1424 N1432 1.356 . S
C1425 C1424 1.363 . S
C1425 C1431 1.363 . S
C1426 C1427 1.363 . S
C1426 C1431 1.379 . S
C1426 N1433 1.356 . S
C1427 C1426 1.363 . S
C1427 C1430 1.363 . S
N1428 C1430 1.356 . S
N1428 H1440 0.984 . S
N1428 H1441 0.985 . S
N1429 C1431 1.356 . S
N1429 H1434 0.984 . S
N1429 H1435 0.985 . S
C1430 C1424 1.379 . S
C1430 C1427 1.363 . S
C1430 N1428 1.356 . S
C1431 C1425 1.363 . S
C1431 C1426 1.379 . S
C1431 N1429 1.356 . S
N1432 C1424 1.356 . S
N1432 H1438 0.984 . S
N1432 H1439 0.984 1_554 S
N1433 C1426 1.356 . S
N1433 H1436 0.984 . S
N1433 H1437 0.985 . S
H1434 N1429 0.984 . S
H1435 N1429 0.985 . S
H1436 N1433 0.984 . S
H1437 N1433 0.985 . S
H1438 N1432 0.984 . S
H1439 N1432 0.984 1_556 S
H1440 N1428 0.984 . S
H1441 N1428 0.985 . S
C1442 C1443 1.363 . S
C1442 C1448 1.379 . S
C1442 N1450 1.356 . S
C1443 C1442 1.363 . S
C1443 C1449 1.363 . S
C1444 C1445 1.363 . S
C1444 C1449 1.379 . S
C1444 N1451 1.356 . S
C1445 C1444 1.363 . S
C1445 C1448 1.363 . S
N1446 C1448 1.356 . S
N1446 H1458 0.984 . S
N1446 H1459 0.985 . S
N1447 C1449 1.356 . S
N1447 H1452 0.984 . S
N1447 H1453 0.985 . S
C1448 C1442 1.379 . S
C1448 C1445 1.363 . S
C1448 N1446 1.356 . S
C1449 C1443 1.363 . S
C1449 C1444 1.379 . S
C1449 N1447 1.356 . S
N1450 C1442 1.356 . S
N1450 H1456 0.984 . S
N1450 H1457 0.984 . S
N1451 C1444 1.356 . S
N1451 H1454 0.984 . S
N1451 H1455 0.985 . S
H1452 N1447 0.984 . S
H1453 N1447 0.985 . S
H1454 N1451 0.984 . S
H1455 N1451 0.985 . S
H1456 N1450 0.984 . S
H1457 N1450 0.984 . S
H1458 N1446 0.984 . S
H1459 N1446 0.985 . S
C1460 C1461 1.363 . S
C1460 C1466 1.379 . S
C1460 N1468 1.356 . S
C1461 C1460 1.363 . S
C1461 C1467 1.363 . S
C1462 C1463 1.363 . S
C1462 C1467 1.379 . S
C1462 N1469 1.356 . S
C1463 C1462 1.363 . S
C1463 C1466 1.363 . S
N1464 C1466 1.356 . S
N1464 H1476 0.984 . S
N1464 H1477 0.985 . S
N1465 C1467 1.356 . S
N1465 H1470 0.984 . S
N1465 H1471 0.985 . S
C1466 C1460 1.379 . S
C1466 C1463 1.363 . S
C1466 N1464 1.356 . S
C1467 C1461 1.363 . S
C1467 C1462 1.379 . S
C1467 N1465 1.356 . S
N1468 C1460 1.356 . S
N1468 H1474 0.984 . S
N1468 H1475 0.984 . S
N1469 C1462 1.356 . S
N1469 H1472 0.984 . S
N1469 H1473 0.985 . S
H1470 N1465 0.984 . S
H1471 N1465 0.985 . S
H1472 N1469 0.984 . S
H1473 N1469 0.985 . S
H1474 N1468 0.984 . S
H1475 N1468 0.984 . S
H1476 N1464 0.984 . S
H1477 N1464 0.985 . S
C1478 C1479 1.363 . S
C1478 C1484 1.379 . S
C1478 N1486 1.356 . S
C1479 C1478 1.363 . S
C1479 C1485 1.363 . S
C1480 C1481 1.363 . S
C1480 C1485 1.379 . S
C1480 N1487 1.356 . S
C1481 C1480 1.363 . S
C1481 C1484 1.363 . S
N1482 C1484 1.356 . S
N1482 H1494 0.984 . S
N1482 H1495 0.985 . S
N1483 C1485 1.356 . S
N1483 H1488 0.984 1_556 S
N1483 H1489 0.985 . S
C1484 C1478 1.379 . S
C1484 C1481 1.363 . S
C1484 N1482 1.356 . S
C1485 C1479 1.363 . S
C1485 C1480 1.379 . S
C1485 N1483 1.356 . S
N1486 C1478 1.356 . S
N1486 H1492 0.984 . S
N1486 H1493 0.984 . S
N1487 C1480 1.356 . S
N1487 H1490 0.984 . S
N1487 H1491 0.985 . S
H1488 N1483 0.984 1_554 S
H1489 N1483 0.985 . S
H1490 N1487 0.984 . S
H1491 N1487 0.985 . S
H1492 N1486 0.984 . S
H1493 N1486 0.984 . S
H1494 N1482 0.984 . S
H1495 N1482 0.985 . S
C1496 C1497 1.363 . S
C1496 C1502 1.379 . S
C1496 N1504 1.356 . S
C1497 C1496 1.363 . S
C1497 C1503 1.363 . S
C1498 C1499 1.363 . S
C1498 C1503 1.379 . S
C1498 N1505 1.356 . S
C1499 C1498 1.363 . S
C1499 C1502 1.363 . S
N1500 C1502 1.356 . S
N1500 H1512 0.984 . S
N1500 H1513 0.985 1_556 S
N1501 C1503 1.356 . S
N1501 H1506 0.984 . S
N1501 H1507 0.985 . S
C1502 C1496 1.379 . S
C1502 C1499 1.363 . S
C1502 N1500 1.356 . S
C1503 C1497 1.363 . S
C1503 C1498 1.379 . S
C1503 N1501 1.356 . S
N1504 C1496 1.356 . S
N1504 H1510 0.984 . S
N1504 H1511 0.984 . S
N1505 C1498 1.356 . S
N1505 H1508 0.984 . S
N1505 H1509 0.985 . S
H1506 N1501 0.984 . S
H1507 N1501 0.985 . S
H1508 N1505 0.984 . S
H1509 N1505 0.985 . S
H1510 N1504 0.984 . S
H1511 N1504 0.984 . S
H1512 N1500 0.984 . S
H1513 N1500 0.985 1_554 S
C1514 C1515 1.363 . S
C1514 C1520 1.379 . S
C1514 N1522 1.356 . S
C1515 C1514 1.363 . S
C1515 C1521 1.363 . S
C1516 C1517 1.363 . S
C1516 C1521 1.379 . S
C1516 N1523 1.356 . S
C1517 C1516 1.363 . S
C1517 C1520 1.363 . S
N1518 C1520 1.356 . S
N1518 H1530 0.984 . S
N1518 H1531 0.985 . S
N1519 C1521 1.356 . S
N1519 H1524 0.984 . S
N1519 H1525 0.985 . S
C1520 C1514 1.379 . S
C1520 C1517 1.363 . S
C1520 N1518 1.356 . S
C1521 C1515 1.363 . S
C1521 C1516 1.379 . S
C1521 N1519 1.356 . S
N1522 C1514 1.356 . S
N1522 H1528 0.984 . S
N1522 H1529 0.984 . S
N1523 C1516 1.356 . S
N1523 H1526 0.984 . S
N1523 H1527 0.985 . S
H1524 N1519 0.984 . S
H1525 N1519 0.985 . S
H1526 N1523 0.984 . S
H1527 N1523 0.985 . S
H1528 N1522 0.984 . S
H1529 N1522 0.984 . S
H1530 N1518 0.984 . S
H1531 N1518 0.985 . S
C1532 C1533 1.363 . S
C1532 C1538 1.379 . S
C1532 N1540 1.356 . S
C1533 C1532 1.363 . S
C1533 C1539 1.363 . S
C1534 C1535 1.363 . S
C1534 C1539 1.379 . S
C1534 N1541 1.356 . S
C1535 C1534 1.363 . S
C1535 C1538 1.363 . S
N1536 C1538 1.356 . S
N1536 H1548 0.984 . S
N1536 H1549 0.985 . S
N1537 C1539 1.356 . S
N1537 H1542 0.984 . S
N1537 H1543 0.985 . S
C1538 C1532 1.379 . S
C1538 C1535 1.363 . S
C1538 N1536 1.356 . S
C1539 C1533 1.363 . S
C1539 C1534 1.379 . S
C1539 N1537 1.356 . S
N1540 C1532 1.356 . S
N1540 H1546 0.984 . S
N1540 H1547 0.984 . S
N1541 C1534 1.356 . S
N1541 H1544 0.984 . S
N1541 H1545 0.985 . S
H1542 N1537 0.984 . S
H1543 N1537 0.985 . S
H1544 N1541 0.984 . S
H1545 N1541 0.985 . S
H1546 N1540 0.984 . S
H1547 N1540 0.984 . S
H1548 N1536 0.984 . S
H1549 N1536 0.985 . S
C1550 C1551 1.363 . S
C1550 C1556 1.379 . S
C1550 N1558 1.356 . S
C1551 C1550 1.363 . S
C1551 C1557 1.363 . S
C1552 C1553 1.363 . S
C1552 C1557 1.379 . S
C1552 N1559 1.356 . S
C1553 C1552 1.363 . S
C1553 C1556 1.363 . S
N1554 C1556 1.356 . S
N1554 H1566 0.984 . S
N1554 H1567 0.985 . S
N1555 C1557 1.356 . S
N1555 H1560 0.984 . S
N1555 H1561 0.985 . S
C1556 C1550 1.379 . S
C1556 C1553 1.363 . S
C1556 N1554 1.356 . S
C1557 C1551 1.363 . S
C1557 C1552 1.379 . S
C1557 N1555 1.356 . S
N1558 C1550 1.356 . S
N1558 H1564 0.984 . S
N1558 H1565 0.984 . S
N1559 C1552 1.356 . S
N1559 H1562 0.984 1_554 S
N1559 H1563 0.985 . S
H1560 N1555 0.984 . S
H1561 N1555 0.985 . S
H1562 N1559 0.984 1_556 S
H1563 N1559 0.985 . S
H1564 N1558 0.984 . S
H1565 N1558 0.984 . S
H1566 N1554 0.984 . S
H1567 N1554 0.985 . S
C417 C10 1.526 . S
C419 C56 1.526 . S
C435 C23 1.526 . S
C437 C75 1.526 . S
C453 C82 1.526 . S
C455 C30 1.526 . S
C471 C101 1.526 . S
C473 C49 1.526 . S
C489 C108 1.526 . S
C491 C166 1.526 . S
C507 C121 1.526 . S
C509 C173 1.526 . S
C525 C186 1.526 . S
C527 C140 1.526 . S
C543 C147 1.526 . S
C545 C205 1.526 . S
C561 C264 1.526 . S
C563 C212 1.526 . S
C579 C283 1.526 . S
C581 C231 1.526 . S
C597 C238 1.526 . S
C599 C290 1.526 . S
C615 C309 1.526 . S
C617 C251 1.526 . S
C633 C322 1.526 . S
C635 C374 1.526 . S
C651 C381 1.526 . S
C653 C335 1.526 . S
C669 C400 1.526 . S
C671 C348 1.526 . S
C687 C355 1.526 . S
C689 C407 1.526 . S
C705 C3 1.652 . S
C707 C361 1.648 . S
C723 C114 1.648 . S
C725 C16 1.652 . S
C741 C31 1.652 . S
C743 C329 1.648 . S
C759 C42 1.652 . S
C761 C134 1.648 . S
C777 C387 1.648 . S
C779 C57 1.652 . S
C795 C192 1.648 . S
C797 C68 1.652 . S
C813 C83 1.652 . S
C815 C413 1.648 . S
C831 C94 1.652 . S
C833 C160 1.648 . S
C849 C257 1.648 . S
C851 C109 1.652 . S
C867 C122 1.652 . S
C869 C4 1.648 . S
C885 C225 1.648 . S
C887 C133 1.652 . S
C903 C148 1.652 . S
C905 C36 1.648 . S
C921 C277 1.648 . S
C923 C159 1.652 . S
C939 C174 1.652 . S
C941 C88 1.648 . S
C957 C303 1.648 . S
C959 C187 1.652 . S
C975 C198 1.652 . S
C977 C62 1.648 . S
C993 C153 1.648 . S
C995 C213 1.652 . S
C1011 C316 1.648 . S
C1013 C224 1.652 . S
C1029 C127 1.648 . S
C1031 C239 1.652 . S
C1047 C252 1.652 . S
C1049 C342 1.648 . S
C1065 C179 1.648 . S
C1067 C265 1.652 . S
C1083 C394 1.648 . S
C1085 C276 1.652 . S
C1101 C199 1.648 . S
C1103 C291 1.652 . S
C1119 C302 1.652 . S
C1121 C368 1.648 . S
C1137 C315 1.652 . S
C1139 C43 1.648 . S
C1155 C328 1.652 . S
C1157 C218 1.648 . S
C1173 C341 1.652 . S
C1175 C17 1.648 . S
C1191 C356 1.652 . S
C1193 C244 1.648 . S
C1209 C367 1.652 . S
C1211 C69 1.648 . S
C1227 C296 1.648 . S
C1229 C382 1.652 . S
C1245 C95 1.648 . S
C1247 C393 1.652 . S
C1263 C408 1.652 . S
C1265 C270 1.648 . S
C1281 C5 1.271 . S
C1283 C96 1.271 . S
C1299 C18 1.271 . S
C1301 C55 1.271 . S
C1317 C29 1.271 . S
C1319 C70 1.271 . S
C1335 C81 1.271 . S
C1337 C44 1.271 . S
C1353 C200 1.271 . S
C1355 C107 1.271 . S
C1371 C161 1.271 . S
C1373 C120 1.271 . S
C1389 C172 1.271 . S
C1391 C135 1.271 . S
C1407 C185 1.271 . S
C1409 C146 1.271 . S
C1425 C211 1.271 . S
C1427 C304 1.271 . S
C1443 C263 1.271 . S
C1445 C226 1.271 . S
C1461 C278 1.271 . S
C1463 C237 1.271 . S
C1479 C289 1.271 . S
C1481 C250 1.271 . S
C1497 C406 1.271 . S
C1499 C317 1.271 . S
C1515 C330 1.271 . S
C1517 C369 1.271 . S
C1533 C343 1.271 . S
C1535 C380 1.271 . S
C1551 C354 1.271 . S
C1553 C395 1.271 . S
