# Generated by pormake.
# Topology vmg, (6)-cn, num edge types: 1
# Building blocks:
#     Node 0, Type 0, BuildingBlock: VOLQOD_clean_sbu_1, # of connection points: 6
#     Node 1, Type 0, BuildingBlock: VOLQOD_clean_sbu_1, # of connection points: 6
#     Node 2, Type 0, BuildingBlock: VOLQOD_clean_sbu_1, # of connection points: 6
#     Node 3, Type 0, BuildingBlock: VOLQOD_clean_sbu_1, # of connection points: 6
#     Node 4, Type 0, BuildingBlock: VOLQOD_clean_sbu_1, # of connection points: 6
#     Node 5, Type 0, BuildingBlock: VOLQOD_clean_sbu_1, # of connection points: 6
#     Node 6, Type 0, BuildingBlock: VOLQOD_clean_sbu_1, # of connection points: 6
#     Node 7, Type 0, BuildingBlock: VOLQOD_clean_sbu_1, # of connection points: 6
#     Edge 8, Type (0, 0), BuildingBlock: ZUJKAS_clean_linker_0, # of connection points: 2
#     Edge 9, Type (0, 0), BuildingBlock: ZUJKAS_clean_linker_0, # of connection points: 2
#     Edge 10, Type (0, 0), BuildingBlock: ZUJKAS_clean_linker_0, # of connection points: 2
#     Edge 11, Type (0, 0), BuildingBlock: ZUJKAS_clean_linker_0, # of connection points: 2
#     Edge 12, Type (0, 0), BuildingBlock: ZUJKAS_clean_linker_0, # of connection points: 2
#     Edge 13, Type (0, 0), BuildingBlock: ZUJKAS_clean_linker_0, # of connection points: 2
#     Edge 14, Type (0, 0), BuildingBlock: ZUJKAS_clean_linker_0, # of connection points: 2
#     Edge 15, Type (0, 0), BuildingBlock: ZUJKAS_clean_linker_0, # of connection points: 2
#     Edge 16, Type (0, 0), BuildingBlock: ZUJKAS_clean_linker_0, # of connection points: 2
#     Edge 17, Type (0, 0), BuildingBlock: ZUJKAS_clean_linker_0, # of connection points: 2
#     Edge 18, Type (0, 0), BuildingBlock: ZUJKAS_clean_linker_0, # of connection points: 2
#     Edge 19, Type (0, 0), BuildingBlock: ZUJKAS_clean_linker_0, # of connection points: 2
#     Edge 20, Type (0, 0), BuildingBlock: ZUJKAS_clean_linker_0, # of connection points: 2
#     Edge 21, Type (0, 0), BuildingBlock: ZUJKAS_clean_linker_0, # of connection points: 2
#     Edge 22, Type (0, 0), BuildingBlock: ZUJKAS_clean_linker_0, # of connection points: 2
#     Edge 23, Type (0, 0), BuildingBlock: ZUJKAS_clean_linker_0, # of connection points: 2
#     Edge 24, Type (0, 0), BuildingBlock: ZUJKAS_clean_linker_0, # of connection points: 2
#     Edge 25, Type (0, 0), BuildingBlock: ZUJKAS_clean_linker_0, # of connection points: 2
#     Edge 26, Type (0, 0), BuildingBlock: ZUJKAS_clean_linker_0, # of connection points: 2
#     Edge 27, Type (0, 0), BuildingBlock: ZUJKAS_clean_linker_0, # of connection points: 2
#     Edge 28, Type (0, 0), BuildingBlock: ZUJKAS_clean_linker_0, # of connection points: 2
#     Edge 29, Type (0, 0), BuildingBlock: ZUJKAS_clean_linker_0, # of connection points: 2
#     Edge 30, Type (0, 0), BuildingBlock: ZUJKAS_clean_linker_0, # of connection points: 2
#     Edge 31, Type (0, 0), BuildingBlock: ZUJKAS_clean_linker_0, # of connection points: 2
# Relax obj value: 0.364
# Max RMSD: 0.272
# Mean RMSD: 0.272
data_MOF--net-vmg--node1-VOLQOD_clean_sbu_1--edge1-ZUJKAS_clean_linker_0
_symmetry_space_group_name_H-M    P1
_symmetry_Int_Tables_number       1
_symmetry_cell_setting            triclinic
loop_
_symmetry_equiv_pos_as_xyz
'x, y, z'
_cell_length_a     36.326373
_cell_length_b     59.893164
_cell_length_c     35.20051
_cell_angle_alpha  90.024663
_cell_angle_beta   97.355217
_cell_angle_gamma 89.963771
loop_
_atom_site_label
_atom_site_type_symbol
_atom_site_fract_x
_atom_site_fract_y
_atom_site_fract_z
_atom_type_partial_charge
O0 O 0.17051 0.44001 0.11268 0.0
Zn1 Zn 0.22336 0.43141 0.13069 0.0
O2 O 0.22896 0.39911 0.13039 0.0
Zn3 Zn 0.24212 0.38792 0.1823 0.0
Zn4 Zn 0.18275 0.38581 0.10781 0.0
Zn5 Zn 0.2671 0.3909 0.09933 0.0
O6 O 0.28877 0.36915 0.18616 0.0
O7 O 0.31086 0.37812 0.132 0.0
O8 O 0.23958 0.44438 0.18355 0.0
O9 O 0.25477 0.41374 0.21779 0.0
O10 O 0.1987 0.37146 0.20108 0.0
O11 O 0.15789 0.37133 0.1484 0.0
O12 O 0.19061 0.36167 0.07024 0.0
O13 O 0.25222 0.44523 0.09133 0.0
O14 O 0.25007 0.36589 0.06388 0.0
O15 O 0.28173 0.41678 0.06816 0.0
C16 C 0.14475 0.42977 0.09163 0.0
C17 C 0.31437 0.36851 0.16452 0.0
C18 C 0.1668 0.3665 0.18354 0.0
C19 C 0.25211 0.43488 0.215 0.0
C20 C 0.21939 0.3557 0.05574 0.0
C21 C 0.27332 0.43742 0.06824 0.0
O22 O 0.14733 0.40906 0.08412 0.0
O23 O 0.81204 0.4452 0.39214 0.0
Zn24 Zn 0.76018 0.43577 0.37199 0.0
O25 O 0.75688 0.40357 0.37228 0.0
Zn26 Zn 0.75196 0.39202 0.32042 0.0
Zn27 Zn 0.80085 0.39149 0.40169 0.0
Zn28 Zn 0.71445 0.39506 0.3967 0.0
O29 O 0.70587 0.37286 0.31047 0.0
O30 O 0.67426 0.38368 0.35753 0.0
O31 O 0.74503 0.44833 0.31873 0.0
O32 O 0.74349 0.41752 0.28332 0.0
O33 O 0.79878 0.37576 0.30949 0.0
O34 O 0.83253 0.37696 0.36669 0.0
O35 O 0.78878 0.36733 0.43769 0.0
O36 O 0.72947 0.44874 0.41028 0.0
O37 O 0.72735 0.36901 0.43104 0.0
O38 O 0.69765 0.42003 0.42904 0.0
C39 C 0.83538 0.43617 0.41771 0.0
C40 C 0.67612 0.3732 0.32627 0.0
C41 C 0.82868 0.37152 0.3315 0.0
C42 C 0.74043 0.43863 0.28617 0.0
C43 C 0.75766 0.3599 0.44511 0.0
C44 C 0.70689 0.44056 0.43141 0.0
O45 O 0.83189 0.41597 0.42808 0.0
O46 O 0.8101 0.54705 0.88943 0.0
Zn47 Zn 0.75834 0.55747 0.87053 0.0
O48 O 0.75709 0.59 0.86818 0.0
Zn49 Zn 0.74516 0.59977 0.81535 0.0
Zn50 Zn 0.80473 0.60211 0.88978 0.0
Zn51 Zn 0.72011 0.60115 0.89829 0.0
O52 O 0.70132 0.62075 0.80999 0.0
O53 O 0.67774 0.61471 0.86445 0.0
O54 O 0.7406 0.54344 0.81868 0.0
O55 O 0.72906 0.57354 0.782 0.0
O56 O 0.79009 0.61357 0.79529 0.0
O57 O 0.83036 0.61524 0.84845 0.0
O58 O 0.80005 0.62724 0.92661 0.0
O59 O 0.72775 0.54645 0.91094 0.0
O60 O 0.73993 0.62651 0.93145 0.0
O61 O 0.70349 0.57731 0.93239 0.0
C62 C 0.83756 0.55682 0.90873 0.0
C63 C 0.67576 0.62344 0.83126 0.0
C64 C 0.82181 0.61879 0.81285 0.0
C65 C 0.72914 0.55245 0.78649 0.0
C66 C 0.77184 0.63519 0.93986 0.0
C67 C 0.70869 0.55628 0.93398 0.0
O68 O 0.83785 0.57787 0.91396 0.0
O69 O 0.17301 0.54995 0.61653 0.0
Zn70 Zn 0.22647 0.5571 0.6335 0.0
O71 O 0.23398 0.58901 0.63292 0.0
Zn72 Zn 0.24467 0.60002 0.68466 0.0
Zn73 Zn 0.18973 0.60322 0.60772 0.0
Zn74 Zn 0.27522 0.59595 0.60547 0.0
O75 O 0.28927 0.62023 0.68929 0.0
O76 O 0.31817 0.60723 0.64175 0.0
O77 O 0.24331 0.54385 0.68592 0.0
O78 O 0.25876 0.57442 0.72022 0.0
O79 O 0.19947 0.61505 0.70175 0.0
O80 O 0.16302 0.61863 0.64633 0.0
O81 O 0.20158 0.62658 0.57041 0.0
O82 O 0.25344 0.54288 0.59323 0.0
O83 O 0.26204 0.62166 0.57013 0.0
O84 O 0.28838 0.56986 0.57347 0.0
C85 C 0.14911 0.56016 0.59308 0.0
C86 C 0.31796 0.61901 0.67193 0.0
C87 C 0.16945 0.62169 0.68229 0.0
C88 C 0.25628 0.55327 0.7173 0.0
C89 C 0.23214 0.63214 0.559 0.0
C90 C 0.27642 0.54983 0.57144 0.0
O91 O 0.15405 0.58029 0.58315 0.0
O92 O 0.67539 0.94039 0.11635 0.0
Zn93 Zn 0.72871 0.93336 0.13481 0.0
O94 O 0.73688 0.90169 0.13124 0.0
Zn95 Zn 0.74477 0.88789 0.18138 0.0
Zn96 Zn 0.69479 0.88852 0.10087 0.0
Zn97 Zn 0.77995 0.89678 0.1061 0.0
O98 O 0.79219 0.86944 0.18672 0.0
O99 O 0.82214 0.88748 0.14455 0.0
O100 O 0.74312 0.94418 0.18926 0.0
O101 O 0.7532 0.91221 0.22108 0.0
O102 O 0.69912 0.87016 0.19191 0.0
O103 O 0.66486 0.87196 0.13503 0.0
O104 O 0.71025 0.86606 0.06362 0.0
O105 O 0.75667 0.94971 0.09738 0.0
O106 O 0.77126 0.87087 0.07031 0.0
O107 O 0.79208 0.92362 0.07568 0.0
C108 C 0.65391 0.9314 0.08912 0.0
C109 C 0.82195 0.87395 0.17247 0.0
C110 C 0.66932 0.86572 0.16984 0.0
C111 C 0.752 0.93349 0.22047 0.0
C112 C 0.74227 0.86052 0.05577 0.0
C113 C 0.77999 0.9436 0.07529 0.0
O114 O 0.66086 0.91221 0.07601 0.0
O115 O 0.31932 0.94258 0.38487 0.0
Zn116 Zn 0.26715 0.93324 0.36479 0.0
O117 O 0.26322 0.90098 0.36592 0.0
Zn118 Zn 0.25375 0.88815 0.31504 0.0
Zn119 Zn 0.3081 0.88876 0.39259 0.0
Zn120 Zn 0.22305 0.89288 0.39331 0.0
O121 O 0.20826 0.86807 0.31045 0.0
O122 O 0.17984 0.88308 0.35673 0.0
O123 O 0.25172 0.94484 0.31083 0.0
O124 O 0.24055 0.91324 0.27782 0.0
O125 O 0.30002 0.87251 0.30032 0.0
O126 O 0.33791 0.87556 0.35479 0.0
O127 O 0.29785 0.86382 0.42788 0.0
O128 O 0.23641 0.94714 0.40289 0.0
O129 O 0.2368 0.86634 0.42627 0.0
O130 O 0.20965 0.91788 0.4266 0.0
C131 C 0.34285 0.93322 0.40991 0.0
C132 C 0.17935 0.8708 0.32711 0.0
C133 C 0.33178 0.86959 0.31989 0.0
C134 C 0.24122 0.9345 0.27958 0.0
C135 C 0.2674 0.85666 0.43756 0.0
C136 C 0.2166 0.93871 0.42665 0.0
O137 O 0.33947 0.91286 0.4194 0.0
O138 O 0.31935 0.04789 0.8862 0.0
Zn139 Zn 0.26693 0.05657 0.86667 0.0
O140 O 0.26157 0.08857 0.86953 0.0
Zn141 Zn 0.25566 0.10168 0.8188 0.0
Zn142 Zn 0.30494 0.10077 0.89964 0.0
Zn143 Zn 0.21877 0.09525 0.89466 0.0
O144 O 0.20848 0.11996 0.81058 0.0
O145 O 0.17768 0.10661 0.85645 0.0
O146 O 0.25263 0.04536 0.81242 0.0
O147 O 0.24872 0.07717 0.77958 0.0
O148 O 0.30138 0.11936 0.8091 0.0
O149 O 0.33623 0.11634 0.86543 0.0
O150 O 0.29147 0.12397 0.93674 0.0
O151 O 0.23698 0.04163 0.90371 0.0
O152 O 0.23023 0.12063 0.93089 0.0
O153 O 0.20363 0.06894 0.92489 0.0
C154 C 0.3418 0.05664 0.9129 0.0
C155 C 0.17877 0.11818 0.82621 0.0
C156 C 0.33166 0.12302 0.83086 0.0
C157 C 0.24722 0.05593 0.78072 0.0
C158 C 0.26001 0.13029 0.94508 0.0
C159 C 0.21398 0.0486 0.92549 0.0
O160 O 0.33687 0.07635 0.92498 0.0
O161 O 0.67439 0.05051 0.61772 0.0
Zn162 Zn 0.72709 0.05964 0.63559 0.0
O163 O 0.73202 0.09194 0.63319 0.0
Zn164 Zn 0.74375 0.10442 0.68439 0.0
Zn165 Zn 0.68615 0.10452 0.6084 0.0
Zn166 Zn 0.77064 0.09952 0.60253 0.0
O167 O 0.79034 0.12322 0.68774 0.0
O168 O 0.81417 0.11237 0.63544 0.0
O169 O 0.74323 0.04798 0.68938 0.0
O170 O 0.75602 0.07949 0.72194 0.0
O171 O 0.69959 0.12148 0.70067 0.0
O172 O 0.6602 0.12013 0.64696 0.0
O173 O 0.69432 0.12775 0.56939 0.0
O174 O 0.75632 0.04501 0.59714 0.0
O175 O 0.7545 0.12428 0.56626 0.0
O176 O 0.78452 0.07321 0.57186 0.0
C177 C 0.64904 0.06014 0.59512 0.0
C178 C 0.81672 0.123 0.66702 0.0
C179 C 0.66811 0.126 0.68174 0.0
C180 C 0.75445 0.05827 0.72047 0.0
C181 C 0.72365 0.13393 0.55616 0.0
C182 C 0.77663 0.05252 0.57305 0.0
O183 O 0.6517 0.08057 0.58584 0.0
H184 H 0.61151 0.36579 0.35591 0.0
H185 H 0.55329 0.35197 0.32242 0.0
H186 H 0.60561 0.34131 0.2206 0.0
H187 H 0.6643 0.35544 0.25389 0.0
H188 H 0.54545 0.36893 0.20978 0.0
H189 H 0.50814 0.29271 0.28433 0.0
H190 H 0.52215 0.31482 0.31741 0.0
H191 H 0.55508 0.30332 0.28857 0.0
C192 C 0.61094 0.36014 0.3266 0.0
C193 C 0.64242 0.36201 0.30739 0.0
C194 C 0.57769 0.35192 0.30766 0.0
C195 C 0.57529 0.34529 0.26923 0.0
C196 C 0.60709 0.34611 0.25044 0.0
H197 H 0.36301 0.35005 0.12088 0.0
H198 H 0.42655 0.33787 0.1423 0.0
C199 C 0.64051 0.35428 0.26945 0.0
C200 C 0.53835 0.34141 0.24742 0.0
H201 H 0.45653 0.31417 0.25177 0.0
C202 C 0.52622 0.35655 0.21814 0.0
C203 C 0.51341 0.32534 0.25869 0.0
C204 C 0.52551 0.30799 0.28874 0.0
C205 C 0.48903 0.35728 0.20185 0.0
C206 C 0.46354 0.34196 0.21453 0.0
C207 C 0.47614 0.3259 0.2422 0.0
C208 C 0.42326 0.34415 0.20231 0.0
C209 C 0.47696 0.37552 0.1733 0.0
C210 C 0.3997 0.35017 0.22928 0.0
C211 C 0.36319 0.35675 0.21721 0.0
C212 C 0.35002 0.35762 0.17797 0.0
C213 C 0.37278 0.34993 0.15128 0.0
C214 C 0.40902 0.34299 0.16343 0.0
H215 H 0.49857 0.38859 0.17265 0.0
H216 H 0.47137 0.36819 0.14419 0.0
H217 H 0.4511 0.38366 0.18007 0.0
H218 H 0.41021 0.35108 0.25947 0.0
H219 H 0.34616 0.36251 0.23836 0.0
H220 H 0.64646 0.62947 0.75671 0.0
H221 H 0.58464 0.64351 0.73351 0.0
H222 H 0.56715 0.65992 0.84929 0.0
H223 H 0.62847 0.64504 0.87279 0.0
H224 H 0.51665 0.63261 0.81865 0.0
H225 H 0.52692 0.69998 0.71412 0.0
H226 H 0.55419 0.67655 0.70282 0.0
H227 H 0.56625 0.69121 0.74745 0.0
C228 C 0.62983 0.63664 0.77708 0.0
C229 C 0.6419 0.63584 0.81655 0.0
C230 C 0.59462 0.64493 0.76375 0.0
C231 C 0.57135 0.653 0.78963 0.0
C232 C 0.58468 0.65383 0.82882 0.0
H233 H 0.32862 0.64598 0.73536 0.0
H234 H 0.38753 0.66132 0.76587 0.0
C235 C 0.61958 0.6452 0.84221 0.0
C236 C 0.53129 0.65616 0.77678 0.0
H237 H 0.47053 0.67696 0.70338 0.0
C238 C 0.50637 0.64288 0.79418 0.0
C239 C 0.51791 0.66952 0.74486 0.0
C240 C 0.54279 0.68528 0.72657 0.0
C241 C 0.4691 0.6411 0.77864 0.0
C242 C 0.45634 0.65319 0.74505 0.0
C243 C 0.48055 0.66767 0.72909 0.0
C244 C 0.41982 0.64826 0.72332 0.0
C245 C 0.44445 0.62492 0.79656 0.0
C246 C 0.41843 0.63677 0.6885 0.0
C247 C 0.38497 0.62802 0.67098 0.0
C248 C 0.35232 0.63059 0.6881 0.0
C249 C 0.35339 0.64341 0.72175 0.0
C250 C 0.38694 0.65225 0.73917 0.0
H251 H 0.4602 0.61459 0.81931 0.0
H252 H 0.42297 0.63437 0.80961 0.0
H253 H 0.43007 0.6136 0.77447 0.0
H254 H 0.44361 0.63352 0.6759 0.0
H255 H 0.38508 0.61847 0.64485 0.0
H256 H 0.16815 0.83319 0.28223 0.0
H257 H 0.10815 0.81665 0.25652 0.0
H258 H 0.05144 0.86904 0.31022 0.0
H259 H 0.11052 0.88474 0.33718 0.0
H260 H 0.0183 0.82995 0.31729 0.0
H261 H 0.04413 0.84132 0.16559 0.0
H262 H 0.07454 0.82304 0.19545 0.0
H263 H 0.07541 0.85257 0.20473 0.0
C264 C 0.14275 0.84102 0.28855 0.0
C265 C 0.14393 0.86032 0.31147 0.0
C266 C 0.10856 0.83161 0.27383 0.0
C267 C 0.07525 0.84174 0.28106 0.0
C268 C 0.07669 0.86078 0.30447 0.0
H269 H 0.89049 0.89117 0.17163 0.0
H270 H 0.9497 0.87463 0.19648 0.0
C271 C 0.11057 0.86985 0.31971 0.0
C272 C 0.03839 0.83409 0.26282 0.0
H273 H 0.98305 0.83717 0.17719 0.0
C274 C 0.01051 0.83098 0.28654 0.0
C275 C 0.02853 0.83496 0.22264 0.0
C276 C 0.05706 0.83823 0.19547 0.0
C277 C 0.97281 0.83205 0.2718 0.0
C278 C 0.96299 0.83533 0.23201 0.0
C279 C 0.99085 0.83505 0.20777 0.0
C280 C 0.92612 0.84417 0.21618 0.0
C281 C 0.94421 0.83205 0.29937 0.0
C282 C 0.89295 0.83265 0.21925 0.0
C283 C 0.85869 0.84245 0.20581 0.0
C284 C 0.85738 0.8636 0.18835 0.0
C285 C 0.89063 0.87482 0.18482 0.0
C286 C 0.92454 0.8653 0.19882 0.0
H287 H 0.95707 0.83209 0.32976 0.0
H288 H 0.92589 0.8469 0.29454 0.0
H289 H 0.92668 0.8169 0.29462 0.0
H290 H 0.8935 0.81617 0.23191 0.0
H291 H 0.83337 0.83335 0.20839 0.0
H292 H 0.11196 0.11976 0.85366 0.0
H293 H 0.05322 0.13341 0.82081 0.0
H294 H 0.1082 0.1551 0.72574 0.0
H295 H 0.16744 0.14115 0.75821 0.0
H296 H 0.02702 0.17569 0.78679 0.0
H297 H 0.03335 0.10658 0.68144 0.0
H298 H 0.06405 0.10758 0.72591 0.0
H299 H 0.07131 0.12603 0.68741 0.0
C300 C 0.1118 0.12764 0.82595 0.0
C301 C 0.14428 0.12896 0.8082 0.0
C302 C 0.07821 0.13561 0.80738 0.0
C303 C 0.07644 0.14501 0.77077 0.0
C304 C 0.1091 0.14767 0.75389 0.0
H305 H 0.86638 0.13994 0.6232 0.0
H306 H 0.92913 0.15313 0.64495 0.0
C307 C 0.14284 0.13966 0.77246 0.0
C308 C 0.03969 0.14929 0.74896 0.0
H309 H 0.97756 0.12579 0.67989 0.0
C310 C 0.01627 0.16514 0.76286 0.0
C311 C 0.02595 0.1355 0.71776 0.0
C312 C 0.04974 0.11785 0.70222 0.0
C313 C 0.97882 0.1669 0.74734 0.0
C314 C 0.96449 0.15205 0.71786 0.0
C315 C 0.98857 0.13718 0.70249 0.0
C316 C 0.92424 0.14955 0.70529 0.0
C317 C 0.9549 0.18427 0.76323 0.0
C318 C 0.90019 0.14387 0.73203 0.0
C319 C 0.86412 0.13658 0.71965 0.0
C320 C 0.85195 0.13436 0.68036 0.0
C321 C 0.87528 0.14124 0.65369 0.0
C322 C 0.91104 0.14889 0.66607 0.0
H323 H 0.97159 0.19911 0.77362 0.0
H324 H 0.93181 0.18975 0.74147 0.0
H325 H 0.94294 0.17714 0.78804 0.0
H326 H 0.91 0.14364 0.76239 0.0
H327 H 0.84672 0.13128 0.74077 0.0
H328 H 0.16283 0.32531 0.0431 0.0
H329 H 0.16831 0.28647 0.02315 0.0
H330 H 0.28083 0.29857 0.00187 0.0
H331 H 0.27587 0.33737 0.0218 0.0
H332 H 0.19276 0.26484 0.95449 0.0
H333 H 0.28627 0.25079 0.09037 0.0
H334 H 0.25656 0.27499 0.0826 0.0
H335 H 0.2987 0.27346 0.06105 0.0
C336 C 0.18844 0.31991 0.03324 0.0
C337 C 0.21916 0.33433 0.03473 0.0
C338 C 0.19152 0.2977 0.02197 0.0
C339 C 0.22525 0.2897 0.01204 0.0
C340 C 0.25482 0.30448 0.01019 0.0
H341 H 0.31426 0.16146 0.96405 0.0
H342 H 0.30506 0.19991 0.98403 0.0
C343 C 0.25182 0.32665 0.02142 0.0
C344 C 0.23058 0.26558 0.00672 0.0
H345 H 0.27779 0.22044 0.04715 0.0
C346 C 0.21118 0.25505 0.97473 0.0
C347 C 0.2546 0.25302 0.03343 0.0
C348 C 0.27507 0.26353 0.069 0.0
C349 C 0.21593 0.23221 0.96814 0.0
C350 C 0.24005 0.21963 0.99482 0.0
C351 C 0.25924 0.23017 0.02695 0.0
C352 C 0.24671 0.19567 0.98888 0.0
C353 C 0.19593 0.22188 0.93216 0.0
C354 C 0.21741 0.18035 0.98724 0.0
C355 C 0.22251 0.15839 0.97582 0.0
C356 C 0.25711 0.15142 0.9661 0.0
C357 C 0.28724 0.16632 0.97116 0.0
C358 C 0.28202 0.18832 0.98243 0.0
H359 H 0.18555 0.23473 0.91064 0.0
H360 H 0.21442 0.21023 0.91894 0.0
H361 H 0.17171 0.21225 0.93946 0.0
H362 H 0.19019 0.18565 0.99314 0.0
H363 H 0.19885 0.14725 0.97268 0.0
H364 H 0.81433 0.33024 0.46455 0.0
H365 H 0.80815 0.29131 0.48368 0.0
H366 H 0.69128 0.30137 0.48833 0.0
H367 H 0.69706 0.34031 0.46955 0.0
H368 H 0.7297 0.27411 0.54889 0.0
H369 H 0.75373 0.24755 0.40258 0.0
H370 H 0.78872 0.26532 0.4275 0.0
H371 H 0.74273 0.276 0.41387 0.0
C372 C 0.78748 0.32435 0.47054 0.0
C373 C 0.75606 0.33828 0.46498 0.0
C374 C 0.78398 0.30207 0.48114 0.0
C375 C 0.74911 0.29347 0.48639 0.0
C376 C 0.71833 0.30773 0.48393 0.0
H377 H 0.66536 0.16257 0.53723 0.0
H378 H 0.66937 0.20117 0.51562 0.0
C379 C 0.72174 0.32997 0.47326 0.0
C380 C 0.74408 0.26935 0.49205 0.0
H381 H 0.74663 0.21891 0.44727 0.0
C382 C 0.7333 0.262 0.52674 0.0
C383 C 0.74863 0.25375 0.46282 0.0
C384 C 0.7588 0.26097 0.42443 0.0
C385 C 0.72771 0.23927 0.53338 0.0
C386 C 0.73226 0.22365 0.50415 0.0
C387 C 0.74294 0.23101 0.46941 0.0
C388 C 0.72794 0.19947 0.51014 0.0
C389 C 0.71797 0.2321 0.57198 0.0
C390 C 0.75896 0.18545 0.51151 0.0
C391 C 0.75674 0.16336 0.52346 0.0
C392 C 0.72342 0.15499 0.53429 0.0
C393 C 0.69153 0.16855 0.52949 0.0
C394 C 0.6938 0.19065 0.51744 0.0
H395 H 0.72354 0.24549 0.59381 0.0
H396 H 0.68798 0.22797 0.56935 0.0
H397 H 0.7339 0.21699 0.58235 0.0
H398 H 0.78544 0.19196 0.50552 0.0
H399 H 0.78175 0.15331 0.52646 0.0
H400 H 0.68892 0.82959 0.03191 0.0
H401 H 0.69914 0.79167 0.01011 0.0
H402 H 0.81545 0.80594 0.00987 0.0
H403 H 0.80575 0.84384 0.03228 0.0
H404 H 0.7295 0.77302 0.94788 0.0
H405 H 0.8152 0.75437 0.08686 0.0
H406 H 0.7872 0.77926 0.07926 0.0
H407 H 0.83088 0.77745 0.06059 0.0
C408 C 0.71657 0.82486 0.0265 0.0
C409 C 0.74665 0.83962 0.03447 0.0
C410 C 0.72235 0.80315 0.01413 0.0
C411 C 0.75821 0.79591 0.00947 0.0
C412 C 0.78774 0.81112 0.01431 0.0
H413 H 0.8319 0.6632 0.95137 0.0
H414 H 0.83131 0.70241 0.97095 0.0
C415 C 0.78205 0.8328 0.02684 0.0
C416 C 0.76482 0.77211 0.00184 0.0
H417 H 0.80729 0.72518 0.04148 0.0
C418 C 0.74663 0.76258 0.96822 0.0
C419 C 0.7871 0.75858 0.02864 0.0
C420 C 0.80601 0.76782 0.06604 0.0
C421 C 0.75001 0.73976 0.9607 0.0
C422 C 0.77179 0.7262 0.98774 0.0
C423 C 0.79063 0.73575 0.02097 0.0
C424 C 0.77418 0.70191 0.98216 0.0
C425 C 0.73016 0.73023 0.92397 0.0
C426 C 0.74281 0.68858 0.98402 0.0
C427 C 0.74303 0.66623 0.97308 0.0
C428 C 0.77466 0.65689 0.95999 0.0
C429 C 0.80705 0.66989 0.96115 0.0
C430 C 0.80677 0.6923 0.97218 0.0
H431 H 0.72093 0.7435 0.90282 0.0
H432 H 0.74839 0.71838 0.91082 0.0
H433 H 0.70528 0.72091 0.93034 0.0
H434 H 0.71761 0.69575 0.99226 0.0
H435 H 0.71773 0.65665 0.9729 0.0
H436 H 0.29232 0.64922 0.52967 0.0
H437 H 0.29936 0.6872 0.50653 0.0
H438 H 0.18461 0.70088 0.51727 0.0
H439 H 0.17702 0.66286 0.54011 0.0
H440 H 0.21121 0.71956 0.45057 0.0
H441 H 0.30236 0.73863 0.58601 0.0
H442 H 0.31641 0.71522 0.55932 0.0
H443 H 0.27379 0.71391 0.58007 0.0
C444 C 0.26833 0.66013 0.52641 0.0
C445 C 0.23424 0.65312 0.53735 0.0
C446 C 0.27251 0.68185 0.5134 0.0
C447 C 0.24276 0.69688 0.51124 0.0
C448 C 0.20796 0.68949 0.51919 0.0
H449 H 0.20831 0.83723 0.46526 0.0
H450 H 0.20349 0.79851 0.48566 0.0
C451 C 0.20369 0.66774 0.53214 0.0
C452 C 0.24848 0.72069 0.50321 0.0
H453 H 0.29356 0.76744 0.53992 0.0
C454 C 0.22918 0.73006 0.47002 0.0
C455 C 0.2719 0.73424 0.52888 0.0
C456 C 0.29211 0.72511 0.56576 0.0
C457 C 0.23304 0.75272 0.46152 0.0
C458 C 0.25625 0.76631 0.48733 0.0
C459 C 0.27576 0.7569 0.52037 0.0
C460 C 0.26059 0.79035 0.48023 0.0
C461 C 0.21268 0.76188 0.42475 0.0
C462 C 0.29491 0.79878 0.47275 0.0
C463 C 0.29791 0.82096 0.46137 0.0
C464 C 0.26655 0.83497 0.45733 0.0
C465 C 0.2329 0.82682 0.46766 0.0
C466 C 0.22999 0.80468 0.47908 0.0
H467 H 0.20332 0.74839 0.40408 0.0
H468 H 0.18778 0.77117 0.43121 0.0
H469 H 0.23054 0.77362 0.41092 0.0
H470 H 0.31891 0.78793 0.47395 0.0
H471 H 0.32426 0.82673 0.45377 0.0
H472 H 0.90046 0.5716 0.95249 0.0
H473 H 0.95204 0.54915 0.9832 0.0
H474 H 0.8981 0.48926 0.93644 0.0
H475 H 0.84645 0.51151 0.90527 0.0
H476 H 0.94724 0.51401 0.03702 0.0
H477 H 0.00414 0.48514 0.90612 0.0
H478 H 0.97275 0.50854 0.90587 0.0
H479 H 0.95529 0.48051 0.90637 0.0
C480 C 0.89961 0.55367 0.94847 0.0
C481 C 0.86935 0.54335 0.92632 0.0
C482 C 0.92908 0.54089 0.9661 0.0
C483 C 0.92893 0.51764 0.96168 0.0
C484 C 0.89891 0.50725 0.9396 0.0
H485 H 0.08313 0.41345 0.04757 0.0
H486 H 0.02947 0.43453 0.01774 0.0
C487 C 0.86938 0.52 0.92196 0.0
C488 C 0.95974 0.50421 0.98122 0.0
H489 H 0.0304 0.4694 0.96509 0.0
C490 C 0.96553 0.50428 0.02138 0.0
C491 C 0.98328 0.49153 0.96056 0.0
C492 C 0.97888 0.49149 0.91734 0.0
C493 C 0.9942 0.49175 0.04158 0.0
C494 C 0.01796 0.47921 0.02092 0.0
C495 C 0.01201 0.47904 0.98075 0.0
C496 C 0.04967 0.46645 0.04039 0.0
C497 C -0.00155 0.49176 0.08479 0.0
C498 C 0.07876 0.4775 0.06283 0.0
C499 C 0.10941 0.46553 0.08 0.0
C500 C 0.11163 0.44231 0.07472 0.0
C501 C 0.08231 0.43131 0.05225 0.0
C502 C 0.05164 0.4433 0.03516 0.0
H503 H 0.97253 0.49716 0.09581 0.0
H504 H 0.00619 0.47493 0.0964 0.0
H505 H 0.0208 0.50358 0.09582 0.0
H506 H 0.07804 0.49545 0.06652 0.0
H507 H 0.13159 0.47456 0.09691 0.0
H508 H 0.12957 0.51715 0.60693 0.0
H509 H 0.07522 0.49679 0.57716 0.0
H510 H 0.03837 0.55515 0.51126 0.0
H511 H 0.09248 0.57585 0.54113 0.0
H512 H 0.98217 0.53298 0.5467 0.0
H513 H 0.0618 0.47479 0.46508 0.0
H514 H 0.07759 0.47611 0.51552 0.0
H515 H 0.08141 0.50032 0.48613 0.0
C516 C 0.10993 0.52572 0.58616 0.0
C517 C 0.11551 0.5481 0.5762 0.0
C518 C 0.07901 0.51401 0.56908 0.0
C519 C 0.05329 0.52441 0.54163 0.0
C520 C 0.05818 0.54686 0.53225 0.0
H521 H 0.85115 0.47993 0.40449 0.0
H522 H 0.90358 0.50181 0.43484 0.0
C523 C 0.0891 0.55862 0.54933 0.0
C524 C 0.02123 0.51181 0.52274 0.0
H525 H -0.00216 0.46688 0.4652 0.0
C526 C 0.98547 0.5186 0.5287 0.0
C527 C 0.02589 0.49311 0.49933 0.0
C528 C 0.0637 0.48572 0.49077 0.0
C529 C 0.95406 0.50678 0.51245 0.0
C530 C 0.95876 0.48798 0.48928 0.0
C531 C 0.99451 0.48129 0.48313 0.0
C532 C 0.92691 0.47488 0.47121 0.0
C533 C 0.91621 0.51416 0.52088 0.0
C534 C 0.92328 0.45241 0.48115 0.0
C535 C 0.89352 0.43981 0.46376 0.0
C536 C 0.86701 0.44947 0.43597 0.0
C537 C 0.87098 0.47199 0.42589 0.0
C538 C 0.90077 0.48457 0.44333 0.0
H539 H 0.91804 0.52552 0.54601 0.0
H540 H 0.902 0.52326 0.4957 0.0
H541 H 0.89884 0.49955 0.52635 0.0
H542 H 0.94341 0.44467 0.5025 0.0
H543 H 0.89135 0.42251 0.47213 0.0
H544 H 0.63155 0.97318 0.10756 0.0
H545 H 0.57737 0.99379 0.07794 0.0
H546 H 0.54667 0.93823 0.00257 0.0
H547 H 0.60103 0.91748 0.03165 0.0
H548 H 0.54688 0.97999 0.96558 0.0
H549 H 0.46786 0.98273 0.09058 0.0
H550 H 0.51494 0.99238 0.10032 0.0
H551 H 0.50591 0.96364 0.08773 0.0
C552 C 0.61319 0.96525 0.08485 0.0
C553 C 0.62058 0.94366 0.07201 0.0
C554 C 0.58216 0.97702 0.06813 0.0
C555 C 0.55788 0.96736 0.03852 0.0
C556 C 0.56509 0.94586 0.02558 0.0
H557 H 0.361 0.01405 0.89536 0.0
H558 H 0.41376 0.99228 0.92533 0.0
C559 C 0.59613 0.93406 0.04225 0.0
C560 C 0.52573 0.98006 0.02 0.0
H561 H 0.44538 0.00536 0.03718 0.0
C562 C 0.52453 0.98544 0.98109 0.0
C563 C 0.49682 0.98712 0.04052 0.0
C564 C 0.49613 0.98103 0.08202 0.0
C565 C 0.49537 -0.00186 0.96221 0.0
C566 C 0.46656 0.00529 0.98277 0.0
C567 C 0.46767 -0.00016 0.02164 0.0
C568 C 0.43493 0.01849 0.96445 0.0
C569 C 0.49602 0.00424 0.9207 0.0
C570 C 0.42917 0.04024 0.97712 0.0
C571 C 0.39901 0.05271 0.96021 0.0
C572 C 0.374 0.04355 0.93049 0.0
C573 C 0.37983 0.02165 0.91804 0.0
C574 C 0.41002 0.00921 0.93498 0.0
H575 H 0.52403 0.00196 0.91177 0.0
H576 H 0.47635 0.99335 0.90246 0.0
H577 H 0.48721 0.02184 0.9153 0.0
H578 H 0.44812 0.04758 0.0 0.0
H579 H 0.3953 0.0695 0.97054 0.0
H580 H 0.39935 0.91864 0.46287 0.0
H581 H 0.4505 0.94057 0.49564 0.0
H582 H 0.40927 -0.00079 0.43302 0.0
H583 H 0.3577 0.97753 0.40023 0.0
H584 H 0.50484 0.96519 0.46187 0.0
H585 H 0.4208 0.01903 0.54653 0.0
H586 H 0.40314 0.99343 0.524 0.0
H587 H 0.40558 0.01829 0.49591 0.0
C588 C 0.40105 0.93621 0.45604 0.0
C589 C 0.37433 0.94636 0.42902 0.0
C590 C 0.4303 0.94868 0.47481 0.0
C591 C 0.43322 0.97151 0.46708 0.0
C592 C 0.40699 0.98167 0.43981 0.0
H593 H 0.59023 0.07479 0.54507 0.0
H594 H 0.53799 0.05282 0.51463 0.0
C595 C 0.37771 0.96921 0.42096 0.0
C596 C 0.46426 0.98457 0.48702 0.0
H597 H 0.48454 0.0281 0.54862 0.0
C598 C 0.50051 0.97889 0.48099 0.0
C599 C 0.45828 0.00239 0.51184 0.0
C600 C 0.41989 0.00859 0.52032 0.0
C601 C 0.5311 0.9909 0.49865 0.0
C602 C 0.52514 0.00873 0.52347 0.0
C603 C 0.48888 0.01438 0.52957 0.0
C604 C 0.55621 0.02196 0.54294 0.0
C605 C 0.56944 0.98474 0.48993 0.0
C606 C 0.58326 0.0119 0.56946 0.0
C607 C 0.61321 0.02436 0.58689 0.0
C608 C 0.61644 0.04714 0.5782 0.0
C609 C 0.58869 0.05727 0.55231 0.0
C610 C 0.5588 0.04477 0.5349 0.0
H611 H 0.56843 0.97438 0.46363 0.0
H612 H 0.58616 -7e-05 0.48626 0.0
H613 H 0.58387 0.97498 0.51418 0.0
H614 H 0.58126 0.99438 0.57654 0.0
H615 H 0.63397 0.01608 0.60687 0.0
H616 H 0.16172 0.36873 0.26053 0.0
H617 H 0.10643 0.3607 0.29152 0.0
H618 H 0.0502 0.33614 0.18433 0.0
H619 H 0.10508 0.34387 0.15343 0.0
H620 H 0.04108 0.38303 0.26599 0.0
H621 H 0.01681 0.2917 0.26095 0.0
H622 H 0.06148 0.30394 0.25628 0.0
H623 H 0.02578 0.30308 0.21587 0.0
C624 C 0.13803 0.3609 0.24395 0.0
C625 C 0.1376 0.35712 0.20449 0.0
C626 C 0.10645 0.35638 0.26163 0.0
C627 C 0.07429 0.3477 0.24026 0.0
C628 C 0.07485 0.34245 0.20155 0.0
H629 H 0.84333 0.37144 0.25696 0.0
H630 H 0.90287 0.36246 0.2345 0.0
C631 C 0.1062 0.34707 0.18385 0.0
C632 C 0.03854 0.34752 0.25627 0.0
H633 H 0.96411 0.31478 0.26932 0.0
C634 C 0.02451 0.36804 0.26723 0.0
C635 C 0.01685 0.32797 0.25756 0.0
C636 C 0.03112 0.30538 0.24737 0.0
C637 C 0.98896 0.36967 0.27838 0.0
C638 C 0.96685 0.35029 0.27846 0.0
C639 C 0.98109 0.32962 0.2686 0.0
C640 C 0.92925 0.35153 0.28994 0.0
C641 C 0.9749 0.39213 0.28962 0.0
C642 C 0.92435 0.34765 0.32816 0.0
C643 C 0.89065 0.35289 0.34109 0.0
C644 C 0.86123 0.36201 0.31592 0.0
C645 C 0.86541 0.36438 0.27697 0.0
C646 C 0.89935 0.35929 0.26412 0.0
H647 H -0.00345 0.40529 0.29068 0.0
H648 H 0.95093 0.39723 0.26862 0.0
H649 H 0.96502 0.39103 0.31814 0.0
H650 H 0.94724 0.34173 0.34843 0.0
H651 H 0.8882 0.3507 0.37121 0.0
H652 H 0.14486 0.60482 0.74586 0.0
H653 H 0.08452 0.61207 0.76715 0.0
H654 H 0.0649 0.66531 0.68434 0.0
H655 H 0.12411 0.65685 0.66109 0.0
H656 H 0.04846 0.64307 0.79591 0.0
H657 H 0.97826 0.62767 0.64886 0.0
H658 H 0.02741 0.62378 0.66156 0.0
H659 H 0.00864 0.65133 0.65152 0.0
C660 C 0.12798 0.61839 0.73285 0.0
C661 C 0.13879 0.63018 0.70171 0.0
C662 C 0.09341 0.62248 0.74487 0.0
C663 C 0.06948 0.63872 0.7264 0.0
C664 C 0.0821 0.65207 0.69793 0.0
H665 H 0.86199 0.65667 0.82667 0.0
H666 H 0.92005 0.66595 0.80171 0.0
C667 C 0.11614 0.64748 0.68506 0.0
C668 C 0.03068 0.64046 0.73537 0.0
H669 H 0.94001 0.63747 0.69535 0.0
C670 C 0.02473 0.64191 0.77391 0.0
C671 C -0.00035 0.63857 0.70666 0.0
C672 C 0.00373 0.63501 0.66491 0.0
C673 C 0.98891 0.6408 0.78471 0.0
C674 C 0.95784 0.63948 0.75594 0.0
C675 C 0.96373 0.63875 0.71733 0.0
C676 C 0.91937 0.6367 0.76537 0.0
C677 C 0.98517 0.63971 0.82692 0.0
C678 C 0.89785 0.61842 0.75045 0.0
C679 C 0.86383 0.61377 0.76329 0.0
C680 C 0.85122 0.6271 0.79168 0.0
C681 C 0.87137 0.64619 0.80471 0.0
C682 C 0.90478 0.65126 0.79095 0.0
H683 H 0.01153 0.6345 0.8442 0.0
H684 H 0.97794 0.6565 0.83703 0.0
H685 H 0.96312 0.62779 0.83259 0.0
H686 H 0.9083 0.60701 0.73047 0.0
H687 H 0.84888 0.5988 0.75327 0.0
H688 H 0.40218 0.86212 0.35427 0.0
H689 H 0.45657 0.85267 0.32413 0.0
H690 H 0.38857 0.84656 0.21484 0.0
H691 H 0.33352 0.85688 0.24475 0.0
H692 H 0.47903 0.81802 0.28383 0.0
H693 H 0.4614 0.89431 0.19308 0.0
H694 H 0.43393 0.88925 0.23134 0.0
H695 H 0.42334 0.87502 0.18627 0.0
C696 C 0.39848 0.85863 0.32382 0.0
C697 C 0.36344 0.86068 0.30179 0.0
C698 C 0.42974 0.85309 0.30667 0.0
C699 C 0.42682 0.84936 0.26712 0.0
C700 C 0.39158 0.84992 0.2453 0.0
H701 H 0.60844 0.84699 0.12897 0.0
H702 H 0.54968 0.83795 0.15185 0.0
C703 C 0.36012 0.85568 0.26246 0.0
C704 C 0.46126 0.84661 0.24903 0.0
H705 H 0.514 0.87236 0.18846 0.0
C706 C 0.48653 0.82975 0.26265 0.0
C707 C 0.47118 0.86207 0.22168 0.0
C708 C 0.44626 0.88131 0.20741 0.0
C709 C 0.52167 0.8282 0.25014 0.0
C710 C 0.5317 0.84392 0.22344 0.0
C711 C 0.50605 0.86028 0.20888 0.0
C712 C 0.56923 0.84469 0.21134 0.0
C713 C 0.54793 0.80995 0.26579 0.0
C714 C 0.60013 0.85077 0.23747 0.0
C715 C 0.63396 0.85602 0.22448 0.0
C716 C 0.63715 0.85546 0.1851 0.0
C717 C 0.60684 0.84782 0.15946 0.0
C718 C 0.5732 0.84258 0.17245 0.0
H719 H 0.53315 0.79619 0.27861 0.0
H720 H 0.56303 0.80299 0.24295 0.0
H721 H 0.56876 0.817 0.28843 0.0
H722 H 0.59745 0.85282 0.26757 0.0
H723 H 0.6567 0.86193 0.24491 0.0
H724 H 0.65851 0.12478 0.75781 0.0
H725 H 0.60099 0.13373 0.78453 0.0
H726 H 0.55242 0.15866 0.67459 0.0
H727 H 0.60935 0.14977 0.6477 0.0
H728 H 0.54578 0.17757 0.77591 0.0
H729 H 0.49772 0.09729 0.70615 0.0
H730 H 0.54632 0.10331 0.71976 0.0
H731 H 0.52134 0.11687 0.67894 0.0
C732 C 0.63604 0.13287 0.73973 0.0
C733 C 0.63818 0.13628 0.70057 0.0
C734 C 0.60325 0.13796 0.755 0.0
C735 C 0.57256 0.14667 0.73133 0.0
C736 C 0.57587 0.15191 0.69319 0.0
H737 H 0.33854 0.13329 0.75599 0.0
H738 H 0.39549 0.14398 0.73018 0.0
C739 C 0.60837 0.14674 0.6779 0.0
C740 C 0.53554 0.14696 0.74436 0.0
H741 H 0.4552 0.11705 0.73797 0.0
C742 C 0.52584 0.16442 0.76767 0.0
C743 C 0.50966 0.12986 0.73309 0.0
C744 C 0.51908 0.11065 0.70824 0.0
C745 C 0.49064 0.16512 0.78026 0.0
C746 C 0.465 0.14769 0.76969 0.0
C747 C 0.47471 0.13048 0.74581 0.0
C748 C 0.42921 0.14568 0.78546 0.0
C749 C 0.48115 0.18457 0.80444 0.0
C750 C 0.42907 0.14361 0.8251 0.0
C751 C 0.39666 0.13759 0.83988 0.0
C752 C 0.36373 0.13322 0.8153 0.0
C753 C 0.36338 0.1365 0.77571 0.0
C754 C 0.39592 0.1426 0.76092 0.0
H755 H 0.49753 0.19963 0.79898 0.0
H756 H 0.45116 0.18875 0.79892 0.0
H757 H 0.48797 0.18017 0.83516 0.0
H758 H 0.45452 0.14538 0.84455 0.0
H759 H 0.39797 0.1353 0.87055 0.0
H760 H 0.33012 0.43138 0.02499 0.0
H761 H 0.34116 0.45239 0.96786 0.0
H762 H 0.249 0.49566 0.98272 0.0
H763 H 0.23925 0.47562 0.04061 0.0
H764 H 0.29929 0.45496 0.9043 0.0
H765 H 0.31897 0.5413 0.95607 0.0
H766 H 0.31976 0.51802 0.98863 0.0
H767 H 0.27634 0.53089 0.96954 0.0
C768 C 0.31293 0.44579 0.01661 0.0
C769 C 0.28397 0.45193 0.03744 0.0
C770 C 0.31916 0.45773 0.98388 0.0
C771 C 0.29627 0.47586 0.97112 0.0
C772 C 0.26792 0.48228 0.99251 0.0
H773 H 0.22494 0.5148 0.73937 0.0
H774 H 0.23988 0.49513 0.80026 0.0
C775 C 0.2622 0.47067 0.02561 0.0
C776 C 0.29929 0.48662 0.93356 0.0
H777 H 0.29445 0.53719 0.88879 0.0
C778 C 0.29901 0.47297 0.90103 0.0
C779 C 0.29981 0.5101 0.92908 0.0
C780 C 0.30419 0.52585 0.96284 0.0
C781 C 0.29721 0.48211 0.86412 0.0
C782 C 0.29388 0.50553 0.85938 0.0
C783 C 0.29621 0.5192 0.89209 0.0
C784 C 0.2866 0.51629 0.82103 0.0
C785 C 0.29908 0.46647 0.8308 0.0
C786 C 0.30713 0.53511 0.81257 0.0
C787 C 0.29769 0.54682 0.77842 0.0
C788 C 0.26802 0.53969 0.75165 0.0
C789 C 0.24828 0.52043 0.75933 0.0
C790 C 0.25705 0.50907 0.79403 0.0
H791 H 0.31568 0.45137 0.83988 0.0
H792 H 0.27063 0.46081 0.81975 0.0
H793 H 0.31152 0.47467 0.8072 0.0
H794 H 0.33 0.54107 0.8328 0.0
H795 H 0.31342 0.56161 0.77308 0.0
H796 H 0.65152 0.43257 0.47607 0.0
H797 H 0.64127 0.45217 0.53496 0.0
H798 H 0.73063 0.49742 0.51978 0.0
H799 H 0.73956 0.47886 0.4604 0.0
H800 H 0.68453 0.45462 0.59809 0.0
H801 H 0.65946 0.54125 0.55006 0.0
H802 H 0.65892 0.51847 0.5165 0.0
H803 H 0.70204 0.5319 0.53493 0.0
C804 C 0.66819 0.44713 0.48476 0.0
C805 C 0.69615 0.45424 0.46333 0.0
C806 C 0.66245 0.45825 0.51854 0.0
C807 C 0.68478 0.47654 0.5317 0.0
C808 C 0.71211 0.4839 0.50978 0.0
H809 H 0.76023 0.51398 0.76391 0.0
H810 H 0.74427 0.49431 0.70308 0.0
C811 C 0.71734 0.47312 0.47575 0.0
C812 C 0.68225 0.48666 0.56993 0.0
H813 H 0.68615 0.53666 0.61658 0.0
C814 C 0.68409 0.47257 0.60205 0.0
C815 C 0.68081 0.51005 0.57535 0.0
C816 C 0.67475 0.5262 0.54224 0.0
C817 C 0.68656 0.48123 0.63941 0.0
C818 C 0.68892 0.50464 0.64497 0.0
C819 C 0.68508 0.51869 0.6127 0.0
C820 C 0.69659 0.51507 0.68364 0.0
C821 C 0.68636 0.4651 0.67229 0.0
C822 C 0.67579 0.53362 0.69297 0.0
C823 C 0.68584 0.54535 0.72701 0.0
C824 C 0.71634 0.53846 0.75293 0.0
C825 C 0.73623 0.51938 0.74461 0.0
C826 C 0.72687 0.50802 0.70994 0.0
H827 H 0.67023 0.44984 0.66311 0.0
H828 H 0.71525 0.45978 0.68228 0.0
H829 H 0.6743 0.47274 0.69666 0.0
H830 H 0.65232 0.53945 0.67337 0.0
H831 H 0.67006 0.56004 0.73285 0.0
H832 H 0.74021 0.42448 0.21246 0.0
H833 H 0.72542 0.446 0.15377 0.0
H834 H 0.70332 0.50395 0.22005 0.0
H835 H 0.71914 0.48264 0.27929 0.0
H836 H 0.66216 0.46705 0.12354 0.0
H837 H 0.77698 0.52835 0.15396 0.0
H838 H 0.77442 0.5033 0.18188 0.0
H839 H 0.74614 0.52708 0.18986 0.0
C840 C 0.73232 0.44183 0.2147 0.0
C841 C 0.73117 0.45189 0.25067 0.0
C842 C 0.72374 0.45409 0.18103 0.0
C843 C 0.71372 0.47666 0.18248 0.0
C844 C 0.71179 0.48669 0.21827 0.0
H845 H 0.67774 0.57274 0.9952 0.0
H846 H 0.67169 0.55345 0.0552 0.0
C847 C 0.72072 0.47446 0.2521 0.0
C848 C 0.70579 0.48953 0.14634 0.0
H849 H 0.73607 0.53355 0.09714 0.0
C850 C 0.67819 0.48167 0.11784 0.0
C851 C 0.72675 0.50859 0.13891 0.0
C852 C 0.75796 0.51726 0.16757 0.0
C853 C 0.67134 0.49217 0.08196 0.0
C854 C 0.69274 0.51094 0.0744 0.0
C855 C 0.71957 0.5192 0.1032 0.0
C856 C 0.68985 0.52145 0.03607 0.0
C857 C 0.64146 0.48307 0.05232 0.0
C858 C 0.70112 0.50966 0.00509 0.0
C859 C 0.70479 0.52064 0.97073 0.0
C860 C 0.69735 0.54365 0.96682 0.0
C861 C 0.68375 0.55504 0.99715 0.0
C862 C 0.68032 0.54407 0.03155 0.0
H863 H 0.62145 0.47245 0.06549 0.0
H864 H 0.62604 0.49683 0.03619 0.0
H865 H 0.65449 0.47267 0.03159 0.0
H866 H 0.7091 0.49226 0.00819 0.0
H867 H 0.71532 0.51134 0.94803 0.0
H868 H 0.30919 0.42706 0.27108 0.0
H869 H 0.32376 0.44707 0.33169 0.0
H870 H 0.23228 0.49204 0.29899 0.0
H871 H 0.21924 0.4729 0.23717 0.0
H872 H 0.28671 0.51414 0.33593 0.0
H873 H 0.26774 0.43751 0.4193 0.0
H874 H 0.3046 0.43471 0.39036 0.0
H875 H 0.25753 0.43837 0.36792 0.0
C876 C 0.29249 0.44139 0.27674 0.0
C877 C 0.26287 0.44835 0.24972 0.0
C878 C 0.3006 0.45268 0.31152 0.0
C879 C 0.27834 0.47059 0.32058 0.0
C880 C 0.24969 0.47815 0.29285 0.0
H881 H 0.23699 0.51384 0.54197 0.0
H882 H 0.24233 0.4947 0.48205 0.0
C883 C 0.24223 0.46723 0.25755 0.0
C884 C 0.28405 0.48104 0.35923 0.0
H885 H 0.2893 0.46943 0.45476 0.0
C886 C 0.28724 0.50437 0.36194 0.0
C887 C 0.28433 0.46832 0.39322 0.0
C888 C 0.27798 0.44339 0.39261 0.0
C889 C 0.28989 0.51537 0.39745 0.0
C890 C 0.2911 0.50259 0.43148 0.0
C891 C 0.28883 0.47923 0.42879 0.0
C892 C 0.2908 0.51306 0.46977 0.0
C893 C 0.28947 0.54058 0.39777 0.0
C894 C 0.31709 0.52925 0.48382 0.0
C895 C 0.31363 0.54063 0.51796 0.0
C896 C 0.28446 0.53553 0.53918 0.0
C897 C 0.25989 0.51816 0.52647 0.0
C898 C 0.26286 0.5072 0.49204 0.0
H899 H 0.2785 0.54754 0.3693 0.0
H900 H 0.27226 0.54705 0.41923 0.0
H901 H 0.31823 0.54683 0.40519 0.0
H902 H 0.33971 0.53351 0.46793 0.0
H903 H 0.33319 0.55379 0.5272 0.0
H904 H 0.83799 0.94129 0.03266 0.0
H905 H 0.84562 0.96292 0.97517 0.0
H906 H 0.74662 0.00036 0.98892 0.0
H907 H 0.74009 0.97976 0.04713 0.0
H908 H 0.80337 0.96292 0.91145 0.0
H909 H 0.80868 0.05005 0.96145 0.0
H910 H 0.81319 0.0269 0.99446 0.0
H911 H 0.76791 0.03703 0.9748 0.0
C912 C 0.81853 0.9546 0.024 0.0
C913 C 0.78859 0.9589 0.04461 0.0
C914 C 0.8228 0.96689 0.99103 0.0
C915 C 0.79698 0.98353 0.9778 0.0
C916 C 0.76766 0.98819 0.99902 0.0
H917 H 0.72573 0.01896 0.74286 0.0
H918 H 0.7402 0.00031 0.80482 0.0
C919 C 0.76383 0.97626 0.03234 0.0
C920 C 0.79828 0.99443 0.94 0.0
H921 H 0.78641 0.04455 0.8941 0.0
C922 C 0.80037 0.98083 0.90778 0.0
C923 C 0.79513 0.01784 0.935 0.0
C924 C 0.79655 0.03375 0.96841 0.0
C925 C 0.79771 0.98985 0.87071 0.0
C926 C 0.79111 0.01302 0.86543 0.0
C927 C 0.79074 0.02672 0.89782 0.0
C928 C 0.78372 0.02344 0.82679 0.0
C929 C 0.80236 0.97438 0.83781 0.0
C930 C 0.80248 0.04302 0.81865 0.0
C931 C 0.79329 0.05409 0.78382 0.0
C932 C 0.76561 0.04559 0.75605 0.0
C933 C 0.74753 0.02568 0.76359 0.0
C934 C 0.75605 0.01492 0.79892 0.0
H935 H 0.82049 0.95999 0.84751 0.0
H936 H 0.77486 0.96756 0.826 0.0
H937 H 0.81451 0.98314 0.81457 0.0
H938 H 0.8239 0.04999 0.83954 0.0
H939 H 0.80776 0.06938 0.77865 0.0
H940 H 0.22743 0.0119 0.77037 0.0
H941 H 0.21342 0.99188 0.70958 0.0
H942 H 0.23491 0.05172 0.64794 0.0
H943 H 0.24779 0.07198 0.70826 0.0
H944 H 0.17354 0.03075 0.61452 0.0
H945 H 0.28901 0.96989 0.64412 0.0
H946 H 0.25745 0.96973 0.67936 0.0
H947 H 0.28503 0.99416 0.67364 0.0
C948 C 0.22927 0.02077 0.74387 0.0
C949 C 0.23898 0.0435 0.74421 0.0
C950 C 0.22138 0.00929 0.70915 0.0
C951 C 0.22374 0.02021 0.67422 0.0
C952 C 0.23298 0.04294 0.67452 0.0
H953 H 0.22932 0.98344 0.43934 0.0
H954 H 0.22454 0.0039 0.49869 0.0
C955 C 0.24044 0.05448 0.7091 0.0
C956 C 0.21694 0.00805 0.63724 0.0
H957 H 0.24768 0.96441 0.58736 0.0
C958 C 0.18972 0.01622 0.6086 0.0
C959 C 0.23821 0.98917 0.62947 0.0
C960 C 0.2693 0.98032 0.6581 0.0
C961 C 0.18325 0.006 0.57243 0.0
C962 C 0.20449 0.98717 0.56484 0.0
C963 C 0.23127 0.97879 0.59354 0.0
C964 C 0.20078 0.97631 0.52682 0.0
C965 C 0.1538 0.0153 0.54255 0.0
C966 C 0.18808 0.95426 0.52275 0.0
C967 C 0.19057 0.94254 0.48886 0.0
C968 C 0.2064 0.95259 0.45862 0.0
C969 C 0.21702 0.97518 0.46201 0.0
C970 C 0.21425 0.98692 0.49588 0.0
H971 H 0.13531 0.02731 0.55499 0.0
H972 H 0.16733 0.02411 0.52031 0.0
H973 H 0.13668 0.0016 0.52825 0.0
H974 H 0.1777 0.9458 0.54643 0.0
H975 H 0.18202 0.92521 0.48732 0.0
H976 H 0.27032 0.97337 0.25602 0.0
H977 H 0.25425 0.99218 0.19442 0.0
H978 H 0.16803 0.94353 0.16281 0.0
H979 H 0.18591 0.92389 0.22318 0.0
H980 H 0.20226 0.94848 0.10647 0.0
H981 H 0.17515 0.0337 0.15468 0.0
H982 H 0.22105 0.02551 0.17432 0.0
H983 H 0.18147 0.01058 0.18764 0.0
C984 C 0.24767 0.96691 0.23602 0.0
C985 C 0.22937 0.94721 0.24423 0.0
C986 C 0.23821 0.97778 0.20093 0.0
C987 C 0.20931 0.96962 0.17405 0.0
C988 C 0.19037 0.95024 0.18291 0.0
H989 H 0.15706 0.0533 0.96928 0.0
H990 H 0.14809 0.03207 0.02686 0.0
C991 C 0.20056 0.93902 0.21744 0.0
C992 C 0.20086 0.98014 0.13556 0.0
H993 H 0.19065 0.03045 0.08994 0.0
C994 C 0.19905 0.96639 0.10298 0.0
C995 C 0.19559 0.00345 0.13053 0.0
C996 C 0.19297 0.01907 0.16373 0.0
C997 C 0.19401 0.97533 0.06585 0.0
C998 C 0.19258 -0.00121 0.061 0.0
C999 C 0.1924 0.01248 0.09344 0.0
C1000 C 0.19422 0.00957 0.02315 0.0
C1001 C 0.19016 0.95941 0.03233 0.0
C1002 C 0.22253 0.00376 0.00131 0.0
C1003 C 0.22705 0.01544 0.96795 0.0
C1004 C 0.2041 0.03374 0.95624 0.0
C1005 C 0.17511 0.03924 0.97747 0.0
C1006 C 0.17009 0.02718 0.0105 0.0
H1007 H 0.17655 0.94364 0.03961 0.0
H1008 H 0.17373 0.96678 0.00662 0.0
H1009 H 0.21816 0.95498 0.02526 0.0
H1010 H 0.24239 0.99083 0.01095 0.0
H1011 H 0.25007 0.01097 0.95271 0.0
H1012 H 0.81819 0.06251 0.51554 0.0
H1013 H 0.82173 0.04098 0.45706 0.0
H1014 H 0.75935 0.98775 0.50075 0.0
H1015 H 0.75555 0.00905 0.55934 0.0
H1016 H 0.8445 0.99328 0.44164 0.0
H1017 H 0.6952 0.01375 0.40076 0.0
H1018 H 0.72437 0.02893 0.43737 0.0
H1019 H 0.70744 0.00171 0.44749 0.0
C1020 C 0.80596 0.046 0.51319 0.0
C1021 C 0.78611 0.03767 0.54198 0.0
C1022 C 0.80805 0.03373 0.47973 0.0
C1023 C 0.79029 0.01299 0.47448 0.0
C1024 C 0.77291 0.00387 0.50424 0.0
H1025 H 0.77775 0.91645 0.29098 0.0
H1026 H 0.78994 0.93648 0.35167 0.0
C1027 C 0.7709 0.01606 0.53776 0.0
C1028 C 0.78661 0.00199 0.43657 0.0
H1029 H 0.72299 0.98985 0.35935 0.0
C1030 C 0.81801 0.9925 0.42357 0.0
C1031 C 0.75208 0.00139 0.41292 0.0
C1032 C 0.71781 0.01211 0.42504 0.0
C1033 C 0.81554 0.98191 0.38767 0.0
C1034 C 0.78075 0.98078 0.3645 0.0
C1035 C 0.74958 0.9907 0.37725 0.0
C1036 C 0.7757 0.96895 0.32723 0.0
C1037 C 0.85015 0.97221 0.37465 0.0
C1038 C 0.76316 0.98055 0.29339 0.0
C1039 C 0.75599 0.96914 0.25854 0.0
C1040 C 0.76085 0.94587 0.25701 0.0
C1041 C 0.77368 0.93437 0.29103 0.0
C1042 C 0.78097 0.9458 0.32577 0.0
H1043 H 0.87571 0.97924 0.39101 0.0
H1044 H 0.8504 0.95388 0.37919 0.0
H1045 H 0.8508 0.97537 0.34365 0.0
H1046 H 0.75865 -0.00158 0.29402 0.0
H1047 H 0.74612 0.97852 0.23295 0.0
loop_
_geom_bond_atom_site_label_1
_geom_bond_atom_site_label_2
_geom_bond_distance
_geom_bond_site_symmetry_2
_ccdc_geom_bond_type
O0 Zn1 1.953 . S
O0 C16 1.225 . S
Zn1 O0 1.953 . S
Zn1 O2 1.949 . S
Zn1 O8 1.919 . S
Zn1 O13 1.924 . S
O2 Zn1 1.949 . S
O2 Zn3 1.923 . S
O2 Zn4 1.950 . S
O2 Zn5 1.945 . S
Zn3 O2 1.923 . S
Zn3 O6 1.933 . S
Zn3 O9 1.941 . S
Zn3 O10 1.965 . S
Zn4 O2 1.950 . S
Zn4 O11 1.938 . S
Zn4 O12 1.906 . S
Zn4 O22 1.953 . S
Zn5 O2 1.945 . S
Zn5 O7 1.932 . S
Zn5 O14 1.977 . S
Zn5 O15 1.910 . S
O6 Zn3 1.933 . S
O6 C17 1.226 . S
O7 Zn5 1.932 . S
O7 C17 1.307 . S
O8 Zn1 1.919 . S
O8 C19 1.253 . S
O9 Zn3 1.941 . S
O9 C19 1.283 . S
O10 Zn3 1.965 . S
O10 C18 1.303 . S
O11 Zn4 1.938 . S
O11 C18 1.247 . S
O12 Zn4 1.906 . S
O12 C20 1.304 . S
O13 Zn1 1.924 . S
O13 C21 1.311 . S
O14 Zn5 1.977 . S
O14 C20 1.272 . S
O15 Zn5 1.910 . S
O15 C21 1.231 . S
C16 O0 1.225 . S
C16 O22 1.298 . S
C17 O6 1.226 . S
C17 O7 1.307 . S
C18 O10 1.303 . S
C18 O11 1.247 . S
C19 O8 1.253 . S
C19 O9 1.283 . S
C20 O12 1.304 . S
C20 O14 1.272 . S
C21 O13 1.311 . S
C21 O15 1.231 . S
O22 Zn4 1.953 . S
O22 C16 1.298 . S
O23 Zn24 1.953 . S
O23 C39 1.225 . S
Zn24 O23 1.953 . S
Zn24 O25 1.949 . S
Zn24 O31 1.919 . S
Zn24 O36 1.924 . S
O25 Zn24 1.949 . S
O25 Zn26 1.923 . S
O25 Zn27 1.950 . S
O25 Zn28 1.945 . S
Zn26 O25 1.923 . S
Zn26 O29 1.933 . S
Zn26 O32 1.941 . S
Zn26 O33 1.965 . S
Zn27 O25 1.950 . S
Zn27 O34 1.938 . S
Zn27 O35 1.906 . S
Zn27 O45 1.953 . S
Zn28 O25 1.945 . S
Zn28 O30 1.932 . S
Zn28 O37 1.977 . S
Zn28 O38 1.910 . S
O29 Zn26 1.933 . S
O29 C40 1.226 . S
O30 Zn28 1.932 . S
O30 C40 1.307 . S
O31 Zn24 1.919 . S
O31 C42 1.253 . S
O32 Zn26 1.941 . S
O32 C42 1.283 . S
O33 Zn26 1.965 . S
O33 C41 1.303 . S
O34 Zn27 1.938 . S
O34 C41 1.247 . S
O35 Zn27 1.906 . S
O35 C43 1.304 . S
O36 Zn24 1.924 . S
O36 C44 1.311 . S
O37 Zn28 1.977 . S
O37 C43 1.272 . S
O38 Zn28 1.910 . S
O38 C44 1.231 . S
C39 O23 1.225 . S
C39 O45 1.298 . S
C40 O29 1.226 . S
C40 O30 1.307 . S
C41 O33 1.303 . S
C41 O34 1.247 . S
C42 O31 1.253 . S
C42 O32 1.283 . S
C43 O35 1.304 . S
C43 O37 1.272 . S
C44 O36 1.311 . S
C44 O38 1.231 . S
O45 Zn27 1.953 . S
O45 C39 1.298 . S
O46 Zn47 1.953 . S
O46 C62 1.225 . S
Zn47 O46 1.953 . S
Zn47 O48 1.949 . S
Zn47 O54 1.919 . S
Zn47 O59 1.924 . S
O48 Zn47 1.949 . S
O48 Zn49 1.923 . S
O48 Zn50 1.950 . S
O48 Zn51 1.945 . S
Zn49 O48 1.923 . S
Zn49 O52 1.933 . S
Zn49 O55 1.941 . S
Zn49 O56 1.965 . S
Zn50 O48 1.950 . S
Zn50 O57 1.938 . S
Zn50 O58 1.906 . S
Zn50 O68 1.953 . S
Zn51 O48 1.945 . S
Zn51 O53 1.932 . S
Zn51 O60 1.977 . S
Zn51 O61 1.910 . S
O52 Zn49 1.933 . S
O52 C63 1.226 . S
O53 Zn51 1.932 . S
O53 C63 1.307 . S
O54 Zn47 1.919 . S
O54 C65 1.253 . S
O55 Zn49 1.941 . S
O55 C65 1.283 . S
O56 Zn49 1.965 . S
O56 C64 1.303 . S
O57 Zn50 1.938 . S
O57 C64 1.247 . S
O58 Zn50 1.906 . S
O58 C66 1.304 . S
O59 Zn47 1.924 . S
O59 C67 1.311 . S
O60 Zn51 1.977 . S
O60 C66 1.272 . S
O61 Zn51 1.910 . S
O61 C67 1.231 . S
C62 O46 1.225 . S
C62 O68 1.298 . S
C63 O52 1.226 . S
C63 O53 1.307 . S
C64 O56 1.303 . S
C64 O57 1.247 . S
C65 O54 1.253 . S
C65 O55 1.283 . S
C66 O58 1.304 . S
C66 O60 1.272 . S
C67 O59 1.311 . S
C67 O61 1.231 . S
O68 Zn50 1.953 . S
O68 C62 1.298 . S
O69 Zn70 1.953 . S
O69 C85 1.225 . S
Zn70 O69 1.953 . S
Zn70 O71 1.949 . S
Zn70 O77 1.919 . S
Zn70 O82 1.924 . S
O71 Zn70 1.949 . S
O71 Zn72 1.923 . S
O71 Zn73 1.950 . S
O71 Zn74 1.945 . S
Zn72 O71 1.923 . S
Zn72 O75 1.933 . S
Zn72 O78 1.941 . S
Zn72 O79 1.965 . S
Zn73 O71 1.950 . S
Zn73 O80 1.938 . S
Zn73 O81 1.906 . S
Zn73 O91 1.953 . S
Zn74 O71 1.945 . S
Zn74 O76 1.932 . S
Zn74 O83 1.977 . S
Zn74 O84 1.910 . S
O75 Zn72 1.933 . S
O75 C86 1.226 . S
O76 Zn74 1.932 . S
O76 C86 1.307 . S
O77 Zn70 1.919 . S
O77 C88 1.253 . S
O78 Zn72 1.941 . S
O78 C88 1.283 . S
O79 Zn72 1.965 . S
O79 C87 1.303 . S
O80 Zn73 1.938 . S
O80 C87 1.247 . S
O81 Zn73 1.906 . S
O81 C89 1.304 . S
O82 Zn70 1.924 . S
O82 C90 1.311 . S
O83 Zn74 1.977 . S
O83 C89 1.272 . S
O84 Zn74 1.910 . S
O84 C90 1.231 . S
C85 O69 1.225 . S
C85 O91 1.298 . S
C86 O75 1.226 . S
C86 O76 1.307 . S
C87 O79 1.303 . S
C87 O80 1.247 . S
C88 O77 1.253 . S
C88 O78 1.283 . S
C89 O81 1.304 . S
C89 O83 1.272 . S
C90 O82 1.311 . S
C90 O84 1.231 . S
O91 Zn73 1.953 . S
O91 C85 1.298 . S
O92 Zn93 1.953 . S
O92 C108 1.225 . S
Zn93 O92 1.953 . S
Zn93 O94 1.949 . S
Zn93 O100 1.919 . S
Zn93 O105 1.924 . S
O94 Zn93 1.949 . S
O94 Zn95 1.923 . S
O94 Zn96 1.950 . S
O94 Zn97 1.945 . S
Zn95 O94 1.923 . S
Zn95 O98 1.933 . S
Zn95 O101 1.941 . S
Zn95 O102 1.965 . S
Zn96 O94 1.950 . S
Zn96 O103 1.938 . S
Zn96 O104 1.906 . S
Zn96 O114 1.953 . S
Zn97 O94 1.945 . S
Zn97 O99 1.932 . S
Zn97 O106 1.977 . S
Zn97 O107 1.910 . S
O98 Zn95 1.933 . S
O98 C109 1.226 . S
O99 Zn97 1.932 . S
O99 C109 1.307 . S
O100 Zn93 1.919 . S
O100 C111 1.253 . S
O101 Zn95 1.941 . S
O101 C111 1.283 . S
O102 Zn95 1.965 . S
O102 C110 1.303 . S
O103 Zn96 1.938 . S
O103 C110 1.247 . S
O104 Zn96 1.906 . S
O104 C112 1.304 . S
O105 Zn93 1.924 . S
O105 C113 1.311 . S
O106 Zn97 1.977 . S
O106 C112 1.272 . S
O107 Zn97 1.910 . S
O107 C113 1.231 . S
C108 O92 1.225 . S
C108 O114 1.298 . S
C109 O98 1.226 . S
C109 O99 1.307 . S
C110 O102 1.303 . S
C110 O103 1.247 . S
C111 O100 1.253 . S
C111 O101 1.283 . S
C112 O104 1.304 . S
C112 O106 1.272 . S
C113 O105 1.311 . S
C113 O107 1.231 . S
O114 Zn96 1.953 . S
O114 C108 1.298 . S
O115 Zn116 1.953 . S
O115 C131 1.225 . S
Zn116 O115 1.953 . S
Zn116 O117 1.949 . S
Zn116 O123 1.919 . S
Zn116 O128 1.924 . S
O117 Zn116 1.949 . S
O117 Zn118 1.923 . S
O117 Zn119 1.950 . S
O117 Zn120 1.945 . S
Zn118 O117 1.923 . S
Zn118 O121 1.933 . S
Zn118 O124 1.941 . S
Zn118 O125 1.965 . S
Zn119 O117 1.950 . S
Zn119 O126 1.938 . S
Zn119 O127 1.906 . S
Zn119 O137 1.953 . S
Zn120 O117 1.945 . S
Zn120 O122 1.932 . S
Zn120 O129 1.977 . S
Zn120 O130 1.910 . S
O121 Zn118 1.933 . S
O121 C132 1.226 . S
O122 Zn120 1.932 . S
O122 C132 1.307 . S
O123 Zn116 1.919 . S
O123 C134 1.253 . S
O124 Zn118 1.941 . S
O124 C134 1.283 . S
O125 Zn118 1.965 . S
O125 C133 1.303 . S
O126 Zn119 1.938 . S
O126 C133 1.247 . S
O127 Zn119 1.906 . S
O127 C135 1.304 . S
O128 Zn116 1.924 . S
O128 C136 1.311 . S
O129 Zn120 1.977 . S
O129 C135 1.272 . S
O130 Zn120 1.910 . S
O130 C136 1.231 . S
C131 O115 1.225 . S
C131 O137 1.298 . S
C132 O121 1.226 . S
C132 O122 1.307 . S
C133 O125 1.303 . S
C133 O126 1.247 . S
C134 O123 1.253 . S
C134 O124 1.283 . S
C135 O127 1.304 . S
C135 O129 1.272 . S
C136 O128 1.311 . S
C136 O130 1.231 . S
O137 Zn119 1.953 . S
O137 C131 1.298 . S
O138 Zn139 1.953 . S
O138 C154 1.225 . S
Zn139 O138 1.953 . S
Zn139 O140 1.949 . S
Zn139 O146 1.919 . S
Zn139 O151 1.924 . S
O140 Zn139 1.949 . S
O140 Zn141 1.923 . S
O140 Zn142 1.950 . S
O140 Zn143 1.945 . S
Zn141 O140 1.923 . S
Zn141 O144 1.933 . S
Zn141 O147 1.941 . S
Zn141 O148 1.965 . S
Zn142 O140 1.950 . S
Zn142 O149 1.938 . S
Zn142 O150 1.906 . S
Zn142 O160 1.953 . S
Zn143 O140 1.945 . S
Zn143 O145 1.932 . S
Zn143 O152 1.977 . S
Zn143 O153 1.910 . S
O144 Zn141 1.933 . S
O144 C155 1.226 . S
O145 Zn143 1.932 . S
O145 C155 1.307 . S
O146 Zn139 1.919 . S
O146 C157 1.253 . S
O147 Zn141 1.941 . S
O147 C157 1.283 . S
O148 Zn141 1.965 . S
O148 C156 1.303 . S
O149 Zn142 1.938 . S
O149 C156 1.247 . S
O150 Zn142 1.906 . S
O150 C158 1.304 . S
O151 Zn139 1.924 . S
O151 C159 1.311 . S
O152 Zn143 1.977 . S
O152 C158 1.272 . S
O153 Zn143 1.910 . S
O153 C159 1.231 . S
C154 O138 1.225 . S
C154 O160 1.298 . S
C155 O144 1.226 . S
C155 O145 1.307 . S
C156 O148 1.303 . S
C156 O149 1.247 . S
C157 O146 1.253 . S
C157 O147 1.283 . S
C158 O150 1.304 . S
C158 O152 1.272 . S
C159 O151 1.311 . S
C159 O153 1.231 . S
O160 Zn142 1.953 . S
O160 C154 1.298 . S
O161 Zn162 1.953 . S
O161 C177 1.225 . S
Zn162 O161 1.953 . S
Zn162 O163 1.949 . S
Zn162 O169 1.919 . S
Zn162 O174 1.924 . S
O163 Zn162 1.949 . S
O163 Zn164 1.923 . S
O163 Zn165 1.950 . S
O163 Zn166 1.945 . S
Zn164 O163 1.923 . S
Zn164 O167 1.933 . S
Zn164 O170 1.941 . S
Zn164 O171 1.965 . S
Zn165 O163 1.950 . S
Zn165 O172 1.938 . S
Zn165 O173 1.906 . S
Zn165 O183 1.953 . S
Zn166 O163 1.945 . S
Zn166 O168 1.932 . S
Zn166 O175 1.977 . S
Zn166 O176 1.910 . S
O167 Zn164 1.933 . S
O167 C178 1.226 . S
O168 Zn166 1.932 . S
O168 C178 1.307 . S
O169 Zn162 1.919 . S
O169 C180 1.253 . S
O170 Zn164 1.941 . S
O170 C180 1.283 . S
O171 Zn164 1.965 . S
O171 C179 1.303 . S
O172 Zn165 1.938 . S
O172 C179 1.247 . S
O173 Zn165 1.906 . S
O173 C181 1.304 . S
O174 Zn162 1.924 . S
O174 C182 1.311 . S
O175 Zn166 1.977 . S
O175 C181 1.272 . S
O176 Zn166 1.910 . S
O176 C182 1.231 . S
C177 O161 1.225 . S
C177 O183 1.298 . S
C178 O167 1.226 . S
C178 O168 1.307 . S
C179 O171 1.303 . S
C179 O172 1.247 . S
C180 O169 1.253 . S
C180 O170 1.283 . S
C181 O173 1.304 . S
C181 O175 1.272 . S
C182 O174 1.311 . S
C182 O176 1.231 . S
O183 Zn165 1.953 . S
O183 C177 1.298 . S
H184 C192 0.929 . S
H185 C194 0.930 . S
H186 C196 0.930 . S
H187 C199 0.929 . S
H188 C202 0.930 . S
H189 C204 0.960 . S
H190 C204 0.960 . S
H191 C204 0.960 . S
C192 H184 0.929 . S
C192 C193 1.377 . S
C192 C194 1.384 . S
C193 C192 1.377 . S
C193 C199 1.390 . S
C194 H185 0.930 . S
C194 C192 1.384 . S
C194 C195 1.372 . S
C195 C194 1.372 . S
C195 C196 1.400 . S
C195 C200 1.490 . S
C196 H186 0.930 . S
C196 C195 1.400 . S
C196 C199 1.386 . S
H197 C213 0.930 . S
H198 C214 0.931 . S
C199 H187 0.929 . S
C199 C193 1.390 . S
C199 C196 1.386 . S
C200 C195 1.490 . S
C200 C202 1.395 . S
C200 C203 1.403 . S
H201 C207 0.930 . S
C202 H188 0.930 . S
C202 C200 1.395 . S
C202 C205 1.403 . S
C203 C200 1.403 . S
C203 C204 1.524 . S
C203 C207 1.400 . S
C204 H189 0.960 . S
C204 H190 0.960 . S
C204 H191 0.960 . S
C204 C203 1.524 . S
C205 C202 1.403 . S
C205 C206 1.392 . S
C205 C209 1.495 . S
C206 C205 1.392 . S
C206 C207 1.385 . S
C206 C208 1.478 . S
C207 H201 0.930 . S
C207 C203 1.400 . S
C207 C206 1.385 . S
C208 C206 1.478 . S
C208 C210 1.381 . S
C208 C214 1.383 . S
C209 C205 1.495 . S
C209 H215 0.959 . S
C209 H216 0.961 . S
C209 H217 0.960 . S
C210 C208 1.381 . S
C210 C211 1.394 . S
C210 H218 0.930 . S
C211 C210 1.394 . S
C211 C212 1.383 . S
C211 H219 0.929 . S
C212 C211 1.383 . S
C212 C213 1.377 . S
C213 H197 0.930 . S
C213 C212 1.377 . S
C213 C214 1.379 . S
C214 H198 0.931 . S
C214 C208 1.383 . S
C214 C213 1.379 . S
H215 C209 0.959 . S
H216 C209 0.961 . S
H217 C209 0.960 . S
H218 C210 0.930 . S
H219 C211 0.929 . S
H220 C228 0.929 . S
H221 C230 0.930 . S
H222 C232 0.930 . S
H223 C235 0.929 . S
H224 C238 0.930 . S
H225 C240 0.960 . S
H226 C240 0.960 . S
H227 C240 0.960 . S
C228 H220 0.929 . S
C228 C229 1.377 . S
C228 C230 1.384 . S
C229 C228 1.377 . S
C229 C235 1.390 . S
C230 H221 0.930 . S
C230 C228 1.384 . S
C230 C231 1.372 . S
C231 C230 1.372 . S
C231 C232 1.400 . S
C231 C236 1.490 . S
C232 H222 0.930 . S
C232 C231 1.400 . S
C232 C235 1.386 . S
H233 C249 0.930 . S
H234 C250 0.931 . S
C235 H223 0.929 . S
C235 C229 1.390 . S
C235 C232 1.386 . S
C236 C231 1.490 . S
C236 C238 1.395 . S
C236 C239 1.403 . S
H237 C243 0.930 . S
C238 H224 0.930 . S
C238 C236 1.395 . S
C238 C241 1.403 . S
C239 C236 1.403 . S
C239 C240 1.524 . S
C239 C243 1.400 . S
C240 H225 0.960 . S
C240 H226 0.960 . S
C240 H227 0.960 . S
C240 C239 1.524 . S
C241 C238 1.403 . S
C241 C242 1.392 . S
C241 C245 1.495 . S
C242 C241 1.392 . S
C242 C243 1.385 . S
C242 C244 1.478 . S
C243 H237 0.930 . S
C243 C239 1.400 . S
C243 C242 1.385 . S
C244 C242 1.478 . S
C244 C246 1.381 . S
C244 C250 1.383 . S
C245 C241 1.495 . S
C245 H251 0.959 . S
C245 H252 0.961 . S
C245 H253 0.960 . S
C246 C244 1.381 . S
C246 C247 1.394 . S
C246 H254 0.930 . S
C247 C246 1.394 . S
C247 C248 1.383 . S
C247 H255 0.929 . S
C248 C247 1.383 . S
C248 C249 1.377 . S
C249 H233 0.930 . S
C249 C248 1.377 . S
C249 C250 1.379 . S
C250 H234 0.931 . S
C250 C244 1.383 . S
C250 C249 1.379 . S
H251 C245 0.959 . S
H252 C245 0.961 . S
H253 C245 0.960 . S
H254 C246 0.930 . S
H255 C247 0.929 . S
H256 C264 0.929 . S
H257 C266 0.930 . S
H258 C268 0.930 . S
H259 C271 0.929 . S
H260 C274 0.930 . S
H261 C276 0.960 . S
H262 C276 0.960 . S
H263 C276 0.960 . S
C264 H256 0.929 . S
C264 C265 1.377 . S
C264 C266 1.384 . S
C265 C264 1.377 . S
C265 C271 1.390 . S
C266 H257 0.930 . S
C266 C264 1.384 . S
C266 C267 1.372 . S
C267 C266 1.372 . S
C267 C268 1.400 . S
C267 C272 1.490 . S
C268 H258 0.930 . S
C268 C267 1.400 . S
C268 C271 1.386 . S
H269 C285 0.930 . S
H270 C286 0.931 . S
C271 H259 0.929 . S
C271 C265 1.390 . S
C271 C268 1.386 . S
C272 C267 1.490 . S
C272 C274 1.395 . S
C272 C275 1.403 . S
H273 C279 0.930 . S
C274 H260 0.930 . S
C274 C272 1.395 . S
C274 C277 1.403 1_455 S
C275 C272 1.403 . S
C275 C276 1.524 . S
C275 C279 1.400 1_455 S
C276 H261 0.960 . S
C276 H262 0.960 . S
C276 H263 0.960 . S
C276 C275 1.524 . S
C277 C274 1.403 1_655 S
C277 C278 1.392 . S
C277 C281 1.495 . S
C278 C277 1.392 . S
C278 C279 1.385 . S
C278 C280 1.478 . S
C279 H273 0.930 . S
C279 C275 1.400 1_655 S
C279 C278 1.385 . S
C280 C278 1.478 . S
C280 C282 1.381 . S
C280 C286 1.383 . S
C281 C277 1.495 . S
C281 H287 0.959 . S
C281 H288 0.961 . S
C281 H289 0.960 . S
C282 C280 1.381 . S
C282 C283 1.394 . S
C282 H290 0.930 . S
C283 C282 1.394 . S
C283 C284 1.383 . S
C283 H291 0.929 . S
C284 C283 1.383 . S
C284 C285 1.377 . S
C285 H269 0.930 . S
C285 C284 1.377 . S
C285 C286 1.379 . S
C286 H270 0.931 . S
C286 C280 1.383 . S
C286 C285 1.379 . S
H287 C281 0.959 . S
H288 C281 0.961 . S
H289 C281 0.960 . S
H290 C282 0.930 . S
H291 C283 0.929 . S
H292 C300 0.929 . S
H293 C302 0.930 . S
H294 C304 0.930 . S
H295 C307 0.929 . S
H296 C310 0.930 . S
H297 C312 0.960 . S
H298 C312 0.960 . S
H299 C312 0.960 . S
C300 H292 0.929 . S
C300 C301 1.377 . S
C300 C302 1.384 . S
C301 C300 1.377 . S
C301 C307 1.390 . S
C302 H293 0.930 . S
C302 C300 1.384 . S
C302 C303 1.372 . S
C303 C302 1.372 . S
C303 C304 1.400 . S
C303 C308 1.490 . S
C304 H294 0.930 . S
C304 C303 1.400 . S
C304 C307 1.386 . S
H305 C321 0.930 . S
H306 C322 0.931 . S
C307 H295 0.929 . S
C307 C301 1.390 . S
C307 C304 1.386 . S
C308 C303 1.490 . S
C308 C310 1.395 . S
C308 C311 1.403 . S
H309 C315 0.930 . S
C310 H296 0.930 . S
C310 C308 1.395 . S
C310 C313 1.403 1_455 S
C311 C308 1.403 . S
C311 C312 1.524 . S
C311 C315 1.400 1_455 S
C312 H297 0.960 . S
C312 H298 0.960 . S
C312 H299 0.960 . S
C312 C311 1.524 . S
C313 C310 1.403 1_655 S
C313 C314 1.392 . S
C313 C317 1.495 . S
C314 C313 1.392 . S
C314 C315 1.385 . S
C314 C316 1.478 . S
C315 H309 0.930 . S
C315 C311 1.400 1_655 S
C315 C314 1.385 . S
C316 C314 1.478 . S
C316 C318 1.381 . S
C316 C322 1.383 . S
C317 C313 1.495 . S
C317 H323 0.959 . S
C317 H324 0.961 . S
C317 H325 0.960 . S
C318 C316 1.381 . S
C318 C319 1.394 . S
C318 H326 0.930 . S
C319 C318 1.394 . S
C319 C320 1.383 . S
C319 H327 0.929 . S
C320 C319 1.383 . S
C320 C321 1.377 . S
C321 H305 0.930 . S
C321 C320 1.377 . S
C321 C322 1.379 . S
C322 H306 0.931 . S
C322 C316 1.383 . S
C322 C321 1.379 . S
H323 C317 0.959 . S
H324 C317 0.961 . S
H325 C317 0.960 . S
H326 C318 0.930 . S
H327 C319 0.929 . S
H328 C336 0.929 . S
H329 C338 0.930 . S
H330 C340 0.930 . S
H331 C343 0.929 . S
H332 C346 0.930 . S
H333 C348 0.960 . S
H334 C348 0.960 . S
H335 C348 0.960 . S
C336 H328 0.929 . S
C336 C337 1.377 . S
C336 C338 1.384 . S
C337 C336 1.377 . S
C337 C343 1.390 . S
C338 H329 0.930 . S
C338 C336 1.384 . S
C338 C339 1.372 . S
C339 C338 1.372 . S
C339 C340 1.400 . S
C339 C344 1.490 . S
C340 H330 0.930 . S
C340 C339 1.400 . S
C340 C343 1.386 . S
H341 C357 0.930 . S
H342 C358 0.931 . S
C343 H331 0.929 . S
C343 C337 1.390 . S
C343 C340 1.386 . S
C344 C339 1.490 . S
C344 C346 1.395 1_554 S
C344 C347 1.403 . S
H345 C351 0.930 . S
C346 H332 0.930 . S
C346 C344 1.395 1_556 S
C346 C349 1.403 . S
C347 C344 1.403 . S
C347 C348 1.524 . S
C347 C351 1.400 . S
C348 H333 0.960 . S
C348 H334 0.960 . S
C348 H335 0.960 . S
C348 C347 1.524 . S
C349 C346 1.403 . S
C349 C350 1.392 . S
C349 C353 1.495 . S
C350 C349 1.392 . S
C350 C351 1.385 1_556 S
C350 C352 1.478 . S
C351 H345 0.930 . S
C351 C347 1.400 . S
C351 C350 1.385 1_554 S
C352 C350 1.478 . S
C352 C354 1.381 . S
C352 C358 1.383 . S
C353 C349 1.495 . S
C353 H359 0.959 . S
C353 H360 0.961 . S
C353 H361 0.960 . S
C354 C352 1.381 . S
C354 C355 1.394 . S
C354 H362 0.930 . S
C355 C354 1.394 . S
C355 C356 1.383 . S
C355 H363 0.929 . S
C356 C355 1.383 . S
C356 C357 1.377 . S
C357 H341 0.930 . S
C357 C356 1.377 . S
C357 C358 1.379 . S
C358 H342 0.931 . S
C358 C352 1.383 . S
C358 C357 1.379 . S
H359 C353 0.959 . S
H360 C353 0.961 . S
H361 C353 0.960 . S
H362 C354 0.930 . S
H363 C355 0.929 . S
H364 C372 0.929 . S
H365 C374 0.930 . S
H366 C376 0.930 . S
H367 C379 0.929 . S
H368 C382 0.930 . S
H369 C384 0.960 . S
H370 C384 0.960 . S
H371 C384 0.960 . S
C372 H364 0.929 . S
C372 C373 1.377 . S
C372 C374 1.384 . S
C373 C372 1.377 . S
C373 C379 1.390 . S
C374 H365 0.930 . S
C374 C372 1.384 . S
C374 C375 1.372 . S
C375 C374 1.372 . S
C375 C376 1.400 . S
C375 C380 1.490 . S
C376 H366 0.930 . S
C376 C375 1.400 . S
C376 C379 1.386 . S
H377 C393 0.930 . S
H378 C394 0.931 . S
C379 H367 0.929 . S
C379 C373 1.390 . S
C379 C376 1.386 . S
C380 C375 1.490 . S
C380 C382 1.395 . S
C380 C383 1.403 . S
H381 C387 0.930 . S
C382 H368 0.930 . S
C382 C380 1.395 . S
C382 C385 1.403 . S
C383 C380 1.403 . S
C383 C384 1.524 . S
C383 C387 1.400 . S
C384 H369 0.960 . S
C384 H370 0.960 . S
C384 H371 0.960 . S
C384 C383 1.524 . S
C385 C382 1.403 . S
C385 C386 1.392 . S
C385 C389 1.495 . S
C386 C385 1.392 . S
C386 C387 1.385 . S
C386 C388 1.478 . S
C387 H381 0.930 . S
C387 C383 1.400 . S
C387 C386 1.385 . S
C388 C386 1.478 . S
C388 C390 1.381 . S
C388 C394 1.383 . S
C389 C385 1.495 . S
C389 H395 0.959 . S
C389 H396 0.961 . S
C389 H397 0.960 . S
C390 C388 1.381 . S
C390 C391 1.394 . S
C390 H398 0.930 . S
C391 C390 1.394 . S
C391 C392 1.383 . S
C391 H399 0.929 . S
C392 C391 1.383 . S
C392 C393 1.377 . S
C393 H377 0.930 . S
C393 C392 1.377 . S
C393 C394 1.379 . S
C394 H378 0.931 . S
C394 C388 1.383 . S
C394 C393 1.379 . S
H395 C389 0.959 . S
H396 C389 0.961 . S
H397 C389 0.960 . S
H398 C390 0.930 . S
H399 C391 0.929 . S
H400 C408 0.929 . S
H401 C410 0.930 . S
H402 C412 0.930 . S
H403 C415 0.929 . S
H404 C418 0.930 . S
H405 C420 0.960 . S
H406 C420 0.960 . S
H407 C420 0.960 . S
C408 H400 0.929 . S
C408 C409 1.377 . S
C408 C410 1.384 . S
C409 C408 1.377 . S
C409 C415 1.390 . S
C410 H401 0.930 . S
C410 C408 1.384 . S
C410 C411 1.372 . S
C411 C410 1.372 . S
C411 C412 1.400 . S
C411 C416 1.490 . S
C412 H402 0.930 . S
C412 C411 1.400 . S
C412 C415 1.386 . S
H413 C429 0.930 . S
H414 C430 0.931 . S
C415 H403 0.929 . S
C415 C409 1.390 . S
C415 C412 1.386 . S
C416 C411 1.490 . S
C416 C418 1.395 1_554 S
C416 C419 1.403 . S
H417 C423 0.930 . S
C418 H404 0.930 . S
C418 C416 1.395 1_556 S
C418 C421 1.403 . S
C419 C416 1.403 . S
C419 C420 1.524 . S
C419 C423 1.400 . S
C420 H405 0.960 . S
C420 H406 0.960 . S
C420 H407 0.960 . S
C420 C419 1.524 . S
C421 C418 1.403 . S
C421 C422 1.392 . S
C421 C425 1.495 . S
C422 C421 1.392 . S
C422 C423 1.385 1_556 S
C422 C424 1.478 . S
C423 H417 0.930 . S
C423 C419 1.400 . S
C423 C422 1.385 1_554 S
C424 C422 1.478 . S
C424 C426 1.381 . S
C424 C430 1.383 . S
C425 C421 1.495 . S
C425 H431 0.959 . S
C425 H432 0.961 . S
C425 H433 0.960 . S
C426 C424 1.381 . S
C426 C427 1.394 . S
C426 H434 0.930 . S
C427 C426 1.394 . S
C427 C428 1.383 . S
C427 H435 0.929 . S
C428 C427 1.383 . S
C428 C429 1.377 . S
C429 H413 0.930 . S
C429 C428 1.377 . S
C429 C430 1.379 . S
C430 H414 0.931 . S
C430 C424 1.383 . S
C430 C429 1.379 . S
H431 C425 0.959 . S
H432 C425 0.961 . S
H433 C425 0.960 . S
H434 C426 0.930 . S
H435 C427 0.929 . S
H436 C444 0.929 . S
H437 C446 0.930 . S
H438 C448 0.930 . S
H439 C451 0.929 . S
H440 C454 0.930 . S
H441 C456 0.960 . S
H442 C456 0.960 . S
H443 C456 0.960 . S
C444 H436 0.929 . S
C444 C445 1.377 . S
C444 C446 1.384 . S
C445 C444 1.377 . S
C445 C451 1.390 . S
C446 H437 0.930 . S
C446 C444 1.384 . S
C446 C447 1.372 . S
C447 C446 1.372 . S
C447 C448 1.400 . S
C447 C452 1.490 . S
C448 H438 0.930 . S
C448 C447 1.400 . S
C448 C451 1.386 . S
H449 C465 0.930 . S
H450 C466 0.931 . S
C451 H439 0.929 . S
C451 C445 1.390 . S
C451 C448 1.386 . S
C452 C447 1.490 . S
C452 C454 1.395 . S
C452 C455 1.403 . S
H453 C459 0.930 . S
C454 H440 0.930 . S
C454 C452 1.395 . S
C454 C457 1.403 . S
C455 C452 1.403 . S
C455 C456 1.524 . S
C455 C459 1.400 . S
C456 H441 0.960 . S
C456 H442 0.960 . S
C456 H443 0.960 . S
C456 C455 1.524 . S
C457 C454 1.403 . S
C457 C458 1.392 . S
C457 C461 1.495 . S
C458 C457 1.392 . S
C458 C459 1.385 . S
C458 C460 1.478 . S
C459 H453 0.930 . S
C459 C455 1.400 . S
C459 C458 1.385 . S
C460 C458 1.478 . S
C460 C462 1.381 . S
C460 C466 1.383 . S
C461 C457 1.495 . S
C461 H467 0.959 . S
C461 H468 0.961 . S
C461 H469 0.960 . S
C462 C460 1.381 . S
C462 C463 1.394 . S
C462 H470 0.930 . S
C463 C462 1.394 . S
C463 C464 1.383 . S
C463 H471 0.929 . S
C464 C463 1.383 . S
C464 C465 1.377 . S
C465 H449 0.930 . S
C465 C464 1.377 . S
C465 C466 1.379 . S
C466 H450 0.931 . S
C466 C460 1.383 . S
C466 C465 1.379 . S
H467 C461 0.959 . S
H468 C461 0.961 . S
H469 C461 0.960 . S
H470 C462 0.930 . S
H471 C463 0.929 . S
H472 C480 0.929 . S
H473 C482 0.930 . S
H474 C484 0.930 . S
H475 C487 0.929 . S
H476 C490 0.930 . S
H477 C492 0.960 . S
H478 C492 0.960 . S
H479 C492 0.960 . S
C480 H472 0.929 . S
C480 C481 1.377 . S
C480 C482 1.384 . S
C481 C480 1.377 . S
C481 C487 1.390 . S
C482 H473 0.930 . S
C482 C480 1.384 . S
C482 C483 1.372 . S
C483 C482 1.372 . S
C483 C484 1.400 . S
C483 C488 1.490 . S
C484 H474 0.930 . S
C484 C483 1.400 . S
C484 C487 1.386 . S
H485 C501 0.930 . S
H486 C502 0.931 . S
C487 H475 0.929 . S
C487 C481 1.390 . S
C487 C484 1.386 . S
C488 C483 1.490 . S
C488 C490 1.395 1_556 S
C488 C491 1.403 . S
H489 C495 0.930 . S
C490 H476 0.930 . S
C490 C488 1.395 1_554 S
C490 C493 1.403 1_655 S
C491 C488 1.403 . S
C491 C492 1.524 . S
C491 C495 1.400 1_655 S
C492 H477 0.960 . S
C492 H478 0.960 . S
C492 H479 0.960 . S
C492 C491 1.524 . S
C493 C490 1.403 1_455 S
C493 C494 1.392 . S
C493 C497 1.495 . S
C494 C493 1.392 . S
C494 C495 1.385 1_554 S
C494 C496 1.478 . S
C495 H489 0.930 . S
C495 C491 1.400 1_455 S
C495 C494 1.385 1_556 S
C496 C494 1.478 . S
C496 C498 1.381 . S
C496 C502 1.383 . S
C497 C493 1.495 . S
C497 H503 0.959 . S
C497 H504 0.961 . S
C497 H505 0.960 . S
C498 C496 1.381 . S
C498 C499 1.394 . S
C498 H506 0.930 . S
C499 C498 1.394 . S
C499 C500 1.383 . S
C499 H507 0.929 . S
C500 C499 1.383 . S
C500 C501 1.377 . S
C501 H485 0.930 . S
C501 C500 1.377 . S
C501 C502 1.379 . S
C502 H486 0.931 . S
C502 C496 1.383 . S
C502 C501 1.379 . S
H503 C497 0.959 . S
H504 C497 0.961 . S
H505 C497 0.960 . S
H506 C498 0.930 . S
H507 C499 0.929 . S
H508 C516 0.929 . S
H509 C518 0.930 . S
H510 C520 0.930 . S
H511 C523 0.929 . S
H512 C526 0.930 . S
H513 C528 0.960 . S
H514 C528 0.960 . S
H515 C528 0.960 . S
C516 H508 0.929 . S
C516 C517 1.377 . S
C516 C518 1.384 . S
C517 C516 1.377 . S
C517 C523 1.390 . S
C518 H509 0.930 . S
C518 C516 1.384 . S
C518 C519 1.372 . S
C519 C518 1.372 . S
C519 C520 1.400 . S
C519 C524 1.490 . S
C520 H510 0.930 . S
C520 C519 1.400 . S
C520 C523 1.386 . S
H521 C537 0.930 . S
H522 C538 0.931 . S
C523 H511 0.929 . S
C523 C517 1.390 . S
C523 C520 1.386 . S
C524 C519 1.490 . S
C524 C526 1.395 1_455 S
C524 C527 1.403 . S
H525 C531 0.930 . S
C526 H512 0.930 . S
C526 C524 1.395 1_655 S
C526 C529 1.403 . S
C527 C524 1.403 . S
C527 C528 1.524 . S
C527 C531 1.400 . S
C528 H513 0.960 . S
C528 H514 0.960 . S
C528 H515 0.960 . S
C528 C527 1.524 . S
C529 C526 1.403 . S
C529 C530 1.392 . S
C529 C533 1.495 . S
C530 C529 1.392 . S
C530 C531 1.385 1_655 S
C530 C532 1.478 . S
C531 H525 0.930 . S
C531 C527 1.400 . S
C531 C530 1.385 1_455 S
C532 C530 1.478 . S
C532 C534 1.381 . S
C532 C538 1.383 . S
C533 C529 1.495 . S
C533 H539 0.959 . S
C533 H540 0.961 . S
C533 H541 0.960 . S
C534 C532 1.381 . S
C534 C535 1.394 . S
C534 H542 0.930 . S
C535 C534 1.394 . S
C535 C536 1.383 . S
C535 H543 0.929 . S
C536 C535 1.383 . S
C536 C537 1.377 . S
C537 H521 0.930 . S
C537 C536 1.377 . S
C537 C538 1.379 . S
C538 H522 0.931 . S
C538 C532 1.383 . S
C538 C537 1.379 . S
H539 C533 0.959 . S
H540 C533 0.961 . S
H541 C533 0.960 . S
H542 C534 0.930 . S
H543 C535 0.929 . S
H544 C552 0.929 . S
H545 C554 0.930 . S
H546 C556 0.930 . S
H547 C559 0.929 . S
H548 C562 0.930 . S
H549 C564 0.960 . S
H550 C564 0.960 . S
H551 C564 0.960 . S
C552 H544 0.929 . S
C552 C553 1.377 . S
C552 C554 1.384 . S
C553 C552 1.377 . S
C553 C559 1.390 . S
C554 H545 0.930 . S
C554 C552 1.384 . S
C554 C555 1.372 . S
C555 C554 1.372 . S
C555 C556 1.400 . S
C555 C560 1.490 . S
C556 H546 0.930 . S
C556 C555 1.400 . S
C556 C559 1.386 . S
H557 C573 0.930 . S
H558 C574 0.931 . S
C559 H547 0.929 . S
C559 C553 1.390 . S
C559 C556 1.386 . S
C560 C555 1.490 . S
C560 C562 1.395 1_564 S
C560 C563 1.403 . S
H561 C567 0.930 . S
C562 H548 0.930 . S
C562 C560 1.395 1_546 S
C562 C565 1.403 . S
C563 C560 1.403 . S
C563 C564 1.524 . S
C563 C567 1.400 1_565 S
C564 H549 0.960 . S
C564 H550 0.960 . S
C564 H551 0.960 . S
C564 C563 1.524 . S
C565 C562 1.403 . S
C565 C566 1.392 . S
C565 C569 1.495 . S
C566 C565 1.392 . S
C566 C567 1.385 1_556 S
C566 C568 1.478 . S
C567 H561 0.930 . S
C567 C563 1.400 1_545 S
C567 C566 1.385 1_554 S
C568 C566 1.478 . S
C568 C570 1.381 . S
C568 C574 1.383 . S
C569 C565 1.495 . S
C569 H575 0.959 . S
C569 H576 0.961 . S
C569 H577 0.960 . S
C570 C568 1.381 . S
C570 C571 1.394 . S
C570 H578 0.930 . S
C571 C570 1.394 . S
C571 C572 1.383 . S
C571 H579 0.929 . S
C572 C571 1.383 . S
C572 C573 1.377 . S
C573 H557 0.930 . S
C573 C572 1.377 . S
C573 C574 1.379 . S
C574 H558 0.931 . S
C574 C568 1.383 . S
C574 C573 1.379 . S
H575 C569 0.959 . S
H576 C569 0.961 . S
H577 C569 0.960 . S
H578 C570 0.930 . S
H579 C571 0.929 . S
H580 C588 0.929 . S
H581 C590 0.930 . S
H582 C592 0.930 . S
H583 C595 0.929 . S
H584 C598 0.930 . S
H585 C600 0.960 . S
H586 C600 0.960 . S
H587 C600 0.960 . S
C588 H580 0.929 . S
C588 C589 1.377 . S
C588 C590 1.384 . S
C589 C588 1.377 . S
C589 C595 1.390 . S
C590 H581 0.930 . S
C590 C588 1.384 . S
C590 C591 1.372 . S
C591 C590 1.372 . S
C591 C592 1.400 . S
C591 C596 1.490 . S
C592 H582 0.930 . S
C592 C591 1.400 . S
C592 C595 1.386 . S
H593 C609 0.930 . S
H594 C610 0.931 . S
C595 H583 0.929 . S
C595 C589 1.390 . S
C595 C592 1.386 . S
C596 C591 1.490 . S
C596 C598 1.395 . S
C596 C599 1.403 1_565 S
H597 C603 0.930 . S
C598 H584 0.930 . S
C598 C596 1.395 . S
C598 C601 1.403 . S
C599 C596 1.403 1_545 S
C599 C600 1.524 . S
C599 C603 1.400 . S
C600 H585 0.960 . S
C600 H586 0.960 . S
C600 H587 0.960 . S
C600 C599 1.524 . S
C601 C598 1.403 . S
C601 C602 1.392 1_565 S
C601 C605 1.495 . S
C602 C601 1.392 1_545 S
C602 C603 1.385 . S
C602 C604 1.478 . S
C603 H597 0.930 . S
C603 C599 1.400 . S
C603 C602 1.385 . S
C604 C602 1.478 . S
C604 C606 1.381 . S
C604 C610 1.383 . S
C605 C601 1.495 . S
C605 H611 0.959 . S
C605 H612 0.961 . S
C605 H613 0.960 . S
C606 C604 1.381 . S
C606 C607 1.394 . S
C606 H614 0.930 . S
C607 C606 1.394 . S
C607 C608 1.383 . S
C607 H615 0.929 . S
C608 C607 1.383 . S
C608 C609 1.377 . S
C609 H593 0.930 . S
C609 C608 1.377 . S
C609 C610 1.379 . S
C610 H594 0.931 . S
C610 C604 1.383 . S
C610 C609 1.379 . S
H611 C605 0.959 . S
H612 C605 0.961 . S
H613 C605 0.960 . S
H614 C606 0.930 . S
H615 C607 0.929 . S
H616 C624 0.929 . S
H617 C626 0.930 . S
H618 C628 0.930 . S
H619 C631 0.929 . S
H620 C634 0.930 . S
H621 C636 0.960 . S
H622 C636 0.960 . S
H623 C636 0.960 . S
C624 H616 0.929 . S
C624 C625 1.377 . S
C624 C626 1.384 . S
C625 C624 1.377 . S
C625 C631 1.390 . S
C626 H617 0.930 . S
C626 C624 1.384 . S
C626 C627 1.372 . S
C627 C626 1.372 . S
C627 C628 1.400 . S
C627 C632 1.490 . S
C628 H618 0.930 . S
C628 C627 1.400 . S
C628 C631 1.386 . S
H629 C645 0.930 . S
H630 C646 0.931 . S
C631 H619 0.929 . S
C631 C625 1.390 . S
C631 C628 1.386 . S
C632 C627 1.490 . S
C632 C634 1.395 . S
C632 C635 1.403 . S
H633 C639 0.930 . S
C634 H620 0.930 . S
C634 C632 1.395 . S
C634 C637 1.403 1_455 S
C635 C632 1.403 . S
C635 C636 1.524 . S
C635 C639 1.400 1_455 S
C636 H621 0.960 . S
C636 H622 0.960 . S
C636 H623 0.960 . S
C636 C635 1.524 . S
C637 C634 1.403 1_655 S
C637 C638 1.392 . S
C637 C641 1.495 . S
C638 C637 1.392 . S
C638 C639 1.385 . S
C638 C640 1.478 . S
C639 H633 0.930 . S
C639 C635 1.400 1_655 S
C639 C638 1.385 . S
C640 C638 1.478 . S
C640 C642 1.381 . S
C640 C646 1.383 . S
C641 C637 1.495 . S
C641 H647 0.959 . S
C641 H648 0.961 . S
C641 H649 0.960 . S
C642 C640 1.381 . S
C642 C643 1.394 . S
C642 H650 0.930 . S
C643 C642 1.394 . S
C643 C644 1.383 . S
C643 H651 0.929 . S
C644 C643 1.383 . S
C644 C645 1.377 . S
C645 H629 0.930 . S
C645 C644 1.377 . S
C645 C646 1.379 . S
C646 H630 0.931 . S
C646 C640 1.383 . S
C646 C645 1.379 . S
H647 C641 0.959 . S
H648 C641 0.961 . S
H649 C641 0.960 . S
H650 C642 0.930 . S
H651 C643 0.929 . S
H652 C660 0.929 . S
H653 C662 0.930 . S
H654 C664 0.930 . S
H655 C667 0.929 . S
H656 C670 0.930 . S
H657 C672 0.960 . S
H658 C672 0.960 1_455 S
H659 C672 0.960 1_455 S
C660 H652 0.929 . S
C660 C661 1.377 . S
C660 C662 1.384 . S
C661 C660 1.377 . S
C661 C667 1.390 . S
C662 H653 0.930 . S
C662 C660 1.384 . S
C662 C663 1.372 . S
C663 C662 1.372 . S
C663 C664 1.400 . S
C663 C668 1.490 . S
C664 H654 0.930 . S
C664 C663 1.400 . S
C664 C667 1.386 . S
H665 C681 0.930 . S
H666 C682 0.931 . S
C667 H655 0.929 . S
C667 C661 1.390 . S
C667 C664 1.386 . S
C668 C663 1.490 . S
C668 C670 1.395 . S
C668 C671 1.415 . S
H669 C675 0.930 . S
C670 H656 0.930 . S
C670 C668 1.395 . S
C670 C673 1.403 . S
C671 C668 1.415 . S
C671 C672 1.525 1_455 S
C671 C675 1.386 1_455 S
C672 H657 0.960 . S
C672 H658 0.960 1_655 S
C672 H659 0.960 1_655 S
C672 C671 1.525 1_655 S
C673 C670 1.403 . S
C673 C674 1.392 1_455 S
C673 C677 1.495 . S
C674 C673 1.392 1_655 S
C674 C675 1.385 . S
C674 C676 1.478 . S
C675 H669 0.930 . S
C675 C671 1.386 1_655 S
C675 C674 1.385 . S
C676 C674 1.478 . S
C676 C678 1.381 . S
C676 C682 1.383 . S
C677 C673 1.495 . S
C677 H683 0.959 . S
C677 H684 0.961 1_455 S
C677 H685 0.960 1_455 S
C678 C676 1.381 . S
C678 C679 1.394 . S
C678 H686 0.930 . S
C679 C678 1.394 . S
C679 C680 1.383 . S
C679 H687 0.929 . S
C680 C679 1.383 . S
C680 C681 1.377 . S
C681 H665 0.930 . S
C681 C680 1.377 . S
C681 C682 1.379 . S
C682 H666 0.931 . S
C682 C676 1.383 . S
C682 C681 1.379 . S
H683 C677 0.959 . S
H684 C677 0.961 1_655 S
H685 C677 0.960 1_655 S
H686 C678 0.930 . S
H687 C679 0.929 . S
H688 C696 0.929 . S
H689 C698 0.930 . S
H690 C700 0.930 . S
H691 C703 0.929 . S
H692 C706 0.930 . S
H693 C708 0.960 . S
H694 C708 0.960 . S
H695 C708 0.960 . S
C696 H688 0.929 . S
C696 C697 1.377 . S
C696 C698 1.384 . S
C697 C696 1.377 . S
C697 C703 1.390 . S
C698 H689 0.930 . S
C698 C696 1.384 . S
C698 C699 1.372 . S
C699 C698 1.372 . S
C699 C700 1.400 . S
C699 C704 1.490 . S
C700 H690 0.930 . S
C700 C699 1.400 . S
C700 C703 1.386 . S
H701 C717 0.930 . S
H702 C718 0.931 . S
C703 H691 0.929 . S
C703 C697 1.390 . S
C703 C700 1.386 . S
C704 C699 1.490 . S
C704 C706 1.395 . S
C704 C707 1.403 . S
H705 C711 0.930 . S
C706 H692 0.930 . S
C706 C704 1.395 . S
C706 C709 1.403 . S
C707 C704 1.403 . S
C707 C708 1.524 . S
C707 C711 1.400 . S
C708 H693 0.960 . S
C708 H694 0.960 . S
C708 H695 0.960 . S
C708 C707 1.524 . S
C709 C706 1.403 . S
C709 C710 1.392 . S
C709 C713 1.495 . S
C710 C709 1.392 . S
C710 C711 1.385 . S
C710 C712 1.478 . S
C711 H705 0.930 . S
C711 C707 1.400 . S
C711 C710 1.385 . S
C712 C710 1.478 . S
C712 C714 1.381 . S
C712 C718 1.383 . S
C713 C709 1.495 . S
C713 H719 0.959 . S
C713 H720 0.961 . S
C713 H721 0.960 . S
C714 C712 1.381 . S
C714 C715 1.394 . S
C714 H722 0.930 . S
C715 C714 1.394 . S
C715 C716 1.383 . S
C715 H723 0.929 . S
C716 C715 1.383 . S
C716 C717 1.377 . S
C717 H701 0.930 . S
C717 C716 1.377 . S
C717 C718 1.379 . S
C718 H702 0.931 . S
C718 C712 1.383 . S
C718 C717 1.379 . S
H719 C713 0.959 . S
H720 C713 0.961 . S
H721 C713 0.960 . S
H722 C714 0.930 . S
H723 C715 0.929 . S
H724 C732 0.929 . S
H725 C734 0.930 . S
H726 C736 0.930 . S
H727 C739 0.929 . S
H728 C742 0.930 . S
H729 C744 0.960 . S
H730 C744 0.960 . S
H731 C744 0.960 . S
C732 H724 0.929 . S
C732 C733 1.377 . S
C732 C734 1.384 . S
C733 C732 1.377 . S
C733 C739 1.390 . S
C734 H725 0.930 . S
C734 C732 1.384 . S
C734 C735 1.372 . S
C735 C734 1.372 . S
C735 C736 1.400 . S
C735 C740 1.490 . S
C736 H726 0.930 . S
C736 C735 1.400 . S
C736 C739 1.386 . S
H737 C753 0.930 . S
H738 C754 0.931 . S
C739 H727 0.929 . S
C739 C733 1.390 . S
C739 C736 1.386 . S
C740 C735 1.490 . S
C740 C742 1.395 . S
C740 C743 1.403 . S
H741 C747 0.930 . S
C742 H728 0.930 . S
C742 C740 1.395 . S
C742 C745 1.403 . S
C743 C740 1.403 . S
C743 C744 1.524 . S
C743 C747 1.400 . S
C744 H729 0.960 . S
C744 H730 0.960 . S
C744 H731 0.960 . S
C744 C743 1.524 . S
C745 C742 1.403 . S
C745 C746 1.392 . S
C745 C749 1.495 . S
C746 C745 1.392 . S
C746 C747 1.385 . S
C746 C748 1.478 . S
C747 H741 0.930 . S
C747 C743 1.400 . S
C747 C746 1.385 . S
C748 C746 1.478 . S
C748 C750 1.381 . S
C748 C754 1.383 . S
C749 C745 1.495 . S
C749 H755 0.959 . S
C749 H756 0.961 . S
C749 H757 0.960 . S
C750 C748 1.381 . S
C750 C751 1.394 . S
C750 H758 0.930 . S
C751 C750 1.394 . S
C751 C752 1.383 . S
C751 H759 0.929 . S
C752 C751 1.383 . S
C752 C753 1.377 . S
C753 H737 0.930 . S
C753 C752 1.377 . S
C753 C754 1.379 . S
C754 H738 0.931 . S
C754 C748 1.383 . S
C754 C753 1.379 . S
H755 C749 0.959 . S
H756 C749 0.961 . S
H757 C749 0.960 . S
H758 C750 0.930 . S
H759 C751 0.929 . S
H760 C768 0.927 1_554 S
H761 C770 0.930 . S
H762 C772 0.930 . S
H763 C775 0.929 . S
H764 C778 0.930 . S
H765 C780 0.960 . S
H766 C780 0.960 . S
H767 C780 0.960 . S
C768 H760 0.927 1_556 S
C768 C769 1.376 1_556 S
C768 C770 1.388 . S
C769 C768 1.376 1_554 S
C769 C775 1.390 1_554 S
C770 H761 0.930 . S
C770 C768 1.388 . S
C770 C771 1.372 . S
C771 C770 1.372 . S
C771 C772 1.400 . S
C771 C776 1.490 . S
C772 H762 0.930 . S
C772 C771 1.400 . S
C772 C775 1.386 . S
H773 C789 0.930 . S
H774 C790 0.931 . S
C775 H763 0.929 . S
C775 C769 1.390 1_556 S
C775 C772 1.386 . S
C776 C771 1.490 . S
C776 C778 1.395 . S
C776 C779 1.403 . S
H777 C783 0.930 . S
C778 H764 0.930 . S
C778 C776 1.395 . S
C778 C781 1.403 . S
C779 C776 1.403 . S
C779 C780 1.524 . S
C779 C783 1.400 . S
C780 H765 0.960 . S
C780 H766 0.960 . S
C780 H767 0.960 . S
C780 C779 1.524 . S
C781 C778 1.403 . S
C781 C782 1.392 . S
C781 C785 1.495 . S
C782 C781 1.392 . S
C782 C783 1.385 . S
C782 C784 1.478 . S
C783 H777 0.930 . S
C783 C779 1.400 . S
C783 C782 1.385 . S
C784 C782 1.478 . S
C784 C786 1.381 . S
C784 C790 1.383 . S
C785 C781 1.495 . S
C785 H791 0.959 . S
C785 H792 0.961 . S
C785 H793 0.960 . S
C786 C784 1.381 . S
C786 C787 1.394 . S
C786 H794 0.930 . S
C787 C786 1.394 . S
C787 C788 1.383 . S
C787 H795 0.929 . S
C788 C787 1.383 . S
C788 C789 1.377 . S
C789 H773 0.930 . S
C789 C788 1.377 . S
C789 C790 1.379 . S
C790 H774 0.931 . S
C790 C784 1.383 . S
C790 C789 1.379 . S
H791 C785 0.959 . S
H792 C785 0.961 . S
H793 C785 0.960 . S
H794 C786 0.930 . S
H795 C787 0.929 . S
H796 C804 0.929 . S
H797 C806 0.930 . S
H798 C808 0.930 . S
H799 C811 0.929 . S
H800 C814 0.930 . S
H801 C816 0.960 . S
H802 C816 0.960 . S
H803 C816 0.960 . S
C804 H796 0.929 . S
C804 C805 1.377 . S
C804 C806 1.384 . S
C805 C804 1.377 . S
C805 C811 1.390 . S
C806 H797 0.930 . S
C806 C804 1.384 . S
C806 C807 1.372 . S
C807 C806 1.372 . S
C807 C808 1.400 . S
C807 C812 1.490 . S
C808 H798 0.930 . S
C808 C807 1.400 . S
C808 C811 1.386 . S
H809 C825 0.930 . S
H810 C826 0.931 . S
C811 H799 0.929 . S
C811 C805 1.390 . S
C811 C808 1.386 . S
C812 C807 1.490 . S
C812 C814 1.395 . S
C812 C815 1.403 . S
H813 C819 0.930 . S
C814 H800 0.930 . S
C814 C812 1.395 . S
C814 C817 1.403 . S
C815 C812 1.403 . S
C815 C816 1.524 . S
C815 C819 1.400 . S
C816 H801 0.960 . S
C816 H802 0.960 . S
C816 H803 0.960 . S
C816 C815 1.524 . S
C817 C814 1.403 . S
C817 C818 1.392 . S
C817 C821 1.495 . S
C818 C817 1.392 . S
C818 C819 1.385 . S
C818 C820 1.478 . S
C819 H813 0.930 . S
C819 C815 1.400 . S
C819 C818 1.385 . S
C820 C818 1.478 . S
C820 C822 1.381 . S
C820 C826 1.383 . S
C821 C817 1.495 . S
C821 H827 0.959 . S
C821 H828 0.961 . S
C821 H829 0.960 . S
C822 C820 1.381 . S
C822 C823 1.394 . S
C822 H830 0.930 . S
C823 C822 1.394 . S
C823 C824 1.383 . S
C823 H831 0.929 . S
C824 C823 1.383 . S
C824 C825 1.377 . S
C825 H809 0.930 . S
C825 C824 1.377 . S
C825 C826 1.379 . S
C826 H810 0.931 . S
C826 C820 1.383 . S
C826 C825 1.379 . S
H827 C821 0.959 . S
H828 C821 0.961 . S
H829 C821 0.960 . S
H830 C822 0.930 . S
H831 C823 0.929 . S
H832 C840 0.929 . S
H833 C842 0.930 . S
H834 C844 0.930 . S
H835 C847 0.929 . S
H836 C850 0.930 . S
H837 C852 0.960 . S
H838 C852 0.960 . S
H839 C852 0.960 . S
C840 H832 0.929 . S
C840 C841 1.377 . S
C840 C842 1.384 . S
C841 C840 1.377 . S
C841 C847 1.390 . S
C842 H833 0.930 . S
C842 C840 1.384 . S
C842 C843 1.372 . S
C843 C842 1.372 . S
C843 C844 1.400 . S
C843 C848 1.490 . S
C844 H834 0.930 . S
C844 C843 1.400 . S
C844 C847 1.386 . S
H845 C861 0.930 . S
H846 C862 0.931 . S
C847 H835 0.929 . S
C847 C841 1.390 . S
C847 C844 1.386 . S
C848 C843 1.490 . S
C848 C850 1.395 . S
C848 C851 1.403 . S
H849 C855 0.930 . S
C850 H836 0.930 . S
C850 C848 1.395 . S
C850 C853 1.403 . S
C851 C848 1.403 . S
C851 C852 1.524 . S
C851 C855 1.400 . S
C852 H837 0.960 . S
C852 H838 0.960 . S
C852 H839 0.960 . S
C852 C851 1.524 . S
C853 C850 1.403 . S
C853 C854 1.392 . S
C853 C857 1.495 . S
C854 C853 1.392 . S
C854 C855 1.385 . S
C854 C856 1.478 . S
C855 H849 0.930 . S
C855 C851 1.400 . S
C855 C854 1.385 . S
C856 C854 1.478 . S
C856 C858 1.381 . S
C856 C862 1.383 . S
C857 C853 1.495 . S
C857 H863 0.959 . S
C857 H864 0.961 . S
C857 H865 0.960 . S
C858 C856 1.381 . S
C858 C859 1.394 1_554 S
C858 H866 0.930 . S
C859 C858 1.394 1_556 S
C859 C860 1.383 . S
C859 H867 0.929 . S
C860 C859 1.383 . S
C860 C861 1.377 1_556 S
C861 H845 0.930 . S
C861 C860 1.377 1_554 S
C861 C862 1.379 . S
C862 H846 0.931 . S
C862 C856 1.383 . S
C862 C861 1.379 . S
H863 C857 0.959 . S
H864 C857 0.961 . S
H865 C857 0.960 . S
H866 C858 0.930 . S
H867 C859 0.929 . S
H868 C876 0.929 . S
H869 C878 0.930 . S
H870 C880 0.930 . S
H871 C883 0.929 . S
H872 C886 0.930 . S
H873 C888 0.960 . S
H874 C888 0.960 . S
H875 C888 0.960 . S
C876 H868 0.929 . S
C876 C877 1.377 . S
C876 C878 1.384 . S
C877 C876 1.377 . S
C877 C883 1.390 . S
C878 H869 0.930 . S
C878 C876 1.384 . S
C878 C879 1.372 . S
C879 C878 1.372 . S
C879 C880 1.400 . S
C879 C884 1.490 . S
C880 H870 0.930 . S
C880 C879 1.400 . S
C880 C883 1.386 . S
H881 C897 0.930 . S
H882 C898 0.931 . S
C883 H871 0.929 . S
C883 C877 1.390 . S
C883 C880 1.386 . S
C884 C879 1.490 . S
C884 C886 1.395 . S
C884 C887 1.403 . S
H885 C891 0.930 . S
C886 H872 0.930 . S
C886 C884 1.395 . S
C886 C889 1.403 . S
C887 C884 1.403 . S
C887 C888 1.524 . S
C887 C891 1.400 . S
C888 H873 0.960 . S
C888 H874 0.960 . S
C888 H875 0.960 . S
C888 C887 1.524 . S
C889 C886 1.403 . S
C889 C890 1.392 . S
C889 C893 1.495 . S
C890 C889 1.392 . S
C890 C891 1.385 . S
C890 C892 1.478 . S
C891 H885 0.930 . S
C891 C887 1.400 . S
C891 C890 1.385 . S
C892 C890 1.478 . S
C892 C894 1.381 . S
C892 C898 1.383 . S
C893 C889 1.495 . S
C893 H899 0.959 . S
C893 H900 0.961 . S
C893 H901 0.960 . S
C894 C892 1.381 . S
C894 C895 1.394 . S
C894 H902 0.930 . S
C895 C894 1.394 . S
C895 C896 1.383 . S
C895 H903 0.929 . S
C896 C895 1.383 . S
C896 C897 1.377 . S
C897 H881 0.930 . S
C897 C896 1.377 . S
C897 C898 1.379 . S
C898 H882 0.931 . S
C898 C892 1.383 . S
C898 C897 1.379 . S
H899 C893 0.959 . S
H900 C893 0.961 . S
H901 C893 0.960 . S
H902 C894 0.930 . S
H903 C895 0.929 . S
H904 C912 0.929 1_554 S
H905 C914 0.930 . S
H906 C916 0.930 . S
H907 C919 0.929 . S
H908 C922 0.930 . S
H909 C924 0.960 . S
H910 C924 0.960 . S
H911 C924 0.960 . S
C912 H904 0.929 1_556 S
C912 C913 1.377 1_556 S
C912 C914 1.384 . S
C913 C912 1.377 1_554 S
C913 C919 1.390 1_554 S
C914 H905 0.930 . S
C914 C912 1.384 . S
C914 C915 1.372 . S
C915 C914 1.372 . S
C915 C916 1.400 . S
C915 C920 1.490 . S
C916 H906 0.930 . S
C916 C915 1.400 . S
C916 C919 1.386 . S
H917 C933 0.930 . S
H918 C934 0.931 . S
C919 H907 0.929 . S
C919 C913 1.390 1_556 S
C919 C916 1.386 . S
C920 C915 1.490 . S
C920 C922 1.395 . S
C920 C923 1.403 1_565 S
H921 C927 0.930 . S
C922 H908 0.930 . S
C922 C920 1.395 . S
C922 C925 1.403 . S
C923 C920 1.403 1_545 S
C923 C924 1.524 . S
C923 C927 1.400 . S
C924 H909 0.960 . S
C924 H910 0.960 . S
C924 H911 0.960 . S
C924 C923 1.524 . S
C925 C922 1.403 . S
C925 C926 1.429 . S
C925 C929 1.495 . S
C926 C925 1.429 . S
C926 C927 1.366 1_565 S
C926 C928 1.460 1_565 S
C927 H921 0.930 . S
C927 C923 1.400 . S
C927 C926 1.366 1_545 S
C928 C926 1.460 1_545 S
C928 C930 1.381 . S
C928 C934 1.383 . S
C929 C925 1.495 . S
C929 H935 0.959 . S
C929 H936 0.961 . S
C929 H937 0.960 . S
C930 C928 1.381 . S
C930 C931 1.394 . S
C930 H938 0.930 . S
C931 C930 1.394 . S
C931 C932 1.383 . S
C931 H939 0.929 . S
C932 C931 1.383 . S
C932 C933 1.377 . S
C933 H917 0.930 . S
C933 C932 1.377 . S
C933 C934 1.379 . S
C934 H918 0.931 . S
C934 C928 1.383 . S
C934 C933 1.379 . S
H935 C929 0.959 . S
H936 C929 0.961 . S
H937 C929 0.960 . S
H938 C930 0.930 . S
H939 C931 0.929 . S
H940 C948 0.929 . S
H941 C950 0.930 1_565 S
H942 C952 0.930 . S
H943 C955 0.929 . S
H944 C958 0.930 . S
H945 C960 0.960 . S
H946 C960 0.960 . S
H947 C960 0.960 . S
C948 H940 0.929 . S
C948 C949 1.377 . S
C948 C950 1.384 . S
C949 C948 1.377 . S
C949 C955 1.390 . S
C950 H941 0.930 1_545 S
C950 C948 1.384 . S
C950 C951 1.372 . S
C951 C950 1.372 . S
C951 C952 1.400 . S
C951 C956 1.490 . S
C952 H942 0.930 . S
C952 C951 1.400 . S
C952 C955 1.386 . S
H953 C969 0.930 . S
H954 C970 0.931 . S
C955 H943 0.929 . S
C955 C949 1.390 . S
C955 C952 1.386 . S
C956 C951 1.490 . S
C956 C958 1.395 . S
C956 C959 1.403 1_545 S
H957 C963 0.930 . S
C958 H944 0.930 . S
C958 C956 1.395 . S
C958 C961 1.403 1_545 S
C959 C956 1.403 1_565 S
C959 C960 1.524 . S
C959 C963 1.400 . S
C960 H945 0.960 . S
C960 H946 0.960 . S
C960 H947 0.960 . S
C960 C959 1.524 . S
C961 C958 1.403 1_565 S
C961 C962 1.392 . S
C961 C965 1.495 1_565 S
C962 C961 1.392 . S
C962 C963 1.385 . S
C962 C964 1.478 . S
C963 H957 0.930 . S
C963 C959 1.400 . S
C963 C962 1.385 . S
C964 C962 1.478 . S
C964 C966 1.381 . S
C964 C970 1.383 . S
C965 C961 1.495 1_545 S
C965 H971 0.959 . S
C965 H972 0.961 . S
C965 H973 0.960 1_545 S
C966 C964 1.381 . S
C966 C967 1.394 . S
C966 H974 0.930 . S
C967 C966 1.394 . S
C967 C968 1.383 . S
C967 H975 0.929 . S
C968 C967 1.383 . S
C968 C969 1.377 . S
C969 H953 0.930 . S
C969 C968 1.377 . S
C969 C970 1.379 . S
C970 H954 0.931 . S
C970 C964 1.383 . S
C970 C969 1.379 . S
H971 C965 0.959 . S
H972 C965 0.961 . S
H973 C965 0.960 1_565 S
H974 C966 0.930 . S
H975 C967 0.929 . S
H976 C984 0.929 . S
H977 C986 0.930 . S
H978 C988 0.930 . S
H979 C991 0.929 . S
H980 C994 0.930 . S
H981 C996 0.960 . S
H982 C996 0.960 . S
H983 C996 0.960 . S
C984 H976 0.929 . S
C984 C985 1.377 . S
C984 C986 1.384 . S
C985 C984 1.377 . S
C985 C991 1.390 . S
C986 H977 0.930 . S
C986 C984 1.384 . S
C986 C987 1.372 . S
C987 C986 1.372 . S
C987 C988 1.400 . S
C987 C992 1.490 . S
C988 H978 0.930 . S
C988 C987 1.400 . S
C988 C991 1.386 . S
H989 C1005 0.930 1_556 S
H990 C1006 0.931 . S
C991 H979 0.929 . S
C991 C985 1.390 . S
C991 C988 1.386 . S
C992 C987 1.490 . S
C992 C994 1.395 . S
C992 C995 1.403 1_565 S
H993 C999 0.930 . S
C994 H980 0.930 . S
C994 C992 1.395 . S
C994 C997 1.403 . S
C995 C992 1.403 1_545 S
C995 C996 1.524 . S
C995 C999 1.400 . S
C996 H981 0.960 . S
C996 H982 0.960 . S
C996 H983 0.960 . S
C996 C995 1.524 . S
C997 C994 1.403 . S
C997 C998 1.392 1_565 S
C997 C1001 1.495 . S
C998 C997 1.392 1_545 S
C998 C999 1.385 . S
C998 C1000 1.478 . S
C999 H993 0.930 . S
C999 C995 1.400 . S
C999 C998 1.385 . S
C1000 C998 1.478 . S
C1000 C1002 1.381 . S
C1000 C1006 1.383 . S
C1001 C997 1.495 . S
C1001 H1007 0.959 . S
C1001 H1008 0.961 . S
C1001 H1009 0.960 . S
C1002 C1000 1.381 . S
C1002 C1003 1.394 . S
C1002 H1010 0.930 . S
C1003 C1002 1.394 . S
C1003 C1004 1.383 1_554 S
C1003 H1011 0.929 . S
C1004 C1003 1.383 1_556 S
C1004 C1005 1.377 1_556 S
C1005 H989 0.930 1_554 S
C1005 C1004 1.377 1_554 S
C1005 C1006 1.379 . S
C1006 H990 0.931 . S
C1006 C1000 1.383 . S
C1006 C1005 1.379 . S
H1007 C1001 0.959 . S
H1008 C1001 0.961 . S
H1009 C1001 0.960 . S
H1010 C1002 0.930 . S
H1011 C1003 0.929 . S
H1012 C1020 0.929 . S
H1013 C1022 0.930 . S
H1014 C1024 0.930 . S
H1015 C1027 0.929 . S
H1016 C1030 0.929 1_565 S
H1017 C1032 0.960 . S
H1018 C1032 0.960 . S
H1019 C1032 0.960 . S
C1020 H1012 0.929 . S
C1020 C1021 1.377 . S
C1020 C1022 1.384 . S
C1021 C1020 1.377 . S
C1021 C1027 1.390 . S
C1022 H1013 0.930 . S
C1022 C1020 1.384 . S
C1022 C1023 1.372 . S
C1023 C1022 1.372 . S
C1023 C1024 1.400 . S
C1023 C1028 1.490 . S
C1024 H1014 0.930 . S
C1024 C1023 1.400 . S
C1024 C1027 1.386 . S
H1025 C1041 0.930 . S
H1026 C1042 0.931 . S
C1027 H1015 0.929 . S
C1027 C1021 1.390 . S
C1027 C1024 1.386 . S
C1028 C1023 1.490 . S
C1028 C1030 1.395 . S
C1028 C1031 1.403 . S
H1029 C1035 0.930 . S
C1030 H1016 0.929 1_545 S
C1030 C1028 1.395 . S
C1030 C1033 1.403 1_545 S
C1031 C1028 1.403 . S
C1031 C1032 1.524 . S
C1031 C1035 1.400 . S
C1032 H1017 0.960 . S
C1032 H1018 0.960 . S
C1032 H1019 0.960 . S
C1032 C1031 1.524 . S
C1033 C1030 1.403 1_565 S
C1033 C1034 1.392 . S
C1033 C1037 1.495 . S
C1034 C1033 1.392 . S
C1034 C1035 1.385 1_565 S
C1034 C1036 1.478 . S
C1035 H1029 0.930 . S
C1035 C1031 1.400 . S
C1035 C1034 1.385 1_545 S
C1036 C1034 1.478 . S
C1036 C1038 1.381 . S
C1036 C1042 1.383 . S
C1037 C1033 1.495 . S
C1037 H1043 0.959 . S
C1037 H1044 0.961 . S
C1037 H1045 0.960 . S
C1038 C1036 1.381 . S
C1038 C1039 1.394 . S
C1038 H1046 0.959 . S
C1039 C1038 1.394 . S
C1039 C1040 1.383 . S
C1039 H1047 0.929 . S
C1040 C1039 1.383 . S
C1040 C1041 1.377 . S
C1041 H1025 0.930 . S
C1041 C1040 1.377 . S
C1041 C1042 1.379 . S
C1042 H1026 0.931 . S
C1042 C1036 1.383 . S
C1042 C1041 1.379 . S
H1043 C1037 0.959 . S
H1044 C1037 0.961 . S
H1045 C1037 0.960 . S
H1046 C1038 0.959 . S
H1047 C1039 0.929 . S
C193 C40 1.354 . S
C212 C17 1.337 . S
C229 C63 1.355 . S
C248 C86 1.349 . S
C265 C132 1.358 . S
C284 C109 1.361 . S
C301 C155 1.352 . S
C320 C178 1.364 . S
C337 C20 1.319 . S
C356 C158 1.323 . S
C373 C43 1.317 . S
C392 C181 1.315 . S
C409 C112 1.319 . S
C428 C66 1.323 . S
C445 C89 1.319 . S
C464 C135 1.323 . S
C481 C62 1.015 . S
C500 C16 0.986 . S
C517 C85 1.011 . S
C536 C39 0.984 . S
C553 C108 1.011 . S
C572 C154 1.025 . S
C589 C131 1.015 . S
C608 C177 0.985 . S
C625 C18 1.127 . S
C644 C41 1.118 . S
C661 C87 1.121 . S
C680 C64 1.104 . S
C697 C133 1.124 . S
C716 C110 1.139 . S
C733 C179 1.125 . S
C752 C156 1.113 . S
C769 C21 1.450 . S
C788 C88 1.409 . S
C805 C44 1.449 . S
C824 C65 1.410 . S
C841 C42 1.374 . S
C860 C67 1.451 . S
C877 C19 1.382 . S
C896 C90 1.446 . S
C913 C113 1.450 . S
C932 C180 1.408 . S
C949 C157 1.385 . S
C968 C136 1.451 . S
C985 C134 1.381 . S
C1004 C159 1.444 . S
C1021 C182 1.449 . S
C1040 C111 1.386 . S
