# Generated by pormake.
# Topology bcg, (8)-cn, num edge types: 1
# Building blocks:
#     Node 0, Type 0, BuildingBlock: TAGTUT_clean_sbu_1, # of connection points: 8
#     Node 1, Type 0, BuildingBlock: TAGTUT_clean_sbu_1, # of connection points: 8
#     Node 2, Type 0, BuildingBlock: TAGTUT_clean_sbu_1, # of connection points: 8
#     Node 3, Type 0, BuildingBlock: TAGTUT_clean_sbu_1, # of connection points: 8
#     Edge 4, Type (0, 0), BuildingBlock: OJICUG_clean_linker_0, # of connection points: 2
#     Edge 5, Type (0, 0), BuildingBlock: OJICUG_clean_linker_0, # of connection points: 2
#     Edge 6, Type (0, 0), BuildingBlock: OJICUG_clean_linker_0, # of connection points: 2
#     Edge 7, Type (0, 0), BuildingBlock: OJICUG_clean_linker_0, # of connection points: 2
#     Edge 8, Type (0, 0), BuildingBlock: OJICUG_clean_linker_0, # of connection points: 2
#     Edge 9, Type (0, 0), BuildingBlock: OJICUG_clean_linker_0, # of connection points: 2
#     Edge 10, Type (0, 0), BuildingBlock: OJICUG_clean_linker_0, # of connection points: 2
#     Edge 11, Type (0, 0), BuildingBlock: OJICUG_clean_linker_0, # of connection points: 2
#     Edge 12, Type (0, 0), BuildingBlock: OJICUG_clean_linker_0, # of connection points: 2
#     Edge 13, Type (0, 0), BuildingBlock: OJICUG_clean_linker_0, # of connection points: 2
#     Edge 14, Type (0, 0), BuildingBlock: OJICUG_clean_linker_0, # of connection points: 2
#     Edge 15, Type (0, 0), BuildingBlock: OJICUG_clean_linker_0, # of connection points: 2
#     Edge 16, Type (0, 0), BuildingBlock: OJICUG_clean_linker_0, # of connection points: 2
#     Edge 17, Type (0, 0), BuildingBlock: OJICUG_clean_linker_0, # of connection points: 2
#     Edge 18, Type (0, 0), BuildingBlock: OJICUG_clean_linker_0, # of connection points: 2
#     Edge 19, Type (0, 0), BuildingBlock: OJICUG_clean_linker_0, # of connection points: 2
# Relax obj value: 0.097
# Max RMSD: 0.211
# Mean RMSD: 0.211
data_MOF--net-bcg--node1-TAGTUT_clean_sbu_1--edge1-OJICUG_clean_linker_0
_symmetry_space_group_name_H-M    P1
_symmetry_Int_Tables_number       1
_symmetry_cell_setting            triclinic
loop_
_symmetry_equiv_pos_as_xyz
'x, y, z'
_cell_length_a     11.445609
_cell_length_b     19.279118
_cell_length_c     27.719003
_cell_angle_alpha  77.196481
_cell_angle_beta   89.999567
_cell_angle_gamma 89.992752
loop_
_atom_site_label
_atom_site_type_symbol
_atom_site_fract_x
_atom_site_fract_y
_atom_site_fract_z
_atom_type_partial_charge
C0 C 0.16144 0.25322 0.16869 0.0
C1 C 0.46906 0.28821 0.09736 0.0
C2 C 0.3169 0.44565 0.9422 0.0
Mg3 Mg 0.27365 0.18287 0.09066 0.0
O4 O 0.20472 0.25752 0.04579 0.0
Mg5 Mg 0.20861 0.35594 0.05477 0.0
Mg6 Mg 0.25169 0.2775 -0.02532 0.0
O7 O 0.2986 0.29765 0.90361 0.0
Mg8 Mg 0.2291 0.37226 0.85885 0.0
Mg9 Mg 0.29463 0.19932 0.89455 0.0
C10 C 0.18448 0.1101 0.00719 0.0
C11 C 0.5171 0.23208 0.9615 0.0
O12 O 0.15605 0.31223 0.13635 0.0
O13 O 0.19647 0.19531 0.15832 0.0
O14 O 0.39587 0.33942 0.08456 0.0
O15 O 0.44563 0.22443 0.09388 0.0
O16 O 0.19857 0.10438 0.05384 0.0
O17 O 0.23447 0.16047 -0.02412 0.0
C18 C 0.98626 0.32309 -0.01222 0.0
O19 O 0.05935 0.29678 0.9618 0.0
O20 O 0.01877 0.35036 0.02417 0.0
O21 O 0.34679 0.24331 0.81295 0.0
O22 O 0.30636 0.36024 0.79112 0.0
O23 O 0.10722 0.21572 0.86485 0.0
C24 C 0.34136 0.30238 0.78067 0.0
O25 O 0.05727 0.33066 0.85547 0.0
O26 O 0.30253 0.45132 0.89556 0.0
C27 C 0.03395 0.26687 0.85202 0.0
O28 O 0.26938 0.39433 0.97357 0.0
O29 O 0.44402 0.25823 -0.01244 0.0
O30 O 0.48457 0.20494 0.92505 0.0
C31 C 0.66147 0.75335 0.16864 0.0
C32 C 0.96903 0.78834 0.09731 0.0
C33 C 0.81687 0.94572 0.94215 0.0
Mg34 Mg 0.77365 0.68298 0.09061 0.0
O35 O 0.70467 0.75761 0.04574 0.0
Mg36 Mg 0.70856 0.85603 0.05472 0.0
Mg37 Mg 0.75164 0.77758 -0.02537 0.0
O38 O 0.79856 0.79773 0.90356 0.0
Mg39 Mg 0.72908 0.87235 0.85879 0.0
Mg40 Mg 0.79458 0.69941 0.89449 0.0
C41 C 0.68446 0.61017 0.00715 0.0
C42 C 0.01705 0.73216 0.96145 0.0
O43 O 0.65604 0.81234 0.13629 0.0
O44 O 0.69649 0.69543 0.15827 0.0
O45 O 0.89584 0.83954 0.0845 0.0
O46 O 0.94561 0.72456 0.09383 0.0
O47 O 0.69859 0.60447 0.0538 0.0
O48 O 0.7344 0.66055 -0.02417 0.0
C49 C 0.48621 0.82317 -0.01227 0.0
O50 O 0.5593 0.79686 0.96175 0.0
O51 O 0.51872 0.85044 0.02412 0.0
O52 O 0.84678 0.7434 0.81289 0.0
O53 O 0.80637 0.86033 0.79108 0.0
O54 O 0.60719 0.71582 0.86479 0.0
C55 C 0.84138 0.80248 0.78062 0.0
O56 O 0.55725 0.83076 0.85542 0.0
O57 O 0.80253 0.95141 0.89551 0.0
C58 C 0.53392 0.76698 0.85197 0.0
O59 O 0.76931 0.89441 0.97351 0.0
O60 O 0.94396 0.75831 -0.01249 0.0
O61 O 0.98452 0.70501 0.925 0.0
C62 C 0.16153 0.80236 0.28061 0.0
C63 C 0.46914 0.76738 0.35195 0.0
C64 C 0.31693 0.60997 0.50711 0.0
Mg65 Mg 0.2737 0.87274 0.35862 0.0
O66 O 0.20479 0.7981 0.40351 0.0
Mg67 Mg 0.2087 0.69968 0.39453 0.0
Mg68 Mg 0.25176 0.77814 0.47461 0.0
O69 O 0.29867 0.75799 0.54569 0.0
Mg70 Mg 0.22917 0.6834 0.59045 0.0
Mg71 Mg 0.29467 0.85632 0.55474 0.0
C72 C 0.18452 0.94553 0.4421 0.0
C73 C 0.51715 0.82355 0.4878 0.0
O74 O 0.15615 0.74337 0.31296 0.0
O75 O 0.19653 0.86028 0.29097 0.0
O76 O 0.39597 0.71618 0.36476 0.0
O77 O 0.44569 0.83116 0.35542 0.0
O78 O 0.1986 0.95124 0.39544 0.0
O79 O 0.23453 0.89516 0.47341 0.0
C80 C 0.98635 0.73256 0.46152 0.0
O81 O 0.05942 0.75887 0.48749 0.0
O82 O 0.01886 0.70528 0.42513 0.0
O83 O 0.34684 0.81234 0.63635 0.0
O84 O 0.30643 0.69541 0.65817 0.0
O85 O 0.10727 0.83994 0.58444 0.0
C86 C 0.34142 0.75327 0.66863 0.0
O87 O 0.05733 0.72501 0.59382 0.0
O88 O 0.30257 0.6043 0.55375 0.0
C89 C 0.034 0.7888 0.59727 0.0
O90 O 0.26945 0.66131 0.47574 0.0
O91 O 0.44408 0.79739 0.46174 0.0
O92 O 0.48461 0.8507 0.52425 0.0
C93 C 0.6614 0.30219 0.28068 0.0
C94 C 0.96897 0.26718 0.35201 0.0
C95 C 0.81682 0.10984 0.50717 0.0
Mg96 Mg 0.77357 0.37255 0.3587 0.0
O97 O 0.7046 0.29793 0.40357 0.0
Mg98 Mg 0.70851 0.19951 0.3946 0.0
Mg99 Mg 0.75156 0.27797 0.47468 0.0
O100 O 0.79848 0.25783 0.54576 0.0
Mg101 Mg 0.72903 0.18323 0.59053 0.0
Mg102 Mg 0.79448 0.35616 0.55481 0.0
C103 C 0.68442 0.4454 0.44215 0.0
C104 C 0.01696 0.32338 0.48787 0.0
O105 O 0.65599 0.2432 0.31303 0.0
O106 O 0.69641 0.3601 0.29104 0.0
O107 O 0.89579 0.21598 0.36482 0.0
O108 O 0.94554 0.33096 0.35549 0.0
O109 O 0.69854 0.45109 0.3955 0.0
O110 O 0.73433 0.395 0.47347 0.0
C111 C 0.48615 0.23239 0.46159 0.0
O112 O 0.55923 0.2587 0.48756 0.0
O113 O 0.51867 0.20511 0.4252 0.0
O114 O 0.84667 0.31219 0.63641 0.0
O115 O 0.80631 0.19526 0.65825 0.0
O116 O 0.60708 0.33977 0.5845 0.0
C117 C 0.84129 0.25312 0.6687 0.0
O118 O 0.55718 0.22483 0.59389 0.0
O119 O 0.8025 0.10416 0.55381 0.0
C120 C 0.53383 0.28862 0.59733 0.0
O121 O 0.76924 0.16114 0.47581 0.0
O122 O 0.94388 0.29722 0.46181 0.0
O123 O 0.98442 0.35054 0.52431 0.0
C124 C 0.70856 0.28032 0.92699 0.0
C125 C 0.64129 0.24814 0.96818 0.0
H126 H 0.867 0.33483 0.90116 0.0
C127 C 0.68572 0.24553 0.01582 0.0
H128 H 0.67496 0.28533 0.88983 0.0
C129 C 0.79479 0.27487 0.02229 0.0
C130 C 0.86206 0.30704 -0.0189 0.0
H131 H 0.63629 0.22042 0.04812 0.0
H132 H 0.8284 0.26985 0.05945 0.0
C133 C 0.81762 0.30967 0.93346 0.0
C134 C 0.2085 0.7804 0.92694 0.0
C135 C 0.14124 0.74822 0.96813 0.0
H136 H 0.36695 0.83491 0.90111 0.0
C137 C 0.18566 0.74562 0.01577 0.0
H138 H 0.1749 0.78541 0.88978 0.0
C139 C 0.29474 0.77495 0.02223 0.0
C140 C 0.36201 0.80713 -0.01895 0.0
H141 H 0.13623 0.72051 0.04807 0.0
H142 H 0.32834 0.76995 0.0594 0.0
C143 C 0.31757 0.80976 0.93341 0.0
C144 C 0.68576 0.81011 0.43348 0.0
C145 C 0.64134 0.80749 0.48112 0.0
H146 H 0.82844 0.78579 0.38984 0.0
C147 C 0.70864 0.77532 0.5223 0.0
H148 H 0.63631 0.83521 0.40118 0.0
C149 C 0.81771 0.74597 0.51583 0.0
C150 C 0.86215 0.74861 0.46819 0.0
H151 H 0.67505 0.7703 0.55947 0.0
H152 H 0.86712 0.72082 0.54813 0.0
C153 C 0.79485 0.78078 0.42701 0.0
C154 C 0.18556 0.30993 0.43355 0.0
C155 C 0.14115 0.30731 0.48119 0.0
H156 H 0.32824 0.2856 0.38991 0.0
C157 C 0.20844 0.27514 0.52237 0.0
H158 H 0.13612 0.33503 0.40124 0.0
C159 C 0.31751 0.2458 0.5159 0.0
C160 C 0.36195 0.24843 0.46826 0.0
H161 H 0.17485 0.27013 0.55954 0.0
H162 H 0.36692 0.22065 0.5482 0.0
C163 C 0.29465 0.28059 0.42708 0.0
C164 C 0.58508 0.5614 0.94081 0.0
C165 C 0.59559 0.56431 -0.00931 0.0
H166 H 0.48753 0.52324 0.88632 0.0
C167 C 0.50971 0.53048 0.02432 0.0
H168 H 0.64971 0.58635 0.91407 0.0
C169 C 0.41565 0.49488 0.00844 0.0
C170 C 0.40513 0.49198 0.95856 0.0
H171 H 0.51323 0.533 0.06294 0.0
H172 H 0.35123 0.46971 0.03522 0.0
C173 C 0.49094 0.52587 0.92492 0.0
C174 C 0.5851 0.49419 0.50849 0.0
C175 C 0.59557 0.49127 0.45861 0.0
H176 H 0.48758 0.53237 0.56298 0.0
C177 C 0.50967 0.52511 0.42498 0.0
H178 H 0.64974 0.46923 0.53523 0.0
C179 C 0.41562 0.56072 0.44087 0.0
C180 C 0.40514 0.56363 0.49075 0.0
H181 H 0.51317 0.52258 0.38636 0.0
H182 H 0.35119 0.58589 0.41409 0.0
C183 C 0.49097 0.52973 0.52439 0.0
C184 C 0.08518 0.06133 0.94083 0.0
C185 C 0.09558 0.06428 -0.0093 0.0
H186 H 0.98771 1.02316 0.88632 0.0
C187 C 0.00959 0.03053 0.02431 0.0
H188 H 0.1499 0.08623 0.91411 0.0
C189 C 0.91552 0.99496 0.00841 0.0
C190 C 0.90511 0.99202 0.95853 0.0
H191 H 0.01302 0.03309 0.06292 0.0
H192 H 0.85101 0.96985 0.03516 0.0
C193 C 0.99104 1.02583 0.92491 0.0
C194 C 0.91545 0.06059 0.44091 0.0
C195 C 0.90509 0.06356 0.49079 0.0
H196 H 0.01293 1.02247 0.38638 0.0
C197 C 0.99109 0.02979 0.52439 0.0
H198 H 0.85088 0.08567 0.41417 0.0
C199 C 0.08525 0.99431 0.50846 0.0
C200 C 0.0956 0.99134 0.45859 0.0
H201 H 0.9878 0.03247 0.56298 0.0
H202 H 0.15003 0.96944 0.53517 0.0
C203 C 0.00954 1.02505 0.42499 0.0
C204 C 0.64235 0.23829 0.21231 0.0
C205 C 0.63539 0.30197 0.22875 0.0
H206 H 0.60414 0.18493 0.15465 0.0
C207 C 0.60616 0.36514 0.19487 0.0
H208 H 0.67047 0.18937 0.23694 0.0
C209 C 0.56901 0.36285 0.14732 0.0
C210 C 0.55985 0.29723 0.13326 0.0
H211 H 0.6045 0.41553 0.20604 0.0
H212 H 0.53591 0.41125 0.12368 0.0
C213 C 0.60683 0.23615 0.16463 0.0
C214 C 0.64243 0.81725 0.23701 0.0
C215 C 0.63547 0.75357 0.22056 0.0
H216 H 0.60423 0.87062 0.29466 0.0
C217 C 0.60624 0.69042 0.25444 0.0
H218 H 0.67056 0.86617 0.21237 0.0
C219 C 0.5691 0.69272 0.302 0.0
C220 C 0.55994 0.75834 0.31605 0.0
H221 H 0.60458 0.64002 0.24327 0.0
H222 H 0.536 0.64432 0.32564 0.0
C223 C 0.60692 0.8194 0.28468 0.0
C224 C 0.36011 0.81689 0.73716 0.0
C225 C 0.36744 0.75334 0.72057 0.0
H226 H 0.39807 0.87008 0.79493 0.0
C227 C 0.39713 0.69015 0.75433 0.0
H228 H 0.33163 0.86582 0.71262 0.0
C229 C 0.43436 0.69234 0.80189 0.0
C230 C 0.44313 0.75788 0.81608 0.0
H231 H 0.39911 0.63984 0.74305 0.0
H232 H 0.46785 0.64396 0.82542 0.0
C233 C 0.3957 0.81893 0.78484 0.0
C234 C 0.39701 0.36549 0.69496 0.0
C235 C 0.36736 0.3023 0.72872 0.0
H236 H 0.4677 0.41167 0.62387 0.0
C237 C 0.36006 0.23874 0.71214 0.0
H238 H 0.39897 0.4158 0.70624 0.0
C239 C 0.39565 0.2367 0.66446 0.0
C240 C 0.44303 0.29775 0.63322 0.0
H241 H 0.33161 0.18982 0.73668 0.0
H242 H 0.39803 0.18554 0.65437 0.0
C243 C 0.43423 0.36329 0.6474 0.0
C244 C 0.10619 0.8653 0.19481 0.0
C245 C 0.13547 0.80214 0.22869 0.0
H246 H 0.03586 0.9114 0.12363 0.0
C247 C 0.14239 0.73846 0.21224 0.0
H248 H 0.10454 0.9157 0.20598 0.0
C249 C 0.10681 0.73631 0.16457 0.0
C250 C 0.05982 0.79739 0.13321 0.0
H251 H 0.17054 0.68954 0.23687 0.0
H252 H 0.10412 0.68509 0.15459 0.0
C253 C 0.069 0.863 0.14726 0.0
C254 C 0.10672 0.31922 0.28475 0.0
C255 C 0.05974 0.25813 0.3161 0.0
H256 H 0.17047 0.36602 0.21246 0.0
C257 C 0.06889 0.19253 0.30202 0.0
H258 H 0.10407 0.37041 0.29476 0.0
C259 C 0.1061 0.19026 0.25447 0.0
C260 C 0.13537 0.25342 0.22061 0.0
H261 H 0.03577 0.14413 0.32566 0.0
H262 H 0.10443 0.13987 0.24329 0.0
C263 C 0.14231 0.31709 0.23708 0.0
C264 C 0.93441 0.19222 0.80194 0.0
C265 C 0.94317 0.25777 0.81612 0.0
H266 H 0.89909 0.1397 0.74311 0.0
C267 C 0.89571 0.31881 0.78489 0.0
H268 H 0.96792 0.14385 0.82547 0.0
C269 C 0.86004 0.31676 0.73722 0.0
C270 C 0.86736 0.2532 0.72064 0.0
H271 H 0.89806 0.36995 0.79499 0.0
H272 H 0.83153 0.36568 0.71269 0.0
C273 C 0.8971 0.19002 0.75439 0.0
C274 C 0.89581 0.73686 0.66439 0.0
C275 C 0.94323 0.79791 0.63317 0.0
H276 H 0.83167 0.68995 0.7366 0.0
C277 C 0.93446 0.86344 0.64738 0.0
H278 H 0.89816 0.68573 0.65427 0.0
C279 C 0.89717 0.86562 0.69493 0.0
C280 C 0.86746 0.80243 0.72867 0.0
H281 H 0.96796 0.91182 0.62386 0.0
H282 H 0.89914 0.91592 0.70622 0.0
C283 C 0.86016 0.73888 0.71208 0.0
loop_
_geom_bond_atom_site_label_1
_geom_bond_atom_site_label_2
_geom_bond_distance
_geom_bond_site_symmetry_2
_ccdc_geom_bond_type
C0 O12 1.241 . S
C0 O13 1.280 . S
C1 O14 1.277 . S
C1 O15 1.245 . S
C2 O26 1.247 . S
C2 O28 1.289 1_556 S
Mg3 O4 1.926 . S
Mg3 O13 1.984 . S
Mg3 O15 1.988 . S
Mg3 O16 2.061 . S
O4 Mg3 1.926 . S
O4 Mg5 1.986 . S
O4 Mg6 1.923 . S
Mg5 O4 1.986 . S
Mg5 O12 2.042 . S
Mg5 O14 2.041 . S
Mg5 O20 2.038 . S
Mg5 O28 2.238 . S
Mg6 O4 1.923 . S
Mg6 O7 1.910 1_554 S
Mg6 O17 2.104 1_554 S
Mg6 O19 2.077 1_554 S
Mg6 O28 2.109 . S
Mg6 O29 2.080 . S
O7 Mg6 1.910 1_556 S
O7 Mg8 1.926 . S
O7 Mg9 1.986 . S
Mg8 O7 1.926 . S
Mg8 O22 1.984 . S
Mg8 O25 1.988 . S
Mg8 O26 2.061 . S
Mg9 O7 1.986 . S
Mg9 O17 2.238 . S
Mg9 O21 2.042 . S
Mg9 O23 2.041 . S
Mg9 O30 2.038 . S
C10 O16 1.247 . S
C10 O17 1.289 1_554 S
C11 O29 1.245 1_556 S
C11 O30 1.274 . S
O12 C0 1.241 . S
O12 Mg5 2.042 . S
O13 C0 1.280 . S
O13 Mg3 1.984 . S
O14 C1 1.277 . S
O14 Mg5 2.041 . S
O15 C1 1.245 . S
O15 Mg3 1.988 . S
O16 Mg3 2.061 . S
O16 C10 1.247 . S
O17 Mg6 2.104 1_556 S
O17 Mg9 2.238 . S
O17 C10 1.289 1_556 S
C18 O19 1.245 1_554 S
C18 O20 1.274 . S
O19 Mg6 2.077 1_556 S
O19 C18 1.245 1_556 S
O20 Mg5 2.038 . S
O20 C18 1.274 . S
O21 Mg9 2.042 . S
O21 C24 1.241 . S
O22 Mg8 1.984 . S
O22 C24 1.280 . S
O23 Mg9 2.041 . S
O23 C27 1.277 . S
C24 O21 1.241 . S
C24 O22 1.280 . S
O25 Mg8 1.988 . S
O25 C27 1.245 . S
O26 C2 1.247 . S
O26 Mg8 2.061 . S
C27 O23 1.277 . S
C27 O25 1.245 . S
O28 C2 1.289 1_554 S
O28 Mg5 2.238 . S
O28 Mg6 2.109 . S
O29 Mg6 2.080 . S
O29 C11 1.245 1_554 S
O30 Mg9 2.038 . S
O30 C11 1.274 . S
C31 O43 1.241 . S
C31 O44 1.280 . S
C32 O45 1.277 . S
C32 O46 1.245 . S
C33 O57 1.247 . S
C33 O59 1.289 1_556 S
Mg34 O35 1.926 . S
Mg34 O44 1.984 . S
Mg34 O46 1.988 . S
Mg34 O47 2.061 . S
O35 Mg34 1.926 . S
O35 Mg36 1.986 . S
O35 Mg37 1.923 . S
Mg36 O35 1.986 . S
Mg36 O43 2.042 . S
Mg36 O45 2.041 . S
Mg36 O51 2.038 . S
Mg36 O59 2.238 . S
Mg37 O35 1.923 . S
Mg37 O38 1.910 1_554 S
Mg37 O48 2.104 1_554 S
Mg37 O50 2.077 1_554 S
Mg37 O59 2.109 . S
Mg37 O60 2.080 . S
O38 Mg37 1.910 1_556 S
O38 Mg39 1.926 . S
O38 Mg40 1.986 . S
Mg39 O38 1.926 . S
Mg39 O53 1.984 . S
Mg39 O56 1.988 . S
Mg39 O57 2.061 . S
Mg40 O38 1.986 . S
Mg40 O48 2.238 . S
Mg40 O52 2.042 . S
Mg40 O54 2.041 . S
Mg40 O61 2.038 . S
C41 O47 1.247 . S
C41 O48 1.289 1_554 S
C42 O60 1.245 1_556 S
C42 O61 1.274 . S
O43 C31 1.241 . S
O43 Mg36 2.042 . S
O44 C31 1.280 . S
O44 Mg34 1.984 . S
O45 C32 1.277 . S
O45 Mg36 2.041 . S
O46 C32 1.245 . S
O46 Mg34 1.988 . S
O47 Mg34 2.061 . S
O47 C41 1.247 . S
O48 Mg37 2.104 1_556 S
O48 Mg40 2.238 . S
O48 C41 1.289 1_556 S
C49 O50 1.245 1_554 S
C49 O51 1.274 . S
O50 Mg37 2.077 1_556 S
O50 C49 1.245 1_556 S
O51 Mg36 2.038 . S
O51 C49 1.274 . S
O52 Mg40 2.042 . S
O52 C55 1.241 . S
O53 Mg39 1.984 . S
O53 C55 1.280 . S
O54 Mg40 2.041 . S
O54 C58 1.277 . S
C55 O52 1.241 . S
C55 O53 1.280 . S
O56 Mg39 1.988 . S
O56 C58 1.245 . S
O57 C33 1.247 . S
O57 Mg39 2.061 . S
C58 O54 1.277 . S
C58 O56 1.245 . S
O59 C33 1.289 1_554 S
O59 Mg36 2.238 . S
O59 Mg37 2.109 . S
O60 Mg37 2.080 . S
O60 C42 1.245 1_554 S
O61 Mg40 2.038 . S
O61 C42 1.274 . S
C62 O74 1.241 . S
C62 O75 1.280 . S
C63 O76 1.277 . S
C63 O77 1.245 . S
C64 O88 1.247 . S
C64 O90 1.289 . S
Mg65 O66 1.926 . S
Mg65 O75 1.984 . S
Mg65 O77 1.988 . S
Mg65 O78 2.061 . S
O66 Mg65 1.926 . S
O66 Mg67 1.986 . S
O66 Mg68 1.917 . S
Mg67 O66 1.986 . S
Mg67 O74 2.042 . S
Mg67 O76 2.041 . S
Mg67 O82 2.038 . S
Mg67 O90 2.238 . S
Mg68 O66 1.917 . S
Mg68 O69 1.917 . S
Mg68 O79 2.106 . S
Mg68 O81 2.079 . S
Mg68 O90 2.106 . S
Mg68 O91 2.079 . S
O69 Mg68 1.917 . S
O69 Mg70 1.926 . S
O69 Mg71 1.986 . S
Mg70 O69 1.926 . S
Mg70 O84 1.984 . S
Mg70 O87 1.988 . S
Mg70 O88 2.061 . S
Mg71 O69 1.986 . S
Mg71 O79 2.238 . S
Mg71 O83 2.042 . S
Mg71 O85 2.041 . S
Mg71 O92 2.038 . S
C72 O78 1.247 . S
C72 O79 1.289 . S
C73 O91 1.245 . S
C73 O92 1.274 . S
O74 C62 1.241 . S
O74 Mg67 2.042 . S
O75 C62 1.280 . S
O75 Mg65 1.984 . S
O76 C63 1.277 . S
O76 Mg67 2.041 . S
O77 C63 1.245 . S
O77 Mg65 1.988 . S
O78 Mg65 2.061 . S
O78 C72 1.247 . S
O79 Mg68 2.106 . S
O79 Mg71 2.238 . S
O79 C72 1.289 . S
C80 O81 1.245 . S
C80 O82 1.274 . S
O81 Mg68 2.079 . S
O81 C80 1.245 . S
O82 Mg67 2.038 . S
O82 C80 1.274 . S
O83 Mg71 2.042 . S
O83 C86 1.241 . S
O84 Mg70 1.984 . S
O84 C86 1.280 . S
O85 Mg71 2.041 . S
O85 C89 1.277 . S
C86 O83 1.241 . S
C86 O84 1.280 . S
O87 Mg70 1.988 . S
O87 C89 1.245 . S
O88 C64 1.247 . S
O88 Mg70 2.061 . S
C89 O85 1.277 . S
C89 O87 1.245 . S
O90 C64 1.289 . S
O90 Mg67 2.238 . S
O90 Mg68 2.106 . S
O91 Mg68 2.079 . S
O91 C73 1.245 . S
O92 Mg71 2.038 . S
O92 C73 1.274 . S
C93 O105 1.241 . S
C93 O106 1.280 . S
C94 O107 1.277 . S
C94 O108 1.245 . S
C95 O119 1.247 . S
C95 O121 1.289 . S
Mg96 O97 1.926 . S
Mg96 O106 1.984 . S
Mg96 O108 1.988 . S
Mg96 O109 2.061 . S
O97 Mg96 1.926 . S
O97 Mg98 1.986 . S
O97 Mg99 1.917 . S
Mg98 O97 1.986 . S
Mg98 O105 2.042 . S
Mg98 O107 2.041 . S
Mg98 O113 2.038 . S
Mg98 O121 2.238 . S
Mg99 O97 1.917 . S
Mg99 O100 1.917 . S
Mg99 O110 2.106 . S
Mg99 O112 2.079 . S
Mg99 O121 2.106 . S
Mg99 O122 2.079 . S
O100 Mg99 1.917 . S
O100 Mg101 1.926 . S
O100 Mg102 1.986 . S
Mg101 O100 1.926 . S
Mg101 O115 1.984 . S
Mg101 O118 1.988 . S
Mg101 O119 2.061 . S
Mg102 O100 1.986 . S
Mg102 O110 2.238 . S
Mg102 O114 2.042 . S
Mg102 O116 2.041 . S
Mg102 O123 2.038 . S
C103 O109 1.247 . S
C103 O110 1.289 . S
C104 O122 1.245 . S
C104 O123 1.274 . S
O105 C93 1.241 . S
O105 Mg98 2.042 . S
O106 C93 1.280 . S
O106 Mg96 1.984 . S
O107 C94 1.277 . S
O107 Mg98 2.041 . S
O108 C94 1.245 . S
O108 Mg96 1.988 . S
O109 Mg96 2.061 . S
O109 C103 1.247 . S
O110 Mg99 2.106 . S
O110 Mg102 2.238 . S
O110 C103 1.289 . S
C111 O112 1.245 . S
C111 O113 1.274 . S
O112 Mg99 2.079 . S
O112 C111 1.245 . S
O113 Mg98 2.038 . S
O113 C111 1.274 . S
O114 Mg102 2.042 . S
O114 C117 1.241 . S
O115 Mg101 1.984 . S
O115 C117 1.280 . S
O116 Mg102 2.041 . S
O116 C120 1.277 . S
C117 O114 1.241 . S
C117 O115 1.280 . S
O118 Mg101 1.988 . S
O118 C120 1.245 . S
O119 C95 1.247 . S
O119 Mg101 2.061 . S
C120 O116 1.277 . S
C120 O118 1.245 . S
O121 C95 1.289 . S
O121 Mg98 2.238 . S
O121 Mg99 2.106 . S
O122 Mg99 2.079 . S
O122 C104 1.245 . S
O123 Mg102 2.038 . S
O123 C104 1.274 . S
C124 C125 1.387 . S
C124 H128 0.950 . S
C124 C133 1.390 . S
C125 C124 1.387 . S
C125 C127 1.387 1_556 S
H126 C133 0.950 . S
C127 C125 1.387 1_554 S
C127 C129 1.390 . S
C127 H131 0.950 . S
H128 C124 0.950 . S
C129 C127 1.390 . S
C129 C130 1.387 . S
C129 H132 0.950 . S
C130 C129 1.387 . S
C130 C133 1.387 1_554 S
H131 C127 0.950 . S
H132 C129 0.950 . S
C133 C124 1.390 . S
C133 H126 0.950 . S
C133 C130 1.387 1_556 S
C134 C135 1.387 . S
C134 H138 0.950 . S
C134 C143 1.390 . S
C135 C134 1.387 . S
C135 C137 1.387 1_556 S
H136 C143 0.950 . S
C137 C135 1.387 1_554 S
C137 C139 1.390 . S
C137 H141 0.950 . S
H138 C134 0.950 . S
C139 C137 1.390 . S
C139 C140 1.387 . S
C139 H142 0.950 . S
C140 C139 1.387 . S
C140 C143 1.387 1_554 S
H141 C137 0.950 . S
H142 C139 0.950 . S
C143 C134 1.390 . S
C143 H136 0.950 . S
C143 C140 1.387 1_556 S
C144 C145 1.387 . S
C144 H148 0.950 . S
C144 C153 1.390 . S
C145 C144 1.387 . S
C145 C147 1.387 . S
H146 C153 0.950 . S
C147 C145 1.387 . S
C147 C149 1.390 . S
C147 H151 0.950 . S
H148 C144 0.950 . S
C149 C147 1.390 . S
C149 C150 1.387 . S
C149 H152 0.950 . S
C150 C149 1.387 . S
C150 C153 1.387 . S
H151 C147 0.950 . S
H152 C149 0.950 . S
C153 C144 1.390 . S
C153 H146 0.950 . S
C153 C150 1.387 . S
C154 C155 1.387 . S
C154 H158 0.950 . S
C154 C163 1.390 . S
C155 C154 1.387 . S
C155 C157 1.387 . S
H156 C163 0.950 . S
C157 C155 1.387 . S
C157 C159 1.390 . S
C157 H161 0.950 . S
H158 C154 0.950 . S
C159 C157 1.390 . S
C159 C160 1.387 . S
C159 H162 0.950 . S
C160 C159 1.387 . S
C160 C163 1.387 . S
H161 C157 0.950 . S
H162 C159 0.950 . S
C163 C154 1.390 . S
C163 H156 0.950 . S
C163 C160 1.387 . S
C164 C165 1.381 1_556 S
C164 H168 0.950 . S
C164 C173 1.390 . S
C165 C164 1.381 1_554 S
C165 C167 1.394 . S
H166 C173 0.950 . S
C167 C165 1.394 . S
C167 C169 1.390 . S
C167 H171 0.950 . S
H168 C164 0.950 . S
C169 C167 1.390 . S
C169 C170 1.393 . S
C169 H172 0.950 . S
C170 C169 1.393 . S
C170 C173 1.382 1_554 S
H171 C167 0.950 . S
H172 C169 0.950 . S
C173 C164 1.390 . S
C173 H166 0.950 . S
C173 C170 1.382 1_556 S
C174 C175 1.387 . S
C174 H178 0.950 . S
C174 C183 1.390 . S
C175 C174 1.387 . S
C175 C177 1.387 . S
H176 C183 0.950 . S
C177 C175 1.387 . S
C177 C179 1.390 . S
C177 H181 0.950 . S
H178 C174 0.950 . S
C179 C177 1.390 . S
C179 C180 1.387 . S
C179 H182 0.950 . S
C180 C179 1.387 . S
C180 C183 1.387 . S
H181 C177 0.950 . S
H182 C179 0.950 . S
C183 C174 1.390 . S
C183 H176 0.950 . S
C183 C180 1.387 . S
C184 C185 1.381 1_556 S
C184 H188 0.950 . S
C184 C193 1.390 1_445 S
C185 C184 1.381 1_554 S
C185 C187 1.394 . S
H186 C193 0.950 . S
C187 C185 1.394 . S
C187 C189 1.390 1_445 S
C187 H191 0.950 . S
H188 C184 0.950 . S
C189 C187 1.390 1_665 S
C189 C190 1.393 . S
C189 H192 0.950 . S
C190 C189 1.393 . S
C190 C193 1.382 1_554 S
H191 C187 0.950 . S
H192 C189 0.950 . S
C193 C184 1.390 1_665 S
C193 H186 0.950 . S
C193 C190 1.382 1_556 S
C194 C195 1.387 . S
C194 H198 0.950 . S
C194 C203 1.390 1_645 S
C195 C194 1.387 . S
C195 C197 1.387 . S
H196 C203 0.950 . S
C197 C195 1.387 . S
C197 C199 1.390 1_645 S
C197 H201 0.950 . S
H198 C194 0.950 . S
C199 C197 1.390 1_465 S
C199 C200 1.387 . S
C199 H202 0.950 . S
C200 C199 1.387 . S
C200 C203 1.387 . S
H201 C197 0.950 . S
H202 C199 0.950 . S
C203 C194 1.390 1_465 S
C203 H196 0.950 . S
C203 C200 1.387 . S
C204 C205 1.387 . S
C204 H208 0.950 . S
C204 C213 1.390 . S
C205 C204 1.387 . S
C205 C207 1.387 . S
H206 C213 0.950 . S
C207 C205 1.387 . S
C207 C209 1.390 . S
C207 H211 0.950 . S
H208 C204 0.950 . S
C209 C207 1.390 . S
C209 C210 1.387 . S
C209 H212 0.950 . S
C210 C209 1.387 . S
C210 C213 1.387 . S
H211 C207 0.950 . S
H212 C209 0.950 . S
C213 C204 1.390 . S
C213 H206 0.950 . S
C213 C210 1.387 . S
C214 C215 1.387 . S
C214 H218 0.950 . S
C214 C223 1.390 . S
C215 C214 1.387 . S
C215 C217 1.387 . S
H216 C223 0.950 . S
C217 C215 1.387 . S
C217 C219 1.390 . S
C217 H221 0.950 . S
H218 C214 0.950 . S
C219 C217 1.390 . S
C219 C220 1.387 . S
C219 H222 0.950 . S
C220 C219 1.387 . S
C220 C223 1.387 . S
H221 C217 0.950 . S
H222 C219 0.950 . S
C223 C214 1.390 . S
C223 H216 0.950 . S
C223 C220 1.387 . S
C224 C225 1.387 . S
C224 H228 0.950 . S
C224 C233 1.390 . S
C225 C224 1.387 . S
C225 C227 1.387 . S
H226 C233 0.950 . S
C227 C225 1.387 . S
C227 C229 1.390 . S
C227 H231 0.950 . S
H228 C224 0.950 . S
C229 C227 1.390 . S
C229 C230 1.387 . S
C229 H232 0.950 . S
C230 C229 1.387 . S
C230 C233 1.387 . S
H231 C227 0.950 . S
H232 C229 0.950 . S
C233 C224 1.390 . S
C233 H226 0.950 . S
C233 C230 1.387 . S
C234 C235 1.387 . S
C234 H238 0.950 . S
C234 C243 1.390 . S
C235 C234 1.387 . S
C235 C237 1.387 . S
H236 C243 0.950 . S
C237 C235 1.387 . S
C237 C239 1.390 . S
C237 H241 0.950 . S
H238 C234 0.950 . S
C239 C237 1.390 . S
C239 C240 1.387 . S
C239 H242 0.950 . S
C240 C239 1.387 . S
C240 C243 1.387 . S
H241 C237 0.950 . S
H242 C239 0.950 . S
C243 C234 1.390 . S
C243 H236 0.950 . S
C243 C240 1.387 . S
C244 C245 1.387 . S
C244 H248 0.949 1_655 S
C244 C253 1.390 . S
C245 C244 1.387 . S
C245 C247 1.387 . S
H246 C253 0.950 . S
C247 C245 1.387 . S
C247 C249 1.390 . S
C247 H251 0.950 . S
H248 C244 0.949 1_455 S
C249 C247 1.390 . S
C249 C250 1.387 . S
C249 H252 0.950 . S
C250 C249 1.387 . S
C250 C253 1.387 . S
H251 C247 0.950 . S
H252 C249 0.950 . S
C253 C244 1.390 . S
C253 H246 0.950 . S
C253 C250 1.387 . S
C254 C255 1.387 . S
C254 H258 0.950 . S
C254 C263 1.390 . S
C255 C254 1.387 . S
C255 C257 1.387 1_655 S
H256 C263 0.950 . S
C257 C255 1.387 1_455 S
C257 C259 1.390 . S
C257 H261 0.950 . S
H258 C254 0.950 . S
C259 C257 1.390 . S
C259 C260 1.386 1_455 S
C259 H262 0.950 . S
C260 C259 1.386 1_655 S
C260 C263 1.390 . S
H261 C257 0.950 . S
H262 C259 0.950 . S
C263 C254 1.390 . S
C263 H256 0.950 . S
C263 C260 1.390 . S
C264 C265 1.387 . S
C264 H268 0.950 . S
C264 C273 1.390 . S
C265 C264 1.387 . S
C265 C267 1.387 . S
H266 C273 0.950 . S
C267 C265 1.387 . S
C267 C269 1.390 1_455 S
C267 H271 0.950 . S
H268 C264 0.950 . S
C269 C267 1.390 1_655 S
C269 C270 1.387 1_655 S
C269 H272 0.950 . S
C270 C269 1.387 1_455 S
C270 C273 1.389 . S
H271 C267 0.950 . S
H272 C269 0.950 . S
C273 C264 1.390 . S
C273 H266 0.950 . S
C273 C270 1.389 . S
C274 C275 1.387 . S
C274 H278 0.950 . S
C274 C283 1.390 . S
C275 C274 1.387 . S
C275 C277 1.387 1_455 S
H276 C283 0.950 . S
C277 C275 1.387 1_655 S
C277 C279 1.390 . S
C277 H281 0.950 . S
H278 C274 0.950 . S
C279 C277 1.390 . S
C279 C280 1.387 1_655 S
C279 H282 0.950 . S
C280 C279 1.387 1_455 S
C280 C283 1.387 . S
H281 C277 0.950 . S
H282 C279 0.950 . S
C283 C274 1.390 . S
C283 H276 0.950 . S
C283 C280 1.387 . S
C125 C11 1.803 . S
C130 C18 1.803 1_655 S
C135 C42 1.803 1_455 S
C140 C49 1.803 . S
C145 C73 1.801 . S
C150 C80 1.801 1_655 S
C155 C104 1.801 1_455 S
C160 C111 1.801 . S
C165 C41 1.655 . S
C170 C2 1.653 1_554 S
C175 C103 1.654 . S
C180 C64 1.654 . S
C185 C10 1.656 . S
C190 C33 1.653 1_554 S
C195 C95 1.655 . S
C200 C72 1.655 . S
C205 C93 1.162 . S
C210 C1 1.180 . S
C215 C31 1.162 . S
C220 C63 1.180 . S
C225 C86 1.168 . S
C230 C58 1.185 . S
C235 C24 1.162 . S
C240 C120 1.180 . S
C245 C62 1.168 1_655 S
C250 C32 1.185 . S
C255 C94 1.180 . S
C260 C0 1.157 1_655 S
C265 C27 1.180 . S
C270 C117 1.157 1_455 S
C275 C89 1.185 . S
C280 C55 1.168 1_455 S
