# Generated by pormake.
# Topology wkf, (6)-cn, num edge types: 1
# Building blocks:
#     Node 0, Type 0, BuildingBlock: KUMJIN_clean_sbu_1, # of connection points: 6
#     Node 1, Type 0, BuildingBlock: KUMJIN_clean_sbu_1, # of connection points: 6
#     Node 2, Type 0, BuildingBlock: KUMJIN_clean_sbu_1, # of connection points: 6
#     Node 3, Type 0, BuildingBlock: KUMJIN_clean_sbu_1, # of connection points: 6
#     Node 4, Type 0, BuildingBlock: KUMJIN_clean_sbu_1, # of connection points: 6
#     Node 5, Type 0, BuildingBlock: KUMJIN_clean_sbu_1, # of connection points: 6
#     Node 6, Type 0, BuildingBlock: KUMJIN_clean_sbu_1, # of connection points: 6
#     Node 7, Type 0, BuildingBlock: KUMJIN_clean_sbu_1, # of connection points: 6
#     Node 8, Type 0, BuildingBlock: KUMJIN_clean_sbu_1, # of connection points: 6
#     Node 9, Type 0, BuildingBlock: KUMJIN_clean_sbu_1, # of connection points: 6
#     Node 10, Type 0, BuildingBlock: KUMJIN_clean_sbu_1, # of connection points: 6
#     Node 11, Type 0, BuildingBlock: KUMJIN_clean_sbu_1, # of connection points: 6
#     Edge 12, Type (0, 0), BuildingBlock: ZUJKAS_clean_linker_0, # of connection points: 2
#     Edge 13, Type (0, 0), BuildingBlock: ZUJKAS_clean_linker_0, # of connection points: 2
#     Edge 14, Type (0, 0), BuildingBlock: ZUJKAS_clean_linker_0, # of connection points: 2
#     Edge 15, Type (0, 0), BuildingBlock: ZUJKAS_clean_linker_0, # of connection points: 2
#     Edge 16, Type (0, 0), BuildingBlock: ZUJKAS_clean_linker_0, # of connection points: 2
#     Edge 17, Type (0, 0), BuildingBlock: ZUJKAS_clean_linker_0, # of connection points: 2
#     Edge 18, Type (0, 0), BuildingBlock: ZUJKAS_clean_linker_0, # of connection points: 2
#     Edge 19, Type (0, 0), BuildingBlock: ZUJKAS_clean_linker_0, # of connection points: 2
#     Edge 20, Type (0, 0), BuildingBlock: ZUJKAS_clean_linker_0, # of connection points: 2
#     Edge 21, Type (0, 0), BuildingBlock: ZUJKAS_clean_linker_0, # of connection points: 2
#     Edge 22, Type (0, 0), BuildingBlock: ZUJKAS_clean_linker_0, # of connection points: 2
#     Edge 23, Type (0, 0), BuildingBlock: ZUJKAS_clean_linker_0, # of connection points: 2
#     Edge 24, Type (0, 0), BuildingBlock: ZUJKAS_clean_linker_0, # of connection points: 2
#     Edge 25, Type (0, 0), BuildingBlock: ZUJKAS_clean_linker_0, # of connection points: 2
#     Edge 26, Type (0, 0), BuildingBlock: ZUJKAS_clean_linker_0, # of connection points: 2
#     Edge 27, Type (0, 0), BuildingBlock: ZUJKAS_clean_linker_0, # of connection points: 2
#     Edge 28, Type (0, 0), BuildingBlock: ZUJKAS_clean_linker_0, # of connection points: 2
#     Edge 29, Type (0, 0), BuildingBlock: ZUJKAS_clean_linker_0, # of connection points: 2
#     Edge 30, Type (0, 0), BuildingBlock: ZUJKAS_clean_linker_0, # of connection points: 2
#     Edge 31, Type (0, 0), BuildingBlock: ZUJKAS_clean_linker_0, # of connection points: 2
#     Edge 32, Type (0, 0), BuildingBlock: ZUJKAS_clean_linker_0, # of connection points: 2
#     Edge 33, Type (0, 0), BuildingBlock: ZUJKAS_clean_linker_0, # of connection points: 2
#     Edge 34, Type (0, 0), BuildingBlock: ZUJKAS_clean_linker_0, # of connection points: 2
#     Edge 35, Type (0, 0), BuildingBlock: ZUJKAS_clean_linker_0, # of connection points: 2
#     Edge 36, Type (0, 0), BuildingBlock: ZUJKAS_clean_linker_0, # of connection points: 2
#     Edge 37, Type (0, 0), BuildingBlock: ZUJKAS_clean_linker_0, # of connection points: 2
#     Edge 38, Type (0, 0), BuildingBlock: ZUJKAS_clean_linker_0, # of connection points: 2
#     Edge 39, Type (0, 0), BuildingBlock: ZUJKAS_clean_linker_0, # of connection points: 2
#     Edge 40, Type (0, 0), BuildingBlock: ZUJKAS_clean_linker_0, # of connection points: 2
#     Edge 41, Type (0, 0), BuildingBlock: ZUJKAS_clean_linker_0, # of connection points: 2
#     Edge 42, Type (0, 0), BuildingBlock: ZUJKAS_clean_linker_0, # of connection points: 2
#     Edge 43, Type (0, 0), BuildingBlock: ZUJKAS_clean_linker_0, # of connection points: 2
#     Edge 44, Type (0, 0), BuildingBlock: ZUJKAS_clean_linker_0, # of connection points: 2
#     Edge 45, Type (0, 0), BuildingBlock: ZUJKAS_clean_linker_0, # of connection points: 2
#     Edge 46, Type (0, 0), BuildingBlock: ZUJKAS_clean_linker_0, # of connection points: 2
#     Edge 47, Type (0, 0), BuildingBlock: ZUJKAS_clean_linker_0, # of connection points: 2
# Relax obj value: 0.193
# Max RMSD: 0.281
# Mean RMSD: 0.276
data_MOF--net-wkf--node1-KUMJIN_clean_sbu_1--edge1-ZUJKAS_clean_linker_0
_symmetry_space_group_name_H-M    P1
_symmetry_Int_Tables_number       1
_symmetry_cell_setting            triclinic
loop_
_symmetry_equiv_pos_as_xyz
'x, y, z'
_cell_length_a     37.733911
_cell_length_b     37.834151
_cell_length_c     107.45981
_cell_angle_alpha  90.009019
_cell_angle_beta   89.977438
_cell_angle_gamma 119.58281
loop_
_atom_site_label
_atom_site_type_symbol
_atom_site_fract_x
_atom_site_fract_y
_atom_site_fract_z
_atom_type_partial_charge
Eu0 Eu 0.40312 0.97115 0.34969 0.0
C1 C 0.55607 0.96785 0.36299 0.0
N2 N 0.53227 0.96428 0.37289 0.0
C3 C 0.55277 0.92095 0.38321 0.0
C4 C 0.57964 0.94818 0.3629 0.0
C5 C 0.52978 0.9407 0.38286 0.0
C6 C 0.57804 0.92491 0.37322 0.0
C7 C 0.57838 0.99184 0.34202 0.0
C8 C 0.55509 0.98925 0.35266 0.0
C9 C 0.6028 0.97339 0.34204 0.0
C10 C 0.6033 0.95148 0.35244 0.0
Eu11 Eu 0.49581 1.00023 0.37217 0.0
N12 N 0.52995 1.00561 0.35274 0.0
C13 C 0.57583 1.01209 0.33151 0.0
C14 C 0.52602 0.02334 0.34214 0.0
C15 C 0.54937 0.0277 0.33156 0.0
H16 H 0.5093 0.93617 0.39047 0.0
H17 H 0.54621 0.04241 0.32333 0.0
H18 H 0.45763 0.95332 0.32696 0.0
H19 H 0.34227 0.07571 0.34877 0.0
H20 H 0.50421 0.03321 0.34139 0.0
H21 H 0.59331 1.01487 0.3232 0.0
H22 H 0.35698 0.02496 0.35796 0.0
H23 H 0.5506 0.9023 0.39112 0.0
H24 H 0.6208 0.97522 0.33396 0.0
H25 H 0.62162 0.93668 0.35223 0.0
H26 H 0.48199 0.97604 0.30598 0.0
H27 H 0.59553 0.90924 0.37346 0.0
H28 H 0.36379 0.0995 0.32724 0.0
N29 N 0.43269 0.99281 0.32956 0.0
C30 C 0.42363 1.0196 0.32381 0.0
C31 C 0.46596 0.98883 0.31092 0.0
C32 C 0.43685 0.03291 0.31151 0.0
C33 C 0.45226 0.97633 0.32306 0.0
C34 C 0.45858 1.01749 0.30516 0.0
N35 N 0.38908 1.02154 0.34207 0.0
C36 C 0.36806 0.03604 0.34872 0.0
C37 C 0.39212 0.06236 0.32446 0.0
C38 C 0.40092 0.0339 0.33014 0.0
C39 C 0.37095 0.07754 0.33128 0.0
C40 C 0.35899 0.06441 0.34347 0.0
H41 H 0.46919 0.02699 0.29573 0.0
H42 H 0.43767 0.07131 0.29642 0.0
H43 H 0.39893 0.09735 0.30779 0.0
O44 O 0.33639 0.94119 0.34951 0.0
O45 O 0.39397 0.99747 0.36811 0.0
O46 O 0.45771 0.02838 0.37752 0.0
O47 O 0.36631 0.92588 0.33536 0.0
O48 O 0.38457 0.92925 0.36678 0.0
O49 O 0.43591 0.95726 0.38175 0.0
O50 O 0.55195 0.04832 0.38077 0.0
O51 O 0.46291 0.93387 0.36684 0.0
O52 O 0.44133 0.9381 0.34736 0.0
O53 O 0.50806 0.99884 0.39183 0.0
O54 O 0.50449 0.05872 0.36282 0.0
O55 O 0.44736 0.04119 0.35048 0.0
C56 C 0.42075 0.02298 0.37628 0.0
C57 C 0.30363 0.92298 0.3296 0.0
C58 C 0.25632 0.89341 0.31184 0.0
C59 C 0.24884 0.92629 0.31244 0.0
C60 C 0.29394 0.95436 0.33004 0.0
C61 C 0.26746 0.95635 0.32144 0.0
C62 C 0.28467 0.89234 0.32034 0.0
C63 C 0.39824 0.93127 0.37827 0.0
C64 C 0.3317 0.92147 0.33916 0.0
C65 C 0.42767 0.06084 0.30583 0.0
C66 C 0.40545 0.07554 0.31229 0.0
C67 C 0.45405 0.92026 0.35544 0.0
C68 C 0.5367 0.06347 0.40086 0.0
C69 C 0.56678 0.13075 0.41033 0.0
C70 C 0.53043 0.1187 0.41694 0.0
C71 C 0.50053 0.05206 0.40759 0.0
C72 C 0.56963 0.10287 0.40228 0.0
C73 C 0.49759 0.07952 0.41558 0.0
C74 C 0.48241 0.06874 0.35554 0.0
C75 C 0.53938 0.03501 0.39199 0.0
H76 H 0.22812 0.92862 0.30595 0.0
H77 H 0.3062 0.97722 0.33719 0.0
H78 H 0.26079 0.98106 0.32188 0.0
H79 H 0.29091 0.86731 0.32001 0.0
H80 H 0.52754 0.13933 0.42331 0.0
H81 H 0.47422 1.02204 0.40663 0.0
H82 H 0.59721 0.11198 0.39695 0.0
H83 H 0.46968 0.0704 0.42069 0.0
Eu84 Eu 0.46137 0.38051 0.51962 0.0
C85 C 0.62352 0.52781 0.53612 0.0
N86 N 0.59177 0.49638 0.54215 0.0
C87 C 0.63857 0.48403 0.55394 0.0
C88 C 0.66411 0.53765 0.53861 0.0
C89 C 0.59889 0.47534 0.55122 0.0
C90 C 0.67129 0.51529 0.54763 0.0
C91 C 0.64806 0.58327 0.52113 0.0
C92 C 0.61568 0.55082 0.52752 0.0
C93 C 0.68832 0.59251 0.52348 0.0
C94 C 0.69631 0.56984 0.5322 0.0
Eu95 Eu 0.52717 0.48907 0.53754 0.0
N96 N 0.57644 0.54105 0.52521 0.0
C97 C 0.63896 0.60531 0.51246 0.0
C98 C 0.56731 0.56283 0.517 0.0
C99 C 0.59844 0.59509 0.51041 0.0
H100 H 0.57459 0.45301 0.55684 0.0
H101 H 0.5912 0.6122 0.50382 0.0
H102 H 0.36737 0.36349 0.51354 0.0
H103 H 0.506 0.27043 0.53499 0.0
H104 H 0.53604 0.55536 0.51556 0.0
H105 H 0.663 0.63035 0.50735 0.0
H106 H 0.51508 0.3329 0.52474 0.0
H107 H 0.64396 0.46724 0.56115 0.0
H108 H 0.71354 0.6172 0.51861 0.0
H109 H 0.7276 0.57753 0.53395 0.0
H110 H 0.296 0.31375 0.51893 0.0
H111 H 0.70203 0.5225 0.55001 0.0
H112 H 0.43861 0.22052 0.54353 0.0
N113 N 0.39219 0.33199 0.52329 0.0
C114 C 0.38443 0.29797 0.52963 0.0
C115 C 0.32061 0.30906 0.52208 0.0
C116 C 0.34432 0.26857 0.53286 0.0
C117 C 0.36097 0.33715 0.51903 0.0
C118 C 0.31227 0.27489 0.52919 0.0
N119 N 0.45407 0.31933 0.52804 0.0
C120 C 0.48568 0.31147 0.52858 0.0
C121 C 0.40974 0.2552 0.5379 0.0
C122 C 0.41656 0.29147 0.53213 0.0
C123 C 0.44259 0.24808 0.53918 0.0
C124 C 0.48062 0.27609 0.53433 0.0
H125 H 0.28098 0.25304 0.53148 0.0
H126 H 0.30693 0.21053 0.54192 0.0
H127 H 0.36436 0.19878 0.54634 0.0
O128 O 0.45161 0.33574 0.50527 0.0
O129 O 0.42268 0.38781 0.53492 0.0
O130 O 0.46409 0.44895 0.54525 0.0
O131 O 0.46844 0.397 0.49979 0.0
O132 O 0.51086 0.39295 0.53367 0.0
O133 O 0.50811 0.43196 0.54913 0.0
O134 O 0.51458 0.53719 0.54354 0.0
O135 O 0.5477 0.47734 0.51851 0.0
O136 O 0.53168 0.41136 0.51968 0.0
O137 O 0.55602 0.52515 0.5541 0.0
O138 O 0.47901 0.4908 0.52518 0.0
O139 O 0.43819 0.42656 0.51627 0.0
C140 C 0.42932 0.41515 0.54364 0.0
C141 C 0.42838 0.34246 0.48554 0.0
C142 C 0.4007 0.29483 0.46784 0.0
C143 C 0.3703 0.30586 0.46651 0.0
C144 C 0.39742 0.35236 0.48397 0.0
C145 C 0.36878 0.33429 0.47447 0.0
C146 C 0.43002 0.31375 0.47741 0.0
C147 C 0.50621 0.39807 0.54545 0.0
C148 C 0.45776 0.36013 0.49599 0.0
C149 C 0.33748 0.23333 0.53924 0.0
C150 C 0.37017 0.22665 0.54176 0.0
C151 C 0.55839 0.44936 0.51689 0.0
C152 C 0.50803 0.53441 0.56536 0.0
C153 C 0.47261 0.55531 0.58006 0.0
C154 C 0.45757 0.51786 0.58624 0.0
C155 C 0.4923 0.49699 0.57163 0.0
C156 C 0.49784 0.56332 0.56955 0.0
C157 C 0.4672 0.48884 0.58199 0.0
C158 C 0.44671 0.46455 0.51874 0.0
C159 C 0.53323 0.54203 0.55413 0.0
H160 H 0.34772 0.29274 0.45919 0.0
H161 H 0.39521 0.37385 0.49013 0.0
H162 H 0.34509 0.34225 0.47331 0.0
H163 H 0.45348 0.3055 0.47872 0.0
H164 H 0.43889 0.51123 0.5945 0.0
H165 H 0.49928 0.47389 0.56852 0.0
H166 H 0.50914 0.59171 0.56452 0.0
H167 H 0.45531 0.46 0.58676 0.0
Eu168 Eu 0.09455 0.4627 0.68473 0.0
C169 C 0.06868 0.60127 0.70238 0.0
N170 N 0.08064 0.58388 0.71125 0.0
C171 C 0.11766 0.64784 0.72186 0.0
C172 C 0.08085 0.64307 0.703 0.0
C173 C 0.10499 0.60647 0.72089 0.0
C174 C 0.10546 0.66622 0.71289 0.0
C175 C 1.0323 0.59548 0.68323 0.0
C176 C 0.04496 0.57755 0.69253 0.0
C177 C 0.044 0.63687 0.68392 0.0
C178 C 0.06831 0.66061 0.69374 0.0
Eu179 Eu 0.0552 0.51314 0.7097 0.0
N180 N 0.03467 0.5375 0.69192 0.0
C181 C 1.00815 0.57143 0.67346 0.0
C182 C 1.0118 0.51455 0.68208 0.0
C183 C 0.99782 0.53081 0.67291 0.0
H184 H 0.11569 0.59288 0.7277 0.0
H185 H 0.97995 0.5121 0.66519 0.0
H186 H 0.10312 0.55542 0.67402 0.0
H187 H 1.001 0.31082 0.66622 0.0
H188 H 1.00539 0.48422 0.6806 0.0
H189 H 0.99778 0.58404 0.6662 0.0
H190 H 0.04359 0.3624 0.68193 0.0
H191 H 0.13712 0.66558 0.72947 0.0
H192 H 0.0345 0.65088 0.67685 0.0
H193 H 0.07729 0.69258 0.6941 0.0
H194 H 0.08667 0.57966 0.65541 0.0
H195 H 0.11545 0.69836 0.71364 0.0
H196 H 0.98184 0.33235 0.64681 0.0
N197 N 0.0743 0.49282 0.66851 0.0
C198 C 0.0512 0.46592 0.65941 0.0
C199 C 0.07678 0.54762 0.65636 0.0
C200 C 0.03996 0.4792 0.64856 0.0
C201 C 0.08682 0.53332 0.66702 0.0
C202 C 0.05327 0.52053 0.64711 0.0
N203 N 0.0487 0.41195 0.67132 0.0
C204 C 0.03555 0.37177 0.67339 0.0
C205 C 1.01383 0.39627 0.65169 0.0
C206 C 0.0383 0.42465 0.66085 0.0
C207 C 1.00066 0.35498 0.65363 0.0
C208 C 1.01136 0.34267 0.66457 0.0
H209 H 0.04529 0.53182 0.63892 0.0
H210 H 1.00717 0.46088 0.63106 0.0
H211 H 0.98417 0.38836 0.63385 0.0
O212 O 0.12792 0.429 0.6845 0.0
O213 O 0.06441 0.41812 0.70096 0.0
O214 O 0.04793 0.45283 0.71583 0.0
O215 O 0.13375 0.4662 0.66887 0.0
O216 O 0.13383 0.48218 0.70232 0.0
O217 O 0.10929 0.50939 0.71733 0.0
O218 O 1.00083 0.50665 0.71943 0.0
O219 O 0.11727 0.55989 0.70212 0.0
O220 O 0.13786 0.53215 0.68622 0.0
O221 O 0.05647 0.52622 0.72943 0.0
O222 O 1.00074 0.4573 0.70131 0.0
O223 O 1.02409 0.42677 0.68716 0.0
C224 C 0.05048 0.42112 0.71202 0.0
C225 C 0.14305 0.40867 0.66499 0.0
C226 C 0.1709 0.3886 0.64718 0.0
C227 C 0.14365 0.34766 0.6501 0.0
C228 C 0.11846 0.36732 0.66793 0.0
C229 C 0.11802 0.33726 0.66038 0.0
C230 C 0.16962 0.41926 0.65454 0.0
C231 C 0.13506 0.49759 0.71348 0.0
C232 C 0.14332 0.44031 0.67344 0.0
C233 C 1.01594 0.45101 0.63941 0.0
C234 C 1.00289 0.40971 0.64097 0.0
C235 C 0.14296 0.56321 0.69327 0.0
C236 C 0.99632 0.48241 0.74011 0.0
C237 C 0.93734 0.44563 0.75374 0.0
C238 C 0.9567 0.426 0.7593 0.0
C239 C 1.01488 0.4621 0.74577 0.0
C240 C 0.95742 0.47375 0.74406 0.0
C241 C 0.99516 0.43426 0.75532 0.0
C242 C 0.99431 0.42774 0.6935 0.0
C243 C 1.01783 0.51325 0.73033 0.0
H244 H 0.14248 0.3233 0.6445 0.0
H245 H 0.09982 0.35789 0.67621 0.0
H246 H 0.09819 0.30556 0.66266 0.0
H247 H 0.19014 0.45099 0.65246 0.0
H248 H 0.94257 0.40488 0.76692 0.0
H249 H 0.04488 0.46804 0.74295 0.0
H250 H 0.94291 0.48895 0.73957 0.0
H251 H 1.01 0.41946 0.75981 0.0
Eu252 Eu 0.66702 0.0715 0.84976 0.0
C253 C 0.51595 0.07671 0.86166 0.0
N254 N 0.54066 0.08229 0.87146 0.0
C255 C 0.52124 0.12735 0.88105 0.0
C256 C 0.49209 0.09599 0.86128 0.0
C257 C 0.54434 0.10771 0.88098 0.0
C258 C 0.49459 0.12107 0.87122 0.0
C259 C 0.49089 0.04771 0.84131 0.0
C260 C 0.5156 0.05283 0.8518 0.0
C261 C 0.46637 0.06605 0.84103 0.0
C262 C 0.46686 0.09 0.851 0.0
Eu263 Eu 0.57369 0.04356 0.87193 0.0
N264 N 0.54 0.03561 0.85231 0.0
C265 C 0.49152 0.02439 0.83134 0.0
C266 C 0.54121 1.01378 0.84234 0.0
C267 C 0.51686 1.00748 0.83186 0.0
H268 H 0.5656 0.11306 0.88844 0.0
H269 H 0.51806 0.98985 0.8241 0.0
H270 H 0.60732 0.08252 0.8272 0.0
H271 H 0.73468 0.97316 0.84963 0.0
H272 H 0.56126 1.00167 0.84201 0.0
H273 H 0.47296 1.01968 0.82315 0.0
H274 H 0.71873 0.02422 0.85811 0.0
H275 H 0.52402 0.1473 0.88866 0.0
H276 H 0.44711 0.06213 0.83307 0.0
H277 H 0.44797 0.10417 0.85061 0.0
H278 H 0.58107 0.05598 0.80666 0.0
H279 H 0.47654 0.13616 0.87131 0.0
H280 H 0.71015 0.94431 0.8287 0.0
N281 N 0.63518 0.04569 0.83009 0.0
C282 C 0.64497 1.01906 0.82458 0.0
C283 C 0.59869 0.04505 0.81164 0.0
C284 C 0.6304 1.00331 0.81257 0.0
C285 C 0.61362 0.05985 0.82353 0.0
C286 C 0.60672 1.01638 0.80619 0.0
N287 N 0.68304 1.02222 0.84252 0.0
C288 C 0.7064 1.01062 0.84919 0.0
C289 C 0.67904 0.9787 0.82559 0.0
C290 C 0.66967 1.00723 0.83091 0.0
C291 C 0.70245 0.96624 0.83246 0.0
C292 C 0.71614 0.98224 0.84431 0.0
H293 H 0.59505 1.00502 0.79697 0.0
H294 H 0.62908 0.96296 0.79803 0.0
H295 H 0.67122 0.9411 0.80949 0.0
O296 O 0.73366 0.10073 0.84828 0.0
O297 O 0.6756 0.04626 0.86847 0.0
O298 O 0.61328 1.01885 0.87896 0.0
O299 O 0.70167 0.11906 0.83581 0.0
O300 O 0.68619 0.11142 0.86733 0.0
O301 O 0.63216 0.0907 0.8814 0.0
O302 O 0.51332 0.99964 0.87902 0.0
O303 O 0.60735 0.10971 0.8662 0.0
O304 O 0.62887 0.10401 0.8469 0.0
O305 O 0.55949 0.03994 0.89179 0.0
O306 O 0.56825 0.98469 0.86395 0.0
O307 O 0.62402 1.00186 0.85105 0.0
C308 C 0.65033 0.02443 0.87757 0.0
C309 C 0.76157 0.12087 0.82776 0.0
C310 C 0.8007 0.14953 0.80841 0.0
C311 C 0.80628 0.11558 0.8075 0.0
C312 C 0.76937 0.08832 0.82666 0.0
C313 C 0.79099 0.08547 0.81658 0.0
C314 C 0.77813 0.15213 0.81861 0.0
C315 C 0.671 0.11359 0.87827 0.0
C316 C 0.73662 0.12206 0.83844 0.0
C317 C 0.64014 0.97531 0.80722 0.0
C318 C 0.66427 0.96297 0.81372 0.0
C319 C 0.61731 0.12312 0.85481 0.0
C320 C 0.49031 1.01622 0.8975 0.0
C321 C 0.41985 0.9847 0.90476 0.0
C322 C 0.42943 1.02024 0.91146 0.0
C323 C 0.49974 0.05061 0.90479 0.0
C324 C 0.45042 0.98338 0.89763 0.0
C325 C 0.4692 0.05294 0.91146 0.0
C326 C 0.59029 0.97459 0.85671 0.0
C327 C 0.52169 1.01203 0.89048 0.0
H328 H 0.82349 0.11283 0.79985 0.0
H329 H 0.75916 0.06499 0.83365 0.0
H330 H 0.79628 0.0599 0.81588 0.0
H331 H 0.77333 0.17801 0.81939 0.0
H332 H 0.40645 0.02239 0.91692 0.0
H333 H 0.53064 0.07549 0.90551 0.0
H334 H 0.44384 0.95589 0.89264 0.0
H335 H 0.47659 0.07978 0.91691 0.0
Eu336 Eu 0.59473 0.63732 0.01684 0.0
C337 C 0.45316 0.47826 0.03331 0.0
N338 N 0.47143 0.5062 0.04246 0.0
C339 C 0.40689 0.48357 0.05252 0.0
C340 C 0.4105 0.45188 0.03344 0.0
C341 C 0.44907 0.50906 0.05205 0.0
C342 C 0.38748 0.45494 0.04315 0.0
C343 C 0.45813 0.44622 0.01438 0.0
C344 C 0.47694 0.47613 0.02376 0.0
C345 C 0.41579 0.42017 0.01448 0.0
C346 C 0.39202 0.42316 0.02393 0.0
Eu347 Eu 0.54295 0.54791 0.04131 0.0
N348 N 0.51803 0.50256 0.02367 0.0
C349 C 0.48231 0.44277 1.00518 0.0
C350 C 0.54134 0.4989 0.01449 0.0
C351 C 0.52408 0.46896 1.00532 0.0
H352 H 0.46352 0.53211 0.05913 0.0
H353 H 0.54308 0.4669 0.99813 0.0
H354 H 0.50217 0.55258 1.00679 0.0
H355 H 0.74604 0.69807 0.9973 0.0
H356 H 0.5731 0.51931 0.01353 0.0
H357 H 0.46903 0.4201 0.9979 0.0
H358 H 0.69457 0.68949 0.01314 0.0
H359 H 0.38933 0.48638 0.06004 0.0
H360 H 0.4011 0.39741 1.00729 0.0
H361 H 0.35937 0.4028 0.02387 0.0
H362 H 0.47782 0.51043 0.98853 0.0
H363 H 0.35472 0.43535 0.04351 0.0
H364 H 0.72492 0.6535 0.97876 0.0
N365 N 0.56482 0.58541 1.00117 0.0
C366 C 0.59174 0.58826 0.99214 0.0
C367 C 0.50993 0.53236 0.98938 0.0
C368 C 0.57849 0.56256 0.98157 0.0
C369 C 0.52428 0.55753 0.99983 0.0
C370 C 0.53709 0.53465 0.98027 0.0
N371 N 0.64544 0.64208 1.00332 0.0
C372 C 0.68533 0.67073 1.00489 0.0
C373 C 0.66128 0.6205 0.98412 0.0
C374 C 0.6329 0.61722 0.99326 0.0
C375 C 0.70232 0.65004 0.9856 0.0
C376 C 0.71439 0.67533 0.99603 0.0
H377 H 0.52579 0.51462 0.97228 0.0
H378 H 0.5969 0.54613 0.9644 0.0
H379 H 0.66931 0.59661 0.96668 0.0
O380 O 0.6284 0.70389 0.01655 0.0
O381 O 0.63859 0.65126 0.03335 0.0
O382 O 0.60361 0.59903 0.04774 0.0
O383 O 0.59161 0.67261 1.00085 0.0
O384 O 0.57403 0.65709 0.03425 0.0
O385 O 0.54898 0.60612 0.04937 0.0
O386 O 0.54869 0.49947 0.05086 0.0
O387 O 0.49746 0.56632 0.03412 0.0
O388 O 0.52498 0.61255 0.01782 0.0
O389 O 0.52896 0.53527 0.06099 0.0
O390 O 0.59888 0.54872 0.03278 0.0
O391 O 0.63241 0.60421 0.01951 0.0
C392 C 0.63534 0.63336 0.04424 0.0
C393 C 0.64925 0.73867 0.99696 0.0
C394 C 0.66935 0.7812 0.97801 0.0
C395 C 0.71031 0.79801 0.98163 0.0
C396 C 0.69053 0.75799 1.00048 0.0
C397 C 0.72067 0.78671 0.99278 0.0
C398 C 0.63869 0.75122 0.98575 0.0
C399 C 0.55984 0.64327 0.04552 0.0
C400 C 0.61742 0.70782 1.00541 0.0
C401 C 0.60673 0.56574 0.9725 0.0
C402 C 0.64796 0.59452 0.97379 0.0
C403 C 0.49402 0.58813 0.02513 0.0
C404 C 0.57523 0.52071 0.07123 0.0
C405 C 0.62204 0.50449 0.08214 0.0
C406 C 0.63666 0.54037 0.0891 0.0
C407 C 0.59064 0.55688 0.07823 0.0
C408 C 0.5914 0.49484 0.07319 0.0
C409 C 0.62104 0.56644 0.0871 0.0
C410 C 0.62974 0.57203 0.02538 0.0
C411 C 0.54289 0.5103 0.06181 0.0
H412 H 0.73443 0.82111 0.97598 0.0
H413 H 0.69979 0.75136 0.00929 0.0
H414 H 0.75231 0.80084 0.99558 0.0
H415 H 0.60696 0.73795 0.98309 0.0
H416 H 0.66003 0.54809 0.09609 0.0
H417 H 0.57925 0.57787 0.0769 0.0
H418 H 0.5795 0.46673 0.06796 0.0
H419 H 0.6323 0.59401 0.09253 0.0
Eu420 Eu 0.98364 0.5946 0.18263 0.0
C421 C 0.99501 0.44462 0.19785 0.0
N422 N 0.98883 0.4643 0.20739 0.0
C423 C 0.95248 0.40159 0.21868 0.0
C424 C 0.98058 0.40237 0.19844 0.0
C425 C 0.96717 0.44337 0.21764 0.0
C426 C 0.95954 0.38103 0.20908 0.0
C427 C 1.01855 0.44603 0.17682 0.0
C428 C 1.01367 0.4663 0.18718 0.0
C429 C 1.00569 0.40436 0.17754 0.0
C430 C 0.98665 0.38255 0.18832 0.0
Eu431 Eu 1.01712 0.5355 0.20569 0.0
N432 N 1.02471 0.50642 0.18665 0.0
C433 C 0.03513 0.46788 0.16587 0.0
C434 C 0.03831 0.52674 0.17565 0.0
C435 C 0.04463 0.50832 0.16525 0.0
H436 H 0.96037 0.45858 0.22498 0.0
H437 H 0.05616 0.52521 0.15668 0.0
H438 H 0.96708 0.52395 0.15974 0.0
H439 H 0.08432 0.75915 0.18206 0.0
H440 H 0.04334 0.55674 0.17453 0.0
H441 H 0.03946 0.4535 0.15774 0.0
H442 H 0.03481 0.6933 0.19112 0.0
H443 H 0.93542 0.38523 0.22683 0.0
H444 H 1.00945 0.38852 0.16969 0.0
H445 H 0.976 0.35021 0.18865 0.0
H446 H 0.99027 0.52318 0.13868 0.0
H447 H 0.94787 0.34859 0.20986 0.0
H448 H 0.109 0.7625 0.16055 0.0
N449 N 1.00586 0.58787 0.16245 0.0
C450 C 1.03215 0.62372 0.15678 0.0
C451 C 1.00262 0.55162 0.14371 0.0
C452 C 0.04562 0.62438 0.14446 0.0
C453 C 0.9899 0.55228 0.15587 0.0
C454 C 1.03085 0.58771 0.13801 0.0
N455 N 1.03303 0.65903 0.17516 0.0
C456 C 0.0462 0.69401 0.18187 0.0
C457 C 0.0735 0.6975 0.15763 0.0
C458 C 0.04571 0.66017 0.16323 0.0
C459 C 0.08758 0.73332 0.16453 0.0
C460 C 0.0739 0.73154 0.1767 0.0
H461 H 0.04047 0.58702 0.12856 0.0
H462 H 0.08359 0.66246 0.12943 0.0
H463 H 0.10822 0.72633 0.14099 0.0
O464 O 0.95416 0.63195 0.18105 0.0
O465 O 1.00552 0.62824 0.20143 0.0
O466 O 0.04464 0.60221 0.2098 0.0
O467 O 0.93436 0.58043 0.1691 0.0
O468 O 0.9422 0.57249 0.19987 0.0
O469 O 0.96911 0.54705 0.21462 0.0
O470 O 0.06628 0.53096 0.21527 0.0
O471 O 0.95112 0.49877 0.20002 0.0
O472 O 0.95372 0.52411 0.18051 0.0
O473 O 1.01577 0.52696 0.22566 0.0
O474 O 0.07439 0.58441 0.19577 0.0
O475 O 0.05436 0.6215 0.18313 0.0
C476 C 1.0336 0.63003 0.20922 0.0
C477 C 0.932 0.63763 0.16063 0.0
C478 C 0.9009 0.64691 0.14161 0.0
C479 C 0.93517 0.68553 0.14009 0.0
C480 C 0.96496 0.67713 0.15896 0.0
C481 C 0.96674 0.70053 0.14873 0.0
C482 C 0.89939 0.62274 0.15193 0.0
C483 C 0.94291 0.55876 0.21116 0.0
C484 C 0.93173 0.6127 0.17149 0.0
C485 C 0.073 0.66155 0.13887 0.0
C486 C 0.08692 0.69795 0.14543 0.0
C487 C 0.93737 0.49367 0.1886 0.0
C488 C 0.08023 0.56581 0.23467 0.0
C489 C 0.1477 0.60805 0.24354 0.0
C490 C 0.13298 0.62972 0.25037 0.0
C491 C 0.06607 0.58818 0.24154 0.0
C492 C 0.12129 0.5762 0.23567 0.0
C493 C 0.09233 0.61983 0.24932 0.0
C494 C 0.08303 0.61513 0.18811 0.0
C495 C 0.05251 0.53267 0.22625 0.0
H496 H 0.93707 0.70457 0.1323 0.0
H497 H 0.98943 0.6904 0.16561 0.0
H498 H 0.99262 0.7307 0.14756 0.0
H499 H 0.87321 0.59275 0.15315 0.0
H500 H 0.15298 0.65433 0.25648 0.0
H501 H 0.0347 0.58145 0.24092 0.0
H502 H 0.13258 0.55919 0.23049 0.0
H503 H 0.08107 0.63665 0.25456 0.0
Eu504 Eu 0.08879 0.63682 0.50146 0.0
C505 C 0.09025 0.49134 0.4849 0.0
N506 N 0.09493 0.51703 0.47547 0.0
C507 C 0.14481 0.50401 0.46586 0.0
C508 C 0.11324 0.47109 0.48521 0.0
C509 C 0.1216 0.52354 0.46597 0.0
C510 C 0.14074 0.47777 0.47556 0.0
C511 C 0.05586 0.45712 0.50385 0.0
C512 C 0.06211 0.48492 0.49414 0.0
C513 C 0.07948 0.43784 0.50439 0.0
C514 C 0.10792 0.44463 0.49506 0.0
Eu515 Eu 0.05685 0.55119 0.47623 0.0
N516 N 0.03927 0.50375 0.49328 0.0
C517 C 1.02479 0.44793 0.51243 0.0
C518 C 1.00636 0.49138 0.50105 0.0
C519 C 0.99929 0.46429 0.51081 0.0
H520 H 0.12602 0.54491 0.45866 0.0
H521 H 0.97372 0.45572 0.51703 0.0
H522 H 0.06457 0.54785 0.51701 0.0
H523 H 1.02604 0.73828 0.50789 0.0
H524 H 0.98422 0.50079 0.49992 0.0
H525 H 1.019 0.42674 0.51998 0.0
H526 H 0.06365 0.70958 0.49685 0.0
H527 H 0.1662 0.50964 0.45839 0.0
H528 H 0.07511 0.41666 0.51181 0.0
H529 H 0.1251 0.42866 0.4954 0.0
H530 H 1.02924 0.51354 0.53609 0.0
H531 H 0.15898 0.46287 0.47551 0.0
H532 H 0.99316 0.70946 0.52812 0.0
N533 N 0.0508 0.59604 0.51864 0.0
C534 C 1.03266 0.61261 0.52577 0.0
C535 C 1.02984 0.54129 0.53326 0.0
C536 C 1.0118 0.59341 0.53682 0.0
C537 C 0.04982 0.56098 0.52231 0.0
C538 C 1.01083 0.55755 0.54055 0.0
N539 N 0.05163 0.66487 0.51068 0.0
C540 C 0.04872 0.6964 0.50558 0.0
C541 C 1.01142 0.66343 0.52827 0.0
C542 C 1.03285 0.64772 0.52163 0.0
C543 C 1.00944 0.69664 0.5233 0.0
C544 C 1.0278 0.7129 0.51185 0.0
H545 H 0.99521 0.54199 0.54899 0.0
H546 H 0.97596 0.59577 0.55223 0.0
H547 H 0.97529 0.65672 0.54468 0.0
O548 O 0.11979 0.69633 0.51106 0.0
O549 O 0.06632 0.65477 0.4837 0.0
O550 O 1.03298 0.59425 0.47234 0.0
O551 O 0.14748 0.65899 0.51094 0.0
O552 O 0.12425 0.66309 0.48319 0.0
O553 O 0.10642 0.6114 0.46847 0.0
O554 O 1.00934 0.49927 0.46583 0.0
O555 O 0.12284 0.58202 0.48287 0.0
O556 O 0.11285 0.59127 0.50304 0.0
O557 O 0.06146 0.54534 0.45625 0.0
O558 O 0.99986 0.54943 0.48484 0.0
O559 O 1.01875 0.59621 0.50097 0.0
C560 C 0.04103 0.6316 0.47477 0.0
C561 C 0.15426 0.69549 0.52958 0.0
C562 C 0.18678 0.73482 0.54863 0.0
C563 C 0.16381 0.6992 0.55562 0.0
C564 C 0.13311 0.66065 0.53699 0.0
C565 C 0.13733 0.66263 0.54986 0.0
C566 C 0.18124 0.73305 0.53548 0.0
C567 C 0.12794 0.64975 0.47207 0.0
C568 C 0.14846 0.69104 0.51578 0.0
C569 C 0.99194 0.61008 0.5437 0.0
C570 C 0.99163 0.64486 0.53942 0.0
C571 C 0.13396 0.58461 0.49451 0.0
C572 C 0.9984 0.52247 0.44652 0.0
C573 C 0.9339 0.49734 0.4355 0.0
C574 C 0.94652 0.53692 0.43123 0.0
C575 C 1.01035 0.56194 0.44217 0.0
C576 C 0.96014 0.49035 0.44314 0.0
C577 C 0.98461 0.56891 0.43454 0.0
C578 C 0.99058 0.56711 0.49399 0.0
C579 C 1.02478 0.51531 0.45509 0.0
H580 H 0.16663 0.69957 0.56567 0.0
H581 H 0.11367 0.63143 0.53283 0.0
H582 H 0.1204 0.63542 0.55539 0.0
H583 H 0.19852 0.76014 0.52992 0.0
H584 H 0.92717 0.54309 0.42522 0.0
H585 H 0.03947 0.58765 0.44473 0.0
H586 H 0.9505 0.46013 0.4467 0.0
H587 H 0.99428 0.59925 0.43121 0.0
Eu588 Eu 0.46744 0.09072 0.66599 0.0
C589 C 0.61412 0.07139 0.65648 0.0
N590 N 0.59611 0.07594 0.64612 0.0
C591 C 0.66081 0.11057 0.63574 0.0
C592 C 0.65654 0.08586 0.65672 0.0
C593 C 0.61887 0.09622 0.63594 0.0
C594 C 0.67965 0.10491 0.64611 0.0
C595 C 0.6101 0.05465 0.67843 0.0
C596 C 0.59088 0.05578 0.66725 0.0
C597 C 0.65178 0.06685 0.67846 0.0
C598 C 0.67493 0.08244 0.66765 0.0
Eu599 Eu 0.52441 0.0463 0.64688 0.0
N600 N 0.55074 0.0456 0.66711 0.0
C601 C 0.58745 0.04329 0.68943 0.0
C602 C 0.5299 0.03796 0.6781 0.0
C603 C 0.54746 0.0358 0.6893 0.0
H604 H 0.60467 0.10158 0.62798 0.0
H605 H 0.53034 0.02919 0.69789 0.0
H606 H 0.3664 0.02667 0.66831 0.0
H607 H 0.54054 0.2556 0.65964 0.0
H608 H 0.50038 0.03512 0.67852 0.0
H609 H 0.60115 0.0422 0.69818 0.0
H610 H 0.53424 0.19115 0.66758 0.0
H611 H 0.67862 0.12628 0.62762 0.0
H612 H 0.66675 0.06579 0.68694 0.0
H613 H 0.70736 0.09308 0.66795 0.0
H614 H 0.3024 1.0216 0.66039 0.0
H615 H 0.71226 0.11648 0.64597 0.0
H616 H 0.48374 0.25446 0.64779 0.0
N617 N 0.40414 0.08494 0.66036 0.0
C618 C 0.40578 0.11754 0.65453 0.0
C619 C 0.33131 0.04862 0.65858 0.0
C620 C 0.37013 0.11627 0.64999 0.0
C621 C 0.36747 0.05158 0.66307 0.0
C622 C 0.33271 0.08079 0.65179 0.0
N623 N 0.47532 0.15442 0.65982 0.0
C624 C 0.50931 0.19072 0.66248 0.0
C625 C 0.44467 0.18938 0.64965 0.0
C626 C 0.44258 0.15356 0.6543 0.0
C627 C 0.48089 0.22627 0.65124 0.0
C628 C 0.51296 0.22707 0.65798 0.0
H629 H 0.30462 0.07858 0.64843 0.0
H630 H 0.34577 0.15047 0.64065 0.0
H631 H 0.41111 0.2146 0.64039 0.0
O632 O 0.44737 0.11883 0.68006 0.0
O633 O 0.42504 0.04014 0.65232 0.0
O634 O 0.46783 0.03837 0.63723 0.0
O635 O 0.47486 0.08352 0.68599 0.0
O636 O 0.50771 0.13 0.65003 0.0
O637 O 0.50947 0.0875 0.63507 0.0
O638 O 0.5144 0.98554 0.64219 0.0
O639 O 0.56668 0.1122 0.65202 0.0
O640 O 0.53689 0.11665 0.67023 0.0
O641 O 0.544 0.03421 0.62907 0.0
O642 O 0.47411 0.99571 0.65841 0.0
O643 O 0.4354 1.0201 0.66831 0.0
C644 C 0.43144 0.02849 0.64134 0.0
C645 C 0.43128 0.09266 0.70051 0.0
C646 C 0.40476 0.11116 0.71894 0.0
C647 C 0.37912 0.06937 0.72125 0.0
C648 C 0.40501 0.05146 0.70304 0.0
C649 C 0.37925 0.04 0.71337 0.0
C650 C 0.43106 0.12243 0.70849 0.0
C651 C 0.50822 0.12048 0.63831 0.0
C652 C 0.45857 0.10542 0.68951 0.0
C653 C 0.37272 0.15103 0.64438 0.0
C654 C 0.40994 0.18755 0.64422 0.0
C655 C 0.56945 0.12924 0.66292 0.0
C656 C 0.49529 0.97081 0.62113 0.0
C657 C 0.45229 0.90543 0.61116 0.0
C658 C 0.43526 0.92346 0.60358 0.0
C659 C 0.47774 0.98832 0.61349 0.0
C660 C 0.48222 0.92929 0.61996 0.0
C661 C 0.44795 0.96471 0.60478 0.0
C662 C 0.44222 0.98984 0.6651 0.0
C663 C 0.52568 0.99526 0.63069 0.0
H664 H 0.35914 0.05917 0.72927 0.0
H665 H 0.40439 0.02818 0.69702 0.0
H666 H 0.35923 1.00808 0.71531 0.0
H667 H 0.45092 0.15431 0.7064 0.0
H668 H 0.41198 0.90559 0.5968 0.0
H669 H 0.48675 1.0202 0.61427 0.0
H670 H 0.49582 0.91575 0.62578 0.0
H671 H 0.43449 0.97838 0.59899 0.0
Eu672 Eu 0.4142 0.44572 0.83468 0.0
C673 C 0.56789 0.60117 0.82124 0.0
N674 N 0.54303 0.58213 0.81148 0.0
C675 C 0.56449 0.64626 0.80147 0.0
C676 C 0.5928 0.64389 0.82138 0.0
C677 C 0.54044 0.60395 0.80174 0.0
C678 C 0.59112 0.66632 0.81127 0.0
C679 C 0.59144 0.59756 0.84189 0.0
C680 C 0.56697 0.57811 0.83136 0.0
C681 C 0.6173 0.63985 0.84188 0.0
C682 C 0.61799 0.66296 0.83165 0.0
Eu683 Eu 0.50589 0.51039 0.81179 0.0
N684 N 0.54089 0.5372 0.83119 0.0
C685 C 0.58872 0.57411 0.85224 0.0
C686 C 0.53688 0.51496 0.84164 0.0
C687 C 0.56108 0.53269 0.85214 0.0
H688 H 0.51928 0.58887 0.79422 0.0
H689 H 0.55787 0.51436 0.86025 0.0
H690 H 0.46626 0.51649 0.85772 0.0
H691 H 0.35928 0.28227 0.83477 0.0
H692 H 0.51453 0.48381 0.8423 0.0
H693 H 0.60703 0.58784 0.86047 0.0
H694 H 0.36953 0.34697 0.82627 0.0
H695 H 0.56232 0.66337 0.79372 0.0
H696 H 0.63637 0.65508 0.84985 0.0
H697 H 0.6376 0.69565 0.83186 0.0
H698 H 0.49391 0.51844 0.87826 0.0
H699 H 0.60969 0.69914 0.81105 0.0
H700 H 0.38546 0.28018 0.85567 0.0
N701 N 0.44556 0.45343 0.85455 0.0
C702 C 0.43935 0.41812 0.85995 0.0
C703 C 0.47906 0.4901 0.87316 0.0
C704 C 0.45446 0.4181 0.87198 0.0
C705 C 0.46362 0.48881 0.86125 0.0
C706 C 0.47493 0.45475 0.87849 0.0
N707 N 0.40354 0.38211 0.84188 0.0
C708 C 0.38237 0.34694 0.83523 0.0
C709 C 0.41146 0.34482 0.85881 0.0
C710 C 0.41749 0.38156 0.85353 0.0
C711 C 0.39055 0.30891 0.85192 0.0
C712 C 0.37593 0.30999 0.84009 0.0
H713 H 0.4869 0.45592 0.88774 0.0
H714 H 0.4598 0.38113 0.88647 0.0
H715 H 0.42258 0.31714 0.87489 0.0
O716 O 0.34785 0.40679 0.83618 0.0
O717 O 0.40443 0.41157 0.81599 0.0
O718 O 0.4674 0.44512 0.80611 0.0
O719 O 0.37803 0.45635 0.84884 0.0
O720 O 0.39308 0.46664 0.81756 0.0
O721 O 0.44572 0.49715 0.80303 0.0
O722 O 0.56208 0.52002 0.80259 0.0
O723 O 0.47255 0.54318 0.81771 0.0
O724 O 0.45184 0.5164 0.83713 0.0
O725 O 0.51568 0.52353 0.79206 0.0
O726 O 0.51532 0.45996 0.8203 0.0
O727 O 0.45954 0.42097 0.83311 0.0
C728 C 0.43077 0.41358 0.80742 0.0
C729 C 0.31919 0.39734 0.85662 0.0
C730 C 0.27328 0.38183 0.87472 0.0
C731 C 0.27248 0.34443 0.87596 0.0
C732 C 0.31601 0.35898 0.85804 0.0
C733 C 0.29353 0.33319 0.8677 0.0
C734 C 0.29765 0.40883 0.86511 0.0
C735 C 0.40732 0.48251 0.80645 0.0
C736 C 0.34377 0.42423 0.84609 0.0
C737 C 0.44826 0.38153 0.87726 0.0
C738 C 0.42692 0.34505 0.87069 0.0
C739 C 0.46373 0.5471 0.8292 0.0
C740 C 0.54733 0.49115 0.78222 0.0
C741 C 0.57291 0.44756 0.77425 0.0
C742 C 0.54253 0.4329 0.76505 0.0
C743 C 0.51744 0.47635 0.77279 0.0
C744 C 0.57505 0.47656 0.78287 0.0
C745 C 0.51501 0.44729 0.76435 0.0
C746 C 0.49405 0.42821 0.82764 0.0
C747 C 0.54838 0.52056 0.79151 0.0
H748 H 0.25518 0.32347 0.88335 0.0
H749 H 0.33042 0.34835 0.85159 0.0
H750 H 0.29197 0.30398 0.86869 0.0
H751 H 0.29891 0.43789 0.86402 0.0
H752 H 0.54019 0.41039 0.75837 0.0
H753 H 0.49559 0.48691 0.77198 0.0
H754 H 0.59867 0.48825 0.78991 0.0
H755 H 0.49176 0.43598 0.75721 0.0
Eu756 Eu 0.96801 0.37962 0.99857 0.0
C757 C 0.94502 0.52371 0.98511 0.0
N758 N 0.94439 0.49227 0.97869 0.0
C759 C 0.88061 0.47682 0.96936 0.0
C760 C 0.91271 0.53225 0.984 0.0
C761 C 0.91338 0.46964 0.97063 0.0
C762 C 0.88018 0.50813 0.97609 0.0
C763 C 0.97823 0.57891 1.00009 0.0
C764 C 0.97757 0.54699 0.99312 0.0
C765 C 0.94626 0.58757 0.99884 0.0
C766 C 0.91362 0.5643 0.99085 0.0
Eu767 Eu 1.00409 0.48729 0.98099 0.0
N768 N 1.00776 0.5375 0.99447 0.0
C769 C 1.01078 0.60084 1.00827 0.0
C770 C 0.03986 0.55901 1.00225 0.0
C771 C 0.04169 0.59084 0.00935 0.0
H772 H 0.91403 0.44684 0.96483 0.0
H773 H 0.06706 0.60781 0.01559 0.0
H774 H 0.05262 0.3743 1.00466 0.0
H775 H 0.81952 0.25708 0.98379 0.0
H776 H 0.06413 0.55177 1.00291 0.0
H777 H 1.01229 0.6255 0.0138 0.0
H778 H 0.86775 0.32264 0.99368 0.0
H779 H 0.85595 0.45856 0.96302 0.0
H780 H 0.94624 0.61192 1.00415 0.0
H781 H 0.88896 0.57111 0.99012 0.0
H782 H 0.0818 0.33025 0.99957 0.0
H783 H 0.85477 0.51365 0.97503 0.0
H784 H 0.84455 0.21218 0.97564 0.0
N785 N 0.99676 0.33709 0.99523 0.0
C786 C 0.97336 0.30155 0.98918 0.0
C787 C 0.05135 0.32195 0.99652 0.0
C788 C 0.98855 0.27527 0.98615 0.0
C789 C 0.03475 0.34685 0.99937 0.0
C790 C 1.02837 0.28627 0.98971 0.0
N791 N 0.91945 0.31559 0.99049 0.0
C792 C 0.87888 0.30336 0.98998 0.0
C793 C 0.90705 0.25266 0.98114 0.0
C794 C 0.93336 0.29051 0.98668 0.0
C795 C 0.8658 0.24103 0.97984 0.0
C796 C 0.85153 0.26622 0.98446 0.0
H797 H 0.04122 0.26693 0.98756 0.0
H798 H 0.97437 0.21798 0.97751 0.0
H799 H 0.90284 0.19811 0.97313 0.0
O800 O 0.9341 0.33349 0.01267 0.0
O801 O 1.013 0.38896 0.98277 0.0
O802 O 1.03092 0.45057 0.97289 0.0
O803 O 0.97514 0.39521 0.01846 0.0
O804 O 0.92748 0.38726 0.98438 0.0
O805 O 0.9675 0.43054 0.96921 0.0
O806 O 0.05983 0.541 0.97464 0.0
O807 O 0.9746 0.47276 1.00041 0.0
O808 O 0.92573 0.40729 0.9985 0.0
O809 O 1.00398 0.51959 0.96426 0.0
O810 O 0.05755 0.48958 0.99145 0.0
O811 O 0.03498 0.42924 1.0028 0.0
C812 C 1.03298 0.41702 0.97419 0.0
C813 C 0.96223 0.34112 0.03276 0.0
C814 C 0.94302 0.29478 0.0508 0.0
C815 C 0.98457 0.30712 0.05243 0.0
C816 C 1.00318 0.35221 0.03462 0.0
C817 C 1.01418 0.33544 0.04443 0.0
C818 C 0.93218 0.31242 0.04091 0.0
C819 C 0.93709 0.39514 0.97258 0.0
C820 C 0.95025 0.35786 0.02208 0.0
C821 C 0.96316 0.23843 0.98003 0.0
C822 C 0.92244 0.22713 0.97753 0.0
C823 C 0.9364 0.4445 1.00204 0.0
C824 C 0.06429 0.54567 0.95277 0.0
C825 C 0.11002 0.58548 0.93598 0.0
C826 C 0.10312 0.54924 0.93019 0.0
C827 C 0.05744 0.50979 0.94682 0.0
C828 C 0.09065 0.5833 0.94738 0.0
C829 C 0.07705 0.51166 0.93563 0.0
C830 C 0.06403 0.46586 0.99907 0.0
C831 C 0.04312 0.54406 0.9644 0.0
H832 H 0.99441 0.29514 0.06001 0.0
H833 H 1.02666 0.37372 0.02846 0.0
H834 H 0.04593 0.34438 0.04583 0.0
H835 H 0.90041 0.30326 0.03937 0.0
H836 H 0.11732 0.54988 0.92137 0.0
H837 H 0.03668 0.48036 0.95075 0.0
H838 H 0.09612 0.61085 0.95212 0.0
H839 H 0.0717 0.4839 0.9311 0.0
Eu840 Eu 0.61285 0.96786 0.16748 0.0
C841 C 0.46016 0.96656 0.15618 0.0
N842 N 0.47908 0.96411 0.14575 0.0
C843 C 0.41448 0.91805 0.13651 0.0
C844 C 0.41723 0.94394 0.15722 0.0
C845 C 0.45696 0.9405 0.13593 0.0
C846 C 0.39451 0.91955 0.14724 0.0
C847 C 0.46396 0.99574 0.17652 0.0
C848 C 0.48363 0.99185 0.16579 0.0
C849 C 0.42146 0.97235 0.17772 0.0
C850 C 0.39818 0.94645 0.16811 0.0
Eu851 Eu 0.5511 1.0018 0.14537 0.0
N852 N 0.52507 1.01383 0.16449 0.0
C853 C 0.48727 0.02402 0.1856 0.0
C854 C 0.5473 0.04293 0.17322 0.0
C855 C 0.52892 0.04832 0.18379 0.0
H856 H 0.47208 0.93759 0.12778 0.0
H857 H 0.54718 0.07105 0.19065 0.0
H858 H 0.5278 0.96183 0.18322 0.0
H859 H 0.77344 0.06347 0.1782 0.0
H860 H 0.57923 0.06278 0.17249 0.0
H861 H 0.47329 0.02807 0.19389 0.0
H862 H 0.71396 1.01988 0.16496 0.0
H863 H 0.39722 0.89904 0.12877 0.0
H864 H 0.40619 0.97473 0.18596 0.0
H865 H 0.36534 0.92902 0.1691 0.0
H866 H 0.51385 0.97816 0.20375 0.0
H867 H 0.36158 0.90176 0.14772 0.0
H868 H 0.76282 0.08132 0.19949 0.0
N869 N 0.59246 0.98924 0.18581 0.0
C870 C 0.62392 1.01138 0.19385 0.0
C871 C 0.54494 0.98757 0.2011 0.0
C872 C 0.61669 0.02256 0.20574 0.0
C873 C 0.55332 0.97776 0.18933 0.0
C874 C 0.57666 1.01004 0.20933 0.0
N875 N 0.67069 1.01402 0.17861 0.0
C876 C 0.70925 0.02813 0.1742 0.0
C877 C 0.69695 0.04836 0.19806 0.0
C878 C 0.6639 0.02389 0.19017 0.0
C879 C 0.7367 0.06239 0.19371 0.0
C880 C 0.74286 0.05255 0.18168 0.0
H881 H 0.56992 1.01789 0.21839 0.0
H882 H 0.64433 0.05459 0.22288 0.0
H883 H 0.7145 0.07748 0.2161 0.0
O884 O 0.64835 0.9364 0.16646 0.0
O885 O 0.65237 0.99923 0.15012 0.0
O886 O 0.61497 1.02212 0.13879 0.0
O887 O 0.61043 0.92625 0.18234 0.0
O888 O 0.5897 0.92863 0.14991 0.0
O889 O 0.56464 0.95675 0.1354 0.0
O890 O 0.54599 0.05279 0.13747 0.0
O891 O 0.51475 0.935 0.15082 0.0
O892 O 0.5428 0.9272 0.16899 0.0
O893 O 0.5343 1.0019 0.12604 0.0
O894 O 0.60611 0.05794 0.15364 0.0
O895 O 0.64258 0.03803 0.16659 0.0
C896 C 0.64819 1.01979 0.14075 0.0
C897 C 0.6699 0.9197 0.1855 0.0
C898 C 0.69143 0.89224 0.20302 0.0
C899 C 0.73224 0.91984 0.19996 0.0
C900 C 0.71116 0.94487 0.18242 0.0
C901 C 0.74188 0.94562 0.18976 0.0
C902 C 0.66012 0.8931 0.19588 0.0
C903 C 0.57647 0.93047 0.13865 0.0
C904 C 0.63751 0.9191 0.17732 0.0
C905 C 0.64953 0.04594 0.21373 0.0
C906 C 0.6895 0.05889 0.2099 0.0
C907 C 0.51141 0.91616 0.1614 0.0
C908 C 0.57251 0.06623 0.11692 0.0
C909 C 0.61238 0.13338 0.10749 0.0
C910 C 0.63251 0.11822 0.10002 0.0
C911 C 0.59321 0.05186 0.10934 0.0
C912 C 0.58244 0.10707 0.11597 0.0
C913 C 0.62298 0.07776 0.10098 0.0
C914 C 0.63729 0.06647 0.1611 0.0
C915 C 0.54208 0.0392 0.12615 0.0
H916 H 0.75704 0.92116 0.20539 0.0
H917 H 0.72 0.96369 0.1742 0.0
H918 H 0.77348 0.96582 0.18737 0.0
H919 H 0.62848 0.87225 0.19808 0.0
H920 H 0.65513 0.13737 0.09324 0.0
H921 H 0.58683 1.02068 0.10991 0.0
H922 H 0.56715 0.11838 0.12196 0.0
H923 H 0.63872 0.06641 0.09522 0.0
Eu924 Eu 0.66593 0.59987 0.33463 0.0
C925 C 0.50806 0.44933 0.32053 0.0
N926 N 0.53312 0.46844 0.3108 0.0
C927 C 0.50929 0.40452 0.30034 0.0
C928 C 0.48192 0.40676 0.32042 0.0
C929 C 0.53477 0.44661 0.30089 0.0
C930 C 0.48243 0.38452 0.3101 0.0
C931 C 0.48611 0.45227 0.34148 0.0
C932 C 0.5104 0.47195 0.33093 0.0
C933 C 0.45894 0.41025 0.34122 0.0
C934 C 0.45694 0.38752 0.33073 0.0
Eu935 Eu 0.57334 0.54019 0.31175 0.0
N936 N 0.53808 0.51246 0.33107 0.0
C937 C 0.49059 0.4751 0.35215 0.0
C938 C 0.5441 0.53382 0.34185 0.0
C939 C 0.52001 0.51598 0.35237 0.0
H940 H 0.55641 0.46134 0.29346 0.0
H941 H 0.52479 0.53369 0.36074 0.0
H942 H 0.61282 0.5288 0.35751 0.0
H943 H 0.72373 0.76395 0.33498 0.0
H944 H 0.56804 0.56427 0.34275 0.0
H945 H 0.47246 0.46119 0.3604 0.0
H946 H 0.71005 0.69872 0.32598 0.0
H947 H 0.51073 0.38749 0.29245 0.0
H948 H 0.44006 0.39486 0.34921 0.0
H949 H 0.43658 0.35494 0.33077 0.0
H950 H 0.58831 0.52765 0.3785 0.0
H951 H 0.46296 0.35183 0.3097 0.0
H952 H 0.70223 0.76678 0.3565 0.0
N953 N 0.6365 0.59258 0.35475 0.0
C954 C 0.64498 0.6283 0.36039 0.0
C955 C 0.60384 0.55611 0.37347 0.0
C956 C 0.63177 0.62872 0.37267 0.0
C957 C 0.61753 0.55698 0.36134 0.0
C958 C 0.61063 0.59201 0.37912 0.0
N959 N 0.67872 0.66399 0.342 0.0
C960 C 0.6992 0.69906 0.33524 0.0
C961 C 0.67519 0.70196 0.3595 0.0
C962 C 0.66705 0.66486 0.35394 0.0
C963 C 0.69564 0.73781 0.35255 0.0
C964 C 0.70759 0.73632 0.34037 0.0
H965 H 0.60004 0.59114 0.38855 0.0
H966 H 0.63033 0.66638 0.38764 0.0
H967 H 0.66791 0.73033 0.37607 0.0
O968 O 0.73265 0.63599 0.33511 0.0
O969 O 0.67766 0.63378 0.31591 0.0
O970 O 0.61349 0.60631 0.30682 0.0
O971 O 0.7024 0.59071 0.34907 0.0
O972 O 0.68365 0.57432 0.31777 0.0
O973 O 0.63312 0.55373 0.30259 0.0
O974 O 0.51994 0.53779 0.30257 0.0
O975 O 0.60309 0.50349 0.31741 0.0
O976 O 0.62678 0.5292 0.33684 0.0
O977 O 0.5617 0.52656 0.29208 0.0
O978 O 0.56487 0.58974 0.32129 0.0
O979 O 0.62237 0.62736 0.33356 0.0
C980 C 0.65175 0.63489 0.30781 0.0
C981 C 0.7642 0.65 0.3552 0.0
C982 C 0.81142 0.66811 0.37305 0.0
C983 C 0.81681 0.70762 0.37269 0.0
C984 C 0.7719 0.69031 0.35501 0.0
C985 C 0.79727 0.7185 0.36377 0.0
C986 C 0.78412 0.63885 0.36439 0.0
C987 C 0.67019 0.56312 0.30625 0.0
C988 C 0.73704 0.62077 0.34547 0.0
C989 C 0.64033 0.66567 0.37824 0.0
C990 C 0.66191 0.70213 0.37167 0.0
C991 C 0.61236 0.49857 0.32878 0.0
C992 C 0.53935 0.56732 0.28245 0.0
C993 C 0.51357 0.60396 0.2701 0.0
C994 C 0.55285 0.62827 0.26513 0.0
C995 C 0.57851 0.59256 0.27748 0.0
C996 C 0.50714 0.57347 0.27882 0.0
C997 C 0.58501 0.6226 0.26886 0.0
C998 C 0.58742 0.62115 0.32859 0.0
C999 C 0.53261 0.53522 0.29152 0.0
H1000 H 0.83665 0.73047 0.3793 0.0
H1001 H 0.75892 0.70058 0.34795 0.0
H1002 H 0.80237 0.74928 0.36352 0.0
H1003 H 0.77945 0.60821 0.36454 0.0
H1004 H 0.55875 0.65135 0.25821 0.0
H1005 H 0.6043 0.58915 0.2802 0.0
H1006 H 0.47731 0.55477 0.28291 0.0
H1007 H 0.61509 0.64136 0.26501 0.0
H1008 H 1.00339 0.66657 0.22512 0.0
H1009 H 0.04057 0.71299 0.2425 0.0
H1010 H 0.15069 0.71419 0.23107 0.0
H1011 H 0.11421 0.66897 0.21387 0.0
H1012 H 0.07946 0.69732 0.26206 0.0
H1013 H 0.19307 0.83397 0.2368 0.0
H1014 H 0.14827 0.7942 0.22931 0.0
H1015 H 0.19244 0.78856 0.23167 0.0
C1016 C 0.03584 0.67808 0.22608 0.0
C1017 C 0.056 0.66471 0.21795 0.0
C1018 C 0.05702 0.70419 0.2361 0.0
C1019 C 0.09881 0.7178 0.23806 0.0
C1020 C 0.11894 0.70529 0.22968 0.0
H1021 H 0.28501 0.85966 0.29442 0.0
H1022 H 0.24665 0.81442 0.27701 0.0
C1023 C 0.09791 0.67925 0.2198 0.0
C1024 C 0.12111 0.74253 0.24927 0.0
H1025 H 0.20693 0.82966 0.25826 0.0
C1026 C 0.10719 0.72636 0.2612 0.0
C1027 C 0.15758 0.78042 0.24827 0.0
C1028 C 0.17355 0.80052 0.23583 0.0
C1029 C 0.1291 0.74627 0.27204 0.0
C1030 C 0.16556 0.78421 0.27105 0.0
C1031 C 0.17932 0.80051 0.25912 0.0
C1032 C 0.18855 0.80857 0.28225 0.0
C1033 C 0.11344 0.72571 0.28444 0.0
C1034 C 0.16893 0.82013 0.29115 0.0
C1035 C 0.19068 0.84557 0.30109 0.0
C1036 C 0.23292 0.86073 0.30243 0.0
C1037 C 0.25249 0.8482 0.29377 0.0
C1038 C 0.23059 0.82263 0.28374 0.0
H1039 H 0.09436 0.69224 0.28338 0.0
H1040 H 0.13884 0.73218 0.29093 0.0
H1041 H 0.09414 0.73705 0.28869 0.0
H1042 H 0.13691 0.81067 0.29017 0.0
H1043 H 0.17456 0.85455 0.30757 0.0
H1044 H 0.33548 0.22364 0.45958 0.0
H1045 H 0.33481 0.17501 0.44448 0.0
H1046 H 0.46543 0.24645 0.44108 0.0
H1047 H 0.46633 0.29513 0.45632 0.0
H1048 H 0.35611 0.18359 0.42048 0.0
H1049 H 0.45295 0.13586 0.44592 0.0
H1050 H 0.43304 0.16542 0.4532 0.0
H1051 H 0.47789 0.18976 0.44356 0.0
C1052 C 0.36419 0.22908 0.45566 0.0
C1053 C 0.40101 0.26358 0.45923 0.0
C1054 C 0.36373 0.20106 0.447 0.0
C1055 C 0.40005 0.20645 0.44164 0.0
C1056 C 0.43696 0.24075 0.44523 0.0
H1057 H 0.47522 0.09656 0.38546 0.0
H1058 H 0.46567 0.13789 0.40082 0.0
C1059 C 0.43747 0.26874 0.45398 0.0
C1060 C 0.399 0.1769 0.43206 0.0
H1061 H 0.43979 0.11643 0.42461 0.0
C1062 C 0.37414 0.16862 0.42146 0.0
C1063 C 0.4222 0.15689 0.43327 0.0
C1064 C 0.44769 0.16207 0.44466 0.0
C1065 C 0.37313 0.14243 0.4119 0.0
C1066 C 0.39716 0.12332 0.41298 0.0
C1067 C 0.42129 0.13092 0.4237 0.0
C1068 C 0.40073 0.09815 0.40274 0.0
C1069 C 0.34757 0.1367 0.40049 0.0
C1070 C 0.36718 0.06184 0.39832 0.0
C1071 C 0.37255 0.03772 0.38926 0.0
C1072 C 0.41164 0.0493 0.38459 0.0
C1073 C 0.44461 0.08625 0.38882 0.0
C1074 C 0.43926 0.11014 0.3977 0.0
H1075 H 0.33752 0.15975 0.39992 0.0
H1076 H 0.36475 0.1385 0.3919 0.0
H1077 H 0.32 0.10617 0.40082 0.0
H1078 H 0.33709 0.05148 0.40214 0.0
H1079 H 0.34657 1.0094 0.38631 0.0
H1080 H 0.21401 0.34977 0.6419 0.0
H1081 H 0.25504 0.35655 0.62359 0.0
H1082 H 0.2384 0.45472 0.61027 0.0
H1083 H 0.19573 0.44729 0.62858 0.0
H1084 H 0.22356 0.35286 0.5965 0.0
H1085 H 0.368 0.49222 0.60925 0.0
H1086 H 0.33235 0.45983 0.62096 0.0
H1087 H 0.32022 0.49137 0.61149 0.0
C1088 C 0.2188 0.37284 0.6351 0.0
C1089 C 0.20073 0.39752 0.63671 0.0
C1090 C 0.24252 0.37672 0.62462 0.0
C1091 C 0.24966 0.40587 0.61547 0.0
C1092 C 0.23331 0.43192 0.61721 0.0
H1093 H 0.41131 0.47272 0.55105 0.0
H1094 H 0.36516 0.46898 0.56751 0.0
C1095 C 0.20911 0.42782 0.62773 0.0
C1096 C 0.27317 0.40764 0.60402 0.0
H1097 H 0.36726 0.45995 0.59055 0.0
C1098 C 0.25494 0.37643 0.59513 0.0
C1099 C 0.31404 0.43834 0.60219 0.0
C1100 C 0.33518 0.47242 0.61145 0.0
C1101 C 0.27627 0.37525 0.58447 0.0
C1102 C 0.31776 0.4053 0.5828 0.0
C1103 C 0.33572 0.4367 0.59171 0.0
C1104 C 0.34308 0.40561 0.57188 0.0
C1105 C 0.25352 0.34235 0.57496 0.0
C1106 C 0.34608 0.37109 0.56846 0.0
C1107 C 0.37198 0.37294 0.55869 0.0
C1108 C 0.3963 0.40967 0.55238 0.0
C1109 C 0.39283 0.44385 0.55569 0.0
C1110 C 0.36653 0.4418 0.5652 0.0
H1111 H 0.22019 0.33101 0.5754 0.0
H1112 H 0.26421 0.35332 0.56537 0.0
H1113 H 0.25837 0.31626 0.57692 0.0
H1114 H 0.32956 0.343 0.57361 0.0
H1115 H 0.37459 0.34634 0.55655 0.0
H1116 H 0.98393 0.34669 0.70777 0.0
H1117 H 0.94024 0.29852 0.72381 0.0
H1118 H 1.02818 0.36999 0.75192 0.0
H1119 H 0.07154 0.41805 0.73593 0.0
H1120 H 0.99394 0.29149 0.75756 0.0
H1121 H 0.87014 0.32472 0.74572 0.0
H1122 H 0.88645 0.30568 0.73299 0.0
H1123 H 0.92116 0.35433 0.73965 0.0
C1124 C 0.99452 0.35123 0.71732 0.0
C1125 C 1.03137 0.38586 0.72058 0.0
C1126 C 0.96909 0.3242 0.72655 0.0
C1127 C 0.97995 0.33139 0.73923 0.0
C1128 C 1.01848 0.36406 0.7423 0.0
H1129 H 0.86147 0.22867 0.81121 0.0
H1130 H 0.9042 0.27515 0.79462 0.0
C1131 C 0.04359 0.39128 0.73312 0.0
C1132 C 0.9509 0.30635 0.74936 0.0
H1133 H 0.85557 0.27513 0.76129 0.0
C1134 C 0.96375 0.28807 0.75836 0.0
C1135 C 0.91148 0.30207 0.7506 0.0
C1136 C 0.89652 0.32304 0.74182 0.0
C1137 C 0.93823 0.26509 0.76827 0.0
C1138 C 0.89871 0.26036 0.7694 0.0
C1139 C 0.88581 0.27869 0.76046 0.0
C1140 C 0.86995 0.23498 0.77949 0.0
C1141 C 0.95345 0.24526 0.77738 0.0
C1142 C 0.83541 0.19771 0.77656 0.0
C1143 C 0.81104 0.17126 0.78601 0.0
C1144 C 0.82015 0.18168 0.79865 0.0
C1145 C 0.85324 0.22008 0.80159 0.0
C1146 C 0.87796 0.24642 0.7921 0.0
H1147 H 0.98162 0.24586 0.77405 0.0
H1148 H 0.96028 0.26163 0.7864 0.0
H1149 H 0.92975 0.2132 0.77908 0.0
H1150 H 0.82844 0.18813 0.76695 0.0
H1151 H 0.78608 0.14169 0.78346 0.0
H1152 H 0.63668 0.02369 0.90224 0.0
H1153 H 0.64114 0.97997 0.91814 0.0
H1154 H 0.69296 0.93393 0.89124 0.0
H1155 H 0.688 0.97761 0.87514 0.0
H1156 H 0.59997 0.89232 0.916 0.0
H1157 H 0.76707 0.95957 0.9229 0.0
H1158 H 0.74499 0.98807 0.91619 0.0
H1159 H 0.74849 0.9501 0.90714 0.0
C1160 C 0.64998 1.00499 0.89974 0.0
C1161 C 0.66255 1.00471 0.88741 0.0
C1162 C 0.65227 0.97977 0.90886 0.0
C1163 C 0.66738 0.95352 0.90597 0.0
C1164 C 0.68165 0.95426 0.89378 0.0
H1165 H 0.69966 0.78531 0.95466 0.0
H1166 H 0.69609 0.82328 0.93671 0.0
C1167 C 0.67924 0.97962 0.88458 0.0
C1168 C 0.66552 0.92392 0.91559 0.0
H1169 H 0.72432 0.90116 0.93456 0.0
C1170 C 0.62719 0.89415 0.92003 0.0
C1171 C 0.70087 0.92601 0.92084 0.0
C1172 C 0.74281 0.95773 0.91663 0.0
C1173 C 0.62323 0.86652 0.92948 0.0
C1174 C 0.65864 0.86929 0.93503 0.0
C1175 C 0.69701 0.89878 0.93043 0.0
C1176 C 0.65688 0.8424 0.94563 0.0
C1177 C 0.58097 0.8341 0.93321 0.0
C1178 C 0.6353 0.83929 0.95668 0.0
C1179 C 0.63667 0.81673 0.96691 0.0
C1180 C 0.66026 0.79735 0.96644 0.0
C1181 C 0.68091 0.79958 0.9553 0.0
C1182 C 0.67915 0.82163 0.94504 0.0
H1183 H 0.55876 0.8274 0.92555 0.0
H1184 H 0.58037 0.80545 0.93587 0.0
H1185 H 0.5707 0.84498 0.94129 0.0
H1186 H 0.61873 0.85571 0.95761 0.0
H1187 H 0.62123 0.81646 0.97544 0.0
H1188 H 0.8277 0.64419 0.14461 0.0
H1189 H 0.7812 0.64097 0.12803 0.0
H1190 H 0.8542 0.62192 0.10088 0.0
H1191 H 0.90073 0.62552 0.11741 0.0
H1192 H 0.80702 0.69644 0.10781 0.0
H1193 H 0.73627 0.53782 0.09062 0.0
H1194 H 0.76038 0.55289 0.10568 0.0
H1195 H 0.79085 0.56277 0.0919 0.0
C1196 C 0.83285 0.63775 0.13516 0.0
C1197 C 0.8673 0.63411 0.13235 0.0
C1198 C 0.80653 0.63637 0.12566 0.0
C1199 C 0.81384 0.63087 0.11315 0.0
C1200 C 0.8473 0.62543 0.11043 0.0
H1201 H 0.70787 0.63525 0.041 0.0
H1202 H 0.75367 0.63783 0.05769 0.0
C1203 C 0.87383 0.62729 0.1199 0.0
C1204 C 0.78909 0.63473 0.10285 0.0
H1205 H 0.72843 0.58488 0.07789 0.0
C1206 C 0.78962 0.67191 0.10132 0.0
C1207 C 0.76645 0.60292 0.0943 0.0
C1208 C 0.76301 0.56169 0.09572 0.0
C1209 C 0.76904 0.67843 0.09139 0.0
C1210 C 0.74665 0.64674 0.08278 0.0
C1211 C 0.74591 0.60944 0.08435 0.0
C1212 C 0.72256 0.65101 0.07235 0.0
C1213 C 0.77233 0.71964 0.09005 0.0
C1214 C 0.69045 0.65873 0.07488 0.0
C1215 C 0.66428 0.65716 0.06536 0.0
C1216 C 0.67007 0.64873 0.05302 0.0
C1217 C 0.70351 0.64326 0.05033 0.0
C1218 C 0.72931 0.64409 0.05992 0.0
H1219 H 0.79948 0.74356 0.09498 0.0
H1220 H 0.7741 0.72837 0.08011 0.0
H1221 H 0.7449 0.71866 0.09419 0.0
H1222 H 0.68398 0.66348 0.08436 0.0
H1223 H 0.63791 0.66 0.06777 0.0
H1224 H 0.38424 0.04375 0.62515 0.0
H1225 H 0.33917 0.99765 0.6088 0.0
H1226 H 0.36131 0.90305 0.6224 0.0
H1227 H 0.40574 0.94877 0.63857 0.0
H1228 H 0.35864 0.96232 0.58984 0.0
H1229 H 0.23989 0.83984 0.61849 0.0
H1230 H 0.27555 0.88875 0.62492 0.0
H1231 H 0.28998 0.85029 0.62285 0.0
C1232 C 0.37807 1.01259 0.62489 0.0
C1233 C 0.39719 0.9993 0.63344 0.0
C1234 C 0.35276 0.98637 0.61545 0.0
C1235 C 0.34597 0.94633 0.61441 0.0
C1236 C 0.36467 0.9331 0.62314 0.0
H1237 H 0.2455 0.74187 0.5647 0.0
H1238 H 0.28411 0.79627 0.57961 0.0
C1239 C 0.39001 0.95926 0.63247 0.0
C1240 C 0.32164 0.91902 0.60384 0.0
H1241 H 0.24478 0.82278 0.59729 0.0
C1242 C 0.33331 0.93205 0.59148 0.0
C1243 C 0.28849 0.87932 0.60585 0.0
C1244 C 0.27246 0.86386 0.61874 0.0
C1245 C 0.31395 0.90611 0.58123 0.0
C1246 C 0.28181 0.86601 0.58331 0.0
C1247 C 0.26951 0.85338 0.59563 0.0
C1248 C 0.26185 0.83568 0.573 0.0
C1249 C 0.32902 0.92115 0.56825 0.0
C1250 C 0.23708 0.83985 0.56395 0.0
C1251 C 0.21475 0.80844 0.5553 0.0
C1252 C 0.21667 0.77221 0.55558 0.0
C1253 C 0.24319 0.76927 0.56422 0.0
C1254 C 0.26523 0.80037 0.57281 0.0
H1255 H 0.35807 0.95054 0.56829 0.0
H1256 H 0.33362 0.89839 0.56304 0.0
H1257 H 0.30578 0.92545 0.5632 0.0
H1258 H 0.23354 0.86656 0.56393 0.0
H1259 H 0.19424 0.8115 0.54891 0.0
H1260 H 0.4686 0.18484 0.72689 0.0
H1261 H 0.46651 0.23314 0.74168 0.0
H1262 H 0.33662 0.1565 0.74539 0.0
H1263 H 0.33825 0.10849 0.73054 0.0
H1264 H 0.42444 0.27665 0.74102 0.0
H1265 H 0.37317 0.17267 0.7817 0.0
H1266 H 0.39259 0.162 0.76768 0.0
H1267 H 0.34127 0.15329 0.76818 0.0
C1268 C 0.43948 0.17832 0.73074 0.0
C1269 C 0.40369 0.14221 0.72753 0.0
C1270 C 0.43836 0.20596 0.7393 0.0
C1271 C 0.40153 0.19822 0.74494 0.0
C1272 C 0.36565 0.16281 0.7415 0.0
H1273 H 0.35638 0.34377 0.80194 0.0
H1274 H 0.34474 0.29015 0.78667 0.0
C1275 C 0.3667 0.13526 0.73295 0.0
C1276 C 0.40056 0.2275 0.75421 0.0
H1277 H 0.37797 0.23689 0.78456 0.0
C1278 C 0.41417 0.2678 0.75052 0.0
C1279 C 0.3868 0.21619 0.76664 0.0
C1280 C 0.37292 0.1738 0.77137 0.0
C1281 C 0.41468 0.29692 0.75883 0.0
C1282 C 0.40206 0.28599 0.77136 0.0
C1283 C 0.38746 0.24543 0.77499 0.0
C1284 C 0.40791 0.31723 0.78099 0.0
C1285 C 0.42896 0.33932 0.75404 0.0
C1286 C 0.44718 0.34961 0.7832 0.0
C1287 C 0.45379 0.37986 0.79181 0.0
C1288 C 0.42141 0.379 0.79868 0.0
C1289 C 0.38201 0.34577 0.79682 0.0
C1290 C 0.37536 0.31511 0.78807 0.0
H1291 H 0.42314 0.33915 0.7439 0.0
H1292 H 0.41382 0.35409 0.75896 0.0
H1293 H 0.46232 0.35789 0.75549 0.0
H1294 H 0.47307 0.35161 0.77821 0.0
H1295 H 0.48486 0.40415 0.79303 0.0
H1296 H 1.02516 0.34633 0.96389 0.0
H1297 H 0.06656 0.34112 0.94693 0.0
H1298 H 0.14293 0.47136 0.94692 0.0
H1299 H 0.10208 0.47679 0.96365 0.0
H1300 H 0.08301 0.38891 0.92196 0.0
H1301 H 0.22253 0.42129 0.94839 0.0
H1302 H 0.17303 0.40015 0.95569 0.0
H1303 H 0.2003 0.45293 0.95154 0.0
C1304 C 0.05118 0.37372 0.9604 0.0
C1305 C 0.06014 0.41196 0.96511 0.0
C1306 C 0.07469 0.37077 0.95066 0.0
C1307 C 0.10803 0.40589 0.94565 0.0
C1308 C 0.11765 0.44382 0.95064 0.0
H1309 H 0.29397 0.45141 0.88848 0.0
H1310 H 0.2535 0.45979 0.90505 0.0
C1311 C 0.09407 0.44682 0.96021 0.0
C1312 C 0.13193 0.40365 0.93484 0.0
H1313 H 0.22586 0.41831 0.92649 0.0
C1314 C 0.11413 0.395 0.92296 0.0
C1315 C 0.17289 0.4126 0.93606 0.0
C1316 C 0.19349 0.42208 0.94859 0.0
C1317 C 0.13614 0.39525 0.9123 0.0
C1318 C 0.17693 0.4032 0.91352 0.0
C1319 C 0.19477 0.41223 0.92544 0.0
C1320 C 0.20069 0.40006 0.90274 0.0
C1321 C 0.11564 0.38809 0.89977 0.0
C1322 C 0.18471 0.36408 0.89574 0.0
C1323 C 0.2075 0.35954 0.88622 0.0
C1324 C 0.24746 0.39053 0.88348 0.0
C1325 C 0.26324 0.4271 0.89022 0.0
C1326 C 0.24019 0.43171 0.8998 0.0
H1327 H 0.09171 0.39709 0.89983 0.0
H1328 H 0.13789 0.40527 0.8923 0.0
H1329 H 0.1006 0.35521 0.89752 0.0
H1330 H 0.15492 0.33873 0.89789 0.0
H1331 H 0.19417 0.33098 0.88121 0.0
H1332 H 0.71627 1.01363 0.13341 0.0
H1333 H 0.77034 0.05881 0.1187 0.0
H1334 H 0.71242 0.13192 0.11479 0.0
H1335 H 0.65987 0.08837 0.12926 0.0
H1336 H 0.76208 0.07821 0.09337 0.0
H1337 H 0.82922 0.2177 0.12209 0.0
H1338 H 0.79617 0.16799 0.12856 0.0
H1339 H 0.77501 0.19517 0.12059 0.0
C1340 C 0.71544 0.03958 0.12949 0.0
C1341 C 0.6833 0.04687 0.1325 0.0
C1342 C 0.74624 0.06534 0.12104 0.0
C1343 C 0.74589 0.09928 0.11569 0.0
C1344 C 0.7141 0.1066 0.11887 0.0
H1345 H 0.87507 0.29278 0.06132 0.0
H1346 H 0.82768 0.24418 0.07663 0.0
C1347 C 0.68359 0.08109 0.12713 0.0
C1348 C 0.77733 0.12669 0.10644 0.0
H1349 H 0.8442 0.22699 0.10026 0.0
C1350 C 0.78053 0.11065 0.09496 0.0
C1351 C 0.80115 0.16925 0.10837 0.0
C1352 C 0.80056 0.18852 0.12061 0.0
C1353 C 0.80564 0.13593 0.08528 0.0
C1354 C 0.82898 0.17859 0.08714 0.0
C1355 C 0.82626 0.19449 0.09871 0.0
C1356 C 0.85674 0.20717 0.07731 0.0
C1357 C 0.80569 0.11679 0.07297 0.0
C1358 C 0.88903 0.20288 0.07249 0.0
C1359 C 0.91602 0.23051 0.06369 0.0
C1360 C 0.91187 0.26362 0.05948 0.0
C1361 C 0.87914 0.26758 0.06419 0.0
C1362 C 0.85213 0.2399 0.07305 0.0
H1363 H 0.77812 0.08647 0.07184 0.0
H1364 H 0.80722 0.13644 0.06508 0.0
H1365 H 0.83276 0.11261 0.07249 0.0
H1366 H 0.89394 0.17852 0.07571 0.0
H1367 H 0.94044 0.22598 0.06024 0.0
H1368 H 0.71671 0.66834 0.2914 0.0
H1369 H 0.72595 0.71454 0.27392 0.0
H1370 H 0.62088 0.72165 0.28619 0.0
H1371 H 0.61201 0.67631 0.30347 0.0
H1372 H 0.66916 0.69931 0.25489 0.0
H1373 H 0.70141 0.84059 0.27951 0.0
H1374 H 0.70589 0.80024 0.28699 0.0
H1375 H 0.65676 0.79654 0.28522 0.0
C1376 C 0.69666 0.6811 0.2906 0.0
C1377 C 0.66416 0.66941 0.29899 0.0
C1378 C 0.70159 0.7071 0.28052 0.0
C1379 C 0.67449 0.72231 0.27877 0.0
C1380 C 0.6429 0.71147 0.28742 0.0
H1381 H 0.63455 0.86798 0.22213 0.0
H1382 H 0.6279 0.82471 0.24012 0.0
C1383 C 0.63782 0.68541 0.29734 0.0
C1384 C 0.67674 0.74674 0.26748 0.0
H1385 H 0.68225 0.83599 0.25818 0.0
C1386 C 0.67215 0.72923 0.25564 0.0
C1387 C 0.68037 0.78581 0.26834 0.0
C1388 C 0.68676 0.80711 0.28068 0.0
C1389 C 0.66994 0.74895 0.24476 0.0
C1390 C 0.67402 0.78825 0.24558 0.0
C1391 C 0.67884 0.80588 0.25744 0.0
C1392 C 0.67569 0.81242 0.23426 0.0
C1393 C 0.66193 0.72667 0.23253 0.0
C1394 C 0.70442 0.81995 0.22486 0.0
C1395 C 0.70785 0.84411 0.21456 0.0
C1396 C 0.68324 0.86238 0.21338 0.0
C1397 C 0.6538 0.85426 0.22265 0.0
C1398 C 0.65025 0.82977 0.23301 0.0
H1399 H 0.64531 0.69321 0.23393 0.0
H1400 H 0.64387 0.73468 0.22614 0.0
H1401 H 0.69144 0.73486 0.22801 0.0
H1402 H 0.72512 0.80797 0.22561 0.0
H1403 H 0.73058 0.84914 0.20758 0.0
H1404 H 0.07058 0.69791 0.45894 0.0
H1405 H 1.03227 0.70762 0.44191 0.0
H1406 H 0.92247 0.60185 0.45434 0.0
H1407 H 0.96003 0.59302 0.47127 0.0
H1408 H 0.9945 0.65729 0.42281 0.0
H1409 H 0.87699 0.67519 0.44805 0.0
H1410 H 0.92131 0.67928 0.45577 0.0
H1411 H 0.8774 0.63016 0.45297 0.0
C1412 C 0.03791 0.67807 0.45836 0.0
C1413 C 1.01813 0.6455 0.46674 0.0
C1414 C 1.01605 0.68317 0.4485 0.0
C1415 C 0.97397 0.65596 0.44687 0.0
C1416 C 0.95431 0.62423 0.4555 0.0
H1417 H 0.78531 0.6061 0.39044 0.0
H1418 H 0.82504 0.60093 0.40787 0.0
C1419 C 0.97597 0.6192 0.46526 0.0
C1420 C 0.95106 0.65794 0.43566 0.0
H1421 H 0.86264 0.65537 0.42664 0.0
C1422 C 0.96573 0.65694 0.4237 0.0
C1423 C 0.91338 0.65765 0.43664 0.0
C1424 C 0.89658 0.66104 0.44905 0.0
C1425 C 0.94333 0.65404 0.41286 0.0
C1426 C 0.90559 0.65358 0.41384 0.0
C1427 C 0.89118 0.65518 0.42578 0.0
C1428 C 0.88188 0.65394 0.40262 0.0
C1429 C 0.95994 0.65024 0.40046 0.0
C1430 C 0.90033 0.68495 0.3937 0.0
C1431 C 0.87783 0.68763 0.38374 0.0
C1432 C 0.83593 0.65969 0.3824 0.0
C1433 C 0.81756 0.62779 0.39107 0.0
C1434 C 0.84023 0.62511 0.40112 0.0
H1435 H 0.98028 0.63697 0.40152 0.0
H1436 H 0.93506 0.631 0.39391 0.0
H1437 H 0.97819 0.6809 0.3963 0.0
H1438 H 0.93196 0.70818 0.39468 0.0
H1439 H 0.89303 0.71267 0.37726 0.0
H1440 H 0.543 0.64365 0.31338 0.0
H1441 H 0.5218 0.69446 0.31704 0.0
H1442 H 0.57345 0.71533 0.35387 0.0
H1443 H 0.59561 0.66555 0.35001 0.0
H1444 H 0.47269 0.70327 0.33096 0.0
H1445 H 0.62247 0.83004 0.34491 0.0
H1446 H 0.61695 0.78335 0.33871 0.0
H1447 H 0.6074 0.78723 0.35497 0.0
C1448 C 0.55032 0.65938 0.32223 0.0
C1449 C 0.57264 0.65119 0.33121 0.0
C1450 C 0.538 0.68866 0.32435 0.0
C1451 C 0.54689 0.71063 0.33563 0.0
C1452 C 0.56761 0.701 0.34482 0.0
H1453 H 0.4692 0.87078 0.3706 0.0
H1454 H 0.49223 0.82273 0.36521 0.0
C1455 C 0.5805 0.67221 0.34261 0.0
C1456 C 0.53344 0.74227 0.33786 0.0
H1457 H 0.56492 0.83851 0.34923 0.0
C1458 C 0.49328 0.73293 0.33483 0.0
C1459 C 0.55967 0.78169 0.34286 0.0
C1460 C 0.6041 0.79636 0.34542 0.0
C1461 C 0.47871 0.76066 0.33692 0.0
C1462 C 0.50455 0.79935 0.34225 0.0
C1463 C 0.54471 0.80897 0.3452 0.0
C1464 C 0.49004 0.82941 0.34532 0.0
C1465 C 0.43518 0.74801 0.33369 0.0
C1466 C 0.48079 0.85001 0.33601 0.0
C1467 C 0.46819 0.87864 0.33911 0.0
C1468 C 0.46419 0.88748 0.35163 0.0
C1469 C 0.47254 0.8659 0.36085 0.0
C1470 C 0.48566 0.83796 0.35777 0.0
H1471 H 0.41733 0.71537 0.33111 0.0
H1472 H 0.42004 0.75384 0.34166 0.0
H1473 H 0.43474 0.76642 0.32571 0.0
H1474 H 0.48396 0.84445 0.3263 0.0
H1475 H 0.4623 0.89428 0.33167 0.0
H1476 H 0.60007 0.40926 0.52337 0.0
H1477 H 0.67092 0.4278 0.51916 0.0
H1478 H 0.68858 0.53445 0.49946 0.0
H1479 H 0.61685 0.51476 0.5032 0.0
H1480 H 0.72897 0.50548 0.48739 0.0
H1481 H 0.7706 0.50699 0.53664 0.0
H1482 H 0.73088 0.45754 0.5321 0.0
H1483 H 0.72169 0.49991 0.53202 0.0
C1484 C 0.61885 0.43664 0.51808 0.0
C1485 C 0.60226 0.46076 0.51386 0.0
C1486 C 0.66001 0.44765 0.51579 0.0
C1487 C 0.68667 0.48348 0.50923 0.0
C1488 C 0.66966 0.5069 0.50465 0.0
H1489 H 0.95641 0.59696 0.51109 0.0
H1490 H 0.88488 0.57741 0.51428 0.0
C1491 C 0.62835 0.49575 0.5069 0.0
C1492 C 0.73162 0.49608 0.50704 0.0
H1493 H 0.81905 0.51049 0.5217 0.0
C1494 C 0.74846 0.50657 0.49496 0.0
C1495 C 0.75842 0.49842 0.51677 0.0
C1496 C 0.74465 0.49051 0.53013 0.0
C1497 C 0.78989 0.51829 0.49237 0.0
C1498 C 0.81619 0.51929 0.50205 0.0
C1499 C 0.79957 0.50951 0.51414 0.0
C1500 C 0.86091 0.53122 0.49995 0.0
C1501 C 0.80528 0.53056 0.47925 0.0
C1502 C 0.87279 0.51184 0.49095 0.0
C1503 C 0.91426 0.52306 0.48913 0.0
C1504 C 0.94579 0.55404 0.49627 0.0
C1505 C 0.93376 0.57298 0.50538 0.0
C1506 C 0.89232 0.56171 0.50722 0.0
H1507 H 0.7861 0.54001 0.47393 0.0
H1508 H 0.83723 0.55596 0.47916 0.0
H1509 H 0.80421 0.50422 0.47436 0.0
H1510 H 0.84988 0.4875 0.48536 0.0
H1511 H 0.92157 0.50736 0.48203 0.0
H1512 H 0.43693 0.91949 0.65588 0.0
H1513 H 0.38702 0.84902 0.66036 0.0
H1514 H 0.32841 0.88887 0.68689 0.0
H1515 H 0.37744 0.95999 0.68193 0.0
H1516 H 0.36862 0.80129 0.67867 0.0
H1517 H 0.2288 0.8097 0.6698 0.0
H1518 H 0.27867 0.85129 0.66618 0.0
H1519 H 0.25902 0.84425 0.68183 0.0
C1520 C 0.41344 0.91359 0.66268 0.0
C1521 C 0.41167 0.94622 0.66849 0.0
C1522 C 0.38458 0.87275 0.66526 0.0
C1523 C 0.35269 0.86247 0.67384 0.0
C1524 C 0.35139 0.89505 0.6799 0.0
H1525 H 0.17401 0.63145 0.70812 0.0
H1526 H 0.22292 0.70186 0.70297 0.0
C1527 C 0.37999 0.93613 0.67716 0.0
C1528 C 0.32196 0.81794 0.67652 0.0
H1529 H 0.21962 0.74907 0.67952 0.0
C1530 C 0.33608 0.79014 0.67873 0.0
C1531 C 0.27897 0.80213 0.67659 0.0
C1532 C 0.26042 0.82828 0.67334 0.0
C1533 C 0.30918 0.74831 0.68116 0.0
C1534 C 0.26651 0.73296 0.68152 0.0
C1535 C 0.25222 0.76046 0.67932 0.0
C1536 C 0.23647 0.68889 0.68456 0.0
C1537 C 0.32659 0.72067 0.68358 0.0
C1538 C 0.22722 0.65709 0.67603 0.0
C1539 C 0.19806 0.61626 0.67889 0.0
C1540 C 0.17734 0.60586 0.69042 0.0
C1541 C 0.18786 0.63778 0.69902 0.0
C1542 C 0.21639 0.67843 0.69611 0.0
H1543 H 0.36036 0.73767 0.6843 0.0
H1544 H 0.31376 0.70333 0.69232 0.0
H1545 H 0.31783 0.69835 0.67588 0.0
H1546 H 0.24203 0.66393 0.66702 0.0
H1547 H 0.19105 0.59302 0.67194 0.0
H1548 H 0.49385 0.38889 0.8493 0.0
H1549 H 0.51669 0.33929 0.85259 0.0
H1550 H 0.55217 0.35023 0.81401 0.0
H1551 H 0.53033 0.40078 0.81088 0.0
H1552 H 0.4946 0.26797 0.84512 0.0
H1553 H 0.65199 0.35793 0.82732 0.0
H1554 H 0.61966 0.37997 0.82954 0.0
H1555 H 0.61515 0.35107 0.8157 0.0
C1556 C 0.50623 0.38058 0.84149 0.0
C1557 C 0.50971 0.39884 0.8298 0.0
C1558 C 0.51972 0.35217 0.84339 0.0
C1559 C 0.5372 0.34075 0.83366 0.0
C1560 C 0.54035 0.35888 0.82191 0.0
H1561 H 0.6078 0.14683 0.83091 0.0
H1562 H 0.58899 0.19859 0.8252 0.0
C1563 C 0.52742 0.3878 0.82007 0.0
C1564 C 0.55057 0.30913 0.83581 0.0
H1565 H 0.62881 0.28806 0.83146 0.0
C1566 C 0.52413 0.27282 0.84214 0.0
C1567 C 0.58908 0.31437 0.83198 0.0
C1568 C 0.62075 0.35309 0.82587 0.0
C1569 C 0.53469 0.2424 0.84468 0.0
C1570 C 0.57298 0.24761 0.84085 0.0
C1571 C 0.59931 0.28349 0.83436 0.0
C1572 C 0.58664 0.21706 0.84411 0.0
C1573 C 0.50443 0.20447 0.85141 0.0
C1574 C 0.5928 0.21031 0.85659 0.0
C1575 C 0.60414 0.18119 0.85984 0.0
C1576 C 0.60928 0.15702 0.85078 0.0
C1577 C 0.6042 0.16449 0.83821 0.0
C1578 C 0.59324 0.19418 0.83493 0.0
H1579 H 0.47312 0.2002 0.85108 0.0
H1580 H 0.50397 0.17732 0.84733 0.0
H1581 H 0.51361 0.20673 0.86131 0.0
H1582 H 0.58875 0.22767 0.86392 0.0
H1583 H 0.60863 0.17745 0.8696 0.0
H1584 H 0.09617 0.43953 0.01813 0.0
H1585 H 0.16815 0.46226 0.02275 0.0
H1586 H 0.20453 0.54464 0.99163 0.0
H1587 H 0.13352 0.52368 0.98741 0.0
H1588 H 0.22778 0.45937 0.01231 0.0
H1589 H 0.28156 0.62361 0.01512 0.0
H1590 H 0.22817 0.58674 0.01411 0.0
H1591 H 0.25907 0.60435 1.00023 0.0
C1592 C 0.11949 0.46299 0.01238 0.0
C1593 C 0.10825 0.48016 1.00253 0.0
C1594 C 0.16105 0.47599 0.01501 0.0
C1595 C 0.19307 0.50646 1.00783 0.0
C1596 C 0.18155 0.52263 0.99779 0.0
H1597 H 0.46086 0.59875 1.00314 0.0
H1598 H 0.38934 0.57969 0.99889 0.0
C1599 C 0.14029 0.51022 0.9953 0.0
C1600 C 0.23799 0.52042 0.01054 0.0
H1601 H 0.33339 0.60507 0.01312 0.0
C1602 C 0.25054 0.49132 0.01256 0.0
C1603 C 0.26888 0.56218 0.01102 0.0
C1604 C 0.25868 0.59596 0.01014 0.0
C1605 C 0.292 0.50249 0.01472 0.0
C1606 C 0.32273 0.54406 0.01482 0.0
C1607 C 0.3104 0.57318 0.01286 0.0
C1608 C 0.36732 0.55765 0.01745 0.0
C1609 C 0.3029 0.46956 0.01673 0.0
C1610 C 0.37991 0.55312 0.02938 0.0
C1611 C 0.42099 0.56485 0.03189 0.0
C1612 C 0.45127 0.58092 0.02254 0.0
C1613 C 0.43891 0.58662 0.01065 0.0
C1614 C 0.39769 0.57538 1.00817 0.0
H1615 H 0.27732 0.43898 0.01434 0.0
H1616 H 0.32994 0.47558 0.01107 0.0
H1617 H 0.31088 0.46935 0.02666 0.0
H1618 H 0.35783 0.54046 0.03685 0.0
H1619 H 0.42904 0.56134 0.04126 0.0
H1620 H 0.90153 0.46321 0.1653 0.0
H1621 H 0.85032 0.39295 0.15983 0.0
H1622 H 0.85115 0.35593 0.19769 0.0
H1623 H 0.8993 0.42549 0.20328 0.0
H1624 H 0.84594 0.32163 0.1591 0.0
H1625 H 0.73276 0.30487 0.19438 0.0
H1626 H 0.77714 0.35326 0.19123 0.0
H1627 H 0.78007 0.31762 0.20177 0.0
C1628 C 0.89048 0.44025 0.1725 0.0
C1629 C 0.90524 0.45089 0.1848 0.0
C1630 C 0.86108 0.39967 0.16934 0.0
C1631 C 0.84535 0.36827 0.17835 0.0
C1632 C 0.86094 0.37895 0.19052 0.0
H1633 H 0.69215 0.10192 0.18053 0.0
H1634 H 0.74164 0.1738 0.18399 0.0
C1635 C 0.8895 0.41927 0.1937 0.0
C1636 C 0.8134 0.32453 0.17519 0.0
H1637 H 0.72414 0.24282 0.18561 0.0
C1638 C 0.81916 0.30477 0.16486 0.0
C1639 C 0.77765 0.30154 0.1825 0.0
C1640 C 0.7663 0.32058 0.19299 0.0
C1641 C 0.79159 0.26331 0.162 0.0
C1642 C 0.75694 0.24015 0.16963 0.0
C1643 C 0.75079 0.25993 0.1798 0.0
C1644 C 0.72682 0.19553 0.16726 0.0
C1645 C 0.80021 0.24412 0.15096 0.0
C1646 C 0.70109 0.18282 0.15676 0.0
C1647 C 0.67219 0.14138 0.15484 0.0
C1648 C 0.66824 0.11094 0.16326 0.0
C1649 C 0.69422 0.12381 0.17373 0.0
C1650 C 0.72266 0.16531 0.17575 0.0
H1651 H 0.83138 0.26359 0.1472 0.0
H1652 H 0.7966 0.21409 0.15354 0.0
H1653 H 0.77794 0.23903 0.14347 0.0
H1654 H 0.70294 0.2051 0.15007 0.0
H1655 H 0.65302 0.13318 0.14665 0.0
H1656 H 0.19357 0.58689 0.47928 0.0
H1657 H 0.24402 0.56583 0.48348 0.0
H1658 H 0.20269 0.53942 0.52148 0.0
H1659 H 0.15069 0.55904 0.5171 0.0
H1660 H 0.30804 0.59146 0.49705 0.0
H1661 H 0.20312 0.43694 0.51448 0.0
H1662 H 0.18495 0.46898 0.50801 0.0
H1663 H 0.20195 0.47549 0.52391 0.0
C1664 C 0.1948 0.57632 0.48855 0.0
C1665 C 0.16721 0.57442 0.49777 0.0
C1666 C 0.22416 0.56434 0.49099 0.0
C1667 C 0.22753 0.54992 0.50279 0.0
C1668 C 0.20069 0.5491 0.51216 0.0
H1669 H 0.44714 0.53571 0.52502 0.0
H1670 H 0.3956 0.55552 0.52126 0.0
C1671 C 0.17104 0.56099 0.50969 0.0
C1672 C 0.25958 0.5369 0.50513 0.0
H1673 H 0.27409 0.45972 0.51649 0.0
C1674 C 0.30026 0.56255 0.5013 0.0
C1675 C 0.25048 0.49893 0.51054 0.0
C1676 C 0.2077 0.46829 0.51436 0.0
C1677 C 0.3313 0.55192 0.5028 0.0
C1678 C 0.32243 0.51448 0.50851 0.0
C1679 C 0.2817 0.48854 0.5122 0.0
C1680 C 0.35479 0.50194 0.51073 0.0
C1681 C 0.37332 0.58078 0.49789 0.0
C1682 C 0.34986 0.4645 0.50637 0.0
C1683 C 0.37981 0.45286 0.50853 0.0
C1684 C 0.41582 0.47795 0.51528 0.0
C1685 C 0.42055 0.51538 0.51963 0.0
C1686 C 0.39075 0.52699 0.51744 0.0
H1687 H 0.37242 0.6011 0.49058 0.0
H1688 H 0.39256 0.6002 0.50562 0.0
H1689 H 0.38801 0.56407 0.49394 0.0
H1690 H 0.32273 0.44416 0.50118 0.0
H1691 H 0.37448 0.42393 0.50495 0.0
H1692 H 0.63868 0.1694 0.64878 0.0
H1693 H 0.70801 0.21711 0.65513 0.0
H1694 H 0.66695 0.2128 0.69281 0.0
H1695 H 0.59708 0.16274 0.68653 0.0
H1696 H 0.74383 0.29039 0.66339 0.0
H1697 H 0.76237 0.19888 0.70033 0.0
H1698 H 0.71925 0.17772 0.68993 0.0
H1699 H 0.72045 0.20757 0.70315 0.0
C1700 C 0.64413 0.17789 0.65849 0.0
C1701 C 0.61167 0.16118 0.66712 0.0
C1702 C 0.68425 0.20578 0.66213 0.0
C1703 C 0.6939 0.21867 0.67456 0.0
C1704 C 0.66133 0.20292 0.68321 0.0
H1705 H 0.92743 0.40249 0.70888 0.0
H1706 H 0.85579 0.35251 0.70469 0.0
C1707 C 0.62094 0.1745 0.67957 0.0
C1708 C 0.73767 0.24921 0.67815 0.0
H1709 H 0.8159 0.26707 0.69823 0.0
C1710 C 0.75937 0.28494 0.67101 0.0
C1711 C 0.75893 0.24293 0.68807 0.0
C1712 C 0.73926 0.20455 0.69574 0.0
C1713 C 0.80061 0.31398 0.67348 0.0
C1714 C 0.8218 0.30768 0.68337 0.0
C1715 C 0.80012 0.27234 0.69064 0.0
C1716 C 0.86633 0.33726 0.68617 0.0
C1717 C 0.82107 0.35171 0.66553 0.0
C1718 C 0.89712 0.34541 0.67735 0.0
C1719 C 0.93836 0.3739 0.67978 0.0
C1720 C 0.95046 0.39551 0.6911 0.0
C1721 C 0.91967 0.38688 0.7 0.0
C1722 C 0.87844 0.35802 0.69763 0.0
H1723 H 0.79855 0.35709 0.66044 0.0
H1724 H 0.84057 0.37889 0.67128 0.0
H1725 H 0.84079 0.34817 0.65856 0.0
H1726 H 0.88926 0.32975 0.66848 0.0
H1727 H 0.96058 0.37971 0.67262 0.0
H1728 H 0.59701 0.93668 0.83554 0.0
H1729 H 0.57451 0.86471 0.83215 0.0
H1730 H 0.52757 0.83813 0.8696 0.0
H1731 H 0.54949 0.91019 0.87286 0.0
H1732 H 0.59292 0.8127 0.8411 0.0
H1733 H 0.43055 0.75121 0.85315 0.0
H1734 H 0.46497 0.80497 0.85152 0.0
H1735 H 0.46343 0.77919 0.86579 0.0
C1736 C 0.58224 0.91571 0.8431 0.0
C1737 C 0.5755 0.92988 0.85451 0.0
C1738 C 0.56895 0.87407 0.84113 0.0
C1739 C 0.54827 0.84475 0.85049 0.0
C1740 C 0.542 0.85906 0.86197 0.0
H1741 H 0.46923 0.57917 0.85317 0.0
H1742 H 0.48937 0.64973 0.85892 0.0
C1743 C 0.5549 0.9007 0.86389 0.0
C1744 C 0.53445 0.7999 0.84826 0.0
H1745 H 0.45272 0.70273 0.8505 0.0
C1746 C 0.56214 0.78892 0.84315 0.0
C1747 C 0.49423 0.76783 0.85085 0.0
C1748 C 0.46147 0.77635 0.8555 0.0
C1749 C 0.55114 0.7479 0.84069 0.0
C1750 C 0.51115 0.71603 0.84333 0.0
C1751 C 0.48351 0.72671 0.84855 0.0
C1752 C 0.49718 0.67203 0.84001 0.0
C1753 C 0.58266 0.73875 0.83534 0.0
C1754 C 0.4937 0.66005 0.82749 0.0
C1755 C 0.48157 0.61962 0.82419 0.0
C1756 C 0.47299 0.58933 0.83326 0.0
C1757 C 0.4756 0.6011 0.84585 0.0
C1758 C 0.48729 0.64175 0.84917 0.0
H1759 H 0.61399 0.76505 0.83615 0.0
H1760 H 0.58148 0.71218 0.84012 0.0
H1761 H 0.57604 0.73106 0.82534 0.0
H1762 H 0.50038 0.68214 0.82017 0.0
H1763 H 0.47915 0.61221 0.81439 0.0
H1764 H 0.69992 0.6088 0.01076 0.0
H1765 H 0.75107 0.58811 1.00729 0.0
H1766 H 0.68525 0.48573 0.03168 0.0
H1767 H 0.63441 0.50685 0.03533 0.0
H1768 H 0.76378 0.5168 0.03618 0.0
H1769 H 0.74725 0.50213 0.98505 0.0
H1770 H 0.76088 0.55219 0.99036 0.0
H1771 H 0.7124 0.50967 0.99468 0.0
C1772 C 0.69597 0.58182 0.01535 0.0
C1773 C 0.66215 0.55969 0.02324 0.0
C1774 C 0.72544 0.56962 0.01328 0.0
C1775 C 0.72227 0.53447 0.01894 0.0
C1776 C 0.68894 0.51274 0.02703 0.0
H1777 H 0.85626 0.40916 0.99438 0.0
H1778 H 0.80559 0.43025 0.99884 0.0
C1779 C 0.6595 0.52497 0.02911 0.0
C1780 C 0.75363 0.52069 0.01665 0.0
H1781 H 0.8028 0.49766 0.99372 0.0
C1782 C 0.77211 0.51263 0.02686 0.0
C1783 C 0.76483 0.51437 1.00454 0.0
C1784 C 0.74504 0.51962 0.99303 0.0
C1785 C 0.80111 0.49929 0.02536 0.0
C1786 C 0.81321 0.49416 0.01325 0.0
C1787 C 0.79437 0.50172 1.00304 0.0
C1788 C 0.84444 0.48028 0.01095 0.0
C1789 C 0.81764 0.48974 0.03687 0.0
C1790 C 0.88389 0.50074 0.0162 0.0
C1791 C 0.91311 0.48854 0.01364 0.0
C1792 C 0.90421 0.45561 1.00564 0.0
C1793 C 0.8645 0.43454 1.00062 0.0
C1794 C 0.83539 0.44689 1.00311 0.0
H1795 H 0.79698 0.48319 0.04496 0.0
H1796 H 0.82221 0.46323 0.03535 0.0
H1797 H 0.84746 0.51641 0.03929 0.0
H1798 H 0.89271 0.52708 0.02205 0.0
H1799 H 0.94312 0.50552 0.01775 0.0
H1800 H 0.44845 0.86734 0.14571 0.0
H1801 H 0.3779 0.81816 0.15078 0.0
H1802 H 0.40792 0.83357 0.18981 0.0
H1803 H 0.47828 0.88506 0.18473 0.0
H1804 H 0.33904 0.74801 0.16034 0.0
H1805 H 0.3103 0.84528 0.1924 0.0
H1806 H 0.35639 0.86486 0.18336 0.0
H1807 H 0.35135 0.83819 0.19773 0.0
C1808 C 0.44009 0.86086 0.15542 0.0
C1809 C 0.46948 0.88141 0.16476 0.0
C1810 C 0.39937 0.83212 0.15834 0.0
C1811 C 0.38613 0.8222 0.17077 0.0
C1812 C 0.41603 0.8412 0.18014 0.0
H1813 H 0.15017 0.63561 0.20294 0.0
H1814 H 0.22212 0.68502 0.19896 0.0
C1815 C 0.45686 0.87042 0.17721 0.0
C1816 C 0.34158 0.79167 0.1737 0.0
H1817 H 0.25898 0.77552 0.19157 0.0
C1818 C 0.32178 0.75446 0.16715 0.0
C1819 C 0.31782 0.79918 0.18252 0.0
C1820 C 0.33487 0.83919 0.1893 0.0
C1821 C 0.28025 0.72515 0.16922 0.0
C1822 C 0.25692 0.73243 0.17816 0.0
C1823 C 0.2765 0.76938 0.18477 0.0
C1824 C 0.21227 0.7022 0.18064 0.0
C1825 C 0.26154 0.68608 0.1619 0.0
C1826 C 0.18182 0.69475 0.17176 0.0
C1827 C 0.1403 0.66662 0.1741 0.0
C1828 C 0.1276 0.64467 0.18536 0.0
C1829 C 0.15827 0.65174 0.19416 0.0
C1830 C 0.19971 0.6803 0.1919 0.0
H1831 H 0.28483 0.68189 0.1568 0.0
H1832 H 0.2443 0.65967 0.16817 0.0
H1833 H 0.23973 0.68634 0.15502 0.0
H1834 H 0.19014 0.71086 0.16298 0.0
H1835 H 0.11828 0.66147 0.16693 0.0
H1836 H 0.59099 0.43249 0.31366 0.0
H1837 H 0.56917 0.36235 0.31909 0.0
H1838 H 0.59206 0.39587 0.35779 0.0
H1839 H 0.61153 0.46625 0.35238 0.0
H1840 H 0.60261 0.32409 0.32779 0.0
H1841 H 0.48435 0.29912 0.36253 0.0
H1842 H 0.50828 0.34419 0.35301 0.0
H1843 H 0.53341 0.34023 0.36678 0.0
C1844 C 0.59071 0.42517 0.32339 0.0
C1845 C 0.60231 0.45578 0.33254 0.0
C1846 C 0.57846 0.38453 0.32651 0.0
C1847 C 0.57768 0.37238 0.33895 0.0
C1848 C 0.59065 0.40318 0.34813 0.0
H1849 H 0.53071 0.13504 0.37042 0.0
H1850 H 0.55333 0.20728 0.3668 0.0
C1851 C 0.60246 0.44402 0.345 0.0
C1852 C 0.56443 0.32802 0.34201 0.0
H1853 H 0.50164 0.24682 0.36069 0.0
C1854 C 0.58036 0.30747 0.33498 0.0
C1855 C 0.53515 0.3051 0.35135 0.0
C1856 C 0.51397 0.3231 0.35876 0.0
C1857 C 0.56844 0.26596 0.33701 0.0
C1858 C 0.5396 0.24334 0.34639 0.0
C1859 C 0.52389 0.26374 0.35353 0.0
C1860 C 0.52509 0.19854 0.34871 0.0
C1861 C 0.5872 0.24653 0.32913 0.0
C1862 C 0.50139 0.1686 0.33985 0.0
C1863 C 0.48796 0.12698 0.34199 0.0
C1864 C 0.49782 0.11355 0.35303 0.0
C1865 C 0.5221 0.14367 0.36182 0.0
C1866 C 0.53506 0.18529 0.35976 0.0
H1867 H 0.61428 0.26942 0.32391 0.0
H1868 H 0.59635 0.22821 0.33499 0.0
H1869 H 0.56433 0.22573 0.3223 0.0
H1870 H 0.49304 0.17741 0.33123 0.0
H1871 H 0.47051 0.1054 0.33483 0.0
H1872 H 0.19006 0.72854 0.47576 0.0
H1873 H 0.23554 0.77692 0.46004 0.0
H1874 H 0.17439 0.68773 0.43132 0.0
H1875 H 0.12925 0.63924 0.44686 0.0
H1876 H 0.28786 0.76178 0.44144 0.0
H1877 H 0.17369 0.7946 0.41958 0.0
H1878 H 0.16812 0.77534 0.43527 0.0
H1879 H 0.15825 0.74199 0.42228 0.0
C1880 C 0.18622 0.71919 0.4661 0.0
C1881 C 0.15591 0.67977 0.46265 0.0
C1882 C 0.21232 0.74692 0.45711 0.0
C1883 C 0.20826 0.73615 0.44445 0.0
C1884 C 0.17798 0.69695 0.44099 0.0
H1885 H 0.32389 0.86173 0.37496 0.0
H1886 H 0.27896 0.81458 0.39093 0.0
C1887 C 0.15227 0.66912 0.44995 0.0
C1888 C 0.23598 0.7654 0.43484 0.0
H1889 H 0.2379 0.82209 0.40975 0.0
C1890 C 0.27704 0.77519 0.43455 0.0
C1891 C 0.2218 0.78249 0.42574 0.0
C1892 C 0.17814 0.77343 0.4257 0.0
C1893 C 0.30405 0.80096 0.42531 0.0
C1894 C 0.2901 0.8187 0.41628 0.0
C1895 C 0.24891 0.80879 0.41661 0.0
C1896 C 0.31767 0.84764 0.40649 0.0
C1897 C 0.34692 0.80765 0.42511 0.0
C1898 C 0.3543 0.88257 0.40977 0.0
C1899 C 0.3803 0.90931 0.40064 0.0
C1900 C 0.37013 0.90243 0.38791 0.0
C1901 C 0.33293 0.86805 0.38463 0.0
C1902 C 0.3071 0.84101 0.39379 0.0
H1903 H 0.34874 0.78236 0.42977 0.0
H1904 H 0.35844 0.81049 0.41545 0.0
H1905 H 0.3673 0.83603 0.43022 0.0
H1906 H 0.36279 0.88946 0.41946 0.0
H1907 H 0.40826 0.93574 0.4036 0.0
H1908 H 0.56151 0.37198 0.54798 0.0
H1909 H 0.5623 0.32538 0.56367 0.0
H1910 H 0.45052 0.31113 0.57927 0.0
H1911 H 0.45166 0.36019 0.56411 0.0
H1912 H 0.49412 0.31426 0.59725 0.0
H1913 H 0.50322 0.20694 0.56442 0.0
H1914 H 0.54666 0.2565 0.56262 0.0
H1915 H 0.49639 0.24834 0.55919 0.0
C1916 C 0.53717 0.3588 0.55479 0.0
C1917 C 0.50643 0.36947 0.55484 0.0
C1918 C 0.53731 0.33171 0.56369 0.0
C1919 C 0.50583 0.31341 0.57257 0.0
C1920 C 0.47516 0.32441 0.57258 0.0
H1921 H 0.46771 0.10101 0.61617 0.0
H1922 H 0.46569 0.14741 0.60061 0.0
C1923 C 0.47572 0.35244 0.5639 0.0
C1924 C 0.50546 0.28395 0.58206 0.0
H1925 H 0.51732 0.20043 0.58574 0.0
C1926 C 0.49887 0.2892 0.59466 0.0
C1927 C 0.51086 0.25048 0.57885 0.0
C1928 C 0.51422 0.23996 0.56552 0.0
C1929 C 0.49806 0.26269 0.60402 0.0
C1930 C 0.50595 0.23078 0.60088 0.0
C1931 C 0.51193 0.22513 0.58828 0.0
C1932 C 0.5074 0.20251 0.61043 0.0
C1933 C 0.48738 0.26853 0.61712 0.0
C1934 C 0.53203 0.21756 0.62111 0.0
C1935 C 0.53263 0.19097 0.6301 0.0
C1936 C 0.50945 0.14868 0.62849 0.0
C1937 C 0.48602 0.1335 0.61763 0.0
C1938 C 0.4848 0.16008 0.60874 0.0
H1939 H 0.46914 0.28429 0.61719 0.0
H1940 H 0.4698 0.23903 0.62202 0.0
H1941 H 0.51581 0.2877 0.6224 0.0
H1942 H 0.55105 0.24995 0.6225 0.0
H1943 H 0.55169 0.20351 0.63825 0.0
H1944 H 0.42583 0.51832 0.78335 0.0
H1945 H 0.37993 0.52156 0.768 0.0
H1946 H 0.27825 0.45525 0.79272 0.0
H1947 H 0.32405 0.4515 0.80821 0.0
H1948 H 0.26174 0.42646 0.7681 0.0
H1949 H 0.32746 0.59376 0.76906 0.0
H1950 H 0.36432 0.57776 0.76624 0.0
H1951 H 0.33817 0.56659 0.78093 0.0
C1952 C 0.39375 0.50447 0.78562 0.0
C1953 C 0.3789 0.4848 0.79715 0.0
C1954 C 0.36748 0.50659 0.7768 0.0
C1955 C 0.32557 0.48923 0.77921 0.0
C1956 C 0.31046 0.46913 0.79063 0.0
H1957 H 0.15069 0.53008 0.73707 0.0
H1958 H 0.19626 0.5276 0.75277 0.0
C1959 C 0.33679 0.46711 0.79952 0.0
C1960 C 0.29763 0.4915 0.76972 0.0
H1961 H 0.2804 0.55828 0.7528 0.0
C1962 C 0.26578 0.4553 0.76479 0.0
C1963 C 0.30243 0.52907 0.76545 0.0
C1964 C 0.33468 0.56903 0.77076 0.0
C1965 C 0.23931 0.45566 0.75557 0.0
C1966 C 0.24495 0.49325 0.75101 0.0
C1967 C 0.27625 0.52943 0.75614 0.0
C1968 C 0.21807 0.49566 0.74116 0.0
C1969 C 0.20505 0.41568 0.75095 0.0
C1970 C 0.21558 0.47935 0.72922 0.0
C1971 C 0.18955 0.48086 0.72013 0.0
C1972 C 0.16533 0.49881 0.72275 0.0
C1973 C 0.16868 0.51595 0.73464 0.0
C1974 C 0.19481 0.51455 0.74368 0.0
H1975 H 0.19863 0.39037 0.75744 0.0
H1976 H 0.17669 0.41733 0.74966 0.0
H1977 H 0.21365 0.40844 0.74181 0.0
H1978 H 0.23373 0.4653 0.72691 0.0
H1979 H 0.18797 0.46732 0.71113 0.0
H1980 H 0.65243 0.1285 0.90177 0.0
H1981 H 0.69812 0.17691 0.91723 0.0
H1982 H 0.79923 0.21482 0.89197 0.0
H1983 H 0.75365 0.1668 0.87635 0.0
H1984 H 0.76528 0.18217 0.92889 0.0
H1985 H 0.81082 0.32338 0.90205 0.0
H1986 H 0.76847 0.27496 0.89752 0.0
H1987 H 0.81983 0.28691 0.89404 0.0
C1988 C 0.68433 0.14722 0.89941 0.0
C1989 C 0.69907 0.14367 0.88768 0.0
C1990 C 0.71053 0.17496 0.90832 0.0
C1991 C 0.7522 0.20019 0.90578 0.0
C1992 C 0.76713 0.19651 0.89413 0.0
H1993 H 0.95823 0.38217 0.94943 0.0
H1994 H 0.91383 0.3349 0.93335 0.0
C1995 C 0.74094 0.16874 0.88519 0.0
C1996 C 0.77994 0.22953 0.91542 0.0
H1997 H 0.84636 0.33038 0.92091 0.0
C1998 C 0.78283 0.21459 0.92714 0.0
C1999 C 0.80313 0.27196 0.91321 0.0
C2000 C 0.80024 0.29041 0.90107 0.0
C2001 C 0.80847 0.24059 0.93657 0.0
C2002 C 0.8315 0.283 0.93438 0.0
C2003 C 0.8288 0.29795 0.92264 0.0
C2004 C 0.85841 0.31227 0.94414 0.0
C2005 C 0.81156 0.22229 0.94872 0.0
C2006 C 0.84216 0.31619 0.95551 0.0
C2007 C 0.8675 0.34337 0.96468 0.0
C2008 C 0.90975 0.36713 0.96275 0.0
C2009 C 0.92584 0.36407 0.95125 0.0
C2010 C 0.90048 0.33697 0.94205 0.0
H2011 H 0.80013 0.18913 0.94787 0.0
H2012 H 0.84359 0.23728 0.95203 0.0
H2013 H 0.79298 0.22682 0.95588 0.0
H2014 H 0.80973 0.29845 0.95727 0.0
H2015 H 0.85391 0.34608 0.97325 0.0
H2016 H 0.56665 0.93283 0.11338 0.0
H2017 H 0.56323 0.88482 0.0976 0.0
H2018 H 0.57657 0.81198 0.12607 0.0
H2019 H 0.58139 0.86071 0.14191 0.0
H2020 H 0.62219 0.81764 0.10676 0.0
H2021 H 0.46966 0.77711 0.08854 0.0
H2022 H 0.50452 0.83063 0.08754 0.0
H2023 H 0.48987 0.80649 0.10257 0.0
C2024 C 0.56861 0.90649 0.11634 0.0
C2025 C 0.57398 0.90068 0.12901 0.0
C2026 C 0.56634 0.87875 0.10726 0.0
C2027 C 0.56858 0.84391 0.11057 0.0
C2028 C 0.57444 0.83831 0.1232 0.0
H2029 H 0.54959 0.63332 0.07084 0.0
H2030 H 0.55186 0.68175 0.08631 0.0
C2031 C 0.57716 0.8663 0.13229 0.0
C2032 C 0.56593 0.81401 0.10087 0.0
H2033 H 0.50812 0.75472 0.07658 0.0
C2034 C 0.59705 0.80376 0.10024 0.0
C2035 C 0.53316 0.79552 0.09227 0.0
C2036 C 0.49722 0.80265 0.09283 0.0
C2037 C 0.59665 0.77642 0.09123 0.0
C2038 C 0.56423 0.75849 0.08256 0.0
C2039 C 0.53314 0.76864 0.08315 0.0
C2040 C 0.5618 0.72858 0.07299 0.0
C2041 C 0.63132 0.76732 0.09091 0.0
C2042 C 0.56581 0.73825 0.06025 0.0
C2043 C 0.56467 0.71055 0.0513 0.0
C2044 C 0.55885 0.67218 0.05487 0.0
C2045 C 0.55391 0.66234 0.06765 0.0
C2046 C 0.55549 0.69019 0.07657 0.0
H2047 H 0.65782 0.78948 0.09648 0.0
H2048 H 0.62077 0.73653 0.09479 0.0
H2049 H 0.64145 0.76757 0.08118 0.0
H2050 H 0.57054 0.76758 0.05723 0.0
H2051 H 0.56857 0.71932 0.04159 0.0
H2052 H 0.74467 0.56696 0.3096 0.0
H2053 H 0.79059 0.56603 0.29354 0.0
H2054 H 0.70586 0.5561 0.26505 0.0
H2055 H 0.65988 0.55683 0.28092 0.0
H2056 H 0.77226 0.50356 0.27423 0.0
H2057 H 0.81681 0.65511 0.25413 0.0
H2058 H 0.79484 0.64012 0.26948 0.0
H2059 H 0.76298 0.62138 0.25595 0.0
C2060 C 0.73575 0.56457 0.29992 0.0
C2061 C 0.69835 0.5619 0.29663 0.0
C2062 C 0.76208 0.564 0.29073 0.0
C2063 C 0.752 0.56144 0.27804 0.0
C2064 C 0.71468 0.55862 0.27474 0.0
H2065 H 0.87501 0.56764 0.20802 0.0
H2066 H 0.82839 0.56686 0.22408 0.0
C2067 C 0.68822 0.55877 0.28389 0.0
C2068 C 0.78006 0.56115 0.26821 0.0
H2069 H 0.83901 0.61498 0.2434 0.0
C2070 C 0.78705 0.52802 0.26753 0.0
C2071 C 0.79904 0.5928 0.25935 0.0
C2072 C 0.79342 0.62959 0.25975 0.0
C2073 C 0.81179 0.52531 0.25814 0.0
C2074 C 0.83135 0.55727 0.24935 0.0
C2075 C 0.82424 0.59041 0.25006 0.0
C2076 C 0.8596 0.5572 0.23948 0.0
C2077 C 0.81557 0.48745 0.25755 0.0
C2078 C 0.89325 0.55261 0.24266 0.0
C2079 C 0.91968 0.55257 0.23348 0.0
C2080 C 0.91375 0.55783 0.22081 0.0
C2081 C 0.88053 0.56327 0.21763 0.0
C2082 C 0.85381 0.5629 0.22685 0.0
H2083 H 0.78914 0.46121 0.26203 0.0
H2084 H 0.81785 0.47915 0.24778 0.0
H2085 H 0.84342 0.49286 0.26261 0.0
H2086 H 0.8995 0.54954 0.25231 0.0
H2087 H 0.94524 0.54903 0.23639 0.0
H2088 H 0.86126 0.49707 0.43469 0.0
H2089 H 0.79439 0.44032 0.42901 0.0
H2090 H 0.84824 0.36413 0.42319 0.0
H2091 H 0.91526 0.42094 0.42838 0.0
H2092 H 0.79513 0.35938 0.40416 0.0
H2093 H 0.72563 0.34094 0.45114 0.0
H2094 H 0.74722 0.39069 0.44432 0.0
H2095 H 0.77988 0.37068 0.44858 0.0
C2096 C 0.85886 0.46832 0.43208 0.0
C2097 C 0.89343 0.46333 0.43203 0.0
C2098 C 0.82064 0.43589 0.42897 0.0
C2099 C 0.81646 0.39803 0.42586 0.0
C2100 C 0.85094 0.39315 0.42563 0.0
H2101 H 0.64697 0.15232 0.41238 0.0
H2102 H 0.70509 0.22046 0.41503 0.0
C2103 C 0.8891 0.4255 0.4287 0.0
C2104 C 0.77629 0.36313 0.42281 0.0
H2105 H 0.68492 0.295 0.43559 0.0
C2106 C 0.77085 0.34551 0.41098 0.0
C2107 C 0.74473 0.34537 0.43174 0.0
C2108 C 0.74953 0.36259 0.4447 0.0
C2109 C 0.73504 0.30971 0.40796 0.0
C2110 C 0.70425 0.29109 0.41705 0.0
C2111 C 0.7088 0.30961 0.42868 0.0
C2112 C 0.66891 0.25044 0.41505 0.0
C2113 C 0.73069 0.29153 0.39517 0.0
C2114 C 0.62945 0.24499 0.41438 0.0
C2115 C 0.59614 0.20608 0.41275 0.0
C2116 C 0.60192 0.17214 0.41191 0.0
C2117 C 0.6416 0.1779 0.41273 0.0
C2118 C 0.67479 0.21673 0.41427 0.0
H2119 H 0.75188 0.31431 0.38838 0.0
H2120 H 0.73784 0.26641 0.39568 0.0
H2121 H 0.69899 0.27877 0.3917 0.0
H2122 H 0.62452 0.27081 0.41503 0.0
H2123 H 0.56595 0.20262 0.41203 0.0
H2124 H 0.44698 0.86658 0.58941 0.0
H2125 H 0.43551 0.79774 0.58667 0.0
H2126 H 0.41947 0.77789 0.62632 0.0
H2127 H 0.43196 0.84744 0.62912 0.0
H2128 H 0.47286 0.7587 0.61799 0.0
H2129 H 0.33897 0.68607 0.58716 0.0
H2130 H 0.37647 0.73339 0.58057 0.0
H2131 H 0.35304 0.73304 0.59524 0.0
C2132 C 0.44004 0.84719 0.5975 0.0
C2133 C 0.44044 0.86224 0.60947 0.0
C2134 C 0.4332 0.80774 0.59593 0.0
C2135 C 0.42587 0.78235 0.60627 0.0
C2136 C 0.42481 0.79688 0.61821 0.0
H2137 H 0.39925 0.54309 0.58894 0.0
H2138 H 0.38373 0.59415 0.59729 0.0
C2139 C 0.4321 0.83656 0.6198 0.0
C2140 C 0.4246 0.74288 0.60466 0.0
H2141 H 0.38597 0.65927 0.58592 0.0
C2142 C 0.45319 0.73651 0.61118 0.0
C2143 C 0.39845 0.71347 0.59596 0.0
C2144 C 0.36472 0.71667 0.58946 0.0
C2145 C 0.45836 0.70308 0.60857 0.0
C2146 C 0.43511 0.676 0.59896 0.0
C2147 C 0.40441 0.6806 0.5931 0.0
C2148 C 0.44437 0.64476 0.59424 0.0
C2149 C 0.48932 0.69762 0.61597 0.0
C2150 C 0.48337 0.65644 0.58958 0.0
C2151 C 0.49246 0.62743 0.58496 0.0
C2152 C 0.46252 0.58616 0.58473 0.0
C2153 C 0.42317 0.57458 0.58918 0.0
C2154 C 0.41417 0.60368 0.59388 0.0
H2155 H 0.49358 0.71125 0.62539 0.0
H2156 H 0.48014 0.665 0.61698 0.0
H2157 H 0.51916 0.71331 0.61112 0.0
H2158 H 0.50682 0.68814 0.58948 0.0
H2159 H 0.52312 0.63732 0.58171 0.0
H2160 H 0.61552 0.44338 0.75455 0.0
H2161 H 0.67054 0.42736 0.75469 0.0
H2162 H 0.65576 0.40634 0.79432 0.0
H2163 H 0.60066 0.42317 0.79424 0.0
H2164 H 0.73304 0.45571 0.78853 0.0
H2165 H 0.67497 0.32416 0.75701 0.0
H2166 H 0.67048 0.36418 0.74961 0.0
H2167 H 0.64212 0.34133 0.76366 0.0
C2168 C 0.62335 0.43446 0.76325 0.0
C2169 C 0.60384 0.4344 0.77437 0.0
C2170 C 0.65465 0.42505 0.76331 0.0
C2171 C 0.66665 0.41472 0.77446 0.0
C2172 C 0.64668 0.41385 0.78559 0.0
H2173 H 0.87295 0.3731 0.76152 0.0
H2174 H 0.80683 0.36059 0.76924 0.0
C2175 C 0.61545 0.42364 0.78555 0.0
C2176 C 0.70304 0.40955 0.77451 0.0
H2177 H 0.74923 0.3678 0.75743 0.0
C2178 C 0.73628 0.43573 0.78195 0.0
C2179 C 0.70708 0.3828 0.76617 0.0
C2180 C 0.6715 0.35124 0.75879 0.0
C2181 C 0.77445 0.43844 0.78048 0.0
C2182 C 0.77961 0.41519 0.77108 0.0
C2183 C 0.74552 0.38637 0.76443 0.0
C2184 C 0.82047 0.42295 0.76719 0.0
C2185 C 0.80904 0.467 0.78878 0.0
C2186 C 0.84987 0.46204 0.76334 0.0
C2187 C 0.88779 0.46941 0.75906 0.0
C2188 C 0.89687 0.43764 0.7583 0.0
C2189 C 0.86718 0.39837 0.76208 0.0
C2190 C 0.8293 0.3911 0.76647 0.0
H2191 H 0.79753 0.47006 0.79801 0.0
H2192 H 0.83148 0.45646 0.7902 0.0
H2193 H 0.82486 0.49762 0.78446 0.0
H2194 H 0.84332 0.48687 0.76349 0.0
H2195 H 0.91004 0.50012 0.75642 0.0
H2196 H 0.37488 0.95566 0.92603 0.0
H2197 H 0.3159 0.88853 0.92928 0.0
H2198 H 0.31637 0.86075 0.89038 0.0
H2199 H 0.37422 0.9288 0.88688 0.0
H2200 H 0.23797 0.82767 0.90028 0.0
H2201 H 0.33807 0.79313 0.92958 0.0
H2202 H 0.33463 0.83627 0.93493 0.0
H2203 H 0.35751 0.83818 0.92007 0.0
C2204 C 0.36171 0.93588 0.91807 0.0
C2205 C 0.3797 0.94736 0.90622 0.0
C2206 C 0.32829 0.89731 0.91998 0.0
C2207 C 0.31267 0.86941 0.91014 0.0
C2208 C 0.32841 0.88176 0.89812 0.0
H2209 H 0.18273 0.60966 0.92415 0.0
H2210 H 0.22981 0.67701 0.91589 0.0
C2211 C 0.36162 0.92051 0.89617 0.0
C2212 C 0.28237 0.82647 0.91259 0.0
H2213 H 0.26778 0.74404 0.92945 0.0
C2214 C 0.24441 0.80923 0.90661 0.0
C2215 C 0.29141 0.8023 0.9206 0.0
C2216 C 0.33275 0.81822 0.92657 0.0
C2217 C 0.21464 0.76862 0.90876 0.0
C2218 C 0.22296 0.74516 0.91729 0.0
C2219 C 0.26135 0.76217 0.92298 0.0
C2220 C 0.19213 0.70329 0.92083 0.0
C2221 C 0.17487 0.75119 0.90176 0.0
C2222 C 0.15518 0.69564 0.92623 0.0
C2223 C 0.12796 0.65706 0.9308 0.0
C2224 C 0.13751 0.62554 0.93024 0.0
C2225 C 0.17422 0.6331 0.9246 0.0
C2226 C 0.20126 0.67162 0.91994 0.0
H2227 H 0.17833 0.76787 0.89293 0.0
H2228 H 0.16283 0.71853 0.89959 0.0
H2229 H 0.1521 0.75404 0.90757 0.0
H2230 H 0.1479 0.71982 0.92728 0.0
H2231 H 0.09967 0.6521 0.93492 0.0
H2232 H 0.68664 0.20137 0.10328 0.0
H2233 H 0.69987 0.27016 0.09881 0.0
H2234 H 0.57266 0.23126 0.10459 0.0
H2235 H 0.55866 0.16207 0.10821 0.0
H2236 H 0.59967 0.27151 0.08335 0.0
H2237 H 0.70751 0.35895 0.12128 0.0
H2238 H 0.72337 0.33015 0.11182 0.0
H2239 H 0.67835 0.30415 0.12127 0.0
C2240 C 0.66144 0.20743 0.10356 0.0
C2241 C 0.62151 0.17608 0.10604 0.0
C2242 C 0.66921 0.24694 0.10119 0.0
C2243 C 0.63734 0.25592 0.1015 0.0
C2244 C 0.59774 0.22498 0.10434 0.0
H2245 H 0.62321 0.47236 0.10457 0.0
H2246 H 0.63505 0.41543 0.10857 0.0
C2247 C 0.58985 0.18547 0.10654 0.0
C2248 C 0.64416 0.29663 0.09802 0.0
H2249 H 0.69512 0.39694 0.1061 0.0
C2250 C 0.62063 0.29899 0.0883 0.0
C2251 C 0.67153 0.33232 0.10451 0.0
C2252 C 0.69639 0.33139 0.11537 0.0
C2253 C 0.62251 0.33575 0.08515 0.0
C2254 C 0.65001 0.37158 0.09159 0.0
C2255 C 0.67447 0.3695 0.10109 0.0
C2256 C 0.65038 0.41039 0.08947 0.0
C2257 C 0.59338 0.33527 0.07541 0.0
C2258 C 0.65692 0.42759 0.07753 0.0
C2259 C 0.64931 0.45953 0.07519 0.0
C2260 C 0.63624 0.47536 0.08484 0.0
C2261 C 0.63324 0.46053 0.09699 0.0
C2262 C 0.64006 0.42811 0.09927 0.0
H2263 H 0.56798 0.30403 0.07361 0.0
H2264 H 0.58013 0.35448 0.0783 0.0
H2265 H 0.61002 0.34739 0.06653 0.0
H2266 H 0.66603 0.41508 0.06991 0.0
H2267 H 0.65242 0.47107 0.06579 0.0
H2268 H 0.43372 0.54614 0.26638 0.0
H2269 H 0.37767 0.55659 0.26007 0.0
H2270 H 0.46006 0.68573 0.25743 0.0
H2271 H 0.5158 0.67597 0.26475 0.0
H2272 H 0.39373 0.67293 0.26827 0.0
H2273 H 0.34972 0.57704 0.22622 0.0
H2274 H 0.3485 0.54783 0.23949 0.0
H2275 H 0.39614 0.59061 0.23459 0.0
C2276 C 0.43996 0.57686 0.26462 0.0
C2277 C 0.47942 0.61019 0.26606 0.0
C2278 C 0.40795 0.5827 0.26076 0.0
C2279 C 0.41489 0.62181 0.25792 0.0
C2280 C 0.45412 0.6552 0.25941 0.0
H2281 H 0.20487 0.62765 0.22542 0.0
H2282 H 0.27463 0.63971 0.22797 0.0
C2283 C 0.48604 0.64949 0.26349 0.0
C2284 C 0.38064 0.62788 0.25405 0.0
H2285 H 0.29772 0.58946 0.23499 0.0
C2286 C 0.37312 0.6552 0.26084 0.0
C2287 C 0.35438 0.60572 0.24412 0.0
C2288 C 0.36293 0.57906 0.23561 0.0
C2289 C 0.33869 0.65909 0.25847 0.0
C2290 C 0.31025 0.63379 0.24941 0.0
C2291 C 0.3191 0.60835 0.24211 0.0
C2292 C 0.26989 0.63087 0.24796 0.0
C2293 C 0.33321 0.69015 0.26577 0.0
C2294 C 0.24417 0.622 0.25832 0.0
C2295 C 0.20485 0.61592 0.2569 0.0
C2296 C 0.19021 0.61746 0.24504 0.0
C2297 C 0.21573 0.6263 0.23465 0.0
C2298 C 0.25543 0.63321 0.23611 0.0
H2299 H 0.36317 0.71651 0.26832 0.0
H2300 H 0.31559 0.70144 0.26044 0.0
H2301 H 0.31677 0.67617 0.27455 0.0
H2302 H 0.25401 0.61852 0.26748 0.0
H2303 H 0.18534 0.60853 0.265 0.0
loop_
_geom_bond_atom_site_label_1
_geom_bond_atom_site_label_2
_geom_bond_distance
_geom_bond_site_symmetry_2
_ccdc_geom_bond_type
Eu0 N29 2.600 1_565 S
Eu0 N35 2.562 . S
Eu0 O44 2.462 . S
Eu0 O45 2.373 1_565 S
Eu0 O47 2.432 . S
Eu0 O48 2.291 . S
Eu0 O52 2.335 . S
Eu0 O55 2.372 1_565 S
Eu0 C64 2.787 . S
C1 N2 1.365 . S
C1 C4 1.405 . S
C1 C8 1.448 . S
N2 C1 1.365 . S
N2 C5 1.319 . S
N2 Eu11 2.600 1_565 S
C3 C5 1.397 . S
C3 C6 1.367 . S
C3 H23 0.931 . S
C4 C1 1.405 . S
C4 C6 1.403 . S
C4 C10 1.439 . S
C5 N2 1.319 . S
C5 C3 1.397 . S
C5 H16 0.930 . S
C6 C3 1.367 . S
C6 C4 1.403 . S
C6 H27 0.929 . S
C7 C8 1.430 . S
C7 C9 1.387 . S
C7 C13 1.404 1_565 S
C8 C1 1.448 . S
C8 C7 1.430 . S
C8 N12 1.351 1_565 S
C9 C7 1.387 . S
C9 C10 1.374 . S
C9 H24 0.931 . S
C10 C4 1.439 . S
C10 C9 1.374 . S
C10 H25 0.931 . S
Eu11 N2 2.600 1_545 S
Eu11 N12 2.562 . S
Eu11 O46 2.335 . S
Eu11 O49 2.372 1_545 S
Eu11 O50 2.462 . S
Eu11 O51 2.373 1_545 S
Eu11 O53 2.432 . S
Eu11 O54 2.291 . S
Eu11 C75 2.787 . S
N12 C8 1.351 1_545 S
N12 Eu11 2.562 . S
N12 C14 1.325 . S
C13 C7 1.404 1_545 S
C13 C15 1.366 . S
C13 H21 0.930 . S
C14 N12 1.325 . S
C14 C15 1.416 . S
C14 H20 0.929 . S
C15 C13 1.366 . S
C15 C14 1.416 . S
C15 H17 0.930 . S
H16 C5 0.930 . S
H17 C15 0.930 . S
H18 C33 0.930 . S
H19 C40 0.930 . S
H20 C14 0.929 . S
H21 C13 0.930 . S
H22 C36 0.929 . S
H23 C3 0.931 . S
H24 C9 0.931 . S
H25 C10 0.931 . S
H26 C31 0.931 . S
H27 C6 0.929 . S
H28 C39 0.930 . S
N29 Eu0 2.600 1_545 S
N29 C30 1.365 . S
N29 C33 1.319 . S
C30 N29 1.365 . S
C30 C32 1.405 . S
C30 C38 1.448 . S
C31 H26 0.931 . S
C31 C33 1.397 . S
C31 C34 1.367 . S
C32 C30 1.405 . S
C32 C34 1.403 . S
C32 C65 1.439 . S
C33 H18 0.930 . S
C33 N29 1.319 . S
C33 C31 1.397 . S
C34 C31 1.367 . S
C34 C32 1.403 . S
C34 H41 0.929 . S
N35 Eu0 2.562 . S
N35 C36 1.325 . S
N35 C38 1.351 1_565 S
C36 H22 0.929 . S
C36 N35 1.325 . S
C36 C40 1.416 . S
C37 C38 1.430 . S
C37 C39 1.404 1_545 S
C37 C66 1.387 . S
C38 C30 1.448 . S
C38 N35 1.351 1_545 S
C38 C37 1.430 . S
C39 H28 0.930 . S
C39 C37 1.404 1_565 S
C39 C40 1.366 . S
C40 H19 0.930 . S
C40 C36 1.416 . S
C40 C39 1.366 . S
H41 C34 0.929 . S
H42 C65 0.931 . S
H43 C66 0.931 . S
O44 Eu0 2.462 . S
O44 C64 1.252 . S
O45 Eu0 2.373 1_545 S
O45 C56 1.249 . S
O46 Eu11 2.335 . S
O46 C56 1.264 . S
O47 Eu0 2.432 . S
O47 C64 1.268 . S
O48 Eu0 2.291 . S
O48 C63 1.255 . S
O49 Eu11 2.372 1_565 S
O49 C63 1.257 . S
O50 Eu11 2.462 . S
O50 C75 1.252 . S
O51 Eu11 2.373 1_565 S
O51 C67 1.249 . S
O52 Eu0 2.335 . S
O52 C67 1.264 . S
O53 Eu11 2.432 . S
O53 C75 1.268 . S
O54 Eu11 2.291 . S
O54 C74 1.255 . S
O55 Eu0 2.372 1_545 S
O55 C74 1.257 . S
C56 O45 1.249 . S
C56 O46 1.264 . S
C57 C60 1.382 . S
C57 C62 1.390 . S
C57 C64 1.506 . S
C58 C59 1.398 . S
C58 C62 1.392 . S
C59 C58 1.398 . S
C59 C61 1.372 . S
C59 H76 0.931 . S
C60 C57 1.382 . S
C60 C61 1.390 . S
C60 H77 0.931 . S
C61 C59 1.372 . S
C61 C60 1.390 . S
C61 H78 0.929 . S
C62 C57 1.390 . S
C62 C58 1.392 . S
C62 H79 0.930 . S
C63 O48 1.255 . S
C63 O49 1.257 . S
C64 Eu0 2.787 . S
C64 O44 1.252 . S
C64 O47 1.268 . S
C64 C57 1.506 . S
C65 C32 1.439 . S
C65 H42 0.931 . S
C65 C66 1.374 . S
C66 C37 1.387 . S
C66 H43 0.931 . S
C66 C65 1.374 . S
C67 O51 1.249 . S
C67 O52 1.264 . S
C68 C71 1.382 . S
C68 C72 1.390 . S
C68 C75 1.506 . S
C69 C70 1.398 . S
C69 C72 1.392 . S
C70 C69 1.398 . S
C70 C73 1.372 . S
C70 H80 0.931 . S
C71 C68 1.382 . S
C71 C73 1.390 . S
C71 H81 0.931 . S
C72 C68 1.390 . S
C72 C69 1.392 . S
C72 H82 0.930 . S
C73 C70 1.372 . S
C73 C71 1.390 . S
C73 H83 0.929 . S
C74 O54 1.255 . S
C74 O55 1.257 . S
C75 Eu11 2.787 . S
C75 O50 1.252 . S
C75 O53 1.268 . S
C75 C68 1.506 . S
H76 C59 0.931 . S
H77 C60 0.931 . S
H78 C61 0.929 . S
H79 C62 0.930 . S
H80 C70 0.931 . S
H81 C71 0.931 . S
H82 C72 0.930 . S
H83 C73 0.929 . S
Eu84 N113 2.600 . S
Eu84 N119 2.562 . S
Eu84 O128 2.462 . S
Eu84 O129 2.373 . S
Eu84 O131 2.432 . S
Eu84 O132 2.291 . S
Eu84 O136 2.335 . S
Eu84 O139 2.372 . S
Eu84 C148 2.787 . S
C85 N86 1.365 . S
C85 C88 1.405 . S
C85 C92 1.448 . S
N86 C85 1.365 . S
N86 C89 1.319 . S
N86 Eu95 2.600 . S
C87 C89 1.397 . S
C87 C90 1.367 . S
C87 H107 0.931 . S
C88 C85 1.405 . S
C88 C90 1.403 . S
C88 C94 1.439 . S
C89 N86 1.319 . S
C89 C87 1.397 . S
C89 H100 0.930 . S
C90 C87 1.367 . S
C90 C88 1.403 . S
C90 H111 0.929 . S
C91 C92 1.430 . S
C91 C93 1.387 . S
C91 C97 1.404 . S
C92 C85 1.448 . S
C92 C91 1.430 . S
C92 N96 1.351 . S
C93 C91 1.387 . S
C93 C94 1.374 . S
C93 H108 0.931 . S
C94 C88 1.439 . S
C94 C93 1.374 . S
C94 H109 0.931 . S
Eu95 N86 2.600 . S
Eu95 N96 2.562 . S
Eu95 O130 2.335 . S
Eu95 O133 2.372 . S
Eu95 O134 2.462 . S
Eu95 O135 2.373 . S
Eu95 O137 2.432 . S
Eu95 O138 2.291 . S
Eu95 C159 2.787 . S
N96 C92 1.351 . S
N96 Eu95 2.562 . S
N96 C98 1.325 . S
C97 C91 1.404 . S
C97 C99 1.366 . S
C97 H105 0.930 . S
C98 N96 1.325 . S
C98 C99 1.416 . S
C98 H104 0.929 . S
C99 C97 1.366 . S
C99 C98 1.416 . S
C99 H101 0.930 . S
H100 C89 0.930 . S
H101 C99 0.930 . S
H102 C117 0.930 . S
H103 C124 0.930 . S
H104 C98 0.929 . S
H105 C97 0.930 . S
H106 C120 0.929 . S
H107 C87 0.931 . S
H108 C93 0.931 . S
H109 C94 0.931 . S
H110 C115 0.931 . S
H111 C90 0.929 . S
H112 C123 0.930 . S
N113 Eu84 2.600 . S
N113 C114 1.365 . S
N113 C117 1.319 . S
C114 N113 1.365 . S
C114 C116 1.405 . S
C114 C122 1.448 . S
C115 H110 0.931 . S
C115 C117 1.397 . S
C115 C118 1.367 . S
C116 C114 1.405 . S
C116 C118 1.403 . S
C116 C149 1.439 . S
C117 H102 0.930 . S
C117 N113 1.319 . S
C117 C115 1.397 . S
C118 C115 1.367 . S
C118 C116 1.403 . S
C118 H125 0.929 . S
N119 Eu84 2.562 . S
N119 C120 1.325 . S
N119 C122 1.351 . S
C120 H106 0.929 . S
C120 N119 1.325 . S
C120 C124 1.416 . S
C121 C122 1.430 . S
C121 C123 1.404 . S
C121 C150 1.387 . S
C122 C114 1.448 . S
C122 N119 1.351 . S
C122 C121 1.430 . S
C123 H112 0.930 . S
C123 C121 1.404 . S
C123 C124 1.366 . S
C124 H103 0.930 . S
C124 C120 1.416 . S
C124 C123 1.366 . S
H125 C118 0.929 . S
H126 C149 0.931 . S
H127 C150 0.931 . S
O128 Eu84 2.462 . S
O128 C148 1.252 . S
O129 Eu84 2.373 . S
O129 C140 1.249 . S
O130 Eu95 2.335 . S
O130 C140 1.264 . S
O131 Eu84 2.432 . S
O131 C148 1.268 . S
O132 Eu84 2.291 . S
O132 C147 1.255 . S
O133 Eu95 2.372 . S
O133 C147 1.257 . S
O134 Eu95 2.462 . S
O134 C159 1.252 . S
O135 Eu95 2.373 . S
O135 C151 1.249 . S
O136 Eu84 2.335 . S
O136 C151 1.264 . S
O137 Eu95 2.432 . S
O137 C159 1.268 . S
O138 Eu95 2.291 . S
O138 C158 1.255 . S
O139 Eu84 2.372 . S
O139 C158 1.257 . S
C140 O129 1.249 . S
C140 O130 1.264 . S
C141 C144 1.382 . S
C141 C146 1.390 . S
C141 C148 1.506 . S
C142 C143 1.398 . S
C142 C146 1.392 . S
C143 C142 1.398 . S
C143 C145 1.372 . S
C143 H160 0.931 . S
C144 C141 1.382 . S
C144 C145 1.390 . S
C144 H161 0.931 . S
C145 C143 1.372 . S
C145 C144 1.390 . S
C145 H162 0.929 . S
C146 C141 1.390 . S
C146 C142 1.392 . S
C146 H163 0.930 . S
C147 O132 1.255 . S
C147 O133 1.257 . S
C148 Eu84 2.787 . S
C148 O128 1.252 . S
C148 O131 1.268 . S
C148 C141 1.506 . S
C149 C116 1.439 . S
C149 H126 0.931 . S
C149 C150 1.374 . S
C150 C121 1.387 . S
C150 H127 0.931 . S
C150 C149 1.374 . S
C151 O135 1.249 . S
C151 O136 1.264 . S
C152 C155 1.382 . S
C152 C156 1.390 . S
C152 C159 1.506 . S
C153 C154 1.398 . S
C153 C156 1.392 . S
C154 C153 1.398 . S
C154 C157 1.372 . S
C154 H164 0.931 . S
C155 C152 1.382 . S
C155 C157 1.390 . S
C155 H165 0.931 . S
C156 C152 1.390 . S
C156 C153 1.392 . S
C156 H166 0.930 . S
C157 C154 1.372 . S
C157 C155 1.390 . S
C157 H167 0.929 . S
C158 O138 1.255 . S
C158 O139 1.257 . S
C159 Eu95 2.787 . S
C159 O134 1.252 . S
C159 O137 1.268 . S
C159 C152 1.506 . S
H160 C143 0.931 . S
H161 C144 0.931 . S
H162 C145 0.929 . S
H163 C146 0.930 . S
H164 C154 0.931 . S
H165 C155 0.931 . S
H166 C156 0.930 . S
H167 C157 0.929 . S
Eu168 N197 2.600 1_455 S
Eu168 N203 2.562 . S
Eu168 O212 2.462 . S
Eu168 O213 2.373 1_455 S
Eu168 O215 2.432 . S
Eu168 O216 2.291 . S
Eu168 O220 2.335 . S
Eu168 O223 2.372 1_455 S
Eu168 C232 2.787 . S
C169 N170 1.365 . S
C169 C172 1.405 . S
C169 C176 1.448 . S
N170 C169 1.365 . S
N170 C173 1.319 . S
N170 Eu179 2.600 1_455 S
C171 C173 1.397 . S
C171 C174 1.367 . S
C171 H191 0.931 . S
C172 C169 1.405 . S
C172 C174 1.403 . S
C172 C178 1.439 . S
C173 N170 1.319 . S
C173 C171 1.397 . S
C173 H184 0.930 . S
C174 C171 1.367 . S
C174 C172 1.403 . S
C174 H195 0.929 . S
C175 C176 1.430 . S
C175 C177 1.387 . S
C175 C181 1.404 1_455 S
C176 C169 1.448 . S
C176 C175 1.430 . S
C176 N180 1.351 1_455 S
C177 C175 1.387 . S
C177 C178 1.374 . S
C177 H192 0.931 . S
C178 C172 1.439 . S
C178 C177 1.374 . S
C178 H193 0.931 . S
Eu179 N170 2.600 1_655 S
Eu179 N180 2.562 . S
Eu179 O214 2.335 . S
Eu179 O217 2.372 1_655 S
Eu179 O218 2.462 . S
Eu179 O219 2.373 1_655 S
Eu179 O221 2.432 . S
Eu179 O222 2.291 . S
Eu179 C243 2.787 . S
N180 C176 1.351 1_655 S
N180 Eu179 2.562 . S
N180 C182 1.325 . S
C181 C175 1.404 1_655 S
C181 C183 1.366 . S
C181 H189 0.930 . S
C182 N180 1.325 . S
C182 C183 1.416 . S
C182 H188 0.929 . S
C183 C181 1.366 . S
C183 C182 1.416 . S
C183 H185 0.930 . S
H184 C173 0.930 . S
H185 C183 0.930 . S
H186 C201 0.930 . S
H187 C208 0.930 . S
H188 C182 0.929 . S
H189 C181 0.930 . S
H190 C204 0.929 . S
H191 C171 0.931 . S
H192 C177 0.931 . S
H193 C178 0.931 . S
H194 C199 0.931 . S
H195 C174 0.929 . S
H196 C207 0.930 . S
N197 Eu168 2.600 1_655 S
N197 C198 1.365 . S
N197 C201 1.319 . S
C198 N197 1.365 . S
C198 C200 1.405 . S
C198 C206 1.448 . S
C199 H194 0.931 . S
C199 C201 1.397 . S
C199 C202 1.367 . S
C200 C198 1.405 . S
C200 C202 1.403 . S
C200 C233 1.439 . S
C201 H186 0.930 . S
C201 N197 1.319 . S
C201 C199 1.397 . S
C202 C199 1.367 . S
C202 C200 1.403 . S
C202 H209 0.929 . S
N203 Eu168 2.562 . S
N203 C204 1.325 . S
N203 C206 1.351 1_455 S
C204 H190 0.929 . S
C204 N203 1.325 . S
C204 C208 1.416 . S
C205 C206 1.430 . S
C205 C207 1.404 1_655 S
C205 C234 1.387 . S
C206 C198 1.448 . S
C206 N203 1.351 1_655 S
C206 C205 1.430 . S
C207 H196 0.930 . S
C207 C205 1.404 1_455 S
C207 C208 1.366 . S
C208 H187 0.930 . S
C208 C204 1.416 . S
C208 C207 1.366 . S
H209 C202 0.929 . S
H210 C233 0.931 . S
H211 C234 0.931 . S
O212 Eu168 2.462 . S
O212 C232 1.252 . S
O213 Eu168 2.373 1_655 S
O213 C224 1.249 . S
O214 Eu179 2.335 . S
O214 C224 1.264 . S
O215 Eu168 2.432 . S
O215 C232 1.268 . S
O216 Eu168 2.291 . S
O216 C231 1.255 . S
O217 Eu179 2.372 1_455 S
O217 C231 1.257 . S
O218 Eu179 2.462 . S
O218 C243 1.252 . S
O219 Eu179 2.373 1_455 S
O219 C235 1.249 . S
O220 Eu168 2.335 . S
O220 C235 1.264 . S
O221 Eu179 2.432 . S
O221 C243 1.268 . S
O222 Eu179 2.291 . S
O222 C242 1.255 . S
O223 Eu168 2.372 1_655 S
O223 C242 1.257 . S
C224 O213 1.249 . S
C224 O214 1.264 . S
C225 C228 1.382 . S
C225 C230 1.390 . S
C225 C232 1.506 . S
C226 C227 1.398 . S
C226 C230 1.392 . S
C227 C226 1.398 . S
C227 C229 1.372 . S
C227 H244 0.931 . S
C228 C225 1.382 . S
C228 C229 1.390 . S
C228 H245 0.931 . S
C229 C227 1.372 . S
C229 C228 1.390 . S
C229 H246 0.929 . S
C230 C225 1.390 . S
C230 C226 1.392 . S
C230 H247 0.930 . S
C231 O216 1.255 . S
C231 O217 1.257 . S
C232 Eu168 2.787 . S
C232 O212 1.252 . S
C232 O215 1.268 . S
C232 C225 1.506 . S
C233 C200 1.439 . S
C233 H210 0.931 . S
C233 C234 1.374 . S
C234 C205 1.387 . S
C234 H211 0.931 . S
C234 C233 1.374 . S
C235 O219 1.249 . S
C235 O220 1.264 . S
C236 C239 1.382 . S
C236 C240 1.390 . S
C236 C243 1.506 . S
C237 C238 1.398 . S
C237 C240 1.392 . S
C238 C237 1.398 . S
C238 C241 1.372 . S
C238 H248 0.931 . S
C239 C236 1.382 . S
C239 C241 1.390 . S
C239 H249 0.931 . S
C240 C236 1.390 . S
C240 C237 1.392 . S
C240 H250 0.930 . S
C241 C238 1.372 . S
C241 C239 1.390 . S
C241 H251 0.929 . S
C242 O222 1.255 . S
C242 O223 1.257 . S
C243 Eu179 2.787 . S
C243 O218 1.252 . S
C243 O221 1.268 . S
C243 C236 1.506 . S
H244 C227 0.931 . S
H245 C228 0.931 . S
H246 C229 0.929 . S
H247 C230 0.930 . S
H248 C238 0.931 . S
H249 C239 0.931 . S
H250 C240 0.930 . S
H251 C241 0.929 . S
Eu252 N281 2.600 1_545 S
Eu252 N287 2.562 . S
Eu252 O296 2.462 . S
Eu252 O297 2.373 1_545 S
Eu252 O299 2.432 . S
Eu252 O300 2.291 . S
Eu252 O304 2.335 . S
Eu252 O307 2.372 1_545 S
Eu252 C316 2.787 . S
C253 N254 1.365 . S
C253 C256 1.405 . S
C253 C260 1.448 . S
N254 C253 1.365 . S
N254 C257 1.319 . S
N254 Eu263 2.600 1_545 S
C255 C257 1.397 . S
C255 C258 1.367 . S
C255 H275 0.931 . S
C256 C253 1.405 . S
C256 C258 1.403 . S
C256 C262 1.439 . S
C257 N254 1.319 . S
C257 C255 1.397 . S
C257 H268 0.930 . S
C258 C255 1.367 . S
C258 C256 1.403 . S
C258 H279 0.929 . S
C259 C260 1.430 . S
C259 C261 1.387 . S
C259 C265 1.404 1_545 S
C260 C253 1.448 . S
C260 C259 1.430 . S
C260 N264 1.351 1_545 S
C261 C259 1.387 . S
C261 C262 1.374 . S
C261 H276 0.931 . S
C262 C256 1.439 . S
C262 C261 1.374 . S
C262 H277 0.931 . S
Eu263 N254 2.600 1_565 S
Eu263 N264 2.562 . S
Eu263 O298 2.335 . S
Eu263 O301 2.372 1_565 S
Eu263 O302 2.462 . S
Eu263 O303 2.373 1_565 S
Eu263 O305 2.432 . S
Eu263 O306 2.291 . S
Eu263 C327 2.787 . S
N264 C260 1.351 1_565 S
N264 Eu263 2.562 . S
N264 C266 1.325 . S
C265 C259 1.404 1_565 S
C265 C267 1.366 . S
C265 H273 0.930 . S
C266 N264 1.325 . S
C266 C267 1.416 . S
C266 H272 0.929 . S
C267 C265 1.366 . S
C267 C266 1.416 . S
C267 H269 0.930 . S
H268 C257 0.930 . S
H269 C267 0.930 . S
H270 C285 0.930 . S
H271 C292 0.930 . S
H272 C266 0.929 . S
H273 C265 0.930 . S
H274 C288 0.929 . S
H275 C255 0.931 . S
H276 C261 0.931 . S
H277 C262 0.931 . S
H278 C283 0.931 . S
H279 C258 0.929 . S
H280 C291 0.930 . S
N281 Eu252 2.600 1_565 S
N281 C282 1.365 . S
N281 C285 1.319 . S
C282 N281 1.365 . S
C282 C284 1.405 . S
C282 C290 1.448 . S
C283 H278 0.931 . S
C283 C285 1.397 . S
C283 C286 1.367 . S
C284 C282 1.405 . S
C284 C286 1.403 . S
C284 C317 1.439 . S
C285 H270 0.930 . S
C285 N281 1.319 . S
C285 C283 1.397 . S
C286 C283 1.367 . S
C286 C284 1.403 . S
C286 H293 0.929 . S
N287 Eu252 2.562 . S
N287 C288 1.325 . S
N287 C290 1.351 1_545 S
C288 H274 0.929 . S
C288 N287 1.325 . S
C288 C292 1.416 . S
C289 C290 1.430 . S
C289 C291 1.404 1_565 S
C289 C318 1.387 . S
C290 C282 1.448 . S
C290 N287 1.351 1_565 S
C290 C289 1.430 . S
C291 H280 0.930 . S
C291 C289 1.404 1_545 S
C291 C292 1.366 . S
C292 H271 0.930 . S
C292 C288 1.416 . S
C292 C291 1.366 . S
H293 C286 0.929 . S
H294 C317 0.931 . S
H295 C318 0.931 . S
O296 Eu252 2.462 . S
O296 C316 1.252 . S
O297 Eu252 2.373 1_565 S
O297 C308 1.249 . S
O298 Eu263 2.335 . S
O298 C308 1.264 . S
O299 Eu252 2.432 . S
O299 C316 1.268 . S
O300 Eu252 2.291 . S
O300 C315 1.255 . S
O301 Eu263 2.372 1_545 S
O301 C315 1.257 . S
O302 Eu263 2.462 . S
O302 C327 1.252 . S
O303 Eu263 2.373 1_545 S
O303 C319 1.249 . S
O304 Eu252 2.335 . S
O304 C319 1.264 . S
O305 Eu263 2.432 . S
O305 C327 1.268 . S
O306 Eu263 2.291 . S
O306 C326 1.255 . S
O307 Eu252 2.372 1_565 S
O307 C326 1.257 . S
C308 O297 1.249 . S
C308 O298 1.264 . S
C309 C312 1.382 . S
C309 C314 1.390 . S
C309 C316 1.506 . S
C310 C311 1.398 . S
C310 C314 1.392 . S
C311 C310 1.398 . S
C311 C313 1.372 . S
C311 H328 0.931 . S
C312 C309 1.382 . S
C312 C313 1.390 . S
C312 H329 0.931 . S
C313 C311 1.372 . S
C313 C312 1.390 . S
C313 H330 0.929 . S
C314 C309 1.390 . S
C314 C310 1.392 . S
C314 H331 0.930 . S
C315 O300 1.255 . S
C315 O301 1.257 . S
C316 Eu252 2.787 . S
C316 O296 1.252 . S
C316 O299 1.268 . S
C316 C309 1.506 . S
C317 C284 1.439 . S
C317 H294 0.931 . S
C317 C318 1.374 . S
C318 C289 1.387 . S
C318 H295 0.931 . S
C318 C317 1.374 . S
C319 O303 1.249 . S
C319 O304 1.264 . S
C320 C323 1.382 . S
C320 C324 1.390 . S
C320 C327 1.506 . S
C321 C322 1.398 . S
C321 C324 1.392 . S
C322 C321 1.398 . S
C322 C325 1.372 . S
C322 H332 0.931 . S
C323 C320 1.382 . S
C323 C325 1.390 . S
C323 H333 0.931 . S
C324 C320 1.390 . S
C324 C321 1.392 . S
C324 H334 0.930 . S
C325 C322 1.372 . S
C325 C323 1.390 . S
C325 H335 0.929 . S
C326 O306 1.255 . S
C326 O307 1.257 . S
C327 Eu263 2.787 . S
C327 O302 1.252 . S
C327 O305 1.268 . S
C327 C320 1.506 . S
H328 C311 0.931 . S
H329 C312 0.931 . S
H330 C313 0.929 . S
H331 C314 0.930 . S
H332 C322 0.931 . S
H333 C323 0.931 . S
H334 C324 0.930 . S
H335 C325 0.929 . S
Eu336 N365 2.600 . S
Eu336 N371 2.562 . S
Eu336 O380 2.462 . S
Eu336 O381 2.373 . S
Eu336 O383 2.432 . S
Eu336 O384 2.291 . S
Eu336 O388 2.335 . S
Eu336 O391 2.372 . S
Eu336 C400 2.787 . S
C337 N338 1.365 . S
C337 C340 1.405 . S
C337 C344 1.448 . S
N338 C337 1.365 . S
N338 C341 1.319 . S
N338 Eu347 2.600 . S
C339 C341 1.397 . S
C339 C342 1.367 . S
C339 H359 0.931 . S
C340 C337 1.405 . S
C340 C342 1.403 . S
C340 C346 1.439 . S
C341 N338 1.319 . S
C341 C339 1.397 . S
C341 H352 0.930 . S
C342 C339 1.367 . S
C342 C340 1.403 . S
C342 H363 0.929 . S
C343 C344 1.430 . S
C343 C345 1.387 . S
C343 C349 1.404 . S
C344 C337 1.448 . S
C344 C343 1.430 . S
C344 N348 1.351 . S
C345 C343 1.387 . S
C345 C346 1.374 . S
C345 H360 0.931 . S
C346 C340 1.439 . S
C346 C345 1.374 . S
C346 H361 0.931 . S
Eu347 N338 2.600 . S
Eu347 N348 2.562 . S
Eu347 O382 2.335 . S
Eu347 O385 2.372 . S
Eu347 O386 2.462 . S
Eu347 O387 2.373 . S
Eu347 O389 2.432 . S
Eu347 O390 2.291 . S
Eu347 C411 2.787 . S
N348 C344 1.351 . S
N348 Eu347 2.562 . S
N348 C350 1.325 . S
C349 C343 1.404 . S
C349 C351 1.366 . S
C349 H357 0.930 . S
C350 N348 1.325 . S
C350 C351 1.416 . S
C350 H356 0.929 . S
C351 C349 1.366 . S
C351 C350 1.416 . S
C351 H353 0.930 . S
H352 C341 0.930 . S
H353 C351 0.930 . S
H354 C369 0.930 . S
H355 C376 0.930 . S
H356 C350 0.929 . S
H357 C349 0.930 . S
H358 C372 0.929 . S
H359 C339 0.931 . S
H360 C345 0.931 . S
H361 C346 0.931 . S
H362 C367 0.941 . S
H363 C342 0.929 . S
H364 C375 0.930 . S
N365 Eu336 2.600 . S
N365 C366 1.365 . S
N365 C369 1.319 . S
C366 N365 1.365 . S
C366 C368 1.405 . S
C366 C374 1.448 . S
C367 H362 0.941 . S
C367 C369 1.397 . S
C367 C370 1.367 . S
C368 C366 1.405 . S
C368 C370 1.403 . S
C368 C401 1.439 . S
C369 H354 0.930 . S
C369 N365 1.319 . S
C369 C367 1.397 . S
C370 C367 1.367 . S
C370 C368 1.403 . S
C370 H377 0.929 . S
N371 Eu336 2.562 . S
N371 C372 1.325 . S
N371 C374 1.351 . S
C372 H358 0.929 . S
C372 N371 1.325 . S
C372 C376 1.416 . S
C373 C374 1.430 . S
C373 C375 1.404 . S
C373 C402 1.387 . S
C374 C366 1.448 . S
C374 N371 1.351 . S
C374 C373 1.430 . S
C375 H364 0.930 . S
C375 C373 1.404 . S
C375 C376 1.366 . S
C376 H355 0.930 . S
C376 C372 1.416 . S
C376 C375 1.366 . S
H377 C370 0.929 . S
H378 C401 0.931 . S
H379 C402 0.931 . S
O380 Eu336 2.462 . S
O380 C400 1.252 . S
O381 Eu336 2.373 . S
O381 C392 1.249 . S
O382 Eu347 2.335 . S
O382 C392 1.264 . S
O383 Eu336 2.432 . S
O383 C400 1.268 . S
O384 Eu336 2.291 . S
O384 C399 1.255 . S
O385 Eu347 2.372 . S
O385 C399 1.257 . S
O386 Eu347 2.462 . S
O386 C411 1.252 . S
O387 Eu347 2.373 . S
O387 C403 1.249 . S
O388 Eu336 2.335 . S
O388 C403 1.264 . S
O389 Eu347 2.432 . S
O389 C411 1.268 . S
O390 Eu347 2.291 . S
O390 C410 1.255 . S
O391 Eu336 2.372 . S
O391 C410 1.257 . S
C392 O381 1.249 . S
C392 O382 1.264 . S
C393 C396 1.472 . S
C393 C398 1.370 1_556 S
C393 C400 1.443 1_556 S
C394 C395 1.398 . S
C394 C398 1.392 1_556 S
C395 C394 1.398 . S
C395 C397 1.372 . S
C395 H412 0.931 . S
C396 C393 1.472 . S
C396 C397 1.390 . S
C396 H413 0.931 . S
C397 C395 1.372 . S
C397 C396 1.390 . S
C397 H414 0.929 . S
C398 C393 1.370 1_554 S
C398 C394 1.392 1_554 S
C398 H415 0.930 . S
C399 O384 1.255 . S
C399 O385 1.257 . S
C400 Eu336 2.787 . S
C400 O380 1.252 . S
C400 O383 1.268 . S
C400 C393 1.443 1_554 S
C401 C368 1.439 . S
C401 H378 0.931 . S
C401 C402 1.374 . S
C402 C373 1.387 . S
C402 H379 0.931 . S
C402 C401 1.374 . S
C403 O387 1.249 . S
C403 O388 1.264 . S
C404 C407 1.382 . S
C404 C408 1.390 . S
C404 C411 1.506 . S
C405 C406 1.398 . S
C405 C408 1.392 . S
C406 C405 1.398 . S
C406 C409 1.372 . S
C406 H416 0.931 . S
C407 C404 1.382 . S
C407 C409 1.390 . S
C407 H417 0.931 . S
C408 C404 1.390 . S
C408 C405 1.392 . S
C408 H418 0.930 . S
C409 C406 1.372 . S
C409 C407 1.390 . S
C409 H419 0.929 . S
C410 O390 1.255 . S
C410 O391 1.257 . S
C411 Eu347 2.787 . S
C411 O386 1.252 . S
C411 O389 1.268 . S
C411 C404 1.506 . S
H412 C395 0.931 . S
H413 C396 0.931 . S
H414 C397 0.929 . S
H415 C398 0.930 . S
H416 C406 0.931 . S
H417 C407 0.931 . S
H418 C408 0.930 . S
H419 C409 0.929 . S
Eu420 N449 2.600 1_655 S
Eu420 N455 2.562 . S
Eu420 O464 2.462 . S
Eu420 O465 2.373 1_655 S
Eu420 O467 2.432 . S
Eu420 O468 2.291 . S
Eu420 O472 2.335 . S
Eu420 O475 2.372 1_655 S
Eu420 C484 2.787 . S
C421 N422 1.365 . S
C421 C424 1.405 . S
C421 C428 1.448 . S
N422 C421 1.365 . S
N422 C425 1.319 . S
N422 Eu431 2.600 1_655 S
C423 C425 1.397 . S
C423 C426 1.367 . S
C423 H443 0.931 . S
C424 C421 1.405 . S
C424 C426 1.403 . S
C424 C430 1.439 . S
C425 N422 1.319 . S
C425 C423 1.397 . S
C425 H436 0.930 . S
C426 C423 1.367 . S
C426 C424 1.403 . S
C426 H447 0.929 . S
C427 C428 1.430 . S
C427 C429 1.387 . S
C427 C433 1.404 1_655 S
C428 C421 1.448 . S
C428 C427 1.430 . S
C428 N432 1.351 1_655 S
C429 C427 1.387 . S
C429 C430 1.374 . S
C429 H444 0.931 . S
C430 C424 1.439 . S
C430 C429 1.374 . S
C430 H445 0.931 . S
Eu431 N422 2.600 1_455 S
Eu431 N432 2.562 . S
Eu431 O466 2.335 . S
Eu431 O469 2.372 1_455 S
Eu431 O470 2.462 . S
Eu431 O471 2.373 1_455 S
Eu431 O473 2.432 . S
Eu431 O474 2.291 . S
Eu431 C495 2.787 . S
N432 C428 1.351 1_455 S
N432 Eu431 2.562 . S
N432 C434 1.325 . S
C433 C427 1.404 1_455 S
C433 C435 1.366 . S
C433 H441 0.930 . S
C434 N432 1.325 . S
C434 C435 1.416 . S
C434 H440 0.929 . S
C435 C433 1.366 . S
C435 C434 1.416 . S
C435 H437 0.930 . S
H436 C425 0.930 . S
H437 C435 0.930 . S
H438 C453 0.930 . S
H439 C460 0.930 . S
H440 C434 0.929 . S
H441 C433 0.930 . S
H442 C456 0.929 . S
H443 C423 0.931 . S
H444 C429 0.931 . S
H445 C430 0.931 . S
H446 C451 0.931 . S
H447 C426 0.929 . S
H448 C459 0.930 . S
N449 Eu420 2.600 1_455 S
N449 C450 1.365 . S
N449 C453 1.319 . S
C450 N449 1.365 . S
C450 C452 1.405 . S
C450 C458 1.448 . S
C451 H446 0.931 . S
C451 C453 1.397 . S
C451 C454 1.367 . S
C452 C450 1.405 . S
C452 C454 1.403 . S
C452 C485 1.439 . S
C453 H438 0.930 . S
C453 N449 1.319 . S
C453 C451 1.397 . S
C454 C451 1.367 . S
C454 C452 1.403 . S
C454 H461 0.929 . S
N455 Eu420 2.562 . S
N455 C456 1.325 . S
N455 C458 1.351 1_655 S
C456 H442 0.929 . S
C456 N455 1.325 . S
C456 C460 1.416 . S
C457 C458 1.430 . S
C457 C459 1.404 1_455 S
C457 C486 1.387 . S
C458 C450 1.448 . S
C458 N455 1.351 1_455 S
C458 C457 1.430 . S
C459 H448 0.930 . S
C459 C457 1.404 1_655 S
C459 C460 1.366 . S
C460 H439 0.930 . S
C460 C456 1.416 . S
C460 C459 1.366 . S
H461 C454 0.929 . S
H462 C485 0.931 . S
H463 C486 0.931 . S
O464 Eu420 2.462 . S
O464 C484 1.252 . S
O465 Eu420 2.373 1_455 S
O465 C476 1.249 . S
O466 Eu431 2.335 . S
O466 C476 1.264 . S
O467 Eu420 2.432 . S
O467 C484 1.268 . S
O468 Eu420 2.291 . S
O468 C483 1.255 . S
O469 Eu431 2.372 1_655 S
O469 C483 1.257 . S
O470 Eu431 2.462 . S
O470 C495 1.252 . S
O471 Eu431 2.373 1_655 S
O471 C487 1.249 . S
O472 Eu420 2.335 . S
O472 C487 1.264 . S
O473 Eu431 2.432 . S
O473 C495 1.268 . S
O474 Eu431 2.291 . S
O474 C494 1.255 . S
O475 Eu420 2.372 1_455 S
O475 C494 1.257 . S
C476 O465 1.249 . S
C476 O466 1.264 . S
C477 C480 1.382 . S
C477 C482 1.390 . S
C477 C484 1.506 . S
C478 C479 1.398 . S
C478 C482 1.392 . S
C479 C478 1.398 . S
C479 C481 1.372 . S
C479 H496 0.931 . S
C480 C477 1.382 . S
C480 C481 1.390 . S
C480 H497 0.931 . S
C481 C479 1.372 . S
C481 C480 1.390 . S
C481 H498 0.929 . S
C482 C477 1.390 . S
C482 C478 1.392 . S
C482 H499 0.930 . S
C483 O468 1.255 . S
C483 O469 1.257 . S
C484 Eu420 2.787 . S
C484 O464 1.252 . S
C484 O467 1.268 . S
C484 C477 1.506 . S
C485 C452 1.439 . S
C485 H462 0.931 . S
C485 C486 1.374 . S
C486 C457 1.387 . S
C486 H463 0.931 . S
C486 C485 1.374 . S
C487 O471 1.249 . S
C487 O472 1.264 . S
C488 C491 1.382 . S
C488 C492 1.390 . S
C488 C495 1.506 . S
C489 C490 1.398 . S
C489 C492 1.392 . S
C490 C489 1.398 . S
C490 C493 1.372 . S
C490 H500 0.931 . S
C491 C488 1.382 . S
C491 C493 1.390 . S
C491 H501 0.931 . S
C492 C488 1.390 . S
C492 C489 1.392 . S
C492 H502 0.930 . S
C493 C490 1.372 . S
C493 C491 1.390 . S
C493 H503 0.929 . S
C494 O474 1.255 . S
C494 O475 1.257 . S
C495 Eu431 2.787 . S
C495 O470 1.252 . S
C495 O473 1.268 . S
C495 C488 1.506 . S
H496 C479 0.931 . S
H497 C480 0.931 . S
H498 C481 0.929 . S
H499 C482 0.930 . S
H500 C490 0.931 . S
H501 C491 0.931 . S
H502 C492 0.930 . S
H503 C493 0.929 . S
Eu504 N533 2.600 1_455 S
Eu504 N539 2.562 . S
Eu504 O548 2.462 . S
Eu504 O549 2.373 1_455 S
Eu504 O551 2.432 . S
Eu504 O552 2.291 . S
Eu504 O556 2.335 . S
Eu504 O559 2.372 1_455 S
Eu504 C568 2.787 . S
C505 N506 1.365 . S
C505 C508 1.405 . S
C505 C512 1.448 . S
N506 C505 1.365 . S
N506 C509 1.319 . S
N506 Eu515 2.600 1_455 S
C507 C509 1.397 . S
C507 C510 1.367 . S
C507 H527 0.931 . S
C508 C505 1.405 . S
C508 C510 1.403 . S
C508 C514 1.439 . S
C509 N506 1.319 . S
C509 C507 1.397 . S
C509 H520 0.930 . S
C510 C507 1.367 . S
C510 C508 1.403 . S
C510 H531 0.929 . S
C511 C512 1.430 . S
C511 C513 1.387 . S
C511 C517 1.404 1_455 S
C512 C505 1.448 . S
C512 C511 1.430 . S
C512 N516 1.351 1_455 S
C513 C511 1.387 . S
C513 C514 1.374 . S
C513 H528 0.931 . S
C514 C508 1.439 . S
C514 C513 1.374 . S
C514 H529 0.931 . S
Eu515 N506 2.600 1_655 S
Eu515 N516 2.562 . S
Eu515 O550 2.335 . S
Eu515 O553 2.372 1_655 S
Eu515 O554 2.462 . S
Eu515 O555 2.373 1_655 S
Eu515 O557 2.432 . S
Eu515 O558 2.291 . S
Eu515 C579 2.787 . S
N516 C512 1.351 1_655 S
N516 Eu515 2.562 . S
N516 C518 1.325 . S
C517 C511 1.404 1_655 S
C517 C519 1.366 . S
C517 H525 0.930 . S
C518 N516 1.325 . S
C518 C519 1.416 . S
C518 H524 0.929 . S
C519 C517 1.366 . S
C519 C518 1.416 . S
C519 H521 0.930 . S
H520 C509 0.930 . S
H521 C519 0.930 . S
H522 C537 0.930 . S
H523 C544 0.930 . S
H524 C518 0.929 . S
H525 C517 0.930 . S
H526 C540 0.929 . S
H527 C507 0.931 . S
H528 C513 0.931 . S
H529 C514 0.931 . S
H530 C535 0.931 . S
H531 C510 0.929 . S
H532 C543 0.930 . S
N533 Eu504 2.600 1_655 S
N533 C534 1.365 . S
N533 C537 1.319 . S
C534 N533 1.365 . S
C534 C536 1.405 . S
C534 C542 1.448 . S
C535 H530 0.931 . S
C535 C537 1.397 . S
C535 C538 1.367 . S
C536 C534 1.405 . S
C536 C538 1.403 . S
C536 C569 1.439 . S
C537 H522 0.930 . S
C537 N533 1.319 . S
C537 C535 1.397 . S
C538 C535 1.367 . S
C538 C536 1.403 . S
C538 H545 0.929 . S
N539 Eu504 2.562 . S
N539 C540 1.325 . S
N539 C542 1.351 1_455 S
C540 H526 0.929 . S
C540 N539 1.325 . S
C540 C544 1.416 . S
C541 C542 1.430 . S
C541 C543 1.404 1_655 S
C541 C570 1.387 . S
C542 C534 1.448 . S
C542 N539 1.351 1_655 S
C542 C541 1.430 . S
C543 H532 0.930 . S
C543 C541 1.404 1_455 S
C543 C544 1.366 . S
C544 H523 0.930 . S
C544 C540 1.416 . S
C544 C543 1.366 . S
H545 C538 0.929 . S
H546 C569 0.931 . S
H547 C570 0.931 . S
O548 Eu504 2.462 . S
O548 C568 1.252 . S
O549 Eu504 2.373 1_655 S
O549 C560 1.249 . S
O550 Eu515 2.335 . S
O550 C560 1.264 . S
O551 Eu504 2.432 . S
O551 C568 1.268 . S
O552 Eu504 2.291 . S
O552 C567 1.255 . S
O553 Eu515 2.372 1_455 S
O553 C567 1.257 . S
O554 Eu515 2.462 . S
O554 C579 1.252 . S
O555 Eu515 2.373 1_455 S
O555 C571 1.249 . S
O556 Eu504 2.335 . S
O556 C571 1.264 . S
O557 Eu515 2.432 . S
O557 C579 1.268 . S
O558 Eu515 2.291 . S
O558 C578 1.255 . S
O559 Eu504 2.372 1_655 S
O559 C578 1.257 . S
C560 O549 1.249 . S
C560 O550 1.264 . S
C561 C564 1.382 . S
C561 C566 1.390 . S
C561 C568 1.506 . S
C562 C563 1.398 . S
C562 C566 1.392 . S
C563 C562 1.398 . S
C563 C565 1.372 . S
C563 H580 0.931 . S
C564 C561 1.382 . S
C564 C565 1.390 . S
C564 H581 0.931 . S
C565 C563 1.372 . S
C565 C564 1.390 . S
C565 H582 0.929 . S
C566 C561 1.390 . S
C566 C562 1.392 . S
C566 H583 0.930 . S
C567 O552 1.255 . S
C567 O553 1.257 . S
C568 Eu504 2.787 . S
C568 O548 1.252 . S
C568 O551 1.268 . S
C568 C561 1.506 . S
C569 C536 1.439 . S
C569 H546 0.931 . S
C569 C570 1.374 . S
C570 C541 1.387 . S
C570 H547 0.931 . S
C570 C569 1.374 . S
C571 O555 1.249 . S
C571 O556 1.264 . S
C572 C575 1.382 . S
C572 C576 1.390 . S
C572 C579 1.506 . S
C573 C574 1.398 . S
C573 C576 1.392 . S
C574 C573 1.398 . S
C574 C577 1.372 . S
C574 H584 0.931 . S
C575 C572 1.382 . S
C575 C577 1.390 . S
C575 H585 0.931 . S
C576 C572 1.390 . S
C576 C573 1.392 . S
C576 H586 0.930 . S
C577 C574 1.372 . S
C577 C575 1.390 . S
C577 H587 0.929 . S
C578 O558 1.255 . S
C578 O559 1.257 . S
C579 Eu515 2.787 . S
C579 O554 1.252 . S
C579 O557 1.268 . S
C579 C572 1.506 . S
H580 C563 0.931 . S
H581 C564 0.931 . S
H582 C565 0.929 . S
H583 C566 0.930 . S
H584 C574 0.931 . S
H585 C575 0.931 . S
H586 C576 0.930 . S
H587 C577 0.929 . S
Eu588 N617 2.600 1_545 S
Eu588 N623 2.562 . S
Eu588 O632 2.462 . S
Eu588 O633 2.373 1_545 S
Eu588 O635 2.432 . S
Eu588 O636 2.291 . S
Eu588 O640 2.335 . S
Eu588 O643 2.372 1_545 S
Eu588 C652 2.787 . S
C589 N590 1.365 . S
C589 C592 1.405 . S
C589 C596 1.448 . S
N590 C589 1.365 . S
N590 C593 1.319 . S
N590 Eu599 2.600 1_545 S
C591 C593 1.397 . S
C591 C594 1.367 . S
C591 H611 0.931 . S
C592 C589 1.405 . S
C592 C594 1.403 . S
C592 C598 1.439 . S
C593 N590 1.319 . S
C593 C591 1.397 . S
C593 H604 0.930 . S
C594 C591 1.367 . S
C594 C592 1.403 . S
C594 H615 0.929 . S
C595 C596 1.430 . S
C595 C597 1.387 . S
C595 C601 1.404 1_545 S
C596 C589 1.448 . S
C596 C595 1.430 . S
C596 N600 1.351 1_545 S
C597 C595 1.387 . S
C597 C598 1.374 . S
C597 H612 0.931 . S
C598 C592 1.439 . S
C598 C597 1.374 . S
C598 H613 0.931 . S
Eu599 N590 2.600 1_565 S
Eu599 N600 2.562 . S
Eu599 O634 2.335 . S
Eu599 O637 2.372 1_565 S
Eu599 O638 2.462 . S
Eu599 O639 2.373 1_565 S
Eu599 O641 2.432 . S
Eu599 O642 2.291 . S
Eu599 C663 2.787 . S
N600 C596 1.351 1_565 S
N600 Eu599 2.562 . S
N600 C602 1.325 . S
C601 C595 1.404 1_565 S
C601 C603 1.366 . S
C601 H609 0.930 . S
C602 N600 1.325 . S
C602 C603 1.416 . S
C602 H608 0.929 . S
C603 C601 1.366 . S
C603 C602 1.416 . S
C603 H605 0.930 . S
H604 C593 0.930 . S
H605 C603 0.930 . S
H606 C621 0.930 . S
H607 C628 0.930 . S
H608 C602 0.929 . S
H609 C601 0.930 . S
H610 C624 0.929 . S
H611 C591 0.931 . S
H612 C597 0.931 . S
H613 C598 0.931 . S
H614 C619 0.931 . S
H615 C594 0.929 . S
H616 C627 0.930 . S
N617 Eu588 2.600 1_565 S
N617 C618 1.365 . S
N617 C621 1.319 . S
C618 N617 1.365 . S
C618 C620 1.405 . S
C618 C626 1.448 . S
C619 H614 0.931 . S
C619 C621 1.397 . S
C619 C622 1.367 . S
C620 C618 1.405 . S
C620 C622 1.403 . S
C620 C653 1.439 . S
C621 H606 0.930 . S
C621 N617 1.319 . S
C621 C619 1.397 . S
C622 C619 1.367 . S
C622 C620 1.403 . S
C622 H629 0.929 . S
N623 Eu588 2.562 . S
N623 C624 1.325 . S
N623 C626 1.351 1_545 S
C624 H610 0.929 . S
C624 N623 1.325 . S
C624 C628 1.416 . S
C625 C626 1.430 . S
C625 C627 1.404 1_565 S
C625 C654 1.387 . S
C626 C618 1.448 . S
C626 N623 1.351 1_565 S
C626 C625 1.430 . S
C627 H616 0.930 . S
C627 C625 1.404 1_545 S
C627 C628 1.366 . S
C628 H607 0.930 . S
C628 C624 1.416 . S
C628 C627 1.366 . S
H629 C622 0.929 . S
H630 C653 0.931 . S
H631 C654 0.931 . S
O632 Eu588 2.462 . S
O632 C652 1.252 . S
O633 Eu588 2.373 1_565 S
O633 C644 1.249 . S
O634 Eu599 2.335 . S
O634 C644 1.264 . S
O635 Eu588 2.432 . S
O635 C652 1.268 . S
O636 Eu588 2.291 . S
O636 C651 1.255 . S
O637 Eu599 2.372 1_545 S
O637 C651 1.257 . S
O638 Eu599 2.462 . S
O638 C663 1.252 . S
O639 Eu599 2.373 1_545 S
O639 C655 1.249 . S
O640 Eu588 2.335 . S
O640 C655 1.264 . S
O641 Eu599 2.432 . S
O641 C663 1.268 . S
O642 Eu599 2.291 . S
O642 C662 1.255 . S
O643 Eu588 2.372 1_565 S
O643 C662 1.257 . S
C644 O633 1.249 . S
C644 O634 1.264 . S
C645 C648 1.382 . S
C645 C650 1.390 . S
C645 C652 1.506 . S
C646 C647 1.398 . S
C646 C650 1.392 . S
C647 C646 1.398 . S
C647 C649 1.372 . S
C647 H664 0.931 . S
C648 C645 1.382 . S
C648 C649 1.390 . S
C648 H665 0.931 . S
C649 C647 1.372 . S
C649 C648 1.390 . S
C649 H666 0.929 . S
C650 C645 1.390 . S
C650 C646 1.392 . S
C650 H667 0.930 . S
C651 O636 1.255 . S
C651 O637 1.257 . S
C652 Eu588 2.787 . S
C652 O632 1.252 . S
C652 O635 1.268 . S
C652 C645 1.506 . S
C653 C620 1.439 . S
C653 H630 0.931 . S
C653 C654 1.374 . S
C654 C625 1.387 . S
C654 H631 0.931 . S
C654 C653 1.374 . S
C655 O639 1.249 . S
C655 O640 1.264 . S
C656 C659 1.382 . S
C656 C660 1.390 . S
C656 C663 1.506 . S
C657 C658 1.398 . S
C657 C660 1.392 . S
C658 C657 1.398 . S
C658 C661 1.372 . S
C658 H668 0.931 . S
C659 C656 1.382 . S
C659 C661 1.390 . S
C659 H669 0.931 . S
C660 C656 1.390 . S
C660 C657 1.392 . S
C660 H670 0.930 . S
C661 C658 1.372 . S
C661 C659 1.390 . S
C661 H671 0.929 . S
C662 O642 1.255 . S
C662 O643 1.257 . S
C663 Eu599 2.787 . S
C663 O638 1.252 . S
C663 O641 1.268 . S
C663 C656 1.506 . S
H664 C647 0.931 . S
H665 C648 0.931 . S
H666 C649 0.929 . S
H667 C650 0.930 . S
H668 C658 0.931 . S
H669 C659 0.931 . S
H670 C660 0.930 . S
H671 C661 0.929 . S
Eu672 N701 2.600 . S
Eu672 N707 2.562 . S
Eu672 O716 2.462 . S
Eu672 O717 2.373 . S
Eu672 O719 2.432 . S
Eu672 O720 2.291 . S
Eu672 O724 2.335 . S
Eu672 O727 2.372 . S
Eu672 C736 2.787 . S
C673 N674 1.365 . S
C673 C676 1.405 . S
C673 C680 1.448 . S
N674 C673 1.365 . S
N674 C677 1.319 . S
N674 Eu683 2.600 . S
C675 C677 1.397 . S
C675 C678 1.367 . S
C675 H695 0.931 . S
C676 C673 1.405 . S
C676 C678 1.403 . S
C676 C682 1.439 . S
C677 N674 1.319 . S
C677 C675 1.397 . S
C677 H688 0.930 . S
C678 C675 1.367 . S
C678 C676 1.403 . S
C678 H699 0.929 . S
C679 C680 1.430 . S
C679 C681 1.387 . S
C679 C685 1.404 . S
C680 C673 1.448 . S
C680 C679 1.430 . S
C680 N684 1.351 . S
C681 C679 1.387 . S
C681 C682 1.374 . S
C681 H696 0.931 . S
C682 C676 1.439 . S
C682 C681 1.374 . S
C682 H697 0.931 . S
Eu683 N674 2.600 . S
Eu683 N684 2.562 . S
Eu683 O718 2.335 . S
Eu683 O721 2.372 . S
Eu683 O722 2.462 . S
Eu683 O723 2.373 . S
Eu683 O725 2.432 . S
Eu683 O726 2.291 . S
Eu683 C747 2.787 . S
N684 C680 1.351 . S
N684 Eu683 2.562 . S
N684 C686 1.325 . S
C685 C679 1.404 . S
C685 C687 1.366 . S
C685 H693 0.930 . S
C686 N684 1.325 . S
C686 C687 1.416 . S
C686 H692 0.929 . S
C687 C685 1.366 . S
C687 C686 1.416 . S
C687 H689 0.930 . S
H688 C677 0.930 . S
H689 C687 0.930 . S
H690 C705 0.930 . S
H691 C712 0.930 . S
H692 C686 0.929 . S
H693 C685 0.930 . S
H694 C708 0.929 . S
H695 C675 0.931 . S
H696 C681 0.931 . S
H697 C682 0.931 . S
H698 C703 0.931 . S
H699 C678 0.929 . S
H700 C711 0.930 . S
N701 Eu672 2.600 . S
N701 C702 1.365 . S
N701 C705 1.319 . S
C702 N701 1.365 . S
C702 C704 1.405 . S
C702 C710 1.448 . S
C703 H698 0.931 . S
C703 C705 1.397 . S
C703 C706 1.367 . S
C704 C702 1.405 . S
C704 C706 1.403 . S
C704 C737 1.439 . S
C705 H690 0.930 . S
C705 N701 1.319 . S
C705 C703 1.397 . S
C706 C703 1.367 . S
C706 C704 1.403 . S
C706 H713 0.929 . S
N707 Eu672 2.562 . S
N707 C708 1.325 . S
N707 C710 1.351 . S
C708 H694 0.929 . S
C708 N707 1.325 . S
C708 C712 1.416 . S
C709 C710 1.430 . S
C709 C711 1.404 . S
C709 C738 1.387 . S
C710 C702 1.448 . S
C710 N707 1.351 . S
C710 C709 1.430 . S
C711 H700 0.930 . S
C711 C709 1.404 . S
C711 C712 1.366 . S
C712 H691 0.930 . S
C712 C708 1.416 . S
C712 C711 1.366 . S
H713 C706 0.929 . S
H714 C737 0.931 . S
H715 C738 0.931 . S
O716 Eu672 2.462 . S
O716 C736 1.252 . S
O717 Eu672 2.373 . S
O717 C728 1.249 . S
O718 Eu683 2.335 . S
O718 C728 1.264 . S
O719 Eu672 2.432 . S
O719 C736 1.268 . S
O720 Eu672 2.291 . S
O720 C735 1.255 . S
O721 Eu683 2.372 . S
O721 C735 1.257 . S
O722 Eu683 2.462 . S
O722 C747 1.252 . S
O723 Eu683 2.373 . S
O723 C739 1.249 . S
O724 Eu672 2.335 . S
O724 C739 1.264 . S
O725 Eu683 2.432 . S
O725 C747 1.268 . S
O726 Eu683 2.291 . S
O726 C746 1.255 . S
O727 Eu672 2.372 . S
O727 C746 1.257 . S
C728 O717 1.249 . S
C728 O718 1.264 . S
C729 C732 1.382 . S
C729 C734 1.390 . S
C729 C736 1.506 . S
C730 C731 1.398 . S
C730 C734 1.392 . S
C731 C730 1.398 . S
C731 C733 1.372 . S
C731 H748 0.931 . S
C732 C729 1.382 . S
C732 C733 1.390 . S
C732 H749 0.931 . S
C733 C731 1.372 . S
C733 C732 1.390 . S
C733 H750 0.929 . S
C734 C729 1.390 . S
C734 C730 1.392 . S
C734 H751 0.930 . S
C735 O720 1.255 . S
C735 O721 1.257 . S
C736 Eu672 2.787 . S
C736 O716 1.252 . S
C736 O719 1.268 . S
C736 C729 1.506 . S
C737 C704 1.439 . S
C737 H714 0.931 . S
C737 C738 1.374 . S
C738 C709 1.387 . S
C738 H715 0.931 . S
C738 C737 1.374 . S
C739 O723 1.249 . S
C739 O724 1.264 . S
C740 C743 1.382 . S
C740 C744 1.390 . S
C740 C747 1.506 . S
C741 C742 1.398 . S
C741 C744 1.392 . S
C742 C741 1.398 . S
C742 C745 1.372 . S
C742 H752 0.931 . S
C743 C740 1.382 . S
C743 C745 1.390 . S
C743 H753 0.931 . S
C744 C740 1.390 . S
C744 C741 1.392 . S
C744 H754 0.930 . S
C745 C742 1.372 . S
C745 C743 1.390 . S
C745 H755 0.929 . S
C746 O726 1.255 . S
C746 O727 1.257 . S
C747 Eu683 2.787 . S
C747 O722 1.252 . S
C747 O725 1.268 . S
C747 C740 1.506 . S
H748 C731 0.931 . S
H749 C732 0.931 . S
H750 C733 0.929 . S
H751 C734 0.930 . S
H752 C742 0.931 . S
H753 C743 0.931 . S
H754 C744 0.930 . S
H755 C745 0.929 . S
Eu756 N785 2.600 1_655 S
Eu756 N791 2.562 . S
Eu756 O800 2.462 . S
Eu756 O801 2.373 1_655 S
Eu756 O803 2.432 . S
Eu756 O804 2.291 . S
Eu756 O808 2.335 . S
Eu756 O811 2.372 1_655 S
Eu756 C820 2.787 . S
C757 N758 1.365 . S
C757 C760 1.405 . S
C757 C764 1.448 . S
N758 C757 1.365 . S
N758 C761 1.319 . S
N758 Eu767 2.600 1_655 S
C759 C761 1.397 . S
C759 C762 1.367 . S
C759 H779 0.931 . S
C760 C757 1.405 . S
C760 C762 1.403 . S
C760 C766 1.439 . S
C761 N758 1.319 . S
C761 C759 1.397 . S
C761 H772 0.930 . S
C762 C759 1.367 . S
C762 C760 1.403 . S
C762 H783 0.929 . S
C763 C764 1.430 . S
C763 C765 1.387 . S
C763 C769 1.404 1_655 S
C764 C757 1.448 . S
C764 C763 1.430 . S
C764 N768 1.351 1_655 S
C765 C763 1.387 . S
C765 C766 1.374 . S
C765 H780 0.931 . S
C766 C760 1.439 . S
C766 C765 1.374 . S
C766 H781 0.931 . S
Eu767 N758 2.600 1_455 S
Eu767 N768 2.562 . S
Eu767 O802 2.335 . S
Eu767 O805 2.372 1_455 S
Eu767 O806 2.462 . S
Eu767 O807 2.373 1_455 S
Eu767 O809 2.432 . S
Eu767 O810 2.291 . S
Eu767 C831 2.787 . S
N768 C764 1.351 1_455 S
N768 Eu767 2.562 . S
N768 C770 1.325 . S
C769 C763 1.404 1_455 S
C769 C771 1.366 . S
C769 H777 0.930 . S
C770 N768 1.325 . S
C770 C771 1.416 . S
C770 H776 0.929 . S
C771 C769 1.366 . S
C771 C770 1.416 . S
C771 H773 0.930 . S
H772 C761 0.930 . S
H773 C771 0.930 . S
H774 C789 0.930 . S
H775 C796 0.930 . S
H776 C770 0.929 . S
H777 C769 0.930 . S
H778 C792 0.929 . S
H779 C759 0.931 . S
H780 C765 0.931 . S
H781 C766 0.931 . S
H782 C787 0.931 1_554 S
H783 C762 0.929 . S
H784 C795 0.930 . S
N785 Eu756 2.600 1_455 S
N785 C786 1.365 . S
N785 C789 1.319 . S
C786 N785 1.365 . S
C786 C788 1.405 . S
C786 C794 1.448 . S
C787 H782 0.931 1_556 S
C787 C789 1.397 . S
C787 C790 1.367 . S
C788 C786 1.405 . S
C788 C790 1.403 . S
C788 C821 1.439 . S
C789 H774 0.930 . S
C789 N785 1.319 . S
C789 C787 1.397 . S
C790 C787 1.367 . S
C790 C788 1.403 . S
C790 H797 0.929 . S
N791 Eu756 2.562 . S
N791 C792 1.325 . S
N791 C794 1.351 1_655 S
C792 H778 0.929 . S
C792 N791 1.325 . S
C792 C796 1.416 . S
C793 C794 1.430 . S
C793 C795 1.404 1_455 S
C793 C822 1.387 . S
C794 C786 1.448 . S
C794 N791 1.351 1_455 S
C794 C793 1.430 . S
C795 H784 0.930 . S
C795 C793 1.404 1_655 S
C795 C796 1.366 . S
C796 H775 0.930 . S
C796 C792 1.416 . S
C796 C795 1.366 . S
H797 C790 0.929 . S
H798 C821 0.931 . S
H799 C822 0.931 . S
O800 Eu756 2.462 . S
O800 C820 1.252 . S
O801 Eu756 2.373 1_455 S
O801 C812 1.249 . S
O802 Eu767 2.335 . S
O802 C812 1.264 . S
O803 Eu756 2.432 . S
O803 C820 1.268 . S
O804 Eu756 2.291 . S
O804 C819 1.255 . S
O805 Eu767 2.372 1_655 S
O805 C819 1.257 . S
O806 Eu767 2.462 . S
O806 C831 1.252 . S
O807 Eu767 2.373 1_655 S
O807 C823 1.249 . S
O808 Eu756 2.335 . S
O808 C823 1.264 . S
O809 Eu767 2.432 . S
O809 C831 1.268 . S
O810 Eu767 2.291 . S
O810 C830 1.255 . S
O811 Eu756 2.372 1_455 S
O811 C830 1.257 . S
C812 O801 1.249 . S
C812 O802 1.264 . S
C813 C816 1.382 . S
C813 C818 1.390 . S
C813 C820 1.506 1_554 S
C814 C815 1.398 . S
C814 C818 1.392 . S
C815 C814 1.398 . S
C815 C817 1.372 . S
C815 H832 0.931 . S
C816 C813 1.382 . S
C816 C817 1.390 . S
C816 H833 0.931 . S
C817 C815 1.372 . S
C817 C816 1.390 . S
C817 H834 0.929 . S
C818 C813 1.390 . S
C818 C814 1.392 . S
C818 H835 0.930 1_554 S
C819 O804 1.255 . S
C819 O805 1.257 . S
C820 Eu756 2.787 . S
C820 O800 1.252 . S
C820 O803 1.268 . S
C820 C813 1.506 1_556 S
C821 C788 1.439 . S
C821 H798 0.931 . S
C821 C822 1.374 . S
C822 C793 1.387 . S
C822 H799 0.931 . S
C822 C821 1.374 . S
C823 O807 1.249 . S
C823 O808 1.264 . S
C824 C827 1.382 . S
C824 C828 1.390 . S
C824 C831 1.506 . S
C825 C826 1.398 . S
C825 C828 1.392 . S
C826 C825 1.398 . S
C826 C829 1.372 . S
C826 H836 0.931 . S
C827 C824 1.382 . S
C827 C829 1.390 . S
C827 H837 0.931 . S
C828 C824 1.390 . S
C828 C825 1.392 . S
C828 H838 0.930 . S
C829 C826 1.372 . S
C829 C827 1.390 . S
C829 H839 0.929 . S
C830 O810 1.255 . S
C830 O811 1.257 . S
C831 Eu767 2.787 . S
C831 O806 1.252 . S
C831 O809 1.268 . S
C831 C824 1.506 . S
H832 C815 0.931 . S
H833 C816 0.931 . S
H834 C817 0.929 . S
H835 C818 0.930 1_556 S
H836 C826 0.931 . S
H837 C827 0.931 . S
H838 C828 0.930 . S
H839 C829 0.929 . S
Eu840 N869 2.600 1_565 S
Eu840 N875 2.562 . S
Eu840 O884 2.462 . S
Eu840 O885 2.373 1_565 S
Eu840 O887 2.432 . S
Eu840 O888 2.291 . S
Eu840 O892 2.335 . S
Eu840 O895 2.372 1_565 S
Eu840 C904 2.787 . S
C841 N842 1.365 . S
C841 C844 1.405 . S
C841 C848 1.448 . S
N842 C841 1.365 . S
N842 C845 1.319 . S
N842 Eu851 2.600 1_565 S
C843 C845 1.397 . S
C843 C846 1.367 . S
C843 H863 0.931 . S
C844 C841 1.405 . S
C844 C846 1.403 . S
C844 C850 1.439 . S
C845 N842 1.319 . S
C845 C843 1.397 . S
C845 H856 0.930 . S
C846 C843 1.367 . S
C846 C844 1.403 . S
C846 H867 0.929 . S
C847 C848 1.430 . S
C847 C849 1.387 . S
C847 C853 1.404 1_565 S
C848 C841 1.448 . S
C848 C847 1.430 . S
C848 N852 1.351 1_565 S
C849 C847 1.387 . S
C849 C850 1.374 . S
C849 H864 0.931 . S
C850 C844 1.439 . S
C850 C849 1.374 . S
C850 H865 0.931 . S
Eu851 N842 2.600 1_545 S
Eu851 N852 2.562 . S
Eu851 O886 2.335 . S
Eu851 O889 2.372 1_545 S
Eu851 O890 2.462 . S
Eu851 O891 2.373 1_545 S
Eu851 O893 2.432 . S
Eu851 O894 2.291 . S
Eu851 C915 2.787 . S
N852 C848 1.351 1_545 S
N852 Eu851 2.562 . S
N852 C854 1.325 . S
C853 C847 1.404 1_545 S
C853 C855 1.366 . S
C853 H861 0.930 . S
C854 N852 1.325 . S
C854 C855 1.416 . S
C854 H860 0.929 . S
C855 C853 1.366 . S
C855 C854 1.416 . S
C855 H857 0.930 . S
H856 C845 0.930 . S
H857 C855 0.930 . S
H858 C873 0.930 . S
H859 C880 0.930 . S
H860 C854 0.929 . S
H861 C853 0.930 . S
H862 C876 0.929 . S
H863 C843 0.931 . S
H864 C849 0.931 . S
H865 C850 0.931 . S
H866 C871 0.931 . S
H867 C846 0.929 . S
H868 C879 0.930 . S
N869 Eu840 2.600 1_545 S
N869 C870 1.365 . S
N869 C873 1.319 . S
C870 N869 1.365 . S
C870 C872 1.405 . S
C870 C878 1.448 . S
C871 H866 0.931 . S
C871 C873 1.397 . S
C871 C874 1.367 . S
C872 C870 1.405 . S
C872 C874 1.403 . S
C872 C905 1.439 . S
C873 H858 0.930 . S
C873 N869 1.319 . S
C873 C871 1.397 . S
C874 C871 1.367 . S
C874 C872 1.403 . S
C874 H881 0.929 . S
N875 Eu840 2.562 . S
N875 C876 1.325 . S
N875 C878 1.351 1_565 S
C876 H862 0.929 . S
C876 N875 1.325 . S
C876 C880 1.416 . S
C877 C878 1.430 . S
C877 C879 1.404 1_545 S
C877 C906 1.387 . S
C878 C870 1.448 . S
C878 N875 1.351 1_545 S
C878 C877 1.430 . S
C879 H868 0.930 . S
C879 C877 1.404 1_565 S
C879 C880 1.366 . S
C880 H859 0.930 . S
C880 C876 1.416 . S
C880 C879 1.366 . S
H881 C874 0.929 . S
H882 C905 0.931 . S
H883 C906 0.931 . S
O884 Eu840 2.462 . S
O884 C904 1.252 . S
O885 Eu840 2.373 1_545 S
O885 C896 1.249 . S
O886 Eu851 2.335 . S
O886 C896 1.264 . S
O887 Eu840 2.432 . S
O887 C904 1.268 . S
O888 Eu840 2.291 . S
O888 C903 1.255 . S
O889 Eu851 2.372 1_565 S
O889 C903 1.257 . S
O890 Eu851 2.462 . S
O890 C915 1.252 . S
O891 Eu851 2.373 1_565 S
O891 C907 1.249 . S
O892 Eu840 2.335 . S
O892 C907 1.264 . S
O893 Eu851 2.432 . S
O893 C915 1.268 . S
O894 Eu851 2.291 . S
O894 C914 1.255 . S
O895 Eu840 2.372 1_545 S
O895 C914 1.257 . S
C896 O885 1.249 . S
C896 O886 1.264 . S
C897 C900 1.382 . S
C897 C902 1.390 . S
C897 C904 1.506 . S
C898 C899 1.398 . S
C898 C902 1.392 . S
C899 C898 1.398 . S
C899 C901 1.372 . S
C899 H916 0.931 . S
C900 C897 1.382 . S
C900 C901 1.390 . S
C900 H917 0.931 . S
C901 C899 1.372 . S
C901 C900 1.390 . S
C901 H918 0.929 . S
C902 C897 1.390 . S
C902 C898 1.392 . S
C902 H919 0.930 . S
C903 O888 1.255 . S
C903 O889 1.257 . S
C904 Eu840 2.787 . S
C904 O884 1.252 . S
C904 O887 1.268 . S
C904 C897 1.506 . S
C905 C872 1.439 . S
C905 H882 0.931 . S
C905 C906 1.374 . S
C906 C877 1.387 . S
C906 H883 0.931 . S
C906 C905 1.374 . S
C907 O891 1.249 . S
C907 O892 1.264 . S
C908 C911 1.382 . S
C908 C912 1.390 . S
C908 C915 1.506 . S
C909 C910 1.398 . S
C909 C912 1.392 . S
C910 C909 1.398 . S
C910 C913 1.372 . S
C910 H920 0.931 . S
C911 C908 1.382 . S
C911 C913 1.390 . S
C911 H921 0.931 . S
C912 C908 1.390 . S
C912 C909 1.392 . S
C912 H922 0.930 . S
C913 C910 1.372 . S
C913 C911 1.390 . S
C913 H923 0.929 . S
C914 O894 1.255 . S
C914 O895 1.257 . S
C915 Eu851 2.787 . S
C915 O890 1.252 . S
C915 O893 1.268 . S
C915 C908 1.506 . S
H916 C899 0.931 . S
H917 C900 0.931 . S
H918 C901 0.929 . S
H919 C902 0.930 . S
H920 C910 0.931 . S
H921 C911 0.931 . S
H922 C912 0.930 . S
H923 C913 0.929 . S
Eu924 N953 2.600 . S
Eu924 N959 2.562 . S
Eu924 O968 2.462 . S
Eu924 O969 2.373 . S
Eu924 O971 2.432 . S
Eu924 O972 2.291 . S
Eu924 O976 2.335 . S
Eu924 O979 2.372 . S
Eu924 C988 2.787 . S
C925 N926 1.365 . S
C925 C928 1.405 . S
C925 C932 1.448 . S
N926 C925 1.365 . S
N926 C929 1.319 . S
N926 Eu935 2.600 . S
C927 C929 1.397 . S
C927 C930 1.367 . S
C927 H947 0.931 . S
C928 C925 1.405 . S
C928 C930 1.403 . S
C928 C934 1.439 . S
C929 N926 1.319 . S
C929 C927 1.397 . S
C929 H940 0.930 . S
C930 C927 1.367 . S
C930 C928 1.403 . S
C930 H951 0.929 . S
C931 C932 1.430 . S
C931 C933 1.387 . S
C931 C937 1.404 . S
C932 C925 1.448 . S
C932 C931 1.430 . S
C932 N936 1.351 . S
C933 C931 1.387 . S
C933 C934 1.374 . S
C933 H948 0.931 . S
C934 C928 1.439 . S
C934 C933 1.374 . S
C934 H949 0.931 . S
Eu935 N926 2.600 . S
Eu935 N936 2.562 . S
Eu935 O970 2.335 . S
Eu935 O973 2.372 . S
Eu935 O974 2.462 . S
Eu935 O975 2.373 . S
Eu935 O977 2.432 . S
Eu935 O978 2.291 . S
Eu935 C999 2.787 . S
N936 C932 1.351 . S
N936 Eu935 2.562 . S
N936 C938 1.325 . S
C937 C931 1.404 . S
C937 C939 1.366 . S
C937 H945 0.930 . S
C938 N936 1.325 . S
C938 C939 1.416 . S
C938 H944 0.929 . S
C939 C937 1.366 . S
C939 C938 1.416 . S
C939 H941 0.930 . S
H940 C929 0.930 . S
H941 C939 0.930 . S
H942 C957 0.930 . S
H943 C964 0.930 . S
H944 C938 0.929 . S
H945 C937 0.930 . S
H946 C960 0.929 . S
H947 C927 0.931 . S
H948 C933 0.931 . S
H949 C934 0.931 . S
H950 C955 0.931 . S
H951 C930 0.929 . S
H952 C963 0.930 . S
N953 Eu924 2.600 . S
N953 C954 1.365 . S
N953 C957 1.319 . S
C954 N953 1.365 . S
C954 C956 1.405 . S
C954 C962 1.448 . S
C955 H950 0.931 . S
C955 C957 1.397 . S
C955 C958 1.367 . S
C956 C954 1.405 . S
C956 C958 1.403 . S
C956 C989 1.439 . S
C957 H942 0.930 . S
C957 N953 1.319 . S
C957 C955 1.397 . S
C958 C955 1.367 . S
C958 C956 1.403 . S
C958 H965 0.929 . S
N959 Eu924 2.562 . S
N959 C960 1.325 . S
N959 C962 1.351 . S
C960 H946 0.929 . S
C960 N959 1.325 . S
C960 C964 1.416 . S
C961 C962 1.430 . S
C961 C963 1.404 . S
C961 C990 1.387 . S
C962 C954 1.448 . S
C962 N959 1.351 . S
C962 C961 1.430 . S
C963 H952 0.930 . S
C963 C961 1.404 . S
C963 C964 1.366 . S
C964 H943 0.930 . S
C964 C960 1.416 . S
C964 C963 1.366 . S
H965 C958 0.929 . S
H966 C989 0.931 . S
H967 C990 0.931 . S
O968 Eu924 2.462 . S
O968 C988 1.252 . S
O969 Eu924 2.373 . S
O969 C980 1.249 . S
O970 Eu935 2.335 . S
O970 C980 1.264 . S
O971 Eu924 2.432 . S
O971 C988 1.268 . S
O972 Eu924 2.291 . S
O972 C987 1.255 . S
O973 Eu935 2.372 . S
O973 C987 1.257 . S
O974 Eu935 2.462 . S
O974 C999 1.252 . S
O975 Eu935 2.373 . S
O975 C991 1.249 . S
O976 Eu924 2.335 . S
O976 C991 1.264 . S
O977 Eu935 2.432 . S
O977 C999 1.268 . S
O978 Eu935 2.291 . S
O978 C998 1.255 . S
O979 Eu924 2.372 . S
O979 C998 1.257 . S
C980 O969 1.249 . S
C980 O970 1.264 . S
C981 C984 1.382 . S
C981 C986 1.390 . S
C981 C988 1.506 . S
C982 C983 1.398 . S
C982 C986 1.392 . S
C983 C982 1.398 . S
C983 C985 1.372 . S
C983 H1000 0.931 . S
C984 C981 1.382 . S
C984 C985 1.390 . S
C984 H1001 0.931 . S
C985 C983 1.372 . S
C985 C984 1.390 . S
C985 H1002 0.929 . S
C986 C981 1.390 . S
C986 C982 1.392 . S
C986 H1003 0.930 . S
C987 O972 1.255 . S
C987 O973 1.257 . S
C988 Eu924 2.787 . S
C988 O968 1.252 . S
C988 O971 1.268 . S
C988 C981 1.506 . S
C989 C956 1.439 . S
C989 H966 0.931 . S
C989 C990 1.374 . S
C990 C961 1.387 . S
C990 H967 0.931 . S
C990 C989 1.374 . S
C991 O975 1.249 . S
C991 O976 1.264 . S
C992 C995 1.382 . S
C992 C996 1.390 . S
C992 C999 1.506 . S
C993 C994 1.398 . S
C993 C996 1.392 . S
C994 C993 1.398 . S
C994 C997 1.372 . S
C994 H1004 0.931 . S
C995 C992 1.382 . S
C995 C997 1.390 . S
C995 H1005 0.931 . S
C996 C992 1.390 . S
C996 C993 1.392 . S
C996 H1006 0.930 . S
C997 C994 1.372 . S
C997 C995 1.390 . S
C997 H1007 0.929 . S
C998 O978 1.255 . S
C998 O979 1.257 . S
C999 Eu935 2.787 . S
C999 O974 1.252 . S
C999 O977 1.268 . S
C999 C992 1.506 . S
H1000 C983 0.931 . S
H1001 C984 0.931 . S
H1002 C985 0.929 . S
H1003 C986 0.930 . S
H1004 C994 0.931 . S
H1005 C995 0.931 . S
H1006 C996 0.930 . S
H1007 C997 0.929 . S
H1008 C1016 0.929 . S
H1009 C1018 0.930 . S
H1010 C1020 0.930 . S
H1011 C1023 0.929 . S
H1012 C1026 0.930 . S
H1013 C1028 0.960 . S
H1014 C1028 0.960 . S
H1015 C1028 0.960 . S
C1016 H1008 0.929 . S
C1016 C1017 1.377 . S
C1016 C1018 1.384 . S
C1017 C1016 1.377 . S
C1017 C1023 1.390 . S
C1018 H1009 0.930 . S
C1018 C1016 1.384 . S
C1018 C1019 1.372 . S
C1019 C1018 1.372 . S
C1019 C1020 1.400 . S
C1019 C1024 1.490 . S
C1020 H1010 0.930 . S
C1020 C1019 1.400 . S
C1020 C1023 1.386 . S
H1021 C1037 0.930 . S
H1022 C1038 0.931 . S
C1023 H1011 0.929 . S
C1023 C1017 1.390 . S
C1023 C1020 1.386 . S
C1024 C1019 1.490 . S
C1024 C1026 1.395 . S
C1024 C1027 1.403 . S
H1025 C1031 0.930 . S
C1026 H1012 0.930 . S
C1026 C1024 1.395 . S
C1026 C1029 1.403 . S
C1027 C1024 1.403 . S
C1027 C1028 1.524 . S
C1027 C1031 1.400 . S
C1028 H1013 0.960 . S
C1028 H1014 0.960 . S
C1028 H1015 0.960 . S
C1028 C1027 1.524 . S
C1029 C1026 1.403 . S
C1029 C1030 1.392 . S
C1029 C1033 1.495 . S
C1030 C1029 1.392 . S
C1030 C1031 1.385 . S
C1030 C1032 1.478 . S
C1031 H1025 0.930 . S
C1031 C1027 1.400 . S
C1031 C1030 1.385 . S
C1032 C1030 1.478 . S
C1032 C1034 1.381 . S
C1032 C1038 1.383 . S
C1033 C1029 1.495 . S
C1033 H1039 0.959 . S
C1033 H1040 0.961 . S
C1033 H1041 0.960 . S
C1034 C1032 1.381 . S
C1034 C1035 1.394 . S
C1034 H1042 0.930 . S
C1035 C1034 1.394 . S
C1035 C1036 1.383 . S
C1035 H1043 0.929 . S
C1036 C1035 1.383 . S
C1036 C1037 1.377 . S
C1037 H1021 0.930 . S
C1037 C1036 1.377 . S
C1037 C1038 1.379 . S
C1038 H1022 0.931 . S
C1038 C1032 1.383 . S
C1038 C1037 1.379 . S
H1039 C1033 0.959 . S
H1040 C1033 0.961 . S
H1041 C1033 0.960 . S
H1042 C1034 0.930 . S
H1043 C1035 0.929 . S
H1044 C1052 0.929 . S
H1045 C1054 0.930 . S
H1046 C1056 0.930 . S
H1047 C1059 0.929 . S
H1048 C1062 0.930 . S
H1049 C1064 0.960 . S
H1050 C1064 0.960 . S
H1051 C1064 0.960 . S
C1052 H1044 0.929 . S
C1052 C1053 1.377 . S
C1052 C1054 1.384 . S
C1053 C1052 1.377 . S
C1053 C1059 1.390 . S
C1054 H1045 0.930 . S
C1054 C1052 1.384 . S
C1054 C1055 1.372 . S
C1055 C1054 1.372 . S
C1055 C1056 1.400 . S
C1055 C1060 1.490 . S
C1056 H1046 0.930 . S
C1056 C1055 1.400 . S
C1056 C1059 1.386 . S
H1057 C1073 0.930 . S
H1058 C1074 0.931 . S
C1059 H1047 0.929 . S
C1059 C1053 1.390 . S
C1059 C1056 1.386 . S
C1060 C1055 1.490 . S
C1060 C1062 1.395 . S
C1060 C1063 1.403 . S
H1061 C1067 0.930 . S
C1062 H1048 0.930 . S
C1062 C1060 1.395 . S
C1062 C1065 1.403 . S
C1063 C1060 1.403 . S
C1063 C1064 1.524 . S
C1063 C1067 1.400 . S
C1064 H1049 0.960 . S
C1064 H1050 0.960 . S
C1064 H1051 0.960 . S
C1064 C1063 1.524 . S
C1065 C1062 1.403 . S
C1065 C1066 1.392 . S
C1065 C1069 1.495 . S
C1066 C1065 1.392 . S
C1066 C1067 1.385 . S
C1066 C1068 1.478 . S
C1067 H1061 0.930 . S
C1067 C1063 1.400 . S
C1067 C1066 1.385 . S
C1068 C1066 1.478 . S
C1068 C1070 1.381 . S
C1068 C1074 1.383 . S
C1069 C1065 1.495 . S
C1069 H1075 0.959 . S
C1069 H1076 0.961 . S
C1069 H1077 0.960 . S
C1070 C1068 1.381 . S
C1070 C1071 1.394 . S
C1070 H1078 0.930 . S
C1071 C1070 1.394 . S
C1071 C1072 1.383 . S
C1071 H1079 0.929 . S
C1072 C1071 1.383 . S
C1072 C1073 1.377 . S
C1073 H1057 0.930 . S
C1073 C1072 1.377 . S
C1073 C1074 1.379 . S
C1074 H1058 0.931 . S
C1074 C1068 1.383 . S
C1074 C1073 1.379 . S
H1075 C1069 0.959 . S
H1076 C1069 0.961 . S
H1077 C1069 0.960 . S
H1078 C1070 0.930 . S
H1079 C1071 0.929 . S
H1080 C1088 0.929 . S
H1081 C1090 0.930 . S
H1082 C1092 0.930 . S
H1083 C1095 0.929 . S
H1084 C1098 0.930 . S
H1085 C1100 0.960 . S
H1086 C1100 0.960 . S
H1087 C1100 0.960 . S
C1088 H1080 0.929 . S
C1088 C1089 1.377 . S
C1088 C1090 1.384 . S
C1089 C1088 1.377 . S
C1089 C1095 1.390 . S
C1090 H1081 0.930 . S
C1090 C1088 1.384 . S
C1090 C1091 1.372 . S
C1091 C1090 1.372 . S
C1091 C1092 1.400 . S
C1091 C1096 1.490 . S
C1092 H1082 0.930 . S
C1092 C1091 1.400 . S
C1092 C1095 1.386 . S
H1093 C1109 0.930 . S
H1094 C1110 0.931 . S
C1095 H1083 0.929 . S
C1095 C1089 1.390 . S
C1095 C1092 1.386 . S
C1096 C1091 1.490 . S
C1096 C1098 1.395 . S
C1096 C1099 1.403 . S
H1097 C1103 0.930 . S
C1098 H1084 0.930 . S
C1098 C1096 1.395 . S
C1098 C1101 1.403 . S
C1099 C1096 1.403 . S
C1099 C1100 1.524 . S
C1099 C1103 1.400 . S
C1100 H1085 0.960 . S
C1100 H1086 0.960 . S
C1100 H1087 0.960 . S
C1100 C1099 1.524 . S
C1101 C1098 1.403 . S
C1101 C1102 1.392 . S
C1101 C1105 1.495 . S
C1102 C1101 1.392 . S
C1102 C1103 1.385 . S
C1102 C1104 1.478 . S
C1103 H1097 0.930 . S
C1103 C1099 1.400 . S
C1103 C1102 1.385 . S
C1104 C1102 1.478 . S
C1104 C1106 1.381 . S
C1104 C1110 1.383 . S
C1105 C1101 1.495 . S
C1105 H1111 0.959 . S
C1105 H1112 0.961 . S
C1105 H1113 0.960 . S
C1106 C1104 1.381 . S
C1106 C1107 1.394 . S
C1106 H1114 0.930 . S
C1107 C1106 1.394 . S
C1107 C1108 1.383 . S
C1107 H1115 0.929 . S
C1108 C1107 1.383 . S
C1108 C1109 1.377 . S
C1109 H1093 0.930 . S
C1109 C1108 1.377 . S
C1109 C1110 1.379 . S
C1110 H1094 0.931 . S
C1110 C1104 1.383 . S
C1110 C1109 1.379 . S
H1111 C1105 0.959 . S
H1112 C1105 0.961 . S
H1113 C1105 0.960 . S
H1114 C1106 0.930 . S
H1115 C1107 0.929 . S
H1116 C1124 0.929 . S
H1117 C1126 0.930 . S
H1118 C1128 0.930 . S
H1119 C1131 0.929 . S
H1120 C1134 0.930 . S
H1121 C1136 0.960 . S
H1122 C1136 0.960 . S
H1123 C1136 0.960 . S
C1124 H1116 0.929 . S
C1124 C1125 1.377 . S
C1124 C1126 1.384 . S
C1125 C1124 1.377 . S
C1125 C1131 1.390 . S
C1126 H1117 0.930 . S
C1126 C1124 1.384 . S
C1126 C1127 1.372 . S
C1127 C1126 1.372 . S
C1127 C1128 1.400 . S
C1127 C1132 1.490 . S
C1128 H1118 0.930 . S
C1128 C1127 1.400 . S
C1128 C1131 1.386 . S
H1129 C1145 0.930 . S
H1130 C1146 0.931 . S
C1131 H1119 0.929 . S
C1131 C1125 1.390 . S
C1131 C1128 1.386 . S
C1132 C1127 1.490 . S
C1132 C1134 1.395 . S
C1132 C1135 1.403 . S
H1133 C1139 0.930 . S
C1134 H1120 0.930 . S
C1134 C1132 1.395 . S
C1134 C1137 1.403 . S
C1135 C1132 1.403 . S
C1135 C1136 1.524 . S
C1135 C1139 1.400 . S
C1136 H1121 0.960 . S
C1136 H1122 0.960 . S
C1136 H1123 0.960 . S
C1136 C1135 1.524 . S
C1137 C1134 1.403 . S
C1137 C1138 1.392 . S
C1137 C1141 1.495 . S
C1138 C1137 1.392 . S
C1138 C1139 1.385 . S
C1138 C1140 1.478 . S
C1139 H1133 0.930 . S
C1139 C1135 1.400 . S
C1139 C1138 1.385 . S
C1140 C1138 1.478 . S
C1140 C1142 1.381 . S
C1140 C1146 1.383 . S
C1141 C1137 1.495 . S
C1141 H1147 0.959 . S
C1141 H1148 0.961 . S
C1141 H1149 0.960 . S
C1142 C1140 1.381 . S
C1142 C1143 1.394 . S
C1142 H1150 0.930 . S
C1143 C1142 1.394 . S
C1143 C1144 1.383 . S
C1143 H1151 0.929 . S
C1144 C1143 1.383 . S
C1144 C1145 1.377 . S
C1145 H1129 0.930 . S
C1145 C1144 1.377 . S
C1145 C1146 1.379 . S
C1146 H1130 0.931 . S
C1146 C1140 1.383 . S
C1146 C1145 1.379 . S
H1147 C1141 0.959 . S
H1148 C1141 0.961 . S
H1149 C1141 0.960 . S
H1150 C1142 0.930 . S
H1151 C1143 0.929 . S
H1152 C1160 0.929 . S
H1153 C1162 0.930 . S
H1154 C1164 0.930 . S
H1155 C1167 0.929 . S
H1156 C1170 0.930 . S
H1157 C1172 0.960 . S
H1158 C1172 0.960 . S
H1159 C1172 0.960 . S
C1160 H1152 0.929 . S
C1160 C1161 1.377 . S
C1160 C1162 1.384 . S
C1161 C1160 1.377 . S
C1161 C1167 1.390 . S
C1162 H1153 0.930 . S
C1162 C1160 1.384 . S
C1162 C1163 1.372 . S
C1163 C1162 1.372 . S
C1163 C1164 1.400 . S
C1163 C1168 1.490 . S
C1164 H1154 0.930 . S
C1164 C1163 1.400 . S
C1164 C1167 1.386 . S
H1165 C1181 0.930 . S
H1166 C1182 0.931 . S
C1167 H1155 0.929 . S
C1167 C1161 1.390 . S
C1167 C1164 1.386 . S
C1168 C1163 1.490 . S
C1168 C1170 1.395 . S
C1168 C1171 1.403 . S
H1169 C1175 0.930 . S
C1170 H1156 0.930 . S
C1170 C1168 1.395 . S
C1170 C1173 1.403 . S
C1171 C1168 1.403 . S
C1171 C1172 1.524 . S
C1171 C1175 1.400 . S
C1172 H1157 0.960 . S
C1172 H1158 0.960 . S
C1172 H1159 0.960 . S
C1172 C1171 1.524 . S
C1173 C1170 1.403 . S
C1173 C1174 1.392 . S
C1173 C1177 1.495 . S
C1174 C1173 1.392 . S
C1174 C1175 1.385 . S
C1174 C1176 1.478 . S
C1175 H1169 0.930 . S
C1175 C1171 1.400 . S
C1175 C1174 1.385 . S
C1176 C1174 1.478 . S
C1176 C1178 1.381 . S
C1176 C1182 1.383 . S
C1177 C1173 1.495 . S
C1177 H1183 0.959 . S
C1177 H1184 0.961 . S
C1177 H1185 0.960 . S
C1178 C1176 1.381 . S
C1178 C1179 1.394 . S
C1178 H1186 0.930 . S
C1179 C1178 1.394 . S
C1179 C1180 1.383 . S
C1179 H1187 0.929 . S
C1180 C1179 1.383 . S
C1180 C1181 1.377 . S
C1181 H1165 0.930 . S
C1181 C1180 1.377 . S
C1181 C1182 1.379 . S
C1182 H1166 0.931 . S
C1182 C1176 1.383 . S
C1182 C1181 1.379 . S
H1183 C1177 0.959 . S
H1184 C1177 0.961 . S
H1185 C1177 0.960 . S
H1186 C1178 0.930 . S
H1187 C1179 0.929 . S
H1188 C1196 0.929 . S
H1189 C1198 0.930 . S
H1190 C1200 0.930 . S
H1191 C1203 0.929 . S
H1192 C1206 0.930 . S
H1193 C1208 0.960 . S
H1194 C1208 0.960 . S
H1195 C1208 0.960 . S
C1196 H1188 0.929 . S
C1196 C1197 1.377 . S
C1196 C1198 1.384 . S
C1197 C1196 1.377 . S
C1197 C1203 1.390 . S
C1198 H1189 0.930 . S
C1198 C1196 1.384 . S
C1198 C1199 1.372 . S
C1199 C1198 1.372 . S
C1199 C1200 1.400 . S
C1199 C1204 1.490 . S
C1200 H1190 0.930 . S
C1200 C1199 1.400 . S
C1200 C1203 1.386 . S
H1201 C1217 0.930 . S
H1202 C1218 0.931 . S
C1203 H1191 0.929 . S
C1203 C1197 1.390 . S
C1203 C1200 1.386 . S
C1204 C1199 1.490 . S
C1204 C1206 1.395 . S
C1204 C1207 1.403 . S
H1205 C1211 0.930 . S
C1206 H1192 0.930 . S
C1206 C1204 1.395 . S
C1206 C1209 1.403 . S
C1207 C1204 1.403 . S
C1207 C1208 1.524 . S
C1207 C1211 1.400 . S
C1208 H1193 0.960 . S
C1208 H1194 0.960 . S
C1208 H1195 0.960 . S
C1208 C1207 1.524 . S
C1209 C1206 1.403 . S
C1209 C1210 1.392 . S
C1209 C1213 1.495 . S
C1210 C1209 1.392 . S
C1210 C1211 1.385 . S
C1210 C1212 1.478 . S
C1211 H1205 0.930 . S
C1211 C1207 1.400 . S
C1211 C1210 1.385 . S
C1212 C1210 1.478 . S
C1212 C1214 1.381 . S
C1212 C1218 1.383 . S
C1213 C1209 1.495 . S
C1213 H1219 0.959 . S
C1213 H1220 0.961 . S
C1213 H1221 0.960 . S
C1214 C1212 1.381 . S
C1214 C1215 1.394 . S
C1214 H1222 0.930 . S
C1215 C1214 1.394 . S
C1215 C1216 1.383 . S
C1215 H1223 0.929 . S
C1216 C1215 1.383 . S
C1216 C1217 1.377 . S
C1217 H1201 0.930 . S
C1217 C1216 1.377 . S
C1217 C1218 1.379 . S
C1218 H1202 0.931 . S
C1218 C1212 1.383 . S
C1218 C1217 1.379 . S
H1219 C1213 0.959 . S
H1220 C1213 0.961 . S
H1221 C1213 0.960 . S
H1222 C1214 0.930 . S
H1223 C1215 0.929 . S
H1224 C1232 0.929 . S
H1225 C1234 0.930 . S
H1226 C1236 0.930 . S
H1227 C1239 0.929 . S
H1228 C1242 0.930 . S
H1229 C1244 0.960 . S
H1230 C1244 0.960 . S
H1231 C1244 0.960 . S
C1232 H1224 0.929 . S
C1232 C1233 1.377 . S
C1232 C1234 1.384 . S
C1233 C1232 1.377 . S
C1233 C1239 1.390 . S
C1234 H1225 0.930 . S
C1234 C1232 1.384 . S
C1234 C1235 1.372 . S
C1235 C1234 1.372 . S
C1235 C1236 1.400 . S
C1235 C1240 1.490 . S
C1236 H1226 0.930 . S
C1236 C1235 1.400 . S
C1236 C1239 1.386 . S
H1237 C1253 0.930 . S
H1238 C1254 0.931 . S
C1239 H1227 0.929 . S
C1239 C1233 1.390 . S
C1239 C1236 1.386 . S
C1240 C1235 1.490 . S
C1240 C1242 1.395 . S
C1240 C1243 1.403 . S
H1241 C1247 0.930 . S
C1242 H1228 0.930 . S
C1242 C1240 1.395 . S
C1242 C1245 1.403 . S
C1243 C1240 1.403 . S
C1243 C1244 1.524 . S
C1243 C1247 1.400 . S
C1244 H1229 0.960 . S
C1244 H1230 0.960 . S
C1244 H1231 0.960 . S
C1244 C1243 1.524 . S
C1245 C1242 1.403 . S
C1245 C1246 1.392 . S
C1245 C1249 1.495 . S
C1246 C1245 1.392 . S
C1246 C1247 1.385 . S
C1246 C1248 1.478 . S
C1247 H1241 0.930 . S
C1247 C1243 1.400 . S
C1247 C1246 1.385 . S
C1248 C1246 1.478 . S
C1248 C1250 1.381 . S
C1248 C1254 1.383 . S
C1249 C1245 1.495 . S
C1249 H1255 0.959 . S
C1249 H1256 0.961 . S
C1249 H1257 0.960 . S
C1250 C1248 1.381 . S
C1250 C1251 1.394 . S
C1250 H1258 0.930 . S
C1251 C1250 1.394 . S
C1251 C1252 1.383 . S
C1251 H1259 0.929 . S
C1252 C1251 1.383 . S
C1252 C1253 1.377 . S
C1253 H1237 0.930 . S
C1253 C1252 1.377 . S
C1253 C1254 1.379 . S
C1254 H1238 0.931 . S
C1254 C1248 1.383 . S
C1254 C1253 1.379 . S
H1255 C1249 0.959 . S
H1256 C1249 0.961 . S
H1257 C1249 0.960 . S
H1258 C1250 0.930 . S
H1259 C1251 0.929 . S
H1260 C1268 0.929 . S
H1261 C1270 0.930 . S
H1262 C1272 0.930 . S
H1263 C1275 0.929 . S
H1264 C1278 0.930 . S
H1265 C1280 0.960 . S
H1266 C1280 0.960 . S
H1267 C1280 0.960 . S
C1268 H1260 0.929 . S
C1268 C1269 1.377 . S
C1268 C1270 1.384 . S
C1269 C1268 1.377 . S
C1269 C1275 1.390 . S
C1270 H1261 0.930 . S
C1270 C1268 1.384 . S
C1270 C1271 1.372 . S
C1271 C1270 1.372 . S
C1271 C1272 1.400 . S
C1271 C1276 1.490 . S
C1272 H1262 0.930 . S
C1272 C1271 1.400 . S
C1272 C1275 1.386 . S
H1273 C1289 0.930 . S
H1274 C1290 0.931 . S
C1275 H1263 0.929 . S
C1275 C1269 1.390 . S
C1275 C1272 1.386 . S
C1276 C1271 1.490 . S
C1276 C1278 1.395 . S
C1276 C1279 1.403 . S
H1277 C1283 0.930 . S
C1278 H1264 0.930 . S
C1278 C1276 1.395 . S
C1278 C1281 1.403 . S
C1279 C1276 1.403 . S
C1279 C1280 1.524 . S
C1279 C1283 1.400 . S
C1280 H1265 0.960 . S
C1280 H1266 0.960 . S
C1280 H1267 0.960 . S
C1280 C1279 1.524 . S
C1281 C1278 1.403 . S
C1281 C1282 1.392 . S
C1281 C1285 1.495 . S
C1282 C1281 1.392 . S
C1282 C1283 1.385 . S
C1282 C1284 1.478 . S
C1283 H1277 0.930 . S
C1283 C1279 1.400 . S
C1283 C1282 1.385 . S
C1284 C1282 1.478 . S
C1284 C1286 1.381 . S
C1284 C1290 1.383 . S
C1285 C1281 1.495 . S
C1285 H1291 0.959 . S
C1285 H1292 0.961 . S
C1285 H1293 0.960 . S
C1286 C1284 1.381 . S
C1286 C1287 1.394 . S
C1286 H1294 0.930 . S
C1287 C1286 1.394 . S
C1287 C1288 1.383 . S
C1287 H1295 0.929 . S
C1288 C1287 1.383 . S
C1288 C1289 1.377 . S
C1289 H1273 0.930 . S
C1289 C1288 1.377 . S
C1289 C1290 1.379 . S
C1290 H1274 0.931 . S
C1290 C1284 1.383 . S
C1290 C1289 1.379 . S
H1291 C1285 0.959 . S
H1292 C1285 0.961 . S
H1293 C1285 0.960 . S
H1294 C1286 0.930 . S
H1295 C1287 0.929 . S
H1296 C1304 0.929 . S
H1297 C1306 0.930 . S
H1298 C1308 0.930 . S
H1299 C1311 0.929 . S
H1300 C1314 0.930 . S
H1301 C1316 0.960 . S
H1302 C1316 0.960 . S
H1303 C1316 0.960 . S
C1304 H1296 0.929 . S
C1304 C1305 1.377 . S
C1304 C1306 1.384 . S
C1305 C1304 1.377 . S
C1305 C1311 1.390 . S
C1306 H1297 0.930 . S
C1306 C1304 1.384 . S
C1306 C1307 1.372 . S
C1307 C1306 1.372 . S
C1307 C1308 1.400 . S
C1307 C1312 1.490 . S
C1308 H1298 0.930 . S
C1308 C1307 1.400 . S
C1308 C1311 1.386 . S
H1309 C1325 0.930 . S
H1310 C1326 0.931 . S
C1311 H1299 0.929 . S
C1311 C1305 1.390 . S
C1311 C1308 1.386 . S
C1312 C1307 1.490 . S
C1312 C1314 1.395 . S
C1312 C1315 1.403 . S
H1313 C1319 0.930 . S
C1314 H1300 0.930 . S
C1314 C1312 1.395 . S
C1314 C1317 1.403 . S
C1315 C1312 1.403 . S
C1315 C1316 1.524 . S
C1315 C1319 1.400 . S
C1316 H1301 0.960 . S
C1316 H1302 0.960 . S
C1316 H1303 0.960 . S
C1316 C1315 1.524 . S
C1317 C1314 1.403 . S
C1317 C1318 1.392 . S
C1317 C1321 1.495 . S
C1318 C1317 1.392 . S
C1318 C1319 1.385 . S
C1318 C1320 1.478 . S
C1319 H1313 0.930 . S
C1319 C1315 1.400 . S
C1319 C1318 1.385 . S
C1320 C1318 1.478 . S
C1320 C1322 1.381 . S
C1320 C1326 1.383 . S
C1321 C1317 1.495 . S
C1321 H1327 0.959 . S
C1321 H1328 0.961 . S
C1321 H1329 0.960 . S
C1322 C1320 1.381 . S
C1322 C1323 1.394 . S
C1322 H1330 0.930 . S
C1323 C1322 1.394 . S
C1323 C1324 1.383 . S
C1323 H1331 0.929 . S
C1324 C1323 1.383 . S
C1324 C1325 1.377 . S
C1325 H1309 0.930 . S
C1325 C1324 1.377 . S
C1325 C1326 1.379 . S
C1326 H1310 0.931 . S
C1326 C1320 1.383 . S
C1326 C1325 1.379 . S
H1327 C1321 0.959 . S
H1328 C1321 0.961 . S
H1329 C1321 0.960 . S
H1330 C1322 0.930 . S
H1331 C1323 0.929 . S
H1332 C1340 0.929 . S
H1333 C1342 0.930 . S
H1334 C1344 0.930 . S
H1335 C1347 0.929 . S
H1336 C1350 0.930 . S
H1337 C1352 0.960 . S
H1338 C1352 0.960 . S
H1339 C1352 0.960 . S
C1340 H1332 0.929 . S
C1340 C1341 1.377 . S
C1340 C1342 1.384 . S
C1341 C1340 1.377 . S
C1341 C1347 1.390 . S
C1342 H1333 0.930 . S
C1342 C1340 1.384 . S
C1342 C1343 1.372 . S
C1343 C1342 1.372 . S
C1343 C1344 1.400 . S
C1343 C1348 1.490 . S
C1344 H1334 0.930 . S
C1344 C1343 1.400 . S
C1344 C1347 1.386 . S
H1345 C1361 0.930 . S
H1346 C1362 0.931 . S
C1347 H1335 0.929 . S
C1347 C1341 1.390 . S
C1347 C1344 1.386 . S
C1348 C1343 1.490 . S
C1348 C1350 1.395 . S
C1348 C1351 1.403 . S
H1349 C1355 0.930 . S
C1350 H1336 0.930 . S
C1350 C1348 1.395 . S
C1350 C1353 1.403 . S
C1351 C1348 1.403 . S
C1351 C1352 1.524 . S
C1351 C1355 1.400 . S
C1352 H1337 0.960 . S
C1352 H1338 0.960 . S
C1352 H1339 0.960 . S
C1352 C1351 1.524 . S
C1353 C1350 1.403 . S
C1353 C1354 1.392 . S
C1353 C1357 1.495 . S
C1354 C1353 1.392 . S
C1354 C1355 1.385 . S
C1354 C1356 1.478 . S
C1355 H1349 0.930 . S
C1355 C1351 1.400 . S
C1355 C1354 1.385 . S
C1356 C1354 1.478 . S
C1356 C1358 1.381 . S
C1356 C1362 1.383 . S
C1357 C1353 1.495 . S
C1357 H1363 0.959 . S
C1357 H1364 0.961 . S
C1357 H1365 0.960 . S
C1358 C1356 1.381 . S
C1358 C1359 1.394 . S
C1358 H1366 0.930 . S
C1359 C1358 1.394 . S
C1359 C1360 1.383 . S
C1359 H1367 0.929 . S
C1360 C1359 1.383 . S
C1360 C1361 1.377 . S
C1361 H1345 0.930 . S
C1361 C1360 1.377 . S
C1361 C1362 1.379 . S
C1362 H1346 0.931 . S
C1362 C1356 1.383 . S
C1362 C1361 1.379 . S
H1363 C1357 0.959 . S
H1364 C1357 0.961 . S
H1365 C1357 0.960 . S
H1366 C1358 0.930 . S
H1367 C1359 0.929 . S
H1368 C1376 0.929 . S
H1369 C1378 0.930 . S
H1370 C1380 0.930 . S
H1371 C1383 0.929 . S
H1372 C1386 0.930 . S
H1373 C1388 0.960 . S
H1374 C1388 0.960 . S
H1375 C1388 0.960 . S
C1376 H1368 0.929 . S
C1376 C1377 1.377 . S
C1376 C1378 1.384 . S
C1377 C1376 1.377 . S
C1377 C1383 1.390 . S
C1378 H1369 0.930 . S
C1378 C1376 1.384 . S
C1378 C1379 1.372 . S
C1379 C1378 1.372 . S
C1379 C1380 1.400 . S
C1379 C1384 1.490 . S
C1380 H1370 0.930 . S
C1380 C1379 1.400 . S
C1380 C1383 1.386 . S
H1381 C1397 0.930 . S
H1382 C1398 0.931 . S
C1383 H1371 0.929 . S
C1383 C1377 1.390 . S
C1383 C1380 1.386 . S
C1384 C1379 1.490 . S
C1384 C1386 1.395 . S
C1384 C1387 1.403 . S
H1385 C1391 0.930 . S
C1386 H1372 0.930 . S
C1386 C1384 1.395 . S
C1386 C1389 1.403 . S
C1387 C1384 1.403 . S
C1387 C1388 1.524 . S
C1387 C1391 1.400 . S
C1388 H1373 0.960 . S
C1388 H1374 0.960 . S
C1388 H1375 0.960 . S
C1388 C1387 1.524 . S
C1389 C1386 1.403 . S
C1389 C1390 1.392 . S
C1389 C1393 1.495 . S
C1390 C1389 1.392 . S
C1390 C1391 1.385 . S
C1390 C1392 1.478 . S
C1391 H1385 0.930 . S
C1391 C1387 1.400 . S
C1391 C1390 1.385 . S
C1392 C1390 1.478 . S
C1392 C1394 1.381 . S
C1392 C1398 1.383 . S
C1393 C1389 1.495 . S
C1393 H1399 0.959 . S
C1393 H1400 0.961 . S
C1393 H1401 0.960 . S
C1394 C1392 1.381 . S
C1394 C1395 1.394 . S
C1394 H1402 0.930 . S
C1395 C1394 1.394 . S
C1395 C1396 1.383 . S
C1395 H1403 0.929 . S
C1396 C1395 1.383 . S
C1396 C1397 1.377 . S
C1397 H1381 0.930 . S
C1397 C1396 1.377 . S
C1397 C1398 1.379 . S
C1398 H1382 0.931 . S
C1398 C1392 1.383 . S
C1398 C1397 1.379 . S
H1399 C1393 0.959 . S
H1400 C1393 0.961 . S
H1401 C1393 0.960 . S
H1402 C1394 0.930 . S
H1403 C1395 0.929 . S
H1404 C1412 0.929 . S
H1405 C1414 0.930 . S
H1406 C1416 0.930 . S
H1407 C1419 0.929 . S
H1408 C1422 0.930 . S
H1409 C1424 0.960 . S
H1410 C1424 0.960 . S
H1411 C1424 0.960 . S
C1412 H1404 0.929 . S
C1412 C1413 1.377 . S
C1412 C1414 1.384 . S
C1413 C1412 1.377 . S
C1413 C1419 1.390 . S
C1414 H1405 0.930 . S
C1414 C1412 1.384 . S
C1414 C1415 1.372 . S
C1415 C1414 1.372 . S
C1415 C1416 1.400 . S
C1415 C1420 1.490 . S
C1416 H1406 0.930 . S
C1416 C1415 1.400 . S
C1416 C1419 1.386 . S
H1417 C1433 0.930 . S
H1418 C1434 0.931 . S
C1419 H1407 0.929 . S
C1419 C1413 1.390 . S
C1419 C1416 1.386 . S
C1420 C1415 1.490 . S
C1420 C1422 1.395 . S
C1420 C1423 1.403 . S
H1421 C1427 0.930 . S
C1422 H1408 0.930 . S
C1422 C1420 1.395 . S
C1422 C1425 1.403 . S
C1423 C1420 1.403 . S
C1423 C1424 1.524 . S
C1423 C1427 1.400 . S
C1424 H1409 0.960 . S
C1424 H1410 0.960 . S
C1424 H1411 0.960 . S
C1424 C1423 1.524 . S
C1425 C1422 1.403 . S
C1425 C1426 1.392 . S
C1425 C1429 1.495 . S
C1426 C1425 1.392 . S
C1426 C1427 1.385 . S
C1426 C1428 1.478 . S
C1427 H1421 0.930 . S
C1427 C1423 1.400 . S
C1427 C1426 1.385 . S
C1428 C1426 1.478 . S
C1428 C1430 1.381 . S
C1428 C1434 1.383 . S
C1429 C1425 1.495 . S
C1429 H1435 0.959 . S
C1429 H1436 0.961 . S
C1429 H1437 0.960 . S
C1430 C1428 1.381 . S
C1430 C1431 1.394 . S
C1430 H1438 0.930 . S
C1431 C1430 1.394 . S
C1431 C1432 1.383 . S
C1431 H1439 0.929 . S
C1432 C1431 1.383 . S
C1432 C1433 1.377 . S
C1433 H1417 0.930 . S
C1433 C1432 1.377 . S
C1433 C1434 1.379 . S
C1434 H1418 0.931 . S
C1434 C1428 1.383 . S
C1434 C1433 1.379 . S
H1435 C1429 0.959 . S
H1436 C1429 0.961 . S
H1437 C1429 0.960 . S
H1438 C1430 0.930 . S
H1439 C1431 0.929 . S
H1440 C1448 0.929 . S
H1441 C1450 0.930 . S
H1442 C1452 0.930 . S
H1443 C1455 0.929 . S
H1444 C1458 0.930 . S
H1445 C1460 0.960 . S
H1446 C1460 0.960 . S
H1447 C1460 0.960 . S
C1448 H1440 0.929 . S
C1448 C1449 1.377 . S
C1448 C1450 1.384 . S
C1449 C1448 1.377 . S
C1449 C1455 1.390 . S
C1450 H1441 0.930 . S
C1450 C1448 1.384 . S
C1450 C1451 1.372 . S
C1451 C1450 1.372 . S
C1451 C1452 1.400 . S
C1451 C1456 1.490 . S
C1452 H1442 0.930 . S
C1452 C1451 1.400 . S
C1452 C1455 1.386 . S
H1453 C1469 0.930 . S
H1454 C1470 0.931 . S
C1455 H1443 0.929 . S
C1455 C1449 1.390 . S
C1455 C1452 1.386 . S
C1456 C1451 1.490 . S
C1456 C1458 1.395 . S
C1456 C1459 1.403 . S
H1457 C1463 0.930 . S
C1458 H1444 0.930 . S
C1458 C1456 1.395 . S
C1458 C1461 1.403 . S
C1459 C1456 1.403 . S
C1459 C1460 1.524 . S
C1459 C1463 1.400 . S
C1460 H1445 0.960 . S
C1460 H1446 0.960 . S
C1460 H1447 0.960 . S
C1460 C1459 1.524 . S
C1461 C1458 1.403 . S
C1461 C1462 1.392 . S
C1461 C1465 1.495 . S
C1462 C1461 1.392 . S
C1462 C1463 1.385 . S
C1462 C1464 1.478 . S
C1463 H1457 0.930 . S
C1463 C1459 1.400 . S
C1463 C1462 1.385 . S
C1464 C1462 1.478 . S
C1464 C1466 1.381 . S
C1464 C1470 1.383 . S
C1465 C1461 1.495 . S
C1465 H1471 0.959 . S
C1465 H1472 0.961 . S
C1465 H1473 0.960 . S
C1466 C1464 1.381 . S
C1466 C1467 1.394 . S
C1466 H1474 0.930 . S
C1467 C1466 1.394 . S
C1467 C1468 1.383 . S
C1467 H1475 0.929 . S
C1468 C1467 1.383 . S
C1468 C1469 1.377 . S
C1469 H1453 0.930 . S
C1469 C1468 1.377 . S
C1469 C1470 1.379 . S
C1470 H1454 0.931 . S
C1470 C1464 1.383 . S
C1470 C1469 1.379 . S
H1471 C1465 0.959 . S
H1472 C1465 0.961 . S
H1473 C1465 0.960 . S
H1474 C1466 0.930 . S
H1475 C1467 0.929 . S
H1476 C1484 0.929 . S
H1477 C1486 0.930 . S
H1478 C1488 0.930 . S
H1479 C1491 0.929 . S
H1480 C1494 0.930 . S
H1481 C1496 0.960 . S
H1482 C1496 0.960 . S
H1483 C1496 0.960 . S
C1484 H1476 0.929 . S
C1484 C1485 1.377 . S
C1484 C1486 1.384 . S
C1485 C1484 1.377 . S
C1485 C1491 1.390 . S
C1486 H1477 0.930 . S
C1486 C1484 1.384 . S
C1486 C1487 1.372 . S
C1487 C1486 1.372 . S
C1487 C1488 1.400 . S
C1487 C1492 1.490 . S
C1488 H1478 0.930 . S
C1488 C1487 1.400 . S
C1488 C1491 1.386 . S
H1489 C1505 0.930 . S
H1490 C1506 0.931 . S
C1491 H1479 0.929 . S
C1491 C1485 1.390 . S
C1491 C1488 1.386 . S
C1492 C1487 1.490 . S
C1492 C1494 1.395 . S
C1492 C1495 1.403 . S
H1493 C1499 0.930 . S
C1494 H1480 0.930 . S
C1494 C1492 1.395 . S
C1494 C1497 1.403 . S
C1495 C1492 1.403 . S
C1495 C1496 1.524 . S
C1495 C1499 1.400 . S
C1496 H1481 0.960 . S
C1496 H1482 0.960 . S
C1496 H1483 0.960 . S
C1496 C1495 1.524 . S
C1497 C1494 1.403 . S
C1497 C1498 1.392 . S
C1497 C1501 1.495 . S
C1498 C1497 1.392 . S
C1498 C1499 1.385 . S
C1498 C1500 1.478 . S
C1499 H1493 0.930 . S
C1499 C1495 1.400 . S
C1499 C1498 1.385 . S
C1500 C1498 1.478 . S
C1500 C1502 1.381 . S
C1500 C1506 1.383 . S
C1501 C1497 1.495 . S
C1501 H1507 0.959 . S
C1501 H1508 0.961 . S
C1501 H1509 0.960 . S
C1502 C1500 1.381 . S
C1502 C1503 1.394 . S
C1502 H1510 0.930 . S
C1503 C1502 1.394 . S
C1503 C1504 1.383 . S
C1503 H1511 0.929 . S
C1504 C1503 1.383 . S
C1504 C1505 1.377 . S
C1505 H1489 0.930 . S
C1505 C1504 1.377 . S
C1505 C1506 1.379 . S
C1506 H1490 0.931 . S
C1506 C1500 1.383 . S
C1506 C1505 1.379 . S
H1507 C1501 0.959 . S
H1508 C1501 0.961 . S
H1509 C1501 0.960 . S
H1510 C1502 0.930 . S
H1511 C1503 0.929 . S
H1512 C1520 0.929 . S
H1513 C1522 0.930 . S
H1514 C1524 0.930 . S
H1515 C1527 0.929 . S
H1516 C1530 0.930 . S
H1517 C1532 0.960 . S
H1518 C1532 0.960 . S
H1519 C1532 0.960 . S
C1520 H1512 0.929 . S
C1520 C1521 1.377 . S
C1520 C1522 1.384 . S
C1521 C1520 1.377 . S
C1521 C1527 1.390 . S
C1522 H1513 0.930 . S
C1522 C1520 1.384 . S
C1522 C1523 1.372 . S
C1523 C1522 1.372 . S
C1523 C1524 1.400 . S
C1523 C1528 1.490 . S
C1524 H1514 0.930 . S
C1524 C1523 1.400 . S
C1524 C1527 1.386 . S
H1525 C1541 0.930 . S
H1526 C1542 0.931 . S
C1527 H1515 0.929 . S
C1527 C1521 1.390 . S
C1527 C1524 1.386 . S
C1528 C1523 1.490 . S
C1528 C1530 1.395 . S
C1528 C1531 1.403 . S
H1529 C1535 0.930 . S
C1530 H1516 0.930 . S
C1530 C1528 1.395 . S
C1530 C1533 1.403 . S
C1531 C1528 1.403 . S
C1531 C1532 1.524 . S
C1531 C1535 1.400 . S
C1532 H1517 0.960 . S
C1532 H1518 0.960 . S
C1532 H1519 0.960 . S
C1532 C1531 1.524 . S
C1533 C1530 1.403 . S
C1533 C1534 1.392 . S
C1533 C1537 1.495 . S
C1534 C1533 1.392 . S
C1534 C1535 1.385 . S
C1534 C1536 1.478 . S
C1535 H1529 0.930 . S
C1535 C1531 1.400 . S
C1535 C1534 1.385 . S
C1536 C1534 1.478 . S
C1536 C1538 1.381 . S
C1536 C1542 1.383 . S
C1537 C1533 1.495 . S
C1537 H1543 0.959 . S
C1537 H1544 0.961 . S
C1537 H1545 0.960 . S
C1538 C1536 1.381 . S
C1538 C1539 1.394 . S
C1538 H1546 0.930 . S
C1539 C1538 1.394 . S
C1539 C1540 1.383 . S
C1539 H1547 0.929 . S
C1540 C1539 1.383 . S
C1540 C1541 1.377 . S
C1541 H1525 0.930 . S
C1541 C1540 1.377 . S
C1541 C1542 1.379 . S
C1542 H1526 0.931 . S
C1542 C1536 1.383 . S
C1542 C1541 1.379 . S
H1543 C1537 0.959 . S
H1544 C1537 0.961 . S
H1545 C1537 0.960 . S
H1546 C1538 0.930 . S
H1547 C1539 0.929 . S
H1548 C1556 0.929 . S
H1549 C1558 0.930 . S
H1550 C1560 0.930 . S
H1551 C1563 0.929 . S
H1552 C1566 0.930 . S
H1553 C1568 0.960 . S
H1554 C1568 0.960 . S
H1555 C1568 0.960 . S
C1556 H1548 0.929 . S
C1556 C1557 1.377 . S
C1556 C1558 1.384 . S
C1557 C1556 1.377 . S
C1557 C1563 1.390 . S
C1558 H1549 0.930 . S
C1558 C1556 1.384 . S
C1558 C1559 1.372 . S
C1559 C1558 1.372 . S
C1559 C1560 1.400 . S
C1559 C1564 1.490 . S
C1560 H1550 0.930 . S
C1560 C1559 1.400 . S
C1560 C1563 1.386 . S
H1561 C1577 0.930 . S
H1562 C1578 0.931 . S
C1563 H1551 0.929 . S
C1563 C1557 1.390 . S
C1563 C1560 1.386 . S
C1564 C1559 1.490 . S
C1564 C1566 1.395 . S
C1564 C1567 1.403 . S
H1565 C1571 0.930 . S
C1566 H1552 0.930 . S
C1566 C1564 1.395 . S
C1566 C1569 1.403 . S
C1567 C1564 1.403 . S
C1567 C1568 1.524 . S
C1567 C1571 1.400 . S
C1568 H1553 0.960 . S
C1568 H1554 0.960 . S
C1568 H1555 0.960 . S
C1568 C1567 1.524 . S
C1569 C1566 1.403 . S
C1569 C1570 1.392 . S
C1569 C1573 1.495 . S
C1570 C1569 1.392 . S
C1570 C1571 1.385 . S
C1570 C1572 1.478 . S
C1571 H1565 0.930 . S
C1571 C1567 1.400 . S
C1571 C1570 1.385 . S
C1572 C1570 1.478 . S
C1572 C1574 1.381 . S
C1572 C1578 1.383 . S
C1573 C1569 1.495 . S
C1573 H1579 0.959 . S
C1573 H1580 0.961 . S
C1573 H1581 0.960 . S
C1574 C1572 1.381 . S
C1574 C1575 1.394 . S
C1574 H1582 0.930 . S
C1575 C1574 1.394 . S
C1575 C1576 1.383 . S
C1575 H1583 0.929 . S
C1576 C1575 1.383 . S
C1576 C1577 1.377 . S
C1577 H1561 0.930 . S
C1577 C1576 1.377 . S
C1577 C1578 1.379 . S
C1578 H1562 0.931 . S
C1578 C1572 1.383 . S
C1578 C1577 1.379 . S
H1579 C1573 0.959 . S
H1580 C1573 0.961 . S
H1581 C1573 0.960 . S
H1582 C1574 0.930 . S
H1583 C1575 0.929 . S
H1584 C1592 0.929 1_554 S
H1585 C1594 0.930 . S
H1586 C1596 0.930 . S
H1587 C1599 0.929 . S
H1588 C1602 0.930 . S
H1589 C1604 0.960 . S
H1590 C1604 0.925 1_554 S
H1591 C1604 0.960 . S
C1592 H1584 0.929 1_556 S
C1592 C1593 1.377 . S
C1592 C1594 1.384 1_556 S
C1593 C1592 1.377 . S
C1593 C1599 1.390 . S
C1594 H1585 0.930 . S
C1594 C1592 1.384 1_554 S
C1594 C1595 1.372 1_554 S
C1595 C1594 1.372 1_556 S
C1595 C1596 1.400 . S
C1595 C1600 1.490 . S
C1596 H1586 0.930 . S
C1596 C1595 1.400 . S
C1596 C1599 1.386 . S
H1597 C1613 0.898 1_556 S
H1598 C1614 0.931 . S
C1599 H1587 0.929 . S
C1599 C1593 1.390 . S
C1599 C1596 1.386 . S
C1600 C1595 1.490 . S
C1600 C1602 1.399 . S
C1600 C1603 1.403 . S
H1601 C1607 0.930 . S
C1602 H1588 0.930 . S
C1602 C1600 1.399 . S
C1602 C1605 1.399 1_556 S
C1603 C1600 1.403 . S
C1603 C1604 1.524 . S
C1603 C1607 1.396 1_556 S
C1604 H1589 0.960 . S
C1604 H1590 0.925 1_556 S
C1604 H1591 0.960 . S
C1604 C1603 1.524 . S
C1605 C1602 1.399 1_554 S
C1605 C1606 1.392 . S
C1605 C1609 1.495 . S
C1606 C1605 1.392 . S
C1606 C1607 1.389 . S
C1606 C1608 1.478 . S
C1607 H1601 0.930 . S
C1607 C1603 1.396 1_554 S
C1607 C1606 1.389 . S
C1608 C1606 1.478 . S
C1608 C1610 1.381 . S
C1608 C1614 1.383 1_554 S
C1609 C1605 1.495 . S
C1609 H1615 0.959 . S
C1609 H1616 0.959 . S
C1609 H1617 0.960 . S
C1610 C1608 1.381 . S
C1610 C1611 1.394 . S
C1610 H1618 0.930 . S
C1611 C1610 1.394 . S
C1611 C1612 1.383 . S
C1611 H1619 0.929 . S
C1612 C1611 1.383 . S
C1612 C1613 1.420 . S
C1613 H1597 0.898 1_554 S
C1613 C1612 1.420 . S
C1613 C1614 1.369 1_554 S
C1614 H1598 0.931 . S
C1614 C1608 1.383 1_556 S
C1614 C1613 1.369 1_556 S
H1615 C1609 0.959 . S
H1616 C1609 0.959 . S
H1617 C1609 0.960 . S
H1618 C1610 0.930 . S
H1619 C1611 0.929 . S
H1620 C1628 0.929 . S
H1621 C1630 0.930 . S
H1622 C1632 0.930 . S
H1623 C1635 0.929 . S
H1624 C1638 0.930 . S
H1625 C1640 0.960 . S
H1626 C1640 0.960 . S
H1627 C1640 0.960 . S
C1628 H1620 0.929 . S
C1628 C1629 1.377 . S
C1628 C1630 1.384 . S
C1629 C1628 1.377 . S
C1629 C1635 1.390 . S
C1630 H1621 0.930 . S
C1630 C1628 1.384 . S
C1630 C1631 1.372 . S
C1631 C1630 1.372 . S
C1631 C1632 1.400 . S
C1631 C1636 1.490 . S
C1632 H1622 0.930 . S
C1632 C1631 1.400 . S
C1632 C1635 1.386 . S
H1633 C1649 0.930 . S
H1634 C1650 0.931 . S
C1635 H1623 0.929 . S
C1635 C1629 1.390 . S
C1635 C1632 1.386 . S
C1636 C1631 1.490 . S
C1636 C1638 1.395 . S
C1636 C1639 1.403 . S
H1637 C1643 0.930 . S
C1638 H1624 0.930 . S
C1638 C1636 1.395 . S
C1638 C1641 1.403 . S
C1639 C1636 1.403 . S
C1639 C1640 1.524 . S
C1639 C1643 1.400 . S
C1640 H1625 0.960 . S
C1640 H1626 0.960 . S
C1640 H1627 0.960 . S
C1640 C1639 1.524 . S
C1641 C1638 1.403 . S
C1641 C1642 1.392 . S
C1641 C1645 1.495 . S
C1642 C1641 1.392 . S
C1642 C1643 1.385 . S
C1642 C1644 1.478 . S
C1643 H1637 0.930 . S
C1643 C1639 1.400 . S
C1643 C1642 1.385 . S
C1644 C1642 1.478 . S
C1644 C1646 1.381 . S
C1644 C1650 1.383 . S
C1645 C1641 1.495 . S
C1645 H1651 0.959 . S
C1645 H1652 0.961 . S
C1645 H1653 0.960 . S
C1646 C1644 1.381 . S
C1646 C1647 1.394 . S
C1646 H1654 0.930 . S
C1647 C1646 1.394 . S
C1647 C1648 1.383 . S
C1647 H1655 0.929 . S
C1648 C1647 1.383 . S
C1648 C1649 1.377 . S
C1649 H1633 0.930 . S
C1649 C1648 1.377 . S
C1649 C1650 1.379 . S
C1650 H1634 0.931 . S
C1650 C1644 1.383 . S
C1650 C1649 1.379 . S
H1651 C1645 0.959 . S
H1652 C1645 0.961 . S
H1653 C1645 0.960 . S
H1654 C1646 0.930 . S
H1655 C1647 0.929 . S
H1656 C1664 0.929 . S
H1657 C1666 0.930 . S
H1658 C1668 0.930 . S
H1659 C1671 0.929 . S
H1660 C1674 0.930 . S
H1661 C1676 0.960 . S
H1662 C1676 0.960 . S
H1663 C1676 0.960 . S
C1664 H1656 0.929 . S
C1664 C1665 1.377 . S
C1664 C1666 1.384 . S
C1665 C1664 1.377 . S
C1665 C1671 1.390 . S
C1666 H1657 0.930 . S
C1666 C1664 1.384 . S
C1666 C1667 1.372 . S
C1667 C1666 1.372 . S
C1667 C1668 1.400 . S
C1667 C1672 1.490 . S
C1668 H1658 0.930 . S
C1668 C1667 1.400 . S
C1668 C1671 1.386 . S
H1669 C1685 0.930 . S
H1670 C1686 0.931 . S
C1671 H1659 0.929 . S
C1671 C1665 1.390 . S
C1671 C1668 1.386 . S
C1672 C1667 1.490 . S
C1672 C1674 1.395 . S
C1672 C1675 1.403 . S
H1673 C1679 0.930 . S
C1674 H1660 0.930 . S
C1674 C1672 1.395 . S
C1674 C1677 1.403 . S
C1675 C1672 1.403 . S
C1675 C1676 1.524 . S
C1675 C1679 1.400 . S
C1676 H1661 0.960 . S
C1676 H1662 0.960 . S
C1676 H1663 0.960 . S
C1676 C1675 1.524 . S
C1677 C1674 1.403 . S
C1677 C1678 1.392 . S
C1677 C1681 1.495 . S
C1678 C1677 1.392 . S
C1678 C1679 1.385 . S
C1678 C1680 1.478 . S
C1679 H1673 0.930 . S
C1679 C1675 1.400 . S
C1679 C1678 1.385 . S
C1680 C1678 1.478 . S
C1680 C1682 1.381 . S
C1680 C1686 1.383 . S
C1681 C1677 1.495 . S
C1681 H1687 0.959 . S
C1681 H1688 0.961 . S
C1681 H1689 0.960 . S
C1682 C1680 1.381 . S
C1682 C1683 1.394 . S
C1682 H1690 0.930 . S
C1683 C1682 1.394 . S
C1683 C1684 1.383 . S
C1683 H1691 0.929 . S
C1684 C1683 1.383 . S
C1684 C1685 1.377 . S
C1685 H1669 0.930 . S
C1685 C1684 1.377 . S
C1685 C1686 1.379 . S
C1686 H1670 0.931 . S
C1686 C1680 1.383 . S
C1686 C1685 1.379 . S
H1687 C1681 0.959 . S
H1688 C1681 0.961 . S
H1689 C1681 0.960 . S
H1690 C1682 0.930 . S
H1691 C1683 0.929 . S
H1692 C1700 0.929 . S
H1693 C1702 0.930 . S
H1694 C1704 0.930 . S
H1695 C1707 0.929 . S
H1696 C1710 0.930 . S
H1697 C1712 0.960 . S
H1698 C1712 0.960 . S
H1699 C1712 0.960 . S
C1700 H1692 0.929 . S
C1700 C1701 1.377 . S
C1700 C1702 1.384 . S
C1701 C1700 1.377 . S
C1701 C1707 1.390 . S
C1702 H1693 0.930 . S
C1702 C1700 1.384 . S
C1702 C1703 1.372 . S
C1703 C1702 1.372 . S
C1703 C1704 1.400 . S
C1703 C1708 1.490 . S
C1704 H1694 0.930 . S
C1704 C1703 1.400 . S
C1704 C1707 1.386 . S
H1705 C1721 0.930 . S
H1706 C1722 0.931 . S
C1707 H1695 0.929 . S
C1707 C1701 1.390 . S
C1707 C1704 1.386 . S
C1708 C1703 1.490 . S
C1708 C1710 1.395 . S
C1708 C1711 1.403 . S
H1709 C1715 0.930 . S
C1710 H1696 0.930 . S
C1710 C1708 1.395 . S
C1710 C1713 1.403 . S
C1711 C1708 1.403 . S
C1711 C1712 1.524 . S
C1711 C1715 1.400 . S
C1712 H1697 0.960 . S
C1712 H1698 0.960 . S
C1712 H1699 0.960 . S
C1712 C1711 1.524 . S
C1713 C1710 1.403 . S
C1713 C1714 1.392 . S
C1713 C1717 1.495 . S
C1714 C1713 1.392 . S
C1714 C1715 1.385 . S
C1714 C1716 1.478 . S
C1715 H1709 0.930 . S
C1715 C1711 1.400 . S
C1715 C1714 1.385 . S
C1716 C1714 1.478 . S
C1716 C1718 1.381 . S
C1716 C1722 1.383 . S
C1717 C1713 1.495 . S
C1717 H1723 0.959 . S
C1717 H1724 0.961 . S
C1717 H1725 0.960 . S
C1718 C1716 1.381 . S
C1718 C1719 1.394 . S
C1718 H1726 0.930 . S
C1719 C1718 1.394 . S
C1719 C1720 1.383 . S
C1719 H1727 0.929 . S
C1720 C1719 1.383 . S
C1720 C1721 1.377 . S
C1721 H1705 0.930 . S
C1721 C1720 1.377 . S
C1721 C1722 1.379 . S
C1722 H1706 0.931 . S
C1722 C1716 1.383 . S
C1722 C1721 1.379 . S
H1723 C1717 0.959 . S
H1724 C1717 0.961 . S
H1725 C1717 0.960 . S
H1726 C1718 0.930 . S
H1727 C1719 0.929 . S
H1728 C1736 0.929 . S
H1729 C1738 0.930 . S
H1730 C1740 0.930 . S
H1731 C1743 0.929 . S
H1732 C1746 0.930 . S
H1733 C1748 0.960 . S
H1734 C1748 0.960 . S
H1735 C1748 0.960 . S
C1736 H1728 0.929 . S
C1736 C1737 1.377 . S
C1736 C1738 1.384 . S
C1737 C1736 1.377 . S
C1737 C1743 1.390 . S
C1738 H1729 0.930 . S
C1738 C1736 1.384 . S
C1738 C1739 1.372 . S
C1739 C1738 1.372 . S
C1739 C1740 1.400 . S
C1739 C1744 1.490 . S
C1740 H1730 0.930 . S
C1740 C1739 1.400 . S
C1740 C1743 1.386 . S
H1741 C1757 0.930 . S
H1742 C1758 0.931 . S
C1743 H1731 0.929 . S
C1743 C1737 1.390 . S
C1743 C1740 1.386 . S
C1744 C1739 1.490 . S
C1744 C1746 1.395 . S
C1744 C1747 1.403 . S
H1745 C1751 0.930 . S
C1746 H1732 0.930 . S
C1746 C1744 1.395 . S
C1746 C1749 1.403 . S
C1747 C1744 1.403 . S
C1747 C1748 1.524 . S
C1747 C1751 1.400 . S
C1748 H1733 0.960 . S
C1748 H1734 0.960 . S
C1748 H1735 0.960 . S
C1748 C1747 1.524 . S
C1749 C1746 1.403 . S
C1749 C1750 1.392 . S
C1749 C1753 1.495 . S
C1750 C1749 1.392 . S
C1750 C1751 1.385 . S
C1750 C1752 1.478 . S
C1751 H1745 0.930 . S
C1751 C1747 1.400 . S
C1751 C1750 1.385 . S
C1752 C1750 1.478 . S
C1752 C1754 1.381 . S
C1752 C1758 1.383 . S
C1753 C1749 1.495 . S
C1753 H1759 0.959 . S
C1753 H1760 0.961 . S
C1753 H1761 0.960 . S
C1754 C1752 1.381 . S
C1754 C1755 1.394 . S
C1754 H1762 0.930 . S
C1755 C1754 1.394 . S
C1755 C1756 1.383 . S
C1755 H1763 0.929 . S
C1756 C1755 1.383 . S
C1756 C1757 1.377 . S
C1757 H1741 0.930 . S
C1757 C1756 1.377 . S
C1757 C1758 1.379 . S
C1758 H1742 0.931 . S
C1758 C1752 1.383 . S
C1758 C1757 1.379 . S
H1759 C1753 0.959 . S
H1760 C1753 0.961 . S
H1761 C1753 0.960 . S
H1762 C1754 0.930 . S
H1763 C1755 0.929 . S
H1764 C1772 0.929 . S
H1765 C1774 0.930 . S
H1766 C1776 0.930 . S
H1767 C1779 0.929 . S
H1768 C1782 0.930 . S
H1769 C1784 0.960 . S
H1770 C1784 0.960 . S
H1771 C1784 0.960 . S
C1772 H1764 0.929 . S
C1772 C1773 1.377 . S
C1772 C1774 1.384 . S
C1773 C1772 1.377 . S
C1773 C1779 1.390 . S
C1774 H1765 0.930 . S
C1774 C1772 1.384 . S
C1774 C1775 1.372 . S
C1775 C1774 1.372 . S
C1775 C1776 1.400 . S
C1775 C1780 1.490 . S
C1776 H1766 0.930 . S
C1776 C1775 1.400 . S
C1776 C1779 1.386 . S
H1777 C1793 0.930 . S
H1778 C1794 0.931 . S
C1779 H1767 0.929 . S
C1779 C1773 1.390 . S
C1779 C1776 1.386 . S
C1780 C1775 1.490 . S
C1780 C1782 1.395 . S
C1780 C1783 1.403 1_554 S
H1781 C1787 0.930 . S
C1782 H1768 0.930 . S
C1782 C1780 1.395 . S
C1782 C1785 1.403 . S
C1783 C1780 1.403 1_556 S
C1783 C1784 1.524 . S
C1783 C1787 1.400 . S
C1784 H1769 0.960 . S
C1784 H1770 0.960 . S
C1784 H1771 0.960 . S
C1784 C1783 1.524 . S
C1785 C1782 1.403 . S
C1785 C1786 1.392 . S
C1785 C1789 1.495 . S
C1786 C1785 1.392 . S
C1786 C1787 1.385 1_554 S
C1786 C1788 1.477 1_554 S
C1787 H1781 0.930 . S
C1787 C1783 1.400 . S
C1787 C1786 1.385 1_556 S
C1788 C1786 1.477 1_556 S
C1788 C1790 1.381 . S
C1788 C1794 1.383 . S
C1789 C1785 1.495 . S
C1789 H1795 0.959 . S
C1789 H1796 0.961 . S
C1789 H1797 0.960 . S
C1790 C1788 1.381 . S
C1790 C1791 1.401 . S
C1790 H1798 0.924 1_556 S
C1791 C1790 1.401 . S
C1791 C1792 1.383 . S
C1791 H1799 0.929 . S
C1792 C1791 1.383 . S
C1792 C1793 1.377 . S
C1793 H1777 0.930 . S
C1793 C1792 1.377 . S
C1793 C1794 1.379 . S
C1794 H1778 0.931 . S
C1794 C1788 1.383 . S
C1794 C1793 1.379 . S
H1795 C1789 0.959 . S
H1796 C1789 0.961 . S
H1797 C1789 0.960 . S
H1798 C1790 0.924 1_554 S
H1799 C1791 0.929 . S
H1800 C1808 0.929 . S
H1801 C1810 0.930 . S
H1802 C1812 0.930 . S
H1803 C1815 0.929 . S
H1804 C1818 0.930 . S
H1805 C1820 0.960 . S
H1806 C1820 0.960 . S
H1807 C1820 0.960 . S
C1808 H1800 0.929 . S
C1808 C1809 1.377 . S
C1808 C1810 1.384 . S
C1809 C1808 1.377 . S
C1809 C1815 1.390 . S
C1810 H1801 0.930 . S
C1810 C1808 1.384 . S
C1810 C1811 1.372 . S
C1811 C1810 1.372 . S
C1811 C1812 1.400 . S
C1811 C1816 1.490 . S
C1812 H1802 0.930 . S
C1812 C1811 1.400 . S
C1812 C1815 1.386 . S
H1813 C1829 0.930 . S
H1814 C1830 0.931 . S
C1815 H1803 0.929 . S
C1815 C1809 1.390 . S
C1815 C1812 1.386 . S
C1816 C1811 1.490 . S
C1816 C1818 1.395 . S
C1816 C1819 1.403 . S
H1817 C1823 0.930 . S
C1818 H1804 0.930 . S
C1818 C1816 1.395 . S
C1818 C1821 1.403 . S
C1819 C1816 1.403 . S
C1819 C1820 1.524 . S
C1819 C1823 1.400 . S
C1820 H1805 0.960 . S
C1820 H1806 0.960 . S
C1820 H1807 0.960 . S
C1820 C1819 1.524 . S
C1821 C1818 1.403 . S
C1821 C1822 1.392 . S
C1821 C1825 1.495 . S
C1822 C1821 1.392 . S
C1822 C1823 1.385 . S
C1822 C1824 1.478 . S
C1823 H1817 0.930 . S
C1823 C1819 1.400 . S
C1823 C1822 1.385 . S
C1824 C1822 1.478 . S
C1824 C1826 1.381 . S
C1824 C1830 1.383 . S
C1825 C1821 1.495 . S
C1825 H1831 0.959 . S
C1825 H1832 0.961 . S
C1825 H1833 0.960 . S
C1826 C1824 1.381 . S
C1826 C1827 1.394 . S
C1826 H1834 0.930 . S
C1827 C1826 1.394 . S
C1827 C1828 1.383 . S
C1827 H1835 0.929 . S
C1828 C1827 1.383 . S
C1828 C1829 1.377 . S
C1829 H1813 0.930 . S
C1829 C1828 1.377 . S
C1829 C1830 1.379 . S
C1830 H1814 0.931 . S
C1830 C1824 1.383 . S
C1830 C1829 1.379 . S
H1831 C1825 0.959 . S
H1832 C1825 0.961 . S
H1833 C1825 0.960 . S
H1834 C1826 0.930 . S
H1835 C1827 0.929 . S
H1836 C1844 0.929 . S
H1837 C1846 0.930 . S
H1838 C1848 0.930 . S
H1839 C1851 0.929 . S
H1840 C1854 0.930 . S
H1841 C1856 0.960 . S
H1842 C1856 0.960 . S
H1843 C1856 0.960 . S
C1844 H1836 0.929 . S
C1844 C1845 1.377 . S
C1844 C1846 1.384 . S
C1845 C1844 1.377 . S
C1845 C1851 1.390 . S
C1846 H1837 0.930 . S
C1846 C1844 1.384 . S
C1846 C1847 1.372 . S
C1847 C1846 1.372 . S
C1847 C1848 1.400 . S
C1847 C1852 1.490 . S
C1848 H1838 0.930 . S
C1848 C1847 1.400 . S
C1848 C1851 1.386 . S
H1849 C1865 0.930 . S
H1850 C1866 0.931 . S
C1851 H1839 0.929 . S
C1851 C1845 1.390 . S
C1851 C1848 1.386 . S
C1852 C1847 1.490 . S
C1852 C1854 1.395 . S
C1852 C1855 1.403 . S
H1853 C1859 0.930 . S
C1854 H1840 0.930 . S
C1854 C1852 1.395 . S
C1854 C1857 1.403 . S
C1855 C1852 1.403 . S
C1855 C1856 1.524 . S
C1855 C1859 1.400 . S
C1856 H1841 0.960 . S
C1856 H1842 0.960 . S
C1856 H1843 0.960 . S
C1856 C1855 1.524 . S
C1857 C1854 1.403 . S
C1857 C1858 1.392 . S
C1857 C1861 1.495 . S
C1858 C1857 1.392 . S
C1858 C1859 1.385 . S
C1858 C1860 1.478 . S
C1859 H1853 0.930 . S
C1859 C1855 1.400 . S
C1859 C1858 1.385 . S
C1860 C1858 1.478 . S
C1860 C1862 1.381 . S
C1860 C1866 1.383 . S
C1861 C1857 1.495 . S
C1861 H1867 0.959 . S
C1861 H1868 0.961 . S
C1861 H1869 0.960 . S
C1862 C1860 1.381 . S
C1862 C1863 1.394 . S
C1862 H1870 0.930 . S
C1863 C1862 1.394 . S
C1863 C1864 1.383 . S
C1863 H1871 0.929 . S
C1864 C1863 1.383 . S
C1864 C1865 1.377 . S
C1865 H1849 0.930 . S
C1865 C1864 1.377 . S
C1865 C1866 1.379 . S
C1866 H1850 0.931 . S
C1866 C1860 1.383 . S
C1866 C1865 1.379 . S
H1867 C1861 0.959 . S
H1868 C1861 0.961 . S
H1869 C1861 0.960 . S
H1870 C1862 0.930 . S
H1871 C1863 0.929 . S
H1872 C1880 0.929 . S
H1873 C1882 0.930 . S
H1874 C1884 0.930 . S
H1875 C1887 0.929 . S
H1876 C1890 0.930 . S
H1877 C1892 0.960 . S
H1878 C1892 0.960 . S
H1879 C1892 0.960 . S
C1880 H1872 0.929 . S
C1880 C1881 1.377 . S
C1880 C1882 1.384 . S
C1881 C1880 1.377 . S
C1881 C1887 1.390 . S
C1882 H1873 0.930 . S
C1882 C1880 1.384 . S
C1882 C1883 1.372 . S
C1883 C1882 1.372 . S
C1883 C1884 1.400 . S
C1883 C1888 1.490 . S
C1884 H1874 0.930 . S
C1884 C1883 1.400 . S
C1884 C1887 1.386 . S
H1885 C1901 0.930 . S
H1886 C1902 0.931 . S
C1887 H1875 0.929 . S
C1887 C1881 1.390 . S
C1887 C1884 1.386 . S
C1888 C1883 1.490 . S
C1888 C1890 1.395 . S
C1888 C1891 1.403 . S
H1889 C1895 0.930 . S
C1890 H1876 0.930 . S
C1890 C1888 1.395 . S
C1890 C1893 1.403 . S
C1891 C1888 1.403 . S
C1891 C1892 1.524 . S
C1891 C1895 1.400 . S
C1892 H1877 0.960 . S
C1892 H1878 0.960 . S
C1892 H1879 0.960 . S
C1892 C1891 1.524 . S
C1893 C1890 1.403 . S
C1893 C1894 1.392 . S
C1893 C1897 1.495 . S
C1894 C1893 1.392 . S
C1894 C1895 1.385 . S
C1894 C1896 1.478 . S
C1895 H1889 0.930 . S
C1895 C1891 1.400 . S
C1895 C1894 1.385 . S
C1896 C1894 1.478 . S
C1896 C1898 1.381 . S
C1896 C1902 1.383 . S
C1897 C1893 1.495 . S
C1897 H1903 0.959 . S
C1897 H1904 0.961 . S
C1897 H1905 0.960 . S
C1898 C1896 1.381 . S
C1898 C1899 1.394 . S
C1898 H1906 0.930 . S
C1899 C1898 1.394 . S
C1899 C1900 1.383 . S
C1899 H1907 0.929 . S
C1900 C1899 1.383 . S
C1900 C1901 1.377 . S
C1901 H1885 0.930 . S
C1901 C1900 1.377 . S
C1901 C1902 1.379 . S
C1902 H1886 0.931 . S
C1902 C1896 1.383 . S
C1902 C1901 1.379 . S
H1903 C1897 0.959 . S
H1904 C1897 0.961 . S
H1905 C1897 0.960 . S
H1906 C1898 0.930 . S
H1907 C1899 0.929 . S
H1908 C1916 0.929 . S
H1909 C1918 0.930 . S
H1910 C1920 0.930 . S
H1911 C1923 0.929 . S
H1912 C1926 0.930 . S
H1913 C1928 0.960 . S
H1914 C1928 0.960 . S
H1915 C1928 0.960 . S
C1916 H1908 0.929 . S
C1916 C1917 1.377 . S
C1916 C1918 1.384 . S
C1917 C1916 1.377 . S
C1917 C1923 1.390 . S
C1918 H1909 0.930 . S
C1918 C1916 1.384 . S
C1918 C1919 1.372 . S
C1919 C1918 1.372 . S
C1919 C1920 1.400 . S
C1919 C1924 1.490 . S
C1920 H1910 0.930 . S
C1920 C1919 1.400 . S
C1920 C1923 1.386 . S
H1921 C1937 0.930 . S
H1922 C1938 0.931 . S
C1923 H1911 0.929 . S
C1923 C1917 1.390 . S
C1923 C1920 1.386 . S
C1924 C1919 1.490 . S
C1924 C1926 1.395 . S
C1924 C1927 1.403 . S
H1925 C1931 0.930 . S
C1926 H1912 0.930 . S
C1926 C1924 1.395 . S
C1926 C1929 1.403 . S
C1927 C1924 1.403 . S
C1927 C1928 1.524 . S
C1927 C1931 1.400 . S
C1928 H1913 0.960 . S
C1928 H1914 0.960 . S
C1928 H1915 0.960 . S
C1928 C1927 1.524 . S
C1929 C1926 1.403 . S
C1929 C1930 1.392 . S
C1929 C1933 1.495 . S
C1930 C1929 1.392 . S
C1930 C1931 1.385 . S
C1930 C1932 1.478 . S
C1931 H1925 0.930 . S
C1931 C1927 1.400 . S
C1931 C1930 1.385 . S
C1932 C1930 1.478 . S
C1932 C1934 1.381 . S
C1932 C1938 1.383 . S
C1933 C1929 1.495 . S
C1933 H1939 0.959 . S
C1933 H1940 0.961 . S
C1933 H1941 0.960 . S
C1934 C1932 1.381 . S
C1934 C1935 1.394 . S
C1934 H1942 0.930 . S
C1935 C1934 1.394 . S
C1935 C1936 1.383 . S
C1935 H1943 0.929 . S
C1936 C1935 1.383 . S
C1936 C1937 1.377 . S
C1937 H1921 0.930 . S
C1937 C1936 1.377 . S
C1937 C1938 1.379 . S
C1938 H1922 0.931 . S
C1938 C1932 1.383 . S
C1938 C1937 1.379 . S
H1939 C1933 0.959 . S
H1940 C1933 0.961 . S
H1941 C1933 0.960 . S
H1942 C1934 0.930 . S
H1943 C1935 0.929 . S
H1944 C1952 0.929 . S
H1945 C1954 0.930 . S
H1946 C1956 0.930 . S
H1947 C1959 0.929 . S
H1948 C1962 0.930 . S
H1949 C1964 0.960 . S
H1950 C1964 0.960 . S
H1951 C1964 0.960 . S
C1952 H1944 0.929 . S
C1952 C1953 1.377 . S
C1952 C1954 1.384 . S
C1953 C1952 1.377 . S
C1953 C1959 1.390 . S
C1954 H1945 0.930 . S
C1954 C1952 1.384 . S
C1954 C1955 1.372 . S
C1955 C1954 1.372 . S
C1955 C1956 1.400 . S
C1955 C1960 1.490 . S
C1956 H1946 0.930 . S
C1956 C1955 1.400 . S
C1956 C1959 1.386 . S
H1957 C1973 0.930 . S
H1958 C1974 0.931 . S
C1959 H1947 0.929 . S
C1959 C1953 1.390 . S
C1959 C1956 1.386 . S
C1960 C1955 1.490 . S
C1960 C1962 1.395 . S
C1960 C1963 1.403 . S
H1961 C1967 0.930 . S
C1962 H1948 0.930 . S
C1962 C1960 1.395 . S
C1962 C1965 1.403 . S
C1963 C1960 1.403 . S
C1963 C1964 1.524 . S
C1963 C1967 1.400 . S
C1964 H1949 0.960 . S
C1964 H1950 0.960 . S
C1964 H1951 0.960 . S
C1964 C1963 1.524 . S
C1965 C1962 1.403 . S
C1965 C1966 1.392 . S
C1965 C1969 1.495 . S
C1966 C1965 1.392 . S
C1966 C1967 1.385 . S
C1966 C1968 1.478 . S
C1967 H1961 0.930 . S
C1967 C1963 1.400 . S
C1967 C1966 1.385 . S
C1968 C1966 1.478 . S
C1968 C1970 1.381 . S
C1968 C1974 1.383 . S
C1969 C1965 1.495 . S
C1969 H1975 0.959 . S
C1969 H1976 0.961 . S
C1969 H1977 0.960 . S
C1970 C1968 1.381 . S
C1970 C1971 1.394 . S
C1970 H1978 0.930 . S
C1971 C1970 1.394 . S
C1971 C1972 1.383 . S
C1971 H1979 0.929 . S
C1972 C1971 1.383 . S
C1972 C1973 1.377 . S
C1973 H1957 0.930 . S
C1973 C1972 1.377 . S
C1973 C1974 1.379 . S
C1974 H1958 0.931 . S
C1974 C1968 1.383 . S
C1974 C1973 1.379 . S
H1975 C1969 0.959 . S
H1976 C1969 0.961 . S
H1977 C1969 0.960 . S
H1978 C1970 0.930 . S
H1979 C1971 0.929 . S
H1980 C1988 0.929 . S
H1981 C1990 0.930 . S
H1982 C1992 0.930 . S
H1983 C1995 0.929 . S
H1984 C1998 0.930 . S
H1985 C2000 0.960 . S
H1986 C2000 0.960 . S
H1987 C2000 0.960 . S
C1988 H1980 0.929 . S
C1988 C1989 1.377 . S
C1988 C1990 1.384 . S
C1989 C1988 1.377 . S
C1989 C1995 1.390 . S
C1990 H1981 0.930 . S
C1990 C1988 1.384 . S
C1990 C1991 1.372 . S
C1991 C1990 1.372 . S
C1991 C1992 1.400 . S
C1991 C1996 1.490 . S
C1992 H1982 0.930 . S
C1992 C1991 1.400 . S
C1992 C1995 1.386 . S
H1993 C2009 0.930 . S
H1994 C2010 0.931 . S
C1995 H1983 0.929 . S
C1995 C1989 1.390 . S
C1995 C1992 1.386 . S
C1996 C1991 1.490 . S
C1996 C1998 1.395 . S
C1996 C1999 1.403 . S
H1997 C2003 0.930 . S
C1998 H1984 0.930 . S
C1998 C1996 1.395 . S
C1998 C2001 1.403 . S
C1999 C1996 1.403 . S
C1999 C2000 1.524 . S
C1999 C2003 1.400 . S
C2000 H1985 0.960 . S
C2000 H1986 0.960 . S
C2000 H1987 0.960 . S
C2000 C1999 1.524 . S
C2001 C1998 1.403 . S
C2001 C2002 1.392 . S
C2001 C2005 1.495 . S
C2002 C2001 1.392 . S
C2002 C2003 1.385 . S
C2002 C2004 1.478 . S
C2003 H1997 0.930 . S
C2003 C1999 1.400 . S
C2003 C2002 1.385 . S
C2004 C2002 1.478 . S
C2004 C2006 1.381 . S
C2004 C2010 1.383 . S
C2005 C2001 1.495 . S
C2005 H2011 0.959 . S
C2005 H2012 0.961 . S
C2005 H2013 0.960 . S
C2006 C2004 1.381 . S
C2006 C2007 1.394 . S
C2006 H2014 0.930 . S
C2007 C2006 1.394 . S
C2007 C2008 1.383 . S
C2007 H2015 0.929 . S
C2008 C2007 1.383 . S
C2008 C2009 1.377 . S
C2009 H1993 0.930 . S
C2009 C2008 1.377 . S
C2009 C2010 1.379 . S
C2010 H1994 0.931 . S
C2010 C2004 1.383 . S
C2010 C2009 1.379 . S
H2011 C2005 0.959 . S
H2012 C2005 0.961 . S
H2013 C2005 0.960 . S
H2014 C2006 0.930 . S
H2015 C2007 0.929 . S
H2016 C2024 0.929 . S
H2017 C2026 0.930 . S
H2018 C2028 0.930 . S
H2019 C2031 0.929 . S
H2020 C2034 0.930 . S
H2021 C2036 0.960 . S
H2022 C2036 0.960 . S
H2023 C2036 0.960 . S
C2024 H2016 0.929 . S
C2024 C2025 1.377 . S
C2024 C2026 1.384 . S
C2025 C2024 1.377 . S
C2025 C2031 1.390 . S
C2026 H2017 0.930 . S
C2026 C2024 1.384 . S
C2026 C2027 1.372 . S
C2027 C2026 1.372 . S
C2027 C2028 1.400 . S
C2027 C2032 1.490 . S
C2028 H2018 0.930 . S
C2028 C2027 1.400 . S
C2028 C2031 1.386 . S
H2029 C2045 0.930 . S
H2030 C2046 0.931 . S
C2031 H2019 0.929 . S
C2031 C2025 1.390 . S
C2031 C2028 1.386 . S
C2032 C2027 1.490 . S
C2032 C2034 1.395 . S
C2032 C2035 1.403 . S
H2033 C2039 0.930 . S
C2034 H2020 0.930 . S
C2034 C2032 1.395 . S
C2034 C2037 1.403 . S
C2035 C2032 1.403 . S
C2035 C2036 1.524 . S
C2035 C2039 1.400 . S
C2036 H2021 0.960 . S
C2036 H2022 0.960 . S
C2036 H2023 0.960 . S
C2036 C2035 1.524 . S
C2037 C2034 1.403 . S
C2037 C2038 1.392 . S
C2037 C2041 1.495 . S
C2038 C2037 1.392 . S
C2038 C2039 1.385 . S
C2038 C2040 1.478 . S
C2039 H2033 0.930 . S
C2039 C2035 1.400 . S
C2039 C2038 1.385 . S
C2040 C2038 1.478 . S
C2040 C2042 1.381 . S
C2040 C2046 1.383 . S
C2041 C2037 1.495 . S
C2041 H2047 0.959 . S
C2041 H2048 0.961 . S
C2041 H2049 0.960 . S
C2042 C2040 1.381 . S
C2042 C2043 1.394 . S
C2042 H2050 0.930 . S
C2043 C2042 1.394 . S
C2043 C2044 1.383 . S
C2043 H2051 0.929 . S
C2044 C2043 1.383 . S
C2044 C2045 1.377 . S
C2045 H2029 0.930 . S
C2045 C2044 1.377 . S
C2045 C2046 1.379 . S
C2046 H2030 0.931 . S
C2046 C2040 1.383 . S
C2046 C2045 1.379 . S
H2047 C2041 0.959 . S
H2048 C2041 0.961 . S
H2049 C2041 0.960 . S
H2050 C2042 0.930 . S
H2051 C2043 0.929 . S
H2052 C2060 0.929 . S
H2053 C2062 0.930 . S
H2054 C2064 0.930 . S
H2055 C2067 0.929 . S
H2056 C2070 0.930 . S
H2057 C2072 0.960 . S
H2058 C2072 0.960 . S
H2059 C2072 0.960 . S
C2060 H2052 0.929 . S
C2060 C2061 1.377 . S
C2060 C2062 1.384 . S
C2061 C2060 1.377 . S
C2061 C2067 1.390 . S
C2062 H2053 0.930 . S
C2062 C2060 1.384 . S
C2062 C2063 1.372 . S
C2063 C2062 1.372 . S
C2063 C2064 1.400 . S
C2063 C2068 1.490 . S
C2064 H2054 0.930 . S
C2064 C2063 1.400 . S
C2064 C2067 1.386 . S
H2065 C2081 0.930 . S
H2066 C2082 0.931 . S
C2067 H2055 0.929 . S
C2067 C2061 1.390 . S
C2067 C2064 1.386 . S
C2068 C2063 1.490 . S
C2068 C2070 1.395 . S
C2068 C2071 1.403 . S
H2069 C2075 0.930 . S
C2070 H2056 0.930 . S
C2070 C2068 1.395 . S
C2070 C2073 1.403 . S
C2071 C2068 1.403 . S
C2071 C2072 1.524 . S
C2071 C2075 1.400 . S
C2072 H2057 0.960 . S
C2072 H2058 0.960 . S
C2072 H2059 0.960 . S
C2072 C2071 1.524 . S
C2073 C2070 1.403 . S
C2073 C2074 1.392 . S
C2073 C2077 1.495 . S
C2074 C2073 1.392 . S
C2074 C2075 1.385 . S
C2074 C2076 1.478 . S
C2075 H2069 0.930 . S
C2075 C2071 1.400 . S
C2075 C2074 1.385 . S
C2076 C2074 1.478 . S
C2076 C2078 1.381 . S
C2076 C2082 1.383 . S
C2077 C2073 1.495 . S
C2077 H2083 0.959 . S
C2077 H2084 0.961 . S
C2077 H2085 0.960 . S
C2078 C2076 1.381 . S
C2078 C2079 1.394 . S
C2078 H2086 0.930 . S
C2079 C2078 1.394 . S
C2079 C2080 1.383 . S
C2079 H2087 0.929 . S
C2080 C2079 1.383 . S
C2080 C2081 1.377 . S
C2081 H2065 0.930 . S
C2081 C2080 1.377 . S
C2081 C2082 1.379 . S
C2082 H2066 0.931 . S
C2082 C2076 1.383 . S
C2082 C2081 1.379 . S
H2083 C2077 0.959 . S
H2084 C2077 0.961 . S
H2085 C2077 0.960 . S
H2086 C2078 0.930 . S
H2087 C2079 0.929 . S
H2088 C2096 0.929 . S
H2089 C2098 0.930 . S
H2090 C2100 0.930 . S
H2091 C2103 0.929 . S
H2092 C2106 0.930 . S
H2093 C2108 0.960 . S
H2094 C2108 0.960 . S
H2095 C2108 0.960 . S
C2096 H2088 0.929 . S
C2096 C2097 1.377 . S
C2096 C2098 1.384 . S
C2097 C2096 1.377 . S
C2097 C2103 1.390 . S
C2098 H2089 0.930 . S
C2098 C2096 1.384 . S
C2098 C2099 1.372 . S
C2099 C2098 1.372 . S
C2099 C2100 1.400 . S
C2099 C2104 1.490 . S
C2100 H2090 0.930 . S
C2100 C2099 1.400 . S
C2100 C2103 1.386 . S
H2101 C2117 0.930 . S
H2102 C2118 0.931 . S
C2103 H2091 0.929 . S
C2103 C2097 1.390 . S
C2103 C2100 1.386 . S
C2104 C2099 1.490 . S
C2104 C2106 1.395 . S
C2104 C2107 1.403 . S
H2105 C2111 0.930 . S
C2106 H2092 0.930 . S
C2106 C2104 1.395 . S
C2106 C2109 1.403 . S
C2107 C2104 1.403 . S
C2107 C2108 1.524 . S
C2107 C2111 1.400 . S
C2108 H2093 0.960 . S
C2108 H2094 0.960 . S
C2108 H2095 0.960 . S
C2108 C2107 1.524 . S
C2109 C2106 1.403 . S
C2109 C2110 1.392 . S
C2109 C2113 1.495 . S
C2110 C2109 1.392 . S
C2110 C2111 1.385 . S
C2110 C2112 1.478 . S
C2111 H2105 0.930 . S
C2111 C2107 1.400 . S
C2111 C2110 1.385 . S
C2112 C2110 1.478 . S
C2112 C2114 1.381 . S
C2112 C2118 1.383 . S
C2113 C2109 1.495 . S
C2113 H2119 0.959 . S
C2113 H2120 0.961 . S
C2113 H2121 0.960 . S
C2114 C2112 1.381 . S
C2114 C2115 1.394 . S
C2114 H2122 0.930 . S
C2115 C2114 1.394 . S
C2115 C2116 1.383 . S
C2115 H2123 0.929 . S
C2116 C2115 1.383 . S
C2116 C2117 1.377 . S
C2117 H2101 0.930 . S
C2117 C2116 1.377 . S
C2117 C2118 1.379 . S
C2118 H2102 0.931 . S
C2118 C2112 1.383 . S
C2118 C2117 1.379 . S
H2119 C2113 0.959 . S
H2120 C2113 0.961 . S
H2121 C2113 0.960 . S
H2122 C2114 0.930 . S
H2123 C2115 0.929 . S
H2124 C2132 0.929 . S
H2125 C2134 0.930 . S
H2126 C2136 0.930 . S
H2127 C2139 0.929 . S
H2128 C2142 0.930 . S
H2129 C2144 0.960 . S
H2130 C2144 0.960 . S
H2131 C2144 0.960 . S
C2132 H2124 0.929 . S
C2132 C2133 1.377 . S
C2132 C2134 1.384 . S
C2133 C2132 1.377 . S
C2133 C2139 1.390 . S
C2134 H2125 0.930 . S
C2134 C2132 1.384 . S
C2134 C2135 1.372 . S
C2135 C2134 1.372 . S
C2135 C2136 1.400 . S
C2135 C2140 1.490 . S
C2136 H2126 0.930 . S
C2136 C2135 1.400 . S
C2136 C2139 1.386 . S
H2137 C2153 0.930 . S
H2138 C2154 0.931 . S
C2139 H2127 0.929 . S
C2139 C2133 1.390 . S
C2139 C2136 1.386 . S
C2140 C2135 1.490 . S
C2140 C2142 1.395 . S
C2140 C2143 1.403 . S
H2141 C2147 0.930 . S
C2142 H2128 0.930 . S
C2142 C2140 1.395 . S
C2142 C2145 1.403 . S
C2143 C2140 1.403 . S
C2143 C2144 1.524 . S
C2143 C2147 1.400 . S
C2144 H2129 0.960 . S
C2144 H2130 0.960 . S
C2144 H2131 0.960 . S
C2144 C2143 1.524 . S
C2145 C2142 1.403 . S
C2145 C2146 1.392 . S
C2145 C2149 1.495 . S
C2146 C2145 1.392 . S
C2146 C2147 1.385 . S
C2146 C2148 1.478 . S
C2147 H2141 0.930 . S
C2147 C2143 1.400 . S
C2147 C2146 1.385 . S
C2148 C2146 1.478 . S
C2148 C2150 1.381 . S
C2148 C2154 1.383 . S
C2149 C2145 1.495 . S
C2149 H2155 0.959 . S
C2149 H2156 0.961 . S
C2149 H2157 0.960 . S
C2150 C2148 1.381 . S
C2150 C2151 1.394 . S
C2150 H2158 0.930 . S
C2151 C2150 1.394 . S
C2151 C2152 1.383 . S
C2151 H2159 0.929 . S
C2152 C2151 1.383 . S
C2152 C2153 1.377 . S
C2153 H2137 0.930 . S
C2153 C2152 1.377 . S
C2153 C2154 1.379 . S
C2154 H2138 0.931 . S
C2154 C2148 1.383 . S
C2154 C2153 1.379 . S
H2155 C2149 0.959 . S
H2156 C2149 0.961 . S
H2157 C2149 0.960 . S
H2158 C2150 0.930 . S
H2159 C2151 0.929 . S
H2160 C2168 0.929 . S
H2161 C2170 0.930 . S
H2162 C2172 0.930 . S
H2163 C2175 0.929 . S
H2164 C2178 0.930 . S
H2165 C2180 0.960 . S
H2166 C2180 0.960 . S
H2167 C2180 0.960 . S
C2168 H2160 0.929 . S
C2168 C2169 1.377 . S
C2168 C2170 1.384 . S
C2169 C2168 1.377 . S
C2169 C2175 1.390 . S
C2170 H2161 0.930 . S
C2170 C2168 1.384 . S
C2170 C2171 1.372 . S
C2171 C2170 1.372 . S
C2171 C2172 1.400 . S
C2171 C2176 1.490 . S
C2172 H2162 0.930 . S
C2172 C2171 1.400 . S
C2172 C2175 1.386 . S
H2173 C2189 0.930 . S
H2174 C2190 0.931 . S
C2175 H2163 0.929 . S
C2175 C2169 1.390 . S
C2175 C2172 1.386 . S
C2176 C2171 1.490 . S
C2176 C2178 1.395 . S
C2176 C2179 1.403 . S
H2177 C2183 0.930 . S
C2178 H2164 0.930 . S
C2178 C2176 1.395 . S
C2178 C2181 1.403 . S
C2179 C2176 1.403 . S
C2179 C2180 1.524 . S
C2179 C2183 1.400 . S
C2180 H2165 0.960 . S
C2180 H2166 0.960 . S
C2180 H2167 0.960 . S
C2180 C2179 1.524 . S
C2181 C2178 1.403 . S
C2181 C2182 1.392 . S
C2181 C2185 1.495 . S
C2182 C2181 1.392 . S
C2182 C2183 1.385 . S
C2182 C2184 1.478 . S
C2183 H2177 0.930 . S
C2183 C2179 1.400 . S
C2183 C2182 1.385 . S
C2184 C2182 1.478 . S
C2184 C2186 1.381 . S
C2184 C2190 1.383 . S
C2185 C2181 1.495 . S
C2185 H2191 0.959 . S
C2185 H2192 0.961 . S
C2185 H2193 0.960 . S
C2186 C2184 1.381 . S
C2186 C2187 1.394 . S
C2186 H2194 0.930 . S
C2187 C2186 1.394 . S
C2187 C2188 1.383 . S
C2187 H2195 0.929 . S
C2188 C2187 1.383 . S
C2188 C2189 1.377 . S
C2189 H2173 0.930 . S
C2189 C2188 1.377 . S
C2189 C2190 1.379 . S
C2190 H2174 0.931 . S
C2190 C2184 1.383 . S
C2190 C2189 1.379 . S
H2191 C2185 0.959 . S
H2192 C2185 0.961 . S
H2193 C2185 0.960 . S
H2194 C2186 0.930 . S
H2195 C2187 0.929 . S
H2196 C2204 0.929 . S
H2197 C2206 0.930 . S
H2198 C2208 0.930 . S
H2199 C2211 0.929 . S
H2200 C2214 0.930 . S
H2201 C2216 0.960 . S
H2202 C2216 0.960 . S
H2203 C2216 0.960 . S
C2204 H2196 0.929 . S
C2204 C2205 1.377 . S
C2204 C2206 1.384 . S
C2205 C2204 1.377 . S
C2205 C2211 1.390 . S
C2206 H2197 0.930 . S
C2206 C2204 1.384 . S
C2206 C2207 1.372 . S
C2207 C2206 1.372 . S
C2207 C2208 1.400 . S
C2207 C2212 1.490 . S
C2208 H2198 0.930 . S
C2208 C2207 1.400 . S
C2208 C2211 1.386 . S
H2209 C2225 0.930 . S
H2210 C2226 0.931 . S
C2211 H2199 0.929 . S
C2211 C2205 1.390 . S
C2211 C2208 1.386 . S
C2212 C2207 1.490 . S
C2212 C2214 1.395 . S
C2212 C2215 1.403 . S
H2213 C2219 0.930 . S
C2214 H2200 0.930 . S
C2214 C2212 1.395 . S
C2214 C2217 1.403 . S
C2215 C2212 1.403 . S
C2215 C2216 1.524 . S
C2215 C2219 1.400 . S
C2216 H2201 0.960 . S
C2216 H2202 0.960 . S
C2216 H2203 0.960 . S
C2216 C2215 1.524 . S
C2217 C2214 1.403 . S
C2217 C2218 1.392 . S
C2217 C2221 1.495 . S
C2218 C2217 1.392 . S
C2218 C2219 1.385 . S
C2218 C2220 1.478 . S
C2219 H2213 0.930 . S
C2219 C2215 1.400 . S
C2219 C2218 1.385 . S
C2220 C2218 1.478 . S
C2220 C2222 1.381 . S
C2220 C2226 1.383 . S
C2221 C2217 1.495 . S
C2221 H2227 0.959 . S
C2221 H2228 0.961 . S
C2221 H2229 0.960 . S
C2222 C2220 1.381 . S
C2222 C2223 1.394 . S
C2222 H2230 0.930 . S
C2223 C2222 1.394 . S
C2223 C2224 1.383 . S
C2223 H2231 0.929 . S
C2224 C2223 1.383 . S
C2224 C2225 1.377 . S
C2225 H2209 0.930 . S
C2225 C2224 1.377 . S
C2225 C2226 1.379 . S
C2226 H2210 0.931 . S
C2226 C2220 1.383 . S
C2226 C2225 1.379 . S
H2227 C2221 0.959 . S
H2228 C2221 0.961 . S
H2229 C2221 0.960 . S
H2230 C2222 0.930 . S
H2231 C2223 0.929 . S
H2232 C2240 0.929 . S
H2233 C2242 0.930 . S
H2234 C2244 0.930 . S
H2235 C2247 0.929 . S
H2236 C2250 0.930 . S
H2237 C2252 0.960 . S
H2238 C2252 0.960 . S
H2239 C2252 0.960 . S
C2240 H2232 0.929 . S
C2240 C2241 1.377 . S
C2240 C2242 1.384 . S
C2241 C2240 1.377 . S
C2241 C2247 1.390 . S
C2242 H2233 0.930 . S
C2242 C2240 1.384 . S
C2242 C2243 1.372 . S
C2243 C2242 1.372 . S
C2243 C2244 1.400 . S
C2243 C2248 1.490 . S
C2244 H2234 0.930 . S
C2244 C2243 1.400 . S
C2244 C2247 1.386 . S
H2245 C2261 0.930 . S
H2246 C2262 0.931 . S
C2247 H2235 0.929 . S
C2247 C2241 1.390 . S
C2247 C2244 1.386 . S
C2248 C2243 1.490 . S
C2248 C2250 1.395 . S
C2248 C2251 1.403 . S
H2249 C2255 0.930 . S
C2250 H2236 0.930 . S
C2250 C2248 1.395 . S
C2250 C2253 1.403 . S
C2251 C2248 1.403 . S
C2251 C2252 1.524 . S
C2251 C2255 1.400 . S
C2252 H2237 0.960 . S
C2252 H2238 0.960 . S
C2252 H2239 0.960 . S
C2252 C2251 1.524 . S
C2253 C2250 1.403 . S
C2253 C2254 1.392 . S
C2253 C2257 1.495 . S
C2254 C2253 1.392 . S
C2254 C2255 1.385 . S
C2254 C2256 1.478 . S
C2255 H2249 0.930 . S
C2255 C2251 1.400 . S
C2255 C2254 1.385 . S
C2256 C2254 1.478 . S
C2256 C2258 1.381 . S
C2256 C2262 1.383 . S
C2257 C2253 1.495 . S
C2257 H2263 0.959 . S
C2257 H2264 0.961 . S
C2257 H2265 0.960 . S
C2258 C2256 1.381 . S
C2258 C2259 1.394 . S
C2258 H2266 0.930 . S
C2259 C2258 1.394 . S
C2259 C2260 1.383 . S
C2259 H2267 0.929 . S
C2260 C2259 1.383 . S
C2260 C2261 1.377 . S
C2261 H2245 0.930 . S
C2261 C2260 1.377 . S
C2261 C2262 1.379 . S
C2262 H2246 0.931 . S
C2262 C2256 1.383 . S
C2262 C2261 1.379 . S
H2263 C2257 0.959 . S
H2264 C2257 0.961 . S
H2265 C2257 0.960 . S
H2266 C2258 0.930 . S
H2267 C2259 0.929 . S
H2268 C2276 0.929 . S
H2269 C2278 0.930 . S
H2270 C2280 0.930 . S
H2271 C2283 0.929 . S
H2272 C2286 0.930 . S
H2273 C2288 0.960 . S
H2274 C2288 0.960 . S
H2275 C2288 0.960 . S
C2276 H2268 0.929 . S
C2276 C2277 1.377 . S
C2276 C2278 1.384 . S
C2277 C2276 1.377 . S
C2277 C2283 1.390 . S
C2278 H2269 0.930 . S
C2278 C2276 1.384 . S
C2278 C2279 1.372 . S
C2279 C2278 1.372 . S
C2279 C2280 1.400 . S
C2279 C2284 1.490 . S
C2280 H2270 0.930 . S
C2280 C2279 1.400 . S
C2280 C2283 1.386 . S
H2281 C2297 0.930 . S
H2282 C2298 0.931 . S
C2283 H2271 0.929 . S
C2283 C2277 1.390 . S
C2283 C2280 1.386 . S
C2284 C2279 1.490 . S
C2284 C2286 1.395 . S
C2284 C2287 1.403 . S
H2285 C2291 0.930 . S
C2286 H2272 0.930 . S
C2286 C2284 1.395 . S
C2286 C2289 1.403 . S
C2287 C2284 1.403 . S
C2287 C2288 1.524 . S
C2287 C2291 1.400 . S
C2288 H2273 0.960 . S
C2288 H2274 0.960 . S
C2288 H2275 0.960 . S
C2288 C2287 1.524 . S
C2289 C2286 1.403 . S
C2289 C2290 1.392 . S
C2289 C2293 1.495 . S
C2290 C2289 1.392 . S
C2290 C2291 1.385 . S
C2290 C2292 1.478 . S
C2291 H2285 0.930 . S
C2291 C2287 1.400 . S
C2291 C2290 1.385 . S
C2292 C2290 1.478 . S
C2292 C2294 1.381 . S
C2292 C2298 1.383 . S
C2293 C2289 1.495 . S
C2293 H2299 0.959 . S
C2293 H2300 0.961 . S
C2293 H2301 0.960 . S
C2294 C2292 1.381 . S
C2294 C2295 1.394 . S
C2294 H2302 0.930 . S
C2295 C2294 1.394 . S
C2295 C2296 1.383 . S
C2295 H2303 0.929 . S
C2296 C2295 1.383 . S
C2296 C2297 1.377 . S
C2297 H2281 0.930 . S
C2297 C2296 1.377 . S
C2297 C2298 1.379 . S
C2298 H2282 0.931 . S
C2298 C2292 1.383 . S
C2298 C2297 1.379 . S
H2299 C2293 0.959 . S
H2300 C2293 0.961 . S
H2301 C2293 0.960 . S
H2302 C2294 0.930 . S
H2303 C2295 0.929 . S
C1017 C476 1.535 . S
C1036 C58 1.284 . S
C1053 C142 1.226 . S
C1072 C56 1.568 . S
C1089 C226 1.294 . S
C1108 C140 1.618 . S
C1125 C224 1.530 . S
C1144 C310 1.202 . S
C1161 C308 1.562 . S
C1180 C394 1.270 . S
C1197 C478 1.293 . S
C1216 C392 1.607 . S
C1233 C644 1.534 . S
C1252 C562 1.286 . S
C1269 C646 1.280 . S
C1288 C728 1.583 . S
C1305 C812 1.562 . S
C1324 C730 1.268 . S
C1341 C896 1.532 . S
C1360 C814 1.241 . S
C1377 C980 1.603 . S
C1396 C898 1.339 . S
C1413 C560 1.562 . S
C1432 C982 1.277 . S
C1449 C998 3.295 . S
C1468 C67 3.263 . S
C1485 C151 2.947 . S
C1504 C578 2.984 . S
C1521 C662 3.151 . S
C1540 C235 3.096 . S
C1557 C746 3.298 . S
C1576 C319 3.258 . S
C1593 C830 2.986 . S
C1612 C403 2.944 . S
C1629 C487 3.107 . S
C1648 C914 3.151 . S
C1665 C571 3.259 . S
C1684 C158 3.294 . S
C1701 C655 3.110 . S
C1720 C242 3.152 . S
C1737 C326 2.987 . S
C1756 C739 2.942 . S
C1773 C410 3.295 . S
C1792 C823 3.268 . S
C1809 C907 3.113 . S
C1828 C494 3.139 . S
C1845 C991 2.949 . S
C1864 C74 2.985 . S
C1881 C567 1.547 . S
C1900 C63 1.541 . S
C1917 C147 1.041 . S
C1936 C651 1.073 . S
C1953 C735 1.025 . S
C1972 C231 1.006 . S
C1989 C315 1.554 . S
C2008 C819 1.566 . S
C2025 C903 1.032 . S
C2044 C399 1.003 . S
C2061 C987 1.036 . S
C2080 C483 1.061 . S
C2097 C573 0.534 . S
C2116 C69 0.561 . S
C2133 C657 0.369 . S
C2152 C153 0.291 . S
C2169 C741 0.345 . S
C2188 C237 0.284 . S
C2205 C321 0.521 . S
C2224 C825 0.499 . S
C2241 C909 0.386 . S
C2260 C405 0.367 . S
C2277 C993 0.363 . S
C2296 C489 0.423 . S
