# Generated by pormake.
# Topology zfo, (5)-cn, num edge types: 1
# Building blocks:
#     Node 0, Type 0, BuildingBlock: XOMCOT_clean_sbu_0, # of connection points: 5
#     Node 1, Type 0, BuildingBlock: XOMCOT_clean_sbu_0, # of connection points: 5
#     Node 2, Type 0, BuildingBlock: XOMCOT_clean_sbu_0, # of connection points: 5
#     Node 3, Type 0, BuildingBlock: XOMCOT_clean_sbu_0, # of connection points: 5
#     Node 4, Type 0, BuildingBlock: XOMCOT_clean_sbu_0, # of connection points: 5
#     Node 5, Type 0, BuildingBlock: XOMCOT_clean_sbu_0, # of connection points: 5
#     Node 6, Type 0, BuildingBlock: XOMCOT_clean_sbu_0, # of connection points: 5
#     Node 7, Type 0, BuildingBlock: XOMCOT_clean_sbu_0, # of connection points: 5
#     Node 8, Type 0, BuildingBlock: XOMCOT_clean_sbu_0, # of connection points: 5
#     Node 9, Type 0, BuildingBlock: XOMCOT_clean_sbu_0, # of connection points: 5
#     Node 10, Type 0, BuildingBlock: XOMCOT_clean_sbu_0, # of connection points: 5
#     Node 11, Type 0, BuildingBlock: XOMCOT_clean_sbu_0, # of connection points: 5
#     Node 12, Type 0, BuildingBlock: XOMCOT_clean_sbu_0, # of connection points: 5
#     Node 13, Type 0, BuildingBlock: XOMCOT_clean_sbu_0, # of connection points: 5
#     Node 14, Type 0, BuildingBlock: XOMCOT_clean_sbu_0, # of connection points: 5
#     Node 15, Type 0, BuildingBlock: XOMCOT_clean_sbu_0, # of connection points: 5
#     Edge 16, Type (0, 0), BuildingBlock: KIFKEQ_clean_linker_1, # of connection points: 2
#     Edge 17, Type (0, 0), BuildingBlock: KIFKEQ_clean_linker_1, # of connection points: 2
#     Edge 18, Type (0, 0), BuildingBlock: KIFKEQ_clean_linker_1, # of connection points: 2
#     Edge 19, Type (0, 0), BuildingBlock: KIFKEQ_clean_linker_1, # of connection points: 2
#     Edge 20, Type (0, 0), BuildingBlock: KIFKEQ_clean_linker_1, # of connection points: 2
#     Edge 21, Type (0, 0), BuildingBlock: KIFKEQ_clean_linker_1, # of connection points: 2
#     Edge 22, Type (0, 0), BuildingBlock: KIFKEQ_clean_linker_1, # of connection points: 2
#     Edge 23, Type (0, 0), BuildingBlock: KIFKEQ_clean_linker_1, # of connection points: 2
#     Edge 24, Type (0, 0), BuildingBlock: KIFKEQ_clean_linker_1, # of connection points: 2
#     Edge 25, Type (0, 0), BuildingBlock: KIFKEQ_clean_linker_1, # of connection points: 2
#     Edge 26, Type (0, 0), BuildingBlock: KIFKEQ_clean_linker_1, # of connection points: 2
#     Edge 27, Type (0, 0), BuildingBlock: KIFKEQ_clean_linker_1, # of connection points: 2
#     Edge 28, Type (0, 0), BuildingBlock: KIFKEQ_clean_linker_1, # of connection points: 2
#     Edge 29, Type (0, 0), BuildingBlock: KIFKEQ_clean_linker_1, # of connection points: 2
#     Edge 30, Type (0, 0), BuildingBlock: KIFKEQ_clean_linker_1, # of connection points: 2
#     Edge 31, Type (0, 0), BuildingBlock: KIFKEQ_clean_linker_1, # of connection points: 2
#     Edge 32, Type (0, 0), BuildingBlock: KIFKEQ_clean_linker_1, # of connection points: 2
#     Edge 33, Type (0, 0), BuildingBlock: KIFKEQ_clean_linker_1, # of connection points: 2
#     Edge 34, Type (0, 0), BuildingBlock: KIFKEQ_clean_linker_1, # of connection points: 2
#     Edge 35, Type (0, 0), BuildingBlock: KIFKEQ_clean_linker_1, # of connection points: 2
#     Edge 36, Type (0, 0), BuildingBlock: KIFKEQ_clean_linker_1, # of connection points: 2
#     Edge 37, Type (0, 0), BuildingBlock: KIFKEQ_clean_linker_1, # of connection points: 2
#     Edge 38, Type (0, 0), BuildingBlock: KIFKEQ_clean_linker_1, # of connection points: 2
#     Edge 39, Type (0, 0), BuildingBlock: KIFKEQ_clean_linker_1, # of connection points: 2
#     Edge 40, Type (0, 0), BuildingBlock: KIFKEQ_clean_linker_1, # of connection points: 2
#     Edge 41, Type (0, 0), BuildingBlock: KIFKEQ_clean_linker_1, # of connection points: 2
#     Edge 42, Type (0, 0), BuildingBlock: KIFKEQ_clean_linker_1, # of connection points: 2
#     Edge 43, Type (0, 0), BuildingBlock: KIFKEQ_clean_linker_1, # of connection points: 2
#     Edge 44, Type (0, 0), BuildingBlock: KIFKEQ_clean_linker_1, # of connection points: 2
#     Edge 45, Type (0, 0), BuildingBlock: KIFKEQ_clean_linker_1, # of connection points: 2
#     Edge 46, Type (0, 0), BuildingBlock: KIFKEQ_clean_linker_1, # of connection points: 2
#     Edge 47, Type (0, 0), BuildingBlock: KIFKEQ_clean_linker_1, # of connection points: 2
#     Edge 48, Type (0, 0), BuildingBlock: KIFKEQ_clean_linker_1, # of connection points: 2
#     Edge 49, Type (0, 0), BuildingBlock: KIFKEQ_clean_linker_1, # of connection points: 2
#     Edge 50, Type (0, 0), BuildingBlock: KIFKEQ_clean_linker_1, # of connection points: 2
#     Edge 51, Type (0, 0), BuildingBlock: KIFKEQ_clean_linker_1, # of connection points: 2
#     Edge 52, Type (0, 0), BuildingBlock: KIFKEQ_clean_linker_1, # of connection points: 2
#     Edge 53, Type (0, 0), BuildingBlock: KIFKEQ_clean_linker_1, # of connection points: 2
#     Edge 54, Type (0, 0), BuildingBlock: KIFKEQ_clean_linker_1, # of connection points: 2
#     Edge 55, Type (0, 0), BuildingBlock: KIFKEQ_clean_linker_1, # of connection points: 2
# Relax obj value: 0.182
# Max RMSD: 0.185
# Mean RMSD: 0.185
data_MOF--net-zfo--node1-XOMCOT_clean_sbu_0--edge1-KIFKEQ_clean_linker_1
_symmetry_space_group_name_H-M    P1
_symmetry_Int_Tables_number       1
_symmetry_cell_setting            triclinic
loop_
_symmetry_equiv_pos_as_xyz
'x, y, z'
_cell_length_a     34.665811
_cell_length_b     34.610363
_cell_length_c     59.228906
_cell_angle_alpha  89.998077
_cell_angle_beta   90.085127
_cell_angle_gamma 90.005472
loop_
_atom_site_label
_atom_site_type_symbol
_atom_site_fract_x
_atom_site_fract_y
_atom_site_fract_z
_atom_type_partial_charge
Co0 Co 0.08983 0.22125 0.16671 0.0
C1 C 0.17227 0.20802 0.17813 0.0
C2 C 0.14547 0.15643 0.16575 0.0
C3 C 0.18423 0.14938 0.16883 0.0
N4 N 0.13779 0.1932 0.17177 0.0
N5 N 0.20111 0.18198 0.17651 0.0
H6 H 0.17695 0.238 0.18234 0.0
H7 H 0.12492 0.13659 0.15839 0.0
C8 C 0.05741 0.14792 0.18377 0.0
O9 O 0.0741 0.15633 0.20308 0.0
N10 N 0.04308 0.24993 0.161 0.0
C11 C 0.04159 0.28123 0.14754 0.0
C12 C 1.00435 0.29435 0.1467 0.0
C13 C 0.00664 0.24443 0.16841 0.0
N14 N 0.98228 0.27124 0.15971 0.0
C15 C 0.12948 0.23097 0.12462 0.0
C16 C 0.07362 0.19593 0.09822 0.0
C17 C 0.10643 0.21128 0.08764 0.0
C18 C 0.1347 0.22888 0.10122 0.0
C19 C 0.06933 0.19906 0.12152 0.0
N20 N 0.09716 0.21612 0.13443 0.0
H21 H 0.15114 0.24497 0.1349 0.0
H22 H 0.0431 0.18838 0.12909 0.0
H23 H 0.06606 0.29355 0.13881 0.0
H24 H 0.99807 0.22111 0.17949 0.0
O25 O 0.11591 0.26989 0.17196 0.0
O26 O 0.08731 0.23469 0.19833 0.0
O27 O 0.06016 0.17133 0.16722 0.0
C28 C 0.10676 0.26557 0.19312 0.0
H29 H 0.19895 0.12267 0.16488 0.0
H30 H 0.99434 0.3193 0.13737 0.0
H31 H 0.0512 0.1816 0.08861 0.0
H32 H 0.16024 0.24171 0.09386 0.0
Co33 Co 0.79203 0.09059 0.6668 0.0
C34 C 0.80805 0.17308 0.66778 0.0
C35 C 0.85281 0.14226 0.68519 0.0
C36 C 0.85878 0.18153 0.68802 0.0
N37 N 0.82096 0.13726 0.67246 0.0
N38 N 0.83016 0.20061 0.6773 0.0
H39 H 0.78195 0.17886 0.65831 0.0
H40 H 0.86927 0.11919 0.69287 0.0
C41 C 0.8544 0.0346 0.65334 0.0
O42 O 0.83292 0.02459 0.63599 0.0
N43 N 0.76083 0.04425 0.66147 0.0
C44 C 0.72322 0.04477 0.65545 0.0
C45 C 0.70916 0.00795 0.65495 0.0
C46 C 0.76835 0.00642 0.66571 0.0
N47 N 0.73748 0.98358 0.66115 0.0
C48 C 0.76412 0.10637 0.62197 0.0
C49 C 0.83529 0.11066 0.60122 0.0
C50 C 0.8019 0.11247 0.58783 0.0
C51 C 0.76601 0.11169 0.59868 0.0
C52 C 0.83199 0.1057 0.6246 0.0
N53 N 0.79669 0.10066 0.63447 0.0
H54 H 0.73633 0.10765 0.62988 0.0
H55 H 0.85796 0.10522 0.63469 0.0
H56 H 0.70585 0.07021 0.65281 0.0
H57 H 0.79539 0.99578 0.67233 0.0
O58 O 0.74551 0.11943 0.67269 0.0
O59 O 0.77922 0.08773 0.69859 0.0
O60 O 0.84187 0.05962 0.66745 0.0
C61 C 0.75 0.10994 0.69376 0.0
H62 H 0.88105 0.19489 0.69819 0.0
H63 H 0.67963 0.99998 0.65124 0.0
H64 H 0.86373 0.11218 0.59375 0.0
H65 H 0.73944 0.11542 0.58929 0.0
Co66 Co 0.92296 0.80188 0.16206 0.0
C67 C 0.83818 0.80612 0.16345 0.0
C68 C 0.86319 0.84977 0.18433 0.0
C69 C 0.82376 0.84975 0.18766 0.0
N70 N 0.87214 0.82296 0.16863 0.0
N71 N 0.80815 0.82208 0.17447 0.0
H72 H 0.8357 0.78002 0.15375 0.0
H73 H 0.884 0.86666 0.19371 0.0
C74 C 0.93258 0.8869 0.15717 0.0
O75 O 0.90058 0.886 0.14524 0.0
N76 N 0.97249 0.77901 0.15588 0.0
C77 C 0.97726 0.74951 0.14138 0.0
C78 C 0.01478 0.73752 0.14226 0.0
C79 C 0.00727 0.7845 0.16567 0.0
N80 N 0.0339 0.75945 0.15745 0.0
C81 C 0.8899 0.78475 0.11827 0.0
C82 C 0.93879 0.83157 0.09368 0.0
C83 C 0.91098 0.80982 0.08209 0.0
C84 C 0.88651 0.78594 0.09475 0.0
C85 C 0.94139 0.82922 0.11716 0.0
N86 N 0.91589 0.80752 0.1294 0.0
H87 H 0.87323 0.76356 0.12723 0.0
H88 H 0.96497 0.844 0.12535 0.0
H89 H 0.95455 0.73663 0.13137 0.0
H90 H 0.01266 0.80577 0.17869 0.0
O91 O 0.9021 0.75048 0.16625 0.0
O92 O 0.92677 0.78705 0.19338 0.0
O93 O 0.94686 0.85532 0.1648 0.0
C94 C 0.90979 0.75499 0.1876 0.0
H95 H 0.80816 0.86773 0.19947 0.0
H96 H 0.02649 0.71324 0.13304 0.0
H97 H 0.95889 0.84995 0.08474 0.0
H98 H 0.86597 0.76699 0.08655 0.0
Co99 Co 0.2081 0.91355 0.66893 0.0
C100 C 0.20576 0.82837 0.67333 0.0
C101 C 0.15617 0.8541 0.68845 0.0
C102 C 0.1558 0.81505 0.69306 0.0
N103 N 0.18687 0.86239 0.6753 0.0
N104 N 0.1872 0.79888 0.68353 0.0
H105 H 0.23453 0.82573 0.66666 0.0
H106 H 0.13651 0.87518 0.69542 0.0
C107 C 0.12466 0.92238 0.65922 0.0
O108 O 0.12899 0.89068 0.64726 0.0
N109 N 0.23129 0.96342 0.66338 0.0
C110 C 0.2623 0.96811 0.64994 0.0
C111 C 0.27574 1.00508 0.65219 0.0
C112 C 0.22618 0.99783 0.67377 0.0
N113 N 0.25322 0.02368 0.66716 0.0
C114 C 0.22314 0.87625 0.62575 0.0
C115 C 0.1892 0.93349 0.5999 0.0
C116 C 0.20654 0.90214 0.5891 0.0
C117 C 0.22343 0.87309 0.6022 0.0
C118 C 0.18878 0.9351 0.62341 0.0
N119 N 0.20498 0.90638 0.63619 0.0
H120 H 0.2392 0.85545 0.6353 0.0
H121 H 0.17648 0.96034 0.63137 0.0
H122 H 0.27522 0.94554 0.63983 0.0
H123 H 0.20465 1.0032 0.68661 0.0
O124 O 0.25924 0.89333 0.67437 0.0
O125 O 0.22076 0.91755 0.70067 0.0
O126 O 0.154 0.93702 0.66937 0.0
C127 C 0.25349 0.90122 0.69558 0.0
H128 H 0.13471 0.80019 0.70332 0.0
H129 H 0.30073 0.01727 0.64386 0.0
H130 H 0.17653 0.95686 0.59023 0.0
H131 H 0.23822 0.84908 0.59428 0.0
Co132 Co 0.58905 0.29728 0.84184 0.0
C133 C 0.67216 0.3095 0.84285 0.0
C134 C 0.64438 0.35564 0.82489 0.0
C135 C 0.68389 0.35976 0.82274 0.0
N136 N 0.63729 0.32409 0.83754 0.0
N137 N 0.70108 0.33031 0.8338 0.0
H138 H 0.67621 0.28308 0.85233 0.0
H139 H 0.62253 0.37304 0.81672 0.0
C140 C 0.53545 0.36149 0.85465 0.0
O141 O 0.52369 0.33953 0.87139 0.0
N142 N 0.54089 0.26837 0.84538 0.0
C143 C 0.53881 0.23006 0.84986 0.0
C144 C 0.50202 0.2172 0.84629 0.0
C145 C 0.50483 0.27778 0.8383 0.0
N146 N 0.48071 0.24708 0.83905 0.0
C147 C 0.59648 0.26914 0.8876 0.0
C148 C 0.61172 0.33994 0.90719 0.0
C149 C 0.60907 0.30726 0.92115 0.0
C150 C 0.60168 0.27145 0.91092 0.0
C151 C 0.60578 0.33635 0.88392 0.0
N152 N 0.5966 0.30148 0.87446 0.0
H153 H 0.59319 0.24106 0.88024 0.0
H154 H 0.60862 0.36178 0.87347 0.0
H155 H 0.56285 0.21135 0.85363 0.0
H156 H 0.49689 0.30551 0.83129 0.0
O157 O 0.61611 0.24939 0.83653 0.0
O158 O 0.58813 0.28496 0.80998 0.0
O159 O 0.56058 0.34856 0.84077 0.0
C160 C 0.60844 0.25458 0.81525 0.0
H161 H 0.69869 0.38127 0.81271 0.0
H162 H 0.49195 0.18772 0.84801 0.0
H163 H 0.61881 0.36804 0.91406 0.0
H164 H 0.59964 0.2452 0.92077 0.0
Co165 Co 0.71543 0.5891 0.32971 0.0
C166 C 0.70385 0.67174 0.33475 0.0
C167 C 0.66084 0.64788 0.31271 0.0
C168 C 0.65736 0.68766 0.31265 0.0
N169 N 0.69005 0.63823 0.32659 0.0
N170 N 0.68464 0.70252 0.32648 0.0
H171 H 0.72927 0.6735 0.34532 0.0
H172 H 0.64465 0.62769 0.30247 0.0
C173 C 0.64899 0.53713 0.34122 0.0
O174 O 0.66919 0.52366 0.35828 0.0
N175 N 0.74261 0.53989 0.33214 0.0
C176 C 0.78071 0.5361 0.33665 0.0
C177 C 0.79209 0.49905 0.33231 0.0
C178 C 0.7318 0.50471 0.32431 0.0
N179 N 0.76148 0.47937 0.32451 0.0
C180 C 0.74445 0.59359 0.37542 0.0
C181 C 0.67439 0.60855 0.39579 0.0
C182 C 0.70737 0.60523 0.40942 0.0
C183 C 0.74279 0.59798 0.39881 0.0
C184 C 0.67735 0.60369 0.3724 0.0
N185 N 0.71184 0.59457 0.36252 0.0
H186 H 0.77228 0.59045 0.36778 0.0
H187 H 0.65178 0.60752 0.36219 0.0
H188 H 0.80026 0.55916 0.34102 0.0
H189 H 0.70376 0.49829 0.31723 0.0
O190 O 0.76416 0.61488 0.32469 0.0
O191 O 0.72711 0.58996 0.29782 0.0
O192 O 0.66357 0.56236 0.32798 0.0
C193 C 0.75843 0.60855 0.30329 0.0
H194 H 0.63716 0.7043 0.30266 0.0
H195 H 0.82105 0.48769 0.33406 0.0
H196 H 0.64659 0.61553 0.40303 0.0
H197 H 0.76923 0.59558 0.40846 0.0
Co198 Co 0.41806 0.71743 0.84081 0.0
C199 C 0.33375 0.71314 0.83318 0.0
C200 C 0.36237 0.6645 0.81861 0.0
C201 C 0.32408 0.66345 0.81229 0.0
N202 N 0.36831 0.695 0.83245 0.0
N203 N 0.30634 0.69435 0.82135 0.0
H204 H 0.32909 0.74115 0.84062 0.0
H205 H 0.38472 0.64573 0.81218 0.0
C206 C 0.42758 0.63392 0.85011 0.0
O207 O 0.39485 0.63767 0.86108 0.0
N208 N 0.46654 0.74193 0.8484 0.0
C209 C 0.46859 0.7728 0.86218 0.0
C210 C 0.50597 0.78513 0.8633 0.0
C211 C 0.50297 0.73605 0.841 0.0
N212 N 0.52783 0.76212 0.85011 0.0
C213 C 0.37648 0.73102 0.88277 0.0
C214 C 0.43178 0.69769 0.91023 0.0
C215 C 0.39939 0.71464 0.92015 0.0
C216 C 0.37127 0.73114 0.9062 0.0
C217 C 0.43547 0.69749 0.88682 0.0
N218 N 0.40774 0.71342 0.87322 0.0
H219 H 0.35636 0.7469 0.87263 0.0
H220 H 0.46155 0.68569 0.87963 0.0
H221 H 0.44418 0.78596 0.87054 0.0
H222 H 0.51094 0.7136 0.82918 0.0
O223 O 0.3969 0.76812 0.83508 0.0
O224 O 0.42474 0.73093 0.80935 0.0
O225 O 0.4428 0.66375 0.84075 0.0
C226 C 0.4066 0.76291 0.81409 0.0
H227 H 0.31094 0.64309 0.80073 0.0
H228 H 0.51595 0.81015 0.87258 0.0
H229 H 0.45443 0.68521 0.92054 0.0
H230 H 0.34646 0.74563 0.91339 0.0
Co231 Co 0.29734 0.42216 0.33928 0.0
C232 C 0.30363 0.33849 0.32932 0.0
C233 C 0.35961 0.36454 0.33128 0.0
C234 C 0.36404 0.32547 0.3276 0.0
N235 N 0.32162 0.37279 0.33241 0.0
N236 N 0.32876 0.30919 0.32639 0.0
H237 H 0.27275 0.3345 0.33022 0.0
H238 H 0.38281 0.38498 0.33347 0.0
C239 C 0.36657 0.46565 0.32383 0.0
O240 O 0.34887 0.47156 0.30452 0.0
N241 N 0.27205 0.47043 0.34647 0.0
C242 C 0.24345 0.47324 0.36178 0.0
C243 C 0.22774 0.50949 0.36067 0.0
C244 C 0.2733 0.50523 0.33608 0.0
N245 N 0.24631 0.52954 0.34451 0.0
C246 C 0.28412 0.37985 0.38026 0.0
C247 C 0.32513 0.42925 0.40811 0.0
C248 C 0.30708 0.3969 0.41762 0.0
C249 C 0.2862 0.37208 0.40341 0.0
C250 C 0.32208 0.43614 0.38498 0.0
N251 N 0.30219 0.41135 0.37132 0.0
H252 H 0.26756 0.36083 0.36954 0.0
H253 H 0.33489 0.46212 0.37824 0.0
H254 H 0.23362 0.44989 0.37245 0.0
H255 H 0.29195 0.51205 0.32203 0.0
O256 O 0.24698 0.40016 0.33346 0.0
O257 O 0.28403 0.42797 0.30774 0.0
O258 O 0.34957 0.44749 0.33968 0.0
C259 C 0.25214 0.40992 0.31247 0.0
H260 H 0.39117 0.31019 0.32622 0.0
H261 H 0.20395 0.52016 0.37072 0.0
H262 H 0.34065 0.44973 0.41855 0.0
H263 H 0.2717 0.34684 0.4101 0.0
Co264 Co 0.91874 0.80308 0.83166 0.0
C265 C 0.83491 0.81011 0.83338 0.0
C266 C 0.85963 0.86097 0.81853 0.0
C267 C 0.81987 0.86391 0.8176 0.0
N268 N 0.86881 0.82719 0.8285 0.0
N269 N 0.8046 0.83161 0.8267 0.0
H270 H 0.83244 0.78198 0.84123 0.0
H271 H 0.88021 0.8813 0.81168 0.0
C272 C 0.9705 0.86914 0.84463 0.0
O273 O 0.98515 0.84661 0.86032 0.0
N274 N 0.96854 0.77699 0.83427 0.0
C275 C 0.97322 0.73933 0.83976 0.0
C276 C 0.0104 0.72834 0.83553 0.0
C277 C 1.00336 0.78794 0.826 0.0
N278 N 0.02929 0.7588 0.82695 0.0
C279 C 0.91067 0.7716 0.87667 0.0
C280 C 0.90168 0.84164 0.8984 0.0
C281 C 0.90372 0.80786 0.91138 0.0
C282 C 0.90715 0.77239 0.90016 0.0
C283 C 0.90488 0.83942 0.87492 0.0
N284 N 0.9121 0.80497 0.86442 0.0
H285 H 0.91138 0.74399 0.86844 0.0
H286 H 0.90175 0.86564 0.86521 0.0
H287 H 0.95069 0.71961 0.84464 0.0
H288 H 0.00911 0.81563 0.81824 0.0
O289 O 0.89484 0.75367 0.82552 0.0
O290 O 0.91904 0.79276 0.79951 0.0
O291 O 0.94442 0.85601 0.83133 0.0
C292 C 0.9014 0.76054 0.80428 0.0
H293 H 0.80351 0.88713 0.80995 0.0
H294 H 0.02239 0.6997 0.83777 0.0
H295 H 0.89729 0.86952 0.90629 0.0
H296 H 0.90766 0.74544 0.90946 0.0
Co297 Co 0.21531 0.92192 0.33876 0.0
C298 C 0.20376 0.83814 0.32988 0.0
C299 C 0.15254 0.86465 0.34287 0.0
C300 C 0.14641 0.82544 0.34121 0.0
N301 N 0.18849 0.87277 0.33561 0.0
N302 N 0.17876 0.80877 0.33315 0.0
H303 H 0.23344 0.83387 0.32496 0.0
H304 H 0.1328 0.88534 0.35016 0.0
C305 C 0.14076 0.95046 0.32148 0.0
O306 O 0.14902 0.93172 0.30282 0.0
N307 N 0.24271 0.97 0.34255 0.0
C308 C 0.2749 0.9736 0.35514 0.0
C309 C 0.28946 0.0101 0.35236 0.0
C310 C 0.23777 1.00455 0.33232 0.0
N311 N 0.26624 0.02947 0.33804 0.0
C312 C 0.22937 0.8866 0.38158 0.0
C313 C 0.19198 0.94182 0.40724 0.0
C314 C 0.21025 0.91092 0.41833 0.0
C315 C 0.2291 0.88303 0.40508 0.0
C316 C 0.19361 0.94469 0.38378 0.0
N317 N 0.21185 0.91713 0.37127 0.0
H318 H 0.24417 0.8651 0.37159 0.0
H319 H 0.18075 0.96958 0.37576 0.0
H320 H 0.28746 0.95078 0.36523 0.0
H321 H 0.21488 0.01085 0.32042 0.0
O322 O 0.26439 0.89678 0.3338 0.0
O323 O 0.22764 0.92195 0.30692 0.0
O324 O 0.16467 0.9502 0.33788 0.0
C325 C 0.2593 0.90407 0.31245 0.0
H326 H 0.12058 0.8103 0.34639 0.0
H327 H 0.31533 0.02158 0.36013 0.0
H328 H 0.17651 0.96383 0.41653 0.0
H329 H 0.2443 0.85905 0.41272 0.0
Co330 Co 0.09013 0.21983 0.83932 0.0
C331 C 0.17278 0.20712 0.83723 0.0
C332 C 0.1433 0.1625 0.81888 0.0
C333 C 0.18261 0.15845 0.81552 0.0
N334 N 0.13746 0.1931 0.8325 0.0
N335 N 0.20083 0.18696 0.82686 0.0
H336 H 0.17772 0.23282 0.84723 0.0
H337 H 0.1207 0.1458 0.81092 0.0
C338 C 0.03651 0.15438 0.85192 0.0
O339 O 0.02539 0.1744 0.86961 0.0
N340 N 0.04314 0.24888 0.84604 0.0
C341 C 0.04288 0.28547 0.85396 0.0
C342 C 0.00587 0.29866 0.85505 0.0
C343 C 0.00557 0.24115 0.84135 0.0
N344 N 0.98217 0.27085 0.84735 0.0
C345 C 0.10978 0.24589 0.88413 0.0
C346 C 0.11335 0.17372 0.9039 0.0
C347 C 0.1171 0.20654 0.91758 0.0
C348 C 0.11662 0.24294 0.90728 0.0
C349 C 0.10711 0.17808 0.88071 0.0
N350 N 0.10217 0.21391 0.87139 0.0
H351 H 0.11132 0.27398 0.87652 0.0
H352 H 0.10601 0.15248 0.87032 0.0
H353 H 0.06785 0.30303 0.85738 0.0
H354 H 0.99557 0.21484 0.83342 0.0
O355 O 0.11647 0.2681 0.83349 0.0
O356 O 0.08519 0.23371 0.80778 0.0
O357 O 0.06117 0.16874 0.83821 0.0
C358 C 0.10621 0.26383 0.81252 0.0
H359 H 0.19648 0.13776 0.80449 0.0
H360 H 0.99728 0.32745 0.8601 0.0
H361 H 0.11533 0.14498 0.91104 0.0
H362 H 0.12065 0.26905 0.91709 0.0
Co363 Co 0.79602 0.08928 0.33881 0.0
C364 C 0.80178 0.17345 0.33152 0.0
C365 C 0.84358 0.14295 0.31192 0.0
C366 C 0.8441 0.18128 0.30556 0.0
N367 N 0.81761 0.13816 0.32866 0.0
N368 N 0.81762 0.20032 0.31793 0.0
H369 H 0.77636 0.17886 0.3414 0.0
H370 H 0.8593 0.11981 0.30383 0.0
C371 C 0.88078 0.07912 0.34312 0.0
O372 O 0.88053 0.11303 0.35312 0.0
N373 N 0.77282 0.04144 0.34839 0.0
C374 C 0.74502 0.03925 0.36419 0.0
C375 C 0.73327 1.00166 0.36608 0.0
C376 C 0.7773 1.00512 0.34052 0.0
N377 N 0.75349 0.98013 0.35127 0.0
C378 C 0.78303 0.13073 0.38055 0.0
C379 C 0.82823 0.08342 0.40728 0.0
C380 C 0.80808 0.11382 0.41744 0.0
C381 C 0.78516 0.13761 0.40377 0.0
C382 C 0.82505 0.07742 0.38406 0.0
N383 N 0.80393 0.10185 0.37071 0.0
H384 H 0.76254 0.14715 0.3709 0.0
H385 H 0.83828 0.05189 0.37705 0.0
H386 H 0.73342 0.06361 0.37338 0.0
H387 H 0.79717 0.9973 0.3272 0.0
O388 O 0.74484 0.11039 0.33451 0.0
O389 O 0.77903 0.08044 0.30819 0.0
O390 O 0.84886 0.06401 0.3366 0.0
C391 C 0.74779 0.09911 0.31362 0.0
H392 H 0.86147 0.1937 0.29224 0.0
H393 H 0.71055 0.9912 0.37701 0.0
H394 H 0.84479 0.06319 0.41733 0.0
H395 H 0.76816 0.16073 0.41101 0.0
Co396 Co 0.41906 0.71297 0.17014 0.0
C397 C 0.33444 0.70954 0.17619 0.0
C398 C 0.36276 0.66538 0.19528 0.0
C399 C 0.32402 0.66474 0.20053 0.0
N400 N 0.36914 0.69267 0.17938 0.0
N401 N 0.30658 0.69289 0.18865 0.0
H402 H 0.32964 0.73495 0.1661 0.0
H403 H 0.38499 0.64837 0.20337 0.0
C404 C 0.42499 0.62827 0.16413 0.0
O405 O 0.39146 0.63151 0.15391 0.0
N406 N 0.46788 0.7352 0.1615 0.0
C407 C 0.47076 0.76443 0.14659 0.0
C408 C 0.5086 0.77495 0.14472 0.0
C409 C 0.50418 0.72863 0.16892 0.0
N410 N 0.52969 0.75253 0.15865 0.0
C411 C 0.38038 0.73049 0.12791 0.0
C412 C 0.42762 0.68526 0.10128 0.0
C413 C 0.39972 0.70836 0.09072 0.0
C414 C 0.37572 0.73104 0.10443 0.0
C415 C 0.43178 0.6862 0.12466 0.0
N416 N 0.40747 0.70747 0.13792 0.0
H417 H 0.36412 0.75089 0.13773 0.0
H418 H 0.45602 0.67106 0.1319 0.0
H419 H 0.44673 0.77772 0.13791 0.0
H420 H 0.51168 0.70712 0.18145 0.0
O421 O 0.39961 0.76456 0.17506 0.0
O422 O 0.42738 0.72799 0.20118 0.0
O423 O 0.44207 0.65872 0.17146 0.0
C424 C 0.40996 0.76017 0.19603 0.0
H425 H 0.31014 0.64651 0.21295 0.0
H426 H 0.51966 0.79815 0.13432 0.0
H427 H 0.44707 0.66732 0.09159 0.0
H428 H 0.35487 0.75067 0.09709 0.0
Co429 Co 0.30307 0.41384 0.66654 0.0
C430 C 0.30816 0.32975 0.6687 0.0
C431 C 0.35592 0.3558 0.68603 0.0
C432 C 0.35697 0.31639 0.68959 0.0
N433 N 0.32525 0.36395 0.67293 0.0
N434 N 0.32665 0.30009 0.67882 0.0
H435 H 0.28119 0.32712 0.65963 0.0
H436 H 0.37498 0.37706 0.69344 0.0
C437 C 0.37012 0.46705 0.65705 0.0
O438 O 0.34838 0.48589 0.64258 0.0
N439 N 0.27915 0.46366 0.66053 0.0
C440 C 0.24913 0.47036 0.64649 0.0
C441 C 0.23531 0.50689 0.65012 0.0
C442 C 0.28268 0.49649 0.67283 0.0
N443 N 0.25628 0.52325 0.66665 0.0
C444 C 0.27538 0.39073 0.62269 0.0
C445 C 0.34509 0.39517 0.60043 0.0
C446 C 0.3116 0.38793 0.58785 0.0
C447 C 0.27658 0.38435 0.59942 0.0
C448 C 0.34253 0.40116 0.6237 0.0
N449 N 0.30751 0.40214 0.6343 0.0
H450 H 0.2482 0.3871 0.63127 0.0
H451 H 0.36903 0.40434 0.63301 0.0
H452 H 0.23604 0.44987 0.63523 0.0
H453 H 0.30286 0.50005 0.68663 0.0
O454 O 0.25232 0.39276 0.67232 0.0
O455 O 0.29019 0.41915 0.6982 0.0
O456 O 0.35653 0.43787 0.66769 0.0
C457 C 0.2579 0.40178 0.69337 0.0
H458 H 0.37784 0.30124 0.6999 0.0
H459 H 0.21099 0.52017 0.64166 0.0
H460 H 0.37312 0.39595 0.59239 0.0
H461 H 0.25007 0.3777 0.59054 0.0
Co462 Co 0.58824 0.2933 0.17021 0.0
C463 C 0.67103 0.30642 0.16972 0.0
C464 C 0.64364 0.34632 0.19231 0.0
C465 C 0.68321 0.35031 0.1943 0.0
N466 N 0.63632 0.31877 0.17685 0.0
N467 N 0.70028 0.32503 0.18008 0.0
H468 H 0.67467 0.2824 0.15824 0.0
H469 H 0.62193 0.36105 0.20219 0.0
C470 C 0.53186 0.35639 0.1599 0.0
O471 O 0.51833 0.33418 0.14372 0.0
N472 N 0.54032 0.26593 0.16386 0.0
C473 C 0.5367 0.23385 0.15106 0.0
C474 C 0.50046 0.21888 0.15368 0.0
C475 C 0.50595 0.2694 0.17457 0.0
N476 N 0.48113 0.24108 0.16846 0.0
C477 C 0.61132 0.26899 0.12559 0.0
C478 C 0.60556 0.34046 0.10516 0.0
C479 C 0.61336 0.30808 0.09178 0.0
C480 C 0.61773 0.2722 0.10238 0.0
C481 C 0.60011 0.33596 0.12838 0.0
N482 N 0.59946 0.30003 0.13803 0.0
H483 H 0.6163 0.24142 0.13353 0.0
H484 H 0.59678 0.36165 0.13846 0.0
H485 H 0.55917 0.22022 0.14146 0.0
H486 H 0.4998 0.29112 0.18722 0.0
O487 O 0.61319 0.24405 0.17535 0.0
O488 O 0.58377 0.27877 0.20162 0.0
O489 O 0.56011 0.34465 0.17203 0.0
C490 C 0.60342 0.248 0.19642 0.0
H491 H 0.69815 0.36961 0.20573 0.0
H492 H 0.48936 0.193 0.14571 0.0
H493 H 0.60411 0.36906 0.09777 0.0
H494 H 0.62527 0.24667 0.09277 0.0
Co495 Co 0.71988 0.58802 0.65925 0.0
C496 C 0.70758 0.67129 0.66121 0.0
C497 C 0.66347 0.64161 0.67977 0.0
C498 C 0.659 0.68091 0.68295 0.0
N499 N 0.69387 0.63583 0.66606 0.0
N500 N 0.68711 0.69935 0.67146 0.0
H501 H 0.733 0.67635 0.65105 0.0
H502 H 0.64707 0.61898 0.68789 0.0
C503 C 0.65506 0.53017 0.65125 0.0
O504 O 0.67572 0.51234 0.63587 0.0
N505 N 0.74793 0.54064 0.65247 0.0
C506 C 0.7798 0.53899 0.63951 0.0
C507 C 0.79498 0.50264 0.6404 0.0
C508 C 0.74509 0.50496 0.66181 0.0
N509 N 0.77311 0.48078 0.65421 0.0
C510 C 0.74368 0.61384 0.61524 0.0
C511 C 0.67506 0.60022 0.59296 0.0
C512 C 0.70753 0.61072 0.58024 0.0
C513 C 0.74173 0.61916 0.59191 0.0
C514 C 0.67824 0.59574 0.61638 0.0
N515 N 0.71313 0.59924 0.62702 0.0
H516 H 0.77015 0.6213 0.62375 0.0
H517 H 0.65231 0.5898 0.62569 0.0
H518 H 0.79307 0.56293 0.63095 0.0
H519 H 0.7232 0.4971 0.67397 0.0
O520 O 0.76879 0.61363 0.66452 0.0
O521 O 0.73455 0.58366 0.6907 0.0
O522 O 0.66858 0.55991 0.66138 0.0
C523 C 0.76474 0.60425 0.68563 0.0
H524 H 0.63807 0.69469 0.69385 0.0
H525 H 0.82135 0.49376 0.63217 0.0
H526 H 0.64751 0.59472 0.58497 0.0
H527 H 0.76699 0.62976 0.58313 0.0
H528 H 0.02333 0.12013 0.14541 0.0
H529 H 0.04949 0.08882 0.21437 0.0
H530 H 0.99479 0.05682 0.13924 0.0
H531 H 0.02013 0.02547 0.20828 0.0
H532 H 0.99918 0.90164 0.18113 0.0
H533 H 0.02959 0.96446 0.1879 0.0
H534 H 0.93874 0.02025 0.15003 0.0
H535 H 0.90896 0.95795 0.14296 0.0
C536 C 0.02274 0.09987 0.15934 0.0
C537 C 0.03862 0.10974 0.18043 0.0
C538 C 0.00621 0.06351 0.15582 0.0
C539 C 0.00502 0.03597 0.17328 0.0
C540 C 0.02093 0.04579 0.19438 0.0
C541 C 0.03748 0.08226 0.19792 0.0
C542 C 0.9858 0.92734 0.17422 0.0
C543 C 0.95169 0.92465 0.16142 0.0
C544 C 1.00309 0.96338 0.17821 0.0
C545 C 0.98671 0.99748 0.16944 0.0
C546 C 0.95255 0.99463 0.15674 0.0
C547 C 0.93532 0.95878 0.15278 0.0
H548 H 0.05686 0.88832 0.64806 0.0
H549 H 0.10337 0.9954 0.6738 0.0
H550 H 0.99265 0.91565 0.64819 0.0
H551 H 0.03828 0.02355 0.67335 0.0
H552 H 0.90787 0.04789 0.68697 0.0
H553 H 0.97341 0.0219 0.68986 0.0
H554 H 0.95681 0.96112 0.62688 0.0
H555 H 0.89155 0.98601 0.62435 0.0
C556 C 0.05344 0.91791 0.65367 0.0
C557 C 0.08549 0.93977 0.6607 0.0
C558 C 0.01643 0.93371 0.65362 0.0
C559 C 0.01012 0.97211 0.66039 0.0
C560 C 0.04198 0.99384 0.66808 0.0
C561 C 0.07932 0.97779 0.66827 0.0
C562 C 0.91821 0.02879 0.67382 0.0
C563 C 0.89418 0.01877 0.65553 0.0
C564 C 0.95593 0.01413 0.67539 0.0
C565 C 0.97049 0.9891 0.65871 0.0
C566 C 0.94648 0.9796 0.64033 0.0
C567 C 0.90892 0.99407 0.63881 0.0
H568 H 0.39256 0.5658 0.85933 0.0
H569 H 0.50154 0.61277 0.83713 0.0
H570 H 0.41944 0.5014 0.85895 0.0
H571 H 0.5292 0.54728 0.8373 0.0
H572 H 0.55211 0.41611 0.82214 0.0
H573 H 0.52776 0.48248 0.81967 0.0
H574 H 0.46331 0.46484 0.88118 0.0
H575 H 0.48658 0.39888 0.88329 0.0
C576 C 0.42249 0.56246 0.85447 0.0
C577 C 0.445 0.5947 0.84853 0.0
C578 C 0.43801 0.5253 0.85436 0.0
C579 C 0.47676 0.51898 0.84852 0.0
C580 C 0.49921 0.55104 0.84187 0.0
C581 C 0.48344 0.58857 0.84185 0.0
C582 C 0.53259 0.42642 0.83506 0.0
C583 C 0.52098 0.40189 0.85278 0.0
C584 C 0.51888 0.4646 0.83374 0.0
C585 C 0.49323 0.47907 0.85009 0.0
C586 C 0.4823 0.4546 0.86797 0.0
C587 C 0.49583 0.41663 0.86924 0.0
H588 H 0.60572 0.53741 0.30259 0.0
H589 H 0.5996 0.51193 0.37379 0.0
H590 H 0.53804 0.51987 0.2983 0.0
H591 H 0.53143 0.49696 0.37004 0.0
H592 H 0.41843 0.43815 0.35458 0.0
H593 H 0.48633 0.45376 0.35806 0.0
H594 H 0.47494 0.5373 0.30409 0.0
H595 H 0.4074 0.51932 0.29962 0.0
C596 C 0.58974 0.52827 0.31737 0.0
C597 C 0.60805 0.52572 0.33848 0.0
C598 C 0.5507 0.51857 0.31499 0.0
C599 C 0.52866 0.50694 0.33381 0.0
C600 C 0.54723 0.50479 0.35498 0.0
C601 C 0.58645 0.5136 0.35721 0.0
C602 C 0.43043 0.45983 0.34343 0.0
C603 C 0.40748 0.47735 0.32674 0.0
C604 C 0.46953 0.46912 0.34554 0.0
C605 C 0.48671 0.49699 0.33141 0.0
C606 C 0.46335 0.51508 0.315 0.0
C607 C 0.42438 0.50507 0.31254 0.0
H608 H 1.00073 0.10882 0.88328 0.0
H609 H 0.04516 0.10659 0.81519 0.0
H610 H 0.98487 0.04031 0.88049 0.0
H611 H 0.0288 0.03786 0.81238 0.0
H612 H 0.95447 0.92331 0.81187 0.0
H613 H 0.96938 0.99261 0.8126 0.0
H614 H 0.02427 0.97869 0.87752 0.0
H615 H 0.00991 0.90978 0.87675 0.0
C616 C 0.00678 0.09387 0.86761 0.0
C617 C 0.02429 0.11333 0.84947 0.0
C618 C 0.9979 0.05448 0.86608 0.0
C619 C 0.00576 0.03356 0.84626 0.0
C620 C 0.02223 0.0532 0.82785 0.0
C621 C 0.03169 0.09255 0.8295 0.0
C622 C 0.96995 0.93501 0.82622 0.0
C623 C 0.981 0.91087 0.84423 0.0
C624 C 0.97856 0.97468 0.8266 0.0
C625 C 0.99778 0.9912 0.84519 0.0
C626 C 0.00905 0.96698 0.86308 0.0
C627 C 1.00102 0.92736 0.86254 0.0
H628 H 0.11335 0.98897 0.35845 0.0
H629 H 0.08109 0.95383 0.29101 0.0
H630 H 0.0501 0.01806 0.3636 0.0
H631 H 0.01782 0.98369 0.29606 0.0
H632 H 0.89459 0.00898 0.32258 0.0
H633 H 0.95704 0.97715 0.31717 0.0
H634 H 0.01388 0.07286 0.35013 0.0
H635 H 0.95204 0.10409 0.35585 0.0
C636 C 0.09288 0.98764 0.34464 0.0
C637 C 0.10248 0.96917 0.32427 0.0
C638 C 0.05656 1.00447 0.34758 0.0
C639 C 0.02881 1.00336 0.33022 0.0
C640 C 0.03831 0.98472 0.30987 0.0
C641 C 0.07473 0.96788 0.30692 0.0
C642 C 0.92044 0.02311 0.32871 0.0
C643 C 0.9182 0.05904 0.33972 0.0
C644 C 0.95626 1.00499 0.32549 0.0
C645 C 0.99054 0.02236 0.3333 0.0
C646 C 0.98811 0.0583 0.34424 0.0
C647 C 0.95251 0.07635 0.3474 0.0
H648 H 0.47606 0.39122 0.13467 0.0
H649 H 0.55478 0.41291 0.18987 0.0
H650 H 0.45264 0.45705 0.13715 0.0
H651 H 0.53036 0.47919 0.19274 0.0
H652 H 0.5008 0.60786 0.1727 0.0
H653 H 0.52795 0.54223 0.17299 0.0
H654 H 0.41404 0.49528 0.16181 0.0
H655 H 0.3875 0.55995 0.16095 0.0
C656 C 0.4882 0.40993 0.1475 0.0
C657 C 0.51716 0.39655 0.16216 0.0
C658 C 0.47459 0.44779 0.149 0.0
C659 C 0.48928 0.47346 0.16531 0.0
C660 C 0.51854 0.46029 0.1799 0.0
C661 C 0.53231 0.42221 0.17836 0.0
C662 C 0.48168 0.58339 0.17046 0.0
C663 C 0.44211 0.58916 0.16645 0.0
C664 C 0.49717 0.54581 0.17069 0.0
C665 C 0.47328 0.51342 0.16702 0.0
C666 C 0.43352 0.51945 0.16405 0.0
C667 C 0.41824 0.55668 0.16366 0.0
H668 H 0.40579 0.53436 0.64506 0.0
H669 H 0.42909 0.42089 0.67217 0.0
H670 H 0.4748 0.54873 0.64536 0.0
H671 H 0.49827 0.43524 0.67225 0.0
H672 H 0.61866 0.46301 0.63892 0.0
H673 H 0.54998 0.44744 0.64215 0.0
H674 H 0.52934 0.558 0.67355 0.0
H675 H 0.59781 0.57351 0.67051 0.0
C676 C 0.42561 0.51255 0.6512 0.0
C677 C 0.41187 0.4765 0.65862 0.0
C678 C 0.46515 0.52086 0.65146 0.0
C679 C 0.49202 0.4931 0.65879 0.0
C680 C 0.47831 0.45712 0.66636 0.0
C681 C 0.43866 0.44903 0.66647 0.0
C682 C 0.59953 0.48387 0.64667 0.0
C683 C 0.61384 0.51951 0.65445 0.0
C684 C 0.56021 0.47486 0.64861 0.0
C685 C 0.53419 0.50155 0.65804 0.0
C686 C 0.54858 0.53697 0.66605 0.0
C687 C 0.58792 0.54572 0.66443 0.0
H688 H 0.04938 0.21855 0.05585 0.0
H689 H 0.17238 0.20071 0.06244 0.0
H690 H 0.05496 0.21365 0.01506 0.0
H691 H 0.17791 0.19739 0.02131 0.0
H692 H 0.16691 0.24416 0.94604 0.0
H693 H 0.16656 0.24353 0.9874 0.0
H694 H 0.07311 0.1611 0.98656 0.0
H695 H 0.07335 0.16177 0.94531 0.0
C696 C 0.0776 0.21321 0.04869 0.0
C697 C 0.11037 0.20958 0.06259 0.0
C698 C 0.08075 0.21056 0.02526 0.0
C699 C 0.1168 0.20481 0.01506 0.0
C700 C 0.14977 0.20195 0.02878 0.0
C701 C 0.14657 0.20406 0.05232 0.0
C702 C 0.14655 0.22567 0.95473 0.0
C703 C 0.12004 0.20313 0.94248 0.0
C704 C 0.14653 0.22513 0.97835 0.0
C705 C 0.11963 0.20247 0.99013 0.0
C706 C 0.09392 0.17908 0.97788 0.0
C707 C 0.09428 0.17923 0.9543 0.0
H708 H 0.7466 0.12705 0.44515 0.0
H709 H 0.87002 0.10995 0.44609 0.0
H710 H 0.74611 0.12954 0.48629 0.0
H711 H 0.86939 0.11169 0.48739 0.0
H712 H 0.85373 0.15276 0.56156 0.0
H713 H 0.85621 0.15588 0.52032 0.0
H714 H 0.75717 0.08055 0.51627 0.0
H715 H 0.75505 0.07672 0.55721 0.0
C716 C 0.77371 0.12436 0.45413 0.0
C717 C 0.80836 0.1183 0.44238 0.0
C718 C 0.77336 0.12538 0.4777 0.0
C719 C 0.80767 0.12055 0.49006 0.0
C720 C 0.84253 0.11571 0.47831 0.0
C721 C 0.84285 0.11441 0.45471 0.0
C722 C 0.8327 0.1366 0.55187 0.0
C723 C 0.804 0.11473 0.56276 0.0
C724 C 0.83408 0.13849 0.52826 0.0
C725 C 0.80666 0.11877 0.51509 0.0
C726 C 0.77821 0.09673 0.52597 0.0
C727 C 0.77698 0.09462 0.54947 0.0
H728 H 0.86254 0.76203 0.94039 0.0
H729 H 0.9427 0.85753 0.93893 0.0
H730 H 0.86344 0.76325 0.98168 0.0
H731 H 0.94322 0.85904 0.98016 0.0
H732 H 0.97082 0.8143 0.05189 0.0
H733 H 0.96747 0.81543 0.01086 0.0
H734 H 0.84341 0.80635 0.01396 0.0
H735 H 0.84648 0.80625 0.05515 0.0
C736 C 0.88027 0.78331 0.94889 0.0
C737 C 0.90262 0.80963 0.93642 0.0
C738 C 0.88054 0.78422 0.97251 0.0
C739 C 0.90348 0.81118 0.98414 0.0
C740 C 0.92552 0.83772 0.97166 0.0
C741 C 0.92495 0.83708 0.94807 0.0
C742 C 0.94271 0.81321 0.04392 0.0
C743 C 0.90889 0.81045 0.05695 0.0
C744 C 0.94085 0.81372 0.02036 0.0
C745 C 0.90518 0.81109 0.00919 0.0
C746 C 0.87135 0.80805 0.02211 0.0
C747 C 0.87316 0.8079 0.04572 0.0
H748 H 0.20919 0.84578 0.44515 0.0
H749 H 0.21195 0.97055 0.44893 0.0
H750 H 0.21136 0.84225 0.48608 0.0
H751 H 0.21017 0.96705 0.48963 0.0
H752 H 0.24336 0.95338 0.56221 0.0
H753 H 0.24656 0.95382 0.52114 0.0
H754 H 0.17614 0.85055 0.51908 0.0
H755 H 0.17543 0.84915 0.56035 0.0
C756 C 0.21016 0.87251 0.45462 0.0
C757 C 0.2104 0.90847 0.44351 0.0
C758 C 0.21074 0.87047 0.47822 0.0
C759 C 0.21095 0.90433 0.49138 0.0
C760 C 0.21078 0.94024 0.48023 0.0
C761 C 0.21098 0.94227 0.4567 0.0
C762 C 0.22887 0.93071 0.55285 0.0
C763 C 0.20909 0.90131 0.56424 0.0
C764 C 0.23032 0.93107 0.5293 0.0
C765 C 0.21119 0.90249 0.51657 0.0
C766 C 0.1917 0.87276 0.52817 0.0
C767 C 0.19101 0.87199 0.5518 0.0
H768 H 0.56289 0.34355 0.06342 0.0
H769 H 0.67001 0.28016 0.06414 0.0
H770 H 0.56434 0.34532 0.02235 0.0
H771 H 0.67279 0.28344 0.02302 0.0
H772 H 0.64215 0.25473 0.95017 0.0
H773 H 0.64446 0.25694 0.991 0.0
H774 H 0.59242 0.37046 0.98988 0.0
H775 H 0.58696 0.36674 0.94906 0.0
C776 C 0.58716 0.33065 0.05472 0.0
C777 C 0.61624 0.31159 0.0669 0.0
C778 C 0.58817 0.3318 0.03115 0.0
C779 C 0.61866 0.31445 0.01917 0.0
C780 C 0.64839 0.29639 0.03153 0.0
C781 C 0.64699 0.29467 0.05511 0.0
C782 C 0.63066 0.27999 0.95857 0.0
C783 C 0.61383 0.3103 0.94615 0.0
C784 C 0.63266 0.28159 0.98211 0.0
C785 C 0.61853 0.31385 0.99395 0.0
C786 C 0.60296 0.34478 0.98148 0.0
C787 C 0.60039 0.34292 0.95793 0.0
H788 H 0.64742 0.63361 0.55262 0.0
H789 H 0.76455 0.59071 0.55056 0.0
H790 H 0.64564 0.63401 0.51136 0.0
H791 H 0.76295 0.59246 0.50955 0.0
H792 H 0.75971 0.63997 0.43771 0.0
H793 H 0.75855 0.64279 0.47877 0.0
H794 H 0.64845 0.5846 0.47918 0.0
H795 H 0.64996 0.58061 0.438 0.0
C796 C 0.67274 0.62418 0.54347 0.0
C797 C 0.70621 0.6123 0.55506 0.0
C798 C 0.6717 0.62455 0.51982 0.0
C799 C 0.70423 0.6135 0.50725 0.0
C800 C 0.73765 0.60178 0.51878 0.0
C801 C 0.73857 0.60097 0.54234 0.0
C802 C 0.73536 0.62741 0.44647 0.0
C803 C 0.70516 0.60958 0.43444 0.0
C804 C 0.73465 0.62922 0.47003 0.0
C805 C 0.70355 0.61369 0.48218 0.0
C806 C 0.67268 0.59708 0.47023 0.0
C807 C 0.67354 0.59489 0.44663 0.0
H808 H 0.33572 0.71763 0.06354 0.0
H809 H 0.45975 0.70539 0.06074 0.0
H810 H 0.33369 0.72291 0.0225 0.0
H811 H 0.45737 0.70729 0.02005 0.0
H812 H 0.45102 0.74704 0.94876 0.0
H813 H 0.44891 0.74879 0.98981 0.0
H814 H 0.34001 0.68767 0.98856 0.0
H815 H 0.34148 0.68809 0.94723 0.0
C816 C 0.36253 0.7159 0.05424 0.0
C817 C 0.39785 0.7108 0.0656 0.0
C818 C 0.36131 0.71842 0.03064 0.0
C819 C 0.39536 0.71561 0.01781 0.0
C820 C 0.43056 0.71033 0.02923 0.0
C821 C 0.43183 0.7084 0.05272 0.0
C822 C 0.42656 0.73425 0.95735 0.0
C823 C 0.39657 0.71717 0.94498 0.0
C824 C 0.42541 0.73494 0.98088 0.0
C825 C 0.3946 0.71777 0.99266 0.0
C826 C 0.36403 0.7015 0.98015 0.0
C827 C 0.36489 0.7015 0.9565 0.0
H828 H 0.27393 0.33653 0.56018 0.0
H829 H 0.35223 0.43357 0.55891 0.0
H830 H 0.27424 0.33466 0.51896 0.0
H831 H 0.35221 0.43209 0.51787 0.0
H832 H 0.37042 0.40192 0.44487 0.0
H833 H 0.37318 0.39583 0.48584 0.0
H834 H 0.2509 0.37156 0.48726 0.0
H835 H 0.24842 0.37696 0.4462 0.0
C836 C 0.29114 0.35749 0.5511 0.0
C837 C 0.3131 0.38517 0.56282 0.0
C838 C 0.29128 0.35647 0.52748 0.0
C839 C 0.31326 0.38321 0.51505 0.0
C840 C 0.33553 0.41057 0.52684 0.0
C841 C 0.33552 0.41146 0.55041 0.0
C842 C 0.34418 0.39514 0.45396 0.0
C843 C 0.30917 0.39015 0.44234 0.0
C844 C 0.34571 0.39176 0.47744 0.0
C845 C 0.31219 0.38356 0.48991 0.0
C846 C 0.27737 0.37744 0.4782 0.0
C847 C 0.2759 0.38059 0.45466 0.0
H848 H 0.13972 0.33651 0.18716 0.0
H849 H 0.10767 0.25429 0.23864 0.0
H850 H 0.16953 0.37745 0.21581 0.0
H851 H 0.13887 0.29405 0.26712 0.0
H852 H 0.26481 0.40872 0.26708 0.0
H853 H 0.22539 0.37788 0.23828 0.0
H854 H 0.13915 0.35102 0.28858 0.0
H855 H 0.17968 0.38037 0.31756 0.0
C856 C 0.13889 0.3273 0.20463 0.0
C857 C 0.12144 0.29218 0.21066 0.0
C858 C 0.15623 0.35062 0.22106 0.0
C859 C 0.15698 0.33906 0.24385 0.0
C860 C 0.13841 0.30437 0.24987 0.0
C861 C 0.12066 0.28135 0.23349 0.0
C862 C 0.23716 0.39673 0.27191 0.0
C863 C 0.22545 0.39672 0.29459 0.0
C864 C 0.21437 0.37915 0.25535 0.0
C865 C 0.17907 0.36155 0.26104 0.0
C866 C 0.16651 0.36345 0.28361 0.0
C867 C 0.18957 0.38058 0.30022 0.0
H868 H 0.73979 0.08497 0.7372 0.0
H869 H 0.7045 0.17331 0.69005 0.0
H870 H 0.70109 0.11556 0.76663 0.0
H871 H 0.66777 0.2051 0.71948 0.0
H872 H 0.58392 0.24458 0.7718 0.0
H873 H 0.61382 0.20496 0.7426 0.0
H874 H 0.70161 0.16931 0.79026 0.0
H875 H 0.67031 0.20708 0.81954 0.0
C876 C 0.72372 0.11092 0.73317 0.0
C877 C 0.72502 0.12669 0.71137 0.0
C878 C 0.70175 0.12868 0.75005 0.0
C879 C 0.68124 0.16303 0.74558 0.0
C880 C 0.68233 0.17833 0.72357 0.0
C881 C 0.70367 0.1602 0.70666 0.0
C882 C 0.60933 0.22783 0.77601 0.0
C883 C 0.62479 0.22884 0.79789 0.0
C884 C 0.62671 0.20532 0.75925 0.0
C885 C 0.66045 0.184 0.76391 0.0
C886 C 0.67535 0.18462 0.78602 0.0
C887 C 0.65752 0.20651 0.80284 0.0
H888 H 0.83083 0.63732 0.30977 0.0
H889 H 0.74624 0.61433 0.25791 0.0
H890 H 0.87299 0.66699 0.2818 0.0
H891 H 0.7875 0.64536 0.23008 0.0
H892 H 0.90869 0.76459 0.23324 0.0
H893 H 0.87561 0.7249 0.26093 0.0
H894 H 0.84493 0.64342 0.20855 0.0
H895 H 0.87684 0.68422 0.18065 0.0
C896 C 0.82131 0.63853 0.29236 0.0
C897 C 0.78518 0.62368 0.28604 0.0
C898 C 0.84537 0.65574 0.27633 0.0
C899 C 0.83364 0.65893 0.25364 0.0
C900 C 0.79787 0.64298 0.24727 0.0
C901 C 0.77402 0.62537 0.26327 0.0
C902 C 0.89543 0.73789 0.22768 0.0
C903 C 0.8952 0.72764 0.20475 0.0
C904 C 0.87653 0.71495 0.24361 0.0
C905 C 0.85726 0.68096 0.23702 0.0
C906 C 0.85876 0.66976 0.21419 0.0
C907 C 0.87736 0.69295 0.19821 0.0
H908 H 0.37395 0.83403 0.81942 0.0
H909 H 0.40589 0.75069 0.76854 0.0
H910 H 0.34182 0.87305 0.79077 0.0
H911 H 0.37258 0.78881 0.74 0.0
H912 H 0.32654 0.87371 0.68958 0.0
H913 H 0.36923 0.84578 0.71797 0.0
H914 H 0.28418 0.86953 0.76946 0.0
H915 H 0.24233 0.89873 0.74118 0.0
C916 C 0.37448 0.82427 0.80205 0.0
C917 C 0.39241 0.78925 0.79624 0.0
C918 C 0.35573 0.84647 0.78563 0.0
C919 C 0.35411 0.83398 0.76304 0.0
C920 C 0.37355 0.79971 0.75712 0.0
C921 C 0.39262 0.77771 0.77352 0.0
C922 C 0.31728 0.8735 0.70704 0.0
C923 C 0.28105 0.88836 0.71314 0.0
C924 C 0.34163 0.8572 0.72331 0.0
C925 C 0.33016 0.85502 0.74606 0.0
C926 C 0.29437 0.87114 0.75221 0.0
C927 C 0.2702 0.88777 0.73596 0.0
H928 H 0.8952 0.77437 0.759 0.0
H929 H 0.87515 0.68688 0.80959 0.0
H930 H 0.86584 0.73295 0.7305 0.0
H931 H 0.84726 0.64466 0.78099 0.0
H932 H 0.83282 0.6426 0.67973 0.0
H933 H 0.87058 0.67664 0.70823 0.0
H934 H 0.79033 0.63922 0.7596 0.0
H935 H 0.7537 0.604 0.73123 0.0
C936 C 0.88517 0.74596 0.76393 0.0
C937 C 0.88727 0.73398 0.78654 0.0
C938 C 0.86849 0.72204 0.74756 0.0
C939 C 0.85391 0.68536 0.75337 0.0
C940 C 0.8574 0.67294 0.77591 0.0
C941 C 0.87365 0.69705 0.79231 0.0
C942 C 0.82369 0.64111 0.69719 0.0
C943 C 0.79029 0.62061 0.70323 0.0
C944 C 0.84513 0.66096 0.71353 0.0
C945 C 0.83342 0.66112 0.73628 0.0
C946 C 0.80067 0.63942 0.74236 0.0
C947 C 0.7795 0.61926 0.72606 0.0
H948 H 0.33151 0.87503 0.31927 0.0
H949 H 0.24846 0.90013 0.2669 0.0
H950 H 0.37437 0.8462 0.29135 0.0
H951 H 0.29037 0.86995 0.23911 0.0
H952 H 0.40982 0.7495 0.24163 0.0
H953 H 0.37737 0.78896 0.26975 0.0
H954 H 0.34832 0.87257 0.21821 0.0
H955 H 0.37951 0.8321 0.18993 0.0
C956 C 0.32251 0.87452 0.30175 0.0
C957 C 0.28659 0.8897 0.29527 0.0
C958 C 0.34696 0.85777 0.28576 0.0
C959 C 0.33584 0.85544 0.26294 0.0
C960 C 0.3003 0.87172 0.25642 0.0
C961 C 0.27607 0.88884 0.27238 0.0
C962 C 0.39717 0.77668 0.23639 0.0
C963 C 0.397 0.78758 0.21356 0.0
C964 C 0.3786 0.79945 0.25255 0.0
C965 C 0.35977 0.83387 0.24627 0.0
C966 C 0.36172 0.84585 0.22359 0.0
C967 C 0.37993 0.82285 0.2074 0.0
H968 H 0.14108 0.33381 0.81804 0.0
H969 H 0.10644 0.25178 0.76699 0.0
H970 H 0.17285 0.3729 0.78934 0.0
H971 H 0.13955 0.28978 0.73839 0.0
H972 H 0.18468 0.37443 0.68787 0.0
H973 H 0.14275 0.34651 0.71657 0.0
H974 H 0.22925 0.37019 0.76741 0.0
H975 H 0.2702 0.39955 0.73885 0.0
C976 C 0.14003 0.32429 0.80063 0.0
C977 C 0.12134 0.28971 0.79476 0.0
C978 C 0.15854 0.34653 0.78417 0.0
C979 C 0.15923 0.33443 0.76149 0.0
C980 C 0.13926 0.30044 0.75557 0.0
C981 C 0.12035 0.27847 0.772 0.0
C982 C 0.19439 0.37421 0.70526 0.0
C983 C 0.23075 0.3891 0.71111 0.0
C984 C 0.1705 0.3579 0.72171 0.0
C985 C 0.18263 0.35564 0.74436 0.0
C986 C 0.21854 0.37184 0.75026 0.0
C987 C 0.2422 0.38857 0.73384 0.0
H988 H 0.75691 0.09792 0.26798 0.0
H989 H 0.67648 0.13084 0.32013 0.0
H990 H 0.71695 0.12965 0.23987 0.0
H991 H 0.63521 0.16111 0.29182 0.0
H992 H 0.63208 0.17538 0.19013 0.0
H993 H 0.66042 0.13281 0.21845 0.0
H994 H 0.63581 0.21763 0.2701 0.0
H995 H 0.60585 0.25903 0.24194 0.0
C996 C 0.73006 0.111 0.27335 0.0
C997 C 0.71996 0.11209 0.29628 0.0
C998 C 0.70693 0.12914 0.25717 0.0
C999 C 0.67283 0.14839 0.2635 0.0
C1000 C 0.66165 0.14741 0.28634 0.0
C1001 C 0.68511 0.12971 0.30257 0.0
C1002 C 0.63223 0.18456 0.20762 0.0
C1003 C 0.61691 0.22057 0.21382 0.0
C1004 C 0.64873 0.1603 0.22386 0.0
C1005 C 0.65088 0.17178 0.24664 0.0
C1006 C 0.63425 0.20735 0.25287 0.0
C1007 C 0.61723 0.23131 0.23667 0.0
H1008 H 0.4505 0.17228 0.17918 0.0
H1009 H 0.42418 0.29369 0.17439 0.0
H1010 H 0.38251 0.1577 0.18501 0.0
H1011 H 0.35541 0.27923 0.17981 0.0
H1012 H 0.23488 0.23788 0.20218 0.0
H1013 H 0.30356 0.25332 0.20442 0.0
H1014 H 0.32853 0.15889 0.15908 0.0
H1015 H 0.26042 0.1437 0.15668 0.0
C1016 C 0.43003 0.19588 0.17964 0.0
C1017 C 0.44237 0.23402 0.17604 0.0
C1018 C 0.39108 0.18757 0.18287 0.0
C1019 C 0.36339 0.21718 0.18236 0.0
C1020 C 0.37602 0.25574 0.18031 0.0
C1021 C 0.41529 0.26409 0.17724 0.0
C1022 C 0.25502 0.22043 0.19267 0.0
C1023 C 0.2419 0.18951 0.1792 0.0
C1024 C 0.2944 0.22931 0.19399 0.0
C1025 C 0.32159 0.20728 0.18202 0.0
C1026 C 0.3085 0.17602 0.1689 0.0
C1027 C 0.26926 0.16724 0.16752 0.0
H1028 H 0.76012 0.23448 0.68031 0.0
H1029 H 0.88182 0.25892 0.67526 0.0
H1030 H 0.7457 0.30355 0.67752 0.0
H1031 H 0.86745 0.32815 0.67239 0.0
H1032 H 0.81753 0.43016 0.63067 0.0
H1033 H 0.83222 0.36397 0.63998 0.0
H1034 H 0.75747 0.37044 0.69798 0.0
H1035 H 0.74361 0.43838 0.68929 0.0
C1036 C 0.78377 0.25472 0.6787 0.0
C1037 C 0.8221 0.24141 0.67764 0.0
C1038 C 0.77553 0.29421 0.67737 0.0
C1039 C 0.80543 0.32112 0.67464 0.0
C1040 C 0.84384 0.30793 0.67438 0.0
C1041 C 0.85211 0.26845 0.67607 0.0
C1042 C 0.80467 0.41829 0.64575 0.0
C1043 C 0.77991 0.44046 0.65948 0.0
C1044 C 0.81313 0.38001 0.65101 0.0
C1045 C 0.79656 0.36227 0.66989 0.0
C1046 C 0.77084 0.38362 0.68337 0.0
C1047 C 0.76279 0.42247 0.67831 0.0
H1048 H 0.57082 0.74248 0.1974 0.0
H1049 H 0.58141 0.77055 0.12671 0.0
H1050 H 0.63989 0.75612 0.20269 0.0
H1051 H 0.64892 0.78569 0.13197 0.0
H1052 H 0.77476 0.78087 0.14083 0.0
H1053 H 0.70937 0.75728 0.13895 0.0
H1054 H 0.68401 0.81195 0.20279 0.0
H1055 H 0.75099 0.83355 0.20553 0.0
C1056 C 0.588 0.75107 0.183 0.0
C1057 C 0.57077 0.75569 0.16168 0.0
C1058 C 0.62732 0.75937 0.18604 0.0
C1059 C 0.64997 0.77212 0.16776 0.0
C1060 C 0.63268 0.77546 0.14639 0.0
C1061 C 0.59378 0.76716 0.14339 0.0
C1062 C 0.75574 0.78736 0.15478 0.0
C1063 C 0.76853 0.80913 0.17339 0.0
C1064 C 0.71787 0.77415 0.15353 0.0
C1065 C 0.69123 0.78296 0.17061 0.0
C1066 C 0.70389 0.80434 0.18943 0.0
C1067 C 0.74217 0.81727 0.19082 0.0
H1068 H 0.30933 0.5788 0.67447 0.0
H1069 H 0.18796 0.55309 0.67871 0.0
H1070 H 0.29567 0.64708 0.68283 0.0
H1071 H 0.17412 0.62072 0.68715 0.0
H1072 H 0.16403 0.74349 0.71349 0.0
H1073 H 0.18426 0.67599 0.71449 0.0
H1074 H 0.26071 0.6964 0.65833 0.0
H1075 H 0.23993 0.7632 0.65672 0.0
C1076 C 0.27994 0.58767 0.67785 0.0
C1077 C 0.24964 0.56104 0.67585 0.0
C1078 C 0.27205 0.6266 0.68243 0.0
C1079 C 0.23378 0.63923 0.68549 0.0
C1080 C 0.20387 0.61188 0.68505 0.0
C1081 C 0.21172 0.57327 0.68011 0.0
C1082 C 0.18507 0.73374 0.7013 0.0
C1083 C 0.20016 0.75919 0.68499 0.0
C1084 C 0.19686 0.69506 0.70201 0.0
C1085 C 0.22431 0.68102 0.68662 0.0
C1086 C 0.24012 0.70655 0.67073 0.0
C1087 C 0.22805 0.745 0.66982 0.0
H1088 H 0.93605 0.314 0.87387 0.0
H1089 H 0.9341 0.23596 0.81697 0.0
H1090 H 0.86802 0.32755 0.86855 0.0
H1091 H 0.8648 0.24889 0.81205 0.0
H1092 H 0.73166 0.25841 0.83224 0.0
H1093 H 0.80002 0.24107 0.83447 0.0
H1094 H 0.83002 0.36203 0.8373 0.0
H1095 H 0.7616 0.37932 0.83513 0.0
C1096 C 0.92112 0.29976 0.86014 0.0
C1097 C 0.94081 0.27454 0.84551 0.0
C1098 C 0.88207 0.30755 0.85713 0.0
C1099 C 0.86136 0.28992 0.83961 0.0
C1100 C 0.88027 0.26305 0.82563 0.0
C1101 C 0.9198 0.25551 0.8285 0.0
C1102 C 0.7529 0.28125 0.83338 0.0
C1103 C 0.74138 0.32026 0.83387 0.0
C1104 C 0.79198 0.27131 0.83438 0.0
C1105 C 0.82022 0.30017 0.8362 0.0
C1106 C 0.80875 0.33918 0.83611 0.0
C1107 C 0.76972 0.34912 0.83478 0.0
H1108 H 0.67115 0.76299 0.29815 0.0
H1109 H 0.72183 0.73293 0.36248 0.0
H1110 H 0.69082 0.83009 0.30368 0.0
H1111 H 0.74318 0.7991 0.3674 0.0
H1112 H 0.73197 0.92721 0.38208 0.0
H1113 H 0.71531 0.8602 0.37541 0.0
H1114 H 0.74744 0.87244 0.30529 0.0
H1115 H 0.76259 0.94072 0.31191 0.0
C1116 C 0.68636 0.77063 0.31347 0.0
C1117 C 0.69482 0.7425 0.32989 0.0
C1118 C 0.69819 0.80898 0.31647 0.0
C1119 C 0.71868 0.81997 0.33595 0.0
C1120 C 0.72711 0.79178 0.3523 0.0
C1121 C 0.71516 0.75366 0.34937 0.0
C1122 C 0.73542 0.91571 0.36521 0.0
C1123 C 0.74821 0.93938 0.34747 0.0
C1124 C 0.72626 0.87709 0.36143 0.0
C1125 C 0.72995 0.86089 0.3398 0.0
C1126 C 0.74382 0.88421 0.3221 0.0
C1127 C 0.75298 0.92312 0.32592 0.0
H1128 H 0.06014 0.70977 0.79706 0.0
H1129 H 0.08704 0.80455 0.84138 0.0
H1130 H 0.12877 0.69768 0.79119 0.0
H1131 H 0.15605 0.79173 0.83659 0.0
H1132 H 0.28013 0.76796 0.81774 0.0
H1133 H 0.21313 0.78878 0.81429 0.0
H1134 H 0.17677 0.66925 0.81392 0.0
H1135 H 0.24378 0.64877 0.81684 0.0
C1136 C 0.08105 0.72849 0.80515 0.0
C1137 C 0.06868 0.75804 0.81962 0.0
C1138 C 0.1203 0.72133 0.80208 0.0
C1139 C 0.1481 0.74308 0.81383 0.0
C1140 C 0.13558 0.77447 0.82714 0.0
C1141 C 0.09614 0.78198 0.8299 0.0
C1142 C 0.25773 0.7462 0.81691 0.0
C1143 C 0.2671 0.70668 0.81781 0.0
C1144 C 0.21932 0.75813 0.81491 0.0
C1145 C 0.18935 0.7308 0.81389 0.0
C1146 C 0.19898 0.69124 0.81422 0.0
C1147 C 0.23739 0.67936 0.81601 0.0
H1148 H 0.26454 0.27726 0.30789 0.0
H1149 H 0.37181 0.24912 0.34112 0.0
H1150 H 0.2477 0.2087 0.30661 0.0
H1151 H 0.35495 0.18109 0.34027 0.0
H1152 H 0.33285 0.05913 0.32313 0.0
H1153 H 0.34738 0.12706 0.31646 0.0
H1154 H 0.22864 0.15628 0.33083 0.0
H1155 H 0.21415 0.08756 0.33653 0.0
C1156 C 0.28448 0.25643 0.31495 0.0
C1157 C 0.31957 0.26865 0.32458 0.0
C1158 C 0.27482 0.21715 0.31425 0.0
C1159 C 0.29998 0.18919 0.32323 0.0
C1160 C 0.33519 0.20156 0.33267 0.0
C1161 C 0.34492 0.24069 0.33323 0.0
C1162 C 0.30981 0.08014 0.32441 0.0
C1163 C 0.27252 0.0684 0.33049 0.0
C1164 C 0.31811 0.11908 0.32081 0.0
C1165 C 0.28943 0.1474 0.32363 0.0
C1166 C 0.25145 0.13533 0.32842 0.0
C1167 C 0.24304 0.09607 0.3317 0.0
H1168 H 0.56968 0.74007 0.81323 0.0
H1169 H 0.57933 0.79547 0.87838 0.0
H1170 H 0.63764 0.75576 0.80565 0.0
H1171 H 0.64583 0.81227 0.87038 0.0
H1172 H 0.74398 0.87816 0.83542 0.0
H1173 H 0.67641 0.85861 0.8398 0.0
H1174 H 0.70722 0.74072 0.82443 0.0
H1175 H 0.77484 0.76025 0.82028 0.0
C1176 C 0.58619 0.75523 0.82597 0.0
C1177 C 0.56868 0.76718 0.84622 0.0
C1178 C 0.62495 0.76439 0.82158 0.0
C1179 C 0.64656 0.78598 0.83725 0.0
C1180 C 0.62952 0.79648 0.85778 0.0
C1181 C 0.59129 0.78689 0.86229 0.0
C1182 C 0.73617 0.84821 0.83277 0.0
C1183 C 0.76458 0.82067 0.82778 0.0
C1184 C 0.69767 0.83698 0.83534 0.0
C1185 C 0.68675 0.79813 0.83252 0.0
C1186 C 0.71489 0.77083 0.82661 0.0
C1187 C 0.75352 0.78195 0.82446 0.0
H1188 H 0.29582 0.58736 0.3339 0.0
H1189 H 0.17516 0.55902 0.33949 0.0
H1190 H 0.27897 0.65563 0.3283 0.0
H1191 H 0.15807 0.62641 0.33336 0.0
H1192 H 0.14598 0.75087 0.35723 0.0
H1193 H 0.16258 0.68287 0.35642 0.0
H1194 H 0.24798 0.7052 0.30498 0.0
H1195 H 0.23129 0.77383 0.30588 0.0
C1196 C 0.26573 0.59569 0.33338 0.0
C1197 C 0.2368 0.5682 0.33749 0.0
C1198 C 0.256 0.63469 0.33018 0.0
C1199 C 0.21714 0.64666 0.33084 0.0
C1200 C 0.18829 0.61848 0.33341 0.0
C1201 C 0.19802 0.57983 0.33682 0.0
C1202 C 0.16781 0.74136 0.34544 0.0
C1203 C 0.18718 0.76797 0.33159 0.0
C1204 C 0.1774 0.70221 0.34496 0.0
C1205 C 0.20653 0.6884 0.33053 0.0
C1206 C 0.22569 0.71488 0.31646 0.0
C1207 C 0.21609 0.75421 0.31697 0.0
H1208 H 0.42236 0.29269 0.85289 0.0
H1209 H 0.44961 0.19478 0.81104 0.0
H1210 H 0.35343 0.2796 0.84799 0.0
H1211 H 0.38111 0.1824 0.80503 0.0
H1212 H 0.2619 0.1386 0.82569 0.0
H1213 H 0.33002 0.15645 0.82592 0.0
H1214 H 0.29828 0.27732 0.8248 0.0
H1215 H 0.23043 0.25911 0.82541 0.0
C1216 C 0.41338 0.26915 0.84204 0.0
C1217 C 0.44095 0.2446 0.83242 0.0
C1218 C 0.37397 0.2615 0.8392 0.0
C1219 C 0.36151 0.22943 0.8264 0.0
C1220 C 0.38945 0.20659 0.81555 0.0
C1221 C 0.42867 0.21389 0.81872 0.0
C1222 C 0.26968 0.16889 0.82537 0.0
C1223 C 0.24099 0.19739 0.82583 0.0
C1224 C 0.30869 0.17927 0.82536 0.0
C1225 C 0.31989 0.21847 0.82541 0.0
C1226 C 0.29094 0.24692 0.82525 0.0
C1227 C 0.252 0.2365 0.82557 0.0
H1228 H 0.82367 0.247 0.28108 0.0
H1229 H 0.78339 0.24388 0.35006 0.0
H1230 H 0.80304 0.31433 0.27811 0.0
H1231 H 0.76245 0.31059 0.34698 0.0
H1232 H 0.70788 0.42472 0.33315 0.0
H1233 H 0.71611 0.3548 0.32795 0.0
H1234 H 0.82569 0.37522 0.29539 0.0
H1235 H 0.81705 0.44453 0.30039 0.0
C1236 C 0.81049 0.26058 0.2956 0.0
C1237 C 0.80532 0.23998 0.31584 0.0
C1238 C 0.79841 0.29904 0.29383 0.0
C1239 C 0.78079 0.31764 0.31225 0.0
C1240 C 0.77508 0.29685 0.33231 0.0
C1241 C 0.78729 0.25859 0.33411 0.0
C1242 C 0.73305 0.41408 0.32431 0.0
C1243 C 0.76207 0.4397 0.31743 0.0
C1244 C 0.73799 0.37421 0.32151 0.0
C1245 C 0.77181 0.35953 0.31152 0.0
C1246 C 0.79928 0.38554 0.30305 0.0
C1247 C 0.7945 0.42519 0.30606 0.0
H1248 H 0.06879 0.78245 0.19668 0.0
H1249 H 0.09024 0.72497 0.13305 0.0
H1250 H 0.13533 0.76809 0.20841 0.0
H1251 H 0.15503 0.7092 0.14537 0.0
H1252 H 0.24494 0.64569 0.18987 0.0
H1253 H 0.17716 0.66474 0.18536 0.0
H1254 H 0.21066 0.78475 0.18476 0.0
H1255 H 0.27852 0.76569 0.18889 0.0
C1256 C 0.08746 0.76699 0.18518 0.0
C1257 C 0.07369 0.75425 0.16406 0.0
C1258 C 0.12534 0.75858 0.19199 0.0
C1259 C 0.14963 0.73689 0.17791 0.0
C1260 C 0.13638 0.72525 0.15666 0.0
C1261 C 0.0991 0.73419 0.14971 0.0
C1262 C 0.23763 0.67609 0.18929 0.0
C1263 C 0.26675 0.70421 0.18943 0.0
C1264 C 0.19906 0.68696 0.18672 0.0
C1265 C 0.18904 0.72614 0.1848 0.0
C1266 C 0.21784 0.75442 0.18639 0.0
C1267 C 0.2565 0.74351 0.18853 0.0
H1268 H 0.34572 0.24577 0.71024 0.0
H1269 H 0.27812 0.26352 0.64971 0.0
H1270 H 0.324 0.17886 0.71169 0.0
H1271 H 0.2559 0.19698 0.65157 0.0
H1272 H 0.20131 0.08179 0.66925 0.0
H1273 H 0.21631 0.1506 0.67511 0.0
H1274 H 0.33556 0.12104 0.68746 0.0
H1275 H 0.32036 0.05295 0.68155 0.0
C1276 C 0.32638 0.23558 0.6972 0.0
C1277 C 0.31391 0.26031 0.67979 0.0
C1278 C 0.31368 0.19724 0.69816 0.0
C1279 C 0.288 0.18275 0.68185 0.0
C1280 C 0.27507 0.20751 0.66465 0.0
C1281 C 0.28799 0.24572 0.66357 0.0
C1282 C 0.23037 0.09019 0.67384 0.0
C1283 C 0.25974 0.06241 0.67493 0.0
C1284 C 0.23908 0.12941 0.67696 0.0
C1285 C 0.2772 0.14121 0.68158 0.0
C1286 C 0.30592 0.11293 0.68409 0.0
C1287 C 0.29731 0.07402 0.68065 0.0
H1288 H 0.73547 0.29475 0.14342 0.0
H1289 H 0.75734 0.33555 0.21116 0.0
H1290 H 0.80296 0.2775 0.13946 0.0
H1291 H 0.82571 0.31969 0.20681 0.0
H1292 H 0.94049 0.25318 0.19711 0.0
H1293 H 0.87126 0.26468 0.20284 0.0
H1294 H 0.86296 0.31111 0.13529 0.0
H1295 H 0.93099 0.2985 0.12945 0.0
C1296 C 0.75466 0.30004 0.15751 0.0
C1297 C 0.74085 0.31657 0.17762 0.0
C1298 C 0.79353 0.29044 0.15516 0.0
C1299 C 0.81983 0.29732 0.17279 0.0
C1300 C 0.80613 0.31369 0.19299 0.0
C1301 C 0.76705 0.32331 0.19536 0.0
C1302 C 0.9236 0.2653 0.18345 0.0
C1303 C 0.94124 0.27517 0.16289 0.0
C1304 C 0.88413 0.27231 0.18679 0.0
C1305 C 0.86158 0.28893 0.16953 0.0
C1306 C 0.87926 0.29794 0.14887 0.0
C1307 C 0.91844 0.29109 0.1456 0.0
H1308 H 0.77836 0.93388 0.68789 0.0
H1309 H 0.68835 0.93858 0.63743 0.0
H1310 H 0.7676 0.86404 0.69182 0.0
H1311 H 0.67715 0.86991 0.64179 0.0
H1312 H 0.63624 0.75828 0.67407 0.0
H1313 H 0.65076 0.8274 0.67277 0.0
H1314 H 0.77235 0.80173 0.66804 0.0
H1315 H 0.75782 0.73261 0.66957 0.0
C1316 C 0.75653 0.92014 0.67758 0.0
C1317 C 0.73374 0.94209 0.66267 0.0
C1318 C 0.75027 0.88023 0.67988 0.0
C1319 C 0.72098 0.86174 0.66742 0.0
C1320 C 0.6992 0.88351 0.65206 0.0
C1321 C 0.70564 0.92299 0.64962 0.0
C1322 C 0.66604 0.76744 0.67296 0.0
C1323 C 0.69579 0.74007 0.67163 0.0
C1324 C 0.67438 0.80693 0.6721 0.0
C1325 C 0.7127 0.81991 0.67015 0.0
C1326 C 0.7426 0.79258 0.6696 0.0
C1327 C 0.73421 0.75305 0.6702 0.0
loop_
_geom_bond_atom_site_label_1
_geom_bond_atom_site_label_2
_geom_bond_distance
_geom_bond_site_symmetry_2
_ccdc_geom_bond_type
Co0 N4 2.148 . S
Co0 N10 2.128 . S
Co0 N20 2.194 . S
Co0 O25 2.351 . S
Co0 O26 2.155 . S
Co0 O27 2.096 . S
C1 N4 1.301 . S
C1 N5 1.328 . S
C1 H6 0.930 . S
C2 C3 1.333 . S
C2 N4 1.317 . S
C2 H7 0.930 . S
C3 C2 1.333 . S
C3 N5 1.350 . S
C3 H29 0.931 . S
N4 Co0 2.148 . S
N4 C1 1.301 . S
N4 C2 1.317 . S
N5 C1 1.328 . S
N5 C3 1.350 . S
H6 C1 0.930 . S
H7 C2 0.930 . S
C8 O9 1.224 . S
C8 O27 1.247 . S
O9 C8 1.224 . S
N10 Co0 2.128 . S
N10 C11 1.355 1_455 S
N10 C13 1.311 1_455 S
C11 N10 1.355 1_655 S
C11 C12 1.363 . S
C11 H23 0.929 1_655 S
C12 C11 1.363 . S
C12 N14 1.375 . S
C12 H30 0.931 . S
C13 N10 1.311 1_655 S
C13 N14 1.347 . S
C13 H24 0.929 . S
N14 C12 1.375 . S
N14 C13 1.347 . S
C15 C18 1.365 . S
C15 N20 1.328 . S
C15 H21 0.929 . S
C16 C17 1.362 . S
C16 C19 1.378 . S
C16 H31 0.929 . S
C17 C16 1.362 . S
C17 C18 1.366 . S
C18 C15 1.365 . S
C18 C17 1.366 . S
C18 H32 0.930 . S
C19 C16 1.378 . S
C19 N20 1.315 . S
C19 H22 0.930 . S
N20 Co0 2.194 . S
N20 C15 1.328 . S
N20 C19 1.315 . S
H21 C15 0.929 . S
H22 C19 0.930 . S
H23 C11 0.929 1_455 S
H24 C13 0.929 . S
O25 Co0 2.351 . S
O25 C28 1.244 . S
O26 Co0 2.155 . S
O26 C28 1.240 . S
O27 Co0 2.096 . S
O27 C8 1.247 . S
C28 O25 1.244 . S
C28 O26 1.240 . S
H29 C3 0.931 . S
H30 C12 0.931 . S
H31 C16 0.929 . S
H32 C18 0.930 . S
Co33 N37 2.148 . S
Co33 N43 2.128 . S
Co33 N53 2.194 . S
Co33 O58 2.351 . S
Co33 O59 2.155 . S
Co33 O60 2.096 . S
C34 N37 1.301 . S
C34 N38 1.328 . S
C34 H39 0.930 . S
C35 C36 1.333 . S
C35 N37 1.317 . S
C35 H40 0.930 . S
C36 C35 1.333 . S
C36 N38 1.350 . S
C36 H62 0.931 . S
N37 Co33 2.148 . S
N37 C34 1.301 . S
N37 C35 1.317 . S
N38 C34 1.328 . S
N38 C36 1.350 . S
H39 C34 0.930 . S
H40 C35 0.930 . S
C41 O42 1.224 . S
C41 O60 1.247 . S
O42 C41 1.224 . S
N43 Co33 2.128 . S
N43 C44 1.355 1_545 S
N43 C46 1.311 1_545 S
C44 N43 1.355 1_565 S
C44 C45 1.363 . S
C44 H56 0.929 1_565 S
C45 C44 1.363 . S
C45 N47 1.375 . S
C45 H63 0.931 . S
C46 N43 1.311 1_565 S
C46 N47 1.347 . S
C46 H57 0.929 . S
N47 C45 1.375 . S
N47 C46 1.347 . S
C48 C51 1.365 . S
C48 N53 1.328 . S
C48 H54 0.929 . S
C49 C50 1.362 . S
C49 C52 1.378 . S
C49 H64 0.929 . S
C50 C49 1.362 . S
C50 C51 1.366 . S
C51 C48 1.365 . S
C51 C50 1.366 . S
C51 H65 0.930 . S
C52 C49 1.378 . S
C52 N53 1.315 . S
C52 H55 0.930 . S
N53 Co33 2.194 . S
N53 C48 1.328 . S
N53 C52 1.315 . S
H54 C48 0.929 . S
H55 C52 0.930 . S
H56 C44 0.929 1_545 S
H57 C46 0.929 . S
O58 Co33 2.351 . S
O58 C61 1.244 . S
O59 Co33 2.155 . S
O59 C61 1.240 . S
O60 Co33 2.096 . S
O60 C41 1.247 . S
C61 O58 1.244 . S
C61 O59 1.240 . S
H62 C36 0.931 . S
H63 C45 0.931 . S
H64 C49 0.929 . S
H65 C51 0.930 . S
Co66 N70 2.148 . S
Co66 N76 2.128 . S
Co66 N86 2.194 . S
Co66 O91 2.351 . S
Co66 O92 2.155 . S
Co66 O93 2.096 . S
C67 N70 1.301 . S
C67 N71 1.328 . S
C67 H72 0.930 . S
C68 C69 1.333 . S
C68 N70 1.317 . S
C68 H73 0.930 . S
C69 C68 1.333 . S
C69 N71 1.350 . S
C69 H95 0.931 . S
N70 Co66 2.148 . S
N70 C67 1.301 . S
N70 C68 1.317 . S
N71 C67 1.328 . S
N71 C69 1.350 . S
H72 C67 0.930 . S
H73 C68 0.930 . S
C74 O75 1.224 . S
C74 O93 1.247 . S
O75 C74 1.224 . S
N76 Co66 2.128 . S
N76 C77 1.355 1_655 S
N76 C79 1.311 1_655 S
C77 N76 1.355 1_455 S
C77 C78 1.363 . S
C77 H89 0.929 1_455 S
C78 C77 1.363 . S
C78 N80 1.375 . S
C78 H96 0.931 . S
C79 N76 1.311 1_455 S
C79 N80 1.347 . S
C79 H90 0.929 . S
N80 C78 1.375 . S
N80 C79 1.347 . S
C81 C84 1.365 . S
C81 N86 1.328 . S
C81 H87 0.929 . S
C82 C83 1.362 . S
C82 C85 1.378 . S
C82 H97 0.929 . S
C83 C82 1.362 . S
C83 C84 1.366 . S
C84 C81 1.365 . S
C84 C83 1.366 . S
C84 H98 0.930 . S
C85 C82 1.378 . S
C85 N86 1.315 . S
C85 H88 0.930 . S
N86 Co66 2.194 . S
N86 C81 1.328 . S
N86 C85 1.315 . S
H87 C81 0.929 . S
H88 C85 0.930 . S
H89 C77 0.929 1_655 S
H90 C79 0.929 . S
O91 Co66 2.351 . S
O91 C94 1.244 . S
O92 Co66 2.155 . S
O92 C94 1.240 . S
O93 Co66 2.096 . S
O93 C74 1.247 . S
C94 O91 1.244 . S
C94 O92 1.240 . S
H95 C69 0.931 . S
H96 C78 0.931 . S
H97 C82 0.929 . S
H98 C84 0.930 . S
Co99 N103 2.148 . S
Co99 N109 2.128 . S
Co99 N119 2.194 . S
Co99 O124 2.351 . S
Co99 O125 2.155 . S
Co99 O126 2.096 . S
C100 N103 1.301 . S
C100 N104 1.328 . S
C100 H105 0.930 . S
C101 C102 1.333 . S
C101 N103 1.317 . S
C101 H106 0.930 . S
C102 C101 1.333 . S
C102 N104 1.350 . S
C102 H128 0.931 . S
N103 Co99 2.148 . S
N103 C100 1.301 . S
N103 C101 1.317 . S
N104 C100 1.328 . S
N104 C102 1.350 . S
H105 C100 0.930 . S
H106 C101 0.930 . S
C107 O108 1.224 . S
C107 O126 1.247 . S
O108 C107 1.224 . S
N109 Co99 2.128 . S
N109 C110 1.355 1_565 S
N109 C112 1.311 1_565 S
C110 N109 1.355 1_545 S
C110 C111 1.363 . S
C110 H122 0.929 1_545 S
C111 C110 1.363 . S
C111 N113 1.375 . S
C111 H129 0.931 . S
C112 N109 1.311 1_545 S
C112 N113 1.347 . S
C112 H123 0.929 . S
N113 C111 1.375 . S
N113 C112 1.347 . S
C114 C117 1.365 . S
C114 N119 1.328 . S
C114 H120 0.929 . S
C115 C116 1.362 . S
C115 C118 1.378 . S
C115 H130 0.929 . S
C116 C115 1.362 . S
C116 C117 1.366 . S
C117 C114 1.365 . S
C117 C116 1.366 . S
C117 H131 0.930 . S
C118 C115 1.378 . S
C118 N119 1.315 . S
C118 H121 0.930 . S
N119 Co99 2.194 . S
N119 C114 1.328 . S
N119 C118 1.315 . S
H120 C114 0.929 . S
H121 C118 0.930 . S
H122 C110 0.929 1_565 S
H123 C112 0.929 . S
O124 Co99 2.351 . S
O124 C127 1.244 . S
O125 Co99 2.155 . S
O125 C127 1.240 . S
O126 Co99 2.096 . S
O126 C107 1.247 . S
C127 O124 1.244 . S
C127 O125 1.240 . S
H128 C102 0.931 . S
H129 C111 0.931 . S
H130 C115 0.929 . S
H131 C117 0.930 . S
Co132 N136 2.148 . S
Co132 N142 2.128 . S
Co132 N152 2.194 . S
Co132 O157 2.351 . S
Co132 O158 2.155 . S
Co132 O159 2.096 . S
C133 N136 1.301 . S
C133 N137 1.328 . S
C133 H138 0.930 . S
C134 C135 1.333 . S
C134 N136 1.317 . S
C134 H139 0.930 . S
C135 C134 1.333 . S
C135 N137 1.350 . S
C135 H161 0.931 . S
N136 Co132 2.148 . S
N136 C133 1.301 . S
N136 C134 1.317 . S
N137 C133 1.328 . S
N137 C135 1.350 . S
H138 C133 0.930 . S
H139 C134 0.930 . S
C140 O141 1.224 . S
C140 O159 1.247 . S
O141 C140 1.224 . S
N142 Co132 2.128 . S
N142 C143 1.355 . S
N142 C145 1.311 . S
C143 N142 1.355 . S
C143 C144 1.363 . S
C143 H155 0.929 . S
C144 C143 1.363 . S
C144 N146 1.375 . S
C144 H162 0.931 . S
C145 N142 1.311 . S
C145 N146 1.347 . S
C145 H156 0.929 . S
N146 C144 1.375 . S
N146 C145 1.347 . S
C147 C150 1.365 . S
C147 N152 1.328 . S
C147 H153 0.929 . S
C148 C149 1.362 . S
C148 C151 1.378 . S
C148 H163 0.929 . S
C149 C148 1.362 . S
C149 C150 1.366 . S
C150 C147 1.365 . S
C150 C149 1.366 . S
C150 H164 0.930 . S
C151 C148 1.378 . S
C151 N152 1.315 . S
C151 H154 0.930 . S
N152 Co132 2.194 . S
N152 C147 1.328 . S
N152 C151 1.315 . S
H153 C147 0.929 . S
H154 C151 0.930 . S
H155 C143 0.929 . S
H156 C145 0.929 . S
O157 Co132 2.351 . S
O157 C160 1.244 . S
O158 Co132 2.155 . S
O158 C160 1.240 . S
O159 Co132 2.096 . S
O159 C140 1.247 . S
C160 O157 1.244 . S
C160 O158 1.240 . S
H161 C135 0.931 . S
H162 C144 0.931 . S
H163 C148 0.929 . S
H164 C150 0.930 . S
Co165 N169 2.148 . S
Co165 N175 2.128 . S
Co165 N185 2.194 . S
Co165 O190 2.351 . S
Co165 O191 2.155 . S
Co165 O192 2.096 . S
C166 N169 1.301 . S
C166 N170 1.328 . S
C166 H171 0.930 . S
C167 C168 1.333 . S
C167 N169 1.317 . S
C167 H172 0.930 . S
C168 C167 1.333 . S
C168 N170 1.350 . S
C168 H194 0.931 . S
N169 Co165 2.148 . S
N169 C166 1.301 . S
N169 C167 1.317 . S
N170 C166 1.328 . S
N170 C168 1.350 . S
H171 C166 0.930 . S
H172 C167 0.930 . S
C173 O174 1.224 . S
C173 O192 1.247 . S
O174 C173 1.224 . S
N175 Co165 2.128 . S
N175 C176 1.355 . S
N175 C178 1.311 . S
C176 N175 1.355 . S
C176 C177 1.363 . S
C176 H188 0.929 . S
C177 C176 1.363 . S
C177 N179 1.375 . S
C177 H195 0.931 . S
C178 N175 1.311 . S
C178 N179 1.347 . S
C178 H189 0.929 . S
N179 C177 1.375 . S
N179 C178 1.347 . S
C180 C183 1.365 . S
C180 N185 1.328 . S
C180 H186 0.929 . S
C181 C182 1.362 . S
C181 C184 1.378 . S
C181 H196 0.929 . S
C182 C181 1.362 . S
C182 C183 1.366 . S
C183 C180 1.365 . S
C183 C182 1.366 . S
C183 H197 0.930 . S
C184 C181 1.378 . S
C184 N185 1.315 . S
C184 H187 0.930 . S
N185 Co165 2.194 . S
N185 C180 1.328 . S
N185 C184 1.315 . S
H186 C180 0.929 . S
H187 C184 0.930 . S
H188 C176 0.929 . S
H189 C178 0.929 . S
O190 Co165 2.351 . S
O190 C193 1.244 . S
O191 Co165 2.155 . S
O191 C193 1.240 . S
O192 Co165 2.096 . S
O192 C173 1.247 . S
C193 O190 1.244 . S
C193 O191 1.240 . S
H194 C168 0.931 . S
H195 C177 0.931 . S
H196 C181 0.929 . S
H197 C183 0.930 . S
Co198 N202 2.148 . S
Co198 N208 2.128 . S
Co198 N218 2.194 . S
Co198 O223 2.351 . S
Co198 O224 2.155 . S
Co198 O225 2.096 . S
C199 N202 1.301 . S
C199 N203 1.328 . S
C199 H204 0.930 . S
C200 C201 1.333 . S
C200 N202 1.317 . S
C200 H205 0.930 . S
C201 C200 1.333 . S
C201 N203 1.350 . S
C201 H227 0.931 . S
N202 Co198 2.148 . S
N202 C199 1.301 . S
N202 C200 1.317 . S
N203 C199 1.328 . S
N203 C201 1.350 . S
H204 C199 0.930 . S
H205 C200 0.930 . S
C206 O207 1.224 . S
C206 O225 1.247 . S
O207 C206 1.224 . S
N208 Co198 2.128 . S
N208 C209 1.355 . S
N208 C211 1.311 . S
C209 N208 1.355 . S
C209 C210 1.363 . S
C209 H221 0.929 . S
C210 C209 1.363 . S
C210 N212 1.375 . S
C210 H228 0.931 . S
C211 N208 1.311 . S
C211 N212 1.347 . S
C211 H222 0.929 . S
N212 C210 1.375 . S
N212 C211 1.347 . S
C213 C216 1.365 . S
C213 N218 1.328 . S
C213 H219 0.929 . S
C214 C215 1.362 . S
C214 C217 1.378 . S
C214 H229 0.929 . S
C215 C214 1.362 . S
C215 C216 1.366 . S
C216 C213 1.365 . S
C216 C215 1.366 . S
C216 H230 0.930 . S
C217 C214 1.378 . S
C217 N218 1.315 . S
C217 H220 0.930 . S
N218 Co198 2.194 . S
N218 C213 1.328 . S
N218 C217 1.315 . S
H219 C213 0.929 . S
H220 C217 0.930 . S
H221 C209 0.929 . S
H222 C211 0.929 . S
O223 Co198 2.351 . S
O223 C226 1.244 . S
O224 Co198 2.155 . S
O224 C226 1.240 . S
O225 Co198 2.096 . S
O225 C206 1.247 . S
C226 O223 1.244 . S
C226 O224 1.240 . S
H227 C201 0.931 . S
H228 C210 0.931 . S
H229 C214 0.929 . S
H230 C216 0.930 . S
Co231 N235 2.148 . S
Co231 N241 2.128 . S
Co231 N251 2.194 . S
Co231 O256 2.351 . S
Co231 O257 2.155 . S
Co231 O258 2.096 . S
C232 N235 1.301 . S
C232 N236 1.328 . S
C232 H237 0.930 . S
C233 C234 1.333 . S
C233 N235 1.317 . S
C233 H238 0.930 . S
C234 C233 1.333 . S
C234 N236 1.350 . S
C234 H260 0.931 . S
N235 Co231 2.148 . S
N235 C232 1.301 . S
N235 C233 1.317 . S
N236 C232 1.328 . S
N236 C234 1.350 . S
H237 C232 0.930 . S
H238 C233 0.930 . S
C239 O240 1.224 . S
C239 O258 1.247 . S
O240 C239 1.224 . S
N241 Co231 2.128 . S
N241 C242 1.355 . S
N241 C244 1.311 . S
C242 N241 1.355 . S
C242 C243 1.363 . S
C242 H254 0.929 . S
C243 C242 1.363 . S
C243 N245 1.375 . S
C243 H261 0.931 . S
C244 N241 1.311 . S
C244 N245 1.347 . S
C244 H255 0.929 . S
N245 C243 1.375 . S
N245 C244 1.347 . S
C246 C249 1.365 . S
C246 N251 1.328 . S
C246 H252 0.929 . S
C247 C248 1.362 . S
C247 C250 1.378 . S
C247 H262 0.929 . S
C248 C247 1.362 . S
C248 C249 1.366 . S
C249 C246 1.365 . S
C249 C248 1.366 . S
C249 H263 0.930 . S
C250 C247 1.378 . S
C250 N251 1.315 . S
C250 H253 0.930 . S
N251 Co231 2.194 . S
N251 C246 1.328 . S
N251 C250 1.315 . S
H252 C246 0.929 . S
H253 C250 0.930 . S
H254 C242 0.929 . S
H255 C244 0.929 . S
O256 Co231 2.351 . S
O256 C259 1.244 . S
O257 Co231 2.155 . S
O257 C259 1.240 . S
O258 Co231 2.096 . S
O258 C239 1.247 . S
C259 O256 1.244 . S
C259 O257 1.240 . S
H260 C234 0.931 . S
H261 C243 0.931 . S
H262 C247 0.929 . S
H263 C249 0.930 . S
Co264 N268 2.148 . S
Co264 N274 2.128 . S
Co264 N284 2.194 . S
Co264 O289 2.351 . S
Co264 O290 2.155 . S
Co264 O291 2.096 . S
C265 N268 1.301 . S
C265 N269 1.328 . S
C265 H270 0.930 . S
C266 C267 1.333 . S
C266 N268 1.317 . S
C266 H271 0.930 . S
C267 C266 1.333 . S
C267 N269 1.350 . S
C267 H293 0.931 . S
N268 Co264 2.148 . S
N268 C265 1.301 . S
N268 C266 1.317 . S
N269 C265 1.328 . S
N269 C267 1.350 . S
H270 C265 0.930 . S
H271 C266 0.930 . S
C272 O273 1.224 . S
C272 O291 1.247 . S
O273 C272 1.224 . S
N274 Co264 2.128 . S
N274 C275 1.355 1_655 S
N274 C277 1.311 1_655 S
C275 N274 1.355 1_455 S
C275 C276 1.363 . S
C275 H287 0.929 1_455 S
C276 C275 1.363 . S
C276 N278 1.375 . S
C276 H294 0.931 . S
C277 N274 1.311 1_455 S
C277 N278 1.347 . S
C277 H288 0.929 . S
N278 C276 1.375 . S
N278 C277 1.347 . S
C279 C282 1.365 . S
C279 N284 1.328 . S
C279 H285 0.929 . S
C280 C281 1.362 . S
C280 C283 1.378 . S
C280 H295 0.929 . S
C281 C280 1.362 . S
C281 C282 1.366 . S
C282 C279 1.365 . S
C282 C281 1.366 . S
C282 H296 0.930 . S
C283 C280 1.378 . S
C283 N284 1.315 . S
C283 H286 0.930 . S
N284 Co264 2.194 . S
N284 C279 1.328 . S
N284 C283 1.315 . S
H285 C279 0.929 . S
H286 C283 0.930 . S
H287 C275 0.929 1_655 S
H288 C277 0.929 . S
O289 Co264 2.351 . S
O289 C292 1.244 . S
O290 Co264 2.155 . S
O290 C292 1.240 . S
O291 Co264 2.096 . S
O291 C272 1.247 . S
C292 O289 1.244 . S
C292 O290 1.240 . S
H293 C267 0.931 . S
H294 C276 0.931 . S
H295 C280 0.929 . S
H296 C282 0.930 . S
Co297 N301 2.148 . S
Co297 N307 2.128 . S
Co297 N317 2.194 . S
Co297 O322 2.351 . S
Co297 O323 2.155 . S
Co297 O324 2.096 . S
C298 N301 1.301 . S
C298 N302 1.328 . S
C298 H303 0.930 . S
C299 C300 1.333 . S
C299 N301 1.317 . S
C299 H304 0.930 . S
C300 C299 1.333 . S
C300 N302 1.350 . S
C300 H326 0.931 . S
N301 Co297 2.148 . S
N301 C298 1.301 . S
N301 C299 1.317 . S
N302 C298 1.328 . S
N302 C300 1.350 . S
H303 C298 0.930 . S
H304 C299 0.930 . S
C305 O306 1.224 . S
C305 O324 1.247 . S
O306 C305 1.224 . S
N307 Co297 2.128 . S
N307 C308 1.355 1_565 S
N307 C310 1.311 1_565 S
C308 N307 1.355 1_545 S
C308 C309 1.363 . S
C308 H320 0.929 1_545 S
C309 C308 1.363 . S
C309 N311 1.375 . S
C309 H327 0.931 . S
C310 N307 1.311 1_545 S
C310 N311 1.347 . S
C310 H321 0.929 . S
N311 C309 1.375 . S
N311 C310 1.347 . S
C312 C315 1.365 . S
C312 N317 1.328 . S
C312 H318 0.929 . S
C313 C314 1.362 . S
C313 C316 1.378 . S
C313 H328 0.929 . S
C314 C313 1.362 . S
C314 C315 1.366 . S
C315 C312 1.365 . S
C315 C314 1.366 . S
C315 H329 0.930 . S
C316 C313 1.378 . S
C316 N317 1.315 . S
C316 H319 0.930 . S
N317 Co297 2.194 . S
N317 C312 1.328 . S
N317 C316 1.315 . S
H318 C312 0.929 . S
H319 C316 0.930 . S
H320 C308 0.929 1_565 S
H321 C310 0.929 . S
O322 Co297 2.351 . S
O322 C325 1.244 . S
O323 Co297 2.155 . S
O323 C325 1.240 . S
O324 Co297 2.096 . S
O324 C305 1.247 . S
C325 O322 1.244 . S
C325 O323 1.240 . S
H326 C300 0.931 . S
H327 C309 0.931 . S
H328 C313 0.929 . S
H329 C315 0.930 . S
Co330 N334 2.148 . S
Co330 N340 2.128 . S
Co330 N350 2.194 . S
Co330 O355 2.351 . S
Co330 O356 2.155 . S
Co330 O357 2.096 . S
C331 N334 1.301 . S
C331 N335 1.328 . S
C331 H336 0.930 . S
C332 C333 1.333 . S
C332 N334 1.317 . S
C332 H337 0.930 . S
C333 C332 1.333 . S
C333 N335 1.350 . S
C333 H359 0.931 . S
N334 Co330 2.148 . S
N334 C331 1.301 . S
N334 C332 1.317 . S
N335 C331 1.328 . S
N335 C333 1.350 . S
H336 C331 0.930 . S
H337 C332 0.930 . S
C338 O339 1.224 . S
C338 O357 1.247 . S
O339 C338 1.224 . S
N340 Co330 2.128 . S
N340 C341 1.355 1_455 S
N340 C343 1.311 1_455 S
C341 N340 1.355 1_655 S
C341 C342 1.363 . S
C341 H353 0.929 1_655 S
C342 C341 1.363 . S
C342 N344 1.375 . S
C342 H360 0.931 . S
C343 N340 1.311 1_655 S
C343 N344 1.347 . S
C343 H354 0.929 . S
N344 C342 1.375 . S
N344 C343 1.347 . S
C345 C348 1.365 . S
C345 N350 1.328 . S
C345 H351 0.929 . S
C346 C347 1.362 . S
C346 C349 1.378 . S
C346 H361 0.929 . S
C347 C346 1.362 . S
C347 C348 1.366 . S
C348 C345 1.365 . S
C348 C347 1.366 . S
C348 H362 0.930 . S
C349 C346 1.378 . S
C349 N350 1.315 . S
C349 H352 0.930 . S
N350 Co330 2.194 . S
N350 C345 1.328 . S
N350 C349 1.315 . S
H351 C345 0.929 . S
H352 C349 0.930 . S
H353 C341 0.929 1_455 S
H354 C343 0.929 . S
O355 Co330 2.351 . S
O355 C358 1.244 . S
O356 Co330 2.155 . S
O356 C358 1.240 . S
O357 Co330 2.096 . S
O357 C338 1.247 . S
C358 O355 1.244 . S
C358 O356 1.240 . S
H359 C333 0.931 . S
H360 C342 0.931 . S
H361 C346 0.929 . S
H362 C348 0.930 . S
Co363 N367 2.148 . S
Co363 N373 2.128 . S
Co363 N383 2.194 . S
Co363 O388 2.351 . S
Co363 O389 2.155 . S
Co363 O390 2.096 . S
C364 N367 1.301 . S
C364 N368 1.328 . S
C364 H369 0.930 . S
C365 C366 1.333 . S
C365 N367 1.317 . S
C365 H370 0.930 . S
C366 C365 1.333 . S
C366 N368 1.350 . S
C366 H392 0.931 . S
N367 Co363 2.148 . S
N367 C364 1.301 . S
N367 C365 1.317 . S
N368 C364 1.328 . S
N368 C366 1.350 . S
H369 C364 0.930 . S
H370 C365 0.930 . S
C371 O372 1.224 . S
C371 O390 1.247 . S
O372 C371 1.224 . S
N373 Co363 2.128 . S
N373 C374 1.355 1_545 S
N373 C376 1.311 1_545 S
C374 N373 1.355 1_565 S
C374 C375 1.363 . S
C374 H386 0.929 1_565 S
C375 C374 1.363 . S
C375 N377 1.375 . S
C375 H393 0.931 . S
C376 N373 1.311 1_565 S
C376 N377 1.347 . S
C376 H387 0.929 . S
N377 C375 1.375 . S
N377 C376 1.347 . S
C378 C381 1.365 . S
C378 N383 1.328 . S
C378 H384 0.929 . S
C379 C380 1.362 . S
C379 C382 1.378 . S
C379 H394 0.929 . S
C380 C379 1.362 . S
C380 C381 1.366 . S
C381 C378 1.365 . S
C381 C380 1.366 . S
C381 H395 0.930 . S
C382 C379 1.378 . S
C382 N383 1.315 . S
C382 H385 0.930 . S
N383 Co363 2.194 . S
N383 C378 1.328 . S
N383 C382 1.315 . S
H384 C378 0.929 . S
H385 C382 0.930 . S
H386 C374 0.929 1_545 S
H387 C376 0.929 . S
O388 Co363 2.351 . S
O388 C391 1.244 . S
O389 Co363 2.155 . S
O389 C391 1.240 . S
O390 Co363 2.096 . S
O390 C371 1.247 . S
C391 O388 1.244 . S
C391 O389 1.240 . S
H392 C366 0.931 . S
H393 C375 0.931 . S
H394 C379 0.929 . S
H395 C381 0.930 . S
Co396 N400 2.148 . S
Co396 N406 2.128 . S
Co396 N416 2.194 . S
Co396 O421 2.351 . S
Co396 O422 2.155 . S
Co396 O423 2.096 . S
C397 N400 1.301 . S
C397 N401 1.328 . S
C397 H402 0.930 . S
C398 C399 1.333 . S
C398 N400 1.317 . S
C398 H403 0.930 . S
C399 C398 1.333 . S
C399 N401 1.350 . S
C399 H425 0.931 . S
N400 Co396 2.148 . S
N400 C397 1.301 . S
N400 C398 1.317 . S
N401 C397 1.328 . S
N401 C399 1.350 . S
H402 C397 0.930 . S
H403 C398 0.930 . S
C404 O405 1.224 . S
C404 O423 1.247 . S
O405 C404 1.224 . S
N406 Co396 2.128 . S
N406 C407 1.355 . S
N406 C409 1.311 . S
C407 N406 1.355 . S
C407 C408 1.363 . S
C407 H419 0.929 . S
C408 C407 1.363 . S
C408 N410 1.375 . S
C408 H426 0.931 . S
C409 N406 1.311 . S
C409 N410 1.347 . S
C409 H420 0.929 . S
N410 C408 1.375 . S
N410 C409 1.347 . S
C411 C414 1.365 . S
C411 N416 1.328 . S
C411 H417 0.929 . S
C412 C413 1.362 . S
C412 C415 1.378 . S
C412 H427 0.929 . S
C413 C412 1.362 . S
C413 C414 1.366 . S
C414 C411 1.365 . S
C414 C413 1.366 . S
C414 H428 0.930 . S
C415 C412 1.378 . S
C415 N416 1.315 . S
C415 H418 0.930 . S
N416 Co396 2.194 . S
N416 C411 1.328 . S
N416 C415 1.315 . S
H417 C411 0.929 . S
H418 C415 0.930 . S
H419 C407 0.929 . S
H420 C409 0.929 . S
O421 Co396 2.351 . S
O421 C424 1.244 . S
O422 Co396 2.155 . S
O422 C424 1.240 . S
O423 Co396 2.096 . S
O423 C404 1.247 . S
C424 O421 1.244 . S
C424 O422 1.240 . S
H425 C399 0.931 . S
H426 C408 0.931 . S
H427 C412 0.929 . S
H428 C414 0.930 . S
Co429 N433 2.148 . S
Co429 N439 2.128 . S
Co429 N449 2.194 . S
Co429 O454 2.351 . S
Co429 O455 2.155 . S
Co429 O456 2.096 . S
C430 N433 1.301 . S
C430 N434 1.328 . S
C430 H435 0.930 . S
C431 C432 1.333 . S
C431 N433 1.317 . S
C431 H436 0.930 . S
C432 C431 1.333 . S
C432 N434 1.350 . S
C432 H458 0.931 . S
N433 Co429 2.148 . S
N433 C430 1.301 . S
N433 C431 1.317 . S
N434 C430 1.328 . S
N434 C432 1.350 . S
H435 C430 0.930 . S
H436 C431 0.930 . S
C437 O438 1.224 . S
C437 O456 1.247 . S
O438 C437 1.224 . S
N439 Co429 2.128 . S
N439 C440 1.355 . S
N439 C442 1.311 . S
C440 N439 1.355 . S
C440 C441 1.363 . S
C440 H452 0.929 . S
C441 C440 1.363 . S
C441 N443 1.375 . S
C441 H459 0.931 . S
C442 N439 1.311 . S
C442 N443 1.347 . S
C442 H453 0.929 . S
N443 C441 1.375 . S
N443 C442 1.347 . S
C444 C447 1.365 . S
C444 N449 1.328 . S
C444 H450 0.929 . S
C445 C446 1.362 . S
C445 C448 1.378 . S
C445 H460 0.929 . S
C446 C445 1.362 . S
C446 C447 1.366 . S
C447 C444 1.365 . S
C447 C446 1.366 . S
C447 H461 0.930 . S
C448 C445 1.378 . S
C448 N449 1.315 . S
C448 H451 0.930 . S
N449 Co429 2.194 . S
N449 C444 1.328 . S
N449 C448 1.315 . S
H450 C444 0.929 . S
H451 C448 0.930 . S
H452 C440 0.929 . S
H453 C442 0.929 . S
O454 Co429 2.351 . S
O454 C457 1.244 . S
O455 Co429 2.155 . S
O455 C457 1.240 . S
O456 Co429 2.096 . S
O456 C437 1.247 . S
C457 O454 1.244 . S
C457 O455 1.240 . S
H458 C432 0.931 . S
H459 C441 0.931 . S
H460 C445 0.929 . S
H461 C447 0.930 . S
Co462 N466 2.148 . S
Co462 N472 2.128 . S
Co462 N482 2.194 . S
Co462 O487 2.351 . S
Co462 O488 2.155 . S
Co462 O489 2.096 . S
C463 N466 1.301 . S
C463 N467 1.328 . S
C463 H468 0.930 . S
C464 C465 1.333 . S
C464 N466 1.317 . S
C464 H469 0.930 . S
C465 C464 1.333 . S
C465 N467 1.350 . S
C465 H491 0.931 . S
N466 Co462 2.148 . S
N466 C463 1.301 . S
N466 C464 1.317 . S
N467 C463 1.328 . S
N467 C465 1.350 . S
H468 C463 0.930 . S
H469 C464 0.930 . S
C470 O471 1.224 . S
C470 O489 1.247 . S
O471 C470 1.224 . S
N472 Co462 2.128 . S
N472 C473 1.355 . S
N472 C475 1.311 . S
C473 N472 1.355 . S
C473 C474 1.363 . S
C473 H485 0.929 . S
C474 C473 1.363 . S
C474 N476 1.375 . S
C474 H492 0.931 . S
C475 N472 1.311 . S
C475 N476 1.347 . S
C475 H486 0.929 . S
N476 C474 1.375 . S
N476 C475 1.347 . S
C477 C480 1.365 . S
C477 N482 1.328 . S
C477 H483 0.929 . S
C478 C479 1.362 . S
C478 C481 1.378 . S
C478 H493 0.929 . S
C479 C478 1.362 . S
C479 C480 1.366 . S
C480 C477 1.365 . S
C480 C479 1.366 . S
C480 H494 0.930 . S
C481 C478 1.378 . S
C481 N482 1.315 . S
C481 H484 0.930 . S
N482 Co462 2.194 . S
N482 C477 1.328 . S
N482 C481 1.315 . S
H483 C477 0.929 . S
H484 C481 0.930 . S
H485 C473 0.929 . S
H486 C475 0.929 . S
O487 Co462 2.351 . S
O487 C490 1.244 . S
O488 Co462 2.155 . S
O488 C490 1.240 . S
O489 Co462 2.096 . S
O489 C470 1.247 . S
C490 O487 1.244 . S
C490 O488 1.240 . S
H491 C465 0.931 . S
H492 C474 0.931 . S
H493 C478 0.929 . S
H494 C480 0.930 . S
Co495 N499 2.148 . S
Co495 N505 2.128 . S
Co495 N515 2.194 . S
Co495 O520 2.351 . S
Co495 O521 2.155 . S
Co495 O522 2.096 . S
C496 N499 1.301 . S
C496 N500 1.328 . S
C496 H501 0.930 . S
C497 C498 1.333 . S
C497 N499 1.317 . S
C497 H502 0.930 . S
C498 C497 1.333 . S
C498 N500 1.350 . S
C498 H524 0.931 . S
N499 Co495 2.148 . S
N499 C496 1.301 . S
N499 C497 1.317 . S
N500 C496 1.328 . S
N500 C498 1.350 . S
H501 C496 0.930 . S
H502 C497 0.930 . S
C503 O504 1.224 . S
C503 O522 1.247 . S
O504 C503 1.224 . S
N505 Co495 2.128 . S
N505 C506 1.355 . S
N505 C508 1.311 . S
C506 N505 1.355 . S
C506 C507 1.363 . S
C506 H518 0.929 . S
C507 C506 1.363 . S
C507 N509 1.375 . S
C507 H525 0.931 . S
C508 N505 1.311 . S
C508 N509 1.347 . S
C508 H519 0.929 . S
N509 C507 1.375 . S
N509 C508 1.347 . S
C510 C513 1.365 . S
C510 N515 1.328 . S
C510 H516 0.929 . S
C511 C512 1.362 . S
C511 C514 1.378 . S
C511 H526 0.929 . S
C512 C511 1.362 . S
C512 C513 1.366 . S
C513 C510 1.365 . S
C513 C512 1.366 . S
C513 H527 0.930 . S
C514 C511 1.378 . S
C514 N515 1.315 . S
C514 H517 0.930 . S
N515 Co495 2.194 . S
N515 C510 1.328 . S
N515 C514 1.315 . S
H516 C510 0.929 . S
H517 C514 0.930 . S
H518 C506 0.929 . S
H519 C508 0.929 . S
O520 Co495 2.351 . S
O520 C523 1.244 . S
O521 Co495 2.155 . S
O521 C523 1.240 . S
O522 Co495 2.096 . S
O522 C503 1.247 . S
C523 O520 1.244 . S
C523 O521 1.240 . S
H524 C498 0.931 . S
H525 C507 0.931 . S
H526 C511 0.929 . S
H527 C513 0.930 . S
H528 C536 0.950 . S
H529 C541 0.950 . S
H530 C538 0.950 . S
H531 C540 0.950 . S
H532 C542 0.950 . S
H533 C544 0.950 . S
H534 C546 0.950 . S
H535 C547 0.950 . S
C536 H528 0.950 . S
C536 C537 1.386 . S
C536 C538 1.391 . S
C537 C536 1.386 . S
C537 C541 1.393 1_455 S
C538 H530 0.950 . S
C538 C536 1.391 . S
C538 C539 1.400 . S
C539 C538 1.400 . S
C539 C540 1.398 1_455 S
C539 C545 1.491 1_445 S
C540 H531 0.950 . S
C540 C539 1.398 1_655 S
C540 C541 1.391 . S
C541 H529 0.950 . S
C541 C537 1.393 1_655 S
C541 C540 1.391 . S
C542 H532 0.950 . S
C542 C543 1.386 . S
C542 C544 1.391 . S
C543 C542 1.386 . S
C543 C547 1.393 1_655 S
C544 H533 0.950 . S
C544 C542 1.391 . S
C544 C545 1.400 . S
C545 C539 1.491 1_665 S
C545 C544 1.400 . S
C545 C546 1.398 1_655 S
C546 H534 0.950 . S
C546 C545 1.398 1_455 S
C546 C547 1.391 . S
C547 H535 0.950 . S
C547 C543 1.393 1_455 S
C547 C546 1.391 . S
H548 C556 0.950 . S
H549 C561 0.950 . S
H550 C558 0.950 . S
H551 C560 0.950 . S
H552 C562 0.950 . S
H553 C564 0.950 . S
H554 C566 0.950 . S
H555 C567 0.950 . S
C556 H548 0.950 . S
C556 C557 1.386 . S
C556 C558 1.391 1_565 S
C557 C556 1.386 . S
C557 C561 1.393 . S
C558 H550 0.950 . S
C558 C556 1.391 1_545 S
C558 C559 1.400 1_545 S
C559 C558 1.400 1_565 S
C559 C560 1.398 . S
C559 C565 1.491 1_465 S
C560 H551 0.950 . S
C560 C559 1.398 . S
C560 C561 1.391 . S
C561 H549 0.950 . S
C561 C557 1.393 . S
C561 C560 1.391 . S
C562 H552 0.950 . S
C562 C563 1.386 . S
C562 C564 1.391 1_545 S
C563 C562 1.386 . S
C563 C567 1.393 . S
C564 H553 0.950 . S
C564 C562 1.391 1_565 S
C564 C565 1.400 1_565 S
C565 C559 1.491 1_645 S
C565 C564 1.400 1_545 S
C565 C566 1.398 . S
C566 H554 0.950 . S
C566 C565 1.398 . S
C566 C567 1.391 . S
C567 H555 0.950 . S
C567 C563 1.393 . S
C567 C566 1.391 . S
H568 C576 0.950 . S
H569 C581 0.950 . S
H570 C578 0.950 . S
H571 C580 0.950 . S
H572 C582 0.950 . S
H573 C584 0.950 . S
H574 C586 0.950 . S
H575 C587 0.950 . S
C576 H568 0.950 . S
C576 C577 1.386 . S
C576 C578 1.391 . S
C577 C576 1.386 . S
C577 C581 1.393 . S
C578 H570 0.950 . S
C578 C576 1.391 . S
C578 C579 1.400 . S
C579 C578 1.400 . S
C579 C580 1.398 . S
C579 C585 1.491 . S
C580 H571 0.950 . S
C580 C579 1.398 . S
C580 C581 1.391 . S
C581 H569 0.950 . S
C581 C577 1.393 . S
C581 C580 1.391 . S
C582 H572 0.950 . S
C582 C583 1.386 . S
C582 C584 1.391 . S
C583 C582 1.386 . S
C583 C587 1.393 . S
C584 H573 0.950 . S
C584 C582 1.391 . S
C584 C585 1.400 . S
C585 C579 1.491 . S
C585 C584 1.400 . S
C585 C586 1.398 . S
C586 H574 0.950 . S
C586 C585 1.398 . S
C586 C587 1.391 . S
C587 H575 0.950 . S
C587 C583 1.393 . S
C587 C586 1.391 . S
H588 C596 0.950 . S
H589 C601 0.950 . S
H590 C598 0.950 . S
H591 C600 0.950 . S
H592 C602 0.950 . S
H593 C604 0.950 . S
H594 C606 0.950 . S
H595 C607 0.950 . S
C596 H588 0.950 . S
C596 C597 1.386 . S
C596 C598 1.391 . S
C597 C596 1.386 . S
C597 C601 1.393 . S
C598 H590 0.950 . S
C598 C596 1.391 . S
C598 C599 1.400 . S
C599 C598 1.400 . S
C599 C600 1.398 . S
C599 C605 1.491 . S
C600 H591 0.950 . S
C600 C599 1.398 . S
C600 C601 1.391 . S
C601 H589 0.950 . S
C601 C597 1.393 . S
C601 C600 1.391 . S
C602 H592 0.950 . S
C602 C603 1.386 . S
C602 C604 1.391 . S
C603 C602 1.386 . S
C603 C607 1.393 . S
C604 H593 0.950 . S
C604 C602 1.391 . S
C604 C605 1.400 . S
C605 C599 1.491 . S
C605 C604 1.400 . S
C605 C606 1.398 . S
C606 H594 0.950 . S
C606 C605 1.398 . S
C606 C607 1.391 . S
C607 H595 0.950 . S
C607 C603 1.393 . S
C607 C606 1.391 . S
H608 C616 0.950 . S
H609 C621 0.950 . S
H610 C618 0.950 . S
H611 C620 0.950 1_655 S
H612 C622 0.950 . S
H613 C624 0.950 . S
H614 C626 0.950 1_455 S
H615 C627 0.950 . S
C616 H608 0.950 . S
C616 C617 1.386 . S
C616 C618 1.391 . S
C617 C616 1.386 . S
C617 C621 1.393 . S
C618 H610 0.950 . S
C618 C616 1.391 . S
C618 C619 1.400 . S
C619 C618 1.400 . S
C619 C620 1.398 . S
C619 C625 1.491 1_445 S
C620 H611 0.950 1_455 S
C620 C619 1.398 . S
C620 C621 1.391 . S
C621 H609 0.950 . S
C621 C617 1.393 . S
C621 C620 1.391 . S
C622 H612 0.950 . S
C622 C623 1.386 . S
C622 C624 1.391 . S
C623 C622 1.386 . S
C623 C627 1.393 . S
C624 H613 0.950 . S
C624 C622 1.391 . S
C624 C625 1.400 . S
C625 C619 1.491 1_665 S
C625 C624 1.400 . S
C625 C626 1.398 . S
C626 H614 0.950 1_655 S
C626 C625 1.398 . S
C626 C627 1.391 . S
C627 H615 0.950 . S
C627 C623 1.393 . S
C627 C626 1.391 . S
H628 C636 0.950 . S
H629 C641 0.950 . S
H630 C638 0.950 . S
H631 C640 0.950 . S
H632 C642 0.950 . S
H633 C644 0.950 . S
H634 C646 0.950 . S
H635 C647 0.950 . S
C636 H628 0.950 . S
C636 C637 1.386 . S
C636 C638 1.391 . S
C637 C636 1.386 . S
C637 C641 1.393 . S
C638 H630 0.950 . S
C638 C636 1.391 . S
C638 C639 1.400 . S
C639 C638 1.400 . S
C639 C640 1.398 1_565 S
C639 C645 1.491 1_465 S
C640 H631 0.950 . S
C640 C639 1.398 1_545 S
C640 C641 1.391 1_545 S
C641 H629 0.950 . S
C641 C637 1.393 . S
C641 C640 1.391 1_565 S
C642 H632 0.950 . S
C642 C643 1.386 . S
C642 C644 1.391 . S
C643 C642 1.386 . S
C643 C647 1.393 . S
C644 H633 0.950 . S
C644 C642 1.391 . S
C644 C645 1.400 . S
C645 C639 1.491 1_645 S
C645 C644 1.400 . S
C645 C646 1.398 1_545 S
C646 H634 0.950 . S
C646 C645 1.398 1_565 S
C646 C647 1.391 1_565 S
C647 H635 0.950 . S
C647 C643 1.393 . S
C647 C646 1.391 1_545 S
H648 C656 0.950 . S
H649 C661 0.950 . S
H650 C658 0.950 . S
H651 C660 0.950 . S
H652 C662 0.950 . S
H653 C664 0.950 . S
H654 C666 0.950 . S
H655 C667 0.950 . S
C656 H648 0.950 . S
C656 C657 1.386 . S
C656 C658 1.391 . S
C657 C656 1.386 . S
C657 C661 1.393 . S
C658 H650 0.950 . S
C658 C656 1.391 . S
C658 C659 1.400 . S
C659 C658 1.400 . S
C659 C660 1.398 . S
C659 C665 1.491 . S
C660 H651 0.950 . S
C660 C659 1.398 . S
C660 C661 1.391 . S
C661 H649 0.950 . S
C661 C657 1.393 . S
C661 C660 1.391 . S
C662 H652 0.950 . S
C662 C663 1.386 . S
C662 C664 1.391 . S
C663 C662 1.386 . S
C663 C667 1.393 . S
C664 H653 0.950 . S
C664 C662 1.391 . S
C664 C665 1.400 . S
C665 C659 1.491 . S
C665 C664 1.400 . S
C665 C666 1.398 . S
C666 H654 0.950 . S
C666 C665 1.398 . S
C666 C667 1.391 . S
C667 H655 0.950 . S
C667 C663 1.393 . S
C667 C666 1.391 . S
H668 C676 0.950 . S
H669 C681 0.950 . S
H670 C678 0.950 . S
H671 C680 0.950 . S
H672 C682 0.950 . S
H673 C684 0.950 . S
H674 C686 0.950 . S
H675 C687 0.950 . S
C676 H668 0.950 . S
C676 C677 1.386 . S
C676 C678 1.391 . S
C677 C676 1.386 . S
C677 C681 1.393 . S
C678 H670 0.950 . S
C678 C676 1.391 . S
C678 C679 1.400 . S
C679 C678 1.400 . S
C679 C680 1.398 . S
C679 C685 1.491 . S
C680 H671 0.950 . S
C680 C679 1.398 . S
C680 C681 1.391 . S
C681 H669 0.950 . S
C681 C677 1.393 . S
C681 C680 1.391 . S
C682 H672 0.950 . S
C682 C683 1.386 . S
C682 C684 1.391 . S
C683 C682 1.386 . S
C683 C687 1.393 . S
C684 H673 0.950 . S
C684 C682 1.391 . S
C684 C685 1.400 . S
C685 C679 1.491 . S
C685 C684 1.400 . S
C685 C686 1.398 . S
C686 H674 0.950 . S
C686 C685 1.398 . S
C686 C687 1.391 . S
C687 H675 0.950 . S
C687 C683 1.393 . S
C687 C686 1.391 . S
H688 C696 0.950 . S
H689 C701 0.950 . S
H690 C698 0.950 . S
H691 C700 0.950 . S
H692 C702 0.950 . S
H693 C704 0.950 . S
H694 C706 0.950 . S
H695 C707 0.950 . S
C696 H688 0.950 . S
C696 C697 1.386 . S
C696 C698 1.391 . S
C697 C696 1.386 . S
C697 C701 1.393 . S
C698 H690 0.950 . S
C698 C696 1.391 . S
C698 C699 1.400 . S
C699 C698 1.400 . S
C699 C700 1.398 . S
C699 C705 1.491 1_554 S
C700 H691 0.950 . S
C700 C699 1.398 . S
C700 C701 1.391 . S
C701 H689 0.950 . S
C701 C697 1.393 . S
C701 C700 1.391 . S
C702 H692 0.950 . S
C702 C703 1.386 . S
C702 C704 1.391 . S
C703 C702 1.386 . S
C703 C707 1.393 . S
C704 H693 0.950 . S
C704 C702 1.391 . S
C704 C705 1.400 . S
C705 C699 1.491 1_556 S
C705 C704 1.400 . S
C705 C706 1.398 . S
C706 H694 0.950 . S
C706 C705 1.398 . S
C706 C707 1.391 . S
C707 H695 0.950 . S
C707 C703 1.393 . S
C707 C706 1.391 . S
H708 C716 0.950 . S
H709 C721 0.950 . S
H710 C718 0.950 . S
H711 C720 0.950 . S
H712 C722 0.950 . S
H713 C724 0.950 . S
H714 C726 0.950 . S
H715 C727 0.950 . S
C716 H708 0.950 . S
C716 C717 1.386 . S
C716 C718 1.391 . S
C717 C716 1.386 . S
C717 C721 1.393 . S
C718 H710 0.950 . S
C718 C716 1.391 . S
C718 C719 1.400 . S
C719 C718 1.400 . S
C719 C720 1.398 . S
C719 C725 1.491 . S
C720 H711 0.950 . S
C720 C719 1.398 . S
C720 C721 1.391 . S
C721 H709 0.950 . S
C721 C717 1.393 . S
C721 C720 1.391 . S
C722 H712 0.950 . S
C722 C723 1.386 . S
C722 C724 1.391 . S
C723 C722 1.386 . S
C723 C727 1.393 . S
C724 H713 0.950 . S
C724 C722 1.391 . S
C724 C725 1.400 . S
C725 C719 1.491 . S
C725 C724 1.400 . S
C725 C726 1.398 . S
C726 H714 0.950 . S
C726 C725 1.398 . S
C726 C727 1.391 . S
C727 H715 0.950 . S
C727 C723 1.393 . S
C727 C726 1.391 . S
H728 C736 0.950 . S
H729 C741 0.950 . S
H730 C738 0.950 . S
H731 C740 0.950 . S
H732 C742 0.950 . S
H733 C744 0.950 . S
H734 C746 0.950 . S
H735 C747 0.950 . S
C736 H728 0.950 . S
C736 C737 1.386 . S
C736 C738 1.391 . S
C737 C736 1.386 . S
C737 C741 1.393 . S
C738 H730 0.950 . S
C738 C736 1.391 . S
C738 C739 1.400 . S
C739 C738 1.400 . S
C739 C740 1.398 . S
C739 C745 1.491 1_556 S
C740 H731 0.950 . S
C740 C739 1.398 . S
C740 C741 1.391 . S
C741 H729 0.950 . S
C741 C737 1.393 . S
C741 C740 1.391 . S
C742 H732 0.950 . S
C742 C743 1.386 . S
C742 C744 1.391 . S
C743 C742 1.386 . S
C743 C747 1.393 . S
C744 H733 0.950 . S
C744 C742 1.391 . S
C744 C745 1.400 . S
C745 C739 1.491 1_554 S
C745 C744 1.400 . S
C745 C746 1.398 . S
C746 H734 0.950 . S
C746 C745 1.398 . S
C746 C747 1.391 . S
C747 H735 0.950 . S
C747 C743 1.393 . S
C747 C746 1.391 . S
H748 C756 0.950 . S
H749 C761 0.950 . S
H750 C758 0.950 . S
H751 C760 0.950 . S
H752 C762 0.950 . S
H753 C764 0.950 . S
H754 C766 0.950 . S
H755 C767 0.950 . S
C756 H748 0.950 . S
C756 C757 1.386 . S
C756 C758 1.391 . S
C757 C756 1.386 . S
C757 C761 1.393 . S
C758 H750 0.950 . S
C758 C756 1.391 . S
C758 C759 1.400 . S
C759 C758 1.400 . S
C759 C760 1.398 . S
C759 C765 1.491 . S
C760 H751 0.950 . S
C760 C759 1.398 . S
C760 C761 1.391 . S
C761 H749 0.950 . S
C761 C757 1.393 . S
C761 C760 1.391 . S
C762 H752 0.950 . S
C762 C763 1.386 . S
C762 C764 1.391 . S
C763 C762 1.386 . S
C763 C767 1.393 . S
C764 H753 0.950 . S
C764 C762 1.391 . S
C764 C765 1.400 . S
C765 C759 1.491 . S
C765 C764 1.400 . S
C765 C766 1.398 . S
C766 H754 0.950 . S
C766 C765 1.398 . S
C766 C767 1.391 . S
C767 H755 0.950 . S
C767 C763 1.393 . S
C767 C766 1.391 . S
H768 C776 0.950 . S
H769 C781 0.950 . S
H770 C778 0.950 . S
H771 C780 0.950 . S
H772 C782 0.950 . S
H773 C784 0.950 . S
H774 C786 0.950 . S
H775 C787 0.950 . S
C776 H768 0.950 . S
C776 C777 1.386 . S
C776 C778 1.391 . S
C777 C776 1.386 . S
C777 C781 1.393 . S
C778 H770 0.950 . S
C778 C776 1.391 . S
C778 C779 1.400 . S
C779 C778 1.400 . S
C779 C780 1.398 . S
C779 C785 1.491 1_554 S
C780 H771 0.950 . S
C780 C779 1.398 . S
C780 C781 1.391 . S
C781 H769 0.950 . S
C781 C777 1.393 . S
C781 C780 1.391 . S
C782 H772 0.950 . S
C782 C783 1.386 . S
C782 C784 1.391 . S
C783 C782 1.386 . S
C783 C787 1.393 . S
C784 H773 0.950 . S
C784 C782 1.391 . S
C784 C785 1.400 . S
C785 C779 1.491 1_556 S
C785 C784 1.400 . S
C785 C786 1.398 . S
C786 H774 0.950 . S
C786 C785 1.398 . S
C786 C787 1.391 . S
C787 H775 0.950 . S
C787 C783 1.393 . S
C787 C786 1.391 . S
H788 C796 0.950 . S
H789 C801 0.950 . S
H790 C798 0.950 . S
H791 C800 0.950 . S
H792 C802 0.950 . S
H793 C804 0.950 . S
H794 C806 0.950 . S
H795 C807 0.950 . S
C796 H788 0.950 . S
C796 C797 1.386 . S
C796 C798 1.391 . S
C797 C796 1.386 . S
C797 C801 1.393 . S
C798 H790 0.950 . S
C798 C796 1.391 . S
C798 C799 1.400 . S
C799 C798 1.400 . S
C799 C800 1.398 . S
C799 C805 1.491 . S
C800 H791 0.950 . S
C800 C799 1.398 . S
C800 C801 1.391 . S
C801 H789 0.950 . S
C801 C797 1.393 . S
C801 C800 1.391 . S
C802 H792 0.950 . S
C802 C803 1.386 . S
C802 C804 1.391 . S
C803 C802 1.386 . S
C803 C807 1.393 . S
C804 H793 0.950 . S
C804 C802 1.391 . S
C804 C805 1.400 . S
C805 C799 1.491 . S
C805 C804 1.400 . S
C805 C806 1.398 . S
C806 H794 0.950 . S
C806 C805 1.398 . S
C806 C807 1.391 . S
C807 H795 0.950 . S
C807 C803 1.393 . S
C807 C806 1.391 . S
H808 C816 0.950 . S
H809 C821 0.950 . S
H810 C818 0.950 . S
H811 C820 0.950 . S
H812 C822 0.950 . S
H813 C824 0.950 . S
H814 C826 0.950 . S
H815 C827 0.950 . S
C816 H808 0.950 . S
C816 C817 1.386 . S
C816 C818 1.391 . S
C817 C816 1.386 . S
C817 C821 1.393 . S
C818 H810 0.950 . S
C818 C816 1.391 . S
C818 C819 1.400 . S
C819 C818 1.400 . S
C819 C820 1.398 . S
C819 C825 1.491 1_554 S
C820 H811 0.950 . S
C820 C819 1.398 . S
C820 C821 1.391 . S
C821 H809 0.950 . S
C821 C817 1.393 . S
C821 C820 1.391 . S
C822 H812 0.950 . S
C822 C823 1.386 . S
C822 C824 1.391 . S
C823 C822 1.386 . S
C823 C827 1.393 . S
C824 H813 0.950 . S
C824 C822 1.391 . S
C824 C825 1.400 . S
C825 C819 1.491 1_556 S
C825 C824 1.400 . S
C825 C826 1.398 . S
C826 H814 0.950 . S
C826 C825 1.398 . S
C826 C827 1.391 . S
C827 H815 0.950 . S
C827 C823 1.393 . S
C827 C826 1.391 . S
H828 C836 0.950 . S
H829 C841 0.950 . S
H830 C838 0.950 . S
H831 C840 0.950 . S
H832 C842 0.950 . S
H833 C844 0.950 . S
H834 C846 0.950 . S
H835 C847 0.950 . S
C836 H828 0.950 . S
C836 C837 1.386 . S
C836 C838 1.391 . S
C837 C836 1.386 . S
C837 C841 1.393 . S
C838 H830 0.950 . S
C838 C836 1.391 . S
C838 C839 1.400 . S
C839 C838 1.400 . S
C839 C840 1.398 . S
C839 C845 1.491 . S
C840 H831 0.950 . S
C840 C839 1.398 . S
C840 C841 1.391 . S
C841 H829 0.950 . S
C841 C837 1.393 . S
C841 C840 1.391 . S
C842 H832 0.950 . S
C842 C843 1.386 . S
C842 C844 1.391 . S
C843 C842 1.386 . S
C843 C847 1.393 . S
C844 H833 0.950 . S
C844 C842 1.391 . S
C844 C845 1.400 . S
C845 C839 1.491 . S
C845 C844 1.400 . S
C845 C846 1.398 . S
C846 H834 0.950 . S
C846 C845 1.398 . S
C846 C847 1.391 . S
C847 H835 0.950 . S
C847 C843 1.393 . S
C847 C846 1.391 . S
H848 C856 0.950 . S
H849 C861 0.950 . S
H850 C858 0.950 . S
H851 C860 0.950 . S
H852 C862 0.950 . S
H853 C864 0.950 . S
H854 C866 0.950 . S
H855 C867 0.950 . S
C856 H848 0.950 . S
C856 C857 1.386 . S
C856 C858 1.391 . S
C857 C856 1.386 . S
C857 C861 1.393 . S
C858 H850 0.950 . S
C858 C856 1.391 . S
C858 C859 1.400 . S
C859 C858 1.400 . S
C859 C860 1.398 . S
C859 C865 1.491 . S
C860 H851 0.950 . S
C860 C859 1.398 . S
C860 C861 1.391 . S
C861 H849 0.950 . S
C861 C857 1.393 . S
C861 C860 1.391 . S
C862 H852 0.950 . S
C862 C863 1.386 . S
C862 C864 1.391 . S
C863 C862 1.386 . S
C863 C867 1.393 . S
C864 H853 0.950 . S
C864 C862 1.391 . S
C864 C865 1.400 . S
C865 C859 1.491 . S
C865 C864 1.400 . S
C865 C866 1.398 . S
C866 H854 0.950 . S
C866 C865 1.398 . S
C866 C867 1.391 . S
C867 H855 0.950 . S
C867 C863 1.393 . S
C867 C866 1.391 . S
H868 C876 0.950 . S
H869 C881 0.950 . S
H870 C878 0.950 . S
H871 C880 0.950 . S
H872 C882 0.950 . S
H873 C884 0.950 . S
H874 C886 0.950 . S
H875 C887 0.950 . S
C876 H868 0.950 . S
C876 C877 1.386 . S
C876 C878 1.391 . S
C877 C876 1.386 . S
C877 C881 1.393 . S
C878 H870 0.950 . S
C878 C876 1.391 . S
C878 C879 1.400 . S
C879 C878 1.400 . S
C879 C880 1.398 . S
C879 C885 1.491 . S
C880 H871 0.950 . S
C880 C879 1.398 . S
C880 C881 1.391 . S
C881 H869 0.950 . S
C881 C877 1.393 . S
C881 C880 1.391 . S
C882 H872 0.950 . S
C882 C883 1.386 . S
C882 C884 1.391 . S
C883 C882 1.386 . S
C883 C887 1.393 . S
C884 H873 0.950 . S
C884 C882 1.391 . S
C884 C885 1.400 . S
C885 C879 1.491 . S
C885 C884 1.400 . S
C885 C886 1.398 . S
C886 H874 0.950 . S
C886 C885 1.398 . S
C886 C887 1.391 . S
C887 H875 0.950 . S
C887 C883 1.393 . S
C887 C886 1.391 . S
H888 C896 0.950 . S
H889 C901 0.950 . S
H890 C898 0.950 . S
H891 C900 0.950 . S
H892 C902 0.950 . S
H893 C904 0.950 . S
H894 C906 0.950 . S
H895 C907 0.950 . S
C896 H888 0.950 . S
C896 C897 1.386 . S
C896 C898 1.391 . S
C897 C896 1.386 . S
C897 C901 1.393 . S
C898 H890 0.950 . S
C898 C896 1.391 . S
C898 C899 1.400 . S
C899 C898 1.400 . S
C899 C900 1.398 . S
C899 C905 1.491 . S
C900 H891 0.950 . S
C900 C899 1.398 . S
C900 C901 1.391 . S
C901 H889 0.950 . S
C901 C897 1.393 . S
C901 C900 1.391 . S
C902 H892 0.950 . S
C902 C903 1.386 . S
C902 C904 1.391 . S
C903 C902 1.386 . S
C903 C907 1.393 . S
C904 H893 0.950 . S
C904 C902 1.391 . S
C904 C905 1.400 . S
C905 C899 1.491 . S
C905 C904 1.400 . S
C905 C906 1.398 . S
C906 H894 0.950 . S
C906 C905 1.398 . S
C906 C907 1.391 . S
C907 H895 0.950 . S
C907 C903 1.393 . S
C907 C906 1.391 . S
H908 C916 0.950 . S
H909 C921 0.950 . S
H910 C918 0.950 . S
H911 C920 0.950 . S
H912 C922 0.950 . S
H913 C924 0.950 . S
H914 C926 0.950 . S
H915 C927 0.950 . S
C916 H908 0.950 . S
C916 C917 1.386 . S
C916 C918 1.391 . S
C917 C916 1.386 . S
C917 C921 1.393 . S
C918 H910 0.950 . S
C918 C916 1.391 . S
C918 C919 1.400 . S
C919 C918 1.400 . S
C919 C920 1.398 . S
C919 C925 1.491 . S
C920 H911 0.950 . S
C920 C919 1.398 . S
C920 C921 1.391 . S
C921 H909 0.950 . S
C921 C917 1.393 . S
C921 C920 1.391 . S
C922 H912 0.950 . S
C922 C923 1.386 . S
C922 C924 1.391 . S
C923 C922 1.386 . S
C923 C927 1.393 . S
C924 H913 0.950 . S
C924 C922 1.391 . S
C924 C925 1.400 . S
C925 C919 1.491 . S
C925 C924 1.400 . S
C925 C926 1.398 . S
C926 H914 0.950 . S
C926 C925 1.398 . S
C926 C927 1.391 . S
C927 H915 0.950 . S
C927 C923 1.393 . S
C927 C926 1.391 . S
H928 C936 0.950 . S
H929 C941 0.950 . S
H930 C938 0.950 . S
H931 C940 0.950 . S
H932 C942 0.950 . S
H933 C944 0.950 . S
H934 C946 0.950 . S
H935 C947 0.950 . S
C936 H928 0.950 . S
C936 C937 1.386 . S
C936 C938 1.391 . S
C937 C936 1.386 . S
C937 C941 1.393 . S
C938 H930 0.950 . S
C938 C936 1.391 . S
C938 C939 1.400 . S
C939 C938 1.400 . S
C939 C940 1.398 . S
C939 C945 1.491 . S
C940 H931 0.950 . S
C940 C939 1.398 . S
C940 C941 1.391 . S
C941 H929 0.950 . S
C941 C937 1.393 . S
C941 C940 1.391 . S
C942 H932 0.950 . S
C942 C943 1.386 . S
C942 C944 1.391 . S
C943 C942 1.386 . S
C943 C947 1.393 . S
C944 H933 0.950 . S
C944 C942 1.391 . S
C944 C945 1.400 . S
C945 C939 1.491 . S
C945 C944 1.400 . S
C945 C946 1.398 . S
C946 H934 0.950 . S
C946 C945 1.398 . S
C946 C947 1.391 . S
C947 H935 0.950 . S
C947 C943 1.393 . S
C947 C946 1.391 . S
H948 C956 0.950 . S
H949 C961 0.950 . S
H950 C958 0.950 . S
H951 C960 0.950 . S
H952 C962 0.950 . S
H953 C964 0.950 . S
H954 C966 0.950 . S
H955 C967 0.950 . S
C956 H948 0.950 . S
C956 C957 1.386 . S
C956 C958 1.391 . S
C957 C956 1.386 . S
C957 C961 1.393 . S
C958 H950 0.950 . S
C958 C956 1.391 . S
C958 C959 1.400 . S
C959 C958 1.400 . S
C959 C960 1.398 . S
C959 C965 1.491 . S
C960 H951 0.950 . S
C960 C959 1.398 . S
C960 C961 1.391 . S
C961 H949 0.950 . S
C961 C957 1.393 . S
C961 C960 1.391 . S
C962 H952 0.950 . S
C962 C963 1.386 . S
C962 C964 1.391 . S
C963 C962 1.386 . S
C963 C967 1.393 . S
C964 H953 0.950 . S
C964 C962 1.391 . S
C964 C965 1.400 . S
C965 C959 1.491 . S
C965 C964 1.400 . S
C965 C966 1.398 . S
C966 H954 0.950 . S
C966 C965 1.398 . S
C966 C967 1.391 . S
C967 H955 0.950 . S
C967 C963 1.393 . S
C967 C966 1.391 . S
H968 C976 0.950 . S
H969 C981 0.950 . S
H970 C978 0.950 . S
H971 C980 0.950 . S
H972 C982 0.950 . S
H973 C984 0.950 . S
H974 C986 0.950 . S
H975 C987 0.950 . S
C976 H968 0.950 . S
C976 C977 1.386 . S
C976 C978 1.391 . S
C977 C976 1.386 . S
C977 C981 1.393 . S
C978 H970 0.950 . S
C978 C976 1.391 . S
C978 C979 1.400 . S
C979 C978 1.400 . S
C979 C980 1.398 . S
C979 C985 1.491 . S
C980 H971 0.950 . S
C980 C979 1.398 . S
C980 C981 1.391 . S
C981 H969 0.950 . S
C981 C977 1.393 . S
C981 C980 1.391 . S
C982 H972 0.950 . S
C982 C983 1.386 . S
C982 C984 1.391 . S
C983 C982 1.386 . S
C983 C987 1.393 . S
C984 H973 0.950 . S
C984 C982 1.391 . S
C984 C985 1.400 . S
C985 C979 1.491 . S
C985 C984 1.400 . S
C985 C986 1.398 . S
C986 H974 0.950 . S
C986 C985 1.398 . S
C986 C987 1.391 . S
C987 H975 0.950 . S
C987 C983 1.393 . S
C987 C986 1.391 . S
H988 C996 0.950 . S
H989 C1001 0.950 . S
H990 C998 0.950 . S
H991 C1000 0.950 . S
H992 C1002 0.950 . S
H993 C1004 0.950 . S
H994 C1006 0.950 . S
H995 C1007 0.950 . S
C996 H988 0.950 . S
C996 C997 1.386 . S
C996 C998 1.391 . S
C997 C996 1.386 . S
C997 C1001 1.393 . S
C998 H990 0.950 . S
C998 C996 1.391 . S
C998 C999 1.400 . S
C999 C998 1.400 . S
C999 C1000 1.398 . S
C999 C1005 1.491 . S
C1000 H991 0.950 . S
C1000 C999 1.398 . S
C1000 C1001 1.391 . S
C1001 H989 0.950 . S
C1001 C997 1.393 . S
C1001 C1000 1.391 . S
C1002 H992 0.950 . S
C1002 C1003 1.386 . S
C1002 C1004 1.391 . S
C1003 C1002 1.386 . S
C1003 C1007 1.393 . S
C1004 H993 0.950 . S
C1004 C1002 1.391 . S
C1004 C1005 1.400 . S
C1005 C999 1.491 . S
C1005 C1004 1.400 . S
C1005 C1006 1.398 . S
C1006 H994 0.950 . S
C1006 C1005 1.398 . S
C1006 C1007 1.391 . S
C1007 H995 0.950 . S
C1007 C1003 1.393 . S
C1007 C1006 1.391 . S
H1008 C1016 0.950 . S
H1009 C1021 0.950 . S
H1010 C1018 0.950 . S
H1011 C1020 0.950 . S
H1012 C1022 0.950 . S
H1013 C1024 0.950 . S
H1014 C1026 0.950 . S
H1015 C1027 0.950 . S
C1016 H1008 0.950 . S
C1016 C1017 1.386 . S
C1016 C1018 1.391 . S
C1017 C1016 1.386 . S
C1017 C1021 1.393 . S
C1018 H1010 0.950 . S
C1018 C1016 1.391 . S
C1018 C1019 1.400 . S
C1019 C1018 1.400 . S
C1019 C1020 1.398 . S
C1019 C1025 1.491 . S
C1020 H1011 0.950 . S
C1020 C1019 1.398 . S
C1020 C1021 1.391 . S
C1021 H1009 0.950 . S
C1021 C1017 1.393 . S
C1021 C1020 1.391 . S
C1022 H1012 0.950 . S
C1022 C1023 1.386 . S
C1022 C1024 1.391 . S
C1023 C1022 1.386 . S
C1023 C1027 1.393 . S
C1024 H1013 0.950 . S
C1024 C1022 1.391 . S
C1024 C1025 1.400 . S
C1025 C1019 1.491 . S
C1025 C1024 1.400 . S
C1025 C1026 1.398 . S
C1026 H1014 0.950 . S
C1026 C1025 1.398 . S
C1026 C1027 1.391 . S
C1027 H1015 0.950 . S
C1027 C1023 1.393 . S
C1027 C1026 1.391 . S
H1028 C1036 0.950 . S
H1029 C1041 0.950 . S
H1030 C1038 0.950 . S
H1031 C1040 0.950 . S
H1032 C1042 0.950 . S
H1033 C1044 0.950 . S
H1034 C1046 0.950 . S
H1035 C1047 0.950 . S
C1036 H1028 0.950 . S
C1036 C1037 1.386 . S
C1036 C1038 1.391 . S
C1037 C1036 1.386 . S
C1037 C1041 1.393 . S
C1038 H1030 0.950 . S
C1038 C1036 1.391 . S
C1038 C1039 1.400 . S
C1039 C1038 1.400 . S
C1039 C1040 1.398 . S
C1039 C1045 1.491 . S
C1040 H1031 0.950 . S
C1040 C1039 1.398 . S
C1040 C1041 1.391 . S
C1041 H1029 0.950 . S
C1041 C1037 1.393 . S
C1041 C1040 1.391 . S
C1042 H1032 0.950 . S
C1042 C1043 1.386 . S
C1042 C1044 1.391 . S
C1043 C1042 1.386 . S
C1043 C1047 1.393 . S
C1044 H1033 0.950 . S
C1044 C1042 1.391 . S
C1044 C1045 1.400 . S
C1045 C1039 1.491 . S
C1045 C1044 1.400 . S
C1045 C1046 1.398 . S
C1046 H1034 0.950 . S
C1046 C1045 1.398 . S
C1046 C1047 1.391 . S
C1047 H1035 0.950 . S
C1047 C1043 1.393 . S
C1047 C1046 1.391 . S
H1048 C1056 0.950 . S
H1049 C1061 0.950 . S
H1050 C1058 0.950 . S
H1051 C1060 0.950 . S
H1052 C1062 0.950 . S
H1053 C1064 0.950 . S
H1054 C1066 0.950 . S
H1055 C1067 0.950 . S
C1056 H1048 0.950 . S
C1056 C1057 1.386 . S
C1056 C1058 1.391 . S
C1057 C1056 1.386 . S
C1057 C1061 1.393 . S
C1058 H1050 0.950 . S
C1058 C1056 1.391 . S
C1058 C1059 1.400 . S
C1059 C1058 1.400 . S
C1059 C1060 1.398 . S
C1059 C1065 1.491 . S
C1060 H1051 0.950 . S
C1060 C1059 1.398 . S
C1060 C1061 1.391 . S
C1061 H1049 0.950 . S
C1061 C1057 1.393 . S
C1061 C1060 1.391 . S
C1062 H1052 0.950 . S
C1062 C1063 1.386 . S
C1062 C1064 1.391 . S
C1063 C1062 1.386 . S
C1063 C1067 1.393 . S
C1064 H1053 0.950 . S
C1064 C1062 1.391 . S
C1064 C1065 1.400 . S
C1065 C1059 1.491 . S
C1065 C1064 1.400 . S
C1065 C1066 1.398 . S
C1066 H1054 0.950 . S
C1066 C1065 1.398 . S
C1066 C1067 1.391 . S
C1067 H1055 0.950 . S
C1067 C1063 1.393 . S
C1067 C1066 1.391 . S
H1068 C1076 0.950 . S
H1069 C1081 0.950 . S
H1070 C1078 0.950 . S
H1071 C1080 0.950 . S
H1072 C1082 0.950 . S
H1073 C1084 0.950 . S
H1074 C1086 0.950 . S
H1075 C1087 0.950 . S
C1076 H1068 0.950 . S
C1076 C1077 1.386 . S
C1076 C1078 1.391 . S
C1077 C1076 1.386 . S
C1077 C1081 1.393 . S
C1078 H1070 0.950 . S
C1078 C1076 1.391 . S
C1078 C1079 1.400 . S
C1079 C1078 1.400 . S
C1079 C1080 1.398 . S
C1079 C1085 1.491 . S
C1080 H1071 0.950 . S
C1080 C1079 1.398 . S
C1080 C1081 1.391 . S
C1081 H1069 0.950 . S
C1081 C1077 1.393 . S
C1081 C1080 1.391 . S
C1082 H1072 0.950 . S
C1082 C1083 1.386 . S
C1082 C1084 1.391 . S
C1083 C1082 1.386 . S
C1083 C1087 1.393 . S
C1084 H1073 0.950 . S
C1084 C1082 1.391 . S
C1084 C1085 1.400 . S
C1085 C1079 1.491 . S
C1085 C1084 1.400 . S
C1085 C1086 1.398 . S
C1086 H1074 0.950 . S
C1086 C1085 1.398 . S
C1086 C1087 1.391 . S
C1087 H1075 0.950 . S
C1087 C1083 1.393 . S
C1087 C1086 1.391 . S
H1088 C1096 0.950 . S
H1089 C1101 0.950 . S
H1090 C1098 0.950 . S
H1091 C1100 0.950 . S
H1092 C1102 0.950 . S
H1093 C1104 0.950 . S
H1094 C1106 0.950 . S
H1095 C1107 0.950 . S
C1096 H1088 0.950 . S
C1096 C1097 1.386 . S
C1096 C1098 1.391 . S
C1097 C1096 1.386 . S
C1097 C1101 1.393 . S
C1098 H1090 0.950 . S
C1098 C1096 1.391 . S
C1098 C1099 1.400 . S
C1099 C1098 1.400 . S
C1099 C1100 1.398 . S
C1099 C1105 1.491 . S
C1100 H1091 0.950 . S
C1100 C1099 1.398 . S
C1100 C1101 1.391 . S
C1101 H1089 0.950 . S
C1101 C1097 1.393 . S
C1101 C1100 1.391 . S
C1102 H1092 0.950 . S
C1102 C1103 1.386 . S
C1102 C1104 1.391 . S
C1103 C1102 1.386 . S
C1103 C1107 1.393 . S
C1104 H1093 0.950 . S
C1104 C1102 1.391 . S
C1104 C1105 1.400 . S
C1105 C1099 1.491 . S
C1105 C1104 1.400 . S
C1105 C1106 1.398 . S
C1106 H1094 0.950 . S
C1106 C1105 1.398 . S
C1106 C1107 1.391 . S
C1107 H1095 0.950 . S
C1107 C1103 1.393 . S
C1107 C1106 1.391 . S
H1108 C1116 0.950 . S
H1109 C1121 0.950 . S
H1110 C1118 0.950 . S
H1111 C1120 0.950 . S
H1112 C1122 0.950 . S
H1113 C1124 0.950 . S
H1114 C1126 0.950 . S
H1115 C1127 0.950 . S
C1116 H1108 0.950 . S
C1116 C1117 1.386 . S
C1116 C1118 1.391 . S
C1117 C1116 1.386 . S
C1117 C1121 1.393 . S
C1118 H1110 0.950 . S
C1118 C1116 1.391 . S
C1118 C1119 1.400 . S
C1119 C1118 1.400 . S
C1119 C1120 1.398 . S
C1119 C1125 1.491 . S
C1120 H1111 0.950 . S
C1120 C1119 1.398 . S
C1120 C1121 1.391 . S
C1121 H1109 0.950 . S
C1121 C1117 1.393 . S
C1121 C1120 1.391 . S
C1122 H1112 0.950 . S
C1122 C1123 1.386 . S
C1122 C1124 1.391 . S
C1123 C1122 1.386 . S
C1123 C1127 1.393 . S
C1124 H1113 0.950 . S
C1124 C1122 1.391 . S
C1124 C1125 1.400 . S
C1125 C1119 1.491 . S
C1125 C1124 1.400 . S
C1125 C1126 1.398 . S
C1126 H1114 0.950 . S
C1126 C1125 1.398 . S
C1126 C1127 1.391 . S
C1127 H1115 0.950 . S
C1127 C1123 1.393 . S
C1127 C1126 1.391 . S
H1128 C1136 0.950 . S
H1129 C1141 0.950 . S
H1130 C1138 0.950 . S
H1131 C1140 0.950 . S
H1132 C1142 0.950 . S
H1133 C1144 0.950 . S
H1134 C1146 0.950 . S
H1135 C1147 0.950 . S
C1136 H1128 0.950 . S
C1136 C1137 1.386 . S
C1136 C1138 1.391 . S
C1137 C1136 1.386 . S
C1137 C1141 1.393 . S
C1138 H1130 0.950 . S
C1138 C1136 1.391 . S
C1138 C1139 1.400 . S
C1139 C1138 1.400 . S
C1139 C1140 1.398 . S
C1139 C1145 1.491 . S
C1140 H1131 0.950 . S
C1140 C1139 1.398 . S
C1140 C1141 1.391 . S
C1141 H1129 0.950 . S
C1141 C1137 1.393 . S
C1141 C1140 1.391 . S
C1142 H1132 0.950 . S
C1142 C1143 1.386 . S
C1142 C1144 1.391 . S
C1143 C1142 1.386 . S
C1143 C1147 1.393 . S
C1144 H1133 0.950 . S
C1144 C1142 1.391 . S
C1144 C1145 1.400 . S
C1145 C1139 1.491 . S
C1145 C1144 1.400 . S
C1145 C1146 1.398 . S
C1146 H1134 0.950 . S
C1146 C1145 1.398 . S
C1146 C1147 1.391 . S
C1147 H1135 0.950 . S
C1147 C1143 1.393 . S
C1147 C1146 1.391 . S
H1148 C1156 0.950 . S
H1149 C1161 0.950 . S
H1150 C1158 0.950 . S
H1151 C1160 0.950 . S
H1152 C1162 0.950 . S
H1153 C1164 0.950 . S
H1154 C1166 0.950 . S
H1155 C1167 0.950 . S
C1156 H1148 0.950 . S
C1156 C1157 1.386 . S
C1156 C1158 1.391 . S
C1157 C1156 1.386 . S
C1157 C1161 1.393 . S
C1158 H1150 0.950 . S
C1158 C1156 1.391 . S
C1158 C1159 1.400 . S
C1159 C1158 1.400 . S
C1159 C1160 1.398 . S
C1159 C1165 1.491 . S
C1160 H1151 0.950 . S
C1160 C1159 1.398 . S
C1160 C1161 1.391 . S
C1161 H1149 0.950 . S
C1161 C1157 1.393 . S
C1161 C1160 1.391 . S
C1162 H1152 0.950 . S
C1162 C1163 1.386 . S
C1162 C1164 1.391 . S
C1163 C1162 1.386 . S
C1163 C1167 1.393 . S
C1164 H1153 0.950 . S
C1164 C1162 1.391 . S
C1164 C1165 1.400 . S
C1165 C1159 1.491 . S
C1165 C1164 1.400 . S
C1165 C1166 1.398 . S
C1166 H1154 0.950 . S
C1166 C1165 1.398 . S
C1166 C1167 1.391 . S
C1167 H1155 0.950 . S
C1167 C1163 1.393 . S
C1167 C1166 1.391 . S
H1168 C1176 0.950 . S
H1169 C1181 0.950 . S
H1170 C1178 0.950 . S
H1171 C1180 0.950 . S
H1172 C1182 0.950 . S
H1173 C1184 0.950 . S
H1174 C1186 0.950 . S
H1175 C1187 0.950 . S
C1176 H1168 0.950 . S
C1176 C1177 1.386 . S
C1176 C1178 1.391 . S
C1177 C1176 1.386 . S
C1177 C1181 1.393 . S
C1178 H1170 0.950 . S
C1178 C1176 1.391 . S
C1178 C1179 1.400 . S
C1179 C1178 1.400 . S
C1179 C1180 1.398 . S
C1179 C1185 1.491 . S
C1180 H1171 0.950 . S
C1180 C1179 1.398 . S
C1180 C1181 1.391 . S
C1181 H1169 0.950 . S
C1181 C1177 1.393 . S
C1181 C1180 1.391 . S
C1182 H1172 0.950 . S
C1182 C1183 1.386 . S
C1182 C1184 1.391 . S
C1183 C1182 1.386 . S
C1183 C1187 1.393 . S
C1184 H1173 0.950 . S
C1184 C1182 1.391 . S
C1184 C1185 1.400 . S
C1185 C1179 1.491 . S
C1185 C1184 1.400 . S
C1185 C1186 1.398 . S
C1186 H1174 0.950 . S
C1186 C1185 1.398 . S
C1186 C1187 1.391 . S
C1187 H1175 0.950 . S
C1187 C1183 1.393 . S
C1187 C1186 1.391 . S
H1188 C1196 0.950 . S
H1189 C1201 0.950 . S
H1190 C1198 0.950 . S
H1191 C1200 0.950 . S
H1192 C1202 0.950 . S
H1193 C1204 0.950 . S
H1194 C1206 0.950 . S
H1195 C1207 0.950 . S
C1196 H1188 0.950 . S
C1196 C1197 1.386 . S
C1196 C1198 1.391 . S
C1197 C1196 1.386 . S
C1197 C1201 1.393 . S
C1198 H1190 0.950 . S
C1198 C1196 1.391 . S
C1198 C1199 1.400 . S
C1199 C1198 1.400 . S
C1199 C1200 1.398 . S
C1199 C1205 1.491 . S
C1200 H1191 0.950 . S
C1200 C1199 1.398 . S
C1200 C1201 1.391 . S
C1201 H1189 0.950 . S
C1201 C1197 1.393 . S
C1201 C1200 1.391 . S
C1202 H1192 0.950 . S
C1202 C1203 1.386 . S
C1202 C1204 1.391 . S
C1203 C1202 1.386 . S
C1203 C1207 1.393 . S
C1204 H1193 0.950 . S
C1204 C1202 1.391 . S
C1204 C1205 1.400 . S
C1205 C1199 1.491 . S
C1205 C1204 1.400 . S
C1205 C1206 1.398 . S
C1206 H1194 0.950 . S
C1206 C1205 1.398 . S
C1206 C1207 1.391 . S
C1207 H1195 0.950 . S
C1207 C1203 1.393 . S
C1207 C1206 1.391 . S
H1208 C1216 0.950 . S
H1209 C1221 0.950 . S
H1210 C1218 0.950 . S
H1211 C1220 0.950 . S
H1212 C1222 0.950 . S
H1213 C1224 0.950 . S
H1214 C1226 0.950 . S
H1215 C1227 0.950 . S
C1216 H1208 0.950 . S
C1216 C1217 1.386 . S
C1216 C1218 1.391 . S
C1217 C1216 1.386 . S
C1217 C1221 1.393 . S
C1218 H1210 0.950 . S
C1218 C1216 1.391 . S
C1218 C1219 1.400 . S
C1219 C1218 1.400 . S
C1219 C1220 1.398 . S
C1219 C1225 1.491 . S
C1220 H1211 0.950 . S
C1220 C1219 1.398 . S
C1220 C1221 1.391 . S
C1221 H1209 0.950 . S
C1221 C1217 1.393 . S
C1221 C1220 1.391 . S
C1222 H1212 0.950 . S
C1222 C1223 1.386 . S
C1222 C1224 1.391 . S
C1223 C1222 1.386 . S
C1223 C1227 1.393 . S
C1224 H1213 0.950 . S
C1224 C1222 1.391 . S
C1224 C1225 1.400 . S
C1225 C1219 1.491 . S
C1225 C1224 1.400 . S
C1225 C1226 1.398 . S
C1226 H1214 0.950 . S
C1226 C1225 1.398 . S
C1226 C1227 1.391 . S
C1227 H1215 0.950 . S
C1227 C1223 1.393 . S
C1227 C1226 1.391 . S
H1228 C1236 0.950 . S
H1229 C1241 0.950 . S
H1230 C1238 0.950 . S
H1231 C1240 0.950 . S
H1232 C1242 0.950 . S
H1233 C1244 0.950 . S
H1234 C1246 0.950 . S
H1235 C1247 0.950 . S
C1236 H1228 0.950 . S
C1236 C1237 1.386 . S
C1236 C1238 1.391 . S
C1237 C1236 1.386 . S
C1237 C1241 1.393 . S
C1238 H1230 0.950 . S
C1238 C1236 1.391 . S
C1238 C1239 1.400 . S
C1239 C1238 1.400 . S
C1239 C1240 1.398 . S
C1239 C1245 1.491 . S
C1240 H1231 0.950 . S
C1240 C1239 1.398 . S
C1240 C1241 1.391 . S
C1241 H1229 0.950 . S
C1241 C1237 1.393 . S
C1241 C1240 1.391 . S
C1242 H1232 0.950 . S
C1242 C1243 1.386 . S
C1242 C1244 1.391 . S
C1243 C1242 1.386 . S
C1243 C1247 1.393 . S
C1244 H1233 0.950 . S
C1244 C1242 1.391 . S
C1244 C1245 1.400 . S
C1245 C1239 1.491 . S
C1245 C1244 1.400 . S
C1245 C1246 1.398 . S
C1246 H1234 0.950 . S
C1246 C1245 1.398 . S
C1246 C1247 1.391 . S
C1247 H1235 0.950 . S
C1247 C1243 1.393 . S
C1247 C1246 1.391 . S
H1248 C1256 0.950 . S
H1249 C1261 0.950 . S
H1250 C1258 0.950 . S
H1251 C1260 0.950 . S
H1252 C1262 0.950 . S
H1253 C1264 0.950 . S
H1254 C1266 0.950 . S
H1255 C1267 0.950 . S
C1256 H1248 0.950 . S
C1256 C1257 1.386 . S
C1256 C1258 1.391 . S
C1257 C1256 1.386 . S
C1257 C1261 1.393 . S
C1258 H1250 0.950 . S
C1258 C1256 1.391 . S
C1258 C1259 1.400 . S
C1259 C1258 1.400 . S
C1259 C1260 1.398 . S
C1259 C1265 1.491 . S
C1260 H1251 0.950 . S
C1260 C1259 1.398 . S
C1260 C1261 1.391 . S
C1261 H1249 0.950 . S
C1261 C1257 1.393 . S
C1261 C1260 1.391 . S
C1262 H1252 0.950 . S
C1262 C1263 1.386 . S
C1262 C1264 1.391 . S
C1263 C1262 1.386 . S
C1263 C1267 1.393 . S
C1264 H1253 0.950 . S
C1264 C1262 1.391 . S
C1264 C1265 1.400 . S
C1265 C1259 1.491 . S
C1265 C1264 1.400 . S
C1265 C1266 1.398 . S
C1266 H1254 0.950 . S
C1266 C1265 1.398 . S
C1266 C1267 1.391 . S
C1267 H1255 0.950 . S
C1267 C1263 1.393 . S
C1267 C1266 1.391 . S
H1268 C1276 0.950 . S
H1269 C1281 0.950 . S
H1270 C1278 0.950 . S
H1271 C1280 0.950 . S
H1272 C1282 0.950 . S
H1273 C1284 0.950 . S
H1274 C1286 0.950 . S
H1275 C1287 0.950 . S
C1276 H1268 0.950 . S
C1276 C1277 1.386 . S
C1276 C1278 1.391 . S
C1277 C1276 1.386 . S
C1277 C1281 1.393 . S
C1278 H1270 0.950 . S
C1278 C1276 1.391 . S
C1278 C1279 1.400 . S
C1279 C1278 1.400 . S
C1279 C1280 1.398 . S
C1279 C1285 1.491 . S
C1280 H1271 0.950 . S
C1280 C1279 1.398 . S
C1280 C1281 1.391 . S
C1281 H1269 0.950 . S
C1281 C1277 1.393 . S
C1281 C1280 1.391 . S
C1282 H1272 0.950 . S
C1282 C1283 1.386 . S
C1282 C1284 1.391 . S
C1283 C1282 1.386 . S
C1283 C1287 1.393 . S
C1284 H1273 0.950 . S
C1284 C1282 1.391 . S
C1284 C1285 1.400 . S
C1285 C1279 1.491 . S
C1285 C1284 1.400 . S
C1285 C1286 1.398 . S
C1286 H1274 0.950 . S
C1286 C1285 1.398 . S
C1286 C1287 1.391 . S
C1287 H1275 0.950 . S
C1287 C1283 1.393 . S
C1287 C1286 1.391 . S
H1288 C1296 0.950 . S
H1289 C1301 0.950 . S
H1290 C1298 0.950 . S
H1291 C1300 0.950 . S
H1292 C1302 0.950 . S
H1293 C1304 0.950 . S
H1294 C1306 0.950 . S
H1295 C1307 0.950 . S
C1296 H1288 0.950 . S
C1296 C1297 1.386 . S
C1296 C1298 1.391 . S
C1297 C1296 1.386 . S
C1297 C1301 1.393 . S
C1298 H1290 0.950 . S
C1298 C1296 1.391 . S
C1298 C1299 1.400 . S
C1299 C1298 1.400 . S
C1299 C1300 1.398 . S
C1299 C1305 1.491 . S
C1300 H1291 0.950 . S
C1300 C1299 1.398 . S
C1300 C1301 1.391 . S
C1301 H1289 0.950 . S
C1301 C1297 1.393 . S
C1301 C1300 1.391 . S
C1302 H1292 0.950 . S
C1302 C1303 1.386 . S
C1302 C1304 1.391 . S
C1303 C1302 1.386 . S
C1303 C1307 1.393 . S
C1304 H1293 0.950 . S
C1304 C1302 1.391 . S
C1304 C1305 1.400 . S
C1305 C1299 1.491 . S
C1305 C1304 1.400 . S
C1305 C1306 1.398 . S
C1306 H1294 0.950 . S
C1306 C1305 1.398 . S
C1306 C1307 1.391 . S
C1307 H1295 0.950 . S
C1307 C1303 1.393 . S
C1307 C1306 1.391 . S
H1308 C1316 0.950 . S
H1309 C1321 0.950 . S
H1310 C1318 0.950 . S
H1311 C1320 0.950 . S
H1312 C1322 0.950 . S
H1313 C1324 0.950 . S
H1314 C1326 0.950 . S
H1315 C1327 0.950 . S
C1316 H1308 0.950 . S
C1316 C1317 1.386 . S
C1316 C1318 1.391 . S
C1317 C1316 1.386 . S
C1317 C1321 1.393 . S
C1318 H1310 0.950 . S
C1318 C1316 1.391 . S
C1318 C1319 1.400 . S
C1319 C1318 1.400 . S
C1319 C1320 1.398 . S
C1319 C1325 1.491 . S
C1320 H1311 0.950 . S
C1320 C1319 1.398 . S
C1320 C1321 1.391 . S
C1321 H1309 0.950 . S
C1321 C1317 1.393 . S
C1321 C1320 1.391 . S
C1322 H1312 0.950 . S
C1322 C1323 1.386 . S
C1322 C1324 1.391 . S
C1323 C1322 1.386 . S
C1323 C1327 1.393 . S
C1324 H1313 0.950 . S
C1324 C1322 1.391 . S
C1324 C1325 1.400 . S
C1325 C1319 1.491 . S
C1325 C1324 1.400 . S
C1325 C1326 1.398 . S
C1326 H1314 0.950 . S
C1326 C1325 1.398 . S
C1326 C1327 1.391 . S
C1327 H1315 0.950 . S
C1327 C1323 1.393 . S
C1327 C1326 1.391 . S
C537 C8 2.282 . S
C543 C74 2.275 . S
C557 C107 2.277 . S
C563 C41 2.279 . S
C577 C206 2.282 . S
C583 C140 2.275 . S
C597 C173 2.283 . S
C603 C239 2.275 . S
C617 C338 2.279 . S
C623 C272 2.279 . S
C637 C305 2.278 . S
C643 C371 2.280 . S
C657 C470 2.282 . S
C663 C404 2.275 . S
C677 C437 2.283 . S
C683 C503 2.274 . S
C697 C17 1.522 . S
C703 C347 1.508 . S
C717 C380 1.515 . S
C723 C50 1.515 . S
C737 C281 1.521 . S
C743 C83 1.508 . S
C757 C314 1.519 . S
C763 C116 1.510 . S
C777 C479 1.508 . S
C783 C149 1.522 . S
C797 C512 1.511 . S
C803 C182 1.519 . S
C817 C413 1.520 . S
C823 C215 1.510 . S
C837 C446 1.519 . S
C843 C248 1.511 . S
C857 C28 1.033 . S
C863 C259 1.041 . S
C877 C61 1.038 . S
C883 C160 1.042 . S
C897 C193 1.036 . S
C903 C94 1.037 . S
C917 C226 1.047 . S
C923 C127 1.031 . S
C937 C292 1.040 . S
C943 C523 1.033 . S
C957 C325 1.038 . S
C963 C424 1.042 . S
C977 C358 1.035 . S
C983 C457 1.044 . S
C997 C391 1.035 . S
C1003 C490 1.038 . S
C1017 N476 1.018 . S
C1023 N5 1.022 . S
C1037 N38 1.015 . S
C1043 N509 1.006 . S
C1057 N410 1.019 . S
C1063 N71 1.018 . S
C1077 N443 0.984 . S
C1083 N104 1.025 . S
C1097 N344 1.000 . S
C1103 N137 1.030 . S
C1117 N170 1.022 . S
C1123 N377 1.018 . S
C1137 N278 1.013 . S
C1143 N203 1.026 . S
C1157 N236 1.017 . S
C1163 N311 0.997 . S
C1177 N212 0.992 . S
C1183 N269 1.031 . S
C1197 N245 0.998 . S
C1203 N302 1.031 . S
C1217 N146 1.014 . S
C1223 N335 1.025 . S
C1237 N368 1.030 . S
C1243 N179 0.985 . S
C1257 N80 0.989 . S
C1263 N401 1.031 . S
C1277 N434 1.027 . S
C1283 N113 0.983 . S
C1297 N467 1.017 . S
C1303 N14 1.019 . S
C1317 N47 0.987 . S
C1323 N500 1.031 . S
