# Generated by pormake.
# Topology ung, (4)-cn, num edge types: 1
# Building blocks:
#     Node 0, Type 0, BuildingBlock: MUDLON_clean_sbu_0, # of connection points: 4
#     Node 1, Type 0, BuildingBlock: MUDLON_clean_sbu_0, # of connection points: 4
#     Node 2, Type 0, BuildingBlock: MUDLON_clean_sbu_0, # of connection points: 4
#     Node 3, Type 0, BuildingBlock: MUDLON_clean_sbu_0, # of connection points: 4
#     Node 4, Type 0, BuildingBlock: MUDLON_clean_sbu_0, # of connection points: 4
#     Node 5, Type 0, BuildingBlock: MUDLON_clean_sbu_0, # of connection points: 4
#     Node 6, Type 0, BuildingBlock: MUDLON_clean_sbu_0, # of connection points: 4
#     Node 7, Type 0, BuildingBlock: MUDLON_clean_sbu_0, # of connection points: 4
#     Node 8, Type 0, BuildingBlock: MUDLON_clean_sbu_0, # of connection points: 4
#     Node 9, Type 0, BuildingBlock: MUDLON_clean_sbu_0, # of connection points: 4
#     Node 10, Type 0, BuildingBlock: MUDLON_clean_sbu_0, # of connection points: 4
#     Node 11, Type 0, BuildingBlock: MUDLON_clean_sbu_0, # of connection points: 4
#     Node 12, Type 0, BuildingBlock: MUDLON_clean_sbu_0, # of connection points: 4
#     Node 13, Type 0, BuildingBlock: MUDLON_clean_sbu_0, # of connection points: 4
#     Node 14, Type 0, BuildingBlock: MUDLON_clean_sbu_0, # of connection points: 4
#     Node 15, Type 0, BuildingBlock: MUDLON_clean_sbu_0, # of connection points: 4
#     Node 16, Type 0, BuildingBlock: MUDLON_clean_sbu_0, # of connection points: 4
#     Node 17, Type 0, BuildingBlock: MUDLON_clean_sbu_0, # of connection points: 4
#     Edge 18, Type (0, 0), BuildingBlock: ZUJKAS_clean_linker_0, # of connection points: 2
#     Edge 19, Type (0, 0), BuildingBlock: ZUJKAS_clean_linker_0, # of connection points: 2
#     Edge 20, Type (0, 0), BuildingBlock: ZUJKAS_clean_linker_0, # of connection points: 2
#     Edge 21, Type (0, 0), BuildingBlock: ZUJKAS_clean_linker_0, # of connection points: 2
#     Edge 22, Type (0, 0), BuildingBlock: ZUJKAS_clean_linker_0, # of connection points: 2
#     Edge 23, Type (0, 0), BuildingBlock: ZUJKAS_clean_linker_0, # of connection points: 2
#     Edge 24, Type (0, 0), BuildingBlock: ZUJKAS_clean_linker_0, # of connection points: 2
#     Edge 25, Type (0, 0), BuildingBlock: ZUJKAS_clean_linker_0, # of connection points: 2
#     Edge 26, Type (0, 0), BuildingBlock: ZUJKAS_clean_linker_0, # of connection points: 2
#     Edge 27, Type (0, 0), BuildingBlock: ZUJKAS_clean_linker_0, # of connection points: 2
#     Edge 28, Type (0, 0), BuildingBlock: ZUJKAS_clean_linker_0, # of connection points: 2
#     Edge 29, Type (0, 0), BuildingBlock: ZUJKAS_clean_linker_0, # of connection points: 2
#     Edge 30, Type (0, 0), BuildingBlock: ZUJKAS_clean_linker_0, # of connection points: 2
#     Edge 31, Type (0, 0), BuildingBlock: ZUJKAS_clean_linker_0, # of connection points: 2
#     Edge 32, Type (0, 0), BuildingBlock: ZUJKAS_clean_linker_0, # of connection points: 2
#     Edge 33, Type (0, 0), BuildingBlock: ZUJKAS_clean_linker_0, # of connection points: 2
#     Edge 34, Type (0, 0), BuildingBlock: ZUJKAS_clean_linker_0, # of connection points: 2
#     Edge 35, Type (0, 0), BuildingBlock: ZUJKAS_clean_linker_0, # of connection points: 2
#     Edge 36, Type (0, 0), BuildingBlock: ZUJKAS_clean_linker_0, # of connection points: 2
#     Edge 37, Type (0, 0), BuildingBlock: ZUJKAS_clean_linker_0, # of connection points: 2
#     Edge 38, Type (0, 0), BuildingBlock: ZUJKAS_clean_linker_0, # of connection points: 2
#     Edge 39, Type (0, 0), BuildingBlock: ZUJKAS_clean_linker_0, # of connection points: 2
#     Edge 40, Type (0, 0), BuildingBlock: ZUJKAS_clean_linker_0, # of connection points: 2
#     Edge 41, Type (0, 0), BuildingBlock: ZUJKAS_clean_linker_0, # of connection points: 2
#     Edge 42, Type (0, 0), BuildingBlock: ZUJKAS_clean_linker_0, # of connection points: 2
#     Edge 43, Type (0, 0), BuildingBlock: ZUJKAS_clean_linker_0, # of connection points: 2
#     Edge 44, Type (0, 0), BuildingBlock: ZUJKAS_clean_linker_0, # of connection points: 2
#     Edge 45, Type (0, 0), BuildingBlock: ZUJKAS_clean_linker_0, # of connection points: 2
#     Edge 46, Type (0, 0), BuildingBlock: ZUJKAS_clean_linker_0, # of connection points: 2
#     Edge 47, Type (0, 0), BuildingBlock: ZUJKAS_clean_linker_0, # of connection points: 2
#     Edge 48, Type (0, 0), BuildingBlock: ZUJKAS_clean_linker_0, # of connection points: 2
#     Edge 49, Type (0, 0), BuildingBlock: ZUJKAS_clean_linker_0, # of connection points: 2
#     Edge 50, Type (0, 0), BuildingBlock: ZUJKAS_clean_linker_0, # of connection points: 2
#     Edge 51, Type (0, 0), BuildingBlock: ZUJKAS_clean_linker_0, # of connection points: 2
#     Edge 52, Type (0, 0), BuildingBlock: ZUJKAS_clean_linker_0, # of connection points: 2
#     Edge 53, Type (0, 0), BuildingBlock: ZUJKAS_clean_linker_0, # of connection points: 2
# Relax obj value: 0.034
# Max RMSD: 0.245
# Mean RMSD: 0.245
data_MOF--net-ung--node1-MUDLON_clean_sbu_0--edge1-ZUJKAS_clean_linker_0
_symmetry_space_group_name_H-M    P1
_symmetry_Int_Tables_number       1
_symmetry_cell_setting            triclinic
loop_
_symmetry_equiv_pos_as_xyz
'x, y, z'
_cell_length_a     99.18852
_cell_length_b     100.29623
_cell_length_c     30.192693
_cell_angle_alpha  89.741744
_cell_angle_beta   90.581003
_cell_angle_gamma 121.11718
loop_
_atom_site_label
_atom_site_type_symbol
_atom_site_fract_x
_atom_site_fract_y
_atom_site_fract_z
_atom_type_partial_charge
Mg0 Mg 0.04104 0.64336 0.26293 0.0
C1 C 0.0488 0.62821 0.33312 0.0
O2 O 0.06236 0.63833 0.31534 0.0
C3 C 0.02193 0.65877 0.24425 0.0
O4 O 0.03386 0.67027 0.2655 0.0
C5 C 0.03424 0.62236 0.18813 0.0
O6 O 0.02043 0.61826 0.20469 0.0
O7 O 0.04649 0.63364 0.20614 0.0
O8 O 0.03632 0.62713 0.31729 0.0
O9 O 0.05994 0.66599 0.28729 0.0
C10 C 0.05792 0.66897 0.32682 0.0
O11 O 0.0453 0.6585 0.34795 0.0
O12 O 0.02131 0.64582 0.24081 0.0
Mg13 Mg 0.47424 0.50787 0.25789 0.0
C14 C 0.44955 0.51164 0.30766 0.0
O15 O 0.46198 0.52472 0.32099 0.0
C16 C 0.49718 0.5252 0.18859 0.0
O17 O 0.50285 0.51763 0.20972 0.0
C18 C 0.45845 0.47819 0.21015 0.0
O19 O 0.44963 0.48424 0.20284 0.0
O20 O 0.47061 0.48564 0.23479 0.0
O21 O 0.45128 0.50313 0.27993 0.0
O22 O 0.49069 0.51865 0.31335 0.0
C23 C 0.49795 0.53347 0.31506 0.0
O24 O 0.49559 0.54098 0.28309 0.0
O25 O 0.4842 0.52349 0.20148 0.0
Mg26 Mg 0.60872 0.0736 0.26541 0.0
C27 C 0.58072 0.06936 0.21237 0.0
O28 O 0.57751 0.0729 0.25111 0.0
C29 C 0.62266 0.05262 0.27479 0.0
O30 O 0.63167 0.06132 0.2423 0.0
C31 C 0.59037 0.0682 0.3476 0.0
O32 O 0.58836 0.05443 0.33943 0.0
O33 O 0.59903 0.07944 0.32176 0.0
O34 O 0.59268 0.06789 0.20894 0.0
O35 O 0.63197 0.09234 0.24475 0.0
C36 C 0.63377 0.09849 0.20663 0.0
O37 O 0.62128 0.09439 0.18176 0.0
O38 O 0.61172 0.05461 0.2883 0.0
Mg39 Mg 0.04848 0.51511 0.76553 0.0
C40 C 0.05588 0.54389 0.71132 0.0
O41 O 0.05561 0.54935 0.75056 0.0
C42 C 0.06403 0.50428 0.82598 0.0
O43 O 0.05141 0.50181 0.84703 0.0
C44 C 0.03233 0.52685 0.83015 0.0
O45 O 0.02007 0.52 0.80338 0.0
O46 O 0.04442 0.52601 0.82204 0.0
O47 O 0.05434 0.53052 0.70844 0.0
O48 O 0.02894 0.4926 0.7432 0.0
C49 C 0.03106 0.48917 0.70433 0.0
O50 O 0.04385 0.49929 0.6832 0.0
O51 O 0.06669 0.51051 0.78775 0.0
Mg52 Mg 0.60858 0.64508 0.76031 0.0
C53 C 0.58608 0.62002 0.70008 0.0
O54 O 0.58878 0.61243 0.73105 0.0
C55 C 0.6166 0.6696 0.82608 0.0
O56 O 0.61894 0.6594 0.84673 0.0
C57 C 0.58501 0.62596 0.82644 0.0
O58 O 0.57917 0.63344 0.80572 0.0
O59 O 0.59834 0.62834 0.81434 0.0
O60 O 0.59273 0.63476 0.70343 0.0
O61 O 0.63198 0.65105 0.73895 0.0
C62 C 0.63474 0.64241 0.7146 0.0
O63 O 0.62318 0.62833 0.70452 0.0
O64 O 0.61152 0.66675 0.78626 0.0
Mg65 Mg 0.47775 0.07967 0.76146 0.0
C66 C 0.4896 0.0728 0.84334 0.0
O67 O 0.4772 0.05931 0.83258 0.0
C68 C 0.47043 0.09735 0.69743 0.0
O69 O 0.46713 0.08467 0.67575 0.0
C70 C 0.50101 0.07498 0.71069 0.0
O71 O 0.50873 0.08042 0.74822 0.0
O72 O 0.48715 0.07265 0.7071 0.0
O73 O 0.49307 0.08459 0.81926 0.0
O74 O 0.45421 0.06203 0.78311 0.0
C75 C 0.44766 0.06736 0.80748 0.0
O76 O 0.45511 0.08243 0.8149 0.0
O77 O 0.47587 0.09914 0.73674 0.0
Mg78 Mg 0.71151 0.97787 0.59466 0.0
C79 C 0.71717 0.96315 0.67103 0.0
O80 O 0.73128 0.97433 0.65925 0.0
C81 C 0.69265 0.99294 0.56858 0.0
O82 O 0.70378 1.00437 0.59214 0.0
C83 C 0.70722 0.95542 0.52713 0.0
O84 O 0.69344 0.94966 0.54615 0.0
O85 O 0.71858 0.96841 0.541 0.0
O86 O 0.70529 0.96132 0.64909 0.0
O87 O 0.72968 1.00047 0.62133 0.0
C88 C 0.72642 1.00363 0.65911 0.0
O89 O 0.713 0.99341 0.67744 0.0
O90 O 0.69235 0.98012 0.56626 0.0
Mg91 Mg 0.14234 0.84444 0.59593 0.0
C92 C 0.11797 0.84762 0.65049 0.0
O93 O 0.13044 0.86019 0.66619 0.0
C94 C 0.15797 0.85719 0.50882 0.0
O95 O 0.15741 0.84382 0.51011 0.0
C96 C 0.12567 0.81425 0.55001 0.0
O97 O 0.11652 0.82002 0.54439 0.0
O98 O 0.13823 0.822 0.57291 0.0
O99 O 0.11966 0.83986 0.6201 0.0
O100 O 0.15973 0.85545 0.64883 0.0
C101 C 0.1569 0.85184 0.68952 0.0
O102 O 0.1432 0.83982 0.70071 0.0
O103 O 0.15181 0.8606 0.54022 0.0
Mg104 Mg 0.27901 0.41001 0.59829 0.0
C105 C 0.25623 0.40426 0.66761 0.0
O106 O 0.25029 0.39093 0.6465 0.0
C107 C 0.30426 0.4389 0.54837 0.0
O108 O 0.29208 0.43975 0.535 0.0
C109 C 0.25608 0.41261 0.54052 0.0
O110 O 0.25904 0.42284 0.57187 0.0
O111 O 0.26264 0.40456 0.54292 0.0
O112 O 0.26935 0.41567 0.65472 0.0
O113 O 0.28182 0.39086 0.62097 0.0
C114 C 0.29474 0.39516 0.6413 0.0
O115 O 0.30505 0.41014 0.64486 0.0
O116 O 0.30219 0.42843 0.57609 0.0
Mg117 Mg 0.71174 0.84478 0.09747 0.0
C118 C 0.71829 0.86704 0.16918 0.0
O119 O 0.73202 0.87209 0.15055 0.0
C120 C 0.69445 0.81944 0.03316 0.0
O121 O 0.70693 0.82991 1.01159 0.0
C122 C 0.71301 0.87037 0.04229 0.0
O123 O 0.70493 0.87038 0.07645 0.0
O124 O 0.71822 0.86112 0.04227 0.0
O125 O 0.70634 0.85478 0.15372 0.0
O126 O 0.73022 0.84074 0.12123 0.0
C127 C 0.72773 0.83463 0.15961 0.0
O128 O 0.71485 0.83157 0.18031 0.0
O129 O 0.69261 0.82243 0.07283 0.0
Mg130 Mg 0.27545 0.98164 0.09555 0.0
C131 C 0.2507 0.95809 0.15418 0.0
O132 O 0.24252 0.95897 0.12099 0.0
C133 C 0.30154 0.99232 0.0343 0.0
O134 O 0.29166 0.99566 1.01528 0.0
C135 C 0.25785 0.95685 0.03127 0.0
O136 O 0.2659 0.95232 0.05524 0.0
O137 O 0.25924 0.9699 0.04029 0.0
O138 O 0.26567 0.96639 0.15306 0.0
O139 O 0.27961 1.00443 0.1146 0.0
C140 C 0.27112 1.00609 0.14278 0.0
O141 O 0.25837 0.99368 0.15747 0.0
O142 O 0.29799 0.98571 0.07203 0.0
Mg143 Mg 0.14546 0.41141 0.094 0.0
C144 C 0.16586 0.40783 0.15746 0.0
O145 O 0.16072 0.39585 0.13062 0.0
C146 C 0.13748 0.42784 0.02715 0.0
O147 O 0.13517 0.41535 1.00633 0.0
C148 C 0.16923 0.41611 0.02913 0.0
O149 O 0.17519 0.42953 0.04978 0.0
O150 O 0.15575 0.40499 0.04085 0.0
O151 O 0.16155 0.4176 0.15025 0.0
O152 O 0.12262 0.39301 0.11831 0.0
C153 C 0.11364 0.39754 0.13285 0.0
O154 O 0.11825 0.41236 0.12947 0.0
O155 O 0.14247 0.43 0.06704 0.0
Mg156 Mg 0.37358 0.30563 0.92793 0.0
C157 C 0.38066 0.28984 0.99758 0.0
O158 O 0.39418 0.29911 0.97819 0.0
C159 C 0.35366 0.3202 0.91021 0.0
O160 O 0.36437 0.33097 0.93635 0.0
C161 C 0.37007 0.28077 0.86977 0.0
O162 O 0.35881 0.27375 0.89904 0.0
O163 O 0.37941 0.29543 0.87311 0.0
O164 O 0.36847 0.28971 0.98337 0.0
O165 O 0.39237 0.32839 0.95192 0.0
C166 C 0.39047 0.33136 0.99158 0.0
O167 O 0.37808 0.32077 1.01323 0.0
O168 O 0.354 0.30788 0.90327 0.0
Mg169 Mg 0.81055 0.17749 0.93645 0.0
C170 C 0.78532 0.16866 1.00148 0.0
O171 O 0.79611 0.16748 0.0237 0.0
C172 C 0.83321 0.19497 0.86721 0.0
O173 O 0.83891 0.18743 0.88822 0.0
C174 C 0.79527 0.14874 0.88485 0.0
O175 O 0.78733 0.15562 0.87554 0.0
O176 O 0.80663 0.15527 0.91252 0.0
O177 O 0.78805 0.17319 0.96137 0.0
O178 O 0.82757 0.18844 0.99033 0.0
C179 C 0.83031 0.20196 1.00021 0.0
O180 O 0.82317 0.2077 0.97712 0.0
O181 O 0.82025 0.19327 0.88034 0.0
Mg182 Mg 0.94321 0.74416 0.93169 0.0
C183 C 0.91361 0.73423 0.8754 0.0
O184 O 0.90697 0.73201 0.91431 0.0
C185 C 0.96059 0.72959 0.96925 0.0
O186 O 0.97172 0.74434 0.96695 0.0
C187 C 0.93033 0.74337 0.02258 0.0
O188 O 0.93616 0.73439 0.02948 0.0
O189 O 0.93227 0.74987 0.98496 0.0
O190 O 0.92803 0.73823 0.87344 0.0
O191 O 0.96591 0.7633 0.90904 0.0
C192 C 0.97019 0.76026 0.87273 0.0
O193 O 0.96083 0.74668 0.85399 0.0
O194 O 0.94686 0.72553 0.95498 0.0
Mg195 Mg 0.37654 0.17503 0.42989 0.0
C196 C 0.38616 0.20304 0.37097 0.0
O197 O 0.38909 0.20996 0.40972 0.0
C198 C 0.40343 0.17816 0.48799 0.0
O199 O 0.4012 0.1884 0.50836 0.0
C200 C 0.36665 0.18227 0.51925 0.0
O201 O 0.36285 0.16803 0.52975 0.0
O202 O 0.37177 0.18739 0.48066 0.0
O203 O 0.38177 0.18869 0.36942 0.0
O204 O 0.35691 0.15196 0.41273 0.0
C205 C 0.34653 0.15017 0.38435 0.0
O206 O 0.3467 0.16254 0.36895 0.0
O207 O 0.39545 0.17156 0.45312 0.0
Mg208 Mg 0.94661 0.31302 0.43912 0.0
C209 C 0.92765 0.28981 0.37213 0.0
O210 O 0.93439 0.28368 0.39532 0.0
C211 C 0.95476 0.33792 0.50502 0.0
O212 O 0.95567 0.32723 0.52788 0.0
C213 C 0.92214 0.29411 0.50353 0.0
O214 O 0.91669 0.30179 0.48195 0.0
O215 O 0.93547 0.29623 0.49254 0.0
O216 O 0.93042 0.30326 0.38302 0.0
O217 O 0.96875 0.31608 0.41507 0.0
C218 C 0.98143 0.3293 0.41761 0.0
O219 O 0.98133 0.34062 0.43901 0.0
O220 O 0.95075 0.33526 0.46432 0.0
Mg221 Mg 0.80814 0.74289 0.4286 0.0
C222 C 0.82772 0.73746 0.49156 0.0
O223 O 0.82132 0.72512 0.46578 0.0
C224 C 0.80994 0.76872 0.37073 0.0
O225 O 0.81866 0.76517 0.34698 0.0
C226 C 0.83326 0.74549 0.37043 0.0
O227 O 0.84102 0.75608 0.40107 0.0
O228 O 0.81829 0.73729 0.37274 0.0
O229 O 0.82454 0.74806 0.48406 0.0
O230 O 0.7848 0.72393 0.44951 0.0
C231 C 0.78278 0.71885 0.48914 0.0
O232 O 0.7949 0.72454 0.51631 0.0
O233 O 0.80476 0.76195 0.40781 0.0
H234 H 0.05739 0.5458 0.88372 0.0
H235 H 0.0583 0.56216 0.94478 0.0
H236 H 1.00916 0.54607 0.92382 0.0
H237 H 1.00811 0.52964 0.86236 0.0
H238 H 0.05001 0.58634 0.93975 0.0
H239 H 1.01379 0.53898 0.05905 0.0
H240 H 0.02322 0.53615 1.01216 0.0
H241 H 1.00559 0.53677 1.00426 0.0
C242 C 0.04672 0.54564 0.89216 0.0
C243 C 0.03264 0.53635 0.86816 0.0
C244 C 0.0473 0.55505 0.92702 0.0
C245 C 0.03378 0.55524 0.939 0.0
C246 C 0.01968 0.54595 0.91536 0.0
H247 H 1.0099 0.60039 0.13843 0.0
H248 H 1.01079 0.58497 0.07773 0.0
C249 C 0.01912 0.53661 0.88018 0.0
C250 C 0.03455 0.56539 0.97573 0.0
H251 H 0.02088 0.56452 0.07961 0.0
C252 C 0.04371 0.58161 0.97046 0.0
C253 C 0.02634 0.55915 1.01567 0.0
C254 C 0.01676 0.54181 0.02353 0.0
C255 C 0.04452 0.59179 1.00368 0.0
C256 C 0.03623 0.58555 0.04363 0.0
C257 C 0.02723 0.5693 0.04901 0.0
C258 C 0.03611 0.59557 0.07964 0.0
C259 C 0.0538 0.60909 0.99506 0.0
C260 C 0.05009 0.60675 0.10106 0.0
C261 C 0.04964 0.61574 0.13584 0.0
C262 C 0.03517 0.61356 0.1501 0.0
C263 C 0.02125 0.60238 0.12843 0.0
C264 C 0.02173 0.59351 0.09368 0.0
H265 H 0.05604 0.61173 0.95917 0.0
H266 H 0.04754 0.61479 1.00781 0.0
H267 H 0.06537 0.61429 1.01231 0.0
H268 H 0.06131 0.60834 0.09143 0.0
H269 H 0.06055 0.62417 0.15204 0.0
H270 H 0.5934 0.60868 0.87816 0.0
H271 H 0.57833 0.59103 0.93897 0.0
H272 H 0.54169 0.60153 0.91883 0.0
H273 H 0.55647 0.61894 0.85812 0.0
H274 H 0.56805 0.59799 0.01748 0.0
H275 H 0.51731 0.55393 0.91767 0.0
H276 H 0.53572 0.56827 0.89308 0.0
H277 H 0.52166 0.5735 0.90934 0.0
C278 C 0.5821 0.60715 0.88655 0.0
C279 C 0.57611 0.61516 0.8631 0.0
C280 C 0.57351 0.59708 0.9213 0.0
C281 C 0.55877 0.59477 0.93291 0.0
C282 C 0.55287 0.60286 0.90981 0.0
H283 H 0.48918 0.54264 0.13627 0.0
H284 H 0.50432 0.55986 0.07479 0.0
C285 C 0.56141 0.6129 0.87522 0.0
C286 C 0.5497 0.5843 0.97005 0.0
H287 H 0.51428 0.55213 0.99594 0.0
C288 C 0.55635 0.58789 1.01276 0.0
C289 C 0.53438 0.57119 0.96382 0.0
C290 C 0.52688 0.56637 0.91846 0.0
C291 C 0.54797 0.57891 0.04957 0.0
C292 C 0.53264 0.56583 0.04336 0.0
C293 C 0.526 0.56221 1.00064 0.0
C294 C 0.52348 0.5555 0.08061 0.0
C295 C 0.55548 0.58368 0.09495 0.0
C296 C 0.52912 0.54719 0.10375 0.0
C297 C 0.52053 0.53738 0.1387 0.0
C298 C 0.50605 0.53559 0.15116 0.0
C299 C 0.50031 0.5438 0.1276 0.0
C300 C 0.50893 0.55362 0.09248 0.0
H301 H 0.56526 0.59603 0.09564 0.0
H302 H 0.54668 0.58204 0.12017 0.0
H303 H 0.56039 0.57631 0.10438 0.0
H304 H 0.54014 0.54821 0.09457 0.0
H305 H 0.52528 0.53119 0.15591 0.0
H306 H 0.58762 0.06861 0.1249 0.0
H307 H 0.57368 0.07044 0.05985 0.0
H308 H 0.53918 0.07075 0.14491 0.0
H309 H 0.55317 0.06926 0.20993 0.0
H310 H 0.54405 0.05177 0.02824 0.0
H311 H 0.5527 0.1093 0.071 0.0
H312 H 0.56316 0.10134 0.09901 0.0
H313 H 0.54334 0.09535 0.11459 0.0
C314 C 0.57702 0.06898 0.12974 0.0
C315 C 0.57158 0.06891 0.17265 0.0
C316 C 0.56909 0.07008 0.09253 0.0
C317 C 0.5556 0.07113 0.09753 0.0
C318 C 0.54982 0.07043 0.14025 0.0
H319 H 0.48256 0.05096 0.90708 0.0
H320 H 0.49946 0.05137 0.96684 0.0
C321 C 0.55777 0.06944 0.17741 0.0
C322 C 0.5474 0.07273 0.0582 0.0
H323 H 0.53344 0.09486 1.01467 0.0
C324 C 0.54185 0.06127 0.02509 0.0
C325 C 0.54482 0.0853 0.05354 0.0
C326 C 0.55147 0.09861 0.08619 0.0
C327 C 0.53326 0.06169 0.98841 0.0
C328 C 0.52979 0.07371 0.98525 0.0
C329 C 0.53589 0.08552 0.0174 0.0
C330 C 0.51942 0.07391 0.94969 0.0
C331 C 0.52805 0.04928 0.95328 0.0
C332 C 0.52473 0.08679 0.9213 0.0
C333 C 0.51496 0.0867 0.88726 0.0
C334 C 0.49971 0.07372 0.88112 0.0
C335 C 0.4943 0.06107 0.91049 0.0
C336 C 0.504 0.06122 0.94454 0.0
H337 H 0.53572 0.04422 0.953 0.0
H338 H 0.51587 0.03971 0.96035 0.0
H339 H 0.52817 0.05398 0.91982 0.0
H340 H 0.53654 0.09678 0.92496 0.0
H341 H 0.51946 0.09662 0.86521 0.0
H342 H 0.58535 0.09227 0.36357 0.0
H343 H 0.5697 0.09402 0.4232 0.0
H344 H 0.56083 0.05015 0.47571 0.0
H345 H 0.576 0.04814 0.41589 0.0
H346 H 0.53425 0.05089 0.47092 0.0
H347 H 0.58117 0.10485 0.55212 0.0
H348 H 0.57827 0.10714 0.49446 0.0
H349 H 0.58539 0.09459 0.51082 0.0
C350 C 0.58019 0.08309 0.38812 0.0
C351 C 0.58194 0.07008 0.38503 0.0
C352 C 0.57129 0.08413 0.42228 0.0
C353 C 0.56422 0.07229 0.45429 0.0
C354 C 0.56615 0.05942 0.45143 0.0
H355 H 0.5286 0.0752 0.71092 0.0
H356 H 0.54303 0.07416 0.64734 0.0
C357 C 0.57487 0.05831 0.4172 0.0
C358 C 0.5544 0.07292 0.4902 0.0
H359 H 0.55531 0.09424 0.5793 0.0
C360 C 0.53885 0.06038 0.4946 0.0
C361 C 0.56045 0.08523 0.52134 0.0
C362 C 0.57727 0.09865 0.51984 0.0
C363 C 0.52925 0.05972 0.52946 0.0
C364 C 0.53522 0.07215 0.56022 0.0
C365 C 0.55071 0.08476 0.55557 0.0
C366 C 0.52588 0.07203 0.59861 0.0
C367 C 0.51301 0.04547 0.53383 0.0
C368 C 0.51133 0.07107 0.59251 0.0
C369 C 0.50292 0.07147 0.62899 0.0
C370 C 0.50904 0.0731 0.67218 0.0
C371 C 0.52355 0.07394 0.67813 0.0
C372 C 0.53185 0.0734 0.64177 0.0
H373 H 0.51188 0.0354 0.51522 0.0
H374 H 0.51014 0.04206 0.56907 0.0
H375 H 0.50419 0.04806 0.52014 0.0
H376 H 0.50663 0.07034 0.55951 0.0
H377 H 0.49187 0.07097 0.62323 0.0
H378 H 0.07373 0.6322 0.38224 0.0
H379 H 0.07374 0.6166 0.44418 0.0
H380 H 0.02332 0.58675 0.43226 0.0
H381 H 0.02316 0.60271 0.3705 0.0
H382 H 0.03238 0.59372 0.51755 0.0
H383 H 0.06957 0.57465 0.43812 0.0
H384 H 0.07905 0.59546 0.43874 0.0
H385 H 0.06106 0.58406 0.40756 0.0
C386 C 0.06261 0.62228 0.39255 0.0
C387 C 0.04844 0.61862 0.37111 0.0
C388 C 0.06266 0.61329 0.42787 0.0
C389 C 0.0486 0.60024 0.4422 0.0
C390 C 0.03435 0.59668 0.42147 0.0
H391 H 0.04964 0.53307 0.62595 0.0
H392 H 0.04705 0.54606 0.56052 0.0
C393 C 0.03427 0.6058 0.38622 0.0
C394 C 0.04886 0.59067 0.47962 0.0
H395 H 0.06708 0.57166 0.51703 0.0
C396 C 0.03984 0.58876 0.51727 0.0
C397 C 0.05837 0.58394 0.47904 0.0
C398 C 0.06742 0.58448 0.43849 0.0
C399 C 0.0405 0.5808 0.55487 0.0
C400 C 0.05081 0.57495 0.55533 0.0
C401 C 0.05939 0.57637 0.51708 0.0
C402 C 0.05284 0.56727 0.59502 0.0
C403 C 0.02999 0.57858 0.59346 0.0
C404 C 0.0574 0.57501 0.63601 0.0
C405 C 0.05878 0.56757 0.67357 0.0
C406 C 0.05589 0.55231 0.67077 0.0
C407 C 0.05197 0.54483 0.6293 0.0
C408 C 0.05044 0.55223 0.59184 0.0
H409 H 0.01958 0.57921 0.58282 0.0
H410 H 0.0258 0.5672 0.60999 0.0
H411 H 0.03669 0.58798 0.61804 0.0
H412 H 0.05982 0.58681 0.63906 0.0
H413 H 0.06195 0.57372 0.70491 0.0
H414 H 0.58057 0.63188 0.62425 0.0
H415 H 0.56525 0.61726 0.55874 0.0
H416 H 0.55441 0.57425 0.62201 0.0
H417 H 0.56945 0.58863 0.68734 0.0
H418 H 0.57056 0.59726 0.50532 0.0
H419 H 0.51113 0.56536 0.57996 0.0
H420 H 0.52753 0.58225 0.60575 0.0
H421 H 0.52575 0.56352 0.61029 0.0
C422 C 0.57477 0.6193 0.62436 0.0
C423 C 0.5762 0.61143 0.66111 0.0
C424 C 0.56606 0.61098 0.5869 0.0
C425 C 0.55852 0.59465 0.58575 0.0
C426 C 0.55986 0.5868 0.62248 0.0
H427 H 0.5033 0.52191 0.39172 0.0
H428 H 0.51872 0.53678 0.45673 0.0
C429 C 0.56856 0.59508 0.65976 0.0
C430 C 0.5498 0.58579 0.54558 0.0
H431 H 0.51372 0.55685 0.50887 0.0
C432 C 0.55811 0.58851 0.50595 0.0
C433 C 0.53358 0.57428 0.54663 0.0
C434 C 0.52391 0.57124 0.58781 0.0
C435 C 0.5507 0.57983 0.46752 0.0
C436 C 0.53448 0.56831 0.46857 0.0
C437 C 0.52617 0.56561 0.50819 0.0
C438 C 0.52577 0.55931 0.42853 0.0
C439 C 0.5604 0.58283 0.42642 0.0
C440 C 0.52457 0.56703 0.39123 0.0
C441 C 0.51583 0.5586 0.35416 0.0
C442 C 0.50797 0.54223 0.35365 0.0
C443 C 0.50926 0.5345 0.39095 0.0
C444 C 0.51803 0.54297 0.42815 0.0
H445 H 0.57317 0.58863 0.4344 0.0
H446 H 0.55674 0.57182 0.40844 0.0
H447 H 0.55866 0.59062 0.40395 0.0
H448 H 0.53016 0.57959 0.3911 0.0
H449 H 0.51505 0.56496 0.32614 0.0
H450 H 0.7418 0.89382 0.20655 0.0
H451 H 0.74002 0.90859 0.2678 0.0
H452 H 0.69026 0.8753 0.27791 0.0
H453 H 0.69194 0.86027 0.21655 0.0
H454 H 0.72157 0.92229 0.27316 0.0
H455 H 0.70663 0.87827 0.40554 0.0
H456 H 0.71435 0.87718 0.35267 0.0
H457 H 0.69398 0.87133 0.35752 0.0
C458 C 0.73045 0.88955 0.22182 0.0
C459 C 0.717 0.8758 0.20671 0.0
C460 C 0.72947 0.89805 0.25684 0.0
C461 C 0.71506 0.89296 0.27776 0.0
C462 C 0.70156 0.87929 0.26271 0.0
H463 H 0.68458 0.92802 0.49059 0.0
H464 H 0.68714 0.91356 0.42995 0.0
C465 C 0.70252 0.87075 0.22752 0.0
C466 C 0.71421 0.90222 0.31469 0.0
H467 H 0.70589 0.90076 0.42469 0.0
C468 C 0.7182 0.91762 0.30636 0.0
C469 C 0.70986 0.8961 0.35795 0.0
C470 C 0.70608 0.87986 0.36925 0.0
C471 C 0.7176 0.92696 0.33991 0.0
C472 C 0.7132 0.92083 0.38318 0.0
C473 C 0.70929 0.90545 0.39153 0.0
C474 C 0.71195 0.92993 0.41991 0.0
C475 C 0.72127 0.94316 0.32847 0.0
C476 C 0.72511 0.94393 0.43479 0.0
C477 C 0.72368 0.95232 0.4696 0.0
C478 C 0.70908 0.94678 0.49028 0.0
C479 C 0.69601 0.93268 0.47546 0.0
C480 C 0.69744 0.92435 0.44077 0.0
H481 H 0.7207 0.9447 0.29217 0.0
H482 H 0.71296 0.9458 0.34498 0.0
H483 H 0.73336 0.95176 0.3401 0.0
H484 H 0.7365 0.94831 0.41974 0.0
H485 H 0.73399 0.96309 0.48038 0.0
H486 H 0.16764 0.85143 0.43099 0.0
H487 H 0.18437 0.87018 0.37507 0.0
H488 H 0.18607 0.9074 0.45073 0.0
H489 H 0.16886 0.88854 0.50652 0.0
H490 H 0.18248 0.91076 0.36422 0.0
H491 H 0.23114 0.89953 0.38597 0.0
H492 H 0.21295 0.88198 0.37309 0.0
H493 H 0.2149 0.89218 0.42398 0.0
C494 C 0.17151 0.8636 0.43574 0.0
C495 C 0.16702 0.86852 0.4734 0.0
C496 C 0.18121 0.87433 0.40389 0.0
C497 C 0.18689 0.89027 0.40932 0.0
C498 C 0.18198 0.89518 0.44611 0.0
H499 H 0.26246 0.95874 0.23755 0.0
H500 H 0.24765 0.94353 0.30238 0.0
C501 C 0.17211 0.88439 0.47788 0.0
C502 C 0.19769 0.90168 0.37605 0.0
H503 H 0.23156 0.91292 0.31933 0.0
C504 C 0.1933 0.91135 0.35475 0.0
C505 C 0.21202 0.90276 0.36436 0.0
C506 C 0.21812 0.89368 0.38842 0.0
C507 C 0.20246 0.92152 0.32073 0.0
C508 C 0.21615 0.92171 0.30675 0.0
C509 C 0.22093 0.91259 0.32946 0.0
C510 C 0.22529 0.93082 0.26759 0.0
C511 C 0.19736 0.932 0.30027 0.0
C512 C 0.21777 0.92842 0.22628 0.0
C513 C 0.22614 0.93712 0.18948 0.0
C514 C 0.24232 0.94825 0.19291 0.0
C515 C 0.25001 0.95026 0.23387 0.0
C516 C 0.24155 0.94161 0.27093 0.0
H517 H 0.19026 0.93433 0.32374 0.0
H518 H 0.20764 0.94329 0.2898 0.0
H519 H 0.18987 0.92617 0.27072 0.0
H520 H 0.20537 0.91979 0.22244 0.0
H521 H 0.21989 0.93514 0.15829 0.0
H522 H 0.24798 0.39347 0.46773 0.0
H523 H 0.23278 0.39297 0.4024 0.0
H524 H 0.22681 0.42876 0.46045 0.0
H525 H 0.24193 0.4294 0.52547 0.0
H526 H 0.20114 0.38751 0.39832 0.0
H527 H 0.2457 0.44632 0.33705 0.0
H528 H 0.25038 0.43582 0.37699 0.0
H529 H 0.24035 0.44554 0.3941 0.0
C530 C 0.2434 0.4012 0.46662 0.0
C531 C 0.24625 0.41153 0.50175 0.0
C532 C 0.23473 0.40091 0.42928 0.0
C533 C 0.22891 0.41102 0.42631 0.0
C534 C 0.23145 0.42108 0.4617 0.0
H535 H 0.1756 0.42863 0.22678 0.0
H536 H 0.19076 0.42944 0.29263 0.0
C537 C 0.24004 0.42135 0.49899 0.0
C538 C 0.22001 0.41099 0.38648 0.0
H539 H 0.22084 0.43376 0.30074 0.0
C540 C 0.20546 0.39758 0.37682 0.0
C541 C 0.22565 0.4242 0.35876 0.0
C542 C 0.24143 0.43877 0.36688 0.0
C543 C 0.19626 0.39709 0.34047 0.0
C544 C 0.20195 0.41026 0.31247 0.0
C545 C 0.21649 0.42369 0.32226 0.0
C546 C 0.19316 0.41012 0.27218 0.0
C547 C 0.18037 0.38258 0.33297 0.0
C548 C 0.18985 0.39928 0.23839 0.0
C549 C 0.1812 0.39876 0.20099 0.0
C550 C 0.1758 0.4092 0.19626 0.0
C551 C 0.17955 0.42041 0.22947 0.0
C552 C 0.18819 0.42087 0.2671 0.0
H553 H 0.17586 0.37556 0.36372 0.0
H554 H 0.1716 0.3855 0.32091 0.0
H555 H 0.18147 0.37523 0.3076 0.0
H556 H 0.19392 0.39115 0.24101 0.0
H557 H 0.17868 0.39008 0.17587 0.0
H558 H 0.16066 0.39029 0.97772 0.0
H559 H 0.17568 0.38797 0.91717 0.0
H560 H 0.21263 0.43575 0.93715 0.0
H561 H 0.19792 0.43812 0.99765 0.0
H562 H 0.18604 0.40542 0.83866 0.0
H563 H 0.23674 0.41287 0.93849 0.0
H564 H 0.21841 0.40856 0.96314 0.0
H565 H 0.23258 0.42811 0.94638 0.0
C566 C 0.17203 0.40026 0.96937 0.0
C567 C 0.17812 0.41435 0.99271 0.0
C568 C 0.18058 0.39892 0.93476 0.0
C569 C 0.1954 0.41161 0.92316 0.0
C570 C 0.2014 0.4257 0.94617 0.0
H571 H 0.26464 0.42996 0.71946 0.0
H572 H 0.24973 0.43193 0.78092 0.0
C573 C 0.1929 0.42705 0.98064 0.0
C574 C 0.20441 0.41038 0.88606 0.0
H575 H 0.23969 0.41415 0.86019 0.0
C576 C 0.19772 0.40721 0.84339 0.0
C577 C 0.2197 0.41282 0.89227 0.0
C578 C 0.22725 0.41564 0.93759 0.0
C579 C 0.20602 0.40671 0.80662 0.0
C580 C 0.22131 0.4092 0.81283 0.0
C581 C 0.228 0.41234 0.85549 0.0
C582 C 0.23036 0.40809 0.77563 0.0
C583 C 0.19846 0.40385 0.76129 0.0
C584 C 0.22454 0.39399 0.75281 0.0
C585 C 0.23299 0.39283 0.71787 0.0
C586 C 0.24753 0.40573 0.70509 0.0
C587 C 0.25347 0.41982 0.72837 0.0
C588 C 0.24497 0.42097 0.76348 0.0
H589 H 0.18878 0.40636 0.76048 0.0
H590 H 0.20726 0.41112 0.73587 0.0
H591 H 0.19339 0.39144 0.75225 0.0
H592 H 0.21346 0.38382 0.76222 0.0
H593 H 0.22809 0.38176 0.70091 0.0
H594 H 0.71888 0.86631 0.95635 0.0
H595 H 0.71895 0.88099 0.89117 0.0
H596 H 0.7112 0.91109 0.97501 0.0
H597 H 0.71047 0.89609 0.03981 0.0
H598 H 0.69221 0.90247 0.90622 0.0
H599 H 0.75236 0.92242 0.84632 0.0
H600 H 0.74032 0.90164 0.85032 0.0
H601 H 0.74558 0.91337 0.89967 0.0
C602 C 0.71741 0.87619 0.96087 0.0
C603 C 0.71473 0.88009 1.00322 0.0
C604 C 0.7175 0.88462 0.92359 0.0
C605 C 0.7153 0.89731 0.92811 0.0
C606 C 0.71291 0.90135 0.97055 0.0
H607 H 0.73816 0.96995 0.73802 0.0
H608 H 0.73654 0.95336 0.79945 0.0
C609 C 0.71256 0.8928 1.00763 0.0
C610 C 0.71489 0.90613 0.88878 0.0
H611 H 0.73602 0.92711 0.79909 0.0
C612 C 0.70182 0.9079 0.88284 0.0
C613 C 0.72746 0.91332 0.8584 0.0
C614 C 0.74229 0.91274 0.86416 0.0
C615 C 0.70105 0.91678 0.84787 0.0
C616 C 0.71347 0.92369 0.81694 0.0
C617 C 0.72643 0.92174 0.82255 0.0
C618 C 0.71381 0.93379 0.78009 0.0
C619 C 0.68721 0.91914 0.84552 0.0
C620 C 0.70151 0.92842 0.74867 0.0
C621 C 0.70228 0.93807 0.71377 0.0
C622 C 0.71554 0.9531 0.70914 0.0
C623 C 0.72781 0.9584 0.74054 0.0
C624 C 0.72691 0.9489 0.77568 0.0
H625 H 0.68121 0.91689 0.87796 0.0
H626 H 0.69093 0.93117 0.83494 0.0
H627 H 0.67848 0.91088 0.82109 0.0
H628 H 0.69144 0.91668 0.75061 0.0
H629 H 0.69273 0.93361 0.68977 0.0
H630 H 0.25101 0.92761 1.01069 0.0
H631 H 0.23425 0.91076 0.95104 0.0
H632 H 0.22432 0.94603 0.90949 0.0
H633 H 0.24098 0.96302 0.97009 0.0
H634 H 0.19769 0.91658 0.91152 0.0
H635 H 0.24517 0.91527 0.82055 0.0
H636 H 0.24421 0.90966 0.87747 0.0
H637 H 0.24914 0.92917 0.86402 0.0
C638 C 0.24533 0.93187 0.98887 0.0
C639 C 0.24744 0.94674 0.995 0.0
C640 C 0.23581 0.92222 0.95456 0.0
C641 C 0.2283 0.92725 0.92519 0.0
C642 C 0.23012 0.94197 0.93157 0.0
H643 H 0.18443 0.87957 0.67745 0.0
H644 H 0.20151 0.89808 0.73414 0.0
C645 C 0.23964 0.95166 0.96616 0.0
C646 C 0.21833 0.91692 0.88852 0.0
H647 H 0.2188 0.896 0.80019 0.0
C648 C 0.20232 0.91217 0.88695 0.0
C649 C 0.22443 0.91133 0.85609 0.0
C650 C 0.24171 0.91674 0.85425 0.0
C651 C 0.19213 0.90164 0.85459 0.0
C652 C 0.19807 0.89544 0.82356 0.0
C653 C 0.21419 0.90055 0.82438 0.0
C654 C 0.18785 0.88387 0.78943 0.0
C655 C 0.17516 0.89744 0.85364 0.0
C656 C 0.17471 0.86952 0.80162 0.0
C657 C 0.16486 0.8589 0.76923 0.0
C658 C 0.16807 0.86236 0.72398 0.0
C659 C 0.18158 0.87651 0.71195 0.0
C660 C 0.19136 0.88714 0.74434 0.0
H661 H 0.17362 0.90634 0.87074 0.0
H662 H 0.1707 0.89616 0.81911 0.0
H663 H 0.16785 0.88618 0.871 0.0
H664 H 0.172 0.86655 0.83623 0.0
H665 H 0.15462 0.84808 0.77967 0.0
H666 H 0.38799 0.29144 0.79422 0.0
H667 H 0.38771 0.27577 0.73145 0.0
H668 H 0.35435 0.23381 0.79985 0.0
H669 H 0.35432 0.24924 0.86181 0.0
H670 H 0.39484 0.25251 0.72577 0.0
H671 H 0.33211 0.22878 0.6823 0.0
H672 H 0.34282 0.24501 0.71967 0.0
H673 H 0.33482 0.22536 0.73916 0.0
C674 C 0.38064 0.27888 0.79585 0.0
C675 C 0.37105 0.27161 0.83281 0.0
C676 C 0.38047 0.26994 0.75997 0.0
C677 C 0.3707 0.25363 0.76049 0.0
C678 C 0.36162 0.24638 0.79809 0.0
H679 H 0.35454 0.175 0.60306 0.0
H680 H 0.35574 0.19293 0.66008 0.0
C681 C 0.36171 0.25526 0.83368 0.0
C682 C 0.37 0.24404 0.72215 0.0
H683 H 0.34431 0.2159 0.65012 0.0
C684 C 0.38383 0.24465 0.70888 0.0
C685 C 0.35562 0.2338 0.69998 0.0
C686 C 0.34053 0.23329 0.71067 0.0
C687 C 0.38356 0.23488 0.67516 0.0
C688 C 0.36911 0.22432 0.65411 0.0
C689 C 0.35534 0.22392 0.66668 0.0
C690 C 0.36804 0.21349 0.61914 0.0
C691 C 0.39862 0.23559 0.66296 0.0
C692 C 0.3743 0.21911 0.57706 0.0
C693 C 0.37351 0.2089 0.54432 0.0
C694 C 0.36651 0.19287 0.55313 0.0
C695 C 0.36003 0.18726 0.5952 0.0
C696 C 0.36071 0.19748 0.62781 0.0
H697 H 0.40836 0.24274 0.68667 0.0
H698 H 0.39675 0.22368 0.6618 0.0
H699 H 0.40228 0.24076 0.62946 0.0
H700 H 0.37986 0.23141 0.56963 0.0
H701 H 0.37864 0.21364 0.51233 0.0
H702 H 0.82526 0.21257 0.81528 0.0
H703 H 0.83991 0.22907 0.75207 0.0
H704 H 0.87542 0.21692 0.77058 0.0
H705 H 0.8609 0.20038 0.83301 0.0
H706 H 0.87107 0.25474 0.75025 0.0
H707 H 0.86407 0.2076 0.63923 0.0
H708 H 0.85215 0.20384 0.6878 0.0
H709 H 0.87183 0.20742 0.69305 0.0
C710 C 0.83615 0.21337 0.80572 0.0
C711 C 0.84185 0.20508 0.82907 0.0
C712 C 0.84451 0.22279 0.76966 0.0
C713 C 0.85861 0.22399 0.75616 0.0
C714 C 0.86439 0.21589 0.77975 0.0
H715 H 0.92957 0.27633 0.5563 0.0
H716 H 0.91425 0.2595 0.6182 0.0
C717 C 0.85609 0.2065 0.81568 0.0
C718 C 0.86761 0.23405 0.71825 0.0
H719 H 0.88271 0.23356 0.61742 0.0
C720 C 0.87352 0.25011 0.72105 0.0
C721 C 0.87086 0.22798 0.68029 0.0
C722 C 0.86428 0.21075 0.67458 0.0
C723 C 0.88286 0.26031 0.68731 0.0
C724 C 0.88617 0.25425 0.64946 0.0
C725 C 0.88023 0.23819 0.64658 0.0
C726 C 0.89544 0.26435 0.61196 0.0
C727 C 0.88942 0.27754 0.6929 0.0
C728 C 0.88982 0.27243 0.58755 0.0
C729 C 0.89849 0.282 0.5523 0.0
C730 C 0.91297 0.28364 0.54051 0.0
C731 C 0.9185 0.27535 0.56461 0.0
C732 C 0.90976 0.26573 0.59994 0.0
H733 H 0.88929 0.28068 0.72808 0.0
H734 H 0.90168 0.28442 0.68062 0.0
H735 H 0.8821 0.28092 0.67343 0.0
H736 H 0.87865 0.27128 0.59567 0.0
H737 H 0.89382 0.28813 0.53436 0.0
H738 H 0.92591 0.74582 0.79382 0.0
H739 H 0.9122 0.74768 0.72864 0.0
H740 H 0.86818 0.72363 0.79871 0.0
H741 H 0.88195 0.7223 0.86473 0.0
H742 H 0.89029 0.72717 0.67655 0.0
H743 H 0.86697 0.76068 0.75576 0.0
H744 H 0.88126 0.75734 0.78272 0.0
H745 H 0.86064 0.7426 0.7837 0.0
C746 C 0.9133 0.74089 0.79539 0.0
C747 C 0.90503 0.73401 0.83463 0.0
C748 C 0.90547 0.74199 0.75806 0.0
C749 C 0.88919 0.73615 0.75898 0.0
C750 C 0.88081 0.7287 0.79757 0.0
H751 H 0.8292 0.71348 0.52832 0.0
H752 H 0.84459 0.71403 0.59232 0.0
C753 C 0.88868 0.72779 0.83517 0.0
C754 C 0.88101 0.73761 0.71928 0.0
H755 H 0.85605 0.74963 0.68483 0.0
C756 C 0.8829 0.73219 0.67837 0.0
C757 C 0.87164 0.7445 0.72122 0.0
C758 C 0.87014 0.75177 0.76311 0.0
C759 C 0.87538 0.73306 0.63976 0.0
C760 C 0.86519 0.73902 0.6423 0.0
C761 C 0.86367 0.74487 0.68291 0.0
C762 C 0.85568 0.73883 0.6036 0.0
C763 C 0.87866 0.7278 0.59656 0.0
C764 C 0.85619 0.75248 0.58957 0.0
C765 C 0.84707 0.75214 0.55328 0.0
C766 C 0.83736 0.73815 0.53028 0.0
C767 C 0.83675 0.72451 0.5448 0.0
C768 C 0.84565 0.72481 0.5813 0.0
H769 H 0.89037 0.72884 0.59726 0.0
H770 H 0.86965 0.71535 0.59097 0.0
H771 H 0.87828 0.73468 0.56818 0.0
H772 H 0.86372 0.76342 0.60649 0.0
H773 H 0.84774 0.76282 0.54297 0.0
H774 H 0.82152 0.72988 0.29143 0.0
H775 H 0.83667 0.72925 0.22848 0.0
H776 H 0.8798 0.75711 0.30244 0.0
H777 H 0.86489 0.75807 0.36464 0.0
H778 H 0.8818 0.76817 0.21925 0.0
H779 H 0.85829 0.70448 0.21433 0.0
H780 H 0.84363 0.70986 0.21035 0.0
H781 H 0.85501 0.7138 0.26048 0.0
C782 C 0.83422 0.73574 0.29434 0.0
C783 C 0.84199 0.74402 0.33305 0.0
C784 C 0.84286 0.73533 0.25841 0.0
C785 C 0.85939 0.74303 0.26085 0.0
C786 C 0.86709 0.75112 0.29969 0.0
H787 H 0.92573 0.73246 0.10736 0.0
H788 H 0.90821 0.7329 0.16272 0.0
C789 C 0.85851 0.75162 0.33532 0.0
C790 C 0.86889 0.74313 0.2229 0.0
H791 H 0.87619 0.71972 0.15833 0.0
C792 C 0.88053 0.75757 0.20578 0.0
C793 C 0.86731 0.7293 0.20561 0.0
C794 C 0.85549 0.71347 0.2238 0.0
C795 C 0.89079 0.75859 0.17241 0.0
C796 C 0.88917 0.74476 0.15495 0.0
C797 C 0.87737 0.73031 0.17159 0.0
C798 C 0.90009 0.74502 0.12114 0.0
C799 C 0.90365 0.77449 0.15736 0.0
C800 C 0.90144 0.75176 0.07928 0.0
C801 C 0.91159 0.75165 0.04753 0.0
C802 C 0.92046 0.74464 0.05694 0.0
C803 C 0.91911 0.73798 0.09897 0.0
C804 C 0.90904 0.73816 0.13066 0.0
H805 H 0.90569 0.78373 0.18135 0.0
H806 H 0.91489 0.77478 0.15277 0.0
H807 H 0.9002 0.77726 0.12513 0.0
H808 H 0.89444 0.75687 0.07086 0.0
H809 H 0.91222 0.75674 1.01534 0.0
H810 H 0.39698 0.23409 0.36157 0.0
H811 H 0.39476 0.2474 0.29641 0.0
H812 H 0.37235 0.20413 0.22378 0.0
H813 H 0.37488 0.19079 0.28851 0.0
H814 H 0.39358 0.22777 0.17373 0.0
H815 H 0.35496 0.24515 0.25346 0.0
H816 H 0.37309 0.252 0.2834 0.0
H817 H 0.35931 0.23139 0.27838 0.0
C818 C 0.39165 0.22741 0.33168 0.0
C819 C 0.38603 0.21135 0.33036 0.0
C820 C 0.39025 0.23501 0.29455 0.0
C821 C 0.383 0.22669 0.25555 0.0
C822 C 0.37785 0.21077 0.25364 0.0
H823 H 0.35455 0.26665 0.04017 0.0
H824 H 0.35405 0.25008 0.10106 0.0
C825 C 0.37935 0.20316 0.29067 0.0
C826 C 0.381 0.23465 0.21659 0.0
H827 H 0.36639 0.25751 0.18452 0.0
C828 C 0.38752 0.23417 0.17602 0.0
C829 C 0.37279 0.24272 0.21922 0.0
C830 C 0.36449 0.24272 0.26083 0.0
C831 C 0.38658 0.242 0.13854 0.0
C832 C 0.37925 0.25089 0.14197 0.0
C833 C 0.37219 0.25088 0.18204 0.0
C834 C 0.37938 0.26078 0.10498 0.0
C835 C 0.39339 0.2406 0.09557 0.0
C836 C 0.39376 0.27248 0.0876 0.0
C837 C 0.39407 0.28185 0.05285 0.0
C838 C 0.38 0.27991 0.03502 0.0
C839 C 0.36558 0.26842 0.05309 0.0
C840 C 0.36528 0.25894 0.08784 0.0
H841 H 0.39377 0.22972 0.09449 0.0
H842 H 0.38646 0.24073 0.06662 0.0
H843 H 0.40565 0.25056 0.09253 0.0
H844 H 0.4048 0.27445 0.1011 0.0
H845 H 0.4054 0.2907 0.04013 0.0
H846 H 0.91981 0.261 0.34302 0.0
H847 H 0.90345 0.24668 0.27941 0.0
H848 H 0.89555 0.28428 0.25087 0.0
H849 H 0.91217 0.2989 0.31455 0.0
H850 H 0.87198 0.23665 0.26247 0.0
H851 H 0.91074 0.27729 0.13202 0.0
H852 H 0.91739 0.27814 0.18838 0.0
H853 H 0.90526 0.28604 0.17448 0.0
C854 C 0.91465 0.2663 0.32326 0.0
C855 C 0.91738 0.28116 0.33381 0.0
C856 C 0.90527 0.25805 0.28688 0.0
C857 C 0.89845 0.26448 0.26003 0.0
C858 C 0.90095 0.27923 0.27068 0.0
H859 H 0.83823 0.23102 0.02735 0.0
H860 H 0.85466 0.24576 0.09049 0.0
C861 C 0.91037 0.28752 0.30722 0.0
C862 C 0.88857 0.25553 0.22137 0.0
H863 H 0.88611 0.25611 0.10852 0.0
C864 C 0.87507 0.24088 0.22878 0.0
C865 C 0.89266 0.26107 0.17747 0.0
C866 C 0.90737 0.27643 0.16736 0.0
C867 C 0.86542 0.2317 0.19354 0.0
C868 C 0.86953 0.23721 0.14962 0.0
C869 C 0.88301 0.25189 0.14221 0.0
C870 C 0.85977 0.22813 0.11096 0.0
C871 C 0.8507 0.21635 0.20371 0.0
C872 C 0.85736 0.21337 0.10102 0.0
C873 C 0.84791 0.20484 0.06481 0.0
C874 C 0.84078 0.21098 0.0378 0.0
C875 C 0.84348 0.22589 0.04748 0.0
C876 C 0.8529 0.23437 0.08357 0.0
H877 H 0.84723 0.21561 0.23892 0.0
H878 H 0.84072 0.21455 0.1823 0.0
H879 H 0.85287 0.20674 0.19724 0.0
H880 H 0.86281 0.20846 0.12123 0.0
H881 H 0.84613 0.19344 0.05814 0.0
H882 H 0.0849 0.69417 0.29339 0.0
H883 H 0.10174 0.71956 0.32929 0.0
H884 H 0.07183 0.70348 0.44396 0.0
H885 H 0.05534 0.67823 0.40918 0.0
H886 H 0.09409 0.74029 0.3543 0.0
H887 H 0.11426 0.7231 0.50273 0.0
H888 H 0.10515 0.71019 0.45606 0.0
H889 H 0.09323 0.71166 0.49819 0.0
C890 C 0.08207 0.696 0.32651 0.0
C891 C 0.06879 0.68414 0.34842 0.0
C892 C 0.0917 0.71051 0.34699 0.0
C893 C 0.08827 0.71335 0.38978 0.0
C894 C 0.07506 0.70147 0.41159 0.0
H895 H 0.09821 0.79402 0.50792 0.0
H896 H 0.09169 0.7705 0.46729 0.0
C897 C 0.06551 0.68703 0.39135 0.0
C898 C 0.09752 0.72903 0.41055 0.0
H899 H 0.11397 0.74712 0.50901 0.0
C900 C 0.09872 0.74184 0.38782 0.0
C901 C 0.10388 0.73121 0.45397 0.0
C902 C 0.10422 0.71832 0.47889 0.0
C903 C 0.10508 0.75644 0.40838 0.0
C904 C 0.11003 0.75819 0.45325 0.0
C905 C 0.10989 0.74572 0.47493 0.0
C906 C 0.1142 0.77244 0.47901 0.0
C907 C 0.10619 0.76977 0.38195 0.0
C908 C 0.12881 0.78105 0.50098 0.0
C909 C 0.13253 0.79451 0.52494 0.0
C910 C 0.12168 0.79953 0.5274 0.0
C911 C 0.10694 0.79062 0.50634 0.0
C912 C 0.10322 0.7772 0.48272 0.0
H913 H 0.10727 0.76826 0.34598 0.0
H914 H 0.09529 0.77011 0.38664 0.0
H915 H 0.11642 0.78111 0.39274 0.0
H916 H 0.1374 0.77748 0.49902 0.0
H917 H 0.14398 0.80111 0.54083 0.0
H918 H 0.44107 0.5275 0.36343 0.0
H919 H 0.41637 0.51721 0.40377 0.0
H920 H 0.39856 0.47243 0.34187 0.0
H921 H 0.423 0.48273 0.30044 0.0
H922 H 0.37616 0.47975 0.34595 0.0
H923 H 0.40507 0.48935 0.51063 0.0
H924 H 0.41247 0.5068 0.47843 0.0
H925 H 0.4153 0.49142 0.45966 0.0
C926 C 0.43185 0.51549 0.35812 0.0
C927 C 0.43408 0.50591 0.32894 0.0
C928 C 0.41777 0.50959 0.38151 0.0
C929 C 0.40574 0.49393 0.37675 0.0
C930 C 0.40771 0.48452 0.34637 0.0
H931 H 0.33028 0.4362 0.55578 0.0
H932 H 0.35479 0.45041 0.5144 0.0
C933 C 0.42171 0.49044 0.32265 0.0
C934 C 0.39119 0.48721 0.40374 0.0
H935 H 0.37783 0.48043 0.51021 0.0
C936 C 0.37653 0.47992 0.38187 0.0
C937 C 0.39165 0.48722 0.45067 0.0
C938 C 0.40695 0.49397 0.4763 0.0
C939 C 0.36234 0.47263 0.4055 0.0
C940 C 0.36281 0.47299 0.45242 0.0
C941 C 0.37747 0.48031 0.47429 0.0
C942 C 0.34823 0.46513 0.4794 0.0
C943 C 0.34701 0.46415 0.37987 0.0
C944 C 0.33654 0.46897 0.47456 0.0
C945 C 0.32241 0.46075 0.49793 0.0
C946 C 0.31981 0.4487 0.52715 0.0
C947 C 0.33186 0.44539 0.53353 0.0
C948 C 0.3459 0.45351 0.50984 0.0
H949 H 0.34877 0.4614 0.34557 0.0
H950 H 0.33844 0.45311 0.39656 0.0
H951 H 0.34182 0.47163 0.37766 0.0
H952 H 0.33823 0.47818 0.45226 0.0
H953 H 0.31345 0.4637 0.49255 0.0
H954 H 0.67346 0.97513 0.49985 0.0
H955 H 0.65934 0.98227 0.44677 0.0
H956 H 0.67392 0.02443 0.52017 0.0
H957 H 0.68825 0.01759 0.57267 0.0
H958 H 0.63557 0.98922 0.4529 0.0
H959 H 0.69134 0.04067 0.39714 0.0
H960 H 0.69087 0.02568 0.4315 0.0
H961 H 0.68852 0.04071 0.45574 0.0
C962 C 0.67349 0.98583 0.505 0.0
C963 C 0.68215 0.99589 0.5402 0.0
C964 C 0.66543 0.9899 0.47459 0.0
C965 C 0.6659 1.00407 0.47889 0.0
C966 C 0.67374 0.01364 0.51552 0.0
H967 H 0.61117 0.03851 0.35479 0.0
H968 H 0.62062 0.02489 0.40074 0.0
C969 C 0.68185 0.00965 0.54568 0.0
C970 C 0.6588 0.00925 0.44435 0.0
H971 H 0.66767 0.03933 0.37379 0.0
C972 C 0.64258 1.00011 0.43531 0.0
C973 C 0.66802 0.02328 0.42062 0.0
C974 C 0.68568 0.03307 0.42634 0.0
C975 C 0.63524 1.00494 0.4044 0.0
C976 C 0.64433 0.01945 0.38265 0.0
C977 C 0.66064 0.02828 0.39064 0.0
C978 C 0.63725 0.02608 0.35264 0.0
C979 C 0.61787 0.99438 0.39517 0.0
C980 C 0.64348 0.03144 0.31024 0.0
C981 C 0.63828 0.0395 0.28411 0.0
C982 C 0.62669 0.04234 0.29978 0.0
C983 C 0.62002 0.03643 0.34149 0.0
C984 C 0.62534 0.02851 0.36778 0.0
H985 H 0.61398 0.98202 0.4021 0.0
H986 H 0.61115 0.99767 0.41711 0.0
H987 H 0.61488 0.99536 0.36023 0.0
H988 H 0.65271 0.02976 0.29781 0.0
H989 H 0.64366 0.04388 0.25215 0.0
H990 H 0.66228 0.10697 0.24517 0.0
H991 H 0.68829 0.12136 0.21101 0.0
H992 H 0.66739 0.1268 0.0916 0.0
H993 H 0.64143 0.11265 0.12557 0.0
H994 H 0.69667 0.11197 0.13538 0.0
H995 H 0.70511 0.17064 0.11023 0.0
H996 H 0.69044 0.15645 0.14713 0.0
H997 H 0.68686 0.155 0.08836 0.0
C998 C 0.66324 0.11147 0.21193 0.0
C999 C 0.64975 0.10865 0.18814 0.0
C1000 C 0.67812 0.11967 0.19242 0.0
C1001 C 0.67983 0.12531 0.1489 0.0
C1002 C 0.66643 0.12285 0.1255 0.0
H1003 H 0.75839 0.1653 0.96321 0.0
H1004 H 0.73266 0.15519 0.99837 0.0
C1005 C 0.65156 0.11466 0.14495 0.0
C1006 C 0.69537 0.13259 0.12678 0.0
H1007 H 0.72335 0.16562 0.07461 0.0
C1008 C 0.70254 0.12374 0.12237 0.0
C1009 C 0.70294 0.14789 0.10934 0.0
C1010 C 0.69603 0.15812 0.11427 0.0
C1011 C 0.71699 0.12968 0.10073 0.0
C1012 C 0.72466 0.14502 0.08368 0.0
C1013 C 0.71744 0.15386 0.08769 0.0
C1014 C 0.7404 0.15216 0.06289 0.0
C1015 C 0.72381 0.11936 0.09564 0.0
C1016 C 0.75334 0.1542 0.08778 0.0
C1017 C 0.76796 0.1599 0.06789 0.0
C1018 C 0.77002 0.16381 0.02264 0.0
C1019 C 0.75719 0.16235 0.99807 0.0
C1020 C 0.74249 0.15659 0.0181 0.0
H1021 H 0.71469 0.10685 0.09956 0.0
H1022 H 0.72939 0.12103 0.06276 0.0
H1023 H 0.73298 0.1224 0.12153 0.0
H1024 H 0.75207 0.15117 0.1226 0.0
H1025 H 0.7776 0.16103 0.08798 0.0
H1026 H 0.98924 0.73407 0.99207 0.0
H1027 H 0.99495 0.71695 0.03528 0.0
H1028 H 0.94533 0.68277 0.042 0.0
H1029 H 0.93945 0.69998 0.99859 0.0
H1030 H 0.96118 0.69008 0.12493 0.0
H1031 H 0.9929 0.67643 1.0005 0.0
H1032 H 1.00028 0.69692 1.0047 0.0
H1033 H 0.98043 0.68399 0.98553 0.0
C1034 C 0.97951 0.72284 1.00218 0.0
C1035 C 0.96388 0.71839 0.9918 0.0
C1036 C 0.98282 0.71301 0.02671 0.0
C1037 C 0.97059 0.6985 0.0414 0.0
C1038 C 0.95495 0.69388 0.03068 0.0
H1039 H 1.00032 0.64045 0.18051 0.0
H1040 H 0.98475 0.64734 0.1325 0.0
C1041 C 0.95162 0.7037 1.00577 0.0
C1042 C 0.9743 0.68879 0.07041 0.0
H1043 H 0.99764 0.67304 0.07691 0.0
C1044 C 0.96892 0.68609 0.11424 0.0
C1045 C 0.98422 0.6834 0.05634 0.0
C1046 C 0.98967 0.68518 1.00905 0.0
C1047 C 0.97399 0.67901 0.14506 0.0
C1048 C 0.98485 0.67468 0.13178 0.0
C1049 C 0.98944 0.67649 0.08726 0.0
C1050 C 0.99266 0.66954 0.16408 0.0
C1051 C 0.96792 0.6765 0.19179 0.0
C1052 C 1.00216 0.67965 0.19804 0.0
C1053 C 1.01108 0.67578 0.22538 0.0
C1054 C 1.01075 0.66172 0.21929 0.0
C1055 C 1.00078 0.65133 0.18627 0.0
C1056 C 0.99191 0.65527 0.15871 0.0
H1057 H 0.95631 0.67566 0.19306 0.0
H1058 H 0.96674 0.66577 0.20634 0.0
H1059 H 0.97632 0.68656 0.21256 0.0
H1060 H 1.00319 0.69086 0.20229 0.0
H1061 H 0.01864 0.68407 0.25038 0.0
H1062 H 0.38696 0.34127 0.07191 0.0
H1063 H 0.40297 0.36684 0.10546 0.0
H1064 H 0.43432 0.38196 0.99389 0.0
H1065 H 0.41791 0.35629 0.95909 0.0
H1066 H 0.43322 0.38343 0.13235 0.0
H1067 H 0.42254 0.41492 0.99743 0.0
H1068 H 0.4118 0.39396 1.00088 0.0
H1069 H 0.43164 0.40427 0.98069 0.0
C1070 C 0.39726 0.34997 0.05434 0.0
C1071 C 0.40105 0.34675 1.01252 0.0
C1072 C 0.40647 0.36462 0.07375 0.0
C1073 C 0.41975 0.37643 0.05203 0.0
C1074 C 0.42393 0.37314 1.0109 0.0
H1075 H 0.47658 0.4648 0.20198 0.0
H1076 H 0.46963 0.44073 0.16214 0.0
C1077 C 0.4146 0.35844 0.99115 0.0
C1078 C 0.42865 0.39221 0.07243 0.0
H1079 H 0.43739 0.42967 0.05869 0.0
C1080 C 0.4343 0.3936 0.11609 0.0
C1081 C 0.42996 0.40545 0.05129 0.0
C1082 C 0.42357 0.40464 1.00515 0.0
C1083 C 0.44059 0.40764 0.13981 0.0
C1084 C 0.44162 0.42079 0.11893 0.0
C1085 C 0.43662 0.41959 0.07463 0.0
C1086 C 0.44621 0.43539 0.1435 0.0
C1087 C 0.44525 0.40801 0.18774 0.0
C1088 C 0.4355 0.44054 0.14576 0.0
C1089 C 0.43949 0.45429 0.16791 0.0
C1090 C 0.4543 0.46326 0.18858 0.0
C1091 C 0.46503 0.45807 0.18673 0.0
C1092 C 0.46105 0.4443 0.16409 0.0
H1093 H 0.44061 0.39612 0.20133 0.0
H1094 H 0.45828 0.41442 0.19058 0.0
H1095 H 0.44089 0.41411 0.20841 0.0
H1096 H 0.42397 0.43387 0.13032 0.0
H1097 H 0.43092 0.4579 0.16872 0.0
H1098 H 0.957 0.36399 0.46688 0.0
H1099 H 0.96728 0.38965 0.50144 0.0
H1100 H 0.97375 0.37182 0.62484 0.0
H1101 H 0.96354 0.34629 0.59099 0.0
H1102 H 0.95761 0.39866 0.58827 0.0
H1103 H 0.0185 0.40931 0.58461 0.0
H1104 H 1.00289 0.39508 0.54939 0.0
H1105 H 1.00358 0.39091 0.60695 0.0
C1106 C 0.96044 0.36549 0.5015 0.0
C1107 C 0.95958 0.35311 0.52602 0.0
C1108 C 0.96627 0.38014 0.52119 0.0
C1109 C 0.97137 0.38262 0.56556 0.0
C1110 C 0.96996 0.37015 0.59048 0.0
H1111 H 1.00569 0.46323 0.74145 0.0
H1112 H 0.98976 0.43729 0.70767 0.0
C1113 C 0.96414 0.35556 0.57097 0.0
C1114 C 0.97916 0.39842 0.5853 0.0
H1115 H 0.01493 0.42787 0.6218 0.0
C1116 C 0.97014 0.4051 0.59557 0.0
C1117 C 0.9955 0.40676 0.59456 0.0
C1118 C 1.00578 0.40027 0.5831 0.0
C1119 C 0.97709 0.41993 0.61536 0.0
C1120 C 0.99342 0.42816 0.62518 0.0
C1121 C 1.0024 0.42148 0.61451 0.0
C1122 C 1.00172 0.44404 0.64468 0.0
C1123 C 0.96704 0.42681 0.62494 0.0
C1124 C 1.01364 0.4564 0.6205 0.0
C1125 C 0.02274 0.47111 0.63964 0.0
C1126 C 0.0202 0.47382 0.68361 0.0
C1127 C 1.00792 0.46154 0.7075 0.0
C1128 C 0.99877 0.44674 0.68818 0.0
H1129 H 0.95541 0.42033 0.60791 0.0
H1130 H 0.96502 0.42638 0.66113 0.0
H1131 H 0.97311 0.4392 0.61451 0.0
H1132 H 0.01613 0.45458 0.58694 0.0
H1133 H 0.03202 0.48029 0.62011 0.0
H1134 H 0.64635 0.62657 0.67115 0.0
H1135 H 0.67158 0.63753 0.63297 0.0
H1136 H 0.68313 0.68379 0.66995 0.0
H1137 H 0.65833 0.67291 0.70953 0.0
H1138 H 0.68274 0.65629 0.56405 0.0
H1139 H 0.72282 0.68579 0.70597 0.0
H1140 H 0.70205 0.67219 0.71304 0.0
H1141 H 0.7091 0.69222 0.69895 0.0
C1142 C 0.65438 0.63906 0.6717 0.0
C1143 C 0.65039 0.64885 0.69379 0.0
C1144 C 0.66878 0.64532 0.6497 0.0
C1145 C 0.67943 0.66149 0.64914 0.0
C1146 C 0.67538 0.67126 0.67096 0.0
H1147 H 0.75432 0.714 0.45965 0.0
H1148 H 0.72884 0.69881 0.49644 0.0
C1149 C 0.66112 0.66501 0.69347 0.0
C1150 C 0.69448 0.66822 0.6244 0.0
H1151 H 0.73406 0.69376 0.63394 0.0
C1152 C 0.69399 0.66436 0.57946 0.0
C1153 C 0.70923 0.67856 0.64452 0.0
C1154 C 0.71087 0.68229 0.69338 0.0
C1155 C 0.70775 0.67085 0.55392 0.0
C1156 C 0.72237 0.68188 0.57346 0.0
C1157 C 0.72287 0.68545 0.61864 0.0
C1158 C 0.73737 0.68989 0.54818 0.0
C1159 C 0.70646 0.66557 0.50653 0.0
C1160 C 0.75073 0.6901 0.56497 0.0
C1161 C 0.76533 0.69904 0.54459 0.0
C1162 C 0.76689 0.70786 0.50659 0.0
C1163 C 0.75342 0.70716 0.48856 0.0
C1164 C 0.73883 0.69841 0.5095 0.0
H1165 H 0.69593 0.65379 0.50136 0.0
H1166 H 0.70521 0.67375 0.48445 0.0
H1167 H 0.71707 0.66533 0.49653 0.0
H1168 H 0.74996 0.68364 0.59465 0.0
H1169 H 0.77549 0.69932 0.55921 0.0
H1170 H 0.40965 0.15624 0.45699 0.0
H1171 H 0.42422 0.14585 0.49481 0.0
H1172 H 0.4349 0.17784 0.60291 0.0
H1173 H 0.42026 0.18823 0.5656 0.0
H1174 H 0.45607 0.16066 0.52684 0.0
H1175 H 0.41247 0.13462 0.66276 0.0
H1176 H 0.40834 0.14131 0.61169 0.0
H1177 H 0.42064 0.15508 0.65339 0.0
C1178 C 0.41521 0.16118 0.48862 0.0
C1179 C 0.41366 0.17299 0.5084 0.0
C1180 C 0.42354 0.15522 0.51019 0.0
C1181 C 0.43041 0.16089 0.55201 0.0
C1182 C 0.42944 0.17311 0.57103 0.0
H1183 H 0.47164 0.12286 0.73547 0.0
H1184 H 0.46391 0.14024 0.70133 0.0
C1185 C 0.42113 0.17909 0.54949 0.0
C1186 C 0.43812 0.15364 0.57617 0.0
H1187 H 0.4344 0.13152 0.66688 0.0
C1188 C 0.45139 0.15436 0.55757 0.0
C1189 C 0.43205 0.14548 0.61641 0.0
C1190 C 0.41752 0.14392 0.63722 0.0
C1191 C 0.45866 0.14701 0.57791 0.0
C1192 C 0.4523 0.13846 0.61744 0.0
C1193 C 0.4393 0.13811 0.63667 0.0
C1194 C 0.45813 0.12878 0.63745 0.0
C1195 C 0.4731 0.14849 0.55686 0.0
C1196 C 0.4574 0.11657 0.613 0.0
C1197 C 0.46177 0.10666 0.63234 0.0
C1198 C 0.46689 0.10867 0.67675 0.0
C1199 C 0.46782 0.12104 0.70115 0.0
C1200 C 0.46339 0.13096 0.68171 0.0
H1201 H 0.47931 0.15912 0.53606 0.0
H1202 H 0.48146 0.14885 0.58229 0.0
H1203 H 0.4695 0.13827 0.53512 0.0
H1204 H 0.45304 0.11441 0.57917 0.0
H1205 H 0.46085 0.09724 0.61255 0.0
H1206 H 0.31155 1.00649 0.95435 0.0
H1207 H 0.33643 0.01482 0.91807 0.0
H1208 H 0.35057 0.99636 0.02624 0.0
H1209 H 0.32555 0.98816 0.0636 0.0
H1210 H 0.37356 0.02549 1.0044 0.0
H1211 H 0.35167 0.99046 0.85152 0.0
H1212 H 0.34192 1.00108 0.86028 0.0
H1213 H 0.33942 0.98639 0.89953 0.0
C1214 C 0.31984 1.00404 0.97044 0.0
C1215 C 0.31652 0.99663 1.01196 0.0
C1216 C 0.33404 1.00869 0.94933 0.0
C1217 C 0.34525 1.00592 0.96886 0.0
C1218 C 0.34201 0.99847 1.0103 0.0
H1219 H 0.43126 0.03534 0.81316 0.0
H1220 H 0.40701 0.01872 0.85476 0.0
C1221 C 0.32773 0.9938 0.03162 0.0
C1222 C 0.36074 0.01194 0.94717 0.0
H1223 H 0.37738 0.01405 0.84685 0.0
C1224 C 0.37443 0.02276 0.97021 0.0
C1225 C 0.36198 1.00818 0.90281 0.0
C1226 C 0.34796 0.99576 0.87731 0.0
C1227 C 0.38911 0.03067 0.94921 0.0
C1228 C 0.39008 0.02796 0.90368 0.0
C1229 C 0.37661 0.01636 0.8815 0.0
C1230 C 0.40466 0.03781 0.87793 0.0
C1231 C 0.40341 0.04205 0.97594 0.0
C1232 C 0.41113 0.05397 0.87608 0.0
C1233 C 0.42491 0.06344 0.85256 0.0
C1234 C 0.43248 0.05695 0.82979 0.0
C1235 C 0.42572 0.04069 0.83039 0.0
C1236 C 0.4119 0.03119 0.85423 0.0
H1237 H 0.40189 0.03893 1.01165 0.0
H1238 H 0.41421 0.04252 0.96409 0.0
H1239 H 0.4051 0.05385 0.97284 0.0
H1240 H 0.4055 0.0593 0.89289 0.0
H1241 H 0.42967 0.07589 0.85244 0.0
H1242 H 0.08983 0.50495 0.79009 0.0
H1243 H 0.10503 0.49418 0.82267 0.0
H1244 H 0.07636 0.48097 0.9396 0.0
H1245 H 0.0612 0.49158 0.90769 0.0
H1246 H 0.12172 0.50044 0.91143 0.0
H1247 H 0.07165 0.43981 0.88813 0.0
H1248 H 0.07308 0.45614 0.8583 0.0
H1249 H 0.06687 0.45279 0.91501 0.0
C1250 C 0.08687 0.49987 0.82288 0.0
C1251 C 0.0742 0.49899 0.84606 0.0
C1252 C 0.09558 0.49376 0.84146 0.0
C1253 C 0.09168 0.48664 0.88332 0.0
C1254 C 0.07943 0.48627 0.90706 0.0
H1255 H 0.13628 0.45243 0.06289 0.0
H1256 H 0.12669 0.46796 0.02659 0.0
C1257 C 0.07078 0.49235 0.88867 0.0
C1258 C 0.09979 0.47885 0.90168 0.0
H1259 H 0.09317 0.44311 0.93156 0.0
C1260 C 0.11556 0.4879 0.91563 0.0
C1261 C 0.09171 0.4625 0.9068 0.0
C1262 C 0.07493 0.45218 0.89098 0.0
C1263 C 0.12337 0.48099 0.93552 0.0
C1264 C 0.11512 0.46467 0.94184 0.0
C1265 C 0.09945 0.45564 0.927 0.0
C1266 C 0.12245 0.45651 0.963 0.0
C1267 C 0.1404 0.49117 0.94918 0.0
C1268 C 0.12323 0.44491 0.93942 0.0
C1269 C 0.12857 0.436 0.96007 0.0
C1270 C 0.13321 0.43841 1.00492 0.0
C1271 C 0.13286 0.45033 0.02828 0.0
C1272 C 0.12746 0.45926 1.0075 0.0
H1273 H 0.14604 0.50272 0.93267 0.0
H1274 H 0.14112 0.49308 0.9855 0.0
H1275 H 0.14717 0.48548 0.94124 0.0
H1276 H 0.11939 0.44256 0.90512 0.0
H1277 H 0.12875 0.42697 0.94097 0.0
H1278 H 0.62511 0.67714 0.91241 0.0
H1279 H 0.63503 0.70225 0.94843 0.0
H1280 H 0.62849 0.72113 0.82709 0.0
H1281 H 0.61834 0.69582 0.79054 0.0
H1282 H 0.6619 0.72931 0.9207 0.0
H1283 H 0.61015 0.73677 0.92241 0.0
H1284 H 0.60834 0.71807 0.91422 0.0
H1285 H 0.61462 0.73184 0.86957 0.0
C1286 C 0.62556 0.68654 0.89336 0.0
C1287 C 0.62101 0.68448 0.84844 0.0
C1288 C 0.63123 0.7009 0.91412 0.0
C1289 C 0.63243 0.71354 0.8906 0.0
C1290 C 0.62743 0.71146 0.8461 0.0
H1291 H 0.69553 0.81069 0.94869 0.0
H1292 H 0.67939 0.78507 0.91496 0.0
C1293 C 0.62171 0.69701 0.82519 0.0
C1294 C 0.64025 0.72915 0.91183 0.0
H1295 H 0.63478 0.7586 0.9447 0.0
C1296 C 0.65594 0.73568 0.92606 0.0
C1297 C 0.63242 0.73739 0.91911 0.0
C1298 C 0.61541 0.73065 0.90591 0.0
C1299 C 0.66408 0.75029 0.94676 0.0
C1300 C 0.6564 0.7587 0.95312 0.0
C1301 C 0.64063 0.75212 0.93959 0.0
C1302 C 0.66491 0.77455 0.97257 0.0
C1303 C 0.68088 0.75667 0.9618 0.0
C1304 C 0.66182 0.77722 1.01589 0.0
C1305 C 0.6711 0.79194 0.03553 0.0
C1306 C 0.68356 0.80418 1.01199 0.0
C1307 C 0.68613 0.80153 0.96798 0.0
C1308 C 0.67691 0.78689 0.94852 0.0
H1309 H 0.68404 0.74753 0.9625 0.0
H1310 H 0.68894 0.76596 0.93864 0.0
H1311 H 0.68285 0.76189 0.99534 0.0
H1312 H 0.65259 0.76781 0.03494 0.0
H1313 H 0.66879 0.7936 0.06941 0.0
H1314 H 0.75573 0.02748 0.63369 0.0
H1315 H 0.77243 0.05247 0.67171 0.0
H1316 H 0.73722 0.03881 0.77268 0.0
H1317 H 0.7208 0.01392 0.73591 0.0
H1318 H 0.76676 0.07525 0.68808 0.0
H1319 H 0.77594 0.05442 0.84833 0.0
H1320 H 0.7682 0.04195 0.80029 0.0
H1321 H 0.75534 0.04486 0.83536 0.0
C1322 C 0.75166 0.02976 0.66427 0.0
C1323 C 0.73696 0.01866 0.68183 0.0
C1324 C 0.76121 0.04403 0.68598 0.0
C1325 C 0.75626 0.0474 0.72567 0.0
C1326 C 0.74157 0.03633 0.74297 0.0
H1327 H 0.76995 0.13124 0.83129 0.0
H1328 H 0.76314 0.10748 0.79164 0.0
C1329 C 0.7321 0.02211 0.72155 0.0
C1330 C 0.76573 0.06285 0.74762 0.0
H1331 H 0.7785 0.07987 0.84933 0.0
C1332 C 0.76959 0.07628 0.72316 0.0
C1333 C 0.7698 0.06433 0.79322 0.0
C1334 C 0.76726 0.05062 0.82064 0.0
C1335 C 0.77637 0.09093 0.74365 0.0
C1336 C 0.77901 0.09214 0.79004 0.0
C1337 C 0.7762 0.07892 0.81393 0.0
C1338 C 0.78343 0.10666 0.8147 0.0
C1339 C 0.78042 0.10494 0.71538 0.0
C1340 C 0.79679 0.11384 0.84252 0.0
C1341 C 0.80065 0.12744 0.86592 0.0
C1342 C 0.79115 0.13403 0.86198 0.0
C1343 C 0.77763 0.12661 0.83479 0.0
C1344 C 0.77378 0.11305 0.81171 0.0
H1345 H 0.78302 0.10326 0.68083 0.0
H1346 H 0.77019 0.1066 0.71416 0.0
H1347 H 0.79073 0.11569 0.72898 0.0
H1348 H 0.80431 0.109 0.84577 0.0
H1349 H 0.81113 0.13286 0.88665 0.0
H1350 H 0.09019 0.82126 0.62836 0.0
H1351 H 0.06546 0.80913 0.669 0.0
H1352 H 0.08581 0.84699 0.76287 0.0
H1353 H 0.11063 0.85932 0.7222 0.0
H1354 H 0.06301 0.79989 0.75872 0.0
H1355 H 0.04237 0.8415 0.7336 0.0
H1356 H 0.05686 0.84127 0.69838 0.0
H1357 H 0.06235 0.84969 0.75273 0.0
C1358 C 0.08937 0.82717 0.65721 0.0
C1359 C 0.10244 0.84127 0.67203 0.0
C1360 C 0.07521 0.82019 0.68046 0.0
C1361 C 0.07375 0.82719 0.71881 0.0
C1362 C 0.08659 0.8415 0.73298 0.0
H1363 H 0.99376 0.7889 0.90347 0.0
H1364 H 0.01953 0.80618 0.86932 0.0
C1365 C 0.1008 0.84851 0.70974 0.0
C1366 C 0.0592 0.81881 0.74555 0.0
H1367 H 0.02715 0.81999 0.78055 0.0
C1368 C 0.0552 0.80431 0.76358 0.0
C1369 C 0.04913 0.82469 0.75234 0.0
C1370 C 0.05276 0.84009 0.73306 0.0
C1371 C 0.04128 0.7954 0.78754 0.0
C1372 C 0.03091 0.801 0.793 0.0
C1373 C 0.03512 0.81573 0.77625 0.0
C1374 C 0.01517 0.79113 0.81309 0.0
C1375 C 0.03775 0.78001 0.80669 0.0
C1376 C 1.00412 0.77717 0.79231 0.0
C1377 C 0.98951 0.76735 0.81158 0.0
C1378 C 0.98555 0.77129 0.85208 0.0
C1379 C 0.99647 0.78551 0.87237 0.0
C1380 C 1.01117 0.79539 0.8529 0.0
H1381 H 0.04861 0.77946 0.8106 0.0
H1382 H 0.03198 0.7779 0.83943 0.0
H1383 H 0.02963 0.77048 0.78399 0.0
H1384 H 1.00685 0.77379 0.76119 0.0
H1385 H 0.98137 0.75657 0.79476 0.0
H1386 H 0.27424 0.36394 0.6575 0.0
H1387 H 0.27982 0.3462 0.69939 0.0
H1388 H 0.3281 0.38322 0.7168 0.0
H1389 H 0.32272 0.40087 0.67524 0.0
H1390 H 0.32388 0.35365 0.69125 0.0
H1391 H 0.28784 0.3498 0.83654 0.0
H1392 H 0.27852 0.34542 0.78274 0.0
H1393 H 0.294 0.36491 0.79532 0.0
C1394 C 0.28607 0.36823 0.66993 0.0
C1395 C 0.29801 0.38385 0.66325 0.0
C1396 C 0.28921 0.35812 0.69405 0.0
C1397 C 0.30434 0.36346 0.7116 0.0
C1398 C 0.31634 0.37887 0.70367 0.0
H1399 H 0.34967 0.34501 0.91913 0.0
H1400 H 0.33511 0.35263 0.87003 0.0
C1401 C 0.31321 0.38896 0.67994 0.0
C1402 C 0.30787 0.35336 0.73931 0.0
H1403 H 0.30295 0.338 0.8433 0.0
C1404 C 0.31911 0.34996 0.72421 0.0
C1405 C 0.30172 0.34872 0.78243 0.0
C1406 C 0.28991 0.35243 0.80061 0.0
C1407 C 0.32479 0.34255 0.75164 0.0
C1408 C 0.31895 0.33828 0.79522 0.0
C1409 C 0.30731 0.34119 0.80979 0.0
C1410 C 0.32608 0.33242 0.82755 0.0
C1411 C 0.33765 0.34015 0.73462 0.0
C1412 C 0.32543 0.31825 0.82085 0.0
C1413 C 0.33378 0.31383 0.84897 0.0
C1414 C 0.34293 0.32353 0.88428 0.0
C1415 C 0.34284 0.3373 0.89215 0.0
C1416 C 0.33449 0.34167 0.86414 0.0
H1417 H 0.34268 0.34647 0.70308 0.0
H1418 H 0.34731 0.34413 0.75947 0.0
H1419 H 0.33275 0.32756 0.7286 0.0
H1420 H 0.31881 0.31082 0.79319 0.0
H1421 H 0.33354 0.30313 0.84205 0.0
H1422 H 1.01038 0.35592 0.41819 0.0
H1423 H 0.03229 0.3629 0.36833 0.0
H1424 H 1.00633 0.31748 0.30778 0.0
H1425 H 0.9842 0.31038 0.35743 0.0
H1426 H 0.05075 0.3492 0.35041 0.0
H1427 H 0.01558 0.34819 0.20415 0.0
H1428 H 1.00944 0.34809 0.26026 0.0
H1429 H 1.00731 0.33069 0.23674 0.0
C1430 C 1.00936 0.34731 0.39466 0.0
C1431 C 0.99545 0.33263 0.39155 0.0
C1432 C 0.02193 0.35133 0.36621 0.0
C1433 C 0.02085 0.34081 0.33389 0.0
C1434 C 1.00731 0.32586 0.33204 0.0
H1435 H 0.10331 0.36785 0.1632 0.0
H1436 H 0.08023 0.35169 0.20964 0.0
C1437 C 0.99471 0.3218 0.36064 0.0
C1438 C 0.03358 0.34595 0.30081 0.0
H1439 H 0.04204 0.35616 0.19202 0.0
C1440 C 0.04884 0.35051 0.31564 0.0
C1441 C 0.03105 0.34779 0.25555 0.0
C1442 C 0.01501 0.34356 0.23803 0.0
C1443 C 0.0617 0.35725 0.28663 0.0
C1444 C 0.05921 0.35936 0.24156 0.0
C1445 C 0.04388 0.35439 0.2265 0.0
C1446 C 0.07253 0.36832 0.21082 0.0
C1447 C 0.07798 0.36278 0.30483 0.0
C1448 C 0.07555 0.38276 0.19498 0.0
C1449 C 0.08863 0.39196 0.16855 0.0
C1450 C 0.09896 0.38688 0.15705 0.0
C1451 C 0.09559 0.37211 0.17149 0.0
C1452 C 0.08248 0.36291 0.19825 0.0
H1453 H 0.0782 0.3624 0.3416 0.0
H1454 H 0.08218 0.35522 0.29197 0.0
H1455 H 0.08637 0.37488 0.29386 0.0
H1456 H 0.06801 0.38714 0.20413 0.0
H1457 H 0.0908 0.40322 0.15785 0.0
H1458 H 0.7881 0.77499 0.40391 0.0
H1459 H 0.77697 0.78901 0.36693 0.0
H1460 H 0.80836 0.79937 0.25722 0.0
H1461 H 0.81941 0.78526 0.29351 0.0
H1462 H 0.7905 0.81987 0.33467 0.0
H1463 H 0.76468 0.77645 0.1983 0.0
H1464 H 0.77219 0.77289 0.24882 0.0
H1465 H 0.78552 0.78509 0.20644 0.0
C1466 C 0.79276 0.7804 0.37214 0.0
C1467 C 0.80453 0.77884 0.35149 0.0
C1468 C 0.78637 0.78839 0.35102 0.0
C1469 C 0.7916 0.79495 0.30889 0.0
C1470 C 0.80389 0.7941 0.28925 0.0
H1471 H 0.75385 0.8359 0.12398 0.0
H1472 H 0.77099 0.82794 0.15952 0.0
C1473 C 0.81026 0.78609 0.31023 0.0
C1474 C 0.78383 0.80219 0.28489 0.0
H1475 H 0.76166 0.79823 0.19292 0.0
C1476 C 0.78423 0.81517 0.30363 0.0
C1477 C 0.77569 0.79607 0.24427 0.0
C1478 C 0.77434 0.78178 0.22334 0.0
C1479 C 0.77667 0.82218 0.2829 0.0
C1480 C 0.76828 0.81587 0.24276 0.0
C1481 C 0.76816 0.8031 0.22356 0.0
C1482 C 0.75859 0.8216 0.22182 0.0
C1483 C 0.7778 0.83631 0.3041 0.0
C1484 C 0.74589 0.82057 0.24488 0.0
C1485 C 0.7361 0.82504 0.22472 0.0
C1486 C 0.73872 0.83059 0.18087 0.0
C1487 C 0.75154 0.83174 0.15782 0.0
C1488 C 0.76133 0.82718 0.17806 0.0
H1489 H 0.78827 0.84241 0.3263 0.0
H1490 H 0.77844 0.84466 0.27869 0.0
H1491 H 0.76717 0.8326 0.3244 0.0
H1492 H 0.74332 0.81597 0.27827 0.0
H1493 H 0.72633 0.82395 0.2435 0.0
H1494 H 0.30013 0.03256 0.1352 0.0
H1495 H 0.3105 0.05678 0.17691 0.0
H1496 H 0.26533 0.03898 0.23864 0.0
H1497 H 0.25501 0.01447 0.19812 0.0
H1498 H 0.30329 0.07886 0.18186 0.0
H1499 H 0.29348 0.05025 0.34581 0.0
H1500 H 0.29124 0.04009 0.29462 0.0
H1501 H 0.27581 0.04304 0.31336 0.0
C1502 C 0.29234 0.03381 0.15738 0.0
C1503 C 0.27678 0.02149 0.16365 0.0
C1504 C 0.29831 0.04769 0.18129 0.0
C1505 C 0.28883 0.04959 0.2118 0.0
C1506 C 0.27303 0.03762 0.21635 0.0
H1507 H 0.32132 0.14155 0.32883 0.0
H1508 H 0.30592 0.11694 0.28865 0.0
C1509 C 0.2671 0.02366 0.19283 0.0
C1510 C 0.29566 0.06399 0.23922 0.0
H1511 H 0.30267 0.07721 0.34607 0.0
C1512 C 0.30312 0.07849 0.21778 0.0
C1513 C 0.29566 0.06354 0.28614 0.0
C1514 C 0.28876 0.04841 0.31141 0.0
C1515 C 0.31066 0.09252 0.24179 0.0
C1516 C 0.31032 0.09207 0.28871 0.0
C1517 C 0.30277 0.07757 0.31016 0.0
C1518 C 0.31855 0.10648 0.31613 0.0
C1519 C 0.31942 0.10766 0.21656 0.0
C1520 C 0.33016 0.10849 0.34693 0.0
C1521 C 0.33876 0.12242 0.37065 0.0
C1522 C 0.33599 0.13469 0.36389 0.0
C1523 C 0.32387 0.1324 0.33449 0.0
C1524 C 0.31514 0.11838 0.31116 0.0
H1525 H 0.32214 0.10584 0.18228 0.0
H1526 H 0.31201 0.11296 0.21424 0.0
H1527 H 0.33063 0.11603 0.23357 0.0
H1528 H 0.33294 0.09946 0.35164 0.0
H1529 H 0.34799 0.12377 0.39302 0.0
loop_
_geom_bond_atom_site_label_1
_geom_bond_atom_site_label_2
_geom_bond_distance
_geom_bond_site_symmetry_2
_ccdc_geom_bond_type
Mg0 O7 2.141 . S
Mg0 O8 2.048 . S
Mg0 O9 2.048 . S
Mg0 O12 2.141 . S
C1 O2 1.313 . S
C1 O8 1.195 . S
O2 C1 1.313 . S
C3 O4 1.245 . S
C3 O12 1.289 . S
O4 C3 1.245 . S
C5 O6 1.245 . S
C5 O7 1.289 . S
O6 C5 1.245 . S
O7 Mg0 2.141 . S
O7 C5 1.289 . S
O8 Mg0 2.048 . S
O8 C1 1.195 . S
O9 Mg0 2.048 . S
O9 C10 1.195 . S
C10 O9 1.195 . S
C10 O11 1.313 . S
O11 C10 1.313 . S
O12 Mg0 2.141 . S
O12 C3 1.289 . S
Mg13 O20 2.141 . S
Mg13 O21 2.048 . S
Mg13 O22 2.048 . S
Mg13 O25 2.141 . S
C14 O15 1.313 . S
C14 O21 1.195 . S
O15 C14 1.313 . S
C16 O17 1.245 . S
C16 O25 1.289 . S
O17 C16 1.245 . S
C18 O19 1.245 . S
C18 O20 1.289 . S
O19 C18 1.245 . S
O20 Mg13 2.141 . S
O20 C18 1.289 . S
O21 Mg13 2.048 . S
O21 C14 1.195 . S
O22 Mg13 2.048 . S
O22 C23 1.195 . S
C23 O22 1.195 . S
C23 O24 1.313 . S
O24 C23 1.313 . S
O25 Mg13 2.141 . S
O25 C16 1.289 . S
Mg26 O33 2.141 . S
Mg26 O34 2.048 . S
Mg26 O35 2.048 . S
Mg26 O38 2.141 . S
C27 O28 1.313 . S
C27 O34 1.195 . S
O28 C27 1.313 . S
C29 O30 1.245 . S
C29 O38 1.289 . S
O30 C29 1.245 . S
C31 O32 1.245 . S
C31 O33 1.289 . S
O32 C31 1.245 . S
O33 Mg26 2.141 . S
O33 C31 1.289 . S
O34 Mg26 2.048 . S
O34 C27 1.195 . S
O35 Mg26 2.048 . S
O35 C36 1.195 . S
C36 O35 1.195 . S
C36 O37 1.313 . S
O37 C36 1.313 . S
O38 Mg26 2.141 . S
O38 C29 1.289 . S
Mg39 O46 2.141 . S
Mg39 O47 2.048 . S
Mg39 O48 2.048 . S
Mg39 O51 2.141 . S
C40 O41 1.313 . S
C40 O47 1.195 . S
O41 C40 1.313 . S
C42 O43 1.245 . S
C42 O51 1.289 . S
O43 C42 1.245 . S
C44 O45 1.245 . S
C44 O46 1.289 . S
O45 C44 1.245 . S
O46 Mg39 2.141 . S
O46 C44 1.289 . S
O47 Mg39 2.048 . S
O47 C40 1.195 . S
O48 Mg39 2.048 . S
O48 C49 1.195 . S
C49 O48 1.195 . S
C49 O50 1.313 . S
O50 C49 1.313 . S
O51 Mg39 2.141 . S
O51 C42 1.289 . S
Mg52 O59 2.141 . S
Mg52 O60 2.048 . S
Mg52 O61 2.048 . S
Mg52 O64 2.141 . S
C53 O54 1.313 . S
C53 O60 1.195 . S
O54 C53 1.313 . S
C55 O56 1.245 . S
C55 O64 1.289 . S
O56 C55 1.245 . S
C57 O58 1.245 . S
C57 O59 1.289 . S
O58 C57 1.245 . S
O59 Mg52 2.141 . S
O59 C57 1.289 . S
O60 Mg52 2.048 . S
O60 C53 1.195 . S
O61 Mg52 2.048 . S
O61 C62 1.195 . S
C62 O61 1.195 . S
C62 O63 1.313 . S
O63 C62 1.313 . S
O64 Mg52 2.141 . S
O64 C55 1.289 . S
Mg65 O72 2.141 . S
Mg65 O73 2.048 . S
Mg65 O74 2.048 . S
Mg65 O77 2.141 . S
C66 O67 1.313 . S
C66 O73 1.195 . S
O67 C66 1.313 . S
C68 O69 1.245 . S
C68 O77 1.289 . S
O69 C68 1.245 . S
C70 O71 1.245 . S
C70 O72 1.289 . S
O71 C70 1.245 . S
O72 Mg65 2.141 . S
O72 C70 1.289 . S
O73 Mg65 2.048 . S
O73 C66 1.195 . S
O74 Mg65 2.048 . S
O74 C75 1.195 . S
C75 O74 1.195 . S
C75 O76 1.313 . S
O76 C75 1.313 . S
O77 Mg65 2.141 . S
O77 C68 1.289 . S
Mg78 O85 2.141 . S
Mg78 O86 2.048 . S
Mg78 O87 2.048 . S
Mg78 O90 2.141 . S
C79 O80 1.313 . S
C79 O86 1.195 . S
O80 C79 1.313 . S
C81 O82 1.245 . S
C81 O90 1.289 . S
O82 C81 1.245 . S
C83 O84 1.245 . S
C83 O85 1.289 . S
O84 C83 1.245 . S
O85 Mg78 2.141 . S
O85 C83 1.289 . S
O86 Mg78 2.048 . S
O86 C79 1.195 . S
O87 Mg78 2.048 . S
O87 C88 1.195 . S
C88 O87 1.195 . S
C88 O89 1.313 . S
O89 C88 1.313 . S
O90 Mg78 2.141 . S
O90 C81 1.289 . S
Mg91 O98 2.141 . S
Mg91 O99 2.048 . S
Mg91 O100 2.048 . S
Mg91 O103 2.141 . S
C92 O93 1.313 . S
C92 O99 1.195 . S
O93 C92 1.313 . S
C94 O95 1.245 . S
C94 O103 1.289 . S
O95 C94 1.245 . S
C96 O97 1.245 . S
C96 O98 1.289 . S
O97 C96 1.245 . S
O98 Mg91 2.141 . S
O98 C96 1.289 . S
O99 Mg91 2.048 . S
O99 C92 1.195 . S
O100 Mg91 2.048 . S
O100 C101 1.195 . S
C101 O100 1.195 . S
C101 O102 1.313 . S
O102 C101 1.313 . S
O103 Mg91 2.141 . S
O103 C94 1.289 . S
Mg104 O111 2.141 . S
Mg104 O112 2.048 . S
Mg104 O113 2.048 . S
Mg104 O116 2.141 . S
C105 O106 1.313 . S
C105 O112 1.195 . S
O106 C105 1.313 . S
C107 O108 1.245 . S
C107 O116 1.289 . S
O108 C107 1.245 . S
C109 O110 1.245 . S
C109 O111 1.289 . S
O110 C109 1.245 . S
O111 Mg104 2.141 . S
O111 C109 1.289 . S
O112 Mg104 2.048 . S
O112 C105 1.195 . S
O113 Mg104 2.048 . S
O113 C114 1.195 . S
C114 O113 1.195 . S
C114 O115 1.313 . S
O115 C114 1.313 . S
O116 Mg104 2.141 . S
O116 C107 1.289 . S
Mg117 O124 2.141 . S
Mg117 O125 2.048 . S
Mg117 O126 2.048 . S
Mg117 O129 2.141 . S
C118 O119 1.313 . S
C118 O125 1.195 . S
O119 C118 1.313 . S
C120 O121 1.245 . S
C120 O129 1.289 . S
O121 C120 1.245 . S
C122 O123 1.245 . S
C122 O124 1.289 . S
O123 C122 1.245 . S
O124 Mg117 2.141 . S
O124 C122 1.289 . S
O125 Mg117 2.048 . S
O125 C118 1.195 . S
O126 Mg117 2.048 . S
O126 C127 1.195 . S
C127 O126 1.195 . S
C127 O128 1.313 . S
O128 C127 1.313 . S
O129 Mg117 2.141 . S
O129 C120 1.289 . S
Mg130 O137 2.141 . S
Mg130 O138 2.048 . S
Mg130 O139 2.048 . S
Mg130 O142 2.141 . S
C131 O132 1.313 . S
C131 O138 1.195 . S
O132 C131 1.313 . S
C133 O134 1.245 . S
C133 O142 1.289 . S
O134 C133 1.245 . S
C135 O136 1.245 . S
C135 O137 1.289 . S
O136 C135 1.245 . S
O137 Mg130 2.141 . S
O137 C135 1.289 . S
O138 Mg130 2.048 . S
O138 C131 1.195 . S
O139 Mg130 2.048 . S
O139 C140 1.195 . S
C140 O139 1.195 . S
C140 O141 1.313 . S
O141 C140 1.313 . S
O142 Mg130 2.141 . S
O142 C133 1.289 . S
Mg143 O150 2.141 . S
Mg143 O151 2.048 . S
Mg143 O152 2.048 . S
Mg143 O155 2.141 . S
C144 O145 1.313 . S
C144 O151 1.195 . S
O145 C144 1.313 . S
C146 O147 1.245 . S
C146 O155 1.289 . S
O147 C146 1.245 . S
C148 O149 1.245 . S
C148 O150 1.289 . S
O149 C148 1.245 . S
O150 Mg143 2.141 . S
O150 C148 1.289 . S
O151 Mg143 2.048 . S
O151 C144 1.195 . S
O152 Mg143 2.048 . S
O152 C153 1.195 . S
C153 O152 1.195 . S
C153 O154 1.313 . S
O154 C153 1.313 . S
O155 Mg143 2.141 . S
O155 C146 1.289 . S
Mg156 O163 2.141 . S
Mg156 O164 2.048 . S
Mg156 O165 2.048 . S
Mg156 O168 2.141 . S
C157 O158 1.313 1_556 S
C157 O164 1.195 . S
O158 C157 1.313 1_554 S
C159 O160 1.245 . S
C159 O168 1.289 . S
O160 C159 1.245 . S
C161 O162 1.245 . S
C161 O163 1.289 . S
O162 C161 1.245 . S
O163 Mg156 2.141 . S
O163 C161 1.289 . S
O164 Mg156 2.048 . S
O164 C157 1.195 . S
O165 Mg156 2.048 . S
O165 C166 1.195 . S
C166 O165 1.195 . S
C166 O167 1.313 1_556 S
O167 C166 1.313 1_554 S
O168 Mg156 2.141 . S
O168 C159 1.289 . S
Mg169 O176 2.141 . S
Mg169 O177 2.048 . S
Mg169 O178 2.048 . S
Mg169 O181 2.141 . S
C170 O171 1.313 . S
C170 O177 1.195 . S
O171 C170 1.313 . S
C172 O173 1.245 . S
C172 O181 1.289 . S
O173 C172 1.245 . S
C174 O175 1.245 . S
C174 O176 1.289 . S
O175 C174 1.245 . S
O176 Mg169 2.141 . S
O176 C174 1.289 . S
O177 Mg169 2.048 . S
O177 C170 1.195 . S
O178 Mg169 2.048 . S
O178 C179 1.195 . S
C179 O178 1.195 . S
C179 O180 1.313 . S
O180 C179 1.313 . S
O181 Mg169 2.141 . S
O181 C172 1.289 . S
Mg182 O189 2.141 . S
Mg182 O190 2.048 . S
Mg182 O191 2.048 . S
Mg182 O194 2.141 . S
C183 O184 1.313 . S
C183 O190 1.195 . S
O184 C183 1.313 . S
C185 O186 1.245 . S
C185 O194 1.289 . S
O186 C185 1.245 . S
C187 O188 1.245 . S
C187 O189 1.289 . S
O188 C187 1.245 . S
O189 Mg182 2.141 . S
O189 C187 1.289 . S
O190 Mg182 2.048 . S
O190 C183 1.195 . S
O191 Mg182 2.048 . S
O191 C192 1.195 . S
C192 O191 1.195 . S
C192 O193 1.313 . S
O193 C192 1.313 . S
O194 Mg182 2.141 . S
O194 C185 1.289 . S
Mg195 O202 2.141 . S
Mg195 O203 2.048 . S
Mg195 O204 2.048 . S
Mg195 O207 2.141 . S
C196 O197 1.313 . S
C196 O203 1.195 . S
O197 C196 1.313 . S
C198 O199 1.245 . S
C198 O207 1.289 . S
O199 C198 1.245 . S
C200 O201 1.245 . S
C200 O202 1.289 . S
O201 C200 1.245 . S
O202 Mg195 2.141 . S
O202 C200 1.289 . S
O203 Mg195 2.048 . S
O203 C196 1.195 . S
O204 Mg195 2.048 . S
O204 C205 1.195 . S
C205 O204 1.195 . S
C205 O206 1.313 . S
O206 C205 1.313 . S
O207 Mg195 2.141 . S
O207 C198 1.289 . S
Mg208 O215 2.141 . S
Mg208 O216 2.048 . S
Mg208 O217 2.048 . S
Mg208 O220 2.141 . S
C209 O210 1.313 . S
C209 O216 1.195 . S
O210 C209 1.313 . S
C211 O212 1.245 . S
C211 O220 1.289 . S
O212 C211 1.245 . S
C213 O214 1.245 . S
C213 O215 1.289 . S
O214 C213 1.245 . S
O215 Mg208 2.141 . S
O215 C213 1.289 . S
O216 Mg208 2.048 . S
O216 C209 1.195 . S
O217 Mg208 2.048 . S
O217 C218 1.195 . S
C218 O217 1.195 . S
C218 O219 1.313 . S
O219 C218 1.313 . S
O220 Mg208 2.141 . S
O220 C211 1.289 . S
Mg221 O228 2.141 . S
Mg221 O229 2.048 . S
Mg221 O230 2.048 . S
Mg221 O233 2.141 . S
C222 O223 1.313 . S
C222 O229 1.195 . S
O223 C222 1.313 . S
C224 O225 1.245 . S
C224 O233 1.289 . S
O225 C224 1.245 . S
C226 O227 1.245 . S
C226 O228 1.289 . S
O227 C226 1.245 . S
O228 Mg221 2.141 . S
O228 C226 1.289 . S
O229 Mg221 2.048 . S
O229 C222 1.195 . S
O230 Mg221 2.048 . S
O230 C231 1.195 . S
C231 O230 1.195 . S
C231 O232 1.313 . S
O232 C231 1.313 . S
O233 Mg221 2.141 . S
O233 C224 1.289 . S
H234 C242 0.929 . S
H235 C244 0.930 . S
H236 C246 0.930 . S
H237 C249 0.929 . S
H238 C252 0.930 . S
H239 C254 0.914 1_654 S
H240 C254 0.960 . S
H241 C254 0.960 . S
C242 H234 0.929 . S
C242 C243 1.377 . S
C242 C244 1.384 . S
C243 C242 1.377 . S
C243 C249 1.390 . S
C244 H235 0.930 . S
C244 C242 1.384 . S
C244 C245 1.372 . S
C245 C244 1.372 . S
C245 C246 1.400 . S
C245 C250 1.490 . S
C246 H236 0.930 . S
C246 C245 1.400 . S
C246 C249 1.386 . S
H247 C263 0.930 . S
H248 C264 0.931 . S
C249 H237 0.929 . S
C249 C243 1.390 . S
C249 C246 1.386 . S
C250 C245 1.490 . S
C250 C252 1.395 . S
C250 C253 1.403 . S
H251 C257 0.930 . S
C252 H238 0.930 . S
C252 C250 1.395 . S
C252 C255 1.403 1_556 S
C253 C250 1.403 . S
C253 C254 1.524 . S
C253 C257 1.400 1_556 S
C254 H239 0.914 1_456 S
C254 H240 0.960 . S
C254 H241 0.960 . S
C254 C253 1.524 . S
C255 C252 1.403 1_554 S
C255 C256 1.392 . S
C255 C259 1.495 . S
C256 C255 1.392 . S
C256 C257 1.385 . S
C256 C258 1.478 . S
C257 H251 0.930 . S
C257 C253 1.400 1_554 S
C257 C256 1.385 . S
C258 C256 1.478 . S
C258 C260 1.381 . S
C258 C264 1.383 . S
C259 C255 1.495 . S
C259 H265 0.959 1_554 S
C259 H266 0.961 . S
C259 H267 0.960 . S
C260 C258 1.381 . S
C260 C261 1.394 . S
C260 H268 0.930 . S
C261 C260 1.394 . S
C261 C262 1.383 . S
C261 H269 0.929 . S
C262 C261 1.383 . S
C262 C263 1.377 . S
C263 H247 0.930 . S
C263 C262 1.377 . S
C263 C264 1.379 . S
C264 H248 0.931 . S
C264 C258 1.383 . S
C264 C263 1.379 . S
H265 C259 0.959 1_556 S
H266 C259 0.961 . S
H267 C259 0.960 . S
H268 C260 0.930 . S
H269 C261 0.929 . S
H270 C278 0.929 . S
H271 C280 0.930 . S
H272 C282 0.930 . S
H273 C285 0.929 . S
H274 C288 0.930 . S
H275 C290 0.960 . S
H276 C290 0.960 . S
H277 C290 0.960 . S
C278 H270 0.929 . S
C278 C279 1.377 . S
C278 C280 1.384 . S
C279 C278 1.377 . S
C279 C285 1.390 . S
C280 H271 0.930 . S
C280 C278 1.384 . S
C280 C281 1.372 . S
C281 C280 1.372 . S
C281 C282 1.400 . S
C281 C286 1.490 . S
C282 H272 0.930 . S
C282 C281 1.400 . S
C282 C285 1.386 . S
H283 C299 0.930 . S
H284 C300 0.931 . S
C285 H273 0.929 . S
C285 C279 1.390 . S
C285 C282 1.386 . S
C286 C281 1.490 . S
C286 C288 1.395 . S
C286 C289 1.403 1_556 S
H287 C293 0.930 . S
C288 H274 0.930 . S
C288 C286 1.395 . S
C288 C291 1.403 . S
C289 C286 1.403 1_554 S
C289 C290 1.524 . S
C289 C293 1.400 . S
C290 H275 0.960 . S
C290 H276 0.960 . S
C290 H277 0.960 . S
C290 C289 1.524 . S
C291 C288 1.403 . S
C291 C292 1.392 1_556 S
C291 C295 1.495 . S
C292 C291 1.392 1_554 S
C292 C293 1.385 . S
C292 C294 1.478 . S
C293 H287 0.930 . S
C293 C289 1.400 . S
C293 C292 1.385 . S
C294 C292 1.478 . S
C294 C296 1.381 . S
C294 C300 1.383 . S
C295 C291 1.495 . S
C295 H301 0.959 . S
C295 H302 0.961 . S
C295 H303 0.960 . S
C296 C294 1.381 . S
C296 C297 1.394 . S
C296 H304 0.930 . S
C297 C296 1.394 . S
C297 C298 1.383 . S
C297 H305 0.929 . S
C298 C297 1.383 . S
C298 C299 1.377 . S
C299 H283 0.930 . S
C299 C298 1.377 . S
C299 C300 1.379 . S
C300 H284 0.931 . S
C300 C294 1.383 . S
C300 C299 1.379 . S
H301 C295 0.959 . S
H302 C295 0.961 . S
H303 C295 0.960 . S
H304 C296 0.930 . S
H305 C297 0.929 . S
H306 C314 0.929 . S
H307 C316 0.930 . S
H308 C318 0.930 . S
H309 C321 0.929 . S
H310 C324 0.930 . S
H311 C326 0.960 . S
H312 C326 0.960 . S
H313 C326 0.960 . S
C314 H306 0.929 . S
C314 C315 1.377 . S
C314 C316 1.384 . S
C315 C314 1.377 . S
C315 C321 1.390 . S
C316 H307 0.930 . S
C316 C314 1.384 . S
C316 C317 1.372 . S
C317 C316 1.372 . S
C317 C318 1.400 . S
C317 C322 1.490 . S
C318 H308 0.930 . S
C318 C317 1.400 . S
C318 C321 1.386 . S
H319 C335 0.930 . S
H320 C336 0.931 . S
C321 H309 0.929 . S
C321 C315 1.390 . S
C321 C318 1.386 . S
C322 C317 1.490 . S
C322 C324 1.395 1_554 S
C322 C325 1.403 . S
H323 C329 0.932 . S
C324 H310 0.930 . S
C324 C322 1.395 1_556 S
C324 C327 1.403 . S
C325 C322 1.403 . S
C325 C326 1.524 . S
C325 C329 1.414 . S
C326 H311 0.960 . S
C326 H312 0.960 . S
C326 H313 0.960 . S
C326 C325 1.524 . S
C327 C324 1.403 . S
C327 C328 1.392 . S
C327 C331 1.495 . S
C328 C327 1.392 . S
C328 C329 1.370 1_556 S
C328 C330 1.478 . S
C329 H323 0.932 . S
C329 C325 1.414 . S
C329 C328 1.370 1_554 S
C330 C328 1.478 . S
C330 C332 1.381 . S
C330 C336 1.383 . S
C331 C327 1.495 . S
C331 H337 0.959 . S
C331 H338 0.961 . S
C331 H339 0.960 . S
C332 C330 1.381 . S
C332 C333 1.394 . S
C332 H340 0.930 . S
C333 C332 1.394 . S
C333 C334 1.383 . S
C333 H341 0.929 . S
C334 C333 1.383 . S
C334 C335 1.377 . S
C335 H319 0.930 . S
C335 C334 1.377 . S
C335 C336 1.379 . S
C336 H320 0.931 . S
C336 C330 1.383 . S
C336 C335 1.379 . S
H337 C331 0.959 . S
H338 C331 0.961 . S
H339 C331 0.960 . S
H340 C332 0.930 . S
H341 C333 0.929 . S
H342 C350 0.929 . S
H343 C352 0.930 . S
H344 C354 0.930 . S
H345 C357 0.929 . S
H346 C360 0.930 . S
H347 C362 0.960 . S
H348 C362 0.960 . S
H349 C362 0.960 . S
C350 H342 0.929 . S
C350 C351 1.377 . S
C350 C352 1.384 . S
C351 C350 1.377 . S
C351 C357 1.390 . S
C352 H343 0.930 . S
C352 C350 1.384 . S
C352 C353 1.372 . S
C353 C352 1.372 . S
C353 C354 1.400 . S
C353 C358 1.490 . S
C354 H344 0.930 . S
C354 C353 1.400 . S
C354 C357 1.386 . S
H355 C371 0.930 . S
H356 C372 0.931 . S
C357 H345 0.929 . S
C357 C351 1.390 . S
C357 C354 1.386 . S
C358 C353 1.490 . S
C358 C360 1.395 . S
C358 C361 1.403 . S
H359 C365 0.930 . S
C360 H346 0.930 . S
C360 C358 1.395 . S
C360 C363 1.403 . S
C361 C358 1.403 . S
C361 C362 1.524 . S
C361 C365 1.400 . S
C362 H347 0.960 . S
C362 H348 0.960 . S
C362 H349 0.960 . S
C362 C361 1.524 . S
C363 C360 1.403 . S
C363 C364 1.392 . S
C363 C367 1.495 . S
C364 C363 1.392 . S
C364 C365 1.385 . S
C364 C366 1.478 . S
C365 H359 0.930 . S
C365 C361 1.400 . S
C365 C364 1.385 . S
C366 C364 1.478 . S
C366 C368 1.381 . S
C366 C372 1.383 . S
C367 C363 1.495 . S
C367 H373 0.959 . S
C367 H374 0.961 . S
C367 H375 0.960 . S
C368 C366 1.381 . S
C368 C369 1.394 . S
C368 H376 0.930 . S
C369 C368 1.394 . S
C369 C370 1.383 . S
C369 H377 0.929 . S
C370 C369 1.383 . S
C370 C371 1.377 . S
C371 H355 0.930 . S
C371 C370 1.377 . S
C371 C372 1.379 . S
C372 H356 0.931 . S
C372 C366 1.383 . S
C372 C371 1.379 . S
H373 C367 0.959 . S
H374 C367 0.961 . S
H375 C367 0.960 . S
H376 C368 0.930 . S
H377 C369 0.929 . S
H378 C386 0.929 . S
H379 C388 0.930 . S
H380 C390 0.930 . S
H381 C393 0.929 . S
H382 C396 0.930 . S
H383 C398 0.960 . S
H384 C398 0.960 . S
H385 C398 0.960 . S
C386 H378 0.929 . S
C386 C387 1.377 . S
C386 C388 1.384 . S
C387 C386 1.377 . S
C387 C393 1.390 . S
C388 H379 0.930 . S
C388 C386 1.384 . S
C388 C389 1.372 . S
C389 C388 1.372 . S
C389 C390 1.400 . S
C389 C394 1.490 . S
C390 H380 0.930 . S
C390 C389 1.400 . S
C390 C393 1.386 . S
H391 C407 0.930 . S
H392 C408 0.931 . S
C393 H381 0.929 . S
C393 C387 1.390 . S
C393 C390 1.386 . S
C394 C389 1.490 . S
C394 C396 1.395 . S
C394 C397 1.403 . S
H395 C401 0.930 . S
C396 H382 0.930 . S
C396 C394 1.395 . S
C396 C399 1.403 . S
C397 C394 1.403 . S
C397 C398 1.524 . S
C397 C401 1.400 . S
C398 H383 0.960 . S
C398 H384 0.960 . S
C398 H385 0.960 . S
C398 C397 1.524 . S
C399 C396 1.403 . S
C399 C400 1.392 . S
C399 C403 1.495 1_455 S
C400 C399 1.392 . S
C400 C401 1.385 . S
C400 C402 1.478 . S
C401 H395 0.930 . S
C401 C397 1.400 . S
C401 C400 1.385 . S
C402 C400 1.478 . S
C402 C404 1.381 . S
C402 C408 1.383 . S
C403 C399 1.495 1_655 S
C403 H409 0.959 . S
C403 H410 0.961 . S
C403 H411 0.960 . S
C404 C402 1.381 . S
C404 C405 1.394 . S
C404 H412 0.930 . S
C405 C404 1.394 . S
C405 C406 1.383 . S
C405 H413 0.929 . S
C406 C405 1.383 . S
C406 C407 1.377 . S
C407 H391 0.930 . S
C407 C406 1.377 . S
C407 C408 1.379 . S
C408 H392 0.931 . S
C408 C402 1.383 . S
C408 C407 1.379 . S
H409 C403 0.959 . S
H410 C403 0.961 . S
H411 C403 0.960 . S
H412 C404 0.930 . S
H413 C405 0.929 . S
H414 C422 0.929 . S
H415 C424 0.930 . S
H416 C426 0.930 . S
H417 C429 0.929 . S
H418 C432 0.930 . S
H419 C434 0.960 . S
H420 C434 0.960 . S
H421 C434 0.960 . S
C422 H414 0.929 . S
C422 C423 1.377 . S
C422 C424 1.384 . S
C423 C422 1.377 . S
C423 C429 1.390 . S
C424 H415 0.930 . S
C424 C422 1.384 . S
C424 C425 1.372 . S
C425 C424 1.372 . S
C425 C426 1.400 . S
C425 C430 1.490 . S
C426 H416 0.930 . S
C426 C425 1.400 . S
C426 C429 1.386 . S
H427 C443 0.930 . S
H428 C444 0.931 . S
C429 H417 0.929 . S
C429 C423 1.390 . S
C429 C426 1.386 . S
C430 C425 1.490 . S
C430 C432 1.395 . S
C430 C433 1.403 . S
H431 C437 0.930 . S
C432 H418 0.930 . S
C432 C430 1.395 . S
C432 C435 1.403 . S
C433 C430 1.403 . S
C433 C434 1.524 . S
C433 C437 1.400 . S
C434 H419 0.960 . S
C434 H420 0.960 . S
C434 H421 0.960 . S
C434 C433 1.524 . S
C435 C432 1.403 . S
C435 C436 1.392 . S
C435 C439 1.495 . S
C436 C435 1.392 . S
C436 C437 1.385 . S
C436 C438 1.478 . S
C437 H431 0.930 . S
C437 C433 1.400 . S
C437 C436 1.385 . S
C438 C436 1.478 . S
C438 C440 1.381 . S
C438 C444 1.383 . S
C439 C435 1.495 . S
C439 H445 0.959 . S
C439 H446 0.961 . S
C439 H447 0.960 . S
C440 C438 1.381 . S
C440 C441 1.394 . S
C440 H448 0.930 . S
C441 C440 1.394 . S
C441 C442 1.383 . S
C441 H449 0.929 . S
C442 C441 1.383 . S
C442 C443 1.377 . S
C443 H427 0.930 . S
C443 C442 1.377 . S
C443 C444 1.379 . S
C444 H428 0.931 . S
C444 C438 1.383 . S
C444 C443 1.379 . S
H445 C439 0.959 . S
H446 C439 0.961 . S
H447 C439 0.960 . S
H448 C440 0.930 . S
H449 C441 0.929 . S
H450 C458 0.929 . S
H451 C460 0.930 . S
H452 C462 0.930 . S
H453 C465 0.929 . S
H454 C468 0.930 . S
H455 C470 0.960 . S
H456 C470 0.960 . S
H457 C470 0.960 . S
C458 H450 0.929 . S
C458 C459 1.377 . S
C458 C460 1.384 . S
C459 C458 1.377 . S
C459 C465 1.390 . S
C460 H451 0.930 . S
C460 C458 1.384 . S
C460 C461 1.372 . S
C461 C460 1.372 . S
C461 C462 1.400 . S
C461 C466 1.490 . S
C462 H452 0.930 . S
C462 C461 1.400 . S
C462 C465 1.386 . S
H463 C479 0.930 . S
H464 C480 0.931 . S
C465 H453 0.929 . S
C465 C459 1.390 . S
C465 C462 1.386 . S
C466 C461 1.490 . S
C466 C468 1.395 . S
C466 C469 1.403 . S
H467 C473 0.930 . S
C468 H454 0.930 . S
C468 C466 1.395 . S
C468 C471 1.403 . S
C469 C466 1.403 . S
C469 C470 1.524 . S
C469 C473 1.400 . S
C470 H455 0.960 . S
C470 H456 0.960 . S
C470 H457 0.960 . S
C470 C469 1.524 . S
C471 C468 1.403 . S
C471 C472 1.392 . S
C471 C475 1.495 . S
C472 C471 1.392 . S
C472 C473 1.385 . S
C472 C474 1.478 . S
C473 H467 0.930 . S
C473 C469 1.400 . S
C473 C472 1.385 . S
C474 C472 1.478 . S
C474 C476 1.381 . S
C474 C480 1.383 . S
C475 C471 1.495 . S
C475 H481 0.959 . S
C475 H482 0.961 . S
C475 H483 0.960 . S
C476 C474 1.381 . S
C476 C477 1.394 . S
C476 H484 0.930 . S
C477 C476 1.394 . S
C477 C478 1.383 . S
C477 H485 0.929 . S
C478 C477 1.383 . S
C478 C479 1.377 . S
C479 H463 0.930 . S
C479 C478 1.377 . S
C479 C480 1.379 . S
C480 H464 0.931 . S
C480 C474 1.383 . S
C480 C479 1.379 . S
H481 C475 0.959 . S
H482 C475 0.961 . S
H483 C475 0.960 . S
H484 C476 0.930 . S
H485 C477 0.929 . S
H486 C494 0.929 . S
H487 C496 0.930 . S
H488 C498 0.930 . S
H489 C501 0.929 . S
H490 C504 0.930 . S
H491 C506 0.960 . S
H492 C506 0.960 . S
H493 C506 0.960 . S
C494 H486 0.929 . S
C494 C495 1.377 . S
C494 C496 1.384 . S
C495 C494 1.377 . S
C495 C501 1.390 . S
C496 H487 0.930 . S
C496 C494 1.384 . S
C496 C497 1.372 . S
C497 C496 1.372 . S
C497 C498 1.400 . S
C497 C502 1.490 . S
C498 H488 0.930 . S
C498 C497 1.400 . S
C498 C501 1.386 . S
H499 C515 0.930 . S
H500 C516 0.931 . S
C501 H489 0.929 . S
C501 C495 1.390 . S
C501 C498 1.386 . S
C502 C497 1.490 . S
C502 C504 1.395 . S
C502 C505 1.403 . S
H503 C509 0.930 . S
C504 H490 0.930 . S
C504 C502 1.395 . S
C504 C507 1.403 . S
C505 C502 1.403 . S
C505 C506 1.524 . S
C505 C509 1.400 . S
C506 H491 0.960 . S
C506 H492 0.960 . S
C506 H493 0.960 . S
C506 C505 1.524 . S
C507 C504 1.403 . S
C507 C508 1.392 . S
C507 C511 1.495 . S
C508 C507 1.392 . S
C508 C509 1.385 . S
C508 C510 1.478 . S
C509 H503 0.930 . S
C509 C505 1.400 . S
C509 C508 1.385 . S
C510 C508 1.478 . S
C510 C512 1.381 . S
C510 C516 1.383 . S
C511 C507 1.495 . S
C511 H517 0.959 . S
C511 H518 0.961 . S
C511 H519 0.960 . S
C512 C510 1.381 . S
C512 C513 1.394 . S
C512 H520 0.930 . S
C513 C512 1.394 . S
C513 C514 1.383 . S
C513 H521 0.929 . S
C514 C513 1.383 . S
C514 C515 1.377 . S
C515 H499 0.930 . S
C515 C514 1.377 . S
C515 C516 1.379 . S
C516 H500 0.931 . S
C516 C510 1.383 . S
C516 C515 1.379 . S
H517 C511 0.959 . S
H518 C511 0.961 . S
H519 C511 0.960 . S
H520 C512 0.930 . S
H521 C513 0.929 . S
H522 C530 0.929 . S
H523 C532 0.930 . S
H524 C534 0.930 . S
H525 C537 0.929 . S
H526 C540 0.930 . S
H527 C542 0.960 . S
H528 C542 0.960 . S
H529 C542 0.960 . S
C530 H522 0.929 . S
C530 C531 1.377 . S
C530 C532 1.384 . S
C531 C530 1.377 . S
C531 C537 1.390 . S
C532 H523 0.930 . S
C532 C530 1.384 . S
C532 C533 1.372 . S
C533 C532 1.372 . S
C533 C534 1.400 . S
C533 C538 1.490 . S
C534 H524 0.930 . S
C534 C533 1.400 . S
C534 C537 1.386 . S
H535 C551 0.930 . S
H536 C552 0.931 . S
C537 H525 0.929 . S
C537 C531 1.390 . S
C537 C534 1.386 . S
C538 C533 1.490 . S
C538 C540 1.395 . S
C538 C541 1.403 . S
H539 C545 0.930 . S
C540 H526 0.930 . S
C540 C538 1.395 . S
C540 C543 1.403 . S
C541 C538 1.403 . S
C541 C542 1.524 . S
C541 C545 1.400 . S
C542 H527 0.960 . S
C542 H528 0.960 . S
C542 H529 0.960 . S
C542 C541 1.524 . S
C543 C540 1.403 . S
C543 C544 1.392 . S
C543 C547 1.495 . S
C544 C543 1.392 . S
C544 C545 1.385 . S
C544 C546 1.478 . S
C545 H539 0.930 . S
C545 C541 1.400 . S
C545 C544 1.385 . S
C546 C544 1.478 . S
C546 C548 1.381 . S
C546 C552 1.383 . S
C547 C543 1.495 . S
C547 H553 0.959 . S
C547 H554 0.961 . S
C547 H555 0.960 . S
C548 C546 1.381 . S
C548 C549 1.394 . S
C548 H556 0.930 . S
C549 C548 1.394 . S
C549 C550 1.383 . S
C549 H557 0.929 . S
C550 C549 1.383 . S
C550 C551 1.377 . S
C551 H535 0.930 . S
C551 C550 1.377 . S
C551 C552 1.379 . S
C552 H536 0.931 . S
C552 C546 1.383 . S
C552 C551 1.379 . S
H553 C547 0.959 . S
H554 C547 0.961 . S
H555 C547 0.960 . S
H556 C548 0.930 . S
H557 C549 0.929 . S
H558 C566 0.929 . S
H559 C568 0.930 . S
H560 C570 0.930 . S
H561 C573 0.929 . S
H562 C576 0.930 . S
H563 C578 0.960 . S
H564 C578 0.960 . S
H565 C578 0.960 . S
C566 H558 0.929 . S
C566 C567 1.377 . S
C566 C568 1.384 . S
C567 C566 1.377 . S
C567 C573 1.390 . S
C568 H559 0.930 . S
C568 C566 1.384 . S
C568 C569 1.372 . S
C569 C568 1.372 . S
C569 C570 1.400 . S
C569 C574 1.490 . S
C570 H560 0.930 . S
C570 C569 1.400 . S
C570 C573 1.386 . S
H571 C587 0.930 . S
H572 C588 0.931 . S
C573 H561 0.929 . S
C573 C567 1.390 . S
C573 C570 1.386 . S
C574 C569 1.490 . S
C574 C576 1.395 . S
C574 C577 1.403 . S
H575 C581 0.930 . S
C576 H562 0.930 . S
C576 C574 1.395 . S
C576 C579 1.403 . S
C577 C574 1.403 . S
C577 C578 1.524 . S
C577 C581 1.400 . S
C578 H563 0.960 . S
C578 H564 0.960 . S
C578 H565 0.960 . S
C578 C577 1.524 . S
C579 C576 1.403 . S
C579 C580 1.392 . S
C579 C583 1.495 . S
C580 C579 1.392 . S
C580 C581 1.385 . S
C580 C582 1.478 . S
C581 H575 0.930 . S
C581 C577 1.400 . S
C581 C580 1.385 . S
C582 C580 1.478 . S
C582 C584 1.381 . S
C582 C588 1.383 . S
C583 C579 1.495 . S
C583 H589 0.959 . S
C583 H590 0.961 . S
C583 H591 0.960 . S
C584 C582 1.381 . S
C584 C585 1.394 . S
C584 H592 0.930 . S
C585 C584 1.394 . S
C585 C586 1.383 . S
C585 H593 0.929 . S
C586 C585 1.383 . S
C586 C587 1.377 . S
C587 H571 0.930 . S
C587 C586 1.377 . S
C587 C588 1.379 . S
C588 H572 0.931 . S
C588 C582 1.383 . S
C588 C587 1.379 . S
H589 C583 0.959 . S
H590 C583 0.961 . S
H591 C583 0.960 . S
H592 C584 0.930 . S
H593 C585 0.929 . S
H594 C602 0.929 . S
H595 C604 0.930 . S
H596 C606 0.930 . S
H597 C609 0.929 1_554 S
H598 C612 0.930 . S
H599 C614 0.960 . S
H600 C614 0.960 . S
H601 C614 0.960 . S
C602 H594 0.929 . S
C602 C603 1.377 . S
C602 C604 1.384 . S
C603 C602 1.377 . S
C603 C609 1.390 . S
C604 H595 0.930 . S
C604 C602 1.384 . S
C604 C605 1.372 . S
C605 C604 1.372 . S
C605 C606 1.400 . S
C605 C610 1.490 . S
C606 H596 0.930 . S
C606 C605 1.400 . S
C606 C609 1.386 . S
H607 C623 0.930 . S
H608 C624 0.931 . S
C609 H597 0.929 1_556 S
C609 C603 1.390 . S
C609 C606 1.386 . S
C610 C605 1.490 . S
C610 C612 1.395 . S
C610 C613 1.403 . S
H611 C617 0.930 . S
C612 H598 0.930 . S
C612 C610 1.395 . S
C612 C615 1.403 . S
C613 C610 1.403 . S
C613 C614 1.524 . S
C613 C617 1.400 . S
C614 H599 0.960 . S
C614 H600 0.960 . S
C614 H601 0.960 . S
C614 C613 1.524 . S
C615 C612 1.403 . S
C615 C616 1.392 . S
C615 C619 1.495 . S
C616 C615 1.392 . S
C616 C617 1.385 . S
C616 C618 1.478 . S
C617 H611 0.930 . S
C617 C613 1.400 . S
C617 C616 1.385 . S
C618 C616 1.478 . S
C618 C620 1.381 . S
C618 C624 1.383 . S
C619 C615 1.495 . S
C619 H625 0.959 . S
C619 H626 0.961 . S
C619 H627 0.960 . S
C620 C618 1.381 . S
C620 C621 1.394 . S
C620 H628 0.930 . S
C621 C620 1.394 . S
C621 C622 1.383 . S
C621 H629 0.929 . S
C622 C621 1.383 . S
C622 C623 1.377 . S
C623 H607 0.930 . S
C623 C622 1.377 . S
C623 C624 1.379 . S
C624 H608 0.931 . S
C624 C618 1.383 . S
C624 C623 1.379 . S
H625 C619 0.959 . S
H626 C619 0.961 . S
H627 C619 0.960 . S
H628 C620 0.930 . S
H629 C621 0.929 . S
H630 C638 0.929 1_554 S
H631 C640 0.930 . S
H632 C642 0.930 . S
H633 C645 0.929 . S
H634 C648 0.930 . S
H635 C650 0.960 . S
H636 C650 0.960 . S
H637 C650 0.960 . S
C638 H630 0.929 1_556 S
C638 C639 1.377 . S
C638 C640 1.384 . S
C639 C638 1.377 . S
C639 C645 1.390 . S
C640 H631 0.930 . S
C640 C638 1.384 . S
C640 C641 1.372 . S
C641 C640 1.372 . S
C641 C642 1.400 . S
C641 C646 1.490 . S
C642 H632 0.930 . S
C642 C641 1.400 . S
C642 C645 1.386 . S
H643 C659 0.930 . S
H644 C660 0.931 . S
C645 H633 0.929 . S
C645 C639 1.390 . S
C645 C642 1.386 . S
C646 C641 1.490 . S
C646 C648 1.395 . S
C646 C649 1.403 . S
H647 C653 0.930 . S
C648 H634 0.930 . S
C648 C646 1.395 . S
C648 C651 1.403 . S
C649 C646 1.403 . S
C649 C650 1.524 . S
C649 C653 1.400 . S
C650 H635 0.960 . S
C650 H636 0.960 . S
C650 H637 0.960 . S
C650 C649 1.524 . S
C651 C648 1.403 . S
C651 C652 1.392 . S
C651 C655 1.495 . S
C652 C651 1.392 . S
C652 C653 1.385 . S
C652 C654 1.478 . S
C653 H647 0.930 . S
C653 C649 1.400 . S
C653 C652 1.385 . S
C654 C652 1.478 . S
C654 C656 1.381 . S
C654 C660 1.383 . S
C655 C651 1.495 . S
C655 H661 0.959 . S
C655 H662 0.961 . S
C655 H663 0.960 . S
C656 C654 1.381 . S
C656 C657 1.394 . S
C656 H664 0.930 . S
C657 C656 1.394 . S
C657 C658 1.383 . S
C657 H665 0.929 . S
C658 C657 1.383 . S
C658 C659 1.377 . S
C659 H643 0.930 . S
C659 C658 1.377 . S
C659 C660 1.379 . S
C660 H644 0.931 . S
C660 C654 1.383 . S
C660 C659 1.379 . S
H661 C655 0.959 . S
H662 C655 0.961 . S
H663 C655 0.960 . S
H664 C656 0.930 . S
H665 C657 0.929 . S
H666 C674 0.929 . S
H667 C676 0.930 . S
H668 C678 0.930 . S
H669 C681 0.929 . S
H670 C684 0.930 . S
H671 C686 0.960 . S
H672 C686 0.960 . S
H673 C686 0.960 . S
C674 H666 0.929 . S
C674 C675 1.377 . S
C674 C676 1.384 . S
C675 C674 1.377 . S
C675 C681 1.390 . S
C676 H667 0.930 . S
C676 C674 1.384 . S
C676 C677 1.372 . S
C677 C676 1.372 . S
C677 C678 1.400 . S
C677 C682 1.490 . S
C678 H668 0.930 . S
C678 C677 1.400 . S
C678 C681 1.386 . S
H679 C695 0.930 . S
H680 C696 0.931 . S
C681 H669 0.929 . S
C681 C675 1.390 . S
C681 C678 1.386 . S
C682 C677 1.490 . S
C682 C684 1.395 . S
C682 C685 1.403 . S
H683 C689 0.930 . S
C684 H670 0.930 . S
C684 C682 1.395 . S
C684 C687 1.403 . S
C685 C682 1.403 . S
C685 C686 1.524 . S
C685 C689 1.400 . S
C686 H671 0.960 . S
C686 H672 0.960 . S
C686 H673 0.960 . S
C686 C685 1.524 . S
C687 C684 1.403 . S
C687 C688 1.392 . S
C687 C691 1.495 . S
C688 C687 1.392 . S
C688 C689 1.385 . S
C688 C690 1.478 . S
C689 H683 0.930 . S
C689 C685 1.400 . S
C689 C688 1.385 . S
C690 C688 1.478 . S
C690 C692 1.381 . S
C690 C696 1.383 . S
C691 C687 1.495 . S
C691 H697 0.959 . S
C691 H698 0.961 . S
C691 H699 0.960 . S
C692 C690 1.381 . S
C692 C693 1.394 . S
C692 H700 0.930 . S
C693 C692 1.394 . S
C693 C694 1.383 . S
C693 H701 0.929 . S
C694 C693 1.383 . S
C694 C695 1.377 . S
C695 H679 0.930 . S
C695 C694 1.377 . S
C695 C696 1.379 . S
C696 H680 0.931 . S
C696 C690 1.383 . S
C696 C695 1.379 . S
H697 C691 0.959 . S
H698 C691 0.961 . S
H699 C691 0.960 . S
H700 C692 0.930 . S
H701 C693 0.929 . S
H702 C710 0.929 . S
H703 C712 0.930 . S
H704 C714 0.930 . S
H705 C717 0.929 . S
H706 C720 0.930 . S
H707 C722 0.960 . S
H708 C722 0.960 . S
H709 C722 0.960 . S
C710 H702 0.929 . S
C710 C711 1.377 . S
C710 C712 1.384 . S
C711 C710 1.377 . S
C711 C717 1.390 . S
C712 H703 0.930 . S
C712 C710 1.384 . S
C712 C713 1.372 . S
C713 C712 1.372 . S
C713 C714 1.400 . S
C713 C718 1.490 . S
C714 H704 0.930 . S
C714 C713 1.400 . S
C714 C717 1.386 . S
H715 C731 0.930 . S
H716 C732 0.931 . S
C717 H705 0.929 . S
C717 C711 1.390 . S
C717 C714 1.386 . S
C718 C713 1.490 . S
C718 C720 1.395 . S
C718 C721 1.403 . S
H719 C725 0.930 . S
C720 H706 0.930 . S
C720 C718 1.395 . S
C720 C723 1.403 . S
C721 C718 1.403 . S
C721 C722 1.524 . S
C721 C725 1.400 . S
C722 H707 0.960 . S
C722 H708 0.960 . S
C722 H709 0.960 . S
C722 C721 1.524 . S
C723 C720 1.403 . S
C723 C724 1.392 . S
C723 C727 1.495 . S
C724 C723 1.392 . S
C724 C725 1.385 . S
C724 C726 1.478 . S
C725 H719 0.930 . S
C725 C721 1.400 . S
C725 C724 1.385 . S
C726 C724 1.478 . S
C726 C728 1.381 . S
C726 C732 1.383 . S
C727 C723 1.495 . S
C727 H733 0.959 . S
C727 H734 0.961 . S
C727 H735 0.960 . S
C728 C726 1.381 . S
C728 C729 1.394 . S
C728 H736 0.930 . S
C729 C728 1.394 . S
C729 C730 1.383 . S
C729 H737 0.929 . S
C730 C729 1.383 . S
C730 C731 1.377 . S
C731 H715 0.930 . S
C731 C730 1.377 . S
C731 C732 1.379 . S
C732 H716 0.931 . S
C732 C726 1.383 . S
C732 C731 1.379 . S
H733 C727 0.959 . S
H734 C727 0.961 . S
H735 C727 0.960 . S
H736 C728 0.930 . S
H737 C729 0.929 . S
H738 C746 0.929 . S
H739 C748 0.930 . S
H740 C750 0.930 . S
H741 C753 0.929 . S
H742 C756 0.930 . S
H743 C758 0.960 . S
H744 C758 0.960 . S
H745 C758 0.960 . S
C746 H738 0.929 . S
C746 C747 1.377 . S
C746 C748 1.384 . S
C747 C746 1.377 . S
C747 C753 1.390 . S
C748 H739 0.930 . S
C748 C746 1.384 . S
C748 C749 1.372 . S
C749 C748 1.372 . S
C749 C750 1.400 . S
C749 C754 1.490 . S
C750 H740 0.930 . S
C750 C749 1.400 . S
C750 C753 1.386 . S
H751 C767 0.930 . S
H752 C768 0.931 . S
C753 H741 0.929 . S
C753 C747 1.390 . S
C753 C750 1.386 . S
C754 C749 1.490 . S
C754 C756 1.395 . S
C754 C757 1.403 . S
H755 C761 0.930 . S
C756 H742 0.930 . S
C756 C754 1.395 . S
C756 C759 1.403 . S
C757 C754 1.403 . S
C757 C758 1.524 . S
C757 C761 1.400 . S
C758 H743 0.960 . S
C758 H744 0.960 . S
C758 H745 0.960 . S
C758 C757 1.524 . S
C759 C756 1.403 . S
C759 C760 1.392 . S
C759 C763 1.495 . S
C760 C759 1.392 . S
C760 C761 1.385 . S
C760 C762 1.478 . S
C761 H755 0.930 . S
C761 C757 1.400 . S
C761 C760 1.385 . S
C762 C760 1.478 . S
C762 C764 1.381 . S
C762 C768 1.383 . S
C763 C759 1.495 . S
C763 H769 0.959 . S
C763 H770 0.961 . S
C763 H771 0.960 . S
C764 C762 1.381 . S
C764 C765 1.394 . S
C764 H772 0.930 . S
C765 C764 1.394 . S
C765 C766 1.383 . S
C765 H773 0.929 . S
C766 C765 1.383 . S
C766 C767 1.377 . S
C767 H751 0.930 . S
C767 C766 1.377 . S
C767 C768 1.379 . S
C768 H752 0.931 . S
C768 C762 1.383 . S
C768 C767 1.379 . S
H769 C763 0.959 . S
H770 C763 0.961 . S
H771 C763 0.960 . S
H772 C764 0.930 . S
H773 C765 0.929 . S
H774 C782 0.929 . S
H775 C784 0.930 . S
H776 C786 0.930 . S
H777 C789 0.929 . S
H778 C792 0.930 . S
H779 C794 0.960 . S
H780 C794 0.960 . S
H781 C794 0.960 . S
C782 H774 0.929 . S
C782 C783 1.377 . S
C782 C784 1.384 . S
C783 C782 1.377 . S
C783 C789 1.390 . S
C784 H775 0.930 . S
C784 C782 1.384 . S
C784 C785 1.372 . S
C785 C784 1.372 . S
C785 C786 1.400 . S
C785 C790 1.490 . S
C786 H776 0.930 . S
C786 C785 1.400 . S
C786 C789 1.386 . S
H787 C803 0.930 . S
H788 C804 0.931 . S
C789 H777 0.929 . S
C789 C783 1.390 . S
C789 C786 1.386 . S
C790 C785 1.490 . S
C790 C792 1.395 . S
C790 C793 1.403 . S
H791 C797 0.930 . S
C792 H778 0.930 . S
C792 C790 1.395 . S
C792 C795 1.403 . S
C793 C790 1.403 . S
C793 C794 1.524 . S
C793 C797 1.400 . S
C794 H779 0.960 . S
C794 H780 0.960 . S
C794 H781 0.960 . S
C794 C793 1.524 . S
C795 C792 1.403 . S
C795 C796 1.392 . S
C795 C799 1.495 . S
C796 C795 1.392 . S
C796 C797 1.385 . S
C796 C798 1.478 . S
C797 H791 0.930 . S
C797 C793 1.400 . S
C797 C796 1.385 . S
C798 C796 1.478 . S
C798 C800 1.381 . S
C798 C804 1.383 . S
C799 C795 1.495 . S
C799 H805 0.959 . S
C799 H806 0.961 . S
C799 H807 0.960 . S
C800 C798 1.381 . S
C800 C801 1.394 . S
C800 H808 0.930 . S
C801 C800 1.394 . S
C801 C802 1.383 . S
C801 H809 0.929 . S
C802 C801 1.383 . S
C802 C803 1.377 . S
C803 H787 0.930 . S
C803 C802 1.377 . S
C803 C804 1.379 . S
C804 H788 0.931 . S
C804 C798 1.383 . S
C804 C803 1.379 . S
H805 C799 0.959 . S
H806 C799 0.961 . S
H807 C799 0.960 . S
H808 C800 0.930 . S
H809 C801 0.929 . S
H810 C818 0.929 . S
H811 C820 0.930 . S
H812 C822 0.930 . S
H813 C825 0.929 . S
H814 C828 0.930 . S
H815 C830 0.960 . S
H816 C830 0.960 . S
H817 C830 0.960 . S
C818 H810 0.929 . S
C818 C819 1.377 . S
C818 C820 1.384 . S
C819 C818 1.377 . S
C819 C825 1.390 . S
C820 H811 0.930 . S
C820 C818 1.384 . S
C820 C821 1.372 . S
C821 C820 1.372 . S
C821 C822 1.400 . S
C821 C826 1.490 . S
C822 H812 0.930 . S
C822 C821 1.400 . S
C822 C825 1.386 . S
H823 C839 0.909 1_556 S
H824 C840 0.931 . S
C825 H813 0.929 . S
C825 C819 1.390 . S
C825 C822 1.386 . S
C826 C821 1.490 . S
C826 C828 1.395 . S
C826 C829 1.403 . S
H827 C833 0.930 . S
C828 H814 0.930 . S
C828 C826 1.395 . S
C828 C831 1.403 . S
C829 C826 1.403 . S
C829 C830 1.524 . S
C829 C833 1.400 . S
C830 H815 0.960 . S
C830 H816 0.960 . S
C830 H817 0.960 . S
C830 C829 1.524 . S
C831 C828 1.403 . S
C831 C832 1.392 . S
C831 C835 1.495 . S
C832 C831 1.392 . S
C832 C833 1.385 . S
C832 C834 1.478 . S
C833 H827 0.930 . S
C833 C829 1.400 . S
C833 C832 1.385 . S
C834 C832 1.478 . S
C834 C836 1.381 . S
C834 C840 1.383 . S
C835 C831 1.495 . S
C835 H841 0.959 . S
C835 H842 0.961 . S
C835 H843 0.960 . S
C836 C834 1.381 . S
C836 C837 1.394 . S
C836 H844 0.930 . S
C837 C836 1.394 . S
C837 C838 1.383 . S
C837 H845 0.929 . S
C838 C837 1.383 . S
C838 C839 1.377 . S
C839 H823 0.909 1_554 S
C839 C838 1.377 . S
C839 C840 1.379 . S
C840 H824 0.931 . S
C840 C834 1.383 . S
C840 C839 1.379 . S
H841 C835 0.959 . S
H842 C835 0.961 . S
H843 C835 0.960 . S
H844 C836 0.930 . S
H845 C837 0.929 . S
H846 C854 0.929 . S
H847 C856 0.930 . S
H848 C858 0.930 . S
H849 C861 0.929 . S
H850 C864 0.930 . S
H851 C866 0.960 . S
H852 C866 0.960 . S
H853 C866 0.960 . S
C854 H846 0.929 . S
C854 C855 1.377 . S
C854 C856 1.384 . S
C855 C854 1.377 . S
C855 C861 1.390 . S
C856 H847 0.930 . S
C856 C854 1.384 . S
C856 C857 1.372 . S
C857 C856 1.372 . S
C857 C858 1.400 . S
C857 C862 1.490 . S
C858 H848 0.930 . S
C858 C857 1.400 . S
C858 C861 1.386 . S
H859 C875 0.930 1_556 S
H860 C876 0.931 . S
C861 H849 0.929 . S
C861 C855 1.390 . S
C861 C858 1.386 . S
C862 C857 1.490 . S
C862 C864 1.395 . S
C862 C865 1.403 . S
H863 C869 0.930 . S
C864 H850 0.930 . S
C864 C862 1.395 . S
C864 C867 1.403 . S
C865 C862 1.403 . S
C865 C866 1.524 . S
C865 C869 1.400 . S
C866 H851 0.960 . S
C866 H852 0.960 . S
C866 H853 0.960 . S
C866 C865 1.524 . S
C867 C864 1.403 . S
C867 C868 1.392 . S
C867 C871 1.495 . S
C868 C867 1.392 . S
C868 C869 1.385 . S
C868 C870 1.478 . S
C869 H863 0.930 . S
C869 C865 1.400 . S
C869 C868 1.385 . S
C870 C868 1.478 . S
C870 C872 1.381 . S
C870 C876 1.383 . S
C871 C867 1.495 . S
C871 H877 0.959 . S
C871 H878 0.961 . S
C871 H879 0.960 . S
C872 C870 1.381 . S
C872 C873 1.394 . S
C872 H880 0.930 . S
C873 C872 1.394 . S
C873 C874 1.383 . S
C873 H881 0.929 . S
C874 C873 1.383 . S
C874 C875 1.377 . S
C875 H859 0.930 1_554 S
C875 C874 1.377 . S
C875 C876 1.379 . S
C876 H860 0.931 . S
C876 C870 1.383 . S
C876 C875 1.379 . S
H877 C871 0.959 . S
H878 C871 0.961 . S
H879 C871 0.960 . S
H880 C872 0.930 . S
H881 C873 0.929 . S
H882 C890 0.929 . S
H883 C892 0.930 . S
H884 C894 0.930 . S
H885 C897 0.929 . S
H886 C900 0.930 . S
H887 C902 0.960 . S
H888 C902 0.960 . S
H889 C902 0.960 . S
C890 H882 0.929 . S
C890 C891 1.377 . S
C890 C892 1.384 . S
C891 C890 1.377 . S
C891 C897 1.390 . S
C892 H883 0.930 . S
C892 C890 1.384 . S
C892 C893 1.372 . S
C893 C892 1.372 . S
C893 C894 1.400 . S
C893 C898 1.490 . S
C894 H884 0.930 . S
C894 C893 1.400 . S
C894 C897 1.386 . S
H895 C911 0.930 . S
H896 C912 0.931 . S
C897 H885 0.929 . S
C897 C891 1.390 . S
C897 C894 1.386 . S
C898 C893 1.490 . S
C898 C900 1.395 . S
C898 C901 1.403 . S
H899 C905 0.930 . S
C900 H886 0.930 . S
C900 C898 1.395 . S
C900 C903 1.403 . S
C901 C898 1.403 . S
C901 C902 1.524 . S
C901 C905 1.400 . S
C902 H887 0.960 . S
C902 H888 0.960 . S
C902 H889 0.960 . S
C902 C901 1.524 . S
C903 C900 1.403 . S
C903 C904 1.392 . S
C903 C907 1.495 . S
C904 C903 1.392 . S
C904 C905 1.385 . S
C904 C906 1.478 . S
C905 H899 0.930 . S
C905 C901 1.400 . S
C905 C904 1.385 . S
C906 C904 1.478 . S
C906 C908 1.381 . S
C906 C912 1.383 . S
C907 C903 1.495 . S
C907 H913 0.959 . S
C907 H914 0.961 . S
C907 H915 0.960 . S
C908 C906 1.381 . S
C908 C909 1.394 . S
C908 H916 0.930 . S
C909 C908 1.394 . S
C909 C910 1.383 . S
C909 H917 0.929 . S
C910 C909 1.383 . S
C910 C911 1.377 . S
C911 H895 0.930 . S
C911 C910 1.377 . S
C911 C912 1.379 . S
C912 H896 0.931 . S
C912 C906 1.383 . S
C912 C911 1.379 . S
H913 C907 0.959 . S
H914 C907 0.961 . S
H915 C907 0.960 . S
H916 C908 0.930 . S
H917 C909 0.929 . S
H918 C926 0.929 . S
H919 C928 0.930 . S
H920 C930 0.930 . S
H921 C933 0.929 . S
H922 C936 0.930 . S
H923 C938 0.960 . S
H924 C938 0.960 . S
H925 C938 0.960 . S
C926 H918 0.929 . S
C926 C927 1.377 . S
C926 C928 1.384 . S
C927 C926 1.377 . S
C927 C933 1.390 . S
C928 H919 0.930 . S
C928 C926 1.384 . S
C928 C929 1.372 . S
C929 C928 1.372 . S
C929 C930 1.400 . S
C929 C934 1.490 . S
C930 H920 0.930 . S
C930 C929 1.400 . S
C930 C933 1.386 . S
H931 C947 0.930 . S
H932 C948 0.931 . S
C933 H921 0.929 . S
C933 C927 1.390 . S
C933 C930 1.386 . S
C934 C929 1.490 . S
C934 C936 1.395 . S
C934 C937 1.403 . S
H935 C941 0.930 . S
C936 H922 0.930 . S
C936 C934 1.395 . S
C936 C939 1.403 . S
C937 C934 1.403 . S
C937 C938 1.524 . S
C937 C941 1.400 . S
C938 H923 0.960 . S
C938 H924 0.960 . S
C938 H925 0.960 . S
C938 C937 1.524 . S
C939 C936 1.403 . S
C939 C940 1.392 . S
C939 C943 1.495 . S
C940 C939 1.392 . S
C940 C941 1.385 . S
C940 C942 1.478 . S
C941 H935 0.930 . S
C941 C937 1.400 . S
C941 C940 1.385 . S
C942 C940 1.478 . S
C942 C944 1.381 . S
C942 C948 1.383 . S
C943 C939 1.495 . S
C943 H949 0.959 . S
C943 H950 0.961 . S
C943 H951 0.960 . S
C944 C942 1.381 . S
C944 C945 1.394 . S
C944 H952 0.930 . S
C945 C944 1.394 . S
C945 C946 1.383 . S
C945 H953 0.929 . S
C946 C945 1.383 . S
C946 C947 1.377 . S
C947 H931 0.930 . S
C947 C946 1.377 . S
C947 C948 1.379 . S
C948 H932 0.931 . S
C948 C942 1.383 . S
C948 C947 1.379 . S
H949 C943 0.959 . S
H950 C943 0.961 . S
H951 C943 0.960 . S
H952 C944 0.930 . S
H953 C945 0.929 . S
H954 C962 0.929 . S
H955 C964 0.930 . S
H956 C966 0.930 . S
H957 C969 0.929 . S
H958 C972 0.930 1_565 S
H959 C974 0.960 . S
H960 C974 0.960 . S
H961 C974 0.960 . S
C962 H954 0.929 . S
C962 C963 1.377 . S
C962 C964 1.384 . S
C963 C962 1.377 . S
C963 C969 1.390 1_565 S
C964 H955 0.930 . S
C964 C962 1.384 . S
C964 C965 1.372 1_565 S
C965 C964 1.372 1_545 S
C965 C966 1.400 . S
C965 C970 1.490 . S
C966 H956 0.930 . S
C966 C965 1.400 . S
C966 C969 1.386 . S
H967 C983 0.930 . S
H968 C984 0.931 . S
C969 H957 0.929 . S
C969 C963 1.390 1_545 S
C969 C966 1.386 . S
C970 C965 1.490 . S
C970 C972 1.395 . S
C970 C973 1.403 . S
H971 C977 0.930 . S
C972 H958 0.930 1_545 S
C972 C970 1.395 . S
C972 C975 1.403 . S
C973 C970 1.403 . S
C973 C974 1.524 . S
C973 C977 1.400 . S
C974 H959 0.960 . S
C974 H960 0.960 . S
C974 H961 0.960 . S
C974 C973 1.524 . S
C975 C972 1.403 . S
C975 C976 1.392 . S
C975 C979 1.495 . S
C976 C975 1.392 . S
C976 C977 1.385 . S
C976 C978 1.478 . S
C977 H971 0.930 . S
C977 C973 1.400 . S
C977 C976 1.385 . S
C978 C976 1.478 . S
C978 C980 1.381 . S
C978 C984 1.383 . S
C979 C975 1.495 . S
C979 H985 0.959 1_545 S
C979 H986 0.961 . S
C979 H987 0.960 . S
C980 C978 1.381 . S
C980 C981 1.394 . S
C980 H988 0.930 . S
C981 C980 1.394 . S
C981 C982 1.383 . S
C981 H989 0.929 . S
C982 C981 1.383 . S
C982 C983 1.377 . S
C983 H967 0.930 . S
C983 C982 1.377 . S
C983 C984 1.379 . S
C984 H968 0.931 . S
C984 C978 1.383 . S
C984 C983 1.379 . S
H985 C979 0.959 1_565 S
H986 C979 0.961 . S
H987 C979 0.960 . S
H988 C980 0.930 . S
H989 C981 0.929 . S
H990 C998 0.929 . S
H991 C1000 0.930 . S
H992 C1002 0.930 . S
H993 C1005 0.929 . S
H994 C1008 0.930 . S
H995 C1010 0.960 . S
H996 C1010 0.960 . S
H997 C1010 0.960 . S
C998 H990 0.929 . S
C998 C999 1.377 . S
C998 C1000 1.384 . S
C999 C998 1.377 . S
C999 C1005 1.390 . S
C1000 H991 0.930 . S
C1000 C998 1.384 . S
C1000 C1001 1.372 . S
C1001 C1000 1.372 . S
C1001 C1002 1.400 . S
C1001 C1006 1.490 . S
C1002 H992 0.930 . S
C1002 C1001 1.400 . S
C1002 C1005 1.386 . S
H1003 C1019 0.930 . S
H1004 C1020 0.931 1_556 S
C1005 H993 0.929 . S
C1005 C999 1.390 . S
C1005 C1002 1.386 . S
C1006 C1001 1.490 . S
C1006 C1008 1.395 . S
C1006 C1009 1.403 . S
H1007 C1013 0.930 . S
C1008 H994 0.930 . S
C1008 C1006 1.395 . S
C1008 C1011 1.403 . S
C1009 C1006 1.403 . S
C1009 C1010 1.524 . S
C1009 C1013 1.400 . S
C1010 H995 0.960 . S
C1010 H996 0.960 . S
C1010 H997 0.960 . S
C1010 C1009 1.524 . S
C1011 C1008 1.403 . S
C1011 C1012 1.392 . S
C1011 C1015 1.495 . S
C1012 C1011 1.392 . S
C1012 C1013 1.385 . S
C1012 C1014 1.478 . S
C1013 H1007 0.930 . S
C1013 C1009 1.400 . S
C1013 C1012 1.385 . S
C1014 C1012 1.478 . S
C1014 C1016 1.381 . S
C1014 C1020 1.383 . S
C1015 C1011 1.495 . S
C1015 H1021 0.959 . S
C1015 H1022 0.961 . S
C1015 H1023 0.960 . S
C1016 C1014 1.381 . S
C1016 C1017 1.394 . S
C1016 H1024 0.930 . S
C1017 C1016 1.394 . S
C1017 C1018 1.383 . S
C1017 H1025 0.929 . S
C1018 C1017 1.383 . S
C1018 C1019 1.377 1_554 S
C1019 H1003 0.930 . S
C1019 C1018 1.377 1_556 S
C1019 C1020 1.379 1_556 S
C1020 H1004 0.931 1_554 S
C1020 C1014 1.383 . S
C1020 C1019 1.379 1_554 S
H1021 C1015 0.959 . S
H1022 C1015 0.961 . S
H1023 C1015 0.960 . S
H1024 C1016 0.930 . S
H1025 C1017 0.929 . S
H1026 C1034 0.929 . S
H1027 C1036 0.930 . S
H1028 C1038 0.930 . S
H1029 C1041 0.929 . S
H1030 C1044 0.930 . S
H1031 C1046 0.931 1_455 S
H1032 C1046 0.989 . S
H1033 C1046 0.962 1_455 S
C1034 H1026 0.929 . S
C1034 C1035 1.377 . S
C1034 C1036 1.384 . S
C1035 C1034 1.377 . S
C1035 C1041 1.390 1_554 S
C1036 H1027 0.930 . S
C1036 C1034 1.384 . S
C1036 C1037 1.372 . S
C1037 C1036 1.372 . S
C1037 C1038 1.400 . S
C1037 C1042 1.490 . S
C1038 H1028 0.930 . S
C1038 C1037 1.400 . S
C1038 C1041 1.386 1_554 S
H1039 C1055 0.930 . S
H1040 C1056 0.931 . S
C1041 H1029 0.929 . S
C1041 C1035 1.390 1_556 S
C1041 C1038 1.386 1_556 S
C1042 C1037 1.490 . S
C1042 C1044 1.395 . S
C1042 C1045 1.403 . S
H1043 C1049 0.930 1_455 S
C1044 H1030 0.930 . S
C1044 C1042 1.395 . S
C1044 C1047 1.403 . S
C1045 C1042 1.403 . S
C1045 C1046 1.524 . S
C1045 C1049 1.400 . S
C1046 H1031 0.931 1_655 S
C1046 H1032 0.989 . S
C1046 H1033 0.962 1_655 S
C1046 C1045 1.524 . S
C1047 C1044 1.403 . S
C1047 C1048 1.392 . S
C1047 C1051 1.495 . S
C1048 C1047 1.392 . S
C1048 C1049 1.385 . S
C1048 C1050 1.478 . S
C1049 H1043 0.930 1_655 S
C1049 C1045 1.400 . S
C1049 C1048 1.385 . S
C1050 C1048 1.478 . S
C1050 C1052 1.381 . S
C1050 C1056 1.383 1_655 S
C1051 C1047 1.495 . S
C1051 H1057 0.959 . S
C1051 H1058 0.961 . S
C1051 H1059 0.960 . S
C1052 C1050 1.381 . S
C1052 C1053 1.394 . S
C1052 H1060 0.930 . S
C1053 C1052 1.394 . S
C1053 C1054 1.383 1_655 S
C1053 H1061 0.929 . S
C1054 C1053 1.383 1_455 S
C1054 C1055 1.377 . S
C1055 H1039 0.930 . S
C1055 C1054 1.377 . S
C1055 C1056 1.379 . S
C1056 H1040 0.931 . S
C1056 C1050 1.383 1_455 S
C1056 C1055 1.379 . S
H1057 C1051 0.959 . S
H1058 C1051 0.961 . S
H1059 C1051 0.960 . S
H1060 C1052 0.930 . S
H1061 C1053 0.929 . S
H1062 C1070 0.929 . S
H1063 C1072 0.930 . S
H1064 C1074 0.930 . S
H1065 C1077 0.929 . S
H1066 C1080 0.930 . S
H1067 C1082 0.964 . S
H1068 C1082 0.960 1_556 S
H1069 C1082 0.960 . S
C1070 H1062 0.929 . S
C1070 C1071 1.377 . S
C1070 C1072 1.384 . S
C1071 C1070 1.377 . S
C1071 C1077 1.390 . S
C1072 H1063 0.930 . S
C1072 C1070 1.384 . S
C1072 C1073 1.372 . S
C1073 C1072 1.372 . S
C1073 C1074 1.400 . S
C1073 C1078 1.490 . S
C1074 H1064 0.930 . S
C1074 C1073 1.400 . S
C1074 C1077 1.386 . S
H1075 C1091 0.930 . S
H1076 C1092 0.931 . S
C1077 H1065 0.929 . S
C1077 C1071 1.390 . S
C1077 C1074 1.386 . S
C1078 C1073 1.490 . S
C1078 C1080 1.395 . S
C1078 C1081 1.403 . S
H1079 C1085 0.930 . S
C1080 H1066 0.930 . S
C1080 C1078 1.395 . S
C1080 C1083 1.403 . S
C1081 C1078 1.403 . S
C1081 C1082 1.524 . S
C1081 C1085 1.400 . S
C1082 H1067 0.964 . S
C1082 H1068 0.960 1_554 S
C1082 H1069 0.960 . S
C1082 C1081 1.524 . S
C1083 C1080 1.403 . S
C1083 C1084 1.392 . S
C1083 C1087 1.495 . S
C1084 C1083 1.392 . S
C1084 C1085 1.385 . S
C1084 C1086 1.478 . S
C1085 H1079 0.930 . S
C1085 C1081 1.400 . S
C1085 C1084 1.385 . S
C1086 C1084 1.478 . S
C1086 C1088 1.381 . S
C1086 C1092 1.383 . S
C1087 C1083 1.495 . S
C1087 H1093 0.959 . S
C1087 H1094 0.961 . S
C1087 H1095 0.960 . S
C1088 C1086 1.381 . S
C1088 C1089 1.394 . S
C1088 H1096 0.930 . S
C1089 C1088 1.394 . S
C1089 C1090 1.383 . S
C1089 H1097 0.929 . S
C1090 C1089 1.383 . S
C1090 C1091 1.377 . S
C1091 H1075 0.930 . S
C1091 C1090 1.377 . S
C1091 C1092 1.379 . S
C1092 H1076 0.931 . S
C1092 C1086 1.383 . S
C1092 C1091 1.379 . S
H1093 C1087 0.959 . S
H1094 C1087 0.961 . S
H1095 C1087 0.960 . S
H1096 C1088 0.930 . S
H1097 C1089 0.929 . S
H1098 C1106 0.929 . S
H1099 C1108 0.930 . S
H1100 C1110 0.930 . S
H1101 C1113 0.929 . S
H1102 C1116 0.930 . S
H1103 C1118 0.960 . S
H1104 C1118 0.960 . S
H1105 C1118 0.960 . S
C1106 H1098 0.929 . S
C1106 C1107 1.377 . S
C1106 C1108 1.384 . S
C1107 C1106 1.377 . S
C1107 C1113 1.390 . S
C1108 H1099 0.930 . S
C1108 C1106 1.384 . S
C1108 C1109 1.372 . S
C1109 C1108 1.372 . S
C1109 C1110 1.400 . S
C1109 C1114 1.490 . S
C1110 H1100 0.930 . S
C1110 C1109 1.400 . S
C1110 C1113 1.386 . S
H1111 C1127 0.930 . S
H1112 C1128 0.931 . S
C1113 H1101 0.929 . S
C1113 C1107 1.390 . S
C1113 C1110 1.386 . S
C1114 C1109 1.490 . S
C1114 C1116 1.395 . S
C1114 C1117 1.403 . S
H1115 C1121 0.930 1_455 S
C1116 H1102 0.930 . S
C1116 C1114 1.395 . S
C1116 C1119 1.403 . S
C1117 C1114 1.403 . S
C1117 C1118 1.524 . S
C1117 C1121 1.400 . S
C1118 H1103 0.960 . S
C1118 H1104 0.960 . S
C1118 H1105 0.960 . S
C1118 C1117 1.524 . S
C1119 C1116 1.403 . S
C1119 C1120 1.392 . S
C1119 C1123 1.495 . S
C1120 C1119 1.392 . S
C1120 C1121 1.385 . S
C1120 C1122 1.478 1_655 S
C1121 H1115 0.930 1_655 S
C1121 C1117 1.400 . S
C1121 C1120 1.385 . S
C1122 C1120 1.478 1_455 S
C1122 C1124 1.381 1_455 S
C1122 C1128 1.383 . S
C1123 C1119 1.495 . S
C1123 H1129 0.959 . S
C1123 H1130 0.961 . S
C1123 H1131 0.960 . S
C1124 C1122 1.381 1_655 S
C1124 C1125 1.394 1_655 S
C1124 H1132 0.930 . S
C1125 C1124 1.394 1_455 S
C1125 C1126 1.383 . S
C1125 H1133 0.929 1_455 S
C1126 C1125 1.383 . S
C1126 C1127 1.377 . S
C1127 H1111 0.930 . S
C1127 C1126 1.377 . S
C1127 C1128 1.379 . S
C1128 H1112 0.931 . S
C1128 C1122 1.383 . S
C1128 C1127 1.379 . S
H1129 C1123 0.959 . S
H1130 C1123 0.961 . S
H1131 C1123 0.960 . S
H1132 C1124 0.930 . S
H1133 C1125 0.929 1_655 S
H1134 C1142 0.929 . S
H1135 C1144 0.930 . S
H1136 C1146 0.930 . S
H1137 C1149 0.929 . S
H1138 C1152 0.930 . S
H1139 C1154 0.960 . S
H1140 C1154 0.960 . S
H1141 C1154 0.960 . S
C1142 H1134 0.929 . S
C1142 C1143 1.377 . S
C1142 C1144 1.384 . S
C1143 C1142 1.377 . S
C1143 C1149 1.390 . S
C1144 H1135 0.930 . S
C1144 C1142 1.384 . S
C1144 C1145 1.372 . S
C1145 C1144 1.372 . S
C1145 C1146 1.400 . S
C1145 C1150 1.490 . S
C1146 H1136 0.930 . S
C1146 C1145 1.400 . S
C1146 C1149 1.386 . S
H1147 C1163 0.930 . S
H1148 C1164 0.931 . S
C1149 H1137 0.929 . S
C1149 C1143 1.390 . S
C1149 C1146 1.386 . S
C1150 C1145 1.490 . S
C1150 C1152 1.395 . S
C1150 C1153 1.403 . S
H1151 C1157 0.930 . S
C1152 H1138 0.930 . S
C1152 C1150 1.395 . S
C1152 C1155 1.403 . S
C1153 C1150 1.403 . S
C1153 C1154 1.524 . S
C1153 C1157 1.400 . S
C1154 H1139 0.960 . S
C1154 H1140 0.960 . S
C1154 H1141 0.960 . S
C1154 C1153 1.524 . S
C1155 C1152 1.403 . S
C1155 C1156 1.392 . S
C1155 C1159 1.495 . S
C1156 C1155 1.392 . S
C1156 C1157 1.385 . S
C1156 C1158 1.478 . S
C1157 H1151 0.930 . S
C1157 C1153 1.400 . S
C1157 C1156 1.385 . S
C1158 C1156 1.478 . S
C1158 C1160 1.381 . S
C1158 C1164 1.383 . S
C1159 C1155 1.495 . S
C1159 H1165 0.959 . S
C1159 H1166 0.961 . S
C1159 H1167 0.960 . S
C1160 C1158 1.381 . S
C1160 C1161 1.394 . S
C1160 H1168 0.930 . S
C1161 C1160 1.394 . S
C1161 C1162 1.383 . S
C1161 H1169 0.929 . S
C1162 C1161 1.383 . S
C1162 C1163 1.377 . S
C1163 H1147 0.930 . S
C1163 C1162 1.377 . S
C1163 C1164 1.379 . S
C1164 H1148 0.931 . S
C1164 C1158 1.383 . S
C1164 C1163 1.379 . S
H1165 C1159 0.959 . S
H1166 C1159 0.961 . S
H1167 C1159 0.960 . S
H1168 C1160 0.930 . S
H1169 C1161 0.929 . S
H1170 C1178 0.929 . S
H1171 C1180 0.930 . S
H1172 C1182 0.930 . S
H1173 C1185 0.929 . S
H1174 C1188 0.930 . S
H1175 C1190 0.960 . S
H1176 C1190 0.960 . S
H1177 C1190 0.960 . S
C1178 H1170 0.929 . S
C1178 C1179 1.377 . S
C1178 C1180 1.384 . S
C1179 C1178 1.377 . S
C1179 C1185 1.390 . S
C1180 H1171 0.930 . S
C1180 C1178 1.384 . S
C1180 C1181 1.372 . S
C1181 C1180 1.372 . S
C1181 C1182 1.400 . S
C1181 C1186 1.490 . S
C1182 H1172 0.930 . S
C1182 C1181 1.400 . S
C1182 C1185 1.386 . S
H1183 C1199 0.930 . S
H1184 C1200 0.931 . S
C1185 H1173 0.929 . S
C1185 C1179 1.390 . S
C1185 C1182 1.386 . S
C1186 C1181 1.490 . S
C1186 C1188 1.395 . S
C1186 C1189 1.403 . S
H1187 C1193 0.930 . S
C1188 H1174 0.930 . S
C1188 C1186 1.395 . S
C1188 C1191 1.403 . S
C1189 C1186 1.403 . S
C1189 C1190 1.524 . S
C1189 C1193 1.400 . S
C1190 H1175 0.960 . S
C1190 H1176 0.960 . S
C1190 H1177 0.960 . S
C1190 C1189 1.524 . S
C1191 C1188 1.403 . S
C1191 C1192 1.392 . S
C1191 C1195 1.495 . S
C1192 C1191 1.392 . S
C1192 C1193 1.385 . S
C1192 C1194 1.478 . S
C1193 H1187 0.930 . S
C1193 C1189 1.400 . S
C1193 C1192 1.385 . S
C1194 C1192 1.478 . S
C1194 C1196 1.381 . S
C1194 C1200 1.383 . S
C1195 C1191 1.495 . S
C1195 H1201 0.959 . S
C1195 H1202 0.961 . S
C1195 H1203 0.960 . S
C1196 C1194 1.381 . S
C1196 C1197 1.394 . S
C1196 H1204 0.930 . S
C1197 C1196 1.394 . S
C1197 C1198 1.383 . S
C1197 H1205 0.929 . S
C1198 C1197 1.383 . S
C1198 C1199 1.377 . S
C1199 H1183 0.930 . S
C1199 C1198 1.377 . S
C1199 C1200 1.379 . S
C1200 H1184 0.931 . S
C1200 C1194 1.383 . S
C1200 C1199 1.379 . S
H1201 C1195 0.959 . S
H1202 C1195 0.961 . S
H1203 C1195 0.960 . S
H1204 C1196 0.930 . S
H1205 C1197 0.929 . S
H1206 C1214 0.929 . S
H1207 C1216 0.930 . S
H1208 C1218 0.930 1_554 S
H1209 C1221 0.929 . S
H1210 C1224 0.930 . S
H1211 C1226 0.960 . S
H1212 C1226 0.960 1_565 S
H1213 C1226 0.941 1_554 S
C1214 H1206 0.929 . S
C1214 C1215 1.377 . S
C1214 C1216 1.384 1_565 S
C1215 C1214 1.377 . S
C1215 C1221 1.390 1_566 S
C1216 H1207 0.930 . S
C1216 C1214 1.384 1_545 S
C1216 C1217 1.372 . S
C1217 C1216 1.372 . S
C1217 C1218 1.400 . S
C1217 C1222 1.490 . S
C1218 H1208 0.930 1_556 S
C1218 C1217 1.400 . S
C1218 C1221 1.386 1_556 S
H1219 C1235 0.930 . S
H1220 C1236 0.931 . S
C1221 H1209 0.929 . S
C1221 C1215 1.390 1_544 S
C1221 C1218 1.386 1_554 S
C1222 C1217 1.490 . S
C1222 C1224 1.395 . S
C1222 C1225 1.403 . S
H1223 C1229 0.930 . S
C1224 H1210 0.930 . S
C1224 C1222 1.395 . S
C1224 C1227 1.403 . S
C1225 C1222 1.403 . S
C1225 C1226 1.524 . S
C1225 C1229 1.400 . S
C1226 H1211 0.960 . S
C1226 H1212 0.960 1_545 S
C1226 H1213 0.941 1_556 S
C1226 C1225 1.524 . S
C1227 C1224 1.403 . S
C1227 C1228 1.392 . S
C1227 C1231 1.495 . S
C1228 C1227 1.392 . S
C1228 C1229 1.385 . S
C1228 C1230 1.478 . S
C1229 H1223 0.930 . S
C1229 C1225 1.400 . S
C1229 C1228 1.385 . S
C1230 C1228 1.478 . S
C1230 C1232 1.381 . S
C1230 C1236 1.383 . S
C1231 C1227 1.495 . S
C1231 H1237 0.959 . S
C1231 H1238 0.961 . S
C1231 H1239 0.960 . S
C1232 C1230 1.381 . S
C1232 C1233 1.394 . S
C1232 H1240 0.930 . S
C1233 C1232 1.394 . S
C1233 C1234 1.383 . S
C1233 H1241 0.929 . S
C1234 C1233 1.383 . S
C1234 C1235 1.377 . S
C1235 H1219 0.930 . S
C1235 C1234 1.377 . S
C1235 C1236 1.379 . S
C1236 H1220 0.931 . S
C1236 C1230 1.383 . S
C1236 C1235 1.379 . S
H1237 C1231 0.959 . S
H1238 C1231 0.961 . S
H1239 C1231 0.960 . S
H1240 C1232 0.930 . S
H1241 C1233 0.929 . S
H1242 C1250 0.929 . S
H1243 C1252 0.930 . S
H1244 C1254 0.930 . S
H1245 C1257 0.929 . S
H1246 C1260 0.930 . S
H1247 C1262 0.960 . S
H1248 C1262 0.960 . S
H1249 C1262 0.960 . S
C1250 H1242 0.929 . S
C1250 C1251 1.377 . S
C1250 C1252 1.384 . S
C1251 C1250 1.377 . S
C1251 C1257 1.390 . S
C1252 H1243 0.930 . S
C1252 C1250 1.384 . S
C1252 C1253 1.372 . S
C1253 C1252 1.372 . S
C1253 C1254 1.400 . S
C1253 C1258 1.490 . S
C1254 H1244 0.930 . S
C1254 C1253 1.400 . S
C1254 C1257 1.386 . S
H1255 C1271 0.930 . S
H1256 C1272 0.931 1_554 S
C1257 H1245 0.929 . S
C1257 C1251 1.390 . S
C1257 C1254 1.386 . S
C1258 C1253 1.490 . S
C1258 C1260 1.395 . S
C1258 C1261 1.403 . S
H1259 C1265 0.930 . S
C1260 H1246 0.930 . S
C1260 C1258 1.395 . S
C1260 C1263 1.403 . S
C1261 C1258 1.403 . S
C1261 C1262 1.524 . S
C1261 C1265 1.400 . S
C1262 H1247 0.960 . S
C1262 H1248 0.960 . S
C1262 H1249 0.960 . S
C1262 C1261 1.524 . S
C1263 C1260 1.403 . S
C1263 C1264 1.392 . S
C1263 C1267 1.495 . S
C1264 C1263 1.392 . S
C1264 C1265 1.385 . S
C1264 C1266 1.478 . S
C1265 H1259 0.930 . S
C1265 C1261 1.400 . S
C1265 C1264 1.385 . S
C1266 C1264 1.478 . S
C1266 C1268 1.381 . S
C1266 C1272 1.383 . S
C1267 C1263 1.495 . S
C1267 H1273 0.959 . S
C1267 H1274 0.961 . S
C1267 H1275 0.960 . S
C1268 C1266 1.381 . S
C1268 C1269 1.394 . S
C1268 H1276 0.930 . S
C1269 C1268 1.394 . S
C1269 C1270 1.383 . S
C1269 H1277 0.929 . S
C1270 C1269 1.383 . S
C1270 C1271 1.377 1_556 S
C1271 H1255 0.930 . S
C1271 C1270 1.377 1_554 S
C1271 C1272 1.379 1_554 S
C1272 H1256 0.931 1_556 S
C1272 C1266 1.383 . S
C1272 C1271 1.379 1_556 S
H1273 C1267 0.959 . S
H1274 C1267 0.961 . S
H1275 C1267 0.960 . S
H1276 C1268 0.930 . S
H1277 C1269 0.929 . S
H1278 C1286 0.929 . S
H1279 C1288 0.930 . S
H1280 C1290 0.930 . S
H1281 C1293 0.929 . S
H1282 C1296 0.930 . S
H1283 C1298 0.960 . S
H1284 C1298 0.960 . S
H1285 C1298 0.960 . S
C1286 H1278 0.929 . S
C1286 C1287 1.377 . S
C1286 C1288 1.384 . S
C1287 C1286 1.377 . S
C1287 C1293 1.390 . S
C1288 H1279 0.930 . S
C1288 C1286 1.384 . S
C1288 C1289 1.372 . S
C1289 C1288 1.372 . S
C1289 C1290 1.400 . S
C1289 C1294 1.490 . S
C1290 H1280 0.930 . S
C1290 C1289 1.400 . S
C1290 C1293 1.386 . S
H1291 C1307 0.930 . S
H1292 C1308 0.931 . S
C1293 H1281 0.929 . S
C1293 C1287 1.390 . S
C1293 C1290 1.386 . S
C1294 C1289 1.490 . S
C1294 C1296 1.395 . S
C1294 C1297 1.403 . S
H1295 C1301 0.930 . S
C1296 H1282 0.930 . S
C1296 C1294 1.395 . S
C1296 C1299 1.403 . S
C1297 C1294 1.403 . S
C1297 C1298 1.524 . S
C1297 C1301 1.400 . S
C1298 H1283 0.960 . S
C1298 H1284 0.960 . S
C1298 H1285 0.960 . S
C1298 C1297 1.524 . S
C1299 C1296 1.403 . S
C1299 C1300 1.392 . S
C1299 C1303 1.495 . S
C1300 C1299 1.392 . S
C1300 C1301 1.385 . S
C1300 C1302 1.478 . S
C1301 H1295 0.930 . S
C1301 C1297 1.400 . S
C1301 C1300 1.385 . S
C1302 C1300 1.478 . S
C1302 C1304 1.381 1_556 S
C1302 C1308 1.383 . S
C1303 C1299 1.495 . S
C1303 H1309 0.959 . S
C1303 H1310 0.961 . S
C1303 H1311 0.945 1_556 S
C1304 C1302 1.381 1_554 S
C1304 C1305 1.394 . S
C1304 H1312 0.930 . S
C1305 C1304 1.394 . S
C1305 C1306 1.383 1_554 S
C1305 H1313 0.929 . S
C1306 C1305 1.383 1_556 S
C1306 C1307 1.377 . S
C1307 H1291 0.930 . S
C1307 C1306 1.377 . S
C1307 C1308 1.379 . S
C1308 H1292 0.931 . S
C1308 C1302 1.383 . S
C1308 C1307 1.379 . S
H1309 C1303 0.959 . S
H1310 C1303 0.961 . S
H1311 C1303 0.945 1_554 S
H1312 C1304 0.930 . S
H1313 C1305 0.929 . S
H1314 C1322 0.929 . S
H1315 C1324 0.930 . S
H1316 C1326 0.930 . S
H1317 C1329 0.929 . S
H1318 C1332 0.930 . S
H1319 C1334 0.960 . S
H1320 C1334 0.960 . S
H1321 C1334 0.960 . S
C1322 H1314 0.929 . S
C1322 C1323 1.377 . S
C1322 C1324 1.384 . S
C1323 C1322 1.377 . S
C1323 C1329 1.390 . S
C1324 H1315 0.930 . S
C1324 C1322 1.384 . S
C1324 C1325 1.372 . S
C1325 C1324 1.372 . S
C1325 C1326 1.400 . S
C1325 C1330 1.490 . S
C1326 H1316 0.930 . S
C1326 C1325 1.400 . S
C1326 C1329 1.386 . S
H1327 C1343 0.930 . S
H1328 C1344 0.931 . S
C1329 H1317 0.929 . S
C1329 C1323 1.390 . S
C1329 C1326 1.386 . S
C1330 C1325 1.490 . S
C1330 C1332 1.395 . S
C1330 C1333 1.403 . S
H1331 C1337 0.930 . S
C1332 H1318 0.930 . S
C1332 C1330 1.395 . S
C1332 C1335 1.403 . S
C1333 C1330 1.403 . S
C1333 C1334 1.524 . S
C1333 C1337 1.400 . S
C1334 H1319 0.960 . S
C1334 H1320 0.960 . S
C1334 H1321 0.960 . S
C1334 C1333 1.524 . S
C1335 C1332 1.403 . S
C1335 C1336 1.392 . S
C1335 C1339 1.495 . S
C1336 C1335 1.392 . S
C1336 C1337 1.385 . S
C1336 C1338 1.478 . S
C1337 H1331 0.930 . S
C1337 C1333 1.400 . S
C1337 C1336 1.385 . S
C1338 C1336 1.478 . S
C1338 C1340 1.381 . S
C1338 C1344 1.383 . S
C1339 C1335 1.495 . S
C1339 H1345 0.959 . S
C1339 H1346 0.961 . S
C1339 H1347 0.960 . S
C1340 C1338 1.381 . S
C1340 C1341 1.394 . S
C1340 H1348 0.930 . S
C1341 C1340 1.394 . S
C1341 C1342 1.383 . S
C1341 H1349 0.929 . S
C1342 C1341 1.383 . S
C1342 C1343 1.377 . S
C1343 H1327 0.930 . S
C1343 C1342 1.377 . S
C1343 C1344 1.379 . S
C1344 H1328 0.931 . S
C1344 C1338 1.383 . S
C1344 C1343 1.379 . S
H1345 C1339 0.959 . S
H1346 C1339 0.961 . S
H1347 C1339 0.960 . S
H1348 C1340 0.930 . S
H1349 C1341 0.929 . S
H1350 C1358 0.929 . S
H1351 C1360 0.930 . S
H1352 C1362 0.930 . S
H1353 C1365 0.929 . S
H1354 C1368 0.930 . S
H1355 C1370 0.960 . S
H1356 C1370 0.960 . S
H1357 C1370 0.960 . S
C1358 H1350 0.929 . S
C1358 C1359 1.377 . S
C1358 C1360 1.384 . S
C1359 C1358 1.377 . S
C1359 C1365 1.390 . S
C1360 H1351 0.930 . S
C1360 C1358 1.384 . S
C1360 C1361 1.372 . S
C1361 C1360 1.372 . S
C1361 C1362 1.400 . S
C1361 C1366 1.490 . S
C1362 H1352 0.930 . S
C1362 C1361 1.400 . S
C1362 C1365 1.386 . S
H1363 C1379 0.930 . S
H1364 C1380 0.931 . S
C1365 H1353 0.929 . S
C1365 C1359 1.390 . S
C1365 C1362 1.386 . S
C1366 C1361 1.490 . S
C1366 C1368 1.395 . S
C1366 C1369 1.403 . S
H1367 C1373 0.930 . S
C1368 H1354 0.930 . S
C1368 C1366 1.395 . S
C1368 C1371 1.403 . S
C1369 C1366 1.403 . S
C1369 C1370 1.524 . S
C1369 C1373 1.400 . S
C1370 H1355 0.960 . S
C1370 H1356 0.960 . S
C1370 H1357 0.960 . S
C1370 C1369 1.524 . S
C1371 C1368 1.403 . S
C1371 C1372 1.392 . S
C1371 C1375 1.495 . S
C1372 C1371 1.392 . S
C1372 C1373 1.385 . S
C1372 C1374 1.454 1_455 S
C1373 H1367 0.930 . S
C1373 C1369 1.400 . S
C1373 C1372 1.385 . S
C1374 C1372 1.454 1_655 S
C1374 C1376 1.380 . S
C1374 C1380 1.409 . S
C1375 C1371 1.495 . S
C1375 H1381 0.959 . S
C1375 H1382 0.961 . S
C1375 H1383 0.960 . S
C1376 C1374 1.380 . S
C1376 C1377 1.394 . S
C1376 H1384 0.930 . S
C1377 C1376 1.394 . S
C1377 C1378 1.383 . S
C1377 H1385 0.929 . S
C1378 C1377 1.383 . S
C1378 C1379 1.377 . S
C1379 H1363 0.930 . S
C1379 C1378 1.377 . S
C1379 C1380 1.379 . S
C1380 H1364 0.931 . S
C1380 C1374 1.409 . S
C1380 C1379 1.379 . S
H1381 C1375 0.959 . S
H1382 C1375 0.961 . S
H1383 C1375 0.960 . S
H1384 C1376 0.930 . S
H1385 C1377 0.929 . S
H1386 C1394 0.929 . S
H1387 C1396 0.930 . S
H1388 C1398 0.930 . S
H1389 C1401 0.929 . S
H1390 C1404 0.930 . S
H1391 C1406 0.960 . S
H1392 C1406 0.960 . S
H1393 C1406 0.960 . S
C1394 H1386 0.929 . S
C1394 C1395 1.377 . S
C1394 C1396 1.384 . S
C1395 C1394 1.377 . S
C1395 C1401 1.390 . S
C1396 H1387 0.930 . S
C1396 C1394 1.384 . S
C1396 C1397 1.372 . S
C1397 C1396 1.372 . S
C1397 C1398 1.400 . S
C1397 C1402 1.490 . S
C1398 H1388 0.930 . S
C1398 C1397 1.400 . S
C1398 C1401 1.386 . S
H1399 C1415 0.930 . S
H1400 C1416 0.931 . S
C1401 H1389 0.929 . S
C1401 C1395 1.390 . S
C1401 C1398 1.386 . S
C1402 C1397 1.490 . S
C1402 C1404 1.395 . S
C1402 C1405 1.403 . S
H1403 C1409 0.930 . S
C1404 H1390 0.930 . S
C1404 C1402 1.395 . S
C1404 C1407 1.403 . S
C1405 C1402 1.403 . S
C1405 C1406 1.524 . S
C1405 C1409 1.400 . S
C1406 H1391 0.960 . S
C1406 H1392 0.960 . S
C1406 H1393 0.960 . S
C1406 C1405 1.524 . S
C1407 C1404 1.403 . S
C1407 C1408 1.392 . S
C1407 C1411 1.495 . S
C1408 C1407 1.392 . S
C1408 C1409 1.385 . S
C1408 C1410 1.478 . S
C1409 H1403 0.930 . S
C1409 C1405 1.400 . S
C1409 C1408 1.385 . S
C1410 C1408 1.478 . S
C1410 C1412 1.381 . S
C1410 C1416 1.383 . S
C1411 C1407 1.495 . S
C1411 H1417 0.959 . S
C1411 H1418 0.961 . S
C1411 H1419 0.960 . S
C1412 C1410 1.381 . S
C1412 C1413 1.394 . S
C1412 H1420 0.930 . S
C1413 C1412 1.394 . S
C1413 C1414 1.383 . S
C1413 H1421 0.929 . S
C1414 C1413 1.383 . S
C1414 C1415 1.377 . S
C1415 H1399 0.930 . S
C1415 C1414 1.377 . S
C1415 C1416 1.379 . S
C1416 H1400 0.931 . S
C1416 C1410 1.383 . S
C1416 C1415 1.379 . S
H1417 C1411 0.959 . S
H1418 C1411 0.961 . S
H1419 C1411 0.960 . S
H1420 C1412 0.930 . S
H1421 C1413 0.929 . S
H1422 C1430 0.929 . S
H1423 C1432 0.930 1_455 S
H1424 C1434 0.930 . S
H1425 C1437 0.929 . S
H1426 C1440 0.930 . S
H1427 C1442 0.960 . S
H1428 C1442 0.960 . S
H1429 C1442 0.960 . S
C1430 H1422 0.929 . S
C1430 C1431 1.377 . S
C1430 C1432 1.384 . S
C1431 C1430 1.377 . S
C1431 C1437 1.390 . S
C1432 H1423 0.930 1_655 S
C1432 C1430 1.384 . S
C1432 C1433 1.379 1_655 S
C1433 C1432 1.379 1_455 S
C1433 C1434 1.332 1_455 S
C1433 C1438 1.553 . S
C1434 H1424 0.930 . S
C1434 C1433 1.332 1_655 S
C1434 C1437 1.386 . S
H1435 C1451 0.930 . S
H1436 C1452 0.931 . S
C1437 H1425 0.929 . S
C1437 C1431 1.390 . S
C1437 C1434 1.386 . S
C1438 C1433 1.553 . S
C1438 C1440 1.395 . S
C1438 C1441 1.403 . S
H1439 C1445 0.930 . S
C1440 H1426 0.930 . S
C1440 C1438 1.395 . S
C1440 C1443 1.403 . S
C1441 C1438 1.403 . S
C1441 C1442 1.524 . S
C1441 C1445 1.400 . S
C1442 H1427 0.960 . S
C1442 H1428 0.960 . S
C1442 H1429 0.960 . S
C1442 C1441 1.524 . S
C1443 C1440 1.403 . S
C1443 C1444 1.392 . S
C1443 C1447 1.495 . S
C1444 C1443 1.392 . S
C1444 C1445 1.385 . S
C1444 C1446 1.478 . S
C1445 H1439 0.930 . S
C1445 C1441 1.400 . S
C1445 C1444 1.385 . S
C1446 C1444 1.478 . S
C1446 C1448 1.381 . S
C1446 C1452 1.383 . S
C1447 C1443 1.495 . S
C1447 H1453 0.959 . S
C1447 H1454 0.961 . S
C1447 H1455 0.960 . S
C1448 C1446 1.381 . S
C1448 C1449 1.394 . S
C1448 H1456 0.930 . S
C1449 C1448 1.394 . S
C1449 C1450 1.383 . S
C1449 H1457 0.929 . S
C1450 C1449 1.383 . S
C1450 C1451 1.377 . S
C1451 H1435 0.930 . S
C1451 C1450 1.377 . S
C1451 C1452 1.379 . S
C1452 H1436 0.931 . S
C1452 C1446 1.383 . S
C1452 C1451 1.379 . S
H1453 C1447 0.959 . S
H1454 C1447 0.961 . S
H1455 C1447 0.960 . S
H1456 C1448 0.930 . S
H1457 C1449 0.929 . S
H1458 C1466 0.929 . S
H1459 C1468 0.930 . S
H1460 C1470 0.930 . S
H1461 C1473 0.929 . S
H1462 C1476 0.930 . S
H1463 C1478 0.960 . S
H1464 C1478 0.960 . S
H1465 C1478 0.960 . S
C1466 H1458 0.929 . S
C1466 C1467 1.377 . S
C1466 C1468 1.384 . S
C1467 C1466 1.377 . S
C1467 C1473 1.390 . S
C1468 H1459 0.930 . S
C1468 C1466 1.384 . S
C1468 C1469 1.372 . S
C1469 C1468 1.372 . S
C1469 C1470 1.400 . S
C1469 C1474 1.490 . S
C1470 H1460 0.930 . S
C1470 C1469 1.400 . S
C1470 C1473 1.386 . S
H1471 C1487 0.930 . S
H1472 C1488 0.931 . S
C1473 H1461 0.929 . S
C1473 C1467 1.390 . S
C1473 C1470 1.386 . S
C1474 C1469 1.490 . S
C1474 C1476 1.395 . S
C1474 C1477 1.403 . S
H1475 C1481 0.930 . S
C1476 H1462 0.930 . S
C1476 C1474 1.395 . S
C1476 C1479 1.403 . S
C1477 C1474 1.403 . S
C1477 C1478 1.524 . S
C1477 C1481 1.400 . S
C1478 H1463 0.960 . S
C1478 H1464 0.960 . S
C1478 H1465 0.960 . S
C1478 C1477 1.524 . S
C1479 C1476 1.403 . S
C1479 C1480 1.392 . S
C1479 C1483 1.495 . S
C1480 C1479 1.392 . S
C1480 C1481 1.385 . S
C1480 C1482 1.478 . S
C1481 H1475 0.930 . S
C1481 C1477 1.400 . S
C1481 C1480 1.385 . S
C1482 C1480 1.478 . S
C1482 C1484 1.381 . S
C1482 C1488 1.383 . S
C1483 C1479 1.495 . S
C1483 H1489 0.959 . S
C1483 H1490 0.961 . S
C1483 H1491 0.960 . S
C1484 C1482 1.381 . S
C1484 C1485 1.394 . S
C1484 H1492 0.930 . S
C1485 C1484 1.394 . S
C1485 C1486 1.383 . S
C1485 H1493 0.929 . S
C1486 C1485 1.383 . S
C1486 C1487 1.377 . S
C1487 H1471 0.930 . S
C1487 C1486 1.377 . S
C1487 C1488 1.379 . S
C1488 H1472 0.931 . S
C1488 C1482 1.383 . S
C1488 C1487 1.379 . S
H1489 C1483 0.959 . S
H1490 C1483 0.961 . S
H1491 C1483 0.960 . S
H1492 C1484 0.930 . S
H1493 C1485 0.929 . S
H1494 C1502 0.929 . S
H1495 C1504 0.930 . S
H1496 C1506 0.930 . S
H1497 C1509 0.929 . S
H1498 C1512 0.930 . S
H1499 C1514 0.960 . S
H1500 C1514 0.960 . S
H1501 C1514 0.960 . S
C1502 H1494 0.929 . S
C1502 C1503 1.377 . S
C1502 C1504 1.384 . S
C1503 C1502 1.377 . S
C1503 C1509 1.390 . S
C1504 H1495 0.930 . S
C1504 C1502 1.384 . S
C1504 C1505 1.372 . S
C1505 C1504 1.372 . S
C1505 C1506 1.400 . S
C1505 C1510 1.490 . S
C1506 H1496 0.930 . S
C1506 C1505 1.400 . S
C1506 C1509 1.386 . S
H1507 C1523 0.930 . S
H1508 C1524 0.931 . S
C1509 H1497 0.929 . S
C1509 C1503 1.390 . S
C1509 C1506 1.386 . S
C1510 C1505 1.490 . S
C1510 C1512 1.395 . S
C1510 C1513 1.403 . S
H1511 C1517 0.930 . S
C1512 H1498 0.930 . S
C1512 C1510 1.395 . S
C1512 C1515 1.403 . S
C1513 C1510 1.403 . S
C1513 C1514 1.524 . S
C1513 C1517 1.400 . S
C1514 H1499 0.960 . S
C1514 H1500 0.960 . S
C1514 H1501 0.960 . S
C1514 C1513 1.524 . S
C1515 C1512 1.403 . S
C1515 C1516 1.392 . S
C1515 C1519 1.495 . S
C1516 C1515 1.392 . S
C1516 C1517 1.385 . S
C1516 C1518 1.478 . S
C1517 H1511 0.930 . S
C1517 C1513 1.400 . S
C1517 C1516 1.385 . S
C1518 C1516 1.478 . S
C1518 C1520 1.381 . S
C1518 C1524 1.383 . S
C1519 C1515 1.495 . S
C1519 H1525 0.959 . S
C1519 H1526 0.961 . S
C1519 H1527 0.960 . S
C1520 C1518 1.381 . S
C1520 C1521 1.394 . S
C1520 H1528 0.930 . S
C1521 C1520 1.394 . S
C1521 C1522 1.383 . S
C1521 H1529 0.929 . S
C1522 C1521 1.383 . S
C1522 C1523 1.377 . S
C1523 H1507 0.930 . S
C1523 C1522 1.377 . S
C1523 C1524 1.379 . S
C1524 H1508 0.931 . S
C1524 C1518 1.383 . S
C1524 C1523 1.379 . S
H1525 C1519 0.959 . S
H1526 C1519 0.961 . S
H1527 C1519 0.960 . S
H1528 C1520 0.930 . S
H1529 C1521 0.929 . S
C243 C44 1.948 . S
C262 C5 2.027 . S
C279 C57 1.960 . S
C298 C16 1.938 . S
C315 C27 1.945 . S
C334 C66 2.004 . S
C351 C31 2.046 . S
C370 C70 1.933 . S
C387 C1 1.949 . S
C406 C40 2.008 . S
C423 C53 2.010 . S
C442 C23 2.010 . S
C459 C118 2.035 . S
C478 C83 2.034 . S
C495 C94 1.975 . S
C514 C131 2.055 . S
C531 C109 2.032 . S
C550 C144 2.021 . S
C567 C148 1.948 1_556 S
C586 C105 1.947 . S
C603 C122 1.916 1_556 S
C622 C79 1.910 . S
C639 C135 1.945 1_556 S
C658 C101 2.020 . S
C675 C161 2.046 . S
C694 C200 1.978 . S
C711 C172 1.964 . S
C730 C213 1.947 . S
C747 C183 1.958 . S
C766 C222 2.017 . S
C783 C226 1.964 . S
C802 C187 2.046 1_554 S
C819 C196 2.021 . S
C838 C157 1.976 1_554 S
C855 C209 2.026 . S
C874 C179 2.022 1_554 S
C891 C10 1.580 . S
C910 C96 1.580 . S
C927 C14 1.536 . S
C946 C107 1.543 . S
C963 C81 1.461 . S
C982 C29 1.433 . S
C999 C36 1.630 . S
C1018 C170 1.603 1_554 S
C1035 C185 1.451 1_554 S
C1054 C3 1.439 . S
C1071 C166 1.566 1_554 S
C1090 C18 1.560 . S
C1107 C211 1.566 . S
C1126 C49 1.501 . S
C1143 C62 1.584 . S
C1162 C231 1.555 . S
C1179 C198 1.497 . S
C1198 C68 1.500 . S
C1215 C133 1.597 1_556 S
C1234 C75 1.551 . S
C1251 C42 1.512 . S
C1270 C146 1.513 1_556 S
C1287 C55 1.519 . S
C1306 C120 1.511 1_556 S
C1323 C88 1.549 1_545 S
C1342 C174 1.552 . S
C1359 C92 1.575 . S
C1378 C192 1.608 . S
C1395 C114 1.540 . S
C1414 C159 1.511 . S
C1431 C218 1.564 . S
C1450 C153 1.548 . S
C1467 C224 1.536 . S
C1486 C127 1.478 . S
C1503 C140 1.565 1_545 S
C1522 C205 1.580 . S
