# Generated by pormake.
# Topology smm, (6)-cn, num edge types: 1
# Building blocks:
#     Node 0, Type 0, BuildingBlock: GEDQOX_clean_sbu_0, # of connection points: 6
#     Node 1, Type 0, BuildingBlock: GEDQOX_clean_sbu_0, # of connection points: 6
#     Node 2, Type 0, BuildingBlock: GEDQOX_clean_sbu_0, # of connection points: 6
#     Node 3, Type 0, BuildingBlock: GEDQOX_clean_sbu_0, # of connection points: 6
#     Node 4, Type 0, BuildingBlock: GEDQOX_clean_sbu_0, # of connection points: 6
#     Node 5, Type 0, BuildingBlock: GEDQOX_clean_sbu_0, # of connection points: 6
#     Node 6, Type 0, BuildingBlock: GEDQOX_clean_sbu_0, # of connection points: 6
#     Node 7, Type 0, BuildingBlock: GEDQOX_clean_sbu_0, # of connection points: 6
#     Node 8, Type 0, BuildingBlock: GEDQOX_clean_sbu_0, # of connection points: 6
#     Edge 9, Type (0, 0), BuildingBlock: EYOCIG_clean_linker_4, # of connection points: 2
#     Edge 10, Type (0, 0), BuildingBlock: EYOCIG_clean_linker_4, # of connection points: 2
#     Edge 11, Type (0, 0), BuildingBlock: EYOCIG_clean_linker_4, # of connection points: 2
#     Edge 12, Type (0, 0), BuildingBlock: EYOCIG_clean_linker_4, # of connection points: 2
#     Edge 13, Type (0, 0), BuildingBlock: EYOCIG_clean_linker_4, # of connection points: 2
#     Edge 14, Type (0, 0), BuildingBlock: EYOCIG_clean_linker_4, # of connection points: 2
#     Edge 15, Type (0, 0), BuildingBlock: EYOCIG_clean_linker_4, # of connection points: 2
#     Edge 16, Type (0, 0), BuildingBlock: EYOCIG_clean_linker_4, # of connection points: 2
#     Edge 17, Type (0, 0), BuildingBlock: EYOCIG_clean_linker_4, # of connection points: 2
#     Edge 18, Type (0, 0), BuildingBlock: EYOCIG_clean_linker_4, # of connection points: 2
#     Edge 19, Type (0, 0), BuildingBlock: EYOCIG_clean_linker_4, # of connection points: 2
#     Edge 20, Type (0, 0), BuildingBlock: EYOCIG_clean_linker_4, # of connection points: 2
#     Edge 21, Type (0, 0), BuildingBlock: EYOCIG_clean_linker_4, # of connection points: 2
#     Edge 22, Type (0, 0), BuildingBlock: EYOCIG_clean_linker_4, # of connection points: 2
#     Edge 23, Type (0, 0), BuildingBlock: EYOCIG_clean_linker_4, # of connection points: 2
#     Edge 24, Type (0, 0), BuildingBlock: EYOCIG_clean_linker_4, # of connection points: 2
#     Edge 25, Type (0, 0), BuildingBlock: EYOCIG_clean_linker_4, # of connection points: 2
#     Edge 26, Type (0, 0), BuildingBlock: EYOCIG_clean_linker_4, # of connection points: 2
#     Edge 27, Type (0, 0), BuildingBlock: EYOCIG_clean_linker_4, # of connection points: 2
#     Edge 28, Type (0, 0), BuildingBlock: EYOCIG_clean_linker_4, # of connection points: 2
#     Edge 29, Type (0, 0), BuildingBlock: EYOCIG_clean_linker_4, # of connection points: 2
#     Edge 30, Type (0, 0), BuildingBlock: EYOCIG_clean_linker_4, # of connection points: 2
#     Edge 31, Type (0, 0), BuildingBlock: EYOCIG_clean_linker_4, # of connection points: 2
#     Edge 32, Type (0, 0), BuildingBlock: EYOCIG_clean_linker_4, # of connection points: 2
#     Edge 33, Type (0, 0), BuildingBlock: EYOCIG_clean_linker_4, # of connection points: 2
#     Edge 34, Type (0, 0), BuildingBlock: EYOCIG_clean_linker_4, # of connection points: 2
#     Edge 35, Type (0, 0), BuildingBlock: EYOCIG_clean_linker_4, # of connection points: 2
# Relax obj value: 0.044
# Max RMSD: 0.125
# Mean RMSD: 0.124
data_MOF--net-smm--node1-GEDQOX_clean_sbu_0--edge1-EYOCIG_clean_linker_4
_symmetry_space_group_name_H-M    P1
_symmetry_Int_Tables_number       1
_symmetry_cell_setting            triclinic
loop_
_symmetry_equiv_pos_as_xyz
'x, y, z'
_cell_length_a     59.655219
_cell_length_b     59.655425
_cell_length_c     11.520068
_cell_angle_alpha  89.989808
_cell_angle_beta   89.993246
_cell_angle_gamma 119.999
loop_
_atom_site_label
_atom_site_type_symbol
_atom_site_fract_x
_atom_site_fract_y
_atom_site_fract_z
_atom_type_partial_charge
Nd0 Nd 0.07931 0.23727 0.01079 0.0
Nd1 Nd 1.03264 0.18483 -0.00642 0.0
C2 C 0.11501 0.28643 0.04453 0.0
C3 C 0.12341 0.31193 -0.00994 0.0
C4 C 0.12707 0.33283 0.05968 0.0
C5 C 0.13711 0.35763 0.012 0.0
C6 C 0.14367 0.36185 0.89401 0.0
C7 C 0.13914 0.34092 0.82313 0.0
C8 C 0.12903 0.3161 0.8706 0.0
C9 C 0.06449 0.22105 0.78684 0.0
C10 C 1.02181 0.23102 0.03291 0.0
C11 C 0.99687 0.13695 0.93758 0.0
C12 C 0.9895 0.10945 0.95401 0.0
C13 C 0.98898 0.09469 0.85783 0.0
C14 C 0.9784 0.06788 0.8677 0.0
C15 C 0.96813 0.05548 -0.02623 0.0
C16 C 0.96968 0.07017 0.07133 0.0
C17 C 0.98029 0.09698 0.06172 0.0
C18 C 0.04612 0.20069 0.21803 0.0
C19 C 0.09018 0.1904 0.00518 0.0
O20 O 0.0927 0.27525 0.09795 0.0
O21 O 0.11914 0.27005 -0.01365 0.0
O22 O 0.08819 0.2337 0.82078 0.0
O23 O 0.04907 0.2181 0.86771 0.0
O24 O 0.04609 0.24396 0.06703 0.0
O25 O 1.01242 0.2087 -0.02148 0.0
O26 O 1.01679 0.15141 0.87132 0.0
O27 O 0.99523 0.14941 0.02742 0.0
O28 O 1.02252 0.18691 0.18269 0.0
O29 O 0.06224 0.2043 0.13899 0.0
O30 O 0.06638 0.1769 0.96491 0.0
O31 O 0.09897 0.2136 0.05029 0.0
H32 H 0.12271 0.33007 0.15164 0.0
H33 H 0.14033 0.37358 0.06785 0.0
H34 H 0.14396 0.34386 0.7316 0.0
H35 H 0.12617 0.30034 0.81428 0.0
H36 H 0.99585 0.10373 0.77386 0.0
H37 H 0.97742 0.05675 0.79158 0.0
H38 H 0.96189 0.06083 0.15403 0.0
H39 H 0.9804 0.10771 0.13771 0.0
Nd40 Nd 0.85956 0.86836 0.00929 0.0
Nd41 Nd 0.91191 0.87402 -0.00811 0.0
C42 C 0.81044 0.85498 0.04332 0.0
C43 C 0.78493 0.83786 -0.01091 0.0
C44 C 0.76405 0.82063 0.0589 0.0
C45 C 0.73925 0.80586 0.01141 0.0
C46 C 0.735 0.80816 0.89344 0.0
C47 C 0.75591 0.82455 0.82236 0.0
C48 C 0.78073 0.83927 0.86963 0.0
C49 C 0.87573 0.86972 0.78525 0.0
C50 C 0.86569 0.81703 0.03124 0.0
C51 C 0.95976 0.88604 0.93582 0.0
C52 C 0.98724 0.90617 0.9524 0.0
C53 C 1.00203 0.92043 0.8563 0.0
C54 C 1.02882 0.93668 0.86634 0.0
C55 C 1.04117 0.93879 0.9725 0.0
C56 C 1.02645 0.92562 0.06998 0.0
C57 C 0.99966 0.90942 0.0602 0.0
C58 C 0.89611 0.87169 0.21642 0.0
C59 C 0.9065 0.92608 0.00339 0.0
O60 O 0.82162 0.84387 0.09688 0.0
O61 O 0.82681 0.87544 -0.01516 0.0
O62 O 0.86314 0.88083 0.81928 0.0
O63 O 0.87866 0.85723 0.86609 0.0
O64 O 0.85279 0.8284 0.06542 0.0
O65 O 0.88801 0.82994 -0.0232 0.0
O66 O 0.94532 0.89152 0.86955 0.0
O67 O 0.94728 0.87193 0.02564 0.0
O68 O 0.90981 0.8618 0.18098 0.0
O69 O 0.89253 0.88423 0.13742 0.0
O70 O 0.91995 0.91573 0.96315 0.0
O71 O 0.88329 0.9117 0.04855 0.0
H72 H 0.76683 0.81906 0.15085 0.0
H73 H 0.7233 0.79314 0.06739 0.0
H74 H 0.75294 0.8264 0.73084 0.0
H75 H 0.79647 0.85214 0.81317 0.0
H76 H 0.99301 0.91827 0.77228 0.0
H77 H 1.03998 0.94685 0.7903 0.0
H78 H 1.03576 0.92718 0.15274 0.0
H79 H 0.98889 0.89877 0.13613 0.0
Nd80 Nd 0.22825 1.0174 0.0093 0.0
Nd81 Nd 0.22253 0.06414 -0.0076 0.0
C82 C 0.24176 0.98171 0.04261 0.0
C83 C 0.25889 0.97335 -0.01197 0.0
C84 C 0.27625 0.96983 0.05746 0.0
C85 C 0.29103 0.95981 0.00975 0.0
C86 C 0.2886 0.95313 0.8919 0.0
C87 C 0.27206 0.95751 0.82118 0.0
C88 C 0.25733 0.9676 0.86869 0.0
C89 C 0.2267 0.03223 0.78557 0.0
C90 C 0.27954 0.07489 0.03167 0.0
C91 C 0.21054 0.1 0.93661 0.0
C92 C 0.19048 0.10743 0.95361 0.0
C93 C 0.17623 0.10806 0.85771 0.0
C94 C 0.16002 0.11865 0.86818 0.0
C95 C 0.15793 0.12882 -0.02544 0.0
C96 C 0.17109 0.12717 0.07183 0.0
C97 C 0.18726 0.11654 0.06163 0.0
C98 C 0.22474 0.05051 0.21679 0.0
C99 C 0.1705 1.00661 0.00361 0.0
O100 O 0.25285 1.00399 0.09621 0.0
O101 O 0.22124 0.97759 -0.01548 0.0
O102 O 0.21573 1.00853 0.81942 0.0
O103 O 0.23924 0.04765 0.86631 0.0
O104 O 0.26816 0.05059 0.06563 0.0
O105 O 0.26662 0.08432 -0.02258 0.0
O106 O 0.20495 0.08004 0.87048 0.0
O107 O 0.22472 0.10164 0.02611 0.0
O108 O 0.23461 0.07412 0.18163 0.0
O109 O 0.2123 0.03443 0.13755 0.0
O110 O 0.18083 0.03046 0.9639 0.0
O111 O 0.18489 0.99774 0.04838 0.0
H112 H 0.27794 0.97428 0.14933 0.0
H113 H 0.30386 0.95671 0.06548 0.0
H114 H 0.2701 0.95259 0.72976 0.0
H115 H 0.24435 0.97034 0.81249 0.0
H116 H 0.17837 0.10125 0.77353 0.0
H117 H 0.14986 0.11971 0.79228 0.0
H118 H 0.16956 0.13488 0.15476 0.0
H119 H 0.1979 0.11635 0.13741 0.0
Nd120 Nd 0.74603 0.57051 0.34356 0.0
Nd121 Nd 0.69934 0.5181 0.32626 0.0
C122 C 0.78171 0.61968 0.37714 0.0
C123 C 0.79007 0.64517 0.32254 0.0
C124 C 0.79355 0.66604 0.39193 0.0
C125 C 0.80355 0.69082 0.34414 0.0
C126 C 0.81022 0.69506 0.22628 0.0
C127 C 0.80587 0.67416 0.15561 0.0
C128 C 0.79581 0.64935 0.20318 0.0
C129 C 0.73132 0.55418 0.11967 0.0
C130 C 0.68856 0.56432 0.36515 0.0
C131 C 0.66352 0.47027 0.27012 0.0
C132 C 0.65608 0.44277 0.28664 0.0
C133 C 0.65549 0.42797 0.19046 0.0
C134 C 0.64487 0.40117 0.20042 0.0
C135 C 0.63462 0.38881 0.30656 0.0
C136 C 0.63623 0.40353 0.40412 0.0
C137 C 0.64689 0.43033 0.39443 0.0
C138 C 0.71287 0.53383 0.55086 0.0
C139 C 0.75686 0.52362 0.3378 0.0
O140 O 0.75942 0.60849 0.43067 0.0
O141 O 0.78585 0.6033 0.31904 0.0
O142 O 0.75501 0.56687 0.15375 0.0
O143 O 0.71587 0.55131 0.20027 0.0
O144 O 0.71282 0.57722 0.39956 0.0
O145 O 0.67918 0.54201 0.31077 0.0
O146 O 0.68349 0.48469 0.20406 0.0
O147 O 0.66187 0.48275 0.35985 0.0
O148 O 0.68927 0.52015 0.51546 0.0
O149 O 0.72897 0.53749 0.47168 0.0
O150 O 0.73306 0.51015 0.29747 0.0
O151 O 0.76565 0.54681 0.38312 0.0
H152 H 0.7891 0.66328 0.4838 0.0
H153 H 0.80663 0.70676 0.39982 0.0
H154 H 0.81079 0.67711 0.06418 0.0
H155 H 0.79308 0.63362 0.14701 0.0
H156 H 0.66236 0.437 0.10645 0.0
H157 H 0.64384 0.39001 0.12432 0.0
H158 H 0.62846 0.39421 0.48687 0.0
H159 H 0.64705 0.44109 0.4704 0.0
Nd160 Nd 0.52618 0.20173 0.34301 0.0
Nd161 Nd 0.57865 0.20757 0.32571 0.0
C162 C 0.47698 0.18814 0.37664 0.0
C163 C 0.45148 0.17099 0.32214 0.0
C164 C 0.43062 0.1536 0.39162 0.0
C165 C 0.40582 0.13882 0.34398 0.0
C166 C 0.40156 0.14126 0.22616 0.0
C167 C 0.42246 0.15782 0.15539 0.0
C168 C 0.44727 0.17255 0.20282 0.0
C169 C 0.54253 0.20336 0.11914 0.0
C170 C 0.53251 0.15051 0.36485 0.0
C171 C 0.62653 0.2197 0.26967 0.0
C172 C 0.65402 0.23979 0.28636 0.0
C173 C 0.66883 0.25404 0.19029 0.0
C174 C 0.69564 0.27024 0.20037 0.0
C175 C 0.70797 0.27233 0.30655 0.0
C176 C 0.69322 0.25918 0.40402 0.0
C177 C 0.66642 0.24302 0.3942 0.0
C178 C 0.56289 0.20536 0.55031 0.0
C179 C 0.573 0.25949 0.33692 0.0
O180 O 0.4882 0.17706 0.4301 0.0
O181 O 0.49334 0.20867 0.31853 0.0
O182 O 0.52979 0.2143 0.15317 0.0
O183 O 0.54544 0.19081 0.19977 0.0
O184 O 0.51956 0.16183 0.39918 0.0
O185 O 0.55482 0.16348 0.31043 0.0
O186 O 0.6121 0.22523 0.20364 0.0
O187 O 0.61404 0.20551 0.35929 0.0
O188 O 0.57662 0.19549 0.51497 0.0
O189 O 0.5592 0.21776 0.47107 0.0
O190 O 0.58651 0.2492 0.29669 0.0
O191 O 0.54981 0.24506 0.38231 0.0
H192 H 0.4334 0.15191 0.48347 0.0
H193 H 0.3899 0.12597 0.39975 0.0
H194 H 0.41949 0.15979 0.06399 0.0
H195 H 0.46299 0.18555 0.14658 0.0
H196 H 0.65983 0.25189 0.10624 0.0
H197 H 0.70681 0.2804 0.12434 0.0
H198 H 0.70252 0.26072 0.4868 0.0
H199 H 0.65564 0.23238 0.47011 0.0
Nd200 Nd 0.89499 0.3508 0.34373 0.0
Nd201 Nd 0.8893 0.39749 0.32643 0.0
C202 C 0.90844 0.31508 0.37749 0.0
C203 C 0.92561 0.30675 0.32324 0.0
C204 C 0.94296 0.30325 0.39293 0.0
C205 C 0.95776 0.29325 0.34548 0.0
C206 C 0.95539 0.28657 0.22765 0.0
C207 C 0.93888 0.29093 0.15668 0.0
C208 C 0.92412 0.301 0.20391 0.0
C209 C 0.8934 0.36552 0.11984 0.0
C210 C 0.94632 0.40827 0.36534 0.0
C211 C 0.87727 0.43331 0.27058 0.0
C212 C 0.85717 0.44069 0.28737 0.0
C213 C 0.8429 0.44124 0.19137 0.0
C214 C 0.82668 0.45181 0.20156 0.0
C215 C 0.82459 0.46204 0.30777 0.0
C216 C 0.83776 0.46046 0.40517 0.0
C217 C 0.85395 0.44986 0.39524 0.0
C218 C 0.89143 0.38389 0.55103 0.0
C219 C 0.83729 0.33998 0.3375 0.0
O220 O 0.91949 0.33734 0.43127 0.0
O221 O 0.88799 0.311 0.31897 0.0
O222 O 0.8824 0.34183 0.15394 0.0
O223 O 0.90598 0.38097 0.20041 0.0
O224 O 0.93495 0.384 0.3996 0.0
O225 O 0.93339 0.41768 0.31107 0.0
O226 O 0.87174 0.41337 0.20439 0.0
O227 O 0.89142 0.43495 0.36022 0.0
O228 O 0.9014 0.4075 0.51566 0.0
O229 O 0.879 0.36782 0.4718 0.0
O230 O 0.84763 0.36379 0.29728 0.0
O231 O 0.85166 0.33117 0.38296 0.0
H232 H 0.94459 0.3077 0.48479 0.0
H233 H 0.97058 0.29015 0.4014 0.0
H234 H 0.93696 0.28601 0.06527 0.0
H235 H 0.91115 0.30373 0.14751 0.0
H236 H 0.84505 0.43439 0.1073 0.0
H237 H 0.8165 0.45282 0.12558 0.0
H238 H 0.83622 0.46822 0.48797 0.0
H239 H 0.8646 0.44972 0.47109 0.0
Nd240 Nd 0.41261 0.9038 0.67584 0.0
Nd241 Nd 0.36595 0.85137 0.65886 0.0
C242 C 0.44828 0.95299 0.70915 0.0
C243 C 0.45665 0.97849 0.65463 0.0
C244 C 0.46017 0.99936 0.72414 0.0
C245 C 0.47022 1.02417 0.67649 0.0
C246 C 0.4769 1.02843 0.55864 0.0
C247 C 0.4725 1.00753 0.48784 0.0
C248 C 0.4624 0.9827 0.53528 0.0
C249 C 0.39786 0.88741 0.45209 0.0
C250 C 0.3551 0.89756 0.6978 0.0
C251 C 0.33015 0.80349 0.6033 0.0
C252 C 0.32278 0.77602 0.62025 0.0
C253 C 0.32222 0.76118 0.52432 0.0
C254 C 0.31165 0.73439 0.53466 0.0
C255 C 0.30142 0.72209 0.64095 0.0
C256 C 0.30302 0.73686 0.73827 0.0
C257 C 0.31362 0.76365 0.7282 0.0
C258 C 0.37955 0.86713 0.88336 0.0
C259 C 0.42349 0.85694 0.66981 0.0
O260 O 0.42601 0.9418 0.76282 0.0
O261 O 0.4524 0.93661 0.65095 0.0
O262 O 0.42156 0.90014 0.48606 0.0
O263 O 0.38242 0.88455 0.5327 0.0
O264 O 0.37938 0.91049 0.73198 0.0
O265 O 0.34572 0.87523 0.64353 0.0
O266 O 0.35008 0.81789 0.53703 0.0
O267 O 0.3285 0.81602 0.69286 0.0
O268 O 0.35594 0.85346 0.8481 0.0
O269 O 0.39563 0.8708 0.80407 0.0
O270 O 0.39968 0.84345 0.6297 0.0
O271 O 0.43228 0.88013 0.71513 0.0
H272 H 0.45572 0.99659 0.81601 0.0
H273 H 0.47333 0.0401 0.73227 0.0
H274 H 0.47742 1.0105 0.39641 0.0
H275 H 0.45964 0.96698 0.47902 0.0
H276 H 0.32906 0.77016 0.4402 0.0
H277 H 0.31063 0.72319 0.45874 0.0
H278 H 0.29527 0.72759 0.82113 0.0
H279 H 0.31377 0.77445 0.804 0.0
Nd280 Nd 0.19298 0.53504 0.67734 0.0
Nd281 Nd 0.24545 0.54086 0.66032 0.0
C282 C 0.14376 0.52147 0.71048 0.0
C283 C 0.11828 0.50436 0.65573 0.0
C284 C 0.09738 0.48696 0.72501 0.0
C285 C 0.0726 0.47221 0.67716 0.0
C286 C 0.06838 0.4747 0.55932 0.0
C287 C 0.08932 0.49127 0.48875 0.0
C288 C 0.11412 0.50598 0.53639 0.0
C289 C 0.20939 0.53668 0.45359 0.0
C290 C 0.19928 0.48383 0.69947 0.0
C291 C 0.29334 0.55295 0.60457 0.0
C292 C 0.32083 0.57303 0.62139 0.0
C293 C 0.33568 0.58726 0.52537 0.0
C294 C 0.36248 0.60345 0.5356 0.0
C295 C 0.37478 0.60554 0.64188 0.0
C296 C 0.36 0.5924 0.73928 0.0
C297 C 0.3332 0.57624 0.72931 0.0
C298 C 0.22964 0.53862 0.88481 0.0
C299 C 0.23981 0.59279 0.67161 0.0
O300 O 0.15494 0.51036 0.76397 0.0
O301 O 0.16016 0.54202 0.65259 0.0
O302 O 0.19665 0.54764 0.48753 0.0
O303 O 0.21226 0.52412 0.53426 0.0
O304 O 0.18635 0.49517 0.73376 0.0
O305 O 0.22159 0.49678 0.64501 0.0
O306 O 0.27894 0.55851 0.53844 0.0
O307 O 0.28081 0.53877 0.69413 0.0
O308 O 0.24338 0.52876 0.84954 0.0
O309 O 0.22597 0.55104 0.80557 0.0
O310 O 0.25333 0.5825 0.63139 0.0
O311 O 0.21661 0.57837 0.71687 0.0
H312 H 0.10012 0.48523 0.81686 0.0
H313 H 0.05665 0.45935 0.73278 0.0
H314 H 0.08639 0.49328 0.39734 0.0
H315 H 0.12986 0.51899 0.4803 0.0
H316 H 0.32671 0.58511 0.44125 0.0
H317 H 0.37368 0.6136 0.45961 0.0
H318 H 0.36927 0.59393 0.82213 0.0
H319 H 0.32239 0.56561 0.80518 0.0
Nd320 Nd 0.5619 0.68425 0.67656 0.0
Nd321 Nd 0.55607 0.73088 0.65934 0.0
C322 C 0.57545 0.64861 0.71004 0.0
C323 C 0.59254 0.64023 0.65529 0.0
C324 C 0.60992 0.63672 0.72456 0.0
C325 C 0.62466 0.62668 0.67669 0.0
C326 C 0.62218 0.61999 0.55885 0.0
C327 C 0.60563 0.62437 0.48827 0.0
C328 C 0.59093 0.63447 0.53593 0.0
C329 C 0.56045 0.69907 0.45264 0.0
C330 C 0.6131 0.74177 0.6986 0.0
C331 C 0.54395 0.76663 0.60323 0.0
C332 C 0.52381 0.77398 0.61961 0.0
C333 C 0.50957 0.77448 0.52341 0.0
C334 C 0.49333 0.78505 0.53321 0.0
C335 C 0.49121 0.79533 0.63923 0.0
C336 C 0.50435 0.79379 0.73682 0.0
C337 C 0.52055 0.78319 0.72728 0.0
C338 C 0.55849 0.71743 0.88381 0.0
C339 C 0.50413 0.67332 0.67128 0.0
O340 O 0.58659 0.67093 0.7633 0.0
O341 O 0.55488 0.64444 0.65224 0.0
O342 O 0.54941 0.67537 0.48661 0.0
O343 O 0.57292 0.71449 0.53346 0.0
O344 O 0.60177 0.7175 0.73289 0.0
O345 O 0.60015 0.75113 0.64409 0.0
O346 O 0.53851 0.74672 0.53701 0.0
O347 O 0.55804 0.76828 0.69311 0.0
O348 O 0.56829 0.74102 0.84838 0.0
O349 O 0.54599 0.70129 0.80485 0.0
O350 O 0.51441 0.69712 0.63095 0.0
O351 O 0.51858 0.66456 0.7163 0.0
H352 H 0.61164 0.64117 0.81642 0.0
H353 H 0.63751 0.62357 0.73229 0.0
H354 H 0.60363 0.61945 0.39686 0.0
H355 H 0.57793 0.63723 0.47986 0.0
H356 H 0.51175 0.7676 0.43947 0.0
H357 H 0.48318 0.78602 0.45708 0.0
H358 H 0.50279 0.80158 0.81948 0.0
H359 H 0.53118 0.7831 0.80328 0.0
C360 C 0.16651 0.40936 0.80673 0.0
C361 C 0.1561 0.38774 0.84672 0.0
C362 C 0.17907 0.43493 0.7626 0.0
C363 C 0.18935 0.45719 0.73096 0.0
C364 C 0.6875 0.78349 0.80628 0.0
C365 C 0.7091 0.79469 0.8463 0.0
C366 C 0.66196 0.77049 0.76199 0.0
C367 C 0.63971 0.7585 0.73022 0.0
C368 C 0.31334 0.93034 0.80468 0.0
C369 C 0.30209 0.94072 0.8446 0.0
C370 C 0.32639 0.9178 0.76068 0.0
C371 C 0.33839 0.90752 0.7292 0.0
C372 C 0.35403 0.11655 0.13903 0.0
C373 C 0.37565 0.12778 0.17896 0.0
C374 C 0.32845 0.10352 0.09495 0.0
C375 C 0.30618 0.09156 0.0633 0.0
C376 C 0.98012 0.26377 0.14061 0.0
C377 C 0.96889 0.27416 0.1806 0.0
C378 C 0.99313 0.25123 0.09634 0.0
C379 C 1.0051 0.24095 0.06457 0.0
C380 C 0.84548 0.76813 0.0946 0.0
C381 C 0.85575 0.79039 0.06291 0.0
C382 C 0.83296 0.74256 0.13883 0.0
C383 C 0.82261 0.72095 0.1789 0.0
C384 C 1.02087 0.44999 0.47198 0.0
C385 C 1.04249 0.46122 0.51192 0.0
C386 C 0.99528 0.43695 0.42804 0.0
C387 C 0.97299 0.42496 0.39664 0.0
C388 C 0.64685 0.59716 0.47156 0.0
C389 C 0.63563 0.60756 0.51147 0.0
C390 C 0.65988 0.5846 0.42769 0.0
C391 C 0.67186 0.57429 0.39635 0.0
C392 C 0.51229 0.10157 0.42762 0.0
C393 C 0.52258 0.12385 0.39616 0.0
C394 C 0.49974 0.07597 0.47156 0.0
C395 C 0.48934 0.05434 0.51142 0.0
C396 C 0.13187 0.15387 -0.01002 0.0
C397 C 0.14371 0.14243 -0.01764 0.0
C398 C 0.11839 0.16766 -0.00195 0.0
C399 C 0.10624 0.17882 0.00315 0.0
C400 C 0.9293 0.97705 -0.00382 0.0
C401 C 0.91813 0.95374 0.00129 0.0
C402 C 0.94309 1.00433 -0.01172 0.0
C403 C 0.95453 1.02762 -0.01902 0.0
C404 C 0.09229 0.96492 -0.01249 0.0
C405 C 0.06901 0.95306 -0.02009 0.0
C406 C 0.11956 0.9784 -0.00418 0.0
C407 C 0.14286 0.99055 0.00119 0.0
C408 C 0.78505 0.50087 0.33064 0.0
C409 C 0.77291 0.51203 0.33574 0.0
C410 C 0.79851 0.48708 0.32268 0.0
C411 C 0.81036 0.47564 0.31525 0.0
C412 C 0.60951 0.33769 0.32128 0.0
C413 C 0.62098 0.36097 0.31387 0.0
C414 C 0.5957 0.31042 0.32938 0.0
C415 C 0.58455 0.28713 0.33469 0.0
C416 C 0.75908 0.29836 0.32149 0.0
C417 C 0.7358 0.28654 0.31397 0.0
C418 C 0.78635 0.3118 0.32971 0.0
C419 C 0.80964 0.32393 0.33511 0.0
C420 C 0.46513 0.82038 0.65382 0.0
C421 C 0.47697 0.80893 0.64638 0.0
C422 C 0.45168 0.8342 0.66203 0.0
C423 C 0.43955 0.84536 0.66744 0.0
C424 C 0.26254 0.64372 0.66427 0.0
C425 C 0.25137 0.62042 0.66949 0.0
C426 C 0.27635 0.67098 0.65615 0.0
C427 C 0.2878 0.69426 0.64857 0.0
C428 C 0.45318 0.64509 0.66462 0.0
C429 C 0.47649 0.65724 0.66951 0.0
C430 C 0.42591 0.6316 0.65682 0.0
C431 C 0.40262 0.61976 0.64944 0.0
C432 C 0.05537 0.21248 0.56343 0.0
C433 C 0.05767 0.21563 0.66689 0.0
C434 C 0.05436 0.20952 0.44183 0.0
C435 C 0.05234 0.20627 0.33839 0.0
C436 C 0.88433 0.86919 0.56185 0.0
C437 C 0.88117 0.86833 0.6653 0.0
C438 C 0.88731 0.87114 0.44026 0.0
C439 C 0.89055 0.87235 0.33681 0.0
C440 C 0.2268 0.04132 0.5624 0.0
C441 C 0.22787 0.03908 0.66577 0.0
C442 C 0.22483 0.04226 0.4408 0.0
C443 C 0.2238 0.04424 0.33724 0.0
C444 C 0.72115 0.54203 0.77499 0.0
C445 C 0.7191 0.53906 0.6714 0.0
C446 C 0.7222 0.545 0.89658 0.0
C447 C 0.72451 0.54843 -0.00012 0.0
C448 C 0.55467 0.20539 0.77443 0.0
C449 C 0.55765 0.20634 0.67083 0.0
C450 C 0.55171 0.20345 0.89602 0.0
C451 C 0.5483 0.20232 -0.00066 0.0
C452 C 0.8913 0.37562 0.77518 0.0
C453 C 0.89038 0.37764 0.67157 0.0
C454 C 0.89325 0.37461 0.89676 0.0
C455 C 0.89442 0.37233 6e-05 0.0
C456 C 0.38878 0.87815 0.22907 0.0
C457 C 0.39105 0.8816 0.33236 0.0
C458 C 0.3878 0.87522 0.10749 0.0
C459 C 0.3858 0.87231 0.00388 0.0
C460 C 0.22143 0.53866 0.10891 0.0
C461 C 0.22439 0.53962 0.00531 0.0
C462 C 0.21852 0.53671 0.2305 0.0
C463 C 0.21513 0.53559 0.33382 0.0
C464 C 0.56096 0.70821 0.22927 0.0
C465 C 0.56183 0.7059 0.33271 0.0
C466 C 0.55902 0.70922 0.10768 0.0
C467 C 0.55782 0.71122 0.00421 0.0
loop_
_geom_bond_atom_site_label_1
_geom_bond_atom_site_label_2
_geom_bond_distance
_geom_bond_site_symmetry_2
_ccdc_geom_bond_type
Nd0 C2 2.836 . S
Nd0 O20 2.500 1_556 S
Nd0 O21 2.492 . S
Nd0 O22 2.487 . S
Nd0 O23 2.682 . S
Nd0 O24 2.410 . S
Nd0 O29 2.414 1_556 S
Nd0 O31 2.424 . S
Nd1 C11 2.836 . S
Nd1 O23 2.414 1_654 S
Nd1 O25 2.424 . S
Nd1 O26 2.500 1_554 S
Nd1 O27 2.492 . S
Nd1 O28 2.487 . S
Nd1 O29 2.682 1_655 S
Nd1 O30 2.410 1_655 S
C2 Nd0 2.836 . S
C2 C3 1.498 . S
C2 O20 1.258 1_556 S
C2 O21 1.239 . S
C3 C2 1.498 . S
C3 C4 1.363 1_556 S
C3 C8 1.410 . S
C4 C3 1.363 1_554 S
C4 C5 1.392 . S
C4 H32 0.930 . S
C5 C4 1.392 . S
C5 C6 1.398 . S
C5 H33 0.929 . S
C6 C5 1.398 . S
C6 C7 1.352 1_554 S
C7 C6 1.352 1_556 S
C7 C8 1.384 . S
C7 H34 0.930 . S
C8 C3 1.410 . S
C8 C7 1.384 . S
C8 H35 0.929 . S
C9 O22 1.241 . S
C9 O23 1.273 . S
C10 O24 1.251 1_654 S
C10 O25 1.268 . S
C11 Nd1 2.836 . S
C11 C12 1.498 . S
C11 O26 1.258 1_554 S
C11 O27 1.239 . S
C12 C11 1.498 . S
C12 C13 1.366 1_554 S
C12 C17 1.407 . S
C13 C12 1.366 1_556 S
C13 C14 1.392 . S
C13 H36 0.930 . S
C14 C13 1.392 . S
C14 C15 1.398 1_556 S
C14 H37 0.929 . S
C15 C14 1.398 1_554 S
C15 C16 1.352 . S
C16 C15 1.352 . S
C16 C17 1.384 . S
C16 H38 0.930 . S
C17 C12 1.407 . S
C17 C16 1.384 . S
C17 H39 0.929 . S
C18 O28 1.241 1_455 S
C18 O29 1.273 . S
C19 O30 1.251 1_556 S
C19 O31 1.268 . S
O20 Nd0 2.500 1_554 S
O20 C2 1.258 1_554 S
O21 Nd0 2.492 . S
O21 C2 1.239 . S
O22 Nd0 2.487 . S
O22 C9 1.241 . S
O23 Nd0 2.682 . S
O23 Nd1 2.414 1_456 S
O23 C9 1.273 . S
O24 Nd0 2.410 . S
O24 C10 1.251 1_456 S
O25 Nd1 2.424 . S
O25 C10 1.268 . S
O26 Nd1 2.500 1_556 S
O26 C11 1.258 1_556 S
O27 Nd1 2.492 . S
O27 C11 1.239 . S
O28 Nd1 2.487 . S
O28 C18 1.241 1_655 S
O29 Nd0 2.414 1_554 S
O29 Nd1 2.682 1_455 S
O29 C18 1.273 . S
O30 Nd1 2.410 1_455 S
O30 C19 1.251 1_554 S
O31 Nd0 2.424 . S
O31 C19 1.268 . S
H32 C4 0.930 . S
H33 C5 0.929 . S
H34 C7 0.930 . S
H35 C8 0.929 . S
H36 C13 0.930 . S
H37 C14 0.929 . S
H38 C16 0.930 . S
H39 C17 0.929 . S
Nd40 C42 2.836 . S
Nd40 O60 2.500 1_556 S
Nd40 O61 2.492 . S
Nd40 O62 2.487 . S
Nd40 O63 2.682 . S
Nd40 O64 2.410 . S
Nd40 O69 2.414 1_556 S
Nd40 O71 2.424 . S
Nd41 C51 2.836 . S
Nd41 O63 2.414 1_554 S
Nd41 O65 2.424 . S
Nd41 O66 2.500 1_554 S
Nd41 O67 2.492 . S
Nd41 O68 2.487 . S
Nd41 O69 2.682 . S
Nd41 O70 2.410 . S
C42 Nd40 2.836 . S
C42 C43 1.498 . S
C42 O60 1.258 1_556 S
C42 O61 1.239 . S
C43 C42 1.498 . S
C43 C44 1.360 1_556 S
C43 C48 1.413 . S
C44 C43 1.360 1_554 S
C44 C45 1.392 . S
C44 H72 0.930 . S
C45 C44 1.392 . S
C45 C46 1.398 . S
C45 H73 0.929 . S
C46 C45 1.398 . S
C46 C47 1.352 1_554 S
C47 C46 1.352 1_556 S
C47 C48 1.384 . S
C47 H74 0.930 . S
C48 C43 1.413 . S
C48 C47 1.384 . S
C48 H75 0.929 . S
C49 O62 1.241 . S
C49 O63 1.273 . S
C50 O64 1.251 1_554 S
C50 O65 1.268 . S
C51 Nd41 2.836 . S
C51 C52 1.498 . S
C51 O66 1.258 1_554 S
C51 O67 1.239 . S
C52 C51 1.498 . S
C52 C53 1.366 1_554 S
C52 C57 1.407 . S
C53 C52 1.366 1_556 S
C53 C54 1.392 . S
C53 H76 0.930 . S
C54 C53 1.392 . S
C54 C55 1.398 1_556 S
C54 H77 0.929 . S
C55 C54 1.398 1_554 S
C55 C56 1.352 . S
C56 C55 1.352 . S
C56 C57 1.384 . S
C56 H78 0.928 . S
C57 C52 1.407 . S
C57 C56 1.384 . S
C57 H79 0.929 . S
C58 O68 1.241 . S
C58 O69 1.273 . S
C59 O70 1.251 1_556 S
C59 O71 1.268 . S
O60 Nd40 2.500 1_554 S
O60 C42 1.258 1_554 S
O61 Nd40 2.492 . S
O61 C42 1.239 . S
O62 Nd40 2.487 . S
O62 C49 1.241 . S
O63 Nd40 2.682 . S
O63 Nd41 2.414 1_556 S
O63 C49 1.273 . S
O64 Nd40 2.410 . S
O64 C50 1.251 1_556 S
O65 Nd41 2.424 . S
O65 C50 1.268 . S
O66 Nd41 2.500 1_556 S
O66 C51 1.258 1_556 S
O67 Nd41 2.492 . S
O67 C51 1.239 . S
O68 Nd41 2.487 . S
O68 C58 1.241 . S
O69 Nd40 2.414 1_554 S
O69 Nd41 2.682 . S
O69 C58 1.273 . S
O70 Nd41 2.410 . S
O70 C59 1.251 1_554 S
O71 Nd40 2.424 . S
O71 C59 1.268 . S
H72 C44 0.930 . S
H73 C45 0.929 . S
H74 C47 0.930 . S
H75 C48 0.929 . S
H76 C53 0.930 . S
H77 C54 0.929 . S
H78 C56 0.928 . S
H79 C57 0.929 . S
Nd80 C82 2.836 . S
Nd80 O100 2.500 1_556 S
Nd80 O101 2.492 . S
Nd80 O102 2.487 . S
Nd80 O103 2.682 1_565 S
Nd80 O104 2.410 1_565 S
Nd80 O109 2.414 1_566 S
Nd80 O111 2.424 . S
Nd81 C91 2.836 . S
Nd81 O103 2.414 1_554 S
Nd81 O105 2.424 . S
Nd81 O106 2.500 1_554 S
Nd81 O107 2.492 . S
Nd81 O108 2.487 . S
Nd81 O109 2.682 . S
Nd81 O110 2.410 . S
C82 Nd80 2.836 . S
C82 C83 1.498 . S
C82 O100 1.258 1_556 S
C82 O101 1.239 . S
C83 C82 1.498 . S
C83 C84 1.359 1_556 S
C83 C88 1.414 . S
C84 C83 1.359 1_554 S
C84 C85 1.392 . S
C84 H112 0.930 . S
C85 C84 1.392 . S
C85 C86 1.398 . S
C85 H113 0.929 . S
C86 C85 1.398 . S
C86 C87 1.352 1_554 S
C87 C86 1.352 1_556 S
C87 C88 1.384 . S
C87 H114 0.930 . S
C88 C83 1.414 . S
C88 C87 1.384 . S
C88 H115 0.929 . S
C89 O102 1.241 1_545 S
C89 O103 1.273 . S
C90 O104 1.251 1_554 S
C90 O105 1.268 . S
C91 Nd81 2.836 . S
C91 C92 1.498 . S
C91 O106 1.258 1_554 S
C91 O107 1.239 . S
C92 C91 1.498 . S
C92 C93 1.366 1_554 S
C92 C97 1.407 . S
C93 C92 1.366 1_556 S
C93 C94 1.392 . S
C93 H116 0.930 . S
C94 C93 1.392 . S
C94 C95 1.398 1_556 S
C94 H117 0.929 . S
C95 C94 1.398 1_554 S
C95 C96 1.352 . S
C96 C95 1.352 . S
C96 C97 1.384 . S
C96 H118 0.930 . S
C97 C92 1.407 . S
C97 C96 1.384 . S
C97 H119 0.929 . S
C98 O108 1.241 . S
C98 O109 1.273 . S
C99 O110 1.251 1_566 S
C99 O111 1.268 . S
O100 Nd80 2.500 1_554 S
O100 C82 1.258 1_554 S
O101 Nd80 2.492 . S
O101 C82 1.239 . S
O102 Nd80 2.487 . S
O102 C89 1.241 1_565 S
O103 Nd80 2.682 1_545 S
O103 Nd81 2.414 1_556 S
O103 C89 1.273 . S
O104 Nd80 2.410 1_545 S
O104 C90 1.251 1_556 S
O105 Nd81 2.424 . S
O105 C90 1.268 . S
O106 Nd81 2.500 1_556 S
O106 C91 1.258 1_556 S
O107 Nd81 2.492 . S
O107 C91 1.239 . S
O108 Nd81 2.487 . S
O108 C98 1.241 . S
O109 Nd80 2.414 1_544 S
O109 Nd81 2.682 . S
O109 C98 1.273 . S
O110 Nd81 2.410 . S
O110 C99 1.251 1_544 S
O111 Nd80 2.424 . S
O111 C99 1.268 . S
H112 C84 0.930 . S
H113 C85 0.929 . S
H114 C87 0.930 . S
H115 C88 0.929 . S
H116 C93 0.930 . S
H117 C94 0.929 . S
H118 C96 0.930 . S
H119 C97 0.929 . S
Nd120 C122 2.836 . S
Nd120 O140 2.500 . S
Nd120 O141 2.492 . S
Nd120 O142 2.487 . S
Nd120 O143 2.682 . S
Nd120 O144 2.410 . S
Nd120 O149 2.414 . S
Nd120 O151 2.424 . S
Nd121 C131 2.836 . S
Nd121 O143 2.414 . S
Nd121 O145 2.424 . S
Nd121 O146 2.500 . S
Nd121 O147 2.492 . S
Nd121 O148 2.487 . S
Nd121 O149 2.682 . S
Nd121 O150 2.410 . S
C122 Nd120 2.836 . S
C122 C123 1.498 . S
C122 O140 1.258 . S
C122 O141 1.239 . S
C123 C122 1.498 . S
C123 C124 1.366 . S
C123 C128 1.407 . S
C124 C123 1.366 . S
C124 C125 1.392 . S
C124 H152 0.930 . S
C125 C124 1.392 . S
C125 C126 1.398 . S
C125 H153 0.929 . S
C126 C125 1.398 . S
C126 C127 1.352 . S
C127 C126 1.352 . S
C127 C128 1.384 . S
C127 H154 0.930 . S
C128 C123 1.407 . S
C128 C127 1.384 . S
C128 H155 0.929 . S
C129 O142 1.241 . S
C129 O143 1.273 . S
C130 O144 1.251 . S
C130 O145 1.268 . S
C131 Nd121 2.836 . S
C131 C132 1.498 . S
C131 O146 1.258 . S
C131 O147 1.239 . S
C132 C131 1.498 . S
C132 C133 1.366 . S
C132 C137 1.407 . S
C133 C132 1.366 . S
C133 C134 1.392 . S
C133 H156 0.930 . S
C134 C133 1.392 . S
C134 C135 1.398 . S
C134 H157 0.929 . S
C135 C134 1.398 . S
C135 C136 1.352 . S
C136 C135 1.352 . S
C136 C137 1.384 . S
C136 H158 0.930 . S
C137 C132 1.407 . S
C137 C136 1.384 . S
C137 H159 0.929 . S
C138 O148 1.241 . S
C138 O149 1.273 . S
C139 O150 1.251 . S
C139 O151 1.268 . S
O140 Nd120 2.500 . S
O140 C122 1.258 . S
O141 Nd120 2.492 . S
O141 C122 1.239 . S
O142 Nd120 2.487 . S
O142 C129 1.241 . S
O143 Nd120 2.682 . S
O143 Nd121 2.414 . S
O143 C129 1.273 . S
O144 Nd120 2.410 . S
O144 C130 1.251 . S
O145 Nd121 2.424 . S
O145 C130 1.268 . S
O146 Nd121 2.500 . S
O146 C131 1.258 . S
O147 Nd121 2.492 . S
O147 C131 1.239 . S
O148 Nd121 2.487 . S
O148 C138 1.241 . S
O149 Nd120 2.414 . S
O149 Nd121 2.682 . S
O149 C138 1.273 . S
O150 Nd121 2.410 . S
O150 C139 1.251 . S
O151 Nd120 2.424 . S
O151 C139 1.268 . S
H152 C124 0.930 . S
H153 C125 0.929 . S
H154 C127 0.930 . S
H155 C128 0.929 . S
H156 C133 0.930 . S
H157 C134 0.929 . S
H158 C136 0.930 . S
H159 C137 0.929 . S
Nd160 C162 2.836 . S
Nd160 O180 2.500 . S
Nd160 O181 2.492 . S
Nd160 O182 2.487 . S
Nd160 O183 2.682 . S
Nd160 O184 2.410 . S
Nd160 O189 2.414 . S
Nd160 O191 2.424 . S
Nd161 C171 2.836 . S
Nd161 O183 2.414 . S
Nd161 O185 2.424 . S
Nd161 O186 2.500 . S
Nd161 O187 2.492 . S
Nd161 O188 2.487 . S
Nd161 O189 2.682 . S
Nd161 O190 2.410 . S
C162 Nd160 2.836 . S
C162 C163 1.498 . S
C162 O180 1.258 . S
C162 O181 1.239 . S
C163 C162 1.498 . S
C163 C164 1.366 . S
C163 C168 1.407 . S
C164 C163 1.366 . S
C164 C165 1.392 . S
C164 H192 0.930 . S
C165 C164 1.392 . S
C165 C166 1.398 . S
C165 H193 0.929 . S
C166 C165 1.398 . S
C166 C167 1.352 . S
C167 C166 1.352 . S
C167 C168 1.384 . S
C167 H194 0.930 . S
C168 C163 1.407 . S
C168 C167 1.384 . S
C168 H195 0.929 . S
C169 O182 1.241 . S
C169 O183 1.273 . S
C170 O184 1.251 . S
C170 O185 1.268 . S
C171 Nd161 2.836 . S
C171 C172 1.498 . S
C171 O186 1.258 . S
C171 O187 1.239 . S
C172 C171 1.498 . S
C172 C173 1.366 . S
C172 C177 1.407 . S
C173 C172 1.366 . S
C173 C174 1.392 . S
C173 H196 0.930 . S
C174 C173 1.392 . S
C174 C175 1.398 . S
C174 H197 0.929 . S
C175 C174 1.398 . S
C175 C176 1.352 . S
C176 C175 1.352 . S
C176 C177 1.384 . S
C176 H198 0.930 . S
C177 C172 1.407 . S
C177 C176 1.384 . S
C177 H199 0.929 . S
C178 O188 1.241 . S
C178 O189 1.273 . S
C179 O190 1.251 . S
C179 O191 1.268 . S
O180 Nd160 2.500 . S
O180 C162 1.258 . S
O181 Nd160 2.492 . S
O181 C162 1.239 . S
O182 Nd160 2.487 . S
O182 C169 1.241 . S
O183 Nd160 2.682 . S
O183 Nd161 2.414 . S
O183 C169 1.273 . S
O184 Nd160 2.410 . S
O184 C170 1.251 . S
O185 Nd161 2.424 . S
O185 C170 1.268 . S
O186 Nd161 2.500 . S
O186 C171 1.258 . S
O187 Nd161 2.492 . S
O187 C171 1.239 . S
O188 Nd161 2.487 . S
O188 C178 1.241 . S
O189 Nd160 2.414 . S
O189 Nd161 2.682 . S
O189 C178 1.273 . S
O190 Nd161 2.410 . S
O190 C179 1.251 . S
O191 Nd160 2.424 . S
O191 C179 1.268 . S
H192 C164 0.930 . S
H193 C165 0.929 . S
H194 C167 0.930 . S
H195 C168 0.929 . S
H196 C173 0.930 . S
H197 C174 0.929 . S
H198 C176 0.930 . S
H199 C177 0.929 . S
Nd200 C202 2.836 . S
Nd200 O220 2.500 . S
Nd200 O221 2.492 . S
Nd200 O222 2.487 . S
Nd200 O223 2.682 . S
Nd200 O224 2.410 . S
Nd200 O229 2.414 . S
Nd200 O231 2.424 . S
Nd201 C211 2.836 . S
Nd201 O223 2.414 . S
Nd201 O225 2.424 . S
Nd201 O226 2.500 . S
Nd201 O227 2.492 . S
Nd201 O228 2.487 . S
Nd201 O229 2.682 . S
Nd201 O230 2.410 . S
C202 Nd200 2.836 . S
C202 C203 1.498 . S
C202 O220 1.258 . S
C202 O221 1.239 . S
C203 C202 1.498 . S
C203 C204 1.366 . S
C203 C208 1.407 . S
C204 C203 1.366 . S
C204 C205 1.392 . S
C204 H232 0.930 . S
C205 C204 1.392 . S
C205 C206 1.398 . S
C205 H233 0.929 . S
C206 C205 1.398 . S
C206 C207 1.352 . S
C207 C206 1.352 . S
C207 C208 1.384 . S
C207 H234 0.930 . S
C208 C203 1.407 . S
C208 C207 1.384 . S
C208 H235 0.929 . S
C209 O222 1.241 . S
C209 O223 1.273 . S
C210 O224 1.251 . S
C210 O225 1.268 . S
C211 Nd201 2.836 . S
C211 C212 1.498 . S
C211 O226 1.258 . S
C211 O227 1.239 . S
C212 C211 1.498 . S
C212 C213 1.366 . S
C212 C217 1.407 . S
C213 C212 1.366 . S
C213 C214 1.392 . S
C213 H236 0.930 . S
C214 C213 1.392 . S
C214 C215 1.398 . S
C214 H237 0.929 . S
C215 C214 1.398 . S
C215 C216 1.352 . S
C216 C215 1.352 . S
C216 C217 1.384 . S
C216 H238 0.930 . S
C217 C212 1.407 . S
C217 C216 1.384 . S
C217 H239 0.929 . S
C218 O228 1.241 . S
C218 O229 1.273 . S
C219 O230 1.251 . S
C219 O231 1.268 . S
O220 Nd200 2.500 . S
O220 C202 1.258 . S
O221 Nd200 2.492 . S
O221 C202 1.239 . S
O222 Nd200 2.487 . S
O222 C209 1.241 . S
O223 Nd200 2.682 . S
O223 Nd201 2.414 . S
O223 C209 1.273 . S
O224 Nd200 2.410 . S
O224 C210 1.251 . S
O225 Nd201 2.424 . S
O225 C210 1.268 . S
O226 Nd201 2.500 . S
O226 C211 1.258 . S
O227 Nd201 2.492 . S
O227 C211 1.239 . S
O228 Nd201 2.487 . S
O228 C218 1.241 . S
O229 Nd200 2.414 . S
O229 Nd201 2.682 . S
O229 C218 1.273 . S
O230 Nd201 2.410 . S
O230 C219 1.251 . S
O231 Nd200 2.424 . S
O231 C219 1.268 . S
H232 C204 0.930 . S
H233 C205 0.929 . S
H234 C207 0.930 . S
H235 C208 0.929 . S
H236 C213 0.930 . S
H237 C214 0.929 . S
H238 C216 0.930 . S
H239 C217 0.929 . S
Nd240 C242 2.836 . S
Nd240 O260 2.500 . S
Nd240 O261 2.492 . S
Nd240 O262 2.487 . S
Nd240 O263 2.682 . S
Nd240 O264 2.410 . S
Nd240 O269 2.414 . S
Nd240 O271 2.424 . S
Nd241 C251 2.836 . S
Nd241 O263 2.414 . S
Nd241 O265 2.424 . S
Nd241 O266 2.500 . S
Nd241 O267 2.492 . S
Nd241 O268 2.487 . S
Nd241 O269 2.682 . S
Nd241 O270 2.410 . S
C242 Nd240 2.836 . S
C242 C243 1.498 . S
C242 O260 1.258 . S
C242 O261 1.239 . S
C243 C242 1.498 . S
C243 C244 1.366 . S
C243 C248 1.407 . S
C244 C243 1.366 . S
C244 C245 1.392 . S
C244 H272 0.930 . S
C245 C244 1.392 . S
C245 C246 1.398 1_565 S
C245 H273 0.929 . S
C246 C245 1.398 1_545 S
C246 C247 1.352 1_545 S
C247 C246 1.352 1_565 S
C247 C248 1.384 . S
C247 H274 0.930 1_565 S
C248 C243 1.407 . S
C248 C247 1.384 . S
C248 H275 0.929 . S
C249 O262 1.241 . S
C249 O263 1.273 . S
C250 O264 1.251 . S
C250 O265 1.268 . S
C251 Nd241 2.836 . S
C251 C252 1.498 . S
C251 O266 1.258 . S
C251 O267 1.239 . S
C252 C251 1.498 . S
C252 C253 1.366 . S
C252 C257 1.407 . S
C253 C252 1.366 . S
C253 C254 1.392 . S
C253 H276 0.930 . S
C254 C253 1.392 . S
C254 C255 1.398 . S
C254 H277 0.929 . S
C255 C254 1.398 . S
C255 C256 1.352 . S
C256 C255 1.352 . S
C256 C257 1.384 . S
C256 H278 0.930 . S
C257 C252 1.407 . S
C257 C256 1.384 . S
C257 H279 0.929 . S
C258 O268 1.241 . S
C258 O269 1.273 . S
C259 O270 1.251 . S
C259 O271 1.268 . S
O260 Nd240 2.500 . S
O260 C242 1.258 . S
O261 Nd240 2.492 . S
O261 C242 1.239 . S
O262 Nd240 2.487 . S
O262 C249 1.241 . S
O263 Nd240 2.682 . S
O263 Nd241 2.414 . S
O263 C249 1.273 . S
O264 Nd240 2.410 . S
O264 C250 1.251 . S
O265 Nd241 2.424 . S
O265 C250 1.268 . S
O266 Nd241 2.500 . S
O266 C251 1.258 . S
O267 Nd241 2.492 . S
O267 C251 1.239 . S
O268 Nd241 2.487 . S
O268 C258 1.241 . S
O269 Nd240 2.414 . S
O269 Nd241 2.682 . S
O269 C258 1.273 . S
O270 Nd241 2.410 . S
O270 C259 1.251 . S
O271 Nd240 2.424 . S
O271 C259 1.268 . S
H272 C244 0.930 . S
H273 C245 0.929 . S
H274 C247 0.930 1_545 S
H275 C248 0.929 . S
H276 C253 0.930 . S
H277 C254 0.929 . S
H278 C256 0.930 . S
H279 C257 0.929 . S
Nd280 C282 2.836 . S
Nd280 O300 2.500 . S
Nd280 O301 2.492 . S
Nd280 O302 2.487 . S
Nd280 O303 2.682 . S
Nd280 O304 2.410 . S
Nd280 O309 2.414 . S
Nd280 O311 2.424 . S
Nd281 C291 2.836 . S
Nd281 O303 2.414 . S
Nd281 O305 2.424 . S
Nd281 O306 2.500 . S
Nd281 O307 2.492 . S
Nd281 O308 2.487 . S
Nd281 O309 2.682 . S
Nd281 O310 2.410 . S
C282 Nd280 2.836 . S
C282 C283 1.498 . S
C282 O300 1.258 . S
C282 O301 1.239 . S
C283 C282 1.498 . S
C283 C284 1.366 . S
C283 C288 1.407 . S
C284 C283 1.366 . S
C284 C285 1.392 . S
C284 H312 0.930 . S
C285 C284 1.392 . S
C285 C286 1.398 . S
C285 H313 0.929 . S
C286 C285 1.398 . S
C286 C287 1.352 . S
C287 C286 1.352 . S
C287 C288 1.384 . S
C287 H314 0.930 . S
C288 C283 1.407 . S
C288 C287 1.384 . S
C288 H315 0.929 . S
C289 O302 1.241 . S
C289 O303 1.273 . S
C290 O304 1.251 . S
C290 O305 1.268 . S
C291 Nd281 2.836 . S
C291 C292 1.498 . S
C291 O306 1.258 . S
C291 O307 1.239 . S
C292 C291 1.498 . S
C292 C293 1.366 . S
C292 C297 1.407 . S
C293 C292 1.366 . S
C293 C294 1.392 . S
C293 H316 0.930 . S
C294 C293 1.392 . S
C294 C295 1.398 . S
C294 H317 0.929 . S
C295 C294 1.398 . S
C295 C296 1.352 . S
C296 C295 1.352 . S
C296 C297 1.384 . S
C296 H318 0.930 . S
C297 C292 1.407 . S
C297 C296 1.384 . S
C297 H319 0.929 . S
C298 O308 1.241 . S
C298 O309 1.273 . S
C299 O310 1.251 . S
C299 O311 1.268 . S
O300 Nd280 2.500 . S
O300 C282 1.258 . S
O301 Nd280 2.492 . S
O301 C282 1.239 . S
O302 Nd280 2.487 . S
O302 C289 1.241 . S
O303 Nd280 2.682 . S
O303 Nd281 2.414 . S
O303 C289 1.273 . S
O304 Nd280 2.410 . S
O304 C290 1.251 . S
O305 Nd281 2.424 . S
O305 C290 1.268 . S
O306 Nd281 2.500 . S
O306 C291 1.258 . S
O307 Nd281 2.492 . S
O307 C291 1.239 . S
O308 Nd281 2.487 . S
O308 C298 1.241 . S
O309 Nd280 2.414 . S
O309 Nd281 2.682 . S
O309 C298 1.273 . S
O310 Nd281 2.410 . S
O310 C299 1.251 . S
O311 Nd280 2.424 . S
O311 C299 1.268 . S
H312 C284 0.930 . S
H313 C285 0.929 . S
H314 C287 0.930 . S
H315 C288 0.929 . S
H316 C293 0.930 . S
H317 C294 0.929 . S
H318 C296 0.930 . S
H319 C297 0.929 . S
Nd320 C322 2.836 . S
Nd320 O340 2.500 . S
Nd320 O341 2.492 . S
Nd320 O342 2.487 . S
Nd320 O343 2.682 . S
Nd320 O344 2.410 . S
Nd320 O349 2.414 . S
Nd320 O351 2.424 . S
Nd321 C331 2.836 . S
Nd321 O343 2.414 . S
Nd321 O345 2.424 . S
Nd321 O346 2.500 . S
Nd321 O347 2.492 . S
Nd321 O348 2.487 . S
Nd321 O349 2.682 . S
Nd321 O350 2.410 . S
C322 Nd320 2.836 . S
C322 C323 1.498 . S
C322 O340 1.258 . S
C322 O341 1.239 . S
C323 C322 1.498 . S
C323 C324 1.366 . S
C323 C328 1.407 . S
C324 C323 1.366 . S
C324 C325 1.392 . S
C324 H352 0.930 . S
C325 C324 1.392 . S
C325 C326 1.398 . S
C325 H353 0.929 . S
C326 C325 1.398 . S
C326 C327 1.352 . S
C327 C326 1.352 . S
C327 C328 1.384 . S
C327 H354 0.930 . S
C328 C323 1.407 . S
C328 C327 1.384 . S
C328 H355 0.929 . S
C329 O342 1.241 . S
C329 O343 1.273 . S
C330 O344 1.251 . S
C330 O345 1.268 . S
C331 Nd321 2.836 . S
C331 C332 1.498 . S
C331 O346 1.258 . S
C331 O347 1.239 . S
C332 C331 1.498 . S
C332 C333 1.366 . S
C332 C337 1.407 . S
C333 C332 1.366 . S
C333 C334 1.392 . S
C333 H356 0.930 . S
C334 C333 1.392 . S
C334 C335 1.398 . S
C334 H357 0.929 . S
C335 C334 1.398 . S
C335 C336 1.352 . S
C336 C335 1.352 . S
C336 C337 1.384 . S
C336 H358 0.930 . S
C337 C332 1.407 . S
C337 C336 1.384 . S
C337 H359 0.929 . S
C338 O348 1.241 . S
C338 O349 1.273 . S
C339 O350 1.251 . S
C339 O351 1.268 . S
O340 Nd320 2.500 . S
O340 C322 1.258 . S
O341 Nd320 2.492 . S
O341 C322 1.239 . S
O342 Nd320 2.487 . S
O342 C329 1.241 . S
O343 Nd320 2.682 . S
O343 Nd321 2.414 . S
O343 C329 1.273 . S
O344 Nd320 2.410 . S
O344 C330 1.251 . S
O345 Nd321 2.424 . S
O345 C330 1.268 . S
O346 Nd321 2.500 . S
O346 C331 1.258 . S
O347 Nd321 2.492 . S
O347 C331 1.239 . S
O348 Nd321 2.487 . S
O348 C338 1.241 . S
O349 Nd320 2.414 . S
O349 Nd321 2.682 . S
O349 C338 1.273 . S
O350 Nd321 2.410 . S
O350 C339 1.251 . S
O351 Nd320 2.424 . S
O351 C339 1.268 . S
H352 C324 0.930 . S
H353 C325 0.929 . S
H354 C327 0.930 . S
H355 C328 0.929 . S
H356 C333 0.930 . S
H357 C334 0.929 . S
H358 C336 0.930 . S
H359 C337 0.929 . S
C360 C361 1.170 . S
C360 C362 1.380 . S
C361 C360 1.170 . S
C362 C360 1.380 . S
C362 C363 1.170 . S
C363 C362 1.170 . S
C364 C365 1.170 . S
C364 C366 1.380 . S
C365 C364 1.170 . S
C366 C364 1.380 . S
C366 C367 1.170 . S
C367 C366 1.170 . S
C368 C369 1.170 . S
C368 C370 1.380 . S
C369 C368 1.170 . S
C370 C368 1.380 . S
C370 C371 1.170 . S
C371 C370 1.170 . S
C372 C373 1.170 . S
C372 C374 1.380 . S
C373 C372 1.170 . S
C374 C372 1.380 . S
C374 C375 1.170 . S
C375 C374 1.170 . S
C376 C377 1.170 . S
C376 C378 1.380 . S
C377 C376 1.170 . S
C378 C376 1.380 . S
C378 C379 1.170 . S
C379 C378 1.170 . S
C380 C381 1.170 . S
C380 C382 1.380 . S
C381 C380 1.170 . S
C382 C380 1.380 . S
C382 C383 1.170 . S
C383 C382 1.170 . S
C384 C385 1.170 . S
C384 C386 1.380 . S
C385 C384 1.170 . S
C386 C384 1.380 . S
C386 C387 1.170 . S
C387 C386 1.170 . S
C388 C389 1.170 . S
C388 C390 1.380 . S
C389 C388 1.170 . S
C390 C388 1.380 . S
C390 C391 1.170 . S
C391 C390 1.170 . S
C392 C393 1.170 . S
C392 C394 1.380 . S
C393 C392 1.170 . S
C394 C392 1.380 . S
C394 C395 1.170 . S
C395 C394 1.170 . S
C396 C397 1.170 . S
C396 C398 1.380 . S
C397 C396 1.170 . S
C398 C396 1.380 . S
C398 C399 1.170 . S
C399 C398 1.170 . S
C400 C401 1.170 . S
C400 C402 1.380 . S
C401 C400 1.170 . S
C402 C400 1.380 . S
C402 C403 1.170 . S
C403 C402 1.170 . S
C404 C405 1.170 . S
C404 C406 1.380 . S
C405 C404 1.170 . S
C406 C404 1.380 . S
C406 C407 1.170 . S
C407 C406 1.170 . S
C408 C409 1.170 . S
C408 C410 1.380 . S
C409 C408 1.170 . S
C410 C408 1.380 . S
C410 C411 1.170 . S
C411 C410 1.170 . S
C412 C413 1.170 . S
C412 C414 1.380 . S
C413 C412 1.170 . S
C414 C412 1.380 . S
C414 C415 1.170 . S
C415 C414 1.170 . S
C416 C417 1.170 . S
C416 C418 1.380 . S
C417 C416 1.170 . S
C418 C416 1.380 . S
C418 C419 1.170 . S
C419 C418 1.170 . S
C420 C421 1.170 . S
C420 C422 1.380 . S
C421 C420 1.170 . S
C422 C420 1.380 . S
C422 C423 1.170 . S
C423 C422 1.170 . S
C424 C425 1.170 . S
C424 C426 1.380 . S
C425 C424 1.170 . S
C426 C424 1.380 . S
C426 C427 1.170 . S
C427 C426 1.170 . S
C428 C429 1.170 . S
C428 C430 1.380 . S
C429 C428 1.170 . S
C430 C428 1.380 . S
C430 C431 1.170 . S
C431 C430 1.170 . S
C432 C433 1.170 . S
C432 C434 1.380 . S
C433 C432 1.170 . S
C434 C432 1.380 . S
C434 C435 1.170 . S
C435 C434 1.170 . S
C436 C437 1.170 . S
C436 C438 1.380 . S
C437 C436 1.170 . S
C438 C436 1.380 . S
C438 C439 1.170 . S
C439 C438 1.170 . S
C440 C441 1.170 . S
C440 C442 1.380 . S
C441 C440 1.170 . S
C442 C440 1.380 . S
C442 C443 1.170 . S
C443 C442 1.170 . S
C444 C445 1.170 . S
C444 C446 1.380 . S
C445 C444 1.170 . S
C446 C444 1.380 . S
C446 C447 1.170 1_556 S
C447 C446 1.170 1_554 S
C448 C449 1.170 . S
C448 C450 1.380 . S
C449 C448 1.170 . S
C450 C448 1.380 . S
C450 C451 1.170 1_556 S
C451 C450 1.170 1_554 S
C452 C453 1.170 . S
C452 C454 1.380 . S
C453 C452 1.170 . S
C454 C452 1.380 . S
C454 C455 1.170 1_556 S
C455 C454 1.170 1_554 S
C456 C457 1.170 . S
C456 C458 1.380 . S
C457 C456 1.170 . S
C458 C456 1.380 . S
C458 C459 1.170 . S
C459 C458 1.170 . S
C460 C461 1.170 . S
C460 C462 1.380 . S
C461 C460 1.170 . S
C462 C460 1.380 . S
C462 C463 1.170 . S
C463 C462 1.170 . S
C464 C465 1.170 . S
C464 C466 1.380 . S
C465 C464 1.170 . S
C466 C464 1.380 . S
C466 C467 1.170 . S
C467 C466 1.170 . S
C361 C6 1.958 1_556 S
C363 C290 2.018 . S
C365 C46 1.948 1_556 S
C367 C330 2.020 . S
C369 C86 1.938 1_556 S
C371 C250 2.034 . S
C373 C166 1.962 . S
C375 C90 2.033 . S
C377 C206 1.970 . S
C379 C10 2.027 . S
C381 C50 2.034 . S
C383 C126 1.939 . S
C385 C286 1.940 1_655 S
C387 C210 2.035 . S
C389 C326 1.943 . S
C391 C130 2.036 . S
C393 C170 2.032 . S
C395 C246 1.937 . S
C397 C95 1.652 1_556 S
C399 C19 1.638 . S
C401 C59 1.658 . S
C403 C15 1.664 1_566 S
C405 C55 1.659 1_456 S
C407 C99 1.654 . S
C409 C139 1.639 . S
C411 C215 1.655 . S
C413 C135 1.653 . S
C415 C179 1.646 . S
C417 C175 1.665 . S
C419 C219 1.656 . S
C421 C335 1.662 . S
C423 C259 1.657 . S
C425 C299 1.643 . S
C427 C255 1.658 . S
C429 C339 1.637 . S
C431 C295 1.652 . S
C433 C9 1.036 . S
C435 C18 1.034 . S
C437 C49 1.014 . S
C439 C58 1.061 . S
C441 C89 1.080 . S
C443 C98 1.013 . S
C445 C138 1.070 . S
C447 C129 1.040 . S
C449 C178 1.073 . S
C451 C169 1.036 . S
C453 C218 1.063 . S
C455 C209 1.048 . S
C457 C249 1.073 . S
C459 C258 1.036 1_554 S
C461 C298 1.021 1_554 S
C463 C289 1.080 . S
C465 C329 1.049 . S
C467 C338 1.022 1_554 S
