# Generated by pormake.
# Topology dia, (4)-cn, num edge types: 1
# Building blocks:
#     Node 0, Type 0, BuildingBlock: KUFVIS_clean_sbu_0, # of connection points: 4
#     Node 1, Type 0, BuildingBlock: KUFVIS_clean_sbu_0, # of connection points: 4
#     Node 2, Type 0, BuildingBlock: KUFVIS_clean_sbu_0, # of connection points: 4
#     Node 3, Type 0, BuildingBlock: KUFVIS_clean_sbu_0, # of connection points: 4
#     Node 4, Type 0, BuildingBlock: KUFVIS_clean_sbu_0, # of connection points: 4
#     Node 5, Type 0, BuildingBlock: KUFVIS_clean_sbu_0, # of connection points: 4
#     Node 6, Type 0, BuildingBlock: KUFVIS_clean_sbu_0, # of connection points: 4
#     Node 7, Type 0, BuildingBlock: KUFVIS_clean_sbu_0, # of connection points: 4
#     Edge 8, Type (0, 0), BuildingBlock: TEMPAE_clean_linker_10, # of connection points: 2
#     Edge 9, Type (0, 0), BuildingBlock: TEMPAE_clean_linker_10, # of connection points: 2
#     Edge 10, Type (0, 0), BuildingBlock: TEMPAE_clean_linker_10, # of connection points: 2
#     Edge 11, Type (0, 0), BuildingBlock: TEMPAE_clean_linker_10, # of connection points: 2
#     Edge 12, Type (0, 0), BuildingBlock: TEMPAE_clean_linker_10, # of connection points: 2
#     Edge 13, Type (0, 0), BuildingBlock: TEMPAE_clean_linker_10, # of connection points: 2
#     Edge 14, Type (0, 0), BuildingBlock: TEMPAE_clean_linker_10, # of connection points: 2
#     Edge 15, Type (0, 0), BuildingBlock: TEMPAE_clean_linker_10, # of connection points: 2
#     Edge 16, Type (0, 0), BuildingBlock: TEMPAE_clean_linker_10, # of connection points: 2
#     Edge 17, Type (0, 0), BuildingBlock: TEMPAE_clean_linker_10, # of connection points: 2
#     Edge 18, Type (0, 0), BuildingBlock: TEMPAE_clean_linker_10, # of connection points: 2
#     Edge 19, Type (0, 0), BuildingBlock: TEMPAE_clean_linker_10, # of connection points: 2
#     Edge 20, Type (0, 0), BuildingBlock: TEMPAE_clean_linker_10, # of connection points: 2
#     Edge 21, Type (0, 0), BuildingBlock: TEMPAE_clean_linker_10, # of connection points: 2
#     Edge 22, Type (0, 0), BuildingBlock: TEMPAE_clean_linker_10, # of connection points: 2
#     Edge 23, Type (0, 0), BuildingBlock: TEMPAE_clean_linker_10, # of connection points: 2
# Relax obj value: 0.070
# Max RMSD: 0.124
# Mean RMSD: 0.124
data_MOF--net-dia--node1-KUFVIS_clean_sbu_0--edge1-TEMPAE_clean_linker_10
_symmetry_space_group_name_H-M    P1
_symmetry_Int_Tables_number       1
_symmetry_cell_setting            triclinic
loop_
_symmetry_equiv_pos_as_xyz
'x, y, z'
_cell_length_a     38.631665
_cell_length_b     32.663724
_cell_length_c     32.702896
_cell_angle_alpha  91.800699
_cell_angle_beta   90.877886
_cell_angle_gamma 90.876478
loop_
_atom_site_label
_atom_site_type_symbol
_atom_site_fract_x
_atom_site_fract_y
_atom_site_fract_z
_atom_type_partial_charge
Mn0 Mn 0.1323 0.14073 0.62811 0.0
Mn1 Mn 0.16719 0.06496 0.56889 0.0
C2 C 0.09977 0.10906 0.57502 0.0
C3 C 0.10099 0.1682 0.6837 0.0
C4 C 0.18377 0.15442 0.55881 0.0
O5 O 0.17245 0.12231 0.66426 0.0
O6 O 0.19318 0.07382 0.62115 0.0
C7 C 0.15472 0.99395 0.62135 0.0
N8 N 0.15268 1.01156 0.58424 0.0
C9 C 0.13755 0.94706 0.55058 0.0
C10 C 0.13994 0.92805 0.58837 0.0
C11 C 0.14816 0.9517 0.62397 0.0
C12 C 0.1439 0.98931 0.55 0.0
H13 H 0.16157 1.01196 0.64859 0.0
C14 C 0.19387 0.09407 0.6553 0.0
O15 O 0.12376 0.18947 0.66452 0.0
O16 O 0.0974 0.12994 0.67194 0.0
N17 N 0.14513 0.05158 0.51745 0.0
C18 C 0.13948 0.07568 0.48486 0.0
C19 C 0.12764 0.0576 0.44759 0.0
C20 C 0.12265 0.01489 0.44399 0.0
C21 C 0.12881 0.99074 0.47798 0.0
C22 C 0.13974 1.0106 0.51454 0.0
H23 H 0.14397 0.10838 0.48742 0.0
O24 O 0.09342 0.1461 0.5881 0.0
O25 O 0.12567 0.0911 0.5927 0.0
O26 O 0.16629 0.16781 0.58893 0.0
O27 O 0.185 0.11673 0.54837 0.0
C28 C 0.12396 0.94784 0.47731 0.0
C29 C 0.12832 0.926 0.5136 0.0
H30 H 0.13505 0.89545 0.59049 0.0
H31 H 0.1498 0.93731 0.65328 0.0
H32 H 0.12277 0.07645 0.42155 0.0
H33 H 0.11373 1.00104 0.41511 0.0
H34 H 0.11588 0.93151 0.44936 0.0
H35 H 0.12355 0.89323 0.51297 0.0
Mn36 Mn 0.8984 0.39081 0.87534 0.0
Mn37 Mn 0.85759 0.44358 0.95114 0.0
C38 C 0.92802 0.44231 0.9128 0.0
C39 C 0.93191 0.33739 0.84709 0.0
C40 C 0.84702 0.46093 0.86234 0.0
O41 O 0.85856 0.35216 0.88803 0.0
O42 O 0.83176 0.39255 0.93441 0.0
C43 C 0.86385 0.38385 0.01714 0.0
N44 N 0.868 0.42262 1.00368 0.0
C45 C 0.87908 0.44933 0.07212 0.0
C46 C 0.87497 0.40967 0.08677 0.0
C47 C 0.86762 0.37675 0.0591 0.0
C48 C 0.87559 0.45439 0.02995 0.0
H49 H 0.85729 0.35869 0.9961 0.0
C50 C 0.83385 0.35962 0.91243 0.0
O51 O 0.91031 0.35782 0.82532 0.0
O52 O 0.93339 0.34701 0.88598 0.0
N53 N 0.8784 0.49356 0.97188 0.0
C54 C 0.88513 0.52883 0.95214 0.0
C55 C 0.89528 0.56423 0.97501 0.0
C56 C 0.89743 0.56323 0.01792 0.0
C57 C 0.8901 0.52658 0.03754 0.0
C58 C 0.88098 0.49209 0.01307 0.0
H59 H 0.88271 0.52985 0.91924 0.0
O60 O 0.93649 0.43208 0.87561 0.0
O61 O 0.90146 0.42272 0.92758 0.0
O62 O 0.86483 0.43116 0.84847 0.0
O63 O 0.84405 0.46918 0.90027 0.0
C64 C 0.89217 0.52264 0.08033 0.0
C65 C 0.88677 0.48401 0.0976 0.0
H66 H 0.87756 0.40411 0.11914 0.0
H67 H 0.86435 0.34607 0.07018 0.0
H68 H 0.901 0.59236 0.95966 0.0
H69 H 0.90505 0.59067 0.03546 0.0
H70 H 0.89887 0.54887 0.10012 0.0
H71 H 0.88928 0.48116 0.13042 0.0
Mn72 Mn 0.63218 0.14802 0.12717 0.0
Mn73 Mn 0.67039 0.07272 0.07126 0.0
C74 C 0.60144 0.11408 0.07462 0.0
C75 C 0.59939 0.17623 0.18077 0.0
C76 C 0.68354 0.16179 0.05762 0.0
O77 O 0.67102 0.13148 0.16527 0.0
O78 O 0.6972 0.08664 0.12253 0.0
C79 C 0.66296 1.00469 0.12862 0.0
N80 N 0.65873 0.01973 0.09052 0.0
C81 C 0.64442 0.95269 0.06192 0.0
C82 C 0.64867 0.93645 0.10084 0.0
C83 C 0.65769 0.96263 0.13439 0.0
C84 C 0.64957 0.99489 0.05817 0.0
H85 H 0.67067 0.02451 0.15429 0.0
C86 C 0.69522 0.10669 0.15669 0.0
O87 O 0.62221 0.19749 0.16165 0.0
O88 O 0.59642 0.13765 0.16994 0.0
N89 N 0.64826 0.05452 0.02116 0.0
C90 C 0.64121 0.07588 0.987 0.0
C91 C 0.62918 0.05477 0.95136 0.0
C92 C 0.62538 1.01189 0.95096 0.0
C93 C 0.63294 0.99057 0.98651 0.0
C94 C 0.64406 0.01336 0.02132 0.0
H95 H 0.64465 0.10875 0.98711 0.0
O96 O 0.59453 0.15153 0.08587 0.0
O97 O 0.62738 0.09716 0.09352 0.0
O98 O 0.66687 0.17483 0.08854 0.0
O99 O 0.68498 0.12415 0.04707 0.0
C100 C 0.62915 0.94773 0.98908 0.0
C101 C 0.63484 0.9288 0.02678 0.0
H102 H 0.64483 0.904 0.10538 0.0
H103 H 0.66102 0.95033 0.16452 0.0
H104 H 0.6232 0.07145 0.92413 0.0
H105 H 0.61624 0.99571 0.92336 0.0
H106 H 0.6209 0.92921 0.96254 0.0
H107 H 0.63098 0.896 0.02862 0.0
Mn108 Mn 0.88724 0.89049 0.38198 0.0
Mn109 Mn 0.8492 0.95114 0.45409 0.0
C110 C 0.91826 0.94495 0.4134 0.0
C111 C 0.91955 0.83466 0.35719 0.0
C112 C 0.83619 0.95914 0.36375 0.0
O113 O 0.84721 0.85402 0.39959 0.0
O114 O 0.82366 0.8984 0.44478 0.0
C115 C 0.85894 0.8997 0.52643 0.0
N116 N 0.86142 0.93665 0.50848 0.0
C117 C 0.8736 0.97129 0.57324 0.0
C118 C 0.87077 0.93367 0.59256 0.0
C119 C 0.86379 0.89766 0.56897 0.0
C120 C 0.86894 0.9713 0.53074 0.0
H121 H 0.85304 0.87213 0.50846 0.0
C122 C 0.82443 0.86343 0.42601 0.0
O123 O 0.89727 0.85315 0.33463 0.0
O124 O 0.92225 0.84745 0.3952 0.0
N125 N 0.87038 1.00301 0.46811 0.0
C126 C 0.87734 0.03523 0.44397 0.0
C127 C 0.88804 0.07292 0.46222 0.0
C128 C 0.89068 0.07726 0.50508 0.0
C129 C 0.88344 0.04355 0.52926 0.0
C130 C 0.87369 1.00658 0.50929 0.0
H131 H 0.87495 0.03197 0.41112 0.0
O132 O 0.92574 0.93094 0.37704 0.0
O133 O 0.89204 0.92734 0.43092 0.0
O134 O 0.85371 0.9283 0.35233 0.0
O135 O 0.83375 0.97096 0.40092 0.0
C136 C 0.88642 0.04481 0.57232 0.0
C137 C 0.88157 1.00867 0.5943 0.0
H138 H 0.87433 0.93199 0.62537 0.0
H139 H 0.86178 0.86848 0.58362 0.0
H140 H 0.89392 0.09867 0.44335 0.0
H141 H 0.89879 0.10643 0.51904 0.0
H142 H 0.89357 0.07308 0.58871 0.0
H143 H 0.88497 1.00975 0.62726 0.0
Mn144 Mn 0.12723 0.64511 0.1422 0.0
Mn145 Mn 0.17037 0.5711 0.0897 0.0
C146 C 0.09962 0.60904 0.08834 0.0
C147 C 0.09213 0.67193 0.19457 0.0
C148 C 0.18076 0.66067 0.07518 0.0
O149 O 0.16551 0.63151 0.18239 0.0
O150 O 0.19429 0.58653 0.14248 0.0
C151 C 0.16204 0.50332 0.14715 0.0
N152 N 0.15952 0.51779 0.10864 0.0
C153 C 0.14969 0.44988 0.07971 0.0
C154 C 0.1522 0.4342 0.11907 0.0
C155 C 0.1581 0.46109 0.15296 0.0
C156 C 0.15333 0.49226 0.07592 0.0
H157 H 0.1674 0.52377 0.17313 0.0
C158 C 0.19058 0.60744 0.17583 0.0
O159 O 0.11433 0.69427 0.17566 0.0
O160 O 0.09078 0.63322 0.18391 0.0
N161 N 0.15154 0.55147 0.03831 0.0
C162 C 0.14557 0.57216 1.00346 0.0
C163 C 0.13688 0.55013 0.96707 0.0
C164 C 0.13526 0.50709 0.96675 0.0
C165 C 0.14154 0.4865 1.00307 0.0
C166 C 0.14931 0.51013 0.03852 0.0
H167 H 0.14734 0.60517 1.00358 0.0
O168 O 0.09071 0.64594 0.09926 0.0
O169 O 0.12548 0.59365 0.10879 0.0
O170 O 0.16198 0.67343 0.10446 0.0
O171 O 0.18445 0.62296 0.06606 0.0
C172 C 0.13947 0.44352 1.00578 0.0
C173 C 0.14341 0.42524 0.04411 0.0
H174 H 0.14944 0.40162 0.12365 0.0
H175 H 0.16009 0.44922 0.18343 0.0
H176 H 0.13179 0.56624 0.93925 0.0
H177 H 0.12869 0.4902 0.93859 0.0
H178 H 0.13379 0.42436 0.97881 0.0
H179 H 0.14083 0.39228 0.04599 0.0
Mn180 Mn 0.39548 0.39309 0.37758 0.0
Mn181 Mn 0.35797 0.43744 0.46024 0.0
C182 C 0.42305 0.44686 0.41391 0.0
C183 C 0.43028 0.3434 0.34579 0.0
C184 C 0.33821 0.45789 0.37393 0.0
O185 O 0.35909 0.35029 0.39177 0.0
O186 O 0.33406 0.38534 0.44349 0.0
C187 C 0.3783 0.37339 0.51774 0.0
N188 N 0.37798 0.4135 0.50753 0.0
C189 C 0.40554 0.43436 0.57142 0.0
C190 C 0.40612 0.3933 0.58265 0.0
C191 C 0.39269 0.36265 0.55553 0.0
C192 C 0.39196 0.44304 0.53276 0.0
H193 H 0.36753 0.34975 0.49734 0.0
C194 C 0.33602 0.35427 0.41899 0.0
O195 O 0.40655 0.3625 0.32575 0.0
O196 O 0.43343 0.35263 0.3846 0.0
N197 N 0.37747 0.48806 0.48164 0.0
C198 C 0.37222 0.52643 0.46784 0.0
C199 C 0.38292 0.56071 0.49201 0.0
C200 C 0.39799 0.5553 0.53074 0.0
C201 C 0.40191 0.51565 0.54507 0.0
C202 C 0.39115 0.4826 0.51937 0.0
H203 H 0.36002 0.53088 0.43855 0.0
O204 O 0.4308 0.43839 0.37615 0.0
O205 O 0.39973 0.42328 0.42964 0.0
O206 O 0.35756 0.4312 0.35685 0.0
O207 O 0.33702 0.46422 0.41264 0.0
C208 C 0.41472 0.50775 0.58455 0.0
C209 C 0.41711 0.46708 0.59746 0.0
H210 H 0.41658 0.38499 0.61212 0.0
H211 H 0.393 0.33088 0.56396 0.0
H212 H 0.37925 0.59125 0.48098 0.0
H213 H 0.40589 0.58184 0.54949 0.0
H214 H 0.423 0.53273 0.60516 0.0
H215 H 0.4274 0.46137 0.62771 0.0
Mn216 Mn 0.39088 0.89123 0.8838 0.0
Mn217 Mn 0.34985 0.94594 0.95832 0.0
C218 C 0.41984 0.94527 0.91771 0.0
C219 C 0.42449 0.83771 0.8565 0.0
C220 C 0.33719 0.95788 0.86867 0.0
O221 O 0.3516 0.85247 0.8991 0.0
O222 O 0.32597 0.89259 0.94673 0.0
C223 C 0.36122 0.89227 0.02847 0.0
N224 N 0.36319 0.9299 0.01183 0.0
C225 C 0.37621 0.96235 0.07745 0.0
C226 C 0.37437 0.92393 0.09536 0.0
C227 C 0.36712 0.8887 0.0707 0.0
C228 C 0.37058 0.96389 0.03517 0.0
H229 H 0.35477 0.86532 1.00975 0.0
C230 C 0.32806 0.85936 0.92528 0.0
O231 O 0.40197 0.85675 0.83479 0.0
O232 O 0.42673 0.84853 0.89511 0.0
N233 N 0.36925 0.9983 0.97398 0.0
C234 C 0.37379 0.03203 0.9511 0.0
C235 C 0.38385 0.06939 0.97054 0.0
C236 C 0.38812 0.07188 0.01333 0.0
C237 C 0.38294 0.03676 0.03624 0.0
C238 C 0.37381 1.00022 0.01507 0.0
H239 H 0.36964 0.03035 0.91833 0.0
O240 O 0.42822 0.93288 0.8811 0.0
O241 O 0.39399 0.92578 0.93429 0.0
O242 O 0.35734 0.93007 0.8558 0.0
O243 O 0.33269 0.96649 0.90628 0.0
C244 C 0.3871 0.03634 0.07914 0.0
C245 C 0.38381 0.99914 0.09973 0.0
H246 H 0.37867 0.92108 0.12795 0.0
H247 H 0.36562 0.85896 0.0843 0.0
H248 H 0.38785 0.09634 0.95267 0.0
H249 H 0.39564 0.10081 0.02823 0.0
H250 H 0.39382 0.06423 0.09645 0.0
H251 H 0.38795 0.99902 0.13256 0.0
Mn252 Mn 0.62822 0.64649 0.63506 0.0
Mn253 Mn 0.66764 0.56505 0.59006 0.0
C254 C 0.60055 0.60898 0.58223 0.0
C255 C 0.5944 0.67651 0.68688 0.0
C256 C 0.68481 0.65275 0.57056 0.0
O257 O 0.66738 0.63439 0.67571 0.0
O258 O 0.68937 0.5786 0.64385 0.0
C259 C 0.64505 0.5032 0.6487 0.0
N260 N 0.64682 0.51614 0.60959 0.0
C261 C 0.62019 0.45361 0.58308 0.0
C262 C 0.61809 0.43953 0.62306 0.0
C263 C 0.63032 0.4646 0.65604 0.0
C264 C 0.63403 0.49291 0.57781 0.0
H265 H 0.65494 0.52211 0.67406 0.0
C266 C 0.68865 0.60488 0.67349 0.0
O267 O 0.61639 0.6977 0.66631 0.0
O268 O 0.5925 0.63747 0.67799 0.0
N269 N 0.65004 0.54727 0.53739 0.0
C270 C 0.65655 0.56397 0.50055 0.0
C271 C 0.64698 0.54224 0.46431 0.0
C272 C 0.63184 0.50302 0.46623 0.0
C273 C 0.6266 0.48577 0.50438 0.0
C274 C 0.63626 0.50909 0.5395 0.0
H275 H 0.66912 0.59359 0.49875 0.0
O276 O 0.59089 0.64585 0.59196 0.0
O277 O 0.62529 0.59451 0.60463 0.0
O278 O 0.66265 0.66923 0.59417 0.0
O279 O 0.6899 0.61425 0.56758 0.0
C280 C 0.61348 0.44573 0.50885 0.0
C281 C 0.60983 0.42984 0.54821 0.0
H282 H 0.60736 0.40945 0.62876 0.0
H283 H 0.62883 0.45397 0.68699 0.0
H284 H 0.65165 0.55549 0.43494 0.0
H285 H 0.62485 0.48616 0.43818 0.0
H286 H 0.60597 0.42692 0.48222 0.0
H287 H 0.59935 0.39916 0.55127 0.0
C288 C 0.3258 0.28402 0.44275 0.0
C289 C 0.31241 0.31993 0.42703 0.0
C290 C 0.30406 0.25565 0.46161 0.0
C291 C 0.26806 0.26309 0.46372 0.0
C292 C 0.25421 0.29795 0.44511 0.0
C293 C 0.2767 0.32642 0.42769 0.0
C294 C 0.31996 0.21937 0.48185 0.0
C295 C 0.21589 0.3063 0.4455 0.0
C296 C 0.21003 0.17414 0.49286 0.0
C297 C 0.20386 0.18348 0.5343 0.0
C298 C 0.23013 0.20026 0.46924 0.0
C299 C 0.24532 0.236 0.48779 0.0
C300 C 0.23916 0.24567 0.52961 0.0
C301 C 0.21805 0.21957 0.55223 0.0
C302 C 0.23523 0.18951 0.42451 0.0
C303 C 0.2555 0.28313 0.55069 0.0
H304 H 0.35359 0.2797 0.4431 0.0
H305 H 0.26656 0.35461 0.41598 0.0
H306 H 0.31701 0.22266 0.5155 0.0
H307 H 0.30638 0.19059 0.47169 0.0
H308 H 0.34794 0.2165 0.47512 0.0
H309 H 0.20885 0.3316 0.42518 0.0
H310 H 0.20084 0.27839 0.4357 0.0
H311 H 0.208 0.31479 0.47708 0.0
H312 H 0.19898 0.14637 0.47874 0.0
H313 H 0.21358 0.22671 0.5843 0.0
H314 H 0.26301 0.18402 0.41875 0.0
H315 H 0.22737 0.21547 0.40553 0.0
H316 H 0.22009 0.16176 0.41423 0.0
H317 H 0.2841 0.28194 0.54832 0.0
H318 H 0.24873 0.28584 0.58355 0.0
H319 H 0.24699 0.31116 0.5354 0.0
C320 C 0.74838 0.60149 0.70119 0.0
C321 C 0.71275 0.59754 0.70749 0.0
C322 C 0.77234 0.58335 0.72749 0.0
C323 C 0.76019 0.5597 0.76003 0.0
C324 C 0.72417 0.55732 0.76757 0.0
C325 C 0.70085 0.57651 0.74124 0.0
C326 C 0.8105 0.58746 0.71895 0.0
C327 C 0.71009 0.53209 0.80165 0.0
C328 C 0.81498 0.47143 0.79618 0.0
C329 C 0.82777 0.48712 0.83389 0.0
C330 C 0.79327 0.49495 0.77155 0.0
C331 C 0.78482 0.53538 0.7846 0.0
C332 C 0.79895 0.55193 0.82177 0.0
C333 C 0.81992 0.52751 0.84612 0.0
C334 C 0.77839 0.47605 0.73226 0.0
C335 C 0.79127 0.59514 0.83631 0.0
H336 H 0.75741 0.61697 0.6744 0.0
H337 H 0.67319 0.57249 0.74522 0.0
H338 H 0.82521 0.59579 0.74749 0.0
H339 H 0.82034 0.55765 0.70729 0.0
H340 H 0.81588 0.61093 0.69591 0.0
H341 H 0.68172 0.53561 0.80515 0.0
H342 H 0.71545 0.49924 0.79524 0.0
H343 H 0.72316 0.54093 0.83111 0.0
H344 H 0.82076 0.4402 0.78673 0.0
H345 H 0.82991 0.54 0.87512 0.0
H346 H 0.78514 0.49528 0.7061 0.0
H347 H 0.74972 0.47473 0.73382 0.0
H348 H 0.78793 0.44458 0.72608 0.0
H349 H 0.79727 0.61699 0.81201 0.0
H350 H 0.80633 0.60443 0.8644 0.0
H351 H 0.7633 0.59777 0.84291 0.0
C352 C 0.54987 0.11059 0.02749 0.0
C353 C 0.57538 0.09022 0.04968 0.0
C354 C 0.5226 0.08883 1.00743 0.0
C355 C 0.52251 0.04542 1.00658 0.0
C356 C 0.54876 0.02475 0.02805 0.0
C357 C 0.5732 0.04759 0.05167 0.0
C358 C 0.49409 0.11284 0.98771 0.0
C359 C 0.55189 0.97864 0.02509 0.0
C360 C 0.44629 0.97338 0.9835 0.0
C361 C 0.44406 0.97336 0.94082 0.0
C362 C 0.46967 0.99946 1.00528 0.0
C363 C 0.49507 0.0214 0.98369 0.0
C364 C 0.49478 0.01903 0.94035 0.0
C365 C 0.46835 0.99656 0.91955 0.0
C366 C 0.46641 1.00436 0.05121 0.0
C367 C 0.52235 0.03939 0.9154 0.0
H368 H 0.55042 0.14377 0.02696 0.0
H369 H 0.59053 0.03201 0.07187 0.0
H370 H 0.46938 0.09514 0.98468 0.0
H371 H 0.48927 0.14154 1.00573 0.0
H372 H 0.50229 0.12182 0.95687 0.0
H373 H 0.57203 0.96744 0.04627 0.0
H374 H 0.52742 0.96249 0.03189 0.0
H375 H 0.55829 0.96945 0.99318 0.0
H376 H 0.43008 0.9526 0.99989 0.0
H377 H 0.4677 0.9958 0.88637 0.0
H378 H 0.45724 0.0357 0.05862 0.0
H379 H 0.49139 1.00165 0.06771 0.0
H380 H 0.44816 0.98154 0.06356 0.0
H381 H 0.5131 0.0697 0.90599 0.0
H382 H 0.52736 0.02102 0.88699 0.0
H383 H 0.54719 0.0438 0.93256 0.0
C384 C 0.97062 0.78742 0.36081 0.0
C385 C 0.94268 0.80324 0.33871 0.0
C386 C 0.99491 0.76171 0.3415 0.0
C387 C 0.99132 0.7518 0.29908 0.0
C388 C 0.96227 0.76622 0.27719 0.0
C389 C 0.93838 0.79155 0.29723 0.0
C390 C 0.02525 0.74667 0.3661 0.0
C391 C 0.95732 0.75666 0.23197 0.0
C392 C 0.07037 0.7333 0.2334 0.0
C393 C 0.06825 0.69093 0.22484 0.0
C394 C 0.04632 0.75306 0.25873 0.0
C395 C 0.01937 0.73 0.27637 0.0
C396 C 0.01787 0.68692 0.26928 0.0
C397 C 0.04225 0.6679 0.24349 0.0
C398 C 0.04895 0.79901 0.26515 0.0
C399 C 0.98982 0.66112 0.2878 0.0
H400 H 0.97418 0.79619 0.39285 0.0
H401 H 0.91684 0.80337 0.27982 0.0
H402 H 0.02862 0.71332 0.36037 0.0
H403 H 0.04932 0.76233 0.35645 0.0
H404 H 0.02213 0.75263 0.39946 0.0
H405 H 0.93213 0.7676 0.22005 0.0
H406 H 0.97841 0.77147 0.21482 0.0
H407 H 0.95874 0.72318 0.22561 0.0
H408 H 0.09038 0.75146 0.21935 0.0
H409 H 0.04042 0.63516 0.23719 0.0
H410 H 0.04924 0.80732 0.2983 0.0
H411 H 0.02593 0.81343 0.2513 0.0
H412 H 0.07255 0.81219 0.25132 0.0
H413 H 0.9881 0.66825 0.3211 0.0
H414 H 0.99434 0.62781 0.28312 0.0
H415 H 0.96442 0.66838 0.27372 0.0
C416 C 0.33554 1.00187 0.80786 0.0
C417 C 0.31802 0.98188 0.8388 0.0
C418 C 0.31747 0.02586 0.78 0.0
C419 C 0.28095 0.02838 0.78228 0.0
C420 C 0.26329 1.00842 0.81387 0.0
C421 C 0.28219 0.98606 0.84227 0.0
C422 C 0.33734 0.04782 0.74765 0.0
C423 C 0.2243 1.00898 0.81651 0.0
C424 C 0.22756 0.10379 0.72187 0.0
C425 C 0.21852 0.0798 0.68689 0.0
C426 C 0.24921 0.08821 0.7526 0.0
C427 C 0.26082 0.04729 0.74884 0.0
C428 C 0.25195 0.02321 0.71348 0.0
C429 C 0.23166 0.04002 0.68272 0.0
C430 C 0.25928 0.11525 0.78924 0.0
C431 C 0.26279 0.97904 0.70868 0.0
H432 H 0.36341 0.9992 0.80585 0.0
H433 H 0.26882 0.97064 0.86647 0.0
H434 H 0.33193 0.03292 0.71724 0.0
H435 H 0.32892 0.08008 0.74613 0.0
H436 H 0.36573 0.04755 0.75355 0.0
H437 H 0.2147 0.99331 0.84388 0.0
H438 H 0.21505 0.04094 0.81749 0.0
H439 H 0.21265 0.99351 0.78877 0.0
H440 H 0.21777 0.13461 0.7252 0.0
H441 H 0.22502 0.02105 0.65589 0.0
H442 H 0.28772 0.11465 0.79451 0.0
H443 H 0.24691 0.10354 0.81702 0.0
H444 H 0.25137 0.14748 0.78546 0.0
H445 H 0.29142 0.97713 0.70922 0.0
H446 H 0.25285 0.96419 0.67971 0.0
H447 H 0.25306 0.96129 0.73464 0.0
C448 C 0.95339 0.46526 0.98096 0.0
C449 C 0.95254 0.4679 0.93837 0.0
C450 C 0.97608 0.48996 1.0053 0.0
C451 C 1.00207 0.51346 0.98632 0.0
C452 C 1.00355 0.51317 0.94303 0.0
C453 C 0.97791 0.49182 0.91969 0.0
C454 C 0.97119 0.49211 0.05112 0.0
C455 C 0.03206 0.53498 0.92082 0.0
C456 C 0.05107 0.60393 0.037 0.0
C457 C 0.076 0.5843 0.06076 0.0
C458 C 0.02589 0.58141 0.01407 0.0
C459 C 0.02752 0.53806 0.01186 0.0
C460 C 0.05332 0.51816 0.03481 0.0
C461 C 0.07537 0.54151 0.06125 0.0
C462 C 0.99766 0.60463 0.99284 0.0
C463 C 0.05878 0.47249 0.03022 0.0
H464 H 0.93628 0.44386 0.99531 0.0
H465 H 0.97848 0.4929 0.8866 0.0
H466 H 0.99534 0.48672 0.06849 0.0
H467 H 0.96313 0.5235 0.06025 0.0
H468 H 0.95159 0.46954 0.06102 0.0
H469 H 0.02315 0.56581 0.91261 0.0
H470 H 0.05617 0.53848 0.93958 0.0
H471 H 0.03824 0.51819 0.89184 0.0
H472 H 0.05033 0.63711 0.03742 0.0
H473 H 0.09206 0.52624 0.08239 0.0
H474 H 0.97406 0.58562 0.9864 0.0
H475 H 1.00757 0.61599 0.96356 0.0
H476 H 0.99026 0.63189 0.01173 0.0
H477 H 0.03454 0.45433 0.03203 0.0
H478 H 0.07706 0.46136 0.05369 0.0
H479 H 0.06901 0.46564 0.99929 0.0
C480 C 0.48 0.29449 0.34654 0.0
C481 C 0.45361 0.31389 0.3248 0.0
C482 C 0.50361 0.26869 0.32635 0.0
C483 C 0.50092 0.26221 0.28335 0.0
C484 C 0.47371 0.28079 0.26148 0.0
C485 C 0.45043 0.30629 0.28243 0.0
C486 C 0.53209 0.24937 0.35087 0.0
C487 C 0.46985 0.27486 0.21564 0.0
C488 C 0.58092 0.23824 0.22108 0.0
C489 C 0.5761 0.19646 0.21082 0.0
C490 C 0.55726 0.25954 0.24567 0.0
C491 C 0.5279 0.23866 0.26063 0.0
C492 C 0.52353 0.1961 0.25174 0.0
C493 C 0.54766 0.17549 0.2269 0.0
C494 C 0.56306 0.30484 0.25435 0.0
C495 C 0.49273 0.17263 0.2673 0.0
H496 H 0.48264 0.30005 0.37929 0.0
H497 H 0.43012 0.32101 0.26533 0.0
H498 H 0.53265 0.2159 0.34406 0.0
H499 H 0.55753 0.26235 0.3421 0.0
H500 H 0.52898 0.25459 0.38434 0.0
H501 H 0.44619 0.28942 0.20347 0.0
H502 H 0.49272 0.28828 0.20056 0.0
H503 H 0.4688 0.24173 0.20707 0.0
H504 H 0.60283 0.25477 0.20898 0.0
H505 H 0.54368 0.14324 0.21914 0.0
H506 H 0.56257 0.31169 0.28777 0.0
H507 H 0.54184 0.32225 0.2401 0.0
H508 H 0.5881 0.31609 0.24238 0.0
H509 H 0.49033 0.17798 0.30079 0.0
H510 H 0.49456 0.13917 0.26073 0.0
H511 H 0.46868 0.18375 0.25269 0.0
C512 C 0.79537 0.79364 0.41915 0.0
C513 C 0.80035 0.83125 0.44054 0.0
C514 C 0.77526 0.76202 0.43573 0.0
C515 C 0.76095 0.76773 0.47513 0.0
C516 C 0.76558 0.80576 0.4965 0.0
C517 C 0.7845 0.83716 0.47864 0.0
C518 C 0.76975 0.72238 0.41141 0.0
C519 C 0.75154 0.81297 0.539 0.0
C520 C 0.6868 0.7065 0.51857 0.0
C521 C 0.70445 0.67962 0.54373 0.0
C522 C 0.70495 0.73322 0.49351 0.0
C523 C 0.74161 0.73415 0.495 0.0
C524 C 0.75952 0.70627 0.51975 0.0
C525 C 0.74063 0.67872 0.5433 0.0
C526 C 0.68488 0.76142 0.46655 0.0
C527 C 0.79853 0.70714 0.52325 0.0
H528 H 0.80735 0.78882 0.38968 0.0
H529 H 0.78804 0.86596 0.49564 0.0
H530 H 0.78318 0.69724 0.42688 0.0
H531 H 0.74177 0.71412 0.4098 0.0
H532 H 0.77965 0.7242 0.3798 0.0
H533 H 0.75853 0.84386 0.55204 0.0
H534 H 0.72293 0.80967 0.53836 0.0
H535 H 0.76176 0.78968 0.55983 0.0
H536 H 0.65872 0.70653 0.51849 0.0
H537 H 0.75413 0.65773 0.56277 0.0
H538 H 0.69581 0.76127 0.43536 0.0
H539 H 0.68698 0.79327 0.47924 0.0
H540 H 0.65701 0.75263 0.46417 0.0
H541 H 0.81015 0.70508 0.49248 0.0
H542 H 0.80854 0.68177 0.54171 0.0
H543 H 0.80736 0.73668 0.53787 0.0
C544 C 0.24914 0.59524 0.20544 0.0
C545 C 0.21325 0.59682 0.21031 0.0
C546 C 0.27029 0.57675 0.23465 0.0
C547 C 0.25487 0.55769 0.26835 0.0
C548 C 0.21868 0.56043 0.274 0.0
C549 C 0.19838 0.58067 0.24522 0.0
C550 C 0.3089 0.5759 0.22839 0.0
C551 C 0.20103 0.53935 0.30863 0.0
C552 C 0.30286 0.46689 0.31024 0.0
C553 C 0.31642 0.48325 0.34735 0.0
C554 C 0.28225 0.4906 0.28465 0.0
C555 C 0.27611 0.53213 0.29574 0.0
C556 C 0.29011 0.54895 0.33292 0.0
C557 C 0.30951 0.52407 0.35864 0.0
C558 C 0.26684 0.4711 0.24589 0.0
C559 C 0.28508 0.59339 0.3452 0.0
H560 H 0.2605 0.60742 0.17815 0.0
H561 H 0.17047 0.58105 0.24835 0.0
H562 H 0.32295 0.5845 0.25732 0.0
H563 H 0.31668 0.54441 0.21927 0.0
H564 H 0.3172 0.59698 0.20427 0.0
H565 H 0.17312 0.54681 0.31037 0.0
H566 H 0.20337 0.50568 0.30424 0.0
H567 H 0.21374 0.54805 0.33833 0.0
H568 H 0.30786 0.43525 0.30155 0.0
H569 H 0.31995 0.53698 0.38715 0.0
H570 H 0.27724 0.48653 0.21886 0.0
H571 H 0.23834 0.47492 0.2453 0.0
H572 H 0.27249 0.43791 0.24284 0.0
H573 H 0.29494 0.6133 0.32093 0.0
H574 H 0.29859 0.60209 0.3745 0.0
H575 H 0.25712 0.59969 0.34846 0.0
C576 C 0.82115 0.28868 0.93315 0.0
C577 C 0.8089 0.32677 0.92149 0.0
C578 C 0.79937 0.26081 0.95262 0.0
C579 C 0.76432 0.27091 0.95936 0.0
C580 C 0.75125 0.30805 0.94466 0.0
C581 C 0.77391 0.33593 0.92662 0.0
C582 C 0.81454 0.22201 0.96866 0.0
C583 C 0.71378 0.31928 0.94987 0.0
C584 C 0.70469 0.18403 0.99005 0.0
C585 C 0.70242 0.19126 0.03244 0.0
C586 C 0.72381 0.21043 0.96565 0.0
C587 C 0.7421 0.24407 0.98431 0.0
C588 C 0.73983 0.2516 0.02714 0.0
C589 C 0.7195 0.22545 0.05062 0.0
C590 C 0.72462 0.20217 0.91999 0.0
C591 C 0.75965 0.28662 0.04832 0.0
H592 H 0.84842 0.28205 0.92998 0.0
H593 H 0.76458 0.3656 0.91785 0.0
H594 H 0.81428 0.22327 1.00261 0.0
H595 H 0.79868 0.19497 0.95827 0.0
H596 H 0.84161 0.21746 0.95868 0.0
H597 H 0.70671 0.34626 0.93184 0.0
H598 H 0.69653 0.2931 0.94035 0.0
H599 H 0.70886 0.32655 0.98261 0.0
H600 H 0.69134 0.15773 0.97585 0.0
H601 H 0.71801 0.23085 0.08342 0.0
H602 H 0.75132 0.19473 0.9106 0.0
H603 H 0.71697 0.22996 0.90363 0.0
H604 H 0.70708 0.17637 0.90996 0.0
H605 H 0.78774 0.2836 0.04253 0.0
H606 H 0.75567 0.28779 0.0819 0.0
H607 H 0.75149 0.31616 0.03575 0.0
C608 C 0.80123 0.96397 0.29906 0.0
C609 C 0.81822 0.9833 0.33268 0.0
C610 C 0.78227 0.98683 0.27097 0.0
C611 C 0.7815 0.03012 0.27586 0.0
C612 C 0.79972 0.04981 0.30895 0.0
C613 C 0.81722 0.0261 0.33742 0.0
C614 C 0.76227 0.96462 0.23677 0.0
C615 C 0.80062 0.0959 0.31441 0.0
C616 C 0.75369 0.08595 0.18091 0.0
C617 C 0.71913 0.09466 0.18958 0.0
C618 C 0.7749 0.06682 0.20963 0.0
C619 C 0.76069 0.05464 0.2471 0.0
C620 C 0.72603 0.06444 0.2564 0.0
C621 C 0.70584 0.08499 0.22776 0.0
C622 C 0.81211 0.05839 0.19925 0.0
C623 C 0.7096 0.05103 0.2955 0.0
H624 H 0.80175 0.93087 0.29557 0.0
H625 H 0.83043 0.0412 0.36327 0.0
H626 H 0.73439 0.97205 0.23872 0.0
H627 H 0.77136 0.97492 0.20673 0.0
H628 H 0.76497 0.93085 0.23773 0.0
H629 H 0.8182 0.10654 0.33991 0.0
H630 H 0.80925 0.11008 0.28582 0.0
H631 H 0.77425 0.10719 0.32075 0.0
H632 H 0.76387 0.09323 0.15124 0.0
H633 H 0.67887 0.09092 0.23409 0.0
H634 H 0.81558 0.02497 0.19428 0.0
H635 H 0.82953 0.06853 0.22503 0.0
H636 H 0.82025 0.07407 0.17123 0.0
H637 H 0.70915 0.01707 0.2962 0.0
H638 H 0.68268 0.06207 0.29862 0.0
H639 H 0.72509 0.06249 0.32242 0.0
C640 C 0.96831 0.99453 0.41433 0.0
C641 C 0.94331 0.97261 0.43577 0.0
C642 C 0.99465 0.01728 0.43513 0.0
C643 C 0.99427 0.02093 0.47845 0.0
C644 C 0.96815 1.00026 0.50005 0.0
C645 C 0.94483 0.97398 0.47851 0.0
C646 C 0.02278 0.0365 0.41016 0.0
C647 C 0.96419 1.00659 0.54578 0.0
C648 C 0.07067 0.04407 0.54978 0.0
C649 C 0.07395 0.08668 0.54848 0.0
C650 C 0.04675 0.02228 0.52454 0.0
C651 C 0.02205 0.04402 0.50172 0.0
C652 C 0.02331 0.08744 0.5028 0.0
C653 C 0.05007 0.10816 0.52495 0.0
C654 C 0.04846 0.97601 0.52176 0.0
C655 C 0.99648 0.11239 0.48115 0.0
H656 H 0.96817 0.99267 0.38116 0.0
H657 H 0.9279 0.95427 0.49521 0.0
H658 H 0.01307 0.06529 0.39739 0.0
H659 H 0.04679 0.04351 0.42821 0.0
H660 H 0.02941 0.01593 0.38382 0.0
H661 H 0.94462 0.98539 0.55818 0.0
H662 H 0.98858 1.00244 0.5631 0.0
H663 H 0.95658 0.03871 0.55224 0.0
H664 H 0.08674 0.02769 0.57075 0.0
H665 H 0.05159 0.14133 0.52485 0.0
H666 H 0.05454 0.96632 0.48991 0.0
H667 H 0.02353 0.96097 0.52867 0.0
H668 H 0.06806 0.96401 0.54311 0.0
H669 H 0.97088 0.09649 0.47922 0.0
H670 H 1.00521 0.11808 0.44967 0.0
H671 H 0.99325 0.14268 0.49693 0.0
C672 C 0.95265 0.2985 0.78508 0.0
C673 C 0.95518 0.30672 0.82745 0.0
C674 C 0.97616 0.27269 0.76488 0.0
C675 C 1.00304 0.25428 0.78744 0.0
C676 C 1.00503 0.26122 0.83047 0.0
C677 C 0.98115 0.28739 0.84995 0.0
C678 C 0.97293 0.26635 0.71903 0.0
C679 C 0.03308 0.24207 0.85577 0.0
C680 C 0.04974 0.16737 0.73082 0.0
C681 C 0.07818 0.18826 0.71459 0.0
C682 C 0.02583 0.18795 0.75609 0.0
C683 C 0.03034 0.23047 0.76528 0.0
C684 C 0.05981 0.25119 0.75033 0.0
C685 C 0.08326 0.22992 0.72534 0.0
C686 C 0.99498 0.16455 0.77158 0.0
C687 C 0.0658 0.29643 0.75919 0.0
H688 H 0.93268 0.31309 0.76731 0.0
H689 H 0.98336 0.29346 0.88266 0.0
H690 H 0.99605 0.27957 0.70427 0.0
H691 H 0.97191 0.23316 0.71073 0.0
H692 H 0.94949 0.28086 0.70623 0.0
H693 H 0.02927 0.24729 0.88912 0.0
H694 H 0.0339 0.20861 0.84899 0.0
H695 H 0.05864 0.25521 0.84771 0.0
H696 H 0.0455 0.13523 0.72275 0.0
H697 H 0.10516 0.24642 0.71315 0.0
H698 H 0.97104 0.17526 0.75641 0.0
H699 H 0.99219 0.17036 0.80497 0.0
H700 H 0.99704 0.13102 0.76553 0.0
H701 H 0.04493 0.31403 0.74448 0.0
H702 H 0.09111 0.30744 0.74775 0.0
H703 H 0.06484 0.30327 0.79258 0.0
C704 C 0.54601 0.67401 0.73766 0.0
C705 C 0.57141 0.69658 0.71746 0.0
C706 C 0.52247 0.69348 0.76416 0.0
C707 C 0.52426 0.73661 0.77058 0.0
C708 C 0.55061 0.7593 0.75132 0.0
C709 C 0.5738 0.73907 0.72512 0.0
C710 C 0.49493 0.66807 0.78416 0.0
C711 C 0.55354 0.80528 0.75712 0.0
C712 C 0.44316 0.79681 0.79501 0.0
C713 C 0.44815 0.80776 0.83658 0.0
C714 C 0.46709 0.77256 0.77372 0.0
C715 C 0.49695 0.75862 0.79435 0.0
C716 C 0.5015 0.76812 0.83676 0.0
C717 C 0.47707 0.79261 0.85738 0.0
C718 C 0.46102 0.76326 0.72861 0.0
C719 C 0.53283 0.75368 0.85999 0.0
H720 H 0.54397 0.64117 0.73207 0.0
H721 H 0.59336 0.75685 0.70984 0.0
H722 H 0.49451 0.67526 0.81752 0.0
H723 H 0.46912 0.67565 0.7714 0.0
H724 H 0.49898 0.63468 0.77929 0.0
H725 H 0.57681 0.81813 0.7423 0.0
H726 H 0.53024 0.81966 0.74391 0.0
H727 H 0.55468 0.81397 0.79018 0.0
H728 H 0.42088 0.80814 0.77859 0.0
H729 H 0.48121 0.80093 0.88945 0.0
H730 H 0.46223 0.72979 0.72208 0.0
H731 H 0.48171 0.77804 0.7108 0.0
H732 H 0.43558 0.77431 0.7176 0.0
H733 H 0.53606 0.72025 0.8547 0.0
H734 H 0.53103 0.76027 0.89342 0.0
H735 H 0.55643 0.76913 0.84867 0.0
C736 C 0.20451 0.68123 1.00825 0.0
C737 C 0.19934 0.69044 0.04991 0.0
C738 C 0.22352 0.70773 0.98385 0.0
C739 C 0.23881 0.74368 1.00183 0.0
C740 C 0.23359 0.7533 0.04388 0.0
C741 C 0.21339 0.72686 0.0673 0.0
C742 C 0.22748 0.69702 0.93892 0.0
C743 C 0.25017 0.7909 0.0644 0.0
C744 C 0.31804 0.79031 0.95242 0.0
C745 C 0.3044 0.82598 0.93643 0.0
C746 C 0.29685 0.7628 0.97323 0.0
C747 C 0.26103 0.7707 0.97696 0.0
C748 C 0.24681 0.80537 0.95837 0.0
C749 C 0.26884 0.8331 0.93907 0.0
C750 C 0.31319 0.72677 0.99344 0.0
C751 C 0.2086 0.81409 0.9603 0.0
H752 H 0.19359 0.65321 0.99457 0.0
H753 H 0.2097 0.73387 0.09954 0.0
H754 H 0.21944 0.72312 0.92024 0.0
H755 H 0.25506 0.69114 0.93226 0.0
H756 H 0.21189 0.66948 0.92908 0.0
H757 H 0.24396 0.79375 0.09742 0.0
H758 H 0.27872 0.78974 0.06135 0.0
H759 H 0.24137 0.81884 0.04917 0.0
H760 H 0.34573 0.78547 0.95126 0.0
H761 H 0.25847 0.86106 0.9271 0.0
H762 H 0.2997 0.69786 0.98352 0.0
H763 H 0.3105 0.73012 0.02712 0.0
H764 H 0.34112 0.72408 0.98637 0.0
H765 H 0.19317 0.78629 0.95107 0.0
H766 H 0.20112 0.83944 0.94026 0.0
H767 H 0.20164 0.82262 0.99219 0.0
C768 C 0.47253 0.44865 0.46227 0.0
C769 C 0.44814 0.47017 0.43993 0.0
C770 C 0.49889 0.46923 0.48488 0.0
C771 C 0.49963 0.51275 0.48721 0.0
C772 C 0.47362 0.53454 0.4662 0.0
C773 C 0.44956 0.51294 0.44066 0.0
C774 C 0.52503 0.44336 0.50639 0.0
C775 C 0.46967 0.58027 0.47274 0.0
C776 C 0.5533 0.55757 0.57719 0.0
C777 C 0.57716 0.58219 0.55733 0.0
C778 C 0.52762 0.53524 0.5551 0.0
C779 C 0.52707 0.53566 0.51164 0.0
C780 C 0.55289 0.55853 0.49145 0.0
C781 C 0.57621 0.58363 0.51468 0.0
C782 C 0.50193 0.51108 0.57924 0.0
C783 C 0.55729 0.55461 0.44563 0.0
H784 H 0.47167 0.4154 0.46104 0.0
H785 H 0.43106 0.52943 0.42248 0.0
H786 H 0.54596 0.4615 0.52193 0.0
H787 H 0.51168 0.42484 0.52948 0.0
H788 H 0.53667 0.42152 0.48403 0.0
H789 H 0.44646 0.59187 0.45666 0.0
H790 H 0.46757 0.58767 0.50598 0.0
H791 H 0.49252 0.59736 0.46195 0.0
H792 H 0.55388 0.55697 0.61036 0.0
H793 H 0.59433 0.60346 0.49949 0.0
H794 H 0.51552 0.48569 0.59419 0.0
H795 H 0.48036 0.49792 0.56033 0.0
H796 H 0.49116 0.53089 0.60402 0.0
H797 H 0.56022 0.52182 0.43655 0.0
H798 H 0.58023 0.5721 0.43521 0.0
H799 H 0.53429 0.5655 0.42892 0.0
loop_
_geom_bond_atom_site_label_1
_geom_bond_atom_site_label_2
_geom_bond_distance
_geom_bond_site_symmetry_2
_ccdc_geom_bond_type
Mn0 O5 2.095 . S
Mn0 O15 2.162 . S
Mn0 O16 2.297 . S
Mn0 O24 2.385 . S
Mn0 O25 2.209 . S
Mn0 O26 2.094 . S
Mn1 O6 2.121 . S
Mn1 N8 2.257 1_545 S
Mn1 N17 2.282 . S
Mn1 O25 2.215 . S
Mn1 O27 2.117 . S
C2 O24 1.234 . S
C2 O25 1.283 . S
C3 O15 1.281 . S
C3 O16 1.236 . S
C4 O26 1.240 . S
C4 O27 1.264 . S
O5 Mn0 2.095 . S
O5 C14 1.250 . S
O6 Mn1 2.121 . S
O6 C14 1.258 . S
C7 N8 1.326 . S
C7 C11 1.460 . S
C7 H13 0.929 . S
N8 Mn1 2.257 1_565 S
N8 C7 1.326 . S
N8 C12 1.362 . S
C9 C10 1.258 . S
C9 C12 1.431 . S
C9 C29 1.449 . S
C10 C9 1.258 . S
C10 C11 1.477 . S
C10 H30 0.931 . S
C11 C7 1.460 . S
C11 C10 1.477 . S
C11 H31 0.930 . S
C12 N8 1.362 . S
C12 C9 1.431 . S
C12 C22 1.476 1_565 S
H13 C7 0.929 . S
C14 O5 1.250 . S
C14 O6 1.258 . S
O15 Mn0 2.162 . S
O15 C3 1.281 . S
O16 Mn0 2.297 . S
O16 C3 1.236 . S
N17 Mn1 2.282 . S
N17 C18 1.328 . S
N17 C22 1.318 . S
C18 N17 1.328 . S
C18 C19 1.457 . S
C18 H23 0.929 . S
C19 C18 1.457 . S
C19 C20 1.291 . S
C19 H32 0.931 . S
C20 C19 1.291 . S
C20 C21 1.373 . S
C20 H33 0.929 . S
C21 C20 1.373 . S
C21 C22 1.396 . S
C21 C28 1.403 1_545 S
C22 C12 1.476 1_545 S
C22 N17 1.318 . S
C22 C21 1.396 . S
H23 C18 0.929 . S
O24 Mn0 2.385 . S
O24 C2 1.234 . S
O25 Mn0 2.209 . S
O25 Mn1 2.215 . S
O25 C2 1.283 . S
O26 Mn0 2.094 . S
O26 C4 1.240 . S
O27 Mn1 2.117 . S
O27 C4 1.264 . S
C28 C21 1.403 1_565 S
C28 C29 1.399 . S
C28 H34 0.929 . S
C29 C9 1.449 . S
C29 C28 1.399 . S
C29 H35 0.930 . S
H30 C10 0.931 . S
H31 C11 0.930 . S
H32 C19 0.931 . S
H33 C20 0.929 . S
H34 C28 0.929 . S
H35 C29 0.930 . S
Mn36 O41 2.095 . S
Mn36 O51 2.162 . S
Mn36 O52 2.297 . S
Mn36 O60 2.385 . S
Mn36 O61 2.209 . S
Mn36 O62 2.094 . S
Mn37 O42 2.121 . S
Mn37 N44 2.257 1_556 S
Mn37 N53 2.282 . S
Mn37 O61 2.215 . S
Mn37 O63 2.117 . S
C38 O60 1.234 . S
C38 O61 1.283 . S
C39 O51 1.281 . S
C39 O52 1.236 . S
C40 O62 1.240 . S
C40 O63 1.264 . S
O41 Mn36 2.095 . S
O41 C50 1.250 . S
O42 Mn37 2.121 . S
O42 C50 1.258 . S
C43 N44 1.326 . S
C43 C47 1.460 . S
C43 H49 0.929 . S
N44 Mn37 2.257 1_554 S
N44 C43 1.326 . S
N44 C48 1.362 . S
C45 C46 1.258 . S
C45 C48 1.431 . S
C45 C65 1.449 . S
C46 C45 1.258 . S
C46 C47 1.477 . S
C46 H66 0.931 . S
C47 C43 1.460 . S
C47 C46 1.477 . S
C47 H67 0.930 . S
C48 N44 1.362 . S
C48 C45 1.431 . S
C48 C58 1.476 1_554 S
H49 C43 0.929 . S
C50 O41 1.250 . S
C50 O42 1.258 . S
O51 Mn36 2.162 . S
O51 C39 1.281 . S
O52 Mn36 2.297 . S
O52 C39 1.236 . S
N53 Mn37 2.282 . S
N53 C54 1.328 . S
N53 C58 1.318 . S
C54 N53 1.328 . S
C54 C55 1.457 . S
C54 H59 0.929 . S
C55 C54 1.457 . S
C55 C56 1.291 . S
C55 H68 0.931 . S
C56 C55 1.291 . S
C56 C57 1.373 . S
C56 H69 0.929 . S
C57 C56 1.373 . S
C57 C58 1.396 . S
C57 C64 1.403 1_556 S
C58 C48 1.476 1_556 S
C58 N53 1.318 . S
C58 C57 1.396 . S
H59 C54 0.929 . S
O60 Mn36 2.385 . S
O60 C38 1.234 . S
O61 Mn36 2.209 . S
O61 Mn37 2.215 . S
O61 C38 1.283 . S
O62 Mn36 2.094 . S
O62 C40 1.240 . S
O63 Mn37 2.117 . S
O63 C40 1.264 . S
C64 C57 1.403 1_554 S
C64 C65 1.399 . S
C64 H70 0.929 . S
C65 C45 1.449 . S
C65 C64 1.399 . S
C65 H71 0.930 . S
H66 C46 0.931 . S
H67 C47 0.930 . S
H68 C55 0.931 . S
H69 C56 0.929 . S
H70 C64 0.929 . S
H71 C65 0.930 . S
Mn72 O77 2.095 . S
Mn72 O87 2.162 . S
Mn72 O88 2.297 . S
Mn72 O96 2.385 . S
Mn72 O97 2.209 . S
Mn72 O98 2.094 . S
Mn73 O78 2.121 . S
Mn73 N80 2.257 1_545 S
Mn73 N89 2.282 . S
Mn73 O97 2.215 . S
Mn73 O99 2.117 . S
C74 O96 1.234 . S
C74 O97 1.283 . S
C75 O87 1.281 . S
C75 O88 1.236 . S
C76 O98 1.240 . S
C76 O99 1.264 . S
O77 Mn72 2.095 . S
O77 C86 1.250 . S
O78 Mn73 2.121 . S
O78 C86 1.258 . S
C79 N80 1.326 . S
C79 C83 1.460 . S
C79 H85 0.929 . S
N80 Mn73 2.257 1_565 S
N80 C79 1.326 . S
N80 C84 1.362 . S
C81 C82 1.258 . S
C81 C84 1.431 . S
C81 C101 1.449 1_554 S
C82 C81 1.258 . S
C82 C83 1.477 . S
C82 H102 0.931 . S
C83 C79 1.460 . S
C83 C82 1.477 . S
C83 H103 0.930 . S
C84 N80 1.362 . S
C84 C81 1.431 . S
C84 C94 1.476 1_565 S
H85 C79 0.929 . S
C86 O77 1.250 . S
C86 O78 1.258 . S
O87 Mn72 2.162 . S
O87 C75 1.281 . S
O88 Mn72 2.297 . S
O88 C75 1.236 . S
N89 Mn73 2.282 . S
N89 C90 1.328 1_554 S
N89 C94 1.318 . S
C90 N89 1.328 1_556 S
C90 C91 1.457 . S
C90 H95 0.929 . S
C91 C90 1.457 . S
C91 C92 1.291 . S
C91 H104 0.931 . S
C92 C91 1.291 . S
C92 C93 1.373 . S
C92 H105 0.929 . S
C93 C92 1.373 . S
C93 C94 1.396 1_556 S
C93 C100 1.403 1_545 S
C94 C84 1.476 1_545 S
C94 N89 1.318 . S
C94 C93 1.396 1_554 S
H95 C90 0.929 . S
O96 Mn72 2.385 . S
O96 C74 1.234 . S
O97 Mn72 2.209 . S
O97 Mn73 2.215 . S
O97 C74 1.283 . S
O98 Mn72 2.094 . S
O98 C76 1.240 . S
O99 Mn73 2.117 . S
O99 C76 1.264 . S
C100 C93 1.403 1_565 S
C100 C101 1.399 . S
C100 H106 0.929 . S
C101 C81 1.449 1_556 S
C101 C100 1.399 . S
C101 H107 0.930 . S
H102 C82 0.931 . S
H103 C83 0.930 . S
H104 C91 0.931 . S
H105 C92 0.929 . S
H106 C100 0.929 . S
H107 C101 0.930 . S
Mn108 O113 2.095 . S
Mn108 O123 2.162 . S
Mn108 O124 2.297 . S
Mn108 O132 2.385 . S
Mn108 O133 2.209 . S
Mn108 O134 2.094 . S
Mn109 O114 2.121 . S
Mn109 N116 2.257 . S
Mn109 N125 2.282 . S
Mn109 O133 2.215 . S
Mn109 O135 2.117 . S
C110 O132 1.234 . S
C110 O133 1.283 . S
C111 O123 1.281 . S
C111 O124 1.236 . S
C112 O134 1.240 . S
C112 O135 1.264 . S
O113 Mn108 2.095 . S
O113 C122 1.250 . S
O114 Mn109 2.121 . S
O114 C122 1.258 . S
C115 N116 1.326 . S
C115 C119 1.460 . S
C115 H121 0.929 . S
N116 Mn109 2.257 . S
N116 C115 1.326 . S
N116 C120 1.362 . S
C117 C118 1.258 . S
C117 C120 1.431 . S
C117 C137 1.449 1_565 S
C118 C117 1.258 . S
C118 C119 1.477 . S
C118 H138 0.931 . S
C119 C115 1.460 . S
C119 C118 1.477 . S
C119 H139 0.930 . S
C120 N116 1.362 . S
C120 C117 1.431 . S
C120 C130 1.476 . S
H121 C115 0.929 . S
C122 O113 1.250 . S
C122 O114 1.258 . S
O123 Mn108 2.162 . S
O123 C111 1.281 . S
O124 Mn108 2.297 . S
O124 C111 1.236 . S
N125 Mn109 2.282 . S
N125 C126 1.328 1_565 S
N125 C130 1.318 . S
C126 N125 1.328 1_545 S
C126 C127 1.457 . S
C126 H131 0.929 . S
C127 C126 1.457 . S
C127 C128 1.291 . S
C127 H140 0.931 . S
C128 C127 1.291 . S
C128 C129 1.373 . S
C128 H141 0.929 . S
C129 C128 1.373 . S
C129 C130 1.396 1_545 S
C129 C136 1.403 . S
C130 C120 1.476 . S
C130 N125 1.318 . S
C130 C129 1.396 1_565 S
H131 C126 0.929 . S
O132 Mn108 2.385 . S
O132 C110 1.234 . S
O133 Mn108 2.209 . S
O133 Mn109 2.215 . S
O133 C110 1.283 . S
O134 Mn108 2.094 . S
O134 C112 1.240 . S
O135 Mn109 2.117 . S
O135 C112 1.264 . S
C136 C129 1.403 . S
C136 C137 1.399 . S
C136 H142 0.929 . S
C137 C117 1.449 1_545 S
C137 C136 1.399 . S
C137 H143 0.930 . S
H138 C118 0.931 . S
H139 C119 0.930 . S
H140 C127 0.931 . S
H141 C128 0.929 . S
H142 C136 0.929 . S
H143 C137 0.930 . S
Mn144 O149 2.095 . S
Mn144 O159 2.162 . S
Mn144 O160 2.297 . S
Mn144 O168 2.385 . S
Mn144 O169 2.209 . S
Mn144 O170 2.094 . S
Mn145 O150 2.121 . S
Mn145 N152 2.257 . S
Mn145 N161 2.282 . S
Mn145 O169 2.215 . S
Mn145 O171 2.117 . S
C146 O168 1.234 . S
C146 O169 1.283 . S
C147 O159 1.281 . S
C147 O160 1.236 . S
C148 O170 1.240 . S
C148 O171 1.264 . S
O149 Mn144 2.095 . S
O149 C158 1.250 . S
O150 Mn145 2.121 . S
O150 C158 1.258 . S
C151 N152 1.326 . S
C151 C155 1.460 . S
C151 H157 0.929 . S
N152 Mn145 2.257 . S
N152 C151 1.326 . S
N152 C156 1.362 . S
C153 C154 1.258 . S
C153 C156 1.431 . S
C153 C173 1.449 1_554 S
C154 C153 1.258 . S
C154 C155 1.477 . S
C154 H174 0.931 . S
C155 C151 1.460 . S
C155 C154 1.477 . S
C155 H175 0.930 . S
C156 N152 1.362 . S
C156 C153 1.431 . S
C156 C166 1.476 . S
H157 C151 0.929 . S
C158 O149 1.250 . S
C158 O150 1.258 . S
O159 Mn144 2.162 . S
O159 C147 1.281 . S
O160 Mn144 2.297 . S
O160 C147 1.236 . S
N161 Mn145 2.282 . S
N161 C162 1.328 1_554 S
N161 C166 1.318 . S
C162 N161 1.328 1_556 S
C162 C163 1.457 . S
C162 H167 0.929 . S
C163 C162 1.457 . S
C163 C164 1.291 . S
C163 H176 0.931 . S
C164 C163 1.291 . S
C164 C165 1.373 . S
C164 H177 0.929 . S
C165 C164 1.373 . S
C165 C166 1.396 1_556 S
C165 C172 1.403 . S
C166 C156 1.476 . S
C166 N161 1.318 . S
C166 C165 1.396 1_554 S
H167 C162 0.929 . S
O168 Mn144 2.385 . S
O168 C146 1.234 . S
O169 Mn144 2.209 . S
O169 Mn145 2.215 . S
O169 C146 1.283 . S
O170 Mn144 2.094 . S
O170 C148 1.240 . S
O171 Mn145 2.117 . S
O171 C148 1.264 . S
C172 C165 1.403 . S
C172 C173 1.399 . S
C172 H178 0.929 . S
C173 C153 1.449 1_556 S
C173 C172 1.399 . S
C173 H179 0.930 . S
H174 C154 0.931 . S
H175 C155 0.930 . S
H176 C163 0.931 . S
H177 C164 0.929 . S
H178 C172 0.929 . S
H179 C173 0.930 . S
Mn180 O185 2.095 . S
Mn180 O195 2.162 . S
Mn180 O196 2.297 . S
Mn180 O204 2.385 . S
Mn180 O205 2.209 . S
Mn180 O206 2.094 . S
Mn181 O186 2.121 . S
Mn181 N188 2.257 . S
Mn181 N197 2.282 . S
Mn181 O205 2.215 . S
Mn181 O207 2.117 . S
C182 O204 1.234 . S
C182 O205 1.283 . S
C183 O195 1.281 . S
C183 O196 1.236 . S
C184 O206 1.240 . S
C184 O207 1.264 . S
O185 Mn180 2.095 . S
O185 C194 1.250 . S
O186 Mn181 2.121 . S
O186 C194 1.258 . S
C187 N188 1.326 . S
C187 C191 1.460 . S
C187 H193 0.929 . S
N188 Mn181 2.257 . S
N188 C187 1.326 . S
N188 C192 1.362 . S
C189 C190 1.258 . S
C189 C192 1.431 . S
C189 C209 1.449 . S
C190 C189 1.258 . S
C190 C191 1.477 . S
C190 H210 0.931 . S
C191 C187 1.460 . S
C191 C190 1.477 . S
C191 H211 0.930 . S
C192 N188 1.362 . S
C192 C189 1.431 . S
C192 C202 1.476 . S
H193 C187 0.929 . S
C194 O185 1.250 . S
C194 O186 1.258 . S
O195 Mn180 2.162 . S
O195 C183 1.281 . S
O196 Mn180 2.297 . S
O196 C183 1.236 . S
N197 Mn181 2.282 . S
N197 C198 1.328 . S
N197 C202 1.318 . S
C198 N197 1.328 . S
C198 C199 1.457 . S
C198 H203 0.929 . S
C199 C198 1.457 . S
C199 C200 1.291 . S
C199 H212 0.931 . S
C200 C199 1.291 . S
C200 C201 1.373 . S
C200 H213 0.929 . S
C201 C200 1.373 . S
C201 C202 1.396 . S
C201 C208 1.403 . S
C202 C192 1.476 . S
C202 N197 1.318 . S
C202 C201 1.396 . S
H203 C198 0.929 . S
O204 Mn180 2.385 . S
O204 C182 1.234 . S
O205 Mn180 2.209 . S
O205 Mn181 2.215 . S
O205 C182 1.283 . S
O206 Mn180 2.094 . S
O206 C184 1.240 . S
O207 Mn181 2.117 . S
O207 C184 1.264 . S
C208 C201 1.403 . S
C208 C209 1.399 . S
C208 H214 0.929 . S
C209 C189 1.449 . S
C209 C208 1.399 . S
C209 H215 0.930 . S
H210 C190 0.931 . S
H211 C191 0.930 . S
H212 C199 0.931 . S
H213 C200 0.929 . S
H214 C208 0.929 . S
H215 C209 0.930 . S
Mn216 O221 2.095 . S
Mn216 O231 2.162 . S
Mn216 O232 2.297 . S
Mn216 O240 2.385 . S
Mn216 O241 2.209 . S
Mn216 O242 2.094 . S
Mn217 O222 2.121 . S
Mn217 N224 2.257 1_556 S
Mn217 N233 2.282 . S
Mn217 O241 2.215 . S
Mn217 O243 2.117 . S
C218 O240 1.234 . S
C218 O241 1.283 . S
C219 O231 1.281 . S
C219 O232 1.236 . S
C220 O242 1.240 . S
C220 O243 1.264 . S
O221 Mn216 2.095 . S
O221 C230 1.250 . S
O222 Mn217 2.121 . S
O222 C230 1.258 . S
C223 N224 1.326 . S
C223 C227 1.460 . S
C223 H229 0.929 . S
N224 Mn217 2.257 1_554 S
N224 C223 1.326 . S
N224 C228 1.362 . S
C225 C226 1.258 . S
C225 C228 1.431 . S
C225 C245 1.449 1_565 S
C226 C225 1.258 . S
C226 C227 1.477 . S
C226 H246 0.931 . S
C227 C223 1.460 . S
C227 C226 1.477 . S
C227 H247 0.930 . S
C228 N224 1.362 . S
C228 C225 1.431 . S
C228 C238 1.476 1_554 S
H229 C223 0.929 . S
C230 O221 1.250 . S
C230 O222 1.258 . S
O231 Mn216 2.162 . S
O231 C219 1.281 . S
O232 Mn216 2.297 . S
O232 C219 1.236 . S
N233 Mn217 2.282 . S
N233 C234 1.328 1_565 S
N233 C238 1.318 . S
C234 N233 1.328 1_545 S
C234 C235 1.457 . S
C234 H239 0.929 . S
C235 C234 1.457 . S
C235 C236 1.291 . S
C235 H248 0.931 . S
C236 C235 1.291 . S
C236 C237 1.373 . S
C236 H249 0.929 . S
C237 C236 1.373 . S
C237 C238 1.396 1_545 S
C237 C244 1.403 1_556 S
C238 C228 1.476 1_556 S
C238 N233 1.318 . S
C238 C237 1.396 1_565 S
H239 C234 0.929 . S
O240 Mn216 2.385 . S
O240 C218 1.234 . S
O241 Mn216 2.209 . S
O241 Mn217 2.215 . S
O241 C218 1.283 . S
O242 Mn216 2.094 . S
O242 C220 1.240 . S
O243 Mn217 2.117 . S
O243 C220 1.264 . S
C244 C237 1.403 1_554 S
C244 C245 1.399 . S
C244 H250 0.929 . S
C245 C225 1.449 1_545 S
C245 C244 1.399 . S
C245 H251 0.930 . S
H246 C226 0.931 . S
H247 C227 0.930 . S
H248 C235 0.931 . S
H249 C236 0.929 . S
H250 C244 0.929 . S
H251 C245 0.930 . S
Mn252 O257 2.095 . S
Mn252 O267 2.162 . S
Mn252 O268 2.297 . S
Mn252 O276 2.385 . S
Mn252 O277 2.209 . S
Mn252 O278 2.094 . S
Mn253 O258 2.121 . S
Mn253 N260 2.257 . S
Mn253 N269 2.282 . S
Mn253 O277 2.215 . S
Mn253 O279 2.117 . S
C254 O276 1.234 . S
C254 O277 1.283 . S
C255 O267 1.281 . S
C255 O268 1.236 . S
C256 O278 1.240 . S
C256 O279 1.264 . S
O257 Mn252 2.095 . S
O257 C266 1.250 . S
O258 Mn253 2.121 . S
O258 C266 1.258 . S
C259 N260 1.326 . S
C259 C263 1.460 . S
C259 H265 0.929 . S
N260 Mn253 2.257 . S
N260 C259 1.326 . S
N260 C264 1.362 . S
C261 C262 1.258 . S
C261 C264 1.431 . S
C261 C281 1.449 . S
C262 C261 1.258 . S
C262 C263 1.477 . S
C262 H282 0.931 . S
C263 C259 1.460 . S
C263 C262 1.477 . S
C263 H283 0.930 . S
C264 N260 1.362 . S
C264 C261 1.431 . S
C264 C274 1.476 . S
H265 C259 0.929 . S
C266 O257 1.250 . S
C266 O258 1.258 . S
O267 Mn252 2.162 . S
O267 C255 1.281 . S
O268 Mn252 2.297 . S
O268 C255 1.236 . S
N269 Mn253 2.282 . S
N269 C270 1.328 . S
N269 C274 1.318 . S
C270 N269 1.328 . S
C270 C271 1.457 . S
C270 H275 0.929 . S
C271 C270 1.457 . S
C271 C272 1.291 . S
C271 H284 0.931 . S
C272 C271 1.291 . S
C272 C273 1.373 . S
C272 H285 0.929 . S
C273 C272 1.373 . S
C273 C274 1.396 . S
C273 C280 1.403 . S
C274 C264 1.476 . S
C274 N269 1.318 . S
C274 C273 1.396 . S
H275 C270 0.929 . S
O276 Mn252 2.385 . S
O276 C254 1.234 . S
O277 Mn252 2.209 . S
O277 Mn253 2.215 . S
O277 C254 1.283 . S
O278 Mn252 2.094 . S
O278 C256 1.240 . S
O279 Mn253 2.117 . S
O279 C256 1.264 . S
C280 C273 1.403 . S
C280 C281 1.399 . S
C280 H286 0.929 . S
C281 C261 1.449 . S
C281 C280 1.399 . S
C281 H287 0.930 . S
H282 C262 0.931 . S
H283 C263 0.930 . S
H284 C271 0.931 . S
H285 C272 0.929 . S
H286 C280 0.929 . S
H287 C281 0.930 . S
C288 C289 1.391 . S
C288 C290 1.394 . S
C288 H304 0.931 . S
C289 C288 1.391 . S
C289 C293 1.376 . S
C290 C288 1.394 . S
C290 C291 1.369 . S
C290 C294 1.531 . S
C291 C290 1.369 . S
C291 C292 1.410 . S
C291 C299 1.503 . S
C292 C291 1.410 . S
C292 C293 1.392 . S
C292 C295 1.511 . S
C293 C289 1.376 . S
C293 C292 1.392 . S
C293 H305 0.929 . S
C294 C290 1.531 . S
C294 H306 0.960 . S
C294 H307 0.962 . S
C294 H308 0.960 . S
C295 C292 1.511 . S
C295 H309 0.961 . S
C295 H310 0.961 . S
C295 H311 0.961 . S
C296 C297 1.370 . S
C296 C298 1.363 . S
C296 H312 0.931 . S
C297 C296 1.370 . S
C297 C301 1.408 . S
C298 C296 1.363 . S
C298 C299 1.370 . S
C298 C302 1.524 . S
C299 C291 1.503 . S
C299 C298 1.370 . S
C299 C300 1.403 . S
C300 C299 1.403 . S
C300 C301 1.404 . S
C300 C303 1.539 . S
C301 C297 1.408 . S
C301 C300 1.404 . S
C301 H313 0.930 . S
C302 C298 1.524 . S
C302 H314 0.956 . S
C302 H315 0.961 . S
C302 H316 0.961 . S
C303 C300 1.539 . S
C303 H317 0.958 . S
C303 H318 0.961 . S
C303 H319 0.960 . S
H304 C288 0.931 . S
H305 C293 0.929 . S
H306 C294 0.960 . S
H307 C294 0.962 . S
H308 C294 0.960 . S
H309 C295 0.961 . S
H310 C295 0.961 . S
H311 C295 0.961 . S
H312 C296 0.931 . S
H313 C301 0.930 . S
H314 C302 0.956 . S
H315 C302 0.961 . S
H316 C302 0.961 . S
H317 C303 0.958 . S
H318 C303 0.961 . S
H319 C303 0.960 . S
C320 C321 1.391 . S
C320 C322 1.394 . S
C320 H336 0.931 . S
C321 C320 1.391 . S
C321 C325 1.376 . S
C322 C320 1.394 . S
C322 C323 1.369 . S
C322 C326 1.531 . S
C323 C322 1.369 . S
C323 C324 1.410 . S
C323 C331 1.503 . S
C324 C323 1.410 . S
C324 C325 1.392 . S
C324 C327 1.511 . S
C325 C321 1.376 . S
C325 C324 1.392 . S
C325 H337 0.929 . S
C326 C322 1.531 . S
C326 H338 0.960 . S
C326 H339 0.962 . S
C326 H340 0.960 . S
C327 C324 1.511 . S
C327 H341 0.961 . S
C327 H342 0.961 . S
C327 H343 0.961 . S
C328 C329 1.370 . S
C328 C330 1.363 . S
C328 H344 0.931 . S
C329 C328 1.370 . S
C329 C333 1.408 . S
C330 C328 1.363 . S
C330 C331 1.370 . S
C330 C334 1.524 . S
C331 C323 1.503 . S
C331 C330 1.370 . S
C331 C332 1.403 . S
C332 C331 1.403 . S
C332 C333 1.404 . S
C332 C335 1.539 . S
C333 C329 1.408 . S
C333 C332 1.404 . S
C333 H345 0.930 . S
C334 C330 1.524 . S
C334 H346 0.956 . S
C334 H347 0.961 . S
C334 H348 0.961 . S
C335 C332 1.539 . S
C335 H349 0.958 . S
C335 H350 0.961 . S
C335 H351 0.960 . S
H336 C320 0.931 . S
H337 C325 0.929 . S
H338 C326 0.960 . S
H339 C326 0.962 . S
H340 C326 0.960 . S
H341 C327 0.961 . S
H342 C327 0.961 . S
H343 C327 0.961 . S
H344 C328 0.931 . S
H345 C333 0.930 . S
H346 C334 0.956 . S
H347 C334 0.961 . S
H348 C334 0.961 . S
H349 C335 0.958 . S
H350 C335 0.961 . S
H351 C335 0.960 . S
C352 C353 1.391 . S
C352 C354 1.394 . S
C352 H368 0.931 . S
C353 C352 1.391 . S
C353 C357 1.376 . S
C354 C352 1.394 . S
C354 C355 1.359 1_554 S
C354 C358 1.531 . S
C355 C354 1.359 1_556 S
C355 C356 1.412 . S
C355 C363 1.496 1_545 S
C356 C355 1.412 . S
C356 C357 1.392 1_556 S
C356 C359 1.511 1_545 S
C357 C353 1.376 . S
C357 C356 1.392 1_554 S
C357 H369 0.929 . S
C358 C354 1.531 . S
C358 H370 0.960 . S
C358 H371 0.962 . S
C358 H372 0.960 . S
C359 C356 1.511 1_565 S
C359 H373 0.961 . S
C359 H374 0.961 . S
C359 H375 0.961 1_565 S
C360 C361 1.370 . S
C360 C362 1.363 . S
C360 H376 0.931 . S
C361 C360 1.370 . S
C361 C365 1.408 . S
C362 C360 1.363 . S
C362 C363 1.393 . S
C362 C366 1.524 1_556 S
C363 C355 1.496 1_565 S
C363 C362 1.393 . S
C363 C364 1.395 1_565 S
C364 C363 1.395 1_545 S
C364 C365 1.404 1_545 S
C364 C367 1.539 . S
C365 C361 1.408 . S
C365 C364 1.404 1_565 S
C365 H377 0.930 . S
C366 C362 1.524 1_554 S
C366 H378 0.956 . S
C366 H379 0.961 . S
C366 H380 0.961 . S
C367 C364 1.539 . S
C367 H381 0.958 . S
C367 H382 0.961 . S
C367 H383 0.960 . S
H368 C352 0.931 . S
H369 C357 0.929 . S
H370 C358 0.960 . S
H371 C358 0.962 . S
H372 C358 0.960 . S
H373 C359 0.961 . S
H374 C359 0.961 . S
H375 C359 0.961 1_545 S
H376 C360 0.931 . S
H377 C365 0.930 . S
H378 C366 0.956 . S
H379 C366 0.961 . S
H380 C366 0.961 . S
H381 C367 0.958 . S
H382 C367 0.961 . S
H383 C367 0.960 . S
C384 C385 1.391 . S
C384 C386 1.394 1_655 S
C384 H400 0.931 . S
C385 C384 1.391 . S
C385 C389 1.376 . S
C386 C384 1.394 1_455 S
C386 C387 1.369 1_455 S
C386 C390 1.531 . S
C387 C386 1.369 1_655 S
C387 C388 1.410 . S
C387 C395 1.503 1_655 S
C388 C387 1.410 . S
C388 C389 1.392 . S
C388 C391 1.511 . S
C389 C385 1.376 . S
C389 C388 1.392 . S
C389 H401 0.929 . S
C390 C386 1.531 . S
C390 H402 0.960 . S
C390 H403 0.962 . S
C390 H404 0.960 . S
C391 C388 1.511 . S
C391 H405 0.961 . S
C391 H406 0.961 . S
C391 H407 0.961 . S
C392 C393 1.370 . S
C392 C394 1.363 . S
C392 H408 0.931 . S
C393 C392 1.370 . S
C393 C397 1.408 . S
C394 C392 1.363 . S
C394 C395 1.370 . S
C394 C398 1.524 . S
C395 C387 1.503 1_455 S
C395 C394 1.370 . S
C395 C396 1.403 . S
C396 C395 1.403 . S
C396 C397 1.404 . S
C396 C399 1.539 . S
C397 C393 1.408 . S
C397 C396 1.404 . S
C397 H409 0.930 . S
C398 C394 1.524 . S
C398 H410 0.956 . S
C398 H411 0.961 1_455 S
C398 H412 0.961 . S
C399 C396 1.539 . S
C399 H413 0.958 . S
C399 H414 0.961 . S
C399 H415 0.960 1_455 S
H400 C384 0.931 . S
H401 C389 0.929 . S
H402 C390 0.960 . S
H403 C390 0.962 . S
H404 C390 0.960 . S
H405 C391 0.961 . S
H406 C391 0.961 . S
H407 C391 0.961 . S
H408 C392 0.931 . S
H409 C397 0.930 . S
H410 C398 0.956 . S
H411 C398 0.961 1_655 S
H412 C398 0.961 . S
H413 C399 0.958 . S
H414 C399 0.961 . S
H415 C399 0.960 1_655 S
C416 C417 1.391 . S
C416 C418 1.394 . S
C416 H432 0.931 . S
C417 C416 1.391 . S
C417 C421 1.376 . S
C418 C416 1.394 . S
C418 C419 1.369 . S
C418 C422 1.531 . S
C419 C418 1.369 . S
C419 C420 1.410 . S
C419 C427 1.503 1_565 S
C420 C419 1.410 . S
C420 C421 1.392 . S
C420 C423 1.511 . S
C421 C417 1.376 . S
C421 C420 1.392 . S
C421 H433 0.929 . S
C422 C418 1.531 . S
C422 H434 0.960 . S
C422 H435 0.962 1_565 S
C422 H436 0.960 . S
C423 C420 1.511 . S
C423 H437 0.961 . S
C423 H438 0.961 1_565 S
C423 H439 0.961 . S
C424 C425 1.370 . S
C424 C426 1.363 . S
C424 H440 0.931 . S
C425 C424 1.370 . S
C425 C429 1.408 . S
C426 C424 1.363 . S
C426 C427 1.370 . S
C426 C430 1.524 . S
C427 C419 1.503 1_545 S
C427 C426 1.370 . S
C427 C428 1.407 . S
C428 C427 1.407 . S
C428 C429 1.412 . S
C428 C431 1.526 1_545 S
C429 C425 1.408 . S
C429 C428 1.412 . S
C429 H441 0.930 . S
C430 C426 1.524 . S
C430 H442 0.956 . S
C430 H443 0.961 . S
C430 H444 0.961 . S
C431 C428 1.526 1_565 S
C431 H445 0.958 . S
C431 H446 0.961 . S
C431 H447 0.960 . S
H432 C416 0.931 . S
H433 C421 0.929 . S
H434 C422 0.960 . S
H435 C422 0.962 1_545 S
H436 C422 0.960 . S
H437 C423 0.961 . S
H438 C423 0.961 1_545 S
H439 C423 0.961 . S
H440 C424 0.931 . S
H441 C429 0.930 . S
H442 C430 0.956 . S
H443 C430 0.961 . S
H444 C430 0.961 . S
H445 C431 0.958 . S
H446 C431 0.961 . S
H447 C431 0.960 . S
C448 C449 1.391 . S
C448 C450 1.394 . S
C448 H464 0.931 . S
C449 C448 1.391 . S
C449 C453 1.376 . S
C450 C448 1.394 . S
C450 C451 1.369 . S
C450 C454 1.531 1_556 S
C451 C450 1.369 . S
C451 C452 1.418 . S
C451 C459 1.503 1_656 S
C452 C451 1.418 . S
C452 C453 1.407 . S
C452 C455 1.489 1_655 S
C453 C449 1.376 . S
C453 C452 1.407 . S
C453 H465 0.929 . S
C454 C450 1.531 1_554 S
C454 H466 0.960 . S
C454 H467 0.962 . S
C454 H468 0.960 . S
C455 C452 1.489 1_455 S
C455 H469 0.961 . S
C455 H470 0.961 . S
C455 H471 0.961 . S
C456 C457 1.370 . S
C456 C458 1.363 . S
C456 H472 0.931 . S
C457 C456 1.370 . S
C457 C461 1.408 . S
C458 C456 1.363 . S
C458 C459 1.370 . S
C458 C462 1.524 1_454 S
C459 C451 1.503 1_454 S
C459 C458 1.370 . S
C459 C460 1.403 . S
C460 C459 1.403 . S
C460 C461 1.404 . S
C460 C463 1.539 . S
C461 C457 1.408 . S
C461 C460 1.404 . S
C461 H473 0.930 . S
C462 C458 1.524 1_656 S
C462 H474 0.956 . S
C462 H475 0.961 . S
C462 H476 0.961 1_655 S
C463 C460 1.539 . S
C463 H477 0.958 . S
C463 H478 0.961 . S
C463 H479 0.960 . S
H464 C448 0.931 . S
H465 C453 0.929 . S
H466 C454 0.960 . S
H467 C454 0.962 . S
H468 C454 0.960 . S
H469 C455 0.961 . S
H470 C455 0.961 . S
H471 C455 0.961 . S
H472 C456 0.931 . S
H473 C461 0.930 . S
H474 C462 0.956 . S
H475 C462 0.961 . S
H476 C462 0.961 1_455 S
H477 C463 0.958 . S
H478 C463 0.961 . S
H479 C463 0.960 . S
C480 C481 1.391 . S
C480 C482 1.394 . S
C480 H496 0.931 . S
C481 C480 1.391 . S
C481 C485 1.376 . S
C482 C480 1.394 . S
C482 C483 1.369 . S
C482 C486 1.531 . S
C483 C482 1.369 . S
C483 C484 1.410 . S
C483 C491 1.503 . S
C484 C483 1.410 . S
C484 C485 1.392 . S
C484 C487 1.511 . S
C485 C481 1.376 . S
C485 C484 1.392 . S
C485 H497 0.929 . S
C486 C482 1.531 . S
C486 H498 0.960 . S
C486 H499 0.962 . S
C486 H500 0.960 . S
C487 C484 1.511 . S
C487 H501 0.961 . S
C487 H502 0.961 . S
C487 H503 0.961 . S
C488 C489 1.370 . S
C488 C490 1.363 . S
C488 H504 0.931 . S
C489 C488 1.370 . S
C489 C493 1.408 . S
C490 C488 1.363 . S
C490 C491 1.370 . S
C490 C494 1.524 . S
C491 C483 1.503 . S
C491 C490 1.370 . S
C491 C492 1.403 . S
C492 C491 1.403 . S
C492 C493 1.404 . S
C492 C495 1.539 . S
C493 C489 1.408 . S
C493 C492 1.404 . S
C493 H505 0.930 . S
C494 C490 1.524 . S
C494 H506 0.956 . S
C494 H507 0.961 . S
C494 H508 0.961 . S
C495 C492 1.539 . S
C495 H509 0.958 . S
C495 H510 0.961 . S
C495 H511 0.960 . S
H496 C480 0.931 . S
H497 C485 0.929 . S
H498 C486 0.960 . S
H499 C486 0.962 . S
H500 C486 0.960 . S
H501 C487 0.961 . S
H502 C487 0.961 . S
H503 C487 0.961 . S
H504 C488 0.931 . S
H505 C493 0.930 . S
H506 C494 0.956 . S
H507 C494 0.961 . S
H508 C494 0.961 . S
H509 C495 0.958 . S
H510 C495 0.961 . S
H511 C495 0.960 . S
C512 C513 1.391 . S
C512 C514 1.394 . S
C512 H528 0.931 . S
C513 C512 1.391 . S
C513 C517 1.376 . S
C514 C512 1.394 . S
C514 C515 1.369 . S
C514 C518 1.531 . S
C515 C514 1.369 . S
C515 C516 1.410 . S
C515 C523 1.503 . S
C516 C515 1.410 . S
C516 C517 1.392 . S
C516 C519 1.511 . S
C517 C513 1.376 . S
C517 C516 1.392 . S
C517 H529 0.929 . S
C518 C514 1.531 . S
C518 H530 0.960 . S
C518 H531 0.962 . S
C518 H532 0.960 . S
C519 C516 1.511 . S
C519 H533 0.961 . S
C519 H534 0.961 . S
C519 H535 0.961 . S
C520 C521 1.370 . S
C520 C522 1.363 . S
C520 H536 0.931 . S
C521 C520 1.370 . S
C521 C525 1.408 . S
C522 C520 1.363 . S
C522 C523 1.370 . S
C522 C526 1.524 . S
C523 C515 1.503 . S
C523 C522 1.370 . S
C523 C524 1.403 . S
C524 C523 1.403 . S
C524 C525 1.404 . S
C524 C527 1.539 . S
C525 C521 1.408 . S
C525 C524 1.404 . S
C525 H537 0.930 . S
C526 C522 1.524 . S
C526 H538 0.956 . S
C526 H539 0.961 . S
C526 H540 0.961 . S
C527 C524 1.539 . S
C527 H541 0.958 . S
C527 H542 0.961 . S
C527 H543 0.960 . S
H528 C512 0.931 . S
H529 C517 0.929 . S
H530 C518 0.960 . S
H531 C518 0.962 . S
H532 C518 0.960 . S
H533 C519 0.961 . S
H534 C519 0.961 . S
H535 C519 0.961 . S
H536 C520 0.931 . S
H537 C525 0.930 . S
H538 C526 0.956 . S
H539 C526 0.961 . S
H540 C526 0.961 . S
H541 C527 0.958 . S
H542 C527 0.961 . S
H543 C527 0.960 . S
C544 C545 1.391 . S
C544 C546 1.394 . S
C544 H560 0.931 . S
C545 C544 1.391 . S
C545 C549 1.376 . S
C546 C544 1.394 . S
C546 C547 1.369 . S
C546 C550 1.531 . S
C547 C546 1.369 . S
C547 C548 1.410 . S
C547 C555 1.503 . S
C548 C547 1.410 . S
C548 C549 1.392 . S
C548 C551 1.511 . S
C549 C545 1.376 . S
C549 C548 1.392 . S
C549 H561 0.929 . S
C550 C546 1.531 . S
C550 H562 0.960 . S
C550 H563 0.962 . S
C550 H564 0.960 . S
C551 C548 1.511 . S
C551 H565 0.961 . S
C551 H566 0.961 . S
C551 H567 0.961 . S
C552 C553 1.370 . S
C552 C554 1.363 . S
C552 H568 0.931 . S
C553 C552 1.370 . S
C553 C557 1.408 . S
C554 C552 1.363 . S
C554 C555 1.370 . S
C554 C558 1.524 . S
C555 C547 1.503 . S
C555 C554 1.370 . S
C555 C556 1.403 . S
C556 C555 1.403 . S
C556 C557 1.404 . S
C556 C559 1.539 . S
C557 C553 1.408 . S
C557 C556 1.404 . S
C557 H569 0.930 . S
C558 C554 1.524 . S
C558 H570 0.956 . S
C558 H571 0.961 . S
C558 H572 0.961 . S
C559 C556 1.539 . S
C559 H573 0.958 . S
C559 H574 0.961 . S
C559 H575 0.960 . S
H560 C544 0.931 . S
H561 C549 0.929 . S
H562 C550 0.960 . S
H563 C550 0.962 . S
H564 C550 0.960 . S
H565 C551 0.961 . S
H566 C551 0.961 . S
H567 C551 0.961 . S
H568 C552 0.931 . S
H569 C557 0.930 . S
H570 C558 0.956 . S
H571 C558 0.961 . S
H572 C558 0.961 . S
H573 C559 0.958 . S
H574 C559 0.961 . S
H575 C559 0.960 . S
C576 C577 1.391 . S
C576 C578 1.394 . S
C576 H592 0.931 . S
C577 C576 1.391 . S
C577 C581 1.376 . S
C578 C576 1.394 . S
C578 C579 1.369 . S
C578 C582 1.531 1_556 S
C579 C578 1.369 . S
C579 C580 1.410 . S
C579 C587 1.503 1_556 S
C580 C579 1.410 . S
C580 C581 1.392 . S
C580 C583 1.511 . S
C581 C577 1.376 . S
C581 C580 1.392 . S
C581 H593 0.929 . S
C582 C578 1.531 1_554 S
C582 H594 0.960 . S
C582 H595 0.962 . S
C582 H596 0.960 . S
C583 C580 1.511 . S
C583 H597 0.961 . S
C583 H598 0.961 . S
C583 H599 0.961 . S
C584 C585 1.370 . S
C584 C586 1.363 1_554 S
C584 H600 0.931 . S
C585 C584 1.370 . S
C585 C589 1.408 . S
C586 C584 1.363 1_556 S
C586 C587 1.370 1_556 S
C586 C590 1.524 . S
C587 C579 1.503 1_554 S
C587 C586 1.370 1_554 S
C587 C588 1.403 . S
C588 C587 1.403 . S
C588 C589 1.404 . S
C588 C591 1.539 . S
C589 C585 1.408 . S
C589 C588 1.404 . S
C589 H601 0.930 . S
C590 C586 1.524 . S
C590 H602 0.956 . S
C590 H603 0.961 . S
C590 H604 0.961 . S
C591 C588 1.539 . S
C591 H605 0.958 . S
C591 H606 0.961 . S
C591 H607 0.960 . S
H592 C576 0.931 . S
H593 C581 0.929 . S
H594 C582 0.960 . S
H595 C582 0.962 . S
H596 C582 0.960 . S
H597 C583 0.961 . S
H598 C583 0.961 . S
H599 C583 0.961 . S
H600 C584 0.931 . S
H601 C589 0.930 . S
H602 C590 0.956 . S
H603 C590 0.961 . S
H604 C590 0.961 . S
H605 C591 0.958 . S
H606 C591 0.961 . S
H607 C591 0.960 . S
C608 C609 1.391 . S
C608 C610 1.394 . S
C608 H624 0.931 . S
C609 C608 1.391 . S
C609 C613 1.376 . S
C610 C608 1.394 . S
C610 C611 1.369 1_565 S
C610 C614 1.531 . S
C611 C610 1.369 1_545 S
C611 C612 1.410 . S
C611 C619 1.503 . S
C612 C611 1.410 . S
C612 C613 1.392 1_545 S
C612 C615 1.511 . S
C613 C609 1.376 . S
C613 C612 1.392 1_565 S
C613 H625 0.929 1_565 S
C614 C610 1.531 . S
C614 H626 0.960 . S
C614 H627 0.962 . S
C614 H628 0.960 . S
C615 C612 1.511 . S
C615 H629 0.961 . S
C615 H630 0.961 . S
C615 H631 0.961 . S
C616 C617 1.370 . S
C616 C618 1.363 . S
C616 H632 0.931 . S
C617 C616 1.370 . S
C617 C621 1.408 . S
C618 C616 1.363 . S
C618 C619 1.370 . S
C618 C622 1.524 1_545 S
C619 C611 1.503 . S
C619 C618 1.370 . S
C619 C620 1.403 . S
C620 C619 1.403 . S
C620 C621 1.404 . S
C620 C623 1.539 . S
C621 C617 1.408 . S
C621 C620 1.404 . S
C621 H633 0.930 . S
C622 C618 1.524 1_565 S
C622 H634 0.956 . S
C622 H635 0.961 . S
C622 H636 0.961 . S
C623 C620 1.539 . S
C623 H637 0.958 . S
C623 H638 0.961 . S
C623 H639 0.960 . S
H624 C608 0.931 . S
H625 C613 0.929 1_545 S
H626 C614 0.960 . S
H627 C614 0.962 . S
H628 C614 0.960 . S
H629 C615 0.961 . S
H630 C615 0.961 . S
H631 C615 0.961 . S
H632 C616 0.931 . S
H633 C621 0.930 . S
H634 C622 0.956 . S
H635 C622 0.961 . S
H636 C622 0.961 . S
H637 C623 0.958 . S
H638 C623 0.961 . S
H639 C623 0.960 . S
C640 C641 1.391 . S
C640 C642 1.394 1_565 S
C640 H656 0.931 . S
C641 C640 1.391 . S
C641 C645 1.376 . S
C642 C640 1.394 1_545 S
C642 C643 1.369 1_545 S
C642 C646 1.531 . S
C643 C642 1.369 1_565 S
C643 C644 1.410 . S
C643 C651 1.503 1_665 S
C644 C643 1.410 . S
C644 C645 1.392 . S
C644 C647 1.511 . S
C645 C641 1.376 . S
C645 C644 1.392 . S
C645 H657 0.929 . S
C646 C642 1.531 . S
C646 H658 0.960 . S
C646 H659 0.946 1_655 S
C646 H660 0.960 . S
C647 C644 1.511 . S
C647 H661 0.961 . S
C647 H662 0.961 1_655 S
C647 H663 0.961 . S
C648 C649 1.370 . S
C648 C650 1.363 . S
C648 H664 0.931 . S
C649 C648 1.370 . S
C649 C653 1.408 . S
C650 C648 1.363 . S
C650 C651 1.370 . S
C650 C654 1.524 1_545 S
C651 C643 1.503 1_445 S
C651 C650 1.370 . S
C651 C652 1.403 1_455 S
C652 C651 1.403 1_655 S
C652 C653 1.404 1_655 S
C652 C655 1.539 . S
C653 C649 1.408 . S
C653 C652 1.404 1_455 S
C653 H665 0.930 . S
C654 C650 1.524 1_565 S
C654 H666 0.956 . S
C654 H667 0.961 . S
C654 H668 0.961 . S
C655 C652 1.539 . S
C655 H669 0.958 . S
C655 H670 0.961 . S
C655 H671 0.960 . S
H656 C640 0.931 . S
H657 C645 0.929 . S
H658 C646 0.960 . S
H659 C646 0.946 1_455 S
H660 C646 0.960 . S
H661 C647 0.961 . S
H662 C647 0.961 1_455 S
H663 C647 0.961 . S
H664 C648 0.931 . S
H665 C653 0.930 . S
H666 C654 0.956 . S
H667 C654 0.961 . S
H668 C654 0.961 . S
H669 C655 0.958 . S
H670 C655 0.961 . S
H671 C655 0.960 . S
C672 C673 1.391 . S
C672 C674 1.394 . S
C672 H688 0.931 . S
C673 C672 1.391 . S
C673 C677 1.376 . S
C674 C672 1.394 . S
C674 C675 1.369 . S
C674 C678 1.531 . S
C675 C674 1.369 . S
C675 C676 1.409 . S
C675 C683 1.503 1_655 S
C676 C675 1.409 . S
C676 C677 1.391 . S
C676 C679 1.512 1_655 S
C677 C673 1.376 . S
C677 C676 1.391 . S
C677 H689 0.929 . S
C678 C674 1.531 . S
C678 H690 0.960 . S
C678 H691 0.962 . S
C678 H692 0.960 . S
C679 C676 1.512 1_455 S
C679 H693 0.961 . S
C679 H694 0.961 . S
C679 H695 0.961 . S
C680 C681 1.370 . S
C680 C682 1.363 . S
C680 H696 0.931 . S
C681 C680 1.370 . S
C681 C685 1.408 . S
C682 C680 1.363 . S
C682 C683 1.370 . S
C682 C686 1.524 . S
C683 C675 1.503 1_455 S
C683 C682 1.370 . S
C683 C684 1.403 . S
C684 C683 1.403 . S
C684 C685 1.404 . S
C684 C687 1.539 . S
C685 C681 1.408 . S
C685 C684 1.404 . S
C685 H697 0.930 . S
C686 C682 1.524 . S
C686 H698 0.956 1_455 S
C686 H699 0.961 . S
C686 H700 0.961 . S
C687 C684 1.539 . S
C687 H701 0.958 1_455 S
C687 H702 0.961 . S
C687 H703 0.959 . S
H688 C672 0.931 . S
H689 C677 0.929 . S
H690 C678 0.960 . S
H691 C678 0.962 . S
H692 C678 0.960 . S
H693 C679 0.961 . S
H694 C679 0.961 . S
H695 C679 0.961 . S
H696 C680 0.931 . S
H697 C685 0.930 . S
H698 C686 0.956 1_655 S
H699 C686 0.961 . S
H700 C686 0.961 . S
H701 C687 0.958 1_655 S
H702 C687 0.961 . S
H703 C687 0.959 . S
C704 C705 1.391 . S
C704 C706 1.394 . S
C704 H720 0.931 . S
C705 C704 1.391 . S
C705 C709 1.376 . S
C706 C704 1.394 . S
C706 C707 1.369 . S
C706 C710 1.531 . S
C707 C706 1.369 . S
C707 C708 1.410 . S
C707 C715 1.503 . S
C708 C707 1.410 . S
C708 C709 1.392 . S
C708 C711 1.511 . S
C709 C705 1.376 . S
C709 C708 1.392 . S
C709 H721 0.929 . S
C710 C706 1.531 . S
C710 H722 0.960 . S
C710 H723 0.962 . S
C710 H724 0.960 . S
C711 C708 1.511 . S
C711 H725 0.961 . S
C711 H726 0.961 . S
C711 H727 0.961 . S
C712 C713 1.370 . S
C712 C714 1.363 . S
C712 H728 0.931 . S
C713 C712 1.370 . S
C713 C717 1.408 . S
C714 C712 1.363 . S
C714 C715 1.370 . S
C714 C718 1.524 . S
C715 C707 1.503 . S
C715 C714 1.370 . S
C715 C716 1.403 . S
C716 C715 1.403 . S
C716 C717 1.404 . S
C716 C719 1.539 . S
C717 C713 1.408 . S
C717 C716 1.404 . S
C717 H729 0.930 . S
C718 C714 1.524 . S
C718 H730 0.956 . S
C718 H731 0.961 . S
C718 H732 0.961 . S
C719 C716 1.539 . S
C719 H733 0.958 . S
C719 H734 0.961 . S
C719 H735 0.960 . S
H720 C704 0.931 . S
H721 C709 0.929 . S
H722 C710 0.960 . S
H723 C710 0.962 . S
H724 C710 0.960 . S
H725 C711 0.961 . S
H726 C711 0.961 . S
H727 C711 0.961 . S
H728 C712 0.931 . S
H729 C717 0.930 . S
H730 C718 0.956 . S
H731 C718 0.961 . S
H732 C718 0.961 . S
H733 C719 0.958 . S
H734 C719 0.961 . S
H735 C719 0.960 . S
C736 C737 1.391 . S
C736 C738 1.394 1_554 S
C736 H752 0.931 1_554 S
C737 C736 1.391 . S
C737 C741 1.376 . S
C738 C736 1.394 1_556 S
C738 C739 1.378 . S
C738 C742 1.531 . S
C739 C738 1.378 . S
C739 C740 1.386 1_556 S
C739 C747 1.517 . S
C740 C739 1.386 1_554 S
C740 C741 1.392 . S
C740 C743 1.511 . S
C741 C737 1.376 . S
C741 C740 1.392 . S
C741 H753 0.929 . S
C742 C738 1.531 . S
C742 H754 0.960 . S
C742 H755 0.962 . S
C742 H756 0.960 . S
C743 C740 1.511 . S
C743 H757 0.961 . S
C743 H758 0.961 . S
C743 H759 0.961 . S
C744 C745 1.370 . S
C744 C746 1.363 . S
C744 H760 0.931 . S
C745 C744 1.370 . S
C745 C749 1.408 . S
C746 C744 1.363 . S
C746 C747 1.370 . S
C746 C750 1.524 . S
C747 C739 1.517 . S
C747 C746 1.370 . S
C747 C748 1.403 . S
C748 C747 1.403 . S
C748 C749 1.404 . S
C748 C751 1.539 . S
C749 C745 1.408 . S
C749 C748 1.404 . S
C749 H761 0.930 . S
C750 C746 1.524 . S
C750 H762 0.956 . S
C750 H763 0.961 1_556 S
C750 H764 0.961 . S
C751 C748 1.539 . S
C751 H765 0.958 . S
C751 H766 0.961 . S
C751 H767 0.960 . S
H752 C736 0.931 1_556 S
H753 C741 0.929 . S
H754 C742 0.960 . S
H755 C742 0.962 . S
H756 C742 0.960 . S
H757 C743 0.961 . S
H758 C743 0.961 . S
H759 C743 0.961 . S
H760 C744 0.931 . S
H761 C749 0.930 . S
H762 C750 0.956 . S
H763 C750 0.961 1_554 S
H764 C750 0.961 . S
H765 C751 0.958 . S
H766 C751 0.961 . S
H767 C751 0.960 . S
C768 C769 1.391 . S
C768 C770 1.394 . S
C768 H784 0.931 . S
C769 C768 1.391 . S
C769 C773 1.376 . S
C770 C768 1.394 . S
C770 C771 1.369 . S
C770 C774 1.531 . S
C771 C770 1.369 . S
C771 C772 1.410 . S
C771 C779 1.503 . S
C772 C771 1.410 . S
C772 C773 1.392 . S
C772 C775 1.511 . S
C773 C769 1.376 . S
C773 C772 1.392 . S
C773 H785 0.929 . S
C774 C770 1.531 . S
C774 H786 0.960 . S
C774 H787 0.962 . S
C774 H788 0.960 . S
C775 C772 1.511 . S
C775 H789 0.961 . S
C775 H790 0.961 . S
C775 H791 0.961 . S
C776 C777 1.370 . S
C776 C778 1.363 . S
C776 H792 0.931 . S
C777 C776 1.370 . S
C777 C781 1.408 . S
C778 C776 1.363 . S
C778 C779 1.370 . S
C778 C782 1.524 . S
C779 C771 1.503 . S
C779 C778 1.370 . S
C779 C780 1.403 . S
C780 C779 1.403 . S
C780 C781 1.404 . S
C780 C783 1.539 . S
C781 C777 1.408 . S
C781 C780 1.404 . S
C781 H793 0.930 . S
C782 C778 1.524 . S
C782 H794 0.956 . S
C782 H795 0.961 . S
C782 H796 0.961 . S
C783 C780 1.539 . S
C783 H797 0.958 . S
C783 H798 0.961 . S
C783 H799 0.960 . S
H784 C768 0.931 . S
H785 C773 0.929 . S
H786 C774 0.960 . S
H787 C774 0.962 . S
H788 C774 0.960 . S
H789 C775 0.961 . S
H790 C775 0.961 . S
H791 C775 0.961 . S
H792 C776 0.931 . S
H793 C781 0.930 . S
H794 C782 0.956 . S
H795 C782 0.961 . S
H796 C782 0.961 . S
H797 C783 0.958 . S
H798 C783 0.961 . S
H799 C783 0.960 . S
C289 C194 1.433 . S
C297 C4 1.525 . S
C321 C266 1.447 . S
C329 C40 1.524 . S
C353 C74 1.503 . S
C361 C218 1.510 . S
C385 C111 1.534 . S
C393 C147 1.533 . S
C417 C220 1.523 . S
C425 C14 1.449 . S
C449 C38 1.513 . S
C457 C146 1.516 . S
C481 C183 1.518 . S
C489 C75 1.529 . S
C513 C122 1.474 . S
C521 C256 1.523 . S
C545 C158 1.475 . S
C553 C184 1.523 . S
C577 C50 1.418 . S
C585 C76 1.526 . S
C609 C112 1.516 . S
C617 C86 1.469 . S
C641 C110 1.515 . S
C649 C2 1.511 . S
C673 C39 1.515 . S
C681 C3 1.525 . S
C705 C255 1.529 . S
C713 C219 1.533 . S
C737 C148 1.522 . S
C745 C230 1.443 . S
C769 C182 1.502 . S
C777 C254 1.514 . S
