# Generated by pormake.
# Topology ume, (4)-cn, num edge types: 1
# Building blocks:
#     Node 0, Type 0, BuildingBlock: QUQFOY_clean_sbu_1, # of connection points: 4
#     Node 1, Type 0, BuildingBlock: QUQFOY_clean_sbu_1, # of connection points: 4
#     Node 2, Type 0, BuildingBlock: QUQFOY_clean_sbu_1, # of connection points: 4
#     Node 3, Type 0, BuildingBlock: QUQFOY_clean_sbu_1, # of connection points: 4
#     Node 4, Type 0, BuildingBlock: QUQFOY_clean_sbu_1, # of connection points: 4
#     Node 5, Type 0, BuildingBlock: QUQFOY_clean_sbu_1, # of connection points: 4
#     Node 6, Type 0, BuildingBlock: QUQFOY_clean_sbu_1, # of connection points: 4
#     Node 7, Type 0, BuildingBlock: QUQFOY_clean_sbu_1, # of connection points: 4
#     Node 8, Type 0, BuildingBlock: QUQFOY_clean_sbu_1, # of connection points: 4
#     Node 9, Type 0, BuildingBlock: QUQFOY_clean_sbu_1, # of connection points: 4
#     Node 10, Type 0, BuildingBlock: QUQFOY_clean_sbu_1, # of connection points: 4
#     Node 11, Type 0, BuildingBlock: QUQFOY_clean_sbu_1, # of connection points: 4
#     Node 12, Type 0, BuildingBlock: QUQFOY_clean_sbu_1, # of connection points: 4
#     Node 13, Type 0, BuildingBlock: QUQFOY_clean_sbu_1, # of connection points: 4
#     Node 14, Type 0, BuildingBlock: QUQFOY_clean_sbu_1, # of connection points: 4
#     Node 15, Type 0, BuildingBlock: QUQFOY_clean_sbu_1, # of connection points: 4
#     Edge 16, Type (0, 0), BuildingBlock: XUDNAN_clean_linker_2, # of connection points: 2
#     Edge 17, Type (0, 0), BuildingBlock: XUDNAN_clean_linker_2, # of connection points: 2
#     Edge 18, Type (0, 0), BuildingBlock: XUDNAN_clean_linker_2, # of connection points: 2
#     Edge 19, Type (0, 0), BuildingBlock: XUDNAN_clean_linker_2, # of connection points: 2
#     Edge 20, Type (0, 0), BuildingBlock: XUDNAN_clean_linker_2, # of connection points: 2
#     Edge 21, Type (0, 0), BuildingBlock: XUDNAN_clean_linker_2, # of connection points: 2
#     Edge 22, Type (0, 0), BuildingBlock: XUDNAN_clean_linker_2, # of connection points: 2
#     Edge 23, Type (0, 0), BuildingBlock: XUDNAN_clean_linker_2, # of connection points: 2
#     Edge 24, Type (0, 0), BuildingBlock: XUDNAN_clean_linker_2, # of connection points: 2
#     Edge 25, Type (0, 0), BuildingBlock: XUDNAN_clean_linker_2, # of connection points: 2
#     Edge 26, Type (0, 0), BuildingBlock: XUDNAN_clean_linker_2, # of connection points: 2
#     Edge 27, Type (0, 0), BuildingBlock: XUDNAN_clean_linker_2, # of connection points: 2
#     Edge 28, Type (0, 0), BuildingBlock: XUDNAN_clean_linker_2, # of connection points: 2
#     Edge 29, Type (0, 0), BuildingBlock: XUDNAN_clean_linker_2, # of connection points: 2
#     Edge 30, Type (0, 0), BuildingBlock: XUDNAN_clean_linker_2, # of connection points: 2
#     Edge 31, Type (0, 0), BuildingBlock: XUDNAN_clean_linker_2, # of connection points: 2
#     Edge 32, Type (0, 0), BuildingBlock: XUDNAN_clean_linker_2, # of connection points: 2
#     Edge 33, Type (0, 0), BuildingBlock: XUDNAN_clean_linker_2, # of connection points: 2
#     Edge 34, Type (0, 0), BuildingBlock: XUDNAN_clean_linker_2, # of connection points: 2
#     Edge 35, Type (0, 0), BuildingBlock: XUDNAN_clean_linker_2, # of connection points: 2
#     Edge 36, Type (0, 0), BuildingBlock: XUDNAN_clean_linker_2, # of connection points: 2
#     Edge 37, Type (0, 0), BuildingBlock: XUDNAN_clean_linker_2, # of connection points: 2
#     Edge 38, Type (0, 0), BuildingBlock: XUDNAN_clean_linker_2, # of connection points: 2
#     Edge 39, Type (0, 0), BuildingBlock: XUDNAN_clean_linker_2, # of connection points: 2
#     Edge 40, Type (0, 0), BuildingBlock: XUDNAN_clean_linker_2, # of connection points: 2
#     Edge 41, Type (0, 0), BuildingBlock: XUDNAN_clean_linker_2, # of connection points: 2
#     Edge 42, Type (0, 0), BuildingBlock: XUDNAN_clean_linker_2, # of connection points: 2
#     Edge 43, Type (0, 0), BuildingBlock: XUDNAN_clean_linker_2, # of connection points: 2
#     Edge 44, Type (0, 0), BuildingBlock: XUDNAN_clean_linker_2, # of connection points: 2
#     Edge 45, Type (0, 0), BuildingBlock: XUDNAN_clean_linker_2, # of connection points: 2
#     Edge 46, Type (0, 0), BuildingBlock: XUDNAN_clean_linker_2, # of connection points: 2
#     Edge 47, Type (0, 0), BuildingBlock: XUDNAN_clean_linker_2, # of connection points: 2
# Relax obj value: 0.052
# Max RMSD: 0.121
# Mean RMSD: 0.121
data_MOF--net-ume--node1-QUQFOY_clean_sbu_1--edge1-XUDNAN_clean_linker_2
_symmetry_space_group_name_H-M    P1
_symmetry_Int_Tables_number       1
_symmetry_cell_setting            triclinic
loop_
_symmetry_equiv_pos_as_xyz
'x, y, z'
_cell_length_a     28.560788
_cell_length_b     28.552379
_cell_length_c     114.69266
_cell_angle_alpha  89.907549
_cell_angle_beta   89.970123
_cell_angle_gamma 90.059602
loop_
_atom_site_label
_atom_site_type_symbol
_atom_site_fract_x
_atom_site_fract_y
_atom_site_fract_z
_atom_type_partial_charge
O0 O 0.24888 0.0988 0.34024 0.0
Cd1 Cd 0.24415 0.07533 0.32321 0.0
Cd2 Cd 0.29036 0.15493 0.31943 0.0
O3 O 0.26958 0.17152 0.33625 0.0
O4 O 0.18892 0.03154 0.32231 0.0
O5 O 0.1907 0.10095 0.31376 0.0
C6 C 0.16755 0.06344 0.31636 0.0
C7 C 0.27992 0.20265 0.30307 0.0
C8 C 0.25733 0.14041 0.34361 0.0
C9 C 0.34396 0.06589 0.316 0.0
O10 O 0.34617 0.10961 0.31799 0.0
O11 O 0.30453 0.04491 0.31632 0.0
O12 O 0.30988 0.21327 0.31106 0.0
O13 O 0.25364 0.16642 0.30476 0.0
O14 O 0.92642 0.76598 0.58963 0.0
Cd15 Cd 0.9554 0.76717 0.57317 0.0
Cd16 Cd 0.86763 0.79101 0.568 0.0
O17 O 0.85178 0.76942 0.58487 0.0
O18 O 1.00837 0.72096 0.57386 0.0
O19 O 0.94603 0.71155 0.56261 0.0
C20 C 0.98494 0.69528 0.56666 0.0
C21 C 0.82558 0.7702 0.55129 0.0
C22 C 0.88352 0.76515 0.59259 0.0
C23 C 0.94319 0.86554 0.56573 0.0
O24 O 0.8999 0.85539 0.56645 0.0
O25 O 0.974 0.8337 0.56715 0.0
O26 O 0.80786 0.79761 0.55906 0.0
O27 O 0.86599 0.75186 0.55342 0.0
O28 O 0.26214 0.41299 0.84087 0.0
Cd29 Cd 0.26154 0.44439 0.82465 0.0
Cd30 Cd 0.23528 0.35585 0.81927 0.0
O31 O 0.25401 0.33842 0.83625 0.0
O32 O 0.30827 0.49716 0.82591 0.0
O33 O 0.31725 0.43694 0.814 0.0
C34 C 0.33379 0.475 0.81844 0.0
C35 C 0.26051 0.31864 0.80229 0.0
C36 C 0.26028 0.37013 0.84389 0.0
C37 C 0.16314 0.43422 0.8169 0.0
O38 O 0.1726 0.39073 0.81733 0.0
O39 O 0.19524 0.46446 0.81872 0.0
O40 O 0.22914 0.29967 0.80889 0.0
O41 O 0.27995 0.35691 0.80581 0.0
O42 O 0.61066 0.7651 0.09025 0.0
Cd43 Cd 0.57919 0.7638 0.07406 0.0
Cd44 Cd 0.66753 0.73762 0.06852 0.0
O45 O 0.68497 0.75602 0.0855 0.0
O46 O 0.52621 0.81001 0.07528 0.0
O47 O 0.58628 0.81925 0.06329 0.0
C48 C 0.54812 0.83551 0.06774 0.0
C49 C 0.70524 0.76308 0.05159 0.0
C50 C 0.65355 0.76292 0.09319 0.0
C51 C 0.58911 0.66552 0.06621 0.0
O52 O 0.63262 0.67499 0.06648 0.0
O53 O 0.55902 0.69748 0.06824 0.0
O54 O 0.7239 0.73155 0.0582 0.0
O55 O 0.66696 0.78255 0.05509 0.0
O56 O 0.24554 0.41413 0.93249 0.0
Cd57 Cd 0.24261 0.44719 0.94853 0.0
Cd58 Cd 0.29207 0.36886 0.95361 0.0
O59 O 0.27435 0.34495 0.93715 0.0
O60 O 0.19021 0.49373 0.94639 0.0
O61 O 0.18758 0.43673 0.95941 0.0
C62 C 0.16719 0.47154 0.95434 0.0
C63 C 0.27215 0.33398 0.9713 0.0
C64 C 0.25786 0.37297 0.92955 0.0
C65 C 0.34373 0.46061 0.95487 0.0
O66 O 0.34651 0.41622 0.95433 0.0
O67 O 0.30413 0.48088 0.95378 0.0
O68 O 0.30624 0.31784 0.96508 0.0
O69 O 0.24768 0.36803 0.96707 0.0
O70 O 0.61487 0.74711 0.18215 0.0
Cd71 Cd 0.58853 0.73948 0.19887 0.0
Cd72 Cd 0.66816 0.78718 0.20334 0.0
O73 O 0.68682 0.76985 0.1864 0.0
O74 O 0.54426 0.68405 0.19881 0.0
O75 O 0.61224 0.68403 0.20796 0.0
C76 C 0.57514 0.6615 0.20482 0.0
C77 C 0.70967 0.76951 0.2203 0.0
C78 C 0.65631 0.75744 0.17892 0.0
C79 C 0.57752 0.83867 0.2067 0.0
O80 O 0.62141 0.84157 0.20502 0.0
O81 O 0.55696 0.79906 0.206 0.0
O82 O 0.72276 0.80346 0.21358 0.0
O83 O 0.67498 0.74384 0.21694 0.0
O84 O 0.25458 0.09694 0.43257 0.0
Cd85 Cd 0.25576 0.0706 0.44933 0.0
Cd86 Cd 0.23348 0.15959 0.4541 0.0
O87 O 0.25349 0.17227 0.43694 0.0
O88 O 0.29662 0.01308 0.4495 0.0
O89 O 0.31688 0.07989 0.45781 0.0
C90 C 0.32758 0.03751 0.455 0.0
C91 C 0.26195 0.19538 0.47092 0.0
C92 C 0.25621 0.13966 0.42938 0.0
C93 C 0.15856 0.08692 0.45786 0.0
O94 O 0.16857 0.1299 0.45641 0.0
O95 O 0.19014 0.05579 0.4566 0.0
O96 O 0.23284 0.21696 0.46418 0.0
O97 O 0.27764 0.15521 0.46757 0.0
O98 O 0.92034 0.78075 0.68152 0.0
Cd99 Cd 0.94867 0.78355 0.69811 0.0
Cd100 Cd 0.86993 0.73573 0.7023 0.0
O101 O 0.84945 0.75528 0.68567 0.0
O102 O 0.99511 0.83625 0.69689 0.0
O103 O 0.93426 0.83805 0.70881 0.0
C104 C 0.97033 0.85887 0.7044 0.0
C105 C 0.82639 0.74813 0.71921 0.0
C106 C 0.87912 0.77012 0.67826 0.0
C107 C 0.96015 0.6827 0.70456 0.0
O108 O 0.91598 0.68029 0.70331 0.0
O109 O 0.98092 0.72222 0.70391 0.0
O110 O 0.81372 0.71742 0.71159 0.0
O111 O 0.86242 0.77394 0.71688 0.0
O112 O 0.74772 0.6132 0.83999 0.0
Cd113 Cd 0.74425 0.58083 0.82388 0.0
Cd114 Cd 0.79356 0.65942 0.81892 0.0
O115 O 0.77607 0.68274 0.83544 0.0
O116 O 0.69171 0.53433 0.82602 0.0
O117 O 0.68889 0.59199 0.81318 0.0
C118 C 0.66848 0.55705 0.81821 0.0
C119 C 0.77347 0.69468 0.80131 0.0
C120 C 0.75993 0.65432 0.843 0.0
C121 C 0.84524 0.56792 0.8174 0.0
O122 O 0.84799 0.61227 0.81809 0.0
O123 O 0.80564 0.54748 0.8184 0.0
O124 O 0.80759 0.71077 0.80753 0.0
O125 O 0.74906 0.66045 0.80551 0.0
O126 O 0.42057 0.24783 0.09074 0.0
Cd127 Cd 0.44738 0.24562 0.07401 0.0
Cd128 Cd 0.36826 0.29289 0.07036 0.0
O129 O 0.34898 0.27207 0.087 0.0
O130 O 0.49419 0.19332 0.07497 0.0
O131 O 0.43213 0.19088 0.06347 0.0
C132 C 0.46863 0.17031 0.06769 0.0
C133 C 0.32473 0.28042 0.05346 0.0
C134 C 0.37943 0.25748 0.09422 0.0
C135 C 0.45779 0.3467 0.06773 0.0
O136 O 0.41381 0.34881 0.06937 0.0
O137 O 0.47872 0.30725 0.06804 0.0
O138 O 0.31165 0.31061 0.06117 0.0
O139 O 0.36111 0.25509 0.05572 0.0
O140 O 0.76168 0.93209 0.33979 0.0
Cd141 Cd 0.76136 0.9568 0.32288 0.0
Cd142 Cd 0.74057 0.86858 0.31833 0.0
O143 O 0.76344 0.85701 0.33531 0.0
O144 O 0.80275 0.01366 0.32195 0.0
O145 O 0.82113 0.94557 0.31397 0.0
C146 C 0.83268 0.9882 0.31639 0.0
C147 C 0.76374 0.82699 0.30177 0.0
C148 C 0.76528 0.88945 0.34291 0.0
C149 C 0.66379 0.93916 0.31504 0.0
O150 O 0.67447 0.8964 0.31658 0.0
O151 O 0.69518 0.97072 0.31594 0.0
O152 O 0.73804 0.80778 0.30971 0.0
O153 O 0.7794 0.86872 0.30369 0.0
O154 O 0.1147 0.28179 0.59021 0.0
Cd155 Cd 0.08645 0.28502 0.57362 0.0
Cd156 Cd 0.16522 0.23727 0.56937 0.0
O157 O 0.1855 0.25626 0.58605 0.0
O158 O 0.0403 0.33783 0.57484 0.0
O159 O 0.10123 0.33968 0.56295 0.0
C160 C 0.06525 0.36054 0.56735 0.0
C161 C 0.21019 0.24899 0.55261 0.0
C162 C 0.15586 0.27097 0.59346 0.0
C163 C 0.07455 0.18448 0.56708 0.0
O164 O 0.11875 0.18208 0.56827 0.0
O165 O 0.05384 0.22395 0.5678 0.0
O166 O 0.22164 0.21802 0.56031 0.0
O167 O 0.17453 0.27542 0.55479 0.0
O168 O 0.74833 0.9235 0.43206 0.0
Cd169 Cd 0.74062 0.94845 0.44889 0.0
Cd170 Cd 0.78779 0.86816 0.45314 0.0
O171 O 0.7712 0.85133 0.43605 0.0
O172 O 0.68513 0.99248 0.44906 0.0
O173 O 0.68541 0.92366 0.45786 0.0
C174 C 0.66276 0.96094 0.45493 0.0
C175 C 0.76918 0.82545 0.46987 0.0
C176 C 0.75889 0.88238 0.42867 0.0
C177 C 0.83956 0.95841 0.45699 0.0
O178 O 0.84219 0.91459 0.4552 0.0
O179 O 0.80018 0.97927 0.45623 0.0
O180 O 0.80328 0.81263 0.46319 0.0
O181 O 0.7439 0.86048 0.46657 0.0
O182 O 0.10904 0.26505 0.68212 0.0
Cd183 Cd 0.08007 0.26582 0.69859 0.0
Cd184 Cd 0.16784 0.29033 0.70374 0.0
O185 O 0.18369 0.26931 0.68684 0.0
O186 O 0.02747 0.21914 0.69791 0.0
O187 O 0.08978 0.21025 0.70919 0.0
C188 C 0.05102 0.19363 0.70513 0.0
C189 C 0.21085 0.27027 0.72037 0.0
C190 C 0.15192 0.26475 0.67915 0.0
C191 C 0.09153 0.36408 0.70605 0.0
O192 O 0.13488 0.35425 0.70535 0.0
O193 O 0.06089 0.33208 0.70459 0.0
O194 O 0.22769 0.29823 0.71257 0.0
O195 O 0.17083 0.25091 0.71829 0.0
O196 O 0.76172 0.61147 0.93169 0.0
Cd197 Cd 0.76056 0.5827 0.94818 0.0
Cd198 Cd 0.73613 0.67057 0.95311 0.0
O199 O 0.7582 0.68627 0.93628 0.0
O200 O 0.80731 0.53017 0.94756 0.0
O201 O 0.81607 0.59269 0.95876 0.0
C202 C 0.83278 0.55394 0.95473 0.0
C203 C 0.75571 0.71353 0.96976 0.0
C204 C 0.76262 0.65429 0.92864 0.0
C205 C 0.66201 0.59437 0.95539 0.0
O206 O 0.672 0.63768 0.95456 0.0
O207 O 0.69404 0.56365 0.95415 0.0
O208 O 0.72815 0.73046 0.96191 0.0
O209 O 0.77491 0.67342 0.96775 0.0
O210 O 0.43295 0.25359 0.18269 0.0
Cd211 Cd 0.46143 0.25468 0.19923 0.0
Cd212 Cd 0.37338 0.23205 0.2047 0.0
O213 O 0.35827 0.2524 0.1877 0.0
O214 O 0.51885 0.29579 0.19896 0.0
O215 O 0.45317 0.31568 0.20787 0.0
C216 C 0.49517 0.32656 0.20471 0.0
C217 C 0.33838 0.25952 0.22174 0.0
C218 C 0.38986 0.25518 0.17988 0.0
C219 C 0.44656 0.15711 0.20773 0.0
O220 O 0.40343 0.16708 0.20667 0.0
O221 O 0.47746 0.18887 0.20627 0.0
O222 O 0.31673 0.23043 0.21502 0.0
O223 O 0.37827 0.27573 0.21828 0.0
H224 H 0.91569 0.94053 0.31705 0.0
H225 H 0.85657 0.07764 0.31031 0.0
H226 H 0.93632 0.10987 0.30749 0.0
H227 H 1.00822 0.98214 0.33436 0.0
H228 H 0.05032 0.93929 0.32957 0.0
H229 H 0.98883 0.92556 0.32933 0.0
H230 H 0.9944 0.9057 0.30734 0.0
H231 H 0.05604 0.91935 0.30752 0.0
H232 H 0.0178 0.94853 0.29734 0.0
H233 H 0.02271 0.12788 0.30631 0.0
H234 H 0.10848 0.13236 0.30875 0.0
H235 H 0.11171 0.98479 0.31784 0.0
C236 C 0.91959 0.97705 0.31467 0.0
C237 C 0.88 1.00648 0.31364 0.0
C238 C 0.88646 0.05446 0.31099 0.0
C239 C 0.9316 0.07299 0.30934 0.0
C240 C 0.97001 0.04323 0.31057 0.0
C241 C 0.96449 0.99635 0.3133 0.0
C242 C 1.01153 0.97309 0.31538 0.0
C243 C 0.0149 0.95391 0.3279 0.0
C244 C 0.02046 0.93438 0.30635 0.0
C245 C 0.04435 0.01428 0.31355 0.0
C246 C 0.01974 0.05417 0.31055 0.0
C247 C 0.04232 0.0968 0.30862 0.0
C248 C 0.09114 0.09896 0.31 0.0
C249 C 0.11697 0.05896 0.31348 0.0
C250 C 0.09309 0.01597 0.31512 0.0
H251 H 1.00279 0.62625 0.58232 0.0
H252 H 0.99802 0.65481 0.54525 0.0
H253 H 0.02055 0.57235 0.54118 0.0
H254 H 0.09828 0.54334 0.58257 0.0
H255 H 0.0713 0.50604 0.59335 0.0
H256 H 0.05881 0.56786 0.5932 0.0
H257 H 0.97005 0.54987 0.59177 0.0
H258 H 0.98227 0.48801 0.59188 0.0
H259 H 0.9488 0.51323 0.58012 0.0
H260 H 0.04737 0.48641 0.54147 0.0
H261 H 0.06574 0.40321 0.5459 0.0
H262 H 0.04216 0.42959 0.58262 0.0
C263 C 1.00719 0.61517 0.57335 0.0
C264 C 0.99983 0.64685 0.56408 0.0
C265 C 1.00422 0.63101 0.55245 0.0
C266 C 0.017 0.58434 0.55008 0.0
C267 C 0.02393 0.55376 0.55945 0.0
C268 C 0.01832 0.56845 0.57085 0.0
C269 C 0.02411 0.52813 0.57933 0.0
C270 C 0.0656 0.53688 0.5876 0.0
C271 C 0.9786 0.5193 0.58618 0.0
C272 C 0.03433 0.48843 0.57097 0.0
C273 C 0.03501 0.50395 0.55954 0.0
C274 C 0.04622 0.47384 0.55037 0.0
C275 C 0.05666 0.42674 0.55295 0.0
C276 C 0.05451 0.41 0.56456 0.0
C277 C 0.04308 0.44133 0.57364 0.0
H278 H 0.59983 0.53478 0.83381 0.0
H279 H 0.62545 0.55435 0.79689 0.0
H280 H 0.54226 0.5354 0.79273 0.0
H281 H 0.51604 0.44104 0.83203 0.0
H282 H 0.47979 0.46337 0.84362 0.0
H283 H 0.54162 0.47575 0.8435 0.0
H284 H 0.52401 0.56466 0.84444 0.0
H285 H 0.4621 0.55256 0.84452 0.0
H286 H 0.48662 0.59081 0.83358 0.0
H287 H 0.45655 0.50892 0.79272 0.0
H288 H 0.37418 0.48671 0.797 0.0
H289 H 0.40281 0.49518 0.83401 0.0
C290 C 0.58793 0.5346 0.82484 0.0
C291 C 0.61908 0.54511 0.81563 0.0
C292 C 0.60211 0.54592 0.80404 0.0
C293 C 0.55499 0.53518 0.80161 0.0
C294 C 0.52503 0.52502 0.81091 0.0
C295 C 0.54073 0.52553 0.82231 0.0
C296 C 0.50101 0.51622 0.83079 0.0
C297 C 0.51017 0.47143 0.8379 0.0
C298 C 0.49297 0.55859 0.8388 0.0
C299 C 0.46057 0.50968 0.82239 0.0
C300 C 0.47521 0.51411 0.81095 0.0
C301 C 0.44459 0.50629 0.80166 0.0
C302 C 0.39795 0.49373 0.80414 0.0
C303 C 0.38211 0.49043 0.8158 0.0
C304 C 0.41382 0.4988 0.82501 0.0
H305 H 0.49351 0.10212 0.08305 0.0
H306 H 0.46553 0.12656 0.04643 0.0
H307 H 0.48286 0.04301 0.04221 0.0
H308 H 0.58599 0.01815 0.08014 0.0
H309 H 0.5662 0.98244 0.09215 0.0
H310 H 0.55406 0.04431 0.09202 0.0
H311 H 0.46546 0.02698 0.09431 0.0
H312 H 0.47731 0.96503 0.0944 0.0
H313 H 0.43674 0.98914 0.08397 0.0
H314 H 0.50908 0.95699 0.04208 0.0
H315 H 0.53195 0.87473 0.04631 0.0
H316 H 0.53194 0.90528 0.08327 0.0
C317 C 0.49146 0.08988 0.07413 0.0
C318 C 0.47909 0.12075 0.06501 0.0
C319 C 0.47539 0.10339 0.0535 0.0
C320 C 0.48521 0.05608 0.05104 0.0
C321 C 0.49733 0.02642 0.06026 0.0
C322 C 0.49955 0.04257 0.0716 0.0
C323 C 0.51062 1.00325 0.08005 0.0
C324 C 0.55698 1.01261 0.08646 0.0
C325 C 0.47011 0.99566 0.08869 0.0
C326 C 0.51505 0.96245 0.0717 0.0
C327 C 0.50806 0.97655 0.06029 0.0
C328 C 0.51368 0.94546 0.051 0.0
C329 C 0.52664 0.89891 0.05346 0.0
C330 C 0.5325 0.88368 0.0651 0.0
C331 C 0.52635 0.91585 0.07431 0.0
H332 H 0.0981 0.49367 0.9389 0.0
H333 H 0.1251 0.47542 0.97578 0.0
H334 H 0.04228 0.49525 0.98014 0.0
H335 H 0.01516 0.58814 0.94067 0.0
H336 H 0.97828 0.56552 0.92924 0.0
H337 H 0.04003 0.55284 0.92922 0.0
H338 H 0.02178 0.46397 0.92856 0.0
H339 H 0.95997 0.47638 0.92861 0.0
H340 H 0.98462 0.43846 0.93958 0.0
H341 H 0.95658 0.52223 0.9803 0.0
H342 H 0.874 0.54404 0.97616 0.0
H343 H 0.90144 0.53389 0.93912 0.0
C344 C 0.08659 0.49435 0.94789 0.0
C345 C 0.11802 0.48393 0.95704 0.0
C346 C 0.10154 0.48376 0.96868 0.0
C347 C 0.05464 0.49502 0.97122 0.0
C348 C 0.02439 0.50508 0.96198 0.0
C349 C 0.03962 0.50394 0.95053 0.0
C350 C 0.99965 0.51309 0.94214 0.0
C351 C 1.00884 0.55754 0.9349 0.0
C352 C 0.991 0.47043 0.93426 0.0
C353 C 0.9596 0.52018 0.95063 0.0
C354 C 0.97463 0.51627 0.96205 0.0
C355 C 0.94433 0.5245 0.97139 0.0
C356 C 0.89758 0.53685 0.96898 0.0
C357 C 0.88136 0.53951 0.95735 0.0
C358 C 0.91278 0.53084 0.9481 0.0
H359 H 0.44887 0.41047 0.20405 0.0
H360 H 0.58579 0.34937 0.20977 0.0
H361 H 0.61953 0.42871 0.2122 0.0
H362 H 0.49019 0.50324 0.18631 0.0
H363 H 0.44838 0.54572 0.19145 0.0
H364 H 0.43391 0.48436 0.19169 0.0
H365 H 0.41627 0.48945 0.2138 0.0
H366 H 0.43069 0.55092 0.21364 0.0
H367 H 0.46036 0.51194 0.22355 0.0
H368 H 0.63861 0.51483 0.21353 0.0
H369 H 0.64378 0.60075 0.21157 0.0
H370 H 0.49573 0.60646 0.2032 0.0
C371 C 0.48575 0.41388 0.20608 0.0
C372 C 0.51466 0.37382 0.20697 0.0
C373 C 0.56303 0.37961 0.20919 0.0
C374 C 0.58241 0.42452 0.21061 0.0
C375 C 0.5531 0.46338 0.20956 0.0
C376 C 0.50589 0.45855 0.2072 0.0
C377 C 0.48304 0.506 0.20534 0.0
C378 C 0.4627 0.51005 0.19296 0.0
C379 C 0.44536 0.5151 0.21464 0.0
C380 C 0.52481 0.53828 0.20695 0.0
C381 C 0.56466 0.51298 0.20961 0.0
C382 C 0.60762 0.53495 0.21145 0.0
C383 C 0.61016 0.58388 0.21035 0.0
C384 C 0.57021 0.61049 0.20722 0.0
C385 C 0.5269 0.58719 0.20561 0.0
H386 H 0.41101 0.0846 0.4542 0.0
H387 H 0.35108 0.94719 0.46028 0.0
H388 H 0.43071 0.91431 0.46273 0.0
H389 H 0.50364 0.04382 0.4365 0.0
H390 H 0.54586 0.0862 0.44152 0.0
H391 H 0.48441 0.10005 0.44178 0.0
H392 H 0.48979 0.11829 0.46386 0.0
H393 H 0.55135 0.1045 0.46366 0.0
H394 H 0.51283 0.07466 0.47367 0.0
H395 H 0.51694 0.8961 0.46396 0.0
H396 H 0.6028 0.89174 0.46186 0.0
H397 H 0.60712 0.03978 0.45328 0.0
C398 C 0.41472 0.0478 0.45632 0.0
C399 C 0.37494 0.0185 0.45729 0.0
C400 C 0.38112 0.97024 0.45963 0.0
C401 C 0.42618 0.95135 0.46107 0.0
C402 C 0.46477 0.98105 0.45992 0.0
C403 C 0.45953 0.02816 0.45746 0.0
C404 C 0.50672 0.05146 0.45552 0.0
C405 C 0.51035 0.07155 0.44309 0.0
C406 C 0.51569 0.08948 0.46473 0.0
C407 C 0.53933 1.01006 0.45718 0.0
C408 C 0.51443 0.97 0.45994 0.0
C409 C 0.53676 0.92727 0.46181 0.0
C410 C 0.58565 0.92519 0.46063 0.0
C411 C 0.61183 0.96538 0.4574 0.0
C412 C 0.58819 1.00845 0.45577 0.0
H413 H 0.02809 0.12597 0.68953 0.0
H414 H 0.04354 0.15139 0.72654 0.0
H415 H 0.02167 0.0687 0.73063 0.0
H416 H 0.9323 0.04298 0.6906 0.0
H417 H 0.95612 1.00664 0.67922 0.0
H418 H 0.96869 0.06847 0.67941 0.0
H419 H 0.05761 0.05057 0.67919 0.0
H420 H 0.04533 0.98871 0.67903 0.0
H421 H 0.08208 0.01304 0.69028 0.0
H422 H 0.99457 0.98278 0.73045 0.0
H423 H 0.97529 0.89981 0.72598 0.0
H424 H 0.98858 0.92927 0.68907 0.0
C425 C 0.02611 0.1142 0.6985 0.0
C426 C 0.03634 0.14507 0.70776 0.0
C427 C 0.03512 0.12825 0.71936 0.0
C428 C 0.02271 0.08143 0.72175 0.0
C429 C 0.01295 0.05167 0.71239 0.0
C430 C 0.01541 0.06731 0.70099 0.0
C431 C 1.00719 0.02768 0.69245 0.0
C432 C 0.96347 0.03701 0.68498 0.0
C433 C 0.05065 0.01953 0.68479 0.0
C434 C 0.99933 0.98727 0.7008 0.0
C435 C 1.0018 1.00186 0.71228 0.0
C436 C 0.99325 0.97094 0.72149 0.0
C437 C 0.98227 0.92399 0.7189 0.0
C438 C 0.98132 0.90821 0.70722 0.0
C439 C 0.99005 0.94033 0.69809 0.0
H440 H 0.62104 0.0257 0.3168 0.0
H441 H 0.59342 0.8799 0.30857 0.0
H442 H 0.50932 0.89736 0.30671 0.0
H443 H 0.5216 0.04226 0.33442 0.0
H444 H 0.51021 0.10138 0.32968 0.0
H445 H 0.56895 0.07869 0.32929 0.0
H446 H 0.57471 0.09861 0.30729 0.0
H447 H 0.51598 0.12161 0.30763 0.0
H448 H 0.53109 0.07622 0.29739 0.0
H449 H 0.42724 0.92903 0.30724 0.0
H450 H 0.35363 0.97336 0.30978 0.0
H451 H 0.43424 0.09849 0.31758 0.0
C452 C 0.59744 0.99766 0.31437 0.0
C453 C 0.61403 0.95144 0.3128 0.0
C454 C 0.58172 0.91561 0.30983 0.0
C455 C 0.53378 0.92516 0.30873 0.0
C456 C 0.51843 0.97079 0.31058 0.0
C457 C 0.54927 1.00655 0.31328 0.0
C458 C 0.52326 0.05199 0.31544 0.0
C459 C 0.5315 0.06959 0.32795 0.0
C460 C 0.53708 0.08931 0.3064 0.0
C461 C 0.47307 0.03595 0.31373 0.0
C462 C 0.47104 0.98906 0.31087 0.0
C463 C 0.42841 0.96593 0.30935 0.0
C464 C 0.38674 0.99139 0.31084 0.0
C465 C 0.38795 0.03949 0.31382 0.0
C466 C 0.4319 0.0619 0.31518 0.0
H467 H 0.03031 0.90736 0.5682 0.0
H468 H 0.88572 0.93702 0.55913 0.0
H469 H 0.90431 0.02092 0.55763 0.0
H470 H 0.04714 1.00676 0.58604 0.0
H471 H 0.10666 0.01756 0.58153 0.0
H472 H 0.08324 0.95904 0.58105 0.0
H473 H 0.10438 0.9532 0.55913 0.0
H474 H 0.12811 1.01168 0.55956 0.0
H475 H 0.08315 0.99715 0.54915 0.0
H476 H 0.93665 0.10249 0.5585 0.0
H477 H 0.9819 0.17565 0.56099 0.0
H478 H 0.10571 0.09382 0.56917 0.0
C479 C 1.00278 0.93139 0.5657 0.0
C480 C 0.95653 0.91533 0.56378 0.0
C481 C 0.92142 0.94821 0.56067 0.0
C482 C 0.9316 0.9961 0.55977 0.0
C483 C 0.97717 1.0109 0.56195 0.0
C484 C 1.01234 0.97958 0.56477 0.0
C485 C 0.05797 1.00512 0.5671 0.0
C486 C 0.07472 0.99661 0.57968 0.0
C487 C 0.09563 0.99094 0.5582 0.0
C488 C 0.0427 0.05554 0.56533 0.0
C489 C 0.99597 0.05809 0.56234 0.0
C490 C 0.97345 0.10095 0.56071 0.0
C491 C 0.99939 0.14236 0.56218 0.0
C492 C 0.04743 0.14067 0.56521 0.0
C493 C 0.06919 0.09647 0.56673 0.0
H494 H 0.12194 0.52171 0.81951 0.0
H495 H 0.09156 0.37785 0.80982 0.0
H496 H 1.00798 0.39702 0.80815 0.0
H497 H 0.0215 0.53843 0.83705 0.0
H498 H 1.01141 0.5982 0.83266 0.0
H499 H 0.06977 0.57449 0.83231 0.0
H500 H 0.07715 0.59653 0.81047 0.0
H501 H 0.01886 0.6206 0.81077 0.0
H502 H 0.03367 0.576 0.80029 0.0
H503 H 0.92663 0.42959 0.809 0.0
H504 H 0.85366 0.4752 0.81132 0.0
H505 H 0.93593 0.59831 0.81996 0.0
C506 C 0.09783 0.49448 0.81684 0.0
C507 C 0.11363 0.44823 0.81481 0.0
C508 C 0.08061 0.41354 0.81146 0.0
C509 C 0.03288 0.42404 0.81048 0.0
C510 C 0.01832 0.46954 0.81278 0.0
C511 C 0.04976 0.50438 0.81579 0.0
C512 C 0.0244 0.55007 0.81815 0.0
C513 C 0.03224 0.56623 0.83079 0.0
C514 C 0.03942 0.58804 0.8094 0.0
C515 C 0.97397 0.53516 0.81617 0.0
C516 C 0.97125 0.48855 0.81308 0.0
C517 C 0.92831 0.46631 0.81129 0.0
C518 C 0.88701 0.49244 0.81266 0.0
C519 C 0.8889 0.54041 0.81574 0.0
C520 C 0.93316 0.56186 0.81746 0.0
H521 H 0.50258 0.62366 0.06985 0.0
H522 H 0.64413 0.59497 0.058 0.0
H523 H 0.62495 0.51132 0.05629 0.0
H524 H 0.49054 0.52242 0.08727 0.0
H525 H 0.42991 0.51199 0.08377 0.0
H526 H 0.45313 0.57059 0.08321 0.0
H527 H 0.42594 0.57872 0.06176 0.0
H528 H 0.40233 0.52019 0.06227 0.0
H529 H 0.44427 0.53584 0.05118 0.0
H530 H 0.59303 0.42977 0.05733 0.0
H531 H 0.54861 0.3563 0.0602 0.0
H532 H 0.42734 0.43702 0.07097 0.0
C533 C 0.52923 0.59992 0.06668 0.0
C534 C 0.57488 0.61614 0.06406 0.0
C535 C 0.60891 0.58363 0.0601 0.0
C536 C 0.59839 0.5359 0.05907 0.0
C537 C 0.55354 0.52088 0.06197 0.0
C538 C 0.51931 0.55187 0.0656 0.0
C539 C 0.47442 0.52603 0.06859 0.0
C540 C 0.46125 0.53319 0.08147 0.0
C541 C 0.43438 0.5411 0.06046 0.0
C542 C 0.48913 0.47582 0.06626 0.0
C543 C 0.5349 0.47365 0.06243 0.0
C544 C 0.55694 0.43102 0.06019 0.0
C545 C 0.53149 0.38943 0.06188 0.0
C546 C 0.4844 0.39074 0.06573 0.0
C547 C 0.4631 0.43471 0.06788 0.0
H548 H 0.43461 0.4298 0.95312 0.0
H549 H 0.35192 0.55436 0.95991 0.0
H550 H 0.42475 0.60049 0.96196 0.0
H551 H 0.53065 0.45614 0.97295 0.0
H552 H 0.57475 0.43338 0.96325 0.0
H553 H 0.51632 0.40953 0.96298 0.0
H554 H 0.51059 0.42727 0.94087 0.0
H555 H 0.56898 0.45106 0.94107 0.0
H556 H 0.52106 0.48604 0.93572 0.0
H557 H 0.50608 0.63342 0.96268 0.0
H558 H 0.58987 0.65228 0.96122 0.0
H559 H 0.62068 0.50656 0.95358 0.0
C560 C 0.43171 0.4667 0.95517 0.0
C561 C 0.38735 0.4884 0.95643 0.0
C562 C 0.38533 0.53691 0.95893 0.0
C563 C 0.42655 0.56336 0.96014 0.0
C564 C 0.46958 0.54087 0.9588 0.0
C565 C 0.47247 0.49367 0.95632 0.0
C566 C 0.52305 0.47849 0.95475 0.0
C567 C 0.537 0.44224 0.96404 0.0
C568 C 0.53139 0.45961 0.94237 0.0
C569 C 0.54824 0.52467 0.95663 0.0
C570 C 0.51664 0.56003 0.95905 0.0
C571 C 0.53111 0.60598 0.96083 0.0
C572 C 0.57896 0.6163 0.95997 0.0
C573 C 0.61217 0.58094 0.95728 0.0
C574 C 0.59642 0.53433 0.95574 0.0
H575 H 0.6087 0.92932 0.20484 0.0
H576 H 0.48511 0.84722 0.21323 0.0
H577 H 0.44003 0.92038 0.21588 0.0
H578 H 0.58669 0.02624 0.22491 0.0
H579 H 0.60807 0.06976 0.21482 0.0
H580 H 0.63143 1.01117 0.21448 0.0
H581 H 0.60994 1.00453 0.1926 0.0
H582 H 0.58658 0.06303 0.19287 0.0
H583 H 0.55043 0.01501 0.18807 0.0
H584 H 0.40757 1.00224 0.2166 0.0
H585 H 0.38897 0.08608 0.21473 0.0
H586 H 0.53363 0.11535 0.20558 0.0
C587 C 0.57231 0.92657 0.2074 0.0
C588 C 0.55055 0.88232 0.20891 0.0
C589 C 0.50264 0.88056 0.21207 0.0
C590 C 0.47679 0.92197 0.21362 0.0
C591 C 0.49929 0.9649 0.21196 0.0
C592 C 0.54597 0.96748 0.20891 0.0
C593 C 0.56121 0.01788 0.207 0.0
C594 C 0.5991 0.03209 0.21583 0.0
C595 C 0.57802 0.02554 0.19438 0.0
C596 C 0.51561 0.04336 0.20931 0.0
C597 C 0.48048 1.01211 0.21225 0.0
C598 C 0.43488 0.02699 0.21437 0.0
C599 C 0.42469 0.07482 0.21327 0.0
C600 C 0.45983 0.10756 0.21003 0.0
C601 C 0.50609 0.09146 0.20821 0.0
H602 H 0.9298 0.92636 0.45543 0.0
H603 H 0.8488 0.05073 0.46355 0.0
H604 H 0.92235 0.09523 0.46629 0.0
H605 H 0.02682 0.94795 0.47562 0.0
H606 H 0.07011 0.92603 0.46558 0.0
H607 H 1.01132 0.90308 0.46527 0.0
H608 H 1.00487 0.92414 0.44335 0.0
H609 H 0.06355 0.9471 0.44358 0.0
H610 H 0.01587 0.9835 0.43871 0.0
H611 H 1.00446 0.12713 0.46695 0.0
H612 H 0.08837 0.14519 0.4649 0.0
H613 H 0.11622 1.00002 0.45609 0.0
C614 C 0.92735 0.96279 0.45797 0.0
C615 C 0.88333 0.98496 0.45936 0.0
C616 C 0.88197 0.0329 0.46249 0.0
C617 C 0.9236 0.05841 0.46409 0.0
C618 C 0.96631 0.03551 0.46253 0.0
C619 C 0.96846 0.98877 0.45953 0.0
C620 C 0.01867 0.9731 0.45766 0.0
C621 C 0.03254 0.9353 0.46656 0.0
C622 C 0.02616 0.95597 0.44508 0.0
C623 C 0.04455 0.01857 0.45989 0.0
C624 C 0.01366 0.05399 0.46279 0.0
C625 C 0.02893 0.09958 0.46477 0.0
C626 C 0.07678 0.10947 0.46356 0.0
C627 C 0.10911 0.07402 0.46036 0.0
C628 C 0.09264 0.02777 0.45869 0.0
H629 H 1.00444 0.40566 0.70338 0.0
H630 H 0.14855 0.4355 0.71292 0.0
H631 H 0.12982 0.5193 0.71444 0.0
H632 H 0.98841 0.50538 0.68557 0.0
H633 H 0.92869 0.516 0.6899 0.0
H634 H 0.95206 0.4575 0.69043 0.0
H635 H 0.92987 0.45119 0.71228 0.0
H636 H 0.90616 0.50963 0.7118 0.0
H637 H 0.9506 0.49499 0.72234 0.0
H638 H 0.09757 0.60076 0.71349 0.0
H639 H 0.0525 0.67389 0.71089 0.0
H640 H 0.92906 0.59204 0.70229 0.0
C641 C 0.03181 0.42971 0.706 0.0
C642 C 0.07799 0.41374 0.70804 0.0
C643 C 0.11291 0.44664 0.71128 0.0
C644 C 0.10265 0.49446 0.71219 0.0
C645 C 0.05719 0.50919 0.70988 0.0
C646 C 0.02218 0.47785 0.70694 0.0
C647 C 0.97666 0.50335 0.70447 0.0
C648 C 0.96053 0.49506 0.69184 0.0
C649 C 0.93857 0.48893 0.71325 0.0
C650 C 0.99186 0.55377 0.70632 0.0
C651 C 0.03843 0.55634 0.70945 0.0
C652 C 0.06089 0.5992 0.71116 0.0
C653 C 0.03505 0.64059 0.70963 0.0
C654 C 0.98716 0.63889 0.70646 0.0
C655 C 0.96545 0.59469 0.70485 0.0
H656 H 0.24707 0.07881 0.36172 0.0
H657 H 0.26534 0.22672 0.35417 0.0
H658 H 0.2672 0.24349 0.37534 0.0
H659 H 0.17308 0.09189 0.38699 0.0
H660 H 0.19948 0.0433 0.39457 0.0
H661 H 0.19788 0.0439 0.37888 0.0
H662 H 0.28801 0.03347 0.37829 0.0
H663 H 0.28994 0.03321 0.39398 0.0
H664 H 0.32484 0.07467 0.38589 0.0
H665 H 0.26774 0.24329 0.39767 0.0
H666 H 0.26678 0.22606 0.41886 0.0
H667 H 0.25057 0.07806 0.41122 0.0
C668 C 0.25099 0.11486 0.36447 0.0
C669 C 0.25579 0.15148 0.35625 0.0
C670 C 0.26143 0.19806 0.36029 0.0
C671 C 0.26258 0.20792 0.3723 0.0
C672 C 0.25829 0.1708 0.38016 0.0
C673 C 0.2526 0.12522 0.37637 0.0
C674 C 0.24988 0.09132 0.3865 0.0
C675 C 0.20224 0.06614 0.38675 0.0
C676 C 0.2906 0.0561 0.38614 0.0
C677 C 0.25487 0.12486 0.39661 0.0
C678 C 0.25955 0.17059 0.39284 0.0
C679 C 0.26417 0.20756 0.40071 0.0
C680 C 0.26365 0.19744 0.41272 0.0
C681 C 0.25881 0.1507 0.41674 0.0
C682 C 0.25465 0.11416 0.4085 0.0
H683 H 0.94333 0.77471 0.61093 0.0
H684 H 0.79672 0.75174 0.60279 0.0
H685 H 0.77818 0.75195 0.62393 0.0
H686 H 0.94868 0.70352 0.63662 0.0
H687 H 0.98789 0.74294 0.64405 0.0
H688 H 0.98871 0.73955 0.62839 0.0
H689 H 0.97451 0.82911 0.62713 0.0
H690 H 0.97321 0.83271 0.6428 0.0
H691 H 0.92445 0.85418 0.63438 0.0
H692 H 0.77697 0.75389 0.64642 0.0
H693 H 0.79311 0.75782 0.66765 0.0
H694 H 0.93999 0.78316 0.66021 0.0
C695 C 0.90727 0.76928 0.61353 0.0
C696 C 0.87151 0.76283 0.60517 0.0
C697 C 0.82476 0.75654 0.60903 0.0
C698 C 0.81391 0.7567 0.62102 0.0
C699 C 0.85015 0.76363 0.62901 0.0
C700 C 0.89586 0.76991 0.62537 0.0
C701 C 0.92857 0.77757 0.63554 0.0
C702 C 0.96563 0.73857 0.63619 0.0
C703 C 0.95152 0.82629 0.63492 0.0
C704 C 0.89433 0.77436 0.64555 0.0
C705 C 0.84924 0.76616 0.64169 0.0
C706 C 0.81214 0.76059 0.64951 0.0
C707 C 0.82161 0.76296 0.66155 0.0
C708 C 0.86774 0.77118 0.66563 0.0
C709 C 0.90421 0.77739 0.65744 0.0
H710 H 0.25054 0.4308 0.86197 0.0
H711 H 0.27286 0.28363 0.85444 0.0
H712 H 0.27336 0.26658 0.87569 0.0
H713 H 0.3226 0.43831 0.88728 0.0
H714 H 0.2836 0.47808 0.89465 0.0
H715 H 0.28615 0.47758 0.87897 0.0
H716 H 0.19655 0.46306 0.87813 0.0
H717 H 0.19378 0.46317 0.89381 0.0
H718 H 0.17187 0.41361 0.88576 0.0
H719 H 0.27323 0.26747 0.89832 0.0
H720 H 0.27049 0.28577 0.91947 0.0
H721 H 0.2441 0.43169 0.91116 0.0
C722 C 0.25591 0.3949 0.86472 0.0
C723 C 0.26211 0.35858 0.85651 0.0
C724 C 0.26824 0.31207 0.86057 0.0
C725 C 0.26853 0.3021 0.87262 0.0
C726 C 0.26207 0.33896 0.88046 0.0
C727 C 0.25564 0.38437 0.8766 0.0
C728 C 0.24852 0.41796 0.8866 0.0
C729 C 0.28755 0.45515 0.88689 0.0
C730 C 0.19978 0.44077 0.88604 0.0
C731 C 0.25226 0.38461 0.89678 0.0
C732 C 0.2603 0.33917 0.89316 0.0
C733 C 0.26656 0.30291 0.90121 0.0
C734 C 0.2649 0.31359 0.9132 0.0
C735 C 0.25662 0.36007 0.91701 0.0
C736 C 0.24984 0.39564 0.90861 0.0
H737 H 0.59282 0.76088 0.11152 0.0
H738 H 0.7411 0.76877 0.10344 0.0
H739 H 0.75913 0.76845 0.12461 0.0
H740 H 0.59418 0.83405 0.13699 0.0
H741 H 0.55113 0.79901 0.14451 0.0
H742 H 0.55086 0.80194 0.12883 0.0
H743 H 0.55601 0.71137 0.12783 0.0
H744 H 0.55665 0.70817 0.1435 0.0
H745 H 0.60316 0.68163 0.1352 0.0
H746 H 0.75975 0.7672 0.14712 0.0
H747 H 0.74305 0.76373 0.16833 0.0
H748 H 0.59452 0.75316 0.16082 0.0
C749 C 0.62919 0.76303 0.11413 0.0
C750 C 0.66556 0.76521 0.10578 0.0
C751 C 0.71262 0.76729 0.10967 0.0
C752 C 0.72316 0.76709 0.12167 0.0
C753 C 0.68627 0.76442 0.12965 0.0
C754 C 0.64025 0.76234 0.12598 0.0
C755 C 0.60676 0.75831 0.13614 0.0
C756 C 0.57381 0.80087 0.13665 0.0
C757 C 0.57903 0.71212 0.13563 0.0
C758 C 0.64097 0.75843 0.14618 0.0
C759 C 0.6867 0.76227 0.14234 0.0
C760 C 0.72404 0.76399 0.15018 0.0
C761 C 0.71424 0.76196 0.16221 0.0
C762 C 0.66751 0.75778 0.16627 0.0
C763 C 0.63069 0.75579 0.15806 0.0
H764 H 0.74399 0.59534 0.86125 0.0
H765 H 0.77539 0.74065 0.85328 0.0
H766 H 0.77908 0.75797 0.87446 0.0
H767 H 0.67268 0.61517 0.88672 0.0
H768 H 0.69536 0.56444 0.89418 0.0
H769 H 0.69261 0.56523 0.8785 0.0
H770 H 0.78145 0.54699 0.87751 0.0
H771 H 0.78458 0.54659 0.89318 0.0
H772 H 0.82228 0.58488 0.88491 0.0
H773 H 0.7799 0.75795 0.89702 0.0
H774 H 0.77894 0.74032 0.91823 0.0
H775 H 0.75091 0.59426 0.91047 0.0
C776 C 0.75104 0.63106 0.86389 0.0
C777 C 0.759 0.66673 0.85557 0.0
C778 C 0.76888 0.71277 0.85948 0.0
C779 C 0.7711 0.72289 0.87149 0.0
C780 C 0.76372 0.68652 0.87945 0.0
C781 C 0.75394 0.64153 0.87574 0.0
C782 C 0.7491 0.60797 0.88586 0.0
C783 C 0.69949 0.58699 0.88634 0.0
C784 C 0.78659 0.56935 0.88533 0.0
C785 C 0.75771 0.64091 0.89592 0.0
C786 C 0.76577 0.68619 0.89214 0.0
C787 C 0.77377 0.72254 0.90004 0.0
C788 C 0.77323 0.71222 0.91206 0.0
C789 C 0.76527 0.66586 0.91604 0.0
C790 C 0.75767 0.63 0.90778 0.0
H791 H 0.44819 0.24434 0.16123 0.0
H792 H 0.30285 0.27068 0.1701 0.0
H793 H 0.28286 0.27219 0.14907 0.0
H794 H 0.45374 0.31744 0.13597 0.0
H795 H 0.49132 0.27789 0.12809 0.0
H796 H 0.49332 0.27953 0.14377 0.0
H797 H 0.47669 0.19027 0.1445 0.0
H798 H 0.47429 0.18842 0.12882 0.0
H799 H 0.42551 0.16726 0.13731 0.0
H800 H 0.27998 0.2722 0.12664 0.0
H801 H 0.29452 0.27038 0.10533 0.0
H802 H 0.44126 0.24099 0.11188 0.0
C803 C 0.41211 0.25071 0.1588 0.0
C804 C 0.37713 0.25768 0.16734 0.0
C805 C 0.3303 0.26537 0.16372 0.0
C806 C 0.31862 0.26622 0.1518 0.0
C807 C 0.3541 0.25891 0.14362 0.0
C808 C 0.39986 0.25119 0.14702 0.0
C809 C 0.43166 0.24384 0.13665 0.0
C810 C 0.46974 0.28195 0.13609 0.0
C811 C 0.45329 0.19452 0.13684 0.0
C812 C 0.39684 0.24899 0.12682 0.0
C813 C 0.35224 0.25774 0.13094 0.0
C814 C 0.31476 0.26507 0.12335 0.0
C815 C 0.32332 0.2639 0.11125 0.0
C816 C 0.36895 0.25523 0.1069 0.0
C817 C 0.40583 0.24723 0.11486 0.0
H818 H 0.75614 0.9496 0.3613 0.0
H819 H 0.78037 0.80323 0.35312 0.0
H820 H 0.78096 0.78455 0.37422 0.0
H821 H 0.82828 0.95495 0.38703 0.0
H822 H 0.78877 0.99368 0.39457 0.0
H823 H 0.79204 0.99502 0.3789 0.0
H824 H 0.70257 0.98032 0.37771 0.0
H825 H 0.69909 0.97853 0.39338 0.0
H826 H 0.67776 0.92988 0.3849 0.0
H827 H 0.77824 0.78249 0.39655 0.0
H828 H 0.77285 0.79739 0.41778 0.0
H829 H 0.74792 0.94471 0.41075 0.0
C830 C 0.76204 0.91361 0.3639 0.0
C831 C 0.76847 0.87792 0.35552 0.0
C832 C 0.77552 0.83123 0.35936 0.0
C833 C 0.77584 0.82028 0.37133 0.0
C834 C 0.76881 0.85635 0.37934 0.0
C835 C 0.76207 0.90206 0.37574 0.0
C836 C 0.75434 0.93443 0.38599 0.0
C837 C 0.79318 0.97171 0.38666 0.0
C838 C 0.70554 0.9571 0.38546 0.0
C839 C 0.75778 0.89988 0.39596 0.0
C840 C 0.76628 0.85501 0.392 0.0
C841 C 0.77147 0.81751 0.39972 0.0
C842 C 0.76827 0.82629 0.41177 0.0
C843 C 0.7597 0.87215 0.41597 0.0
C844 C 0.7541 0.90913 0.40788 0.0
H845 H 0.09194 0.27415 0.66083 0.0
H846 H 0.23869 0.25202 0.66891 0.0
H847 H 0.25709 0.25253 0.64776 0.0
H848 H 0.08669 0.20319 0.63514 0.0
H849 H 0.0473 0.24245 0.62772 0.0
H850 H 0.04657 0.23889 0.64339 0.0
H851 H 0.06042 0.32852 0.64462 0.0
H852 H 0.06161 0.3323 0.62895 0.0
H853 H 0.11034 0.35397 0.63735 0.0
H854 H 0.25815 0.25468 0.62528 0.0
H855 H 0.24192 0.25886 0.60406 0.0
H856 H 0.09497 0.28322 0.61153 0.0
C857 C 0.128 0.26897 0.65821 0.0
C858 C 0.16384 0.26266 0.66655 0.0
C859 C 0.21059 0.25671 0.66268 0.0
C860 C 0.22135 0.25703 0.65069 0.0
C861 C 0.18503 0.2638 0.64271 0.0
C862 C 0.13932 0.26977 0.64637 0.0
C863 C 0.10652 0.27735 0.63621 0.0
C864 C 0.06961 0.23813 0.63558 0.0
C865 C 0.08338 0.32592 0.63683 0.0
C866 C 0.14072 0.27445 0.62618 0.0
C867 C 0.18586 0.26647 0.63003 0.0
C868 C 0.22294 0.26121 0.6222 0.0
C869 C 0.21342 0.26371 0.61017 0.0
C870 C 0.16725 0.27176 0.6061 0.0
C871 C 0.13078 0.27761 0.61429 0.0
H872 H 0.24097 0.17426 0.28243 0.0
H873 H 0.32137 0.28674 0.29807 0.0
H874 H 0.33377 0.3216 0.27861 0.0
H875 H 0.31375 0.15679 0.25943 0.0
H876 H 0.26922 0.1437 0.24879 0.0
H877 H 0.25811 0.13308 0.26398 0.0
H878 H 0.18418 0.18546 0.26301 0.0
H879 H 0.19498 0.19612 0.24774 0.0
H880 H 0.18902 0.24467 0.25766 0.0
H881 H 0.34925 0.33634 0.25747 0.0
H882 H 0.36601 0.32987 0.2364 0.0
H883 H 0.27504 0.20847 0.23435 0.0
C884 C 0.25962 0.20721 0.28181 0.0
C885 C 0.27977 0.22806 0.29179 0.0
C886 C 0.30527 0.27035 0.29056 0.0
C887 C 0.3124 0.29049 0.27953 0.0
C888 C 0.29359 0.26811 0.2698 0.0
C889 C 0.26732 0.22759 0.27084 0.0
C890 C 0.25587 0.20731 0.25897 0.0
C891 C 0.27543 0.15729 0.25773 0.0
C892 C 0.20285 0.20848 0.25672 0.0
C893 C 0.2815 0.24155 0.25112 0.0
C894 C 0.30243 0.2768 0.25752 0.0
C895 C 0.33208 0.30961 0.25233 0.0
C896 C 0.34147 0.30564 0.24036 0.0
C897 C 0.32131 0.2691 0.2337 0.0
C898 C 0.28993 0.23756 0.23913 0.0
H899 H 0.83272 0.77513 0.4826 0.0
H900 H 0.69206 0.83189 0.4839 0.0
H901 H 0.68656 0.81043 0.50471 0.0
H902 H 0.8153 0.6785 0.50486 0.0
H903 H 0.87298 0.68781 0.5108 0.0
H904 H 0.8622 0.69815 0.49552 0.0
H905 H 0.89418 0.78265 0.49765 0.0
H906 H 0.9048 0.7727 0.51289 0.0
H907 H 0.86858 0.82108 0.50836 0.0
H908 H 0.70112 0.79587 0.52584 0.0
H909 H 0.73471 0.78971 0.54561 0.0
H910 H 0.86612 0.74232 0.53081 0.0
C911 C 0.80007 0.78127 0.48715 0.0
C912 C 0.76256 0.80459 0.48159 0.0
C913 C 0.72104 0.81363 0.48795 0.0
C914 C 0.71756 0.80144 0.49978 0.0
C915 C 0.75585 0.78009 0.50513 0.0
C916 C 0.79624 0.76973 0.499 0.0
C917 C 0.83446 0.75234 0.50709 0.0
C918 C 0.84696 0.70115 0.50441 0.0
C919 C 0.87804 0.7841 0.50646 0.0
C920 C 0.80999 0.75651 0.51878 0.0
C921 C 0.76438 0.77179 0.51743 0.0
C922 C 0.73638 0.78284 0.527 0.0
C923 C 0.7558 0.77932 0.5382 0.0
C924 C 0.80282 0.76496 0.53977 0.0
C925 C 0.82969 0.75217 0.52992 0.0
H926 H 0.17333 0.23518 0.74058 0.0
H927 H 0.29938 0.29788 0.72632 0.0
H928 H 0.33196 0.30488 0.74615 0.0
H929 H 0.16245 0.30937 0.76344 0.0
H930 H 0.14108 0.26725 0.77389 0.0
H931 H 0.13177 0.25772 0.75859 0.0
H932 H 0.17263 0.17696 0.76005 0.0
H933 H 0.18185 0.18611 0.77543 0.0
H934 H 0.23082 0.17315 0.76606 0.0
H935 H 0.34441 0.3188 0.76741 0.0
H936 H 0.33641 0.33649 0.7884 0.0
H937 H 0.20324 0.26347 0.78906 0.0
C938 C 0.20856 0.24862 0.74159 0.0
C939 C 0.23399 0.26556 0.73188 0.0
C940 C 0.27938 0.28433 0.73361 0.0
C941 C 0.29825 0.28836 0.74485 0.0
C942 C 0.27148 0.27314 0.7543 0.0
C943 C 0.2278 0.25311 0.75278 0.0
C944 C 0.20386 0.24474 0.7644 0.0
C945 C 0.15706 0.27137 0.76512 0.0
C946 C 0.19689 0.1921 0.76661 0.0
C947 C 0.23994 0.26515 0.77265 0.0
C948 C 0.27899 0.28075 0.76667 0.0
C949 C 0.31462 0.30558 0.77224 0.0
C950 C 0.30975 0.31556 0.78416 0.0
C951 C 0.26962 0.30066 0.7904 0.0
C952 C 0.23499 0.27406 0.7846 0.0
H953 H 0.7903 0.6761 0.99002 0.0
H954 H 0.728 0.80206 0.97565 0.0
H955 H 0.72057 0.83467 0.99547 0.0
H956 H 0.71564 0.66508 0.0128 0.0
H957 H 0.75749 0.64382 0.02331 0.0
H958 H 0.7674 0.63452 1.00802 0.0
H959 H 0.84809 0.67557 1.00955 0.0
H960 H 0.83855 0.68478 0.02492 0.0
H961 H 0.85174 0.73379 0.01554 0.0
H962 H 0.7061 0.8471 0.01671 0.0
H963 H 0.6878 0.83902 0.03767 0.0
H964 H 0.7608 0.70598 0.03844 0.0
C965 C 0.77685 0.71132 0.991 0.0
C966 C 0.76015 0.73671 0.98127 0.0
C967 C 0.74138 0.78209 0.98296 0.0
C968 C 0.7371 0.80098 0.9942 0.0
C969 C 0.75209 0.77425 1.00367 0.0
C970 C 0.77213 0.73058 1.00218 0.0
C971 C 0.78021 0.70666 0.01382 0.0
C972 C 0.75358 0.65978 0.01452 0.0
C973 C 0.83278 0.69982 0.01609 0.0
C974 C 0.7596 0.74271 0.02204 0.0
C975 C 0.74417 0.78175 0.01603 0.0
C976 C 0.71918 0.81732 0.02156 0.0
C977 C 0.70885 0.81241 0.03347 0.0
C978 C 0.72356 0.77229 0.03973 0.0
C979 C 0.75034 0.73772 0.03397 0.0
H980 H 0.36086 0.24687 0.03299 0.0
H981 H 0.238 0.31354 0.04771 0.0
H982 H 0.2053 0.32359 0.02794 0.0
H983 H 0.37383 0.32333 1.01028 0.0
H984 H 0.39352 0.28119 0.99967 0.0
H985 H 0.40302 0.27055 0.01493 0.0
H986 H 0.35965 0.19109 0.01335 0.0
H987 H 0.3502 0.20137 0.99801 0.0
H988 H 0.30116 0.18932 1.00746 0.0
H989 H 0.19154 0.33724 1.00668 0.0
H990 H 0.19811 0.35392 0.98562 0.0
H991 H 0.3302 0.2791 0.98457 0.0
C992 C 0.32628 0.26195 0.03208 0.0
C993 C 0.30166 0.27886 0.0419 0.0
C994 C 0.25726 0.29995 0.04032 0.0
C995 C 0.23835 0.3057 0.02912 0.0
C996 C 0.26422 0.29014 0.01957 0.0
C997 C 0.30714 0.26842 0.02094 0.0
C998 C 0.3304 0.26 1.00924 0.0
C999 C 0.37798 0.28529 1.00849 0.0
C1000 C 0.33564 0.2073 1.00687 0.0
C1001 C 0.29472 0.28193 1.00112 0.0
C1002 C 0.25644 0.29843 1.00724 0.0
C1003 C 0.22087 0.32363 1.00177 0.0
C1004 C 0.22494 0.33301 0.98979 0.0
C1005 C 0.26441 0.31743 0.98341 0.0
C1006 C 0.2991 0.29062 0.98914 0.0
H1007 H 0.79078 0.86808 0.28125 0.0
H1008 H 0.74636 0.73556 0.29613 0.0
H1009 H 0.7403 0.70198 0.27638 0.0
H1010 H 0.71193 0.86928 0.25918 0.0
H1011 H 0.74921 0.89559 0.2483 0.0
H1012 H 0.76011 0.90627 0.26349 0.0
H1013 H 0.84502 0.87582 0.2612 0.0
H1014 H 0.8345 0.86533 0.24592 0.0
H1015 H 0.85507 0.81848 0.25514 0.0
H1016 H 0.72515 0.68734 0.25525 0.0
H1017 H 0.70365 0.69247 0.23443 0.0
H1018 H 0.75843 0.83409 0.23307 0.0
C1019 C 0.78166 0.83144 0.28037 0.0
C1020 C 0.76957 0.80428 0.29025 0.0
C1021 C 0.75621 0.75691 0.28871 0.0
C1022 C 0.75275 0.73749 0.27751 0.0
C1023 C 0.763 0.76578 0.26792 0.0
C1024 C 0.7777 0.81164 0.26924 0.0
C1025 C 0.78101 0.83628 0.25754 0.0
C1026 C 0.74863 0.87937 0.25711 0.0
C1027 C 0.83194 0.84976 0.25479 0.0
C1028 C 0.76391 0.79782 0.24949 0.0
C1029 C 0.75438 0.75719 0.25563 0.0
C1030 C 0.7336 0.71853 0.2503 0.0
C1031 C 0.7214 0.72179 0.23847 0.0
C1032 C 0.72999 0.7634 0.23209 0.0
C1033 C 0.75263 0.80136 0.23763 0.0
H1034 H 0.20995 0.25672 0.48382 0.0
H1035 H 0.33441 0.17007 0.48517 0.0
H1036 H 0.34199 0.18634 0.50622 0.0
H1037 H 0.24497 0.34323 0.50727 0.0
H1038 H 0.18591 0.34558 0.51278 0.0
H1039 H 0.19621 0.33593 0.49746 0.0
H1040 H 0.14646 0.2601 0.49843 0.0
H1041 H 0.13633 0.26926 0.51371 0.0
H1042 H 0.16181 0.21506 0.50878 0.0
H1043 H 0.32848 0.20032 0.52741 0.0
H1044 H 0.29488 0.21059 0.54706 0.0
H1045 H 0.17846 0.28762 0.53219 0.0
C1046 C 0.23994 0.24284 0.48844 0.0
C1047 C 0.27205 0.21273 0.48282 0.0
C1048 C 0.30975 0.19368 0.48927 0.0
C1049 C 0.31437 0.20282 0.50124 0.0
C1050 C 0.28103 0.23112 0.50663 0.0
C1051 C 0.24468 0.25117 0.50043 0.0
C1052 C 0.21007 0.27495 0.50852 0.0
C1053 C 0.20926 0.32809 0.50638 0.0
C1054 C 0.16079 0.25354 0.50728 0.0
C1055 C 0.23153 0.26345 0.52026 0.0
C1056 C 0.2729 0.23887 0.51897 0.0
C1057 C 0.29671 0.22045 0.52854 0.0
C1058 C 0.27728 0.22636 0.53967 0.0
C1059 C 0.23433 0.25036 0.54118 0.0
C1060 C 0.21193 0.27015 0.53135 0.0
H1061 H 0.86234 0.78207 0.73965 0.0
H1062 H 0.73962 0.71497 0.72495 0.0
H1063 H 0.70671 0.70514 0.74471 0.0
H1064 H 0.87514 0.70587 0.76239 0.0
H1065 H 0.89476 0.7481 0.77299 0.0
H1066 H 0.90435 0.7587 0.75772 0.0
H1067 H 0.86095 0.83808 0.75929 0.0
H1068 H 0.85141 0.82783 0.77463 0.0
H1069 H 0.80243 0.83973 0.76517 0.0
H1070 H 0.69281 0.69162 0.76596 0.0
H1071 H 0.69935 0.67482 0.78702 0.0
H1072 H 0.83144 0.74991 0.78807 0.0
C1073 C 0.82774 0.76696 0.74057 0.0
C1074 C 0.80322 0.74986 0.73076 0.0
C1075 C 0.7588 0.72871 0.73234 0.0
C1076 C 0.73977 0.7231 0.74354 0.0
C1077 C 0.76556 0.73884 0.75308 0.0
C1078 C 0.8085 0.76061 0.75171 0.0
C1079 C 0.83169 0.76912 0.76341 0.0
C1080 C 0.87927 0.74393 0.76416 0.0
C1081 C 0.83691 0.82183 0.76576 0.0
C1082 C 0.79596 0.74713 0.77153 0.0
C1083 C 0.7577 0.73058 0.76541 0.0
C1084 C 0.72211 0.70529 0.77088 0.0
C1085 C 0.72618 0.69584 0.78285 0.0
C1086 C 0.76566 0.71144 0.78923 0.0
C1087 C 0.80034 0.73838 0.7835 0.0
loop_
_geom_bond_atom_site_label_1
_geom_bond_atom_site_label_2
_geom_bond_distance
_geom_bond_site_symmetry_2
_ccdc_geom_bond_type
O0 Cd1 2.223 . S
O0 C8 1.315 . S
Cd1 O0 2.223 . S
Cd1 O4 2.297 . S
Cd1 O5 2.439 . S
Cd1 O11 2.240 . S
Cd2 O3 2.240 . S
Cd2 O10 2.223 . S
Cd2 O12 2.297 . S
Cd2 O13 2.439 . S
O3 Cd2 2.240 . S
O3 C8 1.279 . S
O4 Cd1 2.297 . S
O4 C6 1.247 . S
O5 Cd1 2.439 . S
O5 C6 1.208 . S
C6 O4 1.247 . S
C6 O5 1.208 . S
C7 O12 1.247 . S
C7 O13 1.208 . S
C8 O0 1.315 . S
C8 O3 1.279 . S
C9 O10 1.315 . S
C9 O11 1.279 . S
O10 Cd2 2.223 . S
O10 C9 1.315 . S
O11 Cd1 2.240 . S
O11 C9 1.279 . S
O12 Cd2 2.297 . S
O12 C7 1.247 . S
O13 Cd2 2.439 . S
O13 C7 1.208 . S
O14 Cd15 2.223 . S
O14 C22 1.315 . S
Cd15 O14 2.223 . S
Cd15 O18 2.297 . S
Cd15 O19 2.439 . S
Cd15 O25 2.240 . S
Cd16 O17 2.240 . S
Cd16 O24 2.223 . S
Cd16 O26 2.297 . S
Cd16 O27 2.439 . S
O17 Cd16 2.240 . S
O17 C22 1.279 . S
O18 Cd15 2.297 . S
O18 C20 1.247 . S
O19 Cd15 2.439 . S
O19 C20 1.208 . S
C20 O18 1.247 . S
C20 O19 1.208 . S
C21 O26 1.247 . S
C21 O27 1.208 . S
C22 O14 1.315 . S
C22 O17 1.279 . S
C23 O24 1.315 . S
C23 O25 1.279 . S
O24 Cd16 2.223 . S
O24 C23 1.315 . S
O25 Cd15 2.240 . S
O25 C23 1.279 . S
O26 Cd16 2.297 . S
O26 C21 1.247 . S
O27 Cd16 2.439 . S
O27 C21 1.208 . S
O28 Cd29 2.223 . S
O28 C36 1.315 . S
Cd29 O28 2.223 . S
Cd29 O32 2.297 . S
Cd29 O33 2.439 . S
Cd29 O39 2.240 . S
Cd30 O31 2.240 . S
Cd30 O38 2.223 . S
Cd30 O40 2.297 . S
Cd30 O41 2.439 . S
O31 Cd30 2.240 . S
O31 C36 1.279 . S
O32 Cd29 2.297 . S
O32 C34 1.247 . S
O33 Cd29 2.439 . S
O33 C34 1.208 . S
C34 O32 1.247 . S
C34 O33 1.208 . S
C35 O40 1.247 . S
C35 O41 1.208 . S
C36 O28 1.315 . S
C36 O31 1.279 . S
C37 O38 1.315 . S
C37 O39 1.279 . S
O38 Cd30 2.223 . S
O38 C37 1.315 . S
O39 Cd29 2.240 . S
O39 C37 1.279 . S
O40 Cd30 2.297 . S
O40 C35 1.247 . S
O41 Cd30 2.439 . S
O41 C35 1.208 . S
O42 Cd43 2.223 . S
O42 C50 1.315 . S
Cd43 O42 2.223 . S
Cd43 O46 2.297 . S
Cd43 O47 2.439 . S
Cd43 O53 2.240 . S
Cd44 O45 2.240 . S
Cd44 O52 2.223 . S
Cd44 O54 2.297 . S
Cd44 O55 2.439 . S
O45 Cd44 2.240 . S
O45 C50 1.279 . S
O46 Cd43 2.297 . S
O46 C48 1.247 . S
O47 Cd43 2.439 . S
O47 C48 1.208 . S
C48 O46 1.247 . S
C48 O47 1.208 . S
C49 O54 1.247 . S
C49 O55 1.208 . S
C50 O42 1.315 . S
C50 O45 1.279 . S
C51 O52 1.315 . S
C51 O53 1.279 . S
O52 Cd44 2.223 . S
O52 C51 1.315 . S
O53 Cd43 2.240 . S
O53 C51 1.279 . S
O54 Cd44 2.297 . S
O54 C49 1.247 . S
O55 Cd44 2.439 . S
O55 C49 1.208 . S
O56 Cd57 2.223 . S
O56 C64 1.315 . S
Cd57 O56 2.223 . S
Cd57 O60 2.297 . S
Cd57 O61 2.439 . S
Cd57 O67 2.240 . S
Cd58 O59 2.240 . S
Cd58 O66 2.223 . S
Cd58 O68 2.297 . S
Cd58 O69 2.439 . S
O59 Cd58 2.240 . S
O59 C64 1.279 . S
O60 Cd57 2.297 . S
O60 C62 1.247 . S
O61 Cd57 2.439 . S
O61 C62 1.208 . S
C62 O60 1.247 . S
C62 O61 1.208 . S
C63 O68 1.247 . S
C63 O69 1.208 . S
C64 O56 1.315 . S
C64 O59 1.279 . S
C65 O66 1.315 . S
C65 O67 1.279 . S
O66 Cd58 2.223 . S
O66 C65 1.315 . S
O67 Cd57 2.240 . S
O67 C65 1.279 . S
O68 Cd58 2.297 . S
O68 C63 1.247 . S
O69 Cd58 2.439 . S
O69 C63 1.208 . S
O70 Cd71 2.223 . S
O70 C78 1.315 . S
Cd71 O70 2.223 . S
Cd71 O74 2.297 . S
Cd71 O75 2.439 . S
Cd71 O81 2.240 . S
Cd72 O73 2.240 . S
Cd72 O80 2.223 . S
Cd72 O82 2.297 . S
Cd72 O83 2.439 . S
O73 Cd72 2.240 . S
O73 C78 1.279 . S
O74 Cd71 2.297 . S
O74 C76 1.247 . S
O75 Cd71 2.439 . S
O75 C76 1.208 . S
C76 O74 1.247 . S
C76 O75 1.208 . S
C77 O82 1.247 . S
C77 O83 1.208 . S
C78 O70 1.315 . S
C78 O73 1.279 . S
C79 O80 1.315 . S
C79 O81 1.279 . S
O80 Cd72 2.223 . S
O80 C79 1.315 . S
O81 Cd71 2.240 . S
O81 C79 1.279 . S
O82 Cd72 2.297 . S
O82 C77 1.247 . S
O83 Cd72 2.439 . S
O83 C77 1.208 . S
O84 Cd85 2.223 . S
O84 C92 1.315 . S
Cd85 O84 2.223 . S
Cd85 O88 2.297 . S
Cd85 O89 2.439 . S
Cd85 O95 2.240 . S
Cd86 O87 2.240 . S
Cd86 O94 2.223 . S
Cd86 O96 2.297 . S
Cd86 O97 2.439 . S
O87 Cd86 2.240 . S
O87 C92 1.279 . S
O88 Cd85 2.297 . S
O88 C90 1.247 . S
O89 Cd85 2.439 . S
O89 C90 1.208 . S
C90 O88 1.247 . S
C90 O89 1.208 . S
C91 O96 1.247 . S
C91 O97 1.208 . S
C92 O84 1.315 . S
C92 O87 1.279 . S
C93 O94 1.315 . S
C93 O95 1.279 . S
O94 Cd86 2.223 . S
O94 C93 1.315 . S
O95 Cd85 2.240 . S
O95 C93 1.279 . S
O96 Cd86 2.297 . S
O96 C91 1.247 . S
O97 Cd86 2.439 . S
O97 C91 1.208 . S
O98 Cd99 2.223 . S
O98 C106 1.315 . S
Cd99 O98 2.223 . S
Cd99 O102 2.297 . S
Cd99 O103 2.439 . S
Cd99 O109 2.240 . S
Cd100 O101 2.240 . S
Cd100 O108 2.223 . S
Cd100 O110 2.297 . S
Cd100 O111 2.439 . S
O101 Cd100 2.240 . S
O101 C106 1.279 . S
O102 Cd99 2.297 . S
O102 C104 1.247 . S
O103 Cd99 2.439 . S
O103 C104 1.208 . S
C104 O102 1.247 . S
C104 O103 1.208 . S
C105 O110 1.247 . S
C105 O111 1.208 . S
C106 O98 1.315 . S
C106 O101 1.279 . S
C107 O108 1.315 . S
C107 O109 1.279 . S
O108 Cd100 2.223 . S
O108 C107 1.315 . S
O109 Cd99 2.240 . S
O109 C107 1.279 . S
O110 Cd100 2.297 . S
O110 C105 1.247 . S
O111 Cd100 2.439 . S
O111 C105 1.208 . S
O112 Cd113 2.223 . S
O112 C120 1.315 . S
Cd113 O112 2.223 . S
Cd113 O116 2.297 . S
Cd113 O117 2.439 . S
Cd113 O123 2.240 . S
Cd114 O115 2.240 . S
Cd114 O122 2.223 . S
Cd114 O124 2.297 . S
Cd114 O125 2.439 . S
O115 Cd114 2.240 . S
O115 C120 1.279 . S
O116 Cd113 2.297 . S
O116 C118 1.247 . S
O117 Cd113 2.439 . S
O117 C118 1.208 . S
C118 O116 1.247 . S
C118 O117 1.208 . S
C119 O124 1.247 . S
C119 O125 1.208 . S
C120 O112 1.315 . S
C120 O115 1.279 . S
C121 O122 1.315 . S
C121 O123 1.279 . S
O122 Cd114 2.223 . S
O122 C121 1.315 . S
O123 Cd113 2.240 . S
O123 C121 1.279 . S
O124 Cd114 2.297 . S
O124 C119 1.247 . S
O125 Cd114 2.439 . S
O125 C119 1.208 . S
O126 Cd127 2.223 . S
O126 C134 1.315 . S
Cd127 O126 2.223 . S
Cd127 O130 2.297 . S
Cd127 O131 2.439 . S
Cd127 O137 2.240 . S
Cd128 O129 2.240 . S
Cd128 O136 2.223 . S
Cd128 O138 2.297 . S
Cd128 O139 2.439 . S
O129 Cd128 2.240 . S
O129 C134 1.279 . S
O130 Cd127 2.297 . S
O130 C132 1.247 . S
O131 Cd127 2.439 . S
O131 C132 1.208 . S
C132 O130 1.247 . S
C132 O131 1.208 . S
C133 O138 1.247 . S
C133 O139 1.208 . S
C134 O126 1.315 . S
C134 O129 1.279 . S
C135 O136 1.315 . S
C135 O137 1.279 . S
O136 Cd128 2.223 . S
O136 C135 1.315 . S
O137 Cd127 2.240 . S
O137 C135 1.279 . S
O138 Cd128 2.297 . S
O138 C133 1.247 . S
O139 Cd128 2.439 . S
O139 C133 1.208 . S
O140 Cd141 2.223 . S
O140 C148 1.315 . S
Cd141 O140 2.223 . S
Cd141 O144 2.297 . S
Cd141 O145 2.439 . S
Cd141 O151 2.240 . S
Cd142 O143 2.240 . S
Cd142 O150 2.223 . S
Cd142 O152 2.297 . S
Cd142 O153 2.439 . S
O143 Cd142 2.240 . S
O143 C148 1.279 . S
O144 Cd141 2.297 . S
O144 C146 1.247 . S
O145 Cd141 2.439 . S
O145 C146 1.208 . S
C146 O144 1.247 . S
C146 O145 1.208 . S
C147 O152 1.247 . S
C147 O153 1.208 . S
C148 O140 1.315 . S
C148 O143 1.279 . S
C149 O150 1.315 . S
C149 O151 1.279 . S
O150 Cd142 2.223 . S
O150 C149 1.315 . S
O151 Cd141 2.240 . S
O151 C149 1.279 . S
O152 Cd142 2.297 . S
O152 C147 1.247 . S
O153 Cd142 2.439 . S
O153 C147 1.208 . S
O154 Cd155 2.223 . S
O154 C162 1.315 . S
Cd155 O154 2.223 . S
Cd155 O158 2.297 . S
Cd155 O159 2.439 . S
Cd155 O165 2.240 . S
Cd156 O157 2.240 . S
Cd156 O164 2.223 . S
Cd156 O166 2.297 . S
Cd156 O167 2.439 . S
O157 Cd156 2.240 . S
O157 C162 1.279 . S
O158 Cd155 2.297 . S
O158 C160 1.247 . S
O159 Cd155 2.439 . S
O159 C160 1.208 . S
C160 O158 1.247 . S
C160 O159 1.208 . S
C161 O166 1.247 . S
C161 O167 1.208 . S
C162 O154 1.315 . S
C162 O157 1.279 . S
C163 O164 1.315 . S
C163 O165 1.279 . S
O164 Cd156 2.223 . S
O164 C163 1.315 . S
O165 Cd155 2.240 . S
O165 C163 1.279 . S
O166 Cd156 2.297 . S
O166 C161 1.247 . S
O167 Cd156 2.439 . S
O167 C161 1.208 . S
O168 Cd169 2.223 . S
O168 C176 1.315 . S
Cd169 O168 2.223 . S
Cd169 O172 2.297 . S
Cd169 O173 2.439 . S
Cd169 O179 2.240 . S
Cd170 O171 2.240 . S
Cd170 O178 2.223 . S
Cd170 O180 2.297 . S
Cd170 O181 2.439 . S
O171 Cd170 2.240 . S
O171 C176 1.279 . S
O172 Cd169 2.297 . S
O172 C174 1.247 . S
O173 Cd169 2.439 . S
O173 C174 1.208 . S
C174 O172 1.247 . S
C174 O173 1.208 . S
C175 O180 1.247 . S
C175 O181 1.208 . S
C176 O168 1.315 . S
C176 O171 1.279 . S
C177 O178 1.315 . S
C177 O179 1.279 . S
O178 Cd170 2.223 . S
O178 C177 1.315 . S
O179 Cd169 2.240 . S
O179 C177 1.279 . S
O180 Cd170 2.297 . S
O180 C175 1.247 . S
O181 Cd170 2.439 . S
O181 C175 1.208 . S
O182 Cd183 2.223 . S
O182 C190 1.315 . S
Cd183 O182 2.223 . S
Cd183 O186 2.297 . S
Cd183 O187 2.439 . S
Cd183 O193 2.240 . S
Cd184 O185 2.240 . S
Cd184 O192 2.223 . S
Cd184 O194 2.297 . S
Cd184 O195 2.439 . S
O185 Cd184 2.240 . S
O185 C190 1.279 . S
O186 Cd183 2.297 . S
O186 C188 1.247 . S
O187 Cd183 2.439 . S
O187 C188 1.208 . S
C188 O186 1.247 . S
C188 O187 1.208 . S
C189 O194 1.247 . S
C189 O195 1.208 . S
C190 O182 1.315 . S
C190 O185 1.279 . S
C191 O192 1.315 . S
C191 O193 1.279 . S
O192 Cd184 2.223 . S
O192 C191 1.315 . S
O193 Cd183 2.240 . S
O193 C191 1.279 . S
O194 Cd184 2.297 . S
O194 C189 1.247 . S
O195 Cd184 2.439 . S
O195 C189 1.208 . S
O196 Cd197 2.223 . S
O196 C204 1.315 . S
Cd197 O196 2.223 . S
Cd197 O200 2.297 . S
Cd197 O201 2.439 . S
Cd197 O207 2.240 . S
Cd198 O199 2.240 . S
Cd198 O206 2.223 . S
Cd198 O208 2.297 . S
Cd198 O209 2.439 . S
O199 Cd198 2.240 . S
O199 C204 1.279 . S
O200 Cd197 2.297 . S
O200 C202 1.247 . S
O201 Cd197 2.439 . S
O201 C202 1.208 . S
C202 O200 1.247 . S
C202 O201 1.208 . S
C203 O208 1.247 . S
C203 O209 1.208 . S
C204 O196 1.315 . S
C204 O199 1.279 . S
C205 O206 1.315 . S
C205 O207 1.279 . S
O206 Cd198 2.223 . S
O206 C205 1.315 . S
O207 Cd197 2.240 . S
O207 C205 1.279 . S
O208 Cd198 2.297 . S
O208 C203 1.247 . S
O209 Cd198 2.439 . S
O209 C203 1.208 . S
O210 Cd211 2.223 . S
O210 C218 1.315 . S
Cd211 O210 2.223 . S
Cd211 O214 2.297 . S
Cd211 O215 2.439 . S
Cd211 O221 2.240 . S
Cd212 O213 2.240 . S
Cd212 O220 2.223 . S
Cd212 O222 2.297 . S
Cd212 O223 2.439 . S
O213 Cd212 2.240 . S
O213 C218 1.279 . S
O214 Cd211 2.297 . S
O214 C216 1.247 . S
O215 Cd211 2.439 . S
O215 C216 1.208 . S
C216 O214 1.247 . S
C216 O215 1.208 . S
C217 O222 1.247 . S
C217 O223 1.208 . S
C218 O210 1.315 . S
C218 O213 1.279 . S
C219 O220 1.315 . S
C219 O221 1.279 . S
O220 Cd212 2.223 . S
O220 C219 1.315 . S
O221 Cd211 2.240 . S
O221 C219 1.279 . S
O222 Cd212 2.297 . S
O222 C217 1.247 . S
O223 Cd212 2.439 . S
O223 C217 1.208 . S
H224 C236 0.930 . S
H225 C238 0.930 . S
H226 C239 0.930 . S
H227 C243 0.959 . S
H228 C243 0.959 . S
H229 C243 0.961 . S
H230 C244 0.960 . S
H231 C244 0.961 . S
H232 C244 0.959 . S
H233 C247 0.929 . S
H234 C248 0.931 . S
H235 C250 0.930 1_565 S
C236 H224 0.930 . S
C236 C237 1.399 . S
C236 C241 1.399 . S
C237 C236 1.399 . S
C237 C238 1.376 1_565 S
C238 H225 0.930 . S
C238 C237 1.376 1_545 S
C238 C239 1.388 . S
C239 H226 0.930 . S
C239 C238 1.388 . S
C239 C240 1.390 . S
C240 C239 1.390 . S
C240 C241 1.394 1_545 S
C240 C246 1.465 1_655 S
C241 C236 1.399 . S
C241 C240 1.394 1_565 S
C241 C242 1.516 1_655 S
C242 C241 1.516 1_455 S
C242 C243 1.502 . S
C242 C244 1.561 . S
C242 C245 1.526 . S
C243 H227 0.959 . S
C243 H228 0.959 . S
C243 H229 0.961 . S
C243 C242 1.502 . S
C244 H230 0.960 . S
C244 H231 0.961 . S
C244 H232 0.959 . S
C244 C242 1.561 . S
C245 C242 1.526 . S
C245 C246 1.396 1_565 S
C245 C250 1.390 1_565 S
C246 C240 1.465 1_455 S
C246 C245 1.396 1_545 S
C246 C247 1.399 . S
C247 H233 0.929 . S
C247 C246 1.399 . S
C247 C248 1.385 . S
C248 H234 0.931 . S
C248 C247 1.385 . S
C248 C249 1.389 . S
C249 C248 1.389 . S
C249 C250 1.387 . S
C250 H235 0.930 1_545 S
C250 C245 1.390 1_545 S
C250 C249 1.387 . S
H251 C263 0.930 . S
H252 C265 0.930 . S
H253 C266 0.930 . S
H254 C270 0.959 . S
H255 C270 0.959 . S
H256 C270 0.961 . S
H257 C271 0.960 . S
H258 C271 0.961 1_455 S
H259 C271 0.959 . S
H260 C274 0.929 . S
H261 C275 0.931 . S
H262 C277 0.930 . S
C263 H251 0.930 . S
C263 C264 1.399 . S
C263 C268 1.399 . S
C264 C263 1.399 . S
C264 C265 1.376 . S
C265 H252 0.930 . S
C265 C264 1.376 . S
C265 C266 1.388 . S
C266 H253 0.930 . S
C266 C265 1.388 . S
C266 C267 1.390 . S
C267 C266 1.390 . S
C267 C268 1.394 . S
C267 C273 1.465 . S
C268 C263 1.399 . S
C268 C267 1.394 . S
C268 C269 1.516 1_655 S
C269 C268 1.516 1_455 S
C269 C270 1.502 . S
C269 C271 1.561 1_455 S
C269 C272 1.526 . S
C270 H254 0.959 . S
C270 H255 0.959 . S
C270 H256 0.961 . S
C270 C269 1.502 . S
C271 H257 0.960 . S
C271 H258 0.961 1_655 S
C271 H259 0.959 . S
C271 C269 1.561 1_655 S
C272 C269 1.526 . S
C272 C273 1.396 1_455 S
C272 C277 1.390 . S
C273 C267 1.465 . S
C273 C272 1.396 1_655 S
C273 C274 1.399 . S
C274 H260 0.929 . S
C274 C273 1.399 . S
C274 C275 1.385 1_655 S
C275 H261 0.931 . S
C275 C274 1.385 1_455 S
C275 C276 1.389 . S
C276 C275 1.389 . S
C276 C277 1.387 . S
C277 H262 0.930 . S
C277 C272 1.390 . S
C277 C276 1.387 . S
H278 C290 0.930 . S
H279 C292 0.930 . S
H280 C293 0.930 . S
H281 C297 0.959 . S
H282 C297 0.959 . S
H283 C297 0.961 . S
H284 C298 0.960 . S
H285 C298 0.961 . S
H286 C298 0.959 . S
H287 C301 0.929 . S
H288 C302 0.931 . S
H289 C304 0.930 . S
C290 H278 0.930 . S
C290 C291 1.399 . S
C290 C295 1.399 . S
C291 C290 1.399 . S
C291 C292 1.376 . S
C292 H279 0.930 . S
C292 C291 1.376 . S
C292 C293 1.388 . S
C293 H280 0.930 . S
C293 C292 1.388 . S
C293 C294 1.390 . S
C294 C293 1.390 . S
C294 C295 1.394 . S
C294 C300 1.465 . S
C295 C290 1.399 . S
C295 C294 1.394 . S
C295 C296 1.516 . S
C296 C295 1.516 . S
C296 C297 1.502 . S
C296 C298 1.561 . S
C296 C299 1.526 . S
C297 H281 0.959 . S
C297 H282 0.959 . S
C297 H283 0.961 . S
C297 C296 1.502 . S
C298 H284 0.960 . S
C298 H285 0.961 . S
C298 H286 0.959 . S
C298 C296 1.561 . S
C299 C296 1.526 . S
C299 C300 1.396 . S
C299 C304 1.390 . S
C300 C294 1.465 . S
C300 C299 1.396 . S
C300 C301 1.399 . S
C301 H287 0.929 . S
C301 C300 1.399 . S
C301 C302 1.385 . S
C302 H288 0.931 . S
C302 C301 1.385 . S
C302 C303 1.389 . S
C303 C302 1.389 . S
C303 C304 1.387 . S
C304 H289 0.930 . S
C304 C299 1.390 . S
C304 C303 1.387 . S
H305 C317 0.930 . S
H306 C319 0.930 . S
H307 C320 0.930 . S
H308 C324 0.959 . S
H309 C324 0.959 . S
H310 C324 0.961 . S
H311 C325 0.960 1_545 S
H312 C325 0.961 . S
H313 C325 0.959 . S
H314 C328 0.929 . S
H315 C329 0.931 . S
H316 C331 0.930 . S
C317 H305 0.930 . S
C317 C318 1.399 . S
C317 C322 1.399 . S
C318 C317 1.399 . S
C318 C319 1.376 . S
C319 H306 0.930 . S
C319 C318 1.376 . S
C319 C320 1.388 . S
C320 H307 0.930 . S
C320 C319 1.388 . S
C320 C321 1.390 . S
C321 C320 1.390 . S
C321 C322 1.394 . S
C321 C327 1.465 1_545 S
C322 C317 1.399 . S
C322 C321 1.394 . S
C322 C323 1.516 . S
C323 C322 1.516 . S
C323 C324 1.502 . S
C323 C325 1.561 1_545 S
C323 C326 1.526 1_545 S
C324 H308 0.959 . S
C324 H309 0.959 . S
C324 H310 0.961 . S
C324 C323 1.502 . S
C325 H311 0.960 1_565 S
C325 H312 0.961 . S
C325 H313 0.959 . S
C325 C323 1.561 1_565 S
C326 C323 1.526 1_565 S
C326 C327 1.396 . S
C326 C331 1.390 . S
C327 C321 1.465 1_565 S
C327 C326 1.396 . S
C327 C328 1.399 . S
C328 H314 0.929 . S
C328 C327 1.399 . S
C328 C329 1.385 . S
C329 H315 0.931 . S
C329 C328 1.385 . S
C329 C330 1.389 . S
C330 C329 1.389 . S
C330 C331 1.387 . S
C331 H316 0.930 . S
C331 C326 1.390 . S
C331 C330 1.387 . S
H332 C344 0.930 . S
H333 C346 0.930 . S
H334 C347 0.930 . S
H335 C351 0.959 . S
H336 C351 0.959 . S
H337 C351 0.961 . S
H338 C352 0.960 1_455 S
H339 C352 0.961 . S
H340 C352 0.959 . S
H341 C355 0.929 . S
H342 C356 0.931 . S
H343 C358 0.930 . S
C344 H332 0.930 . S
C344 C345 1.399 . S
C344 C349 1.399 . S
C345 C344 1.399 . S
C345 C346 1.376 . S
C346 H333 0.930 . S
C346 C345 1.376 . S
C346 C347 1.388 . S
C347 H334 0.930 . S
C347 C346 1.388 . S
C347 C348 1.390 . S
C348 C347 1.390 . S
C348 C349 1.394 . S
C348 C354 1.465 1_455 S
C349 C344 1.399 . S
C349 C348 1.394 . S
C349 C350 1.516 . S
C350 C349 1.516 . S
C350 C351 1.502 . S
C350 C352 1.561 1_455 S
C350 C353 1.526 1_455 S
C351 H335 0.959 . S
C351 H336 0.959 . S
C351 H337 0.961 . S
C351 C350 1.502 . S
C352 H338 0.960 1_655 S
C352 H339 0.961 . S
C352 H340 0.959 . S
C352 C350 1.561 1_655 S
C353 C350 1.526 1_655 S
C353 C354 1.396 . S
C353 C358 1.390 . S
C354 C348 1.465 1_655 S
C354 C353 1.396 . S
C354 C355 1.399 . S
C355 H341 0.929 . S
C355 C354 1.399 . S
C355 C356 1.385 . S
C356 H342 0.931 . S
C356 C355 1.385 . S
C356 C357 1.389 . S
C357 C356 1.389 . S
C357 C358 1.387 . S
C358 H343 0.930 . S
C358 C353 1.390 . S
C358 C357 1.387 . S
H359 C371 0.930 . S
H360 C373 0.930 . S
H361 C374 0.930 . S
H362 C378 0.959 . S
H363 C378 0.959 . S
H364 C378 0.961 . S
H365 C379 0.960 . S
H366 C379 0.961 . S
H367 C379 0.959 . S
H368 C382 0.929 . S
H369 C383 0.931 . S
H370 C385 0.930 . S
C371 H359 0.930 . S
C371 C372 1.399 . S
C371 C376 1.399 . S
C372 C371 1.399 . S
C372 C373 1.376 . S
C373 H360 0.930 . S
C373 C372 1.376 . S
C373 C374 1.388 . S
C374 H361 0.930 . S
C374 C373 1.388 . S
C374 C375 1.390 . S
C375 C374 1.390 . S
C375 C376 1.394 . S
C375 C381 1.465 . S
C376 C371 1.399 . S
C376 C375 1.394 . S
C376 C377 1.516 . S
C377 C376 1.516 . S
C377 C378 1.502 . S
C377 C379 1.561 . S
C377 C380 1.526 . S
C378 H362 0.959 . S
C378 H363 0.959 . S
C378 H364 0.961 . S
C378 C377 1.502 . S
C379 H365 0.960 . S
C379 H366 0.961 . S
C379 H367 0.959 . S
C379 C377 1.561 . S
C380 C377 1.526 . S
C380 C381 1.396 . S
C380 C385 1.390 . S
C381 C375 1.465 . S
C381 C380 1.396 . S
C381 C382 1.399 . S
C382 H368 0.929 . S
C382 C381 1.399 . S
C382 C383 1.385 . S
C383 H369 0.931 . S
C383 C382 1.385 . S
C383 C384 1.389 . S
C384 C383 1.389 . S
C384 C385 1.387 . S
C385 H370 0.930 . S
C385 C380 1.390 . S
C385 C384 1.387 . S
H386 C398 0.930 . S
H387 C400 0.930 . S
H388 C401 0.930 . S
H389 C405 0.959 . S
H390 C405 0.959 . S
H391 C405 0.961 . S
H392 C406 0.960 . S
H393 C406 0.961 . S
H394 C406 0.959 . S
H395 C409 0.929 . S
H396 C410 0.931 . S
H397 C412 0.930 . S
C398 H386 0.930 . S
C398 C399 1.399 . S
C398 C403 1.399 . S
C399 C398 1.399 . S
C399 C400 1.376 . S
C400 H387 0.930 . S
C400 C399 1.376 . S
C400 C401 1.388 1_545 S
C401 H388 0.930 . S
C401 C400 1.388 1_565 S
C401 C402 1.390 . S
C402 C401 1.390 . S
C402 C403 1.394 1_565 S
C402 C408 1.465 . S
C403 C398 1.399 . S
C403 C402 1.394 1_545 S
C403 C404 1.516 . S
C404 C403 1.516 . S
C404 C405 1.502 . S
C404 C406 1.561 1_545 S
C404 C407 1.526 1_545 S
C405 H389 0.959 . S
C405 H390 0.959 . S
C405 H391 0.961 . S
C405 C404 1.502 . S
C406 H392 0.960 . S
C406 H393 0.961 . S
C406 H394 0.959 . S
C406 C404 1.561 1_565 S
C407 C404 1.526 1_565 S
C407 C408 1.396 . S
C407 C412 1.390 . S
C408 C402 1.465 . S
C408 C407 1.396 . S
C408 C409 1.399 . S
C409 H395 0.929 . S
C409 C408 1.399 . S
C409 C410 1.385 . S
C410 H396 0.931 . S
C410 C409 1.385 . S
C410 C411 1.389 . S
C411 C410 1.389 . S
C411 C412 1.387 . S
C412 H397 0.930 . S
C412 C407 1.390 . S
C412 C411 1.387 . S
H413 C425 0.930 1_655 S
H414 C427 0.930 . S
H415 C428 0.930 . S
H416 C432 0.959 . S
H417 C432 0.959 . S
H418 C432 0.961 . S
H419 C433 0.960 . S
H420 C433 0.961 1_565 S
H421 C433 0.965 1_565 S
H422 C436 0.929 . S
H423 C437 0.931 1_455 S
H424 C439 0.930 . S
C425 H413 0.930 1_455 S
C425 C426 1.399 . S
C425 C430 1.399 . S
C426 C425 1.399 . S
C426 C427 1.376 . S
C427 H414 0.930 . S
C427 C426 1.376 . S
C427 C428 1.388 . S
C428 H415 0.930 . S
C428 C427 1.388 . S
C428 C429 1.390 . S
C429 C428 1.390 . S
C429 C430 1.394 . S
C429 C435 1.465 1_545 S
C430 C425 1.399 . S
C430 C429 1.394 . S
C430 C431 1.516 1_455 S
C431 C430 1.516 1_655 S
C431 C432 1.502 . S
C431 C433 1.561 . S
C431 C434 1.526 1_545 S
C432 H416 0.959 . S
C432 H417 0.959 . S
C432 H418 0.961 . S
C432 C431 1.502 . S
C433 H419 0.960 . S
C433 H420 0.961 1_545 S
C433 H421 0.965 1_545 S
C433 C431 1.561 . S
C434 C431 1.526 1_565 S
C434 C435 1.396 1_655 S
C434 C439 1.390 . S
C435 C429 1.465 1_565 S
C435 C434 1.396 1_455 S
C435 C436 1.399 . S
C436 H422 0.929 . S
C436 C435 1.399 . S
C436 C437 1.385 1_455 S
C437 H423 0.931 1_655 S
C437 C436 1.385 1_655 S
C437 C438 1.389 . S
C438 C437 1.389 . S
C438 C439 1.387 . S
C439 H424 0.930 . S
C439 C434 1.390 . S
C439 C438 1.387 . S
H440 C452 0.930 . S
H441 C454 0.930 . S
H442 C455 0.930 . S
H443 C459 0.959 . S
H444 C459 0.959 . S
H445 C459 0.961 . S
H446 C460 0.960 . S
H447 C460 0.961 . S
H448 C460 0.959 . S
H449 C463 0.929 . S
H450 C464 0.931 . S
H451 C466 0.930 . S
C452 H440 0.930 . S
C452 C453 1.399 . S
C452 C457 1.399 . S
C453 C452 1.399 . S
C453 C454 1.376 . S
C454 H441 0.930 . S
C454 C453 1.376 . S
C454 C455 1.388 . S
C455 H442 0.930 . S
C455 C454 1.388 . S
C455 C456 1.390 . S
C456 C455 1.390 . S
C456 C457 1.394 . S
C456 C462 1.465 1_565 S
C457 C452 1.399 . S
C457 C456 1.394 . S
C457 C458 1.516 1_565 S
C458 C457 1.516 1_545 S
C458 C459 1.502 1_545 S
C458 C460 1.561 . S
C458 C461 1.526 . S
C459 H443 0.959 . S
C459 H444 0.959 . S
C459 H445 0.961 . S
C459 C458 1.502 1_565 S
C460 H446 0.960 . S
C460 H447 0.961 . S
C460 H448 0.959 . S
C460 C458 1.561 . S
C461 C458 1.526 . S
C461 C462 1.396 . S
C461 C466 1.390 . S
C462 C456 1.465 1_545 S
C462 C461 1.396 . S
C462 C463 1.399 . S
C463 H449 0.929 . S
C463 C462 1.399 . S
C463 C464 1.385 . S
C464 H450 0.931 . S
C464 C463 1.385 . S
C464 C465 1.389 . S
C465 C464 1.389 . S
C465 C466 1.387 . S
C466 H451 0.930 . S
C466 C461 1.390 . S
C466 C465 1.387 . S
H467 C479 0.930 . S
H468 C481 0.930 . S
H469 C482 0.930 . S
H470 C486 0.959 . S
H471 C486 0.959 . S
H472 C486 0.961 . S
H473 C487 0.960 1_565 S
H474 C487 0.961 1_455 S
H475 C487 0.959 . S
H476 C490 0.929 . S
H477 C491 0.931 . S
H478 C493 0.930 . S
C479 H467 0.930 . S
C479 C480 1.399 . S
C479 C484 1.399 . S
C480 C479 1.399 . S
C480 C481 1.376 . S
C481 H468 0.930 . S
C481 C480 1.376 . S
C481 C482 1.388 . S
C482 H469 0.930 . S
C482 C481 1.388 . S
C482 C483 1.390 . S
C483 C482 1.390 . S
C483 C484 1.394 . S
C483 C489 1.465 1_565 S
C484 C479 1.399 . S
C484 C483 1.394 . S
C484 C485 1.516 1_655 S
C485 C484 1.516 1_455 S
C485 C486 1.502 . S
C485 C487 1.561 1_465 S
C485 C488 1.526 1_565 S
C486 H470 0.959 . S
C486 H471 0.959 . S
C486 H472 0.961 . S
C486 C485 1.502 . S
C487 H473 0.960 1_545 S
C487 H474 0.961 1_655 S
C487 H475 0.959 . S
C487 C485 1.561 1_645 S
C488 C485 1.526 1_545 S
C488 C489 1.396 1_455 S
C488 C493 1.390 . S
C489 C483 1.465 1_545 S
C489 C488 1.396 1_655 S
C489 C490 1.399 . S
C490 H476 0.929 . S
C490 C489 1.399 . S
C490 C491 1.385 1_655 S
C491 H477 0.931 . S
C491 C490 1.385 1_455 S
C491 C492 1.389 . S
C492 C491 1.389 . S
C492 C493 1.387 . S
C493 H478 0.930 . S
C493 C488 1.390 . S
C493 C492 1.387 . S
H494 C506 0.930 . S
H495 C508 0.930 . S
H496 C509 0.930 . S
H497 C513 0.959 . S
H498 C513 0.959 1_655 S
H499 C513 0.961 . S
H500 C514 0.960 1_455 S
H501 C514 0.961 . S
H502 C514 0.959 . S
H503 C517 0.929 . S
H504 C518 0.931 . S
H505 C520 0.930 . S
C506 H494 0.930 . S
C506 C507 1.399 . S
C506 C511 1.399 . S
C507 C506 1.399 . S
C507 C508 1.376 . S
C508 H495 0.930 . S
C508 C507 1.376 . S
C508 C509 1.388 . S
C509 H496 0.930 . S
C509 C508 1.388 . S
C509 C510 1.390 . S
C510 C509 1.390 . S
C510 C511 1.394 . S
C510 C516 1.465 1_455 S
C511 C506 1.399 . S
C511 C510 1.394 . S
C511 C512 1.516 . S
C512 C511 1.516 . S
C512 C513 1.502 . S
C512 C514 1.561 1_455 S
C512 C515 1.526 1_455 S
C513 H497 0.959 . S
C513 H498 0.959 1_455 S
C513 H499 0.961 . S
C513 C512 1.502 . S
C514 H500 0.960 1_655 S
C514 H501 0.961 . S
C514 H502 0.959 . S
C514 C512 1.561 1_655 S
C515 C512 1.526 1_655 S
C515 C516 1.396 . S
C515 C520 1.390 . S
C516 C510 1.465 1_655 S
C516 C515 1.396 . S
C516 C517 1.399 . S
C517 H503 0.929 . S
C517 C516 1.399 . S
C517 C518 1.385 . S
C518 H504 0.931 . S
C518 C517 1.385 . S
C518 C519 1.389 . S
C519 C518 1.389 . S
C519 C520 1.387 . S
C520 H505 0.930 . S
C520 C515 1.390 . S
C520 C519 1.387 . S
H521 C533 0.930 . S
H522 C535 0.930 . S
H523 C536 0.930 . S
H524 C540 0.959 . S
H525 C540 0.959 . S
H526 C540 0.961 . S
H527 C541 0.960 . S
H528 C541 0.961 . S
H529 C541 0.959 . S
H530 C544 0.929 . S
H531 C545 0.931 . S
H532 C547 0.930 . S
C533 H521 0.930 . S
C533 C534 1.399 . S
C533 C538 1.399 . S
C534 C533 1.399 . S
C534 C535 1.376 . S
C535 H522 0.930 . S
C535 C534 1.376 . S
C535 C536 1.388 . S
C536 H523 0.930 . S
C536 C535 1.388 . S
C536 C537 1.390 . S
C537 C536 1.390 . S
C537 C538 1.394 . S
C537 C543 1.465 . S
C538 C533 1.399 . S
C538 C537 1.394 . S
C538 C539 1.516 . S
C539 C538 1.516 . S
C539 C540 1.502 . S
C539 C541 1.561 . S
C539 C542 1.526 . S
C540 H524 0.959 . S
C540 H525 0.959 . S
C540 H526 0.961 . S
C540 C539 1.502 . S
C541 H527 0.960 . S
C541 H528 0.961 . S
C541 H529 0.959 . S
C541 C539 1.561 . S
C542 C539 1.526 . S
C542 C543 1.396 . S
C542 C547 1.390 . S
C543 C537 1.465 . S
C543 C542 1.396 . S
C543 C544 1.399 . S
C544 H530 0.929 . S
C544 C543 1.399 . S
C544 C545 1.385 . S
C545 H531 0.931 . S
C545 C544 1.385 . S
C545 C546 1.389 . S
C546 C545 1.389 . S
C546 C547 1.387 . S
C547 H532 0.930 . S
C547 C542 1.390 . S
C547 C546 1.387 . S
H548 C560 0.930 . S
H549 C562 0.930 . S
H550 C563 0.930 . S
H551 C567 0.959 . S
H552 C567 0.959 . S
H553 C567 0.961 . S
H554 C568 0.960 . S
H555 C568 0.961 . S
H556 C568 0.959 . S
H557 C571 0.929 . S
H558 C572 0.931 . S
H559 C574 0.930 . S
C560 H548 0.930 . S
C560 C561 1.399 . S
C560 C565 1.399 . S
C561 C560 1.399 . S
C561 C562 1.376 . S
C562 H549 0.930 . S
C562 C561 1.376 . S
C562 C563 1.388 . S
C563 H550 0.930 . S
C563 C562 1.388 . S
C563 C564 1.390 . S
C564 C563 1.390 . S
C564 C565 1.394 . S
C564 C570 1.465 . S
C565 C560 1.399 . S
C565 C564 1.394 . S
C565 C566 1.516 . S
C566 C565 1.516 . S
C566 C567 1.502 . S
C566 C568 1.561 . S
C566 C569 1.526 . S
C567 H551 0.959 . S
C567 H552 0.959 . S
C567 H553 0.961 . S
C567 C566 1.502 . S
C568 H554 0.960 . S
C568 H555 0.961 . S
C568 H556 0.959 . S
C568 C566 1.561 . S
C569 C566 1.526 . S
C569 C570 1.396 . S
C569 C574 1.390 . S
C570 C564 1.465 . S
C570 C569 1.396 . S
C570 C571 1.399 . S
C571 H557 0.929 . S
C571 C570 1.399 . S
C571 C572 1.385 . S
C572 H558 0.931 . S
C572 C571 1.385 . S
C572 C573 1.389 . S
C573 C572 1.389 . S
C573 C574 1.387 . S
C574 H559 0.930 . S
C574 C569 1.390 . S
C574 C573 1.387 . S
H575 C587 0.930 . S
H576 C589 0.930 . S
H577 C590 0.930 . S
H578 C594 0.959 . S
H579 C594 0.959 . S
H580 C594 0.961 . S
H581 C595 0.960 1_565 S
H582 C595 0.961 . S
H583 C595 0.959 1_565 S
H584 C598 0.929 . S
H585 C599 0.931 . S
H586 C601 0.930 . S
C587 H575 0.930 . S
C587 C588 1.399 . S
C587 C592 1.399 . S
C588 C587 1.399 . S
C588 C589 1.376 . S
C589 H576 0.930 . S
C589 C588 1.376 . S
C589 C590 1.388 . S
C590 H577 0.930 . S
C590 C589 1.388 . S
C590 C591 1.390 . S
C591 C590 1.390 . S
C591 C592 1.394 . S
C591 C597 1.465 1_565 S
C592 C587 1.399 . S
C592 C591 1.394 . S
C592 C593 1.516 1_565 S
C593 C592 1.516 1_545 S
C593 C594 1.502 . S
C593 C595 1.561 . S
C593 C596 1.526 . S
C594 H578 0.959 . S
C594 H579 0.959 . S
C594 H580 0.961 . S
C594 C593 1.502 . S
C595 H581 0.960 1_545 S
C595 H582 0.961 . S
C595 H583 0.959 1_545 S
C595 C593 1.561 . S
C596 C593 1.526 . S
C596 C597 1.396 . S
C596 C601 1.390 . S
C597 C591 1.465 1_545 S
C597 C596 1.396 . S
C597 C598 1.399 . S
C598 H584 0.929 . S
C598 C597 1.399 . S
C598 C599 1.385 . S
C599 H585 0.931 . S
C599 C598 1.385 . S
C599 C600 1.389 . S
C600 C599 1.389 . S
C600 C601 1.387 . S
C601 H586 0.930 . S
C601 C596 1.390 . S
C601 C600 1.387 . S
H602 C614 0.930 . S
H603 C616 0.930 . S
H604 C617 0.930 . S
H605 C621 0.959 . S
H606 C621 0.959 . S
H607 C621 0.961 . S
H608 C622 0.960 . S
H609 C622 0.961 . S
H610 C622 0.959 . S
H611 C625 0.929 . S
H612 C626 0.931 . S
H613 C628 0.930 1_565 S
C614 H602 0.930 . S
C614 C615 1.399 . S
C614 C619 1.399 . S
C615 C614 1.399 . S
C615 C616 1.376 1_565 S
C616 H603 0.930 . S
C616 C615 1.376 1_545 S
C616 C617 1.388 . S
C617 H604 0.930 . S
C617 C616 1.388 . S
C617 C618 1.390 . S
C618 C617 1.390 . S
C618 C619 1.394 1_545 S
C618 C624 1.465 1_655 S
C619 C614 1.399 . S
C619 C618 1.394 1_565 S
C619 C620 1.516 1_655 S
C620 C619 1.516 1_455 S
C620 C621 1.502 . S
C620 C622 1.561 . S
C620 C623 1.526 . S
C621 H605 0.959 . S
C621 H606 0.959 . S
C621 H607 0.961 . S
C621 C620 1.502 . S
C622 H608 0.960 . S
C622 H609 0.961 . S
C622 H610 0.959 . S
C622 C620 1.561 . S
C623 C620 1.526 . S
C623 C624 1.396 1_565 S
C623 C628 1.390 1_565 S
C624 C618 1.465 1_455 S
C624 C623 1.396 1_545 S
C624 C625 1.399 . S
C625 H611 0.929 . S
C625 C624 1.399 . S
C625 C626 1.385 . S
C626 H612 0.931 . S
C626 C625 1.385 . S
C626 C627 1.389 . S
C627 C626 1.389 . S
C627 C628 1.387 . S
C628 H613 0.930 1_545 S
C628 C623 1.390 1_545 S
C628 C627 1.387 . S
H629 C641 0.930 . S
H630 C643 0.930 . S
H631 C644 0.930 . S
H632 C648 0.959 . S
H633 C648 0.959 . S
H634 C648 0.961 . S
H635 C649 0.960 . S
H636 C649 0.961 . S
H637 C649 0.959 . S
H638 C652 0.925 1_455 S
H639 C653 0.931 . S
H640 C655 0.930 . S
C641 H629 0.930 . S
C641 C642 1.399 . S
C641 C646 1.399 . S
C642 C641 1.399 . S
C642 C643 1.376 . S
C643 H630 0.930 . S
C643 C642 1.376 . S
C643 C644 1.388 . S
C644 H631 0.930 . S
C644 C643 1.388 . S
C644 C645 1.390 . S
C645 C644 1.390 . S
C645 C646 1.394 . S
C645 C651 1.476 . S
C646 C641 1.399 . S
C646 C645 1.394 . S
C646 C647 1.516 1_455 S
C647 C646 1.516 1_655 S
C647 C648 1.502 . S
C647 C649 1.561 1_655 S
C647 C650 1.526 . S
C648 H632 0.959 . S
C648 H633 0.959 . S
C648 H634 0.961 . S
C648 C647 1.502 . S
C649 H635 0.960 . S
C649 H636 0.961 . S
C649 H637 0.959 . S
C649 C647 1.561 1_455 S
C650 C647 1.526 . S
C650 C651 1.385 1_655 S
C650 C655 1.390 . S
C651 C645 1.476 . S
C651 C650 1.385 1_455 S
C651 C652 1.398 1_455 S
C652 H638 0.925 1_655 S
C652 C651 1.398 1_655 S
C652 C653 1.390 . S
C653 H639 0.931 . S
C653 C652 1.390 . S
C653 C654 1.389 . S
C654 C653 1.389 . S
C654 C655 1.387 . S
C655 H640 0.930 . S
C655 C650 1.390 . S
C655 C654 1.387 . S
H656 C668 0.930 . S
H657 C670 0.930 . S
H658 C671 0.930 . S
H659 C675 0.959 . S
H660 C675 0.959 . S
H661 C675 0.961 . S
H662 C676 0.960 . S
H663 C676 0.961 . S
H664 C676 0.959 . S
H665 C679 0.929 . S
H666 C680 0.931 . S
H667 C682 0.930 . S
C668 H656 0.930 . S
C668 C669 1.399 . S
C668 C673 1.399 . S
C669 C668 1.399 . S
C669 C670 1.376 . S
C670 H657 0.930 . S
C670 C669 1.376 . S
C670 C671 1.388 . S
C671 H658 0.930 . S
C671 C670 1.388 . S
C671 C672 1.390 . S
C672 C671 1.390 . S
C672 C673 1.394 . S
C672 C678 1.465 . S
C673 C668 1.399 . S
C673 C672 1.394 . S
C673 C674 1.516 . S
C674 C673 1.516 . S
C674 C675 1.502 . S
C674 C676 1.561 . S
C674 C677 1.526 . S
C675 H659 0.959 . S
C675 H660 0.959 . S
C675 H661 0.961 . S
C675 C674 1.502 . S
C676 H662 0.960 . S
C676 H663 0.961 . S
C676 H664 0.959 . S
C676 C674 1.561 . S
C677 C674 1.526 . S
C677 C678 1.396 . S
C677 C682 1.390 . S
C678 C672 1.465 . S
C678 C677 1.396 . S
C678 C679 1.399 . S
C679 H665 0.929 . S
C679 C678 1.399 . S
C679 C680 1.385 . S
C680 H666 0.931 . S
C680 C679 1.385 . S
C680 C681 1.389 . S
C681 C680 1.389 . S
C681 C682 1.387 . S
C682 H667 0.930 . S
C682 C677 1.390 . S
C682 C681 1.387 . S
H683 C695 0.930 . S
H684 C697 0.930 . S
H685 C698 0.930 . S
H686 C702 0.959 . S
H687 C702 0.959 . S
H688 C702 0.961 . S
H689 C703 0.960 . S
H690 C703 0.961 . S
H691 C703 0.959 . S
H692 C706 0.929 . S
H693 C707 0.931 . S
H694 C709 0.930 . S
C695 H683 0.930 . S
C695 C696 1.399 . S
C695 C700 1.399 . S
C696 C695 1.399 . S
C696 C697 1.376 . S
C697 H684 0.930 . S
C697 C696 1.376 . S
C697 C698 1.388 . S
C698 H685 0.930 . S
C698 C697 1.388 . S
C698 C699 1.390 . S
C699 C698 1.390 . S
C699 C700 1.394 . S
C699 C705 1.465 . S
C700 C695 1.399 . S
C700 C699 1.394 . S
C700 C701 1.516 . S
C701 C700 1.516 . S
C701 C702 1.502 . S
C701 C703 1.561 . S
C701 C704 1.526 . S
C702 H686 0.959 . S
C702 H687 0.959 . S
C702 H688 0.961 . S
C702 C701 1.502 . S
C703 H689 0.960 . S
C703 H690 0.961 . S
C703 H691 0.959 . S
C703 C701 1.561 . S
C704 C701 1.526 . S
C704 C705 1.396 . S
C704 C709 1.390 . S
C705 C699 1.465 . S
C705 C704 1.396 . S
C705 C706 1.399 . S
C706 H692 0.929 . S
C706 C705 1.399 . S
C706 C707 1.385 . S
C707 H693 0.931 . S
C707 C706 1.385 . S
C707 C708 1.389 . S
C708 C707 1.389 . S
C708 C709 1.387 . S
C709 H694 0.930 . S
C709 C704 1.390 . S
C709 C708 1.387 . S
H710 C722 0.930 . S
H711 C724 0.930 . S
H712 C725 0.930 . S
H713 C729 0.959 . S
H714 C729 0.959 . S
H715 C729 0.961 . S
H716 C730 0.960 . S
H717 C730 0.961 . S
H718 C730 0.959 . S
H719 C733 0.929 . S
H720 C734 0.931 . S
H721 C736 0.930 . S
C722 H710 0.930 . S
C722 C723 1.399 . S
C722 C727 1.399 . S
C723 C722 1.399 . S
C723 C724 1.376 . S
C724 H711 0.930 . S
C724 C723 1.376 . S
C724 C725 1.388 . S
C725 H712 0.930 . S
C725 C724 1.388 . S
C725 C726 1.390 . S
C726 C725 1.390 . S
C726 C727 1.394 . S
C726 C732 1.465 . S
C727 C722 1.399 . S
C727 C726 1.394 . S
C727 C728 1.516 . S
C728 C727 1.516 . S
C728 C729 1.502 . S
C728 C730 1.561 . S
C728 C731 1.526 . S
C729 H713 0.959 . S
C729 H714 0.959 . S
C729 H715 0.961 . S
C729 C728 1.502 . S
C730 H716 0.960 . S
C730 H717 0.961 . S
C730 H718 0.959 . S
C730 C728 1.561 . S
C731 C728 1.526 . S
C731 C732 1.396 . S
C731 C736 1.390 . S
C732 C726 1.465 . S
C732 C731 1.396 . S
C732 C733 1.399 . S
C733 H719 0.929 . S
C733 C732 1.399 . S
C733 C734 1.385 . S
C734 H720 0.931 . S
C734 C733 1.385 . S
C734 C735 1.389 . S
C735 C734 1.389 . S
C735 C736 1.387 . S
C736 H721 0.930 . S
C736 C731 1.390 . S
C736 C735 1.387 . S
H737 C749 0.930 . S
H738 C751 0.930 . S
H739 C752 0.930 . S
H740 C756 0.959 . S
H741 C756 0.959 . S
H742 C756 0.961 . S
H743 C757 0.960 . S
H744 C757 0.961 . S
H745 C757 0.959 . S
H746 C760 0.929 . S
H747 C761 0.931 . S
H748 C763 0.930 . S
C749 H737 0.930 . S
C749 C750 1.399 . S
C749 C754 1.399 . S
C750 C749 1.399 . S
C750 C751 1.376 . S
C751 H738 0.930 . S
C751 C750 1.376 . S
C751 C752 1.388 . S
C752 H739 0.930 . S
C752 C751 1.388 . S
C752 C753 1.390 . S
C753 C752 1.390 . S
C753 C754 1.394 . S
C753 C759 1.465 . S
C754 C749 1.399 . S
C754 C753 1.394 . S
C754 C755 1.516 . S
C755 C754 1.516 . S
C755 C756 1.502 . S
C755 C757 1.561 . S
C755 C758 1.526 . S
C756 H740 0.959 . S
C756 H741 0.959 . S
C756 H742 0.961 . S
C756 C755 1.502 . S
C757 H743 0.960 . S
C757 H744 0.961 . S
C757 H745 0.959 . S
C757 C755 1.561 . S
C758 C755 1.526 . S
C758 C759 1.396 . S
C758 C763 1.390 . S
C759 C753 1.465 . S
C759 C758 1.396 . S
C759 C760 1.399 . S
C760 H746 0.929 . S
C760 C759 1.399 . S
C760 C761 1.385 . S
C761 H747 0.931 . S
C761 C760 1.385 . S
C761 C762 1.389 . S
C762 C761 1.389 . S
C762 C763 1.387 . S
C763 H748 0.930 . S
C763 C758 1.390 . S
C763 C762 1.387 . S
H764 C776 0.930 . S
H765 C778 0.930 . S
H766 C779 0.930 . S
H767 C783 0.959 . S
H768 C783 0.959 . S
H769 C783 0.961 . S
H770 C784 0.960 . S
H771 C784 0.961 . S
H772 C784 0.959 . S
H773 C787 0.929 . S
H774 C788 0.931 . S
H775 C790 0.930 . S
C776 H764 0.930 . S
C776 C777 1.399 . S
C776 C781 1.399 . S
C777 C776 1.399 . S
C777 C778 1.376 . S
C778 H765 0.930 . S
C778 C777 1.376 . S
C778 C779 1.388 . S
C779 H766 0.930 . S
C779 C778 1.388 . S
C779 C780 1.390 . S
C780 C779 1.390 . S
C780 C781 1.394 . S
C780 C786 1.465 . S
C781 C776 1.399 . S
C781 C780 1.394 . S
C781 C782 1.516 . S
C782 C781 1.516 . S
C782 C783 1.502 . S
C782 C784 1.561 . S
C782 C785 1.526 . S
C783 H767 0.959 . S
C783 H768 0.959 . S
C783 H769 0.961 . S
C783 C782 1.502 . S
C784 H770 0.960 . S
C784 H771 0.961 . S
C784 H772 0.959 . S
C784 C782 1.561 . S
C785 C782 1.526 . S
C785 C786 1.396 . S
C785 C790 1.390 . S
C786 C780 1.465 . S
C786 C785 1.396 . S
C786 C787 1.399 . S
C787 H773 0.929 . S
C787 C786 1.399 . S
C787 C788 1.385 . S
C788 H774 0.931 . S
C788 C787 1.385 . S
C788 C789 1.389 . S
C789 C788 1.389 . S
C789 C790 1.387 . S
C790 H775 0.930 . S
C790 C785 1.390 . S
C790 C789 1.387 . S
H791 C803 0.930 . S
H792 C805 0.930 . S
H793 C806 0.930 . S
H794 C810 0.959 . S
H795 C810 0.959 . S
H796 C810 0.961 . S
H797 C811 0.960 . S
H798 C811 0.961 . S
H799 C811 0.959 . S
H800 C814 0.929 . S
H801 C815 0.931 . S
H802 C817 0.930 . S
C803 H791 0.930 . S
C803 C804 1.399 . S
C803 C808 1.399 . S
C804 C803 1.399 . S
C804 C805 1.376 . S
C805 H792 0.930 . S
C805 C804 1.376 . S
C805 C806 1.388 . S
C806 H793 0.930 . S
C806 C805 1.388 . S
C806 C807 1.390 . S
C807 C806 1.390 . S
C807 C808 1.394 . S
C807 C813 1.465 . S
C808 C803 1.399 . S
C808 C807 1.394 . S
C808 C809 1.516 . S
C809 C808 1.516 . S
C809 C810 1.502 . S
C809 C811 1.561 . S
C809 C812 1.526 . S
C810 H794 0.959 . S
C810 H795 0.959 . S
C810 H796 0.961 . S
C810 C809 1.502 . S
C811 H797 0.960 . S
C811 H798 0.961 . S
C811 H799 0.959 . S
C811 C809 1.561 . S
C812 C809 1.526 . S
C812 C813 1.396 . S
C812 C817 1.390 . S
C813 C807 1.465 . S
C813 C812 1.396 . S
C813 C814 1.399 . S
C814 H800 0.929 . S
C814 C813 1.399 . S
C814 C815 1.385 . S
C815 H801 0.931 . S
C815 C814 1.385 . S
C815 C816 1.389 . S
C816 C815 1.389 . S
C816 C817 1.387 . S
C817 H802 0.930 . S
C817 C812 1.390 . S
C817 C816 1.387 . S
H818 C830 0.930 . S
H819 C832 0.930 . S
H820 C833 0.930 . S
H821 C837 0.959 . S
H822 C837 0.959 . S
H823 C837 0.961 . S
H824 C838 0.960 . S
H825 C838 0.961 . S
H826 C838 0.959 . S
H827 C841 0.929 . S
H828 C842 0.931 . S
H829 C844 0.930 . S
C830 H818 0.930 . S
C830 C831 1.399 . S
C830 C835 1.399 . S
C831 C830 1.399 . S
C831 C832 1.376 . S
C832 H819 0.930 . S
C832 C831 1.376 . S
C832 C833 1.388 . S
C833 H820 0.930 . S
C833 C832 1.388 . S
C833 C834 1.390 . S
C834 C833 1.390 . S
C834 C835 1.394 . S
C834 C840 1.465 . S
C835 C830 1.399 . S
C835 C834 1.394 . S
C835 C836 1.516 . S
C836 C835 1.516 . S
C836 C837 1.502 . S
C836 C838 1.561 . S
C836 C839 1.526 . S
C837 H821 0.959 . S
C837 H822 0.959 . S
C837 H823 0.961 . S
C837 C836 1.502 . S
C838 H824 0.960 . S
C838 H825 0.961 . S
C838 H826 0.959 . S
C838 C836 1.561 . S
C839 C836 1.526 . S
C839 C840 1.396 . S
C839 C844 1.390 . S
C840 C834 1.465 . S
C840 C839 1.396 . S
C840 C841 1.399 . S
C841 H827 0.929 . S
C841 C840 1.399 . S
C841 C842 1.385 . S
C842 H828 0.931 . S
C842 C841 1.385 . S
C842 C843 1.389 . S
C843 C842 1.389 . S
C843 C844 1.387 . S
C844 H829 0.930 . S
C844 C839 1.390 . S
C844 C843 1.387 . S
H845 C857 0.930 . S
H846 C859 0.930 . S
H847 C860 0.930 . S
H848 C864 0.959 . S
H849 C864 0.959 . S
H850 C864 0.961 . S
H851 C865 0.960 . S
H852 C865 0.961 . S
H853 C865 0.959 . S
H854 C868 0.929 . S
H855 C869 0.931 . S
H856 C871 0.930 . S
C857 H845 0.930 . S
C857 C858 1.399 . S
C857 C862 1.399 . S
C858 C857 1.399 . S
C858 C859 1.376 . S
C859 H846 0.930 . S
C859 C858 1.376 . S
C859 C860 1.388 . S
C860 H847 0.930 . S
C860 C859 1.388 . S
C860 C861 1.390 . S
C861 C860 1.390 . S
C861 C862 1.394 . S
C861 C867 1.465 . S
C862 C857 1.399 . S
C862 C861 1.394 . S
C862 C863 1.516 . S
C863 C862 1.516 . S
C863 C864 1.502 . S
C863 C865 1.561 . S
C863 C866 1.526 . S
C864 H848 0.959 . S
C864 H849 0.959 . S
C864 H850 0.961 . S
C864 C863 1.502 . S
C865 H851 0.960 . S
C865 H852 0.961 . S
C865 H853 0.959 . S
C865 C863 1.561 . S
C866 C863 1.526 . S
C866 C867 1.396 . S
C866 C871 1.390 . S
C867 C861 1.465 . S
C867 C866 1.396 . S
C867 C868 1.399 . S
C868 H854 0.929 . S
C868 C867 1.399 . S
C868 C869 1.385 . S
C869 H855 0.931 . S
C869 C868 1.385 . S
C869 C870 1.389 . S
C870 C869 1.389 . S
C870 C871 1.387 . S
C871 H856 0.930 . S
C871 C866 1.390 . S
C871 C870 1.387 . S
H872 C884 0.930 . S
H873 C886 0.930 . S
H874 C887 0.930 . S
H875 C891 0.959 . S
H876 C891 0.959 . S
H877 C891 0.961 . S
H878 C892 0.960 . S
H879 C892 0.961 . S
H880 C892 0.959 . S
H881 C895 0.929 . S
H882 C896 0.931 . S
H883 C898 0.930 . S
C884 H872 0.930 . S
C884 C885 1.399 . S
C884 C889 1.399 . S
C885 C884 1.399 . S
C885 C886 1.376 . S
C886 H873 0.930 . S
C886 C885 1.376 . S
C886 C887 1.388 . S
C887 H874 0.930 . S
C887 C886 1.388 . S
C887 C888 1.390 . S
C888 C887 1.390 . S
C888 C889 1.394 . S
C888 C894 1.465 . S
C889 C884 1.399 . S
C889 C888 1.394 . S
C889 C890 1.516 . S
C890 C889 1.516 . S
C890 C891 1.502 . S
C890 C892 1.561 . S
C890 C893 1.526 . S
C891 H875 0.959 . S
C891 H876 0.959 . S
C891 H877 0.961 . S
C891 C890 1.502 . S
C892 H878 0.960 . S
C892 H879 0.961 . S
C892 H880 0.959 . S
C892 C890 1.561 . S
C893 C890 1.526 . S
C893 C894 1.396 . S
C893 C898 1.390 . S
C894 C888 1.465 . S
C894 C893 1.396 . S
C894 C895 1.399 . S
C895 H881 0.929 . S
C895 C894 1.399 . S
C895 C896 1.385 . S
C896 H882 0.931 . S
C896 C895 1.385 . S
C896 C897 1.389 . S
C897 C896 1.389 . S
C897 C898 1.387 . S
C898 H883 0.930 . S
C898 C893 1.390 . S
C898 C897 1.387 . S
H899 C911 0.930 . S
H900 C913 0.930 . S
H901 C914 0.930 . S
H902 C918 0.959 . S
H903 C918 0.959 . S
H904 C918 0.961 . S
H905 C919 0.960 . S
H906 C919 0.961 . S
H907 C919 0.959 . S
H908 C922 0.929 . S
H909 C923 0.931 . S
H910 C925 0.930 . S
C911 H899 0.930 . S
C911 C912 1.399 . S
C911 C916 1.399 . S
C912 C911 1.399 . S
C912 C913 1.376 . S
C913 H900 0.930 . S
C913 C912 1.376 . S
C913 C914 1.388 . S
C914 H901 0.930 . S
C914 C913 1.388 . S
C914 C915 1.390 . S
C915 C914 1.390 . S
C915 C916 1.394 . S
C915 C921 1.465 . S
C916 C911 1.399 . S
C916 C915 1.394 . S
C916 C917 1.516 . S
C917 C916 1.516 . S
C917 C918 1.502 . S
C917 C919 1.561 . S
C917 C920 1.526 . S
C918 H902 0.959 . S
C918 H903 0.959 . S
C918 H904 0.961 . S
C918 C917 1.502 . S
C919 H905 0.960 . S
C919 H906 0.961 . S
C919 H907 0.959 . S
C919 C917 1.561 . S
C920 C917 1.526 . S
C920 C921 1.396 . S
C920 C925 1.390 . S
C921 C915 1.465 . S
C921 C920 1.396 . S
C921 C922 1.399 . S
C922 H908 0.929 . S
C922 C921 1.399 . S
C922 C923 1.385 . S
C923 H909 0.931 . S
C923 C922 1.385 . S
C923 C924 1.389 . S
C924 C923 1.389 . S
C924 C925 1.387 . S
C925 H910 0.930 . S
C925 C920 1.390 . S
C925 C924 1.387 . S
H926 C938 0.930 . S
H927 C940 0.930 . S
H928 C941 0.930 . S
H929 C945 0.959 . S
H930 C945 0.959 . S
H931 C945 0.961 . S
H932 C946 0.960 . S
H933 C946 0.961 . S
H934 C946 0.959 . S
H935 C949 0.929 . S
H936 C950 0.931 . S
H937 C952 0.930 . S
C938 H926 0.930 . S
C938 C939 1.399 . S
C938 C943 1.399 . S
C939 C938 1.399 . S
C939 C940 1.376 . S
C940 H927 0.930 . S
C940 C939 1.376 . S
C940 C941 1.388 . S
C941 H928 0.930 . S
C941 C940 1.388 . S
C941 C942 1.390 . S
C942 C941 1.390 . S
C942 C943 1.394 . S
C942 C948 1.465 . S
C943 C938 1.399 . S
C943 C942 1.394 . S
C943 C944 1.516 . S
C944 C943 1.516 . S
C944 C945 1.502 . S
C944 C946 1.561 . S
C944 C947 1.526 . S
C945 H929 0.959 . S
C945 H930 0.959 . S
C945 H931 0.961 . S
C945 C944 1.502 . S
C946 H932 0.960 . S
C946 H933 0.961 . S
C946 H934 0.959 . S
C946 C944 1.561 . S
C947 C944 1.526 . S
C947 C948 1.396 . S
C947 C952 1.390 . S
C948 C942 1.465 . S
C948 C947 1.396 . S
C948 C949 1.399 . S
C949 H935 0.929 . S
C949 C948 1.399 . S
C949 C950 1.385 . S
C950 H936 0.931 . S
C950 C949 1.385 . S
C950 C951 1.389 . S
C951 C950 1.389 . S
C951 C952 1.387 . S
C952 H937 0.930 . S
C952 C947 1.390 . S
C952 C951 1.387 . S
H953 C965 0.930 . S
H954 C967 0.930 . S
H955 C968 0.930 . S
H956 C972 0.954 1_556 S
H957 C972 0.986 . S
H958 C972 0.935 1_556 S
H959 C973 0.960 1_556 S
H960 C973 0.961 . S
H961 C973 0.959 . S
H962 C976 0.929 . S
H963 C977 0.931 . S
H964 C979 0.930 . S
C965 H953 0.930 . S
C965 C966 1.399 . S
C965 C970 1.399 . S
C966 C965 1.399 . S
C966 C967 1.376 . S
C967 H954 0.930 . S
C967 C966 1.376 . S
C967 C968 1.388 . S
C968 H955 0.930 . S
C968 C967 1.388 . S
C968 C969 1.390 . S
C969 C968 1.390 . S
C969 C970 1.394 . S
C969 C975 1.465 1_556 S
C970 C965 1.399 . S
C970 C969 1.394 . S
C970 C971 1.516 1_556 S
C971 C970 1.516 1_554 S
C971 C972 1.504 . S
C971 C973 1.561 . S
C971 C974 1.526 . S
C972 H956 0.954 1_554 S
C972 H957 0.986 . S
C972 H958 0.935 1_554 S
C972 C971 1.504 . S
C973 H959 0.960 1_554 S
C973 H960 0.961 . S
C973 H961 0.959 . S
C973 C971 1.561 . S
C974 C971 1.526 . S
C974 C975 1.396 . S
C974 C979 1.390 . S
C975 C969 1.465 1_554 S
C975 C974 1.396 . S
C975 C976 1.399 . S
C976 H962 0.929 . S
C976 C975 1.399 . S
C976 C977 1.385 . S
C977 H963 0.931 . S
C977 C976 1.385 . S
C977 C978 1.389 . S
C978 C977 1.389 . S
C978 C979 1.387 . S
C979 H964 0.930 . S
C979 C974 1.390 . S
C979 C978 1.387 . S
H980 C992 0.930 . S
H981 C994 0.930 . S
H982 C995 0.930 . S
H983 C999 0.959 . S
H984 C999 0.959 . S
H985 C999 0.961 1_554 S
H986 C1000 0.960 1_554 S
H987 C1000 0.961 . S
H988 C1000 0.959 . S
H989 C1003 0.929 . S
H990 C1004 0.931 . S
H991 C1006 0.930 . S
C992 H980 0.930 . S
C992 C993 1.399 . S
C992 C997 1.399 . S
C993 C992 1.399 . S
C993 C994 1.376 . S
C994 H981 0.930 . S
C994 C993 1.376 . S
C994 C995 1.388 . S
C995 H982 0.930 . S
C995 C994 1.388 . S
C995 C996 1.390 . S
C996 C995 1.390 . S
C996 C997 1.394 . S
C996 C1002 1.465 1_554 S
C997 C992 1.399 . S
C997 C996 1.394 . S
C997 C998 1.516 1_554 S
C998 C997 1.516 1_556 S
C998 C999 1.502 . S
C998 C1000 1.561 . S
C998 C1001 1.526 . S
C999 H983 0.959 . S
C999 H984 0.959 . S
C999 H985 0.961 1_556 S
C999 C998 1.502 . S
C1000 H986 0.960 1_556 S
C1000 H987 0.961 . S
C1000 H988 0.959 . S
C1000 C998 1.561 . S
C1001 C998 1.526 . S
C1001 C1002 1.396 . S
C1001 C1006 1.390 . S
C1002 C996 1.465 1_556 S
C1002 C1001 1.396 . S
C1002 C1003 1.399 . S
C1003 H989 0.929 . S
C1003 C1002 1.399 . S
C1003 C1004 1.385 . S
C1004 H990 0.931 . S
C1004 C1003 1.385 . S
C1004 C1005 1.389 . S
C1005 C1004 1.389 . S
C1005 C1006 1.387 . S
C1006 H991 0.930 . S
C1006 C1001 1.390 . S
C1006 C1005 1.387 . S
H1007 C1019 0.930 . S
H1008 C1021 0.930 . S
H1009 C1022 0.930 . S
H1010 C1026 0.959 . S
H1011 C1026 0.959 . S
H1012 C1026 0.961 . S
H1013 C1027 0.960 . S
H1014 C1027 0.961 . S
H1015 C1027 0.959 . S
H1016 C1030 0.929 . S
H1017 C1031 0.931 . S
H1018 C1033 0.930 . S
C1019 H1007 0.930 . S
C1019 C1020 1.399 . S
C1019 C1024 1.399 . S
C1020 C1019 1.399 . S
C1020 C1021 1.376 . S
C1021 H1008 0.930 . S
C1021 C1020 1.376 . S
C1021 C1022 1.388 . S
C1022 H1009 0.930 . S
C1022 C1021 1.388 . S
C1022 C1023 1.390 . S
C1023 C1022 1.390 . S
C1023 C1024 1.394 . S
C1023 C1029 1.465 . S
C1024 C1019 1.399 . S
C1024 C1023 1.394 . S
C1024 C1025 1.516 . S
C1025 C1024 1.516 . S
C1025 C1026 1.502 . S
C1025 C1027 1.561 . S
C1025 C1028 1.526 . S
C1026 H1010 0.959 . S
C1026 H1011 0.959 . S
C1026 H1012 0.961 . S
C1026 C1025 1.502 . S
C1027 H1013 0.960 . S
C1027 H1014 0.961 . S
C1027 H1015 0.959 . S
C1027 C1025 1.561 . S
C1028 C1025 1.526 . S
C1028 C1029 1.396 . S
C1028 C1033 1.390 . S
C1029 C1023 1.465 . S
C1029 C1028 1.396 . S
C1029 C1030 1.399 . S
C1030 H1016 0.929 . S
C1030 C1029 1.399 . S
C1030 C1031 1.385 . S
C1031 H1017 0.931 . S
C1031 C1030 1.385 . S
C1031 C1032 1.389 . S
C1032 C1031 1.389 . S
C1032 C1033 1.387 . S
C1033 H1018 0.930 . S
C1033 C1028 1.390 . S
C1033 C1032 1.387 . S
H1034 C1046 0.930 . S
H1035 C1048 0.930 . S
H1036 C1049 0.930 . S
H1037 C1053 0.959 . S
H1038 C1053 0.959 . S
H1039 C1053 0.961 . S
H1040 C1054 0.960 . S
H1041 C1054 0.961 . S
H1042 C1054 0.959 . S
H1043 C1057 0.929 . S
H1044 C1058 0.931 . S
H1045 C1060 0.930 . S
C1046 H1034 0.930 . S
C1046 C1047 1.399 . S
C1046 C1051 1.399 . S
C1047 C1046 1.399 . S
C1047 C1048 1.376 . S
C1048 H1035 0.930 . S
C1048 C1047 1.376 . S
C1048 C1049 1.388 . S
C1049 H1036 0.930 . S
C1049 C1048 1.388 . S
C1049 C1050 1.390 . S
C1050 C1049 1.390 . S
C1050 C1051 1.394 . S
C1050 C1056 1.465 . S
C1051 C1046 1.399 . S
C1051 C1050 1.394 . S
C1051 C1052 1.516 . S
C1052 C1051 1.516 . S
C1052 C1053 1.502 . S
C1052 C1054 1.561 . S
C1052 C1055 1.526 . S
C1053 H1037 0.959 . S
C1053 H1038 0.959 . S
C1053 H1039 0.961 . S
C1053 C1052 1.502 . S
C1054 H1040 0.960 . S
C1054 H1041 0.961 . S
C1054 H1042 0.959 . S
C1054 C1052 1.561 . S
C1055 C1052 1.526 . S
C1055 C1056 1.396 . S
C1055 C1060 1.390 . S
C1056 C1050 1.465 . S
C1056 C1055 1.396 . S
C1056 C1057 1.399 . S
C1057 H1043 0.929 . S
C1057 C1056 1.399 . S
C1057 C1058 1.385 . S
C1058 H1044 0.931 . S
C1058 C1057 1.385 . S
C1058 C1059 1.389 . S
C1059 C1058 1.389 . S
C1059 C1060 1.387 . S
C1060 H1045 0.930 . S
C1060 C1055 1.390 . S
C1060 C1059 1.387 . S
H1061 C1073 0.930 . S
H1062 C1075 0.930 . S
H1063 C1076 0.930 . S
H1064 C1080 0.959 . S
H1065 C1080 0.959 . S
H1066 C1080 0.961 . S
H1067 C1081 0.960 . S
H1068 C1081 0.961 . S
H1069 C1081 0.959 . S
H1070 C1084 0.929 . S
H1071 C1085 0.931 . S
H1072 C1087 0.930 . S
C1073 H1061 0.930 . S
C1073 C1074 1.399 . S
C1073 C1078 1.399 . S
C1074 C1073 1.399 . S
C1074 C1075 1.376 . S
C1075 H1062 0.930 . S
C1075 C1074 1.376 . S
C1075 C1076 1.388 . S
C1076 H1063 0.930 . S
C1076 C1075 1.388 . S
C1076 C1077 1.390 . S
C1077 C1076 1.390 . S
C1077 C1078 1.394 . S
C1077 C1083 1.465 . S
C1078 C1073 1.399 . S
C1078 C1077 1.394 . S
C1078 C1079 1.516 . S
C1079 C1078 1.516 . S
C1079 C1080 1.502 . S
C1079 C1081 1.561 . S
C1079 C1082 1.526 . S
C1080 H1064 0.959 . S
C1080 H1065 0.959 . S
C1080 H1066 0.961 . S
C1080 C1079 1.502 . S
C1081 H1067 0.960 . S
C1081 H1068 0.961 . S
C1081 H1069 0.959 . S
C1081 C1079 1.561 . S
C1082 C1079 1.526 . S
C1082 C1083 1.396 . S
C1082 C1087 1.390 . S
C1083 C1077 1.465 . S
C1083 C1082 1.396 . S
C1083 C1084 1.399 . S
C1084 H1070 0.929 . S
C1084 C1083 1.399 . S
C1084 C1085 1.385 . S
C1085 H1071 0.931 . S
C1085 C1084 1.385 . S
C1085 C1086 1.389 . S
C1086 C1085 1.389 . S
C1086 C1087 1.387 . S
C1087 H1072 0.930 . S
C1087 C1082 1.390 . S
C1087 C1086 1.387 . S
C237 C146 1.300 . S
C249 C6 1.352 . S
C264 C20 1.351 . S
C276 C160 1.314 . S
C291 C118 1.340 . S
C303 C34 1.334 . S
C318 C132 1.352 . S
C330 C48 1.313 . S
C345 C62 1.352 . S
C357 C202 1.311 . S
C372 C216 1.291 . S
C384 C76 1.312 . S
C399 C90 1.285 . S
C411 C174 1.323 . S
C426 C188 1.352 . S
C438 C104 1.298 . S
C453 C149 1.749 . S
C465 C9 1.737 . S
C480 C23 1.746 . S
C492 C163 1.773 . S
C507 C37 1.749 . S
C519 C121 1.771 . S
C534 C51 1.749 . S
C546 C135 1.772 . S
C561 C65 1.756 . S
C573 C205 1.733 . S
C588 C79 1.763 . S
C600 C219 1.730 . S
C615 C177 1.775 . S
C627 C93 1.734 . S
C642 C191 1.747 . S
C654 C107 1.772 . S
C669 C8 1.141 . S
C681 C92 1.165 . S
C696 C22 1.207 . S
C708 C106 1.233 . S
C723 C36 1.239 . S
C735 C64 1.217 . S
C750 C50 1.167 . S
C762 C78 1.143 . S
C777 C120 1.171 . S
C789 C204 1.146 . S
C804 C218 1.227 . S
C816 C134 1.242 . S
C831 C148 1.141 . S
C843 C176 1.166 . S
C858 C190 1.224 . S
C870 C162 1.241 . S
C885 C7 1.412 . S
C897 C217 1.413 . S
C912 C175 1.397 . S
C924 C21 1.392 . S
C939 C189 1.391 . S
C951 C35 1.395 . S
C966 C203 1.412 . S
C978 C49 1.413 . S
C993 C133 1.397 . S
C1005 C63 1.404 . S
C1020 C147 1.403 . S
C1032 C77 1.410 . S
C1047 C91 1.390 . S
C1059 C161 1.392 . S
C1074 C105 1.394 . S
C1086 C119 1.401 . S
