# Generated by pormake.
# Topology smt, (6)-cn, num edge types: 1
# Building blocks:
#     Node 0, Type 0, BuildingBlock: UKALOJ_clean_sbu_0, # of connection points: 6
#     Node 1, Type 0, BuildingBlock: UKALOJ_clean_sbu_0, # of connection points: 6
#     Node 2, Type 0, BuildingBlock: UKALOJ_clean_sbu_0, # of connection points: 6
#     Node 3, Type 0, BuildingBlock: UKALOJ_clean_sbu_0, # of connection points: 6
#     Node 4, Type 0, BuildingBlock: UKALOJ_clean_sbu_0, # of connection points: 6
#     Node 5, Type 0, BuildingBlock: UKALOJ_clean_sbu_0, # of connection points: 6
#     Edge 6, Type (0, 0), BuildingBlock: AJUNOK_clean_linker_0, # of connection points: 2
#     Edge 7, Type (0, 0), BuildingBlock: AJUNOK_clean_linker_0, # of connection points: 2
#     Edge 8, Type (0, 0), BuildingBlock: AJUNOK_clean_linker_0, # of connection points: 2
#     Edge 9, Type (0, 0), BuildingBlock: AJUNOK_clean_linker_0, # of connection points: 2
#     Edge 10, Type (0, 0), BuildingBlock: AJUNOK_clean_linker_0, # of connection points: 2
#     Edge 11, Type (0, 0), BuildingBlock: AJUNOK_clean_linker_0, # of connection points: 2
#     Edge 12, Type (0, 0), BuildingBlock: AJUNOK_clean_linker_0, # of connection points: 2
#     Edge 13, Type (0, 0), BuildingBlock: AJUNOK_clean_linker_0, # of connection points: 2
#     Edge 14, Type (0, 0), BuildingBlock: AJUNOK_clean_linker_0, # of connection points: 2
#     Edge 15, Type (0, 0), BuildingBlock: AJUNOK_clean_linker_0, # of connection points: 2
#     Edge 16, Type (0, 0), BuildingBlock: AJUNOK_clean_linker_0, # of connection points: 2
#     Edge 17, Type (0, 0), BuildingBlock: AJUNOK_clean_linker_0, # of connection points: 2
#     Edge 18, Type (0, 0), BuildingBlock: AJUNOK_clean_linker_0, # of connection points: 2
#     Edge 19, Type (0, 0), BuildingBlock: AJUNOK_clean_linker_0, # of connection points: 2
#     Edge 20, Type (0, 0), BuildingBlock: AJUNOK_clean_linker_0, # of connection points: 2
#     Edge 21, Type (0, 0), BuildingBlock: AJUNOK_clean_linker_0, # of connection points: 2
#     Edge 22, Type (0, 0), BuildingBlock: AJUNOK_clean_linker_0, # of connection points: 2
#     Edge 23, Type (0, 0), BuildingBlock: AJUNOK_clean_linker_0, # of connection points: 2
# Relax obj value: 0.366
# Max RMSD: 0.287
# Mean RMSD: 0.287
data_MOF--net-smt--node1-UKALOJ_clean_sbu_0--edge1-AJUNOK_clean_linker_0
_symmetry_space_group_name_H-M    P1
_symmetry_Int_Tables_number       1
_symmetry_cell_setting            triclinic
loop_
_symmetry_equiv_pos_as_xyz
'x, y, z'
_cell_length_a     28.934496
_cell_length_b     28.98988
_cell_length_c     19.527509
_cell_angle_alpha  90.093131
_cell_angle_beta   89.871109
_cell_angle_gamma 120.0995
loop_
_atom_site_label
_atom_site_type_symbol
_atom_site_fract_x
_atom_site_fract_y
_atom_site_fract_z
_atom_type_partial_charge
Zn0 Zn 0.52287 0.13071 0.00024 0.0
O1 O 0.49915 0.07436 0.08256 0.0
C2 C 0.40921 0.07413 0.96072 0.0
Zn3 Zn 0.47892 0.16625 0.05118 0.0
C4 C 0.47211 0.07737 0.13239 0.0
O5 O 0.4592 0.11323 0.13222 0.0
C6 C 0.53256 0.22254 0.923 0.0
O7 O 0.55083 0.2216 0.10449 0.0
O8 O 0.59074 0.18276 0.05408 0.0
N9 N 0.43358 0.19572 0.09326 0.0
C10 C 0.4355 0.24309 0.0878 0.0
C11 C 0.36108 0.18883 0.13431 0.0
N12 N 0.38732 0.16222 0.12236 0.0
N13 N 0.39007 0.23968 0.11257 0.0
C14 C 0.54816 0.05468 0.91769 0.0
C15 C 0.62539 0.10958 0.87902 0.0
N16 N 0.56488 0.10121 0.95082 0.0
N17 N 0.61336 0.13498 0.92753 0.0
N18 N 0.58509 0.05906 0.87202 0.0
H19 H 0.47597 0.00614 0.97562 0.0
H20 H 0.49787 0.96968 0.92208 0.0
H21 H 0.46813 0.00424 0.88324 0.0
C22 C 0.49425 0.00596 0.92574 0.0
C23 C 0.48279 0.29275 0.06084 0.0
H24 H 0.51994 0.29116 0.06833 0.0
H25 H 0.48663 0.32853 0.08696 0.0
H26 H 0.47761 0.29626 0.00519 0.0
O27 O 0.50015 0.21991 0.9688 0.0
O28 O 0.54762 0.18838 0.92223 0.0
C29 C 0.59246 0.21782 0.0945 0.0
O30 O 0.45361 0.0779 0.94607 0.0
O31 O 0.40826 0.10787 0.00136 0.0
Zn32 Zn 0.39111 0.51844 0.16428 0.0
O33 O 0.42507 0.49671 0.24767 0.0
C34 C 0.33664 0.40586 0.12552 0.0
Zn35 Zn 0.31182 0.47533 0.21577 0.0
C36 C 0.39467 0.47028 0.29754 0.0
O37 O 0.34549 0.45592 0.2955 0.0
C38 C 0.30761 0.52813 0.08812 0.0
O39 O 0.3271 0.54561 0.27139 0.0
O40 O 0.40483 0.5861 0.21843 0.0
N41 N 0.23742 0.42784 0.25737 0.0
C42 C 0.19208 0.43024 0.25697 0.0
C43 C 0.17158 0.3527 0.29251 0.0
N44 N 0.2245 0.37965 0.27971 0.0
N45 N 0.15034 0.38342 0.27772 0.0
C46 C 0.49371 0.54736 0.08163 0.0
C47 C 0.51408 0.62439 0.04498 0.0
N48 N 0.46274 0.56237 0.11546 0.0
N49 N 0.47625 0.61073 0.09346 0.0
N50 N 0.52573 0.58524 0.03663 0.0
H51 H 0.47242 0.47542 0.13814 0.0
H52 H 0.53002 0.49842 0.08288 0.0
H53 H 0.46479 0.46782 0.04578 0.0
C54 C 0.48981 0.49403 0.08801 0.0
C55 C 0.18808 0.47706 0.23273 0.0
H56 H 0.22685 0.51444 0.23888 0.0
H57 H 0.15658 0.48015 0.26135 0.0
H58 H 0.17691 0.47149 0.17776 0.0
O59 O 0.27856 0.49774 0.1359 0.0
O60 O 0.35637 0.54082 0.08464 0.0
C61 C 0.37227 0.58745 0.26086 0.0
O62 O 0.37744 0.45009 0.11112 0.0
O63 O 0.30078 0.40541 0.16365 0.0
Zn64 Zn 0.87229 0.38933 0.33824 0.0
O65 O 0.92348 0.4235 0.42531 0.0
C66 C 0.93314 0.33535 0.30432 0.0
Zn67 Zn 0.83681 0.3099 0.38899 0.0
C68 C 0.92077 0.39326 0.47447 0.0
O69 O 0.88807 0.34358 0.4711 0.0
C70 C 0.78343 0.30579 0.25755 0.0
O71 O 0.78053 0.32575 0.44063 0.0
O72 O 0.81577 0.40235 0.38558 0.0
N73 N 0.8076 0.23555 0.43148 0.0
C74 C 0.76048 0.18965 0.42593 0.0
C75 C 0.81513 0.17089 0.4737 0.0
N76 N 0.84134 0.22369 0.4614 0.0
N77 N 0.76433 0.14825 0.45138 0.0
C78 C 0.95007 0.49011 0.2563 0.0
C79 C 0.8971 0.51458 0.21736 0.0
N80 N 0.90293 0.46094 0.28871 0.0
N81 N 0.8703 0.47682 0.26509 0.0
N82 N 0.94721 0.52341 0.21068 0.0
H83 H 0.99924 0.47297 0.32236 0.0
H84 H 0.03552 0.52672 0.26195 0.0
H85 H 0.00183 0.45917 0.2324 0.0
C86 C 0.99946 0.48696 0.26945 0.0
C87 C 0.71056 0.18622 0.39841 0.0
H88 H 0.71135 0.22448 0.40642 0.0
H89 H 0.67472 0.1536 0.42383 0.0
H90 H 0.70776 0.17795 0.34263 0.0
O91 O 0.7833 0.27709 0.30661 0.0
O92 O 0.81936 0.35454 0.25474 0.0
C93 C 0.78204 0.36972 0.42802 0.0
O94 O 0.92961 0.37624 0.29213 0.0
O95 O 0.89724 0.29824 0.34047 0.0
Zn96 Zn 0.48515 0.87198 0.50016 0.0
O97 O 0.50709 0.9278 0.58322 0.0
C98 C 0.59857 0.92866 0.46313 0.0
Zn99 Zn 0.52738 0.83593 0.55356 0.0
C100 C 0.53401 0.92541 0.63338 0.0
O101 O 0.54785 0.89025 0.63323 0.0
C102 C 0.47452 0.77876 0.42476 0.0
O103 O 0.45645 0.78223 0.60843 0.0
O104 O 0.41611 0.81839 0.55298 0.0
N105 N 0.57342 0.80804 0.59641 0.0
C106 C 0.57078 0.76026 0.59505 0.0
C107 C 0.64832 0.81707 0.63172 0.0
N108 N 0.62151 0.84309 0.61963 0.0
N109 N 0.61749 0.76517 0.61609 0.0
C110 C 0.46213 0.94885 0.41757 0.0
C111 C 0.38433 0.89601 0.37898 0.0
N112 N 0.44395 0.90201 0.45033 0.0
N113 N 0.39519 0.86944 0.42699 0.0
N114 N 0.42589 0.94589 0.37195 0.0
H115 H 0.53078 0.99722 0.48123 0.0
H116 H 0.51162 0.03395 0.4242 0.0
H117 H 0.54418 1.00032 0.39027 0.0
C118 C 0.51532 0.99782 0.42954 0.0
C119 C 0.52441 0.71011 0.56773 0.0
H120 H 0.48692 0.71134 0.57341 0.0
H121 H 0.52028 0.6746 0.59465 0.0
H122 H 0.53122 0.70614 0.51262 0.0
O123 O 0.50386 0.77946 0.47343 0.0
O124 O 0.46265 0.81522 0.4205 0.0
C125 C 0.41452 0.7848 0.59592 0.0
O126 O 0.5547 0.92575 0.44825 0.0
O127 O 0.59822 0.89332 0.5018 0.0
Zn128 Zn 0.61322 0.48706 0.66507 0.0
O129 O 0.58043 0.51159 0.74603 0.0
C130 C 0.66971 0.59875 0.62716 0.0
Zn131 Zn 0.69189 0.52729 0.7178 0.0
C132 C 0.60945 0.53567 0.79783 0.0
O133 O 0.6577 0.54631 0.79921 0.0
C134 C 0.69515 0.47451 0.58963 0.0
O135 O 0.67487 0.45501 0.77038 0.0
O136 O 0.59606 0.42031 0.72096 0.0
N137 N 0.76677 0.57305 0.75973 0.0
C138 C 0.81213 0.57069 0.75541 0.0
C139 C 0.83327 0.6472 0.7955 0.0
N140 N 0.78013 0.62056 0.78493 0.0
N141 N 0.85467 0.61727 0.77629 0.0
C142 C 0.51192 0.46116 0.58197 0.0
C143 C 0.48973 0.38372 0.54467 0.0
N144 N 0.54185 0.4449 0.61555 0.0
N145 N 0.52729 0.39635 0.59308 0.0
N146 N 0.4793 0.42371 0.53694 0.0
H147 H 0.53408 0.53276 0.63934 0.0
H148 H 0.47852 0.51287 0.58175 0.0
H149 H 0.54473 0.54169 0.54759 0.0
C150 C 0.51774 0.51533 0.58846 0.0
C151 C 0.81364 0.52147 0.73572 0.0
H152 H 0.77654 0.48549 0.75282 0.0
H153 H 0.84869 0.52154 0.75877 0.0
H154 H 0.81617 0.51949 0.67924 0.0
O155 O 0.72491 0.5054 0.63652 0.0
O156 O 0.64642 0.46171 0.58735 0.0
C157 C 0.62763 0.41577 0.76158 0.0
O158 O 0.62986 0.55459 0.61048 0.0
O159 O 0.70404 0.5991 0.66796 0.0
Zn160 Zn 0.13117 0.61476 0.83656 0.0
O161 O 0.07711 0.58219 0.92184 0.0
C162 C 0.07334 0.67011 0.79759 0.0
Zn163 Zn 0.16617 0.69359 0.88849 0.0
C164 C 0.07838 0.61214 0.97065 0.0
O165 O 0.11237 0.66158 0.96917 0.0
C166 C 0.22257 0.69615 0.75863 0.0
O167 O 0.22052 0.67699 0.94363 0.0
O168 O 0.18564 0.60062 0.88778 0.0
N169 N 0.19588 0.76887 0.92827 0.0
C170 C 0.2438 0.81383 0.92236 0.0
C171 C 0.18925 0.83614 0.96263 0.0
N172 N 0.16221 0.78292 0.95352 0.0
N173 N 0.24037 0.8568 0.94228 0.0
C174 C 0.05218 0.51323 0.75904 0.0
C175 C 0.10434 0.4891 0.71593 0.0
N176 N 0.10019 0.54281 0.7889 0.0
N177 N 0.13239 0.52715 0.76281 0.0
N178 N 0.05395 0.47991 0.71241 0.0
H179 H 0.00593 0.53382 0.82654 0.0
H180 H 0.96731 0.47594 0.77287 0.0
H181 H 0.99783 0.54105 0.73619 0.0
C182 C 0.00313 0.51639 0.77512 0.0
C183 C 0.29415 0.81475 0.90166 0.0
H184 H 0.29248 0.77715 0.91702 0.0
H185 H 0.32953 0.84911 0.92533 0.0
H186 H 0.29864 0.81834 0.84523 0.0
O187 O 0.22188 0.72481 0.80736 0.0
O188 O 0.18623 0.64764 0.75489 0.0
C189 C 0.21898 0.63305 0.93066 0.0
O190 O 0.07648 0.62899 0.78521 0.0
O191 O 0.108 0.70598 0.83632 0.0
C192 C 0.3236 0.99836 0.00207 0.0
C193 C 0.36003 0.02281 0.94788 0.0
C194 C 0.28433 0.94431 -0.00075 0.0
C195 C 0.27995 0.91274 0.94221 0.0
H196 H 0.32756 0.02014 0.04891 0.0
H197 H 0.25843 0.92647 0.0431 0.0
S198 S 0.35849 0.9607 0.78135 0.0
N199 N 0.38509 0.01333 0.83226 0.0
N200 N 0.30942 0.91229 0.82555 0.0
C201 C 0.31333 0.93777 0.88548 0.0
C202 C 0.35387 0.99268 0.88873 0.0
C203 C 0.36786 0.35242 0.05952 0.0
C204 C 0.33986 0.35683 0.11581 0.0
C205 C 0.38321 0.31347 0.05781 0.0
C206 C 0.37261 0.27851 0.1133 0.0
H207 H 0.37933 0.3803 0.01733 0.0
H208 H 0.40382 0.31111 0.0129 0.0
S209 S 0.2993 0.27267 0.27216 0.0
N210 N 0.30023 0.32128 0.22719 0.0
N211 N 0.33046 0.24947 0.22473 0.0
C212 C 0.34287 0.28124 0.16863 0.0
C213 C 0.3263 0.32008 0.16979 0.0
C214 C 0.00311 0.32288 0.24363 0.0
C215 C 0.98685 0.3417 0.29977 0.0
C216 C 0.05689 0.33599 0.23684 0.0
C217 C 0.09543 0.36882 0.28535 0.0
H218 H 0.97462 0.29915 0.20438 0.0
H219 H 0.06878 0.3215 0.19293 0.0
S220 S 0.07287 0.42718 0.44112 0.0
N221 N 0.01352 0.39372 0.40477 0.0
N222 N 0.11389 0.41842 0.39103 0.0
C223 C 0.0794 0.38701 0.34162 0.0
C224 C 0.02518 0.37346 0.34897 0.0
C225 C 0.69236 0.06693 0.39526 0.0
C226 C 0.72597 0.09183 0.45181 0.0
C227 C 0.6536 0.01251 0.39667 0.0
C228 C 0.64803 0.98064 0.45383 0.0
H229 H 0.69555 0.08965 0.34988 0.0
H230 H 0.62659 0.99562 0.35365 0.0
S231 S 0.7286 0.02591 0.61314 0.0
N232 N 0.75274 0.07994 0.5651 0.0
N233 N 0.68112 0.97762 0.56721 0.0
C234 C 0.68357 0.00439 0.50895 0.0
C235 C 0.72227 0.05992 0.50799 0.0
C236 C 0.60804 0.68326 0.66537 0.0
C237 C 0.63316 0.72549 0.61898 0.0
C238 C 0.62223 0.64382 0.66856 0.0
C239 C 0.6618 0.64502 0.62525 0.0
H240 H 0.57713 0.68078 0.69915 0.0
H241 H 0.60137 0.61154 0.70467 0.0
S242 S 0.74051 0.74842 0.49626 0.0
N243 N 0.7006 0.76779 0.53031 0.0
N244 N 0.72677 0.69249 0.5357 0.0
C245 C 0.68812 0.68763 0.57957 0.0
C246 C 0.6739 0.72825 0.57667 0.0
C247 C 0.99666 0.67918 0.83725 0.0
C248 C 0.02193 0.66756 0.78381 0.0
C249 C 0.94218 0.66303 0.83387 0.0
C250 C 0.91097 0.63471 0.77703 0.0
H251 H 0.01815 0.6977 0.88401 0.0
H252 H 0.92375 0.67094 0.87718 0.0
S253 S 0.96093 0.60405 0.61806 0.0
N254 N 0.01346 0.63184 0.6691 0.0
N255 N 0.91171 0.60391 0.6613 0.0
C256 C 0.93681 0.62665 0.721 0.0
C257 C 0.99213 0.64248 0.72482 0.0
C258 C 0.48773 0.01688 0.20755 0.0
C259 C 0.45763 0.04136 0.19207 0.0
C260 C 0.47729 0.98603 0.2668 0.0
C261 C 0.43631 0.97841 0.3123 0.0
H262 H 0.52026 0.02243 0.17451 0.0
H263 H 0.50117 0.96763 0.27704 0.0
S264 S 0.34323 0.02981 0.29309 0.0
N265 N 0.38301 0.05327 0.22571 0.0
N266 N 0.36371 0.99465 0.33678 0.0
C267 C 0.40485 0.00098 0.29659 0.0
C268 C 0.41555 0.03278 0.23661 0.0
C269 C 0.46331 0.45571 0.35589 0.0
C270 C 0.4156 0.45733 0.3591 0.0
C271 C 0.48321 0.44325 0.4141 0.0
C272 C 0.45629 0.43254 0.4772 0.0
H273 H 0.48525 0.46388 0.3082 0.0
H274 H 0.52035 0.44284 0.41034 0.0
S275 S 0.33135 0.43304 0.51408 0.0
N276 N 0.34256 0.44788 0.43186 0.0
N277 N 0.38083 0.42468 0.54053 0.0
C278 C 0.40896 0.43405 0.48139 0.0
C279 C 0.38836 0.44637 0.42243 0.0
C280 C 0.00942 0.48981 0.61112 0.0
C281 C 0.01959 0.45719 0.65442 0.0
C282 C 0.9779 0.46906 0.55244 0.0
C283 C 0.95544 0.41493 0.5353 0.0
H284 H 0.02677 0.53188 0.62221 0.0
H285 H 0.97076 0.49549 0.52075 0.0
S286 S 0.97384 0.31425 0.63035 0.0
N287 N 0.00766 0.36967 0.6752 0.0
N288 N 0.94788 0.32968 0.56515 0.0
C289 C 0.96623 0.38216 0.57791 0.0
C290 C 0.99866 0.40361 0.63728 0.0
C291 C 0.56685 0.94967 0.75365 0.0
C292 C 0.54822 0.96159 0.69312 0.0
C293 C 0.57954 0.98201 0.81194 0.0
C294 C 0.57464 0.02757 0.81138 0.0
H295 H 0.57095 0.91458 0.75659 0.0
H296 H 0.59283 0.97126 0.85789 0.0
S297 S 0.52891 0.07761 0.66751 0.0
N298 N 0.52628 0.02314 0.63708 0.0
N299 N 0.55053 0.08382 0.74709 0.0
C300 C 0.5567 0.04047 0.75168 0.0
C301 C 0.54339 0.00748 0.69238 0.0
C302 C 0.59594 0.57598 0.97847 0.0
C303 C 0.54792 0.57651 0.97573 0.0
C304 C 0.61581 0.56349 0.92018 0.0
C305 C 0.58783 0.55039 0.85745 0.0
H306 H 0.61774 0.58465 0.0262 0.0
H307 H 0.6529 0.5631 0.92487 0.0
S308 S 0.45978 0.54693 0.82517 0.0
N309 N 0.47283 0.56373 0.90668 0.0
N310 N 0.50969 0.53988 0.79669 0.0
C311 C 0.53973 0.55128 0.85433 0.0
C312 C 0.5199 0.56447 0.91363 0.0
C313 C 0.02109 0.53561 0.04758 0.0
C314 C 0.04278 0.58973 0.03078 0.0
C315 C 0.99049 0.51445 0.10702 0.0
C316 C 0.98032 0.54655 0.1515 0.0
H317 H 0.02853 0.50959 0.0153 0.0
H318 H 0.97404 0.47248 0.11797 0.0
S319 S 0.02412 0.68922 0.12883 0.0
N320 N 0.04953 0.67436 0.06223 0.0
N321 N 0.99135 0.63364 0.17364 0.0
C322 C 1.00023 0.60006 0.13456 0.0
C323 C 0.0318 0.62194 0.07437 0.0
C324 C 0.52723 0.29198 0.85552 0.0
C325 C 0.55725 0.26893 0.87693 0.0
C326 C 0.55084 0.33928 0.81798 0.0
C327 C 0.60574 0.36616 0.80176 0.0
H328 H 0.4852 0.27353 0.86834 0.0
H329 H 0.52588 0.35552 0.80273 0.0
S330 S 0.70228 0.3229 0.84758 0.0
N331 N 0.64481 0.27615 0.87964 0.0
N332 N 0.6896 0.3665 0.81033 0.0
C333 C 0.63645 0.34381 0.82316 0.0
C334 C 0.61204 0.29471 0.86025 0.0
C335 C 0.23887 0.60532 0.04106 0.0
C336 C 0.24957 0.61485 0.97088 0.0
C337 C 0.25724 0.57633 0.07796 0.0
C338 C 0.28766 0.55668 0.04617 0.0
H339 H 0.21392 0.61803 0.06684 0.0
H340 H 0.24772 0.56949 0.13197 0.0
S341 S 0.32934 0.57434 0.86418 0.0
N342 N 0.29337 0.60395 0.87097 0.0
N343 N 0.33037 0.55165 0.94144 0.0
C344 C 0.30066 0.56806 0.97666 0.0
C345 C 0.28079 0.59647 0.93865 0.0
C346 C 0.63857 0.24327 0.20639 0.0
C347 C 0.64127 0.24848 0.13492 0.0
C348 C 0.68513 0.26126 0.24523 0.0
C349 C 0.73585 0.28593 0.21395 0.0
H350 H 0.60018 0.22273 0.23204 0.0
H351 H 0.6814 0.25595 0.30026 0.0
S352 S 0.76417 0.31196 0.02877 0.0
N353 N 0.69832 0.28095 0.03429 0.0
N354 N 0.78622 0.31743 0.10808 0.0
C355 C 0.7392 0.29356 0.14291 0.0
C356 C 0.69172 0.27399 0.10313 0.0
C357 C 0.45183 0.7329 0.31117 0.0
C358 C 0.44571 0.73058 0.38249 0.0
C359 C 0.42545 0.68636 0.27149 0.0
C360 C 0.39086 0.63646 0.30172 0.0
H361 H 0.47843 0.77046 0.2863 0.0
H362 H 0.43313 0.6892 0.21688 0.0
S363 S 0.35768 0.61102 0.48624 0.0
N364 N 0.40035 0.67573 0.48161 0.0
N365 N 0.34982 0.58845 0.40688 0.0
C366 C 0.38233 0.63436 0.37267 0.0
C367 C 0.4101 0.68146 0.41314 0.0
C368 C 0.73271 0.41933 0.43715 0.0
C369 C 0.75122 0.38787 0.46855 0.0
C370 C 0.71338 0.44671 0.47632 0.0
C371 C 0.71384 0.44486 0.54802 0.0
H372 H 0.73461 0.42397 0.38198 0.0
H373 H 0.69982 0.47086 0.4506 0.0
S374 S 0.75518 0.36618 0.65482 0.0
N375 N 0.76593 0.35432 0.57533 0.0
N376 N 0.73068 0.40666 0.64896 0.0
C377 C 0.73054 0.41228 0.5799 0.0
C378 C 0.74894 0.38345 0.54011 0.0
C379 C 0.36799 0.76232 0.70775 0.0
C380 C 0.36565 0.75478 0.63663 0.0
C381 C 0.32115 0.74375 0.74637 0.0
C382 C 0.27051 0.71623 0.71528 0.0
H383 H 0.40623 0.78489 0.7332 0.0
H384 H 0.32463 0.75075 0.80111 0.0
S385 S 0.24329 0.68287 0.53124 0.0
N386 N 0.30917 0.71668 0.53663 0.0
N387 N 0.22079 0.67934 0.61007 0.0
C388 C 0.26765 0.70628 0.64468 0.0
C389 C 0.31539 0.72636 0.60506 0.0
loop_
_geom_bond_atom_site_label_1
_geom_bond_atom_site_label_2
_geom_bond_distance
_geom_bond_site_symmetry_2
_ccdc_geom_bond_type
Zn0 O1 2.055 1_556 S
Zn0 O8 2.046 1_556 S
Zn0 N16 2.036 . S
Zn0 O28 2.053 . S
Zn0 O30 2.066 . S
O1 Zn0 2.055 1_554 S
O1 C4 1.259 . S
C2 O30 1.256 . S
C2 O31 1.244 1_556 S
Zn3 O5 2.046 . S
Zn3 O7 2.055 . S
Zn3 N9 2.036 . S
Zn3 O27 2.066 1_554 S
Zn3 O31 2.053 . S
C4 O1 1.259 . S
C4 O5 1.254 . S
O5 Zn3 2.046 . S
O5 C4 1.254 . S
C6 O27 1.256 . S
C6 O28 1.244 . S
O7 Zn3 2.055 . S
O7 C29 1.259 . S
O8 Zn0 2.046 1_554 S
O8 C29 1.254 . S
N9 Zn3 2.036 . S
N9 C10 1.298 . S
N9 N12 1.398 . S
C10 N9 1.298 . S
C10 N13 1.367 . S
C10 C23 1.481 . S
C11 N12 1.299 . S
C11 N13 1.379 . S
N12 N9 1.398 . S
N12 C11 1.299 . S
N13 C10 1.367 . S
N13 C11 1.379 . S
C14 N16 1.298 . S
C14 N18 1.367 . S
C14 C22 1.493 . S
C15 N17 1.299 . S
C15 N18 1.379 . S
N16 Zn0 2.036 . S
N16 C14 1.298 . S
N16 N17 1.398 . S
N17 C15 1.299 . S
N17 N16 1.398 . S
N18 C14 1.367 . S
N18 C15 1.379 . S
H19 C22 0.989 . S
H20 C22 0.962 1_565 S
H21 C22 0.979 1_565 S
C22 C14 1.493 . S
C22 H19 0.989 . S
C22 H20 0.962 1_545 S
C22 H21 0.979 1_545 S
C23 C10 1.481 . S
C23 H24 0.980 . S
C23 H25 0.981 . S
C23 H26 0.981 . S
H24 C23 0.980 . S
H25 C23 0.981 . S
H26 C23 0.981 . S
O27 Zn3 2.066 1_556 S
O27 C6 1.256 . S
O28 Zn0 2.053 . S
O28 C6 1.244 . S
C29 O7 1.259 . S
C29 O8 1.254 . S
O30 Zn0 2.066 . S
O30 C2 1.256 . S
O31 C2 1.244 1_554 S
O31 Zn3 2.053 . S
Zn32 O33 2.055 . S
Zn32 O40 2.046 . S
Zn32 N48 2.036 . S
Zn32 O60 2.053 . S
Zn32 O62 2.066 . S
O33 Zn32 2.055 . S
O33 C36 1.259 . S
C34 O62 1.256 . S
C34 O63 1.244 . S
Zn35 O37 2.046 . S
Zn35 O39 2.055 . S
Zn35 N41 2.036 . S
Zn35 O59 2.066 . S
Zn35 O63 2.053 . S
C36 O33 1.259 . S
C36 O37 1.254 . S
O37 Zn35 2.046 . S
O37 C36 1.254 . S
C38 O59 1.256 . S
C38 O60 1.244 . S
O39 Zn35 2.055 . S
O39 C61 1.259 . S
O40 Zn32 2.046 . S
O40 C61 1.254 . S
N41 Zn35 2.036 . S
N41 C42 1.298 . S
N41 N44 1.398 . S
C42 N41 1.298 . S
C42 N45 1.367 . S
C42 C55 1.481 . S
C43 N44 1.299 . S
C43 N45 1.379 . S
N44 N41 1.398 . S
N44 C43 1.299 . S
N45 C42 1.367 . S
N45 C43 1.379 . S
C46 N48 1.298 . S
C46 N50 1.367 . S
C46 C54 1.481 . S
C47 N49 1.299 1_556 S
C47 N50 1.379 1_556 S
N48 Zn32 2.036 . S
N48 C46 1.298 . S
N48 N49 1.398 . S
N49 C47 1.299 1_554 S
N49 N48 1.398 . S
N50 C46 1.367 . S
N50 C47 1.379 1_554 S
H51 C54 0.980 . S
H52 C54 0.981 . S
H53 C54 0.981 . S
C54 C46 1.481 . S
C54 H51 0.980 . S
C54 H52 0.981 . S
C54 H53 0.981 . S
C55 C42 1.481 . S
C55 H56 0.980 . S
C55 H57 0.981 . S
C55 H58 0.981 . S
H56 C55 0.980 . S
H57 C55 0.981 . S
H58 C55 0.981 . S
O59 Zn35 2.066 . S
O59 C38 1.256 . S
O60 Zn32 2.053 . S
O60 C38 1.244 . S
C61 O39 1.259 . S
C61 O40 1.254 . S
O62 Zn32 2.066 . S
O62 C34 1.256 . S
O63 C34 1.244 . S
O63 Zn35 2.053 . S
Zn64 O65 2.055 . S
Zn64 O72 2.046 . S
Zn64 N80 2.036 . S
Zn64 O92 2.053 . S
Zn64 O94 2.066 . S
O65 Zn64 2.055 . S
O65 C68 1.259 . S
C66 O94 1.256 . S
C66 O95 1.244 . S
Zn67 O69 2.046 . S
Zn67 O71 2.055 . S
Zn67 N73 2.036 . S
Zn67 O91 2.066 . S
Zn67 O95 2.053 . S
C68 O65 1.259 . S
C68 O69 1.254 . S
O69 Zn67 2.046 . S
O69 C68 1.254 . S
C70 O91 1.256 . S
C70 O92 1.244 . S
O71 Zn67 2.055 . S
O71 C93 1.259 . S
O72 Zn64 2.046 . S
O72 C93 1.254 . S
N73 Zn67 2.036 . S
N73 C74 1.298 . S
N73 N76 1.398 . S
C74 N73 1.298 . S
C74 N77 1.367 . S
C74 C87 1.481 . S
C75 N76 1.299 . S
C75 N77 1.379 . S
N76 N73 1.398 . S
N76 C75 1.299 . S
N77 C74 1.367 . S
N77 C75 1.379 . S
C78 N80 1.298 . S
C78 N82 1.367 . S
C78 C86 1.496 . S
C79 N81 1.299 . S
C79 N82 1.379 . S
N80 Zn64 2.036 . S
N80 C78 1.298 . S
N80 N81 1.398 . S
N81 C79 1.299 . S
N81 N80 1.398 . S
N82 C78 1.367 . S
N82 C79 1.379 . S
H83 C86 0.984 . S
H84 C86 0.980 1_455 S
H85 C86 0.963 1_455 S
C86 C78 1.496 . S
C86 H83 0.984 . S
C86 H84 0.980 1_655 S
C86 H85 0.963 1_655 S
C87 C74 1.481 . S
C87 H88 0.980 . S
C87 H89 0.981 . S
C87 H90 0.981 . S
H88 C87 0.980 . S
H89 C87 0.981 . S
H90 C87 0.981 . S
O91 Zn67 2.066 . S
O91 C70 1.256 . S
O92 Zn64 2.053 . S
O92 C70 1.244 . S
C93 O71 1.259 . S
C93 O72 1.254 . S
O94 Zn64 2.066 . S
O94 C66 1.256 . S
O95 C66 1.244 . S
O95 Zn67 2.053 . S
Zn96 O97 2.055 . S
Zn96 O104 2.046 . S
Zn96 N112 2.036 . S
Zn96 O124 2.053 . S
Zn96 O126 2.066 . S
O97 Zn96 2.055 . S
O97 C100 1.259 . S
C98 O126 1.256 . S
C98 O127 1.244 . S
Zn99 O101 2.046 . S
Zn99 O103 2.055 . S
Zn99 N105 2.036 . S
Zn99 O123 2.066 . S
Zn99 O127 2.053 . S
C100 O97 1.259 . S
C100 O101 1.254 . S
O101 Zn99 2.046 . S
O101 C100 1.254 . S
C102 O123 1.256 . S
C102 O124 1.244 . S
O103 Zn99 2.055 . S
O103 C125 1.259 . S
O104 Zn96 2.046 . S
O104 C125 1.254 . S
N105 Zn99 2.036 . S
N105 C106 1.298 . S
N105 N108 1.398 . S
C106 N105 1.298 . S
C106 N109 1.367 . S
C106 C119 1.481 . S
C107 N108 1.299 . S
C107 N109 1.379 . S
N108 N105 1.398 . S
N108 C107 1.299 . S
N109 C106 1.367 . S
N109 C107 1.379 . S
C110 N112 1.298 . S
C110 N114 1.367 . S
C110 C118 1.493 . S
C111 N113 1.299 . S
C111 N114 1.379 . S
N112 Zn96 2.036 . S
N112 C110 1.298 . S
N112 N113 1.398 . S
N113 C111 1.299 . S
N113 N112 1.398 . S
N114 C110 1.367 . S
N114 C111 1.379 . S
H115 C118 0.989 . S
H116 C118 0.962 1_545 S
H117 C118 0.979 1_545 S
C118 C110 1.493 . S
C118 H115 0.989 . S
C118 H116 0.962 1_565 S
C118 H117 0.979 1_565 S
C119 C106 1.481 . S
C119 H120 0.980 . S
C119 H121 0.981 . S
C119 H122 0.981 . S
H120 C119 0.980 . S
H121 C119 0.981 . S
H122 C119 0.981 . S
O123 Zn99 2.066 . S
O123 C102 1.256 . S
O124 Zn96 2.053 . S
O124 C102 1.244 . S
C125 O103 1.259 . S
C125 O104 1.254 . S
O126 Zn96 2.066 . S
O126 C98 1.256 . S
O127 C98 1.244 . S
O127 Zn99 2.053 . S
Zn128 O129 2.055 . S
Zn128 O136 2.046 . S
Zn128 N144 2.036 . S
Zn128 O156 2.053 . S
Zn128 O158 2.066 . S
O129 Zn128 2.055 . S
O129 C132 1.259 . S
C130 O158 1.256 . S
C130 O159 1.244 . S
Zn131 O133 2.046 . S
Zn131 O135 2.055 . S
Zn131 N137 2.036 . S
Zn131 O155 2.066 . S
Zn131 O159 2.053 . S
C132 O129 1.259 . S
C132 O133 1.254 . S
O133 Zn131 2.046 . S
O133 C132 1.254 . S
C134 O155 1.256 . S
C134 O156 1.244 . S
O135 Zn131 2.055 . S
O135 C157 1.259 . S
O136 Zn128 2.046 . S
O136 C157 1.254 . S
N137 Zn131 2.036 . S
N137 C138 1.298 . S
N137 N140 1.398 . S
C138 N137 1.298 . S
C138 N141 1.367 . S
C138 C151 1.481 . S
C139 N140 1.299 . S
C139 N141 1.379 . S
N140 N137 1.398 . S
N140 C139 1.299 . S
N141 C138 1.367 . S
N141 C139 1.379 . S
C142 N144 1.298 . S
C142 N146 1.367 . S
C142 C150 1.481 . S
C143 N145 1.299 . S
C143 N146 1.379 . S
N144 Zn128 2.036 . S
N144 C142 1.298 . S
N144 N145 1.398 . S
N145 C143 1.299 . S
N145 N144 1.398 . S
N146 C142 1.367 . S
N146 C143 1.379 . S
H147 C150 0.980 . S
H148 C150 0.981 . S
H149 C150 0.981 . S
C150 C142 1.481 . S
C150 H147 0.980 . S
C150 H148 0.981 . S
C150 H149 0.981 . S
C151 C138 1.481 . S
C151 H152 0.980 . S
C151 H153 0.981 . S
C151 H154 0.981 . S
H152 C151 0.980 . S
H153 C151 0.981 . S
H154 C151 0.981 . S
O155 Zn131 2.066 . S
O155 C134 1.256 . S
O156 Zn128 2.053 . S
O156 C134 1.244 . S
C157 O135 1.259 . S
C157 O136 1.254 . S
O158 Zn128 2.066 . S
O158 C130 1.256 . S
O159 C130 1.244 . S
O159 Zn131 2.053 . S
Zn160 O161 2.055 . S
Zn160 O168 2.046 . S
Zn160 N176 2.036 . S
Zn160 O188 2.053 . S
Zn160 O190 2.066 . S
O161 Zn160 2.055 . S
O161 C164 1.259 . S
C162 O190 1.256 . S
C162 O191 1.244 . S
Zn163 O165 2.046 . S
Zn163 O167 2.055 . S
Zn163 N169 2.036 . S
Zn163 O187 2.066 . S
Zn163 O191 2.053 . S
C164 O161 1.259 . S
C164 O165 1.254 . S
O165 Zn163 2.046 . S
O165 C164 1.254 . S
C166 O187 1.256 . S
C166 O188 1.244 . S
O167 Zn163 2.055 . S
O167 C189 1.259 . S
O168 Zn160 2.046 . S
O168 C189 1.254 . S
N169 Zn163 2.036 . S
N169 C170 1.298 . S
N169 N172 1.398 . S
C170 N169 1.298 . S
C170 N173 1.367 . S
C170 C183 1.481 . S
C171 N172 1.299 . S
C171 N173 1.379 . S
N172 N169 1.398 . S
N172 C171 1.299 . S
N173 C170 1.367 . S
N173 C171 1.379 . S
C174 N176 1.298 . S
C174 N178 1.367 . S
C174 C182 1.496 . S
C175 N177 1.299 . S
C175 N178 1.379 . S
N176 Zn160 2.036 . S
N176 C174 1.298 . S
N176 N177 1.398 . S
N177 C175 1.299 . S
N177 N176 1.398 . S
N178 C174 1.367 . S
N178 C175 1.379 . S
H179 C182 0.984 . S
H180 C182 0.980 1_655 S
H181 C182 0.963 1_655 S
C182 C174 1.496 . S
C182 H179 0.984 . S
C182 H180 0.980 1_455 S
C182 H181 0.963 1_455 S
C183 C170 1.481 . S
C183 H184 0.980 . S
C183 H185 0.981 1_556 S
C183 H186 0.981 . S
H184 C183 0.980 . S
H185 C183 0.981 1_554 S
H186 C183 0.981 . S
O187 Zn163 2.066 . S
O187 C166 1.256 . S
O188 Zn160 2.053 . S
O188 C166 1.244 . S
C189 O167 1.259 . S
C189 O168 1.254 . S
O190 Zn160 2.066 . S
O190 C162 1.256 . S
O191 C162 1.244 . S
O191 Zn163 2.053 . S
C192 C193 1.369 1_554 S
C192 C194 1.419 1_545 S
C192 H196 0.930 . S
C193 C192 1.369 1_556 S
C193 C202 1.429 1_545 S
C194 C192 1.419 1_565 S
C194 C195 1.363 1_554 S
C194 H197 0.929 . S
C195 C194 1.363 1_556 S
C195 C201 1.428 . S
H196 C192 0.930 . S
H197 C194 0.929 . S
S198 N199 1.613 . S
S198 N200 1.610 . S
N199 S198 1.613 . S
N199 C202 1.350 . S
N200 S198 1.610 . S
N200 C201 1.351 . S
C201 C195 1.428 . S
C201 N200 1.351 . S
C201 C202 1.434 . S
C202 C193 1.429 1_565 S
C202 N199 1.350 . S
C202 C201 1.434 . S
C203 C204 1.369 . S
C203 C205 1.419 . S
C203 H207 0.930 . S
C204 C203 1.369 . S
C204 C213 1.429 . S
C205 C203 1.419 . S
C205 C206 1.363 . S
C205 H208 0.929 . S
C206 C205 1.363 . S
C206 C212 1.428 . S
H207 C203 0.930 . S
H208 C205 0.929 . S
S209 N210 1.613 . S
S209 N211 1.610 . S
N210 S209 1.613 . S
N210 C213 1.350 . S
N211 S209 1.610 . S
N211 C212 1.351 . S
C212 C206 1.428 . S
C212 N211 1.351 . S
C212 C213 1.434 . S
C213 C204 1.429 . S
C213 N210 1.350 . S
C213 C212 1.434 . S
C214 C215 1.369 1_455 S
C214 C216 1.419 . S
C214 H218 0.930 1_455 S
C215 C214 1.369 1_655 S
C215 C224 1.429 1_655 S
C216 C214 1.419 . S
C216 C217 1.363 . S
C216 H219 0.929 . S
C217 C216 1.363 . S
C217 C223 1.428 . S
H218 C214 0.930 1_655 S
H219 C216 0.929 . S
S220 N221 1.613 1_455 S
S220 N222 1.610 . S
N221 S220 1.613 1_655 S
N221 C224 1.350 1_655 S
N222 S220 1.610 . S
N222 C223 1.351 . S
C223 C217 1.428 . S
C223 N222 1.351 . S
C223 C224 1.434 . S
C224 C215 1.429 1_455 S
C224 N221 1.350 1_455 S
C224 C223 1.434 . S
C225 C226 1.369 . S
C225 C227 1.419 . S
C225 H229 0.930 . S
C226 C225 1.369 . S
C226 C235 1.429 . S
C227 C225 1.419 . S
C227 C228 1.363 1_545 S
C227 H230 0.929 . S
C228 C227 1.363 1_565 S
C228 C234 1.428 . S
H229 C225 0.930 . S
H230 C227 0.929 . S
S231 N232 1.613 . S
S231 N233 1.610 1_545 S
N232 S231 1.613 . S
N232 C235 1.350 . S
N233 S231 1.610 1_565 S
N233 C234 1.351 . S
C234 C228 1.428 . S
C234 N233 1.351 . S
C234 C235 1.434 1_565 S
C235 C226 1.429 . S
C235 N232 1.350 . S
C235 C234 1.434 1_545 S
C236 C237 1.369 . S
C236 C238 1.419 . S
C236 H240 0.930 . S
C237 C236 1.369 . S
C237 C246 1.429 . S
C238 C236 1.419 . S
C238 C239 1.363 . S
C238 H241 0.929 . S
C239 C238 1.363 . S
C239 C245 1.428 . S
H240 C236 0.930 . S
H241 C238 0.929 . S
S242 N243 1.613 . S
S242 N244 1.610 . S
N243 S242 1.613 . S
N243 C246 1.350 . S
N244 S242 1.610 . S
N244 C245 1.351 . S
C245 C239 1.428 . S
C245 N244 1.351 . S
C245 C246 1.434 . S
C246 C237 1.429 . S
C246 N243 1.350 . S
C246 C245 1.434 . S
C247 C248 1.369 . S
C247 C249 1.419 1_455 S
C247 H251 0.930 . S
C248 C247 1.369 . S
C248 C257 1.429 1_455 S
C249 C247 1.419 1_655 S
C249 C250 1.363 . S
C249 H252 0.929 . S
C250 C249 1.363 . S
C250 C256 1.428 . S
H251 C247 0.930 . S
H252 C249 0.929 . S
S253 N254 1.613 . S
S253 N255 1.610 . S
N254 S253 1.613 . S
N254 C257 1.350 . S
N255 S253 1.610 . S
N255 C256 1.351 . S
C256 C250 1.428 . S
C256 N255 1.351 . S
C256 C257 1.434 . S
C257 C248 1.429 1_655 S
C257 N254 1.350 . S
C257 C256 1.434 . S
C258 C259 1.369 . S
C258 C260 1.419 1_545 S
C258 H262 0.930 . S
C259 C258 1.369 . S
C259 C268 1.429 . S
C260 C258 1.419 1_565 S
C260 C261 1.363 . S
C260 H263 0.929 . S
C261 C260 1.363 . S
C261 C267 1.428 1_565 S
H262 C258 0.930 . S
H263 C260 0.929 . S
S264 N265 1.613 . S
S264 N266 1.610 . S
N265 S264 1.613 . S
N265 C268 1.350 . S
N266 S264 1.610 . S
N266 C267 1.351 . S
C267 C261 1.428 1_545 S
C267 N266 1.351 . S
C267 C268 1.434 . S
C268 C259 1.429 . S
C268 N265 1.350 . S
C268 C267 1.434 . S
C269 C270 1.369 . S
C269 C271 1.419 . S
C269 H273 0.930 . S
C270 C269 1.369 . S
C270 C279 1.429 . S
C271 C269 1.419 . S
C271 C272 1.363 . S
C271 H274 0.929 . S
C272 C271 1.363 . S
C272 C278 1.428 . S
H273 C269 0.930 . S
H274 C271 0.929 . S
S275 N276 1.613 . S
S275 N277 1.610 . S
N276 S275 1.613 . S
N276 C279 1.350 . S
N277 S275 1.610 . S
N277 C278 1.351 . S
C278 C272 1.428 . S
C278 N277 1.351 . S
C278 C279 1.434 . S
C279 C270 1.429 . S
C279 N276 1.350 . S
C279 C278 1.434 . S
C280 C281 1.369 . S
C280 C282 1.419 1_455 S
C280 H284 0.930 . S
C281 C280 1.369 . S
C281 C290 1.429 1_455 S
C282 C280 1.419 1_655 S
C282 C283 1.363 . S
C282 H285 0.929 . S
C283 C282 1.363 . S
C283 C289 1.428 . S
H284 C280 0.930 . S
H285 C282 0.929 . S
S286 N287 1.613 . S
S286 N288 1.610 . S
N287 S286 1.613 . S
N287 C290 1.350 . S
N288 S286 1.610 . S
N288 C289 1.351 . S
C289 C283 1.428 . S
C289 N288 1.351 . S
C289 C290 1.434 . S
C290 C281 1.429 1_655 S
C290 N287 1.350 . S
C290 C289 1.434 . S
C291 C292 1.369 . S
C291 C293 1.419 . S
C291 H295 0.930 . S
C292 C291 1.369 . S
C292 C301 1.429 1_565 S
C293 C291 1.419 . S
C293 C294 1.363 1_565 S
C293 H296 0.929 . S
C294 C293 1.363 1_545 S
C294 C300 1.428 . S
H295 C291 0.930 . S
H296 C293 0.929 . S
S297 N298 1.613 . S
S297 N299 1.610 . S
N298 S297 1.613 . S
N298 C301 1.350 . S
N299 S297 1.610 . S
N299 C300 1.351 . S
C300 C294 1.428 . S
C300 N299 1.351 . S
C300 C301 1.434 . S
C301 C292 1.429 1_545 S
C301 N298 1.350 . S
C301 C300 1.434 . S
C302 C303 1.369 . S
C302 C304 1.419 . S
C302 H306 0.937 . S
C303 C302 1.369 . S
C303 C312 1.429 . S
C304 C302 1.419 . S
C304 C305 1.363 . S
C304 H307 0.929 . S
C305 C304 1.363 . S
C305 C311 1.428 . S
H306 C302 0.937 . S
H307 C304 0.929 . S
S308 N309 1.613 . S
S308 N310 1.610 . S
N309 S308 1.613 . S
N309 C312 1.350 . S
N310 S308 1.610 . S
N310 C311 1.351 . S
C311 C305 1.428 . S
C311 N310 1.351 . S
C311 C312 1.434 . S
C312 C303 1.429 . S
C312 N309 1.350 . S
C312 C311 1.434 . S
C313 C314 1.369 . S
C313 C315 1.419 1_455 S
C313 H317 0.930 1_554 S
C314 C313 1.369 . S
C314 C323 1.429 . S
C315 C313 1.419 1_655 S
C315 C316 1.363 . S
C315 H318 0.929 . S
C316 C315 1.363 . S
C316 C322 1.428 1_655 S
H317 C313 0.930 1_556 S
H318 C315 0.929 . S
S319 N320 1.613 . S
S319 N321 1.610 . S
N320 S319 1.613 . S
N320 C323 1.350 . S
N321 S319 1.610 . S
N321 C322 1.351 . S
C322 C316 1.428 1_455 S
C322 N321 1.351 . S
C322 C323 1.434 . S
C323 C314 1.429 . S
C323 N320 1.350 . S
C323 C322 1.434 . S
C324 C325 1.369 . S
C324 C326 1.419 . S
C324 H328 0.930 . S
C325 C324 1.369 . S
C325 C334 1.429 . S
C326 C324 1.419 . S
C326 C327 1.363 . S
C326 H329 0.929 . S
C327 C326 1.363 . S
C327 C333 1.428 . S
H328 C324 0.930 . S
H329 C326 0.929 . S
S330 N331 1.613 . S
S330 N332 1.610 . S
N331 S330 1.613 . S
N331 C334 1.350 . S
N332 S330 1.610 . S
N332 C333 1.351 . S
C333 C327 1.428 . S
C333 N332 1.351 . S
C333 C334 1.434 . S
C334 C325 1.429 . S
C334 N331 1.350 . S
C334 C333 1.434 . S
C335 C336 1.369 1_554 S
C335 C337 1.419 . S
C335 H339 0.930 . S
C336 C335 1.369 1_556 S
C336 C345 1.429 . S
C337 C335 1.419 . S
C337 C338 1.363 . S
C337 H340 0.929 . S
C338 C337 1.363 . S
C338 C344 1.428 1_554 S
H339 C335 0.930 . S
H340 C337 0.929 . S
S341 N342 1.613 . S
S341 N343 1.610 . S
N342 S341 1.613 . S
N342 C345 1.350 . S
N343 S341 1.610 . S
N343 C344 1.351 . S
C344 C338 1.428 1_556 S
C344 N343 1.351 . S
C344 C345 1.434 . S
C345 C336 1.429 . S
C345 N342 1.350 . S
C345 C344 1.434 . S
C346 C347 1.369 . S
C346 C348 1.419 . S
C346 H350 0.930 . S
C347 C346 1.369 . S
C347 C356 1.429 . S
C348 C346 1.419 . S
C348 C349 1.363 . S
C348 H351 0.929 . S
C349 C348 1.363 . S
C349 C355 1.428 . S
H350 C346 0.930 . S
H351 C348 0.929 . S
S352 N353 1.613 . S
S352 N354 1.610 . S
N353 S352 1.613 . S
N353 C356 1.350 . S
N354 S352 1.610 . S
N354 C355 1.351 . S
C355 C349 1.428 . S
C355 N354 1.351 . S
C355 C356 1.434 . S
C356 C347 1.429 . S
C356 N353 1.350 . S
C356 C355 1.434 . S
C357 C358 1.369 . S
C357 C359 1.419 . S
C357 H361 0.930 . S
C358 C357 1.369 . S
C358 C367 1.429 . S
C359 C357 1.419 . S
C359 C360 1.363 . S
C359 H362 0.929 . S
C360 C359 1.363 . S
C360 C366 1.428 . S
H361 C357 0.930 . S
H362 C359 0.929 . S
S363 N364 1.613 . S
S363 N365 1.610 . S
N364 S363 1.613 . S
N364 C367 1.350 . S
N365 S363 1.610 . S
N365 C366 1.351 . S
C366 C360 1.428 . S
C366 N365 1.351 . S
C366 C367 1.434 . S
C367 C358 1.429 . S
C367 N364 1.350 . S
C367 C366 1.434 . S
C368 C369 1.369 . S
C368 C370 1.419 . S
C368 H372 0.930 . S
C369 C368 1.369 . S
C369 C378 1.429 . S
C370 C368 1.419 . S
C370 C371 1.363 . S
C370 H373 0.929 . S
C371 C370 1.363 . S
C371 C377 1.428 . S
H372 C368 0.930 . S
H373 C370 0.929 . S
S374 N375 1.613 . S
S374 N376 1.610 . S
N375 S374 1.613 . S
N375 C378 1.350 . S
N376 S374 1.610 . S
N376 C377 1.351 . S
C377 C371 1.428 . S
C377 N376 1.351 . S
C377 C378 1.434 . S
C378 C369 1.429 . S
C378 N375 1.350 . S
C378 C377 1.434 . S
C379 C380 1.369 . S
C379 C381 1.419 . S
C379 H383 0.930 . S
C380 C379 1.369 . S
C380 C389 1.429 . S
C381 C379 1.419 . S
C381 C382 1.363 . S
C381 H384 0.929 . S
C382 C381 1.363 . S
C382 C388 1.428 . S
H383 C379 0.930 . S
H384 C381 0.929 . S
S385 N386 1.613 . S
S385 N387 1.610 . S
N386 S385 1.613 . S
N386 C389 1.350 . S
N387 S385 1.610 . S
N387 C388 1.351 . S
C388 C382 1.428 . S
C388 N387 1.351 . S
C388 C389 1.434 . S
C389 C380 1.429 . S
C389 N386 1.350 . S
C389 C388 1.434 . S
C193 C2 1.434 . S
C195 N173 1.471 . S
C204 C34 1.426 . S
C206 N13 1.476 . S
C215 C66 1.425 . S
C217 N45 1.478 . S
C226 N77 1.475 . S
C228 C98 1.429 . S
C237 N109 1.469 . S
C239 C130 1.436 . S
C248 C162 1.431 . S
C250 N141 1.473 . S
C259 C4 1.267 . S
C261 N114 1.229 . S
C270 C36 1.266 . S
C272 N146 1.228 . S
C281 N178 1.227 . S
C283 C68 1.270 . S
C292 C100 1.274 . S
C294 N18 1.222 . S
C303 N50 1.217 1_556 S
C305 C132 1.273 . S
C314 C164 1.267 1_554 S
C316 N82 1.229 . S
C325 C6 1.777 . S
C327 C157 1.673 . S
C336 C189 1.677 . S
C338 C38 1.779 . S
C347 C29 1.673 . S
C349 C70 1.779 . S
C358 C102 1.778 . S
C360 C61 1.672 . S
C369 C93 1.672 . S
C371 C134 1.777 . S
C380 C125 1.672 . S
C382 C166 1.780 . S
