# Generated by pormake.
# Topology ukf, (4)-cn, num edge types: 1
# Building blocks:
#     Node 0, Type 0, BuildingBlock: TATPOV_clean_sbu_0, # of connection points: 4
#     Node 1, Type 0, BuildingBlock: TATPOV_clean_sbu_0, # of connection points: 4
#     Node 2, Type 0, BuildingBlock: TATPOV_clean_sbu_0, # of connection points: 4
#     Node 3, Type 0, BuildingBlock: TATPOV_clean_sbu_0, # of connection points: 4
#     Node 4, Type 0, BuildingBlock: TATPOV_clean_sbu_0, # of connection points: 4
#     Node 5, Type 0, BuildingBlock: TATPOV_clean_sbu_0, # of connection points: 4
#     Node 6, Type 0, BuildingBlock: TATPOV_clean_sbu_0, # of connection points: 4
#     Node 7, Type 0, BuildingBlock: TATPOV_clean_sbu_0, # of connection points: 4
#     Node 8, Type 0, BuildingBlock: TATPOV_clean_sbu_0, # of connection points: 4
#     Node 9, Type 0, BuildingBlock: TATPOV_clean_sbu_0, # of connection points: 4
#     Node 10, Type 0, BuildingBlock: TATPOV_clean_sbu_0, # of connection points: 4
#     Node 11, Type 0, BuildingBlock: TATPOV_clean_sbu_0, # of connection points: 4
#     Edge 12, Type (0, 0), BuildingBlock: ZUJKAS_clean_linker_0, # of connection points: 2
#     Edge 13, Type (0, 0), BuildingBlock: ZUJKAS_clean_linker_0, # of connection points: 2
#     Edge 14, Type (0, 0), BuildingBlock: ZUJKAS_clean_linker_0, # of connection points: 2
#     Edge 15, Type (0, 0), BuildingBlock: ZUJKAS_clean_linker_0, # of connection points: 2
#     Edge 16, Type (0, 0), BuildingBlock: ZUJKAS_clean_linker_0, # of connection points: 2
#     Edge 17, Type (0, 0), BuildingBlock: ZUJKAS_clean_linker_0, # of connection points: 2
#     Edge 18, Type (0, 0), BuildingBlock: ZUJKAS_clean_linker_0, # of connection points: 2
#     Edge 19, Type (0, 0), BuildingBlock: ZUJKAS_clean_linker_0, # of connection points: 2
#     Edge 20, Type (0, 0), BuildingBlock: ZUJKAS_clean_linker_0, # of connection points: 2
#     Edge 21, Type (0, 0), BuildingBlock: ZUJKAS_clean_linker_0, # of connection points: 2
#     Edge 22, Type (0, 0), BuildingBlock: ZUJKAS_clean_linker_0, # of connection points: 2
#     Edge 23, Type (0, 0), BuildingBlock: ZUJKAS_clean_linker_0, # of connection points: 2
#     Edge 24, Type (0, 0), BuildingBlock: ZUJKAS_clean_linker_0, # of connection points: 2
#     Edge 25, Type (0, 0), BuildingBlock: ZUJKAS_clean_linker_0, # of connection points: 2
#     Edge 26, Type (0, 0), BuildingBlock: ZUJKAS_clean_linker_0, # of connection points: 2
#     Edge 27, Type (0, 0), BuildingBlock: ZUJKAS_clean_linker_0, # of connection points: 2
#     Edge 28, Type (0, 0), BuildingBlock: ZUJKAS_clean_linker_0, # of connection points: 2
#     Edge 29, Type (0, 0), BuildingBlock: ZUJKAS_clean_linker_0, # of connection points: 2
#     Edge 30, Type (0, 0), BuildingBlock: ZUJKAS_clean_linker_0, # of connection points: 2
#     Edge 31, Type (0, 0), BuildingBlock: ZUJKAS_clean_linker_0, # of connection points: 2
#     Edge 32, Type (0, 0), BuildingBlock: ZUJKAS_clean_linker_0, # of connection points: 2
#     Edge 33, Type (0, 0), BuildingBlock: ZUJKAS_clean_linker_0, # of connection points: 2
#     Edge 34, Type (0, 0), BuildingBlock: ZUJKAS_clean_linker_0, # of connection points: 2
#     Edge 35, Type (0, 0), BuildingBlock: ZUJKAS_clean_linker_0, # of connection points: 2
# Relax obj value: 0.152
# Max RMSD: 0.163
# Mean RMSD: 0.163
data_MOF--net-ukf--node1-TATPOV_clean_sbu_0--edge1-ZUJKAS_clean_linker_0
_symmetry_space_group_name_H-M    P1
_symmetry_Int_Tables_number       1
_symmetry_cell_setting            triclinic
loop_
_symmetry_equiv_pos_as_xyz
'x, y, z'
_cell_length_a     40.353332
_cell_length_b     40.295486
_cell_length_c     85.149145
_cell_angle_alpha  89.981885
_cell_angle_beta   90.024452
_cell_angle_gamma 119.95151
loop_
_atom_site_label
_atom_site_type_symbol
_atom_site_fract_x
_atom_site_fract_y
_atom_site_fract_z
_atom_type_partial_charge
Zn0 Zn 0.38149 0.25259 0.02419 0.0
Zn1 Zn 0.38529 0.22407 0.05261 0.0
O2 O 0.33265 0.18429 0.04395 0.0
O3 O 0.32878 0.20696 0.02091 0.0
O4 O 0.38574 0.20586 0.07464 0.0
O5 O 0.38905 0.30123 0.03438 0.0
O6 O 0.39468 0.27801 0.05695 0.0
C7 C 0.31432 0.1811 0.03131 0.0
C8 C 0.44328 0.23499 0.02735 0.0
O9 O 0.4299 0.22396 0.04113 0.0
O10 O 0.42801 0.24835 0.01819 0.0
C11 C 0.41275 0.22768 0.08384 0.0
O12 O 0.44091 0.25996 0.07834 0.0
C13 C 0.39529 0.30507 0.04903 0.0
Zn14 Zn 0.13332 0.37491 0.35703 0.0
Zn15 Zn 0.16453 0.38115 0.38573 0.0
O16 O 0.15374 0.32871 0.37735 0.0
O17 O 0.12271 0.3206 0.3551 0.0
O18 O 0.18176 0.38233 0.40809 0.0
O19 O 0.09364 0.38603 0.36593 0.0
O20 O 0.11952 0.39052 0.38911 0.0
C21 C 0.13651 0.30826 0.3654 0.0
C22 C 0.21303 0.43659 0.36022 0.0
O23 O 0.2094 0.42576 0.37449 0.0
O24 O 0.18547 0.41926 0.35066 0.0
C25 C 0.18605 0.40949 0.41703 0.0
O26 O 0.18189 0.4373 0.4111 0.0
C27 C 0.09453 0.39216 0.38054 0.0
Zn28 Zn 0.75085 0.13362 0.69275 0.0
Zn29 Zn 0.77739 0.16789 0.72069 0.0
O30 O 0.81864 0.15591 0.71275 0.0
O31 O 0.79612 0.12608 0.69026 0.0
O32 O 0.79326 0.18702 0.74286 0.0
O33 O 0.70198 0.09241 0.70235 0.0
O34 O 0.7226 0.12413 0.72454 0.0
C35 C 0.82217 0.13944 0.70059 0.0
C36 C 0.7677 0.21333 0.69458 0.0
O37 O 0.77811 0.21202 0.70859 0.0
O38 O 0.75498 0.18405 0.68579 0.0
C39 C 0.79309 0.16321 0.75271 0.0
O40 O 0.78536 0.12923 0.74771 0.0
C41 C 0.69658 0.09659 0.71667 0.0
Zn42 Zn 0.6047 0.73923 0.02493 0.0
Zn43 Zn 0.60774 0.77209 0.05283 0.0
O44 O 0.65884 0.8102 0.04231 0.0
O45 O 0.65642 0.78372 0.01942 0.0
O46 O 0.61162 0.79238 0.07484 0.0
O47 O 0.5996 0.69198 0.03516 0.0
O48 O 0.59725 0.71762 0.0576 0.0
C49 C 0.67381 0.81107 0.02902 0.0
C50 C 0.54482 0.75876 0.02979 0.0
O51 O 0.56199 0.7729 0.04273 0.0
O52 O 0.55678 0.74231 0.02057 0.0
C53 C 0.58492 0.77193 0.08442 0.0
O54 O 0.5551 0.74043 0.07925 0.0
C55 C 0.59527 0.68961 0.04991 0.0
Zn56 Zn 0.85902 0.60409 0.35918 0.0
Zn57 Zn 0.82997 0.6003 0.38804 0.0
O58 O 0.84061 0.65261 0.37948 0.0
O59 O 0.86603 0.65678 0.35619 0.0
O60 O 0.81313 0.5991 0.41044 0.0
O61 O 0.90116 0.59681 0.36806 0.0
O62 O 0.87518 0.59111 0.39131 0.0
C63 C 0.85481 0.67099 0.36675 0.0
C64 C 0.78059 0.54176 0.36335 0.0
O65 O 0.78441 0.55518 0.37721 0.0
O66 O 0.80805 0.55732 0.35366 0.0
C67 C 0.83653 0.62463 0.41982 0.0
O68 O 0.86943 0.65173 0.41432 0.0
C69 C 0.90064 0.5906 0.38266 0.0
Zn70 Zn 0.24342 0.86948 0.69642 0.0
Zn71 Zn 0.21989 0.83644 0.7249 0.0
O72 O 0.17754 0.84747 0.71756 0.0
O73 O 0.19733 0.87586 0.69463 0.0
O74 O 0.2053 0.8175 0.74715 0.0
O75 O 0.29245 0.91168 0.70564 0.0
O76 O 0.27422 0.88131 0.72824 0.0
C77 C 0.17247 0.86301 0.70543 0.0
C78 C 0.22845 0.79054 0.69858 0.0
O79 O 0.21962 0.79254 0.71278 0.0
O80 O 0.23944 0.81912 0.6895 0.0
C81 C 0.20406 0.84061 0.75698 0.0
O82 O 0.21008 0.87402 0.75196 0.0
C83 C 0.29905 0.90874 0.71995 0.0
Zn84 Zn 0.74093 0.60834 0.64599 0.0
Zn85 Zn 0.77292 0.61004 0.61804 0.0
O86 O 0.81165 0.66099 0.62859 0.0
O87 O 0.7844 0.66091 0.651 0.0
O88 O 0.79335 0.61328 0.59612 0.0
O89 O 0.69319 0.60148 0.63566 0.0
O90 O 0.71917 0.60091 0.61306 0.0
C91 C 0.8122 0.67716 0.64154 0.0
C92 C 0.76032 0.54815 0.64165 0.0
O93 O 0.77237 0.56365 0.62825 0.0
O94 O 0.74582 0.56172 0.65109 0.0
C95 C 0.7732 0.58603 0.5867 0.0
O96 O 0.74189 0.5562 0.59199 0.0
C97 C 0.69105 0.59825 0.62086 0.0
Zn98 Zn 0.12596 0.74044 0.98261 0.0
Zn99 Zn 0.15765 0.77269 0.95472 0.0
O100 O 0.14405 0.81101 0.96455 0.0
O101 O 0.11795 0.78502 0.98727 0.0
O102 O 0.17549 0.79274 0.93281 0.0
O103 O 0.08496 0.69283 0.9721 0.0
O104 O 0.1141 0.71829 0.94983 0.0
C105 C 0.12881 0.81221 0.9775 0.0
C106 C 0.20576 0.7601 0.97882 0.0
O107 O 0.20338 0.77358 0.96559 0.0
O108 O 0.17692 0.7441 0.98782 0.0
C109 C 0.18226 0.77225 0.92344 0.0
O110 O 0.18015 0.74062 0.92875 0.0
C111 C 0.08778 0.69032 0.95741 0.0
Zn112 Zn 0.38022 0.12649 0.31005 0.0
Zn113 Zn 0.38852 0.16217 0.28217 0.0
O114 O 0.33555 0.15034 0.29008 0.0
O115 O 0.32646 0.11746 0.31191 0.0
O116 O 0.39214 0.18253 0.26022 0.0
O117 O 0.38999 0.08691 0.30002 0.0
O118 O 0.39828 0.11773 0.27777 0.0
C119 C 0.31465 0.13221 0.30181 0.0
C120 C 0.44259 0.20649 0.30874 0.0
O121 O 0.43179 0.20541 0.29459 0.0
O122 O 0.42542 0.17715 0.31746 0.0
C123 C 0.36827 0.15936 0.25027 0.0
O124 O 0.3418 0.12534 0.25509 0.0
C125 C 0.39802 0.09061 0.28553 0.0
Zn126 Zn 0.2537 0.39771 0.6443 0.0
Zn127 Zn 0.22547 0.4009 0.61598 0.0
O128 O 0.18565 0.34819 0.62487 0.0
O129 O 0.21001 0.34412 0.64745 0.0
O130 O 0.20788 0.40134 0.59384 0.0
O131 O 0.3031 0.40719 0.63451 0.0
O132 O 0.27965 0.41084 0.6117 0.0
C133 C 0.18349 0.32963 0.63734 0.0
C134 C 0.23426 0.45817 0.64123 0.0
O135 O 0.22486 0.4456 0.62725 0.0
O136 O 0.24694 0.44261 0.65058 0.0
C137 C 0.20758 0.37669 0.58443 0.0
O138 O 0.21596 0.35124 0.58988 0.0
C139 C 0.30692 0.41255 0.61982 0.0
Zn140 Zn 0.86113 0.25209 0.97959 0.0
Zn141 Zn 0.83101 0.22427 0.95096 0.0
O142 O 0.84251 0.18372 0.96007 0.0
O143 O 0.86711 0.20601 0.98341 0.0
O144 O 0.81429 0.20676 0.92868 0.0
O145 O 0.90349 0.30059 0.97 0.0
O146 O 0.87613 0.27825 0.94713 0.0
C147 C 0.85631 0.18016 0.97303 0.0
C148 C 0.78239 0.23546 0.97537 0.0
O149 O 0.7855 0.22434 0.9617 0.0
O150 O 0.81041 0.24863 0.98482 0.0
C151 C 0.81 0.22901 0.91935 0.0
O152 O 0.81371 0.26115 0.92486 0.0
C153 C 0.90217 0.30491 0.95533 0.0
Zn154 Zn 0.60666 0.85918 0.31138 0.0
Zn155 Zn 0.60449 0.82889 0.28285 0.0
O156 O 0.65614 0.83973 0.29216 0.0
O157 O 0.65968 0.86761 0.31483 0.0
O158 O 0.60438 0.81146 0.26063 0.0
O159 O 0.59859 0.90033 0.30176 0.0
O160 O 0.59556 0.87399 0.27882 0.0
C161 C 0.67413 0.85526 0.30483 0.0
C162 C 0.54561 0.77983 0.30744 0.0
O163 O 0.55902 0.78363 0.29359 0.0
O164 O 0.56081 0.8075 0.31707 0.0
C165 C 0.62908 0.83555 0.25118 0.0
O166 O 0.6548 0.86929 0.25656 0.0
C167 C 0.59387 0.89946 0.28704 0.0
H168 H 0.15938 0.88047 0.96169 0.0
H169 H 0.17225 0.94204 0.97248 0.0
H170 H 0.11174 0.88586 0.01482 0.0
H171 H 0.09861 0.82415 0.00421 0.0
H172 H 0.12164 0.97111 0.99064 0.0
H173 H 0.2333 0.95742 0.02399 0.0
H174 H 0.2126 0.9308 0.00617 0.0
H175 H 0.18514 0.91753 0.02395 0.0
C176 C 0.14778 0.88097 0.9731 0.0
C177 C 0.12862 0.84748 0.98221 0.0
C178 C 0.15505 0.91618 0.97921 0.0
C179 C 0.14317 0.91832 0.99446 0.0
C180 C 0.12111 0.88462 0.00302 0.0
H181 H 0.27063 0.12228 0.0515 0.0
H182 H 0.21916 0.05827 0.04445 0.0
C183 C 0.11381 0.84943 0.99694 0.0
C184 C 0.15947 0.95587 0.00232 0.0
H185 H 0.23286 0.0148 0.02641 0.0
C186 C 0.14565 0.98067 0.99863 0.0
C187 C 0.19054 0.96792 0.01279 0.0
C188 C 0.20657 0.94226 0.01699 0.0
C189 C 0.16285 0.01785 0.00495 0.0
C190 C 0.19523 0.03061 0.01483 0.0
C191 C 0.20795 0.00507 0.01892 0.0
C192 C 0.2192 0.07115 0.01975 0.0
C193 C 0.14624 0.04301 1.00092 0.0
C194 C 0.23542 0.10009 0.00834 0.0
C195 C 0.26446 0.13678 0.01238 0.0
C196 C 0.27849 0.14505 0.02786 0.0
C197 C 0.26065 0.11675 0.03946 0.0
C198 C 0.23118 0.08016 0.03544 0.0
H199 H 0.11492 0.02558 0.99885 0.0
H200 H 0.15152 0.06406 0.01038 0.0
H201 H 0.15954 0.05884 0.98991 0.0
H202 H 0.22754 0.09375 0.9961 0.0
H203 H 0.27762 0.15786 0.00313 0.0
H204 H 0.08545 0.24625 0.34834 0.0
H205 H 0.09424 0.19393 0.33871 0.0
H206 H 0.20096 0.241 0.36409 0.0
H207 H 0.19087 0.29139 0.37451 0.0
H208 H 0.14353 0.20037 0.31966 0.0
H209 H 0.16751 0.13316 0.37095 0.0
H210 H 0.14796 0.16459 0.37298 0.0
H211 H 0.19912 0.18358 0.3729 0.0
C212 C 0.11004 0.24447 0.35229 0.0
C213 C 0.13745 0.27277 0.36219 0.0
C214 C 0.11514 0.21467 0.34674 0.0
C215 C 0.14811 0.21306 0.35075 0.0
C216 C 0.1746 0.24051 0.36121 0.0
H217 H 0.29796 0.18697 0.29297 0.0
H218 H 0.24734 0.19663 0.30334 0.0
C219 C 0.16898 0.26964 0.36709 0.0
C220 C 0.15794 0.18679 0.3423 0.0
H221 H 0.20567 0.13777 0.34742 0.0
C222 C 0.15611 0.18575 0.3258 0.0
C223 C 0.17319 0.16637 0.35011 0.0
C224 C 0.17154 0.16166 0.36772 0.0
C225 C 0.17235 0.16811 0.31696 0.0
C226 C 0.19264 0.15275 0.32479 0.0
C227 C 0.19116 0.15046 0.34128 0.0
C228 C 0.21919 0.14327 0.31639 0.0
C229 C 0.16812 0.16692 0.29933 0.0
C230 C 0.22076 0.11017 0.32025 0.0
C231 C 0.25068 0.10529 0.31473 0.0
C232 C 0.27916 0.13308 0.305 0.0
C233 C 0.27611 0.16479 0.30025 0.0
C234 C 0.24683 0.17017 0.30611 0.0
H235 H 0.13972 0.16289 0.296 0.0
H236 H 0.1901 0.19471 0.29431 0.0
H237 H 0.17128 0.1435 0.29401 0.0
H238 H 0.19987 0.08896 0.32815 0.0
H239 H 0.25238 0.08054 0.31856 0.0
H240 H 0.89058 0.18126 0.71584 0.0
H241 H 0.95363 0.19881 0.70531 0.0
H242 H 0.90069 0.1213 0.66651 0.0
H243 H 0.83755 0.10336 0.67692 0.0
H244 H 0.97776 0.13261 0.67953 0.0
H245 H 0.97101 0.26263 0.66259 0.0
H246 H 0.96235 0.24892 0.68294 0.0
H247 H 0.9291 0.21845 0.66827 0.0
C248 C 0.89227 0.16688 0.70538 0.0
C249 C 0.85907 0.14157 0.69702 0.0
C250 C 0.92833 0.17695 0.69939 0.0
C251 C 0.9316 0.16168 0.68505 0.0
C252 C 0.89863 0.13337 0.67759 0.0
H253 H 0.11653 0.29457 0.62061 0.0
H254 H 0.05415 0.24519 0.6303 0.0
C255 C 0.86258 0.12333 0.68354 0.0
C256 C 0.96822 0.18021 0.67644 0.0
H257 H 0.02761 0.26221 0.65662 0.0
C258 C 0.9888 0.16091 0.67448 0.0
C259 C 0.98184 0.21669 0.66958 0.0
C260 C 0.95991 0.23792 0.6708 0.0
C261 C 0.02356 0.1779 0.66616 0.0
C262 C 0.03781 0.215 0.65977 0.0
C263 C 0.01656 0.23369 0.66145 0.0
C264 C 0.07588 0.23671 0.65227 0.0
C265 C 0.0446 0.15603 0.66421 0.0
C266 C 0.10892 0.24713 0.66114 0.0
C267 C 0.14459 0.27527 0.65563 0.0
C268 C 0.14778 0.29383 0.64123 0.0
C269 C 0.11506 0.28105 0.63179 0.0
C270 C 0.07937 0.2528 0.6373 0.0
H271 H 0.02497 0.12466 0.66534 0.0
H272 H 0.05917 0.16205 0.65264 0.0
H273 H 0.06665 0.16491 0.67354 0.0
H274 H 0.10687 0.23564 0.67282 0.0
H275 H 0.16925 0.28425 0.66317 0.0
H276 H 0.71087 0.82305 1.00096 0.0
H277 H 0.75889 0.88441 0.99004 0.0
H278 H 0.76382 0.93997 0.03392 0.0
H279 H 0.71549 0.87868 0.04501 0.0
H280 H 0.73644 0.94305 0.98996 0.0
H281 H 0.87818 0.99271 0.01771 0.0
H282 H 0.84224 0.94261 0.01616 0.0
H283 H 0.83753 0.97226 0.03068 0.0
C284 C 0.72287 0.84807 0.00848 0.0
C285 C 0.70885 0.84606 0.0238 0.0
C286 C 0.75045 0.88308 1.0022 0.0
C287 C 0.76492 0.91658 0.01119 0.0
C288 C 0.75334 0.91427 0.02688 0.0
H289 H 0.86344 0.15535 1.00193 0.0
H290 H 0.84747 0.09064 0.00921 0.0
C291 C 0.72554 0.87924 0.03316 0.0
C292 C 0.78609 0.95428 0.00341 0.0
H293 H 0.86994 0.03943 0.00378 0.0
C294 C 0.76588 0.964 0.99273 0.0
C295 C 0.82422 0.98139 0.00725 0.0
C296 C 0.84707 0.97181 0.0185 0.0
C297 C 0.78205 0.00088 0.98636 0.0
C298 C 0.82018 0.02846 0.99034 0.0
C299 C 0.8409 0.01822 1.00062 0.0
C300 C 0.83709 0.06901 0.98539 0.0
C301 C 0.75714 0.01048 0.97628 0.0
C302 C 0.83853 0.07896 0.96949 0.0
C303 C 0.84683 0.11589 0.96528 0.0
C304 C 0.85485 0.14367 0.9769 0.0
C305 C 0.85712 0.13458 0.99267 0.0
C306 C 0.84809 0.09755 0.99688 0.0
H307 H 0.72631 0.98889 0.97749 0.0
H308 H 0.76107 0.03897 0.9794 0.0
H309 H 0.76504 0.01111 0.96376 0.0
H310 H 0.83131 0.05767 0.96039 0.0
H311 H 0.84546 0.12221 0.95301 0.0
H312 H 0.70413 0.81587 0.29 0.0
H313 H 0.75003 0.79948 0.30113 0.0
H314 H 0.76748 0.87286 0.34078 0.0
H315 H 0.72171 0.88953 0.32982 0.0
H316 H 0.8373 0.86538 0.32674 0.0
H317 H 0.70321 0.73354 0.34437 0.0
H318 H 0.70701 0.74855 0.32422 0.0
H319 H 0.70421 0.77765 0.33952 0.0
C320 C 0.71864 0.82956 0.30082 0.0
C321 C 0.70872 0.85344 0.30917 0.0
C322 C 0.74488 0.82017 0.30714 0.0
C323 C 0.76172 0.83475 0.32181 0.0
C324 C 0.75473 0.86142 0.32943 0.0
H325 H 0.82255 0.70432 0.38444 0.0
H326 H 0.80698 0.75266 0.37559 0.0
C327 C 0.72842 0.87074 0.32316 0.0
C328 C 0.7809 0.81719 0.33036 0.0
H329 H 0.76123 0.73564 0.34995 0.0
C330 C 0.82084 0.83709 0.33189 0.0
C331 C 0.75911 0.78069 0.33731 0.0
C332 C 0.71597 0.75878 0.33642 0.0
C333 C 0.83971 0.82064 0.33983 0.0
C334 C 0.81792 0.78344 0.34626 0.0
C335 C 0.77791 0.76423 0.34509 0.0
C336 C 0.83549 0.76211 0.35315 0.0
C337 C 0.88267 0.84313 0.34128 0.0
C338 C 0.85792 0.7525 0.34372 0.0
C339 C 0.86689 0.72493 0.34874 0.0
C340 C 0.85322 0.70616 0.36323 0.0
C341 C 0.83336 0.71807 0.37319 0.0
C342 C 0.82445 0.74571 0.36815 0.0
H343 H 0.89368 0.87443 0.34035 0.0
H344 H 0.89229 0.83712 0.3526 0.0
H345 H 0.8955 0.83486 0.3316 0.0
H346 H 0.86617 0.76421 0.33199 0.0
H347 H 0.88243 0.71662 0.3408 0.0
H348 H 0.88316 0.71095 0.62797 0.0
H349 H 0.94341 0.75755 0.64032 0.0
H350 H 0.88148 0.76789 0.67945 0.0
H351 H 0.82105 0.72143 0.66725 0.0
H352 H 0.95807 0.84109 0.66717 0.0
H353 H 0.96125 0.70865 0.68316 0.0
H354 H 0.95161 0.7137 0.66293 0.0
H355 H 0.91762 0.70793 0.67779 0.0
C356 C 0.88222 0.72403 0.63895 0.0
C357 C 0.84736 0.71194 0.64677 0.0
C358 C 0.91667 0.75067 0.64597 0.0
C359 C 0.91668 0.76573 0.66082 0.0
C360 C 0.8819 0.75653 0.66797 0.0
H361 H 0.10769 0.82742 0.7235 0.0
H362 H 0.0431 0.81082 0.71538 0.0
C363 C 0.84744 0.72983 0.66099 0.0
C364 C 0.95242 0.7854 0.66997 0.0
H365 H 0.01554 0.76753 0.68948 0.0
C366 C 0.97068 0.82517 0.67215 0.0
C367 C 0.96808 0.76425 0.67673 0.0
C368 C 0.94864 0.72122 0.67518 0.0
C369 C 0.00537 0.84462 0.68047 0.0
C370 C 0.02197 0.82359 0.68659 0.0
C371 C 0.00274 0.78363 0.68486 0.0
C372 C 0.06088 0.84209 0.69345 0.0
C373 C 0.02393 0.88737 0.68259 0.0
C374 C 0.0924 0.86652 0.68414 0.0
C375 C 0.1293 0.87612 0.68876 0.0
C376 C 0.1353 0.86104 0.70269 0.0
C377 C 0.10404 0.83931 0.71266 0.0
C378 C 0.0671 0.82981 0.70804 0.0
H379 H 0.00239 0.89686 0.68221 0.0
H380 H 0.03975 0.8967 0.69387 0.0
H381 H 0.04448 0.90189 0.67286 0.0
H382 H 0.08832 0.87577 0.67272 0.0
H383 H 0.15276 0.89316 0.68085 0.0
H384 H 0.76798 0.25928 0.00322 0.0
H385 H 0.70879 0.25613 0.01171 0.0
H386 H 0.65555 0.204 0.96766 0.0
H387 H 0.71484 0.20677 0.959 0.0
H388 H 0.67083 0.29037 0.99671 0.0
H389 H 0.57907 0.13221 1.00146 0.0
H390 H 0.63063 0.15578 1.00063 0.0
H391 H 0.60358 0.14973 0.98306 0.0
C392 C 0.74371 0.24696 0.99531 0.0
C393 C 0.74617 0.2332 0.98042 0.0
C394 C 0.70989 0.24521 1.00021 0.0
C395 C 0.67773 0.22946 0.99039 0.0
C396 C 0.67993 0.2157 0.97551 0.0
H397 H 0.4803 0.25893 0.99923 0.0
H398 H 0.53665 0.25672 0.99036 0.0
C399 C 0.71388 0.21751 0.97055 0.0
C400 C 0.64245 0.22882 0.99564 0.0
H401 H 0.54892 0.16913 0.00546 0.0
C402 C 0.64415 0.26388 0.99862 0.0
C403 C 0.6079 0.19418 0.99828 0.0
C404 C 0.60503 0.15576 0.99583 0.0
C405 C 0.61205 0.26527 0.00402 0.0
C406 C 0.57728 0.23068 0.00636 0.0
C407 C 0.57563 0.19557 0.00357 0.0
C408 C 0.54231 0.23059 0.01162 0.0
C409 C 0.6157 0.30372 0.00741 0.0
C410 C 0.52637 0.21584 0.0264 0.0
C411 C 0.49406 0.21705 0.03155 0.0
C412 C 0.47702 0.23277 0.02193 0.0
C413 C 0.49274 0.24679 0.00699 0.0
C414 C 0.52503 0.24567 1.00189 0.0
H415 H 0.64607 0.32673 0.00843 0.0
H416 H 0.60243 0.31137 0.99769 0.0
H417 H 0.60057 0.30274 0.01845 0.0
H418 H 0.53931 0.20396 0.03403 0.0
H419 H 0.4826 0.20587 0.04308 0.0
H420 H 0.23452 0.45954 0.32995 0.0
H421 H 0.29299 0.51553 0.32076 0.0
H422 H 0.33107 0.54589 0.36865 0.0
H423 H 0.27303 0.48924 0.37795 0.0
H424 H 0.31704 0.58954 0.32642 0.0
H425 H 0.42533 0.55453 0.34839 0.0
H426 H 0.37494 0.5197 0.34783 0.0
H427 H 0.39424 0.55407 0.36355 0.0
C428 C 0.25547 0.47791 0.33855 0.0
C429 C 0.24916 0.46986 0.3547 0.0
C430 C 0.28889 0.50992 0.33326 0.0
C431 C 0.31668 0.53461 0.34399 0.0
C432 C 0.3105 0.52671 0.36013 0.0
H433 H 0.51658 0.7589 0.33706 0.0
H434 H 0.46123 0.69861 0.34537 0.0
C435 C 0.27718 0.49444 0.36544 0.0
C436 C 0.35108 0.56964 0.33826 0.0
H437 H 0.44878 0.61835 0.33913 0.0
C438 C 0.34583 0.59565 0.32909 0.0
C439 C 0.38865 0.57756 0.34174 0.0
C440 C 0.39622 0.54982 0.35078 0.0
C441 C 0.37711 0.62969 0.32357 0.0
C442 C 0.41452 0.63784 0.32728 0.0
C443 C 0.41992 0.61188 0.33636 0.0
C444 C 0.44842 0.67376 0.32213 0.0
C445 C 0.37006 0.65719 0.31407 0.0
C446 C 0.45959 0.67942 0.30631 0.0
C447 C 0.49135 0.7138 0.3015 0.0
C448 C 0.51228 0.7431 0.31244 0.0
C449 C 0.50101 0.73705 0.32831 0.0
C450 C 0.46948 0.70261 0.33311 0.0
H451 H 0.33942 0.64917 0.31405 0.0
H452 H 0.3873 0.68672 0.31877 0.0
H453 H 0.37914 0.65744 0.30175 0.0
H454 H 0.44369 0.65726 0.29771 0.0
H455 H 0.49928 0.71752 0.2892 0.0
H456 H 0.79422 0.28212 0.7097 0.0
H457 H 0.79508 0.33963 0.69978 0.0
H458 H 0.74705 0.28243 0.65588 0.0
H459 H 0.74582 0.22484 0.66564 0.0
H460 H 0.83101 0.3842 0.67172 0.0
H461 H 0.67273 0.3185 0.6717 0.0
H462 H 0.697 0.29814 0.68239 0.0
H463 H 0.69086 0.29184 0.6615 0.0
C464 C 0.7839 0.28177 0.69792 0.0
C465 C 0.76968 0.24875 0.68851 0.0
C466 C 0.78451 0.31467 0.69227 0.0
C467 C 0.77071 0.31502 0.67719 0.0
C468 C 0.75731 0.28249 0.66764 0.0
H469 H 0.79211 0.51218 0.62526 0.0
H470 H 0.79606 0.45589 0.63343 0.0
C471 C 0.75675 0.24964 0.67325 0.0
C472 C 0.76966 0.34918 0.67151 0.0
H473 H 0.70841 0.38046 0.66075 0.0
C474 C 0.80427 0.38348 0.66929 0.0
C475 C 0.73465 0.34805 0.6685 0.0
C476 C 0.69663 0.3123 0.67125 0.0
C477 C 0.80478 0.41677 0.66403 0.0
C478 C 0.76977 0.41547 0.66081 0.0
C479 C 0.73519 0.3812 0.6631 0.0
C480 C 0.76817 0.44981 0.6558 0.0
C481 C 0.84263 0.45328 0.66229 0.0
C482 C 0.75067 0.46455 0.66557 0.0
C483 C 0.74827 0.4965 0.66095 0.0
C484 C 0.76312 0.51426 0.64639 0.0
C485 C 0.7805 0.49927 0.63656 0.0
C486 C 0.78297 0.46726 0.64124 0.0
H487 H 0.86623 0.4514 0.66816 0.0
H488 H 0.8497 0.45907 0.64963 0.0
H489 H 0.84108 0.47793 0.66728 0.0
H490 H 0.73896 0.45137 0.67683 0.0
H491 H 0.73464 0.50718 0.66882 0.0
H492 H 0.27837 0.81144 0.96909 0.0
H493 H 0.33829 0.81632 0.97813 0.0
H494 H 0.27466 0.71862 0.00838 0.0
H495 H 0.21508 0.7149 1.00001 0.0
H496 H 0.33356 0.77097 0.02344 0.0
H497 H 0.38293 0.75229 0.96509 0.0
H498 H 0.3761 0.79293 0.96587 0.0
H499 H 0.33573 0.74541 0.96816 0.0
C500 C 0.27725 0.79096 0.97762 0.0
C501 C 0.24207 0.76271 0.9838 0.0
C502 C 0.31148 0.79362 0.98271 0.0
C503 C 0.31102 0.76738 0.99372 0.0
C504 C 0.27582 0.7392 0.99988 0.0
H505 H 0.48794 0.71189 0.00987 0.0
H506 H 0.432 0.71596 1.00197 0.0
C507 C 0.24175 0.73704 0.99506 0.0
C508 C 0.34697 0.76924 0.99908 0.0
H509 H 0.42638 0.76789 0.98621 0.0
C510 C 0.35383 0.77021 0.0153 0.0
C511 C 0.37326 0.76788 0.98846 0.0
C512 C 0.3665 0.76418 0.97095 0.0
C513 C 0.38579 0.76919 0.02122 0.0
C514 C 0.41254 0.76875 0.01059 0.0
C515 C 0.40602 0.76848 0.99437 0.0
C516 C 0.44631 0.76628 0.01594 0.0
C517 C 0.38956 0.76699 0.03877 0.0
C518 C 0.47309 0.79316 0.02647 0.0
C519 C 0.50476 0.79032 0.03131 0.0
C520 C 0.51073 0.76123 0.02533 0.0
C521 C 0.48418 0.73472 0.01464 0.0
C522 C 0.45222 0.73707 0.01009 0.0
H523 H 0.36166 0.75634 0.04482 0.0
H524 H 0.40103 0.74786 0.04185 0.0
H525 H 0.40946 0.79605 0.04338 0.0
H526 H 0.46982 0.8166 0.03082 0.0
H527 H 0.52503 0.81142 0.03942 0.0
H528 H 0.47576 0.21687 0.33767 0.0
H529 H 0.53091 0.27463 0.34796 0.0
H530 H 0.53958 0.33372 0.3046 0.0
H531 H 0.48424 0.27608 0.29416 0.0
H532 H 0.60523 0.31315 0.33454 0.0
H533 H 0.54151 0.40723 0.33922 0.0
H534 H 0.51284 0.35578 0.33746 0.0
H535 H 0.53576 0.38455 0.32045 0.0
C536 C 0.48918 0.24218 0.33032 0.0
C537 C 0.47552 0.24183 0.31508 0.0
C538 C 0.5207 0.27514 0.33624 0.0
C539 C 0.53897 0.30849 0.32711 0.0
C540 C 0.52543 0.30841 0.31193 0.0
H541 H 0.76556 0.50286 0.33562 0.0
H542 H 0.70633 0.44609 0.32758 0.0
C543 C 0.49394 0.27538 0.30595 0.0
C544 C 0.57329 0.34278 0.33325 0.0
H545 H 0.60868 0.43664 0.34316 0.0
C546 C 0.60596 0.34011 0.3365 0.0
C547 C 0.57393 0.37773 0.33594 0.0
C548 C 0.53907 0.38161 0.33323 0.0
C549 C 0.63965 0.37179 0.34202 0.0
C550 C 0.64069 0.40706 0.34422 0.0
C551 C 0.60776 0.40954 0.34135 0.0
C552 C 0.67613 0.44191 0.34912 0.0
C553 C 0.67389 0.36733 0.3455 0.0
C554 C 0.67841 0.45872 0.3638 0.0
C555 C 0.71233 0.49125 0.36848 0.0
C556 C 0.74434 0.50765 0.35847 0.0
C557 C 0.74155 0.49096 0.34365 0.0
C558 C 0.70778 0.45842 0.33904 0.0
H559 H 0.66587 0.33675 0.34665 0.0
H560 H 0.69478 0.38002 0.33574 0.0
H561 H 0.68827 0.38259 0.35648 0.0
H562 H 0.65413 0.44638 0.37169 0.0
H563 H 0.71346 0.50347 0.37993 0.0
H564 H 0.24041 0.48394 0.67129 0.0
H565 H 0.23577 0.53873 0.68053 0.0
H566 H 0.21664 0.56265 0.63305 0.0
H567 H 0.22022 0.50705 0.62371 0.0
H568 H 0.28079 0.61299 0.67329 0.0
H569 H 0.13113 0.56639 0.65615 0.0
H570 H 0.15006 0.53419 0.65616 0.0
H571 H 0.16031 0.567 0.64013 0.0
C572 C 0.23494 0.50065 0.66279 0.0
C573 C 0.2306 0.49106 0.64674 0.0
C574 C 0.2323 0.53198 0.66811 0.0
C575 C 0.22535 0.5545 0.65753 0.0
C576 C 0.2211 0.54514 0.64149 0.0
H577 H 0.23507 0.77297 0.66817 0.0
H578 H 0.23333 0.7151 0.65832 0.0
C579 C 0.22341 0.5135 0.63615 0.0
C580 C 0.2243 0.58868 0.66332 0.0
H581 H 0.16878 0.63063 0.66515 0.0
C582 C 0.2562 0.61671 0.67157 0.0
C583 C 0.19217 0.59348 0.66109 0.0
C584 C 0.15632 0.56351 0.65303 0.0
C585 C 0.25697 0.64954 0.67752 0.0
C586 C 0.22504 0.65441 0.67517 0.0
C587 C 0.19319 0.62663 0.66689 0.0
C588 C 0.22454 0.68854 0.68115 0.0
C589 C 0.29203 0.67911 0.68613 0.0
C590 C 0.21974 0.69237 0.69723 0.0
C591 C 0.2205 0.72531 0.70292 0.0
C592 C 0.22634 0.75502 0.6926 0.0
C593 C 0.23071 0.75074 0.67645 0.0
C594 C 0.22962 0.71769 0.67078 0.0
H595 H 0.31621 0.6734 0.68526 0.0
H596 H 0.30134 0.70814 0.68138 0.0
H597 H 0.28499 0.67914 0.69873 0.0
H598 H 0.21565 0.66998 0.70538 0.0
H599 H 0.21704 0.72768 0.71541 0.0
H600 H 0.4632 0.27096 0.10683 0.0
H601 H 0.45704 0.25924 0.13514 0.0
H602 H 0.35094 0.15392 0.12778 0.0
H603 H 0.35697 0.16517 0.09942 0.0
H604 H 0.39646 0.25149 0.15406 0.0
H605 H 0.41089 0.12164 0.15699 0.0
H606 H 0.42519 0.15256 0.13999 0.0
H607 H 0.37557 0.11842 0.14328 0.0
C608 C 0.43878 0.24502 0.11119 0.0
C609 C 0.4106 0.21895 0.10084 0.0
C610 C 0.43528 0.23845 0.12738 0.0
C611 C 0.40374 0.20556 0.13354 0.0
C612 C 0.37585 0.17916 0.12325 0.0
H613 H 0.32097 0.11643 0.22647 0.0
H614 H 0.32962 0.12955 0.19831 0.0
C615 C 0.37928 0.18572 0.10705 0.0
C616 C 0.39906 0.19986 0.15077 0.0
H617 H 0.39072 0.1388 0.18028 0.0
C618 C 0.39543 0.22699 0.15983 0.0
C619 C 0.39765 0.16783 0.15823 0.0
C620 C 0.40286 0.13858 0.14917 0.0
C621 C 0.38956 0.2225 0.17613 0.0
C622 C 0.38797 0.19036 0.18358 0.0
C623 C 0.39185 0.16337 0.17453 0.0
C624 C 0.38196 0.18387 0.20075 0.0
C625 C 0.38407 0.25163 0.18515 0.0
C626 C 0.40846 0.21018 0.2115 0.0
C627 C 0.40351 0.20286 0.22765 0.0
C628 C 0.37214 0.16889 0.23332 0.0
C629 C 0.34544 0.14287 0.22251 0.0
C630 C 0.35036 0.15027 0.2064 0.0
H631 H 0.37622 0.26864 0.17729 0.0
H632 H 0.3615 0.23754 0.19423 0.0
H633 H 0.41121 0.27175 0.19115 0.0
H634 H 0.43344 0.23596 0.20738 0.0
H635 H 0.42474 0.22336 0.23564 0.0
H636 H 0.19134 0.46044 0.43945 0.0
H637 H 0.19589 0.45547 0.4679 0.0
H638 H 0.19705 0.3498 0.46194 0.0
H639 H 0.19284 0.35464 0.43344 0.0
H640 H 0.14306 0.3951 0.48702 0.0
H641 H 0.28815 0.41234 0.49137 0.0
H642 H 0.27164 0.4255 0.47401 0.0
H643 H 0.25674 0.37612 0.47779 0.0
C644 C 0.19303 0.43635 0.44415 0.0
C645 C 0.19181 0.40797 0.43415 0.0
C646 C 0.19552 0.43353 0.46042 0.0
C647 C 0.19715 0.40247 0.46701 0.0
C648 C 0.19648 0.37435 0.45708 0.0
H649 H 0.20425 0.32757 0.5616 0.0
H650 H 0.19955 0.33341 0.53324 0.0
C651 C 0.19393 0.3771 0.44079 0.0
C652 C 0.19778 0.39863 0.48431 0.0
H653 H 0.25054 0.39337 0.51455 0.0
C654 C 0.16663 0.39492 0.49307 0.0
C655 C 0.22852 0.3983 0.49214 0.0
C656 C 0.26335 0.40361 0.48339 0.0
C657 C 0.16504 0.39012 0.50945 0.0
C658 C 0.19576 0.38974 0.51728 0.0
C659 C 0.22697 0.39358 0.50851 0.0
C660 C 0.1962 0.38526 0.53456 0.0
C661 C 0.13006 0.38455 0.51816 0.0
C662 C 0.19567 0.4124 0.54474 0.0
C663 C 0.19817 0.40906 0.56101 0.0
C664 C 0.20161 0.37869 0.56736 0.0
C665 C 0.2016 0.3513 0.55712 0.0
C666 C 0.19901 0.35461 0.54089 0.0
H667 H 0.10523 0.37548 0.51016 0.0
H668 H 0.12193 0.3628 0.52759 0.0
H669 H 0.13637 0.41203 0.52367 0.0
H670 H 0.19426 0.43669 0.5401 0.0
H671 H 0.19837 0.43079 0.56855 0.0
H672 H 0.80436 0.16688 0.90375 0.0
H673 H 0.80145 0.15667 0.87531 0.0
H674 H 0.80139 0.26248 0.86788 0.0
H675 H 0.8046 0.27314 0.89623 0.0
H676 H 0.7469 0.15221 0.85286 0.0
H677 H 0.89225 0.2749 0.84119 0.0
H678 H 0.87635 0.25554 0.86063 0.0
H679 H 0.86123 0.28654 0.85204 0.0
C680 C 0.80352 0.18789 0.89607 0.0
C681 C 0.80498 0.22096 0.90227 0.0
C682 C 0.80189 0.18201 0.87983 0.0
C683 C 0.80192 0.20917 0.8695 0.0
C684 C 0.80213 0.24156 0.87565 0.0
H685 H 0.80088 0.22709 0.76762 0.0
H686 H 0.803 0.23835 0.79598 0.0
C687 C 0.80371 0.24745 0.89187 0.0
C688 C 0.80187 0.20367 0.85229 0.0
H689 H 0.85449 0.24253 0.81901 0.0
C690 C 0.77044 0.17186 0.84545 0.0
C691 C 0.83261 0.22946 0.84267 0.0
C692 C 0.86771 0.26338 0.84947 0.0
C693 C 0.76866 0.16539 0.82919 0.0
C694 C 0.79953 0.19102 0.81957 0.0
C695 C 0.83089 0.22294 0.82641 0.0
C696 C 0.79992 0.18493 0.80241 0.0
C697 C 0.73338 0.13159 0.82241 0.0
C698 C 0.79859 0.15169 0.79663 0.0
C699 C 0.79734 0.14515 0.78047 0.0
C700 C 0.79771 0.1719 0.76975 0.0
C701 C 0.80047 0.20587 0.77556 0.0
C702 C 0.80163 0.21234 0.79175 0.0
H703 H 0.70857 0.12117 0.83051 0.0
H704 H 0.72549 0.13903 0.81098 0.0
H705 H 0.73916 0.10774 0.82042 0.0
H706 H 0.7982 0.1306 0.80464 0.0
H707 H 0.79554 0.11884 0.77641 0.0
H708 H 0.53523 0.73093 0.10794 0.0
H709 H 0.54386 0.74311 0.13617 0.0
H710 H 0.65239 0.84495 0.12776 0.0
H711 H 0.64396 0.83316 0.09943 0.0
H712 H 0.60551 0.74844 0.1543 0.0
H713 H 0.59661 0.88151 0.15774 0.0
H714 H 0.57962 0.8499 0.14096 0.0
H715 H 0.62992 0.88223 0.14355 0.0
C716 C 0.56077 0.7562 0.11205 0.0
C717 C 0.58889 0.78112 0.10141 0.0
C718 C 0.56567 0.76303 0.1282 0.0
C719 C 0.5986 0.79506 0.13404 0.0
C720 C 0.62649 0.82036 0.12347 0.0
H721 H 0.67856 0.88025 0.22822 0.0
H722 H 0.67241 0.86916 0.19988 0.0
C723 C 0.62166 0.81351 0.10729 0.0
C724 C 0.60442 0.80092 0.15123 0.0
H725 H 0.6141 0.86188 0.18099 0.0
C726 C 0.60729 0.77317 0.16017 0.0
C727 C 0.6069 0.83329 0.1588 0.0
C728 C 0.60281 0.86335 0.14983 0.0
C729 C 0.61305 0.77716 0.17648 0.0
C730 C 0.61519 0.80938 0.18409 0.0
C731 C 0.61248 0.83721 0.17513 0.0
C732 C 0.61988 0.8147 0.20136 0.0
C733 C 0.61759 0.74724 0.18535 0.0
C734 C 0.59244 0.78768 0.21163 0.0
C735 C 0.59598 0.79382 0.22787 0.0
C736 C 0.62683 0.82733 0.23413 0.0
C737 C 0.65447 0.85412 0.22381 0.0
C738 C 0.65097 0.84788 0.20759 0.0
H739 H 0.6261 0.73083 0.17745 0.0
H740 H 0.63929 0.76045 0.19481 0.0
H741 H 0.58986 0.72666 0.19083 0.0
H742 H 0.56777 0.76226 0.20707 0.0
H743 H 0.57403 0.77276 0.23547 0.0
H744 H 0.73426 0.53384 0.56361 0.0
H745 H 0.74648 0.54113 0.53537 0.0
H746 H 0.84441 0.65311 0.54297 0.0
H747 H 0.83267 0.64597 0.5713 0.0
H748 H 0.74766 0.5988 0.51637 0.0
H749 H 0.88632 0.60099 0.51405 0.0
H750 H 0.85522 0.58392 0.53096 0.0
H751 H 0.88485 0.63445 0.52757 0.0
C752 C 0.7587 0.55987 0.55933 0.0
C753 C 0.78254 0.58932 0.56974 0.0
C754 C 0.76556 0.564 0.54316 0.0
C755 C 0.79651 0.5975 0.53708 0.0
C756 C 0.82073 0.62674 0.54744 0.0
H757 H 0.87893 0.67644 0.44254 0.0
H758 H 0.86785 0.67073 0.47089 0.0
C759 C 0.81389 0.62266 0.56363 0.0
C760 C 0.80223 0.60246 0.51986 0.0
H761 H 0.86503 0.61539 0.49044 0.0
C762 C 0.77325 0.6023 0.51067 0.0
C763 C 0.83572 0.6072 0.51249 0.0
C764 C 0.86722 0.60635 0.52172 0.0
C765 C 0.77705 0.60725 0.49432 0.0
C766 C 0.81043 0.6117 0.48692 0.0
C767 C 0.83948 0.612 0.49613 0.0
C768 C 0.81577 0.61582 0.46964 0.0
C769 C 0.74565 0.60848 0.48517 0.0
C770 C 0.79012 0.58686 0.4595 0.0
C771 C 0.79623 0.59015 0.44327 0.0
C772 C 0.82839 0.62227 0.43688 0.0
C773 C 0.85386 0.65134 0.44706 0.0
C774 C 0.84763 0.6481 0.46328 0.0
H775 H 0.72779 0.6156 0.49283 0.0
H776 H 0.75757 0.62985 0.47552 0.0
H777 H 0.72672 0.57992 0.47991 0.0
H778 H 0.7658 0.5613 0.46417 0.0
H779 H 0.77623 0.56709 0.43577 0.0
H780 H 0.19267 0.73153 0.90023 0.0
H781 H 0.19776 0.74393 0.87199 0.0
H782 H 0.18986 0.84545 0.87984 0.0
H783 H 0.18504 0.8335 0.90816 0.0
H784 H 0.14264 0.74865 0.8532 0.0
H785 H 0.28312 0.88301 0.85067 0.0
H786 H 0.26796 0.85157 0.86751 0.0
H787 H 0.24974 0.88364 0.86445 0.0
C788 C 0.19249 0.75679 0.896 0.0
C789 C 0.18851 0.78158 0.90648 0.0
C790 C 0.19531 0.76375 0.87984 0.0
C791 C 0.19452 0.79576 0.87384 0.0
C792 C 0.19116 0.82092 0.88425 0.0
H793 H 0.19793 0.88309 0.78058 0.0
H794 H 0.19378 0.87056 0.80879 0.0
C795 C 0.18828 0.81396 0.90043 0.0
C796 C 0.19531 0.80171 0.85663 0.0
H797 H 0.24639 0.8641 0.82726 0.0
C798 C 0.1654 0.77379 0.84749 0.0
C799 C 0.22497 0.83458 0.84926 0.0
C800 C 0.25848 0.86481 0.85843 0.0
C801 C 0.16398 0.77819 0.83119 0.0
C802 C 0.19367 0.81107 0.8238 0.0
C803 C 0.22362 0.83895 0.83295 0.0
C804 C 0.19423 0.81731 0.80661 0.0
C805 C 0.13022 0.74809 0.82209 0.0
C806 C 0.19577 0.79144 0.79599 0.0
C807 C 0.19794 0.79841 0.77982 0.0
C808 C 0.19901 0.83159 0.77398 0.0
C809 C 0.19714 0.85724 0.78466 0.0
C810 C 0.19484 0.85019 0.8008 0.0
H811 H 0.10544 0.73049 0.82988 0.0
H812 H 0.12111 0.76133 0.81286 0.0
H813 H 0.13846 0.72862 0.81628 0.0
H814 H 0.19611 0.76627 0.80023 0.0
H815 H 0.19964 0.77823 0.77193 0.0
H816 H 0.56309 0.66677 0.07906 0.0
H817 H 0.53082 0.60133 0.08944 0.0
H818 H 0.56606 0.56334 0.04865 0.0
H819 H 0.59836 0.62828 0.03828 0.0
H820 H 0.47069 0.54356 0.07358 0.0
H821 H 0.58087 0.5031 0.08343 0.0
H822 H 0.59223 0.55249 0.08234 0.0
H823 H 0.58766 0.52586 0.06468 0.0
C824 C 0.56497 0.64467 0.07255 0.0
C825 C 0.58298 0.65258 0.05777 0.0
C826 C 0.54647 0.60732 0.0785 0.0
C827 C 0.54634 0.57756 0.0699 0.0
C828 C 0.56647 0.58597 0.05566 0.0
H829 H 0.3958 0.36743 0.03624 0.0
H830 H 0.42727 0.43231 0.0467 0.0
C831 C 0.58467 0.62311 0.04967 0.0
C832 C 0.52058 0.53704 0.07422 0.0
H833 H 0.5181 0.45132 0.0749 0.0
C834 C 0.48105 0.52342 0.07438 0.0
C835 C 0.534 0.5108 0.07557 0.0
C836 C 0.57607 0.52393 0.07667 0.0
C837 C 0.45466 0.48403 0.07414 0.0
C838 C 0.46828 0.45786 0.07353 0.0
C839 C 0.50764 0.47143 0.0751 0.0
C840 C 0.44335 0.4175 0.06877 0.0
C841 C 0.41252 0.4709 0.07375 0.0
C842 C 0.44162 0.38749 0.07775 0.0
C843 C 0.4237 0.35023 0.07174 0.0
C844 C 0.40776 0.34256 0.05655 0.0
C845 C 0.40782 0.37235 0.04796 0.0
C846 C 0.42554 0.40946 0.05399 0.0
H847 H 0.40642 0.49138 0.08006 0.0
H848 H 0.40334 0.4696 0.06136 0.0
H849 H 0.39527 0.44205 0.07907 0.0
H850 H 0.45546 0.39318 0.08912 0.0
H851 H 0.42417 0.32791 0.07867 0.0
H852 H 0.96026 0.58999 0.3679 0.0
H853 H 0.99425 0.55748 0.37652 0.0
H854 H 0.93389 0.52969 0.42067 0.0
H855 H 0.89913 0.56189 0.41205 0.0
H856 H 0.0397 0.56273 0.40297 0.0
H857 H 0.90159 0.42461 0.40035 0.0
H858 H 0.90667 0.46824 0.3922 0.0
H859 H 0.90435 0.4615 0.41309 0.0
C860 C 0.95463 0.57762 0.37957 0.0
C861 C 0.92649 0.57794 0.38917 0.0
C862 C 0.9742 0.55914 0.3845 0.0
C863 C 0.96603 0.54062 0.3991 0.0
C864 C 0.9401 0.54332 0.40925 0.0
H865 H 0.09691 0.41997 0.41018 0.0
H866 H 0.06314 0.45267 0.41942 0.0
C867 C 0.92044 0.5619 0.40432 0.0
C868 C 0.98198 0.51547 0.40268 0.0
H869 H 0.95764 0.42128 0.40202 0.0
C870 C 0.02185 0.5318 0.40319 0.0
C871 C 0.95841 0.47514 0.40287 0.0
C872 C 0.91537 0.45609 0.40203 0.0
C873 C 0.03893 0.50884 0.40278 0.0
C874 C 0.01535 0.46855 0.40205 0.0
C875 C 0.97549 0.45219 0.40266 0.0
C876 C 0.03126 0.44368 0.39789 0.0
C877 C 0.08196 0.52793 0.40188 0.0
C878 C 0.023 0.42623 0.38306 0.0
C879 C 0.04201 0.40747 0.37777 0.0
C880 C 0.06963 0.40576 0.38725 0.0
C881 C 0.07594 0.42099 0.40255 0.0
C882 C 0.05686 0.43985 0.40783 0.0
H883 H 0.09577 0.55954 0.4007 0.0
H884 H 0.093 0.52152 0.41272 0.0
H885 H 0.09061 0.51664 0.39174 0.0
H886 H 0.0032 0.42878 0.37524 0.0
H887 H 0.03623 0.3958 0.36599 0.0
H888 H 0.64225 0.02432 0.70827 0.0
H889 H 0.57424 0.99244 0.7149 0.0
H890 H 0.59537 0.08559 0.74594 0.0
H891 H 0.66369 0.11671 0.73994 0.0
H892 H 0.53606 0.01749 0.75645 0.0
H893 H 0.51791 0.03934 0.6935 0.0
H894 H 0.53925 0.00999 0.69628 0.0
H895 H 0.56428 0.05924 0.70259 0.0
C896 C 0.63252 0.03742 0.71685 0.0
C897 C 0.65803 0.07325 0.72338 0.0
C898 C 0.5937 0.01932 0.72056 0.0
C899 C 0.57969 0.03737 0.73047 0.0
C900 C 0.60558 0.0714 0.73813 0.0
H901 H 0.34735 0.98353 0.71266 0.0
H902 H 0.41554 0.02087 0.71884 0.0
C903 C 0.6446 0.08912 0.7347 0.0
C904 C 0.53813 0.02329 0.73127 0.0
H905 H 0.46124 0.00115 0.70798 0.0
C906 C 0.5196 0.01408 0.7459 0.0
C907 C 0.51701 0.02021 0.71754 0.0
C908 C 0.53569 0.03313 0.70162 0.0
C909 C 0.4801 0.00041 0.74706 0.0
C910 C 0.45859 0.99488 0.73318 0.0
C911 C 0.47753 0.00523 0.71865 0.0
C912 C 0.41626 0.97655 0.73302 0.0
C913 C 0.46209 0.99258 0.76315 0.0
C914 C 0.39354 0.94001 0.73958 0.0
C915 C 0.35435 0.91917 0.73644 0.0
C916 C 0.33757 0.93405 0.72627 0.0
C917 C 0.35975 0.97142 0.72048 0.0
C918 C 0.39866 0.99268 0.72399 0.0
H919 H 0.48305 0.01135 0.77214 0.0
H920 H 0.43704 0.99699 0.76343 0.0
H921 H 0.45248 0.96248 0.76646 0.0
H922 H 0.40639 0.92641 0.74621 0.0
H923 H 0.33788 0.89022 0.74093 0.0
H924 H 0.62874 0.59768 0.63337 0.0
H925 H 0.56453 0.5676 0.62239 0.0
H926 H 0.60525 0.54292 0.57959 0.0
H927 H 0.67001 0.57271 0.59063 0.0
H928 H 0.53067 0.57661 0.5946 0.0
H929 H 0.5272 0.43652 0.59728 0.0
H930 H 0.56464 0.47872 0.6067 0.0
H931 H 0.56373 0.47453 0.5857 0.0
C932 C 0.62431 0.58651 0.62151 0.0
C933 C 0.65431 0.58698 0.61298 0.0
C934 C 0.58759 0.56946 0.61522 0.0
C935 C 0.5801 0.55252 0.60029 0.0
C936 C 0.61044 0.5554 0.59123 0.0
H937 H 0.32929 0.43722 0.58958 0.0
H938 H 0.39449 0.46721 0.57905 0.0
C939 C 0.6474 0.57257 0.59753 0.0
C940 C 0.53981 0.52845 0.59538 0.0
H941 H 0.46869 0.43493 0.59576 0.0
C942 C 0.51704 0.54561 0.59432 0.0
C943 C 0.52236 0.48804 0.59506 0.0
C944 C 0.54552 0.46811 0.59629 0.0
C945 C 0.477 0.52345 0.59445 0.0
C946 C 0.45956 0.48311 0.59545 0.0
C947 C 0.48233 0.46587 0.59499 0.0
C948 C 0.41919 0.45942 0.60031 0.0
C949 C 0.45383 0.54345 0.59502 0.0
C950 C 0.41136 0.44354 0.61544 0.0
C951 C 0.37437 0.42637 0.62146 0.0
C952 C 0.34443 0.42473 0.61245 0.0
C953 C 0.35183 0.43832 0.59687 0.0
C954 C 0.38903 0.45559 0.59084 0.0
H955 H 0.47214 0.57511 0.59559 0.0
H956 H 0.4357 0.53614 0.58436 0.0
H957 H 0.43462 0.5337 0.60541 0.0
H958 H 0.43429 0.44617 0.62292 0.0
H959 H 0.36962 0.41589 0.63343 0.0
H960 H 0.09789 0.66804 0.92825 0.0
H961 H 0.06521 0.60287 0.91761 0.0
H962 H 0.99161 0.56365 0.95824 0.0
H963 H 0.02376 0.62835 0.96888 0.0
H964 H 0.0672 0.54426 0.93313 0.0
H965 H 0.91711 0.50526 0.92303 0.0
H966 H 0.95524 0.55448 0.92444 0.0
H967 H 0.9329 0.52718 0.94193 0.0
C968 C 0.07398 0.64573 0.93469 0.0
C969 C 0.06357 0.65325 0.94948 0.0
C970 C 0.05541 0.60854 0.92859 0.0
C971 C 0.02577 0.57853 0.93705 0.0
C972 C 0.01386 0.5865 0.95134 0.0
H973 H 0.96404 0.36595 0.96866 0.0
H974 H -0.00174 0.43138 0.95882 0.0
C975 C 0.03251 0.6235 0.95748 0.0
C976 C 0.01099 0.53815 0.93244 0.0
H977 H 0.9277 0.4528 0.9309 0.0
C978 C 0.03675 0.52431 0.93214 0.0
C979 C 0.9714 0.51221 0.93084 0.0
C980 C 0.94266 0.52566 0.9299 0.0
C981 C 0.02362 0.48487 0.93196 0.0
C982 C 0.98384 0.45886 0.93229 0.0
C983 C 0.95825 0.47277 0.93089 0.0
C984 C 0.96813 0.41816 0.93661 0.0
C985 C 0.05244 0.47145 0.93221 0.0
C986 C 0.94006 0.38885 0.92733 0.0
C987 C 0.92026 0.35126 0.93297 0.0
C988 C 0.92786 0.34258 0.9481 0.0
C989 C 0.95745 0.37166 0.95698 0.0
C990 C 0.9773 0.40909 0.9513 0.0
H991 H 0.07922 0.49222 0.92611 0.0
H992 H 0.05988 0.46928 0.94457 0.0
H993 H 0.04094 0.44294 0.92657 0.0
H994 H 0.93237 0.39535 0.91601 0.0
H995 H 0.89759 0.3295 0.92584 0.0
H996 H 0.56607 0.89553 0.25733 0.0
H997 H 0.53609 0.93109 0.24714 0.0
H998 H 0.56394 0.99605 0.29017 0.0
H999 H 0.59401 0.96104 0.30037 0.0
H1000 H 0.47345 0.92727 0.26146 0.0
H1001 H 0.58786 0.07823 0.25737 0.0
H1002 H 0.59775 0.03916 0.258 0.0
H1003 H 0.58994 0.05817 0.27588 0.0
C1004 C 0.56672 0.91812 0.26445 0.0
C1005 C 0.58214 0.92528 0.27972 0.0
C1006 C 0.54956 0.93836 0.2586 0.0
C1007 C 0.54814 0.96645 0.26783 0.0
C1008 C 0.56543 0.97508 0.2827 0.0
H1009 H 0.39441 0.02622 0.29761 0.0
H1010 H 0.42683 0.99316 0.28782 0.0
C1011 C 0.58234 0.95477 0.28859 0.0
C1012 C 0.52407 0.98296 0.26317 0.0
H1013 H 0.524 0.06745 0.26357 0.0
C1014 C 0.4846 0.95797 0.26144 0.0
C1015 C 0.53862 0.02293 0.26282 0.0
C1016 C 0.58095 0.05112 0.26344 0.0
C1017 C 0.45898 0.97191 0.26101 0.0
C1018 C 0.47328 0.01169 0.26256 0.0
C1019 C 0.51297 0.03685 0.26262 0.0
C1020 C 0.44811 0.02728 0.26668 0.0
C1021 C 0.41673 0.9438 0.25969 0.0
C1022 C 0.44898 0.05726 0.25797 0.0
C1023 C 0.43046 0.07639 0.26359 0.0
C1024 C 0.41136 0.06618 0.27814 0.0
C1025 C 0.40893 0.03485 0.28639 0.0
C1026 C 0.4272 0.01567 0.28073 0.0
H1027 H 0.41145 0.91802 0.25293 0.0
H1028 H 0.40465 0.93421 0.27162 0.0
H1029 H 0.40136 0.95693 0.25392 0.0
H1030 H 0.46524 0.06683 0.24716 0.0
H1031 H 0.4329 0.10044 0.25695 0.0
loop_
_geom_bond_atom_site_label_1
_geom_bond_atom_site_label_2
_geom_bond_distance
_geom_bond_site_symmetry_2
_ccdc_geom_bond_type
Zn0 O3 2.031 . S
Zn0 O5 2.049 . S
Zn0 O10 2.067 . S
Zn1 O2 1.962 . S
Zn1 O4 1.986 . S
Zn1 O6 1.996 . S
Zn1 O9 1.943 . S
O2 Zn1 1.962 . S
O2 C7 1.254 . S
O3 Zn0 2.031 . S
O3 C7 1.269 . S
O4 Zn1 1.986 . S
O4 C11 1.262 . S
O5 Zn0 2.049 . S
O5 C13 1.260 . S
O6 Zn1 1.996 . S
O6 C13 1.257 . S
C7 O2 1.254 . S
C7 O3 1.269 . S
C8 O9 1.249 . S
C8 O10 1.270 . S
O9 Zn1 1.943 . S
O9 C8 1.249 . S
O10 Zn0 2.067 . S
O10 C8 1.270 . S
C11 O4 1.262 . S
C11 O12 1.232 . S
O12 C11 1.232 . S
C13 O5 1.260 . S
C13 O6 1.257 . S
Zn14 O17 2.031 . S
Zn14 O19 2.049 . S
Zn14 O24 2.067 . S
Zn15 O16 1.962 . S
Zn15 O18 1.986 . S
Zn15 O20 1.996 . S
Zn15 O23 1.943 . S
O16 Zn15 1.962 . S
O16 C21 1.254 . S
O17 Zn14 2.031 . S
O17 C21 1.269 . S
O18 Zn15 1.986 . S
O18 C25 1.262 . S
O19 Zn14 2.049 . S
O19 C27 1.260 . S
O20 Zn15 1.996 . S
O20 C27 1.257 . S
C21 O16 1.254 . S
C21 O17 1.269 . S
C22 O23 1.249 . S
C22 O24 1.270 . S
O23 Zn15 1.943 . S
O23 C22 1.249 . S
O24 Zn14 2.067 . S
O24 C22 1.270 . S
C25 O18 1.262 . S
C25 O26 1.232 . S
O26 C25 1.232 . S
C27 O19 1.260 . S
C27 O20 1.257 . S
Zn28 O31 2.031 . S
Zn28 O33 2.049 . S
Zn28 O38 2.067 . S
Zn29 O30 1.962 . S
Zn29 O32 1.986 . S
Zn29 O34 1.996 . S
Zn29 O37 1.943 . S
O30 Zn29 1.962 . S
O30 C35 1.254 . S
O31 Zn28 2.031 . S
O31 C35 1.269 . S
O32 Zn29 1.986 . S
O32 C39 1.262 . S
O33 Zn28 2.049 . S
O33 C41 1.260 . S
O34 Zn29 1.996 . S
O34 C41 1.257 . S
C35 O30 1.254 . S
C35 O31 1.269 . S
C36 O37 1.249 . S
C36 O38 1.270 . S
O37 Zn29 1.943 . S
O37 C36 1.249 . S
O38 Zn28 2.067 . S
O38 C36 1.270 . S
C39 O32 1.262 . S
C39 O40 1.232 . S
O40 C39 1.232 . S
C41 O33 1.260 . S
C41 O34 1.257 . S
Zn42 O45 2.031 . S
Zn42 O47 2.049 . S
Zn42 O52 2.067 . S
Zn43 O44 1.962 . S
Zn43 O46 1.986 . S
Zn43 O48 1.996 . S
Zn43 O51 1.943 . S
O44 Zn43 1.962 . S
O44 C49 1.254 . S
O45 Zn42 2.031 . S
O45 C49 1.269 . S
O46 Zn43 1.986 . S
O46 C53 1.262 . S
O47 Zn42 2.049 . S
O47 C55 1.260 . S
O48 Zn43 1.996 . S
O48 C55 1.257 . S
C49 O44 1.254 . S
C49 O45 1.269 . S
C50 O51 1.249 . S
C50 O52 1.270 . S
O51 Zn43 1.943 . S
O51 C50 1.249 . S
O52 Zn42 2.067 . S
O52 C50 1.270 . S
C53 O46 1.262 . S
C53 O54 1.232 . S
O54 C53 1.232 . S
C55 O47 1.260 . S
C55 O48 1.257 . S
Zn56 O59 2.031 . S
Zn56 O61 2.049 . S
Zn56 O66 2.067 . S
Zn57 O58 1.962 . S
Zn57 O60 1.986 . S
Zn57 O62 1.996 . S
Zn57 O65 1.943 . S
O58 Zn57 1.962 . S
O58 C63 1.254 . S
O59 Zn56 2.031 . S
O59 C63 1.269 . S
O60 Zn57 1.986 . S
O60 C67 1.262 . S
O61 Zn56 2.049 . S
O61 C69 1.260 . S
O62 Zn57 1.996 . S
O62 C69 1.257 . S
C63 O58 1.254 . S
C63 O59 1.269 . S
C64 O65 1.249 . S
C64 O66 1.270 . S
O65 Zn57 1.943 . S
O65 C64 1.249 . S
O66 Zn56 2.067 . S
O66 C64 1.270 . S
C67 O60 1.262 . S
C67 O68 1.232 . S
O68 C67 1.232 . S
C69 O61 1.260 . S
C69 O62 1.257 . S
Zn70 O73 2.031 . S
Zn70 O75 2.049 . S
Zn70 O80 2.067 . S
Zn71 O72 1.962 . S
Zn71 O74 1.986 . S
Zn71 O76 1.996 . S
Zn71 O79 1.943 . S
O72 Zn71 1.962 . S
O72 C77 1.254 . S
O73 Zn70 2.031 . S
O73 C77 1.269 . S
O74 Zn71 1.986 . S
O74 C81 1.262 . S
O75 Zn70 2.049 . S
O75 C83 1.260 . S
O76 Zn71 1.996 . S
O76 C83 1.257 . S
C77 O72 1.254 . S
C77 O73 1.269 . S
C78 O79 1.249 . S
C78 O80 1.270 . S
O79 Zn71 1.943 . S
O79 C78 1.249 . S
O80 Zn70 2.067 . S
O80 C78 1.270 . S
C81 O74 1.262 . S
C81 O82 1.232 . S
O82 C81 1.232 . S
C83 O75 1.260 . S
C83 O76 1.257 . S
Zn84 O87 2.031 . S
Zn84 O89 2.049 . S
Zn84 O94 2.067 . S
Zn85 O86 1.962 . S
Zn85 O88 1.986 . S
Zn85 O90 1.996 . S
Zn85 O93 1.943 . S
O86 Zn85 1.962 . S
O86 C91 1.254 . S
O87 Zn84 2.031 . S
O87 C91 1.269 . S
O88 Zn85 1.986 . S
O88 C95 1.262 . S
O89 Zn84 2.049 . S
O89 C97 1.260 . S
O90 Zn85 1.996 . S
O90 C97 1.257 . S
C91 O86 1.254 . S
C91 O87 1.269 . S
C92 O93 1.249 . S
C92 O94 1.270 . S
O93 Zn85 1.943 . S
O93 C92 1.249 . S
O94 Zn84 2.067 . S
O94 C92 1.270 . S
C95 O88 1.262 . S
C95 O96 1.232 . S
O96 C95 1.232 . S
C97 O89 1.260 . S
C97 O90 1.257 . S
Zn98 O101 2.031 . S
Zn98 O103 2.049 . S
Zn98 O108 2.067 . S
Zn99 O100 1.962 . S
Zn99 O102 1.986 . S
Zn99 O104 1.996 . S
Zn99 O107 1.943 . S
O100 Zn99 1.962 . S
O100 C105 1.254 . S
O101 Zn98 2.031 . S
O101 C105 1.269 . S
O102 Zn99 1.986 . S
O102 C109 1.262 . S
O103 Zn98 2.049 . S
O103 C111 1.260 . S
O104 Zn99 1.996 . S
O104 C111 1.257 . S
C105 O100 1.254 . S
C105 O101 1.269 . S
C106 O107 1.249 . S
C106 O108 1.270 . S
O107 Zn99 1.943 . S
O107 C106 1.249 . S
O108 Zn98 2.067 . S
O108 C106 1.270 . S
C109 O102 1.262 . S
C109 O110 1.232 . S
O110 C109 1.232 . S
C111 O103 1.260 . S
C111 O104 1.257 . S
Zn112 O115 2.031 . S
Zn112 O117 2.049 . S
Zn112 O122 2.067 . S
Zn113 O114 1.962 . S
Zn113 O116 1.986 . S
Zn113 O118 1.996 . S
Zn113 O121 1.943 . S
O114 Zn113 1.962 . S
O114 C119 1.254 . S
O115 Zn112 2.031 . S
O115 C119 1.269 . S
O116 Zn113 1.986 . S
O116 C123 1.262 . S
O117 Zn112 2.049 . S
O117 C125 1.260 . S
O118 Zn113 1.996 . S
O118 C125 1.257 . S
C119 O114 1.254 . S
C119 O115 1.269 . S
C120 O121 1.249 . S
C120 O122 1.270 . S
O121 Zn113 1.943 . S
O121 C120 1.249 . S
O122 Zn112 2.067 . S
O122 C120 1.270 . S
C123 O116 1.262 . S
C123 O124 1.232 . S
O124 C123 1.232 . S
C125 O117 1.260 . S
C125 O118 1.257 . S
Zn126 O129 2.031 . S
Zn126 O131 2.049 . S
Zn126 O136 2.067 . S
Zn127 O128 1.962 . S
Zn127 O130 1.986 . S
Zn127 O132 1.996 . S
Zn127 O135 1.943 . S
O128 Zn127 1.962 . S
O128 C133 1.254 . S
O129 Zn126 2.031 . S
O129 C133 1.269 . S
O130 Zn127 1.986 . S
O130 C137 1.262 . S
O131 Zn126 2.049 . S
O131 C139 1.260 . S
O132 Zn127 1.996 . S
O132 C139 1.257 . S
C133 O128 1.254 . S
C133 O129 1.269 . S
C134 O135 1.249 . S
C134 O136 1.270 . S
O135 Zn127 1.943 . S
O135 C134 1.249 . S
O136 Zn126 2.067 . S
O136 C134 1.270 . S
C137 O130 1.262 . S
C137 O138 1.232 . S
O138 C137 1.232 . S
C139 O131 1.260 . S
C139 O132 1.257 . S
Zn140 O143 2.031 . S
Zn140 O145 2.049 . S
Zn140 O150 2.067 . S
Zn141 O142 1.962 . S
Zn141 O144 1.986 . S
Zn141 O146 1.996 . S
Zn141 O149 1.943 . S
O142 Zn141 1.962 . S
O142 C147 1.254 . S
O143 Zn140 2.031 . S
O143 C147 1.269 . S
O144 Zn141 1.986 . S
O144 C151 1.262 . S
O145 Zn140 2.049 . S
O145 C153 1.260 . S
O146 Zn141 1.996 . S
O146 C153 1.257 . S
C147 O142 1.254 . S
C147 O143 1.269 . S
C148 O149 1.249 . S
C148 O150 1.270 . S
O149 Zn141 1.943 . S
O149 C148 1.249 . S
O150 Zn140 2.067 . S
O150 C148 1.270 . S
C151 O144 1.262 . S
C151 O152 1.232 . S
O152 C151 1.232 . S
C153 O145 1.260 . S
C153 O146 1.257 . S
Zn154 O157 2.031 . S
Zn154 O159 2.049 . S
Zn154 O164 2.067 . S
Zn155 O156 1.962 . S
Zn155 O158 1.986 . S
Zn155 O160 1.996 . S
Zn155 O163 1.943 . S
O156 Zn155 1.962 . S
O156 C161 1.254 . S
O157 Zn154 2.031 . S
O157 C161 1.269 . S
O158 Zn155 1.986 . S
O158 C165 1.262 . S
O159 Zn154 2.049 . S
O159 C167 1.260 . S
O160 Zn155 1.996 . S
O160 C167 1.257 . S
C161 O156 1.254 . S
C161 O157 1.269 . S
C162 O163 1.249 . S
C162 O164 1.270 . S
O163 Zn155 1.943 . S
O163 C162 1.249 . S
O164 Zn154 2.067 . S
O164 C162 1.270 . S
C165 O158 1.262 . S
C165 O166 1.232 . S
O166 C165 1.232 . S
C167 O159 1.260 . S
C167 O160 1.257 . S
H168 C176 0.929 . S
H169 C178 0.930 . S
H170 C180 0.930 1_554 S
H171 C183 0.929 . S
H172 C186 0.930 . S
H173 C188 0.960 . S
H174 C188 0.960 . S
H175 C188 0.960 . S
C176 H168 0.929 . S
C176 C177 1.377 . S
C176 C178 1.384 . S
C177 C176 1.377 . S
C177 C183 1.390 . S
C178 H169 0.930 . S
C178 C176 1.384 . S
C178 C179 1.372 . S
C179 C178 1.372 . S
C179 C180 1.400 . S
C179 C184 1.490 . S
C180 H170 0.930 1_556 S
C180 C179 1.400 . S
C180 C183 1.386 . S
H181 C197 0.930 . S
H182 C198 0.931 . S
C183 H171 0.929 . S
C183 C177 1.390 . S
C183 C180 1.386 . S
C184 C179 1.490 . S
C184 C186 1.395 . S
C184 C187 1.403 1_556 S
H185 C191 0.930 . S
C186 H172 0.930 . S
C186 C184 1.395 . S
C186 C189 1.403 1_565 S
C187 C184 1.403 1_554 S
C187 C188 1.524 . S
C187 C191 1.400 1_565 S
C188 H173 0.960 . S
C188 H174 0.960 . S
C188 H175 0.960 . S
C188 C187 1.524 . S
C189 C186 1.403 1_545 S
C189 C190 1.392 1_556 S
C189 C193 1.495 . S
C190 C189 1.392 1_554 S
C190 C191 1.385 . S
C190 C192 1.478 . S
C191 H185 0.930 . S
C191 C187 1.400 1_545 S
C191 C190 1.385 . S
C192 C190 1.478 . S
C192 C194 1.381 . S
C192 C198 1.383 . S
C193 C189 1.495 . S
C193 H199 0.959 . S
C193 H200 0.961 . S
C193 H201 0.960 . S
C194 C192 1.381 . S
C194 C195 1.394 . S
C194 H202 0.930 1_554 S
C195 C194 1.394 . S
C195 C196 1.383 . S
C195 H203 0.929 . S
C196 C195 1.383 . S
C196 C197 1.377 . S
C197 H181 0.930 . S
C197 C196 1.377 . S
C197 C198 1.379 . S
C198 H182 0.931 . S
C198 C192 1.383 . S
C198 C197 1.379 . S
H199 C193 0.959 . S
H200 C193 0.961 . S
H201 C193 0.960 . S
H202 C194 0.930 1_556 S
H203 C195 0.929 . S
H204 C212 0.929 . S
H205 C214 0.930 . S
H206 C216 0.930 . S
H207 C219 0.929 . S
H208 C222 0.930 . S
H209 C224 0.960 . S
H210 C224 0.960 . S
H211 C224 0.960 . S
C212 H204 0.929 . S
C212 C213 1.377 . S
C212 C214 1.384 . S
C213 C212 1.377 . S
C213 C219 1.390 . S
C214 H205 0.930 . S
C214 C212 1.384 . S
C214 C215 1.372 . S
C215 C214 1.372 . S
C215 C216 1.400 . S
C215 C220 1.490 . S
C216 H206 0.930 . S
C216 C215 1.400 . S
C216 C219 1.386 . S
H217 C233 0.930 . S
H218 C234 0.931 . S
C219 H207 0.929 . S
C219 C213 1.390 . S
C219 C216 1.386 . S
C220 C215 1.490 . S
C220 C222 1.395 . S
C220 C223 1.403 . S
H221 C227 0.930 . S
C222 H208 0.930 . S
C222 C220 1.395 . S
C222 C225 1.403 . S
C223 C220 1.403 . S
C223 C224 1.524 . S
C223 C227 1.400 . S
C224 H209 0.960 . S
C224 H210 0.960 . S
C224 H211 0.960 . S
C224 C223 1.524 . S
C225 C222 1.403 . S
C225 C226 1.392 . S
C225 C229 1.495 . S
C226 C225 1.392 . S
C226 C227 1.385 . S
C226 C228 1.478 . S
C227 H221 0.930 . S
C227 C223 1.400 . S
C227 C226 1.385 . S
C228 C226 1.478 . S
C228 C230 1.381 . S
C228 C234 1.383 . S
C229 C225 1.495 . S
C229 H235 0.959 . S
C229 H236 0.961 . S
C229 H237 0.960 . S
C230 C228 1.381 . S
C230 C231 1.394 . S
C230 H238 0.930 . S
C231 C230 1.394 . S
C231 C232 1.383 . S
C231 H239 0.929 . S
C232 C231 1.383 . S
C232 C233 1.377 . S
C233 H217 0.930 . S
C233 C232 1.377 . S
C233 C234 1.379 . S
C234 H218 0.931 . S
C234 C228 1.383 . S
C234 C233 1.379 . S
H235 C229 0.959 . S
H236 C229 0.961 . S
H237 C229 0.960 . S
H238 C230 0.930 . S
H239 C231 0.929 . S
H240 C248 0.929 . S
H241 C250 0.930 . S
H242 C252 0.930 . S
H243 C255 0.929 . S
H244 C258 0.930 . S
H245 C260 0.960 . S
H246 C260 0.960 . S
H247 C260 0.960 . S
C248 H240 0.929 . S
C248 C249 1.377 . S
C248 C250 1.384 . S
C249 C248 1.377 . S
C249 C255 1.390 . S
C250 H241 0.930 . S
C250 C248 1.384 . S
C250 C251 1.372 . S
C251 C250 1.372 . S
C251 C252 1.400 . S
C251 C256 1.490 . S
C252 H242 0.930 . S
C252 C251 1.400 . S
C252 C255 1.386 . S
H253 C269 0.930 . S
H254 C270 0.931 . S
C255 H243 0.929 . S
C255 C249 1.390 . S
C255 C252 1.386 . S
C256 C251 1.490 . S
C256 C258 1.395 . S
C256 C259 1.403 . S
H257 C263 0.930 . S
C258 H244 0.930 . S
C258 C256 1.395 . S
C258 C261 1.403 1_655 S
C259 C256 1.403 . S
C259 C260 1.524 . S
C259 C263 1.400 1_655 S
C260 H245 0.960 . S
C260 H246 0.960 . S
C260 H247 0.960 . S
C260 C259 1.524 . S
C261 C258 1.403 1_455 S
C261 C262 1.392 . S
C261 C265 1.495 . S
C262 C261 1.392 . S
C262 C263 1.385 . S
C262 C264 1.478 . S
C263 H257 0.930 . S
C263 C259 1.400 1_455 S
C263 C262 1.385 . S
C264 C262 1.478 . S
C264 C266 1.381 . S
C264 C270 1.383 . S
C265 C261 1.495 . S
C265 H271 0.959 . S
C265 H272 0.961 . S
C265 H273 0.960 . S
C266 C264 1.381 . S
C266 C267 1.394 . S
C266 H274 0.930 . S
C267 C266 1.394 . S
C267 C268 1.383 . S
C267 H275 0.929 . S
C268 C267 1.383 . S
C268 C269 1.377 . S
C269 H253 0.930 . S
C269 C268 1.377 . S
C269 C270 1.379 . S
C270 H254 0.931 . S
C270 C264 1.383 . S
C270 C269 1.379 . S
H271 C265 0.959 . S
H272 C265 0.961 . S
H273 C265 0.960 . S
H274 C266 0.930 . S
H275 C267 0.929 . S
H276 C284 0.929 . S
H277 C286 0.930 1_556 S
H278 C288 0.930 . S
H279 C291 0.929 . S
H280 C294 0.930 . S
H281 C296 0.960 1_545 S
H282 C296 0.960 . S
H283 C296 0.960 . S
C284 H276 0.929 . S
C284 C285 1.377 . S
C284 C286 1.384 . S
C285 C284 1.377 . S
C285 C291 1.390 . S
C286 H277 0.930 1_554 S
C286 C284 1.384 . S
C286 C287 1.372 . S
C287 C286 1.372 . S
C287 C288 1.400 . S
C287 C292 1.490 . S
C288 H278 0.930 . S
C288 C287 1.400 . S
C288 C291 1.386 . S
H289 C305 0.930 . S
H290 C306 0.931 1_554 S
C291 H279 0.929 . S
C291 C285 1.390 . S
C291 C288 1.386 . S
C292 C287 1.490 . S
C292 C294 1.395 1_554 S
C292 C295 1.403 . S
H293 C299 0.942 . S
C294 H280 0.930 . S
C294 C292 1.395 1_556 S
C294 C297 1.403 1_565 S
C295 C292 1.403 . S
C295 C296 1.524 . S
C295 C299 1.428 1_565 S
C296 H281 0.960 1_565 S
C296 H282 0.960 . S
C296 H283 0.960 . S
C296 C295 1.524 . S
C297 C294 1.403 1_545 S
C297 C298 1.392 . S
C297 C301 1.495 . S
C298 C297 1.392 . S
C298 C299 1.350 1_556 S
C298 C300 1.478 . S
C299 H293 0.942 . S
C299 C295 1.428 1_545 S
C299 C298 1.350 1_554 S
C300 C298 1.478 . S
C300 C302 1.381 . S
C300 C306 1.383 . S
C301 C297 1.495 . S
C301 H307 0.959 1_545 S
C301 H308 0.961 . S
C301 H309 0.960 . S
C302 C300 1.381 . S
C302 C303 1.394 . S
C302 H310 0.930 . S
C303 C302 1.394 . S
C303 C304 1.383 . S
C303 H311 0.929 . S
C304 C303 1.383 . S
C304 C305 1.377 . S
C305 H289 0.930 . S
C305 C304 1.377 . S
C305 C306 1.379 . S
C306 H290 0.931 1_556 S
C306 C300 1.383 . S
C306 C305 1.379 . S
H307 C301 0.959 1_565 S
H308 C301 0.961 . S
H309 C301 0.960 . S
H310 C302 0.930 . S
H311 C303 0.929 . S
H312 C320 0.929 . S
H313 C322 0.930 . S
H314 C324 0.930 . S
H315 C327 0.929 . S
H316 C330 0.930 . S
H317 C332 0.960 . S
H318 C332 0.960 . S
H319 C332 0.960 . S
C320 H312 0.929 . S
C320 C321 1.377 . S
C320 C322 1.384 . S
C321 C320 1.377 . S
C321 C327 1.390 . S
C322 H313 0.930 . S
C322 C320 1.384 . S
C322 C323 1.372 . S
C323 C322 1.372 . S
C323 C324 1.400 . S
C323 C328 1.490 . S
C324 H314 0.930 . S
C324 C323 1.400 . S
C324 C327 1.386 . S
H325 C341 0.930 . S
H326 C342 0.931 . S
C327 H315 0.929 . S
C327 C321 1.390 . S
C327 C324 1.386 . S
C328 C323 1.490 . S
C328 C330 1.395 . S
C328 C331 1.403 . S
H329 C335 0.930 . S
C330 H316 0.930 . S
C330 C328 1.395 . S
C330 C333 1.403 . S
C331 C328 1.403 . S
C331 C332 1.524 . S
C331 C335 1.400 . S
C332 H317 0.960 . S
C332 H318 0.960 . S
C332 H319 0.960 . S
C332 C331 1.524 . S
C333 C330 1.403 . S
C333 C334 1.392 . S
C333 C337 1.495 . S
C334 C333 1.392 . S
C334 C335 1.385 . S
C334 C336 1.478 . S
C335 H329 0.930 . S
C335 C331 1.400 . S
C335 C334 1.385 . S
C336 C334 1.478 . S
C336 C338 1.381 . S
C336 C342 1.383 . S
C337 C333 1.495 . S
C337 H343 0.959 . S
C337 H344 0.961 . S
C337 H345 0.960 . S
C338 C336 1.381 . S
C338 C339 1.394 . S
C338 H346 0.930 . S
C339 C338 1.394 . S
C339 C340 1.383 . S
C339 H347 0.929 . S
C340 C339 1.383 . S
C340 C341 1.377 . S
C341 H325 0.930 . S
C341 C340 1.377 . S
C341 C342 1.379 . S
C342 H326 0.931 . S
C342 C336 1.383 . S
C342 C341 1.379 . S
H343 C337 0.959 . S
H344 C337 0.961 . S
H345 C337 0.960 . S
H346 C338 0.930 . S
H347 C339 0.929 . S
H348 C356 0.929 . S
H349 C358 0.930 . S
H350 C360 0.930 . S
H351 C363 0.929 . S
H352 C366 0.930 . S
H353 C368 0.960 . S
H354 C368 0.960 . S
H355 C368 0.960 . S
C356 H348 0.929 . S
C356 C357 1.377 . S
C356 C358 1.384 . S
C357 C356 1.377 . S
C357 C363 1.390 . S
C358 H349 0.930 . S
C358 C356 1.384 . S
C358 C359 1.372 . S
C359 C358 1.372 . S
C359 C360 1.400 . S
C359 C364 1.490 . S
C360 H350 0.930 . S
C360 C359 1.400 . S
C360 C363 1.386 . S
H361 C377 0.930 . S
H362 C378 0.931 . S
C363 H351 0.929 . S
C363 C357 1.390 . S
C363 C360 1.386 . S
C364 C359 1.490 . S
C364 C366 1.395 . S
C364 C367 1.403 . S
H365 C371 0.930 . S
C366 H352 0.930 . S
C366 C364 1.395 . S
C366 C369 1.403 1_655 S
C367 C364 1.403 . S
C367 C368 1.524 . S
C367 C371 1.400 1_655 S
C368 H353 0.960 . S
C368 H354 0.960 . S
C368 H355 0.960 . S
C368 C367 1.524 . S
C369 C366 1.403 1_455 S
C369 C370 1.392 . S
C369 C373 1.495 . S
C370 C369 1.392 . S
C370 C371 1.385 . S
C370 C372 1.478 . S
C371 H365 0.930 . S
C371 C367 1.400 1_455 S
C371 C370 1.385 . S
C372 C370 1.478 . S
C372 C374 1.381 . S
C372 C378 1.383 . S
C373 C369 1.495 . S
C373 H379 0.959 . S
C373 H380 0.961 . S
C373 H381 0.960 . S
C374 C372 1.381 . S
C374 C375 1.394 . S
C374 H382 0.930 . S
C375 C374 1.394 . S
C375 C376 1.383 . S
C375 H383 0.929 . S
C376 C375 1.383 . S
C376 C377 1.377 . S
C377 H361 0.930 . S
C377 C376 1.377 . S
C377 C378 1.379 . S
C378 H362 0.931 . S
C378 C372 1.383 . S
C378 C377 1.379 . S
H379 C373 0.959 . S
H380 C373 0.961 . S
H381 C373 0.960 . S
H382 C374 0.930 . S
H383 C375 0.929 . S
H384 C392 0.929 . S
H385 C394 0.930 1_554 S
H386 C396 0.930 . S
H387 C399 0.929 . S
H388 C402 0.930 . S
H389 C404 0.960 . S
H390 C404 0.960 . S
H391 C404 0.960 . S
C392 H384 0.929 . S
C392 C393 1.377 . S
C392 C394 1.384 . S
C393 C392 1.377 . S
C393 C399 1.390 . S
C394 H385 0.930 1_556 S
C394 C392 1.384 . S
C394 C395 1.372 . S
C395 C394 1.372 . S
C395 C396 1.400 . S
C395 C400 1.490 . S
C396 H386 0.930 . S
C396 C395 1.400 . S
C396 C399 1.386 . S
H397 C413 0.930 . S
H398 C414 0.931 1_556 S
C399 H387 0.929 . S
C399 C393 1.390 . S
C399 C396 1.386 . S
C400 C395 1.490 . S
C400 C402 1.395 1_556 S
C400 C403 1.403 . S
H401 C407 0.929 1_556 S
C402 H388 0.930 . S
C402 C400 1.395 1_554 S
C402 C405 1.403 . S
C403 C400 1.403 . S
C403 C404 1.524 . S
C403 C407 1.387 1_556 S
C404 H389 0.960 . S
C404 H390 0.960 . S
C404 H391 0.960 . S
C404 C403 1.524 . S
C405 C402 1.403 . S
C405 C406 1.392 . S
C405 C409 1.495 . S
C406 C405 1.392 . S
C406 C407 1.401 . S
C406 C408 1.478 . S
C407 H401 0.929 1_554 S
C407 C403 1.387 1_554 S
C407 C406 1.401 . S
C408 C406 1.478 . S
C408 C410 1.381 . S
C408 C414 1.383 . S
C409 C405 1.495 . S
C409 H415 0.959 . S
C409 H416 0.961 . S
C409 H417 0.960 . S
C410 C408 1.381 . S
C410 C411 1.394 . S
C410 H418 0.930 . S
C411 C410 1.394 . S
C411 C412 1.383 . S
C411 H419 0.929 . S
C412 C411 1.383 . S
C412 C413 1.377 . S
C413 H397 0.930 . S
C413 C412 1.377 . S
C413 C414 1.379 . S
C414 H398 0.931 1_554 S
C414 C408 1.383 . S
C414 C413 1.379 . S
H415 C409 0.959 . S
H416 C409 0.961 . S
H417 C409 0.960 . S
H418 C410 0.930 . S
H419 C411 0.929 . S
H420 C428 0.929 . S
H421 C430 0.930 . S
H422 C432 0.930 . S
H423 C435 0.929 . S
H424 C438 0.930 . S
H425 C440 0.960 . S
H426 C440 0.960 . S
H427 C440 0.960 . S
C428 H420 0.929 . S
C428 C429 1.377 . S
C428 C430 1.384 . S
C429 C428 1.377 . S
C429 C435 1.390 . S
C430 H421 0.930 . S
C430 C428 1.384 . S
C430 C431 1.372 . S
C431 C430 1.372 . S
C431 C432 1.400 . S
C431 C436 1.490 . S
C432 H422 0.930 . S
C432 C431 1.400 . S
C432 C435 1.386 . S
H433 C449 0.930 . S
H434 C450 0.931 . S
C435 H423 0.929 . S
C435 C429 1.390 . S
C435 C432 1.386 . S
C436 C431 1.490 . S
C436 C438 1.395 . S
C436 C439 1.403 . S
H437 C443 0.930 . S
C438 H424 0.930 . S
C438 C436 1.395 . S
C438 C441 1.403 . S
C439 C436 1.403 . S
C439 C440 1.524 . S
C439 C443 1.400 . S
C440 H425 0.960 . S
C440 H426 0.960 . S
C440 H427 0.960 . S
C440 C439 1.524 . S
C441 C438 1.403 . S
C441 C442 1.392 . S
C441 C445 1.495 . S
C442 C441 1.392 . S
C442 C443 1.385 . S
C442 C444 1.478 . S
C443 H437 0.930 . S
C443 C439 1.400 . S
C443 C442 1.385 . S
C444 C442 1.478 . S
C444 C446 1.381 . S
C444 C450 1.383 . S
C445 C441 1.495 . S
C445 H451 0.959 . S
C445 H452 0.961 . S
C445 H453 0.960 . S
C446 C444 1.381 . S
C446 C447 1.394 . S
C446 H454 0.930 . S
C447 C446 1.394 . S
C447 C448 1.383 . S
C447 H455 0.929 . S
C448 C447 1.383 . S
C448 C449 1.377 . S
C449 H433 0.930 . S
C449 C448 1.377 . S
C449 C450 1.379 . S
C450 H434 0.931 . S
C450 C444 1.383 . S
C450 C449 1.379 . S
H451 C445 0.959 . S
H452 C445 0.961 . S
H453 C445 0.960 . S
H454 C446 0.930 . S
H455 C447 0.929 . S
H456 C464 0.929 . S
H457 C466 0.930 . S
H458 C468 0.930 . S
H459 C471 0.929 . S
H460 C474 0.930 . S
H461 C476 0.960 . S
H462 C476 0.960 . S
H463 C476 0.960 . S
C464 H456 0.929 . S
C464 C465 1.377 . S
C464 C466 1.384 . S
C465 C464 1.377 . S
C465 C471 1.390 . S
C466 H457 0.930 . S
C466 C464 1.384 . S
C466 C467 1.372 . S
C467 C466 1.372 . S
C467 C468 1.400 . S
C467 C472 1.490 . S
C468 H458 0.930 . S
C468 C467 1.400 . S
C468 C471 1.386 . S
H469 C485 0.930 . S
H470 C486 0.931 . S
C471 H459 0.929 . S
C471 C465 1.390 . S
C471 C468 1.386 . S
C472 C467 1.490 . S
C472 C474 1.395 . S
C472 C475 1.403 . S
H473 C479 0.930 . S
C474 H460 0.930 . S
C474 C472 1.395 . S
C474 C477 1.403 . S
C475 C472 1.403 . S
C475 C476 1.524 . S
C475 C479 1.400 . S
C476 H461 0.960 . S
C476 H462 0.960 . S
C476 H463 0.960 . S
C476 C475 1.524 . S
C477 C474 1.403 . S
C477 C478 1.392 . S
C477 C481 1.495 . S
C478 C477 1.392 . S
C478 C479 1.385 . S
C478 C480 1.478 . S
C479 H473 0.930 . S
C479 C475 1.400 . S
C479 C478 1.385 . S
C480 C478 1.478 . S
C480 C482 1.381 . S
C480 C486 1.383 . S
C481 C477 1.495 . S
C481 H487 0.959 . S
C481 H488 0.961 . S
C481 H489 0.960 . S
C482 C480 1.381 . S
C482 C483 1.394 . S
C482 H490 0.930 . S
C483 C482 1.394 . S
C483 C484 1.383 . S
C483 H491 0.929 . S
C484 C483 1.383 . S
C484 C485 1.377 . S
C485 H469 0.930 . S
C485 C484 1.377 . S
C485 C486 1.379 . S
C486 H470 0.931 . S
C486 C480 1.383 . S
C486 C485 1.379 . S
H487 C481 0.959 . S
H488 C481 0.961 . S
H489 C481 0.960 . S
H490 C482 0.930 . S
H491 C483 0.929 . S
H492 C500 0.929 . S
H493 C502 0.930 . S
H494 C504 0.930 . S
H495 C507 0.929 . S
H496 C510 0.930 . S
H497 C512 0.960 . S
H498 C512 0.960 . S
H499 C512 0.960 . S
C500 H492 0.929 . S
C500 C501 1.377 . S
C500 C502 1.384 . S
C501 C500 1.377 . S
C501 C507 1.390 . S
C502 H493 0.930 . S
C502 C500 1.384 . S
C502 C503 1.372 . S
C503 C502 1.372 . S
C503 C504 1.400 . S
C503 C508 1.490 . S
C504 H494 0.930 . S
C504 C503 1.400 . S
C504 C507 1.386 . S
H505 C521 0.930 . S
H506 C522 0.931 . S
C507 H495 0.929 . S
C507 C501 1.390 . S
C507 C504 1.386 . S
C508 C503 1.490 . S
C508 C510 1.395 1_556 S
C508 C511 1.403 . S
H509 C515 0.930 . S
C510 H496 0.930 . S
C510 C508 1.395 1_554 S
C510 C513 1.403 . S
C511 C508 1.403 . S
C511 C512 1.524 . S
C511 C515 1.400 . S
C512 H497 0.960 . S
C512 H498 0.960 . S
C512 H499 0.960 . S
C512 C511 1.524 . S
C513 C510 1.403 . S
C513 C514 1.392 . S
C513 C517 1.495 . S
C514 C513 1.392 . S
C514 C515 1.385 1_554 S
C514 C516 1.478 . S
C515 H509 0.930 . S
C515 C511 1.400 . S
C515 C514 1.385 1_556 S
C516 C514 1.478 . S
C516 C518 1.381 . S
C516 C522 1.383 . S
C517 C513 1.495 . S
C517 H523 0.959 . S
C517 H524 0.961 . S
C517 H525 0.960 . S
C518 C516 1.381 . S
C518 C519 1.394 . S
C518 H526 0.930 . S
C519 C518 1.394 . S
C519 C520 1.383 . S
C519 H527 0.929 . S
C520 C519 1.383 . S
C520 C521 1.377 . S
C521 H505 0.930 . S
C521 C520 1.377 . S
C521 C522 1.379 . S
C522 H506 0.931 . S
C522 C516 1.383 . S
C522 C521 1.379 . S
H523 C517 0.959 . S
H524 C517 0.961 . S
H525 C517 0.960 . S
H526 C518 0.930 . S
H527 C519 0.929 . S
H528 C536 0.929 . S
H529 C538 0.930 . S
H530 C540 0.930 . S
H531 C543 0.929 . S
H532 C546 0.930 . S
H533 C548 0.960 . S
H534 C548 0.960 . S
H535 C548 0.960 . S
C536 H528 0.929 . S
C536 C537 1.377 . S
C536 C538 1.384 . S
C537 C536 1.377 . S
C537 C543 1.390 . S
C538 H529 0.930 . S
C538 C536 1.384 . S
C538 C539 1.372 . S
C539 C538 1.372 . S
C539 C540 1.400 . S
C539 C544 1.490 . S
C540 H530 0.930 . S
C540 C539 1.400 . S
C540 C543 1.386 . S
H541 C557 0.930 . S
H542 C558 0.931 . S
C543 H531 0.929 . S
C543 C537 1.390 . S
C543 C540 1.386 . S
C544 C539 1.490 . S
C544 C546 1.395 . S
C544 C547 1.403 . S
H545 C551 0.930 . S
C546 H532 0.930 . S
C546 C544 1.395 . S
C546 C549 1.403 . S
C547 C544 1.403 . S
C547 C548 1.524 . S
C547 C551 1.400 . S
C548 H533 0.960 . S
C548 H534 0.960 . S
C548 H535 0.960 . S
C548 C547 1.524 . S
C549 C546 1.403 . S
C549 C550 1.392 . S
C549 C553 1.495 . S
C550 C549 1.392 . S
C550 C551 1.385 . S
C550 C552 1.478 . S
C551 H545 0.930 . S
C551 C547 1.400 . S
C551 C550 1.385 . S
C552 C550 1.478 . S
C552 C554 1.381 . S
C552 C558 1.383 . S
C553 C549 1.495 . S
C553 H559 0.959 . S
C553 H560 0.961 . S
C553 H561 0.960 . S
C554 C552 1.381 . S
C554 C555 1.394 . S
C554 H562 0.930 . S
C555 C554 1.394 . S
C555 C556 1.383 . S
C555 H563 0.929 . S
C556 C555 1.383 . S
C556 C557 1.377 . S
C557 H541 0.930 . S
C557 C556 1.377 . S
C557 C558 1.379 . S
C558 H542 0.931 . S
C558 C552 1.383 . S
C558 C557 1.379 . S
H559 C553 0.959 . S
H560 C553 0.961 . S
H561 C553 0.960 . S
H562 C554 0.930 . S
H563 C555 0.929 . S
H564 C572 0.929 . S
H565 C574 0.930 . S
H566 C576 0.930 . S
H567 C579 0.929 . S
H568 C582 0.930 . S
H569 C584 0.960 . S
H570 C584 0.960 . S
H571 C584 0.960 . S
C572 H564 0.929 . S
C572 C573 1.377 . S
C572 C574 1.384 . S
C573 C572 1.377 . S
C573 C579 1.390 . S
C574 H565 0.930 . S
C574 C572 1.384 . S
C574 C575 1.372 . S
C575 C574 1.372 . S
C575 C576 1.400 . S
C575 C580 1.490 . S
C576 H566 0.930 . S
C576 C575 1.400 . S
C576 C579 1.386 . S
H577 C593 0.930 . S
H578 C594 0.931 . S
C579 H567 0.929 . S
C579 C573 1.390 . S
C579 C576 1.386 . S
C580 C575 1.490 . S
C580 C582 1.395 . S
C580 C583 1.403 . S
H581 C587 0.930 . S
C582 H568 0.930 . S
C582 C580 1.395 . S
C582 C585 1.403 . S
C583 C580 1.403 . S
C583 C584 1.524 . S
C583 C587 1.400 . S
C584 H569 0.960 . S
C584 H570 0.960 . S
C584 H571 0.960 . S
C584 C583 1.524 . S
C585 C582 1.403 . S
C585 C586 1.392 . S
C585 C589 1.495 . S
C586 C585 1.392 . S
C586 C587 1.385 . S
C586 C588 1.478 . S
C587 H581 0.930 . S
C587 C583 1.400 . S
C587 C586 1.385 . S
C588 C586 1.478 . S
C588 C590 1.381 . S
C588 C594 1.383 . S
C589 C585 1.495 . S
C589 H595 0.959 . S
C589 H596 0.961 . S
C589 H597 0.960 . S
C590 C588 1.381 . S
C590 C591 1.394 . S
C590 H598 0.930 . S
C591 C590 1.394 . S
C591 C592 1.383 . S
C591 H599 0.929 . S
C592 C591 1.383 . S
C592 C593 1.377 . S
C593 H577 0.930 . S
C593 C592 1.377 . S
C593 C594 1.379 . S
C594 H578 0.931 . S
C594 C588 1.383 . S
C594 C593 1.379 . S
H595 C589 0.959 . S
H596 C589 0.961 . S
H597 C589 0.960 . S
H598 C590 0.930 . S
H599 C591 0.929 . S
H600 C608 0.929 . S
H601 C610 0.930 . S
H602 C612 0.930 . S
H603 C615 0.929 . S
H604 C618 0.930 . S
H605 C620 0.960 . S
H606 C620 0.960 . S
H607 C620 0.960 . S
C608 H600 0.929 . S
C608 C609 1.377 . S
C608 C610 1.384 . S
C609 C608 1.377 . S
C609 C615 1.390 . S
C610 H601 0.930 . S
C610 C608 1.384 . S
C610 C611 1.372 . S
C611 C610 1.372 . S
C611 C612 1.400 . S
C611 C616 1.490 . S
C612 H602 0.930 . S
C612 C611 1.400 . S
C612 C615 1.386 . S
H613 C629 0.930 . S
H614 C630 0.931 . S
C615 H603 0.929 . S
C615 C609 1.390 . S
C615 C612 1.386 . S
C616 C611 1.490 . S
C616 C618 1.395 . S
C616 C619 1.403 . S
H617 C623 0.930 . S
C618 H604 0.930 . S
C618 C616 1.395 . S
C618 C621 1.403 . S
C619 C616 1.403 . S
C619 C620 1.524 . S
C619 C623 1.400 . S
C620 H605 0.960 . S
C620 H606 0.960 . S
C620 H607 0.960 . S
C620 C619 1.524 . S
C621 C618 1.403 . S
C621 C622 1.392 . S
C621 C625 1.495 . S
C622 C621 1.392 . S
C622 C623 1.385 . S
C622 C624 1.478 . S
C623 H617 0.930 . S
C623 C619 1.400 . S
C623 C622 1.385 . S
C624 C622 1.478 . S
C624 C626 1.381 . S
C624 C630 1.383 . S
C625 C621 1.495 . S
C625 H631 0.959 . S
C625 H632 0.961 . S
C625 H633 0.960 . S
C626 C624 1.381 . S
C626 C627 1.394 . S
C626 H634 0.930 . S
C627 C626 1.394 . S
C627 C628 1.383 . S
C627 H635 0.929 . S
C628 C627 1.383 . S
C628 C629 1.377 . S
C629 H613 0.930 . S
C629 C628 1.377 . S
C629 C630 1.379 . S
C630 H614 0.931 . S
C630 C624 1.383 . S
C630 C629 1.379 . S
H631 C625 0.959 . S
H632 C625 0.961 . S
H633 C625 0.960 . S
H634 C626 0.930 . S
H635 C627 0.929 . S
H636 C644 0.929 . S
H637 C646 0.930 . S
H638 C648 0.930 . S
H639 C651 0.929 . S
H640 C654 0.930 . S
H641 C656 0.960 . S
H642 C656 0.960 . S
H643 C656 0.960 . S
C644 H636 0.929 . S
C644 C645 1.377 . S
C644 C646 1.384 . S
C645 C644 1.377 . S
C645 C651 1.390 . S
C646 H637 0.930 . S
C646 C644 1.384 . S
C646 C647 1.372 . S
C647 C646 1.372 . S
C647 C648 1.400 . S
C647 C652 1.490 . S
C648 H638 0.930 . S
C648 C647 1.400 . S
C648 C651 1.386 . S
H649 C665 0.930 . S
H650 C666 0.931 . S
C651 H639 0.929 . S
C651 C645 1.390 . S
C651 C648 1.386 . S
C652 C647 1.490 . S
C652 C654 1.395 . S
C652 C655 1.403 . S
H653 C659 0.930 . S
C654 H640 0.930 . S
C654 C652 1.395 . S
C654 C657 1.403 . S
C655 C652 1.403 . S
C655 C656 1.524 . S
C655 C659 1.400 . S
C656 H641 0.960 . S
C656 H642 0.960 . S
C656 H643 0.960 . S
C656 C655 1.524 . S
C657 C654 1.403 . S
C657 C658 1.392 . S
C657 C661 1.495 . S
C658 C657 1.392 . S
C658 C659 1.385 . S
C658 C660 1.478 . S
C659 H653 0.930 . S
C659 C655 1.400 . S
C659 C658 1.385 . S
C660 C658 1.478 . S
C660 C662 1.381 . S
C660 C666 1.383 . S
C661 C657 1.495 . S
C661 H667 0.959 . S
C661 H668 0.961 . S
C661 H669 0.960 . S
C662 C660 1.381 . S
C662 C663 1.394 . S
C662 H670 0.930 . S
C663 C662 1.394 . S
C663 C664 1.383 . S
C663 H671 0.929 . S
C664 C663 1.383 . S
C664 C665 1.377 . S
C665 H649 0.930 . S
C665 C664 1.377 . S
C665 C666 1.379 . S
C666 H650 0.931 . S
C666 C660 1.383 . S
C666 C665 1.379 . S
H667 C661 0.959 . S
H668 C661 0.961 . S
H669 C661 0.960 . S
H670 C662 0.930 . S
H671 C663 0.929 . S
H672 C680 0.929 . S
H673 C682 0.930 . S
H674 C684 0.930 . S
H675 C687 0.929 . S
H676 C690 0.930 . S
H677 C692 0.960 . S
H678 C692 0.960 . S
H679 C692 0.960 . S
C680 H672 0.929 . S
C680 C681 1.377 . S
C680 C682 1.384 . S
C681 C680 1.377 . S
C681 C687 1.390 . S
C682 H673 0.930 . S
C682 C680 1.384 . S
C682 C683 1.372 . S
C683 C682 1.372 . S
C683 C684 1.400 . S
C683 C688 1.490 . S
C684 H674 0.930 . S
C684 C683 1.400 . S
C684 C687 1.386 . S
H685 C701 0.930 . S
H686 C702 0.931 . S
C687 H675 0.929 . S
C687 C681 1.390 . S
C687 C684 1.386 . S
C688 C683 1.490 . S
C688 C690 1.395 . S
C688 C691 1.403 . S
H689 C695 0.930 . S
C690 H676 0.930 . S
C690 C688 1.395 . S
C690 C693 1.403 . S
C691 C688 1.403 . S
C691 C692 1.524 . S
C691 C695 1.400 . S
C692 H677 0.960 . S
C692 H678 0.960 . S
C692 H679 0.960 . S
C692 C691 1.524 . S
C693 C690 1.403 . S
C693 C694 1.392 . S
C693 C697 1.495 . S
C694 C693 1.392 . S
C694 C695 1.385 . S
C694 C696 1.478 . S
C695 H689 0.930 . S
C695 C691 1.400 . S
C695 C694 1.385 . S
C696 C694 1.478 . S
C696 C698 1.381 . S
C696 C702 1.383 . S
C697 C693 1.495 . S
C697 H703 0.959 . S
C697 H704 0.961 . S
C697 H705 0.960 . S
C698 C696 1.381 . S
C698 C699 1.394 . S
C698 H706 0.930 . S
C699 C698 1.394 . S
C699 C700 1.383 . S
C699 H707 0.929 . S
C700 C699 1.383 . S
C700 C701 1.377 . S
C701 H685 0.930 . S
C701 C700 1.377 . S
C701 C702 1.379 . S
C702 H686 0.931 . S
C702 C696 1.383 . S
C702 C701 1.379 . S
H703 C697 0.959 . S
H704 C697 0.961 . S
H705 C697 0.960 . S
H706 C698 0.930 . S
H707 C699 0.929 . S
H708 C716 0.929 . S
H709 C718 0.930 . S
H710 C720 0.930 . S
H711 C723 0.929 . S
H712 C726 0.930 . S
H713 C728 0.960 . S
H714 C728 0.960 . S
H715 C728 0.960 . S
C716 H708 0.929 . S
C716 C717 1.377 . S
C716 C718 1.384 . S
C717 C716 1.377 . S
C717 C723 1.390 . S
C718 H709 0.930 . S
C718 C716 1.384 . S
C718 C719 1.372 . S
C719 C718 1.372 . S
C719 C720 1.400 . S
C719 C724 1.490 . S
C720 H710 0.930 . S
C720 C719 1.400 . S
C720 C723 1.386 . S
H721 C737 0.930 . S
H722 C738 0.931 . S
C723 H711 0.929 . S
C723 C717 1.390 . S
C723 C720 1.386 . S
C724 C719 1.490 . S
C724 C726 1.395 . S
C724 C727 1.403 . S
H725 C731 0.930 . S
C726 H712 0.930 . S
C726 C724 1.395 . S
C726 C729 1.403 . S
C727 C724 1.403 . S
C727 C728 1.524 . S
C727 C731 1.400 . S
C728 H713 0.960 . S
C728 H714 0.960 . S
C728 H715 0.960 . S
C728 C727 1.524 . S
C729 C726 1.403 . S
C729 C730 1.392 . S
C729 C733 1.495 . S
C730 C729 1.392 . S
C730 C731 1.385 . S
C730 C732 1.478 . S
C731 H725 0.930 . S
C731 C727 1.400 . S
C731 C730 1.385 . S
C732 C730 1.478 . S
C732 C734 1.381 . S
C732 C738 1.383 . S
C733 C729 1.495 . S
C733 H739 0.959 . S
C733 H740 0.961 . S
C733 H741 0.960 . S
C734 C732 1.381 . S
C734 C735 1.394 . S
C734 H742 0.930 . S
C735 C734 1.394 . S
C735 C736 1.383 . S
C735 H743 0.929 . S
C736 C735 1.383 . S
C736 C737 1.377 . S
C737 H721 0.930 . S
C737 C736 1.377 . S
C737 C738 1.379 . S
C738 H722 0.931 . S
C738 C732 1.383 . S
C738 C737 1.379 . S
H739 C733 0.959 . S
H740 C733 0.961 . S
H741 C733 0.960 . S
H742 C734 0.930 . S
H743 C735 0.929 . S
H744 C752 0.929 . S
H745 C754 0.930 . S
H746 C756 0.930 . S
H747 C759 0.929 . S
H748 C762 0.930 . S
H749 C764 0.960 . S
H750 C764 0.960 . S
H751 C764 0.960 . S
C752 H744 0.929 . S
C752 C753 1.377 . S
C752 C754 1.384 . S
C753 C752 1.377 . S
C753 C759 1.390 . S
C754 H745 0.930 . S
C754 C752 1.384 . S
C754 C755 1.372 . S
C755 C754 1.372 . S
C755 C756 1.400 . S
C755 C760 1.490 . S
C756 H746 0.930 . S
C756 C755 1.400 . S
C756 C759 1.386 . S
H757 C773 0.930 . S
H758 C774 0.931 . S
C759 H747 0.929 . S
C759 C753 1.390 . S
C759 C756 1.386 . S
C760 C755 1.490 . S
C760 C762 1.395 . S
C760 C763 1.403 . S
H761 C767 0.930 . S
C762 H748 0.930 . S
C762 C760 1.395 . S
C762 C765 1.403 . S
C763 C760 1.403 . S
C763 C764 1.524 . S
C763 C767 1.400 . S
C764 H749 0.960 . S
C764 H750 0.960 . S
C764 H751 0.960 . S
C764 C763 1.524 . S
C765 C762 1.403 . S
C765 C766 1.392 . S
C765 C769 1.495 . S
C766 C765 1.392 . S
C766 C767 1.385 . S
C766 C768 1.478 . S
C767 H761 0.930 . S
C767 C763 1.400 . S
C767 C766 1.385 . S
C768 C766 1.478 . S
C768 C770 1.381 . S
C768 C774 1.383 . S
C769 C765 1.495 . S
C769 H775 0.959 . S
C769 H776 0.961 . S
C769 H777 0.960 . S
C770 C768 1.381 . S
C770 C771 1.394 . S
C770 H778 0.930 . S
C771 C770 1.394 . S
C771 C772 1.383 . S
C771 H779 0.929 . S
C772 C771 1.383 . S
C772 C773 1.377 . S
C773 H757 0.930 . S
C773 C772 1.377 . S
C773 C774 1.379 . S
C774 H758 0.931 . S
C774 C768 1.383 . S
C774 C773 1.379 . S
H775 C769 0.959 . S
H776 C769 0.961 . S
H777 C769 0.960 . S
H778 C770 0.930 . S
H779 C771 0.929 . S
H780 C788 0.929 . S
H781 C790 0.930 . S
H782 C792 0.930 . S
H783 C795 0.929 . S
H784 C798 0.930 . S
H785 C800 0.960 . S
H786 C800 0.960 . S
H787 C800 0.960 . S
C788 H780 0.929 . S
C788 C789 1.377 . S
C788 C790 1.384 . S
C789 C788 1.377 . S
C789 C795 1.390 . S
C790 H781 0.930 . S
C790 C788 1.384 . S
C790 C791 1.372 . S
C791 C790 1.372 . S
C791 C792 1.400 . S
C791 C796 1.490 . S
C792 H782 0.930 . S
C792 C791 1.400 . S
C792 C795 1.386 . S
H793 C809 0.930 . S
H794 C810 0.931 . S
C795 H783 0.929 . S
C795 C789 1.390 . S
C795 C792 1.386 . S
C796 C791 1.490 . S
C796 C798 1.395 . S
C796 C799 1.403 . S
H797 C803 0.930 . S
C798 H784 0.930 . S
C798 C796 1.395 . S
C798 C801 1.403 . S
C799 C796 1.403 . S
C799 C800 1.524 . S
C799 C803 1.400 . S
C800 H785 0.960 . S
C800 H786 0.960 . S
C800 H787 0.960 . S
C800 C799 1.524 . S
C801 C798 1.403 . S
C801 C802 1.392 . S
C801 C805 1.495 . S
C802 C801 1.392 . S
C802 C803 1.385 . S
C802 C804 1.478 . S
C803 H797 0.930 . S
C803 C799 1.400 . S
C803 C802 1.385 . S
C804 C802 1.478 . S
C804 C806 1.381 . S
C804 C810 1.383 . S
C805 C801 1.495 . S
C805 H811 0.959 . S
C805 H812 0.961 . S
C805 H813 0.960 . S
C806 C804 1.381 . S
C806 C807 1.394 . S
C806 H814 0.930 . S
C807 C806 1.394 . S
C807 C808 1.383 . S
C807 H815 0.929 . S
C808 C807 1.383 . S
C808 C809 1.377 . S
C809 H793 0.930 . S
C809 C808 1.377 . S
C809 C810 1.379 . S
C810 H794 0.931 . S
C810 C804 1.383 . S
C810 C809 1.379 . S
H811 C805 0.959 . S
H812 C805 0.961 . S
H813 C805 0.960 . S
H814 C806 0.930 . S
H815 C807 0.929 . S
H816 C824 0.929 . S
H817 C826 0.930 . S
H818 C828 0.930 . S
H819 C831 0.929 . S
H820 C834 0.930 . S
H821 C836 0.960 . S
H822 C836 0.960 . S
H823 C836 0.960 . S
C824 H816 0.929 . S
C824 C825 1.377 . S
C824 C826 1.384 . S
C825 C824 1.377 . S
C825 C831 1.390 . S
C826 H817 0.930 . S
C826 C824 1.384 . S
C826 C827 1.372 . S
C827 C826 1.372 . S
C827 C828 1.400 . S
C827 C832 1.490 . S
C828 H818 0.930 . S
C828 C827 1.400 . S
C828 C831 1.386 . S
H829 C845 0.930 . S
H830 C846 0.931 . S
C831 H819 0.929 . S
C831 C825 1.390 . S
C831 C828 1.386 . S
C832 C827 1.490 . S
C832 C834 1.395 . S
C832 C835 1.403 . S
H833 C839 0.930 . S
C834 H820 0.930 . S
C834 C832 1.395 . S
C834 C837 1.403 . S
C835 C832 1.403 . S
C835 C836 1.524 . S
C835 C839 1.400 . S
C836 H821 0.960 . S
C836 H822 0.960 . S
C836 H823 0.960 . S
C836 C835 1.524 . S
C837 C834 1.403 . S
C837 C838 1.392 . S
C837 C841 1.495 . S
C838 C837 1.392 . S
C838 C839 1.385 . S
C838 C840 1.478 . S
C839 H833 0.930 . S
C839 C835 1.400 . S
C839 C838 1.385 . S
C840 C838 1.478 . S
C840 C842 1.381 . S
C840 C846 1.383 . S
C841 C837 1.495 . S
C841 H847 0.959 . S
C841 H848 0.961 . S
C841 H849 0.960 . S
C842 C840 1.381 . S
C842 C843 1.394 . S
C842 H850 0.930 . S
C843 C842 1.394 . S
C843 C844 1.383 . S
C843 H851 0.929 . S
C844 C843 1.383 . S
C844 C845 1.377 . S
C845 H829 0.930 . S
C845 C844 1.377 . S
C845 C846 1.379 . S
C846 H830 0.931 . S
C846 C840 1.383 . S
C846 C845 1.379 . S
H847 C841 0.959 . S
H848 C841 0.961 . S
H849 C841 0.960 . S
H850 C842 0.930 . S
H851 C843 0.929 . S
H852 C860 0.929 . S
H853 C862 0.930 . S
H854 C864 0.930 . S
H855 C867 0.929 . S
H856 C870 0.930 . S
H857 C872 0.960 . S
H858 C872 0.960 . S
H859 C872 0.960 . S
C860 H852 0.929 . S
C860 C861 1.377 . S
C860 C862 1.384 . S
C861 C860 1.377 . S
C861 C867 1.390 . S
C862 H853 0.930 . S
C862 C860 1.384 . S
C862 C863 1.372 . S
C863 C862 1.372 . S
C863 C864 1.400 . S
C863 C868 1.490 . S
C864 H854 0.930 . S
C864 C863 1.400 . S
C864 C867 1.386 . S
H865 C881 0.930 . S
H866 C882 0.931 . S
C867 H855 0.929 . S
C867 C861 1.390 . S
C867 C864 1.386 . S
C868 C863 1.490 . S
C868 C870 1.395 1_655 S
C868 C871 1.403 . S
H869 C875 0.930 . S
C870 H856 0.930 . S
C870 C868 1.395 1_455 S
C870 C873 1.403 . S
C871 C868 1.403 . S
C871 C872 1.524 . S
C871 C875 1.400 . S
C872 H857 0.960 . S
C872 H858 0.960 . S
C872 H859 0.960 . S
C872 C871 1.524 . S
C873 C870 1.403 . S
C873 C874 1.392 . S
C873 C877 1.495 . S
C874 C873 1.392 . S
C874 C875 1.385 1_455 S
C874 C876 1.478 . S
C875 H869 0.930 . S
C875 C871 1.400 . S
C875 C874 1.385 1_655 S
C876 C874 1.478 . S
C876 C878 1.381 . S
C876 C882 1.383 . S
C877 C873 1.495 . S
C877 H883 0.959 . S
C877 H884 0.961 . S
C877 H885 0.960 . S
C878 C876 1.381 . S
C878 C879 1.394 . S
C878 H886 0.930 . S
C879 C878 1.394 . S
C879 C880 1.383 . S
C879 H887 0.929 . S
C880 C879 1.383 . S
C880 C881 1.377 . S
C881 H865 0.930 . S
C881 C880 1.377 . S
C881 C882 1.379 . S
C882 H866 0.931 . S
C882 C876 1.383 . S
C882 C881 1.379 . S
H883 C877 0.959 . S
H884 C877 0.961 . S
H885 C877 0.960 . S
H886 C878 0.930 . S
H887 C879 0.929 . S
H888 C896 0.929 . S
H889 C898 0.930 1_565 S
H890 C900 0.930 . S
H891 C903 0.929 . S
H892 C906 0.921 . S
H893 C908 0.960 . S
H894 C908 0.960 . S
H895 C908 0.960 . S
C896 H888 0.929 . S
C896 C897 1.377 . S
C896 C898 1.384 . S
C897 C896 1.377 . S
C897 C903 1.390 . S
C898 H889 0.930 1_545 S
C898 C896 1.384 . S
C898 C899 1.372 . S
C899 C898 1.372 . S
C899 C900 1.400 . S
C899 C904 1.490 . S
C900 H890 0.930 . S
C900 C899 1.400 . S
C900 C903 1.386 . S
H901 C917 0.930 . S
H902 C918 0.941 . S
C903 H891 0.929 . S
C903 C897 1.390 . S
C903 C900 1.386 . S
C904 C899 1.490 . S
C904 C906 1.395 1_545 S
C904 C907 1.403 . S
H905 C911 0.930 . S
C906 H892 0.921 . S
C906 C904 1.395 1_565 S
C906 C909 1.403 . S
C907 C904 1.403 . S
C907 C908 1.524 . S
C907 C911 1.400 1_545 S
C908 H893 0.960 . S
C908 H894 0.960 . S
C908 H895 0.960 . S
C908 C907 1.524 . S
C909 C906 1.403 . S
C909 C910 1.392 . S
C909 C913 1.495 . S
C910 C909 1.392 . S
C910 C911 1.385 . S
C910 C912 1.478 . S
C911 H905 0.930 . S
C911 C907 1.400 1_565 S
C911 C910 1.385 . S
C912 C910 1.478 . S
C912 C914 1.381 . S
C912 C918 1.383 . S
C913 C909 1.495 . S
C913 H919 0.959 . S
C913 H920 0.961 . S
C913 H921 0.960 . S
C914 C912 1.381 . S
C914 C915 1.394 . S
C914 H922 0.930 . S
C915 C914 1.394 . S
C915 C916 1.383 . S
C915 H923 0.929 . S
C916 C915 1.383 . S
C916 C917 1.377 . S
C917 H901 0.930 . S
C917 C916 1.377 . S
C917 C918 1.379 . S
C918 H902 0.941 . S
C918 C912 1.383 . S
C918 C917 1.379 . S
H919 C913 0.959 . S
H920 C913 0.961 . S
H921 C913 0.960 . S
H922 C914 0.930 . S
H923 C915 0.929 . S
H924 C932 0.929 . S
H925 C934 0.930 . S
H926 C936 0.930 . S
H927 C939 0.929 . S
H928 C942 0.930 . S
H929 C944 0.960 . S
H930 C944 0.960 . S
H931 C944 0.960 . S
C932 H924 0.929 . S
C932 C933 1.377 . S
C932 C934 1.384 . S
C933 C932 1.377 . S
C933 C939 1.390 . S
C934 H925 0.930 . S
C934 C932 1.384 . S
C934 C935 1.372 . S
C935 C934 1.372 . S
C935 C936 1.400 . S
C935 C940 1.490 . S
C936 H926 0.930 . S
C936 C935 1.400 . S
C936 C939 1.386 . S
H937 C953 0.930 . S
H938 C954 0.931 . S
C939 H927 0.929 . S
C939 C933 1.390 . S
C939 C936 1.386 . S
C940 C935 1.490 . S
C940 C942 1.395 . S
C940 C943 1.403 . S
H941 C947 0.930 . S
C942 H928 0.930 . S
C942 C940 1.395 . S
C942 C945 1.403 . S
C943 C940 1.403 . S
C943 C944 1.524 . S
C943 C947 1.400 . S
C944 H929 0.960 . S
C944 H930 0.960 . S
C944 H931 0.960 . S
C944 C943 1.524 . S
C945 C942 1.403 . S
C945 C946 1.392 . S
C945 C949 1.495 . S
C946 C945 1.392 . S
C946 C947 1.385 . S
C946 C948 1.478 . S
C947 H941 0.930 . S
C947 C943 1.400 . S
C947 C946 1.385 . S
C948 C946 1.478 . S
C948 C950 1.381 . S
C948 C954 1.383 . S
C949 C945 1.495 . S
C949 H955 0.959 . S
C949 H956 0.961 . S
C949 H957 0.960 . S
C950 C948 1.381 . S
C950 C951 1.394 . S
C950 H958 0.930 . S
C951 C950 1.394 . S
C951 C952 1.383 . S
C951 H959 0.929 . S
C952 C951 1.383 . S
C952 C953 1.377 . S
C953 H937 0.930 . S
C953 C952 1.377 . S
C953 C954 1.379 . S
C954 H938 0.931 . S
C954 C948 1.383 . S
C954 C953 1.379 . S
H955 C949 0.959 . S
H956 C949 0.961 . S
H957 C949 0.960 . S
H958 C950 0.930 . S
H959 C951 0.929 . S
H960 C968 0.929 . S
H961 C970 0.930 . S
H962 C972 0.930 . S
H963 C975 0.929 . S
H964 C978 0.930 . S
H965 C980 0.960 . S
H966 C980 0.960 . S
H967 C980 0.960 . S
C968 H960 0.929 . S
C968 C969 1.377 . S
C968 C970 1.384 . S
C969 C968 1.377 . S
C969 C975 1.390 . S
C970 H961 0.930 . S
C970 C968 1.384 . S
C970 C971 1.372 . S
C971 C970 1.372 . S
C971 C972 1.400 . S
C971 C976 1.490 . S
C972 H962 0.930 . S
C972 C971 1.400 . S
C972 C975 1.386 . S
H973 C989 0.930 . S
H974 C990 0.931 . S
C975 H963 0.929 . S
C975 C969 1.390 . S
C975 C972 1.386 . S
C976 C971 1.490 . S
C976 C978 1.395 . S
C976 C979 1.403 1_455 S
H977 C983 0.930 . S
C978 H964 0.930 . S
C978 C976 1.395 . S
C978 C981 1.403 . S
C979 C976 1.403 1_655 S
C979 C980 1.524 . S
C979 C983 1.400 . S
C980 H965 0.960 . S
C980 H966 0.960 . S
C980 H967 0.960 . S
C980 C979 1.524 . S
C981 C978 1.403 . S
C981 C982 1.392 1_455 S
C981 C985 1.495 . S
C982 C981 1.392 1_655 S
C982 C983 1.385 . S
C982 C984 1.478 . S
C983 H977 0.930 . S
C983 C979 1.400 . S
C983 C982 1.385 . S
C984 C982 1.478 . S
C984 C986 1.381 . S
C984 C990 1.383 . S
C985 C981 1.495 . S
C985 H991 0.959 . S
C985 H992 0.961 . S
C985 H993 0.960 . S
C986 C984 1.381 . S
C986 C987 1.394 . S
C986 H994 0.930 . S
C987 C986 1.394 . S
C987 C988 1.383 . S
C987 H995 0.929 . S
C988 C987 1.383 . S
C988 C989 1.377 . S
C989 H973 0.930 . S
C989 C988 1.377 . S
C989 C990 1.379 . S
C990 H974 0.931 . S
C990 C984 1.383 . S
C990 C989 1.379 . S
H991 C985 0.959 . S
H992 C985 0.961 . S
H993 C985 0.960 . S
H994 C986 0.930 . S
H995 C987 0.929 . S
H996 C1004 0.929 . S
H997 C1006 0.930 . S
H998 C1008 0.930 . S
H999 C1011 0.929 . S
H1000 C1014 0.930 . S
H1001 C1016 0.960 . S
H1002 C1016 0.960 . S
H1003 C1016 0.960 . S
C1004 H996 0.929 . S
C1004 C1005 1.377 . S
C1004 C1006 1.384 . S
C1005 C1004 1.377 . S
C1005 C1011 1.390 . S
C1006 H997 0.930 . S
C1006 C1004 1.384 . S
C1006 C1007 1.372 . S
C1007 C1006 1.372 . S
C1007 C1008 1.400 . S
C1007 C1012 1.490 . S
C1008 H998 0.930 . S
C1008 C1007 1.400 . S
C1008 C1011 1.386 . S
H1009 C1025 0.930 . S
H1010 C1026 0.931 . S
C1011 H999 0.929 . S
C1011 C1005 1.390 . S
C1011 C1008 1.386 . S
C1012 C1007 1.490 . S
C1012 C1014 1.395 . S
C1012 C1015 1.403 1_565 S
H1013 C1019 0.930 . S
C1014 H1000 0.930 . S
C1014 C1012 1.395 . S
C1014 C1017 1.403 . S
C1015 C1012 1.403 1_545 S
C1015 C1016 1.524 . S
C1015 C1019 1.400 . S
C1016 H1001 0.960 . S
C1016 H1002 0.960 . S
C1016 H1003 0.960 . S
C1016 C1015 1.524 . S
C1017 C1014 1.403 . S
C1017 C1018 1.392 1_565 S
C1017 C1021 1.495 . S
C1018 C1017 1.392 1_545 S
C1018 C1019 1.385 . S
C1018 C1020 1.478 . S
C1019 H1013 0.930 . S
C1019 C1015 1.400 . S
C1019 C1018 1.385 . S
C1020 C1018 1.478 . S
C1020 C1022 1.381 . S
C1020 C1026 1.383 . S
C1021 C1017 1.495 . S
C1021 H1027 0.959 . S
C1021 H1028 0.961 . S
C1021 H1029 0.960 . S
C1022 C1020 1.381 . S
C1022 C1023 1.394 . S
C1022 H1030 0.930 . S
C1023 C1022 1.394 . S
C1023 C1024 1.383 . S
C1023 H1031 0.929 . S
C1024 C1023 1.383 . S
C1024 C1025 1.377 . S
C1025 H1009 0.930 . S
C1025 C1024 1.377 . S
C1025 C1026 1.379 . S
C1026 H1010 0.931 . S
C1026 C1020 1.383 . S
C1026 C1025 1.379 . S
H1027 C1021 0.959 . S
H1028 C1021 0.961 . S
H1029 C1021 0.960 . S
H1030 C1022 0.930 . S
H1031 C1023 0.929 . S
C177 C105 1.149 . S
C196 C7 1.162 . S
C213 C21 1.154 . S
C232 C119 1.168 . S
C249 C35 1.150 . S
C268 C133 1.168 . S
C285 C49 1.155 . S
C304 C147 1.133 . S
C321 C161 1.150 . S
C340 C63 1.168 . S
C357 C91 1.151 . S
C376 C77 1.170 . S
C393 C148 1.221 . S
C412 C8 1.209 . S
C429 C22 1.224 . S
C448 C162 1.227 . S
C465 C36 1.218 . S
C484 C92 1.212 . S
C501 C106 1.226 . S
C520 C50 1.243 . S
C537 C120 1.218 . S
C556 C64 1.197 . S
C573 C134 1.223 . S
C592 C78 1.220 . S
C609 C11 1.614 . S
C628 C123 1.610 . S
C645 C25 1.615 . S
C664 C137 1.608 . S
C681 C151 1.616 . S
C700 C39 1.611 . S
C717 C53 1.614 . S
C736 C165 1.610 . S
C753 C95 1.614 . S
C772 C67 1.615 . S
C789 C109 1.614 . S
C808 C81 1.614 . S
C825 C55 1.093 . S
C844 C13 1.097 . S
C861 C69 1.077 . S
C880 C27 1.050 . S
C897 C41 1.082 . S
C916 C83 1.112 . S
C933 C97 1.076 . S
C952 C139 1.059 . S
C969 C111 1.092 . S
C988 C153 1.082 . S
C1005 C167 1.091 . S
C1024 C125 1.120 . S
