# Generated by pormake.
# Topology cha, (4)-cn, num edge types: 1
# Building blocks:
#     Node 0, Type 0, BuildingBlock: GALJAG_clean_sbu_0, # of connection points: 4
#     Node 1, Type 0, BuildingBlock: GALJAG_clean_sbu_0, # of connection points: 4
#     Node 2, Type 0, BuildingBlock: GALJAG_clean_sbu_0, # of connection points: 4
#     Node 3, Type 0, BuildingBlock: GALJAG_clean_sbu_0, # of connection points: 4
#     Node 4, Type 0, BuildingBlock: GALJAG_clean_sbu_0, # of connection points: 4
#     Node 5, Type 0, BuildingBlock: GALJAG_clean_sbu_0, # of connection points: 4
#     Node 6, Type 0, BuildingBlock: GALJAG_clean_sbu_0, # of connection points: 4
#     Node 7, Type 0, BuildingBlock: GALJAG_clean_sbu_0, # of connection points: 4
#     Node 8, Type 0, BuildingBlock: GALJAG_clean_sbu_0, # of connection points: 4
#     Node 9, Type 0, BuildingBlock: GALJAG_clean_sbu_0, # of connection points: 4
#     Node 10, Type 0, BuildingBlock: GALJAG_clean_sbu_0, # of connection points: 4
#     Node 11, Type 0, BuildingBlock: GALJAG_clean_sbu_0, # of connection points: 4
#     Node 12, Type 0, BuildingBlock: GALJAG_clean_sbu_0, # of connection points: 4
#     Node 13, Type 0, BuildingBlock: GALJAG_clean_sbu_0, # of connection points: 4
#     Node 14, Type 0, BuildingBlock: GALJAG_clean_sbu_0, # of connection points: 4
#     Node 15, Type 0, BuildingBlock: GALJAG_clean_sbu_0, # of connection points: 4
#     Node 16, Type 0, BuildingBlock: GALJAG_clean_sbu_0, # of connection points: 4
#     Node 17, Type 0, BuildingBlock: GALJAG_clean_sbu_0, # of connection points: 4
#     Node 18, Type 0, BuildingBlock: GALJAG_clean_sbu_0, # of connection points: 4
#     Node 19, Type 0, BuildingBlock: GALJAG_clean_sbu_0, # of connection points: 4
#     Node 20, Type 0, BuildingBlock: GALJAG_clean_sbu_0, # of connection points: 4
#     Node 21, Type 0, BuildingBlock: GALJAG_clean_sbu_0, # of connection points: 4
#     Node 22, Type 0, BuildingBlock: GALJAG_clean_sbu_0, # of connection points: 4
#     Node 23, Type 0, BuildingBlock: GALJAG_clean_sbu_0, # of connection points: 4
#     Node 24, Type 0, BuildingBlock: GALJAG_clean_sbu_0, # of connection points: 4
#     Node 25, Type 0, BuildingBlock: GALJAG_clean_sbu_0, # of connection points: 4
#     Node 26, Type 0, BuildingBlock: GALJAG_clean_sbu_0, # of connection points: 4
#     Node 27, Type 0, BuildingBlock: GALJAG_clean_sbu_0, # of connection points: 4
#     Node 28, Type 0, BuildingBlock: GALJAG_clean_sbu_0, # of connection points: 4
#     Node 29, Type 0, BuildingBlock: GALJAG_clean_sbu_0, # of connection points: 4
#     Node 30, Type 0, BuildingBlock: GALJAG_clean_sbu_0, # of connection points: 4
#     Node 31, Type 0, BuildingBlock: GALJAG_clean_sbu_0, # of connection points: 4
#     Node 32, Type 0, BuildingBlock: GALJAG_clean_sbu_0, # of connection points: 4
#     Node 33, Type 0, BuildingBlock: GALJAG_clean_sbu_0, # of connection points: 4
#     Node 34, Type 0, BuildingBlock: GALJAG_clean_sbu_0, # of connection points: 4
#     Node 35, Type 0, BuildingBlock: GALJAG_clean_sbu_0, # of connection points: 4
#     Edge 36, Type (0, 0), BuildingBlock: EZIPEK_clean_linker_0, # of connection points: 2
#     Edge 37, Type (0, 0), BuildingBlock: EZIPEK_clean_linker_0, # of connection points: 2
#     Edge 38, Type (0, 0), BuildingBlock: EZIPEK_clean_linker_0, # of connection points: 2
#     Edge 39, Type (0, 0), BuildingBlock: EZIPEK_clean_linker_0, # of connection points: 2
#     Edge 40, Type (0, 0), BuildingBlock: EZIPEK_clean_linker_0, # of connection points: 2
#     Edge 41, Type (0, 0), BuildingBlock: EZIPEK_clean_linker_0, # of connection points: 2
#     Edge 42, Type (0, 0), BuildingBlock: EZIPEK_clean_linker_0, # of connection points: 2
#     Edge 43, Type (0, 0), BuildingBlock: EZIPEK_clean_linker_0, # of connection points: 2
#     Edge 44, Type (0, 0), BuildingBlock: EZIPEK_clean_linker_0, # of connection points: 2
#     Edge 45, Type (0, 0), BuildingBlock: EZIPEK_clean_linker_0, # of connection points: 2
#     Edge 46, Type (0, 0), BuildingBlock: EZIPEK_clean_linker_0, # of connection points: 2
#     Edge 47, Type (0, 0), BuildingBlock: EZIPEK_clean_linker_0, # of connection points: 2
#     Edge 48, Type (0, 0), BuildingBlock: EZIPEK_clean_linker_0, # of connection points: 2
#     Edge 49, Type (0, 0), BuildingBlock: EZIPEK_clean_linker_0, # of connection points: 2
#     Edge 50, Type (0, 0), BuildingBlock: EZIPEK_clean_linker_0, # of connection points: 2
#     Edge 51, Type (0, 0), BuildingBlock: EZIPEK_clean_linker_0, # of connection points: 2
#     Edge 52, Type (0, 0), BuildingBlock: EZIPEK_clean_linker_0, # of connection points: 2
#     Edge 53, Type (0, 0), BuildingBlock: EZIPEK_clean_linker_0, # of connection points: 2
#     Edge 54, Type (0, 0), BuildingBlock: EZIPEK_clean_linker_0, # of connection points: 2
#     Edge 55, Type (0, 0), BuildingBlock: EZIPEK_clean_linker_0, # of connection points: 2
#     Edge 56, Type (0, 0), BuildingBlock: EZIPEK_clean_linker_0, # of connection points: 2
#     Edge 57, Type (0, 0), BuildingBlock: EZIPEK_clean_linker_0, # of connection points: 2
#     Edge 58, Type (0, 0), BuildingBlock: EZIPEK_clean_linker_0, # of connection points: 2
#     Edge 59, Type (0, 0), BuildingBlock: EZIPEK_clean_linker_0, # of connection points: 2
#     Edge 60, Type (0, 0), BuildingBlock: EZIPEK_clean_linker_0, # of connection points: 2
#     Edge 61, Type (0, 0), BuildingBlock: EZIPEK_clean_linker_0, # of connection points: 2
#     Edge 62, Type (0, 0), BuildingBlock: EZIPEK_clean_linker_0, # of connection points: 2
#     Edge 63, Type (0, 0), BuildingBlock: EZIPEK_clean_linker_0, # of connection points: 2
#     Edge 64, Type (0, 0), BuildingBlock: EZIPEK_clean_linker_0, # of connection points: 2
#     Edge 65, Type (0, 0), BuildingBlock: EZIPEK_clean_linker_0, # of connection points: 2
#     Edge 66, Type (0, 0), BuildingBlock: EZIPEK_clean_linker_0, # of connection points: 2
#     Edge 67, Type (0, 0), BuildingBlock: EZIPEK_clean_linker_0, # of connection points: 2
#     Edge 68, Type (0, 0), BuildingBlock: EZIPEK_clean_linker_0, # of connection points: 2
#     Edge 69, Type (0, 0), BuildingBlock: EZIPEK_clean_linker_0, # of connection points: 2
#     Edge 70, Type (0, 0), BuildingBlock: EZIPEK_clean_linker_0, # of connection points: 2
#     Edge 71, Type (0, 0), BuildingBlock: EZIPEK_clean_linker_0, # of connection points: 2
#     Edge 72, Type (0, 0), BuildingBlock: EZIPEK_clean_linker_0, # of connection points: 2
#     Edge 73, Type (0, 0), BuildingBlock: EZIPEK_clean_linker_0, # of connection points: 2
#     Edge 74, Type (0, 0), BuildingBlock: EZIPEK_clean_linker_0, # of connection points: 2
#     Edge 75, Type (0, 0), BuildingBlock: EZIPEK_clean_linker_0, # of connection points: 2
#     Edge 76, Type (0, 0), BuildingBlock: EZIPEK_clean_linker_0, # of connection points: 2
#     Edge 77, Type (0, 0), BuildingBlock: EZIPEK_clean_linker_0, # of connection points: 2
#     Edge 78, Type (0, 0), BuildingBlock: EZIPEK_clean_linker_0, # of connection points: 2
#     Edge 79, Type (0, 0), BuildingBlock: EZIPEK_clean_linker_0, # of connection points: 2
#     Edge 80, Type (0, 0), BuildingBlock: EZIPEK_clean_linker_0, # of connection points: 2
#     Edge 81, Type (0, 0), BuildingBlock: EZIPEK_clean_linker_0, # of connection points: 2
#     Edge 82, Type (0, 0), BuildingBlock: EZIPEK_clean_linker_0, # of connection points: 2
#     Edge 83, Type (0, 0), BuildingBlock: EZIPEK_clean_linker_0, # of connection points: 2
#     Edge 84, Type (0, 0), BuildingBlock: EZIPEK_clean_linker_0, # of connection points: 2
#     Edge 85, Type (0, 0), BuildingBlock: EZIPEK_clean_linker_0, # of connection points: 2
#     Edge 86, Type (0, 0), BuildingBlock: EZIPEK_clean_linker_0, # of connection points: 2
#     Edge 87, Type (0, 0), BuildingBlock: EZIPEK_clean_linker_0, # of connection points: 2
#     Edge 88, Type (0, 0), BuildingBlock: EZIPEK_clean_linker_0, # of connection points: 2
#     Edge 89, Type (0, 0), BuildingBlock: EZIPEK_clean_linker_0, # of connection points: 2
#     Edge 90, Type (0, 0), BuildingBlock: EZIPEK_clean_linker_0, # of connection points: 2
#     Edge 91, Type (0, 0), BuildingBlock: EZIPEK_clean_linker_0, # of connection points: 2
#     Edge 92, Type (0, 0), BuildingBlock: EZIPEK_clean_linker_0, # of connection points: 2
#     Edge 93, Type (0, 0), BuildingBlock: EZIPEK_clean_linker_0, # of connection points: 2
#     Edge 94, Type (0, 0), BuildingBlock: EZIPEK_clean_linker_0, # of connection points: 2
#     Edge 95, Type (0, 0), BuildingBlock: EZIPEK_clean_linker_0, # of connection points: 2
#     Edge 96, Type (0, 0), BuildingBlock: EZIPEK_clean_linker_0, # of connection points: 2
#     Edge 97, Type (0, 0), BuildingBlock: EZIPEK_clean_linker_0, # of connection points: 2
#     Edge 98, Type (0, 0), BuildingBlock: EZIPEK_clean_linker_0, # of connection points: 2
#     Edge 99, Type (0, 0), BuildingBlock: EZIPEK_clean_linker_0, # of connection points: 2
#     Edge 100, Type (0, 0), BuildingBlock: EZIPEK_clean_linker_0, # of connection points: 2
#     Edge 101, Type (0, 0), BuildingBlock: EZIPEK_clean_linker_0, # of connection points: 2
#     Edge 102, Type (0, 0), BuildingBlock: EZIPEK_clean_linker_0, # of connection points: 2
#     Edge 103, Type (0, 0), BuildingBlock: EZIPEK_clean_linker_0, # of connection points: 2
#     Edge 104, Type (0, 0), BuildingBlock: EZIPEK_clean_linker_0, # of connection points: 2
#     Edge 105, Type (0, 0), BuildingBlock: EZIPEK_clean_linker_0, # of connection points: 2
#     Edge 106, Type (0, 0), BuildingBlock: EZIPEK_clean_linker_0, # of connection points: 2
#     Edge 107, Type (0, 0), BuildingBlock: EZIPEK_clean_linker_0, # of connection points: 2
# Relax obj value: 0.076
# Max RMSD: 0.060
# Mean RMSD: 0.060
data_MOF--net-cha--node1-GALJAG_clean_sbu_0--edge1-EZIPEK_clean_linker_0
_symmetry_space_group_name_H-M    P1
_symmetry_Int_Tables_number       1
_symmetry_cell_setting            triclinic
loop_
_symmetry_equiv_pos_as_xyz
'x, y, z'
_cell_length_a     42.52079
_cell_length_b     42.518149
_cell_length_c     61.342889
_cell_angle_alpha  90.01396
_cell_angle_beta   89.990474
_cell_angle_gamma 119.99415
loop_
_atom_site_label
_atom_site_type_symbol
_atom_site_fract_x
_atom_site_fract_y
_atom_site_fract_z
_atom_type_partial_charge
In0 In 0.03408 0.29232 0.08623 0.0
O1 O 0.033 0.28191 0.05002 0.0
O2 O 0.03111 0.32902 0.05978 0.0
C3 C 0.02782 0.32251 0.12323 0.0
C4 C 0.10113 0.30133 0.08876 0.0
C5 C 0.97098 0.22926 0.0881 0.0
O6 O 0.02965 0.33655 0.10479 0.0
O7 O 0.0301 0.29408 0.12303 0.0
O8 O 0.00132 0.23076 0.08942 0.0
O9 O 0.97235 0.2594 0.08589 0.0
C10 C 0.03122 0.30942 0.04434 0.0
O11 O 0.07282 0.27063 0.08998 0.0
O12 O 0.0959 0.32789 0.08665 0.0
In13 In 0.76607 0.76432 0.08969 0.0
O14 O 0.73735 0.76259 0.05768 0.0
O15 O 0.75762 0.72652 0.06089 0.0
C16 C 0.73615 0.73064 0.12768 0.0
C17 C 0.76639 0.82741 0.09143 0.0
C18 C 0.83181 0.76963 0.08831 0.0
O19 O 0.72081 0.7177 0.10963 0.0
O20 O 0.76526 0.76051 0.12647 0.0
O21 O 0.82785 0.7969 0.08558 0.0
O22 O 0.80296 0.74008 0.09174 0.0
C23 C 0.74285 0.73921 0.04874 0.0
O24 O 0.79536 0.82594 0.0917 0.0
O25 O 0.73726 0.79716 0.09058 0.0
In26 In 0.28915 0.02315 0.0887 0.0
O27 O 0.32503 0.02143 0.06108 0.0
O28 O 0.27563 0.0199 0.05293 0.0
C29 C 0.32889 0.03449 0.1248 0.0
C30 C 0.23339 0.95514 0.09439 0.0
C31 C 0.28787 0.08567 0.08919 0.0
O32 O 0.34043 0.03213 0.10621 0.0
O33 O 0.29755 0.03072 0.12513 0.0
O34 O 0.26054 0.05567 0.09433 0.0
O35 O 0.31584 0.08424 0.08396 0.0
C36 C 0.30379 0.02022 0.04625 0.0
O37 O 0.22898 0.98209 0.09163 0.0
O38 O 0.26603 0.96251 0.09482 0.0
In39 In 0.28932 0.02744 0.91115 0.0
O40 O 0.26293 0.06193 0.90561 0.0
O41 O 0.32023 0.08929 0.91083 0.0
C42 C 0.22881 0.96161 0.91026 0.0
C43 C 0.30634 0.02567 0.95331 0.0
C44 C 0.32244 0.027 0.87385 0.0
O45 O 0.22785 0.99075 0.91182 0.0
O46 O 0.26021 0.9657 0.90874 0.0
O47 O 0.33944 0.03688 0.89176 0.0
O48 O 0.28949 0.01851 0.87484 0.0
C49 C 0.29222 0.09175 0.90758 0.0
O50 O 0.32141 0.0178 0.93817 0.0
O51 O 0.28393 0.03486 0.94709 0.0
In52 In 0.02484 0.28978 0.9103 0.0
O53 O 0.02592 0.32855 0.93681 0.0
O54 O 0.0219 0.27835 0.94629 0.0
C55 C 0.03312 0.32528 0.87255 0.0
C56 C 0.9583 0.2309 0.90771 0.0
C57 C 0.08884 0.29177 0.9113 0.0
O58 O 0.02849 0.33725 0.89041 0.0
O59 O 0.03266 0.29549 0.87376 0.0
O60 O 0.05956 0.2633 0.90654 0.0
O61 O 0.08599 0.31931 0.91544 0.0
C62 C 0.02388 0.30767 0.95212 0.0
O63 O 0.98697 0.22905 0.90697 0.0
O64 O 0.96294 0.26254 0.9093 0.0
In65 In 0.76766 0.76527 0.91325 0.0
O66 O 0.73463 0.72371 0.94017 0.0
O67 O 0.77382 0.77772 0.94908 0.0
C68 C 0.73189 0.73693 0.87583 0.0
C69 C 0.82581 0.75627 0.91051 0.0
C70 C 0.76786 0.82851 0.91139 0.0
O71 O 0.71619 0.7271 0.89413 0.0
O72 O 0.76527 0.76016 0.87661 0.0
O73 O 0.79664 0.82687 0.90982 0.0
O74 O 0.73903 0.79835 0.91358 0.0
C75 C 0.75046 0.74644 0.95531 0.0
O76 O 0.82852 0.78716 0.91193 0.0
O77 O 0.79373 0.72984 0.91001 0.0
In78 In 0.02813 0.76444 0.91388 0.0
O79 O 0.9905 0.78775 0.91061 0.0
O80 O 0.96629 0.73024 0.9129 0.0
C81 C 0.09208 0.82668 0.91298 0.0
C82 C 0.02782 0.74338 0.95533 0.0
C83 C 0.03619 0.73816 0.87563 0.0
O84 O 0.06213 0.82607 0.91171 0.0
O85 O 0.08979 0.79606 0.91503 0.0
O86 O 0.03656 0.72383 0.8936 0.0
O87 O 0.03073 0.7646 0.87699 0.0
C88 C 0.96176 0.75728 0.91113 0.0
O89 O 0.02311 0.7225 0.93946 0.0
O90 O 0.03266 0.77419 0.95029 0.0
In91 In 0.28462 0.28637 0.91284 0.0
O92 O 0.32651 0.32445 0.93794 0.0
O93 O 0.2773 0.27903 0.94931 0.0
C94 C 0.31099 0.31889 0.87426 0.0
C95 C 0.29 0.22629 0.90973 0.0
C96 C 0.2235 0.29003 0.91362 0.0
O97 O 0.32671 0.33336 0.89199 0.0
O98 O 0.28294 0.28813 0.87603 0.0
O99 O 0.22318 0.26022 0.91286 0.0
O100 O 0.25455 0.31807 0.91422 0.0
C101 C 0.30728 0.30654 0.95401 0.0
O102 O 0.26016 0.22569 0.90796 0.0
O103 O 0.31738 0.25725 0.91286 0.0
In104 In 0.76669 0.02705 0.91362 0.0
O105 O 0.72699 0.02467 0.93999 0.0
O106 O 0.77769 0.03046 0.94984 0.0
C107 C 0.73096 0.01947 0.87606 0.0
C108 C 0.82455 0.09421 0.91043 0.0
C109 C 0.76673 0.96389 0.9128 0.0
O110 O 0.71889 0.02335 0.89409 0.0
O111 O 0.7607 0.01979 0.87704 0.0
O112 O 0.79447 0.99379 0.90805 0.0
O113 O 0.73897 0.96572 0.91799 0.0
C114 C 0.74785 0.02748 0.95548 0.0
O115 O 0.82744 0.06626 0.91253 0.0
O116 O 0.79247 0.08854 0.90982 0.0
In117 In 0.77295 0.02941 0.08889 0.0
O118 O 0.79923 0.99424 0.08979 0.0
O119 O 0.7413 0.96755 0.08967 0.0
C120 C 0.83535 0.09341 0.09014 0.0
C121 C 0.75029 0.02693 0.04758 0.0
C122 C 0.74454 0.03551 0.12697 0.0
O123 O 0.83395 0.06377 0.09461 0.0
O124 O 0.8054 0.09089 0.0852 0.0
O125 O 0.7368 0.04446 0.10899 0.0
O126 O 0.76511 0.02223 0.12556 0.0
C127 C 0.76946 0.96466 0.09004 0.0
O128 O 0.72901 0.02 0.06356 0.0
O129 O 0.78219 0.03496 0.05249 0.0
In130 In 0.0292 0.76675 0.08857 0.0
O131 O 0.02473 0.72473 0.06318 0.0
O132 O 0.03674 0.77707 0.05223 0.0
C133 C 0.01647 0.73058 0.12638 0.0
C134 C 0.09756 0.82181 0.09412 0.0
C135 C 0.96827 0.771 0.08771 0.0
O136 O 0.02228 0.71851 0.10889 0.0
O137 O 0.01748 0.76063 0.12476 0.0
O138 O 0.99897 0.79824 0.09171 0.0
O139 O 0.96835 0.74186 0.08399 0.0
C140 C 0.03072 0.74583 0.04725 0.0
O141 O 0.07176 0.82667 0.08854 0.0
O142 O 0.08889 0.78913 0.09726 0.0
In143 In 0.29095 0.28616 0.0872 0.0
O144 O 0.23096 0.26629 0.09221 0.0
O145 O 0.26579 0.32249 0.08514 0.0
C146 C 0.28795 0.22152 0.08814 0.0
C147 C 0.31186 0.30656 0.04577 0.0
C148 C 0.3255 0.31339 0.12527 0.0
O149 O 0.25972 0.22425 0.08822 0.0
O150 O 0.31759 0.25119 0.0875 0.0
O151 O 0.34182 0.32341 0.1072 0.0
O152 O 0.29207 0.29071 0.12401 0.0
C153 C 0.23402 0.297 0.08901 0.0
O154 O 0.32809 0.32765 0.06155 0.0
O155 O 0.28599 0.27576 0.05092 0.0
In156 In 0.68896 0.61696 0.42273 0.0
O157 O 0.69713 0.6608 0.39777 0.0
O158 O 0.68329 0.60804 0.38639 0.0
C159 C 0.68529 0.64603 0.46103 0.0
C160 C 0.7539 0.62096 0.42325 0.0
C161 C 0.62438 0.55509 0.42411 0.0
O162 O 0.67618 0.65422 0.44325 0.0
O163 O 0.69722 0.62435 0.45932 0.0
O164 O 0.65402 0.55563 0.4271 0.0
O165 O 0.62722 0.58561 0.42055 0.0
C166 C 0.69056 0.63979 0.3817 0.0
O167 O 0.72446 0.59105 0.42377 0.0
O168 O 0.75074 0.64893 0.42246 0.0
In169 In 0.43393 0.10004 0.41977 0.0
O170 O 0.39148 0.06272 0.3946 0.0
O171 O 0.44376 0.10309 0.38342 0.0
C172 C 0.40658 0.06586 0.45793 0.0
C173 C 0.42505 0.15824 0.42182 0.0
C174 C 0.49829 0.10253 0.42071 0.0
O175 O 0.39656 0.04941 0.4399 0.0
O176 O 0.4293 0.09927 0.45659 0.0
O177 O 0.49578 0.13084 0.41986 0.0
O178 O 0.46852 0.07298 0.42104 0.0
C179 C 0.41257 0.07757 0.37863 0.0
O180 O 0.45534 0.16031 0.42491 0.0
O181 O 0.399 0.12683 0.41779 0.0
In182 In 0.96242 0.36814 0.41957 0.0
O183 O 0.00139 0.37413 0.3917 0.0
O184 O 0.94796 0.36257 0.38376 0.0
C185 C 0.99842 0.37082 0.45606 0.0
C186 C 0.90292 0.30257 0.4241 0.0
C187 C 0.96786 0.4341 0.4213 0.0
O188 O 0.00868 0.36637 0.43752 0.0
O189 O 0.96976 0.37269 0.45615 0.0
O190 O 0.93767 0.40493 0.42087 0.0
O191 O 0.99524 0.43001 0.42128 0.0
C192 C 0.97844 0.36871 0.37696 0.0
O193 O 0.90205 0.3317 0.4259 0.0
O194 O 0.93377 0.30629 0.42028 0.0
In195 In 0.95828 0.36531 0.24269 0.0
O196 O 0.93339 0.40156 0.24072 0.0
O197 O 0.99113 0.42713 0.24337 0.0
C198 C 0.89579 0.30143 0.24157 0.0
C199 C 0.97918 0.36855 0.2843 0.0
C200 C 0.98769 0.35986 0.205 0.0
O201 O 0.89751 0.3309 0.23621 0.0
O202 O 0.92544 0.30404 0.24736 0.0
O203 O 0.99509 0.35073 0.22304 0.0
O204 O 0.96709 0.37312 0.2062 0.0
C205 C 0.96344 0.43075 0.24207 0.0
O206 O 0.00019 0.37193 0.26873 0.0
O207 O 0.94855 0.36371 0.27878 0.0
In208 In 0.69089 0.62246 0.24852 0.0
O209 O 0.65266 0.56161 0.24655 0.0
O210 O 0.62916 0.59571 0.24684 0.0
C211 C 0.75492 0.62428 0.24865 0.0
C212 C 0.69014 0.64202 0.28999 0.0
C213 C 0.69745 0.65644 0.21045 0.0
O214 O 0.72543 0.59578 0.24427 0.0
O215 O 0.75226 0.65188 0.25296 0.0
O216 O 0.69442 0.66952 0.2283 0.0
O217 O 0.69669 0.62653 0.21186 0.0
C218 C 0.62421 0.56389 0.2462 0.0
O219 O 0.69167 0.66202 0.2743 0.0
O220 O 0.68866 0.61268 0.28473 0.0
In221 In 0.43552 0.10065 0.2462 0.0
O222 O 0.39883 0.05687 0.2709 0.0
O223 O 0.43882 0.10901 0.28265 0.0
C224 C 0.40355 0.07361 0.2074 0.0
C225 C 0.49496 0.09407 0.24527 0.0
C226 C 0.43506 0.16367 0.24536 0.0
O227 O 0.38555 0.06601 0.2249 0.0
O228 O 0.43735 0.09321 0.20968 0.0
O229 O 0.464 0.1624 0.24374 0.0
O230 O 0.4065 0.13336 0.24756 0.0
C231 C 0.4136 0.07747 0.28711 0.0
O232 O 0.49635 0.12419 0.2426 0.0
O233 O 0.46367 0.06716 0.24844 0.0
In234 In 0.69705 0.10285 0.24568 0.0
O235 O 0.65806 0.12417 0.24163 0.0
O236 O 0.63531 0.06705 0.24575 0.0
C237 C 0.76012 0.16575 0.24354 0.0
C238 C 0.69918 0.08757 0.28803 0.0
C239 C 0.70391 0.07225 0.20894 0.0
O240 O 0.72982 0.16417 0.24145 0.0
O241 O 0.75871 0.13575 0.24662 0.0
O242 O 0.70292 0.05901 0.22754 0.0
O243 O 0.7003 0.09991 0.20887 0.0
C244 C 0.62988 0.09345 0.24341 0.0
O245 O 0.69858 0.06675 0.27311 0.0
O246 O 0.6987 0.11542 0.28158 0.0
In247 In 0.95366 0.62401 0.24816 0.0
O248 O 0.93097 0.56301 0.24791 0.0
O249 O 0.98821 0.59693 0.24451 0.0
C250 C 0.89109 0.62509 0.2486 0.0
C251 C 0.97714 0.64655 0.28901 0.0
C252 C 0.97808 0.65679 0.2094 0.0
O253 O 0.89206 0.59607 0.24644 0.0
O254 O 0.92157 0.65361 0.25058 0.0
O255 O 0.9946 0.67111 0.22697 0.0
O256 O 0.95002 0.62605 0.21137 0.0
C257 C 0.96142 0.56513 0.2456 0.0
O258 O 0.9961 0.66351 0.27264 0.0
O259 O 0.94707 0.61889 0.28475 0.0
In260 In 0.43176 0.36096 0.24708 0.0
O261 O 0.39307 0.36483 0.27176 0.0
O262 O 0.43631 0.35792 0.28365 0.0
C263 C 0.39687 0.35207 0.20905 0.0
C264 C 0.48978 0.42814 0.24549 0.0
C265 C 0.43387 0.29889 0.2464 0.0
O266 O 0.3818 0.34991 0.22717 0.0
O267 O 0.42946 0.35947 0.21009 0.0
O268 O 0.46181 0.32946 0.24335 0.0
O269 O 0.40485 0.29946 0.24961 0.0
C270 C 0.40935 0.36147 0.28803 0.0
O271 O 0.49247 0.40015 0.24789 0.0
O272 O 0.45782 0.42253 0.2437 0.0
In273 In 0.42498 0.35657 0.42102 0.0
O274 O 0.38985 0.36434 0.39545 0.0
O275 O 0.42913 0.35066 0.38464 0.0
C276 C 0.3942 0.36079 0.45854 0.0
C277 C 0.41997 0.29109 0.42353 0.0
C278 C 0.48774 0.42011 0.42149 0.0
O279 O 0.37657 0.35066 0.4409 0.0
O280 O 0.42663 0.36778 0.45726 0.0
O281 O 0.48626 0.39021 0.42519 0.0
O282 O 0.45765 0.41815 0.41764 0.0
C283 C 0.40488 0.35806 0.3796 0.0
O284 O 0.44998 0.32033 0.42333 0.0
O285 O 0.39224 0.29463 0.4229 0.0
In286 In 0.70036 0.10893 0.4225 0.0
O287 O 0.70036 0.07083 0.39593 0.0
O288 O 0.70378 0.12067 0.38639 0.0
C289 C 0.69272 0.07161 0.45942 0.0
C290 C 0.76668 0.16803 0.42579 0.0
C291 C 0.63607 0.10669 0.42227 0.0
O292 O 0.69543 0.0599 0.44099 0.0
O293 O 0.69474 0.10218 0.45927 0.0
O294 O 0.66535 0.13512 0.42704 0.0
O295 O 0.63908 0.07938 0.41775 0.0
C296 C 0.70241 0.09161 0.38059 0.0
O297 O 0.73796 0.16981 0.42588 0.0
O298 O 0.76221 0.13644 0.42439 0.0
In299 In 0.95555 0.62666 0.42149 0.0
O300 O 0.99797 0.66516 0.39658 0.0
O301 O 0.94796 0.62144 0.38495 0.0
C302 C 0.98734 0.65916 0.45937 0.0
C303 C 0.89224 0.62631 0.42412 0.0
C304 C 0.96236 0.56713 0.42185 0.0
O305 O 0.99434 0.67661 0.44167 0.0
O306 O 0.96379 0.62598 0.45793 0.0
O307 O 0.9321 0.5655 0.4194 0.0
O308 O 0.98921 0.59874 0.42402 0.0
C309 C 0.97838 0.64838 0.38038 0.0
O310 O 0.89466 0.59847 0.42796 0.0
O311 O 0.92171 0.6545 0.41941 0.0
In312 In 0.36574 0.96116 0.75395 0.0
O313 O 0.35639 0.99479 0.72803 0.0
O314 O 0.376 0.95985 0.71784 0.0
C315 C 0.36123 0.99212 0.79126 0.0
C316 C 0.43111 0.96627 0.7578 0.0
C317 C 0.30217 0.89829 0.75403 0.0
O318 O 0.37188 0.00979 0.77366 0.0
O319 O 0.3536 0.95948 0.79001 0.0
O320 O 0.33197 0.8998 0.75817 0.0
O321 O 0.3043 0.92833 0.7498 0.0
C322 C 0.3659 0.98197 0.71243 0.0
O323 O 0.40212 0.93624 0.75584 0.0
O324 O 0.42729 0.99385 0.75817 0.0
In325 In 0.10125 0.43538 0.7522 0.0
O326 O 0.06083 0.39649 0.72662 0.0
O327 O 0.10874 0.44379 0.71578 0.0
C328 C 0.07413 0.40145 0.79036 0.0
C329 C 0.09434 0.49466 0.75518 0.0
C330 C 0.16337 0.43336 0.75268 0.0
O331 O 0.05849 0.3879 0.77245 0.0
O332 O 0.10264 0.43198 0.78898 0.0
O333 O 0.16266 0.46244 0.75527 0.0
O334 O 0.13286 0.40525 0.74979 0.0
C335 C 0.07979 0.41539 0.71075 0.0
O336 O 0.12467 0.49641 0.75316 0.0
O337 O 0.0672 0.46301 0.75581 0.0
In338 In 0.62138 0.69176 0.75656 0.0
O339 O 0.66075 0.6954 0.7295 0.0
O340 O 0.61011 0.6904 0.72051 0.0
C341 C 0.65734 0.69628 0.79327 0.0
C342 C 0.56336 0.62525 0.7614 0.0
C343 C 0.62546 0.75707 0.75851 0.0
O344 O 0.66988 0.69526 0.77472 0.0
O345 O 0.62655 0.69395 0.79323 0.0
O346 O 0.59651 0.7285 0.75338 0.0
O347 O 0.65165 0.75237 0.76308 0.0
C348 C 0.6397 0.69342 0.71434 0.0
O349 O 0.56138 0.65378 0.7633 0.0
O350 O 0.59471 0.63027 0.75754 0.0
In351 In 0.62366 0.69776 0.57974 0.0
O352 O 0.60034 0.7352 0.57559 0.0
O353 O 0.65767 0.75973 0.57941 0.0
C354 C 0.56228 0.63292 0.57834 0.0
C355 C 0.6414 0.6978 0.62177 0.0
C356 C 0.65426 0.6914 0.54294 0.0
O357 O 0.56231 0.66242 0.57591 0.0
O358 O 0.59304 0.63612 0.58154 0.0
O359 O 0.66824 0.6935 0.56143 0.0
O360 O 0.62596 0.69389 0.54297 0.0
C361 C 0.6306 0.76406 0.57702 0.0
O362 O 0.66152 0.69799 0.60655 0.0
O363 O 0.61314 0.69792 0.61579 0.0
In364 In 0.35968 0.95757 0.57885 0.0
O365 O 0.36045 0.94947 0.61524 0.0
O366 O 0.3596 0.99677 0.60466 0.0
C367 C 0.36771 0.99324 0.54125 0.0
C368 C 0.29226 0.90023 0.57596 0.0
C369 C 0.42227 0.95644 0.57798 0.0
O370 O 0.36804 0.00717 0.55951 0.0
O371 O 0.36262 0.96142 0.54195 0.0
O372 O 0.39175 0.9279 0.57635 0.0
O373 O 0.42132 0.98547 0.58001 0.0
C374 C 0.36018 0.97797 0.62043 0.0
O375 O 0.32021 0.8971 0.57595 0.0
O376 O 0.29808 0.93235 0.57709 0.0
In377 In 0.10204 0.44009 0.57782 0.0
O378 O 0.06685 0.39606 0.60291 0.0
O379 O 0.10389 0.44956 0.6141 0.0
C380 C 0.07123 0.41042 0.53912 0.0
C381 C 0.16369 0.43746 0.57715 0.0
C382 C 0.09911 0.50188 0.57636 0.0
O383 O 0.05263 0.40438 0.55628 0.0
O384 O 0.10499 0.4297 0.54177 0.0
O385 O 0.12878 0.50187 0.57713 0.0
O386 O 0.07101 0.47089 0.57612 0.0
C387 C 0.08031 0.41752 0.61891 0.0
O388 O 0.16292 0.46613 0.57285 0.0
O389 O 0.13343 0.41009 0.58188 0.0
In390 In 0.36162 0.43571 0.57814 0.0
O391 O 0.32831 0.4634 0.57259 0.0
O392 O 0.29976 0.40625 0.57828 0.0
C393 C 0.42786 0.49574 0.57699 0.0
C394 C 0.36306 0.41786 0.62017 0.0
C395 C 0.3609 0.40162 0.54096 0.0
O396 O 0.39893 0.49708 0.57846 0.0
O397 O 0.42341 0.46415 0.5758 0.0
O398 O 0.35091 0.38494 0.55895 0.0
O399 O 0.37003 0.43474 0.54179 0.0
C400 C 0.2981 0.43467 0.57493 0.0
O401 O 0.37043 0.40268 0.60487 0.0
O402 O 0.35471 0.44102 0.6142 0.0
In403 In 0.62215 0.95817 0.57878 0.0
O404 O 0.5988 0.89713 0.57856 0.0
O405 O 0.6565 0.93071 0.57709 0.0
C406 C 0.55878 0.95791 0.57746 0.0
C407 C 0.64359 0.97709 0.6203 0.0
C408 C 0.65052 0.99303 0.54088 0.0
O409 O 0.56132 0.93063 0.57207 0.0
O410 O 0.58804 0.98529 0.58341 0.0
O411 O 0.65868 0.00948 0.55896 0.0
O412 O 0.62948 0.95923 0.5421 0.0
C413 C 0.62934 0.89898 0.57758 0.0
O414 O 0.66371 0.99524 0.60455 0.0
O415 O 0.61365 0.95002 0.61504 0.0
In416 In 0.09698 0.69972 0.57862 0.0
O417 O 0.05756 0.69335 0.60616 0.0
O418 O 0.11043 0.70312 0.61445 0.0
C419 C 0.05987 0.69575 0.5421 0.0
C420 C 0.15588 0.76609 0.57531 0.0
C421 C 0.09606 0.63619 0.57742 0.0
O422 O 0.05203 0.7039 0.56034 0.0
O423 O 0.08636 0.69028 0.54241 0.0
O424 O 0.12469 0.6662 0.57428 0.0
O425 O 0.0678 0.63806 0.58102 0.0
C426 C 0.08007 0.69776 0.62098 0.0
O427 O 0.15717 0.73741 0.57238 0.0
O428 O 0.12481 0.76152 0.57947 0.0
In429 In 0.10481 0.69781 0.75493 0.0
O430 O 0.06694 0.70003 0.72902 0.0
O431 O 0.11122 0.69339 0.71876 0.0
C432 C 0.07698 0.70416 0.79296 0.0
C433 C 0.09654 0.63102 0.75737 0.0
C434 C 0.16707 0.76181 0.75418 0.0
O435 O 0.06046 0.69987 0.77512 0.0
O436 O 0.10683 0.70477 0.7916 0.0
O437 O 0.16623 0.73229 0.75822 0.0
O438 O 0.13663 0.75923 0.75065 0.0
C439 C 0.08427 0.6964 0.71338 0.0
O440 O 0.12729 0.65945 0.75759 0.0
O441 O 0.06976 0.63607 0.75631 0.0
In442 In 0.36178 0.43245 0.75515 0.0
O443 O 0.40206 0.49294 0.75746 0.0
O444 O 0.42228 0.45668 0.76227 0.0
C445 C 0.29853 0.43214 0.75447 0.0
C446 C 0.36604 0.41766 0.71294 0.0
C447 C 0.34988 0.39391 0.79184 0.0
O448 O 0.32788 0.45963 0.76036 0.0
O449 O 0.30097 0.40484 0.74897 0.0
O450 O 0.35479 0.38264 0.77377 0.0
O451 O 0.35122 0.42418 0.79129 0.0
C452 C 0.42917 0.48913 0.7611 0.0
O453 O 0.36375 0.39611 0.72789 0.0
O454 O 0.36678 0.44613 0.71941 0.0
In455 In 0.62368 0.95539 0.75482 0.0
O456 O 0.56327 0.93287 0.7598 0.0
O457 O 0.59679 0.99015 0.75547 0.0
C458 C 0.62829 0.89451 0.75608 0.0
C459 C 0.64209 0.97399 0.71272 0.0
C460 C 0.65603 0.98244 0.79336 0.0
O461 O 0.59833 0.89378 0.75425 0.0
O462 O 0.65574 0.92588 0.75717 0.0
O463 O 0.67065 0.99794 0.77555 0.0
O464 O 0.62501 0.95462 0.79164 0.0
C465 C 0.56526 0.96343 0.75832 0.0
O466 O 0.66258 0.99302 0.72813 0.0
O467 O 0.61305 0.94636 0.7186 0.0
C468 C 0.15892 0.31458 0.07029 0.0
C469 C 0.13765 0.30534 0.08955 0.0
C470 C 0.1834 0.29753 0.1093 0.0
C471 C 0.20233 0.30239 0.08944 0.0
N472 N 0.2072 0.31227 0.05057 0.0
N473 N 0.12826 0.28728 0.12733 0.0
C474 C 0.19018 0.31057 0.06983 0.0
C475 C 0.14957 0.2967 0.10908 0.0
N476 N 0.14899 0.3267 0.05236 0.0
N477 N 0.19845 0.29489 0.12844 0.0
H478 H 0.10463 0.28896 0.12827 0.0
H479 H 0.13297 0.27626 0.14125 0.0
H480 H 0.22337 0.29571 0.12915 0.0
H481 H 0.18796 0.2949 0.14376 0.0
H482 H 0.16543 0.33772 0.03869 0.0
H483 H 0.12529 0.32822 0.05163 0.0
H484 H 0.19736 0.31404 0.03536 0.0
H485 H 0.22996 0.30915 0.04953 0.0
C486 C 0.77897 0.91844 0.10969 0.0
C487 C 0.76783 0.92913 0.0906 0.0
C488 C 0.75758 0.87395 0.07175 0.0
C489 C 0.76662 0.86225 0.09123 0.0
N490 N 0.78121 0.87013 0.12949 0.0
N491 N 0.74316 0.91629 0.05417 0.0
C492 C 0.77618 0.88369 0.11041 0.0
C493 C 0.7559 0.90651 0.07188 0.0
N494 N 0.79235 0.94162 0.12708 0.0
N495 N 0.75241 0.85483 0.05286 0.0
H496 H 0.74401 0.94116 0.05298 0.0
H497 H 0.72986 0.89905 0.04113 0.0
H498 H 0.7537 0.83101 0.05209 0.0
H499 H 0.74969 0.86386 0.03759 0.0
H500 H 0.80501 0.9375 0.1404 0.0
H501 H 0.79264 0.96628 0.12775 0.0
H502 H 0.78435 0.88249 0.1446 0.0
H503 H 0.77958 0.84486 0.13057 0.0
C504 C 0.16369 0.85568 0.08395 0.0
C505 C 0.13489 0.85263 0.0972 0.0
C506 C 0.17563 0.91233 0.11323 0.0
C507 C 0.20214 0.91795 0.09735 0.0
N508 N 0.22243 0.89513 0.06765 0.0
N509 N 0.11325 0.87654 0.12546 0.0
C510 C 0.19683 0.88941 0.08303 0.0
C511 C 0.1409 0.88048 0.11224 0.0
N512 N 0.15936 0.82655 0.07208 0.0
N513 N 0.18432 0.93694 0.12976 0.0
H514 H 0.0886 0.85228 0.12676 0.0
H515 H 0.11416 0.89761 0.1346 0.0
H516 H 0.21006 0.95983 0.13135 0.0
H517 H 0.16753 0.93309 0.14303 0.0
H518 H 0.18057 0.82566 0.06418 0.0
H519 H 0.13515 0.8019 0.07139 0.0
H520 H 0.21788 0.87772 0.0546 0.0
H521 H 0.24798 0.91826 0.06717 0.0
C522 C 0.31015 0.15264 0.89142 0.0
C523 C 0.29304 0.12688 0.90836 0.0
C524 C 0.27449 0.16659 0.92628 0.0
C525 C 0.29219 0.19271 0.90956 0.0
N526 N 0.3303 0.21333 0.87759 0.0
N527 N 0.26488 0.11138 0.94384 0.0
C528 C 0.31126 0.18663 0.89259 0.0
C529 C 0.27668 0.13433 0.92629 0.0
N530 N 0.32398 0.14389 0.87381 0.0
N531 N 0.25563 0.1727 0.94222 0.0
H532 H 0.26612 0.08754 0.94454 0.0
H533 H 0.2565 0.11713 0.9585 0.0
H534 H 0.25623 0.19736 0.94415 0.0
H535 H 0.238 0.15286 0.95305 0.0
H536 H 0.33318 0.15943 0.85969 0.0
H537 H 0.32435 0.11962 0.87272 0.0
H538 H 0.34816 0.21249 0.86633 0.0
H539 H 0.32981 0.23759 0.87701 0.0
C540 C 0.89802 0.18748 0.89108 0.0
C541 C 0.92213 0.19796 0.90907 0.0
C542 C 0.87863 0.14369 0.92923 0.0
C543 C 0.85667 0.13104 0.91028 0.0
N544 N 0.84548 0.13898 0.87273 0.0
N545 N 0.9366 0.18659 0.94522 0.0
C546 C 0.86608 0.15262 0.89114 0.0
C547 C 0.91272 0.17624 0.92817 0.0
N548 N 0.90578 0.21081 0.87394 0.0
N549 N 0.86617 0.12518 0.94845 0.0
H550 H 0.96061 0.21154 0.94584 0.0
H551 H 0.93362 0.16982 0.95836 0.0
H552 H 0.8412 0.10131 0.94986 0.0
H553 H 0.8789 0.13489 0.96342 0.0
H554 H 0.88765 0.20656 0.86137 0.0
H555 H 0.92962 0.23591 0.873 0.0
H556 H 0.85292 0.15147 0.85754 0.0
H557 H 0.82177 0.11372 0.87224 0.0
C558 C 0.86563 0.7338 0.92606 0.0
C559 C 0.85818 0.7519 0.90911 0.0
C560 C 0.91587 0.76713 0.89144 0.0
C561 C 0.92543 0.75377 0.90997 0.0
N562 N 0.91191 0.72913 0.9464 0.0
N563 N 0.87579 0.78609 0.87555 0.0
C564 C 0.90085 0.738 0.9276 0.0
C565 C 0.88324 0.76869 0.89176 0.0
N566 N 0.83926 0.7127 0.94075 0.0
N567 N 0.93732 0.77697 0.87324 0.0
H568 H 0.85079 0.78491 0.87403 0.0
H569 H 0.89486 0.80293 0.86409 0.0
H570 H 0.96107 0.77555 0.87231 0.0
H571 H 0.93009 0.78345 0.85841 0.0
H572 H 0.84211 0.69593 0.95198 0.0
H573 H 0.8132 0.70913 0.9405 0.0
H574 H 0.8967 0.72147 0.96071 0.0
H575 H 0.93785 0.73276 0.94844 0.0
C576 C 0.80123 0.61327 0.44287 0.0
C577 C 0.7896 0.62301 0.42362 0.0
C578 C 0.84428 0.63279 0.40438 0.0
C579 C 0.85708 0.62548 0.42404 0.0
N580 N 0.85093 0.61397 0.46272 0.0
N581 N 0.80103 0.64583 0.38675 0.0
C582 C 0.83634 0.61694 0.44348 0.0
C583 C 0.81157 0.63417 0.40462 0.0
N584 N 0.77865 0.60043 0.46055 0.0
N585 N 0.8623 0.63632 0.38524 0.0
H586 H 0.77605 0.64477 0.38567 0.0
H587 H 0.81785 0.65859 0.37345 0.0
H588 H 0.88585 0.63455 0.38426 0.0
H589 H 0.85239 0.63782 0.37 0.0
H590 H 0.78354 0.58865 0.47404 0.0
H591 H 0.75373 0.59958 0.4613 0.0
H592 H 0.83904 0.61183 0.47788 0.0
H593 H 0.87658 0.61655 0.46381 0.0
C594 C 0.40726 0.23385 0.40452 0.0
C595 C 0.41782 0.25534 0.42374 0.0
C596 C 0.42749 0.21002 0.44256 0.0
C597 C 0.42069 0.19057 0.4227 0.0
N598 N 0.40843 0.1856 0.38409 0.0
N599 N 0.44007 0.26586 0.4607 0.0
C600 C 0.41129 0.20264 0.40352 0.0
C601 C 0.42854 0.24398 0.44268 0.0
N602 N 0.3938 0.24353 0.38713 0.0
N603 N 0.43158 0.19531 0.46144 0.0
H604 H 0.439 0.28978 0.46191 0.0
H605 H 0.4525 0.26142 0.47403 0.0
H606 H 0.43053 0.17028 0.46198 0.0
H607 H 0.43293 0.20622 0.47683 0.0
H608 H 0.38163 0.22684 0.37369 0.0
H609 H 0.39255 0.26737 0.38667 0.0
H610 H 0.40562 0.19537 0.36909 0.0
H611 H 0.41182 0.16304 0.38261 0.0
C612 C 0.84988 0.25271 0.40474 0.0
C613 C 0.86952 0.26673 0.42441 0.0
C614 C 0.82435 0.21302 0.44434 0.0
C615 C 0.80291 0.20095 0.42516 0.0
N616 N 0.79329 0.20952 0.38737 0.0
N617 N 0.87542 0.26252 0.46318 0.0
C618 C 0.81517 0.22082 0.4054 0.0
C619 C 0.85687 0.2474 0.44429 0.0
N620 N 0.86486 0.26952 0.38538 0.0
N621 N 0.81363 0.19148 0.4625 0.0
H622 H 0.89973 0.28725 0.46357 0.0
H623 H 0.86584 0.25184 0.4786 0.0
H624 H 0.7894 0.1667 0.46324 0.0
H625 H 0.82968 0.1968 0.47633 0.0
H626 H 0.85388 0.25865 0.3702 0.0
H627 H 0.89003 0.29323 0.38431 0.0
H628 H 0.79853 0.225 0.37328 0.0
H629 H 0.76853 0.18529 0.38682 0.0
C630 C 0.95247 0.47532 0.26239 0.0
C631 C 0.96566 0.46648 0.24346 0.0
C632 C 0.97746 0.52324 0.226 0.0
C633 C 0.96526 0.53249 0.24519 0.0
N634 N 0.94904 0.52201 0.28321 0.0
N635 N 0.99601 0.48376 0.20864 0.0
C636 C 0.95496 0.50982 0.26385 0.0
C637 C 0.98006 0.49114 0.22574 0.0
N638 N 0.93723 0.45059 0.27892 0.0
N639 N 0.98469 0.5441 0.20768 0.0
H640 H 0.99676 0.45968 0.20735 0.0
H641 H 0.01063 0.50241 0.19644 0.0
H642 H 0.98321 0.56785 0.20725 0.0
H643 H 0.98968 0.5367 0.19245 0.0
H644 H 0.92313 0.45357 0.29188 0.0
H645 H 0.93677 0.42584 0.27914 0.0
H646 H 0.94523 0.50853 0.29798 0.0
H647 H 0.95128 0.54747 0.28497 0.0
C648 C 0.57599 0.50976 0.26577 0.0
C649 C 0.58775 0.53133 0.24661 0.0
C650 C 0.53363 0.48635 0.22695 0.0
C651 C 0.52188 0.46489 0.24614 0.0
N652 N 0.52692 0.4589 0.28485 0.0
N653 N 0.57574 0.54423 0.21027 0.0
C654 C 0.54165 0.47741 0.26588 0.0
C655 C 0.56576 0.52099 0.22763 0.0
N656 N 0.59791 0.52005 0.28378 0.0
N657 N 0.5151 0.47276 0.20785 0.0
H658 H 0.59984 0.56915 0.20988 0.0
H659 H 0.55912 0.54011 0.19686 0.0
H660 H 0.49128 0.44766 0.2068 0.0
H661 H 0.52437 0.48509 0.19274 0.0
H662 H 0.59317 0.50344 0.29728 0.0
H663 H 0.62209 0.54481 0.2849 0.0
H664 H 0.538 0.46847 0.3002 0.0
H665 H 0.50171 0.43515 0.28552 0.0
C666 C 0.54577 0.09508 0.22428 0.0
C667 C 0.52779 0.09064 0.24448 0.0
C668 C 0.57325 0.08093 0.26307 0.0
C669 C 0.59329 0.08929 0.24333 0.0
N670 N 0.60029 0.10569 0.20529 0.0
N671 N 0.52532 0.08288 0.28347 0.0
C672 C 0.57997 0.0967 0.22395 0.0
C673 C 0.54151 0.08407 0.26397 0.0
N674 N 0.52949 0.09655 0.20538 0.0
N675 N 0.58479 0.0704 0.28101 0.0
H676 H 0.50223 0.0854 0.28476 0.0
H677 H 0.53612 0.08215 0.29856 0.0
H678 H 0.60893 0.06966 0.28141 0.0
H679 H 0.56936 0.06 0.2951 0.0
H680 H 0.53922 0.09601 0.1899 0.0
H681 H 0.5044 0.0954 0.20505 0.0
H682 H 0.5945 0.11584 0.19137 0.0
H683 H 0.6242 0.10461 0.20399 0.0
C684 C 0.47593 0.95423 0.7771 0.0
C685 C 0.46702 0.96875 0.75884 0.0
C686 C 0.52303 0.98055 0.74035 0.0
C687 C 0.53257 0.96724 0.75894 0.0
N688 N 0.52229 0.94796 0.79647 0.0
N689 N 0.48398 0.00077 0.7245 0.0
C690 C 0.51015 0.95585 0.77774 0.0
C691 C 0.49136 0.98379 0.74099 0.0
N692 N 0.45155 0.9387 0.79377 0.0
N693 N 0.54291 0.98784 0.72158 0.0
H694 H 0.4599 0.0015 0.72351 0.0
H695 H 0.50268 0.01624 0.7125 0.0
H696 H 0.56602 0.98537 0.72023 0.0
H697 H 0.53501 0.99352 0.70672 0.0
H698 H 0.4543 0.92357 0.80619 0.0
H699 H 0.42737 0.93933 0.79465 0.0
H700 H 0.50901 0.94299 0.8114 0.0
H701 H 0.54749 0.94946 0.79761 0.0
C702 C 0.08086 0.53845 0.77466 0.0
C703 C 0.09102 0.52758 0.75529 0.0
C704 C 0.10299 0.58369 0.73701 0.0
C705 C 0.09253 0.5945 0.75632 0.0
N706 N 0.06575 0.58047 0.79218 0.0
N707 N 0.1041 0.53519 0.71681 0.0
C708 C 0.07943 0.57119 0.77471 0.0
C709 C 0.09991 0.5489 0.73609 0.0
N710 N 0.07432 0.51835 0.79326 0.0
N711 N 0.1162 0.60689 0.71963 0.0
H712 H 0.10181 0.50966 0.71552 0.0
H713 H 0.10674 0.54752 0.70175 0.0
H714 H 0.1165 0.63153 0.71901 0.0
H715 H 0.12859 0.60269 0.70618 0.0
H716 H 0.0708 0.52676 0.80855 0.0
H717 H 0.07467 0.494 0.79374 0.0
H718 H 0.05224 0.56303 0.80511 0.0
H719 H 0.06571 0.60494 0.79313 0.0
C720 C 0.49314 0.5275 0.74784 0.0
C721 C 0.46614 0.52081 0.76363 0.0
C722 C 0.50708 0.57938 0.78085 0.0
C723 C 0.53097 0.58856 0.7628 0.0
N724 N 0.54354 0.57327 0.72708 0.0
N725 N 0.44682 0.54006 0.79542 0.0
C726 C 0.52343 0.56304 0.74583 0.0
C727 C 0.47296 0.54671 0.78024 0.0
N728 N 0.49001 0.50015 0.7347 0.0
N729 N 0.51765 0.60112 0.79893 0.0
H730 H 0.4228 0.51516 0.79667 0.0
H731 H 0.44827 0.55971 0.80617 0.0
H732 H 0.54301 0.62456 0.80026 0.0
H733 H 0.50291 0.59413 0.81341 0.0
H734 H 0.51069 0.50297 0.72433 0.0
H735 H 0.46864 0.47356 0.73582 0.0
H736 H 0.53655 0.55679 0.71329 0.0
H737 H 0.56496 0.59947 0.72428 0.0
C738 C 0.61991 0.80965 0.59629 0.0
C739 C 0.63349 0.80015 0.5778 0.0
C740 C 0.64589 0.85638 0.55935 0.0
C741 C 0.63282 0.8661 0.57798 0.0
N742 N 0.61419 0.85633 0.61564 0.0
N743 N 0.66483 0.81624 0.54332 0.0
C744 C 0.6217 0.84392 0.59688 0.0
C745 C 0.64841 0.82423 0.55986 0.0
N746 N 0.60499 0.7857 0.61323 0.0
N747 N 0.65409 0.8769 0.54082 0.0
H748 H 0.66572 0.79218 0.54269 0.0
H749 H 0.67974 0.83437 0.53095 0.0
H750 H 0.65274 0.90069 0.53986 0.0
H751 H 0.65983 0.86923 0.5259 0.0
H752 H 0.59044 0.7888 0.62587 0.0
H753 H 0.60559 0.76152 0.61421 0.0
H754 H 0.60987 0.84349 0.63068 0.0
H755 H 0.61518 0.88129 0.61668 0.0
C756 C 0.20942 0.81463 0.55536 0.0
C757 C 0.18885 0.80233 0.57485 0.0
C758 C 0.23291 0.85793 0.59375 0.0
C759 C 0.25541 0.86823 0.57498 0.0
N760 N 0.26663 0.85672 0.53811 0.0
N761 N 0.18217 0.80967 0.6133 0.0
C762 C 0.24406 0.84668 0.55581 0.0
C763 C 0.20059 0.8235 0.59419 0.0
N764 N 0.19519 0.79625 0.53629 0.0
N765 N 0.24268 0.88085 0.61127 0.0
H766 H 0.15855 0.78445 0.61445 0.0
H767 H 0.19163 0.82177 0.62845 0.0
H768 H 0.26721 0.90525 0.61218 0.0
H769 H 0.22549 0.87698 0.62434 0.0
H770 H 0.20697 0.80567 0.52107 0.0
H771 H 0.16981 0.77276 0.53539 0.0
H772 H 0.26216 0.84005 0.52467 0.0
H773 H 0.29102 0.88134 0.53723 0.0
C774 C 0.25745 0.45411 0.59243 0.0
C775 C 0.26342 0.43483 0.57555 0.0
C776 C 0.20253 0.41448 0.56091 0.0
C777 C 0.19777 0.43614 0.57675 0.0
N778 N 0.22111 0.47889 0.60655 0.0
N779 N 0.24402 0.39969 0.54245 0.0
C780 C 0.22545 0.45678 0.59214 0.0
C781 C 0.23647 0.41556 0.55953 0.0
N782 N 0.28147 0.46817 0.6094 0.0
N783 N 0.17462 0.39297 0.54714 0.0
H784 H 0.2684 0.39962 0.54107 0.0
H785 H 0.22739 0.38879 0.52886 0.0
H786 H 0.15031 0.39335 0.5465 0.0
H787 H 0.17461 0.37324 0.5371 0.0
H788 H 0.27673 0.47889 0.62345 0.0
H789 H 0.305 0.46639 0.61042 0.0
H790 H 0.24203 0.49821 0.61617 0.0
H791 H 0.19699 0.47947 0.60815 0.0
C792 C 0.04554 0.35343 0.15962 0.0
C793 C 0.01874 0.33522 0.14337 0.0
C794 C 0.97162 0.33109 0.16803 0.0
C795 C 0.99875 0.35186 0.18376 0.0
N796 N 0.06209 0.38826 0.19321 0.0
N797 N 0.95741 0.31193 0.13044 0.0
C798 C 0.03593 0.3645 0.17923 0.0
C799 C 0.98219 0.32593 0.14702 0.0
N800 N 0.08004 0.35975 0.1564 0.0
N801 N 0.93563 0.31421 0.17357 0.0
H802 H 0.96353 0.30623 0.115 0.0
H803 H 0.9315 0.30868 0.13143 0.0
H804 H 0.92632 0.31614 0.18893 0.0
H805 H 0.91497 0.29522 0.16365 0.0
H806 H 0.09972 0.36905 0.16858 0.0
H807 H 0.0884 0.35355 0.14182 0.0
H808 H 0.08975 0.40131 0.18976 0.0
H809 H 0.05607 0.39749 0.20749 0.0
C810 C 0.69073 0.70108 0.15809 0.0
C811 C 0.72459 0.71026 0.14843 0.0
C812 C 0.74188 0.68903 0.18089 0.0
C813 C 0.7069 0.67681 0.18975 0.0
N814 N 0.64614 0.66673 0.18609 0.0
N815 N 0.7789 0.70549 0.14844 0.0
C816 C 0.68073 0.68163 0.17819 0.0
C817 C 0.74921 0.70215 0.15922 0.0
N818 N 0.66881 0.71203 0.14848 0.0
N819 N 0.76855 0.68919 0.19345 0.0
H820 H 0.78471 0.71384 0.13225 0.0
H821 H 0.79563 0.69633 0.15475 0.0
H822 H 0.76448 0.68047 0.20962 0.0
H823 H 0.79561 0.70132 0.1886 0.0
H824 H 0.64563 0.70957 0.15585 0.0
H825 H 0.67523 0.72605 0.13371 0.0
H826 H 0.62475 0.66584 0.17732 0.0
H827 H 0.63822 0.65292 0.20093 0.0
C828 C 0.37957 0.07912 0.1482 0.0
C829 C 0.3509 0.04313 0.14483 0.0
C830 C 0.36078 0.02584 0.18124 0.0
C831 C 0.38632 0.06279 0.18561 0.0
N832 N 0.41602 0.1258 0.17434 0.0
N833 N 0.31178 0.98245 0.15826 0.0
C834 C 0.39501 0.08976 0.16931 0.0
C835 C 0.34077 0.01653 0.16141 0.0
N836 N 0.39179 0.10337 0.13131 0.0
N837 N 0.35681 -0.00051 0.19559 0.0
H838 H 0.29788 0.97398 0.14348 0.0
H839 H 0.30022 0.96324 0.17064 0.0
H840 H 0.37176 0.00519 0.20998 0.0
H841 H 0.34132 0.97181 0.19234 0.0
H842 H 0.41543 0.12858 0.13209 0.0
H843 H 0.38003 0.09732 0.11585 0.0
H844 H 0.41943 0.14666 0.16396 0.0
H845 H 0.42747 0.13533 0.18962 0.0
C846 C 0.35846 0.00538 0.85193 0.0
C847 C 0.33883 0.0243 0.85304 0.0
C848 C 0.33633 0.02512 0.81311 0.0
C849 C 0.3573 0.00765 0.81204 0.0
N850 N 0.39763 0.99164 0.8302 0.0
N851 N 0.31913 0.0617 0.83473 0.0
C852 C 0.37145 0.00126 0.83141 0.0
C853 C 0.33108 0.0373 0.83361 0.0
N854 N 0.3626 0.98901 0.87002 0.0
N855 N 0.31931 0.02802 0.79495 0.0
H856 H 0.31589 0.07194 0.84947 0.0
H857 H 0.31634 0.07468 0.82107 0.0
H858 H 0.3213 0.0186 0.77963 0.0
H859 H 0.30041 0.0368 0.79551 0.0
H860 H 0.37317 0.97158 0.86938 0.0
H861 H 0.3524 0.98977 0.88531 0.0
H862 H 0.41129 0.98989 0.84384 0.0
H863 H 0.40852 0.9894 0.81541 0.0
C864 C 0.08675 0.37271 0.82202 0.0
C865 C 0.06265 0.38152 0.81125 0.0
C866 C 0.01806 0.3526 0.84064 0.0
C867 C 0.0435 0.34656 0.85213 0.0
N868 N 0.10471 0.3577 0.85611 0.0
N869 N 0.00769 0.38485 0.81138 0.0
C870 C 0.07864 0.35861 0.8435 0.0
C871 C 0.02885 0.3728 0.82082 0.0
N872 N 0.11667 0.37632 0.81138 0.0
N873 N 0.98334 0.33802 0.84827 0.0
H874 H 0.01472 0.39954 0.79684 0.0
H875 H 0.98465 0.38274 0.81874 0.0
H876 H 0.97477 0.32357 0.86287 0.0
H877 H 0.96241 0.33801 0.83945 0.0
H878 H 0.13312 0.36675 0.81759 0.0
H879 H 0.12309 0.38555 0.79536 0.0
H880 H 0.13185 0.36958 0.85149 0.0
H881 H 0.10008 0.3483 0.87214 0.0
C882 C 0.6712 0.67809 0.82935 0.0
C883 C 0.679 0.70524 0.81345 0.0
C884 C 0.71698 0.75247 0.83954 0.0
C885 C 0.71236 0.72537 0.85477 0.0
N886 N 0.6899 0.66214 0.86298 0.0
N887 N 0.71543 0.76755 0.80176 0.0
C888 C 0.69069 0.68801 0.84941 0.0
C889 C 0.70401 0.74218 0.81799 0.0
N890 N 0.64498 0.64299 0.82534 0.0
N891 N 0.73167 0.78785 0.84601 0.0
H892 H 0.70679 0.76111 0.78566 0.0
H893 H 0.73632 0.79425 0.80381 0.0
H894 H 0.73911 0.79621 0.86209 0.0
H895 H 0.73241 0.8081 0.8361 0.0
H896 H 0.63514 0.62274 0.83719 0.0
H897 H 0.63149 0.6346 0.81042 0.0
H898 H 0.67752 0.63474 0.85888 0.0
H899 H 0.70428 0.6684 0.8776 0.0
C900 C 0.07829 0.75478 0.84394 0.0
C901 C 0.04638 0.72838 0.8547 0.0
C902 C 0.03478 0.68497 0.82515 0.0
C903 C 0.06495 0.71251 0.81365 0.0
N904 N 0.11141 0.77538 0.80998 0.0
N905 N 0.99152 0.67005 0.8547 0.0
C906 C 0.08556 0.74794 0.82245 0.0
C907 C 0.02385 0.69383 0.84512 0.0
N908 N 0.10254 0.7858 0.85463 0.0
N909 N 0.01738 0.6502 0.81734 0.0
H910 H 0.9829 0.67559 0.86939 0.0
H911 H 0.97207 0.64604 0.84738 0.0
H912 H 0.02435 0.643 0.80261 0.0
H913 H 0.99779 0.62809 0.8261 0.0
H914 H 0.12808 0.80421 0.84848 0.0
H915 H 0.09877 0.79151 0.87062 0.0
H916 H 0.12458 0.80257 0.81463 0.0
H917 H 0.11735 0.77155 0.79403 0.0
C918 C 0.36553 0.36655 0.82338 0.0
C919 C 0.33967 0.37211 0.81201 0.0
C920 C 0.29699 0.3461 0.84236 0.0
C921 C 0.32167 0.33804 0.85312 0.0
N922 N 0.37694 0.33531 0.85279 0.0
N923 N 0.27834 0.36056 0.80831 0.0
C924 C 0.35533 0.34682 0.84335 0.0
C925 C 0.30464 0.35989 0.82081 0.0
N926 N 0.40013 0.38123 0.81551 0.0
N927 N 0.26702 0.34215 0.8531 0.0
H928 H 0.28279 0.36994 0.79226 0.0
H929 H 0.25124 0.3486 0.81304 0.0
H930 H 0.26089 0.3331 0.86916 0.0
H931 H 0.25014 0.35121 0.84691 0.0
H932 H 0.42135 0.38169 0.82425 0.0
H933 H 0.40829 0.39526 0.80076 0.0
H934 H 0.39993 0.33747 0.84532 0.0
H935 H 0.37035 0.321 0.86746 0.0
C936 C 0.7062 0.03692 0.84392 0.0
C937 C 0.70986 0.01015 0.85561 0.0
C938 C 0.68168 0.96709 0.8256 0.0
C939 C 0.6754 0.99278 0.81452 0.0
N940 N 0.67673 0.05012 0.81424 0.0
N941 N 0.695 0.94782 0.8598 0.0
C942 C 0.68636 0.02724 0.82395 0.0
C943 C 0.69578 0.97465 0.84709 0.0
N944 N 0.72265 0.07178 0.85154 0.0
N945 N 0.67581 0.93612 0.81523 0.0
H946 H 0.70489 0.9522 0.87573 0.0
H947 H 0.68147 0.92051 0.85538 0.0
H948 H 0.6662 0.92968 0.79931 0.0
H949 H 0.6838 0.91848 0.82157 0.0
H950 H 0.72447 0.09346 0.84263 0.0
H951 H 0.73673 0.07952 0.8663 0.0
H952 H 0.68054 0.07395 0.82143 0.0
H953 H 0.66232 0.0439 0.79961 0.0
C954 C 0.76037 0.06342 0.16427 0.0
C955 C 0.7334 0.04316 0.14835 0.0
C956 C 0.6865 0.0416 0.17242 0.0
C957 C 0.71312 0.05944 0.18883 0.0
N958 N 0.77425 0.08215 0.20196 0.0
N959 N 0.6701 0.00715 0.1387 0.0
C960 C 0.74963 0.06844 0.18529 0.0
C961 C 0.69621 0.03068 0.15278 0.0
N962 N 0.79642 0.08002 0.15892 0.0
N963 N 0.65202 0.03543 0.17553 0.0
H964 H 0.67613 0.9979 0.12443 0.0
H965 H 0.64241 0.9942 0.14207 0.0
H966 H 0.64347 0.04131 0.19015 0.0
H967 H 0.63254 0.02652 0.16324 0.0
H968 H 0.81704 0.09874 0.16896 0.0
H969 H 0.80589 0.07815 0.1436 0.0
H970 H 0.80005 0.08508 0.20107 0.0
H971 H 0.76815 0.08801 0.21736 0.0
C972 C 0.97206 0.69934 0.15641 0.0
C973 C 0.00652 0.71012 0.1471 0.0
C974 C 0.02157 0.68346 0.17803 0.0
C975 C 0.98855 0.67586 0.18822 0.0
N976 N 0.93523 0.68221 0.18908 0.0
N977 N 0.06626 0.71714 0.15002 0.0
C978 C 0.96452 0.68529 0.17794 0.0
C979 C 0.03189 0.70334 0.15812 0.0
N980 N 0.94605 0.7014 0.14438 0.0
N981 N 0.04243 0.67066 0.18701 0.0
H982 H 0.07472 0.73166 0.13545 0.0
H983 H 0.0872 0.71663 0.15852 0.0
H984 H 0.03578 0.65621 0.20163 0.0
H985 H 0.06472 0.67185 0.17918 0.0
H986 H 0.91919 0.69036 0.14943 0.0
H987 H 0.95029 0.71104 0.1284 0.0
H988 H 0.91897 0.6923 0.18331 0.0
H989 H 0.92905 0.67263 0.20505 0.0
C990 C 0.36505 0.36126 0.15259 0.0
C991 C 0.34443 0.32412 0.14655 0.0
C992 C 0.35359 0.30593 0.18282 0.0
C993 C 0.37704 0.34294 0.18814 0.0
N994 N 0.40885 0.40599 0.1776 0.0
N995 N 0.32645 0.26156 0.15398 0.0
C996 C 0.38401 0.37069 0.17283 0.0
C997 C 0.34056 0.29652 0.16117 0.0
N998 N 0.36523 0.38733 0.13947 0.0
N999 N 0.34376 0.27966 0.19841 0.0
H1000 H 0.31847 0.25383 0.13788 0.0
H1001 H 0.32641 0.24103 0.16326 0.0
H1002 H 0.35344 0.28519 0.21437 0.0
H1003 H 0.32364 0.25273 0.19601 0.0
H1004 H 0.3766 0.41445 0.14404 0.0
H1005 H 0.35135 0.38141 0.12467 0.0
H1006 H 0.41827 0.42691 0.16621 0.0
H1007 H 0.42177 0.41407 0.1927 0.0
C1008 C 0.65637 0.64427 0.51991 0.0
C1009 C 0.66643 0.68117 0.523 0.0
C1010 C 0.69366 0.696 0.48654 0.0
C1011 C 0.67966 0.65842 0.4825 0.0
N1012 N 0.64186 0.59604 0.49408 0.0
N1013 N 0.69171 0.742 0.50904 0.0
C1014 C 0.65974 0.63233 0.49891 0.0
C1015 C 0.68422 0.70703 0.50623 0.0
N1016 N 0.64324 0.62046 0.537 0.0
N1017 N 0.71717 0.72118 0.47202 0.0
H1018 H 0.68693 0.75138 0.52369 0.0
H1019 H 0.70068 0.76109 0.49653 0.0
H1020 H 0.72546 0.71416 0.45773 0.0
H1021 H 0.73106 0.749 0.47504 0.0
H1022 H 0.63954 0.59434 0.53633 0.0
H1023 H 0.63892 0.62761 0.5525 0.0
H1024 H 0.62339 0.57614 0.50459 0.0
H1025 H 0.64243 0.58571 0.47879 0.0
C1026 C 0.35862 0.02613 0.48514 0.0
C1027 C 0.3958 0.04706 0.47924 0.0
C1028 C 0.41375 0.03773 0.51554 0.0
C1029 C 0.37677 0.01381 0.52063 0.0
N1030 N 0.31388 0.98153 0.50981 0.0
N1031 N 0.45844 0.06557 0.48695 0.0
C1032 C 0.34912 0.00682 0.50526 0.0
C1033 C 0.42335 0.05108 0.49396 0.0
N1034 N 0.33256 0.02593 0.472 0.0
N1035 N 0.4398 0.04772 0.53128 0.0
H1036 H 0.46637 0.07377 0.4709 0.0
H1037 H 0.47894 0.06573 0.49632 0.0
H1038 H 0.43404 0.03797 0.54722 0.0
H1039 H 0.46669 0.06807 0.52904 0.0
H1040 H 0.30538 0.01426 0.47648 0.0
H1041 H 0.33855 0.04011 0.45731 0.0
H1042 H 0.29308 0.97218 0.49833 0.0
H1043 H 0.30579 0.96816 0.52478 0.0
C1044 C 0.05076 0.4137 0.47894 0.0
C1045 C 0.02054 0.37845 0.476 0.0
C1046 C 0.02786 0.36215 0.51325 0.0
C1047 C 0.05474 0.39888 0.51715 0.0
N1048 N 0.08746 0.46121 0.5045 0.0
N1049 N 0.9784 0.31931 0.49027 0.0
C1050 C 0.06542 0.42505 0.50015 0.0
C1051 C 0.00854 0.35267 0.49315 0.0
N1052 N 0.06521 0.43666 0.46154 0.0
N1053 N 0.02184 0.33613 0.52839 0.0
H1054 H 0.96507 0.31077 0.47532 0.0
H1055 H 0.96559 0.3009 0.50291 0.0
H1056 H 0.03623 0.34193 0.543 0.0
H1057 H 0.0051 0.30843 0.52565 0.0
H1058 H 0.08977 0.46104 0.46225 0.0
H1059 H 0.0545 0.43002 0.44584 0.0
H1060 H 0.09234 0.48167 0.49338 0.0
H1061 H 0.09813 0.47144 0.51983 0.0
C1062 C 0.38155 0.3646 0.51922 0.0
C1063 C 0.36307 0.38467 0.52025 0.0
C1064 C 0.36198 0.38667 0.48032 0.0
C1065 C 0.37899 0.36524 0.47932 0.0
N1066 N 0.39441 0.32461 0.49767 0.0
N1067 N 0.32599 0.40469 0.50189 0.0
C1068 C 0.38527 0.35116 0.49876 0.0
C1069 C 0.35008 0.39235 0.5008 0.0
N1070 N 0.39787 0.36043 0.53732 0.0
N1071 N 0.35933 0.40376 0.46212 0.0
H1072 H 0.31594 0.40823 0.51662 0.0
H1073 H 0.31304 0.40749 0.48822 0.0
H1074 H 0.3687 0.40162 0.44682 0.0
H1075 H 0.35088 0.42291 0.46264 0.0
H1076 H 0.41502 0.34953 0.53672 0.0
H1077 H 0.39734 0.37089 0.55257 0.0
H1078 H 0.39608 0.31104 0.51137 0.0
H1079 H 0.39628 0.31337 0.48293 0.0
C1080 C 0.63525 0.00626 0.50373 0.0
C1081 C 0.66201 0.0121 0.51962 0.0
C1082 C 0.70953 0.05722 0.49576 0.0
C1083 C 0.68304 0.0494 0.47943 0.0
N1084 N 0.62183 0.01241 0.46613 0.0
N1085 N 0.72517 0.03782 0.52923 0.0
C1086 C 0.6463 0.02245 0.48284 0.0
C1087 C 0.69937 0.03621 0.51525 0.0
N1088 N 0.59915 0.98717 0.50899 0.0
N1089 N 0.7443 0.08499 0.49273 0.0
H1090 H 0.71879 0.02219 0.54337 0.0
H1091 H 0.75288 0.05208 0.52588 0.0
H1092 H 0.75305 0.09968 0.47822 0.0
H1093 H 0.76385 0.09489 0.50499 0.0
H1094 H 0.57873 0.98588 0.49901 0.0
H1095 H 0.58946 0.9754 0.52419 0.0
H1096 H 0.59576 0.98993 0.46686 0.0
H1097 H 0.62835 0.02467 0.45081 0.0
C1098 C 0.98461 0.6661 0.49968 0.0
C1099 C 0.00576 0.6753 0.48036 0.0
C1100 C 0.0607 0.70875 0.5024 0.0
C1101 C 0.04016 0.69274 0.52155 0.0
N1102 N 0.98186 0.65233 0.53806 0.0
N1103 N 0.06537 0.70205 0.46369 0.0
C1104 C 0.00181 0.67075 0.52022 0.0
C1105 C 0.04423 0.69621 0.48171 0.0
N1106 N 0.94813 0.65341 0.49841 0.0
N1107 N 0.09588 0.73627 0.50401 0.0
H1108 H 0.05499 0.69224 0.44824 0.0
H1109 H 0.0935 0.71372 0.46451 0.0
H1110 H 0.10825 0.74704 0.51898 0.0
H1111 H 0.11114 0.75104 0.49059 0.0
H1112 H 0.93192 0.64924 0.51207 0.0
H1113 H 0.93499 0.65114 0.48364 0.0
H1114 H 0.95439 0.63285 0.53719 0.0
H1115 H 0.99313 0.65388 0.55336 0.0
C1116 C 0.99366 0.29094 0.01054 0.0
C1117 C 0.02642 0.31576 0.02122 0.0
C1118 C 0.05529 0.34162 0.98612 0.0
C1119 C 0.02303 0.31569 0.97546 0.0
N1120 N 0.95915 0.27225 0.9768 0.0
N1121 N 0.08527 0.36979 0.02024 0.0
C1122 C 0.99137 0.29251 0.98752 0.0
C1123 C 0.05611 0.34306 0.00933 0.0
N1124 N 0.96521 0.26513 0.02243 0.0
N1125 N 0.08574 0.36307 0.97412 0.0
H1126 H 0.087 0.37087 0.03721 0.0
H1127 H 0.1064 0.39239 0.01267 0.0
H1128 H 0.08583 0.36325 0.95712 0.0
H1129 H 0.11135 0.37935 0.98087 0.0
H1130 H 0.94235 0.24328 0.01557 0.0
H1131 H 0.96507 0.26475 0.03944 0.0
H1132 H 0.93428 0.25686 0.98458 0.0
H1133 H 0.95682 0.27332 0.95991 0.0
C1134 C 0.77793 0.74782 0.99112 0.0
C1135 C 0.74602 0.7373 0.97881 0.0
C1136 C 0.71035 0.72032 0.01264 0.0
C1137 C 0.74313 0.73616 0.02476 0.0
N1138 N 0.80872 0.77269 0.02507 0.0
N1139 N 0.6817 0.71587 0.97763 0.0
C1140 C 0.77711 0.75171 0.01392 0.0
C1141 C 0.71196 0.72366 0.98945 0.0
N1142 N 0.80919 0.75406 0.98101 0.0
N1143 N 0.67786 0.70207 0.02329 0.0
H1144 H 0.68185 0.71786 0.96069 0.0
H1145 H 0.657 0.70973 0.98467 0.0
H1146 H 0.67606 0.6997 0.04024 0.0
H1147 H 0.65308 0.68696 0.01534 0.0
H1148 H 0.83216 0.75814 0.98951 0.0
H1149 H 0.8109 0.75139 0.96423 0.0
H1150 H 0.83382 0.78772 0.01742 0.0
H1151 H 0.80962 0.77838 0.04165 0.0
C1152 C 0.27919 0.99214 0.98787 0.0
C1153 C 0.30987 0.01968 0.97671 0.0
C1154 C 0.3403 0.04493 0.0116 0.0
C1155 C 0.30945 0.01731 0.02266 0.0
N1156 N 0.25489 0.95887 0.02143 0.0
N1157 N 0.37251 0.06718 0.97724 0.0
C1158 C 0.28067 0.98901 0.01076 0.0
C1159 C 0.34158 0.04417 0.98837 0.0
N1160 N 0.24798 0.96985 0.97672 0.0
N1161 N 0.36705 0.07321 0.02308 0.0
H1162 H 0.37382 0.06792 0.96025 0.0
H1163 H 0.39751 0.08331 0.98475 0.0
H1164 H 0.36711 0.07483 0.04003 0.0
H1165 H 0.388 0.09632 0.0158 0.0
H1166 H 0.22338 0.95239 0.98429 0.0
H1167 H 0.24588 0.97049 0.95984 0.0
H1168 H 0.23529 0.93562 0.0135 0.0
H1169 H 0.25543 0.95575 0.03824 0.0
C1170 C 0.99599 0.71385 0.99017 0.0
C1171 C 0.02885 0.7337 0.97837 0.0
C1172 C 0.0637 0.75279 0.01231 0.0
C1173 C 0.03066 0.73555 0.02419 0.0
N1174 N 0.9663 0.69344 0.02542 0.0
N1175 N 0.0939 0.76325 0.97718 0.0
C1176 C 0.99707 0.71364 0.0134 0.0
C1177 C 0.06276 0.75023 0.98919 0.0
N1178 N 0.9638 0.69685 0.97908 0.0
N1179 N 0.09577 0.77258 0.02323 0.0
H1180 H 0.09355 0.76095 0.96023 0.0
H1181 H 0.11968 0.77352 0.98388 0.0
H1182 H 0.09735 0.77287 0.0402 0.0
H1183 H 0.12053 0.78945 0.01569 0.0
H1184 H 0.93838 0.68534 0.98642 0.0
H1185 H 0.96258 0.69499 0.96211 0.0
H1186 H 0.94127 0.67487 0.01879 0.0
H1187 H 0.96623 0.69347 0.04241 0.0
C1188 C 0.30982 0.338 0.01172 0.0
C1189 C 0.32161 0.31634 0.02267 0.0
C1190 C 0.33298 0.29574 0.98784 0.0
C1191 C 0.31899 0.31549 0.97691 0.0
N1192 N 0.30225 0.36178 0.97724 0.0
N1193 N 0.3536 0.28313 0.02197 0.0
C1194 C 0.31038 0.33902 0.98851 0.0
C1195 C 0.33635 0.29807 0.01091 0.0
N1196 N 0.29616 0.35576 0.02351 0.0
N1197 N 0.34145 0.27355 0.97619 0.0
H1198 H 0.35678 0.28514 0.03888 0.0
H1199 H 0.36743 0.27166 0.01445 0.0
H1200 H 0.34093 0.27266 0.95918 0.0
H1201 H 0.34758 0.25501 0.98326 0.0
H1202 H 0.28299 0.36842 0.01664 0.0
H1203 H 0.29678 0.35667 0.0405 0.0
H1204 H 0.29839 0.38169 0.98452 0.0
H1205 H 0.30213 0.36259 0.96024 0.0
C1206 C 0.71656 0.99572 0.98994 0.0
C1207 C 0.7394 0.02861 0.97876 0.0
C1208 C 0.75786 0.06148 0.01345 0.0
C1209 C 0.74015 0.02781 0.0246 0.0
N1210 N 0.701 0.96292 0.02436 0.0
N1211 N 0.78011 0.09323 0.97903 0.0
C1212 C 0.71827 0.99495 0.01313 0.0
C1213 C 0.75915 0.06176 0.99029 0.0
N1214 N 0.6939 0.96526 0.97829 0.0
N1215 N 0.77315 0.09308 0.02516 0.0
H1216 H 0.77963 0.09463 0.96205 0.0
H1217 H 0.79883 0.11763 0.98629 0.0
H1218 H 0.77199 0.09342 0.04215 0.0
H1219 H 0.78414 0.11876 0.01821 0.0
H1220 H 0.6744 0.94099 0.9853 0.0
H1221 H 0.69274 0.96503 0.9613 0.0
H1222 H 0.68819 0.93745 0.01702 0.0
H1223 H 0.70058 0.96174 0.04134 0.0
C1224 C 0.65554 0.63038 0.32461 0.0
C1225 C 0.68861 0.65074 0.3131 0.0
C1226 C 0.72215 0.67248 0.34742 0.0
C1227 C 0.68941 0.65011 0.35886 0.0
N1228 N 0.62416 0.61611 0.35943 0.0
N1229 N 0.75149 0.69749 0.3126 0.0
C1230 C 0.65576 0.63186 0.34773 0.0
C1231 C 0.72129 0.67423 0.32425 0.0
N1232 N 0.62428 0.60851 0.31336 0.0
N1233 N 0.75419 0.69009 0.35862 0.0
H1234 H 0.75159 0.69871 0.29561 0.0
H1235 H 0.77552 0.71741 0.31963 0.0
H1236 H 0.75544 0.69032 0.3756 0.0
H1237 H 0.77961 0.70328 0.35123 0.0
H1238 H 0.60011 0.58943 0.32069 0.0
H1239 H 0.6229 0.60853 0.29637 0.0
H1240 H 0.59847 0.60471 0.35245 0.0
H1241 H 0.62381 0.61731 0.37643 0.0
C1242 C 0.41753 0.04827 0.34471 0.0
C1243 C 0.40224 0.06676 0.3557 0.0
C1244 C 0.38208 0.07893 0.32092 0.0
C1245 C 0.40295 0.06629 0.30995 0.0
N1246 N 0.43809 0.03619 0.31037 0.0
N1247 N 0.36758 0.09741 0.35523 0.0
C1248 C 0.41935 0.04941 0.32154 0.0
C1249 C 0.38305 0.08073 0.34409 0.0
N1250 N 0.43033 0.02984 0.3566 0.0
N1251 N 0.36167 0.08936 0.30902 0.0
H1252 H 0.36647 0.09758 0.37221 0.0
H1253 H 0.35689 0.11205 0.34784 0.0
H1254 H 0.36063 0.08807 0.29201 0.0
H1255 H 0.34367 0.09648 0.31579 0.0
H1256 H 0.43976 0.01367 0.34982 0.0
H1257 H 0.42885 0.0285 0.37359 0.0
H1258 H 0.45436 0.02737 0.31771 0.0
H1259 H 0.43814 0.03502 0.29338 0.0
C1260 C 0.99316 0.3469 0.34234 0.0
C1261 C 0.98697 0.37271 0.35336 0.0
C1262 C 0.99055 0.40277 0.31865 0.0
C1263 C 0.98987 0.3734 0.30749 0.0
N1264 N 0.99073 0.31727 0.30793 0.0
N1265 N 0.97752 0.42426 0.35195 0.0
C1266 C 0.99202 0.34571 0.31909 0.0
C1267 C 0.98541 0.40064 0.34152 0.0
N1268 N 0.99913 0.32304 0.35404 0.0
N1269 N 0.99632 0.43283 0.30724 0.0
H1270 H 0.97412 0.42419 0.36874 0.0
H1271 H 0.97172 0.44227 0.34383 0.0
H1272 H 0.00082 0.43518 0.29043 0.0
H1273 H 0.00038 0.45666 0.31458 0.0
H1274 H 0.00718 0.30587 0.34705 0.0
H1275 H 0.99853 0.32213 0.37103 0.0
H1276 H 0.98777 0.29394 0.31537 0.0
H1277 H 0.99093 0.31629 0.29094 0.0
C1278 C 0.73624 0.10554 0.3456 0.0
C1279 C 0.70378 0.08354 0.3573 0.0
C1280 C 0.6718 0.05575 0.32319 0.0
C1281 C 0.7026 0.0818 0.31146 0.0
N1282 N 0.76456 0.131 0.31075 0.0
N1283 N 0.6404 0.03788 0.35801 0.0
C1284 C 0.73514 0.10629 0.32247 0.0
C1285 C 0.67161 0.05808 0.34636 0.0
N1286 N 0.76811 0.12538 0.35674 0.0
N1287 N 0.64259 0.02933 0.31214 0.0
H1288 H 0.63954 0.03835 0.37499 0.0
H1289 H 0.61496 0.02208 0.35095 0.0
H1290 H 0.6416 0.02762 0.29517 0.0
H1291 H 0.62055 0.00753 0.31968 0.0
H1292 H 0.79342 0.13978 0.3493 0.0
H1293 H 0.76961 0.12493 0.37371 0.0
H1294 H 0.78748 0.15267 0.3177 0.0
H1295 H 0.76551 0.13068 0.29375 0.0
C1296 C 0.97053 0.67477 0.34596 0.0
C1297 C 0.98867 0.65961 0.3575 0.0
C1298 C 0.00848 0.64547 0.32325 0.0
C1299 C 0.98803 0.6581 0.31176 0.0
N1300 N 0.95809 0.69333 0.31101 0.0
N1301 N 0.03283 0.64007 0.35805 0.0
C1302 C 0.972 0.67581 0.32281 0.0
C1303 C 0.01059 0.6484 0.34639 0.0
N1304 N 0.95076 0.68673 0.35721 0.0
N1305 N 0.02404 0.6289 0.31209 0.0
H1306 H 0.03478 0.64227 0.375 0.0
H1307 H 0.05148 0.63407 0.35101 0.0
H1308 H 0.02395 0.6276 0.2951 0.0
H1309 H 0.03573 0.61523 0.31955 0.0
H1310 H 0.93322 0.694 0.34992 0.0
H1311 H 0.95114 0.68832 0.3742 0.0
H1312 H 0.94816 0.70901 0.3179 0.0
H1313 H 0.95924 0.69455 0.29401 0.0
C1314 C 0.4137 0.3941 0.34582 0.0
C1315 C 0.39608 0.36003 0.35654 0.0
C1316 C 0.37585 0.32868 0.32145 0.0
C1317 C 0.39864 0.36207 0.31083 0.0
N1318 N 0.43738 0.42695 0.31179 0.0
N1319 N 0.35763 0.29515 0.35561 0.0
C1320 C 0.41645 0.39507 0.32269 0.0
C1321 C 0.37576 0.32737 0.34463 0.0
N1322 N 0.42818 0.4253 0.35788 0.0
N1323 N 0.35474 0.29838 0.30925 0.0
H1324 H 0.35534 0.29388 0.37257 0.0
H1325 H 0.34557 0.26977 0.34818 0.0
H1326 H 0.35451 0.29894 0.29224 0.0
H1327 H 0.33561 0.27345 0.31573 0.0
H1328 H 0.43919 0.45117 0.35121 0.0
H1329 H 0.42671 0.42516 0.37486 0.0
H1330 H 0.45463 0.45157 0.31937 0.0
H1331 H 0.43834 0.42853 0.2948 0.0
C1332 C 0.33072 0.97674 0.67843 0.0
C1333 C 0.36463 0.99081 0.68926 0.0
C1334 C 0.39643 0.00439 0.65428 0.0
C1335 C 0.36247 0.98887 0.64347 0.0
N1336 N 0.29874 0.96918 0.64425 0.0
N1337 N 0.42967 0.02734 0.6882 0.0
C1338 C 0.33007 0.97824 0.65527 0.0
C1339 C 0.39753 0.00777 0.67734 0.0
N1340 N 0.29917 0.95986 0.69016 0.0
N1341 N 0.42739 0.01455 0.64253 0.0
H1342 H 0.43078 0.03098 0.70507 0.0
H1343 H 0.45462 0.04275 0.68049 0.0
H1344 H 0.42769 0.01411 0.62552 0.0
H1345 H 0.45239 0.02184 0.64958 0.0
H1346 H 0.27357 0.94502 0.68311 0.0
H1347 H 0.29861 0.95902 0.70714 0.0
H1348 H 0.27472 0.96403 0.65182 0.0
H1349 H 0.29772 0.96999 0.62727 0.0
C1350 C 0.05488 0.42562 0.6764 0.0
C1351 C 0.0691 0.4064 0.68769 0.0
C1352 C 0.08181 0.38599 0.65315 0.0
C1353 C 0.06963 0.40706 0.64187 0.0
N1354 N 0.03605 0.43875 0.64179 0.0
N1355 N 0.08774 0.36154 0.68779 0.0
C1356 C 0.05321 0.4241 0.65326 0.0
C1357 C 0.07949 0.38402 0.67632 0.0
N1358 N 0.0445 0.44652 0.68786 0.0
N1359 N 0.09777 0.36997 0.64181 0.0
H1360 H 0.08666 0.36012 0.70479 0.0
H1361 H 0.09275 0.3423 0.68061 0.0
H1362 H 0.09905 0.37015 0.62483 0.0
H1363 H 0.11117 0.35789 0.64912 0.0
H1364 H 0.03817 0.46484 0.68068 0.0
H1365 H 0.04354 0.44651 0.70486 0.0
H1366 H 0.02102 0.44919 0.64898 0.0
H1367 H 0.03427 0.43759 0.62481 0.0
C1368 C 0.64885 0.66877 0.67924 0.0
C1369 C 0.64954 0.69787 0.69096 0.0
C1370 C 0.65755 0.7311 0.65687 0.0
C1371 C 0.65065 0.69967 0.64511 0.0
N1372 N 0.63946 0.63829 0.64431 0.0
N1373 N 0.65416 0.75678 0.69141 0.0
C1374 C 0.64699 0.66862 0.65604 0.0
C1375 C 0.65426 0.72929 0.67991 0.0
N1376 N 0.64917 0.64106 0.69033 0.0
N1377 N 0.66747 0.76272 0.6459 0.0
H1378 H 0.65335 0.75708 0.70837 0.0
H1379 H 0.6529 0.7783 0.68423 0.0
H1380 H 0.67038 0.76479 0.62897 0.0
H1381 H 0.67606 0.78758 0.65352 0.0
H1382 H 0.65194 0.62061 0.68283 0.0
H1383 H 0.64946 0.64 0.70731 0.0
H1384 H 0.63215 0.61327 0.65132 0.0
H1385 H 0.63869 0.63762 0.62732 0.0
C1386 C 0.34176 0.38198 0.678 0.0
C1387 C 0.36967 0.41204 0.68944 0.0
C1388 C 0.39635 0.44301 0.65506 0.0
C1389 C 0.36837 0.41324 0.64352 0.0
N1390 N 0.31954 0.35118 0.64324 0.0
N1391 N 0.42908 0.4653 0.689 0.0
C1392 C 0.34297 0.38144 0.65476 0.0
C1393 C 0.39883 0.4406 0.67794 0.0
N1394 N 0.31286 0.35535 0.68913 0.0
N1395 N 0.41969 0.47428 0.64429 0.0
H1396 H 0.43168 0.46384 0.7058 0.0
H1397 H 0.4528 0.48474 0.6814 0.0
H1398 H 0.41943 0.47698 0.62744 0.0
H1399 H 0.43769 0.49838 0.65216 0.0
H1400 H 0.28959 0.33508 0.68158 0.0
H1401 H 0.31103 0.3547 0.70608 0.0
H1402 H 0.30265 0.32607 0.65043 0.0
H1403 H 0.31913 0.35044 0.62624 0.0
C1404 C 0.65703 0.95537 0.67725 0.0
C1405 C 0.65193 0.98103 0.68931 0.0
C1406 C 0.65055 0.01069 0.65527 0.0
C1407 C 0.65454 0.98426 0.64343 0.0
N1408 N 0.6724 0.93891 0.6426 0.0
N1409 N 0.65127 0.03736 0.6905 0.0
C1410 C 0.66151 0.95915 0.65433 0.0
C1411 C 0.65159 0.01042 0.67853 0.0
N1412 N 0.65593 0.9264 0.68761 0.0
N1413 N 0.64371 0.03459 0.64427 0.0
H1414 H 0.65066 0.03718 0.70749 0.0
H1415 H 0.65416 0.06112 0.68375 0.0
H1416 H 0.64408 0.03608 0.62729 0.0
H1417 H 0.63625 0.05182 0.6518 0.0
H1418 H 0.655 0.90443 0.67951 0.0
H1419 H 0.65353 0.92316 0.70443 0.0
H1420 H 0.681 0.92224 0.64966 0.0
H1421 H 0.67618 0.9416 0.62574 0.0
C1422 C 0.07909 0.72593 0.67918 0.0
C1423 C 0.0737 0.69432 0.69027 0.0
C1424 C 0.06489 0.66247 0.65559 0.0
C1425 C 0.07143 0.6944 0.64446 0.0
N1426 N 0.07659 0.75337 0.64491 0.0
N1427 N 0.05258 0.63021 0.69001 0.0
C1428 C 0.07553 0.72503 0.65607 0.0
C1429 C 0.06363 0.66177 0.67872 0.0
N1430 N 0.08994 0.75735 0.69057 0.0
N1431 N 0.06128 0.63335 0.644 0.0
H1432 H 0.05103 0.62895 0.707 0.0
H1433 H 0.04196 0.60483 0.68268 0.0
H1434 H 0.06 0.63219 0.62702 0.0
H1435 H 0.06119 0.61105 0.65107 0.0
H1436 H 0.09858 0.78245 0.68327 0.0
H1437 H 0.09223 0.7588 0.70752 0.0
H1438 H 0.07635 0.77521 0.65241 0.0
H1439 H 0.07473 0.75358 0.62796 0.0
C1440 C 0.87616 0.15607 0.10476 0.0
C1441 C 0.86988 0.12837 0.08953 0.0
C1442 C 0.92852 0.16837 0.0721 0.0
C1443 C 0.93625 0.19458 0.08863 0.0
N1444 N 0.92035 0.21181 0.12254 0.0
N1445 N 0.89069 0.10644 0.05964 0.0
C1446 C 0.91079 0.18811 0.10542 0.0
C1447 C 0.89637 0.13394 0.07356 0.0
N1448 N 0.84901 0.15187 0.11852 0.0
N1449 N 0.95092 0.17714 0.05437 0.0
H1450 H 0.86636 0.08179 0.05888 0.0
H1451 H 0.91082 0.10723 0.04961 0.0
H1452 H 0.97439 0.20233 0.05248 0.0
H1453 H 0.94471 0.16082 0.04058 0.0
H1454 H 0.85056 0.17269 0.12823 0.0
H1455 H 0.82368 0.12835 0.11911 0.0
H1456 H 0.90454 0.20672 0.13647 0.0
H1457 H 0.94566 0.23532 0.12377 0.0
C1458 C 0.92419 0.78549 0.10606 0.0
C1459 C 0.93441 0.77277 0.08746 0.0
C1460 C 0.87639 0.75612 0.06997 0.0
C1461 C 0.86758 0.77181 0.08768 0.0
N1462 N 0.88474 0.80577 0.12133 0.0
N1463 N 0.92395 0.75329 0.04989 0.0
C1464 C 0.89217 0.78815 0.10525 0.0
C1465 C 0.91154 0.76012 0.06888 0.0
N1466 N 0.94369 0.79279 0.12496 0.0
N1467 N 0.85102 0.73684 0.05436 0.0
H1468 H 0.94997 0.75689 0.04823 0.0
H1469 H 0.90992 0.74763 0.03519 0.0
H1470 H 0.8251 0.73364 0.05433 0.0
H1471 H 0.85461 0.72147 0.04243 0.0
H1472 H 0.93527 0.79821 0.13972 0.0
H1473 H 0.96664 0.79009 0.12652 0.0
H1474 H 0.90354 0.82175 0.13316 0.0
H1475 H 0.86065 0.80658 0.122 0.0
C1476 C 0.27944 0.13309 0.10827 0.0
C1477 C 0.28703 0.12001 0.08883 0.0
C1478 C 0.29644 0.17422 0.06912 0.0
C1479 C 0.28652 0.18608 0.08819 0.0
N1480 N 0.2633 0.17479 0.12498 0.0
N1481 N 0.29635 0.12433 0.0499 0.0
C1482 C 0.27621 0.16478 0.10746 0.0
C1483 C 0.29396 0.13961 0.06901 0.0
N1484 N 0.27724 0.11632 0.12771 0.0
N1485 N 0.30819 0.19603 0.05108 0.0
H1486 H 0.29399 0.09874 0.04905 0.0
H1487 H 0.29749 0.13545 0.0346 0.0
H1488 H 0.30783 0.2203 0.04992 0.0
H1489 H 0.3202 0.19115 0.03769 0.0
H1490 H 0.27582 0.12685 0.14276 0.0
H1491 H 0.28007 0.09341 0.12905 0.0
H1492 H 0.25155 0.15831 0.13855 0.0
H1493 H 0.26181 0.19852 0.12534 0.0
C1494 C 0.1686 0.91815 0.89347 0.0
C1495 C 0.19531 0.92551 0.90967 0.0
C1496 C 0.15337 0.86914 0.92858 0.0
C1497 C 0.12746 0.86075 0.9118 0.0
N1498 N 0.11323 0.87302 0.87583 0.0
N1499 N 0.21639 0.9031 0.93929 0.0
C1500 C 0.13575 0.88413 0.89357 0.0
C1501 C 0.18884 0.89941 0.92611 0.0
N1502 N 0.17477 0.94345 0.87778 0.0
N1503 N 0.14356 0.84941 0.94747 0.0
H1504 H 0.24292 0.92457 0.93815 0.0
H1505 H 0.21375 0.88287 0.94997 0.0
H1506 H 0.1174 0.82791 0.95032 0.0
H1507 H 0.16016 0.85674 0.96121 0.0
H1508 H 0.15459 0.94183 0.86744 0.0
H1509 H 0.19981 0.967 0.87562 0.0
H1510 H 0.11974 0.88706 0.86111 0.0
H1511 H 0.08936 0.84795 0.87501 0.0
C1512 C 0.16911 0.28231 0.89337 0.0
C1513 C 0.18982 0.29194 0.91287 0.0
C1514 C 0.14388 0.30077 0.93157 0.0
C1515 C 0.12405 0.29282 0.91177 0.0
N1516 N 0.12071 0.28307 0.87291 0.0
N1517 N 0.20033 0.31525 0.94963 0.0
C1518 C 0.13741 0.28542 0.8924 0.0
C1519 C 0.17835 0.30292 0.93167 0.0
N1520 N 0.17967 0.27005 0.87577 0.0
N1521 N 0.1289 0.30437 0.95049 0.0
H1522 H 0.22482 0.31529 0.9508 0.0
H1523 H 0.19557 0.32766 0.96285 0.0
H1524 H 0.10357 0.30262 0.95116 0.0
H1525 H 0.1401 0.30622 0.96585 0.0
H1526 H 0.16345 0.25836 0.8621 0.0
H1527 H 0.20392 0.26953 0.87525 0.0
H1528 H 0.13141 0.28187 0.85787 0.0
H1529 H 0.0976 0.28555 0.8715 0.0
C1530 C 0.75779 0.87432 0.93117 0.0
C1531 C 0.76801 0.86339 0.91179 0.0
C1532 C 0.77428 0.91685 0.89264 0.0
C1533 C 0.76684 0.92917 0.91243 0.0
N1534 N 0.75718 0.92313 0.95131 0.0
N1535 N 0.79082 0.87624 0.8749 0.0
C1536 C 0.75989 0.90875 0.9319 0.0
C1537 C 0.77789 0.88536 0.89279 0.0
N1538 N 0.74629 0.85191 0.94896 0.0
N1539 N 0.77604 0.93419 0.87351 0.0
H1540 H 0.79245 0.85262 0.87395 0.0
H1541 H 0.80238 0.89332 0.86154 0.0
H1542 H 0.77293 0.95698 0.87266 0.0
H1543 H 0.77728 0.9242 0.85823 0.0
H1544 H 0.73402 0.85608 0.96247 0.0
H1545 H 0.74709 0.82783 0.94983 0.0
H1546 H 0.75617 0.91151 0.96641 0.0
H1547 H 0.75903 0.94846 0.9526 0.0
C1548 C 0.54935 0.46182 0.40602 0.0
C1549 C 0.5223 0.45505 0.42183 0.0
C1550 C 0.56159 0.51449 0.4387 0.0
C1551 C 0.58907 0.52086 0.42327 0.0
N1552 N 0.60765 0.50452 0.39002 0.0
N1553 N 0.50342 0.47178 0.45481 0.0
C1554 C 0.58271 0.49541 0.40642 0.0
C1555 C 0.52844 0.48071 0.43848 0.0
N1556 N 0.54313 0.43587 0.39073 0.0
N1557 N 0.56703 0.54102 0.45336 0.0
H1558 H 0.47889 0.44729 0.45528 0.0
H1559 H 0.50772 0.48723 0.4688 0.0
H1560 H 0.59147 0.56539 0.45477 0.0
H1561 H 0.5468 0.54014 0.46332 0.0
H1562 H 0.56295 0.43668 0.38044 0.0
H1563 H 0.51809 0.41224 0.3888 0.0
H1564 H 0.6035 0.48911 0.37604 0.0
H1565 H 0.632 0.52917 0.38944 0.0
C1566 C 0.58767 0.11371 0.44107 0.0
C1567 C 0.60073 0.10548 0.42186 0.0
C1568 C 0.5452 0.09261 0.40237 0.0
C1569 C 0.53363 0.10382 0.42104 0.0
N1570 N 0.5454 0.12955 0.45722 0.0
N1571 N 0.5952 0.09275 0.38326 0.0
C1572 C 0.55543 0.1159 0.44008 0.0
C1573 C 0.5803 0.09623 0.40225 0.0
N1574 N 0.60504 0.11754 0.4605 0.0
N1575 N 0.52267 0.07858 0.38474 0.0
H1576 H 0.62111 0.09588 0.38238 0.0
H1577 H 0.58333 0.08988 0.36801 0.0
H1578 H 0.49774 0.07764 0.38361 0.0
H1579 H 0.52758 0.06582 0.37178 0.0
H1580 H 0.59465 0.11957 0.47547 0.0
H1581 H 0.62829 0.11534 0.462 0.0
H1582 H 0.5622 0.1426 0.47048 0.0
H1583 H 0.52122 0.13021 0.45754 0.0
C1584 C 0.98988 0.49725 0.40669 0.0
C1585 C 0.97058 0.47024 0.42278 0.0
C1586 C 0.94751 0.50766 0.43885 0.0
C1587 C 0.96599 0.53426 0.42248 0.0
N1588 N 0.00749 0.55691 0.39206 0.0
N1589 N 0.93936 0.45355 0.45726 0.0
C1590 C 0.98823 0.5299 0.40687 0.0
C1591 C 0.9516 0.47647 0.4397 0.0
N1592 N 0.00852 0.49106 0.39068 0.0
N1593 N 0.9261 0.51226 0.45369 0.0
H1594 H 0.94332 0.43134 0.45887 0.0
H1595 H 0.92848 0.45825 0.47124 0.0
H1596 H 0.92513 0.53619 0.45512 0.0
H1597 H 0.90797 0.49182 0.46404 0.0
H1598 H 0.01862 0.50672 0.37667 0.0
H1599 H 0.0133 0.46937 0.39092 0.0
H1600 H 0.02789 0.55806 0.38216 0.0
H1601 H 0.00409 0.57935 0.39005 0.0
C1602 C 0.82079 0.20636 0.22664 0.0
C1603 C 0.79482 0.20043 0.24299 0.0
C1604 C 0.83419 0.26153 0.25756 0.0
C1605 C 0.86119 0.26657 0.24211 0.0
N1606 N 0.88297 0.24224 0.21412 0.0
N1607 N 0.77902 0.21896 0.27647 0.0
C1608 C 0.85539 0.23843 0.22736 0.0
C1609 C 0.802 0.22716 0.25908 0.0
N1610 N 0.81177 0.1821 0.20987 0.0
N1611 N 0.83939 0.28951 0.27092 0.0
H1612 H 0.75548 0.19384 0.27839 0.0
H1613 H 0.78478 0.23573 0.29001 0.0
H1614 H 0.86365 0.31423 0.27161 0.0
H1615 H 0.81893 0.28903 0.2805 0.0
H1616 H 0.82802 0.18673 0.19619 0.0
H1617 H 0.7865 0.15854 0.20862 0.0
H1618 H 0.88173 0.22116 0.20483 0.0
H1619 H 0.90831 0.26577 0.21357 0.0
C1620 C 0.8446 0.63456 0.26796 0.0
C1621 C 0.85663 0.62566 0.24855 0.0
C1622 C 0.80358 0.61924 0.2288 0.0
C1623 C 0.79015 0.62529 0.24859 0.0
N1624 N 0.79485 0.63434 0.28752 0.0
N1625 N 0.84699 0.60672 0.21087 0.0
C1626 C 0.80998 0.63209 0.26831 0.0
C1627 C 0.83587 0.61706 0.22909 0.0
N1628 N 0.86623 0.6452 0.2861 0.0
N1629 N 0.78635 0.61729 0.20958 0.0
H1630 H 0.87167 0.60713 0.20989 0.0
H1631 H 0.83094 0.59576 0.19706 0.0
H1632 H 0.76262 0.61874 0.20869 0.0
H1633 H 0.79694 0.61717 0.1943 0.0
H1634 H 0.86127 0.65639 0.29987 0.0
H1635 H 0.89049 0.64478 0.28704 0.0
H1636 H 0.80598 0.63528 0.30278 0.0
H1637 H 0.76948 0.63248 0.28847 0.0
C1638 C 0.45276 0.25705 0.26296 0.0
C1639 C 0.43484 0.26466 0.246 0.0
C1640 C 0.41635 0.20582 0.22888 0.0
C1641 C 0.43479 0.19834 0.24561 0.0
N1642 N 0.46593 0.21341 0.28019 0.0
N1643 N 0.40541 0.25035 0.21094 0.0
C1644 C 0.45215 0.22324 0.26299 0.0
C1645 C 0.41796 0.24002 0.22852 0.0
N1646 N 0.47056 0.28239 0.2789 0.0
N1647 N 0.39675 0.17995 0.21355 0.0
H1648 H 0.40704 0.2756 0.20988 0.0
H1649 H 0.39622 0.2355 0.19657 0.0
H1650 H 0.39608 0.15517 0.21263 0.0
H1651 H 0.37913 0.18178 0.20254 0.0
H1652 H 0.48758 0.28078 0.29046 0.0
H1653 H 0.4697 0.30641 0.28015 0.0
H1654 H 0.47604 0.22848 0.29441 0.0
H1655 H 0.46519 0.18856 0.28106 0.0
C1656 C 0.24823 0.84976 0.7342 0.0
C1657 C 0.26717 0.86376 0.75412 0.0
C1658 C 0.21993 0.81134 0.77411 0.0
C1659 C 0.20129 0.79707 0.75414 0.0
N1660 N 0.19442 0.80329 0.71564 0.0
N1661 N 0.27333 0.85808 0.79278 0.0
C1662 C 0.21446 0.81654 0.73431 0.0
C1663 C 0.25364 0.84457 0.77402 0.0
N1664 N 0.2637 0.86725 0.71505 0.0
N1665 N 0.20423 0.79405 0.79326 0.0
H1666 H 0.2967 0.88354 0.79371 0.0
H1667 H 0.26766 0.84375 0.80735 0.0
H1668 H 0.17949 0.7698 0.79397 0.0
H1669 H 0.21412 0.80456 0.80866 0.0
H1670 H 0.25342 0.85708 0.69966 0.0
H1671 H 0.28856 0.89137 0.7143 0.0
H1672 H 0.19994 0.81775 0.70113 0.0
H1673 H 0.17079 0.77802 0.71477 0.0
C1674 C 0.24903 0.43658 0.77376 0.0
C1675 C 0.26367 0.4319 0.75405 0.0
C1676 C 0.21062 0.42451 0.73382 0.0
C1677 C 0.19756 0.43231 0.7532 0.0
N1678 N 0.20526 0.449 0.79126 0.0
N1679 N 0.26165 0.42645 0.71486 0.0
C1680 C 0.21713 0.43944 0.77306 0.0
C1681 C 0.24522 0.42694 0.73395 0.0
N1682 N 0.26464 0.43651 0.79325 0.0
N1683 N 0.19002 0.41492 0.71526 0.0
H1684 H 0.28714 0.42855 0.71424 0.0
H1685 H 0.25154 0.42697 0.6995 0.0
H1686 H 0.16566 0.41513 0.71404 0.0
H1687 H 0.19584 0.40459 0.70142 0.0
H1688 H 0.25299 0.43556 0.80833 0.0
H1689 H 0.28792 0.43429 0.79446 0.0
H1690 H 0.22057 0.45888 0.80544 0.0
H1691 H 0.18084 0.44916 0.79188 0.0
C1692 C 0.65603 0.8227 0.74708 0.0
C1693 C 0.6285 0.79336 0.75927 0.0
C1694 C 0.60716 0.83364 0.77308 0.0
C1695 C 0.63065 0.86095 0.75825 0.0
N1696 N 0.67699 0.88123 0.73034 0.0
N1697 N 0.5777 0.77061 0.78416 0.0
C1698 C 0.6553 0.85563 0.74525 0.0
C1699 C 0.60388 0.79871 0.77226 0.0
N1700 N 0.68326 0.81954 0.73732 0.0
N1701 N 0.58983 0.84189 0.78896 0.0
H1702 H 0.5768 0.74584 0.78621 0.0
H1703 H 0.55588 0.77134 0.79135 0.0
H1704 H 0.59335 0.86781 0.79099 0.0
H1705 H 0.57522 0.82437 0.80165 0.0
H1706 H 0.70663 0.84156 0.731 0.0
H1707 H 0.68437 0.7957 0.73681 0.0
H1708 H 0.69065 0.87628 0.71792 0.0
H1709 H 0.68009 0.90699 0.72945 0.0
C1710 C 0.50546 0.58777 0.55896 0.0
C1711 C 0.52869 0.59708 0.57735 0.0
C1712 C 0.49022 0.53622 0.59246 0.0
C1713 C 0.46408 0.52902 0.57593 0.0
N1714 N 0.44616 0.54799 0.54337 0.0
N1715 N 0.54004 0.58244 0.61348 0.0
C1716 C 0.47145 0.55493 0.55921 0.0
C1717 C 0.52039 0.57186 0.59456 0.0
N1718 N 0.51674 0.60928 0.54078 0.0
N1719 N 0.48666 0.50919 0.60605 0.0
H1720 H 0.56157 0.60868 0.61611 0.0
H1721 H 0.53264 0.56635 0.62744 0.0
H1722 H 0.46542 0.48253 0.60501 0.0
H1723 H 0.50687 0.51233 0.61692 0.0
H1724 H 0.50269 0.60202 0.52606 0.0
H1725 H 0.542 0.63286 0.53964 0.0
H1726 H 0.44784 0.56765 0.53256 0.0
H1727 H 0.42258 0.52287 0.54156 0.0
C1728 C 0.48279 0.97562 0.56118 0.0
C1729 C 0.4568 0.95603 0.57761 0.0
C1730 C 0.49658 0.9353 0.59287 0.0
C1731 C 0.5238 0.95744 0.57758 0.0
N1732 N 0.5454 0.00323 0.5494 0.0
N1733 N 0.44086 0.92223 0.61128 0.0
C1734 C 0.51775 0.97912 0.56246 0.0
C1735 C 0.46406 0.93699 0.594 0.0
N1736 N 0.47344 0.98937 0.54379 0.0
N1737 N 0.50191 0.91288 0.60647 0.0
H1738 H 0.41704 0.92339 0.6129 0.0
H1739 H 0.44662 0.91157 0.62499 0.0
H1740 H 0.52631 0.91272 0.60734 0.0
H1741 H 0.48142 0.89286 0.616 0.0
H1742 H 0.48991 0.00073 0.53016 0.0
H1743 H 0.44763 0.9862 0.54192 0.0
H1744 H 0.54372 0.02255 0.53982 0.0
H1745 H 0.57116 0.00598 0.54938 0.0
C1746 C 0.07812 0.57606 0.56031 0.0
C1747 C 0.09586 0.60136 0.57739 0.0
C1748 C 0.11194 0.55951 0.59495 0.0
C1749 C 0.0973 0.53575 0.57683 0.0
N1750 N 0.06943 0.5223 0.54124 0.0
N1751 N 0.13179 0.61911 0.61029 0.0
C1752 C 0.08088 0.54409 0.5593 0.0
C1753 C 0.11354 0.5937 0.59447 0.0
N1754 N 0.05862 0.5826 0.54504 0.0
N1755 N 0.12245 0.5485 0.61314 0.0
H1756 H 0.13138 0.64337 0.61149 0.0
H1757 H 0.14905 0.61718 0.62155 0.0
H1758 H 0.12092 0.52331 0.61435 0.0
H1759 H 0.12958 0.56274 0.6278 0.0
H1760 H 0.04144 0.56338 0.53377 0.0
H1761 H 0.05776 0.60666 0.54441 0.0
H1762 H 0.06126 0.529 0.52683 0.0
H1763 H 0.07043 0.49839 0.54002 0.0
loop_
_geom_bond_atom_site_label_1
_geom_bond_atom_site_label_2
_geom_bond_distance
_geom_bond_site_symmetry_2
_ccdc_geom_bond_type
In0 O1 2.294 . S
In0 O2 2.326 . S
In0 O6 2.266 . S
In0 O7 2.326 . S
In0 O8 2.266 1_455 S
In0 O9 2.326 1_455 S
In0 O11 2.294 . S
In0 O12 2.326 . S
O1 In0 2.294 . S
O1 C10 1.240 . S
O2 In0 2.326 . S
O2 C10 1.252 . S
C3 O6 1.252 . S
C3 O7 1.260 . S
C4 O11 1.240 . S
C4 O12 1.252 . S
C5 O8 1.252 . S
C5 O9 1.260 . S
O6 In0 2.266 . S
O6 C3 1.252 . S
O7 In0 2.326 . S
O7 C3 1.260 . S
O8 In0 2.266 1_655 S
O8 C5 1.252 . S
O9 In0 2.326 1_655 S
O9 C5 1.260 . S
C10 O1 1.240 . S
C10 O2 1.252 . S
O11 In0 2.294 . S
O11 C4 1.240 . S
O12 In0 2.326 . S
O12 C4 1.252 . S
In13 O14 2.294 . S
In13 O15 2.326 . S
In13 O19 2.266 . S
In13 O20 2.326 . S
In13 O21 2.266 . S
In13 O22 2.326 . S
In13 O24 2.294 . S
In13 O25 2.326 . S
O14 In13 2.294 . S
O14 C23 1.240 . S
O15 In13 2.326 . S
O15 C23 1.252 . S
C16 O19 1.252 . S
C16 O20 1.260 . S
C17 O24 1.240 . S
C17 O25 1.252 . S
C18 O21 1.252 . S
C18 O22 1.260 . S
O19 In13 2.266 . S
O19 C16 1.252 . S
O20 In13 2.326 . S
O20 C16 1.260 . S
O21 In13 2.266 . S
O21 C18 1.252 . S
O22 In13 2.326 . S
O22 C18 1.260 . S
C23 O14 1.240 . S
C23 O15 1.252 . S
O24 In13 2.294 . S
O24 C17 1.240 . S
O25 In13 2.326 . S
O25 C17 1.252 . S
In26 O27 2.294 . S
In26 O28 2.326 . S
In26 O32 2.266 . S
In26 O33 2.326 . S
In26 O34 2.266 . S
In26 O35 2.326 . S
In26 O37 2.294 1_545 S
In26 O38 2.326 1_545 S
O27 In26 2.294 . S
O27 C36 1.240 . S
O28 In26 2.326 . S
O28 C36 1.252 . S
C29 O32 1.252 . S
C29 O33 1.260 . S
C30 O37 1.240 . S
C30 O38 1.252 . S
C31 O34 1.252 . S
C31 O35 1.260 . S
O32 In26 2.266 . S
O32 C29 1.252 . S
O33 In26 2.326 . S
O33 C29 1.260 . S
O34 In26 2.266 . S
O34 C31 1.252 . S
O35 In26 2.326 . S
O35 C31 1.260 . S
C36 O27 1.240 . S
C36 O28 1.252 . S
O37 In26 2.294 1_565 S
O37 C30 1.240 . S
O38 In26 2.326 1_565 S
O38 C30 1.252 . S
In39 O40 2.294 . S
In39 O41 2.326 . S
In39 O45 2.266 1_545 S
In39 O46 2.326 1_545 S
In39 O47 2.266 . S
In39 O48 2.326 . S
In39 O50 2.294 . S
In39 O51 2.326 . S
O40 In39 2.294 . S
O40 C49 1.240 . S
O41 In39 2.326 . S
O41 C49 1.252 . S
C42 O45 1.252 . S
C42 O46 1.260 . S
C43 O50 1.240 . S
C43 O51 1.252 . S
C44 O47 1.252 . S
C44 O48 1.260 . S
O45 In39 2.266 1_565 S
O45 C42 1.252 . S
O46 In39 2.326 1_565 S
O46 C42 1.260 . S
O47 In39 2.266 . S
O47 C44 1.252 . S
O48 In39 2.326 . S
O48 C44 1.260 . S
C49 O40 1.240 . S
C49 O41 1.252 . S
O50 In39 2.294 . S
O50 C43 1.240 . S
O51 In39 2.326 . S
O51 C43 1.252 . S
In52 O53 2.294 . S
In52 O54 2.326 . S
In52 O58 2.266 . S
In52 O59 2.326 . S
In52 O60 2.266 . S
In52 O61 2.326 . S
In52 O63 2.294 1_455 S
In52 O64 2.326 1_455 S
O53 In52 2.294 . S
O53 C62 1.240 . S
O54 In52 2.326 . S
O54 C62 1.252 . S
C55 O58 1.252 . S
C55 O59 1.260 . S
C56 O63 1.240 . S
C56 O64 1.252 . S
C57 O60 1.252 . S
C57 O61 1.260 . S
O58 In52 2.266 . S
O58 C55 1.252 . S
O59 In52 2.326 . S
O59 C55 1.260 . S
O60 In52 2.266 . S
O60 C57 1.252 . S
O61 In52 2.326 . S
O61 C57 1.260 . S
C62 O53 1.240 . S
C62 O54 1.252 . S
O63 In52 2.294 1_655 S
O63 C56 1.240 . S
O64 In52 2.326 1_655 S
O64 C56 1.252 . S
In65 O66 2.294 . S
In65 O67 2.326 . S
In65 O71 2.266 . S
In65 O72 2.326 . S
In65 O73 2.266 . S
In65 O74 2.326 . S
In65 O76 2.294 . S
In65 O77 2.326 . S
O66 In65 2.294 . S
O66 C75 1.240 . S
O67 In65 2.326 . S
O67 C75 1.252 . S
C68 O71 1.252 . S
C68 O72 1.260 . S
C69 O76 1.240 . S
C69 O77 1.252 . S
C70 O73 1.252 . S
C70 O74 1.260 . S
O71 In65 2.266 . S
O71 C68 1.252 . S
O72 In65 2.326 . S
O72 C68 1.260 . S
O73 In65 2.266 . S
O73 C70 1.252 . S
O74 In65 2.326 . S
O74 C70 1.260 . S
C75 O66 1.240 . S
C75 O67 1.252 . S
O76 In65 2.294 . S
O76 C69 1.240 . S
O77 In65 2.326 . S
O77 C69 1.252 . S
In78 O79 2.294 1_455 S
In78 O80 2.326 1_455 S
In78 O84 2.266 . S
In78 O85 2.326 . S
In78 O86 2.266 . S
In78 O87 2.326 . S
In78 O89 2.294 . S
In78 O90 2.326 . S
O79 In78 2.294 1_655 S
O79 C88 1.240 . S
O80 In78 2.326 1_655 S
O80 C88 1.252 . S
C81 O84 1.252 . S
C81 O85 1.260 . S
C82 O89 1.240 . S
C82 O90 1.252 . S
C83 O86 1.252 . S
C83 O87 1.260 . S
O84 In78 2.266 . S
O84 C81 1.252 . S
O85 In78 2.326 . S
O85 C81 1.260 . S
O86 In78 2.266 . S
O86 C83 1.252 . S
O87 In78 2.326 . S
O87 C83 1.260 . S
C88 O79 1.240 . S
C88 O80 1.252 . S
O89 In78 2.294 . S
O89 C82 1.240 . S
O90 In78 2.326 . S
O90 C82 1.252 . S
In91 O92 2.294 . S
In91 O93 2.326 . S
In91 O97 2.266 . S
In91 O98 2.326 . S
In91 O99 2.266 . S
In91 O100 2.326 . S
In91 O102 2.294 . S
In91 O103 2.326 . S
O92 In91 2.294 . S
O92 C101 1.240 . S
O93 In91 2.326 . S
O93 C101 1.252 . S
C94 O97 1.252 . S
C94 O98 1.260 . S
C95 O102 1.240 . S
C95 O103 1.252 . S
C96 O99 1.252 . S
C96 O100 1.260 . S
O97 In91 2.266 . S
O97 C94 1.252 . S
O98 In91 2.326 . S
O98 C94 1.260 . S
O99 In91 2.266 . S
O99 C96 1.252 . S
O100 In91 2.326 . S
O100 C96 1.260 . S
C101 O92 1.240 . S
C101 O93 1.252 . S
O102 In91 2.294 . S
O102 C95 1.240 . S
O103 In91 2.326 . S
O103 C95 1.252 . S
In104 O105 2.294 . S
In104 O106 2.326 . S
In104 O110 2.266 . S
In104 O111 2.326 . S
In104 O112 2.266 1_545 S
In104 O113 2.326 1_545 S
In104 O115 2.294 . S
In104 O116 2.326 . S
O105 In104 2.294 . S
O105 C114 1.240 . S
O106 In104 2.326 . S
O106 C114 1.252 . S
C107 O110 1.252 . S
C107 O111 1.260 . S
C108 O115 1.240 . S
C108 O116 1.252 . S
C109 O112 1.252 . S
C109 O113 1.260 . S
O110 In104 2.266 . S
O110 C107 1.252 . S
O111 In104 2.326 . S
O111 C107 1.260 . S
O112 In104 2.266 1_565 S
O112 C109 1.252 . S
O113 In104 2.326 1_565 S
O113 C109 1.260 . S
C114 O105 1.240 . S
C114 O106 1.252 . S
O115 In104 2.294 . S
O115 C108 1.240 . S
O116 In104 2.326 . S
O116 C108 1.252 . S
In117 O118 2.294 1_545 S
In117 O119 2.326 1_545 S
In117 O123 2.266 . S
In117 O124 2.326 . S
In117 O125 2.266 . S
In117 O126 2.326 . S
In117 O128 2.294 . S
In117 O129 2.326 . S
O118 In117 2.294 1_565 S
O118 C127 1.240 . S
O119 In117 2.326 1_565 S
O119 C127 1.252 . S
C120 O123 1.252 . S
C120 O124 1.260 . S
C121 O128 1.240 . S
C121 O129 1.252 . S
C122 O125 1.252 . S
C122 O126 1.260 . S
O123 In117 2.266 . S
O123 C120 1.252 . S
O124 In117 2.326 . S
O124 C120 1.260 . S
O125 In117 2.266 . S
O125 C122 1.252 . S
O126 In117 2.326 . S
O126 C122 1.260 . S
C127 O118 1.240 . S
C127 O119 1.252 . S
O128 In117 2.294 . S
O128 C121 1.240 . S
O129 In117 2.326 . S
O129 C121 1.252 . S
In130 O131 2.294 . S
In130 O132 2.326 . S
In130 O136 2.266 . S
In130 O137 2.326 . S
In130 O138 2.266 1_455 S
In130 O139 2.326 1_455 S
In130 O141 2.294 . S
In130 O142 2.326 . S
O131 In130 2.294 . S
O131 C140 1.240 . S
O132 In130 2.326 . S
O132 C140 1.252 . S
C133 O136 1.252 . S
C133 O137 1.260 . S
C134 O141 1.240 . S
C134 O142 1.252 . S
C135 O138 1.252 . S
C135 O139 1.260 . S
O136 In130 2.266 . S
O136 C133 1.252 . S
O137 In130 2.326 . S
O137 C133 1.260 . S
O138 In130 2.266 1_655 S
O138 C135 1.252 . S
O139 In130 2.326 1_655 S
O139 C135 1.260 . S
C140 O131 1.240 . S
C140 O132 1.252 . S
O141 In130 2.294 . S
O141 C134 1.240 . S
O142 In130 2.326 . S
O142 C134 1.252 . S
In143 O144 2.294 . S
In143 O145 2.326 . S
In143 O149 2.266 . S
In143 O150 2.326 . S
In143 O151 2.266 . S
In143 O152 2.326 . S
In143 O154 2.294 . S
In143 O155 2.326 . S
O144 In143 2.294 . S
O144 C153 1.240 . S
O145 In143 2.326 . S
O145 C153 1.252 . S
C146 O149 1.252 . S
C146 O150 1.260 . S
C147 O154 1.240 . S
C147 O155 1.252 . S
C148 O151 1.252 . S
C148 O152 1.260 . S
O149 In143 2.266 . S
O149 C146 1.252 . S
O150 In143 2.326 . S
O150 C146 1.260 . S
O151 In143 2.266 . S
O151 C148 1.252 . S
O152 In143 2.326 . S
O152 C148 1.260 . S
C153 O144 1.240 . S
C153 O145 1.252 . S
O154 In143 2.294 . S
O154 C147 1.240 . S
O155 In143 2.326 . S
O155 C147 1.252 . S
In156 O157 2.294 . S
In156 O158 2.326 . S
In156 O162 2.266 . S
In156 O163 2.326 . S
In156 O164 2.266 . S
In156 O165 2.326 . S
In156 O167 2.294 . S
In156 O168 2.326 . S
O157 In156 2.294 . S
O157 C166 1.240 . S
O158 In156 2.326 . S
O158 C166 1.252 . S
C159 O162 1.252 . S
C159 O163 1.260 . S
C160 O167 1.240 . S
C160 O168 1.252 . S
C161 O164 1.252 . S
C161 O165 1.260 . S
O162 In156 2.266 . S
O162 C159 1.252 . S
O163 In156 2.326 . S
O163 C159 1.260 . S
O164 In156 2.266 . S
O164 C161 1.252 . S
O165 In156 2.326 . S
O165 C161 1.260 . S
C166 O157 1.240 . S
C166 O158 1.252 . S
O167 In156 2.294 . S
O167 C160 1.240 . S
O168 In156 2.326 . S
O168 C160 1.252 . S
In169 O170 2.294 . S
In169 O171 2.326 . S
In169 O175 2.266 . S
In169 O176 2.326 . S
In169 O177 2.266 . S
In169 O178 2.326 . S
In169 O180 2.294 . S
In169 O181 2.326 . S
O170 In169 2.294 . S
O170 C179 1.240 . S
O171 In169 2.326 . S
O171 C179 1.252 . S
C172 O175 1.252 . S
C172 O176 1.260 . S
C173 O180 1.240 . S
C173 O181 1.252 . S
C174 O177 1.252 . S
C174 O178 1.260 . S
O175 In169 2.266 . S
O175 C172 1.252 . S
O176 In169 2.326 . S
O176 C172 1.260 . S
O177 In169 2.266 . S
O177 C174 1.252 . S
O178 In169 2.326 . S
O178 C174 1.260 . S
C179 O170 1.240 . S
C179 O171 1.252 . S
O180 In169 2.294 . S
O180 C173 1.240 . S
O181 In169 2.326 . S
O181 C173 1.252 . S
In182 O183 2.294 . S
In182 O184 2.326 . S
In182 O188 2.266 1_655 S
In182 O189 2.326 . S
In182 O190 2.266 . S
In182 O191 2.326 1_655 S
In182 O193 2.294 . S
In182 O194 2.326 . S
O183 In182 2.294 . S
O183 C192 1.240 . S
O184 In182 2.326 . S
O184 C192 1.252 . S
C185 O188 1.252 . S
C185 O189 1.260 1_455 S
C186 O193 1.240 . S
C186 O194 1.252 . S
C187 O190 1.252 . S
C187 O191 1.260 1_655 S
O188 In182 2.266 1_455 S
O188 C185 1.252 . S
O189 In182 2.326 . S
O189 C185 1.260 1_655 S
O190 In182 2.266 . S
O190 C187 1.252 . S
O191 In182 2.326 1_455 S
O191 C187 1.260 1_455 S
C192 O183 1.240 . S
C192 O184 1.252 . S
O193 In182 2.294 . S
O193 C186 1.240 . S
O194 In182 2.326 . S
O194 C186 1.252 . S
In195 O196 2.294 . S
In195 O197 2.327 . S
In195 O201 2.266 . S
In195 O202 2.326 . S
In195 O203 2.234 1_655 S
In195 O204 2.326 . S
In195 O206 2.276 1_655 S
In195 O207 2.326 . S
O196 In195 2.294 . S
O196 C205 1.240 . S
O197 In195 2.327 . S
O197 C205 1.257 . S
C198 O201 1.252 . S
C198 O202 1.260 . S
C199 O206 1.220 1_655 S
C199 O207 1.252 . S
C200 O203 1.235 1_655 S
C200 O204 1.260 . S
O201 In195 2.266 . S
O201 C198 1.252 . S
O202 In195 2.326 . S
O202 C198 1.260 . S
O203 In195 2.234 1_455 S
O203 C200 1.235 1_455 S
O204 In195 2.326 . S
O204 C200 1.260 . S
C205 O196 1.240 . S
C205 O197 1.257 . S
O206 In195 2.276 1_455 S
O206 C199 1.220 1_455 S
O207 In195 2.326 . S
O207 C199 1.252 . S
In208 O209 2.294 . S
In208 O210 2.326 . S
In208 O214 2.266 . S
In208 O215 2.326 . S
In208 O216 2.266 . S
In208 O217 2.326 . S
In208 O219 2.294 . S
In208 O220 2.326 . S
O209 In208 2.294 . S
O209 C218 1.240 . S
O210 In208 2.326 . S
O210 C218 1.252 . S
C211 O214 1.252 . S
C211 O215 1.260 . S
C212 O219 1.240 . S
C212 O220 1.252 . S
C213 O216 1.252 . S
C213 O217 1.260 . S
O214 In208 2.266 . S
O214 C211 1.252 . S
O215 In208 2.326 . S
O215 C211 1.260 . S
O216 In208 2.266 . S
O216 C213 1.252 . S
O217 In208 2.326 . S
O217 C213 1.260 . S
C218 O209 1.240 . S
C218 O210 1.252 . S
O219 In208 2.294 . S
O219 C212 1.240 . S
O220 In208 2.326 . S
O220 C212 1.252 . S
In221 O222 2.294 . S
In221 O223 2.326 . S
In221 O227 2.266 . S
In221 O228 2.326 . S
In221 O229 2.266 . S
In221 O230 2.326 . S
In221 O232 2.294 . S
In221 O233 2.326 . S
O222 In221 2.294 . S
O222 C231 1.240 . S
O223 In221 2.326 . S
O223 C231 1.252 . S
C224 O227 1.252 . S
C224 O228 1.260 . S
C225 O232 1.240 . S
C225 O233 1.252 . S
C226 O229 1.252 . S
C226 O230 1.260 . S
O227 In221 2.266 . S
O227 C224 1.252 . S
O228 In221 2.326 . S
O228 C224 1.260 . S
O229 In221 2.266 . S
O229 C226 1.252 . S
O230 In221 2.326 . S
O230 C226 1.260 . S
C231 O222 1.240 . S
C231 O223 1.252 . S
O232 In221 2.294 . S
O232 C225 1.240 . S
O233 In221 2.326 . S
O233 C225 1.252 . S
In234 O235 2.294 . S
In234 O236 2.326 . S
In234 O240 2.266 . S
In234 O241 2.326 . S
In234 O242 2.266 . S
In234 O243 2.326 . S
In234 O245 2.294 . S
In234 O246 2.326 . S
O235 In234 2.294 . S
O235 C244 1.240 . S
O236 In234 2.326 . S
O236 C244 1.252 . S
C237 O240 1.252 . S
C237 O241 1.260 . S
C238 O245 1.240 . S
C238 O246 1.252 . S
C239 O242 1.252 . S
C239 O243 1.260 . S
O240 In234 2.266 . S
O240 C237 1.252 . S
O241 In234 2.326 . S
O241 C237 1.260 . S
O242 In234 2.266 . S
O242 C239 1.252 . S
O243 In234 2.326 . S
O243 C239 1.260 . S
C244 O235 1.240 . S
C244 O236 1.252 . S
O245 In234 2.294 . S
O245 C238 1.240 . S
O246 In234 2.326 . S
O246 C238 1.252 . S
In247 O248 2.294 . S
In247 O249 2.330 . S
In247 O253 2.266 . S
In247 O254 2.326 . S
In247 O255 2.257 1_655 S
In247 O256 2.326 . S
In247 O258 2.281 1_655 S
In247 O259 2.326 . S
O248 In247 2.294 . S
O248 C257 1.240 . S
O249 In247 2.330 . S
O249 C257 1.254 . S
C250 O253 1.252 . S
C250 O254 1.260 . S
C251 O258 1.232 1_655 S
C251 O259 1.252 . S
C252 O255 1.243 1_655 S
C252 O256 1.260 . S
O253 In247 2.266 . S
O253 C250 1.252 . S
O254 In247 2.326 . S
O254 C250 1.260 . S
O255 In247 2.257 1_455 S
O255 C252 1.243 1_455 S
O256 In247 2.326 . S
O256 C252 1.260 . S
C257 O248 1.240 . S
C257 O249 1.254 . S
O258 In247 2.281 1_455 S
O258 C251 1.232 1_455 S
O259 In247 2.326 . S
O259 C251 1.252 . S
In260 O261 2.294 . S
In260 O262 2.326 . S
In260 O266 2.266 . S
In260 O267 2.326 . S
In260 O268 2.266 . S
In260 O269 2.326 . S
In260 O271 2.294 . S
In260 O272 2.326 . S
O261 In260 2.294 . S
O261 C270 1.240 . S
O262 In260 2.326 . S
O262 C270 1.252 . S
C263 O266 1.252 . S
C263 O267 1.260 . S
C264 O271 1.240 . S
C264 O272 1.252 . S
C265 O268 1.252 . S
C265 O269 1.260 . S
O266 In260 2.266 . S
O266 C263 1.252 . S
O267 In260 2.326 . S
O267 C263 1.260 . S
O268 In260 2.266 . S
O268 C265 1.252 . S
O269 In260 2.326 . S
O269 C265 1.260 . S
C270 O261 1.240 . S
C270 O262 1.252 . S
O271 In260 2.294 . S
O271 C264 1.240 . S
O272 In260 2.326 . S
O272 C264 1.252 . S
In273 O274 2.294 . S
In273 O275 2.326 . S
In273 O279 2.266 . S
In273 O280 2.326 . S
In273 O281 2.266 . S
In273 O282 2.326 . S
In273 O284 2.294 . S
In273 O285 2.326 . S
O274 In273 2.294 . S
O274 C283 1.240 . S
O275 In273 2.326 . S
O275 C283 1.252 . S
C276 O279 1.252 . S
C276 O280 1.260 . S
C277 O284 1.240 . S
C277 O285 1.252 . S
C278 O281 1.252 . S
C278 O282 1.260 . S
O279 In273 2.266 . S
O279 C276 1.252 . S
O280 In273 2.326 . S
O280 C276 1.260 . S
O281 In273 2.266 . S
O281 C278 1.252 . S
O282 In273 2.326 . S
O282 C278 1.260 . S
C283 O274 1.240 . S
C283 O275 1.252 . S
O284 In273 2.294 . S
O284 C277 1.240 . S
O285 In273 2.326 . S
O285 C277 1.252 . S
In286 O287 2.294 . S
In286 O288 2.326 . S
In286 O292 2.266 . S
In286 O293 2.326 . S
In286 O294 2.266 . S
In286 O295 2.326 . S
In286 O297 2.294 . S
In286 O298 2.326 . S
O287 In286 2.294 . S
O287 C296 1.240 . S
O288 In286 2.326 . S
O288 C296 1.252 . S
C289 O292 1.252 . S
C289 O293 1.260 . S
C290 O297 1.240 . S
C290 O298 1.252 . S
C291 O294 1.252 . S
C291 O295 1.260 . S
O292 In286 2.266 . S
O292 C289 1.252 . S
O293 In286 2.326 . S
O293 C289 1.260 . S
O294 In286 2.266 . S
O294 C291 1.252 . S
O295 In286 2.326 . S
O295 C291 1.260 . S
C296 O287 1.240 . S
C296 O288 1.252 . S
O297 In286 2.294 . S
O297 C290 1.240 . S
O298 In286 2.326 . S
O298 C290 1.252 . S
In299 O300 2.294 . S
In299 O301 2.326 . S
In299 O305 2.266 1_655 S
In299 O306 2.326 . S
In299 O307 2.266 . S
In299 O308 2.326 1_655 S
In299 O310 2.294 . S
In299 O311 2.326 . S
O300 In299 2.294 . S
O300 C309 1.240 . S
O301 In299 2.326 . S
O301 C309 1.252 . S
C302 O305 1.252 . S
C302 O306 1.260 1_455 S
C303 O310 1.240 . S
C303 O311 1.252 . S
C304 O307 1.252 . S
C304 O308 1.260 1_655 S
O305 In299 2.266 1_455 S
O305 C302 1.252 . S
O306 In299 2.326 . S
O306 C302 1.260 1_655 S
O307 In299 2.266 . S
O307 C304 1.252 . S
O308 In299 2.326 1_455 S
O308 C304 1.260 1_455 S
C309 O300 1.240 . S
C309 O301 1.252 . S
O310 In299 2.294 . S
O310 C303 1.240 . S
O311 In299 2.326 . S
O311 C303 1.252 . S
In312 O313 2.276 1_565 S
In312 O314 2.326 . S
In312 O318 2.234 1_565 S
In312 O319 2.326 . S
In312 O320 2.266 . S
In312 O321 2.326 . S
In312 O323 2.294 . S
In312 O324 2.327 . S
O313 In312 2.276 1_545 S
O313 C322 1.220 1_545 S
O314 In312 2.326 . S
O314 C322 1.252 . S
C315 O318 1.235 1_565 S
C315 O319 1.260 . S
C316 O323 1.240 . S
C316 O324 1.257 . S
C317 O320 1.252 . S
C317 O321 1.260 . S
O318 In312 2.234 1_545 S
O318 C315 1.235 1_545 S
O319 In312 2.326 . S
O319 C315 1.260 . S
O320 In312 2.266 . S
O320 C317 1.252 . S
O321 In312 2.326 . S
O321 C317 1.260 . S
C322 O313 1.220 1_565 S
C322 O314 1.252 . S
O323 In312 2.294 . S
O323 C316 1.240 . S
O324 In312 2.327 . S
O324 C316 1.257 . S
In325 O326 2.294 . S
In325 O327 2.326 . S
In325 O331 2.266 . S
In325 O332 2.326 . S
In325 O333 2.266 . S
In325 O334 2.326 . S
In325 O336 2.294 . S
In325 O337 2.326 . S
O326 In325 2.294 . S
O326 C335 1.240 . S
O327 In325 2.326 . S
O327 C335 1.252 . S
C328 O331 1.252 . S
C328 O332 1.260 . S
C329 O336 1.240 . S
C329 O337 1.252 . S
C330 O333 1.252 . S
C330 O334 1.260 . S
O331 In325 2.266 . S
O331 C328 1.252 . S
O332 In325 2.326 . S
O332 C328 1.260 . S
O333 In325 2.266 . S
O333 C330 1.252 . S
O334 In325 2.326 . S
O334 C330 1.260 . S
C335 O326 1.240 . S
C335 O327 1.252 . S
O336 In325 2.294 . S
O336 C329 1.240 . S
O337 In325 2.326 . S
O337 C329 1.252 . S
In338 O339 2.294 . S
In338 O340 2.326 . S
In338 O344 2.266 . S
In338 O345 2.326 . S
In338 O346 2.266 . S
In338 O347 2.326 . S
In338 O349 2.294 . S
In338 O350 2.326 . S
O339 In338 2.294 . S
O339 C348 1.240 . S
O340 In338 2.326 . S
O340 C348 1.252 . S
C341 O344 1.252 . S
C341 O345 1.260 . S
C342 O349 1.240 . S
C342 O350 1.252 . S
C343 O346 1.252 . S
C343 O347 1.260 . S
O344 In338 2.266 . S
O344 C341 1.252 . S
O345 In338 2.326 . S
O345 C341 1.260 . S
O346 In338 2.266 . S
O346 C343 1.252 . S
O347 In338 2.326 . S
O347 C343 1.260 . S
C348 O339 1.240 . S
C348 O340 1.252 . S
O349 In338 2.294 . S
O349 C342 1.240 . S
O350 In338 2.326 . S
O350 C342 1.252 . S
In351 O352 2.294 . S
In351 O353 2.326 . S
In351 O357 2.266 . S
In351 O358 2.326 . S
In351 O359 2.266 . S
In351 O360 2.326 . S
In351 O362 2.294 . S
In351 O363 2.326 . S
O352 In351 2.294 . S
O352 C361 1.240 . S
O353 In351 2.326 . S
O353 C361 1.252 . S
C354 O357 1.252 . S
C354 O358 1.260 . S
C355 O362 1.240 . S
C355 O363 1.252 . S
C356 O359 1.252 . S
C356 O360 1.260 . S
O357 In351 2.266 . S
O357 C354 1.252 . S
O358 In351 2.326 . S
O358 C354 1.260 . S
O359 In351 2.266 . S
O359 C356 1.252 . S
O360 In351 2.326 . S
O360 C356 1.260 . S
C361 O352 1.240 . S
C361 O353 1.252 . S
O362 In351 2.294 . S
O362 C355 1.240 . S
O363 In351 2.326 . S
O363 C355 1.252 . S
In364 O365 2.294 . S
In364 O366 2.326 . S
In364 O370 2.266 1_565 S
In364 O371 2.326 . S
In364 O372 2.266 . S
In364 O373 2.326 1_565 S
In364 O375 2.294 . S
In364 O376 2.326 . S
O365 In364 2.294 . S
O365 C374 1.240 . S
O366 In364 2.326 . S
O366 C374 1.252 . S
C367 O370 1.252 . S
C367 O371 1.260 1_545 S
C368 O375 1.240 . S
C368 O376 1.252 . S
C369 O372 1.252 . S
C369 O373 1.260 1_565 S
O370 In364 2.266 1_545 S
O370 C367 1.252 . S
O371 In364 2.326 . S
O371 C367 1.260 1_565 S
O372 In364 2.266 . S
O372 C369 1.252 . S
O373 In364 2.326 1_545 S
O373 C369 1.260 1_545 S
C374 O365 1.240 . S
C374 O366 1.252 . S
O375 In364 2.294 . S
O375 C368 1.240 . S
O376 In364 2.326 . S
O376 C368 1.252 . S
In377 O378 2.294 . S
In377 O379 2.326 . S
In377 O383 2.266 . S
In377 O384 2.326 . S
In377 O385 2.266 . S
In377 O386 2.326 . S
In377 O388 2.294 . S
In377 O389 2.326 . S
O378 In377 2.294 . S
O378 C387 1.240 . S
O379 In377 2.326 . S
O379 C387 1.252 . S
C380 O383 1.252 . S
C380 O384 1.260 . S
C381 O388 1.240 . S
C381 O389 1.252 . S
C382 O385 1.252 . S
C382 O386 1.260 . S
O383 In377 2.266 . S
O383 C380 1.252 . S
O384 In377 2.326 . S
O384 C380 1.260 . S
O385 In377 2.266 . S
O385 C382 1.252 . S
O386 In377 2.326 . S
O386 C382 1.260 . S
C387 O378 1.240 . S
C387 O379 1.252 . S
O388 In377 2.294 . S
O388 C381 1.240 . S
O389 In377 2.326 . S
O389 C381 1.252 . S
In390 O391 2.294 . S
In390 O392 2.326 . S
In390 O396 2.266 . S
In390 O397 2.326 . S
In390 O398 2.266 . S
In390 O399 2.326 . S
In390 O401 2.294 . S
In390 O402 2.326 . S
O391 In390 2.294 . S
O391 C400 1.240 . S
O392 In390 2.326 . S
O392 C400 1.252 . S
C393 O396 1.252 . S
C393 O397 1.260 . S
C394 O401 1.240 . S
C394 O402 1.252 . S
C395 O398 1.252 . S
C395 O399 1.260 . S
O396 In390 2.266 . S
O396 C393 1.252 . S
O397 In390 2.326 . S
O397 C393 1.260 . S
O398 In390 2.266 . S
O398 C395 1.252 . S
O399 In390 2.326 . S
O399 C395 1.260 . S
C400 O391 1.240 . S
C400 O392 1.252 . S
O401 In390 2.294 . S
O401 C394 1.240 . S
O402 In390 2.326 . S
O402 C394 1.252 . S
In403 O404 2.294 . S
In403 O405 2.326 . S
In403 O409 2.266 . S
In403 O410 2.326 1_565 S
In403 O411 2.266 1_565 S
In403 O412 2.326 . S
In403 O414 2.294 . S
In403 O415 2.326 . S
O404 In403 2.294 . S
O404 C413 1.240 . S
O405 In403 2.326 . S
O405 C413 1.252 . S
C406 O409 1.252 . S
C406 O410 1.260 1_565 S
C407 O414 1.240 . S
C407 O415 1.252 . S
C408 O411 1.252 . S
C408 O412 1.260 1_545 S
O409 In403 2.266 . S
O409 C406 1.252 . S
O410 In403 2.326 1_545 S
O410 C406 1.260 1_545 S
O411 In403 2.266 1_545 S
O411 C408 1.252 . S
O412 In403 2.326 . S
O412 C408 1.260 1_565 S
C413 O404 1.240 . S
C413 O405 1.252 . S
O414 In403 2.294 . S
O414 C407 1.240 . S
O415 In403 2.326 . S
O415 C407 1.252 . S
In416 O417 2.294 . S
In416 O418 2.326 . S
In416 O422 2.266 . S
In416 O423 2.326 . S
In416 O424 2.266 . S
In416 O425 2.326 . S
In416 O427 2.294 . S
In416 O428 2.326 . S
O417 In416 2.294 . S
O417 C426 1.240 . S
O418 In416 2.326 . S
O418 C426 1.252 . S
C419 O422 1.252 . S
C419 O423 1.260 . S
C420 O427 1.240 . S
C420 O428 1.252 . S
C421 O424 1.252 . S
C421 O425 1.260 . S
O422 In416 2.266 . S
O422 C419 1.252 . S
O423 In416 2.326 . S
O423 C419 1.260 . S
O424 In416 2.266 . S
O424 C421 1.252 . S
O425 In416 2.326 . S
O425 C421 1.260 . S
C426 O417 1.240 . S
C426 O418 1.252 . S
O427 In416 2.294 . S
O427 C420 1.240 . S
O428 In416 2.326 . S
O428 C420 1.252 . S
In429 O430 2.294 . S
In429 O431 2.326 . S
In429 O435 2.266 . S
In429 O436 2.326 . S
In429 O437 2.266 . S
In429 O438 2.326 . S
In429 O440 2.294 . S
In429 O441 2.326 . S
O430 In429 2.294 . S
O430 C439 1.240 . S
O431 In429 2.326 . S
O431 C439 1.252 . S
C432 O435 1.252 . S
C432 O436 1.260 . S
C433 O440 1.240 . S
C433 O441 1.252 . S
C434 O437 1.252 . S
C434 O438 1.260 . S
O435 In429 2.266 . S
O435 C432 1.252 . S
O436 In429 2.326 . S
O436 C432 1.260 . S
O437 In429 2.266 . S
O437 C434 1.252 . S
O438 In429 2.326 . S
O438 C434 1.260 . S
C439 O430 1.240 . S
C439 O431 1.252 . S
O440 In429 2.294 . S
O440 C433 1.240 . S
O441 In429 2.326 . S
O441 C433 1.252 . S
In442 O443 2.294 . S
In442 O444 2.326 . S
In442 O448 2.266 . S
In442 O449 2.326 . S
In442 O450 2.266 . S
In442 O451 2.326 . S
In442 O453 2.294 . S
In442 O454 2.326 . S
O443 In442 2.294 . S
O443 C452 1.240 . S
O444 In442 2.326 . S
O444 C452 1.252 . S
C445 O448 1.252 . S
C445 O449 1.260 . S
C446 O453 1.240 . S
C446 O454 1.252 . S
C447 O450 1.252 . S
C447 O451 1.260 . S
O448 In442 2.266 . S
O448 C445 1.252 . S
O449 In442 2.326 . S
O449 C445 1.260 . S
O450 In442 2.266 . S
O450 C447 1.252 . S
O451 In442 2.326 . S
O451 C447 1.260 . S
C452 O443 1.240 . S
C452 O444 1.252 . S
O453 In442 2.294 . S
O453 C446 1.240 . S
O454 In442 2.326 . S
O454 C446 1.252 . S
In455 O456 2.294 . S
In455 O457 2.330 . S
In455 O461 2.266 . S
In455 O462 2.326 . S
In455 O463 2.257 1_565 S
In455 O464 2.326 . S
In455 O466 2.281 1_565 S
In455 O467 2.326 . S
O456 In455 2.294 . S
O456 C465 1.240 . S
O457 In455 2.330 . S
O457 C465 1.254 . S
C458 O461 1.252 . S
C458 O462 1.260 . S
C459 O466 1.232 1_565 S
C459 O467 1.252 . S
C460 O463 1.243 1_565 S
C460 O464 1.260 . S
O461 In455 2.266 . S
O461 C458 1.252 . S
O462 In455 2.326 . S
O462 C458 1.260 . S
O463 In455 2.257 1_545 S
O463 C460 1.243 1_545 S
O464 In455 2.326 . S
O464 C460 1.260 . S
C465 O456 1.240 . S
C465 O457 1.254 . S
O466 In455 2.281 1_545 S
O466 C459 1.232 1_545 S
O467 In455 2.326 . S
O467 C459 1.252 . S
C468 C469 1.363 . S
C468 C474 1.379 . S
C468 N476 1.356 . S
C469 C468 1.363 . S
C469 C475 1.363 . S
C470 C471 1.363 . S
C470 C475 1.379 . S
C470 N477 1.356 . S
C471 C470 1.363 . S
C471 C474 1.363 . S
N472 C474 1.356 . S
N472 H484 0.984 . S
N472 H485 0.985 . S
N473 C475 1.356 . S
N473 H478 0.984 . S
N473 H479 0.985 . S
C474 C468 1.379 . S
C474 C471 1.363 . S
C474 N472 1.356 . S
C475 C469 1.363 . S
C475 C470 1.379 . S
C475 N473 1.356 . S
N476 C468 1.356 . S
N476 H482 0.984 . S
N476 H483 0.984 . S
N477 C470 1.356 . S
N477 H480 0.984 . S
N477 H481 0.985 . S
H478 N473 0.984 . S
H479 N473 0.985 . S
H480 N477 0.984 . S
H481 N477 0.985 . S
H482 N476 0.984 . S
H483 N476 0.984 . S
H484 N472 0.984 . S
H485 N472 0.985 . S
C486 C487 1.363 . S
C486 C492 1.379 . S
C486 N494 1.356 . S
C487 C486 1.363 . S
C487 C493 1.363 . S
C488 C489 1.363 . S
C488 C493 1.379 . S
C488 N495 1.356 . S
C489 C488 1.363 . S
C489 C492 1.363 . S
N490 C492 1.356 . S
N490 H502 0.984 . S
N490 H503 0.985 . S
N491 C493 1.356 . S
N491 H496 0.984 . S
N491 H497 0.985 . S
C492 C486 1.379 . S
C492 C489 1.363 . S
C492 N490 1.356 . S
C493 C487 1.363 . S
C493 C488 1.379 . S
C493 N491 1.356 . S
N494 C486 1.356 . S
N494 H500 0.984 . S
N494 H501 0.984 . S
N495 C488 1.356 . S
N495 H498 0.984 . S
N495 H499 0.985 . S
H496 N491 0.984 . S
H497 N491 0.985 . S
H498 N495 0.984 . S
H499 N495 0.985 . S
H500 N494 0.984 . S
H501 N494 0.984 . S
H502 N490 0.984 . S
H503 N490 0.985 . S
C504 C505 1.363 . S
C504 C510 1.379 . S
C504 N512 1.356 . S
C505 C504 1.363 . S
C505 C511 1.363 . S
C506 C507 1.363 . S
C506 C511 1.379 . S
C506 N513 1.356 . S
C507 C506 1.363 . S
C507 C510 1.363 . S
N508 C510 1.356 . S
N508 H520 0.984 . S
N508 H521 0.985 . S
N509 C511 1.356 . S
N509 H514 0.984 . S
N509 H515 0.985 . S
C510 C504 1.379 . S
C510 C507 1.363 . S
C510 N508 1.356 . S
C511 C505 1.363 . S
C511 C506 1.379 . S
C511 N509 1.356 . S
N512 C504 1.356 . S
N512 H518 0.984 . S
N512 H519 0.984 . S
N513 C506 1.356 . S
N513 H516 0.984 . S
N513 H517 0.985 . S
H514 N509 0.984 . S
H515 N509 0.985 . S
H516 N513 0.984 . S
H517 N513 0.985 . S
H518 N512 0.984 . S
H519 N512 0.984 . S
H520 N508 0.984 . S
H521 N508 0.985 . S
C522 C523 1.363 . S
C522 C528 1.379 . S
C522 N530 1.356 . S
C523 C522 1.363 . S
C523 C529 1.363 . S
C524 C525 1.363 . S
C524 C529 1.379 . S
C524 N531 1.356 . S
C525 C524 1.363 . S
C525 C528 1.363 . S
N526 C528 1.356 . S
N526 H538 0.984 . S
N526 H539 0.985 . S
N527 C529 1.356 . S
N527 H532 0.984 . S
N527 H533 0.985 . S
C528 C522 1.379 . S
C528 C525 1.363 . S
C528 N526 1.356 . S
C529 C523 1.363 . S
C529 C524 1.379 . S
C529 N527 1.356 . S
N530 C522 1.356 . S
N530 H536 0.984 . S
N530 H537 0.984 . S
N531 C524 1.356 . S
N531 H534 0.984 . S
N531 H535 0.985 . S
H532 N527 0.984 . S
H533 N527 0.985 . S
H534 N531 0.984 . S
H535 N531 0.985 . S
H536 N530 0.984 . S
H537 N530 0.984 . S
H538 N526 0.984 . S
H539 N526 0.985 . S
C540 C541 1.363 . S
C540 C546 1.379 . S
C540 N548 1.356 . S
C541 C540 1.363 . S
C541 C547 1.363 . S
C542 C543 1.363 . S
C542 C547 1.379 . S
C542 N549 1.356 . S
C543 C542 1.363 . S
C543 C546 1.363 . S
N544 C546 1.356 . S
N544 H556 0.984 . S
N544 H557 0.985 . S
N545 C547 1.356 . S
N545 H550 0.984 . S
N545 H551 0.985 . S
C546 C540 1.379 . S
C546 C543 1.363 . S
C546 N544 1.356 . S
C547 C541 1.363 . S
C547 C542 1.379 . S
C547 N545 1.356 . S
N548 C540 1.356 . S
N548 H554 0.984 . S
N548 H555 0.984 . S
N549 C542 1.356 . S
N549 H552 0.984 . S
N549 H553 0.985 . S
H550 N545 0.984 . S
H551 N545 0.985 . S
H552 N549 0.984 . S
H553 N549 0.985 . S
H554 N548 0.984 . S
H555 N548 0.984 . S
H556 N544 0.984 . S
H557 N544 0.985 . S
C558 C559 1.363 . S
C558 C564 1.379 . S
C558 N566 1.356 . S
C559 C558 1.363 . S
C559 C565 1.363 . S
C560 C561 1.363 . S
C560 C565 1.379 . S
C560 N567 1.356 . S
C561 C560 1.363 . S
C561 C564 1.363 . S
N562 C564 1.356 . S
N562 H574 0.984 . S
N562 H575 0.985 . S
N563 C565 1.356 . S
N563 H568 0.984 . S
N563 H569 0.985 . S
C564 C558 1.379 . S
C564 C561 1.363 . S
C564 N562 1.356 . S
C565 C559 1.363 . S
C565 C560 1.379 . S
C565 N563 1.356 . S
N566 C558 1.356 . S
N566 H572 0.984 . S
N566 H573 0.984 . S
N567 C560 1.356 . S
N567 H570 0.984 . S
N567 H571 0.985 . S
H568 N563 0.984 . S
H569 N563 0.985 . S
H570 N567 0.984 . S
H571 N567 0.985 . S
H572 N566 0.984 . S
H573 N566 0.984 . S
H574 N562 0.984 . S
H575 N562 0.985 . S
C576 C577 1.363 . S
C576 C582 1.379 . S
C576 N584 1.356 . S
C577 C576 1.363 . S
C577 C583 1.363 . S
C578 C579 1.363 . S
C578 C583 1.379 . S
C578 N585 1.356 . S
C579 C578 1.363 . S
C579 C582 1.363 . S
N580 C582 1.356 . S
N580 H592 0.984 . S
N580 H593 0.985 . S
N581 C583 1.356 . S
N581 H586 0.984 . S
N581 H587 0.985 . S
C582 C576 1.379 . S
C582 C579 1.363 . S
C582 N580 1.356 . S
C583 C577 1.363 . S
C583 C578 1.379 . S
C583 N581 1.356 . S
N584 C576 1.356 . S
N584 H590 0.984 . S
N584 H591 0.984 . S
N585 C578 1.356 . S
N585 H588 0.984 . S
N585 H589 0.985 . S
H586 N581 0.984 . S
H587 N581 0.985 . S
H588 N585 0.984 . S
H589 N585 0.985 . S
H590 N584 0.984 . S
H591 N584 0.984 . S
H592 N580 0.984 . S
H593 N580 0.985 . S
C594 C595 1.363 . S
C594 C600 1.379 . S
C594 N602 1.356 . S
C595 C594 1.363 . S
C595 C601 1.363 . S
C596 C597 1.363 . S
C596 C601 1.379 . S
C596 N603 1.356 . S
C597 C596 1.363 . S
C597 C600 1.363 . S
N598 C600 1.356 . S
N598 H610 0.984 . S
N598 H611 0.985 . S
N599 C601 1.356 . S
N599 H604 0.984 . S
N599 H605 0.985 . S
C600 C594 1.379 . S
C600 C597 1.363 . S
C600 N598 1.356 . S
C601 C595 1.363 . S
C601 C596 1.379 . S
C601 N599 1.356 . S
N602 C594 1.356 . S
N602 H608 0.984 . S
N602 H609 0.984 . S
N603 C596 1.356 . S
N603 H606 0.984 . S
N603 H607 0.985 . S
H604 N599 0.984 . S
H605 N599 0.985 . S
H606 N603 0.984 . S
H607 N603 0.985 . S
H608 N602 0.984 . S
H609 N602 0.984 . S
H610 N598 0.984 . S
H611 N598 0.985 . S
C612 C613 1.363 . S
C612 C618 1.379 . S
C612 N620 1.356 . S
C613 C612 1.363 . S
C613 C619 1.363 . S
C614 C615 1.363 . S
C614 C619 1.379 . S
C614 N621 1.356 . S
C615 C614 1.363 . S
C615 C618 1.363 . S
N616 C618 1.356 . S
N616 H628 0.984 . S
N616 H629 0.985 . S
N617 C619 1.356 . S
N617 H622 0.984 . S
N617 H623 0.985 . S
C618 C612 1.379 . S
C618 C615 1.363 . S
C618 N616 1.356 . S
C619 C613 1.363 . S
C619 C614 1.379 . S
C619 N617 1.356 . S
N620 C612 1.356 . S
N620 H626 0.984 . S
N620 H627 0.984 . S
N621 C614 1.356 . S
N621 H624 0.984 . S
N621 H625 0.985 . S
H622 N617 0.984 . S
H623 N617 0.985 . S
H624 N621 0.984 . S
H625 N621 0.985 . S
H626 N620 0.984 . S
H627 N620 0.984 . S
H628 N616 0.984 . S
H629 N616 0.985 . S
C630 C631 1.363 . S
C630 C636 1.379 . S
C630 N638 1.356 . S
C631 C630 1.363 . S
C631 C637 1.363 . S
C632 C633 1.363 . S
C632 C637 1.379 . S
C632 N639 1.356 1_655 S
C633 C632 1.363 . S
C633 C636 1.363 . S
N634 C636 1.356 . S
N634 H646 0.984 . S
N634 H647 0.985 . S
N635 C637 1.356 1_455 S
N635 H640 0.984 . S
N635 H641 0.985 . S
C636 C630 1.379 . S
C636 C633 1.363 . S
C636 N634 1.356 . S
C637 C631 1.363 . S
C637 C632 1.379 . S
C637 N635 1.356 1_655 S
N638 C630 1.356 . S
N638 H644 0.984 . S
N638 H645 0.984 . S
N639 C632 1.356 1_455 S
N639 H642 0.984 . S
N639 H643 0.985 . S
H640 N635 0.984 . S
H641 N635 0.985 . S
H642 N639 0.984 . S
H643 N639 0.985 . S
H644 N638 0.984 . S
H645 N638 0.984 . S
H646 N634 0.984 . S
H647 N634 0.985 . S
C648 C649 1.363 . S
C648 C654 1.379 . S
C648 N656 1.356 . S
C649 C648 1.363 . S
C649 C655 1.363 . S
C650 C651 1.363 . S
C650 C655 1.379 . S
C650 N657 1.356 . S
C651 C650 1.363 . S
C651 C654 1.363 . S
N652 C654 1.356 . S
N652 H664 0.984 . S
N652 H665 0.985 . S
N653 C655 1.356 . S
N653 H658 0.984 . S
N653 H659 0.985 . S
C654 C648 1.379 . S
C654 C651 1.363 . S
C654 N652 1.356 . S
C655 C649 1.363 . S
C655 C650 1.379 . S
C655 N653 1.356 . S
N656 C648 1.356 . S
N656 H662 0.984 . S
N656 H663 0.984 . S
N657 C650 1.356 . S
N657 H660 0.984 . S
N657 H661 0.985 . S
H658 N653 0.984 . S
H659 N653 0.985 . S
H660 N657 0.984 . S
H661 N657 0.985 . S
H662 N656 0.984 . S
H663 N656 0.984 . S
H664 N652 0.984 . S
H665 N652 0.985 . S
C666 C667 1.363 . S
C666 C672 1.379 . S
C666 N674 1.356 . S
C667 C666 1.363 . S
C667 C673 1.363 . S
C668 C669 1.363 . S
C668 C673 1.379 . S
C668 N675 1.356 . S
C669 C668 1.363 . S
C669 C672 1.363 . S
N670 C672 1.356 . S
N670 H682 0.984 . S
N670 H683 0.985 . S
N671 C673 1.356 . S
N671 H676 0.984 . S
N671 H677 0.985 . S
C672 C666 1.379 . S
C672 C669 1.363 . S
C672 N670 1.356 . S
C673 C667 1.363 . S
C673 C668 1.379 . S
C673 N671 1.356 . S
N674 C666 1.356 . S
N674 H680 0.984 . S
N674 H681 0.984 . S
N675 C668 1.356 . S
N675 H678 0.984 . S
N675 H679 0.985 . S
H676 N671 0.984 . S
H677 N671 0.985 . S
H678 N675 0.984 . S
H679 N675 0.985 . S
H680 N674 0.984 . S
H681 N674 0.984 . S
H682 N670 0.984 . S
H683 N670 0.985 . S
C684 C685 1.363 . S
C684 C690 1.379 . S
C684 N692 1.356 . S
C685 C684 1.363 . S
C685 C691 1.355 1_565 S
C686 C687 1.340 1_545 S
C686 C691 1.379 . S
C686 N693 1.359 . S
C687 C686 1.340 1_565 S
C687 C690 1.363 . S
N688 C690 1.356 . S
N688 H700 0.984 . S
N688 H701 0.985 . S
N689 C691 1.379 . S
N689 H694 0.984 . S
N689 H695 0.985 . S
C690 C684 1.379 . S
C690 C687 1.363 . S
C690 N688 1.356 . S
C691 C685 1.355 1_545 S
C691 C686 1.379 . S
C691 N689 1.379 . S
N692 C684 1.356 . S
N692 H698 0.984 . S
N692 H699 0.984 . S
N693 C686 1.359 . S
N693 H696 0.984 . S
N693 H697 0.985 . S
H694 N689 0.984 . S
H695 N689 0.985 . S
H696 N693 0.984 . S
H697 N693 0.985 . S
H698 N692 0.984 . S
H699 N692 0.984 . S
H700 N688 0.984 . S
H701 N688 0.985 . S
C702 C703 1.363 . S
C702 C708 1.379 . S
C702 N710 1.356 . S
C703 C702 1.363 . S
C703 C709 1.363 . S
C704 C705 1.363 . S
C704 C709 1.379 . S
C704 N711 1.356 . S
C705 C704 1.363 . S
C705 C708 1.363 . S
N706 C708 1.356 . S
N706 H718 0.984 . S
N706 H719 0.985 . S
N707 C709 1.356 . S
N707 H712 0.984 . S
N707 H713 0.985 . S
C708 C702 1.379 . S
C708 C705 1.363 . S
C708 N706 1.356 . S
C709 C703 1.363 . S
C709 C704 1.379 . S
C709 N707 1.356 . S
N710 C702 1.356 . S
N710 H716 0.984 . S
N710 H717 0.984 . S
N711 C704 1.356 . S
N711 H714 0.984 . S
N711 H715 0.985 . S
H712 N707 0.984 . S
H713 N707 0.985 . S
H714 N711 0.984 . S
H715 N711 0.985 . S
H716 N710 0.984 . S
H717 N710 0.984 . S
H718 N706 0.984 . S
H719 N706 0.985 . S
C720 C721 1.363 . S
C720 C726 1.379 . S
C720 N728 1.356 . S
C721 C720 1.363 . S
C721 C727 1.363 . S
C722 C723 1.363 . S
C722 C727 1.379 . S
C722 N729 1.356 . S
C723 C722 1.363 . S
C723 C726 1.363 . S
N724 C726 1.356 . S
N724 H736 0.984 . S
N724 H737 0.985 . S
N725 C727 1.356 . S
N725 H730 0.984 . S
N725 H731 0.985 . S
C726 C720 1.379 . S
C726 C723 1.363 . S
C726 N724 1.356 . S
C727 C721 1.363 . S
C727 C722 1.379 . S
C727 N725 1.356 . S
N728 C720 1.356 . S
N728 H734 0.984 . S
N728 H735 0.984 . S
N729 C722 1.356 . S
N729 H732 0.984 . S
N729 H733 0.985 . S
H730 N725 0.984 . S
H731 N725 0.985 . S
H732 N729 0.984 . S
H733 N729 0.985 . S
H734 N728 0.984 . S
H735 N728 0.984 . S
H736 N724 0.984 . S
H737 N724 0.985 . S
C738 C739 1.363 . S
C738 C744 1.379 . S
C738 N746 1.356 . S
C739 C738 1.363 . S
C739 C745 1.363 . S
C740 C741 1.363 . S
C740 C745 1.379 . S
C740 N747 1.356 . S
C741 C740 1.363 . S
C741 C744 1.363 . S
N742 C744 1.356 . S
N742 H754 0.984 . S
N742 H755 0.985 . S
N743 C745 1.356 . S
N743 H748 0.984 . S
N743 H749 0.985 . S
C744 C738 1.379 . S
C744 C741 1.363 . S
C744 N742 1.356 . S
C745 C739 1.363 . S
C745 C740 1.379 . S
C745 N743 1.356 . S
N746 C738 1.356 . S
N746 H752 0.984 . S
N746 H753 0.984 . S
N747 C740 1.356 . S
N747 H750 0.984 . S
N747 H751 0.985 . S
H748 N743 0.984 . S
H749 N743 0.985 . S
H750 N747 0.984 . S
H751 N747 0.985 . S
H752 N746 0.984 . S
H753 N746 0.984 . S
H754 N742 0.984 . S
H755 N742 0.985 . S
C756 C757 1.363 . S
C756 C762 1.379 . S
C756 N764 1.356 . S
C757 C756 1.363 . S
C757 C763 1.363 . S
C758 C759 1.363 . S
C758 C763 1.379 . S
C758 N765 1.356 . S
C759 C758 1.363 . S
C759 C762 1.363 . S
N760 C762 1.356 . S
N760 H772 0.984 . S
N760 H773 0.985 . S
N761 C763 1.356 . S
N761 H766 0.984 . S
N761 H767 0.985 . S
C762 C756 1.379 . S
C762 C759 1.363 . S
C762 N760 1.356 . S
C763 C757 1.363 . S
C763 C758 1.379 . S
C763 N761 1.356 . S
N764 C756 1.356 . S
N764 H770 0.984 . S
N764 H771 0.984 . S
N765 C758 1.356 . S
N765 H768 0.984 . S
N765 H769 0.985 . S
H766 N761 0.984 . S
H767 N761 0.985 . S
H768 N765 0.984 . S
H769 N765 0.985 . S
H770 N764 0.984 . S
H771 N764 0.984 . S
H772 N760 0.984 . S
H773 N760 0.985 . S
C774 C775 1.363 . S
C774 C780 1.379 . S
C774 N782 1.356 . S
C775 C774 1.363 . S
C775 C781 1.363 . S
C776 C777 1.363 . S
C776 C781 1.379 . S
C776 N783 1.356 . S
C777 C776 1.363 . S
C777 C780 1.363 . S
N778 C780 1.356 . S
N778 H790 0.984 . S
N778 H791 0.985 . S
N779 C781 1.356 . S
N779 H784 0.984 . S
N779 H785 0.985 . S
C780 C774 1.379 . S
C780 C777 1.363 . S
C780 N778 1.356 . S
C781 C775 1.363 . S
C781 C776 1.379 . S
C781 N779 1.356 . S
N782 C774 1.356 . S
N782 H788 0.984 . S
N782 H789 0.984 . S
N783 C776 1.356 . S
N783 H786 0.984 . S
N783 H787 0.985 . S
H784 N779 0.984 . S
H785 N779 0.985 . S
H786 N783 0.984 . S
H787 N783 0.985 . S
H788 N782 0.984 . S
H789 N782 0.984 . S
H790 N778 0.984 . S
H791 N778 0.985 . S
C792 C793 1.363 . S
C792 C798 1.379 . S
C792 N800 1.356 . S
C793 C792 1.363 . S
C793 C799 1.363 1_455 S
C794 C795 1.363 . S
C794 C799 1.379 . S
C794 N801 1.356 . S
C795 C794 1.363 . S
C795 C798 1.363 1_655 S
N796 C798 1.356 . S
N796 H808 0.984 . S
N796 H809 0.985 . S
N797 C799 1.356 . S
N797 H802 0.984 . S
N797 H803 0.985 . S
C798 C792 1.379 . S
C798 C795 1.363 1_455 S
C798 N796 1.356 . S
C799 C793 1.363 1_655 S
C799 C794 1.379 . S
C799 N797 1.356 . S
N800 C792 1.356 . S
N800 H806 0.984 . S
N800 H807 0.984 . S
N801 C794 1.356 . S
N801 H804 0.984 . S
N801 H805 0.985 . S
H802 N797 0.984 . S
H803 N797 0.985 . S
H804 N801 0.984 . S
H805 N801 0.985 . S
H806 N800 0.984 . S
H807 N800 0.984 . S
H808 N796 0.984 . S
H809 N796 0.985 . S
C810 C811 1.363 . S
C810 C816 1.379 . S
C810 N818 1.356 . S
C811 C810 1.363 . S
C811 C817 1.363 . S
C812 C813 1.363 . S
C812 C817 1.379 . S
C812 N819 1.356 . S
C813 C812 1.363 . S
C813 C816 1.363 . S
N814 C816 1.356 . S
N814 H826 0.984 . S
N814 H827 0.985 . S
N815 C817 1.356 . S
N815 H820 0.984 . S
N815 H821 0.985 . S
C816 C810 1.379 . S
C816 C813 1.363 . S
C816 N814 1.356 . S
C817 C811 1.363 . S
C817 C812 1.379 . S
C817 N815 1.356 . S
N818 C810 1.356 . S
N818 H824 0.984 . S
N818 H825 0.984 . S
N819 C812 1.356 . S
N819 H822 0.984 . S
N819 H823 0.985 . S
H820 N815 0.984 . S
H821 N815 0.985 . S
H822 N819 0.984 . S
H823 N819 0.985 . S
H824 N818 0.984 . S
H825 N818 0.984 . S
H826 N814 0.984 . S
H827 N814 0.985 . S
C828 C829 1.363 . S
C828 C834 1.379 . S
C828 N836 1.356 . S
C829 C828 1.363 . S
C829 C835 1.363 . S
C830 C831 1.363 . S
C830 C835 1.379 . S
C830 N837 1.356 . S
C831 C830 1.363 . S
C831 C834 1.363 . S
N832 C834 1.356 . S
N832 H844 0.984 . S
N832 H845 0.985 . S
N833 C835 1.356 . S
N833 H838 0.984 . S
N833 H839 0.985 1_545 S
C834 C828 1.379 . S
C834 C831 1.363 . S
C834 N832 1.356 . S
C835 C829 1.363 . S
C835 C830 1.379 . S
C835 N833 1.356 . S
N836 C828 1.356 . S
N836 H842 0.984 . S
N836 H843 0.984 . S
N837 C830 1.356 . S
N837 H840 0.984 . S
N837 H841 0.985 1_545 S
H838 N833 0.984 . S
H839 N833 0.985 1_565 S
H840 N837 0.984 . S
H841 N837 0.985 1_565 S
H842 N836 0.984 . S
H843 N836 0.984 . S
H844 N832 0.984 . S
H845 N832 0.985 . S
C846 C847 1.363 1_565 S
C846 C852 1.379 . S
C846 N854 1.356 . S
C847 C846 1.363 1_545 S
C847 C853 1.363 . S
C848 C849 1.363 1_545 S
C848 C853 1.379 . S
C848 N855 1.356 . S
C849 C848 1.363 1_565 S
C849 C852 1.363 . S
N850 C852 1.356 . S
N850 H862 0.984 . S
N850 H863 0.985 . S
N851 C853 1.356 . S
N851 H856 0.984 . S
N851 H857 0.985 . S
C852 C846 1.379 . S
C852 C849 1.363 . S
C852 N850 1.356 . S
C853 C847 1.363 . S
C853 C848 1.379 . S
C853 N851 1.356 . S
N854 C846 1.356 . S
N854 H860 0.984 . S
N854 H861 0.984 . S
N855 C848 1.356 . S
N855 H858 0.984 . S
N855 H859 0.985 . S
H856 N851 0.984 . S
H857 N851 0.985 . S
H858 N855 0.984 . S
H859 N855 0.985 . S
H860 N854 0.984 . S
H861 N854 0.984 . S
H862 N850 0.984 . S
H863 N850 0.985 . S
C864 C865 1.363 . S
C864 C870 1.379 . S
C864 N872 1.356 . S
C865 C864 1.363 . S
C865 C871 1.363 . S
C866 C867 1.363 . S
C866 C871 1.379 . S
C866 N873 1.345 1_455 S
C867 C866 1.363 . S
C867 C870 1.363 . S
N868 C870 1.356 . S
N868 H880 0.984 . S
N868 H881 0.985 . S
N869 C871 1.356 . S
N869 H874 0.984 . S
N869 H875 0.985 1_455 S
C870 C864 1.379 . S
C870 C867 1.363 . S
C870 N868 1.356 . S
C871 C865 1.363 . S
C871 C866 1.379 . S
C871 N869 1.356 . S
N872 C864 1.356 . S
N872 H878 0.984 . S
N872 H879 0.984 . S
N873 C866 1.345 1_655 S
N873 H876 0.980 1_655 S
N873 H877 1.001 . S
H874 N869 0.984 . S
H875 N869 0.985 1_655 S
H876 N873 0.980 1_455 S
H877 N873 1.001 . S
H878 N872 0.984 . S
H879 N872 0.984 . S
H880 N868 0.984 . S
H881 N868 0.985 . S
C882 C883 1.363 . S
C882 C888 1.379 . S
C882 N890 1.356 . S
C883 C882 1.363 . S
C883 C889 1.363 . S
C884 C885 1.363 . S
C884 C889 1.379 . S
C884 N891 1.356 . S
C885 C884 1.363 . S
C885 C888 1.363 . S
N886 C888 1.356 . S
N886 H898 0.984 . S
N886 H899 0.985 . S
N887 C889 1.356 . S
N887 H892 0.984 . S
N887 H893 0.985 . S
C888 C882 1.379 . S
C888 C885 1.363 . S
C888 N886 1.356 . S
C889 C883 1.363 . S
C889 C884 1.379 . S
C889 N887 1.356 . S
N890 C882 1.356 . S
N890 H896 0.984 . S
N890 H897 0.984 . S
N891 C884 1.356 . S
N891 H894 0.984 . S
N891 H895 0.985 . S
H892 N887 0.984 . S
H893 N887 0.985 . S
H894 N891 0.984 . S
H895 N891 0.985 . S
H896 N890 0.984 . S
H897 N890 0.984 . S
H898 N886 0.984 . S
H899 N886 0.985 . S
C900 C901 1.363 . S
C900 C906 1.379 . S
C900 N908 1.356 . S
C901 C900 1.363 . S
C901 C907 1.363 . S
C902 C903 1.363 . S
C902 C907 1.379 . S
C902 N909 1.356 . S
C903 C902 1.363 . S
C903 C906 1.363 . S
N904 C906 1.356 . S
N904 H916 0.984 . S
N904 H917 0.985 . S
N905 C907 1.356 . S
N905 H910 0.984 . S
N905 H911 0.985 . S
C906 C900 1.379 . S
C906 C903 1.363 . S
C906 N904 1.356 . S
C907 C901 1.363 . S
C907 C902 1.379 . S
C907 N905 1.356 . S
N908 C900 1.356 . S
N908 H914 0.984 . S
N908 H915 0.984 . S
N909 C902 1.356 . S
N909 H912 0.984 . S
N909 H913 0.985 . S
H910 N905 0.984 . S
H911 N905 0.985 . S
H912 N909 0.984 . S
H913 N909 0.985 . S
H914 N908 0.984 . S
H915 N908 0.984 . S
H916 N904 0.984 . S
H917 N904 0.985 . S
C918 C919 1.363 . S
C918 C924 1.379 . S
C918 N926 1.356 . S
C919 C918 1.363 . S
C919 C925 1.363 . S
C920 C921 1.363 . S
C920 C925 1.379 . S
C920 N927 1.356 . S
C921 C920 1.363 . S
C921 C924 1.363 . S
N922 C924 1.356 . S
N922 H934 0.984 . S
N922 H935 0.985 . S
N923 C925 1.356 . S
N923 H928 0.984 . S
N923 H929 0.985 . S
C924 C918 1.379 . S
C924 C921 1.363 . S
C924 N922 1.356 . S
C925 C919 1.363 . S
C925 C920 1.379 . S
C925 N923 1.356 . S
N926 C918 1.356 . S
N926 H932 0.984 . S
N926 H933 0.984 . S
N927 C920 1.356 . S
N927 H930 0.984 . S
N927 H931 0.985 . S
H928 N923 0.984 . S
H929 N923 0.985 . S
H930 N927 0.984 . S
H931 N927 0.985 . S
H932 N926 0.984 . S
H933 N926 0.984 . S
H934 N922 0.984 . S
H935 N922 0.985 . S
C936 C937 1.363 . S
C936 C942 1.379 . S
C936 N944 1.356 . S
C937 C936 1.363 . S
C937 C943 1.363 1_545 S
C938 C939 1.363 . S
C938 C943 1.379 . S
C938 N945 1.356 . S
C939 C938 1.363 . S
C939 C942 1.363 1_565 S
N940 C942 1.356 . S
N940 H952 0.984 . S
N940 H953 0.985 . S
N941 C943 1.356 . S
N941 H946 0.984 . S
N941 H947 0.985 . S
C942 C936 1.379 . S
C942 C939 1.363 1_545 S
C942 N940 1.356 . S
C943 C937 1.363 1_565 S
C943 C938 1.379 . S
C943 N941 1.356 . S
N944 C936 1.356 . S
N944 H950 0.984 . S
N944 H951 0.984 . S
N945 C938 1.356 . S
N945 H948 0.984 . S
N945 H949 0.985 . S
H946 N941 0.984 . S
H947 N941 0.985 . S
H948 N945 0.984 . S
H949 N945 0.985 . S
H950 N944 0.984 . S
H951 N944 0.984 . S
H952 N940 0.984 . S
H953 N940 0.985 . S
C954 C955 1.363 . S
C954 C960 1.379 . S
C954 N962 1.356 . S
C955 C954 1.363 . S
C955 C961 1.363 . S
C956 C957 1.363 . S
C956 C961 1.379 . S
C956 N963 1.356 . S
C957 C956 1.363 . S
C957 C960 1.363 . S
N958 C960 1.356 . S
N958 H970 0.984 . S
N958 H971 0.985 . S
N959 C961 1.356 . S
N959 H964 0.984 . S
N959 H965 0.985 1_545 S
C960 C954 1.379 . S
C960 C957 1.363 . S
C960 N958 1.356 . S
C961 C955 1.363 . S
C961 C956 1.379 . S
C961 N959 1.356 . S
N962 C954 1.356 . S
N962 H968 0.984 . S
N962 H969 0.984 . S
N963 C956 1.356 . S
N963 H966 0.984 . S
N963 H967 0.985 1_545 S
H964 N959 0.984 . S
H965 N959 0.985 1_565 S
H966 N963 0.984 . S
H967 N963 0.985 1_565 S
H968 N962 0.984 . S
H969 N962 0.984 . S
H970 N958 0.984 . S
H971 N958 0.985 . S
C972 C973 1.363 1_655 S
C972 C978 1.379 . S
C972 N980 1.356 . S
C973 C972 1.363 1_455 S
C973 C979 1.363 . S
C974 C975 1.363 1_455 S
C974 C979 1.379 . S
C974 N981 1.356 . S
C975 C974 1.363 1_655 S
C975 C978 1.363 . S
N976 C978 1.356 . S
N976 H988 0.984 . S
N976 H989 0.985 . S
N977 C979 1.356 . S
N977 H982 0.984 . S
N977 H983 0.985 . S
C978 C972 1.379 . S
C978 C975 1.363 . S
C978 N976 1.356 . S
C979 C973 1.363 . S
C979 C974 1.379 . S
C979 N977 1.356 . S
N980 C972 1.356 . S
N980 H986 0.984 . S
N980 H987 0.984 . S
N981 C974 1.356 . S
N981 H984 0.984 . S
N981 H985 0.985 . S
H982 N977 0.984 . S
H983 N977 0.985 . S
H984 N981 0.984 . S
H985 N981 0.985 . S
H986 N980 0.984 . S
H987 N980 0.984 . S
H988 N976 0.984 . S
H989 N976 0.985 . S
C990 C991 1.363 . S
C990 C996 1.379 . S
C990 N998 1.356 . S
C991 C990 1.363 . S
C991 C997 1.363 . S
C992 C993 1.363 . S
C992 C997 1.379 . S
C992 N999 1.356 . S
C993 C992 1.363 . S
C993 C996 1.363 . S
N994 C996 1.356 . S
N994 H1006 0.984 . S
N994 H1007 0.985 . S
N995 C997 1.356 . S
N995 H1000 0.984 . S
N995 H1001 0.985 . S
C996 C990 1.379 . S
C996 C993 1.363 . S
C996 N994 1.356 . S
C997 C991 1.363 . S
C997 C992 1.379 . S
C997 N995 1.356 . S
N998 C990 1.356 . S
N998 H1004 0.984 . S
N998 H1005 0.984 . S
N999 C992 1.356 . S
N999 H1002 0.984 . S
N999 H1003 0.985 . S
H1000 N995 0.984 . S
H1001 N995 0.985 . S
H1002 N999 0.984 . S
H1003 N999 0.985 . S
H1004 N998 0.984 . S
H1005 N998 0.984 . S
H1006 N994 0.984 . S
H1007 N994 0.985 . S
C1008 C1009 1.363 . S
C1008 C1014 1.379 . S
C1008 N1016 1.356 . S
C1009 C1008 1.363 . S
C1009 C1015 1.363 . S
C1010 C1011 1.363 . S
C1010 C1015 1.379 . S
C1010 N1017 1.356 . S
C1011 C1010 1.363 . S
C1011 C1014 1.363 . S
N1012 C1014 1.356 . S
N1012 H1024 0.984 . S
N1012 H1025 0.985 . S
N1013 C1015 1.356 . S
N1013 H1018 0.984 . S
N1013 H1019 0.985 . S
C1014 C1008 1.379 . S
C1014 C1011 1.363 . S
C1014 N1012 1.356 . S
C1015 C1009 1.363 . S
C1015 C1010 1.379 . S
C1015 N1013 1.356 . S
N1016 C1008 1.356 . S
N1016 H1022 0.984 . S
N1016 H1023 0.984 . S
N1017 C1010 1.356 . S
N1017 H1020 0.984 . S
N1017 H1021 0.985 . S
H1018 N1013 0.984 . S
H1019 N1013 0.985 . S
H1020 N1017 0.984 . S
H1021 N1017 0.985 . S
H1022 N1016 0.984 . S
H1023 N1016 0.984 . S
H1024 N1012 0.984 . S
H1025 N1012 0.985 . S
C1026 C1027 1.363 . S
C1026 C1032 1.379 1_545 S
C1026 N1034 1.356 1_545 S
C1027 C1026 1.363 . S
C1027 C1033 1.363 . S
C1028 C1029 1.363 . S
C1028 C1033 1.379 . S
C1028 N1035 1.356 . S
C1029 C1028 1.363 . S
C1029 C1032 1.363 1_545 S
N1030 C1032 1.356 . S
N1030 H1042 0.984 . S
N1030 H1043 0.985 . S
N1031 C1033 1.356 . S
N1031 H1036 0.984 . S
N1031 H1037 0.985 . S
C1032 C1026 1.379 1_565 S
C1032 C1029 1.363 1_565 S
C1032 N1030 1.356 . S
C1033 C1027 1.363 . S
C1033 C1028 1.379 . S
C1033 N1031 1.356 . S
N1034 C1026 1.356 1_565 S
N1034 H1040 0.984 . S
N1034 H1041 0.984 1_565 S
N1035 C1028 1.356 . S
N1035 H1038 0.984 . S
N1035 H1039 0.985 . S
H1036 N1031 0.984 . S
H1037 N1031 0.985 . S
H1038 N1035 0.984 . S
H1039 N1035 0.985 . S
H1040 N1034 0.984 . S
H1041 N1034 0.984 1_545 S
H1042 N1030 0.984 . S
H1043 N1030 0.985 . S
C1044 C1045 1.363 . S
C1044 C1050 1.379 . S
C1044 N1052 1.356 . S
C1045 C1044 1.363 . S
C1045 C1051 1.363 1_455 S
C1046 C1047 1.363 . S
C1046 C1051 1.379 1_455 S
C1046 N1053 1.356 1_455 S
C1047 C1046 1.363 . S
C1047 C1050 1.363 . S
N1048 C1050 1.356 . S
N1048 H1060 0.984 . S
N1048 H1061 0.985 . S
N1049 C1051 1.356 . S
N1049 H1054 0.984 . S
N1049 H1055 0.985 . S
C1050 C1044 1.379 . S
C1050 C1047 1.363 . S
C1050 N1048 1.356 . S
C1051 C1045 1.363 1_655 S
C1051 C1046 1.379 1_655 S
C1051 N1049 1.356 . S
N1052 C1044 1.356 . S
N1052 H1058 0.984 . S
N1052 H1059 0.984 . S
N1053 C1046 1.356 1_655 S
N1053 H1056 0.984 1_655 S
N1053 H1057 0.985 . S
H1054 N1049 0.984 . S
H1055 N1049 0.985 . S
H1056 N1053 0.984 1_455 S
H1057 N1053 0.985 . S
H1058 N1052 0.984 . S
H1059 N1052 0.984 . S
H1060 N1048 0.984 . S
H1061 N1048 0.985 . S
C1062 C1063 1.363 . S
C1062 C1068 1.379 . S
C1062 N1070 1.356 . S
C1063 C1062 1.363 . S
C1063 C1069 1.363 . S
C1064 C1065 1.363 . S
C1064 C1069 1.379 . S
C1064 N1071 1.356 . S
C1065 C1064 1.363 . S
C1065 C1068 1.363 . S
N1066 C1068 1.356 . S
N1066 H1078 0.984 . S
N1066 H1079 0.985 . S
N1067 C1069 1.356 . S
N1067 H1072 0.984 . S
N1067 H1073 0.985 . S
C1068 C1062 1.379 . S
C1068 C1065 1.363 . S
C1068 N1066 1.356 . S
C1069 C1063 1.363 . S
C1069 C1064 1.379 . S
C1069 N1067 1.356 . S
N1070 C1062 1.356 . S
N1070 H1076 0.984 . S
N1070 H1077 0.984 . S
N1071 C1064 1.356 . S
N1071 H1074 0.984 . S
N1071 H1075 0.985 . S
H1072 N1067 0.984 . S
H1073 N1067 0.985 . S
H1074 N1071 0.984 . S
H1075 N1071 0.985 . S
H1076 N1070 0.984 . S
H1077 N1070 0.984 . S
H1078 N1066 0.984 . S
H1079 N1066 0.985 . S
C1080 C1081 1.363 . S
C1080 C1086 1.379 . S
C1080 N1088 1.356 . S
C1081 C1080 1.363 . S
C1081 C1087 1.363 . S
C1082 C1083 1.363 . S
C1082 C1087 1.379 . S
C1082 N1089 1.356 . S
C1083 C1082 1.363 . S
C1083 C1086 1.363 . S
N1084 C1086 1.356 . S
N1084 H1096 0.984 . S
N1084 H1097 0.985 . S
N1085 C1087 1.356 . S
N1085 H1090 0.984 . S
N1085 H1091 0.985 . S
C1086 C1080 1.379 . S
C1086 C1083 1.363 . S
C1086 N1084 1.356 . S
C1087 C1081 1.363 . S
C1087 C1082 1.379 . S
C1087 N1085 1.356 . S
N1088 C1080 1.356 . S
N1088 H1094 0.984 . S
N1088 H1095 0.984 . S
N1089 C1082 1.356 . S
N1089 H1092 0.984 . S
N1089 H1093 0.985 . S
H1090 N1085 0.984 . S
H1091 N1085 0.985 . S
H1092 N1089 0.984 . S
H1093 N1089 0.985 . S
H1094 N1088 0.984 . S
H1095 N1088 0.984 . S
H1096 N1084 0.984 . S
H1097 N1084 0.985 . S
C1098 C1099 1.363 1_655 S
C1098 C1104 1.379 1_655 S
C1098 N1106 1.356 . S
C1099 C1098 1.363 1_455 S
C1099 C1105 1.363 . S
C1100 C1101 1.363 . S
C1100 C1105 1.379 . S
C1100 N1107 1.356 . S
C1101 C1100 1.363 . S
C1101 C1104 1.363 . S
N1102 C1104 1.356 1_655 S
N1102 H1114 0.984 . S
N1102 H1115 0.985 1_655 S
N1103 C1105 1.356 . S
N1103 H1108 0.984 . S
N1103 H1109 0.985 . S
C1104 C1098 1.379 1_455 S
C1104 C1101 1.363 . S
C1104 N1102 1.356 1_455 S
C1105 C1099 1.363 . S
C1105 C1100 1.379 . S
C1105 N1103 1.356 . S
N1106 C1098 1.356 . S
N1106 H1112 0.984 . S
N1106 H1113 0.984 . S
N1107 C1100 1.356 . S
N1107 H1110 0.984 . S
N1107 H1111 0.985 . S
H1108 N1103 0.984 . S
H1109 N1103 0.985 . S
H1110 N1107 0.984 . S
H1111 N1107 0.985 . S
H1112 N1106 0.984 . S
H1113 N1106 0.984 . S
H1114 N1102 0.984 . S
H1115 N1102 0.985 1_455 S
C1116 C1117 1.363 . S
C1116 C1122 1.379 1_554 S
C1116 N1124 1.356 . S
C1117 C1116 1.363 . S
C1117 C1123 1.363 . S
C1118 C1119 1.363 . S
C1118 C1123 1.379 1_556 S
C1118 N1125 1.356 . S
C1119 C1118 1.363 . S
C1119 C1122 1.363 . S
N1120 C1122 1.356 . S
N1120 H1132 0.984 . S
N1120 H1133 0.985 . S
N1121 C1123 1.356 . S
N1121 H1126 0.984 . S
N1121 H1127 0.985 . S
C1122 C1116 1.379 1_556 S
C1122 C1119 1.363 . S
C1122 N1120 1.356 . S
C1123 C1117 1.363 . S
C1123 C1118 1.379 1_554 S
C1123 N1121 1.356 . S
N1124 C1116 1.356 . S
N1124 H1130 0.984 . S
N1124 H1131 0.984 . S
N1125 C1118 1.356 . S
N1125 H1128 0.984 . S
N1125 H1129 0.985 . S
H1126 N1121 0.984 . S
H1127 N1121 0.985 . S
H1128 N1125 0.984 . S
H1129 N1125 0.985 . S
H1130 N1124 0.984 . S
H1131 N1124 0.984 . S
H1132 N1120 0.984 . S
H1133 N1120 0.985 . S
C1134 C1135 1.363 . S
C1134 C1140 1.379 1_556 S
C1134 N1142 1.356 . S
C1135 C1134 1.363 . S
C1135 C1141 1.363 . S
C1136 C1137 1.363 . S
C1136 C1141 1.379 1_554 S
C1136 N1143 1.356 . S
C1137 C1136 1.363 . S
C1137 C1140 1.363 . S
N1138 C1140 1.356 . S
N1138 H1150 0.984 . S
N1138 H1151 0.985 . S
N1139 C1141 1.356 . S
N1139 H1144 0.984 . S
N1139 H1145 0.985 . S
C1140 C1134 1.379 1_554 S
C1140 C1137 1.363 . S
C1140 N1138 1.356 . S
C1141 C1135 1.363 . S
C1141 C1136 1.379 1_556 S
C1141 N1139 1.356 . S
N1142 C1134 1.356 . S
N1142 H1148 0.984 . S
N1142 H1149 0.984 . S
N1143 C1136 1.356 . S
N1143 H1146 0.984 . S
N1143 H1147 0.985 . S
H1144 N1139 0.984 . S
H1145 N1139 0.985 . S
H1146 N1143 0.984 . S
H1147 N1143 0.985 . S
H1148 N1142 0.984 . S
H1149 N1142 0.984 . S
H1150 N1138 0.984 . S
H1151 N1138 0.985 . S
C1152 C1153 1.363 . S
C1152 C1158 1.379 1_556 S
C1152 N1160 1.356 1_545 S
C1153 C1152 1.363 . S
C1153 C1159 1.363 . S
C1154 C1155 1.363 . S
C1154 C1159 1.379 1_554 S
C1154 N1161 1.356 . S
C1155 C1154 1.363 . S
C1155 C1158 1.363 . S
N1156 C1158 1.356 1_565 S
N1156 H1168 0.984 . S
N1156 H1169 0.985 . S
N1157 C1159 1.356 . S
N1157 H1162 0.984 . S
N1157 H1163 0.985 . S
C1158 C1152 1.379 1_554 S
C1158 C1155 1.363 . S
C1158 N1156 1.356 1_545 S
C1159 C1153 1.363 . S
C1159 C1154 1.379 1_556 S
C1159 N1157 1.356 . S
N1160 C1152 1.356 1_565 S
N1160 H1166 0.984 . S
N1160 H1167 0.984 1_565 S
N1161 C1154 1.356 . S
N1161 H1164 0.984 . S
N1161 H1165 0.985 . S
H1162 N1157 0.984 . S
H1163 N1157 0.985 . S
H1164 N1161 0.984 . S
H1165 N1161 0.985 . S
H1166 N1160 0.984 . S
H1167 N1160 0.984 1_545 S
H1168 N1156 0.984 . S
H1169 N1156 0.985 . S
C1170 C1171 1.351 1_655 S
C1170 C1176 1.375 1_656 S
C1170 N1178 1.371 . S
C1171 C1170 1.351 1_455 S
C1171 C1177 1.363 . S
C1172 C1173 1.363 . S
C1172 C1177 1.379 1_554 S
C1172 N1179 1.356 . S
C1173 C1172 1.363 . S
C1173 C1176 1.363 . S
N1174 C1176 1.356 1_655 S
N1174 H1186 0.984 . S
N1174 H1187 0.985 . S
N1175 C1177 1.356 . S
N1175 H1180 0.984 . S
N1175 H1181 0.985 . S
C1176 C1170 1.375 1_454 S
C1176 C1173 1.363 . S
C1176 N1174 1.356 1_455 S
C1177 C1171 1.363 . S
C1177 C1172 1.379 1_556 S
C1177 N1175 1.356 . S
N1178 C1170 1.371 . S
N1178 H1184 0.984 . S
N1178 H1185 0.984 . S
N1179 C1172 1.356 . S
N1179 H1182 0.984 . S
N1179 H1183 0.985 . S
H1180 N1175 0.984 . S
H1181 N1175 0.985 . S
H1182 N1179 0.984 . S
H1183 N1179 0.985 . S
H1184 N1178 0.984 . S
H1185 N1178 0.984 . S
H1186 N1174 0.984 . S
H1187 N1174 0.985 . S
C1188 C1189 1.363 . S
C1188 C1194 1.379 1_554 S
C1188 N1196 1.356 . S
C1189 C1188 1.363 . S
C1189 C1195 1.363 . S
C1190 C1191 1.363 . S
C1190 C1195 1.379 1_556 S
C1190 N1197 1.356 . S
C1191 C1190 1.363 . S
C1191 C1194 1.363 . S
N1192 C1194 1.356 . S
N1192 H1204 0.984 . S
N1192 H1205 0.985 . S
N1193 C1195 1.356 . S
N1193 H1198 0.984 . S
N1193 H1199 0.985 . S
C1194 C1188 1.379 1_556 S
C1194 C1191 1.363 . S
C1194 N1192 1.356 . S
C1195 C1189 1.363 . S
C1195 C1190 1.379 1_554 S
C1195 N1193 1.356 . S
N1196 C1188 1.356 . S
N1196 H1202 0.984 . S
N1196 H1203 0.984 . S
N1197 C1190 1.356 . S
N1197 H1200 0.984 . S
N1197 H1201 0.985 . S
H1198 N1193 0.984 . S
H1199 N1193 0.985 . S
H1200 N1197 0.984 . S
H1201 N1197 0.985 . S
H1202 N1196 0.984 . S
H1203 N1196 0.984 . S
H1204 N1192 0.984 . S
H1205 N1192 0.985 . S
C1206 C1207 1.363 . S
C1206 C1212 1.379 1_546 S
C1206 N1214 1.356 1_545 S
C1207 C1206 1.363 . S
C1207 C1213 1.363 . S
C1208 C1209 1.363 . S
C1208 C1213 1.379 1_554 S
C1208 N1215 1.356 . S
C1209 C1208 1.363 . S
C1209 C1212 1.363 1_545 S
N1210 C1212 1.356 . S
N1210 H1222 0.984 . S
N1210 H1223 0.985 . S
N1211 C1213 1.356 . S
N1211 H1216 0.984 . S
N1211 H1217 0.985 . S
C1212 C1206 1.379 1_564 S
C1212 C1209 1.363 1_565 S
C1212 N1210 1.356 . S
C1213 C1207 1.363 . S
C1213 C1208 1.379 1_556 S
C1213 N1211 1.356 . S
N1214 C1206 1.356 1_565 S
N1214 H1220 0.984 . S
N1214 H1221 0.984 . S
N1215 C1208 1.356 . S
N1215 H1218 0.984 . S
N1215 H1219 0.985 . S
H1216 N1211 0.984 . S
H1217 N1211 0.985 . S
H1218 N1215 0.984 . S
H1219 N1215 0.985 . S
H1220 N1214 0.984 . S
H1221 N1214 0.984 . S
H1222 N1210 0.984 . S
H1223 N1210 0.985 . S
C1224 C1225 1.363 . S
C1224 C1230 1.379 . S
C1224 N1232 1.356 . S
C1225 C1224 1.363 . S
C1225 C1231 1.363 . S
C1226 C1227 1.363 . S
C1226 C1231 1.379 . S
C1226 N1233 1.356 . S
C1227 C1226 1.363 . S
C1227 C1230 1.363 . S
N1228 C1230 1.356 . S
N1228 H1240 0.984 . S
N1228 H1241 0.985 . S
N1229 C1231 1.356 . S
N1229 H1234 0.984 . S
N1229 H1235 0.985 . S
C1230 C1224 1.379 . S
C1230 C1227 1.363 . S
C1230 N1228 1.356 . S
C1231 C1225 1.363 . S
C1231 C1226 1.379 . S
C1231 N1229 1.356 . S
N1232 C1224 1.356 . S
N1232 H1238 0.984 . S
N1232 H1239 0.984 . S
N1233 C1226 1.356 . S
N1233 H1236 0.984 . S
N1233 H1237 0.985 . S
H1234 N1229 0.984 . S
H1235 N1229 0.985 . S
H1236 N1233 0.984 . S
H1237 N1233 0.985 . S
H1238 N1232 0.984 . S
H1239 N1232 0.984 . S
H1240 N1228 0.984 . S
H1241 N1228 0.985 . S
C1242 C1243 1.363 . S
C1242 C1248 1.379 . S
C1242 N1250 1.356 . S
C1243 C1242 1.363 . S
C1243 C1249 1.363 . S
C1244 C1245 1.363 . S
C1244 C1249 1.379 . S
C1244 N1251 1.356 . S
C1245 C1244 1.363 . S
C1245 C1248 1.363 . S
N1246 C1248 1.356 . S
N1246 H1258 0.984 . S
N1246 H1259 0.985 . S
N1247 C1249 1.356 . S
N1247 H1252 0.984 . S
N1247 H1253 0.985 . S
C1248 C1242 1.379 . S
C1248 C1245 1.363 . S
C1248 N1246 1.356 . S
C1249 C1243 1.363 . S
C1249 C1244 1.379 . S
C1249 N1247 1.356 . S
N1250 C1242 1.356 . S
N1250 H1256 0.984 . S
N1250 H1257 0.984 . S
N1251 C1244 1.356 . S
N1251 H1254 0.984 . S
N1251 H1255 0.985 . S
H1252 N1247 0.984 . S
H1253 N1247 0.985 . S
H1254 N1251 0.984 . S
H1255 N1251 0.985 . S
H1256 N1250 0.984 . S
H1257 N1250 0.984 . S
H1258 N1246 0.984 . S
H1259 N1246 0.985 . S
C1260 C1261 1.335 1_455 S
C1260 C1266 1.379 . S
C1260 N1268 1.379 . S
C1261 C1260 1.335 1_655 S
C1261 C1267 1.363 . S
C1262 C1263 1.363 . S
C1262 C1267 1.379 . S
C1262 N1269 1.356 . S
C1263 C1262 1.363 . S
C1263 C1266 1.363 1_655 S
N1264 C1266 1.356 . S
N1264 H1276 0.984 . S
N1264 H1277 0.985 . S
N1265 C1267 1.356 . S
N1265 H1270 0.984 . S
N1265 H1271 0.985 . S
C1266 C1260 1.379 . S
C1266 C1263 1.363 1_455 S
C1266 N1264 1.356 . S
C1267 C1261 1.363 . S
C1267 C1262 1.379 . S
C1267 N1265 1.356 . S
N1268 C1260 1.379 . S
N1268 H1274 0.984 . S
N1268 H1275 0.984 . S
N1269 C1262 1.356 . S
N1269 H1272 0.984 . S
N1269 H1273 0.985 . S
H1270 N1265 0.984 . S
H1271 N1265 0.985 . S
H1272 N1269 0.984 . S
H1273 N1269 0.985 . S
H1274 N1268 0.984 . S
H1275 N1268 0.984 . S
H1276 N1264 0.984 . S
H1277 N1264 0.985 . S
C1278 C1279 1.363 . S
C1278 C1284 1.379 . S
C1278 N1286 1.356 . S
C1279 C1278 1.363 . S
C1279 C1285 1.363 . S
C1280 C1281 1.363 . S
C1280 C1285 1.379 . S
C1280 N1287 1.356 . S
C1281 C1280 1.363 . S
C1281 C1284 1.363 . S
N1282 C1284 1.356 . S
N1282 H1294 0.984 . S
N1282 H1295 0.985 . S
N1283 C1285 1.356 . S
N1283 H1288 0.984 . S
N1283 H1289 0.985 . S
C1284 C1278 1.379 . S
C1284 C1281 1.363 . S
C1284 N1282 1.356 . S
C1285 C1279 1.363 . S
C1285 C1280 1.379 . S
C1285 N1283 1.356 . S
N1286 C1278 1.356 . S
N1286 H1292 0.984 . S
N1286 H1293 0.984 . S
N1287 C1280 1.356 . S
N1287 H1290 0.984 . S
N1287 H1291 0.985 1_545 S
H1288 N1283 0.984 . S
H1289 N1283 0.985 . S
H1290 N1287 0.984 . S
H1291 N1287 0.985 1_565 S
H1292 N1286 0.984 . S
H1293 N1286 0.984 . S
H1294 N1282 0.984 . S
H1295 N1282 0.985 . S
C1296 C1297 1.363 . S
C1296 C1302 1.379 . S
C1296 N1304 1.356 . S
C1297 C1296 1.363 . S
C1297 C1303 1.363 . S
C1298 C1299 1.363 . S
C1298 C1303 1.379 . S
C1298 N1305 1.356 . S
C1299 C1298 1.363 . S
C1299 C1302 1.363 . S
N1300 C1302 1.356 . S
N1300 H1312 0.984 . S
N1300 H1313 0.985 . S
N1301 C1303 1.356 . S
N1301 H1306 0.984 . S
N1301 H1307 0.985 . S
C1302 C1296 1.379 . S
C1302 C1299 1.363 . S
C1302 N1300 1.356 . S
C1303 C1297 1.363 . S
C1303 C1298 1.379 . S
C1303 N1301 1.356 . S
N1304 C1296 1.356 . S
N1304 H1310 0.984 . S
N1304 H1311 0.984 . S
N1305 C1298 1.356 . S
N1305 H1308 0.984 . S
N1305 H1309 0.985 1_655 S
H1306 N1301 0.984 . S
H1307 N1301 0.985 . S
H1308 N1305 0.984 . S
H1309 N1305 0.985 1_455 S
H1310 N1304 0.984 . S
H1311 N1304 0.984 . S
H1312 N1300 0.984 . S
H1313 N1300 0.985 . S
C1314 C1315 1.363 . S
C1314 C1320 1.379 . S
C1314 N1322 1.356 . S
C1315 C1314 1.363 . S
C1315 C1321 1.363 . S
C1316 C1317 1.363 . S
C1316 C1321 1.379 . S
C1316 N1323 1.356 . S
C1317 C1316 1.363 . S
C1317 C1320 1.363 . S
N1318 C1320 1.356 . S
N1318 H1330 0.984 . S
N1318 H1331 0.985 . S
N1319 C1321 1.356 . S
N1319 H1324 0.984 . S
N1319 H1325 0.985 . S
C1320 C1314 1.379 . S
C1320 C1317 1.363 . S
C1320 N1318 1.356 . S
C1321 C1315 1.363 . S
C1321 C1316 1.379 . S
C1321 N1319 1.356 . S
N1322 C1314 1.356 . S
N1322 H1328 0.984 . S
N1322 H1329 0.984 . S
N1323 C1316 1.356 . S
N1323 H1326 0.984 . S
N1323 H1327 0.985 . S
H1324 N1319 0.984 . S
H1325 N1319 0.985 . S
H1326 N1323 0.984 . S
H1327 N1323 0.985 . S
H1328 N1322 0.984 . S
H1329 N1322 0.984 . S
H1330 N1318 0.984 . S
H1331 N1318 0.985 . S
C1332 C1333 1.363 1_545 S
C1332 C1338 1.379 . S
C1332 N1340 1.356 . S
C1333 C1332 1.363 1_565 S
C1333 C1339 1.363 . S
C1334 C1335 1.363 . S
C1334 C1339 1.379 . S
C1334 N1341 1.356 . S
C1335 C1334 1.363 . S
C1335 C1338 1.363 1_565 S
N1336 C1338 1.356 . S
N1336 H1348 0.984 . S
N1336 H1349 0.985 . S
N1337 C1339 1.356 . S
N1337 H1342 0.984 . S
N1337 H1343 0.985 . S
C1338 C1332 1.379 . S
C1338 C1335 1.363 1_545 S
C1338 N1336 1.356 . S
C1339 C1333 1.363 . S
C1339 C1334 1.379 . S
C1339 N1337 1.356 . S
N1340 C1332 1.356 . S
N1340 H1346 0.984 . S
N1340 H1347 0.984 . S
N1341 C1334 1.356 . S
N1341 H1344 0.984 . S
N1341 H1345 0.985 . S
H1342 N1337 0.984 . S
H1343 N1337 0.985 . S
H1344 N1341 0.984 . S
H1345 N1341 0.985 . S
H1346 N1340 0.984 . S
H1347 N1340 0.984 . S
H1348 N1336 0.984 . S
H1349 N1336 0.985 . S
C1350 C1351 1.363 . S
C1350 C1356 1.379 . S
C1350 N1358 1.356 . S
C1351 C1350 1.363 . S
C1351 C1357 1.363 . S
C1352 C1353 1.363 . S
C1352 C1357 1.379 . S
C1352 N1359 1.356 . S
C1353 C1352 1.363 . S
C1353 C1356 1.363 . S
N1354 C1356 1.356 . S
N1354 H1366 0.984 . S
N1354 H1367 0.985 . S
N1355 C1357 1.356 . S
N1355 H1360 0.984 . S
N1355 H1361 0.985 . S
C1356 C1350 1.379 . S
C1356 C1353 1.363 . S
C1356 N1354 1.356 . S
C1357 C1351 1.363 . S
C1357 C1352 1.379 . S
C1357 N1355 1.356 . S
N1358 C1350 1.356 . S
N1358 H1364 0.984 . S
N1358 H1365 0.984 . S
N1359 C1352 1.356 . S
N1359 H1362 0.984 . S
N1359 H1363 0.985 . S
H1360 N1355 0.984 . S
H1361 N1355 0.985 . S
H1362 N1359 0.984 . S
H1363 N1359 0.985 . S
H1364 N1358 0.984 . S
H1365 N1358 0.984 . S
H1366 N1354 0.984 . S
H1367 N1354 0.985 . S
C1368 C1369 1.363 . S
C1368 C1374 1.379 . S
C1368 N1376 1.356 . S
C1369 C1368 1.363 . S
C1369 C1375 1.363 . S
C1370 C1371 1.363 . S
C1370 C1375 1.379 . S
C1370 N1377 1.356 . S
C1371 C1370 1.363 . S
C1371 C1374 1.363 . S
N1372 C1374 1.356 . S
N1372 H1384 0.984 . S
N1372 H1385 0.985 . S
N1373 C1375 1.356 . S
N1373 H1378 0.984 . S
N1373 H1379 0.985 . S
C1374 C1368 1.379 . S
C1374 C1371 1.363 . S
C1374 N1372 1.356 . S
C1375 C1369 1.363 . S
C1375 C1370 1.379 . S
C1375 N1373 1.356 . S
N1376 C1368 1.356 . S
N1376 H1382 0.984 . S
N1376 H1383 0.984 . S
N1377 C1370 1.356 . S
N1377 H1380 0.984 . S
N1377 H1381 0.985 . S
H1378 N1373 0.984 . S
H1379 N1373 0.985 . S
H1380 N1377 0.984 . S
H1381 N1377 0.985 . S
H1382 N1376 0.984 . S
H1383 N1376 0.984 . S
H1384 N1372 0.984 . S
H1385 N1372 0.985 . S
C1386 C1387 1.363 . S
C1386 C1392 1.379 . S
C1386 N1394 1.356 . S
C1387 C1386 1.363 . S
C1387 C1393 1.363 . S
C1388 C1389 1.363 . S
C1388 C1393 1.379 . S
C1388 N1395 1.356 . S
C1389 C1388 1.363 . S
C1389 C1392 1.363 . S
N1390 C1392 1.356 . S
N1390 H1402 0.984 . S
N1390 H1403 0.985 . S
N1391 C1393 1.356 . S
N1391 H1396 0.984 . S
N1391 H1397 0.985 . S
C1392 C1386 1.379 . S
C1392 C1389 1.363 . S
C1392 N1390 1.356 . S
C1393 C1387 1.363 . S
C1393 C1388 1.379 . S
C1393 N1391 1.356 . S
N1394 C1386 1.356 . S
N1394 H1400 0.984 . S
N1394 H1401 0.984 . S
N1395 C1388 1.356 . S
N1395 H1398 0.984 . S
N1395 H1399 0.985 . S
H1396 N1391 0.984 . S
H1397 N1391 0.985 . S
H1398 N1395 0.984 . S
H1399 N1395 0.985 . S
H1400 N1394 0.984 . S
H1401 N1394 0.984 . S
H1402 N1390 0.984 . S
H1403 N1390 0.985 . S
C1404 C1405 1.363 . S
C1404 C1410 1.379 . S
C1404 N1412 1.356 . S
C1405 C1404 1.363 . S
C1405 C1411 1.363 1_565 S
C1406 C1407 1.363 1_545 S
C1406 C1411 1.379 . S
C1406 N1413 1.356 . S
C1407 C1406 1.363 1_565 S
C1407 C1410 1.363 . S
N1408 C1410 1.356 . S
N1408 H1420 0.984 . S
N1408 H1421 0.985 . S
N1409 C1411 1.356 . S
N1409 H1414 0.984 . S
N1409 H1415 0.985 . S
C1410 C1404 1.379 . S
C1410 C1407 1.363 . S
C1410 N1408 1.356 . S
C1411 C1405 1.363 1_545 S
C1411 C1406 1.379 . S
C1411 N1409 1.356 . S
N1412 C1404 1.356 . S
N1412 H1418 0.984 . S
N1412 H1419 0.984 . S
N1413 C1406 1.356 . S
N1413 H1416 0.984 . S
N1413 H1417 0.985 . S
H1414 N1409 0.984 . S
H1415 N1409 0.985 . S
H1416 N1413 0.984 . S
H1417 N1413 0.985 . S
H1418 N1412 0.984 . S
H1419 N1412 0.984 . S
H1420 N1408 0.984 . S
H1421 N1408 0.985 . S
C1422 C1423 1.363 . S
C1422 C1428 1.379 . S
C1422 N1430 1.356 . S
C1423 C1422 1.363 . S
C1423 C1429 1.363 . S
C1424 C1425 1.363 . S
C1424 C1429 1.379 . S
C1424 N1431 1.356 . S
C1425 C1424 1.363 . S
C1425 C1428 1.363 . S
N1426 C1428 1.356 . S
N1426 H1438 0.984 . S
N1426 H1439 0.985 . S
N1427 C1429 1.356 . S
N1427 H1432 0.984 . S
N1427 H1433 0.985 . S
C1428 C1422 1.379 . S
C1428 C1425 1.363 . S
C1428 N1426 1.356 . S
C1429 C1423 1.363 . S
C1429 C1424 1.379 . S
C1429 N1427 1.356 . S
N1430 C1422 1.356 . S
N1430 H1436 0.984 . S
N1430 H1437 0.984 . S
N1431 C1424 1.356 . S
N1431 H1434 0.984 . S
N1431 H1435 0.985 . S
H1432 N1427 0.984 . S
H1433 N1427 0.985 . S
H1434 N1431 0.984 . S
H1435 N1431 0.985 . S
H1436 N1430 0.984 . S
H1437 N1430 0.984 . S
H1438 N1426 0.984 . S
H1439 N1426 0.985 . S
C1440 C1441 1.363 . S
C1440 C1446 1.379 . S
C1440 N1448 1.356 . S
C1441 C1440 1.363 . S
C1441 C1447 1.363 . S
C1442 C1443 1.363 . S
C1442 C1447 1.379 . S
C1442 N1449 1.356 . S
C1443 C1442 1.363 . S
C1443 C1446 1.363 . S
N1444 C1446 1.356 . S
N1444 H1456 0.984 . S
N1444 H1457 0.985 . S
N1445 C1447 1.356 . S
N1445 H1450 0.984 . S
N1445 H1451 0.985 . S
C1446 C1440 1.379 . S
C1446 C1443 1.363 . S
C1446 N1444 1.356 . S
C1447 C1441 1.363 . S
C1447 C1442 1.379 . S
C1447 N1445 1.356 . S
N1448 C1440 1.356 . S
N1448 H1454 0.984 . S
N1448 H1455 0.984 . S
N1449 C1442 1.356 . S
N1449 H1452 0.984 . S
N1449 H1453 0.985 . S
H1450 N1445 0.984 . S
H1451 N1445 0.985 . S
H1452 N1449 0.984 . S
H1453 N1449 0.985 . S
H1454 N1448 0.984 . S
H1455 N1448 0.984 . S
H1456 N1444 0.984 . S
H1457 N1444 0.985 . S
C1458 C1459 1.363 . S
C1458 C1464 1.379 . S
C1458 N1466 1.356 . S
C1459 C1458 1.363 . S
C1459 C1465 1.363 . S
C1460 C1461 1.363 . S
C1460 C1465 1.379 . S
C1460 N1467 1.356 . S
C1461 C1460 1.363 . S
C1461 C1464 1.363 . S
N1462 C1464 1.356 . S
N1462 H1474 0.984 . S
N1462 H1475 0.985 . S
N1463 C1465 1.356 . S
N1463 H1468 0.984 . S
N1463 H1469 0.985 . S
C1464 C1458 1.379 . S
C1464 C1461 1.363 . S
C1464 N1462 1.356 . S
C1465 C1459 1.363 . S
C1465 C1460 1.379 . S
C1465 N1463 1.356 . S
N1466 C1458 1.356 . S
N1466 H1472 0.984 . S
N1466 H1473 0.984 . S
N1467 C1460 1.356 . S
N1467 H1470 0.984 . S
N1467 H1471 0.985 . S
H1468 N1463 0.984 . S
H1469 N1463 0.985 . S
H1470 N1467 0.984 . S
H1471 N1467 0.985 . S
H1472 N1466 0.984 . S
H1473 N1466 0.984 . S
H1474 N1462 0.984 . S
H1475 N1462 0.985 . S
C1476 C1477 1.363 . S
C1476 C1482 1.379 . S
C1476 N1484 1.356 . S
C1477 C1476 1.363 . S
C1477 C1483 1.363 . S
C1478 C1479 1.363 . S
C1478 C1483 1.379 . S
C1478 N1485 1.356 . S
C1479 C1478 1.363 . S
C1479 C1482 1.363 . S
N1480 C1482 1.356 . S
N1480 H1492 0.984 . S
N1480 H1493 0.985 . S
N1481 C1483 1.356 . S
N1481 H1486 0.984 . S
N1481 H1487 0.985 . S
C1482 C1476 1.379 . S
C1482 C1479 1.363 . S
C1482 N1480 1.356 . S
C1483 C1477 1.363 . S
C1483 C1478 1.379 . S
C1483 N1481 1.356 . S
N1484 C1476 1.356 . S
N1484 H1490 0.984 . S
N1484 H1491 0.984 . S
N1485 C1478 1.356 . S
N1485 H1488 0.984 . S
N1485 H1489 0.985 . S
H1486 N1481 0.984 . S
H1487 N1481 0.985 . S
H1488 N1485 0.984 . S
H1489 N1485 0.985 . S
H1490 N1484 0.984 . S
H1491 N1484 0.984 . S
H1492 N1480 0.984 . S
H1493 N1480 0.985 . S
C1494 C1495 1.363 . S
C1494 C1500 1.379 . S
C1494 N1502 1.356 . S
C1495 C1494 1.363 . S
C1495 C1501 1.363 . S
C1496 C1497 1.363 . S
C1496 C1501 1.379 . S
C1496 N1503 1.356 . S
C1497 C1496 1.363 . S
C1497 C1500 1.363 . S
N1498 C1500 1.356 . S
N1498 H1510 0.984 . S
N1498 H1511 0.985 . S
N1499 C1501 1.356 . S
N1499 H1504 0.984 . S
N1499 H1505 0.985 . S
C1500 C1494 1.379 . S
C1500 C1497 1.363 . S
C1500 N1498 1.356 . S
C1501 C1495 1.363 . S
C1501 C1496 1.379 . S
C1501 N1499 1.356 . S
N1502 C1494 1.356 . S
N1502 H1508 0.984 . S
N1502 H1509 0.984 . S
N1503 C1496 1.356 . S
N1503 H1506 0.984 . S
N1503 H1507 0.985 . S
H1504 N1499 0.984 . S
H1505 N1499 0.985 . S
H1506 N1503 0.984 . S
H1507 N1503 0.985 . S
H1508 N1502 0.984 . S
H1509 N1502 0.984 . S
H1510 N1498 0.984 . S
H1511 N1498 0.985 . S
C1512 C1513 1.363 . S
C1512 C1518 1.379 . S
C1512 N1520 1.356 . S
C1513 C1512 1.363 . S
C1513 C1519 1.363 . S
C1514 C1515 1.363 . S
C1514 C1519 1.379 . S
C1514 N1521 1.356 . S
C1515 C1514 1.363 . S
C1515 C1518 1.363 . S
N1516 C1518 1.356 . S
N1516 H1528 0.984 . S
N1516 H1529 0.985 . S
N1517 C1519 1.356 . S
N1517 H1522 0.984 . S
N1517 H1523 0.985 . S
C1518 C1512 1.379 . S
C1518 C1515 1.363 . S
C1518 N1516 1.356 . S
C1519 C1513 1.363 . S
C1519 C1514 1.379 . S
C1519 N1517 1.356 . S
N1520 C1512 1.356 . S
N1520 H1526 0.984 . S
N1520 H1527 0.984 . S
N1521 C1514 1.356 . S
N1521 H1524 0.984 . S
N1521 H1525 0.985 . S
H1522 N1517 0.984 . S
H1523 N1517 0.985 . S
H1524 N1521 0.984 . S
H1525 N1521 0.985 . S
H1526 N1520 0.984 . S
H1527 N1520 0.984 . S
H1528 N1516 0.984 . S
H1529 N1516 0.985 . S
C1530 C1531 1.363 . S
C1530 C1536 1.379 . S
C1530 N1538 1.356 . S
C1531 C1530 1.363 . S
C1531 C1537 1.363 . S
C1532 C1533 1.363 . S
C1532 C1537 1.379 . S
C1532 N1539 1.356 . S
C1533 C1532 1.363 . S
C1533 C1536 1.363 . S
N1534 C1536 1.356 . S
N1534 H1546 0.984 . S
N1534 H1547 0.985 . S
N1535 C1537 1.356 . S
N1535 H1540 0.984 . S
N1535 H1541 0.985 . S
C1536 C1530 1.379 . S
C1536 C1533 1.363 . S
C1536 N1534 1.356 . S
C1537 C1531 1.363 . S
C1537 C1532 1.379 . S
C1537 N1535 1.356 . S
N1538 C1530 1.356 . S
N1538 H1544 0.984 . S
N1538 H1545 0.984 . S
N1539 C1532 1.356 . S
N1539 H1542 0.984 . S
N1539 H1543 0.985 . S
H1540 N1535 0.984 . S
H1541 N1535 0.985 . S
H1542 N1539 0.984 . S
H1543 N1539 0.985 . S
H1544 N1538 0.984 . S
H1545 N1538 0.984 . S
H1546 N1534 0.984 . S
H1547 N1534 0.985 . S
C1548 C1549 1.363 . S
C1548 C1554 1.379 . S
C1548 N1556 1.356 . S
C1549 C1548 1.363 . S
C1549 C1555 1.363 . S
C1550 C1551 1.363 . S
C1550 C1555 1.379 . S
C1550 N1557 1.356 . S
C1551 C1550 1.363 . S
C1551 C1554 1.363 . S
N1552 C1554 1.356 . S
N1552 H1564 0.984 . S
N1552 H1565 0.985 . S
N1553 C1555 1.356 . S
N1553 H1558 0.984 . S
N1553 H1559 0.985 . S
C1554 C1548 1.379 . S
C1554 C1551 1.363 . S
C1554 N1552 1.356 . S
C1555 C1549 1.363 . S
C1555 C1550 1.379 . S
C1555 N1553 1.356 . S
N1556 C1548 1.356 . S
N1556 H1562 0.984 . S
N1556 H1563 0.984 . S
N1557 C1550 1.356 . S
N1557 H1560 0.984 . S
N1557 H1561 0.985 . S
H1558 N1553 0.984 . S
H1559 N1553 0.985 . S
H1560 N1557 0.984 . S
H1561 N1557 0.985 . S
H1562 N1556 0.984 . S
H1563 N1556 0.984 . S
H1564 N1552 0.984 . S
H1565 N1552 0.985 . S
C1566 C1567 1.363 . S
C1566 C1572 1.379 . S
C1566 N1574 1.356 . S
C1567 C1566 1.363 . S
C1567 C1573 1.363 . S
C1568 C1569 1.363 . S
C1568 C1573 1.379 . S
C1568 N1575 1.356 . S
C1569 C1568 1.363 . S
C1569 C1572 1.363 . S
N1570 C1572 1.356 . S
N1570 H1582 0.984 . S
N1570 H1583 0.985 . S
N1571 C1573 1.356 . S
N1571 H1576 0.984 . S
N1571 H1577 0.985 . S
C1572 C1566 1.379 . S
C1572 C1569 1.363 . S
C1572 N1570 1.356 . S
C1573 C1567 1.363 . S
C1573 C1568 1.379 . S
C1573 N1571 1.356 . S
N1574 C1566 1.356 . S
N1574 H1580 0.984 . S
N1574 H1581 0.984 . S
N1575 C1568 1.356 . S
N1575 H1578 0.984 . S
N1575 H1579 0.985 . S
H1576 N1571 0.984 . S
H1577 N1571 0.985 . S
H1578 N1575 0.984 . S
H1579 N1575 0.985 . S
H1580 N1574 0.984 . S
H1581 N1574 0.984 . S
H1582 N1570 0.984 . S
H1583 N1570 0.985 . S
C1584 C1585 1.363 . S
C1584 C1590 1.379 . S
C1584 N1592 1.356 1_655 S
C1585 C1584 1.363 . S
C1585 C1591 1.363 . S
C1586 C1587 1.363 . S
C1586 C1591 1.379 . S
C1586 N1593 1.356 . S
C1587 C1586 1.363 . S
C1587 C1590 1.363 . S
N1588 C1590 1.356 1_455 S
N1588 H1600 0.984 . S
N1588 H1601 0.985 . S
N1589 C1591 1.356 . S
N1589 H1594 0.984 . S
N1589 H1595 0.985 . S
C1590 C1584 1.379 . S
C1590 C1587 1.363 . S
C1590 N1588 1.356 1_655 S
C1591 C1585 1.363 . S
C1591 C1586 1.379 . S
C1591 N1589 1.356 . S
N1592 C1584 1.356 1_455 S
N1592 H1598 0.984 . S
N1592 H1599 0.984 . S
N1593 C1586 1.356 . S
N1593 H1596 0.984 . S
N1593 H1597 0.985 . S
H1594 N1589 0.984 . S
H1595 N1589 0.985 . S
H1596 N1593 0.984 . S
H1597 N1593 0.985 . S
H1598 N1592 0.984 . S
H1599 N1592 0.984 . S
H1600 N1588 0.984 . S
H1601 N1588 0.985 . S
C1602 C1603 1.363 . S
C1602 C1608 1.379 . S
C1602 N1610 1.356 . S
C1603 C1602 1.363 . S
C1603 C1609 1.363 . S
C1604 C1605 1.363 . S
C1604 C1609 1.379 . S
C1604 N1611 1.356 . S
C1605 C1604 1.363 . S
C1605 C1608 1.363 . S
N1606 C1608 1.356 . S
N1606 H1618 0.984 . S
N1606 H1619 0.985 . S
N1607 C1609 1.356 . S
N1607 H1612 0.984 . S
N1607 H1613 0.985 . S
C1608 C1602 1.379 . S
C1608 C1605 1.363 . S
C1608 N1606 1.356 . S
C1609 C1603 1.363 . S
C1609 C1604 1.379 . S
C1609 N1607 1.356 . S
N1610 C1602 1.356 . S
N1610 H1616 0.984 . S
N1610 H1617 0.984 . S
N1611 C1604 1.356 . S
N1611 H1614 0.984 . S
N1611 H1615 0.985 . S
H1612 N1607 0.984 . S
H1613 N1607 0.985 . S
H1614 N1611 0.984 . S
H1615 N1611 0.985 . S
H1616 N1610 0.984 . S
H1617 N1610 0.984 . S
H1618 N1606 0.984 . S
H1619 N1606 0.985 . S
C1620 C1621 1.363 . S
C1620 C1626 1.379 . S
C1620 N1628 1.356 . S
C1621 C1620 1.363 . S
C1621 C1627 1.363 . S
C1622 C1623 1.363 . S
C1622 C1627 1.379 . S
C1622 N1629 1.356 . S
C1623 C1622 1.363 . S
C1623 C1626 1.363 . S
N1624 C1626 1.356 . S
N1624 H1636 0.984 . S
N1624 H1637 0.985 . S
N1625 C1627 1.356 . S
N1625 H1630 0.984 . S
N1625 H1631 0.985 . S
C1626 C1620 1.379 . S
C1626 C1623 1.363 . S
C1626 N1624 1.356 . S
C1627 C1621 1.363 . S
C1627 C1622 1.379 . S
C1627 N1625 1.356 . S
N1628 C1620 1.356 . S
N1628 H1634 0.984 . S
N1628 H1635 0.984 . S
N1629 C1622 1.356 . S
N1629 H1632 0.984 . S
N1629 H1633 0.985 . S
H1630 N1625 0.984 . S
H1631 N1625 0.985 . S
H1632 N1629 0.984 . S
H1633 N1629 0.985 . S
H1634 N1628 0.984 . S
H1635 N1628 0.984 . S
H1636 N1624 0.984 . S
H1637 N1624 0.985 . S
C1638 C1639 1.363 . S
C1638 C1644 1.379 . S
C1638 N1646 1.356 . S
C1639 C1638 1.363 . S
C1639 C1645 1.363 . S
C1640 C1641 1.363 . S
C1640 C1645 1.379 . S
C1640 N1647 1.356 . S
C1641 C1640 1.363 . S
C1641 C1644 1.363 . S
N1642 C1644 1.356 . S
N1642 H1654 0.984 . S
N1642 H1655 0.985 . S
N1643 C1645 1.356 . S
N1643 H1648 0.984 . S
N1643 H1649 0.985 . S
C1644 C1638 1.379 . S
C1644 C1641 1.363 . S
C1644 N1642 1.356 . S
C1645 C1639 1.363 . S
C1645 C1640 1.379 . S
C1645 N1643 1.356 . S
N1646 C1638 1.356 . S
N1646 H1652 0.984 . S
N1646 H1653 0.984 . S
N1647 C1640 1.356 . S
N1647 H1650 0.984 . S
N1647 H1651 0.985 . S
H1648 N1643 0.984 . S
H1649 N1643 0.985 . S
H1650 N1647 0.984 . S
H1651 N1647 0.985 . S
H1652 N1646 0.984 . S
H1653 N1646 0.984 . S
H1654 N1642 0.984 . S
H1655 N1642 0.985 . S
C1656 C1657 1.363 . S
C1656 C1662 1.379 . S
C1656 N1664 1.356 . S
C1657 C1656 1.363 . S
C1657 C1663 1.363 . S
C1658 C1659 1.363 . S
C1658 C1663 1.379 . S
C1658 N1665 1.356 . S
C1659 C1658 1.363 . S
C1659 C1662 1.363 . S
N1660 C1662 1.356 . S
N1660 H1672 0.984 . S
N1660 H1673 0.985 . S
N1661 C1663 1.356 . S
N1661 H1666 0.984 . S
N1661 H1667 0.985 . S
C1662 C1656 1.379 . S
C1662 C1659 1.363 . S
C1662 N1660 1.356 . S
C1663 C1657 1.363 . S
C1663 C1658 1.379 . S
C1663 N1661 1.356 . S
N1664 C1656 1.356 . S
N1664 H1670 0.984 . S
N1664 H1671 0.984 . S
N1665 C1658 1.356 . S
N1665 H1668 0.984 . S
N1665 H1669 0.985 . S
H1666 N1661 0.984 . S
H1667 N1661 0.985 . S
H1668 N1665 0.984 . S
H1669 N1665 0.985 . S
H1670 N1664 0.984 . S
H1671 N1664 0.984 . S
H1672 N1660 0.984 . S
H1673 N1660 0.985 . S
C1674 C1675 1.363 . S
C1674 C1680 1.379 . S
C1674 N1682 1.356 . S
C1675 C1674 1.363 . S
C1675 C1681 1.363 . S
C1676 C1677 1.363 . S
C1676 C1681 1.379 . S
C1676 N1683 1.356 . S
C1677 C1676 1.363 . S
C1677 C1680 1.363 . S
N1678 C1680 1.356 . S
N1678 H1690 0.984 . S
N1678 H1691 0.985 . S
N1679 C1681 1.356 . S
N1679 H1684 0.984 . S
N1679 H1685 0.985 . S
C1680 C1674 1.379 . S
C1680 C1677 1.363 . S
C1680 N1678 1.356 . S
C1681 C1675 1.363 . S
C1681 C1676 1.379 . S
C1681 N1679 1.356 . S
N1682 C1674 1.356 . S
N1682 H1688 0.984 . S
N1682 H1689 0.984 . S
N1683 C1676 1.356 . S
N1683 H1686 0.984 . S
N1683 H1687 0.985 . S
H1684 N1679 0.984 . S
H1685 N1679 0.985 . S
H1686 N1683 0.984 . S
H1687 N1683 0.985 . S
H1688 N1682 0.984 . S
H1689 N1682 0.984 . S
H1690 N1678 0.984 . S
H1691 N1678 0.985 . S
C1692 C1693 1.363 . S
C1692 C1698 1.379 . S
C1692 N1700 1.356 . S
C1693 C1692 1.363 . S
C1693 C1699 1.363 . S
C1694 C1695 1.363 . S
C1694 C1699 1.379 . S
C1694 N1701 1.356 . S
C1695 C1694 1.363 . S
C1695 C1698 1.363 . S
N1696 C1698 1.356 . S
N1696 H1708 0.984 . S
N1696 H1709 0.985 . S
N1697 C1699 1.356 . S
N1697 H1702 0.984 . S
N1697 H1703 0.985 . S
C1698 C1692 1.379 . S
C1698 C1695 1.363 . S
C1698 N1696 1.356 . S
C1699 C1693 1.363 . S
C1699 C1694 1.379 . S
C1699 N1697 1.356 . S
N1700 C1692 1.356 . S
N1700 H1706 0.984 . S
N1700 H1707 0.984 . S
N1701 C1694 1.356 . S
N1701 H1704 0.984 . S
N1701 H1705 0.985 . S
H1702 N1697 0.984 . S
H1703 N1697 0.985 . S
H1704 N1701 0.984 . S
H1705 N1701 0.985 . S
H1706 N1700 0.984 . S
H1707 N1700 0.984 . S
H1708 N1696 0.984 . S
H1709 N1696 0.985 . S
C1710 C1711 1.363 . S
C1710 C1716 1.379 . S
C1710 N1718 1.356 . S
C1711 C1710 1.363 . S
C1711 C1717 1.363 . S
C1712 C1713 1.363 . S
C1712 C1717 1.379 . S
C1712 N1719 1.356 . S
C1713 C1712 1.363 . S
C1713 C1716 1.363 . S
N1714 C1716 1.356 . S
N1714 H1726 0.984 . S
N1714 H1727 0.985 . S
N1715 C1717 1.356 . S
N1715 H1720 0.984 . S
N1715 H1721 0.985 . S
C1716 C1710 1.379 . S
C1716 C1713 1.363 . S
C1716 N1714 1.356 . S
C1717 C1711 1.363 . S
C1717 C1712 1.379 . S
C1717 N1715 1.356 . S
N1718 C1710 1.356 . S
N1718 H1724 0.984 . S
N1718 H1725 0.984 . S
N1719 C1712 1.356 . S
N1719 H1722 0.984 . S
N1719 H1723 0.985 . S
H1720 N1715 0.984 . S
H1721 N1715 0.985 . S
H1722 N1719 0.984 . S
H1723 N1719 0.985 . S
H1724 N1718 0.984 . S
H1725 N1718 0.984 . S
H1726 N1714 0.984 . S
H1727 N1714 0.985 . S
C1728 C1729 1.363 1_545 S
C1728 C1734 1.379 . S
C1728 N1736 1.356 . S
C1729 C1728 1.363 1_565 S
C1729 C1735 1.363 . S
C1730 C1731 1.363 . S
C1730 C1735 1.379 . S
C1730 N1737 1.356 . S
C1731 C1730 1.363 . S
C1731 C1734 1.363 1_565 S
N1732 C1734 1.356 . S
N1732 H1744 0.984 . S
N1732 H1745 0.985 . S
N1733 C1735 1.356 . S
N1733 H1738 0.984 . S
N1733 H1739 0.985 . S
C1734 C1728 1.379 . S
C1734 C1731 1.363 1_545 S
C1734 N1732 1.356 . S
C1735 C1729 1.363 . S
C1735 C1730 1.379 . S
C1735 N1733 1.356 . S
N1736 C1728 1.356 . S
N1736 H1742 0.984 . S
N1736 H1743 0.984 . S
N1737 C1730 1.356 . S
N1737 H1740 0.984 . S
N1737 H1741 0.985 . S
H1738 N1733 0.984 . S
H1739 N1733 0.985 . S
H1740 N1737 0.984 . S
H1741 N1737 0.985 . S
H1742 N1736 0.984 . S
H1743 N1736 0.984 . S
H1744 N1732 0.984 . S
H1745 N1732 0.985 . S
C1746 C1747 1.363 . S
C1746 C1752 1.379 . S
C1746 N1754 1.356 . S
C1747 C1746 1.363 . S
C1747 C1753 1.363 . S
C1748 C1749 1.363 . S
C1748 C1753 1.379 . S
C1748 N1755 1.356 . S
C1749 C1748 1.363 . S
C1749 C1752 1.363 . S
N1750 C1752 1.356 . S
N1750 H1762 0.984 . S
N1750 H1763 0.985 . S
N1751 C1753 1.356 . S
N1751 H1756 0.984 . S
N1751 H1757 0.985 . S
C1752 C1746 1.379 . S
C1752 C1749 1.363 . S
C1752 N1750 1.356 . S
C1753 C1747 1.363 . S
C1753 C1748 1.379 . S
C1753 N1751 1.356 . S
N1754 C1746 1.356 . S
N1754 H1760 0.984 . S
N1754 H1761 0.984 . S
N1755 C1748 1.356 . S
N1755 H1758 0.984 . S
N1755 H1759 0.985 . S
H1756 N1751 0.984 . S
H1757 N1751 0.985 . S
H1758 N1755 0.984 . S
H1759 N1755 0.985 . S
H1760 N1754 0.984 . S
H1761 N1754 0.984 . S
H1762 N1750 0.984 . S
H1763 N1750 0.985 . S
C469 C4 1.805 . S
C471 C153 1.805 . S
C487 C127 1.805 . S
C489 C17 1.805 . S
C505 C134 1.805 . S
C507 C30 1.805 . S
C523 C49 1.805 . S
C525 C95 1.805 . S
C541 C56 1.805 . S
C543 C108 1.805 . S
C559 C69 1.805 . S
C561 C88 1.805 . S
C577 C160 1.805 . S
C579 C303 1.805 . S
C595 C277 1.805 . S
C597 C173 1.805 . S
C613 C186 1.805 . S
C615 C290 1.805 . S
C631 C205 1.805 . S
C633 C257 1.805 . S
C649 C218 1.805 . S
C651 C264 1.805 . S
C667 C225 1.805 . S
C669 C244 1.805 . S
C685 C316 1.805 . S
C687 C465 1.805 . S
C703 C329 1.805 . S
C705 C433 1.805 . S
C721 C452 1.805 . S
C723 C342 1.805 . S
C739 C361 1.805 . S
C741 C413 1.805 . S
C757 C420 1.805 . S
C759 C368 1.805 . S
C775 C400 1.805 . S
C777 C381 1.805 . S
C793 C3 1.356 . S
C795 C200 1.356 . S
C811 C16 1.356 . S
C813 C213 1.356 . S
C829 C29 1.356 . S
C831 C224 1.356 . S
C847 C44 1.356 . S
C849 C315 1.356 . S
C865 C328 1.356 . S
C867 C55 1.356 . S
C883 C341 1.356 . S
C885 C68 1.356 . S
C901 C83 1.356 . S
C903 C432 1.356 . S
C919 C447 1.356 . S
C921 C94 1.356 . S
C937 C107 1.356 . S
C939 C460 1.356 . S
C955 C122 1.356 . S
C957 C239 1.356 . S
C973 C133 1.356 . S
C975 C252 1.356 . S
C991 C148 1.356 . S
C993 C263 1.356 . S
C1009 C356 1.356 . S
C1011 C159 1.356 . S
C1027 C172 1.356 . S
C1029 C367 1.356 . S
C1045 C185 1.356 . S
C1047 C380 1.356 . S
C1063 C395 1.356 . S
C1065 C276 1.356 . S
C1081 C408 1.356 . S
C1083 C289 1.356 . S
C1099 C302 1.356 . S
C1101 C419 1.356 . S
C1117 C10 1.455 . S
C1119 C62 1.455 . S
C1135 C75 1.455 . S
C1137 C23 1.455 . S
C1153 C43 1.455 . S
C1155 C36 1.455 . S
C1171 C82 1.455 . S
C1173 C140 1.455 . S
C1189 C147 1.455 . S
C1191 C101 1.455 . S
C1207 C114 1.455 . S
C1209 C121 1.455 . S
C1225 C212 1.455 . S
C1227 C166 1.455 . S
C1243 C179 1.455 . S
C1245 C231 1.455 . S
C1261 C192 1.455 . S
C1263 C199 1.455 . S
C1279 C296 1.455 . S
C1281 C238 1.455 . S
C1297 C309 1.455 . S
C1299 C251 1.455 . S
C1315 C283 1.455 . S
C1317 C270 1.455 . S
C1333 C322 1.455 . S
C1335 C374 1.455 . S
C1351 C335 1.455 . S
C1353 C387 1.455 . S
C1369 C348 1.455 . S
C1371 C355 1.455 . S
C1387 C446 1.455 . S
C1389 C394 1.455 . S
C1405 C459 1.455 . S
C1407 C407 1.455 . S
C1423 C439 1.455 . S
C1425 C426 1.455 . S
C1441 C120 1.520 . S
C1443 C5 1.520 . S
C1459 C135 1.520 . S
C1461 C18 1.520 . S
C1477 C31 1.520 . S
C1479 C146 1.520 . S
C1495 C42 1.520 . S
C1497 C81 1.520 . S
C1513 C96 1.520 . S
C1515 C57 1.520 . S
C1531 C70 1.520 . S
C1533 C109 1.520 . S
C1549 C278 1.520 . S
C1551 C161 1.520 . S
C1567 C291 1.520 . S
C1569 C174 1.520 . S
C1585 C187 1.520 . S
C1587 C304 1.520 . S
C1603 C237 1.520 . S
C1605 C198 1.520 . S
C1621 C250 1.520 . S
C1623 C211 1.520 . S
C1639 C265 1.520 . S
C1641 C226 1.520 . S
C1657 C317 1.520 . S
C1659 C434 1.520 . S
C1675 C445 1.520 . S
C1677 C330 1.520 . S
C1693 C343 1.520 . S
C1695 C458 1.520 . S
C1711 C354 1.520 . S
C1713 C393 1.520 . S
C1729 C369 1.520 . S
C1731 C406 1.520 . S
C1747 C421 1.520 . S
C1749 C382 1.520 . S
