# Generated by pormake.
# Topology afw, (4)-cn, num edge types: 1
# Building blocks:
#     Node 0, Type 0, BuildingBlock: KUFVIS_clean_sbu_0, # of connection points: 4
#     Node 1, Type 0, BuildingBlock: KUFVIS_clean_sbu_0, # of connection points: 4
#     Node 2, Type 0, BuildingBlock: KUFVIS_clean_sbu_0, # of connection points: 4
#     Node 3, Type 0, BuildingBlock: KUFVIS_clean_sbu_0, # of connection points: 4
#     Node 4, Type 0, BuildingBlock: KUFVIS_clean_sbu_0, # of connection points: 4
#     Node 5, Type 0, BuildingBlock: KUFVIS_clean_sbu_0, # of connection points: 4
#     Node 6, Type 0, BuildingBlock: KUFVIS_clean_sbu_0, # of connection points: 4
#     Node 7, Type 0, BuildingBlock: KUFVIS_clean_sbu_0, # of connection points: 4
#     Node 8, Type 0, BuildingBlock: KUFVIS_clean_sbu_0, # of connection points: 4
#     Edge 9, Type (0, 0), BuildingBlock: KIFKEQ_clean_linker_1, # of connection points: 2
#     Edge 10, Type (0, 0), BuildingBlock: KIFKEQ_clean_linker_1, # of connection points: 2
#     Edge 11, Type (0, 0), BuildingBlock: KIFKEQ_clean_linker_1, # of connection points: 2
#     Edge 12, Type (0, 0), BuildingBlock: KIFKEQ_clean_linker_1, # of connection points: 2
#     Edge 13, Type (0, 0), BuildingBlock: KIFKEQ_clean_linker_1, # of connection points: 2
#     Edge 14, Type (0, 0), BuildingBlock: KIFKEQ_clean_linker_1, # of connection points: 2
#     Edge 15, Type (0, 0), BuildingBlock: KIFKEQ_clean_linker_1, # of connection points: 2
#     Edge 16, Type (0, 0), BuildingBlock: KIFKEQ_clean_linker_1, # of connection points: 2
#     Edge 17, Type (0, 0), BuildingBlock: KIFKEQ_clean_linker_1, # of connection points: 2
#     Edge 18, Type (0, 0), BuildingBlock: KIFKEQ_clean_linker_1, # of connection points: 2
#     Edge 19, Type (0, 0), BuildingBlock: KIFKEQ_clean_linker_1, # of connection points: 2
#     Edge 20, Type (0, 0), BuildingBlock: KIFKEQ_clean_linker_1, # of connection points: 2
#     Edge 21, Type (0, 0), BuildingBlock: KIFKEQ_clean_linker_1, # of connection points: 2
#     Edge 22, Type (0, 0), BuildingBlock: KIFKEQ_clean_linker_1, # of connection points: 2
#     Edge 23, Type (0, 0), BuildingBlock: KIFKEQ_clean_linker_1, # of connection points: 2
#     Edge 24, Type (0, 0), BuildingBlock: KIFKEQ_clean_linker_1, # of connection points: 2
#     Edge 25, Type (0, 0), BuildingBlock: KIFKEQ_clean_linker_1, # of connection points: 2
#     Edge 26, Type (0, 0), BuildingBlock: KIFKEQ_clean_linker_1, # of connection points: 2
# Relax obj value: 0.208
# Max RMSD: 0.226
# Mean RMSD: 0.211
data_MOF--net-afw--node1-KUFVIS_clean_sbu_0--edge1-KIFKEQ_clean_linker_1
_symmetry_space_group_name_H-M    P1
_symmetry_Int_Tables_number       1
_symmetry_cell_setting            triclinic
loop_
_symmetry_equiv_pos_as_xyz
'x, y, z'
_cell_length_a     42.39882
_cell_length_b     43.605343
_cell_length_c     33.025664
_cell_angle_alpha  91.002085
_cell_angle_beta   90.291367
_cell_angle_gamma 119.47487
loop_
_atom_site_label
_atom_site_type_symbol
_atom_site_fract_x
_atom_site_fract_y
_atom_site_fract_z
_atom_type_partial_charge
Mn0 Mn 0.01642 0.19966 0.01225 0.0
Mn1 Mn 0.0975 0.26531 0.04586 0.0
C2 C 0.06829 0.19527 0.00433 0.0
C3 C 0.96316 0.14648 0.02237 0.0
C4 C 0.05994 0.26974 0.96947 0.0
O5 O 0.00229 0.22727 0.05159 0.0
O6 O 0.05788 0.26796 0.07459 0.0
C7 C 0.09634 0.24345 0.13045 0.0
N8 N 0.11254 0.25167 0.0937 0.0
C9 C 0.16116 0.24278 0.11739 0.0
C10 C 0.1451 0.23442 0.15557 0.0
C11 C 0.11254 0.23473 0.16209 0.0
C12 C 0.14401 0.2517 0.08715 0.0
H13 H 0.07122 0.24349 0.13555 0.0
C14 C 0.0232 0.25336 0.07478 0.0
O15 O 0.96512 0.16784 0.99431 0.0
O16 O 0.99151 0.15681 0.04558 0.0
N17 N 0.13783 0.2649 0.02061 0.0
C18 C 0.14812 0.27069 0.9812 0.0
C19 C 0.17926 0.26959 0.9691 0.0
C20 C 0.19951 0.26266 0.99762 0.0
C21 C 0.18847 0.25692 0.03803 0.0
C22 C 0.15738 0.25863 0.0484 0.0
H23 H 0.13251 0.27579 0.95911 0.0
O24 O 0.04017 0.17705 0.98101 0.0
O25 O 0.06527 0.21571 0.03124 0.0
O26 O 0.03258 0.23881 0.97064 0.0
O27 O 0.08518 0.28209 0.99635 0.0
C28 C 0.20656 0.2487 0.06819 0.0
C29 C 0.19295 0.24168 0.10786 0.0
H30 H 0.1573 0.22733 0.17994 0.0
H31 H 0.09988 0.22812 0.19141 0.0
H32 H 0.18752 0.2739 0.93782 0.0
H33 H 0.2233 0.26147 0.98807 0.0
H34 H 0.23065 0.24714 0.06105 0.0
H35 H 0.20677 0.23483 0.13061 0.0
Mn36 Mn 0.82034 0.83279 0.02137 0.0
Mn37 Mn 0.83427 0.76824 0.98275 0.0
C38 C 0.8755 0.8351 0.02985 0.0
C39 C 0.82334 0.88744 0.0147 0.0
C40 C 0.79159 0.76016 0.05902 0.0
O41 O 0.77914 0.80841 0.97996 0.0
O42 O 0.79202 0.76715 0.95527 0.0
C43 C 0.85613 0.79623 0.90045 0.0
N44 N 0.86365 0.78536 0.93582 0.0
C45 C 0.9225 0.79821 0.91244 0.0
C46 C 0.91527 0.80929 0.87566 0.0
C47 C 0.88195 0.80832 0.86966 0.0
C48 C 0.89562 0.78617 0.9419 0.0
H49 H 0.83069 0.79581 0.89584 0.0
C50 C 0.77298 0.78263 0.95606 0.0
O51 O 0.80258 0.86518 0.04137 0.0
O52 O 0.84078 0.87722 0.99098 0.0
N53 N 0.87478 0.76683 0.00666 0.0
C54 C 0.8781 0.75658 0.04445 0.0
C55 C 0.91014 0.7566 0.05557 0.0
C56 C 0.93835 0.76707 0.02773 0.0
C57 C 0.93415 0.77714 0.98887 0.0
C58 C 0.90141 0.77612 0.97931 0.0
H59 H 0.85657 0.74867 0.06604 0.0
O60 O 0.86615 0.85266 0.05439 0.0
O61 O 0.85227 0.81674 0.00145 0.0
O62 O 0.79524 0.79108 0.05974 0.0
O63 O 0.8048 0.74905 0.03146 0.0
C64 C 0.96141 0.78877 0.95951 0.0
C65 C 0.95561 0.79934 0.92135 0.0
H66 H 0.93522 0.8189 0.85195 0.0
H67 H 0.87627 0.81703 0.84144 0.0
H68 H 0.91318 0.74881 0.08563 0.0
H69 H 0.96319 0.76747 0.03658 0.0
H70 H 0.98711 0.79011 0.96615 0.0
H71 H 0.97696 0.80867 0.89922 0.0
Mn72 Mn 0.19779 0.00482 0.01002 0.0
Mn73 Mn 0.18486 0.92718 0.04428 0.0
C74 C 0.14229 0.95458 0.00227 0.0
C75 C 0.19526 0.05643 0.02058 0.0
C76 C 0.2244 0.95949 0.96671 0.0
O77 O 0.24034 0.0199 0.04886 0.0
O78 O 0.22827 0.96671 0.07142 0.0
C79 C 0.16654 0.9347 0.12895 0.0
N80 N 0.15737 0.91661 0.09285 0.0
C81 C 0.09896 0.87417 0.11769 0.0
C82 C 0.10789 0.89222 0.1552 0.0
C83 C 0.14183 0.9226 0.16084 0.0
C84 C 0.12483 0.88724 0.08715 0.0
H85 H 0.19243 0.95827 0.13334 0.0
C86 C 0.2473 1.00047 0.07149 0.0
O87 O 0.21528 0.05418 0.99227 0.0
O88 O 0.17857 0.02952 0.04363 0.0
N89 N 0.14318 0.88714 0.02087 0.0
C90 C 0.13804 0.87373 0.9823 0.0
C91 C 0.10514 0.84365 0.97145 0.0
C92 C 0.07786 0.8277 0.00031 0.0
C93 C 0.08384 0.84182 0.03987 0.0
C94 C 0.11739 0.87152 0.0491 0.0
H95 H 0.15873 0.8861 0.95985 0.0
O96 O 0.15105 0.98102 0.97878 0.0
O97 O 0.16636 0.95841 0.02922 0.0
O98 O 0.2213 0.98714 0.96875 0.0
O99 O 0.21219 0.93569 0.99351 0.0
C100 C 0.05755 0.82801 0.07026 0.0
C101 C 0.06509 0.84418 0.10913 0.0
H102 H 0.08878 0.88317 0.17976 0.0
H103 H 0.14884 0.93679 0.18964 0.0
H104 H 0.10069 0.83298 0.94081 0.0
H105 H 0.05235 0.80478 0.99168 0.0
H106 H 0.03128 0.80522 0.06392 0.0
H107 H 0.0445 0.83357 0.1321 0.0
Mn108 Mn 0.66674 0.52528 0.33083 0.0
Mn109 Mn 0.74537 0.58965 0.37113 0.0
C110 C 0.71965 0.52306 0.32338 0.0
C111 C 0.61435 0.47078 0.33736 0.0
C112 C 0.7108 0.59827 0.29452 0.0
O113 O 0.65001 0.54955 0.37162 0.0
O114 O 0.70397 0.58944 0.39933 0.0
C115 C 0.74016 0.5608 0.45284 0.0
N116 N 0.75822 0.57219 0.41744 0.0
C117 C 0.80468 0.55957 0.4398 0.0
C118 C 0.7867 0.54794 0.4766 0.0
C119 C 0.7543 0.54856 0.48313 0.0
C120 C 0.78949 0.57182 0.41089 0.0
H121 H 0.71507 0.56092 0.45787 0.0
C122 C 0.66926 0.5741 0.39732 0.0
O123 O 0.6162 0.49291 0.31032 0.0
O124 O 0.64218 0.48096 0.36127 0.0
N125 N 0.7873 0.59187 0.34666 0.0
C126 C 0.80027 0.60222 0.30873 0.0
C127 C 0.8321 0.6023 0.29699 0.0
C128 C 0.85026 0.59177 0.32433 0.0
C129 C 0.83654 0.58148 0.36328 0.0
C130 C 0.80497 0.58239 0.37347 0.0
H131 H 0.78631 0.61011 0.28749 0.0
O132 O 0.69262 0.50552 0.29846 0.0
O133 O 0.71478 0.54131 0.35156 0.0
O134 O 0.68388 0.56696 0.29259 0.0
O135 O 0.73465 0.60945 0.32302 0.0
C136 C 0.85254 0.56968 0.3921 0.0
C137 C 0.83661 0.55871 0.43031 0.0
H138 H 0.79733 0.53818 0.49989 0.0
H139 H 0.74015 0.53944 0.51136 0.0
H140 H 0.84248 0.61021 0.26684 0.0
H141 H 0.87455 0.59144 0.31499 0.0
H142 H 0.87683 0.56852 0.38501 0.0
H143 H 0.8489 0.54924 0.452 0.0
Mn144 Mn 0.49529 0.16071 0.34403 0.0
Mn145 Mn 0.51382 0.09802 0.30972 0.0
C146 C 0.55183 0.16634 0.35511 0.0
C147 C 0.49426 0.21306 0.33357 0.0
C148 C 0.4685 0.08958 0.38403 0.0
O149 O 0.45464 0.13305 0.30272 0.0
O150 O 0.47242 0.09533 0.27856 0.0
C151 C 0.53907 0.12576 0.22798 0.0
N152 N 0.54534 0.11556 0.2645 0.0
C153 C 0.60568 0.1298 0.24545 0.0
C154 C 0.59978 0.14024 0.20754 0.0
C155 C 0.56634 0.13825 0.19881 0.0
C156 C 0.57744 0.11744 0.27325 0.0
H157 H 0.51351 0.12451 0.22124 0.0
C158 C 0.45127 0.10853 0.27824 0.0
O159 O 0.47426 0.1911 0.36089 0.0
O160 O 0.51357 0.20389 0.31152 0.0
N161 N 0.55382 0.09823 0.33715 0.0
C162 C 0.55555 0.08813 0.37555 0.0
C163 C 0.58732 0.0888 0.38919 0.0
C164 C 0.61689 0.09971 0.3632 0.0
C165 C 0.61434 0.10962 0.32369 0.0
C166 C 0.58181 0.10795 0.31159 0.0
H167 H 0.53293 0.07974 0.39568 0.0
O168 O 0.54099 0.18389 0.37767 0.0
O169 O 0.5294 0.14642 0.32689 0.0
O170 O 0.47181 0.12032 0.38395 0.0
O171 O 0.48216 0.07837 0.35704 0.0
C172 C 0.64297 0.12158 0.29603 0.0
C173 C 0.63868 0.13176 0.25698 0.0
H174 H 0.62081 0.15008 0.18503 0.0
H175 H 0.56166 0.14644 0.1697 0.0
H176 H 0.58907 0.0811 0.41972 0.0
H177 H 0.6415 0.10058 0.37399 0.0
H178 H 0.66855 0.12343 0.30463 0.0
H179 H 0.66105 0.14133 0.23616 0.0
Mn180 Mn 0.87063 0.35081 0.34293 0.0
Mn181 Mn 0.93149 0.42897 0.3048 0.0
C182 C 0.86235 0.39911 0.34921 0.0
C183 C 0.81833 0.29655 0.33797 0.0
C184 C 0.94401 0.40063 0.38272 0.0
O185 O 0.89831 0.33679 0.30361 0.0
O186 O 0.93638 0.39015 0.27842 0.0
C187 C 0.90171 0.41765 0.22115 0.0
N188 N 0.91162 0.43683 0.25652 0.0
C189 C 0.89298 0.47689 0.23091 0.0
C190 C 0.88281 0.45769 0.19413 0.0
C191 C 0.88719 0.42794 0.18926 0.0
C192 C 0.90759 0.46555 0.2615 0.0
H193 H 0.90473 0.39459 0.21735 0.0
C194 C 0.92329 0.35664 0.27955 0.0
O195 O 0.84325 0.30271 0.36494 0.0
O196 O 0.82465 0.32119 0.31251 0.0
N197 N 0.92884 0.46841 0.32735 0.0
C198 C 0.93846 0.48314 0.36529 0.0
C199 C 0.93518 0.51287 0.37531 0.0
C200 C 0.92207 0.52715 0.34627 0.0
C201 C 0.91257 0.5117 0.30736 0.0
C202 C 0.91694 0.48242 0.29891 0.0
H203 H 0.94828 0.47214 0.38785 0.0
O204 O 0.84679 0.3733 0.37403 0.0
O205 O 0.88228 0.39589 0.32164 0.0
O206 O 0.91367 0.37226 0.38201 0.0
O207 O 0.95383 0.42367 0.35519 0.0
C208 C 0.89832 0.52381 0.27686 0.0
C209 C 0.88849 0.50639 0.23868 0.0
H210 H 0.87133 0.46537 0.16957 0.0
H211 H 0.87922 0.41287 0.16104 0.0
H212 H 0.94248 0.5246 0.40544 0.0
H213 H 0.91923 0.54986 0.35423 0.0
H214 H 0.89438 0.54622 0.28262 0.0
H215 H 0.87713 0.51568 0.21565 0.0
Mn216 Mn 0.34337 0.86346 0.66503 0.0
Mn217 Mn 0.42112 0.92995 0.70428 0.0
C218 C 0.39711 0.86269 0.65797 0.0
C219 C 0.29134 0.80906 0.67376 0.0
C220 C 0.38583 0.93562 0.62656 0.0
O221 O 0.32592 0.88813 0.70428 0.0
O222 O 0.3792 0.92888 0.7323 0.0
C223 C 0.41686 0.90228 0.78648 0.0
N224 N 0.43484 0.91377 0.75105 0.0
C225 C 0.48244 0.90302 0.77396 0.0
C226 C 0.46456 0.89132 0.8108 0.0
C227 C 0.43161 0.89093 0.81706 0.0
C228 C 0.46655 0.91424 0.7447 0.0
H229 H 0.39136 0.90162 0.7913 0.0
C230 C 0.3445 0.91297 0.72989 0.0
O231 O 0.2928 0.8301 0.6455 0.0
O232 O 0.31959 0.82006 0.6972 0.0
N233 N 0.4637 0.93341 0.68015 0.0
C234 C 0.47692 0.94437 0.64245 0.0
C235 C 0.50957 0.94593 0.63118 0.0
C236 C 0.52829 0.93628 0.65878 0.0
C237 C 0.51436 0.92544 0.69755 0.0
C238 C 0.48199 0.92492 0.70728 0.0
H239 H 0.4626 0.9517 0.62104 0.0
O240 O 0.36984 0.84365 0.63387 0.0
O241 O 0.39178 0.8811 0.68558 0.0
O242 O 0.35967 0.90389 0.6252 0.0
O243 O 0.40933 0.94819 0.65543 0.0
C244 C 0.53102 0.91463 0.72669 0.0
C245 C 0.51504 0.90336 0.76483 0.0
H246 H 0.47572 0.88231 0.83435 0.0
H247 H 0.41754 0.88174 0.84532 0.0
H248 H 0.52015 0.95433 0.6012 0.0
H249 H 0.55323 0.93711 0.6498 0.0
H250 H 0.55594 0.91452 0.71993 0.0
H251 H 0.52789 0.89471 0.78681 0.0
Mn252 Mn 0.15549 0.49736 0.69097 0.0
Mn253 Mn 0.16973 0.43319 0.65241 0.0
C254 C 0.21097 0.50037 0.69949 0.0
C255 C 0.15735 0.55124 0.68203 0.0
C256 C 0.12622 0.42494 0.72836 0.0
O257 O 0.11424 0.47218 0.65004 0.0
O258 O 0.12903 0.43331 0.62233 0.0
C259 C 0.19497 0.46162 0.57091 0.0
N260 N 0.201 0.4505 0.60694 0.0
C261 C 0.26072 0.46338 0.58689 0.0
C262 C 0.25503 0.47473 0.54948 0.0
C263 C 0.22201 0.47385 0.54147 0.0
C264 C 0.23262 0.45109 0.61489 0.0
H265 H 0.16978 0.46132 0.56475 0.0
C266 C 0.10952 0.44832 0.62385 0.0
O267 O 0.13723 0.52974 0.7097 0.0
O268 O 0.17519 0.54089 0.6592 0.0
N269 N 0.20913 0.43133 0.67872 0.0
C270 C 0.21121 0.42152 0.71716 0.0
C271 C 0.24295 0.42193 0.7304 0.0
C272 C 0.27222 0.43244 0.70404 0.0
C273 C 0.26939 0.44223 0.66456 0.0
C274 C 0.23689 0.44084 0.65286 0.0
H275 H 0.18894 0.41368 0.73769 0.0
O276 O 0.20156 0.51815 0.72364 0.0
O277 O 0.18756 0.48153 0.67145 0.0
O278 O 0.13114 0.45631 0.7301 0.0
O279 O 0.13829 0.41353 0.69983 0.0
C280 C 0.29783 0.45407 0.63667 0.0
C281 C 0.29351 0.46464 0.59787 0.0
H282 H 0.27595 0.48453 0.52685 0.0
H283 H 0.21751 0.48277 0.51276 0.0
H284 H 0.24497 0.41444 0.76097 0.0
H285 H 0.29685 0.43321 0.71456 0.0
H286 H 0.32333 0.45561 0.64494 0.0
H287 H 0.31577 0.47418 0.57691 0.0
Mn288 Mn 0.5336 0.68201 0.67191 0.0
Mn289 Mn 0.52126 0.60695 0.71412 0.0
C290 C 0.47767 0.63191 0.6692 0.0
C291 C 0.53377 0.73526 0.675 0.0
C292 C 0.55734 0.63235 0.6334 0.0
O293 O 0.57726 0.69968 0.70959 0.0
O294 O 0.56621 0.64806 0.73644 0.0
C295 C 0.50745 0.62205 0.79795 0.0
N296 N 0.49641 0.60091 0.76406 0.0
C297 C 0.43973 0.56081 0.7945 0.0
C298 C 0.45061 0.58203 0.82982 0.0
C299 C 0.48461 0.61279 0.83152 0.0
C300 C 0.46376 0.57122 0.76212 0.0
H301 H 0.53342 0.64586 0.79932 0.0
C302 C 0.5851 0.68164 0.73346 0.0
O303 O 0.55174 0.72899 0.64748 0.0
O304 O 0.51692 0.71124 0.70163 0.0
N305 N 0.47839 0.56536 0.69567 0.0
C306 C 0.47138 0.54843 0.65889 0.0
C307 C 0.43821 0.51741 0.65202 0.0
C308 C 0.41265 0.50407 0.68301 0.0
C309 C 0.42061 0.52173 0.72073 0.0
C310 C 0.45433 0.55225 0.72601 0.0
H311 H 0.49079 0.55868 0.63484 0.0
O312 O 0.48586 0.65642 0.643 0.0
O313 O 0.50239 0.63746 0.69619 0.0
O314 O 0.55494 0.66035 0.63314 0.0
O315 O 0.54585 0.61053 0.66228 0.0
C316 C 0.39616 0.51056 0.75307 0.0
C317 C 0.4057 0.53012 0.78991 0.0
H318 H 0.43297 0.57513 0.85568 0.0
H319 H 0.49312 0.6294 0.85859 0.0
H320 H 0.43225 0.50395 0.6228 0.0
H321 H 0.38693 0.48038 0.67745 0.0
H322 H 0.36978 0.48721 0.74976 0.0
H323 H 0.38651 0.52149 0.81439 0.0
H324 H 0.1519 0.06406 0.07484 0.0
H325 H 0.21936 0.11431 0.97221 0.0
H326 H 0.12778 0.10366 0.07205 0.0
H327 H 0.19653 0.15609 0.97072 0.0
H328 H 0.1039 0.18203 0.94388 0.0
H329 H 0.14272 0.15546 0.95083 0.0
H330 H 0.13324 0.15789 0.08115 0.0
H331 H 0.09165 0.18058 0.07336 0.0
C332 C 0.16244 0.08436 0.05232 0.0
C333 C 0.18724 0.08574 0.02344 0.0
C334 C 0.14876 0.1075 0.0509 0.0
C335 C 0.15997 0.13323 0.02099 0.0
C336 C 0.18672 0.1362 0.99369 0.0
C337 C 0.20013 0.11254 0.99479 0.0
C338 C 0.11062 0.17711 0.97388 0.0
C339 C 0.09584 0.1843 0.0082 0.0
C340 C 0.13317 0.16228 0.97802 0.0
C341 C 0.14118 0.1543 0.01661 0.0
C342 C 0.12724 0.16289 0.05087 0.0
C343 C 0.104 0.17668 0.04657 0.0
H344 H 0.85145 0.93337 0.95313 0.0
H345 H 0.81397 0.92536 0.07583 0.0
H346 H 0.87627 0.99697 0.95672 0.0
H347 H 0.83908 0.9894 0.07953 0.0
H348 H 0.94821 0.0999 0.08309 0.0
H349 H 0.90444 0.03709 0.08137 0.0
H350 H 0.86462 0.0477 0.96484 0.0
H351 H 0.90853 0.11076 0.96655 0.0
C352 C 0.84772 0.94514 0.98055 0.0
C353 C 0.83099 0.92441 0.01429 0.0
C354 C 0.86179 0.98161 0.98255 0.0
C355 C 0.85988 0.99828 0.01852 0.0
C356 C 0.84119 0.97731 0.05151 0.0
C357 C 0.82661 0.94065 0.04929 0.0
C358 C 0.92956 0.08902 0.05753 0.0
C359 C 0.93209 0.11024 0.02478 0.0
C360 C 0.90429 0.05303 0.05665 0.0
C361 C 0.88123 0.03736 0.02282 0.0
C362 C 0.88226 0.05899 0.99116 0.0
C363 C 0.90729 0.09512 0.99225 0.0
H364 H 0.92085 0.83328 0.08745 0.0
H365 H 0.91613 0.86241 0.96444 0.0
H366 H 0.9858 0.85404 0.0807 0.0
H367 H 0.98077 0.88491 0.95798 0.0
H368 H 0.09431 0.91044 0.94496 0.0
H369 H 0.0288 0.87322 0.95254 0.0
H370 H 0.03914 0.90843 0.07775 0.0
H371 H 0.1043 0.94362 0.07031 0.0
C372 C 0.93387 0.84404 0.059 0.0
C373 C 0.91381 0.84561 0.02613 0.0
C374 C 0.97094 0.85607 0.05509 0.0
C375 C 0.98859 0.87103 0.01869 0.0
C376 C 0.96812 0.87271 0.98605 0.0
C377 C 0.93113 0.86011 0.98978 0.0
C378 C 0.08234 0.90934 0.97418 0.0
C379 C 0.10397 0.92909 0.00726 0.0
C380 C 0.04495 0.88835 0.97856 0.0
C381 C 0.02857 0.88802 0.01571 0.0
C382 C 0.05069 0.9074 0.04894 0.0
C383 C 0.08801 0.92775 0.0447 0.0
H384 H 0.85989 0.443 0.40718 0.0
H385 H 0.8319 0.40861 0.28257 0.0
H386 H 0.83244 0.48074 0.40064 0.0
H387 H 0.80293 0.44456 0.27616 0.0
H388 H 0.76639 0.52405 0.26633 0.0
H389 H 0.80848 0.501 0.27307 0.0
H390 H 0.773 0.47148 0.39597 0.0
H391 H 0.73271 0.49594 0.38943 0.0
C392 C 0.84802 0.44383 0.37838 0.0
C393 C 0.84858 0.4238 0.3451 0.0
C394 C 0.83215 0.46516 0.37459 0.0
C395 C 0.81542 0.46571 0.33784 0.0
C396 C 0.81622 0.44552 0.30461 0.0
C397 C 0.83259 0.42474 0.30827 0.0
C398 C 0.76836 0.51318 0.29486 0.0
C399 C 0.74723 0.51238 0.32768 0.0
C400 C 0.79217 0.49981 0.29875 0.0
C401 C 0.79416 0.48434 0.3351 0.0
C402 C 0.77292 0.48386 0.36788 0.0
C403 C 0.74966 0.49768 0.36413 0.0
H404 H 0.52446 0.25891 0.2721 0.0
H405 H 0.47482 0.24824 0.38867 0.0
H406 H 0.54291 0.32134 0.27282 0.0
H407 H 0.49336 0.31102 0.38938 0.0
H408 H 0.56581 0.43255 0.27659 0.0
H409 H 0.52558 0.36857 0.27386 0.0
H410 H 0.55595 0.36218 0.39713 0.0
H411 H 0.59592 0.42569 0.39978 0.0
C412 C 0.51671 0.26974 0.29745 0.0
C413 C 0.49855 0.24875 0.33054 0.0
C414 C 0.52707 0.30552 0.29773 0.0
C415 C 0.51984 0.32121 0.3313 0.0
C416 C 0.49957 0.29971 0.36324 0.0
C417 C 0.48882 0.26375 0.36274 0.0
C418 C 0.56302 0.41754 0.30343 0.0
C419 C 0.58425 0.43403 0.33826 0.0
C420 C 0.54019 0.38092 0.30179 0.0
C421 C 0.5378 0.36028 0.33517 0.0
C422 C 0.55689 0.37727 0.37101 0.0
C423 C 0.58 0.41369 0.37245 0.0
H424 H 0.59597 0.16419 0.41415 0.0
H425 H 0.59448 0.19601 0.29175 0.0
H426 H 0.66091 0.18508 0.40957 0.0
H427 H 0.6593 0.2199 0.28777 0.0
H428 H 0.77353 0.25514 0.27671 0.0
H429 H 0.70877 0.21413 0.28135 0.0
H430 H 0.7157 0.23382 0.41106 0.0
H431 H 0.78061 0.27134 0.40629 0.0
C432 C 0.60981 0.17583 0.38635 0.0
C433 C 0.59055 0.17791 0.35299 0.0
C434 C 0.64706 0.18813 0.38367 0.0
C435 C 0.66594 0.20428 0.34817 0.0
C436 C 0.64613 0.20671 0.31518 0.0
C437 C 0.6089 0.19343 0.3175 0.0
C438 C 0.76111 0.24948 0.30623 0.0
C439 C 0.78174 0.26629 0.34111 0.0
C440 C 0.72388 0.22649 0.30898 0.0
C441 C 0.70629 0.22143 0.34644 0.0
C442 C 0.72776 0.23655 0.38163 0.0
C443 C 0.76517 0.2583 0.37898 0.0
H444 H 0.41194 0.8354 0.72261 0.0
H445 H 0.44605 0.86887 0.60097 0.0
H446 H 0.45394 0.81307 0.72727 0.0
H447 H 0.49103 0.84949 0.60624 0.0
H448 H 0.52096 0.76138 0.60726 0.0
H449 H 0.49505 0.79989 0.60354 0.0
H450 H 0.50894 0.81773 0.7335 0.0
H451 H 0.53133 0.77594 0.73703 0.0
C452 C 0.4295 0.83892 0.6973 0.0
C453 C 0.42635 0.85416 0.66168 0.0
C454 C 0.45401 0.82645 0.69997 0.0
C455 C 0.47637 0.82932 0.66715 0.0
C456 C 0.47391 0.84594 0.63191 0.0
C457 C 0.44846 0.85743 0.62887 0.0
C458 C 0.5191 0.77418 0.63485 0.0
C459 C 0.52759 0.76548 0.67245 0.0
C460 C 0.50435 0.79655 0.63282 0.0
C461 C 0.49882 0.81155 0.66837 0.0
C462 C 0.51116 0.8056 0.70559 0.0
C463 C 0.52454 0.78209 0.70771 0.0
H464 H 0.2375 0.77046 0.61783 0.0
H465 H 0.27618 0.76558 0.73746 0.0
H466 H 0.19384 0.70733 0.61954 0.0
H467 H 0.23293 0.70287 0.73911 0.0
H468 H 0.14631 0.59084 0.73971 0.0
H469 H 0.16893 0.65449 0.73861 0.0
H470 H 0.20565 0.65699 0.61633 0.0
H471 H 0.18312 0.59384 0.61745 0.0
C472 C 0.2361 0.75612 0.64484 0.0
C473 C 0.26055 0.77285 0.67729 0.0
C474 C 0.21122 0.71997 0.64576 0.0
C475 C 0.21008 0.70003 0.67935 0.0
C476 C 0.2328 0.71744 0.71293 0.0
C477 C 0.25784 0.75338 0.71184 0.0
C478 C 0.15827 0.60489 0.71226 0.0
C479 C 0.16334 0.5875 0.67884 0.0
C480 C 0.17141 0.64133 0.71169 0.0
C481 C 0.18937 0.66085 0.67751 0.0
C482 C 0.19172 0.64279 0.64302 0.0
C483 C 0.17901 0.60658 0.64376 0.0
H484 H 0.25009 0.52704 0.63297 0.0
H485 H 0.25822 0.50145 0.75669 0.0
H486 H 0.31512 0.5528 0.62587 0.0
H487 H 0.32383 0.52602 0.74946 0.0
H488 H 0.439 0.62204 0.73674 0.0
H489 H 0.37418 0.5836 0.74477 0.0
H490 H 0.36596 0.5447 0.62151 0.0
H491 H 0.4309 0.58479 0.6133 0.0
C492 C 0.26594 0.52611 0.6583 0.0
C493 C 0.24944 0.51174 0.69507 0.0
C494 C 0.30318 0.54068 0.65424 0.0
C495 C 0.32478 0.54134 0.68702 0.0
C496 C 0.30799 0.52623 0.72374 0.0
C497 C 0.27059 0.51203 0.72792 0.0
C498 C 0.42327 0.60474 0.71171 0.0
C499 C 0.43964 0.60564 0.67468 0.0
C500 C 0.38621 0.58256 0.7163 0.0
C501 C 0.36479 0.56097 0.6838 0.0
C502 C 0.38159 0.56134 0.64698 0.0
C503 C 0.41864 0.58404 0.64224 0.0
H504 H 0.02109 0.25098 0.89771 0.0
H505 H 0.10727 0.34009 0.96257 0.0
H506 H 0.03057 0.28804 0.83922 0.0
H507 H 0.11676 0.37672 0.90428 0.0
H508 H 0.11081 0.44172 0.8035 0.0
H509 H 0.08887 0.40375 0.86211 0.0
H510 H 0.07985 0.31645 0.78939 0.0
H511 H 0.10135 0.35405 0.73085 0.0
C512 C 0.04178 0.27848 0.8997 0.0
C513 C 0.06357 0.29244 0.93481 0.0
C514 C 0.04729 0.29966 0.86613 0.0
C515 C 0.07441 0.33531 0.86712 0.0
C516 C 0.09533 0.34949 0.90268 0.0
C517 C 0.09007 0.32833 0.93602 0.0
C518 C 0.10352 0.41427 0.79979 0.0
C519 C 0.10818 0.40107 0.76249 0.0
C520 C 0.09117 0.39258 0.83346 0.0
C521 C 0.0829 0.35717 0.83046 0.0
C522 C 0.08572 0.34352 0.79266 0.0
C523 C 0.0983 0.36521 0.75913 0.0
H524 H 0.72454 0.71496 0.9374 0.0
H525 H 0.75503 0.82175 0.90725 0.0
H526 H 0.67973 0.6928 0.88277 0.0
H527 H 0.71168 0.79987 0.8504 0.0
H528 H 0.60702 0.74475 0.77216 0.0
H529 H 0.65127 0.77067 0.82761 0.0
H530 H 0.67743 0.68691 0.81308 0.0
H531 H 0.63159 0.66009 0.75972 0.0
C532 C 0.72146 0.73365 0.91893 0.0
C533 C 0.74304 0.76995 0.92637 0.0
C534 C 0.69617 0.72105 0.88721 0.0
C535 C 0.69259 0.74449 0.86132 0.0
C536 C 0.71347 0.78097 0.86973 0.0
C537 C 0.73828 0.79358 0.90226 0.0
C538 C 0.62267 0.73227 0.78063 0.0
C539 C 0.61585 0.70036 0.76197 0.0
C540 C 0.64806 0.7471 0.8124 0.0
C541 C 0.66755 0.73059 0.82555 0.0
C542 C 0.66209 0.69976 0.80493 0.0
C543 C 0.63616 0.68456 0.77394 0.0
H544 H 0.37225 0.97175 0.77919 0.0
H545 H 0.2731 0.87515 0.75055 0.0
H546 H 0.34223 0.984 0.83485 0.0
H547 H 0.2432 0.88761 0.8063 0.0
H548 H 0.22412 0.89904 0.94257 0.0
H549 H 0.25145 0.8894 0.88252 0.0
H550 H 0.29145 0.99742 0.84892 0.0
H551 H 0.26405 0.0073 0.90906 0.0
C552 C 0.34395 0.95333 0.78444 0.0
C553 C 0.32513 0.92237 0.76052 0.0
C554 C 0.32675 0.96046 0.81622 0.0
C555 C 0.2905 0.93662 0.82502 0.0
C556 C 0.27131 0.90623 0.8004 0.0
C557 C 0.28838 0.89926 0.76831 0.0
C558 C 0.23874 0.92082 0.92249 0.0
C559 C 0.24189 0.95398 0.93072 0.0
C560 C 0.25412 0.91516 0.8879 0.0
C561 C 0.27334 0.9426 0.86098 0.0
C562 C 0.27684 0.97584 0.86927 0.0
C563 C 0.26109 0.98144 0.90366 0.0
H564 H 0.39902 0.12755 0.26497 0.0
H565 H 0.43689 0.05752 0.22073 0.0
H566 H 0.35008 0.10263 0.21407 0.0
H567 H 0.38867 0.03333 0.17017 0.0
H568 H 0.2736 0.96853 0.12108 0.0
H569 H 0.32253 0.99603 0.17083 0.0
H570 H 0.34001 0.09872 0.13849 0.0
H571 H 0.29047 0.07119 0.08868 0.0
C572 C 0.39703 0.107 0.24446 0.0
C573 C 0.42175 0.09436 0.24729 0.0
C574 C 0.36916 0.09291 0.21518 0.0
C575 C 0.36544 0.06587 0.18838 0.0
C576 C 0.39047 0.05372 0.19085 0.0
C577 C 0.41823 0.06775 0.21986 0.0
C578 C 0.28785 0.99699 0.12432 0.0
C579 C 0.27813 0.01762 0.10064 0.0
C580 C 0.31601 0.01275 0.15281 0.0
C581 C 0.33516 0.04952 0.15844 0.0
C582 C 0.3255 0.07028 0.13499 0.0
C583 C 0.29733 0.05449 0.10625 0.0
H584 H 0.05913 0.31011 0.12608 0.0
H585 H 0.95108 0.22851 0.09138 0.0
H586 H 0.03399 0.3332 0.17576 0.0
H587 H 0.92584 0.25235 0.14131 0.0
H588 H 0.90092 0.28626 0.2668 0.0
H589 H 0.92368 0.26017 0.21679 0.0
H590 H -0.00104 0.364 0.17484 0.0
H591 H 0.97692 0.39009 0.22471 0.0
C592 C 0.02995 0.29712 0.12881 0.0
C593 C 0.00714 0.26748 0.10441 0.0
C594 C 0.01555 0.31053 0.1573 0.0
C595 C 0.97795 0.29474 0.16227 0.0
C596 C 0.95497 0.26491 0.13828 0.0
C597 C 0.96943 0.25145 0.10951 0.0
C598 C 0.92245 0.30353 0.24703 0.0
C599 C 0.93726 0.34033 0.25009 0.0
C600 C 0.93524 0.28854 0.21819 0.0
C601 C 0.96318 0.31006 0.19203 0.0
C602 C 0.97777 0.34675 0.19497 0.0
C603 C 0.96501 0.36168 0.22359 0.0
H604 H 0.75827 0.66905 0.29259 0.0
H605 H 0.67572 0.58282 0.22057 0.0
H606 H 0.77181 0.70795 0.23562 0.0
H607 H 0.68921 0.62211 0.16355 0.0
H608 H 0.76697 0.68941 0.06127 0.0
H609 H 0.74195 0.65083 0.11848 0.0
H610 H 0.7481 0.73723 0.19059 0.0
H611 H 0.7736 0.77626 0.13318 0.0
C612 C 0.74265 0.65844 0.26479 0.0
C613 C 0.7161 0.62264 0.26113 0.0
C614 C 0.75025 0.68089 0.2322 0.0
C615 C 0.73168 0.6681 0.19503 0.0
C616 C 0.70422 0.63265 0.19173 0.0
C617 C 0.6964 0.61019 0.22448 0.0
C618 C 0.76268 0.70022 0.08913 0.0
C619 C 0.77263 0.73608 0.09267 0.0
C620 C 0.74802 0.67795 0.12187 0.0
C621 C 0.74312 0.69097 0.1591 0.0
C622 C 0.75186 0.72652 0.16234 0.0
C623 C 0.76629 0.74881 0.1294 0.0
H624 H 0.08195 0.39159 0.57147 0.0
H625 H 0.07579 0.4854 0.60167 0.0
H626 H 0.04185 0.38021 0.51329 0.0
H627 H 0.03549 0.47376 0.54336 0.0
H628 H 0.00361 0.46283 0.40684 0.0
H629 H 0.04193 0.47363 0.46689 0.0
H630 H 0.97752 0.36441 0.4986 0.0
H631 H 0.93933 0.35343 0.43884 0.0
C632 C 0.07175 0.40958 0.56599 0.0
C633 C 0.08208 0.4394 0.59127 0.0
C634 C 0.04873 0.403 0.53269 0.0
C635 C 0.03579 0.42623 0.52372 0.0
C636 C 0.04546 0.45566 0.54936 0.0
C637 C 0.06822 0.46208 0.58297 0.0
C638 C -0.00229 0.44109 0.42651 0.0
C639 C 0.96838 0.40728 0.418 0.0
C640 C 0.01946 0.44736 0.46104 0.0
C641 C 0.01256 0.41986 0.48741 0.0
C642 C 0.98357 0.38603 0.47865 0.0
C643 C 0.96164 0.37983 0.44445 0.0
H644 H 0.69838 0.6342 0.44412 0.0
H645 H 0.59868 0.53662 0.42128 0.0
H646 H 0.67015 0.64841 0.49994 0.0
H647 H 0.57046 0.55107 0.47735 0.0
H648 H 0.55517 0.57006 0.61353 0.0
H649 H 0.58027 0.55666 0.55384 0.0
H650 H 0.62024 0.66271 0.51265 0.0
H651 H 0.59527 0.67632 0.5722 0.0
C652 C 0.67032 0.61593 0.45074 0.0
C653 C 0.6508 0.58422 0.42831 0.0
C654 C 0.65414 0.62418 0.48262 0.0
C655 C 0.61821 0.60075 0.49305 0.0
C656 C 0.59834 0.56941 0.47013 0.0
C657 C 0.61441 0.56132 0.43786 0.0
C658 C 0.56935 0.59057 0.59182 0.0
C659 C 0.57327 0.6243 0.59775 0.0
C660 C 0.58342 0.58276 0.55747 0.0
C661 C 0.60205 0.60862 0.5286 0.0
C662 C 0.60614 0.64235 0.53456 0.0
C663 C 0.59176 0.65007 0.56865 0.0
H664 H 0.35314 0.91658 0.55135 0.0
H665 H 0.43083 0.00678 0.62254 0.0
H666 H 0.36739 0.95351 0.49199 0.0
H667 H 0.4451 0.04337 0.56326 0.0
H668 H 0.44663 0.1063 0.45517 0.0
H669 H 0.42068 0.06893 0.51365 0.0
H670 H 0.42204 0.98267 0.44901 0.0
H671 H 0.44766 0.01969 0.39054 0.0
C672 C 0.37284 0.94433 0.55456 0.0
C673 C 0.39101 0.95861 0.59172 0.0
C674 C 0.38113 0.96542 0.52047 0.0
C675 C 0.40749 0.0013 0.5229 0.0
C676 C 0.42442 0.0159 0.56046 0.0
C677 C 0.41638 0.99481 0.59441 0.0
C678 C 0.44096 0.07923 0.45319 0.0
C679 C 0.44951 0.06613 0.41817 0.0
C680 C 0.42624 0.05789 0.48678 0.0
C681 C 0.41943 0.02291 0.48598 0.0
C682 C 0.42662 0.0094 0.45044 0.0
C683 C 0.44158 0.03076 0.417 0.0
loop_
_geom_bond_atom_site_label_1
_geom_bond_atom_site_label_2
_geom_bond_distance
_geom_bond_site_symmetry_2
_ccdc_geom_bond_type
Mn0 O5 2.095 1_455 S
Mn0 O15 2.162 1_454 S
Mn0 O16 2.297 1_455 S
Mn0 O24 2.385 1_554 S
Mn0 O25 2.209 . S
Mn0 O26 2.094 1_554 S
Mn1 O6 2.121 . S
Mn1 N8 2.257 . S
Mn1 N17 2.282 . S
Mn1 O25 2.215 . S
Mn1 O27 2.117 1_554 S
C2 O24 1.234 1_554 S
C2 O25 1.283 . S
C3 O15 1.281 1_554 S
C3 O16 1.236 . S
C4 O26 1.240 . S
C4 O27 1.264 . S
O5 Mn0 2.095 1_655 S
O5 C14 1.250 1_655 S
O6 Mn1 2.121 . S
O6 C14 1.258 . S
C7 N8 1.326 . S
C7 C11 1.460 . S
C7 H13 0.929 . S
N8 Mn1 2.257 . S
N8 C7 1.326 . S
N8 C12 1.362 . S
C9 C10 1.258 . S
C9 C12 1.431 . S
C9 C29 1.449 . S
C10 C9 1.258 . S
C10 C11 1.477 . S
C10 H30 0.931 . S
C11 C7 1.460 . S
C11 C10 1.477 . S
C11 H31 0.930 . S
C12 N8 1.362 . S
C12 C9 1.431 . S
C12 C22 1.476 . S
H13 C7 0.929 . S
C14 O5 1.250 1_455 S
C14 O6 1.258 . S
O15 Mn0 2.162 1_656 S
O15 C3 1.281 1_556 S
O16 Mn0 2.297 1_655 S
O16 C3 1.236 . S
N17 Mn1 2.282 . S
N17 C18 1.328 1_554 S
N17 C22 1.318 . S
C18 N17 1.328 1_556 S
C18 C19 1.457 . S
C18 H23 0.929 . S
C19 C18 1.457 . S
C19 C20 1.291 . S
C19 H32 0.931 . S
C20 C19 1.291 . S
C20 C21 1.373 1_556 S
C20 H33 0.929 . S
C21 C20 1.373 1_554 S
C21 C22 1.396 . S
C21 C28 1.403 . S
C22 C12 1.476 . S
C22 N17 1.318 . S
C22 C21 1.396 . S
H23 C18 0.929 . S
O24 Mn0 2.385 1_556 S
O24 C2 1.234 1_556 S
O25 Mn0 2.209 . S
O25 Mn1 2.215 . S
O25 C2 1.283 . S
O26 Mn0 2.094 1_556 S
O26 C4 1.240 . S
O27 Mn1 2.117 1_556 S
O27 C4 1.264 . S
C28 C21 1.403 . S
C28 C29 1.399 . S
C28 H34 0.929 . S
C29 C9 1.449 . S
C29 C28 1.399 . S
C29 H35 0.930 . S
H30 C10 0.931 . S
H31 C11 0.930 . S
H32 C19 0.931 . S
H33 C20 0.929 . S
H34 C28 0.929 . S
H35 C29 0.930 . S
Mn36 O41 2.095 1_554 S
Mn36 O51 2.162 . S
Mn36 O52 2.297 1_554 S
Mn36 O60 2.385 . S
Mn36 O61 2.209 1_554 S
Mn36 O62 2.094 . S
Mn37 O42 2.121 . S
Mn37 N44 2.257 . S
Mn37 N53 2.282 1_556 S
Mn37 O61 2.215 . S
Mn37 O63 2.117 1_556 S
C38 O60 1.234 . S
C38 O61 1.283 1_554 S
C39 O51 1.281 . S
C39 O52 1.236 1_554 S
C40 O62 1.240 . S
C40 O63 1.264 . S
O41 Mn36 2.095 1_556 S
O41 C50 1.250 . S
O42 Mn37 2.121 . S
O42 C50 1.258 . S
C43 N44 1.326 . S
C43 C47 1.460 . S
C43 H49 0.929 . S
N44 Mn37 2.257 . S
N44 C43 1.326 . S
N44 C48 1.362 . S
C45 C46 1.258 . S
C45 C48 1.431 . S
C45 C65 1.449 . S
C46 C45 1.258 . S
C46 C47 1.477 . S
C46 H66 0.931 . S
C47 C43 1.460 . S
C47 C46 1.477 . S
C47 H67 0.930 . S
C48 N44 1.362 . S
C48 C45 1.431 . S
C48 C58 1.476 . S
H49 C43 0.929 . S
C50 O41 1.250 . S
C50 O42 1.258 . S
O51 Mn36 2.162 . S
O51 C39 1.281 . S
O52 Mn36 2.297 1_556 S
O52 C39 1.236 1_556 S
N53 Mn37 2.282 1_554 S
N53 C54 1.328 . S
N53 C58 1.318 1_554 S
C54 N53 1.328 . S
C54 C55 1.457 . S
C54 H59 0.929 . S
C55 C54 1.457 . S
C55 C56 1.291 . S
C55 H68 0.931 . S
C56 C55 1.291 . S
C56 C57 1.373 1_554 S
C56 H69 0.929 . S
C57 C56 1.373 1_556 S
C57 C58 1.396 . S
C57 C64 1.403 . S
C58 C48 1.476 . S
C58 N53 1.318 1_556 S
C58 C57 1.396 . S
H59 C54 0.929 . S
O60 Mn36 2.385 . S
O60 C38 1.234 . S
O61 Mn36 2.209 1_556 S
O61 Mn37 2.215 . S
O61 C38 1.283 1_556 S
O62 Mn36 2.094 . S
O62 C40 1.240 . S
O63 Mn37 2.117 1_554 S
O63 C40 1.264 . S
C64 C57 1.403 . S
C64 C65 1.399 . S
C64 H70 0.929 . S
C65 C45 1.449 . S
C65 C64 1.399 . S
C65 H71 0.930 . S
H66 C46 0.931 . S
H67 C47 0.930 . S
H68 C55 0.931 . S
H69 C56 0.929 . S
H70 C64 0.929 . S
H71 C65 0.930 . S
Mn72 O77 2.106 . S
Mn72 O87 2.155 1_554 S
Mn72 O88 2.307 . S
Mn72 O96 2.381 1_544 S
Mn72 O97 2.219 1_545 S
Mn72 O98 2.079 1_554 S
Mn73 O78 2.121 . S
Mn73 N80 2.257 . S
Mn73 N89 2.282 . S
Mn73 O97 2.215 . S
Mn73 O99 2.117 1_554 S
C74 O96 1.234 1_554 S
C74 O97 1.283 . S
C75 O87 1.281 1_554 S
C75 O88 1.236 . S
C76 O98 1.240 1_565 S
C76 O99 1.264 . S
O77 Mn72 2.106 . S
O77 C86 1.250 . S
O78 Mn73 2.121 . S
O78 C86 1.258 1_565 S
C79 N80 1.326 . S
C79 C83 1.460 . S
C79 H85 0.929 . S
N80 Mn73 2.257 . S
N80 C79 1.326 . S
N80 C84 1.362 . S
C81 C82 1.258 . S
C81 C84 1.431 . S
C81 C101 1.449 . S
C82 C81 1.258 . S
C82 C83 1.477 . S
C82 H102 0.931 . S
C83 C79 1.460 . S
C83 C82 1.477 . S
C83 H103 0.930 . S
C84 N80 1.362 . S
C84 C81 1.431 . S
C84 C94 1.476 . S
H85 C79 0.929 . S
C86 O77 1.250 . S
C86 O78 1.258 1_545 S
O87 Mn72 2.155 1_556 S
O87 C75 1.281 1_556 S
O88 Mn72 2.307 . S
O88 C75 1.236 . S
N89 Mn73 2.282 . S
N89 C90 1.328 1_554 S
N89 C94 1.318 . S
C90 N89 1.328 1_556 S
C90 C91 1.457 . S
C90 H95 0.929 . S
C91 C90 1.457 . S
C91 C92 1.291 . S
C91 H104 0.931 . S
C92 C91 1.291 . S
C92 C93 1.373 1_556 S
C92 H105 0.929 . S
C93 C92 1.373 1_554 S
C93 C94 1.396 . S
C93 C100 1.403 . S
C94 C84 1.476 . S
C94 N89 1.318 . S
C94 C93 1.396 . S
H95 C90 0.929 . S
O96 Mn72 2.381 1_566 S
O96 C74 1.234 1_556 S
O97 Mn72 2.219 1_565 S
O97 Mn73 2.215 . S
O97 C74 1.283 . S
O98 Mn72 2.079 1_556 S
O98 C76 1.240 1_545 S
O99 Mn73 2.117 1_556 S
O99 C76 1.264 . S
C100 C93 1.403 . S
C100 C101 1.399 . S
C100 H106 0.929 . S
C101 C81 1.449 . S
C101 C100 1.399 . S
C101 H107 0.930 . S
H102 C82 0.931 . S
H103 C83 0.930 . S
H104 C91 0.931 . S
H105 C92 0.929 . S
H106 C100 0.929 . S
H107 C101 0.930 . S
Mn108 O113 2.095 . S
Mn108 O123 2.162 . S
Mn108 O124 2.297 . S
Mn108 O132 2.385 . S
Mn108 O133 2.209 . S
Mn108 O134 2.094 . S
Mn109 O114 2.121 . S
Mn109 N116 2.257 . S
Mn109 N125 2.282 . S
Mn109 O133 2.215 . S
Mn109 O135 2.117 . S
C110 O132 1.234 . S
C110 O133 1.283 . S
C111 O123 1.281 . S
C111 O124 1.236 . S
C112 O134 1.240 . S
C112 O135 1.264 . S
O113 Mn108 2.095 . S
O113 C122 1.250 . S
O114 Mn109 2.121 . S
O114 C122 1.258 . S
C115 N116 1.326 . S
C115 C119 1.460 . S
C115 H121 0.929 . S
N116 Mn109 2.257 . S
N116 C115 1.326 . S
N116 C120 1.362 . S
C117 C118 1.258 . S
C117 C120 1.431 . S
C117 C137 1.449 . S
C118 C117 1.258 . S
C118 C119 1.477 . S
C118 H138 0.931 . S
C119 C115 1.460 . S
C119 C118 1.477 . S
C119 H139 0.930 . S
C120 N116 1.362 . S
C120 C117 1.431 . S
C120 C130 1.476 . S
H121 C115 0.929 . S
C122 O113 1.250 . S
C122 O114 1.258 . S
O123 Mn108 2.162 . S
O123 C111 1.281 . S
O124 Mn108 2.297 . S
O124 C111 1.236 . S
N125 Mn109 2.282 . S
N125 C126 1.328 . S
N125 C130 1.318 . S
C126 N125 1.328 . S
C126 C127 1.457 . S
C126 H131 0.929 . S
C127 C126 1.457 . S
C127 C128 1.291 . S
C127 H140 0.931 . S
C128 C127 1.291 . S
C128 C129 1.373 . S
C128 H141 0.929 . S
C129 C128 1.373 . S
C129 C130 1.396 . S
C129 C136 1.403 . S
C130 C120 1.476 . S
C130 N125 1.318 . S
C130 C129 1.396 . S
H131 C126 0.929 . S
O132 Mn108 2.385 . S
O132 C110 1.234 . S
O133 Mn108 2.209 . S
O133 Mn109 2.215 . S
O133 C110 1.283 . S
O134 Mn108 2.094 . S
O134 C112 1.240 . S
O135 Mn109 2.117 . S
O135 C112 1.264 . S
C136 C129 1.403 . S
C136 C137 1.399 . S
C136 H142 0.929 . S
C137 C117 1.449 . S
C137 C136 1.399 . S
C137 H143 0.930 . S
H138 C118 0.931 . S
H139 C119 0.930 . S
H140 C127 0.931 . S
H141 C128 0.929 . S
H142 C136 0.929 . S
H143 C137 0.930 . S
Mn144 O149 2.095 . S
Mn144 O159 2.162 . S
Mn144 O160 2.297 . S
Mn144 O168 2.385 . S
Mn144 O169 2.209 . S
Mn144 O170 2.094 . S
Mn145 O150 2.121 . S
Mn145 N152 2.257 . S
Mn145 N161 2.282 . S
Mn145 O169 2.215 . S
Mn145 O171 2.117 . S
C146 O168 1.234 . S
C146 O169 1.283 . S
C147 O159 1.281 . S
C147 O160 1.236 . S
C148 O170 1.240 . S
C148 O171 1.264 . S
O149 Mn144 2.095 . S
O149 C158 1.250 . S
O150 Mn145 2.121 . S
O150 C158 1.258 . S
C151 N152 1.326 . S
C151 C155 1.460 . S
C151 H157 0.929 . S
N152 Mn145 2.257 . S
N152 C151 1.326 . S
N152 C156 1.362 . S
C153 C154 1.258 . S
C153 C156 1.431 . S
C153 C173 1.449 . S
C154 C153 1.258 . S
C154 C155 1.477 . S
C154 H174 0.931 . S
C155 C151 1.460 . S
C155 C154 1.477 . S
C155 H175 0.930 . S
C156 N152 1.362 . S
C156 C153 1.431 . S
C156 C166 1.476 . S
H157 C151 0.929 . S
C158 O149 1.250 . S
C158 O150 1.258 . S
O159 Mn144 2.162 . S
O159 C147 1.281 . S
O160 Mn144 2.297 . S
O160 C147 1.236 . S
N161 Mn145 2.282 . S
N161 C162 1.328 . S
N161 C166 1.318 . S
C162 N161 1.328 . S
C162 C163 1.457 . S
C162 H167 0.929 . S
C163 C162 1.457 . S
C163 C164 1.291 . S
C163 H176 0.931 . S
C164 C163 1.291 . S
C164 C165 1.373 . S
C164 H177 0.929 . S
C165 C164 1.373 . S
C165 C166 1.396 . S
C165 C172 1.403 . S
C166 C156 1.476 . S
C166 N161 1.318 . S
C166 C165 1.396 . S
H167 C162 0.929 . S
O168 Mn144 2.385 . S
O168 C146 1.234 . S
O169 Mn144 2.209 . S
O169 Mn145 2.215 . S
O169 C146 1.283 . S
O170 Mn144 2.094 . S
O170 C148 1.240 . S
O171 Mn145 2.117 . S
O171 C148 1.264 . S
C172 C165 1.403 . S
C172 C173 1.399 . S
C172 H178 0.929 . S
C173 C153 1.449 . S
C173 C172 1.399 . S
C173 H179 0.930 . S
H174 C154 0.931 . S
H175 C155 0.930 . S
H176 C163 0.931 . S
H177 C164 0.929 . S
H178 C172 0.929 . S
H179 C173 0.930 . S
Mn180 O185 2.095 . S
Mn180 O195 2.162 . S
Mn180 O196 2.297 . S
Mn180 O204 2.385 . S
Mn180 O205 2.209 . S
Mn180 O206 2.094 . S
Mn181 O186 2.121 . S
Mn181 N188 2.257 . S
Mn181 N197 2.282 . S
Mn181 O205 2.215 . S
Mn181 O207 2.117 . S
C182 O204 1.234 . S
C182 O205 1.283 . S
C183 O195 1.281 . S
C183 O196 1.236 . S
C184 O206 1.240 . S
C184 O207 1.264 . S
O185 Mn180 2.095 . S
O185 C194 1.250 . S
O186 Mn181 2.121 . S
O186 C194 1.258 . S
C187 N188 1.326 . S
C187 C191 1.460 . S
C187 H193 0.929 . S
N188 Mn181 2.257 . S
N188 C187 1.326 . S
N188 C192 1.362 . S
C189 C190 1.258 . S
C189 C192 1.431 . S
C189 C209 1.449 . S
C190 C189 1.258 . S
C190 C191 1.477 . S
C190 H210 0.931 . S
C191 C187 1.460 . S
C191 C190 1.477 . S
C191 H211 0.930 . S
C192 N188 1.362 . S
C192 C189 1.431 . S
C192 C202 1.476 . S
H193 C187 0.929 . S
C194 O185 1.250 . S
C194 O186 1.258 . S
O195 Mn180 2.162 . S
O195 C183 1.281 . S
O196 Mn180 2.297 . S
O196 C183 1.236 . S
N197 Mn181 2.282 . S
N197 C198 1.328 . S
N197 C202 1.318 . S
C198 N197 1.328 . S
C198 C199 1.457 . S
C198 H203 0.929 . S
C199 C198 1.457 . S
C199 C200 1.291 . S
C199 H212 0.931 . S
C200 C199 1.291 . S
C200 C201 1.373 . S
C200 H213 0.929 . S
C201 C200 1.373 . S
C201 C202 1.396 . S
C201 C208 1.403 . S
C202 C192 1.476 . S
C202 N197 1.318 . S
C202 C201 1.396 . S
H203 C198 0.929 . S
O204 Mn180 2.385 . S
O204 C182 1.234 . S
O205 Mn180 2.209 . S
O205 Mn181 2.215 . S
O205 C182 1.283 . S
O206 Mn180 2.094 . S
O206 C184 1.240 . S
O207 Mn181 2.117 . S
O207 C184 1.264 . S
C208 C201 1.403 . S
C208 C209 1.399 . S
C208 H214 0.929 . S
C209 C189 1.449 . S
C209 C208 1.399 . S
C209 H215 0.930 . S
H210 C190 0.931 . S
H211 C191 0.930 . S
H212 C199 0.931 . S
H213 C200 0.929 . S
H214 C208 0.929 . S
H215 C209 0.930 . S
Mn216 O221 2.095 . S
Mn216 O231 2.162 . S
Mn216 O232 2.297 . S
Mn216 O240 2.385 . S
Mn216 O241 2.209 . S
Mn216 O242 2.094 . S
Mn217 O222 2.121 . S
Mn217 N224 2.257 . S
Mn217 N233 2.282 . S
Mn217 O241 2.215 . S
Mn217 O243 2.117 . S
C218 O240 1.234 . S
C218 O241 1.283 . S
C219 O231 1.281 . S
C219 O232 1.236 . S
C220 O242 1.240 . S
C220 O243 1.264 . S
O221 Mn216 2.095 . S
O221 C230 1.250 . S
O222 Mn217 2.121 . S
O222 C230 1.258 . S
C223 N224 1.326 . S
C223 C227 1.460 . S
C223 H229 0.929 . S
N224 Mn217 2.257 . S
N224 C223 1.326 . S
N224 C228 1.362 . S
C225 C226 1.258 . S
C225 C228 1.431 . S
C225 C245 1.449 . S
C226 C225 1.258 . S
C226 C227 1.477 . S
C226 H246 0.931 . S
C227 C223 1.460 . S
C227 C226 1.477 . S
C227 H247 0.930 . S
C228 N224 1.362 . S
C228 C225 1.431 . S
C228 C238 1.476 . S
H229 C223 0.929 . S
C230 O221 1.250 . S
C230 O222 1.258 . S
O231 Mn216 2.162 . S
O231 C219 1.281 . S
O232 Mn216 2.297 . S
O232 C219 1.236 . S
N233 Mn217 2.282 . S
N233 C234 1.328 . S
N233 C238 1.318 . S
C234 N233 1.328 . S
C234 C235 1.457 . S
C234 H239 0.929 . S
C235 C234 1.457 . S
C235 C236 1.291 . S
C235 H248 0.931 . S
C236 C235 1.291 . S
C236 C237 1.373 . S
C236 H249 0.929 . S
C237 C236 1.373 . S
C237 C238 1.396 . S
C237 C244 1.403 . S
C238 C228 1.476 . S
C238 N233 1.318 . S
C238 C237 1.396 . S
H239 C234 0.929 . S
O240 Mn216 2.385 . S
O240 C218 1.234 . S
O241 Mn216 2.209 . S
O241 Mn217 2.215 . S
O241 C218 1.283 . S
O242 Mn216 2.094 . S
O242 C220 1.240 . S
O243 Mn217 2.117 . S
O243 C220 1.264 . S
C244 C237 1.403 . S
C244 C245 1.399 . S
C244 H250 0.929 . S
C245 C225 1.449 . S
C245 C244 1.399 . S
C245 H251 0.930 . S
H246 C226 0.931 . S
H247 C227 0.930 . S
H248 C235 0.931 . S
H249 C236 0.929 . S
H250 C244 0.929 . S
H251 C245 0.930 . S
Mn252 O257 2.095 . S
Mn252 O267 2.162 . S
Mn252 O268 2.297 . S
Mn252 O276 2.385 . S
Mn252 O277 2.209 . S
Mn252 O278 2.094 . S
Mn253 O258 2.121 . S
Mn253 N260 2.257 . S
Mn253 N269 2.282 . S
Mn253 O277 2.215 . S
Mn253 O279 2.117 . S
C254 O276 1.234 . S
C254 O277 1.283 . S
C255 O267 1.281 . S
C255 O268 1.236 . S
C256 O278 1.240 . S
C256 O279 1.264 . S
O257 Mn252 2.095 . S
O257 C266 1.250 . S
O258 Mn253 2.121 . S
O258 C266 1.258 . S
C259 N260 1.326 . S
C259 C263 1.460 . S
C259 H265 0.929 . S
N260 Mn253 2.257 . S
N260 C259 1.326 . S
N260 C264 1.362 . S
C261 C262 1.258 . S
C261 C264 1.431 . S
C261 C281 1.449 . S
C262 C261 1.258 . S
C262 C263 1.477 . S
C262 H282 0.931 . S
C263 C259 1.460 . S
C263 C262 1.477 . S
C263 H283 0.930 . S
C264 N260 1.362 . S
C264 C261 1.431 . S
C264 C274 1.476 . S
H265 C259 0.929 . S
C266 O257 1.250 . S
C266 O258 1.258 . S
O267 Mn252 2.162 . S
O267 C255 1.281 . S
O268 Mn252 2.297 . S
O268 C255 1.236 . S
N269 Mn253 2.282 . S
N269 C270 1.328 . S
N269 C274 1.318 . S
C270 N269 1.328 . S
C270 C271 1.457 . S
C270 H275 0.929 . S
C271 C270 1.457 . S
C271 C272 1.291 . S
C271 H284 0.931 . S
C272 C271 1.291 . S
C272 C273 1.373 . S
C272 H285 0.929 . S
C273 C272 1.373 . S
C273 C274 1.396 . S
C273 C280 1.403 . S
C274 C264 1.476 . S
C274 N269 1.318 . S
C274 C273 1.396 . S
H275 C270 0.929 . S
O276 Mn252 2.385 . S
O276 C254 1.234 . S
O277 Mn252 2.209 . S
O277 Mn253 2.215 . S
O277 C254 1.283 . S
O278 Mn252 2.094 . S
O278 C256 1.240 . S
O279 Mn253 2.117 . S
O279 C256 1.264 . S
C280 C273 1.403 . S
C280 C281 1.399 . S
C280 H286 0.929 . S
C281 C261 1.449 . S
C281 C280 1.399 . S
C281 H287 0.930 . S
H282 C262 0.931 . S
H283 C263 0.930 . S
H284 C271 0.931 . S
H285 C272 0.929 . S
H286 C280 0.929 . S
H287 C281 0.930 . S
Mn288 O293 2.095 . S
Mn288 O303 2.162 . S
Mn288 O304 2.297 . S
Mn288 O312 2.385 . S
Mn288 O313 2.209 . S
Mn288 O314 2.094 . S
Mn289 O294 2.121 . S
Mn289 N296 2.257 . S
Mn289 N305 2.282 . S
Mn289 O313 2.215 . S
Mn289 O315 2.117 . S
C290 O312 1.234 . S
C290 O313 1.283 . S
C291 O303 1.281 . S
C291 O304 1.236 . S
C292 O314 1.240 . S
C292 O315 1.264 . S
O293 Mn288 2.095 . S
O293 C302 1.250 . S
O294 Mn289 2.121 . S
O294 C302 1.258 . S
C295 N296 1.326 . S
C295 C299 1.460 . S
C295 H301 0.929 . S
N296 Mn289 2.257 . S
N296 C295 1.326 . S
N296 C300 1.362 . S
C297 C298 1.258 . S
C297 C300 1.431 . S
C297 C317 1.449 . S
C298 C297 1.258 . S
C298 C299 1.477 . S
C298 H318 0.931 . S
C299 C295 1.460 . S
C299 C298 1.477 . S
C299 H319 0.930 . S
C300 N296 1.362 . S
C300 C297 1.431 . S
C300 C310 1.476 . S
H301 C295 0.929 . S
C302 O293 1.250 . S
C302 O294 1.258 . S
O303 Mn288 2.162 . S
O303 C291 1.281 . S
O304 Mn288 2.297 . S
O304 C291 1.236 . S
N305 Mn289 2.282 . S
N305 C306 1.328 . S
N305 C310 1.318 . S
C306 N305 1.328 . S
C306 C307 1.457 . S
C306 H311 0.929 . S
C307 C306 1.457 . S
C307 C308 1.291 . S
C307 H320 0.931 . S
C308 C307 1.291 . S
C308 C309 1.373 . S
C308 H321 0.929 . S
C309 C308 1.373 . S
C309 C310 1.396 . S
C309 C316 1.403 . S
C310 C300 1.476 . S
C310 N305 1.318 . S
C310 C309 1.396 . S
H311 C306 0.929 . S
O312 Mn288 2.385 . S
O312 C290 1.234 . S
O313 Mn288 2.209 . S
O313 Mn289 2.215 . S
O313 C290 1.283 . S
O314 Mn288 2.094 . S
O314 C292 1.240 . S
O315 Mn289 2.117 . S
O315 C292 1.264 . S
C316 C309 1.403 . S
C316 C317 1.399 . S
C316 H322 0.929 . S
C317 C297 1.449 . S
C317 C316 1.399 . S
C317 H323 0.930 . S
H318 C298 0.931 . S
H319 C299 0.930 . S
H320 C307 0.931 . S
H321 C308 0.929 . S
H322 C316 0.929 . S
H323 C317 0.930 . S
H324 C332 0.950 . S
H325 C337 0.950 . S
H326 C334 0.950 . S
H327 C336 0.950 . S
H328 C338 0.949 . S
H329 C340 0.950 . S
H330 C342 0.950 . S
H331 C343 0.950 . S
C332 H324 0.950 . S
C332 C333 1.386 . S
C332 C334 1.391 . S
C333 C332 1.386 . S
C333 C337 1.393 1_554 S
C334 H326 0.950 . S
C334 C332 1.391 . S
C334 C335 1.400 . S
C335 C334 1.400 . S
C335 C336 1.398 1_554 S
C335 C341 1.491 . S
C336 H327 0.950 . S
C336 C335 1.398 1_556 S
C336 C337 1.391 . S
C337 H325 0.950 . S
C337 C333 1.393 1_556 S
C337 C336 1.391 . S
C338 H328 0.949 . S
C338 C339 1.386 1_556 S
C338 C340 1.391 . S
C339 C338 1.386 1_554 S
C339 C343 1.393 . S
C340 H329 0.950 . S
C340 C338 1.391 . S
C340 C341 1.400 1_556 S
C341 C335 1.491 . S
C341 C340 1.400 1_554 S
C341 C342 1.398 . S
C342 H330 0.950 . S
C342 C341 1.398 . S
C342 C343 1.391 . S
C343 H331 0.950 . S
C343 C339 1.393 . S
C343 C342 1.391 . S
H344 C352 0.950 . S
H345 C357 0.950 . S
H346 C354 0.950 . S
H347 C356 0.950 . S
H348 C358 0.950 . S
H349 C360 0.950 . S
H350 C362 0.950 . S
H351 C363 0.950 . S
C352 H344 0.950 . S
C352 C353 1.386 1_556 S
C352 C354 1.391 . S
C353 C352 1.386 1_554 S
C353 C357 1.393 . S
C354 H346 0.950 . S
C354 C352 1.391 . S
C354 C355 1.400 1_556 S
C355 C354 1.400 1_554 S
C355 C356 1.398 . S
C355 C361 1.491 1_565 S
C356 H347 0.950 . S
C356 C355 1.398 . S
C356 C357 1.391 . S
C357 H345 0.950 . S
C357 C353 1.393 . S
C357 C356 1.391 . S
C358 H348 0.950 . S
C358 C359 1.386 . S
C358 C360 1.391 . S
C359 C358 1.386 . S
C359 C363 1.393 1_554 S
C360 H349 0.950 . S
C360 C358 1.391 . S
C360 C361 1.400 . S
C361 C355 1.491 1_545 S
C361 C360 1.400 . S
C361 C362 1.398 1_554 S
C362 H350 0.950 . S
C362 C361 1.398 1_556 S
C362 C363 1.391 . S
C363 H351 0.950 . S
C363 C359 1.393 1_556 S
C363 C362 1.391 . S
H364 C372 0.950 . S
H365 C377 0.950 . S
H366 C374 0.950 . S
H367 C376 0.950 . S
H368 C378 0.950 . S
H369 C380 0.950 1_556 S
H370 C382 0.950 . S
H371 C383 0.950 . S
C372 H364 0.950 . S
C372 C373 1.386 . S
C372 C374 1.391 . S
C373 C372 1.386 . S
C373 C377 1.393 1_554 S
C374 H366 0.950 . S
C374 C372 1.391 . S
C374 C375 1.400 . S
C375 C374 1.400 . S
C375 C376 1.398 1_554 S
C375 C381 1.491 1_655 S
C376 H367 0.950 . S
C376 C375 1.398 1_556 S
C376 C377 1.391 . S
C377 H365 0.950 . S
C377 C373 1.393 1_556 S
C377 C376 1.391 . S
C378 H368 0.950 . S
C378 C379 1.386 . S
C378 C380 1.391 . S
C379 C378 1.386 . S
C379 C383 1.393 . S
C380 H369 0.950 1_554 S
C380 C378 1.391 . S
C380 C381 1.400 . S
C381 C375 1.491 1_455 S
C381 C380 1.400 . S
C381 C382 1.398 . S
C382 H370 0.950 . S
C382 C381 1.398 . S
C382 C383 1.391 . S
C383 H371 0.950 . S
C383 C379 1.393 . S
C383 C382 1.391 . S
H384 C392 0.950 . S
H385 C397 0.950 . S
H386 C394 0.950 . S
H387 C396 0.950 . S
H388 C398 0.950 . S
H389 C400 0.950 . S
H390 C402 0.950 . S
H391 C403 0.950 . S
C392 H384 0.950 . S
C392 C393 1.386 . S
C392 C394 1.391 . S
C393 C392 1.386 . S
C393 C397 1.393 . S
C394 H386 0.950 . S
C394 C392 1.391 . S
C394 C395 1.400 . S
C395 C394 1.400 . S
C395 C396 1.398 . S
C395 C401 1.491 . S
C396 H387 0.950 . S
C396 C395 1.398 . S
C396 C397 1.391 . S
C397 H385 0.950 . S
C397 C393 1.393 . S
C397 C396 1.391 . S
C398 H388 0.950 . S
C398 C399 1.386 . S
C398 C400 1.391 . S
C399 C398 1.386 . S
C399 C403 1.393 . S
C400 H389 0.950 . S
C400 C398 1.391 . S
C400 C401 1.400 . S
C401 C395 1.491 . S
C401 C400 1.400 . S
C401 C402 1.398 . S
C402 H390 0.950 . S
C402 C401 1.398 . S
C402 C403 1.391 . S
C403 H391 0.950 . S
C403 C399 1.393 . S
C403 C402 1.391 . S
H404 C412 0.950 . S
H405 C417 0.950 . S
H406 C414 0.950 . S
H407 C416 0.950 . S
H408 C418 0.950 . S
H409 C420 0.950 . S
H410 C422 0.950 . S
H411 C423 0.950 . S
C412 H404 0.950 . S
C412 C413 1.386 . S
C412 C414 1.391 . S
C413 C412 1.386 . S
C413 C417 1.393 . S
C414 H406 0.950 . S
C414 C412 1.391 . S
C414 C415 1.400 . S
C415 C414 1.400 . S
C415 C416 1.398 . S
C415 C421 1.491 . S
C416 H407 0.950 . S
C416 C415 1.398 . S
C416 C417 1.391 . S
C417 H405 0.950 . S
C417 C413 1.393 . S
C417 C416 1.391 . S
C418 H408 0.950 . S
C418 C419 1.386 . S
C418 C420 1.391 . S
C419 C418 1.386 . S
C419 C423 1.393 . S
C420 H409 0.950 . S
C420 C418 1.391 . S
C420 C421 1.400 . S
C421 C415 1.491 . S
C421 C420 1.400 . S
C421 C422 1.398 . S
C422 H410 0.950 . S
C422 C421 1.398 . S
C422 C423 1.391 . S
C423 H411 0.950 . S
C423 C419 1.393 . S
C423 C422 1.391 . S
H424 C432 0.950 . S
H425 C437 0.950 . S
H426 C434 0.950 . S
H427 C436 0.950 . S
H428 C438 0.950 . S
H429 C440 0.950 . S
H430 C442 0.950 . S
H431 C443 0.950 . S
C432 H424 0.950 . S
C432 C433 1.386 . S
C432 C434 1.391 . S
C433 C432 1.386 . S
C433 C437 1.393 . S
C434 H426 0.950 . S
C434 C432 1.391 . S
C434 C435 1.400 . S
C435 C434 1.400 . S
C435 C436 1.398 . S
C435 C441 1.491 . S
C436 H427 0.950 . S
C436 C435 1.398 . S
C436 C437 1.391 . S
C437 H425 0.950 . S
C437 C433 1.393 . S
C437 C436 1.391 . S
C438 H428 0.950 . S
C438 C439 1.386 . S
C438 C440 1.391 . S
C439 C438 1.386 . S
C439 C443 1.393 . S
C440 H429 0.950 . S
C440 C438 1.391 . S
C440 C441 1.400 . S
C441 C435 1.491 . S
C441 C440 1.400 . S
C441 C442 1.398 . S
C442 H430 0.950 . S
C442 C441 1.398 . S
C442 C443 1.391 . S
C443 H431 0.950 . S
C443 C439 1.393 . S
C443 C442 1.391 . S
H444 C452 0.950 . S
H445 C457 0.950 . S
H446 C454 0.950 . S
H447 C456 0.950 . S
H448 C458 0.950 . S
H449 C460 0.950 . S
H450 C462 0.950 . S
H451 C463 0.950 . S
C452 H444 0.950 . S
C452 C453 1.386 . S
C452 C454 1.391 . S
C453 C452 1.386 . S
C453 C457 1.393 . S
C454 H446 0.950 . S
C454 C452 1.391 . S
C454 C455 1.400 . S
C455 C454 1.400 . S
C455 C456 1.398 . S
C455 C461 1.491 . S
C456 H447 0.950 . S
C456 C455 1.398 . S
C456 C457 1.391 . S
C457 H445 0.950 . S
C457 C453 1.393 . S
C457 C456 1.391 . S
C458 H448 0.950 . S
C458 C459 1.386 . S
C458 C460 1.391 . S
C459 C458 1.386 . S
C459 C463 1.393 . S
C460 H449 0.950 . S
C460 C458 1.391 . S
C460 C461 1.400 . S
C461 C455 1.491 . S
C461 C460 1.400 . S
C461 C462 1.398 . S
C462 H450 0.950 . S
C462 C461 1.398 . S
C462 C463 1.391 . S
C463 H451 0.950 . S
C463 C459 1.393 . S
C463 C462 1.391 . S
H464 C472 0.950 . S
H465 C477 0.950 . S
H466 C474 0.950 . S
H467 C476 0.950 . S
H468 C478 0.950 . S
H469 C480 0.950 . S
H470 C482 0.950 . S
H471 C483 0.950 . S
C472 H464 0.950 . S
C472 C473 1.386 . S
C472 C474 1.391 . S
C473 C472 1.386 . S
C473 C477 1.393 . S
C474 H466 0.950 . S
C474 C472 1.391 . S
C474 C475 1.400 . S
C475 C474 1.400 . S
C475 C476 1.398 . S
C475 C481 1.491 . S
C476 H467 0.950 . S
C476 C475 1.398 . S
C476 C477 1.391 . S
C477 H465 0.950 . S
C477 C473 1.393 . S
C477 C476 1.391 . S
C478 H468 0.950 . S
C478 C479 1.386 . S
C478 C480 1.391 . S
C479 C478 1.386 . S
C479 C483 1.393 . S
C480 H469 0.950 . S
C480 C478 1.391 . S
C480 C481 1.400 . S
C481 C475 1.491 . S
C481 C480 1.400 . S
C481 C482 1.398 . S
C482 H470 0.950 . S
C482 C481 1.398 . S
C482 C483 1.391 . S
C483 H471 0.950 . S
C483 C479 1.393 . S
C483 C482 1.391 . S
H484 C492 0.950 . S
H485 C497 0.950 . S
H486 C494 0.950 . S
H487 C496 0.950 . S
H488 C498 0.950 . S
H489 C500 0.950 . S
H490 C502 0.950 . S
H491 C503 0.950 . S
C492 H484 0.950 . S
C492 C493 1.386 . S
C492 C494 1.391 . S
C493 C492 1.386 . S
C493 C497 1.393 . S
C494 H486 0.950 . S
C494 C492 1.391 . S
C494 C495 1.400 . S
C495 C494 1.400 . S
C495 C496 1.398 . S
C495 C501 1.491 . S
C496 H487 0.950 . S
C496 C495 1.398 . S
C496 C497 1.391 . S
C497 H485 0.950 . S
C497 C493 1.393 . S
C497 C496 1.391 . S
C498 H488 0.950 . S
C498 C499 1.386 . S
C498 C500 1.391 . S
C499 C498 1.386 . S
C499 C503 1.393 . S
C500 H489 0.950 . S
C500 C498 1.391 . S
C500 C501 1.400 . S
C501 C495 1.491 . S
C501 C500 1.400 . S
C501 C502 1.398 . S
C502 H490 0.950 . S
C502 C501 1.398 . S
C502 C503 1.391 . S
C503 H491 0.950 . S
C503 C499 1.393 . S
C503 C502 1.391 . S
H504 C512 0.950 . S
H505 C517 0.950 . S
H506 C514 0.950 . S
H507 C516 0.950 . S
H508 C518 0.950 . S
H509 C520 0.950 . S
H510 C522 0.950 . S
H511 C523 0.950 . S
C512 H504 0.950 . S
C512 C513 1.386 . S
C512 C514 1.391 . S
C513 C512 1.386 . S
C513 C517 1.393 . S
C514 H506 0.950 . S
C514 C512 1.391 . S
C514 C515 1.400 . S
C515 C514 1.400 . S
C515 C516 1.398 . S
C515 C521 1.491 . S
C516 H507 0.950 . S
C516 C515 1.398 . S
C516 C517 1.391 . S
C517 H505 0.950 . S
C517 C513 1.393 . S
C517 C516 1.391 . S
C518 H508 0.950 . S
C518 C519 1.386 . S
C518 C520 1.391 . S
C519 C518 1.386 . S
C519 C523 1.393 . S
C520 H509 0.950 . S
C520 C518 1.391 . S
C520 C521 1.400 . S
C521 C515 1.491 . S
C521 C520 1.400 . S
C521 C522 1.398 . S
C522 H510 0.950 . S
C522 C521 1.398 . S
C522 C523 1.391 . S
C523 H511 0.950 . S
C523 C519 1.393 . S
C523 C522 1.391 . S
H524 C532 0.950 . S
H525 C537 0.950 . S
H526 C534 0.950 . S
H527 C536 0.950 . S
H528 C538 0.950 . S
H529 C540 0.950 . S
H530 C542 0.950 . S
H531 C543 0.950 . S
C532 H524 0.950 . S
C532 C533 1.386 . S
C532 C534 1.391 . S
C533 C532 1.386 . S
C533 C537 1.393 . S
C534 H526 0.950 . S
C534 C532 1.391 . S
C534 C535 1.400 . S
C535 C534 1.400 . S
C535 C536 1.398 . S
C535 C541 1.491 . S
C536 H527 0.950 . S
C536 C535 1.398 . S
C536 C537 1.391 . S
C537 H525 0.950 . S
C537 C533 1.393 . S
C537 C536 1.391 . S
C538 H528 0.950 . S
C538 C539 1.386 . S
C538 C540 1.391 . S
C539 C538 1.386 . S
C539 C543 1.393 . S
C540 H529 0.950 . S
C540 C538 1.391 . S
C540 C541 1.400 . S
C541 C535 1.491 . S
C541 C540 1.400 . S
C541 C542 1.398 . S
C542 H530 0.950 . S
C542 C541 1.398 . S
C542 C543 1.391 . S
C543 H531 0.950 . S
C543 C539 1.393 . S
C543 C542 1.391 . S
H544 C552 0.950 . S
H545 C557 0.950 . S
H546 C554 0.950 . S
H547 C556 0.950 . S
H548 C558 0.950 . S
H549 C560 0.950 . S
H550 C562 0.950 . S
H551 C563 0.950 . S
C552 H544 0.950 . S
C552 C553 1.386 . S
C552 C554 1.391 . S
C553 C552 1.386 . S
C553 C557 1.393 . S
C554 H546 0.950 . S
C554 C552 1.391 . S
C554 C555 1.400 . S
C555 C554 1.400 . S
C555 C556 1.398 . S
C555 C561 1.491 . S
C556 H547 0.950 . S
C556 C555 1.398 . S
C556 C557 1.391 . S
C557 H545 0.950 . S
C557 C553 1.393 . S
C557 C556 1.391 . S
C558 H548 0.950 . S
C558 C559 1.386 . S
C558 C560 1.391 . S
C559 C558 1.386 . S
C559 C563 1.393 . S
C560 H549 0.950 . S
C560 C558 1.391 . S
C560 C561 1.400 . S
C561 C555 1.491 . S
C561 C560 1.400 . S
C561 C562 1.398 . S
C562 H550 0.950 . S
C562 C561 1.398 . S
C562 C563 1.391 . S
C563 H551 0.950 . S
C563 C559 1.393 . S
C563 C562 1.391 . S
H564 C572 0.950 . S
H565 C577 0.950 . S
H566 C574 0.950 . S
H567 C576 0.950 . S
H568 C578 0.950 . S
H569 C580 0.950 . S
H570 C582 0.950 . S
H571 C583 0.950 . S
C572 H564 0.950 . S
C572 C573 1.386 . S
C572 C574 1.391 . S
C573 C572 1.386 . S
C573 C577 1.393 . S
C574 H566 0.950 . S
C574 C572 1.391 . S
C574 C575 1.400 . S
C575 C574 1.400 . S
C575 C576 1.398 . S
C575 C581 1.491 . S
C576 H567 0.950 . S
C576 C575 1.398 . S
C576 C577 1.391 . S
C577 H565 0.950 . S
C577 C573 1.393 . S
C577 C576 1.391 . S
C578 H568 0.950 . S
C578 C579 1.386 . S
C578 C580 1.391 . S
C579 C578 1.386 . S
C579 C583 1.393 . S
C580 H569 0.950 . S
C580 C578 1.391 . S
C580 C581 1.400 . S
C581 C575 1.491 . S
C581 C580 1.400 . S
C581 C582 1.398 . S
C582 H570 0.950 . S
C582 C581 1.398 . S
C582 C583 1.391 . S
C583 H571 0.950 . S
C583 C579 1.393 . S
C583 C582 1.391 . S
H584 C592 0.950 . S
H585 C597 0.950 . S
H586 C594 0.950 . S
H587 C596 0.950 . S
H588 C598 0.950 . S
H589 C600 0.950 . S
H590 C602 0.950 . S
H591 C603 0.950 . S
C592 H584 0.950 . S
C592 C593 1.386 . S
C592 C594 1.391 . S
C593 C592 1.386 . S
C593 C597 1.393 . S
C594 H586 0.950 . S
C594 C592 1.391 . S
C594 C595 1.400 . S
C595 C594 1.400 . S
C595 C596 1.398 . S
C595 C601 1.491 . S
C596 H587 0.950 . S
C596 C595 1.398 . S
C596 C597 1.391 . S
C597 H585 0.950 . S
C597 C593 1.393 . S
C597 C596 1.391 . S
C598 H588 0.950 . S
C598 C599 1.386 . S
C598 C600 1.391 . S
C599 C598 1.386 . S
C599 C603 1.393 . S
C600 H589 0.950 . S
C600 C598 1.391 . S
C600 C601 1.400 . S
C601 C595 1.491 . S
C601 C600 1.400 . S
C601 C602 1.398 . S
C602 H590 0.950 . S
C602 C601 1.398 . S
C602 C603 1.391 . S
C603 H591 0.950 . S
C603 C599 1.393 . S
C603 C602 1.391 . S
H604 C612 0.950 . S
H605 C617 0.950 . S
H606 C614 0.950 . S
H607 C616 0.950 . S
H608 C618 0.950 . S
H609 C620 0.950 . S
H610 C622 0.950 . S
H611 C623 0.950 . S
C612 H604 0.950 . S
C612 C613 1.386 . S
C612 C614 1.391 . S
C613 C612 1.386 . S
C613 C617 1.393 . S
C614 H606 0.950 . S
C614 C612 1.391 . S
C614 C615 1.400 . S
C615 C614 1.400 . S
C615 C616 1.398 . S
C615 C621 1.491 . S
C616 H607 0.950 . S
C616 C615 1.398 . S
C616 C617 1.391 . S
C617 H605 0.950 . S
C617 C613 1.393 . S
C617 C616 1.391 . S
C618 H608 0.950 . S
C618 C619 1.386 . S
C618 C620 1.391 . S
C619 C618 1.386 . S
C619 C623 1.393 . S
C620 H609 0.950 . S
C620 C618 1.391 . S
C620 C621 1.400 . S
C621 C615 1.491 . S
C621 C620 1.400 . S
C621 C622 1.398 . S
C622 H610 0.950 . S
C622 C621 1.398 . S
C622 C623 1.391 . S
C623 H611 0.950 . S
C623 C619 1.393 . S
C623 C622 1.391 . S
H624 C632 0.950 . S
H625 C637 0.950 . S
H626 C634 0.950 . S
H627 C636 0.950 . S
H628 C638 0.950 . S
H629 C640 0.950 . S
H630 C642 0.950 . S
H631 C643 0.950 . S
C632 H624 0.950 . S
C632 C633 1.386 . S
C632 C634 1.391 . S
C633 C632 1.386 . S
C633 C637 1.393 . S
C634 H626 0.950 . S
C634 C632 1.391 . S
C634 C635 1.400 . S
C635 C634 1.400 . S
C635 C636 1.398 . S
C635 C641 1.491 . S
C636 H627 0.950 . S
C636 C635 1.398 . S
C636 C637 1.391 . S
C637 H625 0.950 . S
C637 C633 1.393 . S
C637 C636 1.391 . S
C638 H628 0.950 . S
C638 C639 1.386 . S
C638 C640 1.391 1_655 S
C639 C638 1.386 . S
C639 C643 1.393 . S
C640 H629 0.950 . S
C640 C638 1.391 1_455 S
C640 C641 1.400 . S
C641 C635 1.491 . S
C641 C640 1.400 . S
C641 C642 1.398 1_455 S
C642 H630 0.950 . S
C642 C641 1.398 1_655 S
C642 C643 1.391 . S
C643 H631 0.950 . S
C643 C639 1.393 . S
C643 C642 1.391 . S
H644 C652 0.950 . S
H645 C657 0.950 . S
H646 C654 0.950 . S
H647 C656 0.950 . S
H648 C658 0.950 . S
H649 C660 0.950 . S
H650 C662 0.950 . S
H651 C663 0.950 . S
C652 H644 0.950 . S
C652 C653 1.386 . S
C652 C654 1.391 . S
C653 C652 1.386 . S
C653 C657 1.393 . S
C654 H646 0.950 . S
C654 C652 1.391 . S
C654 C655 1.400 . S
C655 C654 1.400 . S
C655 C656 1.398 . S
C655 C661 1.491 . S
C656 H647 0.950 . S
C656 C655 1.398 . S
C656 C657 1.391 . S
C657 H645 0.950 . S
C657 C653 1.393 . S
C657 C656 1.391 . S
C658 H648 0.950 . S
C658 C659 1.386 . S
C658 C660 1.391 . S
C659 C658 1.386 . S
C659 C663 1.393 . S
C660 H649 0.950 . S
C660 C658 1.391 . S
C660 C661 1.400 . S
C661 C655 1.491 . S
C661 C660 1.400 . S
C661 C662 1.398 . S
C662 H650 0.950 . S
C662 C661 1.398 . S
C662 C663 1.391 . S
C663 H651 0.950 . S
C663 C659 1.393 . S
C663 C662 1.391 . S
H664 C672 0.950 . S
H665 C677 0.950 . S
H666 C674 0.950 . S
H667 C676 0.950 1_545 S
H668 C678 0.950 . S
H669 C680 0.950 . S
H670 C682 0.950 . S
H671 C683 0.950 . S
C672 H664 0.950 . S
C672 C673 1.386 . S
C672 C674 1.391 . S
C673 C672 1.386 . S
C673 C677 1.393 . S
C674 H666 0.950 . S
C674 C672 1.391 . S
C674 C675 1.400 . S
C675 C674 1.400 . S
C675 C676 1.398 . S
C675 C681 1.491 1_565 S
C676 H667 0.950 1_565 S
C676 C675 1.398 . S
C676 C677 1.391 . S
C677 H665 0.950 . S
C677 C673 1.393 . S
C677 C676 1.391 . S
C678 H668 0.950 . S
C678 C679 1.386 . S
C678 C680 1.391 . S
C679 C678 1.386 . S
C679 C683 1.393 . S
C680 H669 0.950 . S
C680 C678 1.391 . S
C680 C681 1.400 . S
C681 C675 1.491 1_545 S
C681 C680 1.400 . S
C681 C682 1.398 . S
C682 H670 0.950 . S
C682 C681 1.398 . S
C682 C683 1.391 . S
C683 H671 0.950 . S
C683 C679 1.393 . S
C683 C682 1.391 . S
C333 C75 0.993 . S
C339 C2 0.965 . S
C353 C39 1.009 . S
C359 C3 0.989 . S
C373 C38 1.038 . S
C379 C74 1.039 . S
C393 C182 1.050 . S
C399 C110 1.021 . S
C413 C147 0.962 . S
C419 C111 0.948 . S
C433 C146 0.978 . S
C439 C183 0.984 . S
C453 C218 0.970 . S
C459 C291 1.018 . S
C473 C219 0.896 . S
C479 C255 0.917 . S
C493 C254 1.048 . S
C499 C290 1.066 . S
C513 C4 1.387 . S
C519 C256 1.385 . S
C533 C50 1.364 . S
C539 C302 1.368 . S
C553 C230 1.317 . S
C559 C76 1.343 . S
C573 C158 1.318 . S
C579 C86 1.302 . S
C593 C14 1.348 1_655 S
C599 C194 1.323 . S
C613 C112 1.392 . S
C619 C40 1.394 . S
C633 C266 1.361 . S
C639 C184 1.379 . S
C653 C122 1.392 . S
C659 C292 1.409 . S
C673 C220 1.366 . S
C679 C148 1.363 . S
