# Generated by pormake.
# Topology wkp, (6)-cn, num edge types: 1
# Building blocks:
#     Node 0, Type 0, BuildingBlock: OJICUG_clean_sbu_0, # of connection points: 6
#     Node 1, Type 0, BuildingBlock: OJICUG_clean_sbu_0, # of connection points: 6
#     Node 2, Type 0, BuildingBlock: OJICUG_clean_sbu_0, # of connection points: 6
#     Node 3, Type 0, BuildingBlock: OJICUG_clean_sbu_0, # of connection points: 6
#     Node 4, Type 0, BuildingBlock: OJICUG_clean_sbu_0, # of connection points: 6
#     Node 5, Type 0, BuildingBlock: OJICUG_clean_sbu_0, # of connection points: 6
#     Node 6, Type 0, BuildingBlock: OJICUG_clean_sbu_0, # of connection points: 6
#     Node 7, Type 0, BuildingBlock: OJICUG_clean_sbu_0, # of connection points: 6
#     Node 8, Type 0, BuildingBlock: OJICUG_clean_sbu_0, # of connection points: 6
#     Node 9, Type 0, BuildingBlock: OJICUG_clean_sbu_0, # of connection points: 6
#     Node 10, Type 0, BuildingBlock: OJICUG_clean_sbu_0, # of connection points: 6
#     Node 11, Type 0, BuildingBlock: OJICUG_clean_sbu_0, # of connection points: 6
#     Edge 12, Type (0, 0), BuildingBlock: EZIPEK_clean_linker_0, # of connection points: 2
#     Edge 13, Type (0, 0), BuildingBlock: EZIPEK_clean_linker_0, # of connection points: 2
#     Edge 14, Type (0, 0), BuildingBlock: EZIPEK_clean_linker_0, # of connection points: 2
#     Edge 15, Type (0, 0), BuildingBlock: EZIPEK_clean_linker_0, # of connection points: 2
#     Edge 16, Type (0, 0), BuildingBlock: EZIPEK_clean_linker_0, # of connection points: 2
#     Edge 17, Type (0, 0), BuildingBlock: EZIPEK_clean_linker_0, # of connection points: 2
#     Edge 18, Type (0, 0), BuildingBlock: EZIPEK_clean_linker_0, # of connection points: 2
#     Edge 19, Type (0, 0), BuildingBlock: EZIPEK_clean_linker_0, # of connection points: 2
#     Edge 20, Type (0, 0), BuildingBlock: EZIPEK_clean_linker_0, # of connection points: 2
#     Edge 21, Type (0, 0), BuildingBlock: EZIPEK_clean_linker_0, # of connection points: 2
#     Edge 22, Type (0, 0), BuildingBlock: EZIPEK_clean_linker_0, # of connection points: 2
#     Edge 23, Type (0, 0), BuildingBlock: EZIPEK_clean_linker_0, # of connection points: 2
#     Edge 24, Type (0, 0), BuildingBlock: EZIPEK_clean_linker_0, # of connection points: 2
#     Edge 25, Type (0, 0), BuildingBlock: EZIPEK_clean_linker_0, # of connection points: 2
#     Edge 26, Type (0, 0), BuildingBlock: EZIPEK_clean_linker_0, # of connection points: 2
#     Edge 27, Type (0, 0), BuildingBlock: EZIPEK_clean_linker_0, # of connection points: 2
#     Edge 28, Type (0, 0), BuildingBlock: EZIPEK_clean_linker_0, # of connection points: 2
#     Edge 29, Type (0, 0), BuildingBlock: EZIPEK_clean_linker_0, # of connection points: 2
#     Edge 30, Type (0, 0), BuildingBlock: EZIPEK_clean_linker_0, # of connection points: 2
#     Edge 31, Type (0, 0), BuildingBlock: EZIPEK_clean_linker_0, # of connection points: 2
#     Edge 32, Type (0, 0), BuildingBlock: EZIPEK_clean_linker_0, # of connection points: 2
#     Edge 33, Type (0, 0), BuildingBlock: EZIPEK_clean_linker_0, # of connection points: 2
#     Edge 34, Type (0, 0), BuildingBlock: EZIPEK_clean_linker_0, # of connection points: 2
#     Edge 35, Type (0, 0), BuildingBlock: EZIPEK_clean_linker_0, # of connection points: 2
#     Edge 36, Type (0, 0), BuildingBlock: EZIPEK_clean_linker_0, # of connection points: 2
#     Edge 37, Type (0, 0), BuildingBlock: EZIPEK_clean_linker_0, # of connection points: 2
#     Edge 38, Type (0, 0), BuildingBlock: EZIPEK_clean_linker_0, # of connection points: 2
#     Edge 39, Type (0, 0), BuildingBlock: EZIPEK_clean_linker_0, # of connection points: 2
#     Edge 40, Type (0, 0), BuildingBlock: EZIPEK_clean_linker_0, # of connection points: 2
#     Edge 41, Type (0, 0), BuildingBlock: EZIPEK_clean_linker_0, # of connection points: 2
#     Edge 42, Type (0, 0), BuildingBlock: EZIPEK_clean_linker_0, # of connection points: 2
#     Edge 43, Type (0, 0), BuildingBlock: EZIPEK_clean_linker_0, # of connection points: 2
#     Edge 44, Type (0, 0), BuildingBlock: EZIPEK_clean_linker_0, # of connection points: 2
#     Edge 45, Type (0, 0), BuildingBlock: EZIPEK_clean_linker_0, # of connection points: 2
#     Edge 46, Type (0, 0), BuildingBlock: EZIPEK_clean_linker_0, # of connection points: 2
#     Edge 47, Type (0, 0), BuildingBlock: EZIPEK_clean_linker_0, # of connection points: 2
# Relax obj value: 0.288
# Max RMSD: 0.309
# Mean RMSD: 0.309
data_MOF--net-wkp--node1-OJICUG_clean_sbu_0--edge1-EZIPEK_clean_linker_0
_symmetry_space_group_name_H-M    P1
_symmetry_Int_Tables_number       1
_symmetry_cell_setting            triclinic
loop_
_symmetry_equiv_pos_as_xyz
'x, y, z'
_cell_length_a     32.76963
_cell_length_b     32.761554
_cell_length_c     22.929249
_cell_angle_alpha  89.900655
_cell_angle_beta   90.324185
_cell_angle_gamma 119.399
loop_
_atom_site_label
_atom_site_type_symbol
_atom_site_fract_x
_atom_site_fract_y
_atom_site_fract_z
_atom_type_partial_charge
Sc0 Sc 0.21936 0.44883 0.00915 0.0
Sc1 Sc 0.18761 0.33011 0.98885 0.0
Sc2 Sc 0.291 0.40607 0.06526 0.0
O3 O 0.23243 0.39477 0.02148 0.0
C4 C 0.32989 0.5011 0.99568 0.0
C5 C 0.19173 0.39882 0.8863 0.0
C6 C 0.28805 0.34465 0.95576 0.0
C7 C 0.11755 0.36299 0.03306 0.0
C8 C 0.24922 0.45744 0.14366 0.0
C9 C 0.22167 0.30099 0.10456 0.0
O10 O 0.2905 0.49888 0.98919 0.0
O11 O 0.17884 0.3585 0.90766 0.0
O12 O 0.30914 0.37313 0.99726 0.0
O13 O 0.14618 0.40599 0.02464 0.0
O14 O 0.27553 0.43931 0.13645 0.0
O15 O 0.1922 0.2913 0.06329 0.0
O16 O 0.22719 0.46408 0.10198 0.0
O17 O 0.12772 0.33044 0.02675 0.0
O18 O 0.25693 0.34125 0.11181 0.0
O19 O 0.20963 0.43618 0.91653 0.0
O20 O 0.33565 0.47089 0.02313 0.0
O21 O 0.24395 0.32546 0.94827 0.0
Sc22 Sc 0.87508 0.2961 0.22826 0.0
Sc23 Sc 0.86021 0.19799 0.15281 0.0
Sc24 Sc 0.76347 0.21414 0.17744 0.0
O25 O 0.83258 0.23556 0.18685 0.0
C26 C 0.78783 0.24666 0.3108 0.0
C27 C 0.92294 0.23285 0.26223 0.0
C28 C 0.76066 0.11805 0.19789 0.0
C29 C 0.93783 0.30402 0.12494 0.0
C30 C 0.80257 0.32218 0.16715 0.0
C31 C 0.79299 0.19663 0.05212 0.0
O32 O 0.8321 0.26982 0.30423 0.0
O33 O 0.89536 0.19723 0.23219 0.0
O34 O 0.74335 0.14479 0.20392 0.0
O35 O 0.91903 0.32365 0.15326 0.0
O36 O 0.77588 0.28103 0.1492 0.0
O37 O 0.8306 0.19887 0.07052 0.0
O38 O 0.8378 0.33169 0.19938 0.0
O39 O 0.92209 0.25999 0.12529 0.0
O40 O 0.7623 0.19668 0.08592 0.0
O41 O 0.92121 0.27089 0.26137 0.0
O42 O 0.75865 0.22909 0.26865 0.0
O43 O 0.80104 0.13123 0.17671 0.0
Sc44 Sc 0.52195 0.76856 0.34512 0.0
Sc45 Sc 0.64373 0.84457 0.33656 0.0
Sc46 Sc 0.57149 0.88115 0.40634 0.0
O47 O 0.57925 0.83161 0.36264 0.0
C48 C 0.48006 0.83679 0.32691 0.0
C49 C 0.57806 0.79186 0.22605 0.0
C50 C 0.64626 0.94053 0.30835 0.0
C51 C 0.5981 0.73904 0.3758 0.0
C52 C 0.50595 0.78654 0.47875 0.0
C53 C 0.66889 0.89783 0.45929 0.0
O54 O 0.4786 0.7977 0.322 0.0
O55 O 0.61784 0.81491 0.25091 0.0
O56 O 0.6151 0.93557 0.34511 0.0
O57 O 0.55663 0.72965 0.36433 0.0
O58 O 0.52952 0.83103 0.47347 0.0
O59 O 0.67897 0.87873 0.41764 0.0
O60 O 0.50108 0.75966 0.43601 0.0
O61 O 0.6336 0.77948 0.37116 0.0
O62 O 0.63104 0.89949 0.46088 0.0
O63 O 0.53946 0.77362 0.25358 0.0
O64 O 0.51167 0.87096 0.35534 0.0
O65 O 0.65945 0.91051 0.30019 0.0
Sc66 Sc 0.67473 0.56806 0.57083 0.0
Sc67 Sc 0.76841 0.64842 0.48604 0.0
Sc68 Sc 0.75438 0.53665 0.51349 0.0
O69 O 0.73275 0.58458 0.5236 0.0
C70 C 0.72612 0.52778 0.64752 0.0
C71 C 0.73893 0.67891 0.59943 0.0
C72 C 0.85052 0.62896 0.53062 0.0
C73 C 0.65972 0.62055 0.46854 0.0
C74 C 0.64624 0.47232 0.50497 0.0
C75 C 0.77044 0.58257 0.38691 0.0
O76 O 0.7043 0.55077 0.64329 0.0
O77 O 0.77154 0.68655 0.564 0.0
O78 O 0.82415 0.5855 0.539 0.0
O79 O 0.64231 0.58462 0.50093 0.0
O80 O 0.68686 0.48441 0.4866 0.0
O81 O 0.76826 0.61834 0.40356 0.0
O82 O 0.63737 0.49602 0.54143 0.0
O83 O 0.70368 0.64726 0.46155 0.0
O84 O 0.76904 0.55166 0.42174 0.0
O85 O 0.70222 0.63903 0.6044 0.0
O86 O 0.74173 0.5157 0.60401 0.0
O87 O 0.83615 0.65535 0.50811 0.0
Sc88 Sc 0.20693 0.75012 0.6885 0.0
Sc89 Sc 0.1276 0.79231 0.67123 0.0
Sc90 Sc 0.09023 0.68364 0.73804 0.0
O91 O 0.14162 0.7421 0.69967 0.0
C92 C 0.14007 0.64208 0.6584 0.0
C93 C 0.19121 0.78777 0.56751 0.0
C94 C 0.03459 0.70296 0.63413 0.0
C95 C 0.22925 0.8524 0.72464 0.0
C96 C 0.18161 0.70662 0.81726 0.0
C97 C 0.06564 0.75832 0.78837 0.0
O98 O 0.17962 0.67921 0.65847 0.0
O99 O 0.163 0.79934 0.58993 0.0
O100 O 0.03678 0.67697 0.67443 0.0
O101 O 0.24153 0.82182 0.71562 0.0
O102 O 0.13739 0.68609 0.80799 0.0
O103 O 0.08468 0.78736 0.74662 0.0
O104 O 0.21028 0.73207 0.7783 0.0
O105 O 0.18849 0.84625 0.71426 0.0
O106 O 0.06918 0.72172 0.79432 0.0
O107 O 0.2111 0.77024 0.59814 0.0
O108 O 0.10424 0.63824 0.68432 0.0
O109 O 0.06747 0.74377 0.62434 0.0
Sc110 Sc 0.41441 0.10684 0.91224 0.0
Sc111 Sc 0.32572 0.11915 0.84058 0.0
Sc112 Sc 0.44163 0.21438 0.84824 0.0
O113 O 0.39368 0.14663 0.8669 0.0
C114 C 0.46226 0.20421 0.98171 0.0
C115 C 0.31187 0.07218 0.96608 0.0
C116 C 0.35093 0.22317 0.87147 0.0
C117 C 0.34401 0.03305 0.82146 0.0
C118 C 0.50289 0.16461 0.83259 0.0
C119 C 0.38584 0.17675 0.72893 0.0
O120 O 0.45017 0.16108 0.97642 0.0
O121 O 0.29601 0.08572 0.92386 0.0
O122 O 0.39425 0.23974 0.86287 0.0
O123 O 0.37909 0.04754 0.8554 0.0
O124 O 0.49672 0.19969 0.82848 0.0
O125 O 0.34794 0.14679 0.75332 0.0
O126 O 0.47578 0.12785 0.8605 0.0
O127 O 0.32182 0.05507 0.81171 0.0
O128 O 0.42327 0.20363 0.75687 0.0
O129 O 0.35369 0.07919 0.96627 0.0
O130 O 0.46106 0.22901 0.93958 0.0
O131 O 0.3212 0.17984 0.86796 0.0
Sc132 Sc 0.56694 0.69063 0.7858 0.0
Sc133 Sc 0.64589 0.79115 0.86484 0.0
Sc134 Sc 0.52686 0.76122 0.85133 0.0
O135 O 0.58017 0.74784 0.83385 0.0
C136 C 0.5088 0.73163 0.71592 0.0
C137 C 0.6699 0.76297 0.74122 0.0
C138 C 0.61166 0.86308 0.82968 0.0
C139 C 0.63539 0.69008 0.88436 0.0
C140 C 0.47541 0.65118 0.86454 0.0
C141 C 0.58102 0.78447 0.97321 0.0
O142 O 0.52986 0.70765 0.71909 0.0
O143 O 0.6806 0.79087 0.78436 0.0
O144 O 0.56874 0.83389 0.83601 0.0
O145 O 0.60374 0.66926 0.84589 0.0
O146 O 0.47726 0.69037 0.87063 0.0
O147 O 0.62029 0.79484 0.95052 0.0
O148 O 0.50498 0.64575 0.8349 0.0
O149 O 0.65366 0.73348 0.89597 0.0
O150 O 0.54355 0.77068 0.94359 0.0
O151 O 0.62957 0.72726 0.73484 0.0
O152 O 0.50596 0.75344 0.76024 0.0
O153 O 0.64441 0.85317 0.8359 0.0
Sc154 Sc 0.75993 0.53285 0.01256 0.0
Sc155 Sc 0.85014 0.648 0.04064 0.0
Sc156 Sc 0.87452 0.5692 0.9661 0.0
O157 O 0.82804 0.58357 0.00586 0.0
C158 C 0.81064 0.47359 0.03305 0.0
C159 C 0.7844 0.57953 0.13839 0.0
C160 C 0.93501 0.62898 0.06911 0.0
C161 C 0.74861 0.62178 0.99113 0.0
C162 C 0.787 0.52412 0.88153 0.0
C163 C 0.91287 0.67803 0.93051 0.0
O164 O 0.77769 0.4822 0.04247 0.0
O165 O 0.82008 0.61713 0.12251 0.0
O166 O 0.92054 0.59193 0.03927 0.0
O167 O 0.7347 0.57854 0.98485 0.0
O168 O 0.83103 0.54611 0.89006 0.0
O169 O 0.88563 0.6852 0.96285 0.0
O170 O 0.75695 0.51339 0.92194 0.0
O171 O 0.78804 0.65063 0.01342 0.0
O172 O 0.9129 0.63914 0.929 0.0
O173 O 0.75685 0.54762 0.10351 0.0
O174 O 0.84557 0.49902 1.0011 0.0
O175 O 0.91484 0.65359 0.07062 0.0
Sc176 Sc 0.27547 0.863 0.11061 0.0
Sc177 Sc 0.18505 0.84861 0.20057 0.0
Sc178 Sc 0.21609 0.75963 0.19092 0.0
O179 O 0.22624 0.82378 0.16876 0.0
C180 C 0.23598 0.76092 0.05403 0.0
C181 C 0.20806 0.89414 0.07243 0.0
C182 C 0.11381 0.7443 0.16826 0.0
C183 C 0.27994 0.93789 0.20764 0.0
C184 C 0.32732 0.82592 0.19356 0.0
C185 C 0.19488 0.79295 0.3112 0.0
O186 O 0.26094 0.80531 0.05232 0.0
O187 O 0.18947 0.89007 0.12233 0.0
O188 O 0.142 0.72895 0.17866 0.0
O189 O 0.29394 0.92746 0.16089 0.0
O190 O 0.29016 0.78802 0.20612 0.0
O191 O 0.1817 0.81915 0.28602 0.0
O192 O 0.32847 0.85726 0.15965 0.0
O193 O 0.24297 0.90953 0.23389 0.0
O194 O 0.20933 0.76969 0.28221 0.0
O195 O 0.22296 0.86675 0.05908 0.0
O196 O 0.21914 0.73949 0.1016 0.0
O197 O 0.1246 0.78729 0.16937 0.0
Sc198 Sc 0.43806 0.21118 0.3536 0.0
Sc199 Sc 0.32236 0.19106 0.3739 0.0
Sc200 Sc 0.40638 0.29374 0.30503 0.0
O201 O 0.38875 0.23171 0.34373 0.0
C202 C 0.49848 0.31907 0.37956 0.0
C203 C 0.38538 0.18565 0.47678 0.0
C204 C 0.34495 0.29427 0.41099 0.0
C205 C 0.3472 0.11547 0.32215 0.0
C206 C 0.45499 0.25144 0.22306 0.0
C207 C 0.30084 0.23023 0.25836 0.0
O208 O 0.49169 0.27772 0.3831 0.0
O209 O 0.34786 0.18273 0.4568 0.0
O210 O 0.37807 0.31513 0.37497 0.0
O211 O 0.3911 0.14198 0.32465 0.0
O212 O 0.43588 0.27665 0.23133 0.0
O213 O 0.28903 0.19729 0.2952 0.0
O214 O 0.45967 0.22694 0.26311 0.0
O215 O 0.31788 0.12753 0.33978 0.0
O216 O 0.34128 0.26631 0.25726 0.0
O217 O 0.42057 0.19411 0.44518 0.0
O218 O 0.47196 0.32988 0.35086 0.0
O219 O 0.3198 0.24988 0.41172 0.0
Sc220 Sc 0.09533 0.40074 0.45164 0.0
Sc221 Sc 0.12843 0.32813 0.52681 0.0
Sc222 Sc 0.20729 0.44845 0.51519 0.0
O223 O 0.14351 0.39232 0.49772 0.0
C224 C 0.19149 0.46082 0.38149 0.0
C225 C 0.07498 0.30185 0.40299 0.0
C226 C 0.2332 0.36783 0.49266 0.0
C227 C 0.03394 0.32741 0.55079 0.0
C228 C 0.14108 0.49368 0.5264 0.0
C229 C 0.18174 0.39588 0.63495 0.0
O230 O 0.14728 0.44346 0.38691 0.0
O231 O 0.09053 0.29104 0.44806 0.0
O232 O 0.24411 0.40942 0.5068 0.0
O233 O 0.03874 0.35581 0.50981 0.0
O234 O 0.18079 0.49599 0.52883 0.0
O235 O 0.16115 0.3557 0.61075 0.0
O236 O 0.10536 0.45985 0.50306 0.0
O237 O 0.06511 0.31709 0.5653 0.0
O238 O 0.19836 0.4342 0.60696 0.0
O239 O 0.07816 0.34181 0.39651 0.0
O240 O 0.21853 0.4643 0.4236 0.0
O241 O 0.19131 0.33438 0.49099 0.0
Sc242 Sc 0.75725 0.21125 0.67556 0.0
Sc243 Sc 0.77465 0.11595 0.70422 0.0
Sc244 Sc 0.6755 0.0987 0.62914 0.0
O245 O 0.73654 0.14228 0.66866 0.0
C246 C 0.6503 0.16749 0.69507 0.0
C247 C 0.78068 0.18697 0.80102 0.0
C248 C 0.66937 0.04115 0.73819 0.0
C249 C 0.85232 0.21457 0.65206 0.0
C250 C 0.72167 0.18346 0.54392 0.0
C251 C 0.73736 0.04902 0.59892 0.0
O252 O 0.69166 0.19598 0.71087 0.0
O253 O 0.77555 0.14781 0.78482 0.0
O254 O 0.64945 0.05812 0.70669 0.0
O255 O 0.82487 0.23089 0.64346 0.0
O256 O 0.70139 0.13929 0.55148 0.0
O257 O 0.77373 0.07786 0.627 0.0
O258 O 0.73637 0.21314 0.58566 0.0
O259 O 0.84022 0.17538 0.67679 0.0
O260 O 0.6995 0.051 0.59946 0.0
O261 O 0.78119 0.21702 0.76537 0.0
O262 O 0.64055 0.13691 0.6556 0.0
O263 O 0.71316 0.05545 0.73613 0.0
C264 C 0.22746 0.40967 0.72739 0.0
C265 C 0.18451 0.39797 0.69928 0.0
C266 C 0.14638 0.38913 0.79403 0.0
C267 C 0.18976 0.40225 0.82207 0.0
N268 N 0.27285 0.43084 0.817 0.0
N269 N 0.10401 0.38057 0.70348 0.0
C270 C 0.23073 0.41443 0.7891 0.0
C271 C 0.14412 0.3887 0.73198 0.0
N272 N 0.26444 0.4141 0.69514 0.0
N273 N 0.10739 0.37666 0.82704 0.0
H274 H 0.1007 0.37871 0.65819 0.0
H275 H 0.0747 0.37824 0.72395 0.0
H276 H 0.10886 0.38032 0.87228 0.0
H277 H 0.07347 0.36136 0.81037 0.0
H278 H 0.29509 0.41726 0.71314 0.0
H279 H 0.26333 0.41116 0.64978 0.0
H280 H 0.30484 0.44535 0.79559 0.0
H281 H 0.27616 0.43282 0.86225 0.0
C282 C 0.80305 0.16851 0.95556 0.0
C283 C 0.78605 0.19378 0.98795 0.0
C284 C 0.7634 0.21586 0.8961 0.0
C285 C 0.7873 0.19655 0.86461 0.0
N286 N 0.84466 0.17038 0.86882 0.0
N287 N 0.76137 0.25263 0.98644 0.0
C288 C 0.81201 0.17811 0.89583 0.0
C289 C 0.76936 0.22076 0.9577 0.0
N290 N 0.8092 0.13418 0.98104 0.0
N291 N 0.73362 0.2277 0.86863 0.0
H292 H 0.76797 0.25984 0.03073 0.0
H293 H 0.7532 0.27571 0.96472 0.0
H294 H 0.72684 0.22383 0.82405 0.0
H295 H 0.71211 0.23722 0.89143 0.0
H296 H 0.8187 0.11306 0.95722 0.0
H297 H 0.79903 0.12298 0.02379 0.0
H298 H 0.86543 0.15964 0.89155 0.0
H299 H 0.85483 0.18032 0.82571 0.0
C300 C 0.57401 0.74736 0.07139 0.0
C301 C 0.57851 0.78586 0.03787 0.0
C302 C 0.58475 0.82907 0.1279 0.0
C303 C 0.57685 0.78919 0.16128 0.0
N304 N 0.55684 0.70801 0.16522 0.0
N305 N 0.58153 0.86071 0.03308 0.0
C306 C 0.56914 0.74753 0.13308 0.0
C307 C 0.58181 0.82593 0.06585 0.0
N308 N 0.57595 0.71123 0.04438 0.0
N309 N 0.5961 0.87029 0.1555 0.0
H310 H 0.58063 0.86003 0.98759 0.0
H311 H 0.57869 0.88845 0.05074 0.0
H312 H 0.59702 0.87364 0.20076 0.0
H313 H 0.6076 0.90199 0.13382 0.0
H314 H 0.57812 0.68472 0.06681 0.0
H315 H 0.57889 0.70958 0.99931 0.0
H316 H 0.54557 0.67512 0.14685 0.0
H317 H 0.55442 0.70729 0.21059 0.0
C318 C 0.73633 0.57781 0.28795 0.0
C319 C 0.77068 0.57519 0.32333 0.0
C320 C 0.80432 0.56098 0.23607 0.0
C321 C 0.77565 0.57257 0.20121 0.0
N322 N 0.71721 0.59665 0.19346 0.0
N323 N 0.84123 0.56921 0.33023 0.0
C324 C 0.74215 0.58192 0.22689 0.0
C325 C 0.80552 0.56749 0.29734 0.0
N326 N 0.69712 0.57463 0.31243 0.0
N327 N 0.82985 0.54324 0.21057 0.0
H328 H 0.84431 0.57547 0.375 0.0
H329 H 0.87008 0.56867 0.3122 0.0
H330 H 0.82928 0.53793 0.16564 0.0
H331 H 0.84795 0.52995 0.23428 0.0
H332 H 0.66829 0.56953 0.28757 0.0
H333 H 0.69142 0.57159 0.35719 0.0
H334 H 0.69622 0.6092 0.21109 0.0
H335 H 0.7204 0.59981 0.14826 0.0
C336 C 0.18312 0.81984 0.47026 0.0
C337 C 0.19761 0.79187 0.50223 0.0
C338 C 0.22138 0.774 0.4087 0.0
C339 C 0.19531 0.79138 0.37709 0.0
N340 N 0.13635 0.81582 0.38752 0.0
N341 N 0.21775 0.72928 0.49331 0.0
C342 C 0.1716 0.80992 0.41052 0.0
C343 C 0.21301 0.76494 0.46933 0.0
N344 N 0.18136 0.85662 0.49552 0.0
N345 N 0.25561 0.76797 0.3832 0.0
H346 H 0.20738 0.71636 0.53516 0.0
H347 H 0.22598 0.70788 0.46802 0.0
H348 H 0.26848 0.77965 0.34163 0.0
H349 H 0.27636 0.75789 0.4072 0.0
H350 H 0.17249 0.87837 0.47174 0.0
H351 H 0.19536 0.86932 0.53679 0.0
H352 H 0.11795 0.82784 0.41271 0.0
H353 H 0.12052 0.80177 0.3475 0.0
C354 C 0.39441 0.2231 0.57447 0.0
C355 C 0.38939 0.18432 0.54112 0.0
C356 C 0.38576 0.14212 0.63112 0.0
C357 C 0.38693 0.17933 0.66429 0.0
N358 N 0.38592 0.25228 0.66825 0.0
N359 N 0.37538 0.1051 0.53631 0.0
C360 C 0.38981 0.2192 0.63616 0.0
C361 C 0.38399 0.14338 0.56907 0.0
N362 N 0.40437 0.26405 0.54707 0.0
N363 N 0.38761 0.10616 0.65899 0.0
H364 H 0.37508 0.10533 0.49081 0.0
H365 H 0.36555 0.07226 0.55389 0.0
H366 H 0.38771 0.1034 0.70429 0.0
H367 H 0.39264 0.08104 0.63752 0.0
H368 H 0.41403 0.29531 0.56902 0.0
H369 H 0.40614 0.26782 0.50183 0.0
H370 H 0.38217 0.27935 0.6499 0.0
H371 H 0.38254 0.25061 0.71354 0.0
C372 C 0.2935 0.29972 0.86963 0.0
C373 C 0.31401 0.32646 0.92098 0.0
C374 C 0.3584 0.28624 0.9375 0.0
C375 C 0.336 0.25699 0.88876 0.0
N376 N 0.29172 0.24318 0.79947 0.0
N377 N 0.38559 0.36316 0.97759 0.0
C378 C 0.3062 0.2658 0.8519 0.0
C379 C 0.35275 0.32557 0.94692 0.0
N380 N 0.2629 0.30781 0.83764 0.0
N381 N 0.38408 0.27592 0.97587 0.0
H382 H 0.38638 0.39537 0.97762 0.0
H383 H 0.41592 0.36466 0.99445 0.0
H384 H 0.38808 0.24643 0.97166 0.0
H385 H 0.39726 0.2941 0.01492 0.0
H386 H 0.24211 0.2863 0.80394 0.0
H387 H 0.25884 0.33705 0.84504 0.0
H388 H 0.27307 0.25058 0.76836 0.0
H389 H 0.30087 0.21855 0.78517 0.0
C390 C -0.01359 0.31672 0.03731 0.0
C391 C 0.9823 0.33218 0.09362 0.0
C392 C 0.06682 0.36906 0.10863 0.0
C393 C 0.07076 0.35151 0.05368 0.0
N394 N 0.03717 0.31652 0.96069 0.0
N395 N 0.01938 0.3865 0.17336 0.0
C396 C 0.03136 0.3278 0.01628 0.0
C397 C 0.02281 0.36308 0.12603 0.0
N398 N 0.94675 0.29019 0.00515 0.0
N399 N 0.10464 0.38915 0.14555 0.0
H400 H -0.0118 0.38458 0.18654 0.0
H401 H 0.04827 0.41245 0.19555 0.0
H402 H 0.13716 0.39264 0.13528 0.0
H403 H 0.10301 0.39851 0.18847 0.0
H404 H 0.94575 0.27264 0.96694 0.0
H405 H 0.91403 0.28513 0.01787 0.0
H406 H 0.01088 0.30341 0.92912 0.0
H407 H 0.06937 0.3224 0.94487 0.0
C408 C 0.7505 0.0581 0.2718 0.0
C409 C 0.7334 0.0705 0.22185 0.0
C410 C 0.65671 -0.00016 0.23227 0.0
C411 C 0.6747 0.98637 0.28031 0.0
N412 N 0.73972 -0.00107 0.34206 0.0
N413 N 0.67402 0.05059 0.14794 0.0
C414 C 0.72195 0.01435 0.2987 0.0
C415 C 0.68745 0.0406 0.20019 0.0
N416 N 0.79287 0.08924 0.29582 0.0
N417 N 0.61034 0.97391 0.21776 0.0
H418 H 0.69628 0.07968 0.12292 0.0
H419 H 0.64267 0.02823 0.12685 0.0
H420 H 0.58729 0.9433 0.23973 0.0
H421 H 0.59388 0.98417 0.18674 0.0
H422 H 0.80441 0.08467 0.33644 0.0
H423 H 0.81558 0.12161 0.27749 0.0
H424 H 0.77544 0.01353 0.35035 0.0
H425 H 0.71892 0.96974 0.36753 0.0
C426 C 0.61238 0.66031 0.48392 0.0
C427 C 0.62842 0.63715 0.44586 0.0
C428 C 0.61609 0.67448 0.36118 0.0
C429 C 0.60462 0.70122 0.39924 0.0
N430 N 0.57867 0.71146 0.49368 0.0
N431 N 0.62366 0.60499 0.35117 0.0
C432 C 0.59805 0.69116 0.45974 0.0
C433 C 0.62356 0.63896 0.38511 0.0
N434 N 0.61303 0.6545 0.54292 0.0
N435 N 0.62091 0.68374 0.30272 0.0
H436 H 0.62461 0.57647 0.37003 0.0
H437 H 0.61638 0.60181 0.30661 0.0
H438 H 0.61445 0.70892 0.28349 0.0
H439 H 0.63395 0.66837 0.27399 0.0
H440 H 0.60679 0.67418 0.5735 0.0
H441 H 0.6212 0.63052 0.56193 0.0
H442 H 0.56864 0.7022 0.5368 0.0
H443 H 0.56965 0.73579 0.47763 0.0
C444 C 0.96791 0.71436 0.59711 0.0
C445 C -0.00922 0.68681 0.59929 0.0
C446 C 0.92634 0.62706 0.54063 0.0
C447 C 0.89967 0.64989 0.55126 0.0
N448 N 0.89268 0.70966 0.60506 0.0
N449 N -0.0083 0.61643 0.57023 0.0
C450 C 0.91974 0.69206 0.58354 0.0
C451 C 0.96978 0.64273 0.5705 0.0
N452 N -0.00898 0.76159 0.60715 0.0
N453 N 0.91143 0.59209 0.50002 0.0
H454 H 0.02563 0.62875 0.58612 0.0
H455 H 0.97541 0.58171 0.55617 0.0
H456 H 0.88131 0.58162 0.47484 0.0
H457 H 0.93147 0.57709 0.48674 0.0
H458 H 0.97513 0.78207 0.60019 0.0
H459 H 0.02641 0.78163 0.61685 0.0
H460 H 0.90591 0.7383 0.63335 0.0
H461 H 0.85632 0.69249 0.60117 0.0
C462 C 0.3319 0.97465 0.74453 0.0
C463 C 0.32205 0.9844 0.80103 0.0
C464 C 0.25894 0.9036 0.81167 0.0
C465 C 0.26352 0.89654 0.75175 0.0
N466 N 0.30305 0.9241 0.65967 0.0
N467 N 0.27813 0.95913 0.8905 0.0
C468 C 0.30007 0.93149 0.71779 0.0
C469 C 0.28647 0.94892 0.83557 0.0
N470 N 0.37204 0.00635 0.71731 0.0
N471 N 0.22893 0.86673 0.84571 0.0
H472 H 0.29991 -0.00909 0.91103 0.0
H473 H 0.24879 0.93695 0.91487 0.0
H474 H 0.20807 0.83294 0.82931 0.0
H475 H 0.22738 0.86847 0.89091 0.0
H476 H 0.38339 -0.00015 0.67787 0.0
H477 H 0.39639 0.03755 0.73736 0.0
H478 H 0.32573 0.95012 0.6313 0.0
H479 H 0.28063 0.89254 0.63885 0.0
C480 C 0.64504 0.64186 0.96304 0.0
C481 C 0.65888 0.66547 0.90899 0.0
C482 C 0.73238 0.66402 0.91237 0.0
C483 C 0.7188 0.63943 0.96588 0.0
N484 N 0.6593 0.5979 0.03826 0.0
N485 N 0.70551 0.68151 0.82279 0.0
C486 C 0.67404 0.62602 0.99009 0.0
C487 C 0.69952 0.67137 0.88085 0.0
N488 N 0.60417 0.63439 0.9878 0.0
N489 N 0.77682 0.68113 0.89167 0.0
H490 H 0.6814 0.68608 0.79774 0.0
H491 H 0.73102 0.67909 0.7986 0.0
H492 H 0.80227 0.67605 0.9125 0.0
H493 H 0.78943 0.70372 0.85604 0.0
H494 H 0.59388 0.62161 0.02985 0.0
H495 H 0.5807 0.64202 0.96592 0.0
H496 H 0.62562 0.58334 0.05511 0.0
H497 H 0.68026 0.58692 0.05988 0.0
C498 C -0.01382 0.65329 0.15701 0.0
C499 C 0.9815 0.64929 0.09556 0.0
C500 C 0.06345 0.70753 0.08271 0.0
C501 C 0.0684 0.71105 0.1441 0.0
N502 N 0.03872 0.68285 0.2404 0.0
N503 N 0.01718 0.66271 1.0002 0.0
C504 C 0.03108 0.68226 0.18164 0.0
C505 C 0.02077 0.67292 0.05849 0.0
N506 N 0.94743 0.63035 0.19128 0.0
N507 N 0.09902 0.73837 0.04767 0.0
H508 H -0.01369 0.63814 0.98007 0.0
H509 H 0.04575 0.67568 0.97222 0.0
H510 H 0.13159 0.76374 0.06352 0.0
H511 H 0.09579 0.74048 0.00277 0.0
H512 H 0.94726 0.6357 0.23599 0.0
H513 H 0.91463 0.60697 0.17406 0.0
H514 H 0.01403 0.65951 0.26955 0.0
H515 H 0.07109 0.70501 0.25978 0.0
C516 C 0.28175 0.01467 0.21678 0.0
C517 C 0.3028 0.98661 0.22919 0.0
C518 C 0.34868 0.04028 0.30759 0.0
C519 C 0.33016 0.07009 0.29208 0.0
N520 N 0.28692 0.09045 0.22276 0.0
N521 N 0.36211 0.97656 0.2786 0.0
C522 C 0.29896 0.05872 0.24408 0.0
C523 C 0.33844 0.0009 0.27193 0.0
N524 N 0.24397 -0.00144 0.18033 0.0
N525 N 0.37383 0.04812 0.35811 0.0
H526 H 0.35513 0.94765 0.25272 0.0
H527 H 0.39131 0.98753 0.30561 0.0
H528 H 0.38007 0.07523 0.38687 0.0
H529 H 0.38443 0.02513 0.37451 0.0
H530 H 0.22302 0.01416 0.1761 0.0
H531 H 0.23168 0.96769 0.15718 0.0
H532 H 0.26893 0.08582 0.18355 0.0
H533 H 0.29897 0.12376 0.24013 0.0
C534 C 0.27193 0.32056 0.51562 0.0
C535 C 0.27097 0.35663 0.48235 0.0
C536 C 0.33983 0.3674 0.4295 0.0
C537 C 0.33067 0.32247 0.44838 0.0
N538 N 0.29746 0.26274 0.52264 0.0
N539 N 0.30537 0.4158 0.40704 0.0
C540 C 0.29985 0.30118 0.4961 0.0
C541 C 0.30573 0.38106 0.43967 0.0
N542 N 0.2474 0.30616 0.56659 0.0
N543 N 0.38176 0.39795 0.40497 0.0
H544 H 0.28129 0.42744 0.41291 0.0
H545 H 0.327 0.43054 0.37102 0.0
H546 H 0.41015 0.39189 0.40508 0.0
H547 H 0.3907 0.43216 0.3937 0.0
H548 H 0.24955 0.28273 0.59545 0.0
H549 H 0.22824 0.32125 0.58305 0.0
H550 H 0.27135 0.24162 0.55187 0.0
H551 H 0.32193 0.25186 0.51493 0.0
C552 C 0.92788 0.28994 0.64753 0.0
C553 C 0.90026 0.2424 0.6299 0.0
C554 C 0.96245 0.25013 0.56559 0.0
C555 C -0.01237 0.29902 0.57749 0.0
N556 N -0.00615 0.36676 0.62673 0.0
N557 N 0.88777 0.17918 0.56496 0.0
C558 C 0.97008 0.31944 0.6174 0.0
C559 C 0.91668 0.22284 0.58736 0.0
N560 N 0.91468 0.30613 0.69469 0.0
N561 N 0.98237 0.22929 0.534 0.0
H562 H 0.85362 0.15758 0.57907 0.0
H563 H 0.89614 0.16589 0.52847 0.0
H564 H 0.0143 0.2479 0.51293 0.0
H565 H 0.96866 0.1931 0.53256 0.0
H566 H 0.93539 0.33906 0.71316 0.0
H567 H 0.8848 0.28492 0.719 0.0
H568 H 0.98038 0.38443 0.65058 0.0
H569 H 0.02605 0.38898 0.60747 0.0
C570 C 0.64807 0.94918 0.84807 0.0
C571 C 0.62258 0.91009 0.81086 0.0
C572 C 0.60639 0.95846 0.74414 0.0
C573 C 0.64106 -0.00128 0.77314 0.0
N574 N 0.68941 0.034 0.8576 0.0
N575 N 0.58061 0.87776 0.72041 0.0
C576 C 0.65967 -0.00558 0.82733 0.0
C577 C 0.60205 0.91462 0.75833 0.0
N578 N 0.66019 0.94284 0.90314 0.0
N579 N 0.57753 0.96186 0.70359 0.0
H580 H 0.57857 0.84538 0.72763 0.0
H581 H 0.56934 0.88087 0.67889 0.0
H582 H 0.57686 -0.00717 0.69584 0.0
H583 H 0.54961 0.93273 0.68415 0.0
H584 H 0.67512 0.96941 0.93416 0.0
H585 H 0.65231 0.91003 0.9194 0.0
H586 H 0.70894 0.03433 0.89373 0.0
H587 H 0.69509 0.06706 0.84507 0.0
C588 C 0.38321 0.52861 0.91021 0.0
C589 C 0.37021 0.53836 0.96511 0.0
C590 C 0.43355 0.61881 0.95892 0.0
C591 C 0.44014 0.61148 0.89923 0.0
N592 N 0.41492 0.55986 0.81543 0.0
N593 N 0.38035 0.59362 0.04071 0.0
C594 C 0.4135 0.56639 0.87407 0.0
C595 C 0.39439 0.58384 0.98909 0.0
N596 N 0.36737 0.48343 0.89287 0.0
N597 N 0.46621 0.65766 0.98795 0.0
H598 H 0.35302 0.56814 0.0654 0.0
H599 H 0.39383 0.62758 0.05681 0.0
H600 H 0.49765 0.68197 0.96903 0.0
H601 H 0.46495 0.66258 0.03266 0.0
H602 H 0.37992 0.47483 0.85588 0.0
H603 H 0.34529 0.45464 0.91834 0.0
H604 H 0.39258 0.52828 0.7947 0.0
H605 H 0.43467 0.58709 0.78663 0.0
C606 C 0.77336 0.38845 0.05498 0.0
C607 C 0.80958 0.43463 0.06644 0.0
C608 C 0.82884 0.40842 0.15748 0.0
C609 C 0.79698 0.36143 0.14189 0.0
N610 N 0.72213 0.31214 0.09559 0.0
N611 N 0.874 0.48915 0.12692 0.0
C612 C 0.76422 0.35265 0.0961 0.0
C613 C 0.83802 0.4448 0.11722 0.0
N614 N 0.74848 0.37863 0.00397 0.0
N615 N 0.84617 0.41862 0.2131 0.0
H616 H 0.88062 0.51736 0.10014 0.0
H617 H 0.8993 0.49737 0.15928 0.0
H618 H 0.83421 0.39339 0.24599 0.0
H619 H 0.86653 0.45257 0.22893 0.0
H620 H 0.72511 0.34466 0.99029 0.0
H621 H 0.75459 0.40418 0.9727 0.0
H622 H 0.69556 0.30524 0.06554 0.0
H623 H 0.71081 0.28891 0.13065 0.0
C624 C 0.44634 0.83964 0.23063 0.0
C625 C 0.44569 0.84335 0.2923 0.0
C626 C 0.37382 0.84821 0.28564 0.0
C627 C 0.37032 0.8362 0.22566 0.0
N628 N 0.4018 0.81918 0.14026 0.0
N629 N 0.40811 0.84882 0.37974 0.0
C630 C 0.40647 0.83209 0.19764 0.0
C631 C 0.4096 0.84772 0.32022 0.0
N632 N 0.4855 0.84413 0.20383 0.0
N633 N 0.34337 0.86086 0.30914 0.0
H634 H 0.43416 0.84921 0.40649 0.0
H635 H 0.37957 0.84618 0.40268 0.0
H636 H 0.31651 0.86136 0.28502 0.0
H637 H 0.34706 0.87454 0.35102 0.0
H638 H 0.48994 0.84598 0.1588 0.0
H639 H 0.51555 0.8505 0.227 0.0
H640 H 0.42443 0.81035 0.1191 0.0
H641 H 0.37341 0.81438 0.11453 0.0
C642 C 0.5815 0.38925 0.50329 0.0
C643 C 0.60717 0.43289 0.4751 0.0
C644 C 0.56805 0.39882 0.38273 0.0
C645 C 0.53815 0.35652 0.41202 0.0
N646 N 0.51181 0.31341 0.50295 0.0
N647 N 0.61822 0.48232 0.39192 0.0
C648 C 0.54369 0.352 0.47308 0.0
C649 C 0.59851 0.43859 0.4159 0.0
N650 N 0.59381 0.38314 0.55835 0.0
N651 N 0.56865 0.40053 0.32312 0.0
H652 H 0.63945 0.51252 0.41591 0.0
H653 H 0.60942 0.48888 0.35056 0.0
H654 H 0.54824 0.37131 0.2971 0.0
H655 H 0.59307 0.42944 0.29965 0.0
H656 H 0.57994 0.35056 0.57856 0.0
H657 H 0.62057 0.41024 0.58222 0.0
H658 H 0.51124 0.31106 0.54827 0.0
H659 H 0.48347 0.28505 0.48328 0.0
C660 C 0.13419 0.52651 0.62133 0.0
C661 C 0.1353 0.52907 0.55949 0.0
C662 C 0.13024 0.60107 0.56335 0.0
C663 C 0.13541 0.60166 0.6249 0.0
N664 N 0.14559 0.5675 0.71313 0.0
N665 N 0.13767 0.56958 0.47074 0.0
C666 C 0.13796 0.56489 0.6542 0.0
C667 C 0.13384 0.5664 0.53011 0.0
N668 N 0.12848 0.48684 0.64844 0.0
N669 N 0.12086 0.63307 0.537 0.0
H670 H 0.13927 0.54413 0.44508 0.0
H671 H 0.14233 0.59876 0.44721 0.0
H672 H 0.11819 0.65906 0.56014 0.0
H673 H 0.11218 0.63178 0.49304 0.0
H674 H 0.12267 0.48074 0.69298 0.0
H675 H 0.12541 0.458 0.62551 0.0
H676 H 0.15327 0.54463 0.73608 0.0
H677 H 0.14736 0.59457 0.73885 0.0
C678 C 0.57665 0.16014 0.82507 0.0
C679 C 0.54041 0.16476 0.79752 0.0
C680 C 0.57799 0.17453 0.70262 0.0
C681 C 0.61196 0.16597 0.72952 0.0
N682 N 0.63742 0.13935 0.81356 0.0
N683 N 0.50033 0.16518 0.70879 0.0
C684 C 0.60961 0.15557 0.79004 0.0
C685 C 0.53927 0.16888 0.73585 0.0
N686 N 0.58051 0.16165 0.88452 0.0
N687 N 0.58336 0.18931 0.64598 0.0
H688 H 0.47041 0.1591 0.73145 0.0
H689 H 0.49581 0.16328 0.66368 0.0
H690 H 0.61146 0.19387 0.62027 0.0
H691 H 0.56222 0.20092 0.62615 0.0
H692 H 0.60932 0.1636 0.90656 0.0
H693 H 0.55704 0.16526 0.91168 0.0
H694 H 0.63374 0.12683 0.8561 0.0
H695 H 0.66124 0.13413 0.78916 0.0
C696 C 0.25117 0.24455 0.11696 0.0
C697 C 0.22268 0.26278 0.13807 0.0
C698 C 0.23243 0.24292 0.23797 0.0
C699 C 0.26524 0.22971 0.21765 0.0
N700 N 0.29455 0.20369 0.13874 0.0
N701 N 0.17193 0.26265 0.21249 0.0
C702 C 0.27053 0.22547 0.15715 0.0
C703 C 0.20835 0.25607 0.19675 0.0
N704 N 0.26185 0.24825 0.059 0.0
N705 N 0.22688 0.24621 0.29647 0.0
H706 H 0.1541 0.27178 0.18182 0.0
H707 H 0.15701 0.25508 0.25384 0.0
H708 H 0.24317 0.23597 0.32789 0.0
H709 H 0.20791 0.2611 0.31386 0.0
H710 H 0.28699 0.24128 0.04137 0.0
H711 H 0.24581 0.25944 0.0284 0.0
H712 H 0.29739 0.19646 0.09525 0.0
H713 H 0.30818 0.18909 0.16811 0.0
C714 C 0.00397 0.22598 0.37659 0.0
C715 C 0.04571 0.26587 0.35864 0.0
C716 C 0.00896 0.26139 0.26416 0.0
C717 C 0.9645 0.23418 0.29044 0.0
N718 N 0.91918 0.18404 0.36932 0.0
N719 N 0.09225 0.31312 0.27958 0.0
C720 C 0.96171 0.21364 0.34565 0.0
C721 C 0.04969 0.28017 0.29985 0.0
N722 N 0.0053 0.19904 0.42093 0.0
N723 N 0.0119 0.26841 0.20539 0.0
H724 H 0.12229 0.3245 0.30514 0.0
H725 H 0.09753 0.32909 0.23898 0.0
H726 H 0.98247 0.25183 0.17863 0.0
H727 H 0.0434 0.28543 0.18285 0.0
H728 H 0.97645 0.1672 0.43256 0.0
H729 H 0.03678 0.20636 0.44115 0.0
H730 H 0.91525 0.17202 0.41217 0.0
H731 H 0.88797 0.17325 0.34636 0.0
C732 C 0.70527 0.96225 0.5983 0.0
C733 C 0.73529 0.00651 0.5727 0.0
C734 C 0.74526 0.96574 0.4896 0.0
C735 C 0.70362 0.92495 0.50565 0.0
N736 N 0.65069 0.87964 0.58144 0.0
N737 N 0.78948 0.05054 0.49634 0.0
C738 C 0.6866 0.92145 0.56289 0.0
C739 C 0.75798 0.0084 0.51956 0.0
N740 N 0.69529 0.95949 0.65625 0.0
N741 N 0.77263 0.96329 0.44687 0.0
H742 H 0.79985 0.08216 0.51796 0.0
H743 H 0.80339 0.05392 0.4547 0.0
H744 H 0.76406 0.93171 0.4262 0.0
H745 H 0.80556 -0.00884 0.43676 0.0
H746 H 0.67666 0.92795 0.6785 0.0
H747 H 0.71085 -0.01113 0.6831 0.0
H748 H 0.63274 0.87542 0.62026 0.0
H749 H 0.63837 0.84927 0.55622 0.0
C750 C 0.71443 0.74008 0.60301 0.0
C751 C 0.73917 0.71938 0.62908 0.0
C752 C 0.74393 0.7604 0.72008 0.0
C753 C 0.70653 0.76703 0.69948 0.0
N754 N 0.66447 0.77471 0.61822 0.0
N755 N 0.78894 0.71976 0.70623 0.0
C756 C 0.69528 0.76149 0.63935 0.0
C757 C 0.75822 0.73331 0.68566 0.0
N758 N 0.7098 0.73939 0.54381 0.0
N759 N 0.76472 0.77911 0.77239 0.0
H760 H 0.80051 0.70133 0.68033 0.0
H761 H 0.80292 0.72644 0.7482 0.0
H762 H 0.75623 0.80075 0.79656 0.0
H763 H 0.79306 0.77689 0.78938 0.0
H764 H 0.69508 0.75673 0.52146 0.0
H765 H 0.72487 0.72491 0.51683 0.0
H766 H 0.65084 0.76766 0.57605 0.0
H767 H 0.65208 0.79241 0.64422 0.0
C768 C 0.98256 0.73991 0.79998 0.0
C769 C 0.02848 0.75947 0.8241 0.0
C770 C -0.00456 0.74416 0.92246 0.0
C771 C 0.95017 0.71756 0.89736 0.0
N772 N 0.89921 0.70755 0.81736 0.0
N773 N 0.07972 0.79231 0.90628 0.0
C774 C 0.94332 0.72144 0.83757 0.0
C775 C 0.03521 0.76616 0.88506 0.0
N776 N 0.9764 0.73551 0.74113 0.0
N777 N -0.00012 0.74714 0.98174 0.0
H778 H 0.10853 0.80849 0.87852 0.0
H779 H 0.08811 0.80035 0.95007 0.0
H780 H 0.97077 0.73244 0.00903 0.0
H781 H 0.03157 0.76486 0.004 0.0
H782 H 0.944 0.71576 0.72086 0.0
H783 H 0.00458 0.75059 0.71284 0.0
H784 H 0.89153 0.71229 0.77459 0.0
H785 H 0.87107 0.69615 0.84593 0.0
C786 C 0.22988 0.01059 0.0023 0.0
C787 C 0.27944 0.03715 0.01016 0.0
C788 C 0.28051 0.96944 0.04791 0.0
C789 C 0.23099 0.94154 0.04417 0.0
N790 N 0.15725 0.93918 0.02634 0.0
N791 N 0.34104 0.04614 0.07577 0.0
C792 C 0.20499 0.96341 0.02458 0.0
C793 C 0.30024 0.01812 0.04693 0.0
N794 N 0.20689 0.03024 0.97459 0.0
N795 N 0.30969 0.95086 0.04626 0.0
H796 H 0.35578 0.08254 0.07578 0.0
H797 H 0.35654 0.03239 0.10369 0.0
H798 H 0.29871 0.91644 0.03428 0.0
H799 H 0.34607 0.972 0.04734 0.0
H800 H 0.17207 0.01123 0.9611 0.0
H801 H 0.22298 0.0661 0.96614 0.0
H802 H 0.1364 0.9543 0.01752 0.0
H803 H 0.1387 0.90417 0.03929 0.0
C804 C 0.22175 0.50241 0.28477 0.0
C805 C 0.20936 0.46322 0.32158 0.0
C806 C 0.21827 0.42022 0.24024 0.0
C807 C 0.23572 0.4608 0.2047 0.0
N808 N 0.25945 0.54268 0.19489 0.0
N809 N 0.20515 0.3882 0.33735 0.0
C810 C 0.23885 0.50262 0.22735 0.0
C811 C 0.21106 0.42348 0.30035 0.0
N812 N 0.2168 0.53903 0.30452 0.0
N813 N 0.20473 0.37739 0.21581 0.0
H814 H 0.19572 0.38652 0.38096 0.0
H815 H 0.21274 0.36194 0.32544 0.0
H816 H 0.20451 0.37195 0.17102 0.0
H817 H 0.18796 0.34636 0.23934 0.0
H818 H 0.2207 0.56659 0.27812 0.0
H819 H 0.20588 0.54024 0.34685 0.0
H820 H 0.26672 0.57533 0.21079 0.0
H821 H 0.27268 0.54389 0.15326 0.0
C822 C 0.72148 0.22744 0.4536 0.0
C823 C 0.73822 0.20104 0.48459 0.0
C824 C 0.78331 0.20154 0.39993 0.0
C825 C 0.77015 0.23141 0.37046 0.0
N826 N 0.7312 0.2775 0.37032 0.0
N827 N 0.79355 0.17256 0.49243 0.0
C828 C 0.74034 0.24568 0.39752 0.0
C829 C 0.77157 0.19086 0.45924 0.0
N830 N 0.68682 0.23387 0.47709 0.0
N831 N 0.80532 0.18158 0.37061 0.0
H832 H 0.78682 0.16483 0.53665 0.0
H833 H 0.82187 0.16945 0.47755 0.0
H834 H 0.8141 0.18763 0.3266 0.0
H835 H 0.81061 0.15528 0.38848 0.0
H836 H 0.66975 0.24876 0.45447 0.0
H837 H 0.67278 0.22123 0.51823 0.0
H838 H 0.71351 0.29286 0.38999 0.0
H839 H 0.74437 0.29115 0.3292 0.0
C840 C 0.48433 0.77692 0.64491 0.0
C841 C 0.49086 0.7377 0.65678 0.0
C842 C 0.4776 0.71856 0.55173 0.0
C843 C 0.48889 0.76555 0.53908 0.0
N844 N 0.48833 0.83449 0.57535 0.0
N845 N 0.47918 0.66337 0.62075 0.0
C846 C 0.4881 0.79342 0.58631 0.0
C847 C 0.48336 0.70622 0.60983 0.0
N848 N 0.46979 0.79551 0.68804 0.0
N849 N 0.4569 0.6846 0.51005 0.0
H850 H 0.47218 0.64836 0.66219 0.0
H851 H 0.48204 0.64263 0.58838 0.0
H852 H 0.44359 0.6901 0.47129 0.0
H853 H 0.44561 0.64929 0.51745 0.0
H854 H 0.46243 0.82268 0.68143 0.0
H855 H 0.45711 0.77885 0.72782 0.0
H856 H 0.49628 0.86015 0.60699 0.0
H857 H 0.4797 0.8424 0.53463 0.0
C858 C 0.74513 0.47991 0.79062 0.0
C859 C 0.77089 0.52273 0.82127 0.0
C860 C 0.7734 0.56693 0.73461 0.0
C861 C 0.74306 0.5245 0.70578 0.0
N862 N 0.69654 0.44029 0.7061 0.0
N863 N 0.79862 0.60594 0.82691 0.0
C864 C 0.72802 0.48068 0.73353 0.0
C865 C 0.78202 0.56593 0.79454 0.0
N866 N 0.73785 0.43903 0.81566 0.0
N867 N 0.79536 0.6082 0.70436 0.0
H868 H 0.8053 0.60736 0.8716 0.0
H869 H 0.80057 0.6364 0.8101 0.0
H870 H 0.79112 0.61056 0.65956 0.0
H871 H 0.82168 0.63918 0.72262 0.0
H872 H 0.72315 0.40714 0.79362 0.0
H873 H 0.74951 0.43771 0.85772 0.0
H874 H 0.68069 0.40757 0.72612 0.0
H875 H 0.68402 0.43998 0.66408 0.0
C876 C 0.16849 0.68083 0.92362 0.0
C877 C 0.2001 0.70641 0.87844 0.0
C878 C 0.26053 0.74879 0.95406 0.0
C879 C 0.22488 0.73428 0.99696 0.0
N880 N 0.14354 0.68036 0.02233 0.0
N881 N 0.28188 0.75059 0.85243 0.0
C882 C 0.17867 0.69786 0.98214 0.0
C883 C 0.24807 0.73608 0.89417 0.0
N884 N 0.13018 0.63858 0.91112 0.0
N885 N 0.3064 0.77262 0.97151 0.0
H886 H 0.27643 0.73293 0.81291 0.0
H887 H 0.31578 0.7783 0.85784 0.0
H888 H 0.31618 0.77906 0.01537 0.0
H889 H 0.33478 0.78227 0.94396 0.0
H890 H 0.10779 0.61602 0.94282 0.0
H891 H 0.12503 0.62306 0.87005 0.0
H892 H 0.10857 0.65835 0.01118 0.0
H893 H 0.14776 0.68922 0.06617 0.0
C894 C 0.41965 0.19817 0.07297 0.0
C895 C 0.46254 0.22045 0.04219 0.0
C896 C 0.50175 0.26691 0.1297 0.0
C897 C 0.45979 0.24032 0.16163 0.0
N898 N 0.38188 0.17378 0.16614 0.0
N899 N 0.54551 0.27376 0.04105 0.0
C900 C 0.41975 0.20392 0.13397 0.0
C901 C 0.50405 0.25445 0.0704 0.0
N902 N 0.37825 0.17289 0.04347 0.0
N903 N 0.53891 0.30407 0.15587 0.0
H904 H 0.54761 0.26578 0.9975 0.0
H905 H 0.57786 0.29541 0.0605 0.0
H906 H 0.53833 0.31282 0.1995 0.0
H907 H 0.56903 0.32762 0.13375 0.0
H908 H 0.34559 0.15979 0.06306 0.0
H909 H 0.37624 0.16914 0.99823 0.0
H910 H 0.35463 0.14308 0.14872 0.0
H911 H 0.37956 0.17706 0.21103 0.0
loop_
_geom_bond_atom_site_label_1
_geom_bond_atom_site_label_2
_geom_bond_distance
_geom_bond_site_symmetry_2
_ccdc_geom_bond_type
Sc0 O3 2.025 . S
Sc0 O10 2.105 1_554 S
Sc0 O13 2.105 . S
Sc0 O16 2.105 . S
Sc0 O19 2.105 1_554 S
Sc1 O3 2.025 1_556 S
Sc1 O11 2.105 . S
Sc1 O15 2.105 1_556 S
Sc1 O17 2.105 1_556 S
Sc1 O21 2.105 . S
Sc2 O3 2.025 . S
Sc2 O12 2.105 1_554 S
Sc2 O14 2.105 . S
Sc2 O18 2.105 . S
Sc2 O20 2.105 . S
O3 Sc0 2.025 . S
O3 Sc1 2.025 1_554 S
O3 Sc2 2.025 . S
C4 O10 1.268 . S
C4 O20 1.268 1_556 S
C5 O11 1.268 . S
C5 O19 1.268 . S
C6 O12 1.268 . S
C6 O21 1.268 . S
C7 O13 1.268 . S
C7 O17 1.268 . S
C8 O14 1.268 . S
C8 O16 1.268 . S
C9 O15 1.268 . S
C9 O18 1.268 . S
O10 Sc0 2.105 1_556 S
O10 C4 1.268 . S
O11 Sc1 2.105 . S
O11 C5 1.268 . S
O12 Sc2 2.105 1_556 S
O12 C6 1.268 . S
O13 Sc0 2.105 . S
O13 C7 1.268 . S
O14 Sc2 2.105 . S
O14 C8 1.268 . S
O15 Sc1 2.105 1_554 S
O15 C9 1.268 . S
O16 Sc0 2.105 . S
O16 C8 1.268 . S
O17 Sc1 2.105 1_554 S
O17 C7 1.268 . S
O18 Sc2 2.105 . S
O18 C9 1.268 . S
O19 Sc0 2.105 1_556 S
O19 C5 1.268 . S
O20 Sc2 2.105 . S
O20 C4 1.268 1_554 S
O21 Sc1 2.105 . S
O21 C6 1.268 . S
Sc22 O25 2.025 . S
Sc22 O32 2.105 . S
Sc22 O35 2.105 . S
Sc22 O38 2.105 . S
Sc22 O41 2.105 . S
Sc23 O25 2.025 . S
Sc23 O33 2.105 . S
Sc23 O37 2.105 . S
Sc23 O39 2.105 . S
Sc23 O43 2.105 . S
Sc24 O25 2.025 . S
Sc24 O34 2.105 . S
Sc24 O36 2.105 . S
Sc24 O40 2.105 . S
Sc24 O42 2.105 . S
O25 Sc22 2.025 . S
O25 Sc23 2.025 . S
O25 Sc24 2.025 . S
C26 O32 1.268 . S
C26 O42 1.268 . S
C27 O33 1.268 . S
C27 O41 1.268 . S
C28 O34 1.268 . S
C28 O43 1.268 . S
C29 O35 1.268 . S
C29 O39 1.268 . S
C30 O36 1.268 . S
C30 O38 1.268 . S
C31 O37 1.268 . S
C31 O40 1.268 . S
O32 Sc22 2.105 . S
O32 C26 1.268 . S
O33 Sc23 2.105 . S
O33 C27 1.268 . S
O34 Sc24 2.105 . S
O34 C28 1.268 . S
O35 Sc22 2.105 . S
O35 C29 1.268 . S
O36 Sc24 2.105 . S
O36 C30 1.268 . S
O37 Sc23 2.105 . S
O37 C31 1.268 . S
O38 Sc22 2.105 . S
O38 C30 1.268 . S
O39 Sc23 2.105 . S
O39 C29 1.268 . S
O40 Sc24 2.105 . S
O40 C31 1.268 . S
O41 Sc22 2.105 . S
O41 C27 1.268 . S
O42 Sc24 2.105 . S
O42 C26 1.268 . S
O43 Sc23 2.105 . S
O43 C28 1.268 . S
Sc44 O47 2.025 . S
Sc44 O54 2.105 . S
Sc44 O57 2.105 . S
Sc44 O60 2.105 . S
Sc44 O63 2.105 . S
Sc45 O47 2.025 . S
Sc45 O55 2.105 . S
Sc45 O59 2.105 . S
Sc45 O61 2.105 . S
Sc45 O65 2.105 . S
Sc46 O47 2.025 . S
Sc46 O56 2.105 . S
Sc46 O58 2.105 . S
Sc46 O62 2.105 . S
Sc46 O64 2.105 . S
O47 Sc44 2.025 . S
O47 Sc45 2.025 . S
O47 Sc46 2.025 . S
C48 O54 1.268 . S
C48 O64 1.268 . S
C49 O55 1.268 . S
C49 O63 1.268 . S
C50 O56 1.268 . S
C50 O65 1.268 . S
C51 O57 1.268 . S
C51 O61 1.268 . S
C52 O58 1.268 . S
C52 O60 1.268 . S
C53 O59 1.268 . S
C53 O62 1.268 . S
O54 Sc44 2.105 . S
O54 C48 1.268 . S
O55 Sc45 2.105 . S
O55 C49 1.268 . S
O56 Sc46 2.105 . S
O56 C50 1.268 . S
O57 Sc44 2.105 . S
O57 C51 1.268 . S
O58 Sc46 2.105 . S
O58 C52 1.268 . S
O59 Sc45 2.105 . S
O59 C53 1.268 . S
O60 Sc44 2.105 . S
O60 C52 1.268 . S
O61 Sc45 2.105 . S
O61 C51 1.268 . S
O62 Sc46 2.105 . S
O62 C53 1.268 . S
O63 Sc44 2.105 . S
O63 C49 1.268 . S
O64 Sc46 2.105 . S
O64 C48 1.268 . S
O65 Sc45 2.105 . S
O65 C50 1.268 . S
Sc66 O69 2.025 . S
Sc66 O76 2.105 . S
Sc66 O79 2.105 . S
Sc66 O82 2.105 . S
Sc66 O85 2.105 . S
Sc67 O69 2.025 . S
Sc67 O77 2.105 . S
Sc67 O81 2.105 . S
Sc67 O83 2.105 . S
Sc67 O87 2.105 . S
Sc68 O69 2.025 . S
Sc68 O78 2.105 . S
Sc68 O80 2.105 . S
Sc68 O84 2.105 . S
Sc68 O86 2.105 . S
O69 Sc66 2.025 . S
O69 Sc67 2.025 . S
O69 Sc68 2.025 . S
C70 O76 1.268 . S
C70 O86 1.268 . S
C71 O77 1.268 . S
C71 O85 1.268 . S
C72 O78 1.268 . S
C72 O87 1.268 . S
C73 O79 1.268 . S
C73 O83 1.268 . S
C74 O80 1.268 . S
C74 O82 1.268 . S
C75 O81 1.268 . S
C75 O84 1.268 . S
O76 Sc66 2.105 . S
O76 C70 1.268 . S
O77 Sc67 2.105 . S
O77 C71 1.268 . S
O78 Sc68 2.105 . S
O78 C72 1.268 . S
O79 Sc66 2.105 . S
O79 C73 1.268 . S
O80 Sc68 2.105 . S
O80 C74 1.268 . S
O81 Sc67 2.105 . S
O81 C75 1.268 . S
O82 Sc66 2.105 . S
O82 C74 1.268 . S
O83 Sc67 2.105 . S
O83 C73 1.268 . S
O84 Sc68 2.105 . S
O84 C75 1.268 . S
O85 Sc66 2.105 . S
O85 C71 1.268 . S
O86 Sc68 2.105 . S
O86 C70 1.268 . S
O87 Sc67 2.105 . S
O87 C72 1.268 . S
Sc88 O91 2.025 . S
Sc88 O98 2.105 . S
Sc88 O101 2.105 . S
Sc88 O104 2.105 . S
Sc88 O107 2.105 . S
Sc89 O91 2.025 . S
Sc89 O99 2.105 . S
Sc89 O103 2.105 . S
Sc89 O105 2.105 . S
Sc89 O109 2.105 . S
Sc90 O91 2.025 . S
Sc90 O100 2.105 . S
Sc90 O102 2.105 . S
Sc90 O106 2.105 . S
Sc90 O108 2.105 . S
O91 Sc88 2.025 . S
O91 Sc89 2.025 . S
O91 Sc90 2.025 . S
C92 O98 1.268 . S
C92 O108 1.268 . S
C93 O99 1.268 . S
C93 O107 1.268 . S
C94 O100 1.268 . S
C94 O109 1.268 . S
C95 O101 1.268 . S
C95 O105 1.268 . S
C96 O102 1.268 . S
C96 O104 1.268 . S
C97 O103 1.268 . S
C97 O106 1.268 . S
O98 Sc88 2.105 . S
O98 C92 1.268 . S
O99 Sc89 2.105 . S
O99 C93 1.268 . S
O100 Sc90 2.105 . S
O100 C94 1.268 . S
O101 Sc88 2.105 . S
O101 C95 1.268 . S
O102 Sc90 2.105 . S
O102 C96 1.268 . S
O103 Sc89 2.105 . S
O103 C97 1.268 . S
O104 Sc88 2.105 . S
O104 C96 1.268 . S
O105 Sc89 2.105 . S
O105 C95 1.268 . S
O106 Sc90 2.105 . S
O106 C97 1.268 . S
O107 Sc88 2.105 . S
O107 C93 1.268 . S
O108 Sc90 2.105 . S
O108 C92 1.268 . S
O109 Sc89 2.105 . S
O109 C94 1.268 . S
Sc110 O113 2.025 . S
Sc110 O120 2.105 . S
Sc110 O123 2.105 . S
Sc110 O126 2.105 . S
Sc110 O129 2.105 . S
Sc111 O113 2.025 . S
Sc111 O121 2.105 . S
Sc111 O125 2.105 . S
Sc111 O127 2.105 . S
Sc111 O131 2.105 . S
Sc112 O113 2.025 . S
Sc112 O122 2.105 . S
Sc112 O124 2.105 . S
Sc112 O128 2.105 . S
Sc112 O130 2.105 . S
O113 Sc110 2.025 . S
O113 Sc111 2.025 . S
O113 Sc112 2.025 . S
C114 O120 1.268 . S
C114 O130 1.268 . S
C115 O121 1.268 . S
C115 O129 1.268 . S
C116 O122 1.268 . S
C116 O131 1.268 . S
C117 O123 1.268 . S
C117 O127 1.268 . S
C118 O124 1.268 . S
C118 O126 1.268 . S
C119 O125 1.268 . S
C119 O128 1.268 . S
O120 Sc110 2.105 . S
O120 C114 1.268 . S
O121 Sc111 2.105 . S
O121 C115 1.268 . S
O122 Sc112 2.105 . S
O122 C116 1.268 . S
O123 Sc110 2.105 . S
O123 C117 1.268 . S
O124 Sc112 2.105 . S
O124 C118 1.268 . S
O125 Sc111 2.105 . S
O125 C119 1.268 . S
O126 Sc110 2.105 . S
O126 C118 1.268 . S
O127 Sc111 2.105 . S
O127 C117 1.268 . S
O128 Sc112 2.105 . S
O128 C119 1.268 . S
O129 Sc110 2.105 . S
O129 C115 1.268 . S
O130 Sc112 2.105 . S
O130 C114 1.268 . S
O131 Sc111 2.105 . S
O131 C116 1.268 . S
Sc132 O135 2.025 . S
Sc132 O142 2.105 . S
Sc132 O145 2.105 . S
Sc132 O148 2.105 . S
Sc132 O151 2.105 . S
Sc133 O135 2.025 . S
Sc133 O143 2.105 . S
Sc133 O147 2.105 . S
Sc133 O149 2.105 . S
Sc133 O153 2.105 . S
Sc134 O135 2.025 . S
Sc134 O144 2.105 . S
Sc134 O146 2.105 . S
Sc134 O150 2.105 . S
Sc134 O152 2.105 . S
O135 Sc132 2.025 . S
O135 Sc133 2.025 . S
O135 Sc134 2.025 . S
C136 O142 1.268 . S
C136 O152 1.268 . S
C137 O143 1.268 . S
C137 O151 1.268 . S
C138 O144 1.268 . S
C138 O153 1.268 . S
C139 O145 1.268 . S
C139 O149 1.268 . S
C140 O146 1.268 . S
C140 O148 1.268 . S
C141 O147 1.268 . S
C141 O150 1.268 . S
O142 Sc132 2.105 . S
O142 C136 1.268 . S
O143 Sc133 2.105 . S
O143 C137 1.268 . S
O144 Sc134 2.105 . S
O144 C138 1.268 . S
O145 Sc132 2.105 . S
O145 C139 1.268 . S
O146 Sc134 2.105 . S
O146 C140 1.268 . S
O147 Sc133 2.105 . S
O147 C141 1.268 . S
O148 Sc132 2.105 . S
O148 C140 1.268 . S
O149 Sc133 2.105 . S
O149 C139 1.268 . S
O150 Sc134 2.105 . S
O150 C141 1.268 . S
O151 Sc132 2.105 . S
O151 C137 1.268 . S
O152 Sc134 2.105 . S
O152 C136 1.268 . S
O153 Sc133 2.105 . S
O153 C138 1.268 . S
Sc154 O157 2.025 . S
Sc154 O164 2.105 . S
Sc154 O167 2.105 1_554 S
Sc154 O170 2.105 1_554 S
Sc154 O173 2.105 . S
Sc155 O157 2.025 . S
Sc155 O165 2.105 . S
Sc155 O169 2.105 1_554 S
Sc155 O171 2.105 . S
Sc155 O175 2.105 . S
Sc156 O157 2.025 1_556 S
Sc156 O166 2.105 1_556 S
Sc156 O168 2.105 . S
Sc156 O172 2.105 . S
Sc156 O174 2.105 1_556 S
O157 Sc154 2.025 . S
O157 Sc155 2.025 . S
O157 Sc156 2.025 1_554 S
C158 O164 1.268 . S
C158 O174 1.268 . S
C159 O165 1.268 . S
C159 O173 1.268 . S
C160 O166 1.268 . S
C160 O175 1.268 . S
C161 O167 1.268 . S
C161 O171 1.268 1_556 S
C162 O168 1.268 . S
C162 O170 1.268 . S
C163 O169 1.268 . S
C163 O172 1.268 . S
O164 Sc154 2.105 . S
O164 C158 1.268 . S
O165 Sc155 2.105 . S
O165 C159 1.268 . S
O166 Sc156 2.105 1_554 S
O166 C160 1.268 . S
O167 Sc154 2.105 1_556 S
O167 C161 1.268 . S
O168 Sc156 2.105 . S
O168 C162 1.268 . S
O169 Sc155 2.105 1_556 S
O169 C163 1.268 . S
O170 Sc154 2.105 1_556 S
O170 C162 1.268 . S
O171 Sc155 2.105 . S
O171 C161 1.268 1_554 S
O172 Sc156 2.105 . S
O172 C163 1.268 . S
O173 Sc154 2.105 . S
O173 C159 1.268 . S
O174 Sc156 2.105 1_554 S
O174 C158 1.268 . S
O175 Sc155 2.105 . S
O175 C160 1.268 . S
Sc176 O179 2.025 . S
Sc176 O186 2.105 . S
Sc176 O189 2.105 . S
Sc176 O192 2.105 . S
Sc176 O195 2.105 . S
Sc177 O179 2.025 . S
Sc177 O187 2.105 . S
Sc177 O191 2.105 . S
Sc177 O193 2.105 . S
Sc177 O197 2.105 . S
Sc178 O179 2.025 . S
Sc178 O188 2.105 . S
Sc178 O190 2.105 . S
Sc178 O194 2.105 . S
Sc178 O196 2.105 . S
O179 Sc176 2.025 . S
O179 Sc177 2.025 . S
O179 Sc178 2.025 . S
C180 O186 1.268 . S
C180 O196 1.268 . S
C181 O187 1.268 . S
C181 O195 1.268 . S
C182 O188 1.268 . S
C182 O197 1.268 . S
C183 O189 1.268 . S
C183 O193 1.268 . S
C184 O190 1.268 . S
C184 O192 1.268 . S
C185 O191 1.268 . S
C185 O194 1.268 . S
O186 Sc176 2.105 . S
O186 C180 1.268 . S
O187 Sc177 2.105 . S
O187 C181 1.268 . S
O188 Sc178 2.105 . S
O188 C182 1.268 . S
O189 Sc176 2.105 . S
O189 C183 1.268 . S
O190 Sc178 2.105 . S
O190 C184 1.268 . S
O191 Sc177 2.105 . S
O191 C185 1.268 . S
O192 Sc176 2.105 . S
O192 C184 1.268 . S
O193 Sc177 2.105 . S
O193 C183 1.268 . S
O194 Sc178 2.105 . S
O194 C185 1.268 . S
O195 Sc176 2.105 . S
O195 C181 1.268 . S
O196 Sc178 2.105 . S
O196 C180 1.268 . S
O197 Sc177 2.105 . S
O197 C182 1.268 . S
Sc198 O201 2.025 . S
Sc198 O208 2.105 . S
Sc198 O211 2.105 . S
Sc198 O214 2.105 . S
Sc198 O217 2.105 . S
Sc199 O201 2.025 . S
Sc199 O209 2.105 . S
Sc199 O213 2.105 . S
Sc199 O215 2.105 . S
Sc199 O219 2.105 . S
Sc200 O201 2.025 . S
Sc200 O210 2.105 . S
Sc200 O212 2.105 . S
Sc200 O216 2.105 . S
Sc200 O218 2.105 . S
O201 Sc198 2.025 . S
O201 Sc199 2.025 . S
O201 Sc200 2.025 . S
C202 O208 1.268 . S
C202 O218 1.268 . S
C203 O209 1.268 . S
C203 O217 1.268 . S
C204 O210 1.268 . S
C204 O219 1.268 . S
C205 O211 1.268 . S
C205 O215 1.268 . S
C206 O212 1.268 . S
C206 O214 1.268 . S
C207 O213 1.268 . S
C207 O216 1.268 . S
O208 Sc198 2.105 . S
O208 C202 1.268 . S
O209 Sc199 2.105 . S
O209 C203 1.268 . S
O210 Sc200 2.105 . S
O210 C204 1.268 . S
O211 Sc198 2.105 . S
O211 C205 1.268 . S
O212 Sc200 2.105 . S
O212 C206 1.268 . S
O213 Sc199 2.105 . S
O213 C207 1.268 . S
O214 Sc198 2.105 . S
O214 C206 1.268 . S
O215 Sc199 2.105 . S
O215 C205 1.268 . S
O216 Sc200 2.105 . S
O216 C207 1.268 . S
O217 Sc198 2.105 . S
O217 C203 1.268 . S
O218 Sc200 2.105 . S
O218 C202 1.268 . S
O219 Sc199 2.105 . S
O219 C204 1.268 . S
Sc220 O223 2.025 . S
Sc220 O230 2.105 . S
Sc220 O233 2.105 . S
Sc220 O236 2.105 . S
Sc220 O239 2.105 . S
Sc221 O223 2.025 . S
Sc221 O231 2.105 . S
Sc221 O235 2.105 . S
Sc221 O237 2.105 . S
Sc221 O241 2.105 . S
Sc222 O223 2.025 . S
Sc222 O232 2.105 . S
Sc222 O234 2.105 . S
Sc222 O238 2.105 . S
Sc222 O240 2.105 . S
O223 Sc220 2.025 . S
O223 Sc221 2.025 . S
O223 Sc222 2.025 . S
C224 O230 1.268 . S
C224 O240 1.268 . S
C225 O231 1.268 . S
C225 O239 1.268 . S
C226 O232 1.268 . S
C226 O241 1.268 . S
C227 O233 1.268 . S
C227 O237 1.268 . S
C228 O234 1.268 . S
C228 O236 1.268 . S
C229 O235 1.268 . S
C229 O238 1.268 . S
O230 Sc220 2.105 . S
O230 C224 1.268 . S
O231 Sc221 2.105 . S
O231 C225 1.268 . S
O232 Sc222 2.105 . S
O232 C226 1.268 . S
O233 Sc220 2.105 . S
O233 C227 1.268 . S
O234 Sc222 2.105 . S
O234 C228 1.268 . S
O235 Sc221 2.105 . S
O235 C229 1.268 . S
O236 Sc220 2.105 . S
O236 C228 1.268 . S
O237 Sc221 2.105 . S
O237 C227 1.268 . S
O238 Sc222 2.105 . S
O238 C229 1.268 . S
O239 Sc220 2.105 . S
O239 C225 1.268 . S
O240 Sc222 2.105 . S
O240 C224 1.268 . S
O241 Sc221 2.105 . S
O241 C226 1.268 . S
Sc242 O245 2.025 . S
Sc242 O252 2.105 . S
Sc242 O255 2.105 . S
Sc242 O258 2.105 . S
Sc242 O261 2.105 . S
Sc243 O245 2.025 . S
Sc243 O253 2.105 . S
Sc243 O257 2.105 . S
Sc243 O259 2.105 . S
Sc243 O263 2.105 . S
Sc244 O245 2.025 . S
Sc244 O254 2.105 . S
Sc244 O256 2.105 . S
Sc244 O260 2.105 . S
Sc244 O262 2.105 . S
O245 Sc242 2.025 . S
O245 Sc243 2.025 . S
O245 Sc244 2.025 . S
C246 O252 1.268 . S
C246 O262 1.268 . S
C247 O253 1.268 . S
C247 O261 1.268 . S
C248 O254 1.268 . S
C248 O263 1.268 . S
C249 O255 1.268 . S
C249 O259 1.268 . S
C250 O256 1.268 . S
C250 O258 1.268 . S
C251 O257 1.268 . S
C251 O260 1.268 . S
O252 Sc242 2.105 . S
O252 C246 1.268 . S
O253 Sc243 2.105 . S
O253 C247 1.268 . S
O254 Sc244 2.105 . S
O254 C248 1.268 . S
O255 Sc242 2.105 . S
O255 C249 1.268 . S
O256 Sc244 2.105 . S
O256 C250 1.268 . S
O257 Sc243 2.105 . S
O257 C251 1.268 . S
O258 Sc242 2.105 . S
O258 C250 1.268 . S
O259 Sc243 2.105 . S
O259 C249 1.268 . S
O260 Sc244 2.105 . S
O260 C251 1.268 . S
O261 Sc242 2.105 . S
O261 C247 1.268 . S
O262 Sc244 2.105 . S
O262 C246 1.268 . S
O263 Sc243 2.105 . S
O263 C248 1.268 . S
C264 C265 1.363 . S
C264 C270 1.379 . S
C264 N272 1.356 . S
C265 C264 1.363 . S
C265 C271 1.363 . S
C266 C267 1.363 . S
C266 C271 1.379 . S
C266 N273 1.356 . S
C267 C266 1.363 . S
C267 C270 1.363 . S
N268 C270 1.356 . S
N268 H280 0.984 . S
N268 H281 0.985 . S
N269 C271 1.356 . S
N269 H274 0.984 . S
N269 H275 0.985 . S
C270 C264 1.379 . S
C270 C267 1.363 . S
C270 N268 1.356 . S
C271 C265 1.363 . S
C271 C266 1.379 . S
C271 N269 1.356 . S
N272 C264 1.356 . S
N272 H278 0.984 . S
N272 H279 0.984 . S
N273 C266 1.356 . S
N273 H276 0.984 . S
N273 H277 0.985 . S
H274 N269 0.984 . S
H275 N269 0.985 . S
H276 N273 0.984 . S
H277 N273 0.985 . S
H278 N272 0.984 . S
H279 N272 0.984 . S
H280 N268 0.984 . S
H281 N268 0.985 . S
C282 C283 1.363 . S
C282 C288 1.379 . S
C282 N290 1.356 1_556 S
C283 C282 1.363 . S
C283 C289 1.363 . S
C284 C285 1.363 . S
C284 C289 1.379 . S
C284 N291 1.356 . S
C285 C284 1.363 . S
C285 C288 1.363 . S
N286 C288 1.356 . S
N286 H298 0.984 . S
N286 H299 0.985 . S
N287 C289 1.356 1_554 S
N287 H292 0.984 . S
N287 H293 0.985 1_554 S
C288 C282 1.379 . S
C288 C285 1.363 . S
C288 N286 1.356 . S
C289 C283 1.363 . S
C289 C284 1.379 . S
C289 N287 1.356 1_556 S
N290 C282 1.356 1_554 S
N290 H296 0.984 1_554 S
N290 H297 0.984 . S
N291 C284 1.356 . S
N291 H294 0.984 . S
N291 H295 0.985 . S
H292 N287 0.984 . S
H293 N287 0.985 1_556 S
H294 N291 0.984 . S
H295 N291 0.985 . S
H296 N290 0.984 1_556 S
H297 N290 0.984 . S
H298 N286 0.984 . S
H299 N286 0.985 . S
C300 C301 1.363 . S
C300 C306 1.379 . S
C300 N308 1.356 . S
C301 C300 1.363 . S
C301 C307 1.363 . S
C302 C303 1.363 . S
C302 C307 1.379 . S
C302 N309 1.356 . S
C303 C302 1.363 . S
C303 C306 1.363 . S
N304 C306 1.356 . S
N304 H316 0.984 . S
N304 H317 0.985 . S
N305 C307 1.356 . S
N305 H310 0.984 1_554 S
N305 H311 0.985 . S
C306 C300 1.379 . S
C306 C303 1.363 . S
C306 N304 1.356 . S
C307 C301 1.363 . S
C307 C302 1.379 . S
C307 N305 1.356 . S
N308 C300 1.356 . S
N308 H314 0.984 . S
N308 H315 0.984 1_554 S
N309 C302 1.356 . S
N309 H312 0.984 . S
N309 H313 0.985 . S
H310 N305 0.984 1_556 S
H311 N305 0.985 . S
H312 N309 0.984 . S
H313 N309 0.985 . S
H314 N308 0.984 . S
H315 N308 0.984 1_556 S
H316 N304 0.984 . S
H317 N304 0.985 . S
C318 C319 1.363 . S
C318 C324 1.379 . S
C318 N326 1.356 . S
C319 C318 1.363 . S
C319 C325 1.363 . S
C320 C321 1.363 . S
C320 C325 1.379 . S
C320 N327 1.356 . S
C321 C320 1.363 . S
C321 C324 1.363 . S
N322 C324 1.356 . S
N322 H334 0.984 . S
N322 H335 0.985 . S
N323 C325 1.356 . S
N323 H328 0.984 . S
N323 H329 0.985 . S
C324 C318 1.379 . S
C324 C321 1.363 . S
C324 N322 1.356 . S
C325 C319 1.363 . S
C325 C320 1.379 . S
C325 N323 1.356 . S
N326 C318 1.356 . S
N326 H332 0.984 . S
N326 H333 0.984 . S
N327 C320 1.356 . S
N327 H330 0.984 . S
N327 H331 0.985 . S
H328 N323 0.984 . S
H329 N323 0.985 . S
H330 N327 0.984 . S
H331 N327 0.985 . S
H332 N326 0.984 . S
H333 N326 0.984 . S
H334 N322 0.984 . S
H335 N322 0.985 . S
C336 C337 1.363 . S
C336 C342 1.379 . S
C336 N344 1.356 . S
C337 C336 1.363 . S
C337 C343 1.363 . S
C338 C339 1.363 . S
C338 C343 1.379 . S
C338 N345 1.356 . S
C339 C338 1.363 . S
C339 C342 1.363 . S
N340 C342 1.356 . S
N340 H352 0.984 . S
N340 H353 0.985 . S
N341 C343 1.356 . S
N341 H346 0.984 . S
N341 H347 0.985 . S
C342 C336 1.379 . S
C342 C339 1.363 . S
C342 N340 1.356 . S
C343 C337 1.363 . S
C343 C338 1.379 . S
C343 N341 1.356 . S
N344 C336 1.356 . S
N344 H350 0.984 . S
N344 H351 0.984 . S
N345 C338 1.356 . S
N345 H348 0.984 . S
N345 H349 0.985 . S
H346 N341 0.984 . S
H347 N341 0.985 . S
H348 N345 0.984 . S
H349 N345 0.985 . S
H350 N344 0.984 . S
H351 N344 0.984 . S
H352 N340 0.984 . S
H353 N340 0.985 . S
C354 C355 1.363 . S
C354 C360 1.379 . S
C354 N362 1.356 . S
C355 C354 1.363 . S
C355 C361 1.363 . S
C356 C357 1.363 . S
C356 C361 1.379 . S
C356 N363 1.356 . S
C357 C356 1.363 . S
C357 C360 1.363 . S
N358 C360 1.356 . S
N358 H370 0.984 . S
N358 H371 0.985 . S
N359 C361 1.356 . S
N359 H364 0.984 . S
N359 H365 0.985 . S
C360 C354 1.379 . S
C360 C357 1.363 . S
C360 N358 1.356 . S
C361 C355 1.363 . S
C361 C356 1.379 . S
C361 N359 1.356 . S
N362 C354 1.356 . S
N362 H368 0.984 . S
N362 H369 0.984 . S
N363 C356 1.356 . S
N363 H366 0.984 . S
N363 H367 0.985 . S
H364 N359 0.984 . S
H365 N359 0.985 . S
H366 N363 0.984 . S
H367 N363 0.985 . S
H368 N362 0.984 . S
H369 N362 0.984 . S
H370 N358 0.984 . S
H371 N358 0.985 . S
C372 C373 1.363 . S
C372 C378 1.379 . S
C372 N380 1.356 . S
C373 C372 1.363 . S
C373 C379 1.363 . S
C374 C375 1.363 . S
C374 C379 1.379 . S
C374 N381 1.356 . S
C375 C374 1.363 . S
C375 C378 1.363 . S
N376 C378 1.356 . S
N376 H388 0.984 . S
N376 H389 0.985 . S
N377 C379 1.356 1_554 S
N377 H382 0.984 1_554 S
N377 H383 0.985 . S
C378 C372 1.379 . S
C378 C375 1.363 . S
C378 N376 1.356 . S
C379 C373 1.363 . S
C379 C374 1.379 . S
C379 N377 1.356 1_556 S
N380 C372 1.356 . S
N380 H386 0.984 . S
N380 H387 0.984 . S
N381 C374 1.356 . S
N381 H384 0.984 . S
N381 H385 0.985 1_556 S
H382 N377 0.984 1_556 S
H383 N377 0.985 . S
H384 N381 0.984 . S
H385 N381 0.985 1_554 S
H386 N380 0.984 . S
H387 N380 0.984 . S
H388 N376 0.984 . S
H389 N376 0.985 . S
C390 C391 1.363 1_455 S
C390 C396 1.379 . S
C390 N398 1.356 . S
C391 C390 1.363 1_655 S
C391 C397 1.363 1_655 S
C392 C393 1.363 . S
C392 C397 1.379 . S
C392 N399 1.356 . S
C393 C392 1.363 . S
C393 C396 1.363 . S
N394 C396 1.356 . S
N394 H406 0.984 . S
N394 H407 0.985 . S
N395 C397 1.356 1_655 S
N395 H400 0.984 . S
N395 H401 0.985 . S
C396 C390 1.379 . S
C396 C393 1.363 . S
C396 N394 1.356 . S
C397 C391 1.363 1_455 S
C397 C392 1.379 . S
C397 N395 1.356 1_455 S
N398 C390 1.356 . S
N398 H404 0.984 . S
N398 H405 0.984 1_455 S
N399 C392 1.356 . S
N399 H402 0.984 . S
N399 H403 0.985 . S
H400 N395 0.984 . S
H401 N395 0.985 . S
H402 N399 0.984 . S
H403 N399 0.985 . S
H404 N398 0.984 . S
H405 N398 0.984 1_655 S
H406 N394 0.984 . S
H407 N394 0.985 . S
C408 C409 1.363 . S
C408 C414 1.379 . S
C408 N416 1.356 . S
C409 C408 1.363 . S
C409 C415 1.363 . S
C410 C411 1.363 1_545 S
C410 C415 1.379 . S
C410 N417 1.356 . S
C411 C410 1.363 1_565 S
C411 C414 1.363 1_565 S
N412 C414 1.356 1_565 S
N412 H424 0.984 . S
N412 H425 0.985 . S
N413 C415 1.356 . S
N413 H418 0.984 . S
N413 H419 0.985 . S
C414 C408 1.379 . S
C414 C411 1.363 1_545 S
C414 N412 1.356 1_545 S
C415 C409 1.363 . S
C415 C410 1.379 . S
C415 N413 1.356 . S
N416 C408 1.356 . S
N416 H422 0.984 . S
N416 H423 0.984 . S
N417 C410 1.356 . S
N417 H420 0.984 1_545 S
N417 H421 0.985 . S
H418 N413 0.984 . S
H419 N413 0.985 . S
H420 N417 0.984 1_565 S
H421 N417 0.985 . S
H422 N416 0.984 . S
H423 N416 0.984 . S
H424 N412 0.984 . S
H425 N412 0.985 . S
C426 C427 1.363 . S
C426 C432 1.379 . S
C426 N434 1.356 . S
C427 C426 1.363 . S
C427 C433 1.363 . S
C428 C429 1.363 . S
C428 C433 1.379 . S
C428 N435 1.356 . S
C429 C428 1.363 . S
C429 C432 1.363 . S
N430 C432 1.356 . S
N430 H442 0.984 . S
N430 H443 0.985 . S
N431 C433 1.356 . S
N431 H436 0.984 . S
N431 H437 0.985 . S
C432 C426 1.379 . S
C432 C429 1.363 . S
C432 N430 1.356 . S
C433 C427 1.363 . S
C433 C428 1.379 . S
C433 N431 1.356 . S
N434 C426 1.356 . S
N434 H440 0.984 . S
N434 H441 0.984 . S
N435 C428 1.356 . S
N435 H438 0.984 . S
N435 H439 0.985 . S
H436 N431 0.984 . S
H437 N431 0.985 . S
H438 N435 0.984 . S
H439 N435 0.985 . S
H440 N434 0.984 . S
H441 N434 0.984 . S
H442 N430 0.984 . S
H443 N430 0.985 . S
C444 C445 1.363 1_655 S
C444 C450 1.379 . S
C444 N452 1.356 1_655 S
C445 C444 1.363 1_455 S
C445 C451 1.363 1_455 S
C446 C447 1.363 . S
C446 C451 1.379 . S
C446 N453 1.356 . S
C447 C446 1.363 . S
C447 C450 1.363 . S
N448 C450 1.356 . S
N448 H460 0.984 . S
N448 H461 0.985 . S
N449 C451 1.356 . S
N449 H454 0.984 1_655 S
N449 H455 0.985 . S
C450 C444 1.379 . S
C450 C447 1.363 . S
C450 N448 1.356 . S
C451 C445 1.363 1_655 S
C451 C446 1.379 . S
C451 N449 1.356 . S
N452 C444 1.356 1_455 S
N452 H458 0.984 . S
N452 H459 0.984 . S
N453 C446 1.356 . S
N453 H456 0.984 . S
N453 H457 0.985 . S
H454 N449 0.984 1_455 S
H455 N449 0.985 . S
H456 N453 0.984 . S
H457 N453 0.985 . S
H458 N452 0.984 . S
H459 N452 0.984 . S
H460 N448 0.984 . S
H461 N448 0.985 . S
C462 C463 1.368 1_565 S
C462 C468 1.386 . S
C462 N470 1.344 1_565 S
C463 C462 1.368 1_545 S
C463 C469 1.363 1_545 S
C464 C465 1.363 . S
C464 C469 1.379 . S
C464 N471 1.356 . S
C465 C464 1.363 . S
C465 C468 1.363 . S
N466 C468 1.356 . S
N466 H478 0.984 . S
N466 H479 0.985 . S
N467 C469 1.356 . S
N467 H472 0.984 1_565 S
N467 H473 0.985 . S
C468 C462 1.386 . S
C468 C465 1.363 . S
C468 N466 1.356 . S
C469 C463 1.363 1_565 S
C469 C464 1.379 . S
C469 N467 1.356 . S
N470 C462 1.344 1_545 S
N470 H476 0.984 . S
N470 H477 0.984 . S
N471 C464 1.356 . S
N471 H474 0.984 . S
N471 H475 0.985 . S
H472 N467 0.984 1_545 S
H473 N467 0.985 . S
H474 N471 0.984 . S
H475 N471 0.985 . S
H476 N470 0.984 . S
H477 N470 0.984 . S
H478 N466 0.984 . S
H479 N466 0.985 . S
C480 C481 1.363 . S
C480 C486 1.379 . S
C480 N488 1.356 . S
C481 C480 1.363 . S
C481 C487 1.363 . S
C482 C483 1.363 . S
C482 C487 1.379 . S
C482 N489 1.356 . S
C483 C482 1.363 . S
C483 C486 1.363 . S
N484 C486 1.356 1_554 S
N484 H496 0.984 . S
N484 H497 0.985 . S
N485 C487 1.356 . S
N485 H490 0.984 . S
N485 H491 0.985 . S
C486 C480 1.379 . S
C486 C483 1.363 . S
C486 N484 1.356 1_556 S
C487 C481 1.363 . S
C487 C482 1.379 . S
C487 N485 1.356 . S
N488 C480 1.356 . S
N488 H494 0.984 1_556 S
N488 H495 0.984 . S
N489 C482 1.356 . S
N489 H492 0.984 . S
N489 H493 0.985 . S
H490 N485 0.984 . S
H491 N485 0.985 . S
H492 N489 0.984 . S
H493 N489 0.985 . S
H494 N488 0.984 1_554 S
H495 N488 0.984 . S
H496 N484 0.984 . S
H497 N484 0.985 . S
C498 C499 1.363 1_455 S
C498 C504 1.379 . S
C498 N506 1.356 1_455 S
C499 C498 1.363 1_655 S
C499 C505 1.363 1_655 S
C500 C501 1.363 . S
C500 C505 1.379 . S
C500 N507 1.356 . S
C501 C500 1.363 . S
C501 C504 1.363 . S
N502 C504 1.356 . S
N502 H514 0.984 . S
N502 H515 0.985 . S
N503 C505 1.356 . S
N503 H508 0.984 1_455 S
N503 H509 0.985 1_554 S
C504 C498 1.379 . S
C504 C501 1.363 . S
C504 N502 1.356 . S
C505 C499 1.363 1_455 S
C505 C500 1.379 . S
C505 N503 1.356 . S
N506 C498 1.356 1_655 S
N506 H512 0.984 . S
N506 H513 0.984 . S
N507 C500 1.356 . S
N507 H510 0.984 . S
N507 H511 0.985 . S
H508 N503 0.984 1_655 S
H509 N503 0.985 1_556 S
H510 N507 0.984 . S
H511 N507 0.985 . S
H512 N506 0.984 . S
H513 N506 0.984 . S
H514 N502 0.984 . S
H515 N502 0.985 . S
C516 C517 1.363 1_545 S
C516 C522 1.379 . S
C516 N524 1.356 1_545 S
C517 C516 1.363 1_565 S
C517 C523 1.363 1_565 S
C518 C519 1.363 . S
C518 C523 1.379 . S
C518 N525 1.356 . S
C519 C518 1.363 . S
C519 C522 1.363 . S
N520 C522 1.356 . S
N520 H532 0.984 . S
N520 H533 0.985 . S
N521 C523 1.356 1_565 S
N521 H526 0.984 . S
N521 H527 0.985 1_565 S
C522 C516 1.379 . S
C522 C519 1.363 . S
C522 N520 1.356 . S
C523 C517 1.363 1_545 S
C523 C518 1.379 . S
C523 N521 1.356 1_545 S
N524 C516 1.356 1_565 S
N524 H530 0.984 . S
N524 H531 0.984 . S
N525 C518 1.356 . S
N525 H528 0.984 . S
N525 H529 0.985 . S
H526 N521 0.984 . S
H527 N521 0.985 1_545 S
H528 N525 0.984 . S
H529 N525 0.985 . S
H530 N524 0.984 . S
H531 N524 0.984 . S
H532 N520 0.984 . S
H533 N520 0.985 . S
C534 C535 1.363 . S
C534 C540 1.379 . S
C534 N542 1.356 . S
C535 C534 1.363 . S
C535 C541 1.363 . S
C536 C537 1.363 . S
C536 C541 1.379 . S
C536 N543 1.356 . S
C537 C536 1.363 . S
C537 C540 1.363 . S
N538 C540 1.356 . S
N538 H550 0.984 . S
N538 H551 0.985 . S
N539 C541 1.356 . S
N539 H544 0.984 . S
N539 H545 0.985 . S
C540 C534 1.379 . S
C540 C537 1.363 . S
C540 N538 1.356 . S
C541 C535 1.363 . S
C541 C536 1.379 . S
C541 N539 1.356 . S
N542 C534 1.356 . S
N542 H548 0.984 . S
N542 H549 0.984 . S
N543 C536 1.356 . S
N543 H546 0.984 . S
N543 H547 0.985 . S
H544 N539 0.984 . S
H545 N539 0.985 . S
H546 N543 0.984 . S
H547 N543 0.985 . S
H548 N542 0.984 . S
H549 N542 0.984 . S
H550 N538 0.984 . S
H551 N538 0.985 . S
C552 C553 1.363 . S
C552 C558 1.379 . S
C552 N560 1.356 . S
C553 C552 1.363 . S
C553 C559 1.363 . S
C554 C555 1.363 1_655 S
C554 C559 1.379 . S
C554 N561 1.356 1_655 S
C555 C554 1.363 1_455 S
C555 C558 1.363 1_455 S
N556 C558 1.356 1_455 S
N556 H568 0.984 1_455 S
N556 H569 0.985 . S
N557 C559 1.356 . S
N557 H562 0.984 . S
N557 H563 0.985 . S
C558 C552 1.379 . S
C558 C555 1.363 1_655 S
C558 N556 1.356 1_655 S
C559 C553 1.363 . S
C559 C554 1.379 . S
C559 N557 1.356 . S
N560 C552 1.356 . S
N560 H566 0.984 . S
N560 H567 0.984 . S
N561 C554 1.356 1_455 S
N561 H564 0.984 . S
N561 H565 0.985 . S
H562 N557 0.984 . S
H563 N557 0.985 . S
H564 N561 0.984 . S
H565 N561 0.985 . S
H566 N560 0.984 . S
H567 N560 0.984 . S
H568 N556 0.984 1_655 S
H569 N556 0.985 . S
C570 C571 1.363 . S
C570 C576 1.379 . S
C570 N578 1.356 . S
C571 C570 1.363 . S
C571 C577 1.363 . S
C572 C573 1.363 1_565 S
C572 C577 1.379 . S
C572 N579 1.356 1_565 S
C573 C572 1.363 1_545 S
C573 C576 1.363 1_545 S
N574 C576 1.356 1_545 S
N574 H586 0.984 1_545 S
N574 H587 0.985 . S
N575 C577 1.356 . S
N575 H580 0.984 . S
N575 H581 0.985 . S
C576 C570 1.379 . S
C576 C573 1.363 1_565 S
C576 N574 1.356 1_565 S
C577 C571 1.363 . S
C577 C572 1.379 . S
C577 N575 1.356 . S
N578 C570 1.356 . S
N578 H584 0.984 . S
N578 H585 0.984 . S
N579 C572 1.356 1_545 S
N579 H582 0.984 . S
N579 H583 0.985 . S
H580 N575 0.984 . S
H581 N575 0.985 . S
H582 N579 0.984 . S
H583 N579 0.985 . S
H584 N578 0.984 . S
H585 N578 0.984 . S
H586 N574 0.984 1_565 S
H587 N574 0.985 . S
C588 C589 1.363 . S
C588 C594 1.379 . S
C588 N596 1.356 . S
C589 C588 1.363 . S
C589 C595 1.363 . S
C590 C591 1.363 . S
C590 C595 1.379 . S
C590 N597 1.356 . S
C591 C590 1.363 . S
C591 C594 1.363 . S
N592 C594 1.356 . S
N592 H604 0.984 . S
N592 H605 0.985 . S
N593 C595 1.356 1_554 S
N593 H598 0.984 . S
N593 H599 0.985 . S
C594 C588 1.379 . S
C594 C591 1.363 . S
C594 N592 1.356 . S
C595 C589 1.363 . S
C595 C590 1.379 . S
C595 N593 1.356 1_556 S
N596 C588 1.356 . S
N596 H602 0.984 . S
N596 H603 0.984 . S
N597 C590 1.356 . S
N597 H600 0.984 . S
N597 H601 0.985 1_556 S
H598 N593 0.984 . S
H599 N593 0.985 . S
H600 N597 0.984 . S
H601 N597 0.985 1_554 S
H602 N596 0.984 . S
H603 N596 0.984 . S
H604 N592 0.984 . S
H605 N592 0.985 . S
C606 C607 1.363 . S
C606 C612 1.379 . S
C606 N614 1.356 . S
C607 C606 1.363 . S
C607 C613 1.363 . S
C608 C609 1.363 . S
C608 C613 1.379 . S
C608 N615 1.356 . S
C609 C608 1.363 . S
C609 C612 1.363 . S
N610 C612 1.356 . S
N610 H622 0.984 . S
N610 H623 0.985 . S
N611 C613 1.356 . S
N611 H616 0.984 . S
N611 H617 0.985 . S
C612 C606 1.379 . S
C612 C609 1.363 . S
C612 N610 1.356 . S
C613 C607 1.363 . S
C613 C608 1.379 . S
C613 N611 1.356 . S
N614 C606 1.356 . S
N614 H620 0.984 1_554 S
N614 H621 0.984 . S
N615 C608 1.356 . S
N615 H618 0.984 . S
N615 H619 0.985 . S
H616 N611 0.984 . S
H617 N611 0.985 . S
H618 N615 0.984 . S
H619 N615 0.985 . S
H620 N614 0.984 1_556 S
H621 N614 0.984 . S
H622 N610 0.984 . S
H623 N610 0.985 . S
C624 C625 1.363 . S
C624 C630 1.379 . S
C624 N632 1.356 . S
C625 C624 1.363 . S
C625 C631 1.363 . S
C626 C627 1.363 . S
C626 C631 1.379 . S
C626 N633 1.356 . S
C627 C626 1.363 . S
C627 C630 1.363 . S
N628 C630 1.356 . S
N628 H640 0.984 . S
N628 H641 0.985 . S
N629 C631 1.356 . S
N629 H634 0.984 . S
N629 H635 0.985 . S
C630 C624 1.379 . S
C630 C627 1.363 . S
C630 N628 1.356 . S
C631 C625 1.363 . S
C631 C626 1.379 . S
C631 N629 1.356 . S
N632 C624 1.356 . S
N632 H638 0.984 . S
N632 H639 0.984 . S
N633 C626 1.356 . S
N633 H636 0.984 . S
N633 H637 0.985 . S
H634 N629 0.984 . S
H635 N629 0.985 . S
H636 N633 0.984 . S
H637 N633 0.985 . S
H638 N632 0.984 . S
H639 N632 0.984 . S
H640 N628 0.984 . S
H641 N628 0.985 . S
C642 C643 1.363 . S
C642 C648 1.379 . S
C642 N650 1.356 . S
C643 C642 1.363 . S
C643 C649 1.363 . S
C644 C645 1.363 . S
C644 C649 1.379 . S
C644 N651 1.356 . S
C645 C644 1.363 . S
C645 C648 1.363 . S
N646 C648 1.356 . S
N646 H658 0.984 . S
N646 H659 0.985 . S
N647 C649 1.356 . S
N647 H652 0.984 . S
N647 H653 0.985 . S
C648 C642 1.379 . S
C648 C645 1.363 . S
C648 N646 1.356 . S
C649 C643 1.363 . S
C649 C644 1.379 . S
C649 N647 1.356 . S
N650 C642 1.356 . S
N650 H656 0.984 . S
N650 H657 0.984 . S
N651 C644 1.356 . S
N651 H654 0.984 . S
N651 H655 0.985 . S
H652 N647 0.984 . S
H653 N647 0.985 . S
H654 N651 0.984 . S
H655 N651 0.985 . S
H656 N650 0.984 . S
H657 N650 0.984 . S
H658 N646 0.984 . S
H659 N646 0.985 . S
C660 C661 1.363 . S
C660 C666 1.379 . S
C660 N668 1.356 . S
C661 C660 1.363 . S
C661 C667 1.363 . S
C662 C663 1.363 . S
C662 C667 1.379 . S
C662 N669 1.356 . S
C663 C662 1.363 . S
C663 C666 1.363 . S
N664 C666 1.356 . S
N664 H676 0.984 . S
N664 H677 0.985 . S
N665 C667 1.356 . S
N665 H670 0.984 . S
N665 H671 0.985 . S
C666 C660 1.379 . S
C666 C663 1.363 . S
C666 N664 1.356 . S
C667 C661 1.363 . S
C667 C662 1.379 . S
C667 N665 1.356 . S
N668 C660 1.356 . S
N668 H674 0.984 . S
N668 H675 0.984 . S
N669 C662 1.356 . S
N669 H672 0.984 . S
N669 H673 0.985 . S
H670 N665 0.984 . S
H671 N665 0.985 . S
H672 N669 0.984 . S
H673 N669 0.985 . S
H674 N668 0.984 . S
H675 N668 0.984 . S
H676 N664 0.984 . S
H677 N664 0.985 . S
C678 C679 1.363 . S
C678 C684 1.379 . S
C678 N686 1.356 . S
C679 C678 1.363 . S
C679 C685 1.363 . S
C680 C681 1.363 . S
C680 C685 1.379 . S
C680 N687 1.356 . S
C681 C680 1.363 . S
C681 C684 1.363 . S
N682 C684 1.356 . S
N682 H694 0.984 . S
N682 H695 0.985 . S
N683 C685 1.356 . S
N683 H688 0.984 . S
N683 H689 0.985 . S
C684 C678 1.379 . S
C684 C681 1.363 . S
C684 N682 1.356 . S
C685 C679 1.363 . S
C685 C680 1.379 . S
C685 N683 1.356 . S
N686 C678 1.356 . S
N686 H692 0.984 . S
N686 H693 0.984 . S
N687 C680 1.356 . S
N687 H690 0.984 . S
N687 H691 0.985 . S
H688 N683 0.984 . S
H689 N683 0.985 . S
H690 N687 0.984 . S
H691 N687 0.985 . S
H692 N686 0.984 . S
H693 N686 0.984 . S
H694 N682 0.984 . S
H695 N682 0.985 . S
C696 C697 1.363 . S
C696 C702 1.379 . S
C696 N704 1.356 . S
C697 C696 1.363 . S
C697 C703 1.363 . S
C698 C699 1.363 . S
C698 C703 1.379 . S
C698 N705 1.356 . S
C699 C698 1.363 . S
C699 C702 1.363 . S
N700 C702 1.356 . S
N700 H712 0.984 . S
N700 H713 0.985 . S
N701 C703 1.356 . S
N701 H706 0.984 . S
N701 H707 0.985 . S
C702 C696 1.379 . S
C702 C699 1.363 . S
C702 N700 1.356 . S
C703 C697 1.363 . S
C703 C698 1.379 . S
C703 N701 1.356 . S
N704 C696 1.356 . S
N704 H710 0.984 . S
N704 H711 0.984 . S
N705 C698 1.356 . S
N705 H708 0.984 . S
N705 H709 0.985 . S
H706 N701 0.984 . S
H707 N701 0.985 . S
H708 N705 0.984 . S
H709 N705 0.985 . S
H710 N704 0.984 . S
H711 N704 0.984 . S
H712 N700 0.984 . S
H713 N700 0.985 . S
C714 C715 1.363 . S
C714 C720 1.379 1_455 S
C714 N722 1.356 . S
C715 C714 1.363 . S
C715 C721 1.363 . S
C716 C717 1.363 . S
C716 C721 1.379 1_655 S
C716 N723 1.356 . S
C717 C716 1.363 . S
C717 C720 1.363 . S
N718 C720 1.356 . S
N718 H730 0.984 . S
N718 H731 0.985 . S
N719 C721 1.356 . S
N719 H724 0.984 . S
N719 H725 0.985 . S
C720 C714 1.379 1_655 S
C720 C717 1.363 . S
C720 N718 1.356 . S
C721 C715 1.363 . S
C721 C716 1.379 1_455 S
C721 N719 1.356 . S
N722 C714 1.356 . S
N722 H728 0.984 . S
N722 H729 0.984 . S
N723 C716 1.356 . S
N723 H726 0.984 . S
N723 H727 0.985 . S
H724 N719 0.984 . S
H725 N719 0.985 . S
H726 N723 0.984 . S
H727 N723 0.985 . S
H728 N722 0.984 . S
H729 N722 0.984 . S
H730 N718 0.984 . S
H731 N718 0.985 . S
C732 C733 1.363 1_565 S
C732 C738 1.379 . S
C732 N740 1.356 1_565 S
C733 C732 1.363 1_545 S
C733 C739 1.363 . S
C734 C735 1.363 1_545 S
C734 C739 1.379 . S
C734 N741 1.356 1_545 S
C735 C734 1.363 1_565 S
C735 C738 1.363 . S
N736 C738 1.356 . S
N736 H748 0.984 . S
N736 H749 0.985 . S
N737 C739 1.356 . S
N737 H742 0.984 . S
N737 H743 0.985 . S
C738 C732 1.379 . S
C738 C735 1.363 . S
C738 N736 1.356 . S
C739 C733 1.363 . S
C739 C734 1.379 . S
C739 N737 1.356 . S
N740 C732 1.356 1_545 S
N740 H746 0.984 1_545 S
N740 H747 0.984 . S
N741 C734 1.356 1_565 S
N741 H744 0.984 . S
N741 H745 0.985 1_565 S
H742 N737 0.984 . S
H743 N737 0.985 . S
H744 N741 0.984 . S
H745 N741 0.985 1_545 S
H746 N740 0.984 1_565 S
H747 N740 0.984 . S
H748 N736 0.984 . S
H749 N736 0.985 . S
C750 C751 1.363 . S
C750 C756 1.379 . S
C750 N758 1.356 . S
C751 C750 1.363 . S
C751 C757 1.363 . S
C752 C753 1.363 . S
C752 C757 1.379 . S
C752 N759 1.356 . S
C753 C752 1.363 . S
C753 C756 1.363 . S
N754 C756 1.356 . S
N754 H766 0.984 . S
N754 H767 0.985 . S
N755 C757 1.356 . S
N755 H760 0.984 . S
N755 H761 0.985 . S
C756 C750 1.379 . S
C756 C753 1.363 . S
C756 N754 1.356 . S
C757 C751 1.363 . S
C757 C752 1.379 . S
C757 N755 1.356 . S
N758 C750 1.356 . S
N758 H764 0.984 . S
N758 H765 0.984 . S
N759 C752 1.356 . S
N759 H762 0.984 . S
N759 H763 0.985 . S
H760 N755 0.984 . S
H761 N755 0.985 . S
H762 N759 0.984 . S
H763 N759 0.985 . S
H764 N758 0.984 . S
H765 N758 0.984 . S
H766 N754 0.984 . S
H767 N754 0.985 . S
C768 C769 1.363 . S
C768 C774 1.379 1_455 S
C768 N776 1.356 . S
C769 C768 1.363 . S
C769 C775 1.363 . S
C770 C771 1.363 . S
C770 C775 1.379 1_655 S
C770 N777 1.356 . S
C771 C770 1.363 . S
C771 C774 1.363 . S
N772 C774 1.356 . S
N772 H784 0.984 . S
N772 H785 0.985 . S
N773 C775 1.356 . S
N773 H778 0.984 . S
N773 H779 0.985 . S
C774 C768 1.379 1_655 S
C774 C771 1.363 . S
C774 N772 1.356 . S
C775 C769 1.363 . S
C775 C770 1.379 1_455 S
C775 N773 1.356 . S
N776 C768 1.356 . S
N776 H782 0.984 . S
N776 H783 0.984 . S
N777 C770 1.356 . S
N777 H780 0.984 . S
N777 H781 0.985 . S
H778 N773 0.984 . S
H779 N773 0.985 . S
H780 N777 0.984 . S
H781 N777 0.985 . S
H782 N776 0.984 . S
H783 N776 0.984 . S
H784 N772 0.984 . S
H785 N772 0.985 . S
C786 C787 1.363 . S
C786 C792 1.379 1_546 S
C786 N794 1.356 . S
C787 C786 1.363 . S
C787 C793 1.363 1_556 S
C788 C789 1.363 . S
C788 C793 1.379 1_565 S
C788 N795 1.356 . S
C789 C788 1.363 . S
C789 C792 1.363 . S
N790 C792 1.356 . S
N790 H802 0.984 1_554 S
N790 H803 0.985 . S
N791 C793 1.356 . S
N791 H796 0.984 1_554 S
N791 H797 0.985 . S
C792 C786 1.379 1_564 S
C792 C789 1.363 . S
C792 N790 1.356 . S
C793 C787 1.363 1_554 S
C793 C788 1.379 1_545 S
C793 N791 1.356 . S
N794 C786 1.356 . S
N794 H800 0.983 1_545 S
N794 H801 0.984 . S
N795 C788 1.356 . S
N795 H798 0.984 . S
N795 H799 0.983 1_565 S
H796 N791 0.984 1_556 S
H797 N791 0.985 . S
H798 N795 0.984 . S
H799 N795 0.983 1_545 S
H800 N794 0.983 1_565 S
H801 N794 0.984 . S
H802 N790 0.984 1_556 S
H803 N790 0.985 . S
C804 C805 1.363 . S
C804 C810 1.379 . S
C804 N812 1.356 . S
C805 C804 1.363 . S
C805 C811 1.363 . S
C806 C807 1.363 . S
C806 C811 1.379 . S
C806 N813 1.356 . S
C807 C806 1.363 . S
C807 C810 1.363 . S
N808 C810 1.356 . S
N808 H820 0.984 . S
N808 H821 0.985 . S
N809 C811 1.356 . S
N809 H814 0.984 . S
N809 H815 0.985 . S
C810 C804 1.379 . S
C810 C807 1.363 . S
C810 N808 1.356 . S
C811 C805 1.363 . S
C811 C806 1.379 . S
C811 N809 1.356 . S
N812 C804 1.356 . S
N812 H818 0.984 . S
N812 H819 0.984 . S
N813 C806 1.356 . S
N813 H816 0.984 . S
N813 H817 0.985 . S
H814 N809 0.984 . S
H815 N809 0.985 . S
H816 N813 0.984 . S
H817 N813 0.985 . S
H818 N812 0.984 . S
H819 N812 0.984 . S
H820 N808 0.984 . S
H821 N808 0.985 . S
C822 C823 1.363 . S
C822 C828 1.379 . S
C822 N830 1.356 . S
C823 C822 1.363 . S
C823 C829 1.363 . S
C824 C825 1.363 . S
C824 C829 1.379 . S
C824 N831 1.356 . S
C825 C824 1.363 . S
C825 C828 1.363 . S
N826 C828 1.356 . S
N826 H838 0.984 . S
N826 H839 0.985 . S
N827 C829 1.356 . S
N827 H832 0.984 . S
N827 H833 0.985 . S
C828 C822 1.379 . S
C828 C825 1.363 . S
C828 N826 1.356 . S
C829 C823 1.363 . S
C829 C824 1.379 . S
C829 N827 1.356 . S
N830 C822 1.356 . S
N830 H836 0.984 . S
N830 H837 0.984 . S
N831 C824 1.356 . S
N831 H834 0.984 . S
N831 H835 0.985 . S
H832 N827 0.984 . S
H833 N827 0.985 . S
H834 N831 0.984 . S
H835 N831 0.985 . S
H836 N830 0.984 . S
H837 N830 0.984 . S
H838 N826 0.984 . S
H839 N826 0.985 . S
C840 C841 1.363 . S
C840 C846 1.379 . S
C840 N848 1.356 . S
C841 C840 1.363 . S
C841 C847 1.363 . S
C842 C843 1.363 . S
C842 C847 1.379 . S
C842 N849 1.356 . S
C843 C842 1.363 . S
C843 C846 1.363 . S
N844 C846 1.356 . S
N844 H856 0.984 . S
N844 H857 0.985 . S
N845 C847 1.356 . S
N845 H850 0.984 . S
N845 H851 0.985 . S
C846 C840 1.379 . S
C846 C843 1.363 . S
C846 N844 1.356 . S
C847 C841 1.363 . S
C847 C842 1.379 . S
C847 N845 1.356 . S
N848 C840 1.356 . S
N848 H854 0.984 . S
N848 H855 0.984 . S
N849 C842 1.356 . S
N849 H852 0.984 . S
N849 H853 0.985 . S
H850 N845 0.984 . S
H851 N845 0.985 . S
H852 N849 0.984 . S
H853 N849 0.985 . S
H854 N848 0.984 . S
H855 N848 0.984 . S
H856 N844 0.984 . S
H857 N844 0.985 . S
C858 C859 1.363 . S
C858 C864 1.379 . S
C858 N866 1.356 . S
C859 C858 1.363 . S
C859 C865 1.363 . S
C860 C861 1.363 . S
C860 C865 1.379 . S
C860 N867 1.356 . S
C861 C860 1.363 . S
C861 C864 1.363 . S
N862 C864 1.356 . S
N862 H874 0.984 . S
N862 H875 0.985 . S
N863 C865 1.356 . S
N863 H868 0.984 . S
N863 H869 0.985 . S
C864 C858 1.379 . S
C864 C861 1.363 . S
C864 N862 1.356 . S
C865 C859 1.363 . S
C865 C860 1.379 . S
C865 N863 1.356 . S
N866 C858 1.356 . S
N866 H872 0.984 . S
N866 H873 0.984 . S
N867 C860 1.356 . S
N867 H870 0.984 . S
N867 H871 0.985 . S
H868 N863 0.984 . S
H869 N863 0.985 . S
H870 N867 0.984 . S
H871 N867 0.985 . S
H872 N866 0.984 . S
H873 N866 0.984 . S
H874 N862 0.984 . S
H875 N862 0.985 . S
C876 C877 1.363 . S
C876 C882 1.379 . S
C876 N884 1.356 . S
C877 C876 1.363 . S
C877 C883 1.363 . S
C878 C879 1.363 . S
C878 C883 1.379 . S
C878 N885 1.356 . S
C879 C878 1.363 . S
C879 C882 1.363 . S
N880 C882 1.356 1_554 S
N880 H892 0.984 . S
N880 H893 0.985 . S
N881 C883 1.356 . S
N881 H886 0.984 . S
N881 H887 0.985 . S
C882 C876 1.379 . S
C882 C879 1.363 . S
C882 N880 1.356 1_556 S
C883 C877 1.363 . S
C883 C878 1.379 . S
C883 N881 1.356 . S
N884 C876 1.356 . S
N884 H890 0.984 . S
N884 H891 0.984 . S
N885 C878 1.356 . S
N885 H888 0.984 1_556 S
N885 H889 0.985 . S
H886 N881 0.984 . S
H887 N881 0.985 . S
H888 N885 0.984 1_554 S
H889 N885 0.985 . S
H890 N884 0.984 . S
H891 N884 0.984 . S
H892 N880 0.984 . S
H893 N880 0.985 . S
C894 C895 1.363 . S
C894 C900 1.379 . S
C894 N902 1.356 . S
C895 C894 1.363 . S
C895 C901 1.363 . S
C896 C897 1.363 . S
C896 C901 1.379 . S
C896 N903 1.356 . S
C897 C896 1.363 . S
C897 C900 1.363 . S
N898 C900 1.356 . S
N898 H910 0.984 . S
N898 H911 0.985 . S
N899 C901 1.356 . S
N899 H904 0.984 1_554 S
N899 H905 0.985 . S
C900 C894 1.379 . S
C900 C897 1.363 . S
C900 N898 1.356 . S
C901 C895 1.363 . S
C901 C896 1.379 . S
C901 N899 1.356 . S
N902 C894 1.356 . S
N902 H908 0.984 . S
N902 H909 0.970 1_554 S
N903 C896 1.356 . S
N903 H906 0.984 . S
N903 H907 0.985 . S
H904 N899 0.984 1_556 S
H905 N899 0.985 . S
H906 N903 0.984 . S
H907 N903 0.985 . S
H908 N902 0.984 . S
H909 N902 0.970 1_556 S
H910 N898 0.984 . S
H911 N898 0.985 . S
C265 C229 1.324 . S
C267 C5 1.324 . S
C283 C31 1.325 1_556 S
C285 C247 1.325 . S
C301 C141 1.325 1_554 S
C303 C49 1.325 . S
C319 C75 1.325 . S
C321 C159 1.325 . S
C337 C93 1.325 . S
C339 C185 1.325 . S
C355 C203 1.324 . S
C357 C119 1.324 . S
C373 C6 1.323 . S
C375 C116 1.436 . S
C391 C29 1.323 . S
C393 C7 1.436 . S
C409 C28 1.436 . S
C411 C50 1.323 . S
C427 C73 1.323 . S
C429 C51 1.436 . S
C445 C94 1.323 . S
C447 C72 1.436 . S
C463 C117 1.323 . S
C465 C95 1.436 . S
C481 C139 1.323 . S
C483 C161 1.436 . S
C499 C160 1.323 . S
C501 C182 1.436 . S
C517 C183 1.323 . S
C519 C205 1.436 . S
C535 C226 1.436 . S
C537 C204 1.323 . S
C553 C249 1.436 . S
C555 C227 1.323 . S
C571 C138 1.436 . S
C573 C248 1.323 . S
C589 C4 1.348 . S
C591 C140 1.348 . S
C607 C158 1.348 . S
C609 C30 1.348 . S
C625 C48 1.348 . S
C627 C184 1.348 . S
C643 C74 1.349 . S
C645 C202 1.349 . S
C661 C228 1.349 . S
C663 C92 1.349 . S
C679 C118 1.349 . S
C681 C246 1.349 . S
C697 C9 1.312 . S
C699 C207 1.312 . S
C715 C225 1.312 . S
C717 C27 1.312 . S
C733 C251 1.312 . S
C735 C53 1.312 . S
C751 C71 1.312 . S
C753 C137 1.312 . S
C769 C97 1.312 . S
C771 C163 1.312 . S
C787 C115 1.312 . S
C789 C181 1.312 . S
C805 C224 1.886 . S
C807 C8 1.886 . S
C823 C250 1.886 . S
C825 C26 1.886 . S
C841 C136 1.886 . S
C843 C52 1.886 . S
C859 C162 1.886 . S
C861 C70 1.886 . S
C877 C96 1.886 . S
C879 C180 1.886 1_556 S
C895 C114 1.886 1_554 S
C897 C206 1.886 . S
