# Generated by pormake.
# Topology zfs, (5)-cn, num edge types: 1
# Building blocks:
#     Node 0, Type 0, BuildingBlock: BEQFEK_clean_sbu_0, # of connection points: 5
#     Node 1, Type 0, BuildingBlock: BEQFEK_clean_sbu_0, # of connection points: 5
#     Node 2, Type 0, BuildingBlock: BEQFEK_clean_sbu_0, # of connection points: 5
#     Node 3, Type 0, BuildingBlock: BEQFEK_clean_sbu_0, # of connection points: 5
#     Node 4, Type 0, BuildingBlock: BEQFEK_clean_sbu_0, # of connection points: 5
#     Node 5, Type 0, BuildingBlock: BEQFEK_clean_sbu_0, # of connection points: 5
#     Node 6, Type 0, BuildingBlock: BEQFEK_clean_sbu_0, # of connection points: 5
#     Node 7, Type 0, BuildingBlock: BEQFEK_clean_sbu_0, # of connection points: 5
#     Edge 8, Type (0, 0), BuildingBlock: EZIPEK_clean_linker_0, # of connection points: 2
#     Edge 9, Type (0, 0), BuildingBlock: EZIPEK_clean_linker_0, # of connection points: 2
#     Edge 10, Type (0, 0), BuildingBlock: EZIPEK_clean_linker_0, # of connection points: 2
#     Edge 11, Type (0, 0), BuildingBlock: EZIPEK_clean_linker_0, # of connection points: 2
#     Edge 12, Type (0, 0), BuildingBlock: EZIPEK_clean_linker_0, # of connection points: 2
#     Edge 13, Type (0, 0), BuildingBlock: EZIPEK_clean_linker_0, # of connection points: 2
#     Edge 14, Type (0, 0), BuildingBlock: EZIPEK_clean_linker_0, # of connection points: 2
#     Edge 15, Type (0, 0), BuildingBlock: EZIPEK_clean_linker_0, # of connection points: 2
#     Edge 16, Type (0, 0), BuildingBlock: EZIPEK_clean_linker_0, # of connection points: 2
#     Edge 17, Type (0, 0), BuildingBlock: EZIPEK_clean_linker_0, # of connection points: 2
#     Edge 18, Type (0, 0), BuildingBlock: EZIPEK_clean_linker_0, # of connection points: 2
#     Edge 19, Type (0, 0), BuildingBlock: EZIPEK_clean_linker_0, # of connection points: 2
#     Edge 20, Type (0, 0), BuildingBlock: EZIPEK_clean_linker_0, # of connection points: 2
#     Edge 21, Type (0, 0), BuildingBlock: EZIPEK_clean_linker_0, # of connection points: 2
#     Edge 22, Type (0, 0), BuildingBlock: EZIPEK_clean_linker_0, # of connection points: 2
#     Edge 23, Type (0, 0), BuildingBlock: EZIPEK_clean_linker_0, # of connection points: 2
#     Edge 24, Type (0, 0), BuildingBlock: EZIPEK_clean_linker_0, # of connection points: 2
#     Edge 25, Type (0, 0), BuildingBlock: EZIPEK_clean_linker_0, # of connection points: 2
#     Edge 26, Type (0, 0), BuildingBlock: EZIPEK_clean_linker_0, # of connection points: 2
#     Edge 27, Type (0, 0), BuildingBlock: EZIPEK_clean_linker_0, # of connection points: 2
# Relax obj value: 0.358
# Max RMSD: 0.164
# Mean RMSD: 0.164
data_MOF--net-zfs--node1-BEQFEK_clean_sbu_0--edge1-EZIPEK_clean_linker_0
_symmetry_space_group_name_H-M    P1
_symmetry_Int_Tables_number       1
_symmetry_cell_setting            triclinic
loop_
_symmetry_equiv_pos_as_xyz
'x, y, z'
_cell_length_a     23.573301
_cell_length_b     23.668803
_cell_length_c     32.469566
_cell_angle_alpha  89.959151
_cell_angle_beta   90.323771
_cell_angle_gamma 90.29326
loop_
_atom_site_label
_atom_site_type_symbol
_atom_site_fract_x
_atom_site_fract_y
_atom_site_fract_z
_atom_type_partial_charge
Co0 Co 0.10757 0.28227 0.27176 0.0
Co1 Co 1.00845 0.28841 0.20986 0.0
C2 C 0.06764 0.39312 0.24554 0.0
O3 O 0.10564 0.36403 0.2631 0.0
O4 O 0.02748 0.36899 0.22584 0.0
C5 C 0.21408 0.30269 0.31069 0.0
O6 O 0.21822 0.34558 0.28523 0.0
C7 C 1.00056 0.31403 0.12456 0.0
C8 C 0.9141 0.2904 0.10488 0.0
C9 C 0.9665 0.30837 0.09024 0.0
N10 N 0.97109 0.29832 0.15802 0.0
N11 N 0.9188 0.28539 0.14629 0.0
C12 C 0.06244 0.32916 0.12454 0.0
H13 H 0.07989 0.33167 0.1562 0.0
H14 H 0.08649 0.29759 0.10653 0.0
H15 H 0.06863 0.37045 0.10899 0.0
C16 C 0.15771 0.2093 0.2061 0.0
N17 N 0.11663 0.24202 0.22221 0.0
N18 N 0.07156 0.2396 0.19835 0.0
C19 C 0.08145 0.20257 0.16756 0.0
C20 C 0.13688 0.18369 0.17052 0.0
C21 C 0.21532 0.20223 0.22472 0.0
H22 H 0.21116 0.18846 0.25724 0.0
H23 H 0.23747 0.24368 0.22461 0.0
H24 H 0.24079 0.17096 0.20744 0.0
O25 O 0.03657 0.25574 0.3008 0.0
O26 O 0.9643 0.25354 0.25611 0.0
H27 H 0.04097 0.13715 0.13176 0.0
H28 H 0.04796 0.20343 0.10643 0.0
C29 C 0.03844 0.18342 0.13644 0.0
H30 H 0.99488 0.19375 0.14635 0.0
H31 H 0.88734 0.27049 0.16606 0.0
O32 O 0.17156 0.26957 0.30906 0.0
C33 C 0.98455 0.24481 0.29228 0.0
Co34 Co 0.75491 0.10966 0.52628 0.0
Co35 Co 0.73996 1.01472 0.46203 0.0
C36 C 0.64019 0.07089 0.50383 0.0
O37 O 0.67112 0.10417 0.52482 0.0
O38 O 0.66227 0.03584 0.47924 0.0
C39 C 0.73907 0.21507 0.56562 0.0
O40 O 0.69549 0.21984 0.54056 0.0
C41 C 0.69699 1.00724 0.38071 0.0
C42 C 0.75218 0.94491 0.3508 0.0
C43 C 0.71417 0.98827 0.3426 0.0
N44 N 0.72651 0.97962 0.41003 0.0
N45 N 0.75784 0.94074 0.39207 0.0
C46 C 0.65552 0.05361 0.38912 0.0
H47 H 0.61932 0.0361 0.40678 0.0
H48 H 0.67608 0.08702 0.40805 0.0
H49 H 0.63862 0.07229 0.36024 0.0
C50 C 0.82079 0.16317 0.45721 0.0
N51 N 0.78838 0.12192 0.47398 0.0
N52 N 0.78926 0.07748 0.44987 0.0
C53 C 0.8254 0.08759 0.41846 0.0
C54 C 0.84479 0.14304 0.42098 0.0
C55 C 0.83095 0.21955 0.4766 0.0
H56 H 0.8479 0.2137 0.50825 0.0
H57 H 0.78992 0.24198 0.47899 0.0
H58 H 0.86111 0.24547 0.45837 0.0
O59 O 0.78682 0.03878 0.55182 0.0
O60 O 0.77231 0.96785 0.50794 0.0
H61 H 0.84817 1.00159 0.4064 0.0
H62 H 0.89134 0.05256 0.37998 0.0
C63 C 0.84772 0.04285 0.39029 0.0
H64 H 0.82122 0.03962 0.36229 0.0
H65 H 0.78715 0.91538 0.40753 0.0
O66 O 0.77136 0.1724 0.56358 0.0
C67 C 0.7898 0.98619 0.54295 0.0
Co68 Co 0.9245 0.75057 0.77414 0.0
Co69 Co 0.02365 0.73767 0.71218 0.0
C70 C 0.96627 0.63713 0.75283 0.0
O71 O 0.93242 0.66773 0.77306 0.0
O72 O 1.00213 0.6588 0.72829 0.0
C73 C 0.81893 0.72978 0.81395 0.0
O74 O 0.81798 0.68272 0.79258 0.0
C75 C 0.05613 0.69376 0.63326 0.0
C76 C 0.10403 0.7652 0.60723 0.0
C77 C 0.07381 0.71689 0.59626 0.0
N78 N 0.06983 0.72956 0.66398 0.0
N79 N 0.1016 0.77043 0.64853 0.0
C80 C 0.02428 0.63951 0.6391 0.0
H81 H 0.04576 0.61379 0.66307 0.0
H82 H 0.98092 0.64886 0.64989 0.0
H83 H 0.02194 0.61474 0.61012 0.0
C84 C 0.87162 0.81277 0.70385 0.0
N85 N 0.9142 0.78268 0.72109 0.0
N86 N 0.95872 0.78419 0.6969 0.0
C87 C 0.94661 0.81869 0.66467 0.0
C88 C 0.89072 0.83697 0.66734 0.0
C89 C 0.81377 0.81759 0.72203 0.0
H90 H 0.79767 0.77466 0.72928 0.0
H91 H 0.78381 0.83885 0.70067 0.0
H92 H 0.8165 0.84168 0.75128 0.0
O93 O 0.9927 0.78475 0.80242 0.0
O94 O 0.06543 0.77039 0.76055 0.0
H95 H 0.97396 0.88015 0.61953 0.0
H96 H 0.99682 0.80929 0.61053 0.0
C97 C 0.98917 0.84101 0.63476 0.0
H98 H 0.02921 0.85102 0.65116 0.0
H99 H 0.11618 0.80519 0.66535 0.0
O100 O 0.85902 0.76526 0.8094 0.0
C101 C 0.04577 0.78791 0.79487 0.0
Co102 Co 0.2865 0.92689 0.02416 0.0
Co103 Co 0.29062 0.02602 0.96166 0.0
C104 C 0.39657 0.97408 1.001 0.0
O105 O 0.36868 0.93733 0.02088 0.0
O106 O 0.37127 1.00971 0.97814 0.0
C107 C 0.311 0.82327 0.06565 0.0
O108 O 0.35794 0.82305 0.04411 0.0
C109 C 0.33369 0.05701 0.88236 0.0
C110 C 0.26192 0.10362 0.8554 0.0
C111 C 0.31072 0.07425 0.84509 0.0
N112 N 0.29746 0.07052 0.91265 0.0
N113 N 0.25631 0.10133 0.89665 0.0
C114 C 0.3885 0.02628 0.88891 0.0
H115 H 0.38012 0.98358 0.90166 0.0
H116 H 0.41272 0.02254 0.85984 0.0
H117 H 0.41485 0.04982 0.9116 0.0
C118 C 0.22166 0.87124 0.95555 0.0
N119 N 0.25142 0.91487 0.97192 0.0
N120 N 0.24764 0.95883 0.9473 0.0
C121 C 0.21227 0.94529 0.91576 0.0
C122 C 0.19554 0.88911 0.91925 0.0
C123 C 0.21881 0.81369 0.97434 0.0
H124 H 0.26255 0.7989 0.98069 0.0
H125 H 0.19681 0.78313 0.95377 0.0
H126 H 0.19616 0.81604 1.00415 0.0
O127 O 0.25345 0.99426 0.05263 0.0
O128 O 0.25207 0.06573 1.00797 0.0
H129 H 0.14863 0.97001 0.87107 0.0
H130 H 0.21896 0.99524 0.86114 0.0
C131 C 0.18793 0.98664 0.88574 0.0
H132 H 0.17737 0.02628 0.90193 0.0
H133 H 0.22127 0.11554 0.91312 0.0
O134 O 0.2745 0.86196 0.06049 0.0
C135 C 0.24161 0.04545 0.04367 0.0
Co136 Co 0.112 0.75198 0.24663 0.0
Co137 Co 1.01585 0.73447 0.30995 0.0
C138 C 0.07528 0.63671 0.26768 0.0
O139 O 0.10841 0.66865 0.24767 0.0
O140 O 0.03886 0.65701 0.29215 0.0
C141 C 0.2187 0.73777 0.20883 0.0
O142 O 0.22332 0.69446 0.23388 0.0
C143 C 1.00725 0.69291 0.39153 0.0
C144 C 0.94384 0.74759 0.42058 0.0
C145 C 0.98773 0.71038 0.4294 0.0
N146 N 0.97959 0.7214 0.36174 0.0
N147 N 0.94002 0.75246 0.37921 0.0
C148 C 0.05429 0.65225 0.38375 0.0
H149 H 0.03726 0.61629 0.36556 0.0
H150 H 0.08791 0.67349 0.36557 0.0
H151 H 0.07255 0.63536 0.41278 0.0
C152 C 0.16267 0.81948 0.316 0.0
N153 N 0.12256 0.78551 0.29911 0.0
N154 N 0.07768 0.7852 0.32285 0.0
C155 C 0.08632 0.82216 0.35409 0.0
C156 C 0.14132 0.84336 0.35187 0.0
C157 C 0.21899 0.83138 0.29692 0.0
H158 H 0.21268 0.84779 0.26522 0.0
H159 H 0.24293 0.79131 0.29474 0.0
H160 H 0.24389 0.86246 0.31525 0.0
O161 O 0.04048 0.78202 0.22037 0.0
O162 O 0.96904 0.76604 0.26354 0.0
H163 H 0.99932 0.8433 0.36482 0.0
H164 H 0.04908 0.88749 0.39196 0.0
C165 C 0.04039 0.84378 0.38156 0.0
H166 H 0.03707 0.81761 0.40954 0.0
H167 H 0.91438 0.78111 0.36338 0.0
O168 O 0.17543 0.76946 0.21023 0.0
C169 C 0.98753 0.78387 0.22878 0.0
Co170 Co 0.28299 0.11218 0.49481 0.0
Co171 Co 0.29033 1.01628 0.55897 0.0
C172 C 0.39434 0.07085 0.51894 0.0
O173 O 0.36584 0.10675 0.49878 0.0
O174 O 0.36962 0.0346 0.54154 0.0
C175 C 0.30217 0.21722 0.45496 0.0
O176 O 0.34579 0.22167 0.48007 0.0
C177 C 0.33259 1.00939 0.64048 0.0
C178 C 0.27643 0.9478 0.67094 0.0
C179 C 0.31546 0.99078 0.67876 0.0
N180 N 0.30226 0.98187 0.61142 0.0
N181 N 0.27026 0.94346 0.62971 0.0
C182 C 0.37492 0.05529 0.63166 0.0
H183 H 0.41099 0.03711 0.61444 0.0
H184 H 0.35512 0.08839 0.61218 0.0
H185 H 0.39193 0.07452 0.66035 0.0
C186 C 0.21645 0.16711 0.56305 0.0
N187 N 0.24742 0.12496 0.54645 0.0
N188 N 0.24435 0.08061 0.57059 0.0
C189 C 0.20816 0.09158 0.60167 0.0
C190 C 0.19111 0.14755 0.59909 0.0
C191 C 0.20921 0.22397 0.54383 0.0
H192 H 0.19315 0.21901 0.51185 0.0
H193 H 0.2512 0.24519 0.54234 0.0
H194 H 0.17949 0.25053 0.5617 0.0
O195 O 0.2524 0.04092 0.46823 0.0
O196 O 0.25279 0.97086 0.5143 0.0
H197 H 0.1824 1.00607 0.61344 0.0
H198 H 0.14012 0.05781 0.63924 0.0
C199 C 0.1837 0.04729 0.62954 0.0
H200 H 0.20936 0.04348 0.6579 0.0
H201 H 0.24039 0.9182 0.6145 0.0
O202 O 0.26893 0.17493 0.45709 0.0
C203 C 0.24192 0.9895 0.47803 0.0
Co204 Co 0.93121 0.28294 0.75042 0.0
Co205 Co 0.03095 0.28953 0.81191 0.0
C206 C 0.97187 0.39384 0.77616 0.0
O207 O 0.93361 0.36471 0.75863 0.0
O208 O 1.01179 0.36992 0.79603 0.0
C209 C 0.82532 0.30251 0.71055 0.0
O210 O 0.82157 0.34646 0.73499 0.0
C211 C 0.04 0.315 0.89713 0.0
C212 C 0.12646 0.29149 0.91632 0.0
C213 C 0.07434 0.30924 0.93127 0.0
N214 N 0.06901 0.29954 0.8635 0.0
N215 N 0.12131 0.28669 0.87493 0.0
C216 C 0.97824 0.32994 0.89749 0.0
H217 H 0.9604 0.33205 0.86593 0.0
H218 H 0.9542 0.29847 0.91587 0.0
H219 H 0.97258 0.37138 0.91279 0.0
C220 C 0.88157 0.20924 0.81625 0.0
N221 N 0.92257 0.24243 0.80005 0.0
N222 N 0.96784 0.24022 0.8237 0.0
C223 C 0.9581 0.20295 0.85447 0.0
C224 C 0.90264 0.18355 0.8517 0.0
C225 C 0.82387 0.2017 0.79777 0.0
H226 H 0.82789 0.18709 0.76546 0.0
H227 H 0.80213 0.24315 0.79723 0.0
H228 H 0.79809 0.17086 0.81549 0.0
O229 O 1.00191 0.25765 0.72109 0.0
O230 O 0.07464 0.25541 0.76532 0.0
H231 H 0.0448 0.19472 0.87533 0.0
H232 H 0.9986 0.13788 0.8903 0.0
C233 C 1.00129 0.18415 0.88546 0.0
H234 H 0.9921 0.20424 0.91544 0.0
H235 H 0.15244 0.27193 0.85497 0.0
O236 O 0.86724 0.26919 0.71323 0.0
C237 C 0.054 0.24712 0.72919 0.0
Co238 Co 0.75212 0.92435 0.99758 0.0
Co239 Co 0.74838 0.02338 0.06015 0.0
C240 C 0.6424 0.97211 0.01956 0.0
O241 O 0.66993 0.93509 0.99997 0.0
O242 O 0.66797 1.00747 0.04266 0.0
C243 C 0.72746 0.8205 0.95599 0.0
O244 O 0.68009 0.82041 0.97703 0.0
C245 C 0.70352 0.05452 0.13878 0.0
C246 C 0.77528 0.10057 0.16687 0.0
C247 C 0.72562 0.07161 0.17639 0.0
N248 N 0.74092 0.06776 0.10908 0.0
N249 N 0.78214 0.09822 0.12573 0.0
C250 C 0.64839 0.02416 0.13141 0.0
H251 H 0.62311 0.04784 0.10828 0.0
H252 H 0.65644 0.98137 0.11887 0.0
H253 H 0.62324 0.02061 0.16009 0.0
C254 C 0.8142 0.86807 0.06719 0.0
N255 N 0.78591 0.91206 0.05032 0.0
N256 N 0.78994 0.95593 0.07498 0.0
C257 C 0.82406 0.94195 0.10709 0.0
C258 C 0.83966 0.88557 0.1039 0.0
C259 C 0.8161 0.81045 0.04856 0.0
H260 H 0.77213 0.79619 0.04189 0.0
H261 H 0.83703 0.77967 0.06939 0.0
H262 H 0.83928 0.81244 0.01894 0.0
O263 O 0.78629 0.99197 0.96939 0.0
O264 O 0.7881 0.06319 0.01419 0.0
H265 H 0.88685 0.966 0.15276 0.0
H266 H 0.81672 0.99185 0.16161 0.0
C267 C 0.84831 0.98301 0.1375 0.0
H268 H 0.86008 0.02261 0.1215 0.0
H269 H 0.81793 0.11217 0.10983 0.0
O270 O 0.76417 0.85932 0.96133 0.0
C271 C 0.79856 0.04314 0.97848 0.0
C272 C 0.05734 0.55193 0.22262 0.0
C273 C 0.07648 0.5748 0.26063 0.0
C274 C 0.08181 0.47971 0.28967 0.0
C275 C 0.06907 0.45595 0.25039 0.0
N276 N 0.05703 0.47113 0.17717 0.0
N277 N 0.12294 0.55933 0.32581 0.0
C278 C 0.06009 0.49251 0.21614 0.0
C279 C 0.09354 0.53835 0.29283 0.0
N280 N 0.03529 0.58665 0.19299 0.0
N281 N 0.07978 0.44718 0.32443 0.0
H282 H 0.13513 0.60168 0.3277 0.0
H283 H 0.14062 0.53365 0.34855 0.0
H284 H 0.06686 0.40499 0.3243 0.0
H285 H 0.08419 0.46399 0.35395 0.0
H286 H 1.01495 0.57158 0.1666 0.0
H287 H 0.03307 0.6304 0.19634 0.0
H288 H 0.05621 0.49633 0.15085 0.0
H289 H 0.06148 0.4284 0.17085 0.0
C290 C 0.54704 0.123 0.50861 0.0
C291 C 0.57738 0.07132 0.50875 0.0
C292 C 0.48711 0.01948 0.51034 0.0
C293 C 0.4574 0.07095 0.51592 0.0
N294 N 0.46256 0.17084 0.5314 0.0
N295 N 0.57547 0.97052 0.52142 0.0
C296 C 0.48832 0.12258 0.51828 0.0
C297 C 0.54722 0.01952 0.51304 0.0
N298 N 0.57324 0.17222 0.49739 0.0
N299 N 0.45856 0.97088 0.50051 0.0
H300 H 0.61919 0.96894 0.5263 0.0
H301 H 0.55462 0.93279 0.5284 0.0
H302 H 0.41486 0.9693 0.49555 0.0
H303 H 0.47921 0.93365 0.49251 0.0
H304 H 0.55135 0.20999 0.49335 0.0
H305 H 0.61519 0.17399 0.48748 0.0
H306 H 0.48481 0.20826 0.53698 0.0
H307 H 0.42061 0.17181 0.54138 0.0
C308 C 0.98177 0.55262 0.79846 0.0
C309 C 0.96603 0.57514 0.75955 0.0
C310 C 0.96243 0.47971 0.73083 0.0
C311 C 0.97142 0.45648 0.77077 0.0
N312 N 0.97781 0.47211 0.84421 0.0
N313 N 0.9264 0.55917 0.69203 0.0
C314 C 0.978 0.49329 0.80511 0.0
C315 C 0.952 0.53841 0.72665 0.0
N316 N 1.00176 0.58759 0.82879 0.0
N317 N 0.96645 0.44645 0.69658 0.0
H318 H 0.91487 0.60149 0.6892 0.0
H319 H 0.91077 0.53338 0.66852 0.0
H320 H 0.97775 0.40395 0.69777 0.0
H321 H 0.9651 0.46268 0.66674 0.0
H322 H 0.01956 0.57275 0.85615 0.0
H323 H 1.00525 0.63127 0.82521 0.0
H324 H 0.9767 0.49743 0.87042 0.0
H325 H 0.97266 0.42934 0.85043 0.0
C326 C 0.48988 0.92291 1.00381 0.0
C327 C 0.45969 0.97468 1.0045 0.0
C328 C 0.55042 0.02561 1.0096 0.0
C329 C 0.57937 0.9736 0.01541 0.0
N330 N 0.57199 0.87338 0.02941 0.0
N331 N 0.46197 0.0752 0.01838 0.0
C332 C 0.54778 0.92234 0.01582 0.0
C333 C 0.49008 0.02615 1.0103 0.0
N334 N 0.46428 0.87452 0.99004 0.0
N335 N 0.57992 0.07417 1.00155 0.0
H336 H 0.41808 0.07731 0.02163 0.0
H337 H 0.48288 0.1125 0.02654 0.0
H338 H 0.62385 0.07545 0.99822 0.0
H339 H 0.56008 0.11186 0.99342 0.0
H340 H 0.48633 0.8369 0.98589 0.0
H341 H 0.42318 0.87366 0.97801 0.0
H342 H 0.54888 0.83611 0.03337 0.0
H343 H 0.61302 0.87165 0.0415 0.0
C344 C 0.26056 0.30128 0.42118 0.0
C345 C 0.29721 0.25442 0.41902 0.0
C346 C 0.29842 0.26035 0.34397 0.0
C347 C 0.25239 0.29808 0.34623 0.0
N348 N 0.193 0.36081 0.38504 0.0
N349 N 0.35753 0.19262 0.38018 0.0
C350 C 0.23535 0.32158 0.38431 0.0
C351 C 0.31924 0.23579 0.38088 0.0
N352 N 0.24955 0.32522 0.45853 0.0
N353 N 0.32107 0.24774 0.30648 0.0
H354 H 0.37521 0.17574 0.40701 0.0
H355 H 0.37073 0.17253 0.35343 0.0
H356 H 0.30641 0.26655 0.27938 0.0
H357 H 0.35693 0.22296 0.30244 0.0
H358 H 0.22566 0.36164 0.46242 0.0
H359 H 0.26888 0.31097 0.48557 0.0
H360 H 0.17394 0.37525 0.41183 0.0
H361 H 0.17576 0.37806 0.35819 0.0
C362 C 0.72229 0.23255 0.63986 0.0
C363 C 0.74425 0.25184 0.60178 0.0
C364 C 0.8048 0.32055 0.6367 0.0
C365 C 0.7876 0.29679 0.67476 0.0
N366 N 0.71942 0.24459 0.71421 0.0
N367 N 0.79134 0.32378 0.56241 0.0
C368 C 0.74227 0.25775 0.67682 0.0
C369 C 0.78026 0.29958 0.59973 0.0
N370 N 0.6848 0.18829 0.64048 0.0
N371 N 0.84679 0.3606 0.63608 0.0
H372 H 0.77273 0.30895 0.53523 0.0
H373 H 0.81456 0.3609 0.55865 0.0
H374 H 0.86368 0.37827 0.66295 0.0
H375 H 0.86604 0.37523 0.60934 0.0
H376 H 0.67188 0.16778 0.6672 0.0
H377 H 0.66758 0.17086 0.61363 0.0
H378 H 0.68393 0.21887 0.71809 0.0
H379 H 0.73346 0.26383 0.74136 0.0
C380 C 0.77184 0.73671 0.92421 0.0
C381 C 0.73432 0.78276 0.92053 0.0
C382 C 0.73453 0.77368 0.8456 0.0
C383 C 0.78122 0.73687 0.84936 0.0
N384 N 0.843 0.67914 0.89101 0.0
N385 N 0.67545 0.84346 0.87895 0.0
C386 C 0.7987 0.71603 0.88834 0.0
C387 C 0.7132 0.79994 0.88154 0.0
N388 N 0.78171 0.71346 0.96205 0.0
N389 N 0.71137 0.78357 0.80765 0.0
H390 H 0.65747 0.86204 0.90489 0.0
H391 H 0.66351 0.8626 0.85139 0.0
H392 H 0.7261 0.76337 0.78127 0.0
H393 H 0.67472 0.80706 0.8028 0.0
H394 H 0.80576 0.67727 0.96682 0.0
H395 H 0.7608 0.72756 0.98832 0.0
H396 H 0.86232 0.66759 0.91864 0.0
H397 H 0.86213 0.6616 0.86512 0.0
C398 C 0.32651 0.80375 0.14004 0.0
C399 C 0.30447 0.78596 0.10142 0.0
C400 C 0.23867 0.72119 0.13487 0.0
C401 C 0.25659 0.7433 0.17339 0.0
N402 N 0.32753 0.79037 0.21429 0.0
N403 N 0.2547 0.71669 0.06105 0.0
C404 C 0.30436 0.77928 0.17649 0.0
C405 C 0.26567 0.74051 0.09856 0.0
N406 N 0.36582 0.84636 0.14171 0.0
N407 N 0.19406 0.6841 0.13311 0.0
H408 H 0.27572 0.72989 0.03451 0.0
H409 H 0.22938 0.68101 0.05676 0.0
H410 H 0.17523 0.66731 0.15948 0.0
H411 H 0.17449 0.67132 0.10584 0.0
H412 H 0.37876 0.86602 0.16886 0.0
H413 H 0.38432 0.86353 0.11538 0.0
H414 H 0.36481 0.81335 0.21876 0.0
H415 H 0.31188 0.77187 0.24113 0.0
C416 C 1.00165 0.25777 0.0277 0.0
C417 C 0.98781 0.3095 0.04721 0.0
C418 C 0.03605 0.36195 0.99202 0.0
C419 C 0.05339 0.30994 0.9744 0.0
N420 N 0.06313 0.20871 0.98057 0.0
N421 N 0.99333 0.41104 0.04973 0.0
C422 C 0.03942 0.25801 0.99382 0.0
C423 C 1.00543 0.36173 0.02976 0.0
N424 N 0.97778 0.20823 0.04085 0.0
N425 N 0.04841 0.41147 0.97219 0.0
H426 H 0.96761 0.4125 0.07576 0.0
H427 H 1.0104 0.45015 0.04177 0.0
H428 H 0.07416 0.41324 0.94617 0.0
H429 H 0.03154 0.45043 0.98026 0.0
H430 H 0.9808 0.17041 0.02464 0.0
H431 H 0.95065 0.20542 0.06592 0.0
H432 H 0.05999 0.17077 0.99669 0.0
H433 H 0.09027 0.20625 0.9555 0.0
C434 C 0.69926 0.99393 0.22777 0.0
C435 C 0.71017 0.05202 0.21866 0.0
C436 C 0.71813 0.07136 0.29235 0.0
C437 C 0.70397 1.01392 0.30128 0.0
N438 N 0.66084 0.92761 0.27728 0.0
N439 N 0.70957 0.14797 0.24339 0.0
C440 C 0.68709 0.97785 0.26883 0.0
C441 C 0.71262 0.09138 0.25136 0.0
N442 N 0.70564 0.95296 0.1987 0.0
N443 N 0.7404 0.10631 0.32172 0.0
H444 H 0.70366 0.16396 0.21372 0.0
H445 H 0.70631 0.17821 0.26659 0.0
H446 H 0.74611 0.09489 0.35225 0.0
H447 H 0.7578 0.14569 0.3147 0.0
H448 H 0.69913 0.91024 0.20477 0.0
H449 H 0.72414 0.96019 0.17025 0.0
H450 H 0.64304 0.90198 0.25448 0.0
H451 H 0.65111 0.91506 0.30726 0.0
C452 C 0.99453 0.69443 0.54447 0.0
C453 C 0.05316 0.70411 0.55357 0.0
C454 C 0.07128 0.71455 0.47991 0.0
C455 C 1.01345 0.70082 0.47092 0.0
N456 N 0.92673 0.65813 0.49469 0.0
N457 N 0.14903 0.70383 0.52817 0.0
C458 C 0.97755 0.68363 0.50328 0.0
C459 C 0.09209 0.70757 0.52067 0.0
N460 N 0.95393 0.70068 0.5738 0.0
N461 N 0.10597 0.73758 0.45083 0.0
H462 H 0.16564 0.69669 0.55757 0.0
H463 H 0.17891 0.70124 0.5047 0.0
H464 H 0.0939 0.74446 0.42053 0.0
H465 H 0.14573 0.75445 0.45797 0.0
H466 H 0.91086 0.69485 0.56785 0.0
H467 H 0.96189 0.71877 0.60237 0.0
H468 H 0.90125 0.64008 0.51736 0.0
H469 H 0.91344 0.64925 0.46465 0.0
C470 C 0.34457 0.98012 0.75213 0.0
C471 C 0.32717 1.01626 0.71993 0.0
C472 C 0.32137 0.09382 0.76984 0.0
C473 C 0.32439 0.0545 0.80258 0.0
N474 N 0.32827 0.95547 0.82267 0.0
N475 N 0.29179 0.10883 0.69987 0.0
C476 C 0.33414 0.99634 0.79338 0.0
C477 C 0.31425 0.07377 0.72899 0.0
N478 N 0.36967 0.92971 0.74327 0.0
N479 N 0.32555 0.15041 0.77764 0.0
H480 H 0.2854 0.0975 0.66939 0.0
H481 H 0.2751 0.14826 0.70709 0.0
H482 H 0.33274 0.16642 0.80716 0.0
H483 H 0.32844 0.18061 0.75434 0.0
H484 H 0.3879 0.904 0.76575 0.0
H485 H 0.37808 0.91703 0.71313 0.0
H486 H 0.33423 0.91274 0.81665 0.0
H487 H 0.31069 0.9628 0.85138 0.0
C488 C 0.20856 0.17159 0.11359 0.0
C489 C 0.1671 0.14761 0.14 0.0
C490 C 0.1693 0.06007 0.09976 0.0
C491 C 0.21521 0.08161 0.07607 0.0
N492 N 0.28735 0.15379 0.06801 0.0
N493 N 0.1181 0.06454 0.16414 0.0
C494 C 0.23734 0.13633 0.08502 0.0
C495 C 0.15076 0.09036 0.13497 0.0
N496 N 0.21942 0.22833 0.11478 0.0
N497 N 0.14115 1.0123 0.08747 0.0
H498 H 0.10413 0.08544 0.19047 0.0
H499 H 0.1095 0.0213 0.16406 0.0
H500 H 0.15076 0.99067 0.06044 0.0
H501 H 0.10415 0.99793 0.10152 0.0
H502 H 0.24458 0.24889 0.09309 0.0
H503 H 0.19945 0.25568 0.1352 0.0
H504 H 0.30801 0.19097 0.07673 0.0
H505 H 0.31144 0.12852 0.04858 0.0
C506 C 0.96914 0.17446 0.34996 0.0
C507 C 0.94808 0.21985 0.32552 0.0
C508 C 0.85837 0.21536 0.36408 0.0
C509 C 0.88165 0.17344 0.39052 0.0
N510 N 0.96467 0.12498 0.41524 0.0
N511 N 0.87711 0.29219 0.31654 0.0
C512 C 0.93888 0.15697 0.3856 0.0
C513 C 0.89384 0.24277 0.33456 0.0
N514 N 1.0163 0.14557 0.33794 0.0
N515 N 0.80201 0.22811 0.36633 0.0
H516 H 0.90248 0.31484 0.2961 0.0
H517 H 0.84063 0.31377 0.32511 0.0
H518 H 0.77474 0.2096 0.38767 0.0
H519 H 0.78135 0.25345 0.34477 0.0
H520 H 0.03018 0.10893 0.3526 0.0
H521 H 0.03772 0.15409 0.3106 0.0
H522 H 1.00795 0.11621 0.41518 0.0
H523 H 0.94374 0.11179 0.44183 0.0
C524 C 0.80351 0.95644 0.61787 0.0
C525 C 0.81255 0.94599 0.57504 0.0
C526 C 0.85797 0.85681 0.59457 0.0
C527 C 0.85958 0.8732 0.63656 0.0
N528 N 0.84278 0.94666 0.68651 0.0
N529 N 0.86298 0.89006 0.52453 0.0
C530 C 0.83496 0.92542 0.64783 0.0
C531 C 0.84377 0.89712 0.56378 0.0
N532 N 0.7628 0.99341 0.63038 0.0
N533 N 0.86829 0.80217 0.58403 0.0
H534 H 0.85891 0.92069 0.50168 0.0
H535 H 0.88952 0.85683 0.51632 0.0
H536 H 0.87416 0.77096 0.60631 0.0
H537 H 0.86344 0.78722 0.554 0.0
H538 H 0.75242 0.99894 0.66129 0.0
H539 H 0.73421 1.01237 0.61011 0.0
H540 H 0.82968 0.98709 0.69479 0.0
H541 H 0.8672 0.92636 0.70887 0.0
C542 C 0.13492 0.84193 0.81625 0.0
C543 C 0.08541 0.81101 0.82738 0.0
C544 C 0.10674 0.83227 0.90026 0.0
C545 C 0.15939 0.85682 0.88897 0.0
N546 N 0.23066 0.86568 0.83661 0.0
N547 N 0.03655 0.76161 0.88252 0.0
C548 C 0.1757 0.85545 0.84706 0.0
C549 C 0.07471 0.8017 0.87017 0.0
N550 N 0.14209 0.86163 0.77707 0.0
N551 N 0.08612 0.83932 0.9391 0.0
H552 H 1.01645 0.73389 0.86216 0.0
H553 H 0.03083 0.75087 0.91337 0.0
H554 H 0.10749 0.86258 0.96165 0.0
H555 H 0.04538 0.82654 0.94745 0.0
H556 H 0.17587 0.88793 0.76894 0.0
H557 H 0.11103 0.85829 0.75424 0.0
H558 H 0.24545 0.86069 0.80663 0.0
H559 H 0.26218 0.87178 0.85887 0.0
C560 C 0.21334 0.86041 0.40885 0.0
C561 C 0.17045 0.88169 0.3822 0.0
C562 C 0.17012 0.97033 0.4214 0.0
C563 C 0.21659 0.95128 0.44584 0.0
N564 N 0.29119 0.88266 0.45523 0.0
N565 N 0.11924 0.96227 0.35657 0.0
C566 C 0.24066 0.89746 0.43753 0.0
C567 C 0.15252 0.93843 0.38639 0.0
N568 N 0.22724 0.80446 0.40758 0.0
N569 N 0.14056 0.01729 0.43275 0.0
H570 H 0.10597 0.94015 0.33041 0.0
H571 H 0.10938 1.00514 0.356 0.0
H572 H 0.1495 0.04 0.45954 0.0
H573 H 0.1032 0.02986 0.41816 0.0
H574 H 0.25343 0.78533 0.4294 0.0
H575 H 0.20882 0.77603 0.38688 0.0
H576 H 0.31344 0.8465 0.44701 0.0
H577 H 0.31404 0.90924 0.47487 0.0
C578 C 0.17929 0.21921 0.6565 0.0
C579 C 0.15495 0.17856 0.62937 0.0
C580 C 0.06778 0.17898 0.67016 0.0
C581 C 0.08993 0.22311 0.69546 0.0
N582 N 0.16234 0.29456 0.70541 0.0
N583 N 0.0706 0.13267 0.6037 0.0
C584 C 0.14454 0.24592 0.68663 0.0
C585 C 0.09732 0.16287 0.634 0.0
N586 N 0.23591 0.23137 0.65435 0.0
N587 N 0.02037 0.14975 0.68185 0.0
H588 H 0.09108 0.12053 0.57672 0.0
H589 H 0.02709 0.12456 0.60371 0.0
H590 H 0.99966 0.15685 0.70964 0.0
H591 H 1.00569 0.11395 0.66636 0.0
H592 H 0.2572 0.25567 0.67633 0.0
H593 H 0.26264 0.2134 0.63256 0.0
H594 H 0.19924 0.31603 0.6971 0.0
H595 H 0.13749 0.31682 0.72623 0.0
C596 C 0.88901 0.08972 0.88702 0.0
C597 C 0.87265 0.14687 0.88223 0.0
C598 C 0.80268 0.13436 0.93736 0.0
C599 C 0.82485 0.07979 0.94608 0.0
N600 N 0.89865 1.01118 0.93413 0.0
N601 N 0.82046 0.22681 0.9079 0.0
C602 C 0.87058 0.05889 0.92216 0.0
C603 C 0.83132 0.17018 0.90884 0.0
N604 N 0.92154 0.06451 0.85767 0.0
N605 N 0.75271 0.15116 0.9545 0.0
H606 H 0.84033 0.25455 0.88753 0.0
H607 H 0.79542 0.24692 0.92974 0.0
H608 H 0.72864 0.12545 0.97382 0.0
H609 H 0.73202 0.18819 0.94594 0.0
H610 H 0.93014 0.02137 0.85756 0.0
H611 H 0.93542 0.08581 0.83141 0.0
H612 H 0.93556 0.99727 0.91994 0.0
H613 H 0.88904 0.98913 0.96103 0.0
C614 C 0.95781 0.79652 0.15372 0.0
C615 C 0.94711 0.80593 0.19646 0.0
C616 C 0.85791 0.8515 0.17635 0.0
C617 C 0.87473 0.85287 0.13451 0.0
N618 N 0.9482 0.83459 0.08483 0.0
N619 N 0.89065 0.85629 0.24669 0.0
C620 C 0.92687 0.8276 0.1235 0.0
C621 C 0.898 0.8371 0.20743 0.0
N622 N 0.99515 0.75595 0.14157 0.0
N623 N 0.80311 0.86261 0.18646 0.0
H624 H 0.92109 0.852 0.26983 0.0
H625 H 0.85738 0.88292 0.25473 0.0
H626 H 0.77208 0.86937 0.16399 0.0
H627 H 0.78774 0.85775 0.21631 0.0
H628 H 1.00084 0.74512 0.11076 0.0
H629 H 1.01444 0.72805 0.16209 0.0
H630 H 0.98871 0.82122 0.07674 0.0
H631 H 0.92783 0.85842 0.06221 0.0
loop_
_geom_bond_atom_site_label_1
_geom_bond_atom_site_label_2
_geom_bond_distance
_geom_bond_site_symmetry_2
_ccdc_geom_bond_type
Co0 O3 1.970 . S
Co0 N17 1.989 . S
Co0 O25 1.967 . S
Co0 O32 1.920 . S
Co1 O4 1.966 . S
Co1 N10 2.022 . S
Co1 N18 1.993 . S
Co1 O26 1.941 . S
C2 O3 1.258 . S
C2 O4 1.263 . S
O3 Co0 1.970 . S
O3 C2 1.258 . S
O4 Co1 1.966 . S
O4 C2 1.263 . S
C5 O6 1.235 . S
C5 O32 1.289 . S
O6 C5 1.235 . S
C7 C9 1.400 . S
C7 N10 1.351 . S
C7 C12 1.501 . S
C8 C9 1.387 1_655 S
C8 N11 1.341 . S
C9 C7 1.400 . S
C9 C8 1.387 1_455 S
N10 Co1 2.022 . S
N10 C7 1.351 . S
N10 N11 1.365 1_455 S
N11 C8 1.341 . S
N11 N10 1.365 1_655 S
N11 H31 0.862 . S
C12 C7 1.501 . S
C12 H13 0.961 . S
C12 H14 0.961 . S
C12 H15 0.960 . S
H13 C12 0.961 . S
H14 C12 0.961 . S
H15 C12 0.960 . S
C16 N17 1.342 . S
C16 C20 1.401 . S
C16 C21 1.499 . S
N17 Co0 1.989 . S
N17 C16 1.342 . S
N17 N18 1.388 . S
N18 Co1 1.993 . S
N18 N17 1.388 . S
N18 C19 1.346 . S
C19 N18 1.346 . S
C19 C20 1.396 . S
C19 C29 1.510 . S
C20 C16 1.401 . S
C20 C19 1.396 . S
C21 C16 1.499 . S
C21 H22 0.959 . S
C21 H23 0.960 . S
C21 H24 0.961 . S
H22 C21 0.959 . S
H23 C21 0.960 . S
H24 C21 0.961 . S
O25 Co0 1.967 . S
O25 C33 1.258 . S
O26 Co1 1.941 . S
O26 C33 1.266 . S
H27 C29 0.959 . S
H28 C29 0.961 . S
C29 C19 1.510 . S
C29 H27 0.959 . S
C29 H28 0.961 . S
C29 H30 0.960 . S
H30 C29 0.960 . S
H31 N11 0.862 . S
O32 Co0 1.920 . S
O32 C5 1.289 . S
C33 O25 1.258 . S
C33 O26 1.266 . S
Co34 O37 1.970 . S
Co34 N51 1.989 . S
Co34 O59 1.967 . S
Co34 O66 1.920 . S
Co35 O38 1.966 . S
Co35 N44 2.022 . S
Co35 N52 1.993 . S
Co35 O60 1.941 . S
C36 O37 1.258 . S
C36 O38 1.263 . S
O37 Co34 1.970 . S
O37 C36 1.258 . S
O38 Co35 1.966 . S
O38 C36 1.263 . S
C39 O40 1.235 . S
C39 O66 1.289 . S
O40 C39 1.235 . S
C41 C43 1.400 . S
C41 N44 1.351 . S
C41 C46 1.501 . S
C42 C43 1.387 1_565 S
C42 N45 1.341 . S
C43 C41 1.400 . S
C43 C42 1.387 1_545 S
N44 Co35 2.022 . S
N44 C41 1.351 . S
N44 N45 1.365 1_545 S
N45 C42 1.341 . S
N45 N44 1.365 1_565 S
N45 H65 0.862 . S
C46 C41 1.501 . S
C46 H47 0.961 . S
C46 H48 0.961 . S
C46 H49 0.960 . S
H47 C46 0.961 . S
H48 C46 0.961 . S
H49 C46 0.960 . S
C50 N51 1.342 . S
C50 C54 1.401 . S
C50 C55 1.499 . S
N51 Co34 1.989 . S
N51 C50 1.342 . S
N51 N52 1.388 . S
N52 Co35 1.993 . S
N52 N51 1.388 . S
N52 C53 1.346 . S
C53 N52 1.346 . S
C53 C54 1.396 . S
C53 C63 1.510 . S
C54 C50 1.401 . S
C54 C53 1.396 . S
C55 C50 1.499 . S
C55 H56 0.959 . S
C55 H57 0.960 . S
C55 H58 0.961 . S
H56 C55 0.959 . S
H57 C55 0.960 . S
H58 C55 0.961 . S
O59 Co34 1.967 . S
O59 C67 1.258 . S
O60 Co35 1.941 . S
O60 C67 1.266 . S
H61 C63 0.959 . S
H62 C63 0.961 . S
C63 C53 1.510 . S
C63 H61 0.959 . S
C63 H62 0.961 . S
C63 H64 0.960 . S
H64 C63 0.960 . S
H65 N45 0.862 . S
O66 Co34 1.920 . S
O66 C39 1.289 . S
C67 O59 1.258 . S
C67 O60 1.266 . S
Co68 O71 1.970 . S
Co68 N85 1.989 . S
Co68 O93 1.967 . S
Co68 O100 1.920 . S
Co69 O72 1.966 . S
Co69 N78 2.022 . S
Co69 N86 1.993 . S
Co69 O94 1.941 . S
C70 O71 1.258 . S
C70 O72 1.263 . S
O71 Co68 1.970 . S
O71 C70 1.258 . S
O72 Co69 1.966 . S
O72 C70 1.263 . S
C73 O74 1.235 . S
C73 O100 1.289 . S
O74 C73 1.235 . S
C75 C77 1.400 . S
C75 N78 1.351 . S
C75 C80 1.501 . S
C76 C77 1.387 1_455 S
C76 N79 1.341 . S
C77 C75 1.400 . S
C77 C76 1.387 1_655 S
N78 Co69 2.022 . S
N78 C75 1.351 . S
N78 N79 1.365 1_655 S
N79 C76 1.341 . S
N79 N78 1.365 1_455 S
N79 H99 0.862 . S
C80 C75 1.501 . S
C80 H81 0.961 . S
C80 H82 0.961 . S
C80 H83 0.960 . S
H81 C80 0.961 . S
H82 C80 0.961 . S
H83 C80 0.960 . S
C84 N85 1.342 . S
C84 C88 1.401 . S
C84 C89 1.499 . S
N85 Co68 1.989 . S
N85 C84 1.342 . S
N85 N86 1.388 . S
N86 Co69 1.993 . S
N86 N85 1.388 . S
N86 C87 1.346 . S
C87 N86 1.346 . S
C87 C88 1.396 . S
C87 C97 1.510 . S
C88 C84 1.401 . S
C88 C87 1.396 . S
C89 C84 1.499 . S
C89 H90 0.959 . S
C89 H91 0.960 . S
C89 H92 0.961 . S
H90 C89 0.959 . S
H91 C89 0.960 . S
H92 C89 0.961 . S
O93 Co68 1.967 . S
O93 C101 1.258 . S
O94 Co69 1.941 . S
O94 C101 1.266 . S
H95 C97 0.959 . S
H96 C97 0.961 . S
C97 C87 1.510 . S
C97 H95 0.959 . S
C97 H96 0.961 . S
C97 H98 0.960 . S
H98 C97 0.960 . S
H99 N79 0.862 . S
O100 Co68 1.920 . S
O100 C73 1.289 . S
C101 O93 1.258 . S
C101 O94 1.266 . S
Co102 O105 1.970 . S
Co102 N119 1.989 1_554 S
Co102 O127 1.967 . S
Co102 O134 1.920 . S
Co103 O106 1.966 . S
Co103 N112 2.022 . S
Co103 N120 1.993 . S
Co103 O128 1.941 . S
C104 O105 1.258 1_556 S
C104 O106 1.263 . S
O105 Co102 1.970 . S
O105 C104 1.258 1_554 S
O106 Co103 1.966 . S
O106 C104 1.263 . S
C107 O108 1.235 . S
C107 O134 1.289 . S
O108 C107 1.235 . S
C109 C111 1.400 . S
C109 N112 1.351 . S
C109 C114 1.501 . S
C110 C111 1.387 1_545 S
C110 N113 1.341 . S
C111 C109 1.400 . S
C111 C110 1.387 1_565 S
N112 Co103 2.022 . S
N112 C109 1.351 . S
N112 N113 1.365 1_565 S
N113 C110 1.341 . S
N113 N112 1.365 1_545 S
N113 H133 0.862 . S
C114 C109 1.501 . S
C114 H115 0.961 . S
C114 H116 0.961 . S
C114 H117 0.960 . S
H115 C114 0.961 . S
H116 C114 0.961 . S
H117 C114 0.960 . S
C118 N119 1.342 . S
C118 C122 1.401 . S
C118 C123 1.499 . S
N119 Co102 1.989 1_556 S
N119 C118 1.342 . S
N119 N120 1.388 . S
N120 Co103 1.993 . S
N120 N119 1.388 . S
N120 C121 1.346 . S
C121 N120 1.346 . S
C121 C122 1.396 . S
C121 C131 1.510 . S
C122 C118 1.401 . S
C122 C121 1.396 . S
C123 C118 1.499 . S
C123 H124 0.959 1_556 S
C123 H125 0.960 . S
C123 H126 0.961 . S
H124 C123 0.959 1_554 S
H125 C123 0.960 . S
H126 C123 0.961 . S
O127 Co102 1.967 . S
O127 C135 1.258 . S
O128 Co103 1.941 . S
O128 C135 1.266 1_556 S
H129 C131 0.959 . S
H130 C131 0.961 . S
C131 C121 1.510 . S
C131 H129 0.959 . S
C131 H130 0.961 . S
C131 H132 0.960 . S
H132 C131 0.960 . S
H133 N113 0.862 . S
O134 Co102 1.920 . S
O134 C107 1.289 . S
C135 O127 1.258 . S
C135 O128 1.266 1_554 S
Co136 O139 1.970 . S
Co136 N153 1.989 . S
Co136 O161 1.967 . S
Co136 O168 1.920 . S
Co137 O140 1.966 . S
Co137 N146 2.022 . S
Co137 N154 1.993 . S
Co137 O162 1.941 . S
C138 O139 1.258 . S
C138 O140 1.263 . S
O139 Co136 1.970 . S
O139 C138 1.258 . S
O140 Co137 1.966 . S
O140 C138 1.263 . S
C141 O142 1.235 . S
C141 O168 1.289 . S
O142 C141 1.235 . S
C143 C145 1.400 . S
C143 N146 1.351 . S
C143 C148 1.501 . S
C144 C145 1.387 1_655 S
C144 N147 1.341 . S
C145 C143 1.400 . S
C145 C144 1.387 1_455 S
N146 Co137 2.022 . S
N146 C143 1.351 . S
N146 N147 1.365 1_455 S
N147 C144 1.341 . S
N147 N146 1.365 1_655 S
N147 H167 0.862 . S
C148 C143 1.501 . S
C148 H149 0.961 . S
C148 H150 0.961 . S
C148 H151 0.960 . S
H149 C148 0.961 . S
H150 C148 0.961 . S
H151 C148 0.960 . S
C152 N153 1.342 . S
C152 C156 1.401 . S
C152 C157 1.499 . S
N153 Co136 1.989 . S
N153 C152 1.342 . S
N153 N154 1.388 . S
N154 Co137 1.993 . S
N154 N153 1.388 . S
N154 C155 1.346 . S
C155 N154 1.346 . S
C155 C156 1.396 . S
C155 C165 1.510 . S
C156 C152 1.401 . S
C156 C155 1.396 . S
C157 C152 1.499 . S
C157 H158 0.959 . S
C157 H159 0.960 . S
C157 H160 0.961 . S
H158 C157 0.959 . S
H159 C157 0.960 . S
H160 C157 0.961 . S
O161 Co136 1.967 . S
O161 C169 1.258 . S
O162 Co137 1.941 . S
O162 C169 1.266 . S
H163 C165 0.959 . S
H164 C165 0.961 . S
C165 C155 1.510 . S
C165 H163 0.959 . S
C165 H164 0.961 . S
C165 H166 0.960 . S
H166 C165 0.960 . S
H167 N147 0.862 . S
O168 Co136 1.920 . S
O168 C141 1.289 . S
C169 O161 1.258 . S
C169 O162 1.266 . S
Co170 O173 1.970 . S
Co170 N187 1.989 . S
Co170 O195 1.967 . S
Co170 O202 1.920 . S
Co171 O174 1.966 . S
Co171 N180 2.022 . S
Co171 N188 1.993 . S
Co171 O196 1.941 . S
C172 O173 1.258 . S
C172 O174 1.263 . S
O173 Co170 1.970 . S
O173 C172 1.258 . S
O174 Co171 1.966 . S
O174 C172 1.263 . S
C175 O176 1.235 . S
C175 O202 1.289 . S
O176 C175 1.235 . S
C177 C179 1.400 . S
C177 N180 1.351 . S
C177 C182 1.501 . S
C178 C179 1.387 1_565 S
C178 N181 1.341 . S
C179 C177 1.400 . S
C179 C178 1.387 1_545 S
N180 Co171 2.022 . S
N180 C177 1.351 . S
N180 N181 1.365 1_545 S
N181 C178 1.341 . S
N181 N180 1.365 1_565 S
N181 H201 0.862 . S
C182 C177 1.501 . S
C182 H183 0.961 . S
C182 H184 0.961 . S
C182 H185 0.960 . S
H183 C182 0.961 . S
H184 C182 0.961 . S
H185 C182 0.960 . S
C186 N187 1.342 . S
C186 C190 1.401 . S
C186 C191 1.499 . S
N187 Co170 1.989 . S
N187 C186 1.342 . S
N187 N188 1.388 . S
N188 Co171 1.993 . S
N188 N187 1.388 . S
N188 C189 1.346 . S
C189 N188 1.346 . S
C189 C190 1.396 . S
C189 C199 1.510 . S
C190 C186 1.401 . S
C190 C189 1.396 . S
C191 C186 1.499 . S
C191 H192 0.959 . S
C191 H193 0.960 . S
C191 H194 0.961 . S
H192 C191 0.959 . S
H193 C191 0.960 . S
H194 C191 0.961 . S
O195 Co170 1.967 . S
O195 C203 1.258 . S
O196 Co171 1.941 . S
O196 C203 1.266 . S
H197 C199 0.959 . S
H198 C199 0.961 . S
C199 C189 1.510 . S
C199 H197 0.959 . S
C199 H198 0.961 . S
C199 H200 0.960 . S
H200 C199 0.960 . S
H201 N181 0.862 . S
O202 Co170 1.920 . S
O202 C175 1.289 . S
C203 O195 1.258 . S
C203 O196 1.266 . S
Co204 O207 1.970 . S
Co204 N221 1.989 . S
Co204 O229 1.967 . S
Co204 O236 1.920 . S
Co205 O208 1.966 . S
Co205 N214 2.022 . S
Co205 N222 1.993 . S
Co205 O230 1.941 . S
C206 O207 1.258 . S
C206 O208 1.263 . S
O207 Co204 1.970 . S
O207 C206 1.258 . S
O208 Co205 1.966 . S
O208 C206 1.263 . S
C209 O210 1.235 . S
C209 O236 1.289 . S
O210 C209 1.235 . S
C211 C213 1.400 . S
C211 N214 1.351 . S
C211 C216 1.501 . S
C212 C213 1.387 1_455 S
C212 N215 1.341 . S
C213 C211 1.400 . S
C213 C212 1.387 1_655 S
N214 Co205 2.022 . S
N214 C211 1.351 . S
N214 N215 1.365 1_655 S
N215 C212 1.341 . S
N215 N214 1.365 1_455 S
N215 H235 0.862 . S
C216 C211 1.501 . S
C216 H217 0.961 . S
C216 H218 0.961 . S
C216 H219 0.960 . S
H217 C216 0.961 . S
H218 C216 0.961 . S
H219 C216 0.960 . S
C220 N221 1.342 . S
C220 C224 1.401 . S
C220 C225 1.499 . S
N221 Co204 1.989 . S
N221 C220 1.342 . S
N221 N222 1.388 . S
N222 Co205 1.993 . S
N222 N221 1.388 . S
N222 C223 1.346 . S
C223 N222 1.346 . S
C223 C224 1.396 . S
C223 C233 1.510 . S
C224 C220 1.401 . S
C224 C223 1.396 . S
C225 C220 1.499 . S
C225 H226 0.959 . S
C225 H227 0.960 . S
C225 H228 0.961 . S
H226 C225 0.959 . S
H227 C225 0.960 . S
H228 C225 0.961 . S
O229 Co204 1.967 . S
O229 C237 1.258 . S
O230 Co205 1.941 . S
O230 C237 1.266 . S
H231 C233 0.959 . S
H232 C233 0.961 . S
C233 C223 1.510 . S
C233 H231 0.959 . S
C233 H232 0.961 . S
C233 H234 0.960 . S
H234 C233 0.960 . S
H235 N215 0.862 . S
O236 Co204 1.920 . S
O236 C209 1.289 . S
C237 O229 1.258 . S
C237 O230 1.266 . S
Co238 O241 1.970 . S
Co238 N255 1.989 1_556 S
Co238 O263 1.967 . S
Co238 O270 1.920 . S
Co239 O242 1.966 . S
Co239 N248 2.022 . S
Co239 N256 1.993 . S
Co239 O264 1.941 . S
C240 O241 1.258 1_554 S
C240 O242 1.263 . S
O241 Co238 1.970 . S
O241 C240 1.258 1_556 S
O242 Co239 1.966 . S
O242 C240 1.263 . S
C243 O244 1.235 . S
C243 O270 1.289 . S
O244 C243 1.235 . S
C245 C247 1.400 . S
C245 N248 1.351 . S
C245 C250 1.501 . S
C246 C247 1.387 1_545 S
C246 N249 1.341 . S
C247 C245 1.400 . S
C247 C246 1.387 1_565 S
N248 Co239 2.022 . S
N248 C245 1.351 . S
N248 N249 1.365 1_565 S
N249 C246 1.341 . S
N249 N248 1.365 1_545 S
N249 H269 0.862 . S
C250 C245 1.501 . S
C250 H251 0.961 . S
C250 H252 0.961 . S
C250 H253 0.960 . S
H251 C250 0.961 . S
H252 C250 0.961 . S
H253 C250 0.960 . S
C254 N255 1.342 . S
C254 C258 1.401 . S
C254 C259 1.499 . S
N255 Co238 1.989 1_554 S
N255 C254 1.342 . S
N255 N256 1.388 . S
N256 Co239 1.993 . S
N256 N255 1.388 . S
N256 C257 1.346 . S
C257 N256 1.346 . S
C257 C258 1.396 . S
C257 C267 1.510 . S
C258 C254 1.401 . S
C258 C257 1.396 . S
C259 C254 1.499 . S
C259 H260 0.959 1_554 S
C259 H261 0.960 . S
C259 H262 0.961 . S
H260 C259 0.959 1_556 S
H261 C259 0.960 . S
H262 C259 0.961 . S
O263 Co238 1.967 . S
O263 C271 1.258 . S
O264 Co239 1.941 . S
O264 C271 1.266 1_554 S
H265 C267 0.959 . S
H266 C267 0.961 . S
C267 C257 1.510 . S
C267 H265 0.959 . S
C267 H266 0.961 . S
C267 H268 0.960 . S
H268 C267 0.960 . S
H269 N249 0.862 . S
O270 Co238 1.920 . S
O270 C243 1.289 . S
C271 O263 1.258 . S
C271 O264 1.266 1_556 S
C272 C273 1.363 . S
C272 C278 1.379 . S
C272 N280 1.356 . S
C273 C272 1.363 . S
C273 C279 1.363 . S
C274 C275 1.363 . S
C274 C279 1.379 . S
C274 N281 1.356 . S
C275 C274 1.363 . S
C275 C278 1.363 . S
N276 C278 1.356 . S
N276 H288 0.984 . S
N276 H289 0.985 . S
N277 C279 1.356 . S
N277 H282 0.984 . S
N277 H283 0.985 . S
C278 C272 1.379 . S
C278 C275 1.363 . S
C278 N276 1.356 . S
C279 C273 1.363 . S
C279 C274 1.379 . S
C279 N277 1.356 . S
N280 C272 1.356 . S
N280 H286 0.984 . S
N280 H287 0.984 . S
N281 C274 1.356 . S
N281 H284 0.984 . S
N281 H285 0.985 . S
H282 N277 0.984 . S
H283 N277 0.985 . S
H284 N281 0.984 . S
H285 N281 0.985 . S
H286 N280 0.984 . S
H287 N280 0.984 . S
H288 N276 0.984 . S
H289 N276 0.985 . S
C290 C291 1.363 . S
C290 C296 1.379 . S
C290 N298 1.356 . S
C291 C290 1.363 . S
C291 C297 1.363 . S
C292 C293 1.363 . S
C292 C297 1.379 . S
C292 N299 1.356 . S
C293 C292 1.363 . S
C293 C296 1.363 . S
N294 C296 1.356 . S
N294 H306 0.984 . S
N294 H307 0.985 . S
N295 C297 1.356 . S
N295 H300 0.984 . S
N295 H301 0.985 . S
C296 C290 1.379 . S
C296 C293 1.363 . S
C296 N294 1.356 . S
C297 C291 1.363 . S
C297 C292 1.379 . S
C297 N295 1.356 . S
N298 C290 1.356 . S
N298 H304 0.984 . S
N298 H305 0.984 . S
N299 C292 1.356 . S
N299 H302 0.984 . S
N299 H303 0.985 . S
H300 N295 0.984 . S
H301 N295 0.985 . S
H302 N299 0.984 . S
H303 N299 0.985 . S
H304 N298 0.984 . S
H305 N298 0.984 . S
H306 N294 0.984 . S
H307 N294 0.985 . S
C308 C309 1.363 . S
C308 C314 1.379 . S
C308 N316 1.356 . S
C309 C308 1.363 . S
C309 C315 1.363 . S
C310 C311 1.363 . S
C310 C315 1.379 . S
C310 N317 1.356 . S
C311 C310 1.363 . S
C311 C314 1.363 . S
N312 C314 1.356 . S
N312 H324 0.984 . S
N312 H325 0.985 . S
N313 C315 1.356 . S
N313 H318 0.984 . S
N313 H319 0.985 . S
C314 C308 1.379 . S
C314 C311 1.363 . S
C314 N312 1.356 . S
C315 C309 1.363 . S
C315 C310 1.379 . S
C315 N313 1.356 . S
N316 C308 1.356 . S
N316 H322 0.984 . S
N316 H323 0.984 . S
N317 C310 1.356 . S
N317 H320 0.984 . S
N317 H321 0.985 . S
H318 N313 0.984 . S
H319 N313 0.985 . S
H320 N317 0.984 . S
H321 N317 0.985 . S
H322 N316 0.984 . S
H323 N316 0.984 . S
H324 N312 0.984 . S
H325 N312 0.985 . S
C326 C327 1.363 1_554 S
C326 C332 1.379 . S
C326 N334 1.356 . S
C327 C326 1.363 1_556 S
C327 C333 1.363 . S
C328 C329 1.363 1_556 S
C328 C333 1.379 . S
C328 N335 1.356 . S
C329 C328 1.363 1_554 S
C329 C332 1.363 . S
N330 C332 1.356 . S
N330 H342 0.984 . S
N330 H343 0.985 . S
N331 C333 1.356 . S
N331 H336 0.984 . S
N331 H337 0.985 . S
C332 C326 1.379 . S
C332 C329 1.363 . S
C332 N330 1.356 . S
C333 C327 1.363 . S
C333 C328 1.379 . S
C333 N331 1.356 . S
N334 C326 1.356 . S
N334 H340 0.984 . S
N334 H341 0.984 . S
N335 C328 1.356 . S
N335 H338 0.984 . S
N335 H339 0.985 . S
H336 N331 0.984 . S
H337 N331 0.985 . S
H338 N335 0.984 . S
H339 N335 0.985 . S
H340 N334 0.984 . S
H341 N334 0.984 . S
H342 N330 0.984 . S
H343 N330 0.985 . S
C344 C345 1.363 . S
C344 C350 1.379 . S
C344 N352 1.356 . S
C345 C344 1.363 . S
C345 C351 1.363 . S
C346 C347 1.363 . S
C346 C351 1.379 . S
C346 N353 1.356 . S
C347 C346 1.363 . S
C347 C350 1.363 . S
N348 C350 1.356 . S
N348 H360 0.984 . S
N348 H361 0.985 . S
N349 C351 1.356 . S
N349 H354 0.984 . S
N349 H355 0.985 . S
C350 C344 1.379 . S
C350 C347 1.363 . S
C350 N348 1.356 . S
C351 C345 1.363 . S
C351 C346 1.379 . S
C351 N349 1.356 . S
N352 C344 1.356 . S
N352 H358 0.984 . S
N352 H359 0.984 . S
N353 C346 1.356 . S
N353 H356 0.984 . S
N353 H357 0.985 . S
H354 N349 0.984 . S
H355 N349 0.985 . S
H356 N353 0.984 . S
H357 N353 0.985 . S
H358 N352 0.984 . S
H359 N352 0.984 . S
H360 N348 0.984 . S
H361 N348 0.985 . S
C362 C363 1.363 . S
C362 C368 1.379 . S
C362 N370 1.356 . S
C363 C362 1.363 . S
C363 C369 1.363 . S
C364 C365 1.363 . S
C364 C369 1.379 . S
C364 N371 1.356 . S
C365 C364 1.363 . S
C365 C368 1.363 . S
N366 C368 1.356 . S
N366 H378 0.984 . S
N366 H379 0.985 . S
N367 C369 1.356 . S
N367 H372 0.984 . S
N367 H373 0.985 . S
C368 C362 1.379 . S
C368 C365 1.363 . S
C368 N366 1.356 . S
C369 C363 1.363 . S
C369 C364 1.379 . S
C369 N367 1.356 . S
N370 C362 1.356 . S
N370 H376 0.984 . S
N370 H377 0.984 . S
N371 C364 1.356 . S
N371 H374 0.984 . S
N371 H375 0.985 . S
H372 N367 0.984 . S
H373 N367 0.985 . S
H374 N371 0.984 . S
H375 N371 0.985 . S
H376 N370 0.984 . S
H377 N370 0.984 . S
H378 N366 0.984 . S
H379 N366 0.985 . S
C380 C381 1.363 . S
C380 C386 1.379 . S
C380 N388 1.356 . S
C381 C380 1.363 . S
C381 C387 1.363 . S
C382 C383 1.363 . S
C382 C387 1.379 . S
C382 N389 1.356 . S
C383 C382 1.363 . S
C383 C386 1.363 . S
N384 C386 1.356 . S
N384 H396 0.984 . S
N384 H397 0.985 . S
N385 C387 1.356 . S
N385 H390 0.984 . S
N385 H391 0.985 . S
C386 C380 1.379 . S
C386 C383 1.363 . S
C386 N384 1.356 . S
C387 C381 1.363 . S
C387 C382 1.379 . S
C387 N385 1.356 . S
N388 C380 1.356 . S
N388 H394 0.984 . S
N388 H395 0.984 . S
N389 C382 1.356 . S
N389 H392 0.984 . S
N389 H393 0.985 . S
H390 N385 0.984 . S
H391 N385 0.985 . S
H392 N389 0.984 . S
H393 N389 0.985 . S
H394 N388 0.984 . S
H395 N388 0.984 . S
H396 N384 0.984 . S
H397 N384 0.985 . S
C398 C399 1.363 . S
C398 C404 1.379 . S
C398 N406 1.356 . S
C399 C398 1.363 . S
C399 C405 1.363 . S
C400 C401 1.363 . S
C400 C405 1.379 . S
C400 N407 1.356 . S
C401 C400 1.363 . S
C401 C404 1.363 . S
N402 C404 1.356 . S
N402 H414 0.984 . S
N402 H415 0.985 . S
N403 C405 1.356 . S
N403 H408 0.984 . S
N403 H409 0.985 . S
C404 C398 1.379 . S
C404 C401 1.363 . S
C404 N402 1.356 . S
C405 C399 1.363 . S
C405 C400 1.379 . S
C405 N403 1.356 . S
N406 C398 1.356 . S
N406 H412 0.984 . S
N406 H413 0.984 . S
N407 C400 1.356 . S
N407 H410 0.984 . S
N407 H411 0.985 . S
H408 N403 0.984 . S
H409 N403 0.985 . S
H410 N407 0.984 . S
H411 N407 0.985 . S
H412 N406 0.984 . S
H413 N406 0.984 . S
H414 N402 0.984 . S
H415 N402 0.985 . S
C416 C417 1.363 . S
C416 C422 1.379 1_554 S
C416 N424 1.356 . S
C417 C416 1.363 . S
C417 C423 1.363 1_455 S
C418 C419 1.363 . S
C418 C423 1.379 1_556 S
C418 N425 1.356 . S
C419 C418 1.363 . S
C419 C422 1.363 1_655 S
N420 C422 1.356 . S
N420 H432 0.984 . S
N420 H433 0.985 . S
N421 C423 1.356 . S
N421 H426 0.984 . S
N421 H427 0.985 . S
C422 C416 1.379 1_556 S
C422 C419 1.363 1_455 S
C422 N420 1.356 . S
C423 C417 1.363 1_655 S
C423 C418 1.379 1_554 S
C423 N421 1.356 . S
N424 C416 1.356 . S
N424 H430 0.984 . S
N424 H431 0.984 . S
N425 C418 1.356 . S
N425 H428 0.984 . S
N425 H429 0.985 . S
H426 N421 0.984 . S
H427 N421 0.985 . S
H428 N425 0.984 . S
H429 N425 0.985 . S
H430 N424 0.984 . S
H431 N424 0.984 . S
H432 N420 0.984 . S
H433 N420 0.985 . S
C434 C435 1.363 . S
C434 C440 1.379 . S
C434 N442 1.356 . S
C435 C434 1.363 . S
C435 C441 1.363 1_565 S
C436 C437 1.363 . S
C436 C441 1.379 . S
C436 N443 1.356 . S
C437 C436 1.363 . S
C437 C440 1.363 1_545 S
N438 C440 1.356 . S
N438 H450 0.984 . S
N438 H451 0.985 . S
N439 C441 1.356 . S
N439 H444 0.984 . S
N439 H445 0.985 . S
C440 C434 1.379 . S
C440 C437 1.363 1_565 S
C440 N438 1.356 . S
C441 C435 1.363 1_545 S
C441 C436 1.379 . S
C441 N439 1.356 . S
N442 C434 1.356 . S
N442 H448 0.984 . S
N442 H449 0.984 . S
N443 C436 1.356 . S
N443 H446 0.984 . S
N443 H447 0.985 . S
H444 N439 0.984 . S
H445 N439 0.985 . S
H446 N443 0.984 . S
H447 N443 0.985 . S
H448 N442 0.984 . S
H449 N442 0.984 . S
H450 N438 0.984 . S
H451 N438 0.985 . S
C452 C453 1.363 . S
C452 C458 1.379 . S
C452 N460 1.356 . S
C453 C452 1.363 . S
C453 C459 1.363 1_655 S
C454 C455 1.363 . S
C454 C459 1.379 . S
C454 N461 1.356 . S
C455 C454 1.363 . S
C455 C458 1.363 1_455 S
N456 C458 1.356 . S
N456 H468 0.984 . S
N456 H469 0.985 . S
N457 C459 1.356 . S
N457 H462 0.984 . S
N457 H463 0.985 . S
C458 C452 1.379 . S
C458 C455 1.363 1_655 S
C458 N456 1.356 . S
C459 C453 1.363 1_455 S
C459 C454 1.379 . S
C459 N457 1.356 . S
N460 C452 1.356 . S
N460 H466 0.984 . S
N460 H467 0.984 . S
N461 C454 1.356 . S
N461 H464 0.984 . S
N461 H465 0.985 . S
H462 N457 0.984 . S
H463 N457 0.985 . S
H464 N461 0.984 . S
H465 N461 0.985 . S
H466 N460 0.984 . S
H467 N460 0.984 . S
H468 N456 0.984 . S
H469 N456 0.985 . S
C470 C471 1.363 1_565 S
C470 C476 1.379 . S
C470 N478 1.356 . S
C471 C470 1.363 1_545 S
C471 C477 1.363 . S
C472 C473 1.363 1_545 S
C472 C477 1.379 . S
C472 N479 1.356 . S
C473 C472 1.363 1_565 S
C473 C476 1.363 . S
N474 C476 1.356 . S
N474 H486 0.984 . S
N474 H487 0.985 . S
N475 C477 1.356 . S
N475 H480 0.984 . S
N475 H481 0.985 . S
C476 C470 1.379 . S
C476 C473 1.363 . S
C476 N474 1.356 . S
C477 C471 1.363 . S
C477 C472 1.379 . S
C477 N475 1.356 . S
N478 C470 1.356 . S
N478 H484 0.984 . S
N478 H485 0.984 . S
N479 C472 1.356 . S
N479 H482 0.984 . S
N479 H483 0.985 . S
H480 N475 0.984 . S
H481 N475 0.985 . S
H482 N479 0.984 . S
H483 N479 0.985 . S
H484 N478 0.984 . S
H485 N478 0.984 . S
H486 N474 0.984 . S
H487 N474 0.985 . S
C488 C489 1.363 . S
C488 C494 1.379 . S
C488 N496 1.356 . S
C489 C488 1.363 . S
C489 C495 1.363 . S
C490 C491 1.363 . S
C490 C495 1.379 . S
C490 N497 1.356 . S
C491 C490 1.363 . S
C491 C494 1.363 . S
N492 C494 1.356 . S
N492 H504 0.985 1_545 S
N492 H505 0.985 1_545 S
N493 C495 1.356 . S
N493 H498 0.984 . S
N493 H499 0.985 . S
C494 C488 1.379 . S
C494 C491 1.363 . S
C494 N492 1.356 . S
C495 C489 1.363 . S
C495 C490 1.379 . S
C495 N493 1.356 . S
N496 C488 1.356 . S
N496 H502 0.984 . S
N496 H503 0.984 . S
N497 C490 1.356 . S
N497 H500 0.984 1_554 S
N497 H501 0.985 1_554 S
H498 N493 0.984 . S
H499 N493 0.985 . S
H500 N497 0.984 1_556 S
H501 N497 0.985 1_556 S
H502 N496 0.984 . S
H503 N496 0.984 . S
H504 N492 0.985 1_565 S
H505 N492 0.985 1_565 S
C506 C507 1.363 . S
C506 C512 1.379 . S
C506 N514 1.356 . S
C507 C506 1.363 . S
C507 C513 1.363 . S
C508 C509 1.363 . S
C508 C513 1.379 . S
C508 N515 1.356 . S
C509 C508 1.363 . S
C509 C512 1.363 . S
N510 C512 1.356 . S
N510 H522 0.984 . S
N510 H523 0.985 . S
N511 C513 1.356 . S
N511 H516 0.984 1_655 S
N511 H517 0.985 . S
C512 C506 1.379 . S
C512 C509 1.363 . S
C512 N510 1.356 . S
C513 C507 1.363 . S
C513 C508 1.379 . S
C513 N511 1.356 . S
N514 C506 1.356 . S
N514 H520 0.984 . S
N514 H521 0.984 . S
N515 C508 1.356 . S
N515 H518 0.984 . S
N515 H519 0.985 . S
H516 N511 0.984 1_455 S
H517 N511 0.985 . S
H518 N515 0.984 . S
H519 N515 0.985 . S
H520 N514 0.984 . S
H521 N514 0.984 . S
H522 N510 0.984 . S
H523 N510 0.985 . S
C524 C525 1.363 . S
C524 C530 1.379 . S
C524 N532 1.356 1_565 S
C525 C524 1.363 . S
C525 C531 1.363 . S
C526 C527 1.363 . S
C526 C531 1.379 . S
C526 N533 1.356 . S
C527 C526 1.363 . S
C527 C530 1.363 . S
N528 C530 1.356 . S
N528 H540 0.984 . S
N528 H541 0.985 . S
N529 C531 1.356 . S
N529 H534 0.984 . S
N529 H535 0.985 . S
C530 C524 1.379 . S
C530 C527 1.363 . S
C530 N528 1.356 . S
C531 C525 1.363 . S
C531 C526 1.379 . S
C531 N529 1.356 . S
N532 C524 1.356 1_545 S
N532 H538 0.984 . S
N532 H539 0.984 . S
N533 C526 1.356 . S
N533 H536 0.984 . S
N533 H537 0.985 . S
H534 N529 0.984 . S
H535 N529 0.985 . S
H536 N533 0.984 . S
H537 N533 0.985 . S
H538 N532 0.984 . S
H539 N532 0.984 . S
H540 N528 0.984 . S
H541 N528 0.985 . S
C542 C543 1.363 . S
C542 C548 1.379 . S
C542 N550 1.356 . S
C543 C542 1.363 . S
C543 C549 1.363 . S
C544 C545 1.363 . S
C544 C549 1.379 . S
C544 N551 1.356 . S
C545 C544 1.363 . S
C545 C548 1.363 . S
N546 C548 1.356 . S
N546 H558 0.984 . S
N546 H559 0.985 . S
N547 C549 1.369 . S
N547 H552 0.977 1_455 S
N547 H553 0.979 1_455 S
C548 C542 1.379 . S
C548 C545 1.363 . S
C548 N546 1.356 . S
C549 C543 1.363 . S
C549 C544 1.379 . S
C549 N547 1.369 . S
N550 C542 1.356 . S
N550 H556 0.984 . S
N550 H557 0.984 . S
N551 C544 1.356 . S
N551 H554 0.984 . S
N551 H555 0.985 . S
H552 N547 0.977 1_655 S
H553 N547 0.979 1_655 S
H554 N551 0.984 . S
H555 N551 0.985 . S
H556 N550 0.984 . S
H557 N550 0.984 . S
H558 N546 0.984 . S
H559 N546 0.985 . S
C560 C561 1.363 . S
C560 C566 1.379 . S
C560 N568 1.356 . S
C561 C560 1.363 . S
C561 C567 1.363 . S
C562 C563 1.363 . S
C562 C567 1.379 . S
C562 N569 1.356 . S
C563 C562 1.363 . S
C563 C566 1.363 . S
N564 C566 1.356 . S
N564 H576 0.984 . S
N564 H577 0.985 1_565 S
N565 C567 1.356 . S
N565 H570 0.984 . S
N565 H571 0.985 . S
C566 C560 1.379 . S
C566 C563 1.363 . S
C566 N564 1.356 . S
C567 C561 1.363 . S
C567 C562 1.379 . S
C567 N565 1.356 . S
N568 C560 1.356 . S
N568 H574 0.984 . S
N568 H575 0.984 . S
N569 C562 1.356 . S
N569 H572 0.984 . S
N569 H573 0.985 . S
H570 N565 0.984 . S
H571 N565 0.985 . S
H572 N569 0.984 . S
H573 N569 0.985 . S
H574 N568 0.984 . S
H575 N568 0.984 . S
H576 N564 0.984 . S
H577 N564 0.985 1_545 S
C578 C579 1.363 . S
C578 C584 1.379 . S
C578 N586 1.356 . S
C579 C578 1.363 . S
C579 C585 1.363 . S
C580 C581 1.363 . S
C580 C585 1.379 . S
C580 N587 1.356 . S
C581 C580 1.363 . S
C581 C584 1.363 . S
N582 C584 1.356 . S
N582 H594 0.984 . S
N582 H595 0.985 . S
N583 C585 1.356 . S
N583 H588 0.984 . S
N583 H589 0.985 . S
C584 C578 1.379 . S
C584 C581 1.363 . S
C584 N582 1.356 . S
C585 C579 1.363 . S
C585 C580 1.379 . S
C585 N583 1.356 . S
N586 C578 1.356 . S
N586 H592 0.984 . S
N586 H593 0.984 . S
N587 C580 1.356 . S
N587 H590 0.984 . S
N587 H591 0.985 . S
H588 N583 0.984 . S
H589 N583 0.985 . S
H590 N587 0.984 . S
H591 N587 0.985 . S
H592 N586 0.984 . S
H593 N586 0.984 . S
H594 N582 0.984 . S
H595 N582 0.985 . S
C596 C597 1.363 . S
C596 C602 1.379 . S
C596 N604 1.356 . S
C597 C596 1.363 . S
C597 C603 1.363 . S
C598 C599 1.363 . S
C598 C603 1.379 . S
C598 N605 1.356 . S
C599 C598 1.363 . S
C599 C602 1.363 . S
N600 C602 1.356 . S
N600 H612 0.984 1_556 S
N600 H613 0.985 1_556 S
N601 C603 1.356 . S
N601 H606 0.984 . S
N601 H607 0.985 . S
C602 C596 1.379 . S
C602 C599 1.363 . S
C602 N600 1.356 . S
C603 C597 1.363 . S
C603 C598 1.379 . S
C603 N601 1.356 . S
N604 C596 1.356 . S
N604 H610 0.984 . S
N604 H611 0.984 . S
N605 C598 1.356 . S
N605 H608 0.984 1_545 S
N605 H609 0.985 . S
H606 N601 0.984 . S
H607 N601 0.985 . S
H608 N605 0.984 1_565 S
H609 N605 0.985 . S
H610 N604 0.984 . S
H611 N604 0.984 . S
H612 N600 0.984 1_554 S
H613 N600 0.985 1_554 S
C614 C615 1.363 . S
C614 C620 1.379 . S
C614 N622 1.356 1_655 S
C615 C614 1.363 . S
C615 C621 1.363 . S
C616 C617 1.363 . S
C616 C621 1.379 . S
C616 N623 1.356 . S
C617 C616 1.363 . S
C617 C620 1.363 . S
N618 C620 1.356 . S
N618 H630 0.984 . S
N618 H631 0.985 . S
N619 C621 1.356 . S
N619 H624 0.984 . S
N619 H625 0.985 . S
C620 C614 1.379 . S
C620 C617 1.363 . S
C620 N618 1.356 . S
C621 C615 1.363 . S
C621 C616 1.379 . S
C621 N619 1.356 . S
N622 C614 1.356 1_455 S
N622 H628 0.984 . S
N622 H629 0.984 . S
N623 C616 1.356 . S
N623 H626 0.984 . S
N623 H627 0.985 . S
H624 N619 0.984 . S
H625 N619 0.985 . S
H626 N623 0.984 . S
H627 N623 0.985 . S
H628 N622 0.984 . S
H629 N622 0.984 . S
H630 N618 0.984 . S
H631 N618 0.985 . S
C273 C138 1.148 . S
C275 C2 1.148 . S
C291 C36 1.147 . S
C293 C172 1.147 . S
C309 C70 1.148 . S
C311 C206 1.148 . S
C327 C104 1.148 . S
C329 C240 1.148 . S
C345 C175 0.837 . S
C347 C5 0.837 . S
C363 C39 0.837 . S
C365 C209 0.837 . S
C381 C243 0.837 . S
C383 C73 0.837 . S
C399 C107 0.837 . S
C401 C141 0.837 . S
C417 C9 0.881 . S
C419 C213 0.881 . S
C435 C247 0.881 . S
C437 C43 0.881 . S
C453 C77 0.881 . S
C455 C145 0.881 . S
C471 C179 0.881 . S
C473 C111 0.881 . S
C489 C20 2.359 . S
C491 C135 2.366 1_545 S
C507 C33 2.366 1_655 S
C509 C54 2.359 . S
C525 C67 2.366 1_565 S
C527 C88 2.359 . S
C543 C101 2.366 1_455 S
C545 C122 2.359 . S
C561 C156 2.359 . S
C563 C203 2.366 1_565 S
C579 C190 2.359 . S
C581 C237 2.366 1_455 S
C597 C224 2.359 . S
C599 C271 2.366 1_545 S
C615 C169 2.366 1_655 S
C617 C258 2.359 . S
