# Generated by pormake.
# Topology mmt, (4)-cn, num edge types: 1
# Building blocks:
#     Node 0, Type 0, BuildingBlock: KUFVIS_clean_sbu_0, # of connection points: 4
#     Node 1, Type 0, BuildingBlock: KUFVIS_clean_sbu_0, # of connection points: 4
#     Node 2, Type 0, BuildingBlock: KUFVIS_clean_sbu_0, # of connection points: 4
#     Node 3, Type 0, BuildingBlock: KUFVIS_clean_sbu_0, # of connection points: 4
#     Node 4, Type 0, BuildingBlock: KUFVIS_clean_sbu_0, # of connection points: 4
#     Node 5, Type 0, BuildingBlock: KUFVIS_clean_sbu_0, # of connection points: 4
#     Node 6, Type 0, BuildingBlock: KUFVIS_clean_sbu_0, # of connection points: 4
#     Node 7, Type 0, BuildingBlock: KUFVIS_clean_sbu_0, # of connection points: 4
#     Edge 8, Type (0, 0), BuildingBlock: UVAHIK_clean_linker_0, # of connection points: 2
#     Edge 9, Type (0, 0), BuildingBlock: UVAHIK_clean_linker_0, # of connection points: 2
#     Edge 10, Type (0, 0), BuildingBlock: UVAHIK_clean_linker_0, # of connection points: 2
#     Edge 11, Type (0, 0), BuildingBlock: UVAHIK_clean_linker_0, # of connection points: 2
#     Edge 12, Type (0, 0), BuildingBlock: UVAHIK_clean_linker_0, # of connection points: 2
#     Edge 13, Type (0, 0), BuildingBlock: UVAHIK_clean_linker_0, # of connection points: 2
#     Edge 14, Type (0, 0), BuildingBlock: UVAHIK_clean_linker_0, # of connection points: 2
#     Edge 15, Type (0, 0), BuildingBlock: UVAHIK_clean_linker_0, # of connection points: 2
#     Edge 16, Type (0, 0), BuildingBlock: UVAHIK_clean_linker_0, # of connection points: 2
#     Edge 17, Type (0, 0), BuildingBlock: UVAHIK_clean_linker_0, # of connection points: 2
#     Edge 18, Type (0, 0), BuildingBlock: UVAHIK_clean_linker_0, # of connection points: 2
#     Edge 19, Type (0, 0), BuildingBlock: UVAHIK_clean_linker_0, # of connection points: 2
#     Edge 20, Type (0, 0), BuildingBlock: UVAHIK_clean_linker_0, # of connection points: 2
#     Edge 21, Type (0, 0), BuildingBlock: UVAHIK_clean_linker_0, # of connection points: 2
#     Edge 22, Type (0, 0), BuildingBlock: UVAHIK_clean_linker_0, # of connection points: 2
#     Edge 23, Type (0, 0), BuildingBlock: UVAHIK_clean_linker_0, # of connection points: 2
# Relax obj value: 0.035
# Max RMSD: 0.059
# Mean RMSD: 0.059
data_MOF--net-mmt--node1-KUFVIS_clean_sbu_0--edge1-UVAHIK_clean_linker_0
_symmetry_space_group_name_H-M    P1
_symmetry_Int_Tables_number       1
_symmetry_cell_setting            triclinic
loop_
_symmetry_equiv_pos_as_xyz
'x, y, z'
_cell_length_a     28.757242
_cell_length_b     48.284332
_cell_length_c     56.599069
_cell_angle_alpha  89.99685
_cell_angle_beta   89.999795
_cell_angle_gamma 89.999625
loop_
_atom_site_label
_atom_site_type_symbol
_atom_site_fract_x
_atom_site_fract_y
_atom_site_fract_z
_atom_type_partial_charge
Mn0 Mn 0.09343 0.56908 0.35098 0.0
Mn1 Mn 0.07023 0.60539 0.30135 0.0
C2 C 0.03984 0.55233 0.32416 0.0
C3 C 0.07831 0.56001 0.39073 0.0
C4 C 0.15692 0.57009 0.30775 0.0
O5 O 0.1219 0.60689 0.35786 0.0
O6 O 0.09798 0.63036 0.32557 0.0
C7 C 0.99577 0.64134 0.3204 0.0
N8 N 0.0106 0.62255 0.30412 0.0
C9 C 0.9362 0.62277 0.28467 0.0
C10 C 0.9203 0.64239 0.30105 0.0
C11 C 0.95018 0.65164 0.31904 0.0
C12 C 0.98203 0.61333 0.28686 0.0
H13 H 0.01849 0.6483 0.33436 0.0
C14 C 0.11818 0.62907 0.34573 0.0
O15 O 0.11789 0.55343 0.38117 0.0
O16 O 0.04864 0.57293 0.37747 0.0
N17 N 0.04303 0.58417 0.27633 0.0
C18 C 0.06315 0.56442 0.26248 0.0
C19 C 0.03753 0.55257 0.24394 0.0
C20 C 0.99172 0.5613 0.23967 0.0
C21 C 0.97202 0.58198 0.25389 0.0
C22 C 0.99937 0.59322 0.27199 0.0
H23 H 0.09835 0.55762 0.26565 0.0
O24 O 0.0587 0.53592 0.33953 0.0
O25 O 0.05188 0.57827 0.32534 0.0
O26 O 0.14677 0.56062 0.32817 0.0
O27 O 0.13158 0.5876 0.29668 0.0
C28 C 0.92605 0.59152 0.25109 0.0
C29 C 0.90811 0.61185 0.26651 0.0
H30 H 0.88509 0.65029 0.30013 0.0
H31 H 0.93804 0.66661 0.33186 0.0
H32 H 0.05301 0.53665 0.23302 0.0
H33 H 0.97191 0.5519 0.2255 0.0
H34 H 0.904 0.58309 0.23735 0.0
H35 H 0.87252 0.61875 0.26438 0.0
Mn36 Mn 0.40477 0.93684 0.35176 0.0
Mn37 Mn 0.42654 0.89981 0.30233 0.0
C38 C 0.4587 0.95273 0.32475 0.0
C39 C 0.42033 0.94615 0.39143 0.0
C40 C 0.34137 0.9364 0.30839 0.0
O41 O 0.37519 0.89945 0.359 0.0
O42 O 0.39702 0.87563 0.32658 0.0
C43 C 0.49864 0.8626 0.32195 0.0
N44 N 0.48517 0.88157 0.30552 0.0
C45 C 0.5599 0.87979 0.28645 0.0
C46 C 0.57443 0.86002 0.30303 0.0
C47 C 0.5437 0.85145 0.3209 0.0
C48 C 0.51456 0.8901 0.28835 0.0
H49 H 0.47522 0.8561 0.33579 0.0
C50 C 0.37728 0.87723 0.34683 0.0
O51 O 0.38092 0.95307 0.38186 0.0
O52 O 0.44955 0.9328 0.37823 0.0
N53 N 0.45525 0.92019 0.27724 0.0
C54 C 0.4363 0.94 0.26304 0.0
C55 C 0.46281 0.95112 0.24448 0.0
C56 C 0.50828 0.94156 0.24055 0.0
C57 C 0.52672 0.9208 0.25511 0.0
C58 C 0.49852 0.91032 0.27321 0.0
H59 H 0.40136 0.94742 0.26593 0.0
O60 O 0.44038 0.96949 0.34003 0.0
O61 O 0.44596 0.92692 0.32614 0.0
O62 O 0.35153 0.94563 0.3289 0.0
O63 O 0.36631 0.9187 0.29732 0.0
C64 C 0.57224 0.9104 0.25264 0.0
C65 C 0.58886 0.88997 0.26833 0.0
H66 H 0.60922 0.85145 0.30234 0.0
H67 H 0.55476 0.83634 0.33385 0.0
H68 H 0.44829 0.9671 0.23329 0.0
H69 H 0.52879 0.9504 0.22638 0.0
H70 H 0.59494 0.91823 0.2389 0.0
H71 H 0.62411 0.88239 0.26643 0.0
Mn72 Mn 0.59261 0.43547 0.1515 0.0
Mn73 Mn 0.56983 0.40102 0.20216 0.0
C74 C 0.53963 0.45328 0.17811 0.0
C75 C 0.57726 0.44369 0.11165 0.0
C76 C 0.65607 0.43625 0.19495 0.0
O77 O 0.62 0.39726 0.14514 0.0
O78 O 0.59926 0.37566 0.1788 0.0
C79 C 0.49747 0.36326 0.18356 0.0
N80 N 0.51094 0.38299 0.19933 0.0
C81 C 0.43584 0.38258 0.21809 0.0
C82 C 0.42126 0.36211 0.20215 0.0
C83 C 0.45219 0.35246 0.18478 0.0
C84 C 0.4814 0.39252 0.21604 0.0
H85 H 0.52107 0.35588 0.17012 0.0
C86 C 0.6181 0.37579 0.15827 0.0
O87 O 0.61707 0.45018 0.12099 0.0
O88 O 0.54742 0.43132 0.1252 0.0
N89 N 0.54115 0.42261 0.22649 0.0
C90 C 0.56033 0.44282 0.2402 0.0
C91 C 0.53376 0.4549 0.25829 0.0
C92 C 0.488 0.44588 0.26228 0.0
C93 C 0.46933 0.42469 0.24825 0.0
C94 C 0.49759 0.41327 0.23061 0.0
H95 H 0.59551 0.44981 0.23726 0.0
O96 O 0.55878 0.46915 0.16242 0.0
O97 O 0.55113 0.42722 0.17746 0.0
O98 O 0.64655 0.44424 0.17399 0.0
O99 O 0.63025 0.41971 0.20676 0.0
C100 C 0.42355 0.41474 0.25084 0.0
C101 C 0.40678 0.39376 0.23573 0.0
H102 H 0.38632 0.35379 0.20298 0.0
H103 H 0.44111 0.33677 0.17234 0.0
H104 H 0.54846 0.47119 0.26909 0.0
H105 H 0.46746 0.45543 0.2761 0.0
H106 H 0.40079 0.4233 0.26423 0.0
H107 H 0.37137 0.38649 0.23773 0.0
Mn108 Mn 0.90531 0.06908 0.15117 0.0
Mn109 Mn 0.92724 0.10381 0.20179 0.0
C110 C 0.95851 0.05169 0.17789 0.0
C111 C 0.92116 0.06086 0.11135 0.0
C112 C 0.84163 0.06802 0.19453 0.0
O113 O 0.87721 0.1071 0.1447 0.0
O114 O 0.89761 0.12892 0.17832 0.0
C115 C 0.99916 0.14189 0.18323 0.0
N116 N 0.98586 0.12216 0.19904 0.0
C117 C 0.06075 0.1231 0.21799 0.0
C118 C 0.07515 0.14358 0.20202 0.0
C119 C 0.04425 0.15297 0.18453 0.0
C120 C 0.01539 0.11288 0.21585 0.0
H121 H 0.97557 0.14907 0.16971 0.0
C122 C 0.87881 0.12862 0.15778 0.0
O123 O 0.8814 0.05411 0.12062 0.0
O124 O 0.95061 0.07348 0.12495 0.0
N125 N 0.95606 0.08245 0.22623 0.0
C126 C 0.9371 0.06218 0.23994 0.0
C127 C 0.96368 0.05034 0.25815 0.0
C128 C 0.00924 0.05966 0.26224 0.0
C129 C 0.02768 0.08091 0.24819 0.0
C130 C 0.99941 0.09208 0.23044 0.0
H131 H 0.90207 0.05495 0.23693 0.0
O132 O 0.93976 0.03566 0.1622 0.0
O133 O 0.9465 0.07767 0.17717 0.0
O134 O 0.85141 0.06 0.1736 0.0
O135 O 0.86709 0.08479 0.20631 0.0
C136 C 0.07325 0.09115 0.25087 0.0
C137 C 0.08983 0.11217 0.23574 0.0
H138 H 0.10995 0.15212 0.20292 0.0
H139 H 0.05519 0.16867 0.17207 0.0
H140 H 0.94915 0.034 0.26895 0.0
H141 H 0.02978 0.0503 0.27615 0.0
H142 H 0.09602 0.08278 0.26435 0.0
H143 H 0.12509 0.11966 0.23781 0.0
Mn144 Mn 0.90827 0.43566 0.65117 0.0
Mn145 Mn 0.93067 0.40111 0.70183 0.0
C146 C 0.96155 0.45321 0.67775 0.0
C147 C 0.92374 0.44382 0.61131 0.0
C148 C 0.8449 0.43677 0.69465 0.0
O149 O 0.88034 0.39757 0.64482 0.0
O150 O 0.90089 0.3759 0.67848 0.0
C151 C 0.00252 0.36303 0.68321 0.0
N152 N 0.98931 0.38281 0.69899 0.0
C153 C 0.06439 0.38202 0.71776 0.0
C154 C 0.0787 0.36149 0.70181 0.0
C155 C 0.04765 0.35201 0.68443 0.0
C156 C 0.01897 0.39218 0.71571 0.0
H157 H 0.97882 0.35577 0.66977 0.0
C158 C 0.88203 0.3761 0.65796 0.0
O159 O 0.88401 0.4505 0.62065 0.0
O160 O 0.95338 0.43129 0.62486 0.0
N161 N 0.95965 0.42258 0.72615 0.0
C162 C 0.94075 0.44288 0.73986 0.0
C163 C 0.96748 0.45482 0.75796 0.0
C164 C 0.01311 0.44556 0.76196 0.0
C165 C 0.03148 0.42428 0.74793 0.0
C166 C 0.00307 0.41301 0.73028 0.0
H167 H 0.90568 0.45006 0.73692 0.0
O168 O 0.94259 0.46917 0.66207 0.0
O169 O 0.94968 0.42721 0.67711 0.0
O170 O 0.85449 0.4447 0.67367 0.0
O171 O 0.8705 0.42011 0.70645 0.0
C172 C 0.07711 0.4141 0.75052 0.0
C173 C 0.0936 0.39304 0.7354 0.0
H174 H 0.11352 0.35299 0.70264 0.0
H175 H 0.05851 0.33627 0.67198 0.0
H176 H 0.95301 0.47118 0.76876 0.0
H177 H 0.03377 0.455 0.77579 0.0
H178 H 0.09999 0.42254 0.76392 0.0
H179 H 0.12891 0.3856 0.7374 0.0
Mn180 Mn 0.59572 0.06921 0.65146 0.0
Mn181 Mn 0.57366 0.10382 0.70212 0.0
C182 C 0.54291 0.05156 0.67826 0.0
C183 C 0.57973 0.06099 0.61166 0.0
C184 C 0.65968 0.06842 0.69472 0.0
O185 O 0.62331 0.10735 0.64498 0.0
O186 O 0.60283 0.12908 0.67862 0.0
C187 C 0.50114 0.14159 0.68372 0.0
N188 N 0.51478 0.12189 0.69948 0.0
C189 C 0.43997 0.12243 0.71852 0.0
C190 C 0.42521 0.14287 0.70259 0.0
C191 C 0.45591 0.15244 0.68509 0.0
C192 C 0.48546 0.11243 0.71631 0.0
H193 H 0.52457 0.14891 0.67018 0.0
C194 C 0.62153 0.12887 0.65807 0.0
O195 O 0.61962 0.05439 0.62086 0.0
O196 O 0.55021 0.07346 0.62532 0.0
N197 N 0.54527 0.08229 0.72659 0.0
C198 C 0.56458 0.0621 0.74027 0.0
C199 C 0.53824 0.05009 0.75848 0.0
C200 C 0.49257 0.05917 0.76263 0.0
C201 C 0.47376 0.08035 0.74863 0.0
C202 C 0.5018 0.0917 0.73086 0.0
H203 H 0.59969 0.05506 0.73721 0.0
O204 O 0.56176 0.03563 0.66252 0.0
O205 O 0.55459 0.07759 0.67753 0.0
O206 O 0.64987 0.06034 0.67381 0.0
O207 O 0.63409 0.08507 0.70654 0.0
C208 C 0.42806 0.09036 0.75138 0.0
C209 C 0.41113 0.11132 0.73629 0.0
H210 H 0.39031 0.15124 0.70355 0.0
H211 H 0.4447 0.16812 0.67266 0.0
H212 H 0.55306 0.0338 0.76925 0.0
H213 H 0.47221 0.04968 0.77655 0.0
H214 H 0.40547 0.08185 0.76486 0.0
H215 H 0.37576 0.11864 0.73841 0.0
Mn216 Mn 0.40763 0.56868 0.85118 0.0
Mn217 Mn 0.42996 0.60565 0.80178 0.0
C218 C 0.46167 0.55268 0.8243 0.0
C219 C 0.42268 0.55931 0.89088 0.0
C220 C 0.34459 0.56922 0.80768 0.0
O221 O 0.37825 0.60613 0.85837 0.0
O222 O 0.4003 0.6299 0.82596 0.0
C223 C 0.50201 0.64279 0.82156 0.0
N224 N 0.48863 0.62382 0.80511 0.0
C225 C 0.56356 0.62548 0.78624 0.0
C226 C 0.578 0.64525 0.80284 0.0
C227 C 0.54712 0.65387 0.82062 0.0
C228 C 0.51815 0.61524 0.78803 0.0
H229 H 0.47847 0.64933 0.83534 0.0
C230 C 0.38047 0.62834 0.84619 0.0
O231 O 0.38333 0.5525 0.88119 0.0
O232 O 0.45218 0.57258 0.87777 0.0
N233 N 0.45883 0.58523 0.77677 0.0
C234 C 0.43995 0.56543 0.76254 0.0
C235 C 0.46661 0.55425 0.74406 0.0
C236 C 0.51216 0.56374 0.74025 0.0
C237 C 0.53053 0.5845 0.75484 0.0
C238 C 0.50218 0.59503 0.77285 0.0
H239 H 0.40495 0.55806 0.76535 0.0
O240 O 0.44311 0.53596 0.83952 0.0
O241 O 0.44909 0.57853 0.82565 0.0
O242 O 0.35455 0.56002 0.82822 0.0
O243 O 0.36969 0.58685 0.79663 0.0
C244 C 0.57611 0.59482 0.75248 0.0
C245 C 0.59266 0.61524 0.7682 0.0
H246 H 0.61283 0.65377 0.80223 0.0
H247 H 0.55811 0.66898 0.83359 0.0
H248 H 0.45214 0.53828 0.73284 0.0
H249 H 0.53278 0.55486 0.72614 0.0
H250 H 0.59893 0.58695 0.73881 0.0
H251 H 0.62796 0.62277 0.76639 0.0
Mn252 Mn 0.09655 0.93658 0.85161 0.0
Mn253 Mn 0.07408 0.89999 0.80205 0.0
C254 C 0.04307 0.95306 0.8246 0.0
C255 C 0.08089 0.9457 0.89131 0.0
C256 C 0.16046 0.93553 0.80855 0.0
O257 O 0.1253 0.89887 0.85866 0.0
O258 O 0.10169 0.87519 0.82643 0.0
C259 C 0.99961 0.86396 0.821 0.0
N260 N 0.01452 0.88272 0.80471 0.0
C261 C 0.94035 0.88223 0.78502 0.0
C262 C 0.92438 0.86265 0.80142 0.0
C263 C 0.95411 0.85355 0.81953 0.0
C264 C 0.9861 0.89178 0.78732 0.0
H265 H 0.02222 0.85711 0.83505 0.0
C266 C 0.12178 0.87663 0.84661 0.0
O267 O 0.12051 0.9524 0.88185 0.0
O268 O 0.0515 0.93265 0.87798 0.0
N269 N 0.04703 0.92103 0.77688 0.0
C270 C 0.0672 0.94075 0.76302 0.0
C271 C 0.04174 0.95246 0.74435 0.0
C272 C 0.99603 0.9436 0.73997 0.0
C273 C 0.97629 0.92296 0.75421 0.0
C274 C 0.00349 0.91187 0.77243 0.0
H275 H 0.10232 0.94765 0.76627 0.0
O276 O 0.06162 0.96958 0.83998 0.0
O277 O 0.05532 0.92717 0.82589 0.0
O278 O 0.15005 0.94512 0.8289 0.0
O279 O 0.13536 0.91788 0.79751 0.0
C280 C 0.93042 0.91329 0.7513 0.0
C281 C 0.91242 0.893 0.76674 0.0
H282 H 0.88924 0.85466 0.80042 0.0
H283 H 0.94192 0.83861 0.83237 0.0
H284 H 0.05725 0.96836 0.73341 0.0
H285 H 0.97634 0.95289 0.7257 0.0
H286 H 0.90848 0.9216 0.73745 0.0
H287 H 0.8769 0.88601 0.76452 0.0
C288 C 0.20853 0.56683 0.27212 0.0
C289 C 0.19895 0.55927 0.29563 0.0
C290 C 0.24622 0.55529 0.26009 0.0
C291 C 0.35825 0.51963 0.26851 0.0
H292 H 0.33799 0.49535 0.20399 0.0
C293 C 0.45733 0.45213 0.19152 0.0
C294 C 0.5016 0.46418 0.19268 0.0
C295 C 0.42047 0.46333 0.20446 0.0
C296 C 0.34411 0.50184 0.22204 0.0
H297 H 0.22254 0.53406 0.32506 0.0
H298 H 0.28841 0.51397 0.30398 0.0
H299 H 0.27396 0.51573 0.22624 0.0
H300 H 0.54192 0.49825 0.20665 0.0
H301 H 0.4776 0.51781 0.22962 0.0
H302 H 0.42843 0.50553 0.26429 0.0
C303 C 0.26668 0.52892 0.29493 0.0
C304 C 0.30759 0.5138 0.2347 0.0
C305 C 0.22878 0.54037 0.30697 0.0
C306 C 0.50821 0.48824 0.2061 0.0
C307 C 0.47153 0.49931 0.21925 0.0
C308 C 0.3949 0.5078 0.25578 0.0
C309 C 0.27543 0.536 0.27126 0.0
C310 C 0.31429 0.52295 0.25803 0.0
C311 C 0.4273 0.48691 0.21863 0.0
C312 C 0.38824 0.49888 0.23238 0.0
H313 H 0.18647 0.58135 0.26278 0.0
H314 H 0.2525 0.56149 0.24197 0.0
H315 H 0.36455 0.52659 0.28642 0.0
H316 H 0.45126 0.43407 0.18058 0.0
H317 H 0.38682 0.45331 0.20364 0.0
C318 C 0.99051 0.0171 0.20606 0.0
C319 C 0.99669 0.04113 0.19253 0.0
C320 C 0.02731 0.00642 0.21935 0.0
C321 C 0.10381 0.99878 0.25609 0.0
H322 H 0.22508 0.99147 0.22679 0.0
C323 C 0.26998 0.96656 0.30753 0.0
C324 C 0.29969 0.94758 0.2962 0.0
C325 C 0.23221 0.97813 0.29546 0.0
C326 C 0.19137 0.99326 0.23519 0.0
H327 H 0.04645 0.07156 0.18039 0.0
H328 H 0.11111 0.053 0.20369 0.0
H329 H 0.16087 0.01138 0.20436 0.0
H330 H 0.31217 0.92557 0.26332 0.0
H331 H 0.24644 0.94564 0.24246 0.0
H332 H 0.13428 0.98028 0.28683 0.0
C333 C 0.07769 0.04271 0.20449 0.0
C334 C 0.15473 0.00494 0.22243 0.0
C335 C 0.0407 0.05352 0.1914 0.0
C336 C 0.29021 0.94015 0.27265 0.0
C337 C 0.25268 0.9518 0.26059 0.0
C338 C 0.14058 0.98724 0.26892 0.0
C339 C 0.07126 0.01918 0.21877 0.0
C340 C 0.11047 0.00763 0.23267 0.0
C341 C 0.22351 0.97111 0.27177 0.0
C342 C 0.18465 0.98412 0.25852 0.0
H343 H 0.95701 0.00684 0.20659 0.0
H344 H 0.02157 0.98795 0.2298 0.0
H345 H 0.07017 1.00086 0.26452 0.0
H346 H 0.27616 0.97278 0.32565 0.0
H347 H 0.21049 0.99308 0.3045 0.0
C348 C 0.72744 0.46648 0.19511 0.0
C349 C 0.69799 0.44764 0.20679 0.0
C350 C 0.76527 0.47837 0.20691 0.0
C351 C 0.80685 0.49425 0.26701 0.0
H352 H 0.9273 0.50261 0.23704 0.0
C353 C 0.00797 0.51852 0.29529 0.0
C354 C 0.00167 0.54211 0.30934 0.0
C355 C 0.9711 0.50804 0.28193 0.0
C356 C 0.89388 0.50032 0.24565 0.0
H357 H 0.68618 0.42613 0.23998 0.0
H358 H 0.75209 0.44664 0.26032 0.0
H359 H 0.86311 0.48164 0.21507 0.0
H360 H 0.95171 0.57197 0.32227 0.0
H361 H 0.88698 0.55381 0.29881 0.0
H362 H 0.8377 0.5124 0.29772 0.0
C363 C 0.74553 0.45253 0.24215 0.0
C364 C 0.85704 0.48856 0.23301 0.0
C365 C 0.70789 0.44061 0.23038 0.0
C366 C 0.95754 0.55429 0.31085 0.0
C367 C 0.92051 0.54369 0.29767 0.0
C368 C 0.84357 0.50608 0.2796 0.0
C369 C 0.77436 0.47177 0.23066 0.0
C370 C 0.81324 0.48514 0.24364 0.0
C371 C 0.92698 0.52055 0.28293 0.0
C372 C 0.88759 0.50902 0.26914 0.0
H373 H 0.72091 0.47241 0.17695 0.0
H374 H 0.78671 0.49325 0.19761 0.0
H375 H 0.77336 0.49228 0.2756 0.0
H376 H 0.04157 0.50842 0.29444 0.0
H377 H 0.97692 0.48985 0.27113 0.0
C378 C 0.78998 0.06339 0.22998 0.0
C379 C 0.79989 0.05642 0.20638 0.0
C380 C 0.75253 0.0513 0.24178 0.0
C381 C 0.64129 0.01507 0.23276 0.0
H382 H 0.66104 0.99127 0.29746 0.0
C383 C 0.54075 0.95006 0.3111 0.0
C384 C 0.49683 0.96252 0.3097 0.0
C385 C 0.57778 0.96035 0.29773 0.0
C386 C 0.65506 0.99757 0.27934 0.0
H387 H 0.77718 0.03158 0.17655 0.0
H388 H 0.71166 0.01046 0.19726 0.0
H389 H 0.72528 0.01131 0.27519 0.0
H390 H 0.45735 0.9964 0.29481 0.0
H391 H 0.52198 0.01441 0.27118 0.0
H392 H 0.57099 1.00115 0.23696 0.0
C393 C 0.73298 0.02541 0.20654 0.0
C394 C 0.69172 0.00934 0.26667 0.0
C395 C 0.77064 0.03746 0.19471 0.0
C396 C 0.49077 0.98607 0.29556 0.0
C397 C 0.52762 0.99624 0.28202 0.0
C398 C 0.6045 0.00338 0.24549 0.0
C399 C 0.72389 0.03195 0.2303 0.0
C400 C 0.68516 0.01847 0.24332 0.0
C401 C 0.57152 0.98344 0.28292 0.0
C402 C 0.61093 0.99472 0.26899 0.0
H403 H 0.81153 0.07796 0.23957 0.0
H404 H 0.74596 0.05715 0.25995 0.0
H405 H 0.6351 0.022 0.21483 0.0
H406 H 0.54642 0.93242 0.32257 0.0
H407 H 0.61116 0.95003 0.2988 0.0
C408 C 0.54385 0.55517 0.8108 0.0
C409 C 0.49987 0.5428 0.80933 0.0
C410 C 0.58094 0.54478 0.79753 0.0
C411 C 0.65818 0.50741 0.77932 0.0
H412 H 0.63843 0.48281 0.71484 0.0
C413 C 0.79335 0.44151 0.73014 0.0
C414 C 0.80317 0.44839 0.7065 0.0
C415 C 0.75589 0.45362 0.74192 0.0
C416 C 0.64457 0.48978 0.73276 0.0
H417 H 0.46033 0.50896 0.79442 0.0
H418 H 0.52503 0.49076 0.77097 0.0
H419 H 0.5743 0.50379 0.73684 0.0
H420 H 0.78034 0.47309 0.67662 0.0
H421 H 0.71485 0.49425 0.69729 0.0
H422 H 0.72839 0.49361 0.77527 0.0
C423 C 0.53069 0.50895 0.78179 0.0
C424 C 0.60776 0.50155 0.74542 0.0
C425 C 0.49379 0.51923 0.79523 0.0
C426 C 0.77386 0.46728 0.6948 0.0
C427 C 0.7362 0.47935 0.70661 0.0
C428 C 0.69486 0.49557 0.76671 0.0
C429 C 0.57466 0.52166 0.78275 0.0
C430 C 0.6141 0.51028 0.7689 0.0
C431 C 0.72717 0.47289 0.7304 0.0
C432 C 0.6884 0.48638 0.74337 0.0
H433 H 0.54953 0.57283 0.82226 0.0
H434 H 0.61436 0.55503 0.79865 0.0
H435 H 0.66409 0.51375 0.79743 0.0
H436 H 0.81496 0.427 0.73976 0.0
H437 H 0.74937 0.44783 0.76011 0.0
C438 C 0.73092 0.03806 0.69485 0.0
C439 C 0.70165 0.05702 0.7065 0.0
C440 C 0.76875 0.02615 0.70665 0.0
C441 C 0.81033 0.01043 0.76677 0.0
H442 H 0.93089 1.00197 0.73695 0.0
C443 C 0.01127 0.98662 0.79548 0.0
C444 C 0.00499 0.9631 0.80964 0.0
C445 C 0.97447 0.99693 0.78198 0.0
C446 C 0.89743 0.00429 0.74551 0.0
H447 H 0.6902 0.07875 0.73962 0.0
H448 H 0.75605 0.0582 0.75994 0.0
H449 H 0.86673 0.02282 0.71483 0.0
H450 H 0.9551 0.9332 0.82256 0.0
H451 H 0.89049 0.95106 0.79886 0.0
H452 H 0.84107 0.99244 0.79757 0.0
C453 C 0.74937 0.05222 0.74181 0.0
C454 C 0.86062 0.01597 0.73279 0.0
C455 C 0.71174 0.06417 0.73005 0.0
C456 C 0.96093 0.95083 0.81108 0.0
C457 C 0.92397 0.96125 0.79776 0.0
C458 C 0.847 0.99867 0.77943 0.0
C459 C 0.77799 0.03285 0.73036 0.0
C460 C 0.81679 0.01945 0.74338 0.0
C461 C 0.93043 0.98431 0.78293 0.0
C462 C 0.89106 0.9957 0.76903 0.0
H463 H 0.72424 0.03204 0.67673 0.0
H464 H 0.79006 0.01117 0.69739 0.0
H465 H 0.7768 0.01245 0.77533 0.0
H466 H 0.04481 0.9968 0.79468 0.0
H467 H 0.98027 0.01507 0.77111 0.0
C468 C 0.29359 0.5654 0.77187 0.0
C469 C 0.30293 0.55805 0.79546 0.0
C470 C 0.25604 0.55375 0.75981 0.0
C471 C 0.14379 0.51844 0.76826 0.0
H472 H 0.16394 0.49401 0.70376 0.0
C473 C 0.04384 0.4516 0.69113 0.0
C474 C 0.99976 0.4639 0.6923 0.0
C475 C 0.08086 0.46256 0.7041 0.0
C476 C 0.15784 0.50054 0.72181 0.0
H477 H 0.27916 0.53303 0.82496 0.0
H478 H 0.21352 0.51273 0.80382 0.0
H479 H 0.22818 0.51407 0.72607 0.0
H480 H 0.96 0.49819 0.70629 0.0
H481 H 0.02461 0.51734 0.7293 0.0
H482 H 0.07341 0.50473 0.76397 0.0
C483 C 0.23533 0.52761 0.79475 0.0
C484 C 0.1945 0.5123 0.7345 0.0
C485 C 0.27309 0.53918 0.80682 0.0
C486 C 0.99355 0.48799 0.70574 0.0
C487 C 0.03039 0.49882 0.71891 0.0
C488 C 0.10701 0.5068 0.7555 0.0
C489 C 0.22674 0.53454 0.77103 0.0
C490 C 0.18784 0.52153 0.75782 0.0
C491 C 0.0744 0.48615 0.7183 0.0
C492 C 0.11363 0.49785 0.7321 0.0
H493 H 0.31566 0.5799 0.76252 0.0
H494 H 0.2499 0.55984 0.74166 0.0
H495 H 0.13752 0.52548 0.78614 0.0
H496 H 0.04961 0.43352 0.68018 0.0
H497 H 0.11434 0.45233 0.70328 0.0
C498 C 0.23221 0.96538 0.80776 0.0
C499 C 0.20252 0.94636 0.79646 0.0
C500 C 0.27011 0.97682 0.79571 0.0
C501 C 0.31105 0.99171 0.73546 0.0
H502 H 0.43201 1.00003 0.7649 0.0
C503 C 0.51153 0.01679 0.70644 0.0
C504 C 0.50496 0.04081 0.69294 0.0
C505 C 0.4749 0.00587 0.71972 0.0
C506 C 0.39844 0.99775 0.75644 0.0
H507 H 0.19035 0.92404 0.7637 0.0
H508 H 0.25635 0.94389 0.74288 0.0
H509 H 0.36813 0.97913 0.78718 0.0
H510 H 0.45471 0.07099 0.68088 0.0
H511 H 0.39036 0.05201 0.70415 0.0
H512 H 0.34138 0.00998 0.70465 0.0
C513 C 0.24996 0.95019 0.76096 0.0
C514 C 0.3618 0.98601 0.76925 0.0
C515 C 0.21227 0.93866 0.773 0.0
C516 C 0.46075 0.05296 0.69186 0.0
C517 C 0.42395 0.04191 0.70493 0.0
C518 C 0.34754 0.00357 0.72272 0.0
C519 C 0.279 0.96961 0.77208 0.0
C520 C 0.31781 0.98265 0.75881 0.0
C521 C 0.43075 0.01838 0.71917 0.0
C522 C 0.39171 0.00655 0.73301 0.0
H523 H 0.22583 0.97179 0.8258 0.0
H524 H 0.29174 0.99185 0.8047 0.0
H525 H 0.27739 0.98973 0.72703 0.0
H526 H 0.54518 0.00671 0.70694 0.0
H527 H 0.48094 0.98741 0.73014 0.0
C528 C 0.09475 0.53327 0.42783 0.0
C529 C 0.06538 0.55081 0.4148 0.0
C530 C 0.07983 0.52193 0.4493 0.0
C531 C 0.97187 0.50456 0.48143 0.0
H532 H 0.05409 0.49604 0.53519 0.0
C533 C 0.90753 0.46988 0.57385 0.0
C534 C 0.93684 0.45257 0.58714 0.0
C535 C 0.92261 0.48091 0.5523 0.0
C536 C 0.03083 0.49792 0.52023 0.0
H537 H 0.9981 0.57115 0.41457 0.0
H538 H 0.97245 0.55175 0.45208 0.0
H539 H 0.08263 0.51842 0.4994 0.0
H540 H 0.00415 0.43229 0.58775 0.0
H541 H 0.03006 0.45113 0.55006 0.0
H542 H 0.92008 0.48407 0.50225 0.0
C543 C 0.00663 0.54628 0.44553 0.0
C544 C 0.0472 0.51082 0.49973 0.0
C545 C 0.02152 0.5576 0.42411 0.0
C546 C 0.98078 0.44567 0.578 0.0
C547 C 0.99582 0.45667 0.55648 0.0
C548 C 0.95551 0.49165 0.50193 0.0
C549 C 0.03521 0.52789 0.45817 0.0
C550 C 0.01789 0.51434 0.48009 0.0
C551 C 0.96731 0.47486 0.54359 0.0
C552 C 0.98478 0.48818 0.52159 0.0
H553 H 0.12867 0.52756 0.42109 0.0
H554 H 0.10262 0.50771 0.45851 0.0
H555 H 0.9486 0.50648 0.46647 0.0
H556 H 0.87355 0.47568 0.58046 0.0
H557 H 0.89986 0.495 0.54291 0.0
C558 C 0.40453 0.973 0.42856 0.0
C559 C 0.43357 0.95533 0.41547 0.0
C560 C 0.41969 0.98417 0.45005 0.0
C561 C 0.50831 0.97596 0.49729 0.0
H562 H 0.48433 0.0539 0.50845 0.0
C563 C 0.59547 0.03496 0.57413 0.0
C564 C 0.56634 0.05227 0.58752 0.0
C565 C 0.58013 0.02398 0.55261 0.0
C566 C 0.49101 0.03206 0.5057 0.0
H567 H 0.50068 0.9348 0.41505 0.0
H568 H 0.5271 0.95431 0.45233 0.0
H569 H 0.45377 0.0318 0.47296 0.0
H570 H 0.49896 0.07245 0.5884 0.0
H571 H 0.47229 0.05332 0.55099 0.0
H572 H 0.54561 0.97623 0.53001 0.0
C573 C 0.49249 0.95943 0.44617 0.0
C574 C 0.47333 0.01936 0.48539 0.0
C575 C 0.47737 0.9483 0.42472 0.0
C576 C 0.52231 0.05922 0.5785 0.0
C577 C 0.50705 0.04831 0.55699 0.0
C578 C 0.52602 0.98866 0.51758 0.0
C579 C 0.46417 0.97786 0.45892 0.0
C580 C 0.48177 0.99114 0.48092 0.0
C581 C 0.53541 0.03014 0.54399 0.0
C582 C 0.51761 0.01688 0.52204 0.0
H583 H 0.37057 0.9788 0.42192 0.0
H584 H 0.39671 0.99795 0.45962 0.0
H585 H 0.51496 0.95411 0.49457 0.0
H586 H 0.62959 0.02923 0.58059 0.0
H587 H 0.60313 0.0104 0.54284 0.0
C588 C 0.52031 0.44576 0.07829 0.0
C589 C 0.56434 0.45244 0.08746 0.0
C590 C 0.50553 0.45673 0.05672 0.0
C591 C 0.52609 0.51622 0.01736 0.0
H592 H 0.45373 0.47351 0.97249 0.0
C593 C 0.47934 0.55683 0.92432 0.0
C594 C 0.43552 0.55007 0.91496 0.0
C595 C 0.49402 0.54562 0.94582 0.0
C596 C 0.47333 0.48583 0.98499 0.0
H597 H 0.62809 0.47506 0.08071 0.0
H598 H 0.60248 0.494 0.04286 0.0
H599 H 0.48342 0.45123 0.0081 0.0
H600 H 0.37203 0.52701 0.92125 0.0
H601 H 0.3974 0.50773 0.95902 0.0
H602 H 0.51595 0.55083 0.9943 0.0
C603 C 0.57911 0.48059 0.05257 0.0
C604 C 0.4905 0.47303 0.00536 0.0
C605 C 0.59395 0.46954 0.07415 0.0
C606 C 0.40602 0.5326 0.92797 0.0
C607 C 0.42073 0.52135 0.94951 0.0
C608 C 0.50889 0.52903 0.997 0.0
C609 C 0.53439 0.4747 0.0438 0.0
C610 C 0.51713 0.48806 0.02179 0.0
C611 C 0.46523 0.52738 0.9585 0.0
C612 C 0.48233 0.51399 0.98055 0.0
H613 H 0.49659 0.43268 0.08813 0.0
H614 H 0.47076 0.45194 0.0506 0.0
H615 H 0.54572 0.52854 0.02986 0.0
H616 H 0.50299 0.57017 0.91471 0.0
H617 H 0.52865 0.55052 0.95208 0.0
C618 C 0.0967 0.97241 0.92851 0.0
C619 C 0.06762 0.95483 0.91536 0.0
C620 C 0.08148 0.9836 0.94998 0.0
C621 C 0.99259 0.97559 0.99709 0.0
H622 H 0.01674 0.05353 0.00819 0.0
C623 C 0.90543 0.03474 0.07386 0.0
C624 C 0.93453 0.0521 0.08721 0.0
C625 C 0.92078 0.02371 0.05236 0.0
C626 C 0.01002 0.03169 0.00546 0.0
H627 H 0.00037 0.93447 0.91482 0.0
H628 H 0.97387 0.954 0.95208 0.0
H629 H 0.0474 0.03134 0.97276 0.0
H630 H 0.00188 0.07233 0.08804 0.0
H631 H 0.02858 0.05311 0.05067 0.0
H632 H 0.95517 0.97595 0.02978 0.0
C633 C 0.00855 0.95903 0.94597 0.0
C634 C 0.02775 0.01894 0.98518 0.0
C635 C 0.02371 0.9479 0.92453 0.0
C636 C 0.97854 0.05905 0.07817 0.0
C637 C 0.99382 0.04809 0.05668 0.0
C638 C 0.97484 0.98835 0.01735 0.0
C639 C 0.0369 0.9774 0.95878 0.0
C640 C 0.01924 0.99073 0.98074 0.0
C641 C 0.96549 0.02988 0.04372 0.0
C642 C 0.98331 0.01656 0.02179 0.0
H643 H 0.13073 0.97814 0.92192 0.0
H644 H 0.10449 0.99733 0.95959 0.0
H645 H 0.98588 0.95375 0.99438 0.0
H646 H 0.87132 0.029 0.08033 0.0
H647 H 0.89779 0.01011 0.04261 0.0
C648 C 0.18675 0.654 0.36248 0.0
C649 C 0.14065 0.65457 0.35442 0.0
C650 C 0.21057 0.67873 0.36703 0.0
C651 C 0.20316 0.75424 0.35237 0.0
H652 H 0.31206 0.75824 0.39263 0.0
C653 C 0.31014 0.85455 0.36731 0.0
C654 C 0.35297 0.85223 0.3555 0.0
C655 C 0.2835 0.8309 0.372 0.0
C656 C 0.28142 0.75738 0.38152 0.0
H657 H 0.0821 0.68107 0.34639 0.0
H658 H 0.12199 0.72399 0.35605 0.0
H659 H 0.2642 0.71638 0.39277 0.0
H660 H 0.40284 0.82337 0.3407 0.0
H661 H 0.35696 0.78199 0.34979 0.0
H662 H 0.22022 0.7956 0.34166 0.0
C663 C 0.14107 0.70477 0.35766 0.0
C664 C 0.25419 0.73331 0.38133 0.0
C665 C 0.11782 0.68012 0.3524 0.0
C666 C 0.36995 0.82575 0.34981 0.0
C667 C 0.34388 0.80211 0.35506 0.0
C668 C 0.22967 0.77846 0.35305 0.0
C669 C 0.18838 0.70459 0.36421 0.0
C670 C 0.21509 0.73113 0.36637 0.0
C671 C 0.29992 0.80457 0.36559 0.0
C672 C 0.26939 0.78005 0.36729 0.0
H673 H 0.20523 0.63452 0.36393 0.0
H674 H 0.247 0.67744 0.37167 0.0
H675 H 0.17434 0.75346 0.34011 0.0
H676 H 0.29604 0.87471 0.3717 0.0
H677 H 0.2495 0.8332 0.38001 0.0
C678 C 0.82141 0.15403 0.13208 0.0
C679 C 0.85603 0.1545 0.14963 0.0
C680 C 0.79636 0.1781 0.12658 0.0
C681 C 0.72757 0.22572 0.13429 0.0
H682 H 0.78474 0.29848 0.13423 0.0
C683 C 0.63051 0.32461 0.16156 0.0
C684 C 0.64057 0.3498 0.15016 0.0
C685 C 0.65487 0.30052 0.15584 0.0
C686 C 0.76819 0.27834 0.1338 0.0
H687 H 0.89318 0.18101 0.1742 0.0
H688 H 0.8498 0.22269 0.16461 0.0
H689 H 0.83368 0.25719 0.13376 0.0
H690 H 0.68304 0.36906 0.12308 0.0
H691 H 0.72588 0.32683 0.11317 0.0
H692 H 0.66209 0.24687 0.13497 0.0
C693 C 0.8419 0.20383 0.15506 0.0
C694 C 0.79625 0.25467 0.13376 0.0
C695 C 0.86654 0.17982 0.1607 0.0
C696 C 0.67442 0.35003 0.13221 0.0
C697 C 0.69916 0.32589 0.12663 0.0
C698 C 0.6995 0.24938 0.13445 0.0
C699 C 0.80586 0.20317 0.1383 0.0
C700 C 0.77629 0.2281 0.13464 0.0
C701 C 0.69015 0.30096 0.13866 0.0
C702 C 0.7195 0.27597 0.13484 0.0
H703 H 0.81243 0.13488 0.12322 0.0
H704 H 0.76902 0.17699 0.11345 0.0
H705 H 0.71106 0.20558 0.1351 0.0
H706 H 0.60447 0.32359 0.17536 0.0
H707 H 0.64736 0.28178 0.16564 0.0
C708 C 0.67826 0.15448 0.63213 0.0
C709 C 0.64403 0.15482 0.64988 0.0
C710 C 0.7031 0.1786 0.62657 0.0
C711 C 0.70323 0.25515 0.63405 0.0
H712 H 0.83742 0.24738 0.63436 0.0
C713 C 0.86957 0.32493 0.66112 0.0
C714 C 0.85932 0.35017 0.64987 0.0
C715 C 0.84506 0.30088 0.65545 0.0
C716 C 0.79999 0.24988 0.63409 0.0
H717 H 0.60734 0.18118 0.67474 0.0
H718 H 0.65037 0.22295 0.66506 0.0
H719 H 0.78849 0.20608 0.63464 0.0
H720 H 0.81633 0.36961 0.62309 0.0
H721 H 0.77318 0.32744 0.61327 0.0
H722 H 0.71473 0.29896 0.63462 0.0
C723 C 0.65812 0.20415 0.65539 0.0
C724 C 0.77194 0.22621 0.63401 0.0
C725 C 0.63368 0.18008 0.66109 0.0
C726 C 0.8251 0.35052 0.63211 0.0
C727 C 0.80019 0.32642 0.62658 0.0
C728 C 0.73128 0.27882 0.634 0.0
C729 C 0.69379 0.2036 0.63843 0.0
C730 C 0.72323 0.22857 0.63469 0.0
C731 C 0.80943 0.30142 0.63847 0.0
C732 C 0.77999 0.27646 0.63472 0.0
H733 H 0.68712 0.13539 0.62315 0.0
H734 H 0.73014 0.17758 0.61328 0.0
H735 H 0.6658 0.25765 0.63429 0.0
H736 H 0.8959 0.32383 0.67478 0.0
H737 H 0.85274 0.28208 0.66514 0.0
C738 C 0.31369 0.65113 0.86688 0.0
C739 C 0.35631 0.65338 0.85488 0.0
C740 C 0.28725 0.67481 0.87173 0.0
C741 C 0.28639 0.74854 0.88109 0.0
H742 H 0.17664 0.75213 0.84151 0.0
C743 C 0.191 0.85183 0.86273 0.0
C744 C 0.14445 0.85124 0.85538 0.0
C745 C 0.21495 0.82711 0.86716 0.0
C746 C 0.20625 0.75145 0.85328 0.0
H747 H 0.40603 0.68218 0.83985 0.0
H748 H 0.36053 0.72363 0.84921 0.0
H749 H 0.22245 0.70995 0.84263 0.0
H750 H 0.0853 0.82479 0.8485 0.0
H751 H 0.12549 0.7819 0.85802 0.0
H752 H 0.27006 0.78968 0.8923 0.0
C753 C 0.34744 0.70352 0.85452 0.0
C754 C 0.23271 0.72721 0.85371 0.0
C755 C 0.37329 0.67984 0.8491 0.0
C756 C 0.12136 0.82573 0.85398 0.0
C757 C 0.14477 0.8011 0.85914 0.0
C758 C 0.25923 0.77263 0.88118 0.0
C759 C 0.30369 0.70113 0.86528 0.0
C760 C 0.27337 0.72573 0.86727 0.0
C761 C 0.19247 0.80126 0.86493 0.0
C762 C 0.21918 0.7747 0.86688 0.0
H763 H 0.29959 0.63099 0.87135 0.0
H764 H 0.25343 0.67256 0.87994 0.0
H765 H 0.31774 0.74776 0.89169 0.0
H766 H 0.20968 0.87129 0.86366 0.0
H767 H 0.25165 0.8284 0.87121 0.0
loop_
_geom_bond_atom_site_label_1
_geom_bond_atom_site_label_2
_geom_bond_distance
_geom_bond_site_symmetry_2
_ccdc_geom_bond_type
Mn0 O5 2.095 . S
Mn0 O15 2.162 . S
Mn0 O16 2.297 . S
Mn0 O24 2.385 . S
Mn0 O25 2.209 . S
Mn0 O26 2.094 . S
Mn1 O6 2.121 . S
Mn1 N8 2.257 . S
Mn1 N17 2.282 . S
Mn1 O25 2.215 . S
Mn1 O27 2.117 . S
C2 O24 1.234 . S
C2 O25 1.283 . S
C3 O15 1.281 . S
C3 O16 1.236 . S
C4 O26 1.240 . S
C4 O27 1.264 . S
O5 Mn0 2.095 . S
O5 C14 1.250 . S
O6 Mn1 2.121 . S
O6 C14 1.258 . S
C7 N8 1.326 . S
C7 C11 1.460 . S
C7 H13 0.929 . S
N8 Mn1 2.257 . S
N8 C7 1.326 . S
N8 C12 1.362 . S
C9 C10 1.258 . S
C9 C12 1.431 . S
C9 C29 1.449 . S
C10 C9 1.258 . S
C10 C11 1.477 . S
C10 H30 0.939 . S
C11 C7 1.460 . S
C11 C10 1.477 . S
C11 H31 0.930 . S
C12 N8 1.362 . S
C12 C9 1.431 . S
C12 C22 1.476 . S
H13 C7 0.929 . S
C14 O5 1.250 . S
C14 O6 1.258 . S
O15 Mn0 2.162 . S
O15 C3 1.281 . S
O16 Mn0 2.297 . S
O16 C3 1.236 . S
N17 Mn1 2.282 . S
N17 C18 1.328 . S
N17 C22 1.318 . S
C18 N17 1.328 . S
C18 C19 1.457 . S
C18 H23 0.929 . S
C19 C18 1.457 . S
C19 C20 1.291 . S
C19 H32 0.931 . S
C20 C19 1.291 . S
C20 C21 1.373 . S
C20 H33 0.929 . S
C21 C20 1.373 . S
C21 C22 1.396 . S
C21 C28 1.403 . S
C22 C12 1.476 . S
C22 N17 1.318 . S
C22 C21 1.396 . S
H23 C18 0.929 . S
O24 Mn0 2.385 . S
O24 C2 1.234 . S
O25 Mn0 2.209 . S
O25 Mn1 2.215 . S
O25 C2 1.283 . S
O26 Mn0 2.094 . S
O26 C4 1.240 . S
O27 Mn1 2.117 . S
O27 C4 1.264 . S
C28 C21 1.403 . S
C28 C29 1.399 . S
C28 H34 0.929 . S
C29 C9 1.449 . S
C29 C28 1.399 . S
C29 H35 0.930 1_455 S
H30 C10 0.939 . S
H31 C11 0.930 . S
H32 C19 0.931 . S
H33 C20 0.929 . S
H34 C28 0.929 . S
H35 C29 0.930 1_655 S
Mn36 O41 2.095 . S
Mn36 O51 2.162 . S
Mn36 O52 2.297 . S
Mn36 O60 2.385 . S
Mn36 O61 2.209 . S
Mn36 O62 2.094 . S
Mn37 O42 2.121 . S
Mn37 N44 2.257 . S
Mn37 N53 2.282 . S
Mn37 O61 2.215 . S
Mn37 O63 2.117 . S
C38 O60 1.234 . S
C38 O61 1.283 . S
C39 O51 1.281 . S
C39 O52 1.236 . S
C40 O62 1.240 . S
C40 O63 1.264 . S
O41 Mn36 2.095 . S
O41 C50 1.250 . S
O42 Mn37 2.121 . S
O42 C50 1.258 . S
C43 N44 1.326 . S
C43 C47 1.460 . S
C43 H49 0.929 . S
N44 Mn37 2.257 . S
N44 C43 1.326 . S
N44 C48 1.362 . S
C45 C46 1.258 . S
C45 C48 1.431 . S
C45 C65 1.449 . S
C46 C45 1.258 . S
C46 C47 1.477 . S
C46 H66 0.931 . S
C47 C43 1.460 . S
C47 C46 1.477 . S
C47 H67 0.930 . S
C48 N44 1.362 . S
C48 C45 1.431 . S
C48 C58 1.476 . S
H49 C43 0.929 . S
C50 O41 1.250 . S
C50 O42 1.258 . S
O51 Mn36 2.162 . S
O51 C39 1.281 . S
O52 Mn36 2.297 . S
O52 C39 1.236 . S
N53 Mn37 2.282 . S
N53 C54 1.328 . S
N53 C58 1.318 . S
C54 N53 1.328 . S
C54 C55 1.457 . S
C54 H59 0.929 . S
C55 C54 1.457 . S
C55 C56 1.291 . S
C55 H68 0.912 1_565 S
C56 C55 1.291 . S
C56 C57 1.373 . S
C56 H69 0.929 . S
C57 C56 1.373 . S
C57 C58 1.396 . S
C57 C64 1.403 . S
C58 C48 1.476 . S
C58 N53 1.318 . S
C58 C57 1.396 . S
H59 C54 0.929 . S
O60 Mn36 2.385 . S
O60 C38 1.234 . S
O61 Mn36 2.209 . S
O61 Mn37 2.215 . S
O61 C38 1.283 . S
O62 Mn36 2.094 . S
O62 C40 1.240 . S
O63 Mn37 2.117 . S
O63 C40 1.264 . S
C64 C57 1.403 . S
C64 C65 1.399 . S
C64 H70 0.929 . S
C65 C45 1.449 . S
C65 C64 1.399 . S
C65 H71 0.930 . S
H66 C46 0.931 . S
H67 C47 0.930 . S
H68 C55 0.912 1_545 S
H69 C56 0.929 . S
H70 C64 0.929 . S
H71 C65 0.930 . S
Mn72 O77 2.095 . S
Mn72 O87 2.162 . S
Mn72 O88 2.297 . S
Mn72 O96 2.385 . S
Mn72 O97 2.209 . S
Mn72 O98 2.094 . S
Mn73 O78 2.121 . S
Mn73 N80 2.257 . S
Mn73 N89 2.282 . S
Mn73 O97 2.215 . S
Mn73 O99 2.117 . S
C74 O96 1.234 . S
C74 O97 1.283 . S
C75 O87 1.281 . S
C75 O88 1.236 . S
C76 O98 1.240 . S
C76 O99 1.264 . S
O77 Mn72 2.095 . S
O77 C86 1.250 . S
O78 Mn73 2.121 . S
O78 C86 1.258 . S
C79 N80 1.326 . S
C79 C83 1.460 . S
C79 H85 0.929 . S
N80 Mn73 2.257 . S
N80 C79 1.326 . S
N80 C84 1.362 . S
C81 C82 1.258 . S
C81 C84 1.431 . S
C81 C101 1.449 . S
C82 C81 1.258 . S
C82 C83 1.477 . S
C82 H102 0.931 . S
C83 C79 1.460 . S
C83 C82 1.477 . S
C83 H103 0.930 . S
C84 N80 1.362 . S
C84 C81 1.431 . S
C84 C94 1.476 . S
H85 C79 0.929 . S
C86 O77 1.250 . S
C86 O78 1.258 . S
O87 Mn72 2.162 . S
O87 C75 1.281 . S
O88 Mn72 2.297 . S
O88 C75 1.236 . S
N89 Mn73 2.282 . S
N89 C90 1.328 . S
N89 C94 1.318 . S
C90 N89 1.328 . S
C90 C91 1.457 . S
C90 H95 0.929 . S
C91 C90 1.457 . S
C91 C92 1.291 . S
C91 H104 0.931 . S
C92 C91 1.291 . S
C92 C93 1.373 . S
C92 H105 0.929 . S
C93 C92 1.373 . S
C93 C94 1.396 . S
C93 C100 1.403 . S
C94 C84 1.476 . S
C94 N89 1.318 . S
C94 C93 1.396 . S
H95 C90 0.929 . S
O96 Mn72 2.385 . S
O96 C74 1.234 . S
O97 Mn72 2.209 . S
O97 Mn73 2.215 . S
O97 C74 1.283 . S
O98 Mn72 2.094 . S
O98 C76 1.240 . S
O99 Mn73 2.117 . S
O99 C76 1.264 . S
C100 C93 1.403 . S
C100 C101 1.399 . S
C100 H106 0.929 . S
C101 C81 1.449 . S
C101 C100 1.399 . S
C101 H107 0.930 . S
H102 C82 0.931 . S
H103 C83 0.930 . S
H104 C91 0.931 . S
H105 C92 0.929 . S
H106 C100 0.929 . S
H107 C101 0.930 . S
Mn108 O113 2.095 . S
Mn108 O123 2.162 . S
Mn108 O124 2.297 . S
Mn108 O132 2.385 . S
Mn108 O133 2.209 . S
Mn108 O134 2.094 . S
Mn109 O114 2.121 . S
Mn109 N116 2.257 . S
Mn109 N125 2.282 . S
Mn109 O133 2.215 . S
Mn109 O135 2.117 . S
C110 O132 1.234 . S
C110 O133 1.283 . S
C111 O123 1.281 . S
C111 O124 1.236 . S
C112 O134 1.240 . S
C112 O135 1.264 . S
O113 Mn108 2.095 . S
O113 C122 1.250 . S
O114 Mn109 2.121 . S
O114 C122 1.258 . S
C115 N116 1.326 . S
C115 C119 1.460 . S
C115 H121 0.929 . S
N116 Mn109 2.257 . S
N116 C115 1.326 . S
N116 C120 1.362 . S
C117 C118 1.258 . S
C117 C120 1.431 . S
C117 C137 1.449 . S
C118 C117 1.258 . S
C118 C119 1.477 . S
C118 H138 0.939 . S
C119 C115 1.460 . S
C119 C118 1.477 . S
C119 H139 0.930 . S
C120 N116 1.362 . S
C120 C117 1.431 . S
C120 C130 1.476 . S
H121 C115 0.929 . S
C122 O113 1.250 . S
C122 O114 1.258 . S
O123 Mn108 2.162 . S
O123 C111 1.281 . S
O124 Mn108 2.297 . S
O124 C111 1.236 . S
N125 Mn109 2.282 . S
N125 C126 1.328 . S
N125 C130 1.318 . S
C126 N125 1.328 . S
C126 C127 1.457 . S
C126 H131 0.929 . S
C127 C126 1.457 . S
C127 C128 1.291 . S
C127 H140 0.912 1_545 S
C128 C127 1.291 . S
C128 C129 1.373 . S
C128 H141 0.929 . S
C129 C128 1.373 . S
C129 C130 1.396 . S
C129 C136 1.403 . S
C130 C120 1.476 . S
C130 N125 1.318 . S
C130 C129 1.396 . S
H131 C126 0.929 . S
O132 Mn108 2.385 . S
O132 C110 1.234 . S
O133 Mn108 2.209 . S
O133 Mn109 2.215 . S
O133 C110 1.283 . S
O134 Mn108 2.094 . S
O134 C112 1.240 . S
O135 Mn109 2.117 . S
O135 C112 1.264 . S
C136 C129 1.403 . S
C136 C137 1.399 . S
C136 H142 0.929 . S
C137 C117 1.449 . S
C137 C136 1.399 . S
C137 H143 0.930 1_655 S
H138 C118 0.939 . S
H139 C119 0.930 . S
H140 C127 0.912 1_565 S
H141 C128 0.929 . S
H142 C136 0.929 . S
H143 C137 0.930 1_455 S
Mn144 O149 2.095 . S
Mn144 O159 2.162 . S
Mn144 O160 2.297 . S
Mn144 O168 2.385 . S
Mn144 O169 2.209 . S
Mn144 O170 2.094 . S
Mn145 O150 2.121 . S
Mn145 N152 2.257 . S
Mn145 N161 2.282 . S
Mn145 O169 2.215 . S
Mn145 O171 2.117 . S
C146 O168 1.234 . S
C146 O169 1.283 . S
C147 O159 1.281 . S
C147 O160 1.236 . S
C148 O170 1.240 . S
C148 O171 1.264 . S
O149 Mn144 2.095 . S
O149 C158 1.250 . S
O150 Mn145 2.121 . S
O150 C158 1.258 . S
C151 N152 1.326 . S
C151 C155 1.460 . S
C151 H157 0.929 . S
N152 Mn145 2.257 . S
N152 C151 1.326 . S
N152 C156 1.362 . S
C153 C154 1.258 . S
C153 C156 1.431 . S
C153 C173 1.449 . S
C154 C153 1.258 . S
C154 C155 1.477 . S
C154 H174 0.939 . S
C155 C151 1.460 . S
C155 C154 1.477 . S
C155 H175 0.930 . S
C156 N152 1.362 . S
C156 C153 1.431 . S
C156 C166 1.476 . S
H157 C151 0.929 . S
C158 O149 1.250 . S
C158 O150 1.258 . S
O159 Mn144 2.162 . S
O159 C147 1.281 . S
O160 Mn144 2.297 . S
O160 C147 1.236 . S
N161 Mn145 2.282 . S
N161 C162 1.328 . S
N161 C166 1.318 . S
C162 N161 1.328 . S
C162 C163 1.457 . S
C162 H167 0.929 . S
C163 C162 1.457 . S
C163 C164 1.291 . S
C163 H176 0.931 . S
C164 C163 1.291 . S
C164 C165 1.373 . S
C164 H177 0.929 . S
C165 C164 1.373 . S
C165 C166 1.396 . S
C165 C172 1.403 . S
C166 C156 1.476 . S
C166 N161 1.318 . S
C166 C165 1.396 . S
H167 C162 0.929 . S
O168 Mn144 2.385 . S
O168 C146 1.234 . S
O169 Mn144 2.209 . S
O169 Mn145 2.215 . S
O169 C146 1.283 . S
O170 Mn144 2.094 . S
O170 C148 1.240 . S
O171 Mn145 2.117 . S
O171 C148 1.264 . S
C172 C165 1.403 . S
C172 C173 1.399 . S
C172 H178 0.929 . S
C173 C153 1.449 . S
C173 C172 1.399 . S
C173 H179 0.930 1_655 S
H174 C154 0.939 . S
H175 C155 0.930 . S
H176 C163 0.931 . S
H177 C164 0.929 . S
H178 C172 0.929 . S
H179 C173 0.930 1_455 S
Mn180 O185 2.095 . S
Mn180 O195 2.162 . S
Mn180 O196 2.297 . S
Mn180 O204 2.385 . S
Mn180 O205 2.209 . S
Mn180 O206 2.094 . S
Mn181 O186 2.121 . S
Mn181 N188 2.257 . S
Mn181 N197 2.282 . S
Mn181 O205 2.215 . S
Mn181 O207 2.117 . S
C182 O204 1.234 . S
C182 O205 1.283 . S
C183 O195 1.281 . S
C183 O196 1.236 . S
C184 O206 1.240 . S
C184 O207 1.264 . S
O185 Mn180 2.095 . S
O185 C194 1.250 . S
O186 Mn181 2.121 . S
O186 C194 1.258 . S
C187 N188 1.326 . S
C187 C191 1.460 . S
C187 H193 0.929 . S
N188 Mn181 2.257 . S
N188 C187 1.326 . S
N188 C192 1.362 . S
C189 C190 1.258 . S
C189 C192 1.431 . S
C189 C209 1.449 . S
C190 C189 1.258 . S
C190 C191 1.477 . S
C190 H210 0.931 . S
C191 C187 1.460 . S
C191 C190 1.477 . S
C191 H211 0.930 . S
C192 N188 1.362 . S
C192 C189 1.431 . S
C192 C202 1.476 . S
H193 C187 0.929 . S
C194 O185 1.250 . S
C194 O186 1.258 . S
O195 Mn180 2.162 . S
O195 C183 1.281 . S
O196 Mn180 2.297 . S
O196 C183 1.236 . S
N197 Mn181 2.282 . S
N197 C198 1.328 . S
N197 C202 1.318 . S
C198 N197 1.328 . S
C198 C199 1.457 . S
C198 H203 0.929 . S
C199 C198 1.457 . S
C199 C200 1.291 . S
C199 H212 0.912 1_545 S
C200 C199 1.291 . S
C200 C201 1.373 . S
C200 H213 0.929 . S
C201 C200 1.373 . S
C201 C202 1.396 . S
C201 C208 1.403 . S
C202 C192 1.476 . S
C202 N197 1.318 . S
C202 C201 1.396 . S
H203 C198 0.929 . S
O204 Mn180 2.385 . S
O204 C182 1.234 . S
O205 Mn180 2.209 . S
O205 Mn181 2.215 . S
O205 C182 1.283 . S
O206 Mn180 2.094 . S
O206 C184 1.240 . S
O207 Mn181 2.117 . S
O207 C184 1.264 . S
C208 C201 1.403 . S
C208 C209 1.399 . S
C208 H214 0.929 . S
C209 C189 1.449 . S
C209 C208 1.399 . S
C209 H215 0.930 . S
H210 C190 0.931 . S
H211 C191 0.930 . S
H212 C199 0.912 1_565 S
H213 C200 0.929 . S
H214 C208 0.929 . S
H215 C209 0.930 . S
Mn216 O221 2.095 . S
Mn216 O231 2.162 . S
Mn216 O232 2.297 . S
Mn216 O240 2.385 . S
Mn216 O241 2.209 . S
Mn216 O242 2.094 . S
Mn217 O222 2.121 . S
Mn217 N224 2.257 . S
Mn217 N233 2.282 . S
Mn217 O241 2.215 . S
Mn217 O243 2.117 . S
C218 O240 1.234 . S
C218 O241 1.283 . S
C219 O231 1.281 . S
C219 O232 1.236 . S
C220 O242 1.240 . S
C220 O243 1.264 . S
O221 Mn216 2.095 . S
O221 C230 1.250 . S
O222 Mn217 2.121 . S
O222 C230 1.258 . S
C223 N224 1.326 . S
C223 C227 1.460 . S
C223 H229 0.929 . S
N224 Mn217 2.257 . S
N224 C223 1.326 . S
N224 C228 1.362 . S
C225 C226 1.258 . S
C225 C228 1.431 . S
C225 C245 1.449 . S
C226 C225 1.258 . S
C226 C227 1.477 . S
C226 H246 0.931 . S
C227 C223 1.460 . S
C227 C226 1.477 . S
C227 H247 0.930 . S
C228 N224 1.362 . S
C228 C225 1.431 . S
C228 C238 1.476 . S
H229 C223 0.929 . S
C230 O221 1.250 . S
C230 O222 1.258 . S
O231 Mn216 2.162 . S
O231 C219 1.281 . S
O232 Mn216 2.297 . S
O232 C219 1.236 . S
N233 Mn217 2.282 . S
N233 C234 1.328 . S
N233 C238 1.318 . S
C234 N233 1.328 . S
C234 C235 1.457 . S
C234 H239 0.929 . S
C235 C234 1.457 . S
C235 C236 1.291 . S
C235 H248 0.931 . S
C236 C235 1.291 . S
C236 C237 1.373 . S
C236 H249 0.929 . S
C237 C236 1.373 . S
C237 C238 1.396 . S
C237 C244 1.403 . S
C238 C228 1.476 . S
C238 N233 1.318 . S
C238 C237 1.396 . S
H239 C234 0.929 . S
O240 Mn216 2.385 . S
O240 C218 1.234 . S
O241 Mn216 2.209 . S
O241 Mn217 2.215 . S
O241 C218 1.283 . S
O242 Mn216 2.094 . S
O242 C220 1.240 . S
O243 Mn217 2.117 . S
O243 C220 1.264 . S
C244 C237 1.403 . S
C244 C245 1.399 . S
C244 H250 0.929 . S
C245 C225 1.449 . S
C245 C244 1.399 . S
C245 H251 0.930 . S
H246 C226 0.931 . S
H247 C227 0.930 . S
H248 C235 0.931 . S
H249 C236 0.929 . S
H250 C244 0.929 . S
H251 C245 0.930 . S
Mn252 O257 2.095 . S
Mn252 O267 2.162 . S
Mn252 O268 2.297 . S
Mn252 O276 2.385 . S
Mn252 O277 2.209 . S
Mn252 O278 2.094 . S
Mn253 O258 2.121 . S
Mn253 N260 2.257 . S
Mn253 N269 2.282 . S
Mn253 O277 2.215 . S
Mn253 O279 2.117 . S
C254 O276 1.234 . S
C254 O277 1.283 . S
C255 O267 1.281 . S
C255 O268 1.236 . S
C256 O278 1.240 . S
C256 O279 1.264 . S
O257 Mn252 2.095 . S
O257 C266 1.250 . S
O258 Mn253 2.121 . S
O258 C266 1.258 . S
C259 N260 1.326 . S
C259 C263 1.460 . S
C259 H265 0.929 . S
N260 Mn253 2.257 . S
N260 C259 1.326 . S
N260 C264 1.362 . S
C261 C262 1.258 . S
C261 C264 1.431 . S
C261 C281 1.449 . S
C262 C261 1.258 . S
C262 C263 1.477 . S
C262 H282 0.939 . S
C263 C259 1.460 . S
C263 C262 1.477 . S
C263 H283 0.930 . S
C264 N260 1.362 . S
C264 C261 1.431 . S
C264 C274 1.476 . S
H265 C259 0.929 . S
C266 O257 1.250 . S
C266 O258 1.258 . S
O267 Mn252 2.162 . S
O267 C255 1.281 . S
O268 Mn252 2.297 . S
O268 C255 1.236 . S
N269 Mn253 2.282 . S
N269 C270 1.328 . S
N269 C274 1.318 . S
C270 N269 1.328 . S
C270 C271 1.457 . S
C270 H275 0.929 . S
C271 C270 1.457 . S
C271 C272 1.291 . S
C271 H284 0.912 1_565 S
C272 C271 1.291 . S
C272 C273 1.373 . S
C272 H285 0.929 . S
C273 C272 1.373 . S
C273 C274 1.396 . S
C273 C280 1.403 . S
C274 C264 1.476 . S
C274 N269 1.318 . S
C274 C273 1.396 . S
H275 C270 0.929 . S
O276 Mn252 2.385 . S
O276 C254 1.234 . S
O277 Mn252 2.209 . S
O277 Mn253 2.215 . S
O277 C254 1.283 . S
O278 Mn252 2.094 . S
O278 C256 1.240 . S
O279 Mn253 2.117 . S
O279 C256 1.264 . S
C280 C273 1.403 . S
C280 C281 1.399 . S
C280 H286 0.929 . S
C281 C261 1.449 . S
C281 C280 1.399 . S
C281 H287 0.930 1_455 S
H282 C262 0.939 . S
H283 C263 0.930 . S
H284 C271 0.912 1_545 S
H285 C272 0.929 . S
H286 C280 0.929 . S
H287 C281 0.930 1_655 S
C288 C289 1.349 . S
C288 C290 1.327 . S
C288 H313 0.950 . S
C289 C288 1.349 . S
C289 C305 1.349 . S
C290 C288 1.327 . S
C290 C309 1.429 . S
C290 H314 0.950 . S
C291 C308 1.574 . S
C291 C310 1.368 . S
C291 H315 0.949 . S
H292 C296 0.949 . S
C293 C294 1.349 . S
C293 C295 1.327 . S
C293 H316 0.950 . S
C294 C293 1.349 . S
C294 C306 1.349 . S
C295 C293 1.327 . S
C295 C311 1.429 . S
C295 H317 0.950 . S
C296 H292 0.949 . S
C296 C304 1.574 . S
C296 C312 1.368 . S
H297 C305 0.950 . S
H298 C303 0.950 . S
H299 C304 0.949 . S
H300 C306 0.950 . S
H301 C307 0.950 . S
H302 C308 0.949 . S
C303 H298 0.950 . S
C303 C305 1.327 . S
C303 C309 1.429 . S
C304 C296 1.574 . S
C304 H299 0.949 . S
C304 C310 1.368 . S
C305 C289 1.349 . S
C305 H297 0.950 . S
C305 C303 1.327 . S
C306 C294 1.349 . S
C306 H300 0.950 . S
C306 C307 1.327 . S
C307 H301 0.950 . S
C307 C306 1.327 . S
C307 C311 1.429 . S
C308 C291 1.574 . S
C308 H302 0.949 . S
C308 C312 1.368 . S
C309 C290 1.429 . S
C309 C303 1.429 . S
C309 C310 1.523 . S
C310 C291 1.368 . S
C310 C304 1.368 . S
C310 C309 1.523 . S
C311 C295 1.429 . S
C311 C307 1.429 . S
C311 C312 1.523 . S
C312 C296 1.368 . S
C312 C308 1.368 . S
C312 C311 1.523 . S
H313 C288 0.950 . S
H314 C290 0.950 . S
H315 C291 0.949 . S
H316 C293 0.950 . S
H317 C295 0.950 . S
C318 C319 1.349 . S
C318 C320 1.327 1_655 S
C318 H343 0.950 . S
C319 C318 1.349 . S
C319 C335 1.349 . S
C320 C318 1.327 1_455 S
C320 C339 1.429 . S
C320 H344 0.950 1_545 S
C321 C338 1.574 . S
C321 C340 1.368 . S
C321 H345 0.949 . S
H322 C326 0.949 . S
C323 C324 1.349 . S
C323 C325 1.327 1_565 S
C323 H346 0.950 1_565 S
C324 C323 1.349 . S
C324 C336 1.349 . S
C325 C323 1.327 1_545 S
C325 C341 1.429 1_545 S
C325 H347 0.950 . S
C326 H322 0.949 . S
C326 C334 1.574 . S
C326 C342 1.368 . S
H327 C335 0.950 . S
H328 C333 0.950 . S
H329 C334 0.949 . S
H330 C336 0.950 . S
H331 C337 0.950 . S
H332 C338 0.949 . S
C333 H328 0.950 . S
C333 C335 1.327 1_455 S
C333 C339 1.429 . S
C334 C326 1.574 . S
C334 H329 0.949 . S
C334 C340 1.368 1_565 S
C335 C319 1.349 . S
C335 H327 0.950 . S
C335 C333 1.327 1_655 S
C336 C324 1.349 . S
C336 H330 0.950 . S
C336 C337 1.327 . S
C337 H331 0.950 . S
C337 C336 1.327 . S
C337 C341 1.429 . S
C338 C321 1.574 . S
C338 H332 0.949 . S
C338 C342 1.368 1_545 S
C339 C320 1.429 . S
C339 C333 1.429 . S
C339 C340 1.523 . S
C340 C321 1.368 . S
C340 C334 1.368 1_545 S
C340 C339 1.523 . S
C341 C325 1.429 1_565 S
C341 C337 1.429 . S
C341 C342 1.523 . S
C342 C326 1.368 . S
C342 C338 1.368 1_565 S
C342 C341 1.523 . S
H343 C318 0.950 . S
H344 C320 0.950 1_565 S
H345 C321 0.949 . S
H346 C323 0.950 1_545 S
H347 C325 0.950 . S
C348 C349 1.349 . S
C348 C350 1.327 . S
C348 H373 0.950 . S
C349 C348 1.349 . S
C349 C365 1.349 . S
C350 C348 1.327 . S
C350 C369 1.429 . S
C350 H374 0.950 . S
C351 C368 1.574 . S
C351 C370 1.368 . S
C351 H375 0.949 . S
H352 C356 0.949 . S
C353 C354 1.349 . S
C353 C355 1.327 . S
C353 H376 0.950 . S
C354 C353 1.349 . S
C354 C366 1.349 . S
C355 C353 1.327 . S
C355 C371 1.429 1_455 S
C355 H377 0.950 . S
C356 H352 0.949 . S
C356 C364 1.574 . S
C356 C372 1.368 . S
H357 C365 0.950 . S
H358 C363 0.950 . S
H359 C364 0.949 . S
H360 C366 0.950 . S
H361 C367 0.950 . S
H362 C368 0.949 . S
C363 H358 0.950 . S
C363 C365 1.327 . S
C363 C369 1.429 . S
C364 C356 1.574 . S
C364 H359 0.949 . S
C364 C370 1.368 . S
C365 C349 1.349 . S
C365 H357 0.950 . S
C365 C363 1.327 . S
C366 C354 1.349 . S
C366 H360 0.950 . S
C366 C367 1.327 1_455 S
C367 H361 0.950 . S
C367 C366 1.327 1_655 S
C367 C371 1.429 . S
C368 C351 1.574 . S
C368 H362 0.949 . S
C368 C372 1.368 . S
C369 C350 1.429 . S
C369 C363 1.429 . S
C369 C370 1.523 . S
C370 C351 1.368 . S
C370 C364 1.368 . S
C370 C369 1.523 . S
C371 C355 1.429 1_655 S
C371 C367 1.429 . S
C371 C372 1.523 . S
C372 C356 1.368 . S
C372 C368 1.368 . S
C372 C371 1.523 . S
H373 C348 0.950 . S
H374 C350 0.950 . S
H375 C351 0.949 . S
H376 C353 0.950 . S
H377 C355 0.950 . S
C378 C379 1.349 . S
C378 C380 1.327 . S
C378 H403 0.950 . S
C379 C378 1.349 . S
C379 C395 1.349 . S
C380 C378 1.327 . S
C380 C399 1.429 . S
C380 H404 0.950 . S
C381 C398 1.574 . S
C381 C400 1.368 1_565 S
C381 H405 0.949 . S
H382 C386 0.949 . S
C383 C384 1.349 . S
C383 C385 1.327 . S
C383 H406 0.950 . S
C384 C383 1.349 . S
C384 C396 1.349 . S
C385 C383 1.327 . S
C385 C401 1.429 . S
C385 H407 0.950 . S
C386 H382 0.949 . S
C386 C394 1.574 . S
C386 C402 1.368 1_545 S
H387 C395 0.950 1_565 S
H388 C393 0.950 . S
H389 C394 0.949 . S
H390 C396 0.950 1_545 S
H391 C397 0.950 1_545 S
H392 C398 0.949 . S
C393 H388 0.950 . S
C393 C395 1.327 1_565 S
C393 C399 1.429 1_565 S
C394 C386 1.574 . S
C394 H389 0.949 . S
C394 C400 1.368 . S
C395 C379 1.349 . S
C395 H387 0.950 1_545 S
C395 C393 1.327 1_545 S
C396 C384 1.349 . S
C396 H390 0.950 1_565 S
C396 C397 1.327 . S
C397 H391 0.950 1_565 S
C397 C396 1.327 . S
C397 C401 1.429 . S
C398 C381 1.574 . S
C398 H392 0.949 . S
C398 C402 1.368 . S
C399 C380 1.429 . S
C399 C393 1.429 1_545 S
C399 C400 1.523 . S
C400 C381 1.368 1_545 S
C400 C394 1.368 . S
C400 C399 1.523 . S
C401 C385 1.429 . S
C401 C397 1.429 . S
C401 C402 1.523 . S
C402 C386 1.368 1_565 S
C402 C398 1.368 . S
C402 C401 1.523 . S
H403 C378 0.950 . S
H404 C380 0.950 . S
H405 C381 0.949 . S
H406 C383 0.950 . S
H407 C385 0.950 . S
C408 C409 1.349 . S
C408 C410 1.327 . S
C408 H433 0.950 . S
C409 C408 1.349 . S
C409 C425 1.349 . S
C410 C408 1.327 . S
C410 C429 1.429 . S
C410 H434 0.950 . S
C411 C428 1.574 . S
C411 C430 1.368 . S
C411 H435 0.949 . S
H412 C416 0.949 . S
C413 C414 1.349 . S
C413 C415 1.327 . S
C413 H436 0.950 . S
C414 C413 1.349 . S
C414 C426 1.349 . S
C415 C413 1.327 . S
C415 C431 1.429 . S
C415 H437 0.950 . S
C416 H412 0.949 . S
C416 C424 1.574 . S
C416 C432 1.368 . S
H417 C425 0.950 . S
H418 C423 0.950 . S
H419 C424 0.949 . S
H420 C426 0.950 . S
H421 C427 0.950 . S
H422 C428 0.949 . S
C423 H418 0.950 . S
C423 C425 1.327 . S
C423 C429 1.429 . S
C424 C416 1.574 . S
C424 H419 0.949 . S
C424 C430 1.368 . S
C425 C409 1.349 . S
C425 H417 0.950 . S
C425 C423 1.327 . S
C426 C414 1.349 . S
C426 H420 0.950 . S
C426 C427 1.327 . S
C427 H421 0.950 . S
C427 C426 1.327 . S
C427 C431 1.429 . S
C428 C411 1.574 . S
C428 H422 0.949 . S
C428 C432 1.368 . S
C429 C410 1.429 . S
C429 C423 1.429 . S
C429 C430 1.523 . S
C430 C411 1.368 . S
C430 C424 1.368 . S
C430 C429 1.523 . S
C431 C415 1.429 . S
C431 C427 1.429 . S
C431 C432 1.523 . S
C432 C416 1.368 . S
C432 C428 1.368 . S
C432 C431 1.523 . S
H433 C408 0.950 . S
H434 C410 0.950 . S
H435 C411 0.949 . S
H436 C413 0.950 . S
H437 C415 0.950 . S
C438 C439 1.349 . S
C438 C440 1.327 1_545 S
C438 H463 0.950 1_545 S
C439 C438 1.349 . S
C439 C455 1.349 . S
C440 C438 1.327 1_565 S
C440 C459 1.429 1_565 S
C440 H464 0.950 . S
C441 C458 1.574 . S
C441 C460 1.368 . S
C441 H465 0.949 . S
H442 C446 0.949 . S
C443 C444 1.349 . S
C443 C445 1.327 1_455 S
C443 H466 0.950 . S
C444 C443 1.349 . S
C444 C456 1.349 . S
C445 C443 1.327 1_655 S
C445 C461 1.429 . S
C445 H467 0.950 1_565 S
C446 H442 0.949 . S
C446 C454 1.574 . S
C446 C462 1.368 . S
H447 C455 0.950 . S
H448 C453 0.950 . S
H449 C454 0.949 . S
H450 C456 0.950 . S
H451 C457 0.948 1_655 S
H452 C458 0.949 . S
C453 H448 0.950 . S
C453 C455 1.327 . S
C453 C459 1.429 . S
C454 C446 1.574 . S
C454 H449 0.949 . S
C454 C460 1.368 1_565 S
C455 C439 1.349 . S
C455 H447 0.950 . S
C455 C453 1.327 . S
C456 C444 1.349 . S
C456 H450 0.950 . S
C456 C457 1.333 . S
C457 H451 0.948 1_455 S
C457 C456 1.333 . S
C457 C461 1.424 1_455 S
C458 C441 1.574 . S
C458 H452 0.949 . S
C458 C462 1.368 1_545 S
C459 C440 1.429 1_545 S
C459 C453 1.429 . S
C459 C460 1.523 . S
C460 C441 1.368 . S
C460 C454 1.368 1_545 S
C460 C459 1.523 . S
C461 C445 1.429 . S
C461 C457 1.424 1_655 S
C461 C462 1.523 . S
C462 C446 1.368 . S
C462 C458 1.368 1_565 S
C462 C461 1.523 . S
H463 C438 0.950 1_565 S
H464 C440 0.950 . S
H465 C441 0.949 . S
H466 C443 0.950 . S
H467 C445 0.950 1_545 S
C468 C469 1.349 . S
C468 C470 1.327 . S
C468 H493 0.950 . S
C469 C468 1.349 . S
C469 C485 1.349 . S
C470 C468 1.327 . S
C470 C489 1.429 . S
C470 H494 0.950 . S
C471 C488 1.574 . S
C471 C490 1.368 . S
C471 H495 0.949 . S
H472 C476 0.949 . S
C473 C474 1.349 . S
C473 C475 1.327 . S
C473 H496 0.950 . S
C474 C473 1.349 . S
C474 C486 1.349 . S
C475 C473 1.327 . S
C475 C491 1.429 1_655 S
C475 H497 0.950 . S
C476 H472 0.949 . S
C476 C484 1.574 . S
C476 C492 1.368 . S
H477 C485 0.950 . S
H478 C483 0.950 . S
H479 C484 0.949 . S
H480 C486 0.950 . S
H481 C487 0.950 . S
H482 C488 0.949 . S
C483 H478 0.950 . S
C483 C485 1.327 . S
C483 C489 1.429 . S
C484 C476 1.574 . S
C484 H479 0.949 . S
C484 C490 1.368 . S
C485 C469 1.349 . S
C485 H477 0.950 . S
C485 C483 1.327 . S
C486 C474 1.349 . S
C486 H480 0.950 . S
C486 C487 1.327 1_655 S
C487 H481 0.950 . S
C487 C486 1.327 1_455 S
C487 C491 1.429 . S
C488 C471 1.574 . S
C488 H482 0.949 . S
C488 C492 1.368 . S
C489 C470 1.429 . S
C489 C483 1.429 . S
C489 C490 1.523 . S
C490 C471 1.368 . S
C490 C484 1.368 . S
C490 C489 1.523 . S
C491 C475 1.429 1_455 S
C491 C487 1.429 . S
C491 C492 1.523 . S
C492 C476 1.368 . S
C492 C488 1.368 . S
C492 C491 1.523 . S
H493 C468 0.950 . S
H494 C470 0.950 . S
H495 C471 0.949 . S
H496 C473 0.950 . S
H497 C475 0.950 . S
C498 C499 1.349 . S
C498 C500 1.321 1_565 S
C498 H523 0.950 1_565 S
C499 C498 1.349 . S
C499 C515 1.349 . S
C500 C498 1.321 1_545 S
C500 C519 1.419 1_545 S
C500 H524 0.967 . S
C501 C518 1.574 . S
C501 C520 1.368 . S
C501 H525 0.949 . S
H502 C506 0.949 . S
C503 C504 1.349 . S
C503 C505 1.327 . S
C503 H526 0.950 . S
C504 C503 1.349 . S
C504 C516 1.349 . S
C505 C503 1.327 . S
C505 C521 1.429 . S
C505 H527 0.950 1_545 S
C506 H502 0.949 . S
C506 C514 1.574 . S
C506 C522 1.368 . S
H507 C515 0.950 . S
H508 C513 0.950 . S
H509 C514 0.949 . S
H510 C516 0.950 . S
H511 C517 0.950 . S
H512 C518 0.949 . S
C513 H508 0.950 . S
C513 C515 1.327 . S
C513 C519 1.429 . S
C514 C506 1.574 . S
C514 H509 0.949 . S
C514 C520 1.368 1_545 S
C515 C499 1.349 . S
C515 H507 0.950 . S
C515 C513 1.327 . S
C516 C504 1.349 . S
C516 H510 0.950 . S
C516 C517 1.327 . S
C517 H511 0.950 . S
C517 C516 1.327 . S
C517 C521 1.429 . S
C518 C501 1.574 . S
C518 H512 0.949 . S
C518 C522 1.368 1_565 S
C519 C500 1.419 1_565 S
C519 C513 1.429 . S
C519 C520 1.523 . S
C520 C501 1.368 . S
C520 C514 1.368 1_565 S
C520 C519 1.523 . S
C521 C505 1.429 . S
C521 C517 1.429 . S
C521 C522 1.523 . S
C522 C506 1.368 . S
C522 C518 1.368 1_545 S
C522 C521 1.523 . S
H523 C498 0.950 1_545 S
H524 C500 0.967 . S
H525 C501 0.949 . S
H526 C503 0.950 . S
H527 C505 0.950 1_565 S
C528 C529 1.349 . S
C528 C530 1.327 . S
C528 H553 0.950 . S
C529 C528 1.349 . S
C529 C545 1.349 . S
C530 C528 1.327 . S
C530 C549 1.429 . S
C530 H554 0.950 . S
C531 C548 1.574 . S
C531 C550 1.368 1_655 S
C531 H555 0.949 . S
H532 C536 0.949 . S
C533 C534 1.349 . S
C533 C535 1.327 . S
C533 H556 0.950 . S
C534 C533 1.349 . S
C534 C546 1.349 . S
C535 C533 1.327 . S
C535 C551 1.429 . S
C535 H557 0.950 . S
C536 H532 0.949 . S
C536 C544 1.574 . S
C536 C552 1.368 1_455 S
H537 C545 0.950 . S
H538 C543 0.950 . S
H539 C544 0.949 . S
H540 C546 0.950 . S
H541 C547 0.950 . S
H542 C548 0.949 . S
C543 H538 0.950 . S
C543 C545 1.327 . S
C543 C549 1.429 . S
C544 C536 1.574 . S
C544 H539 0.949 . S
C544 C550 1.368 . S
C545 C529 1.349 . S
C545 H537 0.950 . S
C545 C543 1.327 . S
C546 C534 1.349 . S
C546 H540 0.950 . S
C546 C547 1.327 . S
C547 H541 0.950 . S
C547 C546 1.327 . S
C547 C551 1.429 . S
C548 C531 1.574 . S
C548 H542 0.949 . S
C548 C552 1.368 . S
C549 C530 1.429 . S
C549 C543 1.429 . S
C549 C550 1.523 . S
C550 C531 1.368 1_455 S
C550 C544 1.368 . S
C550 C549 1.523 . S
C551 C535 1.429 . S
C551 C547 1.429 . S
C551 C552 1.523 . S
C552 C536 1.368 1_655 S
C552 C548 1.368 . S
C552 C551 1.523 . S
H553 C528 0.950 . S
H554 C530 0.950 . S
H555 C531 0.949 . S
H556 C533 0.950 . S
H557 C535 0.950 . S
C558 C559 1.349 . S
C558 C560 1.328 . S
C558 H583 0.950 1_565 S
C559 C558 1.349 . S
C559 C575 1.349 . S
C560 C558 1.328 . S
C560 C579 1.429 . S
C560 H584 0.948 1_565 S
C561 C578 1.574 . S
C561 C580 1.368 . S
C561 H585 0.949 . S
H562 C566 0.949 . S
C563 C564 1.349 . S
C563 C565 1.328 . S
C563 H586 0.950 1_545 S
C564 C563 1.349 . S
C564 C576 1.349 . S
C565 C563 1.328 . S
C565 C581 1.429 . S
C565 H587 0.948 1_545 S
C566 H562 0.949 . S
C566 C574 1.574 . S
C566 C582 1.368 . S
H567 C575 0.950 . S
H568 C573 0.950 . S
H569 C574 0.949 . S
H570 C576 0.950 . S
H571 C577 0.950 . S
H572 C578 0.949 . S
C573 H568 0.950 . S
C573 C575 1.327 . S
C573 C579 1.429 . S
C574 C566 1.574 . S
C574 H569 0.949 . S
C574 C580 1.368 1_545 S
C575 C559 1.349 . S
C575 H567 0.950 . S
C575 C573 1.327 . S
C576 C564 1.349 . S
C576 H570 0.950 . S
C576 C577 1.327 . S
C577 H571 0.950 . S
C577 C576 1.327 . S
C577 C581 1.429 . S
C578 C561 1.574 . S
C578 H572 0.949 . S
C578 C582 1.368 1_565 S
C579 C560 1.429 . S
C579 C573 1.429 . S
C579 C580 1.523 . S
C580 C561 1.368 . S
C580 C574 1.368 1_565 S
C580 C579 1.523 . S
C581 C565 1.429 . S
C581 C577 1.429 . S
C581 C582 1.523 . S
C582 C566 1.368 . S
C582 C578 1.368 1_545 S
C582 C581 1.523 . S
H583 C558 0.950 1_545 S
H584 C560 0.948 1_545 S
H585 C561 0.949 . S
H586 C563 0.950 1_565 S
H587 C565 0.948 1_565 S
C588 C589 1.349 . S
C588 C590 1.327 . S
C588 H613 0.950 . S
C589 C588 1.349 . S
C589 C605 1.349 . S
C590 C588 1.327 . S
C590 C609 1.429 . S
C590 H614 0.950 . S
C591 C608 1.574 1_554 S
C591 C610 1.368 . S
C591 H615 0.949 . S
H592 C596 0.949 . S
C593 C594 1.349 . S
C593 C595 1.327 . S
C593 H616 0.950 . S
C594 C593 1.349 . S
C594 C606 1.349 . S
C595 C593 1.327 . S
C595 C611 1.429 . S
C595 H617 0.950 . S
C596 H592 0.949 . S
C596 C604 1.574 1_556 S
C596 C612 1.368 . S
H597 C605 0.950 . S
H598 C603 0.950 . S
H599 C604 0.949 . S
H600 C606 0.950 . S
H601 C607 0.950 . S
H602 C608 0.949 . S
C603 H598 0.950 . S
C603 C605 1.327 . S
C603 C609 1.429 . S
C604 C596 1.574 1_554 S
C604 H599 0.949 . S
C604 C610 1.368 . S
C605 C589 1.349 . S
C605 H597 0.950 . S
C605 C603 1.327 . S
C606 C594 1.349 . S
C606 H600 0.950 . S
C606 C607 1.327 . S
C607 H601 0.950 . S
C607 C606 1.327 . S
C607 C611 1.429 . S
C608 C591 1.574 1_556 S
C608 H602 0.949 . S
C608 C612 1.368 . S
C609 C590 1.429 . S
C609 C603 1.429 . S
C609 C610 1.523 . S
C610 C591 1.368 . S
C610 C604 1.368 . S
C610 C609 1.523 . S
C611 C595 1.429 . S
C611 C607 1.429 . S
C611 C612 1.523 . S
C612 C596 1.368 . S
C612 C608 1.368 . S
C612 C611 1.523 . S
H613 C588 0.950 . S
H614 C590 0.950 . S
H615 C591 0.949 . S
H616 C593 0.950 . S
H617 C595 0.950 . S
C618 C619 1.349 . S
C618 C620 1.327 . S
C618 H643 0.950 . S
C619 C618 1.349 . S
C619 C635 1.349 . S
C620 C618 1.327 . S
C620 C639 1.429 . S
C620 H644 0.950 1_565 S
C621 C638 1.574 1_556 S
C621 C640 1.368 1_655 S
C621 H645 0.949 . S
H622 C626 0.949 . S
C623 C624 1.349 . S
C623 C625 1.327 . S
C623 H646 0.950 . S
C624 C623 1.349 . S
C624 C636 1.349 . S
C625 C623 1.327 . S
C625 C641 1.429 . S
C625 H647 0.950 1_545 S
C626 H622 0.949 . S
C626 C634 1.574 1_554 S
C626 C642 1.368 1_455 S
H627 C635 0.950 . S
H628 C633 0.950 . S
H629 C634 0.949 . S
H630 C636 0.950 . S
H631 C637 0.950 . S
H632 C638 0.949 . S
C633 H628 0.950 . S
C633 C635 1.327 . S
C633 C639 1.429 . S
C634 C626 1.574 1_556 S
C634 H629 0.949 . S
C634 C640 1.368 1_545 S
C635 C619 1.349 . S
C635 H627 0.950 . S
C635 C633 1.327 . S
C636 C624 1.349 . S
C636 H630 0.950 . S
C636 C637 1.327 . S
C637 H631 0.950 . S
C637 C636 1.327 . S
C637 C641 1.429 . S
C638 C621 1.574 1_554 S
C638 H632 0.949 . S
C638 C642 1.368 1_565 S
C639 C620 1.429 . S
C639 C633 1.429 . S
C639 C640 1.523 . S
C640 C621 1.368 1_455 S
C640 C634 1.368 1_565 S
C640 C639 1.523 . S
C641 C625 1.429 . S
C641 C637 1.429 . S
C641 C642 1.523 . S
C642 C626 1.368 1_655 S
C642 C638 1.368 1_545 S
C642 C641 1.523 . S
H643 C618 0.950 . S
H644 C620 0.950 1_545 S
H645 C621 0.949 . S
H646 C623 0.950 . S
H647 C625 0.950 1_565 S
C648 C649 1.349 . S
C648 C650 1.327 . S
C648 H673 0.950 . S
C649 C648 1.349 . S
C649 C665 1.349 . S
C650 C648 1.327 . S
C650 C669 1.429 . S
C650 H674 0.950 . S
C651 C668 1.574 . S
C651 C670 1.368 . S
C651 H675 0.949 . S
H652 C656 0.949 . S
C653 C654 1.349 . S
C653 C655 1.327 . S
C653 H676 0.950 . S
C654 C653 1.349 . S
C654 C666 1.349 . S
C655 C653 1.327 . S
C655 C671 1.429 . S
C655 H677 0.950 . S
C656 H652 0.949 . S
C656 C664 1.574 . S
C656 C672 1.368 . S
H657 C665 0.950 . S
H658 C663 0.950 . S
H659 C664 0.949 . S
H660 C666 0.950 . S
H661 C667 0.950 . S
H662 C668 0.949 . S
C663 H658 0.950 . S
C663 C665 1.327 . S
C663 C669 1.429 . S
C664 C656 1.574 . S
C664 H659 0.949 . S
C664 C670 1.368 . S
C665 C649 1.349 . S
C665 H657 0.950 . S
C665 C663 1.327 . S
C666 C654 1.349 . S
C666 H660 0.950 . S
C666 C667 1.327 . S
C667 H661 0.950 . S
C667 C666 1.327 . S
C667 C671 1.429 . S
C668 C651 1.574 . S
C668 H662 0.949 . S
C668 C672 1.368 . S
C669 C650 1.429 . S
C669 C663 1.429 . S
C669 C670 1.523 . S
C670 C651 1.368 . S
C670 C664 1.368 . S
C670 C669 1.523 . S
C671 C655 1.429 . S
C671 C667 1.429 . S
C671 C672 1.523 . S
C672 C656 1.368 . S
C672 C668 1.368 . S
C672 C671 1.523 . S
H673 C648 0.950 . S
H674 C650 0.950 . S
H675 C651 0.949 . S
H676 C653 0.950 . S
H677 C655 0.950 . S
C678 C679 1.349 . S
C678 C680 1.327 . S
C678 H703 0.950 . S
C679 C678 1.349 . S
C679 C695 1.349 . S
C680 C678 1.327 . S
C680 C699 1.429 . S
C680 H704 0.950 . S
C681 C698 1.574 . S
C681 C700 1.368 . S
C681 H705 0.949 . S
H682 C686 0.949 . S
C683 C684 1.349 . S
C683 C685 1.327 . S
C683 H706 0.950 . S
C684 C683 1.349 . S
C684 C696 1.349 . S
C685 C683 1.327 . S
C685 C701 1.429 . S
C685 H707 0.950 . S
C686 H682 0.949 . S
C686 C694 1.574 . S
C686 C702 1.368 . S
H687 C695 0.950 . S
H688 C693 0.950 . S
H689 C694 0.949 . S
H690 C696 0.950 . S
H691 C697 0.950 . S
H692 C698 0.949 . S
C693 H688 0.950 . S
C693 C695 1.327 . S
C693 C699 1.429 . S
C694 C686 1.574 . S
C694 H689 0.949 . S
C694 C700 1.368 . S
C695 C679 1.349 . S
C695 H687 0.950 . S
C695 C693 1.327 . S
C696 C684 1.349 . S
C696 H690 0.950 . S
C696 C697 1.327 . S
C697 H691 0.950 . S
C697 C696 1.327 . S
C697 C701 1.429 . S
C698 C681 1.574 . S
C698 H692 0.949 . S
C698 C702 1.368 . S
C699 C680 1.429 . S
C699 C693 1.429 . S
C699 C700 1.523 . S
C700 C681 1.368 . S
C700 C694 1.368 . S
C700 C699 1.523 . S
C701 C685 1.429 . S
C701 C697 1.429 . S
C701 C702 1.523 . S
C702 C686 1.368 . S
C702 C698 1.368 . S
C702 C701 1.523 . S
H703 C678 0.950 . S
H704 C680 0.950 . S
H705 C681 0.949 . S
H706 C683 0.950 . S
H707 C685 0.950 . S
C708 C709 1.349 . S
C708 C710 1.327 . S
C708 H733 0.950 . S
C709 C708 1.349 . S
C709 C725 1.349 . S
C710 C708 1.327 . S
C710 C729 1.429 . S
C710 H734 0.950 . S
C711 C728 1.574 . S
C711 C730 1.368 . S
C711 H735 0.949 . S
H712 C716 0.949 . S
C713 C714 1.349 . S
C713 C715 1.327 . S
C713 H736 0.950 . S
C714 C713 1.349 . S
C714 C726 1.349 . S
C715 C713 1.327 . S
C715 C731 1.429 . S
C715 H737 0.950 . S
C716 H712 0.949 . S
C716 C724 1.574 . S
C716 C732 1.368 . S
H717 C725 0.950 . S
H718 C723 0.950 . S
H719 C724 0.949 . S
H720 C726 0.950 . S
H721 C727 0.950 . S
H722 C728 0.949 . S
C723 H718 0.950 . S
C723 C725 1.327 . S
C723 C729 1.429 . S
C724 C716 1.574 . S
C724 H719 0.949 . S
C724 C730 1.368 . S
C725 C709 1.349 . S
C725 H717 0.950 . S
C725 C723 1.327 . S
C726 C714 1.349 . S
C726 H720 0.950 . S
C726 C727 1.327 . S
C727 H721 0.950 . S
C727 C726 1.327 . S
C727 C731 1.429 . S
C728 C711 1.574 . S
C728 H722 0.949 . S
C728 C732 1.368 . S
C729 C710 1.429 . S
C729 C723 1.429 . S
C729 C730 1.523 . S
C730 C711 1.368 . S
C730 C724 1.368 . S
C730 C729 1.523 . S
C731 C715 1.429 . S
C731 C727 1.429 . S
C731 C732 1.523 . S
C732 C716 1.368 . S
C732 C728 1.368 . S
C732 C731 1.523 . S
H733 C708 0.950 . S
H734 C710 0.950 . S
H735 C711 0.949 . S
H736 C713 0.950 . S
H737 C715 0.950 . S
C738 C739 1.349 . S
C738 C740 1.327 . S
C738 H763 0.950 . S
C739 C738 1.349 . S
C739 C755 1.349 . S
C740 C738 1.327 . S
C740 C759 1.429 . S
C740 H764 0.950 . S
C741 C758 1.574 . S
C741 C760 1.368 . S
C741 H765 0.949 . S
H742 C746 0.949 . S
C743 C744 1.349 . S
C743 C745 1.327 . S
C743 H766 0.950 . S
C744 C743 1.349 . S
C744 C756 1.349 . S
C745 C743 1.327 . S
C745 C761 1.429 . S
C745 H767 0.950 . S
C746 H742 0.949 . S
C746 C754 1.574 . S
C746 C762 1.368 . S
H747 C755 0.950 . S
H748 C753 0.950 . S
H749 C754 0.949 . S
H750 C756 0.950 . S
H751 C757 0.950 . S
H752 C758 0.949 . S
C753 H748 0.950 . S
C753 C755 1.327 . S
C753 C759 1.429 . S
C754 C746 1.574 . S
C754 H749 0.949 . S
C754 C760 1.368 . S
C755 C739 1.349 . S
C755 H747 0.950 . S
C755 C753 1.327 . S
C756 C744 1.349 . S
C756 H750 0.950 . S
C756 C757 1.327 . S
C757 H751 0.950 . S
C757 C756 1.327 . S
C757 C761 1.429 . S
C758 C741 1.574 . S
C758 H752 0.949 . S
C758 C762 1.368 . S
C759 C740 1.429 . S
C759 C753 1.429 . S
C759 C760 1.523 . S
C760 C741 1.368 . S
C760 C754 1.368 . S
C760 C759 1.523 . S
C761 C745 1.429 . S
C761 C757 1.429 . S
C761 C762 1.523 . S
C762 C746 1.368 . S
C762 C758 1.368 . S
C762 C761 1.523 . S
H763 C738 0.950 . S
H764 C740 0.950 . S
H765 C741 0.949 . S
H766 C743 0.950 . S
H767 C745 0.950 . S
C289 C4 1.288 . S
C294 C74 1.296 . S
C319 C110 1.296 . S
C324 C40 1.288 . S
C349 C76 1.288 . S
C354 C2 1.296 . S
C379 C112 1.288 . S
C384 C38 1.296 . S
C409 C218 1.296 . S
C414 C148 1.288 . S
C439 C184 1.288 . S
C444 C254 1.296 . S
C469 C220 1.288 . S
C474 C146 1.296 . S
C499 C256 1.288 . S
C504 C182 1.296 . S
C529 C3 1.519 . S
C534 C147 1.519 . S
C559 C39 1.519 . S
C564 C183 1.519 . S
C589 C75 1.519 . S
C594 C219 1.519 . S
C619 C255 1.519 . S
C624 C111 1.519 . S
C649 C14 1.447 . S
C654 C50 1.447 . S
C679 C122 1.447 . S
C684 C86 1.447 . S
C709 C194 1.447 . S
C714 C158 1.447 . S
C739 C230 1.447 . S
C744 C266 1.447 . S
