# Generated by pormake.
# Topology sxb, (6)-cn, num edge types: 1
# Building blocks:
#     Node 0, Type 0, BuildingBlock: BETDIP_clean_sbu_0, # of connection points: 6
#     Node 1, Type 0, BuildingBlock: BETDIP_clean_sbu_0, # of connection points: 6
#     Node 2, Type 0, BuildingBlock: BETDIP_clean_sbu_0, # of connection points: 6
#     Node 3, Type 0, BuildingBlock: BETDIP_clean_sbu_0, # of connection points: 6
#     Edge 4, Type (0, 0), BuildingBlock: AJUNOK_clean_linker_0, # of connection points: 2
#     Edge 5, Type (0, 0), BuildingBlock: AJUNOK_clean_linker_0, # of connection points: 2
#     Edge 6, Type (0, 0), BuildingBlock: AJUNOK_clean_linker_0, # of connection points: 2
#     Edge 7, Type (0, 0), BuildingBlock: AJUNOK_clean_linker_0, # of connection points: 2
#     Edge 8, Type (0, 0), BuildingBlock: AJUNOK_clean_linker_0, # of connection points: 2
#     Edge 9, Type (0, 0), BuildingBlock: AJUNOK_clean_linker_0, # of connection points: 2
#     Edge 10, Type (0, 0), BuildingBlock: AJUNOK_clean_linker_0, # of connection points: 2
#     Edge 11, Type (0, 0), BuildingBlock: AJUNOK_clean_linker_0, # of connection points: 2
#     Edge 12, Type (0, 0), BuildingBlock: AJUNOK_clean_linker_0, # of connection points: 2
#     Edge 13, Type (0, 0), BuildingBlock: AJUNOK_clean_linker_0, # of connection points: 2
#     Edge 14, Type (0, 0), BuildingBlock: AJUNOK_clean_linker_0, # of connection points: 2
#     Edge 15, Type (0, 0), BuildingBlock: AJUNOK_clean_linker_0, # of connection points: 2
# Relax obj value: 0.673
# Max RMSD: 0.150
# Mean RMSD: 0.103
data_MOF--net-sxb--node1-BETDIP_clean_sbu_0--edge1-AJUNOK_clean_linker_0
_symmetry_space_group_name_H-M    P1
_symmetry_Int_Tables_number       1
_symmetry_cell_setting            triclinic
loop_
_symmetry_equiv_pos_as_xyz
'x, y, z'
_cell_length_a     12.497319
_cell_length_b     27.046271
_cell_length_c     22.064728
_cell_angle_alpha  91.718237
_cell_angle_beta   91.84803
_cell_angle_gamma 60.297989
loop_
_atom_site_label
_atom_site_type_symbol
_atom_site_fract_x
_atom_site_fract_y
_atom_site_fract_z
_atom_type_partial_charge
Tb0 Tb 0.92953 0.16816 0.00536 0.0
Tb1 Tb 0.16025 0.14965 0.01929 0.0
C2 C 0.7409 0.16073 0.98341 0.0
C3 C 0.74241 1.1214 0.93554 0.0
C4 C 0.63438 1.12703 0.90832 0.0
C5 C 0.64171 1.08629 0.86531 0.0
C6 C 0.75676 1.03892 0.85099 0.0
C7 C 0.86434 1.03732 0.87299 0.0
C8 C 0.85695 1.0785 0.91441 0.0
C9 C 1.02697 0.17142 0.89985 0.0
C10 C 0.93645 0.28052 0.0248 0.0
C11 C 0.37378 1.12497 -0.00263 0.0
C12 C 0.44318 1.07389 0.95775 0.0
C13 C 0.38088 1.06643 0.90731 0.0
C14 C 0.43221 1.01654 0.87323 0.0
C15 C 0.54888 0.97226 0.8883 0.0
C16 C 0.61874 0.97558 0.94066 0.0
C17 C 0.56022 1.02896 0.97456 0.0
C18 C 1.07039 0.14761 0.12748 0.0
C19 C 0.14552 1.03836 0.01596 0.0
O20 O 0.75401 0.20212 0.9636 0.0
O21 O 0.81365 1.13654 0.03015 0.0
O22 O 0.07735 1.13408 0.94032 0.0
O23 O 0.92058 0.20791 0.91917 0.0
O24 O 0.86895 0.25641 0.03574 0.0
O25 O 1.05578 0.2459 0.01303 0.0
O26 O 0.27917 0.16844 0.97167 0.0
O27 O 0.34525 1.1142 0.04986 0.0
O28 O 1.01202 0.18292 0.08587 0.0
O29 O 0.18112 1.11517 0.10929 0.0
O30 O 0.2122 1.06047 -0.00095 0.0
O31 O 1.02917 1.07476 0.02869 0.0
H32 H 0.5451 0.16117 0.92203 0.0
H33 H 0.55728 1.08845 0.84835 0.0
H34 H 0.9539 1.00148 0.86242 0.0
H35 H 0.94167 1.07593 0.93052 0.0
H36 H 0.29055 1.09955 0.89383 0.0
H37 H 0.3834 1.01347 0.8331 0.0
H38 H 0.83406 0.89219 0.94405 0.0
H39 H 0.60654 1.03631 0.01318 0.0
Tb40 Tb 0.07731 0.14145 0.51198 0.0
Tb41 Tb 1.00988 0.19569 0.51703 0.0
C42 C 0.17042 1.03706 0.53757 0.0
C43 C 0.10874 1.0039 0.54361 0.0
C44 C 0.14109 0.96692 0.59245 0.0
C45 C 1.06501 0.9453 0.60758 0.0
C46 C 0.95594 0.96078 0.57403 0.0
C47 C 0.92542 0.99662 0.52424 0.0
C48 C 1.00166 1.0179 0.50896 0.0
C49 C 1.05395 0.14763 0.39128 0.0
C50 C 0.79109 0.16443 0.48842 0.0
C51 C 0.91417 0.30036 0.49216 0.0
C52 C 0.97174 0.33571 0.48987 0.0
C53 C 0.95932 0.3648 0.43626 0.0
C54 C 1.04454 0.38178 0.42335 0.0
C55 C 0.14214 0.36995 0.46427 0.0
C56 C 0.14716 0.34587 0.52046 0.0
C57 C 1.06264 0.32864 0.53318 0.0
C58 C 1.03732 0.18862 0.63778 0.0
C59 C 0.29565 0.17385 0.54075 0.0
O60 O 0.13628 1.07777 0.57722 0.0
O61 O 0.17134 1.055 0.48409 0.0
O62 O 0.96869 0.16907 0.42944 0.0
O63 O 0.15776 1.12431 0.42078 0.0
O64 O 0.87333 0.16502 0.52878 0.0
O65 O 0.87171 0.16498 0.52941 0.0
O66 O 0.95645 0.25946 0.45245 0.0
O67 O 0.90758 0.28205 0.54457 0.0
O68 O 0.12101 0.16747 0.59894 0.0
O69 O 0.93278 0.21196 0.60899 0.0
O70 O 0.2138 0.17251 0.50066 0.0
O71 O 0.21538 0.17254 0.49985 0.0
H72 H 0.22217 0.95679 0.62033 0.0
H73 H 0.09006 0.91727 0.64592 0.0
H74 H 0.84277 1.00803 0.49714 0.0
H75 H 0.97452 1.04693 0.47147 0.0
H76 H 0.89061 0.36975 0.40207 0.0
H77 H 1.03934 0.40023 0.37971 0.0
H78 H 0.22087 0.33734 0.55303 0.0
H79 H 0.07493 0.30566 0.57457 0.0
Tb80 Tb 0.43356 0.66002 0.01736 0.0
Tb81 Tb 0.64652 0.65955 0.00817 0.0
C82 C 0.26756 0.63532 0.01649 0.0
C83 C 0.24594 0.61082 0.95966 0.0
C84 C 0.3385 0.55783 0.93686 0.0
C85 C 0.33676 0.54232 0.87585 0.0
C86 C 0.24375 0.57975 0.83613 0.0
C87 C 0.14931 0.63177 0.85969 0.0
C88 C 0.14958 0.64668 0.92058 0.0
C89 C 0.4836 0.66751 0.90135 0.0
C90 C 0.39972 0.782 0.0286 0.0
C91 C 0.7988 0.67486 0.95442 0.0
C92 C 0.84937 0.64847 0.89519 0.0
C93 C 0.81841 0.68251 0.84377 0.0
C94 C 0.85509 0.6577 0.78626 0.0
C95 C 0.92878 0.598 0.77894 0.0
C96 C 0.94435 0.56443 0.8301 0.0
C97 C 0.90788 0.58923 0.88734 0.0
C98 C 0.61659 0.64669 0.12395 0.0
C99 C 0.67826 0.53802 0.01524 0.0
O100 O 0.24373 0.68782 0.01239 0.0
O101 O 0.3726 0.60416 0.04461 0.0
O102 O 0.55659 0.63428 0.94086 0.0
O103 O 0.38025 0.69794 0.92712 0.0
O104 O 0.34689 0.7518 0.04222 0.0
O105 O 0.51681 0.75374 0.01244 0.0
O106 O 0.68078 0.71087 0.95204 0.0
O107 O 0.83024 0.64107 0.00101 0.0
O108 O 0.53054 0.6795 0.08782 0.0
O109 O 0.72109 0.6262 0.09715 0.0
O110 O 0.72626 0.56666 -0.00888 0.0
O111 O 0.56586 0.56843 0.03696 0.0
H112 H 0.41548 0.52924 0.96538 0.0
H113 H 0.40883 0.50144 0.85957 0.0
H114 H 0.07341 0.66122 0.83129 0.0
H115 H 0.07781 0.68794 0.93628 0.0
H116 H 0.7659 0.72849 0.84808 0.0
H117 H 0.83142 0.68597 0.7485 0.0
H118 H 0.99254 0.51844 0.82758 0.0
H119 H 0.92598 0.56164 0.92542 0.0
Tb120 Tb 0.62371 0.60816 0.50872 0.0
Tb121 Tb 0.5576 0.66305 0.51648 0.0
C122 C 0.70847 0.50224 0.51945 0.0
C123 C 0.6766 0.46227 0.49014 0.0
C124 C 0.6676 0.42312 0.52643 0.0
C125 C 0.60369 0.39615 0.50493 0.0
C126 C 0.54783 0.40834 0.44691 0.0
C127 C 0.56928 0.44253 0.40811 0.0
C128 C 0.63229 0.47005 0.42991 0.0
C129 C 0.61468 0.62497 0.38892 0.0
C130 C 0.35813 0.61677 0.52873 0.0
C131 C 0.4865 0.76751 0.50279 0.0
C132 C 0.52271 0.80524 0.53405 0.0
C133 C 0.49412 0.8569 0.50789 0.0
C134 C 0.5512 0.88706 0.52996 0.0
C135 C 0.63769 0.86543 0.57811 0.0
C136 C 0.65731 0.81633 0.6077 0.0
C137 C 0.60051 0.78614 0.58551 0.0
C138 C 0.53754 0.65503 0.63513 0.0
C139 C 0.8323 0.64679 0.49357 0.0
O140 O 0.62159 0.54086 0.5524 0.0
O141 O 0.75712 0.52408 0.48589 0.0
O142 O 0.52594 0.64299 0.42442 0.0
O143 O 0.71466 0.60036 0.42142 0.0
O144 O 0.41581 0.63669 0.49542 0.0
O145 O 0.41139 0.63768 0.49312 0.0
O146 O 0.57331 0.72665 0.4717 0.0
O147 O 0.42985 0.74886 0.53524 0.0
O148 O 0.63443 0.62994 0.6044 0.0
O149 O 0.44635 0.68241 0.59804 0.0
O150 O 0.76851 0.63159 0.52935 0.0
O151 O 0.77308 0.6309 0.53128 0.0
H152 H 0.70123 0.41691 0.57304 0.0
H153 H 0.58825 0.37004 0.53587 0.0
H154 H 0.52867 0.45166 0.36286 0.0
H155 H 0.63814 0.50046 0.40131 0.0
H156 H 0.43416 0.87193 0.4681 0.0
H157 H 0.53513 0.92476 0.50634 0.0
H158 H 0.72266 0.79937 0.64532 0.0
H159 H 0.62325 0.74613 0.6061 0.0
C160 C 0.20475 0.88119 0.0115 0.0
C161 C 0.33014 0.84773 0.03031 0.0
C162 C 0.14423 0.94213 0.00802 0.0
C163 C 0.20556 0.97333 0.02297 0.0
H164 H 0.15347 0.86002 -0.00237 0.0
H165 H 1.04941 0.9648 -0.00809 0.0
S166 S 0.52537 0.90829 0.08584 0.0
N167 N 0.50671 0.85286 0.07095 0.0
N168 N 0.3958 0.96486 0.0645 0.0
C169 C 0.32887 0.94042 0.04416 0.0
C170 C 0.38993 0.87881 0.04775 0.0
C171 C 0.68973 0.44227 0.03785 0.0
C172 C 0.74817 0.47225 0.01801 0.0
C173 C 0.75094 0.3816 0.04046 0.0
C174 C 0.87568 0.34621 0.02397 0.0
H175 H 0.59436 0.46593 0.05121 0.0
H176 H 0.69877 0.36224 0.05551 0.0
S177 S 0.07434 0.40167 0.96904 0.0
N178 N 0.94143 0.45994 0.98155 0.0
N179 N 1.05493 0.34776 -0.01315 0.0
C180 C 0.93578 0.37559 0.00444 0.0
C181 C 0.87301 0.43753 0.00137 0.0
C182 C 0.36634 0.3328 0.45467 0.0
C183 C 0.24504 0.37793 0.44715 0.0
C184 C 0.46658 0.34128 0.44796 0.0
C185 C 0.44837 0.3952 0.43369 0.0
H186 H 0.3836 0.29131 0.46849 0.0
H187 H 0.55834 0.30653 0.45797 0.0
S188 S 0.14893 0.52449 0.39988 0.0
N189 N 0.112 0.47602 0.41744 0.0
N190 N 0.30066 0.49262 0.4053 0.0
C191 C 0.32784 0.4393 0.42074 0.0
C192 C 0.22579 0.4305 0.42748 0.0
C193 C 0.75125 0.97098 0.59498 0.0
C194 C 0.87857 0.93588 0.58709 0.0
C195 C 0.67363 0.94753 0.59648 0.0
C196 C 0.7214 0.88848 0.58968 0.0
H197 H 0.71116 1.01684 0.59752 0.0
H198 H 0.57525 0.97583 0.60017 0.0
S199 S 1.04881 0.77971 0.56705 0.0
N200 N 1.04943 0.84033 0.57356 0.0
N201 N 0.90406 0.79577 0.57477 0.0
C202 C 0.84942 0.85301 0.58405 0.0
C203 C 0.928 0.87691 0.58315 0.0
C204 C 0.63605 0.94621 0.78792 0.0
C205 C 0.6212 0.92625 0.84369 0.0
C206 C 0.69542 0.97924 0.78544 0.0
C207 C 0.76213 0.98463 0.83553 0.0
H208 H 0.57895 0.94707 0.74956 0.0
H209 H 0.67766 1.00561 0.74625 0.0
S210 S 0.75317 0.92271 0.02225 0.0
N211 N 0.70103 0.88154 0.95023 0.0
N212 N 0.80689 0.96486 0.95637 0.0
C213 C 0.7899 0.94751 0.88332 0.0
C214 C 0.72412 0.89814 0.87932 0.0
C215 C 0.48743 0.18566 0.56996 0.0
C216 C 0.42101 0.17176 0.52477 0.0
C217 C 0.6047 0.18283 0.56017 0.0
C218 C 0.66682 0.16547 0.50395 0.0
H219 H 0.44763 0.19934 0.61437 0.0
H220 H 0.6461 0.19507 0.59723 0.0
S221 S 0.54621 1.11823 0.3709 0.0
N222 N 0.43811 1.13575 0.42156 0.0
N223 N 0.65119 1.13106 0.40326 0.0
C224 C 0.60263 0.15058 0.45882 0.0
C225 C 0.48353 0.15339 0.46884 0.0
C226 C 0.11348 0.51698 0.73617 0.0
C227 C 1.01456 0.57252 0.72581 0.0
C228 C 0.21851 0.51262 0.76685 0.0
C229 C 0.23043 0.56181 0.77327 0.0
H230 H 0.09583 0.48174 0.73871 0.0
H231 H 0.27499 0.47531 0.79375 0.0
S232 S 1.0689 0.68623 0.67405 0.0
N233 N 0.98565 0.65411 0.66843 0.0
N234 N 0.1877 0.6472 0.71937 0.0
C235 C 0.16465 0.60432 0.73027 0.0
C236 C 1.05567 0.60828 0.70348 0.0
C237 C 0.12806 0.66623 0.4808 0.0
C238 C 0.2255 0.62321 0.51597 0.0
C239 C 1.00498 0.67326 0.47617 0.0
C240 C 0.96711 0.63801 0.50563 0.0
H241 H 0.14567 0.69595 0.45731 0.0
H242 H 0.93737 0.70763 0.44854 0.0
S243 S 0.19304 0.50902 0.58979 0.0
N244 N 0.27554 0.53905 0.57319 0.0
N245 N 1.05215 0.55111 0.56301 0.0
C246 C 1.0658 0.59279 0.53794 0.0
C247 C 0.19082 0.58592 0.54318 0.0
C248 C 0.95409 0.15146 0.2874 0.0
C249 C 1.0429 0.15644 0.32421 0.0
C250 C 0.9571 0.15232 0.22314 0.0
C251 C 1.0477 0.15911 0.19385 0.0
H252 H 0.88609 0.144 0.30814 0.0
H253 H 0.89213 0.1449 0.19633 0.0
S254 S 0.28616 0.18399 0.26971 0.0
N255 N 0.21397 0.17517 0.32615 0.0
N256 N 0.21824 0.17747 0.20706 0.0
C257 C 0.13086 0.16797 0.2305 0.0
C258 C 0.12874 0.16651 0.29516 0.0
C259 C 0.13242 0.17774 0.80639 0.0
C260 C 1.05022 0.16354 0.83322 0.0
C261 C 0.13398 0.18289 0.74265 0.0
C262 C 1.05095 0.17553 0.70381 0.0
H263 H 0.19158 0.1877 0.83494 0.0
H264 H 0.19555 0.19571 0.7241 0.0
S265 S 0.82272 1.13497 0.75053 0.0
N266 N 0.88792 0.14031 0.81478 0.0
N267 N 0.891 0.14946 0.69661 0.0
C268 C 0.97206 0.15937 0.73 0.0
C269 C 0.97128 0.15376 0.7942 0.0
C270 C 0.71891 0.6066 0.28887 0.0
C271 C 0.60867 0.63116 0.32132 0.0
C272 C 0.71904 0.61214 0.22567 0.0
C273 C 0.60899 0.64289 0.19138 0.0
H274 H 0.8067 0.58276 0.31252 0.0
H275 H 0.80722 0.59203 0.20355 0.0
S276 S 0.29408 0.71471 0.25384 0.0
N277 N 0.38519 0.68688 0.31391 0.0
N278 N 0.38565 0.6975 0.19518 0.0
C279 C 0.49759 0.66748 0.22305 0.0
C280 C 0.4974 0.66159 0.28781 0.0
C281 C 0.62396 0.62117 0.74202 0.0
C282 C 0.52656 0.6581 0.70311 0.0
C283 C 0.61044 0.62385 0.80593 0.0
C284 C 0.49974 0.66406 0.83365 0.0
H285 H 0.71064 0.58949 0.72296 0.0
H286 H 0.68681 0.59397 0.83378 0.0
S287 S 0.21708 0.77099 0.75236 0.0
N288 N 0.31535 0.73614 0.6979 0.0
N289 N 0.29125 0.74177 0.81615 0.0
C290 C 0.40235 0.70124 0.79503 0.0
C291 C 0.41547 0.69815 0.73046 0.0
loop_
_geom_bond_atom_site_label_1
_geom_bond_atom_site_label_2
_geom_bond_distance
_geom_bond_site_symmetry_2
_ccdc_geom_bond_type
Tb0 C2 2.809 1_565 S
Tb0 O20 2.484 1_566 S
Tb0 O21 2.440 . S
Tb0 O22 2.658 1_655 S
Tb0 O23 2.409 . S
Tb0 O24 2.378 1_565 S
Tb0 O28 2.325 1_566 S
Tb0 O31 2.341 1_655 S
Tb1 C11 2.809 1_545 S
Tb1 O22 2.325 1_544 S
Tb1 O25 2.341 1_455 S
Tb1 O26 2.484 1_544 S
Tb1 O27 2.440 . S
Tb1 O28 2.658 1_455 S
Tb1 O29 2.409 . S
Tb1 O30 2.378 1_545 S
C2 Tb0 2.809 1_545 S
C2 C3 1.514 . S
C2 O20 1.248 1_556 S
C2 O21 1.266 1_545 S
C3 C2 1.514 . S
C3 C4 1.359 1_556 S
C3 C8 1.348 . S
C4 C3 1.359 1_554 S
C4 C5 1.380 . S
C4 H32 0.929 . S
C5 C4 1.380 . S
C5 C6 1.347 . S
C5 H33 0.931 . S
C6 C5 1.347 . S
C6 C7 1.369 1_554 S
C7 C6 1.369 1_556 S
C7 C8 1.408 . S
C7 H34 0.930 . S
C8 C3 1.348 . S
C8 C7 1.408 . S
C8 H35 0.930 . S
C9 O22 1.281 1_655 S
C9 O23 1.254 . S
C10 O24 1.236 . S
C10 O25 1.266 1_556 S
C11 Tb1 2.809 1_565 S
C11 C12 1.514 . S
C11 O26 1.248 1_554 S
C11 O27 1.266 1_565 S
C12 C11 1.514 . S
C12 C13 1.359 1_554 S
C12 C17 1.348 . S
C13 C12 1.359 1_556 S
C13 C14 1.380 . S
C13 H36 0.929 . S
C14 C13 1.380 . S
C14 C15 1.347 . S
C14 H37 0.931 . S
C15 C14 1.347 . S
C15 C16 1.369 1_556 S
C16 C15 1.369 1_554 S
C16 C17 1.408 . S
C16 H38 0.930 . S
C17 C12 1.348 . S
C17 C16 1.408 . S
C17 H39 0.930 . S
C18 O28 1.281 1_455 S
C18 O29 1.254 . S
C19 O30 1.236 . S
C19 O31 1.266 1_554 S
O20 Tb0 2.484 1_544 S
O20 C2 1.248 1_554 S
O21 Tb0 2.440 . S
O21 C2 1.266 1_565 S
O22 Tb0 2.658 1_455 S
O22 Tb1 2.325 1_566 S
O22 C9 1.281 1_455 S
O23 Tb0 2.409 . S
O23 C9 1.254 . S
O24 Tb0 2.378 1_545 S
O24 C10 1.236 . S
O25 Tb1 2.341 1_655 S
O25 C10 1.266 1_554 S
O26 Tb1 2.484 1_566 S
O26 C11 1.248 1_556 S
O27 Tb1 2.440 . S
O27 C11 1.266 1_545 S
O28 Tb0 2.325 1_544 S
O28 Tb1 2.658 1_655 S
O28 C18 1.281 1_655 S
O29 Tb1 2.409 . S
O29 C18 1.254 . S
O30 Tb1 2.378 1_565 S
O30 C19 1.236 . S
O31 Tb0 2.341 1_455 S
O31 C19 1.266 1_556 S
H32 C4 0.929 . S
H33 C5 0.931 . S
H34 C7 0.930 . S
H35 C8 0.930 . S
H36 C13 0.929 . S
H37 C14 0.931 . S
H38 C16 0.930 . S
H39 C17 0.930 . S
Tb40 C42 2.809 1_455 S
Tb40 O60 2.484 1_455 S
Tb40 O61 2.440 1_455 S
Tb40 O62 2.658 1_565 S
Tb40 O63 2.409 . S
Tb40 O64 2.378 1_455 S
Tb40 O68 2.325 1_455 S
Tb40 O71 2.341 . S
Tb41 C51 2.809 1_655 S
Tb41 O62 2.325 1_655 S
Tb41 O65 2.341 . S
Tb41 O66 2.484 1_655 S
Tb41 O67 2.440 1_655 S
Tb41 O68 2.658 1_545 S
Tb41 O69 2.409 . S
Tb41 O70 2.378 1_655 S
C42 Tb40 2.809 1_655 S
C42 C43 1.514 . S
C42 O60 1.248 . S
C42 O61 1.266 . S
C43 C42 1.514 . S
C43 C44 1.359 . S
C43 C48 1.348 . S
C44 C43 1.359 . S
C44 C45 1.380 . S
C44 H72 0.929 . S
C45 C44 1.380 . S
C45 C46 1.347 . S
C45 H73 0.931 . S
C46 C45 1.347 . S
C46 C47 1.369 . S
C47 C46 1.369 . S
C47 C48 1.408 . S
C47 H74 0.930 . S
C48 C43 1.348 . S
C48 C47 1.408 . S
C48 H75 0.930 . S
C49 O62 1.281 1_565 S
C49 O63 1.254 . S
C50 O64 1.236 1_545 S
C50 O65 1.266 . S
C51 Tb41 2.809 1_455 S
C51 C52 1.514 . S
C51 O66 1.248 . S
C51 O67 1.266 . S
C52 C51 1.514 . S
C52 C53 1.359 . S
C52 C57 1.348 . S
C53 C52 1.359 . S
C53 C54 1.380 . S
C53 H76 0.929 . S
C54 C53 1.380 . S
C54 C55 1.347 . S
C54 H77 0.931 . S
C55 C54 1.347 . S
C55 C56 1.369 . S
C56 C55 1.369 . S
C56 C57 1.408 . S
C56 H78 0.930 . S
C57 C52 1.348 . S
C57 C56 1.408 . S
C57 H79 0.930 . S
C58 O68 1.281 1_545 S
C58 O69 1.254 . S
C59 O70 1.236 1_565 S
C59 O71 1.266 . S
O60 Tb40 2.484 1_655 S
O60 C42 1.248 . S
O61 Tb40 2.440 1_655 S
O61 C42 1.266 . S
O62 Tb40 2.658 1_545 S
O62 Tb41 2.325 1_455 S
O62 C49 1.281 1_545 S
O63 Tb40 2.409 . S
O63 C49 1.254 . S
O64 Tb40 2.378 1_655 S
O64 C50 1.236 1_565 S
O65 Tb41 2.341 . S
O65 C50 1.266 . S
O66 Tb41 2.484 1_455 S
O66 C51 1.248 . S
O67 Tb41 2.440 1_455 S
O67 C51 1.266 . S
O68 Tb40 2.325 1_655 S
O68 Tb41 2.658 1_565 S
O68 C58 1.281 1_565 S
O69 Tb41 2.409 . S
O69 C58 1.254 . S
O70 Tb41 2.378 1_455 S
O70 C59 1.236 1_545 S
O71 Tb40 2.341 . S
O71 C59 1.266 . S
H72 C44 0.929 . S
H73 C45 0.931 . S
H74 C47 0.930 . S
H75 C48 0.930 . S
H76 C53 0.929 . S
H77 C54 0.931 . S
H78 C56 0.930 . S
H79 C57 0.930 . S
Tb80 C82 2.809 . S
Tb80 O100 2.484 1_556 S
Tb80 O101 2.440 . S
Tb80 O102 2.658 . S
Tb80 O103 2.409 . S
Tb80 O104 2.378 . S
Tb80 O108 2.325 1_556 S
Tb80 O111 2.341 . S
Tb81 C91 2.809 . S
Tb81 O102 2.325 1_554 S
Tb81 O105 2.341 . S
Tb81 O106 2.484 1_554 S
Tb81 O107 2.440 . S
Tb81 O108 2.658 . S
Tb81 O109 2.409 . S
Tb81 O110 2.378 . S
C82 Tb80 2.809 . S
C82 C83 1.514 . S
C82 O100 1.248 1_556 S
C82 O101 1.266 . S
C83 C82 1.514 . S
C83 C84 1.359 1_556 S
C83 C88 1.348 . S
C84 C83 1.359 1_554 S
C84 C85 1.380 . S
C84 H112 0.929 . S
C85 C84 1.380 . S
C85 C86 1.347 . S
C85 H113 0.931 . S
C86 C85 1.347 . S
C86 C87 1.369 1_554 S
C87 C86 1.369 1_556 S
C87 C88 1.408 . S
C87 H114 0.930 . S
C88 C83 1.348 . S
C88 C87 1.408 . S
C88 H115 0.930 . S
C89 O102 1.281 . S
C89 O103 1.254 . S
C90 O104 1.236 . S
C90 O105 1.266 1_556 S
C91 Tb81 2.809 . S
C91 C92 1.514 . S
C91 O106 1.248 1_554 S
C91 O107 1.266 . S
C92 C91 1.514 . S
C92 C93 1.359 1_554 S
C92 C97 1.348 . S
C93 C92 1.359 1_556 S
C93 C94 1.380 . S
C93 H116 0.929 . S
C94 C93 1.380 . S
C94 C95 1.347 . S
C94 H117 0.931 . S
C95 C94 1.347 . S
C95 C96 1.369 1_556 S
C96 C95 1.369 1_554 S
C96 C97 1.408 . S
C96 H118 0.930 . S
C97 C92 1.348 . S
C97 C96 1.408 . S
C97 H119 0.930 . S
C98 O108 1.281 . S
C98 O109 1.254 . S
C99 O110 1.236 . S
C99 O111 1.266 1_554 S
O100 Tb80 2.484 1_554 S
O100 C82 1.248 1_554 S
O101 Tb80 2.440 . S
O101 C82 1.266 . S
O102 Tb80 2.658 . S
O102 Tb81 2.325 1_556 S
O102 C89 1.281 . S
O103 Tb80 2.409 . S
O103 C89 1.254 . S
O104 Tb80 2.378 . S
O104 C90 1.236 . S
O105 Tb81 2.341 . S
O105 C90 1.266 1_554 S
O106 Tb81 2.484 1_556 S
O106 C91 1.248 1_556 S
O107 Tb81 2.440 . S
O107 C91 1.266 . S
O108 Tb80 2.325 1_554 S
O108 Tb81 2.658 . S
O108 C98 1.281 . S
O109 Tb81 2.409 . S
O109 C98 1.254 . S
O110 Tb81 2.378 . S
O110 C99 1.236 . S
O111 Tb80 2.341 . S
O111 C99 1.266 1_556 S
H112 C84 0.929 . S
H113 C85 0.931 . S
H114 C87 0.930 . S
H115 C88 0.930 . S
H116 C93 0.929 . S
H117 C94 0.931 . S
H118 C96 0.930 . S
H119 C97 0.930 . S
Tb120 C122 2.809 . S
Tb120 O140 2.484 . S
Tb120 O141 2.440 . S
Tb120 O142 2.658 . S
Tb120 O143 2.409 . S
Tb120 O144 2.378 . S
Tb120 O148 2.325 . S
Tb120 O151 2.341 . S
Tb121 C131 2.809 . S
Tb121 O142 2.325 . S
Tb121 O145 2.341 . S
Tb121 O146 2.484 . S
Tb121 O147 2.440 . S
Tb121 O148 2.658 . S
Tb121 O149 2.409 . S
Tb121 O150 2.378 . S
C122 Tb120 2.809 . S
C122 C123 1.514 . S
C122 O140 1.248 . S
C122 O141 1.266 . S
C123 C122 1.514 . S
C123 C124 1.359 . S
C123 C128 1.348 . S
C124 C123 1.359 . S
C124 C125 1.380 . S
C124 H152 0.929 . S
C125 C124 1.380 . S
C125 C126 1.347 . S
C125 H153 0.931 . S
C126 C125 1.347 . S
C126 C127 1.369 . S
C127 C126 1.369 . S
C127 C128 1.408 . S
C127 H154 0.930 . S
C128 C123 1.348 . S
C128 C127 1.408 . S
C128 H155 0.930 . S
C129 O142 1.281 . S
C129 O143 1.254 . S
C130 O144 1.236 . S
C130 O145 1.266 . S
C131 Tb121 2.809 . S
C131 C132 1.514 . S
C131 O146 1.248 . S
C131 O147 1.266 . S
C132 C131 1.514 . S
C132 C133 1.359 . S
C132 C137 1.348 . S
C133 C132 1.359 . S
C133 C134 1.380 . S
C133 H156 0.929 . S
C134 C133 1.380 . S
C134 C135 1.347 . S
C134 H157 0.931 . S
C135 C134 1.347 . S
C135 C136 1.369 . S
C136 C135 1.369 . S
C136 C137 1.408 . S
C136 H158 0.930 . S
C137 C132 1.348 . S
C137 C136 1.408 . S
C137 H159 0.930 . S
C138 O148 1.281 . S
C138 O149 1.254 . S
C139 O150 1.236 . S
C139 O151 1.266 . S
O140 Tb120 2.484 . S
O140 C122 1.248 . S
O141 Tb120 2.440 . S
O141 C122 1.266 . S
O142 Tb120 2.658 . S
O142 Tb121 2.325 . S
O142 C129 1.281 . S
O143 Tb120 2.409 . S
O143 C129 1.254 . S
O144 Tb120 2.378 . S
O144 C130 1.236 . S
O145 Tb121 2.341 . S
O145 C130 1.266 . S
O146 Tb121 2.484 . S
O146 C131 1.248 . S
O147 Tb121 2.440 . S
O147 C131 1.266 . S
O148 Tb120 2.325 . S
O148 Tb121 2.658 . S
O148 C138 1.281 . S
O149 Tb121 2.409 . S
O149 C138 1.254 . S
O150 Tb121 2.378 . S
O150 C139 1.236 . S
O151 Tb120 2.341 . S
O151 C139 1.266 . S
H152 C124 0.929 . S
H153 C125 0.931 . S
H154 C127 0.930 . S
H155 C128 0.930 . S
H156 C133 0.929 . S
H157 C134 0.931 . S
H158 C136 0.930 . S
H159 C137 0.930 . S
C160 C161 1.368 1_554 S
C160 C162 1.419 . S
C160 H164 0.930 . S
C161 C160 1.368 1_556 S
C161 C170 1.430 . S
C162 C160 1.419 . S
C162 C163 1.358 1_554 S
C162 H165 0.929 . S
C163 C162 1.358 1_556 S
C163 C169 1.434 . S
H164 C160 0.930 . S
H165 C162 0.929 . S
S166 N167 1.613 . S
S166 N168 1.610 . S
N167 S166 1.613 . S
N167 C170 1.350 . S
N168 S166 1.610 . S
N168 C169 1.351 . S
C169 C163 1.434 . S
C169 N168 1.351 . S
C169 C170 1.434 . S
C170 C161 1.430 . S
C170 N167 1.350 . S
C170 C169 1.434 . S
C171 C172 1.356 1_554 S
C171 C173 1.419 . S
C171 H175 0.930 . S
C172 C171 1.356 1_556 S
C172 C181 1.442 . S
C173 C171 1.419 . S
C173 C174 1.359 1_554 S
C173 H176 0.929 . S
C174 C173 1.359 1_556 S
C174 C180 1.433 . S
H175 C171 0.930 . S
H176 C173 0.929 . S
S177 N178 1.613 . S
S177 N179 1.610 . S
N178 S177 1.613 . S
N178 C181 1.350 . S
N179 S177 1.610 . S
N179 C180 1.351 . S
C180 C174 1.433 . S
C180 N179 1.351 . S
C180 C181 1.434 . S
C181 C172 1.442 . S
C181 N178 1.350 . S
C181 C180 1.434 . S
C182 C183 1.369 . S
C182 C184 1.419 . S
C182 H186 0.930 . S
C183 C182 1.369 . S
C183 C192 1.429 . S
C184 C182 1.419 . S
C184 C185 1.363 . S
C184 H187 0.929 . S
C185 C184 1.363 . S
C185 C191 1.428 . S
H186 C182 0.930 . S
H187 C184 0.929 . S
S188 N189 1.613 . S
S188 N190 1.610 . S
N189 S188 1.613 . S
N189 C192 1.350 . S
N190 S188 1.610 . S
N190 C191 1.351 . S
C191 C185 1.428 . S
C191 N190 1.351 . S
C191 C192 1.434 . S
C192 C183 1.429 . S
C192 N189 1.350 . S
C192 C191 1.434 . S
C193 C194 1.369 . S
C193 C195 1.419 . S
C193 H197 0.930 . S
C194 C193 1.369 . S
C194 C203 1.429 . S
C195 C193 1.419 . S
C195 C196 1.363 . S
C195 H198 0.929 . S
C196 C195 1.363 . S
C196 C202 1.428 . S
H197 C193 0.930 . S
H198 C195 0.929 . S
S199 N200 1.613 . S
S199 N201 1.610 . S
N200 S199 1.613 . S
N200 C203 1.350 . S
N201 S199 1.610 . S
N201 C202 1.351 . S
C202 C196 1.428 . S
C202 N201 1.351 . S
C202 C203 1.434 . S
C203 C194 1.429 . S
C203 N200 1.350 . S
C203 C202 1.434 . S
C204 C205 1.369 . S
C204 C206 1.419 1_565 S
C204 H208 0.930 . S
C205 C204 1.369 . S
C205 C214 1.429 1_556 S
C206 C204 1.419 1_545 S
C206 C207 1.363 1_556 S
C206 H209 0.929 . S
C207 C206 1.363 1_554 S
C207 C213 1.428 . S
H208 C204 0.930 . S
H209 C206 0.929 . S
S210 N211 1.613 . S
S210 N212 1.610 1_565 S
N211 S210 1.613 . S
N211 C214 1.350 . S
N212 S210 1.610 1_545 S
N212 C213 1.351 . S
C213 C207 1.428 . S
C213 N212 1.351 . S
C213 C214 1.434 1_545 S
C214 C205 1.429 1_554 S
C214 N211 1.350 . S
C214 C213 1.434 1_565 S
C215 C216 1.369 1_545 S
C215 C217 1.419 . S
C215 H219 0.930 . S
C216 C215 1.369 1_565 S
C216 C225 1.429 . S
C217 C215 1.419 . S
C217 C218 1.363 . S
C217 H220 0.929 . S
C218 C217 1.363 . S
C218 C224 1.428 1_545 S
H219 C215 0.930 . S
H220 C217 0.929 . S
S221 N222 1.613 . S
S221 N223 1.610 . S
N222 S221 1.613 . S
N222 C225 1.350 . S
N223 S221 1.610 . S
N223 C224 1.351 . S
C224 C218 1.428 1_565 S
C224 N223 1.351 . S
C224 C225 1.434 . S
C225 C216 1.429 . S
C225 N222 1.350 . S
C225 C224 1.434 . S
C226 C227 1.369 1_554 S
C226 C228 1.419 1_455 S
C226 H230 0.930 . S
C227 C226 1.369 1_556 S
C227 C236 1.429 . S
C228 C226 1.419 1_655 S
C228 C229 1.363 . S
C228 H231 0.929 . S
C229 C228 1.363 . S
C229 C235 1.432 1_554 S
H230 C226 0.930 . S
H231 C228 0.929 . S
S232 N233 1.613 . S
S232 N234 1.610 . S
N233 S232 1.613 . S
N233 C236 1.350 . S
N234 S232 1.610 . S
N234 C235 1.348 1_455 S
C235 C229 1.432 1_556 S
C235 N234 1.348 1_655 S
C235 C236 1.433 1_655 S
C236 C227 1.429 . S
C236 N233 1.350 . S
C236 C235 1.433 1_455 S
C237 C238 1.369 . S
C237 C239 1.419 1_455 S
C237 H241 0.930 . S
C238 C237 1.369 . S
C238 C247 1.429 . S
C239 C237 1.419 1_655 S
C239 C240 1.363 . S
C239 H242 0.929 . S
C240 C239 1.363 . S
C240 C246 1.428 . S
H241 C237 0.930 . S
H242 C239 0.929 . S
S243 N244 1.613 . S
S243 N245 1.610 1_455 S
N244 S243 1.613 . S
N244 C247 1.350 . S
N245 S243 1.610 1_655 S
N245 C246 1.351 . S
C246 C240 1.428 . S
C246 N245 1.351 . S
C246 C247 1.434 1_655 S
C247 C238 1.429 . S
C247 N244 1.350 . S
C247 C246 1.434 1_455 S
C248 C249 1.369 1_565 S
C248 C250 1.419 . S
C248 H252 0.930 . S
C249 C248 1.369 1_545 S
C249 C258 1.429 1_655 S
C250 C248 1.419 . S
C250 C251 1.363 1_565 S
C250 H253 0.929 . S
C251 C250 1.363 1_545 S
C251 C257 1.428 1_655 S
H252 C248 0.930 . S
H253 C250 0.929 . S
S254 N255 1.613 . S
S254 N256 1.610 . S
N255 S254 1.613 . S
N255 C258 1.350 . S
N256 S254 1.610 . S
N256 C257 1.351 . S
C257 C251 1.428 1_455 S
C257 N256 1.351 . S
C257 C258 1.434 . S
C258 C249 1.429 1_455 S
C258 N255 1.350 . S
C258 C257 1.434 . S
C259 C260 1.359 1_545 S
C259 C261 1.419 . S
C259 H263 0.930 . S
C260 C259 1.359 1_565 S
C260 C269 1.438 1_455 S
C261 C259 1.419 . S
C261 C262 1.363 1_545 S
C261 H264 0.929 . S
C262 C261 1.363 1_565 S
C262 C268 1.428 1_455 S
H263 C259 0.930 . S
H264 C261 0.929 . S
S265 N266 1.613 . S
S265 N267 1.610 . S
N266 S265 1.613 . S
N266 C269 1.350 . S
N267 S265 1.610 . S
N267 C268 1.351 . S
C268 C262 1.428 1_655 S
C268 N267 1.351 . S
C268 C269 1.434 . S
C269 C260 1.438 1_655 S
C269 N266 1.350 . S
C269 C268 1.434 . S
C270 C271 1.369 . S
C270 C272 1.419 . S
C270 H274 0.930 . S
C271 C270 1.369 . S
C271 C280 1.429 . S
C272 C270 1.419 . S
C272 C273 1.363 . S
C272 H275 0.929 . S
C273 C272 1.363 . S
C273 C279 1.428 . S
H274 C270 0.930 . S
H275 C272 0.929 . S
S276 N277 1.613 . S
S276 N278 1.610 . S
N277 S276 1.613 . S
N277 C280 1.350 . S
N278 S276 1.610 . S
N278 C279 1.351 . S
C279 C273 1.428 . S
C279 N278 1.351 . S
C279 C280 1.434 . S
C280 C271 1.429 . S
C280 N277 1.350 . S
C280 C279 1.434 . S
C281 C282 1.369 . S
C281 C283 1.419 . S
C281 H285 0.930 . S
C282 C281 1.369 . S
C282 C291 1.429 . S
C283 C281 1.419 . S
C283 C284 1.363 . S
C283 H286 0.929 . S
C284 C283 1.363 . S
C284 C290 1.428 . S
H285 C281 0.930 . S
H286 C283 0.929 . S
S287 N288 1.613 . S
S287 N289 1.610 . S
N288 S287 1.613 . S
N288 C291 1.350 . S
N289 S287 1.610 . S
N289 C290 1.351 . S
C290 C284 1.428 . S
C290 N289 1.351 . S
C290 C291 1.434 . S
C291 C282 1.429 . S
C291 N288 1.350 . S
C291 C290 1.434 . S
C161 C90 3.687 . S
C163 C19 3.690 1_556 S
C172 C99 3.689 1_556 S
C174 C10 3.688 . S
C183 C55 0.434 . S
C185 C126 0.433 . S
C194 C46 0.449 . S
C196 C135 0.422 . S
C205 C15 0.693 . S
C207 C6 0.716 . S
C216 C59 4.874 . S
C218 C50 4.874 . S
C227 C95 0.718 1_455 S
C229 C86 0.699 1_655 S
C238 C130 4.874 . S
C240 C139 4.874 . S
C249 C49 1.452 1_645 S
C251 C18 1.447 1_655 S
C260 C9 1.451 1_455 S
C262 C58 1.452 1_465 S
C271 C129 1.444 . S
C273 C98 1.453 . S
C282 C138 1.448 . S
C284 C89 1.449 . S
