# Generated by pormake.
# Topology lcs-e, (6)-cn, num edge types: 1
# Building blocks:
#     Node 0, Type 0, BuildingBlock: GEDQOX_clean_sbu_0, # of connection points: 6
#     Node 1, Type 0, BuildingBlock: GEDQOX_clean_sbu_0, # of connection points: 6
#     Node 2, Type 0, BuildingBlock: GEDQOX_clean_sbu_0, # of connection points: 6
#     Node 3, Type 0, BuildingBlock: GEDQOX_clean_sbu_0, # of connection points: 6
#     Node 4, Type 0, BuildingBlock: GEDQOX_clean_sbu_0, # of connection points: 6
#     Node 5, Type 0, BuildingBlock: GEDQOX_clean_sbu_0, # of connection points: 6
#     Node 6, Type 0, BuildingBlock: GEDQOX_clean_sbu_0, # of connection points: 6
#     Node 7, Type 0, BuildingBlock: GEDQOX_clean_sbu_0, # of connection points: 6
#     Node 8, Type 0, BuildingBlock: GEDQOX_clean_sbu_0, # of connection points: 6
#     Node 9, Type 0, BuildingBlock: GEDQOX_clean_sbu_0, # of connection points: 6
#     Node 10, Type 0, BuildingBlock: GEDQOX_clean_sbu_0, # of connection points: 6
#     Node 11, Type 0, BuildingBlock: GEDQOX_clean_sbu_0, # of connection points: 6
#     Node 12, Type 0, BuildingBlock: GEDQOX_clean_sbu_0, # of connection points: 6
#     Node 13, Type 0, BuildingBlock: GEDQOX_clean_sbu_0, # of connection points: 6
#     Node 14, Type 0, BuildingBlock: GEDQOX_clean_sbu_0, # of connection points: 6
#     Node 15, Type 0, BuildingBlock: GEDQOX_clean_sbu_0, # of connection points: 6
#     Node 16, Type 0, BuildingBlock: GEDQOX_clean_sbu_0, # of connection points: 6
#     Node 17, Type 0, BuildingBlock: GEDQOX_clean_sbu_0, # of connection points: 6
#     Node 18, Type 0, BuildingBlock: GEDQOX_clean_sbu_0, # of connection points: 6
#     Node 19, Type 0, BuildingBlock: GEDQOX_clean_sbu_0, # of connection points: 6
#     Node 20, Type 0, BuildingBlock: GEDQOX_clean_sbu_0, # of connection points: 6
#     Node 21, Type 0, BuildingBlock: GEDQOX_clean_sbu_0, # of connection points: 6
#     Node 22, Type 0, BuildingBlock: GEDQOX_clean_sbu_0, # of connection points: 6
#     Node 23, Type 0, BuildingBlock: GEDQOX_clean_sbu_0, # of connection points: 6
#     Node 24, Type 0, BuildingBlock: GEDQOX_clean_sbu_0, # of connection points: 6
#     Node 25, Type 0, BuildingBlock: GEDQOX_clean_sbu_0, # of connection points: 6
#     Node 26, Type 0, BuildingBlock: GEDQOX_clean_sbu_0, # of connection points: 6
#     Node 27, Type 0, BuildingBlock: GEDQOX_clean_sbu_0, # of connection points: 6
#     Node 28, Type 0, BuildingBlock: GEDQOX_clean_sbu_0, # of connection points: 6
#     Node 29, Type 0, BuildingBlock: GEDQOX_clean_sbu_0, # of connection points: 6
#     Node 30, Type 0, BuildingBlock: GEDQOX_clean_sbu_0, # of connection points: 6
#     Node 31, Type 0, BuildingBlock: GEDQOX_clean_sbu_0, # of connection points: 6
#     Node 32, Type 0, BuildingBlock: GEDQOX_clean_sbu_0, # of connection points: 6
#     Node 33, Type 0, BuildingBlock: GEDQOX_clean_sbu_0, # of connection points: 6
#     Node 34, Type 0, BuildingBlock: GEDQOX_clean_sbu_0, # of connection points: 6
#     Node 35, Type 0, BuildingBlock: GEDQOX_clean_sbu_0, # of connection points: 6
#     Node 36, Type 0, BuildingBlock: GEDQOX_clean_sbu_0, # of connection points: 6
#     Node 37, Type 0, BuildingBlock: GEDQOX_clean_sbu_0, # of connection points: 6
#     Node 38, Type 0, BuildingBlock: GEDQOX_clean_sbu_0, # of connection points: 6
#     Node 39, Type 0, BuildingBlock: GEDQOX_clean_sbu_0, # of connection points: 6
#     Node 40, Type 0, BuildingBlock: GEDQOX_clean_sbu_0, # of connection points: 6
#     Node 41, Type 0, BuildingBlock: GEDQOX_clean_sbu_0, # of connection points: 6
#     Node 42, Type 0, BuildingBlock: GEDQOX_clean_sbu_0, # of connection points: 6
#     Node 43, Type 0, BuildingBlock: GEDQOX_clean_sbu_0, # of connection points: 6
#     Node 44, Type 0, BuildingBlock: GEDQOX_clean_sbu_0, # of connection points: 6
#     Node 45, Type 0, BuildingBlock: GEDQOX_clean_sbu_0, # of connection points: 6
#     Node 46, Type 0, BuildingBlock: GEDQOX_clean_sbu_0, # of connection points: 6
#     Node 47, Type 0, BuildingBlock: GEDQOX_clean_sbu_0, # of connection points: 6
#     Edge 48, Type (0, 0), BuildingBlock: CIFDUS_clean_linker_0, # of connection points: 2
#     Edge 49, Type (0, 0), BuildingBlock: CIFDUS_clean_linker_0, # of connection points: 2
#     Edge 50, Type (0, 0), BuildingBlock: CIFDUS_clean_linker_0, # of connection points: 2
#     Edge 51, Type (0, 0), BuildingBlock: CIFDUS_clean_linker_0, # of connection points: 2
#     Edge 52, Type (0, 0), BuildingBlock: CIFDUS_clean_linker_0, # of connection points: 2
#     Edge 53, Type (0, 0), BuildingBlock: CIFDUS_clean_linker_0, # of connection points: 2
#     Edge 54, Type (0, 0), BuildingBlock: CIFDUS_clean_linker_0, # of connection points: 2
#     Edge 55, Type (0, 0), BuildingBlock: CIFDUS_clean_linker_0, # of connection points: 2
#     Edge 56, Type (0, 0), BuildingBlock: CIFDUS_clean_linker_0, # of connection points: 2
#     Edge 57, Type (0, 0), BuildingBlock: CIFDUS_clean_linker_0, # of connection points: 2
#     Edge 58, Type (0, 0), BuildingBlock: CIFDUS_clean_linker_0, # of connection points: 2
#     Edge 59, Type (0, 0), BuildingBlock: CIFDUS_clean_linker_0, # of connection points: 2
#     Edge 60, Type (0, 0), BuildingBlock: CIFDUS_clean_linker_0, # of connection points: 2
#     Edge 61, Type (0, 0), BuildingBlock: CIFDUS_clean_linker_0, # of connection points: 2
#     Edge 62, Type (0, 0), BuildingBlock: CIFDUS_clean_linker_0, # of connection points: 2
#     Edge 63, Type (0, 0), BuildingBlock: CIFDUS_clean_linker_0, # of connection points: 2
#     Edge 64, Type (0, 0), BuildingBlock: CIFDUS_clean_linker_0, # of connection points: 2
#     Edge 65, Type (0, 0), BuildingBlock: CIFDUS_clean_linker_0, # of connection points: 2
#     Edge 66, Type (0, 0), BuildingBlock: CIFDUS_clean_linker_0, # of connection points: 2
#     Edge 67, Type (0, 0), BuildingBlock: CIFDUS_clean_linker_0, # of connection points: 2
#     Edge 68, Type (0, 0), BuildingBlock: CIFDUS_clean_linker_0, # of connection points: 2
#     Edge 69, Type (0, 0), BuildingBlock: CIFDUS_clean_linker_0, # of connection points: 2
#     Edge 70, Type (0, 0), BuildingBlock: CIFDUS_clean_linker_0, # of connection points: 2
#     Edge 71, Type (0, 0), BuildingBlock: CIFDUS_clean_linker_0, # of connection points: 2
#     Edge 72, Type (0, 0), BuildingBlock: CIFDUS_clean_linker_0, # of connection points: 2
#     Edge 73, Type (0, 0), BuildingBlock: CIFDUS_clean_linker_0, # of connection points: 2
#     Edge 74, Type (0, 0), BuildingBlock: CIFDUS_clean_linker_0, # of connection points: 2
#     Edge 75, Type (0, 0), BuildingBlock: CIFDUS_clean_linker_0, # of connection points: 2
#     Edge 76, Type (0, 0), BuildingBlock: CIFDUS_clean_linker_0, # of connection points: 2
#     Edge 77, Type (0, 0), BuildingBlock: CIFDUS_clean_linker_0, # of connection points: 2
#     Edge 78, Type (0, 0), BuildingBlock: CIFDUS_clean_linker_0, # of connection points: 2
#     Edge 79, Type (0, 0), BuildingBlock: CIFDUS_clean_linker_0, # of connection points: 2
#     Edge 80, Type (0, 0), BuildingBlock: CIFDUS_clean_linker_0, # of connection points: 2
#     Edge 81, Type (0, 0), BuildingBlock: CIFDUS_clean_linker_0, # of connection points: 2
#     Edge 82, Type (0, 0), BuildingBlock: CIFDUS_clean_linker_0, # of connection points: 2
#     Edge 83, Type (0, 0), BuildingBlock: CIFDUS_clean_linker_0, # of connection points: 2
#     Edge 84, Type (0, 0), BuildingBlock: CIFDUS_clean_linker_0, # of connection points: 2
#     Edge 85, Type (0, 0), BuildingBlock: CIFDUS_clean_linker_0, # of connection points: 2
#     Edge 86, Type (0, 0), BuildingBlock: CIFDUS_clean_linker_0, # of connection points: 2
#     Edge 87, Type (0, 0), BuildingBlock: CIFDUS_clean_linker_0, # of connection points: 2
#     Edge 88, Type (0, 0), BuildingBlock: CIFDUS_clean_linker_0, # of connection points: 2
#     Edge 89, Type (0, 0), BuildingBlock: CIFDUS_clean_linker_0, # of connection points: 2
#     Edge 90, Type (0, 0), BuildingBlock: CIFDUS_clean_linker_0, # of connection points: 2
#     Edge 91, Type (0, 0), BuildingBlock: CIFDUS_clean_linker_0, # of connection points: 2
#     Edge 92, Type (0, 0), BuildingBlock: CIFDUS_clean_linker_0, # of connection points: 2
#     Edge 93, Type (0, 0), BuildingBlock: CIFDUS_clean_linker_0, # of connection points: 2
#     Edge 94, Type (0, 0), BuildingBlock: CIFDUS_clean_linker_0, # of connection points: 2
#     Edge 95, Type (0, 0), BuildingBlock: CIFDUS_clean_linker_0, # of connection points: 2
#     Edge 96, Type (0, 0), BuildingBlock: CIFDUS_clean_linker_0, # of connection points: 2
#     Edge 97, Type (0, 0), BuildingBlock: CIFDUS_clean_linker_0, # of connection points: 2
#     Edge 98, Type (0, 0), BuildingBlock: CIFDUS_clean_linker_0, # of connection points: 2
#     Edge 99, Type (0, 0), BuildingBlock: CIFDUS_clean_linker_0, # of connection points: 2
#     Edge 100, Type (0, 0), BuildingBlock: CIFDUS_clean_linker_0, # of connection points: 2
#     Edge 101, Type (0, 0), BuildingBlock: CIFDUS_clean_linker_0, # of connection points: 2
#     Edge 102, Type (0, 0), BuildingBlock: CIFDUS_clean_linker_0, # of connection points: 2
#     Edge 103, Type (0, 0), BuildingBlock: CIFDUS_clean_linker_0, # of connection points: 2
#     Edge 104, Type (0, 0), BuildingBlock: CIFDUS_clean_linker_0, # of connection points: 2
#     Edge 105, Type (0, 0), BuildingBlock: CIFDUS_clean_linker_0, # of connection points: 2
#     Edge 106, Type (0, 0), BuildingBlock: CIFDUS_clean_linker_0, # of connection points: 2
#     Edge 107, Type (0, 0), BuildingBlock: CIFDUS_clean_linker_0, # of connection points: 2
#     Edge 108, Type (0, 0), BuildingBlock: CIFDUS_clean_linker_0, # of connection points: 2
#     Edge 109, Type (0, 0), BuildingBlock: CIFDUS_clean_linker_0, # of connection points: 2
#     Edge 110, Type (0, 0), BuildingBlock: CIFDUS_clean_linker_0, # of connection points: 2
#     Edge 111, Type (0, 0), BuildingBlock: CIFDUS_clean_linker_0, # of connection points: 2
#     Edge 112, Type (0, 0), BuildingBlock: CIFDUS_clean_linker_0, # of connection points: 2
#     Edge 113, Type (0, 0), BuildingBlock: CIFDUS_clean_linker_0, # of connection points: 2
#     Edge 114, Type (0, 0), BuildingBlock: CIFDUS_clean_linker_0, # of connection points: 2
#     Edge 115, Type (0, 0), BuildingBlock: CIFDUS_clean_linker_0, # of connection points: 2
#     Edge 116, Type (0, 0), BuildingBlock: CIFDUS_clean_linker_0, # of connection points: 2
#     Edge 117, Type (0, 0), BuildingBlock: CIFDUS_clean_linker_0, # of connection points: 2
#     Edge 118, Type (0, 0), BuildingBlock: CIFDUS_clean_linker_0, # of connection points: 2
#     Edge 119, Type (0, 0), BuildingBlock: CIFDUS_clean_linker_0, # of connection points: 2
#     Edge 120, Type (0, 0), BuildingBlock: CIFDUS_clean_linker_0, # of connection points: 2
#     Edge 121, Type (0, 0), BuildingBlock: CIFDUS_clean_linker_0, # of connection points: 2
#     Edge 122, Type (0, 0), BuildingBlock: CIFDUS_clean_linker_0, # of connection points: 2
#     Edge 123, Type (0, 0), BuildingBlock: CIFDUS_clean_linker_0, # of connection points: 2
#     Edge 124, Type (0, 0), BuildingBlock: CIFDUS_clean_linker_0, # of connection points: 2
#     Edge 125, Type (0, 0), BuildingBlock: CIFDUS_clean_linker_0, # of connection points: 2
#     Edge 126, Type (0, 0), BuildingBlock: CIFDUS_clean_linker_0, # of connection points: 2
#     Edge 127, Type (0, 0), BuildingBlock: CIFDUS_clean_linker_0, # of connection points: 2
#     Edge 128, Type (0, 0), BuildingBlock: CIFDUS_clean_linker_0, # of connection points: 2
#     Edge 129, Type (0, 0), BuildingBlock: CIFDUS_clean_linker_0, # of connection points: 2
#     Edge 130, Type (0, 0), BuildingBlock: CIFDUS_clean_linker_0, # of connection points: 2
#     Edge 131, Type (0, 0), BuildingBlock: CIFDUS_clean_linker_0, # of connection points: 2
#     Edge 132, Type (0, 0), BuildingBlock: CIFDUS_clean_linker_0, # of connection points: 2
#     Edge 133, Type (0, 0), BuildingBlock: CIFDUS_clean_linker_0, # of connection points: 2
#     Edge 134, Type (0, 0), BuildingBlock: CIFDUS_clean_linker_0, # of connection points: 2
#     Edge 135, Type (0, 0), BuildingBlock: CIFDUS_clean_linker_0, # of connection points: 2
#     Edge 136, Type (0, 0), BuildingBlock: CIFDUS_clean_linker_0, # of connection points: 2
#     Edge 137, Type (0, 0), BuildingBlock: CIFDUS_clean_linker_0, # of connection points: 2
#     Edge 138, Type (0, 0), BuildingBlock: CIFDUS_clean_linker_0, # of connection points: 2
#     Edge 139, Type (0, 0), BuildingBlock: CIFDUS_clean_linker_0, # of connection points: 2
#     Edge 140, Type (0, 0), BuildingBlock: CIFDUS_clean_linker_0, # of connection points: 2
#     Edge 141, Type (0, 0), BuildingBlock: CIFDUS_clean_linker_0, # of connection points: 2
#     Edge 142, Type (0, 0), BuildingBlock: CIFDUS_clean_linker_0, # of connection points: 2
#     Edge 143, Type (0, 0), BuildingBlock: CIFDUS_clean_linker_0, # of connection points: 2
#     Edge 144, Type (0, 0), BuildingBlock: CIFDUS_clean_linker_0, # of connection points: 2
#     Edge 145, Type (0, 0), BuildingBlock: CIFDUS_clean_linker_0, # of connection points: 2
#     Edge 146, Type (0, 0), BuildingBlock: CIFDUS_clean_linker_0, # of connection points: 2
#     Edge 147, Type (0, 0), BuildingBlock: CIFDUS_clean_linker_0, # of connection points: 2
#     Edge 148, Type (0, 0), BuildingBlock: CIFDUS_clean_linker_0, # of connection points: 2
#     Edge 149, Type (0, 0), BuildingBlock: CIFDUS_clean_linker_0, # of connection points: 2
#     Edge 150, Type (0, 0), BuildingBlock: CIFDUS_clean_linker_0, # of connection points: 2
#     Edge 151, Type (0, 0), BuildingBlock: CIFDUS_clean_linker_0, # of connection points: 2
#     Edge 152, Type (0, 0), BuildingBlock: CIFDUS_clean_linker_0, # of connection points: 2
#     Edge 153, Type (0, 0), BuildingBlock: CIFDUS_clean_linker_0, # of connection points: 2
#     Edge 154, Type (0, 0), BuildingBlock: CIFDUS_clean_linker_0, # of connection points: 2
#     Edge 155, Type (0, 0), BuildingBlock: CIFDUS_clean_linker_0, # of connection points: 2
#     Edge 156, Type (0, 0), BuildingBlock: CIFDUS_clean_linker_0, # of connection points: 2
#     Edge 157, Type (0, 0), BuildingBlock: CIFDUS_clean_linker_0, # of connection points: 2
#     Edge 158, Type (0, 0), BuildingBlock: CIFDUS_clean_linker_0, # of connection points: 2
#     Edge 159, Type (0, 0), BuildingBlock: CIFDUS_clean_linker_0, # of connection points: 2
#     Edge 160, Type (0, 0), BuildingBlock: CIFDUS_clean_linker_0, # of connection points: 2
#     Edge 161, Type (0, 0), BuildingBlock: CIFDUS_clean_linker_0, # of connection points: 2
#     Edge 162, Type (0, 0), BuildingBlock: CIFDUS_clean_linker_0, # of connection points: 2
#     Edge 163, Type (0, 0), BuildingBlock: CIFDUS_clean_linker_0, # of connection points: 2
#     Edge 164, Type (0, 0), BuildingBlock: CIFDUS_clean_linker_0, # of connection points: 2
#     Edge 165, Type (0, 0), BuildingBlock: CIFDUS_clean_linker_0, # of connection points: 2
#     Edge 166, Type (0, 0), BuildingBlock: CIFDUS_clean_linker_0, # of connection points: 2
#     Edge 167, Type (0, 0), BuildingBlock: CIFDUS_clean_linker_0, # of connection points: 2
#     Edge 168, Type (0, 0), BuildingBlock: CIFDUS_clean_linker_0, # of connection points: 2
#     Edge 169, Type (0, 0), BuildingBlock: CIFDUS_clean_linker_0, # of connection points: 2
#     Edge 170, Type (0, 0), BuildingBlock: CIFDUS_clean_linker_0, # of connection points: 2
#     Edge 171, Type (0, 0), BuildingBlock: CIFDUS_clean_linker_0, # of connection points: 2
#     Edge 172, Type (0, 0), BuildingBlock: CIFDUS_clean_linker_0, # of connection points: 2
#     Edge 173, Type (0, 0), BuildingBlock: CIFDUS_clean_linker_0, # of connection points: 2
#     Edge 174, Type (0, 0), BuildingBlock: CIFDUS_clean_linker_0, # of connection points: 2
#     Edge 175, Type (0, 0), BuildingBlock: CIFDUS_clean_linker_0, # of connection points: 2
#     Edge 176, Type (0, 0), BuildingBlock: CIFDUS_clean_linker_0, # of connection points: 2
#     Edge 177, Type (0, 0), BuildingBlock: CIFDUS_clean_linker_0, # of connection points: 2
#     Edge 178, Type (0, 0), BuildingBlock: CIFDUS_clean_linker_0, # of connection points: 2
#     Edge 179, Type (0, 0), BuildingBlock: CIFDUS_clean_linker_0, # of connection points: 2
#     Edge 180, Type (0, 0), BuildingBlock: CIFDUS_clean_linker_0, # of connection points: 2
#     Edge 181, Type (0, 0), BuildingBlock: CIFDUS_clean_linker_0, # of connection points: 2
#     Edge 182, Type (0, 0), BuildingBlock: CIFDUS_clean_linker_0, # of connection points: 2
#     Edge 183, Type (0, 0), BuildingBlock: CIFDUS_clean_linker_0, # of connection points: 2
#     Edge 184, Type (0, 0), BuildingBlock: CIFDUS_clean_linker_0, # of connection points: 2
#     Edge 185, Type (0, 0), BuildingBlock: CIFDUS_clean_linker_0, # of connection points: 2
#     Edge 186, Type (0, 0), BuildingBlock: CIFDUS_clean_linker_0, # of connection points: 2
#     Edge 187, Type (0, 0), BuildingBlock: CIFDUS_clean_linker_0, # of connection points: 2
#     Edge 188, Type (0, 0), BuildingBlock: CIFDUS_clean_linker_0, # of connection points: 2
#     Edge 189, Type (0, 0), BuildingBlock: CIFDUS_clean_linker_0, # of connection points: 2
#     Edge 190, Type (0, 0), BuildingBlock: CIFDUS_clean_linker_0, # of connection points: 2
#     Edge 191, Type (0, 0), BuildingBlock: CIFDUS_clean_linker_0, # of connection points: 2
# Relax obj value: 0.428
# Max RMSD: 0.449
# Mean RMSD: 0.323
data_MOF--net-lcs-e--node1-GEDQOX_clean_sbu_0--edge1-CIFDUS_clean_linker_0
_symmetry_space_group_name_H-M    P1
_symmetry_Int_Tables_number       1
_symmetry_cell_setting            triclinic
loop_
_symmetry_equiv_pos_as_xyz
'x, y, z'
_cell_length_a     59.207576
_cell_length_b     66.5394
_cell_length_c     57.853194
_cell_angle_alpha  95.178113
_cell_angle_beta   85.236656
_cell_angle_gamma 87.075011
loop_
_atom_site_label
_atom_site_type_symbol
_atom_site_fract_x
_atom_site_fract_y
_atom_site_fract_z
_atom_type_partial_charge
Nd0 Nd 0.07151 0.4432 0.18382 0.0
Nd1 Nd 0.03319 0.47376 0.17502 0.0
C2 C 0.09642 0.41216 0.19456 0.0
C3 C 0.09415 0.40105 0.21532 0.0
C4 C 0.07306 0.39402 0.22312 0.0
C5 C 0.07024 0.38609 0.24458 0.0
C6 C 0.08833 0.38551 0.25867 0.0
C7 C 0.10955 0.39195 0.25058 0.0
C8 C 0.11245 0.39961 0.22901 0.0
C9 C 0.07638 0.48258 0.20079 0.0
C10 C 0.02572 0.44896 0.22043 0.0
C11 C 0.0092 0.50704 0.16661 0.0
C12 C 0.01065 0.52865 0.16158 0.0
C13 C 0.02756 0.54071 0.17003 0.0
C14 C 0.02672 0.56167 0.16794 0.0
C15 C 0.00883 0.57133 0.15753 0.0
C16 C 0.99251 0.55896 0.14818 0.0
C17 C 0.99343 0.53798 0.1502 0.0
C18 C 0.02663 0.43332 0.16216 0.0
C19 C 0.0811 0.46578 0.14102 0.0
O20 O 0.08022 0.41037 0.18066 0.0
O21 O 0.10233 0.43078 0.19817 0.0
O22 O 0.09309 0.47068 0.19066 0.0
O23 O 0.05829 0.47354 0.20189 0.0
O24 O 0.04397 0.43778 0.21177 0.0
O25 O 0.0183 0.46512 0.21082 0.0
O26 O 0.0138 0.50262 0.18738 0.0
O27 O 0.01638 0.49261 0.15031 0.0
O28 O 0.01024 0.44658 0.17002 0.0
O29 O 0.04462 0.44241 0.15909 0.0
O30 O 0.06667 0.47993 0.15247 0.0
O31 O 0.08047 0.44716 0.14639 0.0
H32 H 0.05852 0.39529 0.21309 0.0
H33 H 0.05376 0.3812 0.25057 0.0
H34 H 0.12381 0.39132 0.26114 0.0
H35 H 0.12875 0.40508 0.22339 0.0
H36 H 0.04112 0.53403 0.17884 0.0
H37 H 0.04002 0.57035 0.17488 0.0
H38 H 0.97837 0.56555 0.14017 0.0
H39 H 0.98009 0.52912 0.1436 0.0
Nd40 Nd 0.95634 0.76237 0.47824 0.0
Nd41 Nd 0.93178 0.73453 0.51021 0.0
C42 C 0.96646 0.79259 0.45418 0.0
C43 C 0.95291 0.80558 0.44079 0.0
C44 C 0.93292 0.81615 0.45101 0.0
C45 C 0.91993 0.82799 0.43784 0.0
C46 C 0.92672 0.82944 0.41421 0.0
C47 C 0.9462 0.81814 0.40379 0.0
C48 C 0.95923 0.80636 0.41702 0.0
C49 C 0.98553 0.729 0.48036 0.0
C50 C 0.91496 0.7368 0.45807 0.0
C51 C 0.91675 0.70311 0.52979 0.0
C52 C 0.92523 0.69103 0.54729 0.0
C53 C 0.94837 0.69052 0.55115 0.0
C54 C 0.95584 0.68134 0.57006 0.0
C55 C 0.94021 0.67265 0.58505 0.0
C56 C 0.91728 0.67251 0.58069 0.0
C57 C 0.9098 0.6817 0.56182 0.0
C58 C 0.91242 0.77327 0.51274 0.0
C59 C 0.9666 0.76323 0.53299 0.0
O60 O 0.96226 0.79478 0.47698 0.0
O61 O 0.96929 0.77369 0.44539 0.0
O62 O 0.98976 0.74335 0.46738 0.0
O63 O 0.96586 0.73198 0.49051 0.0
O64 O 0.92896 0.75134 0.45501 0.0
O65 O 0.91446 0.72696 0.47682 0.0
O66 O 0.92904 0.70158 0.50978 0.0
O67 O 0.91 0.72174 0.5374 0.0
O68 O 0.91349 0.76298 0.53071 0.0
O69 O 0.92039 0.76269 0.49441 0.0
O70 O 0.95906 0.74495 0.53302 0.0
O71 O 0.96475 0.77412 0.5151 0.0
H72 H 0.92752 0.8156 0.46926 0.0
H73 H 0.90521 0.83677 0.44648 0.0
H74 H 0.9517 0.81886 0.38557 0.0
H75 H 0.97436 0.79795 0.40873 0.0
H76 H 0.96042 0.69795 0.54017 0.0
H77 H 0.9735 0.68182 0.57362 0.0
H78 H 0.90502 0.66621 0.59256 0.0
H79 H 0.89188 0.68229 0.55918 0.0
Nd80 Nd 0.4913 0.70709 0.8328 0.0
Nd81 Nd 0.511 0.73434 0.79787 0.0
C82 C 0.48014 0.67547 0.85442 0.0
C83 C 0.46482 0.65939 0.85035 0.0
C84 C 0.46085 0.65175 0.82768 0.0
C85 C 0.44411 0.63799 0.8244 0.0
C86 C 0.43089 0.63239 0.84375 0.0
C87 C 0.43498 0.64007 0.8663 0.0
C88 C 0.45191 0.65342 0.86957 0.0
C89 C 0.47654 0.74591 0.85057 0.0
C90 C 0.46286 0.71675 0.78919 0.0
C91 C 0.52858 0.76055 0.77097 0.0
C92 C 0.5382 0.77947 0.76451 0.0
C93 C 0.5312 0.79822 0.77677 0.0
C94 C 0.53687 0.81622 0.76745 0.0
C95 C 0.54936 0.8158 0.74553 0.0
C96 C 0.55733 0.79691 0.73403 0.0
C97 C 0.55186 0.77898 0.74348 0.0
C98 C 0.51416 0.69317 0.78245 0.0
C99 C 0.53513 0.72983 0.84652 0.0
O100 O 0.49836 0.67537 0.84003 0.0
O101 O 0.46992 0.69334 0.85931 0.0
O102 O 0.47163 0.72955 0.85974 0.0
O103 O 0.48899 0.74186 0.83154 0.0
O104 O 0.46753 0.70362 0.80408 0.0
O105 O 0.47464 0.73292 0.78723 0.0
O106 O 0.50709 0.76114 0.77865 0.0
O107 O 0.54117 0.74618 0.7786 0.0
O108 O 0.51071 0.70764 0.76951 0.0
O109 O 0.51763 0.70087 0.80258 0.0
O110 O 0.5321 0.74122 0.82932 0.0
O111 O 0.52383 0.71358 0.84895 0.0
H112 H 0.47028 0.65673 0.81261 0.0
H113 H 0.44119 0.63207 0.8069 0.0
H114 H 0.42515 0.63561 0.88145 0.0
H115 H 0.45456 0.65949 0.8871 0.0
H116 H 0.52059 0.79895 0.79305 0.0
H117 H 0.53091 0.83045 0.77713 0.0
H118 H 0.56677 0.79584 0.71708 0.0
H119 H 0.55723 0.76466 0.73362 0.0
Nd120 Nd 0.59201 0.1713 0.08707 0.0
Nd121 Nd 0.62834 0.20016 0.06762 0.0
C122 C 0.55911 0.15205 0.10738 0.0
C123 C 0.55659 0.14294 0.1296 0.0
C124 C 0.53569 0.13591 0.13742 0.0
C125 C 0.53348 0.12659 0.15815 0.0
C126 C 0.55217 0.12418 0.1714 0.0
C127 C 0.57306 0.13145 0.16355 0.0
C128 C 0.57526 0.14075 0.14282 0.0
C129 C 0.6361 0.16236 0.0946 0.0
C130 C 0.6037 0.21212 0.11926 0.0
C131 C 0.66718 0.21333 0.04838 0.0
C132 C 0.68859 0.20844 0.03233 0.0
C133 C 0.69802 0.18858 0.02661 0.0
C134 C 0.71902 0.18471 1.01289 0.0
C135 C 0.7314 0.20058 1.0043 0.0
C136 C 0.7216 0.22042 1.00988 0.0
C137 C 0.70067 0.22424 0.02359 0.0
C138 C 0.58349 0.21181 0.06245 0.0
C139 C 0.61313 0.16156 0.03603 0.0
O140 O 0.55922 0.1718 0.10879 0.0
O141 O 0.57476 0.14315 0.09202 0.0
O142 O 0.62229 0.14858 0.08924 0.0
O143 O 0.6264 0.17947 0.09588 0.0
O144 O 0.58904 0.19849 0.11402 0.0
O145 O 0.62179 0.21516 0.10511 0.0
O146 O 0.66531 0.20515 0.06815 0.0
O147 O 0.64762 0.21525 0.0395 0.0
O148 O 0.59959 0.22435 0.06487 0.0
O149 O 0.59184 0.19384 0.06019 0.0
O150 O 0.63078 0.1703 0.04405 0.0
O151 O 0.59344 0.16287 0.04852 0.0
H152 H 0.52112 0.13756 0.12745 0.0
H153 H 0.51707 0.12147 0.16396 0.0
H154 H 0.58779 0.1297 0.17328 0.0
H155 H 0.59157 0.14608 0.13699 0.0
H156 H 0.68923 0.17604 0.03295 0.0
H157 H 0.72575 0.1692 1.00945 0.0
H158 H 0.73002 0.23316 1.00351 0.0
H159 H 0.69399 0.23973 0.02761 0.0
Nd160 Nd 0.00741 0.70778 0.0992 0.0
Nd161 Nd 0.9937 0.73207 0.14419 0.0
C162 C 0.01576 0.68227 0.06211 0.0
C163 C 0.0327 0.66546 0.06153 0.0
C164 C 0.03398 0.65547 0.08178 0.0
C165 C 0.05345 0.64434 0.08538 0.0
C166 C 0.07203 0.64235 0.06853 0.0
C167 C 0.07024 0.65115 0.04743 0.0
C168 C 0.05074 0.66287 0.04408 0.0
C169 C 0.03201 0.74125 0.10709 0.0
C170 C 0.03777 0.70127 0.1415 0.0
C171 C 0.98469 0.76289 0.17645 0.0
C172 C 0.97912 0.7848 0.17675 0.0
C173 C 0.97312 0.79348 0.15665 0.0
C174 C 0.97049 0.81459 0.15666 0.0
C175 C 0.97422 0.8273 0.17662 0.0
C176 C 0.97967 0.81847 0.19678 0.0
C177 C 0.98202 0.79745 0.19684 0.0
C178 C 0.98608 0.69128 0.14598 0.0
C179 C 0.95981 0.73441 0.10244 0.0
O180 O 0.99789 0.68136 0.07678 0.0
O181 O 0.02422 0.70005 0.06356 0.0
O182 O 0.04082 0.72353 0.09913 0.0
O183 O 0.01062 0.7411 0.11069 0.0
O184 O 0.0294 0.69163 0.12348 0.0
O185 O 0.02953 0.71956 0.14985 0.0
O186 O 1.00522 0.75683 0.16764 0.0
O187 O 0.96934 0.75056 0.16997 0.0
O188 O 0.99149 0.70305 0.1636 0.0
O189 O 0.98277 0.7017 0.12917 0.0
O190 O 0.963 0.73961 0.12439 0.0
O191 O 0.97515 0.72332 0.08843 0.0
H192 H 0.02067 0.65754 0.09588 0.0
H193 H 0.05418 0.63819 0.102 0.0
H194 H 0.08407 0.6495 0.0338 0.0
H195 H 0.05026 0.6708 0.02856 0.0
H196 H 0.9711 0.78398 0.14083 0.0
H197 H 0.96645 0.82099 0.14083 0.0
H198 H 0.98246 0.82788 0.21244 0.0
H199 H 0.9868 0.79107 0.21244 0.0
Nd200 Nd 0.7646 0.77748 0.40258 0.0
Nd201 Nd 0.74249 0.77048 0.44953 0.0
C202 C 0.79174 0.79043 0.36954 0.0
C203 C 0.79201 0.81065 0.36071 0.0
C204 C 0.80955 0.82336 0.36566 0.0
C205 C 0.80861 0.8433 0.35978 0.0
C206 C 0.79013 0.85095 0.34873 0.0
C207 C 0.77286 0.83807 0.3433 0.0
C208 C 0.77376 0.81817 0.34924 0.0
C209 C 0.71855 0.7822 0.40385 0.0
C210 C 0.75334 0.8154 0.44393 0.0
C211 C 0.7167 0.75608 0.48273 0.0
C212 C 0.69507 0.7464 0.4814 0.0
C213 C 0.68108 0.75058 0.46375 0.0
C214 C 0.66073 0.74114 0.462 0.0
C215 C 0.65417 0.72713 0.47767 0.0
C216 C 0.66852 0.72254 0.49491 0.0
C217 C 0.68883 0.73216 0.49678 0.0
C218 C 0.78886 0.76591 0.44489 0.0
C219 C 0.74152 0.73693 0.40624 0.0
O220 O 0.79747 0.78951 0.39083 0.0
O221 O 0.77429 0.77983 0.36521 0.0
O222 O 0.73161 0.77591 0.38525 0.0
O223 O 0.72992 0.78772 0.42063 0.0
O224 O 0.76569 0.80816 0.42465 0.0
O225 O 0.74044 0.80414 0.45626 0.0
O226 O 0.71622 0.77528 0.47934 0.0
O227 O 0.73425 0.74577 0.47152 0.0
O228 O 0.77747 0.77534 0.46313 0.0
O229 O 0.77606 0.75909 0.43025 0.0
O230 O 0.72973 0.74755 0.42372 0.0
O231 O 0.76056 0.74335 0.39678 0.0
H232 H 0.82369 0.81806 0.37469 0.0
H233 H 0.82206 0.8529 0.36451 0.0
H234 H 0.75855 0.84339 0.33454 0.0
H235 H 0.75985 0.80887 0.34526 0.0
H236 H 0.68592 0.76115 0.45133 0.0
H237 H 0.65015 0.74476 0.44836 0.0
H238 H 0.66376 0.71189 0.50729 0.0
H239 H 0.69963 0.72852 0.51022 0.0
Nd240 Nd 0.44089 0.44567 0.67672 0.0
Nd241 Nd 0.47124 0.47879 0.70406 0.0
C242 C 0.4221 0.41265 0.66094 0.0
C243 C 0.41182 0.39387 0.652 0.0
C244 C 0.42555 0.37613 0.64519 0.0
C245 C 0.41652 0.3591 0.63418 0.0
C246 C 0.3935 0.35934 0.62966 0.0
C247 C 0.37956 0.37684 0.63733 0.0
C248 C 0.38862 0.39391 0.64833 0.0
C249 C 0.43742 0.48285 0.65854 0.0
C250 C 0.49656 0.44684 0.66205 0.0
C251 C 0.49046 0.51171 0.721 0.0
C252 C 0.4913 0.5328 0.73233 0.0
C253 C 0.4765 0.54893 0.72776 0.0
C254 C 0.47927 0.5689 0.73729 0.0
C255 C 0.49708 0.5734 0.75149 0.0
C256 C 0.51173 0.55704 0.75595 0.0
C257 C 0.50881 0.53717 0.74663 0.0
C258 C 0.47407 0.43892 0.71459 0.0
C259 C 0.41867 0.4723 0.72504 0.0
O260 O 0.44408 0.41355 0.66208 0.0
O261 O 0.41001 0.42929 0.66896 0.0
O262 O 0.42798 0.46686 0.65043 0.0
O263 O 0.44936 0.47798 0.67437 0.0
O264 O 0.47796 0.43652 0.66181 0.0
O265 O 0.49693 0.46489 0.67392 0.0
O266 O 0.48465 0.50893 0.69956 0.0
O267 O 0.48554 0.49676 0.73354 0.0
O268 O 0.49131 0.45037 0.71522 0.0
O269 O 0.45688 0.44912 0.71019 0.0
O270 O 0.43547 0.4848 0.72376 0.0
O271 O 0.41858 0.45534 0.71096 0.0
H272 H 0.44346 0.37552 0.64784 0.0
H273 H 0.4277 0.3458 0.6289 0.0
H274 H 0.36181 0.37764 0.63401 0.0
H275 H 0.3776 0.40738 0.65326 0.0
H276 H 0.46292 0.54615 0.71666 0.0
H277 H 0.46735 0.58077 0.73352 0.0
H278 H 0.52598 0.55954 0.76619 0.0
H279 H 0.52075 0.52518 0.75016 0.0
Nd280 Nd 0.88646 0.17003 0.89301 0.0
Nd281 Nd 0.90919 0.17777 0.94023 0.0
C282 C 0.85777 0.16767 0.86107 0.0
C283 C 0.83428 0.16295 0.85982 0.0
C284 C 0.82204 0.15468 0.87818 0.0
C285 C 0.79985 0.14914 0.87574 0.0
C286 C 0.78997 0.15189 0.85493 0.0
C287 C 0.80233 0.16075 0.83702 0.0
C288 C 0.82436 0.16603 0.83938 0.0
C289 C 0.92994 0.15107 0.88752 0.0
C290 C 0.88221 0.13774 0.93153 0.0
C291 C 0.93756 0.18096 0.97279 0.0
C292 C 0.96112 0.18631 0.97317 0.0
C293 C 0.97335 0.19085 0.95265 0.0
C294 C 0.9947 0.19869 0.95359 0.0
C295 C 1.00405 0.20201 0.97506 0.0
C296 C 0.99196 0.19683 0.99543 0.0
C297 C 0.97058 0.18909 0.99447 0.0
C298 C 0.86266 0.18994 0.94865 0.0
C299 C 0.91853 0.20807 0.89881 0.0
O300 O 0.86136 0.1848 0.87289 0.0
O301 O 0.87142 0.15247 0.8649 0.0
O302 O 0.91594 0.15072 0.87151 0.0
O303 O 0.92049 0.16174 0.90523 0.0
O304 O 0.87152 0.14693 0.91594 0.0
O305 O 0.90009 0.14505 0.94069 0.0
O306 O 0.93402 0.16363 0.96138 0.0
O307 O 0.92358 0.19579 0.96858 0.0
O308 O 0.87746 0.19147 0.96381 0.0
O309 O 0.87303 0.18266 0.92937 0.0
O310 O 0.92564 0.20066 0.91751 0.0
O311 O 0.90159 0.20063 0.88799 0.0
H312 H 0.82972 0.1523 0.89415 0.0
H313 H 0.79063 0.14251 0.88983 0.0
H314 H 0.79495 0.16377 0.82108 0.0
H315 H 0.8337 0.17244 0.82518 0.0
H316 H 0.9661 0.1889 0.93606 0.0
H317 H 1.00373 0.20244 0.93763 0.0
H318 H 0.99863 0.19953 1.01224 0.0
H319 H 0.96113 0.18593 1.01046 0.0
Nd320 Nd 0.31793 0.03088 0.43659 0.0
Nd321 Nd 0.28507 0.0553 0.40892 0.0
C322 C 0.34811 0.01243 0.45896 0.0
C323 C 0.35337 0.99061 0.45886 0.0
C324 C 0.37008 0.98074 0.44247 0.0
C325 C 0.37525 0.96012 0.44249 0.0
C326 C 0.36395 0.94915 0.45904 0.0
C327 C 0.34624 0.95865 0.47435 0.0
C328 C 0.34098 0.97925 0.4743 0.0
C329 C 0.27357 0.02646 0.45163 0.0
C330 C 0.3124 0.01442 0.38142 0.0
C331 C 0.24744 0.07054 0.39416 0.0
C332 C 0.23044 0.08718 0.40149 0.0
C333 C 0.22839 0.09652 0.42436 0.0
C334 C 0.21545 0.11478 0.42982 0.0
C335 C 0.20464 0.12404 0.41241 0.0
C336 C 0.20591 0.11405 0.38982 0.0
C337 C 0.21874 0.09581 0.38442 0.0
C338 C 0.3296 0.06153 0.3945 0.0
C339 C 0.30554 0.07974 0.45324 0.0
O340 O 0.35341 0.0202 0.43942 0.0
O341 O 0.32826 0.01929 0.46896 0.0
O342 O 0.28772 0.01132 0.44367 0.0
O343 O 0.2816 0.04264 0.44508 0.0
O344 O 0.32443 0.01368 0.39973 0.0
O345 O 0.29358 0.02642 0.38259 0.0
O346 O 0.24778 0.05487 0.40645 0.0
O347 O 0.26765 0.07641 0.38821 0.0
O348 O 0.31267 0.07091 0.38629 0.0
O349 O 0.32181 0.05075 0.40939 0.0
O350 O 0.29005 0.08013 0.43798 0.0
O351 O 0.31897 0.06337 0.45492 0.0
H352 H 0.37962 0.98903 0.43006 0.0
H353 H 0.3892 0.95311 0.43069 0.0
H354 H 0.33738 0.95034 0.48723 0.0
H355 H 0.32764 0.98634 0.48677 0.0
H356 H 0.23764 0.09021 0.43767 0.0
H357 H 0.21492 0.12217 0.44734 0.0
H358 H 0.19751 0.12063 0.37612 0.0
H359 H 0.22039 0.08891 0.36662 0.0
Nd360 Nd 0.19452 0.01406 0.60819 0.0
Nd361 Nd 0.2357 1.00092 0.63279 0.0
C362 C 0.17151 0.02548 0.57463 0.0
C363 C 0.16188 0.04533 0.57097 0.0
C364 C 0.16363 0.05148 0.54848 0.0
C365 C 0.15653 0.07108 0.54488 0.0
C366 C 0.14756 0.08467 0.56377 0.0
C367 C 0.14644 0.0787 0.58643 0.0
C368 C 0.15365 0.05909 0.59003 0.0
C369 C 0.18271 0.0231 0.65513 0.0
C370 C 0.22779 0.04802 0.62844 0.0
C371 C 0.26379 0.98297 0.6587 0.0
C372 C 0.26023 0.9737 0.68082 0.0
C373 C 0.23854 0.97453 0.69286 0.0
C374 C 0.23546 0.96696 0.71463 0.0
C375 C 0.25405 0.95848 0.72481 0.0
C376 C 0.27562 0.95718 0.71232 0.0
C377 C 0.27866 0.96473 0.69053 0.0
C378 C 0.24253 1.00223 0.58468 0.0
C379 C 0.19158 0.97309 0.63001 0.0
O380 O 0.19372 0.02425 0.57315 0.0
O381 O 0.16205 0.01682 0.59219 0.0
O382 O 0.16956 0.02717 0.63913 0.0
O383 O 0.20163 0.01515 0.64615 0.0
O384 O 0.21405 0.04262 0.61245 0.0
O385 O 0.23705 0.03492 0.64119 0.0
O386 O 0.25971 1.00259 0.66015 0.0
O387 O 0.25565 0.97358 0.6406 0.0
O388 O 0.25663 1.00883 0.59919 0.0
O389 O 0.22613 0.99491 0.59576 0.0
O390 O 0.2083 0.97902 0.64217 0.0
O391 O 0.18583 0.98205 0.61193 0.0
H392 H 0.17073 0.0412 0.53378 0.0
H393 H 0.15788 0.0756 0.52731 0.0
H394 H 0.13952 0.08902 0.60118 0.0
H395 H 0.15292 0.05472 0.60766 0.0
H396 H 0.22407 0.98151 0.68569 0.0
H397 H 0.21869 0.96844 0.72386 0.0
H398 H 0.29024 0.95052 0.71953 0.0
H399 H 0.29549 0.9639 0.68147 0.0
Nd400 Nd 0.21728 0.91231 0.88101 0.0
Nd401 Nd 0.23346 0.95212 0.90756 0.0
C402 C 0.20848 0.87967 0.85472 0.0
C403 C 0.1899 0.87355 0.8405 0.0
C404 C 0.18442 0.88417 0.8216 0.0
C405 C 0.16717 0.878 0.80802 0.0
C406 C 0.15479 0.8612 0.81311 0.0
C407 C 0.16003 0.85079 0.83228 0.0
C408 C 0.17745 0.85689 0.84579 0.0
C409 C 0.19416 0.92533 0.92283 0.0
C410 C 0.19023 0.95569 0.87623 0.0
C411 C 0.23984 0.98144 0.93925 0.0
C412 C 0.24708 0.98221 0.96281 0.0
C413 C 0.24142 0.96727 0.9776 0.0
C414 C 0.25022 0.96732 0.99925 0.0
C415 C 0.26499 0.98215 1.00619 0.0
C416 C 0.2708 0.99686 0.99107 0.0
C417 C 0.26181 0.99693 0.96963 0.0
C418 C 0.25033 0.9487 0.8611 0.0
C419 C 0.26234 0.90984 0.91215 0.0
O420 O 0.22131 0.89364 0.8472 0.0
O421 O 0.20363 0.88184 0.87734 0.0
O422 O 0.18449 0.91811 0.90479 0.0
O423 O 0.21545 0.92505 0.91867 0.0
O424 O 0.1964 0.93747 0.86561 0.0
O425 O 0.19971 0.96326 0.89476 0.0
O426 O 0.21969 0.97474 0.93625 0.0
O427 O 0.2556 0.97429 0.92293 0.0
O428 O 0.25474 0.96335 0.87601 0.0
O429 O 0.23836 0.93684 0.87153 0.0
O430 O 0.25713 0.9286 0.92102 0.0
O431 O 0.25119 0.90086 0.89537 0.0
H432 H 0.19359 0.89715 0.81709 0.0
H433 H 0.16391 0.88619 0.79318 0.0
H434 H 0.15064 0.83797 0.83689 0.0
H435 H 0.18125 0.84854 0.86037 0.0
H436 H 0.23046 0.95548 0.97231 0.0
H437 H 0.24542 0.95582 1.01054 0.0
H438 H 0.28264 1.00814 0.9956 0.0
H439 H 0.2668 1.00821 0.95811 0.0
Nd440 Nd 0.37525 0.93298 0.21145 0.0
Nd441 Nd 0.3724 0.97152 0.20136 0.0
C442 C 0.38466 0.89794 0.22809 0.0
C443 C 0.39751 0.89039 0.24656 0.0
C444 C 0.39728 0.90117 0.2686 0.0
C445 C 0.41043 0.89393 0.28545 0.0
C446 C 0.42421 0.87592 0.28045 0.0
C447 C 0.4244 0.86531 0.25825 0.0
C448 C 0.41111 0.87244 0.24156 0.0
C449 C 0.38382 0.93349 0.16298 0.0
C450 C 0.41648 0.96152 0.22304 0.0
C451 C 0.36261 1.00501 0.18249 0.0
C452 C 0.35195 1.00663 0.16075 0.0
C453 C 0.35783 0.9922 0.14165 0.0
C454 C 0.34512 0.99142 0.12245 0.0
C455 C 0.32605 1.00481 0.12215 0.0
C456 C 0.32032 0.01935 0.14122 0.0
C457 C 0.33323 0.02027 0.16035 0.0
C458 C 0.36001 0.97075 0.24913 0.0
C459 C 0.33027 0.94496 0.19103 0.0
O460 O 0.36602 0.9091 0.23441 0.0
O461 O 0.39681 0.90471 0.21096 0.0
O462 O 0.37061 0.92151 0.17327 0.0
O463 O 0.39199 0.9454 0.17831 0.0
O464 O 0.4034 0.94795 0.23125 0.0
O465 O 0.40988 0.97127 0.206 0.0
O466 O 0.38308 0.99638 0.1806 0.0
O467 O 0.34944 0.99842 0.19897 0.0
O468 O 0.37402 0.98288 0.24024 0.0
O469 O 0.35363 0.95872 0.2329 0.0
O470 O 0.34363 0.95798 0.18236 0.0
O471 O 0.33731 0.9339 0.20694 0.0
H472 H 0.38709 0.91522 0.27276 0.0
H473 H 0.40972 0.90242 0.3024 0.0
H474 H 0.43518 0.85168 0.25351 0.0
H475 H 0.41175 0.86406 0.22453 0.0
H476 H 0.37183 0.98108 0.14181 0.0
H477 H 0.35017 0.98022 0.10793 0.0
H478 H 0.30549 0.02965 0.14167 0.0
H479 H 0.32804 0.03107 0.17523 0.0
Nd480 Nd 0.42553 0.27889 0.04188 0.0
Nd481 Nd 0.40576 0.25013 0.06892 0.0
C482 C 0.43983 0.2998 1.00816 0.0
C483 C 0.42869 0.30928 0.99027 0.0
C484 C 0.40543 0.3149 0.99369 0.0
C485 C 0.39566 0.32686 0.97832 0.0
C486 C 0.40923 0.33329 0.95971 0.0
C487 C 0.43167 0.32537 0.95461 0.0
C488 C 0.44146 0.3134 0.97003 0.0
C489 C 0.45695 0.24868 0.04815 0.0
C490 C 0.37699 0.26059 0.02569 0.0
C491 C 0.39637 0.21632 0.08639 0.0
C492 C 0.40679 0.20664 0.10475 0.0
C493 C 0.41505 0.18645 0.10046 0.0
C494 C 0.42646 0.17738 0.11719 0.0
C495 C 0.42972 0.18849 0.13829 0.0
C496 C 0.42224 0.2089 0.14225 0.0
C497 C 0.41088 0.21799 0.12551 0.0
C498 C 0.38696 0.28809 0.08241 0.0
C499 C 0.4388 0.28092 0.09455 0.0
O500 O 0.43463 0.30802 0.02962 0.0
O501 O 0.44014 0.28004 1.0059 0.0
O502 O 0.46003 0.26771 0.05066 0.0
O503 O 0.43686 0.24551 0.04279 0.0
O504 O 0.39212 0.27437 0.02309 0.0
O505 O 0.37945 0.24782 0.04153 0.0
O506 O 0.40991 0.21693 0.06751 0.0
O507 O 0.3844 0.23328 0.09269 0.0
O508 O 0.39143 0.27513 0.09718 0.0
O509 O 0.39154 0.28066 0.06167 0.0
O510 O 0.43243 0.26205 0.0931 0.0
O511 O 0.43477 0.29266 0.07778 0.0
H512 H 0.39531 0.31142 1.00913 0.0
H513 H 0.37836 0.33304 0.98251 0.0
H514 H 0.44236 0.33042 0.9404 0.0
H515 H 0.45932 0.30864 0.96705 0.0
H516 H 0.41262 0.17772 0.0842 0.0
H517 H 0.43208 0.16154 0.11405 0.0
H518 H 0.42426 0.21754 0.15868 0.0
H519 H 0.40521 0.2338 0.1289 0.0
Nd520 Nd 0.93055 0.95831 0.12639 0.0
Nd521 Nd 0.95253 0.98751 0.16235 0.0
C522 C 0.91583 0.92797 0.10066 0.0
C523 C 0.89931 0.91231 0.10049 0.0
C524 C 0.90399 0.89347 0.10869 0.0
C525 C 0.8878 0.87893 0.10805 0.0
C526 C 0.86697 0.88306 0.09892 0.0
C527 C 0.86261 0.90174 0.0903 0.0
C528 C 0.87866 0.91615 0.09094 0.0
C529 C 0.92895 0.99586 0.1101 0.0
C530 C 0.98454 0.96581 0.11986 0.0
C531 C 0.96398 0.01835 0.19058 0.0
C532 C 0.97574 0.03756 0.19238 0.0
C533 C 0.96566 0.05556 0.18579 0.0
C534 C 0.97534 0.07409 0.1906 0.0
C535 C 0.99531 0.07514 0.20218 0.0
C536 C 1.00573 0.05702 0.20808 0.0
C537 C 0.99602 0.03851 0.20332 0.0
C538 C 0.954 0.94679 0.16983 0.0
C539 C 0.8987 0.9784 0.17266 0.0
O540 O 0.93382 0.92592 0.1123 0.0
O541 O 0.90701 0.94653 0.10227 0.0
O542 O 0.92353 0.97946 0.099 0.0
O543 O 0.93754 0.99182 0.12858 0.0
O544 O 0.96877 0.9526 0.11779 0.0
O545 O 0.98043 0.98338 0.13242 0.0
O546 O 0.97624 1.00127 0.18639 0.0
O547 O 0.94499 0.0181 0.18055 0.0
O548 O 0.97025 0.95846 0.17458 0.0
O549 O 0.93792 0.95706 0.16322 0.0
O550 O 0.91538 0.99018 0.17718 0.0
O551 O 0.90083 0.96372 0.15536 0.0
H552 H 0.92009 0.88994 0.11543 0.0
H553 H 0.89166 0.86442 0.11439 0.0
H554 H 0.84665 0.90532 0.08328 0.0
H555 H 0.87482 0.93039 0.08396 0.0
H556 H 0.94987 0.05547 0.17759 0.0
H557 H 0.96665 0.08771 0.18606 0.0
H558 H 0.02127 0.05716 0.21671 0.0
H559 H 1.00407 0.02497 0.20884 0.0
Nd560 Nd 0.11428 0.64215 0.53723 0.0
Nd561 Nd 0.1465 0.6762 0.51707 0.0
C562 C 0.07977 0.62475 0.55842 0.0
C563 C 0.07073 0.62158 0.583 0.0
C564 C 0.05951 0.63759 0.59795 0.0
C565 C 0.04934 0.63437 0.62009 0.0
C566 C 0.04979 0.61499 0.62827 0.0
C567 C 0.06167 0.59908 0.61363 0.0
C568 C 0.07188 0.60231 0.59137 0.0
C569 C 0.15842 0.6391 0.55128 0.0
C570 C 0.12116 0.68627 0.56872 0.0
C571 C 0.18114 0.69577 0.50031 0.0
C572 C 0.20405 0.69181 0.48811 0.0
C573 C 0.21493 0.67241 0.48577 0.0
C574 C 0.23776 0.66946 0.47695 0.0
C575 C 0.25004 0.68584 0.47009 0.0
C576 C 0.23867 0.70506 0.47142 0.0
C577 C 0.21593 0.708 0.48044 0.0
C578 C 0.10058 0.68294 0.51536 0.0
C579 C 0.13878 0.6349 0.48237 0.0
O580 O 0.0785 0.64328 0.55233 0.0
O581 O 0.09846 0.61452 0.54922 0.0
O582 O 0.14288 0.62712 0.55731 0.0
O583 O 0.14982 0.65097 0.53851 0.0
O584 O 0.10803 0.67103 0.56403 0.0
O585 O 0.13932 0.6894 0.55489 0.0
O586 O 0.17874 0.6907 0.52171 0.0
O587 O 0.16373 0.69158 0.48848 0.0
O588 O 0.11449 0.69738 0.51751 0.0
O589 O 0.11127 0.66587 0.51171 0.0
O590 O 0.15264 0.64866 0.48984 0.0
O591 O 0.12132 0.62977 0.49674 0.0
H592 H 0.0582 0.6527 0.59244 0.0
H593 H 0.04095 0.64724 0.63077 0.0
H594 H 0.06243 0.5839 0.61898 0.0
H595 H 0.08026 0.58956 0.58047 0.0
H596 H 0.20597 0.65967 0.49134 0.0
H597 H 0.24593 0.65443 0.47593 0.0
H598 H 0.24765 0.71803 0.46654 0.0
H599 H 0.20784 0.72311 0.48218 0.0
Nd600 Nd 0.98243 0.5631 0.80122 0.0
Nd601 Nd 0.94268 0.58924 0.78399 0.0
C602 C 0.00837 0.53172 0.81168 0.0
C603 C 0.00827 0.5102 0.81718 0.0
C604 C 0.99155 0.49747 0.80971 0.0
C605 C 0.99382 0.47649 0.81131 0.0
C606 C 0.01298 0.46754 0.82032 0.0
C607 C 0.02915 0.48054 0.8288 0.0
C608 C 0.02683 0.50153 0.82719 0.0
C609 C 0.98526 0.60433 0.80826 0.0
C610 C 0.93109 0.57097 0.8327 0.0
C611 C 0.91663 0.61764 0.76923 0.0
C612 C 0.92176 0.63248 0.75287 0.0
C613 C 0.94436 0.63732 0.74797 0.0
C614 C 0.95012 0.64853 0.72944 0.0
C615 C 0.93327 0.65498 0.71581 0.0
C616 C 0.91052 0.65101 0.72133 0.0
C617 C 0.90477 0.63973 0.73986 0.0
C618 C 0.94263 0.54826 0.77409 0.0
C619 C 0.9921 0.58366 0.75161 0.0
O620 O 1.00383 0.53511 0.79061 0.0
O621 O 0.99987 0.54621 0.82735 0.0
O622 O 1.00306 0.59169 0.80503 0.0
O623 O 0.96755 0.59471 0.81054 0.0
O624 O 0.95064 0.55973 0.82828 0.0
O625 O 0.92528 0.58493 0.81925 0.0
O626 O 0.9262 0.62002 0.78881 0.0
O627 O 0.91809 0.5989 0.75989 0.0
O628 O 0.92408 0.55968 0.77882 0.0
O629 O 0.95952 0.55872 0.77305 0.0
O630 O 0.9724 0.5941 0.75678 0.0
O631 O 0.99907 0.56964 0.76489 0.0
H632 H 0.9771 0.50365 0.80188 0.0
H633 H 0.98069 0.46722 0.805 0.0
H634 H 0.04422 0.47442 0.83568 0.0
H635 H 0.04013 0.51091 0.83287 0.0
H636 H 0.95769 0.63154 0.75766 0.0
H637 H 0.96779 0.65122 0.725 0.0
H638 H 0.89749 0.65559 0.71047 0.0
H639 H 0.88735 0.63578 0.74324 0.0
Nd640 Nd 0.13788 0.27728 0.43126 0.0
Nd641 Nd 0.11592 0.24927 0.45782 0.0
C642 C 0.15086 0.3117 0.41754 0.0
C643 C 0.13863 0.32673 0.40579 0.0
C644 C 0.11534 0.32516 0.40357 0.0
C645 C 0.10392 0.33818 0.39038 0.0
C646 C 0.11571 0.35288 0.3792 0.0
C647 C 0.13884 0.35491 0.38234 0.0
C648 C 0.15024 0.34187 0.39557 0.0
C649 C 0.15719 0.23904 0.42007 0.0
C650 C 0.10074 0.25332 0.40495 0.0
C651 C 0.09533 0.22265 0.48151 0.0
C652 C 0.10106 0.21424 0.50277 0.0
C653 C 0.12379 0.21199 0.50779 0.0
C654 C 0.12916 0.20295 0.52756 0.0
C655 C 0.11182 0.19603 0.54227 0.0
C656 C 0.08902 0.20067 0.53877 0.0
C657 C 0.08366 0.20964 0.51894 0.0
C658 C 0.09275 0.28659 0.46453 0.0
C659 C 0.16176 0.26638 0.47836 0.0
O660 O 0.14251 0.3098 0.43886 0.0
O661 O 0.15586 0.29436 0.4051 0.0
O662 O 0.15541 0.2521 0.40485 0.0
O663 O 0.15093 0.24682 0.44032 0.0
O664 O 0.11016 0.27081 0.40705 0.0
O665 O 0.10274 0.24066 0.42122 0.0
O666 O 0.109 0.21742 0.46271 0.0
O667 O 0.08966 0.24189 0.48447 0.0
O668 O 0.1016 0.27774 0.48099 0.0
O669 O 0.10096 0.27783 0.44522 0.0
O670 O 0.14843 0.25101 0.47837 0.0
O671 O 0.15808 0.28032 0.46404 0.0
H672 H 0.10618 0.31346 0.41145 0.0
H673 H 0.08611 0.33634 0.38828 0.0
H674 H 0.14843 0.36586 0.37354 0.0
H675 H 0.16823 0.34313 0.39714 0.0
H676 H 0.13741 0.21618 0.49583 0.0
H677 H 0.14684 0.1993 0.52984 0.0
H678 H 0.07546 0.19526 0.54989 0.0
H679 H 0.06602 0.21206 0.51566 0.0
Nd680 Nd 0.53112 0.29534 0.2566 0.0
Nd681 Nd 0.54385 0.33181 0.22838 0.0
C682 C 0.52414 0.25992 0.27302 0.0
C683 C 0.52022 0.23994 0.28224 0.0
C684 C 0.52967 0.22181 0.27002 0.0
C685 C 0.52724 0.20315 0.27938 0.0
C686 C 0.5155 0.20199 0.30145 0.0
C687 C 0.5058 0.22023 0.31348 0.0
C688 C 0.50804 0.23885 0.30398 0.0
C689 C 0.51092 0.33296 0.27281 0.0
C690 C 0.50577 0.30398 0.2087 0.0
C691 C 0.55642 0.36671 0.2145 0.0
C692 C 0.57819 0.37663 0.21098 0.0
C693 C 0.58247 0.3936 0.22588 0.0
C694 C 0.60261 0.40349 0.22247 0.0
C695 C 0.61897 0.3967 0.20399 0.0
C696 C 0.61485 0.37949 0.18931 0.0
C697 C 0.59472 0.36955 0.19276 0.0
C698 C 0.56801 0.29665 0.21349 0.0
C699 C 0.56858 0.32414 0.27652 0.0
O700 O 0.54017 0.2623 0.25665 0.0
O701 O 0.51141 0.27636 0.28016 0.0
O702 O 0.51665 0.31923 0.28622 0.0
O703 O 0.51392 0.32564 0.25185 0.0
O704 O 0.51262 0.29054 0.2227 0.0
O705 O 0.51229 0.32276 0.21055 0.0
O706 O 0.54909 0.36447 0.23601 0.0
O707 O 0.5532 0.35101 0.20011 0.0
O708 O 0.5625 0.31016 0.19996 0.0
O709 O 0.56253 0.30245 0.2346 0.0
O710 O 0.56299 0.3366 0.26113 0.0
O711 O 0.56102 0.30577 0.27653 0.0
H712 H 0.53908 0.22202 0.25318 0.0
H713 H 0.53454 0.1896 0.26916 0.0
H714 H 0.4969 0.22029 0.3306 0.0
H715 H 0.50069 0.2525 0.314 0.0
H716 H 0.57006 0.3994 0.24006 0.0
H717 H 0.60504 0.41684 0.23394 0.0
H718 H 0.62719 0.37369 0.17509 0.0
H719 H 0.5921 0.35642 0.18103 0.0
Nd720 Nd 0.394 0.85285 0.9903 0.0
Nd721 Nd 0.4278 0.88366 0.96914 0.0
C722 C 0.35739 0.83323 1.0015 0.0
C723 C 0.33365 0.83604 1.01177 0.0
C724 C 0.32163 0.85492 1.01373 0.0
C725 C 0.29884 0.85689 0.0228 0.0
C726 C 0.28767 0.84004 0.03017 0.0
C727 C 0.30012 0.82134 0.0289 0.0
C728 C 0.32286 0.81938 0.01977 0.0
C729 C 0.43752 0.84421 1.00277 0.0
C730 C 0.40243 0.89358 0.02414 0.0
C731 C 0.45954 0.90493 0.94862 0.0
C732 C 0.46991 0.90705 0.92408 0.0
C733 C 0.48962 0.89533 0.91465 0.0
C734 C 0.49995 0.89776 0.89225 0.0
C735 C 0.49105 0.91201 0.87812 0.0
C736 C 0.47133 0.92377 0.88763 0.0
C737 C 0.46102 0.92136 0.91013 0.0
C738 C 0.38564 0.88144 0.95104 0.0
C739 C 0.42693 0.83733 0.94335 0.0
O740 O 0.36211 0.83932 0.98078 0.0
O741 O 0.3731 0.83698 1.01565 0.0
O742 O 0.41998 0.83442 1.00896 0.0
O743 O 0.4314 0.85789 0.99054 0.0
O744 O 0.3887 0.87929 0.01825 0.0
O745 O 0.41983 0.89784 1.00912 0.0
O746 O 0.46398 0.88791 0.95761 0.0
O747 O 0.43864 0.9122 0.9548 0.0
O748 O 0.40472 0.88315 0.93903 0.0
O749 O 0.38901 0.88142 0.97234 0.0
O750 O 0.43888 0.85342 0.94704 0.0
O751 O 0.40761 0.83498 0.95574 0.0
H752 H 0.32978 0.86804 1.00803 0.0
H753 H 0.28987 0.87159 0.0238 0.0
H754 H 0.29207 0.80801 0.03414 0.0
H755 H 0.33192 0.80471 0.01857 0.0
H756 H 0.49734 0.88431 0.92472 0.0
H757 H 0.51529 0.88858 0.88625 0.0
H758 H 0.46356 0.93476 0.87759 0.0
H759 H 0.44602 0.93084 0.91661 0.0
Nd760 Nd 0.03654 0.30762 0.83101 0.0
Nd761 Nd 0.01454 0.33648 0.8756 0.0
C762 C 0.04983 0.27417 0.80399 0.0
C763 C 0.05517 0.25234 0.8058 0.0
C764 C 0.04232 0.24145 0.82144 0.0
C765 C 0.04575 0.22036 0.82088 0.0
C766 C 0.06217 0.20966 0.80472 0.0
C767 C 0.07539 0.22076 0.78955 0.0
C768 C 0.0719 0.2418 0.7901 0.0
C769 C 0.04278 0.34852 0.83031 0.0
C770 C 0.06345 0.31313 0.88028 0.0
C771 C 0.99559 0.36817 0.9008 0.0
C772 C 0.97162 0.37499 0.90073 0.0
C773 C 0.96171 0.3753 0.87949 0.0
C774 C 0.93871 0.38005 0.87903 0.0
C775 C 0.92534 0.38645 0.89974 0.0
C776 C 0.9351 0.38553 0.92116 0.0
C777 C 0.95798 0.37952 0.92161 0.0
C778 C 0.99624 0.29887 0.87457 0.0
C779 C 0.98959 0.33346 0.82544 0.0
O780 O 0.02855 0.28053 0.80918 0.0
O781 O 0.06419 0.28728 0.81125 0.0
O782 O 0.04223 0.33628 0.81143 0.0
O783 O 0.04284 0.33842 0.84781 0.0
O784 O 0.06055 0.30235 0.86026 0.0
O785 O 0.04898 0.32822 0.88935 0.0
O786 O 0.00801 0.36951 0.88125 0.0
O787 O 0.99932 0.35101 0.90979 0.0
O788 O 0.99055 0.31331 0.89084 0.0
O789 O 0.01109 0.30487 0.86045 0.0
O790 O 0.99129 0.34241 0.84648 0.0
O791 O 1.00384 0.3185 0.81588 0.0
H792 H 0.02924 0.24917 0.83375 0.0
H793 H 0.03547 0.21245 0.83306 0.0
H794 H 0.08801 0.21312 0.77668 0.0
H795 H 0.08187 0.24979 0.77772 0.0
H796 H 0.97171 0.37258 0.863 0.0
H797 H 0.93184 0.38015 0.86226 0.0
H798 H 0.92559 0.39066 0.9376 0.0
H799 H 0.96517 0.37906 0.93819 0.0
Nd800 Nd 0.3333 0.2368 0.5198 0.0
Nd801 Nd 0.30888 0.22263 0.56667 0.0
C802 C 0.36456 0.2447 0.48772 0.0
C803 C 0.387 0.25221 0.49007 0.0
C804 C 0.39462 0.25563 0.51234 0.0
C805 C 0.41549 0.26385 0.51501 0.0
C806 C 0.42906 0.26843 0.49539 0.0
C807 C 0.42155 0.26476 0.47308 0.0
C808 C 0.40046 0.2568 0.47045 0.0
C809 C 0.28633 0.24403 0.52026 0.0
C810 C 0.33108 0.26681 0.56826 0.0
C811 C 0.27769 0.21634 0.60001 0.0
C812 C 0.26407 0.19943 0.60554 0.0
C813 C 0.25475 0.18749 0.58791 0.0
C814 C 0.24472 0.16972 0.59295 0.0
C815 C 0.24418 0.16356 0.61558 0.0
C816 C 0.25299 0.1758 0.63329 0.0
C817 C 0.2628 0.19369 0.6283 0.0
C818 C 0.35567 0.21804 0.56846 0.0
C819 C 0.31618 0.1901 0.51945 0.0
O820 O 0.36198 0.2264 0.49393 0.0
O821 O 0.34777 0.2577 0.49588 0.0
O822 O 0.30086 0.24903 0.50407 0.0
O823 O 0.2974 0.23646 0.53548 0.0
O824 O 0.34191 0.26122 0.54763 0.0
O825 O 0.31484 0.25618 0.57744 0.0
O826 O 0.27309 0.22556 0.58174 0.0
O827 O 0.29942 0.21302 0.60146 0.0
O828 O 0.34079 0.21328 0.58445 0.0
O829 O 0.34526 0.22432 0.55187 0.0
O830 O 0.3077 0.19344 0.54157 0.0
O831 O 0.32705 0.20377 0.50829 0.0
H832 H 0.38435 0.25206 0.52765 0.0
H833 H 0.42112 0.26647 0.53232 0.0
H834 H 0.43184 0.26836 0.4578 0.0
H835 H 0.39462 0.25436 0.45322 0.0
H836 H 0.25598 0.19145 0.5701 0.0
H837 H 0.23836 0.16033 0.57893 0.0
H838 H 0.25272 0.17132 0.65085 0.0
H839 H 0.2702 0.20264 0.642 0.0
Nd840 Nd 0.57994 0.53504 0.35126 0.0
Nd841 Nd 0.61649 0.56127 0.36421 0.0
C842 C 0.55196 0.50623 0.34159 0.0
C843 C 0.55054 0.48503 0.33214 0.0
C844 C 0.56806 0.47026 0.33345 0.0
C845 C 0.56521 0.44995 0.32601 0.0
C846 C 0.54477 0.44406 0.3172 0.0
C847 C 0.52767 0.45914 0.31524 0.0
C848 C 0.53057 0.47937 0.32259 0.0
C849 C 0.57429 0.57394 0.33796 0.0
C850 C 0.62781 0.52807 0.31937 0.0
C851 C 0.65007 0.58528 0.36839 0.0
C852 C 0.65474 0.60405 0.38161 0.0
C853 C 0.6409 0.62173 0.38091 0.0
C854 C 0.64826 0.64027 0.38927 0.0
C855 C 0.66937 0.64123 0.39856 0.0
C856 C 0.68187 0.62332 0.40163 0.0
C857 C 0.67465 0.60479 0.39301 0.0
C858 C 0.61328 0.52947 0.39085 0.0
C859 C 0.56866 0.56957 0.39353 0.0
O860 O 0.56015 0.50953 0.36187 0.0
O861 O 0.55818 0.51917 0.3269 0.0
O862 O 0.55781 0.56356 0.34566 0.0
O863 O 0.59269 0.56328 0.3364 0.0
O864 O 0.60697 0.52234 0.32269 0.0
O865 O 0.63563 0.54233 0.33322 0.0
O866 O 0.63544 0.58666 0.35286 0.0
O867 O 0.64808 0.56942 0.37994 0.0
O868 O 0.61371 0.54819 0.39917 0.0
O869 O 0.612 0.52822 0.36897 0.0
O870 O 0.58589 0.57885 0.38433 0.0
O871 O 0.56615 0.55027 0.38726 0.0
H872 H 0.58372 0.47435 0.34059 0.0
H873 H 0.57893 0.43884 0.32739 0.0
H874 H 0.51161 0.45528 0.30886 0.0
H875 H 0.51686 0.49056 0.32141 0.0
H876 H 0.62518 0.62142 0.37258 0.0
H877 H 0.63829 0.65388 0.38674 0.0
H878 H 0.69794 0.62375 0.40932 0.0
H879 H 0.68527 0.5912 0.39401 0.0
Nd880 Nd 0.10726 0.86334 0.04162 0.0
Nd881 Nd 0.13587 0.872 0.08673 0.0
C882 C 0.07759 0.85447 1.01158 0.0
C883 C 0.05445 0.84751 1.01298 0.0
C884 C 0.03764 0.85648 0.02983 0.0
C885 C 0.01632 0.84857 0.03213 0.0
C886 C 0.01151 0.83151 0.01768 0.0
C887 C 0.02828 0.82262 1.00072 0.0
C888 C 0.04959 0.8306 0.99838 0.0
C889 C 0.15187 0.84876 0.03708 0.0
C890 C 0.09498 0.84088 0.08874 0.0
C891 C 0.16806 0.87166 0.11536 0.0
C892 C 0.18346 0.88533 0.12663 0.0
C893 C 0.20667 0.88294 0.11929 0.0
C894 C 0.22204 0.89481 0.13018 0.0
C895 C 0.21456 0.90923 0.14881 0.0
C896 C 0.1913 0.91188 0.15611 0.0
C897 C 0.17578 0.90006 0.14499 0.0
C898 C 0.09764 0.89788 0.08858 0.0
C899 C 0.14097 0.89978 0.0421 0.0
O900 O 0.08028 0.87311 0.02013 0.0
O901 O 0.09316 0.8413 0.01681 0.0
O902 O 0.14067 0.85408 0.02008 0.0
O903 O 0.13849 0.84906 0.05544 0.0
O904 O 0.08757 0.8485 0.07034 0.0
O905 O 0.11489 0.84499 0.09645 0.0
O906 O 0.17191 0.86798 0.09271 0.0
O907 O 0.14641 0.87347 0.12268 0.0
O908 O 0.11215 0.89953 0.10423 0.0
O909 O 0.10458 0.8836 0.07382 0.0
O910 O 0.15087 0.89228 0.05954 0.0
O911 O 0.12138 0.89371 0.03523 0.0
H912 H 0.04099 0.8694 0.04144 0.0
H913 H 1.00373 0.85557 0.04549 0.0
H914 H 0.02488 0.80957 0.98923 0.0
H915 H 0.06241 0.82338 0.9854 0.0
H916 H 0.21304 0.87157 0.10534 0.0
H917 H 0.23994 0.89216 0.12453 0.0
H918 H 0.18522 0.92292 0.17048 0.0
H919 H 0.15793 0.90222 0.15099 0.0
Nd920 Nd 0.75339 0.95043 0.54143 0.0
Nd921 Nd 0.71438 0.97214 0.51853 0.0
C922 C 0.79183 0.93179 0.55087 0.0
C923 C 0.80635 0.91272 0.54566 0.0
C924 C 0.82067 0.90831 0.52495 0.0
C925 C 0.83524 0.89067 0.5217 0.0
C926 C 0.83586 0.8772 0.53916 0.0
C927 C 0.82101 0.88148 0.55947 0.0
C928 C 0.80666 0.89899 0.56272 0.0
C929 C 0.71262 0.95164 0.57061 0.0
C930 C 0.72677 0.92468 0.50268 0.0
C931 C 0.67671 0.98977 0.50879 0.0
C932 C 0.66652 1.0067 0.52474 0.0
C933 C 0.66958 1.00645 0.54856 0.0
C934 C 0.66834 0.02429 0.5631 0.0
C935 C 0.66321 0.04277 0.55433 0.0
C936 C 0.65831 0.0428 0.53086 0.0
C937 C 0.66029 0.02492 0.51609 0.0
C938 C 0.75658 0.97647 0.49639 0.0
C939 C 0.73848 0.99585 0.56036 0.0
O940 O 0.7912 0.94511 0.5355 0.0
O941 O 0.77209 0.93018 0.56219 0.0
O942 O 0.73184 0.94394 0.57586 0.0
O943 O 0.71624 0.95804 0.551 0.0
O944 O 0.7429 0.92493 0.51701 0.0
O945 O 0.7131 0.94044 0.50017 0.0
O946 O 0.67705 0.97213 0.51722 0.0
O947 O 0.6963 0.99365 0.49844 0.0
O948 O 0.74166 0.99121 0.50318 0.0
O949 O 0.74985 0.9603 0.50427 0.0
O950 O 0.71926 0.99296 0.55094 0.0
O951 O 0.75649 0.98323 0.55536 0.0
H952 H 0.82091 0.91859 0.51147 0.0
H953 H 0.84647 0.88792 0.50585 0.0
H954 H 0.8205 0.87132 0.57308 0.0
H955 H 0.79593 0.90191 0.57892 0.0
H956 H 0.67484 0.99266 0.55567 0.0
H957 H 0.6723 0.02359 0.58096 0.0
H958 H 0.65336 0.05668 0.52369 0.0
H959 H 0.6583 0.02549 0.49771 0.0
Nd960 Nd 0.79015 0.01194 0.32111 0.0
Nd961 Nd 0.8352 1.0045 0.34772 0.0
C962 C 0.76109 0.02349 0.29191 0.0
C963 C 0.76213 0.0338 0.27031 0.0
C964 C 0.78213 0.04224 0.26191 0.0
C965 C 0.78329 0.05071 0.24051 0.0
C966 C 0.76455 0.05065 0.22702 0.0
C967 C 0.7445 0.0424 0.23572 0.0
C968 C 0.74331 0.03411 0.25716 0.0
C969 C 0.7843 1.00902 0.36855 0.0
C970 C 0.82721 0.04748 0.32984 0.0
C971 C 0.86213 0.99511 0.37904 0.0
C972 C 0.87564 0.97615 0.37976 0.0
C973 C 0.87255 0.96542 0.3994 0.0
C974 C 0.88123 0.9455 0.39862 0.0
C975 C 0.89325 0.9361 0.37821 0.0
C976 C 0.89721 0.94709 0.35888 0.0
C977 C 0.8883 0.96695 0.35956 0.0
C978 C 0.844 0.99742 0.29979 0.0
C979 C 0.80654 0.96593 0.32897 0.0
O980 O 0.77133 1.00541 0.2901 0.0
O981 O 0.76444 0.03437 0.31128 0.0
O982 O 0.76984 1.00279 0.35416 0.0
O983 O 0.79976 0.01798 0.35804 0.0
O984 O 0.81286 0.03909 0.31589 0.0
O985 O 0.83437 0.03842 0.34742 0.0
O986 O 0.84013 0.99324 0.38172 0.0
O987 O 0.8684 1.00643 0.36243 0.0
O988 O 0.85987 0.99619 0.3139 0.0
O989 O 0.8257 1.00233 0.31164 0.0
O990 O 0.8207 0.97335 0.34359 0.0
O991 O 0.79429 0.9772 0.31628 0.0
H992 H 0.79698 0.0419 0.27164 0.0
H993 H 0.79906 0.05671 0.23419 0.0
H994 H 0.72972 0.04228 0.22587 0.0
H995 H 0.72777 0.02759 0.26328 0.0
H996 H 0.86252 0.97214 0.41496 0.0
H997 H 0.87831 0.93734 0.41387 0.0
H998 H 0.90646 0.94008 0.343 0.0
H999 H 0.89052 0.97474 0.34395 0.0
Nd1000 Nd 0.78482 0.07883 0.04764 0.0
Nd1001 Nd 0.80283 0.10813 0.08691 0.0
C1002 C 0.76653 0.06603 1.00848 0.0
C1003 C 0.75447 0.07332 0.98851 0.0
C1004 C 0.76307 0.08823 0.97498 0.0
C1005 C 0.7527 0.09335 0.95502 0.0
C1006 C 0.7334 0.08368 0.94763 0.0
C1007 C 0.72429 0.06936 0.96183 0.0
C1008 C 0.73466 0.06428 0.98185 0.0
C1009 C 0.77144 0.07089 0.09235 0.0
C1010 C 0.76026 0.1227 0.06427 0.0
C1011 C 0.81811 0.12797 0.12361 0.0
C1012 C 0.83881 0.13582 0.13302 0.0
C1013 C 0.84915 0.12565 0.14994 0.0
C1014 C 0.86633 0.13437 0.1618 0.0
C1015 C 0.87342 0.15359 0.15724 0.0
C1016 C 0.86408 0.16328 0.13934 0.0
C1017 C 0.84685 0.1545 0.12738 0.0
C1018 C 0.81757 0.1133 0.0421 0.0
C1019 C 0.82991 0.06377 0.0712 0.0
O1020 O 0.78812 0.06929 1.00947 0.0
O1021 O 0.75547 0.0676 0.02918 0.0
O1022 O 0.77459 0.05713 0.07472 0.0
O1023 O 0.77299 0.08847 0.08579 0.0
O1024 O 0.769 0.11073 0.04609 0.0
O1025 O 0.76738 0.12114 0.08498 0.0
O1026 O 0.81626 0.10837 0.12161 0.0
O1027 O 0.80982 0.13686 0.10663 0.0
O1028 O 0.81347 0.12836 0.0579 0.0
O1029 O 0.81534 0.09683 0.05039 0.0
O1030 O 0.82525 0.07928 0.08713 0.0
O1031 O 0.81827 0.06082 0.05253 0.0
H1032 H 0.77811 0.09573 0.97956 0.0
H1033 H 0.7601 0.10486 0.94521 0.0
H1034 H 0.70962 0.06142 0.95701 0.0
H1035 H 0.72748 0.05276 0.99183 0.0
H1036 H 0.84334 0.11129 0.15473 0.0
H1037 H 0.87351 0.12635 0.17521 0.0
H1038 H 0.86917 0.1781 0.13546 0.0
H1039 H 0.8392 0.16278 0.11445 0.0
Nd1040 Nd 0.66043 0.09905 0.78357 0.0
Nd1041 Nd 0.62632 0.12076 0.8093 0.0
C1042 C 0.69192 0.07932 0.75398 0.0
C1043 C 0.69744 0.06689 0.73205 0.0
C1044 C 0.68308 0.06668 0.71398 0.0
C1045 C 0.68991 0.05558 0.69267 0.0
C1046 C 0.71114 0.04469 0.68932 0.0
C1047 C 0.72516 0.04479 0.70775 0.0
C1048 C 0.71829 0.05576 0.72895 0.0
C1049 C 0.66995 0.0994 0.83021 0.0
C1050 C 0.61346 0.07747 0.78684 0.0
C1051 C 0.59524 0.13953 0.8398 0.0
C1052 C 0.59976 0.15151 0.86084 0.0
C1053 C 0.62192 0.15062 0.86769 0.0
C1054 C 0.62659 0.16045 0.88866 0.0
C1055 C 0.60896 0.17082 0.90324 0.0
C1056 C 0.58714 0.17311 0.89556 0.0
C1057 C 0.58254 0.16345 0.87423 0.0
C1058 C 0.62671 0.13162 0.76445 0.0
C1059 C 0.67264 0.1408 0.80288 0.0
O1060 O 0.68535 0.09823 0.7529 0.0
O1061 O 0.68122 0.07098 0.77095 0.0
O1062 O 0.68446 0.10127 0.81282 0.0
O1063 O 0.65034 0.09736 0.82305 0.0
O1064 O 0.63496 0.07512 0.77935 0.0
O1065 O 0.60486 0.09432 0.79847 0.0
O1066 O 0.60089 0.12028 0.83947 0.0
O1067 O 0.60258 0.14712 0.82085 0.0
O1068 O 0.62739 0.14407 0.7828 0.0
O1069 O 0.62873 0.11349 0.76969 0.0
O1070 O 0.65727 0.13752 0.81947 0.0
O1071 O 0.67089 0.13126 0.78246 0.0
H1072 H 0.66686 0.07524 0.71625 0.0
H1073 H 0.67864 0.05554 0.67884 0.0
H1074 H 0.74172 0.03683 0.70561 0.0
H1075 H 0.72954 0.05592 0.74283 0.0
H1076 H 0.6353 0.14123 0.8576 0.0
H1077 H 0.64337 0.15808 0.89453 0.0
H1078 H 0.57333 0.1809 0.9069 0.0
H1079 H 0.56547 0.16441 0.86884 0.0
Nd1080 Nd 0.60858 0.78994 1.0012 0.0
Nd1081 Nd 0.58385 0.75984 0.02498 0.0
C1082 C 0.62056 0.82162 0.98019 0.0
C1083 C 0.61356 0.83308 0.96153 0.0
C1084 C 0.61534 0.85402 0.96362 0.0
C1085 C 0.61159 0.865 0.94482 0.0
C1086 C 0.60627 0.85501 0.92372 0.0
C1087 C 0.60281 0.8342 0.92233 0.0
C1088 C 0.60632 0.8233 0.94123 0.0
C1089 C 0.63537 0.75494 1.00241 0.0
C1090 C 0.57966 0.75839 0.9704 0.0
C1091 C 0.56931 0.73329 0.05303 0.0
C1092 C 0.58112 0.72147 0.06889 0.0
C1093 C 0.60469 0.72218 0.06931 0.0
C1094 C 0.61632 0.71046 0.0837 0.0
C1095 C 0.60465 0.69719 0.0973 0.0
C1096 C 0.58084 0.69702 0.09739 0.0
C1097 C 0.56915 0.7092 0.08335 0.0
C1098 C 0.55651 0.79264 0.01743 0.0
C1099 C 0.6245 0.78286 0.05026 0.0
O1100 O 0.60656 0.82295 0.999 0.0
O1101 O 0.62952 0.80334 0.97404 0.0
O1102 O 0.64289 0.77294 1.00404 0.0
O1103 O 0.61458 0.75564 0.99893 0.0
O1104 O 0.58736 0.77673 0.97228 0.0
O1105 O 0.57917 0.74712 0.98804 0.0
O1106 O 0.57548 0.72859 0.03087 0.0
O1107 O 0.56759 0.7528 0.05886 0.0
O1108 O 0.55043 0.77425 1.01577 0.0
O1109 O 0.57609 0.7937 0.02466 0.0
O1110 O 0.6134 0.76634 0.04743 0.0
O1111 O 0.62128 0.79741 0.03688 0.0
H1112 H 0.62057 0.86175 0.97942 0.0
H1113 H 0.614 0.88108 0.94637 0.0
H1114 H 0.59894 0.82606 0.90621 0.0
H1115 H 0.60451 0.80712 0.93954 0.0
H1116 H 0.61423 0.73128 0.05794 0.0
H1117 H 0.63457 0.7112 0.08342 0.0
H1118 H 0.57135 0.68674 0.10734 0.0
H1119 H 0.55092 0.70854 0.0832 0.0
Nd1120 Nd 0.06862 0.04989 0.80943 0.0
Nd1121 Nd 0.10001 0.0836 0.82746 0.0
C1122 C 0.04998 0.01517 0.79621 0.0
C1123 C 0.05105 0.99329 0.78621 0.0
C1124 C 0.06353 0.97797 0.79575 0.0
C1125 C 0.06202 0.95735 0.78795 0.0
C1126 C 0.04778 0.95114 0.77043 0.0
C1127 C 0.0358 0.96662 0.76048 0.0
C1128 C 0.03739 0.98724 0.76825 0.0
C1129 C 0.06026 0.08834 0.7958 0.0
C1130 C 0.11607 0.05794 0.7785 0.0
C1131 C 0.1193 0.11774 0.83989 0.0
C1132 C 0.12807 0.13277 0.8569 0.0
C1133 C 0.12756 0.15305 0.852 0.0
C1134 C 0.13751 0.16763 0.86619 0.0
C1135 C 0.14802 0.16235 0.88587 0.0
C1136 C 0.14791 0.14212 0.89129 0.0
C1137 C 0.13818 0.12738 0.87679 0.0
C1138 C 0.11178 0.0458 0.83971 0.0
C1139 C 0.0463 0.08444 0.85042 0.0
O1140 O 0.05636 0.0198 0.81714 0.0
O1141 O 0.05341 0.02955 0.78246 0.0
O1142 O 0.04439 0.07581 0.79931 0.0
O1143 O 0.07927 0.07953 0.7974 0.0
O1144 O 0.10239 0.04396 0.78527 0.0
O1145 O 0.11473 0.07629 0.78964 0.0
O1146 O 0.09738 0.11657 0.83938 0.0
O1147 O 0.13067 0.10038 0.83429 0.0
O1148 O 0.12569 0.05985 0.83644 0.0
O1149 O 0.09132 0.05262 0.83951 0.0
O1150 O 0.06644 0.0922 0.8498 0.0
O1151 O 0.04294 0.06699 0.83833 0.0
H1152 H 0.0742 0.98185 0.80963 0.0
H1153 H 0.07202 0.94625 0.7959 0.0
H1154 H 0.02446 0.96283 0.74721 0.0
H1155 H 0.02728 0.99852 0.76063 0.0
H1156 H 0.11987 0.15758 0.83679 0.0
H1157 H 0.13705 0.1831 0.86173 0.0
H1158 H 0.1559 0.13761 0.90634 0.0
H1159 H 0.13887 0.11182 0.8809 0.0
Nd1160 Nd 0.91375 0.31792 0.44903 0.0
Nd1161 Nd 0.94729 0.34074 0.41441 0.0
C1162 C 0.87864 0.30835 0.47763 0.0
C1163 C 0.85384 0.31129 0.48646 0.0
C1164 C 0.84373 0.32991 0.49709 0.0
C1165 C 0.82086 0.33156 0.50691 0.0
C1166 C 0.80736 0.31463 0.50648 0.0
C1167 C 0.81777 0.29604 0.49608 0.0
C1168 C 0.84044 0.29443 0.48628 0.0
C1169 C 0.96017 0.31158 0.45307 0.0
C1170 C 0.9263 0.36327 0.46186 0.0
C1171 C 0.98034 0.35398 0.38735 0.0
C1172 C 0.98402 0.36497 0.36652 0.0
C1173 C 1.00226 0.35842 0.35019 0.0
C1174 C 0.00775 0.36951 0.33141 0.0
C1175 C 0.99516 0.38752 0.32864 0.0
C1176 C 0.97612 0.39356 0.34436 0.0
C1177 C 0.97058 0.38236 0.36321 0.0
C1178 C 0.90213 0.34691 0.40916 0.0
C1179 C 0.93437 0.29501 0.40014 0.0
O1180 O 0.88451 0.29867 0.45708 0.0
O1181 O 0.89244 0.32245 0.48296 0.0
O1182 O 0.94536 0.29869 0.45887 0.0
O1183 O 0.94996 0.32749 0.44845 0.0
O1184 O 0.909 0.35234 0.45719 0.0
O1185 O 0.94572 0.35985 0.44892 0.0
O1186 O 0.97332 0.33568 0.38423 0.0
O1187 O 0.97096 0.36427 0.40638 0.0
O1188 O 0.91709 0.35956 0.40343 0.0
O1189 O 0.91163 0.33107 0.41476 0.0
O1190 O 0.95115 0.30727 0.40162 0.0
O1191 O 0.91602 0.29705 0.41511 0.0
H1192 H 0.8535 0.34324 0.4979 0.0
H1193 H 0.81367 0.34619 0.5145 0.0
H1194 H 0.80844 0.28245 0.49571 0.0
H1195 H 0.84766 0.27975 0.47882 0.0
H1196 H 0.01271 0.34497 0.35234 0.0
H1197 H 0.02227 0.36425 0.31934 0.0
H1198 H 0.96615 0.40738 0.34268 0.0
H1199 H 0.95625 0.38762 0.37553 0.0
Nd1200 Nd 0.59498 0.93007 0.71898 0.0
Nd1201 Nd 0.56171 0.96351 0.70475 0.0
C1202 C 0.62211 0.89926 0.72573 0.0
C1203 C 0.62557 0.89156 0.74809 0.0
C1204 C 0.61959 0.87189 0.75169 0.0
C1205 C 0.61538 0.86646 0.77427 0.0
C1206 C 0.61719 0.88066 0.7934 0.0
C1207 C 0.62474 0.89985 0.78971 0.0
C1208 C 0.62898 0.90523 0.76725 0.0
C1209 C 0.5952 0.96688 0.74408 0.0
C1210 C 0.54941 0.94095 0.75342 0.0
C1211 C 0.53844 0.99696 0.69636 0.0
C1212 C 0.53717 0.01869 0.69151 0.0
C1213 C 0.53223 0.03391 0.71001 0.0
C1214 C 0.52731 0.05404 0.70585 0.0
C1215 C 0.52728 0.05981 0.68297 0.0
C1216 C 0.53293 0.04461 0.66441 0.0
C1217 C 0.53762 0.02435 0.66862 0.0
C1218 C 0.54933 0.92408 0.69567 0.0
C1219 C 0.61154 0.95276 0.67313 0.0
O1220 O 0.60156 0.89725 0.71952 0.0
O1221 O 0.62955 0.91714 0.72273 0.0
O1222 O 0.59835 0.94988 0.75297 0.0
O1223 O 0.59376 0.96417 0.72245 0.0
O1224 O 0.56417 0.92606 0.74468 0.0
O1225 O 0.54771 0.95808 0.74306 0.0
O1226 O 0.54318 0.99269 0.71717 0.0
O1227 O 0.54588 0.98271 0.67989 0.0
O1228 O 0.53501 0.93955 0.70071 0.0
O1229 O 0.56903 0.93033 0.69312 0.0
O1230 O 0.59303 0.96529 0.67704 0.0
O1231 O 0.61489 0.93765 0.68587 0.0
H1232 H 0.61656 0.86125 0.73712 0.0
H1233 H 0.60996 0.85144 0.77676 0.0
H1234 H 0.6261 0.91114 0.80416 0.0
H1235 H 0.63322 0.92063 0.76506 0.0
H1236 H 0.53127 0.03016 0.72789 0.0
H1237 H 0.52263 0.06488 0.72078 0.0
H1238 H 0.53355 0.04824 0.64652 0.0
H1239 H 0.54104 0.01305 0.65389 0.0
Nd1240 Nd 0.99381 0.18742 0.27176 0.0
Nd1241 Nd 0.01108 0.22776 0.24773 0.0
C1242 C 0.98383 0.15075 0.2811 0.0
C1243 C 0.96283 0.14157 0.28943 0.0
C1244 C 0.95517 0.12494 0.27622 0.0
C1245 C 0.93524 0.11612 0.28371 0.0
C1246 C 0.92267 0.12369 0.30465 0.0
C1247 C 0.93008 0.14063 0.31758 0.0
C1248 C 0.9499 0.14956 0.30999 0.0
C1249 C 0.96753 0.22165 0.28873 0.0
C1250 C 0.97053 0.20266 0.22605 0.0
C1251 C 0.01875 0.26422 0.23529 0.0
C1252 C 0.02289 0.28494 0.22878 0.0
C1253 C 0.01737 0.30179 0.24499 0.0
C1254 C 0.01809 0.32148 0.23815 0.0
C1255 C 0.02362 0.32495 0.21465 0.0
C1256 C 0.03006 0.30792 0.19863 0.0
C1257 C 0.02986 0.2882 0.20566 0.0
C1258 C 0.02725 0.18983 0.22748 0.0
C1259 C 0.0318 0.21404 0.29656 0.0
O1260 O 0.98414 0.15669 0.26011 0.0
O1261 O 0.99276 0.16348 0.29595 0.0
O1262 O 0.96422 0.204 0.29576 0.0
O1263 O 0.98347 0.2198 0.27295 0.0
O1264 O 0.97558 0.1877 0.23861 0.0
O1265 O 0.97984 0.22037 0.22792 0.0
O1266 O 0.99947 0.25992 0.24605 0.0
O1267 O 0.03435 0.24923 0.23181 0.0
O1268 O 0.02435 0.20547 0.21581 0.0
O1269 O 0.02376 0.19531 0.24893 0.0
O1270 O 0.02839 0.22863 0.2826 0.0
O1271 O 0.0231 0.19609 0.29349 0.0
H1272 H 0.96474 0.11866 0.26018 0.0
H1273 H 0.93007 0.10296 0.27349 0.0
H1274 H 0.92062 0.14691 0.33366 0.0
H1275 H 0.95511 0.16262 0.32033 0.0
H1276 H 0.01204 0.29974 0.26296 0.0
H1277 H 0.01383 0.33398 0.25136 0.0
H1278 H 0.0343 0.30965 0.18039 0.0
H1279 H 0.03401 0.27545 0.19273 0.0
Nd1280 Nd 0.52123 0.18953 0.63524 0.0
Nd1281 Nd 0.50448 0.21909 0.6744 0.0
C1282 C 0.53439 0.16294 0.60021 0.0
C1283 C 0.55764 0.15494 0.59326 0.0
C1284 C 0.56223 0.13405 0.59166 0.0
C1285 C 0.58452 0.12622 0.59027 0.0
C1286 C 0.60259 0.13916 0.59048 0.0
C1287 C 0.59816 0.16003 0.5909 0.0
C1288 C 0.57574 0.16793 0.59251 0.0
C1289 C 0.54659 0.22317 0.63961 0.0
C1290 C 0.54814 0.18851 0.68109 0.0
C1291 C 0.49551 0.25304 0.70205 0.0
C1292 C 0.49313 0.27511 0.70029 0.0
C1293 C 0.50684 0.28434 0.68375 0.0
C1294 C 0.50651 0.30545 0.68419 0.0
C1295 C 0.49238 0.31782 0.7011 0.0
C1296 C 0.47808 0.30846 0.71707 0.0
C1297 C 0.47851 0.28735 0.71669 0.0
C1298 C 0.49562 0.1797 0.68315 0.0
C1299 C 0.47227 0.21414 0.63064 0.0
O1300 O 0.52612 0.15774 0.62039 0.0
O1301 O 0.53002 0.18203 0.59747 0.0
O1302 O 0.55508 0.20479 0.63605 0.0
O1303 O 0.52514 0.22358 0.64101 0.0
O1304 O 0.54175 0.17687 0.66341 0.0
O1305 O 0.53893 0.20715 0.68603 0.0
O1306 O 0.51589 0.24457 0.69662 0.0
O1307 O 0.47954 0.24183 0.69461 0.0
O1308 O 0.49902 0.19405 0.699 0.0
O1309 O 0.49403 0.1872 0.66396 0.0
O1310 O 0.47564 0.22431 0.65065 0.0
O1311 O 0.48714 0.19963 0.62115 0.0
H1312 H 0.54855 0.12386 0.59254 0.0
H1313 H 0.58766 0.10995 0.58925 0.0
H1314 H 0.61193 0.17015 0.59065 0.0
H1315 H 0.5726 0.18419 0.59405 0.0
H1316 H 0.51824 0.27524 0.67085 0.0
H1317 H 0.51747 0.31208 0.67138 0.0
H1318 H 0.46712 0.31747 0.73045 0.0
H1319 H 0.4679 0.28059 0.72969 0.0
Nd1320 Nd 0.22917 0.3007 0.93963 0.0
Nd1321 Nd 0.20728 0.29453 0.98255 0.0
C1322 C 0.25674 0.30999 0.90438 0.0
C1323 C 0.26746 0.32823 0.8975 0.0
C1324 C 0.28358 0.33742 0.91079 0.0
C1325 C 0.29232 0.35551 0.90488 0.0
C1326 C 0.28503 0.36474 0.88568 0.0
C1327 C 0.26934 0.35528 0.87207 0.0
C1328 C 0.2607 0.33712 0.87789 0.0
C1329 C 0.18257 0.30313 0.93726 0.0
C1330 C 0.22186 0.33978 0.9802 0.0
C1331 C 0.17886 0.28272 1.01543 0.0
C1332 C 0.15855 0.27146 1.01236 0.0
C1333 C 0.14996 0.26964 0.99043 0.0
C1334 C 0.13142 0.25814 0.98666 0.0
C1335 C 0.12068 0.24861 1.00493 0.0
C1336 C 0.12924 0.25061 0.027 0.0
C1337 C 0.14818 0.26186 0.03062 0.0
C1338 C 0.25412 0.29105 0.98392 0.0
C1339 C 0.21043 0.2574 0.94086 0.0
O1340 O 0.26383 0.302 0.9225 0.0
O1341 O 0.23473 0.31029 0.90407 0.0
O1342 O 0.19703 0.29343 0.92167 0.0
O1343 O 0.19274 0.31129 0.95391 0.0
O1344 O 0.23229 0.33232 0.9599 0.0
O1345 O 0.20912 0.32834 0.99254 0.0
O1346 O 0.17779 0.30095 1.00875 0.0
O1347 O 0.19802 0.27269 1.00804 0.0
O1348 O 0.24019 0.3007 1.00007 0.0
O1349 O 0.24329 0.28328 0.96767 0.0
O1350 O 0.19797 0.26653 0.95903 0.0
O1351 O 0.22753 0.26661 0.93156 0.0
H1352 H 0.28908 0.33096 0.92605 0.0
H1353 H 0.30417 0.36263 0.91585 0.0
H1354 H 0.26359 0.36202 0.85708 0.0
H1355 H 0.24835 0.33024 0.86735 0.0
H1356 H 0.15762 0.27709 0.97612 0.0
H1357 H 0.12563 0.25665 0.96935 0.0
H1358 H 0.12118 0.2437 0.04153 0.0
H1359 H 0.15466 0.26311 0.04763 0.0
Nd1360 Nd 0.41254 0.65094 0.41944 0.0
Nd1361 Nd 0.43163 0.66443 0.46289 0.0
C1362 C 0.39035 0.63634 0.38462 0.0
C1363 C 0.36828 0.62876 0.38043 0.0
C1364 C 0.34942 0.63348 0.39669 0.0
C1365 C 0.32799 0.62783 0.39119 0.0
C1366 C 0.32535 0.61729 0.36951 0.0
C1367 C 0.34453 0.61178 0.35383 0.0
C1368 C 0.36587 0.61753 0.35927 0.0
C1369 C 0.45808 0.6404 0.41948 0.0
C1370 C 0.40385 0.62606 0.46499 0.0
C1371 C 0.45823 0.67801 0.49425 0.0
C1372 C 0.48154 0.68449 0.49169 0.0
C1373 C 0.49756 0.6746 0.47455 0.0
C1374 C 0.51921 0.68176 0.4711 0.0
C1375 C 0.52499 0.69912 0.48443 0.0
C1376 C 0.50892 0.70903 0.50147 0.0
C1377 C 0.48736 0.70172 0.50511 0.0
C1378 C 0.38552 0.67315 0.4657 0.0
C1379 C 0.44053 0.68996 0.41834 0.0
O1380 O 0.39048 0.65563 0.3913 0.0
O1381 O 0.40354 0.62507 0.39583 0.0
O1382 O 0.44911 0.64728 0.40196 0.0
O1383 O 0.44327 0.63889 0.43595 0.0
O1384 O 0.39444 0.63264 0.44695 0.0
O1385 O 0.42317 0.63295 0.47088 0.0
O1386 O 0.4557 0.65874 0.48913 0.0
O1387 O 0.44309 0.68966 0.48584 0.0
O1388 O 0.39674 0.66849 0.48293 0.0
O1389 O 0.3989 0.67502 0.44782 0.0
O1390 O 0.44958 0.68255 0.43594 0.0
O1391 O 0.42232 0.68239 0.41026 0.0
H1392 H 0.35117 0.64201 0.41324 0.0
H1393 H 0.31344 0.63206 0.40362 0.0
H1394 H 0.3429 0.60383 0.33691 0.0
H1395 H 0.38038 0.61377 0.34664 0.0
H1396 H 0.49325 0.66152 0.46359 0.0
H1397 H 0.53126 0.67401 0.4577 0.0
H1398 H 0.51308 0.72238 0.51205 0.0
H1399 H 0.47511 0.70969 0.51814 0.0
Nd1400 Nd 0.82599 0.55974 0.9782 0.0
Nd1401 Nd 0.7854 0.57386 0.96038 0.0
C1402 C 0.86428 0.54088 0.98562 0.0
C1403 C 0.87244 0.52142 0.9734 0.0
C1404 C 0.86941 0.51794 0.94961 0.0
C1405 C 0.86818 0.49842 0.93945 0.0
C1406 C 0.87048 0.48186 0.95269 0.0
C1407 C 0.87578 0.48536 0.97597 0.0
C1408 C 0.87653 0.50502 0.9863 0.0
C1409 C 0.7895 0.55841 1.01081 0.0
C1410 C 0.7996 0.52892 0.94298 0.0
C1411 C 0.74657 0.59325 0.95335 0.0
C1412 C 0.73228 0.61181 0.96226 0.0
C1413 C 0.71158 0.61034 0.97559 0.0
C1414 C 0.69712 0.62755 0.98249 0.0
C1415 C 0.70295 0.64669 0.97614 0.0
C1416 C 0.72386 0.64818 0.96313 0.0
C1417 C 0.73832 0.63099 0.95627 0.0
C1418 C 0.82258 0.57193 0.92733 0.0
C1419 C 0.81212 0.6048 0.99307 0.0
O1420 O 0.86357 0.55613 0.97292 0.0
O1421 O 0.84558 0.53992 0.99894 0.0
O1422 O 0.80825 0.56684 1.01464 0.0
O1423 O 0.78937 0.55283 0.98919 0.0
O1424 O 0.81897 0.53362 0.95117 0.0
O1425 O 0.7815 0.54137 0.94698 0.0
O1426 O 0.74774 0.57849 0.96678 0.0
O1427 O 0.76599 0.59565 0.94182 0.0
O1428 O 0.80232 0.56708 0.92308 0.0
O1429 O 0.8227 0.57879 0.9485 0.0
O1430 O 0.79212 0.59897 0.9881 0.0
O1431 O 0.83036 0.59291 0.98748 0.0
H1432 H 0.86588 0.5303 0.93923 0.0
H1433 H 0.86412 0.49662 0.92153 0.0
H1434 H 0.8788 0.47299 0.98646 0.0
H1435 H 0.87866 0.50743 1.00475 0.0
H1436 H 0.70637 0.59579 0.98036 0.0
H1437 H 0.6813 0.62583 0.99273 0.0
H1438 H 0.7288 0.66257 0.95759 0.0
H1439 H 0.75402 0.63274 0.94583 0.0
Nd1440 Nd 0.70721 0.51514 0.14986 0.0
Nd1441 Nd 0.74707 0.50521 0.17582 0.0
C1442 C 0.67691 0.53116 0.12512 0.0
C1443 C 0.67139 0.55259 0.123 0.0
C1444 C 0.66832 0.55904 0.10108 0.0
C1445 C 0.66521 0.5796 0.09854 0.0
C1446 C 0.66513 0.59399 0.11792 0.0
C1447 C 0.66809 0.5875 0.13991 0.0
C1448 C 0.67138 0.56694 0.14242 0.0
C1449 C 0.69729 0.51403 0.19687 0.0
C1450 C 0.73863 0.55179 0.16718 0.0
C1451 C 0.77421 0.49226 0.20636 0.0
C1452 C 0.77281 0.48477 0.22968 0.0
C1453 C 0.75393 0.48991 0.2459 0.0
C1454 C 0.75421 0.48481 0.26889 0.0
C1455 C 0.7734 0.47447 0.27609 0.0
C1456 C 0.79179 0.46857 0.2594 0.0
C1457 C 0.7915 0.47372 0.2365 0.0
C1458 C 0.75938 0.50951 0.12963 0.0
C1459 C 0.71175 0.47049 0.16078 0.0
O1460 O 0.69711 0.52443 0.11618 0.0
O1461 O 0.67164 0.52492 0.14551 0.0
O1462 O 0.68483 0.50642 0.18133 0.0
O1463 O 0.71404 0.52209 0.1876 0.0
O1464 O 0.72469 0.54495 0.15215 0.0
O1465 O 0.74781 0.53981 0.18127 0.0
O1466 O 0.76758 0.51119 0.20562 0.0
O1467 O 0.7679 0.48049 0.189 0.0
O1468 O 0.77217 0.51314 0.14643 0.0
O1469 O 0.74183 0.50089 0.13677 0.0
O1470 O 0.72373 0.47811 0.17746 0.0
O1471 O 0.70741 0.48109 0.1434 0.0
H1472 H 0.66863 0.5482 0.0859 0.0
H1473 H 0.6626 0.58425 0.08145 0.0
H1474 H 0.66825 0.59833 0.15505 0.0
H1475 H 0.67432 0.56232 0.15945 0.0
H1476 H 0.73928 0.49843 0.241 0.0
H1477 H 0.73979 0.4897 0.28122 0.0
H1478 H 0.80663 0.46023 0.26413 0.0
H1479 H 0.8062 0.46955 0.22426 0.0
Nd1480 Nd 0.73312 0.41675 0.42326 0.0
Nd1481 Nd 0.7577 0.44747 0.45712 0.0
C1482 C 0.71227 0.39569 0.39129 0.0
C1483 C 0.6906 0.39245 0.38089 0.0
C1484 C 0.68742 0.39941 0.35914 0.0
C1485 C 0.66875 0.39398 0.34727 0.0
C1486 C 0.65281 0.38138 0.35684 0.0
C1487 C 0.65556 0.37494 0.37897 0.0
C1488 C 0.67429 0.38039 0.39089 0.0
C1489 C 0.73079 0.41111 0.46948 0.0
C1490 C 0.70817 0.46185 0.44101 0.0
C1491 C 0.77839 0.46034 0.49471 0.0
C1492 C 0.79044 0.45262 0.51445 0.0
C1493 C 0.78227 0.4367 0.52661 0.0
C1494 C 0.79202 0.43122 0.54674 0.0
C1495 C 0.81027 0.4415 0.55568 0.0
C1496 C 0.81912 0.45681 0.54281 0.0
C1497 C 0.80932 0.46229 0.52259 0.0
C1498 C 0.7618 0.45451 0.41105 0.0
C1499 C 0.78299 0.4049 0.43235 0.0
O1500 O 0.72251 0.41221 0.38743 0.0
O1501 O 0.71451 0.39002 0.41211 0.0
O1502 O 0.73312 0.39619 0.45325 0.0
O1503 O 0.72871 0.42771 0.46111 0.0
O1504 O 0.70877 0.4446 0.42766 0.0
O1505 O 0.7241 0.46647 0.45527 0.0
O1506 O 0.75653 0.458 0.49479 0.0
O1507 O 0.78865 0.45794 0.47357 0.0
O1508 O 0.76317 0.46883 0.4278 0.0
O1509 O 0.76154 0.43744 0.41887 0.0
O1510 O 0.77944 0.41712 0.4518 0.0
O1511 O 0.76916 0.40486 0.41583 0.0
H1512 H 0.69987 0.40844 0.35082 0.0
H1513 H 0.66738 0.39895 0.3301 0.0
H1514 H 0.64344 0.36539 0.38691 0.0
H1515 H 0.67632 0.37464 0.40756 0.0
H1516 H 0.76792 0.42873 0.52089 0.0
H1517 H 0.78491 0.419 0.55554 0.0
H1518 H 0.83302 0.4652 0.54888 0.0
H1519 H 0.81609 0.47462 0.5137 0.0
Nd1520 Nd 0.91047 0.39918 0.69617 0.0
Nd1521 Nd 0.87423 0.41778 0.72241 0.0
C1522 C 0.94321 0.38485 0.66485 0.0
C1523 C 0.93935 0.3778 0.64126 0.0
C1524 C 0.9176 0.38158 0.63416 0.0
C1525 C 0.91298 0.37555 0.6117 0.0
C1526 C 0.93014 0.36575 0.596 0.0
C1527 C 0.95173 0.3612 0.60334 0.0
C1528 C 0.95631 0.36718 0.62611 0.0
C1529 C 0.90952 0.38515 0.73991 0.0
C1530 C 0.86572 0.37626 0.69823 0.0
C1531 C 0.84216 0.43589 0.75279 0.0
C1532 C 0.83775 0.44745 0.77581 0.0
C1533 C 0.83352 0.43741 0.79593 0.0
C1534 C 0.82624 0.44832 0.8172 0.0
C1535 C 0.82303 0.46949 0.81876 0.0
C1536 C 0.82811 0.47956 0.79879 0.0
C1537 C 0.83525 0.46865 0.77751 0.0
C1538 C 0.86734 0.42086 0.6755 0.0
C1539 C 0.92077 0.44013 0.72584 0.0
O1540 O 0.93858 0.4042 0.67007 0.0
O1541 O 0.93407 0.37395 0.68029 0.0
O1542 O 0.91016 0.37389 0.72047 0.0
O1543 O 0.90618 0.40343 0.73583 0.0
O1544 O 0.88109 0.38187 0.68289 0.0
O1545 O 0.86479 0.38506 0.71946 0.0
O1546 O 0.84842 0.41668 0.75209 0.0
O1547 O 0.85233 0.44488 0.736 0.0
O1548 O 0.85219 0.41674 0.6914 0.0
O1549 O 0.88613 0.42326 0.68432 0.0
O1550 O 0.89904 0.4411 0.73236 0.0
O1551 O 0.93036 0.42507 0.71166 0.0
H1552 H 0.90435 0.38982 0.64581 0.0
H1553 H 0.8964 0.37962 0.60628 0.0
H1554 H 0.96514 0.35364 0.59129 0.0
H1555 H 0.97303 0.36397 0.63168 0.0
H1556 H 0.83506 0.42107 0.79514 0.0
H1557 H 0.82232 0.44008 0.83219 0.0
H1558 H 0.82628 0.49589 0.79952 0.0
H1559 H 0.83822 0.47682 0.76227 0.0
Nd1560 Nd 0.5085 0.04855 0.33092 0.0
Nd1561 Nd 0.47282 0.08143 0.32392 0.0
C1562 C 0.53264 0.01532 0.33898 0.0
C1563 C 0.53339 0.99381 0.34419 0.0
C1564 C 0.5138 0.98368 0.35028 0.0
C1565 C 0.5155 0.96305 0.35423 0.0
C1566 C 0.53677 0.95206 0.35195 0.0
C1567 C 0.55623 0.96242 0.34596 0.0
C1568 C 0.55454 0.98296 0.34219 0.0
C1569 C 0.52092 0.08821 0.34052 0.0
C1570 C 0.46386 0.06001 0.36715 0.0
C1571 C 0.44805 0.11402 0.31728 0.0
C1572 C 0.43981 0.1212 0.29642 0.0
C1573 C 0.4398 0.14185 0.29361 0.0
C1574 C 0.43641 0.14853 0.27201 0.0
C1575 C 0.43308 0.13455 0.2531 0.0
C1576 C 0.43242 0.11393 0.25618 0.0
C1577 C 0.43588 0.10726 0.27773 0.0
C1578 C 0.46172 0.0428 0.30956 0.0
C1579 C 0.5139 0.07003 0.28284 0.0
O1580 O 0.52728 0.01932 0.31834 0.0
O1581 O 0.525 0.02948 0.35539 0.0
O1582 O 0.53489 0.07313 0.33221 0.0
O1583 O 0.50188 0.08139 0.34593 0.0
O1584 O 0.47581 0.04454 0.35527 0.0
O1585 O 0.46874 0.0782 0.36235 0.0
O1586 O 0.4701 0.1134 0.31709 0.0
O1587 O 0.43923 0.09779 0.32437 0.0
O1588 O 0.44712 0.05676 0.31942 0.0
O1589 O 0.48099 0.04965 0.30633 0.0
O1590 O 0.49803 0.08355 0.29233 0.0
O1591 O 0.51945 0.05347 0.29269 0.0
H1592 H 0.49725 0.99164 0.35179 0.0
H1593 H 0.50009 0.95561 0.35865 0.0
H1594 H 0.57291 0.95469 0.34438 0.0
H1595 H 0.5699 0.9904 0.33753 0.0
H1596 H 0.44339 0.15265 0.30781 0.0
H1597 H 0.43682 0.16453 0.26995 0.0
H1598 H 0.43019 0.1029 0.24171 0.0
H1599 H 0.43654 0.09117 0.27949 0.0
Nd1600 Nd 0.03143 0.79329 0.70668 0.0
Nd1601 Nd 0.0581 0.81327 0.67287 0.0
C1602 C 0.01122 0.76878 0.73449 0.0
C1603 C 1.00269 0.74867 0.73772 0.0
C1604 C 0.00836 0.73202 0.72121 0.0
C1605 C 1.00493 0.71232 0.72712 0.0
C1606 C 0.99618 0.70886 0.7498 0.0
C1607 C 0.98921 0.72578 0.76568 0.0
C1608 C 0.99238 0.74541 0.75965 0.0
C1609 C 0.02962 0.83544 0.7181 0.0
C1610 C 0.012 0.79565 0.65549 0.0
C1611 C 0.0784 0.83703 0.64507 0.0
C1612 C 0.09459 0.85218 0.65071 0.0
C1613 C 0.0905 0.86575 0.67091 0.0
C1614 C 0.10651 0.87951 0.67671 0.0
C1615 C 0.12699 0.87945 0.66274 0.0
C1616 C 0.13151 0.86531 0.64319 0.0
C1617 C 0.11533 0.85179 0.63715 0.0
C1618 C 0.07024 0.77214 0.66905 0.0
C1619 C 0.0783 0.80949 0.72064 0.0
O1620 O 0.03321 0.76932 0.73031 0.0
O1621 O 0.99975 0.78175 0.72349 0.0
O1622 O 0.02984 0.82217 0.73305 0.0
O1623 O 0.02878 0.82636 0.69806 0.0
O1624 O 0.0089 0.78837 0.67599 0.0
O1625 O 0.02946 0.80634 0.65037 0.0
O1626 O 0.05758 0.8409 0.65432 0.0
O1627 O 0.08585 0.81846 0.64646 0.0
O1628 O 0.08443 0.78631 0.67042 0.0
O1629 O 0.05019 0.77999 0.67229 0.0
O1630 O 0.07482 0.82258 0.70556 0.0
O1631 O 0.06709 0.79289 0.72007 0.0
H1632 H 0.01647 0.73418 0.7042 0.0
H1633 H 0.00997 0.69978 0.71416 0.0
H1634 H 0.98264 0.72395 0.78333 0.0
H1635 H 0.98815 0.75803 0.77275 0.0
H1636 H 0.07491 0.86587 0.6821 0.0
H1637 H 0.10269 0.89056 0.69165 0.0
H1638 H 0.14708 0.86541 0.63195 0.0
H1639 H 0.11892 0.84111 0.62184 0.0
Nd1640 Nd 0.55426 0.79085 0.35838 0.0
Nd1641 Nd 0.53631 0.8179 0.40116 0.0
C1642 C 0.56636 0.75811 0.32957 0.0
C1643 C 0.57248 0.73649 0.33181 0.0
C1644 C 0.56335 0.72686 0.35083 0.0
C1645 C 0.56728 0.70597 0.35166 0.0
C1646 C 0.58063 0.69421 0.33358 0.0
C1647 C 0.59048 0.70407 0.315 0.0
C1648 C 0.58636 0.72495 0.3141 0.0
C1649 C 0.55993 0.83149 0.3537 0.0
C1650 C 0.58647 0.7957 0.4011 0.0
C1651 C 0.52415 0.84098 0.43972 0.0
C1652 C 0.50123 0.84734 0.44962 0.0
C1653 C 0.49648 0.86747 0.45851 0.0
C1654 C 0.4741 0.87534 0.46158 0.0
C1655 C 0.45639 0.86314 0.45557 0.0
C1656 C 0.46103 0.84267 0.44812 0.0
C1657 C 0.48337 0.83475 0.44532 0.0
C1658 C 0.51652 0.78149 0.39531 0.0
C1659 C 0.50761 0.81805 0.35692 0.0
O1660 O 0.54524 0.76422 0.33617 0.0
O1661 O 0.58082 0.77142 0.3359 0.0
O1662 O 0.55767 0.81815 0.33633 0.0
O1663 O 0.56217 0.82281 0.37201 0.0
O1664 O 0.58226 0.78484 0.38196 0.0
O1665 O 0.57227 0.81045 0.41087 0.0
O1666 O 0.52968 0.84826 0.41989 0.0
O1667 O 0.5299 0.8217 0.43955 0.0
O1668 O 0.50514 0.79855 0.40096 0.0
O1669 O 0.53747 0.784 0.39275 0.0
O1670 O 0.51397 0.82978 0.37452 0.0
O1671 O 0.51787 0.80005 0.35048 0.0
H1672 H 0.55275 0.73543 0.36479 0.0
H1673 H 0.55971 0.699 0.36642 0.0
H1674 H 0.60074 0.69553 0.30071 0.0
H1675 H 0.59357 0.73201 0.29925 0.0
H1676 H 0.5101 0.87743 0.46141 0.0
H1677 H 0.47079 0.8913 0.46707 0.0
H1678 H 0.44752 0.83311 0.44345 0.0
H1679 H 0.48672 0.81916 0.43832 0.0
Nd1680 Nd 0.79846 0.75707 0.06159 0.0
Nd1681 Nd 0.78098 0.74715 0.10844 0.0
C1682 C 0.82035 0.77334 0.02712 0.0
C1683 C 0.84173 0.78344 0.02702 0.0
C1684 C 0.85678 0.77958 0.04382 0.0
C1685 C 0.87722 0.789 0.04404 0.0
C1686 C 0.88271 0.8027 0.02768 0.0
C1687 C 0.86729 0.80711 1.01137 0.0
C1688 C 0.84689 0.79744 1.011 0.0
C1689 C 0.75229 0.75496 0.06692 0.0
C1690 C 0.79299 0.79173 0.1048 0.0
C1691 C 0.75848 0.73136 0.14297 0.0
C1692 C 0.75503 0.71034 0.14795 0.0
C1693 C 0.7329 0.7042 0.15217 0.0
C1694 C 0.72914 0.68394 0.15473 0.0
C1695 C 0.74748 0.66947 0.15325 0.0
C1696 C 0.76969 0.67571 0.14967 0.0
C1697 C 0.77345 0.69595 0.14688 0.0
C1698 C 0.82706 0.75002 0.10447 0.0
C1699 C 0.79417 0.7109 0.06614 0.0
O1700 O 0.82201 0.754 0.02956 0.0
O1701 O 0.80347 0.78284 0.04032 0.0
O1702 O 0.76475 0.74763 0.04832 0.0
O1703 O 0.76398 0.76352 0.08165 0.0
O1704 O 0.80614 0.78345 0.08668 0.0
O1705 O 0.7779 0.78143 0.11593 0.0
O1706 O 0.7488 0.7373 0.12503 0.0
O1707 O 0.779 0.73752 0.14412 0.0
O1708 O 0.81401 0.75601 0.12319 0.0
O1709 O 0.81604 0.74163 0.08885 0.0
O1710 O 0.78126 0.71688 0.08545 0.0
O1711 O 0.80588 0.72359 0.05469 0.0
H1712 H 0.85274 0.76918 0.05668 0.0
H1713 H 0.88875 0.78557 0.05694 0.0
H1714 H 0.87129 0.8176 0.99856 0.0
H1715 H 0.83524 0.8008 0.9982 0.0
H1716 H 0.71847 0.715 0.15291 0.0
H1717 H 0.71184 0.67954 0.1576 0.0
H1718 H 0.78411 0.66483 0.14816 0.0
H1719 H 0.79072 0.7002 0.14331 0.0
Nd1720 Nd 0.63023 0.34707 0.56613 0.0
Nd1721 Nd 0.64904 0.35493 0.61594 0.0
C1722 C 0.60565 0.34409 0.5304 0.0
C1723 C 0.58196 0.34059 0.52743 0.0
C1724 C 0.56595 0.34186 0.54686 0.0
C1725 C 0.54404 0.33574 0.54433 0.0
C1726 C 0.53803 0.32813 0.52236 0.0
C1727 C 0.554 0.32751 0.50288 0.0
C1728 C 0.57586 0.33364 0.50544 0.0
C1729 C 0.67655 0.33413 0.56243 0.0
C1730 C 0.61431 0.319 0.60815 0.0
C1731 C 0.67615 0.35771 0.64937 0.0
C1732 C 0.70023 0.36139 0.64997 0.0
C1733 C 0.71672 0.35032 0.63434 0.0
C1734 C 0.7395 0.35446 0.63471 0.0
C1735 C 0.746 0.36943 0.651 0.0
C1736 C 0.72951 0.38089 0.66617 0.0
C1737 C 0.70669 0.37697 0.66554 0.0
C1738 C 0.60599 0.37392 0.61764 0.0
C1739 C 0.65816 0.38601 0.5764 0.0
O1740 O 0.60981 0.36153 0.5412 0.0
O1741 O 0.61706 0.32866 0.5373 0.0
O1742 O 0.66342 0.33244 0.54571 0.0
O1743 O 0.66437 0.34151 0.5806 0.0
O1744 O 0.61013 0.32612 0.58828 0.0
O1745 O 0.63081 0.32543 0.62055 0.0
O1746 O 0.6711 0.34023 0.63918 0.0
O1747 O 0.66355 0.37312 0.64412 0.0
O1748 O 0.61863 0.37475 0.63485 0.0
O1749 O 0.61669 0.36354 0.60038 0.0
O1750 O 0.66695 0.37673 0.59311 0.0
O1751 O 0.64045 0.37949 0.56626 0.0
H1752 H 0.57066 0.34687 0.56405 0.0
H1753 H 0.53215 0.33615 0.55966 0.0
H1754 H 0.54973 0.32191 0.48571 0.0
H1755 H 0.58821 0.33235 0.49039 0.0
H1756 H 0.71208 0.33822 0.62217 0.0
H1757 H 0.75213 0.34529 0.62317 0.0
H1758 H 0.73439 0.39241 0.67896 0.0
H1759 H 0.69413 0.38585 0.67745 0.0
Nd1760 Nd 0.257 0.47197 0.09545 0.0
Nd1761 Nd 0.22737 0.49533 0.07063 0.0
C1762 C 0.2923 0.4563 0.11394 0.0
C1763 C 0.30768 0.43805 0.10845 0.0
C1764 C 0.32276 0.43535 0.08817 0.0
C1765 C 0.33554 0.41706 0.0824 0.0
C1766 C 0.33331 0.4011 0.09667 0.0
C1767 C 0.31861 0.40412 0.11721 0.0
C1768 C 0.30613 0.42243 0.12311 0.0
C1769 C 0.2122 0.4648 0.10517 0.0
C1770 C 0.23766 0.44669 0.05263 0.0
C1771 C 0.19959 0.51625 0.04771 0.0
C1772 C 0.19448 0.53799 0.05232 0.0
C1773 C 0.19498 0.54712 0.07508 0.0
C1774 C 0.19129 0.56785 0.07986 0.0
C1775 C 0.18584 0.5797 0.06209 0.0
C1776 C 0.18714 0.57087 0.03895 0.0
C1777 C 0.19161 0.55004 0.03407 0.0
C1778 C 0.27148 0.50104 0.05587 0.0
C1779 C 0.234 0.5143 0.12458 0.0
O1780 O 0.29391 0.4707 0.09994 0.0
O1781 O 0.27129 0.45292 0.12054 0.0
O1782 O 0.22819 0.45044 0.10269 0.0
O1783 O 0.22023 0.48171 0.10361 0.0
O1784 O 0.25454 0.44709 0.06608 0.0
O1785 O 0.22333 0.46273 0.05285 0.0
O1786 O 0.19233 0.50526 0.06413 0.0
O1787 O 0.22057 0.51144 0.03987 0.0
O1788 O 0.25754 0.51534 0.06624 0.0
O1789 O 0.26354 0.48411 0.05953 0.0
O1790 O 0.22218 0.51539 0.10622 0.0
O1791 O 0.25046 0.49992 0.12374 0.0
H1792 H 0.32437 0.44715 0.07652 0.0
H1793 H 0.34696 0.41536 0.06664 0.0
H1794 H 0.31606 0.39211 0.12842 0.0
H1795 H 0.29462 0.42413 0.13883 0.0
H1796 H 0.19724 0.5382 0.0894 0.0
H1797 H 0.19017 0.5743 0.09784 0.0
H1798 H 0.1827 0.5797 0.02498 0.0
H1799 H 0.19199 0.54328 1.01628 0.0
Nd1800 Nd 0.29903 0.52787 0.87397 0.0
Nd1801 Nd 0.34018 0.5121 0.89061 0.0
C1802 C 0.26869 0.54525 0.85021 0.0
C1803 C 0.2724 0.55618 0.82937 0.0
C1804 C 0.2943 0.55571 0.81788 0.0
C1805 C 0.29768 0.56338 0.79629 0.0
C1806 C 0.27923 0.57173 0.78583 0.0
C1807 C 0.25755 0.57328 0.798 0.0
C1808 C 0.25414 0.56544 0.81963 0.0
C1809 C 0.29326 0.52067 0.92079 0.0
C1810 C 0.33972 0.55834 0.87901 0.0
C1811 C 0.37504 0.49844 0.91046 0.0
C1812 C 0.38131 0.47692 0.91019 0.0
C1813 C 0.36401 0.4634 0.9127 0.0
C1814 C 0.36909 0.44276 0.90962 0.0
C1815 C 0.39154 0.43529 0.90414 0.0
C1816 C 0.40893 0.44862 0.90129 0.0
C1817 C 0.40377 0.46946 0.90401 0.0
C1818 C 0.34059 0.50421 0.84295 0.0
C1819 C 0.30348 0.48063 0.87758 0.0
O1820 O 0.27494 0.52599 0.84683 0.0
O1821 O 0.27526 0.55392 0.86955 0.0
O1822 O 0.27865 0.51699 0.90575 0.0
O1823 O 0.30999 0.5289 0.91129 0.0
O1824 O 0.31922 0.55611 0.87262 0.0
O1825 O 0.35126 0.54387 0.8876 0.0
O1826 O 0.3558 0.50463 0.92242 0.0
O1827 O 0.37722 0.5052 0.88996 0.0
O1828 O 0.3459 0.49088 0.85688 0.0
O1829 O 0.33391 0.52081 0.85452 0.0
O1830 O 0.31794 0.48535 0.89294 0.0
O1831 O 0.29606 0.49407 0.86425 0.0
H1832 H 0.30864 0.5486 0.82513 0.0
H1833 H 0.31458 0.56209 0.78734 0.0
H1834 H 0.24304 0.57947 0.79021 0.0
H1835 H 0.23715 0.56587 0.82825 0.0
H1836 H 0.3465 0.46869 0.91727 0.0
H1837 H 0.35568 0.43263 0.91296 0.0
H1838 H 0.42648 0.44292 0.89792 0.0
H1839 H 0.41722 0.47971 0.90147 0.0
Nd1840 Nd 0.30678 0.57467 0.60112 0.0
Nd1841 Nd 0.32088 0.60941 0.62967 0.0
C1842 C 0.2917 0.54771 0.57097 0.0
C1843 C 0.28422 0.5472 0.54763 0.0
C1844 C 0.27413 0.56445 0.5395 0.0
C1845 C 0.26736 0.56352 0.51694 0.0
C1846 C 0.27082 0.5454 0.5023 0.0
C1847 C 0.28162 0.52842 0.51038 0.0
C1848 C 0.28817 0.52932 0.53294 0.0
C1849 C 0.29849 0.57185 0.64793 0.0
C1850 C 0.27516 0.61504 0.60489 0.0
C1851 C 0.33313 0.6369 0.66146 0.0
C1852 C 0.35285 0.64466 0.67248 0.0
C1853 C 0.36941 0.6316 0.68017 0.0
C1854 C 0.38589 0.6394 0.69383 0.0
C1855 C 0.38602 0.66035 0.70007 0.0
C1856 C 0.3704 0.67341 0.69089 0.0
C1857 C 0.35395 0.6656 0.67722 0.0
C1858 C 0.33319 0.61032 0.58261 0.0
C1859 C 0.35548 0.56823 0.61988 0.0
O1860 O 0.31323 0.55052 0.57226 0.0
O1861 O 0.27853 0.55805 0.58763 0.0
O1862 O 0.30594 0.55697 0.63294 0.0
O1863 O 0.29452 0.58767 0.6381 0.0
O1864 O 0.28548 0.60109 0.58961 0.0
O1865 O 0.28336 0.61878 0.6253 0.0
O1866 O 0.32693 0.61901 0.6661 0.0
O1867 O 0.33124 0.64038 0.63985 0.0
O1868 O 0.32594 0.62603 0.59658 0.0
O1869 O 0.33475 0.59518 0.59393 0.0
O1870 O 0.34968 0.58471 0.63429 0.0
O1871 O 0.34296 0.56301 0.60285 0.0
H1872 H 0.27131 0.57851 0.55061 0.0
H1873 H 0.25893 0.57678 0.51119 0.0
H1874 H 0.28489 0.51439 0.4993 0.0
H1875 H 0.29633 0.51604 0.53893 0.0
H1876 H 0.36909 0.61538 0.67642 0.0
H1877 H 0.39802 0.62898 0.70023 0.0
H1878 H 0.36995 0.68958 0.69542 0.0
H1879 H 0.34139 0.6759 0.67129 0.0
Nd1880 Nd 0.17153 0.55666 0.30367 0.0
Nd1881 Nd 0.16846 0.5956 0.29471 0.0
C1882 C 0.17869 0.5231 0.32348 0.0
C1883 C 0.18757 0.52164 0.34606 0.0
C1884 C 0.18593 0.53892 0.36205 0.0
C1885 C 0.19689 0.53895 0.38233 0.0
C1886 C 0.20983 0.52173 0.38687 0.0
C1887 C 0.2111 0.50427 0.37109 0.0
C1888 C 0.20008 0.50427 0.35066 0.0
C1889 C 0.18432 0.55748 0.25595 0.0
C1890 C 0.21456 0.58351 0.31275 0.0
C1891 C 0.15776 0.6315 0.28089 0.0
C1892 C 0.145 0.64083 0.26343 0.0
C1893 C 0.14749 0.63365 0.2397 0.0
C1894 C 0.13503 0.64315 0.22375 0.0
C1895 C 0.11988 0.6599 0.23133 0.0
C1896 C 0.11717 0.66665 0.25519 0.0
C1897 C 0.12966 0.65727 0.271 0.0
C1898 C 0.16056 0.59376 0.34313 0.0
C1899 C 0.12936 0.56691 0.27811 0.0
O1900 O 0.15868 0.53242 0.32415 0.0
O1901 O 0.19315 0.52928 0.30782 0.0
O1902 O 0.17153 0.54457 0.2651 0.0
O1903 O 0.19004 0.57001 0.27221 0.0
O1904 O 0.2027 0.56882 0.31999 0.0
O1905 O 0.20599 0.5962 0.29934 0.0
O1906 O 0.17682 0.62113 0.27387 0.0
O1907 O 0.1456 0.62317 0.29685 0.0
O1908 O 0.17377 0.60578 0.33297 0.0
O1909 O 0.15211 0.58228 0.32754 0.0
O1910 O 0.14213 0.58145 0.27226 0.0
O1911 O 0.13487 0.55655 0.29513 0.0
H1912 H 0.17665 0.55262 0.35855 0.0
H1913 H 0.19536 0.5525 0.39437 0.0
H1914 H 0.22114 0.49088 0.37422 0.0
H1915 H 0.20184 0.491 0.3382 0.0
H1916 H 0.15908 0.62081 0.23348 0.0
H1917 H 0.13754 0.63761 0.20549 0.0
H1918 H 0.10526 0.67917 0.26174 0.0
H1919 H 0.12729 0.66288 0.28927 0.0
H1920 H 0.99178 0.59513 0.12486 0.0
H1921 H 0.02001 0.59972 0.19152 0.0
H1922 H 0.01584 0.63635 0.19346 0.0
H1923 H 1.00349 0.66757 0.17711 0.0
H1924 H 0.97388 0.66373 0.11144 0.0
H1925 H 0.97902 0.62673 0.10848 0.0
C1926 C 0.99692 0.60406 0.13993 0.0
C1927 C 1.00647 0.59419 0.15791 0.0
C1928 C 0.99407 0.62549 0.14125 0.0
C1929 C 0.01315 0.60645 0.17705 0.0
C1930 C 0.01053 0.62759 0.17836 0.0
C1931 C 0.99795 0.65866 0.16222 0.0
C1932 C 0.98819 0.66858 0.14457 0.0
C1933 C 1.00091 0.63732 0.16068 0.0
C1934 C 0.98139 0.65664 0.12533 0.0
C1935 C 0.98436 0.6354 0.12363 0.0
H1936 H 0.89432 0.76872 0.4417 0.0
H1937 H 0.88847 0.70513 0.44823 0.0
H1938 H 0.84827 0.70836 0.44116 0.0
H1939 H 0.81358 0.73052 0.44043 0.0
H1940 H 0.81883 0.79497 0.4427 0.0
H1941 H 0.86036 0.79051 0.43985 0.0
C1942 C 0.88441 0.75546 0.44102 0.0
C1943 C 0.89429 0.73673 0.44554 0.0
C1944 C 0.86099 0.75785 0.43938 0.0
C1945 C 0.88123 0.71967 0.4446 0.0
C1946 C 0.85819 0.7216 0.44097 0.0
C1947 C 0.82398 0.74347 0.44 0.0
C1948 C 0.81357 0.76302 0.44186 0.0
C1949 C 0.84768 0.7408 0.43955 0.0
C1950 C 0.8268 0.77984 0.4415 0.0
C1951 C 0.85043 0.77726 0.43974 0.0
H1952 H 0.48811 0.6095 0.73261 0.0
H1953 H 0.51436 0.58638 0.79304 0.0
H1954 H 0.52243 0.62048 0.80787 0.0
H1955 H 0.52298 0.65752 0.80349 0.0
H1956 H 0.49429 0.68011 0.74404 0.0
H1957 H 0.48624 0.64606 0.72957 0.0
C1958 C 0.49527 0.61176 0.74922 0.0
C1959 C 0.50076 0.59486 0.76131 0.0
C1960 C 0.49963 0.63165 0.75801 0.0
C1961 C 0.51037 0.59866 0.78274 0.0
C1962 C 0.51489 0.61835 0.79146 0.0
C1963 C 0.51474 0.65502 0.78754 0.0
C1964 C 0.50933 0.67166 0.77499 0.0
C1965 C 0.5098 0.63505 0.77918 0.0
C1966 C 0.4989 0.66782 0.75413 0.0
C1967 C 0.49417 0.64822 0.74577 0.0
H1968 H 0.82322 0.16936 0.94038 0.0
H1969 H 0.84599 0.22453 0.973 0.0
H1970 H 0.80799 0.23324 0.99199 0.0
H1971 H 0.76906 0.22393 1.00291 0.0
H1972 H 0.74601 0.16794 0.97232 0.0
H1973 H 0.78281 0.16077 0.94989 0.0
C1974 C 0.81982 0.18336 0.9514 0.0
C1975 C 0.83783 0.19625 0.95504 0.0
C1976 C 0.79774 0.18797 0.96335 0.0
C1977 C 0.83271 0.21434 0.96957 0.0
C1978 C 0.81089 0.21927 0.98072 0.0
C1979 C 0.77182 0.21021 0.9912 0.0
C1980 C 0.75427 0.19651 0.9898 0.0
C1981 C 0.79337 0.20599 0.97833 0.0
C1982 C 0.75891 0.17874 0.97446 0.0
C1983 C 0.78012 0.17463 0.96137 0.0
H1984 H 0.25128 0.99658 0.47341 0.0
H1985 H 0.27631 0.05585 0.48743 0.0
H1986 H 0.2695 0.05353 0.52911 0.0
H1987 H 0.25897 0.03379 0.56234 0.0
H1988 H 0.22983 0.97636 0.54921 0.0
H1989 H 0.23544 0.97888 0.50705 0.0
C1990 C 0.25472 1.0092 0.48555 0.0
C1991 C 0.26434 0.02639 0.47682 0.0
C1992 C 0.25032 1.00798 0.50997 0.0
C1993 C 0.26874 0.04247 0.49316 0.0
C1994 C 0.26504 0.0411 0.51724 0.0
C1995 C 0.25379 0.02185 0.55024 0.0
C1996 C 0.24449 1.00464 0.55902 0.0
C1997 C 0.2563 0.02377 0.52593 0.0
C1998 C 0.2373 0.98962 0.54302 0.0
C1999 C 0.24051 0.99109 0.51883 0.0
H2000 H 0.28192 0.96578 0.75909 0.0
H2001 H 0.21965 0.93793 0.74511 0.0
H2002 H 0.21395 0.93044 0.78581 0.0
H2003 H 0.22569 0.93382 0.82612 0.0
H2004 H 0.28689 0.96359 0.83963 0.0
H2005 H 0.29439 0.96773 0.79827 0.0
C2006 C 0.26732 0.9577 0.76477 0.0
C2007 C 0.25128 0.95241 0.74902 0.0
C2008 C 0.26403 0.95371 0.78817 0.0
C2009 C 0.23218 0.94235 0.75691 0.0
C2010 C 0.22895 0.93799 0.78017 0.0
C2011 C 0.24085 0.94085 0.81985 0.0
C2012 C 0.25586 0.9483 0.83577 0.0
C2013 C 0.24462 0.94386 0.79607 0.0
C2014 C 0.2752 0.95772 0.8276 0.0
C2015 C 0.27943 0.96016 0.804 0.0
H2016 H 0.31415 0.97093 0.09705 0.0
H2017 H 0.30703 0.03618 0.10187 0.0
H2018 H 0.28557 0.03459 0.06774 0.0
H2019 H 0.27063 0.01499 0.03559 0.0
H2020 H 0.28082 0.94995 0.02797 0.0
H2021 H 0.29917 0.95113 0.06438 0.0
C2022 C 0.30808 0.98481 0.09051 0.0
C2023 C 0.31228 1.00366 0.10194 0.0
C2024 C 0.29631 0.98383 0.07046 0.0
C2025 C 0.30381 0.02148 0.09359 0.0
C2026 C 0.29168 0.0206 0.07398 0.0
C2027 C 0.27702 1.00106 0.04176 0.0
C2028 C 0.27459 0.98246 0.02899 0.0
C2029 C 0.28812 1.0019 0.06214 0.0
C2030 C 0.28235 0.96448 0.03758 0.0
C2031 C 0.293 0.96515 0.05827 0.0
H2032 H 0.37707 0.98582 0.28921 0.0
H2033 H 0.3145 0.96791 0.26294 0.0
H2034 H 0.29374 0.97993 0.30067 0.0
H2035 H 0.29317 0.99705 0.34159 0.0
H2036 H 0.35726 1.01081 0.36793 0.0
H2037 H 0.37717 0.99907 0.33042 0.0
C2038 C 0.35893 0.98426 0.29178 0.0
C2039 C 0.34751 0.9759 0.273 0.0
C2040 C 0.34717 0.99067 0.31385 0.0
C2041 C 0.32391 0.9741 0.27693 0.0
C2042 C 0.31196 0.98111 0.2986 0.0
C2043 C 0.3115 0.99727 0.3392 0.0
C2044 C 0.32349 1.00498 0.35806 0.0
C2045 C 0.32333 0.98965 0.31729 0.0
C2046 C 0.34734 1.00495 0.35422 0.0
C2047 C 0.3589 0.99825 0.33254 0.0
H2048 H 0.4972 0.25339 0.0263 0.0
H2049 H 0.46232 0.21296 0.06898 0.0
H2050 H 0.49908 0.19643 0.07595 0.0
H2051 H 0.54178 0.19665 0.07353 0.0
H2052 H 0.57474 0.24066 0.03417 0.0
H2053 H 0.5383 0.25266 0.02233 0.0
C2054 C 0.49757 0.24054 0.0366 0.0
C2055 C 0.47704 0.23419 0.04676 0.0
C2056 C 0.51861 0.23209 0.04155 0.0
C2057 C 0.47781 0.21777 0.0604 0.0
C2058 C 0.4989 0.20861 0.06472 0.0
C2059 C 0.54087 0.20874 0.06221 0.0
C2060 C 0.56097 0.21789 0.05486 0.0
C2061 C 0.5195 0.2161 0.056 0.0
C2062 C 0.55958 0.23357 0.0403 0.0
C2063 C 0.53873 0.24038 0.03342 0.0
H2064 H 0.03921 0.19124 0.9994 0.0
H2065 H 0.01719 0.23516 0.95424 0.0
H2066 H 0.05157 0.25326 0.95924 0.0
H2067 H 0.0865 0.25769 0.97829 0.0
H2068 H 0.10928 0.21326 0.02259 0.0
H2069 H 0.07544 0.19464 0.01672 0.0
C2070 C 0.04199 0.20477 0.99066 0.0
C2071 C 0.02571 0.21192 0.97657 0.0
C2072 C 0.06166 0.21517 0.99375 0.0
C2073 C 0.02961 0.22928 0.96502 0.0
C2074 C 0.04914 0.23971 0.96802 0.0
C2075 C 0.08434 0.24374 0.98637 0.0
C2076 C 0.10042 0.23696 1.00096 0.0
C2077 C 0.06512 0.23292 0.98257 0.0
C2078 C 0.09699 0.21906 1.01163 0.0
C2079 C 0.07775 0.2083 1.00813 0.0
H2080 H 0.94074 0.85255 0.16334 0.0
H2081 H 0.00692 0.85223 0.18926 0.0
H2082 H 0.00683 0.88898 0.18938 0.0
H2083 H 0.98792 0.92148 0.18215 0.0
H2084 H 0.92069 0.92197 0.15861 0.0
H2085 H 0.92111 0.8852 0.15778 0.0
C2086 C 0.95515 0.86057 0.16892 0.0
C2087 C 0.97383 0.84968 0.17624 0.0
C2088 C 0.95479 0.88182 0.1694 0.0
C2089 C 0.99228 0.86028 0.18366 0.0
C2090 C 0.99227 0.88131 0.18369 0.0
C2091 C 0.97339 0.91351 0.17683 0.0
C2092 C 0.95444 0.92447 0.1702 0.0
C2093 C 0.9736 0.89228 0.17665 0.0
C2094 C 0.93564 0.91392 0.16356 0.0
C2095 C 0.93585 0.89285 0.16304 0.0
H2096 H 0.61375 0.74678 0.47417 0.0
H2097 H 0.64473 0.68749 0.47951 0.0
H2098 H 0.60735 0.67326 0.48071 0.0
H2099 H 0.5657 0.67816 0.48232 0.0
H2100 H 0.53497 0.73774 0.47809 0.0
H2101 H 0.57249 0.75143 0.47413 0.0
C2102 C 0.61233 0.73069 0.47526 0.0
C2103 C 0.63187 0.71818 0.47681 0.0
C2104 C 0.59086 0.72274 0.47625 0.0
C2105 C 0.62983 0.69742 0.47855 0.0
C2106 C 0.60851 0.68929 0.47917 0.0
C2107 C 0.56731 0.69409 0.48027 0.0
C2108 C 0.54773 0.707 0.48063 0.0
C2109 C 0.58889 0.70187 0.47836 0.0
C2110 C 0.54989 0.72762 0.47815 0.0
C2111 C 0.57129 0.73542 0.47583 0.0
H2112 H 1.00016 0.71965 0.52168 0.0
H2113 H 0.01153 0.70525 0.44741 0.0
H2114 H 0.04725 0.6866 0.45206 0.0
H2115 H 0.07799 0.67887 0.47666 0.0
H2116 H 0.06892 0.6969 0.5503 0.0
H2117 H 0.02975 0.70934 0.5468 0.0
C2118 C 0.01009 0.71174 0.50668 0.0
C2119 C 1.00309 0.71343 0.48425 0.0
C2120 C 0.0313 0.70197 0.50943 0.0
C2121 C 0.01647 0.70381 0.46484 0.0
C2122 C 0.037 0.69332 0.46748 0.0
C2123 C 0.06714 0.68502 0.49196 0.0
C2124 C 0.07605 0.68679 0.51373 0.0
C2125 C 0.04501 0.69294 0.48958 0.0
C2126 C 0.0622 0.69526 0.53342 0.0
C2127 C 0.03987 0.70245 0.53138 0.0
H2128 H 0.04796 0.34156 0.17854 0.0
H2129 H 0.99338 0.35635 0.23279 0.0
H2130 H 0.98897 0.39025 0.2209 0.0
H2131 H 1.00018 0.41619 0.19516 0.0
H2132 H 0.054 0.4018 0.14047 0.0
H2133 H 0.0582 0.36722 0.1517 0.0
C2134 C 0.03484 0.352 0.18764 0.0
C2135 C 0.02126 0.34601 0.20687 0.0
C2136 C 0.03184 0.37163 0.18028 0.0
C2137 C 1.00466 0.36027 0.21842 0.0
C2138 C 1.00181 0.37976 0.21139 0.0
C2139 C 0.01259 0.4054 0.18544 0.0
C2140 C 0.02675 0.41163 0.16694 0.0
C2141 C 0.01522 0.38563 0.19233 0.0
C2142 C 0.04282 0.39741 0.1547 0.0
C2143 C 0.04534 0.37765 0.16125 0.0
H2144 H 0.57605 0.88911 0.68751 0.0
H2145 H 0.51127 0.91361 0.72033 0.0
H2146 H 0.50549 0.8823 0.73832 0.0
H2147 H 0.51968 0.84876 0.74667 0.0
H2148 H 0.58653 0.82558 0.71779 0.0
H2149 H 0.59089 0.85561 0.69691 0.0
C2150 C 0.56077 0.88757 0.69875 0.0
C2151 C 0.54441 0.90383 0.70299 0.0
C2152 C 0.55805 0.86983 0.71003 0.0
C2153 C 0.52423 0.90138 0.71681 0.0
C2154 C 0.52101 0.88354 0.72734 0.0
C2155 C 0.5354 0.85034 0.73615 0.0
C2156 C 0.55272 0.83477 0.73392 0.0
C2157 C 0.53803 0.86786 0.72454 0.0
C2158 C 0.57271 0.83707 0.71966 0.0
C2159 C 0.57527 0.8543 0.7077 0.0
H2160 H 0.02488 0.3716 0.79865 0.0
H2161 H 0.05339 0.37642 0.86486 0.0
H2162 H 0.04656 0.41326 0.86802 0.0
H2163 H 0.03203 0.44436 0.85209 0.0
H2164 H 1.00285 0.43901 0.786 0.0
H2165 H 0.00969 0.40244 0.78313 0.0
C2166 C 0.02956 0.38069 0.81379 0.0
C2167 C 0.03953 0.37111 0.83155 0.0
C2168 C 0.02519 0.40193 0.81567 0.0
C2169 C 0.04563 0.38328 0.85095 0.0
C2170 C 0.04167 0.40441 0.85279 0.0
C2171 C 0.02725 0.43526 0.83697 0.0
C2172 C 0.01678 0.4448 0.81935 0.0
C2173 C 0.03139 0.41396 0.83527 0.0
C2174 C 0.01053 0.43241 0.80011 0.0
C2175 C 0.01466 0.41135 0.79829 0.0
H2176 H 0.18144 0.23724 0.50406 0.0
H2177 H 0.19277 0.2951 0.47808 0.0
H2178 H 0.23113 0.29365 0.48978 0.0
H2179 H 0.2631 0.27503 0.50412 0.0
H2180 H 0.25283 0.21842 0.53281 0.0
H2181 H 0.21288 0.22039 0.52368 0.0
C2182 C 0.19211 0.24973 0.50139 0.0
C2183 C 0.18381 0.26623 0.48987 0.0
C2184 C 0.21465 0.24898 0.50854 0.0
C2185 C 0.19827 0.28214 0.48667 0.0
C2186 C 0.22046 0.28133 0.49334 0.0
C2187 C 0.25201 0.26329 0.50884 0.0
C2188 C 0.26107 0.24662 0.5192 0.0
C2189 C 0.22904 0.26469 0.50379 0.0
C2190 C 0.24636 0.23155 0.52511 0.0
C2191 C 0.22349 0.23263 0.51967 0.0
H2192 H 0.53138 0.34992 0.30948 0.0
H2193 H 0.49592 0.36482 0.25059 0.0
H2194 H 0.50377 0.40049 0.2586 0.0
H2195 H 0.52206 0.42712 0.28148 0.0
H2196 H 0.5579 0.41172 0.34011 0.0
H2197 H 0.54932 0.37646 0.33244 0.0
C2198 C 0.52502 0.36101 0.29863 0.0
C2199 C 0.51286 0.35478 0.2796 0.0
C2200 C 0.53017 0.38133 0.30294 0.0
C2201 C 0.50507 0.36931 0.2655 0.0
C2202 C 0.50975 0.38965 0.26995 0.0
C2203 C 0.52785 0.41612 0.29274 0.0
C2204 C 0.54061 0.42226 0.31142 0.0
C2205 C 0.52253 0.3958 0.28847 0.0
C2206 C 0.54833 0.40756 0.32543 0.0
C2207 C 0.54319 0.38736 0.32124 0.0
H2208 H 0.25504 0.8602 1.00991 0.0
H2209 H 0.2641 0.82273 0.06583 0.0
H2210 H 0.22279 0.82282 0.07433 0.0
H2211 H 0.18357 0.83198 0.06385 0.0
H2212 H 0.17656 0.86866 1.00665 0.0
H2213 H 0.21724 0.87067 1.00109 0.0
C2214 C 0.24809 0.85238 0.02429 0.0
C2215 C 0.26273 0.84151 0.03717 0.0
C2216 C 0.22446 0.85223 0.02882 0.0
C2217 C 0.25323 0.83109 0.05543 0.0
C2218 C 0.22958 0.83115 0.06034 0.0
C2219 C 0.19103 0.84054 0.05037 0.0
C2220 C 0.1769 0.85014 0.03573 0.0
C2221 C 0.21492 0.84139 0.04683 0.0
C2222 C 0.18689 0.861 0.01817 0.0
C2223 C 0.21026 0.86223 1.01491 0.0
H2224 H 0.77227 0.97442 0.38727 0.0
H2225 H 0.79578 0.03352 0.40537 0.0
H2226 H 0.7919 0.02782 0.44675 0.0
H2227 H 0.7782 1.00721 0.47806 0.0
H2228 H 0.75743 0.94709 0.45991 0.0
H2229 H 0.7644 0.9517 0.41849 0.0
C2230 C 0.77665 0.98597 0.40032 0.0
C2231 C 0.78376 1.0046 0.39335 0.0
C2232 C 0.77506 0.9823 0.4241 0.0
C2233 C 0.79 0.0192 0.41033 0.0
C2234 C 0.7878 0.01591 0.434 0.0
C2235 C 0.77594 0.99487 0.46503 0.0
C2236 C 0.76739 0.97679 0.4722 0.0
C2237 C 0.77994 0.99767 0.44115 0.0
C2238 C 0.7643 0.96105 0.45503 0.0
C2239 C 0.76798 0.9638 0.43126 0.0
H2240 H 0.75082 0.0326 0.18705 0.0
H2241 H 0.7822 0.08578 0.21411 0.0
H2242 H 0.7853 0.09785 0.17521 0.0
H2243 H 0.77961 0.09277 0.13303 0.0
H2244 H 0.75167 0.03779 0.10612 0.0
H2245 H 0.74576 0.02736 0.14542 0.0
C2246 C 0.7581 0.04695 0.18451 0.0
C2247 C 0.76612 0.05831 0.20351 0.0
C2248 C 0.76022 0.05357 0.16207 0.0
C2249 C 0.77596 0.07669 0.19977 0.0
C2250 C 0.77764 0.08364 0.17754 0.0
C2251 C 0.77233 0.07852 0.13583 0.0
C2252 C 0.76627 0.06601 0.11666 0.0
C2253 C 0.76994 0.07214 0.15849 0.0
C2254 C 0.75659 0.04765 0.12056 0.0
C2255 C 0.75326 0.04163 0.14304 0.0
H2256 H 0.71264 0.10049 0.84418 0.0
H2257 H 0.64392 0.09186 0.87043 0.0
H2258 H 0.65699 0.08653 0.90885 0.0
H2259 H 0.6885 0.08384 0.93511 0.0
H2260 H 0.75703 0.09207 0.90713 0.0
H2261 H 0.74341 0.09824 0.86985 0.0
C2262 C 0.7004 0.09742 0.85825 0.0
C2263 C 0.67722 0.09641 0.85412 0.0
C2264 C 0.70808 0.09434 0.88027 0.0
C2265 C 0.66181 0.09258 0.87284 0.0
C2266 C 0.66935 0.08953 0.8949 0.0
C2267 C 0.70054 0.08688 0.92089 0.0
C2268 C 0.72399 0.08764 0.92458 0.0
C2269 C 0.69254 0.09024 0.89886 0.0
C2270 C 0.73896 0.0918 0.90555 0.0
C2271 C 0.73118 0.09516 0.88391 0.0
H2272 H 0.75111 0.98725 0.60164 0.0
H2273 H 0.72041 0.03445 0.56623 0.0
H2274 H 0.70952 0.05432 0.6036 0.0
H2275 H 0.70666 0.05695 0.64634 0.0
H2276 H 0.73352 1.00757 0.68145 0.0
H2277 H 0.74809 0.98977 0.64413 0.0
C2278 C 0.74278 1.00223 0.60214 0.0
C2279 C 0.73714 1.00981 0.58143 0.0
C2280 C 0.73553 0.0129 0.6236 0.0
C2281 C 0.72539 0.02872 0.58212 0.0
C2282 C 0.71894 0.0399 0.60343 0.0
C2283 C 0.71553 0.04222 0.6458 0.0
C2284 C 0.71909 0.03362 0.6666 0.0
C2285 C 0.72345 0.03189 0.62429 0.0
C2286 C 0.73087 0.01464 0.66567 0.0
C2287 C 0.73917 1.00444 0.64436 0.0
H2288 H 0.48002 0.84541 0.97909 0.0
H2289 H 0.44579 0.83278 0.04448 0.0
H2290 H 0.48122 0.81902 0.05681 0.0
H2291 H 0.52024 0.80544 0.04669 0.0
H2292 H 0.55516 0.81605 0.98115 0.0
H2293 H 0.52165 0.83579 0.97125 0.0
C2294 C 0.48057 0.84013 0.99625 0.0
C2295 C 0.46027 0.83996 1.01082 0.0
C2296 C 0.50116 0.83165 1.00311 0.0
C2297 C 0.46113 0.83288 0.03289 0.0
C2298 C 0.4814 0.82497 0.03997 0.0
C2299 C 0.52079 0.81281 0.03068 0.0
C2300 C 0.5402 0.80969 1.0149 0.0
C2301 C 0.5013 0.82356 0.02492 0.0
C2302 C 0.54055 0.81872 0.99384 0.0
C2303 C 0.52125 0.82976 0.98805 0.0
H2304 H 0.92347 0.7826 0.02627 0.0
H2305 H 0.89164 0.84245 0.02723 0.0
H2306 H 0.92898 0.85682 0.02491 0.0
H2307 H 0.97056 0.85205 0.02147 0.0
H2308 H 1.00225 0.79201 0.01962 0.0
H2309 H 0.96495 0.77788 0.02332 0.0
C2310 C 0.92478 0.7988 0.02616 0.0
C2311 C 0.90503 0.81153 0.02692 0.0
C2312 C 0.94617 0.80682 0.02451 0.0
C2313 C 0.90676 0.83244 0.02647 0.0
C2314 C 0.92802 0.84062 0.02521 0.0
C2315 C 0.96924 0.8359 0.02209 0.0
C2316 C 0.989 0.82305 0.02027 0.0
C2317 C 0.94782 0.82792 0.02404 0.0
C2318 C 0.98719 0.80213 0.02076 0.0
C2319 C 0.96593 0.79407 0.02297 0.0
H2320 H 0.0921 0.11604 0.79121 0.0
H2321 H 0.01996 0.11098 0.80412 0.0
H2322 H 0.01411 0.1479 0.80864 0.0
H2323 H 0.0296 0.18177 0.80864 0.0
H2324 H 0.10209 0.18639 0.79758 0.0
H2325 H 0.10764 0.14965 0.79277 0.0
C2326 C 0.07507 0.12301 0.79494 0.0
C2327 C 0.05648 0.11072 0.79716 0.0
C2328 C 0.0719 0.14425 0.79793 0.0
C2329 C 0.03455 0.12004 0.80206 0.0
C2330 C 0.03122 0.14118 0.8048 0.0
C2331 C 0.04664 0.17478 0.80544 0.0
C2332 C 0.06537 0.18704 0.80324 0.0
C2333 C 0.04978 0.15348 0.80281 0.0
C2334 C 0.08729 0.17751 0.79888 0.0
C2335 C 0.09051 0.15643 0.79621 0.0
H2336 H 0.43689 0.30282 0.52108 0.0
H2337 H 0.47013 0.25295 0.4761 0.0
H2338 H 0.50708 0.2669 0.481 0.0
H2339 H 0.52962 0.29322 0.49797 0.0
H2340 H 0.49649 0.34407 0.54159 0.0
H2341 H 0.45961 0.32971 0.53757 0.0
C2342 C 0.45231 0.2951 0.51242 0.0
C2343 C 0.45109 0.27701 0.49824 0.0
C2344 C 0.47332 0.30335 0.51507 0.0
C2345 C 0.47092 0.26702 0.48692 0.0
C2346 C 0.49193 0.27494 0.48978 0.0
C2347 C 0.51429 0.3013 0.50635 0.0
C2348 C 0.51567 0.31972 0.5199 0.0
C2349 C 0.49329 0.29313 0.5037 0.0
C2350 C 0.49579 0.32979 0.53117 0.0
C2351 C 0.47475 0.32165 0.52879 0.0
H2352 H 0.98571 0.29635 0.48551 0.0
H2353 H 0.99111 0.32094 0.41915 0.0
H2354 H 0.03253 0.31645 0.41691 0.0
H2355 H 0.06753 0.30439 0.43345 0.0
H2356 H 0.06213 0.2832 0.5019 0.0
H2357 H 0.02088 0.28782 0.50392 0.0
C2358 C 0.99601 0.30064 0.47056 0.0
C2359 C 0.98532 0.30858 0.45225 0.0
C2360 C 0.01999 0.29884 0.46992 0.0
C2361 C 0.9989 0.31459 0.4333 0.0
C2362 C 0.02263 0.31208 0.43207 0.0
C2363 C 0.05736 0.30121 0.44902 0.0
C2364 C 0.06814 0.29348 0.46749 0.0
C2365 C 0.03343 0.30417 0.45026 0.0
C2366 C 0.05453 0.28934 0.48746 0.0
C2367 C 0.0308 0.29179 0.48856 0.0
H2368 H 0.01546 0.61978 0.77752 0.0
H2369 H 0.95398 0.63535 0.82213 0.0
H2370 H 0.95113 0.66868 0.80733 0.0
H2371 H 0.96571 0.69308 0.78101 0.0
H2372 H 0.02763 0.6773 0.73671 0.0
H2373 H 0.03006 0.64419 0.75131 0.0
C2374 C 1.00164 0.63059 0.78425 0.0
C2375 C 0.98504 0.62518 0.80105 0.0
C2376 C 0.99988 0.64957 0.77531 0.0
C2377 C 0.967 0.63922 0.80928 0.0
C2378 C 0.96533 0.65824 0.80075 0.0
C2379 C 0.97989 0.68253 0.77465 0.0
C2380 C 0.99643 0.68795 0.75765 0.0
C2381 C 0.9816 0.66355 0.78362 0.0
C2382 C 0.01433 0.67366 0.74938 0.0
C2383 C 0.01597 0.65472 0.758 0.0
H2384 H 0.54634 0.16898 0.29673 0.0
H2385 H 0.48016 0.18943 0.33005 0.0
H2386 H 0.47716 0.15745 0.3473 0.0
H2387 H 0.4928 0.12277 0.35222 0.0
H2388 H 0.55727 0.10168 0.31575 0.0
H2389 H 0.56152 0.13461 0.30106 0.0
C2390 C 0.53108 0.16651 0.30753 0.0
C2391 C 0.51357 0.18201 0.31193 0.0
C2392 C 0.52919 0.14779 0.31715 0.0
C2393 C 0.49422 0.17823 0.3265 0.0
C2394 C 0.49239 0.15977 0.33637 0.0
C2395 C 0.50774 0.12539 0.34099 0.0
C2396 C 0.52439 0.10944 0.33468 0.0
C2397 C 0.50974 0.14435 0.33179 0.0
C2398 C 0.54399 0.11344 0.32076 0.0
C2399 C 0.5464 0.13232 0.31217 0.0
H2400 H 0.49056 0.14531 0.65338 0.0
H2401 H 0.51525 0.16515 0.71928 0.0
H2402 H 0.52848 0.13076 0.7241 0.0
H2403 H 0.53345 0.09505 0.71003 0.0
H2404 H 0.50572 0.07373 0.64618 0.0
H2405 H 0.49403 0.10839 0.64002 0.0
C2406 C 0.49864 0.14204 0.66888 0.0
C2407 C 0.50172 0.15797 0.68598 0.0
C2408 C 0.50598 0.12185 0.67189 0.0
C2409 C 0.51231 0.15333 0.70591 0.0
C2410 C 0.52006 0.13359 0.70868 0.0
C2411 C 0.52452 0.09773 0.6949 0.0
C2412 C 0.52061 0.08135 0.67871 0.0
C2413 C 0.51697 0.1177 0.69185 0.0
C2414 C 0.50952 0.08574 0.6589 0.0
C2415 C 0.50252 0.10569 0.65543 0.0
H2416 H 0.27639 0.25591 0.99397 0.0
H2417 H 0.28705 0.31778 0.98207 0.0
H2418 H 0.32646 0.31355 0.99173 0.0
H2419 H 0.35735 0.29299 1.00642 0.0
H2420 H 0.34589 0.2317 0.02086 0.0
H2421 H 0.3079 0.23489 1.00742 0.0
C2422 C 0.28752 0.26831 0.99304 0.0
C2423 C 0.27882 0.28707 0.98686 0.0
C2424 C 0.31016 0.2659 0.99933 0.0
C2425 C 0.29333 0.30314 0.98643 0.0
C2426 C 0.3159 0.30073 0.99208 0.0
C2427 C 0.34676 0.28016 1.0062 0.0
C2428 C 0.35487 0.26199 1.01451 0.0
C2429 C 0.32448 0.28228 0.99893 0.0
C2430 C 0.34042 0.24581 1.0145 0.0
C2431 C 0.31853 0.24766 1.00685 0.0
H2432 H 0.03273 0.15533 0.24866 0.0
H2433 H 0.01491 0.17734 0.18433 0.0
H2434 H 1.00445 0.14361 0.17034 0.0
H2435 H 0.99788 0.10834 0.17743 0.0
H2436 H 0.01322 0.08706 0.24301 0.0
H2437 H 0.0271 0.11983 0.25534 0.0
C2438 C 0.02693 0.15263 0.23141 0.0
C2439 C 0.02456 0.16882 0.21759 0.0
C2440 C 0.02029 0.13329 0.22374 0.0
C2441 C 0.01698 0.16513 0.1953 0.0
C2442 C 0.01079 0.14586 0.18736 0.0
C2443 C 1.00423 0.11085 0.19443 0.0
C2444 C 1.00456 0.09508 0.20915 0.0
C2445 C 0.0119 0.12992 0.20164 0.0
C2446 C 0.01312 0.09867 0.23106 0.0
C2447 C 0.02098 0.1175 0.23822 0.0
H2448 H 0.35502 0.68931 0.43736 0.0
H2449 H 0.35959 0.65515 0.49698 0.0
H2450 H 0.31866 0.65418 0.5019 0.0
H2451 H 0.28129 0.66525 0.4918 0.0
H2452 H 0.27502 0.70134 0.4342 0.0
H2453 H 0.31647 0.6996 0.4262 0.0
C2454 C 0.34697 0.68162 0.45131 0.0
C2455 C 0.36043 0.67243 0.46684 0.0
C2456 C 0.32299 0.68165 0.45462 0.0
C2457 C 0.34974 0.66249 0.48483 0.0
C2458 C 0.32623 0.66191 0.48773 0.0
C2459 C 0.28892 0.67243 0.4772 0.0
C2460 C 0.27503 0.68334 0.4636 0.0
C2461 C 0.31267 0.67175 0.47306 0.0
C2462 C 0.28533 0.69292 0.44506 0.0
C2463 C 0.30905 0.69191 0.44046 0.0
H2464 H 0.81143 0.53672 0.03981 0.0
H2465 H 0.74397 0.55459 0.02393 0.0
H2466 H 0.72791 0.53897 0.05828 0.0
H2467 H 0.73391 0.52266 0.0949 0.0
H2468 H 0.80211 0.50627 0.10992 0.0
H2469 H 0.81705 0.51847 0.07367 0.0
C2470 C 0.79316 0.53706 0.0437 0.0
C2471 C 0.77891 0.54699 0.02947 0.0
C2472 C 0.78423 0.5282 0.06336 0.0
C2473 C 0.75529 0.54704 0.0346 0.0
C2474 C 0.74616 0.53817 0.0543 0.0
C2475 C 0.75189 0.52133 0.09 0.0
C2476 C 0.76679 0.51342 0.10525 0.0
C2477 C 0.76053 0.52898 0.06911 0.0
C2478 C 0.79022 0.51219 0.0986 0.0
C2479 C 0.79882 0.51928 0.07788 0.0
H2480 H 0.73998 0.4632 0.30725 0.0
H2481 H 0.81028 0.47786 0.30139 0.0
H2482 H 0.813 0.4729 0.3423 0.0
H2483 H 0.79523 0.46509 0.38039 0.0
H2484 H 0.72494 0.45115 0.38643 0.0
H2485 H 0.72229 0.45525 0.34517 0.0
C2486 C 0.75586 0.46543 0.31493 0.0
C2487 C 0.77489 0.47086 0.30108 0.0
C2488 C 0.7573 0.46273 0.33866 0.0
C2489 C 0.79542 0.47338 0.3114 0.0
C2490 C 0.79697 0.47071 0.33492 0.0
C2491 C 0.77937 0.46305 0.37258 0.0
C2492 C 0.76034 0.45769 0.38629 0.0
C2493 C 0.77801 0.4655 0.34878 0.0
C2494 C 0.73988 0.45496 0.3761 0.0
C2495 C 0.73834 0.45742 0.35252 0.0
H2496 H 0.82565 0.42101 0.65915 0.0
H2497 H 0.89531 0.4307 0.63752 0.0
H2498 H 0.88433 0.43782 0.59878 0.0
H2499 H 0.8543 0.44149 0.57077 0.0
H2500 H 0.78481 0.4321 0.59442 0.0
H2501 H 0.79641 0.42469 0.63212 0.0
C2502 C 0.83855 0.42474 0.64606 0.0
C2503 C 0.86135 0.42542 0.65156 0.0
C2504 C 0.83206 0.42887 0.62387 0.0
C2505 C 0.87764 0.43018 0.63405 0.0
C2506 C 0.8713 0.43424 0.6118 0.0
C2507 C 0.84164 0.4379 0.58415 0.0
C2508 C 0.81854 0.43712 0.57909 0.0
C2509 C 0.84847 0.43372 0.60644 0.0
C2510 C 0.80269 0.43236 0.59706 0.0
C2511 C 0.80929 0.42826 0.61893 0.0
H2512 H 0.78064 0.5303 0.90256 0.0
H2513 H 0.82126 0.4917 0.94077 0.0
H2514 H 0.83157 0.469 0.90525 0.0
H2515 H 0.83296 0.46295 0.86271 0.0
H2516 H 0.79206 0.50177 0.82464 0.0
H2517 H 0.7784 0.522 0.86077 0.0
C2518 C 0.79117 0.51657 0.90324 0.0
C2519 C 0.80037 0.5126 0.92406 0.0
C2520 C 0.79757 0.50409 0.8827 0.0
C2521 C 0.81426 0.49501 0.92475 0.0
C2522 C 0.82025 0.48218 0.90448 0.0
C2523 C 0.82071 0.47559 0.86234 0.0
C2524 C 0.81383 0.48101 0.84095 0.0
C2525 C 0.8127 0.48702 0.8832 0.0
C2526 C 0.79813 0.49758 0.84079 0.0
C2527 C 0.7901 0.50904 0.86147 0.0
H2528 H 0.51103 0.41149 0.7069 0.0
H2529 H 0.43804 0.4161 0.71962 0.0
H2530 H 0.43709 0.37943 0.71607 0.0
H2531 H 0.4567 0.34589 0.70923 0.0
H2532 H 0.52964 0.34053 0.69627 0.0
H2533 H 0.53086 0.37736 0.69972 0.0
C2534 C 0.49501 0.40441 0.7092 0.0
C2535 C 0.47467 0.41655 0.71382 0.0
C2536 C 0.49451 0.3831 0.70689 0.0
C2537 C 0.45397 0.40714 0.71624 0.0
C2538 C 0.45337 0.38613 0.71415 0.0
C2539 C 0.4729 0.35274 0.70734 0.0
C2540 C 0.49302 0.34034 0.70256 0.0
C2541 C 0.4735 0.37394 0.70948 0.0
C2542 C 0.51382 0.34962 0.69972 0.0
C2543 C 0.51456 0.37073 0.70187 0.0
H2544 H 0.53551 0.86211 0.38167 0.0
H2545 H 0.58252 0.85095 0.32049 0.0
H2546 H 0.58022 0.88704 0.3149 0.0
H2547 H 0.56372 0.92167 0.32649 0.0
H2548 H 0.51446 0.93244 0.38614 0.0
H2549 H 0.51831 0.89669 0.39296 0.0
C2550 C 0.5455 0.86757 0.36737 0.0
C2551 C 0.55953 0.85377 0.35179 0.0
C2552 C 0.54334 0.88832 0.36374 0.0
C2553 C 0.57178 0.8612 0.33286 0.0
C2554 C 0.57038 0.88186 0.32961 0.0
C2555 C 0.55393 0.91628 0.34111 0.0
C2556 C 0.53886 0.92996 0.35581 0.0
C2557 C 0.55605 0.89556 0.3448 0.0
C2558 C 0.52605 0.9224 0.37439 0.0
C2559 C 0.52836 0.90191 0.3784 0.0
H2560 H 0.72507 0.78923 0.07637 0.0
H2561 H 0.72443 0.72489 0.0592 0.0
H2562 H 0.68328 0.72777 0.05727 0.0
H2563 H 0.64884 0.74874 0.05616 0.0
H2564 H 0.64976 0.81368 0.06692 0.0
H2565 H 0.68944 0.81054 0.07615 0.0
C2566 C 0.71572 0.77588 0.07264 0.0
C2567 C 0.72744 0.75684 0.06813 0.0
C2568 C 0.69224 0.77783 0.07043 0.0
C2569 C 0.71553 0.73963 0.06278 0.0
C2570 C 0.69209 0.7413 0.0617 0.0
C2571 C 0.65736 0.76226 0.06127 0.0
C2572 C 0.64616 0.78144 0.06127 0.0
C2573 C 0.68039 0.76035 0.06498 0.0
C2574 C 0.65789 0.79875 0.06714 0.0
C2575 C 0.68062 0.79694 0.07217 0.0
H2576 H 0.03947 0.93136 0.72727 0.0
H2577 H 0.04854 0.91966 0.79826 0.0
H2578 H 0.04407 0.88389 0.78843 0.0
H2579 H 0.03724 0.85531 0.76008 0.0
H2580 H 0.02747 0.86626 0.68925 0.0
H2581 H 0.03218 0.90245 0.69869 0.0
C2582 C 0.04034 0.92111 0.74072 0.0
C2583 C 0.04472 0.92876 0.76361 0.0
C2584 C 0.03745 0.90012 0.73499 0.0
C2585 C 0.04585 0.91469 0.78042 0.0
C2586 C 0.04304 0.89403 0.77486 0.0
C2587 C 0.03599 0.86559 0.74668 0.0
C2588 C 0.03187 0.85783 0.72392 0.0
C2589 C 0.03882 0.8865 0.75225 0.0
C2590 C 0.03054 0.87159 0.70689 0.0
C2591 C 0.03328 0.8924 0.71233 0.0
H2592 H 0.70023 0.31009 0.52761 0.0
H2593 H 0.71047 0.3522 0.5861 0.0
H2594 H 0.75156 0.35027 0.57439 0.0
H2595 H 0.78483 0.33739 0.54585 0.0
H2596 H 0.77269 0.29526 0.48751 0.0
H2597 H 0.73267 0.29637 0.50082 0.0
C2598 C 0.71144 0.31865 0.53809 0.0
C2599 C 0.70206 0.33107 0.55804 0.0
C2600 C 0.735 0.31756 0.53102 0.0
C2601 C 0.71708 0.34208 0.57114 0.0
C2602 C 0.74064 0.34117 0.56416 0.0
C2603 C 0.77345 0.32849 0.53598 0.0
C2604 C 0.78235 0.31611 0.51555 0.0
C2605 C 0.74986 0.32913 0.54386 0.0
C2606 C 0.76694 0.30466 0.50338 0.0
C2607 C 0.7438 0.30535 0.51093 0.0
H2608 H 0.26756 0.4797 1.01367 0.0
H2609 H 0.29772 0.532 0.04462 0.0
H2610 H 0.30911 0.54207 1.00576 0.0
H2611 H 0.30764 0.53757 0.96249 0.0
H2612 H 0.27411 0.48672 0.93261 0.0
H2613 H 0.2672 0.47459 0.97098 0.0
C2614 C 0.27721 0.493 1.01196 0.0
C2615 C 0.28225 0.50478 0.03227 0.0
C2616 C 0.28286 0.49919 0.98947 0.0
C2617 C 0.29401 0.52238 0.02944 0.0
C2618 C 0.30035 0.52826 1.00714 0.0
C2619 C 0.29908 0.52372 0.9644 0.0
C2620 C 0.29135 0.51314 0.94453 0.0
C2621 C 0.29447 0.51704 0.98693 0.0
C2622 C 0.28008 0.49531 0.94749 0.0
C2623 C 0.27614 0.4883 0.96951 0.0
H2624 H 0.30024 0.54763 0.74999 0.0
H2625 H 0.26425 0.60574 0.7665 0.0
H2626 H 0.26775 0.61173 0.72507 0.0
H2627 H 0.28005 0.59944 0.68371 0.0
H2628 H 0.3147 0.54041 0.66874 0.0
H2629 H 0.3129 0.53588 0.70995 0.0
C2630 C 0.29345 0.56176 0.74458 0.0
C2631 C 0.2822 0.5763 0.76121 0.0
C2632 C 0.29517 0.56485 0.72094 0.0
C2633 C 0.27299 0.59432 0.75391 0.0
C2634 C 0.275 0.59773 0.73028 0.0
C2635 C 0.28719 0.58566 0.68959 0.0
C2636 C 0.29729 0.57021 0.67322 0.0
C2637 C 0.28585 0.58296 0.71355 0.0
C2638 C 0.30661 0.55245 0.68097 0.0
C2639 C 0.30566 0.54982 0.70456 0.0
H2640 H 0.249 0.51436 0.48323 0.0
H2641 H 0.27278 0.5728 0.46974 0.0
H2642 H 0.25669 0.57018 0.43205 0.0
H2643 H 0.23518 0.55149 0.4036 0.0
H2644 H 0.21151 0.4931 0.41748 0.0
H2645 H 0.2292 0.49511 0.45422 0.0
C2646 C 0.25104 0.52637 0.47187 0.0
C2647 C 0.26207 0.54371 0.47914 0.0
C2648 C 0.24196 0.52469 0.45035 0.0
C2649 C 0.26413 0.55939 0.46453 0.0
C2650 C 0.25507 0.55785 0.44299 0.0
C2651 C 0.23389 0.53924 0.41473 0.0
C2652 C 0.22196 0.52224 0.40808 0.0
C2653 C 0.24379 0.54064 0.43586 0.0
C2654 C 0.22075 0.50626 0.42228 0.0
C2655 C 0.23069 0.50747 0.4433 0.0
H2656 H 0.17734 0.56619 0.21114 0.0
H2657 H 0.22267 0.53252 0.24981 0.0
H2658 H 0.24284 0.51688 0.21334 0.0
H2659 H 0.24632 0.51095 0.16986 0.0
H2660 H 0.20104 0.54523 0.13145 0.0
H2661 H 0.18276 0.56227 0.16774 0.0
C2662 C 0.192 0.55582 0.21159 0.0
C2663 C 0.19871 0.55097 0.23345 0.0
C2664 C 0.20362 0.54673 0.19029 0.0
C2665 C 0.21738 0.53698 0.23343 0.0
C2666 C 0.22886 0.52786 0.21245 0.0
C2667 C 0.23276 0.52242 0.16931 0.0
C2668 C 0.22536 0.52662 0.14739 0.0
C2669 C 0.22202 0.53238 0.19065 0.0
C2670 C 0.2074 0.54146 0.14762 0.0
C2671 C 0.19675 0.55129 0.16857 0.0
H2672 H 0.54835 0.66794 0.34454 0.0
H2673 H 0.61953 0.66971 0.32246 0.0
H2674 H 0.62398 0.63282 0.32119 0.0
H2675 H 0.6073 0.59973 0.32565 0.0
H2676 H 0.53616 0.59854 0.34818 0.0
H2677 H 0.53196 0.63525 0.34934 0.0
C2678 C 0.5649 0.6603 0.33965 0.0
C2679 C 0.58356 0.6717 0.33361 0.0
C2680 C 0.56729 0.63904 0.33873 0.0
C2681 C 0.6048 0.66139 0.32698 0.0
C2682 C 0.60737 0.64025 0.32628 0.0
C2683 C 0.59097 0.60753 0.33104 0.0
C2684 C 0.57214 0.59629 0.33704 0.0
C2685 C 0.58869 0.62886 0.33198 0.0
C2686 C 0.55095 0.60669 0.34341 0.0
C2687 C 0.54854 0.62776 0.34423 0.0
H2688 H 0.09835 0.40556 0.29844 0.0
H2689 H 0.0713 0.35033 0.27093 0.0
H2690 H 0.07345 0.33643 0.30854 0.0
H2691 H 0.08978 0.33795 0.34615 0.0
H2692 H 0.11821 0.39288 0.37299 0.0
H2693 H 0.10869 0.40913 0.33857 0.0
C2694 C 0.09265 0.39059 0.30089 0.0
C2695 C 0.0853 0.37867 0.28207 0.0
C2696 C 0.09442 0.38266 0.32221 0.0
C2697 C 0.07728 0.35957 0.2853 0.0
C2698 C 0.07861 0.35164 0.30669 0.0
C2699 C 0.09317 0.3537 0.34487 0.0
C2700 C 0.10501 0.36415 0.3618 0.0
C2701 C 0.08812 0.36273 0.32488 0.0
C2702 C 0.10947 0.38448 0.35987 0.0
C2703 C 0.10406 0.39374 0.34025 0.0
H2704 H 0.01135 0.81138 0.61412 0.0
H2705 H 0.98261 0.76504 0.65311 0.0
H2706 H 0.9659 0.7509 0.61833 0.0
H2707 H 0.96185 0.75043 0.57631 0.0
H2708 H 0.99127 0.79666 0.53758 0.0
H2709 H 1.00577 0.81194 0.57293 0.0
C2710 C 1.00121 0.79831 0.61516 0.0
C2711 C 0.99832 0.78922 0.63619 0.0
C2712 C 0.99219 0.79004 0.59507 0.0
C2713 C 0.98499 0.7724 0.63721 0.0
C2714 C 0.97564 0.76419 0.61727 0.0
C2715 C 0.97152 0.7638 0.57556 0.0
C2716 C 0.97573 0.77226 0.55427 0.0
C2717 C 0.9796 0.77263 0.59599 0.0
C2718 C 0.98792 0.78979 0.5537 0.0
C2719 C 0.99614 0.79857 0.57391 0.0
H2720 H 0.46594 0.75263 0.89628 0.0
H2721 H 0.4728 0.78434 0.83458 0.0
H2722 H 0.4586 0.8161 0.85795 0.0
H2723 H 0.44254 0.83438 0.89648 0.0
H2724 H 0.4349 0.80041 0.95647 0.0
H2725 H 0.45133 0.77003 0.93327 0.0
C2726 C 0.46441 0.76645 0.88777 0.0
C2727 C 0.47025 0.76603 0.86364 0.0
C2728 C 0.45605 0.78428 0.90115 0.0
C2729 C 0.46847 0.78422 0.85313 0.0
C2730 C 0.46024 0.80234 0.86651 0.0
C2731 C 0.44456 0.82028 0.90433 0.0
C2732 C 0.43733 0.81955 0.92815 0.0
C2733 C 0.4537 0.80251 0.89059 0.0
C2734 C 0.44002 0.80125 0.93816 0.0
C2735 C 0.44948 0.78389 0.92493 0.0
H2736 H 0.5306 0.09001 0.17971 0.0
H2737 H 0.56832 0.13663 0.21283 0.0
H2738 H 0.56242 0.12205 0.24995 0.0
H2739 H 0.54351 0.09794 0.27365 0.0
H2740 H 0.50538 0.05163 0.24112 0.0
H2741 H 0.51447 0.06406 0.20297 0.0
C2742 C 0.53756 0.09693 0.19505 0.0
C2743 C 0.54971 0.11449 0.19355 0.0
C2744 C 0.53411 0.08845 0.21635 0.0
C2745 C 0.55898 0.12308 0.21348 0.0
C2746 C 0.55556 0.1148 0.23473 0.0
C2747 C 0.53788 0.09022 0.25805 0.0
C2748 C 0.52432 0.07368 0.25988 0.0
C2749 C 0.54287 0.09769 0.23642 0.0
C2750 C 0.51646 0.06403 0.23981 0.0
C2751 C 0.52138 0.07132 0.21813 0.0
H2752 H 0.01837 0.78147 0.10866 0.0
H2753 H 0.07699 0.74093 0.1117 0.0
H2754 H 0.10178 0.76905 0.1106 0.0
H2755 H 0.10749 0.80439 0.10316 0.0
H2756 H 0.04927 0.84445 0.09698 0.0
H2757 H 0.02382 0.81773 0.1053 0.0
C2758 C 0.03651 0.77891 0.10948 0.0
C2759 C 0.04586 0.75911 0.10989 0.0
C2760 C 0.05086 0.79516 0.10815 0.0
C2761 C 0.06941 0.75601 0.111 0.0
C2762 C 0.08364 0.77209 0.11039 0.0
C2763 C 0.08923 0.80739 0.10439 0.0
C2764 C 0.08027 0.82633 0.09954 0.0
C2765 C 0.07468 0.79165 0.10818 0.0
C2766 C 0.05655 0.82994 0.1007 0.0
C2767 C 0.04198 0.81462 0.10529 0.0
H2768 H 0.68499 0.80411 0.43242 0.0
H2769 H 0.69734 0.75488 0.3782 0.0
H2770 H 0.65684 0.75213 0.37616 0.0
H2771 H 0.61865 0.76652 0.38541 0.0
H2772 H 0.60507 0.81809 0.43641 0.0
H2773 H 0.64505 0.81683 0.44452 0.0
C2774 C 0.67865 0.79269 0.42043 0.0
C2775 C 0.69398 0.7799 0.40525 0.0
C2776 C 0.65515 0.79168 0.41866 0.0
C2777 C 0.68577 0.76509 0.38979 0.0
C2778 C 0.66263 0.76344 0.38864 0.0
C2779 C 0.62427 0.77738 0.39855 0.0
C2780 C 0.60902 0.79266 0.40985 0.0
C2781 C 0.64725 0.77713 0.40232 0.0
C2782 C 0.61656 0.8063 0.42719 0.0
C2783 C 0.63945 0.80567 0.43174 0.0
H2784 H 0.35259 0.34201 0.63705 0.0
H2785 H 0.41418 0.33727 0.5909 0.0
H2786 H 0.40018 0.30877 0.56793 0.0
H2787 H 0.3707 0.2851 0.56079 0.0
H2788 H 0.3092 0.28887 0.60693 0.0
H2789 H 0.3228 0.31791 0.62981 0.0
C2790 C 0.36289 0.33481 0.6219 0.0
C2791 C 0.38453 0.34181 0.61589 0.0
C2792 C 0.35471 0.31828 0.60865 0.0
C2793 C 0.39767 0.33209 0.59626 0.0
C2794 C 0.38961 0.31584 0.58297 0.0
C2795 C 0.36011 0.29232 0.57574 0.0
C2796 C 0.33879 0.28484 0.58196 0.0
C2797 C 0.36818 0.30879 0.58899 0.0
C2798 C 0.32561 0.29429 0.60166 0.0
C2799 C 0.3334 0.31091 0.61477 0.0
H2800 H 1.00056 0.07675 0.85839 0.0
H2801 H 0.04758 0.12367 0.86833 0.0
H2802 H 0.01658 0.14787 0.88276 0.0
H2803 H 0.97539 0.15707 0.89012 0.0
H2804 H 0.92812 0.11067 0.8802 0.0
H2805 H 0.95945 0.08533 0.86912 0.0
C2806 C 1.0041 0.09213 0.86416 0.0
C2807 C 0.02673 0.09798 0.8623 0.0
C2808 C 0.98592 0.10636 0.8727 0.0
C2809 C 0.03061 0.11827 0.86967 0.0
C2810 C 0.01276 0.13237 0.87793 0.0
C2811 C 0.97203 0.1413 0.88622 0.0
C2812 C 0.94941 0.13575 0.88637 0.0
C2813 C 0.99026 0.12674 0.87931 0.0
C2814 C 0.94538 0.11532 0.88054 0.0
C2815 C 0.96333 0.1008 0.87398 0.0
H2816 H 0.36529 0.03611 0.40155 0.0
H2817 H 0.34814 0.09212 0.37328 0.0
H2818 H 0.38841 0.09708 0.36422 0.0
H2819 H 0.42788 0.08589 0.36485 0.0
H2820 H 0.44608 0.02799 0.38829 0.0
H2821 H 0.40574 0.02355 0.39962 0.0
C2822 C 0.37046 0.04944 0.39359 0.0
C2823 C 0.35389 0.06395 0.38845 0.0
C2824 C 0.39366 0.05192 0.38796 0.0
C2825 C 0.36064 0.08088 0.37753 0.0
C2826 C 0.38362 0.08373 0.37244 0.0
C2827 C 0.42323 0.07229 0.37258 0.0
C2828 C 0.44009 0.05745 0.37617 0.0
C2829 C 0.4002 0.06944 0.37775 0.0
C2830 C 0.43348 0.03978 0.38573 0.0
C2831 C 0.41045 0.0372 0.39202 0.0
H2832 H 0.15538 0.12157 0.58506 0.0
H2833 H 0.11758 0.09155 0.53272 0.0
H2834 H 0.101 0.12387 0.52407 0.0
H2835 H 0.09874 0.16006 0.52966 0.0
H2836 H 0.13856 0.19168 0.57862 0.0
H2837 H 0.15252 0.15916 0.59112 0.0
C2838 C 0.14334 0.12225 0.57197 0.0
C2839 C 0.13767 0.10441 0.55941 0.0
C2840 C 0.13407 0.14097 0.56685 0.0
C2841 C 0.12229 0.10523 0.54233 0.0
C2842 C 0.1127 0.12361 0.53751 0.0
C2843 C 0.10993 0.15985 0.54362 0.0
C2844 C 0.11717 0.17796 0.55382 0.0
C2845 C 0.11859 0.14146 0.54954 0.0
C2846 C 0.13246 0.17771 0.57106 0.0
C2847 C 0.14055 0.15921 0.57793 0.0
H2848 H 0.14535 0.82236 0.79903 0.0
H2849 H 0.12408 0.88464 0.79306 0.0
H2850 H 0.09844 0.87385 0.76418 0.0
H2851 H 0.08408 0.84711 0.73885 0.0
H2852 H 0.10284 0.78464 0.74596 0.0
H2853 H 0.12733 0.79515 0.77661 0.0
C2854 C 0.13482 0.83358 0.79176 0.0
C2855 C 0.13708 0.85433 0.79787 0.0
C2856 C 0.11988 0.82726 0.77527 0.0
C2857 C 0.12324 0.86861 0.78819 0.0
C2858 C 0.10848 0.86246 0.77175 0.0
C2859 C 0.09354 0.83576 0.7471 0.0
C2860 C 0.09217 0.81516 0.73988 0.0
C2861 C 0.10711 0.84189 0.76478 0.0
C2862 C 0.10393 0.8006 0.75112 0.0
C2863 C 0.11788 0.80661 0.76858 0.0
H2864 H 0.42848 0.91674 0.05627 0.0
H2865 H 0.36221 0.8933 0.0497 0.0
H2866 H 0.35157 0.9027 0.09027 0.0
H2867 H 0.36018 0.91619 0.12894 0.0
H2868 H 0.4238 0.94302 0.13785 0.0
H2869 H 0.43571 0.93427 0.09607 0.0
C2870 C 0.41157 0.91405 0.06352 0.0
C2871 C 0.39654 0.9038 0.04901 0.0
C2872 C 0.4048 0.92012 0.08785 0.0
C2873 C 0.3747 0.90068 0.0596 0.0
C2874 C 0.36832 0.90613 0.08323 0.0
C2875 C 0.37666 0.9203 0.12183 0.0
C2876 C 0.39103 0.93017 0.13696 0.0
C2877 C 0.3832 0.91557 0.09767 0.0
C2878 C 0.41221 0.93545 0.12694 0.0
C2879 C 0.41908 0.93033 0.10287 0.0
H2880 H 0.49367 0.85712 0.35408 0.0
H2881 H 0.48135 0.79592 0.32899 0.0
H2882 H 0.4533 0.80852 0.30429 0.0
H2883 H 0.43349 0.8368 0.28875 0.0
H2884 H 0.44795 0.89805 0.31158 0.0
H2885 H 0.47351 0.8855 0.33871 0.0
C2886 C 0.48463 0.84654 0.34341 0.0
C2887 C 0.48952 0.82562 0.34335 0.0
C2888 C 0.46891 0.85388 0.32888 0.0
C2889 C 0.47792 0.81209 0.32924 0.0
C2890 C 0.46189 0.81928 0.31514 0.0
C2891 C 0.44234 0.84745 0.2995 0.0
C2892 C 0.43881 0.86836 0.29796 0.0
C2893 C 0.45751 0.84014 0.31457 0.0
C2894 C 0.45005 0.88189 0.31252 0.0
C2895 C 0.46485 0.87473 0.32793 0.0
H2896 H 0.319 0.15079 0.53159 0.0
H2897 H 0.30449 0.18639 0.47532 0.0
H2898 H 0.29899 0.15582 0.45038 0.0
H2899 H 0.29923 0.11883 0.44381 0.0
H2900 H 0.31699 0.08248 0.49829 0.0
H2901 H 0.32029 0.11313 0.52445 0.0
C2902 C 0.31449 0.15179 0.51393 0.0
C2903 C 0.31209 0.17092 0.50539 0.0
C2904 C 0.31205 0.13392 0.49923 0.0
C2905 C 0.30653 0.17191 0.48233 0.0
C2906 C 0.30336 0.1544 0.46801 0.0
C2907 C 0.30377 0.11761 0.46144 0.0
C2908 C 0.30783 0.09836 0.46906 0.0
C2909 C 0.30624 0.13531 0.47616 0.0
C2910 C 0.31394 0.09709 0.4919 0.0
C2911 C 0.31575 0.11465 0.50691 0.0
H2912 H 0.17388 0.05829 0.6818 0.0
H2913 H 0.17292 0.99385 0.6837 0.0
H2914 H 0.15224 0.99858 0.72261 0.0
H2915 H 0.13168 0.02147 0.7548 0.0
H2916 H 0.1349 0.08601 0.75293 0.0
H2917 H 0.15756 0.08086 0.71566 0.0
C2918 C 0.16962 0.04533 0.69106 0.0
C2919 C 0.17503 0.02579 0.68017 0.0
C2920 C 0.15787 0.04821 0.71336 0.0
C2921 C 0.16923 1.00904 0.69205 0.0
C2922 C 0.15721 0.01176 0.71416 0.0
C2923 C 0.13748 0.03437 0.74628 0.0
C2924 C 0.13127 0.0541 0.75659 0.0
C2925 C 0.15096 0.03132 0.7248 0.0
C2926 C 0.13925 0.07064 0.74545 0.0
C2927 C 0.15223 0.06775 0.72404 0.0
H2928 H 0.12516 0.9209 1.00846 0.0
H2929 H 0.18659 0.90591 0.04004 0.0
H2930 H 0.20935 0.91601 1.00631 0.0
H2931 H 0.21146 0.92225 0.96465 0.0
H2932 H 0.14955 0.93483 0.93286 0.0
H2933 H 0.12732 0.93258 0.96983 0.0
C2934 C 0.14352 0.92032 1.00829 0.0
C2935 C 0.15414 0.91211 0.02641 0.0
C2936 C 0.15644 0.92537 0.98853 0.0
C2937 C 0.17793 0.91197 0.02618 0.0
C2938 C 0.191 0.91753 1.00676 0.0
C2939 C 0.19317 0.92511 0.9661 0.0
C2940 C 0.18202 0.92842 0.94615 0.0
C2941 C 0.18042 0.9232 0.98731 0.0
C2942 C 0.15836 0.932 0.94804 0.0
C2943 C 0.14566 0.9307 0.96913 0.0
H2944 H 0.35179 0.37537 0.12497 0.0
H2945 H 0.34155 0.38145 0.0528 0.0
H2946 H 0.35827 0.3473 0.04195 0.0
H2947 H 0.37355 0.31499 0.05328 0.0
H2948 H 0.38137 0.30818 0.12571 0.0
H2949 H 0.36713 0.34324 0.13626 0.0
C2950 C 0.35301 0.36922 0.10688 0.0
C2951 C 0.34526 0.381 0.08979 0.0
C2952 C 0.36188 0.34935 0.10086 0.0
C2953 C 0.34761 0.37289 0.06633 0.0
C2954 C 0.35694 0.35326 0.06012 0.0
C2955 C 0.3721 0.32121 0.07138 0.0
C2956 C 0.37823 0.30908 0.08878 0.0
C2957 C 0.36377 0.34126 0.07729 0.0
C2958 C 0.37647 0.31725 0.1121 0.0
C2959 C 0.36844 0.33728 0.11811 0.0
H2960 H 0.6855 0.15295 0.84584 0.0
H2961 H 0.71153 0.13558 0.77431 0.0
H2962 H 0.74966 0.13187 0.78609 0.0
H2963 H 0.77565 0.13398 0.81595 0.0
H2964 H 0.75194 0.15746 0.88617 0.0
H2965 H 0.71254 0.15654 0.87613 0.0
C2966 C 0.6996 0.14893 0.83276 0.0
C2967 C 0.69562 0.14467 0.80922 0.0
C2968 C 0.72171 0.14708 0.83955 0.0
C2969 C 0.71405 0.1392 0.79251 0.0
C2970 C 0.73586 0.1367 0.79924 0.0
C2971 C 0.76186 0.13906 0.82906 0.0
C2972 C 0.76661 0.14646 0.85144 0.0
C2973 C 0.7398 0.14053 0.82264 0.0
C2974 C 0.74865 0.1519 0.86867 0.0
C2975 C 0.7262 0.15178 0.86282 0.0
H2976 H 0.11574 0.65014 0.05457 0.0
H2977 H 0.07592 0.60981 0.09382 0.0
H2978 H 0.11008 0.59159 0.102 0.0
H2979 H 0.14945 0.58291 0.09202 0.0
H2980 H 0.18885 0.61688 0.04487 0.0
H2981 H 0.1568 0.64202 0.0459 0.0
C2982 C 0.11449 0.63725 0.0647 0.0
C2983 C 0.09316 0.63144 0.07348 0.0
C2984 C 0.13419 0.62574 0.06796 0.0
C2985 C 0.09199 0.61502 0.08717 0.0
C2986 C 0.11156 0.60442 0.09177 0.0
C2987 C 0.15141 0.59623 0.08267 0.0
C2988 C 0.17131 0.59819 0.0684 0.0
C2989 C 0.13255 0.6092 0.08157 0.0
C2990 C 0.17354 0.61524 0.056 0.0
C2991 C 0.15518 0.62936 0.05635 0.0
H2992 H 0.82422 0.87278 0.33168 0.0
H2993 H 0.7526 0.87739 0.35387 0.0
H2994 H 0.75052 0.91303 0.34665 0.0
H2995 H 0.76985 0.94374 0.3369 0.0
H2996 H 0.8419 0.93914 0.31751 0.0
H2997 H 0.84307 0.90275 0.32069 0.0
C2998 C 0.80816 0.88158 0.335 0.0
C2999 C 0.78865 0.87241 0.34337 0.0
C3000 C 0.80716 0.90211 0.33119 0.0
C3001 C 0.76787 0.88399 0.34718 0.0
C3002 C 0.76667 0.90442 0.34317 0.0
C3003 C 0.78559 0.93458 0.33278 0.0
C3004 C 0.80569 0.94385 0.32663 0.0
C3005 C 0.78626 0.91373 0.33542 0.0
C3006 C 0.8262 0.93211 0.32198 0.0
C3007 C 0.82691 0.91138 0.32396 0.0
H3008 H 0.91678 1.00483 0.0689 0.0
H3009 H 0.91339 0.02846 0.14107 0.0
H3010 H 0.88194 0.05229 0.13477 0.0
H3011 H 0.85235 0.06258 0.11016 0.0
H3012 H 0.85361 0.03613 0.03899 0.0
H3013 H 0.88856 0.0163 0.04383 0.0
C3014 C 0.90962 0.01567 0.0831 0.0
C3015 C 0.91742 0.015 0.10539 0.0
C3016 C 0.89059 0.02805 0.07975 0.0
C3017 C 0.90798 0.02896 0.12368 0.0
C3018 C 0.88966 0.04221 0.12017 0.0
C3019 C 0.86025 0.05254 0.0956 0.0
C3020 C 0.85024 0.05072 0.0742 0.0
C3021 C 0.88025 0.04121 0.09855 0.0
C3022 C 0.86074 0.03759 0.05567 0.0
C3023 C 0.88085 0.02645 0.05837 0.0
H3024 H 0.26297 0.62608 0.56331 0.0
H3025 H 0.23716 0.62342 0.63478 0.0
H3026 H 0.19852 0.63132 0.62469 0.0
H3027 H 0.17163 0.63552 0.59459 0.0
H3028 H 0.19763 0.64124 0.52395 0.0
H3029 H 0.23664 0.63584 0.5345 0.0
C3030 C 0.24892 0.62767 0.57675 0.0
C3031 C 0.25288 0.62404 0.59976 0.0
C3032 C 0.22679 0.63255 0.57085 0.0
C3033 C 0.23457 0.62626 0.61701 0.0
C3034 C 0.21245 0.6306 0.61119 0.0
C3035 C 0.18591 0.63584 0.58163 0.0
C3036 C 0.18188 0.63855 0.55844 0.0
C3037 C 0.20827 0.63322 0.58805 0.0
C3038 C 0.20042 0.63925 0.54186 0.0
C3039 C 0.22268 0.63604 0.54791 0.0
H3040 H 0.09944 0.51549 0.19211 0.0
H3041 H 0.06114 0.48802 0.24624 0.0
H3042 H 0.07136 0.51409 0.27543 0.0
H3043 H 0.09548 0.54185 0.28595 0.0
H3044 H 0.13211 0.57054 0.23156 0.0
H3045 H 0.11766 0.54736 0.20202 0.0
C3046 C 0.0931 0.51553 0.21026 0.0
C3047 C 0.07999 0.49987 0.21727 0.0
C3048 C 0.09864 0.53079 0.22684 0.0
C3049 C 0.07142 0.50001 0.24065 0.0
C3050 C 0.07726 0.51485 0.2573 0.0
C3051 C 0.09968 0.54341 0.26761 0.0
C3052 C 0.11503 0.55765 0.26097 0.0
C3053 C 0.09143 0.52996 0.25069 0.0
C3054 C 0.12027 0.55968 0.23715 0.0
C3055 C 0.11225 0.54626 0.22021 0.0
H3056 H 0.38678 0.63774 0.85936 0.0
H3057 H 0.43688 0.59408 0.82334 0.0
H3058 H 0.41161 0.56684 0.83014 0.0
H3059 H 0.37831 0.55531 0.85196 0.0
H3060 H 0.32771 0.5986 0.88769 0.0
H3061 H 0.35033 0.62649 0.87571 0.0
C3062 C 0.39177 0.62229 0.85248 0.0
C3063 C 0.41356 0.61764 0.84123 0.0
C3064 C 0.37748 0.6068 0.85705 0.0
C3065 C 0.42007 0.5978 0.83204 0.0
C3066 C 0.40581 0.58227 0.83621 0.0
C3067 C 0.37229 0.57091 0.85701 0.0
C3068 C 0.35203 0.57522 0.87129 0.0
C3069 C 0.38504 0.58656 0.84969 0.0
C3070 C 0.34368 0.59523 0.87715 0.0
C3071 C 0.35649 0.61104 0.87021 0.0
H3072 H 0.93988 0.69699 0.62396 0.0
H3073 H 0.95353 0.63514 0.59535 0.0
H3074 H 0.95607 0.6245 0.63465 0.0
H3075 H 0.94815 0.63245 0.67686 0.0
H3076 H 0.93142 0.69391 0.70543 0.0
H3077 H 0.93621 0.70544 0.66628 0.0
C3078 C 0.94403 0.68131 0.62648 0.0
C3079 C 0.94665 0.66675 0.6073 0.0
C3080 C 0.9445 0.67537 0.64894 0.0
C3081 C 0.95167 0.64641 0.61022 0.0
C3082 C 0.95292 0.6404 0.63255 0.0
C3083 C 0.94628 0.64841 0.67439 0.0
C3084 C 0.93969 0.66249 0.6935 0.0
C3085 C 0.94848 0.65466 0.65201 0.0
C3086 C 0.93664 0.68305 0.69062 0.0
C3087 C 0.93931 0.68954 0.66838 0.0
H3088 H 0.08269 0.21743 0.38958 0.0
H3089 H 0.08933 0.27904 0.3733 0.0
H3090 H 0.06947 0.27244 0.33859 0.0
H3091 H 0.05007 0.24937 0.3123 0.0
H3092 H 0.0432 0.18768 0.3281 0.0
H3093 H 0.06308 0.19416 0.363 0.0
C3094 C 0.07972 0.22941 0.37849 0.0
C3095 C 0.08767 0.2487 0.38425 0.0
C3096 C 0.06823 0.22552 0.35816 0.0
C3097 C 0.08361 0.26399 0.36948 0.0
C3098 C 0.07218 0.26026 0.34947 0.0
C3099 C 0.05303 0.23726 0.32324 0.0
C3100 C 0.04513 0.21802 0.31725 0.0
C3101 C 0.06448 0.24108 0.34353 0.0
C3102 C 0.04908 0.20266 0.33198 0.0
C3103 C 0.06046 0.20635 0.35211 0.0
H3104 H 0.56041 0.25755 0.21192 0.0
H3105 H 0.61047 0.29953 0.19422 0.0
H3106 H 0.62917 0.27476 0.16399 0.0
H3107 H 0.62516 0.24468 0.13698 0.0
H3108 H 0.57308 0.20385 0.15408 0.0
H3109 H 0.56135 0.2245 0.19 0.0
C3110 C 0.57614 0.26074 0.2023 0.0
C3111 C 0.5842 0.28003 0.20498 0.0
C3112 C 0.58587 0.24693 0.18417 0.0
C3113 C 0.60424 0.28449 0.19225 0.0
C3114 C 0.61465 0.2705 0.17475 0.0
C3115 C 0.61155 0.24016 0.14879 0.0
C3116 C 0.59946 0.22329 0.14241 0.0
C3117 C 0.60463 0.25222 0.16953 0.0
C3118 C 0.58219 0.21726 0.15812 0.0
C3119 C 0.57552 0.22893 0.17886 0.0
H3120 H 0.49311 0.94629 0.85345 0.0
H3121 H 0.51434 0.88278 0.84672 0.0
H3122 H 0.53363 0.88606 0.80859 0.0
H3123 H 0.54521 0.90675 0.77672 0.0
H3124 H 0.52319 0.96994 0.78236 0.0
H3125 H 0.50332 0.96674 0.8206 0.0
C3126 C 0.50168 0.93302 0.84367 0.0
C3127 C 0.50223 0.9143 0.85377 0.0
C3128 C 0.51269 0.9349 0.82116 0.0
C3129 C 0.51384 0.89755 0.84029 0.0
C3130 C 0.52483 0.89935 0.81813 0.0
C3131 C 0.53601 0.91989 0.78619 0.0
C3132 C 0.53589 0.93865 0.77632 0.0
C3133 C 0.52453 0.91794 0.80838 0.0
C3134 C 0.52366 0.9553 0.78916 0.0
C3135 C 0.5123 0.95347 0.81121 0.0
H3136 H 0.96383 0.21321 0.89448 0.0
H3137 H 0.8992 0.24168 0.88305 0.0
H3138 H 0.91793 0.27197 0.87238 0.0
H3139 H 0.95241 0.29148 0.87 0.0
H3140 H 0.01735 0.26222 0.87846 0.0
H3141 H 0.99899 0.23093 0.88617 0.0
C3142 C 0.95393 0.226 0.88941 0.0
C3143 C 0.93013 0.22541 0.88992 0.0
C3144 C 0.96491 0.24314 0.88271 0.0
C3145 C 0.9175 0.24186 0.8829 0.0
C3146 C 0.9282 0.25918 0.87686 0.0
C3147 C 0.96253 0.27805 0.87294 0.0
C3148 C 0.98616 0.279 0.87359 0.0
C3149 C 0.95184 0.26014 0.87716 0.0
C3150 C 0.99918 0.26166 0.87757 0.0
C3151 C 0.98864 0.24388 0.88221 0.0
H3152 H 0.45872 0.19957 0.58723 0.0
H3153 H 0.43624 0.2392 0.64906 0.0
H3154 H 0.39973 0.24546 0.63402 0.0
H3155 H 0.37253 0.23781 0.60516 0.0
H3156 H 0.39371 0.19939 0.5425 0.0
H3157 H 0.43206 0.19485 0.55566 0.0
C3158 C 0.44592 0.20971 0.59734 0.0
C3159 C 0.45052 0.21867 0.61959 0.0
C3160 C 0.42453 0.21354 0.58837 0.0
C3161 C 0.43353 0.2319 0.6321 0.0
C3162 C 0.41245 0.23555 0.62348 0.0
C3163 C 0.38571 0.22884 0.59407 0.0
C3164 C 0.38023 0.21912 0.57273 0.0
C3165 C 0.40759 0.22623 0.60187 0.0
C3166 C 0.39749 0.20737 0.55875 0.0
C3167 C 0.41938 0.20458 0.56649 0.0
H3168 H 0.69779 0.72995 0.41202 0.0
H3169 H 0.7626 0.70219 0.38258 0.0
H3170 H 0.74526 0.6694 0.37743 0.0
H3171 H 0.71237 0.64887 0.38445 0.0
H3172 H 0.64938 0.67717 0.41829 0.0
H3173 H 0.66578 0.71008 0.41922 0.0
C3174 C 0.70826 0.71681 0.40427 0.0
C3175 C 0.73151 0.7183 0.39788 0.0
C3176 C 0.69864 0.69828 0.40277 0.0
C3177 C 0.74465 0.70129 0.3875 0.0
C3178 C 0.73482 0.68262 0.38492 0.0
C3179 C 0.7024 0.6622 0.39245 0.0
C3180 C 0.67981 0.6607 0.40152 0.0
C3181 C 0.71202 0.68092 0.3932 0.0
C3182 C 0.66679 0.67807 0.41123 0.0
C3183 C 0.67611 0.6968 0.41168 0.0
H3184 H 0.08694 0.9351 0.11107 0.0
H3185 H 0.06107 0.88814 0.06631 0.0
H3186 H 0.02386 0.90648 0.06955 0.0
H3187 H 0.99809 0.93416 0.08833 0.0
H3188 H 0.02381 0.98141 0.13327 0.0
H3189 H 0.06198 0.96508 0.12619 0.0
C3190 C 0.07319 0.92911 0.10181 0.0
C3191 C 0.07643 0.9103 0.08856 0.0
C3192 C 0.05197 0.93984 0.10374 0.0
C3193 C 0.05872 0.90265 0.07645 0.0
C3194 C 0.03753 0.9131 0.07841 0.0
C3195 C 0.01212 0.94111 0.09624 0.0
C3196 C 0.00809 0.95885 0.11149 0.0
C3197 C 0.03386 0.93149 0.09242 0.0
C3198 C 0.02646 0.96778 0.12142 0.0
C3199 C 0.04825 0.95834 0.11757 0.0
H3200 H 0.70819 0.9527 0.61776 0.0
H3201 H 0.66849 0.95626 0.55911 0.0
H3202 H 0.63335 0.95903 0.58529 0.0
H3203 H 0.61358 0.95818 0.62545 0.0
H3204 H 0.65468 0.95448 0.68324 0.0
H3205 H 0.68911 0.95426 0.65717 0.0
C3206 C 0.69185 0.95415 0.61068 0.0
C3207 C 0.69107 0.95425 0.58642 0.0
C3208 C 0.67174 0.95577 0.62588 0.0
C3209 C 0.66968 0.95632 0.57767 0.0
C3210 C 0.64952 0.95782 0.59271 0.0
C3211 C 0.63005 0.95781 0.63233 0.0
C3212 C 0.63137 0.95646 0.65646 0.0
C3213 C 0.65024 0.95736 0.61694 0.0
C3214 C 0.65302 0.95558 0.66487 0.0
C3215 C 0.67284 0.95534 0.64992 0.0
H3216 H 0.94737 0.85507 0.38707 0.0
H3217 H 0.88117 0.83916 0.41411 0.0
H3218 H 0.86414 0.87042 0.40216 0.0
H3219 H 0.86941 0.90449 0.39003 0.0
H3220 H 0.93598 0.92046 0.36441 0.0
H3221 H 0.95158 0.88654 0.36922 0.0
C3222 C 0.92911 0.85804 0.38962 0.0
C3223 C 0.91557 0.84506 0.40179 0.0
C3224 C 0.91962 0.87614 0.38326 0.0
C3225 C 0.89196 0.8492 0.40515 0.0
C3226 C 0.88225 0.86705 0.39838 0.0
C3227 C 0.88727 0.90037 0.38525 0.0
C3228 C 0.90172 0.91489 0.3774 0.0
C3229 C 0.89613 0.88104 0.38847 0.0
C3230 C 0.92467 0.90945 0.37066 0.0
C3231 C 0.93357 0.89014 0.37349 0.0
H3232 H 0.91012 0.17566 0.14539 0.0
H3233 H 0.87061 0.15565 0.20427 0.0
H3234 H 0.89614 0.17084 0.23065 0.0
H3235 H 0.93083 0.18763 0.23706 0.0
H3236 H 0.97121 0.20824 0.17949 0.0
H3237 H 0.94402 0.19542 0.1525 0.0
C3238 C 0.90705 0.17482 0.16401 0.0
C3239 C 0.88878 0.16408 0.17279 0.0
C3240 C 0.92186 0.18376 0.17928 0.0
C3241 C 0.88492 0.16325 0.19698 0.0
C3242 C 0.89938 0.17209 0.21213 0.0
C3243 C 0.93344 0.18962 0.21862 0.0
C3244 C 0.95278 0.19885 0.21015 0.0
C3245 C 0.91806 0.18203 0.20346 0.0
C3246 C 0.95615 0.2014 0.18633 0.0
C3247 C 0.94076 0.19388 0.17095 0.0
H3248 H 0.64102 0.17596 1.00322 0.0
H3249 H 0.58392 0.13874 1.01324 0.0
H3250 H 0.57644 0.14015 0.97258 0.0
H3251 H 0.58463 0.15372 0.93552 0.0
H3252 H 0.64126 0.19115 0.92514 0.0
H3253 H 0.65011 0.18855 0.9655 0.0
C3254 C 0.62732 0.16768 0.99636 0.0
C3255 C 0.61299 0.15723 1.01099 0.0
C3256 C 0.62254 0.16932 0.97346 0.0
C3257 C 0.59518 0.14676 1.00206 0.0
C3258 C 0.5907 0.14783 0.97903 0.0
C3259 C 0.5985 0.16179 0.94235 0.0
C3260 C 0.61185 0.17321 0.92803 0.0
C3261 C 0.60382 0.15961 0.96491 0.0
C3262 C 0.63045 0.18283 0.93642 0.0
C3263 C 0.63568 0.18105 0.95919 0.0
H3264 H 0.56431 0.14905 0.68321 0.0
H3265 H 0.57032 0.21012 0.71338 0.0
H3266 H 0.59648 0.19786 0.73995 0.0
H3267 H 0.61627 0.17007 0.75611 0.0
H3268 H 0.60938 0.10854 0.72845 0.0
H3269 H 0.58532 0.12068 0.69929 0.0
C3270 C 0.57151 0.15969 0.69546 0.0
C3271 C 0.56521 0.18058 0.69619 0.0
C3272 C 0.58645 0.15244 0.71116 0.0
C3273 C 0.57467 0.19403 0.71235 0.0
C3274 C 0.58971 0.18702 0.72761 0.0
C3275 C 0.60976 0.15923 0.74355 0.0
C3276 C 0.61475 0.13838 0.7445 0.0
C3277 C 0.59553 0.16629 0.72735 0.0
C3278 C 0.60602 0.12466 0.72806 0.0
C3279 C 0.59211 0.13163 0.71147 0.0
H3280 H 0.76241 0.90582 0.47798 0.0
H3281 H 0.6903 0.90281 0.49387 0.0
H3282 H 0.69224 0.86807 0.47509 0.0
H3283 H 0.71548 0.83776 0.45879 0.0
H3284 H 0.78764 0.84093 0.44303 0.0
H3285 H 0.78487 0.87685 0.45745 0.0
C3286 C 0.74709 0.89759 0.47687 0.0
C3287 C 0.7263 0.90633 0.48731 0.0
C3288 C 0.74851 0.87783 0.46657 0.0
C3289 C 0.70639 0.89605 0.48575 0.0
C3290 C 0.70758 0.87627 0.4753 0.0
C3291 C 0.73052 0.84644 0.45844 0.0
C3292 C 0.75179 0.83701 0.45049 0.0
C3293 C 0.72869 0.86686 0.46645 0.0
C3294 C 0.7712 0.84815 0.44937 0.0
C3295 C 0.76959 0.86854 0.45755 0.0
H3296 H 0.84743 0.96517 0.26749 0.0
H3297 H 0.8498 0.02996 0.27604 0.0
H3298 H 0.8629 0.03022 0.23481 0.0
H3299 H 0.87935 0.01144 0.19842 0.0
H3300 H 0.87788 0.94652 0.18967 0.0
H3301 H 0.85803 0.94678 0.22855 0.0
C3302 C 0.85036 0.9793 0.26005 0.0
C3303 C 0.84793 0.99753 0.27449 0.0
C3304 C 0.858 0.97925 0.23636 0.0
C3305 C 0.85166 0.01583 0.26501 0.0
C3306 C 0.85918 0.01595 0.24153 0.0
C3307 C 0.87391 0.99743 0.20473 0.0
C3308 C 0.88007 0.979 0.1913 0.0
C3309 C 0.86316 0.99769 0.22727 0.0
C3310 C 0.87306 0.96091 0.19959 0.0
C3311 C 0.86205 0.96104 0.22198 0.0
H3312 H 0.83755 0.13748 0.94193 0.0
H3313 H 0.90094 0.10556 0.95058 0.0
H3314 H 0.88354 0.09126 0.98478 0.0
H3315 H 0.85365 0.09513 0.01708 0.0
H3316 H 0.79439 0.13459 1.01315 0.0
H3317 H 0.80661 0.13922 0.97255 0.0
C3318 C 0.8473 0.12696 0.95095 0.0
C3319 C 0.87045 0.12285 0.94428 0.0
C3320 C 0.83803 0.1209 0.97196 0.0
C3321 C 0.88302 0.10894 0.95568 0.0
C3322 C 0.8732 0.10108 0.97539 0.0
C3323 C 0.84341 0.10452 1.00705 0.0
C3324 C 0.8236 0.11489 0.01765 0.0
C3325 C 0.85129 0.10816 0.98453 0.0
C3326 C 0.81006 0.12695 1.00505 0.0
C3327 C 0.81694 0.12946 0.98196 0.0
H3328 H 0.62393 0.71596 0.99284 0.0
H3329 H 0.68065 0.752 1.00683 0.0
H3330 H 0.70637 0.72179 1.00092 0.0
H3331 H 0.71311 0.68527 0.99031 0.0
H3332 H 0.65664 0.64912 0.97551 0.0
H3333 H 0.63058 0.67903 0.98351 0.0
C3334 C 0.64191 0.71715 0.99464 0.0
C3335 C 0.6504 0.73623 0.99999 0.0
C3336 C 0.65671 0.69965 0.99108 0.0
C3337 C 0.67371 0.73753 1.00248 0.0
C3338 C 0.68845 0.72024 0.9991 0.0
C3339 C 0.69512 0.68391 0.98872 0.0
C3340 C 0.68696 0.66488 0.98221 0.0
C3341 C 0.68021 0.70125 0.99309 0.0
C3342 C 0.66347 0.66346 0.98072 0.0
C3343 C 0.64852 0.68062 0.98513 0.0
H3344 H 0.29099 0.93378 0.21244 0.0
H3345 H 0.32194 0.9487 0.14645 0.0
H3346 H 0.28724 0.94173 0.12808 0.0
H3347 H 0.24943 0.92861 0.13004 0.0
H3348 H 0.21798 0.91361 0.19568 0.0
H3349 H 0.25109 0.9243 0.21524 0.0
C3350 C 0.28999 0.93552 0.19408 0.0
C3351 C 0.30892 0.94139 0.18068 0.0
C3352 C 0.26986 0.93177 0.18369 0.0
C3353 C 0.30749 0.94407 0.15703 0.0
C3354 C 0.2877 0.94013 0.14652 0.0
C3355 C 0.24974 0.92799 0.1487 0.0
C3356 C 0.23162 0.92007 0.1614 0.0
C3357 C 0.26895 0.93363 0.15959 0.0
C3358 C 0.23185 0.91967 0.1856 0.0
C3359 C 0.25086 0.92553 0.19671 0.0
H3360 H 0.88065 0.46761 0.90723 0.0
H3361 H 0.85502 0.44889 0.97363 0.0
H3362 H 0.86307 0.41361 0.95866 0.0
H3363 H 0.88746 0.39015 0.93086 0.0
H3364 H 0.91441 0.41112 0.86612 0.0
H3365 H 0.89291 0.4428 0.8753 0.0
C3366 C 0.87573 0.45604 0.91834 0.0
C3367 C 0.86857 0.46101 0.942 0.0
C3368 C 0.88023 0.43593 0.90969 0.0
C3369 C 0.86202 0.4455 0.95573 0.0
C3370 C 0.86627 0.42529 0.94711 0.0
C3371 C 0.88807 0.40145 0.91847 0.0
C3372 C 0.90393 0.39879 0.89883 0.0
C3373 C 0.87712 0.42051 0.92471 0.0
C3374 C 0.90318 0.41282 0.88198 0.0
C3375 C 0.89111 0.4313 0.88736 0.0
H3376 H 0.26541 0.13473 0.63746 0.0
H3377 H 0.20503 0.14778 0.60322 0.0
H3378 H 0.19383 0.11321 0.60608 0.0
H3379 H 0.20273 0.07905 0.61538 0.0
H3380 H 0.26354 0.06507 0.64856 0.0
H3381 H 0.27292 0.10059 0.64954 0.0
C3382 C 0.24957 0.13007 0.63109 0.0
C3383 C 0.23604 0.14362 0.62006 0.0
C3384 C 0.24347 0.11013 0.63248 0.0
C3385 C 0.21573 0.13746 0.61157 0.0
C3386 C 0.20936 0.11777 0.61321 0.0
C3387 C 0.21804 0.08374 0.62291 0.0
C3388 C 0.23267 0.06948 0.63151 0.0
C3389 C 0.22338 0.10391 0.62311 0.0
C3390 C 0.25212 0.07583 0.64171 0.0
C3391 C 0.25749 0.09607 0.64219 0.0
H3392 H 0.1536 0.02969 0.82833 0.0
H3393 H 0.08977 0.01649 0.86341 0.0
H3394 H 0.10804 0.98583 0.87659 0.0
H3395 H 0.14385 0.96486 0.8813 0.0
H3396 H 0.20674 0.97966 0.84547 0.0
H3397 H 0.18727 1.00783 0.82966 0.0
C3398 C 0.14352 0.02005 0.83872 0.0
C3399 C 0.12044 0.02554 0.8452 0.0
C3400 C 0.15414 1.00284 0.84628 0.0
C3401 C 0.10759 0.01266 0.85829 0.0
C3402 C 0.11811 0.99522 0.86592 0.0
C3403 C 0.15303 0.97403 0.86959 0.0
C3404 C 0.17667 0.97014 0.86427 0.0
C3405 C 0.14159 0.99042 0.8605 0.0
C3406 C 0.18855 0.98225 0.84945 0.0
C3407 C 0.17744 0.99841 0.84052 0.0
H3408 H 0.80242 0.37246 0.44947 0.0
H3409 H 0.81235 0.41656 0.39992 0.0
H3410 H 0.84991 0.40101 0.3866 0.0
H3411 H 0.88023 0.3761 0.39038 0.0
H3412 H 0.87079 0.33081 0.43837 0.0
H3413 H 0.83232 0.34522 0.45087 0.0
C3414 C 0.81305 0.37856 0.43591 0.0
C3415 C 0.80538 0.39565 0.42587 0.0
C3416 C 0.83435 0.36929 0.42803 0.0
C3417 C 0.81854 0.40348 0.40794 0.0
C3418 C 0.8398 0.39459 0.40028 0.0
C3419 C 0.8696 0.36928 0.40338 0.0
C3420 C 0.8781 0.35276 0.41381 0.0
C3421 C 0.84789 0.37764 0.41034 0.0
C3422 C 0.86433 0.34368 0.43032 0.0
C3423 C 0.84252 0.35199 0.43755 0.0
H3424 H 0.93732 0.5132 0.79277 0.0
H3425 H 0.951 0.53913 0.7279 0.0
H3426 H 0.95109 0.50571 0.70627 0.0
H3427 H 0.94127 0.47017 0.70598 0.0
H3428 H 0.9278 0.44443 0.77102 0.0
H3429 H 0.93487 0.4764 0.7927 0.0
C3430 C 0.94046 0.51134 0.77393 0.0
C3431 C 0.94337 0.52826 0.76165 0.0
C3432 C 0.94096 0.49214 0.7618 0.0
C3433 C 0.94809 0.52604 0.73739 0.0
C3434 C 0.94835 0.50702 0.72511 0.0
C3435 C 0.94095 0.47143 0.72484 0.0
C3436 C 0.93406 0.45532 0.73707 0.0
C3437 C 0.94409 0.49005 0.73711 0.0
C3438 C 0.93327 0.45687 0.76147 0.0
C3439 C 0.93691 0.47517 0.77382 0.0
H3440 H 0.70025 0.45477 0.20174 0.0
H3441 H 0.69197 0.4469 0.12813 0.0
H3442 H 0.66376 0.42208 0.13488 0.0
H3443 H 0.63849 0.4055 0.16202 0.0
H3444 H 0.64587 0.41395 0.23579 0.0
H3445 H 0.6772 0.43576 0.22865 0.0
C3446 C 0.69271 0.44724 0.1871 0.0
C3447 C 0.69828 0.45268 0.16443 0.0
C3448 C 0.67598 0.43337 0.19119 0.0
C3449 C 0.68802 0.443 0.14573 0.0
C3450 C 0.67178 0.42888 0.1496 0.0
C3451 C 0.64724 0.41173 0.17652 0.0
C3452 C 0.63963 0.40819 0.19944 0.0
C3453 C 0.66517 0.42437 0.17231 0.0
C3454 C 0.65106 0.41669 0.218 0.0
C3455 C 0.66908 0.42909 0.21393 0.0
H3456 H 0.5786 0.85227 0.88863 0.0
H3457 H 0.63854 0.88021 0.91062 0.0
H3458 H 0.64641 0.89158 0.8722 0.0
H3459 H 0.63919 0.88972 0.83144 0.0
H3460 H 0.57986 0.86144 0.80851 0.0
H3461 H 0.56932 0.85322 0.84818 0.0
C3462 C 0.59321 0.86106 0.88502 0.0
C3463 C 0.60801 0.86531 0.90229 0.0
C3464 C 0.59813 0.8669 0.86267 0.0
C3465 C 0.6267 0.87697 0.89766 0.0
C3466 C 0.63144 0.88322 0.87561 0.0
C3467 C 0.62376 0.88203 0.83519 0.0
C3468 C 0.6105 0.87591 0.81719 0.0
C3469 C 0.61771 0.87765 0.85786 0.0
C3470 C 0.59065 0.86581 0.82213 0.0
C3471 C 0.58448 0.86132 0.84477 0.0
H3472 H 0.44864 0.26125 0.1323 0.0
H3473 H 0.45653 0.31796 0.10259 0.0
H3474 H 0.47708 0.33033 0.13547 0.0
H3475 H 0.49359 0.32486 0.17238 0.0
H3476 H 0.48585 0.26794 0.20171 0.0
H3477 H 0.46444 0.25603 0.16944 0.0
C3478 C 0.45479 0.27635 0.13298 0.0
C3479 C 0.45099 0.28861 0.11484 0.0
C3480 C 0.46664 0.2834 0.15198 0.0
C3481 C 0.45914 0.30814 0.1162 0.0
C3482 C 0.47092 0.31525 0.13505 0.0
C3483 C 0.48707 0.3099 0.17187 0.0
C3484 C 0.4914 0.29739 0.18966 0.0
C3485 C 0.47485 0.303 0.15303 0.0
C3486 C 0.48288 0.27798 0.18842 0.0
C3487 C 0.47062 0.2711 0.16988 0.0
H3488 H 0.96143 0.29628 0.36069 0.0
H3489 H 0.90834 0.26268 0.39208 0.0
H3490 H 0.91095 0.23892 0.35695 0.0
H3491 H 0.93146 0.22583 0.31978 0.0
H3492 H 0.98623 0.25832 0.2901 0.0
H3493 H 0.97912 0.28519 0.32194 0.0
C3494 C 0.95044 0.28372 0.35999 0.0
C3495 C 0.93521 0.28077 0.3792 0.0
C3496 C 0.95206 0.27029 0.33995 0.0
C3497 C 0.92054 0.26491 0.37765 0.0
C3498 C 0.92193 0.25147 0.35758 0.0
C3499 C 0.94141 0.2391 0.32002 0.0
C3500 C 0.95934 0.24023 0.30286 0.0
C3501 C 0.93802 0.25378 0.33893 0.0
C3502 C 0.97215 0.25737 0.30304 0.0
C3503 C 0.96835 0.2725 0.32144 0.0
H3504 H 0.06076 0.58848 0.66099 0.0
H3505 H 0.0092 0.63338 0.64797 0.0
H3506 H 0.98822 0.6286 0.68477 0.0
H3507 H 0.98295 0.61087 0.72008 0.0
H3508 H 0.03355 0.56546 0.73353 0.0
H3509 H 0.0558 0.57102 0.69729 0.0
C3510 C 0.04484 0.59714 0.66601 0.0
C3511 C 0.03698 0.61148 0.65131 0.0
C3512 C 0.03231 0.59408 0.68737 0.0
C3513 C 0.01627 0.62256 0.65871 0.0
C3514 C 1.00395 0.61968 0.6798 0.0
C3515 C 0.99888 0.60218 0.71525 0.0
C3516 C 1.00633 0.58763 0.72979 0.0
C3517 C 0.01165 0.60541 0.69423 0.0
C3518 C 0.02716 0.57669 0.72289 0.0
C3519 C 0.03995 0.57986 0.70203 0.0
H3520 H 0.53511 0.26123 0.62836 0.0
H3521 H 0.59046 0.22442 0.64918 0.0
H3522 H 0.61616 0.25157 0.64391 0.0
H3523 H 0.62388 0.2848 0.62974 0.0
H3524 H 0.56894 0.32034 0.60609 0.0
H3525 H 0.5423 0.29512 0.61635 0.0
C3526 C 0.5527 0.25933 0.63208 0.0
C3527 C 0.56088 0.24083 0.63904 0.0
C3528 C 0.56761 0.27483 0.62833 0.0
C3529 C 0.58379 0.2385 0.64363 0.0
C3530 C 0.59853 0.25402 0.64061 0.0
C3531 C 0.60602 0.28709 0.62717 0.0
C3532 C 0.59844 0.30434 0.61703 0.0
C3533 C 0.5908 0.2721 0.6324 0.0
C3534 C 0.57526 0.30706 0.61364 0.0
C3535 C 0.55997 0.29264 0.6195 0.0
H3536 H 0.08743 0.33804 0.9092 0.0
H3537 H 0.08638 0.27651 0.8787 0.0
H3538 H 0.12178 0.26781 0.8952 0.0
H3539 H 0.15485 0.278 0.91561 0.0
H3540 H 0.1568 0.33916 0.94645 0.0
H3541 H 0.1197 0.3477 0.93247 0.0
C3542 C 0.09482 0.32268 0.90639 0.0
C3543 C 0.08415 0.308 0.89245 0.0
C3544 C 0.11562 0.31774 0.91581 0.0
C3545 C 0.09419 0.28821 0.889 0.0
C3546 C 0.11451 0.28319 0.89849 0.0
C3547 C 0.14698 0.29314 0.91958 0.0
C3548 C 0.15861 0.30789 0.93215 0.0
C3549 C 0.12564 0.29788 0.91149 0.0
C3550 C 0.14815 0.32743 0.93713 0.0
C3551 C 0.12696 0.33234 0.92895 0.0
H3552 H 0.85259 0.8605 0.13343 0.0
H3553 H 0.84255 0.87225 0.06268 0.0
H3554 H 0.81276 0.8484 0.06148 0.0
H3555 H 0.79268 0.82197 0.0788 0.0
H3556 H 0.80645 0.80586 0.14684 0.0
H3557 H 0.8308 0.83448 0.15161 0.0
C3558 C 0.84384 0.85776 0.1178 0.0
C3559 C 0.84958 0.86809 0.09822 0.0
C3560 C 0.82701 0.84375 0.11709 0.0
C3561 C 0.83814 0.86461 0.07805 0.0
C3562 C 0.82111 0.85106 0.07737 0.0
C3563 C 0.80024 0.82538 0.09509 0.0
C3564 C 0.79766 0.81231 0.11263 0.0
C3565 C 0.8156 0.84046 0.09668 0.0
C3566 C 0.8078 0.81624 0.13347 0.0
C3567 C 0.82216 0.83221 0.13587 0.0
H3568 H 0.5593 0.60975 0.39348 0.0
H3569 H 0.53415 0.55637 0.42144 0.0
H3570 H 0.49813 0.57494 0.43514 0.0
H3571 H 0.4721 0.60491 0.43429 0.0
H3572 H 0.49582 0.65635 0.40128 0.0
H3573 H 0.53422 0.64023 0.39475 0.0
C3574 C 0.54615 0.60229 0.40305 0.0
C3575 C 0.54932 0.58171 0.4064 0.0
C3576 C 0.52511 0.6127 0.40967 0.0
C3577 C 0.53206 0.57222 0.41865 0.0
C3578 C 0.51142 0.58278 0.42634 0.0
C3579 C 0.48584 0.61262 0.426 0.0
C3580 C 0.4814 0.63166 0.41817 0.0
C3581 C 0.50748 0.60279 0.42119 0.0
C3582 C 0.49905 0.64158 0.40723 0.0
C3583 C 0.5209 0.63236 0.40348 0.0
H3584 H 0.86966 0.56688 0.92846 0.0
H3585 H 0.81734 0.57783 0.88271 0.0
H3586 H 0.84584 0.5777 0.84991 0.0
H3587 H 0.8854 0.5749 0.83375 0.0
H3588 H 0.93867 0.5615 0.87733 0.0
H3589 H 0.9103 0.56171 0.91107 0.0
C3590 C 0.86458 0.56936 0.91134 0.0
C3591 C 0.84122 0.5727 0.90827 0.0
C3592 C 0.88128 0.56858 0.89201 0.0
C3593 C 0.83504 0.57543 0.88577 0.0
C3594 C 0.85139 0.57529 0.86688 0.0
C3595 C 0.89089 0.57187 0.85059 0.0
C3596 C 0.91427 0.56824 0.8529 0.0
C3597 C 0.87451 0.57188 0.86974 0.0
C3598 C 0.92087 0.56416 0.8749 0.0
C3599 C 0.90459 0.56448 0.89427 0.0
H3600 H 0.63551 0.62069 0.14444 0.0
H3601 H 0.68527 0.61553 0.08504 0.0
H3602 H 0.67299 0.64917 0.07554 0.0
H3603 H 0.64406 0.67674 0.08024 0.0
H3604 H 0.59374 0.68223 0.13931 0.0
H3605 H 0.61044 0.65158 0.15295 0.0
C3606 C 0.64403 0.62719 0.12979 0.0
C3607 C 0.66086 0.6156 0.1151 0.0
C3608 C 0.63657 0.64633 0.12419 0.0
C3609 C 0.67187 0.62409 0.0962 0.0
C3610 C 0.66489 0.64328 0.09081 0.0
C3611 C 0.63714 0.67175 0.09657 0.0
C3612 C 0.61742 0.68159 0.10853 0.0
C3613 C 0.64661 0.6541 0.1041 0.0
C3614 C 0.6086 0.67464 0.12948 0.0
C3615 C 0.61817 0.65716 0.13731 0.0
H3616 H 0.63752 0.34333 0.35211 0.0
H3617 H 0.62655 0.40315 0.33024 0.0
H3618 H 0.59931 0.3906 0.30386 0.0
H3619 H 0.58035 0.36257 0.28558 0.0
H3620 H 0.59015 0.30267 0.30759 0.0
H3621 H 0.61598 0.31546 0.3357 0.0
C3622 C 0.62886 0.3537 0.34191 0.0
C3623 C 0.63428 0.37413 0.34299 0.0
C3624 C 0.61319 0.34637 0.32671 0.0
C3625 C 0.62302 0.3873 0.32945 0.0
C3626 C 0.60741 0.38016 0.31439 0.0
C3627 C 0.58809 0.35222 0.29648 0.0
C3628 C 0.58358 0.3316 0.29423 0.0
C3629 C 0.60273 0.35966 0.31257 0.0
C3630 C 0.59349 0.31857 0.30883 0.0
C3631 C 0.60824 0.32588 0.32491 0.0
H3632 H 0.89471 0.36067 0.49754 0.0
H3633 H 0.96026 0.38389 0.48049 0.0
H3634 H 0.96757 0.38602 0.52152 0.0
H3635 H 0.95705 0.37763 0.56105 0.0
H3636 H 0.89384 0.35004 0.57665 0.0
H3637 H 0.88446 0.35188 0.53651 0.0
C3638 C 0.91055 0.36637 0.50273 0.0
C3639 C 0.92719 0.37159 0.486 0.0
C3640 C 0.91543 0.36586 0.52574 0.0
C3641 C 0.94725 0.37964 0.49312 0.0
C3642 C 0.95162 0.38049 0.51644 0.0
C3643 C 0.94148 0.37162 0.55547 0.0
C3644 C 0.92624 0.36349 0.57139 0.0
C3645 C 0.93626 0.37278 0.53262 0.0
C3646 C 0.9058 0.35622 0.56437 0.0
C3647 C 0.90035 0.3575 0.54165 0.0
H3648 H 0.99513 0.35243 0.78597 0.0
H3649 H 0.9438 0.33405 0.83548 0.0
H3650 H 0.91397 0.34926 0.81437 0.0
H3651 H 0.90248 0.36722 0.78073 0.0
H3652 H 0.95449 0.38886 0.73427 0.0
H3653 H 0.98398 0.37365 0.75548 0.0
C3654 C 0.97742 0.35177 0.79208 0.0
C3655 C 0.97162 0.34169 0.81187 0.0
C3656 C 0.96047 0.36147 0.78053 0.0
C3657 C 0.94861 0.34132 0.81994 0.0
C3658 C 0.93158 0.35016 0.80797 0.0
C3659 C 0.92027 0.36895 0.77566 0.0
C3660 C 0.92632 0.3793 0.7561 0.0
C3661 C 0.93726 0.36027 0.78817 0.0
C3662 C 0.94945 0.38121 0.74948 0.0
C3663 C 0.96632 0.37232 0.76144 0.0
H3664 H 0.78093 0.62227 0.0258 0.0
H3665 H 0.84632 0.63034 0.99017 0.0
H3666 H 0.84685 0.66412 1.01074 0.0
H3667 H 0.82776 0.69157 0.03722 0.0
H3668 H 0.76293 0.68306 0.07392 0.0
H3669 H 0.76322 0.64876 0.05468 0.0
C3670 C 0.79531 0.63146 0.02266 0.0
C3671 C 0.81345 0.62421 1.00647 0.0
C3672 C 0.79558 0.65054 0.03469 0.0
C3673 C 0.83223 0.63584 1.00267 0.0
C3674 C 0.83248 0.65507 1.01432 0.0
C3675 C 0.81375 0.68216 0.04108 0.0
C3676 C 0.79522 0.68974 0.05664 0.0
C3677 C 0.81411 0.66261 0.03013 0.0
C3678 C 0.77734 0.67741 0.06191 0.0
C3679 C 0.77746 0.65791 0.05087 0.0
H3680 H 0.66736 0.54185 0.30151 0.0
H3681 H 0.61985 0.49561 0.28963 0.0
H3682 H 0.63916 0.48567 0.25115 0.0
H3683 H 0.66619 0.49305 0.21918 0.0
H3684 H 0.71327 0.53958 0.23043 0.0
H3685 H 0.69758 0.54639 0.27105 0.0
C3686 C 0.66148 0.52933 0.2907 0.0
C3687 C 0.64196 0.51971 0.29823 0.0
C3688 C 0.67238 0.52395 0.26842 0.0
C3689 C 0.63464 0.50346 0.28408 0.0
C3690 C 0.64563 0.49779 0.26206 0.0
C3691 C 0.67314 0.50452 0.23065 0.0
C3692 C 0.6904 0.51612 0.22192 0.0
C3693 C 0.66394 0.50842 0.25376 0.0
C3694 C 0.69973 0.53064 0.23688 0.0
C3695 C 0.69075 0.53455 0.26003 0.0
H3696 H 0.69565 0.43075 0.49479 0.0
H3697 H 0.75059 0.38623 0.49759 0.0
H3698 H 0.73534 0.37929 0.53663 0.0
H3699 H 0.70282 0.38144 0.56565 0.0
H3700 H 0.64382 0.41992 0.55766 0.0
H3701 H 0.66439 0.43461 0.52542 0.0
C3702 C 0.70447 0.41986 0.50428 0.0
C3703 C 0.72394 0.40882 0.49372 0.0
C3704 C 0.69479 0.41508 0.52573 0.0
C3705 C 0.73534 0.39461 0.50565 0.0
C3706 C 0.72668 0.39074 0.52784 0.0
C3707 C 0.69481 0.39351 0.55735 0.0
C3708 C 0.672 0.39967 0.5638 0.0
C3709 C 0.70589 0.40025 0.53753 0.0
C3710 C 0.6615 0.41516 0.5529 0.0
C3711 C 0.67313 0.4233 0.53434 0.0
H3712 H 0.9014 0.80087 0.54979 0.0
H3713 H 0.89343 0.78944 0.47659 0.0
H3714 H 0.86947 0.82067 0.47777 0.0
H3715 H 0.84947 0.85083 0.5003 0.0
H3716 H 0.85963 0.86274 0.57322 0.0
H3717 H 0.88384 0.83193 0.57146 0.0
C3718 C 0.89446 0.80528 0.5341 0.0
C3719 C 0.89903 0.79278 0.51316 0.0
C3720 C 0.88094 0.82339 0.5349 0.0
C3721 C 0.89009 0.79876 0.49292 0.0
C3722 C 0.87637 0.81664 0.49361 0.0
C3723 C 0.85719 0.84684 0.51573 0.0
C3724 C 0.85222 0.85904 0.53698 0.0
C3725 C 0.87151 0.82906 0.51458 0.0
C3726 C 0.86249 0.85347 0.55676 0.0
C3727 C 0.87653 0.83586 0.55578 0.0
H3728 H 0.22775 0.6178 0.33428 0.0
H3729 H 0.24946 0.55577 0.3122 0.0
H3730 H 0.28583 0.56042 0.32878 0.0
H3731 H 0.31133 0.58238 0.34923 0.0
H3732 H 0.28867 0.64395 0.37319 0.0
H3733 H 0.25235 0.63913 0.35692 0.0
C3734 C 0.24062 0.60544 0.33299 0.0
C3735 C 0.23649 0.58665 0.32175 0.0
C3736 C 0.26099 0.60805 0.34324 0.0
C3737 C 0.25271 0.57043 0.32063 0.0
C3738 C 0.27334 0.57306 0.33016 0.0
C3739 C 0.29836 0.59468 0.35093 0.0
C3740 C 0.30258 0.61349 0.36222 0.0
C3741 C 0.27764 0.59181 0.34149 0.0
C3742 C 0.28563 0.62928 0.3647 0.0
C3743 C 0.265 0.6266 0.35521 0.0
H3744 H 0.61948 0.11401 0.61912 0.0
H3745 H 0.63708 0.14367 0.55758 0.0
H3746 H 0.66555 0.11643 0.54377 0.0
H3747 H 0.67452 0.08008 0.54316 0.0
H3748 H 0.6487 0.0484 0.60091 0.0
H3749 H 0.63548 0.08017 0.6226 0.0
C3750 C 0.6304 0.11484 0.60324 0.0
C3751 C 0.62583 0.13011 0.58883 0.0
C3752 C 0.64486 0.09826 0.59441 0.0
C3753 C 0.64017 0.1317 0.56864 0.0
C3754 C 0.65614 0.11596 0.56059 0.0
C3755 C 0.66621 0.08016 0.5606 0.0
C3756 C 0.66155 0.06183 0.56983 0.0
C3757 C 0.65686 0.09836 0.57225 0.0
C3758 C 0.65213 0.06219 0.59302 0.0
C3759 C 0.64435 0.08042 0.60547 0.0
H3760 H 0.25922 0.39703 0.87555 0.0
H3761 H 0.32811 0.37732 0.88524 0.0
H3762 H 0.34015 0.41153 0.88178 0.0
H3763 H 0.33037 0.44745 0.8795 0.0
H3764 H 0.26186 0.46739 0.86921 0.0
H3765 H 0.25025 0.43249 0.86915 0.0
C3766 C 0.27693 0.40017 0.87648 0.0
C3767 C 0.29274 0.3848 0.88088 0.0
C3768 C 0.28367 0.41988 0.87467 0.0
C3769 C 0.3156 0.38905 0.88226 0.0
C3770 C 0.32248 0.40857 0.8803 0.0
C3771 C 0.31293 0.44407 0.87718 0.0
C3772 C 0.29682 0.45975 0.87478 0.0
C3773 C 0.30654 0.42416 0.87714 0.0
C3774 C 0.27442 0.45538 0.87115 0.0
C3775 C 0.26782 0.43552 0.87122 0.0
H3776 H 0.38254 0.56629 0.65705 0.0
H3777 H 0.37311 0.53788 0.58853 0.0
H3778 H 0.39992 0.51055 0.59369 0.0
H3779 H 0.42257 0.49233 0.61868 0.0
H3780 H 0.43362 0.51885 0.68714 0.0
H3781 H 0.41066 0.54947 0.68065 0.0
C3782 C 0.38678 0.55436 0.6431 0.0
C3783 C 0.37531 0.55415 0.6226 0.0
C3784 C 0.40265 0.53827 0.64608 0.0
C3785 C 0.38119 0.5385 0.60469 0.0
C3786 C 0.39667 0.52273 0.60753 0.0
C3787 C 0.42047 0.50503 0.63199 0.0
C3788 C 0.42966 0.50333 0.65333 0.0
C3789 C 0.40697 0.52215 0.62831 0.0
C3790 C 0.42682 0.51987 0.67045 0.0
C3791 C 0.41344 0.53726 0.66682 0.0
H3792 H 0.7408 0.15256 0.09506 0.0
H3793 H 0.73308 0.11945 0.02869 0.0
H3794 H 0.69294 0.12999 0.032 0.0
H3795 H 0.65929 0.14259 0.05738 0.0
H3796 H 0.66653 0.17731 0.1226 0.0
H3797 H 0.70796 0.17163 0.11653 0.0
C3798 C 0.7304 0.14811 0.08109 0.0
C3799 C 0.73938 0.13461 0.06225 0.0
C3800 C 0.70734 0.1538 0.08332 0.0
C3801 C 0.72623 0.12948 0.04371 0.0
C3802 C 0.70326 0.13526 0.04568 0.0
C3803 C 0.67005 0.14894 0.07012 0.0
C3804 C 0.66044 0.15948 0.09079 0.0
C3805 C 0.6935 0.14627 0.06609 0.0
C3806 C 0.67408 0.16851 0.10693 0.0
C3807 C 0.69757 0.16547 0.10336 0.0
H3808 H 0.58356 1.00322 0.72937 0.0
H3809 H 0.60449 0.97479 0.78889 0.0
H3810 H 0.60709 1.00787 0.81013 0.0
H3811 H 0.6092 0.04447 0.80919 0.0
H3812 H 0.58884 0.07299 0.74975 0.0
H3813 H 0.57908 0.04033 0.73131 0.0
C3814 C 0.5882 1.00431 0.74716 0.0
C3815 C 0.59422 0.98674 0.75749 0.0
C3816 C 0.58947 0.02335 0.75931 0.0
C3817 C 0.6001 0.98821 0.78055 0.0
C3818 C 0.60151 1.00708 0.79271 0.0
C3819 C 0.60161 0.04354 0.79271 0.0
C3820 C 0.59939 0.06083 0.78083 0.0
C3821 C 0.59694 0.02471 0.78198 0.0
C3822 C 0.59016 0.05973 0.75925 0.0
C3823 C 0.58499 0.04106 0.74859 0.0
H3824 H 0.85392 0.07029 0.35617 0.0
H3825 H 0.8276 0.06504 0.28864 0.0
H3826 H 0.85389 0.08957 0.27519 0.0
H3827 H 0.88754 0.10938 0.28131 0.0
H3828 H 0.91389 0.11364 0.34882 0.0
H3829 H 0.88436 0.09271 0.36354 0.0
C3830 C 0.85361 0.07472 0.3386 0.0
C3831 C 0.83903 0.06554 0.32333 0.0
C3832 C 0.86903 0.08851 0.33087 0.0
C3833 C 0.83869 0.07176 0.30076 0.0
C3834 C 0.85387 0.08568 0.29298 0.0
C3835 C 0.88665 0.10583 0.29929 0.0
C3836 C 0.903 0.11293 0.3139 0.0
C3837 C 0.86966 0.09361 0.30764 0.0
C3838 C 0.90146 0.10849 0.33725 0.0
C3839 C 0.88464 0.09642 0.34566 0.0
H3840 H 0.40931 0.15798 0.15548 0.0
H3841 H 0.4647 0.19662 0.16493 0.0
H3842 H 0.47173 0.18201 0.20137 0.0
H3843 H 0.45978 0.16014 0.2316 0.0
H3844 H 0.40212 0.12383 0.22301 0.0
H3845 H 0.39824 0.13558 0.18472 0.0
C3846 C 0.42327 0.16278 0.16529 0.0
C3847 C 0.43673 0.17798 0.15776 0.0
C3848 C 0.42649 0.15499 0.18633 0.0
C3849 C 0.45438 0.1847 0.17064 0.0
C3850 C 0.45824 0.17649 0.19138 0.0
C3851 C 0.44633 0.15492 0.22132 0.0
C3852 C 0.43111 0.14134 0.22996 0.0
C3853 C 0.44399 0.16199 0.19964 0.0
C3854 C 0.41403 0.13426 0.21649 0.0
C3855 C 0.41179 0.14097 0.19472 0.0
H3856 H 0.58023 0.7758 0.92932 0.0
H3857 H 0.56219 0.72184 0.96119 0.0
H3858 H 0.54948 0.70753 0.92473 0.0
H3859 H 0.54187 0.71072 0.88479 0.0
H3860 H 0.55767 0.76493 0.85247 0.0
H3861 H 0.57361 0.77847 0.88803 0.0
C3862 C 0.57356 0.7609 0.92826 0.0
C3863 C 0.57208 0.74998 0.94804 0.0
C3864 C 0.56614 0.7527 0.90715 0.0
C3865 C 0.56348 0.73065 0.94633 0.0
C3866 C 0.55625 0.72239 0.92544 0.0
C3867 C 0.54902 0.72543 0.88526 0.0
C3868 C 0.54847 0.73681 0.86595 0.0
C3869 C 0.55736 0.73333 0.90585 0.0
C3870 C 0.55792 0.7558 0.86704 0.0
C3871 C 0.56685 0.76362 0.88744 0.0
H3872 H 0.07931 0.69563 0.59354 0.0
H3873 H 0.14936 0.71105 0.59072 0.0
H3874 H 0.14015 0.73749 0.62248 0.0
H3875 H 0.11218 0.75777 0.64974 0.0
H3876 H 0.0417 0.74407 0.65206 0.0
H3877 H 0.05108 0.71559 0.62224 0.0
C3878 C 0.09259 0.70461 0.60007 0.0
C3879 C 0.11507 0.7012 0.58958 0.0
C3880 C 0.08709 0.72026 0.61833 0.0
C3881 C 0.13193 0.71325 0.59823 0.0
C3882 C 0.12669 0.72845 0.61649 0.0
C3883 C 0.09887 0.7484 0.64402 0.0
C3884 C 0.07626 0.75311 0.65336 0.0
C3885 C 0.10432 0.73229 0.6265 0.0
C3886 C 0.05928 0.74078 0.64543 0.0
C3887 C 0.06463 0.72452 0.62822 0.0
H3888 H 0.97023 0.40768 0.29888 0.0
H3889 H 0.03844 0.39711 0.31831 0.0
H3890 H 0.05304 0.41741 0.28823 0.0
H3891 H 0.04723 0.43606 0.25513 0.0
H3892 H 0.98008 0.44661 0.23354 0.0
H3893 H 0.96409 0.42885 0.26618 0.0
C3894 C 0.98824 0.40998 0.29658 0.0
C3895 C 1.00327 0.4006 0.31059 0.0
C3896 C 0.99667 0.42171 0.27903 0.0
C3897 C 0.02658 0.40372 0.30744 0.0
C3898 C 0.03496 0.41544 0.29036 0.0
C3899 C 0.02899 0.4348 0.25779 0.0
C3900 C 0.01477 0.44265 0.24215 0.0
C3901 C 0.02025 0.4242 0.2759 0.0
C3902 C 0.99125 0.44094 0.24569 0.0
C3903 C 0.98222 0.43056 0.26411 0.0
H3904 H 0.47343 0.77271 0.38793 0.0
H3905 H 0.5371 0.74634 0.40543 0.0
H3906 H 0.51942 0.71462 0.41155 0.0
H3907 H 0.48516 0.69578 0.41572 0.0
H3908 H 0.42124 0.72154 0.39811 0.0
H3909 H 0.43974 0.75211 0.38778 0.0
C3910 C 0.48341 0.7599 0.39283 0.0
C3911 C 0.50646 0.76177 0.39635 0.0
C3912 C 0.47309 0.74173 0.39632 0.0
C3913 C 0.51937 0.74513 0.40249 0.0
C3914 C 0.50924 0.72706 0.4061 0.0
C3915 C 0.47533 0.70799 0.4093 0.0
C3916 C 0.45184 0.70663 0.40793 0.0
C3917 C 0.48603 0.72538 0.40359 0.0
C3918 C 0.43934 0.72232 0.39926 0.0
C3919 C 0.44989 0.73982 0.39356 0.0
H3920 H 0.92834 0.76317 0.12165 0.0
H3921 H 0.94 0.71505 0.06612 0.0
H3922 H 0.8996 0.71696 0.05981 0.0
H3923 H 0.86005 0.72903 0.07423 0.0
H3924 H 0.84932 0.77631 0.13084 0.0
H3925 H 0.89012 0.77805 0.13247 0.0
C3926 C 0.92213 0.75335 0.10786 0.0
C3927 C 0.93706 0.7388 0.09466 0.0
C3928 C 0.8989 0.75415 0.10477 0.0
C3929 C 0.92884 0.72639 0.07659 0.0
C3930 C 0.90568 0.72733 0.07312 0.0
C3931 C 0.86675 0.73984 0.08668 0.0
C3932 C 0.85178 0.75219 0.10278 0.0
C3933 C 0.89039 0.7406 0.08776 0.0
C3934 C 0.86056 0.76633 0.11864 0.0
C3935 C 0.88388 0.76741 0.11954 0.0
H3936 H 0.18185 0.2298 0.95782 0.0
H3937 H 0.22103 0.24335 0.89543 0.0
H3938 H 0.20548 0.21523 0.87323 0.0
H3939 H 0.17951 0.1876 0.87084 0.0
H3940 H 0.14181 0.17232 0.93311 0.0
H3941 H 0.1581 0.20001 0.95601 0.0
C3942 C 0.1872 0.22642 0.93943 0.0
C3943 C 0.20268 0.23874 0.92838 0.0
C3944 C 0.17836 0.20991 0.92668 0.0
C3945 C 0.20937 0.2341 0.90451 0.0
C3946 C 0.20036 0.21804 0.89171 0.0
C3947 C 0.17496 0.19028 0.88946 0.0
C3948 C 0.1593 0.17804 0.90022 0.0
C3949 C 0.18467 0.20599 0.90252 0.0
C3950 C 0.15382 0.18151 0.92442 0.0
C3951 C 0.16308 0.1974 0.93749 0.0
H3952 H 0.50427 0.40929 0.63693 0.0
H3953 H 0.53884 0.46148 0.66209 0.0
H3954 H 0.5753 0.44408 0.64858 0.0
H3955 H 0.59784 0.41313 0.63291 0.0
H3956 H 0.56446 0.36102 0.60647 0.0
H3957 H 0.52725 0.37925 0.61688 0.0
C3958 C 0.51973 0.41702 0.63913 0.0
C3959 C 0.51853 0.43681 0.65074 0.0
C3960 C 0.54097 0.40687 0.63112 0.0
C3961 C 0.53895 0.44637 0.65335 0.0
C3962 C 0.55995 0.43638 0.64565 0.0
C3963 C 0.58241 0.40594 0.62888 0.0
C3964 C 0.58391 0.38583 0.61867 0.0
C3965 C 0.56121 0.41653 0.63495 0.0
C3966 C 0.5638 0.37662 0.6138 0.0
C3967 C 0.54251 0.387 0.62005 0.0
H3968 H 0.11161 0.43956 0.11571 0.0
H3969 H 0.09969 0.50287 0.13963 0.0
H3970 H 0.13972 0.5083 0.12892 0.0
H3971 H 0.17883 0.494 0.11762 0.0
H3972 H 0.19068 0.42983 0.09894 0.0
H3973 H 0.14984 0.4256 0.10353 0.0
C3974 C 0.11759 0.45468 0.11825 0.0
C3975 C 0.10265 0.47079 0.12857 0.0
C3976 C 0.14073 0.45734 0.11368 0.0
C3977 C 0.11072 0.49026 0.13152 0.0
C3978 C 0.13369 0.49328 0.12577 0.0
C3979 C 0.17242 0.4791 0.1145 0.0
C3980 C 0.18766 0.46216 0.10813 0.0
C3981 C 0.14897 0.47676 0.1177 0.0
C3982 C 0.17925 0.44299 0.10407 0.0
C3983 C 0.15593 0.44062 0.10656 0.0
H3984 H 0.40034 0.42422 0.94458 0.0
H3985 H 0.39225 0.40079 0.87417 0.0
H3986 H 0.39615 0.36591 0.88524 0.0
H3987 H 0.40186 0.34251 0.91589 0.0
H3988 H 0.40567 0.36778 0.98674 0.0
H3989 H 0.40303 0.40181 0.97479 0.0
C3990 C 0.39987 0.41137 0.93165 0.0
C3991 C 0.39691 0.41457 0.90863 0.0
C3992 C 0.40084 0.39192 0.93838 0.0
C3993 C 0.39534 0.39824 0.8919 0.0
C3994 C 0.39725 0.37849 0.89829 0.0
C3995 C 0.40162 0.35559 0.92856 0.0
C3996 C 0.40355 0.35298 0.95207 0.0
C3997 C 0.39988 0.37518 0.92159 0.0
C3998 C 0.40362 0.36973 0.96861 0.0
C3999 C 0.40243 0.38909 0.9618 0.0
H4000 H 0.43792 0.68396 0.78801 0.0
H4001 H 0.45355 0.73525 0.7501 0.0
H4002 H 0.43186 0.7219 0.71846 0.0
H4003 H 0.4093 0.69497 0.70126 0.0
H4004 H 0.39468 0.64387 0.73994 0.0
H4005 H 0.41595 0.65759 0.77127 0.0
C4006 C 0.43643 0.69245 0.773 0.0
C4007 C 0.44715 0.71073 0.77159 0.0
C4008 C 0.42454 0.68447 0.75476 0.0
C4009 C 0.44515 0.72132 0.75183 0.0
C4010 C 0.43296 0.71357 0.73363 0.0
C4011 C 0.41074 0.68689 0.71657 0.0
C4012 C 0.40052 0.66832 0.71811 0.0
C4013 C 0.42274 0.69505 0.73484 0.0
C4014 C 0.40275 0.65794 0.738 0.0
C4015 C 0.41467 0.6659 0.7561 0.0
H4016 H 0.12147 0.60243 0.45255 0.0
H4017 H 0.16748 0.65103 0.4513 0.0
H4018 H 0.17745 0.64265 0.41069 0.0
H4019 H 0.17447 0.62242 0.37433 0.0
H4020 H 0.12987 0.5734 0.37152 0.0
H4021 H 0.11866 0.58086 0.4137 0.0
C4022 C 0.13372 0.61115 0.4435 0.0
C4023 C 0.14363 0.62743 0.45626 0.0
C4024 C 0.13995 0.60618 0.41879 0.0
C4025 C 0.15941 0.63829 0.44323 0.0
C4026 C 0.16531 0.63358 0.41943 0.0
C4027 C 0.16223 0.61323 0.38274 0.0
C4028 C 0.15308 0.59736 0.3692 0.0
C4029 C 0.15586 0.61764 0.40696 0.0
C4030 C 0.13728 0.5858 0.38105 0.0
C4031 C 0.13084 0.59013 0.40539 0.0
H4032 H 0.06285 0.71776 0.17464 0.0
H4033 H 0.05011 0.66091 0.13743 0.0
H4034 H 0.07534 0.64302 0.16105 0.0
H4035 H 0.09912 0.64342 0.19413 0.0
H4036 H 0.11163 0.70056 0.23104 0.0
H4037 H 0.08812 0.71835 0.20596 0.0
C4038 C 0.06574 0.70147 0.17154 0.0
C4039 C 0.05472 0.69071 0.15421 0.0
C4040 C 0.08002 0.69129 0.18538 0.0
C4041 C 0.05867 0.6696 0.15042 0.0
C4042 C 0.07295 0.65934 0.16407 0.0
C4043 C 0.097 0.65978 0.19645 0.0
C4044 C 0.10694 0.67058 0.21466 0.0
C4045 C 0.0835 0.67001 0.18182 0.0
C4046 C 0.1038 0.69179 0.21751 0.0
C4047 C 0.09047 0.70203 0.20307 0.0
H4048 H 0.21677 0.35567 0.02556 0.0
H4049 H 0.23421 0.37195 0.95615 0.0
H4050 H 0.23909 0.40683 0.97181 0.0
H4051 H 0.23925 0.43291 1.00585 0.0
H4052 H 0.22507 0.41494 0.07502 0.0
H4053 H 0.21793 0.38091 0.05902 0.0
C4054 C 0.22151 0.36685 1.01379 0.0
C4055 C 0.22492 0.3611 0.98963 0.0
C4056 C 0.22482 0.38677 0.02298 0.0
C4057 C 0.23145 0.37584 0.9748 0.0
C4058 C 0.23421 0.39586 0.98377 0.0
C4059 C 0.23434 0.42155 0.0173 0.0
C4060 C 0.23222 0.4266 0.04164 0.0
C4061 C 0.23101 0.40156 1.00789 0.0
C4062 C 0.22641 0.41158 0.05628 0.0
C4063 C 0.22244 0.39204 0.04712 0.0
H4064 H 0.34782 0.47074 0.81262 0.0
H4065 H 0.35958 0.53427 0.81996 0.0
H4066 H 0.38461 0.53027 0.78373 0.0
H4067 H 0.40548 0.50798 0.75142 0.0
H4068 H 0.39156 0.44478 0.74327 0.0
H4069 H 0.36494 0.44943 0.77801 0.0
C4070 C 0.35551 0.48377 0.806 0.0
C4071 C 0.35192 0.50273 0.81897 0.0
C4072 C 0.36966 0.48138 0.78503 0.0
C4073 C 0.36196 0.51953 0.81023 0.0
C4074 C 0.37642 0.51721 0.78958 0.0
C4075 C 0.39645 0.49528 0.75712 0.0
C4076 C 0.40074 0.47601 0.74478 0.0
C4077 C 0.38078 0.4981 0.77707 0.0
C4078 C 0.38866 0.45978 0.75232 0.0
C4079 C 0.37344 0.46239 0.7723 0.0
H4080 H 0.41303 0.62296 0.5093 0.0
H4081 H 0.3623 0.60975 0.46152 0.0
H4082 H 0.33562 0.60272 0.49416 0.0
H4083 H 0.32576 0.60376 0.53698 0.0
H4084 H 0.37609 0.62059 0.5837 0.0
H4085 H 0.40389 0.62336 0.55068 0.0
C4086 C 0.39633 0.61814 0.50578 0.0
C4087 C 0.3897 0.61685 0.48296 0.0
C4088 C 0.38084 0.61534 0.52457 0.0
C4089 C 0.36788 0.61069 0.47893 0.0
C4090 C 0.35255 0.60694 0.4976 0.0
C4091 C 0.34285 0.60803 0.53969 0.0
C4092 C 0.34908 0.61221 0.56242 0.0
C4093 C 0.35863 0.60985 0.52058 0.0
C4094 C 0.37113 0.61756 0.56616 0.0
C4095 C 0.38698 0.619 0.54737 0.0
H4096 H 0.20797 0.15503 0.38515 0.0
H4097 H 0.17664 0.13948 0.45069 0.0
H4098 H 0.15961 0.17394 0.45907 0.0
H4099 H 0.15395 0.20852 0.44776 0.0
H4100 H 0.18371 0.2234 0.38132 0.0
H4101 H 0.20115 0.18906 0.37324 0.0
C4102 C 0.19715 0.15907 0.40113 0.0
C4103 C 0.19352 0.14468 0.41725 0.0
C4104 C 0.1873 0.17879 0.4057 0.0
C4105 C 0.17986 0.15032 0.4381 0.0
C4106 C 0.17007 0.16998 0.44286 0.0
C4107 C 0.1642 0.20418 0.43149 0.0
C4108 C 0.1676 0.21837 0.4151 0.0
C4109 C 0.17376 0.18435 0.42681 0.0
C4110 C 0.18084 0.21265 0.3941 0.0
C4111 C 0.19079 0.19306 0.38951 0.0
H4112 H 0.76428 0.361 0.68951 0.0
H4113 H 0.78082 0.37967 0.62106 0.0
H4114 H 0.82111 0.38022 0.62844 0.0
H4115 H 0.85071 0.37703 0.65542 0.0
H4116 H 0.83329 0.35904 0.72425 0.0
H4117 H 0.79405 0.35569 0.71532 0.0
C4118 C 0.7768 0.36522 0.67629 0.0
C4119 C 0.76996 0.37056 0.655 0.0
C4120 C 0.79961 0.36512 0.68053 0.0
C4121 C 0.78602 0.37568 0.63765 0.0
C4122 C 0.80891 0.37586 0.64183 0.0
C4123 C 0.8385 0.37172 0.66818 0.0
C4124 C 0.8448 0.36817 0.69044 0.0
C4125 C 0.81585 0.37063 0.66326 0.0
C4126 C 0.82877 0.36166 0.70696 0.0
C4127 C 0.80633 0.36003 0.70199 0.0
H4128 H 0.43153 0.88564 0.49008 0.0
H4129 H 0.43136 0.86209 0.41826 0.0
H4130 H 0.39862 0.88494 0.41365 0.0
H4131 H 0.37522 0.91596 0.42847 0.0
H4132 H 0.37699 0.93971 0.50016 0.0
H4133 H 0.40378 0.91234 0.50658 0.0
C4134 C 0.42383 0.88519 0.47367 0.0
C4135 C 0.4337 0.8726 0.45451 0.0
C4136 C 0.40552 0.89854 0.47109 0.0
C4137 C 0.42379 0.87181 0.43324 0.0
C4138 C 0.40527 0.88495 0.43055 0.0
C4139 C 0.38094 0.91461 0.44564 0.0
C4140 C 0.3743 0.92967 0.46383 0.0
C4141 C 0.3967 0.89902 0.44911 0.0
C4142 C 0.38171 0.92804 0.48604 0.0
C4143 C 0.39721 0.91255 0.48966 0.0
H4144 H 0.71884 0.57978 0.14329 0.0
H4145 H 0.76909 0.57259 0.19236 0.0
H4146 H 0.77649 0.60855 0.19229 0.0
H4147 H 0.76837 0.64205 0.17811 0.0
H4148 H 0.71739 0.64824 0.12962 0.0
H4149 H 0.71049 0.61248 0.12978 0.0
C4150 C 0.73138 0.58596 0.15412 0.0
C4151 C 0.74336 0.57347 0.16787 0.0
C4152 C 0.73534 0.60648 0.15412 0.0
C4153 C 0.75958 0.58188 0.18166 0.0
C4154 C 0.76382 0.60242 0.1816 0.0
C4155 C 0.75579 0.6355 0.1676 0.0
C4156 C 0.74331 0.64777 0.15397 0.0
C4157 C 0.75178 0.61486 0.16788 0.0
C4158 C 0.72695 0.63918 0.14051 0.0
C4159 C 0.72307 0.61872 0.14051 0.0
H4160 H 0.64067 0.535 0.42605 0.0
H4161 H 0.61494 0.48875 0.37973 0.0
H4162 H 0.64064 0.46334 0.39354 0.0
H4163 H 0.67245 0.45512 0.41559 0.0
H4164 H 0.70103 0.50169 0.45926 0.0
H4165 H 0.6718 0.5263 0.44972 0.0
C4166 C 0.64033 0.51929 0.4193 0.0
C4167 C 0.62581 0.51369 0.40193 0.0
C4168 C 0.65577 0.50497 0.42664 0.0
C4169 C 0.62585 0.49336 0.39315 0.0
C4170 C 0.64062 0.4789 0.40095 0.0
C4171 C 0.67234 0.47061 0.4233 0.0
C4172 C 0.68912 0.47655 0.43809 0.0
C4173 C 0.65601 0.48467 0.41721 0.0
C4174 C 0.68837 0.49667 0.4479 0.0
C4175 C 0.67171 0.51075 0.44235 0.0
H4176 H 0.3416 0.88504 0.97287 0.0
H4177 H 0.3794 0.88207 0.9055 0.0
H4178 H 0.34455 0.88779 0.88703 0.0
H4179 H 0.30345 0.8966 0.88984 0.0
H4180 H 0.26521 0.90122 0.95685 0.0
H4181 H 0.29941 0.89133 0.97528 0.0
C4182 C 0.34212 0.88536 0.95414 0.0
C4183 C 0.3633 0.8832 0.94071 0.0
C4184 C 0.32171 0.88883 0.94339 0.0
C4185 C 0.36351 0.88376 0.91641 0.0
C4186 C 0.34349 0.88702 0.90572 0.0
C4187 C 0.30251 0.89483 0.90835 0.0
C4188 C 0.28171 0.89926 0.92185 0.0
C4189 C 0.3225 0.88991 0.91898 0.0
C4190 C 0.28095 0.89757 0.94599 0.0
C4191 C 0.3006 0.89212 0.95659 0.0
H4192 H 0.41268 0.96798 0.26968 0.0
H4193 H 0.45595 0.97762 0.20853 0.0
H4194 H 0.47683 1.00181 0.23167 0.0
H4195 H 0.47825 0.02431 0.26765 0.0
H4196 H 0.43028 0.01866 0.32661 0.0
H4197 H 0.41576 0.98878 0.30626 0.0
C4198 C 0.42717 0.97489 0.26163 0.0
C4199 C 0.43298 0.97099 0.23755 0.0
C4200 C 0.43785 0.98986 0.27463 0.0
C4201 C 0.45141 0.98032 0.22712 0.0
C4202 C 0.46314 0.9943 0.24029 0.0
C4203 C 0.46491 0.01624 0.27611 0.0
C4204 C 0.45521 0.02351 0.29845 0.0
C4205 C 0.45582 0.99984 0.2638 0.0
C4206 C 0.43779 0.01326 0.3093 0.0
C4207 C 0.42951 0.99625 0.29768 0.0
H4208 H 0.20349 0.93913 0.64952 0.0
H4209 H 0.14601 0.97533 0.63191 0.0
H4210 H 0.12016 0.95098 0.64625 0.0
H4211 H 0.11445 0.91756 0.65858 0.0
H4212 H 0.17179 0.87875 0.67085 0.0
H4213 H 0.19733 0.90606 0.6645 0.0
C4214 C 0.18529 0.94158 0.64897 0.0
C4215 C 0.17653 0.9585 0.6392 0.0
C4216 C 0.17063 0.92716 0.65644 0.0
C4217 C 0.15301 0.96195 0.63874 0.0
C4218 C 0.13826 0.94819 0.64712 0.0
C4219 C 0.13246 0.91538 0.66057 0.0
C4220 C 0.14144 0.89651 0.66528 0.0
C4221 C 0.14695 0.93049 0.65532 0.0
C4222 C 0.16475 0.89341 0.66737 0.0
C4223 C 0.17927 0.90888 0.66351 0.0
loop_
_geom_bond_atom_site_label_1
_geom_bond_atom_site_label_2
_geom_bond_distance
_geom_bond_site_symmetry_2
_ccdc_geom_bond_type
Nd0 C2 2.836 . S
Nd0 O20 2.500 . S
Nd0 O21 2.492 . S
Nd0 O22 2.487 . S
Nd0 O23 2.682 . S
Nd0 O24 2.410 . S
Nd0 O29 2.414 . S
Nd0 O31 2.424 . S
Nd1 C11 2.836 . S
Nd1 O23 2.414 . S
Nd1 O25 2.424 . S
Nd1 O26 2.500 . S
Nd1 O27 2.492 . S
Nd1 O28 2.487 . S
Nd1 O29 2.682 . S
Nd1 O30 2.410 . S
C2 Nd0 2.836 . S
C2 C3 1.498 . S
C2 O20 1.258 . S
C2 O21 1.239 . S
C3 C2 1.498 . S
C3 C4 1.366 . S
C3 C8 1.407 . S
C4 C3 1.366 . S
C4 C5 1.392 . S
C4 H32 0.930 . S
C5 C4 1.392 . S
C5 C6 1.398 . S
C5 H33 0.929 . S
C6 C5 1.398 . S
C6 C7 1.352 . S
C7 C6 1.352 . S
C7 C8 1.384 . S
C7 H34 0.930 . S
C8 C3 1.407 . S
C8 C7 1.384 . S
C8 H35 0.929 . S
C9 O22 1.241 . S
C9 O23 1.273 . S
C10 O24 1.251 . S
C10 O25 1.268 . S
C11 Nd1 2.836 . S
C11 C12 1.498 . S
C11 O26 1.258 . S
C11 O27 1.239 . S
C12 C11 1.498 . S
C12 C13 1.366 . S
C12 C17 1.407 . S
C13 C12 1.366 . S
C13 C14 1.392 . S
C13 H36 0.930 . S
C14 C13 1.392 . S
C14 C15 1.398 . S
C14 H37 0.929 . S
C15 C14 1.398 . S
C15 C16 1.328 1_455 S
C16 C15 1.328 1_655 S
C16 C17 1.380 1_655 S
C16 H38 0.961 . S
C17 C12 1.407 . S
C17 C16 1.380 1_455 S
C17 H39 0.929 1_455 S
C18 O28 1.241 . S
C18 O29 1.273 . S
C19 O30 1.251 . S
C19 O31 1.268 . S
O20 Nd0 2.500 . S
O20 C2 1.258 . S
O21 Nd0 2.492 . S
O21 C2 1.239 . S
O22 Nd0 2.487 . S
O22 C9 1.241 . S
O23 Nd0 2.682 . S
O23 Nd1 2.414 . S
O23 C9 1.273 . S
O24 Nd0 2.410 . S
O24 C10 1.251 . S
O25 Nd1 2.424 . S
O25 C10 1.268 . S
O26 Nd1 2.500 . S
O26 C11 1.258 . S
O27 Nd1 2.492 . S
O27 C11 1.239 . S
O28 Nd1 2.487 . S
O28 C18 1.241 . S
O29 Nd0 2.414 . S
O29 Nd1 2.682 . S
O29 C18 1.273 . S
O30 Nd1 2.410 . S
O30 C19 1.251 . S
O31 Nd0 2.424 . S
O31 C19 1.268 . S
H32 C4 0.930 . S
H33 C5 0.929 . S
H34 C7 0.930 . S
H35 C8 0.929 . S
H36 C13 0.930 . S
H37 C14 0.929 . S
H38 C16 0.961 . S
H39 C17 0.929 1_655 S
Nd40 C42 2.836 . S
Nd40 O60 2.500 . S
Nd40 O61 2.492 . S
Nd40 O62 2.487 . S
Nd40 O63 2.682 . S
Nd40 O64 2.410 . S
Nd40 O69 2.414 . S
Nd40 O71 2.424 . S
Nd41 C51 2.836 . S
Nd41 O63 2.414 . S
Nd41 O65 2.424 . S
Nd41 O66 2.500 . S
Nd41 O67 2.492 . S
Nd41 O68 2.487 . S
Nd41 O69 2.682 . S
Nd41 O70 2.410 . S
C42 Nd40 2.836 . S
C42 C43 1.498 . S
C42 O60 1.258 . S
C42 O61 1.239 . S
C43 C42 1.498 . S
C43 C44 1.366 . S
C43 C48 1.407 . S
C44 C43 1.366 . S
C44 C45 1.392 . S
C44 H72 0.930 . S
C45 C44 1.392 . S
C45 C46 1.398 . S
C45 H73 0.929 . S
C46 C45 1.398 . S
C46 C47 1.352 . S
C47 C46 1.352 . S
C47 C48 1.384 . S
C47 H74 0.930 . S
C48 C43 1.407 . S
C48 C47 1.384 . S
C48 H75 0.929 . S
C49 O62 1.241 . S
C49 O63 1.273 . S
C50 O64 1.251 . S
C50 O65 1.268 . S
C51 Nd41 2.836 . S
C51 C52 1.498 . S
C51 O66 1.258 . S
C51 O67 1.239 . S
C52 C51 1.498 . S
C52 C53 1.366 . S
C52 C57 1.407 . S
C53 C52 1.366 . S
C53 C54 1.392 . S
C53 H76 0.930 . S
C54 C53 1.392 . S
C54 C55 1.398 . S
C54 H77 0.929 . S
C55 C54 1.398 . S
C55 C56 1.352 . S
C56 C55 1.352 . S
C56 C57 1.384 . S
C56 H78 0.930 . S
C57 C52 1.407 . S
C57 C56 1.384 . S
C57 H79 0.929 . S
C58 O68 1.241 . S
C58 O69 1.273 . S
C59 O70 1.251 . S
C59 O71 1.268 . S
O60 Nd40 2.500 . S
O60 C42 1.258 . S
O61 Nd40 2.492 . S
O61 C42 1.239 . S
O62 Nd40 2.487 . S
O62 C49 1.241 . S
O63 Nd40 2.682 . S
O63 Nd41 2.414 . S
O63 C49 1.273 . S
O64 Nd40 2.410 . S
O64 C50 1.251 . S
O65 Nd41 2.424 . S
O65 C50 1.268 . S
O66 Nd41 2.500 . S
O66 C51 1.258 . S
O67 Nd41 2.492 . S
O67 C51 1.239 . S
O68 Nd41 2.487 . S
O68 C58 1.241 . S
O69 Nd40 2.414 . S
O69 Nd41 2.682 . S
O69 C58 1.273 . S
O70 Nd41 2.410 . S
O70 C59 1.251 . S
O71 Nd40 2.424 . S
O71 C59 1.268 . S
H72 C44 0.930 . S
H73 C45 0.929 . S
H74 C47 0.930 . S
H75 C48 0.929 . S
H76 C53 0.930 . S
H77 C54 0.929 . S
H78 C56 0.930 . S
H79 C57 0.929 . S
Nd80 C82 2.836 . S
Nd80 O100 2.500 . S
Nd80 O101 2.492 . S
Nd80 O102 2.487 . S
Nd80 O103 2.682 . S
Nd80 O104 2.410 . S
Nd80 O109 2.414 . S
Nd80 O111 2.424 . S
Nd81 C91 2.836 . S
Nd81 O103 2.414 . S
Nd81 O105 2.424 . S
Nd81 O106 2.500 . S
Nd81 O107 2.492 . S
Nd81 O108 2.487 . S
Nd81 O109 2.682 . S
Nd81 O110 2.410 . S
C82 Nd80 2.836 . S
C82 C83 1.498 . S
C82 O100 1.258 . S
C82 O101 1.239 . S
C83 C82 1.498 . S
C83 C84 1.366 . S
C83 C88 1.407 . S
C84 C83 1.366 . S
C84 C85 1.392 . S
C84 H112 0.930 . S
C85 C84 1.392 . S
C85 C86 1.398 . S
C85 H113 0.929 . S
C86 C85 1.398 . S
C86 C87 1.352 . S
C87 C86 1.352 . S
C87 C88 1.384 . S
C87 H114 0.930 . S
C88 C83 1.407 . S
C88 C87 1.384 . S
C88 H115 0.929 . S
C89 O102 1.241 . S
C89 O103 1.273 . S
C90 O104 1.251 . S
C90 O105 1.268 . S
C91 Nd81 2.836 . S
C91 C92 1.498 . S
C91 O106 1.258 . S
C91 O107 1.239 . S
C92 C91 1.498 . S
C92 C93 1.366 . S
C92 C97 1.407 . S
C93 C92 1.366 . S
C93 C94 1.392 . S
C93 H116 0.930 . S
C94 C93 1.392 . S
C94 C95 1.398 . S
C94 H117 0.929 . S
C95 C94 1.398 . S
C95 C96 1.352 . S
C96 C95 1.352 . S
C96 C97 1.384 . S
C96 H118 0.930 . S
C97 C92 1.407 . S
C97 C96 1.384 . S
C97 H119 0.929 . S
C98 O108 1.241 . S
C98 O109 1.273 . S
C99 O110 1.251 . S
C99 O111 1.268 . S
O100 Nd80 2.500 . S
O100 C82 1.258 . S
O101 Nd80 2.492 . S
O101 C82 1.239 . S
O102 Nd80 2.487 . S
O102 C89 1.241 . S
O103 Nd80 2.682 . S
O103 Nd81 2.414 . S
O103 C89 1.273 . S
O104 Nd80 2.410 . S
O104 C90 1.251 . S
O105 Nd81 2.424 . S
O105 C90 1.268 . S
O106 Nd81 2.500 . S
O106 C91 1.258 . S
O107 Nd81 2.492 . S
O107 C91 1.239 . S
O108 Nd81 2.487 . S
O108 C98 1.241 . S
O109 Nd80 2.414 . S
O109 Nd81 2.682 . S
O109 C98 1.273 . S
O110 Nd81 2.410 . S
O110 C99 1.251 . S
O111 Nd80 2.424 . S
O111 C99 1.268 . S
H112 C84 0.930 . S
H113 C85 0.929 . S
H114 C87 0.930 . S
H115 C88 0.929 . S
H116 C93 0.930 . S
H117 C94 0.929 . S
H118 C96 0.930 . S
H119 C97 0.929 . S
Nd120 C122 2.836 . S
Nd120 O140 2.500 . S
Nd120 O141 2.492 . S
Nd120 O142 2.487 . S
Nd120 O143 2.682 . S
Nd120 O144 2.410 . S
Nd120 O149 2.414 . S
Nd120 O151 2.424 . S
Nd121 C131 2.836 . S
Nd121 O143 2.414 . S
Nd121 O145 2.424 . S
Nd121 O146 2.500 . S
Nd121 O147 2.492 . S
Nd121 O148 2.487 . S
Nd121 O149 2.682 . S
Nd121 O150 2.410 . S
C122 Nd120 2.836 . S
C122 C123 1.498 . S
C122 O140 1.258 . S
C122 O141 1.239 . S
C123 C122 1.498 . S
C123 C124 1.366 . S
C123 C128 1.407 . S
C124 C123 1.366 . S
C124 C125 1.392 . S
C124 H152 0.930 . S
C125 C124 1.392 . S
C125 C126 1.398 . S
C125 H153 0.929 . S
C126 C125 1.398 . S
C126 C127 1.352 . S
C127 C126 1.352 . S
C127 C128 1.384 . S
C127 H154 0.930 . S
C128 C123 1.407 . S
C128 C127 1.384 . S
C128 H155 0.929 . S
C129 O142 1.241 . S
C129 O143 1.273 . S
C130 O144 1.251 . S
C130 O145 1.268 . S
C131 Nd121 2.836 . S
C131 C132 1.498 1_554 S
C131 O146 1.258 . S
C131 O147 1.239 . S
C132 C131 1.498 1_556 S
C132 C133 1.366 . S
C132 C137 1.407 . S
C133 C132 1.366 . S
C133 C134 1.392 . S
C133 H156 0.930 . S
C134 C133 1.392 . S
C134 C135 1.398 . S
C134 H157 0.929 . S
C135 C134 1.398 . S
C135 C136 1.352 . S
C136 C135 1.352 . S
C136 C137 1.384 . S
C136 H158 0.930 . S
C137 C132 1.407 . S
C137 C136 1.384 . S
C137 H159 0.929 . S
C138 O148 1.241 . S
C138 O149 1.273 . S
C139 O150 1.251 . S
C139 O151 1.268 . S
O140 Nd120 2.500 . S
O140 C122 1.258 . S
O141 Nd120 2.492 . S
O141 C122 1.239 . S
O142 Nd120 2.487 . S
O142 C129 1.241 . S
O143 Nd120 2.682 . S
O143 Nd121 2.414 . S
O143 C129 1.273 . S
O144 Nd120 2.410 . S
O144 C130 1.251 . S
O145 Nd121 2.424 . S
O145 C130 1.268 . S
O146 Nd121 2.500 . S
O146 C131 1.258 . S
O147 Nd121 2.492 . S
O147 C131 1.239 . S
O148 Nd121 2.487 . S
O148 C138 1.241 . S
O149 Nd120 2.414 . S
O149 Nd121 2.682 . S
O149 C138 1.273 . S
O150 Nd121 2.410 . S
O150 C139 1.251 . S
O151 Nd120 2.424 . S
O151 C139 1.268 . S
H152 C124 0.930 . S
H153 C125 0.929 . S
H154 C127 0.930 . S
H155 C128 0.929 . S
H156 C133 0.930 . S
H157 C134 0.929 . S
H158 C136 0.930 . S
H159 C137 0.929 . S
Nd160 C162 2.836 . S
Nd160 O180 2.500 . S
Nd160 O181 2.492 . S
Nd160 O182 2.487 . S
Nd160 O183 2.682 . S
Nd160 O184 2.410 . S
Nd160 O189 2.414 1_455 S
Nd160 O191 2.424 1_455 S
Nd161 C171 2.836 . S
Nd161 O183 2.414 1_655 S
Nd161 O185 2.424 1_655 S
Nd161 O186 2.500 . S
Nd161 O187 2.492 . S
Nd161 O188 2.487 . S
Nd161 O189 2.682 . S
Nd161 O190 2.410 . S
C162 Nd160 2.836 . S
C162 C163 1.498 . S
C162 O180 1.258 . S
C162 O181 1.239 . S
C163 C162 1.498 . S
C163 C164 1.366 . S
C163 C168 1.407 . S
C164 C163 1.366 . S
C164 C165 1.392 . S
C164 H192 0.930 . S
C165 C164 1.392 . S
C165 C166 1.398 . S
C165 H193 0.929 . S
C166 C165 1.398 . S
C166 C167 1.352 . S
C167 C166 1.352 . S
C167 C168 1.384 . S
C167 H194 0.930 . S
C168 C163 1.407 . S
C168 C167 1.384 . S
C168 H195 0.929 . S
C169 O182 1.241 . S
C169 O183 1.273 . S
C170 O184 1.251 . S
C170 O185 1.268 . S
C171 Nd161 2.836 . S
C171 C172 1.498 . S
C171 O186 1.258 . S
C171 O187 1.239 . S
C172 C171 1.498 . S
C172 C173 1.366 . S
C172 C177 1.407 . S
C173 C172 1.366 . S
C173 C174 1.392 . S
C173 H196 0.930 . S
C174 C173 1.392 . S
C174 C175 1.398 . S
C174 H197 0.929 . S
C175 C174 1.398 . S
C175 C176 1.352 . S
C176 C175 1.352 . S
C176 C177 1.384 . S
C176 H198 0.930 . S
C177 C172 1.407 . S
C177 C176 1.384 . S
C177 H199 0.929 . S
C178 O188 1.241 . S
C178 O189 1.273 . S
C179 O190 1.251 . S
C179 O191 1.268 . S
O180 Nd160 2.500 . S
O180 C162 1.258 . S
O181 Nd160 2.492 . S
O181 C162 1.239 . S
O182 Nd160 2.487 . S
O182 C169 1.241 . S
O183 Nd160 2.682 . S
O183 Nd161 2.414 1_455 S
O183 C169 1.273 . S
O184 Nd160 2.410 . S
O184 C170 1.251 . S
O185 Nd161 2.424 1_455 S
O185 C170 1.268 . S
O186 Nd161 2.500 . S
O186 C171 1.258 . S
O187 Nd161 2.492 . S
O187 C171 1.239 . S
O188 Nd161 2.487 . S
O188 C178 1.241 . S
O189 Nd160 2.414 1_655 S
O189 Nd161 2.682 . S
O189 C178 1.273 . S
O190 Nd161 2.410 . S
O190 C179 1.251 . S
O191 Nd160 2.424 1_655 S
O191 C179 1.268 . S
H192 C164 0.930 . S
H193 C165 0.929 . S
H194 C167 0.930 . S
H195 C168 0.929 . S
H196 C173 0.930 . S
H197 C174 0.929 . S
H198 C176 0.930 . S
H199 C177 0.929 . S
Nd200 C202 2.836 . S
Nd200 O220 2.500 . S
Nd200 O221 2.492 . S
Nd200 O222 2.487 . S
Nd200 O223 2.682 . S
Nd200 O224 2.410 . S
Nd200 O229 2.414 . S
Nd200 O231 2.424 . S
Nd201 C211 2.836 . S
Nd201 O223 2.414 . S
Nd201 O225 2.424 . S
Nd201 O226 2.500 . S
Nd201 O227 2.492 . S
Nd201 O228 2.487 . S
Nd201 O229 2.682 . S
Nd201 O230 2.410 . S
C202 Nd200 2.836 . S
C202 C203 1.498 . S
C202 O220 1.258 . S
C202 O221 1.239 . S
C203 C202 1.498 . S
C203 C204 1.366 . S
C203 C208 1.407 . S
C204 C203 1.366 . S
C204 C205 1.392 . S
C204 H232 0.930 . S
C205 C204 1.392 . S
C205 C206 1.398 . S
C205 H233 0.929 . S
C206 C205 1.398 . S
C206 C207 1.352 . S
C207 C206 1.352 . S
C207 C208 1.384 . S
C207 H234 0.930 . S
C208 C203 1.407 . S
C208 C207 1.384 . S
C208 H235 0.929 . S
C209 O222 1.241 . S
C209 O223 1.273 . S
C210 O224 1.251 . S
C210 O225 1.268 . S
C211 Nd201 2.836 . S
C211 C212 1.498 . S
C211 O226 1.258 . S
C211 O227 1.239 . S
C212 C211 1.498 . S
C212 C213 1.366 . S
C212 C217 1.407 . S
C213 C212 1.366 . S
C213 C214 1.392 . S
C213 H236 0.930 . S
C214 C213 1.392 . S
C214 C215 1.398 . S
C214 H237 0.929 . S
C215 C214 1.398 . S
C215 C216 1.352 . S
C216 C215 1.352 . S
C216 C217 1.384 . S
C216 H238 0.930 . S
C217 C212 1.407 . S
C217 C216 1.384 . S
C217 H239 0.929 . S
C218 O228 1.241 . S
C218 O229 1.273 . S
C219 O230 1.251 . S
C219 O231 1.268 . S
O220 Nd200 2.500 . S
O220 C202 1.258 . S
O221 Nd200 2.492 . S
O221 C202 1.239 . S
O222 Nd200 2.487 . S
O222 C209 1.241 . S
O223 Nd200 2.682 . S
O223 Nd201 2.414 . S
O223 C209 1.273 . S
O224 Nd200 2.410 . S
O224 C210 1.251 . S
O225 Nd201 2.424 . S
O225 C210 1.268 . S
O226 Nd201 2.500 . S
O226 C211 1.258 . S
O227 Nd201 2.492 . S
O227 C211 1.239 . S
O228 Nd201 2.487 . S
O228 C218 1.241 . S
O229 Nd200 2.414 . S
O229 Nd201 2.682 . S
O229 C218 1.273 . S
O230 Nd201 2.410 . S
O230 C219 1.251 . S
O231 Nd200 2.424 . S
O231 C219 1.268 . S
H232 C204 0.930 . S
H233 C205 0.929 . S
H234 C207 0.930 . S
H235 C208 0.929 . S
H236 C213 0.930 . S
H237 C214 0.929 . S
H238 C216 0.930 . S
H239 C217 0.929 . S
Nd240 C242 2.836 . S
Nd240 O260 2.500 . S
Nd240 O261 2.492 . S
Nd240 O262 2.487 . S
Nd240 O263 2.682 . S
Nd240 O264 2.410 . S
Nd240 O269 2.414 . S
Nd240 O271 2.424 . S
Nd241 C251 2.836 . S
Nd241 O263 2.414 . S
Nd241 O265 2.424 . S
Nd241 O266 2.500 . S
Nd241 O267 2.492 . S
Nd241 O268 2.487 . S
Nd241 O269 2.682 . S
Nd241 O270 2.410 . S
C242 Nd240 2.836 . S
C242 C243 1.498 . S
C242 O260 1.258 . S
C242 O261 1.239 . S
C243 C242 1.498 . S
C243 C244 1.366 . S
C243 C248 1.407 . S
C244 C243 1.366 . S
C244 C245 1.392 . S
C244 H272 0.930 . S
C245 C244 1.392 . S
C245 C246 1.398 . S
C245 H273 0.929 . S
C246 C245 1.398 . S
C246 C247 1.352 . S
C247 C246 1.352 . S
C247 C248 1.384 . S
C247 H274 0.930 . S
C248 C243 1.407 . S
C248 C247 1.384 . S
C248 H275 0.929 . S
C249 O262 1.241 . S
C249 O263 1.273 . S
C250 O264 1.251 . S
C250 O265 1.268 . S
C251 Nd241 2.836 . S
C251 C252 1.498 . S
C251 O266 1.258 . S
C251 O267 1.239 . S
C252 C251 1.498 . S
C252 C253 1.366 . S
C252 C257 1.407 . S
C253 C252 1.366 . S
C253 C254 1.392 . S
C253 H276 0.930 . S
C254 C253 1.392 . S
C254 C255 1.398 . S
C254 H277 0.929 . S
C255 C254 1.398 . S
C255 C256 1.352 . S
C256 C255 1.352 . S
C256 C257 1.384 . S
C256 H278 0.930 . S
C257 C252 1.407 . S
C257 C256 1.384 . S
C257 H279 0.929 . S
C258 O268 1.241 . S
C258 O269 1.273 . S
C259 O270 1.251 . S
C259 O271 1.268 . S
O260 Nd240 2.500 . S
O260 C242 1.258 . S
O261 Nd240 2.492 . S
O261 C242 1.239 . S
O262 Nd240 2.487 . S
O262 C249 1.241 . S
O263 Nd240 2.682 . S
O263 Nd241 2.414 . S
O263 C249 1.273 . S
O264 Nd240 2.410 . S
O264 C250 1.251 . S
O265 Nd241 2.424 . S
O265 C250 1.268 . S
O266 Nd241 2.500 . S
O266 C251 1.258 . S
O267 Nd241 2.492 . S
O267 C251 1.239 . S
O268 Nd241 2.487 . S
O268 C258 1.241 . S
O269 Nd240 2.414 . S
O269 Nd241 2.682 . S
O269 C258 1.273 . S
O270 Nd241 2.410 . S
O270 C259 1.251 . S
O271 Nd240 2.424 . S
O271 C259 1.268 . S
H272 C244 0.930 . S
H273 C245 0.929 . S
H274 C247 0.930 . S
H275 C248 0.929 . S
H276 C253 0.930 . S
H277 C254 0.929 . S
H278 C256 0.930 . S
H279 C257 0.929 . S
Nd280 C282 2.836 . S
Nd280 O300 2.500 . S
Nd280 O301 2.492 . S
Nd280 O302 2.487 . S
Nd280 O303 2.682 . S
Nd280 O304 2.410 . S
Nd280 O309 2.414 . S
Nd280 O311 2.424 . S
Nd281 C291 2.836 . S
Nd281 O303 2.414 . S
Nd281 O305 2.424 . S
Nd281 O306 2.500 . S
Nd281 O307 2.492 . S
Nd281 O308 2.487 . S
Nd281 O309 2.682 . S
Nd281 O310 2.410 . S
C282 Nd280 2.836 . S
C282 C283 1.498 . S
C282 O300 1.258 . S
C282 O301 1.239 . S
C283 C282 1.498 . S
C283 C284 1.366 . S
C283 C288 1.407 . S
C284 C283 1.366 . S
C284 C285 1.392 . S
C284 H312 0.930 . S
C285 C284 1.392 . S
C285 C286 1.398 . S
C285 H313 0.929 . S
C286 C285 1.398 . S
C286 C287 1.352 . S
C287 C286 1.352 . S
C287 C288 1.384 . S
C287 H314 0.930 . S
C288 C283 1.407 . S
C288 C287 1.384 . S
C288 H315 0.929 . S
C289 O302 1.241 . S
C289 O303 1.273 . S
C290 O304 1.251 . S
C290 O305 1.268 . S
C291 Nd281 2.836 . S
C291 C292 1.498 . S
C291 O306 1.258 . S
C291 O307 1.239 . S
C292 C291 1.498 . S
C292 C293 1.366 . S
C292 C297 1.407 . S
C293 C292 1.366 . S
C293 C294 1.392 . S
C293 H316 0.930 . S
C294 C293 1.392 . S
C294 C295 1.398 . S
C294 H317 0.929 1_655 S
C295 C294 1.398 . S
C295 C296 1.352 . S
C296 C295 1.352 . S
C296 C297 1.384 . S
C296 H318 0.930 . S
C297 C292 1.407 . S
C297 C296 1.384 . S
C297 H319 0.929 . S
C298 O308 1.241 . S
C298 O309 1.273 . S
C299 O310 1.251 . S
C299 O311 1.268 . S
O300 Nd280 2.500 . S
O300 C282 1.258 . S
O301 Nd280 2.492 . S
O301 C282 1.239 . S
O302 Nd280 2.487 . S
O302 C289 1.241 . S
O303 Nd280 2.682 . S
O303 Nd281 2.414 . S
O303 C289 1.273 . S
O304 Nd280 2.410 . S
O304 C290 1.251 . S
O305 Nd281 2.424 . S
O305 C290 1.268 . S
O306 Nd281 2.500 . S
O306 C291 1.258 . S
O307 Nd281 2.492 . S
O307 C291 1.239 . S
O308 Nd281 2.487 . S
O308 C298 1.241 . S
O309 Nd280 2.414 . S
O309 Nd281 2.682 . S
O309 C298 1.273 . S
O310 Nd281 2.410 . S
O310 C299 1.251 . S
O311 Nd280 2.424 . S
O311 C299 1.268 . S
H312 C284 0.930 . S
H313 C285 0.929 . S
H314 C287 0.930 . S
H315 C288 0.929 . S
H316 C293 0.930 . S
H317 C294 0.929 1_455 S
H318 C296 0.930 . S
H319 C297 0.929 . S
Nd320 C322 2.836 1_545 S
Nd320 O340 2.500 1_545 S
Nd320 O341 2.492 1_545 S
Nd320 O342 2.487 . S
Nd320 O343 2.682 . S
Nd320 O344 2.410 1_545 S
Nd320 O349 2.414 . S
Nd320 O351 2.424 . S
Nd321 C331 2.836 . S
Nd321 O343 2.414 . S
Nd321 O345 2.424 . S
Nd321 O346 2.500 . S
Nd321 O347 2.492 . S
Nd321 O348 2.487 . S
Nd321 O349 2.682 . S
Nd321 O350 2.410 . S
C322 Nd320 2.836 1_565 S
C322 C323 1.498 . S
C322 O340 1.258 . S
C322 O341 1.239 . S
C323 C322 1.498 . S
C323 C324 1.366 . S
C323 C328 1.407 . S
C324 C323 1.366 . S
C324 C325 1.392 . S
C324 H352 0.930 . S
C325 C324 1.392 . S
C325 C326 1.398 . S
C325 H353 0.929 . S
C326 C325 1.398 . S
C326 C327 1.352 . S
C327 C326 1.352 . S
C327 C328 1.384 . S
C327 H354 0.930 . S
C328 C323 1.407 . S
C328 C327 1.384 . S
C328 H355 0.929 . S
C329 O342 1.241 . S
C329 O343 1.273 . S
C330 O344 1.251 . S
C330 O345 1.268 1_565 S
C331 Nd321 2.836 . S
C331 C332 1.498 . S
C331 O346 1.258 . S
C331 O347 1.239 . S
C332 C331 1.498 . S
C332 C333 1.366 . S
C332 C337 1.407 . S
C333 C332 1.366 . S
C333 C334 1.392 . S
C333 H356 0.930 . S
C334 C333 1.392 . S
C334 C335 1.398 . S
C334 H357 0.929 . S
C335 C334 1.398 . S
C335 C336 1.352 . S
C336 C335 1.352 . S
C336 C337 1.384 . S
C336 H358 0.930 . S
C337 C332 1.407 . S
C337 C336 1.384 . S
C337 H359 0.929 . S
C338 O348 1.241 . S
C338 O349 1.273 . S
C339 O350 1.251 . S
C339 O351 1.268 . S
O340 Nd320 2.500 1_565 S
O340 C322 1.258 . S
O341 Nd320 2.492 1_565 S
O341 C322 1.239 . S
O342 Nd320 2.487 . S
O342 C329 1.241 . S
O343 Nd320 2.682 . S
O343 Nd321 2.414 . S
O343 C329 1.273 . S
O344 Nd320 2.410 1_565 S
O344 C330 1.251 . S
O345 Nd321 2.424 . S
O345 C330 1.268 1_545 S
O346 Nd321 2.500 . S
O346 C331 1.258 . S
O347 Nd321 2.492 . S
O347 C331 1.239 . S
O348 Nd321 2.487 . S
O348 C338 1.241 . S
O349 Nd320 2.414 . S
O349 Nd321 2.682 . S
O349 C338 1.273 . S
O350 Nd321 2.410 . S
O350 C339 1.251 . S
O351 Nd320 2.424 . S
O351 C339 1.268 . S
H352 C324 0.930 . S
H353 C325 0.929 . S
H354 C327 0.930 . S
H355 C328 0.929 . S
H356 C333 0.930 . S
H357 C334 0.929 . S
H358 C336 0.930 . S
H359 C337 0.929 . S
Nd360 C362 2.836 . S
Nd360 O380 2.500 . S
Nd360 O381 2.492 . S
Nd360 O382 2.487 . S
Nd360 O383 2.682 . S
Nd360 O384 2.410 . S
Nd360 O389 2.414 1_545 S
Nd360 O391 2.424 1_545 S
Nd361 C371 2.836 . S
Nd361 O383 2.414 1_565 S
Nd361 O385 2.424 1_565 S
Nd361 O386 2.500 . S
Nd361 O387 2.492 . S
Nd361 O388 2.487 . S
Nd361 O389 2.682 . S
Nd361 O390 2.410 . S
C362 Nd360 2.836 . S
C362 C363 1.498 . S
C362 O380 1.258 . S
C362 O381 1.239 . S
C363 C362 1.498 . S
C363 C364 1.366 . S
C363 C368 1.407 . S
C364 C363 1.366 . S
C364 C365 1.392 . S
C364 H392 0.930 . S
C365 C364 1.392 . S
C365 C366 1.398 . S
C365 H393 0.929 . S
C366 C365 1.398 . S
C366 C367 1.352 . S
C367 C366 1.352 . S
C367 C368 1.384 . S
C367 H394 0.930 . S
C368 C363 1.407 . S
C368 C367 1.384 . S
C368 H395 0.929 . S
C369 O382 1.241 . S
C369 O383 1.273 . S
C370 O384 1.251 . S
C370 O385 1.268 . S
C371 Nd361 2.836 . S
C371 C372 1.498 . S
C371 O386 1.258 . S
C371 O387 1.239 . S
C372 C371 1.498 . S
C372 C373 1.366 . S
C372 C377 1.407 . S
C373 C372 1.366 . S
C373 C374 1.392 . S
C373 H396 0.930 . S
C374 C373 1.392 . S
C374 C375 1.398 . S
C374 H397 0.929 . S
C375 C374 1.398 . S
C375 C376 1.352 . S
C376 C375 1.352 . S
C376 C377 1.384 . S
C376 H398 0.930 . S
C377 C372 1.407 . S
C377 C376 1.384 . S
C377 H399 0.929 . S
C378 O388 1.241 . S
C378 O389 1.273 . S
C379 O390 1.251 . S
C379 O391 1.268 . S
O380 Nd360 2.500 . S
O380 C362 1.258 . S
O381 Nd360 2.492 . S
O381 C362 1.239 . S
O382 Nd360 2.487 . S
O382 C369 1.241 . S
O383 Nd360 2.682 . S
O383 Nd361 2.414 1_545 S
O383 C369 1.273 . S
O384 Nd360 2.410 . S
O384 C370 1.251 . S
O385 Nd361 2.424 1_545 S
O385 C370 1.268 . S
O386 Nd361 2.500 . S
O386 C371 1.258 . S
O387 Nd361 2.492 . S
O387 C371 1.239 . S
O388 Nd361 2.487 . S
O388 C378 1.241 . S
O389 Nd360 2.414 1_565 S
O389 Nd361 2.682 . S
O389 C378 1.273 . S
O390 Nd361 2.410 . S
O390 C379 1.251 . S
O391 Nd360 2.424 1_565 S
O391 C379 1.268 . S
H392 C364 0.930 . S
H393 C365 0.929 . S
H394 C367 0.930 . S
H395 C368 0.929 . S
H396 C373 0.930 . S
H397 C374 0.929 . S
H398 C376 0.930 . S
H399 C377 0.929 . S
Nd400 C402 2.836 . S
Nd400 O420 2.500 . S
Nd400 O421 2.492 . S
Nd400 O422 2.487 . S
Nd400 O423 2.682 . S
Nd400 O424 2.410 . S
Nd400 O429 2.414 . S
Nd400 O431 2.424 . S
Nd401 C411 2.836 . S
Nd401 O423 2.414 . S
Nd401 O425 2.424 . S
Nd401 O426 2.500 . S
Nd401 O427 2.492 . S
Nd401 O428 2.487 . S
Nd401 O429 2.682 . S
Nd401 O430 2.410 . S
C402 Nd400 2.836 . S
C402 C403 1.498 . S
C402 O420 1.258 . S
C402 O421 1.239 . S
C403 C402 1.498 . S
C403 C404 1.366 . S
C403 C408 1.407 . S
C404 C403 1.366 . S
C404 C405 1.392 . S
C404 H432 0.930 . S
C405 C404 1.392 . S
C405 C406 1.398 . S
C405 H433 0.929 . S
C406 C405 1.398 . S
C406 C407 1.352 . S
C407 C406 1.352 . S
C407 C408 1.384 . S
C407 H434 0.930 . S
C408 C403 1.407 . S
C408 C407 1.384 . S
C408 H435 0.929 . S
C409 O422 1.241 . S
C409 O423 1.273 . S
C410 O424 1.251 . S
C410 O425 1.268 . S
C411 Nd401 2.836 . S
C411 C412 1.498 . S
C411 O426 1.258 . S
C411 O427 1.239 . S
C412 C411 1.498 . S
C412 C413 1.366 . S
C412 C417 1.407 . S
C413 C412 1.366 . S
C413 C414 1.392 . S
C413 H436 0.930 . S
C414 C413 1.392 . S
C414 C415 1.398 . S
C414 H437 0.929 . S
C415 C414 1.398 . S
C415 C416 1.352 . S
C416 C415 1.352 . S
C416 C417 1.384 . S
C416 H438 0.930 . S
C417 C412 1.407 . S
C417 C416 1.384 . S
C417 H439 0.929 . S
C418 O428 1.241 . S
C418 O429 1.273 . S
C419 O430 1.251 . S
C419 O431 1.268 . S
O420 Nd400 2.500 . S
O420 C402 1.258 . S
O421 Nd400 2.492 . S
O421 C402 1.239 . S
O422 Nd400 2.487 . S
O422 C409 1.241 . S
O423 Nd400 2.682 . S
O423 Nd401 2.414 . S
O423 C409 1.273 . S
O424 Nd400 2.410 . S
O424 C410 1.251 . S
O425 Nd401 2.424 . S
O425 C410 1.268 . S
O426 Nd401 2.500 . S
O426 C411 1.258 . S
O427 Nd401 2.492 . S
O427 C411 1.239 . S
O428 Nd401 2.487 . S
O428 C418 1.241 . S
O429 Nd400 2.414 . S
O429 Nd401 2.682 . S
O429 C418 1.273 . S
O430 Nd401 2.410 . S
O430 C419 1.251 . S
O431 Nd400 2.424 . S
O431 C419 1.268 . S
H432 C404 0.930 . S
H433 C405 0.929 . S
H434 C407 0.930 . S
H435 C408 0.929 . S
H436 C413 0.930 . S
H437 C414 0.929 . S
H438 C416 0.930 . S
H439 C417 0.929 . S
Nd440 C442 2.836 . S
Nd440 O460 2.500 . S
Nd440 O461 2.492 . S
Nd440 O462 2.487 . S
Nd440 O463 2.682 . S
Nd440 O464 2.410 . S
Nd440 O469 2.414 . S
Nd440 O471 2.424 . S
Nd441 C451 2.836 . S
Nd441 O463 2.414 . S
Nd441 O465 2.424 . S
Nd441 O466 2.500 . S
Nd441 O467 2.492 . S
Nd441 O468 2.487 . S
Nd441 O469 2.682 . S
Nd441 O470 2.410 . S
C442 Nd440 2.836 . S
C442 C443 1.498 . S
C442 O460 1.258 . S
C442 O461 1.239 . S
C443 C442 1.498 . S
C443 C444 1.366 . S
C443 C448 1.407 . S
C444 C443 1.366 . S
C444 C445 1.392 . S
C444 H472 0.930 . S
C445 C444 1.392 . S
C445 C446 1.398 . S
C445 H473 0.929 . S
C446 C445 1.398 . S
C446 C447 1.352 . S
C447 C446 1.352 . S
C447 C448 1.384 . S
C447 H474 0.930 . S
C448 C443 1.407 . S
C448 C447 1.384 . S
C448 H475 0.929 . S
C449 O462 1.241 . S
C449 O463 1.273 . S
C450 O464 1.251 . S
C450 O465 1.268 . S
C451 Nd441 2.836 . S
C451 C452 1.498 . S
C451 O466 1.258 . S
C451 O467 1.239 . S
C452 C451 1.498 . S
C452 C453 1.366 . S
C452 C457 1.407 . S
C453 C452 1.366 . S
C453 C454 1.392 . S
C453 H476 0.930 . S
C454 C453 1.392 . S
C454 C455 1.398 . S
C454 H477 0.929 . S
C455 C454 1.398 . S
C455 C456 1.352 . S
C456 C455 1.352 . S
C456 C457 1.384 . S
C456 H478 0.930 1_565 S
C457 C452 1.407 . S
C457 C456 1.384 . S
C457 H479 0.929 . S
C458 O468 1.241 . S
C458 O469 1.273 . S
C459 O470 1.251 . S
C459 O471 1.268 . S
O460 Nd440 2.500 . S
O460 C442 1.258 . S
O461 Nd440 2.492 . S
O461 C442 1.239 . S
O462 Nd440 2.487 . S
O462 C449 1.241 . S
O463 Nd440 2.682 . S
O463 Nd441 2.414 . S
O463 C449 1.273 . S
O464 Nd440 2.410 . S
O464 C450 1.251 . S
O465 Nd441 2.424 . S
O465 C450 1.268 . S
O466 Nd441 2.500 . S
O466 C451 1.258 . S
O467 Nd441 2.492 . S
O467 C451 1.239 . S
O468 Nd441 2.487 . S
O468 C458 1.241 . S
O469 Nd440 2.414 . S
O469 Nd441 2.682 . S
O469 C458 1.273 . S
O470 Nd441 2.410 . S
O470 C459 1.251 . S
O471 Nd440 2.424 . S
O471 C459 1.268 . S
H472 C444 0.930 . S
H473 C445 0.929 . S
H474 C447 0.930 . S
H475 C448 0.929 . S
H476 C453 0.930 . S
H477 C454 0.929 . S
H478 C456 0.930 1_545 S
H479 C457 0.929 . S
Nd480 C482 2.836 1_554 S
Nd480 O500 2.500 1_554 S
Nd480 O501 2.492 1_554 S
Nd480 O502 2.487 1_554 S
Nd480 O503 2.682 . S
Nd480 O504 2.410 1_554 S
Nd480 O509 2.414 . S
Nd480 O511 2.424 . S
Nd481 C491 2.836 . S
Nd481 O503 2.414 . S
Nd481 O505 2.424 . S
Nd481 O506 2.500 . S
Nd481 O507 2.492 . S
Nd481 O508 2.487 . S
Nd481 O509 2.682 . S
Nd481 O510 2.410 . S
C482 Nd480 2.836 1_556 S
C482 C483 1.498 . S
C482 O500 1.258 . S
C482 O501 1.239 . S
C483 C482 1.498 . S
C483 C484 1.366 . S
C483 C488 1.407 . S
C484 C483 1.366 . S
C484 C485 1.392 . S
C484 H512 0.930 . S
C485 C484 1.392 . S
C485 C486 1.398 . S
C485 H513 0.929 . S
C486 C485 1.398 . S
C486 C487 1.352 . S
C487 C486 1.352 . S
C487 C488 1.384 . S
C487 H514 0.930 . S
C488 C483 1.407 . S
C488 C487 1.384 . S
C488 H515 0.929 . S
C489 O502 1.241 1_554 S
C489 O503 1.273 . S
C490 O504 1.251 . S
C490 O505 1.268 1_556 S
C491 Nd481 2.836 . S
C491 C492 1.498 . S
C491 O506 1.258 . S
C491 O507 1.239 . S
C492 C491 1.498 . S
C492 C493 1.366 . S
C492 C497 1.407 . S
C493 C492 1.366 . S
C493 C494 1.392 . S
C493 H516 0.930 . S
C494 C493 1.392 . S
C494 C495 1.398 . S
C494 H517 0.929 . S
C495 C494 1.398 . S
C495 C496 1.352 . S
C496 C495 1.352 . S
C496 C497 1.384 . S
C496 H518 0.930 . S
C497 C492 1.407 . S
C497 C496 1.384 . S
C497 H519 0.929 . S
C498 O508 1.241 . S
C498 O509 1.273 . S
C499 O510 1.251 . S
C499 O511 1.268 . S
O500 Nd480 2.500 1_556 S
O500 C482 1.258 . S
O501 Nd480 2.492 1_556 S
O501 C482 1.239 . S
O502 Nd480 2.487 1_556 S
O502 C489 1.241 1_556 S
O503 Nd480 2.682 . S
O503 Nd481 2.414 . S
O503 C489 1.273 . S
O504 Nd480 2.410 1_556 S
O504 C490 1.251 . S
O505 Nd481 2.424 . S
O505 C490 1.268 1_554 S
O506 Nd481 2.500 . S
O506 C491 1.258 . S
O507 Nd481 2.492 . S
O507 C491 1.239 . S
O508 Nd481 2.487 . S
O508 C498 1.241 . S
O509 Nd480 2.414 . S
O509 Nd481 2.682 . S
O509 C498 1.273 . S
O510 Nd481 2.410 . S
O510 C499 1.251 . S
O511 Nd480 2.424 . S
O511 C499 1.268 . S
H512 C484 0.930 . S
H513 C485 0.929 . S
H514 C487 0.930 . S
H515 C488 0.929 . S
H516 C493 0.930 . S
H517 C494 0.929 . S
H518 C496 0.930 . S
H519 C497 0.929 . S
Nd520 C522 2.836 . S
Nd520 O540 2.500 . S
Nd520 O541 2.492 . S
Nd520 O542 2.487 . S
Nd520 O543 2.682 . S
Nd520 O544 2.410 . S
Nd520 O549 2.414 . S
Nd520 O551 2.424 . S
Nd521 C531 2.836 1_565 S
Nd521 O543 2.414 . S
Nd521 O545 2.424 . S
Nd521 O546 2.500 1_565 S
Nd521 O547 2.492 1_565 S
Nd521 O548 2.487 . S
Nd521 O549 2.682 . S
Nd521 O550 2.410 . S
C522 Nd520 2.836 . S
C522 C523 1.498 . S
C522 O540 1.258 . S
C522 O541 1.239 . S
C523 C522 1.498 . S
C523 C524 1.366 . S
C523 C528 1.407 . S
C524 C523 1.366 . S
C524 C525 1.392 . S
C524 H552 0.930 . S
C525 C524 1.392 . S
C525 C526 1.398 . S
C525 H553 0.929 . S
C526 C525 1.398 . S
C526 C527 1.352 . S
C527 C526 1.352 . S
C527 C528 1.384 . S
C527 H554 0.930 . S
C528 C523 1.407 . S
C528 C527 1.384 . S
C528 H555 0.929 . S
C529 O542 1.241 . S
C529 O543 1.273 . S
C530 O544 1.251 . S
C530 O545 1.268 . S
C531 Nd521 2.836 1_545 S
C531 C532 1.498 . S
C531 O546 1.258 . S
C531 O547 1.239 . S
C532 C531 1.498 . S
C532 C533 1.366 . S
C532 C537 1.407 . S
C533 C532 1.366 . S
C533 C534 1.392 . S
C533 H556 0.930 . S
C534 C533 1.392 . S
C534 C535 1.398 . S
C534 H557 0.929 . S
C535 C534 1.398 . S
C535 C536 1.352 . S
C536 C535 1.352 . S
C536 C537 1.384 . S
C536 H558 0.930 . S
C537 C532 1.407 . S
C537 C536 1.384 . S
C537 H559 0.929 . S
C538 O548 1.241 . S
C538 O549 1.273 . S
C539 O550 1.251 . S
C539 O551 1.268 . S
O540 Nd520 2.500 . S
O540 C522 1.258 . S
O541 Nd520 2.492 . S
O541 C522 1.239 . S
O542 Nd520 2.487 . S
O542 C529 1.241 . S
O543 Nd520 2.682 . S
O543 Nd521 2.414 . S
O543 C529 1.273 . S
O544 Nd520 2.410 . S
O544 C530 1.251 . S
O545 Nd521 2.424 . S
O545 C530 1.268 . S
O546 Nd521 2.500 1_545 S
O546 C531 1.258 . S
O547 Nd521 2.492 1_545 S
O547 C531 1.239 . S
O548 Nd521 2.487 . S
O548 C538 1.241 . S
O549 Nd520 2.414 . S
O549 Nd521 2.682 . S
O549 C538 1.273 . S
O550 Nd521 2.410 . S
O550 C539 1.251 . S
O551 Nd520 2.424 . S
O551 C539 1.268 . S
H552 C524 0.930 . S
H553 C525 0.929 . S
H554 C527 0.930 . S
H555 C528 0.929 . S
H556 C533 0.930 . S
H557 C534 0.929 . S
H558 C536 0.930 . S
H559 C537 0.929 . S
Nd560 C562 2.836 . S
Nd560 O580 2.500 . S
Nd560 O581 2.492 . S
Nd560 O582 2.487 . S
Nd560 O583 2.682 . S
Nd560 O584 2.410 . S
Nd560 O589 2.414 . S
Nd560 O591 2.424 . S
Nd561 C571 2.836 . S
Nd561 O583 2.414 . S
Nd561 O585 2.424 . S
Nd561 O586 2.500 . S
Nd561 O587 2.492 . S
Nd561 O588 2.487 . S
Nd561 O589 2.682 . S
Nd561 O590 2.410 . S
C562 Nd560 2.836 . S
C562 C563 1.498 . S
C562 O580 1.258 . S
C562 O581 1.239 . S
C563 C562 1.498 . S
C563 C564 1.366 . S
C563 C568 1.407 . S
C564 C563 1.366 . S
C564 C565 1.392 . S
C564 H592 0.930 . S
C565 C564 1.392 . S
C565 C566 1.398 . S
C565 H593 0.929 . S
C566 C565 1.398 . S
C566 C567 1.352 . S
C567 C566 1.352 . S
C567 C568 1.384 . S
C567 H594 0.930 . S
C568 C563 1.407 . S
C568 C567 1.384 . S
C568 H595 0.929 . S
C569 O582 1.241 . S
C569 O583 1.273 . S
C570 O584 1.251 . S
C570 O585 1.268 . S
C571 Nd561 2.836 . S
C571 C572 1.498 . S
C571 O586 1.258 . S
C571 O587 1.239 . S
C572 C571 1.498 . S
C572 C573 1.366 . S
C572 C577 1.407 . S
C573 C572 1.366 . S
C573 C574 1.392 . S
C573 H596 0.930 . S
C574 C573 1.392 . S
C574 C575 1.398 . S
C574 H597 0.929 . S
C575 C574 1.398 . S
C575 C576 1.352 . S
C576 C575 1.352 . S
C576 C577 1.384 . S
C576 H598 0.930 . S
C577 C572 1.407 . S
C577 C576 1.384 . S
C577 H599 0.929 . S
C578 O588 1.241 . S
C578 O589 1.273 . S
C579 O590 1.251 . S
C579 O591 1.268 . S
O580 Nd560 2.500 . S
O580 C562 1.258 . S
O581 Nd560 2.492 . S
O581 C562 1.239 . S
O582 Nd560 2.487 . S
O582 C569 1.241 . S
O583 Nd560 2.682 . S
O583 Nd561 2.414 . S
O583 C569 1.273 . S
O584 Nd560 2.410 . S
O584 C570 1.251 . S
O585 Nd561 2.424 . S
O585 C570 1.268 . S
O586 Nd561 2.500 . S
O586 C571 1.258 . S
O587 Nd561 2.492 . S
O587 C571 1.239 . S
O588 Nd561 2.487 . S
O588 C578 1.241 . S
O589 Nd560 2.414 . S
O589 Nd561 2.682 . S
O589 C578 1.273 . S
O590 Nd561 2.410 . S
O590 C579 1.251 . S
O591 Nd560 2.424 . S
O591 C579 1.268 . S
H592 C564 0.930 . S
H593 C565 0.929 . S
H594 C567 0.930 . S
H595 C568 0.929 . S
H596 C573 0.930 . S
H597 C574 0.929 . S
H598 C576 0.930 . S
H599 C577 0.929 . S
Nd600 C602 2.836 . S
Nd600 O620 2.500 . S
Nd600 O621 2.492 1_655 S
Nd600 O622 2.487 . S
Nd600 O623 2.682 . S
Nd600 O624 2.410 . S
Nd600 O629 2.414 . S
Nd600 O631 2.437 . S
Nd601 C611 2.836 . S
Nd601 O623 2.414 . S
Nd601 O625 2.424 . S
Nd601 O626 2.500 . S
Nd601 O627 2.492 . S
Nd601 O628 2.487 . S
Nd601 O629 2.682 . S
Nd601 O630 2.410 . S
C602 Nd600 2.836 . S
C602 C603 1.498 . S
C602 O620 1.258 . S
C602 O621 1.239 1_655 S
C603 C602 1.498 . S
C603 C604 1.366 . S
C603 C608 1.407 1_655 S
C604 C603 1.366 . S
C604 C605 1.392 . S
C604 H632 0.930 . S
C605 C604 1.392 . S
C605 C606 1.398 . S
C605 H633 0.929 . S
C606 C605 1.398 . S
C606 C607 1.352 1_655 S
C607 C606 1.352 1_455 S
C607 C608 1.384 . S
C607 H634 0.930 . S
C608 C603 1.407 1_455 S
C608 C607 1.384 . S
C608 H635 0.929 . S
C609 O622 1.241 . S
C609 O623 1.273 . S
C610 O624 1.251 . S
C610 O625 1.268 . S
C611 Nd601 2.836 . S
C611 C612 1.498 . S
C611 O626 1.258 . S
C611 O627 1.239 . S
C612 C611 1.498 . S
C612 C613 1.366 . S
C612 C617 1.407 . S
C613 C612 1.366 . S
C613 C614 1.392 . S
C613 H636 0.930 . S
C614 C613 1.392 . S
C614 C615 1.398 . S
C614 H637 0.929 . S
C615 C614 1.398 . S
C615 C616 1.352 . S
C616 C615 1.352 . S
C616 C617 1.384 . S
C616 H638 0.930 . S
C617 C612 1.407 . S
C617 C616 1.384 . S
C617 H639 0.929 . S
C618 O628 1.241 . S
C618 O629 1.273 . S
C619 O630 1.251 . S
C619 O631 1.296 . S
O620 Nd600 2.500 . S
O620 C602 1.258 . S
O621 Nd600 2.492 1_455 S
O621 C602 1.239 1_455 S
O622 Nd600 2.487 . S
O622 C609 1.241 . S
O623 Nd600 2.682 . S
O623 Nd601 2.414 . S
O623 C609 1.273 . S
O624 Nd600 2.410 . S
O624 C610 1.251 . S
O625 Nd601 2.424 . S
O625 C610 1.268 . S
O626 Nd601 2.500 . S
O626 C611 1.258 . S
O627 Nd601 2.492 . S
O627 C611 1.239 . S
O628 Nd601 2.487 . S
O628 C618 1.241 . S
O629 Nd600 2.414 . S
O629 Nd601 2.682 . S
O629 C618 1.273 . S
O630 Nd601 2.410 . S
O630 C619 1.251 . S
O631 Nd600 2.437 . S
O631 C619 1.296 . S
H632 C604 0.930 . S
H633 C605 0.929 . S
H634 C607 0.930 . S
H635 C608 0.929 . S
H636 C613 0.930 . S
H637 C614 0.929 . S
H638 C616 0.930 . S
H639 C617 0.929 . S
Nd640 C642 2.836 . S
Nd640 O660 2.500 . S
Nd640 O661 2.492 . S
Nd640 O662 2.487 . S
Nd640 O663 2.682 . S
Nd640 O664 2.410 . S
Nd640 O669 2.414 . S
Nd640 O671 2.424 . S
Nd641 C651 2.836 . S
Nd641 O663 2.414 . S
Nd641 O665 2.424 . S
Nd641 O666 2.500 . S
Nd641 O667 2.492 . S
Nd641 O668 2.487 . S
Nd641 O669 2.682 . S
Nd641 O670 2.410 . S
C642 Nd640 2.836 . S
C642 C643 1.498 . S
C642 O660 1.258 . S
C642 O661 1.239 . S
C643 C642 1.498 . S
C643 C644 1.366 . S
C643 C648 1.407 . S
C644 C643 1.366 . S
C644 C645 1.392 . S
C644 H672 0.930 . S
C645 C644 1.392 . S
C645 C646 1.398 . S
C645 H673 0.929 . S
C646 C645 1.398 . S
C646 C647 1.352 . S
C647 C646 1.352 . S
C647 C648 1.384 . S
C647 H674 0.930 . S
C648 C643 1.407 . S
C648 C647 1.384 . S
C648 H675 0.929 . S
C649 O662 1.241 . S
C649 O663 1.273 . S
C650 O664 1.251 . S
C650 O665 1.268 . S
C651 Nd641 2.836 . S
C651 C652 1.498 . S
C651 O666 1.258 . S
C651 O667 1.239 . S
C652 C651 1.498 . S
C652 C653 1.366 . S
C652 C657 1.407 . S
C653 C652 1.366 . S
C653 C654 1.392 . S
C653 H676 0.930 . S
C654 C653 1.392 . S
C654 C655 1.398 . S
C654 H677 0.929 . S
C655 C654 1.398 . S
C655 C656 1.352 . S
C656 C655 1.352 . S
C656 C657 1.384 . S
C656 H678 0.930 . S
C657 C652 1.407 . S
C657 C656 1.384 . S
C657 H679 0.929 . S
C658 O668 1.241 . S
C658 O669 1.273 . S
C659 O670 1.251 . S
C659 O671 1.268 . S
O660 Nd640 2.500 . S
O660 C642 1.258 . S
O661 Nd640 2.492 . S
O661 C642 1.239 . S
O662 Nd640 2.487 . S
O662 C649 1.241 . S
O663 Nd640 2.682 . S
O663 Nd641 2.414 . S
O663 C649 1.273 . S
O664 Nd640 2.410 . S
O664 C650 1.251 . S
O665 Nd641 2.424 . S
O665 C650 1.268 . S
O666 Nd641 2.500 . S
O666 C651 1.258 . S
O667 Nd641 2.492 . S
O667 C651 1.239 . S
O668 Nd641 2.487 . S
O668 C658 1.241 . S
O669 Nd640 2.414 . S
O669 Nd641 2.682 . S
O669 C658 1.273 . S
O670 Nd641 2.410 . S
O670 C659 1.251 . S
O671 Nd640 2.424 . S
O671 C659 1.268 . S
H672 C644 0.930 . S
H673 C645 0.929 . S
H674 C647 0.930 . S
H675 C648 0.929 . S
H676 C653 0.930 . S
H677 C654 0.929 . S
H678 C656 0.930 . S
H679 C657 0.929 . S
Nd680 C682 2.836 . S
Nd680 O700 2.500 . S
Nd680 O701 2.492 . S
Nd680 O702 2.487 . S
Nd680 O703 2.682 . S
Nd680 O704 2.410 . S
Nd680 O709 2.414 . S
Nd680 O711 2.424 . S
Nd681 C691 2.836 . S
Nd681 O703 2.414 . S
Nd681 O705 2.424 . S
Nd681 O706 2.500 . S
Nd681 O707 2.492 . S
Nd681 O708 2.487 . S
Nd681 O709 2.682 . S
Nd681 O710 2.410 . S
C682 Nd680 2.836 . S
C682 C683 1.498 . S
C682 O700 1.258 . S
C682 O701 1.239 . S
C683 C682 1.498 . S
C683 C684 1.366 . S
C683 C688 1.407 . S
C684 C683 1.366 . S
C684 C685 1.392 . S
C684 H712 0.930 . S
C685 C684 1.392 . S
C685 C686 1.398 . S
C685 H713 0.929 . S
C686 C685 1.398 . S
C686 C687 1.352 . S
C687 C686 1.352 . S
C687 C688 1.384 . S
C687 H714 0.930 . S
C688 C683 1.407 . S
C688 C687 1.384 . S
C688 H715 0.929 . S
C689 O702 1.241 . S
C689 O703 1.273 . S
C690 O704 1.251 . S
C690 O705 1.268 . S
C691 Nd681 2.836 . S
C691 C692 1.498 . S
C691 O706 1.258 . S
C691 O707 1.239 . S
C692 C691 1.498 . S
C692 C693 1.366 . S
C692 C697 1.407 . S
C693 C692 1.366 . S
C693 C694 1.392 . S
C693 H716 0.930 . S
C694 C693 1.392 . S
C694 C695 1.398 . S
C694 H717 0.929 . S
C695 C694 1.398 . S
C695 C696 1.352 . S
C696 C695 1.352 . S
C696 C697 1.384 . S
C696 H718 0.930 . S
C697 C692 1.407 . S
C697 C696 1.384 . S
C697 H719 0.929 . S
C698 O708 1.241 . S
C698 O709 1.273 . S
C699 O710 1.251 . S
C699 O711 1.268 . S
O700 Nd680 2.500 . S
O700 C682 1.258 . S
O701 Nd680 2.492 . S
O701 C682 1.239 . S
O702 Nd680 2.487 . S
O702 C689 1.241 . S
O703 Nd680 2.682 . S
O703 Nd681 2.414 . S
O703 C689 1.273 . S
O704 Nd680 2.410 . S
O704 C690 1.251 . S
O705 Nd681 2.424 . S
O705 C690 1.268 . S
O706 Nd681 2.500 . S
O706 C691 1.258 . S
O707 Nd681 2.492 . S
O707 C691 1.239 . S
O708 Nd681 2.487 . S
O708 C698 1.241 . S
O709 Nd680 2.414 . S
O709 Nd681 2.682 . S
O709 C698 1.273 . S
O710 Nd681 2.410 . S
O710 C699 1.251 . S
O711 Nd680 2.424 . S
O711 C699 1.268 . S
H712 C684 0.930 . S
H713 C685 0.929 . S
H714 C687 0.930 . S
H715 C688 0.929 . S
H716 C693 0.930 . S
H717 C694 0.929 . S
H718 C696 0.930 . S
H719 C697 0.929 . S
Nd720 C722 2.836 1_556 S
Nd720 O740 2.500 . S
Nd720 O741 2.492 1_556 S
Nd720 O742 2.487 . S
Nd720 O743 2.682 . S
Nd720 O744 2.389 1_556 S
Nd720 O749 2.414 . S
Nd720 O751 2.424 . S
Nd721 C731 2.836 . S
Nd721 O743 2.414 . S
Nd721 O745 2.424 . S
Nd721 O746 2.500 . S
Nd721 O747 2.492 . S
Nd721 O748 2.487 . S
Nd721 O749 2.682 . S
Nd721 O750 2.410 . S
C722 Nd720 2.836 1_554 S
C722 C723 1.498 . S
C722 O740 1.258 1_554 S
C722 O741 1.239 . S
C723 C722 1.498 . S
C723 C724 1.366 . S
C723 C728 1.407 . S
C724 C723 1.366 . S
C724 C725 1.392 . S
C724 H752 0.930 . S
C725 C724 1.392 . S
C725 C726 1.398 . S
C725 H753 0.929 . S
C726 C725 1.398 . S
C726 C727 1.352 . S
C727 C726 1.352 . S
C727 C728 1.384 . S
C727 H754 0.930 . S
C728 C723 1.407 . S
C728 C727 1.384 . S
C728 H755 0.929 . S
C729 O742 1.241 . S
C729 O743 1.273 . S
C730 O744 1.252 . S
C730 O745 1.232 1_554 S
C731 Nd721 2.836 . S
C731 C732 1.498 . S
C731 O746 1.258 . S
C731 O747 1.239 . S
C732 C731 1.498 . S
C732 C733 1.366 . S
C732 C737 1.407 . S
C733 C732 1.366 . S
C733 C734 1.392 . S
C733 H756 0.930 . S
C734 C733 1.392 . S
C734 C735 1.398 . S
C734 H757 0.929 . S
C735 C734 1.398 . S
C735 C736 1.352 . S
C736 C735 1.352 . S
C736 C737 1.384 . S
C736 H758 0.930 . S
C737 C732 1.407 . S
C737 C736 1.384 . S
C737 H759 0.929 . S
C738 O748 1.241 . S
C738 O749 1.273 . S
C739 O750 1.251 . S
C739 O751 1.268 . S
O740 Nd720 2.500 . S
O740 C722 1.258 1_556 S
O741 Nd720 2.492 1_554 S
O741 C722 1.239 . S
O742 Nd720 2.487 . S
O742 C729 1.241 . S
O743 Nd720 2.682 . S
O743 Nd721 2.414 . S
O743 C729 1.273 . S
O744 Nd720 2.389 1_554 S
O744 C730 1.252 . S
O745 Nd721 2.424 . S
O745 C730 1.232 1_556 S
O746 Nd721 2.500 . S
O746 C731 1.258 . S
O747 Nd721 2.492 . S
O747 C731 1.239 . S
O748 Nd721 2.487 . S
O748 C738 1.241 . S
O749 Nd720 2.414 . S
O749 Nd721 2.682 . S
O749 C738 1.273 . S
O750 Nd721 2.410 . S
O750 C739 1.251 . S
O751 Nd720 2.424 . S
O751 C739 1.268 . S
H752 C724 0.930 . S
H753 C725 0.929 . S
H754 C727 0.930 . S
H755 C728 0.929 . S
H756 C733 0.930 . S
H757 C734 0.929 . S
H758 C736 0.930 . S
H759 C737 0.929 . S
Nd760 C762 2.836 . S
Nd760 O780 2.500 . S
Nd760 O781 2.492 . S
Nd760 O782 2.487 . S
Nd760 O783 2.682 . S
Nd760 O784 2.410 . S
Nd760 O789 2.414 1_455 S
Nd760 O791 2.424 1_455 S
Nd761 C771 2.836 . S
Nd761 O783 2.414 1_655 S
Nd761 O785 2.424 1_655 S
Nd761 O786 2.500 . S
Nd761 O787 2.492 . S
Nd761 O788 2.487 . S
Nd761 O789 2.682 . S
Nd761 O790 2.410 . S
C762 Nd760 2.836 . S
C762 C763 1.498 . S
C762 O780 1.258 . S
C762 O781 1.239 . S
C763 C762 1.498 . S
C763 C764 1.366 . S
C763 C768 1.407 . S
C764 C763 1.366 . S
C764 C765 1.392 . S
C764 H792 0.930 . S
C765 C764 1.392 . S
C765 C766 1.398 . S
C765 H793 0.929 . S
C766 C765 1.398 . S
C766 C767 1.352 . S
C767 C766 1.352 . S
C767 C768 1.384 . S
C767 H794 0.930 . S
C768 C763 1.407 . S
C768 C767 1.384 . S
C768 H795 0.929 . S
C769 O782 1.241 . S
C769 O783 1.273 . S
C770 O784 1.251 . S
C770 O785 1.268 . S
C771 Nd761 2.836 . S
C771 C772 1.498 . S
C771 O786 1.258 . S
C771 O787 1.239 . S
C772 C771 1.498 . S
C772 C773 1.366 . S
C772 C777 1.407 . S
C773 C772 1.366 . S
C773 C774 1.392 . S
C773 H796 0.930 . S
C774 C773 1.392 . S
C774 C775 1.398 . S
C774 H797 0.929 . S
C775 C774 1.398 . S
C775 C776 1.352 . S
C776 C775 1.352 . S
C776 C777 1.384 . S
C776 H798 0.930 . S
C777 C772 1.407 . S
C777 C776 1.384 . S
C777 H799 0.929 . S
C778 O788 1.241 . S
C778 O789 1.273 . S
C779 O790 1.251 . S
C779 O791 1.268 . S
O780 Nd760 2.500 . S
O780 C762 1.258 . S
O781 Nd760 2.492 . S
O781 C762 1.239 . S
O782 Nd760 2.487 . S
O782 C769 1.241 . S
O783 Nd760 2.682 . S
O783 Nd761 2.414 1_455 S
O783 C769 1.273 . S
O784 Nd760 2.410 . S
O784 C770 1.251 . S
O785 Nd761 2.424 1_455 S
O785 C770 1.268 . S
O786 Nd761 2.500 . S
O786 C771 1.258 . S
O787 Nd761 2.492 . S
O787 C771 1.239 . S
O788 Nd761 2.487 . S
O788 C778 1.241 . S
O789 Nd760 2.414 1_655 S
O789 Nd761 2.682 . S
O789 C778 1.273 . S
O790 Nd761 2.410 . S
O790 C779 1.251 . S
O791 Nd760 2.424 1_655 S
O791 C779 1.268 . S
H792 C764 0.930 . S
H793 C765 0.929 . S
H794 C767 0.930 . S
H795 C768 0.929 . S
H796 C773 0.930 . S
H797 C774 0.929 . S
H798 C776 0.930 . S
H799 C777 0.929 . S
Nd800 C802 2.836 . S
Nd800 O820 2.500 . S
Nd800 O821 2.492 . S
Nd800 O822 2.487 . S
Nd800 O823 2.682 . S
Nd800 O824 2.410 . S
Nd800 O829 2.414 . S
Nd800 O831 2.424 . S
Nd801 C811 2.836 . S
Nd801 O823 2.414 . S
Nd801 O825 2.424 . S
Nd801 O826 2.500 . S
Nd801 O827 2.492 . S
Nd801 O828 2.487 . S
Nd801 O829 2.682 . S
Nd801 O830 2.410 . S
C802 Nd800 2.836 . S
C802 C803 1.498 . S
C802 O820 1.258 . S
C802 O821 1.239 . S
C803 C802 1.498 . S
C803 C804 1.366 . S
C803 C808 1.407 . S
C804 C803 1.366 . S
C804 C805 1.392 . S
C804 H832 0.930 . S
C805 C804 1.392 . S
C805 C806 1.398 . S
C805 H833 0.929 . S
C806 C805 1.398 . S
C806 C807 1.352 . S
C807 C806 1.352 . S
C807 C808 1.384 . S
C807 H834 0.930 . S
C808 C803 1.407 . S
C808 C807 1.384 . S
C808 H835 0.929 . S
C809 O822 1.241 . S
C809 O823 1.273 . S
C810 O824 1.251 . S
C810 O825 1.268 . S
C811 Nd801 2.836 . S
C811 C812 1.498 . S
C811 O826 1.258 . S
C811 O827 1.239 . S
C812 C811 1.498 . S
C812 C813 1.366 . S
C812 C817 1.407 . S
C813 C812 1.366 . S
C813 C814 1.392 . S
C813 H836 0.930 . S
C814 C813 1.392 . S
C814 C815 1.398 . S
C814 H837 0.929 . S
C815 C814 1.398 . S
C815 C816 1.352 . S
C816 C815 1.352 . S
C816 C817 1.384 . S
C816 H838 0.930 . S
C817 C812 1.407 . S
C817 C816 1.384 . S
C817 H839 0.929 . S
C818 O828 1.241 . S
C818 O829 1.273 . S
C819 O830 1.251 . S
C819 O831 1.268 . S
O820 Nd800 2.500 . S
O820 C802 1.258 . S
O821 Nd800 2.492 . S
O821 C802 1.239 . S
O822 Nd800 2.487 . S
O822 C809 1.241 . S
O823 Nd800 2.682 . S
O823 Nd801 2.414 . S
O823 C809 1.273 . S
O824 Nd800 2.410 . S
O824 C810 1.251 . S
O825 Nd801 2.424 . S
O825 C810 1.268 . S
O826 Nd801 2.500 . S
O826 C811 1.258 . S
O827 Nd801 2.492 . S
O827 C811 1.239 . S
O828 Nd801 2.487 . S
O828 C818 1.241 . S
O829 Nd800 2.414 . S
O829 Nd801 2.682 . S
O829 C818 1.273 . S
O830 Nd801 2.410 . S
O830 C819 1.251 . S
O831 Nd800 2.424 . S
O831 C819 1.268 . S
H832 C804 0.930 . S
H833 C805 0.929 . S
H834 C807 0.930 . S
H835 C808 0.929 . S
H836 C813 0.930 . S
H837 C814 0.929 . S
H838 C816 0.930 . S
H839 C817 0.929 . S
Nd840 C842 2.836 . S
Nd840 O860 2.500 . S
Nd840 O861 2.492 . S
Nd840 O862 2.487 . S
Nd840 O863 2.682 . S
Nd840 O864 2.410 . S
Nd840 O869 2.414 . S
Nd840 O871 2.424 . S
Nd841 C851 2.836 . S
Nd841 O863 2.414 . S
Nd841 O865 2.424 . S
Nd841 O866 2.500 . S
Nd841 O867 2.492 . S
Nd841 O868 2.487 . S
Nd841 O869 2.682 . S
Nd841 O870 2.410 . S
C842 Nd840 2.836 . S
C842 C843 1.498 . S
C842 O860 1.258 . S
C842 O861 1.239 . S
C843 C842 1.498 . S
C843 C844 1.366 . S
C843 C848 1.407 . S
C844 C843 1.366 . S
C844 C845 1.392 . S
C844 H872 0.930 . S
C845 C844 1.392 . S
C845 C846 1.398 . S
C845 H873 0.929 . S
C846 C845 1.398 . S
C846 C847 1.352 . S
C847 C846 1.352 . S
C847 C848 1.384 . S
C847 H874 0.930 . S
C848 C843 1.407 . S
C848 C847 1.384 . S
C848 H875 0.929 . S
C849 O862 1.241 . S
C849 O863 1.273 . S
C850 O864 1.251 . S
C850 O865 1.268 . S
C851 Nd841 2.836 . S
C851 C852 1.498 . S
C851 O866 1.258 . S
C851 O867 1.239 . S
C852 C851 1.498 . S
C852 C853 1.366 . S
C852 C857 1.407 . S
C853 C852 1.366 . S
C853 C854 1.392 . S
C853 H876 0.930 . S
C854 C853 1.392 . S
C854 C855 1.398 . S
C854 H877 0.929 . S
C855 C854 1.398 . S
C855 C856 1.352 . S
C856 C855 1.352 . S
C856 C857 1.384 . S
C856 H878 0.930 . S
C857 C852 1.407 . S
C857 C856 1.384 . S
C857 H879 0.929 . S
C858 O868 1.241 . S
C858 O869 1.273 . S
C859 O870 1.251 . S
C859 O871 1.268 . S
O860 Nd840 2.500 . S
O860 C842 1.258 . S
O861 Nd840 2.492 . S
O861 C842 1.239 . S
O862 Nd840 2.487 . S
O862 C849 1.241 . S
O863 Nd840 2.682 . S
O863 Nd841 2.414 . S
O863 C849 1.273 . S
O864 Nd840 2.410 . S
O864 C850 1.251 . S
O865 Nd841 2.424 . S
O865 C850 1.268 . S
O866 Nd841 2.500 . S
O866 C851 1.258 . S
O867 Nd841 2.492 . S
O867 C851 1.239 . S
O868 Nd841 2.487 . S
O868 C858 1.241 . S
O869 Nd840 2.414 . S
O869 Nd841 2.682 . S
O869 C858 1.273 . S
O870 Nd841 2.410 . S
O870 C859 1.251 . S
O871 Nd840 2.424 . S
O871 C859 1.268 . S
H872 C844 0.930 . S
H873 C845 0.929 . S
H874 C847 0.930 . S
H875 C848 0.929 . S
H876 C853 0.930 . S
H877 C854 0.929 . S
H878 C856 0.930 . S
H879 C857 0.929 . S
Nd880 C882 2.836 . S
Nd880 O900 2.500 . S
Nd880 O901 2.492 . S
Nd880 O902 2.487 . S
Nd880 O903 2.682 . S
Nd880 O904 2.410 . S
Nd880 O909 2.414 . S
Nd880 O911 2.424 . S
Nd881 C891 2.836 . S
Nd881 O903 2.414 . S
Nd881 O905 2.424 . S
Nd881 O906 2.500 . S
Nd881 O907 2.492 . S
Nd881 O908 2.487 . S
Nd881 O909 2.682 . S
Nd881 O910 2.410 . S
C882 Nd880 2.836 . S
C882 C883 1.498 . S
C882 O900 1.258 . S
C882 O901 1.239 . S
C883 C882 1.498 . S
C883 C884 1.366 . S
C883 C888 1.407 . S
C884 C883 1.366 . S
C884 C885 1.392 . S
C884 H912 0.930 . S
C885 C884 1.392 . S
C885 C886 1.398 . S
C885 H913 0.929 1_455 S
C886 C885 1.398 . S
C886 C887 1.352 . S
C887 C886 1.352 . S
C887 C888 1.384 . S
C887 H914 0.930 1_554 S
C888 C883 1.407 . S
C888 C887 1.384 . S
C888 H915 0.940 . S
C889 O902 1.241 . S
C889 O903 1.273 . S
C890 O904 1.251 . S
C890 O905 1.268 . S
C891 Nd881 2.836 . S
C891 C892 1.498 . S
C891 O906 1.258 . S
C891 O907 1.239 . S
C892 C891 1.498 . S
C892 C893 1.366 . S
C892 C897 1.407 . S
C893 C892 1.366 . S
C893 C894 1.392 . S
C893 H916 0.930 . S
C894 C893 1.392 . S
C894 C895 1.398 . S
C894 H917 0.929 . S
C895 C894 1.398 . S
C895 C896 1.352 . S
C896 C895 1.352 . S
C896 C897 1.384 . S
C896 H918 0.930 . S
C897 C892 1.407 . S
C897 C896 1.384 . S
C897 H919 0.929 . S
C898 O908 1.241 . S
C898 O909 1.273 . S
C899 O910 1.251 . S
C899 O911 1.268 . S
O900 Nd880 2.500 . S
O900 C882 1.258 . S
O901 Nd880 2.492 . S
O901 C882 1.239 . S
O902 Nd880 2.487 . S
O902 C889 1.241 . S
O903 Nd880 2.682 . S
O903 Nd881 2.414 . S
O903 C889 1.273 . S
O904 Nd880 2.410 . S
O904 C890 1.251 . S
O905 Nd881 2.424 . S
O905 C890 1.268 . S
O906 Nd881 2.500 . S
O906 C891 1.258 . S
O907 Nd881 2.492 . S
O907 C891 1.239 . S
O908 Nd881 2.487 . S
O908 C898 1.241 . S
O909 Nd880 2.414 . S
O909 Nd881 2.682 . S
O909 C898 1.273 . S
O910 Nd881 2.410 . S
O910 C899 1.251 . S
O911 Nd880 2.424 . S
O911 C899 1.268 . S
H912 C884 0.930 . S
H913 C885 0.929 1_655 S
H914 C887 0.930 1_556 S
H915 C888 0.940 . S
H916 C893 0.930 . S
H917 C894 0.929 . S
H918 C896 0.930 . S
H919 C897 0.929 . S
Nd920 C922 2.836 . S
Nd920 O940 2.500 . S
Nd920 O941 2.492 . S
Nd920 O942 2.487 . S
Nd920 O943 2.682 . S
Nd920 O944 2.410 . S
Nd920 O949 2.414 . S
Nd920 O951 2.424 . S
Nd921 C931 2.836 . S
Nd921 O943 2.414 . S
Nd921 O945 2.424 . S
Nd921 O946 2.500 . S
Nd921 O947 2.492 . S
Nd921 O948 2.487 . S
Nd921 O949 2.682 . S
Nd921 O950 2.410 . S
C922 Nd920 2.836 . S
C922 C923 1.498 . S
C922 O940 1.258 . S
C922 O941 1.239 . S
C923 C922 1.498 . S
C923 C924 1.366 . S
C923 C928 1.407 . S
C924 C923 1.366 . S
C924 C925 1.392 . S
C924 H952 0.930 . S
C925 C924 1.392 . S
C925 C926 1.398 . S
C925 H953 0.929 . S
C926 C925 1.398 . S
C926 C927 1.352 . S
C927 C926 1.352 . S
C927 C928 1.384 . S
C927 H954 0.930 . S
C928 C923 1.407 . S
C928 C927 1.384 . S
C928 H955 0.929 . S
C929 O942 1.241 . S
C929 O943 1.273 . S
C930 O944 1.251 . S
C930 O945 1.268 . S
C931 Nd921 2.836 . S
C931 C932 1.498 1_565 S
C931 O946 1.258 . S
C931 O947 1.239 . S
C932 C931 1.498 1_545 S
C932 C933 1.366 . S
C932 C937 1.407 . S
C933 C932 1.366 . S
C933 C934 1.392 . S
C933 H956 0.930 . S
C934 C933 1.392 . S
C934 C935 1.398 . S
C934 H957 0.929 . S
C935 C934 1.398 . S
C935 C936 1.352 . S
C936 C935 1.352 . S
C936 C937 1.384 . S
C936 H958 0.930 . S
C937 C932 1.407 . S
C937 C936 1.384 . S
C937 H959 0.929 . S
C938 O948 1.241 . S
C938 O949 1.273 . S
C939 O950 1.251 . S
C939 O951 1.268 . S
O940 Nd920 2.500 . S
O940 C922 1.258 . S
O941 Nd920 2.492 . S
O941 C922 1.239 . S
O942 Nd920 2.487 . S
O942 C929 1.241 . S
O943 Nd920 2.682 . S
O943 Nd921 2.414 . S
O943 C929 1.273 . S
O944 Nd920 2.410 . S
O944 C930 1.251 . S
O945 Nd921 2.424 . S
O945 C930 1.268 . S
O946 Nd921 2.500 . S
O946 C931 1.258 . S
O947 Nd921 2.492 . S
O947 C931 1.239 . S
O948 Nd921 2.487 . S
O948 C938 1.241 . S
O949 Nd920 2.414 . S
O949 Nd921 2.682 . S
O949 C938 1.273 . S
O950 Nd921 2.410 . S
O950 C939 1.251 . S
O951 Nd920 2.424 . S
O951 C939 1.268 . S
H952 C924 0.930 . S
H953 C925 0.929 . S
H954 C927 0.930 . S
H955 C928 0.929 . S
H956 C933 0.930 . S
H957 C934 0.929 . S
H958 C936 0.930 . S
H959 C937 0.929 . S
Nd960 C962 2.836 . S
Nd960 O980 2.500 . S
Nd960 O981 2.492 . S
Nd960 O982 2.487 . S
Nd960 O983 2.682 . S
Nd960 O984 2.410 . S
Nd960 O989 2.414 1_545 S
Nd960 O991 2.424 1_545 S
Nd961 C971 2.836 . S
Nd961 O983 2.414 1_565 S
Nd961 O985 2.424 1_565 S
Nd961 O986 2.500 . S
Nd961 O987 2.492 . S
Nd961 O988 2.487 . S
Nd961 O989 2.682 . S
Nd961 O990 2.410 . S
C962 Nd960 2.836 . S
C962 C963 1.498 . S
C962 O980 1.258 . S
C962 O981 1.239 . S
C963 C962 1.498 . S
C963 C964 1.366 . S
C963 C968 1.407 . S
C964 C963 1.366 . S
C964 C965 1.392 . S
C964 H992 0.930 . S
C965 C964 1.392 . S
C965 C966 1.398 . S
C965 H993 0.929 . S
C966 C965 1.398 . S
C966 C967 1.352 . S
C967 C966 1.352 . S
C967 C968 1.384 . S
C967 H994 0.930 . S
C968 C963 1.407 . S
C968 C967 1.384 . S
C968 H995 0.929 . S
C969 O982 1.241 . S
C969 O983 1.273 . S
C970 O984 1.251 . S
C970 O985 1.268 . S
C971 Nd961 2.836 . S
C971 C972 1.498 . S
C971 O986 1.258 . S
C971 O987 1.239 . S
C972 C971 1.498 . S
C972 C973 1.366 . S
C972 C977 1.407 . S
C973 C972 1.366 . S
C973 C974 1.392 . S
C973 H996 0.930 . S
C974 C973 1.392 . S
C974 C975 1.398 . S
C974 H997 0.929 . S
C975 C974 1.398 . S
C975 C976 1.352 . S
C976 C975 1.352 . S
C976 C977 1.384 . S
C976 H998 0.930 . S
C977 C972 1.407 . S
C977 C976 1.384 . S
C977 H999 0.929 . S
C978 O988 1.241 . S
C978 O989 1.273 . S
C979 O990 1.251 . S
C979 O991 1.268 . S
O980 Nd960 2.500 . S
O980 C962 1.258 . S
O981 Nd960 2.492 . S
O981 C962 1.239 . S
O982 Nd960 2.487 . S
O982 C969 1.241 . S
O983 Nd960 2.682 . S
O983 Nd961 2.414 1_545 S
O983 C969 1.273 . S
O984 Nd960 2.410 . S
O984 C970 1.251 . S
O985 Nd961 2.424 1_545 S
O985 C970 1.268 . S
O986 Nd961 2.500 . S
O986 C971 1.258 . S
O987 Nd961 2.492 . S
O987 C971 1.239 . S
O988 Nd961 2.487 . S
O988 C978 1.241 . S
O989 Nd960 2.414 1_565 S
O989 Nd961 2.682 . S
O989 C978 1.273 . S
O990 Nd961 2.410 . S
O990 C979 1.251 . S
O991 Nd960 2.424 1_565 S
O991 C979 1.268 . S
H992 C964 0.930 . S
H993 C965 0.929 . S
H994 C967 0.930 . S
H995 C968 0.929 . S
H996 C973 0.930 . S
H997 C974 0.929 . S
H998 C976 0.930 . S
H999 C977 0.929 . S
Nd1000 C1002 2.836 1_554 S
Nd1000 O1020 2.500 1_554 S
Nd1000 O1021 2.492 . S
Nd1000 O1022 2.487 . S
Nd1000 O1023 2.682 . S
Nd1000 O1024 2.410 . S
Nd1000 O1029 2.414 . S
Nd1000 O1031 2.424 . S
Nd1001 C1011 2.836 . S
Nd1001 O1023 2.414 . S
Nd1001 O1025 2.424 . S
Nd1001 O1026 2.500 . S
Nd1001 O1027 2.492 . S
Nd1001 O1028 2.487 . S
Nd1001 O1029 2.682 . S
Nd1001 O1030 2.410 . S
C1002 Nd1000 2.836 1_556 S
C1002 C1003 1.498 . S
C1002 O1020 1.258 . S
C1002 O1021 1.239 1_556 S
C1003 C1002 1.498 . S
C1003 C1004 1.366 . S
C1003 C1008 1.407 . S
C1004 C1003 1.366 . S
C1004 C1005 1.392 . S
C1004 H1032 0.930 . S
C1005 C1004 1.392 . S
C1005 C1006 1.398 . S
C1005 H1033 0.929 . S
C1006 C1005 1.398 . S
C1006 C1007 1.352 . S
C1007 C1006 1.352 . S
C1007 C1008 1.384 . S
C1007 H1034 0.930 . S
C1008 C1003 1.407 . S
C1008 C1007 1.384 . S
C1008 H1035 0.929 . S
C1009 O1022 1.241 . S
C1009 O1023 1.273 . S
C1010 O1024 1.251 . S
C1010 O1025 1.268 . S
C1011 Nd1001 2.836 . S
C1011 C1012 1.498 . S
C1011 O1026 1.258 . S
C1011 O1027 1.239 . S
C1012 C1011 1.498 . S
C1012 C1013 1.366 . S
C1012 C1017 1.407 . S
C1013 C1012 1.366 . S
C1013 C1014 1.392 . S
C1013 H1036 0.930 . S
C1014 C1013 1.392 . S
C1014 C1015 1.398 . S
C1014 H1037 0.929 . S
C1015 C1014 1.398 . S
C1015 C1016 1.352 . S
C1016 C1015 1.352 . S
C1016 C1017 1.384 . S
C1016 H1038 0.930 . S
C1017 C1012 1.407 . S
C1017 C1016 1.384 . S
C1017 H1039 0.929 . S
C1018 O1028 1.241 . S
C1018 O1029 1.273 . S
C1019 O1030 1.251 . S
C1019 O1031 1.268 . S
O1020 Nd1000 2.500 1_556 S
O1020 C1002 1.258 . S
O1021 Nd1000 2.492 . S
O1021 C1002 1.239 1_554 S
O1022 Nd1000 2.487 . S
O1022 C1009 1.241 . S
O1023 Nd1000 2.682 . S
O1023 Nd1001 2.414 . S
O1023 C1009 1.273 . S
O1024 Nd1000 2.410 . S
O1024 C1010 1.251 . S
O1025 Nd1001 2.424 . S
O1025 C1010 1.268 . S
O1026 Nd1001 2.500 . S
O1026 C1011 1.258 . S
O1027 Nd1001 2.492 . S
O1027 C1011 1.239 . S
O1028 Nd1001 2.487 . S
O1028 C1018 1.241 . S
O1029 Nd1000 2.414 . S
O1029 Nd1001 2.682 . S
O1029 C1018 1.273 . S
O1030 Nd1001 2.410 . S
O1030 C1019 1.251 . S
O1031 Nd1000 2.424 . S
O1031 C1019 1.268 . S
H1032 C1004 0.930 . S
H1033 C1005 0.929 . S
H1034 C1007 0.930 . S
H1035 C1008 0.929 . S
H1036 C1013 0.930 . S
H1037 C1014 0.929 . S
H1038 C1016 0.930 . S
H1039 C1017 0.929 . S
Nd1040 C1042 2.836 . S
Nd1040 O1060 2.500 . S
Nd1040 O1061 2.492 . S
Nd1040 O1062 2.487 . S
Nd1040 O1063 2.682 . S
Nd1040 O1064 2.410 . S
Nd1040 O1069 2.414 . S
Nd1040 O1071 2.424 . S
Nd1041 C1051 2.836 . S
Nd1041 O1063 2.414 . S
Nd1041 O1065 2.424 . S
Nd1041 O1066 2.500 . S
Nd1041 O1067 2.492 . S
Nd1041 O1068 2.487 . S
Nd1041 O1069 2.682 . S
Nd1041 O1070 2.410 . S
C1042 Nd1040 2.836 . S
C1042 C1043 1.498 . S
C1042 O1060 1.258 . S
C1042 O1061 1.239 . S
C1043 C1042 1.498 . S
C1043 C1044 1.366 . S
C1043 C1048 1.407 . S
C1044 C1043 1.366 . S
C1044 C1045 1.392 . S
C1044 H1072 0.930 . S
C1045 C1044 1.392 . S
C1045 C1046 1.398 . S
C1045 H1073 0.929 . S
C1046 C1045 1.398 . S
C1046 C1047 1.352 . S
C1047 C1046 1.352 . S
C1047 C1048 1.384 . S
C1047 H1074 0.930 1_545 S
C1048 C1043 1.407 . S
C1048 C1047 1.384 . S
C1048 H1075 0.929 . S
C1049 O1062 1.241 . S
C1049 O1063 1.273 . S
C1050 O1064 1.251 . S
C1050 O1065 1.268 . S
C1051 Nd1041 2.836 . S
C1051 C1052 1.498 . S
C1051 O1066 1.258 . S
C1051 O1067 1.239 . S
C1052 C1051 1.498 . S
C1052 C1053 1.366 . S
C1052 C1057 1.407 . S
C1053 C1052 1.366 . S
C1053 C1054 1.392 . S
C1053 H1076 0.930 . S
C1054 C1053 1.392 . S
C1054 C1055 1.398 . S
C1054 H1077 0.929 . S
C1055 C1054 1.398 . S
C1055 C1056 1.352 . S
C1056 C1055 1.352 . S
C1056 C1057 1.384 . S
C1056 H1078 0.930 . S
C1057 C1052 1.407 . S
C1057 C1056 1.384 . S
C1057 H1079 0.929 . S
C1058 O1068 1.241 . S
C1058 O1069 1.273 . S
C1059 O1070 1.251 . S
C1059 O1071 1.268 . S
O1060 Nd1040 2.500 . S
O1060 C1042 1.258 . S
O1061 Nd1040 2.492 . S
O1061 C1042 1.239 . S
O1062 Nd1040 2.487 . S
O1062 C1049 1.241 . S
O1063 Nd1040 2.682 . S
O1063 Nd1041 2.414 . S
O1063 C1049 1.273 . S
O1064 Nd1040 2.410 . S
O1064 C1050 1.251 . S
O1065 Nd1041 2.424 . S
O1065 C1050 1.268 . S
O1066 Nd1041 2.500 . S
O1066 C1051 1.258 . S
O1067 Nd1041 2.492 . S
O1067 C1051 1.239 . S
O1068 Nd1041 2.487 . S
O1068 C1058 1.241 . S
O1069 Nd1040 2.414 . S
O1069 Nd1041 2.682 . S
O1069 C1058 1.273 . S
O1070 Nd1041 2.410 . S
O1070 C1059 1.251 . S
O1071 Nd1040 2.424 . S
O1071 C1059 1.268 . S
H1072 C1044 0.930 . S
H1073 C1045 0.929 . S
H1074 C1047 0.930 1_565 S
H1075 C1048 0.929 . S
H1076 C1053 0.930 . S
H1077 C1054 0.929 . S
H1078 C1056 0.930 . S
H1079 C1057 0.929 . S
Nd1080 C1082 2.836 . S
Nd1080 O1100 2.500 . S
Nd1080 O1101 2.492 . S
Nd1080 O1102 2.487 . S
Nd1080 O1103 2.682 . S
Nd1080 O1104 2.410 . S
Nd1080 O1109 2.414 . S
Nd1080 O1111 2.424 1_556 S
Nd1081 C1091 2.836 . S
Nd1081 O1103 2.414 1_554 S
Nd1081 O1105 2.424 1_554 S
Nd1081 O1106 2.500 . S
Nd1081 O1107 2.492 . S
Nd1081 O1108 2.487 . S
Nd1081 O1109 2.682 1_554 S
Nd1081 O1110 2.410 . S
C1082 Nd1080 2.836 . S
C1082 C1083 1.498 . S
C1082 O1100 1.258 . S
C1082 O1101 1.239 . S
C1083 C1082 1.498 . S
C1083 C1084 1.366 . S
C1083 C1088 1.407 . S
C1084 C1083 1.366 . S
C1084 C1085 1.392 . S
C1084 H1112 0.930 . S
C1085 C1084 1.392 . S
C1085 C1086 1.398 . S
C1085 H1113 0.929 . S
C1086 C1085 1.398 . S
C1086 C1087 1.352 . S
C1087 C1086 1.352 . S
C1087 C1088 1.384 . S
C1087 H1114 0.930 . S
C1088 C1083 1.407 . S
C1088 C1087 1.384 . S
C1088 H1115 0.929 . S
C1089 O1102 1.241 . S
C1089 O1103 1.273 . S
C1090 O1104 1.251 . S
C1090 O1105 1.268 . S
C1091 Nd1081 2.836 . S
C1091 C1092 1.498 . S
C1091 O1106 1.258 . S
C1091 O1107 1.239 . S
C1092 C1091 1.498 . S
C1092 C1093 1.366 . S
C1092 C1097 1.407 . S
C1093 C1092 1.366 . S
C1093 C1094 1.392 . S
C1093 H1116 0.930 . S
C1094 C1093 1.392 . S
C1094 C1095 1.398 . S
C1094 H1117 0.929 . S
C1095 C1094 1.398 . S
C1095 C1096 1.352 . S
C1096 C1095 1.352 . S
C1096 C1097 1.384 . S
C1096 H1118 0.930 . S
C1097 C1092 1.407 . S
C1097 C1096 1.384 . S
C1097 H1119 0.929 . S
C1098 O1108 1.241 . S
C1098 O1109 1.273 1_554 S
C1099 O1110 1.251 . S
C1099 O1111 1.268 . S
O1100 Nd1080 2.500 . S
O1100 C1082 1.258 . S
O1101 Nd1080 2.492 . S
O1101 C1082 1.239 . S
O1102 Nd1080 2.487 . S
O1102 C1089 1.241 . S
O1103 Nd1080 2.682 . S
O1103 Nd1081 2.414 1_556 S
O1103 C1089 1.273 . S
O1104 Nd1080 2.410 . S
O1104 C1090 1.251 . S
O1105 Nd1081 2.424 1_556 S
O1105 C1090 1.268 . S
O1106 Nd1081 2.500 . S
O1106 C1091 1.258 . S
O1107 Nd1081 2.492 . S
O1107 C1091 1.239 . S
O1108 Nd1081 2.487 . S
O1108 C1098 1.241 . S
O1109 Nd1080 2.414 . S
O1109 Nd1081 2.682 1_556 S
O1109 C1098 1.273 1_556 S
O1110 Nd1081 2.410 . S
O1110 C1099 1.251 . S
O1111 Nd1080 2.424 1_554 S
O1111 C1099 1.268 . S
H1112 C1084 0.930 . S
H1113 C1085 0.929 . S
H1114 C1087 0.930 . S
H1115 C1088 0.929 . S
H1116 C1093 0.930 . S
H1117 C1094 0.929 . S
H1118 C1096 0.930 . S
H1119 C1097 0.929 . S
Nd1120 C1122 2.864 . S
Nd1120 O1140 2.500 1_545 S
Nd1120 O1141 2.492 . S
Nd1120 O1142 2.487 . S
Nd1120 O1143 2.682 . S
Nd1120 O1144 2.410 . S
Nd1120 O1149 2.414 . S
Nd1120 O1151 2.424 . S
Nd1121 C1131 2.836 . S
Nd1121 O1143 2.414 . S
Nd1121 O1145 2.424 . S
Nd1121 O1146 2.500 . S
Nd1121 O1147 2.492 . S
Nd1121 O1148 2.487 . S
Nd1121 O1149 2.682 . S
Nd1121 O1150 2.410 . S
C1122 Nd1120 2.864 . S
C1122 C1123 1.471 1_545 S
C1122 O1140 1.251 1_545 S
C1122 O1141 1.273 . S
C1123 C1122 1.471 1_565 S
C1123 C1124 1.366 . S
C1123 C1128 1.407 . S
C1124 C1123 1.366 . S
C1124 C1125 1.392 . S
C1124 H1152 0.930 . S
C1125 C1124 1.392 . S
C1125 C1126 1.398 . S
C1125 H1153 0.929 . S
C1126 C1125 1.398 . S
C1126 C1127 1.352 . S
C1127 C1126 1.352 . S
C1127 C1128 1.384 . S
C1127 H1154 0.930 . S
C1128 C1123 1.407 . S
C1128 C1127 1.384 . S
C1128 H1155 0.929 . S
C1129 O1142 1.241 . S
C1129 O1143 1.273 . S
C1130 O1144 1.251 . S
C1130 O1145 1.268 . S
C1131 Nd1121 2.836 . S
C1131 C1132 1.498 . S
C1131 O1146 1.258 . S
C1131 O1147 1.239 . S
C1132 C1131 1.498 . S
C1132 C1133 1.366 . S
C1132 C1137 1.407 . S
C1133 C1132 1.366 . S
C1133 C1134 1.392 . S
C1133 H1156 0.930 . S
C1134 C1133 1.392 . S
C1134 C1135 1.398 . S
C1134 H1157 0.929 . S
C1135 C1134 1.398 . S
C1135 C1136 1.352 . S
C1136 C1135 1.352 . S
C1136 C1137 1.384 . S
C1136 H1158 0.930 . S
C1137 C1132 1.407 . S
C1137 C1136 1.384 . S
C1137 H1159 0.929 . S
C1138 O1148 1.241 . S
C1138 O1149 1.273 . S
C1139 O1150 1.251 . S
C1139 O1151 1.268 . S
O1140 Nd1120 2.500 1_565 S
O1140 C1122 1.251 1_565 S
O1141 Nd1120 2.492 . S
O1141 C1122 1.273 . S
O1142 Nd1120 2.487 . S
O1142 C1129 1.241 . S
O1143 Nd1120 2.682 . S
O1143 Nd1121 2.414 . S
O1143 C1129 1.273 . S
O1144 Nd1120 2.410 . S
O1144 C1130 1.251 . S
O1145 Nd1121 2.424 . S
O1145 C1130 1.268 . S
O1146 Nd1121 2.500 . S
O1146 C1131 1.258 . S
O1147 Nd1121 2.492 . S
O1147 C1131 1.239 . S
O1148 Nd1121 2.487 . S
O1148 C1138 1.241 . S
O1149 Nd1120 2.414 . S
O1149 Nd1121 2.682 . S
O1149 C1138 1.273 . S
O1150 Nd1121 2.410 . S
O1150 C1139 1.251 . S
O1151 Nd1120 2.424 . S
O1151 C1139 1.268 . S
H1152 C1124 0.930 . S
H1153 C1125 0.929 . S
H1154 C1127 0.930 . S
H1155 C1128 0.929 . S
H1156 C1133 0.930 . S
H1157 C1134 0.929 . S
H1158 C1136 0.930 . S
H1159 C1137 0.929 . S
Nd1160 C1162 2.836 . S
Nd1160 O1180 2.500 . S
Nd1160 O1181 2.492 . S
Nd1160 O1182 2.487 . S
Nd1160 O1183 2.682 . S
Nd1160 O1184 2.410 . S
Nd1160 O1189 2.414 . S
Nd1160 O1191 2.424 . S
Nd1161 C1171 2.836 . S
Nd1161 O1183 2.414 . S
Nd1161 O1185 2.424 . S
Nd1161 O1186 2.500 . S
Nd1161 O1187 2.492 . S
Nd1161 O1188 2.487 . S
Nd1161 O1189 2.682 . S
Nd1161 O1190 2.410 . S
C1162 Nd1160 2.836 . S
C1162 C1163 1.498 . S
C1162 O1180 1.258 . S
C1162 O1181 1.239 . S
C1163 C1162 1.498 . S
C1163 C1164 1.366 . S
C1163 C1168 1.407 . S
C1164 C1163 1.366 . S
C1164 C1165 1.392 . S
C1164 H1192 0.930 . S
C1165 C1164 1.392 . S
C1165 C1166 1.398 . S
C1165 H1193 0.929 . S
C1166 C1165 1.398 . S
C1166 C1167 1.352 . S
C1167 C1166 1.352 . S
C1167 C1168 1.384 . S
C1167 H1194 0.930 . S
C1168 C1163 1.407 . S
C1168 C1167 1.384 . S
C1168 H1195 0.929 . S
C1169 O1182 1.241 . S
C1169 O1183 1.273 . S
C1170 O1184 1.251 . S
C1170 O1185 1.268 . S
C1171 Nd1161 2.836 . S
C1171 C1172 1.498 . S
C1171 O1186 1.258 . S
C1171 O1187 1.239 . S
C1172 C1171 1.498 . S
C1172 C1173 1.366 . S
C1172 C1177 1.407 . S
C1173 C1172 1.366 . S
C1173 C1174 1.392 . S
C1173 H1196 0.930 . S
C1174 C1173 1.392 . S
C1174 C1175 1.398 . S
C1174 H1197 0.929 1_655 S
C1175 C1174 1.398 . S
C1175 C1176 1.352 . S
C1176 C1175 1.352 . S
C1176 C1177 1.384 . S
C1176 H1198 0.930 . S
C1177 C1172 1.407 . S
C1177 C1176 1.384 . S
C1177 H1199 0.929 . S
C1178 O1188 1.241 . S
C1178 O1189 1.273 . S
C1179 O1190 1.251 . S
C1179 O1191 1.268 . S
O1180 Nd1160 2.500 . S
O1180 C1162 1.258 . S
O1181 Nd1160 2.492 . S
O1181 C1162 1.239 . S
O1182 Nd1160 2.487 . S
O1182 C1169 1.241 . S
O1183 Nd1160 2.682 . S
O1183 Nd1161 2.414 . S
O1183 C1169 1.273 . S
O1184 Nd1160 2.410 . S
O1184 C1170 1.251 . S
O1185 Nd1161 2.424 . S
O1185 C1170 1.268 . S
O1186 Nd1161 2.500 . S
O1186 C1171 1.258 . S
O1187 Nd1161 2.492 . S
O1187 C1171 1.239 . S
O1188 Nd1161 2.487 . S
O1188 C1178 1.241 . S
O1189 Nd1160 2.414 . S
O1189 Nd1161 2.682 . S
O1189 C1178 1.273 . S
O1190 Nd1161 2.410 . S
O1190 C1179 1.251 . S
O1191 Nd1160 2.424 . S
O1191 C1179 1.268 . S
H1192 C1164 0.930 . S
H1193 C1165 0.929 . S
H1194 C1167 0.930 . S
H1195 C1168 0.929 . S
H1196 C1173 0.930 . S
H1197 C1174 0.929 1_455 S
H1198 C1176 0.930 . S
H1199 C1177 0.929 . S
Nd1200 C1202 2.836 . S
Nd1200 O1220 2.500 . S
Nd1200 O1221 2.492 . S
Nd1200 O1222 2.487 . S
Nd1200 O1223 2.682 . S
Nd1200 O1224 2.410 . S
Nd1200 O1229 2.414 . S
Nd1200 O1231 2.424 . S
Nd1201 C1211 2.836 . S
Nd1201 O1223 2.414 . S
Nd1201 O1225 2.424 . S
Nd1201 O1226 2.500 . S
Nd1201 O1227 2.492 . S
Nd1201 O1228 2.487 . S
Nd1201 O1229 2.682 . S
Nd1201 O1230 2.410 . S
C1202 Nd1200 2.836 . S
C1202 C1203 1.498 . S
C1202 O1220 1.258 . S
C1202 O1221 1.239 . S
C1203 C1202 1.498 . S
C1203 C1204 1.366 . S
C1203 C1208 1.407 . S
C1204 C1203 1.366 . S
C1204 C1205 1.392 . S
C1204 H1232 0.930 . S
C1205 C1204 1.392 . S
C1205 C1206 1.398 . S
C1205 H1233 0.929 . S
C1206 C1205 1.398 . S
C1206 C1207 1.352 . S
C1207 C1206 1.352 . S
C1207 C1208 1.384 . S
C1207 H1234 0.930 . S
C1208 C1203 1.407 . S
C1208 C1207 1.384 . S
C1208 H1235 0.929 . S
C1209 O1222 1.241 . S
C1209 O1223 1.273 . S
C1210 O1224 1.251 . S
C1210 O1225 1.268 . S
C1211 Nd1201 2.836 . S
C1211 C1212 1.498 . S
C1211 O1226 1.258 . S
C1211 O1227 1.239 . S
C1212 C1211 1.498 . S
C1212 C1213 1.366 1_565 S
C1212 C1217 1.407 . S
C1213 C1212 1.366 1_545 S
C1213 C1214 1.392 . S
C1213 H1236 0.930 . S
C1214 C1213 1.392 . S
C1214 C1215 1.398 . S
C1214 H1237 0.929 . S
C1215 C1214 1.398 . S
C1215 C1216 1.352 1_545 S
C1216 C1215 1.352 1_565 S
C1216 C1217 1.384 . S
C1216 H1238 0.930 . S
C1217 C1212 1.407 . S
C1217 C1216 1.384 . S
C1217 H1239 0.929 . S
C1218 O1228 1.241 . S
C1218 O1229 1.273 . S
C1219 O1230 1.251 . S
C1219 O1231 1.268 . S
O1220 Nd1200 2.500 . S
O1220 C1202 1.258 . S
O1221 Nd1200 2.492 . S
O1221 C1202 1.239 . S
O1222 Nd1200 2.487 . S
O1222 C1209 1.241 . S
O1223 Nd1200 2.682 . S
O1223 Nd1201 2.414 . S
O1223 C1209 1.273 . S
O1224 Nd1200 2.410 . S
O1224 C1210 1.251 . S
O1225 Nd1201 2.424 . S
O1225 C1210 1.268 . S
O1226 Nd1201 2.500 . S
O1226 C1211 1.258 . S
O1227 Nd1201 2.492 . S
O1227 C1211 1.239 . S
O1228 Nd1201 2.487 . S
O1228 C1218 1.241 . S
O1229 Nd1200 2.414 . S
O1229 Nd1201 2.682 . S
O1229 C1218 1.273 . S
O1230 Nd1201 2.410 . S
O1230 C1219 1.251 . S
O1231 Nd1200 2.424 . S
O1231 C1219 1.268 . S
H1232 C1204 0.930 . S
H1233 C1205 0.929 . S
H1234 C1207 0.930 . S
H1235 C1208 0.929 . S
H1236 C1213 0.930 . S
H1237 C1214 0.929 . S
H1238 C1216 0.930 . S
H1239 C1217 0.929 . S
Nd1240 C1242 2.836 . S
Nd1240 O1260 2.500 . S
Nd1240 O1261 2.492 . S
Nd1240 O1262 2.487 . S
Nd1240 O1263 2.682 . S
Nd1240 O1264 2.410 . S
Nd1240 O1269 2.414 . S
Nd1240 O1271 2.424 1_655 S
Nd1241 C1251 2.836 1_655 S
Nd1241 O1263 2.414 . S
Nd1241 O1265 2.424 . S
Nd1241 O1266 2.500 1_655 S
Nd1241 O1267 2.492 1_655 S
Nd1241 O1268 2.487 1_655 S
Nd1241 O1269 2.682 . S
Nd1241 O1270 2.410 1_655 S
C1242 Nd1240 2.836 . S
C1242 C1243 1.498 . S
C1242 O1260 1.258 . S
C1242 O1261 1.239 . S
C1243 C1242 1.498 . S
C1243 C1244 1.366 . S
C1243 C1248 1.407 . S
C1244 C1243 1.366 . S
C1244 C1245 1.392 . S
C1244 H1272 0.930 . S
C1245 C1244 1.392 . S
C1245 C1246 1.398 . S
C1245 H1273 0.929 . S
C1246 C1245 1.398 . S
C1246 C1247 1.352 . S
C1247 C1246 1.352 . S
C1247 C1248 1.384 . S
C1247 H1274 0.930 . S
C1248 C1243 1.407 . S
C1248 C1247 1.384 . S
C1248 H1275 0.929 . S
C1249 O1262 1.241 . S
C1249 O1263 1.273 . S
C1250 O1264 1.251 . S
C1250 O1265 1.268 . S
C1251 Nd1241 2.836 1_455 S
C1251 C1252 1.498 . S
C1251 O1266 1.258 . S
C1251 O1267 1.239 . S
C1252 C1251 1.498 . S
C1252 C1253 1.366 . S
C1252 C1257 1.407 . S
C1253 C1252 1.366 . S
C1253 C1254 1.392 . S
C1253 H1276 0.930 . S
C1254 C1253 1.392 . S
C1254 C1255 1.398 . S
C1254 H1277 0.929 . S
C1255 C1254 1.398 . S
C1255 C1256 1.352 . S
C1256 C1255 1.352 . S
C1256 C1257 1.384 . S
C1256 H1278 0.930 . S
C1257 C1252 1.407 . S
C1257 C1256 1.384 . S
C1257 H1279 0.929 . S
C1258 O1268 1.243 . S
C1258 O1269 1.270 1_455 S
C1259 O1270 1.251 . S
C1259 O1271 1.268 . S
O1260 Nd1240 2.500 . S
O1260 C1242 1.258 . S
O1261 Nd1240 2.492 . S
O1261 C1242 1.239 . S
O1262 Nd1240 2.487 . S
O1262 C1249 1.241 . S
O1263 Nd1240 2.682 . S
O1263 Nd1241 2.414 . S
O1263 C1249 1.273 . S
O1264 Nd1240 2.410 . S
O1264 C1250 1.251 . S
O1265 Nd1241 2.424 . S
O1265 C1250 1.268 . S
O1266 Nd1241 2.500 1_455 S
O1266 C1251 1.258 . S
O1267 Nd1241 2.492 1_455 S
O1267 C1251 1.239 . S
O1268 Nd1241 2.487 1_455 S
O1268 C1258 1.243 . S
O1269 Nd1240 2.414 . S
O1269 Nd1241 2.682 . S
O1269 C1258 1.270 1_655 S
O1270 Nd1241 2.410 1_455 S
O1270 C1259 1.251 . S
O1271 Nd1240 2.424 1_455 S
O1271 C1259 1.268 . S
H1272 C1244 0.930 . S
H1273 C1245 0.929 . S
H1274 C1247 0.930 . S
H1275 C1248 0.929 . S
H1276 C1253 0.930 . S
H1277 C1254 0.929 . S
H1278 C1256 0.930 . S
H1279 C1257 0.929 . S
Nd1280 C1282 2.836 . S
Nd1280 O1300 2.500 . S
Nd1280 O1301 2.492 . S
Nd1280 O1302 2.487 . S
Nd1280 O1303 2.682 . S
Nd1280 O1304 2.410 . S
Nd1280 O1309 2.414 . S
Nd1280 O1311 2.424 . S
Nd1281 C1291 2.836 . S
Nd1281 O1303 2.414 . S
Nd1281 O1305 2.424 . S
Nd1281 O1306 2.500 . S
Nd1281 O1307 2.492 . S
Nd1281 O1308 2.487 . S
Nd1281 O1309 2.682 . S
Nd1281 O1310 2.410 . S
C1282 Nd1280 2.836 . S
C1282 C1283 1.498 . S
C1282 O1300 1.258 . S
C1282 O1301 1.239 . S
C1283 C1282 1.498 . S
C1283 C1284 1.366 . S
C1283 C1288 1.407 . S
C1284 C1283 1.366 . S
C1284 C1285 1.392 . S
C1284 H1312 0.930 . S
C1285 C1284 1.392 . S
C1285 C1286 1.398 . S
C1285 H1313 0.929 . S
C1286 C1285 1.398 . S
C1286 C1287 1.352 . S
C1287 C1286 1.352 . S
C1287 C1288 1.384 . S
C1287 H1314 0.930 . S
C1288 C1283 1.407 . S
C1288 C1287 1.384 . S
C1288 H1315 0.929 . S
C1289 O1302 1.241 . S
C1289 O1303 1.273 . S
C1290 O1304 1.251 . S
C1290 O1305 1.268 . S
C1291 Nd1281 2.836 . S
C1291 C1292 1.498 . S
C1291 O1306 1.258 . S
C1291 O1307 1.239 . S
C1292 C1291 1.498 . S
C1292 C1293 1.366 . S
C1292 C1297 1.407 . S
C1293 C1292 1.366 . S
C1293 C1294 1.392 . S
C1293 H1316 0.930 . S
C1294 C1293 1.392 . S
C1294 C1295 1.398 . S
C1294 H1317 0.929 . S
C1295 C1294 1.398 . S
C1295 C1296 1.352 . S
C1296 C1295 1.352 . S
C1296 C1297 1.384 . S
C1296 H1318 0.930 . S
C1297 C1292 1.407 . S
C1297 C1296 1.384 . S
C1297 H1319 0.929 . S
C1298 O1308 1.241 . S
C1298 O1309 1.273 . S
C1299 O1310 1.251 . S
C1299 O1311 1.268 . S
O1300 Nd1280 2.500 . S
O1300 C1282 1.258 . S
O1301 Nd1280 2.492 . S
O1301 C1282 1.239 . S
O1302 Nd1280 2.487 . S
O1302 C1289 1.241 . S
O1303 Nd1280 2.682 . S
O1303 Nd1281 2.414 . S
O1303 C1289 1.273 . S
O1304 Nd1280 2.410 . S
O1304 C1290 1.251 . S
O1305 Nd1281 2.424 . S
O1305 C1290 1.268 . S
O1306 Nd1281 2.500 . S
O1306 C1291 1.258 . S
O1307 Nd1281 2.492 . S
O1307 C1291 1.239 . S
O1308 Nd1281 2.487 . S
O1308 C1298 1.241 . S
O1309 Nd1280 2.414 . S
O1309 Nd1281 2.682 . S
O1309 C1298 1.273 . S
O1310 Nd1281 2.410 . S
O1310 C1299 1.251 . S
O1311 Nd1280 2.424 . S
O1311 C1299 1.268 . S
H1312 C1284 0.930 . S
H1313 C1285 0.929 . S
H1314 C1287 0.930 . S
H1315 C1288 0.929 . S
H1316 C1293 0.930 . S
H1317 C1294 0.929 . S
H1318 C1296 0.930 . S
H1319 C1297 0.929 . S
Nd1320 C1322 2.836 . S
Nd1320 O1340 2.500 . S
Nd1320 O1341 2.492 . S
Nd1320 O1342 2.487 . S
Nd1320 O1343 2.682 . S
Nd1320 O1344 2.410 . S
Nd1320 O1349 2.414 . S
Nd1320 O1351 2.424 . S
Nd1321 C1331 2.836 . S
Nd1321 O1343 2.414 . S
Nd1321 O1345 2.424 . S
Nd1321 O1346 2.500 . S
Nd1321 O1347 2.492 . S
Nd1321 O1348 2.487 . S
Nd1321 O1349 2.682 . S
Nd1321 O1350 2.410 . S
C1322 Nd1320 2.836 . S
C1322 C1323 1.498 . S
C1322 O1340 1.258 . S
C1322 O1341 1.239 . S
C1323 C1322 1.498 . S
C1323 C1324 1.366 . S
C1323 C1328 1.407 . S
C1324 C1323 1.366 . S
C1324 C1325 1.392 . S
C1324 H1352 0.930 . S
C1325 C1324 1.392 . S
C1325 C1326 1.398 . S
C1325 H1353 0.929 . S
C1326 C1325 1.398 . S
C1326 C1327 1.352 . S
C1327 C1326 1.352 . S
C1327 C1328 1.384 . S
C1327 H1354 0.930 . S
C1328 C1323 1.407 . S
C1328 C1327 1.384 . S
C1328 H1355 0.929 . S
C1329 O1342 1.241 . S
C1329 O1343 1.273 . S
C1330 O1344 1.251 . S
C1330 O1345 1.268 . S
C1331 Nd1321 2.836 . S
C1331 C1332 1.498 . S
C1331 O1346 1.258 . S
C1331 O1347 1.239 . S
C1332 C1331 1.498 . S
C1332 C1333 1.366 . S
C1332 C1337 1.407 . S
C1333 C1332 1.366 . S
C1333 C1334 1.392 . S
C1333 H1356 0.930 . S
C1334 C1333 1.392 . S
C1334 C1335 1.398 . S
C1334 H1357 0.929 . S
C1335 C1334 1.398 . S
C1335 C1336 1.352 . S
C1336 C1335 1.352 . S
C1336 C1337 1.384 . S
C1336 H1358 0.930 1_556 S
C1337 C1332 1.407 . S
C1337 C1336 1.384 . S
C1337 H1359 0.931 . S
C1338 O1348 1.241 . S
C1338 O1349 1.273 . S
C1339 O1350 1.251 . S
C1339 O1351 1.268 . S
O1340 Nd1320 2.500 . S
O1340 C1322 1.258 . S
O1341 Nd1320 2.492 . S
O1341 C1322 1.239 . S
O1342 Nd1320 2.487 . S
O1342 C1329 1.241 . S
O1343 Nd1320 2.682 . S
O1343 Nd1321 2.414 . S
O1343 C1329 1.273 . S
O1344 Nd1320 2.410 . S
O1344 C1330 1.251 . S
O1345 Nd1321 2.424 . S
O1345 C1330 1.268 . S
O1346 Nd1321 2.500 . S
O1346 C1331 1.258 . S
O1347 Nd1321 2.492 . S
O1347 C1331 1.239 . S
O1348 Nd1321 2.487 . S
O1348 C1338 1.241 . S
O1349 Nd1320 2.414 . S
O1349 Nd1321 2.682 . S
O1349 C1338 1.273 . S
O1350 Nd1321 2.410 . S
O1350 C1339 1.251 . S
O1351 Nd1320 2.424 . S
O1351 C1339 1.268 . S
H1352 C1324 0.930 . S
H1353 C1325 0.929 . S
H1354 C1327 0.930 . S
H1355 C1328 0.929 . S
H1356 C1333 0.930 . S
H1357 C1334 0.929 . S
H1358 C1336 0.930 1_554 S
H1359 C1337 0.931 . S
Nd1360 C1362 2.836 . S
Nd1360 O1380 2.500 . S
Nd1360 O1381 2.492 . S
Nd1360 O1382 2.487 . S
Nd1360 O1383 2.682 . S
Nd1360 O1384 2.410 . S
Nd1360 O1389 2.414 . S
Nd1360 O1391 2.424 . S
Nd1361 C1371 2.836 . S
Nd1361 O1383 2.414 . S
Nd1361 O1385 2.424 . S
Nd1361 O1386 2.500 . S
Nd1361 O1387 2.492 . S
Nd1361 O1388 2.487 . S
Nd1361 O1389 2.682 . S
Nd1361 O1390 2.410 . S
C1362 Nd1360 2.836 . S
C1362 C1363 1.498 . S
C1362 O1380 1.258 . S
C1362 O1381 1.239 . S
C1363 C1362 1.498 . S
C1363 C1364 1.366 . S
C1363 C1368 1.407 . S
C1364 C1363 1.366 . S
C1364 C1365 1.392 . S
C1364 H1392 0.930 . S
C1365 C1364 1.392 . S
C1365 C1366 1.398 . S
C1365 H1393 0.929 . S
C1366 C1365 1.398 . S
C1366 C1367 1.352 . S
C1367 C1366 1.352 . S
C1367 C1368 1.384 . S
C1367 H1394 0.930 . S
C1368 C1363 1.407 . S
C1368 C1367 1.384 . S
C1368 H1395 0.929 . S
C1369 O1382 1.241 . S
C1369 O1383 1.273 . S
C1370 O1384 1.251 . S
C1370 O1385 1.268 . S
C1371 Nd1361 2.836 . S
C1371 C1372 1.498 . S
C1371 O1386 1.258 . S
C1371 O1387 1.239 . S
C1372 C1371 1.498 . S
C1372 C1373 1.366 . S
C1372 C1377 1.407 . S
C1373 C1372 1.366 . S
C1373 C1374 1.392 . S
C1373 H1396 0.930 . S
C1374 C1373 1.392 . S
C1374 C1375 1.398 . S
C1374 H1397 0.929 . S
C1375 C1374 1.398 . S
C1375 C1376 1.352 . S
C1376 C1375 1.352 . S
C1376 C1377 1.384 . S
C1376 H1398 0.930 . S
C1377 C1372 1.407 . S
C1377 C1376 1.384 . S
C1377 H1399 0.929 . S
C1378 O1388 1.241 . S
C1378 O1389 1.273 . S
C1379 O1390 1.251 . S
C1379 O1391 1.268 . S
O1380 Nd1360 2.500 . S
O1380 C1362 1.258 . S
O1381 Nd1360 2.492 . S
O1381 C1362 1.239 . S
O1382 Nd1360 2.487 . S
O1382 C1369 1.241 . S
O1383 Nd1360 2.682 . S
O1383 Nd1361 2.414 . S
O1383 C1369 1.273 . S
O1384 Nd1360 2.410 . S
O1384 C1370 1.251 . S
O1385 Nd1361 2.424 . S
O1385 C1370 1.268 . S
O1386 Nd1361 2.500 . S
O1386 C1371 1.258 . S
O1387 Nd1361 2.492 . S
O1387 C1371 1.239 . S
O1388 Nd1361 2.487 . S
O1388 C1378 1.241 . S
O1389 Nd1360 2.414 . S
O1389 Nd1361 2.682 . S
O1389 C1378 1.273 . S
O1390 Nd1361 2.410 . S
O1390 C1379 1.251 . S
O1391 Nd1360 2.424 . S
O1391 C1379 1.268 . S
H1392 C1364 0.930 . S
H1393 C1365 0.929 . S
H1394 C1367 0.930 . S
H1395 C1368 0.929 . S
H1396 C1373 0.930 . S
H1397 C1374 0.929 . S
H1398 C1376 0.930 . S
H1399 C1377 0.929 . S
Nd1400 C1402 2.836 . S
Nd1400 O1420 2.500 . S
Nd1400 O1421 2.492 . S
Nd1400 O1422 2.487 . S
Nd1400 O1423 2.682 . S
Nd1400 O1424 2.410 . S
Nd1400 O1429 2.414 . S
Nd1400 O1431 2.424 . S
Nd1401 C1411 2.836 . S
Nd1401 O1423 2.414 . S
Nd1401 O1425 2.424 . S
Nd1401 O1426 2.500 . S
Nd1401 O1427 2.492 . S
Nd1401 O1428 2.487 . S
Nd1401 O1429 2.682 . S
Nd1401 O1430 2.410 . S
C1402 Nd1400 2.836 . S
C1402 C1403 1.498 . S
C1402 O1420 1.258 . S
C1402 O1421 1.239 . S
C1403 C1402 1.498 . S
C1403 C1404 1.366 . S
C1403 C1408 1.407 . S
C1404 C1403 1.366 . S
C1404 C1405 1.392 . S
C1404 H1432 0.930 . S
C1405 C1404 1.392 . S
C1405 C1406 1.398 . S
C1405 H1433 0.929 . S
C1406 C1405 1.398 . S
C1406 C1407 1.352 . S
C1407 C1406 1.352 . S
C1407 C1408 1.384 . S
C1407 H1434 0.930 . S
C1408 C1403 1.407 . S
C1408 C1407 1.384 . S
C1408 H1435 0.929 . S
C1409 O1422 1.241 . S
C1409 O1423 1.273 . S
C1410 O1424 1.251 . S
C1410 O1425 1.268 . S
C1411 Nd1401 2.836 . S
C1411 C1412 1.498 . S
C1411 O1426 1.258 . S
C1411 O1427 1.239 . S
C1412 C1411 1.498 . S
C1412 C1413 1.366 . S
C1412 C1417 1.407 . S
C1413 C1412 1.366 . S
C1413 C1414 1.392 . S
C1413 H1436 0.930 . S
C1414 C1413 1.392 . S
C1414 C1415 1.398 . S
C1414 H1437 0.929 1_556 S
C1415 C1414 1.398 . S
C1415 C1416 1.352 . S
C1416 C1415 1.352 . S
C1416 C1417 1.384 . S
C1416 H1438 0.930 . S
C1417 C1412 1.407 . S
C1417 C1416 1.384 . S
C1417 H1439 0.929 . S
C1418 O1428 1.241 . S
C1418 O1429 1.273 . S
C1419 O1430 1.251 . S
C1419 O1431 1.268 . S
O1420 Nd1400 2.500 . S
O1420 C1402 1.258 . S
O1421 Nd1400 2.492 . S
O1421 C1402 1.239 . S
O1422 Nd1400 2.487 . S
O1422 C1409 1.241 . S
O1423 Nd1400 2.682 . S
O1423 Nd1401 2.414 . S
O1423 C1409 1.273 . S
O1424 Nd1400 2.410 . S
O1424 C1410 1.251 . S
O1425 Nd1401 2.424 . S
O1425 C1410 1.268 . S
O1426 Nd1401 2.500 . S
O1426 C1411 1.258 . S
O1427 Nd1401 2.492 . S
O1427 C1411 1.239 . S
O1428 Nd1401 2.487 . S
O1428 C1418 1.241 . S
O1429 Nd1400 2.414 . S
O1429 Nd1401 2.682 . S
O1429 C1418 1.273 . S
O1430 Nd1401 2.410 . S
O1430 C1419 1.251 . S
O1431 Nd1400 2.424 . S
O1431 C1419 1.268 . S
H1432 C1404 0.930 . S
H1433 C1405 0.929 . S
H1434 C1407 0.930 . S
H1435 C1408 0.929 . S
H1436 C1413 0.930 . S
H1437 C1414 0.929 1_554 S
H1438 C1416 0.930 . S
H1439 C1417 0.929 . S
Nd1440 C1442 2.836 . S
Nd1440 O1460 2.500 . S
Nd1440 O1461 2.492 . S
Nd1440 O1462 2.487 . S
Nd1440 O1463 2.682 . S
Nd1440 O1464 2.410 . S
Nd1440 O1469 2.414 . S
Nd1440 O1471 2.424 . S
Nd1441 C1451 2.836 . S
Nd1441 O1463 2.414 . S
Nd1441 O1465 2.424 . S
Nd1441 O1466 2.500 . S
Nd1441 O1467 2.492 . S
Nd1441 O1468 2.487 . S
Nd1441 O1469 2.682 . S
Nd1441 O1470 2.410 . S
C1442 Nd1440 2.836 . S
C1442 C1443 1.498 . S
C1442 O1460 1.258 . S
C1442 O1461 1.239 . S
C1443 C1442 1.498 . S
C1443 C1444 1.366 . S
C1443 C1448 1.407 . S
C1444 C1443 1.366 . S
C1444 C1445 1.392 . S
C1444 H1472 0.930 . S
C1445 C1444 1.392 . S
C1445 C1446 1.398 . S
C1445 H1473 0.929 . S
C1446 C1445 1.398 . S
C1446 C1447 1.352 . S
C1447 C1446 1.352 . S
C1447 C1448 1.384 . S
C1447 H1474 0.930 . S
C1448 C1443 1.407 . S
C1448 C1447 1.384 . S
C1448 H1475 0.929 . S
C1449 O1462 1.241 . S
C1449 O1463 1.273 . S
C1450 O1464 1.251 . S
C1450 O1465 1.268 . S
C1451 Nd1441 2.836 . S
C1451 C1452 1.498 . S
C1451 O1466 1.258 . S
C1451 O1467 1.239 . S
C1452 C1451 1.498 . S
C1452 C1453 1.366 . S
C1452 C1457 1.407 . S
C1453 C1452 1.366 . S
C1453 C1454 1.392 . S
C1453 H1476 0.930 . S
C1454 C1453 1.392 . S
C1454 C1455 1.398 . S
C1454 H1477 0.929 . S
C1455 C1454 1.398 . S
C1455 C1456 1.352 . S
C1456 C1455 1.352 . S
C1456 C1457 1.384 . S
C1456 H1478 0.930 . S
C1457 C1452 1.407 . S
C1457 C1456 1.384 . S
C1457 H1479 0.929 . S
C1458 O1468 1.241 . S
C1458 O1469 1.273 . S
C1459 O1470 1.251 . S
C1459 O1471 1.268 . S
O1460 Nd1440 2.500 . S
O1460 C1442 1.258 . S
O1461 Nd1440 2.492 . S
O1461 C1442 1.239 . S
O1462 Nd1440 2.487 . S
O1462 C1449 1.241 . S
O1463 Nd1440 2.682 . S
O1463 Nd1441 2.414 . S
O1463 C1449 1.273 . S
O1464 Nd1440 2.410 . S
O1464 C1450 1.251 . S
O1465 Nd1441 2.424 . S
O1465 C1450 1.268 . S
O1466 Nd1441 2.500 . S
O1466 C1451 1.258 . S
O1467 Nd1441 2.492 . S
O1467 C1451 1.239 . S
O1468 Nd1441 2.487 . S
O1468 C1458 1.241 . S
O1469 Nd1440 2.414 . S
O1469 Nd1441 2.682 . S
O1469 C1458 1.273 . S
O1470 Nd1441 2.410 . S
O1470 C1459 1.251 . S
O1471 Nd1440 2.424 . S
O1471 C1459 1.268 . S
H1472 C1444 0.930 . S
H1473 C1445 0.929 . S
H1474 C1447 0.930 . S
H1475 C1448 0.929 . S
H1476 C1453 0.930 . S
H1477 C1454 0.929 . S
H1478 C1456 0.930 . S
H1479 C1457 0.929 . S
Nd1480 C1482 2.836 . S
Nd1480 O1500 2.500 . S
Nd1480 O1501 2.492 . S
Nd1480 O1502 2.487 . S
Nd1480 O1503 2.682 . S
Nd1480 O1504 2.410 . S
Nd1480 O1509 2.414 . S
Nd1480 O1511 2.424 . S
Nd1481 C1491 2.836 . S
Nd1481 O1503 2.414 . S
Nd1481 O1505 2.424 . S
Nd1481 O1506 2.500 . S
Nd1481 O1507 2.492 . S
Nd1481 O1508 2.487 . S
Nd1481 O1509 2.682 . S
Nd1481 O1510 2.410 . S
C1482 Nd1480 2.836 . S
C1482 C1483 1.498 . S
C1482 O1500 1.258 . S
C1482 O1501 1.239 . S
C1483 C1482 1.498 . S
C1483 C1484 1.366 . S
C1483 C1488 1.407 . S
C1484 C1483 1.366 . S
C1484 C1485 1.392 . S
C1484 H1512 0.930 . S
C1485 C1484 1.392 . S
C1485 C1486 1.398 . S
C1485 H1513 0.929 . S
C1486 C1485 1.398 . S
C1486 C1487 1.352 . S
C1487 C1486 1.352 . S
C1487 C1488 1.384 . S
C1487 H1514 0.930 . S
C1488 C1483 1.407 . S
C1488 C1487 1.384 . S
C1488 H1515 0.929 . S
C1489 O1502 1.241 . S
C1489 O1503 1.273 . S
C1490 O1504 1.251 . S
C1490 O1505 1.268 . S
C1491 Nd1481 2.836 . S
C1491 C1492 1.498 . S
C1491 O1506 1.258 . S
C1491 O1507 1.239 . S
C1492 C1491 1.498 . S
C1492 C1493 1.366 . S
C1492 C1497 1.407 . S
C1493 C1492 1.366 . S
C1493 C1494 1.392 . S
C1493 H1516 0.930 . S
C1494 C1493 1.392 . S
C1494 C1495 1.398 . S
C1494 H1517 0.929 . S
C1495 C1494 1.398 . S
C1495 C1496 1.352 . S
C1496 C1495 1.352 . S
C1496 C1497 1.384 . S
C1496 H1518 0.930 . S
C1497 C1492 1.407 . S
C1497 C1496 1.384 . S
C1497 H1519 0.929 . S
C1498 O1508 1.241 . S
C1498 O1509 1.273 . S
C1499 O1510 1.251 . S
C1499 O1511 1.268 . S
O1500 Nd1480 2.500 . S
O1500 C1482 1.258 . S
O1501 Nd1480 2.492 . S
O1501 C1482 1.239 . S
O1502 Nd1480 2.487 . S
O1502 C1489 1.241 . S
O1503 Nd1480 2.682 . S
O1503 Nd1481 2.414 . S
O1503 C1489 1.273 . S
O1504 Nd1480 2.410 . S
O1504 C1490 1.251 . S
O1505 Nd1481 2.424 . S
O1505 C1490 1.268 . S
O1506 Nd1481 2.500 . S
O1506 C1491 1.258 . S
O1507 Nd1481 2.492 . S
O1507 C1491 1.239 . S
O1508 Nd1481 2.487 . S
O1508 C1498 1.241 . S
O1509 Nd1480 2.414 . S
O1509 Nd1481 2.682 . S
O1509 C1498 1.273 . S
O1510 Nd1481 2.410 . S
O1510 C1499 1.251 . S
O1511 Nd1480 2.424 . S
O1511 C1499 1.268 . S
H1512 C1484 0.930 . S
H1513 C1485 0.929 . S
H1514 C1487 0.930 . S
H1515 C1488 0.929 . S
H1516 C1493 0.930 . S
H1517 C1494 0.929 . S
H1518 C1496 0.930 . S
H1519 C1497 0.929 . S
Nd1520 C1522 2.836 . S
Nd1520 O1540 2.500 . S
Nd1520 O1541 2.492 . S
Nd1520 O1542 2.487 . S
Nd1520 O1543 2.682 . S
Nd1520 O1544 2.410 . S
Nd1520 O1549 2.414 . S
Nd1520 O1551 2.424 . S
Nd1521 C1531 2.836 . S
Nd1521 O1543 2.414 . S
Nd1521 O1545 2.424 . S
Nd1521 O1546 2.500 . S
Nd1521 O1547 2.492 . S
Nd1521 O1548 2.487 . S
Nd1521 O1549 2.682 . S
Nd1521 O1550 2.410 . S
C1522 Nd1520 2.836 . S
C1522 C1523 1.498 . S
C1522 O1540 1.258 . S
C1522 O1541 1.239 . S
C1523 C1522 1.498 . S
C1523 C1524 1.366 . S
C1523 C1528 1.407 . S
C1524 C1523 1.366 . S
C1524 C1525 1.392 . S
C1524 H1552 0.930 . S
C1525 C1524 1.392 . S
C1525 C1526 1.398 . S
C1525 H1553 0.929 . S
C1526 C1525 1.398 . S
C1526 C1527 1.352 . S
C1527 C1526 1.352 . S
C1527 C1528 1.384 . S
C1527 H1554 0.930 . S
C1528 C1523 1.407 . S
C1528 C1527 1.384 . S
C1528 H1555 0.929 . S
C1529 O1542 1.241 . S
C1529 O1543 1.273 . S
C1530 O1544 1.251 . S
C1530 O1545 1.268 . S
C1531 Nd1521 2.836 . S
C1531 C1532 1.498 . S
C1531 O1546 1.258 . S
C1531 O1547 1.239 . S
C1532 C1531 1.498 . S
C1532 C1533 1.366 . S
C1532 C1537 1.407 . S
C1533 C1532 1.366 . S
C1533 C1534 1.392 . S
C1533 H1556 0.930 . S
C1534 C1533 1.392 . S
C1534 C1535 1.398 . S
C1534 H1557 0.929 . S
C1535 C1534 1.398 . S
C1535 C1536 1.352 . S
C1536 C1535 1.352 . S
C1536 C1537 1.384 . S
C1536 H1558 0.930 . S
C1537 C1532 1.407 . S
C1537 C1536 1.384 . S
C1537 H1559 0.929 . S
C1538 O1548 1.241 . S
C1538 O1549 1.273 . S
C1539 O1550 1.251 . S
C1539 O1551 1.268 . S
O1540 Nd1520 2.500 . S
O1540 C1522 1.258 . S
O1541 Nd1520 2.492 . S
O1541 C1522 1.239 . S
O1542 Nd1520 2.487 . S
O1542 C1529 1.241 . S
O1543 Nd1520 2.682 . S
O1543 Nd1521 2.414 . S
O1543 C1529 1.273 . S
O1544 Nd1520 2.410 . S
O1544 C1530 1.251 . S
O1545 Nd1521 2.424 . S
O1545 C1530 1.268 . S
O1546 Nd1521 2.500 . S
O1546 C1531 1.258 . S
O1547 Nd1521 2.492 . S
O1547 C1531 1.239 . S
O1548 Nd1521 2.487 . S
O1548 C1538 1.241 . S
O1549 Nd1520 2.414 . S
O1549 Nd1521 2.682 . S
O1549 C1538 1.273 . S
O1550 Nd1521 2.410 . S
O1550 C1539 1.251 . S
O1551 Nd1520 2.424 . S
O1551 C1539 1.268 . S
H1552 C1524 0.930 . S
H1553 C1525 0.929 . S
H1554 C1527 0.930 . S
H1555 C1528 0.929 . S
H1556 C1533 0.930 . S
H1557 C1534 0.929 . S
H1558 C1536 0.930 . S
H1559 C1537 0.929 . S
Nd1560 C1562 2.836 . S
Nd1560 O1580 2.500 . S
Nd1560 O1581 2.492 . S
Nd1560 O1582 2.487 . S
Nd1560 O1583 2.682 . S
Nd1560 O1584 2.410 . S
Nd1560 O1589 2.414 . S
Nd1560 O1591 2.424 . S
Nd1561 C1571 2.836 . S
Nd1561 O1583 2.414 . S
Nd1561 O1585 2.424 . S
Nd1561 O1586 2.500 . S
Nd1561 O1587 2.492 . S
Nd1561 O1588 2.487 . S
Nd1561 O1589 2.682 . S
Nd1561 O1590 2.410 . S
C1562 Nd1560 2.836 . S
C1562 C1563 1.498 1_545 S
C1562 O1580 1.258 . S
C1562 O1581 1.239 . S
C1563 C1562 1.498 1_565 S
C1563 C1564 1.366 . S
C1563 C1568 1.399 1_565 S
C1564 C1563 1.366 . S
C1564 C1565 1.392 . S
C1564 H1592 0.930 . S
C1565 C1564 1.392 . S
C1565 C1566 1.398 . S
C1565 H1593 0.929 . S
C1566 C1565 1.398 . S
C1566 C1567 1.352 . S
C1567 C1566 1.352 . S
C1567 C1568 1.345 1_565 S
C1567 H1594 0.930 . S
C1568 C1563 1.399 1_545 S
C1568 C1567 1.345 1_545 S
C1568 H1595 0.979 . S
C1569 O1582 1.241 . S
C1569 O1583 1.273 . S
C1570 O1584 1.251 . S
C1570 O1585 1.268 . S
C1571 Nd1561 2.836 . S
C1571 C1572 1.498 . S
C1571 O1586 1.258 . S
C1571 O1587 1.239 . S
C1572 C1571 1.498 . S
C1572 C1573 1.366 . S
C1572 C1577 1.407 . S
C1573 C1572 1.366 . S
C1573 C1574 1.392 . S
C1573 H1596 0.930 . S
C1574 C1573 1.392 . S
C1574 C1575 1.398 . S
C1574 H1597 0.929 . S
C1575 C1574 1.398 . S
C1575 C1576 1.352 . S
C1576 C1575 1.352 . S
C1576 C1577 1.384 . S
C1576 H1598 0.930 . S
C1577 C1572 1.407 . S
C1577 C1576 1.384 . S
C1577 H1599 0.929 . S
C1578 O1588 1.241 . S
C1578 O1589 1.273 . S
C1579 O1590 1.251 . S
C1579 O1591 1.268 . S
O1580 Nd1560 2.500 . S
O1580 C1562 1.258 . S
O1581 Nd1560 2.492 . S
O1581 C1562 1.239 . S
O1582 Nd1560 2.487 . S
O1582 C1569 1.241 . S
O1583 Nd1560 2.682 . S
O1583 Nd1561 2.414 . S
O1583 C1569 1.273 . S
O1584 Nd1560 2.410 . S
O1584 C1570 1.251 . S
O1585 Nd1561 2.424 . S
O1585 C1570 1.268 . S
O1586 Nd1561 2.500 . S
O1586 C1571 1.258 . S
O1587 Nd1561 2.492 . S
O1587 C1571 1.239 . S
O1588 Nd1561 2.487 . S
O1588 C1578 1.241 . S
O1589 Nd1560 2.414 . S
O1589 Nd1561 2.682 . S
O1589 C1578 1.273 . S
O1590 Nd1561 2.410 . S
O1590 C1579 1.251 . S
O1591 Nd1560 2.424 . S
O1591 C1579 1.268 . S
H1592 C1564 0.930 . S
H1593 C1565 0.929 . S
H1594 C1567 0.930 . S
H1595 C1568 0.979 . S
H1596 C1573 0.930 . S
H1597 C1574 0.929 . S
H1598 C1576 0.930 . S
H1599 C1577 0.929 . S
Nd1600 C1602 2.836 1_455 S
Nd1600 O1620 2.500 . S
Nd1600 O1621 2.492 1_455 S
Nd1600 O1622 2.485 1_455 S
Nd1600 O1623 2.682 . S
Nd1600 O1624 2.410 1_455 S
Nd1600 O1629 2.414 . S
Nd1600 O1631 2.424 . S
Nd1601 C1611 2.836 . S
Nd1601 O1623 2.414 . S
Nd1601 O1625 2.424 . S
Nd1601 O1626 2.500 . S
Nd1601 O1627 2.492 . S
Nd1601 O1628 2.487 . S
Nd1601 O1629 2.682 . S
Nd1601 O1630 2.410 . S
C1602 Nd1600 2.836 1_655 S
C1602 C1603 1.498 . S
C1602 O1620 1.258 1_655 S
C1602 O1621 1.239 . S
C1603 C1602 1.498 . S
C1603 C1604 1.366 . S
C1603 C1608 1.407 . S
C1604 C1603 1.366 . S
C1604 C1605 1.392 . S
C1604 H1632 0.930 . S
C1605 C1604 1.392 . S
C1605 C1606 1.398 . S
C1605 H1633 0.929 . S
C1606 C1605 1.398 . S
C1606 C1607 1.352 . S
C1607 C1606 1.352 . S
C1607 C1608 1.384 . S
C1607 H1634 0.930 . S
C1608 C1603 1.407 . S
C1608 C1607 1.384 . S
C1608 H1635 0.929 . S
C1609 O1622 1.239 1_455 S
C1609 O1623 1.273 . S
C1610 O1624 1.251 . S
C1610 O1625 1.268 1_655 S
C1611 Nd1601 2.836 . S
C1611 C1612 1.498 . S
C1611 O1626 1.258 . S
C1611 O1627 1.239 . S
C1612 C1611 1.498 . S
C1612 C1613 1.366 . S
C1612 C1617 1.407 . S
C1613 C1612 1.366 . S
C1613 C1614 1.392 . S
C1613 H1636 0.930 . S
C1614 C1613 1.392 . S
C1614 C1615 1.398 . S
C1614 H1637 0.929 . S
C1615 C1614 1.398 . S
C1615 C1616 1.352 . S
C1616 C1615 1.352 . S
C1616 C1617 1.384 . S
C1616 H1638 0.930 . S
C1617 C1612 1.407 . S
C1617 C1616 1.384 . S
C1617 H1639 0.929 . S
C1618 O1628 1.241 . S
C1618 O1629 1.273 . S
C1619 O1630 1.251 . S
C1619 O1631 1.268 . S
O1620 Nd1600 2.500 . S
O1620 C1602 1.258 1_455 S
O1621 Nd1600 2.492 1_655 S
O1621 C1602 1.239 . S
O1622 Nd1600 2.485 1_655 S
O1622 C1609 1.239 1_655 S
O1623 Nd1600 2.682 . S
O1623 Nd1601 2.414 . S
O1623 C1609 1.273 . S
O1624 Nd1600 2.410 1_655 S
O1624 C1610 1.251 . S
O1625 Nd1601 2.424 . S
O1625 C1610 1.268 1_455 S
O1626 Nd1601 2.500 . S
O1626 C1611 1.258 . S
O1627 Nd1601 2.492 . S
O1627 C1611 1.239 . S
O1628 Nd1601 2.487 . S
O1628 C1618 1.241 . S
O1629 Nd1600 2.414 . S
O1629 Nd1601 2.682 . S
O1629 C1618 1.273 . S
O1630 Nd1601 2.410 . S
O1630 C1619 1.251 . S
O1631 Nd1600 2.424 . S
O1631 C1619 1.268 . S
H1632 C1604 0.930 . S
H1633 C1605 0.929 . S
H1634 C1607 0.930 . S
H1635 C1608 0.929 . S
H1636 C1613 0.930 . S
H1637 C1614 0.929 . S
H1638 C1616 0.930 . S
H1639 C1617 0.929 . S
Nd1640 C1642 2.836 . S
Nd1640 O1660 2.500 . S
Nd1640 O1661 2.492 . S
Nd1640 O1662 2.487 . S
Nd1640 O1663 2.682 . S
Nd1640 O1664 2.410 . S
Nd1640 O1669 2.414 . S
Nd1640 O1671 2.424 . S
Nd1641 C1651 2.836 . S
Nd1641 O1663 2.414 . S
Nd1641 O1665 2.424 . S
Nd1641 O1666 2.500 . S
Nd1641 O1667 2.492 . S
Nd1641 O1668 2.487 . S
Nd1641 O1669 2.682 . S
Nd1641 O1670 2.410 . S
C1642 Nd1640 2.836 . S
C1642 C1643 1.498 . S
C1642 O1660 1.258 . S
C1642 O1661 1.239 . S
C1643 C1642 1.498 . S
C1643 C1644 1.366 . S
C1643 C1648 1.407 . S
C1644 C1643 1.366 . S
C1644 C1645 1.392 . S
C1644 H1672 0.930 . S
C1645 C1644 1.392 . S
C1645 C1646 1.398 . S
C1645 H1673 0.929 . S
C1646 C1645 1.398 . S
C1646 C1647 1.352 . S
C1647 C1646 1.352 . S
C1647 C1648 1.384 . S
C1647 H1674 0.930 . S
C1648 C1643 1.407 . S
C1648 C1647 1.384 . S
C1648 H1675 0.929 . S
C1649 O1662 1.241 . S
C1649 O1663 1.273 . S
C1650 O1664 1.251 . S
C1650 O1665 1.268 . S
C1651 Nd1641 2.836 . S
C1651 C1652 1.498 . S
C1651 O1666 1.258 . S
C1651 O1667 1.239 . S
C1652 C1651 1.498 . S
C1652 C1653 1.366 . S
C1652 C1657 1.407 . S
C1653 C1652 1.366 . S
C1653 C1654 1.392 . S
C1653 H1676 0.930 . S
C1654 C1653 1.392 . S
C1654 C1655 1.398 . S
C1654 H1677 0.929 . S
C1655 C1654 1.398 . S
C1655 C1656 1.352 . S
C1656 C1655 1.352 . S
C1656 C1657 1.384 . S
C1656 H1678 0.930 . S
C1657 C1652 1.407 . S
C1657 C1656 1.384 . S
C1657 H1679 0.929 . S
C1658 O1668 1.241 . S
C1658 O1669 1.273 . S
C1659 O1670 1.251 . S
C1659 O1671 1.268 . S
O1660 Nd1640 2.500 . S
O1660 C1642 1.258 . S
O1661 Nd1640 2.492 . S
O1661 C1642 1.239 . S
O1662 Nd1640 2.487 . S
O1662 C1649 1.241 . S
O1663 Nd1640 2.682 . S
O1663 Nd1641 2.414 . S
O1663 C1649 1.273 . S
O1664 Nd1640 2.410 . S
O1664 C1650 1.251 . S
O1665 Nd1641 2.424 . S
O1665 C1650 1.268 . S
O1666 Nd1641 2.500 . S
O1666 C1651 1.258 . S
O1667 Nd1641 2.492 . S
O1667 C1651 1.239 . S
O1668 Nd1641 2.487 . S
O1668 C1658 1.241 . S
O1669 Nd1640 2.414 . S
O1669 Nd1641 2.682 . S
O1669 C1658 1.273 . S
O1670 Nd1641 2.410 . S
O1670 C1659 1.251 . S
O1671 Nd1640 2.424 . S
O1671 C1659 1.268 . S
H1672 C1644 0.930 . S
H1673 C1645 0.929 . S
H1674 C1647 0.930 . S
H1675 C1648 0.929 . S
H1676 C1653 0.930 . S
H1677 C1654 0.929 . S
H1678 C1656 0.930 . S
H1679 C1657 0.929 . S
Nd1680 C1682 2.836 . S
Nd1680 O1700 2.500 . S
Nd1680 O1701 2.492 . S
Nd1680 O1702 2.487 . S
Nd1680 O1703 2.682 . S
Nd1680 O1704 2.410 . S
Nd1680 O1709 2.414 . S
Nd1680 O1711 2.424 . S
Nd1681 C1691 2.836 . S
Nd1681 O1703 2.414 . S
Nd1681 O1705 2.424 . S
Nd1681 O1706 2.500 . S
Nd1681 O1707 2.492 . S
Nd1681 O1708 2.487 . S
Nd1681 O1709 2.682 . S
Nd1681 O1710 2.410 . S
C1682 Nd1680 2.836 . S
C1682 C1683 1.498 . S
C1682 O1700 1.258 . S
C1682 O1701 1.239 . S
C1683 C1682 1.498 . S
C1683 C1684 1.366 . S
C1683 C1688 1.407 . S
C1684 C1683 1.366 . S
C1684 C1685 1.392 . S
C1684 H1712 0.930 . S
C1685 C1684 1.392 . S
C1685 C1686 1.398 . S
C1685 H1713 0.929 . S
C1686 C1685 1.398 . S
C1686 C1687 1.352 1_554 S
C1687 C1686 1.352 1_556 S
C1687 C1688 1.384 1_556 S
C1687 H1714 0.930 . S
C1688 C1683 1.407 . S
C1688 C1687 1.384 1_554 S
C1688 H1715 0.929 1_554 S
C1689 O1702 1.241 . S
C1689 O1703 1.273 . S
C1690 O1704 1.251 . S
C1690 O1705 1.268 . S
C1691 Nd1681 2.836 . S
C1691 C1692 1.498 . S
C1691 O1706 1.258 . S
C1691 O1707 1.239 . S
C1692 C1691 1.498 . S
C1692 C1693 1.366 . S
C1692 C1697 1.407 . S
C1693 C1692 1.366 . S
C1693 C1694 1.392 . S
C1693 H1716 0.930 . S
C1694 C1693 1.392 . S
C1694 C1695 1.398 . S
C1694 H1717 0.929 . S
C1695 C1694 1.398 . S
C1695 C1696 1.352 . S
C1696 C1695 1.352 . S
C1696 C1697 1.384 . S
C1696 H1718 0.930 . S
C1697 C1692 1.407 . S
C1697 C1696 1.384 . S
C1697 H1719 0.929 . S
C1698 O1708 1.241 . S
C1698 O1709 1.273 . S
C1699 O1710 1.251 . S
C1699 O1711 1.268 . S
O1700 Nd1680 2.500 . S
O1700 C1682 1.258 . S
O1701 Nd1680 2.492 . S
O1701 C1682 1.239 . S
O1702 Nd1680 2.487 . S
O1702 C1689 1.241 . S
O1703 Nd1680 2.682 . S
O1703 Nd1681 2.414 . S
O1703 C1689 1.273 . S
O1704 Nd1680 2.410 . S
O1704 C1690 1.251 . S
O1705 Nd1681 2.424 . S
O1705 C1690 1.268 . S
O1706 Nd1681 2.500 . S
O1706 C1691 1.258 . S
O1707 Nd1681 2.492 . S
O1707 C1691 1.239 . S
O1708 Nd1681 2.487 . S
O1708 C1698 1.241 . S
O1709 Nd1680 2.414 . S
O1709 Nd1681 2.682 . S
O1709 C1698 1.273 . S
O1710 Nd1681 2.410 . S
O1710 C1699 1.251 . S
O1711 Nd1680 2.424 . S
O1711 C1699 1.268 . S
H1712 C1684 0.930 . S
H1713 C1685 0.929 . S
H1714 C1687 0.930 . S
H1715 C1688 0.929 1_556 S
H1716 C1693 0.930 . S
H1717 C1694 0.929 . S
H1718 C1696 0.930 . S
H1719 C1697 0.929 . S
Nd1720 C1722 2.836 . S
Nd1720 O1740 2.500 . S
Nd1720 O1741 2.492 . S
Nd1720 O1742 2.487 . S
Nd1720 O1743 2.682 . S
Nd1720 O1744 2.410 . S
Nd1720 O1749 2.414 . S
Nd1720 O1751 2.424 . S
Nd1721 C1731 2.836 . S
Nd1721 O1743 2.414 . S
Nd1721 O1745 2.424 . S
Nd1721 O1746 2.500 . S
Nd1721 O1747 2.492 . S
Nd1721 O1748 2.487 . S
Nd1721 O1749 2.682 . S
Nd1721 O1750 2.410 . S
C1722 Nd1720 2.836 . S
C1722 C1723 1.498 . S
C1722 O1740 1.258 . S
C1722 O1741 1.239 . S
C1723 C1722 1.498 . S
C1723 C1724 1.366 . S
C1723 C1728 1.407 . S
C1724 C1723 1.366 . S
C1724 C1725 1.392 . S
C1724 H1752 0.930 . S
C1725 C1724 1.392 . S
C1725 C1726 1.398 . S
C1725 H1753 0.929 . S
C1726 C1725 1.398 . S
C1726 C1727 1.352 . S
C1727 C1726 1.352 . S
C1727 C1728 1.384 . S
C1727 H1754 0.930 . S
C1728 C1723 1.407 . S
C1728 C1727 1.384 . S
C1728 H1755 0.929 . S
C1729 O1742 1.241 . S
C1729 O1743 1.273 . S
C1730 O1744 1.251 . S
C1730 O1745 1.268 . S
C1731 Nd1721 2.836 . S
C1731 C1732 1.498 . S
C1731 O1746 1.258 . S
C1731 O1747 1.239 . S
C1732 C1731 1.498 . S
C1732 C1733 1.366 . S
C1732 C1737 1.407 . S
C1733 C1732 1.366 . S
C1733 C1734 1.392 . S
C1733 H1756 0.930 . S
C1734 C1733 1.392 . S
C1734 C1735 1.398 . S
C1734 H1757 0.929 . S
C1735 C1734 1.398 . S
C1735 C1736 1.352 . S
C1736 C1735 1.352 . S
C1736 C1737 1.384 . S
C1736 H1758 0.930 . S
C1737 C1732 1.407 . S
C1737 C1736 1.384 . S
C1737 H1759 0.929 . S
C1738 O1748 1.241 . S
C1738 O1749 1.273 . S
C1739 O1750 1.251 . S
C1739 O1751 1.268 . S
O1740 Nd1720 2.500 . S
O1740 C1722 1.258 . S
O1741 Nd1720 2.492 . S
O1741 C1722 1.239 . S
O1742 Nd1720 2.487 . S
O1742 C1729 1.241 . S
O1743 Nd1720 2.682 . S
O1743 Nd1721 2.414 . S
O1743 C1729 1.273 . S
O1744 Nd1720 2.410 . S
O1744 C1730 1.251 . S
O1745 Nd1721 2.424 . S
O1745 C1730 1.268 . S
O1746 Nd1721 2.500 . S
O1746 C1731 1.258 . S
O1747 Nd1721 2.492 . S
O1747 C1731 1.239 . S
O1748 Nd1721 2.487 . S
O1748 C1738 1.241 . S
O1749 Nd1720 2.414 . S
O1749 Nd1721 2.682 . S
O1749 C1738 1.273 . S
O1750 Nd1721 2.410 . S
O1750 C1739 1.251 . S
O1751 Nd1720 2.424 . S
O1751 C1739 1.268 . S
H1752 C1724 0.930 . S
H1753 C1725 0.929 . S
H1754 C1727 0.930 . S
H1755 C1728 0.929 . S
H1756 C1733 0.930 . S
H1757 C1734 0.929 . S
H1758 C1736 0.930 . S
H1759 C1737 0.929 . S
Nd1760 C1762 2.836 . S
Nd1760 O1780 2.500 . S
Nd1760 O1781 2.492 . S
Nd1760 O1782 2.487 . S
Nd1760 O1783 2.682 . S
Nd1760 O1784 2.410 . S
Nd1760 O1789 2.414 . S
Nd1760 O1791 2.424 . S
Nd1761 C1771 2.836 . S
Nd1761 O1783 2.414 . S
Nd1761 O1785 2.424 . S
Nd1761 O1786 2.500 . S
Nd1761 O1787 2.492 . S
Nd1761 O1788 2.487 . S
Nd1761 O1789 2.682 . S
Nd1761 O1790 2.410 . S
C1762 Nd1760 2.836 . S
C1762 C1763 1.498 . S
C1762 O1780 1.258 . S
C1762 O1781 1.239 . S
C1763 C1762 1.498 . S
C1763 C1764 1.366 . S
C1763 C1768 1.407 . S
C1764 C1763 1.366 . S
C1764 C1765 1.392 . S
C1764 H1792 0.930 . S
C1765 C1764 1.392 . S
C1765 C1766 1.398 . S
C1765 H1793 0.929 . S
C1766 C1765 1.398 . S
C1766 C1767 1.352 . S
C1767 C1766 1.352 . S
C1767 C1768 1.384 . S
C1767 H1794 0.930 . S
C1768 C1763 1.407 . S
C1768 C1767 1.384 . S
C1768 H1795 0.929 . S
C1769 O1782 1.241 . S
C1769 O1783 1.273 . S
C1770 O1784 1.251 . S
C1770 O1785 1.268 . S
C1771 Nd1761 2.836 . S
C1771 C1772 1.498 . S
C1771 O1786 1.258 . S
C1771 O1787 1.239 . S
C1772 C1771 1.498 . S
C1772 C1773 1.366 . S
C1772 C1777 1.407 . S
C1773 C1772 1.366 . S
C1773 C1774 1.392 . S
C1773 H1796 0.930 . S
C1774 C1773 1.392 . S
C1774 C1775 1.398 . S
C1774 H1797 0.929 . S
C1775 C1774 1.398 . S
C1775 C1776 1.352 . S
C1776 C1775 1.352 . S
C1776 C1777 1.384 . S
C1776 H1798 0.930 . S
C1777 C1772 1.407 . S
C1777 C1776 1.384 . S
C1777 H1799 0.929 . S
C1778 O1788 1.241 . S
C1778 O1789 1.273 . S
C1779 O1790 1.251 . S
C1779 O1791 1.268 . S
O1780 Nd1760 2.500 . S
O1780 C1762 1.258 . S
O1781 Nd1760 2.492 . S
O1781 C1762 1.239 . S
O1782 Nd1760 2.487 . S
O1782 C1769 1.241 . S
O1783 Nd1760 2.682 . S
O1783 Nd1761 2.414 . S
O1783 C1769 1.273 . S
O1784 Nd1760 2.410 . S
O1784 C1770 1.251 . S
O1785 Nd1761 2.424 . S
O1785 C1770 1.268 . S
O1786 Nd1761 2.500 . S
O1786 C1771 1.258 . S
O1787 Nd1761 2.492 . S
O1787 C1771 1.239 . S
O1788 Nd1761 2.487 . S
O1788 C1778 1.241 . S
O1789 Nd1760 2.414 . S
O1789 Nd1761 2.682 . S
O1789 C1778 1.273 . S
O1790 Nd1761 2.410 . S
O1790 C1779 1.251 . S
O1791 Nd1760 2.424 . S
O1791 C1779 1.268 . S
H1792 C1764 0.930 . S
H1793 C1765 0.929 . S
H1794 C1767 0.930 . S
H1795 C1768 0.929 . S
H1796 C1773 0.930 . S
H1797 C1774 0.929 . S
H1798 C1776 0.930 . S
H1799 C1777 0.929 . S
Nd1800 C1802 2.836 . S
Nd1800 O1820 2.500 . S
Nd1800 O1821 2.492 . S
Nd1800 O1822 2.487 . S
Nd1800 O1823 2.682 . S
Nd1800 O1824 2.410 . S
Nd1800 O1829 2.414 . S
Nd1800 O1831 2.424 . S
Nd1801 C1811 2.836 . S
Nd1801 O1823 2.414 . S
Nd1801 O1825 2.424 . S
Nd1801 O1826 2.500 . S
Nd1801 O1827 2.492 . S
Nd1801 O1828 2.487 . S
Nd1801 O1829 2.682 . S
Nd1801 O1830 2.410 . S
C1802 Nd1800 2.836 . S
C1802 C1803 1.498 . S
C1802 O1820 1.258 . S
C1802 O1821 1.239 . S
C1803 C1802 1.498 . S
C1803 C1804 1.366 . S
C1803 C1808 1.407 . S
C1804 C1803 1.366 . S
C1804 C1805 1.392 . S
C1804 H1832 0.930 . S
C1805 C1804 1.392 . S
C1805 C1806 1.398 . S
C1805 H1833 0.929 . S
C1806 C1805 1.398 . S
C1806 C1807 1.352 . S
C1807 C1806 1.352 . S
C1807 C1808 1.384 . S
C1807 H1834 0.930 . S
C1808 C1803 1.407 . S
C1808 C1807 1.384 . S
C1808 H1835 0.929 . S
C1809 O1822 1.241 . S
C1809 O1823 1.273 . S
C1810 O1824 1.251 . S
C1810 O1825 1.268 . S
C1811 Nd1801 2.836 . S
C1811 C1812 1.498 . S
C1811 O1826 1.258 . S
C1811 O1827 1.239 . S
C1812 C1811 1.498 . S
C1812 C1813 1.366 . S
C1812 C1817 1.407 . S
C1813 C1812 1.366 . S
C1813 C1814 1.392 . S
C1813 H1836 0.930 . S
C1814 C1813 1.392 . S
C1814 C1815 1.398 . S
C1814 H1837 0.929 . S
C1815 C1814 1.398 . S
C1815 C1816 1.352 . S
C1816 C1815 1.352 . S
C1816 C1817 1.384 . S
C1816 H1838 0.930 . S
C1817 C1812 1.407 . S
C1817 C1816 1.384 . S
C1817 H1839 0.929 . S
C1818 O1828 1.241 . S
C1818 O1829 1.273 . S
C1819 O1830 1.251 . S
C1819 O1831 1.268 . S
O1820 Nd1800 2.500 . S
O1820 C1802 1.258 . S
O1821 Nd1800 2.492 . S
O1821 C1802 1.239 . S
O1822 Nd1800 2.487 . S
O1822 C1809 1.241 . S
O1823 Nd1800 2.682 . S
O1823 Nd1801 2.414 . S
O1823 C1809 1.273 . S
O1824 Nd1800 2.410 . S
O1824 C1810 1.251 . S
O1825 Nd1801 2.424 . S
O1825 C1810 1.268 . S
O1826 Nd1801 2.500 . S
O1826 C1811 1.258 . S
O1827 Nd1801 2.492 . S
O1827 C1811 1.239 . S
O1828 Nd1801 2.487 . S
O1828 C1818 1.241 . S
O1829 Nd1800 2.414 . S
O1829 Nd1801 2.682 . S
O1829 C1818 1.273 . S
O1830 Nd1801 2.410 . S
O1830 C1819 1.251 . S
O1831 Nd1800 2.424 . S
O1831 C1819 1.268 . S
H1832 C1804 0.930 . S
H1833 C1805 0.929 . S
H1834 C1807 0.930 . S
H1835 C1808 0.929 . S
H1836 C1813 0.930 . S
H1837 C1814 0.929 . S
H1838 C1816 0.930 . S
H1839 C1817 0.929 . S
Nd1840 C1842 2.836 . S
Nd1840 O1860 2.500 . S
Nd1840 O1861 2.492 . S
Nd1840 O1862 2.487 . S
Nd1840 O1863 2.682 . S
Nd1840 O1864 2.410 . S
Nd1840 O1869 2.414 . S
Nd1840 O1871 2.424 . S
Nd1841 C1851 2.836 . S
Nd1841 O1863 2.414 . S
Nd1841 O1865 2.424 . S
Nd1841 O1866 2.500 . S
Nd1841 O1867 2.492 . S
Nd1841 O1868 2.487 . S
Nd1841 O1869 2.682 . S
Nd1841 O1870 2.410 . S
C1842 Nd1840 2.836 . S
C1842 C1843 1.498 . S
C1842 O1860 1.258 . S
C1842 O1861 1.239 . S
C1843 C1842 1.498 . S
C1843 C1844 1.366 . S
C1843 C1848 1.407 . S
C1844 C1843 1.366 . S
C1844 C1845 1.392 . S
C1844 H1872 0.930 . S
C1845 C1844 1.392 . S
C1845 C1846 1.398 . S
C1845 H1873 0.929 . S
C1846 C1845 1.398 . S
C1846 C1847 1.352 . S
C1847 C1846 1.352 . S
C1847 C1848 1.384 . S
C1847 H1874 0.930 . S
C1848 C1843 1.407 . S
C1848 C1847 1.384 . S
C1848 H1875 0.929 . S
C1849 O1862 1.241 . S
C1849 O1863 1.273 . S
C1850 O1864 1.251 . S
C1850 O1865 1.268 . S
C1851 Nd1841 2.836 . S
C1851 C1852 1.498 . S
C1851 O1866 1.258 . S
C1851 O1867 1.239 . S
C1852 C1851 1.498 . S
C1852 C1853 1.366 . S
C1852 C1857 1.407 . S
C1853 C1852 1.366 . S
C1853 C1854 1.392 . S
C1853 H1876 0.930 . S
C1854 C1853 1.392 . S
C1854 C1855 1.398 . S
C1854 H1877 0.929 . S
C1855 C1854 1.398 . S
C1855 C1856 1.352 . S
C1856 C1855 1.352 . S
C1856 C1857 1.384 . S
C1856 H1878 0.930 . S
C1857 C1852 1.407 . S
C1857 C1856 1.384 . S
C1857 H1879 0.929 . S
C1858 O1868 1.241 . S
C1858 O1869 1.273 . S
C1859 O1870 1.251 . S
C1859 O1871 1.268 . S
O1860 Nd1840 2.500 . S
O1860 C1842 1.258 . S
O1861 Nd1840 2.492 . S
O1861 C1842 1.239 . S
O1862 Nd1840 2.487 . S
O1862 C1849 1.241 . S
O1863 Nd1840 2.682 . S
O1863 Nd1841 2.414 . S
O1863 C1849 1.273 . S
O1864 Nd1840 2.410 . S
O1864 C1850 1.251 . S
O1865 Nd1841 2.424 . S
O1865 C1850 1.268 . S
O1866 Nd1841 2.500 . S
O1866 C1851 1.258 . S
O1867 Nd1841 2.492 . S
O1867 C1851 1.239 . S
O1868 Nd1841 2.487 . S
O1868 C1858 1.241 . S
O1869 Nd1840 2.414 . S
O1869 Nd1841 2.682 . S
O1869 C1858 1.273 . S
O1870 Nd1841 2.410 . S
O1870 C1859 1.251 . S
O1871 Nd1840 2.424 . S
O1871 C1859 1.268 . S
H1872 C1844 0.930 . S
H1873 C1845 0.929 . S
H1874 C1847 0.930 . S
H1875 C1848 0.929 . S
H1876 C1853 0.930 . S
H1877 C1854 0.929 . S
H1878 C1856 0.930 . S
H1879 C1857 0.929 . S
Nd1880 C1882 2.836 . S
Nd1880 O1900 2.500 . S
Nd1880 O1901 2.492 . S
Nd1880 O1902 2.487 . S
Nd1880 O1903 2.682 . S
Nd1880 O1904 2.410 . S
Nd1880 O1909 2.414 . S
Nd1880 O1911 2.424 . S
Nd1881 C1891 2.836 . S
Nd1881 O1903 2.414 . S
Nd1881 O1905 2.424 . S
Nd1881 O1906 2.500 . S
Nd1881 O1907 2.492 . S
Nd1881 O1908 2.487 . S
Nd1881 O1909 2.682 . S
Nd1881 O1910 2.410 . S
C1882 Nd1880 2.836 . S
C1882 C1883 1.498 . S
C1882 O1900 1.258 . S
C1882 O1901 1.239 . S
C1883 C1882 1.498 . S
C1883 C1884 1.366 . S
C1883 C1888 1.407 . S
C1884 C1883 1.366 . S
C1884 C1885 1.392 . S
C1884 H1912 0.930 . S
C1885 C1884 1.392 . S
C1885 C1886 1.398 . S
C1885 H1913 0.929 . S
C1886 C1885 1.398 . S
C1886 C1887 1.352 . S
C1887 C1886 1.352 . S
C1887 C1888 1.384 . S
C1887 H1914 0.930 . S
C1888 C1883 1.407 . S
C1888 C1887 1.384 . S
C1888 H1915 0.929 . S
C1889 O1902 1.241 . S
C1889 O1903 1.273 . S
C1890 O1904 1.251 . S
C1890 O1905 1.268 . S
C1891 Nd1881 2.836 . S
C1891 C1892 1.498 . S
C1891 O1906 1.258 . S
C1891 O1907 1.239 . S
C1892 C1891 1.498 . S
C1892 C1893 1.366 . S
C1892 C1897 1.407 . S
C1893 C1892 1.366 . S
C1893 C1894 1.392 . S
C1893 H1916 0.930 . S
C1894 C1893 1.392 . S
C1894 C1895 1.398 . S
C1894 H1917 0.929 . S
C1895 C1894 1.398 . S
C1895 C1896 1.352 . S
C1896 C1895 1.352 . S
C1896 C1897 1.384 . S
C1896 H1918 0.930 . S
C1897 C1892 1.407 . S
C1897 C1896 1.384 . S
C1897 H1919 0.929 . S
C1898 O1908 1.241 . S
C1898 O1909 1.273 . S
C1899 O1910 1.251 . S
C1899 O1911 1.268 . S
O1900 Nd1880 2.500 . S
O1900 C1882 1.258 . S
O1901 Nd1880 2.492 . S
O1901 C1882 1.239 . S
O1902 Nd1880 2.487 . S
O1902 C1889 1.241 . S
O1903 Nd1880 2.682 . S
O1903 Nd1881 2.414 . S
O1903 C1889 1.273 . S
O1904 Nd1880 2.410 . S
O1904 C1890 1.251 . S
O1905 Nd1881 2.424 . S
O1905 C1890 1.268 . S
O1906 Nd1881 2.500 . S
O1906 C1891 1.258 . S
O1907 Nd1881 2.492 . S
O1907 C1891 1.239 . S
O1908 Nd1881 2.487 . S
O1908 C1898 1.241 . S
O1909 Nd1880 2.414 . S
O1909 Nd1881 2.682 . S
O1909 C1898 1.273 . S
O1910 Nd1881 2.410 . S
O1910 C1899 1.251 . S
O1911 Nd1880 2.424 . S
O1911 C1899 1.268 . S
H1912 C1884 0.930 . S
H1913 C1885 0.929 . S
H1914 C1887 0.930 . S
H1915 C1888 0.929 . S
H1916 C1893 0.930 . S
H1917 C1894 0.929 . S
H1918 C1896 0.930 . S
H1919 C1897 0.929 . S
H1920 C1926 0.930 . S
H1921 C1929 0.930 . S
H1922 C1930 0.930 . S
H1923 C1931 0.930 . S
H1924 C1934 0.930 1_455 S
H1925 C1935 0.930 . S
C1926 H1920 0.930 . S
C1926 C1927 1.355 . S
C1926 C1928 1.414 1_455 S
C1927 C1926 1.355 . S
C1927 C1929 1.419 1_455 S
C1928 C1926 1.414 1_655 S
C1928 C1933 1.426 . S
C1928 C1935 1.409 1_655 S
C1929 H1921 0.930 . S
C1929 C1927 1.419 1_655 S
C1929 C1930 1.362 . S
C1930 H1922 0.930 . S
C1930 C1929 1.362 . S
C1930 C1933 1.409 . S
C1931 H1923 0.930 . S
C1931 C1932 1.355 . S
C1931 C1933 1.415 . S
C1932 C1931 1.355 . S
C1932 C1934 1.419 . S
C1933 C1928 1.426 . S
C1933 C1930 1.409 . S
C1933 C1931 1.415 . S
C1934 H1924 0.930 1_655 S
C1934 C1932 1.419 . S
C1934 C1935 1.362 1_655 S
C1935 H1925 0.930 . S
C1935 C1928 1.409 1_455 S
C1935 C1934 1.362 1_455 S
H1936 C1942 0.930 . S
H1937 C1945 0.930 . S
H1938 C1946 0.930 . S
H1939 C1947 0.930 . S
H1940 C1950 0.930 . S
H1941 C1951 0.930 . S
C1942 H1936 0.930 . S
C1942 C1943 1.355 . S
C1942 C1944 1.415 . S
C1943 C1942 1.355 . S
C1943 C1945 1.419 . S
C1944 C1942 1.415 . S
C1944 C1949 1.425 . S
C1944 C1951 1.409 . S
C1945 H1937 0.930 . S
C1945 C1943 1.419 . S
C1945 C1946 1.362 . S
C1946 H1938 0.930 . S
C1946 C1945 1.362 . S
C1946 C1949 1.409 . S
C1947 H1939 0.930 . S
C1947 C1948 1.355 . S
C1947 C1949 1.415 . S
C1948 C1947 1.355 . S
C1948 C1950 1.419 . S
C1949 C1944 1.425 . S
C1949 C1946 1.409 . S
C1949 C1947 1.415 . S
C1950 H1940 0.930 . S
C1950 C1948 1.419 . S
C1950 C1951 1.362 . S
C1951 H1941 0.930 . S
C1951 C1944 1.409 . S
C1951 C1950 1.362 . S
H1952 C1958 0.930 . S
H1953 C1961 0.930 . S
H1954 C1962 0.930 . S
H1955 C1963 0.930 . S
H1956 C1966 0.930 . S
H1957 C1967 0.930 . S
C1958 H1952 0.930 . S
C1958 C1959 1.355 . S
C1958 C1960 1.415 . S
C1959 C1958 1.355 . S
C1959 C1961 1.419 . S
C1960 C1958 1.415 . S
C1960 C1965 1.425 . S
C1960 C1967 1.409 . S
C1961 H1953 0.930 . S
C1961 C1959 1.419 . S
C1961 C1962 1.362 . S
C1962 H1954 0.930 . S
C1962 C1961 1.362 . S
C1962 C1965 1.409 . S
C1963 H1955 0.930 . S
C1963 C1964 1.355 . S
C1963 C1965 1.415 . S
C1964 C1963 1.355 . S
C1964 C1966 1.419 . S
C1965 C1960 1.425 . S
C1965 C1962 1.409 . S
C1965 C1963 1.415 . S
C1966 H1956 0.930 . S
C1966 C1964 1.419 . S
C1966 C1967 1.362 . S
C1967 H1957 0.930 . S
C1967 C1960 1.409 . S
C1967 C1966 1.362 . S
H1968 C1974 0.930 . S
H1969 C1977 0.930 . S
H1970 C1978 0.930 . S
H1971 C1979 0.930 . S
H1972 C1982 0.930 . S
H1973 C1983 0.930 . S
C1974 H1968 0.930 . S
C1974 C1975 1.355 . S
C1974 C1976 1.415 . S
C1975 C1974 1.355 . S
C1975 C1977 1.419 . S
C1976 C1974 1.415 . S
C1976 C1981 1.425 . S
C1976 C1983 1.409 . S
C1977 H1969 0.930 . S
C1977 C1975 1.419 . S
C1977 C1978 1.362 . S
C1978 H1970 0.930 . S
C1978 C1977 1.362 . S
C1978 C1981 1.409 . S
C1979 H1971 0.930 . S
C1979 C1980 1.355 . S
C1979 C1981 1.415 . S
C1980 C1979 1.355 . S
C1980 C1982 1.419 . S
C1981 C1976 1.425 . S
C1981 C1978 1.409 . S
C1981 C1979 1.415 . S
C1982 H1972 0.930 . S
C1982 C1980 1.419 . S
C1982 C1983 1.362 . S
C1983 H1973 0.930 . S
C1983 C1976 1.409 . S
C1983 C1982 1.362 . S
H1984 C1990 0.930 . S
H1985 C1993 0.930 . S
H1986 C1994 0.930 . S
H1987 C1995 0.951 . S
H1988 C1998 0.930 . S
H1989 C1999 0.930 . S
C1990 H1984 0.930 . S
C1990 C1991 1.355 1_565 S
C1990 C1992 1.415 . S
C1991 C1990 1.355 1_545 S
C1991 C1993 1.419 . S
C1992 C1990 1.415 . S
C1992 C1997 1.425 1_565 S
C1992 C1999 1.409 . S
C1993 H1985 0.930 . S
C1993 C1991 1.419 . S
C1993 C1994 1.362 . S
C1994 H1986 0.930 . S
C1994 C1993 1.362 . S
C1994 C1997 1.409 . S
C1995 H1987 0.951 . S
C1995 C1996 1.322 1_545 S
C1995 C1997 1.429 . S
C1996 C1995 1.322 1_565 S
C1996 C1998 1.419 . S
C1997 C1992 1.425 1_545 S
C1997 C1994 1.409 . S
C1997 C1995 1.429 . S
C1998 H1988 0.930 . S
C1998 C1996 1.419 . S
C1998 C1999 1.362 . S
C1999 H1989 0.930 . S
C1999 C1992 1.409 . S
C1999 C1998 1.362 . S
H2000 C2006 0.930 . S
H2001 C2009 0.930 . S
H2002 C2010 0.930 . S
H2003 C2011 0.930 . S
H2004 C2014 0.930 . S
H2005 C2015 0.930 . S
C2006 H2000 0.930 . S
C2006 C2007 1.355 . S
C2006 C2008 1.415 . S
C2007 C2006 1.355 . S
C2007 C2009 1.419 . S
C2008 C2006 1.415 . S
C2008 C2013 1.425 . S
C2008 C2015 1.409 . S
C2009 H2001 0.930 . S
C2009 C2007 1.419 . S
C2009 C2010 1.362 . S
C2010 H2002 0.930 . S
C2010 C2009 1.362 . S
C2010 C2013 1.409 . S
C2011 H2003 0.930 . S
C2011 C2012 1.355 . S
C2011 C2013 1.415 . S
C2012 C2011 1.355 . S
C2012 C2014 1.419 . S
C2013 C2008 1.425 . S
C2013 C2010 1.409 . S
C2013 C2011 1.415 . S
C2014 H2004 0.930 . S
C2014 C2012 1.419 . S
C2014 C2015 1.362 . S
C2015 H2005 0.930 . S
C2015 C2008 1.409 . S
C2015 C2014 1.362 . S
H2016 C2022 0.930 . S
H2017 C2025 0.930 1_545 S
H2018 C2026 0.930 1_545 S
H2019 C2027 0.930 . S
H2020 C2030 0.930 1_556 S
H2021 C2031 0.930 . S
C2022 H2016 0.930 . S
C2022 C2023 1.355 . S
C2022 C2024 1.415 . S
C2023 C2022 1.355 . S
C2023 C2025 1.419 . S
C2024 C2022 1.415 . S
C2024 C2029 1.425 . S
C2024 C2031 1.409 . S
C2025 H2017 0.930 1_565 S
C2025 C2023 1.419 . S
C2025 C2026 1.362 . S
C2026 H2018 0.930 1_565 S
C2026 C2025 1.362 . S
C2026 C2029 1.409 . S
C2027 H2019 0.930 . S
C2027 C2028 1.355 1_554 S
C2027 C2029 1.415 . S
C2028 C2027 1.355 1_556 S
C2028 C2030 1.419 1_556 S
C2029 C2024 1.425 . S
C2029 C2026 1.409 . S
C2029 C2027 1.415 . S
C2030 H2020 0.930 1_554 S
C2030 C2028 1.419 1_554 S
C2030 C2031 1.362 . S
C2031 H2021 0.930 . S
C2031 C2024 1.409 . S
C2031 C2030 1.362 . S
H2032 C2038 0.930 . S
H2033 C2041 0.930 . S
H2034 C2042 0.930 . S
H2035 C2043 0.930 . S
H2036 C2046 0.930 . S
H2037 C2047 0.930 . S
C2038 H2032 0.930 . S
C2038 C2039 1.355 . S
C2038 C2040 1.415 . S
C2039 C2038 1.355 . S
C2039 C2041 1.419 . S
C2040 C2038 1.415 . S
C2040 C2045 1.425 . S
C2040 C2047 1.409 . S
C2041 H2033 0.930 . S
C2041 C2039 1.419 . S
C2041 C2042 1.362 . S
C2042 H2034 0.930 . S
C2042 C2041 1.362 . S
C2042 C2045 1.409 . S
C2043 H2035 0.930 . S
C2043 C2044 1.355 . S
C2043 C2045 1.415 . S
C2044 C2043 1.355 . S
C2044 C2046 1.419 . S
C2045 C2040 1.425 . S
C2045 C2042 1.409 . S
C2045 C2043 1.415 . S
C2046 H2036 0.930 . S
C2046 C2044 1.419 . S
C2046 C2047 1.362 . S
C2047 H2037 0.930 . S
C2047 C2040 1.409 . S
C2047 C2046 1.362 . S
H2048 C2054 0.930 1_556 S
H2049 C2057 0.930 . S
H2050 C2058 0.930 . S
H2051 C2059 0.930 . S
H2052 C2062 0.930 . S
H2053 C2063 0.930 1_556 S
C2054 H2048 0.930 1_554 S
C2054 C2055 1.355 . S
C2054 C2056 1.415 . S
C2055 C2054 1.355 . S
C2055 C2057 1.419 . S
C2056 C2054 1.415 . S
C2056 C2061 1.425 . S
C2056 C2063 1.409 . S
C2057 H2049 0.930 . S
C2057 C2055 1.419 . S
C2057 C2058 1.362 . S
C2058 H2050 0.930 . S
C2058 C2057 1.362 . S
C2058 C2061 1.409 . S
C2059 H2051 0.930 . S
C2059 C2060 1.355 . S
C2059 C2061 1.415 . S
C2060 C2059 1.355 . S
C2060 C2062 1.419 . S
C2061 C2056 1.425 . S
C2061 C2058 1.409 . S
C2061 C2059 1.415 . S
C2062 H2052 0.930 . S
C2062 C2060 1.419 . S
C2062 C2063 1.362 . S
C2063 H2053 0.930 1_554 S
C2063 C2056 1.409 . S
C2063 C2062 1.362 . S
H2064 C2070 0.930 . S
H2065 C2073 0.930 . S
H2066 C2074 0.930 . S
H2067 C2075 0.930 . S
H2068 C2078 0.930 1_554 S
H2069 C2079 0.923 1_554 S
C2070 H2064 0.930 . S
C2070 C2071 1.355 . S
C2070 C2072 1.415 . S
C2071 C2070 1.355 . S
C2071 C2073 1.419 . S
C2072 C2070 1.415 . S
C2072 C2077 1.425 . S
C2072 C2079 1.409 . S
C2073 H2065 0.930 . S
C2073 C2071 1.419 . S
C2073 C2074 1.362 . S
C2074 H2066 0.930 . S
C2074 C2073 1.362 . S
C2074 C2077 1.409 . S
C2075 H2067 0.930 . S
C2075 C2076 1.355 . S
C2075 C2077 1.415 . S
C2076 C2075 1.355 . S
C2076 C2078 1.419 . S
C2077 C2072 1.425 . S
C2077 C2074 1.409 . S
C2077 C2075 1.415 . S
C2078 H2068 0.930 1_556 S
C2078 C2076 1.419 . S
C2078 C2079 1.362 . S
C2079 H2069 0.923 1_556 S
C2079 C2072 1.409 . S
C2079 C2078 1.362 . S
H2080 C2086 0.930 . S
H2081 C2089 0.930 . S
H2082 C2090 0.930 . S
H2083 C2091 0.930 . S
H2084 C2094 0.930 . S
H2085 C2095 0.930 . S
C2086 H2080 0.930 . S
C2086 C2087 1.355 . S
C2086 C2088 1.415 . S
C2087 C2086 1.355 . S
C2087 C2089 1.419 . S
C2088 C2086 1.415 . S
C2088 C2093 1.425 . S
C2088 C2095 1.409 . S
C2089 H2081 0.930 . S
C2089 C2087 1.419 . S
C2089 C2090 1.362 . S
C2090 H2082 0.930 . S
C2090 C2089 1.362 . S
C2090 C2093 1.409 . S
C2091 H2083 0.930 . S
C2091 C2092 1.355 . S
C2091 C2093 1.415 . S
C2092 C2091 1.355 . S
C2092 C2094 1.419 . S
C2093 C2088 1.425 . S
C2093 C2090 1.409 . S
C2093 C2091 1.415 . S
C2094 H2084 0.930 . S
C2094 C2092 1.419 . S
C2094 C2095 1.362 . S
C2095 H2085 0.930 . S
C2095 C2088 1.409 . S
C2095 C2094 1.362 . S
H2096 C2102 0.930 . S
H2097 C2105 0.930 . S
H2098 C2106 0.930 . S
H2099 C2107 0.930 . S
H2100 C2110 0.930 . S
H2101 C2111 0.930 . S
C2102 H2096 0.930 . S
C2102 C2103 1.355 . S
C2102 C2104 1.415 . S
C2103 C2102 1.355 . S
C2103 C2105 1.419 . S
C2104 C2102 1.415 . S
C2104 C2109 1.425 . S
C2104 C2111 1.409 . S
C2105 H2097 0.930 . S
C2105 C2103 1.419 . S
C2105 C2106 1.362 . S
C2106 H2098 0.930 . S
C2106 C2105 1.362 . S
C2106 C2109 1.409 . S
C2107 H2099 0.930 . S
C2107 C2108 1.355 . S
C2107 C2109 1.415 . S
C2108 C2107 1.355 . S
C2108 C2110 1.419 . S
C2109 C2104 1.425 . S
C2109 C2106 1.409 . S
C2109 C2107 1.415 . S
C2110 H2100 0.930 . S
C2110 C2108 1.419 . S
C2110 C2111 1.362 . S
C2111 H2101 0.930 . S
C2111 C2104 1.409 . S
C2111 C2110 1.362 . S
H2112 C2118 0.930 . S
H2113 C2121 0.911 1_655 S
H2114 C2122 0.930 . S
H2115 C2123 0.930 . S
H2116 C2126 0.930 . S
H2117 C2127 0.930 . S
C2118 H2112 0.930 . S
C2118 C2119 1.355 . S
C2118 C2120 1.415 1_655 S
C2119 C2118 1.355 . S
C2119 C2121 1.398 1_655 S
C2120 C2118 1.415 1_455 S
C2120 C2125 1.425 . S
C2120 C2127 1.409 . S
C2121 H2113 0.911 1_455 S
C2121 C2119 1.398 1_455 S
C2121 C2122 1.403 . S
C2122 H2114 0.930 . S
C2122 C2121 1.403 . S
C2122 C2125 1.409 . S
C2123 H2115 0.930 . S
C2123 C2124 1.355 . S
C2123 C2125 1.415 . S
C2124 C2123 1.355 . S
C2124 C2126 1.419 . S
C2125 C2120 1.425 . S
C2125 C2122 1.409 . S
C2125 C2123 1.415 . S
C2126 H2116 0.930 . S
C2126 C2124 1.419 . S
C2126 C2127 1.362 . S
C2127 H2117 0.930 . S
C2127 C2120 1.409 . S
C2127 C2126 1.362 . S
H2128 C2134 0.930 . S
H2129 C2137 0.930 . S
H2130 C2138 0.930 . S
H2131 C2139 0.930 . S
H2132 C2142 0.930 . S
H2133 C2143 0.930 . S
C2134 H2128 0.930 . S
C2134 C2135 1.355 . S
C2134 C2136 1.415 . S
C2135 C2134 1.355 . S
C2135 C2137 1.419 . S
C2136 C2134 1.415 . S
C2136 C2141 1.425 . S
C2136 C2143 1.409 . S
C2137 H2129 0.930 . S
C2137 C2135 1.419 . S
C2137 C2138 1.362 . S
C2138 H2130 0.930 . S
C2138 C2137 1.362 . S
C2138 C2141 1.409 . S
C2139 H2131 0.930 . S
C2139 C2140 1.355 . S
C2139 C2141 1.415 . S
C2140 C2139 1.355 . S
C2140 C2142 1.419 . S
C2141 C2136 1.425 . S
C2141 C2138 1.409 . S
C2141 C2139 1.415 . S
C2142 H2132 0.930 . S
C2142 C2140 1.419 . S
C2142 C2143 1.362 . S
C2143 H2133 0.930 . S
C2143 C2136 1.409 . S
C2143 C2142 1.362 . S
H2144 C2150 0.930 . S
H2145 C2153 0.930 . S
H2146 C2154 0.930 . S
H2147 C2155 0.930 . S
H2148 C2158 0.930 . S
H2149 C2159 0.930 . S
C2150 H2144 0.930 . S
C2150 C2151 1.355 . S
C2150 C2152 1.415 . S
C2151 C2150 1.355 . S
C2151 C2153 1.419 . S
C2152 C2150 1.415 . S
C2152 C2157 1.425 . S
C2152 C2159 1.409 . S
C2153 H2145 0.930 . S
C2153 C2151 1.419 . S
C2153 C2154 1.362 . S
C2154 H2146 0.930 . S
C2154 C2153 1.362 . S
C2154 C2157 1.409 . S
C2155 H2147 0.930 . S
C2155 C2156 1.355 . S
C2155 C2157 1.415 . S
C2156 C2155 1.355 . S
C2156 C2158 1.419 . S
C2157 C2152 1.425 . S
C2157 C2154 1.409 . S
C2157 C2155 1.415 . S
C2158 H2148 0.930 . S
C2158 C2156 1.419 . S
C2158 C2159 1.362 . S
C2159 H2149 0.930 . S
C2159 C2152 1.409 . S
C2159 C2158 1.362 . S
H2160 C2166 0.930 . S
H2161 C2169 0.930 . S
H2162 C2170 0.930 . S
H2163 C2171 0.930 . S
H2164 C2174 0.921 1_655 S
H2165 C2175 0.930 . S
C2166 H2160 0.930 . S
C2166 C2167 1.355 . S
C2166 C2168 1.415 . S
C2167 C2166 1.355 . S
C2167 C2169 1.419 . S
C2168 C2166 1.415 . S
C2168 C2173 1.425 . S
C2168 C2175 1.409 . S
C2169 H2161 0.930 . S
C2169 C2167 1.419 . S
C2169 C2170 1.362 . S
C2170 H2162 0.930 . S
C2170 C2169 1.362 . S
C2170 C2173 1.409 . S
C2171 H2163 0.930 . S
C2171 C2172 1.355 . S
C2171 C2173 1.415 . S
C2172 C2171 1.355 . S
C2172 C2174 1.419 . S
C2173 C2168 1.425 . S
C2173 C2170 1.409 . S
C2173 C2171 1.415 . S
C2174 H2164 0.921 1_455 S
C2174 C2172 1.419 . S
C2174 C2175 1.362 . S
C2175 H2165 0.930 . S
C2175 C2168 1.409 . S
C2175 C2174 1.362 . S
H2176 C2182 0.930 . S
H2177 C2185 0.930 . S
H2178 C2186 0.930 . S
H2179 C2187 0.930 . S
H2180 C2190 0.930 . S
H2181 C2191 0.930 . S
C2182 H2176 0.930 . S
C2182 C2183 1.355 . S
C2182 C2184 1.415 . S
C2183 C2182 1.355 . S
C2183 C2185 1.419 . S
C2184 C2182 1.415 . S
C2184 C2189 1.425 . S
C2184 C2191 1.409 . S
C2185 H2177 0.930 . S
C2185 C2183 1.419 . S
C2185 C2186 1.362 . S
C2186 H2178 0.930 . S
C2186 C2185 1.362 . S
C2186 C2189 1.409 . S
C2187 H2179 0.930 . S
C2187 C2188 1.355 . S
C2187 C2189 1.415 . S
C2188 C2187 1.355 . S
C2188 C2190 1.419 . S
C2189 C2184 1.425 . S
C2189 C2186 1.409 . S
C2189 C2187 1.415 . S
C2190 H2180 0.930 . S
C2190 C2188 1.419 . S
C2190 C2191 1.362 . S
C2191 H2181 0.930 . S
C2191 C2184 1.409 . S
C2191 C2190 1.362 . S
H2192 C2198 0.930 . S
H2193 C2201 0.930 . S
H2194 C2202 0.930 . S
H2195 C2203 0.930 . S
H2196 C2206 0.930 . S
H2197 C2207 0.930 . S
C2198 H2192 0.930 . S
C2198 C2199 1.355 . S
C2198 C2200 1.415 . S
C2199 C2198 1.355 . S
C2199 C2201 1.419 . S
C2200 C2198 1.415 . S
C2200 C2205 1.425 . S
C2200 C2207 1.409 . S
C2201 H2193 0.930 . S
C2201 C2199 1.419 . S
C2201 C2202 1.362 . S
C2202 H2194 0.930 . S
C2202 C2201 1.362 . S
C2202 C2205 1.409 . S
C2203 H2195 0.930 . S
C2203 C2204 1.355 . S
C2203 C2205 1.415 . S
C2204 C2203 1.355 . S
C2204 C2206 1.419 . S
C2205 C2200 1.425 . S
C2205 C2202 1.409 . S
C2205 C2203 1.415 . S
C2206 H2196 0.930 . S
C2206 C2204 1.419 . S
C2206 C2207 1.362 . S
C2207 H2197 0.930 . S
C2207 C2200 1.409 . S
C2207 C2206 1.362 . S
H2208 C2214 0.930 . S
H2209 C2217 0.930 . S
H2210 C2218 0.930 . S
H2211 C2219 0.930 . S
H2212 C2222 0.930 . S
H2213 C2223 0.930 . S
C2214 H2208 0.930 . S
C2214 C2215 1.355 . S
C2214 C2216 1.415 . S
C2215 C2214 1.355 . S
C2215 C2217 1.419 . S
C2216 C2214 1.415 . S
C2216 C2221 1.425 . S
C2216 C2223 1.409 . S
C2217 H2209 0.930 . S
C2217 C2215 1.419 . S
C2217 C2218 1.362 . S
C2218 H2210 0.930 . S
C2218 C2217 1.362 . S
C2218 C2221 1.409 . S
C2219 H2211 0.930 . S
C2219 C2220 1.355 . S
C2219 C2221 1.415 . S
C2220 C2219 1.355 . S
C2220 C2222 1.419 . S
C2221 C2216 1.425 . S
C2221 C2218 1.409 . S
C2221 C2219 1.415 . S
C2222 H2212 0.930 . S
C2222 C2220 1.419 . S
C2222 C2223 1.362 . S
C2223 H2213 0.930 . S
C2223 C2216 1.409 . S
C2223 C2222 1.362 . S
H2224 C2230 0.930 . S
H2225 C2233 0.930 . S
H2226 C2234 0.930 . S
H2227 C2235 0.930 1_545 S
H2228 C2238 0.930 . S
H2229 C2239 0.930 . S
C2230 H2224 0.930 . S
C2230 C2231 1.355 1_565 S
C2230 C2232 1.415 . S
C2231 C2230 1.355 1_545 S
C2231 C2233 1.419 . S
C2232 C2230 1.415 . S
C2232 C2237 1.425 . S
C2232 C2239 1.409 . S
C2233 H2225 0.930 . S
C2233 C2231 1.419 . S
C2233 C2234 1.362 . S
C2234 H2226 0.930 . S
C2234 C2233 1.362 . S
C2234 C2237 1.409 1_545 S
C2235 H2227 0.930 1_565 S
C2235 C2236 1.355 . S
C2235 C2237 1.415 . S
C2236 C2235 1.355 . S
C2236 C2238 1.419 . S
C2237 C2232 1.425 . S
C2237 C2234 1.409 1_565 S
C2237 C2235 1.415 . S
C2238 H2228 0.930 . S
C2238 C2236 1.419 . S
C2238 C2239 1.362 . S
C2239 H2229 0.930 . S
C2239 C2232 1.409 . S
C2239 C2238 1.362 . S
H2240 C2246 0.930 . S
H2241 C2249 0.930 . S
H2242 C2250 0.930 . S
H2243 C2251 0.930 . S
H2244 C2254 0.930 . S
H2245 C2255 0.930 . S
C2246 H2240 0.930 . S
C2246 C2247 1.355 . S
C2246 C2248 1.415 . S
C2247 C2246 1.355 . S
C2247 C2249 1.419 . S
C2248 C2246 1.415 . S
C2248 C2253 1.425 . S
C2248 C2255 1.409 . S
C2249 H2241 0.930 . S
C2249 C2247 1.419 . S
C2249 C2250 1.362 . S
C2250 H2242 0.930 . S
C2250 C2249 1.362 . S
C2250 C2253 1.409 . S
C2251 H2243 0.930 . S
C2251 C2252 1.355 . S
C2251 C2253 1.415 . S
C2252 C2251 1.355 . S
C2252 C2254 1.419 . S
C2253 C2248 1.425 . S
C2253 C2250 1.409 . S
C2253 C2251 1.415 . S
C2254 H2244 0.930 . S
C2254 C2252 1.419 . S
C2254 C2255 1.362 . S
C2255 H2245 0.930 . S
C2255 C2248 1.409 . S
C2255 C2254 1.362 . S
H2256 C2262 0.930 . S
H2257 C2265 0.930 . S
H2258 C2266 0.930 . S
H2259 C2267 0.930 . S
H2260 C2270 0.930 . S
H2261 C2271 0.930 . S
C2262 H2256 0.930 . S
C2262 C2263 1.355 . S
C2262 C2264 1.415 . S
C2263 C2262 1.355 . S
C2263 C2265 1.419 . S
C2264 C2262 1.415 . S
C2264 C2269 1.425 . S
C2264 C2271 1.409 . S
C2265 H2257 0.930 . S
C2265 C2263 1.419 . S
C2265 C2266 1.362 . S
C2266 H2258 0.930 . S
C2266 C2265 1.362 . S
C2266 C2269 1.409 . S
C2267 H2259 0.930 . S
C2267 C2268 1.355 . S
C2267 C2269 1.415 . S
C2268 C2267 1.355 . S
C2268 C2270 1.419 . S
C2269 C2264 1.425 . S
C2269 C2266 1.409 . S
C2269 C2267 1.415 . S
C2270 H2260 0.930 . S
C2270 C2268 1.419 . S
C2270 C2271 1.362 . S
C2271 H2261 0.930 . S
C2271 C2264 1.409 . S
C2271 C2270 1.362 . S
H2272 C2278 0.930 . S
H2273 C2281 0.930 . S
H2274 C2282 0.930 . S
H2275 C2283 0.930 . S
H2276 C2286 0.930 . S
H2277 C2287 0.930 . S
C2278 H2272 0.930 . S
C2278 C2279 1.355 . S
C2278 C2280 1.415 . S
C2279 C2278 1.355 . S
C2279 C2281 1.419 . S
C2280 C2278 1.415 . S
C2280 C2285 1.441 . S
C2280 C2287 1.409 . S
C2281 H2273 0.930 . S
C2281 C2279 1.419 . S
C2281 C2282 1.362 1_565 S
C2282 H2274 0.930 . S
C2282 C2281 1.362 1_545 S
C2282 C2285 1.401 1_545 S
C2283 H2275 0.930 . S
C2283 C2284 1.355 . S
C2283 C2285 1.409 1_545 S
C2284 C2283 1.355 . S
C2284 C2286 1.419 1_545 S
C2285 C2280 1.441 . S
C2285 C2282 1.401 1_565 S
C2285 C2283 1.409 1_565 S
C2286 H2276 0.930 . S
C2286 C2284 1.419 1_565 S
C2286 C2287 1.362 . S
C2287 H2277 0.930 . S
C2287 C2280 1.409 . S
C2287 C2286 1.362 . S
H2288 C2294 0.930 . S
H2289 C2297 0.943 . S
H2290 C2298 0.930 . S
H2291 C2299 0.930 . S
H2292 C2302 0.930 . S
H2293 C2303 0.930 . S
C2294 H2288 0.930 . S
C2294 C2295 1.355 . S
C2294 C2296 1.415 . S
C2295 C2294 1.355 . S
C2295 C2297 1.385 1_556 S
C2296 C2294 1.415 . S
C2296 C2301 1.425 1_556 S
C2296 C2303 1.409 . S
C2297 H2289 0.943 . S
C2297 C2295 1.385 1_554 S
C2297 C2298 1.385 . S
C2298 H2290 0.930 . S
C2298 C2297 1.385 . S
C2298 C2301 1.409 . S
C2299 H2291 0.930 . S
C2299 C2300 1.355 . S
C2299 C2301 1.415 . S
C2300 C2299 1.355 . S
C2300 C2302 1.419 1_554 S
C2301 C2296 1.425 1_554 S
C2301 C2298 1.409 . S
C2301 C2299 1.415 . S
C2302 H2292 0.930 . S
C2302 C2300 1.419 1_556 S
C2302 C2303 1.362 . S
C2303 H2293 0.930 . S
C2303 C2296 1.409 . S
C2303 C2302 1.362 . S
H2304 C2310 0.931 . S
H2305 C2313 0.930 . S
H2306 C2314 0.930 . S
H2307 C2315 0.930 . S
H2308 C2318 0.930 . S
H2309 C2319 0.930 1_556 S
C2310 H2304 0.931 . S
C2310 C2311 1.355 . S
C2310 C2312 1.415 . S
C2311 C2310 1.355 . S
C2311 C2313 1.419 . S
C2312 C2310 1.415 . S
C2312 C2317 1.425 . S
C2312 C2319 1.409 . S
C2313 H2305 0.930 . S
C2313 C2311 1.419 . S
C2313 C2314 1.362 . S
C2314 H2306 0.930 . S
C2314 C2313 1.362 . S
C2314 C2317 1.409 . S
C2315 H2307 0.930 . S
C2315 C2316 1.355 . S
C2315 C2317 1.415 . S
C2316 C2315 1.355 . S
C2316 C2318 1.419 . S
C2317 C2312 1.425 . S
C2317 C2314 1.409 . S
C2317 C2315 1.415 . S
C2318 H2308 0.930 . S
C2318 C2316 1.419 . S
C2318 C2319 1.362 . S
C2319 H2309 0.930 1_554 S
C2319 C2312 1.409 . S
C2319 C2318 1.362 . S
H2320 C2326 0.930 . S
H2321 C2329 0.930 . S
H2322 C2330 0.930 . S
H2323 C2331 0.930 . S
H2324 C2334 0.930 . S
H2325 C2335 0.930 . S
C2326 H2320 0.930 . S
C2326 C2327 1.355 . S
C2326 C2328 1.415 . S
C2327 C2326 1.355 . S
C2327 C2329 1.419 . S
C2328 C2326 1.415 . S
C2328 C2333 1.425 . S
C2328 C2335 1.409 . S
C2329 H2321 0.930 . S
C2329 C2327 1.419 . S
C2329 C2330 1.362 . S
C2330 H2322 0.930 . S
C2330 C2329 1.362 . S
C2330 C2333 1.409 . S
C2331 H2323 0.930 . S
C2331 C2332 1.355 . S
C2331 C2333 1.415 . S
C2332 C2331 1.355 . S
C2332 C2334 1.419 . S
C2333 C2328 1.425 . S
C2333 C2330 1.409 . S
C2333 C2331 1.415 . S
C2334 H2324 0.930 . S
C2334 C2332 1.419 . S
C2334 C2335 1.362 . S
C2335 H2325 0.930 . S
C2335 C2328 1.409 . S
C2335 C2334 1.362 . S
H2336 C2342 0.930 . S
H2337 C2345 0.930 . S
H2338 C2346 0.930 . S
H2339 C2347 0.930 . S
H2340 C2350 0.930 . S
H2341 C2351 0.930 . S
C2342 H2336 0.930 . S
C2342 C2343 1.355 . S
C2342 C2344 1.415 . S
C2343 C2342 1.355 . S
C2343 C2345 1.419 . S
C2344 C2342 1.415 . S
C2344 C2349 1.425 . S
C2344 C2351 1.409 . S
C2345 H2337 0.930 . S
C2345 C2343 1.419 . S
C2345 C2346 1.362 . S
C2346 H2338 0.930 . S
C2346 C2345 1.362 . S
C2346 C2349 1.409 . S
C2347 H2339 0.930 . S
C2347 C2348 1.355 . S
C2347 C2349 1.415 . S
C2348 C2347 1.355 . S
C2348 C2350 1.419 . S
C2349 C2344 1.425 . S
C2349 C2346 1.409 . S
C2349 C2347 1.415 . S
C2350 H2340 0.930 . S
C2350 C2348 1.419 . S
C2350 C2351 1.362 . S
C2351 H2341 0.930 . S
C2351 C2344 1.409 . S
C2351 C2350 1.362 . S
H2352 C2358 0.930 . S
H2353 C2361 0.930 . S
H2354 C2362 0.930 . S
H2355 C2363 0.930 . S
H2356 C2366 0.930 . S
H2357 C2367 0.930 . S
C2358 H2352 0.930 . S
C2358 C2359 1.355 . S
C2358 C2360 1.415 1_655 S
C2359 C2358 1.355 . S
C2359 C2361 1.419 . S
C2360 C2358 1.415 1_455 S
C2360 C2365 1.425 . S
C2360 C2367 1.409 . S
C2361 H2353 0.930 . S
C2361 C2359 1.419 . S
C2361 C2362 1.362 1_655 S
C2362 H2354 0.930 . S
C2362 C2361 1.362 1_455 S
C2362 C2365 1.409 . S
C2363 H2355 0.930 . S
C2363 C2364 1.355 . S
C2363 C2365 1.415 . S
C2364 C2363 1.355 . S
C2364 C2366 1.419 . S
C2365 C2360 1.425 . S
C2365 C2362 1.409 . S
C2365 C2363 1.415 . S
C2366 H2356 0.930 . S
C2366 C2364 1.419 . S
C2366 C2367 1.362 . S
C2367 H2357 0.930 . S
C2367 C2360 1.409 . S
C2367 C2366 1.362 . S
H2368 C2374 0.930 . S
H2369 C2377 0.930 . S
H2370 C2378 0.930 . S
H2371 C2379 0.930 . S
H2372 C2382 0.930 . S
H2373 C2383 0.930 . S
C2374 H2368 0.930 . S
C2374 C2375 1.355 . S
C2374 C2376 1.415 . S
C2375 C2374 1.355 . S
C2375 C2377 1.419 . S
C2376 C2374 1.415 . S
C2376 C2381 1.425 . S
C2376 C2383 1.409 . S
C2377 H2369 0.930 . S
C2377 C2375 1.419 . S
C2377 C2378 1.362 . S
C2378 H2370 0.930 . S
C2378 C2377 1.362 . S
C2378 C2381 1.409 . S
C2379 H2371 0.930 . S
C2379 C2380 1.355 . S
C2379 C2381 1.415 . S
C2380 C2379 1.355 . S
C2380 C2382 1.419 . S
C2381 C2376 1.425 . S
C2381 C2378 1.409 . S
C2381 C2379 1.415 . S
C2382 H2372 0.930 . S
C2382 C2380 1.419 . S
C2382 C2383 1.362 . S
C2383 H2373 0.930 . S
C2383 C2376 1.409 . S
C2383 C2382 1.362 . S
H2384 C2390 0.930 . S
H2385 C2393 0.930 . S
H2386 C2394 0.930 . S
H2387 C2395 0.930 . S
H2388 C2398 0.930 . S
H2389 C2399 0.930 . S
C2390 H2384 0.930 . S
C2390 C2391 1.355 . S
C2390 C2392 1.415 . S
C2391 C2390 1.355 . S
C2391 C2393 1.419 . S
C2392 C2390 1.415 . S
C2392 C2397 1.425 . S
C2392 C2399 1.409 . S
C2393 H2385 0.930 . S
C2393 C2391 1.419 . S
C2393 C2394 1.362 . S
C2394 H2386 0.930 . S
C2394 C2393 1.362 . S
C2394 C2397 1.409 . S
C2395 H2387 0.930 . S
C2395 C2396 1.355 . S
C2395 C2397 1.415 . S
C2396 C2395 1.355 . S
C2396 C2398 1.419 . S
C2397 C2392 1.425 . S
C2397 C2394 1.409 . S
C2397 C2395 1.415 . S
C2398 H2388 0.930 . S
C2398 C2396 1.419 . S
C2398 C2399 1.362 . S
C2399 H2389 0.930 . S
C2399 C2392 1.409 . S
C2399 C2398 1.362 . S
H2400 C2406 0.930 . S
H2401 C2409 0.930 . S
H2402 C2410 0.930 . S
H2403 C2411 0.930 . S
H2404 C2414 0.930 . S
H2405 C2415 0.930 . S
C2406 H2400 0.930 . S
C2406 C2407 1.355 . S
C2406 C2408 1.415 . S
C2407 C2406 1.355 . S
C2407 C2409 1.419 . S
C2408 C2406 1.415 . S
C2408 C2413 1.425 . S
C2408 C2415 1.409 . S
C2409 H2401 0.930 . S
C2409 C2407 1.419 . S
C2409 C2410 1.362 . S
C2410 H2402 0.930 . S
C2410 C2409 1.362 . S
C2410 C2413 1.409 . S
C2411 H2403 0.930 . S
C2411 C2412 1.355 . S
C2411 C2413 1.415 . S
C2412 C2411 1.355 . S
C2412 C2414 1.419 . S
C2413 C2408 1.425 . S
C2413 C2410 1.409 . S
C2413 C2411 1.415 . S
C2414 H2404 0.930 . S
C2414 C2412 1.419 . S
C2414 C2415 1.362 . S
C2415 H2405 0.930 . S
C2415 C2408 1.409 . S
C2415 C2414 1.362 . S
H2416 C2422 0.930 . S
H2417 C2425 0.930 . S
H2418 C2426 0.930 . S
H2419 C2427 0.930 . S
H2420 C2430 0.930 . S
H2421 C2431 0.930 . S
C2422 H2416 0.930 . S
C2422 C2423 1.355 . S
C2422 C2424 1.415 . S
C2423 C2422 1.355 . S
C2423 C2425 1.419 . S
C2424 C2422 1.415 . S
C2424 C2429 1.425 . S
C2424 C2431 1.409 . S
C2425 H2417 0.930 . S
C2425 C2423 1.419 . S
C2425 C2426 1.362 . S
C2426 H2418 0.930 . S
C2426 C2425 1.362 . S
C2426 C2429 1.409 . S
C2427 H2419 0.930 . S
C2427 C2428 1.355 . S
C2427 C2429 1.415 . S
C2428 C2427 1.355 . S
C2428 C2430 1.419 . S
C2429 C2424 1.425 . S
C2429 C2426 1.409 . S
C2429 C2427 1.415 . S
C2430 H2420 0.930 . S
C2430 C2428 1.419 . S
C2430 C2431 1.362 . S
C2431 H2421 0.930 . S
C2431 C2424 1.409 . S
C2431 C2430 1.362 . S
H2432 C2438 0.936 . S
H2433 C2441 0.930 . S
H2434 C2442 0.930 . S
H2435 C2443 0.930 . S
H2436 C2446 0.930 . S
H2437 C2447 0.927 . S
C2438 H2432 0.936 . S
C2438 C2439 1.353 1_455 S
C2438 C2440 1.410 1_455 S
C2439 C2438 1.353 1_655 S
C2439 C2441 1.419 . S
C2440 C2438 1.410 1_655 S
C2440 C2445 1.425 . S
C2440 C2447 1.409 . S
C2441 H2433 0.930 . S
C2441 C2439 1.419 . S
C2441 C2442 1.362 . S
C2442 H2434 0.930 . S
C2442 C2441 1.362 . S
C2442 C2445 1.409 . S
C2443 H2435 0.930 . S
C2443 C2444 1.355 . S
C2443 C2445 1.415 . S
C2444 C2443 1.355 . S
C2444 C2446 1.419 . S
C2445 C2440 1.425 . S
C2445 C2442 1.409 . S
C2445 C2443 1.415 . S
C2446 H2436 0.930 . S
C2446 C2444 1.419 . S
C2446 C2447 1.362 . S
C2447 H2437 0.927 . S
C2447 C2440 1.409 . S
C2447 C2446 1.362 . S
H2448 C2454 0.930 . S
H2449 C2457 0.930 . S
H2450 C2458 0.930 . S
H2451 C2459 0.930 . S
H2452 C2462 0.930 . S
H2453 C2463 0.930 . S
C2454 H2448 0.930 . S
C2454 C2455 1.355 . S
C2454 C2456 1.415 . S
C2455 C2454 1.355 . S
C2455 C2457 1.419 . S
C2456 C2454 1.415 . S
C2456 C2461 1.425 . S
C2456 C2463 1.409 . S
C2457 H2449 0.930 . S
C2457 C2455 1.419 . S
C2457 C2458 1.362 . S
C2458 H2450 0.930 . S
C2458 C2457 1.362 . S
C2458 C2461 1.409 . S
C2459 H2451 0.930 . S
C2459 C2460 1.355 . S
C2459 C2461 1.415 . S
C2460 C2459 1.355 . S
C2460 C2462 1.419 . S
C2461 C2456 1.425 . S
C2461 C2458 1.409 . S
C2461 C2459 1.415 . S
C2462 H2452 0.930 . S
C2462 C2460 1.419 . S
C2462 C2463 1.362 . S
C2463 H2453 0.930 . S
C2463 C2456 1.409 . S
C2463 C2462 1.362 . S
H2464 C2470 0.930 . S
H2465 C2473 0.930 . S
H2466 C2474 0.930 . S
H2467 C2475 0.930 . S
H2468 C2478 0.930 . S
H2469 C2479 0.930 . S
C2470 H2464 0.930 . S
C2470 C2471 1.355 . S
C2470 C2472 1.415 . S
C2471 C2470 1.355 . S
C2471 C2473 1.419 . S
C2472 C2470 1.415 . S
C2472 C2477 1.425 . S
C2472 C2479 1.409 . S
C2473 H2465 0.930 . S
C2473 C2471 1.419 . S
C2473 C2474 1.362 . S
C2474 H2466 0.930 . S
C2474 C2473 1.362 . S
C2474 C2477 1.409 . S
C2475 H2467 0.930 . S
C2475 C2476 1.355 . S
C2475 C2477 1.415 . S
C2476 C2475 1.355 . S
C2476 C2478 1.419 . S
C2477 C2472 1.425 . S
C2477 C2474 1.409 . S
C2477 C2475 1.415 . S
C2478 H2468 0.930 . S
C2478 C2476 1.419 . S
C2478 C2479 1.362 . S
C2479 H2469 0.930 . S
C2479 C2472 1.409 . S
C2479 C2478 1.362 . S
H2480 C2486 0.930 . S
H2481 C2489 0.930 . S
H2482 C2490 0.930 . S
H2483 C2491 0.930 . S
H2484 C2494 0.930 . S
H2485 C2495 0.930 . S
C2486 H2480 0.930 . S
C2486 C2487 1.355 . S
C2486 C2488 1.415 . S
C2487 C2486 1.355 . S
C2487 C2489 1.419 . S
C2488 C2486 1.415 . S
C2488 C2493 1.425 . S
C2488 C2495 1.409 . S
C2489 H2481 0.930 . S
C2489 C2487 1.419 . S
C2489 C2490 1.362 . S
C2490 H2482 0.930 . S
C2490 C2489 1.362 . S
C2490 C2493 1.409 . S
C2491 H2483 0.930 . S
C2491 C2492 1.355 . S
C2491 C2493 1.415 . S
C2492 C2491 1.355 . S
C2492 C2494 1.419 . S
C2493 C2488 1.425 . S
C2493 C2490 1.409 . S
C2493 C2491 1.415 . S
C2494 H2484 0.930 . S
C2494 C2492 1.419 . S
C2494 C2495 1.362 . S
C2495 H2485 0.930 . S
C2495 C2488 1.409 . S
C2495 C2494 1.362 . S
H2496 C2502 0.930 . S
H2497 C2505 0.930 . S
H2498 C2506 0.930 . S
H2499 C2507 0.930 . S
H2500 C2510 0.930 . S
H2501 C2511 0.930 . S
C2502 H2496 0.930 . S
C2502 C2503 1.355 . S
C2502 C2504 1.415 . S
C2503 C2502 1.355 . S
C2503 C2505 1.419 . S
C2504 C2502 1.415 . S
C2504 C2509 1.425 . S
C2504 C2511 1.409 . S
C2505 H2497 0.930 . S
C2505 C2503 1.419 . S
C2505 C2506 1.362 . S
C2506 H2498 0.930 . S
C2506 C2505 1.362 . S
C2506 C2509 1.409 . S
C2507 H2499 0.930 . S
C2507 C2508 1.355 . S
C2507 C2509 1.415 . S
C2508 C2507 1.355 . S
C2508 C2510 1.419 . S
C2509 C2504 1.425 . S
C2509 C2506 1.409 . S
C2509 C2507 1.415 . S
C2510 H2500 0.930 . S
C2510 C2508 1.419 . S
C2510 C2511 1.362 . S
C2511 H2501 0.930 . S
C2511 C2504 1.409 . S
C2511 C2510 1.362 . S
H2512 C2518 0.930 . S
H2513 C2521 0.930 . S
H2514 C2522 0.930 . S
H2515 C2523 0.930 . S
H2516 C2526 0.930 . S
H2517 C2527 0.930 . S
C2518 H2512 0.930 . S
C2518 C2519 1.355 . S
C2518 C2520 1.415 . S
C2519 C2518 1.355 . S
C2519 C2521 1.419 . S
C2520 C2518 1.415 . S
C2520 C2525 1.425 . S
C2520 C2527 1.409 . S
C2521 H2513 0.930 . S
C2521 C2519 1.419 . S
C2521 C2522 1.362 . S
C2522 H2514 0.930 . S
C2522 C2521 1.362 . S
C2522 C2525 1.409 . S
C2523 H2515 0.930 . S
C2523 C2524 1.355 . S
C2523 C2525 1.415 . S
C2524 C2523 1.355 . S
C2524 C2526 1.419 . S
C2525 C2520 1.425 . S
C2525 C2522 1.409 . S
C2525 C2523 1.415 . S
C2526 H2516 0.930 . S
C2526 C2524 1.419 . S
C2526 C2527 1.362 . S
C2527 H2517 0.930 . S
C2527 C2520 1.409 . S
C2527 C2526 1.362 . S
H2528 C2534 0.930 . S
H2529 C2537 0.930 . S
H2530 C2538 0.930 . S
H2531 C2539 0.930 . S
H2532 C2542 0.930 . S
H2533 C2543 0.930 . S
C2534 H2528 0.930 . S
C2534 C2535 1.355 . S
C2534 C2536 1.415 . S
C2535 C2534 1.355 . S
C2535 C2537 1.419 . S
C2536 C2534 1.415 . S
C2536 C2541 1.425 . S
C2536 C2543 1.409 . S
C2537 H2529 0.930 . S
C2537 C2535 1.419 . S
C2537 C2538 1.362 . S
C2538 H2530 0.930 . S
C2538 C2537 1.362 . S
C2538 C2541 1.409 . S
C2539 H2531 0.930 . S
C2539 C2540 1.355 . S
C2539 C2541 1.415 . S
C2540 C2539 1.355 . S
C2540 C2542 1.419 . S
C2541 C2536 1.425 . S
C2541 C2538 1.409 . S
C2541 C2539 1.415 . S
C2542 H2532 0.930 . S
C2542 C2540 1.419 . S
C2542 C2543 1.362 . S
C2543 H2533 0.930 . S
C2543 C2536 1.409 . S
C2543 C2542 1.362 . S
H2544 C2550 0.930 . S
H2545 C2553 0.930 . S
H2546 C2554 0.930 . S
H2547 C2555 0.930 . S
H2548 C2558 0.930 . S
H2549 C2559 0.930 . S
C2550 H2544 0.930 . S
C2550 C2551 1.355 . S
C2550 C2552 1.415 . S
C2551 C2550 1.355 . S
C2551 C2553 1.419 . S
C2552 C2550 1.415 . S
C2552 C2557 1.425 . S
C2552 C2559 1.409 . S
C2553 H2545 0.930 . S
C2553 C2551 1.419 . S
C2553 C2554 1.362 . S
C2554 H2546 0.930 . S
C2554 C2553 1.362 . S
C2554 C2557 1.409 . S
C2555 H2547 0.930 . S
C2555 C2556 1.355 . S
C2555 C2557 1.415 . S
C2556 C2555 1.355 . S
C2556 C2558 1.419 . S
C2557 C2552 1.425 . S
C2557 C2554 1.409 . S
C2557 C2555 1.415 . S
C2558 H2548 0.930 . S
C2558 C2556 1.419 . S
C2558 C2559 1.362 . S
C2559 H2549 0.930 . S
C2559 C2552 1.409 . S
C2559 C2558 1.362 . S
H2560 C2566 0.930 . S
H2561 C2569 0.930 . S
H2562 C2570 0.930 . S
H2563 C2571 0.930 . S
H2564 C2574 0.930 . S
H2565 C2575 0.930 . S
C2566 H2560 0.930 . S
C2566 C2567 1.355 . S
C2566 C2568 1.415 . S
C2567 C2566 1.355 . S
C2567 C2569 1.419 . S
C2568 C2566 1.415 . S
C2568 C2573 1.425 . S
C2568 C2575 1.409 . S
C2569 H2561 0.930 . S
C2569 C2567 1.419 . S
C2569 C2570 1.362 . S
C2570 H2562 0.930 . S
C2570 C2569 1.362 . S
C2570 C2573 1.409 . S
C2571 H2563 0.930 . S
C2571 C2572 1.355 . S
C2571 C2573 1.415 . S
C2572 C2571 1.355 . S
C2572 C2574 1.419 . S
C2573 C2568 1.425 . S
C2573 C2570 1.409 . S
C2573 C2571 1.415 . S
C2574 H2564 0.930 . S
C2574 C2572 1.419 . S
C2574 C2575 1.362 . S
C2575 H2565 0.930 . S
C2575 C2568 1.409 . S
C2575 C2574 1.362 . S
H2576 C2582 0.930 . S
H2577 C2585 0.930 . S
H2578 C2586 0.930 . S
H2579 C2587 0.930 . S
H2580 C2590 0.930 . S
H2581 C2591 0.930 . S
C2582 H2576 0.930 . S
C2582 C2583 1.355 . S
C2582 C2584 1.415 . S
C2583 C2582 1.355 . S
C2583 C2585 1.419 . S
C2584 C2582 1.415 . S
C2584 C2589 1.425 . S
C2584 C2591 1.409 . S
C2585 H2577 0.930 . S
C2585 C2583 1.419 . S
C2585 C2586 1.362 . S
C2586 H2578 0.930 . S
C2586 C2585 1.362 . S
C2586 C2589 1.409 . S
C2587 H2579 0.930 . S
C2587 C2588 1.355 . S
C2587 C2589 1.415 . S
C2588 C2587 1.355 . S
C2588 C2590 1.419 . S
C2589 C2584 1.425 . S
C2589 C2586 1.409 . S
C2589 C2587 1.415 . S
C2590 H2580 0.930 . S
C2590 C2588 1.419 . S
C2590 C2591 1.362 . S
C2591 H2581 0.930 . S
C2591 C2584 1.409 . S
C2591 C2590 1.362 . S
H2592 C2598 0.930 . S
H2593 C2601 0.930 . S
H2594 C2602 0.930 . S
H2595 C2603 0.930 . S
H2596 C2606 0.930 . S
H2597 C2607 0.930 . S
C2598 H2592 0.930 . S
C2598 C2599 1.355 . S
C2598 C2600 1.415 . S
C2599 C2598 1.355 . S
C2599 C2601 1.419 . S
C2600 C2598 1.415 . S
C2600 C2605 1.425 . S
C2600 C2607 1.409 . S
C2601 H2593 0.930 . S
C2601 C2599 1.419 . S
C2601 C2602 1.362 . S
C2602 H2594 0.930 . S
C2602 C2601 1.362 . S
C2602 C2605 1.409 . S
C2603 H2595 0.930 . S
C2603 C2604 1.355 . S
C2603 C2605 1.415 . S
C2604 C2603 1.355 . S
C2604 C2606 1.419 . S
C2605 C2600 1.425 . S
C2605 C2602 1.409 . S
C2605 C2603 1.415 . S
C2606 H2596 0.930 . S
C2606 C2604 1.419 . S
C2606 C2607 1.362 . S
C2607 H2597 0.930 . S
C2607 C2600 1.409 . S
C2607 C2606 1.362 . S
H2608 C2614 0.930 . S
H2609 C2617 0.930 1_554 S
H2610 C2618 0.930 . S
H2611 C2619 0.930 . S
H2612 C2622 0.930 . S
H2613 C2623 0.930 . S
C2614 H2608 0.930 . S
C2614 C2615 1.355 . S
C2614 C2616 1.415 . S
C2615 C2614 1.355 . S
C2615 C2617 1.419 . S
C2616 C2614 1.415 . S
C2616 C2621 1.425 . S
C2616 C2623 1.409 . S
C2617 H2609 0.930 1_556 S
C2617 C2615 1.419 . S
C2617 C2618 1.362 . S
C2618 H2610 0.930 . S
C2618 C2617 1.362 . S
C2618 C2621 1.409 . S
C2619 H2611 0.930 . S
C2619 C2620 1.355 . S
C2619 C2621 1.415 . S
C2620 C2619 1.355 . S
C2620 C2622 1.419 . S
C2621 C2616 1.425 . S
C2621 C2618 1.409 . S
C2621 C2619 1.415 . S
C2622 H2612 0.930 . S
C2622 C2620 1.419 . S
C2622 C2623 1.362 . S
C2623 H2613 0.930 . S
C2623 C2616 1.409 . S
C2623 C2622 1.362 . S
H2624 C2630 0.930 . S
H2625 C2633 0.930 . S
H2626 C2634 0.930 . S
H2627 C2635 0.930 . S
H2628 C2638 0.930 . S
H2629 C2639 0.930 . S
C2630 H2624 0.930 . S
C2630 C2631 1.355 . S
C2630 C2632 1.415 . S
C2631 C2630 1.355 . S
C2631 C2633 1.419 . S
C2632 C2630 1.415 . S
C2632 C2637 1.425 . S
C2632 C2639 1.409 . S
C2633 H2625 0.930 . S
C2633 C2631 1.419 . S
C2633 C2634 1.362 . S
C2634 H2626 0.930 . S
C2634 C2633 1.362 . S
C2634 C2637 1.409 . S
C2635 H2627 0.930 . S
C2635 C2636 1.355 . S
C2635 C2637 1.415 . S
C2636 C2635 1.355 . S
C2636 C2638 1.419 . S
C2637 C2632 1.425 . S
C2637 C2634 1.409 . S
C2637 C2635 1.415 . S
C2638 H2628 0.930 . S
C2638 C2636 1.419 . S
C2638 C2639 1.362 . S
C2639 H2629 0.930 . S
C2639 C2632 1.409 . S
C2639 C2638 1.362 . S
H2640 C2646 0.930 . S
H2641 C2649 0.930 . S
H2642 C2650 0.930 . S
H2643 C2651 0.930 . S
H2644 C2654 0.930 . S
H2645 C2655 0.930 . S
C2646 H2640 0.930 . S
C2646 C2647 1.355 . S
C2646 C2648 1.415 . S
C2647 C2646 1.355 . S
C2647 C2649 1.419 . S
C2648 C2646 1.415 . S
C2648 C2653 1.425 . S
C2648 C2655 1.409 . S
C2649 H2641 0.930 . S
C2649 C2647 1.419 . S
C2649 C2650 1.362 . S
C2650 H2642 0.930 . S
C2650 C2649 1.362 . S
C2650 C2653 1.409 . S
C2651 H2643 0.930 . S
C2651 C2652 1.355 . S
C2651 C2653 1.415 . S
C2652 C2651 1.355 . S
C2652 C2654 1.419 . S
C2653 C2648 1.425 . S
C2653 C2650 1.409 . S
C2653 C2651 1.415 . S
C2654 H2644 0.930 . S
C2654 C2652 1.419 . S
C2654 C2655 1.362 . S
C2655 H2645 0.930 . S
C2655 C2648 1.409 . S
C2655 C2654 1.362 . S
H2656 C2662 0.930 . S
H2657 C2665 0.930 . S
H2658 C2666 0.930 . S
H2659 C2667 0.930 . S
H2660 C2670 0.930 . S
H2661 C2671 0.930 . S
C2662 H2656 0.930 . S
C2662 C2663 1.355 . S
C2662 C2664 1.415 . S
C2663 C2662 1.355 . S
C2663 C2665 1.419 . S
C2664 C2662 1.415 . S
C2664 C2669 1.425 . S
C2664 C2671 1.409 . S
C2665 H2657 0.930 . S
C2665 C2663 1.419 . S
C2665 C2666 1.362 . S
C2666 H2658 0.930 . S
C2666 C2665 1.362 . S
C2666 C2669 1.409 . S
C2667 H2659 0.930 . S
C2667 C2668 1.355 . S
C2667 C2669 1.415 . S
C2668 C2667 1.355 . S
C2668 C2670 1.419 . S
C2669 C2664 1.425 . S
C2669 C2666 1.409 . S
C2669 C2667 1.415 . S
C2670 H2660 0.930 . S
C2670 C2668 1.419 . S
C2670 C2671 1.362 . S
C2671 H2661 0.930 . S
C2671 C2664 1.409 . S
C2671 C2670 1.362 . S
H2672 C2678 0.930 . S
H2673 C2681 0.930 . S
H2674 C2682 0.930 . S
H2675 C2683 0.930 . S
H2676 C2686 0.930 . S
H2677 C2687 0.930 . S
C2678 H2672 0.930 . S
C2678 C2679 1.355 . S
C2678 C2680 1.415 . S
C2679 C2678 1.355 . S
C2679 C2681 1.419 . S
C2680 C2678 1.415 . S
C2680 C2685 1.425 . S
C2680 C2687 1.409 . S
C2681 H2673 0.930 . S
C2681 C2679 1.419 . S
C2681 C2682 1.362 . S
C2682 H2674 0.930 . S
C2682 C2681 1.362 . S
C2682 C2685 1.409 . S
C2683 H2675 0.930 . S
C2683 C2684 1.355 . S
C2683 C2685 1.415 . S
C2684 C2683 1.355 . S
C2684 C2686 1.419 . S
C2685 C2680 1.425 . S
C2685 C2682 1.409 . S
C2685 C2683 1.415 . S
C2686 H2676 0.930 . S
C2686 C2684 1.419 . S
C2686 C2687 1.362 . S
C2687 H2677 0.930 . S
C2687 C2680 1.409 . S
C2687 C2686 1.362 . S
H2688 C2694 0.930 . S
H2689 C2697 0.930 . S
H2690 C2698 0.930 . S
H2691 C2699 0.930 . S
H2692 C2702 0.930 . S
H2693 C2703 0.930 . S
C2694 H2688 0.930 . S
C2694 C2695 1.355 . S
C2694 C2696 1.415 . S
C2695 C2694 1.355 . S
C2695 C2697 1.419 . S
C2696 C2694 1.415 . S
C2696 C2701 1.425 . S
C2696 C2703 1.409 . S
C2697 H2689 0.930 . S
C2697 C2695 1.419 . S
C2697 C2698 1.362 . S
C2698 H2690 0.930 . S
C2698 C2697 1.362 . S
C2698 C2701 1.409 . S
C2699 H2691 0.930 . S
C2699 C2700 1.355 . S
C2699 C2701 1.415 . S
C2700 C2699 1.355 . S
C2700 C2702 1.419 . S
C2701 C2696 1.425 . S
C2701 C2698 1.409 . S
C2701 C2699 1.415 . S
C2702 H2692 0.930 . S
C2702 C2700 1.419 . S
C2702 C2703 1.362 . S
C2703 H2693 0.930 . S
C2703 C2696 1.409 . S
C2703 C2702 1.362 . S
H2704 C2710 0.952 . S
H2705 C2713 0.930 . S
H2706 C2714 0.930 . S
H2707 C2715 0.930 . S
H2708 C2718 0.930 . S
H2709 C2719 0.930 1_455 S
C2710 H2704 0.952 . S
C2710 C2711 1.355 . S
C2710 C2712 1.415 . S
C2711 C2710 1.355 . S
C2711 C2713 1.419 . S
C2712 C2710 1.415 . S
C2712 C2717 1.425 . S
C2712 C2719 1.409 . S
C2713 H2705 0.930 . S
C2713 C2711 1.419 . S
C2713 C2714 1.362 . S
C2714 H2706 0.930 . S
C2714 C2713 1.362 . S
C2714 C2717 1.409 . S
C2715 H2707 0.930 . S
C2715 C2716 1.355 . S
C2715 C2717 1.415 . S
C2716 C2715 1.355 . S
C2716 C2718 1.419 . S
C2717 C2712 1.425 . S
C2717 C2714 1.409 . S
C2717 C2715 1.415 . S
C2718 H2708 0.930 . S
C2718 C2716 1.419 . S
C2718 C2719 1.362 . S
C2719 H2709 0.930 1_655 S
C2719 C2712 1.409 . S
C2719 C2718 1.362 . S
H2720 C2726 0.930 . S
H2721 C2729 0.930 . S
H2722 C2730 0.930 . S
H2723 C2731 0.930 . S
H2724 C2734 0.930 . S
H2725 C2735 0.930 . S
C2726 H2720 0.930 . S
C2726 C2727 1.355 . S
C2726 C2728 1.415 . S
C2727 C2726 1.355 . S
C2727 C2729 1.419 . S
C2728 C2726 1.415 . S
C2728 C2733 1.425 . S
C2728 C2735 1.409 . S
C2729 H2721 0.930 . S
C2729 C2727 1.419 . S
C2729 C2730 1.362 . S
C2730 H2722 0.930 . S
C2730 C2729 1.362 . S
C2730 C2733 1.409 . S
C2731 H2723 0.930 . S
C2731 C2732 1.355 . S
C2731 C2733 1.415 . S
C2732 C2731 1.355 . S
C2732 C2734 1.419 . S
C2733 C2728 1.425 . S
C2733 C2730 1.409 . S
C2733 C2731 1.415 . S
C2734 H2724 0.930 . S
C2734 C2732 1.419 . S
C2734 C2735 1.362 . S
C2735 H2725 0.930 . S
C2735 C2728 1.409 . S
C2735 C2734 1.362 . S
H2736 C2742 0.930 . S
H2737 C2745 0.930 . S
H2738 C2746 0.930 . S
H2739 C2747 0.930 . S
H2740 C2750 0.930 . S
H2741 C2751 0.930 . S
C2742 H2736 0.930 . S
C2742 C2743 1.355 . S
C2742 C2744 1.415 . S
C2743 C2742 1.355 . S
C2743 C2745 1.419 . S
C2744 C2742 1.415 . S
C2744 C2749 1.425 . S
C2744 C2751 1.409 . S
C2745 H2737 0.930 . S
C2745 C2743 1.419 . S
C2745 C2746 1.362 . S
C2746 H2738 0.930 . S
C2746 C2745 1.362 . S
C2746 C2749 1.409 . S
C2747 H2739 0.930 . S
C2747 C2748 1.355 . S
C2747 C2749 1.415 . S
C2748 C2747 1.355 . S
C2748 C2750 1.419 . S
C2749 C2744 1.425 . S
C2749 C2746 1.409 . S
C2749 C2747 1.415 . S
C2750 H2740 0.930 . S
C2750 C2748 1.419 . S
C2750 C2751 1.362 . S
C2751 H2741 0.930 . S
C2751 C2744 1.409 . S
C2751 C2750 1.362 . S
H2752 C2758 0.930 . S
H2753 C2761 0.930 . S
H2754 C2762 0.930 . S
H2755 C2763 0.930 . S
H2756 C2766 0.930 . S
H2757 C2767 0.930 . S
C2758 H2752 0.930 . S
C2758 C2759 1.355 . S
C2758 C2760 1.415 . S
C2759 C2758 1.355 . S
C2759 C2761 1.419 . S
C2760 C2758 1.415 . S
C2760 C2765 1.425 . S
C2760 C2767 1.409 . S
C2761 H2753 0.930 . S
C2761 C2759 1.419 . S
C2761 C2762 1.362 . S
C2762 H2754 0.930 . S
C2762 C2761 1.362 . S
C2762 C2765 1.409 . S
C2763 H2755 0.930 . S
C2763 C2764 1.355 . S
C2763 C2765 1.415 . S
C2764 C2763 1.355 . S
C2764 C2766 1.419 . S
C2765 C2760 1.425 . S
C2765 C2762 1.409 . S
C2765 C2763 1.415 . S
C2766 H2756 0.930 . S
C2766 C2764 1.419 . S
C2766 C2767 1.362 . S
C2767 H2757 0.930 . S
C2767 C2760 1.409 . S
C2767 C2766 1.362 . S
H2768 C2774 0.930 . S
H2769 C2777 0.930 . S
H2770 C2778 0.930 . S
H2771 C2779 0.930 . S
H2772 C2782 0.930 . S
H2773 C2783 0.930 . S
C2774 H2768 0.930 . S
C2774 C2775 1.355 . S
C2774 C2776 1.415 . S
C2775 C2774 1.355 . S
C2775 C2777 1.419 . S
C2776 C2774 1.415 . S
C2776 C2781 1.425 . S
C2776 C2783 1.409 . S
C2777 H2769 0.930 . S
C2777 C2775 1.419 . S
C2777 C2778 1.362 . S
C2778 H2770 0.930 . S
C2778 C2777 1.362 . S
C2778 C2781 1.409 . S
C2779 H2771 0.930 . S
C2779 C2780 1.355 . S
C2779 C2781 1.415 . S
C2780 C2779 1.355 . S
C2780 C2782 1.419 . S
C2781 C2776 1.425 . S
C2781 C2778 1.409 . S
C2781 C2779 1.415 . S
C2782 H2772 0.930 . S
C2782 C2780 1.419 . S
C2782 C2783 1.362 . S
C2783 H2773 0.930 . S
C2783 C2776 1.409 . S
C2783 C2782 1.362 . S
H2784 C2790 0.930 . S
H2785 C2793 0.930 . S
H2786 C2794 0.930 . S
H2787 C2795 0.930 . S
H2788 C2798 0.930 . S
H2789 C2799 0.930 . S
C2790 H2784 0.930 . S
C2790 C2791 1.355 . S
C2790 C2792 1.415 . S
C2791 C2790 1.355 . S
C2791 C2793 1.419 . S
C2792 C2790 1.415 . S
C2792 C2797 1.425 . S
C2792 C2799 1.409 . S
C2793 H2785 0.930 . S
C2793 C2791 1.419 . S
C2793 C2794 1.362 . S
C2794 H2786 0.930 . S
C2794 C2793 1.362 . S
C2794 C2797 1.409 . S
C2795 H2787 0.930 . S
C2795 C2796 1.355 . S
C2795 C2797 1.415 . S
C2796 C2795 1.355 . S
C2796 C2798 1.419 . S
C2797 C2792 1.425 . S
C2797 C2794 1.409 . S
C2797 C2795 1.415 . S
C2798 H2788 0.930 . S
C2798 C2796 1.419 . S
C2798 C2799 1.362 . S
C2799 H2789 0.930 . S
C2799 C2792 1.409 . S
C2799 C2798 1.362 . S
H2800 C2806 0.930 . S
H2801 C2809 0.930 . S
H2802 C2810 0.930 . S
H2803 C2811 0.930 . S
H2804 C2814 0.930 . S
H2805 C2815 0.930 . S
C2806 H2800 0.930 . S
C2806 C2807 1.355 1_655 S
C2806 C2808 1.415 . S
C2807 C2806 1.355 1_455 S
C2807 C2809 1.419 . S
C2808 C2806 1.415 . S
C2808 C2813 1.425 . S
C2808 C2815 1.409 . S
C2809 H2801 0.930 . S
C2809 C2807 1.419 . S
C2809 C2810 1.362 . S
C2810 H2802 0.930 . S
C2810 C2809 1.362 . S
C2810 C2813 1.409 1_455 S
C2811 H2803 0.930 . S
C2811 C2812 1.355 . S
C2811 C2813 1.415 . S
C2812 C2811 1.355 . S
C2812 C2814 1.419 . S
C2813 C2808 1.425 . S
C2813 C2810 1.409 1_655 S
C2813 C2811 1.415 . S
C2814 H2804 0.930 . S
C2814 C2812 1.419 . S
C2814 C2815 1.362 . S
C2815 H2805 0.930 . S
C2815 C2808 1.409 . S
C2815 C2814 1.362 . S
H2816 C2822 0.930 . S
H2817 C2825 0.930 . S
H2818 C2826 0.930 . S
H2819 C2827 0.930 . S
H2820 C2830 0.930 . S
H2821 C2831 0.930 . S
C2822 H2816 0.930 . S
C2822 C2823 1.355 . S
C2822 C2824 1.415 . S
C2823 C2822 1.355 . S
C2823 C2825 1.419 . S
C2824 C2822 1.415 . S
C2824 C2829 1.425 . S
C2824 C2831 1.409 . S
C2825 H2817 0.930 . S
C2825 C2823 1.419 . S
C2825 C2826 1.362 . S
C2826 H2818 0.930 . S
C2826 C2825 1.362 . S
C2826 C2829 1.409 . S
C2827 H2819 0.930 . S
C2827 C2828 1.355 . S
C2827 C2829 1.415 . S
C2828 C2827 1.355 . S
C2828 C2830 1.419 . S
C2829 C2824 1.425 . S
C2829 C2826 1.409 . S
C2829 C2827 1.415 . S
C2830 H2820 0.930 . S
C2830 C2828 1.419 . S
C2830 C2831 1.362 . S
C2831 H2821 0.930 . S
C2831 C2824 1.409 . S
C2831 C2830 1.362 . S
H2832 C2838 0.930 . S
H2833 C2841 0.930 . S
H2834 C2842 0.930 . S
H2835 C2843 0.930 . S
H2836 C2846 0.930 . S
H2837 C2847 0.930 . S
C2838 H2832 0.930 . S
C2838 C2839 1.355 . S
C2838 C2840 1.415 . S
C2839 C2838 1.355 . S
C2839 C2841 1.419 . S
C2840 C2838 1.415 . S
C2840 C2845 1.425 . S
C2840 C2847 1.409 . S
C2841 H2833 0.930 . S
C2841 C2839 1.419 . S
C2841 C2842 1.362 . S
C2842 H2834 0.930 . S
C2842 C2841 1.362 . S
C2842 C2845 1.409 . S
C2843 H2835 0.930 . S
C2843 C2844 1.355 . S
C2843 C2845 1.415 . S
C2844 C2843 1.355 . S
C2844 C2846 1.419 . S
C2845 C2840 1.425 . S
C2845 C2842 1.409 . S
C2845 C2843 1.415 . S
C2846 H2836 0.930 . S
C2846 C2844 1.419 . S
C2846 C2847 1.362 . S
C2847 H2837 0.930 . S
C2847 C2840 1.409 . S
C2847 C2846 1.362 . S
H2848 C2854 0.930 . S
H2849 C2857 0.930 . S
H2850 C2858 0.930 . S
H2851 C2859 0.930 . S
H2852 C2862 0.930 . S
H2853 C2863 0.930 . S
C2854 H2848 0.930 . S
C2854 C2855 1.355 . S
C2854 C2856 1.415 . S
C2855 C2854 1.355 . S
C2855 C2857 1.419 . S
C2856 C2854 1.415 . S
C2856 C2861 1.425 . S
C2856 C2863 1.409 . S
C2857 H2849 0.930 . S
C2857 C2855 1.419 . S
C2857 C2858 1.362 . S
C2858 H2850 0.930 . S
C2858 C2857 1.362 . S
C2858 C2861 1.409 . S
C2859 H2851 0.930 . S
C2859 C2860 1.355 . S
C2859 C2861 1.415 . S
C2860 C2859 1.355 . S
C2860 C2862 1.419 . S
C2861 C2856 1.425 . S
C2861 C2858 1.409 . S
C2861 C2859 1.415 . S
C2862 H2852 0.930 . S
C2862 C2860 1.419 . S
C2862 C2863 1.362 . S
C2863 H2853 0.930 . S
C2863 C2856 1.409 . S
C2863 C2862 1.362 . S
H2864 C2870 0.930 . S
H2865 C2873 0.930 . S
H2866 C2874 0.930 . S
H2867 C2875 0.930 . S
H2868 C2878 0.930 . S
H2869 C2879 0.930 . S
C2870 H2864 0.930 . S
C2870 C2871 1.355 . S
C2870 C2872 1.415 . S
C2871 C2870 1.355 . S
C2871 C2873 1.419 . S
C2872 C2870 1.415 . S
C2872 C2877 1.425 . S
C2872 C2879 1.409 . S
C2873 H2865 0.930 . S
C2873 C2871 1.419 . S
C2873 C2874 1.362 . S
C2874 H2866 0.930 . S
C2874 C2873 1.362 . S
C2874 C2877 1.409 . S
C2875 H2867 0.930 . S
C2875 C2876 1.355 . S
C2875 C2877 1.415 . S
C2876 C2875 1.355 . S
C2876 C2878 1.419 . S
C2877 C2872 1.425 . S
C2877 C2874 1.409 . S
C2877 C2875 1.415 . S
C2878 H2868 0.930 . S
C2878 C2876 1.419 . S
C2878 C2879 1.362 . S
C2879 H2869 0.930 . S
C2879 C2872 1.409 . S
C2879 C2878 1.362 . S
H2880 C2886 0.930 . S
H2881 C2889 0.930 . S
H2882 C2890 0.930 . S
H2883 C2891 0.930 . S
H2884 C2894 0.930 . S
H2885 C2895 0.930 . S
C2886 H2880 0.930 . S
C2886 C2887 1.355 . S
C2886 C2888 1.415 . S
C2887 C2886 1.355 . S
C2887 C2889 1.419 . S
C2888 C2886 1.415 . S
C2888 C2893 1.425 . S
C2888 C2895 1.409 . S
C2889 H2881 0.930 . S
C2889 C2887 1.419 . S
C2889 C2890 1.362 . S
C2890 H2882 0.930 . S
C2890 C2889 1.362 . S
C2890 C2893 1.409 . S
C2891 H2883 0.930 . S
C2891 C2892 1.355 . S
C2891 C2893 1.415 . S
C2892 C2891 1.355 . S
C2892 C2894 1.419 . S
C2893 C2888 1.425 . S
C2893 C2890 1.409 . S
C2893 C2891 1.415 . S
C2894 H2884 0.930 . S
C2894 C2892 1.419 . S
C2894 C2895 1.362 . S
C2895 H2885 0.930 . S
C2895 C2888 1.409 . S
C2895 C2894 1.362 . S
H2896 C2902 0.930 . S
H2897 C2905 0.930 . S
H2898 C2906 0.930 . S
H2899 C2907 0.930 . S
H2900 C2910 0.930 . S
H2901 C2911 0.930 . S
C2902 H2896 0.930 . S
C2902 C2903 1.355 . S
C2902 C2904 1.415 . S
C2903 C2902 1.355 . S
C2903 C2905 1.419 . S
C2904 C2902 1.415 . S
C2904 C2909 1.425 . S
C2904 C2911 1.409 . S
C2905 H2897 0.930 . S
C2905 C2903 1.419 . S
C2905 C2906 1.362 . S
C2906 H2898 0.930 . S
C2906 C2905 1.362 . S
C2906 C2909 1.409 . S
C2907 H2899 0.930 . S
C2907 C2908 1.355 . S
C2907 C2909 1.415 . S
C2908 C2907 1.355 . S
C2908 C2910 1.419 . S
C2909 C2904 1.425 . S
C2909 C2906 1.409 . S
C2909 C2907 1.415 . S
C2910 H2900 0.930 . S
C2910 C2908 1.419 . S
C2910 C2911 1.362 . S
C2911 H2901 0.930 . S
C2911 C2904 1.409 . S
C2911 C2910 1.362 . S
H2912 C2918 0.930 . S
H2913 C2921 0.930 . S
H2914 C2922 0.930 . S
H2915 C2923 0.911 1_565 S
H2916 C2926 0.930 . S
H2917 C2927 0.930 . S
C2918 H2912 0.930 . S
C2918 C2919 1.355 . S
C2918 C2920 1.415 . S
C2919 C2918 1.355 . S
C2919 C2921 1.419 1_545 S
C2920 C2918 1.415 . S
C2920 C2925 1.425 . S
C2920 C2927 1.409 . S
C2921 H2913 0.930 . S
C2921 C2919 1.419 1_565 S
C2921 C2922 1.362 . S
C2922 H2914 0.930 . S
C2922 C2921 1.362 . S
C2922 C2925 1.409 1_565 S
C2923 H2915 0.911 1_545 S
C2923 C2924 1.355 . S
C2923 C2925 1.415 . S
C2924 C2923 1.355 . S
C2924 C2926 1.419 . S
C2925 C2920 1.425 . S
C2925 C2922 1.409 1_545 S
C2925 C2923 1.415 . S
C2926 H2916 0.930 . S
C2926 C2924 1.419 . S
C2926 C2927 1.362 . S
C2927 H2917 0.930 . S
C2927 C2920 1.409 . S
C2927 C2926 1.362 . S
H2928 C2934 0.930 . S
H2929 C2937 0.930 . S
H2930 C2938 0.930 . S
H2931 C2939 0.930 . S
H2932 C2942 0.930 . S
H2933 C2943 0.930 . S
C2934 H2928 0.930 . S
C2934 C2935 1.355 . S
C2934 C2936 1.415 1_554 S
C2935 C2934 1.355 . S
C2935 C2937 1.419 . S
C2936 C2934 1.415 1_556 S
C2936 C2941 1.425 . S
C2936 C2943 1.409 . S
C2937 H2929 0.930 . S
C2937 C2935 1.419 . S
C2937 C2938 1.362 1_554 S
C2938 H2930 0.930 . S
C2938 C2937 1.362 1_556 S
C2938 C2941 1.409 . S
C2939 H2931 0.930 . S
C2939 C2940 1.355 . S
C2939 C2941 1.415 . S
C2940 C2939 1.355 . S
C2940 C2942 1.419 . S
C2941 C2936 1.425 . S
C2941 C2938 1.409 . S
C2941 C2939 1.415 . S
C2942 H2932 0.930 . S
C2942 C2940 1.419 . S
C2942 C2943 1.362 . S
C2943 H2933 0.930 . S
C2943 C2936 1.409 . S
C2943 C2942 1.362 . S
H2944 C2950 0.930 . S
H2945 C2953 0.930 . S
H2946 C2954 0.930 . S
H2947 C2955 0.930 . S
H2948 C2958 0.930 . S
H2949 C2959 0.930 . S
C2950 H2944 0.930 . S
C2950 C2951 1.355 . S
C2950 C2952 1.415 . S
C2951 C2950 1.355 . S
C2951 C2953 1.419 . S
C2952 C2950 1.415 . S
C2952 C2957 1.425 . S
C2952 C2959 1.409 . S
C2953 H2945 0.930 . S
C2953 C2951 1.419 . S
C2953 C2954 1.362 . S
C2954 H2946 0.930 . S
C2954 C2953 1.362 . S
C2954 C2957 1.409 . S
C2955 H2947 0.930 . S
C2955 C2956 1.355 . S
C2955 C2957 1.415 . S
C2956 C2955 1.355 . S
C2956 C2958 1.419 . S
C2957 C2952 1.425 . S
C2957 C2954 1.409 . S
C2957 C2955 1.415 . S
C2958 H2948 0.930 . S
C2958 C2956 1.419 . S
C2958 C2959 1.362 . S
C2959 H2949 0.930 . S
C2959 C2952 1.409 . S
C2959 C2958 1.362 . S
H2960 C2966 0.930 . S
H2961 C2969 0.930 . S
H2962 C2970 0.930 . S
H2963 C2971 0.930 . S
H2964 C2974 0.930 . S
H2965 C2975 0.930 . S
C2966 H2960 0.930 . S
C2966 C2967 1.355 . S
C2966 C2968 1.415 . S
C2967 C2966 1.355 . S
C2967 C2969 1.419 . S
C2968 C2966 1.415 . S
C2968 C2973 1.425 . S
C2968 C2975 1.409 . S
C2969 H2961 0.930 . S
C2969 C2967 1.419 . S
C2969 C2970 1.362 . S
C2970 H2962 0.930 . S
C2970 C2969 1.362 . S
C2970 C2973 1.409 . S
C2971 H2963 0.930 . S
C2971 C2972 1.355 . S
C2971 C2973 1.415 . S
C2972 C2971 1.355 . S
C2972 C2974 1.419 . S
C2973 C2968 1.425 . S
C2973 C2970 1.409 . S
C2973 C2971 1.415 . S
C2974 H2964 0.930 . S
C2974 C2972 1.419 . S
C2974 C2975 1.362 . S
C2975 H2965 0.930 . S
C2975 C2968 1.409 . S
C2975 C2974 1.362 . S
H2976 C2982 0.930 . S
H2977 C2985 0.930 . S
H2978 C2986 0.930 . S
H2979 C2987 0.930 . S
H2980 C2990 0.930 . S
H2981 C2991 0.930 . S
C2982 H2976 0.930 . S
C2982 C2983 1.355 . S
C2982 C2984 1.415 . S
C2983 C2982 1.355 . S
C2983 C2985 1.419 . S
C2984 C2982 1.415 . S
C2984 C2989 1.425 . S
C2984 C2991 1.409 . S
C2985 H2977 0.930 . S
C2985 C2983 1.419 . S
C2985 C2986 1.362 . S
C2986 H2978 0.930 . S
C2986 C2985 1.362 . S
C2986 C2989 1.409 . S
C2987 H2979 0.930 . S
C2987 C2988 1.355 . S
C2987 C2989 1.415 . S
C2988 C2987 1.355 . S
C2988 C2990 1.419 . S
C2989 C2984 1.425 . S
C2989 C2986 1.409 . S
C2989 C2987 1.415 . S
C2990 H2980 0.930 . S
C2990 C2988 1.419 . S
C2990 C2991 1.362 . S
C2991 H2981 0.930 . S
C2991 C2984 1.409 . S
C2991 C2990 1.362 . S
H2992 C2998 0.930 . S
H2993 C3001 0.930 . S
H2994 C3002 0.930 . S
H2995 C3003 0.930 . S
H2996 C3006 0.930 . S
H2997 C3007 0.930 . S
C2998 H2992 0.930 . S
C2998 C2999 1.355 . S
C2998 C3000 1.415 . S
C2999 C2998 1.355 . S
C2999 C3001 1.419 . S
C3000 C2998 1.415 . S
C3000 C3005 1.425 . S
C3000 C3007 1.409 . S
C3001 H2993 0.930 . S
C3001 C2999 1.419 . S
C3001 C3002 1.362 . S
C3002 H2994 0.930 . S
C3002 C3001 1.362 . S
C3002 C3005 1.409 . S
C3003 H2995 0.930 . S
C3003 C3004 1.355 . S
C3003 C3005 1.415 . S
C3004 C3003 1.355 . S
C3004 C3006 1.419 . S
C3005 C3000 1.425 . S
C3005 C3002 1.409 . S
C3005 C3003 1.415 . S
C3006 H2996 0.930 . S
C3006 C3004 1.419 . S
C3006 C3007 1.362 . S
C3007 H2997 0.930 . S
C3007 C3000 1.409 . S
C3007 C3006 1.362 . S
H3008 C3014 0.930 . S
H3009 C3017 0.930 . S
H3010 C3018 0.930 1_565 S
H3011 C3019 0.930 . S
H3012 C3022 0.930 . S
H3013 C3023 0.930 . S
C3014 H3008 0.930 . S
C3014 C3015 1.355 . S
C3014 C3016 1.415 . S
C3015 C3014 1.355 . S
C3015 C3017 1.419 1_545 S
C3016 C3014 1.415 . S
C3016 C3021 1.425 . S
C3016 C3023 1.409 . S
C3017 H3009 0.930 . S
C3017 C3015 1.419 1_565 S
C3017 C3018 1.362 1_565 S
C3018 H3010 0.930 1_545 S
C3018 C3017 1.362 1_545 S
C3018 C3021 1.409 . S
C3019 H3011 0.930 . S
C3019 C3020 1.355 . S
C3019 C3021 1.415 . S
C3020 C3019 1.355 . S
C3020 C3022 1.419 . S
C3021 C3016 1.425 . S
C3021 C3018 1.409 . S
C3021 C3019 1.415 . S
C3022 H3012 0.930 . S
C3022 C3020 1.419 . S
C3022 C3023 1.362 . S
C3023 H3013 0.930 . S
C3023 C3016 1.409 . S
C3023 C3022 1.362 . S
H3024 C3030 0.930 . S
H3025 C3033 0.930 . S
H3026 C3034 0.930 . S
H3027 C3035 0.930 . S
H3028 C3038 0.930 . S
H3029 C3039 0.930 . S
C3030 H3024 0.930 . S
C3030 C3031 1.355 . S
C3030 C3032 1.415 . S
C3031 C3030 1.355 . S
C3031 C3033 1.419 . S
C3032 C3030 1.415 . S
C3032 C3037 1.425 . S
C3032 C3039 1.409 . S
C3033 H3025 0.930 . S
C3033 C3031 1.419 . S
C3033 C3034 1.362 . S
C3034 H3026 0.930 . S
C3034 C3033 1.362 . S
C3034 C3037 1.409 . S
C3035 H3027 0.930 . S
C3035 C3036 1.355 . S
C3035 C3037 1.415 . S
C3036 C3035 1.355 . S
C3036 C3038 1.419 . S
C3037 C3032 1.425 . S
C3037 C3034 1.409 . S
C3037 C3035 1.415 . S
C3038 H3028 0.930 . S
C3038 C3036 1.419 . S
C3038 C3039 1.362 . S
C3039 H3029 0.930 . S
C3039 C3032 1.409 . S
C3039 C3038 1.362 . S
H3040 C3046 0.930 . S
H3041 C3049 0.930 . S
H3042 C3050 0.930 . S
H3043 C3051 0.930 . S
H3044 C3054 0.930 . S
H3045 C3055 0.930 . S
C3046 H3040 0.930 . S
C3046 C3047 1.355 . S
C3046 C3048 1.415 . S
C3047 C3046 1.355 . S
C3047 C3049 1.419 . S
C3048 C3046 1.415 . S
C3048 C3053 1.425 . S
C3048 C3055 1.409 . S
C3049 H3041 0.930 . S
C3049 C3047 1.419 . S
C3049 C3050 1.362 . S
C3050 H3042 0.930 . S
C3050 C3049 1.362 . S
C3050 C3053 1.409 . S
C3051 H3043 0.930 . S
C3051 C3052 1.355 . S
C3051 C3053 1.415 . S
C3052 C3051 1.355 . S
C3052 C3054 1.419 . S
C3053 C3048 1.425 . S
C3053 C3050 1.409 . S
C3053 C3051 1.415 . S
C3054 H3044 0.930 . S
C3054 C3052 1.419 . S
C3054 C3055 1.362 . S
C3055 H3045 0.930 . S
C3055 C3048 1.409 . S
C3055 C3054 1.362 . S
H3056 C3062 0.930 . S
H3057 C3065 0.930 . S
H3058 C3066 0.930 . S
H3059 C3067 0.930 . S
H3060 C3070 0.930 . S
H3061 C3071 0.930 . S
C3062 H3056 0.930 . S
C3062 C3063 1.355 . S
C3062 C3064 1.415 . S
C3063 C3062 1.355 . S
C3063 C3065 1.419 . S
C3064 C3062 1.415 . S
C3064 C3069 1.425 . S
C3064 C3071 1.409 . S
C3065 H3057 0.930 . S
C3065 C3063 1.419 . S
C3065 C3066 1.362 . S
C3066 H3058 0.930 . S
C3066 C3065 1.362 . S
C3066 C3069 1.409 . S
C3067 H3059 0.930 . S
C3067 C3068 1.355 . S
C3067 C3069 1.415 . S
C3068 C3067 1.355 . S
C3068 C3070 1.419 . S
C3069 C3064 1.425 . S
C3069 C3066 1.409 . S
C3069 C3067 1.415 . S
C3070 H3060 0.930 . S
C3070 C3068 1.419 . S
C3070 C3071 1.362 . S
C3071 H3061 0.930 . S
C3071 C3064 1.409 . S
C3071 C3070 1.362 . S
H3072 C3078 0.930 . S
H3073 C3081 0.930 . S
H3074 C3082 0.930 . S
H3075 C3083 0.930 . S
H3076 C3086 0.930 . S
H3077 C3087 0.930 . S
C3078 H3072 0.930 . S
C3078 C3079 1.355 . S
C3078 C3080 1.415 . S
C3079 C3078 1.355 . S
C3079 C3081 1.419 . S
C3080 C3078 1.415 . S
C3080 C3085 1.425 . S
C3080 C3087 1.409 . S
C3081 H3073 0.930 . S
C3081 C3079 1.419 . S
C3081 C3082 1.362 . S
C3082 H3074 0.930 . S
C3082 C3081 1.362 . S
C3082 C3085 1.409 . S
C3083 H3075 0.930 . S
C3083 C3084 1.355 . S
C3083 C3085 1.415 . S
C3084 C3083 1.355 . S
C3084 C3086 1.419 . S
C3085 C3080 1.425 . S
C3085 C3082 1.409 . S
C3085 C3083 1.415 . S
C3086 H3076 0.930 . S
C3086 C3084 1.419 . S
C3086 C3087 1.362 . S
C3087 H3077 0.930 . S
C3087 C3080 1.409 . S
C3087 C3086 1.362 . S
H3088 C3094 0.930 . S
H3089 C3097 0.930 . S
H3090 C3098 0.930 . S
H3091 C3099 0.930 . S
H3092 C3102 0.930 . S
H3093 C3103 0.930 . S
C3094 H3088 0.930 . S
C3094 C3095 1.355 . S
C3094 C3096 1.415 . S
C3095 C3094 1.355 . S
C3095 C3097 1.419 . S
C3096 C3094 1.415 . S
C3096 C3101 1.425 . S
C3096 C3103 1.409 . S
C3097 H3089 0.930 . S
C3097 C3095 1.419 . S
C3097 C3098 1.362 . S
C3098 H3090 0.930 . S
C3098 C3097 1.362 . S
C3098 C3101 1.409 . S
C3099 H3091 0.930 . S
C3099 C3100 1.355 . S
C3099 C3101 1.415 . S
C3100 C3099 1.355 . S
C3100 C3102 1.419 . S
C3101 C3096 1.425 . S
C3101 C3098 1.409 . S
C3101 C3099 1.415 . S
C3102 H3092 0.930 . S
C3102 C3100 1.419 . S
C3102 C3103 1.362 . S
C3103 H3093 0.930 . S
C3103 C3096 1.409 . S
C3103 C3102 1.362 . S
H3104 C3110 0.930 . S
H3105 C3113 0.930 . S
H3106 C3114 0.930 . S
H3107 C3115 0.930 . S
H3108 C3118 0.930 . S
H3109 C3119 0.930 . S
C3110 H3104 0.930 . S
C3110 C3111 1.355 . S
C3110 C3112 1.415 . S
C3111 C3110 1.355 . S
C3111 C3113 1.419 . S
C3112 C3110 1.415 . S
C3112 C3117 1.425 . S
C3112 C3119 1.409 . S
C3113 H3105 0.930 . S
C3113 C3111 1.419 . S
C3113 C3114 1.362 . S
C3114 H3106 0.930 . S
C3114 C3113 1.362 . S
C3114 C3117 1.409 . S
C3115 H3107 0.930 . S
C3115 C3116 1.355 . S
C3115 C3117 1.415 . S
C3116 C3115 1.355 . S
C3116 C3118 1.419 . S
C3117 C3112 1.425 . S
C3117 C3114 1.409 . S
C3117 C3115 1.415 . S
C3118 H3108 0.930 . S
C3118 C3116 1.419 . S
C3118 C3119 1.362 . S
C3119 H3109 0.930 . S
C3119 C3112 1.409 . S
C3119 C3118 1.362 . S
H3120 C3126 0.930 . S
H3121 C3129 0.930 . S
H3122 C3130 0.930 . S
H3123 C3131 0.930 . S
H3124 C3134 0.930 . S
H3125 C3135 0.930 . S
C3126 H3120 0.930 . S
C3126 C3127 1.355 . S
C3126 C3128 1.415 . S
C3127 C3126 1.355 . S
C3127 C3129 1.419 . S
C3128 C3126 1.415 . S
C3128 C3133 1.425 . S
C3128 C3135 1.409 . S
C3129 H3121 0.930 . S
C3129 C3127 1.419 . S
C3129 C3130 1.362 . S
C3130 H3122 0.930 . S
C3130 C3129 1.362 . S
C3130 C3133 1.409 . S
C3131 H3123 0.930 . S
C3131 C3132 1.355 . S
C3131 C3133 1.415 . S
C3132 C3131 1.355 . S
C3132 C3134 1.419 . S
C3133 C3128 1.425 . S
C3133 C3130 1.409 . S
C3133 C3131 1.415 . S
C3134 H3124 0.930 . S
C3134 C3132 1.419 . S
C3134 C3135 1.362 . S
C3135 H3125 0.930 . S
C3135 C3128 1.409 . S
C3135 C3134 1.362 . S
H3136 C3142 0.930 . S
H3137 C3145 0.930 . S
H3138 C3146 0.930 . S
H3139 C3147 0.930 . S
H3140 C3150 0.930 . S
H3141 C3151 0.930 . S
C3142 H3136 0.930 . S
C3142 C3143 1.355 . S
C3142 C3144 1.415 . S
C3143 C3142 1.355 . S
C3143 C3145 1.419 . S
C3144 C3142 1.415 . S
C3144 C3149 1.425 . S
C3144 C3151 1.409 . S
C3145 H3137 0.930 . S
C3145 C3143 1.419 . S
C3145 C3146 1.362 . S
C3146 H3138 0.930 . S
C3146 C3145 1.362 . S
C3146 C3149 1.409 . S
C3147 H3139 0.930 . S
C3147 C3148 1.355 . S
C3147 C3149 1.415 . S
C3148 C3147 1.355 . S
C3148 C3150 1.419 . S
C3149 C3144 1.425 . S
C3149 C3146 1.409 . S
C3149 C3147 1.415 . S
C3150 H3140 0.930 . S
C3150 C3148 1.419 . S
C3150 C3151 1.362 . S
C3151 H3141 0.930 . S
C3151 C3144 1.409 . S
C3151 C3150 1.362 . S
H3152 C3158 0.930 . S
H3153 C3161 0.930 . S
H3154 C3162 0.930 . S
H3155 C3163 0.930 . S
H3156 C3166 0.930 . S
H3157 C3167 0.930 . S
C3158 H3152 0.930 . S
C3158 C3159 1.355 . S
C3158 C3160 1.415 . S
C3159 C3158 1.355 . S
C3159 C3161 1.419 . S
C3160 C3158 1.415 . S
C3160 C3165 1.425 . S
C3160 C3167 1.409 . S
C3161 H3153 0.930 . S
C3161 C3159 1.419 . S
C3161 C3162 1.362 . S
C3162 H3154 0.930 . S
C3162 C3161 1.362 . S
C3162 C3165 1.409 . S
C3163 H3155 0.930 . S
C3163 C3164 1.355 . S
C3163 C3165 1.415 . S
C3164 C3163 1.355 . S
C3164 C3166 1.419 . S
C3165 C3160 1.425 . S
C3165 C3162 1.409 . S
C3165 C3163 1.415 . S
C3166 H3156 0.930 . S
C3166 C3164 1.419 . S
C3166 C3167 1.362 . S
C3167 H3157 0.930 . S
C3167 C3160 1.409 . S
C3167 C3166 1.362 . S
H3168 C3174 0.930 . S
H3169 C3177 0.930 . S
H3170 C3178 0.930 . S
H3171 C3179 0.930 . S
H3172 C3182 0.930 . S
H3173 C3183 0.930 . S
C3174 H3168 0.930 . S
C3174 C3175 1.355 . S
C3174 C3176 1.415 . S
C3175 C3174 1.355 . S
C3175 C3177 1.419 . S
C3176 C3174 1.415 . S
C3176 C3181 1.425 . S
C3176 C3183 1.409 . S
C3177 H3169 0.930 . S
C3177 C3175 1.419 . S
C3177 C3178 1.362 . S
C3178 H3170 0.930 . S
C3178 C3177 1.362 . S
C3178 C3181 1.409 . S
C3179 H3171 0.930 . S
C3179 C3180 1.355 . S
C3179 C3181 1.415 . S
C3180 C3179 1.355 . S
C3180 C3182 1.419 . S
C3181 C3176 1.425 . S
C3181 C3178 1.409 . S
C3181 C3179 1.415 . S
C3182 H3172 0.930 . S
C3182 C3180 1.419 . S
C3182 C3183 1.362 . S
C3183 H3173 0.930 . S
C3183 C3176 1.409 . S
C3183 C3182 1.362 . S
H3184 C3190 0.930 . S
H3185 C3193 0.930 . S
H3186 C3194 0.930 . S
H3187 C3195 0.930 . S
H3188 C3198 0.930 . S
H3189 C3199 0.930 . S
C3190 H3184 0.930 . S
C3190 C3191 1.355 . S
C3190 C3192 1.415 . S
C3191 C3190 1.355 . S
C3191 C3193 1.419 . S
C3192 C3190 1.415 . S
C3192 C3197 1.425 . S
C3192 C3199 1.409 . S
C3193 H3185 0.930 . S
C3193 C3191 1.419 . S
C3193 C3194 1.362 . S
C3194 H3186 0.930 . S
C3194 C3193 1.362 . S
C3194 C3197 1.409 . S
C3195 H3187 0.930 . S
C3195 C3196 1.355 . S
C3195 C3197 1.415 1_655 S
C3196 C3195 1.355 . S
C3196 C3198 1.419 . S
C3197 C3192 1.425 . S
C3197 C3194 1.409 . S
C3197 C3195 1.415 1_455 S
C3198 H3188 0.930 . S
C3198 C3196 1.419 . S
C3198 C3199 1.362 1_655 S
C3199 H3189 0.930 . S
C3199 C3192 1.409 . S
C3199 C3198 1.362 1_455 S
H3200 C3206 0.930 . S
H3201 C3209 0.930 . S
H3202 C3210 0.930 . S
H3203 C3211 0.930 . S
H3204 C3214 0.930 . S
H3205 C3215 0.930 . S
C3206 H3200 0.930 . S
C3206 C3207 1.355 . S
C3206 C3208 1.415 . S
C3207 C3206 1.355 . S
C3207 C3209 1.419 . S
C3208 C3206 1.415 . S
C3208 C3213 1.425 . S
C3208 C3215 1.409 . S
C3209 H3201 0.930 . S
C3209 C3207 1.419 . S
C3209 C3210 1.362 . S
C3210 H3202 0.930 . S
C3210 C3209 1.362 . S
C3210 C3213 1.409 . S
C3211 H3203 0.930 . S
C3211 C3212 1.355 . S
C3211 C3213 1.415 . S
C3212 C3211 1.355 . S
C3212 C3214 1.419 . S
C3213 C3208 1.425 . S
C3213 C3210 1.409 . S
C3213 C3211 1.415 . S
C3214 H3204 0.930 . S
C3214 C3212 1.419 . S
C3214 C3215 1.362 . S
C3215 H3205 0.930 . S
C3215 C3208 1.409 . S
C3215 C3214 1.362 . S
H3216 C3222 0.930 . S
H3217 C3225 0.930 . S
H3218 C3226 0.930 . S
H3219 C3227 0.930 . S
H3220 C3230 0.930 . S
H3221 C3231 0.930 . S
C3222 H3216 0.930 . S
C3222 C3223 1.355 . S
C3222 C3224 1.415 . S
C3223 C3222 1.355 . S
C3223 C3225 1.419 . S
C3224 C3222 1.415 . S
C3224 C3229 1.425 . S
C3224 C3231 1.409 . S
C3225 H3217 0.930 . S
C3225 C3223 1.419 . S
C3225 C3226 1.362 . S
C3226 H3218 0.930 . S
C3226 C3225 1.362 . S
C3226 C3229 1.409 . S
C3227 H3219 0.930 . S
C3227 C3228 1.355 . S
C3227 C3229 1.415 . S
C3228 C3227 1.355 . S
C3228 C3230 1.419 . S
C3229 C3224 1.425 . S
C3229 C3226 1.409 . S
C3229 C3227 1.415 . S
C3230 H3220 0.930 . S
C3230 C3228 1.419 . S
C3230 C3231 1.362 . S
C3231 H3221 0.930 . S
C3231 C3224 1.409 . S
C3231 C3230 1.362 . S
H3232 C3238 0.930 . S
H3233 C3241 0.930 . S
H3234 C3242 0.930 . S
H3235 C3243 0.930 . S
H3236 C3246 0.930 . S
H3237 C3247 0.930 . S
C3238 H3232 0.930 . S
C3238 C3239 1.355 . S
C3238 C3240 1.415 . S
C3239 C3238 1.355 . S
C3239 C3241 1.419 . S
C3240 C3238 1.415 . S
C3240 C3245 1.425 . S
C3240 C3247 1.409 . S
C3241 H3233 0.930 . S
C3241 C3239 1.419 . S
C3241 C3242 1.362 . S
C3242 H3234 0.930 . S
C3242 C3241 1.362 . S
C3242 C3245 1.409 . S
C3243 H3235 0.930 . S
C3243 C3244 1.355 . S
C3243 C3245 1.415 . S
C3244 C3243 1.355 . S
C3244 C3246 1.419 . S
C3245 C3240 1.425 . S
C3245 C3242 1.409 . S
C3245 C3243 1.415 . S
C3246 H3236 0.930 . S
C3246 C3244 1.419 . S
C3246 C3247 1.362 . S
C3247 H3237 0.930 . S
C3247 C3240 1.409 . S
C3247 C3246 1.362 . S
H3248 C3254 0.930 . S
H3249 C3257 0.930 1_554 S
H3250 C3258 0.930 . S
H3251 C3259 0.930 . S
H3252 C3262 0.930 . S
H3253 C3263 0.930 . S
C3254 H3248 0.930 . S
C3254 C3255 1.355 . S
C3254 C3256 1.415 . S
C3255 C3254 1.355 . S
C3255 C3257 1.419 . S
C3256 C3254 1.415 . S
C3256 C3261 1.425 . S
C3256 C3263 1.409 . S
C3257 H3249 0.930 1_556 S
C3257 C3255 1.419 . S
C3257 C3258 1.362 . S
C3258 H3250 0.930 . S
C3258 C3257 1.362 . S
C3258 C3261 1.409 . S
C3259 H3251 0.930 . S
C3259 C3260 1.355 . S
C3259 C3261 1.415 . S
C3260 C3259 1.355 . S
C3260 C3262 1.419 . S
C3261 C3256 1.425 . S
C3261 C3258 1.409 . S
C3261 C3259 1.415 . S
C3262 H3252 0.930 . S
C3262 C3260 1.419 . S
C3262 C3263 1.362 . S
C3263 H3253 0.930 . S
C3263 C3256 1.409 . S
C3263 C3262 1.362 . S
H3264 C3270 0.930 . S
H3265 C3273 0.930 . S
H3266 C3274 0.930 . S
H3267 C3275 0.930 . S
H3268 C3278 0.930 . S
H3269 C3279 0.930 . S
C3270 H3264 0.930 . S
C3270 C3271 1.355 . S
C3270 C3272 1.415 . S
C3271 C3270 1.355 . S
C3271 C3273 1.419 . S
C3272 C3270 1.415 . S
C3272 C3277 1.425 . S
C3272 C3279 1.409 . S
C3273 H3265 0.930 . S
C3273 C3271 1.419 . S
C3273 C3274 1.362 . S
C3274 H3266 0.930 . S
C3274 C3273 1.362 . S
C3274 C3277 1.409 . S
C3275 H3267 0.930 . S
C3275 C3276 1.355 . S
C3275 C3277 1.415 . S
C3276 C3275 1.355 . S
C3276 C3278 1.419 . S
C3277 C3272 1.425 . S
C3277 C3274 1.409 . S
C3277 C3275 1.415 . S
C3278 H3268 0.930 . S
C3278 C3276 1.419 . S
C3278 C3279 1.362 . S
C3279 H3269 0.930 . S
C3279 C3272 1.409 . S
C3279 C3278 1.362 . S
H3280 C3286 0.930 . S
H3281 C3289 0.930 . S
H3282 C3290 0.930 . S
H3283 C3291 0.930 . S
H3284 C3294 0.930 . S
H3285 C3295 0.930 . S
C3286 H3280 0.930 . S
C3286 C3287 1.355 . S
C3286 C3288 1.415 . S
C3287 C3286 1.355 . S
C3287 C3289 1.419 . S
C3288 C3286 1.415 . S
C3288 C3293 1.425 . S
C3288 C3295 1.409 . S
C3289 H3281 0.930 . S
C3289 C3287 1.419 . S
C3289 C3290 1.362 . S
C3290 H3282 0.930 . S
C3290 C3289 1.362 . S
C3290 C3293 1.409 . S
C3291 H3283 0.930 . S
C3291 C3292 1.355 . S
C3291 C3293 1.415 . S
C3292 C3291 1.355 . S
C3292 C3294 1.419 . S
C3293 C3288 1.425 . S
C3293 C3290 1.409 . S
C3293 C3291 1.415 . S
C3294 H3284 0.930 . S
C3294 C3292 1.419 . S
C3294 C3295 1.362 . S
C3295 H3285 0.930 . S
C3295 C3288 1.409 . S
C3295 C3294 1.362 . S
H3296 C3302 0.930 . S
H3297 C3305 0.930 . S
H3298 C3306 0.930 . S
H3299 C3307 0.930 . S
H3300 C3310 0.930 . S
H3301 C3311 0.930 . S
C3302 H3296 0.930 . S
C3302 C3303 1.355 . S
C3302 C3304 1.415 . S
C3303 C3302 1.355 . S
C3303 C3305 1.419 1_565 S
C3304 C3302 1.415 . S
C3304 C3309 1.425 . S
C3304 C3311 1.409 . S
C3305 H3297 0.930 . S
C3305 C3303 1.419 1_545 S
C3305 C3306 1.362 . S
C3306 H3298 0.930 . S
C3306 C3305 1.362 . S
C3306 C3309 1.409 1_545 S
C3307 H3299 0.930 . S
C3307 C3308 1.355 1_545 S
C3307 C3309 1.415 1_545 S
C3308 C3307 1.355 1_565 S
C3308 C3310 1.419 . S
C3309 C3304 1.425 . S
C3309 C3306 1.409 1_565 S
C3309 C3307 1.415 1_565 S
C3310 H3300 0.930 . S
C3310 C3308 1.419 . S
C3310 C3311 1.362 . S
C3311 H3301 0.930 . S
C3311 C3304 1.409 . S
C3311 C3310 1.362 . S
H3312 C3318 0.930 . S
H3313 C3321 0.930 . S
H3314 C3322 0.930 . S
H3315 C3323 0.930 1_554 S
H3316 C3326 0.930 . S
H3317 C3327 0.930 . S
C3318 H3312 0.930 . S
C3318 C3319 1.355 . S
C3318 C3320 1.415 . S
C3319 C3318 1.355 . S
C3319 C3321 1.419 . S
C3320 C3318 1.415 . S
C3320 C3325 1.425 . S
C3320 C3327 1.409 . S
C3321 H3313 0.930 . S
C3321 C3319 1.419 . S
C3321 C3322 1.362 . S
C3322 H3314 0.930 . S
C3322 C3321 1.362 . S
C3322 C3325 1.409 . S
C3323 H3315 0.930 1_556 S
C3323 C3324 1.355 . S
C3323 C3325 1.415 . S
C3324 C3323 1.355 . S
C3324 C3326 1.419 . S
C3325 C3320 1.425 . S
C3325 C3322 1.409 . S
C3325 C3323 1.415 . S
C3326 H3316 0.930 . S
C3326 C3324 1.419 . S
C3326 C3327 1.362 . S
C3327 H3317 0.930 . S
C3327 C3320 1.409 . S
C3327 C3326 1.362 . S
H3328 C3334 0.930 . S
H3329 C3337 0.930 . S
H3330 C3338 0.930 1_554 S
H3331 C3339 0.930 . S
H3332 C3342 0.930 . S
H3333 C3343 0.930 . S
C3334 H3328 0.930 . S
C3334 C3335 1.355 . S
C3334 C3336 1.415 . S
C3335 C3334 1.355 . S
C3335 C3337 1.419 . S
C3336 C3334 1.415 . S
C3336 C3341 1.425 . S
C3336 C3343 1.409 . S
C3337 H3329 0.930 . S
C3337 C3335 1.419 . S
C3337 C3338 1.362 . S
C3338 H3330 0.930 1_556 S
C3338 C3337 1.362 . S
C3338 C3341 1.409 . S
C3339 H3331 0.930 . S
C3339 C3340 1.355 . S
C3339 C3341 1.415 . S
C3340 C3339 1.355 . S
C3340 C3342 1.419 . S
C3341 C3336 1.425 . S
C3341 C3338 1.409 . S
C3341 C3339 1.415 . S
C3342 H3332 0.930 . S
C3342 C3340 1.419 . S
C3342 C3343 1.362 . S
C3343 H3333 0.930 . S
C3343 C3336 1.409 . S
C3343 C3342 1.362 . S
H3344 C3350 0.930 . S
H3345 C3353 0.930 . S
H3346 C3354 0.930 . S
H3347 C3355 0.930 . S
H3348 C3358 0.930 . S
H3349 C3359 0.930 . S
C3350 H3344 0.930 . S
C3350 C3351 1.355 . S
C3350 C3352 1.415 . S
C3351 C3350 1.355 . S
C3351 C3353 1.419 . S
C3352 C3350 1.415 . S
C3352 C3357 1.425 . S
C3352 C3359 1.409 . S
C3353 H3345 0.930 . S
C3353 C3351 1.419 . S
C3353 C3354 1.362 . S
C3354 H3346 0.930 . S
C3354 C3353 1.362 . S
C3354 C3357 1.409 . S
C3355 H3347 0.930 . S
C3355 C3356 1.355 . S
C3355 C3357 1.415 . S
C3356 C3355 1.355 . S
C3356 C3358 1.419 . S
C3357 C3352 1.425 . S
C3357 C3354 1.409 . S
C3357 C3355 1.415 . S
C3358 H3348 0.930 . S
C3358 C3356 1.419 . S
C3358 C3359 1.362 . S
C3359 H3349 0.930 . S
C3359 C3352 1.409 . S
C3359 C3358 1.362 . S
H3360 C3366 0.930 . S
H3361 C3369 0.930 . S
H3362 C3370 0.930 . S
H3363 C3371 0.930 . S
H3364 C3374 0.930 . S
H3365 C3375 0.930 . S
C3366 H3360 0.930 . S
C3366 C3367 1.355 . S
C3366 C3368 1.415 . S
C3367 C3366 1.355 . S
C3367 C3369 1.419 . S
C3368 C3366 1.415 . S
C3368 C3373 1.425 . S
C3368 C3375 1.409 . S
C3369 H3361 0.930 . S
C3369 C3367 1.419 . S
C3369 C3370 1.362 . S
C3370 H3362 0.930 . S
C3370 C3369 1.362 . S
C3370 C3373 1.409 . S
C3371 H3363 0.930 . S
C3371 C3372 1.355 . S
C3371 C3373 1.415 . S
C3372 C3371 1.355 . S
C3372 C3374 1.419 . S
C3373 C3368 1.425 . S
C3373 C3370 1.409 . S
C3373 C3371 1.415 . S
C3374 H3364 0.930 . S
C3374 C3372 1.419 . S
C3374 C3375 1.362 . S
C3375 H3365 0.930 . S
C3375 C3368 1.409 . S
C3375 C3374 1.362 . S
H3376 C3382 0.930 . S
H3377 C3385 0.930 . S
H3378 C3386 0.930 . S
H3379 C3387 0.930 . S
H3380 C3390 0.930 . S
H3381 C3391 0.930 . S
C3382 H3376 0.930 . S
C3382 C3383 1.355 . S
C3382 C3384 1.415 . S
C3383 C3382 1.355 . S
C3383 C3385 1.419 . S
C3384 C3382 1.415 . S
C3384 C3389 1.425 . S
C3384 C3391 1.409 . S
C3385 H3377 0.930 . S
C3385 C3383 1.419 . S
C3385 C3386 1.362 . S
C3386 H3378 0.930 . S
C3386 C3385 1.362 . S
C3386 C3389 1.409 . S
C3387 H3379 0.930 . S
C3387 C3388 1.355 . S
C3387 C3389 1.415 . S
C3388 C3387 1.355 . S
C3388 C3390 1.419 . S
C3389 C3384 1.425 . S
C3389 C3386 1.409 . S
C3389 C3387 1.415 . S
C3390 H3380 0.930 . S
C3390 C3388 1.419 . S
C3390 C3391 1.362 . S
C3391 H3381 0.930 . S
C3391 C3384 1.409 . S
C3391 C3390 1.362 . S
H3392 C3398 0.972 . S
H3393 C3401 0.930 . S
H3394 C3402 0.930 . S
H3395 C3403 0.930 . S
H3396 C3406 0.930 . S
H3397 C3407 0.930 . S
C3398 H3392 0.972 . S
C3398 C3399 1.359 . S
C3398 C3400 1.370 1_545 S
C3399 C3398 1.359 . S
C3399 C3401 1.419 1_545 S
C3400 C3398 1.370 1_565 S
C3400 C3405 1.425 . S
C3400 C3407 1.409 . S
C3401 H3393 0.930 . S
C3401 C3399 1.419 1_565 S
C3401 C3402 1.362 . S
C3402 H3394 0.930 . S
C3402 C3401 1.362 . S
C3402 C3405 1.409 . S
C3403 H3395 0.930 . S
C3403 C3404 1.355 . S
C3403 C3405 1.415 . S
C3404 C3403 1.355 . S
C3404 C3406 1.419 . S
C3405 C3400 1.425 . S
C3405 C3402 1.409 . S
C3405 C3403 1.415 . S
C3406 H3396 0.930 . S
C3406 C3404 1.419 . S
C3406 C3407 1.362 . S
C3407 H3397 0.930 . S
C3407 C3400 1.409 . S
C3407 C3406 1.362 . S
H3408 C3414 0.930 . S
H3409 C3417 0.930 . S
H3410 C3418 0.930 . S
H3411 C3419 0.930 . S
H3412 C3422 0.930 . S
H3413 C3423 0.930 . S
C3414 H3408 0.930 . S
C3414 C3415 1.355 . S
C3414 C3416 1.415 . S
C3415 C3414 1.355 . S
C3415 C3417 1.419 . S
C3416 C3414 1.415 . S
C3416 C3421 1.425 . S
C3416 C3423 1.409 . S
C3417 H3409 0.930 . S
C3417 C3415 1.419 . S
C3417 C3418 1.362 . S
C3418 H3410 0.930 . S
C3418 C3417 1.362 . S
C3418 C3421 1.409 . S
C3419 H3411 0.930 . S
C3419 C3420 1.355 . S
C3419 C3421 1.415 . S
C3420 C3419 1.355 . S
C3420 C3422 1.419 . S
C3421 C3416 1.425 . S
C3421 C3418 1.409 . S
C3421 C3419 1.415 . S
C3422 H3412 0.930 . S
C3422 C3420 1.419 . S
C3422 C3423 1.362 . S
C3423 H3413 0.930 . S
C3423 C3416 1.409 . S
C3423 C3422 1.362 . S
H3424 C3430 0.930 . S
H3425 C3433 0.930 . S
H3426 C3434 0.930 . S
H3427 C3435 0.930 . S
H3428 C3438 0.930 . S
H3429 C3439 0.930 . S
C3430 H3424 0.930 . S
C3430 C3431 1.355 . S
C3430 C3432 1.415 . S
C3431 C3430 1.355 . S
C3431 C3433 1.419 . S
C3432 C3430 1.415 . S
C3432 C3437 1.425 . S
C3432 C3439 1.409 . S
C3433 H3425 0.930 . S
C3433 C3431 1.419 . S
C3433 C3434 1.362 . S
C3434 H3426 0.930 . S
C3434 C3433 1.362 . S
C3434 C3437 1.409 . S
C3435 H3427 0.930 . S
C3435 C3436 1.355 . S
C3435 C3437 1.415 . S
C3436 C3435 1.355 . S
C3436 C3438 1.419 . S
C3437 C3432 1.425 . S
C3437 C3434 1.409 . S
C3437 C3435 1.415 . S
C3438 H3428 0.930 . S
C3438 C3436 1.419 . S
C3438 C3439 1.362 . S
C3439 H3429 0.930 . S
C3439 C3432 1.409 . S
C3439 C3438 1.362 . S
H3440 C3446 0.930 . S
H3441 C3449 0.930 . S
H3442 C3450 0.930 . S
H3443 C3451 0.930 . S
H3444 C3454 0.930 . S
H3445 C3455 0.930 . S
C3446 H3440 0.930 . S
C3446 C3447 1.355 . S
C3446 C3448 1.415 . S
C3447 C3446 1.355 . S
C3447 C3449 1.419 . S
C3448 C3446 1.415 . S
C3448 C3453 1.425 . S
C3448 C3455 1.409 . S
C3449 H3441 0.930 . S
C3449 C3447 1.419 . S
C3449 C3450 1.362 . S
C3450 H3442 0.930 . S
C3450 C3449 1.362 . S
C3450 C3453 1.409 . S
C3451 H3443 0.930 . S
C3451 C3452 1.355 . S
C3451 C3453 1.415 . S
C3452 C3451 1.355 . S
C3452 C3454 1.419 . S
C3453 C3448 1.425 . S
C3453 C3450 1.409 . S
C3453 C3451 1.415 . S
C3454 H3444 0.930 . S
C3454 C3452 1.419 . S
C3454 C3455 1.362 . S
C3455 H3445 0.930 . S
C3455 C3448 1.409 . S
C3455 C3454 1.362 . S
H3456 C3462 0.930 . S
H3457 C3465 0.930 . S
H3458 C3466 0.930 . S
H3459 C3467 0.930 . S
H3460 C3470 0.930 . S
H3461 C3471 0.930 . S
C3462 H3456 0.930 . S
C3462 C3463 1.355 . S
C3462 C3464 1.415 . S
C3463 C3462 1.355 . S
C3463 C3465 1.419 . S
C3464 C3462 1.415 . S
C3464 C3469 1.425 . S
C3464 C3471 1.409 . S
C3465 H3457 0.930 . S
C3465 C3463 1.419 . S
C3465 C3466 1.362 . S
C3466 H3458 0.930 . S
C3466 C3465 1.362 . S
C3466 C3469 1.409 . S
C3467 H3459 0.930 . S
C3467 C3468 1.355 . S
C3467 C3469 1.415 . S
C3468 C3467 1.355 . S
C3468 C3470 1.419 . S
C3469 C3464 1.425 . S
C3469 C3466 1.409 . S
C3469 C3467 1.415 . S
C3470 H3460 0.930 . S
C3470 C3468 1.419 . S
C3470 C3471 1.362 . S
C3471 H3461 0.930 . S
C3471 C3464 1.409 . S
C3471 C3470 1.362 . S
H3472 C3478 0.930 . S
H3473 C3481 0.930 . S
H3474 C3482 0.930 . S
H3475 C3483 0.930 . S
H3476 C3486 0.930 . S
H3477 C3487 0.930 . S
C3478 H3472 0.930 . S
C3478 C3479 1.355 . S
C3478 C3480 1.415 . S
C3479 C3478 1.355 . S
C3479 C3481 1.419 . S
C3480 C3478 1.415 . S
C3480 C3485 1.425 . S
C3480 C3487 1.409 . S
C3481 H3473 0.930 . S
C3481 C3479 1.419 . S
C3481 C3482 1.362 . S
C3482 H3474 0.930 . S
C3482 C3481 1.362 . S
C3482 C3485 1.409 . S
C3483 H3475 0.930 . S
C3483 C3484 1.355 . S
C3483 C3485 1.415 . S
C3484 C3483 1.355 . S
C3484 C3486 1.419 . S
C3485 C3480 1.425 . S
C3485 C3482 1.409 . S
C3485 C3483 1.415 . S
C3486 H3476 0.930 . S
C3486 C3484 1.419 . S
C3486 C3487 1.362 . S
C3487 H3477 0.930 . S
C3487 C3480 1.409 . S
C3487 C3486 1.362 . S
H3488 C3494 0.930 . S
H3489 C3497 0.930 . S
H3490 C3498 0.930 . S
H3491 C3499 0.930 . S
H3492 C3502 0.930 . S
H3493 C3503 0.930 . S
C3494 H3488 0.930 . S
C3494 C3495 1.355 . S
C3494 C3496 1.415 . S
C3495 C3494 1.355 . S
C3495 C3497 1.419 . S
C3496 C3494 1.415 . S
C3496 C3501 1.425 . S
C3496 C3503 1.409 . S
C3497 H3489 0.930 . S
C3497 C3495 1.419 . S
C3497 C3498 1.362 . S
C3498 H3490 0.930 . S
C3498 C3497 1.362 . S
C3498 C3501 1.409 . S
C3499 H3491 0.930 . S
C3499 C3500 1.355 . S
C3499 C3501 1.415 . S
C3500 C3499 1.355 . S
C3500 C3502 1.419 . S
C3501 C3496 1.425 . S
C3501 C3498 1.409 . S
C3501 C3499 1.415 . S
C3502 H3492 0.930 . S
C3502 C3500 1.419 . S
C3502 C3503 1.362 . S
C3503 H3493 0.930 . S
C3503 C3496 1.409 . S
C3503 C3502 1.362 . S
H3504 C3510 0.930 . S
H3505 C3513 0.930 . S
H3506 C3514 0.930 . S
H3507 C3515 0.930 . S
H3508 C3518 0.930 . S
H3509 C3519 0.930 . S
C3510 H3504 0.930 . S
C3510 C3511 1.355 . S
C3510 C3512 1.415 . S
C3511 C3510 1.355 . S
C3511 C3513 1.419 1_455 S
C3512 C3510 1.415 . S
C3512 C3517 1.415 1_455 S
C3512 C3519 1.409 . S
C3513 H3505 0.930 . S
C3513 C3511 1.419 1_655 S
C3513 C3514 1.362 . S
C3514 H3506 0.930 . S
C3514 C3513 1.362 . S
C3514 C3517 1.415 . S
C3515 H3507 0.930 . S
C3515 C3516 1.355 1_655 S
C3515 C3517 1.419 . S
C3516 C3515 1.355 1_455 S
C3516 C3518 1.419 . S
C3517 C3512 1.415 1_655 S
C3517 C3514 1.415 . S
C3517 C3515 1.419 . S
C3518 H3508 0.930 . S
C3518 C3516 1.419 . S
C3518 C3519 1.362 . S
C3519 H3509 0.930 . S
C3519 C3512 1.409 . S
C3519 C3518 1.362 . S
H3520 C3526 0.930 . S
H3521 C3529 0.930 . S
H3522 C3530 0.930 . S
H3523 C3531 0.930 . S
H3524 C3534 0.930 . S
H3525 C3535 0.930 . S
C3526 H3520 0.930 . S
C3526 C3527 1.355 . S
C3526 C3528 1.415 . S
C3527 C3526 1.355 . S
C3527 C3529 1.419 . S
C3528 C3526 1.415 . S
C3528 C3533 1.425 . S
C3528 C3535 1.409 . S
C3529 H3521 0.930 . S
C3529 C3527 1.419 . S
C3529 C3530 1.362 . S
C3530 H3522 0.930 . S
C3530 C3529 1.362 . S
C3530 C3533 1.409 . S
C3531 H3523 0.930 . S
C3531 C3532 1.355 . S
C3531 C3533 1.415 . S
C3532 C3531 1.355 . S
C3532 C3534 1.419 . S
C3533 C3528 1.425 . S
C3533 C3530 1.409 . S
C3533 C3531 1.415 . S
C3534 H3524 0.930 . S
C3534 C3532 1.419 . S
C3534 C3535 1.362 . S
C3535 H3525 0.930 . S
C3535 C3528 1.409 . S
C3535 C3534 1.362 . S
H3536 C3542 0.930 . S
H3537 C3545 0.930 . S
H3538 C3546 0.930 . S
H3539 C3547 0.930 . S
H3540 C3550 0.930 . S
H3541 C3551 0.930 . S
C3542 H3536 0.930 . S
C3542 C3543 1.355 . S
C3542 C3544 1.415 . S
C3543 C3542 1.355 . S
C3543 C3545 1.419 . S
C3544 C3542 1.415 . S
C3544 C3549 1.425 . S
C3544 C3551 1.409 . S
C3545 H3537 0.930 . S
C3545 C3543 1.419 . S
C3545 C3546 1.362 . S
C3546 H3538 0.930 . S
C3546 C3545 1.362 . S
C3546 C3549 1.409 . S
C3547 H3539 0.930 . S
C3547 C3548 1.355 . S
C3547 C3549 1.415 . S
C3548 C3547 1.355 . S
C3548 C3550 1.419 . S
C3549 C3544 1.425 . S
C3549 C3546 1.409 . S
C3549 C3547 1.415 . S
C3550 H3540 0.930 . S
C3550 C3548 1.419 . S
C3550 C3551 1.362 . S
C3551 H3541 0.930 . S
C3551 C3544 1.409 . S
C3551 C3550 1.362 . S
H3552 C3558 0.930 . S
H3553 C3561 0.930 . S
H3554 C3562 0.930 . S
H3555 C3563 0.930 . S
H3556 C3566 0.930 . S
H3557 C3567 0.930 . S
C3558 H3552 0.930 . S
C3558 C3559 1.355 . S
C3558 C3560 1.415 . S
C3559 C3558 1.355 . S
C3559 C3561 1.419 . S
C3560 C3558 1.415 . S
C3560 C3565 1.425 . S
C3560 C3567 1.409 . S
C3561 H3553 0.930 . S
C3561 C3559 1.419 . S
C3561 C3562 1.362 . S
C3562 H3554 0.930 . S
C3562 C3561 1.362 . S
C3562 C3565 1.409 . S
C3563 H3555 0.930 . S
C3563 C3564 1.355 . S
C3563 C3565 1.415 . S
C3564 C3563 1.355 . S
C3564 C3566 1.419 . S
C3565 C3560 1.425 . S
C3565 C3562 1.409 . S
C3565 C3563 1.415 . S
C3566 H3556 0.930 . S
C3566 C3564 1.419 . S
C3566 C3567 1.362 . S
C3567 H3557 0.930 . S
C3567 C3560 1.409 . S
C3567 C3566 1.362 . S
H3568 C3574 0.930 . S
H3569 C3577 0.930 . S
H3570 C3578 0.930 . S
H3571 C3579 0.930 . S
H3572 C3582 0.930 . S
H3573 C3583 0.930 . S
C3574 H3568 0.930 . S
C3574 C3575 1.355 . S
C3574 C3576 1.415 . S
C3575 C3574 1.355 . S
C3575 C3577 1.419 . S
C3576 C3574 1.415 . S
C3576 C3581 1.425 . S
C3576 C3583 1.409 . S
C3577 H3569 0.930 . S
C3577 C3575 1.419 . S
C3577 C3578 1.362 . S
C3578 H3570 0.930 . S
C3578 C3577 1.362 . S
C3578 C3581 1.409 . S
C3579 H3571 0.930 . S
C3579 C3580 1.355 . S
C3579 C3581 1.415 . S
C3580 C3579 1.355 . S
C3580 C3582 1.419 . S
C3581 C3576 1.425 . S
C3581 C3578 1.409 . S
C3581 C3579 1.415 . S
C3582 H3572 0.930 . S
C3582 C3580 1.419 . S
C3582 C3583 1.362 . S
C3583 H3573 0.930 . S
C3583 C3576 1.409 . S
C3583 C3582 1.362 . S
H3584 C3590 0.930 . S
H3585 C3593 0.930 . S
H3586 C3594 0.930 . S
H3587 C3595 0.930 . S
H3588 C3598 0.930 . S
H3589 C3599 0.930 . S
C3590 H3584 0.930 . S
C3590 C3591 1.355 . S
C3590 C3592 1.415 . S
C3591 C3590 1.355 . S
C3591 C3593 1.419 . S
C3592 C3590 1.415 . S
C3592 C3597 1.425 . S
C3592 C3599 1.409 . S
C3593 H3585 0.930 . S
C3593 C3591 1.419 . S
C3593 C3594 1.362 . S
C3594 H3586 0.930 . S
C3594 C3593 1.362 . S
C3594 C3597 1.409 . S
C3595 H3587 0.930 . S
C3595 C3596 1.355 . S
C3595 C3597 1.415 . S
C3596 C3595 1.355 . S
C3596 C3598 1.419 . S
C3597 C3592 1.425 . S
C3597 C3594 1.409 . S
C3597 C3595 1.415 . S
C3598 H3588 0.930 . S
C3598 C3596 1.419 . S
C3598 C3599 1.362 . S
C3599 H3589 0.930 . S
C3599 C3592 1.409 . S
C3599 C3598 1.362 . S
H3600 C3606 0.930 . S
H3601 C3609 0.930 . S
H3602 C3610 0.930 . S
H3603 C3611 0.930 . S
H3604 C3614 0.930 . S
H3605 C3615 0.930 . S
C3606 H3600 0.930 . S
C3606 C3607 1.355 . S
C3606 C3608 1.415 . S
C3607 C3606 1.355 . S
C3607 C3609 1.419 . S
C3608 C3606 1.415 . S
C3608 C3613 1.425 . S
C3608 C3615 1.409 . S
C3609 H3601 0.930 . S
C3609 C3607 1.419 . S
C3609 C3610 1.362 . S
C3610 H3602 0.930 . S
C3610 C3609 1.362 . S
C3610 C3613 1.409 . S
C3611 H3603 0.930 . S
C3611 C3612 1.355 . S
C3611 C3613 1.415 . S
C3612 C3611 1.355 . S
C3612 C3614 1.419 . S
C3613 C3608 1.425 . S
C3613 C3610 1.409 . S
C3613 C3611 1.415 . S
C3614 H3604 0.930 . S
C3614 C3612 1.419 . S
C3614 C3615 1.362 . S
C3615 H3605 0.930 . S
C3615 C3608 1.409 . S
C3615 C3614 1.362 . S
H3616 C3622 0.930 . S
H3617 C3625 0.930 . S
H3618 C3626 0.930 . S
H3619 C3627 0.930 . S
H3620 C3630 0.930 . S
H3621 C3631 0.930 . S
C3622 H3616 0.930 . S
C3622 C3623 1.355 . S
C3622 C3624 1.415 . S
C3623 C3622 1.355 . S
C3623 C3625 1.419 . S
C3624 C3622 1.415 . S
C3624 C3629 1.425 . S
C3624 C3631 1.409 . S
C3625 H3617 0.930 . S
C3625 C3623 1.419 . S
C3625 C3626 1.362 . S
C3626 H3618 0.930 . S
C3626 C3625 1.362 . S
C3626 C3629 1.409 . S
C3627 H3619 0.930 . S
C3627 C3628 1.355 . S
C3627 C3629 1.415 . S
C3628 C3627 1.355 . S
C3628 C3630 1.419 . S
C3629 C3624 1.425 . S
C3629 C3626 1.409 . S
C3629 C3627 1.415 . S
C3630 H3620 0.930 . S
C3630 C3628 1.419 . S
C3630 C3631 1.362 . S
C3631 H3621 0.930 . S
C3631 C3624 1.409 . S
C3631 C3630 1.362 . S
H3632 C3638 0.930 . S
H3633 C3641 0.930 . S
H3634 C3642 0.930 . S
H3635 C3643 0.930 . S
H3636 C3646 0.930 . S
H3637 C3647 0.930 . S
C3638 H3632 0.930 . S
C3638 C3639 1.355 . S
C3638 C3640 1.415 . S
C3639 C3638 1.355 . S
C3639 C3641 1.419 . S
C3640 C3638 1.415 . S
C3640 C3645 1.425 . S
C3640 C3647 1.409 . S
C3641 H3633 0.930 . S
C3641 C3639 1.419 . S
C3641 C3642 1.362 . S
C3642 H3634 0.930 . S
C3642 C3641 1.362 . S
C3642 C3645 1.409 . S
C3643 H3635 0.930 . S
C3643 C3644 1.355 . S
C3643 C3645 1.415 . S
C3644 C3643 1.355 . S
C3644 C3646 1.419 . S
C3645 C3640 1.425 . S
C3645 C3642 1.409 . S
C3645 C3643 1.415 . S
C3646 H3636 0.930 . S
C3646 C3644 1.419 . S
C3646 C3647 1.362 . S
C3647 H3637 0.930 . S
C3647 C3640 1.409 . S
C3647 C3646 1.362 . S
H3648 C3654 0.930 . S
H3649 C3657 0.930 . S
H3650 C3658 0.930 . S
H3651 C3659 0.930 . S
H3652 C3662 0.930 . S
H3653 C3663 0.930 . S
C3654 H3648 0.930 . S
C3654 C3655 1.355 . S
C3654 C3656 1.415 . S
C3655 C3654 1.355 . S
C3655 C3657 1.419 . S
C3656 C3654 1.415 . S
C3656 C3661 1.425 . S
C3656 C3663 1.409 . S
C3657 H3649 0.930 . S
C3657 C3655 1.419 . S
C3657 C3658 1.362 . S
C3658 H3650 0.930 . S
C3658 C3657 1.362 . S
C3658 C3661 1.409 . S
C3659 H3651 0.930 . S
C3659 C3660 1.355 . S
C3659 C3661 1.415 . S
C3660 C3659 1.355 . S
C3660 C3662 1.419 . S
C3661 C3656 1.425 . S
C3661 C3658 1.409 . S
C3661 C3659 1.415 . S
C3662 H3652 0.930 . S
C3662 C3660 1.419 . S
C3662 C3663 1.362 . S
C3663 H3653 0.930 . S
C3663 C3656 1.409 . S
C3663 C3662 1.362 . S
H3664 C3670 0.930 . S
H3665 C3673 0.930 . S
H3666 C3674 0.930 . S
H3667 C3675 0.948 . S
H3668 C3678 0.930 . S
H3669 C3679 0.930 . S
C3670 H3664 0.930 . S
C3670 C3671 1.355 1_554 S
C3670 C3672 1.415 . S
C3671 C3670 1.355 1_556 S
C3671 C3673 1.419 . S
C3672 C3670 1.415 . S
C3672 C3677 1.425 . S
C3672 C3679 1.409 . S
C3673 H3665 0.930 . S
C3673 C3671 1.419 . S
C3673 C3674 1.362 . S
C3674 H3666 0.930 . S
C3674 C3673 1.362 . S
C3674 C3677 1.409 1_556 S
C3675 H3667 0.948 . S
C3675 C3676 1.355 . S
C3675 C3677 1.415 . S
C3676 C3675 1.355 . S
C3676 C3678 1.419 . S
C3677 C3672 1.425 . S
C3677 C3674 1.409 1_554 S
C3677 C3675 1.415 . S
C3678 H3668 0.930 . S
C3678 C3676 1.419 . S
C3678 C3679 1.362 . S
C3679 H3669 0.930 . S
C3679 C3672 1.409 . S
C3679 C3678 1.362 . S
H3680 C3686 0.930 . S
H3681 C3689 0.930 . S
H3682 C3690 0.930 . S
H3683 C3691 0.930 . S
H3684 C3694 0.930 . S
H3685 C3695 0.930 . S
C3686 H3680 0.930 . S
C3686 C3687 1.355 . S
C3686 C3688 1.415 . S
C3687 C3686 1.355 . S
C3687 C3689 1.419 . S
C3688 C3686 1.415 . S
C3688 C3693 1.425 . S
C3688 C3695 1.409 . S
C3689 H3681 0.930 . S
C3689 C3687 1.419 . S
C3689 C3690 1.362 . S
C3690 H3682 0.930 . S
C3690 C3689 1.362 . S
C3690 C3693 1.409 . S
C3691 H3683 0.930 . S
C3691 C3692 1.355 . S
C3691 C3693 1.415 . S
C3692 C3691 1.355 . S
C3692 C3694 1.419 . S
C3693 C3688 1.425 . S
C3693 C3690 1.409 . S
C3693 C3691 1.415 . S
C3694 H3684 0.930 . S
C3694 C3692 1.419 . S
C3694 C3695 1.362 . S
C3695 H3685 0.930 . S
C3695 C3688 1.409 . S
C3695 C3694 1.362 . S
H3696 C3702 0.930 . S
H3697 C3705 0.930 . S
H3698 C3706 0.930 . S
H3699 C3707 0.930 . S
H3700 C3710 0.930 . S
H3701 C3711 0.930 . S
C3702 H3696 0.930 . S
C3702 C3703 1.355 . S
C3702 C3704 1.415 . S
C3703 C3702 1.355 . S
C3703 C3705 1.419 . S
C3704 C3702 1.415 . S
C3704 C3709 1.425 . S
C3704 C3711 1.409 . S
C3705 H3697 0.930 . S
C3705 C3703 1.419 . S
C3705 C3706 1.362 . S
C3706 H3698 0.930 . S
C3706 C3705 1.362 . S
C3706 C3709 1.409 . S
C3707 H3699 0.930 . S
C3707 C3708 1.355 . S
C3707 C3709 1.415 . S
C3708 C3707 1.355 . S
C3708 C3710 1.419 . S
C3709 C3704 1.425 . S
C3709 C3706 1.409 . S
C3709 C3707 1.415 . S
C3710 H3700 0.930 . S
C3710 C3708 1.419 . S
C3710 C3711 1.362 . S
C3711 H3701 0.930 . S
C3711 C3704 1.409 . S
C3711 C3710 1.362 . S
H3712 C3718 0.930 . S
H3713 C3721 0.930 . S
H3714 C3722 0.930 . S
H3715 C3723 0.930 . S
H3716 C3726 0.930 . S
H3717 C3727 0.930 . S
C3718 H3712 0.930 . S
C3718 C3719 1.355 . S
C3718 C3720 1.415 . S
C3719 C3718 1.355 . S
C3719 C3721 1.419 . S
C3720 C3718 1.415 . S
C3720 C3725 1.425 . S
C3720 C3727 1.409 . S
C3721 H3713 0.930 . S
C3721 C3719 1.419 . S
C3721 C3722 1.362 . S
C3722 H3714 0.930 . S
C3722 C3721 1.362 . S
C3722 C3725 1.409 . S
C3723 H3715 0.930 . S
C3723 C3724 1.355 . S
C3723 C3725 1.415 . S
C3724 C3723 1.355 . S
C3724 C3726 1.419 . S
C3725 C3720 1.425 . S
C3725 C3722 1.409 . S
C3725 C3723 1.415 . S
C3726 H3716 0.930 . S
C3726 C3724 1.419 . S
C3726 C3727 1.362 . S
C3727 H3717 0.930 . S
C3727 C3720 1.409 . S
C3727 C3726 1.362 . S
H3728 C3734 0.930 . S
H3729 C3737 0.930 . S
H3730 C3738 0.930 . S
H3731 C3739 0.930 . S
H3732 C3742 0.930 . S
H3733 C3743 0.930 . S
C3734 H3728 0.930 . S
C3734 C3735 1.355 . S
C3734 C3736 1.415 . S
C3735 C3734 1.355 . S
C3735 C3737 1.419 . S
C3736 C3734 1.415 . S
C3736 C3741 1.425 . S
C3736 C3743 1.409 . S
C3737 H3729 0.930 . S
C3737 C3735 1.419 . S
C3737 C3738 1.362 . S
C3738 H3730 0.930 . S
C3738 C3737 1.362 . S
C3738 C3741 1.409 . S
C3739 H3731 0.930 . S
C3739 C3740 1.355 . S
C3739 C3741 1.415 . S
C3740 C3739 1.355 . S
C3740 C3742 1.419 . S
C3741 C3736 1.425 . S
C3741 C3738 1.409 . S
C3741 C3739 1.415 . S
C3742 H3732 0.930 . S
C3742 C3740 1.419 . S
C3742 C3743 1.362 . S
C3743 H3733 0.930 . S
C3743 C3736 1.409 . S
C3743 C3742 1.362 . S
H3744 C3750 0.930 . S
H3745 C3753 0.930 . S
H3746 C3754 0.930 . S
H3747 C3755 0.930 . S
H3748 C3758 0.930 . S
H3749 C3759 0.930 . S
C3750 H3744 0.930 . S
C3750 C3751 1.355 . S
C3750 C3752 1.415 . S
C3751 C3750 1.355 . S
C3751 C3753 1.419 . S
C3752 C3750 1.415 . S
C3752 C3757 1.425 . S
C3752 C3759 1.409 . S
C3753 H3745 0.930 . S
C3753 C3751 1.419 . S
C3753 C3754 1.362 . S
C3754 H3746 0.930 . S
C3754 C3753 1.362 . S
C3754 C3757 1.409 . S
C3755 H3747 0.930 . S
C3755 C3756 1.355 . S
C3755 C3757 1.415 . S
C3756 C3755 1.355 . S
C3756 C3758 1.419 . S
C3757 C3752 1.425 . S
C3757 C3754 1.409 . S
C3757 C3755 1.415 . S
C3758 H3748 0.930 . S
C3758 C3756 1.419 . S
C3758 C3759 1.362 . S
C3759 H3749 0.930 . S
C3759 C3752 1.409 . S
C3759 C3758 1.362 . S
H3760 C3766 0.930 . S
H3761 C3769 0.930 . S
H3762 C3770 0.930 . S
H3763 C3771 0.930 . S
H3764 C3774 0.930 . S
H3765 C3775 0.930 . S
C3766 H3760 0.930 . S
C3766 C3767 1.355 . S
C3766 C3768 1.415 . S
C3767 C3766 1.355 . S
C3767 C3769 1.419 . S
C3768 C3766 1.415 . S
C3768 C3773 1.425 . S
C3768 C3775 1.409 . S
C3769 H3761 0.930 . S
C3769 C3767 1.419 . S
C3769 C3770 1.362 . S
C3770 H3762 0.930 . S
C3770 C3769 1.362 . S
C3770 C3773 1.409 . S
C3771 H3763 0.930 . S
C3771 C3772 1.355 . S
C3771 C3773 1.415 . S
C3772 C3771 1.355 . S
C3772 C3774 1.419 . S
C3773 C3768 1.425 . S
C3773 C3770 1.409 . S
C3773 C3771 1.415 . S
C3774 H3764 0.930 . S
C3774 C3772 1.419 . S
C3774 C3775 1.362 . S
C3775 H3765 0.930 . S
C3775 C3768 1.409 . S
C3775 C3774 1.362 . S
H3776 C3782 0.930 . S
H3777 C3785 0.930 . S
H3778 C3786 0.930 . S
H3779 C3787 0.930 . S
H3780 C3790 0.930 . S
H3781 C3791 0.930 . S
C3782 H3776 0.930 . S
C3782 C3783 1.355 . S
C3782 C3784 1.415 . S
C3783 C3782 1.355 . S
C3783 C3785 1.419 . S
C3784 C3782 1.415 . S
C3784 C3789 1.425 . S
C3784 C3791 1.409 . S
C3785 H3777 0.930 . S
C3785 C3783 1.419 . S
C3785 C3786 1.362 . S
C3786 H3778 0.930 . S
C3786 C3785 1.362 . S
C3786 C3789 1.409 . S
C3787 H3779 0.930 . S
C3787 C3788 1.355 . S
C3787 C3789 1.415 . S
C3788 C3787 1.355 . S
C3788 C3790 1.419 . S
C3789 C3784 1.425 . S
C3789 C3786 1.409 . S
C3789 C3787 1.415 . S
C3790 H3780 0.930 . S
C3790 C3788 1.419 . S
C3790 C3791 1.362 . S
C3791 H3781 0.930 . S
C3791 C3784 1.409 . S
C3791 C3790 1.362 . S
H3792 C3798 0.930 . S
H3793 C3801 0.930 . S
H3794 C3802 0.930 . S
H3795 C3803 0.930 . S
H3796 C3806 0.930 . S
H3797 C3807 0.930 . S
C3798 H3792 0.930 . S
C3798 C3799 1.355 . S
C3798 C3800 1.415 . S
C3799 C3798 1.355 . S
C3799 C3801 1.419 . S
C3800 C3798 1.415 . S
C3800 C3805 1.425 . S
C3800 C3807 1.409 . S
C3801 H3793 0.930 . S
C3801 C3799 1.419 . S
C3801 C3802 1.362 . S
C3802 H3794 0.930 . S
C3802 C3801 1.362 . S
C3802 C3805 1.409 . S
C3803 H3795 0.930 . S
C3803 C3804 1.355 . S
C3803 C3805 1.415 . S
C3804 C3803 1.355 . S
C3804 C3806 1.419 . S
C3805 C3800 1.425 . S
C3805 C3802 1.409 . S
C3805 C3803 1.415 . S
C3806 H3796 0.930 . S
C3806 C3804 1.419 . S
C3806 C3807 1.362 . S
C3807 H3797 0.930 . S
C3807 C3800 1.409 . S
C3807 C3806 1.362 . S
H3808 C3814 0.930 . S
H3809 C3817 0.930 . S
H3810 C3818 0.930 . S
H3811 C3819 0.930 . S
H3812 C3822 0.930 . S
H3813 C3823 0.930 . S
C3814 H3808 0.930 . S
C3814 C3815 1.355 1_545 S
C3814 C3816 1.415 . S
C3815 C3814 1.355 1_565 S
C3815 C3817 1.419 . S
C3816 C3814 1.415 . S
C3816 C3821 1.425 . S
C3816 C3823 1.409 . S
C3817 H3809 0.930 . S
C3817 C3815 1.419 . S
C3817 C3818 1.362 . S
C3818 H3810 0.930 . S
C3818 C3817 1.362 . S
C3818 C3821 1.409 1_565 S
C3819 H3811 0.930 . S
C3819 C3820 1.355 . S
C3819 C3821 1.415 . S
C3820 C3819 1.355 . S
C3820 C3822 1.419 . S
C3821 C3816 1.425 . S
C3821 C3818 1.409 1_545 S
C3821 C3819 1.415 . S
C3822 H3812 0.930 . S
C3822 C3820 1.419 . S
C3822 C3823 1.362 . S
C3823 H3813 0.930 . S
C3823 C3816 1.409 . S
C3823 C3822 1.362 . S
H3824 C3830 0.930 . S
H3825 C3833 0.930 . S
H3826 C3834 0.930 . S
H3827 C3835 0.930 . S
H3828 C3838 0.930 . S
H3829 C3839 0.930 . S
C3830 H3824 0.930 . S
C3830 C3831 1.355 . S
C3830 C3832 1.415 . S
C3831 C3830 1.355 . S
C3831 C3833 1.419 . S
C3832 C3830 1.415 . S
C3832 C3837 1.425 . S
C3832 C3839 1.409 . S
C3833 H3825 0.930 . S
C3833 C3831 1.419 . S
C3833 C3834 1.362 . S
C3834 H3826 0.930 . S
C3834 C3833 1.362 . S
C3834 C3837 1.409 . S
C3835 H3827 0.930 . S
C3835 C3836 1.355 . S
C3835 C3837 1.415 . S
C3836 C3835 1.355 . S
C3836 C3838 1.419 . S
C3837 C3832 1.425 . S
C3837 C3834 1.409 . S
C3837 C3835 1.415 . S
C3838 H3828 0.930 . S
C3838 C3836 1.419 . S
C3838 C3839 1.362 . S
C3839 H3829 0.930 . S
C3839 C3832 1.409 . S
C3839 C3838 1.362 . S
H3840 C3846 0.930 . S
H3841 C3849 0.930 . S
H3842 C3850 0.930 . S
H3843 C3851 0.930 . S
H3844 C3854 0.930 . S
H3845 C3855 0.930 . S
C3846 H3840 0.930 . S
C3846 C3847 1.355 . S
C3846 C3848 1.415 . S
C3847 C3846 1.355 . S
C3847 C3849 1.419 . S
C3848 C3846 1.415 . S
C3848 C3853 1.425 . S
C3848 C3855 1.409 . S
C3849 H3841 0.930 . S
C3849 C3847 1.419 . S
C3849 C3850 1.362 . S
C3850 H3842 0.930 . S
C3850 C3849 1.362 . S
C3850 C3853 1.409 . S
C3851 H3843 0.930 . S
C3851 C3852 1.355 . S
C3851 C3853 1.415 . S
C3852 C3851 1.355 . S
C3852 C3854 1.419 . S
C3853 C3848 1.425 . S
C3853 C3850 1.409 . S
C3853 C3851 1.415 . S
C3854 H3844 0.930 . S
C3854 C3852 1.419 . S
C3854 C3855 1.362 . S
C3855 H3845 0.930 . S
C3855 C3848 1.409 . S
C3855 C3854 1.362 . S
H3856 C3862 0.930 . S
H3857 C3865 0.930 . S
H3858 C3866 0.930 . S
H3859 C3867 0.930 . S
H3860 C3870 0.930 . S
H3861 C3871 0.930 . S
C3862 H3856 0.930 . S
C3862 C3863 1.355 . S
C3862 C3864 1.415 . S
C3863 C3862 1.355 . S
C3863 C3865 1.419 . S
C3864 C3862 1.415 . S
C3864 C3869 1.425 . S
C3864 C3871 1.409 . S
C3865 H3857 0.930 . S
C3865 C3863 1.419 . S
C3865 C3866 1.362 . S
C3866 H3858 0.930 . S
C3866 C3865 1.362 . S
C3866 C3869 1.409 . S
C3867 H3859 0.930 . S
C3867 C3868 1.355 . S
C3867 C3869 1.415 . S
C3868 C3867 1.355 . S
C3868 C3870 1.419 . S
C3869 C3864 1.425 . S
C3869 C3866 1.409 . S
C3869 C3867 1.415 . S
C3870 H3860 0.930 . S
C3870 C3868 1.419 . S
C3870 C3871 1.362 . S
C3871 H3861 0.930 . S
C3871 C3864 1.409 . S
C3871 C3870 1.362 . S
H3872 C3878 0.930 . S
H3873 C3881 0.930 . S
H3874 C3882 0.930 . S
H3875 C3883 0.930 . S
H3876 C3886 0.930 . S
H3877 C3887 0.930 . S
C3878 H3872 0.930 . S
C3878 C3879 1.355 . S
C3878 C3880 1.415 . S
C3879 C3878 1.355 . S
C3879 C3881 1.419 . S
C3880 C3878 1.415 . S
C3880 C3885 1.425 . S
C3880 C3887 1.409 . S
C3881 H3873 0.930 . S
C3881 C3879 1.419 . S
C3881 C3882 1.362 . S
C3882 H3874 0.930 . S
C3882 C3881 1.362 . S
C3882 C3885 1.409 . S
C3883 H3875 0.930 . S
C3883 C3884 1.355 . S
C3883 C3885 1.415 . S
C3884 C3883 1.355 . S
C3884 C3886 1.419 . S
C3885 C3880 1.425 . S
C3885 C3882 1.409 . S
C3885 C3883 1.415 . S
C3886 H3876 0.930 . S
C3886 C3884 1.419 . S
C3886 C3887 1.362 . S
C3887 H3877 0.930 . S
C3887 C3880 1.409 . S
C3887 C3886 1.362 . S
H3888 C3894 0.930 . S
H3889 C3897 0.930 . S
H3890 C3898 0.930 . S
H3891 C3899 0.930 . S
H3892 C3902 0.930 . S
H3893 C3903 0.930 . S
C3894 H3888 0.930 . S
C3894 C3895 1.355 1_655 S
C3894 C3896 1.415 . S
C3895 C3894 1.355 1_455 S
C3895 C3897 1.419 . S
C3896 C3894 1.415 . S
C3896 C3901 1.425 1_655 S
C3896 C3903 1.409 . S
C3897 H3889 0.930 . S
C3897 C3895 1.419 . S
C3897 C3898 1.362 . S
C3898 H3890 0.930 . S
C3898 C3897 1.362 . S
C3898 C3901 1.409 . S
C3899 H3891 0.930 . S
C3899 C3900 1.355 . S
C3899 C3901 1.415 . S
C3900 C3899 1.355 . S
C3900 C3902 1.419 1_455 S
C3901 C3896 1.425 1_455 S
C3901 C3898 1.409 . S
C3901 C3899 1.415 . S
C3902 H3892 0.930 . S
C3902 C3900 1.419 1_655 S
C3902 C3903 1.362 . S
C3903 H3893 0.930 . S
C3903 C3896 1.409 . S
C3903 C3902 1.362 . S
H3904 C3910 0.930 . S
H3905 C3913 0.930 . S
H3906 C3914 0.930 . S
H3907 C3915 0.930 . S
H3908 C3918 0.930 . S
H3909 C3919 0.930 . S
C3910 H3904 0.930 . S
C3910 C3911 1.355 . S
C3910 C3912 1.415 . S
C3911 C3910 1.355 . S
C3911 C3913 1.419 . S
C3912 C3910 1.415 . S
C3912 C3917 1.425 . S
C3912 C3919 1.409 . S
C3913 H3905 0.930 . S
C3913 C3911 1.419 . S
C3913 C3914 1.362 . S
C3914 H3906 0.930 . S
C3914 C3913 1.362 . S
C3914 C3917 1.409 . S
C3915 H3907 0.930 . S
C3915 C3916 1.355 . S
C3915 C3917 1.415 . S
C3916 C3915 1.355 . S
C3916 C3918 1.419 . S
C3917 C3912 1.425 . S
C3917 C3914 1.409 . S
C3917 C3915 1.415 . S
C3918 H3908 0.930 . S
C3918 C3916 1.419 . S
C3918 C3919 1.362 . S
C3919 H3909 0.930 . S
C3919 C3912 1.409 . S
C3919 C3918 1.362 . S
H3920 C3926 0.930 . S
H3921 C3929 0.930 . S
H3922 C3930 0.930 . S
H3923 C3931 0.930 . S
H3924 C3934 0.930 . S
H3925 C3935 0.930 . S
C3926 H3920 0.930 . S
C3926 C3927 1.355 . S
C3926 C3928 1.415 . S
C3927 C3926 1.355 . S
C3927 C3929 1.419 . S
C3928 C3926 1.415 . S
C3928 C3933 1.425 . S
C3928 C3935 1.409 . S
C3929 H3921 0.930 . S
C3929 C3927 1.419 . S
C3929 C3930 1.362 . S
C3930 H3922 0.930 . S
C3930 C3929 1.362 . S
C3930 C3933 1.409 . S
C3931 H3923 0.930 . S
C3931 C3932 1.355 . S
C3931 C3933 1.415 . S
C3932 C3931 1.355 . S
C3932 C3934 1.419 . S
C3933 C3928 1.425 . S
C3933 C3930 1.409 . S
C3933 C3931 1.415 . S
C3934 H3924 0.930 . S
C3934 C3932 1.419 . S
C3934 C3935 1.362 . S
C3935 H3925 0.930 . S
C3935 C3928 1.409 . S
C3935 C3934 1.362 . S
H3936 C3942 0.930 . S
H3937 C3945 0.930 . S
H3938 C3946 0.930 . S
H3939 C3947 0.930 . S
H3940 C3950 0.930 . S
H3941 C3951 0.930 . S
C3942 H3936 0.930 . S
C3942 C3943 1.355 . S
C3942 C3944 1.415 . S
C3943 C3942 1.355 . S
C3943 C3945 1.419 . S
C3944 C3942 1.415 . S
C3944 C3949 1.425 . S
C3944 C3951 1.409 . S
C3945 H3937 0.930 . S
C3945 C3943 1.419 . S
C3945 C3946 1.362 . S
C3946 H3938 0.930 . S
C3946 C3945 1.362 . S
C3946 C3949 1.409 . S
C3947 H3939 0.930 . S
C3947 C3948 1.355 . S
C3947 C3949 1.415 . S
C3948 C3947 1.355 . S
C3948 C3950 1.419 . S
C3949 C3944 1.425 . S
C3949 C3946 1.409 . S
C3949 C3947 1.415 . S
C3950 H3940 0.930 . S
C3950 C3948 1.419 . S
C3950 C3951 1.362 . S
C3951 H3941 0.930 . S
C3951 C3944 1.409 . S
C3951 C3950 1.362 . S
H3952 C3958 0.930 . S
H3953 C3961 0.930 . S
H3954 C3962 0.930 . S
H3955 C3963 0.930 . S
H3956 C3966 0.930 . S
H3957 C3967 0.930 . S
C3958 H3952 0.930 . S
C3958 C3959 1.355 . S
C3958 C3960 1.415 . S
C3959 C3958 1.355 . S
C3959 C3961 1.419 . S
C3960 C3958 1.415 . S
C3960 C3965 1.425 . S
C3960 C3967 1.409 . S
C3961 H3953 0.930 . S
C3961 C3959 1.419 . S
C3961 C3962 1.362 . S
C3962 H3954 0.930 . S
C3962 C3961 1.362 . S
C3962 C3965 1.409 . S
C3963 H3955 0.930 . S
C3963 C3964 1.355 . S
C3963 C3965 1.415 . S
C3964 C3963 1.355 . S
C3964 C3966 1.419 . S
C3965 C3960 1.425 . S
C3965 C3962 1.409 . S
C3965 C3963 1.415 . S
C3966 H3956 0.930 . S
C3966 C3964 1.419 . S
C3966 C3967 1.362 . S
C3967 H3957 0.930 . S
C3967 C3960 1.409 . S
C3967 C3966 1.362 . S
H3968 C3974 0.930 . S
H3969 C3977 0.930 . S
H3970 C3978 0.930 . S
H3971 C3979 0.930 . S
H3972 C3982 0.930 . S
H3973 C3983 0.930 . S
C3974 H3968 0.930 . S
C3974 C3975 1.355 . S
C3974 C3976 1.415 . S
C3975 C3974 1.355 . S
C3975 C3977 1.419 . S
C3976 C3974 1.415 . S
C3976 C3981 1.425 . S
C3976 C3983 1.409 . S
C3977 H3969 0.930 . S
C3977 C3975 1.419 . S
C3977 C3978 1.362 . S
C3978 H3970 0.930 . S
C3978 C3977 1.362 . S
C3978 C3981 1.409 . S
C3979 H3971 0.930 . S
C3979 C3980 1.355 . S
C3979 C3981 1.415 . S
C3980 C3979 1.355 . S
C3980 C3982 1.419 . S
C3981 C3976 1.425 . S
C3981 C3978 1.409 . S
C3981 C3979 1.415 . S
C3982 H3972 0.930 . S
C3982 C3980 1.419 . S
C3982 C3983 1.362 . S
C3983 H3973 0.930 . S
C3983 C3976 1.409 . S
C3983 C3982 1.362 . S
H3984 C3990 0.930 . S
H3985 C3993 0.930 . S
H3986 C3994 0.930 . S
H3987 C3995 0.930 . S
H3988 C3998 0.930 . S
H3989 C3999 0.930 . S
C3990 H3984 0.930 . S
C3990 C3991 1.355 . S
C3990 C3992 1.415 . S
C3991 C3990 1.355 . S
C3991 C3993 1.419 . S
C3992 C3990 1.415 . S
C3992 C3997 1.425 . S
C3992 C3999 1.409 . S
C3993 H3985 0.930 . S
C3993 C3991 1.419 . S
C3993 C3994 1.362 . S
C3994 H3986 0.930 . S
C3994 C3993 1.362 . S
C3994 C3997 1.409 . S
C3995 H3987 0.930 . S
C3995 C3996 1.355 . S
C3995 C3997 1.415 . S
C3996 C3995 1.355 . S
C3996 C3998 1.419 . S
C3997 C3992 1.425 . S
C3997 C3994 1.409 . S
C3997 C3995 1.415 . S
C3998 H3988 0.930 . S
C3998 C3996 1.419 . S
C3998 C3999 1.362 . S
C3999 H3989 0.930 . S
C3999 C3992 1.409 . S
C3999 C3998 1.362 . S
H4000 C4006 0.930 . S
H4001 C4009 0.930 . S
H4002 C4010 0.930 . S
H4003 C4011 0.930 . S
H4004 C4014 0.930 . S
H4005 C4015 0.930 . S
C4006 H4000 0.930 . S
C4006 C4007 1.355 . S
C4006 C4008 1.415 . S
C4007 C4006 1.355 . S
C4007 C4009 1.419 . S
C4008 C4006 1.415 . S
C4008 C4013 1.425 . S
C4008 C4015 1.409 . S
C4009 H4001 0.930 . S
C4009 C4007 1.419 . S
C4009 C4010 1.362 . S
C4010 H4002 0.930 . S
C4010 C4009 1.362 . S
C4010 C4013 1.409 . S
C4011 H4003 0.930 . S
C4011 C4012 1.355 . S
C4011 C4013 1.415 . S
C4012 C4011 1.355 . S
C4012 C4014 1.419 . S
C4013 C4008 1.425 . S
C4013 C4010 1.409 . S
C4013 C4011 1.415 . S
C4014 H4004 0.930 . S
C4014 C4012 1.419 . S
C4014 C4015 1.362 . S
C4015 H4005 0.930 . S
C4015 C4008 1.409 . S
C4015 C4014 1.362 . S
H4016 C4022 0.930 . S
H4017 C4025 0.930 . S
H4018 C4026 0.930 . S
H4019 C4027 0.930 . S
H4020 C4030 0.930 . S
H4021 C4031 0.930 . S
C4022 H4016 0.930 . S
C4022 C4023 1.355 . S
C4022 C4024 1.415 . S
C4023 C4022 1.355 . S
C4023 C4025 1.419 . S
C4024 C4022 1.415 . S
C4024 C4029 1.425 . S
C4024 C4031 1.409 . S
C4025 H4017 0.930 . S
C4025 C4023 1.419 . S
C4025 C4026 1.362 . S
C4026 H4018 0.930 . S
C4026 C4025 1.362 . S
C4026 C4029 1.409 . S
C4027 H4019 0.930 . S
C4027 C4028 1.355 . S
C4027 C4029 1.415 . S
C4028 C4027 1.355 . S
C4028 C4030 1.419 . S
C4029 C4024 1.425 . S
C4029 C4026 1.409 . S
C4029 C4027 1.415 . S
C4030 H4020 0.930 . S
C4030 C4028 1.419 . S
C4030 C4031 1.362 . S
C4031 H4021 0.930 . S
C4031 C4024 1.409 . S
C4031 C4030 1.362 . S
H4032 C4038 0.930 . S
H4033 C4041 0.930 . S
H4034 C4042 0.930 . S
H4035 C4043 0.930 . S
H4036 C4046 0.930 . S
H4037 C4047 0.930 . S
C4038 H4032 0.930 . S
C4038 C4039 1.355 . S
C4038 C4040 1.415 . S
C4039 C4038 1.355 . S
C4039 C4041 1.419 . S
C4040 C4038 1.415 . S
C4040 C4045 1.425 . S
C4040 C4047 1.409 . S
C4041 H4033 0.930 . S
C4041 C4039 1.419 . S
C4041 C4042 1.362 . S
C4042 H4034 0.930 . S
C4042 C4041 1.362 . S
C4042 C4045 1.409 . S
C4043 H4035 0.930 . S
C4043 C4044 1.355 . S
C4043 C4045 1.415 . S
C4044 C4043 1.355 . S
C4044 C4046 1.419 . S
C4045 C4040 1.425 . S
C4045 C4042 1.409 . S
C4045 C4043 1.415 . S
C4046 H4036 0.930 . S
C4046 C4044 1.419 . S
C4046 C4047 1.362 . S
C4047 H4037 0.930 . S
C4047 C4040 1.409 . S
C4047 C4046 1.362 . S
H4048 C4054 0.930 1_554 S
H4049 C4057 0.930 . S
H4050 C4058 0.930 . S
H4051 C4059 0.930 . S
H4052 C4062 0.930 . S
H4053 C4063 0.930 . S
C4054 H4048 0.930 1_556 S
C4054 C4055 1.355 . S
C4054 C4056 1.415 1_556 S
C4055 C4054 1.355 . S
C4055 C4057 1.419 . S
C4056 C4054 1.415 1_554 S
C4056 C4061 1.425 1_554 S
C4056 C4063 1.409 . S
C4057 H4049 0.930 . S
C4057 C4055 1.419 . S
C4057 C4058 1.362 . S
C4058 H4050 0.930 . S
C4058 C4057 1.362 . S
C4058 C4061 1.409 . S
C4059 H4051 0.930 . S
C4059 C4060 1.355 1_556 S
C4059 C4061 1.415 . S
C4060 C4059 1.355 1_554 S
C4060 C4062 1.419 . S
C4061 C4056 1.425 1_556 S
C4061 C4058 1.409 . S
C4061 C4059 1.415 . S
C4062 H4052 0.930 . S
C4062 C4060 1.419 . S
C4062 C4063 1.362 . S
C4063 H4053 0.930 . S
C4063 C4056 1.409 . S
C4063 C4062 1.362 . S
H4064 C4070 0.930 . S
H4065 C4073 0.930 . S
H4066 C4074 0.930 . S
H4067 C4075 0.930 . S
H4068 C4078 0.930 . S
H4069 C4079 0.930 . S
C4070 H4064 0.930 . S
C4070 C4071 1.355 . S
C4070 C4072 1.415 . S
C4071 C4070 1.355 . S
C4071 C4073 1.419 . S
C4072 C4070 1.415 . S
C4072 C4077 1.425 . S
C4072 C4079 1.409 . S
C4073 H4065 0.930 . S
C4073 C4071 1.419 . S
C4073 C4074 1.362 . S
C4074 H4066 0.930 . S
C4074 C4073 1.362 . S
C4074 C4077 1.409 . S
C4075 H4067 0.930 . S
C4075 C4076 1.355 . S
C4075 C4077 1.415 . S
C4076 C4075 1.355 . S
C4076 C4078 1.419 . S
C4077 C4072 1.425 . S
C4077 C4074 1.409 . S
C4077 C4075 1.415 . S
C4078 H4068 0.930 . S
C4078 C4076 1.419 . S
C4078 C4079 1.362 . S
C4079 H4069 0.930 . S
C4079 C4072 1.409 . S
C4079 C4078 1.362 . S
H4080 C4086 0.930 . S
H4081 C4089 0.930 . S
H4082 C4090 0.930 . S
H4083 C4091 0.930 . S
H4084 C4094 0.930 . S
H4085 C4095 0.930 . S
C4086 H4080 0.930 . S
C4086 C4087 1.355 . S
C4086 C4088 1.415 . S
C4087 C4086 1.355 . S
C4087 C4089 1.419 . S
C4088 C4086 1.415 . S
C4088 C4093 1.425 . S
C4088 C4095 1.409 . S
C4089 H4081 0.930 . S
C4089 C4087 1.419 . S
C4089 C4090 1.362 . S
C4090 H4082 0.930 . S
C4090 C4089 1.362 . S
C4090 C4093 1.409 . S
C4091 H4083 0.930 . S
C4091 C4092 1.355 . S
C4091 C4093 1.415 . S
C4092 C4091 1.355 . S
C4092 C4094 1.419 . S
C4093 C4088 1.425 . S
C4093 C4090 1.409 . S
C4093 C4091 1.415 . S
C4094 H4084 0.930 . S
C4094 C4092 1.419 . S
C4094 C4095 1.362 . S
C4095 H4085 0.930 . S
C4095 C4088 1.409 . S
C4095 C4094 1.362 . S
H4096 C4102 0.930 . S
H4097 C4105 0.930 . S
H4098 C4106 0.930 . S
H4099 C4107 0.930 . S
H4100 C4110 0.930 . S
H4101 C4111 0.930 . S
C4102 H4096 0.930 . S
C4102 C4103 1.355 . S
C4102 C4104 1.415 . S
C4103 C4102 1.355 . S
C4103 C4105 1.419 . S
C4104 C4102 1.415 . S
C4104 C4109 1.425 . S
C4104 C4111 1.409 . S
C4105 H4097 0.930 . S
C4105 C4103 1.419 . S
C4105 C4106 1.362 . S
C4106 H4098 0.930 . S
C4106 C4105 1.362 . S
C4106 C4109 1.409 . S
C4107 H4099 0.930 . S
C4107 C4108 1.355 . S
C4107 C4109 1.415 . S
C4108 C4107 1.355 . S
C4108 C4110 1.419 . S
C4109 C4104 1.425 . S
C4109 C4106 1.409 . S
C4109 C4107 1.415 . S
C4110 H4100 0.930 . S
C4110 C4108 1.419 . S
C4110 C4111 1.362 . S
C4111 H4101 0.930 . S
C4111 C4104 1.409 . S
C4111 C4110 1.362 . S
H4112 C4118 0.930 . S
H4113 C4121 0.930 . S
H4114 C4122 0.930 . S
H4115 C4123 0.930 . S
H4116 C4126 0.930 . S
H4117 C4127 0.930 . S
C4118 H4112 0.930 . S
C4118 C4119 1.355 . S
C4118 C4120 1.415 . S
C4119 C4118 1.355 . S
C4119 C4121 1.419 . S
C4120 C4118 1.415 . S
C4120 C4125 1.425 . S
C4120 C4127 1.409 . S
C4121 H4113 0.930 . S
C4121 C4119 1.419 . S
C4121 C4122 1.362 . S
C4122 H4114 0.930 . S
C4122 C4121 1.362 . S
C4122 C4125 1.409 . S
C4123 H4115 0.930 . S
C4123 C4124 1.355 . S
C4123 C4125 1.415 . S
C4124 C4123 1.355 . S
C4124 C4126 1.419 . S
C4125 C4120 1.425 . S
C4125 C4122 1.409 . S
C4125 C4123 1.415 . S
C4126 H4116 0.930 . S
C4126 C4124 1.419 . S
C4126 C4127 1.362 . S
C4127 H4117 0.930 . S
C4127 C4120 1.409 . S
C4127 C4126 1.362 . S
H4128 C4134 0.930 . S
H4129 C4137 0.930 . S
H4130 C4138 0.930 . S
H4131 C4139 0.930 . S
H4132 C4142 0.930 . S
H4133 C4143 0.930 . S
C4134 H4128 0.930 . S
C4134 C4135 1.355 . S
C4134 C4136 1.415 . S
C4135 C4134 1.355 . S
C4135 C4137 1.419 . S
C4136 C4134 1.415 . S
C4136 C4141 1.425 . S
C4136 C4143 1.409 . S
C4137 H4129 0.930 . S
C4137 C4135 1.419 . S
C4137 C4138 1.362 . S
C4138 H4130 0.930 . S
C4138 C4137 1.362 . S
C4138 C4141 1.409 . S
C4139 H4131 0.930 . S
C4139 C4140 1.355 . S
C4139 C4141 1.415 . S
C4140 C4139 1.355 . S
C4140 C4142 1.419 . S
C4141 C4136 1.425 . S
C4141 C4138 1.409 . S
C4141 C4139 1.415 . S
C4142 H4132 0.930 . S
C4142 C4140 1.419 . S
C4142 C4143 1.362 . S
C4143 H4133 0.930 . S
C4143 C4136 1.409 . S
C4143 C4142 1.362 . S
H4144 C4150 0.930 . S
H4145 C4153 0.930 . S
H4146 C4154 0.930 . S
H4147 C4155 0.930 . S
H4148 C4158 0.930 . S
H4149 C4159 0.930 . S
C4150 H4144 0.930 . S
C4150 C4151 1.355 . S
C4150 C4152 1.415 . S
C4151 C4150 1.355 . S
C4151 C4153 1.419 . S
C4152 C4150 1.415 . S
C4152 C4157 1.425 . S
C4152 C4159 1.409 . S
C4153 H4145 0.930 . S
C4153 C4151 1.419 . S
C4153 C4154 1.362 . S
C4154 H4146 0.930 . S
C4154 C4153 1.362 . S
C4154 C4157 1.409 . S
C4155 H4147 0.930 . S
C4155 C4156 1.355 . S
C4155 C4157 1.415 . S
C4156 C4155 1.355 . S
C4156 C4158 1.419 . S
C4157 C4152 1.425 . S
C4157 C4154 1.409 . S
C4157 C4155 1.415 . S
C4158 H4148 0.930 . S
C4158 C4156 1.419 . S
C4158 C4159 1.362 . S
C4159 H4149 0.930 . S
C4159 C4152 1.409 . S
C4159 C4158 1.362 . S
H4160 C4166 0.930 . S
H4161 C4169 0.930 . S
H4162 C4170 0.930 . S
H4163 C4171 0.930 . S
H4164 C4174 0.930 . S
H4165 C4175 0.930 . S
C4166 H4160 0.930 . S
C4166 C4167 1.355 . S
C4166 C4168 1.415 . S
C4167 C4166 1.355 . S
C4167 C4169 1.419 . S
C4168 C4166 1.415 . S
C4168 C4173 1.425 . S
C4168 C4175 1.409 . S
C4169 H4161 0.930 . S
C4169 C4167 1.419 . S
C4169 C4170 1.362 . S
C4170 H4162 0.930 . S
C4170 C4169 1.362 . S
C4170 C4173 1.409 . S
C4171 H4163 0.930 . S
C4171 C4172 1.355 . S
C4171 C4173 1.415 . S
C4172 C4171 1.355 . S
C4172 C4174 1.419 . S
C4173 C4168 1.425 . S
C4173 C4170 1.409 . S
C4173 C4171 1.415 . S
C4174 H4164 0.930 . S
C4174 C4172 1.419 . S
C4174 C4175 1.362 . S
C4175 H4165 0.930 . S
C4175 C4168 1.409 . S
C4175 C4174 1.362 . S
H4176 C4182 0.930 . S
H4177 C4185 0.930 . S
H4178 C4186 0.930 . S
H4179 C4187 0.930 . S
H4180 C4190 0.930 . S
H4181 C4191 0.930 . S
C4182 H4176 0.930 . S
C4182 C4183 1.355 . S
C4182 C4184 1.415 . S
C4183 C4182 1.355 . S
C4183 C4185 1.419 . S
C4184 C4182 1.415 . S
C4184 C4189 1.425 . S
C4184 C4191 1.409 . S
C4185 H4177 0.930 . S
C4185 C4183 1.419 . S
C4185 C4186 1.362 . S
C4186 H4178 0.930 . S
C4186 C4185 1.362 . S
C4186 C4189 1.409 . S
C4187 H4179 0.930 . S
C4187 C4188 1.355 . S
C4187 C4189 1.415 . S
C4188 C4187 1.355 . S
C4188 C4190 1.419 . S
C4189 C4184 1.425 . S
C4189 C4186 1.409 . S
C4189 C4187 1.415 . S
C4190 H4180 0.930 . S
C4190 C4188 1.419 . S
C4190 C4191 1.362 . S
C4191 H4181 0.930 . S
C4191 C4184 1.409 . S
C4191 C4190 1.362 . S
H4192 C4198 0.930 . S
H4193 C4201 0.930 . S
H4194 C4202 0.930 . S
H4195 C4203 0.930 . S
H4196 C4206 0.930 . S
H4197 C4207 0.930 . S
C4198 H4192 0.930 . S
C4198 C4199 1.355 . S
C4198 C4200 1.415 . S
C4199 C4198 1.355 . S
C4199 C4201 1.419 . S
C4200 C4198 1.415 . S
C4200 C4205 1.425 . S
C4200 C4207 1.409 . S
C4201 H4193 0.930 . S
C4201 C4199 1.419 . S
C4201 C4202 1.362 . S
C4202 H4194 0.930 . S
C4202 C4201 1.362 . S
C4202 C4205 1.409 . S
C4203 H4195 0.930 . S
C4203 C4204 1.355 1_565 S
C4203 C4205 1.415 . S
C4204 C4203 1.355 1_545 S
C4204 C4206 1.419 . S
C4205 C4200 1.425 . S
C4205 C4202 1.409 . S
C4205 C4203 1.415 . S
C4206 H4196 0.930 . S
C4206 C4204 1.419 . S
C4206 C4207 1.362 1_545 S
C4207 H4197 0.930 . S
C4207 C4200 1.409 . S
C4207 C4206 1.362 1_565 S
H4208 C4214 0.930 . S
H4209 C4217 0.930 . S
H4210 C4218 0.930 . S
H4211 C4219 0.930 . S
H4212 C4222 0.930 . S
H4213 C4223 0.930 . S
C4214 H4208 0.930 . S
C4214 C4215 1.355 . S
C4214 C4216 1.415 . S
C4215 C4214 1.355 . S
C4215 C4217 1.419 . S
C4216 C4214 1.415 . S
C4216 C4221 1.425 . S
C4216 C4223 1.409 . S
C4217 H4209 0.930 . S
C4217 C4215 1.419 . S
C4217 C4218 1.362 . S
C4218 H4210 0.930 . S
C4218 C4217 1.362 . S
C4218 C4221 1.409 . S
C4219 H4211 0.930 . S
C4219 C4220 1.355 . S
C4219 C4221 1.415 . S
C4220 C4219 1.355 . S
C4220 C4222 1.419 . S
C4221 C4216 1.425 . S
C4221 C4218 1.409 . S
C4221 C4219 1.415 . S
C4222 H4212 0.930 . S
C4222 C4220 1.419 . S
C4222 C4223 1.362 . S
C4223 H4213 0.930 . S
C4223 C4216 1.409 . S
C4223 C4222 1.362 . S
C1927 C15 2.609 . S
C1932 C178 2.898 . S
C1943 C50 1.660 . S
C1948 C218 1.776 . S
C1959 C255 2.283 . S
C1964 C98 2.368 . S
C1975 C298 2.645 . S
C1980 C135 2.273 . S
C1991 C329 2.301 . S
C1996 C378 2.663 . S
C2007 C375 1.564 . S
C2012 C418 1.846 . S
C2023 C455 1.362 . S
C2028 C415 1.350 . S
C2039 C458 2.526 . S
C2044 C330 2.426 . S
C2055 C489 1.782 . S
C2060 C138 2.102 . S
C2071 C295 1.729 1_455 S
C2076 C1335 1.566 . S
C2087 C175 2.662 . S
C2092 C538 3.000 . S
C2103 C215 1.600 . S
C2108 C1375 1.732 . S
C2119 C49 1.801 . S
C2124 C578 2.022 . S
C2135 C1255 1.875 . S
C2140 C18 2.075 . S
C2151 C1218 2.126 . S
C2156 C95 1.977 . S
C2167 C769 3.471 . S
C2172 C606 3.032 1_455 S
C2183 C659 2.084 . S
C2188 C809 2.167 . S
C2199 C689 1.891 . S
C2204 C846 1.810 . S
C2215 C726 2.601 . S
C2220 C889 2.965 . S
C2231 C969 2.566 . S
C2236 C938 2.325 . S
C2247 C966 1.969 . S
C2252 C1009 2.286 . S
C2263 C1049 2.359 . S
C2268 C1006 2.120 . S
C2279 C939 1.262 . S
C2284 C1046 1.280 . S
C2295 C729 2.015 . S
C2300 C1098 1.840 . S
C2311 C1686 1.605 . S
C2316 C886 1.776 1_655 S
C2327 C1129 2.753 . S
C2332 C766 2.444 . S
C2343 C806 1.421 . S
C2348 C1726 1.616 . S
C2359 C1169 2.113 . S
C2364 C658 1.758 . S
C2375 C609 2.108 . S
C2380 C1606 1.903 . S
C2391 C686 1.915 . S
C2396 C1569 2.059 . S
C2407 C1298 3.469 . S
C2412 C1215 3.076 . S
C2423 C1338 2.191 . S
C2428 C490 2.111 . S
C2439 C1258 1.924 1_655 S
C2444 C535 1.881 . S
C2455 C1378 2.989 . S
C2460 C575 2.627 . S
C2471 C1409 2.342 1_554 S
C2476 C1458 2.552 . S
C2487 C1455 1.997 . S
C2492 C1498 2.326 . S
C2503 C1538 2.337 . S
C2508 C1495 2.122 . S
C2519 C1410 1.271 . S
C2524 C1535 1.288 . S
C2535 C258 2.805 . S
C2540 C1295 2.472 . S
C2551 C1649 2.944 . S
C2556 C1566 2.694 . S
C2567 C1689 1.800 . S
C2572 C1099 1.690 . S
C2583 C1126 2.223 . S
C2588 C1609 2.347 . S
C2599 C1729 2.664 . S
C2604 C1166 2.324 . S
C2615 C1778 2.303 1_556 S
C2620 C1809 2.637 . S
C2631 C1806 1.627 . S
C2636 C1849 1.899 . S
C2647 C1846 1.340 . S
C2652 C1886 1.344 . S
C2663 C1889 2.518 . S
C2668 C1779 2.467 . S
C2679 C1646 2.782 . S
C2684 C849 3.107 . S
C2695 C6 0.284 . S
C2700 C646 0.256 . S
C2711 C1610 2.495 . S
C2716 C59 2.507 . S
C2727 C89 1.761 . S
C2732 C739 1.906 . S
C2743 C126 2.008 . S
C2748 C1579 2.053 . S
C2759 C169 2.011 . S
C2764 C890 1.959 . S
C2775 C209 1.485 . S
C2780 C1650 1.326 . S
C2791 C246 2.069 . S
C2796 C810 2.163 . S
C2807 C1139 1.985 . S
C2812 C289 2.114 . S
C2823 C338 2.506 . S
C2828 C1570 2.338 . S
C2839 C366 1.155 . S
C2844 C655 1.088 . S
C2855 C406 0.870 . S
C2860 C1619 0.845 . S
C2871 C730 2.517 . S
C2876 C449 2.549 . S
C2887 C1659 1.188 . S
C2892 C446 1.165 . S
C2903 C819 2.198 . S
C2908 C339 2.143 . S
C2919 C369 1.266 . S
C2924 C1130 1.236 . S
C2935 C899 1.392 . S
C2940 C409 1.527 . S
C2951 C1766 1.122 . S
C2956 C498 1.127 . S
C2967 C1059 1.064 . S
C2972 C286 1.115 . S
C2983 C166 0.469 . S
C2988 C1775 0.528 . S
C2999 C206 1.304 . S
C3004 C979 1.361 . S
C3015 C529 1.577 1_545 S
C3020 C1019 1.704 . S
C3031 C1850 1.870 . S
C3036 C569 1.910 . S
C3047 C9 1.116 . S
C3052 C1899 1.175 . S
C3063 C86 1.012 . S
C3068 C1810 1.018 . S
C3079 C55 0.262 . S
C3084 C615 0.305 . S
C3095 C650 2.964 . S
C3100 C1259 2.894 . S
C3111 C698 1.225 . S
C3116 C130 1.408 . S
C3127 C735 2.081 . S
C3132 C1210 2.130 . S
C3143 C299 1.473 . S
C3148 C778 1.492 . S
C3159 C1299 2.126 . S
C3164 C818 2.202 . S
C3175 C219 2.172 . S
C3180 C855 2.044 . S
C3191 C898 1.659 . S
C3196 C530 1.481 . S
C3207 C929 2.663 . S
C3212 C1219 2.559 . S
C3223 C46 1.345 . S
C3228 C975 1.510 . S
C3239 C1015 1.282 . S
C3244 C1250 1.333 . S
C3255 C139 1.063 1_556 S
C3260 C1055 1.081 . S
C3271 C1290 2.040 . S
C3276 C1058 2.005 . S
C3287 C930 1.374 . S
C3292 C210 1.421 . S
C3303 C978 1.002 . S
C3308 C539 0.945 . S
C3319 C290 0.790 . S
C3324 C1018 0.906 1_556 S
C3335 C1089 0.816 . S
C3340 C1415 0.803 . S
C3351 C459 1.923 . S
C3356 C895 1.792 . S
C3367 C1406 0.440 . S
C3372 C775 0.444 . S
C3383 C815 1.409 . S
C3388 C370 1.448 . S
C3399 C1138 1.610 . S
C3404 C410 1.583 . S
C3415 C1499 0.965 . S
C3420 C1178 1.031 . S
C3431 C618 1.056 . S
C3436 C1539 1.032 . S
C3447 C1459 1.092 . S
C3452 C695 1.112 . S
C3463 C1086 0.053 . S
C3468 C1206 0.095 . S
C3479 C499 2.962 . S
C3484 C690 2.933 . S
C3495 C1179 1.421 . S
C3500 C1249 1.291 . S
C3511 C566 2.126 . S
C3516 C619 2.167 1_455 S
C3527 C1289 1.536 . S
C3532 C1730 1.593 . S
C3543 C770 2.239 . S
C3548 C1329 2.315 . S
C3559 C526 2.078 . S
C3564 C1690 2.206 . S
C3575 C859 1.468 . S
C3580 C1369 1.634 . S
C3591 C1418 2.665 . S
C3596 C610 2.592 . S
C3607 C1446 1.630 . S
C3612 C1095 1.496 . S
C3623 C1486 1.323 . S
C3628 C699 1.352 . S
C3639 C1170 1.097 . S
C3644 C1526 1.120 . S
C3655 C779 2.015 . S
C3660 C1529 1.919 . S
C3671 C1419 1.347 . S
C3676 C1699 1.384 . S
C3687 C850 1.009 . S
C3692 C1449 1.085 . S
C3703 C1489 0.911 . S
C3708 C1739 0.794 . S
C3719 C58 0.867 . S
C3724 C926 0.858 . S
C3735 C1890 1.873 . S
C3740 C1366 1.750 . S
C3751 C1286 0.419 . S
C3756 C935 0.360 . S
C3767 C1326 1.365 . S
C3772 C1819 1.431 . S
C3783 C1859 1.553 . S
C3788 C249 1.580 . S
C3799 C1010 1.114 . S
C3804 C129 1.087 . S
C3815 C1209 0.970 . S
C3820 C1050 1.047 . S
C3831 C970 1.127 . S
C3836 C1246 1.095 . S
C3847 C495 0.160 . S
C3852 C1575 0.124 . S
C3863 C1090 2.512 . S
C3868 C99 2.502 . S
C3879 C570 1.913 . S
C3884 C1618 1.743 . S
C3895 C1175 2.062 1_455 S
C3900 C10 2.105 . S
C3911 C1658 2.119 . S
C3916 C1379 2.028 . S
C3927 C179 1.433 . S
C3932 C1698 1.618 . S
C3943 C1339 2.170 . S
C3948 C1135 2.078 . S
C3959 C250 1.981 . S
C3964 C1738 2.095 . S
C3975 C19 2.306 . S
C3980 C1769 2.494 . S
C3991 C1815 1.097 . S
C3996 C486 0.985 . S
C4007 C90 0.732 . S
C4012 C1855 0.717 . S
C4023 C579 2.472 . S
C4028 C1898 2.554 . S
C4039 C170 1.112 . S
C4044 C1895 1.057 . S
C4055 C1330 2.195 . S
C4060 C1770 2.122 . S
C4071 C1818 1.227 . S
C4076 C259 1.297 . S
C4087 C1370 1.413 . S
C4092 C1858 1.539 . S
C4103 C335 1.179 . S
C4108 C649 1.182 . S
C4119 C1735 1.198 . S
C4124 C1530 1.151 . S
C4135 C1655 0.367 . S
C4140 C326 0.355 . S
C4151 C1450 1.450 . S
C4156 C1695 1.415 . S
C4167 C858 1.605 . S
C4172 C1490 1.653 . S
C4183 C738 1.901 . S
C4188 C419 1.903 . S
C4199 C450 1.155 . S
C4204 C1578 1.107 . S
C4215 C379 1.031 . S
C4220 C1615 1.062 . S
