# Generated by pormake.
# Topology afi, (4)-cn, num edge types: 1
# Building blocks:
#     Node 0, Type 0, BuildingBlock: QUQFOY_clean_sbu_3, # of connection points: 4
#     Node 1, Type 0, BuildingBlock: QUQFOY_clean_sbu_3, # of connection points: 4
#     Node 2, Type 0, BuildingBlock: QUQFOY_clean_sbu_3, # of connection points: 4
#     Node 3, Type 0, BuildingBlock: QUQFOY_clean_sbu_3, # of connection points: 4
#     Node 4, Type 0, BuildingBlock: QUQFOY_clean_sbu_3, # of connection points: 4
#     Node 5, Type 0, BuildingBlock: QUQFOY_clean_sbu_3, # of connection points: 4
#     Node 6, Type 0, BuildingBlock: QUQFOY_clean_sbu_3, # of connection points: 4
#     Node 7, Type 0, BuildingBlock: QUQFOY_clean_sbu_3, # of connection points: 4
#     Node 8, Type 0, BuildingBlock: QUQFOY_clean_sbu_3, # of connection points: 4
#     Node 9, Type 0, BuildingBlock: QUQFOY_clean_sbu_3, # of connection points: 4
#     Node 10, Type 0, BuildingBlock: QUQFOY_clean_sbu_3, # of connection points: 4
#     Node 11, Type 0, BuildingBlock: QUQFOY_clean_sbu_3, # of connection points: 4
#     Node 12, Type 0, BuildingBlock: QUQFOY_clean_sbu_3, # of connection points: 4
#     Node 13, Type 0, BuildingBlock: QUQFOY_clean_sbu_3, # of connection points: 4
#     Node 14, Type 0, BuildingBlock: QUQFOY_clean_sbu_3, # of connection points: 4
#     Node 15, Type 0, BuildingBlock: QUQFOY_clean_sbu_3, # of connection points: 4
#     Node 16, Type 0, BuildingBlock: QUQFOY_clean_sbu_3, # of connection points: 4
#     Node 17, Type 0, BuildingBlock: QUQFOY_clean_sbu_3, # of connection points: 4
#     Node 18, Type 0, BuildingBlock: QUQFOY_clean_sbu_3, # of connection points: 4
#     Node 19, Type 0, BuildingBlock: QUQFOY_clean_sbu_3, # of connection points: 4
#     Node 20, Type 0, BuildingBlock: QUQFOY_clean_sbu_3, # of connection points: 4
#     Node 21, Type 0, BuildingBlock: QUQFOY_clean_sbu_3, # of connection points: 4
#     Node 22, Type 0, BuildingBlock: QUQFOY_clean_sbu_3, # of connection points: 4
#     Node 23, Type 0, BuildingBlock: QUQFOY_clean_sbu_3, # of connection points: 4
#     Edge 24, Type (0, 0), BuildingBlock: UVAHIK_clean_linker_0, # of connection points: 2
#     Edge 25, Type (0, 0), BuildingBlock: UVAHIK_clean_linker_0, # of connection points: 2
#     Edge 26, Type (0, 0), BuildingBlock: UVAHIK_clean_linker_0, # of connection points: 2
#     Edge 27, Type (0, 0), BuildingBlock: UVAHIK_clean_linker_0, # of connection points: 2
#     Edge 28, Type (0, 0), BuildingBlock: UVAHIK_clean_linker_0, # of connection points: 2
#     Edge 29, Type (0, 0), BuildingBlock: UVAHIK_clean_linker_0, # of connection points: 2
#     Edge 30, Type (0, 0), BuildingBlock: UVAHIK_clean_linker_0, # of connection points: 2
#     Edge 31, Type (0, 0), BuildingBlock: UVAHIK_clean_linker_0, # of connection points: 2
#     Edge 32, Type (0, 0), BuildingBlock: UVAHIK_clean_linker_0, # of connection points: 2
#     Edge 33, Type (0, 0), BuildingBlock: UVAHIK_clean_linker_0, # of connection points: 2
#     Edge 34, Type (0, 0), BuildingBlock: UVAHIK_clean_linker_0, # of connection points: 2
#     Edge 35, Type (0, 0), BuildingBlock: UVAHIK_clean_linker_0, # of connection points: 2
#     Edge 36, Type (0, 0), BuildingBlock: UVAHIK_clean_linker_0, # of connection points: 2
#     Edge 37, Type (0, 0), BuildingBlock: UVAHIK_clean_linker_0, # of connection points: 2
#     Edge 38, Type (0, 0), BuildingBlock: UVAHIK_clean_linker_0, # of connection points: 2
#     Edge 39, Type (0, 0), BuildingBlock: UVAHIK_clean_linker_0, # of connection points: 2
#     Edge 40, Type (0, 0), BuildingBlock: UVAHIK_clean_linker_0, # of connection points: 2
#     Edge 41, Type (0, 0), BuildingBlock: UVAHIK_clean_linker_0, # of connection points: 2
#     Edge 42, Type (0, 0), BuildingBlock: UVAHIK_clean_linker_0, # of connection points: 2
#     Edge 43, Type (0, 0), BuildingBlock: UVAHIK_clean_linker_0, # of connection points: 2
#     Edge 44, Type (0, 0), BuildingBlock: UVAHIK_clean_linker_0, # of connection points: 2
#     Edge 45, Type (0, 0), BuildingBlock: UVAHIK_clean_linker_0, # of connection points: 2
#     Edge 46, Type (0, 0), BuildingBlock: UVAHIK_clean_linker_0, # of connection points: 2
#     Edge 47, Type (0, 0), BuildingBlock: UVAHIK_clean_linker_0, # of connection points: 2
#     Edge 48, Type (0, 0), BuildingBlock: UVAHIK_clean_linker_0, # of connection points: 2
#     Edge 49, Type (0, 0), BuildingBlock: UVAHIK_clean_linker_0, # of connection points: 2
#     Edge 50, Type (0, 0), BuildingBlock: UVAHIK_clean_linker_0, # of connection points: 2
#     Edge 51, Type (0, 0), BuildingBlock: UVAHIK_clean_linker_0, # of connection points: 2
#     Edge 52, Type (0, 0), BuildingBlock: UVAHIK_clean_linker_0, # of connection points: 2
#     Edge 53, Type (0, 0), BuildingBlock: UVAHIK_clean_linker_0, # of connection points: 2
#     Edge 54, Type (0, 0), BuildingBlock: UVAHIK_clean_linker_0, # of connection points: 2
#     Edge 55, Type (0, 0), BuildingBlock: UVAHIK_clean_linker_0, # of connection points: 2
#     Edge 56, Type (0, 0), BuildingBlock: UVAHIK_clean_linker_0, # of connection points: 2
#     Edge 57, Type (0, 0), BuildingBlock: UVAHIK_clean_linker_0, # of connection points: 2
#     Edge 58, Type (0, 0), BuildingBlock: UVAHIK_clean_linker_0, # of connection points: 2
#     Edge 59, Type (0, 0), BuildingBlock: UVAHIK_clean_linker_0, # of connection points: 2
#     Edge 60, Type (0, 0), BuildingBlock: UVAHIK_clean_linker_0, # of connection points: 2
#     Edge 61, Type (0, 0), BuildingBlock: UVAHIK_clean_linker_0, # of connection points: 2
#     Edge 62, Type (0, 0), BuildingBlock: UVAHIK_clean_linker_0, # of connection points: 2
#     Edge 63, Type (0, 0), BuildingBlock: UVAHIK_clean_linker_0, # of connection points: 2
#     Edge 64, Type (0, 0), BuildingBlock: UVAHIK_clean_linker_0, # of connection points: 2
#     Edge 65, Type (0, 0), BuildingBlock: UVAHIK_clean_linker_0, # of connection points: 2
#     Edge 66, Type (0, 0), BuildingBlock: UVAHIK_clean_linker_0, # of connection points: 2
#     Edge 67, Type (0, 0), BuildingBlock: UVAHIK_clean_linker_0, # of connection points: 2
#     Edge 68, Type (0, 0), BuildingBlock: UVAHIK_clean_linker_0, # of connection points: 2
#     Edge 69, Type (0, 0), BuildingBlock: UVAHIK_clean_linker_0, # of connection points: 2
#     Edge 70, Type (0, 0), BuildingBlock: UVAHIK_clean_linker_0, # of connection points: 2
#     Edge 71, Type (0, 0), BuildingBlock: UVAHIK_clean_linker_0, # of connection points: 2
# Relax obj value: 0.098
# Max RMSD: 0.105
# Mean RMSD: 0.105
data_MOF--net-afi--node1-QUQFOY_clean_sbu_3--edge1-UVAHIK_clean_linker_0
_symmetry_space_group_name_H-M    P1
_symmetry_Int_Tables_number       1
_symmetry_cell_setting            triclinic
loop_
_symmetry_equiv_pos_as_xyz
'x, y, z'
_cell_length_a     89.430897
_cell_length_b     89.365117
_cell_length_c     51.695581
_cell_angle_alpha  90.018856
_cell_angle_beta   89.974151
_cell_angle_gamma 120.01144
loop_
_atom_site_label
_atom_site_type_symbol
_atom_site_fract_x
_atom_site_fract_y
_atom_site_fract_z
_atom_type_partial_charge
C0 C 0.47985 0.11245 0.17396 0.0
O1 O 0.47651 0.10718 0.15073 0.0
Cd2 Cd 0.45237 0.10489 0.12721 0.0
O3 O 0.47071 0.11762 0.18567 0.0
Cd4 Cd 0.44607 0.1221 0.17597 0.0
C5 C 0.41939 0.07931 0.16872 0.0
O6 O 0.45403 0.13233 0.13198 0.0
O7 O 0.42819 0.12557 0.14327 0.0
O8 O 0.46153 0.14913 0.19951 0.0
C9 C 0.44016 0.13223 0.1266 0.0
O10 O 0.42646 0.08087 0.14673 0.0
C11 C 0.44849 0.14714 0.21215 0.0
O12 O 0.42481 0.09215 0.184 0.0
O13 O 0.43444 0.13302 0.20888 0.0
C14 C 0.36532 0.4826 0.17431 0.0
O15 O 0.36903 0.47892 0.15239 0.0
Cd16 Cd 0.34906 0.45424 0.12787 0.0
O17 O 0.35029 0.47334 0.18387 0.0
Cd18 Cd 0.32254 0.44767 0.171 0.0
C19 C 0.34002 0.42206 0.17163 0.0
O20 O 0.32248 0.45475 0.12563 0.0
O21 O 0.30382 0.42866 0.13683 0.0
O22 O 0.30857 0.46263 0.18889 0.0
C23 C 0.30929 0.44044 0.11984 0.0
O24 O 0.34717 0.4293 0.15037 0.0
C25 C 0.29701 0.44966 0.20107 0.0
O26 O 0.33094 0.42689 0.18419 0.0
O27 O 0.29787 0.43591 0.20035 0.0
C28 C 0.88128 0.37018 0.17806 0.0
O29 O 0.89095 0.37412 0.15827 0.0
Cd30 Cd 0.8984 0.35474 0.13735 0.0
O31 O 0.87422 0.35499 0.18755 0.0
Cd32 Cd 0.87227 0.32689 0.17824 0.0
C33 C 0.91493 0.34371 0.18921 0.0
O34 O 0.87167 0.32865 0.13156 0.0
O35 O 0.8737 0.30719 0.14649 0.0
O36 O 0.84185 0.31321 0.18995 0.0
C37 C 0.87226 0.31502 0.1271 0.0
O38 O 0.91744 0.35098 0.1672 0.0
C39 C 0.84209 0.30178 0.20426 0.0
O40 O 0.8998 0.33505 0.19862 0.0
O41 O 0.85655 0.30255 0.20728 0.0
C42 C 0.50533 0.87952 0.18231 0.0
O43 O 0.51014 0.88699 0.16052 0.0
Cd44 Cd 0.53451 0.88982 0.13708 0.0
O45 O 0.51346 0.87283 0.19295 0.0
Cd46 Cd 0.53872 0.86941 0.18281 0.0
C47 C 0.56585 0.91241 0.18208 0.0
O48 O 0.53195 0.86186 0.13765 0.0
O49 O 0.55758 0.86814 0.14923 0.0
O50 O 0.52282 0.841 0.20275 0.0
C51 C 0.54592 0.86225 0.13205 0.0
O52 O 0.56 0.91217 0.15953 0.0
C53 C 0.53564 0.84231 0.21521 0.0
O54 O 0.55946 0.89877 0.19582 0.0
O55 O 0.54971 0.85659 0.21356 0.0
C56 C 0.6193 0.50455 0.17011 0.0
O57 O 0.61658 0.50782 0.14727 0.0
Cd58 Cd 0.63705 0.53328 0.12442 0.0
O59 O 0.63363 0.51438 0.1813 0.0
Cd60 Cd 0.66158 0.54034 0.17055 0.0
C61 C 0.64303 0.56488 0.16768 0.0
O62 O 0.66424 0.53406 0.12555 0.0
O63 O 0.68125 0.5603 0.13801 0.0
O64 O 0.67541 0.52592 0.19065 0.0
C65 C 0.67717 0.5488 0.12082 0.0
O66 O 0.63747 0.55807 0.14555 0.0
C67 C 0.6863 0.53899 0.20341 0.0
O68 O 0.65131 0.55991 0.18193 0.0
O69 O 0.68506 0.55251 0.20204 0.0
C70 C 0.11185 0.62449 0.18371 0.0
O71 O 0.10557 0.62172 0.16105 0.0
Cd72 Cd 0.10042 0.64191 0.13831 0.0
O73 O 0.11678 0.63896 0.19485 0.0
Cd74 Cd 0.11952 0.66739 0.18414 0.0
C75 C 0.07635 0.6489 0.18369 0.0
O76 O 0.12738 0.6685 0.1391 0.0
O77 O 0.11982 0.68697 0.15051 0.0
O78 O 0.14798 0.6806 0.20388 0.0
C79 C 0.12622 0.68166 0.13342 0.0
O80 O 0.07693 0.64241 0.16204 0.0
C81 C 0.14635 0.69194 0.21634 0.0
O82 O 0.09005 0.65809 0.19664 0.0
O83 O 0.13187 0.6913 0.21482 0.0
C84 C 0.876 0.50958 0.30731 0.0
O85 O 0.88214 0.51286 0.33007 0.0
Cd86 Cd 0.88835 0.53865 0.35244 0.0
O87 O 0.87165 0.51953 0.29606 0.0
Cd88 Cd 0.86966 0.54565 0.30699 0.0
C89 C 0.9128 0.56931 0.30661 0.0
O90 O 0.86184 0.53911 0.35205 0.0
O91 O 0.87026 0.56536 0.34069 0.0
O92 O 0.84106 0.53051 0.28814 0.0
C93 C 0.86349 0.55364 0.35772 0.0
O94 O 0.91206 0.56211 0.32821 0.0
C95 C 0.84246 0.54345 0.27588 0.0
O96 O 0.89913 0.56524 0.29385 0.0
O97 O 0.85698 0.55731 0.27695 0.0
C98 C 0.36784 0.88996 0.30924 0.0
O99 O 0.37202 0.9011 0.32714 0.0
Cd100 Cd 0.35239 0.90792 0.34873 0.0
O101 O 0.35229 0.88142 0.30128 0.0
Cd102 Cd 0.32426 0.87957 0.31085 0.0
C103 C 0.33904 0.92163 0.2965 0.0
O104 O 0.32742 0.88071 0.35755 0.0
O105 O 0.3049 0.88097 0.34309 0.0
O106 O 0.31065 0.84879 0.30103 0.0
C107 C 0.31342 0.88049 0.3623 0.0
O108 O 0.3466 0.92525 0.31837 0.0
C109 C 0.29883 0.84851 0.28709 0.0
O110 O 0.33107 0.90616 0.28819 0.0
O111 O 0.29938 0.86282 0.28336 0.0
C112 C 0.47918 0.36843 0.31159 0.0
O113 O 0.47532 0.37315 0.33251 0.0
Cd114 Cd 0.4493 0.35549 0.35633 0.0
O115 O 0.46971 0.35316 0.30288 0.0
Cd116 Cd 0.44362 0.32577 0.31579 0.0
C117 C 0.41931 0.34443 0.30729 0.0
O118 O 0.44805 0.3285 0.36225 0.0
O119 O 0.42335 0.30775 0.34926 0.0
O120 O 0.45944 0.31129 0.30394 0.0
C121 C 0.43357 0.31548 0.36783 0.0
O122 O 0.4261 0.35261 0.32816 0.0
C123 C 0.44721 0.29939 0.29101 0.0
O124 O 0.42387 0.33422 0.29757 0.0
O125 O 0.43352 0.30024 0.28856 0.0
C126 C 0.11019 0.48206 0.31562 0.0
O127 O 0.10418 0.47838 0.33844 0.0
Cd128 Cd 0.10015 0.4531 0.3607 0.0
O129 O 0.11509 0.47267 0.30401 0.0
Cd130 Cd 0.11787 0.44698 0.31324 0.0
C131 C 0.07481 0.42176 0.31688 0.0
O132 O 0.12715 0.45362 0.35783 0.0
O133 O 0.11917 0.42761 0.34556 0.0
O134 O 0.14565 0.46231 0.29184 0.0
C135 C 0.12621 0.43927 0.36263 0.0
O136 O 0.07604 0.42828 0.33923 0.0
C137 C 0.14378 0.4494 0.27894 0.0
O138 O 0.08803 0.42706 0.30242 0.0
O139 O 0.12937 0.4355 0.28095 0.0
C140 C 0.61982 0.1085 0.30469 0.0
O141 O 0.61696 0.10108 0.32653 0.0
Cd142 Cd 0.63811 0.09701 0.34872 0.0
O143 O 0.63464 0.11489 0.2941 0.0
Cd144 Cd 0.66336 0.11859 0.30493 0.0
C145 C 0.64749 0.07574 0.30196 0.0
O146 O 0.66349 0.12502 0.35047 0.0
O147 O 0.68294 0.1189 0.33862 0.0
O148 O 0.67585 0.14759 0.28708 0.0
C149 C 0.67709 0.12464 0.35594 0.0
O150 O 0.64103 0.07512 0.32416 0.0
C151 C 0.68776 0.14691 0.27473 0.0
O152 O 0.65551 0.08996 0.28972 0.0
O153 O 0.68774 0.1327 0.27536 0.0
C154 C 0.50648 0.61931 0.3132 0.0
O155 O 0.51309 0.61494 0.33136 0.0
Cd156 Cd 0.53989 0.6341 0.35258 0.0
O157 O 0.51399 0.63482 0.30493 0.0
Cd158 Cd 0.54066 0.66252 0.31407 0.0
C159 C 0.56646 0.64603 0.29971 0.0
O160 O 0.53931 0.66003 0.3609 0.0
O161 O 0.56248 0.68159 0.34527 0.0
O162 O 0.52428 0.67699 0.30469 0.0
C163 C 0.55364 0.67364 0.36494 0.0
O164 O 0.56242 0.6387 0.32175 0.0
C165 C 0.53581 0.68842 0.29021 0.0
O166 O 0.55945 0.65445 0.29129 0.0
O167 O 0.5492 0.68728 0.28606 0.0
C168 C 0.50723 0.88492 0.81169 0.0
O169 O 0.51177 0.89335 0.83275 0.0
Cd170 Cd 0.53731 0.89873 0.85548 0.0
O171 O 0.51581 0.87828 0.80249 0.0
Cd172 Cd 0.54109 0.87563 0.81539 0.0
C173 C 0.56763 0.91821 0.80805 0.0
O174 O 0.53487 0.8709 0.86128 0.0
O175 O 0.56045 0.8767 0.84999 0.0
O176 O 0.52508 0.84608 0.79951 0.0
C177 C 0.54886 0.87145 0.86727 0.0
O178 O 0.56199 0.91992 0.82983 0.0
C179 C 0.53781 0.84676 0.78756 0.0
O180 O 0.56142 0.90343 0.79758 0.0
O181 O 0.55185 0.86111 0.78772 0.0
C182 C 0.62464 0.50864 0.81217 0.0
O183 O 0.62219 0.51125 0.83551 0.0
Cd184 Cd 0.64192 0.53745 0.85726 0.0
O185 O 0.63845 0.51911 0.8003 0.0
Cd186 Cd 0.66646 0.54522 0.81025 0.0
C187 C 0.64594 0.56782 0.81254 0.0
O188 O 0.66916 0.53848 0.85465 0.0
O189 O 0.68634 0.56491 0.84332 0.0
O190 O 0.67952 0.53063 0.78849 0.0
C191 C 0.68206 0.55307 0.86001 0.0
O192 O 0.64047 0.56097 0.83468 0.0
C193 C 0.69046 0.54379 0.77595 0.0
O194 O 0.65512 0.5637 0.79881 0.0
O195 O 0.68972 0.55754 0.77848 0.0
C196 C 0.10732 0.62038 0.81592 0.0
O197 O 0.09999 0.61673 0.83788 0.0
Cd198 Cd 0.09467 0.63682 0.86114 0.0
O199 O 0.11287 0.63531 0.80609 0.0
Cd200 Cd 0.11497 0.66308 0.81814 0.0
C201 C 0.07199 0.64504 0.81548 0.0
O202 O 0.12176 0.66334 0.86361 0.0
O203 O 0.11407 0.68173 0.85218 0.0
O204 O 0.14383 0.67669 0.79999 0.0
C205 C 0.12044 0.67642 0.86929 0.0
O206 O 0.07182 0.63868 0.83759 0.0
C207 C 0.14253 0.68834 0.78789 0.0
O208 O 0.08604 0.65365 0.80307 0.0
O209 O 0.12806 0.68776 0.78895 0.0
C210 C 0.47829 0.10558 0.81102 0.0
O211 O 0.47435 0.09815 0.83291 0.0
Cd212 Cd 0.44914 0.09354 0.85594 0.0
O213 O 0.46936 0.11165 0.80126 0.0
Cd214 Cd 0.44434 0.1148 0.8137 0.0
C215 C 0.41802 0.07196 0.81019 0.0
O216 O 0.45119 0.12135 0.85916 0.0
O217 O 0.42541 0.11491 0.8479 0.0
O218 O 0.46024 0.14374 0.7958 0.0
C219 C 0.4372 0.12093 0.86487 0.0
O220 O 0.4242 0.07123 0.83204 0.0
C221 C 0.44743 0.14283 0.78382 0.0
O222 O 0.4238 0.08628 0.79843 0.0
O223 O 0.43336 0.12852 0.78475 0.0
C224 C 0.36232 0.48524 0.80666 0.0
O225 O 0.36509 0.48298 0.83001 0.0
Cd226 Cd 0.3459 0.45708 0.85287 0.0
O227 O 0.3484 0.47455 0.79525 0.0
Cd228 Cd 0.32063 0.44849 0.80656 0.0
C229 C 0.34131 0.4261 0.80877 0.0
O230 O 0.31848 0.45556 0.85107 0.0
O231 O 0.30153 0.42896 0.84033 0.0
O232 O 0.30693 0.46272 0.78576 0.0
C233 C 0.30584 0.44089 0.85687 0.0
O234 O 0.34698 0.43328 0.83066 0.0
C235 C 0.29566 0.4494 0.77388 0.0
O236 O 0.33198 0.42998 0.79497 0.0
O237 O 0.29661 0.43574 0.77605 0.0
C238 C 0.87303 0.3653 0.81381 0.0
O239 O 0.87998 0.36858 0.83603 0.0
Cd240 Cd 0.88799 0.34959 0.85632 0.0
O241 O 0.86869 0.35096 0.80272 0.0
Cd242 Cd 0.86783 0.32337 0.81271 0.0
C243 C 0.9107 0.34397 0.80693 0.0
O244 O 0.86252 0.32166 0.85891 0.0
O245 O 0.87213 0.30544 0.84421 0.0
O246 O 0.83823 0.30888 0.79771 0.0
C247 C 0.86573 0.30955 0.8629 0.0
O248 O 0.91088 0.35045 0.82896 0.0
C249 C 0.83955 0.29785 0.78391 0.0
O250 O 0.8965 0.33402 0.79559 0.0
O251 O 0.85433 0.29912 0.78267 0.0
C252 C 0.108 0.48265 0.67369 0.0
O253 O 0.10183 0.47963 0.65095 0.0
Cd254 Cd 0.09572 0.45385 0.62836 0.0
O255 O 0.11232 0.47254 0.68445 0.0
Cd256 Cd 0.11404 0.44647 0.67297 0.0
C257 C 0.07093 0.42295 0.67331 0.0
O258 O 0.12217 0.45304 0.62787 0.0
O259 O 0.11348 0.42677 0.63962 0.0
O260 O 0.14257 0.46116 0.69202 0.0
C261 C 0.12059 0.43847 0.62263 0.0
O262 O 0.07163 0.43024 0.65182 0.0
C263 C 0.14081 0.44813 0.70444 0.0
O264 O 0.08462 0.42696 0.68594 0.0
O265 O 0.12614 0.43446 0.70334 0.0
C266 C 0.61889 0.10882 0.67132 0.0
O267 O 0.61592 0.10176 0.64917 0.0
Cd268 Cd 0.63693 0.09768 0.62631 0.0
O269 O 0.63369 0.11483 0.68178 0.0
Cd270 Cd 0.66215 0.11826 0.67046 0.0
C271 C 0.64568 0.07537 0.67186 0.0
O272 O 0.66277 0.12541 0.62509 0.0
O273 O 0.68171 0.11857 0.63687 0.0
O274 O 0.67518 0.14693 0.68946 0.0
C275 C 0.67622 0.12472 0.61967 0.0
O276 O 0.63951 0.07512 0.64956 0.0
C277 C 0.68659 0.14551 0.70203 0.0
O278 O 0.6536 0.08936 0.68462 0.0
O279 O 0.6861 0.13108 0.70079 0.0
C280 C 0.50452 0.62644 0.67534 0.0
O281 O 0.50831 0.62351 0.65298 0.0
Cd282 Cd 0.536 0.64277 0.63455 0.0
O283 O 0.51438 0.64054 0.68706 0.0
Cd284 Cd 0.54084 0.66844 0.67811 0.0
C285 C 0.56281 0.64779 0.68588 0.0
O286 O 0.53827 0.67059 0.63184 0.0
O287 O 0.56389 0.68636 0.64746 0.0
O288 O 0.52523 0.6826 0.69252 0.0
C289 C 0.55371 0.68257 0.6284 0.0
O290 O 0.55761 0.6419 0.66318 0.0
C291 C 0.53729 0.69351 0.70685 0.0
O292 O 0.55784 0.65726 0.69691 0.0
O293 O 0.55085 0.69236 0.70849 0.0
C294 C 0.8766 0.50612 0.67594 0.0
O295 O 0.88505 0.5102 0.6549 0.0
Cd296 Cd 0.89233 0.53648 0.63257 0.0
O297 O 0.87095 0.51557 0.68517 0.0
Cd298 Cd 0.87047 0.54204 0.67254 0.0
C299 C 0.91322 0.56607 0.6805 0.0
O300 O 0.86582 0.53672 0.62641 0.0
O301 O 0.87387 0.56275 0.63876 0.0
O302 O 0.84065 0.52759 0.68699 0.0
C303 C 0.86781 0.55144 0.62105 0.0
O304 O 0.91444 0.56026 0.65858 0.0
C305 C 0.84203 0.54051 0.69932 0.0
O306 O 0.89856 0.5607 0.69099 0.0
O307 O 0.85692 0.55389 0.70021 0.0
C308 C 0.36332 0.87644 0.67501 0.0
O309 O 0.36616 0.88342 0.65282 0.0
Cd310 Cd 0.34567 0.88919 0.6317 0.0
O311 O 0.34879 0.87108 0.68609 0.0
Cd312 Cd 0.32056 0.86861 0.67648 0.0
C313 C 0.33889 0.91153 0.6801 0.0
O314 O 0.31847 0.86288 0.63032 0.0
O315 O 0.30175 0.87176 0.64537 0.0
O316 O 0.30665 0.83918 0.69244 0.0
C317 C 0.30601 0.86558 0.62656 0.0
O318 O 0.3445 0.91171 0.65737 0.0
C319 C 0.29584 0.84062 0.7066 0.0
O320 O 0.33069 0.89747 0.69267 0.0
O321 O 0.29703 0.85538 0.70758 0.0
C322 C 0.48376 0.36576 0.68132 0.0
O323 O 0.48037 0.36864 0.65867 0.0
Cd324 Cd 0.45304 0.34948 0.63923 0.0
O325 O 0.47366 0.35172 0.69299 0.0
Cd326 Cd 0.44732 0.32388 0.68329 0.0
C327 C 0.42526 0.34455 0.68917 0.0
O328 O 0.45063 0.32162 0.63722 0.0
O329 O 0.42474 0.30611 0.652 0.0
O330 O 0.46251 0.3095 0.69841 0.0
C331 C 0.43521 0.30974 0.63337 0.0
O332 O 0.43091 0.35038 0.6666 0.0
C333 C 0.45017 0.29848 0.71222 0.0
O334 O 0.42999 0.33509 0.70085 0.0
O335 O 0.43666 0.29976 0.71345 0.0
C336 C 0.39836 0.04801 0.1602 0.0
C337 C 0.4053 0.06221 0.17716 0.0
C338 C 0.3861 0.03157 0.16895 0.0
C339 C 0.35725 0.00816 0.22473 0.0
H340 H 0.36741 0.9722 0.2057 0.0
C341 C 0.3459 0.95216 0.29087 0.0
C342 C 0.34044 0.9358 0.28009 0.0
C343 C 0.349 0.96607 0.27509 0.0
C344 C 0.36412 0.98197 0.2108 0.0
H345 H 0.40426 0.07041 0.21632 0.0
H346 H 0.38335 0.04181 0.23171 0.0
H347 H 0.38192 -0.00019 0.18332 0.0
H348 H 0.33315 0.92097 0.24445 0.0
H349 H 0.3389 0.94548 0.21676 0.0
H350 H 0.34023 0.99053 0.25337 0.0
C351 C 0.38706 0.04334 0.21152 0.0
C352 C 0.37242 -0.00219 0.19794 0.0
C353 C 0.3992 0.05976 0.20274 0.0
C354 C 0.3374 0.93345 0.25331 0.0
C355 C 0.34071 0.94745 0.23746 0.0
C356 C 0.34906 0.99235 0.23774 0.0
C357 C 0.38061 0.02898 0.19488 0.0
C358 C 0.36952 0.01129 0.20533 0.0
C359 C 0.34685 0.96395 0.24818 0.0
C360 C 0.35284 0.97932 0.23142 0.0
H361 H 0.40264 0.0495 0.14028 0.0
H362 H 0.3812 0.02083 0.15554 0.0
H363 H 0.35443 0.01814 0.2305 0.0
H364 H 0.34824 0.95435 0.31145 0.0
H365 H 0.35391 0.97869 0.28385 0.0
C366 C 0.39734 0.33742 0.27226 0.0
C367 C 0.40649 0.34744 0.29378 0.0
C368 C 0.38594 0.34102 0.2588 0.0
C369 C 0.36328 0.36645 0.26325 0.0
H370 H 0.36633 0.367 0.18844 0.0
C371 C 0.35712 0.40696 0.17385 0.0
C372 C 0.34312 0.40857 0.18253 0.0
C373 C 0.36118 0.39548 0.18591 0.0
C374 C 0.36535 0.36696 0.20932 0.0
H375 H 0.4106 0.36889 0.31832 0.0
H376 H 0.39128 0.37547 0.29457 0.0
H377 H 0.38055 0.35478 0.21373 0.0
H378 H 0.32166 0.39861 0.20946 0.0
H379 H 0.32839 0.37814 0.22999 0.0
H380 H 0.34929 0.37984 0.25905 0.0
C381 C 0.39248 0.36454 0.28836 0.0
C382 C 0.3733 0.3597 0.22384 0.0
C383 C 0.40372 0.36086 0.30189 0.0
C384 C 0.33269 0.39782 0.2026 0.0
C385 C 0.3366 0.38614 0.21442 0.0
C386 C 0.35556 0.37392 0.24878 0.0
C387 C 0.38356 0.35479 0.26651 0.0
C388 C 0.37282 0.35987 0.25102 0.0
C389 C 0.35117 0.38516 0.2067 0.0
C390 C 0.35694 0.37474 0.22166 0.0
H391 H 0.39909 0.3269 0.26564 0.0
H392 H 0.37911 0.33312 0.24225 0.0
H393 H 0.36231 0.36643 0.28414 0.0
H394 H 0.36542 0.41509 0.15845 0.0
H395 H 0.37266 0.39534 0.17966 0.0
C396 C 0.94618 0.35266 0.19265 0.0
C397 C 0.92993 0.34606 0.20445 0.0
C398 C 0.96067 0.35624 0.20735 0.0
C399 C 0.97766 0.36989 0.27176 0.0
H400 H 0.01393 0.36137 0.2483 0.0
C401 C 0.04326 0.40103 0.32349 0.0
C402 C 0.05772 0.40852 0.30707 0.0
C403 C 0.02688 0.3896 0.31366 0.0
C404 C 0.00395 0.3639 0.25508 0.0
H405 H 0.916 0.33744 0.24078 0.0
H406 H 0.94148 0.344 0.26656 0.0
H407 H 0.98628 0.34799 0.22561 0.0
H408 H 0.06642 0.40939 0.26761 0.0
H409 H 0.0379 0.38994 0.25036 0.0
H410 H -0.00451 0.38655 0.30026 0.0
C411 C 0.94292 0.34634 0.24591 0.0
C412 C 0.98812 0.35618 0.24215 0.0
C413 C 0.92836 0.34256 0.23113 0.0
C414 C 0.05555 0.40385 0.28081 0.0
C415 C 0.03918 0.39255 0.27094 0.0
C416 C -0.00647 0.37775 0.28453 0.0
C417 C 0.95923 0.35345 0.23419 0.0
C418 C 0.97499 0.35944 0.25002 0.0
C419 C 0.02459 0.38553 0.28715 0.0
C420 C 0.00702 0.3752 0.27593 0.0
H421 H 0.94779 0.3554 0.1721 0.0
H422 H 0.97313 0.36188 0.19787 0.0
H423 H 0.96782 0.37278 0.27805 0.0
H424 H 0.04453 0.40422 0.34389 0.0
H425 H 0.01596 0.38419 0.32676 0.0
C426 C 0.5889 0.94332 0.17681 0.0
C427 C 0.57942 0.92897 0.19296 0.0
C428 C 0.60044 0.95943 0.18734 0.0
C429 C 0.62243 0.98182 0.24859 0.0
H430 H 0.61892 0.01966 0.21835 0.0
C431 C 0.6366 0.04389 0.30317 0.0
C432 C 0.64469 0.05962 0.28955 0.0
C433 C 0.63234 0.02841 0.29064 0.0
C434 C 0.62031 0.00932 0.22677 0.0
H435 H 0.57515 0.92008 0.23276 0.0
H436 H 0.5948 0.94826 0.25119 0.0
H437 H 0.60468 0.99158 0.19747 0.0
H438 H 0.65545 0.0715 0.25242 0.0
H439 H 0.64786 0.04444 0.23058 0.0
H440 H 0.63739 -0.00043 0.27866 0.0
C441 C 0.59365 0.94706 0.23035 0.0
C442 C 0.61218 0.99319 0.21475 0.0
C443 C 0.58227 0.93089 0.21978 0.0
C444 C 0.64912 0.05961 0.26345 0.0
C445 C 0.64475 0.04412 0.2509 0.0
C446 C 0.63044 -0.00204 0.26077 0.0
C447 C 0.60259 0.96161 0.21429 0.0
C448 C 0.61288 0.97915 0.22572 0.0
C449 C 0.63599 0.02834 0.26423 0.0
C450 C 0.62922 0.01178 0.25015 0.0
H451 H 0.58716 0.94219 0.15602 0.0
H452 H 0.60741 0.97027 0.17436 0.0
H453 H 0.62348 0.97138 0.25733 0.0
H454 H 0.63309 0.04345 0.32333 0.0
H455 H 0.62546 0.01642 0.30134 0.0
C456 C 0.58921 0.6379 0.29407 0.0
C457 C 0.57875 0.64388 0.28325 0.0
C458 C 0.59962 0.63422 0.27831 0.0
C459 C 0.5999 0.61872 0.21403 0.0
H460 H 0.6456 0.62774 0.23321 0.0
C461 C 0.63172 0.58523 0.16107 0.0
C462 C 0.63931 0.57826 0.17731 0.0
C463 C 0.62724 0.59706 0.17072 0.0
C464 C 0.63283 0.62508 0.22762 0.0
H465 H 0.57154 0.65139 0.24754 0.0
H466 H 0.58958 0.64463 0.21989 0.0
H467 H 0.63256 0.64213 0.25654 0.0
H468 H 0.64862 0.57866 0.21621 0.0
H469 H 0.64037 0.59882 0.23317 0.0
H470 H 0.59964 0.60095 0.18617 0.0
C471 C 0.58971 0.64287 0.2406 0.0
C472 C 0.62542 0.63338 0.24089 0.0
C473 C 0.57944 0.64677 0.25643 0.0
C474 C 0.6428 0.58377 0.20316 0.0
C475 C 0.6382 0.59548 0.21285 0.0
C476 C 0.60723 0.6103 0.20091 0.0
C477 C 0.59965 0.63628 0.25138 0.0
C478 C 0.60871 0.62991 0.23467 0.0
C479 C 0.63013 0.60208 0.19685 0.0
C480 C 0.62357 0.61301 0.20805 0.0
H481 H 0.58906 0.63566 0.31469 0.0
H482 H 0.60701 0.62899 0.28711 0.0
H483 H 0.58691 0.61566 0.20902 0.0
H484 H 0.62903 0.58138 0.14097 0.0
H485 H 0.62128 0.60209 0.15779 0.0
C486 C 0.05858 0.65426 0.21583 0.0
C487 C 0.05948 0.64495 0.19456 0.0
C488 C 0.04269 0.64963 0.2273 0.0
C489 C 0.0102 0.62937 0.25892 0.0
H490 H 0.96754 0.60807 0.21976 0.0
C491 C 0.94494 0.58298 0.30559 0.0
C492 C 0.92979 0.58182 0.2956 0.0
C493 C 0.96086 0.59367 0.29386 0.0
C494 C 0.9793 0.61426 0.23105 0.0
H495 H 0.04438 0.62375 0.16823 0.0
H496 H 0.01685 0.6153 0.18868 0.0
H497 H -0.00502 0.62201 0.19702 0.0
H498 H 0.91956 0.59163 0.26629 0.0
H499 H 0.94744 0.6107 0.24626 0.0
H500 H -0.00546 0.62191 0.29295 0.0
C501 C 0.02829 0.62647 0.19618 0.0
C502 C -0.00492 0.62203 0.21797 0.0
C503 C 0.04413 0.63124 0.18453 0.0
C504 C 0.93099 0.59211 0.27427 0.0
C505 C 0.94697 0.60297 0.26271 0.0
C506 C -0.00556 0.62179 0.272 0.0
C507 C 0.02739 0.63545 0.21795 0.0
C508 C 0.01072 0.62925 0.23173 0.0
C509 C 0.96205 0.60363 0.27206 0.0
C510 C 0.97878 0.6137 0.25824 0.0
H511 H 0.07017 0.66502 0.22384 0.0
H512 H 0.04245 0.65704 0.24371 0.0
H513 H 0.02195 0.63468 0.27022 0.0
H514 H 0.94445 0.57517 0.32193 0.0
H515 H 0.97212 0.59358 0.30135 0.0
C516 C 0.58443 0.93222 0.7679 0.0
C517 C 0.58064 0.93364 0.79389 0.0
C518 C 0.59517 0.94696 0.75351 0.0
C519 C 0.62732 0.99327 0.75734 0.0
H520 H 0.6053 -0.0033 0.69479 0.0
C521 C 0.64487 0.05826 0.71055 0.0
C522 C 0.64271 0.05908 0.68377 0.0
C523 C 0.64042 0.04254 0.72237 0.0
C524 C 0.61192 -0.00412 0.7118 0.0
H525 H 0.58599 0.95155 0.82559 0.0
H526 H 0.60484 0.97733 0.80038 0.0
H527 H 0.59224 0.96976 0.71882 0.0
H528 H 0.63525 0.04432 0.64812 0.0
H529 H 0.62798 0.01694 0.66864 0.0
H530 H 0.64694 0.01946 0.75046 0.0
C531 C 0.59945 0.96478 0.79121 0.0
C532 C 0.60437 0.98042 0.72563 0.0
C533 C 0.58857 0.95003 0.80557 0.0
C534 C 0.63684 0.04404 0.66886 0.0
C535 C 0.6326 0.02834 0.68065 0.0
C536 C 0.63502 0.0087 0.7433 0.0
C537 C 0.60247 0.96339 0.76489 0.0
C538 C 0.61178 0.9791 0.74882 0.0
C539 C 0.63391 0.02732 0.70764 0.0
C540 C 0.62717 0.01033 0.7207 0.0
H541 H 0.57861 0.91977 0.75833 0.0
H542 H 0.59742 0.94556 0.73329 0.0
H543 H 0.63336 0.99249 0.77505 0.0
H544 H 0.64934 0.06962 0.7226 0.0
H545 H 0.64136 0.04226 0.74322 0.0
C546 C 0.64308 0.58413 0.77549 0.0
C547 C 0.64075 0.57989 0.80192 0.0
C548 C 0.6369 0.59431 0.76479 0.0
C549 C 0.6043 0.60726 0.77678 0.0
H550 H 0.62645 0.63721 0.71789 0.0
C551 C 0.5764 0.64565 0.72691 0.0
C552 C 0.57419 0.64305 0.70003 0.0
C553 C 0.58629 0.64024 0.74064 0.0
C554 C 0.62016 0.62889 0.73434 0.0
H555 H 0.63087 0.58374 0.83812 0.0
H556 H 0.62051 0.60199 0.81957 0.0
H557 H 0.64112 0.62424 0.74056 0.0
H558 H 0.5811 0.63331 0.66635 0.0
H559 H 0.59858 0.62405 0.6904 0.0
H560 H 0.58338 0.612 0.7705 0.0
C561 C 0.62669 0.59702 0.80696 0.0
C562 C 0.6285 0.6214 0.74727 0.0
C563 C 0.63271 0.58664 0.81763 0.0
C564 C 0.58251 0.63542 0.68705 0.0
C565 C 0.59259 0.63023 0.70076 0.0
C566 C 0.59609 0.61493 0.76405 0.0
C567 C 0.62842 0.6007 0.78031 0.0
C568 C 0.62051 0.6102 0.76832 0.0
C569 C 0.59435 0.63237 0.72771 0.0
C570 C 0.6038 0.62554 0.74244 0.0
H571 H 0.64916 0.57909 0.7628 0.0
H572 H 0.63822 0.59661 0.74413 0.0
H573 H 0.5976 0.59849 0.7926 0.0
H574 H 0.57016 0.65148 0.73749 0.0
H575 H 0.58755 0.64211 0.7614 0.0
C576 C 0.94523 0.58603 0.68247 0.0
C577 C 0.929 0.57842 0.6946 0.0
C578 C 0.96024 0.59654 0.69653 0.0
C579 C 0.97684 0.60129 0.76155 0.0
H580 H 0.01533 0.64422 0.73649 0.0
C581 C 0.04043 0.63509 0.81819 0.0
C582 C 0.05557 0.64147 0.80339 0.0
C583 C 0.02465 0.63031 0.80629 0.0
C584 C 0.00474 0.63219 0.74368 0.0
H585 H 0.91574 0.57642 0.73076 0.0
H586 H 0.94199 0.59457 0.75529 0.0
H587 H 0.98821 0.63038 0.71234 0.0
H588 H 0.06617 0.64837 0.76463 0.0
H589 H 0.03865 0.63945 0.74379 0.0
H590 H -0.00658 0.60242 0.79204 0.0
C591 C 0.94305 0.59238 0.73493 0.0
C592 C 0.98922 0.62434 0.7299 0.0
C593 C 0.92804 0.58203 0.72084 0.0
C594 C 0.05473 0.64353 0.77659 0.0
C595 C 0.03893 0.63853 0.76465 0.0
C596 C 0.99239 0.60899 0.77513 0.0
C597 C 0.95928 0.59948 0.72301 0.0
C598 C 0.97522 0.60872 0.73857 0.0
C599 C 0.02363 0.63155 0.77929 0.0
C600 C 0.00663 0.62441 0.76618 0.0
H601 H 0.94639 0.58357 0.66226 0.0
H602 H 0.97263 0.60178 0.68694 0.0
H603 H 0.96631 0.58911 0.76845 0.0
H604 H 0.04072 0.63355 0.83894 0.0
H605 H 0.0132 0.62535 0.81824 0.0
C606 C 0.40021 0.05628 0.7716 0.0
C607 C 0.40493 0.0559 0.79743 0.0
C608 C 0.38953 0.04096 0.7584 0.0
C609 C 0.35917 0.99436 0.76563 0.0
H610 H 0.37981 0.99061 0.70174 0.0
C611 C 0.34146 0.92896 0.71939 0.0
C612 C 0.34256 0.92793 0.69241 0.0
C613 C 0.34626 0.94476 0.73127 0.0
C614 C 0.37358 0.99148 0.71918 0.0
H615 H 0.40125 0.03917 0.83014 0.0
H616 H 0.38252 0.01237 0.807 0.0
H617 H 0.39269 0.01802 0.72451 0.0
H618 H 0.34859 0.94241 0.65656 0.0
H619 H 0.35645 0.96988 0.67719 0.0
H620 H 0.34009 0.96776 0.76039 0.0
C621 C 0.38713 0.02457 0.79703 0.0
C622 C 0.38103 0.00721 0.73228 0.0
C623 C 0.39794 0.0399 0.81021 0.0
C624 C 0.34784 0.94286 0.67744 0.0
C625 C 0.35241 0.95861 0.68929 0.0
C626 C 0.35157 0.97863 0.75234 0.0
C627 C 0.38323 0.02495 0.77081 0.0
C628 C 0.37409 0.00872 0.75583 0.0
C629 C 0.35206 0.95984 0.7164 0.0
C630 C 0.35889 0.97692 0.72921 0.0
H631 H 0.40526 0.06838 0.76121 0.0
H632 H 0.38656 0.04159 0.73825 0.0
H633 H 0.35351 0.99526 0.78367 0.0
H634 H 0.33747 0.91768 0.73146 0.0
H635 H 0.34606 0.94522 0.75219 0.0
C636 C 0.34446 0.40964 0.77216 0.0
C637 C 0.34643 0.41387 0.79858 0.0
C638 C 0.35063 0.3993 0.76197 0.0
C639 C 0.38265 0.38584 0.77597 0.0
H640 H 0.36135 0.35593 0.71676 0.0
C641 C 0.41079 0.34676 0.72921 0.0
C642 C 0.41361 0.34934 0.70241 0.0
C643 C 0.4007 0.35229 0.7421 0.0
C644 C 0.36739 0.36424 0.7333 0.0
H645 H 0.35559 0.40984 0.83532 0.0
H646 H 0.36588 0.39132 0.81769 0.0
H647 H 0.34658 0.36928 0.73813 0.0
H648 H 0.40754 0.35913 0.66797 0.0
H649 H 0.38973 0.36862 0.69056 0.0
H650 H 0.40342 0.38071 0.7711 0.0
C651 C 0.36004 0.39642 0.80467 0.0
C652 C 0.359 0.37194 0.74549 0.0
C653 C 0.35406 0.40696 0.81481 0.0
C654 C 0.40567 0.35704 0.68864 0.0
C655 C 0.39539 0.36236 0.70151 0.0
C656 C 0.3909 0.37796 0.76399 0.0
C657 C 0.35872 0.39276 0.77802 0.0
C658 C 0.36669 0.38311 0.76667 0.0
C659 C 0.39305 0.36027 0.7284 0.0
C660 C 0.3835 0.36734 0.74229 0.0
H661 H 0.3387 0.41481 0.75911 0.0
H662 H 0.34963 0.397 0.74131 0.0
H663 H 0.38912 0.39459 0.7919 0.0
H664 H 0.41672 0.34086 0.74038 0.0
H665 H 0.39899 0.35045 0.76283 0.0
C666 C 0.03886 0.40975 0.67541 0.0
C667 C 0.05401 0.41049 0.68451 0.0
C668 C 0.0231 0.3993 0.68774 0.0
C669 C 0.9897 0.37178 0.71123 0.0
H670 H 0.99127 0.37175 0.78618 0.0
C671 C 0.9274 0.33928 0.77213 0.0
C672 C 0.92716 0.34852 0.79398 0.0
C673 C 0.94286 0.34417 0.7591 0.0
C674 C 0.99058 0.37169 0.76526 0.0
H675 H 0.06438 0.4001 0.71266 0.0
H676 H 0.03679 0.38145 0.73369 0.0
H677 H 0.01803 0.38517 0.76174 0.0
H678 H 0.94296 0.36996 0.81953 0.0
H679 H 0.96976 0.37883 0.79641 0.0
H680 H 0.96226 0.35931 0.71483 0.0
C681 C 0.03715 0.38934 0.71754 0.0
C682 C 0.00596 0.37915 0.75119 0.0
C683 C 0.05295 0.39996 0.7054 0.0
C684 C 0.94273 0.36253 0.80283 0.0
C685 C 0.95813 0.36753 0.78965 0.0
C686 C 0.97432 0.36449 0.72532 0.0
C687 C 0.0221 0.3892 0.70925 0.0
C688 C 0.00572 0.37958 0.72401 0.0
C689 C 0.95837 0.35851 0.76748 0.0
C690 C 0.9746 0.36466 0.75252 0.0
H691 H 0.03926 0.41776 0.6594 0.0
H692 H 0.01186 0.39974 0.68103 0.0
H693 H 0.98902 0.37162 0.69031 0.0
H694 H 0.91563 0.32831 0.76498 0.0
H695 H 0.94262 0.33676 0.74237 0.0
C696 C 0.43385 0.16123 0.23397 0.0
C697 C 0.44917 0.16145 0.22727 0.0
C698 C 0.4344 0.17604 0.24383 0.0
C699 C 0.46294 0.22334 0.24274 0.0
H700 H 0.42866 0.22252 0.28958 0.0
C701 C 0.46413 0.28463 0.282 0.0
C702 C 0.44832 0.28443 0.28142 0.0
C703 C 0.46483 0.26979 0.2758 0.0
C704 C 0.43824 0.22288 0.27636 0.0
H705 H 0.47712 0.17682 0.2276 0.0
H706 H 0.47813 0.20248 0.24572 0.0
H707 H 0.42923 0.19593 0.2812 0.0
H708 H 0.42094 0.26872 0.27325 0.0
H709 H 0.42219 0.24273 0.26258 0.0
H710 H 0.47203 0.25037 0.23819 0.0
C711 C 0.46566 0.19109 0.2425 0.0
C712 C 0.43858 0.20768 0.27155 0.0
C713 C 0.46509 0.17634 0.23235 0.0
C714 C 0.43331 0.26927 0.27381 0.0
C715 C 0.43399 0.25437 0.26793 0.0
C716 C 0.46272 0.23856 0.24779 0.0
C717 C 0.45031 0.19131 0.24748 0.0
C718 C 0.4508 0.20768 0.25444 0.0
C719 C 0.4497 0.25444 0.26924 0.0
C720 C 0.45024 0.23842 0.26438 0.0
H721 H 0.42138 0.14995 0.23019 0.0
H722 H 0.42231 0.17575 0.24722 0.0
H723 H 0.47231 0.22378 0.22904 0.0
H724 H 0.4759 0.29615 0.28781 0.0
H725 H 0.4771 0.27015 0.277 0.0
C726 C 0.15807 0.43461 0.25818 0.0
C727 C 0.15846 0.45 0.26508 0.0
C728 C 0.17305 0.43495 0.24967 0.0
C729 C 0.2203 0.4624 0.2551 0.0
H730 H 0.22065 0.42991 0.20573 0.0
C731 C 0.28229 0.46578 0.21508 0.0
C732 C 0.28223 0.45007 0.21291 0.0
C733 C 0.26738 0.46593 0.22256 0.0
C734 C 0.22067 0.43894 0.21975 0.0
H735 H 0.17442 0.47791 0.26655 0.0
H736 H 0.20043 0.47857 0.25082 0.0
H737 H 0.19397 0.43038 0.21335 0.0
H738 H 0.26678 0.4223 0.21796 0.0
H739 H 0.24067 0.4226 0.23094 0.0
H740 H 0.24712 0.4711 0.26112 0.0
C741 C 0.18872 0.46618 0.25283 0.0
C742 C 0.20542 0.43923 0.22409 0.0
C743 C 0.17379 0.46582 0.2616 0.0
C744 C 0.26721 0.4346 0.21948 0.0
C745 C 0.25224 0.43474 0.22668 0.0
C746 C 0.23559 0.46221 0.25056 0.0
C747 C 0.18867 0.45071 0.24764 0.0
C748 C 0.20504 0.45093 0.2419 0.0
C749 C 0.25211 0.45038 0.22775 0.0
C750 C 0.23588 0.45041 0.23296 0.0
H751 H 0.14645 0.42221 0.26076 0.0
H752 H 0.17256 0.42278 0.24601 0.0
H753 H 0.2204 0.47132 0.26938 0.0
H754 H 0.2937 0.4779 0.21016 0.0
H755 H 0.26759 0.47815 0.22318 0.0
C756 C 0.71763 0.16294 0.25686 0.0
C757 C 0.70211 0.16251 0.2629 0.0
C758 C 0.73223 0.17846 0.2499 0.0
C759 C 0.74805 0.22176 0.22466 0.0
H760 H 0.78818 0.234 0.26747 0.0
C761 C 0.81045 0.28754 0.21369 0.0
C762 C 0.82604 0.28735 0.21491 0.0
C763 C 0.79495 0.27302 0.22108 0.0
C764 C 0.77719 0.23072 0.25511 0.0
H765 H 0.68934 0.17769 0.2648 0.0
H766 H 0.71486 0.20482 0.25193 0.0
H767 H 0.76168 0.20666 0.2746 0.0
H768 H 0.83773 0.272 0.2254 0.0
H769 H 0.81077 0.24657 0.23749 0.0
H770 H 0.76364 0.24547 0.20449 0.0
C771 C 0.71571 0.19316 0.25293 0.0
C772 C 0.76202 0.21508 0.25926 0.0
C773 C 0.70115 0.17767 0.26029 0.0
C774 C 0.82593 0.27258 0.22441 0.0
C775 C 0.81044 0.25801 0.23147 0.0
C776 C 0.76333 0.23731 0.2202 0.0
C777 C 0.73147 0.19375 0.24846 0.0
C778 C 0.74738 0.21042 0.24396 0.0
C779 C 0.79471 0.25794 0.22954 0.0
C780 C 0.77814 0.24193 0.23526 0.0
H781 H 0.71877 0.15147 0.25872 0.0
H782 H 0.74423 0.17861 0.24625 0.0
H783 H 0.73689 0.21838 0.21263 0.0
H784 H 0.81018 0.2988 0.20657 0.0
H785 H 0.78314 0.27356 0.21987 0.0
C786 C 0.5188 0.8121 0.23208 0.0
C787 C 0.53477 0.82725 0.22836 0.0
C788 C 0.51817 0.79697 0.24066 0.0
C789 C 0.54285 0.77535 0.23547 0.0
H790 H 0.51478 0.74597 0.29162 0.0
C791 C 0.54907 0.71781 0.27072 0.0
C792 C 0.5344 0.70316 0.28042 0.0
C793 C 0.54834 0.73254 0.26401 0.0
C794 C 0.52245 0.75386 0.27557 0.0
H795 H 0.56255 0.83871 0.23188 0.0
H796 H 0.56141 0.81218 0.24645 0.0
H797 H 0.51499 0.77291 0.2825 0.0
H798 H 0.50727 0.69213 0.28976 0.0
H799 H 0.50577 0.71763 0.27703 0.0
H800 H 0.54995 0.75627 0.22779 0.0
C801 C 0.54943 0.81206 0.24275 0.0
C802 C 0.52265 0.76933 0.27054 0.0
C803 C 0.55005 0.82724 0.23458 0.0
C804 C 0.5188 0.70329 0.28243 0.0
C805 C 0.518 0.71796 0.27536 0.0
C806 C 0.54244 0.75979 0.24018 0.0
C807 C 0.53351 0.79672 0.24524 0.0
C808 C 0.53304 0.78028 0.25067 0.0
C809 C 0.53284 0.73288 0.26646 0.0
C810 C 0.53241 0.74894 0.2605 0.0
H811 H 0.50682 0.81176 0.22748 0.0
H812 H 0.50576 0.78526 0.24244 0.0
H813 H 0.5507 0.78346 0.21969 0.0
H814 H 0.56132 0.71816 0.26917 0.0
H815 H 0.56011 0.74385 0.25767 0.0
C816 C 0.71579 0.55476 0.22279 0.0
C817 C 0.70104 0.53905 0.21629 0.0
C818 C 0.73096 0.55511 0.23027 0.0
C819 C 0.75236 0.52922 0.22255 0.0
H820 H 0.78513 0.56195 0.2717 0.0
C821 C 0.81184 0.52704 0.26107 0.0
C822 C 0.82729 0.54288 0.26371 0.0
C823 C 0.79667 0.52666 0.25359 0.0
C824 C 0.77616 0.55288 0.2577 0.0
H825 H 0.69012 0.51127 0.21446 0.0
H826 H 0.71639 0.51179 0.22839 0.0
H827 H 0.75747 0.5606 0.26519 0.0
H828 H 0.83918 0.57067 0.25941 0.0
H829 H 0.81257 0.56997 0.24642 0.0
H830 H 0.77099 0.52131 0.21548 0.0
C831 C 0.71646 0.52391 0.22685 0.0
C832 C 0.76032 0.55208 0.25401 0.0
C833 C 0.70136 0.52359 0.21913 0.0
C834 C 0.82747 0.55827 0.25751 0.0
C835 C 0.81223 0.55789 0.25031 0.0
C836 C 0.76813 0.52992 0.22643 0.0
C837 C 0.7316 0.53972 0.23163 0.0
C838 C 0.74822 0.54024 0.23638 0.0
C839 C 0.79664 0.54211 0.24887 0.0
C840 C 0.78019 0.54178 0.24399 0.0
H841 H 0.71594 0.5669 0.22069 0.0
H842 H 0.7424 0.56752 0.23366 0.0
H843 H 0.74352 0.52021 0.20838 0.0
H844 H 0.81133 0.51497 0.2657 0.0
H845 H 0.7848 0.51432 0.25271 0.0
C846 C 0.16092 0.72155 0.23537 0.0
C847 C 0.16128 0.70641 0.22928 0.0
C848 C 0.17597 0.73638 0.24318 0.0
C849 C 0.21918 0.75349 0.26986 0.0
H850 H 0.23076 0.79328 0.22657 0.0
C851 C 0.28459 0.81663 0.27946 0.0
C852 C 0.28426 0.83214 0.27756 0.0
C853 C 0.27005 0.80092 0.27282 0.0
C854 C 0.22765 0.7824 0.2391 0.0
H855 H 0.17728 0.6945 0.22833 0.0
H856 H 0.20354 0.72042 0.24263 0.0
H857 H 0.2038 0.76642 0.21942 0.0
H858 H 0.26859 0.84343 0.26686 0.0
H859 H 0.24316 0.81614 0.25609 0.0
H860 H 0.24273 0.76954 0.29012 0.0
C861 C 0.19166 0.7208 0.24104 0.0
C862 C 0.21222 0.76702 0.23495 0.0
C863 C 0.17666 0.70602 0.23283 0.0
C864 C 0.26929 0.83171 0.26832 0.0
C865 C 0.25471 0.81602 0.26203 0.0
C866 C 0.23452 0.76899 0.27433 0.0
C867 C 0.19154 0.73623 0.24544 0.0
C868 C 0.20782 0.75247 0.25035 0.0
C869 C 0.25482 0.8004 0.26445 0.0
C870 C 0.23891 0.78367 0.25905 0.0
H871 H 0.14926 0.72223 0.2328 0.0
H872 H 0.17556 0.74812 0.24675 0.0
H873 H 0.21601 0.7424 0.28198 0.0
H874 H 0.29599 0.8166 0.28643 0.0
H875 H 0.27071 0.78919 0.27444 0.0
C876 C 0.55106 0.72237 0.72823 0.0
C877 C 0.53611 0.70774 0.71919 0.0
C878 C 0.55035 0.73681 0.7368 0.0
C879 C 0.52352 0.75737 0.73016 0.0
H880 H 0.55367 0.78737 0.7842 0.0
C881 C 0.52079 0.81586 0.77376 0.0
C882 C 0.53679 0.83116 0.77619 0.0
C883 C 0.52006 0.80055 0.76598 0.0
C884 C 0.54527 0.77913 0.76897 0.0
H885 H 0.50851 0.69626 0.71336 0.0
H886 H 0.50713 0.72122 0.72924 0.0
H887 H 0.55302 0.76032 0.77477 0.0
H888 H 0.5645 0.84259 0.77157 0.0
H889 H 0.56319 0.81575 0.7583 0.0
H890 H 0.51556 0.77616 0.72488 0.0
C891 C 0.51952 0.72181 0.72893 0.0
C892 C 0.5449 0.76366 0.76352 0.0
C893 C 0.52028 0.70745 0.72004 0.0
C894 C 0.55198 0.83101 0.76985 0.0
C895 C 0.55127 0.81566 0.76244 0.0
C896 C 0.52372 0.77273 0.73588 0.0
C897 C 0.53462 0.73681 0.73682 0.0
C898 C 0.53417 0.75269 0.74383 0.0
C899 C 0.53533 0.80026 0.76089 0.0
C900 C 0.53475 0.78382 0.75511 0.0
H901 H 0.56347 0.72299 0.72765 0.0
H902 H 0.56228 0.7482 0.74241 0.0
H903 H 0.51532 0.7494 0.71456 0.0
H904 H 0.50887 0.81563 0.77849 0.0
H905 H 0.50763 0.7888 0.76492 0.0
C906 C 0.70421 0.52786 0.75733 0.0
C907 C 0.70461 0.54357 0.7617 0.0
C908 C 0.7188 0.52776 0.74799 0.0
C909 C 0.76528 0.55395 0.75115 0.0
H910 H 0.76527 0.5229 0.69877 0.0
C911 C 0.82767 0.55616 0.71681 0.0
C912 C 0.82672 0.54053 0.70979 0.0
C913 C 0.81273 0.55657 0.72322 0.0
C914 C 0.76543 0.53147 0.71373 0.0
H915 H 0.72019 0.57145 0.75833 0.0
H916 H 0.74577 0.57125 0.74219 0.0
H917 H 0.73889 0.52383 0.70718 0.0
H918 H 0.80959 0.51293 0.70533 0.0
H919 H 0.78357 0.51353 0.71745 0.0
H920 H 0.79158 0.56126 0.75837 0.0
C921 C 0.73418 0.55905 0.74612 0.0
C922 C 0.75037 0.53208 0.71835 0.0
C923 C 0.71952 0.55914 0.75517 0.0
C924 C 0.81068 0.52519 0.7105 0.0
C925 C 0.79576 0.52557 0.71719 0.0
C926 C 0.78028 0.55321 0.74676 0.0
C927 C 0.73407 0.54338 0.74313 0.0
C928 C 0.75018 0.54333 0.73709 0.0
C929 C 0.79655 0.54132 0.72302 0.0
C930 C 0.78053 0.54194 0.72801 0.0
H931 H 0.69286 0.51565 0.76213 0.0
H932 H 0.71842 0.51551 0.74591 0.0
H933 H 0.76536 0.56251 0.76606 0.0
H934 H 0.83985 0.56821 0.71627 0.0
H935 H 0.81381 0.56895 0.72736 0.0
C936 C 0.26695 0.826 0.7279 0.0
C937 C 0.2815 0.8254 0.71915 0.0
C938 C 0.25229 0.81097 0.73619 0.0
C939 C 0.23109 0.76356 0.72875 0.0
H940 H 0.20086 0.76372 0.78241 0.0
C941 C 0.17298 0.70229 0.77221 0.0
C942 C 0.15768 0.70286 0.77553 0.0
C943 C 0.18806 0.71692 0.76394 0.0
C944 C 0.20914 0.76356 0.76723 0.0
H945 H 0.2926 0.8089 0.71373 0.0
H946 H 0.26724 0.78275 0.72915 0.0
H947 H 0.22808 0.79005 0.77349 0.0
H948 H 0.14595 0.71893 0.77181 0.0
H949 H 0.17241 0.74458 0.75761 0.0
H950 H 0.21221 0.73689 0.72304 0.0
C951 C 0.2669 0.7947 0.72878 0.0
C952 C 0.22471 0.77862 0.7621 0.0
C953 C 0.28149 0.8097 0.72018 0.0
C954 C 0.15755 0.71811 0.7694 0.0
C955 C 0.17268 0.7328 0.76147 0.0
C956 C 0.21561 0.74845 0.73413 0.0
C957 C 0.25196 0.79506 0.73621 0.0
C958 C 0.23583 0.77884 0.74267 0.0
C959 C 0.18813 0.73241 0.75919 0.0
C960 C 0.20446 0.74837 0.75327 0.0
H961 H 0.26657 0.83792 0.72719 0.0
H962 H 0.24097 0.81172 0.74151 0.0
H963 H 0.23916 0.76334 0.7133 0.0
H964 H 0.17344 0.69069 0.77676 0.0
H965 H 0.19984 0.71634 0.76236 0.0
C966 C 0.43562 0.26908 0.73194 0.0
C967 C 0.45087 0.28384 0.72396 0.0
C968 C 0.43587 0.25418 0.73925 0.0
C969 C 0.462 0.23309 0.72994 0.0
H970 H 0.43106 0.20141 0.78184 0.0
C971 C 0.46433 0.17357 0.76941 0.0
C972 C 0.44836 0.15827 0.772 0.0
C973 C 0.46499 0.18891 0.76201 0.0
C974 C 0.43966 0.2101 0.76714 0.0
H975 H 0.47851 0.29502 0.71898 0.0
H976 H 0.47906 0.26923 0.7327 0.0
H977 H 0.43217 0.22892 0.77488 0.0
H978 H 0.42062 0.1468 0.76773 0.0
H979 H 0.42182 0.17369 0.75503 0.0
H980 H 0.46973 0.2143 0.72274 0.0
C981 C 0.46681 0.26893 0.73246 0.0
C982 C 0.4403 0.22584 0.76314 0.0
C983 C 0.46653 0.28376 0.72483 0.0
C984 C 0.43312 0.1584 0.76589 0.0
C985 C 0.43378 0.17377 0.75882 0.0
C986 C 0.46152 0.21743 0.7342 0.0
C987 C 0.45141 0.25381 0.73905 0.0
C988 C 0.45138 0.23748 0.74435 0.0
C989 C 0.44968 0.18922 0.7574 0.0
C990 C 0.45023 0.20576 0.75267 0.0
H991 H 0.42335 0.26874 0.73132 0.0
H992 H 0.42373 0.24274 0.74395 0.0
H993 H 0.47045 0.24158 0.71496 0.0
H994 H 0.47629 0.17383 0.77396 0.0
H995 H 0.47741 0.20068 0.76106 0.0
C996 C 0.15507 0.43277 0.72345 0.0
C997 C 0.15576 0.44834 0.71677 0.0
C998 C 0.17008 0.4327 0.73063 0.0
C999 C 0.21473 0.46001 0.753 0.0
H1000 H 0.22354 0.42779 0.71485 0.0
C1001 C 0.28088 0.46488 0.75752 0.0
C1002 C 0.28087 0.44931 0.76121 0.0
C1003 C 0.26579 0.46472 0.75025 0.0
C1004 C 0.2212 0.43674 0.72585 0.0
H1005 H 0.17239 0.47614 0.714 0.0
H1006 H 0.19855 0.47601 0.72689 0.0
H1007 H 0.19614 0.42716 0.70917 0.0
H1008 H 0.26537 0.42139 0.75871 0.0
H1009 H 0.23893 0.42108 0.74647 0.0
H1010 H 0.23963 0.46948 0.76996 0.0
C1011 C 0.18645 0.46388 0.72642 0.0
C1012 C 0.20551 0.43635 0.72265 0.0
C1013 C 0.17149 0.46394 0.719 0.0
C1014 C 0.26577 0.4336 0.75593 0.0
C1015 C 0.25062 0.43343 0.74889 0.0
C1016 C 0.23036 0.46033 0.75636 0.0
C1017 C 0.18596 0.44821 0.73154 0.0
C1018 C 0.20218 0.44802 0.73612 0.0
C1019 C 0.25034 0.44898 0.74679 0.0
C1020 C 0.23382 0.44877 0.7427 0.0
H1021 H 0.14312 0.42055 0.7219 0.0
H1022 H 0.16935 0.42048 0.73484 0.0
H1023 H 0.21241 0.46905 0.76376 0.0
H1024 H 0.29239 0.4772 0.76122 0.0
H1025 H 0.26611 0.47693 0.7481 0.0
C1026 C 0.82458 0.26843 0.76419 0.0
C1027 C 0.82421 0.28329 0.77202 0.0
C1028 C 0.80941 0.25368 0.75649 0.0
C1029 C 0.76566 0.23775 0.73244 0.0
H1030 H 0.75511 0.19538 0.76808 0.0
C1031 C 0.70036 0.17587 0.7182 0.0
C1032 C 0.70084 0.16051 0.71513 0.0
C1033 C 0.71486 0.19082 0.72717 0.0
C1034 C 0.75793 0.20704 0.75773 0.0
H1035 H 0.80795 0.29475 0.77661 0.0
H1036 H 0.7815 0.26903 0.7626 0.0
H1037 H 0.7822 0.22184 0.77702 0.0
H1038 H 0.71657 0.1485 0.72 0.0
H1039 H 0.74197 0.17461 0.73494 0.0
H1040 H 0.7417 0.22297 0.71257 0.0
C1041 C 0.79348 0.26878 0.76267 0.0
C1042 C 0.77343 0.22217 0.76287 0.0
C1043 C 0.8086 0.28345 0.77072 0.0
C1044 C 0.7158 0.16014 0.72228 0.0
C1045 C 0.73036 0.17513 0.73094 0.0
C1046 C 0.75025 0.22257 0.72703 0.0
C1047 C 0.7937 0.25365 0.75613 0.0
C1048 C 0.77743 0.23763 0.75023 0.0
C1049 C 0.73019 0.19074 0.73294 0.0
C1050 C 0.74621 0.20702 0.7396 0.0
H1051 H 0.83643 0.26794 0.76504 0.0
H1052 H 0.8099 0.24219 0.75124 0.0
H1053 H 0.76853 0.24952 0.72236 0.0
H1054 H 0.68894 0.17648 0.71302 0.0
H1055 H 0.71415 0.20251 0.72908 0.0
C1056 C 0.4207 0.1331 0.09256 0.0
C1057 C 0.43733 0.13727 0.10073 0.0
C1058 C 0.41785 0.13607 0.06696 0.0
C1059 C 0.44025 0.15762 0.00586 0.0
H1060 H 0.40554 0.11516 0.97355 0.0
C1061 C 0.4489 0.13568 0.90696 0.0
C1062 C 0.43474 0.12678 0.89034 0.0
C1063 C 0.44668 0.1408 0.93142 0.0
C1064 C 0.41498 0.1273 0.98222 0.0
H1065 H 0.46418 0.1489 0.08922 0.0
H1066 H 0.45923 0.15393 0.04472 0.0
H1067 H 0.40612 0.1179 0.02041 0.0
H1068 H 0.40721 0.11669 0.88588 0.0
H1069 H 0.40327 0.1254 0.92913 0.0
H1070 H 0.4498 0.16653 0.96767 0.0
C1071 C 0.44838 0.14848 0.05795 0.0
C1072 C 0.4153 0.12888 0.0091 0.0
C1073 C 0.4512 0.14542 0.0834 0.0
C1074 C 0.41834 0.12347 0.89839 0.0
C1075 C 0.41608 0.12846 0.92306 0.0
C1076 C 0.43994 0.15602 0.979 0.0
C1077 C 0.43162 0.14341 0.04926 0.0
C1078 C 0.42848 0.14372 0.02122 0.0
C1079 C 0.43023 0.13704 0.93986 0.0
C1080 C 0.42784 0.14051 0.96707 0.0
H1081 H 0.40979 0.1269 0.1056 0.0
H1082 H 0.40482 0.13212 0.0608 0.0
H1083 H 0.45033 0.16934 0.0147 0.0
H1084 H 0.46171 0.13851 0.90123 0.0
H1085 H 0.45777 0.14711 0.94412 0.0
C1086 C 0.3023 0.45148 0.89965 0.0
C1087 C 0.29787 0.4376 0.88272 0.0
C1088 C 0.29606 0.44849 0.9249 0.0
C1089 C 0.2838 0.41623 0.97496 0.0
H1090 H 0.27658 0.44932 0.01356 0.0
C1091 C 0.28913 0.42063 0.08594 0.0
C1092 C 0.30133 0.4374 0.09402 0.0
C1093 C 0.28243 0.41775 0.06086 0.0
C1094 C 0.27837 0.43985 0.00301 0.0
H1095 H 0.28269 0.40976 0.87841 0.0
H1096 H 0.27186 0.40449 0.92291 0.0
H1097 H 0.27538 0.44915 0.96637 0.0
H1098 H 0.31546 0.46439 0.08277 0.0
H1099 H 0.30382 0.45939 0.03911 0.0
H1100 H 0.28774 0.40757 0.01152 0.0
C1101 C 0.28023 0.41768 0.91656 0.0
C1102 C 0.27769 0.43976 0.97606 0.0
C1103 C 0.28642 0.42069 0.89115 0.0
C1104 C 0.30617 0.45131 0.07701 0.0
C1105 C 0.29934 0.44847 0.05211 0.0
C1106 C 0.28441 0.41628 0.00193 0.0
C1107 C 0.28528 0.43154 0.93382 0.0
C1108 C 0.28129 0.42855 0.96177 0.0
C1109 C 0.28764 0.43164 0.04364 0.0
C1110 C 0.28256 0.42867 0.0161 0.0
H1111 H 0.31101 0.46466 0.89364 0.0
H1112 H 0.30044 0.45944 0.93781 0.0
H1113 H 0.28672 0.4075 0.96449 0.0
H1114 H 0.28512 0.40967 0.09873 0.0
H1115 H 0.27342 0.40467 0.05477 0.0
C1116 C 0.87429 0.29491 0.89609 0.0
C1117 C 0.8643 0.30237 0.88897 0.0
C1118 C 0.87442 0.29003 0.92173 0.0
C1119 C 0.88306 0.29929 0.97912 0.0
H1120 H 0.84269 0.27697 0.02345 0.0
C1121 C 0.87855 0.32149 0.08038 0.0
C1122 C 0.87251 0.30935 0.10052 0.0
C1123 C 0.87848 0.31623 0.05501 0.0
C1124 C 0.85407 0.28288 0.01126 0.0
H1125 H 0.84572 0.30946 0.90239 0.0
H1126 H 0.84573 0.30068 0.94705 0.0
H1127 H 0.83919 0.27417 0.97635 0.0
H1128 H 0.86174 0.28228 0.11022 0.0
H1129 H 0.86089 0.27294 0.06521 0.0
H1130 H 0.89777 0.30925 0.01393 0.0
C1131 C 0.8535 0.29868 0.93291 0.0
C1132 C 0.85207 0.28135 0.98443 0.0
C1133 C 0.85363 0.30386 0.90745 0.0
C1134 C 0.8665 0.29186 0.09494 0.0
C1135 C 0.86602 0.28652 0.06936 0.0
C1136 C 0.88502 0.30106 0.00589 0.0
C1137 C 0.86425 0.29218 0.94041 0.0
C1138 C 0.8665 0.29008 0.96818 0.0
C1139 C 0.87204 0.29872 0.04929 0.0
C1140 C 0.87047 0.29339 0.02205 0.0
H1141 H 0.88262 0.2936 0.88215 0.0
H1142 H 0.88285 0.28509 0.92715 0.0
H1143 H 0.89436 0.30627 0.96697 0.0
H1144 H 0.88334 0.33506 0.08423 0.0
H1145 H 0.88297 0.3258 0.03971 0.0
C1146 C 0.56588 0.86309 0.0973 0.0
C1147 C 0.54909 0.8582 0.10569 0.0
C1148 C 0.56889 0.8607 0.07148 0.0
C1149 C 0.5468 0.83861 0.01065 0.0
H1150 H 0.58056 0.88118 0.97745 0.0
C1151 C 0.53748 0.85809 0.91025 0.0
C1152 C 0.55157 0.86667 0.8934 0.0
C1153 C 0.53986 0.85386 0.93523 0.0
C1154 C 0.57139 0.86904 0.98641 0.0
H1155 H 0.52221 0.84609 0.09419 0.0
H1156 H 0.52743 0.84199 0.04937 0.0
H1157 H 0.58002 0.87901 0.02448 0.0
H1158 H 0.57919 0.87724 0.88921 0.0
H1159 H 0.58343 0.87014 0.93343 0.0
H1160 H 0.53748 0.82906 0.97261 0.0
C1161 C 0.53828 0.84758 0.06259 0.0
C1162 C 0.57108 0.86779 0.01336 0.0
C1163 C 0.5353 0.85009 0.08823 0.0
C1164 C 0.5681 0.87067 0.90186 0.0
C1165 C 0.57053 0.86661 0.92708 0.0
C1166 C 0.54708 0.83988 0.98375 0.0
C1167 C 0.55514 0.85318 0.0538 0.0
C1168 C 0.55826 0.85285 0.02574 0.0
C1169 C 0.55642 0.85825 0.94401 0.0
C1170 C 0.55885 0.85539 0.97149 0.0
H1171 H 0.57675 0.8693 0.11042 0.0
H1172 H 0.582 0.86508 0.06521 0.0
H1173 H 0.537 0.82682 0.01971 0.0
H1174 H 0.52457 0.85475 0.90422 0.0
H1175 H 0.52879 0.84769 0.948 0.0
C1176 C 0.68235 0.53931 0.0781 0.0
C1177 C 0.68602 0.55272 0.09561 0.0
C1178 C 0.68975 0.543 0.05354 0.0
C1179 C 0.7112 0.55354 0.00483 0.0
H1180 H 0.70118 0.58531 0.96802 0.0
C1181 C 0.70165 0.5733 0.89414 0.0
C1182 C 0.69043 0.55637 0.88554 0.0
C1183 C 0.70811 0.57624 0.9194 0.0
C1184 C 0.70458 0.57678 0.97802 0.0
H1185 H 0.7009 0.58044 0.10166 0.0
H1186 H 0.71364 0.58691 0.05833 0.0
H1187 H 0.69997 0.58436 0.01502 0.0
H1188 H 0.67808 0.52924 0.89586 0.0
H1189 H 0.68918 0.53433 0.93972 0.0
H1190 H 0.71476 0.54521 0.96769 0.0
C1191 C 0.70506 0.57357 0.06373 0.0
C1192 C 0.70387 0.57622 0.00498 0.0
C1193 C 0.69777 0.56985 0.08846 0.0
C1194 C 0.68658 0.54244 0.90204 0.0
C1195 C 0.69313 0.54536 0.9271 0.0
C1196 C 0.71195 0.55412 0.97788 0.0
C1197 C 0.70089 0.56018 0.04591 0.0
C1198 C 0.70627 0.56396 0.01853 0.0
C1199 C 0.70361 0.56229 0.93627 0.0
C1200 C 0.70774 0.56509 0.9642 0.0
H1201 H 0.67344 0.52597 0.08315 0.0
H1202 H 0.68606 0.53242 0.04009 0.0
H1203 H 0.71343 0.5442 0.01488 0.0
H1204 H 0.70491 0.58427 0.88173 0.0
H1205 H 0.71622 0.58942 0.92597 0.0
C1206 C 0.13441 0.6797 0.91213 0.0
C1207 C 0.12514 0.68432 0.89519 0.0
C1208 C 0.13824 0.68643 0.93709 0.0
C1209 C 0.15049 0.70736 0.98614 0.0
H1210 H 0.10996 0.69873 0.02534 0.0
C1211 C 0.12489 0.70054 0.09873 0.0
C1212 C 0.13034 0.68909 0.10719 0.0
C1213 C 0.12753 0.70623 0.07305 0.0
C1214 C 0.12155 0.7017 0.01466 0.0
H1215 H 0.11308 0.70003 0.89069 0.0
H1216 H 0.11954 0.71161 0.9348 0.0
H1217 H 0.10865 0.69748 0.97827 0.0
H1218 H 0.14364 0.67539 0.09601 0.0
H1219 H 0.14817 0.68521 0.05142 0.0
H1220 H 0.16306 0.71058 0.02259 0.0
C1221 C 0.12388 0.70282 0.9286 0.0
C1222 C 0.12079 0.70097 0.98768 0.0
C1223 C 0.12018 0.6962 0.90343 0.0
C1224 C 0.1392 0.68412 0.08998 0.0
C1225 C 0.14196 0.68991 0.06449 0.0
C1226 C 0.15125 0.70811 0.01308 0.0
C1227 C 0.1328 0.69785 0.94572 0.0
C1228 C 0.13499 0.70296 0.97328 0.0
C1229 C 0.13585 0.70073 0.0556 0.0
C1230 C 0.13653 0.70444 0.0276 0.0
H1231 H 0.13849 0.67065 0.90626 0.0
H1232 H 0.14488 0.68213 0.94999 0.0
H1233 H 0.16172 0.70927 0.97542 0.0
H1234 H 0.11809 0.70464 0.11166 0.0
H1235 H 0.12273 0.7146 0.06669 0.0
C1236 C 0.85437 0.54173 0.57767 0.0
C1237 C 0.86372 0.55527 0.59516 0.0
C1238 C 0.8508 0.54518 0.55289 0.0
C1239 C 0.86895 0.5778 0.50343 0.0
H1240 H 0.82629 0.54646 0.46811 0.0
C1241 C 0.86525 0.57405 0.39243 0.0
C1242 C 0.85934 0.55707 0.38385 0.0
C1243 C 0.86257 0.57715 0.41807 0.0
C1244 C 0.83821 0.55545 0.47775 0.0
H1245 H 0.87629 0.58301 0.60074 0.0
H1246 H 0.87034 0.58909 0.5569 0.0
H1247 H 0.82758 0.54592 0.51526 0.0
H1248 H 0.84514 0.53002 0.39472 0.0
H1249 H 0.84055 0.53538 0.43923 0.0
H1250 H 0.87993 0.58653 0.4659 0.0
C1251 C 0.8657 0.57582 0.56258 0.0
C1252 C 0.83894 0.55514 0.50467 0.0
C1253 C 0.86912 0.57234 0.58758 0.0
C1254 C 0.84996 0.54324 0.40086 0.0
C1255 C 0.84715 0.54632 0.4263 0.0
C1256 C 0.86823 0.57809 0.47647 0.0
C1257 C 0.85661 0.56225 0.54497 0.0
C1258 C 0.85456 0.5657 0.51763 0.0
C1259 C 0.85374 0.5633 0.43534 0.0
C1260 C 0.8531 0.56629 0.46336 0.0
H1261 H 0.84995 0.52844 0.58303 0.0
H1262 H 0.84403 0.53449 0.53958 0.0
H1263 H 0.88116 0.58605 0.51294 0.0
H1264 H 0.87245 0.58494 0.37964 0.0
H1265 H 0.86774 0.59036 0.42455 0.0
C1266 C 0.30135 0.85476 0.58123 0.0
C1267 C 0.299 0.8645 0.60043 0.0
C1268 C 0.29652 0.85525 0.55575 0.0
C1269 C 0.2798 0.85486 0.50403 0.0
H1270 H 0.30603 0.90183 0.4782 0.0
C1271 C 0.28997 0.8727 0.39483 0.0
C1272 C 0.30762 0.88009 0.38902 0.0
C1273 C 0.28455 0.87122 0.42055 0.0
C1274 C 0.29833 0.8887 0.48522 0.0
H1275 H 0.28903 0.88172 0.60846 0.0
H1276 H 0.28109 0.883 0.56352 0.0
H1277 H 0.30278 0.89665 0.52483 0.0
H1278 H 0.33347 0.89242 0.40506 0.0
H1279 H 0.32401 0.8903 0.44988 0.0
H1280 H 0.27614 0.84692 0.46431 0.0
C1281 C 0.28646 0.87485 0.56836 0.0
C1282 C 0.29639 0.88574 0.51181 0.0
C1283 C 0.291 0.87411 0.59398 0.0
C1284 C 0.31979 0.8866 0.40909 0.0
C1285 C 0.3144 0.88551 0.43464 0.0
C1286 C 0.28148 0.85785 0.4774 0.0
C1287 C 0.28951 0.8657 0.54898 0.0
C1288 C 0.28775 0.86876 0.52141 0.0
C1289 C 0.29675 0.87758 0.44059 0.0
C1290 C 0.29138 0.87475 0.46789 0.0
H1291 H 0.30738 0.84717 0.58576 0.0
H1292 H 0.2992 0.84825 0.54108 0.0
H1293 H 0.27306 0.84167 0.51106 0.0
H1294 H 0.28037 0.86755 0.37961 0.0
H1295 H 0.27087 0.86497 0.42484 0.0
C1296 C 0.44128 0.30328 0.58912 0.0
C1297 C 0.42933 0.30263 0.6073 0.0
C1298 C 0.43631 0.29847 0.56353 0.0
C1299 C 0.42014 0.2822 0.51148 0.0
H1300 H 0.40608 0.31319 0.48203 0.0
C1301 C 0.41594 0.2932 0.40096 0.0
C1302 C 0.42844 0.31029 0.39482 0.0
C1303 C 0.41151 0.28828 0.42676 0.0
C1304 C 0.40962 0.30419 0.49006 0.0
H1305 H 0.40264 0.2957 0.6135 0.0
H1306 H 0.39409 0.28787 0.56825 0.0
H1307 H 0.40593 0.3098 0.52898 0.0
H1308 H 0.44573 0.33574 0.41046 0.0
H1309 H 0.4376 0.32724 0.45547 0.0
H1310 H 0.42462 0.27729 0.47244 0.0
C1311 C 0.4072 0.29184 0.57401 0.0
C1312 C 0.40945 0.30218 0.51681 0.0
C1313 C 0.4121 0.29632 0.5998 0.0
C1314 C 0.43613 0.32247 0.41472 0.0
C1315 C 0.4314 0.31766 0.44037 0.0
C1316 C 0.42 0.28397 0.48466 0.0
C1317 C 0.41938 0.29322 0.55562 0.0
C1318 C 0.41541 0.29174 0.52774 0.0
C1319 C 0.41918 0.30052 0.44656 0.0
C1320 C 0.41542 0.29554 0.47391 0.0
H1321 H 0.45461 0.30799 0.5945 0.0
H1322 H 0.44599 0.29985 0.54961 0.0
H1323 H 0.42479 0.27409 0.51956 0.0
H1324 H 0.40988 0.28358 0.38589 0.0
H1325 H 0.40213 0.27497 0.43128 0.0
C1326 C 0.1214 0.41828 0.58979 0.0
C1327 C 0.12606 0.43516 0.59742 0.0
C1328 C 0.12577 0.4152 0.56517 0.0
C1329 C 0.15307 0.43701 0.50787 0.0
H1330 H 0.11272 0.40488 0.46857 0.0
C1331 C 0.14059 0.44954 0.4053 0.0
C1332 C 0.13132 0.43584 0.38803 0.0
C1333 C 0.14408 0.44631 0.43027 0.0
C1334 C 0.12428 0.41354 0.47927 0.0
H1335 H 0.13968 0.46211 0.58594 0.0
H1336 H 0.14717 0.45677 0.54312 0.0
H1337 H 0.11131 0.40476 0.51555 0.0
H1338 H 0.11928 0.40811 0.38273 0.0
H1339 H 0.12519 0.40243 0.42679 0.0
H1340 H 0.16566 0.44654 0.47144 0.0
C1341 C 0.14028 0.44591 0.5561 0.0
C1342 C 0.12347 0.41348 0.50622 0.0
C1343 C 0.13579 0.44895 0.58052 0.0
C1344 C 0.12635 0.41891 0.39575 0.0
C1345 C 0.12973 0.41565 0.4209 0.0
C1346 C 0.15389 0.43706 0.48093 0.0
C1347 C 0.13505 0.42898 0.54798 0.0
C1348 C 0.13755 0.42584 0.52066 0.0
C1349 C 0.1383 0.42931 0.43856 0.0
C1350 C 0.1392 0.42596 0.46637 0.0
H1351 H 0.11397 0.4074 0.60253 0.0
H1352 H 0.1216 0.40204 0.55938 0.0
H1353 H 0.16422 0.44645 0.51862 0.0
H1354 H 0.14471 0.46274 0.3998 0.0
H1355 H 0.15047 0.4571 0.44353 0.0
C1356 C 0.69696 0.12481 0.39028 0.0
C1357 C 0.68478 0.12932 0.38196 0.0
C1358 C 0.70316 0.12824 0.41569 0.0
C1359 C 0.70539 0.1531 0.47442 0.0
H1360 H 0.6971 0.11198 0.51164 0.0
C1361 C 0.67898 0.13817 0.57652 0.0
C1362 C 0.68408 0.12943 0.59375 0.0
C1363 C 0.68544 0.14173 0.5514 0.0
C1364 C 0.69996 0.12374 0.50154 0.0
H1365 H 0.6702 0.14172 0.39312 0.0
H1366 H 0.68092 0.14765 0.43724 0.0
H1367 H 0.69728 0.11196 0.46452 0.0
H1368 H 0.70046 0.11815 0.59861 0.0
H1369 H 0.71159 0.12414 0.55425 0.0
H1370 H 0.707 0.16451 0.51146 0.0
C1371 C 0.6858 0.14156 0.42424 0.0
C1372 C 0.70007 0.12373 0.47454 0.0
C1373 C 0.67949 0.13798 0.39905 0.0
C1374 C 0.69625 0.12484 0.58566 0.0
C1375 C 0.70261 0.12826 0.56034 0.0
C1376 C 0.70529 0.15312 0.50139 0.0
C1377 C 0.69745 0.13646 0.43298 0.0
C1378 C 0.70192 0.13811 0.46077 0.0
C1379 C 0.69707 0.13653 0.54289 0.0
C1380 C 0.70171 0.13814 0.51516 0.0
H1381 H 0.7013 0.11817 0.37743 0.0
H1382 H 0.71214 0.12418 0.42196 0.0
H1383 H 0.70717 0.16447 0.46423 0.0
H1384 H 0.6697 0.14197 0.58227 0.0
H1385 H 0.6807 0.14786 0.53828 0.0
C1386 C 0.57188 0.69685 0.39655 0.0
C1387 C 0.56003 0.67939 0.39134 0.0
C1388 C 0.57713 0.70233 0.42196 0.0
C1389 C 0.58107 0.6877 0.48602 0.0
H1390 H 0.56526 0.71766 0.51408 0.0
C1391 C 0.54824 0.6889 0.58374 0.0
C1392 C 0.55996 0.68963 0.60241 0.0
C1393 C 0.55354 0.69365 0.55825 0.0
C1394 C 0.5701 0.70961 0.50641 0.0
H1395 H 0.54495 0.65387 0.40815 0.0
H1396 H 0.55447 0.66338 0.45239 0.0
H1397 H 0.56548 0.7139 0.46716 0.0
H1398 H 0.58657 0.69664 0.60956 0.0
H1399 H 0.59572 0.70438 0.56447 0.0
H1400 H 0.58477 0.68263 0.52523 0.0
C1401 C 0.55956 0.67281 0.43692 0.0
C1402 C 0.57029 0.70752 0.47966 0.0
C1403 C 0.55401 0.66741 0.4117 0.0
C1404 C 0.57729 0.69597 0.59547 0.0
C1405 C 0.58253 0.70039 0.56978 0.0
C1406 C 0.58115 0.69002 0.51271 0.0
C1407 C 0.57096 0.69032 0.44228 0.0
C1408 C 0.57502 0.69593 0.46942 0.0
C1409 C 0.57059 0.69894 0.5509 0.0
C1410 C 0.57491 0.70036 0.52313 0.0
H1411 H 0.57666 0.70632 0.38111 0.0
H1412 H 0.58585 0.71591 0.42579 0.0
H1413 H 0.58477 0.67872 0.47843 0.0
H1414 H 0.53483 0.68417 0.58868 0.0
H1415 H 0.54404 0.6922 0.54398 0.0
C1416 C 0.49561 0.11371 0.21464 0.0
C1417 C 0.49446 0.1126 0.18752 0.0
C1418 C 0.50929 0.11357 0.22746 0.0
C1419 C 0.55378 0.12354 0.21929 0.0
H1420 H 0.54388 0.09111 0.27541 0.0
C1421 C 0.60678 0.11315 0.26481 0.0
C1422 C 0.60579 0.10965 0.29144 0.0
C1423 C 0.5933 0.11379 0.25221 0.0
C1424 C 0.54693 0.10047 0.26009 0.0
H1425 H 0.50689 0.11076 0.15255 0.0
H1426 H 0.53097 0.11085 0.17503 0.0
H1427 H 0.52021 0.09204 0.25357 0.0
H1428 H 0.59011 0.10452 0.32588 0.0
H1429 H 0.56691 0.10627 0.30418 0.0
H1430 H 0.58048 0.13233 0.22608 0.0
C1431 C 0.5212 0.11172 0.18628 0.0
C1432 C 0.53335 0.10091 0.24753 0.0
C1433 C 0.50738 0.11157 0.17347 0.0
C1434 C 0.59118 0.10708 0.30528 0.0
C1435 C 0.57781 0.10797 0.29277 0.0
C1436 C 0.5674 0.12328 0.23209 0.0
C1437 C 0.52222 0.11262 0.21338 0.0
C1438 C 0.53665 0.11239 0.22695 0.0
C1439 C 0.57862 0.1112 0.26602 0.0
C1440 C 0.56415 0.11168 0.25259 0.0
H1441 H 0.48584 0.11448 0.226 0.0
H1442 H 0.50986 0.11438 0.24838 0.0
H1443 H 0.55664 0.13263 0.20362 0.0
H1444 H 0.61784 0.11507 0.25358 0.0
H1445 H 0.59427 0.11601 0.23153 0.0
C1446 C 0.48218 0.61081 0.28177 0.0
C1447 C 0.49023 0.60611 0.30089 0.0
C1448 C 0.46737 0.59823 0.26918 0.0
C1449 C 0.44422 0.56852 0.23383 0.0
H1450 H 0.4094 0.52778 0.26965 0.0
C1451 C 0.39563 0.50704 0.17954 0.0
C1452 C 0.37863 0.49762 0.18894 0.0
C1453 C 0.40832 0.52097 0.19353 0.0
C1454 C 0.41888 0.53917 0.25939 0.0
H1455 H 0.48882 0.58448 0.32213 0.0
H1456 H 0.46324 0.56256 0.29987 0.0
H1457 H 0.43271 0.55101 0.29419 0.0
H1458 H 0.36159 0.49564 0.2203 0.0
H1459 H 0.38373 0.52013 0.24456 0.0
H1460 H 0.4303 0.55679 0.19908 0.0
C1461 C 0.46818 0.57599 0.29487 0.0
C1462 C 0.43236 0.5524 0.27342 0.0
C1463 C 0.48293 0.58857 0.30753 0.0
C1464 C 0.37458 0.50257 0.21256 0.0
C1465 C 0.38728 0.51655 0.22653 0.0
C1466 C 0.43071 0.55533 0.21982 0.0
C1467 C 0.46033 0.58064 0.27535 0.0
C1468 C 0.44532 0.56712 0.26077 0.0
C1469 C 0.40432 0.52587 0.21723 0.0
C1470 C 0.41802 0.54039 0.23237 0.0
H1471 H 0.48739 0.62422 0.27632 0.0
H1472 H 0.46149 0.60227 0.25453 0.0
H1473 H 0.45405 0.5796 0.22341 0.0
H1474 H 0.39923 0.50355 0.16147 0.0
H1475 H 0.42138 0.52767 0.18601 0.0
C1476 C 0.87341 0.48045 0.30789 0.0
C1477 C 0.87419 0.49423 0.29374 0.0
C1478 C 0.87247 0.46623 0.2952 0.0
C1479 C 0.86427 0.44464 0.2308 0.0
H1480 H 0.88941 0.42413 0.2614 0.0
C1481 C 0.8822 0.39865 0.17731 0.0
C1482 C 0.87854 0.38347 0.19062 0.0
C1483 C 0.88021 0.41148 0.18955 0.0
C1484 C 0.88222 0.42965 0.25278 0.0
H1485 H 0.87443 0.50388 0.2552 0.0
H1486 H 0.87352 0.47939 0.23293 0.0
H1487 H 0.88894 0.448 0.28326 0.0
H1488 H 0.86974 0.36975 0.22708 0.0
H1489 H 0.86665 0.3924 0.24861 0.0
H1490 H 0.85824 0.42658 0.19972 0.0
C1491 C 0.87313 0.47929 0.25387 0.0
C1492 C 0.88185 0.44327 0.26534 0.0
C1493 C 0.87376 0.49339 0.26661 0.0
C1494 C 0.87265 0.38129 0.21631 0.0
C1495 C 0.87094 0.39425 0.22867 0.0
C1496 C 0.8649 0.43118 0.21802 0.0
C1497 C 0.87263 0.46558 0.26801 0.0
C1498 C 0.87282 0.45093 0.25458 0.0
C1499 C 0.87479 0.40948 0.21544 0.0
C1500 C 0.87384 0.42355 0.22896 0.0
H1501 H 0.8735 0.48064 0.32885 0.0
H1502 H 0.87164 0.45575 0.30678 0.0
H1503 H 0.85697 0.45 0.22211 0.0
H1504 H 0.88669 0.40065 0.15746 0.0
H1505 H 0.88335 0.42317 0.17903 0.0
C1506 C 0.48425 0.87001 0.21914 0.0
C1507 C 0.49029 0.87879 0.19551 0.0
C1508 C 0.47024 0.86963 0.23175 0.0
C1509 C 0.43314 0.87644 0.22079 0.0
H1510 H 0.43551 0.88342 0.29505 0.0
C1511 C 0.39866 0.8973 0.30442 0.0
C1512 C 0.38123 0.88706 0.29728 0.0
C1513 C 0.41137 0.89492 0.29265 0.0
C1514 C 0.43469 0.88153 0.27429 0.0
H1515 H 0.48627 0.89402 0.16656 0.0
H1516 H 0.46207 0.89359 0.1887 0.0
H1517 H 0.45885 0.88206 0.27287 0.0
H1518 H 0.36347 0.86603 0.27248 0.0
H1519 H 0.38564 0.86175 0.25219 0.0
H1520 H 0.4093 0.87654 0.22206 0.0
C1521 C 0.46796 0.88674 0.19731 0.0
C1522 C 0.44797 0.88054 0.26162 0.0
C1523 C 0.48193 0.88708 0.18469 0.0
C1524 C 0.37678 0.87422 0.27834 0.0
C1525 C 0.3895 0.87181 0.26661 0.0
C1526 C 0.41989 0.87747 0.23345 0.0
C1527 C 0.46198 0.87806 0.22102 0.0
C1528 C 0.44743 0.87816 0.23469 0.0
C1529 C 0.40695 0.88221 0.27351 0.0
C1530 C 0.42059 0.8802 0.26031 0.0
H1531 H 0.49035 0.86342 0.22796 0.0
H1532 H 0.46581 0.86266 0.24984 0.0
H1533 H 0.43223 0.87437 0.20007 0.0
H1534 H 0.40255 0.90734 0.31889 0.0
H1535 H 0.42471 0.90332 0.29815 0.0
C1536 C 0.59191 0.47595 0.17035 0.0
C1537 C 0.60568 0.48937 0.18397 0.0
C1538 C 0.57888 0.46177 0.18353 0.0
C1539 C 0.56815 0.43957 0.24763 0.0
H1540 H 0.5211 0.4201 0.22289 0.0
C1541 C 0.50748 0.39602 0.30882 0.0
C1542 C 0.49457 0.38094 0.29685 0.0
C1543 C 0.52167 0.40821 0.29464 0.0
C1544 C 0.53421 0.42531 0.22985 0.0
H1545 H 0.61657 0.49847 0.22209 0.0
H1546 H 0.59355 0.47413 0.24516 0.0
H1547 H 0.54459 0.44356 0.19896 0.0
H1548 H 0.48648 0.36673 0.2607 0.0
H1549 H 0.51115 0.38829 0.23581 0.0
H1550 H 0.55748 0.42168 0.27916 0.0
C1551 C 0.59302 0.47423 0.22424 0.0
C1552 C 0.5477 0.43871 0.2161 0.0
C1553 C 0.60618 0.48828 0.21103 0.0
C1554 C 0.49624 0.37821 0.27048 0.0
C1555 C 0.51029 0.39055 0.2562 0.0
C1556 C 0.5546 0.42635 0.26158 0.0
C1557 C 0.57915 0.46079 0.21068 0.0
C1558 C 0.56486 0.44608 0.22486 0.0
C1559 C 0.52307 0.40569 0.26815 0.0
C1560 C 0.53752 0.41915 0.25285 0.0
H1561 H 0.59125 0.47635 0.14946 0.0
H1562 H 0.56862 0.45153 0.17236 0.0
H1563 H 0.58119 0.44466 0.25471 0.0
H1564 H 0.5066 0.39846 0.32913 0.0
H1565 H 0.53131 0.41985 0.30424 0.0
C1566 C 0.11198 0.5966 0.18349 0.0
C1567 C 0.11316 0.61067 0.19735 0.0
C1568 C 0.11262 0.58321 0.19634 0.0
C1569 C 0.12441 0.57153 0.25912 0.0
H1570 H 0.09479 0.52484 0.23409 0.0
C1571 C 0.10992 0.50995 0.31631 0.0
C1572 C 0.1114 0.49726 0.30231 0.0
C1573 C 0.11089 0.52422 0.30363 0.0
C1574 C 0.10322 0.53783 0.24115 0.0
H1575 H 0.11604 0.6218 0.23557 0.0
H1576 H 0.11658 0.59815 0.25815 0.0
H1577 H 0.09494 0.54894 0.21193 0.0
H1578 H 0.11508 0.48959 0.26407 0.0
H1579 H 0.11648 0.51439 0.24193 0.0
H1580 H 0.13223 0.56016 0.28886 0.0
C1581 C 0.11559 0.59763 0.23726 0.0
C1582 C 0.10339 0.55167 0.22841 0.0
C1583 C 0.11519 0.61116 0.22434 0.0
C1584 C 0.11391 0.49915 0.2754 0.0
C1585 C 0.11463 0.51328 0.2627 0.0
C1586 C 0.12406 0.55764 0.27207 0.0
C1587 C 0.1142 0.58343 0.22342 0.0
C1588 C 0.11404 0.56872 0.23714 0.0
C1589 C 0.11311 0.52593 0.2767 0.0
C1590 C 0.11351 0.54068 0.26312 0.0
H1591 H 0.1106 0.59594 0.16263 0.0
H1592 H 0.11192 0.5727 0.18497 0.0
H1593 H 0.13297 0.58449 0.26617 0.0
H1594 H 0.10804 0.50889 0.33707 0.0
H1595 H 0.10957 0.53375 0.31481 0.0
C1596 C 0.47933 0.88501 0.81072 0.0
C1597 C 0.49192 0.88287 0.79771 0.0
C1598 C 0.46492 0.88323 0.79749 0.0
C1599 C 0.44022 0.86653 0.73599 0.0
H1600 H 0.42196 0.89619 0.75561 0.0
C1601 C 0.3916 0.87698 0.67506 0.0
C1602 C 0.37721 0.87528 0.68865 0.0
C1603 C 0.40513 0.87677 0.68827 0.0
C1604 C 0.42688 0.88775 0.75008 0.0
H1605 H 0.49939 0.87731 0.76062 0.0
H1606 H 0.47466 0.87493 0.73725 0.0
H1607 H 0.44677 0.89845 0.7786 0.0
H1608 H 0.36562 0.87183 0.72668 0.0
H1609 H 0.38947 0.87186 0.74972 0.0
H1610 H 0.42057 0.85639 0.70673 0.0
C1611 C 0.47557 0.87743 0.75785 0.0
C1612 C 0.44103 0.88896 0.76332 0.0
C1613 C 0.48982 0.87891 0.7712 0.0
C1614 C 0.37651 0.87313 0.71565 0.0
C1615 C 0.39017 0.87323 0.72887 0.0
C1616 C 0.42623 0.86556 0.72245 0.0
C1617 C 0.46292 0.87959 0.77081 0.0
C1618 C 0.44785 0.8783 0.75655 0.0
C1619 C 0.40462 0.87515 0.71531 0.0
C1620 C 0.41941 0.8761 0.72949 0.0
H1621 H 0.48051 0.88788 0.83122 0.0
H1622 H 0.4553 0.88459 0.80829 0.0
H1623 H 0.44489 0.85791 0.73049 0.0
H1624 H 0.39247 0.8786 0.65425 0.0
H1625 H 0.4162 0.87835 0.67744 0.0
C1626 C 0.60401 0.47703 0.80995 0.0
C1627 C 0.6113 0.4934 0.79853 0.0
C1628 C 0.59137 0.46251 0.79687 0.0
C1629 C 0.56985 0.44825 0.73185 0.0
H1630 H 0.53587 0.40983 0.77241 0.0
C1631 C 0.51497 0.38821 0.68182 0.0
C1632 C 0.49913 0.37912 0.69475 0.0
C1633 C 0.52944 0.40117 0.6946 0.0
C1634 C 0.54501 0.42053 0.76065 0.0
H1635 H 0.61111 0.50777 0.76503 0.0
H1636 H 0.58809 0.48285 0.74303 0.0
H1637 H 0.55868 0.43455 0.79411 0.0
H1638 H 0.48567 0.37643 0.73074 0.0
H1639 H 0.51033 0.39984 0.75246 0.0
H1640 H 0.55522 0.43499 0.69855 0.0
C1641 C 0.59261 0.48078 0.76134 0.0
C1642 C 0.55848 0.43468 0.77319 0.0
C1643 C 0.6057 0.49516 0.77403 0.0
C1644 C 0.49787 0.38319 0.72053 0.0
C1645 C 0.51213 0.39655 0.73302 0.0
C1646 C 0.55602 0.43438 0.71936 0.0
C1647 C 0.58527 0.46418 0.77249 0.0
C1648 C 0.57112 0.44881 0.75902 0.0
C1649 C 0.52819 0.40575 0.7203 0.0
C1650 C 0.54333 0.4203 0.73356 0.0
H1651 H 0.60833 0.47542 0.82878 0.0
H1652 H 0.58652 0.45002 0.80594 0.0
H1653 H 0.57947 0.45856 0.72001 0.0
H1654 H 0.51621 0.38513 0.66195 0.0
H1655 H 0.54156 0.40751 0.68422 0.0
C1656 C 0.10695 0.59219 0.81383 0.0
C1657 C 0.10915 0.60714 0.80138 0.0
C1658 C 0.10827 0.57951 0.79988 0.0
C1659 C 0.10231 0.56132 0.73542 0.0
H1660 H 0.13032 0.54217 0.75939 0.0
C1661 C 0.1095 0.51135 0.67473 0.0
C1662 C 0.10986 0.49781 0.68796 0.0
C1663 C 0.11069 0.52542 0.68828 0.0
C1664 C 0.12225 0.5472 0.75258 0.0
H1665 H 0.11454 0.62057 0.76458 0.0
H1666 H 0.11651 0.59821 0.74018 0.0
H1667 H 0.1298 0.56522 0.784 0.0
H1668 H 0.1118 0.48841 0.72576 0.0
H1669 H 0.11322 0.5126 0.74951 0.0
H1670 H 0.0942 0.54302 0.70459 0.0
C1671 C 0.11385 0.5964 0.76074 0.0
C1672 C 0.12203 0.56045 0.76663 0.0
C1673 C 0.1128 0.6092 0.77474 0.0
C1674 C 0.11159 0.4987 0.715 0.0
C1675 C 0.11251 0.51265 0.7286 0.0
C1676 C 0.10232 0.54792 0.72158 0.0
C1677 C 0.11155 0.58143 0.77317 0.0
C1678 C 0.11206 0.56762 0.75815 0.0
C1679 C 0.11198 0.52615 0.71543 0.0
C1680 C 0.11229 0.54067 0.72996 0.0
H1681 H 0.10418 0.59026 0.83435 0.0
H1682 H 0.10633 0.56801 0.80984 0.0
H1683 H 0.09434 0.5665 0.72868 0.0
H1684 H 0.10836 0.51112 0.65385 0.0
H1685 H 0.11061 0.53574 0.67741 0.0
C1686 C 0.60591 0.11222 0.71218 0.0
C1687 C 0.60498 0.10979 0.68527 0.0
C1688 C 0.59247 0.1125 0.72553 0.0
C1689 C 0.54622 0.09977 0.71851 0.0
H1690 H 0.55571 0.12873 0.77915 0.0
C1691 C 0.4947 0.11017 0.76982 0.0
C1692 C 0.49322 0.10703 0.7966 0.0
C1693 C 0.50856 0.11107 0.75603 0.0
C1694 C 0.55292 0.12055 0.76228 0.0
H1695 H 0.58951 0.10625 0.6511 0.0
H1696 H 0.5664 0.10744 0.67416 0.0
H1697 H 0.57964 0.12975 0.75497 0.0
H1698 H 0.50526 0.10272 0.83002 0.0
H1699 H 0.5297 0.10468 0.80588 0.0
H1700 H 0.51948 0.09097 0.72561 0.0
C1701 C 0.5772 0.10855 0.68517 0.0
C1702 C 0.56659 0.12103 0.74849 0.0
C1703 C 0.59051 0.10798 0.67189 0.0
C1704 C 0.50602 0.10509 0.80938 0.0
C1705 C 0.52004 0.1063 0.79564 0.0
C1706 C 0.5326 0.09951 0.73206 0.0
C1707 C 0.57791 0.11064 0.71222 0.0
C1708 C 0.56342 0.11055 0.72651 0.0
C1709 C 0.52133 0.10915 0.76883 0.0
C1710 C 0.53583 0.10981 0.75415 0.0
H1711 H 0.61685 0.11352 0.72306 0.0
H1712 H 0.59338 0.11382 0.74638 0.0
H1713 H 0.54321 0.09125 0.70204 0.0
H1714 H 0.48502 0.11167 0.75943 0.0
H1715 H 0.50935 0.11337 0.73536 0.0
C1716 C 0.38252 0.51687 0.80316 0.0
C1717 C 0.37547 0.50031 0.79249 0.0
C1718 C 0.39517 0.53119 0.78976 0.0
C1719 C 0.41755 0.54447 0.72515 0.0
H1720 H 0.45098 0.58347 0.76537 0.0
C1721 C 0.47335 0.60383 0.67498 0.0
C1722 C 0.48895 0.61311 0.68843 0.0
C1723 C 0.45867 0.59099 0.68754 0.0
C1724 C 0.442 0.5726 0.75372 0.0
H1725 H 0.37604 0.48541 0.75995 0.0
H1726 H 0.3991 0.51004 0.73744 0.0
H1727 H 0.42781 0.55911 0.78717 0.0
H1728 H 0.50179 0.6162 0.72512 0.0
H1729 H 0.47679 0.59301 0.74653 0.0
H1730 H 0.43271 0.55722 0.69196 0.0
C1731 C 0.39438 0.51238 0.75538 0.0
C1732 C 0.42832 0.55866 0.7663 0.0
C1733 C 0.38127 0.49817 0.76836 0.0
C1734 C 0.48978 0.60931 0.71449 0.0
C1735 C 0.47532 0.59608 0.7268 0.0
C1736 C 0.43159 0.55813 0.71266 0.0
C1737 C 0.40154 0.52916 0.76584 0.0
C1738 C 0.41587 0.54433 0.75225 0.0
C1739 C 0.45948 0.58673 0.71358 0.0
C1740 C 0.44409 0.57241 0.72676 0.0
H1741 H 0.37803 0.51876 0.82169 0.0
H1742 H 0.39986 0.54383 0.79826 0.0
H1743 H 0.4081 0.53398 0.71339 0.0
H1744 H 0.47244 0.60669 0.65487 0.0
H1745 H 0.44672 0.58451 0.67674 0.0
C1746 C 0.87074 0.39207 0.81424 0.0
C1747 C 0.87053 0.37846 0.80035 0.0
C1748 C 0.86928 0.40501 0.80136 0.0
C1749 C 0.85786 0.41621 0.73756 0.0
H1750 H 0.88593 0.46307 0.76294 0.0
C1751 C 0.87578 0.47772 0.67775 0.0
C1752 C 0.87368 0.49055 0.69017 0.0
C1753 C 0.87361 0.46331 0.69148 0.0
C1754 C 0.8779 0.45002 0.75581 0.0
H1755 H 0.86845 0.36761 0.76211 0.0
H1756 H 0.86659 0.39049 0.73951 0.0
H1757 H 0.88557 0.43929 0.7864 0.0
H1758 H 0.86751 0.49825 0.72663 0.0
H1759 H 0.86411 0.47321 0.75071 0.0
H1760 H 0.85088 0.42727 0.70628 0.0
C1761 C 0.86737 0.39098 0.76042 0.0
C1762 C 0.8776 0.43635 0.7693 0.0
C1763 C 0.86855 0.37789 0.77336 0.0
C1764 C 0.86919 0.48858 0.71651 0.0
C1765 C 0.86731 0.47431 0.73033 0.0
C1766 C 0.8584 0.42995 0.72385 0.0
C1767 C 0.86788 0.4048 0.77423 0.0
C1768 C 0.86761 0.41926 0.76032 0.0
C1769 C 0.86958 0.4616 0.71795 0.0
C1770 C 0.86845 0.44696 0.73284 0.0
H1771 H 0.87207 0.39275 0.8351 0.0
H1772 H 0.86931 0.41521 0.81271 0.0
H1773 H 0.84977 0.40322 0.73031 0.0
H1774 H 0.87917 0.47884 0.65744 0.0
H1775 H 0.87554 0.45372 0.68157 0.0
loop_
_geom_bond_atom_site_label_1
_geom_bond_atom_site_label_2
_geom_bond_distance
_geom_bond_site_symmetry_2
_ccdc_geom_bond_type
C0 O1 1.306 . S
C0 O3 1.160 . S
O1 C0 1.306 . S
O1 Cd2 2.228 . S
Cd2 O1 2.228 . S
Cd2 O6 2.273 . S
Cd2 O10 2.277 . S
O3 C0 1.160 . S
O3 Cd4 2.203 . S
Cd4 O3 2.203 . S
Cd4 O6 2.411 . S
Cd4 O7 2.333 . S
Cd4 O8 2.352 . S
Cd4 O12 2.277 . S
Cd4 O13 2.356 . S
C5 O10 1.209 . S
C5 O12 1.226 . S
O6 Cd2 2.273 . S
O6 Cd4 2.411 . S
O6 C9 1.320 . S
O7 Cd4 2.333 . S
O7 C9 1.214 . S
O8 Cd4 2.352 . S
O8 C11 1.258 . S
C9 O6 1.320 . S
C9 O7 1.214 . S
O10 Cd2 2.277 . S
O10 C5 1.209 . S
C11 O8 1.258 . S
C11 O13 1.282 . S
O12 Cd4 2.277 . S
O12 C5 1.226 . S
O13 Cd4 2.356 . S
O13 C11 1.282 . S
C14 O15 1.306 . S
C14 O17 1.160 . S
O15 C14 1.306 . S
O15 Cd16 2.228 . S
Cd16 O15 2.228 . S
Cd16 O20 2.273 . S
Cd16 O24 2.277 . S
O17 C14 1.160 . S
O17 Cd18 2.203 . S
Cd18 O17 2.203 . S
Cd18 O20 2.411 . S
Cd18 O21 2.333 . S
Cd18 O22 2.352 . S
Cd18 O26 2.277 . S
Cd18 O27 2.356 . S
C19 O24 1.209 . S
C19 O26 1.226 . S
O20 Cd16 2.273 . S
O20 Cd18 2.411 . S
O20 C23 1.320 . S
O21 Cd18 2.333 . S
O21 C23 1.214 . S
O22 Cd18 2.352 . S
O22 C25 1.258 . S
C23 O20 1.320 . S
C23 O21 1.214 . S
O24 Cd16 2.277 . S
O24 C19 1.209 . S
C25 O22 1.258 . S
C25 O27 1.282 . S
O26 Cd18 2.277 . S
O26 C19 1.226 . S
O27 Cd18 2.356 . S
O27 C25 1.282 . S
C28 O29 1.306 . S
C28 O31 1.160 . S
O29 C28 1.306 . S
O29 Cd30 2.228 . S
Cd30 O29 2.228 . S
Cd30 O34 2.273 . S
Cd30 O38 2.277 . S
O31 C28 1.160 . S
O31 Cd32 2.203 . S
Cd32 O31 2.203 . S
Cd32 O34 2.411 . S
Cd32 O35 2.333 . S
Cd32 O36 2.352 . S
Cd32 O40 2.277 . S
Cd32 O41 2.356 . S
C33 O38 1.209 . S
C33 O40 1.226 . S
O34 Cd30 2.273 . S
O34 Cd32 2.411 . S
O34 C37 1.320 . S
O35 Cd32 2.333 . S
O35 C37 1.214 . S
O36 Cd32 2.352 . S
O36 C39 1.258 . S
C37 O34 1.320 . S
C37 O35 1.214 . S
O38 Cd30 2.277 . S
O38 C33 1.209 . S
C39 O36 1.258 . S
C39 O41 1.282 . S
O40 Cd32 2.277 . S
O40 C33 1.226 . S
O41 Cd32 2.356 . S
O41 C39 1.282 . S
C42 O43 1.306 . S
C42 O45 1.160 . S
O43 C42 1.306 . S
O43 Cd44 2.228 . S
Cd44 O43 2.228 . S
Cd44 O48 2.273 . S
Cd44 O52 2.277 . S
O45 C42 1.160 . S
O45 Cd46 2.203 . S
Cd46 O45 2.203 . S
Cd46 O48 2.411 . S
Cd46 O49 2.333 . S
Cd46 O50 2.352 . S
Cd46 O54 2.277 . S
Cd46 O55 2.356 . S
C47 O52 1.209 . S
C47 O54 1.226 . S
O48 Cd44 2.273 . S
O48 Cd46 2.411 . S
O48 C51 1.320 . S
O49 Cd46 2.333 . S
O49 C51 1.214 . S
O50 Cd46 2.352 . S
O50 C53 1.258 . S
C51 O48 1.320 . S
C51 O49 1.214 . S
O52 Cd44 2.277 . S
O52 C47 1.209 . S
C53 O50 1.258 . S
C53 O55 1.282 . S
O54 Cd46 2.277 . S
O54 C47 1.226 . S
O55 Cd46 2.356 . S
O55 C53 1.282 . S
C56 O57 1.306 . S
C56 O59 1.160 . S
O57 C56 1.306 . S
O57 Cd58 2.228 . S
Cd58 O57 2.228 . S
Cd58 O62 2.273 . S
Cd58 O66 2.277 . S
O59 C56 1.160 . S
O59 Cd60 2.203 . S
Cd60 O59 2.203 . S
Cd60 O62 2.411 . S
Cd60 O63 2.333 . S
Cd60 O64 2.352 . S
Cd60 O68 2.277 . S
Cd60 O69 2.356 . S
C61 O66 1.209 . S
C61 O68 1.226 . S
O62 Cd58 2.273 . S
O62 Cd60 2.411 . S
O62 C65 1.320 . S
O63 Cd60 2.333 . S
O63 C65 1.214 . S
O64 Cd60 2.352 . S
O64 C67 1.258 . S
C65 O62 1.320 . S
C65 O63 1.214 . S
O66 Cd58 2.277 . S
O66 C61 1.209 . S
C67 O64 1.258 . S
C67 O69 1.282 . S
O68 Cd60 2.277 . S
O68 C61 1.226 . S
O69 Cd60 2.356 . S
O69 C67 1.282 . S
C70 O71 1.306 . S
C70 O73 1.160 . S
O71 C70 1.306 . S
O71 Cd72 2.228 . S
Cd72 O71 2.228 . S
Cd72 O76 2.273 . S
Cd72 O80 2.277 . S
O73 C70 1.160 . S
O73 Cd74 2.203 . S
Cd74 O73 2.203 . S
Cd74 O76 2.411 . S
Cd74 O77 2.333 . S
Cd74 O78 2.352 . S
Cd74 O82 2.277 . S
Cd74 O83 2.356 . S
C75 O80 1.209 . S
C75 O82 1.226 . S
O76 Cd72 2.273 . S
O76 Cd74 2.411 . S
O76 C79 1.320 . S
O77 Cd74 2.333 . S
O77 C79 1.214 . S
O78 Cd74 2.352 . S
O78 C81 1.258 . S
C79 O76 1.320 . S
C79 O77 1.214 . S
O80 Cd72 2.277 . S
O80 C75 1.209 . S
C81 O78 1.258 . S
C81 O83 1.282 . S
O82 Cd74 2.277 . S
O82 C75 1.226 . S
O83 Cd74 2.356 . S
O83 C81 1.282 . S
C84 O85 1.306 . S
C84 O87 1.160 . S
O85 C84 1.306 . S
O85 Cd86 2.228 . S
Cd86 O85 2.228 . S
Cd86 O90 2.273 . S
Cd86 O94 2.277 . S
O87 C84 1.160 . S
O87 Cd88 2.203 . S
Cd88 O87 2.203 . S
Cd88 O90 2.411 . S
Cd88 O91 2.333 . S
Cd88 O92 2.352 . S
Cd88 O96 2.277 . S
Cd88 O97 2.356 . S
C89 O94 1.209 . S
C89 O96 1.226 . S
O90 Cd86 2.273 . S
O90 Cd88 2.411 . S
O90 C93 1.320 . S
O91 Cd88 2.333 . S
O91 C93 1.214 . S
O92 Cd88 2.352 . S
O92 C95 1.258 . S
C93 O90 1.320 . S
C93 O91 1.214 . S
O94 Cd86 2.277 . S
O94 C89 1.209 . S
C95 O92 1.258 . S
C95 O97 1.282 . S
O96 Cd88 2.277 . S
O96 C89 1.226 . S
O97 Cd88 2.356 . S
O97 C95 1.282 . S
C98 O99 1.306 . S
C98 O101 1.160 . S
O99 C98 1.306 . S
O99 Cd100 2.228 . S
Cd100 O99 2.228 . S
Cd100 O104 2.273 . S
Cd100 O108 2.277 . S
O101 C98 1.160 . S
O101 Cd102 2.203 . S
Cd102 O101 2.203 . S
Cd102 O104 2.411 . S
Cd102 O105 2.333 . S
Cd102 O106 2.352 . S
Cd102 O110 2.277 . S
Cd102 O111 2.356 . S
C103 O108 1.209 . S
C103 O110 1.226 . S
O104 Cd100 2.273 . S
O104 Cd102 2.411 . S
O104 C107 1.320 . S
O105 Cd102 2.333 . S
O105 C107 1.214 . S
O106 Cd102 2.352 . S
O106 C109 1.258 . S
C107 O104 1.320 . S
C107 O105 1.214 . S
O108 Cd100 2.277 . S
O108 C103 1.209 . S
C109 O106 1.258 . S
C109 O111 1.282 . S
O110 Cd102 2.277 . S
O110 C103 1.226 . S
O111 Cd102 2.356 . S
O111 C109 1.282 . S
C112 O113 1.306 . S
C112 O115 1.160 . S
O113 C112 1.306 . S
O113 Cd114 2.228 . S
Cd114 O113 2.228 . S
Cd114 O118 2.273 . S
Cd114 O122 2.277 . S
O115 C112 1.160 . S
O115 Cd116 2.203 . S
Cd116 O115 2.203 . S
Cd116 O118 2.411 . S
Cd116 O119 2.333 . S
Cd116 O120 2.352 . S
Cd116 O124 2.277 . S
Cd116 O125 2.356 . S
C117 O122 1.209 . S
C117 O124 1.226 . S
O118 Cd114 2.273 . S
O118 Cd116 2.411 . S
O118 C121 1.320 . S
O119 Cd116 2.333 . S
O119 C121 1.214 . S
O120 Cd116 2.352 . S
O120 C123 1.258 . S
C121 O118 1.320 . S
C121 O119 1.214 . S
O122 Cd114 2.277 . S
O122 C117 1.209 . S
C123 O120 1.258 . S
C123 O125 1.282 . S
O124 Cd116 2.277 . S
O124 C117 1.226 . S
O125 Cd116 2.356 . S
O125 C123 1.282 . S
C126 O127 1.306 . S
C126 O129 1.160 . S
O127 C126 1.306 . S
O127 Cd128 2.228 . S
Cd128 O127 2.228 . S
Cd128 O132 2.273 . S
Cd128 O136 2.277 . S
O129 C126 1.160 . S
O129 Cd130 2.203 . S
Cd130 O129 2.203 . S
Cd130 O132 2.411 . S
Cd130 O133 2.333 . S
Cd130 O134 2.352 . S
Cd130 O138 2.277 . S
Cd130 O139 2.356 . S
C131 O136 1.209 . S
C131 O138 1.226 . S
O132 Cd128 2.273 . S
O132 Cd130 2.411 . S
O132 C135 1.320 . S
O133 Cd130 2.333 . S
O133 C135 1.214 . S
O134 Cd130 2.352 . S
O134 C137 1.258 . S
C135 O132 1.320 . S
C135 O133 1.214 . S
O136 Cd128 2.277 . S
O136 C131 1.209 . S
C137 O134 1.258 . S
C137 O139 1.282 . S
O138 Cd130 2.277 . S
O138 C131 1.226 . S
O139 Cd130 2.356 . S
O139 C137 1.282 . S
C140 O141 1.306 . S
C140 O143 1.160 . S
O141 C140 1.306 . S
O141 Cd142 2.228 . S
Cd142 O141 2.228 . S
Cd142 O146 2.273 . S
Cd142 O150 2.277 . S
O143 C140 1.160 . S
O143 Cd144 2.203 . S
Cd144 O143 2.203 . S
Cd144 O146 2.411 . S
Cd144 O147 2.333 . S
Cd144 O148 2.352 . S
Cd144 O152 2.277 . S
Cd144 O153 2.356 . S
C145 O150 1.209 . S
C145 O152 1.226 . S
O146 Cd142 2.273 . S
O146 Cd144 2.411 . S
O146 C149 1.320 . S
O147 Cd144 2.333 . S
O147 C149 1.214 . S
O148 Cd144 2.352 . S
O148 C151 1.258 . S
C149 O146 1.320 . S
C149 O147 1.214 . S
O150 Cd142 2.277 . S
O150 C145 1.209 . S
C151 O148 1.258 . S
C151 O153 1.282 . S
O152 Cd144 2.277 . S
O152 C145 1.226 . S
O153 Cd144 2.356 . S
O153 C151 1.282 . S
C154 O155 1.306 . S
C154 O157 1.160 . S
O155 C154 1.306 . S
O155 Cd156 2.228 . S
Cd156 O155 2.228 . S
Cd156 O160 2.273 . S
Cd156 O164 2.277 . S
O157 C154 1.160 . S
O157 Cd158 2.203 . S
Cd158 O157 2.203 . S
Cd158 O160 2.411 . S
Cd158 O161 2.333 . S
Cd158 O162 2.352 . S
Cd158 O166 2.277 . S
Cd158 O167 2.356 . S
C159 O164 1.209 . S
C159 O166 1.226 . S
O160 Cd156 2.273 . S
O160 Cd158 2.411 . S
O160 C163 1.320 . S
O161 Cd158 2.333 . S
O161 C163 1.214 . S
O162 Cd158 2.352 . S
O162 C165 1.258 . S
C163 O160 1.320 . S
C163 O161 1.214 . S
O164 Cd156 2.277 . S
O164 C159 1.209 . S
C165 O162 1.258 . S
C165 O167 1.282 . S
O166 Cd158 2.277 . S
O166 C159 1.226 . S
O167 Cd158 2.356 . S
O167 C165 1.282 . S
C168 O169 1.306 . S
C168 O171 1.160 . S
O169 C168 1.306 . S
O169 Cd170 2.228 . S
Cd170 O169 2.228 . S
Cd170 O174 2.273 . S
Cd170 O178 2.277 . S
O171 C168 1.160 . S
O171 Cd172 2.203 . S
Cd172 O171 2.203 . S
Cd172 O174 2.411 . S
Cd172 O175 2.333 . S
Cd172 O176 2.352 . S
Cd172 O180 2.277 . S
Cd172 O181 2.356 . S
C173 O178 1.209 . S
C173 O180 1.226 . S
O174 Cd170 2.273 . S
O174 Cd172 2.411 . S
O174 C177 1.320 . S
O175 Cd172 2.333 . S
O175 C177 1.214 . S
O176 Cd172 2.352 . S
O176 C179 1.258 . S
C177 O174 1.320 . S
C177 O175 1.214 . S
O178 Cd170 2.277 . S
O178 C173 1.209 . S
C179 O176 1.258 . S
C179 O181 1.282 . S
O180 Cd172 2.277 . S
O180 C173 1.226 . S
O181 Cd172 2.356 . S
O181 C179 1.282 . S
C182 O183 1.306 . S
C182 O185 1.160 . S
O183 C182 1.306 . S
O183 Cd184 2.228 . S
Cd184 O183 2.228 . S
Cd184 O188 2.273 . S
Cd184 O192 2.277 . S
O185 C182 1.160 . S
O185 Cd186 2.203 . S
Cd186 O185 2.203 . S
Cd186 O188 2.411 . S
Cd186 O189 2.333 . S
Cd186 O190 2.352 . S
Cd186 O194 2.277 . S
Cd186 O195 2.356 . S
C187 O192 1.209 . S
C187 O194 1.226 . S
O188 Cd184 2.273 . S
O188 Cd186 2.411 . S
O188 C191 1.320 . S
O189 Cd186 2.333 . S
O189 C191 1.214 . S
O190 Cd186 2.352 . S
O190 C193 1.258 . S
C191 O188 1.320 . S
C191 O189 1.214 . S
O192 Cd184 2.277 . S
O192 C187 1.209 . S
C193 O190 1.258 . S
C193 O195 1.282 . S
O194 Cd186 2.277 . S
O194 C187 1.226 . S
O195 Cd186 2.356 . S
O195 C193 1.282 . S
C196 O197 1.306 . S
C196 O199 1.160 . S
O197 C196 1.306 . S
O197 Cd198 2.228 . S
Cd198 O197 2.228 . S
Cd198 O202 2.273 . S
Cd198 O206 2.277 . S
O199 C196 1.160 . S
O199 Cd200 2.203 . S
Cd200 O199 2.203 . S
Cd200 O202 2.411 . S
Cd200 O203 2.333 . S
Cd200 O204 2.352 . S
Cd200 O208 2.277 . S
Cd200 O209 2.356 . S
C201 O206 1.209 . S
C201 O208 1.226 . S
O202 Cd198 2.273 . S
O202 Cd200 2.411 . S
O202 C205 1.320 . S
O203 Cd200 2.333 . S
O203 C205 1.214 . S
O204 Cd200 2.352 . S
O204 C207 1.258 . S
C205 O202 1.320 . S
C205 O203 1.214 . S
O206 Cd198 2.277 . S
O206 C201 1.209 . S
C207 O204 1.258 . S
C207 O209 1.282 . S
O208 Cd200 2.277 . S
O208 C201 1.226 . S
O209 Cd200 2.356 . S
O209 C207 1.282 . S
C210 O211 1.306 . S
C210 O213 1.160 . S
O211 C210 1.306 . S
O211 Cd212 2.228 . S
Cd212 O211 2.228 . S
Cd212 O216 2.273 . S
Cd212 O220 2.277 . S
O213 C210 1.160 . S
O213 Cd214 2.203 . S
Cd214 O213 2.203 . S
Cd214 O216 2.411 . S
Cd214 O217 2.333 . S
Cd214 O218 2.352 . S
Cd214 O222 2.277 . S
Cd214 O223 2.356 . S
C215 O220 1.209 . S
C215 O222 1.226 . S
O216 Cd212 2.273 . S
O216 Cd214 2.411 . S
O216 C219 1.320 . S
O217 Cd214 2.333 . S
O217 C219 1.214 . S
O218 Cd214 2.352 . S
O218 C221 1.258 . S
C219 O216 1.320 . S
C219 O217 1.214 . S
O220 Cd212 2.277 . S
O220 C215 1.209 . S
C221 O218 1.258 . S
C221 O223 1.282 . S
O222 Cd214 2.277 . S
O222 C215 1.226 . S
O223 Cd214 2.356 . S
O223 C221 1.282 . S
C224 O225 1.306 . S
C224 O227 1.160 . S
O225 C224 1.306 . S
O225 Cd226 2.228 . S
Cd226 O225 2.228 . S
Cd226 O230 2.273 . S
Cd226 O234 2.277 . S
O227 C224 1.160 . S
O227 Cd228 2.203 . S
Cd228 O227 2.203 . S
Cd228 O230 2.411 . S
Cd228 O231 2.333 . S
Cd228 O232 2.352 . S
Cd228 O236 2.277 . S
Cd228 O237 2.356 . S
C229 O234 1.209 . S
C229 O236 1.226 . S
O230 Cd226 2.273 . S
O230 Cd228 2.411 . S
O230 C233 1.320 . S
O231 Cd228 2.333 . S
O231 C233 1.214 . S
O232 Cd228 2.352 . S
O232 C235 1.258 . S
C233 O230 1.320 . S
C233 O231 1.214 . S
O234 Cd226 2.277 . S
O234 C229 1.209 . S
C235 O232 1.258 . S
C235 O237 1.282 . S
O236 Cd228 2.277 . S
O236 C229 1.226 . S
O237 Cd228 2.356 . S
O237 C235 1.282 . S
C238 O239 1.306 . S
C238 O241 1.160 . S
O239 C238 1.306 . S
O239 Cd240 2.228 . S
Cd240 O239 2.228 . S
Cd240 O244 2.273 . S
Cd240 O248 2.277 . S
O241 C238 1.160 . S
O241 Cd242 2.203 . S
Cd242 O241 2.203 . S
Cd242 O244 2.411 . S
Cd242 O245 2.333 . S
Cd242 O246 2.352 . S
Cd242 O250 2.277 . S
Cd242 O251 2.356 . S
C243 O248 1.209 . S
C243 O250 1.226 . S
O244 Cd240 2.273 . S
O244 Cd242 2.411 . S
O244 C247 1.320 . S
O245 Cd242 2.333 . S
O245 C247 1.214 . S
O246 Cd242 2.352 . S
O246 C249 1.258 . S
C247 O244 1.320 . S
C247 O245 1.214 . S
O248 Cd240 2.277 . S
O248 C243 1.209 . S
C249 O246 1.258 . S
C249 O251 1.282 . S
O250 Cd242 2.277 . S
O250 C243 1.226 . S
O251 Cd242 2.356 . S
O251 C249 1.282 . S
C252 O253 1.306 . S
C252 O255 1.160 . S
O253 C252 1.306 . S
O253 Cd254 2.228 . S
Cd254 O253 2.228 . S
Cd254 O258 2.273 . S
Cd254 O262 2.277 . S
O255 C252 1.160 . S
O255 Cd256 2.203 . S
Cd256 O255 2.203 . S
Cd256 O258 2.411 . S
Cd256 O259 2.333 . S
Cd256 O260 2.352 . S
Cd256 O264 2.277 . S
Cd256 O265 2.356 . S
C257 O262 1.209 . S
C257 O264 1.226 . S
O258 Cd254 2.273 . S
O258 Cd256 2.411 . S
O258 C261 1.320 . S
O259 Cd256 2.333 . S
O259 C261 1.214 . S
O260 Cd256 2.352 . S
O260 C263 1.258 . S
C261 O258 1.320 . S
C261 O259 1.214 . S
O262 Cd254 2.277 . S
O262 C257 1.209 . S
C263 O260 1.258 . S
C263 O265 1.282 . S
O264 Cd256 2.277 . S
O264 C257 1.226 . S
O265 Cd256 2.356 . S
O265 C263 1.282 . S
C266 O267 1.306 . S
C266 O269 1.160 . S
O267 C266 1.306 . S
O267 Cd268 2.228 . S
Cd268 O267 2.228 . S
Cd268 O272 2.273 . S
Cd268 O276 2.277 . S
O269 C266 1.160 . S
O269 Cd270 2.203 . S
Cd270 O269 2.203 . S
Cd270 O272 2.411 . S
Cd270 O273 2.333 . S
Cd270 O274 2.352 . S
Cd270 O278 2.277 . S
Cd270 O279 2.356 . S
C271 O276 1.209 . S
C271 O278 1.226 . S
O272 Cd268 2.273 . S
O272 Cd270 2.411 . S
O272 C275 1.320 . S
O273 Cd270 2.333 . S
O273 C275 1.214 . S
O274 Cd270 2.352 . S
O274 C277 1.258 . S
C275 O272 1.320 . S
C275 O273 1.214 . S
O276 Cd268 2.277 . S
O276 C271 1.209 . S
C277 O274 1.258 . S
C277 O279 1.282 . S
O278 Cd270 2.277 . S
O278 C271 1.226 . S
O279 Cd270 2.356 . S
O279 C277 1.282 . S
C280 O281 1.306 . S
C280 O283 1.160 . S
O281 C280 1.306 . S
O281 Cd282 2.228 . S
Cd282 O281 2.228 . S
Cd282 O286 2.273 . S
Cd282 O290 2.277 . S
O283 C280 1.160 . S
O283 Cd284 2.203 . S
Cd284 O283 2.203 . S
Cd284 O286 2.411 . S
Cd284 O287 2.333 . S
Cd284 O288 2.352 . S
Cd284 O292 2.277 . S
Cd284 O293 2.356 . S
C285 O290 1.209 . S
C285 O292 1.226 . S
O286 Cd282 2.273 . S
O286 Cd284 2.411 . S
O286 C289 1.320 . S
O287 Cd284 2.333 . S
O287 C289 1.214 . S
O288 Cd284 2.352 . S
O288 C291 1.258 . S
C289 O286 1.320 . S
C289 O287 1.214 . S
O290 Cd282 2.277 . S
O290 C285 1.209 . S
C291 O288 1.258 . S
C291 O293 1.282 . S
O292 Cd284 2.277 . S
O292 C285 1.226 . S
O293 Cd284 2.356 . S
O293 C291 1.282 . S
C294 O295 1.306 . S
C294 O297 1.160 . S
O295 C294 1.306 . S
O295 Cd296 2.228 . S
Cd296 O295 2.228 . S
Cd296 O300 2.273 . S
Cd296 O304 2.277 . S
O297 C294 1.160 . S
O297 Cd298 2.203 . S
Cd298 O297 2.203 . S
Cd298 O300 2.411 . S
Cd298 O301 2.333 . S
Cd298 O302 2.352 . S
Cd298 O306 2.277 . S
Cd298 O307 2.356 . S
C299 O304 1.209 . S
C299 O306 1.226 . S
O300 Cd296 2.273 . S
O300 Cd298 2.411 . S
O300 C303 1.320 . S
O301 Cd298 2.333 . S
O301 C303 1.214 . S
O302 Cd298 2.352 . S
O302 C305 1.258 . S
C303 O300 1.320 . S
C303 O301 1.214 . S
O304 Cd296 2.277 . S
O304 C299 1.209 . S
C305 O302 1.258 . S
C305 O307 1.282 . S
O306 Cd298 2.277 . S
O306 C299 1.226 . S
O307 Cd298 2.356 . S
O307 C305 1.282 . S
C308 O309 1.306 . S
C308 O311 1.160 . S
O309 C308 1.306 . S
O309 Cd310 2.228 . S
Cd310 O309 2.228 . S
Cd310 O314 2.273 . S
Cd310 O318 2.277 . S
O311 C308 1.160 . S
O311 Cd312 2.203 . S
Cd312 O311 2.203 . S
Cd312 O314 2.411 . S
Cd312 O315 2.333 . S
Cd312 O316 2.352 . S
Cd312 O320 2.277 . S
Cd312 O321 2.356 . S
C313 O318 1.209 . S
C313 O320 1.226 . S
O314 Cd310 2.273 . S
O314 Cd312 2.411 . S
O314 C317 1.320 . S
O315 Cd312 2.333 . S
O315 C317 1.214 . S
O316 Cd312 2.352 . S
O316 C319 1.258 . S
C317 O314 1.320 . S
C317 O315 1.214 . S
O318 Cd310 2.277 . S
O318 C313 1.209 . S
C319 O316 1.258 . S
C319 O321 1.282 . S
O320 Cd312 2.277 . S
O320 C313 1.226 . S
O321 Cd312 2.356 . S
O321 C319 1.282 . S
C322 O323 1.306 . S
C322 O325 1.160 . S
O323 C322 1.306 . S
O323 Cd324 2.228 . S
Cd324 O323 2.228 . S
Cd324 O328 2.273 . S
Cd324 O332 2.277 . S
O325 C322 1.160 . S
O325 Cd326 2.203 . S
Cd326 O325 2.203 . S
Cd326 O328 2.411 . S
Cd326 O329 2.333 . S
Cd326 O330 2.352 . S
Cd326 O334 2.277 . S
Cd326 O335 2.356 . S
C327 O332 1.209 . S
C327 O334 1.226 . S
O328 Cd324 2.273 . S
O328 Cd326 2.411 . S
O328 C331 1.320 . S
O329 Cd326 2.333 . S
O329 C331 1.214 . S
O330 Cd326 2.352 . S
O330 C333 1.258 . S
C331 O328 1.320 . S
C331 O329 1.214 . S
O332 Cd324 2.277 . S
O332 C327 1.209 . S
C333 O330 1.258 . S
C333 O335 1.282 . S
O334 Cd326 2.277 . S
O334 C327 1.226 . S
O335 Cd326 2.356 . S
O335 C333 1.282 . S
C336 C337 1.349 . S
C336 C338 1.327 . S
C336 H361 0.950 . S
C337 C336 1.349 . S
C337 C353 1.349 . S
C338 C336 1.327 . S
C338 C357 1.429 . S
C338 H362 0.950 . S
C339 C356 1.574 1_545 S
C339 C358 1.368 . S
C339 H363 0.949 . S
H340 C344 0.949 . S
C341 C342 1.349 . S
C341 C343 1.327 . S
C341 H364 0.950 . S
C342 C341 1.349 . S
C342 C354 1.349 . S
C343 C341 1.327 . S
C343 C359 1.429 . S
C343 H365 0.950 . S
C344 H340 0.949 . S
C344 C352 1.574 1_565 S
C344 C360 1.368 . S
H345 C353 0.950 . S
H346 C351 0.950 . S
H347 C352 0.949 . S
H348 C354 0.950 . S
H349 C355 0.950 . S
H350 C356 0.949 . S
C351 H346 0.950 . S
C351 C353 1.327 . S
C351 C357 1.429 . S
C352 C344 1.574 1_545 S
C352 H347 0.949 . S
C352 C358 1.368 . S
C353 C337 1.349 . S
C353 H345 0.950 . S
C353 C351 1.327 . S
C354 C342 1.349 . S
C354 H348 0.950 . S
C354 C355 1.327 . S
C355 H349 0.950 . S
C355 C354 1.327 . S
C355 C359 1.429 . S
C356 C339 1.574 1_565 S
C356 H350 0.949 . S
C356 C360 1.368 . S
C357 C338 1.429 . S
C357 C351 1.429 . S
C357 C358 1.523 . S
C358 C339 1.368 . S
C358 C352 1.368 . S
C358 C357 1.523 . S
C359 C343 1.429 . S
C359 C355 1.429 . S
C359 C360 1.523 . S
C360 C344 1.368 . S
C360 C356 1.368 . S
C360 C359 1.523 . S
H361 C336 0.950 . S
H362 C338 0.950 . S
H363 C339 0.949 . S
H364 C341 0.950 . S
H365 C343 0.950 . S
C366 C367 1.349 . S
C366 C368 1.327 . S
C366 H391 0.950 . S
C367 C366 1.349 . S
C367 C383 1.349 . S
C368 C366 1.327 . S
C368 C387 1.429 . S
C368 H392 0.950 . S
C369 C386 1.574 . S
C369 C388 1.368 . S
C369 H393 0.949 . S
H370 C374 0.949 . S
C371 C372 1.349 . S
C371 C373 1.327 . S
C371 H394 0.950 . S
C372 C371 1.349 . S
C372 C384 1.349 . S
C373 C371 1.327 . S
C373 C389 1.429 . S
C373 H395 0.950 . S
C374 H370 0.949 . S
C374 C382 1.574 . S
C374 C390 1.368 . S
H375 C383 0.950 . S
H376 C381 0.950 . S
H377 C382 0.949 . S
H378 C384 0.950 . S
H379 C385 0.950 . S
H380 C386 0.949 . S
C381 H376 0.950 . S
C381 C383 1.327 . S
C381 C387 1.429 . S
C382 C374 1.574 . S
C382 H377 0.949 . S
C382 C388 1.368 . S
C383 C367 1.349 . S
C383 H375 0.950 . S
C383 C381 1.327 . S
C384 C372 1.349 . S
C384 H378 0.950 . S
C384 C385 1.327 . S
C385 H379 0.950 . S
C385 C384 1.327 . S
C385 C389 1.429 . S
C386 C369 1.574 . S
C386 H380 0.949 . S
C386 C390 1.368 . S
C387 C368 1.429 . S
C387 C381 1.429 . S
C387 C388 1.523 . S
C388 C369 1.368 . S
C388 C382 1.368 . S
C388 C387 1.523 . S
C389 C373 1.429 . S
C389 C385 1.429 . S
C389 C390 1.523 . S
C390 C374 1.368 . S
C390 C386 1.368 . S
C390 C389 1.523 . S
H391 C366 0.950 . S
H392 C368 0.950 . S
H393 C369 0.949 . S
H394 C371 0.950 . S
H395 C373 0.950 . S
C396 C397 1.349 . S
C396 C398 1.327 . S
C396 H421 0.950 . S
C397 C396 1.349 . S
C397 C413 1.349 . S
C398 C396 1.327 . S
C398 C417 1.429 . S
C398 H422 0.950 . S
C399 C416 1.574 1_655 S
C399 C418 1.368 . S
C399 H423 0.949 . S
H400 C404 0.949 . S
C401 C402 1.349 . S
C401 C403 1.327 . S
C401 H424 0.950 . S
C402 C401 1.349 . S
C402 C414 1.349 . S
C403 C401 1.327 . S
C403 C419 1.429 . S
C403 H425 0.950 . S
C404 H400 0.949 . S
C404 C412 1.574 1_455 S
C404 C420 1.368 . S
H405 C413 0.950 . S
H406 C411 0.950 . S
H407 C412 0.949 . S
H408 C414 0.950 . S
H409 C415 0.950 . S
H410 C416 0.949 . S
C411 H406 0.950 . S
C411 C413 1.327 . S
C411 C417 1.429 . S
C412 C404 1.574 1_655 S
C412 H407 0.949 . S
C412 C418 1.368 . S
C413 C397 1.349 . S
C413 H405 0.950 . S
C413 C411 1.327 . S
C414 C402 1.349 . S
C414 H408 0.950 . S
C414 C415 1.327 . S
C415 H409 0.950 . S
C415 C414 1.327 . S
C415 C419 1.429 . S
C416 C399 1.574 1_455 S
C416 H410 0.949 . S
C416 C420 1.368 . S
C417 C398 1.429 . S
C417 C411 1.429 . S
C417 C418 1.523 . S
C418 C399 1.368 . S
C418 C412 1.368 . S
C418 C417 1.523 . S
C419 C403 1.429 . S
C419 C415 1.429 . S
C419 C420 1.523 . S
C420 C404 1.368 . S
C420 C416 1.368 . S
C420 C419 1.523 . S
H421 C396 0.950 . S
H422 C398 0.950 . S
H423 C399 0.949 . S
H424 C401 0.950 . S
H425 C403 0.950 . S
C426 C427 1.349 . S
C426 C428 1.327 . S
C426 H451 0.950 . S
C427 C426 1.349 . S
C427 C443 1.349 . S
C428 C426 1.327 . S
C428 C447 1.429 . S
C428 H452 0.950 . S
C429 C446 1.574 1_565 S
C429 C448 1.368 . S
C429 H453 0.949 . S
H430 C434 0.949 . S
C431 C432 1.349 . S
C431 C433 1.327 . S
C431 H454 0.950 . S
C432 C431 1.349 . S
C432 C444 1.349 . S
C433 C431 1.327 . S
C433 C449 1.429 . S
C433 H455 0.950 . S
C434 H430 0.949 . S
C434 C442 1.574 1_545 S
C434 C450 1.368 . S
H435 C443 0.950 . S
H436 C441 0.950 . S
H437 C442 0.949 . S
H438 C444 0.950 . S
H439 C445 0.950 . S
H440 C446 0.949 . S
C441 H436 0.950 . S
C441 C443 1.327 . S
C441 C447 1.429 . S
C442 C434 1.574 1_565 S
C442 H437 0.949 . S
C442 C448 1.368 . S
C443 C427 1.349 . S
C443 H435 0.950 . S
C443 C441 1.327 . S
C444 C432 1.349 . S
C444 H438 0.950 . S
C444 C445 1.327 . S
C445 H439 0.950 . S
C445 C444 1.327 . S
C445 C449 1.429 . S
C446 C429 1.574 1_545 S
C446 H440 0.949 . S
C446 C450 1.368 . S
C447 C428 1.429 . S
C447 C441 1.429 . S
C447 C448 1.523 . S
C448 C429 1.368 . S
C448 C442 1.368 . S
C448 C447 1.523 . S
C449 C433 1.429 . S
C449 C445 1.429 . S
C449 C450 1.523 . S
C450 C434 1.368 . S
C450 C446 1.368 . S
C450 C449 1.523 . S
H451 C426 0.950 . S
H452 C428 0.950 . S
H453 C429 0.949 . S
H454 C431 0.950 . S
H455 C433 0.950 . S
C456 C457 1.349 . S
C456 C458 1.327 . S
C456 H481 0.950 . S
C457 C456 1.349 . S
C457 C473 1.349 . S
C458 C456 1.327 . S
C458 C477 1.429 . S
C458 H482 0.950 . S
C459 C476 1.574 . S
C459 C478 1.368 . S
C459 H483 0.949 . S
H460 C464 0.949 . S
C461 C462 1.349 . S
C461 C463 1.327 . S
C461 H484 0.950 . S
C462 C461 1.349 . S
C462 C474 1.349 . S
C463 C461 1.327 . S
C463 C479 1.429 . S
C463 H485 0.950 . S
C464 H460 0.949 . S
C464 C472 1.574 . S
C464 C480 1.368 . S
H465 C473 0.950 . S
H466 C471 0.950 . S
H467 C472 0.949 . S
H468 C474 0.950 . S
H469 C475 0.950 . S
H470 C476 0.949 . S
C471 H466 0.950 . S
C471 C473 1.327 . S
C471 C477 1.429 . S
C472 C464 1.574 . S
C472 H467 0.949 . S
C472 C478 1.368 . S
C473 C457 1.349 . S
C473 H465 0.950 . S
C473 C471 1.327 . S
C474 C462 1.349 . S
C474 H468 0.950 . S
C474 C475 1.327 . S
C475 H469 0.950 . S
C475 C474 1.327 . S
C475 C479 1.429 . S
C476 C459 1.574 . S
C476 H470 0.949 . S
C476 C480 1.368 . S
C477 C458 1.429 . S
C477 C471 1.429 . S
C477 C478 1.523 . S
C478 C459 1.368 . S
C478 C472 1.368 . S
C478 C477 1.523 . S
C479 C463 1.429 . S
C479 C475 1.429 . S
C479 C480 1.523 . S
C480 C464 1.368 . S
C480 C476 1.368 . S
C480 C479 1.523 . S
H481 C456 0.950 . S
H482 C458 0.950 . S
H483 C459 0.949 . S
H484 C461 0.950 . S
H485 C463 0.950 . S
C486 C487 1.349 . S
C486 C488 1.327 . S
C486 H511 0.950 . S
C487 C486 1.349 . S
C487 C503 1.349 . S
C488 C486 1.327 . S
C488 C507 1.429 . S
C488 H512 0.950 . S
C489 C506 1.574 1_455 S
C489 C508 1.368 . S
C489 H513 0.949 . S
H490 C494 0.949 . S
C491 C492 1.349 . S
C491 C493 1.327 . S
C491 H514 0.950 . S
C492 C491 1.349 . S
C492 C504 1.349 . S
C493 C491 1.327 . S
C493 C509 1.429 . S
C493 H515 0.950 . S
C494 H490 0.949 . S
C494 C502 1.574 1_655 S
C494 C510 1.368 . S
H495 C503 0.950 . S
H496 C501 0.950 . S
H497 C502 0.949 . S
H498 C504 0.950 . S
H499 C505 0.950 . S
H500 C506 0.949 . S
C501 H496 0.950 . S
C501 C503 1.327 . S
C501 C507 1.429 . S
C502 C494 1.574 1_455 S
C502 H497 0.949 . S
C502 C508 1.368 . S
C503 C487 1.349 . S
C503 H495 0.950 . S
C503 C501 1.327 . S
C504 C492 1.349 . S
C504 H498 0.950 . S
C504 C505 1.327 . S
C505 H499 0.950 . S
C505 C504 1.327 . S
C505 C509 1.429 . S
C506 C489 1.574 1_655 S
C506 H500 0.949 . S
C506 C510 1.368 . S
C507 C488 1.429 . S
C507 C501 1.429 . S
C507 C508 1.523 . S
C508 C489 1.368 . S
C508 C502 1.368 . S
C508 C507 1.523 . S
C509 C493 1.429 . S
C509 C505 1.429 . S
C509 C510 1.523 . S
C510 C494 1.368 . S
C510 C506 1.368 . S
C510 C509 1.523 . S
H511 C486 0.950 . S
H512 C488 0.950 . S
H513 C489 0.949 . S
H514 C491 0.950 . S
H515 C493 0.950 . S
C516 C517 1.349 . S
C516 C518 1.327 . S
C516 H541 0.950 . S
C517 C516 1.349 . S
C517 C533 1.349 . S
C518 C516 1.327 . S
C518 C537 1.429 . S
C518 H542 0.950 . S
C519 C536 1.574 1_565 S
C519 C538 1.368 . S
C519 H543 0.949 . S
H520 C524 0.949 . S
C521 C522 1.349 . S
C521 C523 1.327 . S
C521 H544 0.950 . S
C522 C521 1.349 . S
C522 C534 1.349 . S
C523 C521 1.327 . S
C523 C539 1.429 . S
C523 H545 0.950 . S
C524 H520 0.949 . S
C524 C532 1.574 1_545 S
C524 C540 1.368 . S
H525 C533 0.950 . S
H526 C531 0.950 . S
H527 C532 0.949 . S
H528 C534 0.950 . S
H529 C535 0.950 . S
H530 C536 0.949 . S
C531 H526 0.950 . S
C531 C533 1.327 . S
C531 C537 1.429 . S
C532 C524 1.574 1_565 S
C532 H527 0.949 . S
C532 C538 1.368 . S
C533 C517 1.349 . S
C533 H525 0.950 . S
C533 C531 1.327 . S
C534 C522 1.349 . S
C534 H528 0.950 . S
C534 C535 1.327 . S
C535 H529 0.950 . S
C535 C534 1.327 . S
C535 C539 1.429 . S
C536 C519 1.574 1_545 S
C536 H530 0.949 . S
C536 C540 1.368 . S
C537 C518 1.429 . S
C537 C531 1.429 . S
C537 C538 1.523 . S
C538 C519 1.368 . S
C538 C532 1.368 . S
C538 C537 1.523 . S
C539 C523 1.429 . S
C539 C535 1.429 . S
C539 C540 1.523 . S
C540 C524 1.368 . S
C540 C536 1.368 . S
C540 C539 1.523 . S
H541 C516 0.950 . S
H542 C518 0.950 . S
H543 C519 0.949 . S
H544 C521 0.950 . S
H545 C523 0.950 . S
C546 C547 1.349 . S
C546 C548 1.327 . S
C546 H571 0.950 . S
C547 C546 1.349 . S
C547 C563 1.349 . S
C548 C546 1.327 . S
C548 C567 1.429 . S
C548 H572 0.950 . S
C549 C566 1.574 . S
C549 C568 1.368 . S
C549 H573 0.949 . S
H550 C554 0.949 . S
C551 C552 1.349 . S
C551 C553 1.327 . S
C551 H574 0.950 . S
C552 C551 1.349 . S
C552 C564 1.349 . S
C553 C551 1.327 . S
C553 C569 1.429 . S
C553 H575 0.950 . S
C554 H550 0.949 . S
C554 C562 1.574 . S
C554 C570 1.368 . S
H555 C563 0.950 . S
H556 C561 0.950 . S
H557 C562 0.949 . S
H558 C564 0.950 . S
H559 C565 0.950 . S
H560 C566 0.949 . S
C561 H556 0.950 . S
C561 C563 1.327 . S
C561 C567 1.429 . S
C562 C554 1.574 . S
C562 H557 0.949 . S
C562 C568 1.368 . S
C563 C547 1.349 . S
C563 H555 0.950 . S
C563 C561 1.327 . S
C564 C552 1.349 . S
C564 H558 0.950 . S
C564 C565 1.327 . S
C565 H559 0.950 . S
C565 C564 1.327 . S
C565 C569 1.429 . S
C566 C549 1.574 . S
C566 H560 0.949 . S
C566 C570 1.368 . S
C567 C548 1.429 . S
C567 C561 1.429 . S
C567 C568 1.523 . S
C568 C549 1.368 . S
C568 C562 1.368 . S
C568 C567 1.523 . S
C569 C553 1.429 . S
C569 C565 1.429 . S
C569 C570 1.523 . S
C570 C554 1.368 . S
C570 C566 1.368 . S
C570 C569 1.523 . S
H571 C546 0.950 . S
H572 C548 0.950 . S
H573 C549 0.949 . S
H574 C551 0.950 . S
H575 C553 0.950 . S
C576 C577 1.349 . S
C576 C578 1.327 . S
C576 H601 0.950 . S
C577 C576 1.349 . S
C577 C593 1.349 . S
C578 C576 1.327 . S
C578 C597 1.429 . S
C578 H602 0.950 . S
C579 C596 1.574 1_655 S
C579 C598 1.368 . S
C579 H603 0.949 . S
H580 C584 0.949 . S
C581 C582 1.349 . S
C581 C583 1.327 . S
C581 H604 0.950 . S
C582 C581 1.349 . S
C582 C594 1.349 . S
C583 C581 1.327 . S
C583 C599 1.429 . S
C583 H605 0.950 . S
C584 H580 0.949 . S
C584 C592 1.574 1_455 S
C584 C600 1.368 . S
H585 C593 0.950 . S
H586 C591 0.950 . S
H587 C592 0.949 . S
H588 C594 0.950 . S
H589 C595 0.950 . S
H590 C596 0.949 . S
C591 H586 0.950 . S
C591 C593 1.327 . S
C591 C597 1.429 . S
C592 C584 1.574 1_655 S
C592 H587 0.949 . S
C592 C598 1.368 . S
C593 C577 1.349 . S
C593 H585 0.950 . S
C593 C591 1.327 . S
C594 C582 1.349 . S
C594 H588 0.950 . S
C594 C595 1.327 . S
C595 H589 0.950 . S
C595 C594 1.327 . S
C595 C599 1.429 . S
C596 C579 1.574 1_455 S
C596 H590 0.949 . S
C596 C600 1.368 . S
C597 C578 1.429 . S
C597 C591 1.429 . S
C597 C598 1.523 . S
C598 C579 1.368 . S
C598 C592 1.368 . S
C598 C597 1.523 . S
C599 C583 1.429 . S
C599 C595 1.429 . S
C599 C600 1.523 . S
C600 C584 1.368 . S
C600 C596 1.368 . S
C600 C599 1.523 . S
H601 C576 0.950 . S
H602 C578 0.950 . S
H603 C579 0.949 . S
H604 C581 0.950 . S
H605 C583 0.950 . S
C606 C607 1.349 . S
C606 C608 1.327 . S
C606 H631 0.950 . S
C607 C606 1.349 . S
C607 C623 1.349 . S
C608 C606 1.327 . S
C608 C627 1.429 . S
C608 H632 0.950 . S
C609 C626 1.574 1_545 S
C609 C628 1.368 . S
C609 H633 0.949 . S
H610 C614 0.949 . S
C611 C612 1.349 . S
C611 C613 1.327 . S
C611 H634 0.950 . S
C612 C611 1.349 . S
C612 C624 1.349 . S
C613 C611 1.327 . S
C613 C629 1.429 . S
C613 H635 0.950 . S
C614 H610 0.949 . S
C614 C622 1.574 1_565 S
C614 C630 1.368 . S
H615 C623 0.950 . S
H616 C621 0.950 . S
H617 C622 0.949 . S
H618 C624 0.950 . S
H619 C625 0.950 . S
H620 C626 0.949 . S
C621 H616 0.950 . S
C621 C623 1.327 . S
C621 C627 1.429 . S
C622 C614 1.574 1_545 S
C622 H617 0.949 . S
C622 C628 1.368 . S
C623 C607 1.349 . S
C623 H615 0.950 . S
C623 C621 1.327 . S
C624 C612 1.349 . S
C624 H618 0.950 . S
C624 C625 1.327 . S
C625 H619 0.950 . S
C625 C624 1.327 . S
C625 C629 1.429 . S
C626 C609 1.574 1_565 S
C626 H620 0.949 . S
C626 C630 1.368 . S
C627 C608 1.429 . S
C627 C621 1.429 . S
C627 C628 1.523 . S
C628 C609 1.368 . S
C628 C622 1.368 . S
C628 C627 1.523 . S
C629 C613 1.429 . S
C629 C625 1.429 . S
C629 C630 1.523 . S
C630 C614 1.368 . S
C630 C626 1.368 . S
C630 C629 1.523 . S
H631 C606 0.950 . S
H632 C608 0.950 . S
H633 C609 0.949 . S
H634 C611 0.950 . S
H635 C613 0.950 . S
C636 C637 1.349 . S
C636 C638 1.327 . S
C636 H661 0.950 . S
C637 C636 1.349 . S
C637 C653 1.349 . S
C638 C636 1.327 . S
C638 C657 1.429 . S
C638 H662 0.950 . S
C639 C656 1.574 . S
C639 C658 1.368 . S
C639 H663 0.949 . S
H640 C644 0.949 . S
C641 C642 1.349 . S
C641 C643 1.327 . S
C641 H664 0.950 . S
C642 C641 1.349 . S
C642 C654 1.349 . S
C643 C641 1.327 . S
C643 C659 1.429 . S
C643 H665 0.950 . S
C644 H640 0.949 . S
C644 C652 1.574 . S
C644 C660 1.368 . S
H645 C653 0.950 . S
H646 C651 0.950 . S
H647 C652 0.949 . S
H648 C654 0.950 . S
H649 C655 0.950 . S
H650 C656 0.949 . S
C651 H646 0.950 . S
C651 C653 1.327 . S
C651 C657 1.429 . S
C652 C644 1.574 . S
C652 H647 0.949 . S
C652 C658 1.368 . S
C653 C637 1.349 . S
C653 H645 0.950 . S
C653 C651 1.327 . S
C654 C642 1.349 . S
C654 H648 0.950 . S
C654 C655 1.327 . S
C655 H649 0.950 . S
C655 C654 1.327 . S
C655 C659 1.429 . S
C656 C639 1.574 . S
C656 H650 0.949 . S
C656 C660 1.368 . S
C657 C638 1.429 . S
C657 C651 1.429 . S
C657 C658 1.523 . S
C658 C639 1.368 . S
C658 C652 1.368 . S
C658 C657 1.523 . S
C659 C643 1.429 . S
C659 C655 1.429 . S
C659 C660 1.523 . S
C660 C644 1.368 . S
C660 C656 1.368 . S
C660 C659 1.523 . S
H661 C636 0.950 . S
H662 C638 0.950 . S
H663 C639 0.949 . S
H664 C641 0.950 . S
H665 C643 0.950 . S
C666 C667 1.349 . S
C666 C668 1.327 . S
C666 H691 0.950 . S
C667 C666 1.349 . S
C667 C683 1.349 . S
C668 C666 1.327 . S
C668 C687 1.429 . S
C668 H692 0.950 . S
C669 C686 1.574 1_455 S
C669 C688 1.368 . S
C669 H693 0.949 . S
H670 C674 0.949 . S
C671 C672 1.349 . S
C671 C673 1.327 . S
C671 H694 0.950 . S
C672 C671 1.349 . S
C672 C684 1.349 . S
C673 C671 1.327 . S
C673 C689 1.429 . S
C673 H695 0.950 . S
C674 H670 0.949 . S
C674 C682 1.574 1_655 S
C674 C690 1.368 . S
H675 C683 0.950 . S
H676 C681 0.950 . S
H677 C682 0.949 . S
H678 C684 0.950 . S
H679 C685 0.950 . S
H680 C686 0.949 . S
C681 H676 0.950 . S
C681 C683 1.327 . S
C681 C687 1.429 . S
C682 C674 1.574 1_455 S
C682 H677 0.949 . S
C682 C688 1.368 . S
C683 C667 1.349 . S
C683 H675 0.950 . S
C683 C681 1.327 . S
C684 C672 1.349 . S
C684 H678 0.950 . S
C684 C685 1.327 . S
C685 H679 0.950 . S
C685 C684 1.327 . S
C685 C689 1.429 . S
C686 C669 1.574 1_655 S
C686 H680 0.949 . S
C686 C690 1.368 . S
C687 C668 1.429 . S
C687 C681 1.429 . S
C687 C688 1.523 . S
C688 C669 1.368 . S
C688 C682 1.368 . S
C688 C687 1.523 . S
C689 C673 1.429 . S
C689 C685 1.429 . S
C689 C690 1.523 . S
C690 C674 1.368 . S
C690 C686 1.368 . S
C690 C689 1.523 . S
H691 C666 0.950 . S
H692 C668 0.950 . S
H693 C669 0.949 . S
H694 C671 0.950 . S
H695 C673 0.950 . S
C696 C697 1.349 . S
C696 C698 1.327 . S
C696 H721 0.950 . S
C697 C696 1.349 . S
C697 C713 1.349 . S
C698 C696 1.327 . S
C698 C717 1.429 . S
C698 H722 0.950 . S
C699 C716 1.574 . S
C699 C718 1.368 . S
C699 H723 0.949 . S
H700 C704 0.949 . S
C701 C702 1.349 . S
C701 C703 1.327 . S
C701 H724 0.950 . S
C702 C701 1.349 . S
C702 C714 1.349 . S
C703 C701 1.327 . S
C703 C719 1.429 . S
C703 H725 0.950 . S
C704 H700 0.949 . S
C704 C712 1.574 . S
C704 C720 1.368 . S
H705 C713 0.950 . S
H706 C711 0.950 . S
H707 C712 0.949 . S
H708 C714 0.950 . S
H709 C715 0.950 . S
H710 C716 0.949 . S
C711 H706 0.950 . S
C711 C713 1.327 . S
C711 C717 1.429 . S
C712 C704 1.574 . S
C712 H707 0.949 . S
C712 C718 1.368 . S
C713 C697 1.349 . S
C713 H705 0.950 . S
C713 C711 1.327 . S
C714 C702 1.349 . S
C714 H708 0.950 . S
C714 C715 1.327 . S
C715 H709 0.950 . S
C715 C714 1.327 . S
C715 C719 1.429 . S
C716 C699 1.574 . S
C716 H710 0.949 . S
C716 C720 1.368 . S
C717 C698 1.429 . S
C717 C711 1.429 . S
C717 C718 1.523 . S
C718 C699 1.368 . S
C718 C712 1.368 . S
C718 C717 1.523 . S
C719 C703 1.429 . S
C719 C715 1.429 . S
C719 C720 1.523 . S
C720 C704 1.368 . S
C720 C716 1.368 . S
C720 C719 1.523 . S
H721 C696 0.950 . S
H722 C698 0.950 . S
H723 C699 0.949 . S
H724 C701 0.950 . S
H725 C703 0.950 . S
C726 C727 1.349 . S
C726 C728 1.327 . S
C726 H751 0.950 . S
C727 C726 1.349 . S
C727 C743 1.349 . S
C728 C726 1.327 . S
C728 C747 1.429 . S
C728 H752 0.950 . S
C729 C746 1.574 . S
C729 C748 1.368 . S
C729 H753 0.949 . S
H730 C734 0.949 . S
C731 C732 1.349 . S
C731 C733 1.327 . S
C731 H754 0.950 . S
C732 C731 1.349 . S
C732 C744 1.349 . S
C733 C731 1.327 . S
C733 C749 1.429 . S
C733 H755 0.950 . S
C734 H730 0.949 . S
C734 C742 1.574 . S
C734 C750 1.368 . S
H735 C743 0.950 . S
H736 C741 0.950 . S
H737 C742 0.949 . S
H738 C744 0.950 . S
H739 C745 0.950 . S
H740 C746 0.949 . S
C741 H736 0.950 . S
C741 C743 1.327 . S
C741 C747 1.429 . S
C742 C734 1.574 . S
C742 H737 0.949 . S
C742 C748 1.368 . S
C743 C727 1.349 . S
C743 H735 0.950 . S
C743 C741 1.327 . S
C744 C732 1.349 . S
C744 H738 0.950 . S
C744 C745 1.327 . S
C745 H739 0.950 . S
C745 C744 1.327 . S
C745 C749 1.429 . S
C746 C729 1.574 . S
C746 H740 0.949 . S
C746 C750 1.368 . S
C747 C728 1.429 . S
C747 C741 1.429 . S
C747 C748 1.523 . S
C748 C729 1.368 . S
C748 C742 1.368 . S
C748 C747 1.523 . S
C749 C733 1.429 . S
C749 C745 1.429 . S
C749 C750 1.523 . S
C750 C734 1.368 . S
C750 C746 1.368 . S
C750 C749 1.523 . S
H751 C726 0.950 . S
H752 C728 0.950 . S
H753 C729 0.949 . S
H754 C731 0.950 . S
H755 C733 0.950 . S
C756 C757 1.349 . S
C756 C758 1.327 . S
C756 H781 0.950 . S
C757 C756 1.349 . S
C757 C773 1.349 . S
C758 C756 1.327 . S
C758 C777 1.429 . S
C758 H782 0.950 . S
C759 C776 1.574 . S
C759 C778 1.368 . S
C759 H783 0.949 . S
H760 C764 0.949 . S
C761 C762 1.349 . S
C761 C763 1.327 . S
C761 H784 0.950 . S
C762 C761 1.349 . S
C762 C774 1.349 . S
C763 C761 1.327 . S
C763 C779 1.429 . S
C763 H785 0.950 . S
C764 H760 0.949 . S
C764 C772 1.574 . S
C764 C780 1.368 . S
H765 C773 0.950 . S
H766 C771 0.950 . S
H767 C772 0.949 . S
H768 C774 0.950 . S
H769 C775 0.950 . S
H770 C776 0.949 . S
C771 H766 0.950 . S
C771 C773 1.327 . S
C771 C777 1.429 . S
C772 C764 1.574 . S
C772 H767 0.949 . S
C772 C778 1.368 . S
C773 C757 1.349 . S
C773 H765 0.950 . S
C773 C771 1.327 . S
C774 C762 1.349 . S
C774 H768 0.950 . S
C774 C775 1.327 . S
C775 H769 0.950 . S
C775 C774 1.327 . S
C775 C779 1.429 . S
C776 C759 1.574 . S
C776 H770 0.949 . S
C776 C780 1.368 . S
C777 C758 1.429 . S
C777 C771 1.429 . S
C777 C778 1.523 . S
C778 C759 1.368 . S
C778 C772 1.368 . S
C778 C777 1.523 . S
C779 C763 1.429 . S
C779 C775 1.429 . S
C779 C780 1.523 . S
C780 C764 1.368 . S
C780 C776 1.368 . S
C780 C779 1.523 . S
H781 C756 0.950 . S
H782 C758 0.950 . S
H783 C759 0.949 . S
H784 C761 0.950 . S
H785 C763 0.950 . S
C786 C787 1.349 . S
C786 C788 1.327 . S
C786 H811 0.950 . S
C787 C786 1.349 . S
C787 C803 1.349 . S
C788 C786 1.327 . S
C788 C807 1.429 . S
C788 H812 0.950 . S
C789 C806 1.574 . S
C789 C808 1.368 . S
C789 H813 0.949 . S
H790 C794 0.949 . S
C791 C792 1.349 . S
C791 C793 1.327 . S
C791 H814 0.950 . S
C792 C791 1.349 . S
C792 C804 1.349 . S
C793 C791 1.327 . S
C793 C809 1.429 . S
C793 H815 0.950 . S
C794 H790 0.949 . S
C794 C802 1.574 . S
C794 C810 1.368 . S
H795 C803 0.950 . S
H796 C801 0.950 . S
H797 C802 0.949 . S
H798 C804 0.950 . S
H799 C805 0.950 . S
H800 C806 0.949 . S
C801 H796 0.950 . S
C801 C803 1.327 . S
C801 C807 1.429 . S
C802 C794 1.574 . S
C802 H797 0.949 . S
C802 C808 1.368 . S
C803 C787 1.349 . S
C803 H795 0.950 . S
C803 C801 1.327 . S
C804 C792 1.349 . S
C804 H798 0.950 . S
C804 C805 1.327 . S
C805 H799 0.950 . S
C805 C804 1.327 . S
C805 C809 1.429 . S
C806 C789 1.574 . S
C806 H800 0.949 . S
C806 C810 1.368 . S
C807 C788 1.429 . S
C807 C801 1.429 . S
C807 C808 1.523 . S
C808 C789 1.368 . S
C808 C802 1.368 . S
C808 C807 1.523 . S
C809 C793 1.429 . S
C809 C805 1.429 . S
C809 C810 1.523 . S
C810 C794 1.368 . S
C810 C806 1.368 . S
C810 C809 1.523 . S
H811 C786 0.950 . S
H812 C788 0.950 . S
H813 C789 0.949 . S
H814 C791 0.950 . S
H815 C793 0.950 . S
C816 C817 1.349 . S
C816 C818 1.327 . S
C816 H841 0.950 . S
C817 C816 1.349 . S
C817 C833 1.349 . S
C818 C816 1.327 . S
C818 C837 1.429 . S
C818 H842 0.950 . S
C819 C836 1.574 . S
C819 C838 1.368 . S
C819 H843 0.949 . S
H820 C824 0.949 . S
C821 C822 1.349 . S
C821 C823 1.327 . S
C821 H844 0.950 . S
C822 C821 1.349 . S
C822 C834 1.349 . S
C823 C821 1.327 . S
C823 C839 1.429 . S
C823 H845 0.950 . S
C824 H820 0.949 . S
C824 C832 1.574 . S
C824 C840 1.368 . S
H825 C833 0.950 . S
H826 C831 0.950 . S
H827 C832 0.949 . S
H828 C834 0.950 . S
H829 C835 0.950 . S
H830 C836 0.949 . S
C831 H826 0.950 . S
C831 C833 1.327 . S
C831 C837 1.429 . S
C832 C824 1.574 . S
C832 H827 0.949 . S
C832 C838 1.368 . S
C833 C817 1.349 . S
C833 H825 0.950 . S
C833 C831 1.327 . S
C834 C822 1.349 . S
C834 H828 0.950 . S
C834 C835 1.327 . S
C835 H829 0.950 . S
C835 C834 1.327 . S
C835 C839 1.429 . S
C836 C819 1.574 . S
C836 H830 0.949 . S
C836 C840 1.368 . S
C837 C818 1.429 . S
C837 C831 1.429 . S
C837 C838 1.523 . S
C838 C819 1.368 . S
C838 C832 1.368 . S
C838 C837 1.523 . S
C839 C823 1.429 . S
C839 C835 1.429 . S
C839 C840 1.523 . S
C840 C824 1.368 . S
C840 C836 1.368 . S
C840 C839 1.523 . S
H841 C816 0.950 . S
H842 C818 0.950 . S
H843 C819 0.949 . S
H844 C821 0.950 . S
H845 C823 0.950 . S
C846 C847 1.349 . S
C846 C848 1.327 . S
C846 H871 0.950 . S
C847 C846 1.349 . S
C847 C863 1.349 . S
C848 C846 1.327 . S
C848 C867 1.429 . S
C848 H872 0.950 . S
C849 C866 1.574 . S
C849 C868 1.368 . S
C849 H873 0.949 . S
H850 C854 0.949 . S
C851 C852 1.349 . S
C851 C853 1.327 . S
C851 H874 0.950 . S
C852 C851 1.349 . S
C852 C864 1.349 . S
C853 C851 1.327 . S
C853 C869 1.429 . S
C853 H875 0.950 . S
C854 H850 0.949 . S
C854 C862 1.574 . S
C854 C870 1.368 . S
H855 C863 0.950 . S
H856 C861 0.950 . S
H857 C862 0.949 . S
H858 C864 0.950 . S
H859 C865 0.950 . S
H860 C866 0.949 . S
C861 H856 0.950 . S
C861 C863 1.327 . S
C861 C867 1.429 . S
C862 C854 1.574 . S
C862 H857 0.949 . S
C862 C868 1.368 . S
C863 C847 1.349 . S
C863 H855 0.950 . S
C863 C861 1.327 . S
C864 C852 1.349 . S
C864 H858 0.950 . S
C864 C865 1.327 . S
C865 H859 0.950 . S
C865 C864 1.327 . S
C865 C869 1.429 . S
C866 C849 1.574 . S
C866 H860 0.949 . S
C866 C870 1.368 . S
C867 C848 1.429 . S
C867 C861 1.429 . S
C867 C868 1.523 . S
C868 C849 1.368 . S
C868 C862 1.368 . S
C868 C867 1.523 . S
C869 C853 1.429 . S
C869 C865 1.429 . S
C869 C870 1.523 . S
C870 C854 1.368 . S
C870 C866 1.368 . S
C870 C869 1.523 . S
H871 C846 0.950 . S
H872 C848 0.950 . S
H873 C849 0.949 . S
H874 C851 0.950 . S
H875 C853 0.950 . S
C876 C877 1.349 . S
C876 C878 1.327 . S
C876 H901 0.950 . S
C877 C876 1.349 . S
C877 C893 1.349 . S
C878 C876 1.327 . S
C878 C897 1.429 . S
C878 H902 0.950 . S
C879 C896 1.574 . S
C879 C898 1.368 . S
C879 H903 0.949 . S
H880 C884 0.949 . S
C881 C882 1.349 . S
C881 C883 1.327 . S
C881 H904 0.950 . S
C882 C881 1.349 . S
C882 C894 1.349 . S
C883 C881 1.327 . S
C883 C899 1.429 . S
C883 H905 0.950 . S
C884 H880 0.949 . S
C884 C892 1.574 . S
C884 C900 1.368 . S
H885 C893 0.950 . S
H886 C891 0.950 . S
H887 C892 0.949 . S
H888 C894 0.950 . S
H889 C895 0.950 . S
H890 C896 0.949 . S
C891 H886 0.950 . S
C891 C893 1.327 . S
C891 C897 1.429 . S
C892 C884 1.574 . S
C892 H887 0.949 . S
C892 C898 1.368 . S
C893 C877 1.349 . S
C893 H885 0.950 . S
C893 C891 1.327 . S
C894 C882 1.349 . S
C894 H888 0.950 . S
C894 C895 1.327 . S
C895 H889 0.950 . S
C895 C894 1.327 . S
C895 C899 1.429 . S
C896 C879 1.574 . S
C896 H890 0.949 . S
C896 C900 1.368 . S
C897 C878 1.429 . S
C897 C891 1.429 . S
C897 C898 1.523 . S
C898 C879 1.368 . S
C898 C892 1.368 . S
C898 C897 1.523 . S
C899 C883 1.429 . S
C899 C895 1.429 . S
C899 C900 1.523 . S
C900 C884 1.368 . S
C900 C896 1.368 . S
C900 C899 1.523 . S
H901 C876 0.950 . S
H902 C878 0.950 . S
H903 C879 0.949 . S
H904 C881 0.950 . S
H905 C883 0.950 . S
C906 C907 1.349 . S
C906 C908 1.327 . S
C906 H931 0.950 . S
C907 C906 1.349 . S
C907 C923 1.349 . S
C908 C906 1.327 . S
C908 C927 1.429 . S
C908 H932 0.950 . S
C909 C926 1.574 . S
C909 C928 1.368 . S
C909 H933 0.949 . S
H910 C914 0.949 . S
C911 C912 1.349 . S
C911 C913 1.327 . S
C911 H934 0.950 . S
C912 C911 1.349 . S
C912 C924 1.349 . S
C913 C911 1.327 . S
C913 C929 1.429 . S
C913 H935 0.950 . S
C914 H910 0.949 . S
C914 C922 1.574 . S
C914 C930 1.368 . S
H915 C923 0.950 . S
H916 C921 0.950 . S
H917 C922 0.949 . S
H918 C924 0.950 . S
H919 C925 0.950 . S
H920 C926 0.949 . S
C921 H916 0.950 . S
C921 C923 1.327 . S
C921 C927 1.429 . S
C922 C914 1.574 . S
C922 H917 0.949 . S
C922 C928 1.368 . S
C923 C907 1.349 . S
C923 H915 0.950 . S
C923 C921 1.327 . S
C924 C912 1.349 . S
C924 H918 0.950 . S
C924 C925 1.327 . S
C925 H919 0.950 . S
C925 C924 1.327 . S
C925 C929 1.429 . S
C926 C909 1.574 . S
C926 H920 0.949 . S
C926 C930 1.368 . S
C927 C908 1.429 . S
C927 C921 1.429 . S
C927 C928 1.523 . S
C928 C909 1.368 . S
C928 C922 1.368 . S
C928 C927 1.523 . S
C929 C913 1.429 . S
C929 C925 1.429 . S
C929 C930 1.523 . S
C930 C914 1.368 . S
C930 C926 1.368 . S
C930 C929 1.523 . S
H931 C906 0.950 . S
H932 C908 0.950 . S
H933 C909 0.949 . S
H934 C911 0.950 . S
H935 C913 0.950 . S
C936 C937 1.349 . S
C936 C938 1.327 . S
C936 H961 0.950 . S
C937 C936 1.349 . S
C937 C953 1.349 . S
C938 C936 1.327 . S
C938 C957 1.429 . S
C938 H962 0.950 . S
C939 C956 1.574 . S
C939 C958 1.368 . S
C939 H963 0.949 . S
H940 C944 0.949 . S
C941 C942 1.349 . S
C941 C943 1.327 . S
C941 H964 0.950 . S
C942 C941 1.349 . S
C942 C954 1.349 . S
C943 C941 1.327 . S
C943 C959 1.429 . S
C943 H965 0.950 . S
C944 H940 0.949 . S
C944 C952 1.574 . S
C944 C960 1.368 . S
H945 C953 0.950 . S
H946 C951 0.950 . S
H947 C952 0.949 . S
H948 C954 0.950 . S
H949 C955 0.950 . S
H950 C956 0.949 . S
C951 H946 0.950 . S
C951 C953 1.327 . S
C951 C957 1.429 . S
C952 C944 1.574 . S
C952 H947 0.949 . S
C952 C958 1.368 . S
C953 C937 1.349 . S
C953 H945 0.950 . S
C953 C951 1.327 . S
C954 C942 1.349 . S
C954 H948 0.950 . S
C954 C955 1.327 . S
C955 H949 0.950 . S
C955 C954 1.327 . S
C955 C959 1.429 . S
C956 C939 1.574 . S
C956 H950 0.949 . S
C956 C960 1.368 . S
C957 C938 1.429 . S
C957 C951 1.429 . S
C957 C958 1.523 . S
C958 C939 1.368 . S
C958 C952 1.368 . S
C958 C957 1.523 . S
C959 C943 1.429 . S
C959 C955 1.429 . S
C959 C960 1.523 . S
C960 C944 1.368 . S
C960 C956 1.368 . S
C960 C959 1.523 . S
H961 C936 0.950 . S
H962 C938 0.950 . S
H963 C939 0.949 . S
H964 C941 0.950 . S
H965 C943 0.950 . S
C966 C967 1.349 . S
C966 C968 1.327 . S
C966 H991 0.950 . S
C967 C966 1.349 . S
C967 C983 1.349 . S
C968 C966 1.327 . S
C968 C987 1.429 . S
C968 H992 0.950 . S
C969 C986 1.574 . S
C969 C988 1.368 . S
C969 H993 0.949 . S
H970 C974 0.949 . S
C971 C972 1.349 . S
C971 C973 1.327 . S
C971 H994 0.950 . S
C972 C971 1.349 . S
C972 C984 1.349 . S
C973 C971 1.327 . S
C973 C989 1.429 . S
C973 H995 0.950 . S
C974 H970 0.949 . S
C974 C982 1.574 . S
C974 C990 1.368 . S
H975 C983 0.950 . S
H976 C981 0.950 . S
H977 C982 0.949 . S
H978 C984 0.950 . S
H979 C985 0.950 . S
H980 C986 0.949 . S
C981 H976 0.950 . S
C981 C983 1.327 . S
C981 C987 1.429 . S
C982 C974 1.574 . S
C982 H977 0.949 . S
C982 C988 1.368 . S
C983 C967 1.349 . S
C983 H975 0.950 . S
C983 C981 1.327 . S
C984 C972 1.349 . S
C984 H978 0.950 . S
C984 C985 1.327 . S
C985 H979 0.950 . S
C985 C984 1.327 . S
C985 C989 1.429 . S
C986 C969 1.574 . S
C986 H980 0.949 . S
C986 C990 1.368 . S
C987 C968 1.429 . S
C987 C981 1.429 . S
C987 C988 1.523 . S
C988 C969 1.368 . S
C988 C982 1.368 . S
C988 C987 1.523 . S
C989 C973 1.429 . S
C989 C985 1.429 . S
C989 C990 1.523 . S
C990 C974 1.368 . S
C990 C986 1.368 . S
C990 C989 1.523 . S
H991 C966 0.950 . S
H992 C968 0.950 . S
H993 C969 0.949 . S
H994 C971 0.950 . S
H995 C973 0.950 . S
C996 C997 1.349 . S
C996 C998 1.327 . S
C996 H1021 0.950 . S
C997 C996 1.349 . S
C997 C1013 1.349 . S
C998 C996 1.327 . S
C998 C1017 1.429 . S
C998 H1022 0.950 . S
C999 C1016 1.574 . S
C999 C1018 1.368 . S
C999 H1023 0.949 . S
H1000 C1004 0.949 . S
C1001 C1002 1.349 . S
C1001 C1003 1.327 . S
C1001 H1024 0.950 . S
C1002 C1001 1.349 . S
C1002 C1014 1.349 . S
C1003 C1001 1.327 . S
C1003 C1019 1.429 . S
C1003 H1025 0.950 . S
C1004 H1000 0.949 . S
C1004 C1012 1.574 . S
C1004 C1020 1.368 . S
H1005 C1013 0.950 . S
H1006 C1011 0.950 . S
H1007 C1012 0.949 . S
H1008 C1014 0.950 . S
H1009 C1015 0.950 . S
H1010 C1016 0.949 . S
C1011 H1006 0.950 . S
C1011 C1013 1.327 . S
C1011 C1017 1.429 . S
C1012 C1004 1.574 . S
C1012 H1007 0.949 . S
C1012 C1018 1.368 . S
C1013 C997 1.349 . S
C1013 H1005 0.950 . S
C1013 C1011 1.327 . S
C1014 C1002 1.349 . S
C1014 H1008 0.950 . S
C1014 C1015 1.327 . S
C1015 H1009 0.950 . S
C1015 C1014 1.327 . S
C1015 C1019 1.429 . S
C1016 C999 1.574 . S
C1016 H1010 0.949 . S
C1016 C1020 1.368 . S
C1017 C998 1.429 . S
C1017 C1011 1.429 . S
C1017 C1018 1.523 . S
C1018 C999 1.368 . S
C1018 C1012 1.368 . S
C1018 C1017 1.523 . S
C1019 C1003 1.429 . S
C1019 C1015 1.429 . S
C1019 C1020 1.523 . S
C1020 C1004 1.368 . S
C1020 C1016 1.368 . S
C1020 C1019 1.523 . S
H1021 C996 0.950 . S
H1022 C998 0.950 . S
H1023 C999 0.949 . S
H1024 C1001 0.950 . S
H1025 C1003 0.950 . S
C1026 C1027 1.349 . S
C1026 C1028 1.327 . S
C1026 H1051 0.950 . S
C1027 C1026 1.349 . S
C1027 C1043 1.349 . S
C1028 C1026 1.327 . S
C1028 C1047 1.429 . S
C1028 H1052 0.950 . S
C1029 C1046 1.574 . S
C1029 C1048 1.368 . S
C1029 H1053 0.949 . S
H1030 C1034 0.949 . S
C1031 C1032 1.349 . S
C1031 C1033 1.327 . S
C1031 H1054 0.950 . S
C1032 C1031 1.349 . S
C1032 C1044 1.349 . S
C1033 C1031 1.327 . S
C1033 C1049 1.429 . S
C1033 H1055 0.950 . S
C1034 H1030 0.949 . S
C1034 C1042 1.574 . S
C1034 C1050 1.368 . S
H1035 C1043 0.950 . S
H1036 C1041 0.950 . S
H1037 C1042 0.949 . S
H1038 C1044 0.950 . S
H1039 C1045 0.950 . S
H1040 C1046 0.949 . S
C1041 H1036 0.950 . S
C1041 C1043 1.327 . S
C1041 C1047 1.429 . S
C1042 C1034 1.574 . S
C1042 H1037 0.949 . S
C1042 C1048 1.368 . S
C1043 C1027 1.349 . S
C1043 H1035 0.950 . S
C1043 C1041 1.327 . S
C1044 C1032 1.349 . S
C1044 H1038 0.950 . S
C1044 C1045 1.327 . S
C1045 H1039 0.950 . S
C1045 C1044 1.327 . S
C1045 C1049 1.429 . S
C1046 C1029 1.574 . S
C1046 H1040 0.949 . S
C1046 C1050 1.368 . S
C1047 C1028 1.429 . S
C1047 C1041 1.429 . S
C1047 C1048 1.523 . S
C1048 C1029 1.368 . S
C1048 C1042 1.368 . S
C1048 C1047 1.523 . S
C1049 C1033 1.429 . S
C1049 C1045 1.429 . S
C1049 C1050 1.523 . S
C1050 C1034 1.368 . S
C1050 C1046 1.368 . S
C1050 C1049 1.523 . S
H1051 C1026 0.950 . S
H1052 C1028 0.950 . S
H1053 C1029 0.949 . S
H1054 C1031 0.950 . S
H1055 C1033 0.950 . S
C1056 C1057 1.349 . S
C1056 C1058 1.327 . S
C1056 H1081 0.950 . S
C1057 C1056 1.349 . S
C1057 C1073 1.349 . S
C1058 C1056 1.327 . S
C1058 C1077 1.429 . S
C1058 H1082 0.950 . S
C1059 C1076 1.574 1_554 S
C1059 C1078 1.368 . S
C1059 H1083 0.949 . S
H1060 C1064 0.949 . S
C1061 C1062 1.349 . S
C1061 C1063 1.327 . S
C1061 H1084 0.950 . S
C1062 C1061 1.349 . S
C1062 C1074 1.349 . S
C1063 C1061 1.327 . S
C1063 C1079 1.429 . S
C1063 H1085 0.950 . S
C1064 H1060 0.949 . S
C1064 C1072 1.574 1_556 S
C1064 C1080 1.368 . S
H1065 C1073 0.950 . S
H1066 C1071 0.950 . S
H1067 C1072 0.949 . S
H1068 C1074 0.950 . S
H1069 C1075 0.950 . S
H1070 C1076 0.949 . S
C1071 H1066 0.950 . S
C1071 C1073 1.327 . S
C1071 C1077 1.429 . S
C1072 C1064 1.574 1_554 S
C1072 H1067 0.949 . S
C1072 C1078 1.368 . S
C1073 C1057 1.349 . S
C1073 H1065 0.950 . S
C1073 C1071 1.327 . S
C1074 C1062 1.349 . S
C1074 H1068 0.950 . S
C1074 C1075 1.327 . S
C1075 H1069 0.950 . S
C1075 C1074 1.327 . S
C1075 C1079 1.429 . S
C1076 C1059 1.574 1_556 S
C1076 H1070 0.949 . S
C1076 C1080 1.368 . S
C1077 C1058 1.429 . S
C1077 C1071 1.429 . S
C1077 C1078 1.523 . S
C1078 C1059 1.368 . S
C1078 C1072 1.368 . S
C1078 C1077 1.523 . S
C1079 C1063 1.429 . S
C1079 C1075 1.429 . S
C1079 C1080 1.523 . S
C1080 C1064 1.368 . S
C1080 C1076 1.368 . S
C1080 C1079 1.523 . S
H1081 C1056 0.950 . S
H1082 C1058 0.950 . S
H1083 C1059 0.949 . S
H1084 C1061 0.950 . S
H1085 C1063 0.950 . S
C1086 C1087 1.349 . S
C1086 C1088 1.327 . S
C1086 H1111 0.950 . S
C1087 C1086 1.349 . S
C1087 C1103 1.349 . S
C1088 C1086 1.327 . S
C1088 C1107 1.429 . S
C1088 H1112 0.950 . S
C1089 C1106 1.574 1_556 S
C1089 C1108 1.368 . S
C1089 H1113 0.949 . S
H1090 C1094 0.949 . S
C1091 C1092 1.349 . S
C1091 C1093 1.327 . S
C1091 H1114 0.950 . S
C1092 C1091 1.349 . S
C1092 C1104 1.349 . S
C1093 C1091 1.327 . S
C1093 C1109 1.429 . S
C1093 H1115 0.950 . S
C1094 H1090 0.949 . S
C1094 C1102 1.574 1_554 S
C1094 C1110 1.368 . S
H1095 C1103 0.950 . S
H1096 C1101 0.950 . S
H1097 C1102 0.949 . S
H1098 C1104 0.950 . S
H1099 C1105 0.950 . S
H1100 C1106 0.949 . S
C1101 H1096 0.950 . S
C1101 C1103 1.327 . S
C1101 C1107 1.429 . S
C1102 C1094 1.574 1_556 S
C1102 H1097 0.949 . S
C1102 C1108 1.368 . S
C1103 C1087 1.349 . S
C1103 H1095 0.950 . S
C1103 C1101 1.327 . S
C1104 C1092 1.349 . S
C1104 H1098 0.950 . S
C1104 C1105 1.327 . S
C1105 H1099 0.950 . S
C1105 C1104 1.327 . S
C1105 C1109 1.429 . S
C1106 C1089 1.574 1_554 S
C1106 H1100 0.949 . S
C1106 C1110 1.368 . S
C1107 C1088 1.429 . S
C1107 C1101 1.429 . S
C1107 C1108 1.523 . S
C1108 C1089 1.368 . S
C1108 C1102 1.368 . S
C1108 C1107 1.523 . S
C1109 C1093 1.429 . S
C1109 C1105 1.429 . S
C1109 C1110 1.523 . S
C1110 C1094 1.368 . S
C1110 C1106 1.368 . S
C1110 C1109 1.523 . S
H1111 C1086 0.950 . S
H1112 C1088 0.950 . S
H1113 C1089 0.949 . S
H1114 C1091 0.950 . S
H1115 C1093 0.950 . S
C1116 C1117 1.349 . S
C1116 C1118 1.327 . S
C1116 H1141 0.950 . S
C1117 C1116 1.349 . S
C1117 C1133 1.349 . S
C1118 C1116 1.327 . S
C1118 C1137 1.429 . S
C1118 H1142 0.950 . S
C1119 C1136 1.574 1_556 S
C1119 C1138 1.368 . S
C1119 H1143 0.949 . S
H1120 C1124 0.949 . S
C1121 C1122 1.349 . S
C1121 C1123 1.327 . S
C1121 H1144 0.950 . S
C1122 C1121 1.349 . S
C1122 C1134 1.349 . S
C1123 C1121 1.327 . S
C1123 C1139 1.429 . S
C1123 H1145 0.950 . S
C1124 H1120 0.949 . S
C1124 C1132 1.574 1_554 S
C1124 C1140 1.368 . S
H1125 C1133 0.950 . S
H1126 C1131 0.950 . S
H1127 C1132 0.949 . S
H1128 C1134 0.950 . S
H1129 C1135 0.950 . S
H1130 C1136 0.949 . S
C1131 H1126 0.950 . S
C1131 C1133 1.327 . S
C1131 C1137 1.429 . S
C1132 C1124 1.574 1_556 S
C1132 H1127 0.949 . S
C1132 C1138 1.368 . S
C1133 C1117 1.349 . S
C1133 H1125 0.950 . S
C1133 C1131 1.327 . S
C1134 C1122 1.349 . S
C1134 H1128 0.950 . S
C1134 C1135 1.327 . S
C1135 H1129 0.950 . S
C1135 C1134 1.327 . S
C1135 C1139 1.429 . S
C1136 C1119 1.574 1_554 S
C1136 H1130 0.949 . S
C1136 C1140 1.368 . S
C1137 C1118 1.429 . S
C1137 C1131 1.429 . S
C1137 C1138 1.523 . S
C1138 C1119 1.368 . S
C1138 C1132 1.368 . S
C1138 C1137 1.523 . S
C1139 C1123 1.429 . S
C1139 C1135 1.429 . S
C1139 C1140 1.523 . S
C1140 C1124 1.368 . S
C1140 C1136 1.368 . S
C1140 C1139 1.523 . S
H1141 C1116 0.950 . S
H1142 C1118 0.950 . S
H1143 C1119 0.949 . S
H1144 C1121 0.950 . S
H1145 C1123 0.950 . S
C1146 C1147 1.349 . S
C1146 C1148 1.327 . S
C1146 H1171 0.950 . S
C1147 C1146 1.349 . S
C1147 C1163 1.349 . S
C1148 C1146 1.327 . S
C1148 C1167 1.429 . S
C1148 H1172 0.950 . S
C1149 C1166 1.574 1_554 S
C1149 C1168 1.368 . S
C1149 H1173 0.949 . S
H1150 C1154 0.949 . S
C1151 C1152 1.349 . S
C1151 C1153 1.327 . S
C1151 H1174 0.950 . S
C1152 C1151 1.349 . S
C1152 C1164 1.349 . S
C1153 C1151 1.327 . S
C1153 C1169 1.429 . S
C1153 H1175 0.950 . S
C1154 H1150 0.949 . S
C1154 C1162 1.574 1_556 S
C1154 C1170 1.368 . S
H1155 C1163 0.950 . S
H1156 C1161 0.950 . S
H1157 C1162 0.949 . S
H1158 C1164 0.950 . S
H1159 C1165 0.950 . S
H1160 C1166 0.949 . S
C1161 H1156 0.950 . S
C1161 C1163 1.327 . S
C1161 C1167 1.429 . S
C1162 C1154 1.574 1_554 S
C1162 H1157 0.949 . S
C1162 C1168 1.368 . S
C1163 C1147 1.349 . S
C1163 H1155 0.950 . S
C1163 C1161 1.327 . S
C1164 C1152 1.349 . S
C1164 H1158 0.950 . S
C1164 C1165 1.327 . S
C1165 H1159 0.950 . S
C1165 C1164 1.327 . S
C1165 C1169 1.429 . S
C1166 C1149 1.574 1_556 S
C1166 H1160 0.949 . S
C1166 C1170 1.368 . S
C1167 C1148 1.429 . S
C1167 C1161 1.429 . S
C1167 C1168 1.523 . S
C1168 C1149 1.368 . S
C1168 C1162 1.368 . S
C1168 C1167 1.523 . S
C1169 C1153 1.429 . S
C1169 C1165 1.429 . S
C1169 C1170 1.523 . S
C1170 C1154 1.368 . S
C1170 C1166 1.368 . S
C1170 C1169 1.523 . S
H1171 C1146 0.950 . S
H1172 C1148 0.950 . S
H1173 C1149 0.949 . S
H1174 C1151 0.950 . S
H1175 C1153 0.950 . S
C1176 C1177 1.349 . S
C1176 C1178 1.327 . S
C1176 H1201 0.950 . S
C1177 C1176 1.349 . S
C1177 C1193 1.349 . S
C1178 C1176 1.327 . S
C1178 C1197 1.429 . S
C1178 H1202 0.950 . S
C1179 C1196 1.574 1_554 S
C1179 C1198 1.368 . S
C1179 H1203 0.949 . S
H1180 C1184 0.949 . S
C1181 C1182 1.349 . S
C1181 C1183 1.327 . S
C1181 H1204 0.950 . S
C1182 C1181 1.349 . S
C1182 C1194 1.349 . S
C1183 C1181 1.327 . S
C1183 C1199 1.429 . S
C1183 H1205 0.950 . S
C1184 H1180 0.949 . S
C1184 C1192 1.574 1_556 S
C1184 C1200 1.368 . S
H1185 C1193 0.950 . S
H1186 C1191 0.950 . S
H1187 C1192 0.949 . S
H1188 C1194 0.950 . S
H1189 C1195 0.950 . S
H1190 C1196 0.949 . S
C1191 H1186 0.950 . S
C1191 C1193 1.327 . S
C1191 C1197 1.429 . S
C1192 C1184 1.574 1_554 S
C1192 H1187 0.949 . S
C1192 C1198 1.368 . S
C1193 C1177 1.349 . S
C1193 H1185 0.950 . S
C1193 C1191 1.327 . S
C1194 C1182 1.349 . S
C1194 H1188 0.950 . S
C1194 C1195 1.327 . S
C1195 H1189 0.950 . S
C1195 C1194 1.327 . S
C1195 C1199 1.429 . S
C1196 C1179 1.574 1_556 S
C1196 H1190 0.949 . S
C1196 C1200 1.368 . S
C1197 C1178 1.429 . S
C1197 C1191 1.429 . S
C1197 C1198 1.523 . S
C1198 C1179 1.368 . S
C1198 C1192 1.368 . S
C1198 C1197 1.523 . S
C1199 C1183 1.429 . S
C1199 C1195 1.429 . S
C1199 C1200 1.523 . S
C1200 C1184 1.368 . S
C1200 C1196 1.368 . S
C1200 C1199 1.523 . S
H1201 C1176 0.950 . S
H1202 C1178 0.950 . S
H1203 C1179 0.949 . S
H1204 C1181 0.950 . S
H1205 C1183 0.950 . S
C1206 C1207 1.349 . S
C1206 C1208 1.327 . S
C1206 H1231 0.950 . S
C1207 C1206 1.349 . S
C1207 C1223 1.349 . S
C1208 C1206 1.327 . S
C1208 C1227 1.429 . S
C1208 H1232 0.950 . S
C1209 C1226 1.574 1_556 S
C1209 C1228 1.368 . S
C1209 H1233 0.949 . S
H1210 C1214 0.949 . S
C1211 C1212 1.349 . S
C1211 C1213 1.327 . S
C1211 H1234 0.950 . S
C1212 C1211 1.349 . S
C1212 C1224 1.349 . S
C1213 C1211 1.327 . S
C1213 C1229 1.429 . S
C1213 H1235 0.950 . S
C1214 H1210 0.949 . S
C1214 C1222 1.574 1_554 S
C1214 C1230 1.368 . S
H1215 C1223 0.950 . S
H1216 C1221 0.950 . S
H1217 C1222 0.949 . S
H1218 C1224 0.950 . S
H1219 C1225 0.950 . S
H1220 C1226 0.949 . S
C1221 H1216 0.950 . S
C1221 C1223 1.327 . S
C1221 C1227 1.429 . S
C1222 C1214 1.574 1_556 S
C1222 H1217 0.949 . S
C1222 C1228 1.368 . S
C1223 C1207 1.349 . S
C1223 H1215 0.950 . S
C1223 C1221 1.327 . S
C1224 C1212 1.349 . S
C1224 H1218 0.950 . S
C1224 C1225 1.327 . S
C1225 H1219 0.950 . S
C1225 C1224 1.327 . S
C1225 C1229 1.429 . S
C1226 C1209 1.574 1_554 S
C1226 H1220 0.949 . S
C1226 C1230 1.368 . S
C1227 C1208 1.429 . S
C1227 C1221 1.429 . S
C1227 C1228 1.523 . S
C1228 C1209 1.368 . S
C1228 C1222 1.368 . S
C1228 C1227 1.523 . S
C1229 C1213 1.429 . S
C1229 C1225 1.429 . S
C1229 C1230 1.523 . S
C1230 C1214 1.368 . S
C1230 C1226 1.368 . S
C1230 C1229 1.523 . S
H1231 C1206 0.950 . S
H1232 C1208 0.950 . S
H1233 C1209 0.949 . S
H1234 C1211 0.950 . S
H1235 C1213 0.950 . S
C1236 C1237 1.349 . S
C1236 C1238 1.327 . S
C1236 H1261 0.950 . S
C1237 C1236 1.349 . S
C1237 C1253 1.349 . S
C1238 C1236 1.327 . S
C1238 C1257 1.429 . S
C1238 H1262 0.950 . S
C1239 C1256 1.574 . S
C1239 C1258 1.368 . S
C1239 H1263 0.949 . S
H1240 C1244 0.949 . S
C1241 C1242 1.349 . S
C1241 C1243 1.327 . S
C1241 H1264 0.950 . S
C1242 C1241 1.349 . S
C1242 C1254 1.349 . S
C1243 C1241 1.327 . S
C1243 C1259 1.429 . S
C1243 H1265 0.950 . S
C1244 H1240 0.949 . S
C1244 C1252 1.574 . S
C1244 C1260 1.368 . S
H1245 C1253 0.950 . S
H1246 C1251 0.950 . S
H1247 C1252 0.949 . S
H1248 C1254 0.950 . S
H1249 C1255 0.950 . S
H1250 C1256 0.949 . S
C1251 H1246 0.950 . S
C1251 C1253 1.327 . S
C1251 C1257 1.429 . S
C1252 C1244 1.574 . S
C1252 H1247 0.949 . S
C1252 C1258 1.368 . S
C1253 C1237 1.349 . S
C1253 H1245 0.950 . S
C1253 C1251 1.327 . S
C1254 C1242 1.349 . S
C1254 H1248 0.950 . S
C1254 C1255 1.327 . S
C1255 H1249 0.950 . S
C1255 C1254 1.327 . S
C1255 C1259 1.429 . S
C1256 C1239 1.574 . S
C1256 H1250 0.949 . S
C1256 C1260 1.368 . S
C1257 C1238 1.429 . S
C1257 C1251 1.429 . S
C1257 C1258 1.523 . S
C1258 C1239 1.368 . S
C1258 C1252 1.368 . S
C1258 C1257 1.523 . S
C1259 C1243 1.429 . S
C1259 C1255 1.429 . S
C1259 C1260 1.523 . S
C1260 C1244 1.368 . S
C1260 C1256 1.368 . S
C1260 C1259 1.523 . S
H1261 C1236 0.950 . S
H1262 C1238 0.950 . S
H1263 C1239 0.949 . S
H1264 C1241 0.950 . S
H1265 C1243 0.950 . S
C1266 C1267 1.349 . S
C1266 C1268 1.327 . S
C1266 H1291 0.950 . S
C1267 C1266 1.349 . S
C1267 C1283 1.349 . S
C1268 C1266 1.327 . S
C1268 C1287 1.429 . S
C1268 H1292 0.950 . S
C1269 C1286 1.574 . S
C1269 C1288 1.368 . S
C1269 H1293 0.949 . S
H1270 C1274 0.949 . S
C1271 C1272 1.349 . S
C1271 C1273 1.327 . S
C1271 H1294 0.950 . S
C1272 C1271 1.349 . S
C1272 C1284 1.349 . S
C1273 C1271 1.327 . S
C1273 C1289 1.429 . S
C1273 H1295 0.950 . S
C1274 H1270 0.949 . S
C1274 C1282 1.574 . S
C1274 C1290 1.368 . S
H1275 C1283 0.950 . S
H1276 C1281 0.950 . S
H1277 C1282 0.949 . S
H1278 C1284 0.950 . S
H1279 C1285 0.950 . S
H1280 C1286 0.949 . S
C1281 H1276 0.950 . S
C1281 C1283 1.327 . S
C1281 C1287 1.429 . S
C1282 C1274 1.574 . S
C1282 H1277 0.949 . S
C1282 C1288 1.368 . S
C1283 C1267 1.349 . S
C1283 H1275 0.950 . S
C1283 C1281 1.327 . S
C1284 C1272 1.349 . S
C1284 H1278 0.950 . S
C1284 C1285 1.327 . S
C1285 H1279 0.950 . S
C1285 C1284 1.327 . S
C1285 C1289 1.429 . S
C1286 C1269 1.574 . S
C1286 H1280 0.949 . S
C1286 C1290 1.368 . S
C1287 C1268 1.429 . S
C1287 C1281 1.429 . S
C1287 C1288 1.523 . S
C1288 C1269 1.368 . S
C1288 C1282 1.368 . S
C1288 C1287 1.523 . S
C1289 C1273 1.429 . S
C1289 C1285 1.429 . S
C1289 C1290 1.523 . S
C1290 C1274 1.368 . S
C1290 C1286 1.368 . S
C1290 C1289 1.523 . S
H1291 C1266 0.950 . S
H1292 C1268 0.950 . S
H1293 C1269 0.949 . S
H1294 C1271 0.950 . S
H1295 C1273 0.950 . S
C1296 C1297 1.349 . S
C1296 C1298 1.327 . S
C1296 H1321 0.950 . S
C1297 C1296 1.349 . S
C1297 C1313 1.349 . S
C1298 C1296 1.327 . S
C1298 C1317 1.429 . S
C1298 H1322 0.950 . S
C1299 C1316 1.574 . S
C1299 C1318 1.368 . S
C1299 H1323 0.949 . S
H1300 C1304 0.949 . S
C1301 C1302 1.349 . S
C1301 C1303 1.327 . S
C1301 H1324 0.950 . S
C1302 C1301 1.349 . S
C1302 C1314 1.349 . S
C1303 C1301 1.327 . S
C1303 C1319 1.429 . S
C1303 H1325 0.950 . S
C1304 H1300 0.949 . S
C1304 C1312 1.574 . S
C1304 C1320 1.368 . S
H1305 C1313 0.950 . S
H1306 C1311 0.950 . S
H1307 C1312 0.949 . S
H1308 C1314 0.950 . S
H1309 C1315 0.950 . S
H1310 C1316 0.949 . S
C1311 H1306 0.950 . S
C1311 C1313 1.327 . S
C1311 C1317 1.429 . S
C1312 C1304 1.574 . S
C1312 H1307 0.949 . S
C1312 C1318 1.368 . S
C1313 C1297 1.349 . S
C1313 H1305 0.950 . S
C1313 C1311 1.327 . S
C1314 C1302 1.349 . S
C1314 H1308 0.950 . S
C1314 C1315 1.327 . S
C1315 H1309 0.950 . S
C1315 C1314 1.327 . S
C1315 C1319 1.429 . S
C1316 C1299 1.574 . S
C1316 H1310 0.949 . S
C1316 C1320 1.368 . S
C1317 C1298 1.429 . S
C1317 C1311 1.429 . S
C1317 C1318 1.523 . S
C1318 C1299 1.368 . S
C1318 C1312 1.368 . S
C1318 C1317 1.523 . S
C1319 C1303 1.429 . S
C1319 C1315 1.429 . S
C1319 C1320 1.523 . S
C1320 C1304 1.368 . S
C1320 C1316 1.368 . S
C1320 C1319 1.523 . S
H1321 C1296 0.950 . S
H1322 C1298 0.950 . S
H1323 C1299 0.949 . S
H1324 C1301 0.950 . S
H1325 C1303 0.950 . S
C1326 C1327 1.349 . S
C1326 C1328 1.327 . S
C1326 H1351 0.950 . S
C1327 C1326 1.349 . S
C1327 C1343 1.349 . S
C1328 C1326 1.327 . S
C1328 C1347 1.429 . S
C1328 H1352 0.950 . S
C1329 C1346 1.574 . S
C1329 C1348 1.368 . S
C1329 H1353 0.949 . S
H1330 C1334 0.949 . S
C1331 C1332 1.349 . S
C1331 C1333 1.327 . S
C1331 H1354 0.950 . S
C1332 C1331 1.349 . S
C1332 C1344 1.349 . S
C1333 C1331 1.327 . S
C1333 C1349 1.429 . S
C1333 H1355 0.950 . S
C1334 H1330 0.949 . S
C1334 C1342 1.574 . S
C1334 C1350 1.368 . S
H1335 C1343 0.950 . S
H1336 C1341 0.950 . S
H1337 C1342 0.949 . S
H1338 C1344 0.950 . S
H1339 C1345 0.950 . S
H1340 C1346 0.949 . S
C1341 H1336 0.950 . S
C1341 C1343 1.327 . S
C1341 C1347 1.429 . S
C1342 C1334 1.574 . S
C1342 H1337 0.949 . S
C1342 C1348 1.368 . S
C1343 C1327 1.349 . S
C1343 H1335 0.950 . S
C1343 C1341 1.327 . S
C1344 C1332 1.349 . S
C1344 H1338 0.950 . S
C1344 C1345 1.327 . S
C1345 H1339 0.950 . S
C1345 C1344 1.327 . S
C1345 C1349 1.429 . S
C1346 C1329 1.574 . S
C1346 H1340 0.949 . S
C1346 C1350 1.368 . S
C1347 C1328 1.429 . S
C1347 C1341 1.429 . S
C1347 C1348 1.523 . S
C1348 C1329 1.368 . S
C1348 C1342 1.368 . S
C1348 C1347 1.523 . S
C1349 C1333 1.429 . S
C1349 C1345 1.429 . S
C1349 C1350 1.523 . S
C1350 C1334 1.368 . S
C1350 C1346 1.368 . S
C1350 C1349 1.523 . S
H1351 C1326 0.950 . S
H1352 C1328 0.950 . S
H1353 C1329 0.949 . S
H1354 C1331 0.950 . S
H1355 C1333 0.950 . S
C1356 C1357 1.349 . S
C1356 C1358 1.327 . S
C1356 H1381 0.950 . S
C1357 C1356 1.349 . S
C1357 C1373 1.349 . S
C1358 C1356 1.327 . S
C1358 C1377 1.429 . S
C1358 H1382 0.950 . S
C1359 C1376 1.574 . S
C1359 C1378 1.368 . S
C1359 H1383 0.949 . S
H1360 C1364 0.949 . S
C1361 C1362 1.349 . S
C1361 C1363 1.327 . S
C1361 H1384 0.950 . S
C1362 C1361 1.349 . S
C1362 C1374 1.349 . S
C1363 C1361 1.327 . S
C1363 C1379 1.429 . S
C1363 H1385 0.950 . S
C1364 H1360 0.949 . S
C1364 C1372 1.574 . S
C1364 C1380 1.368 . S
H1365 C1373 0.950 . S
H1366 C1371 0.950 . S
H1367 C1372 0.949 . S
H1368 C1374 0.950 . S
H1369 C1375 0.950 . S
H1370 C1376 0.949 . S
C1371 H1366 0.950 . S
C1371 C1373 1.327 . S
C1371 C1377 1.429 . S
C1372 C1364 1.574 . S
C1372 H1367 0.949 . S
C1372 C1378 1.368 . S
C1373 C1357 1.349 . S
C1373 H1365 0.950 . S
C1373 C1371 1.327 . S
C1374 C1362 1.349 . S
C1374 H1368 0.950 . S
C1374 C1375 1.327 . S
C1375 H1369 0.950 . S
C1375 C1374 1.327 . S
C1375 C1379 1.429 . S
C1376 C1359 1.574 . S
C1376 H1370 0.949 . S
C1376 C1380 1.368 . S
C1377 C1358 1.429 . S
C1377 C1371 1.429 . S
C1377 C1378 1.523 . S
C1378 C1359 1.368 . S
C1378 C1372 1.368 . S
C1378 C1377 1.523 . S
C1379 C1363 1.429 . S
C1379 C1375 1.429 . S
C1379 C1380 1.523 . S
C1380 C1364 1.368 . S
C1380 C1376 1.368 . S
C1380 C1379 1.523 . S
H1381 C1356 0.950 . S
H1382 C1358 0.950 . S
H1383 C1359 0.949 . S
H1384 C1361 0.950 . S
H1385 C1363 0.950 . S
C1386 C1387 1.349 . S
C1386 C1388 1.327 . S
C1386 H1411 0.950 . S
C1387 C1386 1.349 . S
C1387 C1403 1.349 . S
C1388 C1386 1.327 . S
C1388 C1407 1.429 . S
C1388 H1412 0.950 . S
C1389 C1406 1.574 . S
C1389 C1408 1.368 . S
C1389 H1413 0.949 . S
H1390 C1394 0.949 . S
C1391 C1392 1.349 . S
C1391 C1393 1.327 . S
C1391 H1414 0.950 . S
C1392 C1391 1.349 . S
C1392 C1404 1.349 . S
C1393 C1391 1.327 . S
C1393 C1409 1.429 . S
C1393 H1415 0.950 . S
C1394 H1390 0.949 . S
C1394 C1402 1.574 . S
C1394 C1410 1.368 . S
H1395 C1403 0.950 . S
H1396 C1401 0.950 . S
H1397 C1402 0.949 . S
H1398 C1404 0.950 . S
H1399 C1405 0.950 . S
H1400 C1406 0.949 . S
C1401 H1396 0.950 . S
C1401 C1403 1.327 . S
C1401 C1407 1.429 . S
C1402 C1394 1.574 . S
C1402 H1397 0.949 . S
C1402 C1408 1.368 . S
C1403 C1387 1.349 . S
C1403 H1395 0.950 . S
C1403 C1401 1.327 . S
C1404 C1392 1.349 . S
C1404 H1398 0.950 . S
C1404 C1405 1.327 . S
C1405 H1399 0.950 . S
C1405 C1404 1.327 . S
C1405 C1409 1.429 . S
C1406 C1389 1.574 . S
C1406 H1400 0.949 . S
C1406 C1410 1.368 . S
C1407 C1388 1.429 . S
C1407 C1401 1.429 . S
C1407 C1408 1.523 . S
C1408 C1389 1.368 . S
C1408 C1402 1.368 . S
C1408 C1407 1.523 . S
C1409 C1393 1.429 . S
C1409 C1405 1.429 . S
C1409 C1410 1.523 . S
C1410 C1394 1.368 . S
C1410 C1406 1.368 . S
C1410 C1409 1.523 . S
H1411 C1386 0.950 . S
H1412 C1388 0.950 . S
H1413 C1389 0.949 . S
H1414 C1391 0.950 . S
H1415 C1393 0.950 . S
C1416 C1417 1.349 . S
C1416 C1418 1.327 . S
C1416 H1441 0.950 . S
C1417 C1416 1.349 . S
C1417 C1433 1.349 . S
C1418 C1416 1.327 . S
C1418 C1437 1.429 . S
C1418 H1442 0.950 . S
C1419 C1436 1.574 . S
C1419 C1438 1.368 . S
C1419 H1443 0.949 . S
H1420 C1424 0.949 . S
C1421 C1422 1.349 . S
C1421 C1423 1.327 . S
C1421 H1444 0.950 . S
C1422 C1421 1.349 . S
C1422 C1434 1.349 . S
C1423 C1421 1.327 . S
C1423 C1439 1.429 . S
C1423 H1445 0.950 . S
C1424 H1420 0.949 . S
C1424 C1432 1.574 . S
C1424 C1440 1.368 . S
H1425 C1433 0.950 . S
H1426 C1431 0.950 . S
H1427 C1432 0.949 . S
H1428 C1434 0.950 . S
H1429 C1435 0.950 . S
H1430 C1436 0.949 . S
C1431 H1426 0.950 . S
C1431 C1433 1.327 . S
C1431 C1437 1.429 . S
C1432 C1424 1.574 . S
C1432 H1427 0.949 . S
C1432 C1438 1.368 . S
C1433 C1417 1.349 . S
C1433 H1425 0.950 . S
C1433 C1431 1.327 . S
C1434 C1422 1.349 . S
C1434 H1428 0.950 . S
C1434 C1435 1.327 . S
C1435 H1429 0.950 . S
C1435 C1434 1.327 . S
C1435 C1439 1.429 . S
C1436 C1419 1.574 . S
C1436 H1430 0.949 . S
C1436 C1440 1.368 . S
C1437 C1418 1.429 . S
C1437 C1431 1.429 . S
C1437 C1438 1.523 . S
C1438 C1419 1.368 . S
C1438 C1432 1.368 . S
C1438 C1437 1.523 . S
C1439 C1423 1.429 . S
C1439 C1435 1.429 . S
C1439 C1440 1.523 . S
C1440 C1424 1.368 . S
C1440 C1436 1.368 . S
C1440 C1439 1.523 . S
H1441 C1416 0.950 . S
H1442 C1418 0.950 . S
H1443 C1419 0.949 . S
H1444 C1421 0.950 . S
H1445 C1423 0.950 . S
C1446 C1447 1.349 . S
C1446 C1448 1.327 . S
C1446 H1471 0.950 . S
C1447 C1446 1.349 . S
C1447 C1463 1.349 . S
C1448 C1446 1.327 . S
C1448 C1467 1.429 . S
C1448 H1472 0.950 . S
C1449 C1466 1.574 . S
C1449 C1468 1.368 . S
C1449 H1473 0.949 . S
H1450 C1454 0.949 . S
C1451 C1452 1.349 . S
C1451 C1453 1.327 . S
C1451 H1474 0.950 . S
C1452 C1451 1.349 . S
C1452 C1464 1.349 . S
C1453 C1451 1.327 . S
C1453 C1469 1.429 . S
C1453 H1475 0.950 . S
C1454 H1450 0.949 . S
C1454 C1462 1.574 . S
C1454 C1470 1.368 . S
H1455 C1463 0.950 . S
H1456 C1461 0.950 . S
H1457 C1462 0.949 . S
H1458 C1464 0.950 . S
H1459 C1465 0.950 . S
H1460 C1466 0.949 . S
C1461 H1456 0.950 . S
C1461 C1463 1.327 . S
C1461 C1467 1.429 . S
C1462 C1454 1.574 . S
C1462 H1457 0.949 . S
C1462 C1468 1.368 . S
C1463 C1447 1.349 . S
C1463 H1455 0.950 . S
C1463 C1461 1.327 . S
C1464 C1452 1.349 . S
C1464 H1458 0.950 . S
C1464 C1465 1.327 . S
C1465 H1459 0.950 . S
C1465 C1464 1.327 . S
C1465 C1469 1.429 . S
C1466 C1449 1.574 . S
C1466 H1460 0.949 . S
C1466 C1470 1.368 . S
C1467 C1448 1.429 . S
C1467 C1461 1.429 . S
C1467 C1468 1.523 . S
C1468 C1449 1.368 . S
C1468 C1462 1.368 . S
C1468 C1467 1.523 . S
C1469 C1453 1.429 . S
C1469 C1465 1.429 . S
C1469 C1470 1.523 . S
C1470 C1454 1.368 . S
C1470 C1466 1.368 . S
C1470 C1469 1.523 . S
H1471 C1446 0.950 . S
H1472 C1448 0.950 . S
H1473 C1449 0.949 . S
H1474 C1451 0.950 . S
H1475 C1453 0.950 . S
C1476 C1477 1.349 . S
C1476 C1478 1.327 . S
C1476 H1501 0.950 . S
C1477 C1476 1.349 . S
C1477 C1493 1.349 . S
C1478 C1476 1.327 . S
C1478 C1497 1.429 . S
C1478 H1502 0.950 . S
C1479 C1496 1.574 . S
C1479 C1498 1.368 . S
C1479 H1503 0.949 . S
H1480 C1484 0.949 . S
C1481 C1482 1.349 . S
C1481 C1483 1.327 . S
C1481 H1504 0.950 . S
C1482 C1481 1.349 . S
C1482 C1494 1.349 . S
C1483 C1481 1.327 . S
C1483 C1499 1.429 . S
C1483 H1505 0.950 . S
C1484 H1480 0.949 . S
C1484 C1492 1.574 . S
C1484 C1500 1.368 . S
H1485 C1493 0.950 . S
H1486 C1491 0.950 . S
H1487 C1492 0.949 . S
H1488 C1494 0.950 . S
H1489 C1495 0.950 . S
H1490 C1496 0.949 . S
C1491 H1486 0.950 . S
C1491 C1493 1.327 . S
C1491 C1497 1.429 . S
C1492 C1484 1.574 . S
C1492 H1487 0.949 . S
C1492 C1498 1.368 . S
C1493 C1477 1.349 . S
C1493 H1485 0.950 . S
C1493 C1491 1.327 . S
C1494 C1482 1.349 . S
C1494 H1488 0.950 . S
C1494 C1495 1.327 . S
C1495 H1489 0.950 . S
C1495 C1494 1.327 . S
C1495 C1499 1.429 . S
C1496 C1479 1.574 . S
C1496 H1490 0.949 . S
C1496 C1500 1.368 . S
C1497 C1478 1.429 . S
C1497 C1491 1.429 . S
C1497 C1498 1.523 . S
C1498 C1479 1.368 . S
C1498 C1492 1.368 . S
C1498 C1497 1.523 . S
C1499 C1483 1.429 . S
C1499 C1495 1.429 . S
C1499 C1500 1.523 . S
C1500 C1484 1.368 . S
C1500 C1496 1.368 . S
C1500 C1499 1.523 . S
H1501 C1476 0.950 . S
H1502 C1478 0.950 . S
H1503 C1479 0.949 . S
H1504 C1481 0.950 . S
H1505 C1483 0.950 . S
C1506 C1507 1.349 . S
C1506 C1508 1.327 . S
C1506 H1531 0.950 . S
C1507 C1506 1.349 . S
C1507 C1523 1.349 . S
C1508 C1506 1.327 . S
C1508 C1527 1.429 . S
C1508 H1532 0.950 . S
C1509 C1526 1.574 . S
C1509 C1528 1.368 . S
C1509 H1533 0.949 . S
H1510 C1514 0.949 . S
C1511 C1512 1.349 . S
C1511 C1513 1.327 . S
C1511 H1534 0.950 . S
C1512 C1511 1.349 . S
C1512 C1524 1.349 . S
C1513 C1511 1.327 . S
C1513 C1529 1.429 . S
C1513 H1535 0.950 . S
C1514 H1510 0.949 . S
C1514 C1522 1.574 . S
C1514 C1530 1.368 . S
H1515 C1523 0.950 . S
H1516 C1521 0.950 . S
H1517 C1522 0.949 . S
H1518 C1524 0.950 . S
H1519 C1525 0.950 . S
H1520 C1526 0.949 . S
C1521 H1516 0.950 . S
C1521 C1523 1.327 . S
C1521 C1527 1.429 . S
C1522 C1514 1.574 . S
C1522 H1517 0.949 . S
C1522 C1528 1.368 . S
C1523 C1507 1.349 . S
C1523 H1515 0.950 . S
C1523 C1521 1.327 . S
C1524 C1512 1.349 . S
C1524 H1518 0.950 . S
C1524 C1525 1.327 . S
C1525 H1519 0.950 . S
C1525 C1524 1.327 . S
C1525 C1529 1.429 . S
C1526 C1509 1.574 . S
C1526 H1520 0.949 . S
C1526 C1530 1.368 . S
C1527 C1508 1.429 . S
C1527 C1521 1.429 . S
C1527 C1528 1.523 . S
C1528 C1509 1.368 . S
C1528 C1522 1.368 . S
C1528 C1527 1.523 . S
C1529 C1513 1.429 . S
C1529 C1525 1.429 . S
C1529 C1530 1.523 . S
C1530 C1514 1.368 . S
C1530 C1526 1.368 . S
C1530 C1529 1.523 . S
H1531 C1506 0.950 . S
H1532 C1508 0.950 . S
H1533 C1509 0.949 . S
H1534 C1511 0.950 . S
H1535 C1513 0.950 . S
C1536 C1537 1.349 . S
C1536 C1538 1.327 . S
C1536 H1561 0.950 . S
C1537 C1536 1.349 . S
C1537 C1553 1.349 . S
C1538 C1536 1.327 . S
C1538 C1557 1.429 . S
C1538 H1562 0.950 . S
C1539 C1556 1.574 . S
C1539 C1558 1.368 . S
C1539 H1563 0.949 . S
H1540 C1544 0.949 . S
C1541 C1542 1.349 . S
C1541 C1543 1.327 . S
C1541 H1564 0.950 . S
C1542 C1541 1.349 . S
C1542 C1554 1.349 . S
C1543 C1541 1.327 . S
C1543 C1559 1.429 . S
C1543 H1565 0.950 . S
C1544 H1540 0.949 . S
C1544 C1552 1.574 . S
C1544 C1560 1.368 . S
H1545 C1553 0.950 . S
H1546 C1551 0.950 . S
H1547 C1552 0.949 . S
H1548 C1554 0.950 . S
H1549 C1555 0.950 . S
H1550 C1556 0.949 . S
C1551 H1546 0.950 . S
C1551 C1553 1.327 . S
C1551 C1557 1.429 . S
C1552 C1544 1.574 . S
C1552 H1547 0.949 . S
C1552 C1558 1.368 . S
C1553 C1537 1.349 . S
C1553 H1545 0.950 . S
C1553 C1551 1.327 . S
C1554 C1542 1.349 . S
C1554 H1548 0.950 . S
C1554 C1555 1.327 . S
C1555 H1549 0.950 . S
C1555 C1554 1.327 . S
C1555 C1559 1.429 . S
C1556 C1539 1.574 . S
C1556 H1550 0.949 . S
C1556 C1560 1.368 . S
C1557 C1538 1.429 . S
C1557 C1551 1.429 . S
C1557 C1558 1.523 . S
C1558 C1539 1.368 . S
C1558 C1552 1.368 . S
C1558 C1557 1.523 . S
C1559 C1543 1.429 . S
C1559 C1555 1.429 . S
C1559 C1560 1.523 . S
C1560 C1544 1.368 . S
C1560 C1556 1.368 . S
C1560 C1559 1.523 . S
H1561 C1536 0.950 . S
H1562 C1538 0.950 . S
H1563 C1539 0.949 . S
H1564 C1541 0.950 . S
H1565 C1543 0.950 . S
C1566 C1567 1.349 . S
C1566 C1568 1.327 . S
C1566 H1591 0.950 . S
C1567 C1566 1.349 . S
C1567 C1583 1.349 . S
C1568 C1566 1.327 . S
C1568 C1587 1.429 . S
C1568 H1592 0.950 . S
C1569 C1586 1.574 . S
C1569 C1588 1.368 . S
C1569 H1593 0.949 . S
H1570 C1574 0.949 . S
C1571 C1572 1.349 . S
C1571 C1573 1.327 . S
C1571 H1594 0.950 . S
C1572 C1571 1.349 . S
C1572 C1584 1.349 . S
C1573 C1571 1.327 . S
C1573 C1589 1.429 . S
C1573 H1595 0.950 . S
C1574 H1570 0.949 . S
C1574 C1582 1.574 . S
C1574 C1590 1.368 . S
H1575 C1583 0.950 . S
H1576 C1581 0.950 . S
H1577 C1582 0.949 . S
H1578 C1584 0.950 . S
H1579 C1585 0.950 . S
H1580 C1586 0.949 . S
C1581 H1576 0.950 . S
C1581 C1583 1.327 . S
C1581 C1587 1.429 . S
C1582 C1574 1.574 . S
C1582 H1577 0.949 . S
C1582 C1588 1.368 . S
C1583 C1567 1.349 . S
C1583 H1575 0.950 . S
C1583 C1581 1.327 . S
C1584 C1572 1.349 . S
C1584 H1578 0.950 . S
C1584 C1585 1.327 . S
C1585 H1579 0.950 . S
C1585 C1584 1.327 . S
C1585 C1589 1.429 . S
C1586 C1569 1.574 . S
C1586 H1580 0.949 . S
C1586 C1590 1.368 . S
C1587 C1568 1.429 . S
C1587 C1581 1.429 . S
C1587 C1588 1.523 . S
C1588 C1569 1.368 . S
C1588 C1582 1.368 . S
C1588 C1587 1.523 . S
C1589 C1573 1.429 . S
C1589 C1585 1.429 . S
C1589 C1590 1.523 . S
C1590 C1574 1.368 . S
C1590 C1586 1.368 . S
C1590 C1589 1.523 . S
H1591 C1566 0.950 . S
H1592 C1568 0.950 . S
H1593 C1569 0.949 . S
H1594 C1571 0.950 . S
H1595 C1573 0.950 . S
C1596 C1597 1.349 . S
C1596 C1598 1.327 . S
C1596 H1621 0.950 . S
C1597 C1596 1.349 . S
C1597 C1613 1.349 . S
C1598 C1596 1.327 . S
C1598 C1617 1.429 . S
C1598 H1622 0.950 . S
C1599 C1616 1.574 . S
C1599 C1618 1.368 . S
C1599 H1623 0.949 . S
H1600 C1604 0.949 . S
C1601 C1602 1.349 . S
C1601 C1603 1.327 . S
C1601 H1624 0.950 . S
C1602 C1601 1.349 . S
C1602 C1614 1.349 . S
C1603 C1601 1.327 . S
C1603 C1619 1.429 . S
C1603 H1625 0.950 . S
C1604 H1600 0.949 . S
C1604 C1612 1.574 . S
C1604 C1620 1.368 . S
H1605 C1613 0.950 . S
H1606 C1611 0.950 . S
H1607 C1612 0.949 . S
H1608 C1614 0.950 . S
H1609 C1615 0.950 . S
H1610 C1616 0.949 . S
C1611 H1606 0.950 . S
C1611 C1613 1.327 . S
C1611 C1617 1.429 . S
C1612 C1604 1.574 . S
C1612 H1607 0.949 . S
C1612 C1618 1.368 . S
C1613 C1597 1.349 . S
C1613 H1605 0.950 . S
C1613 C1611 1.327 . S
C1614 C1602 1.349 . S
C1614 H1608 0.950 . S
C1614 C1615 1.327 . S
C1615 H1609 0.950 . S
C1615 C1614 1.327 . S
C1615 C1619 1.429 . S
C1616 C1599 1.574 . S
C1616 H1610 0.949 . S
C1616 C1620 1.368 . S
C1617 C1598 1.429 . S
C1617 C1611 1.429 . S
C1617 C1618 1.523 . S
C1618 C1599 1.368 . S
C1618 C1612 1.368 . S
C1618 C1617 1.523 . S
C1619 C1603 1.429 . S
C1619 C1615 1.429 . S
C1619 C1620 1.523 . S
C1620 C1604 1.368 . S
C1620 C1616 1.368 . S
C1620 C1619 1.523 . S
H1621 C1596 0.950 . S
H1622 C1598 0.950 . S
H1623 C1599 0.949 . S
H1624 C1601 0.950 . S
H1625 C1603 0.950 . S
C1626 C1627 1.349 . S
C1626 C1628 1.327 . S
C1626 H1651 0.950 . S
C1627 C1626 1.349 . S
C1627 C1643 1.349 . S
C1628 C1626 1.327 . S
C1628 C1647 1.429 . S
C1628 H1652 0.950 . S
C1629 C1646 1.574 . S
C1629 C1648 1.368 . S
C1629 H1653 0.949 . S
H1630 C1634 0.949 . S
C1631 C1632 1.349 . S
C1631 C1633 1.327 . S
C1631 H1654 0.950 . S
C1632 C1631 1.349 . S
C1632 C1644 1.349 . S
C1633 C1631 1.327 . S
C1633 C1649 1.429 . S
C1633 H1655 0.950 . S
C1634 H1630 0.949 . S
C1634 C1642 1.574 . S
C1634 C1650 1.368 . S
H1635 C1643 0.950 . S
H1636 C1641 0.950 . S
H1637 C1642 0.949 . S
H1638 C1644 0.950 . S
H1639 C1645 0.950 . S
H1640 C1646 0.949 . S
C1641 H1636 0.950 . S
C1641 C1643 1.327 . S
C1641 C1647 1.429 . S
C1642 C1634 1.574 . S
C1642 H1637 0.949 . S
C1642 C1648 1.368 . S
C1643 C1627 1.349 . S
C1643 H1635 0.950 . S
C1643 C1641 1.327 . S
C1644 C1632 1.349 . S
C1644 H1638 0.950 . S
C1644 C1645 1.327 . S
C1645 H1639 0.950 . S
C1645 C1644 1.327 . S
C1645 C1649 1.429 . S
C1646 C1629 1.574 . S
C1646 H1640 0.949 . S
C1646 C1650 1.368 . S
C1647 C1628 1.429 . S
C1647 C1641 1.429 . S
C1647 C1648 1.523 . S
C1648 C1629 1.368 . S
C1648 C1642 1.368 . S
C1648 C1647 1.523 . S
C1649 C1633 1.429 . S
C1649 C1645 1.429 . S
C1649 C1650 1.523 . S
C1650 C1634 1.368 . S
C1650 C1646 1.368 . S
C1650 C1649 1.523 . S
H1651 C1626 0.950 . S
H1652 C1628 0.950 . S
H1653 C1629 0.949 . S
H1654 C1631 0.950 . S
H1655 C1633 0.950 . S
C1656 C1657 1.349 . S
C1656 C1658 1.327 . S
C1656 H1681 0.950 . S
C1657 C1656 1.349 . S
C1657 C1673 1.349 . S
C1658 C1656 1.327 . S
C1658 C1677 1.429 . S
C1658 H1682 0.950 . S
C1659 C1676 1.574 . S
C1659 C1678 1.368 . S
C1659 H1683 0.949 . S
H1660 C1664 0.949 . S
C1661 C1662 1.349 . S
C1661 C1663 1.327 . S
C1661 H1684 0.950 . S
C1662 C1661 1.349 . S
C1662 C1674 1.349 . S
C1663 C1661 1.327 . S
C1663 C1679 1.429 . S
C1663 H1685 0.950 . S
C1664 H1660 0.949 . S
C1664 C1672 1.574 . S
C1664 C1680 1.368 . S
H1665 C1673 0.950 . S
H1666 C1671 0.950 . S
H1667 C1672 0.949 . S
H1668 C1674 0.950 . S
H1669 C1675 0.950 . S
H1670 C1676 0.949 . S
C1671 H1666 0.950 . S
C1671 C1673 1.327 . S
C1671 C1677 1.429 . S
C1672 C1664 1.574 . S
C1672 H1667 0.949 . S
C1672 C1678 1.368 . S
C1673 C1657 1.349 . S
C1673 H1665 0.950 . S
C1673 C1671 1.327 . S
C1674 C1662 1.349 . S
C1674 H1668 0.950 . S
C1674 C1675 1.327 . S
C1675 H1669 0.950 . S
C1675 C1674 1.327 . S
C1675 C1679 1.429 . S
C1676 C1659 1.574 . S
C1676 H1670 0.949 . S
C1676 C1680 1.368 . S
C1677 C1658 1.429 . S
C1677 C1671 1.429 . S
C1677 C1678 1.523 . S
C1678 C1659 1.368 . S
C1678 C1672 1.368 . S
C1678 C1677 1.523 . S
C1679 C1663 1.429 . S
C1679 C1675 1.429 . S
C1679 C1680 1.523 . S
C1680 C1664 1.368 . S
C1680 C1676 1.368 . S
C1680 C1679 1.523 . S
H1681 C1656 0.950 . S
H1682 C1658 0.950 . S
H1683 C1659 0.949 . S
H1684 C1661 0.950 . S
H1685 C1663 0.950 . S
C1686 C1687 1.349 . S
C1686 C1688 1.327 . S
C1686 H1711 0.950 . S
C1687 C1686 1.349 . S
C1687 C1703 1.349 . S
C1688 C1686 1.327 . S
C1688 C1707 1.429 . S
C1688 H1712 0.950 . S
C1689 C1706 1.574 . S
C1689 C1708 1.368 . S
C1689 H1713 0.949 . S
H1690 C1694 0.949 . S
C1691 C1692 1.349 . S
C1691 C1693 1.327 . S
C1691 H1714 0.950 . S
C1692 C1691 1.349 . S
C1692 C1704 1.349 . S
C1693 C1691 1.327 . S
C1693 C1709 1.429 . S
C1693 H1715 0.950 . S
C1694 H1690 0.949 . S
C1694 C1702 1.574 . S
C1694 C1710 1.368 . S
H1695 C1703 0.950 . S
H1696 C1701 0.950 . S
H1697 C1702 0.949 . S
H1698 C1704 0.950 . S
H1699 C1705 0.950 . S
H1700 C1706 0.949 . S
C1701 H1696 0.950 . S
C1701 C1703 1.327 . S
C1701 C1707 1.429 . S
C1702 C1694 1.574 . S
C1702 H1697 0.949 . S
C1702 C1708 1.368 . S
C1703 C1687 1.349 . S
C1703 H1695 0.950 . S
C1703 C1701 1.327 . S
C1704 C1692 1.349 . S
C1704 H1698 0.950 . S
C1704 C1705 1.327 . S
C1705 H1699 0.950 . S
C1705 C1704 1.327 . S
C1705 C1709 1.429 . S
C1706 C1689 1.574 . S
C1706 H1700 0.949 . S
C1706 C1710 1.368 . S
C1707 C1688 1.429 . S
C1707 C1701 1.429 . S
C1707 C1708 1.523 . S
C1708 C1689 1.368 . S
C1708 C1702 1.368 . S
C1708 C1707 1.523 . S
C1709 C1693 1.429 . S
C1709 C1705 1.429 . S
C1709 C1710 1.523 . S
C1710 C1694 1.368 . S
C1710 C1706 1.368 . S
C1710 C1709 1.523 . S
H1711 C1686 0.950 . S
H1712 C1688 0.950 . S
H1713 C1689 0.949 . S
H1714 C1691 0.950 . S
H1715 C1693 0.950 . S
C1716 C1717 1.349 . S
C1716 C1718 1.327 . S
C1716 H1741 0.950 . S
C1717 C1716 1.349 . S
C1717 C1733 1.349 . S
C1718 C1716 1.327 . S
C1718 C1737 1.429 . S
C1718 H1742 0.950 . S
C1719 C1736 1.574 . S
C1719 C1738 1.368 . S
C1719 H1743 0.949 . S
H1720 C1724 0.949 . S
C1721 C1722 1.349 . S
C1721 C1723 1.327 . S
C1721 H1744 0.950 . S
C1722 C1721 1.349 . S
C1722 C1734 1.349 . S
C1723 C1721 1.327 . S
C1723 C1739 1.429 . S
C1723 H1745 0.950 . S
C1724 H1720 0.949 . S
C1724 C1732 1.574 . S
C1724 C1740 1.368 . S
H1725 C1733 0.950 . S
H1726 C1731 0.950 . S
H1727 C1732 0.949 . S
H1728 C1734 0.950 . S
H1729 C1735 0.950 . S
H1730 C1736 0.949 . S
C1731 H1726 0.950 . S
C1731 C1733 1.327 . S
C1731 C1737 1.429 . S
C1732 C1724 1.574 . S
C1732 H1727 0.949 . S
C1732 C1738 1.368 . S
C1733 C1717 1.349 . S
C1733 H1725 0.950 . S
C1733 C1731 1.327 . S
C1734 C1722 1.349 . S
C1734 H1728 0.950 . S
C1734 C1735 1.327 . S
C1735 H1729 0.950 . S
C1735 C1734 1.327 . S
C1735 C1739 1.429 . S
C1736 C1719 1.574 . S
C1736 H1730 0.949 . S
C1736 C1740 1.368 . S
C1737 C1718 1.429 . S
C1737 C1731 1.429 . S
C1737 C1738 1.523 . S
C1738 C1719 1.368 . S
C1738 C1732 1.368 . S
C1738 C1737 1.523 . S
C1739 C1723 1.429 . S
C1739 C1735 1.429 . S
C1739 C1740 1.523 . S
C1740 C1724 1.368 . S
C1740 C1736 1.368 . S
C1740 C1739 1.523 . S
H1741 C1716 0.950 . S
H1742 C1718 0.950 . S
H1743 C1719 0.949 . S
H1744 C1721 0.950 . S
H1745 C1723 0.950 . S
C1746 C1747 1.349 . S
C1746 C1748 1.327 . S
C1746 H1771 0.950 . S
C1747 C1746 1.349 . S
C1747 C1763 1.349 . S
C1748 C1746 1.327 . S
C1748 C1767 1.429 . S
C1748 H1772 0.950 . S
C1749 C1766 1.574 . S
C1749 C1768 1.368 . S
C1749 H1773 0.949 . S
H1750 C1754 0.949 . S
C1751 C1752 1.349 . S
C1751 C1753 1.327 . S
C1751 H1774 0.950 . S
C1752 C1751 1.349 . S
C1752 C1764 1.349 . S
C1753 C1751 1.327 . S
C1753 C1769 1.429 . S
C1753 H1775 0.950 . S
C1754 H1750 0.949 . S
C1754 C1762 1.574 . S
C1754 C1770 1.368 . S
H1755 C1763 0.950 . S
H1756 C1761 0.950 . S
H1757 C1762 0.949 . S
H1758 C1764 0.950 . S
H1759 C1765 0.950 . S
H1760 C1766 0.949 . S
C1761 H1756 0.950 . S
C1761 C1763 1.327 . S
C1761 C1767 1.429 . S
C1762 C1754 1.574 . S
C1762 H1757 0.949 . S
C1762 C1768 1.368 . S
C1763 C1747 1.349 . S
C1763 H1755 0.950 . S
C1763 C1761 1.327 . S
C1764 C1752 1.349 . S
C1764 H1758 0.950 . S
C1764 C1765 1.327 . S
C1765 H1759 0.950 . S
C1765 C1764 1.327 . S
C1765 C1769 1.429 . S
C1766 C1749 1.574 . S
C1766 H1760 0.949 . S
C1766 C1770 1.368 . S
C1767 C1748 1.429 . S
C1767 C1761 1.429 . S
C1767 C1768 1.523 . S
C1768 C1749 1.368 . S
C1768 C1762 1.368 . S
C1768 C1767 1.523 . S
C1769 C1753 1.429 . S
C1769 C1765 1.429 . S
C1769 C1770 1.523 . S
C1770 C1754 1.368 . S
C1770 C1766 1.368 . S
C1770 C1769 1.523 . S
H1771 C1746 0.950 . S
H1772 C1748 0.950 . S
H1773 C1749 0.949 . S
H1774 C1751 0.950 . S
H1775 C1753 0.950 . S
C337 C5 1.532 . S
C342 C103 1.532 . S
C367 C117 1.532 . S
C372 C19 1.532 . S
C397 C33 1.532 . S
C402 C131 1.532 . S
C427 C47 1.532 . S
C432 C145 1.532 . S
C457 C159 1.532 . S
C462 C61 1.532 . S
C487 C75 1.532 . S
C492 C89 1.532 . S
C517 C173 1.532 . S
C522 C271 1.532 . S
C547 C187 1.532 . S
C552 C285 1.532 . S
C577 C299 1.532 . S
C582 C201 1.532 . S
C607 C215 1.532 . S
C612 C313 1.532 . S
C637 C229 1.532 . S
C642 C327 1.532 . S
C667 C257 1.532 . S
C672 C243 1.532 . S
C697 C11 1.353 . S
C702 C123 1.353 . S
C727 C137 1.353 . S
C732 C25 1.353 . S
C757 C151 1.352 . S
C762 C39 1.352 . S
C787 C53 1.353 . S
C792 C165 1.353 . S
C817 C67 1.353 . S
C822 C95 1.353 . S
C847 C81 1.352 . S
C852 C109 1.352 . S
C877 C291 1.353 . S
C882 C179 1.353 . S
C907 C193 1.353 . S
C912 C305 1.353 . S
C937 C319 1.352 . S
C942 C207 1.352 . S
C967 C333 1.353 . S
C972 C221 1.353 . S
C997 C263 1.353 . S
C1002 C235 1.353 . S
C1027 C249 1.352 . S
C1032 C277 1.352 . S
C1057 C9 1.597 . S
C1062 C219 1.597 . S
C1087 C233 1.597 . S
C1092 C23 1.597 . S
C1117 C247 1.597 . S
C1122 C37 1.597 . S
C1147 C51 1.597 . S
C1152 C177 1.597 . S
C1177 C65 1.597 . S
C1182 C191 1.597 . S
C1207 C205 1.597 . S
C1212 C79 1.597 . S
C1237 C303 1.597 . S
C1242 C93 1.597 . S
C1267 C317 1.597 . S
C1272 C107 1.597 . S
C1297 C331 1.597 . S
C1302 C121 1.597 . S
C1327 C261 1.597 . S
C1332 C135 1.597 . S
C1357 C149 1.597 . S
C1362 C275 1.597 . S
C1387 C163 1.597 . S
C1392 C289 1.597 . S
C1417 C0 1.391 . S
C1422 C140 1.391 . S
C1447 C154 1.391 . S
C1452 C14 1.391 . S
C1477 C84 1.391 . S
C1482 C28 1.392 . S
C1507 C42 1.391 . S
C1512 C98 1.391 . S
C1537 C56 1.391 . S
C1542 C112 1.391 . S
C1567 C70 1.391 . S
C1572 C126 1.391 . S
C1597 C168 1.391 . S
C1602 C308 1.391 . S
C1627 C182 1.391 . S
C1632 C322 1.391 . S
C1657 C196 1.392 . S
C1662 C252 1.391 . S
C1687 C266 1.391 . S
C1692 C210 1.391 . S
C1717 C224 1.391 . S
C1722 C280 1.391 . S
C1747 C238 1.391 . S
C1752 C294 1.391 . S
