# Generated by pormake.
# Topology bsn, (6)-cn, num edge types: 1
# Building blocks:
#     Node 0, Type 0, BuildingBlock: MIDCAF_clean_sbu_0, # of connection points: 6
#     Node 1, Type 0, BuildingBlock: MIDCAF_clean_sbu_0, # of connection points: 6
#     Node 2, Type 0, BuildingBlock: MIDCAF_clean_sbu_0, # of connection points: 6
#     Node 3, Type 0, BuildingBlock: MIDCAF_clean_sbu_0, # of connection points: 6
#     Edge 4, Type (0, 0), BuildingBlock: FUNLAD_clean_linker_1, # of connection points: 2
#     Edge 5, Type (0, 0), BuildingBlock: FUNLAD_clean_linker_1, # of connection points: 2
#     Edge 6, Type (0, 0), BuildingBlock: FUNLAD_clean_linker_1, # of connection points: 2
#     Edge 7, Type (0, 0), BuildingBlock: FUNLAD_clean_linker_1, # of connection points: 2
#     Edge 8, Type (0, 0), BuildingBlock: FUNLAD_clean_linker_1, # of connection points: 2
#     Edge 9, Type (0, 0), BuildingBlock: FUNLAD_clean_linker_1, # of connection points: 2
#     Edge 10, Type (0, 0), BuildingBlock: FUNLAD_clean_linker_1, # of connection points: 2
#     Edge 11, Type (0, 0), BuildingBlock: FUNLAD_clean_linker_1, # of connection points: 2
#     Edge 12, Type (0, 0), BuildingBlock: FUNLAD_clean_linker_1, # of connection points: 2
#     Edge 13, Type (0, 0), BuildingBlock: FUNLAD_clean_linker_1, # of connection points: 2
#     Edge 14, Type (0, 0), BuildingBlock: FUNLAD_clean_linker_1, # of connection points: 2
#     Edge 15, Type (0, 0), BuildingBlock: FUNLAD_clean_linker_1, # of connection points: 2
# Relax obj value: 0.106
# Max RMSD: 0.165
# Mean RMSD: 0.164
data_MOF--net-bsn--node1-MIDCAF_clean_sbu_0--edge1-FUNLAD_clean_linker_1
_symmetry_space_group_name_H-M    P1
_symmetry_Int_Tables_number       1
_symmetry_cell_setting            triclinic
loop_
_symmetry_equiv_pos_as_xyz
'x, y, z'
_cell_length_a     30.97635
_cell_length_b     30.922768
_cell_length_c     15.850523
_cell_angle_alpha  89.788767
_cell_angle_beta   97.273949
_cell_angle_gamma 90.184059
loop_
_atom_site_label
_atom_site_type_symbol
_atom_site_fract_x
_atom_site_fract_y
_atom_site_fract_z
_atom_type_partial_charge
Zn0 Zn 0.99859 0.20453 0.36303 0.0
Zn1 Zn 0.11491 0.30473 0.45386 0.0
Zn2 Zn 0.05674 0.2612 0.39825 0.0
C3 C 0.05425 0.35985 0.37262 0.0
C4 C 0.15036 0.254 0.34559 0.0
O5 O 0.06574 0.20908 0.49722 0.0
O6 O 0.0191 0.15876 0.44551 0.0
C7 C 0.95513 0.28208 0.37428 0.0
O8 O 0.03005 0.32741 0.38709 0.0
O9 O 0.09508 0.35574 0.38312 0.0
O10 O 0.16221 0.26891 0.41884 0.0
O11 O 0.10957 0.25362 0.31667 0.0
O12 O 0.949 0.24205 0.38325 0.0
O13 O 0.99391 0.29684 0.37185 0.0
O14 O 0.07074 0.23521 0.27507 0.0
O15 O 0.01102 0.1963 0.24255 0.0
C16 C 0.04577 0.21219 0.22154 0.0
O17 O 0.07551 0.24784 0.53898 0.0
O18 O 0.11015 0.30838 0.57664 0.0
C19 C 0.05035 0.17029 0.49962 0.0
C20 C 0.09258 0.27389 0.59767 0.0
Zn21 Zn 0.9877 0.81747 0.48986 0.0
Zn22 Zn 0.08878 0.69474 0.65896 0.0
Zn23 Zn 0.03928 0.75756 0.57405 0.0
C24 C 0.14174 0.7685 0.64321 0.0
C25 C 0.05109 0.66171 0.5003 0.0
O26 O 0.98152 0.76623 0.63908 0.0
O27 O 0.94219 0.81701 0.56695 0.0
C28 C 0.06869 0.85637 0.54502 0.0
O29 O 0.10562 0.78473 0.60785 0.0
O30 O 0.14329 0.72958 0.6682 0.0
O31 O 0.0744 0.65059 0.56818 0.0
O32 O 0.03784 0.70099 0.48993 0.0
O33 O 0.03226 0.86366 0.50208 0.0
O34 O 0.07747 0.81862 0.57724 0.0
O35 O 0.01881 0.73575 0.4424 0.0
O36 O 0.97527 0.78648 0.38071 0.0
C37 C 0.99403 0.75047 0.37728 0.0
O38 O 1.01039 0.73874 0.68856 0.0
O39 O 0.056 0.69227 0.75878 0.0
C40 C 0.94731 0.79005 0.62738 0.0
C41 C 0.02151 0.71434 0.75359 0.0
Zn42 Zn 0.51982 0.7082 0.8184 0.0
Zn43 Zn 0.60789 0.83056 -0.00061 0.0
Zn44 Zn 0.56611 0.76925 0.90281 0.0
C45 C 0.60291 0.761 0.10604 0.0
C46 C 0.53122 0.86779 0.92671 0.0
O47 O 0.59964 0.75211 0.79244 0.0
O48 O 0.56076 0.69718 0.73458 0.0
C49 C 0.54361 0.67485 0.97881 0.0
O50 O 0.58398 0.74536 0.03547 0.0
O51 O 0.61675 0.79947 0.10917 0.0
O52 O 0.56361 0.87644 0.98061 0.0
O53 O 0.52686 0.82988 0.89306 0.0
O54 O 0.51836 0.66604 0.91229 0.0
O55 O 0.5638 0.71145 0.98602 0.0
O56 O 0.49994 0.79535 0.85939 0.0
O57 O 0.46738 0.74302 0.78021 0.0
C58 C 0.46674 0.78065 0.81057 0.0
O59 O 0.62525 0.78227 0.84505 0.0
O60 O 0.65665 0.83357 0.92922 0.0
C61 C 0.59273 0.72266 0.73497 0.0
C62 C 0.6568 0.80886 0.86606 0.0
Zn63 Zn 0.60794 0.21011 0.16862 0.0
Zn64 Zn 0.49255 0.32235 0.01577 0.0
Zn65 Zn 0.55062 0.26965 0.09817 0.0
C66 C 0.51226 0.26324 0.89865 0.0
C67 C 0.56584 0.37148 0.08596 0.0
O68 O 0.52666 0.24815 0.21394 0.0
O69 O 0.57812 0.20397 0.27295 0.0
C70 C 0.56815 0.1743 0.01867 0.0
O71 O 0.53285 0.24738 0.96732 0.0
O72 O 0.49331 0.29929 0.89959 0.0
O73 O 0.52656 0.37494 0.05342 0.0
O74 O 0.58273 0.33378 0.10107 0.0
O75 O 0.59642 0.16463 0.08038 0.0
O76 O 0.55076 0.21219 0.01435 0.0
O77 O 0.61494 0.30292 0.12896 0.0
O78 O 0.65932 0.24905 0.17189 0.0
C79 C 0.65354 0.28874 0.15468 0.0
O80 O 0.49261 0.27076 0.16691 0.0
O81 O 0.44355 0.30438 0.07648 0.0
C82 C 0.54236 0.22329 0.2753 0.0
C83 C 0.45309 0.28292 0.14414 0.0
H84 H 0.0621 0.42739 0.34076 0.0
C85 C 0.03747 0.40355 0.35165 0.0
H86 H 0.97296 0.39416 0.37503 0.0
H87 H 0.98932 0.57247 0.5676 0.0
H88 H 0.95045 0.5269 0.65848 0.0
H89 H 0.92836 0.45267 0.61505 0.0
H90 H 0.94478 0.42365 0.48078 0.0
C91 C 0.99699 0.4172 0.3587 0.0
C92 C 0.98962 0.46486 0.3653 0.0
C93 C 0.97794 0.48165 0.44216 0.0
C94 C 0.99087 0.5243 0.46737 0.0
C95 C 0.98063 0.54002 0.54618 0.0
C96 C 0.95822 0.51431 0.5986 0.0
C97 C 0.9458 0.47251 0.57414 0.0
C98 C 0.95563 0.45612 0.49706 0.0
H99 H 1.00841 0.63706 0.38752 0.0
C100 C 0.03311 0.62802 0.43945 0.0
H101 H 0.06499 0.57716 0.51034 0.0
H102 H 0.99831 0.44836 0.20023 0.0
H103 H 0.03127 0.49616 0.10285 0.0
H104 H 0.05821 0.56857 0.14938 0.0
H105 H 0.05119 0.59433 0.29172 0.0
C106 C 0.04181 0.58602 0.45573 0.0
C107 C 0.01502 0.54987 0.41539 0.0
C108 C 0.01938 0.53592 0.33199 0.0
C109 C 1.00539 0.49361 0.30616 0.0
C110 C 1.0096 0.47997 0.22268 0.0
C111 C 0.02828 0.50702 0.16669 0.0
C112 C 0.04344 0.54782 0.19292 0.0
C113 C 0.03921 0.56227 0.2747 0.0
H114 H 0.71334 0.84094 0.82362 0.0
C115 C 0.69457 0.81104 0.81924 0.0
H116 H 0.6942 0.74524 0.78282 0.0
H117 H 0.83231 0.82769 0.54024 0.0
H118 H 0.7668 0.84226 0.44413 0.0
H119 H 0.69431 0.82991 0.48884 0.0
H120 H 0.6872 0.80188 0.62951 0.0
C121 C 0.71017 0.77654 0.7825 0.0
C122 C 0.75345 0.77999 0.75259 0.0
C123 C 0.7571 0.7977 0.67145 0.0
C124 C 0.79883 0.80637 0.64722 0.0
C125 C 0.8015 0.82195 0.56372 0.0
C126 C 0.7641 0.83033 0.50755 0.0
C127 C 0.7233 0.82336 0.53265 0.0
C128 C 0.71966 0.80718 0.61352 0.0
H129 H 0.90791 0.74957 0.70293 0.0
C130 C 0.91115 0.7818 0.67688 0.0
H131 H 0.88329 0.84323 0.65347 0.0
H132 H 0.75733 0.74226 0.90961 0.0
H133 H 0.82232 0.73151 0.01052 0.0
H134 H 0.8943 0.75432 0.97546 0.0
H135 H 0.90199 0.78716 0.83924 0.0
C136 C 0.87981 0.81128 0.68073 0.0
C137 C 0.83676 0.79947 0.70619 0.0
C138 C 0.833 0.78209 0.78801 0.0
C139 C 0.79129 0.77088 0.80988 0.0
C140 C 0.78824 0.75216 0.89061 0.0
C141 C 0.82523 0.74581 0.94904 0.0
C142 C 0.8658 0.75852 0.92919 0.0
C143 C 0.86979 0.77682 0.85009 0.0
H144 H 0.62643 0.40933 0.1256 0.0
C145 C 0.59158 0.41146 0.10632 0.0
H146 H 0.53653 0.45181 0.08428 0.0
H147 H 0.57557 0.62786 0.22995 0.0
H148 H 0.54302 0.59657 0.34847 0.0
H149 H 0.53409 0.51742 0.36039 0.0
H150 H 0.55782 0.46911 0.25403 0.0
C151 C 0.57171 0.45028 0.09949 0.0
C152 C 0.5938 0.49298 0.11271 0.0
C153 C 0.58106 0.52056 0.17635 0.0
C154 C 0.586 0.56607 0.16948 0.0
C155 C 0.57191 0.59306 0.23235 0.0
C156 C 0.55343 0.57549 0.30056 0.0
C157 C 0.54842 0.53092 0.30726 0.0
C158 C 0.56192 0.50361 0.24587 0.0
H159 H 0.52724 0.61648 0.0462 0.0
C160 C 0.55302 0.64006 0.04186 0.0
H161 H 0.62073 0.65092 0.06201 0.0
H162 H 0.63015 0.44894 0.98921 0.0
H163 H 0.66779 0.48023 0.87873 0.0
H164 H 0.67765 0.5592 0.86891 0.0
H165 H 0.64958 0.60731 0.96944 0.0
C166 C 0.59407 0.62953 0.07286 0.0
C167 C 0.6036 0.58383 0.09894 0.0
C168 C 0.62259 0.55606 0.04295 0.0
C169 C 0.6173 0.51044 0.04923 0.0
C170 C 0.63357 0.48367 0.98831 0.0
C171 C 0.65529 0.50125 0.92439 0.0
C172 C 0.66083 0.54572 0.91882 0.0
C173 C 0.64451 0.57298 0.97689 0.0
H174 H 0.88818 0.29784 0.38946 0.0
C175 C 0.91589 0.3093 0.35976 0.0
H176 H 0.9354 0.34569 0.25921 0.0
H177 H 0.75621 0.29694 0.04324 0.0
H178 H 0.80967 0.2812 0.94739 0.0
H179 H 0.88778 0.29539 0.99079 0.0
H180 H 0.91297 0.32522 0.12938 0.0
C181 C 0.90858 0.337 0.29387 0.0
C182 C 0.86255 0.34489 0.25486 0.0
C183 C 0.84847 0.32932 0.17175 0.0
C184 C 0.80344 0.321 0.14655 0.0
C185 C 0.79015 0.30341 0.06515 0.0
C186 C 0.82041 0.29444 0.00968 0.0
C187 C 0.86439 0.30243 0.03413 0.0
C188 C 0.87846 0.31946 0.11423 0.0
H189 H 0.68764 0.35225 0.14829 0.0
C190 C 0.69184 0.31828 0.16481 0.0
H191 H 0.73574 0.26868 0.20899 0.0
H192 H 0.8774 0.38943 0.40326 0.0
H193 H 0.82305 0.41061 0.49395 0.0
H194 H 0.74522 0.394 0.45231 0.0
H195 H 0.72112 0.35684 0.31928 0.0
C196 C 0.73167 0.30286 0.19405 0.0
C197 C 0.77274 0.3286 0.20378 0.0
C198 C 0.78604 0.35076 0.28069 0.0
C199 C 0.831 0.35945 0.30571 0.0
C200 C 0.84366 0.38135 0.38297 0.0
C201 C 0.81284 0.39376 0.43501 0.0
C202 C 0.769 0.38444 0.41149 0.0
C203 C 0.75557 0.36303 0.33534 0.0
H204 H 0.42643 0.25622 0.25713 0.0
C205 C 0.41803 0.27017 0.19423 0.0
H206 H 0.36741 0.28654 0.09707 0.0
H207 H 0.21979 0.17206 0.2182 0.0
H208 H 0.23869 0.12862 0.10109 0.0
H209 H 0.30313 0.14629 0.03068 0.0
H210 H 0.3499 0.20685 0.07855 0.0
C211 C 0.37597 0.27471 0.16167 0.0
C212 C 0.33935 0.26214 0.20873 0.0
C213 C 0.31193 0.2271 0.179 0.0
C214 C 0.27431 0.2173 0.21853 0.0
C215 C 0.24824 0.1814 0.18927 0.0
C216 C 0.25873 0.15618 0.12217 0.0
C217 C 0.29513 0.16605 0.08273 0.0
C218 C 0.3216 0.20099 0.11064 0.0
H219 H 0.17792 0.24846 0.22389 0.0
C220 C 0.18429 0.24288 0.29205 0.0
H221 H 0.23028 0.22823 0.39762 0.0
H222 H 0.384 0.33283 0.27922 0.0
H223 H 0.36589 0.3754 0.39739 0.0
H224 H 0.30088 0.35835 0.46647 0.0
H225 H 0.25363 0.29882 0.41752 0.0
C226 C 0.22478 0.23381 0.32931 0.0
C227 C 0.26396 0.24295 0.28694 0.0
C228 C 0.29173 0.2777 0.31744 0.0
C229 C 0.32937 0.28741 0.27806 0.0
C230 C 0.35555 0.32326 0.30779 0.0
C231 C 0.3454 0.34824 0.37542 0.0
C232 C 0.30882 0.33865 0.41428 0.0
C233 C 0.28206 0.30408 0.38566 0.0
H234 H 0.40995 0.81352 0.85067 0.0
C235 C 0.42564 0.80498 0.79553 0.0
H236 H 0.42001 0.79687 0.66366 0.0
H237 H 0.23425 0.71567 0.62133 0.0
H238 H 0.27887 0.65857 0.57463 0.0
H239 H 0.3587 0.66616 0.58808 0.0
H240 H 0.3942 0.73065 0.64726 0.0
C241 C 0.40306 0.80537 0.71725 0.0
C242 C 0.35453 0.80285 0.70462 0.0
C243 C 0.33434 0.76439 0.66977 0.0
C244 C 0.28845 0.7594 0.66408 0.0
C245 C 0.26908 0.72081 0.62876 0.0
C246 C 0.29428 0.68778 0.60135 0.0
C247 C 0.33917 0.69211 0.60873 0.0
C248 C 0.35914 0.7297 0.64265 0.0
H249 H 0.18632 0.81893 0.60314 0.0
C250 C 0.18274 0.79372 0.64968 0.0
H251 H 0.21267 0.7562 0.75149 0.0
H252 H 0.38168 0.88311 0.76075 0.0
H253 H 0.33634 0.9403 0.80666 0.0
H254 H 0.25704 0.93003 0.80273 0.0
H255 H 0.22239 0.86272 0.75147 0.0
C256 C 0.21692 0.78169 0.70579 0.0
C257 C 0.26277 0.79224 0.6948 0.0
C258 C 0.28245 0.83154 0.72517 0.0
C259 C 0.32841 0.83705 0.72934 0.0
C260 C 0.34715 0.8769 0.75841 0.0
C261 C 0.32146 0.91001 0.78447 0.0
C262 C 0.27677 0.90426 0.78209 0.0
C263 C 0.2573 0.86551 0.75283 0.0
H264 H 0.52108 0.91951 0.83688 0.0
C265 C 0.50618 0.90474 0.88839 0.0
H266 H 0.46943 0.91418 0.98711 0.0
H267 H 0.5656 0.08252 0.12412 0.0
H268 H 0.56343 0.03829 0.24946 0.0
H269 H 0.53177 0.96503 0.2385 0.0
H270 H 0.50144 0.93612 0.10368 0.0
C271 C 0.48474 0.93007 0.93755 0.0
C272 C 0.49623 0.9772 0.94653 0.0
C273 C 0.51452 0.99325 0.02738 0.0
C274 C 0.53439 0.03487 0.03362 0.0
C275 C 0.55142 0.05063 0.11512 0.0
C276 C 0.5502 0.02567 0.18792 0.0
C277 C 0.53229 0.98452 0.18174 0.0
C278 C 0.51478 0.9683 0.10292 0.0
H279 H 0.51476 0.14401 0.93367 0.0
C280 C 0.54803 0.13932 0.96328 0.0
H281 H 0.59845 0.09522 -0.00164 0.0
H282 H 0.4528 0.96259 0.78831 0.0
H283 H 0.45524 1.0075 0.66239 0.0
H284 H 0.49723 0.07565 0.67077 0.0
H285 H 0.53501 0.10063 0.80542 0.0
C286 C 0.56539 0.09945 0.96712 0.0
C287 C 0.53759 0.0598 0.95927 0.0
C288 C 0.51653 0.04538 0.87982 0.0
C289 C 0.49457 1.00469 0.87404 0.0
C290 C 0.4717 0.99217 0.79495 0.0
C291 C 0.47257 0.01777 0.72262 0.0
C292 C 0.49598 0.05631 0.72742 0.0
C293 C 0.5176 0.07024 0.80503 0.0
H294 H 0.09948 0.90284 0.63649 0.0
C295 C 0.0966 0.89408 0.56969 0.0
H296 H 0.09899 0.9146 0.44499 0.0
H297 H 0.98978 0.08128 0.46699 0.0
H298 H 0.94516 0.03797 0.36487 0.0
H299 H 0.96579 0.96325 0.33503 0.0
H300 H 0.03125 0.93195 0.40671 0.0
C301 C 0.10132 0.92466 0.51104 0.0
C302 C 0.09097 0.97084 0.5274 0.0
C303 C 0.05204 0.98891 0.48442 0.0
C304 C 0.03982 0.03187 0.50256 0.0
C305 C 1.0009 0.04887 0.45763 0.0
C306 C 0.97469 0.02429 0.39813 0.0
C307 C 0.9863 0.98232 0.38131 0.0
C308 C 0.02433 0.96472 0.42351 0.0
H309 H 0.10858 0.13288 0.54256 0.0
C310 C 0.07454 0.13631 0.55129 0.0
H311 H 0.01921 0.10741 0.58905 0.0
H312 H 0.16947 0.9479 0.61363 0.0
H313 H 0.21502 0.99159 0.71657 0.0
H314 H 0.19264 0.0649 0.75237 0.0
H315 H 0.12429 0.09531 0.68571 0.0
C316 C 0.05295 0.10248 0.57933 0.0
C317 C 0.06651 0.05709 0.56359 0.0
C318 C 0.10566 0.03921 0.60567 0.0
C319 C 0.11809 0.99624 0.58682 0.0
C320 C 0.15801 0.97981 0.6274 0.0
C321 C 0.1845 1.00459 0.6863 0.0
C322 C 0.17187 0.04597 0.7064 0.0
C323 C 0.13281 0.06315 0.66718 0.0
H324 H 0.03662 0.18032 0.09663 0.0
C325 C 0.0549 0.20556 0.1332 0.0
H326 H 0.09464 0.26064 0.12622 0.0
H327 H 0.12243 0.16708 0.76078 0.0
H328 H 0.16824 0.11628 0.84834 0.0
H329 H 0.1723 0.11751 0.00442 0.0
H330 H 0.13164 0.17046 0.07502 0.0
C331 C 0.07886 0.23312 0.09269 0.0
C332 C 0.07664 0.23176 -0.002 0.0
C333 C 0.10079 0.20083 0.9578 0.0
C334 C 0.0982 0.19989 0.86733 0.0
C335 C 0.1231 0.16904 0.82908 0.0
C336 C 0.14948 0.13972 0.8785 0.0
C337 C 0.15189 0.14053 0.96659 0.0
C338 C 0.12817 0.17086 0.00622 0.0
H339 H 0.1078 0.29001 0.73269 0.0
C340 C 0.09224 0.26566 0.68957 0.0
H341 H 0.05714 0.20667 0.68272 0.0
H342 H 0.0242 0.29365 0.05417 0.0
H343 H 0.97574 0.34199 0.96677 0.0
H344 H 0.96999 0.33922 0.81021 0.0
H345 H 0.01268 0.28807 0.74009 0.0
C346 C 0.07248 0.23216 0.72298 0.0
C347 C 0.07158 0.22994 0.81712 0.0
C348 C 0.04606 0.25974 0.85733 0.0
C349 C 0.04896 0.26096 0.94769 0.0
C350 C 0.02328 0.29127 0.98587 0.0
C351 C 0.99527 0.3192 0.93646 0.0
C352 C 0.99206 0.31766 0.84832 0.0
C353 C 0.017 0.28833 0.80889 0.0
H354 H 0.9665 0.73467 0.82009 0.0
C355 C 0.99629 0.71586 0.82622 0.0
H356 H 0.04248 0.68136 0.90993 0.0
H357 H 0.96664 0.81533 0.17777 0.0
H358 H 0.99029 0.87319 0.09142 0.0
H359 H 0.01826 0.85761 0.95593 0.0
H360 H 0.02206 0.78449 0.90578 0.0
C361 C 0.01281 0.70041 0.90279 0.0
C362 C 0.99357 0.7107 0.98148 0.0
C363 C 0.99298 0.75407 0.01082 0.0
C364 C 0.97849 0.76296 0.09046 0.0
C365 C 0.97762 0.8065 0.1181 0.0
C366 C 0.99122 0.84017 0.06923 0.0
C367 C 1.00683 0.83142 -0.00709 0.0
C368 C 1.00824 0.78901 0.96424 0.0
H369 H 0.01687 0.70535 0.28537 0.0
C370 C 0.99084 0.72746 0.29575 0.0
H371 H 0.93423 0.76003 0.2417 0.0
H372 H 0.98768 0.62469 0.94109 0.0
H373 H 0.96405 0.56681 0.02884 0.0
H374 H 0.94126 0.58236 0.16924 0.0
H375 H 0.94177 0.65598 0.2226 0.0
C376 C 0.96013 0.73779 0.23132 0.0
C377 C 0.96706 0.72842 0.14244 0.0
C378 C 0.96635 0.6854 0.11222 0.0
C379 C 0.97949 0.67652 0.0314 0.0
C380 C 0.97837 0.63321 0.00243 0.0
C381 C 0.96469 0.59974 0.05196 0.0
C382 C 0.95185 0.60849 0.13102 0.0
C383 C 0.95257 0.65078 0.16113 0.0
H384 H 0.59362 0.70212 0.18168 0.0
C385 C 0.60617 0.73493 0.18485 0.0
H386 H 0.63391 0.78499 0.26442 0.0
H387 H 0.53283 0.67807 0.54215 0.0
H388 H 0.46682 0.68599 0.44458 0.0
H389 H 0.46879 0.71611 0.30094 0.0
H390 H 0.53655 0.73781 0.25401 0.0
C391 C 0.62049 0.75243 0.26095 0.0
C392 C 0.6188 0.72955 0.34335 0.0
C393 C 0.5782 0.718 0.37023 0.0
C394 C 0.57685 0.70204 0.45416 0.0
C395 C 0.53599 0.69054 0.47945 0.0
C396 C 0.49766 0.69502 0.42409 0.0
C397 C 0.49878 0.71186 0.34322 0.0
C398 C 0.53831 0.72373 0.31666 0.0
H399 H 0.63149 0.75351 0.64452 0.0
C400 C 0.61676 0.72319 0.66042 0.0
H401 H 0.59702 0.66069 0.61914 0.0
H402 H 0.70215 0.74355 0.30921 0.0
H403 H 0.76841 0.73377 0.40704 0.0
H404 H 0.7654 0.70824 0.55386 0.0
H405 H 0.69601 0.69224 0.60379 0.0
C406 C 0.61234 0.69083 0.60342 0.0
C407 C 0.61564 0.69973 0.5122 0.0
C408 C 0.65624 0.70908 0.48423 0.0
C409 C 0.65786 0.72384 0.3996 0.0
C410 C 0.69898 0.73266 0.3731 0.0
C411 C 0.73726 0.7269 0.42841 0.0
C412 C 0.73558 0.71247 0.51107 0.0
C413 C 0.6956 0.70368 0.53908 0.0
H414 H 0.49453 0.24418 0.35785 0.0
C415 C 0.52106 0.22178 0.35285 0.0
H416 H 0.56523 0.17752 0.41896 0.0
H417 H 0.54756 0.31263 0.72326 0.0
H418 H 0.6036 0.35017 0.65772 0.0
H419 H 0.62614 0.32424 0.52295 0.0
H420 H 0.59254 0.26086 0.45283 0.0
C421 C 0.53796 0.19927 0.42154 0.0
C422 C 0.52697 0.21171 0.50607 0.0
C423 C 0.54789 0.2482 0.54708 0.0
C424 C 0.53547 0.26267 0.62514 0.0
C425 C 0.55601 0.29991 0.66401 0.0
C426 C 0.58824 0.32183 0.62709 0.0
C427 C 0.60089 0.30727 0.55121 0.0
C428 C 0.58115 0.2709 0.51145 0.0
H429 H 0.53575 0.2133 0.81691 0.0
C430 C 0.51354 0.24041 0.818 0.0
H431 H 0.46993 0.28255 0.74482 0.0
H432 H 0.48208 0.13994 0.4444 0.0
H433 H 0.42682 0.10134 0.51161 0.0
H434 H 0.40638 0.12557 0.64934 0.0
H435 H 0.44082 0.18869 0.7206 0.0
C436 C 0.4915 0.25488 0.74531 0.0
C437 C 0.50321 0.23977 0.66303 0.0
C438 C 0.48307 0.20268 0.62323 0.0
C439 C 0.49491 0.18867 0.54411 0.0
C440 C 0.47409 0.15187 0.50463 0.0
C441 C 0.4424 0.12951 0.54248 0.0
C442 C 0.43088 0.14316 0.62007 0.0
C443 C 0.45092 0.17931 0.66037 0.0
loop_
_geom_bond_atom_site_label_1
_geom_bond_atom_site_label_2
_geom_bond_distance
_geom_bond_site_symmetry_2
_ccdc_geom_bond_type
Zn0 O6 1.920 . S
Zn0 O12 1.898 . S
Zn0 O15 1.905 1_655 S
Zn1 O9 1.905 . S
Zn1 O10 1.898 . S
Zn1 O18 1.920 . S
Zn2 O5 2.080 . S
Zn2 O8 2.114 . S
Zn2 O11 2.120 . S
Zn2 O13 2.120 1_455 S
Zn2 O14 2.114 . S
Zn2 O17 2.080 . S
C3 O8 1.166 . S
C3 O9 1.182 . S
C4 O10 1.167 . S
C4 O11 1.299 . S
O5 Zn2 2.080 . S
O5 C19 1.305 . S
O6 Zn0 1.920 . S
O6 C19 1.231 1_655 S
C7 O12 1.167 . S
C7 O13 1.299 . S
O8 Zn2 2.114 . S
O8 C3 1.166 . S
O9 Zn1 1.905 . S
O9 C3 1.182 . S
O10 Zn1 1.898 . S
O10 C4 1.167 . S
O11 Zn2 2.120 . S
O11 C4 1.299 . S
O12 Zn0 1.898 . S
O12 C7 1.167 . S
O13 Zn2 2.120 1_655 S
O13 C7 1.299 . S
O14 Zn2 2.114 . S
O14 C16 1.166 . S
O15 Zn0 1.905 1_455 S
O15 C16 1.182 . S
C16 O14 1.166 . S
C16 O15 1.182 . S
O17 Zn2 2.080 . S
O17 C20 1.305 . S
O18 Zn1 1.920 . S
O18 C20 1.234 . S
C19 O5 1.305 . S
C19 O6 1.231 1_455 S
C20 O17 1.305 . S
C20 O18 1.234 . S
Zn21 O27 1.920 . S
Zn21 O33 1.898 1_655 S
Zn21 O36 1.905 . S
Zn22 O30 1.905 . S
Zn22 O31 1.898 . S
Zn22 O39 1.920 . S
Zn23 O26 2.080 1_455 S
Zn23 O29 2.114 . S
Zn23 O32 2.120 . S
Zn23 O34 2.120 . S
Zn23 O35 2.114 . S
Zn23 O38 2.080 . S
C24 O29 1.166 . S
C24 O30 1.182 . S
C25 O31 1.167 . S
C25 O32 1.299 . S
O26 Zn23 2.080 1_655 S
O26 C40 1.305 . S
O27 Zn21 1.920 . S
O27 C40 1.234 . S
C28 O33 1.167 . S
C28 O34 1.299 . S
O29 Zn23 2.114 . S
O29 C24 1.166 . S
O30 Zn22 1.905 . S
O30 C24 1.182 . S
O31 Zn22 1.898 . S
O31 C25 1.167 . S
O32 Zn23 2.120 . S
O32 C25 1.299 . S
O33 Zn21 1.898 1_455 S
O33 C28 1.167 . S
O34 Zn23 2.120 . S
O34 C28 1.299 . S
O35 Zn23 2.114 . S
O35 C37 1.166 . S
O36 Zn21 1.905 . S
O36 C37 1.182 1_655 S
C37 O35 1.166 . S
C37 O36 1.182 1_455 S
O38 Zn23 2.080 . S
O38 C41 1.305 . S
O39 Zn22 1.920 . S
O39 C41 1.234 . S
C40 O26 1.305 . S
C40 O27 1.234 . S
C41 O38 1.305 . S
C41 O39 1.234 . S
Zn42 O48 1.920 . S
Zn42 O54 1.898 . S
Zn42 O57 1.905 . S
Zn43 O51 1.905 . S
Zn43 O52 1.898 1_554 S
Zn43 O60 1.920 1_554 S
Zn44 O47 2.080 . S
Zn44 O50 2.114 1_556 S
Zn44 O53 2.120 . S
Zn44 O55 2.120 . S
Zn44 O56 2.114 . S
Zn44 O59 2.080 . S
C45 O50 1.166 . S
C45 O51 1.182 . S
C46 O52 1.167 . S
C46 O53 1.299 . S
O47 Zn44 2.080 . S
O47 C61 1.305 . S
O48 Zn42 1.920 . S
O48 C61 1.234 . S
C49 O54 1.167 . S
C49 O55 1.299 . S
O50 Zn44 2.114 1_554 S
O50 C45 1.166 . S
O51 Zn43 1.905 . S
O51 C45 1.182 . S
O52 Zn43 1.898 1_556 S
O52 C46 1.167 . S
O53 Zn44 2.120 . S
O53 C46 1.299 . S
O54 Zn42 1.898 . S
O54 C49 1.167 . S
O55 Zn44 2.120 . S
O55 C49 1.299 . S
O56 Zn44 2.114 . S
O56 C58 1.166 . S
O57 Zn42 1.905 . S
O57 C58 1.182 . S
C58 O56 1.166 . S
C58 O57 1.182 . S
O59 Zn44 2.080 . S
O59 C62 1.305 . S
O60 Zn43 1.920 1_556 S
O60 C62 1.234 . S
C61 O47 1.305 . S
C61 O48 1.234 . S
C62 O59 1.305 . S
C62 O60 1.234 . S
Zn63 O69 1.920 . S
Zn63 O75 1.898 . S
Zn63 O78 1.905 . S
Zn64 O72 1.905 . S
Zn64 O73 1.898 1_556 S
Zn64 O81 1.920 1_556 S
Zn65 O68 2.080 . S
Zn65 O71 2.114 1_554 S
Zn65 O74 2.120 . S
Zn65 O76 2.120 . S
Zn65 O77 2.114 . S
Zn65 O80 2.080 . S
C66 O71 1.166 . S
C66 O72 1.182 . S
C67 O73 1.167 . S
C67 O74 1.299 . S
O68 Zn65 2.080 . S
O68 C82 1.305 . S
O69 Zn63 1.920 . S
O69 C82 1.234 . S
C70 O75 1.167 . S
C70 O76 1.299 . S
O71 Zn65 2.114 1_556 S
O71 C66 1.166 . S
O72 Zn64 1.905 . S
O72 C66 1.182 . S
O73 Zn64 1.898 1_554 S
O73 C67 1.167 . S
O74 Zn65 2.120 . S
O74 C67 1.299 . S
O75 Zn63 1.898 . S
O75 C70 1.167 . S
O76 Zn65 2.120 . S
O76 C70 1.299 . S
O77 Zn65 2.114 . S
O77 C79 1.166 . S
O78 Zn63 1.905 . S
O78 C79 1.182 . S
C79 O77 1.166 . S
C79 O78 1.182 . S
O80 Zn65 2.080 . S
O80 C83 1.305 . S
O81 Zn64 1.920 1_554 S
O81 C83 1.234 . S
C82 O68 1.305 . S
C82 O69 1.234 . S
C83 O80 1.305 . S
C83 O81 1.234 . S
H84 C85 0.951 . S
C85 H84 0.951 . S
C85 C91 1.265 . S
H86 C91 0.950 1_655 S
H87 C95 0.949 . S
H88 C96 0.950 1_655 S
H89 C97 0.951 . S
H90 C98 0.947 1_655 S
C91 C85 1.265 . S
C91 H86 0.950 1_455 S
C91 C92 1.478 . S
C92 C91 1.478 . S
C92 C93 1.397 . S
C92 C109 1.394 . S
C93 C92 1.397 . S
C93 C94 1.438 . S
C93 C98 1.441 . S
C94 C93 1.438 . S
C94 C95 1.428 . S
C94 C107 1.394 . S
C95 H87 0.949 . S
C95 C94 1.428 . S
C95 C96 1.345 . S
C96 H88 0.950 1_455 S
C96 C95 1.345 . S
C96 C97 1.424 1_455 S
C97 H89 0.951 . S
C97 C96 1.424 1_655 S
C97 C98 1.340 1_655 S
C98 H90 0.947 1_455 S
C98 C93 1.441 . S
C98 C97 1.340 1_455 S
H99 C100 0.951 . S
C100 H99 0.951 . S
C100 C106 1.265 . S
H101 C106 0.950 . S
H102 C110 0.949 . S
H103 C111 0.950 . S
H104 C112 0.951 . S
H105 C113 0.951 . S
C106 C100 1.265 . S
C106 H101 0.950 . S
C106 C107 1.478 . S
C107 C94 1.394 . S
C107 C106 1.478 . S
C107 C108 1.397 . S
C108 C107 1.397 . S
C108 C109 1.438 . S
C108 C113 1.429 . S
C109 C92 1.394 . S
C109 C108 1.438 . S
C109 C110 1.428 . S
C110 H102 0.949 . S
C110 C109 1.428 . S
C110 C111 1.345 . S
C111 H103 0.950 . S
C111 C110 1.345 . S
C111 C112 1.424 . S
C112 H104 0.951 . S
C112 C111 1.424 . S
C112 C113 1.347 . S
C113 H105 0.951 . S
C113 C108 1.429 . S
C113 C112 1.347 . S
H114 C115 0.951 . S
C115 H114 0.951 . S
C115 C121 1.265 . S
H116 C121 0.950 . S
H117 C125 0.949 . S
H118 C126 0.950 . S
H119 C127 0.951 . S
H120 C128 0.951 . S
C121 C115 1.265 . S
C121 H116 0.950 . S
C121 C122 1.478 . S
C122 C121 1.478 . S
C122 C123 1.397 . S
C122 C139 1.394 . S
C123 C122 1.397 . S
C123 C124 1.438 . S
C123 C128 1.429 . S
C124 C123 1.438 . S
C124 C125 1.428 . S
C124 C137 1.394 . S
C125 H117 0.949 . S
C125 C124 1.428 . S
C125 C126 1.345 . S
C126 H118 0.950 . S
C126 C125 1.345 . S
C126 C127 1.424 . S
C127 H119 0.951 . S
C127 C126 1.424 . S
C127 C128 1.347 . S
C128 H120 0.951 . S
C128 C123 1.429 . S
C128 C127 1.347 . S
H129 C130 0.951 . S
C130 H129 0.951 . S
C130 C136 1.265 . S
H131 C136 0.950 . S
H132 C140 0.949 . S
H133 C141 0.950 . S
H134 C142 0.951 . S
H135 C143 0.951 . S
C136 C130 1.265 . S
C136 H131 0.950 . S
C136 C137 1.478 . S
C137 C124 1.394 . S
C137 C136 1.478 . S
C137 C138 1.397 . S
C138 C137 1.397 . S
C138 C139 1.438 . S
C138 C143 1.429 . S
C139 C122 1.394 . S
C139 C138 1.438 . S
C139 C140 1.428 . S
C140 H132 0.949 . S
C140 C139 1.428 . S
C140 C141 1.345 . S
C141 H133 0.950 . S
C141 C140 1.345 . S
C141 C142 1.424 . S
C142 H134 0.951 . S
C142 C141 1.424 . S
C142 C143 1.347 . S
C143 H135 0.951 . S
C143 C138 1.429 . S
C143 C142 1.347 . S
H144 C145 0.951 . S
C145 H144 0.951 . S
C145 C151 1.265 . S
H146 C151 0.950 . S
H147 C155 0.949 . S
H148 C156 0.950 . S
H149 C157 0.951 . S
H150 C158 0.951 . S
C151 C145 1.265 . S
C151 H146 0.950 . S
C151 C152 1.478 . S
C152 C151 1.478 . S
C152 C153 1.397 . S
C152 C169 1.394 1_554 S
C153 C152 1.397 . S
C153 C154 1.438 . S
C153 C158 1.429 . S
C154 C153 1.438 . S
C154 C155 1.428 . S
C154 C167 1.394 1_554 S
C155 H147 0.949 . S
C155 C154 1.428 . S
C155 C156 1.345 . S
C156 H148 0.950 . S
C156 C155 1.345 . S
C156 C157 1.424 . S
C157 H149 0.951 . S
C157 C156 1.424 . S
C157 C158 1.347 . S
C158 H150 0.951 . S
C158 C153 1.429 . S
C158 C157 1.347 . S
H159 C160 0.951 . S
C160 H159 0.951 . S
C160 C166 1.265 . S
H161 C166 0.950 . S
H162 C170 0.949 . S
H163 C171 0.950 . S
H164 C172 0.951 . S
H165 C173 0.951 . S
C166 C160 1.265 . S
C166 H161 0.950 . S
C166 C167 1.478 . S
C167 C154 1.394 1_556 S
C167 C166 1.478 . S
C167 C168 1.397 . S
C168 C167 1.397 . S
C168 C169 1.438 . S
C168 C173 1.429 . S
C169 C152 1.394 1_556 S
C169 C168 1.438 . S
C169 C170 1.428 . S
C170 H162 0.949 . S
C170 C169 1.428 . S
C170 C171 1.345 . S
C171 H163 0.950 . S
C171 C170 1.345 . S
C171 C172 1.424 . S
C172 H164 0.951 . S
C172 C171 1.424 . S
C172 C173 1.347 . S
C173 H165 0.951 . S
C173 C168 1.429 . S
C173 C172 1.347 . S
H174 C175 0.951 . S
C175 H174 0.951 . S
C175 C181 1.265 . S
H176 C181 0.950 . S
H177 C185 0.949 . S
H178 C186 0.950 . S
H179 C187 0.951 . S
H180 C188 0.951 . S
C181 C175 1.265 . S
C181 H176 0.950 . S
C181 C182 1.478 . S
C182 C181 1.478 . S
C182 C183 1.397 . S
C182 C199 1.394 . S
C183 C182 1.397 . S
C183 C184 1.438 . S
C183 C188 1.429 . S
C184 C183 1.438 . S
C184 C185 1.428 . S
C184 C197 1.394 . S
C185 H177 0.949 . S
C185 C184 1.428 . S
C185 C186 1.345 . S
C186 H178 0.950 . S
C186 C185 1.345 . S
C186 C187 1.424 . S
C187 H179 0.951 . S
C187 C186 1.424 . S
C187 C188 1.347 . S
C188 H180 0.951 . S
C188 C183 1.429 . S
C188 C187 1.347 . S
H189 C190 0.951 . S
C190 H189 0.951 . S
C190 C196 1.265 . S
H191 C196 0.950 . S
H192 C200 0.949 . S
H193 C201 0.950 . S
H194 C202 0.951 . S
H195 C203 0.951 . S
C196 C190 1.265 . S
C196 H191 0.950 . S
C196 C197 1.478 . S
C197 C184 1.394 . S
C197 C196 1.478 . S
C197 C198 1.397 . S
C198 C197 1.397 . S
C198 C199 1.438 . S
C198 C203 1.429 . S
C199 C182 1.394 . S
C199 C198 1.438 . S
C199 C200 1.428 . S
C200 H192 0.949 . S
C200 C199 1.428 . S
C200 C201 1.345 . S
C201 H193 0.950 . S
C201 C200 1.345 . S
C201 C202 1.424 . S
C202 H194 0.951 . S
C202 C201 1.424 . S
C202 C203 1.347 . S
C203 H195 0.951 . S
C203 C198 1.429 . S
C203 C202 1.347 . S
H204 C205 0.951 . S
C205 H204 0.951 . S
C205 C211 1.265 . S
H206 C211 0.950 . S
H207 C215 0.949 . S
H208 C216 0.950 . S
H209 C217 0.951 . S
H210 C218 0.951 . S
C211 C205 1.265 . S
C211 H206 0.950 . S
C211 C212 1.478 . S
C212 C211 1.478 . S
C212 C213 1.397 . S
C212 C229 1.394 . S
C213 C212 1.397 . S
C213 C214 1.438 . S
C213 C218 1.429 . S
C214 C213 1.438 . S
C214 C215 1.428 . S
C214 C227 1.394 . S
C215 H207 0.949 . S
C215 C214 1.428 . S
C215 C216 1.345 . S
C216 H208 0.950 . S
C216 C215 1.345 . S
C216 C217 1.424 . S
C217 H209 0.951 . S
C217 C216 1.424 . S
C217 C218 1.347 . S
C218 H210 0.951 . S
C218 C213 1.429 . S
C218 C217 1.347 . S
H219 C220 0.951 . S
C220 H219 0.951 . S
C220 C226 1.265 . S
H221 C226 0.950 . S
H222 C230 0.949 . S
H223 C231 0.950 . S
H224 C232 0.951 . S
H225 C233 0.951 . S
C226 C220 1.265 . S
C226 H221 0.950 . S
C226 C227 1.478 . S
C227 C214 1.394 . S
C227 C226 1.478 . S
C227 C228 1.397 . S
C228 C227 1.397 . S
C228 C229 1.438 . S
C228 C233 1.429 . S
C229 C212 1.394 . S
C229 C228 1.438 . S
C229 C230 1.428 . S
C230 H222 0.949 . S
C230 C229 1.428 . S
C230 C231 1.345 . S
C231 H223 0.950 . S
C231 C230 1.345 . S
C231 C232 1.424 . S
C232 H224 0.951 . S
C232 C231 1.424 . S
C232 C233 1.347 . S
C233 H225 0.951 . S
C233 C228 1.429 . S
C233 C232 1.347 . S
H234 C235 0.951 . S
C235 H234 0.951 . S
C235 C241 1.265 . S
H236 C241 0.950 . S
H237 C245 0.949 . S
H238 C246 0.950 . S
H239 C247 0.951 . S
H240 C248 0.951 . S
C241 C235 1.265 . S
C241 H236 0.950 . S
C241 C242 1.478 . S
C242 C241 1.478 . S
C242 C243 1.397 . S
C242 C259 1.394 . S
C243 C242 1.397 . S
C243 C244 1.438 . S
C243 C248 1.429 . S
C244 C243 1.438 . S
C244 C245 1.428 . S
C244 C257 1.394 . S
C245 H237 0.949 . S
C245 C244 1.428 . S
C245 C246 1.345 . S
C246 H238 0.950 . S
C246 C245 1.345 . S
C246 C247 1.424 . S
C247 H239 0.951 . S
C247 C246 1.424 . S
C247 C248 1.347 . S
C248 H240 0.951 . S
C248 C243 1.429 . S
C248 C247 1.347 . S
H249 C250 0.951 . S
C250 H249 0.951 . S
C250 C256 1.265 . S
H251 C256 0.950 . S
H252 C260 0.949 . S
H253 C261 0.950 . S
H254 C262 0.951 . S
H255 C263 0.951 . S
C256 C250 1.265 . S
C256 H251 0.950 . S
C256 C257 1.478 . S
C257 C244 1.394 . S
C257 C256 1.478 . S
C257 C258 1.397 . S
C258 C257 1.397 . S
C258 C259 1.438 . S
C258 C263 1.429 . S
C259 C242 1.394 . S
C259 C258 1.438 . S
C259 C260 1.428 . S
C260 H252 0.949 . S
C260 C259 1.428 . S
C260 C261 1.345 . S
C261 H253 0.950 . S
C261 C260 1.345 . S
C261 C262 1.424 . S
C262 H254 0.951 . S
C262 C261 1.424 . S
C262 C263 1.347 . S
C263 H255 0.951 . S
C263 C258 1.429 . S
C263 C262 1.347 . S
H264 C265 0.951 . S
C265 H264 0.951 . S
C265 C271 1.265 . S
H266 C271 0.950 . S
H267 C275 0.949 . S
H268 C276 0.950 . S
H269 C277 0.951 . S
H270 C278 0.951 . S
C271 C265 1.265 . S
C271 H266 0.950 . S
C271 C272 1.478 . S
C272 C271 1.478 . S
C272 C273 1.397 1_556 S
C272 C289 1.394 . S
C273 C272 1.397 1_554 S
C273 C274 1.438 1_565 S
C273 C278 1.429 . S
C274 C273 1.438 1_545 S
C274 C275 1.428 . S
C274 C287 1.394 . S
C275 H267 0.949 . S
C275 C274 1.428 . S
C275 C276 1.345 . S
C276 H268 0.950 . S
C276 C275 1.345 . S
C276 C277 1.424 1_545 S
C277 H269 0.951 . S
C277 C276 1.424 1_565 S
C277 C278 1.347 . S
C278 H270 0.951 . S
C278 C273 1.429 . S
C278 C277 1.347 . S
H279 C280 0.951 . S
C280 H279 0.951 . S
C280 C286 1.265 . S
H281 C286 0.950 . S
H282 C290 0.949 . S
H283 C291 0.942 1_565 S
H284 C292 0.951 . S
H285 C293 0.951 . S
C286 C280 1.265 . S
C286 H281 0.950 . S
C286 C287 1.478 . S
C287 C274 1.394 . S
C287 C286 1.478 . S
C287 C288 1.397 1_554 S
C288 C287 1.397 1_556 S
C288 C289 1.438 1_545 S
C288 C293 1.429 . S
C289 C272 1.394 . S
C289 C288 1.438 1_565 S
C289 C290 1.428 . S
C290 H282 0.949 . S
C290 C289 1.428 . S
C290 C291 1.329 1_565 S
C291 H283 0.942 1_545 S
C291 C290 1.329 1_545 S
C291 C292 1.448 . S
C292 H284 0.951 . S
C292 C291 1.448 . S
C292 C293 1.347 . S
C293 H285 0.951 . S
C293 C288 1.429 . S
C293 C292 1.347 . S
H294 C295 0.951 . S
C295 H294 0.951 . S
C295 C301 1.265 . S
H296 C301 0.950 . S
H297 C305 0.949 . S
H298 C306 0.950 . S
H299 C307 0.951 . S
H300 C308 0.951 . S
C301 C295 1.265 . S
C301 H296 0.950 . S
C301 C302 1.478 . S
C302 C301 1.478 . S
C302 C303 1.397 . S
C302 C319 1.394 . S
C303 C302 1.397 . S
C303 C304 1.438 1_565 S
C303 C308 1.429 1_455 S
C304 C303 1.438 1_545 S
C304 C305 1.428 1_455 S
C304 C317 1.394 . S
C305 H297 0.949 . S
C305 C304 1.428 1_655 S
C305 C306 1.345 . S
C306 H298 0.950 . S
C306 C305 1.345 . S
C306 C307 1.424 1_545 S
C307 H299 0.951 . S
C307 C306 1.424 1_565 S
C307 C308 1.347 . S
C308 H300 0.951 . S
C308 C303 1.429 1_655 S
C308 C307 1.347 . S
H309 C310 0.951 . S
C310 H309 0.951 . S
C310 C316 1.265 . S
H311 C316 0.950 . S
H312 C320 0.949 . S
H313 C321 0.950 . S
H314 C322 0.951 . S
H315 C323 0.951 . S
C316 C310 1.265 . S
C316 H311 0.950 . S
C316 C317 1.478 . S
C317 C304 1.394 . S
C317 C316 1.478 . S
C317 C318 1.397 . S
C318 C317 1.397 . S
C318 C319 1.438 1_545 S
C318 C323 1.429 . S
C319 C302 1.394 . S
C319 C318 1.438 1_565 S
C319 C320 1.428 . S
C320 H312 0.949 . S
C320 C319 1.428 . S
C320 C321 1.345 . S
C321 H313 0.950 . S
C321 C320 1.345 . S
C321 C322 1.424 1_565 S
C322 H314 0.951 . S
C322 C321 1.424 1_545 S
C322 C323 1.347 . S
C323 H315 0.951 . S
C323 C318 1.429 . S
C323 C322 1.347 . S
H324 C325 0.951 . S
C325 H324 0.951 . S
C325 C331 1.265 . S
H326 C331 0.950 . S
H327 C335 0.949 . S
H328 C336 0.950 . S
H329 C337 0.951 . S
H330 C338 0.951 1_554 S
C331 C325 1.265 . S
C331 H326 0.950 . S
C331 C332 1.478 1_554 S
C332 C331 1.478 1_556 S
C332 C333 1.397 . S
C332 C349 1.394 . S
C333 C332 1.397 . S
C333 C334 1.438 . S
C333 C338 1.429 . S
C334 C333 1.438 . S
C334 C335 1.428 . S
C334 C347 1.394 . S
C335 H327 0.949 . S
C335 C334 1.428 . S
C335 C336 1.345 . S
C336 H328 0.950 . S
C336 C335 1.345 . S
C336 C337 1.424 . S
C337 H329 0.951 . S
C337 C336 1.424 . S
C337 C338 1.347 . S
C338 H330 0.951 1_556 S
C338 C333 1.429 . S
C338 C337 1.347 . S
H339 C340 0.951 . S
C340 H339 0.951 . S
C340 C346 1.265 . S
H341 C346 0.950 . S
H342 C350 0.949 1_554 S
H343 C351 0.950 . S
H344 C352 0.951 . S
H345 C353 0.951 . S
C346 C340 1.265 . S
C346 H341 0.950 . S
C346 C347 1.478 . S
C347 C334 1.394 . S
C347 C346 1.478 . S
C347 C348 1.397 . S
C348 C347 1.397 . S
C348 C349 1.438 . S
C348 C353 1.429 . S
C349 C332 1.394 . S
C349 C348 1.438 . S
C349 C350 1.428 . S
C350 H342 0.949 1_556 S
C350 C349 1.428 . S
C350 C351 1.345 . S
C351 H343 0.950 . S
C351 C350 1.345 . S
C351 C352 1.424 . S
C352 H344 0.951 . S
C352 C351 1.424 . S
C352 C353 1.347 . S
C353 H345 0.951 . S
C353 C348 1.429 . S
C353 C352 1.347 . S
H354 C355 0.951 1_655 S
C355 H354 0.951 1_455 S
C355 C361 1.265 . S
H356 C361 0.950 . S
H357 C365 0.949 . S
H358 C366 0.950 . S
H359 C367 0.951 . S
H360 C368 0.951 . S
C361 C355 1.265 . S
C361 H356 0.950 . S
C361 C362 1.478 1_556 S
C362 C361 1.478 1_554 S
C362 C363 1.397 . S
C362 C379 1.394 . S
C363 C362 1.397 . S
C363 C364 1.438 . S
C363 C368 1.429 . S
C364 C363 1.438 . S
C364 C365 1.428 . S
C364 C377 1.394 . S
C365 H357 0.949 . S
C365 C364 1.428 . S
C365 C366 1.345 . S
C366 H358 0.950 . S
C366 C365 1.345 . S
C366 C367 1.424 . S
C367 H359 0.951 . S
C367 C366 1.424 . S
C367 C368 1.347 . S
C368 H360 0.951 . S
C368 C363 1.429 . S
C368 C367 1.347 . S
H369 C370 0.951 . S
C370 H369 0.951 . S
C370 C376 1.265 1_455 S
H371 C376 0.950 . S
H372 C380 0.949 1_456 S
H373 C381 0.950 . S
H374 C382 0.951 . S
H375 C383 0.951 . S
C376 C370 1.265 1_655 S
C376 H371 0.950 . S
C376 C377 1.478 1_655 S
C377 C364 1.394 . S
C377 C376 1.478 1_455 S
C377 C378 1.397 1_455 S
C378 C377 1.397 1_655 S
C378 C379 1.438 1_655 S
C378 C383 1.429 . S
C379 C362 1.394 . S
C379 C378 1.438 1_455 S
C379 C380 1.428 1_455 S
C380 H372 0.949 1_654 S
C380 C379 1.428 1_655 S
C380 C381 1.345 . S
C381 H373 0.950 . S
C381 C380 1.345 . S
C381 C382 1.424 . S
C382 H374 0.951 . S
C382 C381 1.424 . S
C382 C383 1.347 . S
C383 H375 0.951 . S
C383 C378 1.429 . S
C383 C382 1.347 . S
H384 C385 0.951 . S
C385 H384 0.951 . S
C385 C391 1.265 . S
H386 C391 0.950 . S
H387 C395 0.949 . S
H388 C396 0.950 . S
H389 C397 0.951 . S
H390 C398 0.951 . S
C391 C385 1.265 . S
C391 H386 0.950 . S
C391 C392 1.478 . S
C392 C391 1.478 . S
C392 C393 1.397 . S
C392 C409 1.394 . S
C393 C392 1.397 . S
C393 C394 1.438 . S
C393 C398 1.429 . S
C394 C393 1.438 . S
C394 C395 1.428 . S
C394 C407 1.394 . S
C395 H387 0.949 . S
C395 C394 1.428 . S
C395 C396 1.345 . S
C396 H388 0.950 . S
C396 C395 1.345 . S
C396 C397 1.424 . S
C397 H389 0.951 . S
C397 C396 1.424 . S
C397 C398 1.347 . S
C398 H390 0.951 . S
C398 C393 1.429 . S
C398 C397 1.347 . S
H399 C400 0.951 . S
C400 H399 0.951 . S
C400 C406 1.265 . S
H401 C406 0.950 . S
H402 C410 0.949 . S
H403 C411 0.950 . S
H404 C412 0.951 . S
H405 C413 0.951 . S
C406 C400 1.265 . S
C406 H401 0.950 . S
C406 C407 1.478 . S
C407 C394 1.394 . S
C407 C406 1.478 . S
C407 C408 1.397 . S
C408 C407 1.397 . S
C408 C409 1.438 . S
C408 C413 1.429 . S
C409 C392 1.394 . S
C409 C408 1.438 . S
C409 C410 1.428 . S
C410 H402 0.949 . S
C410 C409 1.428 . S
C410 C411 1.345 . S
C411 H403 0.950 . S
C411 C410 1.345 . S
C411 C412 1.424 . S
C412 H404 0.951 . S
C412 C411 1.424 . S
C412 C413 1.347 . S
C413 H405 0.951 . S
C413 C408 1.429 . S
C413 C412 1.347 . S
H414 C415 0.951 . S
C415 H414 0.951 . S
C415 C421 1.265 . S
H416 C421 0.950 . S
H417 C425 0.949 . S
H418 C426 0.950 . S
H419 C427 0.951 . S
H420 C428 0.951 . S
C421 C415 1.265 . S
C421 H416 0.950 . S
C421 C422 1.478 . S
C422 C421 1.478 . S
C422 C423 1.397 . S
C422 C439 1.394 . S
C423 C422 1.397 . S
C423 C424 1.438 . S
C423 C428 1.429 . S
C424 C423 1.438 . S
C424 C425 1.428 . S
C424 C437 1.394 . S
C425 H417 0.949 . S
C425 C424 1.428 . S
C425 C426 1.345 . S
C426 H418 0.950 . S
C426 C425 1.345 . S
C426 C427 1.424 . S
C427 H419 0.951 . S
C427 C426 1.424 . S
C427 C428 1.347 . S
C428 H420 0.951 . S
C428 C423 1.429 . S
C428 C427 1.347 . S
H429 C430 0.951 . S
C430 H429 0.951 . S
C430 C436 1.265 . S
H431 C436 0.950 . S
H432 C440 0.949 . S
H433 C441 0.950 . S
H434 C442 0.951 . S
H435 C443 0.951 . S
C436 C430 1.265 . S
C436 H431 0.950 . S
C436 C437 1.478 . S
C437 C424 1.394 . S
C437 C436 1.478 . S
C437 C438 1.397 . S
C438 C437 1.397 . S
C438 C439 1.438 . S
C438 C443 1.429 . S
C439 C422 1.394 . S
C439 C438 1.438 . S
C439 C440 1.428 . S
C440 H432 0.949 . S
C440 C439 1.428 . S
C440 C441 1.345 . S
C441 H433 0.950 . S
C441 C440 1.345 . S
C441 C442 1.424 . S
C442 H434 0.951 . S
C442 C441 1.424 . S
C442 C443 1.347 . S
C443 H435 0.951 . S
C443 C438 1.429 . S
C443 C442 1.347 . S
C85 C3 1.312 . S
C100 C25 1.541 . S
C115 C62 1.192 . S
C130 C40 1.187 . S
C145 C67 1.410 . S
C160 C49 1.474 . S
C175 C7 1.696 . S
C190 C79 1.711 . S
C205 C83 1.283 . S
C220 C4 1.289 . S
C235 C58 1.709 . S
C250 C24 1.717 . S
C265 C46 1.295 . S
C280 C70 1.536 . S
C295 C28 1.381 . S
C310 C19 1.460 . S
C325 C16 1.039 . S
C340 C20 1.076 . S
C355 C41 1.187 . S
C370 C37 1.132 . S
C385 C45 1.073 . S
C400 C61 1.031 . S
C415 C82 1.190 . S
C430 C66 1.139 . S
