# Generated by pormake.
# Topology lcv, (4)-cn, num edge types: 1
# Building blocks:
#     Node 0, Type 0, BuildingBlock: ESEHIV_clean_sbu_0, # of connection points: 4
#     Node 1, Type 0, BuildingBlock: ESEHIV_clean_sbu_0, # of connection points: 4
#     Node 2, Type 0, BuildingBlock: ESEHIV_clean_sbu_0, # of connection points: 4
#     Node 3, Type 0, BuildingBlock: ESEHIV_clean_sbu_0, # of connection points: 4
#     Node 4, Type 0, BuildingBlock: ESEHIV_clean_sbu_0, # of connection points: 4
#     Node 5, Type 0, BuildingBlock: ESEHIV_clean_sbu_0, # of connection points: 4
#     Node 6, Type 0, BuildingBlock: ESEHIV_clean_sbu_0, # of connection points: 4
#     Node 7, Type 0, BuildingBlock: ESEHIV_clean_sbu_0, # of connection points: 4
#     Node 8, Type 0, BuildingBlock: ESEHIV_clean_sbu_0, # of connection points: 4
#     Node 9, Type 0, BuildingBlock: ESEHIV_clean_sbu_0, # of connection points: 4
#     Node 10, Type 0, BuildingBlock: ESEHIV_clean_sbu_0, # of connection points: 4
#     Node 11, Type 0, BuildingBlock: ESEHIV_clean_sbu_0, # of connection points: 4
#     Edge 12, Type (0, 0), BuildingBlock: CIFDUS_clean_linker_0, # of connection points: 2
#     Edge 13, Type (0, 0), BuildingBlock: CIFDUS_clean_linker_0, # of connection points: 2
#     Edge 14, Type (0, 0), BuildingBlock: CIFDUS_clean_linker_0, # of connection points: 2
#     Edge 15, Type (0, 0), BuildingBlock: CIFDUS_clean_linker_0, # of connection points: 2
#     Edge 16, Type (0, 0), BuildingBlock: CIFDUS_clean_linker_0, # of connection points: 2
#     Edge 17, Type (0, 0), BuildingBlock: CIFDUS_clean_linker_0, # of connection points: 2
#     Edge 18, Type (0, 0), BuildingBlock: CIFDUS_clean_linker_0, # of connection points: 2
#     Edge 19, Type (0, 0), BuildingBlock: CIFDUS_clean_linker_0, # of connection points: 2
#     Edge 20, Type (0, 0), BuildingBlock: CIFDUS_clean_linker_0, # of connection points: 2
#     Edge 21, Type (0, 0), BuildingBlock: CIFDUS_clean_linker_0, # of connection points: 2
#     Edge 22, Type (0, 0), BuildingBlock: CIFDUS_clean_linker_0, # of connection points: 2
#     Edge 23, Type (0, 0), BuildingBlock: CIFDUS_clean_linker_0, # of connection points: 2
#     Edge 24, Type (0, 0), BuildingBlock: CIFDUS_clean_linker_0, # of connection points: 2
#     Edge 25, Type (0, 0), BuildingBlock: CIFDUS_clean_linker_0, # of connection points: 2
#     Edge 26, Type (0, 0), BuildingBlock: CIFDUS_clean_linker_0, # of connection points: 2
#     Edge 27, Type (0, 0), BuildingBlock: CIFDUS_clean_linker_0, # of connection points: 2
#     Edge 28, Type (0, 0), BuildingBlock: CIFDUS_clean_linker_0, # of connection points: 2
#     Edge 29, Type (0, 0), BuildingBlock: CIFDUS_clean_linker_0, # of connection points: 2
#     Edge 30, Type (0, 0), BuildingBlock: CIFDUS_clean_linker_0, # of connection points: 2
#     Edge 31, Type (0, 0), BuildingBlock: CIFDUS_clean_linker_0, # of connection points: 2
#     Edge 32, Type (0, 0), BuildingBlock: CIFDUS_clean_linker_0, # of connection points: 2
#     Edge 33, Type (0, 0), BuildingBlock: CIFDUS_clean_linker_0, # of connection points: 2
#     Edge 34, Type (0, 0), BuildingBlock: CIFDUS_clean_linker_0, # of connection points: 2
#     Edge 35, Type (0, 0), BuildingBlock: CIFDUS_clean_linker_0, # of connection points: 2
# Relax obj value: 0.160
# Max RMSD: 0.308
# Mean RMSD: 0.279
data_MOF--net-lcv--node1-ESEHIV_clean_sbu_0--edge1-CIFDUS_clean_linker_0
_symmetry_space_group_name_H-M    P1
_symmetry_Int_Tables_number       1
_symmetry_cell_setting            triclinic
loop_
_symmetry_equiv_pos_as_xyz
'x, y, z'
_cell_length_a     44.245006
_cell_length_b     43.16323
_cell_length_c     43.913884
_cell_angle_alpha  96.408293
_cell_angle_beta   90.211478
_cell_angle_gamma 103.22173
loop_
_atom_site_label
_atom_site_type_symbol
_atom_site_fract_x
_atom_site_fract_y
_atom_site_fract_z
_atom_type_partial_charge
Cu0 Cu 0.04878 0.23299 0.19652 0.0
N1 N 0.05183 0.20019 0.21949 0.0
N2 N 0.07359 0.17227 0.2494 0.0
C3 C 0.07789 0.1984 0.23427 0.0
C4 C 0.04346 0.1571 0.24394 0.0
C5 C 0.03008 0.17442 0.2254 0.0
O6 O 0.08049 0.2367 0.1663 0.0
C7 C 0.04287 0.27452 0.24923 0.0
O8 O 0.02752 0.24811 0.25947 0.0
H9 H 0.09944 0.21631 0.23421 0.0
H10 H 0.00625 0.16868 0.21688 0.0
N11 N 0.01081 0.22604 0.17595 0.0
N12 N 0.97427 0.24083 0.14967 0.0
C13 C 0.99771 0.25013 0.1708 0.0
C14 C 0.99496 0.2002 0.15784 0.0
C15 C 0.97214 0.20923 0.14168 0.0
C16 C 0.10707 0.25544 0.17167 0.0
O17 O 0.11329 0.27251 0.19858 0.0
H18 H 0.00652 0.27446 0.18128 0.0
H19 H 1.00094 0.17713 0.155 0.0
O20 O 0.05439 0.273 0.2228 0.0
H21 H 0.032 0.13487 0.25232 0.0
H22 H 0.95675 0.19427 0.12392 0.0
Cu23 Cu 0.17546 0.81003 0.47583 0.0
N24 N 0.16926 0.84084 0.45164 0.0
N25 N 0.17839 0.87959 0.42086 0.0
C26 C 0.1909 0.86023 0.43669 0.0
C27 C 0.14767 0.87194 0.42616 0.0
C28 C 0.14213 0.84802 0.44514 0.0
O29 O 0.21811 0.82321 0.49201 0.0
C30 C 0.15722 0.74196 0.46015 0.0
O31 O 0.16014 0.74018 0.48965 0.0
H32 H 0.21525 0.85986 0.4372 0.0
H33 H 0.11992 0.83669 0.45371 0.0
N34 N 0.14889 0.81019 0.50874 0.0
N35 N 0.10666 0.80201 0.53744 0.0
C36 C 0.11898 0.79441 0.51017 0.0
C37 C 0.15579 0.82842 0.5358 0.0
C38 C 0.12992 0.82348 0.55351 0.0
C39 C 0.24246 0.82068 0.47752 0.0
O40 O 0.23972 0.80507 0.44983 0.0
H41 H 0.10662 0.77785 0.49149 0.0
H42 H 0.17797 0.84471 0.54193 0.0
O43 O 0.1646 0.76918 0.4502 0.0
H44 H 0.13045 0.88321 0.41749 0.0
H45 H 0.12831 0.83558 0.57617 0.0
Cu46 Cu 0.69858 0.90693 0.73552 0.0
N47 N 0.73069 0.91315 0.76468 0.0
N48 N 0.75613 0.90082 0.8039 0.0
C49 C 0.72866 0.8962 0.78875 0.0
C50 C 0.77645 0.92144 0.78861 0.0
C51 C 0.76059 0.92912 0.76436 0.0
O52 O 0.69686 0.86448 0.71482 0.0
C53 C 0.66198 0.93105 0.77995 0.0
O54 O 0.68928 0.94483 0.7928 0.0
H55 H 0.70778 0.87911 0.79378 0.0
H56 H 0.77048 0.94387 0.74688 0.0
N57 N 0.70653 0.93536 0.70608 0.0
N58 N 0.69114 0.95464 0.66505 0.0
C59 C 0.68366 0.94561 0.69298 0.0
C60 C 0.72972 0.93873 0.6861 0.0
C61 C 0.72023 0.95059 0.66066 0.0
C62 C 0.6899 0.85613 0.68648 0.0
O63 O 0.67582 0.8737 0.67143 0.0
H64 H 0.66039 0.94192 0.70169 0.0
H65 H 0.75028 0.92945 0.6881 0.0
O66 O 0.66039 0.91219 0.7552 0.0
H67 H 0.80112 0.92941 0.79387 0.0
H68 H 0.73252 0.95305 0.63947 0.0
Cu69 Cu 0.61424 0.39032 0.95025 0.0
N70 N 0.61721 0.42968 0.93551 0.0
N71 N 0.63804 0.4794 0.92482 0.0
C72 C 0.64301 0.45343 0.93678 0.0
C73 C 0.60779 0.47152 0.91562 0.0
C74 C 0.59499 0.44083 0.92233 0.0
O75 O 0.65446 0.39272 0.96931 0.0
C76 C 0.60636 0.32823 0.9152 0.0
O77 O 0.62465 0.32188 0.9361 0.0
H78 H 0.6651 0.45145 0.94603 0.0
H79 H 0.57116 0.42766 0.91813 0.0
N80 N 0.58462 0.38564 0.98032 0.0
N81 N 0.54714 0.36288 0.01009 0.0
C82 C 0.56527 0.35818 0.98614 0.0
C83 C 0.57865 0.40855 0.00121 0.0
C84 C 0.55543 0.39459 0.01959 0.0
C85 C 0.65893 0.37782 0.9917 0.0
O86 O 0.63621 0.3556 0.00051 0.0
H87 H 0.56441 0.3353 0.97287 0.0
H88 H 0.59054 0.43358 0.00302 0.0
O89 O 0.6007 0.35599 0.91691 0.0
H90 H 0.59563 0.48695 0.90524 0.0
H91 H 0.54579 0.40678 0.03872 0.0
Cu92 Cu 0.28475 0.07909 0.31947 0.0
N93 N 0.25621 0.10375 0.33081 0.0
N94 N 0.2185 0.12975 0.32635 0.0
C95 C 0.24287 0.12049 0.31287 0.0
C96 C 0.21693 0.11903 0.35416 0.0
C97 C 0.24028 0.10308 0.35685 0.0
O98 O 0.29759 0.08347 0.27775 0.0
C99 C 0.23822 0.02205 0.32053 0.0
O100 O 0.2208 0.03744 0.30671 0.0
H101 H 0.24944 0.1239 0.28959 0.0
H102 H 0.24415 0.09008 0.37563 0.0
N103 N 0.32041 0.09337 0.34406 0.0
N104 N 0.36364 0.09135 0.36943 0.0
C105 C 0.33614 0.07453 0.35654 0.0
C106 C 0.33822 0.12324 0.34924 0.0
C107 C 0.3649 0.12212 0.36499 0.0
C108 C 0.27949 0.08007 0.25449 0.0
O109 O 0.24935 0.07071 0.25734 0.0
H110 H 0.32766 0.04885 0.35536 0.0
H111 H 0.33278 0.14408 0.34098 0.0
O112 O 0.26673 0.03523 0.32635 0.0
H113 H 0.19933 0.12128 0.37078 0.0
H114 H 0.38419 0.14229 0.37141 0.0
Cu115 Cu 0.48204 0.94663 0.51161 0.0
N116 N 0.48634 0.96872 0.47746 0.0
N117 N 0.47242 0.99493 0.44091 0.0
C118 C 0.46299 0.97176 0.45925 0.0
C119 C 0.5029 0.00689 0.44773 0.0
C120 C 0.51148 0.9905 0.47029 0.0
O121 O 0.44307 0.91405 0.50718 0.0
C122 C 0.47566 0.97294 0.5733 0.0
O123 O 0.46086 0.94391 0.578 0.0
H124 H 0.43903 0.95926 0.46129 0.0
H125 H 0.53384 0.99563 0.48217 0.0
N126 N 0.5161 0.92881 0.51582 0.0
N127 N 0.56151 0.92356 0.53447 0.0
C128 C 0.54054 0.94192 0.53502 0.0
C129 C 0.52168 0.90124 0.50233 0.0
C130 C 0.54976 0.89793 0.5138 0.0
C131 C 0.4171 0.92047 0.51428 0.0
O132 O 0.41658 0.94951 0.52659 0.0
H133 H 0.54273 0.96455 0.54916 0.0
H134 H 0.5062 0.88453 0.48579 0.0
O135 O 0.48459 0.97862 0.54664 0.0
H136 H 0.51741 0.02709 0.43826 0.0
H137 H 0.56015 0.87772 0.50803 0.0
Cu138 Cu 0.49583 0.10047 0.79563 0.0
N139 N 0.50867 0.06647 0.81011 0.0
N140 N 0.53005 0.02448 0.81133 0.0
C141 C 0.52256 0.0456 0.79388 0.0
C142 C 0.52039 0.03235 0.83967 0.0
C143 C 0.50708 0.05821 0.8388 0.0
O144 O 0.48844 0.09003 0.75192 0.0
C145 C 0.51991 0.1676 0.81191 0.0
O146 O 0.4926 0.17032 0.80226 0.0
H147 H 0.52811 0.0466 0.77002 0.0
H148 H 0.49743 0.0705 0.85784 0.0
N149 N 0.45712 0.10185 0.81106 0.0
N150 N 0.41851 0.10746 0.84206 0.0
C151 C 0.44951 0.11075 0.8398 0.0
C152 C 0.43022 0.09275 0.79464 0.0
C153 C 0.40634 0.09618 0.81368 0.0
C154 C 0.50776 0.08745 0.73104 0.0
O155 O 0.53769 0.09716 0.73745 0.0
H156 H 0.46628 0.11887 0.85866 0.0
H157 H 0.42814 0.08408 0.77047 0.0
O158 O 0.52614 0.14006 0.80927 0.0
H159 H 0.52306 0.02054 0.85967 0.0
H160 H 0.38196 0.09108 0.80704 0.0
Cu161 Cu 0.33265 0.22436 0.07099 0.0
N162 N 0.33341 0.19273 0.03891 0.0
N163 N 0.34793 0.16669 0.99684 0.0
C164 C 0.35272 0.19462 0.0153 0.0
C165 C 0.32441 0.14662 0.00918 0.0
C166 C 0.31549 0.16281 0.03515 0.0
O167 O 0.37091 0.25711 0.07329 0.0
C168 C 0.33393 0.18137 0.11573 0.0
O169 O 0.35492 0.17108 0.09893 0.0
H170 H 0.36993 0.21607 0.01181 0.0
H171 H 0.29762 0.15331 0.05059 0.0
N172 N 0.29993 0.24304 0.06404 0.0
N173 N 0.25789 0.26177 0.07511 0.0
C174 C 0.28369 0.25495 0.08631 0.0
C175 C 0.28413 0.24248 0.03767 0.0
C176 C 0.25796 0.25395 0.04448 0.0
C177 C 0.39752 0.25065 0.07127 0.0
O178 O 0.3997 0.2207 0.0701 0.0
H179 H 0.28934 0.25606 0.11048 0.0
H180 H 0.29018 0.2326 0.01541 0.0
O181 O 0.3236 0.20476 0.10839 0.0
H182 H 0.31489 0.12178 0.00059 0.0
H183 H 0.23969 0.25496 0.02842 0.0
Cu184 Cu 0.87513 0.45694 0.10002 0.0
N185 N 0.8953 0.49052 0.079 0.0
N186 N 0.90411 0.52798 0.04683 0.0
C187 C 0.88467 0.50111 0.05432 0.0
C188 C 0.92815 0.53413 0.06735 0.0
C189 C 0.92265 0.51094 0.08711 0.0
O190 O 0.83077 0.44639 0.09078 0.0
C191 C 0.87624 0.44851 0.16278 0.0
O192 O 0.85609 0.42159 0.15356 0.0
H193 H 0.8624 0.49018 0.04302 0.0
H194 H 0.9371 0.50955 0.10661 0.0
N195 N 0.88862 0.42039 0.08618 0.0
N196 N 0.90953 0.37819 0.08675 0.0
C197 C 0.90873 0.40748 0.10059 0.0
C198 C 0.87644 0.39871 0.06231 0.0
C199 C 0.88928 0.37251 0.06264 0.0
C200 C 0.81459 0.46654 0.08691 0.0
O201 O 0.82712 0.49732 0.09299 0.0
H202 H 0.92108 0.41848 0.12183 0.0
H203 H 0.85844 0.40121 0.04666 0.0
O204 O 0.88615 0.46793 0.14338 0.0
H205 H 0.94803 0.55425 0.06841 0.0
H206 H 0.88361 0.35069 0.04692 0.0
Cu207 Cu 0.01436 0.51389 0.37205 0.0
N208 N 0.02734 0.47638 0.37554 0.0
N209 N 0.03641 0.42766 0.36489 0.0
C210 C 0.02857 0.45257 0.35338 0.0
C211 C 0.04043 0.43625 0.39539 0.0
C212 C 0.03489 0.46638 0.40186 0.0
O213 O 0.99785 0.5135 0.33064 0.0
C214 C 0.05274 0.57792 0.37764 0.0
O215 O 0.03401 0.58366 0.35679 0.0
H216 H 0.02256 0.45295 0.32953 0.0
H217 H 0.03546 0.47977 0.42428 0.0
N218 N 0.98284 0.51544 0.39962 0.0
N219 N 0.95378 0.53455 0.43501 0.0
C220 C 0.97747 0.54182 0.41586 0.0
C221 C 0.96205 0.49062 0.40894 0.0
C222 C 0.94391 0.50237 0.43067 0.0
C223 C 0.97404 0.49143 0.32166 0.0
O224 O 0.96268 0.47011 0.34023 0.0
H225 H 0.99085 0.56581 0.41381 0.0
H226 H 0.96069 0.46568 0.40102 0.0
O227 O 0.0487 0.54982 0.38549 0.0
H228 H 0.04657 0.42165 0.41185 0.0
H229 H 0.92565 0.48828 0.44308 0.0
Cu230 Cu 0.88149 0.71543 0.61177 0.0
N231 N 0.86828 0.67598 0.58865 0.0
N232 N 0.869 0.63351 0.55492 0.0
C233 C 0.88332 0.664 0.56536 0.0
C234 C 0.8438 0.62629 0.57237 0.0
C235 C 0.84347 0.65257 0.59319 0.0
O236 O 0.9227 0.73556 0.59903 0.0
C237 C 0.89474 0.68918 0.66573 0.0
O238 O 0.91213 0.67406 0.64832 0.0
H239 H 0.90457 0.67742 0.55663 0.0
H240 H 0.8269 0.65423 0.611 0.0
N241 N 0.85295 0.74015 0.60656 0.0
N242 N 0.81402 0.76429 0.61736 0.0
C243 C 0.83223 0.74612 0.62741 0.0
C244 C 0.84774 0.75482 0.58228 0.0
C245 C 0.8237 0.76981 0.58889 0.0
C246 C 0.94416 0.7511 0.61791 0.0
O247 O 0.93806 0.75521 0.64714 0.0
H248 H 0.83045 0.73695 0.64945 0.0
H249 H 0.86057 0.75471 0.56137 0.0
O250 O 0.8811 0.70836 0.6544 0.0
H251 H 0.82739 0.60333 0.57103 0.0
H252 H 0.81459 0.7842 0.57413 0.0
Cu253 Cu 0.81059 0.68195 0.89376 0.0
N254 N 0.80133 0.72161 0.90402 0.0
N255 N 0.79675 0.77109 0.89828 0.0
C256 C 0.80812 0.74593 0.88672 0.0
C257 C 0.78224 0.76219 0.92401 0.0
C258 C 0.78522 0.7316 0.92756 0.0
O259 O 0.81909 0.67955 0.85052 0.0
C260 C 0.7512 0.64045 0.88456 0.0
O261 O 0.74881 0.65767 0.86219 0.0
H262 H 0.81989 0.74452 0.86522 0.0
H263 H 0.7756 0.71732 0.94546 0.0
N264 N 0.84506 0.67943 0.91677 0.0
N265 N 0.87549 0.66079 0.94727 0.0
C266 C 0.84783 0.65487 0.93204 0.0
C267 C 0.87178 0.7017 0.9224 0.0
C268 C 0.89064 0.69028 0.94129 0.0
C269 C 0.84161 0.6702 0.83758 0.0
O270 O 0.8608 0.65887 0.85373 0.0
H271 H 0.82954 0.63347 0.93257 0.0
H272 H 0.87701 0.72467 0.91353 0.0
O273 O 0.77589 0.64745 0.90126 0.0
H274 H 0.76987 0.77646 0.93885 0.0
H275 H 0.91369 0.70268 0.94987 0.0
H276 H 0.13563 0.18729 0.24289 0.0
H277 H 0.06353 0.13545 0.2962 0.0
H278 H 0.10251 0.11881 0.326 0.0
H279 H 0.15697 0.11789 0.33595 0.0
H280 H 0.2289 0.17011 0.28282 0.0
H281 H 0.19002 0.18819 0.25415 0.0
C282 C 0.12838 0.17274 0.26129 0.0
C283 C 0.0966 0.16269 0.26725 0.0
C284 C 0.15091 0.16341 0.27841 0.0
C285 C 0.08773 0.14323 0.29082 0.0
C286 C 0.11005 0.13388 0.30803 0.0
C287 C 0.1642 0.13371 0.31852 0.0
C288 C 0.19582 0.14272 0.31159 0.0
C289 C 0.14169 0.14373 0.30194 0.0
C290 C 0.2047 0.16269 0.28843 0.0
C291 C 0.1825 0.17303 0.27206 0.0
H292 H 0.36059 0.91978 0.53853 0.0
H293 H 0.40702 0.86742 0.47182 0.0
H294 H 0.35732 0.83099 0.45523 0.0
H295 H 0.30006 0.81593 0.45769 0.0
H296 H 0.25438 0.86751 0.52595 0.0
H297 H 0.30426 0.902 0.54395 0.0
C298 C 0.35987 0.90026 0.5205 0.0
C299 C 0.38747 0.89652 0.50629 0.0
C300 C 0.33126 0.87924 0.51125 0.0
C301 C 0.38615 0.87085 0.4832 0.0
C302 C 0.35769 0.85007 0.4736 0.0
C303 C 0.30105 0.83452 0.47668 0.0
C304 C 0.27336 0.83916 0.49023 0.0
C305 C 0.33 0.8543 0.48716 0.0
C306 C 0.2752 0.86327 0.51501 0.0
C307 C 0.30377 0.88317 0.5253 0.0
H308 H 0.56999 0.00458 0.84667 0.0
H309 H 0.5306 0.9921 0.75495 0.0
H310 H 0.56563 0.95783 0.73761 0.0
H311 H 0.61121 0.93616 0.74751 0.0
H312 H 0.65212 0.95149 0.83882 0.0
H313 H 0.61226 0.97909 0.85754 0.0
C314 C 0.56857 0.9938 0.82306 0.0
C315 C 0.54791 1.00114 0.8021 0.0
C316 C 0.58913 0.9746 0.81317 0.0
C317 C 0.54667 0.98726 0.77144 0.0
C318 C 0.56661 0.96756 0.76153 0.0
C319 C 0.61086 0.94485 0.77163 0.0
C320 C 0.63451 0.94186 0.79179 0.0
C321 C 0.58849 0.96173 0.78203 0.0
C322 C 0.63415 0.95363 0.82289 0.0
C323 C 0.61146 0.96953 0.83358 0.0
H324 H 0.49576 0.37214 0.03902 0.0
H325 H 0.54553 0.29969 0.00913 0.0
H326 H 0.50444 0.25868 0.02756 0.0
H327 H 0.45321 0.243 0.04987 0.0
H328 H 0.40292 0.31535 0.07885 0.0
H329 H 0.44571 0.35687 0.06372 0.0
C330 C 0.49785 0.34748 0.03694 0.0
C331 C 0.52362 0.33903 0.02249 0.0
C332 C 0.47406 0.32398 0.0475 0.0
C333 C 0.52571 0.30681 0.01964 0.0
C334 C 0.50231 0.28335 0.03036 0.0
C335 C 0.45178 0.2679 0.0533 0.0
C336 C 0.42488 0.27603 0.06544 0.0
C337 C 0.4762 0.2916 0.04399 0.0
C338 C 0.42333 0.3084 0.06948 0.0
C339 C 0.44775 0.33217 0.06076 0.0
H340 H 0.26443 0.99163 0.36079 0.0
H341 H 0.17938 0.98529 0.30947 0.0
H342 H 0.15367 0.93937 0.3351 0.0
H343 H 0.15452 0.90309 0.37416 0.0
H344 H 0.23895 0.91128 0.4271 0.0
H345 H 0.26577 0.95407 0.39843 0.0
C346 C 0.24038 0.97998 0.3549 0.0
C347 C 0.22383 0.99199 0.33332 0.0
C348 C 0.22555 0.95399 0.37014 0.0
C349 C 0.19265 0.97663 0.32607 0.0
C350 C 0.17789 0.95041 0.34078 0.0
C351 C 0.17873 0.91431 0.37957 0.0
C352 C 0.19454 0.90399 0.40295 0.0
C353 C 0.19394 0.93931 0.36329 0.0
C354 C 0.22617 0.91842 0.4091 0.0
C355 C 0.24154 0.94309 0.39281 0.0
H356 H 0.57339 0.95988 0.58932 0.0
H357 H 0.6127 0.89996 0.52291 0.0
H358 H 0.65845 0.90705 0.55655 0.0
H359 H 0.68559 0.92735 0.60643 0.0
H360 H 0.64556 0.98627 0.67285 0.0
H361 H 0.60205 0.98327 0.63719 0.0
C362 C 0.59213 0.94881 0.5818 0.0
C363 C 0.58938 0.92924 0.55354 0.0
C364 C 0.61833 0.95297 0.60127 0.0
C365 C 0.61386 0.9147 0.54468 0.0
C366 C 0.64017 0.91893 0.56384 0.0
C367 C 0.66777 0.94023 0.61271 0.0
C368 C 0.66881 0.95725 0.64211 0.0
C369 C 0.64246 0.93765 0.59238 0.0
C370 C 0.64517 0.97316 0.65028 0.0
C371 C 0.62028 0.97128 0.62999 0.0
H372 H 0.61603 0.26797 0.90154 0.0
H373 H 0.55901 0.33033 0.8759 0.0
H374 H 0.52842 0.28679 0.84052 0.0
H375 H 0.51567 0.23007 0.8191 0.0
H376 H 0.57301 0.16779 0.84416 0.0
H377 H 0.60564 0.2122 0.87716 0.0
C378 C 0.59707 0.27213 0.88804 0.0
C379 C 0.58978 0.30241 0.89164 0.0
C380 C 0.57948 0.24691 0.86762 0.0
C381 C 0.56522 0.30734 0.87372 0.0
C382 C 0.54759 0.28238 0.85349 0.0
C383 C 0.53547 0.22624 0.83154 0.0
C384 C 0.54165 0.19548 0.82924 0.0
C385 C 0.55419 0.25193 0.85058 0.0
C386 C 0.56759 0.19113 0.84544 0.0
C387 C 0.58625 0.21653 0.86445 0.0
H388 H 0.19689 0.2378 0.06343 0.0
H389 H 0.26296 0.30082 0.12796 0.0
H390 H 0.2213 0.30635 0.16318 0.0
H391 H 0.16699 0.28941 0.17731 0.0
H392 H 0.10117 0.22453 0.11344 0.0
H393 H 0.14178 0.22375 0.07613 0.0
C394 C 0.20198 0.25334 0.08487 0.0
C395 C 0.23285 0.26889 0.09321 0.0
C396 C 0.17804 0.2557 0.10524 0.0
C397 C 0.23931 0.28852 0.12127 0.0
C398 C 0.21555 0.2916 0.14137 0.0
C399 C 0.16144 0.2753 0.15514 0.0
C400 C 0.13117 0.25682 0.14832 0.0
C401 C 0.18496 0.27463 0.13393 0.0
C402 C 0.12436 0.23878 0.11941 0.0
C403 C 0.14755 0.23833 0.09801 0.0
H404 H 0.25406 0.11539 0.2195 0.0
H405 H 0.33408 0.07549 0.22811 0.0
H406 H 0.35791 0.10262 0.18501 0.0
H407 H 0.35683 0.13979 0.14645 0.0
H408 H 0.27845 0.18318 0.14144 0.0
H409 H 0.2533 0.15292 0.18171 0.0
C410 C 0.27646 0.11221 0.21151 0.0
C411 C 0.29215 0.09315 0.22645 0.0
C412 C 0.29051 0.12894 0.18771 0.0
C413 C 0.32153 0.08988 0.21661 0.0
C414 C 0.33519 0.1055 0.19214 0.0
C415 C 0.33426 0.14259 0.1542 0.0
C416 C 0.31961 0.16376 0.14102 0.0
C417 C 0.32008 0.12549 0.17781 0.0
C418 C 0.2904 0.16726 0.15138 0.0
C419 C 0.27587 0.14983 0.1743 0.0
H420 H 0.47325 0.05714 0.44032 0.0
H421 H 0.42608 0.96198 0.40235 0.0
H422 H 0.38852 0.98375 0.37531 0.0
H423 H 0.36844 0.02945 0.36428 0.0
H424 H 0.41301 0.1246 0.40585 0.0
H425 H 0.45268 0.10328 0.42926 0.0
C426 C 0.45502 0.04136 0.42567 0.0
C427 C 0.45241 0.00811 0.42293 0.0
C428 C 0.43306 0.05401 0.41105 0.0
C429 C 0.42838 0.98766 0.40456 0.0
C430 C 0.40697 1.0001 0.38924 0.0
C431 C 0.38648 0.0457 0.37867 0.0
C432 C 0.38734 0.07874 0.38323 0.0
C433 C 0.40884 0.0332 0.39272 0.0
C434 C 0.41165 0.09917 0.40155 0.0
C435 C 0.43438 0.08696 0.41513 0.0
H436 H 0.53845 0.08171 0.67744 0.0
H437 H 0.4508 0.04747 0.71939 0.0
H438 H 0.43309 0.00926 0.67444 0.0
H439 H 0.4433 0.98312 0.62421 0.0
H440 H 0.52913 0.01921 0.58036 0.0
H441 H 0.54666 0.05892 0.62482 0.0
C442 C 0.51537 0.06613 0.67656 0.0
C443 C 0.49618 0.0674 0.70189 0.0
C444 C 0.50501 0.04427 0.65034 0.0
C445 C 0.46617 0.04716 0.70027 0.0
C446 C 0.45598 0.02509 0.67459 0.0
C447 C 0.46574 0.99984 0.62441 0.0
C448 C 0.48498 0.99818 0.59929 0.0
C449 C 0.47536 0.02305 0.64971 0.0
C450 C 0.51387 0.02017 0.59951 0.0
C451 C 0.52395 0.0428 0.62494 0.0
H452 H 0.43943 0.15141 0.89042 0.0
H453 H 0.35952 0.07886 0.85426 0.0
H454 H 0.33031 0.09116 0.89918 0.0
H455 H 0.32732 0.12275 0.94849 0.0
H456 H 0.40756 0.19443 0.98541 0.0
H457 H 0.43676 0.18232 0.94039 0.0
C458 C 0.41575 0.13807 0.89254 0.0
C459 C 0.40168 0.11432 0.86899 0.0
C460 C 0.39909 0.14522 0.91848 0.0
C461 C 0.37077 0.09758 0.87185 0.0
C462 C 0.35409 0.10447 0.8976 0.0
C463 C 0.35127 0.13551 0.94684 0.0
C464 C 0.36515 0.15949 0.97027 0.0
C465 C 0.36799 0.12829 0.92101 0.0
C466 C 0.39611 0.17618 0.96751 0.0
C467 C 0.41292 0.16913 0.94187 0.0
H468 H 0.77827 0.40591 0.07894 0.0
H469 H 0.7827 0.50193 0.05721 0.0
H470 H 0.73576 0.48256 0.02477 0.0
H471 H 0.69435 0.43819 0.00132 0.0
H472 H 0.68773 0.3427 0.02522 0.0
H473 H 0.73487 0.36192 0.05783 0.0
C474 C 0.7688 0.42265 0.06732 0.0
C475 C 0.78406 0.45533 0.07047 0.0
C476 C 0.74168 0.41136 0.04878 0.0
C477 C 0.77137 0.47671 0.05539 0.0
C478 C 0.74464 0.46561 0.03662 0.0
C479 C 0.7034 0.42154 0.01347 0.0
C480 C 0.68797 0.38897 0.01049 0.0
C481 C 0.72985 0.43295 0.03285 0.0
C482 C 0.69942 0.36782 0.02698 0.0
C483 C 0.72628 0.37883 0.04567 0.0
H484 H 0.05412 0.41738 0.30693 0.0
H485 H 0.02147 0.36967 0.38576 0.0
H486 H 0.02142 0.3178 0.35708 0.0
H487 H 0.02892 0.28591 0.30901 0.0
H488 H 0.06219 0.33376 0.23024 0.0
H489 H 0.06364 0.38565 0.25942 0.0
C490 C 0.04693 0.39559 0.31773 0.0
C491 C 0.0377 0.39732 0.34833 0.0
C492 C 0.047 0.3659 0.30111 0.0
C493 C 0.02895 0.36898 0.36231 0.0
C494 C 0.02873 0.33931 0.34587 0.0
C495 C 0.03656 0.30769 0.29825 0.0
C496 C 0.04525 0.30594 0.26747 0.0
C497 C 0.03749 0.33747 0.31519 0.0
C498 C 0.05538 0.33442 0.25393 0.0
C499 C 0.05615 0.36412 0.27056 0.0
H500 H 0.96461 0.74778 0.55922 0.0
H501 H 0.99585 0.7809 0.65299 0.0
H502 H 0.04883 0.79893 0.63635 0.0
H503 H 0.08638 0.80461 0.59559 0.0
H504 H 0.05529 0.77341 0.50147 0.0
H505 H 0.0024 0.75477 0.51803 0.0
C506 C 0.98297 0.75904 0.57603 0.0
C507 C 0.97613 0.76297 0.60735 0.0
C508 C 0.01353 0.76947 0.5663 0.0
C509 C 1.00031 0.7776 0.62875 0.0
C510 C 0.0307 0.78788 0.61926 0.0
C511 C 0.06814 0.79413 0.57851 0.0
C512 C 0.07521 0.79062 0.54721 0.0
C513 C 0.03759 0.7839 0.58812 0.0
C514 C 0.05096 0.77622 0.52572 0.0
C515 C 0.02052 0.7657 0.53516 0.0
H516 H 0.07458 0.63847 0.36234 0.0
H517 H 0.08314 0.57728 0.43166 0.0
H518 H 0.11757 0.62204 0.46252 0.0
H519 H 0.14264 0.67947 0.47154 0.0
H520 H 0.13518 0.74041 0.40167 0.0
H521 H 0.10336 0.69492 0.3694 0.0
C522 C 0.08418 0.63487 0.38408 0.0
C523 C 0.07603 0.60457 0.3947 0.0
C524 C 0.10418 0.66075 0.40176 0.0
C525 C 0.08896 0.6003 0.42284 0.0
C526 C 0.10862 0.62594 0.44062 0.0
C527 C 0.13433 0.68275 0.44913 0.0
C528 C 0.14115 0.71343 0.43925 0.0
C529 C 0.116 0.65641 0.43055 0.0
C530 C 0.13034 0.71712 0.40997 0.0
C531 C 0.11198 0.69111 0.39148 0.0
H532 H 0.74933 0.5999 0.92813 0.0
H533 H 0.69666 0.6173 0.85145 0.0
H534 H 0.65648 0.56936 0.85766 0.0
H535 H 0.63722 0.52137 0.88364 0.0
H536 H 0.68978 0.50455 0.96063 0.0
H537 H 0.72912 0.55316 0.95526 0.0
C538 C 0.72901 0.59333 0.91283 0.0
C539 C 0.72613 0.61218 0.88929 0.0
C540 C 0.70602 0.56565 0.91643 0.0
C541 C 0.69956 0.60326 0.86975 0.0
C542 C 0.67655 0.57579 0.87325 0.0
C543 C 0.65705 0.5285 0.89949 0.0
C544 C 0.66053 0.50903 0.92234 0.0
C545 C 0.67964 0.55666 0.89636 0.0
C546 C 0.68668 0.51861 0.94245 0.0
C547 C 0.70916 0.54658 0.93953 0.0
H548 H 0.80733 0.87832 0.81141 0.0
H549 H 0.71859 0.88214 0.84976 0.0
H550 H 0.7248 0.8441 0.88526 0.0
H551 H 0.75275 0.80533 0.90119 0.0
H552 H 0.84088 0.8003 0.86186 0.0
H553 H 0.83779 0.84331 0.83109 0.0
C554 C 0.78976 0.8714 0.82806 0.0
C555 C 0.76245 0.88279 0.82787 0.0
C556 C 0.7932 0.84897 0.84792 0.0
C557 C 0.73964 0.87333 0.84931 0.0
C558 C 0.74317 0.8516 0.86956 0.0
C559 C 0.77159 0.81412 0.88642 0.0
C560 C 0.79682 0.79935 0.88357 0.0
C561 C 0.76944 0.83855 0.86847 0.0
C562 C 0.82092 0.81086 0.86405 0.0
C563 C 0.81923 0.83553 0.84651 0.0
H564 H 0.99558 0.30396 0.14591 0.0
H565 H 0.9175 0.22445 0.12083 0.0
H566 H 0.8909 0.25998 0.09712 0.0
H567 H 0.88926 0.31428 0.0854 0.0
H568 H 0.96663 0.39349 0.1132 0.0
H569 H 0.99402 0.35738 0.13467 0.0
C570 C 0.97254 0.29429 0.13578 0.0
C571 C 0.95843 0.26154 0.13557 0.0
C572 C 0.95731 0.31486 0.12272 0.0
C573 C 0.92896 0.2495 0.12127 0.0
C574 C 0.9137 0.26984 0.10781 0.0
C575 C 0.91227 0.32345 0.09583 0.0
C576 C 0.92605 0.35642 0.09771 0.0
C577 C 0.92762 0.3026 0.10855 0.0
C578 C 0.95561 0.36822 0.11173 0.0
C579 C 0.97123 0.34761 0.12392 0.0
H580 H 0.76472 0.78229 0.59418 0.0
H581 H 0.81022 0.77418 0.67912 0.0
H582 H 0.77252 0.79745 0.70805 0.0
H583 H 0.72984 0.82462 0.70941 0.0
H584 H 0.68569 0.83597 0.62483 0.0
H585 H 0.71934 0.80657 0.59574 0.0
C586 C 0.76642 0.78564 0.619 0.0
C587 C 0.79052 0.77659 0.63431 0.0
C588 C 0.74483 0.79959 0.63565 0.0
C589 C 0.79189 0.78056 0.66658 0.0
C590 C 0.77037 0.79407 0.68323 0.0
C591 C 0.7271 0.82022 0.68464 0.0
C592 C 0.70538 0.83277 0.66937 0.0
C593 C 0.74711 0.80418 0.66801 0.0
C594 C 0.70224 0.82668 0.63723 0.0
C595 C 0.72165 0.81007 0.62054 0.0
H596 H 0.88615 0.652 0.8013 0.0
H597 H 0.80973 0.69889 0.80055 0.0
H598 H 0.81994 0.70918 0.74783 0.0
H599 H 0.85058 0.7057 0.70222 0.0
H600 H 0.92635 0.65799 0.70135 0.0
H601 H 0.91639 0.6473 0.75447 0.0
C602 C 0.87167 0.66434 0.78955 0.0
C603 C 0.84724 0.67466 0.80497 0.0
C604 C 0.8776 0.6702 0.75901 0.0
C605 C 0.82866 0.69058 0.78933 0.0
C606 C 0.83451 0.6966 0.75915 0.0
C607 C 0.86506 0.69306 0.71362 0.0
C608 C 0.88931 0.68285 0.69791 0.0
C609 C 0.85898 0.6867 0.74386 0.0
C610 C 0.90756 0.66616 0.71296 0.0
C611 C 0.90186 0.66003 0.74332 0.0
H612 H 0.85893 0.59635 0.94259 0.0
H613 H 0.91543 0.67931 0.99628 0.0
H614 H 0.93089 0.64503 0.03111 0.0
H615 H 0.92586 0.59187 0.04798 0.0
H616 H 0.86902 0.50889 0.99453 0.0
H617 H 0.8557 0.5429 0.95823 0.0
C618 C 0.87451 0.60695 0.96198 0.0
C619 C 0.88582 0.64039 0.9669 0.0
C620 C 0.88306 0.58712 0.98207 0.0
C621 C 0.90655 0.65366 0.99178 0.0
C622 C 0.91526 0.63407 0.01184 0.0
C623 C 0.911 0.5811 0.02814 0.0
C624 C 0.89836 0.54783 0.02414 0.0
C625 C 0.9034 0.60081 0.00738 0.0
C626 C 0.87872 0.53445 0.99846 0.0
C627 C 0.87118 0.55387 0.97761 0.0
H628 H 0.92589 0.49555 0.18637 0.0
H629 H 0.85708 0.41434 0.2105 0.0
H630 H 0.88103 0.42101 0.2616 0.0
H631 H 0.92221 0.44843 0.2988 0.0
H632 H 0.99182 0.52929 0.27541 0.0
H633 H 0.96682 0.52417 0.22462 0.0
C634 C 0.91596 0.47949 0.2029 0.0
C635 C 0.88967 0.45443 0.19451 0.0
C636 C 0.9301 0.48324 0.23229 0.0
C637 C 0.87727 0.43377 0.21622 0.0
C638 C 0.891 0.43752 0.24548 0.0
C639 C 0.932 0.46505 0.28269 0.0
C640 C 0.95899 0.48915 0.29094 0.0
C641 C 0.91758 0.46192 0.25363 0.0
C642 C 0.97114 0.51047 0.26968 0.0
C643 C 0.95683 0.50755 0.24063 0.0
H644 H 0.89524 0.52863 0.45393 0.0
H645 H 0.98748 0.58948 0.46542 0.0
H646 H 0.9691 0.62597 0.50357 0.0
H647 H 0.92741 0.6395 0.53462 0.0
H648 H 0.83454 0.57975 0.52233 0.0
H649 H 0.85279 0.54342 0.48401 0.0
C650 C 0.91128 0.54981 0.46492 0.0
C651 C 0.94264 0.55635 0.45692 0.0
C652 C 0.90053 0.5707 0.4868 0.0
C653 C 0.96315 0.58413 0.47094 0.0
C654 C 0.9527 0.60489 0.49288 0.0
C655 C 0.91093 0.61889 0.52334 0.0
C656 C 0.87957 0.61252 0.53155 0.0
C657 C 0.92147 0.59834 0.50104 0.0
C658 C 0.85887 0.58514 0.5169 0.0
C659 C 0.86925 0.56439 0.49481 0.0
loop_
_geom_bond_atom_site_label_1
_geom_bond_atom_site_label_2
_geom_bond_distance
_geom_bond_site_symmetry_2
_ccdc_geom_bond_type
Cu0 N1 1.999 . S
Cu0 O6 1.974 . S
Cu0 N11 1.985 . S
Cu0 O20 1.959 . S
N1 Cu0 1.999 . S
N1 C3 1.263 . S
N1 C5 1.389 . S
N2 C3 1.358 . S
N2 C4 1.400 . S
C3 N1 1.263 . S
C3 N2 1.358 . S
C3 H9 0.930 . S
C4 N2 1.400 . S
C4 C5 1.351 . S
C4 H21 0.930 . S
C5 N1 1.389 . S
C5 C4 1.351 . S
C5 H10 0.930 . S
O6 Cu0 1.974 . S
O6 C16 1.282 . S
C7 O8 1.261 . S
C7 O20 1.251 . S
O8 C7 1.261 . S
H9 C3 0.930 . S
H10 C5 0.930 . S
N11 Cu0 1.985 . S
N11 C13 1.335 1_455 S
N11 C14 1.390 . S
N12 C13 1.345 . S
N12 C15 1.336 . S
C13 N11 1.335 1_655 S
C13 N12 1.345 . S
C13 H18 0.930 . S
C14 N11 1.390 . S
C14 C15 1.346 1_455 S
C14 H19 0.930 . S
C15 N12 1.336 . S
C15 C14 1.346 1_655 S
C15 H22 0.930 . S
C16 O6 1.282 . S
C16 O17 1.216 . S
O17 C16 1.216 . S
H18 C13 0.930 . S
H19 C14 0.930 . S
O20 Cu0 1.959 . S
O20 C7 1.251 . S
H21 C4 0.930 . S
H22 C15 0.930 . S
Cu23 N24 1.999 . S
Cu23 O29 1.974 . S
Cu23 N34 1.985 . S
Cu23 O43 1.959 . S
N24 Cu23 1.999 . S
N24 C26 1.263 . S
N24 C28 1.389 . S
N25 C26 1.358 . S
N25 C27 1.400 . S
C26 N24 1.263 . S
C26 N25 1.358 . S
C26 H32 0.930 . S
C27 N25 1.400 . S
C27 C28 1.351 . S
C27 H44 0.930 . S
C28 N24 1.389 . S
C28 C27 1.351 . S
C28 H33 0.930 . S
O29 Cu23 1.974 . S
O29 C39 1.282 . S
C30 O31 1.261 . S
C30 O43 1.251 . S
O31 C30 1.261 . S
H32 C26 0.930 . S
H33 C28 0.930 . S
N34 Cu23 1.985 . S
N34 C36 1.335 . S
N34 C37 1.390 . S
N35 C36 1.345 . S
N35 C38 1.336 . S
C36 N34 1.335 . S
C36 N35 1.345 . S
C36 H41 0.930 . S
C37 N34 1.390 . S
C37 C38 1.346 . S
C37 H42 0.930 . S
C38 N35 1.336 . S
C38 C37 1.346 . S
C38 H45 0.929 . S
C39 O29 1.282 . S
C39 O40 1.216 . S
O40 C39 1.216 . S
H41 C36 0.930 . S
H42 C37 0.930 . S
O43 Cu23 1.959 . S
O43 C30 1.251 . S
H44 C27 0.930 . S
H45 C38 0.929 . S
Cu46 N47 1.999 . S
Cu46 O52 1.974 . S
Cu46 N57 1.985 . S
Cu46 O66 1.959 . S
N47 Cu46 1.999 . S
N47 C49 1.263 . S
N47 C51 1.389 . S
N48 C49 1.358 . S
N48 C50 1.400 . S
C49 N47 1.263 . S
C49 N48 1.358 . S
C49 H55 0.930 . S
C50 N48 1.400 . S
C50 C51 1.351 . S
C50 H67 0.930 . S
C51 N47 1.389 . S
C51 C50 1.351 . S
C51 H56 0.930 . S
O52 Cu46 1.974 . S
O52 C62 1.282 . S
C53 O54 1.261 . S
C53 O66 1.251 . S
O54 C53 1.261 . S
H55 C49 0.930 . S
H56 C51 0.930 . S
N57 Cu46 1.985 . S
N57 C59 1.335 . S
N57 C60 1.390 . S
N58 C59 1.345 . S
N58 C61 1.336 . S
C59 N57 1.335 . S
C59 N58 1.345 . S
C59 H64 0.930 . S
C60 N57 1.390 . S
C60 C61 1.346 . S
C60 H65 0.930 . S
C61 N58 1.336 . S
C61 C60 1.346 . S
C61 H68 0.929 . S
C62 O52 1.282 . S
C62 O63 1.216 . S
O63 C62 1.216 . S
H64 C59 0.930 . S
H65 C60 0.930 . S
O66 Cu46 1.959 . S
O66 C53 1.251 . S
H67 C50 0.930 . S
H68 C61 0.929 . S
Cu69 N70 1.999 . S
Cu69 O75 1.974 1_556 S
Cu69 N80 1.985 . S
Cu69 O89 1.959 . S
N70 Cu69 1.999 . S
N70 C72 1.263 . S
N70 C74 1.389 . S
N71 C72 1.358 . S
N71 C73 1.400 . S
C72 N70 1.263 . S
C72 N71 1.358 . S
C72 H78 0.930 . S
C73 N71 1.400 . S
C73 C74 1.351 . S
C73 H90 0.930 . S
C74 N70 1.389 . S
C74 C73 1.351 . S
C74 H79 0.930 . S
O75 Cu69 1.974 1_554 S
O75 C85 1.282 . S
C76 O77 1.261 . S
C76 O89 1.251 . S
O77 C76 1.261 . S
H78 C72 0.930 . S
H79 C74 0.930 . S
N80 Cu69 1.985 . S
N80 C82 1.335 . S
N80 C83 1.390 1_556 S
N81 C82 1.345 1_554 S
N81 C84 1.336 . S
C82 N80 1.335 . S
C82 N81 1.345 1_556 S
C82 H87 0.930 . S
C83 N80 1.390 1_554 S
C83 C84 1.346 . S
C83 H88 0.930 . S
C84 N81 1.336 . S
C84 C83 1.346 . S
C84 H91 0.929 . S
C85 O75 1.282 . S
C85 O86 1.216 . S
O86 C85 1.216 . S
H87 C82 0.930 . S
H88 C83 0.930 . S
O89 Cu69 1.959 . S
O89 C76 1.251 . S
H90 C73 0.930 . S
H91 C84 0.929 . S
Cu92 N93 1.999 . S
Cu92 O98 1.974 . S
Cu92 N103 1.985 . S
Cu92 O112 1.959 1_545 S
N93 Cu92 1.999 . S
N93 C95 1.263 . S
N93 C97 1.389 . S
N94 C95 1.358 . S
N94 C96 1.400 . S
C95 N93 1.263 . S
C95 N94 1.358 . S
C95 H101 0.930 . S
C96 N94 1.400 . S
C96 C97 1.351 . S
C96 H113 0.930 . S
C97 N93 1.389 . S
C97 C96 1.351 . S
C97 H102 0.930 . S
O98 Cu92 1.974 . S
O98 C108 1.282 . S
C99 O100 1.261 . S
C99 O112 1.251 . S
O100 C99 1.261 . S
H101 C95 0.930 . S
H102 C97 0.930 . S
N103 Cu92 1.985 . S
N103 C105 1.335 1_545 S
N103 C106 1.390 . S
N104 C105 1.345 . S
N104 C107 1.336 1_565 S
C105 N103 1.335 1_565 S
C105 N104 1.345 . S
C105 H110 0.930 . S
C106 N103 1.390 . S
C106 C107 1.347 . S
C106 H111 0.930 . S
C107 N104 1.336 1_545 S
C107 C106 1.347 . S
C107 H114 0.929 1_545 S
C108 O98 1.282 . S
C108 O109 1.216 . S
O109 C108 1.216 . S
H110 C105 0.930 . S
H111 C106 0.930 . S
O112 Cu92 1.959 1_565 S
O112 C99 1.251 . S
H113 C96 0.930 . S
H114 C107 0.929 1_565 S
Cu115 N116 1.999 . S
Cu115 O121 1.974 . S
Cu115 N126 1.985 . S
Cu115 O135 1.959 1_565 S
N116 Cu115 1.999 . S
N116 C118 1.263 . S
N116 C120 1.389 1_565 S
N117 C118 1.358 1_545 S
N117 C119 1.400 . S
C118 N116 1.263 . S
C118 N117 1.358 1_565 S
C118 H124 0.930 . S
C119 N117 1.400 . S
C119 C120 1.351 . S
C119 H136 0.930 . S
C120 N116 1.389 1_545 S
C120 C119 1.351 . S
C120 H125 0.930 . S
O121 Cu115 1.974 . S
O121 C131 1.282 . S
C122 O123 1.261 . S
C122 O135 1.251 . S
O123 C122 1.261 . S
H124 C118 0.930 . S
H125 C120 0.930 . S
N126 Cu115 1.985 . S
N126 C128 1.335 . S
N126 C129 1.390 . S
N127 C128 1.345 . S
N127 C130 1.336 . S
C128 N126 1.335 . S
C128 N127 1.345 . S
C128 H133 0.930 . S
C129 N126 1.390 . S
C129 C130 1.346 . S
C129 H134 0.930 . S
C130 N127 1.336 . S
C130 C129 1.346 . S
C130 H137 0.929 . S
C131 O121 1.282 . S
C131 O132 1.216 . S
O132 C131 1.216 . S
H133 C128 0.930 . S
H134 C129 0.930 . S
O135 Cu115 1.959 1_545 S
O135 C122 1.251 . S
H136 C119 0.930 . S
H137 C130 0.929 . S
Cu138 N139 1.999 . S
Cu138 O144 1.974 . S
Cu138 N149 1.985 . S
Cu138 O158 1.959 . S
N139 Cu138 1.999 . S
N139 C141 1.263 . S
N139 C143 1.389 . S
N140 C141 1.358 . S
N140 C142 1.400 . S
C141 N139 1.263 . S
C141 N140 1.358 . S
C141 H147 0.930 . S
C142 N140 1.400 . S
C142 C143 1.351 . S
C142 H159 0.930 . S
C143 N139 1.389 . S
C143 C142 1.351 . S
C143 H148 0.930 . S
O144 Cu138 1.974 . S
O144 C154 1.282 . S
C145 O146 1.261 . S
C145 O158 1.251 . S
O146 C145 1.261 . S
H147 C141 0.930 . S
H148 C143 0.930 . S
N149 Cu138 1.985 . S
N149 C151 1.335 . S
N149 C152 1.390 . S
N150 C151 1.345 . S
N150 C153 1.336 . S
C151 N149 1.335 . S
C151 N150 1.345 . S
C151 H156 0.930 . S
C152 N149 1.390 . S
C152 C153 1.346 . S
C152 H157 0.930 . S
C153 N150 1.336 . S
C153 C152 1.346 . S
C153 H160 0.929 . S
C154 O144 1.282 . S
C154 O155 1.216 . S
O155 C154 1.216 . S
H156 C151 0.930 . S
H157 C152 0.930 . S
O158 Cu138 1.959 . S
O158 C145 1.251 . S
H159 C142 0.930 . S
H160 C153 0.929 . S
Cu161 N162 1.999 1_554 S
Cu161 O167 1.974 1_554 S
Cu161 N172 1.985 . S
Cu161 O181 1.959 . S
N162 Cu161 1.999 1_556 S
N162 C164 1.263 . S
N162 C166 1.389 . S
N163 C164 1.358 . S
N163 C165 1.400 . S
C164 N162 1.263 . S
C164 N163 1.358 . S
C164 H170 0.930 . S
C165 N163 1.400 . S
C165 C166 1.351 . S
C165 H182 0.930 . S
C166 N162 1.389 . S
C166 C165 1.351 . S
C166 H171 0.930 . S
O167 Cu161 1.974 1_556 S
O167 C177 1.282 1_556 S
C168 O169 1.261 . S
C168 O181 1.251 . S
O169 C168 1.261 . S
H170 C164 0.930 . S
H171 C166 0.930 . S
N172 Cu161 1.985 . S
N172 C174 1.335 . S
N172 C175 1.390 . S
N173 C174 1.345 . S
N173 C176 1.336 . S
C174 N172 1.335 . S
C174 N173 1.345 . S
C174 H179 0.930 . S
C175 N172 1.390 . S
C175 C176 1.346 . S
C175 H180 0.930 . S
C176 N173 1.336 . S
C176 C175 1.346 . S
C176 H183 0.929 . S
C177 O167 1.282 1_554 S
C177 O178 1.216 . S
O178 C177 1.216 . S
H179 C174 0.930 . S
H180 C175 0.930 . S
O181 Cu161 1.959 . S
O181 C168 1.251 . S
H182 C165 0.930 . S
H183 C176 0.929 . S
Cu184 N185 1.999 . S
Cu184 O190 1.974 . S
Cu184 N195 1.985 . S
Cu184 O204 1.959 . S
N185 Cu184 1.999 . S
N185 C187 1.263 . S
N185 C189 1.389 . S
N186 C187 1.358 . S
N186 C188 1.400 . S
C187 N185 1.263 . S
C187 N186 1.358 . S
C187 H193 0.930 . S
C188 N186 1.400 . S
C188 C189 1.351 . S
C188 H205 0.930 . S
C189 N185 1.389 . S
C189 C188 1.351 . S
C189 H194 0.930 . S
O190 Cu184 1.974 . S
O190 C200 1.282 . S
C191 O192 1.261 . S
C191 O204 1.251 . S
O192 C191 1.261 . S
H193 C187 0.930 . S
H194 C189 0.930 . S
N195 Cu184 1.985 . S
N195 C197 1.335 . S
N195 C198 1.390 . S
N196 C197 1.345 . S
N196 C199 1.336 . S
C197 N195 1.335 . S
C197 N196 1.345 . S
C197 H202 0.930 . S
C198 N195 1.390 . S
C198 C199 1.346 . S
C198 H203 0.930 . S
C199 N196 1.336 . S
C199 C198 1.346 . S
C199 H206 0.929 . S
C200 O190 1.282 . S
C200 O201 1.216 . S
O201 C200 1.216 . S
H202 C197 0.930 . S
H203 C198 0.930 . S
O204 Cu184 1.959 . S
O204 C191 1.251 . S
H205 C188 0.930 . S
H206 C199 0.929 . S
Cu207 N208 1.999 1_655 S
Cu207 O213 1.974 . S
Cu207 N218 1.985 . S
Cu207 O227 1.959 1_655 S
N208 Cu207 1.999 1_455 S
N208 C210 1.263 . S
N208 C212 1.389 . S
N209 C210 1.358 . S
N209 C211 1.400 . S
C210 N208 1.263 . S
C210 N209 1.358 . S
C210 H216 0.930 1_455 S
C211 N209 1.400 . S
C211 C212 1.351 . S
C211 H228 0.930 . S
C212 N208 1.389 . S
C212 C211 1.351 . S
C212 H217 0.930 . S
O213 Cu207 1.974 . S
O213 C223 1.282 . S
C214 O215 1.261 . S
C214 O227 1.251 . S
O215 C214 1.261 . S
H216 C210 0.930 1_655 S
H217 C212 0.930 . S
N218 Cu207 1.985 . S
N218 C220 1.335 . S
N218 C221 1.390 . S
N219 C220 1.345 . S
N219 C222 1.336 . S
C220 N218 1.335 . S
C220 N219 1.345 . S
C220 H225 0.932 . S
C221 N218 1.390 . S
C221 C222 1.346 . S
C221 H226 0.930 . S
C222 N219 1.336 . S
C222 C221 1.346 . S
C222 H229 0.929 . S
C223 O213 1.282 . S
C223 O224 1.216 . S
O224 C223 1.216 . S
H225 C220 0.932 . S
H226 C221 0.930 . S
O227 Cu207 1.959 1_455 S
O227 C214 1.251 . S
H228 C211 0.930 . S
H229 C222 0.929 . S
Cu230 N231 1.999 . S
Cu230 O236 1.974 . S
Cu230 N241 1.985 . S
Cu230 O250 1.959 . S
N231 Cu230 1.999 . S
N231 C233 1.263 . S
N231 C235 1.389 . S
N232 C233 1.358 . S
N232 C234 1.400 . S
C233 N231 1.263 . S
C233 N232 1.358 . S
C233 H239 0.930 . S
C234 N232 1.400 . S
C234 C235 1.351 . S
C234 H251 0.930 . S
C235 N231 1.389 . S
C235 C234 1.351 . S
C235 H240 0.930 . S
O236 Cu230 1.974 . S
O236 C246 1.282 1_655 S
C237 O238 1.261 . S
C237 O250 1.251 . S
O238 C237 1.261 . S
H239 C233 0.930 . S
H240 C235 0.930 . S
N241 Cu230 1.985 . S
N241 C243 1.335 . S
N241 C244 1.390 . S
N242 C243 1.345 . S
N242 C245 1.336 . S
C243 N241 1.335 . S
C243 N242 1.345 . S
C243 H248 0.930 . S
C244 N241 1.390 . S
C244 C245 1.346 . S
C244 H249 0.930 . S
C245 N242 1.336 . S
C245 C244 1.346 . S
C245 H252 0.929 . S
C246 O236 1.282 1_455 S
C246 O247 1.216 . S
O247 C246 1.216 . S
H248 C243 0.930 . S
H249 C244 0.930 . S
O250 Cu230 1.959 . S
O250 C237 1.251 . S
H251 C234 0.930 . S
H252 C245 0.929 . S
Cu253 N254 1.999 . S
Cu253 O259 1.974 . S
Cu253 N264 1.985 . S
Cu253 O273 1.959 . S
N254 Cu253 1.999 . S
N254 C256 1.263 . S
N254 C258 1.389 . S
N255 C256 1.358 . S
N255 C257 1.400 . S
C256 N254 1.263 . S
C256 N255 1.358 . S
C256 H262 0.930 . S
C257 N255 1.400 . S
C257 C258 1.351 . S
C257 H274 0.930 . S
C258 N254 1.389 . S
C258 C257 1.351 . S
C258 H263 0.930 . S
O259 Cu253 1.974 . S
O259 C269 1.282 . S
C260 O261 1.261 . S
C260 O273 1.251 . S
O261 C260 1.261 . S
H262 C256 0.930 . S
H263 C258 0.930 . S
N264 Cu253 1.985 . S
N264 C266 1.335 . S
N264 C267 1.390 . S
N265 C266 1.345 . S
N265 C268 1.336 . S
C266 N264 1.335 . S
C266 N265 1.345 . S
C266 H271 0.930 . S
C267 N264 1.390 . S
C267 C268 1.346 . S
C267 H272 0.930 . S
C268 N265 1.336 . S
C268 C267 1.346 . S
C268 H275 0.929 . S
C269 O259 1.282 . S
C269 O270 1.216 . S
O270 C269 1.216 . S
H271 C266 0.930 . S
H272 C267 0.930 . S
O273 Cu253 1.959 . S
O273 C260 1.251 . S
H274 C257 0.930 . S
H275 C268 0.929 . S
H276 C282 0.930 . S
H277 C285 0.930 . S
H278 C286 0.930 . S
H279 C287 0.930 . S
H280 C290 0.930 . S
H281 C291 0.930 . S
C282 H276 0.930 . S
C282 C283 1.355 . S
C282 C284 1.415 . S
C283 C282 1.355 . S
C283 C285 1.419 . S
C284 C282 1.415 . S
C284 C289 1.425 . S
C284 C291 1.409 . S
C285 H277 0.930 . S
C285 C283 1.419 . S
C285 C286 1.362 . S
C286 H278 0.930 . S
C286 C285 1.362 . S
C286 C289 1.409 . S
C287 H279 0.930 . S
C287 C288 1.355 . S
C287 C289 1.415 . S
C288 C287 1.355 . S
C288 C290 1.419 . S
C289 C284 1.425 . S
C289 C286 1.409 . S
C289 C287 1.415 . S
C290 H280 0.930 . S
C290 C288 1.419 . S
C290 C291 1.362 . S
C291 H281 0.930 . S
C291 C284 1.409 . S
C291 C290 1.362 . S
H292 C298 0.930 . S
H293 C301 0.930 . S
H294 C302 0.930 . S
H295 C303 0.930 . S
H296 C306 0.930 . S
H297 C307 0.930 . S
C298 H292 0.930 . S
C298 C299 1.355 . S
C298 C300 1.415 . S
C299 C298 1.355 . S
C299 C301 1.419 . S
C300 C298 1.415 . S
C300 C305 1.425 . S
C300 C307 1.409 . S
C301 H293 0.930 . S
C301 C299 1.419 . S
C301 C302 1.362 . S
C302 H294 0.930 . S
C302 C301 1.362 . S
C302 C305 1.409 . S
C303 H295 0.930 . S
C303 C304 1.355 . S
C303 C305 1.415 . S
C304 C303 1.355 . S
C304 C306 1.419 . S
C305 C300 1.425 . S
C305 C302 1.409 . S
C305 C303 1.415 . S
C306 H296 0.930 . S
C306 C304 1.419 . S
C306 C307 1.362 . S
C307 H297 0.930 . S
C307 C300 1.409 . S
C307 C306 1.362 . S
H308 C314 0.930 . S
H309 C317 0.930 . S
H310 C318 0.930 . S
H311 C319 0.930 1_565 S
H312 C322 0.930 . S
H313 C323 0.930 . S
C314 H308 0.930 . S
C314 C315 1.355 . S
C314 C316 1.415 . S
C315 C314 1.355 . S
C315 C317 1.419 . S
C316 C314 1.415 . S
C316 C321 1.425 . S
C316 C323 1.409 . S
C317 H309 0.930 . S
C317 C315 1.419 . S
C317 C318 1.362 . S
C318 H310 0.930 . S
C318 C317 1.362 . S
C318 C321 1.409 . S
C319 H311 0.930 1_545 S
C319 C320 1.355 . S
C319 C321 1.415 . S
C320 C319 1.355 . S
C320 C322 1.419 . S
C321 C316 1.425 . S
C321 C318 1.409 . S
C321 C319 1.415 . S
C322 H312 0.930 . S
C322 C320 1.419 . S
C322 C323 1.362 . S
C323 H313 0.930 . S
C323 C316 1.409 . S
C323 C322 1.362 . S
H324 C330 0.930 . S
H325 C333 0.930 . S
H326 C334 0.930 . S
H327 C335 0.930 . S
H328 C338 0.930 . S
H329 C339 0.930 . S
C330 H324 0.930 . S
C330 C331 1.355 1_556 S
C330 C332 1.415 . S
C331 C330 1.355 1_554 S
C331 C333 1.419 . S
C332 C330 1.415 . S
C332 C337 1.425 1_556 S
C332 C339 1.409 . S
C333 H325 0.930 . S
C333 C331 1.419 . S
C333 C334 1.362 . S
C334 H326 0.930 . S
C334 C333 1.362 . S
C334 C337 1.409 . S
C335 H327 0.930 . S
C335 C336 1.355 1_554 S
C335 C337 1.415 . S
C336 C335 1.355 1_556 S
C336 C338 1.419 . S
C337 C332 1.425 1_554 S
C337 C334 1.409 . S
C337 C335 1.415 . S
C338 H328 0.930 . S
C338 C336 1.419 . S
C338 C339 1.362 . S
C339 H329 0.930 . S
C339 C332 1.409 . S
C339 C338 1.362 . S
H340 C346 0.930 . S
H341 C349 0.930 . S
H342 C350 0.930 . S
H343 C351 0.930 . S
H344 C354 0.930 . S
H345 C355 0.930 . S
C346 H340 0.930 . S
C346 C347 1.355 . S
C346 C348 1.415 . S
C347 C346 1.355 . S
C347 C349 1.419 . S
C348 C346 1.415 . S
C348 C353 1.425 . S
C348 C355 1.409 . S
C349 H341 0.930 . S
C349 C347 1.419 . S
C349 C350 1.362 . S
C350 H342 0.930 . S
C350 C349 1.362 . S
C350 C353 1.409 . S
C351 H343 0.930 . S
C351 C352 1.355 . S
C351 C353 1.415 . S
C352 C351 1.355 . S
C352 C354 1.419 . S
C353 C348 1.425 . S
C353 C350 1.409 . S
C353 C351 1.415 . S
C354 H344 0.930 . S
C354 C352 1.419 . S
C354 C355 1.362 . S
C355 H345 0.930 . S
C355 C348 1.409 . S
C355 C354 1.362 . S
H356 C362 0.930 . S
H357 C365 0.930 . S
H358 C366 0.930 . S
H359 C367 0.930 . S
H360 C370 0.930 . S
H361 C371 0.930 . S
C362 H356 0.930 . S
C362 C363 1.355 . S
C362 C364 1.415 . S
C363 C362 1.355 . S
C363 C365 1.419 . S
C364 C362 1.415 . S
C364 C369 1.425 . S
C364 C371 1.409 . S
C365 H357 0.930 . S
C365 C363 1.419 . S
C365 C366 1.362 . S
C366 H358 0.930 . S
C366 C365 1.362 . S
C366 C369 1.409 . S
C367 H359 0.930 . S
C367 C368 1.355 . S
C367 C369 1.415 . S
C368 C367 1.355 . S
C368 C370 1.419 . S
C369 C364 1.425 . S
C369 C366 1.409 . S
C369 C367 1.415 . S
C370 H360 0.930 . S
C370 C368 1.419 . S
C370 C371 1.362 . S
C371 H361 0.930 . S
C371 C364 1.409 . S
C371 C370 1.362 . S
H372 C378 0.930 . S
H373 C381 0.930 . S
H374 C382 0.930 . S
H375 C383 0.930 . S
H376 C386 0.930 . S
H377 C387 0.930 . S
C378 H372 0.930 . S
C378 C379 1.355 . S
C378 C380 1.415 . S
C379 C378 1.355 . S
C379 C381 1.419 . S
C380 C378 1.415 . S
C380 C385 1.425 . S
C380 C387 1.409 . S
C381 H373 0.930 . S
C381 C379 1.419 . S
C381 C382 1.362 . S
C382 H374 0.930 . S
C382 C381 1.362 . S
C382 C385 1.409 . S
C383 H375 0.930 . S
C383 C384 1.355 . S
C383 C385 1.415 . S
C384 C383 1.355 . S
C384 C386 1.419 . S
C385 C380 1.425 . S
C385 C382 1.409 . S
C385 C383 1.415 . S
C386 H376 0.930 . S
C386 C384 1.419 . S
C386 C387 1.362 . S
C387 H377 0.930 . S
C387 C380 1.409 . S
C387 C386 1.362 . S
H388 C394 0.930 . S
H389 C397 0.930 . S
H390 C398 0.930 . S
H391 C399 0.930 . S
H392 C402 0.930 . S
H393 C403 0.930 . S
C394 H388 0.930 . S
C394 C395 1.355 . S
C394 C396 1.415 . S
C395 C394 1.355 . S
C395 C397 1.419 . S
C396 C394 1.415 . S
C396 C401 1.425 . S
C396 C403 1.409 . S
C397 H389 0.930 . S
C397 C395 1.419 . S
C397 C398 1.362 . S
C398 H390 0.930 . S
C398 C397 1.362 . S
C398 C401 1.409 . S
C399 H391 0.930 . S
C399 C400 1.355 . S
C399 C401 1.415 . S
C400 C399 1.355 . S
C400 C402 1.419 . S
C401 C396 1.425 . S
C401 C398 1.409 . S
C401 C399 1.415 . S
C402 H392 0.930 . S
C402 C400 1.419 . S
C402 C403 1.362 . S
C403 H393 0.930 . S
C403 C396 1.409 . S
C403 C402 1.362 . S
H404 C410 0.930 . S
H405 C413 0.930 . S
H406 C414 0.930 . S
H407 C415 0.930 . S
H408 C418 0.930 . S
H409 C419 0.930 . S
C410 H404 0.930 . S
C410 C411 1.355 . S
C410 C412 1.415 . S
C411 C410 1.355 . S
C411 C413 1.419 . S
C412 C410 1.415 . S
C412 C417 1.425 . S
C412 C419 1.409 . S
C413 H405 0.930 . S
C413 C411 1.419 . S
C413 C414 1.362 . S
C414 H406 0.930 . S
C414 C413 1.362 . S
C414 C417 1.409 . S
C415 H407 0.930 . S
C415 C416 1.355 . S
C415 C417 1.415 . S
C416 C415 1.355 . S
C416 C418 1.419 . S
C417 C412 1.425 . S
C417 C414 1.409 . S
C417 C415 1.415 . S
C418 H408 0.930 . S
C418 C416 1.419 . S
C418 C419 1.362 . S
C419 H409 0.930 . S
C419 C412 1.409 . S
C419 C418 1.362 . S
H420 C426 0.930 . S
H421 C429 0.930 . S
H422 C430 0.930 . S
H423 C431 0.930 . S
H424 C434 0.930 . S
H425 C435 0.930 . S
C426 H420 0.930 . S
C426 C427 1.353 . S
C426 C428 1.415 . S
C427 C426 1.353 . S
C427 C429 1.421 1_545 S
C428 C426 1.415 . S
C428 C433 1.425 1_545 S
C428 C435 1.409 . S
C429 H421 0.930 . S
C429 C427 1.421 1_565 S
C429 C430 1.362 . S
C430 H422 0.930 . S
C430 C429 1.362 . S
C430 C433 1.409 . S
C431 H423 0.930 . S
C431 C432 1.355 . S
C431 C433 1.415 . S
C432 C431 1.355 . S
C432 C434 1.419 1_565 S
C433 C428 1.425 1_565 S
C433 C430 1.409 . S
C433 C431 1.415 . S
C434 H424 0.930 . S
C434 C432 1.419 1_545 S
C434 C435 1.362 . S
C435 H425 0.930 . S
C435 C428 1.409 . S
C435 C434 1.362 . S
H436 C442 0.930 . S
H437 C445 0.930 . S
H438 C446 0.930 . S
H439 C447 0.930 . S
H440 C450 0.930 . S
H441 C451 0.930 . S
C442 H436 0.930 . S
C442 C443 1.355 . S
C442 C444 1.415 . S
C443 C442 1.355 . S
C443 C445 1.419 . S
C444 C442 1.415 . S
C444 C449 1.425 . S
C444 C451 1.409 . S
C445 H437 0.930 . S
C445 C443 1.419 . S
C445 C446 1.362 . S
C446 H438 0.930 . S
C446 C445 1.362 . S
C446 C449 1.409 . S
C447 H439 0.930 . S
C447 C448 1.355 . S
C447 C449 1.415 . S
C448 C447 1.355 . S
C448 C450 1.419 . S
C449 C444 1.425 . S
C449 C446 1.409 . S
C449 C447 1.415 . S
C450 H440 0.930 . S
C450 C448 1.419 . S
C450 C451 1.362 . S
C451 H441 0.930 . S
C451 C444 1.409 . S
C451 C450 1.362 . S
H452 C458 0.930 . S
H453 C461 0.930 . S
H454 C462 0.930 . S
H455 C463 0.930 . S
H456 C466 0.930 . S
H457 C467 0.930 . S
C458 H452 0.930 . S
C458 C459 1.355 . S
C458 C460 1.415 . S
C459 C458 1.355 . S
C459 C461 1.419 . S
C460 C458 1.415 . S
C460 C465 1.425 . S
C460 C467 1.409 . S
C461 H453 0.930 . S
C461 C459 1.419 . S
C461 C462 1.362 . S
C462 H454 0.930 . S
C462 C461 1.362 . S
C462 C465 1.409 . S
C463 H455 0.930 . S
C463 C464 1.355 . S
C463 C465 1.415 . S
C464 C463 1.355 . S
C464 C466 1.419 . S
C465 C460 1.425 . S
C465 C462 1.409 . S
C465 C463 1.415 . S
C466 H456 0.930 . S
C466 C464 1.419 . S
C466 C467 1.362 . S
C467 H457 0.930 . S
C467 C460 1.409 . S
C467 C466 1.362 . S
H468 C474 0.930 . S
H469 C477 0.930 . S
H470 C478 0.930 . S
H471 C479 0.930 . S
H472 C482 0.930 . S
H473 C483 0.930 . S
C474 H468 0.930 . S
C474 C475 1.355 . S
C474 C476 1.415 . S
C475 C474 1.355 . S
C475 C477 1.419 . S
C476 C474 1.415 . S
C476 C481 1.425 . S
C476 C483 1.409 . S
C477 H469 0.930 . S
C477 C475 1.419 . S
C477 C478 1.362 . S
C478 H470 0.930 . S
C478 C477 1.362 . S
C478 C481 1.409 . S
C479 H471 0.930 . S
C479 C480 1.355 . S
C479 C481 1.415 . S
C480 C479 1.355 . S
C480 C482 1.419 . S
C481 C476 1.425 . S
C481 C478 1.409 . S
C481 C479 1.415 . S
C482 H472 0.930 . S
C482 C480 1.419 . S
C482 C483 1.362 . S
C483 H473 0.930 . S
C483 C476 1.409 . S
C483 C482 1.362 . S
H484 C490 0.930 . S
H485 C493 0.930 . S
H486 C494 0.930 . S
H487 C495 0.930 . S
H488 C498 0.937 . S
H489 C499 0.931 1_655 S
C490 H484 0.930 . S
C490 C491 1.355 . S
C490 C492 1.415 . S
C491 C490 1.355 . S
C491 C493 1.419 . S
C492 C490 1.415 . S
C492 C497 1.425 . S
C492 C499 1.409 . S
C493 H485 0.930 . S
C493 C491 1.419 . S
C493 C494 1.362 . S
C494 H486 0.930 . S
C494 C493 1.362 . S
C494 C497 1.409 . S
C495 H487 0.930 . S
C495 C496 1.355 . S
C495 C497 1.415 . S
C496 C495 1.355 . S
C496 C498 1.409 1_455 S
C497 C492 1.425 . S
C497 C494 1.409 . S
C497 C495 1.415 . S
C498 H488 0.937 . S
C498 C496 1.409 1_655 S
C498 C499 1.366 1_655 S
C499 H489 0.931 1_455 S
C499 C492 1.409 . S
C499 C498 1.366 1_455 S
H500 C506 0.930 . S
H501 C509 0.930 . S
H502 C510 0.930 . S
H503 C511 0.930 . S
H504 C514 0.930 . S
H505 C515 0.930 . S
C506 H500 0.930 . S
C506 C507 1.355 . S
C506 C508 1.415 . S
C507 C506 1.355 . S
C507 C509 1.419 . S
C508 C506 1.415 . S
C508 C513 1.425 . S
C508 C515 1.409 . S
C509 H501 0.930 . S
C509 C507 1.419 . S
C509 C510 1.362 . S
C510 H502 0.930 . S
C510 C509 1.362 . S
C510 C513 1.409 . S
C511 H503 0.930 . S
C511 C512 1.355 . S
C511 C513 1.415 . S
C512 C511 1.355 . S
C512 C514 1.419 . S
C513 C508 1.425 . S
C513 C510 1.409 . S
C513 C511 1.415 . S
C514 H504 0.930 . S
C514 C512 1.419 . S
C514 C515 1.362 . S
C515 H505 0.930 . S
C515 C508 1.409 . S
C515 C514 1.362 . S
H516 C522 0.930 . S
H517 C525 0.930 . S
H518 C526 0.930 . S
H519 C527 0.930 . S
H520 C530 0.930 . S
H521 C531 0.930 . S
C522 H516 0.930 . S
C522 C523 1.355 . S
C522 C524 1.415 . S
C523 C522 1.355 . S
C523 C525 1.419 . S
C524 C522 1.415 . S
C524 C529 1.425 . S
C524 C531 1.409 . S
C525 H517 0.930 . S
C525 C523 1.419 . S
C525 C526 1.362 . S
C526 H518 0.930 . S
C526 C525 1.362 . S
C526 C529 1.409 . S
C527 H519 0.930 . S
C527 C528 1.355 . S
C527 C529 1.415 . S
C528 C527 1.355 . S
C528 C530 1.419 . S
C529 C524 1.425 . S
C529 C526 1.409 . S
C529 C527 1.415 . S
C530 H520 0.930 . S
C530 C528 1.419 . S
C530 C531 1.362 . S
C531 H521 0.930 . S
C531 C524 1.409 . S
C531 C530 1.362 . S
H532 C538 0.930 . S
H533 C541 0.930 . S
H534 C542 0.930 . S
H535 C543 0.930 . S
H536 C546 0.930 . S
H537 C547 0.930 . S
C538 H532 0.930 . S
C538 C539 1.355 . S
C538 C540 1.415 . S
C539 C538 1.355 . S
C539 C541 1.419 . S
C540 C538 1.415 . S
C540 C545 1.425 . S
C540 C547 1.409 . S
C541 H533 0.930 . S
C541 C539 1.419 . S
C541 C542 1.362 . S
C542 H534 0.930 . S
C542 C541 1.362 . S
C542 C545 1.409 . S
C543 H535 0.930 . S
C543 C544 1.355 . S
C543 C545 1.415 . S
C544 C543 1.355 . S
C544 C546 1.419 . S
C545 C540 1.425 . S
C545 C542 1.409 . S
C545 C543 1.415 . S
C546 H536 0.930 . S
C546 C544 1.419 . S
C546 C547 1.362 . S
C547 H537 0.930 . S
C547 C540 1.409 . S
C547 C546 1.362 . S
H548 C554 0.930 . S
H549 C557 0.930 . S
H550 C558 0.930 . S
H551 C559 0.930 . S
H552 C562 0.930 . S
H553 C563 0.930 . S
C554 H548 0.930 . S
C554 C555 1.355 . S
C554 C556 1.415 . S
C555 C554 1.355 . S
C555 C557 1.419 . S
C556 C554 1.415 . S
C556 C561 1.425 . S
C556 C563 1.409 . S
C557 H549 0.930 . S
C557 C555 1.419 . S
C557 C558 1.362 . S
C558 H550 0.930 . S
C558 C557 1.362 . S
C558 C561 1.409 . S
C559 H551 0.930 . S
C559 C560 1.355 . S
C559 C561 1.415 . S
C560 C559 1.355 . S
C560 C562 1.419 . S
C561 C556 1.425 . S
C561 C558 1.409 . S
C561 C559 1.415 . S
C562 H552 0.930 . S
C562 C560 1.419 . S
C562 C563 1.362 . S
C563 H553 0.930 . S
C563 C556 1.409 . S
C563 C562 1.362 . S
H564 C570 0.930 . S
H565 C573 0.930 . S
H566 C574 0.930 . S
H567 C575 0.930 . S
H568 C578 0.930 . S
H569 C579 0.930 . S
C570 H564 0.930 . S
C570 C571 1.355 . S
C570 C572 1.415 . S
C571 C570 1.355 . S
C571 C573 1.419 . S
C572 C570 1.415 . S
C572 C577 1.425 . S
C572 C579 1.409 . S
C573 H565 0.930 . S
C573 C571 1.419 . S
C573 C574 1.362 . S
C574 H566 0.930 . S
C574 C573 1.362 . S
C574 C577 1.409 . S
C575 H567 0.930 . S
C575 C576 1.355 . S
C575 C577 1.415 . S
C576 C575 1.355 . S
C576 C578 1.419 . S
C577 C572 1.425 . S
C577 C574 1.409 . S
C577 C575 1.415 . S
C578 H568 0.930 . S
C578 C576 1.419 . S
C578 C579 1.362 . S
C579 H569 0.930 . S
C579 C572 1.409 . S
C579 C578 1.362 . S
H580 C586 0.930 . S
H581 C589 0.930 . S
H582 C590 0.930 . S
H583 C591 0.930 . S
H584 C594 0.930 . S
H585 C595 0.930 . S
C586 H580 0.930 . S
C586 C587 1.355 . S
C586 C588 1.415 . S
C587 C586 1.355 . S
C587 C589 1.419 . S
C588 C586 1.415 . S
C588 C593 1.425 . S
C588 C595 1.409 . S
C589 H581 0.930 . S
C589 C587 1.419 . S
C589 C590 1.362 . S
C590 H582 0.930 . S
C590 C589 1.362 . S
C590 C593 1.409 . S
C591 H583 0.930 . S
C591 C592 1.355 . S
C591 C593 1.415 . S
C592 C591 1.355 . S
C592 C594 1.419 . S
C593 C588 1.425 . S
C593 C590 1.409 . S
C593 C591 1.415 . S
C594 H584 0.930 . S
C594 C592 1.419 . S
C594 C595 1.362 . S
C595 H585 0.930 . S
C595 C588 1.409 . S
C595 C594 1.362 . S
H596 C602 0.930 . S
H597 C605 0.930 . S
H598 C606 0.930 . S
H599 C607 0.930 . S
H600 C610 0.930 . S
H601 C611 0.930 . S
C602 H596 0.930 . S
C602 C603 1.355 . S
C602 C604 1.415 . S
C603 C602 1.355 . S
C603 C605 1.419 . S
C604 C602 1.415 . S
C604 C609 1.425 . S
C604 C611 1.409 . S
C605 H597 0.930 . S
C605 C603 1.419 . S
C605 C606 1.362 . S
C606 H598 0.930 . S
C606 C605 1.362 . S
C606 C609 1.409 . S
C607 H599 0.930 . S
C607 C608 1.355 . S
C607 C609 1.415 . S
C608 C607 1.355 . S
C608 C610 1.419 . S
C609 C604 1.425 . S
C609 C606 1.409 . S
C609 C607 1.415 . S
C610 H600 0.930 . S
C610 C608 1.419 . S
C610 C611 1.362 . S
C611 H601 0.930 . S
C611 C604 1.409 . S
C611 C610 1.362 . S
H612 C618 0.930 1_556 S
H613 C621 0.930 . S
H614 C622 0.930 . S
H615 C623 0.930 . S
H616 C626 0.930 . S
H617 C627 0.930 . S
C618 H612 0.930 1_554 S
C618 C619 1.355 . S
C618 C620 1.415 . S
C619 C618 1.355 . S
C619 C621 1.419 . S
C620 C618 1.415 . S
C620 C625 1.425 . S
C620 C627 1.409 . S
C621 H613 0.930 . S
C621 C619 1.419 . S
C621 C622 1.362 . S
C622 H614 0.930 . S
C622 C621 1.362 . S
C622 C625 1.409 . S
C623 H615 0.930 . S
C623 C624 1.355 . S
C623 C625 1.415 . S
C624 C623 1.355 . S
C624 C626 1.419 . S
C625 C620 1.425 . S
C625 C622 1.409 . S
C625 C623 1.415 . S
C626 H616 0.930 . S
C626 C624 1.419 . S
C626 C627 1.362 . S
C627 H617 0.930 . S
C627 C620 1.409 . S
C627 C626 1.362 . S
H628 C634 0.930 . S
H629 C637 0.930 . S
H630 C638 0.930 . S
H631 C639 0.930 . S
H632 C642 0.930 . S
H633 C643 0.930 . S
C634 H628 0.930 . S
C634 C635 1.355 . S
C634 C636 1.415 . S
C635 C634 1.355 . S
C635 C637 1.419 . S
C636 C634 1.415 . S
C636 C641 1.425 . S
C636 C643 1.409 . S
C637 H629 0.930 . S
C637 C635 1.419 . S
C637 C638 1.362 . S
C638 H630 0.930 . S
C638 C637 1.362 . S
C638 C641 1.409 . S
C639 H631 0.930 . S
C639 C640 1.355 . S
C639 C641 1.415 . S
C640 C639 1.355 . S
C640 C642 1.419 . S
C641 C636 1.425 . S
C641 C638 1.409 . S
C641 C639 1.415 . S
C642 H632 0.930 . S
C642 C640 1.419 . S
C642 C643 1.362 . S
C643 H633 0.930 . S
C643 C636 1.409 . S
C643 C642 1.362 . S
H644 C650 0.930 . S
H645 C653 0.954 . S
H646 C654 0.930 . S
H647 C655 0.930 1_455 S
H648 C658 0.930 . S
H649 C659 0.930 . S
C650 H644 0.930 . S
C650 C651 1.355 . S
C650 C652 1.415 . S
C651 C650 1.355 . S
C651 C653 1.389 1_655 S
C652 C650 1.415 . S
C652 C657 1.425 . S
C652 C659 1.409 . S
C653 H645 0.954 . S
C653 C651 1.389 1_455 S
C653 C654 1.369 . S
C654 H646 0.930 . S
C654 C653 1.369 . S
C654 C657 1.409 1_455 S
C655 H647 0.930 1_655 S
C655 C656 1.355 . S
C655 C657 1.415 . S
C656 C655 1.355 . S
C656 C658 1.419 . S
C657 C652 1.425 . S
C657 C654 1.409 1_655 S
C657 C655 1.415 . S
C658 H648 0.930 . S
C658 C656 1.419 . S
C658 C659 1.362 . S
C659 H649 0.930 . S
C659 C652 1.409 . S
C659 C658 1.362 . S
C283 N2 1.375 . S
C288 N94 1.237 . S
C299 C131 1.637 . S
C304 C39 1.793 . S
C315 N140 1.339 . S
C320 C53 1.538 1_545 S
C331 N81 1.668 . S
C336 C177 1.537 1_556 S
C347 C99 1.614 . S
C352 N25 1.386 . S
C363 N127 1.553 . S
C368 N58 1.481 . S
C379 C76 1.736 . S
C384 C145 1.821 . S
C395 N173 1.589 . S
C400 C16 1.463 . S
C411 C108 1.649 . S
C416 C168 1.598 . S
C427 N117 1.441 . S
C432 N104 1.441 . S
C443 C154 1.766 . S
C448 C122 1.718 . S
C459 N150 1.464 . S
C464 N163 1.502 . S
C475 C200 1.658 . S
C480 C85 1.492 . S
C491 N209 1.548 . S
C496 C7 1.536 . S
C507 C246 1.610 . S
C512 N35 1.613 . S
C523 C214 1.743 . S
C528 C30 1.824 . S
C539 C260 1.542 . S
C544 N71 1.588 . S
C555 N48 1.250 . S
C560 N255 1.415 . S
C571 N12 1.411 . S
C576 N196 1.331 . S
C587 N242 1.536 . S
C592 C62 1.577 . S
C603 C269 1.607 . S
C608 C237 1.737 . S
C619 N265 1.489 1_554 S
C624 N186 1.235 . S
C635 C191 1.721 . S
C640 C223 1.526 . S
C651 N219 1.608 . S
C656 N232 1.362 . S
