# Generated by pormake.
# Topology lcy-e, (6)-cn, num edge types: 1
# Building blocks:
#     Node 0, Type 0, BuildingBlock: BETFEN_clean_sbu_0, # of connection points: 6
#     Node 1, Type 0, BuildingBlock: BETFEN_clean_sbu_0, # of connection points: 6
#     Node 2, Type 0, BuildingBlock: BETFEN_clean_sbu_0, # of connection points: 6
#     Node 3, Type 0, BuildingBlock: BETFEN_clean_sbu_0, # of connection points: 6
#     Node 4, Type 0, BuildingBlock: BETFEN_clean_sbu_0, # of connection points: 6
#     Node 5, Type 0, BuildingBlock: BETFEN_clean_sbu_0, # of connection points: 6
#     Node 6, Type 0, BuildingBlock: BETFEN_clean_sbu_0, # of connection points: 6
#     Node 7, Type 0, BuildingBlock: BETFEN_clean_sbu_0, # of connection points: 6
#     Node 8, Type 0, BuildingBlock: BETFEN_clean_sbu_0, # of connection points: 6
#     Node 9, Type 0, BuildingBlock: BETFEN_clean_sbu_0, # of connection points: 6
#     Node 10, Type 0, BuildingBlock: BETFEN_clean_sbu_0, # of connection points: 6
#     Node 11, Type 0, BuildingBlock: BETFEN_clean_sbu_0, # of connection points: 6
#     Edge 12, Type (0, 0), BuildingBlock: OJICUG_clean_linker_0, # of connection points: 2
#     Edge 13, Type (0, 0), BuildingBlock: OJICUG_clean_linker_0, # of connection points: 2
#     Edge 14, Type (0, 0), BuildingBlock: OJICUG_clean_linker_0, # of connection points: 2
#     Edge 15, Type (0, 0), BuildingBlock: OJICUG_clean_linker_0, # of connection points: 2
#     Edge 16, Type (0, 0), BuildingBlock: OJICUG_clean_linker_0, # of connection points: 2
#     Edge 17, Type (0, 0), BuildingBlock: OJICUG_clean_linker_0, # of connection points: 2
#     Edge 18, Type (0, 0), BuildingBlock: OJICUG_clean_linker_0, # of connection points: 2
#     Edge 19, Type (0, 0), BuildingBlock: OJICUG_clean_linker_0, # of connection points: 2
#     Edge 20, Type (0, 0), BuildingBlock: OJICUG_clean_linker_0, # of connection points: 2
#     Edge 21, Type (0, 0), BuildingBlock: OJICUG_clean_linker_0, # of connection points: 2
#     Edge 22, Type (0, 0), BuildingBlock: OJICUG_clean_linker_0, # of connection points: 2
#     Edge 23, Type (0, 0), BuildingBlock: OJICUG_clean_linker_0, # of connection points: 2
#     Edge 24, Type (0, 0), BuildingBlock: OJICUG_clean_linker_0, # of connection points: 2
#     Edge 25, Type (0, 0), BuildingBlock: OJICUG_clean_linker_0, # of connection points: 2
#     Edge 26, Type (0, 0), BuildingBlock: OJICUG_clean_linker_0, # of connection points: 2
#     Edge 27, Type (0, 0), BuildingBlock: OJICUG_clean_linker_0, # of connection points: 2
#     Edge 28, Type (0, 0), BuildingBlock: OJICUG_clean_linker_0, # of connection points: 2
#     Edge 29, Type (0, 0), BuildingBlock: OJICUG_clean_linker_0, # of connection points: 2
#     Edge 30, Type (0, 0), BuildingBlock: OJICUG_clean_linker_0, # of connection points: 2
#     Edge 31, Type (0, 0), BuildingBlock: OJICUG_clean_linker_0, # of connection points: 2
#     Edge 32, Type (0, 0), BuildingBlock: OJICUG_clean_linker_0, # of connection points: 2
#     Edge 33, Type (0, 0), BuildingBlock: OJICUG_clean_linker_0, # of connection points: 2
#     Edge 34, Type (0, 0), BuildingBlock: OJICUG_clean_linker_0, # of connection points: 2
#     Edge 35, Type (0, 0), BuildingBlock: OJICUG_clean_linker_0, # of connection points: 2
#     Edge 36, Type (0, 0), BuildingBlock: OJICUG_clean_linker_0, # of connection points: 2
#     Edge 37, Type (0, 0), BuildingBlock: OJICUG_clean_linker_0, # of connection points: 2
#     Edge 38, Type (0, 0), BuildingBlock: OJICUG_clean_linker_0, # of connection points: 2
#     Edge 39, Type (0, 0), BuildingBlock: OJICUG_clean_linker_0, # of connection points: 2
#     Edge 40, Type (0, 0), BuildingBlock: OJICUG_clean_linker_0, # of connection points: 2
#     Edge 41, Type (0, 0), BuildingBlock: OJICUG_clean_linker_0, # of connection points: 2
#     Edge 42, Type (0, 0), BuildingBlock: OJICUG_clean_linker_0, # of connection points: 2
#     Edge 43, Type (0, 0), BuildingBlock: OJICUG_clean_linker_0, # of connection points: 2
#     Edge 44, Type (0, 0), BuildingBlock: OJICUG_clean_linker_0, # of connection points: 2
#     Edge 45, Type (0, 0), BuildingBlock: OJICUG_clean_linker_0, # of connection points: 2
#     Edge 46, Type (0, 0), BuildingBlock: OJICUG_clean_linker_0, # of connection points: 2
#     Edge 47, Type (0, 0), BuildingBlock: OJICUG_clean_linker_0, # of connection points: 2
# Relax obj value: 0.213
# Max RMSD: 0.316
# Mean RMSD: 0.302
data_MOF--net-lcy-e--node1-BETFEN_clean_sbu_0--edge1-OJICUG_clean_linker_0
_symmetry_space_group_name_H-M    P1
_symmetry_Int_Tables_number       1
_symmetry_cell_setting            triclinic
loop_
_symmetry_equiv_pos_as_xyz
'x, y, z'
_cell_length_a     35.065603
_cell_length_b     34.334627
_cell_length_c     36.026776
_cell_angle_alpha  89.772528
_cell_angle_beta   88.691336
_cell_angle_gamma 88.286384
loop_
_atom_site_label
_atom_site_type_symbol
_atom_site_fract_x
_atom_site_fract_y
_atom_site_fract_z
_atom_type_partial_charge
Pr0 Pr 0.13332 0.24872 0.53003 0.0
Pr1 Pr 0.12056 0.30983 0.47008 0.0
C2 C 0.13846 0.20284 0.5912 0.0
C3 C 0.12112 0.16684 0.60635 0.0
C4 C 0.14474 0.13707 0.62082 0.0
C5 C 0.12914 0.10354 0.6366 0.0
C6 C 0.08931 0.09883 0.63862 0.0
C7 C 0.06567 0.12837 0.62326 0.0
C8 C 0.08136 0.16193 0.60732 0.0
C9 C 0.17558 0.23317 0.46419 0.0
C10 C 0.06674 0.23154 0.47091 0.0
C11 C 0.11157 0.3507 0.406 0.0
C12 C 0.13 0.36507 0.37107 0.0
C13 C 0.11383 0.35592 0.33699 0.0
C14 C 0.12848 0.37086 0.30352 0.0
C15 C 0.15974 0.39571 0.30301 0.0
C16 C 0.17657 0.40415 0.33719 0.0
C17 C 0.16184 0.38908 0.37082 0.0
C18 C 0.08202 0.32488 0.53911 0.0
C19 C 0.18366 0.33052 0.52577 0.0
O20 O 0.1167 0.23436 0.5896 0.0
O21 O 0.16158 0.199 0.5624 0.0
O22 O 0.17146 0.26642 0.47903 0.0
O23 O 0.1567 0.20734 0.48285 0.0
O24 O 0.08232 0.25923 0.4508 0.0
O25 O 0.07792 0.22416 0.50499 0.0
O26 O 0.10646 0.31327 0.40896 0.0
O27 O 0.11917 0.36699 0.43768 0.0
O28 O 0.08453 0.29283 0.5222 0.0
O29 O 0.09725 0.35158 0.51843 0.0
O30 O 0.16732 0.30479 0.54827 0.0
O31 O 0.17866 0.3291 0.48984 0.0
H32 H 0.17545 0.1399 0.62023 0.0
H33 H 0.14846 0.08125 0.64733 0.0
H34 H 0.03494 0.12611 0.62445 0.0
H35 H 0.06231 0.18426 0.5962 0.0
H36 H 0.08928 0.33753 0.33626 0.0
H37 H 0.11506 0.36296 0.27797 0.0
H38 H 0.20044 0.42337 0.33815 0.0
H39 H 0.17498 0.39674 0.39661 0.0
Pr40 Pr 0.96816 0.88857 0.7301 0.0
Pr41 Pr 0.02084 0.91078 0.79107 0.0
C42 C 0.91323 0.88936 0.67835 0.0
C43 C 0.90398 0.90618 0.64117 0.0
C44 C 0.90238 0.88177 0.61006 0.0
C45 C 0.89029 0.89644 0.57571 0.0
C46 C 0.87904 0.93597 0.57143 0.0
C47 C 0.88175 0.96064 0.60236 0.0
C48 C 0.89397 0.94597 0.63671 0.0
C49 C 0.03374 0.84181 0.7285 0.0
C50 C 0.02692 0.9646 0.71741 0.0
C51 C 0.07276 0.91282 0.84589 0.0
C52 C 0.10824 0.89296 0.8595 0.0
C53 C 0.13961 0.91546 0.86807 0.0
C54 C 0.17253 0.89827 0.88328 0.0
C55 C 0.17513 0.85791 0.89062 0.0
C56 C 0.144 0.83514 0.88104 0.0
C57 C 0.11095 0.85245 0.86574 0.0
C58 C 0.94431 0.94324 0.79581 0.0
C59 C 0.97176 0.83743 0.8079 0.0
O60 O 0.91318 0.91319 0.70662 0.0
O61 O 0.93989 0.8619 0.68018 0.0
O62 O 0.03406 0.87851 0.73442 0.0
O63 O 0.9999 0.8296 0.72169 0.0
O64 O 0.04501 0.95299 0.74714 0.0
O65 O 0.99563 0.94722 0.70706 0.0
O66 O 0.07535 0.93342 0.81542 0.0
O67 O 0.04072 0.89449 0.84883 0.0
O68 O 0.95555 0.90964 0.78797 0.0
O69 O 0.97388 0.96326 0.80414 0.0
O70 O 0.9473 0.85399 0.78447 0.0
O71 O 1.00777 0.84615 0.80446 0.0
H72 H 0.90974 0.85101 0.61246 0.0
H73 H 0.88934 0.87652 0.55255 0.0
H74 H 0.87303 0.99109 0.60051 0.0
H75 H 0.89463 0.96575 0.66002 0.0
H76 H 0.13845 0.94669 0.86352 0.0
H77 H 0.19598 0.91682 0.88946 0.0
H78 H 0.14464 0.80409 0.88643 0.0
H79 H 0.08731 0.83419 0.85941 0.0
Pr80 Pr 0.37727 0.7307 0.98929 0.0
Pr81 Pr 0.36002 0.79078 0.04406 0.0
C82 C 0.39012 0.66732 0.94593 0.0
C83 C 0.37668 0.65582 0.90921 0.0
C84 C 0.35354 0.68141 0.88836 0.0
C85 C 0.34021 0.67009 0.85377 0.0
C86 C 0.34987 0.63297 0.83932 0.0
C87 C 0.37299 0.60745 0.86052 0.0
C88 C 0.38622 0.61878 0.8951 0.0
C89 C 0.41869 0.79854 0.97496 0.0
C90 C 0.30696 0.7913 0.96849 0.0
C91 C 0.3473 0.85701 0.08316 0.0
C92 C 0.36807 0.88806 0.10116 0.0
C93 C 0.34797 0.92197 0.11237 0.0
C94 C 0.36687 0.95225 0.12912 0.0
C95 C 0.40638 0.94922 0.13517 0.0
C96 C 0.42662 0.91525 0.12337 0.0
C97 C 0.40759 0.88488 0.10647 0.0
C98 C 0.32231 0.72027 0.05877 0.0
C99 C 0.42355 0.73236 0.06948 0.0
O100 O 0.36421 0.66905 0.97248 0.0
O101 O 0.41294 0.69664 0.94648 0.0
O102 O 0.41451 0.78274 1.00657 0.0
O103 O 0.39894 0.7809 0.95042 0.0
O104 O 0.32007 0.81178 0.996 0.0
O105 O 0.32168 0.75627 0.96123 0.0
O106 O 0.34957 0.85602 0.04692 0.0
O107 O 0.34888 0.82243 0.09849 0.0
O108 O 0.32503 0.73705 0.02761 0.0
O109 O 0.3374 0.74136 0.08403 0.0
O110 O 0.40659 0.70922 0.04587 0.0
O111 O 0.41853 0.77011 0.06584 0.0
H112 H 0.3458 0.71016 0.89887 0.0
H113 H 0.32278 0.69059 0.83814 0.0
H114 H 0.38046 0.57841 0.85062 0.0
H115 H 0.40376 0.59853 0.91091 0.0
H116 H 0.31754 0.92509 0.10808 0.0
H117 H 0.35047 0.97821 0.13716 0.0
H118 H 0.45698 0.91182 0.12782 0.0
H119 H 0.42361 0.85892 0.0977 0.0
Pr120 Pr 0.5439 0.1389 0.22825 0.0
Pr121 Pr 0.47826 0.13464 0.28473 0.0
C122 C 0.60752 0.13637 0.18426 0.0
C123 C 0.61874 0.12042 0.14694 0.0
C124 C 0.60771 0.1395 0.11408 0.0
C125 C 0.61965 0.12496 0.07924 0.0
C126 C 0.64305 0.09097 0.07617 0.0
C127 C 0.65322 0.07133 0.10902 0.0
C128 C 0.64135 0.08594 0.1439 0.0
C129 C 0.48029 0.18626 0.21034 0.0
C130 C 0.47867 0.07519 0.21155 0.0
C131 C 0.4103 0.13344 0.32181 0.0
C132 C 0.37893 0.15328 0.34347 0.0
C133 C 0.36425 0.13468 0.3752 0.0
C134 C 0.33149 0.14956 0.39371 0.0
C135 C 0.31241 0.18353 0.38095 0.0
C136 C 0.32799 0.20309 0.34994 0.0
C137 C 0.36082 0.18801 0.33124 0.0
C138 C 0.5438 0.08803 0.3007 0.0
C139 C 0.54295 0.19072 0.30747 0.0
O140 O 0.6009 0.11106 0.21061 0.0
O141 O 0.5839 0.16661 0.18588 0.0
O142 O 0.49377 0.18312 0.24259 0.0
O143 O 0.49931 0.16419 0.18687 0.0
O144 O 0.45862 0.09263 0.23839 0.0
O145 O 0.51409 0.08481 0.20366 0.0
O146 O 0.41391 0.14119 0.28633 0.0
O147 O 0.44279 0.12546 0.33775 0.0
O148 O 0.52839 0.09182 0.26963 0.0
O149 O 0.52329 0.10665 0.32579 0.0
O150 O 0.56473 0.16996 0.2836 0.0
O151 O 0.5056 0.19047 0.30541 0.0
H152 H 0.5902 0.16601 0.11518 0.0
H153 H 0.61091 0.14073 0.05462 0.0
H154 H 0.67164 0.04545 0.10791 0.0
H155 H 0.65048 0.07054 0.16861 0.0
H156 H 0.37753 0.10782 0.38513 0.0
H157 H 0.32082 0.13411 0.41788 0.0
H158 H 0.31403 0.22925 0.33931 0.0
H159 H 0.37139 0.20292 0.30671 0.0
Pr160 Pr 0.6409 0.23945 0.53093 0.0
Pr161 Pr 0.65215 0.30484 0.4755 0.0
C162 C 0.63233 0.17678 0.57609 0.0
C163 C 0.64495 0.16418 0.61365 0.0
C164 C 0.61773 0.15713 0.64189 0.0
C165 C 0.62897 0.14407 0.67705 0.0
C166 C 0.66783 0.13737 0.68497 0.0
C167 C 0.69511 0.14507 0.65676 0.0
C168 C 0.68385 0.15832 0.62162 0.0
C169 C 0.59735 0.30749 0.5468 0.0
C170 C 0.70783 0.30071 0.54929 0.0
C171 C 0.65742 0.37412 0.43989 0.0
C172 C 0.63706 0.40744 0.42221 0.0
C173 C 0.65397 0.44388 0.42242 0.0
C174 C 0.63693 0.4759 0.40452 0.0
C175 C 0.60249 0.47235 0.38558 0.0
C176 C 0.58491 0.4359 0.38635 0.0
C177 C 0.60206 0.40371 0.40449 0.0
C178 C 0.69559 0.23609 0.45922 0.0
C179 C 0.59517 0.24204 0.45026 0.0
O180 O 0.65829 0.17851 0.54967 0.0
O181 O 0.60708 0.20543 0.57436 0.0
O182 O 0.60118 0.29228 0.51499 0.0
O183 O 0.61794 0.28872 0.57082 0.0
O184 O 0.69195 0.32273 0.52351 0.0
O185 O 0.69635 0.26495 0.5557 0.0
O186 O 0.65452 0.37084 0.47601 0.0
O187 O 0.65891 0.34055 0.42275 0.0
O188 O 0.69042 0.2509 0.49097 0.0
O189 O 0.68118 0.2592 0.43419 0.0
O190 O 0.61359 0.21895 0.47402 0.0
O191 O 0.59674 0.28003 0.45332 0.0
H192 H 0.58759 0.16146 0.63669 0.0
H193 H 0.60704 0.13919 0.69805 0.0
H194 H 0.72522 0.13986 0.6614 0.0
H195 H 0.7057 0.16348 0.6006 0.0
H196 H 0.68083 0.44752 0.43611 0.0
H197 H 0.65101 0.50351 0.4054 0.0
H198 H 0.55853 0.43188 0.37201 0.0
H199 H 0.58835 0.37586 0.40415 0.0
Pr200 Pr 0.99479 0.39385 0.71233 0.0
Pr201 Pr 0.05182 0.37736 0.76979 0.0
C202 C 0.95075 0.40541 0.65249 0.0
C203 C 0.91456 0.3894 0.63933 0.0
C204 C 0.88182 0.41376 0.63707 0.0
C205 C 0.84734 0.39917 0.62513 0.0
C206 C 0.84473 0.35982 0.61479 0.0
C207 C 0.87754 0.33538 0.61727 0.0
C208 C 0.91201 0.34995 0.62941 0.0
C209 C 0.97709 0.43325 0.77909 0.0
C210 C 0.97644 0.32049 0.76742 0.0
C211 C 0.09117 0.36458 0.83267 0.0
C212 C 0.10716 0.38406 0.86506 0.0
C213 C 0.11933 0.36113 0.89501 0.0
C214 C 0.13441 0.37831 0.92635 0.0
C215 C 0.13789 0.419 0.92855 0.0
C216 C 0.12493 0.4421 0.89865 0.0
C217 C 0.10969 0.42476 0.86715 0.0
C218 C 0.068 0.34058 0.70035 0.0
C219 C 0.07402 0.4455 0.71708 0.0
O220 O 0.9809 0.38212 0.65236 0.0
O221 O 0.94833 0.42761 0.68185 0.0
O222 O 1.01009 0.4305 0.76415 0.0
O223 O 0.9528 0.41394 0.76035 0.0
O224 O 1.00321 0.33518 0.7878 0.0
O225 O 0.96928 0.33512 0.73429 0.0
O226 O 0.05399 0.36388 0.83128 0.0
O227 O 0.10765 0.3698 0.80016 0.0
O228 O 0.0363 0.34221 0.71749 0.0
O229 O 0.09358 0.3565 0.7204 0.0
O230 O 0.05124 0.42766 0.69405 0.0
O231 O 0.0703 0.43892 0.75281 0.0
H232 H 0.88286 0.44421 0.64465 0.0
H233 H 0.82263 0.4188 0.62416 0.0
H234 H 0.87686 0.3051 0.60908 0.0
H235 H 0.93666 0.33027 0.63084 0.0
H236 H 0.11716 0.32973 0.89418 0.0
H237 H 0.14323 0.35955 0.94902 0.0
H238 H 0.12729 0.47346 0.89923 0.0
H239 H 0.10009 0.44304 0.84441 0.0
Pr240 Pr 0.87733 0.79987 0.03905 0.0
Pr241 Pr 0.87818 0.7229 0.98335 0.0
C242 C 0.8554 0.86379 0.07878 0.0
C243 C 0.84914 0.87741 0.11764 0.0
C244 C 0.87575 0.86998 0.14558 0.0
C245 C 0.86829 0.88299 0.18209 0.0
C246 C 0.83392 0.90345 0.19159 0.0
C247 C 0.80721 0.9102 0.16354 0.0
C248 C 0.81477 0.89742 0.12713 0.0
C249 C 0.93164 0.74319 0.06225 0.0
C250 C 0.81775 0.72638 0.0568 0.0
C251 C 0.88699 0.65089 0.95373 0.0
C252 C 0.89991 0.62184 0.92539 0.0
C253 C 0.87846 0.58843 0.92096 0.0
C254 C 0.8914 0.55826 0.8974 0.0
C255 C 0.92617 0.56069 0.87718 0.0
C256 C 0.94745 0.59464 0.88133 0.0
C257 C 0.93454 0.62479 0.90529 0.0
C258 C 0.83855 0.79091 0.95911 0.0
C259 C 0.92951 0.79495 0.95888 0.0
O260 O 0.83173 0.83787 0.06747 0.0
O261 O 0.89043 0.8579 0.06578 0.0
O262 O 0.90953 0.74099 0.03525 0.0
O263 O 0.9252 0.77618 0.07902 0.0
O264 O 0.83266 0.7061 0.02863 0.0
O265 O 0.82958 0.7613 0.06583 0.0
O266 O 0.91258 0.66696 0.9742 0.0
O267 O 0.85659 0.67319 0.94825 0.0
O268 O 0.84097 0.7784 0.99202 0.0
O269 O 0.85392 0.76522 0.93618 0.0
O270 O 0.90889 0.81827 0.98191 0.0
O271 O 0.93083 0.75674 0.96314 0.0
H272 H 0.90228 0.85417 0.13925 0.0
H273 H 0.88944 0.87695 0.20294 0.0
H274 H 0.78079 0.92636 0.16943 0.0
H275 H 0.79368 0.90339 0.10617 0.0
H276 H 0.85198 0.58514 0.9366 0.0
H277 H 0.87441 0.53254 0.89585 0.0
H278 H 0.97405 0.59805 0.86601 0.0
H279 H 0.9518 0.65017 0.90839 0.0
Pr280 Pr 0.52573 0.64168 0.23096 0.0
Pr281 Pr 0.46789 0.65695 0.29124 0.0
C282 C 0.57001 0.63079 0.16931 0.0
C283 C 0.60741 0.64457 0.15525 0.0
C284 C 0.63683 0.61745 0.14609 0.0
C285 C 0.67223 0.62987 0.13257 0.0
C286 C 0.67906 0.66981 0.12764 0.0
C287 C 0.64958 0.69696 0.13718 0.0
C288 C 0.61426 0.68452 0.1509 0.0
C289 C 0.5438 0.60233 0.29685 0.0
C290 C 0.54339 0.71396 0.2857 0.0
C291 C 0.42998 0.6699 0.35654 0.0
C292 C 0.41395 0.65205 0.39077 0.0
C293 C 0.42337 0.66768 0.42518 0.0
C294 C 0.40757 0.65316 0.45822 0.0
C295 C 0.38169 0.62264 0.45778 0.0
C296 C 0.37288 0.60635 0.42324 0.0
C297 C 0.38881 0.62094 0.39004 0.0
C298 C 0.45207 0.69433 0.22299 0.0
C299 C 0.44444 0.59236 0.2367 0.0
O300 O 0.54169 0.65639 0.17142 0.0
O301 O 0.57056 0.60678 0.19753 0.0
O302 O 0.51062 0.60443 0.28353 0.0
O303 O 0.56758 0.62251 0.27714 0.0
O304 O 0.5156 0.69989 0.30643 0.0
O305 O 0.55184 0.69924 0.25268 0.0
O306 O 0.46713 0.66975 0.35285 0.0
O307 O 0.41273 0.66533 0.32507 0.0
O308 O 0.48369 0.69267 0.23876 0.0
O309 O 0.42622 0.67834 0.24385 0.0
O310 O 0.46993 0.60823 0.21392 0.0
O311 O 0.44552 0.5984 0.27254 0.0
H312 H 0.63241 0.58651 0.14937 0.0
H313 H 0.69433 0.60808 0.12614 0.0
H314 H 0.65343 0.72789 0.13332 0.0
H315 H 0.59226 0.70628 0.15782 0.0
H316 H 0.44276 0.69161 0.4265 0.0
H317 H 0.41561 0.66603 0.48419 0.0
H318 H 0.35282 0.58306 0.42174 0.0
H319 H 0.38108 0.60826 0.36388 0.0
Pr320 Pr 0.2245 0.54317 0.12694 0.0
Pr321 Pr 0.28491 0.48126 0.11407 0.0
C322 C 0.17798 0.60706 0.13505 0.0
C323 C 0.13962 0.62109 0.12278 0.0
C324 C 0.10885 0.62335 0.14842 0.0
C325 C 0.07313 0.63848 0.13792 0.0
C326 C 0.06717 0.65213 0.10151 0.0
C327 C 0.09772 0.64892 0.07556 0.0
C328 C 0.1335 0.63368 0.08606 0.0
C329 C 0.20975 0.4746 0.16712 0.0
C330 C 0.21025 0.48358 0.05801 0.0
C331 C 0.32699 0.41436 0.10541 0.0
C332 C 0.34641 0.38133 0.12469 0.0
C333 C 0.34292 0.34367 0.11051 0.0
C334 C 0.36239 0.31183 0.12639 0.0
C335 C 0.38617 0.31674 0.1569 0.0
C336 C 0.38879 0.35447 0.17184 0.0
C337 C 0.36914 0.38647 0.15587 0.0
C338 C 0.30002 0.55354 0.07903 0.0
C339 C 0.3038 0.53851 0.17732 0.0
O340 O 0.20546 0.60424 0.10999 0.0
O341 O 0.17926 0.57865 0.15928 0.0
O342 O 0.24211 0.48983 0.16376 0.0
O343 O 0.1847 0.49359 0.14749 0.0
O344 O 0.23915 0.46316 0.07157 0.0
O345 O 0.19971 0.51765 0.07231 0.0
O346 O 0.28967 0.4157 0.10646 0.0
O347 O 0.34193 0.44881 0.10662 0.0
O348 O 0.26857 0.53658 0.07974 0.0
O349 O 0.3257 0.53168 0.09501 0.0
O350 O 0.27906 0.56243 0.16062 0.0
O351 O 0.3031 0.50095 0.17146 0.0
H352 H 0.11254 0.61394 0.17688 0.0
H353 H 0.05022 0.63991 0.15859 0.0
H354 H 0.09444 0.65952 0.04743 0.0
H355 H 0.15652 0.6325 0.0655 0.0
H356 H 0.32543 0.33889 0.08662 0.0
H357 H 0.35892 0.28327 0.1145 0.0
H358 H 0.40694 0.35952 0.19515 0.0
H359 H 0.37221 0.41522 0.16749 0.0
Pr360 Pr 0.78534 0.04 0.88605 0.0
Pr361 Pr 0.71531 0.98016 0.87265 0.0
C362 C 0.84383 0.08974 0.88473 0.0
C363 C 0.86325 0.1215 0.86433 0.0
C364 C 0.8683 0.15645 0.88342 0.0
C365 C 0.88557 0.18799 0.86605 0.0
C366 C 0.89871 0.18566 0.82893 0.0
C367 C 0.89323 0.15074 0.8094 0.0
C368 C 0.87571 0.11886 0.82698 0.0
C369 C 0.7305 0.04696 0.94466 0.0
C370 C 0.71793 0.06215 0.82192 0.0
C371 C 0.64611 0.94651 0.87326 0.0
C372 C 0.61411 0.92716 0.89364 0.0
C373 C 0.61923 0.89214 0.91368 0.0
C374 C 0.58763 0.87303 0.92947 0.0
C375 C 0.55009 0.88816 0.92522 0.0
C376 C 0.54533 0.92363 0.90586 0.0
C377 C 0.5768 0.94279 0.89043 0.0
C378 C 0.78149 0.97126 0.82665 0.0
C379 C 0.78758 0.94818 0.91988 0.0
O380 O 0.84834 0.05319 0.87451 0.0
O381 O 0.8095 0.09847 0.89748 0.0
O382 O 0.72928 0.02416 0.91735 0.0
O383 O 0.76148 0.06618 0.94235 0.0
O384 O 0.69876 0.0311 0.83214 0.0
O385 O 0.75105 0.07067 0.83686 0.0
O386 O 0.65054 0.98385 0.87832 0.0
O387 O 0.67835 0.92718 0.86655 0.0
O388 O 0.76644 1.00275 0.83836 0.0
O389 O 0.75913 0.94261 0.83509 0.0
O390 O 0.80841 0.97728 0.90654 0.0
O391 O 0.74989 0.94899 0.91899 0.0
H392 H 0.85865 0.15947 0.91209 0.0
H393 H 0.88845 0.21448 0.88185 0.0
H394 H 0.90312 0.14783 0.78083 0.0
H395 H 0.87195 0.09237 0.81146 0.0
H396 H 0.64751 0.87909 0.91655 0.0
H397 H 0.59251 0.84568 0.94392 0.0
H398 H 0.51709 0.93655 0.90235 0.0
H399 H 0.5718 0.96959 0.87508 0.0
Pr400 Pr 0.78439 0.05742 0.36836 0.0
Pr401 Pr 0.72595 0.99623 0.39215 0.0
C402 C 0.82402 0.12314 0.37312 0.0
C403 C 0.8618 0.13517 0.3863 0.0
C404 C 0.89384 0.1368 0.36222 0.0
C405 C 0.92894 0.14908 0.37524 0.0
C406 C 0.93275 0.16002 0.41261 0.0
C407 C 0.90069 0.15821 0.43658 0.0
C408 C 0.86574 0.14615 0.4236 0.0
C409 C 0.80444 0.99194 0.32585 0.0
C410 C 0.80414 0.99399 0.43778 0.0
C411 C 0.6731 0.9412 0.40134 0.0
C412 C 0.6561 0.90834 0.38214 0.0
C413 C 0.64174 0.87773 0.40351 0.0
C414 C 0.62502 0.84622 0.38653 0.0
C415 C 0.62206 0.84462 0.34765 0.0
C416 C 0.6373 0.87504 0.32613 0.0
C417 C 0.6542 0.90669 0.34325 0.0
C418 C 0.71866 0.0716 0.4245 0.0
C419 C 0.70396 0.04805 0.32181 0.0
O420 O 0.80029 0.11108 0.39895 0.0
O421 O 0.82238 0.10332 0.34208 0.0
O422 O 0.7765 0.99298 0.34917 0.0
O423 O 0.82258 0.02431 0.32515 0.0
O424 O 0.77719 0.97218 0.42526 0.0
O425 O 0.80955 0.02922 0.42381 0.0
O426 O 0.70855 0.93627 0.4112 0.0
O427 O 0.66503 0.97642 0.38932 0.0
O428 O 0.72469 0.06221 0.39166 0.0
O429 O 0.71575 0.04021 0.44453 0.0
O430 O 0.72824 0.07369 0.33448 0.0
O431 O 0.7078 0.01131 0.33179 0.0
H432 H 0.89179 0.12881 0.3333 0.0
H433 H 0.9531 0.14997 0.35603 0.0
H434 H 0.90224 0.16717 0.46528 0.0
H435 H 0.84162 0.14584 0.44292 0.0
H436 H 0.64332 0.87826 0.43351 0.0
H437 H 0.61438 0.823 0.40398 0.0
H438 H 0.63537 0.87485 0.29617 0.0
H439 H 0.66546 0.92994 0.32622 0.0
Pr440 Pr 0.23461 0.5575 0.63394 0.0
Pr441 Pr 0.29901 0.49747 0.64307 0.0
C442 C 0.17104 0.60397 0.63058 0.0
C443 C 0.15667 0.64152 0.64717 0.0
C444 C 0.17284 0.67737 0.63754 0.0
C445 C 0.15837 0.71243 0.65307 0.0
C446 C 0.12745 0.7126 0.67872 0.0
C447 C 0.1115 0.67663 0.68836 0.0
C448 C 0.12585 0.64168 0.67277 0.0
C449 C 0.30039 0.57358 0.59158 0.0
C450 C 0.29447 0.57341 0.70053 0.0
C451 C 0.3666 0.45815 0.64833 0.0
C452 C 0.39727 0.43509 0.62891 0.0
C453 C 0.41336 0.40252 0.64694 0.0
C454 C 0.44539 0.38271 0.6317 0.0
C455 C 0.46226 0.39505 0.59799 0.0
C456 C 0.44519 0.42682 0.57913 0.0
C457 C 0.41306 0.44676 0.59451 0.0
C458 C 0.23029 0.48083 0.68125 0.0
C459 C 0.23921 0.47429 0.58408 0.0
O460 O 0.17398 0.57392 0.65286 0.0
O461 O 0.1991 0.60512 0.60611 0.0
O462 O 0.28616 0.54033 0.595 0.0
O463 O 0.2815 0.5992 0.6117 0.0
O464 O 0.316 0.54588 0.6846 0.0
O465 O 0.25974 0.58169 0.68888 0.0
O466 O 0.36339 0.49538 0.64067 0.0
O467 O 0.33384 0.44194 0.6551 0.0
O468 O 0.24588 0.5134 0.67978 0.0
O469 O 0.25194 0.45458 0.66473 0.0
O470 O 0.21623 0.5008 0.60068 0.0
O471 O 0.27621 0.47424 0.58863 0.0
H472 H 0.19664 0.67846 0.61791 0.0
H473 H 0.17156 0.73941 0.64507 0.0
H474 H 0.08717 0.67545 0.70734 0.0
H475 H 0.11253 0.61468 0.68056 0.0
H476 H 0.40174 0.39298 0.67347 0.0
H477 H 0.45725 0.3579 0.64662 0.0
H478 H 0.45746 0.43714 0.55318 0.0
H479 H 0.40122 0.47187 0.58 0.0
C480 C 0.18839 0.40293 0.52388 0.0
C481 C 0.19866 0.36699 0.54067 0.0
H482 H 0.19205 0.46544 0.5251 0.0
C483 C 0.22117 0.36701 0.57221 0.0
H484 H 0.17035 0.40382 0.49985 0.0
C485 C 0.23433 0.40218 0.58584 0.0
C486 C 0.22387 0.43808 0.56921 0.0
H487 H 0.22909 0.33989 0.58588 0.0
H488 H 0.25251 0.40135 0.60974 0.0
C489 C 0.20039 0.43824 0.53838 0.0
C490 C 0.84736 0.99733 0.8114 0.0
C491 C 0.82253 0.96582 0.81499 0.0
H492 H 0.90568 0.01561 0.80434 0.0
C493 C 0.83781 0.92819 0.80922 0.0
H494 H 0.83593 0.02685 0.81314 0.0
C495 C 0.87683 0.92193 0.80213 0.0
C496 C 0.90255 0.95284 0.80176 0.0
H497 H 0.81963 0.90325 0.81052 0.0
H498 H 0.88673 0.89224 0.79757 0.0
C499 C 0.88718 0.99093 0.80585 0.0
C500 C 0.29536 0.65635 0.03719 0.0
C501 C 0.31364 0.67815 0.06431 0.0
H502 H 0.27559 0.60003 0.02102 0.0
C503 C 0.32581 0.65867 0.09654 0.0
H504 H 0.28545 0.67041 1.01208 0.0
C505 C 0.32216 0.61831 0.10061 0.0
C506 C 0.30399 0.59642 0.07366 0.0
H507 H 0.33917 0.67451 0.11841 0.0
H508 H 0.33327 0.6043 0.12523 0.0
C509 C 0.28985 0.61605 0.04221 0.0
C510 C 0.60386 0.08933 0.33696 0.0
C511 C 0.58488 0.077 0.30541 0.0
H512 H 0.65643 0.0917 0.36558 0.0
C513 C 0.60606 0.05594 0.27804 0.0
H514 H 0.58835 0.10474 0.35901 0.0
C515 C 0.64537 0.0477 0.2822 0.0
C516 C 0.66448 0.06154 0.31318 0.0
H517 H 0.59213 0.04542 0.25366 0.0
H518 H 0.66072 0.03024 0.26147 0.0
C519 C 0.64314 0.08234 0.34047 0.0
C520 C 0.71279 0.1669 0.48024 0.0
C521 C 0.70587 0.19434 0.45172 0.0
H522 H 0.72098 0.10603 0.49477 0.0
C523 C 0.70586 0.18104 0.41505 0.0
H524 H 0.71512 0.17654 0.50857 0.0
C525 C 0.71028 0.14145 0.40712 0.0
C526 C 0.71462 0.11343 0.43554 0.0
H527 H 0.70136 0.2012 0.39225 0.0
H528 H 0.70965 0.13288 0.3783 0.0
C529 C 0.71644 0.12662 0.47234 0.0
C530 C 0.13183 0.48531 0.7277 0.0
C531 C 0.1106 0.46227 0.70381 0.0
H532 H 0.18613 0.51 0.73882 0.0
C533 C 0.12826 0.44883 0.67074 0.0
H534 H 0.11911 0.49619 0.75346 0.0
C535 C 0.16717 0.45458 0.66368 0.0
C536 C 0.18878 0.47609 0.68835 0.0
H537 H 0.11263 0.43179 0.65139 0.0
H538 H 0.1804 0.44178 0.63904 0.0
C539 C 0.17031 0.49284 0.71961 0.0
C540 C 0.81595 0.90052 0.96562 0.0
C541 C 0.80587 0.90989 0.92919 0.0
H542 H 0.83465 0.85587 1.00311 0.0
C543 C 0.80733 0.88005 0.90243 0.0
H544 H 0.81452 0.92267 0.98698 0.0
C545 C 0.81836 0.84163 0.91191 0.0
C546 C 0.82749 0.83191 0.94863 0.0
H547 H 0.79872 0.88618 0.87432 0.0
H548 H 0.81885 0.81937 0.89067 0.0
C549 C 0.82672 0.86203 0.97509 0.0
C550 C 0.409 0.55287 0.19111 0.0
C551 C 0.40868 0.57752 0.22193 0.0
H552 H 0.37561 0.52047 0.15372 0.0
C553 C 0.37329 0.59034 0.2377 0.0
H554 H 0.43576 0.54302 0.1782 0.0
C555 C 0.33881 0.57878 0.22284 0.0
C556 C 0.33925 0.55319 0.19274 0.0
H557 H 0.37227 0.61009 0.26111 0.0
H558 H 0.312 0.58916 0.23525 0.0
C559 C 0.3746 0.5402 0.17713 0.0
C560 C 0.53696 0.234 0.3634 0.0
C561 C 0.55869 0.20664 0.34217 0.0
H562 H 0.53138 0.26646 0.41418 0.0
C563 C 0.59207 0.19033 0.35751 0.0
H564 H 0.51101 0.24712 0.35258 0.0
C565 C 0.60233 0.19958 0.39384 0.0
C566 C 0.58054 0.22689 0.41495 0.0
H567 H 0.60974 0.16961 0.34186 0.0
H568 H 0.62793 0.18626 0.40501 0.0
C569 C 0.54817 0.24455 0.39899 0.0
C570 C 0.04851 0.31011 0.60044 0.0
C571 C 0.0781 0.32815 0.58042 0.0
H572 H 0.02134 0.30074 0.6539 0.0
C573 C 0.10513 0.34844 0.60047 0.0
H574 H 0.0274 0.29402 0.58587 0.0
C575 C 0.10305 0.35015 0.63939 0.0
C576 C 0.07247 0.33395 0.65939 0.0
H577 H 0.12841 0.36252 0.58611 0.0
H578 H 0.12506 0.36501 0.65382 0.0
C579 C 0.04522 0.31373 0.6394 0.0
C580 C 0.97958 0.7955 0.86437 0.0
C581 C 0.9589 0.82478 0.84554 0.0
H582 H 0.98701 0.76357 0.91507 0.0
C583 C 0.93109 0.84696 0.86567 0.0
H584 H 1.00211 0.77886 0.85004 0.0
C585 C 0.92359 0.83948 0.90347 0.0
C586 C 0.94327 0.80917 0.92195 0.0
H587 H 0.91596 0.871 0.85263 0.0
H588 H 0.90156 0.85669 0.91787 0.0
C589 C 0.97148 0.78739 0.90187 0.0
C590 C 0.42663 0.67703 0.16059 0.0
C591 C 0.44801 0.70178 0.18256 0.0
H592 H 0.40537 0.66513 0.10648 0.0
C593 C 0.46615 0.73319 0.16535 0.0
H594 H 0.41303 0.65202 0.1729 0.0
C595 C 0.46039 0.7416 0.12767 0.0
C596 C 0.43764 0.71784 0.10593 0.0
H597 H 0.48332 0.75233 0.18145 0.0
H598 H 0.47261 0.76761 0.11586 0.0
C599 C 0.42238 0.68441 0.12249 0.0
C600 C 0.21242 0.42021 0.25983 0.0
C601 C 0.1734 0.41386 0.26718 0.0
H602 H 0.25466 0.44365 0.22239 0.0
C603 C 0.1471 0.42574 0.24006 0.0
H604 H 0.23367 0.41107 0.27966 0.0
C605 C 0.15921 0.44391 0.20711 0.0
C606 C 0.198 0.45109 0.2002 0.0
H607 H 0.1168 0.42209 0.24467 0.0
H608 H 0.13788 0.45336 0.18747 0.0
C609 C 0.22455 0.43857 0.22678 0.0
C610 C 0.83842 0.92691 0.51533 0.0
C611 C 0.86233 0.95066 0.5357 0.0
H612 H 0.80212 0.92149 0.469 0.0
C613 C 0.86861 0.98869 0.52225 0.0
H614 H 0.83216 0.89779 0.52484 0.0
C615 C 0.8509 1.00263 0.48986 0.0
C616 C 0.82632 0.97896 0.47013 0.0
H617 H 0.88713 0.00781 0.53682 0.0
H618 H 0.85582 0.0322 0.48077 0.0
C619 C 0.82083 0.94075 0.48319 0.0
C620 C 0.28515 0.61548 0.75757 0.0
C621 C 0.30912 0.59242 0.73416 0.0
H622 H 0.27896 0.64602 0.80933 0.0
C623 C 0.34708 0.58499 0.74463 0.0
H624 H 0.25574 0.62168 0.75045 0.0
C625 C 0.36035 0.59891 0.7782 0.0
C626 C 0.33608 0.62066 0.80238 0.0
H627 H 0.36656 0.56767 0.72722 0.0
H628 H 0.38968 0.59232 0.78533 0.0
C629 C 0.2985 0.62946 0.79133 0.0
C630 C 0.6737 0.10663 1.0145 0.0
C631 C 0.65983 0.07842 0.03929 0.0
H632 H 0.70617 0.11831 0.96501 0.0
C633 C 0.66498 0.03872 0.02956 0.0
H634 H 0.67091 0.13736 0.02104 0.0
C635 C 0.6851 0.02771 0.9967 0.0
C636 C 0.70074 0.05624 0.97337 0.0
H637 H 0.65444 0.01618 0.04787 0.0
H638 H 0.6905 0.99709 0.99086 0.0
C639 C 0.694 0.09568 0.98225 0.0
C640 C 0.71373 0.13138 0.73858 0.0
C641 C 0.67964 0.12068 0.72175 0.0
H642 H 0.75241 0.12196 0.78341 0.0
C643 C 0.65737 0.09259 0.7398 0.0
H644 H 0.73145 0.15329 0.72594 0.0
C645 C 0.66913 0.07506 0.77294 0.0
C646 C 0.70373 0.08479 0.7892 0.0
H647 H 0.6313 0.08297 0.72771 0.0
H648 H 0.65139 0.05293 0.78522 0.0
C649 C 0.72561 0.11368 0.77185 0.0
C650 C 0.15946 0.48729 1.00889 0.0
C651 C 0.19085 0.46778 0.02509 0.0
H652 H 0.11786 0.48726 0.96592 0.0
C653 C 0.20467 0.43274 1.0089 0.0
H654 H 0.1481 0.51438 0.02051 0.0
C655 C 0.1877 0.4175 0.97765 0.0
C656 C 0.15611 0.43657 0.96151 0.0
H657 H 0.22899 0.41693 0.02017 0.0
H658 H 0.19977 0.39078 0.96586 0.0
C659 C 0.14229 0.47186 0.97742 0.0
C660 C 0.78315 0.94177 0.28017 0.0
C661 C 0.81249 0.96195 0.29685 0.0
H662 H 0.7668 0.9073 0.23376 0.0
C663 C 0.84944 0.959 0.28089 0.0
H664 H 0.7543 0.94388 0.29152 0.0
C665 C 0.85666 0.93829 0.24797 0.0
C666 C 0.82699 0.92022 0.22967 0.0
H667 H 0.87262 0.97444 0.29296 0.0
H668 H 0.88515 0.93851 0.23573 0.0
C669 C 0.79029 0.92129 0.24678 0.0
C670 C 0.33223 0.62451 0.55303 0.0
C671 C 0.32438 0.58509 0.55908 0.0
H672 H 0.35548 0.66725 0.51639 0.0
C673 C 0.3369 0.55762 0.53226 0.0
H674 H 0.32282 0.64646 0.57301 0.0
C675 C 0.35589 0.56956 0.4996 0.0
C676 C 0.36291 0.60922 0.49311 0.0
H677 H 0.33128 0.527 0.53612 0.0
H678 H 0.36498 0.54772 0.47941 0.0
C679 C 0.35114 0.63642 0.52051 0.0
C680 C 0.235 0.24917 0.42685 0.0
C681 C 0.20845 0.22177 0.43928 0.0
H682 H 0.28873 0.25872 0.39883 0.0
C683 C 0.21525 0.18236 0.43026 0.0
H684 H 0.23061 0.27977 0.43335 0.0
C685 C 0.24845 0.17032 0.41073 0.0
C686 C 0.27585 0.19735 0.39949 0.0
H687 H 0.19532 0.16049 0.43914 0.0
H688 H 0.25283 0.13961 0.4047 0.0
C689 C 0.26829 0.2371 0.40705 0.0
C690 C 0.03997 0.04595 0.64532 0.0
C691 C 0.07282 0.06409 0.65805 0.0
H692 H 0.99973 1.00033 0.65358 0.0
C693 C 0.08993 0.04896 0.69018 0.0
H694 H 0.02607 0.0565 0.62054 0.0
C695 C 0.07506 0.01678 0.70882 0.0
C696 C 0.04235 0.9985 0.69622 0.0
H697 H 0.11465 0.06239 0.70151 0.0
H698 H 0.0893 1.00648 0.73351 0.0
C699 C 0.02495 0.01354 0.66414 0.0
C700 C 0.22472 0.80306 0.90042 0.0
C701 C 0.20943 0.84038 0.90965 0.0
H702 H 0.26754 0.75836 0.91114 0.0
C703 C 0.22707 0.86109 0.93786 0.0
H704 H 0.21223 0.78625 0.87869 0.0
C705 C 0.25876 0.84526 0.95619 0.0
C706 C 0.27407 0.80801 0.94716 0.0
H707 H 0.21593 0.88947 0.94646 0.0
H708 H 0.27099 0.86232 0.9779 0.0
C709 C 0.25667 0.78713 0.91887 0.0
C710 C 0.42457 0.03057 0.20285 0.0
C711 C 0.46086 0.043 0.1914 0.0
H712 H 0.37967 0.99105 0.19493 0.0
C713 C 0.47963 0.02387 0.16141 0.0
H714 H 0.40931 0.04422 0.22607 0.0
C715 C 0.46225 0.99321 0.14318 0.0
C716 C 0.42577 0.98111 0.1546 0.0
H717 H 0.50762 0.03264 0.15191 0.0
H718 H 0.47711 0.97943 0.11981 0.0
C719 C 0.40738 1.00006 0.18483 0.0
C720 C 0.7859 0.36841 0.57662 0.0
C721 C 0.80841 0.34488 0.60006 0.0
H722 H 0.73679 0.3733 0.54287 0.0
C723 C 0.79637 0.30692 0.60828 0.0
H724 H 0.79438 0.39751 0.5691 0.0
C725 C 0.76311 0.29271 0.59283 0.0
C726 C 0.74117 0.31613 0.56876 0.0
H727 H 0.81268 0.28811 0.62662 0.0
H728 H 0.75504 0.26318 0.59919 0.0
C729 C 0.7528 0.35431 0.56131 0.0
C730 C 0.92568 0.47451 0.81028 0.0
C731 C 0.9647 0.46482 0.80537 0.0
H732 H 0.88318 0.51262 0.83502 0.0
C733 C 0.99126 0.48687 0.82425 0.0
H734 H 0.9044 0.45849 0.79588 0.0
C735 C 0.97898 0.51787 0.84748 0.0
C736 C 0.93982 0.52785 0.85218 0.0
H737 H 0.02154 0.48016 0.82107 0.0
H738 H 1.00025 0.53369 0.86206 0.0
C739 C 0.91347 0.50564 0.83302 0.0
C740 C 0.76858 0.67518 0.06607 0.0
C741 C 0.78433 0.71033 0.07737 0.0
H742 H 0.72315 0.63537 0.0723 0.0
C743 C 0.76616 0.73111 0.10671 0.0
H744 H 0.78157 0.65836 0.0435 0.0
C745 C 0.73258 0.71762 0.12356 0.0
C746 C 0.7162 0.68305 0.11147 0.0
H747 H 0.77743 0.75823 0.11629 0.0
H748 H 0.71937 0.73446 0.14599 0.0
C749 C 0.735 0.66181 0.08279 0.0
C750 C 0.61127 0.53107 0.34459 0.0
C751 C 0.58646 0.50617 0.36383 0.0
H752 H 0.61741 0.58072 0.30936 0.0
C753 C 0.54682 0.51394 0.36164 0.0
H754 H 0.64186 0.52573 0.34465 0.0
C755 C 0.53259 0.54561 0.34059 0.0
C756 C 0.55769 0.57026 0.32146 0.0
H757 H 0.52679 0.49571 0.37634 0.0
H758 H 0.50202 0.55065 0.33912 0.0
C759 C 0.59715 0.56269 0.32404 0.0
C760 C 0.41565 0.27782 0.20986 0.0
C761 C 0.40934 0.28285 0.17157 0.0
H762 H 0.44258 0.24313 0.25239 0.0
C763 C 0.42582 0.25517 0.14685 0.0
H764 H 0.40315 0.29827 0.2298 0.0
C765 C 0.44788 0.2236 0.15979 0.0
C766 C 0.45455 0.21875 0.19787 0.0
H767 H 0.42239 0.25826 0.11718 0.0
H768 H 0.46036 0.2033 0.13968 0.0
C769 C 0.438 0.24608 0.22286 0.0
C770 C 0.93028 0.26527 0.76067 0.0
C771 C 0.95576 0.28607 0.78224 0.0
H772 H 0.89238 0.21715 0.75818 0.0
C773 C 0.96271 0.27284 0.81855 0.0
H774 H 0.9244 0.27442 0.73251 0.0
C775 C 0.94471 0.24016 0.83302 0.0
C776 C 0.91895 0.21944 0.81183 0.0
H777 H 0.98227 0.28771 0.83608 0.0
H778 H 0.95127 0.23096 0.86101 0.0
C779 C 0.91218 0.23222 0.77526 0.0
C780 C 1.01212 0.69809 0.11715 0.0
C781 C 0.03028 0.67235 0.09166 0.0
H782 H 0.96689 0.73988 0.12776 0.0
C783 C 0.01381 0.6679 0.05658 0.0
H784 H 0.02407 0.70292 0.14414 0.0
C785 C 0.98055 0.68938 0.04711 0.0
C786 C 0.96339 0.71593 0.07243 0.0
H787 H 0.02685 0.64815 0.0363 0.0
H788 H 0.96923 0.68636 0.01962 0.0
C789 C 0.97931 0.71954 0.10764 0.0
C790 C 0.61546 0.79402 0.29722 0.0
C791 C 0.60186 0.8119 0.3303 0.0
H792 H 0.60793 0.74881 0.25706 0.0
C793 C 0.56863 0.79785 0.34751 0.0
H794 H 0.64108 0.80403 0.28331 0.0
C795 C 0.55005 0.76629 0.33282 0.0
C796 C 0.56386 0.74782 0.3002 0.0
H797 H 0.5567 0.81141 0.37245 0.0
H798 H 0.5246 0.7565 0.34721 0.0
C799 C 0.59662 0.76227 0.28229 0.0
C800 C 0.53657 0.34557 0.53324 0.0
C801 C 0.56472 0.33353 0.55838 0.0
H802 H 0.48191 0.37424 0.52596 0.0
C803 C 0.55999 0.34405 0.59588 0.0
H804 H 0.53942 0.33789 0.50415 0.0
C805 C 0.52722 0.36466 0.60833 0.0
C806 C 0.49821 0.37542 0.58363 0.0
H807 H 0.58125 0.33552 0.61593 0.0
H808 H 0.52447 0.3719 0.63752 0.0
C809 C 0.50365 0.3664 0.54574 0.0
C810 C 0.09593 0.75155 0.73098 0.0
C811 C 0.11048 0.74994 0.69422 0.0
H812 H 0.06092 0.783 0.77101 0.0
C813 C 0.10557 0.78325 0.67159 0.0
H814 H 0.09972 0.72691 0.74953 0.0
C815 C 0.08405 0.81589 0.68442 0.0
C816 C 0.06725 0.81602 0.72017 0.0
H817 H 0.116 0.78312 0.64307 0.0
H818 H 0.07795 0.83963 0.66535 0.0
C819 C 0.07431 0.78402 0.74362 0.0
C820 C 0.45188 0.8422 0.9291 0.0
C821 C 0.45122 0.82378 0.96404 0.0
H822 H 0.48299 0.87661 0.88967 0.0
C823 C 0.48306 0.82751 0.98678 0.0
H824 H 0.42799 0.83985 0.91079 0.0
C825 C 0.51509 0.84825 0.9744 0.0
C826 C 0.51585 0.86647 0.93923 0.0
H827 H 0.48367 0.8135 1.01376 0.0
H828 H 0.53925 0.85013 0.99243 0.0
C829 C 0.48351 0.86342 0.91702 0.0
C830 C 0.99048 0.20124 0.40463 0.0
C831 C 0.96925 0.17524 0.4264 0.0
H832 H 0.03767 0.23914 0.40142 0.0
C833 C 0.98194 0.16587 0.46227 0.0
H834 H 0.98141 0.20947 0.37708 0.0
C835 C 0.01424 0.18315 0.47646 0.0
C836 C 0.0346 0.21025 0.45511 0.0
H837 H 0.96661 0.14549 0.47961 0.0
H838 H 0.0227 0.17591 0.50444 0.0
C839 C 0.02269 0.2185 0.41878 0.0
loop_
_geom_bond_atom_site_label_1
_geom_bond_atom_site_label_2
_geom_bond_distance
_geom_bond_site_symmetry_2
_ccdc_geom_bond_type
Pr0 C2 2.880 . S
Pr0 O20 2.562 . S
Pr0 O21 2.490 . S
Pr0 O22 2.695 . S
Pr0 O23 2.512 . S
Pr0 O25 2.437 . S
Pr0 O28 2.436 . S
Pr0 O30 2.438 . S
Pr1 C11 2.880 . S
Pr1 O22 2.436 . S
Pr1 O24 2.438 . S
Pr1 O26 2.562 . S
Pr1 O27 2.490 . S
Pr1 O28 2.695 . S
Pr1 O29 2.512 . S
Pr1 O31 2.437 . S
C2 Pr0 2.880 . S
C2 C3 1.491 . S
C2 O20 1.254 . S
C2 O21 1.225 . S
C3 C2 1.491 . S
C3 C4 1.392 . S
C3 C8 1.356 . S
C4 C3 1.392 . S
C4 C5 1.368 . S
C4 H32 0.929 . S
C5 C4 1.368 . S
C5 C6 1.386 . S
C5 H33 0.929 . S
C6 C5 1.386 . S
C6 C7 1.373 . S
C7 C6 1.373 . S
C7 C8 1.409 . S
C7 H34 0.931 . S
C8 C3 1.356 . S
C8 C7 1.409 . S
C8 H35 0.930 . S
C9 O22 1.270 . S
C9 O23 1.248 . S
C10 O24 1.267 . S
C10 O25 1.278 . S
C11 Pr1 2.880 . S
C11 C12 1.491 . S
C11 O26 1.254 . S
C11 O27 1.225 . S
C12 C11 1.491 . S
C12 C13 1.392 . S
C12 C17 1.356 . S
C13 C12 1.392 . S
C13 C14 1.368 . S
C13 H36 0.929 . S
C14 C13 1.368 . S
C14 C15 1.386 . S
C14 H37 0.929 . S
C15 C14 1.386 . S
C15 C16 1.373 . S
C16 C15 1.373 . S
C16 C17 1.409 . S
C16 H38 0.931 . S
C17 C12 1.356 . S
C17 C16 1.409 . S
C17 H39 0.930 . S
C18 O28 1.270 . S
C18 O29 1.248 . S
C19 O30 1.267 . S
C19 O31 1.278 . S
O20 Pr0 2.562 . S
O20 C2 1.254 . S
O21 Pr0 2.490 . S
O21 C2 1.225 . S
O22 Pr0 2.695 . S
O22 Pr1 2.436 . S
O22 C9 1.270 . S
O23 Pr0 2.512 . S
O23 C9 1.248 . S
O24 Pr1 2.438 . S
O24 C10 1.267 . S
O25 Pr0 2.437 . S
O25 C10 1.278 . S
O26 Pr1 2.562 . S
O26 C11 1.254 . S
O27 Pr1 2.490 . S
O27 C11 1.225 . S
O28 Pr0 2.436 . S
O28 Pr1 2.695 . S
O28 C18 1.270 . S
O29 Pr1 2.512 . S
O29 C18 1.248 . S
O30 Pr0 2.438 . S
O30 C19 1.267 . S
O31 Pr1 2.437 . S
O31 C19 1.278 . S
H32 C4 0.929 . S
H33 C5 0.929 . S
H34 C7 0.931 . S
H35 C8 0.930 . S
H36 C13 0.929 . S
H37 C14 0.929 . S
H38 C16 0.931 . S
H39 C17 0.930 . S
Pr40 C42 2.880 . S
Pr40 O60 2.562 . S
Pr40 O61 2.490 . S
Pr40 O62 2.695 1_655 S
Pr40 O63 2.512 1_655 S
Pr40 O65 2.437 1_655 S
Pr40 O68 2.436 . S
Pr40 O70 2.438 . S
Pr41 C51 2.880 . S
Pr41 O62 2.436 . S
Pr41 O64 2.438 . S
Pr41 O66 2.562 . S
Pr41 O67 2.490 . S
Pr41 O68 2.695 1_455 S
Pr41 O69 2.512 1_455 S
Pr41 O71 2.437 1_455 S
C42 Pr40 2.880 . S
C42 C43 1.491 . S
C42 O60 1.254 . S
C42 O61 1.225 . S
C43 C42 1.491 . S
C43 C44 1.392 . S
C43 C48 1.356 . S
C44 C43 1.392 . S
C44 C45 1.368 . S
C44 H72 0.929 . S
C45 C44 1.368 . S
C45 C46 1.386 . S
C45 H73 0.929 . S
C46 C45 1.386 . S
C46 C47 1.373 . S
C47 C46 1.373 . S
C47 C48 1.409 . S
C47 H74 0.931 . S
C48 C43 1.356 . S
C48 C47 1.409 . S
C48 H75 0.930 . S
C49 O62 1.270 . S
C49 O63 1.248 . S
C50 O64 1.267 . S
C50 O65 1.278 . S
C51 Pr41 2.880 . S
C51 C52 1.491 . S
C51 O66 1.254 . S
C51 O67 1.225 . S
C52 C51 1.491 . S
C52 C53 1.392 . S
C52 C57 1.356 . S
C53 C52 1.392 . S
C53 C54 1.368 . S
C53 H76 0.929 . S
C54 C53 1.368 . S
C54 C55 1.386 . S
C54 H77 0.929 . S
C55 C54 1.386 . S
C55 C56 1.373 . S
C56 C55 1.373 . S
C56 C57 1.409 . S
C56 H78 0.931 . S
C57 C52 1.356 . S
C57 C56 1.409 . S
C57 H79 0.930 . S
C58 O68 1.270 . S
C58 O69 1.248 . S
C59 O70 1.267 . S
C59 O71 1.278 . S
O60 Pr40 2.562 . S
O60 C42 1.254 . S
O61 Pr40 2.490 . S
O61 C42 1.225 . S
O62 Pr40 2.695 1_455 S
O62 Pr41 2.436 . S
O62 C49 1.270 . S
O63 Pr40 2.512 1_455 S
O63 C49 1.248 . S
O64 Pr41 2.438 . S
O64 C50 1.267 . S
O65 Pr40 2.437 1_455 S
O65 C50 1.278 . S
O66 Pr41 2.562 . S
O66 C51 1.254 . S
O67 Pr41 2.490 . S
O67 C51 1.225 . S
O68 Pr40 2.436 . S
O68 Pr41 2.695 1_655 S
O68 C58 1.270 . S
O69 Pr41 2.512 1_655 S
O69 C58 1.248 . S
O70 Pr40 2.438 . S
O70 C59 1.267 . S
O71 Pr41 2.437 1_655 S
O71 C59 1.278 . S
H72 C44 0.929 . S
H73 C45 0.929 . S
H74 C47 0.931 . S
H75 C48 0.930 . S
H76 C53 0.929 . S
H77 C54 0.929 . S
H78 C56 0.931 . S
H79 C57 0.930 . S
Pr80 C82 2.880 . S
Pr80 O100 2.562 . S
Pr80 O101 2.490 . S
Pr80 O102 2.695 . S
Pr80 O103 2.512 . S
Pr80 O105 2.437 . S
Pr80 O108 2.436 1_556 S
Pr80 O110 2.438 1_556 S
Pr81 C91 2.880 . S
Pr81 O102 2.436 1_554 S
Pr81 O104 2.438 1_554 S
Pr81 O106 2.562 . S
Pr81 O107 2.490 . S
Pr81 O108 2.695 . S
Pr81 O109 2.512 . S
Pr81 O111 2.437 . S
C82 Pr80 2.880 . S
C82 C83 1.491 . S
C82 O100 1.254 . S
C82 O101 1.225 . S
C83 C82 1.491 . S
C83 C84 1.392 . S
C83 C88 1.356 . S
C84 C83 1.392 . S
C84 C85 1.368 . S
C84 H112 0.929 . S
C85 C84 1.368 . S
C85 C86 1.386 . S
C85 H113 0.929 . S
C86 C85 1.386 . S
C86 C87 1.373 . S
C87 C86 1.373 . S
C87 C88 1.409 . S
C87 H114 0.931 . S
C88 C83 1.356 . S
C88 C87 1.409 . S
C88 H115 0.930 . S
C89 O102 1.270 . S
C89 O103 1.248 . S
C90 O104 1.267 . S
C90 O105 1.278 . S
C91 Pr81 2.880 . S
C91 C92 1.491 . S
C91 O106 1.254 . S
C91 O107 1.225 . S
C92 C91 1.491 . S
C92 C93 1.392 . S
C92 C97 1.356 . S
C93 C92 1.392 . S
C93 C94 1.368 . S
C93 H116 0.929 . S
C94 C93 1.368 . S
C94 C95 1.386 . S
C94 H117 0.929 . S
C95 C94 1.386 . S
C95 C96 1.373 . S
C96 C95 1.373 . S
C96 C97 1.409 . S
C96 H118 0.931 . S
C97 C92 1.356 . S
C97 C96 1.409 . S
C97 H119 0.930 . S
C98 O108 1.270 . S
C98 O109 1.248 . S
C99 O110 1.267 . S
C99 O111 1.278 . S
O100 Pr80 2.562 . S
O100 C82 1.254 . S
O101 Pr80 2.490 . S
O101 C82 1.225 . S
O102 Pr80 2.695 . S
O102 Pr81 2.436 1_556 S
O102 C89 1.270 . S
O103 Pr80 2.512 . S
O103 C89 1.248 . S
O104 Pr81 2.438 1_556 S
O104 C90 1.267 . S
O105 Pr80 2.437 . S
O105 C90 1.278 . S
O106 Pr81 2.562 . S
O106 C91 1.254 . S
O107 Pr81 2.490 . S
O107 C91 1.225 . S
O108 Pr80 2.436 1_554 S
O108 Pr81 2.695 . S
O108 C98 1.270 . S
O109 Pr81 2.512 . S
O109 C98 1.248 . S
O110 Pr80 2.438 1_554 S
O110 C99 1.267 . S
O111 Pr81 2.437 . S
O111 C99 1.278 . S
H112 C84 0.929 . S
H113 C85 0.929 . S
H114 C87 0.931 . S
H115 C88 0.930 . S
H116 C93 0.929 . S
H117 C94 0.929 . S
H118 C96 0.931 . S
H119 C97 0.930 . S
Pr120 C122 2.880 . S
Pr120 O140 2.562 . S
Pr120 O141 2.490 . S
Pr120 O142 2.695 . S
Pr120 O143 2.512 . S
Pr120 O145 2.437 . S
Pr120 O148 2.436 . S
Pr120 O150 2.438 . S
Pr121 C131 2.880 . S
Pr121 O142 2.436 . S
Pr121 O144 2.438 . S
Pr121 O146 2.562 . S
Pr121 O147 2.490 . S
Pr121 O148 2.695 . S
Pr121 O149 2.512 . S
Pr121 O151 2.437 . S
C122 Pr120 2.880 . S
C122 C123 1.491 . S
C122 O140 1.254 . S
C122 O141 1.225 . S
C123 C122 1.491 . S
C123 C124 1.392 . S
C123 C128 1.356 . S
C124 C123 1.392 . S
C124 C125 1.368 . S
C124 H152 0.929 . S
C125 C124 1.368 . S
C125 C126 1.386 . S
C125 H153 0.929 . S
C126 C125 1.386 . S
C126 C127 1.373 . S
C127 C126 1.373 . S
C127 C128 1.409 . S
C127 H154 0.931 . S
C128 C123 1.356 . S
C128 C127 1.409 . S
C128 H155 0.930 . S
C129 O142 1.270 . S
C129 O143 1.248 . S
C130 O144 1.267 . S
C130 O145 1.278 . S
C131 Pr121 2.880 . S
C131 C132 1.491 . S
C131 O146 1.254 . S
C131 O147 1.225 . S
C132 C131 1.491 . S
C132 C133 1.392 . S
C132 C137 1.356 . S
C133 C132 1.392 . S
C133 C134 1.368 . S
C133 H156 0.929 . S
C134 C133 1.368 . S
C134 C135 1.386 . S
C134 H157 0.929 . S
C135 C134 1.386 . S
C135 C136 1.373 . S
C136 C135 1.373 . S
C136 C137 1.409 . S
C136 H158 0.931 . S
C137 C132 1.356 . S
C137 C136 1.409 . S
C137 H159 0.930 . S
C138 O148 1.270 . S
C138 O149 1.248 . S
C139 O150 1.267 . S
C139 O151 1.278 . S
O140 Pr120 2.562 . S
O140 C122 1.254 . S
O141 Pr120 2.490 . S
O141 C122 1.225 . S
O142 Pr120 2.695 . S
O142 Pr121 2.436 . S
O142 C129 1.270 . S
O143 Pr120 2.512 . S
O143 C129 1.248 . S
O144 Pr121 2.438 . S
O144 C130 1.267 . S
O145 Pr120 2.437 . S
O145 C130 1.278 . S
O146 Pr121 2.562 . S
O146 C131 1.254 . S
O147 Pr121 2.490 . S
O147 C131 1.225 . S
O148 Pr120 2.436 . S
O148 Pr121 2.695 . S
O148 C138 1.270 . S
O149 Pr121 2.512 . S
O149 C138 1.248 . S
O150 Pr120 2.438 . S
O150 C139 1.267 . S
O151 Pr121 2.437 . S
O151 C139 1.278 . S
H152 C124 0.929 . S
H153 C125 0.929 . S
H154 C127 0.931 . S
H155 C128 0.930 . S
H156 C133 0.929 . S
H157 C134 0.929 . S
H158 C136 0.931 . S
H159 C137 0.930 . S
Pr160 C162 2.880 . S
Pr160 O180 2.562 . S
Pr160 O181 2.490 . S
Pr160 O182 2.695 . S
Pr160 O183 2.512 . S
Pr160 O185 2.437 . S
Pr160 O188 2.436 . S
Pr160 O190 2.438 . S
Pr161 C171 2.880 . S
Pr161 O182 2.436 . S
Pr161 O184 2.438 . S
Pr161 O186 2.562 . S
Pr161 O187 2.490 . S
Pr161 O188 2.695 . S
Pr161 O189 2.512 . S
Pr161 O191 2.437 . S
C162 Pr160 2.880 . S
C162 C163 1.491 . S
C162 O180 1.254 . S
C162 O181 1.225 . S
C163 C162 1.491 . S
C163 C164 1.392 . S
C163 C168 1.356 . S
C164 C163 1.392 . S
C164 C165 1.368 . S
C164 H192 0.929 . S
C165 C164 1.368 . S
C165 C166 1.386 . S
C165 H193 0.929 . S
C166 C165 1.386 . S
C166 C167 1.373 . S
C167 C166 1.373 . S
C167 C168 1.409 . S
C167 H194 0.931 . S
C168 C163 1.356 . S
C168 C167 1.409 . S
C168 H195 0.930 . S
C169 O182 1.270 . S
C169 O183 1.248 . S
C170 O184 1.267 . S
C170 O185 1.278 . S
C171 Pr161 2.880 . S
C171 C172 1.491 . S
C171 O186 1.254 . S
C171 O187 1.225 . S
C172 C171 1.491 . S
C172 C173 1.392 . S
C172 C177 1.356 . S
C173 C172 1.392 . S
C173 C174 1.368 . S
C173 H196 0.929 . S
C174 C173 1.368 . S
C174 C175 1.386 . S
C174 H197 0.929 . S
C175 C174 1.386 . S
C175 C176 1.373 . S
C176 C175 1.373 . S
C176 C177 1.409 . S
C176 H198 0.931 . S
C177 C172 1.356 . S
C177 C176 1.409 . S
C177 H199 0.930 . S
C178 O188 1.270 . S
C178 O189 1.248 . S
C179 O190 1.267 . S
C179 O191 1.278 . S
O180 Pr160 2.562 . S
O180 C162 1.254 . S
O181 Pr160 2.490 . S
O181 C162 1.225 . S
O182 Pr160 2.695 . S
O182 Pr161 2.436 . S
O182 C169 1.270 . S
O183 Pr160 2.512 . S
O183 C169 1.248 . S
O184 Pr161 2.438 . S
O184 C170 1.267 . S
O185 Pr160 2.437 . S
O185 C170 1.278 . S
O186 Pr161 2.562 . S
O186 C171 1.254 . S
O187 Pr161 2.490 . S
O187 C171 1.225 . S
O188 Pr160 2.436 . S
O188 Pr161 2.695 . S
O188 C178 1.270 . S
O189 Pr161 2.512 . S
O189 C178 1.248 . S
O190 Pr160 2.438 . S
O190 C179 1.267 . S
O191 Pr161 2.437 . S
O191 C179 1.278 . S
H192 C164 0.929 . S
H193 C165 0.929 . S
H194 C167 0.931 . S
H195 C168 0.930 . S
H196 C173 0.929 . S
H197 C174 0.929 . S
H198 C176 0.931 . S
H199 C177 0.930 . S
Pr200 C202 2.880 . S
Pr200 O220 2.562 . S
Pr200 O221 2.490 . S
Pr200 O222 2.695 . S
Pr200 O223 2.512 . S
Pr200 O225 2.437 . S
Pr200 O228 2.436 1_655 S
Pr200 O230 2.438 1_655 S
Pr201 C211 2.880 . S
Pr201 O222 2.436 1_455 S
Pr201 O224 2.438 1_455 S
Pr201 O226 2.562 . S
Pr201 O227 2.490 . S
Pr201 O228 2.695 . S
Pr201 O229 2.512 . S
Pr201 O231 2.437 . S
C202 Pr200 2.880 . S
C202 C203 1.491 . S
C202 O220 1.254 . S
C202 O221 1.225 . S
C203 C202 1.491 . S
C203 C204 1.392 . S
C203 C208 1.356 . S
C204 C203 1.392 . S
C204 C205 1.368 . S
C204 H232 0.929 . S
C205 C204 1.368 . S
C205 C206 1.386 . S
C205 H233 0.929 . S
C206 C205 1.386 . S
C206 C207 1.373 . S
C207 C206 1.373 . S
C207 C208 1.409 . S
C207 H234 0.931 . S
C208 C203 1.356 . S
C208 C207 1.409 . S
C208 H235 0.930 . S
C209 O222 1.270 . S
C209 O223 1.248 . S
C210 O224 1.267 . S
C210 O225 1.278 . S
C211 Pr201 2.880 . S
C211 C212 1.491 . S
C211 O226 1.254 . S
C211 O227 1.225 . S
C212 C211 1.491 . S
C212 C213 1.392 . S
C212 C217 1.356 . S
C213 C212 1.392 . S
C213 C214 1.368 . S
C213 H236 0.929 . S
C214 C213 1.368 . S
C214 C215 1.386 . S
C214 H237 0.929 . S
C215 C214 1.386 . S
C215 C216 1.373 . S
C216 C215 1.373 . S
C216 C217 1.409 . S
C216 H238 0.931 . S
C217 C212 1.356 . S
C217 C216 1.409 . S
C217 H239 0.930 . S
C218 O228 1.270 . S
C218 O229 1.248 . S
C219 O230 1.267 . S
C219 O231 1.278 . S
O220 Pr200 2.562 . S
O220 C202 1.254 . S
O221 Pr200 2.490 . S
O221 C202 1.225 . S
O222 Pr200 2.695 . S
O222 Pr201 2.436 1_655 S
O222 C209 1.270 . S
O223 Pr200 2.512 . S
O223 C209 1.248 . S
O224 Pr201 2.438 1_655 S
O224 C210 1.267 . S
O225 Pr200 2.437 . S
O225 C210 1.278 . S
O226 Pr201 2.562 . S
O226 C211 1.254 . S
O227 Pr201 2.490 . S
O227 C211 1.225 . S
O228 Pr200 2.436 1_455 S
O228 Pr201 2.695 . S
O228 C218 1.270 . S
O229 Pr201 2.512 . S
O229 C218 1.248 . S
O230 Pr200 2.438 1_455 S
O230 C219 1.267 . S
O231 Pr201 2.437 . S
O231 C219 1.278 . S
H232 C204 0.929 . S
H233 C205 0.929 . S
H234 C207 0.931 . S
H235 C208 0.930 . S
H236 C213 0.929 . S
H237 C214 0.929 . S
H238 C216 0.931 . S
H239 C217 0.930 . S
Pr240 C242 2.880 . S
Pr240 O260 2.562 . S
Pr240 O261 2.490 . S
Pr240 O262 2.695 . S
Pr240 O263 2.512 . S
Pr240 O265 2.437 . S
Pr240 O268 2.436 1_554 S
Pr240 O270 2.438 1_554 S
Pr241 C251 2.880 . S
Pr241 O262 2.436 1_556 S
Pr241 O264 2.438 1_556 S
Pr241 O266 2.562 . S
Pr241 O267 2.490 . S
Pr241 O268 2.695 . S
Pr241 O269 2.512 . S
Pr241 O271 2.437 . S
C242 Pr240 2.880 . S
C242 C243 1.491 . S
C242 O260 1.254 . S
C242 O261 1.225 . S
C243 C242 1.491 . S
C243 C244 1.392 . S
C243 C248 1.356 . S
C244 C243 1.392 . S
C244 C245 1.368 . S
C244 H272 0.929 . S
C245 C244 1.368 . S
C245 C246 1.386 . S
C245 H273 0.929 . S
C246 C245 1.386 . S
C246 C247 1.373 . S
C247 C246 1.373 . S
C247 C248 1.409 . S
C247 H274 0.931 . S
C248 C243 1.356 . S
C248 C247 1.409 . S
C248 H275 0.930 . S
C249 O262 1.270 . S
C249 O263 1.248 . S
C250 O264 1.267 . S
C250 O265 1.278 . S
C251 Pr241 2.880 . S
C251 C252 1.491 . S
C251 O266 1.254 . S
C251 O267 1.225 . S
C252 C251 1.491 . S
C252 C253 1.392 . S
C252 C257 1.356 . S
C253 C252 1.392 . S
C253 C254 1.368 . S
C253 H276 0.929 . S
C254 C253 1.368 . S
C254 C255 1.386 . S
C254 H277 0.929 . S
C255 C254 1.386 . S
C255 C256 1.373 . S
C256 C255 1.373 . S
C256 C257 1.409 . S
C256 H278 0.931 . S
C257 C252 1.356 . S
C257 C256 1.409 . S
C257 H279 0.930 . S
C258 O268 1.270 . S
C258 O269 1.248 . S
C259 O270 1.267 . S
C259 O271 1.278 . S
O260 Pr240 2.562 . S
O260 C242 1.254 . S
O261 Pr240 2.490 . S
O261 C242 1.225 . S
O262 Pr240 2.695 . S
O262 Pr241 2.436 1_554 S
O262 C249 1.270 . S
O263 Pr240 2.512 . S
O263 C249 1.248 . S
O264 Pr241 2.438 1_554 S
O264 C250 1.267 . S
O265 Pr240 2.437 . S
O265 C250 1.278 . S
O266 Pr241 2.562 . S
O266 C251 1.254 . S
O267 Pr241 2.490 . S
O267 C251 1.225 . S
O268 Pr240 2.436 1_556 S
O268 Pr241 2.695 . S
O268 C258 1.270 . S
O269 Pr241 2.512 . S
O269 C258 1.248 . S
O270 Pr240 2.438 1_556 S
O270 C259 1.267 . S
O271 Pr241 2.437 . S
O271 C259 1.278 . S
H272 C244 0.929 . S
H273 C245 0.929 . S
H274 C247 0.931 . S
H275 C248 0.930 . S
H276 C253 0.929 . S
H277 C254 0.929 . S
H278 C256 0.931 . S
H279 C257 0.930 . S
Pr280 C282 2.880 . S
Pr280 O300 2.562 . S
Pr280 O301 2.490 . S
Pr280 O302 2.695 . S
Pr280 O303 2.512 . S
Pr280 O305 2.437 . S
Pr280 O308 2.436 . S
Pr280 O310 2.438 . S
Pr281 C291 2.880 . S
Pr281 O302 2.436 . S
Pr281 O304 2.438 . S
Pr281 O306 2.562 . S
Pr281 O307 2.490 . S
Pr281 O308 2.695 . S
Pr281 O309 2.512 . S
Pr281 O311 2.437 . S
C282 Pr280 2.880 . S
C282 C283 1.491 . S
C282 O300 1.254 . S
C282 O301 1.225 . S
C283 C282 1.491 . S
C283 C284 1.392 . S
C283 C288 1.356 . S
C284 C283 1.392 . S
C284 C285 1.368 . S
C284 H312 0.929 . S
C285 C284 1.368 . S
C285 C286 1.386 . S
C285 H313 0.929 . S
C286 C285 1.386 . S
C286 C287 1.373 . S
C287 C286 1.373 . S
C287 C288 1.409 . S
C287 H314 0.931 . S
C288 C283 1.356 . S
C288 C287 1.409 . S
C288 H315 0.930 . S
C289 O302 1.270 . S
C289 O303 1.248 . S
C290 O304 1.267 . S
C290 O305 1.278 . S
C291 Pr281 2.880 . S
C291 C292 1.491 . S
C291 O306 1.254 . S
C291 O307 1.225 . S
C292 C291 1.491 . S
C292 C293 1.392 . S
C292 C297 1.356 . S
C293 C292 1.392 . S
C293 C294 1.368 . S
C293 H316 0.929 . S
C294 C293 1.368 . S
C294 C295 1.386 . S
C294 H317 0.929 . S
C295 C294 1.386 . S
C295 C296 1.373 . S
C296 C295 1.373 . S
C296 C297 1.409 . S
C296 H318 0.931 . S
C297 C292 1.356 . S
C297 C296 1.409 . S
C297 H319 0.930 . S
C298 O308 1.270 . S
C298 O309 1.248 . S
C299 O310 1.267 . S
C299 O311 1.278 . S
O300 Pr280 2.562 . S
O300 C282 1.254 . S
O301 Pr280 2.490 . S
O301 C282 1.225 . S
O302 Pr280 2.695 . S
O302 Pr281 2.436 . S
O302 C289 1.270 . S
O303 Pr280 2.512 . S
O303 C289 1.248 . S
O304 Pr281 2.438 . S
O304 C290 1.267 . S
O305 Pr280 2.437 . S
O305 C290 1.278 . S
O306 Pr281 2.562 . S
O306 C291 1.254 . S
O307 Pr281 2.490 . S
O307 C291 1.225 . S
O308 Pr280 2.436 . S
O308 Pr281 2.695 . S
O308 C298 1.270 . S
O309 Pr281 2.512 . S
O309 C298 1.248 . S
O310 Pr280 2.438 . S
O310 C299 1.267 . S
O311 Pr281 2.437 . S
O311 C299 1.278 . S
H312 C284 0.929 . S
H313 C285 0.929 . S
H314 C287 0.931 . S
H315 C288 0.930 . S
H316 C293 0.929 . S
H317 C294 0.929 . S
H318 C296 0.931 . S
H319 C297 0.930 . S
Pr320 C322 2.880 . S
Pr320 O340 2.562 . S
Pr320 O341 2.490 . S
Pr320 O342 2.695 . S
Pr320 O343 2.512 . S
Pr320 O345 2.437 . S
Pr320 O348 2.436 . S
Pr320 O350 2.438 . S
Pr321 C331 2.880 . S
Pr321 O342 2.436 . S
Pr321 O344 2.438 . S
Pr321 O346 2.562 . S
Pr321 O347 2.490 . S
Pr321 O348 2.695 . S
Pr321 O349 2.512 . S
Pr321 O351 2.437 . S
C322 Pr320 2.880 . S
C322 C323 1.491 . S
C322 O340 1.254 . S
C322 O341 1.225 . S
C323 C322 1.491 . S
C323 C324 1.392 . S
C323 C328 1.356 . S
C324 C323 1.392 . S
C324 C325 1.368 . S
C324 H352 0.929 . S
C325 C324 1.368 . S
C325 C326 1.386 . S
C325 H353 0.929 . S
C326 C325 1.386 . S
C326 C327 1.373 . S
C327 C326 1.373 . S
C327 C328 1.409 . S
C327 H354 0.931 . S
C328 C323 1.356 . S
C328 C327 1.409 . S
C328 H355 0.930 . S
C329 O342 1.270 . S
C329 O343 1.248 . S
C330 O344 1.267 . S
C330 O345 1.278 . S
C331 Pr321 2.880 . S
C331 C332 1.491 . S
C331 O346 1.254 . S
C331 O347 1.225 . S
C332 C331 1.491 . S
C332 C333 1.392 . S
C332 C337 1.356 . S
C333 C332 1.392 . S
C333 C334 1.368 . S
C333 H356 0.929 . S
C334 C333 1.368 . S
C334 C335 1.386 . S
C334 H357 0.929 . S
C335 C334 1.386 . S
C335 C336 1.373 . S
C336 C335 1.373 . S
C336 C337 1.409 . S
C336 H358 0.931 . S
C337 C332 1.356 . S
C337 C336 1.409 . S
C337 H359 0.930 . S
C338 O348 1.270 . S
C338 O349 1.248 . S
C339 O350 1.267 . S
C339 O351 1.278 . S
O340 Pr320 2.562 . S
O340 C322 1.254 . S
O341 Pr320 2.490 . S
O341 C322 1.225 . S
O342 Pr320 2.695 . S
O342 Pr321 2.436 . S
O342 C329 1.270 . S
O343 Pr320 2.512 . S
O343 C329 1.248 . S
O344 Pr321 2.438 . S
O344 C330 1.267 . S
O345 Pr320 2.437 . S
O345 C330 1.278 . S
O346 Pr321 2.562 . S
O346 C331 1.254 . S
O347 Pr321 2.490 . S
O347 C331 1.225 . S
O348 Pr320 2.436 . S
O348 Pr321 2.695 . S
O348 C338 1.270 . S
O349 Pr321 2.512 . S
O349 C338 1.248 . S
O350 Pr320 2.438 . S
O350 C339 1.267 . S
O351 Pr321 2.437 . S
O351 C339 1.278 . S
H352 C324 0.929 . S
H353 C325 0.929 . S
H354 C327 0.931 . S
H355 C328 0.930 . S
H356 C333 0.929 . S
H357 C334 0.929 . S
H358 C336 0.931 . S
H359 C337 0.930 . S
Pr360 C362 2.880 . S
Pr360 O380 2.562 . S
Pr360 O381 2.490 . S
Pr360 O382 2.695 . S
Pr360 O383 2.512 . S
Pr360 O385 2.437 . S
Pr360 O388 2.436 1_545 S
Pr360 O390 2.438 1_545 S
Pr361 C371 2.880 . S
Pr361 O382 2.436 1_565 S
Pr361 O384 2.438 1_565 S
Pr361 O386 2.562 . S
Pr361 O387 2.490 . S
Pr361 O388 2.695 . S
Pr361 O389 2.512 . S
Pr361 O391 2.437 . S
C362 Pr360 2.880 . S
C362 C363 1.491 . S
C362 O380 1.254 . S
C362 O381 1.225 . S
C363 C362 1.491 . S
C363 C364 1.392 . S
C363 C368 1.356 . S
C364 C363 1.392 . S
C364 C365 1.368 . S
C364 H392 0.929 . S
C365 C364 1.368 . S
C365 C366 1.386 . S
C365 H393 0.929 . S
C366 C365 1.386 . S
C366 C367 1.373 . S
C367 C366 1.373 . S
C367 C368 1.409 . S
C367 H394 0.931 . S
C368 C363 1.356 . S
C368 C367 1.409 . S
C368 H395 0.930 . S
C369 O382 1.270 . S
C369 O383 1.248 . S
C370 O384 1.267 . S
C370 O385 1.278 . S
C371 Pr361 2.880 . S
C371 C372 1.491 . S
C371 O386 1.254 . S
C371 O387 1.225 . S
C372 C371 1.491 . S
C372 C373 1.392 . S
C372 C377 1.356 . S
C373 C372 1.392 . S
C373 C374 1.368 . S
C373 H396 0.929 . S
C374 C373 1.368 . S
C374 C375 1.386 . S
C374 H397 0.929 . S
C375 C374 1.386 . S
C375 C376 1.373 . S
C376 C375 1.373 . S
C376 C377 1.409 . S
C376 H398 0.931 . S
C377 C372 1.356 . S
C377 C376 1.409 . S
C377 H399 0.930 . S
C378 O388 1.270 . S
C378 O389 1.248 . S
C379 O390 1.267 . S
C379 O391 1.278 . S
O380 Pr360 2.562 . S
O380 C362 1.254 . S
O381 Pr360 2.490 . S
O381 C362 1.225 . S
O382 Pr360 2.695 . S
O382 Pr361 2.436 1_545 S
O382 C369 1.270 . S
O383 Pr360 2.512 . S
O383 C369 1.248 . S
O384 Pr361 2.438 1_545 S
O384 C370 1.267 . S
O385 Pr360 2.437 . S
O385 C370 1.278 . S
O386 Pr361 2.562 . S
O386 C371 1.254 . S
O387 Pr361 2.490 . S
O387 C371 1.225 . S
O388 Pr360 2.436 1_565 S
O388 Pr361 2.695 . S
O388 C378 1.270 . S
O389 Pr361 2.512 . S
O389 C378 1.248 . S
O390 Pr360 2.438 1_565 S
O390 C379 1.267 . S
O391 Pr361 2.437 . S
O391 C379 1.278 . S
H392 C364 0.929 . S
H393 C365 0.929 . S
H394 C367 0.931 . S
H395 C368 0.930 . S
H396 C373 0.929 . S
H397 C374 0.929 . S
H398 C376 0.931 . S
H399 C377 0.930 . S
Pr400 C402 2.880 . S
Pr400 O420 2.562 . S
Pr400 O421 2.490 . S
Pr400 O422 2.695 1_545 S
Pr400 O423 2.512 1_545 S
Pr400 O425 2.437 1_545 S
Pr400 O428 2.436 . S
Pr400 O430 2.438 . S
Pr401 C411 2.880 . S
Pr401 O422 2.436 . S
Pr401 O424 2.438 . S
Pr401 O426 2.562 . S
Pr401 O427 2.490 . S
Pr401 O428 2.695 1_565 S
Pr401 O429 2.512 1_565 S
Pr401 O431 2.437 1_565 S
C402 Pr400 2.880 . S
C402 C403 1.491 . S
C402 O420 1.254 . S
C402 O421 1.225 . S
C403 C402 1.491 . S
C403 C404 1.392 . S
C403 C408 1.356 . S
C404 C403 1.392 . S
C404 C405 1.368 . S
C404 H432 0.929 . S
C405 C404 1.368 . S
C405 C406 1.386 . S
C405 H433 0.929 . S
C406 C405 1.386 . S
C406 C407 1.373 . S
C407 C406 1.373 . S
C407 C408 1.409 . S
C407 H434 0.931 . S
C408 C403 1.356 . S
C408 C407 1.409 . S
C408 H435 0.930 . S
C409 O422 1.270 . S
C409 O423 1.248 . S
C410 O424 1.267 . S
C410 O425 1.278 . S
C411 Pr401 2.880 . S
C411 C412 1.491 . S
C411 O426 1.254 . S
C411 O427 1.225 . S
C412 C411 1.491 . S
C412 C413 1.392 . S
C412 C417 1.356 . S
C413 C412 1.392 . S
C413 C414 1.368 . S
C413 H436 0.929 . S
C414 C413 1.368 . S
C414 C415 1.386 . S
C414 H437 0.929 . S
C415 C414 1.386 . S
C415 C416 1.373 . S
C416 C415 1.373 . S
C416 C417 1.409 . S
C416 H438 0.931 . S
C417 C412 1.356 . S
C417 C416 1.409 . S
C417 H439 0.930 . S
C418 O428 1.270 . S
C418 O429 1.248 . S
C419 O430 1.267 . S
C419 O431 1.278 . S
O420 Pr400 2.562 . S
O420 C402 1.254 . S
O421 Pr400 2.490 . S
O421 C402 1.225 . S
O422 Pr400 2.695 1_565 S
O422 Pr401 2.436 . S
O422 C409 1.270 . S
O423 Pr400 2.512 1_565 S
O423 C409 1.248 . S
O424 Pr401 2.438 . S
O424 C410 1.267 . S
O425 Pr400 2.437 1_565 S
O425 C410 1.278 . S
O426 Pr401 2.562 . S
O426 C411 1.254 . S
O427 Pr401 2.490 . S
O427 C411 1.225 . S
O428 Pr400 2.436 . S
O428 Pr401 2.695 1_545 S
O428 C418 1.270 . S
O429 Pr401 2.512 1_545 S
O429 C418 1.248 . S
O430 Pr400 2.438 . S
O430 C419 1.267 . S
O431 Pr401 2.437 1_545 S
O431 C419 1.278 . S
H432 C404 0.929 . S
H433 C405 0.929 . S
H434 C407 0.931 . S
H435 C408 0.930 . S
H436 C413 0.929 . S
H437 C414 0.929 . S
H438 C416 0.931 . S
H439 C417 0.930 . S
Pr440 C442 2.880 . S
Pr440 O460 2.562 . S
Pr440 O461 2.490 . S
Pr440 O462 2.695 . S
Pr440 O463 2.512 . S
Pr440 O465 2.437 . S
Pr440 O468 2.436 . S
Pr440 O470 2.438 . S
Pr441 C451 2.880 . S
Pr441 O462 2.436 . S
Pr441 O464 2.438 . S
Pr441 O466 2.562 . S
Pr441 O467 2.490 . S
Pr441 O468 2.695 . S
Pr441 O469 2.512 . S
Pr441 O471 2.437 . S
C442 Pr440 2.880 . S
C442 C443 1.491 . S
C442 O460 1.254 . S
C442 O461 1.225 . S
C443 C442 1.491 . S
C443 C444 1.392 . S
C443 C448 1.356 . S
C444 C443 1.392 . S
C444 C445 1.368 . S
C444 H472 0.929 . S
C445 C444 1.368 . S
C445 C446 1.386 . S
C445 H473 0.929 . S
C446 C445 1.386 . S
C446 C447 1.373 . S
C447 C446 1.373 . S
C447 C448 1.409 . S
C447 H474 0.931 . S
C448 C443 1.356 . S
C448 C447 1.409 . S
C448 H475 0.930 . S
C449 O462 1.270 . S
C449 O463 1.248 . S
C450 O464 1.267 . S
C450 O465 1.278 . S
C451 Pr441 2.880 . S
C451 C452 1.491 . S
C451 O466 1.254 . S
C451 O467 1.225 . S
C452 C451 1.491 . S
C452 C453 1.392 . S
C452 C457 1.356 . S
C453 C452 1.392 . S
C453 C454 1.368 . S
C453 H476 0.929 . S
C454 C453 1.368 . S
C454 C455 1.386 . S
C454 H477 0.929 . S
C455 C454 1.386 . S
C455 C456 1.373 . S
C456 C455 1.373 . S
C456 C457 1.409 . S
C456 H478 0.931 . S
C457 C452 1.356 . S
C457 C456 1.409 . S
C457 H479 0.930 . S
C458 O468 1.270 . S
C458 O469 1.248 . S
C459 O470 1.267 . S
C459 O471 1.278 . S
O460 Pr440 2.562 . S
O460 C442 1.254 . S
O461 Pr440 2.490 . S
O461 C442 1.225 . S
O462 Pr440 2.695 . S
O462 Pr441 2.436 . S
O462 C449 1.270 . S
O463 Pr440 2.512 . S
O463 C449 1.248 . S
O464 Pr441 2.438 . S
O464 C450 1.267 . S
O465 Pr440 2.437 . S
O465 C450 1.278 . S
O466 Pr441 2.562 . S
O466 C451 1.254 . S
O467 Pr441 2.490 . S
O467 C451 1.225 . S
O468 Pr440 2.436 . S
O468 Pr441 2.695 . S
O468 C458 1.270 . S
O469 Pr441 2.512 . S
O469 C458 1.248 . S
O470 Pr440 2.438 . S
O470 C459 1.267 . S
O471 Pr441 2.437 . S
O471 C459 1.278 . S
H472 C444 0.929 . S
H473 C445 0.929 . S
H474 C447 0.931 . S
H475 C448 0.930 . S
H476 C453 0.929 . S
H477 C454 0.929 . S
H478 C456 0.931 . S
H479 C457 0.930 . S
C480 C481 1.387 . S
C480 H484 0.950 . S
C480 C489 1.390 . S
C481 C480 1.387 . S
C481 C483 1.387 . S
H482 C489 0.950 . S
C483 C481 1.387 . S
C483 C485 1.390 . S
C483 H487 0.950 . S
H484 C480 0.950 . S
C485 C483 1.390 . S
C485 C486 1.387 . S
C485 H488 0.950 . S
C486 C485 1.387 . S
C486 C489 1.387 . S
H487 C483 0.950 . S
H488 C485 0.950 . S
C489 C480 1.390 . S
C489 H482 0.950 . S
C489 C486 1.387 . S
C490 C491 1.387 . S
C490 H494 0.950 . S
C490 C499 1.390 . S
C491 C490 1.387 . S
C491 C493 1.387 . S
H492 C499 0.950 . S
C493 C491 1.387 . S
C493 C495 1.390 . S
C493 H497 0.950 . S
H494 C490 0.950 . S
C495 C493 1.390 . S
C495 C496 1.387 . S
C495 H498 0.950 . S
C496 C495 1.387 . S
C496 C499 1.387 . S
H497 C493 0.950 . S
H498 C495 0.950 . S
C499 C490 1.390 . S
C499 H492 0.950 . S
C499 C496 1.387 . S
C500 C501 1.387 . S
C500 H504 0.950 1_554 S
C500 C509 1.390 . S
C501 C500 1.387 . S
C501 C503 1.387 . S
H502 C509 0.950 . S
C503 C501 1.387 . S
C503 C505 1.390 . S
C503 H507 0.950 . S
H504 C500 0.950 1_556 S
C505 C503 1.390 . S
C505 C506 1.387 . S
C505 H508 0.950 . S
C506 C505 1.387 . S
C506 C509 1.387 . S
H507 C503 0.950 . S
H508 C505 0.950 . S
C509 C500 1.390 . S
C509 H502 0.950 . S
C509 C506 1.387 . S
C510 C511 1.387 . S
C510 H514 0.950 . S
C510 C519 1.390 . S
C511 C510 1.387 . S
C511 C513 1.387 . S
H512 C519 0.950 . S
C513 C511 1.387 . S
C513 C515 1.390 . S
C513 H517 0.950 . S
H514 C510 0.950 . S
C515 C513 1.390 . S
C515 C516 1.387 . S
C515 H518 0.950 . S
C516 C515 1.387 . S
C516 C519 1.387 . S
H517 C513 0.950 . S
H518 C515 0.950 . S
C519 C510 1.390 . S
C519 H512 0.950 . S
C519 C516 1.387 . S
C520 C521 1.387 . S
C520 H524 0.950 . S
C520 C529 1.390 . S
C521 C520 1.387 . S
C521 C523 1.387 . S
H522 C529 0.950 . S
C523 C521 1.387 . S
C523 C525 1.390 . S
C523 H527 0.950 . S
H524 C520 0.950 . S
C525 C523 1.390 . S
C525 C526 1.387 . S
C525 H528 0.950 . S
C526 C525 1.387 . S
C526 C529 1.387 . S
H527 C523 0.950 . S
H528 C525 0.950 . S
C529 C520 1.390 . S
C529 H522 0.950 . S
C529 C526 1.387 . S
C530 C531 1.387 . S
C530 H534 0.950 . S
C530 C539 1.390 . S
C531 C530 1.387 . S
C531 C533 1.387 . S
H532 C539 0.950 . S
C533 C531 1.387 . S
C533 C535 1.390 . S
C533 H537 0.950 . S
H534 C530 0.950 . S
C535 C533 1.390 . S
C535 C536 1.387 . S
C535 H538 0.950 . S
C536 C535 1.387 . S
C536 C539 1.387 . S
H537 C533 0.950 . S
H538 C535 0.950 . S
C539 C530 1.390 . S
C539 H532 0.950 . S
C539 C536 1.387 . S
C540 C541 1.387 . S
C540 H544 0.950 . S
C540 C549 1.390 . S
C541 C540 1.387 . S
C541 C543 1.387 . S
H542 C549 0.932 1_554 S
C543 C541 1.387 . S
C543 C545 1.390 . S
C543 H547 0.950 . S
H544 C540 0.950 . S
C545 C543 1.390 . S
C545 C546 1.387 . S
C545 H548 0.950 . S
C546 C545 1.387 . S
C546 C549 1.387 . S
H547 C543 0.950 . S
H548 C545 0.950 . S
C549 C540 1.390 . S
C549 H542 0.932 1_556 S
C549 C546 1.387 . S
C550 C551 1.387 . S
C550 H554 0.950 . S
C550 C559 1.390 . S
C551 C550 1.387 . S
C551 C553 1.387 . S
H552 C559 0.950 . S
C553 C551 1.387 . S
C553 C555 1.390 . S
C553 H557 0.950 . S
H554 C550 0.950 . S
C555 C553 1.390 . S
C555 C556 1.387 . S
C555 H558 0.950 . S
C556 C555 1.387 . S
C556 C559 1.387 . S
H557 C553 0.950 . S
H558 C555 0.950 . S
C559 C550 1.390 . S
C559 H552 0.950 . S
C559 C556 1.387 . S
C560 C561 1.387 . S
C560 H564 0.950 . S
C560 C569 1.390 . S
C561 C560 1.387 . S
C561 C563 1.387 . S
H562 C569 0.950 . S
C563 C561 1.387 . S
C563 C565 1.390 . S
C563 H567 0.950 . S
H564 C560 0.950 . S
C565 C563 1.390 . S
C565 C566 1.387 . S
C565 H568 0.950 . S
C566 C565 1.387 . S
C566 C569 1.387 . S
H567 C563 0.950 . S
H568 C565 0.950 . S
C569 C560 1.390 . S
C569 H562 0.950 . S
C569 C566 1.387 . S
C570 C571 1.387 . S
C570 H574 0.950 . S
C570 C579 1.390 . S
C571 C570 1.387 . S
C571 C573 1.387 . S
H572 C579 0.950 1_655 S
C573 C571 1.387 . S
C573 C575 1.390 . S
C573 H577 0.950 . S
H574 C570 0.950 . S
C575 C573 1.390 . S
C575 C576 1.387 . S
C575 H578 0.950 . S
C576 C575 1.387 . S
C576 C579 1.387 . S
H577 C573 0.950 . S
H578 C575 0.950 . S
C579 C570 1.390 . S
C579 H572 0.950 1_455 S
C579 C576 1.387 . S
C580 C581 1.387 . S
C580 H584 0.950 . S
C580 C589 1.390 . S
C581 C580 1.387 . S
C581 C583 1.387 . S
H582 C589 0.950 . S
C583 C581 1.387 . S
C583 C585 1.390 . S
C583 H587 0.950 . S
H584 C580 0.950 . S
C585 C583 1.390 . S
C585 C586 1.387 . S
C585 H588 0.950 . S
C586 C585 1.387 . S
C586 C589 1.387 . S
H587 C583 0.950 . S
H588 C585 0.950 . S
C589 C580 1.390 . S
C589 H582 0.950 . S
C589 C586 1.387 . S
C590 C591 1.387 . S
C590 H594 0.950 . S
C590 C599 1.390 . S
C591 C590 1.387 . S
C591 C593 1.387 . S
H592 C599 0.950 . S
C593 C591 1.387 . S
C593 C595 1.390 . S
C593 H597 0.950 . S
H594 C590 0.950 . S
C595 C593 1.390 . S
C595 C596 1.387 . S
C595 H598 0.950 . S
C596 C595 1.387 . S
C596 C599 1.387 . S
H597 C593 0.950 . S
H598 C595 0.950 . S
C599 C590 1.390 . S
C599 H592 0.950 . S
C599 C596 1.387 . S
C600 C601 1.387 . S
C600 H604 0.950 . S
C600 C609 1.390 . S
C601 C600 1.387 . S
C601 C603 1.387 . S
H602 C609 0.950 . S
C603 C601 1.387 . S
C603 C605 1.390 . S
C603 H607 0.950 . S
H604 C600 0.950 . S
C605 C603 1.390 . S
C605 C606 1.387 . S
C605 H608 0.950 . S
C606 C605 1.387 . S
C606 C609 1.387 . S
H607 C603 0.950 . S
H608 C605 0.950 . S
C609 C600 1.390 . S
C609 H602 0.950 . S
C609 C606 1.387 . S
C610 C611 1.387 . S
C610 H614 0.950 . S
C610 C619 1.390 . S
C611 C610 1.387 . S
C611 C613 1.387 . S
H612 C619 0.950 . S
C613 C611 1.387 . S
C613 C615 1.390 . S
C613 H617 0.950 . S
H614 C610 0.950 . S
C615 C613 1.390 . S
C615 C616 1.387 . S
C615 H618 0.950 1_565 S
C616 C615 1.387 . S
C616 C619 1.387 . S
H617 C613 0.950 . S
H618 C615 0.950 1_545 S
C619 C610 1.390 . S
C619 H612 0.950 . S
C619 C616 1.387 . S
C620 C621 1.387 . S
C620 H624 0.950 . S
C620 C629 1.390 . S
C621 C620 1.387 . S
C621 C623 1.387 . S
H622 C629 0.950 . S
C623 C621 1.387 . S
C623 C625 1.390 . S
C623 H627 0.950 . S
H624 C620 0.950 . S
C625 C623 1.390 . S
C625 C626 1.387 . S
C625 H628 0.950 . S
C626 C625 1.387 . S
C626 C629 1.387 . S
H627 C623 0.950 . S
H628 C625 0.950 . S
C629 C620 1.390 . S
C629 H622 0.950 . S
C629 C626 1.387 . S
C630 C631 1.387 1_556 S
C630 H634 0.941 1_556 S
C630 C639 1.390 . S
C631 C630 1.387 1_554 S
C631 C633 1.387 1_554 S
H632 C639 0.950 . S
C633 C631 1.387 1_556 S
C633 C635 1.390 . S
C633 H637 0.950 1_556 S
H634 C630 0.941 1_554 S
C635 C633 1.390 . S
C635 C636 1.387 . S
C635 H638 0.950 . S
C636 C635 1.387 . S
C636 C639 1.387 . S
H637 C633 0.950 1_554 S
H638 C635 0.950 . S
C639 C630 1.390 . S
C639 H632 0.950 . S
C639 C636 1.387 . S
C640 C641 1.387 . S
C640 H644 0.950 . S
C640 C649 1.390 . S
C641 C640 1.387 . S
C641 C643 1.387 . S
H642 C649 0.950 . S
C643 C641 1.387 . S
C643 C645 1.390 . S
C643 H647 0.950 . S
H644 C640 0.950 . S
C645 C643 1.390 . S
C645 C646 1.387 . S
C645 H648 0.950 . S
C646 C645 1.387 . S
C646 C649 1.387 . S
H647 C643 0.950 . S
H648 C645 0.950 . S
C649 C640 1.390 . S
C649 H642 0.950 . S
C649 C646 1.387 . S
C650 C651 1.405 . S
C650 H654 0.950 . S
C650 C659 1.390 . S
C651 C650 1.405 . S
C651 C653 1.395 . S
H652 C659 0.950 . S
C653 C651 1.395 . S
C653 C655 1.390 . S
C653 H657 0.950 1_556 S
H654 C650 0.950 . S
C655 C653 1.390 . S
C655 C656 1.387 . S
C655 H658 0.950 . S
C656 C655 1.387 . S
C656 C659 1.387 . S
H657 C653 0.950 1_554 S
H658 C655 0.950 . S
C659 C650 1.390 . S
C659 H652 0.950 . S
C659 C656 1.387 . S
C660 C661 1.387 . S
C660 H664 0.950 . S
C660 C669 1.390 . S
C661 C660 1.387 . S
C661 C663 1.387 . S
H662 C669 0.950 . S
C663 C661 1.387 . S
C663 C665 1.390 . S
C663 H667 0.950 . S
H664 C660 0.950 . S
C665 C663 1.390 . S
C665 C666 1.387 . S
C665 H668 0.950 . S
C666 C665 1.387 . S
C666 C669 1.387 . S
H667 C663 0.950 . S
H668 C665 0.950 . S
C669 C660 1.390 . S
C669 H662 0.950 . S
C669 C666 1.387 . S
C670 C671 1.387 . S
C670 H674 0.950 . S
C670 C679 1.390 . S
C671 C670 1.387 . S
C671 C673 1.387 . S
H672 C679 0.950 . S
C673 C671 1.387 . S
C673 C675 1.390 . S
C673 H677 0.950 . S
H674 C670 0.950 . S
C675 C673 1.390 . S
C675 C676 1.387 . S
C675 H678 0.950 . S
C676 C675 1.387 . S
C676 C679 1.387 . S
H677 C673 0.950 . S
H678 C675 0.950 . S
C679 C670 1.390 . S
C679 H672 0.950 . S
C679 C676 1.387 . S
C680 C681 1.387 . S
C680 H684 0.950 . S
C680 C689 1.390 . S
C681 C680 1.387 . S
C681 C683 1.387 . S
H682 C689 0.950 . S
C683 C681 1.387 . S
C683 C685 1.390 . S
C683 H687 0.950 . S
H684 C680 0.950 . S
C685 C683 1.390 . S
C685 C686 1.387 . S
C685 H688 0.950 . S
C686 C685 1.387 . S
C686 C689 1.387 . S
H687 C683 0.950 . S
H688 C685 0.950 . S
C689 C680 1.390 . S
C689 H682 0.950 . S
C689 C686 1.387 . S
C690 C691 1.387 1_565 S
C690 H694 0.950 1_565 S
C690 C699 1.390 . S
C691 C690 1.387 1_545 S
C691 C693 1.387 . S
H692 C699 0.950 . S
C693 C691 1.387 . S
C693 C695 1.390 1_545 S
C693 H697 0.950 . S
H694 C690 0.950 1_545 S
C695 C693 1.390 1_565 S
C695 C696 1.387 . S
C695 H698 0.950 . S
C696 C695 1.387 . S
C696 C699 1.387 . S
H697 C693 0.950 . S
H698 C695 0.950 . S
C699 C690 1.390 . S
C699 H692 0.950 . S
C699 C696 1.387 . S
C700 C701 1.387 . S
C700 H704 0.950 . S
C700 C709 1.390 . S
C701 C700 1.387 . S
C701 C703 1.387 . S
H702 C709 0.950 . S
C703 C701 1.387 . S
C703 C705 1.390 . S
C703 H707 0.950 . S
H704 C700 0.950 . S
C705 C703 1.390 . S
C705 C706 1.387 . S
C705 H708 0.950 . S
C706 C705 1.387 . S
C706 C709 1.387 . S
H707 C703 0.950 . S
H708 C705 0.950 . S
C709 C700 1.390 . S
C709 H702 0.950 . S
C709 C706 1.387 . S
C710 C711 1.387 . S
C710 H714 0.950 . S
C710 C719 1.390 1_545 S
C711 C710 1.387 . S
C711 C713 1.387 1_545 S
H712 C719 0.950 . S
C713 C711 1.387 1_565 S
C713 C715 1.390 . S
C713 H717 0.950 1_565 S
H714 C710 0.950 . S
C715 C713 1.390 . S
C715 C716 1.387 . S
C715 H718 0.950 . S
C716 C715 1.387 . S
C716 C719 1.387 . S
H717 C713 0.950 1_545 S
H718 C715 0.950 . S
C719 C710 1.390 1_565 S
C719 H712 0.950 . S
C719 C716 1.387 . S
C720 C721 1.387 . S
C720 H724 0.950 . S
C720 C729 1.390 . S
C721 C720 1.387 . S
C721 C723 1.387 . S
H722 C729 0.950 . S
C723 C721 1.387 . S
C723 C725 1.390 . S
C723 H727 0.950 . S
H724 C720 0.950 . S
C725 C723 1.390 . S
C725 C726 1.387 . S
C725 H728 0.950 . S
C726 C725 1.387 . S
C726 C729 1.387 . S
H727 C723 0.950 . S
H728 C725 0.950 . S
C729 C720 1.390 . S
C729 H722 0.950 . S
C729 C726 1.387 . S
C730 C731 1.387 . S
C730 H734 0.950 . S
C730 C739 1.390 . S
C731 C730 1.387 . S
C731 C733 1.387 . S
H732 C739 0.950 . S
C733 C731 1.387 . S
C733 C735 1.390 . S
C733 H737 0.950 . S
H734 C730 0.950 . S
C735 C733 1.390 . S
C735 C736 1.387 . S
C735 H738 0.950 . S
C736 C735 1.387 . S
C736 C739 1.387 . S
H737 C733 0.950 . S
H738 C735 0.950 . S
C739 C730 1.390 . S
C739 H732 0.950 . S
C739 C736 1.387 . S
C740 C741 1.387 . S
C740 H744 0.950 . S
C740 C749 1.390 . S
C741 C740 1.387 . S
C741 C743 1.387 . S
H742 C749 0.950 . S
C743 C741 1.387 . S
C743 C745 1.390 . S
C743 H747 0.950 . S
H744 C740 0.950 . S
C745 C743 1.390 . S
C745 C746 1.387 . S
C745 H748 0.950 . S
C746 C745 1.387 . S
C746 C749 1.387 . S
H747 C743 0.950 . S
H748 C745 0.950 . S
C749 C740 1.390 . S
C749 H742 0.950 . S
C749 C746 1.387 . S
C750 C751 1.387 . S
C750 H754 0.950 . S
C750 C759 1.390 . S
C751 C750 1.387 . S
C751 C753 1.387 . S
H752 C759 0.950 . S
C753 C751 1.387 . S
C753 C755 1.390 . S
C753 H757 0.950 . S
H754 C750 0.950 . S
C755 C753 1.390 . S
C755 C756 1.387 . S
C755 H758 0.950 . S
C756 C755 1.387 . S
C756 C759 1.387 . S
H757 C753 0.950 . S
H758 C755 0.950 . S
C759 C750 1.390 . S
C759 H752 0.950 . S
C759 C756 1.387 . S
C760 C761 1.387 . S
C760 H764 0.950 . S
C760 C769 1.390 . S
C761 C760 1.387 . S
C761 C763 1.387 . S
H762 C769 0.950 . S
C763 C761 1.387 . S
C763 C765 1.390 . S
C763 H767 0.950 . S
H764 C760 0.950 . S
C765 C763 1.390 . S
C765 C766 1.387 . S
C765 H768 0.950 . S
C766 C765 1.387 . S
C766 C769 1.387 . S
H767 C763 0.950 . S
H768 C765 0.950 . S
C769 C760 1.390 . S
C769 H762 0.950 . S
C769 C766 1.387 . S
C770 C771 1.387 . S
C770 H774 0.950 . S
C770 C779 1.390 . S
C771 C770 1.387 . S
C771 C773 1.387 . S
H772 C779 0.950 . S
C773 C771 1.387 . S
C773 C775 1.390 . S
C773 H777 0.950 . S
H774 C770 0.950 . S
C775 C773 1.390 . S
C775 C776 1.387 . S
C775 H778 0.950 . S
C776 C775 1.387 . S
C776 C779 1.387 . S
H777 C773 0.950 . S
H778 C775 0.950 . S
C779 C770 1.390 . S
C779 H772 0.950 . S
C779 C776 1.387 . S
C780 C781 1.387 1_655 S
C780 H784 0.950 1_655 S
C780 C789 1.390 . S
C781 C780 1.387 1_455 S
C781 C783 1.387 . S
H782 C789 0.950 . S
C783 C781 1.387 . S
C783 C785 1.390 1_455 S
C783 H787 0.950 . S
H784 C780 0.950 1_455 S
C785 C783 1.390 1_655 S
C785 C786 1.387 . S
C785 H788 0.950 . S
C786 C785 1.387 . S
C786 C789 1.387 . S
H787 C783 0.950 . S
H788 C785 0.950 . S
C789 C780 1.390 . S
C789 H782 0.950 . S
C789 C786 1.387 . S
C790 C791 1.387 . S
C790 H794 0.950 . S
C790 C799 1.390 . S
C791 C790 1.387 . S
C791 C793 1.387 . S
H792 C799 0.950 . S
C793 C791 1.387 . S
C793 C795 1.390 . S
C793 H797 0.950 . S
H794 C790 0.950 . S
C795 C793 1.390 . S
C795 C796 1.387 . S
C795 H798 0.950 . S
C796 C795 1.387 . S
C796 C799 1.387 . S
H797 C793 0.950 . S
H798 C795 0.950 . S
C799 C790 1.390 . S
C799 H792 0.950 . S
C799 C796 1.387 . S
C800 C801 1.387 . S
C800 H804 0.950 . S
C800 C809 1.390 . S
C801 C800 1.387 . S
C801 C803 1.387 . S
H802 C809 0.950 . S
C803 C801 1.387 . S
C803 C805 1.390 . S
C803 H807 0.950 . S
H804 C800 0.950 . S
C805 C803 1.390 . S
C805 C806 1.387 . S
C805 H808 0.950 . S
C806 C805 1.387 . S
C806 C809 1.387 . S
H807 C803 0.950 . S
H808 C805 0.950 . S
C809 C800 1.390 . S
C809 H802 0.950 . S
C809 C806 1.387 . S
C810 C811 1.387 . S
C810 H814 0.950 . S
C810 C819 1.390 . S
C811 C810 1.387 . S
C811 C813 1.387 . S
H812 C819 0.950 . S
C813 C811 1.387 . S
C813 C815 1.390 . S
C813 H817 0.950 . S
H814 C810 0.950 . S
C815 C813 1.390 . S
C815 C816 1.387 . S
C815 H818 0.950 . S
C816 C815 1.387 . S
C816 C819 1.387 . S
H817 C813 0.950 . S
H818 C815 0.950 . S
C819 C810 1.390 . S
C819 H812 0.950 . S
C819 C816 1.387 . S
C820 C821 1.387 . S
C820 H824 0.950 . S
C820 C829 1.390 . S
C821 C820 1.387 . S
C821 C823 1.387 . S
H822 C829 0.950 . S
C823 C821 1.387 . S
C823 C825 1.390 . S
C823 H827 0.950 . S
H824 C820 0.950 . S
C825 C823 1.390 . S
C825 C826 1.387 . S
C825 H828 0.950 . S
C826 C825 1.387 . S
C826 C829 1.387 . S
H827 C823 0.950 . S
H828 C825 0.950 . S
C829 C820 1.390 . S
C829 H822 0.950 . S
C829 C826 1.387 . S
C830 C831 1.387 . S
C830 H834 0.950 . S
C830 C839 1.390 1_655 S
C831 C830 1.387 . S
C831 C833 1.387 1_655 S
H832 C839 0.950 . S
C833 C831 1.387 1_455 S
C833 C835 1.390 . S
C833 H837 0.950 1_455 S
H834 C830 0.950 . S
C835 C833 1.390 . S
C835 C836 1.387 . S
C835 H838 0.950 . S
C836 C835 1.387 . S
C836 C839 1.387 . S
H837 C833 0.950 1_655 S
H838 C835 0.950 . S
C839 C830 1.390 1_455 S
C839 H832 0.950 . S
C839 C836 1.387 . S
C481 C19 1.459 . S
C486 C459 1.460 . S
C491 C378 2.269 . S
C496 C58 2.278 . S
C501 C98 1.618 . S
C506 C338 1.627 . S
C511 C138 1.860 . S
C516 C419 1.732 . S
C521 C178 2.118 . S
C526 C418 2.112 . S
C531 C219 1.672 . S
C536 C458 1.841 . S
C541 C379 1.870 . S
C546 C258 1.957 . S
C551 C299 1.374 . S
C556 C339 1.394 . S
C561 C139 1.527 . S
C566 C179 1.506 . S
C571 C18 2.080 . S
C576 C218 2.085 . S
C581 C59 1.908 . S
C586 C259 1.928 . S
C591 C298 1.969 . S
C596 C99 1.836 . S
C601 C15 2.137 . S
C606 C329 2.091 . S
C611 C46 1.501 . S
C616 C410 1.470 . S
C621 C450 1.793 . S
C626 C86 1.836 . S
C631 C126 1.693 . S
C636 C369 1.565 . S
C641 C166 1.413 . S
C646 C370 1.386 . S
C651 C330 2.790 1_556 S
C656 C215 2.672 . S
C661 C409 1.293 . S
C666 C246 1.362 . S
C671 C449 1.942 . S
C676 C295 2.000 . S
C681 C9 2.055 . S
C686 C135 2.095 . S
C691 C6 1.556 . S
C696 C50 1.513 . S
C701 C55 2.147 . S
C706 C90 2.264 . S
C711 C130 2.307 . S
C716 C95 2.212 . S
C721 C206 1.738 . S
C726 C170 1.697 . S
C731 C209 1.517 . S
C736 C255 1.581 . S
C741 C250 1.506 . S
C746 C286 1.519 . S
C751 C175 2.243 . S
C756 C289 2.171 . S
C761 C335 2.127 . S
C766 C129 2.092 . S
C771 C210 1.642 . S
C776 C366 1.663 . S
C781 C326 1.330 . S
C786 C249 1.233 . S
C791 C415 1.648 . S
C796 C290 1.739 . S
C801 C169 1.892 . S
C806 C455 1.940 . S
C811 C446 0.887 . S
C816 C49 0.866 . S
C821 C89 1.987 . S
C826 C375 2.048 . S
C831 C406 1.646 . S
C836 C10 1.615 . S
