# Generated by pormake.
# Topology svz, (7)-cn, num edge types: 1
# Building blocks:
#     Node 0, Type 0, BuildingBlock: NUHQUE_clean_sbu_2, # of connection points: 7
#     Node 1, Type 0, BuildingBlock: NUHQUE_clean_sbu_2, # of connection points: 7
#     Node 2, Type 0, BuildingBlock: NUHQUE_clean_sbu_2, # of connection points: 7
#     Node 3, Type 0, BuildingBlock: NUHQUE_clean_sbu_2, # of connection points: 7
#     Node 4, Type 0, BuildingBlock: NUHQUE_clean_sbu_2, # of connection points: 7
#     Node 5, Type 0, BuildingBlock: NUHQUE_clean_sbu_2, # of connection points: 7
#     Node 6, Type 0, BuildingBlock: NUHQUE_clean_sbu_2, # of connection points: 7
#     Node 7, Type 0, BuildingBlock: NUHQUE_clean_sbu_2, # of connection points: 7
#     Node 8, Type 0, BuildingBlock: NUHQUE_clean_sbu_2, # of connection points: 7
#     Node 9, Type 0, BuildingBlock: NUHQUE_clean_sbu_2, # of connection points: 7
#     Node 10, Type 0, BuildingBlock: NUHQUE_clean_sbu_2, # of connection points: 7
#     Node 11, Type 0, BuildingBlock: NUHQUE_clean_sbu_2, # of connection points: 7
#     Node 12, Type 0, BuildingBlock: NUHQUE_clean_sbu_2, # of connection points: 7
#     Node 13, Type 0, BuildingBlock: NUHQUE_clean_sbu_2, # of connection points: 7
#     Node 14, Type 0, BuildingBlock: NUHQUE_clean_sbu_2, # of connection points: 7
#     Node 15, Type 0, BuildingBlock: NUHQUE_clean_sbu_2, # of connection points: 7
#     Node 16, Type 0, BuildingBlock: NUHQUE_clean_sbu_2, # of connection points: 7
#     Node 17, Type 0, BuildingBlock: NUHQUE_clean_sbu_2, # of connection points: 7
#     Node 18, Type 0, BuildingBlock: NUHQUE_clean_sbu_2, # of connection points: 7
#     Node 19, Type 0, BuildingBlock: NUHQUE_clean_sbu_2, # of connection points: 7
#     Node 20, Type 0, BuildingBlock: NUHQUE_clean_sbu_2, # of connection points: 7
#     Node 21, Type 0, BuildingBlock: NUHQUE_clean_sbu_2, # of connection points: 7
#     Node 22, Type 0, BuildingBlock: NUHQUE_clean_sbu_2, # of connection points: 7
#     Node 23, Type 0, BuildingBlock: NUHQUE_clean_sbu_2, # of connection points: 7
#     Node 24, Type 0, BuildingBlock: NUHQUE_clean_sbu_2, # of connection points: 7
#     Node 25, Type 0, BuildingBlock: NUHQUE_clean_sbu_2, # of connection points: 7
#     Node 26, Type 0, BuildingBlock: NUHQUE_clean_sbu_2, # of connection points: 7
#     Node 27, Type 0, BuildingBlock: NUHQUE_clean_sbu_2, # of connection points: 7
#     Node 28, Type 0, BuildingBlock: NUHQUE_clean_sbu_2, # of connection points: 7
#     Node 29, Type 0, BuildingBlock: NUHQUE_clean_sbu_2, # of connection points: 7
#     Node 30, Type 0, BuildingBlock: NUHQUE_clean_sbu_2, # of connection points: 7
#     Node 31, Type 0, BuildingBlock: NUHQUE_clean_sbu_2, # of connection points: 7
#     Node 32, Type 0, BuildingBlock: NUHQUE_clean_sbu_2, # of connection points: 7
#     Node 33, Type 0, BuildingBlock: NUHQUE_clean_sbu_2, # of connection points: 7
#     Node 34, Type 0, BuildingBlock: NUHQUE_clean_sbu_2, # of connection points: 7
#     Node 35, Type 0, BuildingBlock: NUHQUE_clean_sbu_2, # of connection points: 7
#     Node 36, Type 0, BuildingBlock: NUHQUE_clean_sbu_2, # of connection points: 7
#     Node 37, Type 0, BuildingBlock: NUHQUE_clean_sbu_2, # of connection points: 7
#     Node 38, Type 0, BuildingBlock: NUHQUE_clean_sbu_2, # of connection points: 7
#     Node 39, Type 0, BuildingBlock: NUHQUE_clean_sbu_2, # of connection points: 7
#     Node 40, Type 0, BuildingBlock: NUHQUE_clean_sbu_2, # of connection points: 7
#     Node 41, Type 0, BuildingBlock: NUHQUE_clean_sbu_2, # of connection points: 7
#     Node 42, Type 0, BuildingBlock: NUHQUE_clean_sbu_2, # of connection points: 7
#     Node 43, Type 0, BuildingBlock: NUHQUE_clean_sbu_2, # of connection points: 7
#     Node 44, Type 0, BuildingBlock: NUHQUE_clean_sbu_2, # of connection points: 7
#     Node 45, Type 0, BuildingBlock: NUHQUE_clean_sbu_2, # of connection points: 7
#     Node 46, Type 0, BuildingBlock: NUHQUE_clean_sbu_2, # of connection points: 7
#     Node 47, Type 0, BuildingBlock: NUHQUE_clean_sbu_2, # of connection points: 7
#     Edge 48, Type (0, 0), BuildingBlock: XIVTED_clean_linker_0, # of connection points: 2
#     Edge 49, Type (0, 0), BuildingBlock: XIVTED_clean_linker_0, # of connection points: 2
#     Edge 50, Type (0, 0), BuildingBlock: XIVTED_clean_linker_0, # of connection points: 2
#     Edge 51, Type (0, 0), BuildingBlock: XIVTED_clean_linker_0, # of connection points: 2
#     Edge 52, Type (0, 0), BuildingBlock: XIVTED_clean_linker_0, # of connection points: 2
#     Edge 53, Type (0, 0), BuildingBlock: XIVTED_clean_linker_0, # of connection points: 2
#     Edge 54, Type (0, 0), BuildingBlock: XIVTED_clean_linker_0, # of connection points: 2
#     Edge 55, Type (0, 0), BuildingBlock: XIVTED_clean_linker_0, # of connection points: 2
#     Edge 56, Type (0, 0), BuildingBlock: XIVTED_clean_linker_0, # of connection points: 2
#     Edge 57, Type (0, 0), BuildingBlock: XIVTED_clean_linker_0, # of connection points: 2
#     Edge 58, Type (0, 0), BuildingBlock: XIVTED_clean_linker_0, # of connection points: 2
#     Edge 59, Type (0, 0), BuildingBlock: XIVTED_clean_linker_0, # of connection points: 2
#     Edge 60, Type (0, 0), BuildingBlock: XIVTED_clean_linker_0, # of connection points: 2
#     Edge 61, Type (0, 0), BuildingBlock: XIVTED_clean_linker_0, # of connection points: 2
#     Edge 62, Type (0, 0), BuildingBlock: XIVTED_clean_linker_0, # of connection points: 2
#     Edge 63, Type (0, 0), BuildingBlock: XIVTED_clean_linker_0, # of connection points: 2
#     Edge 64, Type (0, 0), BuildingBlock: XIVTED_clean_linker_0, # of connection points: 2
#     Edge 65, Type (0, 0), BuildingBlock: XIVTED_clean_linker_0, # of connection points: 2
#     Edge 66, Type (0, 0), BuildingBlock: XIVTED_clean_linker_0, # of connection points: 2
#     Edge 67, Type (0, 0), BuildingBlock: XIVTED_clean_linker_0, # of connection points: 2
#     Edge 68, Type (0, 0), BuildingBlock: XIVTED_clean_linker_0, # of connection points: 2
#     Edge 69, Type (0, 0), BuildingBlock: XIVTED_clean_linker_0, # of connection points: 2
#     Edge 70, Type (0, 0), BuildingBlock: XIVTED_clean_linker_0, # of connection points: 2
#     Edge 71, Type (0, 0), BuildingBlock: XIVTED_clean_linker_0, # of connection points: 2
#     Edge 72, Type (0, 0), BuildingBlock: XIVTED_clean_linker_0, # of connection points: 2
#     Edge 73, Type (0, 0), BuildingBlock: XIVTED_clean_linker_0, # of connection points: 2
#     Edge 74, Type (0, 0), BuildingBlock: XIVTED_clean_linker_0, # of connection points: 2
#     Edge 75, Type (0, 0), BuildingBlock: XIVTED_clean_linker_0, # of connection points: 2
#     Edge 76, Type (0, 0), BuildingBlock: XIVTED_clean_linker_0, # of connection points: 2
#     Edge 77, Type (0, 0), BuildingBlock: XIVTED_clean_linker_0, # of connection points: 2
#     Edge 78, Type (0, 0), BuildingBlock: XIVTED_clean_linker_0, # of connection points: 2
#     Edge 79, Type (0, 0), BuildingBlock: XIVTED_clean_linker_0, # of connection points: 2
#     Edge 80, Type (0, 0), BuildingBlock: XIVTED_clean_linker_0, # of connection points: 2
#     Edge 81, Type (0, 0), BuildingBlock: XIVTED_clean_linker_0, # of connection points: 2
#     Edge 82, Type (0, 0), BuildingBlock: XIVTED_clean_linker_0, # of connection points: 2
#     Edge 83, Type (0, 0), BuildingBlock: XIVTED_clean_linker_0, # of connection points: 2
#     Edge 84, Type (0, 0), BuildingBlock: XIVTED_clean_linker_0, # of connection points: 2
#     Edge 85, Type (0, 0), BuildingBlock: XIVTED_clean_linker_0, # of connection points: 2
#     Edge 86, Type (0, 0), BuildingBlock: XIVTED_clean_linker_0, # of connection points: 2
#     Edge 87, Type (0, 0), BuildingBlock: XIVTED_clean_linker_0, # of connection points: 2
#     Edge 88, Type (0, 0), BuildingBlock: XIVTED_clean_linker_0, # of connection points: 2
#     Edge 89, Type (0, 0), BuildingBlock: XIVTED_clean_linker_0, # of connection points: 2
#     Edge 90, Type (0, 0), BuildingBlock: XIVTED_clean_linker_0, # of connection points: 2
#     Edge 91, Type (0, 0), BuildingBlock: XIVTED_clean_linker_0, # of connection points: 2
#     Edge 92, Type (0, 0), BuildingBlock: XIVTED_clean_linker_0, # of connection points: 2
#     Edge 93, Type (0, 0), BuildingBlock: XIVTED_clean_linker_0, # of connection points: 2
#     Edge 94, Type (0, 0), BuildingBlock: XIVTED_clean_linker_0, # of connection points: 2
#     Edge 95, Type (0, 0), BuildingBlock: XIVTED_clean_linker_0, # of connection points: 2
#     Edge 96, Type (0, 0), BuildingBlock: XIVTED_clean_linker_0, # of connection points: 2
#     Edge 97, Type (0, 0), BuildingBlock: XIVTED_clean_linker_0, # of connection points: 2
#     Edge 98, Type (0, 0), BuildingBlock: XIVTED_clean_linker_0, # of connection points: 2
#     Edge 99, Type (0, 0), BuildingBlock: XIVTED_clean_linker_0, # of connection points: 2
#     Edge 100, Type (0, 0), BuildingBlock: XIVTED_clean_linker_0, # of connection points: 2
#     Edge 101, Type (0, 0), BuildingBlock: XIVTED_clean_linker_0, # of connection points: 2
#     Edge 102, Type (0, 0), BuildingBlock: XIVTED_clean_linker_0, # of connection points: 2
#     Edge 103, Type (0, 0), BuildingBlock: XIVTED_clean_linker_0, # of connection points: 2
#     Edge 104, Type (0, 0), BuildingBlock: XIVTED_clean_linker_0, # of connection points: 2
#     Edge 105, Type (0, 0), BuildingBlock: XIVTED_clean_linker_0, # of connection points: 2
#     Edge 106, Type (0, 0), BuildingBlock: XIVTED_clean_linker_0, # of connection points: 2
#     Edge 107, Type (0, 0), BuildingBlock: XIVTED_clean_linker_0, # of connection points: 2
#     Edge 108, Type (0, 0), BuildingBlock: XIVTED_clean_linker_0, # of connection points: 2
#     Edge 109, Type (0, 0), BuildingBlock: XIVTED_clean_linker_0, # of connection points: 2
#     Edge 110, Type (0, 0), BuildingBlock: XIVTED_clean_linker_0, # of connection points: 2
#     Edge 111, Type (0, 0), BuildingBlock: XIVTED_clean_linker_0, # of connection points: 2
#     Edge 112, Type (0, 0), BuildingBlock: XIVTED_clean_linker_0, # of connection points: 2
#     Edge 113, Type (0, 0), BuildingBlock: XIVTED_clean_linker_0, # of connection points: 2
#     Edge 114, Type (0, 0), BuildingBlock: XIVTED_clean_linker_0, # of connection points: 2
#     Edge 115, Type (0, 0), BuildingBlock: XIVTED_clean_linker_0, # of connection points: 2
#     Edge 116, Type (0, 0), BuildingBlock: XIVTED_clean_linker_0, # of connection points: 2
#     Edge 117, Type (0, 0), BuildingBlock: XIVTED_clean_linker_0, # of connection points: 2
#     Edge 118, Type (0, 0), BuildingBlock: XIVTED_clean_linker_0, # of connection points: 2
#     Edge 119, Type (0, 0), BuildingBlock: XIVTED_clean_linker_0, # of connection points: 2
#     Edge 120, Type (0, 0), BuildingBlock: XIVTED_clean_linker_0, # of connection points: 2
#     Edge 121, Type (0, 0), BuildingBlock: XIVTED_clean_linker_0, # of connection points: 2
#     Edge 122, Type (0, 0), BuildingBlock: XIVTED_clean_linker_0, # of connection points: 2
#     Edge 123, Type (0, 0), BuildingBlock: XIVTED_clean_linker_0, # of connection points: 2
#     Edge 124, Type (0, 0), BuildingBlock: XIVTED_clean_linker_0, # of connection points: 2
#     Edge 125, Type (0, 0), BuildingBlock: XIVTED_clean_linker_0, # of connection points: 2
#     Edge 126, Type (0, 0), BuildingBlock: XIVTED_clean_linker_0, # of connection points: 2
#     Edge 127, Type (0, 0), BuildingBlock: XIVTED_clean_linker_0, # of connection points: 2
#     Edge 128, Type (0, 0), BuildingBlock: XIVTED_clean_linker_0, # of connection points: 2
#     Edge 129, Type (0, 0), BuildingBlock: XIVTED_clean_linker_0, # of connection points: 2
#     Edge 130, Type (0, 0), BuildingBlock: XIVTED_clean_linker_0, # of connection points: 2
#     Edge 131, Type (0, 0), BuildingBlock: XIVTED_clean_linker_0, # of connection points: 2
#     Edge 132, Type (0, 0), BuildingBlock: XIVTED_clean_linker_0, # of connection points: 2
#     Edge 133, Type (0, 0), BuildingBlock: XIVTED_clean_linker_0, # of connection points: 2
#     Edge 134, Type (0, 0), BuildingBlock: XIVTED_clean_linker_0, # of connection points: 2
#     Edge 135, Type (0, 0), BuildingBlock: XIVTED_clean_linker_0, # of connection points: 2
#     Edge 136, Type (0, 0), BuildingBlock: XIVTED_clean_linker_0, # of connection points: 2
#     Edge 137, Type (0, 0), BuildingBlock: XIVTED_clean_linker_0, # of connection points: 2
#     Edge 138, Type (0, 0), BuildingBlock: XIVTED_clean_linker_0, # of connection points: 2
#     Edge 139, Type (0, 0), BuildingBlock: XIVTED_clean_linker_0, # of connection points: 2
#     Edge 140, Type (0, 0), BuildingBlock: XIVTED_clean_linker_0, # of connection points: 2
#     Edge 141, Type (0, 0), BuildingBlock: XIVTED_clean_linker_0, # of connection points: 2
#     Edge 142, Type (0, 0), BuildingBlock: XIVTED_clean_linker_0, # of connection points: 2
#     Edge 143, Type (0, 0), BuildingBlock: XIVTED_clean_linker_0, # of connection points: 2
#     Edge 144, Type (0, 0), BuildingBlock: XIVTED_clean_linker_0, # of connection points: 2
#     Edge 145, Type (0, 0), BuildingBlock: XIVTED_clean_linker_0, # of connection points: 2
#     Edge 146, Type (0, 0), BuildingBlock: XIVTED_clean_linker_0, # of connection points: 2
#     Edge 147, Type (0, 0), BuildingBlock: XIVTED_clean_linker_0, # of connection points: 2
#     Edge 148, Type (0, 0), BuildingBlock: XIVTED_clean_linker_0, # of connection points: 2
#     Edge 149, Type (0, 0), BuildingBlock: XIVTED_clean_linker_0, # of connection points: 2
#     Edge 150, Type (0, 0), BuildingBlock: XIVTED_clean_linker_0, # of connection points: 2
#     Edge 151, Type (0, 0), BuildingBlock: XIVTED_clean_linker_0, # of connection points: 2
#     Edge 152, Type (0, 0), BuildingBlock: XIVTED_clean_linker_0, # of connection points: 2
#     Edge 153, Type (0, 0), BuildingBlock: XIVTED_clean_linker_0, # of connection points: 2
#     Edge 154, Type (0, 0), BuildingBlock: XIVTED_clean_linker_0, # of connection points: 2
#     Edge 155, Type (0, 0), BuildingBlock: XIVTED_clean_linker_0, # of connection points: 2
#     Edge 156, Type (0, 0), BuildingBlock: XIVTED_clean_linker_0, # of connection points: 2
#     Edge 157, Type (0, 0), BuildingBlock: XIVTED_clean_linker_0, # of connection points: 2
#     Edge 158, Type (0, 0), BuildingBlock: XIVTED_clean_linker_0, # of connection points: 2
#     Edge 159, Type (0, 0), BuildingBlock: XIVTED_clean_linker_0, # of connection points: 2
#     Edge 160, Type (0, 0), BuildingBlock: XIVTED_clean_linker_0, # of connection points: 2
#     Edge 161, Type (0, 0), BuildingBlock: XIVTED_clean_linker_0, # of connection points: 2
#     Edge 162, Type (0, 0), BuildingBlock: XIVTED_clean_linker_0, # of connection points: 2
#     Edge 163, Type (0, 0), BuildingBlock: XIVTED_clean_linker_0, # of connection points: 2
#     Edge 164, Type (0, 0), BuildingBlock: XIVTED_clean_linker_0, # of connection points: 2
#     Edge 165, Type (0, 0), BuildingBlock: XIVTED_clean_linker_0, # of connection points: 2
#     Edge 166, Type (0, 0), BuildingBlock: XIVTED_clean_linker_0, # of connection points: 2
#     Edge 167, Type (0, 0), BuildingBlock: XIVTED_clean_linker_0, # of connection points: 2
#     Edge 168, Type (0, 0), BuildingBlock: XIVTED_clean_linker_0, # of connection points: 2
#     Edge 169, Type (0, 0), BuildingBlock: XIVTED_clean_linker_0, # of connection points: 2
#     Edge 170, Type (0, 0), BuildingBlock: XIVTED_clean_linker_0, # of connection points: 2
#     Edge 171, Type (0, 0), BuildingBlock: XIVTED_clean_linker_0, # of connection points: 2
#     Edge 172, Type (0, 0), BuildingBlock: XIVTED_clean_linker_0, # of connection points: 2
#     Edge 173, Type (0, 0), BuildingBlock: XIVTED_clean_linker_0, # of connection points: 2
#     Edge 174, Type (0, 0), BuildingBlock: XIVTED_clean_linker_0, # of connection points: 2
#     Edge 175, Type (0, 0), BuildingBlock: XIVTED_clean_linker_0, # of connection points: 2
#     Edge 176, Type (0, 0), BuildingBlock: XIVTED_clean_linker_0, # of connection points: 2
#     Edge 177, Type (0, 0), BuildingBlock: XIVTED_clean_linker_0, # of connection points: 2
#     Edge 178, Type (0, 0), BuildingBlock: XIVTED_clean_linker_0, # of connection points: 2
#     Edge 179, Type (0, 0), BuildingBlock: XIVTED_clean_linker_0, # of connection points: 2
#     Edge 180, Type (0, 0), BuildingBlock: XIVTED_clean_linker_0, # of connection points: 2
#     Edge 181, Type (0, 0), BuildingBlock: XIVTED_clean_linker_0, # of connection points: 2
#     Edge 182, Type (0, 0), BuildingBlock: XIVTED_clean_linker_0, # of connection points: 2
#     Edge 183, Type (0, 0), BuildingBlock: XIVTED_clean_linker_0, # of connection points: 2
#     Edge 184, Type (0, 0), BuildingBlock: XIVTED_clean_linker_0, # of connection points: 2
#     Edge 185, Type (0, 0), BuildingBlock: XIVTED_clean_linker_0, # of connection points: 2
#     Edge 186, Type (0, 0), BuildingBlock: XIVTED_clean_linker_0, # of connection points: 2
#     Edge 187, Type (0, 0), BuildingBlock: XIVTED_clean_linker_0, # of connection points: 2
#     Edge 188, Type (0, 0), BuildingBlock: XIVTED_clean_linker_0, # of connection points: 2
#     Edge 189, Type (0, 0), BuildingBlock: XIVTED_clean_linker_0, # of connection points: 2
#     Edge 190, Type (0, 0), BuildingBlock: XIVTED_clean_linker_0, # of connection points: 2
#     Edge 191, Type (0, 0), BuildingBlock: XIVTED_clean_linker_0, # of connection points: 2
#     Edge 192, Type (0, 0), BuildingBlock: XIVTED_clean_linker_0, # of connection points: 2
#     Edge 193, Type (0, 0), BuildingBlock: XIVTED_clean_linker_0, # of connection points: 2
#     Edge 194, Type (0, 0), BuildingBlock: XIVTED_clean_linker_0, # of connection points: 2
#     Edge 195, Type (0, 0), BuildingBlock: XIVTED_clean_linker_0, # of connection points: 2
#     Edge 196, Type (0, 0), BuildingBlock: XIVTED_clean_linker_0, # of connection points: 2
#     Edge 197, Type (0, 0), BuildingBlock: XIVTED_clean_linker_0, # of connection points: 2
#     Edge 198, Type (0, 0), BuildingBlock: XIVTED_clean_linker_0, # of connection points: 2
#     Edge 199, Type (0, 0), BuildingBlock: XIVTED_clean_linker_0, # of connection points: 2
#     Edge 200, Type (0, 0), BuildingBlock: XIVTED_clean_linker_0, # of connection points: 2
#     Edge 201, Type (0, 0), BuildingBlock: XIVTED_clean_linker_0, # of connection points: 2
#     Edge 202, Type (0, 0), BuildingBlock: XIVTED_clean_linker_0, # of connection points: 2
#     Edge 203, Type (0, 0), BuildingBlock: XIVTED_clean_linker_0, # of connection points: 2
#     Edge 204, Type (0, 0), BuildingBlock: XIVTED_clean_linker_0, # of connection points: 2
#     Edge 205, Type (0, 0), BuildingBlock: XIVTED_clean_linker_0, # of connection points: 2
#     Edge 206, Type (0, 0), BuildingBlock: XIVTED_clean_linker_0, # of connection points: 2
#     Edge 207, Type (0, 0), BuildingBlock: XIVTED_clean_linker_0, # of connection points: 2
#     Edge 208, Type (0, 0), BuildingBlock: XIVTED_clean_linker_0, # of connection points: 2
#     Edge 209, Type (0, 0), BuildingBlock: XIVTED_clean_linker_0, # of connection points: 2
#     Edge 210, Type (0, 0), BuildingBlock: XIVTED_clean_linker_0, # of connection points: 2
#     Edge 211, Type (0, 0), BuildingBlock: XIVTED_clean_linker_0, # of connection points: 2
#     Edge 212, Type (0, 0), BuildingBlock: XIVTED_clean_linker_0, # of connection points: 2
#     Edge 213, Type (0, 0), BuildingBlock: XIVTED_clean_linker_0, # of connection points: 2
#     Edge 214, Type (0, 0), BuildingBlock: XIVTED_clean_linker_0, # of connection points: 2
#     Edge 215, Type (0, 0), BuildingBlock: XIVTED_clean_linker_0, # of connection points: 2
# Relax obj value: 0.196
# Max RMSD: 0.261
# Mean RMSD: 0.261
data_MOF--net-svz--node1-NUHQUE_clean_sbu_2--edge1-XIVTED_clean_linker_0
_symmetry_space_group_name_H-M    P1
_symmetry_Int_Tables_number       1
_symmetry_cell_setting            triclinic
loop_
_symmetry_equiv_pos_as_xyz
'x, y, z'
_cell_length_a     68.543238
_cell_length_b     68.595007
_cell_length_c     68.482621
_cell_angle_alpha  90.000491
_cell_angle_beta   89.993123
_cell_angle_gamma 90.031886
loop_
_atom_site_label
_atom_site_type_symbol
_atom_site_fract_x
_atom_site_fract_y
_atom_site_fract_z
_atom_type_partial_charge
O0 O 0.07006 0.59968 0.23815 0.0
Tb1 Tb 0.03872 0.60057 0.23298 0.0
Eu2 Eu 0.05396 0.58039 0.1865 0.0
C3 C 0.07738 0.58517 0.24838 0.0
O4 O 0.06637 0.56989 0.25173 0.0
C5 C 0.03726 0.55539 0.2243 0.0
O6 O 0.02662 0.57796 0.16809 0.0
C7 C 0.085 0.57427 0.16557 0.0
C8 C 0.00953 0.57404 0.17599 0.0
O9 O 0.00845 0.57121 0.19491 0.0
C10 C 0.03477 0.62128 0.19367 0.0
C11 C 0.09673 0.5842 0.15027 0.0
C12 C 0.11728 0.58385 0.15155 0.0
C13 C 0.12879 0.59271 0.13704 0.0
C14 C 0.11964 0.6014 0.12098 0.0
C15 C 0.0993 0.60153 0.11914 0.0
C16 C 0.0878 0.59329 0.13403 0.0
O17 O 0.02933 0.57063 0.23282 0.0
O18 O 0.04908 0.55634 0.20903 0.0
O19 O 0.03526 0.62653 0.25121 0.0
O20 O 0.02023 0.60069 0.2591 0.0
C21 C 0.02339 0.61877 0.2638 0.0
O22 O 0.05109 0.61309 0.18807 0.0
O23 O 0.02475 0.61388 0.2081 0.0
O24 O 0.06751 0.56811 0.16058 0.0
O25 O 0.08565 0.58171 0.18329 0.0
H26 H 0.1243 0.5767 0.1638 0.0
H27 H 0.12849 0.60775 0.10947 0.0
H28 H 0.07205 0.59345 0.13264 0.0
O29 O 0.90522 0.07259 0.24145 0.0
Tb30 Tb 0.8941 0.04521 0.22964 0.0
Eu31 Eu 0.92162 0.04696 0.18465 0.0
C32 C 0.91873 0.07194 0.25513 0.0
O33 O 0.92664 0.05506 0.25942 0.0
C34 C 0.93765 0.03165 0.22484 0.0
O35 O 0.9318 0.02379 0.1636 0.0
C36 C 0.92179 0.08151 0.16939 0.0
C37 C 0.93719 0.00674 0.17059 0.0
O38 O 0.93818 0.00451 0.1896 0.0
C39 C 0.87613 0.03789 0.18911 0.0
C40 C 0.91419 0.09248 0.15259 0.0
C41 C 0.91573 0.11292 0.15258 0.0
C42 C 0.9096 0.12373 0.13632 0.0
C43 C 0.90233 0.11393 0.11992 0.0
C44 C 0.90114 0.09351 0.11951 0.0
C45 C 0.90672 0.0828 0.13608 0.0
O46 O 0.91984 0.02651 0.22983 0.0
O47 O 0.94097 0.0442 0.21082 0.0
O48 O 0.87734 0.04774 0.25668 0.0
O49 O 0.87798 0.02053 0.24208 0.0
C50 C 0.87133 0.0298 0.25722 0.0
O51 O 0.89286 0.03151 0.18238 0.0
O52 O 0.87545 0.04969 0.20422 0.0
O53 O 0.93498 0.06815 0.16541 0.0
O54 O 0.90912 0.07613 0.18286 0.0
H55 H 0.92181 0.12039 0.16515 0.0
H56 H 0.89795 0.12226 0.10718 0.0
H57 H 0.90594 0.06701 0.13587 0.0
O58 O 0.43481 0.90946 0.24737 0.0
Tb59 Tb 0.46519 0.90293 0.24055 0.0
Eu60 Eu 0.44891 0.92525 0.19524 0.0
C61 C 0.43132 0.92358 0.25995 0.0
O62 O 0.44607 0.93413 0.26613 0.0
C63 C 0.46976 0.94739 0.23179 0.0
O64 O 0.47745 0.92334 0.17851 0.0
C65 C 0.42016 0.93504 0.17252 0.0
C66 C 0.4908 0.93717 0.1794 0.0
O67 O 0.48743 0.95268 0.1901 0.0
C68 C 0.462 0.88255 0.20099 0.0
C69 C 0.40855 0.92582 0.15668 0.0
C70 C 0.38799 0.92732 0.15691 0.0
C71 C 0.37676 0.91866 0.14205 0.0
C72 C 0.3862 0.90909 0.12669 0.0
C73 C 0.40656 0.90781 0.12592 0.0
C74 C 0.41774 0.91581 0.14114 0.0
O75 O 0.47851 0.93132 0.23759 0.0
O76 O 0.45523 0.94755 0.21906 0.0
O77 O 0.48474 0.9006 0.26589 0.0
O78 O 0.46633 0.8768 0.2588 0.0
C79 C 0.47955 0.88304 0.27088 0.0
O80 O 0.44607 0.89274 0.19857 0.0
O81 O 0.4745 0.88762 0.21451 0.0
O82 O 0.43852 0.93915 0.16866 0.0
O83 O 0.41756 0.92808 0.19024 0.0
H84 H 0.38076 0.93508 0.16865 0.0
H85 H 0.3776 0.90283 0.11495 0.0
H86 H 0.4335 0.91466 0.14059 0.0
O87 O 0.59785 0.42686 0.23907 0.0
Tb88 Tb 0.60251 0.45779 0.2334 0.0
Eu89 Eu 0.5826 0.44508 0.18677 0.0
C90 C 0.58256 0.42173 0.24956 0.0
O91 O 0.56892 0.43476 0.25272 0.0
C92 C 0.55822 0.46451 0.22327 0.0
O93 O 0.58048 0.47224 0.16837 0.0
C94 C 0.57423 0.41475 0.16581 0.0
C95 C 0.57881 0.48946 0.17662 0.0
O96 O 0.57887 0.49073 0.19572 0.0
C97 C 0.62479 0.46191 0.19424 0.0
C98 C 0.58339 0.40254 0.15052 0.0
C99 C 0.58194 0.38213 0.15202 0.0
C100 C 0.58992 0.37012 0.1375 0.0
C101 C 0.59887 0.37857 0.12119 0.0
C102 C 0.60006 0.39885 0.11913 0.0
C103 C 0.59269 0.41087 0.13406 0.0
O104 O 0.57391 0.47073 0.23238 0.0
O105 O 0.55848 0.45208 0.20853 0.0
O106 O 0.62837 0.4591 0.25201 0.0
O107 O 0.60341 0.47564 0.25987 0.0
C108 C 0.6212 0.47121 0.2647 0.0
O109 O 0.61548 0.44667 0.18743 0.0
O110 O 0.61815 0.47132 0.20947 0.0
O111 O 0.56942 0.43263 0.16084 0.0
O112 O 0.58147 0.41343 0.18359 0.0
H113 H 0.57457 0.3756 0.16441 0.0
H114 H 0.60457 0.36925 0.10973 0.0
H115 H 0.59364 0.42656 0.13253 0.0
O116 O 0.07217 0.90793 0.26221 0.0
Tb117 Tb 0.04524 0.89544 0.27343 0.0
Eu118 Eu 0.05001 0.92194 0.3195 0.0
C119 C 0.07111 0.92109 0.24828 0.0
O120 O 0.05388 0.92775 0.24326 0.0
C121 C 0.03304 0.93883 0.2803 0.0
O122 O 0.02743 0.9321 0.34132 0.0
C123 C 0.08505 0.92084 0.3338 0.0
C124 C 0.01049 0.93836 0.33474 0.0
O125 O 0.00809 0.94008 0.31581 0.0
C126 C 0.03992 0.87657 0.31445 0.0
C127 C 0.0961 0.91178 0.34989 0.0
C128 C 0.11663 0.91304 0.34993 0.0
C129 C 0.12748 0.90526 0.36552 0.0
C130 C 0.11758 0.89666 0.38121 0.0
C131 C 0.09718 0.89565 0.38156 0.0
C132 C 0.08641 0.9029 0.36571 0.0
O133 O 0.02692 0.92117 0.2761 0.0
O134 O 0.04627 0.94193 0.2938 0.0
O135 O 0.04736 0.87729 0.24713 0.0
O136 O 0.01939 0.88433 0.25818 0.0
C137 C 0.0287 0.87525 0.2444 0.0
O138 O 0.03457 0.89323 0.32217 0.0
O139 O 0.04948 0.87558 0.29783 0.0
O140 O 0.07196 0.93395 0.33889 0.0
O141 O 0.07916 0.90924 0.31961 0.0
H142 H 0.12412 0.92015 0.33794 0.0
H143 H 0.12579 0.8912 0.3936 0.0
H144 H 0.0706 0.90225 0.36598 0.0
O145 O 0.60597 0.07539 0.26324 0.0
Tb146 Tb 0.60582 0.04456 0.27108 0.0
Eu147 Eu 0.58732 0.06179 0.3167 0.0
C148 C 0.59076 0.08258 0.25391 0.0
O149 O 0.57468 0.07222 0.25333 0.0
C150 C 0.56108 0.04267 0.28126 0.0
O151 O 0.58214 0.0362 0.33686 0.0
C152 C 0.58224 0.09465 0.33475 0.0
C153 C 0.57915 0.01872 0.32952 0.0
O154 O 0.57955 0.01646 0.31051 0.0
C155 C 0.62737 0.04022 0.31025 0.0
C156 C 0.59318 0.10677 0.34884 0.0
C157 C 0.59166 0.12723 0.34795 0.0
C158 C 0.60201 0.139 0.36121 0.0
C159 C 0.61382 0.13009 0.37535 0.0
C160 C 0.61503 0.10977 0.3768 0.0
C161 C 0.60475 0.0981 0.36347 0.0
O162 O 0.57611 0.03449 0.27265 0.0
O163 O 0.56253 0.05571 0.29539 0.0
O164 O 0.63203 0.03551 0.25534 0.0
O165 O 0.60424 0.02734 0.24431 0.0
C166 C 0.62296 0.02609 0.24162 0.0
O167 O 0.61994 0.05672 0.31638 0.0
O168 O 0.61876 0.03052 0.29626 0.0
O169 O 0.57563 0.07788 0.34133 0.0
O170 O 0.58945 0.09354 0.31694 0.0
H171 H 0.58237 0.13396 0.33705 0.0
H172 H 0.62128 0.13902 0.38608 0.0
H173 H 0.60572 0.08237 0.36456 0.0
O174 O 0.44034 0.60065 0.2634 0.0
Tb175 Tb 0.46974 0.60884 0.2724 0.0
Eu176 Eu 0.45083 0.58329 0.31407 0.0
C177 C 0.4387 0.58786 0.24913 0.0
O178 O 0.45463 0.57986 0.24214 0.0
C179 C 0.47324 0.56422 0.27789 0.0
O180 O 0.47937 0.58336 0.33052 0.0
C181 C 0.42285 0.56937 0.33546 0.0
C182 C 0.49111 0.56817 0.33052 0.0
O183 O 0.48626 0.55257 0.32052 0.0
C184 C 0.45983 0.62933 0.31231 0.0
C185 C 0.41113 0.57614 0.35233 0.0
C186 C 0.39062 0.57459 0.35172 0.0
C187 C 0.37927 0.58128 0.36743 0.0
C188 C 0.3885 0.58895 0.38397 0.0
C189 C 0.40888 0.59018 0.38509 0.0
C190 C 0.42016 0.58413 0.36905 0.0
O191 O 0.48312 0.58045 0.2755 0.0
O192 O 0.45705 0.56367 0.28822 0.0
O193 O 0.4684 0.62567 0.24517 0.0
O194 O 0.49598 0.61678 0.25581 0.0
C195 C 0.48705 0.62591 0.2418 0.0
O196 O 0.44668 0.61588 0.3161 0.0
O197 O 0.47199 0.62803 0.29751 0.0
O198 O 0.44141 0.56567 0.33869 0.0
O199 O 0.41973 0.57832 0.31875 0.0
H200 H 0.38352 0.56843 0.33899 0.0
H201 H 0.37967 0.59392 0.39614 0.0
H202 H 0.43591 0.58531 0.36979 0.0
O203 O 0.90575 0.42793 0.26572 0.0
Tb204 Tb 0.90298 0.45914 0.271 0.0
Eu205 Eu 0.9234 0.44702 0.3186 0.0
C206 C 0.92107 0.42145 0.25608 0.0
O207 O 0.93591 0.43324 0.25351 0.0
C208 C 0.94795 0.46349 0.28063 0.0
O209 O 0.9255 0.47572 0.33487 0.0
C210 C 0.93066 0.41744 0.34114 0.0
C211 C 0.92505 0.49231 0.3252 0.0
O212 O 0.9236 0.49183 0.30611 0.0
C213 C 0.88132 0.46303 0.31021 0.0
C214 C 0.91985 0.40541 0.35556 0.0
C215 C 0.92148 0.38492 0.35482 0.0
C216 C 0.91098 0.37311 0.36794 0.0
C217 C 0.89893 0.38201 0.38188 0.0
C218 C 0.89752 0.40231 0.38322 0.0
C219 C 0.90797 0.41405 0.37003 0.0
O220 O 0.93238 0.4703 0.27171 0.0
O221 O 0.94745 0.45199 0.29614 0.0
O222 O 0.90275 0.47767 0.24494 0.0
O223 O 0.87763 0.46095 0.2517 0.0
C224 C 0.88512 0.47336 0.23949 0.0
O225 O 0.8906 0.44753 0.31637 0.0
O226 O 0.88766 0.47267 0.29502 0.0
O227 O 0.93454 0.43558 0.34604 0.0
O228 O 0.92536 0.41554 0.32275 0.0
H229 H 0.93087 0.37818 0.34401 0.0
H230 H 0.89125 0.37307 0.39245 0.0
H231 H 0.90674 0.42977 0.37102 0.0
O232 O 0.23929 0.06877 0.61248 0.0
Tb233 Tb 0.2312 0.03804 0.61367 0.0
Eu234 Eu 0.18359 0.0517 0.59265 0.0
C235 C 0.24959 0.07491 0.59742 0.0
O236 O 0.25104 0.06349 0.58211 0.0
C237 C 0.2211 0.03464 0.56934 0.0
O238 O 0.16627 0.02383 0.58831 0.0
C239 C 0.1624 0.08204 0.58463 0.0
C240 C 0.1747 0.00662 0.58966 0.0
O241 O 0.19338 0.00579 0.59375 0.0
C242 C 0.19123 0.03485 0.63544 0.0
C243 C 0.14605 0.09333 0.59316 0.0
C244 C 0.14749 0.1138 0.59443 0.0
C245 C 0.13196 0.12487 0.60195 0.0
C246 C 0.11476 0.11537 0.60763 0.0
C247 C 0.11283 0.09509 0.60602 0.0
C248 C 0.12868 0.08405 0.59919 0.0
O249 O 0.22778 0.02573 0.58491 0.0
O250 O 0.20759 0.04828 0.57006 0.0
O251 O 0.24819 0.02899 0.63915 0.0
O252 O 0.25828 0.02149 0.61084 0.0
C253 C 0.26179 0.02008 0.62942 0.0
O254 O 0.18382 0.0495 0.62558 0.0
O255 O 0.20676 0.02553 0.62934 0.0
O256 O 0.15841 0.06439 0.57828 0.0
O257 O 0.1794 0.08326 0.59349 0.0
H258 H 0.16067 0.12109 0.58959 0.0
H259 H 0.10257 0.12391 0.61301 0.0
H260 H 0.12721 0.06836 0.598 0.0
O261 O 0.42987 0.24253 0.60234 0.0
Tb262 Tb 0.45746 0.2317 0.6137 0.0
Eu263 Eu 0.45297 0.18518 0.58778 0.0
C264 C 0.43034 0.25658 0.58926 0.0
O265 O 0.4473 0.26202 0.58224 0.0
C266 C 0.4673 0.22503 0.56968 0.0
O267 O 0.47524 0.1636 0.57673 0.0
C268 C 0.41861 0.16945 0.591 0.0
C269 C 0.49165 0.17006 0.56907 0.0
O270 O 0.49367 0.18887 0.56617 0.0
C271 C 0.46642 0.19167 0.63223 0.0
C272 C 0.40856 0.15238 0.59954 0.0
C273 C 0.38799 0.15213 0.60028 0.0
C274 C 0.378 0.13557 0.60715 0.0
C275 C 0.38876 0.11916 0.61283 0.0
C276 C 0.40918 0.11895 0.61172 0.0
C277 C 0.41912 0.13576 0.60545 0.0
O278 O 0.47445 0.22933 0.58696 0.0
O279 O 0.45455 0.21091 0.56742 0.0
O280 O 0.4557 0.25771 0.63225 0.0
O281 O 0.48348 0.24771 0.6232 0.0
C282 C 0.47435 0.26107 0.63303 0.0
O283 O 0.47093 0.18396 0.61527 0.0
O284 O 0.455 0.207 0.63351 0.0
O285 O 0.43069 0.16577 0.57651 0.0
O286 O 0.42507 0.18296 0.6031 0.0
H287 H 0.37978 0.16471 0.59535 0.0
H288 H 0.38111 0.10617 0.61764 0.0
H289 H 0.4349 0.13565 0.60441 0.0
O290 O 0.26652 0.43683 0.59913 0.0
Tb291 Tb 0.2712 0.46805 0.6027 0.0
Eu292 Eu 0.31815 0.45574 0.58192 0.0
C293 C 0.25639 0.43073 0.58396 0.0
O294 O 0.25283 0.44311 0.5698 0.0
C295 C 0.28078 0.47377 0.55804 0.0
O296 O 0.33587 0.48341 0.57895 0.0
C297 C 0.33909 0.42533 0.57363 0.0
C298 C 0.32723 0.5005 0.57764 0.0
O299 O 0.30813 0.50133 0.57845 0.0
C300 C 0.31069 0.47266 0.62403 0.0
C301 C 0.3542 0.4129 0.58277 0.0
C302 C 0.35285 0.3925 0.58074 0.0
C303 C 0.36726 0.38035 0.5887 0.0
C304 C 0.38331 0.38866 0.59821 0.0
C305 C 0.38519 0.4089 0.59999 0.0
C306 C 0.37039 0.42104 0.59263 0.0
O307 O 0.27199 0.48034 0.57377 0.0
O308 O 0.2957 0.4616 0.55824 0.0
O309 O 0.25245 0.47018 0.62849 0.0
O310 O 0.24435 0.48534 0.60276 0.0
C311 C 0.23952 0.48165 0.62073 0.0
O312 O 0.31725 0.45728 0.61478 0.0
O313 O 0.29523 0.48193 0.61775 0.0
O314 O 0.3442 0.44323 0.569 0.0
O315 O 0.32129 0.42408 0.58079 0.0
H316 H 0.34067 0.3861 0.57292 0.0
H317 H 0.39471 0.37927 0.60388 0.0
H318 H 0.37183 0.43672 0.59403 0.0
O319 O 0.07216 0.26496 0.60862 0.0
Tb320 Tb 0.04133 0.27251 0.6102 0.0
Eu321 Eu 0.05659 0.31839 0.5884 0.0
C322 C 0.07796 0.25414 0.59382 0.0
O323 O 0.06596 0.25176 0.57908 0.0
C324 C 0.03788 0.28102 0.56548 0.0
O325 O 0.02976 0.33732 0.58457 0.0
C326 C 0.08837 0.33741 0.58041 0.0
C327 C 0.01232 0.32938 0.58311 0.0
O328 O 0.01073 0.31035 0.5839 0.0
C329 C 0.03886 0.3126 0.63102 0.0
C330 C 0.10058 0.35297 0.58908 0.0
C331 C 0.12106 0.35184 0.58752 0.0
C332 C 0.1329 0.36669 0.59527 0.0
C333 C 0.12408 0.38292 0.60399 0.0
C334 C 0.10377 0.3845 0.60528 0.0
C335 C 0.09201 0.36928 0.59823 0.0
O336 O 0.02918 0.27455 0.58127 0.0
O337 O 0.05142 0.2947 0.56572 0.0
O338 O 0.03323 0.25588 0.63624 0.0
O339 O 0.02429 0.24566 0.60841 0.0
C340 C 0.02368 0.24233 0.62706 0.0
O341 O 0.05397 0.31919 0.62128 0.0
O342 O 0.0289 0.29751 0.62489 0.0
O343 O 0.07105 0.34258 0.57397 0.0
O344 O 0.08837 0.32044 0.5894 0.0
H345 H 0.12776 0.33945 0.58032 0.0
H346 H 0.13314 0.39469 0.60948 0.0
H347 H 0.07627 0.37047 0.59931 0.0
O348 O 0.24184 0.43576 0.90144 0.0
Tb349 Tb 0.23594 0.46679 0.89808 0.0
Eu350 Eu 0.189 0.45349 0.92007 0.0
C351 C 0.25217 0.42997 0.91659 0.0
O352 O 0.25578 0.44253 0.93056 0.0
C353 C 0.22703 0.47101 0.94283 0.0
O354 O 0.17212 0.48169 0.92316 0.0
C355 C 0.16735 0.42378 0.92929 0.0
C356 C 0.18107 0.4986 0.92168 0.0
O357 O 0.19993 0.49884 0.91848 0.0
C358 C 0.19575 0.46976 0.87724 0.0
C359 C 0.15094 0.41218 0.92127 0.0
C360 C 0.15176 0.39167 0.92215 0.0
C361 C 0.13616 0.38035 0.91519 0.0
C362 C 0.11951 0.38963 0.90787 0.0
C363 C 0.11814 0.41002 0.90737 0.0
C364 C 0.13409 0.42128 0.91366 0.0
O365 O 0.23441 0.479 0.92704 0.0
O366 O 0.21295 0.45787 0.94258 0.0
O367 O 0.25448 0.4704 0.87228 0.0
O368 O 0.26206 0.48522 0.89834 0.0
C369 C 0.26695 0.48225 0.88026 0.0
O370 O 0.1892 0.45472 0.88712 0.0
O371 O 0.21128 0.47934 0.88291 0.0
O372 O 0.16348 0.44176 0.93471 0.0
O373 O 0.1844 0.42197 0.92063 0.0
H374 H 0.16449 0.38453 0.92825 0.0
H375 H 0.10731 0.38087 0.90287 0.0
H376 H 0.13309 0.43704 0.91322 0.0
O377 O 0.07534 0.24021 0.903 0.0
Tb378 Tb 0.0467 0.22983 0.89383 0.0
Eu379 Eu 0.04975 0.18383 0.92051 0.0
C380 C 0.07653 0.25291 0.91739 0.0
O381 O 0.06083 0.25658 0.92771 0.0
C382 C 0.03479 0.22388 0.9378 0.0
O383 O 0.02604 0.16334 0.93074 0.0
C384 C 0.08375 0.16713 0.91981 0.0
C385 C 0.00918 0.17072 0.93626 0.0
O386 O 0.00734 0.18974 0.93708 0.0
C387 C 0.04005 0.18929 0.87503 0.0
C388 C 0.09391 0.14998 0.91156 0.0
C389 C 0.11446 0.14999 0.91053 0.0
C390 C 0.12457 0.13345 0.90382 0.0
C391 C 0.11394 0.11679 0.89859 0.0
C392 C 0.09352 0.11631 0.89998 0.0
C393 C 0.08348 0.13312 0.90607 0.0
O394 O 0.02897 0.22901 0.92023 0.0
O395 O 0.04735 0.20969 0.94056 0.0
O396 O 0.04841 0.25866 0.88029 0.0
O397 O 0.02243 0.24234 0.87698 0.0
C398 C 0.03101 0.25872 0.87283 0.0
O399 O 0.03409 0.18215 0.89178 0.0
O400 O 0.05077 0.20519 0.87414 0.0
O401 O 0.0704 0.16351 0.93316 0.0
O402 O 0.07882 0.1812 0.90765 0.0
H403 H 0.12256 0.16279 0.91509 0.0
H404 H 0.12169 0.10384 0.89387 0.0
H405 H 0.06771 0.13283 0.90727 0.0
O406 O 0.26319 0.0673 0.89581 0.0
Tb407 Tb 0.27013 0.03629 0.89506 0.0
Eu408 Eu 0.31737 0.04976 0.91556 0.0
C409 C 0.25324 0.07402 0.91085 0.0
O410 O 0.25176 0.06301 0.92645 0.0
C411 C 0.27991 0.03284 0.93955 0.0
O412 O 0.33491 0.02207 0.92011 0.0
C413 C 0.33802 0.08068 0.92295 0.0
C414 C 0.32624 0.00493 0.91948 0.0
O415 O 0.3074 0.00428 0.91618 0.0
C416 C 0.30983 0.03139 0.87357 0.0
C417 C 0.35412 0.09214 0.91421 0.0
C418 C 0.3533 0.11269 0.91448 0.0
C419 C 0.36878 0.12381 0.90686 0.0
C420 C 0.38529 0.11425 0.89954 0.0
C421 C 0.38657 0.09386 0.89959 0.0
C422 C 0.37076 0.08282 0.90649 0.0
O423 O 0.2725 0.02439 0.92405 0.0
O424 O 0.29396 0.04596 0.93876 0.0
O425 O 0.25294 0.0277 0.86954 0.0
O426 O 0.24249 0.0207 0.89786 0.0
C427 C 0.23899 0.01934 0.87929 0.0
O428 O 0.31709 0.04663 0.88264 0.0
O429 O 0.29437 0.0224 0.88029 0.0
O430 O 0.34242 0.06318 0.92948 0.0
O431 O 0.32097 0.0814 0.91412 0.0
H432 H 0.34068 0.11999 0.92061 0.0
H433 H 0.39747 0.12278 0.89413 0.0
H434 H 0.37174 0.06705 0.90648 0.0
O435 O 0.43175 0.26228 0.89941 0.0
Tb436 Tb 0.46251 0.27003 0.89765 0.0
Eu437 Eu 0.4501 0.31961 0.91697 0.0
C438 C 0.42542 0.25339 0.91524 0.0
O439 O 0.43662 0.25338 0.93078 0.0
C440 C 0.46791 0.2832 0.94165 0.0
O441 O 0.47933 0.33501 0.91893 0.0
C442 C 0.4217 0.34339 0.925 0.0
C443 C 0.49572 0.32517 0.91722 0.0
O444 O 0.49486 0.30638 0.91387 0.0
C445 C 0.4641 0.30908 0.87468 0.0
C446 C 0.40919 0.35795 0.91493 0.0
C447 C 0.38875 0.3556 0.91539 0.0
C448 C 0.37649 0.36939 0.90649 0.0
C449 C 0.38472 0.38582 0.89762 0.0
C450 C 0.40493 0.38885 0.89753 0.0
C451 C 0.41722 0.37466 0.90581 0.0
O452 O 0.47516 0.27438 0.92622 0.0
O453 O 0.45478 0.29726 0.94096 0.0
O454 O 0.47148 0.25297 0.8722 0.0
O455 O 0.47912 0.2429 0.90044 0.0
C456 C 0.48048 0.23939 0.88185 0.0
O457 O 0.44895 0.31542 0.88442 0.0
O458 O 0.47419 0.29413 0.88091 0.0
O459 O 0.4402 0.34782 0.92749 0.0
O460 O 0.41889 0.32493 0.92052 0.0
H461 H 0.38239 0.34312 0.92274 0.0
H462 H 0.37523 0.39676 0.89124 0.0
H463 H 0.43285 0.37699 0.90573 0.0
O464 O 0.59841 0.2363 0.07178 0.0
Tb465 Tb 0.60512 0.22875 0.04171 0.0
Eu466 Eu 0.57953 0.183 0.04624 0.0
C467 C 0.58221 0.24574 0.07582 0.0
O468 O 0.56905 0.24771 0.06204 0.0
C469 C 0.56277 0.22145 0.02844 0.0
O470 O 0.56995 0.15969 0.02497 0.0
C471 C 0.58203 0.17067 0.08198 0.0
C472 C 0.56166 0.16495 0.00843 0.0
O473 O 0.55684 0.18331 0.00604 0.0
C474 C 0.62457 0.18868 0.03447 0.0
C475 C 0.59121 0.15464 0.09297 0.0
C476 C 0.59171 0.15519 0.11355 0.0
C477 C 0.59962 0.1395 0.12416 0.0
C478 C 0.60646 0.12314 0.11399 0.0
C479 C 0.60568 0.12227 0.09356 0.0
C480 C 0.59845 0.13823 0.08304 0.0
O481 O 0.58062 0.22423 0.02204 0.0
O482 O 0.55923 0.20824 0.0418 0.0
O483 O 0.6081 0.25998 0.0357 0.0
O484 O 0.63001 0.24074 0.02557 0.0
C485 C 0.62442 0.25882 0.02617 0.0
O486 O 0.60777 0.18085 0.02959 0.0
O487 O 0.62548 0.20463 0.04507 0.0
O488 O 0.56797 0.1655 0.06991 0.0
O489 O 0.59381 0.18404 0.07469 0.0
H490 H 0.58591 0.16773 0.12125 0.0
H491 H 0.61208 0.11074 0.12207 0.0
H492 H 0.59776 0.13758 0.06723 0.0
O493 O 0.59725 0.26883 0.43769 0.0
Tb494 Tb 0.60081 0.27269 0.46902 0.0
Eu495 Eu 0.58132 0.31753 0.45358 0.0
C496 C 0.58289 0.25758 0.43166 0.0
O497 O 0.56965 0.25219 0.44442 0.0
C498 C 0.55614 0.28194 0.47398 0.0
O499 O 0.57843 0.33812 0.47925 0.0
C500 C 0.57546 0.3346 0.42028 0.0
C501 C 0.5757 0.33099 0.4969 0.0
O502 O 0.57447 0.31204 0.49911 0.0
C503 C 0.6223 0.31163 0.47355 0.0
C504 C 0.58664 0.3479 0.40745 0.0
C505 C 0.58464 0.34656 0.38699 0.0
C506 C 0.5956 0.35878 0.37463 0.0
C507 C 0.60843 0.37238 0.38294 0.0
C508 C 0.61015 0.3743 0.40322 0.0
C509 C 0.59929 0.362 0.41547 0.0
O510 O 0.57168 0.27297 0.48069 0.0
O511 O 0.55667 0.29672 0.4616 0.0
O512 O 0.60131 0.24575 0.48613 0.0
O513 O 0.62678 0.25426 0.47073 0.0
C514 C 0.61928 0.24117 0.48222 0.0
O515 O 0.61402 0.31734 0.45729 0.0
O516 O 0.61518 0.29686 0.48327 0.0
O517 O 0.56953 0.34185 0.43706 0.0
O518 O 0.58216 0.31665 0.42174 0.0
H519 H 0.57462 0.33604 0.38073 0.0
H520 H 0.6164 0.38232 0.37355 0.0
H521 H 0.60072 0.3634 0.43118 0.0
O522 O 0.23835 0.59823 0.42652 0.0
Tb523 Tb 0.22711 0.60967 0.45403 0.0
Eu524 Eu 0.18167 0.58278 0.45196 0.0
C525 C 0.25211 0.58483 0.42714 0.0
O526 O 0.25668 0.5772 0.4441 0.0
C527 C 0.22182 0.56627 0.46706 0.0
O528 O 0.16042 0.57317 0.47527 0.0
C529 C 0.16649 0.58372 0.41731 0.0
C530 C 0.16712 0.56689 0.49217 0.0
O531 O 0.186 0.56436 0.4942 0.0
C532 C 0.18631 0.62832 0.45943 0.0
C533 C 0.15069 0.59313 0.40615 0.0
C534 C 0.15158 0.59281 0.38562 0.0
C535 C 0.13641 0.6008 0.3744 0.0
C536 C 0.1202 0.60884 0.38394 0.0
C537 C 0.11896 0.60904 0.40435 0.0
C538 C 0.13438 0.60144 0.41553 0.0
O539 O 0.22595 0.58409 0.47282 0.0
O540 O 0.2074 0.56277 0.45495 0.0
O541 O 0.25521 0.62455 0.45152 0.0
O542 O 0.24012 0.62579 0.47846 0.0
C543 C 0.25586 0.63106 0.4693 0.0
O544 O 0.17982 0.61186 0.46667 0.0
O545 O 0.20248 0.62913 0.4491 0.0
O546 O 0.16117 0.57113 0.43083 0.0
O547 O 0.18131 0.59483 0.42252 0.0
H548 H 0.164 0.58619 0.37839 0.0
H549 H 0.10811 0.61446 0.37542 0.0
H550 H 0.13342 0.60144 0.43133 0.0
O551 O 0.90766 0.23795 0.43796 0.0
Tb552 Tb 0.90395 0.23179 0.46898 0.0
Eu553 Eu 0.92516 0.18532 0.45552 0.0
C554 C 0.92243 0.24908 0.43266 0.0
O555 O 0.93593 0.25302 0.44564 0.0
C556 C 0.94871 0.22311 0.47357 0.0
O557 O 0.92591 0.16705 0.48306 0.0
C558 C 0.93365 0.16414 0.42526 0.0
C559 C 0.92978 0.17477 0.50025 0.0
O560 O 0.93356 0.19348 0.50142 0.0
C561 C 0.88294 0.19219 0.47209 0.0
C562 C 0.92495 0.14794 0.41386 0.0
C563 C 0.92618 0.14825 0.39331 0.0
C564 C 0.91843 0.13286 0.38218 0.0
C565 C 0.91 0.11691 0.39178 0.0
C566 C 0.90901 0.11609 0.4122 0.0
C567 C 0.9161 0.13186 0.42323 0.0
O568 O 0.93294 0.23106 0.48105 0.0
O569 O 0.94847 0.20837 0.46113 0.0
O570 O 0.87763 0.2496 0.47153 0.0
O571 O 0.90296 0.25799 0.48723 0.0
C572 C 0.88489 0.26235 0.48352 0.0
O573 O 0.89226 0.18623 0.4565 0.0
O574 O 0.88948 0.20703 0.48214 0.0
O575 O 0.93956 0.16003 0.44307 0.0
O576 O 0.9251 0.18128 0.42388 0.0
H577 H 0.9331 0.16045 0.386 0.0
H578 H 0.90444 0.10478 0.38326 0.0
H579 H 0.91525 0.13131 0.43902 0.0
O580 O 0.26144 0.9045 0.43816 0.0
Tb581 Tb 0.26662 0.90096 0.46935 0.0
Eu582 Eu 0.31137 0.92206 0.45437 0.0
C583 C 0.2503 0.91904 0.43235 0.0
O584 O 0.24594 0.93276 0.44496 0.0
C585 C 0.27464 0.9457 0.47459 0.0
O586 O 0.33171 0.92539 0.48028 0.0
C587 C 0.32816 0.93051 0.42139 0.0
C588 C 0.32449 0.92696 0.49806 0.0
O589 O 0.30548 0.92673 0.50033 0.0
C590 C 0.30623 0.88025 0.47317 0.0
C591 C 0.34276 0.92235 0.40773 0.0
C592 C 0.34062 0.92531 0.3874 0.0
C593 C 0.35484 0.91825 0.37438 0.0
C594 C 0.3713 0.9088 0.38179 0.0
C595 C 0.37387 0.90623 0.40183 0.0
C596 C 0.35944 0.9126 0.41484 0.0
O597 O 0.26635 0.92987 0.48147 0.0
O598 O 0.2893 0.94561 0.46208 0.0
O599 O 0.24866 0.87466 0.47127 0.0
O600 O 0.24009 0.89985 0.48707 0.0
C601 C 0.23569 0.88187 0.48307 0.0
O602 O 0.31222 0.88918 0.45732 0.0
O603 O 0.29141 0.88706 0.48306 0.0
O604 O 0.33472 0.93634 0.43849 0.0
O605 O 0.31118 0.92156 0.42245 0.0
H606 H 0.32811 0.93317 0.3818 0.0
H607 H 0.38263 0.9039 0.37183 0.0
H608 H 0.36151 0.91055 0.43039 0.0
O609 O 0.90623 0.26364 0.07533 0.0
Tb610 Tb 0.89901 0.27325 0.04596 0.0
Eu611 Eu 0.92499 0.31879 0.05087 0.0
C612 C 0.92117 0.2519 0.07805 0.0
O613 O 0.9335 0.24924 0.06363 0.0
C614 C 0.94258 0.27976 0.03375 0.0
O615 O 0.93498 0.34102 0.02874 0.0
C616 C 0.92359 0.33277 0.08603 0.0
C617 C 0.94171 0.33482 0.01185 0.0
O618 O 0.94398 0.31602 0.00924 0.0
C619 C 0.87963 0.31375 0.04151 0.0
C620 C 0.91426 0.34845 0.09747 0.0
C621 C 0.91488 0.34746 0.118 0.0
C622 C 0.90731 0.3627 0.12945 0.0
C623 C 0.89939 0.37906 0.12007 0.0
C624 C 0.89876 0.38039 0.09966 0.0
C625 C 0.90592 0.36487 0.08831 0.0
O626 O 0.92492 0.27531 0.02774 0.0
O627 O 0.94563 0.29362 0.04662 0.0
O628 O 0.88952 0.24285 0.04487 0.0
O629 O 0.87863 0.26246 0.02364 0.0
C630 C 0.87836 0.24449 0.02965 0.0
O631 O 0.89616 0.32135 0.03558 0.0
O632 O 0.87903 0.29726 0.05126 0.0
O633 O 0.93654 0.3383 0.07294 0.0
O634 O 0.91236 0.31831 0.08011 0.0
H635 H 0.92144 0.33491 0.12503 0.0
H636 H 0.89407 0.39119 0.12872 0.0
H637 H 0.90565 0.36587 0.07252 0.0
O638 O 0.2428 0.90549 0.07044 0.0
Tb639 Tb 0.23636 0.89815 0.04012 0.0
Eu640 Eu 0.18868 0.91886 0.05152 0.0
C641 C 0.25387 0.92085 0.07379 0.0
O642 O 0.25762 0.93268 0.05921 0.0
C643 C 0.22537 0.94114 0.03153 0.0
O644 O 0.17173 0.91692 0.02327 0.0
C645 C 0.16609 0.92943 0.08001 0.0
C646 C 0.17266 0.93028 0.00949 0.0
O647 O 0.18394 0.94556 0.01194 0.0
C648 C 0.1972 0.87517 0.03943 0.0
C649 C 0.15029 0.92122 0.09227 0.0
C650 C 0.1508 0.92452 0.11256 0.0
C651 C 0.13596 0.91723 0.1246 0.0
C652 C 0.12033 0.90708 0.1163 0.0
C653 C 0.11928 0.90396 0.09613 0.0
C654 C 0.13451 0.91071 0.08409 0.0
O655 O 0.23169 0.92473 0.02401 0.0
O656 O 0.21192 0.94174 0.0453 0.0
O657 O 0.25585 0.873 0.03849 0.0
O658 O 0.26293 0.89846 0.02237 0.0
C659 C 0.26838 0.88081 0.02659 0.0
O660 O 0.19062 0.88606 0.05374 0.0
O661 O 0.21269 0.88026 0.02946 0.0
O662 O 0.16207 0.93285 0.06154 0.0
O663 O 0.18371 0.92229 0.08278 0.0
H664 H 0.16271 0.93274 0.11897 0.0
H665 H 0.10868 0.9018 0.12565 0.0
H666 H 0.13379 0.90824 0.06848 0.0
O667 O 0.26616 0.60168 0.07167 0.0
Tb668 Tb 0.27327 0.6064 0.04097 0.0
Eu669 Eu 0.31915 0.58388 0.05475 0.0
C670 C 0.25498 0.5867 0.07621 0.0
O671 O 0.2514 0.57361 0.06273 0.0
C672 C 0.28156 0.5618 0.0353 0.0
O673 O 0.33778 0.58148 0.02745 0.0
C674 C 0.33827 0.57405 0.08599 0.0
C675 C 0.32962 0.58126 0.01003 0.0
O676 O 0.31057 0.58246 0.00875 0.0
C677 C 0.31372 0.62706 0.039 0.0
C678 C 0.35375 0.58176 0.09897 0.0
C679 C 0.35139 0.58058 0.11942 0.0
C680 C 0.3662 0.58727 0.13193 0.0
C681 C 0.38347 0.59462 0.12396 0.0
C682 C 0.38638 0.59532 0.10375 0.0
C683 C 0.3713 0.58933 0.09123 0.0
O684 O 0.2745 0.57792 0.02776 0.0
O685 O 0.29556 0.56144 0.0485 0.0
O686 O 0.25409 0.6318 0.03857 0.0
O687 O 0.24786 0.60666 0.02166 0.0
C688 C 0.24225 0.62425 0.02581 0.0
O689 O 0.31968 0.61679 0.05403 0.0
O690 O 0.29812 0.62202 0.02916 0.0
O691 O 0.34351 0.56885 0.06825 0.0
O692 O 0.32123 0.5829 0.08656 0.0
H693 H 0.3382 0.57438 0.12556 0.0
H694 H 0.39501 0.59942 0.13369 0.0
H695 H 0.3735 0.58996 0.07557 0.0
O696 O 0.93127 0.40341 0.7657 0.0
Tb697 Tb 0.96073 0.39726 0.77571 0.0
Eu698 Eu 0.95559 0.42247 0.8235 0.0
C699 C 0.92794 0.41934 0.75553 0.0
O700 O 0.9418 0.4325 0.75431 0.0
C701 C 0.97207 0.43963 0.78463 0.0
O702 O 0.97775 0.43183 0.84604 0.0
C703 C 0.9206 0.4202 0.83782 0.0
C704 C 0.99378 0.44082 0.84041 0.0
O705 O 0.99531 0.44635 0.82212 0.0
C706 C 0.96762 0.37763 0.81586 0.0
C707 C 0.91013 0.41152 0.85452 0.0
C708 C 0.88959 0.41066 0.85431 0.0
C709 C 0.87934 0.40331 0.87052 0.0
C710 C 0.88982 0.39734 0.88704 0.0
C711 C 0.91024 0.39851 0.88765 0.0
C712 C 0.92041 0.40523 0.87116 0.0
O713 O 0.97931 0.42207 0.78229 0.0
O714 O 0.95883 0.44283 0.79806 0.0
O715 O 0.97058 0.39592 0.74531 0.0
O716 O 0.97679 0.37217 0.764 0.0
C717 C 0.97886 0.37896 0.74641 0.0
O718 O 0.97225 0.39418 0.82435 0.0
O719 O 0.9568 0.37709 0.8 0.0
O720 O 0.93295 0.43429 0.84212 0.0
O721 O 0.92714 0.40816 0.8243 0.0
H722 H 0.88161 0.41575 0.84163 0.0
H723 H 0.88196 0.39204 0.89974 0.0
H724 H 0.93619 0.40622 0.87153 0.0
O725 O 0.09089 0.92918 0.76473 0.0
Tb726 Tb 0.10178 0.95616 0.77727 0.0
Eu727 Eu 0.07474 0.95186 0.82539 0.0
C728 C 0.07601 0.92972 0.75261 0.0
O729 O 0.06626 0.9461 0.75075 0.0
C730 C 0.06177 0.97172 0.78759 0.0
O731 O 0.06655 0.97409 0.84832 0.0
C732 C 0.07575 0.91628 0.83813 0.0
C733 C 0.05562 0.98917 0.84365 0.0
O734 O 0.04717 0.9895 0.82645 0.0
C735 C 0.12071 0.96014 0.81849 0.0
C736 C 0.08598 0.90465 0.85313 0.0
C737 C 0.0864 0.88419 0.8513 0.0
C738 C 0.09578 0.8727 0.86545 0.0
C739 C 0.10433 0.88182 0.88161 0.0
C740 C 0.10352 0.90209 0.88408 0.0
C741 C 0.0947 0.91359 0.86952 0.0
O742 O 0.08028 0.97645 0.7883 0.0
O743 O 0.05534 0.95847 0.79976 0.0
O744 O 0.12889 0.96404 0.76215 0.0
O745 O 0.10216 0.97548 0.75182 0.0
C746 C 0.12087 0.97513 0.74904 0.0
O747 O 0.1044 0.96583 0.82686 0.0
O748 O 0.1211 0.95059 0.80182 0.0
O749 O 0.06318 0.92937 0.84449 0.0
O750 O 0.08636 0.92238 0.82327 0.0
H751 H 0.07939 0.87722 0.83893 0.0
H752 H 0.11113 0.87294 0.89282 0.0
H753 H 0.09403 0.92928 0.87126 0.0
O754 O 0.57391 0.09627 0.76367 0.0
Tb755 Tb 0.54744 0.10899 0.77585 0.0
Eu756 Eu 0.55025 0.0793 0.81943 0.0
C757 C 0.57237 0.08326 0.7496 0.0
O758 O 0.55502 0.07641 0.74526 0.0
C759 C 0.53155 0.06673 0.77983 0.0
O760 O 0.52687 0.06987 0.84063 0.0
C761 C 0.58467 0.07698 0.83482 0.0
C762 C 0.51115 0.06064 0.83457 0.0
O763 O 0.51027 0.05471 0.81638 0.0
C764 C 0.54442 0.12568 0.81748 0.0
C765 C 0.59514 0.08454 0.85203 0.0
C766 C 0.61563 0.08382 0.85231 0.0
C767 C 0.62599 0.09059 0.86862 0.0
C768 C 0.61572 0.09764 0.88484 0.0
C769 C 0.59525 0.09799 0.88507 0.0
C770 C 0.58496 0.0918 0.8684 0.0
O771 O 0.52669 0.08513 0.77778 0.0
O772 O 0.54529 0.06164 0.79215 0.0
O773 O 0.52397 0.12762 0.76457 0.0
O774 O 0.54965 0.12412 0.74781 0.0
C775 C 0.53259 0.1323 0.74834 0.0
O776 O 0.53736 0.10909 0.82394 0.0
O777 O 0.5545 0.12669 0.80117 0.0
O778 O 0.57067 0.06429 0.83834 0.0
O779 O 0.58024 0.08973 0.8211 0.0
H780 H 0.62351 0.07804 0.83986 0.0
H781 H 0.62378 0.10258 0.89754 0.0
H782 H 0.56914 0.09206 0.86836 0.0
O783 O 0.40399 0.57857 0.76006 0.0
Tb784 Tb 0.39986 0.54794 0.76776 0.0
Eu785 Eu 0.42048 0.55926 0.81651 0.0
C786 C 0.41912 0.5832 0.74909 0.0
O787 O 0.43296 0.57019 0.74679 0.0
C788 C 0.44419 0.54202 0.7783 0.0
O789 O 0.41999 0.53126 0.83412 0.0
C790 C 0.42899 0.58864 0.839 0.0
C791 C 0.42877 0.51518 0.82833 0.0
O792 O 0.4384 0.51519 0.81178 0.0
C793 C 0.378 0.54412 0.80743 0.0
C794 C 0.42036 0.59998 0.85534 0.0
C795 C 0.42226 0.62048 0.85543 0.0
C796 C 0.41466 0.63157 0.87094 0.0
C797 C 0.40567 0.62202 0.88661 0.0
C798 C 0.40399 0.6017 0.88705 0.0
C799 C 0.411 0.59066 0.87122 0.0
O800 O 0.42839 0.53496 0.77002 0.0
O801 O 0.44399 0.55405 0.79342 0.0
O802 O 0.37398 0.54478 0.74941 0.0
O803 O 0.39975 0.52948 0.74167 0.0
C804 C 0.38172 0.53283 0.73689 0.0
O805 O 0.38761 0.55911 0.81441 0.0
O806 O 0.38421 0.53488 0.79192 0.0
O807 O 0.43431 0.57059 0.84273 0.0
O808 O 0.42095 0.59072 0.82166 0.0
H809 H 0.42961 0.62778 0.84347 0.0
H810 H 0.40025 0.63049 0.89885 0.0
H811 H 0.40963 0.57492 0.87154 0.0
O812 O 0.93014 0.09989 0.74004 0.0
Tb813 Tb 0.95906 0.1078 0.72966 0.0
Eu814 Eu 0.95 0.08125 0.68503 0.0
C815 C 0.92796 0.08468 0.75155 0.0
O816 O 0.94258 0.07247 0.75349 0.0
C817 C 0.97279 0.06629 0.72102 0.0
O818 O 0.97143 0.07253 0.66157 0.0
C819 C 0.91432 0.08076 0.67261 0.0
C820 C 0.98572 0.06022 0.66513 0.0
O821 O 0.98574 0.05049 0.68162 0.0
C822 C 0.95938 0.12741 0.689 0.0
C823 C 0.9029 0.08956 0.65662 0.0
C824 C 0.8824 0.0884 0.65708 0.0
C825 C 0.87124 0.09619 0.64174 0.0
C826 C 0.88078 0.10468 0.62576 0.0
C827 C 0.90118 0.10555 0.62481 0.0
C828 C 0.91226 0.09834 0.64051 0.0
O829 O 0.97882 0.08439 0.72192 0.0
O830 O 0.95721 0.06204 0.71075 0.0
O831 O 0.97779 0.13127 0.74098 0.0
O832 O 0.96529 0.11108 0.76075 0.0
C833 C 0.97648 0.12626 0.75924 0.0
O834 O 0.96361 0.11078 0.68044 0.0
O835 O 0.95197 0.1283 0.70668 0.0
O836 O 0.92747 0.06777 0.66735 0.0
O837 O 0.92038 0.09268 0.68647 0.0
H838 H 0.87515 0.08143 0.6693 0.0
H839 H 0.87222 0.11023 0.61365 0.0
H840 H 0.92806 0.09894 0.6399 0.0
O841 O 0.41193 0.93005 0.74362 0.0
Tb842 Tb 0.39717 0.95431 0.72943 0.0
Eu843 Eu 0.42595 0.95173 0.68278 0.0
C844 C 0.42363 0.93373 0.75842 0.0
O845 O 0.42805 0.95196 0.7623 0.0
C846 C 0.43891 0.96957 0.72242 0.0
O847 O 0.43419 0.97617 0.66221 0.0
C848 C 0.42844 0.91795 0.66593 0.0
C849 C 0.44453 0.9912 0.6682 0.0
O850 O 0.45226 0.9908 0.68572 0.0
C851 C 0.37952 0.95784 0.68785 0.0
C852 C 0.42157 0.90746 0.64839 0.0
C853 C 0.42633 0.88759 0.64637 0.0
C854 C 0.42122 0.87744 0.62937 0.0
C855 C 0.41146 0.88718 0.61434 0.0
C856 C 0.40654 0.90694 0.61601 0.0
C857 C 0.41141 0.91708 0.63324 0.0
O858 O 0.42055 0.9748 0.72369 0.0
O859 O 0.44404 0.95597 0.70996 0.0
O860 O 0.37575 0.95275 0.75319 0.0
O861 O 0.38704 0.98028 0.74507 0.0
C862 C 0.3754 0.9713 0.75701 0.0
O863 O 0.39585 0.96447 0.6803 0.0
O864 O 0.37902 0.94783 0.70424 0.0
O865 O 0.44099 0.93219 0.66293 0.0
O866 O 0.41542 0.9219 0.67955 0.0
H867 H 0.43426 0.88014 0.65786 0.0
H868 H 0.40765 0.87924 0.60116 0.0
H869 H 0.40784 0.93241 0.63463 0.0
O870 O 0.56875 0.40563 0.73929 0.0
Tb871 Tb 0.53763 0.40266 0.73327 0.0
Eu872 Eu 0.55175 0.42196 0.68721 0.0
C873 C 0.57443 0.42026 0.75044 0.0
O874 O 0.56186 0.43417 0.75423 0.0
C875 C 0.53371 0.44731 0.72422 0.0
O876 O 0.52497 0.42479 0.66807 0.0
C877 C 0.58351 0.42857 0.66756 0.0
C878 C 0.50768 0.42793 0.67586 0.0
O879 O 0.50622 0.42959 0.69489 0.0
C880 C 0.53224 0.38101 0.69434 0.0
C881 C 0.59563 0.41917 0.65227 0.0
C882 C 0.61615 0.41977 0.65382 0.0
C883 C 0.62792 0.41149 0.63918 0.0
C884 C 0.61906 0.40318 0.62275 0.0
C885 C 0.59874 0.40284 0.62069 0.0
C886 C 0.587 0.41044 0.63569 0.0
O887 O 0.52644 0.43192 0.73303 0.0
O888 O 0.54577 0.44639 0.70915 0.0
O889 O 0.53486 0.37623 0.75079 0.0
O890 O 0.51983 0.40179 0.75977 0.0
C891 C 0.52323 0.38359 0.76383 0.0
O892 O 0.54821 0.38913 0.68766 0.0
O893 O 0.5229 0.389 0.70891 0.0
O894 O 0.56621 0.43493 0.66219 0.0
O895 O 0.58354 0.42049 0.68501 0.0
H896 H 0.62294 0.42667 0.66634 0.0
H897 H 0.62813 0.39722 0.61121 0.0
H898 H 0.57127 0.41011 0.63415 0.0
O899 O 0.09953 0.57119 0.73897 0.0
Tb900 Tb 0.10333 0.54019 0.7331 0.0
Eu901 Eu 0.08319 0.55354 0.68608 0.0
C902 C 0.0842 0.57674 0.74916 0.0
O903 O 0.07006 0.56414 0.75192 0.0
C904 C 0.05902 0.53415 0.72259 0.0
O905 O 0.0823 0.52626 0.6676 0.0
C906 C 0.07514 0.58381 0.66482 0.0
C907 C 0.08032 0.50896 0.67568 0.0
O908 O 0.07901 0.50766 0.69474 0.0
C909 C 0.12523 0.5367 0.69376 0.0
C910 C 0.08421 0.59501 0.64866 0.0
C911 C 0.08405 0.61555 0.64927 0.0
C912 C 0.09201 0.62649 0.63383 0.0
C913 C 0.0996 0.61672 0.61753 0.0
C914 C 0.09954 0.59632 0.61644 0.0
C915 C 0.09224 0.58547 0.63224 0.0
O916 O 0.07468 0.52739 0.73133 0.0
O917 O 0.05932 0.54704 0.70826 0.0
O918 O 0.10334 0.52257 0.75977 0.0
O919 O 0.12928 0.53724 0.7514 0.0
C920 C 0.12146 0.52579 0.76433 0.0
O921 O 0.11603 0.55222 0.68746 0.0
O922 O 0.11869 0.527 0.70885 0.0
O923 O 0.06911 0.56608 0.66066 0.0
O924 O 0.0834 0.58517 0.68214 0.0
H925 H 0.07773 0.623 0.66172 0.0
H926 H 0.10526 0.62509 0.60535 0.0
H927 H 0.09225 0.56969 0.63143 0.0
O928 O 0.75841 0.93538 0.40713 0.0
Tb929 Tb 0.77244 0.96016 0.39309 0.0
Eu930 Eu 0.81943 0.95544 0.42013 0.0
C931 C 0.74366 0.93949 0.41871 0.0
O932 O 0.73942 0.95789 0.42176 0.0
C933 C 0.77969 0.97162 0.43633 0.0
O934 O 0.84135 0.97782 0.4304 0.0
C935 C 0.8345 0.92074 0.41831 0.0
C936 C 0.83515 0.99475 0.43703 0.0
O937 O 0.81632 0.99738 0.43935 0.0
C938 C 0.81299 0.96641 0.37511 0.0
C939 C 0.85144 0.91026 0.41005 0.0
C940 C 0.8512 0.88972 0.40936 0.0
C941 C 0.86749 0.87936 0.40242 0.0
C942 C 0.88415 0.88972 0.39668 0.0
C943 C 0.88484 0.91014 0.39767 0.0
C944 C 0.86826 0.92043 0.404 0.0
O945 O 0.77671 0.9785 0.41867 0.0
O946 O 0.79315 0.95838 0.43958 0.0
O947 O 0.74778 0.95909 0.37274 0.0
O948 O 0.75753 0.98656 0.38296 0.0
C949 C 0.74473 0.97778 0.37208 0.0
O950 O 0.82072 0.97188 0.39177 0.0
O951 O 0.79768 0.95488 0.37455 0.0
O952 O 0.83832 0.93324 0.43239 0.0
O953 O 0.8211 0.92695 0.40597 0.0
H954 H 0.83839 0.88182 0.41426 0.0
H955 H 0.8969 0.88178 0.39169 0.0
H956 H 0.86868 0.93621 0.40484 0.0
O957 O 0.56539 0.74382 0.39138 0.0
Tb958 Tb 0.53862 0.75972 0.39668 0.0
Eu959 Eu 0.54391 0.82784 0.40746 0.0
C960 C 0.57817 0.74211 0.40559 0.0
O961 O 0.57478 0.75103 0.42223 0.0
C962 C 0.53072 0.79006 0.43054 0.0
O963 O 0.51836 0.84727 0.4012 0.0
C964 C 0.57692 0.84497 0.41452 0.0
C965 C 0.50135 0.83841 0.40088 0.0
O966 O 0.50107 0.81928 0.40183 0.0
C967 C 0.53932 0.79608 0.37255 0.0
C968 C 0.58644 0.86414 0.41616 0.0
C969 C 0.60572 0.865 0.42311 0.0
C970 C 0.61569 0.88284 0.42378 0.0
C971 C 0.60623 0.89981 0.41747 0.0
C972 C 0.58723 0.89915 0.40985 0.0
C973 C 0.57729 0.88119 0.40932 0.0
O974 O 0.54371 0.78163 0.41924 0.0
O975 O 0.53099 0.80928 0.4318 0.0
O976 O 0.52359 0.73261 0.4048 0.0
O977 O 0.50878 0.75357 0.38765 0.0
C978 C 0.50755 0.73625 0.39523 0.0
O979 O 0.54793 0.80135 0.38881 0.0
O980 O 0.53699 0.77724 0.37023 0.0
O981 O 0.56465 0.83988 0.42842 0.0
O982 O 0.57117 0.83988 0.39691 0.0
H983 H 0.61309 0.85176 0.42764 0.0
H984 H 0.61429 0.91342 0.41717 0.0
H985 H 0.56272 0.8804 0.40321 0.0
O986 O 0.73969 0.56414 0.4024 0.0
Tb987 Tb 0.73472 0.53298 0.39861 0.0
Eu988 Eu 0.68749 0.54454 0.41881 0.0
C989 C 0.75044 0.56993 0.41726 0.0
O990 O 0.75471 0.55725 0.43094 0.0
C991 C 0.72527 0.52905 0.44341 0.0
O992 O 0.67226 0.51543 0.42176 0.0
C993 C 0.66376 0.5729 0.42653 0.0
C994 C 0.68201 0.49898 0.42034 0.0
O995 O 0.70089 0.4996 0.41725 0.0
C996 C 0.69572 0.52926 0.37636 0.0
C997 C 0.64895 0.58456 0.41593 0.0
C998 C 0.65178 0.60483 0.41403 0.0
C999 C 0.63806 0.61631 0.40413 0.0
C1000 C 0.62121 0.60758 0.39665 0.0
C1001 C 0.6177 0.58763 0.39897 0.0
C1002 C 0.63179 0.57598 0.40825 0.0
O1003 O 0.73372 0.52151 0.42792 0.0
O1004 O 0.71026 0.54108 0.44262 0.0
O1005 O 0.76051 0.51418 0.39827 0.0
O1006 O 0.75497 0.53255 0.37398 0.0
C1007 C 0.76671 0.51955 0.38117 0.0
O1008 O 0.68946 0.54451 0.38599 0.0
O1009 O 0.71117 0.51977 0.38228 0.0
O1010 O 0.6596 0.55452 0.4301 0.0
O1011 O 0.68208 0.57571 0.42146 0.0
H1012 H 0.66462 0.61167 0.42026 0.0
H1013 H 0.61028 0.61657 0.38956 0.0
H1014 H 0.62907 0.56052 0.40998 0.0
O1015 O 0.93055 0.73963 0.3972 0.0
Tb1016 Tb 0.96141 0.73185 0.3974 0.0
Eu1017 Eu 0.9474 0.68443 0.41788 0.0
C1018 C 0.92329 0.74908 0.41231 0.0
O1019 O 0.93346 0.74956 0.42853 0.0
C1020 C 0.96354 0.72228 0.44254 0.0
O1021 O 0.97559 0.66744 0.42092 0.0
C1022 C 0.91727 0.66247 0.42459 0.0
C1023 C 0.9924 0.67646 0.4232 0.0
O1024 O 0.99268 0.69557 0.42369 0.0
C1025 C 0.96531 0.69218 0.37646 0.0
C1026 C 0.90573 0.64756 0.41399 0.0
C1027 C 0.8852 0.64829 0.41482 0.0
C1028 C 0.87383 0.63467 0.40451 0.0
C1029 C 0.88319 0.62023 0.39347 0.0
C1030 C 0.90356 0.6189 0.39293 0.0
C1031 C 0.91486 0.6326 0.40316 0.0
O1032 O 0.97159 0.73051 0.42717 0.0
O1033 O 0.95148 0.70725 0.44169 0.0
O1034 O 0.97849 0.75871 0.39921 0.0
O1035 O 0.97001 0.74818 0.37135 0.0
C1036 C 0.9794 0.76183 0.38053 0.0
O1037 O 0.94936 0.68615 0.38508 0.0
O1038 O 0.97509 0.70694 0.38358 0.0
O1039 O 0.93514 0.65769 0.4297 0.0
O1040 O 0.91582 0.6805 0.41817 0.0
H1041 H 0.87808 0.65948 0.42344 0.0
H1042 H 0.87456 0.60931 0.38593 0.0
H1043 H 0.93063 0.63163 0.4026 0.0
O1044 O 0.76537 0.56534 0.10379 0.0
Tb1045 Tb 0.77113 0.53418 0.10605 0.0
Eu1046 Eu 0.81763 0.54961 0.08563 0.0
C1047 C 0.75502 0.57171 0.08889 0.0
O1048 O 0.75181 0.55983 0.07423 0.0
C1049 C 0.78044 0.53132 0.06103 0.0
O1050 O 0.83658 0.52269 0.08281 0.0
C1051 C 0.83764 0.58122 0.07918 0.0
C1052 C 0.8287 0.50542 0.07981 0.0
O1053 O 0.80967 0.50403 0.07838 0.0
C1054 C 0.81089 0.53029 0.12689 0.0
C1055 C 0.85307 0.59312 0.08872 0.0
C1056 C 0.85201 0.61369 0.08789 0.0
C1057 C 0.86679 0.62523 0.0963 0.0
C1058 C 0.88284 0.61608 0.10498 0.0
C1059 C 0.88443 0.59575 0.10556 0.0
C1060 C 0.86931 0.58425 0.09782 0.0
O1061 O 0.77222 0.52347 0.0765 0.0
O1062 O 0.79507 0.54392 0.06175 0.0
O1063 O 0.75257 0.53055 0.13182 0.0
O1064 O 0.74491 0.51588 0.10569 0.0
C1065 C 0.74 0.51886 0.12377 0.0
O1066 O 0.81663 0.54643 0.11841 0.0
O1067 O 0.79586 0.52061 0.12019 0.0
O1068 O 0.8428 0.56391 0.07269 0.0
O1069 O 0.8202 0.58136 0.08725 0.0
H1070 H 0.83978 0.62066 0.0807 0.0
H1071 H 0.89454 0.62492 0.11097 0.0
H1072 H 0.87053 0.5685 0.09831 0.0
O1073 O 0.93455 0.76201 0.10237 0.0
Tb1074 Tb 0.96554 0.76844 0.10611 0.0
Eu1075 Eu 0.95297 0.81516 0.08553 0.0
C1076 C 0.92933 0.75108 0.0874 0.0
O1077 O 0.9422 0.74781 0.07361 0.0
C1078 C 0.97052 0.77755 0.0617 0.0
O1079 O 0.98005 0.8339 0.08278 0.0
C1080 C 0.9221 0.83552 0.07733 0.0
C1081 C 0.99749 0.8262 0.08032 0.0
O1082 O 0.9992 0.80717 0.07938 0.0
C1083 C 0.97079 0.80798 0.12761 0.0
C1084 C 0.9106 0.85187 0.08545 0.0
C1085 C 0.89011 0.85153 0.08387 0.0
C1086 C 0.87893 0.86723 0.0908 0.0
C1087 C 0.88837 0.88349 0.09879 0.0
C1088 C 0.90876 0.88432 0.10004 0.0
C1089 C 0.91985 0.86827 0.09378 0.0
O1090 O 0.97821 0.7698 0.07743 0.0
O1091 O 0.95791 0.79208 0.06212 0.0
O1092 O 0.96854 0.74985 0.13184 0.0
O1093 O 0.98313 0.74189 0.10567 0.0
C1094 C 0.97993 0.73706 0.12372 0.0
O1095 O 0.95551 0.81506 0.1185 0.0
O1096 O 0.97968 0.79243 0.12104 0.0
O1097 O 0.93964 0.83975 0.07078 0.0
O1098 O 0.92131 0.81877 0.08671 0.0
H1099 H 0.88289 0.83911 0.07724 0.0
H1100 H 0.87975 0.8958 0.10373 0.0
H1101 H 0.93562 0.86886 0.09479 0.0
O1102 O 0.73971 0.92987 0.09986 0.0
Tb1103 Tb 0.72956 0.95878 0.10822 0.0
Eu1104 Eu 0.68256 0.95742 0.0833 0.0
C1105 C 0.75179 0.92801 0.08502 0.0
O1106 O 0.75479 0.94312 0.07366 0.0
C1107 C 0.72232 0.97061 0.06427 0.0
O1108 O 0.66249 0.98103 0.07253 0.0
C1109 C 0.66516 0.92401 0.0859 0.0
C1110 C 0.67004 0.9978 0.06711 0.0
O1111 O 0.68909 0.99974 0.06699 0.0
C1112 C 0.68962 0.96509 0.12816 0.0
C1113 C 0.64995 0.91322 0.09672 0.0
C1114 C 0.65178 0.89285 0.09779 0.0
C1115 C 0.63733 0.88158 0.1068 0.0
C1116 C 0.6209 0.89079 0.11467 0.0
C1117 C 0.61838 0.91102 0.11328 0.0
C1118 C 0.6332 0.92239 0.10459 0.0
O1119 O 0.72832 0.97619 0.08165 0.0
O1120 O 0.70739 0.95883 0.06195 0.0
O1121 O 0.75894 0.95799 0.1206 0.0
O1122 O 0.74144 0.98285 0.1258 0.0
C1123 C 0.75839 0.97496 0.12894 0.0
O1124 O 0.68303 0.97287 0.112 0.0
O1125 O 0.70537 0.95416 0.12831 0.0
O1126 O 0.65937 0.93796 0.07405 0.0
O1127 O 0.68151 0.92798 0.09523 0.0
H1128 H 0.6643 0.88571 0.09125 0.0
H1129 H 0.60944 0.88198 0.12114 0.0
H1130 H 0.63136 0.93802 0.10326 0.0
O1131 O 0.56524 0.75232 0.11561 0.0
Tb1132 Tb 0.53518 0.74248 0.1158 0.0
Eu1133 Eu 0.55177 0.6812 0.09608 0.0
C1134 C 0.57348 0.75834 0.09936 0.0
O1135 O 0.56395 0.75643 0.08285 0.0
C1136 C 0.53684 0.72045 0.07565 0.0
O1137 O 0.52705 0.65961 0.09585 0.0
C1138 C 0.58679 0.66689 0.09697 0.0
C1139 C 0.51335 0.66191 0.08258 0.0
O1140 O 0.51516 0.67613 0.06986 0.0
C1141 C 0.54297 0.70631 0.1358 0.0
C1142 C 0.59764 0.64851 0.09892 0.0
C1143 C 0.61803 0.6486 0.0964 0.0
C1144 C 0.62892 0.63167 0.10004 0.0
C1145 C 0.61924 0.61455 0.10552 0.0
C1146 C 0.59893 0.61417 0.10786 0.0
C1147 C 0.58813 0.63128 0.10474 0.0
O1148 O 0.52707 0.72246 0.09212 0.0
O1149 O 0.54684 0.70416 0.07253 0.0
O1150 O 0.52661 0.77273 0.11078 0.0
O1151 O 0.50957 0.75521 0.1299 0.0
C1152 C 0.51152 0.77249 0.1223 0.0
O1153 O 0.54832 0.70525 0.1175 0.0
O1154 O 0.53756 0.72371 0.14116 0.0
O1155 O 0.5771 0.66975 0.0806 0.0
O1156 O 0.5773 0.67271 0.11265 0.0
H1157 H 0.62545 0.66196 0.09233 0.0
H1158 H 0.6277 0.60151 0.10847 0.0
H1159 H 0.57248 0.63126 0.107 0.0
O1160 O 0.41291 0.76626 0.94189 0.0
Tb1161 Tb 0.40869 0.77203 0.97291 0.0
Eu1162 Eu 0.4283 0.82001 0.96015 0.0
C1163 C 0.42821 0.75599 0.93642 0.0
O1164 O 0.44234 0.7533 0.94906 0.0
C1165 C 0.45298 0.78356 0.98013 0.0
O1166 O 0.42819 0.83887 0.98724 0.0
C1167 C 0.43661 0.84099 0.92962 0.0
C1168 C 0.43032 0.83128 0.00478 0.0
O1169 O 0.43233 0.81234 0.00655 0.0
C1170 C 0.38624 0.81083 0.97568 0.0
C1171 C 0.42681 0.85555 0.91693 0.0
C1172 C 0.43056 0.85546 0.89667 0.0
C1173 C 0.42129 0.86896 0.88433 0.0
C1174 C 0.4084 0.88261 0.8923 0.0
C1175 C 0.40495 0.88338 0.91242 0.0
C1176 C 0.41411 0.8698 0.92477 0.0
O1177 O 0.43749 0.77355 0.98554 0.0
O1178 O 0.45266 0.79892 0.96841 0.0
O1179 O 0.38262 0.75371 0.9743 0.0
O1180 O 0.40743 0.74553 0.99084 0.0
C1181 C 0.38958 0.74089 0.98639 0.0
O1182 O 0.39557 0.81711 0.96022 0.0
O1183 O 0.39316 0.79626 0.98586 0.0
O1184 O 0.44052 0.84643 0.94762 0.0
O1185 O 0.43039 0.82285 0.92842 0.0
H1186 H 0.44066 0.84496 0.89053 0.0
H1187 H 0.40155 0.89329 0.88282 0.0
H1188 H 0.41136 0.87034 0.94035 0.0
O1189 O 0.40952 0.74087 0.56151 0.0
Tb1190 Tb 0.39367 0.72965 0.53642 0.0
Eu1191 Eu 0.42086 0.68522 0.54072 0.0
C1192 C 0.42164 0.7555 0.55873 0.0
O1193 O 0.42572 0.76068 0.54072 0.0
C1194 C 0.43499 0.72276 0.51874 0.0
O1195 O 0.43016 0.66071 0.52078 0.0
C1196 C 0.42005 0.67435 0.57711 0.0
C1197 C 0.44016 0.66464 0.50484 0.0
O1198 O 0.44669 0.68243 0.5022 0.0
C1199 C 0.37522 0.68906 0.53061 0.0
C1200 C 0.41171 0.65846 0.58914 0.0
C1201 C 0.41351 0.65907 0.60969 0.0
C1202 C 0.40641 0.6436 0.62127 0.0
C1203 C 0.39807 0.62741 0.61199 0.0
C1204 C 0.39644 0.62645 0.59164 0.0
C1205 C 0.40295 0.64214 0.5802 0.0
O1206 O 0.41648 0.72566 0.51472 0.0
O1207 O 0.44016 0.71068 0.53271 0.0
O1208 O 0.37436 0.75481 0.54072 0.0
O1209 O 0.38253 0.74697 0.51199 0.0
C1210 C 0.37268 0.75934 0.52237 0.0
O1211 O 0.39205 0.6816 0.52531 0.0
O1212 O 0.37425 0.70504 0.54114 0.0
O1213 O 0.43385 0.66918 0.56476 0.0
O1214 O 0.4077 0.68712 0.56971 0.0
H1215 H 0.42042 0.67149 0.61662 0.0
H1216 H 0.39312 0.61512 0.62066 0.0
H1217 H 0.4018 0.6414 0.56443 0.0
O1218 O 0.76494 0.40216 0.57427 0.0
Tb1219 Tb 0.7712 0.39672 0.54352 0.0
Eu1220 Eu 0.81916 0.41831 0.55404 0.0
C1221 C 0.75422 0.41745 0.57882 0.0
O1222 O 0.75096 0.43059 0.5653 0.0
C1223 C 0.78108 0.4409 0.53679 0.0
O1224 O 0.83498 0.42064 0.52507 0.0
C1225 C 0.84188 0.42832 0.58267 0.0
C1226 C 0.82573 0.41788 0.50845 0.0
O1227 O 0.80707 0.4136 0.50885 0.0
C1228 C 0.81101 0.37481 0.54069 0.0
C1229 C 0.85745 0.41985 0.59505 0.0
C1230 C 0.85602 0.42162 0.6155 0.0
C1231 C 0.87069 0.4141 0.62763 0.0
C1232 C 0.88712 0.40535 0.61924 0.0
C1233 C 0.88906 0.40382 0.59896 0.0
C1234 C 0.87402 0.41071 0.58683 0.0
O1235 O 0.77339 0.42487 0.52964 0.0
O1236 O 0.79554 0.44104 0.5495 0.0
O1237 O 0.75123 0.37185 0.54238 0.0
O1238 O 0.74526 0.39663 0.52487 0.0
C1239 C 0.73928 0.37932 0.5297 0.0
O1240 O 0.81798 0.38546 0.55498 0.0
O1241 O 0.79497 0.37973 0.53152 0.0
O1242 O 0.84608 0.43158 0.56422 0.0
O1243 O 0.82407 0.42163 0.58534 0.0
H1244 H 0.84349 0.42879 0.62197 0.0
H1245 H 0.8987 0.39996 0.6286 0.0
H1246 H 0.87551 0.40943 0.57113 0.0
O1247 O 0.09802 0.76352 0.56752 0.0
Tb1248 Tb 0.0987 0.77091 0.53657 0.0
Eu1249 Eu 0.07695 0.81756 0.55115 0.0
C1250 C 0.08291 0.75381 0.57439 0.0
O1251 O 0.06734 0.75218 0.56337 0.0
C1252 C 0.05345 0.77946 0.5337 0.0
O1253 O 0.07512 0.83468 0.52296 0.0
C1254 C 0.06838 0.83963 0.58076 0.0
C1255 C 0.07294 0.82592 0.506 0.0
O1256 O 0.07185 0.80685 0.50545 0.0
C1257 C 0.119 0.81068 0.53495 0.0
C1258 C 0.07786 0.85477 0.59293 0.0
C1259 C 0.07467 0.85463 0.61325 0.0
C1260 C 0.08374 0.86851 0.62527 0.0
C1261 C 0.09579 0.8827 0.61689 0.0
C1262 C 0.09868 0.88347 0.59669 0.0
C1263 C 0.08983 0.8694 0.58465 0.0
O1264 O 0.06913 0.77168 0.5258 0.0
O1265 O 0.05376 0.7943 0.54605 0.0
O1266 O 0.12562 0.75565 0.52871 0.0
O1267 O 0.09855 0.74426 0.51899 0.0
C1268 C 0.11734 0.74184 0.51872 0.0
O1269 O 0.10977 0.81602 0.55081 0.0
O1270 O 0.11198 0.79666 0.52409 0.0
O1271 O 0.06429 0.84428 0.56258 0.0
O1272 O 0.075 0.82171 0.58268 0.0
H1273 H 0.06523 0.8437 0.61971 0.0
H1274 H 0.10248 0.89369 0.62613 0.0
H1275 H 0.0922 0.8699 0.56901 0.0
O1276 O 0.73801 0.10088 0.57036 0.0
Tb1277 Tb 0.73352 0.10554 0.53924 0.0
Eu1278 Eu 0.68572 0.08463 0.54973 0.0
C1279 C 0.74832 0.08569 0.57601 0.0
O1280 O 0.75217 0.07202 0.56318 0.0
C1281 C 0.72346 0.06111 0.53235 0.0
O1282 O 0.67039 0.08389 0.52048 0.0
C1283 C 0.66242 0.07447 0.57787 0.0
C1284 C 0.68053 0.08577 0.50426 0.0
O1285 O 0.69949 0.08803 0.50546 0.0
C1286 C 0.69422 0.12772 0.53602 0.0
C1287 C 0.64631 0.08256 0.58984 0.0
C1288 C 0.647 0.08058 0.61033 0.0
C1289 C 0.63161 0.08748 0.62199 0.0
C1290 C 0.61528 0.09583 0.61301 0.0
C1291 C 0.61405 0.09748 0.59266 0.0
C1292 C 0.62979 0.09125 0.5811 0.0
O1293 O 0.73254 0.07687 0.52632 0.0
O1294 O 0.70841 0.06116 0.54437 0.0
O1295 O 0.75374 0.13026 0.53895 0.0
O1296 O 0.7597 0.10589 0.52091 0.0
C1297 C 0.76577 0.12303 0.52621 0.0
O1298 O 0.68743 0.11746 0.55069 0.0
O1299 O 0.70989 0.12221 0.52659 0.0
O1300 O 0.65874 0.07112 0.55932 0.0
O1301 O 0.68003 0.0815 0.58097 0.0
H1302 H 0.65947 0.07366 0.61718 0.0
H1303 H 0.60316 0.10072 0.62195 0.0
H1304 H 0.62885 0.09257 0.56536 0.0
O1305 O 0.10314 0.73838 0.93403 0.0
Tb1306 Tb 0.10525 0.7327 0.96531 0.0
Eu1307 Eu 0.08503 0.68599 0.95095 0.0
C1308 C 0.08778 0.74778 0.9273 0.0
O1309 O 0.07277 0.75023 0.93892 0.0
C1310 C 0.0604 0.72321 0.96903 0.0
O1311 O 0.08242 0.66678 0.97776 0.0
C1312 C 0.07845 0.6665 0.91909 0.0
C1313 C 0.07897 0.67432 0.99512 0.0
O1314 O 0.07681 0.69325 0.99674 0.0
C1315 C 0.1263 0.69339 0.9696 0.0
C1316 C 0.08882 0.65205 0.90681 0.0
C1317 C 0.0872 0.65309 0.8863 0.0
C1318 C 0.09728 0.63979 0.87436 0.0
C1319 C 0.1088 0.62536 0.8831 0.0
C1320 C 0.11017 0.62371 0.90345 0.0
C1321 C 0.10018 0.63713 0.91531 0.0
O1322 O 0.07588 0.73184 0.97639 0.0
O1323 O 0.06103 0.70818 0.95695 0.0
O1324 O 0.13174 0.74991 0.96957 0.0
O1325 O 0.10549 0.75939 0.98293 0.0
C1326 C 0.12394 0.76316 0.98065 0.0
O1327 O 0.1178 0.68718 0.95363 0.0
O1328 O 0.11895 0.70802 0.97934 0.0
O1329 O 0.07272 0.66062 0.93646 0.0
O1330 O 0.08556 0.68434 0.91912 0.0
H1331 H 0.07817 0.66425 0.87967 0.0
H1332 H 0.11604 0.61465 0.87397 0.0
H1333 H 0.10133 0.63598 0.93105 0.0
O1334 O 0.76532 0.10088 0.93182 0.0
Tb1335 Tb 0.7747 0.10967 0.96089 0.0
Eu1336 Eu 0.81944 0.08232 0.95672 0.0
C1337 C 0.75262 0.08656 0.93006 0.0
O1338 O 0.74839 0.07609 0.94553 0.0
C1339 C 0.77955 0.06577 0.97258 0.0
O1340 O 0.84047 0.0713 0.97951 0.0
C1341 C 0.83494 0.08254 0.92218 0.0
C1342 C 0.83354 0.06484 0.99622 0.0
O1343 O 0.81457 0.06336 0.99835 0.0
C1344 C 0.81555 0.12771 0.96771 0.0
C1345 C 0.85193 0.09002 0.91133 0.0
C1346 C 0.85218 0.08826 0.89086 0.0
C1347 C 0.86858 0.09421 0.88014 0.0
C1348 C 0.88489 0.1015 0.89005 0.0
C1349 C 0.8851 0.10292 0.91048 0.0
C1350 C 0.8684 0.09752 0.92112 0.0
O1351 O 0.77505 0.08336 0.97871 0.0
O1352 O 0.79325 0.06286 0.95953 0.0
O1353 O 0.74559 0.12254 0.95885 0.0
O1354 O 0.76204 0.12723 0.98456 0.0
C1355 C 0.74551 0.13068 0.97594 0.0
O1356 O 0.8226 0.11067 0.97283 0.0
O1357 O 0.79953 0.1292 0.95725 0.0
O1358 O 0.83863 0.06908 0.93538 0.0
O1359 O 0.8216 0.09526 0.92769 0.0
H1360 H 0.83969 0.08216 0.88329 0.0
H1361 H 0.89771 0.10576 0.88178 0.0
H1362 H 0.86846 0.09847 0.93693 0.0
O1363 O 0.74004 0.39747 0.93518 0.0
Tb1364 Tb 0.73253 0.39546 0.96603 0.0
Eu1365 Eu 0.68568 0.41682 0.95155 0.0
C1366 C 0.75106 0.41222 0.92964 0.0
O1367 O 0.75349 0.42675 0.94187 0.0
C1368 C 0.72314 0.43998 0.97033 0.0
O1369 O 0.66655 0.41894 0.97853 0.0
C1370 C 0.66618 0.42438 0.91987 0.0
C1371 C 0.67411 0.42227 0.99591 0.0
O1372 O 0.69302 0.42474 0.99747 0.0
C1373 C 0.69263 0.37427 0.96848 0.0
C1374 C 0.6513 0.41462 0.90755 0.0
C1375 C 0.65222 0.41647 0.88704 0.0
C1376 C 0.63857 0.40683 0.87506 0.0
C1377 C 0.62396 0.39551 0.88382 0.0
C1378 C 0.62249 0.39397 0.90414 0.0
C1379 C 0.63619 0.40349 0.91603 0.0
O1380 O 0.72993 0.42412 0.97864 0.0
O1381 O 0.70894 0.43992 0.95727 0.0
O1382 O 0.74932 0.36948 0.97388 0.0
O1383 O 0.75973 0.39728 0.98257 0.0
C1384 C 0.76308 0.37866 0.98312 0.0
O1385 O 0.68621 0.38397 0.95328 0.0
O1386 O 0.70778 0.38028 0.97844 0.0
O1387 O 0.66062 0.43012 0.93734 0.0
O1388 O 0.68376 0.41666 0.91973 0.0
H1389 H 0.66355 0.4253 0.88043 0.0
H1390 H 0.61302 0.3885 0.87477 0.0
H1391 H 0.63511 0.40214 0.93177 0.0
H1392 H 0.03516 0.54585 0.2626 0.0
H1393 H 0.95751 0.46603 0.24233 0.0
H1394 H 0.02623 0.52209 0.20503 0.0
H1395 H 0.98084 0.47571 0.29997 0.0
H1396 H 0.98543 0.48303 0.22833 0.0
H1397 H 0.01893 0.51751 0.27667 0.0
C1398 C 0.03019 0.53436 0.25295 0.0
C1399 C 0.03189 0.53631 0.23263 0.0
C1400 C 0.98477 0.48107 0.24401 0.0
C1401 C 0.01274 0.50409 0.2486 0.0
C1402 C 0.96881 0.47136 0.25202 0.0
C1403 C 0.96684 0.46963 0.27234 0.0
C1404 C 0.9986 0.48963 0.25643 0.0
C1405 C 0.98186 0.47676 0.28423 0.0
C1406 C 0.02092 0.51817 0.261 0.0
C1407 C 0.02521 0.52107 0.22078 0.0
N1408 N 0.99692 0.48689 0.27611 0.0
N1409 N 0.01548 0.50578 0.22892 0.0
H1410 H 0.97239 0.02267 0.2076 0.0
H1411 H 0.02459 0.97391 0.29749 0.0
H1412 H 0.94057 0.01664 0.26167 0.0
H1413 H 0.01677 0.94123 0.2442 0.0
H1414 H 0.00297 0.99942 0.28436 0.0
H1415 H 0.99846 0.00221 0.2212 0.0
C1416 C 0.97107 0.01738 0.22245 0.0
C1417 C 0.95429 0.02121 0.23353 0.0
C1418 C 0.00638 0.98677 0.27553 0.0
C1419 C 0.98413 0.99852 0.24915 0.0
C1420 C 0.0187 0.97232 0.2829 0.0
C1421 C 0.02238 0.95547 0.27188 0.0
C1422 C 0.9984 0.98456 0.25682 0.0
C1423 C 0.01428 0.954 0.25314 0.0
C1424 C 0.98588 0.00574 0.23011 0.0
C1425 C 0.95324 0.0139 0.25264 0.0
N1426 N 0.00271 0.96844 0.24612 0.0
N1427 N 0.96804 0.00291 0.25992 0.0
H1428 H 0.53155 0.02911 0.30424 0.0
H1429 H 0.47344 0.98309 0.21387 0.0
H1430 H 0.5475 0.03925 0.24423 0.0
H1431 H 0.48281 0.95355 0.26867 0.0
H1432 H 0.49097 0.01163 0.2269 0.0
H1433 H 0.50359 0.00957 0.29303 0.0
C1434 C 0.52871 0.02783 0.28873 0.0
C1435 C 0.54175 0.03568 0.27509 0.0
C1436 C 0.48876 0.99901 0.23614 0.0
C1437 C 0.5101 0.01352 0.26225 0.0
C1438 C 0.47877 0.98279 0.22876 0.0
C1439 C 0.477 0.96588 0.24013 0.0
C1440 C 0.49648 0.99838 0.25514 0.0
C1441 C 0.48413 0.96622 0.25934 0.0
C1442 C 0.51292 0.01658 0.28235 0.0
C1443 C 0.53773 0.03333 0.25515 0.0
N1444 N 0.49363 0.98217 0.26622 0.0
N1445 N 0.52232 0.02232 0.24929 0.0
H1446 H 0.53214 0.48405 0.20064 0.0
H1447 H 0.47136 0.52637 0.29081 0.0
H1448 H 0.54324 0.46622 0.25994 0.0
H1449 H 0.49198 0.56181 0.24303 0.0
H1450 H 0.48746 0.4979 0.27591 0.0
H1451 H 0.50641 0.50606 0.21258 0.0
C1452 C 0.52861 0.48422 0.21606 0.0
C1453 C 0.53967 0.47336 0.22937 0.0
C1454 C 0.48808 0.51188 0.26859 0.0
C1455 C 0.51054 0.49825 0.24301 0.0
C1456 C 0.47893 0.52806 0.27703 0.0
C1457 C 0.48059 0.54645 0.26823 0.0
C1458 C 0.49836 0.51411 0.25099 0.0
C1459 C 0.49056 0.54791 0.25039 0.0
C1460 C 0.51412 0.49685 0.22286 0.0
C1461 C 0.53492 0.47437 0.24927 0.0
N1462 N 0.49908 0.53195 0.24235 0.0
N1463 N 0.52074 0.48671 0.25554 0.0
H1464 H 0.2016 0.02728 0.53524 0.0
H1465 H 0.29534 0.97775 0.48626 0.0
H1466 H 0.25901 0.02742 0.56094 0.0
H1467 H 0.23676 0.95561 0.48023 0.0
H1468 H 0.28242 0.00547 0.50505 0.0
H1469 H 0.21502 0.0104 0.50648 0.0
C1470 C 0.2171 0.02428 0.53453 0.0
C1471 C 0.22923 0.02849 0.55044 0.0
C1472 C 0.2724 0.99477 0.49915 0.0
C1473 C 0.24458 0.00953 0.51785 0.0
C1474 C 0.27973 0.97907 0.48839 0.0
C1475 C 0.26707 0.96438 0.48195 0.0
C1476 C 0.2523 0.99582 0.50312 0.0
C1477 C 0.24699 0.96659 0.48519 0.0
C1478 C 0.22471 0.01461 0.51824 0.0
C1479 C 0.24918 0.02419 0.54899 0.0
N1480 N 0.24021 0.98194 0.49569 0.0
N1481 N 0.25623 0.01482 0.53304 0.0
H1482 H 0.46944 0.21148 0.53198 0.0
H1483 H 0.52915 0.30391 0.49311 0.0
H1484 H 0.48451 0.26081 0.56808 0.0
H1485 H 0.54157 0.2452 0.47453 0.0
H1486 H 0.50283 0.29126 0.51405 0.0
H1487 H 0.48663 0.22692 0.50451 0.0
C1488 C 0.47601 0.22569 0.53403 0.0
C1489 C 0.47567 0.23483 0.55236 0.0
C1490 C 0.51099 0.28126 0.50494 0.0
C1491 C 0.49486 0.25262 0.52105 0.0
C1492 C 0.52581 0.28847 0.49289 0.0
C1493 C 0.53738 0.27552 0.48213 0.0
C1494 C 0.50764 0.26106 0.50587 0.0
C1495 C 0.53286 0.25559 0.48263 0.0
C1496 C 0.48581 0.23444 0.51839 0.0
C1497 C 0.48452 0.2532 0.55423 0.0
N1498 N 0.51838 0.24892 0.49441 0.0
N1499 N 0.49377 0.26149 0.53878 0.0
H1500 H 0.25797 0.56681 0.48362 0.0
H1501 H 0.24365 0.47322 0.54458 0.0
H1502 H 0.20957 0.52843 0.47136 0.0
H1503 H 0.30155 0.49306 0.5302 0.0
H1504 H 0.23055 0.49282 0.51779 0.0
H1505 H 0.27421 0.54027 0.501 0.0
C1506 C 0.25084 0.55273 0.48442 0.0
C1507 C 0.23234 0.54983 0.47614 0.0
C1508 C 0.24617 0.49248 0.52013 0.0
C1509 C 0.25073 0.51955 0.49622 0.0
C1510 C 0.25364 0.48129 0.53536 0.0
C1511 C 0.27368 0.48148 0.53938 0.0
C1512 C 0.25878 0.50449 0.50937 0.0
C1513 C 0.28603 0.4924 0.52731 0.0
C1514 C 0.26019 0.53757 0.49421 0.0
C1515 C 0.22382 0.53128 0.47756 0.0
N1516 N 0.27832 0.50389 0.51307 0.0
N1517 N 0.23292 0.51691 0.48777 0.0
H1518 H 0.98147 0.20339 0.48508 0.0
H1519 H 0.02966 0.29944 0.53094 0.0
H1520 H 0.958 0.26126 0.47805 0.0
H1521 H 0.03133 0.2428 0.55816 0.0
H1522 H 0.01275 0.28486 0.50274 0.0
H1523 H 0.00924 0.21738 0.5031 0.0
C1524 C 0.98252 0.21906 0.48677 0.0
C1525 C 0.96745 0.23121 0.48026 0.0
C1526 C 0.01731 0.2756 0.5147 0.0
C1527 C 0.99893 0.24721 0.50056 0.0
C1528 C 0.027 0.28387 0.53068 0.0
C1529 C 0.03166 0.27229 0.54686 0.0
C1530 C 0.01267 0.25562 0.5149 0.0
C1531 C 0.02778 0.25222 0.54598 0.0
C1532 C 0.99824 0.227 0.49711 0.0
C1533 C 0.9693 0.25141 0.48299 0.0
N1534 N 0.01838 0.24453 0.53033 0.0
N1535 N 0.98467 0.25878 0.49306 0.0
H1536 H 0.24339 0.55448 0.02809 0.0
H1537 H 0.26525 0.4766 0.95119 0.0
H1538 H 0.30028 0.52778 0.0259 0.0
H1539 H 0.2078 0.48063 0.9765 0.0
H1540 H 0.27867 0.49354 0.97953 0.0
H1541 H 0.22979 0.52648 0.01085 0.0
C1542 C 0.25294 0.54248 0.02431 0.0
C1543 C 0.27299 0.54342 0.02827 0.0
C1544 C 0.26321 0.49028 0.97917 0.0
C1545 C 0.25763 0.51162 0.0081 0.0
C1546 C 0.25554 0.48067 0.96299 0.0
C1547 C 0.2354 0.47737 0.96155 0.0
C1548 C 0.25055 0.49721 0.99367 0.0
C1549 C 0.22342 0.48293 0.97715 0.0
C1550 C 0.24515 0.52647 0.01455 0.0
C1551 C 0.28474 0.52754 0.02309 0.0
N1552 N 0.23111 0.49307 0.9924 0.0
N1553 N 0.27696 0.51244 0.01279 0.0
H1554 H 0.94557 0.2424 0.02096 0.0
H1555 H 0.0221 0.26131 0.94154 0.0
H1556 H 0.97717 0.29675 0.023 0.0
H1557 H 0.02464 0.20652 0.97235 0.0
H1558 H 0.00271 0.275 0.96836 0.0
H1559 H 0.97145 0.22858 1.00042 0.0
C1560 C 0.95807 0.25133 0.01724 0.0
C1561 C 0.95926 0.27074 0.02357 0.0
C1562 C 0.0078 0.26008 0.96933 0.0
C1563 C 0.98843 0.25525 0.99977 0.0
C1564 C 0.01877 0.25225 0.95406 0.0
C1565 C 0.02498 0.23278 0.95479 0.0
C1566 C 0.00244 0.24814 0.98505 0.0
C1567 C 0.02021 0.22163 0.9713 0.0
C1568 C 0.9728 0.24343 0.00563 0.0
C1569 C 0.97575 0.28171 0.0184 0.0
N1570 N 0.00882 0.22934 0.98563 0.0
N1571 N 0.98952 0.27395 0.00638 0.0
H1572 H 0.24186 0.02923 0.94949 0.0
H1573 H 0.26312 0.94658 0.02131 0.0
H1574 H 0.30002 0.02122 0.97197 0.0
H1575 H 0.20796 0.97661 0.02454 0.0
H1576 H 0.27713 0.97451 0.00435 0.0
H1577 H 0.22879 0.0116 0.97765 0.0
C1578 C 0.25181 0.02419 0.9607 0.0
C1579 C 0.27201 0.02658 0.9585 0.0
C1580 C 0.26208 0.97521 0.00912 0.0
C1581 C 0.25726 0.00591 0.9903 0.0
C1582 C 0.25403 0.95923 0.0187 0.0
C1583 C 0.23429 0.95925 0.02412 0.0
C1584 C 0.25015 0.99109 0.00431 0.0
C1585 C 0.22321 0.97602 0.02048 0.0
C1586 C 0.24435 0.01417 0.97675 0.0
C1587 C 0.28435 0.01971 0.97326 0.0
N1588 N 0.23116 0.99114 0.01031 0.0
N1589 N 0.2768 0.0092 0.98835 0.0
H1590 H 0.49329 0.3041 0.96358 0.0
H1591 H 0.52409 0.21142 0.0275 0.0
H1592 H 0.46351 0.24887 0.96072 0.0
H1593 H 0.56433 0.25626 0.00923 0.0
H1594 H 0.49768 0.22891 0.01086 0.0
H1595 H 0.51498 0.2907 0.98882 0.0
C1596 C 0.49085 0.28942 0.96889 0.0
C1597 C 0.47653 0.27759 0.96039 0.0
C1598 C 0.51227 0.23497 0.01069 0.0
C1599 C 0.50134 0.26211 0.98867 0.0
C1600 C 0.52732 0.22503 0.02016 0.0
C1601 C 0.54646 0.23228 0.01948 0.0
C1602 C 0.51634 0.25244 1.0008 0.0
C1603 C 0.54984 0.25001 0.00982 0.0
C1604 C 0.50334 0.28171 0.98304 0.0
C1605 C 0.47426 0.25847 0.96719 0.0
N1606 N 0.53493 0.25947 1.00082 0.0
N1607 N 0.48663 0.25125 0.98089 0.0
H1608 H 0.97347 0.47808 0.79539 0.0
H1609 H 0.03457 0.51115 0.7015 0.0
H1610 H 0.99006 0.43869 0.74916 0.0
H1611 H 0.04256 0.5365 0.7585 0.0
H1612 H 0.00909 0.48979 0.71507 0.0
H1613 H 0.99021 0.50463 0.77813 0.0
C1614 C 0.98041 0.47508 0.7815 0.0
C1615 C 0.98066 0.45614 0.77379 0.0
C1616 C 0.01608 0.50043 0.72444 0.0
C1617 C 0.99937 0.48639 0.75391 0.0
C1618 C 0.03039 0.51273 0.71667 0.0
C1619 C 0.04042 0.52564 0.72892 0.0
C1620 C 0.01174 0.50133 0.74447 0.0
C1621 C 0.03496 0.52682 0.7486 0.0
C1622 C 0.98993 0.4902 0.7717 0.0
C1623 C 0.98982 0.45305 0.75573 0.0
N1624 N 0.02101 0.51474 0.75582 0.0
N1625 N 0.99886 0.46802 0.7464 0.0
H1626 H 0.96277 0.02845 0.73033 0.0
H1627 H 0.07116 0.00217 0.76403 0.0
H1628 H 0.01102 0.0689 0.73092 0.0
H1629 H 0.02162 0.96906 0.78453 0.0
H1630 H 0.0492 0.02367 0.74647 0.0
H1631 H 0.98406 0.0037 0.74544 0.0
C1632 C 0.97782 0.03207 0.73352 0.0
C1633 C 0.98513 0.05076 0.72944 0.0
C1634 C 0.04308 0.0117 0.75479 0.0
C1635 C 0.0094 0.02268 0.74639 0.0
C1636 C 0.05563 0.99935 0.76482 0.0
C1637 C 0.04822 0.98391 0.77602 0.0
C1638 C 0.02287 0.00864 0.75578 0.0
C1639 C 0.02793 0.98092 0.77623 0.0
C1640 C 0.98989 0.01801 0.74218 0.0
C1641 C 0.00469 0.05475 0.73392 0.0
N1642 N 0.0159 0.99325 0.76629 0.0
N1643 N 0.01611 0.04084 0.74206 0.0
H1644 H 0.4787 0.96369 0.72576 0.0
H1645 H 0.49746 0.07241 0.7604 0.0
H1646 H 0.43301 0.00486 0.73936 0.0
H1647 H 0.53754 0.02694 0.77751 0.0
H1648 H 0.47609 0.04794 0.74634 0.0
H1649 H 0.50273 0.98673 0.73951 0.0
C1650 C 0.47373 0.97748 0.73163 0.0
C1651 C 0.45383 0.9824 0.7313 0.0
C1652 C 0.48957 0.04329 0.75316 0.0
C1653 C 0.48105 0.00864 0.74662 0.0
C1654 C 0.50186 0.05727 0.76114 0.0
C1655 C 0.51926 0.05172 0.77035 0.0
C1656 C 0.49472 0.02354 0.75411 0.0
C1657 C 0.52416 0.03182 0.7707 0.0
C1658 C 0.4874 0.99053 0.73949 0.0
C1659 C 0.44815 1.0004 0.73921 0.0
N1660 N 0.51191 0.01835 0.76265 0.0
N1661 N 0.46169 0.01288 0.74634 0.0
H1662 H 0.47706 0.5309 0.79839 0.0
H1663 H 0.52345 0.48011 0.70369 0.0
H1664 H 0.45341 0.53595 0.74028 0.0
H1665 H 0.52879 0.45748 0.76219 0.0
H1666 H 0.50625 0.50871 0.71693 0.0
H1667 H 0.50454 0.51207 0.78497 0.0
C1668 C 0.47798 0.52857 0.78278 0.0
C1669 C 0.46291 0.53479 0.77043 0.0
C1670 C 0.51163 0.49767 0.72686 0.0
C1671 C 0.49411 0.51348 0.75505 0.0
C1672 C 0.52153 0.48146 0.71934 0.0
C1673 C 0.52735 0.4664 0.73187 0.0
C1674 C 0.50787 0.49886 0.74704 0.0
C1675 C 0.52434 0.46872 0.75202 0.0
C1676 C 0.49354 0.51775 0.77515 0.0
C1677 C 0.46467 0.53125 0.75031 0.0
N1678 N 0.51469 0.48455 0.75897 0.0
N1679 N 0.47988 0.52071 0.74326 0.0
H1680 H 0.74629 0.99317 0.43534 0.0
H1681 H 0.76029 0.04662 0.53238 0.0
H1682 H 0.79022 0.97174 0.47508 0.0
H1683 H 0.70204 0.03475 0.51191 0.0
H1684 H 0.77264 0.02027 0.51159 0.0
H1685 H 0.73053 0.01003 0.46245 0.0
C1686 C 0.75249 0.99177 0.44981 0.0
C1687 C 0.76955 0.98091 0.45296 0.0
C1688 C 0.7571 0.02307 0.51208 0.0
C1689 C 0.75184 1.00065 0.4839 0.0
C1690 C 0.75006 0.03803 0.52393 0.0
C1691 C 0.73014 0.04262 0.5239 0.0
C1692 C 0.74419 0.01325 0.49961 0.0
C1693 C 0.71746 0.0314 0.51246 0.0
C1694 C 0.74342 1.00134 0.46527 0.0
C1695 C 0.77705 0.97988 0.47202 0.0
N1696 N 0.72478 0.01749 0.50034 0.0
N1697 N 0.76835 0.98998 0.48675 0.0
H1698 H 0.47386 0.71304 0.51376 0.0
H1699 H 0.49554 0.80288 0.44329 0.0
H1700 H 0.42976 0.75349 0.49424 0.0
H1701 H 0.53262 0.75209 0.44361 0.0
H1702 H 0.47254 0.78593 0.46446 0.0
H1703 H 0.49713 0.72821 0.49094 0.0
C1704 C 0.46909 0.72512 0.50477 0.0
C1705 C 0.4498 0.73195 0.50588 0.0
C1706 C 0.48562 0.77839 0.45983 0.0
C1707 C 0.47628 0.74935 0.47994 0.0
C1708 C 0.49878 0.78807 0.44773 0.0
C1709 C 0.51601 0.77887 0.44169 0.0
C1710 C 0.48981 0.75943 0.4663 0.0
C1711 C 0.51942 0.75965 0.44787 0.0
C1712 C 0.48232 0.73366 0.49167 0.0
C1713 C 0.44442 0.74763 0.49384 0.0
N1714 N 0.50652 0.75059 0.46005 0.0
N1715 N 0.45757 0.75581 0.4815 0.0
H1716 H 0.80035 0.47453 0.52708 0.0
H1717 H 0.70533 0.51998 0.47684 0.0
H1718 H 0.74296 0.44891 0.53011 0.0
H1719 H 0.76337 0.52426 0.45289 0.0
H1720 H 0.71896 0.50348 0.50568 0.0
H1721 H 0.78643 0.50231 0.50909 0.0
C1722 C 0.78477 0.47506 0.52448 0.0
C1723 C 0.77278 0.4594 0.5298 0.0
C1724 C 0.72871 0.50854 0.4943 0.0
C1725 C 0.75687 0.49092 0.50963 0.0
C1726 C 0.72097 0.51798 0.47795 0.0
C1727 C 0.73325 0.52319 0.46246 0.0
C1728 C 0.74883 0.50468 0.49517 0.0
C1729 C 0.7534 0.52021 0.46448 0.0
C1730 C 0.77688 0.49081 0.51419 0.0
C1731 C 0.7527 0.46065 0.52602 0.0
N1732 N 0.76057 0.511 0.48046 0.0
N1733 N 0.74538 0.47606 0.51602 0.0
H1734 H 0.0199 0.79868 0.52352 0.0
H1735 H 0.97439 0.70239 0.47549 0.0
H1736 H 0.04475 0.74122 0.52898 0.0
H1737 H 0.96686 0.76037 0.45242 0.0
H1738 H 0.99157 0.71638 0.50378 0.0
H1739 H 0.9919 0.7844 0.50612 0.0
C1740 C 0.01914 0.78302 0.52159 0.0
C1741 C 0.03465 0.7711 0.52745 0.0
C1742 C 0.98568 0.72603 0.49275 0.0
C1743 C 0.00293 0.75475 0.50775 0.0
C1744 C 0.97579 0.71808 0.47673 0.0
C1745 C 0.96941 0.73028 0.46162 0.0
C1746 C 0.98891 0.74628 0.49365 0.0
C1747 C 0.97176 0.75049 0.46374 0.0
C1748 C 0.00328 0.7749 0.51159 0.0
C1749 C 0.03312 0.75091 0.52447 0.0
N1750 N 0.98147 0.75786 0.47935 0.0
N1751 N 0.01764 0.74338 0.51468 0.0
H1752 H 0.80063 0.51919 0.0287 0.0
H1753 H 0.7045 0.47424 0.97943 0.0
H1754 H 0.74241 0.52793 0.05079 0.0
H1755 H 0.76134 0.44749 0.97696 0.0
H1756 H 0.71898 0.50215 0.99685 0.0
H1757 H 0.78682 0.50118 1.00083 0.0
C1758 C 0.78494 0.51789 0.02731 0.0
C1759 C 0.77262 0.52491 0.04203 0.0
C1760 C 0.72831 0.49035 0.99204 0.0
C1761 C 0.7568 0.50448 0.01046 0.0
C1762 C 0.72008 0.47453 0.98204 0.0
C1763 C 0.73175 0.45856 0.97696 0.0
C1764 C 0.74833 0.49021 0.99661 0.0
C1765 C 0.75184 0.4595 0.98082 0.0
C1766 C 0.77708 0.50753 0.01154 0.0
C1767 C 0.75239 0.52263 0.03976 0.0
N1768 N 0.75948 0.47498 0.99052 0.0
N1769 N 0.74511 0.51248 0.02437 0.0
H1770 H 0.9761 0.73932 0.05366 0.0
H1771 H 0.05028 0.76124 0.972 0.0
H1772 H 0.97943 0.79638 0.02748 0.0
H1773 H 0.02799 0.70317 0.98106 0.0
H1774 H 0.02218 0.77449 0.98939 0.0
H1775 H 0.99224 0.72554 0.02514 0.0
C1776 C 0.97988 0.74889 0.04165 0.0
C1777 C 0.9766 0.76903 0.04292 0.0
C1778 C 0.0231 0.75889 0.98715 0.0
C1779 C 0.99559 0.75342 0.01045 0.0
C1780 C 0.03915 0.75132 0.97726 0.0
C1781 C 0.04144 0.7311 0.97528 0.0
C1782 C 0.00958 0.74611 0.99566 0.0
C1783 C 0.02668 0.71886 0.98231 0.0
C1784 C 0.98905 0.741 0.02534 0.0
C1785 C 0.98174 0.78078 0.027 0.0
N1786 N 0.01157 0.72653 0.99266 0.0
N1787 N 0.99145 0.77286 0.01157 0.0
H1788 H 0.70337 0.98309 0.03138 0.0
H1789 H 0.79597 0.03027 0.98025 0.0
H1790 H 0.7601 0.98125 0.0586 0.0
H1791 H 0.74264 0.06295 0.98713 0.0
H1792 H 0.78177 0.00387 0.99996 0.0
H1793 H 0.71689 0.00432 0.00573 0.0
C1794 C 0.71875 0.98676 0.03168 0.0
C1795 C 0.73067 0.98055 0.04712 0.0
C1796 C 0.77315 0.01673 0.99681 0.0
C1797 C 0.74611 0.00421 0.01784 0.0
C1798 C 0.78116 0.03172 0.98559 0.0
C1799 C 0.77048 0.04885 0.98228 0.0
C1800 C 0.75416 0.01868 0.00416 0.0
C1801 C 0.75139 0.05004 0.98956 0.0
C1802 C 0.72636 0.99889 0.01716 0.0
C1803 C 0.75045 0.98582 0.04696 0.0
N1804 N 0.74378 0.03511 1.00016 0.0
N1805 N 0.75759 0.99734 0.0325 0.0
H1806 H 0.53839 0.71123 0.03662 0.0
H1807 H 0.4773 0.80491 0.00325 0.0
H1808 H 0.52102 0.75699 0.07616 0.0
H1809 H 0.46973 0.74779 0.97822 0.0
H1810 H 0.50309 0.79174 0.02453 0.0
H1811 H 0.52284 0.72906 0.00978 0.0
C1812 C 0.53175 0.72524 0.03961 0.0
C1813 C 0.53084 0.73256 0.05874 0.0
C1814 C 0.49612 0.78226 0.01397 0.0
C1815 C 0.51325 0.75304 0.02808 0.0
C1816 C 0.4816 0.78979 1.00174 0.0
C1817 C 0.47155 0.77739 0.98897 0.0
C1818 C 0.50073 0.76231 0.0131 0.0
C1819 C 0.47726 0.7578 0.98784 0.0
C1820 C 0.52283 0.73535 0.02429 0.0
C1821 C 0.52194 0.75076 0.0617 0.0
N1822 N 0.49143 0.75082 0.99982 0.0
N1823 N 0.5134 0.76033 0.04657 0.0
H1824 H 0.15402 0.62335 0.13489 0.0
H1825 H 0.23751 0.55578 0.09397 0.0
H1826 H 0.15257 0.56069 0.13878 0.0
H1827 H 0.24244 0.61835 0.09737 0.0
H1828 H 0.20953 0.55704 0.11599 0.0
H1829 H 0.18877 0.62184 0.12693 0.0
C1830 C 0.1612 0.60929 0.13456 0.0
C1831 C 0.15043 0.59211 0.13737 0.0
C1832 C 0.21696 0.57048 0.11233 0.0
C1833 C 0.19011 0.59019 0.12776 0.0
C1834 C 0.23302 0.56976 0.0998 0.0
C1835 C 0.24219 0.587 0.09365 0.0
C1836 C 0.20975 0.58863 0.1185 0.0
C1837 C 0.23579 0.60469 0.10169 0.0
C1838 C 0.18103 0.60841 0.12996 0.0
C1839 C 0.16038 0.57426 0.13676 0.0
N1840 N 0.2197 0.60509 0.11336 0.0
N1841 N 0.17958 0.57374 0.13163 0.0
H1842 H 0.8906 0.24231 0.10201 0.0
H1843 H 0.943 0.1452 0.13975 0.0
H1844 H 0.95097 0.22856 0.09064 0.0
H1845 H 0.88111 0.1507 0.13025 0.0
H1846 H 0.94696 0.17991 0.13167 0.0
H1847 H 0.88823 0.21323 0.12256 0.0
C1848 C 0.90352 0.23352 0.10427 0.0
C1849 C 0.92094 0.23771 0.09434 0.0
C1850 C 0.93248 0.1736 0.13178 0.0
C1851 C 0.91825 0.20438 0.11773 0.0
C1852 C 0.93021 0.15388 0.13649 0.0
C1853 C 0.91173 0.14518 0.13553 0.0
C1854 C 0.9161 0.18464 0.1263 0.0
C1855 C 0.89561 0.15693 0.13103 0.0
C1856 C 0.9021 0.21683 0.1159 0.0
C1857 C 0.93718 0.22573 0.09782 0.0
N1858 N 0.89818 0.17603 0.12644 0.0
N1859 N 0.93539 0.20946 0.10904 0.0
H1860 H 0.27202 0.95312 0.08826 0.0
H1861 H 0.3506 0.88884 0.14255 0.0
H1862 H 0.26469 0.89163 0.09908 0.0
H1863 H 0.35424 0.95137 0.13839 0.0
H1864 H 0.31648 0.89033 0.13216 0.0
H1865 H 0.29886 0.95377 0.11168 0.0
C1866 C 0.27575 0.93983 0.09594 0.0
C1867 C 0.26622 0.92224 0.09153 0.0
C1868 C 0.32452 0.90381 0.13396 0.0
C1869 C 0.29736 0.92278 0.1181 0.0
C1870 C 0.34396 0.90295 0.14002 0.0
C1871 C 0.35518 0.92002 0.14133 0.0
C1872 C 0.31632 0.92185 0.12877 0.0
C1873 C 0.34602 0.93791 0.13768 0.0
C1874 C 0.29115 0.9402 0.1093 0.0
C1875 C 0.27164 0.9055 0.10199 0.0
N1876 N 0.32722 0.93834 0.1312 0.0
N1877 N 0.2871 0.9061 0.11448 0.0
H1878 H 0.55054 0.26555 0.0898 0.0
H1879 H 0.61904 0.34325 0.13787 0.0
H1880 H 0.6116 0.25538 0.10122 0.0
H1881 H 0.55644 0.34861 0.13741 0.0
H1882 H 0.61587 0.30858 0.13024 0.0
H1883 H 0.55119 0.29285 0.11265 0.0
C1884 C 0.56398 0.26876 0.09747 0.0
C1885 C 0.58115 0.25844 0.09325 0.0
C1886 C 0.60276 0.31715 0.13228 0.0
C1887 C 0.5821 0.28993 0.11917 0.0
C1888 C 0.6046 0.33691 0.1367 0.0
C1889 C 0.58797 0.34869 0.13814 0.0
C1890 C 0.58416 0.30925 0.12878 0.0
C1891 C 0.56959 0.33992 0.13642 0.0
C1892 C 0.56435 0.28439 0.11052 0.0
C1893 C 0.59808 0.2631 0.10381 0.0
N1894 N 0.56817 0.32078 0.1314 0.0
N1895 N 0.59823 0.27879 0.11594 0.0
H1896 H 0.1496 0.93838 0.36229 0.0
H1897 H 0.24157 0.88612 0.41121 0.0
H1898 H 0.15415 0.87653 0.3723 0.0
H1899 H 0.23076 0.94803 0.41337 0.0
H1900 H 0.21458 0.88264 0.38802 0.0
H1901 H 0.18387 0.94209 0.37205 0.0
C1902 C 0.15799 0.92553 0.36598 0.0
C1903 C 0.14903 0.90716 0.3667 0.0
C1904 C 0.2184 0.89705 0.39324 0.0
C1905 C 0.18806 0.91127 0.37809 0.0
C1906 C 0.23394 0.89907 0.40635 0.0
C1907 C 0.23823 0.91736 0.41447 0.0
C1908 C 0.20716 0.91344 0.38817 0.0
C1909 C 0.22776 0.93361 0.40768 0.0
C1910 C 0.17749 0.92765 0.3717 0.0
C1911 C 0.1605 0.89098 0.37177 0.0
N1912 N 0.21254 0.93123 0.39517 0.0
N1913 N 0.17933 0.89343 0.3775 0.0
H1914 H 0.61381 0.25589 0.40599 0.0
H1915 H 0.63018 0.16709 0.36333 0.0
H1916 H 0.55556 0.23383 0.41511 0.0
H1917 H 0.56779 0.15957 0.36198 0.0
H1918 H 0.62575 0.20066 0.37364 0.0
H1919 H 0.61881 0.23121 0.38083 0.0
C1920 C 0.60195 0.24605 0.40248 0.0
C1921 C 0.58445 0.24657 0.41309 0.0
C1922 C 0.6129 0.19209 0.37049 0.0
C1923 C 0.59034 0.21757 0.3849 0.0
C1924 C 0.61549 0.17277 0.36465 0.0
C1925 C 0.59934 0.16047 0.36203 0.0
C1926 C 0.59395 0.19919 0.37392 0.0
C1927 C 0.58065 0.16855 0.36385 0.0
C1928 C 0.60492 0.23167 0.38828 0.0
C1929 C 0.56949 0.23367 0.40766 0.0
N1930 N 0.57848 0.18726 0.37009 0.0
N1931 N 0.57291 0.2195 0.39423 0.0
H1932 H 0.35668 0.54861 0.36965 0.0
H1933 H 0.26187 0.61054 0.39805 0.0
H1934 H 0.35331 0.61121 0.36657 0.0
H1935 H 0.27396 0.55264 0.41935 0.0
H1936 H 0.29056 0.60825 0.37672 0.0
H1937 H 0.32182 0.5475 0.37807 0.0
C1938 C 0.3484 0.56204 0.37011 0.0
C1939 C 0.35773 0.58002 0.36742 0.0
C1940 C 0.28663 0.59588 0.38572 0.0
C1941 C 0.31814 0.57895 0.37724 0.0
C1942 C 0.27016 0.59711 0.39776 0.0
C1943 C 0.26567 0.58182 0.41061 0.0
C1944 C 0.2985 0.57917 0.38642 0.0
C1945 C 0.27704 0.56483 0.40978 0.0
C1946 C 0.3286 0.56144 0.37506 0.0
C1947 C 0.34653 0.59708 0.36851 0.0
N1948 N 0.29305 0.56403 0.39808 0.0
N1949 N 0.32735 0.59616 0.37352 0.0
H1950 H 0.94494 0.352 0.36818 0.0
H1951 H 0.89026 0.25854 0.41059 0.0
H1952 H 0.88243 0.34526 0.36991 0.0
H1953 H 0.95224 0.26852 0.41495 0.0
H1954 H 0.88791 0.28593 0.38774 0.0
H1955 H 0.94848 0.31761 0.37721 0.0
C1956 C 0.93197 0.34314 0.36992 0.0
C1957 C 0.91337 0.35156 0.36859 0.0
C1958 C 0.9021 0.28185 0.39337 0.0
C1959 C 0.91726 0.31231 0.37926 0.0
C1960 C 0.90347 0.26609 0.40629 0.0
C1961 C 0.92143 0.26144 0.41493 0.0
C1962 C 0.91881 0.293 0.38908 0.0
C1963 C 0.93804 0.2718 0.40886 0.0
C1964 C 0.93397 0.32354 0.37523 0.0
C1965 C 0.89705 0.33941 0.37112 0.0
N1966 N 0.93629 0.28726 0.39658 0.0
N1967 N 0.89936 0.32051 0.37662 0.0
H1968 H 0.09828 0.24417 0.62707 0.0
H1969 H 0.12453 0.14787 0.6335 0.0
H1970 H 0.09491 0.23211 0.56534 0.0
H1971 H 0.13989 0.15083 0.57259 0.0
H1972 H 0.11802 0.18272 0.63338 0.0
H1973 H 0.11881 0.21533 0.63117 0.0
C1974 C 0.10215 0.23567 0.61431 0.0
C1975 C 0.09445 0.2403 0.5959 0.0
C1976 C 0.12349 0.17609 0.62015 0.0
C1977 C 0.11723 0.20671 0.60059 0.0
C1978 C 0.12709 0.15607 0.62022 0.0
C1979 C 0.13266 0.14647 0.60301 0.0
C1980 C 0.12525 0.18665 0.60263 0.0
C1981 C 0.13569 0.15771 0.58618 0.0
C1982 C 0.11363 0.21895 0.61671 0.0
C1983 C 0.10017 0.22885 0.57988 0.0
N1984 N 0.13154 0.17713 0.58631 0.0
N1985 N 0.11092 0.21245 0.58264 0.0
H1986 H 0.26776 0.09509 0.56827 0.0
H1987 H 0.35437 0.12604 0.63776 0.0
H1988 H 0.26437 0.09116 0.63102 0.0
H1989 H 0.3526 0.14114 0.57673 0.0
H1990 H 0.31986 0.11698 0.63626 0.0
H1991 H 0.29667 0.11571 0.57142 0.0
C1992 C 0.27283 0.09895 0.58274 0.0
C1993 C 0.2637 0.09123 0.5994 0.0
C1994 C 0.32685 0.12264 0.62326 0.0
C1995 C 0.29719 0.11451 0.60312 0.0
C1996 C 0.34654 0.12785 0.62413 0.0
C1997 C 0.35634 0.13428 0.60732 0.0
C1998 C 0.31691 0.12349 0.60533 0.0
C1999 C 0.34556 0.13633 0.59003 0.0
C2000 C 0.28941 0.1107 0.58453 0.0
C2001 C 0.27092 0.09676 0.61777 0.0
N2002 N 0.32652 0.13061 0.58939 0.0
N2003 N 0.28744 0.10774 0.61913 0.0
H2004 H 0.3707 0.35973 0.55488 0.0
H2005 H 0.39921 0.26321 0.61352 0.0
H2006 H 0.36442 0.35275 0.61706 0.0
H2007 H 0.42312 0.27939 0.55756 0.0
H2008 H 0.37628 0.29056 0.61117 0.0
H2009 H 0.37956 0.32512 0.55226 0.0
C2010 C 0.37049 0.35069 0.56785 0.0
C2011 C 0.3669 0.35896 0.58621 0.0
C2012 C 0.38623 0.2878 0.59919 0.0
C2013 C 0.37724 0.31968 0.58343 0.0
C2014 C 0.39921 0.27212 0.60046 0.0
C2015 C 0.41325 0.26925 0.58583 0.0
C2016 C 0.38723 0.3005 0.58311 0.0
C2017 C 0.41268 0.28129 0.56928 0.0
C2018 C 0.37569 0.33103 0.5664 0.0
C2019 C 0.36712 0.34681 0.60267 0.0
N2020 N 0.40007 0.29655 0.56847 0.0
N2021 N 0.37246 0.32781 0.60093 0.0
H2022 H 0.24706 0.40911 0.61645 0.0
H2023 H 0.15481 0.36376 0.56197 0.0
H2024 H 0.23748 0.41209 0.55426 0.0
H2025 H 0.15979 0.37036 0.62433 0.0
H2026 H 0.18942 0.3724 0.55868 0.0
H2027 H 0.22 0.38595 0.61908 0.0
C2028 C 0.23968 0.40446 0.60326 0.0
C2029 C 0.24431 0.41284 0.58515 0.0
C2030 C 0.18307 0.3715 0.57313 0.0
C2031 C 0.21313 0.38658 0.5881 0.0
C2032 C 0.16337 0.3664 0.57499 0.0
C2033 C 0.15446 0.36655 0.59342 0.0
C2034 C 0.19385 0.37675 0.58981 0.0
C2035 C 0.16613 0.37028 0.60985 0.0
C2036 C 0.22411 0.39134 0.60479 0.0
C2037 C 0.23419 0.40624 0.56857 0.0
N2038 N 0.18513 0.3755 0.60765 0.0
N2039 N 0.21888 0.39377 0.57048 0.0
H2040 H 0.10263 0.26311 0.88877 0.0
H2041 H 0.13731 0.35762 0.94791 0.0
H2042 H 0.08759 0.2747 0.94881 0.0
H2043 H 0.13372 0.35441 0.88521 0.0
H2044 H 0.12898 0.3228 0.94979 0.0
H2045 H 0.12395 0.29183 0.88899 0.0
C2046 C 0.10428 0.27132 0.90218 0.0
C2047 C 0.09315 0.26666 0.91874 0.0
C2048 C 0.1305 0.32961 0.93561 0.0
C2049 C 0.11736 0.29956 0.91903 0.0
C2050 C 0.13539 0.3494 0.93455 0.0
C2051 C 0.13614 0.35879 0.91639 0.0
C2052 C 0.12646 0.31921 0.91837 0.0
C2053 C 0.13325 0.34762 0.89947 0.0
C2054 C 0.11632 0.2878 0.90224 0.0
C2055 C 0.09576 0.27792 0.93566 0.0
N2056 N 0.12836 0.32846 0.90087 0.0
N2057 N 0.10741 0.29397 0.93532 0.0
H2058 H 0.1503 0.14116 0.93349 0.0
H2059 H 0.23871 0.08978 0.87692 0.0
H2060 H 0.14798 0.1227 0.87339 0.0
H2061 H 0.23511 0.09482 0.9396 0.0
H2062 H 0.20958 0.11027 0.87402 0.0
H2063 H 0.18509 0.13258 0.93437 0.0
C2064 C 0.15725 0.13581 0.92034 0.0
C2065 C 0.14625 0.13249 0.90339 0.0
C2066 C 0.21541 0.10722 0.88839 0.0
C2067 C 0.1859 0.12247 0.9043 0.0
C2068 C 0.23217 0.09566 0.89005 0.0
C2069 C 0.23925 0.09038 0.90855 0.0
C2070 C 0.20573 0.11362 0.90533 0.0
C2071 C 0.23003 0.09835 0.92505 0.0
C2072 C 0.17705 0.13077 0.92087 0.0
C2073 C 0.15593 0.12532 0.8868 0.0
N2074 N 0.21364 0.10935 0.92307 0.0
N2075 N 0.17512 0.12038 0.88772 0.0
H2076 H 0.407 0.23476 0.94536 0.0
H2077 H 0.37369 0.14864 0.87623 0.0
H2078 H 0.40768 0.23847 0.88248 0.0
H2079 H 0.36501 0.14795 0.93852 0.0
H2080 H 0.38126 0.18344 0.8779 0.0
H2081 H 0.38683 0.20548 0.94309 0.0
C2082 C 0.40253 0.22968 0.93106 0.0
C2083 C 0.4093 0.23897 0.91407 0.0
C2084 C 0.37732 0.17585 0.89119 0.0
C2085 C 0.38646 0.20513 0.91136 0.0
C2086 C 0.37294 0.15599 0.89022 0.0
C2087 C 0.36881 0.14544 0.90728 0.0
C2088 C 0.37796 0.1852 0.90944 0.0
C2089 C 0.36806 0.1556 0.92504 0.0
C2090 C 0.39104 0.21289 0.92978 0.0
C2091 C 0.40293 0.23176 0.89597 0.0
N2092 N 0.37296 0.17485 0.92571 0.0
N2093 N 0.3922 0.21507 0.89508 0.0
H2094 H 0.26922 0.41064 0.94686 0.0
H2095 H 0.35042 0.37042 0.87646 0.0
H2096 H 0.26337 0.40919 0.88418 0.0
H2097 H 0.35372 0.36664 0.93916 0.0
H2098 H 0.31559 0.37764 0.87898 0.0
H2099 H 0.2964 0.3878 0.94457 0.0
C2100 C 0.27333 0.40509 0.93263 0.0
C2101 C 0.26423 0.4121 0.91566 0.0
C2102 C 0.32375 0.37476 0.8922 0.0
C2103 C 0.29572 0.38628 0.91287 0.0
C2104 C 0.34362 0.37057 0.89074 0.0
C2105 C 0.35493 0.36812 0.90764 0.0
C2106 C 0.31519 0.37691 0.91072 0.0
C2107 C 0.34548 0.36844 0.92579 0.0
C2108 C 0.28892 0.39208 0.93132 0.0
C2109 C 0.27005 0.4043 0.89764 0.0
N2110 N 0.32624 0.37321 0.92688 0.0
N2111 N 0.28573 0.39216 0.89668 0.0
H2112 H 0.63058 0.1319 0.14799 0.0
H2113 H 0.56199 0.10407 0.23673 0.0
H2114 H 0.56919 0.14523 0.14956 0.0
H2115 H 0.62452 0.09721 0.23786 0.0
H2116 H 0.56503 0.12411 0.20741 0.0
H2117 H 0.62952 0.12411 0.18282 0.0
C2118 C 0.61695 0.13357 0.15582 0.0
C2119 C 0.59991 0.13907 0.14587 0.0
C2120 C 0.57814 0.11858 0.21426 0.0
C2121 C 0.59846 0.12979 0.18572 0.0
C2122 C 0.57643 0.10717 0.23108 0.0
C2123 C 0.59301 0.09874 0.23966 0.0
C2124 C 0.59657 0.12138 0.20573 0.0
C2125 C 0.61133 0.10335 0.23173 0.0
C2126 C 0.61633 0.12909 0.17571 0.0
C2127 C 0.58265 0.14108 0.15669 0.0
N2128 N 0.61258 0.11403 0.215 0.0
N2129 N 0.58228 0.1361 0.17596 0.0
H2130 H 0.6237 0.35763 0.34633 0.0
H2131 H 0.55213 0.40462 0.26869 0.0
H2132 H 0.56141 0.36139 0.35402 0.0
H2133 H 0.61431 0.39972 0.26036 0.0
H2134 H 0.55435 0.38234 0.29639 0.0
H2135 H 0.61974 0.36638 0.31195 0.0
C2136 C 0.60913 0.35986 0.34063 0.0
C2137 C 0.59287 0.35901 0.35309 0.0
C2138 C 0.56747 0.38578 0.28829 0.0
C2139 C 0.58823 0.3694 0.31378 0.0
C2140 C 0.56621 0.39846 0.27238 0.0
C2141 C 0.58311 0.40429 0.26235 0.0
C2142 C 0.58582 0.37903 0.29441 0.0
C2143 C 0.60091 0.39572 0.26771 0.0
C2144 C 0.60687 0.36491 0.321 0.0
C2145 C 0.57433 0.36189 0.34493 0.0
N2146 N 0.60186 0.38385 0.28363 0.0
N2147 N 0.57254 0.36733 0.32588 0.0
H2148 H 0.09467 0.61971 0.25897 0.0
H2149 H 0.14356 0.56886 0.35147 0.0
H2150 H 0.09894 0.5575 0.26714 0.0
H2151 H 0.12844 0.62978 0.34819 0.0
H2152 H 0.13639 0.56561 0.31655 0.0
H2153 H 0.11627 0.62446 0.28701 0.0
C2154 C 0.10064 0.60703 0.26625 0.0
C2155 C 0.0947 0.58818 0.26094 0.0
C2156 C 0.13502 0.57978 0.32338 0.0
C2157 C 0.11916 0.59352 0.29321 0.0
C2158 C 0.13924 0.58166 0.34328 0.0
C2159 C 0.1363 0.59955 0.35276 0.0
C2160 C 0.12787 0.59591 0.31293 0.0
C2161 C 0.13056 0.61565 0.34147 0.0
C2162 C 0.11284 0.60976 0.28238 0.0
C2163 C 0.1029 0.5723 0.27095 0.0
N2164 N 0.12629 0.6134 0.32223 0.0
N2165 N 0.11443 0.57533 0.2868 0.0
H2166 H 0.95105 0.13678 0.3593 0.0
H2167 H 0.95126 0.07991 0.27641 0.0
H2168 H 0.88902 0.1271 0.356 0.0
H2169 H 0.89277 0.10042 0.26586 0.0
H2170 H 0.95336 0.10118 0.30483 0.0
H2171 H 0.95381 0.12837 0.32456 0.0
C2172 C 0.93798 0.13329 0.35113 0.0
C2173 C 0.91983 0.13233 0.36054 0.0
C2174 C 0.94031 0.10168 0.29596 0.0
C2175 C 0.92288 0.1221 0.32108 0.0
C2176 C 0.93907 0.08941 0.27974 0.0
C2177 C 0.92181 0.08838 0.26879 0.0
C2178 C 0.92399 0.11277 0.30152 0.0
C2179 C 0.9064 0.10086 0.27383 0.0
C2180 C 0.93957 0.12821 0.33139 0.0
C2181 C 0.90332 0.12772 0.34931 0.0
N2182 N 0.90767 0.11217 0.29014 0.0
N2183 N 0.90526 0.12259 0.33025 0.0
H2184 H 0.40248 0.89594 0.26397 0.0
H2185 H 0.35907 0.95288 0.3554 0.0
H2186 H 0.41736 0.9549 0.27999 0.0
H2187 H 0.3517 0.89136 0.34536 0.0
H2188 H 0.37145 0.95648 0.322 0.0
H2189 H 0.37567 0.89673 0.2877 0.0
C2190 C 0.39977 0.90923 0.27207 0.0
C2191 C 0.41238 0.92526 0.27026 0.0
C2192 C 0.36654 0.94228 0.32686 0.0
C2193 C 0.38188 0.92622 0.29752 0.0
C2194 C 0.3592 0.9403 0.34583 0.0
C2195 C 0.35437 0.92182 0.35307 0.0
C2196 C 0.3692 0.9256 0.31518 0.0
C2197 C 0.35523 0.90588 0.34023 0.0
C2198 C 0.38453 0.90965 0.2857 0.0
C2199 C 0.4082 0.94209 0.28116 0.0
N2200 N 0.36289 0.90805 0.32204 0.0
N2201 N 0.39352 0.94204 0.2945 0.0
H2202 H 0.95073 0.40153 0.23871 0.0
H2203 H 0.93859 0.35229 0.15236 0.0
H2204 H 0.88802 0.40261 0.24342 0.0
H2205 H 0.87939 0.37322 0.15604 0.0
H2206 H 0.94262 0.35865 0.18719 0.0
H2207 H 0.94806 0.38025 0.21057 0.0
C2208 C 0.93637 0.39673 0.23419 0.0
C2209 C 0.91958 0.40409 0.2433 0.0
C2210 C 0.92874 0.36195 0.18047 0.0
C2211 C 0.91624 0.37954 0.21075 0.0
C2212 C 0.92634 0.35797 0.16057 0.0
C2213 C 0.90879 0.3627 0.15114 0.0
C2214 C 0.91352 0.37095 0.19097 0.0
C2215 C 0.89337 0.3699 0.16258 0.0
C2216 C 0.9348 0.38443 0.21802 0.0
C2217 C 0.90136 0.39736 0.23681 0.0
N2218 N 0.8962 0.37407 0.18177 0.0
N2219 N 0.90017 0.38584 0.22066 0.0
H2220 H 0.14116 0.89072 0.15357 0.0
H2221 H 0.07674 0.95239 0.22446 0.0
H2222 H 0.12855 0.95136 0.14346 0.0
H2223 H 0.10306 0.89797 0.24173 0.0
H2224 H 0.09956 0.95445 0.19717 0.0
H2225 H 0.13173 0.89469 0.18783 0.0
C2226 C 0.137 0.90503 0.15882 0.0
C2227 C 0.13565 0.92076 0.14585 0.0
C2228 C 0.1007 0.94227 0.20716 0.0
C2229 C 0.12414 0.92532 0.18471 0.0
C2230 C 0.08766 0.9411 0.22276 0.0
C2231 C 0.08784 0.92485 0.2352 0.0
C2232 C 0.11372 0.92685 0.20369 0.0
C2233 C 0.10236 0.91071 0.23242 0.0
C2234 C 0.13153 0.9073 0.17832 0.0
C2235 C 0.12989 0.93894 0.15314 0.0
N2236 N 0.11443 0.9118 0.21668 0.0
N2237 N 0.12395 0.94065 0.17202 0.0
H2238 H 0.36268 0.61639 0.15862 0.0
H2239 H 0.42681 0.55523 0.23015 0.0
H2240 H 0.36983 0.55427 0.15358 0.0
H2241 H 0.40918 0.61418 0.24283 0.0
H2242 H 0.401 0.553 0.20571 0.0
H2243 H 0.37377 0.6147 0.19255 0.0
C2244 C 0.36577 0.60227 0.165 0.0
C2245 C 0.36526 0.58542 0.15341 0.0
C2246 C 0.4024 0.5663 0.2141 0.0
C2247 C 0.37885 0.58342 0.19187 0.0
C2248 C 0.41715 0.56756 0.22809 0.0
C2249 C 0.42023 0.58498 0.23836 0.0
C2250 C 0.39095 0.58277 0.20994 0.0
C2251 C 0.40728 0.60049 0.2352 0.0
C2252 C 0.37231 0.60131 0.18431 0.0
C2253 C 0.36986 0.56754 0.16214 0.0
N2254 N 0.39349 0.59919 0.22092 0.0
N2255 N 0.37689 0.56705 0.18071 0.0
H2256 H 0.85626 0.37214 0.87912 0.0
H2257 H 0.76051 0.37933 0.90855 0.0
H2258 H 0.85341 0.43316 0.86461 0.0
H2259 H 0.77372 0.44063 0.91335 0.0
H2260 H 0.78902 0.37528 0.88747 0.0
H2261 H 0.82175 0.37269 0.88755 0.0
C2262 C 0.84813 0.38554 0.87717 0.0
C2263 C 0.85768 0.40263 0.87121 0.0
C2264 C 0.78573 0.38964 0.8931 0.0
C2265 C 0.81792 0.40351 0.88083 0.0
C2266 C 0.7692 0.39201 0.9049 0.0
C2267 C 0.76493 0.41027 0.9131 0.0
C2268 C 0.79816 0.40563 0.88963 0.0
C2269 C 0.77665 0.4262 0.90767 0.0
C2270 C 0.82831 0.38586 0.88188 0.0
C2271 C 0.84655 0.41965 0.86905 0.0
N2272 N 0.79284 0.42346 0.89654 0.0
N2273 N 0.82736 0.41975 0.87424 0.0
H2274 H 0.12667 0.8478 0.86836 0.0
H2275 H 0.05789 0.76368 0.90643 0.0
H2276 H 0.06411 0.84858 0.8624 0.0
H2277 H 0.12071 0.76096 0.90856 0.0
H2278 H 0.06014 0.79111 0.88385 0.0
H2279 H 0.1252 0.8131 0.87642 0.0
C2280 C 0.11266 0.84048 0.86824 0.0
C2281 C 0.09546 0.85107 0.8649 0.0
C2282 C 0.07346 0.78428 0.88888 0.0
C2283 C 0.09358 0.81145 0.87459 0.0
C2284 C 0.07218 0.76854 0.90174 0.0
C2285 C 0.08914 0.7602 0.90965 0.0
C2286 C 0.09184 0.79198 0.88409 0.0
C2287 C 0.10725 0.767 0.90294 0.0
C2288 C 0.1118 0.82068 0.87291 0.0
C2289 C 0.07769 0.84093 0.86488 0.0
N2290 N 0.10813 0.78277 0.89088 0.0
N2291 N 0.07717 0.82177 0.87007 0.0
H2292 H 0.64904 0.05823 0.86621 0.0
H2293 H 0.74297 0.11589 0.90467 0.0
H2294 H 0.65156 0.12048 0.87418 0.0
H2295 H 0.73112 0.05549 0.91764 0.0
H2296 H 0.71445 0.11641 0.88309 0.0
H2297 H 0.68379 0.05613 0.87489 0.0
C2298 C 0.65709 0.07148 0.86924 0.0
C2299 C 0.64753 0.08953 0.86962 0.0
C2300 C 0.7184 0.10293 0.89031 0.0
C2301 C 0.68702 0.08729 0.87954 0.0
C2302 C 0.73477 0.10256 0.90249 0.0
C2303 C 0.73926 0.08567 0.91314 0.0
C2304 C 0.70662 0.08624 0.88865 0.0
C2305 C 0.72802 0.06887 0.90985 0.0
C2306 C 0.67683 0.07028 0.87429 0.0
C2307 C 0.65847 0.10629 0.87385 0.0
N2308 N 0.71207 0.06963 0.89808 0.0
N2309 N 0.67761 0.10476 0.8788 0.0
H2310 H 0.38571 0.65848 0.87454 0.0
H2311 H 0.45816 0.73648 0.9188 0.0
H2312 H 0.44821 0.65329 0.87084 0.0
H2313 H 0.39594 0.74513 0.91518 0.0
H2314 H 0.45531 0.70895 0.89636 0.0
H2315 H 0.38937 0.69258 0.88431 0.0
C2316 C 0.40021 0.66474 0.87531 0.0
C2317 C 0.41669 0.65309 0.87195 0.0
C2318 C 0.44231 0.71709 0.90012 0.0
C2319 C 0.42108 0.69199 0.88367 0.0
C2320 C 0.44393 0.73288 0.91291 0.0
C2321 C 0.42723 0.743 0.91911 0.0
C2322 C 0.42379 0.71113 0.89366 0.0
C2323 C 0.40921 0.73773 0.9109 0.0
C2324 C 0.40231 0.68419 0.88096 0.0
C2325 C 0.43515 0.66183 0.87323 0.0
N2326 N 0.40792 0.72193 0.89892 0.0
N2327 N 0.43687 0.68066 0.87935 0.0
H2328 H 0.84899 0.06319 0.64467 0.0
H2329 H 0.7571 0.11768 0.59849 0.0
H2330 H 0.84472 0.12534 0.6366 0.0
H2331 H 0.76751 0.05581 0.59402 0.0
H2332 H 0.78401 0.12011 0.62184 0.0
H2333 H 0.81449 0.06002 0.63551 0.0
C2334 C 0.84061 0.07621 0.64156 0.0
C2335 C 0.84968 0.09452 0.64118 0.0
C2336 C 0.78011 0.10593 0.61608 0.0
C2337 C 0.81044 0.09104 0.63049 0.0
C2338 C 0.76463 0.1045 0.60285 0.0
C2339 C 0.76028 0.08656 0.59401 0.0
C2340 C 0.79125 0.0893 0.62052 0.0
C2341 C 0.77058 0.06999 0.60025 0.0
C2342 C 0.82099 0.0744 0.6362 0.0
C2343 C 0.83825 0.11094 0.63687 0.0
N2344 N 0.78578 0.07181 0.61287 0.0
N2345 N 0.8193 0.10879 0.63145 0.0
H2346 H 0.45363 0.86318 0.61177 0.0
H2347 H 0.40383 0.75929 0.59448 0.0
H2348 H 0.39975 0.84534 0.6387 0.0
H2349 H 0.45051 0.78285 0.55941 0.0
H2350 H 0.40758 0.78667 0.61717 0.0
H2351 H 0.45801 0.83 0.59919 0.0
C2352 C 0.44307 0.85203 0.61553 0.0
C2353 C 0.42642 0.8568 0.62636 0.0
C2354 C 0.41726 0.78562 0.60472 0.0
C2355 C 0.43093 0.81908 0.61161 0.0
C2356 C 0.41522 0.76991 0.59182 0.0
C2357 C 0.42671 0.76894 0.57487 0.0
C2358 C 0.43094 0.80035 0.60066 0.0
C2359 C 0.44118 0.78317 0.57216 0.0
C2360 C 0.44545 0.83317 0.60824 0.0
C2361 C 0.41288 0.84206 0.63055 0.0
N2362 N 0.44272 0.79839 0.58476 0.0
N2363 N 0.4153 0.82388 0.62296 0.0
H2364 H 0.6533 0.38102 0.63771 0.0
H2365 H 0.73649 0.44856 0.59605 0.0
H2366 H 0.65145 0.4437 0.64075 0.0
H2367 H 0.74178 0.38609 0.60048 0.0
H2368 H 0.70847 0.44746 0.61803 0.0
H2369 H 0.68809 0.38267 0.62991 0.0
C2370 C 0.66042 0.39512 0.63726 0.0
C2371 C 0.64954 0.41226 0.63979 0.0
C2372 C 0.71599 0.43401 0.61459 0.0
C2373 C 0.68924 0.41435 0.63029 0.0
C2374 C 0.73207 0.43464 0.60208 0.0
C2375 C 0.74135 0.41736 0.59622 0.0
C2376 C 0.70887 0.41591 0.62105 0.0
C2377 C 0.73504 0.39976 0.60455 0.0
C2378 C 0.68026 0.39608 0.63273 0.0
C2379 C 0.65937 0.43016 0.63897 0.0
N2380 N 0.71893 0.39944 0.6162 0.0
N2381 N 0.67858 0.43077 0.6339 0.0
H2382 H 0.06065 0.65057 0.63969 0.0
H2383 H 0.11662 0.74088 0.59185 0.0
H2384 H 0.12216 0.65149 0.62665 0.0
H2385 H 0.05397 0.73551 0.59474 0.0
H2386 H 0.11961 0.71238 0.61315 0.0
H2387 H 0.05889 0.68544 0.6318 0.0
C2388 C 0.07388 0.65825 0.63569 0.0
C2389 C 0.09152 0.64813 0.63358 0.0
C2390 C 0.1052 0.71769 0.60945 0.0
C2391 C 0.08963 0.68786 0.62431 0.0
C2392 C 0.10348 0.73408 0.59741 0.0
C2393 C 0.08502 0.7404 0.59123 0.0
C2394 C 0.08833 0.70759 0.61538 0.0
C2395 C 0.06851 0.73095 0.5989 0.0
C2396 C 0.07286 0.6781 0.63105 0.0
C2397 C 0.10821 0.65874 0.62821 0.0
N2398 N 0.07056 0.71486 0.61031 0.0
N2399 N 0.10682 0.67794 0.62353 0.0
H2400 H 0.87697 0.85585 0.37173 0.0
H2401 H 0.90161 0.76671 0.4407 0.0
H2402 H 0.8603 0.85374 0.43235 0.0
H2403 H 0.90956 0.76528 0.37825 0.0
H2404 H 0.88208 0.79629 0.43723 0.0
H2405 H 0.88466 0.82106 0.37289 0.0
C2406 C 0.87456 0.84791 0.38519 0.0
C2407 C 0.86811 0.85769 0.402 0.0
C2408 C 0.88773 0.78932 0.42422 0.0
C2409 C 0.87726 0.81788 0.4036 0.0
C2410 C 0.89884 0.77235 0.42619 0.0
C2411 C 0.90743 0.76358 0.40976 0.0
C2412 C 0.8854 0.79781 0.4057 0.0
C2413 C 0.90329 0.77153 0.39133 0.0
C2414 C 0.87897 0.82805 0.38587 0.0
C2415 C 0.86519 0.84674 0.41905 0.0
N2416 N 0.8929 0.7884 0.38984 0.0
N2417 N 0.87011 0.82749 0.41952 0.0
H2418 H 0.72088 0.94078 0.45097 0.0
H2419 H 0.64631 0.86331 0.40725 0.0
H2420 H 0.73381 0.90486 0.40096 0.0
H2421 H 0.63255 0.90586 0.45143 0.0
H2422 H 0.68102 0.87169 0.4105 0.0
H2423 H 0.69184 0.92123 0.45724 0.0
C2424 C 0.71781 0.92845 0.44156 0.0
C2425 C 0.72957 0.92458 0.42527 0.0
C2426 C 0.67046 0.87885 0.41981 0.0
C2427 C 0.696 0.90242 0.43202 0.0
C2428 C 0.6507 0.87396 0.41807 0.0
C2429 C 0.63663 0.88403 0.42901 0.0
C2430 C 0.67608 0.89384 0.43263 0.0
C2431 C 0.64298 0.89787 0.44265 0.0
C2432 C 0.70117 0.91733 0.44509 0.0
C2433 C 0.72506 0.90835 0.41365 0.0
N2434 N 0.6622 0.90252 0.44391 0.0
N2435 N 0.70835 0.89808 0.417 0.0
H2436 H 0.63667 0.63885 0.37148 0.0
H2437 H 0.60332 0.73022 0.43432 0.0
H2438 H 0.64203 0.6423 0.43407 0.0
H2439 H 0.5898 0.72153 0.37337 0.0
H2440 H 0.62589 0.70268 0.43287 0.0
H2441 H 0.62876 0.67357 0.37049 0.0
C2442 C 0.63678 0.64713 0.38495 0.0
C2443 C 0.63973 0.63775 0.4029 0.0
C2444 C 0.61824 0.70702 0.41974 0.0
C2445 C 0.63017 0.67726 0.40199 0.0
C2446 C 0.60534 0.72276 0.42053 0.0
C2447 C 0.59433 0.72791 0.40403 0.0
C2448 C 0.62014 0.6964 0.40232 0.0
C2449 C 0.59772 0.71784 0.38654 0.0
C2450 C 0.63213 0.66689 0.38442 0.0
C2451 C 0.63979 0.64905 0.41995 0.0
N2452 N 0.61012 0.70241 0.38621 0.0
N2453 N 0.63461 0.66817 0.41913 0.0
H2454 H 0.84699 0.63208 0.3751 0.0
H2455 H 0.76797 0.58938 0.44717 0.0
H2456 H 0.85166 0.63514 0.43778 0.0
H2457 H 0.76087 0.59074 0.38462 0.0
H2458 H 0.79498 0.6124 0.44432 0.0
H2459 H 0.81258 0.62325 0.37837 0.0
C2460 C 0.84061 0.6313 0.38955 0.0
C2461 C 0.85223 0.63407 0.40621 0.0
C2462 C 0.78727 0.60805 0.43122 0.0
C2463 C 0.81291 0.62365 0.41011 0.0
C2464 C 0.77176 0.59495 0.43286 0.0
C2465 C 0.76234 0.5879 0.41608 0.0
C2466 C 0.79365 0.61391 0.41264 0.0
C2467 C 0.76778 0.59571 0.39793 0.0
C2468 C 0.82097 0.62625 0.39143 0.0
C2469 C 0.84323 0.63308 0.42457 0.0
N2470 N 0.78337 0.60795 0.39665 0.0
N2471 N 0.8242 0.62757 0.42605 0.0
H2472 H 0.8693 0.65098 0.12649 0.0
H2473 H 0.9107 0.73336 0.05707 0.0
H2474 H 0.86567 0.64848 0.06376 0.0
H2475 H 0.90923 0.7384 0.1198 0.0
H2476 H 0.88867 0.70544 0.05906 0.0
H2477 H 0.87815 0.68547 0.12437 0.0
C2478 C 0.86985 0.6579 0.11227 0.0
C2479 C 0.86682 0.64688 0.09526 0.0
C2480 C 0.89279 0.71287 0.0724 0.0
C2481 C 0.87749 0.68627 0.09265 0.0
C2482 C 0.90532 0.7289 0.07126 0.0
C2483 C 0.91199 0.73814 0.08831 0.0
C2484 C 0.88707 0.70574 0.09076 0.0
C2485 C 0.90449 0.73174 0.10628 0.0
C2486 C 0.87499 0.67757 0.11105 0.0
C2487 C 0.8678 0.65648 0.07721 0.0
N2488 N 0.89276 0.7157 0.10706 0.0
N2489 N 0.87341 0.67553 0.07636 0.0
H2490 H 0.76146 0.90224 0.11409 0.0
H2491 H 0.85715 0.86669 0.0574 0.0
H2492 H 0.77435 0.91668 0.05414 0.0
H2493 H 0.85216 0.87004 0.12001 0.0
H2494 H 0.82249 0.87548 0.05455 0.0
H2495 H 0.79006 0.88085 0.11463 0.0
C2496 C 0.76996 0.90049 0.10087 0.0
C2497 C 0.76567 0.91148 0.08412 0.0
C2498 C 0.82888 0.87383 0.06892 0.0
C2499 C 0.79846 0.88715 0.08471 0.0
C2500 C 0.84857 0.86867 0.07053 0.0
C2501 C 0.85742 0.86772 0.08895 0.0
C2502 C 0.81803 0.87791 0.08587 0.0
C2503 C 0.8458 0.87069 0.10555 0.0
C2504 C 0.78637 0.88839 0.10124 0.0
C2505 C 0.77727 0.90867 0.06744 0.0
N2506 N 0.82675 0.87583 0.10362 0.0
N2507 N 0.79326 0.89697 0.06823 0.0
H2508 H 0.59424 0.7692 0.13177 0.0
H2509 H 0.64196 0.85823 0.07488 0.0
H2510 H 0.59246 0.77651 0.06918 0.0
H2511 H 0.63274 0.85615 0.1371 0.0
H2512 H 0.6336 0.82354 0.07283 0.0
H2513 H 0.61782 0.79579 0.13383 0.0
C2514 C 0.5991 0.77611 0.1184 0.0
C2515 C 0.59096 0.77096 0.10031 0.0
C2516 C 0.63389 0.83055 0.087 0.0
C2517 C 0.61785 0.80151 0.10262 0.0
C2518 C 0.63881 0.85029 0.08818 0.0
C2519 C 0.63775 0.86003 0.10615 0.0
C2520 C 0.62789 0.82061 0.10391 0.0
C2521 C 0.63345 0.84916 0.12294 0.0
C2522 C 0.61255 0.79133 0.1196 0.0
C2523 C 0.59805 0.78025 0.08348 0.0
N2524 N 0.62838 0.83009 0.12138 0.0
N2525 N 0.61083 0.79532 0.08507 0.0
H2526 H 0.74392 0.59075 0.12238 0.0
H2527 H 0.65218 0.63784 0.0681 0.0
H2528 H 0.73641 0.59157 0.05984 0.0
H2529 H 0.65438 0.62413 0.12944 0.0
H2530 H 0.68714 0.63013 0.06553 0.0
H2531 H 0.71578 0.61246 0.12563 0.0
C2532 C 0.73676 0.59598 0.10929 0.0
C2533 C 0.74231 0.58906 0.09083 0.0
C2534 C 0.68006 0.62923 0.07964 0.0
C2535 C 0.70992 0.61364 0.09446 0.0
C2536 C 0.66019 0.63374 0.0811 0.0
C2537 C 0.65049 0.63144 0.09896 0.0
C2538 C 0.6902 0.62248 0.09618 0.0
C2539 C 0.66139 0.62593 0.11539 0.0
C2540 C 0.72057 0.60825 0.11116 0.0
C2541 C 0.73243 0.59632 0.07439 0.0
N2542 N 0.68061 0.62143 0.11357 0.0
N2543 N 0.71653 0.60794 0.0766 0.0
H2544 H 0.45271 0.93398 0.78565 0.0
H2545 H 0.39693 0.86099 0.854 0.0
H2546 H 0.40437 0.89928 0.76518 0.0
H2547 H 0.45478 0.88166 0.86708 0.0
H2548 H 0.40094 0.8719 0.82016 0.0
H2549 H 0.45566 0.91258 0.81404 0.0
C2550 C 0.44296 0.9216 0.78693 0.0
C2551 C 0.42816 0.91852 0.77311 0.0
C2552 C 0.413 0.8736 0.83024 0.0
C2553 C 0.43117 0.89417 0.80585 0.0
C2554 C 0.41073 0.86725 0.8495 0.0
C2555 C 0.42562 0.8703 0.8632 0.0
C2556 C 0.43008 0.88356 0.8248 0.0
C2557 C 0.44307 0.87885 0.85684 0.0
C2558 C 0.44466 0.90937 0.80316 0.0
C2559 C 0.41598 0.90222 0.77548 0.0
N2560 N 0.4447 0.88553 0.83818 0.0
N2561 N 0.4175 0.89089 0.79175 0.0
H2562 H 0.44954 0.59998 0.72975 0.0
H2563 H 0.43894 0.65126 0.64363 0.0
H2564 H 0.38706 0.60354 0.73595 0.0
H2565 H 0.37855 0.63436 0.6483 0.0
H2566 H 0.44343 0.64326 0.67817 0.0
H2567 H 0.44771 0.62074 0.7011 0.0
C2568 C 0.43545 0.60566 0.72541 0.0
C2569 C 0.41842 0.59988 0.73525 0.0
C2570 C 0.42917 0.64123 0.67174 0.0
C2571 C 0.41608 0.6239 0.70206 0.0
C2572 C 0.42654 0.64617 0.65203 0.0
C2573 C 0.40845 0.64311 0.64296 0.0
C2574 C 0.41359 0.633 0.6824 0.0
C2575 C 0.39288 0.63654 0.6546 0.0
C2576 C 0.43439 0.61767 0.70894 0.0
C2577 C 0.40058 0.60764 0.72888 0.0
N2578 N 0.39587 0.63148 0.67356 0.0
N2579 N 0.39985 0.61889 0.71248 0.0
H2580 H 0.90297 0.38989 0.74491 0.0
H2581 H 0.86948 0.44749 0.64934 0.0
H2582 H 0.91561 0.45056 0.73398 0.0
H2583 H 0.87129 0.38493 0.6545 0.0
H2584 H 0.87672 0.4502 0.68439 0.0
H2585 H 0.88168 0.38959 0.71626 0.0
C2586 C 0.90089 0.40329 0.73681 0.0
C2587 C 0.91141 0.42018 0.74162 0.0
C2588 C 0.87505 0.43588 0.67794 0.0
C2589 C 0.88719 0.41987 0.70873 0.0
C2590 C 0.87078 0.43436 0.65802 0.0
C2591 C 0.86994 0.41598 0.64913 0.0
C2592 C 0.87841 0.41889 0.68894 0.0
C2593 C 0.87194 0.39936 0.66089 0.0
C2594 C 0.88881 0.40307 0.72038 0.0
C2595 C 0.90804 0.43712 0.7306 0.0
N2596 N 0.87631 0.40121 0.68014 0.0
N2597 N 0.89647 0.43646 0.7145 0.0
H2598 H 0.04545 0.92465 0.72739 0.0
H2599 H 0.11028 0.86459 0.65451 0.0
H2600 H 0.10077 0.89957 0.74386 0.0
H2601 H 0.04933 0.87559 0.644 0.0
H2602 H 0.10579 0.87376 0.68874 0.0
H2603 H 0.04483 0.90358 0.69863 0.0
C2604 C 0.05728 0.91442 0.72518 0.0
C2605 C 0.07334 0.9141 0.73791 0.0
C2606 C 0.09326 0.87375 0.67913 0.0
C2607 C 0.07288 0.89017 0.70478 0.0
C2608 C 0.09583 0.86845 0.65962 0.0
C2609 C 0.08014 0.86936 0.64654 0.0
C2610 C 0.07496 0.88049 0.68546 0.0
C2611 C 0.06173 0.87462 0.65373 0.0
C2612 C 0.05692 0.90238 0.70873 0.0
C2613 C 0.08817 0.90044 0.73438 0.0
N2614 N 0.05971 0.88037 0.67265 0.0
N2615 N 0.08778 0.88931 0.71794 0.0
H2616 H 0.63517 0.05383 0.64324 0.0
H2617 H 0.57839 0.05167 0.7263 0.0
H2618 H 0.6269 0.11578 0.64949 0.0
H2619 H 0.60207 0.10826 0.74004 0.0
H2620 H 0.59936 0.05019 0.69755 0.0
H2621 H 0.62703 0.04965 0.67793 0.0
C2622 C 0.6321 0.06657 0.65206 0.0
C2623 C 0.63145 0.08514 0.64352 0.0
C2624 C 0.60057 0.06263 0.70718 0.0
C2625 C 0.6216 0.08049 0.6829 0.0
C2626 C 0.5885 0.06352 0.72358 0.0
C2627 C 0.58846 0.08012 0.73554 0.0
C2628 C 0.61245 0.07867 0.70247 0.0
C2629 C 0.60171 0.09514 0.73127 0.0
C2630 C 0.62719 0.06417 0.67176 0.0
C2631 C 0.62733 0.1012 0.65553 0.0
N2632 N 0.6128 0.09428 0.71479 0.0
N2633 N 0.62238 0.09849 0.67456 0.0
H2634 H 0.12598 0.63914 0.84672 0.0
H2635 H 0.05405 0.59454 0.7681 0.0
H2636 H 0.06344 0.63872 0.85307 0.0
H2637 H 0.11641 0.59789 0.76036 0.0
H2638 H 0.05659 0.61677 0.79582 0.0
H2639 H 0.1223 0.63031 0.81233 0.0
C2640 C 0.11144 0.63764 0.8407 0.0
C2641 C 0.09499 0.63947 0.85278 0.0
C2642 C 0.0697 0.613 0.78784 0.0
C2643 C 0.09063 0.62894 0.81348 0.0
C2644 C 0.06825 0.60034 0.77193 0.0
C2645 C 0.08508 0.59409 0.76205 0.0
C2646 C 0.08815 0.61931 0.79413 0.0
C2647 C 0.10306 0.60221 0.76759 0.0
C2648 C 0.10933 0.63254 0.82107 0.0
C2649 C 0.07649 0.63746 0.84426 0.0
N2650 N 0.10416 0.61407 0.7835 0.0
N2651 N 0.07482 0.63193 0.82522 0.0
H2652 H 0.86726 0.06054 0.85889 0.0
H2653 H 0.90289 0.11423 0.76142 0.0
H2654 H 0.87333 0.12277 0.85299 0.0
H2655 H 0.91705 0.05456 0.77544 0.0
H2656 H 0.8824 0.11579 0.79062 0.0
H2657 H 0.87608 0.05679 0.82426 0.0
C2658 C 0.8699 0.07342 0.85012 0.0
C2659 C 0.86963 0.09197 0.85868 0.0
C2660 C 0.8897 0.10224 0.78708 0.0
C2661 C 0.87976 0.08786 0.81933 0.0
C2662 C 0.9013 0.10128 0.77032 0.0
C2663 C 0.91196 0.08432 0.76612 0.0
C2664 C 0.88859 0.08608 0.79962 0.0
C2665 C 0.9093 0.06801 0.77826 0.0
C2666 C 0.87506 0.07128 0.83046 0.0
C2667 C 0.87343 0.10822 0.84684 0.0
N2668 N 0.89806 0.06936 0.79458 0.0
N2669 N 0.87846 0.10579 0.8278 0.0
H2670 H 0.59546 0.38749 0.76018 0.0
H2671 H 0.63921 0.44084 0.85402 0.0
H2672 H 0.59276 0.44951 0.77017 0.0
H2673 H 0.63598 0.37847 0.8471 0.0
H2674 H 0.63011 0.4447 0.8196 0.0
H2675 H 0.61802 0.3845 0.78777 0.0
C2676 C 0.60006 0.40056 0.76778 0.0
C2677 C 0.59198 0.41874 0.76303 0.0
C2678 C 0.63178 0.43015 0.82549 0.0
C2679 C 0.61752 0.4154 0.79485 0.0
C2680 C 0.63716 0.42796 0.8451 0.0
C2681 C 0.63811 0.40933 0.85348 0.0
C2682 C 0.62732 0.41358 0.8142 0.0
C2683 C 0.63513 0.39312 0.84127 0.0
C2684 C 0.61282 0.39883 0.78366 0.0
C2685 C 0.59843 0.43516 0.77349 0.0
N2686 N 0.62959 0.39562 0.82237 0.0
N2687 N 0.61055 0.43306 0.78906 0.0
H2688 H 0.99516 0.70339 0.35261 0.0
H2689 H 0.99611 0.60511 0.28958 0.0
H2690 H 0.95373 0.65678 0.36145 0.0
H2691 H 0.03047 0.65595 0.27577 0.0
H2692 H 0.98129 0.62294 0.31688 0.0
H2693 H 0.00908 0.68546 0.32526 0.0
C2694 C 0.98895 0.68938 0.34879 0.0
C2695 C 0.97324 0.68159 0.35937 0.0
C2696 C 0.99206 0.63019 0.30786 0.0
C2697 C 0.98923 0.66086 0.32799 0.0
C2698 C 1.00054 0.62002 0.29234 0.0
C2699 C 0.01452 0.62911 0.28047 0.0
C2700 C 0.99772 0.64954 0.31156 0.0
C2701 C 0.01975 0.64842 0.2846 0.0
C2702 C 0.9969 0.67914 0.33312 0.0
C2703 C 0.96579 0.66338 0.35366 0.0
N2704 N 0.01138 0.65798 0.29982 0.0
N2705 N 0.97391 0.65359 0.3384 0.0
H2706 H 0.80685 0.95468 0.33708 0.0
H2707 H 0.86284 0.04639 0.29218 0.0
H2708 H 0.83667 0.99807 0.37168 0.0
H2709 H 0.85574 0.99308 0.25955 0.0
H2710 H 0.84756 0.03082 0.3204 0.0
H2711 H 0.8197 0.97027 0.30737 0.0
C2712 C 0.81607 0.96743 0.33843 0.0
C2713 C 0.82075 0.97503 0.35689 0.0
C2714 C 0.84927 0.02254 0.30704 0.0
C2715 C 0.83512 0.993 0.32315 0.0
C2716 C 0.85788 0.03145 0.29092 0.0
C2717 C 0.86061 0.02094 0.27361 0.0
C2718 C 0.84315 0.00304 0.30578 0.0
C2719 C 0.85394 1.00161 0.27272 0.0
C2720 C 0.82339 0.97628 0.32152 0.0
C2721 C 0.83276 0.9916 0.35781 0.0
N2722 N 0.84549 0.99322 0.28863 0.0
N2723 N 0.83941 1.00006 0.3412 0.0
H2724 H 0.50738 0.89397 0.29768 0.0
H2725 H 0.51205 0.78747 0.34518 0.0
H2726 H 0.4704 0.84588 0.28109 0.0
H2727 H 0.54466 0.83592 0.36859 0.0
H2728 H 0.4969 0.80922 0.32172 0.0
H2729 H 0.52139 0.87369 0.3238 0.0
C2730 C 0.50217 0.87918 0.2996 0.0
C2731 C 0.48777 0.87154 0.28718 0.0
C2732 C 0.5073 0.81522 0.332 0.0
C2733 C 0.50372 0.84832 0.31686 0.0
C2734 C 0.51604 0.80275 0.34543 0.0
C2735 C 0.52973 0.80985 0.3589 0.0
C2736 C 0.51234 0.83506 0.33176 0.0
C2737 C 0.53415 0.82984 0.35852 0.0
C2738 C 0.51015 0.86764 0.31449 0.0
C2739 C 0.48151 0.85234 0.29028 0.0
N2740 N 0.52556 0.84176 0.34508 0.0
N2741 N 0.48956 0.8414 0.30471 0.0
H2742 H 0.65815 0.46253 0.27624 0.0
H2743 H 0.65988 0.54111 0.36282 0.0
H2744 H 0.60889 0.49888 0.29064 0.0
H2745 H 0.70635 0.50019 0.35134 0.0
H2746 H 0.64142 0.5271 0.33559 0.0
H2747 H 0.67643 0.47719 0.30311 0.0
C2748 C 0.65118 0.47357 0.28514 0.0
C2749 C 0.63202 0.47951 0.2813 0.0
C2750 C 0.65568 0.52124 0.33903 0.0
C2751 C 0.65283 0.49646 0.31199 0.0
C2752 C 0.66626 0.52928 0.35451 0.0
C2753 C 0.68469 0.52181 0.35937 0.0
C2754 C 0.66364 0.50568 0.32832 0.0
C2755 C 0.69218 0.5064 0.34817 0.0
C2756 C 0.66161 0.48196 0.30046 0.0
C2757 C 0.62365 0.49389 0.2932 0.0
N2758 N 0.68164 0.49887 0.3332 0.0
N2759 N 0.63414 0.50193 0.30802 0.0
H2760 H 0.00606 0.80157 0.14484 0.0
H2761 H 0.99022 0.87517 0.23381 0.0
H2762 H 0.9544 0.83719 0.15003 0.0
H2763 H 0.04645 0.85262 0.21689 0.0
H2764 H 0.97559 0.85906 0.20531 0.0
H2765 H 0.01978 0.81779 0.17331 0.0
C2766 C 0.99753 0.81279 0.15199 0.0
C2767 C 0.97899 0.81798 0.14499 0.0
C2768 C 0.99112 0.85765 0.20785 0.0
C2769 C 0.99474 0.83665 0.17783 0.0
C2770 C 0.99945 0.86675 0.22413 0.0
C2771 C 0.01956 0.86517 0.22768 0.0
C2772 C 0.00296 0.84671 0.1952 0.0
C2773 C 0.03089 0.85419 0.21468 0.0
C2774 C 0.00545 0.8221 0.16824 0.0
C2775 C 0.96875 0.83272 0.15488 0.0
N2776 N 0.02243 0.84532 0.19907 0.0
N2777 N 0.97672 0.84149 0.17087 0.0
H2778 H 0.60547 0.00815 0.21084 0.0
H2779 H 0.70518 0.96808 0.16499 0.0
H2780 H 0.6618 0.01876 0.23683 0.0
H2781 H 0.6514 0.97391 0.13278 0.0
H2782 H 0.6886 0.98092 0.19412 0.0
H2783 H 0.62138 0.99009 0.18449 0.0
C2784 C 0.6212 0.00664 0.21098 0.0
C2785 C 0.6324 0.01507 0.22584 0.0
C2786 C 0.68044 0.9792 0.18069 0.0
C2787 C 0.65067 0.99435 0.19595 0.0
C2788 C 0.68984 0.97176 0.16417 0.0
C2789 C 0.67965 0.97017 0.14649 0.0
C2790 C 0.66074 0.98475 0.17947 0.0
C2791 C 0.65983 0.97518 0.1461 0.0
C2792 C 0.63027 0.99633 0.19598 0.0
C2793 C 0.65271 0.01259 0.22548 0.0
N2794 N 0.65104 0.98231 0.16232 0.0
N2795 N 0.66123 0.00246 0.21072 0.0
H2796 H 0.56007 0.69807 0.1704 0.0
H2797 H 0.46999 0.63775 0.2078 0.0
H2798 H 0.51562 0.67793 0.13082 0.0
H2799 H 0.52569 0.63443 0.23684 0.0
H2800 H 0.48589 0.6535 0.17983 0.0
H2801 H 0.54791 0.67536 0.19524 0.0
C2802 C 0.54812 0.68837 0.16679 0.0
C2803 C 0.53905 0.68949 0.14851 0.0
C2804 C 0.49466 0.64916 0.19225 0.0
C2805 C 0.52444 0.66427 0.17704 0.0
C2806 C 0.48558 0.64032 0.20825 0.0
C2807 C 0.49655 0.63493 0.22466 0.0
C2808 C 0.51478 0.65301 0.19286 0.0
C2809 C 0.51671 0.63844 0.22447 0.0
C2810 C 0.5411 0.67553 0.18097 0.0
C2811 C 0.52326 0.67709 0.14464 0.0
N2812 N 0.52516 0.6475 0.20893 0.0
N2813 N 0.5162 0.66521 0.15893 0.0
H2814 H 0.89812 0.50153 0.21437 0.0
H2815 H 0.80042 0.49987 0.15033 0.0
H2816 H 0.8487 0.4645 0.22641 0.0
H2817 H 0.84612 0.54242 0.14192 0.0
H2818 H 0.81868 0.48607 0.17747 0.0
H2819 H 0.88018 0.51592 0.18692 0.0
C2820 C 0.88351 0.49641 0.21118 0.0
C2821 C 0.87483 0.48183 0.22261 0.0
C2822 C 0.82473 0.49846 0.16975 0.0
C2823 C 0.85428 0.49817 0.19138 0.0
C2824 C 0.8143 0.50636 0.1542 0.0
C2825 C 0.82173 0.52236 0.14381 0.0
C2826 C 0.84283 0.50649 0.17498 0.0
C2827 C 0.83979 0.53013 0.14957 0.0
C2828 C 0.87327 0.50465 0.19557 0.0
C2829 C 0.8559 0.47572 0.21794 0.0
N2830 N 0.84977 0.52208 0.16475 0.0
N2831 N 0.84627 0.4839 0.20267 0.0
H2832 H 0.26824 0.01219 0.66793 0.0
H2833 H 0.37394 0.96788 0.6498 0.0
H2834 H 0.29264 0.00377 0.61049 0.0
H2835 H 0.34332 0.96144 0.7045 0.0
H2836 H 0.34445 0.98144 0.63522 0.0
H2837 H 0.29595 0.99446 0.68194 0.0
C2838 C 0.27946 0.00659 0.65829 0.0
C2839 C 0.27829 0.00948 0.63807 0.0
C2840 C 0.34409 0.97689 0.65036 0.0
C2841 C 0.30989 0.98927 0.6539 0.0
C2842 C 0.36093 0.96917 0.6587 0.0
C2843 C 0.36108 0.96364 0.67842 0.0
C2844 C 0.32735 0.9794 0.66189 0.0
C2845 C 0.34379 0.96548 0.68923 0.0
C2846 C 0.29518 0.9964 0.66626 0.0
C2847 C 0.29308 0.00188 0.62618 0.0
N2848 N 0.32766 0.97345 0.68088 0.0
N2849 N 0.30835 0.99222 0.63428 0.0
H2850 H 0.51256 0.27249 0.6312 0.0
H2851 H 0.49681 0.36436 0.70138 0.0
H2852 H 0.457 0.28858 0.65593 0.0
H2853 H 0.54873 0.35703 0.66645 0.0
H2854 H 0.48314 0.33508 0.68675 0.0
H2855 H 0.52717 0.30171 0.6459 0.0
C2856 C 0.50348 0.28214 0.63982 0.0
C2857 C 0.48356 0.27815 0.64241 0.0
C2858 C 0.49751 0.33985 0.68223 0.0
C2859 C 0.50013 0.3115 0.65922 0.0
C2860 C 0.50539 0.35659 0.69062 0.0
C2861 C 0.524 0.36322 0.68516 0.0
C2862 C 0.50831 0.32942 0.66831 0.0
C2863 C 0.53433 0.35249 0.67108 0.0
C2864 C 0.5118 0.29883 0.64811 0.0
C2865 C 0.47242 0.29112 0.6536 0.0
N2866 N 0.52637 0.33606 0.66318 0.0
N2867 N 0.48086 0.30718 0.66162 0.0
H2868 H 0.15019 0.50802 0.70545 0.0
H2869 H 0.21301 0.50801 0.60691 0.0
H2870 H 0.13963 0.54813 0.65801 0.0
H2871 H 0.22751 0.47407 0.65788 0.0
H2872 H 0.18527 0.52204 0.62463 0.0
H2873 H 0.17786 0.49473 0.68759 0.0
C2874 C 0.15371 0.51409 0.69127 0.0
C2875 C 0.14255 0.52924 0.68323 0.0
C2876 C 0.19452 0.51153 0.63194 0.0
C2877 C 0.1743 0.51394 0.66259 0.0
C2878 C 0.21029 0.50349 0.62182 0.0
C2879 C 0.2225 0.48988 0.63098 0.0
C2880 C 0.19092 0.50582 0.65131 0.0
C2881 C 0.21842 0.48453 0.6503 0.0
C2882 C 0.16956 0.50648 0.68108 0.0
C2883 C 0.14788 0.53651 0.66481 0.0
N2884 N 0.20297 0.49249 0.65981 0.0
N2885 N 0.16334 0.52873 0.65507 0.0
H2886 H 0.01766 0.23614 0.66596 0.0
H2887 H 0.96645 0.13299 0.6502 0.0
H2888 H 0.00535 0.21204 0.60911 0.0
H2889 H 0.96667 0.16304 0.70559 0.0
H2890 H 0.98068 0.16179 0.63485 0.0
H2891 H 0.99955 0.20921 0.68094 0.0
C2892 C 0.01115 0.22514 0.65666 0.0
C2893 C 0.01303 0.22618 0.63632 0.0
C2894 C 0.97745 0.16217 0.65033 0.0
C2895 C 0.99233 0.19546 0.65325 0.0
C2896 C 0.96933 0.14573 0.6591 0.0
C2897 C 0.9655 0.14559 0.67922 0.0
C2898 C 0.98203 0.17851 0.6618 0.0
C2899 C 0.96938 0.16254 0.69002 0.0
C2900 C 1.00074 0.20986 0.66519 0.0
C2901 C 0.00426 0.21168 0.62488 0.0
N2902 N 0.97766 0.17825 0.68121 0.0
N2903 N 0.99436 0.19685 0.63351 0.0
H2904 H 0.29278 0.509 0.89478 0.0
H2905 H 0.35216 0.5169 0.79436 0.0
H2906 H 0.27838 0.47699 0.84253 0.0
H2907 H 0.36477 0.55302 0.84444 0.0
H2908 H 0.32521 0.50218 0.81214 0.0
H2909 H 0.31948 0.52506 0.87711 0.0
C2910 C 0.2953 0.50533 0.8796 0.0
C2911 C 0.28342 0.49165 0.87007 0.0
C2912 C 0.33378 0.51337 0.81927 0.0
C2913 C 0.3138 0.50994 0.8498 0.0
C2914 C 0.34922 0.52182 0.80911 0.0
C2915 C 0.36081 0.53622 0.81792 0.0
C2916 C 0.32984 0.51923 0.83851 0.0
C2917 C 0.35618 0.54202 0.83704 0.0
C2918 C 0.31048 0.51453 0.86952 0.0
C2919 C 0.28722 0.48743 0.85042 0.0
N2920 N 0.3411 0.53342 0.84674 0.0
N2921 N 0.30208 0.49653 0.84095 0.0
H2922 H 0.04583 0.29526 0.86943 0.0
H2923 H 0.95788 0.33953 0.80716 0.0
H2924 H 0.99561 0.26058 0.8541 0.0
H2925 H 0.99685 0.3741 0.84262 0.0
H2926 H 0.97325 0.30986 0.82019 0.0
H2927 H 0.03011 0.3238 0.85505 0.0
C2928 C 0.03153 0.29364 0.8629 0.0
C2929 C 0.02196 0.27559 0.86299 0.0
C2930 C 0.97833 0.32398 0.8251 0.0
C2931 C 0.00386 0.3082 0.84649 0.0
C2932 C 0.9696 0.34091 0.81768 0.0
C2933 C 0.97604 0.35937 0.82382 0.0
C2934 C 0.99379 0.3256 0.83848 0.0
C2935 C 0.9913 0.36025 0.83749 0.0
C2936 C 0.02252 0.30995 0.85478 0.0
C2937 C 0.00343 0.2743 0.85435 0.0
N2938 N 0.9997 0.34365 0.84423 0.0
N2939 N 0.99495 0.29042 0.84639 0.0
H2940 H 0.15676 0.9634 0.80143 0.0
H2941 H 0.20774 0.00404 0.89836 0.0
H2942 H 0.12679 0.97051 0.85643 0.0
H2943 H 0.23209 0.01172 0.84078 0.0
H2944 H 0.17968 0.98738 0.88389 0.0
H2945 H 0.18647 0.97644 0.81645 0.0
C2946 C 0.1565 0.96748 0.81671 0.0
C2947 C 0.13926 0.96603 0.82767 0.0
C2948 C 0.19116 0.99269 0.87441 0.0
C2949 C 0.17306 0.98095 0.84485 0.0
C2950 C 0.20714 0.00219 0.88266 0.0
C2951 C 0.2221 0.00932 0.87069 0.0
C2952 C 0.19024 0.99021 0.85408 0.0
C2953 C 0.22074 0.00651 0.85046 0.0
C2954 C 0.1734 0.97503 0.82522 0.0
C2955 C 0.13971 0.97159 0.84738 0.0
N2956 N 0.20505 0.99714 0.84276 0.0
N2957 N 0.15632 0.97884 0.85533 0.0
H2958 H 0.54196 0.16271 0.80255 0.0
H2959 H 0.49681 0.20817 0.90033 0.0
H2960 H 0.53318 0.12962 0.85544 0.0
H2961 H 0.48915 0.23392 0.84339 0.0
H2962 H 0.51503 0.18135 0.88528 0.0
H2963 H 0.52796 0.19135 0.81872 0.0
C2964 C 0.53739 0.16156 0.81765 0.0
C2965 C 0.53858 0.14375 0.82763 0.0
C2966 C 0.50938 0.19288 0.87609 0.0
C2967 C 0.52252 0.17633 0.84613 0.0
C2968 C 0.49899 0.20815 0.88466 0.0
C2969 C 0.49138 0.22313 0.87303 0.0
C2970 C 0.51234 0.19275 0.85579 0.0
C2971 C 0.49467 0.22253 0.85283 0.0
C2972 C 0.52926 0.17785 0.8268 0.0
C2973 C 0.53232 0.14303 0.84714 0.0
N2974 N 0.50494 0.20758 0.84483 0.0
N2975 N 0.52451 0.15907 0.85573 0.0
H2976 H 0.65393 0.36506 0.96414 0.0
H2977 H 0.6621 0.26018 0.01344 0.0
H2978 H 0.7079 0.34337 0.98821 0.0
H2979 H 0.60976 0.29478 0.01768 0.0
H2980 H 0.67876 0.28793 0.99807 0.0
H2981 H 0.63697 0.33643 0.97753 0.0
C2982 C 0.66222 0.35418 0.97204 0.0
C2983 C 0.68231 0.35657 0.97515 0.0
C2984 C 0.66363 0.2894 1.00236 0.0
C2985 C 0.66314 0.3239 0.99023 0.0
C2986 C 0.65413 0.27361 0.01108 0.0
C2987 C 0.63461 0.27532 0.01691 0.0
C2988 C 0.65336 0.3068 0.99908 0.0
C2989 C 0.62489 0.29299 0.0135 0.0
C2990 C 0.65254 0.33796 0.97976 0.0
C2991 C 0.69236 0.34212 0.9856 0.0
N2992 N 0.63433 0.30805 0.00469 0.0
N2993 N 0.68269 0.32634 0.99269 0.0
H2994 H 0.6059 0.21409 0.50826 0.0
H2995 H 0.7061 0.15421 0.50878 0.0
H2996 H 0.65668 0.2301 0.47469 0.0
H2997 H 0.65784 0.14072 0.54702 0.0
H2998 H 0.68782 0.18174 0.49588 0.0
H2999 H 0.62415 0.18667 0.52216 0.0
C3000 C 0.62088 0.21177 0.50379 0.0
C3001 C 0.62983 0.2243 0.49031 0.0
C3002 C 0.68122 0.17283 0.50714 0.0
C3003 C 0.65077 0.19311 0.50613 0.0
C3004 C 0.69167 0.15707 0.51454 0.0
C3005 C 0.68351 0.1451 0.52902 0.0
C3006 C 0.66237 0.17668 0.51415 0.0
C3007 C 0.66474 0.14959 0.53591 0.0
C3008 C 0.6313 0.19618 0.51176 0.0
C3009 C 0.64925 0.22074 0.48503 0.0
N3010 N 0.65476 0.165 0.52835 0.0
N3011 N 0.65906 0.20546 0.49293 0.0
H3012 H 0.33729 0.69599 0.54193 0.0
H3013 H 0.29182 0.63579 0.45339 0.0
H3014 H 0.37176 0.66226 0.50138 0.0
H3015 H 0.25852 0.64824 0.50534 0.0
H3016 H 0.32066 0.64993 0.46888 0.0
H3017 H 0.30758 0.68242 0.52718 0.0
C3018 C 0.33863 0.6857 0.53001 0.0
C3019 C 0.35706 0.68026 0.52288 0.0
C3020 C 0.30704 0.64961 0.4769 0.0
C3021 C 0.32322 0.66503 0.50582 0.0
C3022 C 0.29057 0.64167 0.46802 0.0
C3023 C 0.27283 0.64085 0.47815 0.0
C3024 C 0.30573 0.65703 0.49596 0.0
C3025 C 0.27198 0.6486 0.49709 0.0
C3026 C 0.32169 0.67797 0.52163 0.0
C3027 C 0.35791 0.66685 0.50741 0.0
N3028 N 0.28823 0.65644 0.50542 0.0
N3029 N 0.34125 0.65984 0.49932 0.0
H3030 H 0.84723 0.27267 0.47653 0.0
H3031 H 0.84777 0.36261 0.55132 0.0
H3032 H 0.8978 0.28911 0.51019 0.0
H3033 H 0.79917 0.34767 0.51406 0.0
H3034 H 0.86596 0.33496 0.53786 0.0
H3035 H 0.82907 0.2995 0.49132 0.0
C3036 C 0.8545 0.28198 0.48703 0.0
C3037 C 0.87401 0.27875 0.49214 0.0
C3038 C 0.85129 0.33773 0.5327 0.0
C3039 C 0.85334 0.30945 0.50922 0.0
C3040 C 0.84086 0.35346 0.54043 0.0
C3041 C 0.82191 0.35751 0.53379 0.0
C3042 C 0.84267 0.32595 0.51828 0.0
C3043 C 0.81375 0.34519 0.51959 0.0
C3044 C 0.84414 0.29729 0.49549 0.0
C3045 C 0.88276 0.29119 0.50585 0.0
N3046 N 0.82418 0.33003 0.51232 0.0
N3047 N 0.87235 0.30601 0.51394 0.0
H3048 H 0.22405 0.84496 0.47421 0.0
H3049 H 0.1342 0.845 0.5491 0.0
H3050 H 0.20911 0.89454 0.50992 0.0
H3051 H 0.14402 0.80028 0.50583 0.0
H3052 H 0.16297 0.86241 0.53692 0.0
H3053 H 0.19601 0.82737 0.48754 0.0
C3054 C 0.21483 0.85212 0.48487 0.0
C3055 C 0.2188 0.8712 0.49097 0.0
C3056 C 0.15881 0.84877 0.53013 0.0
C3057 C 0.18678 0.85121 0.50634 0.0
C3058 C 0.14244 0.8388 0.53712 0.0
C3059 C 0.13667 0.82118 0.52844 0.0
C3060 C 0.16952 0.84099 0.51447 0.0
C3061 C 0.14785 0.81386 0.51291 0.0
C3062 C 0.19883 0.8421 0.49247 0.0
C3063 C 0.20646 0.87983 0.50482 0.0
N3064 N 0.16372 0.82378 0.50645 0.0
N3065 N 0.19099 0.86976 0.51209 0.0
H3066 H 0.84763 0.12944 0.99118 0.0
H3067 H 0.85276 0.24557 0.9988 0.0
H3068 H 0.80578 0.16642 0.962 0.0
H3069 H 0.88123 0.20611 0.03866 0.0
H3070 H 0.83731 0.21747 0.98261 0.0
H3071 H 0.86251 0.15811 0.00566 0.0
C3072 C 0.84157 0.14361 0.98772 0.0
C3073 C 0.82529 0.14545 0.9754 0.0
C3074 C 0.8469 0.21502 0.99494 0.0
C3075 C 0.84242 0.17855 0.99213 0.0
C3076 C 0.85569 0.23101 0.00415 0.0
C3077 C 0.86825 0.22809 0.02007 0.0
C3078 C 0.85095 0.19607 1.0016 0.0
C3079 C 0.87162 0.20899 0.02646 0.0
C3080 C 0.85008 0.16001 0.9961 0.0
C3081 C 0.81825 0.16429 0.97146 0.0
N3082 N 0.86311 0.19373 0.01715 0.0
N3083 N 0.82686 0.18015 0.97982 0.0
H3084 H 0.3613 0.79913 0.00442 0.0
H3085 H 0.2945 0.89468 0.9998 0.0
H3086 H 0.37063 0.84543 0.96272 0.0
H3087 H 0.28163 0.84451 0.03551 0.0
H3088 H 0.3231 0.87762 0.9867 0.0
H3089 H 0.33264 0.8162 0.01657 0.0
C3090 C 0.35731 0.81289 0.99777 0.0
C3091 C 0.36841 0.82086 0.98252 0.0
C3092 C 0.314 0.87035 0.99739 0.0
C3093 C 0.33553 0.84059 0.99648 0.0
C3094 C 0.29774 0.88008 0.00489 0.0
C3095 C 0.28577 0.87094 0.01874 0.0
C3096 C 0.31832 0.8514 0.0039 0.0
C3097 C 0.29052 0.85205 0.02485 0.0
C3098 C 0.34089 0.82264 0.00472 0.0
C3099 C 0.36246 0.83872 0.97446 0.0
N3100 N 0.30645 0.84291 0.01741 0.0
N3101 N 0.34645 0.84803 0.9816 0.0
H3102 H 0.1497 0.70522 0.99955 0.0
H3103 H 0.21771 0.61049 0.99762 0.0
H3104 H 0.14281 0.65893 0.95737 0.0
H3105 H 0.22834 0.6605 0.03427 0.0
H3106 H 0.18964 0.62734 0.98327 0.0
H3107 H 0.17798 0.68846 0.01296 0.0
C3108 C 0.15414 0.69152 0.99307 0.0
C3109 C 0.14383 0.68346 0.9773 0.0
C3110 C 0.19813 0.63464 0.99442 0.0
C3111 C 0.1763 0.66411 0.9927 0.0
C3112 C 0.2141 0.62502 0.00263 0.0
C3113 C 0.22529 0.63416 0.01713 0.0
C3114 C 0.19329 0.65347 1.00085 0.0
C3115 C 0.22006 0.65297 0.02312 0.0
C3116 C 0.17034 0.68196 1.00074 0.0
C3117 C 0.15035 0.6657 0.96949 0.0
N3118 N 0.20441 0.66199 0.01498 0.0
N3119 N 0.16615 0.65657 0.97732 0.0
H3120 H 0.04403 0.35097 0.64132 0.0
H3121 H 0.99004 0.34084 0.74423 0.0
H3122 H 0.01837 0.29708 0.66132 0.0
H3123 H 0.991 0.39483 0.71198 0.0
H3124 H 0.00637 0.32466 0.71676 0.0
H3125 H 0.0306 0.36748 0.67022 0.0
C3126 C 0.03577 0.34259 0.65188 0.0
C3127 C 0.03221 0.32266 0.6489 0.0
C3128 C 0.00304 0.34006 0.71575 0.0
C3129 C 0.01705 0.34133 0.68189 0.0
C3130 C 0.99378 0.34928 0.73139 0.0
C3131 C 0.98909 0.36912 0.73025 0.0
C3132 C 0.00794 0.35087 0.69902 0.0
C3133 C 0.99426 0.37945 0.71333 0.0
C3134 C 0.02803 0.35202 0.66826 0.0
C3135 C 0.02132 0.3125 0.66298 0.0
N3136 N 0.00349 0.37021 0.69837 0.0
N3137 N 0.01418 0.32193 0.67889 0.0
H3138 H 0.2056 0.0096 0.66265 0.0
H3139 H 0.1056 1.0 0.72194 0.0
H3140 H 0.15438 0.04355 0.64894 0.0
H3141 H 0.15963 0.9734 0.74007 0.0
H3142 H 0.1229 0.01603 0.69503 0.0
H3143 H 0.18879 0.99621 0.69096 0.0
C3144 C 0.19081 0.01431 0.66562 0.0
C3145 C 0.18137 0.02769 0.65331 0.0
C3146 C 0.13099 0.00676 0.70494 0.0
C3147 C 0.16193 0.01225 0.68581 0.0
C3148 C 0.12113 0.99759 0.72026 0.0
C3149 C 0.13123 0.98533 0.73316 0.0
C3150 C 0.15108 0.00352 0.70244 0.0
C3151 C 0.15131 0.98272 0.73041 0.0
C3152 C 0.18122 0.00666 0.68185 0.0
C3153 C 0.16224 0.03331 0.65802 0.0
N3154 N 0.16056 0.99166 0.71529 0.0
N3155 N 0.15309 0.02545 0.67383 0.0
H3156 H 0.45725 0.19894 0.67074 0.0
H3157 H 0.54714 0.13705 0.71175 0.0
H3158 H 0.49672 0.166 0.63434 0.0
H3159 H 0.49753 0.15149 0.74768 0.0
H3160 H 0.531 0.15226 0.68382 0.0
H3161 H 0.47367 0.18571 0.69974 0.0
C3162 C 0.46932 0.18894 0.66883 0.0
C3163 C 0.47557 0.18354 0.65006 0.0
C3164 C 0.52365 0.15218 0.69782 0.0
C3165 C 0.49452 0.16864 0.68308 0.0
C3166 C 0.53291 0.14361 0.71378 0.0
C3167 C 0.5236 0.14299 0.73198 0.0
C3168 C 0.50501 0.16036 0.7001 0.0
C3169 C 0.50515 0.15166 0.73383 0.0
C3170 C 0.47865 0.18139 0.68537 0.0
C3171 C 0.4913 0.17052 0.64847 0.0
N3172 N 0.49641 0.16001 0.71805 0.0
N3173 N 0.50026 0.16362 0.66473 0.0
H3174 H 0.34446 0.53978 0.72521 0.0
H3175 H 0.34659 0.46167 0.63821 0.0
H3176 H 0.39533 0.5056 0.71109 0.0
H3177 H 0.29899 0.50151 0.6488 0.0
H3178 H 0.36416 0.47604 0.66586 0.0
H3179 H 0.32706 0.52453 0.6981 0.0
C3180 C 0.35196 0.52907 0.71634 0.0
C3181 C 0.37133 0.52394 0.72031 0.0
C3182 C 0.34986 0.48159 0.66212 0.0
C3183 C 0.35154 0.50633 0.68931 0.0
C3184 C 0.33979 0.47335 0.64639 0.0
C3185 C 0.32129 0.48041 0.64116 0.0
C3186 C 0.34131 0.49691 0.67272 0.0
C3187 C 0.31323 0.49563 0.65224 0.0
C3188 C 0.34204 0.52035 0.70087 0.0
C3189 C 0.38039 0.50997 0.70843 0.0
N3190 N 0.32328 0.50334 0.66746 0.0
N3191 N 0.3704 0.5016 0.69345 0.0
H3192 H 0.97609 0.11475 0.79707 0.0
H3193 H 0.04212 0.20257 0.83696 0.0
H3194 H 0.99994 0.15882 0.759 0.0
H3195 H 0.0217 0.15424 0.87184 0.0
H3196 H 0.02753 0.18719 0.808 0.0
H3197 H 0.99299 0.12964 0.82455 0.0
C3198 C 0.9849 0.12763 0.79452 0.0
C3199 C 0.98661 0.13561 0.77578 0.0
C3200 C 0.02638 0.17995 0.82201 0.0
C3201 C 0.00611 0.15282 0.80725 0.0
C3202 C 0.03475 0.18868 0.83852 0.0
C3203 C 0.03302 0.17977 0.85691 0.0
C3204 C 0.01623 0.16224 0.82397 0.0
C3205 C 0.02328 0.16179 0.85806 0.0
C3206 C 0.99461 0.13611 0.81022 0.0
C3207 C 0.99825 0.15226 0.77328 0.0
N3208 N 0.01521 0.15373 0.84189 0.0
N3209 N 0.00756 0.16039 0.78888 0.0
H3210 H 0.34882 0.95452 0.78143 0.0
H3211 H 0.34044 0.0469 0.85247 0.0
H3212 H 0.37837 0.00885 0.77003 0.0
H3213 H 0.30145 0.99747 0.85449 0.0
H3214 H 0.35609 0.03274 0.82352 0.0
H3215 H 0.33271 0.96955 0.80954 0.0
C3216 C 0.35183 0.96966 0.78482 0.0
C3217 C 0.36487 0.98049 0.7734 0.0
C3218 C 0.34406 0.02507 0.8303 0.0
C3219 C 0.3467 0.99777 0.80566 0.0
C3220 C 0.33515 0.03312 0.84685 0.0
C3221 C 0.31957 0.0234 0.85595 0.0
C3222 C 0.33746 0.0071 0.82293 0.0
C3223 C 0.31336 0.00556 0.84799 0.0
C3224 C 0.34264 0.97824 0.80086 0.0
C3225 C 0.36832 1.00003 0.77845 0.0
N3226 N 0.32235 0.99799 0.83204 0.0
N3227 N 0.35937 0.00803 0.79428 0.0
H3228 H 0.52999 0.34587 0.77385 0.0
H3229 H 0.45271 0.34524 0.86162 0.0
H3230 H 0.4964 0.39639 0.79042 0.0
H3231 H 0.49209 0.2978 0.84879 0.0
H3232 H 0.46673 0.3636 0.83432 0.0
H3233 H 0.5147 0.32746 0.80026 0.0
C3234 C 0.51941 0.35308 0.78312 0.0
C3235 C 0.51445 0.37263 0.78006 0.0
C3236 C 0.47223 0.34915 0.83748 0.0
C3237 C 0.49679 0.3517 0.81021 0.0
C3238 C 0.46418 0.33862 0.85298 0.0
C3239 C 0.47128 0.31998 0.85752 0.0
C3240 C 0.4874 0.3409 0.82642 0.0
C3241 C 0.48622 0.31217 0.84591 0.0
C3242 C 0.51066 0.34258 0.79818 0.0
C3243 C 0.50064 0.38131 0.7924 0.0
N3244 N 0.49378 0.32267 0.83093 0.0
N3245 N 0.49224 0.37077 0.80696 0.0
H3246 H 0.10749 0.49979 0.79124 0.0
H3247 H 0.20793 0.49678 0.85074 0.0
H3248 H 0.15907 0.5321 0.77526 0.0
H3249 H 0.15908 0.45939 0.86438 0.0
H3250 H 0.18977 0.51004 0.82332 0.0
H3251 H 0.12553 0.48519 0.81852 0.0
C3252 C 0.1226 0.50383 0.79352 0.0
C3253 C 0.13184 0.51716 0.78106 0.0
C3254 C 0.18299 0.49889 0.83223 0.0
C3255 C 0.15251 0.50057 0.81207 0.0
C3256 C 0.19337 0.49129 0.84794 0.0
C3257 C 0.18501 0.47695 0.85994 0.0
C3258 C 0.164 0.49224 0.82843 0.0
C3259 C 0.16612 0.47038 0.85548 0.0
C3260 C 0.13289 0.49546 0.80903 0.0
C3261 C 0.15141 0.52188 0.78457 0.0
N3262 N 0.15619 0.47815 0.84012 0.0
N3263 N 0.16108 0.51361 0.79975 0.0
H3264 H 0.65134 0.0565 0.33824 0.0
H3265 H 0.71825 0.96112 0.34752 0.0
H3266 H 0.64378 0.00465 0.30328 0.0
H3267 H 0.73352 0.01602 0.37411 0.0
H3268 H 0.68995 0.97667 0.33234 0.0
H3269 H 0.68052 0.04178 0.35291 0.0
C3270 C 0.65579 0.04205 0.33365 0.0
C3271 C 0.64506 0.03182 0.31949 0.0
C3272 C 0.69952 0.98538 0.34142 0.0
C3273 C 0.67835 0.0149 0.33624 0.0
C3274 C 0.71568 0.97649 0.35006 0.0
C3275 C 0.72823 0.98733 0.36202 0.0
C3276 C 0.69575 0.00523 0.34489 0.0
C3277 C 0.7242 0.00718 0.36491 0.0
C3278 C 0.67247 0.03368 0.34199 0.0
C3279 C 0.65154 0.01315 0.31411 0.0
N3280 N 0.70825 0.0155 0.35648 0.0
N3281 N 0.66767 0.00531 0.32251 0.0
H3282 H 0.46916 0.66691 0.30316 0.0
H3283 H 0.50461 0.69773 0.40607 0.0
H3284 H 0.45555 0.62963 0.35202 0.0
H3285 H 0.48076 0.74024 0.36628 0.0
H3286 H 0.48839 0.6718 0.38723 0.0
H3287 H 0.47584 0.69363 0.32598 0.0
C3288 C 0.46737 0.66444 0.31869 0.0
C3289 C 0.46173 0.64611 0.32573 0.0
C3290 C 0.48638 0.68687 0.38295 0.0
C3291 C 0.46984 0.67637 0.35189 0.0
C3292 C 0.49555 0.70164 0.39372 0.0
C3293 C 0.49413 0.72113 0.38764 0.0
C3294 C 0.47622 0.69167 0.36579 0.0
C3295 C 0.48232 0.7254 0.37144 0.0
C3296 C 0.47111 0.67967 0.33168 0.0
C3297 C 0.4597 0.64363 0.34601 0.0
N3298 N 0.47422 0.71077 0.36081 0.0
N3299 N 0.46414 0.6585 0.35845 0.0
H3300 H 0.78096 0.53015 0.34568 0.0
H3301 H 0.86614 0.45016 0.34511 0.0
H3302 H 0.79113 0.49056 0.39354 0.0
H3303 H 0.85746 0.49305 0.29977 0.0
H3304 H 0.83827 0.46386 0.36283 0.0
H3305 H 0.80873 0.51603 0.32844 0.0
C3306 C 0.78911 0.5185 0.35257 0.0
C3307 C 0.78382 0.51149 0.37102 0.0
C3308 C 0.84248 0.47022 0.34899 0.0
C3309 C 0.81556 0.49516 0.35138 0.0
C3310 C 0.85834 0.46237 0.33884 0.0
C3311 C 0.86414 0.47046 0.32092 0.0
C3312 C 0.83237 0.48622 0.34112 0.0
C3313 C 0.85356 0.48634 0.31354 0.0
C3314 C 0.80496 0.51042 0.34272 0.0
C3315 C 0.79481 0.49637 0.37931 0.0
N3316 N 0.83822 0.49367 0.32366 0.0
N3317 N 0.81018 0.48865 0.3694 0.0
H3318 H 0.03594 0.83994 0.29882 0.0
H3319 H 0.99635 0.79306 0.39828 0.0
H3320 H 0.02987 0.87209 0.35268 0.0
H3321 H 0.98625 0.76737 0.34168 0.0
H3322 H 0.01338 0.8202 0.38249 0.0
H3323 H 0.02268 0.81102 0.31518 0.0
C3324 C 0.03204 0.84085 0.31412 0.0
C3325 C 0.03384 0.85846 0.32438 0.0
C3326 C 0.00746 0.80861 0.37353 0.0
C3327 C 0.01872 0.82557 0.34309 0.0
C3328 C 0.99776 0.79315 0.38252 0.0
C3329 C 0.98982 0.77811 0.37121 0.0
C3330 C 0.00935 0.8089 0.35311 0.0
C3331 C 0.99209 0.77882 0.35088 0.0
C3332 C 0.02437 0.8244 0.3234 0.0
C3333 C 0.02851 0.85886 0.34416 0.0
N3334 N 1.00168 0.79398 0.34244 0.0
N3335 N 0.02117 0.84267 0.35286 0.0
H3336 H 0.64991 0.49005 0.20698 0.0
H3337 H 0.71392 0.49239 0.10918 0.0
H3338 H 0.63967 0.45121 0.15843 0.0
H3339 H 0.72774 0.5252 0.16108 0.0
H3340 H 0.68611 0.47773 0.12632 0.0
H3341 H 0.67796 0.50355 0.18985 0.0
C3342 C 0.65358 0.4843 0.19271 0.0
C3343 C 0.64237 0.46945 0.18414 0.0
C3344 C 0.69524 0.48811 0.13396 0.0
C3345 C 0.67459 0.485 0.16432 0.0
C3346 C 0.71107 0.49651 0.12418 0.0
C3347 C 0.72309 0.51002 0.13376 0.0
C3348 C 0.69139 0.49336 0.15343 0.0
C3349 C 0.71881 0.51484 0.15318 0.0
C3350 C 0.66965 0.49203 0.18293 0.0
C3351 C 0.64792 0.46259 0.16563 0.0
N3352 N 0.7033 0.50655 0.16235 0.0
N3353 N 0.6636 0.47048 0.15629 0.0
H3354 H 0.00497 0.64487 0.20523 0.0
H3355 H 0.00632 0.71103 0.10922 0.0
H3356 H 0.04717 0.63728 0.15902 0.0
H3357 H 0.97257 0.72443 0.16066 0.0
H3358 H 0.02032 0.68287 0.12622 0.0
H3359 H 0.99181 0.67304 0.18813 0.0
C3360 C 0.0115 0.64914 0.19147 0.0
C3361 C 0.02721 0.6387 0.18354 0.0
C3362 C 0.00988 0.69199 0.13379 0.0
C3363 C 0.01211 0.67099 0.16382 0.0
C3364 C 1.00186 0.708 0.12409 0.0
C3365 C 0.98829 0.71998 0.1336 0.0
C3366 C 0.00415 0.68794 0.15306 0.0
C3367 C 0.98299 0.71551 0.15283 0.0
C3368 C 0.00399 0.66528 0.18173 0.0
C3369 C 0.0351 0.64497 0.1657 0.0
N3370 N 0.9909 0.6998 0.16192 0.0
N3371 N 0.0274 0.66069 0.15637 0.0
H3372 H 0.79535 0.96117 0.1316 0.0
H3373 H 0.83779 0.04804 0.19678 0.0
H3374 H 0.75937 0.00977 0.14887 0.0
H3375 H 0.87301 0.00942 0.16158 0.0
H3376 H 0.80832 0.03299 0.18276 0.0
H3377 H 0.82347 0.97703 0.14654 0.0
C3378 C 0.79336 0.97517 0.13865 0.0
C3379 C 0.77506 0.98422 0.13895 0.0
C3380 C 0.82255 0.02795 0.17812 0.0
C3381 C 0.80724 0.00254 0.15612 0.0
C3382 C 0.83936 0.0365 0.18609 0.0
C3383 C 0.85794 0.03 0.18039 0.0
C3384 C 0.82443 0.01264 0.1646 0.0
C3385 C 0.85907 0.01498 0.16648 0.0
C3386 C 0.80944 0.98427 0.14711 0.0
C3387 C 0.7733 0.00236 0.1483 0.0
N3388 N 0.8426 0.00678 0.1592 0.0
N3389 N 0.78922 0.01096 0.15657 0.0
H3390 H 0.43778 0.85702 0.18206 0.0
H3391 H 0.52255 0.8103 0.11789 0.0
H3392 H 0.49817 0.87393 0.1874 0.0
H3393 H 0.47726 0.77429 0.14267 0.0
H3394 H 0.50856 0.83866 0.13456 0.0
H3395 H 0.44757 0.83097 0.15926 0.0
C3396 C 0.45304 0.85532 0.17831 0.0
C3397 C 0.46726 0.86735 0.18678 0.0
C3398 C 0.50153 0.82459 0.13603 0.0
C3399 C 0.47833 0.83831 0.16051 0.0
C3400 C 0.50939 0.80847 0.12646 0.0
C3401 C 0.50111 0.78997 0.12911 0.0
C3402 C 0.48508 0.82221 0.14797 0.0
C3403 C 0.48412 0.78834 0.14042 0.0
C3404 C 0.45857 0.84053 0.16538 0.0
C3405 C 0.48682 0.8647 0.18142 0.0
N3406 N 0.47665 0.80429 0.14955 0.0
N3407 N 0.49178 0.85051 0.16855 0.0
H3408 H 0.35262 0.72983 0.97713 0.0
H3409 H 0.34976 0.63965 0.05166 0.0
H3410 H 0.40146 0.71396 0.01348 0.0
H3411 H 0.30372 0.65353 0.01095 0.0
H3412 H 0.36855 0.6674 0.03916 0.0
H3413 H 0.33416 0.70244 0.99046 0.0
C3414 C 0.35946 0.72052 0.98792 0.0
C3415 C 0.37858 0.72411 0.99421 0.0
C3416 C 0.35432 0.66436 0.03301 0.0
C3417 C 0.35752 0.69272 0.00965 0.0
C3418 C 0.34354 0.64856 0.04019 0.0
C3419 C 0.3251 0.64422 0.03236 0.0
C3420 C 0.34656 0.67593 0.01795 0.0
C3421 C 0.31786 0.65625 0.01743 0.0
C3422 C 0.34892 0.70488 0.99555 0.0
C3423 C 0.38674 0.71164 0.00824 0.0
N3424 N 0.32858 0.6715 0.01075 0.0
N3425 N 0.37616 0.69648 0.01553 0.0
H3426 H 0.37263 0.77291 0.48489 0.0
H3427 H 0.30102 0.86193 0.50816 0.0
H3428 H 0.34984 0.78521 0.54227 0.0
H3429 H 0.33409 0.85792 0.45465 0.0
H3430 H 0.31691 0.83243 0.5199 0.0
H3431 H 0.35668 0.80244 0.47255 0.0
C3432 C 0.36417 0.78179 0.49486 0.0
C3433 C 0.36248 0.77664 0.51462 0.0
C3434 C 0.32074 0.83799 0.5056 0.0
C3435 C 0.34425 0.81037 0.50064 0.0
C3436 C 0.31163 0.85484 0.49883 0.0
C3437 C 0.31619 0.86244 0.48034 0.0
C3438 C 0.33446 0.82845 0.49377 0.0
C3439 C 0.33014 0.85261 0.469 0.0
C3440 C 0.35516 0.79867 0.48783 0.0
C3441 C 0.35146 0.78867 0.52693 0.0
N3442 N 0.33872 0.83606 0.47587 0.0
N3443 N 0.34273 0.80495 0.51973 0.0
H3444 H 0.72473 0.34378 0.5398 0.0
H3445 H 0.63896 0.34562 0.46028 0.0
H3446 H 0.71463 0.39244 0.50124 0.0
H3447 H 0.64517 0.30111 0.50443 0.0
H3448 H 0.66744 0.36241 0.47388 0.0
H3449 H 0.6963 0.32732 0.5259 0.0
C3450 C 0.71648 0.35099 0.52841 0.0
C3451 C 0.72197 0.36946 0.52164 0.0
C3452 C 0.66255 0.34897 0.48057 0.0
C3453 C 0.68948 0.35074 0.50559 0.0
C3454 C 0.64633 0.33934 0.47277 0.0
C3455 C 0.63967 0.32192 0.48122 0.0
C3456 C 0.67221 0.34104 0.49683 0.0
C3457 C 0.64974 0.31451 0.49745 0.0
C3458 C 0.70025 0.34161 0.52048 0.0
C3459 C 0.71082 0.37819 0.50686 0.0
N3460 N 0.6655 0.32409 0.50469 0.0
N3461 N 0.69511 0.36873 0.49928 0.0
H3462 H 0.14761 0.63197 0.46675 0.0
H3463 H 0.15662 0.73776 0.51337 0.0
H3464 H 0.2009 0.66535 0.46421 0.0
H3465 H 0.10148 0.71045 0.50023 0.0
H3466 H 0.17343 0.71128 0.49616 0.0
H3467 H 0.13058 0.66054 0.47931 0.0
C3468 C 0.15568 0.64541 0.4687 0.0
C3469 C 0.17571 0.64631 0.46457 0.0
C3470 C 0.15765 0.71115 0.49694 0.0
C3471 C 0.15637 0.67902 0.47924 0.0
C3472 C 0.14808 0.72618 0.50684 0.0
C3473 C 0.12767 0.72616 0.50828 0.0
C3474 C 0.14672 0.69593 0.48866 0.0
C3475 C 0.11725 0.71093 0.4995 0.0
C3476 C 0.14595 0.66173 0.47584 0.0
C3477 C 0.18544 0.6641 0.46719 0.0
N3478 N 0.1269 0.69635 0.49018 0.0
N3479 N 0.17572 0.67974 0.47463 0.0
H3480 H 0.86757 0.15745 0.459 0.0
H3481 H 0.77996 0.1586 0.53668 0.0
H3482 H 0.85844 0.20302 0.50153 0.0
H3483 H 0.79088 0.11024 0.49796 0.0
H3484 H 0.80834 0.1754 0.52313 0.0
H3485 H 0.83904 0.14024 0.47206 0.0
C3486 C 0.85954 0.16388 0.471 0.0
C3487 C 0.86542 0.18171 0.47917 0.0
C3488 C 0.80459 0.1611 0.51758 0.0
C3489 C 0.83285 0.16211 0.49419 0.0
C3490 C 0.7884 0.15152 0.52533 0.0
C3491 C 0.78314 0.13304 0.51842 0.0
C3492 C 0.81559 0.15217 0.50274 0.0
C3493 C 0.79451 0.1245 0.50369 0.0
C3494 C 0.8433 0.15402 0.47849 0.0
C3495 C 0.85451 0.1893 0.49477 0.0
N3496 N 0.81021 0.13415 0.4963 0.0
N3497 N 0.83879 0.17948 0.50174 0.0
H3498 H 0.16241 0.77186 0.9768 0.0
H3499 H 0.15963 0.86412 0.04875 0.0
H3500 H 0.1099 0.79098 0.00571 0.0
H3501 H 0.21004 0.84626 0.01545 0.0
H3502 H 0.14148 0.83634 0.03526 0.0
H3503 H 0.18037 0.79822 0.9926 0.0
C3504 C 0.15466 0.78168 0.98647 0.0
C3505 C 0.13467 0.77933 0.98992 0.0
C3506 C 0.15655 0.83849 0.03102 0.0
C3507 C 0.15511 0.80954 0.00818 0.0
C3508 C 0.16694 0.85426 0.0388 0.0
C3509 C 0.18637 0.85758 0.03316 0.0
C3510 C 0.1657 0.82594 0.0176 0.0
C3511 C 0.19506 0.8444 0.02012 0.0
C3512 C 0.16491 0.79672 0.99553 0.0
C3513 C 0.12533 0.79238 0.00263 0.0
N3514 N 0.18467 0.82925 0.01278 0.0
N3515 N 0.13564 0.80697 0.01132 0.0
H3516 H 0.74362 0.15073 0.01057 0.0
H3517 H 0.62778 0.16041 0.00661 0.0
H3518 H 0.70872 0.13265 0.9614 0.0
H3519 H 0.66273 0.197 0.04418 0.0
H3520 H 0.65749 0.147 0.99256 0.0
H3521 H 0.71436 0.16526 0.02547 0.0
C3522 C 0.72982 0.14992 0.00289 0.0
C3523 C 0.72852 0.14052 0.98475 0.0
C3524 C 0.65869 0.15797 0.00387 0.0
C3525 C 0.69514 0.15673 1.00173 0.0
C3526 C 0.6417 0.16559 0.01201 0.0
C3527 C 0.64272 0.17993 0.0266 0.0
C3528 C 0.67693 0.16451 0.01047 0.0
C3529 C 0.66125 0.18603 0.03292 0.0
C3530 C 0.71318 0.1582 0.01137 0.0
C3531 C 0.71035 0.13981 0.97539 0.0
N3532 N 0.67766 0.17824 0.02485 0.0
N3533 N 0.69436 0.14767 0.98405 0.0
H3534 H 0.84307 0.29775 0.03816 0.0
H3535 H 0.79445 0.39658 0.9996 0.0
H3536 H 0.87464 0.3518 0.03138 0.0
H3537 H 0.76923 0.33985 0.98949 0.0
H3538 H 0.82208 0.38103 0.01602 0.0
H3539 H 0.81376 0.31375 0.02531 0.0
C3540 C 0.84377 0.31302 0.0342 0.0
C3541 C 0.86132 0.32345 0.03569 0.0
C3542 C 0.81049 0.37198 0.01023 0.0
C3543 C 0.82799 0.34174 0.02104 0.0
C3544 C 0.79475 0.38084 1.00088 0.0
C3545 C 0.77968 0.36943 0.99311 0.0
C3546 C 0.81104 0.35159 0.01197 0.0
C3547 C 0.78067 0.34912 0.9952 0.0
C3548 C 0.8271 0.32209 0.02676 0.0
C3549 C 0.86145 0.34318 0.03027 0.0
N3550 N 0.79612 0.34081 0.00447 0.0
N3551 N 0.84505 0.35167 0.02317 0.0
H3552 H 0.0882 0.63549 0.99849 0.0
H3553 H 0.075 0.63309 0.11506 0.0
H3554 H 0.06849 0.68479 0.03229 0.0
H3555 H 0.10521 0.58898 0.08206 0.0
H3556 H 0.06682 0.6498 0.0843 0.0
H3557 H 0.08922 0.616 0.02842 0.0
C3558 C 0.08394 0.64219 0.01216 0.0
C3559 C 0.07843 0.66187 0.01287 0.0
C3560 C 0.07498 0.6363 0.08378 0.0
C3561 C 0.07951 0.6396 0.04725 0.0
C3562 C 0.07947 0.62671 0.1013 0.0
C3563 C 0.09078 0.60969 0.10101 0.0
C3564 C 0.0818 0.62872 0.06593 0.0
C3565 C 0.09647 0.6021 0.08285 0.0
C3566 C 0.08454 0.63105 0.02927 0.0
C3567 C 0.07301 0.66973 0.03105 0.0
N3568 N 0.09204 0.61171 0.06607 0.0
N3569 N 0.07377 0.65861 0.0475 0.0
H3570 H 0.91567 0.09867 0.08297 0.0
H3571 H 0.82415 0.04953 0.03186 0.0
H3572 H 0.87184 0.06663 0.11472 0.0
H3573 H 0.87183 0.07584 1.0002 0.0
H3574 H 0.84326 0.05173 0.06187 0.0
H3575 H 0.90193 0.08674 0.05233 0.0
C3576 C 0.90325 0.0889 0.08343 0.0
C3577 C 0.89468 0.0838 0.10132 0.0
C3578 C 0.84968 0.05675 0.04832 0.0
C3579 C 0.8787 0.07024 0.0663 0.0
C3580 C 0.83878 0.05549 0.03115 0.0
C3581 C 0.8463 0.06278 0.01352 0.0
C3582 C 0.86818 0.06553 0.04792 0.0
C3583 C 0.86538 0.07017 0.01347 0.0
C3584 C 0.89543 0.08206 0.06595 0.0
C3585 C 0.8788 0.07093 0.10119 0.0
N3586 N 0.87554 0.07163 0.03046 0.0
N3587 N 0.8711 0.06482 0.08391 0.0
H3588 H 0.42247 0.87041 0.00706 0.0
H3589 H 0.42893 0.87467 0.12406 0.0
H3590 H 0.43759 0.8208 0.04275 0.0
H3591 H 0.40356 0.91971 0.08834 0.0
H3592 H 0.43779 0.85668 0.09422 0.0
H3593 H 0.42063 0.89045 0.03651 0.0
C3594 C 0.42551 0.86374 0.02107 0.0
C3595 C 0.43002 0.84384 0.02242 0.0
C3596 C 0.43055 0.87064 0.09292 0.0
C3597 C 0.428 0.86676 0.05627 0.0
C3598 C 0.42568 0.88095 0.10991 0.0
C3599 C 0.41553 0.89863 0.10854 0.0
C3600 C 0.42527 0.87818 0.07454 0.0
C3601 C 0.41138 0.90609 0.08993 0.0
C3602 C 0.42445 0.8752 0.0379 0.0
C3603 C 0.43389 0.83604 0.04101 0.0
N3604 N 0.41615 0.89579 0.07369 0.0
N3605 N 0.43271 0.84749 0.0572 0.0
H3606 H 0.58777 0.39178 0.08213 0.0
H3607 H 0.68449 0.43338 0.03286 0.0
H3608 H 0.63147 0.42338 0.11444 0.0
H3609 H 0.63576 0.41109 0.99978 0.0
H3610 H 0.66493 0.43119 0.06261 0.0
H3611 H 0.60434 0.40032 0.0517 0.0
C3612 C 0.60074 0.4008 0.08274 0.0
C3613 C 0.60832 0.40686 0.10078 0.0
C3614 C 0.65844 0.42694 0.04884 0.0
C3615 C 0.62765 0.4164 0.066 0.0
C3616 C 0.66962 0.42812 0.03181 0.0
C3617 C 0.66181 0.42228 0.01376 0.0
C3618 C 0.63931 0.41966 0.04792 0.0
C3619 C 0.64242 0.41572 0.01335 0.0
C3620 C 0.61022 0.40565 0.06537 0.0
C3621 C 0.62514 0.4185 0.1008 0.0
N3622 N 0.63192 0.41442 0.03018 0.0
N3623 N 0.63441 0.42268 0.08368 0.0
H3624 H 0.06538 0.81252 0.46911 0.0
H3625 H 0.09753 0.91155 0.4177 0.0
H3626 H 0.07955 0.86505 0.50079 0.0
H3627 H 0.07645 0.86176 0.38573 0.0
H3628 H 0.08802 0.89576 0.44827 0.0
H3629 H 0.06683 0.83087 0.43858 0.0
C3630 C 0.06869 0.82795 0.46968 0.0
C3631 C 0.07253 0.83722 0.48756 0.0
C3632 C 0.08513 0.88836 0.4346 0.0
C3633 C 0.07423 0.85833 0.45256 0.0
C3634 C 0.09046 0.89743 0.41718 0.0
C3635 C 0.08769 0.8879 0.3993 0.0
C3636 C 0.07728 0.86945 0.43416 0.0
C3637 C 0.07868 0.86957 0.39929 0.0
C3638 C 0.06945 0.83843 0.45221 0.0
C3639 C 0.07659 0.85727 0.48736 0.0
N3640 N 0.07402 0.86079 0.41651 0.0
N3641 N 0.0775 0.8671 0.47013 0.0
H3642 H 0.65343 0.1148 0.38537 0.0
H3643 H 0.64187 0.0793 0.49534 0.0
H3644 H 0.60128 0.0865 0.40614 0.0
H3645 H 0.69739 0.09298 0.4689 0.0
H3646 H 0.62653 0.08143 0.46303 0.0
H3647 H 0.66994 0.1061 0.41581 0.0
C3648 C 0.64562 0.10638 0.39625 0.0
C3649 C 0.62606 0.10126 0.3933 0.0
C3650 C 0.6421 0.08379 0.46432 0.0
C3651 C 0.64458 0.09174 0.4284 0.0
C3652 C 0.65085 0.08266 0.48277 0.0
C3653 C 0.67093 0.0861 0.48488 0.0
C3654 C 0.65349 0.0886 0.44794 0.0
C3655 C 0.68185 0.0903 0.46804 0.0
C3656 C 0.65499 0.10148 0.41364 0.0
C3657 C 0.61646 0.09053 0.40786 0.0
N3658 N 0.67298 0.09159 0.45036 0.0
N3659 N 0.62573 0.08636 0.42495 0.0
H3660 H 0.40102 0.57925 0.4225 0.0
H3661 H 0.4585 0.66875 0.46953 0.0
H3662 H 0.43722 0.61834 0.38903 0.0
H3663 H 0.42288 0.6286 0.5025 0.0
H3664 H 0.4547 0.64804 0.44076 0.0
H3665 H 0.41253 0.5946 0.4525 0.0
C3666 C 0.41155 0.591 0.42151 0.0
C3667 C 0.41798 0.59773 0.40326 0.0
C3668 C 0.44794 0.64361 0.45435 0.0
C3669 C 0.43119 0.6155 0.43761 0.0
C3670 C 0.45012 0.65542 0.47083 0.0
C3671 C 0.44079 0.65054 0.48844 0.0
C3672 C 0.43625 0.62683 0.45543 0.0
C3673 C 0.43023 0.63303 0.48923 0.0
C3674 C 0.41816 0.59974 0.43865 0.0
C3675 C 0.43187 0.61275 0.40281 0.0
N3676 N 0.42806 0.62195 0.47291 0.0
N3677 N 0.43783 0.62132 0.41974 0.0
H3678 H 0.86425 0.42708 0.50151 0.0
H3679 H 0.85841 0.39893 0.38858 0.0
H3680 H 0.81088 0.41139 0.47197 0.0
H3681 H 0.91011 0.42307 0.41488 0.0
H3682 H 0.84025 0.40581 0.41855 0.0
H3683 H 0.88107 0.42749 0.46989 0.0
C3684 C 0.85604 0.42381 0.4884 0.0
C3685 C 0.83613 0.41905 0.48945 0.0
C3686 C 0.85548 0.40996 0.41773 0.0
C3687 C 0.8553 0.4195 0.45321 0.0
C3688 C 0.86577 0.40616 0.40056 0.0
C3689 C 0.88568 0.41061 0.39928 0.0
C3690 C 0.86526 0.41791 0.43393 0.0
C3691 C 0.89469 0.41967 0.41528 0.0
C3692 C 0.86564 0.42411 0.47034 0.0
C3693 C 0.82624 0.41503 0.47194 0.0
N3694 N 0.88448 0.42278 0.43207 0.0
N3695 N 0.83594 0.41522 0.45463 0.0
H3696 H 0.01996 0.0402 0.67059 0.0
H3697 H 0.07687 0.10571 0.59307 0.0
H3698 H 0.99212 0.08103 0.63156 0.0
H3699 H 0.10557 0.06382 0.63015 0.0
H3700 H 0.04531 0.09362 0.60421 0.0
H3701 H 0.05074 0.04521 0.65323 0.0
C3702 C 0.02021 0.04996 0.65816 0.0
C3703 C 0.00343 0.06039 0.65268 0.0
C3704 C 0.05845 0.08688 0.60982 0.0
C3705 C 0.03873 0.06632 0.63287 0.0
C3706 C 0.07647 0.09383 0.60348 0.0
C3707 C 0.09382 0.08592 0.61092 0.0
C3708 C 0.05767 0.07201 0.62389 0.0
C3709 C 0.09251 0.07033 0.62412 0.0
C3710 C 0.03784 0.05285 0.64829 0.0
C3711 C 0.00468 0.07279 0.63643 0.0
N3712 N 0.07472 0.06405 0.63041 0.0
N3713 N 0.02205 0.07557 0.62727 0.0
H3714 H 0.46142 0.02618 0.67792 0.0
H3715 H 0.4033 0.08356 0.59509 0.0
H3716 H 0.42747 0.99839 0.6327 0.0
H3717 H 0.43806 0.11242 0.63882 0.0
H3718 H 0.41598 0.05217 0.60604 0.0
H3719 H 0.45699 0.0575 0.66145 0.0
C3720 C 0.45329 0.02658 0.66436 0.0
C3721 C 0.44461 0.00961 0.65681 0.0
C3722 C 0.42109 0.06532 0.61314 0.0
C3723 C 0.43937 0.04552 0.63796 0.0
C3724 C 0.41387 0.08324 0.60686 0.0
C3725 C 0.41954 0.10052 0.61621 0.0
C3726 C 0.43393 0.06458 0.6291 0.0
C3727 C 0.43335 0.09938 0.63127 0.0
C3728 C 0.45073 0.04451 0.65499 0.0
C3729 C 0.4343 0.01107 0.63917 0.0
N3730 N 0.43987 0.08166 0.63746 0.0
N3731 N 0.4318 0.02872 0.63049 0.0
H3732 H 0.47064 0.43787 0.68704 0.0
H3733 H 0.42217 0.40383 0.58697 0.0
H3734 H 0.50396 0.41968 0.63677 0.0
H3735 H 0.38935 0.4309 0.63324 0.0
H3736 H 0.45243 0.41151 0.60422 0.0
H3737 H 0.44099 0.43705 0.66724 0.0
C3738 C 0.47176 0.4338 0.67179 0.0
C3739 C 0.48984 0.42869 0.6636 0.0
C3740 C 0.43868 0.41606 0.61053 0.0
C3741 C 0.45583 0.42767 0.64083 0.0
C3742 C 0.42143 0.41173 0.60065 0.0
C3743 C 0.40332 0.41676 0.60874 0.0
C3744 C 0.43785 0.42522 0.62886 0.0
C3745 C 0.40307 0.42689 0.62651 0.0
C3746 C 0.45479 0.4334 0.66048 0.0
C3747 C 0.49036 0.42367 0.64374 0.0
N3748 N 0.42009 0.43057 0.63613 0.0
N3749 N 0.4736 0.42312 0.6331 0.0
H3750 H 0.0892 0.50523 0.63682 0.0
H3751 H 0.07899 0.38867 0.63649 0.0
H3752 H 0.07131 0.47182 0.68715 0.0
H3753 H 0.10999 0.42147 0.59267 0.0
H3754 H 0.06995 0.41947 0.65257 0.0
H3755 H 0.09106 0.47502 0.6179 0.0
C3756 C 0.08552 0.49157 0.64385 0.0
C3757 C 0.0803 0.49103 0.66365 0.0
C3758 C 0.07852 0.41991 0.63929 0.0
C3759 C 0.08233 0.45641 0.64207 0.0
C3760 C 0.08353 0.40238 0.63008 0.0
C3761 C 0.09534 0.40264 0.61338 0.0
C3762 C 0.08525 0.4377 0.63158 0.0
C3763 C 0.10099 0.42072 0.60565 0.0
C3764 C 0.08661 0.47433 0.63305 0.0
C3765 C 0.07562 0.4729 0.67198 0.0
N3766 N 0.096 0.43751 0.61486 0.0
N3767 N 0.07682 0.45631 0.66118 0.0
H3768 H 0.02908 0.45812 0.83312 0.0
H3769 H 0.08152 0.40184 0.92029 0.0
H3770 H 0.99843 0.42456 0.87674 0.0
H3771 H 0.1125 0.43845 0.87958 0.0
H3772 H 0.05065 0.41315 0.90665 0.0
H3773 H 0.05917 0.4544 0.85189 0.0
C3774 C 0.02859 0.45021 0.8468 0.0
C3775 C 0.0112 0.44145 0.85325 0.0
C3776 C 0.06414 0.41893 0.90079 0.0
C3777 C 0.04573 0.43698 0.87473 0.0
C3778 C 0.08178 0.41244 0.90856 0.0
C3779 C 0.09957 0.41906 0.90087 0.0
C3780 C 0.06421 0.43201 0.88502 0.0
C3781 C 0.09908 0.43298 0.88588 0.0
C3782 C 0.04582 0.44807 0.8575 0.0
C3783 C 0.01148 0.43147 0.87113 0.0
N3784 N 0.08167 0.4388 0.87824 0.0
N3785 N 0.0285 0.42931 0.88111 0.0
H3786 H 0.10122 0.08063 0.91539 0.0
H3787 H 0.03691 0.02383 0.83678 0.0
H3788 H 0.06284 0.10964 0.87491 0.0
H3789 H 0.07561 0.99576 0.87776 0.0
H3790 H 0.04228 0.05483 0.85353 0.0
H3791 H 0.08814 0.04923 0.90494 0.0
C3792 C 0.08984 0.08035 0.90442 0.0
C3793 C 0.08327 0.0977 0.8958 0.0
C3794 C 0.04938 0.04184 0.85903 0.0
C3795 C 0.0683 0.06173 0.88356 0.0
C3796 C 0.04629 0.02409 0.8495 0.0
C3797 C 0.05601 0.00714 0.85572 0.0
C3798 C 0.06234 0.04273 0.87488 0.0
C3799 C 0.06791 0.00842 0.87234 0.0
C3800 C 0.08236 0.06242 0.89845 0.0
C3801 C 0.06832 0.09656 0.88186 0.0
N3802 N 0.07091 0.02593 0.88118 0.0
N3803 N 0.06153 0.07884 0.87595 0.0
H3804 H 0.47538 0.045 0.82575 0.0
H3805 H 0.42315 0.10144 0.91271 0.0
H3806 H 0.50624 0.07568 0.87132 0.0
H3807 H 0.39178 0.06538 0.87183 0.0
H3808 H 0.45389 0.08934 0.89947 0.0
H3809 H 0.445 0.04926 0.84398 0.0
C3810 C 0.47584 0.05235 0.83974 0.0
C3811 C 0.49339 0.0602 0.8469 0.0
C3812 C 0.44034 0.08385 0.89348 0.0
C3813 C 0.45859 0.06528 0.86774 0.0
C3814 C 0.4228 0.0908 0.90102 0.0
C3815 C 0.40497 0.08454 0.89318 0.0
C3816 C 0.44013 0.07071 0.87776 0.0
C3817 C 0.40526 0.07057 0.87822 0.0
C3818 C 0.45846 0.0548 0.85012 0.0
C3819 C 0.49307 0.06952 0.86513 0.0
N3820 N 0.4226 0.06432 0.87078 0.0
N3821 N 0.47593 0.072 0.87479 0.0
H3822 H 0.40957 0.50954 0.86301 0.0
H3823 H 0.43253 0.39483 0.86886 0.0
H3824 H 0.44488 0.47935 0.82048 0.0
H3825 H 0.39397 0.42539 0.90801 0.0
H3826 H 0.4405 0.42607 0.853 0.0
H3827 H 0.40657 0.47925 0.8815 0.0
C3828 C 0.41676 0.49657 0.85758 0.0
C3829 C 0.42741 0.49702 0.84009 0.0
C3830 C 0.43046 0.42594 0.8652 0.0
C3831 C 0.42402 0.46213 0.86126 0.0
C3832 C 0.42604 0.40816 0.87432 0.0
C3833 C 0.41248 0.40757 0.88964 0.0
C3834 C 0.42129 0.44319 0.87157 0.0
C3835 C 0.40436 0.42521 0.8961 0.0
C3836 C 0.41505 0.47924 0.86817 0.0
C3837 C 0.43646 0.4797 0.83384 0.0
N3838 N 0.40878 0.44223 0.88698 0.0
N3839 N 0.43449 0.46296 0.84436 0.0
H3840 H 0.63347 0.11776 0.06515 0.0
H3841 H 0.63102 1.00153 0.07493 0.0
H3842 H 0.59191 0.08572 0.09981 0.0
H3843 H 0.68075 0.03375 0.05357 0.0
H3844 H 0.61236 0.03187 0.07609 0.0
H3845 H 0.64676 0.08669 0.05308 0.0
C3846 C 0.62693 0.10418 0.06987 0.0
C3847 C 0.61181 0.10415 0.08364 0.0
C3848 C 0.62728 0.03224 0.07089 0.0
C3849 C 0.62676 0.06883 0.07004 0.0
C3850 C 0.63791 0.01491 0.07015 0.0
C3851 C 0.65757 0.01518 0.06449 0.0
C3852 C 0.63636 0.04993 0.06589 0.0
C3853 C 0.66571 0.03294 0.05834 0.0
C3854 C 0.63452 0.0865 0.06308 0.0
C3855 C 0.60378 0.08625 0.08939 0.0
N3856 N 0.65514 0.04966 0.05942 0.0
N3857 N 0.61145 0.0693 0.08268 0.0
H3858 H 0.64363 0.49165 0.42941 0.0
H3859 H 0.64879 0.38064 0.39666 0.0
H3860 H 0.6973 0.46281 0.41356 0.0
H3861 H 0.59896 0.40464 0.42652 0.0
H3862 H 0.66717 0.41032 0.40399 0.0
H3863 H 0.62705 0.45999 0.42927 0.0
C3864 C 0.65195 0.47867 0.426 0.0
C3865 C 0.67186 0.47993 0.42135 0.0
C3866 C 0.65233 0.40903 0.40926 0.0
C3867 C 0.65297 0.44367 0.42111 0.0
C3868 C 0.6419 0.39206 0.40514 0.0
C3869 C 0.62241 0.39026 0.41105 0.0
C3870 C 0.64308 0.4245 0.41901 0.0
C3871 C 0.61404 0.40547 0.42186 0.0
C3872 C 0.64249 0.46059 0.42601 0.0
C3873 C 0.68192 0.4626 0.41715 0.0
N3874 N 0.62433 0.42212 0.42525 0.0
N3875 N 0.67234 0.44525 0.41696 0.0
H3876 H 0.08327 0.59216 0.4032 0.0
H3877 H 0.02872 0.6906 0.43182 0.0
H3878 H 0.1133 0.64304 0.42449 0.0
H3879 H 0.99855 0.63728 0.41738 0.0
H3880 H 0.05958 0.67284 0.43174 0.0
H3881 H 0.05204 0.6074 0.41134 0.0
C3882 C 0.08322 0.60639 0.41007 0.0
C3883 C 0.10077 0.61636 0.41332 0.0
C3884 C 0.04621 0.66497 0.42875 0.0
C3885 C 0.06514 0.63421 0.4221 0.0
C3886 C 0.02855 0.67512 0.42873 0.0
C3887 C 0.01099 0.66546 0.42442 0.0
C3888 C 0.04641 0.64499 0.42427 0.0
C3889 C 0.01171 0.64535 0.42069 0.0
C3890 C 0.06542 0.61515 0.4146 0.0
C3891 C 0.10003 0.63486 0.42196 0.0
N3892 N 0.02914 0.63584 0.42052 0.0
N3893 N 0.08247 0.64332 0.42583 0.0
H3894 H 0.87386 0.99674 0.42689 0.0
H3895 H 0.8791 0.11296 0.43879 0.0
H3896 H 0.82705 0.03135 0.45083 0.0
H3897 H 0.92054 0.07867 0.40624 0.0
H3898 H 0.86294 0.08268 0.44932 0.0
H3899 H 0.89417 0.02601 0.4253 0.0
C3900 C 0.86794 0.01042 0.4321 0.0
C3901 C 0.84862 0.0116 0.43878 0.0
C3902 C 0.87574 0.08179 0.44009 0.0
C3903 C 0.87177 0.04527 0.43685 0.0
C3904 C 0.88501 0.09904 0.43421 0.0
C3905 C 0.90101 0.09825 0.42149 0.0
C3906 C 0.88267 0.0637 0.43329 0.0
C3907 C 0.90807 0.07988 0.41587 0.0
C3908 C 0.87952 0.02717 0.43111 0.0
C3909 C 0.84178 0.02977 0.44537 0.0
N3910 N 0.89878 0.06338 0.42167 0.0
N3911 N 0.85326 0.04591 0.44407 0.0
H3912 H 0.49588 0.8781 0.39998 0.0
H3913 H 0.38027 0.8697 0.41611 0.0
H3914 H 0.46479 0.82368 0.40607 0.0
H3915 H 0.40947 0.92318 0.40087 0.0
H3916 H 0.4121 0.85341 0.41826 0.0
H3917 H 0.46508 0.89562 0.40469 0.0
C3918 C 0.48259 0.86985 0.40222 0.0
C3919 C 0.48289 0.84941 0.40248 0.0
C3920 C 0.41158 0.86881 0.41481 0.0
C3921 C 0.44772 0.8693 0.4082 0.0
C3922 C 0.39347 0.8781 0.41386 0.0
C3923 C 0.39244 0.89774 0.40847 0.0
C3924 C 0.42865 0.87929 0.41021 0.0
C3925 C 0.40983 0.90801 0.40524 0.0
C3926 C 0.46504 0.87984 0.40501 0.0
C3927 C 0.46525 0.83944 0.40559 0.0
N3928 N 0.42724 0.89862 0.40597 0.0
N3929 N 0.44841 0.84948 0.40833 0.0
H3930 H 0.86716 0.38503 0.07552 0.0
H3931 H 0.86774 0.50145 0.08804 0.0
H3932 H 0.91265 0.4171 0.10475 0.0
H3933 H 0.81732 0.46857 0.06953 0.0
H3934 H 0.88672 0.47122 0.08861 0.0
H3935 H 0.85123 0.41608 0.06714 0.0
C3936 C 0.87402 0.39864 0.07972 0.0
C3937 C 0.89116 0.3986 0.09086 0.0
C3938 C 0.87153 0.47065 0.08428 0.0
C3939 C 0.87302 0.434 0.08167 0.0
C3940 C 0.86069 0.48792 0.08394 0.0
C3941 C 0.84085 0.48755 0.07892 0.0
C3942 C 0.86251 0.45285 0.07948 0.0
C3943 C 0.83253 0.46955 0.07369 0.0
C3944 C 0.86487 0.41632 0.07512 0.0
C3945 C 0.89938 0.41657 0.09618 0.0
N3946 N 0.84335 0.45294 0.07419 0.0
N3947 N 0.89018 0.43352 0.09168 0.0
H3948 H 1.00002 0.86577 0.08566 0.0
H3949 H 0.11676 0.86947 0.07587 0.0
H3950 H 0.03522 0.81528 0.07259 0.0
H3951 H 0.08177 0.91603 0.0994 0.0
H3952 H 0.08671 0.85099 0.06894 0.0
H3953 H 0.02951 0.88583 0.08555 0.0
C3954 C 0.01392 0.8589 0.08265 0.0
C3955 C 0.01512 0.83876 0.0793 0.0
C3956 C 0.08562 0.86538 0.07536 0.0
C3957 C 0.04904 0.86171 0.07909 0.0
C3958 C 0.10273 0.87595 0.07912 0.0
C3959 C 0.10165 0.89423 0.08822 0.0
C3960 C 0.06739 0.87325 0.08066 0.0
C3961 C 0.08316 0.90194 0.0924 0.0
C3962 C 0.03078 0.87038 0.08259 0.0
C3963 C 0.03359 0.83072 0.07541 0.0
N3964 N 0.0668 0.89139 0.08871 0.0
N3965 N 0.04981 0.84219 0.07549 0.0
H3966 H 0.42193 0.58204 0.11506 0.0
H3967 H 0.48113 0.66559 0.05929 0.0
H3968 H 0.3947 0.62311 0.07598 0.0
H3969 H 0.50479 0.63068 0.10608 0.0
H3970 H 0.45079 0.64696 0.06114 0.0
H3971 H 0.45371 0.59609 0.10736 0.0
C3972 C 0.42272 0.59392 0.10466 0.0
C3973 C 0.40568 0.60165 0.09636 0.0
C3974 C 0.46267 0.64329 0.0709 0.0
C3975 C 0.44202 0.61792 0.08756 0.0
C3976 C 0.48002 0.6539 0.06986 0.0
C3977 C 0.4955 0.64978 0.08267 0.0
C3978 C 0.46078 0.62837 0.08478 0.0
C3979 C 0.49322 0.63444 0.096 0.0
C3980 C 0.44085 0.60196 0.10031 0.0
C3981 C 0.40751 0.6168 0.08273 0.0
N3982 N 0.47616 0.62435 0.09676 0.0
N3983 N 0.42538 0.62463 0.07892 0.0
H3984 H 0.94068 0.37297 0.89235 0.0
H3985 H 0.92873 0.37255 0.00864 0.0
H3986 H 0.9028 0.41159 0.9244 0.0
H3987 H 0.95768 0.32706 0.97614 0.0
H3988 H 0.92582 0.39152 0.97853 0.0
H3989 H 0.95351 0.36052 0.92346 0.0
C3990 C 0.93537 0.37907 0.90594 0.0
C3991 C 0.92048 0.39307 0.9059 0.0
C3992 C 0.93306 0.37751 0.97805 0.0
C3993 C 0.93492 0.37897 0.94138 0.0
C3994 C 0.93482 0.36671 0.99526 0.0
C3995 C 0.94317 0.34805 0.99484 0.0
C3996 C 0.93973 0.3696 0.96031 0.0
C3997 C 0.95086 0.34126 0.97708 0.0
C3998 C 0.94259 0.37193 0.92367 0.0
C3999 C 0.91405 0.40052 0.92386 0.0
N4000 N 0.94874 0.35192 0.96048 0.0
N4001 N 0.92117 0.39326 0.94087 0.0
H4002 H 0.1442 0.90344 1.00197 0.0
H4003 H 0.13022 0.93179 0.88954 0.0
H4004 H 0.17461 0.95189 0.97565 0.0
H4005 H 0.09404 0.89093 0.92083 0.0
H4006 H 0.14607 0.94073 0.92061 0.0
H4007 H 0.12557 0.89931 0.97199 0.0
C4008 C 0.14696 0.91325 0.98988 0.0
C4009 C 0.16105 0.928 0.99135 0.0
C4010 C 0.13449 0.92999 0.92066 0.0
C4011 C 0.13968 0.92332 0.95673 0.0
C4012 C 0.12538 0.925 0.90298 0.0
C4013 C 0.11099 0.91044 0.90264 0.0
C4014 C 0.12911 0.92028 0.93798 0.0
C4015 C 0.10529 0.90202 0.92042 0.0
C4016 C 0.13623 0.91093 0.97273 0.0
C4017 C 0.16388 0.94031 0.97517 0.0
N4018 N 0.11447 0.9069 0.93726 0.0
N4019 N 0.15339 0.93762 0.95847 0.0
H4020 H 0.56588 0.12509 0.88898 0.0
H4021 H 0.57701 0.12806 0.00547 0.0
H4022 H 0.60185 0.08573 0.92231 0.0
H4023 H 0.54584 0.17155 0.97231 0.0
H4024 H 0.58107 0.10892 0.97562 0.0
H4025 H 0.55334 0.13882 0.91969 0.0
C4026 C 0.57085 0.11912 0.90275 0.0
C4027 C 0.58512 0.10448 0.90314 0.0
C4028 C 0.57312 0.12254 0.97491 0.0
C4029 C 0.571 0.12009 0.93823 0.0
C4030 C 0.57072 0.13344 0.992 0.0
C4031 C 0.56128 0.15157 0.99139 0.0
C4032 C 0.56608 0.12981 0.95704 0.0
C4033 C 0.55341 0.15775 0.97346 0.0
C4034 C 0.5638 0.12701 0.92026 0.0
C4035 C 0.59111 0.09727 0.92137 0.0
N4036 N 0.55617 0.14702 0.95698 0.0
N4037 N 0.58417 0.10524 0.93814 0.0
H4038 H 0.31691 0.57525 0.97266 0.0
H4039 H 0.41893 0.60172 0.9237 0.0
H4040 H 0.36939 0.58534 0.00596 0.0
H4041 H 0.36909 0.58248 0.89063 0.0
H4042 H 0.40185 0.59338 0.95396 0.0
H4043 H 0.33614 0.57591 0.94266 0.0
C4044 C 0.33252 0.57751 0.9737 0.0
C4045 C 0.34152 0.5804 0.99191 0.0
C4046 C 0.39472 0.59062 0.94013 0.0
C4047 C 0.36369 0.58123 0.95743 0.0
C4048 C 0.40453 0.59526 0.92287 0.0
C4049 C 0.39541 0.59264 0.90472 0.0
C4050 C 0.37547 0.58363 0.93928 0.0
C4051 C 0.37665 0.58452 0.90436 0.0
C4052 C 0.34351 0.57781 0.95651 0.0
C4053 C 0.36182 0.58311 0.99227 0.0
N4054 N 0.36718 0.58053 0.9214 0.0
N4055 N 0.37217 0.58364 0.9753 0.0
H4056 H 0.91787 0.13678 0.50413 0.0
H4057 H 0.92717 0.13588 0.62103 0.0
H4058 H 0.93977 0.18547 0.53751 0.0
H4059 H 0.8954 0.0931 0.58766 0.0
H4060 H 0.93729 0.1516 0.59032 0.0
H4061 H 0.91462 0.1181 0.53437 0.0
C4062 C 0.92214 0.1435 0.51779 0.0
C4063 C 0.92894 0.16279 0.51827 0.0
C4064 C 0.9283 0.13863 0.58974 0.0
C4065 C 0.92527 0.14146 0.55302 0.0
C4066 C 0.92268 0.1296 0.60723 0.0
C4067 C 0.91033 0.11331 0.6068 0.0
C4068 C 0.92163 0.13115 0.57179 0.0
C4069 C 0.90479 0.10577 0.58857 0.0
C4070 C 0.92026 0.13284 0.53507 0.0
C4071 C 0.9343 0.1707 0.53644 0.0
N4072 N 0.91036 0.1148 0.57183 0.0
N4073 N 0.93226 0.16005 0.55308 0.0
H4074 H 0.31383 0.93314 0.53609 0.0
H4075 H 0.41961 0.90984 0.57869 0.0
H4076 H 0.36445 0.92328 0.49995 0.0
H4077 H 0.37038 0.92415 0.61506 0.0
H4078 H 0.40047 0.91822 0.54976 0.0
H4079 H 0.33472 0.93282 0.56497 0.0
C4080 C 0.32937 0.93101 0.53418 0.0
C4081 C 0.33736 0.92806 0.5155 0.0
C4082 C 0.39388 0.91987 0.56404 0.0
C4083 C 0.36143 0.92766 0.5487 0.0
C4084 C 0.40486 0.9152 0.58056 0.0
C4085 C 0.39653 0.91631 0.59925 0.0
C4086 C 0.37429 0.92544 0.56614 0.0
C4087 C 0.37735 0.92321 0.6009 0.0
C4088 C 0.34131 0.93089 0.55073 0.0
C4089 C 0.35762 0.92553 0.51402 0.0
N4090 N 0.36677 0.92726 0.58453 0.0
N4091 N 0.36891 0.92522 0.53039 0.0
H4092 H 0.58629 0.36953 0.49977 0.0
H4093 H 0.57212 0.37327 0.61613 0.0
H4094 H 0.56408 0.32147 0.53385 0.0
H4095 H 0.60687 0.41435 0.5836 0.0
H4096 H 0.563 0.35729 0.58528 0.0
H4097 H 0.5881 0.38919 0.52961 0.0
C4098 C 0.58159 0.36319 0.51347 0.0
C4099 C 0.57522 0.34377 0.51434 0.0
C4100 C 0.57241 0.36996 0.5849 0.0
C4101 C 0.57721 0.36616 0.54852 0.0
C4102 C 0.57747 0.37914 0.60246 0.0
C4103 C 0.59035 0.39501 0.60234 0.0
C4104 C 0.58018 0.37687 0.56716 0.0
C4105 C 0.59703 0.40201 0.58427 0.0
C4106 C 0.58267 0.37439 0.53051 0.0
C4107 C 0.5693 0.33631 0.53252 0.0
N4108 N 0.59198 0.39284 0.56744 0.0
N4109 N 0.57052 0.34747 0.54888 0.0
H4110 H 0.12902 0.57872 0.49556 0.0
H4111 H 0.12763 0.56802 0.61223 0.0
H4112 H 0.17613 0.55327 0.52868 0.0
H4113 H 0.0875 0.60348 0.57931 0.0
H4114 H 0.14204 0.55654 0.58138 0.0
H4115 H 0.1101 0.58178 0.52569 0.0
C4116 C 0.13527 0.57348 0.5091 0.0
C4117 C 0.15429 0.56594 0.5096 0.0
C4118 C 0.12991 0.56664 0.58093 0.0
C4119 C 0.13275 0.56954 0.54422 0.0
C4120 C 0.12165 0.57308 0.5985 0.0
C4121 C 0.10654 0.58685 0.59825 0.0
C4122 C 0.12285 0.57392 0.56305 0.0
C4123 C 0.09932 0.59304 0.5801 0.0
C4124 C 0.12449 0.57532 0.52633 0.0
C4125 C 0.1616 0.55936 0.52762 0.0
N4126 N 0.10761 0.58664 0.56326 0.0
N4127 N 0.1509 0.56148 0.54422 0.0
H4128 H 0.00648 0.92588 0.37267 0.0
H4129 H 0.89041 0.93974 0.37125 0.0
H4130 H 0.97511 0.9545 0.32618 0.0
H4131 H 0.92121 0.90289 0.41183 0.0
H4132 H 0.92189 0.95158 0.35876 0.0
H4133 H 0.97605 0.92374 0.39131 0.0
C4134 C 0.99329 0.93206 0.36654 0.0
C4135 C 0.99329 0.94013 0.34772 0.0
C4136 C 0.92175 0.94112 0.37061 0.0
C4137 C 0.95839 0.93758 0.36888 0.0
C4138 C 0.9038 0.93448 0.37779 0.0
C4139 C 0.90328 0.92016 0.39238 0.0
C4140 C 0.93922 0.93343 0.37818 0.0
C4141 C 0.92103 0.91374 0.40035 0.0
C4142 C 0.97589 0.93074 0.37714 0.0
C4143 C 0.97574 0.94791 0.34053 0.0
N4144 N 0.93825 0.92027 0.39303 0.0
N4145 N 0.95897 0.94625 0.351 0.0
H4146 H 0.56875 0.98187 0.31858 0.0
H4147 H 0.58657 0.9364 0.42417 0.0
H4148 H 0.58225 0.01643 0.36949 0.0
H4149 H 0.57068 0.90242 0.37364 0.0
H4150 H 0.58072 0.96623 0.40552 0.0
H4151 H 0.56565 0.95315 0.33932 0.0
C4152 C 0.57098 0.98346 0.33416 0.0
C4153 C 0.576 1.00158 0.34228 0.0
C4154 C 0.57819 0.95227 0.39858 0.0
C4155 C 0.57245 0.96862 0.36619 0.0
C4156 C 0.58146 0.93525 0.40925 0.0
C4157 C 0.57928 0.91691 0.40037 0.0
C4158 C 0.57286 0.95099 0.37882 0.0
C4159 C 0.57249 0.91624 0.38106 0.0
C4160 C 0.56913 0.96702 0.34602 0.0
C4161 C 0.57849 0.00274 0.36259 0.0
N4162 N 0.56982 0.93303 0.37084 0.0
N4163 N 0.57688 0.98645 0.37382 0.0
H4164 H 0.52214 0.54286 0.32853 0.0
H4165 H 0.58217 0.59942 0.41129 0.0
H4166 H 0.50196 0.5944 0.35851 0.0
H4167 H 0.60977 0.5593 0.37154 0.0
H4168 H 0.55073 0.59254 0.39608 0.0
H4169 H 0.5526 0.54437 0.34737 0.0
C4170 C 0.52406 0.55443 0.33912 0.0
C4171 C 0.5095 0.5686 0.34189 0.0
C4172 C 0.56357 0.58503 0.39077 0.0
C4173 C 0.54415 0.57021 0.36359 0.0
C4174 C 0.58148 0.58883 0.39956 0.0
C4175 C 0.59853 0.57997 0.39256 0.0
C4176 C 0.56262 0.57229 0.37477 0.0
C4177 C 0.5969 0.56636 0.37736 0.0
C4178 C 0.54145 0.55527 0.34984 0.0
C4179 C 0.5128 0.58325 0.35578 0.0
N4180 N 0.57923 0.56307 0.36878 0.0
N4181 N 0.52972 0.58364 0.3661 0.0
H4182 H 0.90303 0.61238 0.35383 0.0
H4183 H 0.92897 0.49962 0.3646 0.0
H4184 H 0.92269 0.58741 0.40804 0.0
H4185 H 0.92168 0.52859 0.30913 0.0
H4186 H 0.9277 0.53147 0.38092 0.0
H4187 H 0.91128 0.58198 0.33706 0.0
C4188 C 0.90956 0.60058 0.36207 0.0
C4189 C 0.91241 0.60238 0.38224 0.0
C4190 C 0.92656 0.53083 0.36516 0.0
C4191 C 0.92124 0.56727 0.36339 0.0
C4192 C 0.92721 0.51265 0.35585 0.0
C4193 C 0.9253 0.51138 0.33547 0.0
C4194 C 0.9238 0.54784 0.35403 0.0
C4195 C 0.92313 0.52879 0.32487 0.0
C4196 C 0.91415 0.58319 0.35256 0.0
C4197 C 0.92056 0.58661 0.3924 0.0
N4198 N 0.92229 0.54621 0.33427 0.0
N4199 N 0.92445 0.56958 0.38292 0.0
H4200 H 0.88882 0.57153 0.13721 0.0
H4201 H 0.00537 0.58381 0.13735 0.0
H4202 H 0.9213 0.60139 0.09241 0.0
H4203 H 0.97256 0.56365 0.18722 0.0
H4204 H 0.9751 0.58521 0.1185 0.0
H4205 H 0.91976 0.56305 0.15339 0.0
C4206 C 0.90249 0.57588 0.13058 0.0
C4207 C 0.9026 0.58718 0.11353 0.0
C4208 C 0.97453 0.58036 0.13354 0.0
C4209 C 0.93788 0.57784 0.13192 0.0
C4210 C 0.99183 0.57954 0.14431 0.0
C4211 C 0.99152 0.57377 0.16396 0.0
C4212 C 0.95673 0.57532 0.14243 0.0
C4213 C 0.9735 0.56835 0.17216 0.0
C4214 C 0.92011 0.57121 0.13986 0.0
C4215 C 0.92066 0.59269 0.10559 0.0
N4216 N 0.95683 0.56934 0.1614 0.0
N4217 N 0.93753 0.58808 0.11489 0.0
H4218 H 0.90295 0.92121 0.08684 0.0
H4219 H 0.95102 0.97057 0.18004 0.0
H4220 H 0.93523 0.88866 0.12987 0.0
H4221 H 0.9265 0.00323 0.13211 0.0
H4222 H 0.94842 0.94082 0.1606 0.0
H4223 H 0.91429 0.95155 0.10166 0.0
C4224 C 0.91265 0.92051 0.09932 0.0
C4225 C 0.91803 0.90246 0.1073 0.0
C4226 C 0.94388 0.95452 0.15421 0.0
C4227 C 0.93091 0.93715 0.12453 0.0
C4228 C 0.94535 0.97154 0.1653 0.0
C4229 C 0.93876 0.98941 0.15777 0.0
C4230 C 0.93554 0.9553 0.1355 0.0
C4231 C 0.93168 0.98979 0.13855 0.0
C4232 C 0.91915 0.93782 0.10776 0.0
C4233 C 0.93075 0.90231 0.12332 0.0
N4234 N 0.93 0.97295 0.1282 0.0
N4235 N 0.93653 0.91942 0.13162 0.0
H4236 H 0.52349 0.96023 0.18216 0.0
H4237 H 0.58241 0.9002 0.101 0.0
H4238 H 0.50086 0.9099 0.15186 0.0
H4239 H 0.61099 0.93971 0.14069 0.0
H4240 H 0.55109 0.90811 0.11594 0.0
H4241 H 0.55432 0.95666 0.16431 0.0
C4242 C 0.52494 0.94847 0.1717 0.0
C4243 C 0.5095 0.93532 0.16854 0.0
C4244 C 0.56413 0.91524 0.12131 0.0
C4245 C 0.54475 0.93131 0.14793 0.0
C4246 C 0.58201 0.91084 0.11269 0.0
C4247 C 0.59934 0.91922 0.11971 0.0
C4248 C 0.56341 0.92818 0.13716 0.0
C4249 C 0.59796 0.93298 0.13482 0.0
C4250 C 0.54258 0.94646 0.16154 0.0
C4251 C 0.51231 0.92037 0.15484 0.0
N4252 N 0.5803 0.93691 0.1432 0.0
N4253 N 0.52953 0.91881 0.14505 0.0
H4254 H 0.57497 0.60958 0.13944 0.0
H4255 H 0.58464 0.49328 0.13721 0.0
H4256 H 0.6026 0.57756 0.09288 0.0
H4257 H 0.56988 0.52634 0.18876 0.0
H4258 H 0.58459 0.52352 0.11824 0.0
H4259 H 0.56579 0.57861 0.15484 0.0
C4260 C 0.57864 0.59602 0.13223 0.0
C4261 C 0.58968 0.59603 0.11501 0.0
C4262 C 0.58121 0.52411 0.13368 0.0
C4263 C 0.57957 0.5607 0.13257 0.0
C4264 C 0.58123 0.50686 0.14451 0.0
C4265 C 0.57752 0.50733 0.16464 0.0
C4266 C 0.57734 0.54193 0.14304 0.0
C4267 C 0.57309 0.52534 0.17332 0.0
C4268 C 0.57359 0.57837 0.14109 0.0
C4269 C 0.59426 0.57809 0.1063 0.0
N4270 N 0.57323 0.54193 0.16249 0.0
N4271 N 0.58935 0.56114 0.11527 0.0
H4272 H 0.41612 0.91604 0.93226 0.0
H4273 H 0.31237 0.96771 0.91658 0.0
H4274 H 0.36579 0.88747 0.90782 0.0
H4275 H 0.36533 0.99987 0.92783 0.0
H4276 H 0.33064 0.93735 0.91909 0.0
H4277 H 0.39653 0.94575 0.93696 0.0
C4278 C 0.40077 0.91587 0.92849 0.0
C4279 C 0.39242 0.8993 0.91989 0.0
C4280 C 0.33829 0.95102 0.9211 0.0
C4281 C 0.37012 0.93318 0.92472 0.0
C4282 C 0.32786 0.96843 0.91967 0.0
C4283 C 0.33734 0.98646 0.92183 0.0
C4284 C 0.35843 0.9515 0.92481 0.0
C4285 C 0.35743 0.98634 0.92592 0.0
C4286 C 0.38967 0.93286 0.93093 0.0
C4287 C 0.37265 0.89992 0.91473 0.0
N4288 N 0.36733 0.96914 0.92721 0.0
N4289 N 0.3622 0.91659 0.91714 0.0
H4290 H 0.36215 0.62176 0.57172 0.0
H4291 H 0.3669 0.50521 0.58059 0.0
H4292 H 0.41203 0.59018 0.59316 0.0
H4293 H 0.31376 0.53733 0.57028 0.0
H4294 H 0.3852 0.53583 0.57925 0.0
H4295 H 0.34593 0.59056 0.56456 0.0
C4296 C 0.36986 0.60823 0.57437 0.0
C4297 C 0.38839 0.60841 0.58297 0.0
C4298 C 0.36955 0.53616 0.57715 0.0
C4299 C 0.36997 0.57284 0.57527 0.0
C4300 C 0.35909 0.51867 0.57792 0.0
C4301 C 0.33874 0.51871 0.57577 0.0
C4302 C 0.35961 0.55383 0.57412 0.0
C4303 C 0.32942 0.53661 0.57224 0.0
C4304 C 0.36057 0.59046 0.5705 0.0
C4305 C 0.39772 0.59056 0.58647 0.0
N4306 N 0.3399 0.55344 0.57162 0.0
N4307 N 0.38836 0.5735 0.58276 0.0
H4308 H 0.92578 0.41782 0.6035 0.0
H4309 H 0.97542 0.31739 0.57392 0.0
H4310 H 0.89379 0.3704 0.57751 0.0
H4311 H 0.00847 0.36891 0.58859 0.0
H4312 H 0.94565 0.33692 0.57356 0.0
H4313 H 0.95637 0.40095 0.59619 0.0
C4314 C 0.92529 0.40399 0.59586 0.0
C4315 C 0.90733 0.39545 0.59105 0.0
C4316 C 0.95941 0.34402 0.57667 0.0
C4317 C 0.9422 0.37578 0.58309 0.0
C4318 C 0.97645 0.33286 0.57696 0.0
C4319 C 0.99448 0.34149 0.58146 0.0
C4320 C 0.96031 0.36397 0.58114 0.0
C4321 C 0.9949 0.36162 0.58511 0.0
C4322 C 0.94272 0.39433 0.59175 0.0
C4323 C 0.90739 0.37748 0.58132 0.0
N4324 N 0.97804 0.37213 0.58508 0.0
N4325 N 0.92457 0.36809 0.5779 0.0
H4326 H 0.13821 0.88623 0.59493 0.0
H4327 H 0.13547 0.00221 0.582 0.0
H4328 H 0.08559 0.91817 0.58262 0.0
H4329 H 0.18819 0.96914 0.59142 0.0
H4330 H 0.11724 0.97156 0.57924 0.0
H4331 H 0.1572 0.91612 0.59002 0.0
C4332 C 0.13077 0.89947 0.59058 0.0
C4333 C 0.11042 0.89976 0.58883 0.0
C4334 C 0.13282 0.97102 0.58178 0.0
C4335 C 0.13184 0.93422 0.58399 0.0
C4336 C 0.14324 0.98853 0.5834 0.0
C4337 C 0.16339 0.9883 0.58711 0.0
C4338 C 0.1426 0.95312 0.58392 0.0
C4339 C 0.17266 0.9701 0.58869 0.0
C4340 C 0.14155 0.91658 0.58798 0.0
C4341 C 0.10133 0.91735 0.58373 0.0
N4342 N 0.1622 0.95331 0.58721 0.0
N4343 N 0.11207 0.93394 0.58169 0.0
H4344 H 0.57717 0.08443 0.59897 0.0
H4345 H 0.52732 0.17869 0.55322 0.0
H4346 H 0.60935 0.12798 0.56701 0.0
H4347 H 0.49526 0.13187 0.58051 0.0
H4348 H 0.5569 0.15886 0.55464 0.0
H4349 H 0.54669 0.09985 0.58894 0.0
C4350 C 0.57775 0.09715 0.5896 0.0
C4351 C 0.59576 0.10508 0.58395 0.0
C4352 C 0.54335 0.15281 0.56007 0.0
C4353 C 0.56089 0.12304 0.57258 0.0
C4354 C 0.52641 0.16413 0.55926 0.0
C4355 C 0.50878 0.15703 0.56697 0.0
C4356 C 0.54272 0.1343 0.5688 0.0
C4357 C 0.50851 0.13801 0.57449 0.0
C4358 C 0.56035 0.10596 0.58387 0.0
C4359 C 0.59574 0.12145 0.57168 0.0
N4360 N 0.52526 0.12742 0.57544 0.0
N4361 N 0.57856 0.13008 0.56663 0.0
H4362 H 0.09769 0.59619 0.9297 0.0
H4363 H 0.14199 0.50428 0.92907 0.0
H4364 H 0.14761 0.61313 0.89539 0.0
H4365 H 0.19526 0.53547 0.91664 0.0
H4366 H 0.12429 0.53524 0.92885 0.0
H4367 H 0.11426 0.56559 0.93804 0.0
C4368 C 0.11228 0.59357 0.92421 0.0
C4369 C 0.12126 0.60708 0.91172 0.0
C4370 C 0.13991 0.5354 0.92662 0.0
C4371 C 0.14004 0.57192 0.92057 0.0
C4372 C 0.15 0.51765 0.92654 0.0
C4373 C 0.17014 0.51723 0.92281 0.0
C4374 C 0.15005 0.55286 0.92287 0.0
C4375 C 0.17975 0.53503 0.91956 0.0
C4376 C 0.1216 0.57596 0.92868 0.0
C4377 C 0.14012 0.60299 0.90492 0.0
N4378 N 0.1696 0.55203 0.91947 0.0
N4379 N 0.14883 0.58577 0.90935 0.0
H4380 H 0.9735 0.18115 0.95068 0.0
H4381 H 0.92139 0.08756 0.90649 0.0
H4382 H 0.00466 0.13212 0.92651 0.0
H4383 H 0.89016 0.13344 0.93595 0.0
H4384 H 0.95218 0.1017 0.91753 0.0
H4385 H 0.94331 0.16229 0.94927 0.0
C4386 C 0.97405 0.1663 0.94532 0.0
C4387 C 0.99163 0.15829 0.93846 0.0
C4388 C 0.93864 0.10857 0.92187 0.0
C4389 C 0.95698 0.13665 0.93664 0.0
C4390 C 0.92106 0.10049 0.91558 0.0
C4391 C 0.90328 0.10949 0.92018 0.0
C4392 C 0.93849 0.12599 0.93263 0.0
C4393 C 0.9036 0.1261 0.93209 0.0
C4394 C 0.95677 0.15553 0.94453 0.0
C4395 C 0.99146 0.13893 0.93185 0.0
N4396 N 0.92096 0.13403 0.93765 0.0
N4397 N 0.97437 0.12888 0.93085 0.0
H4398 H 0.59159 0.40806 0.925 0.0
H4399 H 0.53161 0.30846 0.91331 0.0
H4400 H 0.61508 0.35527 0.90041 0.0
H4401 H 0.50395 0.36384 0.9247 0.0
H4402 H 0.56333 0.32437 0.91452 0.0
H4403 H 0.56068 0.39092 0.93138 0.0
C4404 C 0.59039 0.3927 0.92151 0.0
C4405 C 0.60583 0.38296 0.9123 0.0
C4406 C 0.55036 0.33307 0.91684 0.0
C4407 C 0.57064 0.36344 0.91914 0.0
C4408 C 0.53217 0.32399 0.91613 0.0
C4409 C 0.51501 0.33486 0.9187 0.0
C4410 C 0.55153 0.35322 0.92018 0.0
C4411 C 0.51678 0.35491 0.92247 0.0
C4412 C 0.57273 0.383 0.92493 0.0
C4413 C 0.6035 0.36321 0.90765 0.0
N4414 N 0.53472 0.36348 0.92301 0.0
N4415 N 0.58621 0.35413 0.91102 0.0
loop_
_geom_bond_atom_site_label_1
_geom_bond_atom_site_label_2
_geom_bond_distance
_geom_bond_site_symmetry_2
_ccdc_geom_bond_type
O0 Tb1 2.292 . S
O0 C3 1.255 . S
Tb1 O0 2.292 . S
Tb1 O17 2.326 . S
Tb1 O19 2.500 . S
Tb1 O20 2.473 . S
Tb1 O23 2.324 . S
Eu2 O6 2.292 . S
Eu2 C7 2.852 . S
Eu2 O18 2.324 . S
Eu2 O22 2.326 . S
Eu2 O24 2.500 . S
Eu2 O25 2.473 . S
C3 O0 1.255 . S
C3 O4 1.247 . S
O4 C3 1.247 . S
C5 O17 1.242 . S
C5 O18 1.258 . S
O6 Eu2 2.292 . S
O6 C8 1.255 1_455 S
C7 Eu2 2.852 . S
C7 C11 1.503 . S
C7 O24 1.273 . S
C7 O25 1.257 . S
C8 O6 1.255 1_655 S
C8 O9 1.247 . S
O9 C8 1.247 . S
C10 O22 1.242 . S
C10 O23 1.258 . S
C11 C7 1.503 . S
C11 C12 1.379 . S
C11 C16 1.392 . S
C12 C11 1.379 . S
C12 C13 1.404 . S
C12 H26 0.929 . S
C13 C12 1.404 . S
C13 C14 1.389 . S
C14 C13 1.389 . S
C14 C15 1.399 . S
C14 H27 0.931 . S
C15 C14 1.399 . S
C15 C16 1.390 . S
C16 C11 1.392 . S
C16 C15 1.390 . S
C16 H28 0.929 . S
O17 Tb1 2.326 . S
O17 C5 1.242 . S
O18 Eu2 2.324 . S
O18 C5 1.258 . S
O19 Tb1 2.500 . S
O19 C21 1.273 . S
O20 Tb1 2.473 . S
O20 C21 1.257 . S
C21 O19 1.273 . S
C21 O20 1.257 . S
O22 Eu2 2.326 . S
O22 C10 1.242 . S
O23 Tb1 2.324 . S
O23 C10 1.258 . S
O24 Eu2 2.500 . S
O24 C7 1.273 . S
O25 Eu2 2.473 . S
O25 C7 1.257 . S
H26 C12 0.929 . S
H27 C14 0.931 . S
H28 C16 0.929 . S
O29 Tb30 2.292 . S
O29 C32 1.255 . S
Tb30 O29 2.292 . S
Tb30 O46 2.326 . S
Tb30 O48 2.500 . S
Tb30 O49 2.473 . S
Tb30 O52 2.324 . S
Eu31 O35 2.292 . S
Eu31 C36 2.852 . S
Eu31 O47 2.324 . S
Eu31 O51 2.326 . S
Eu31 O53 2.500 . S
Eu31 O54 2.473 . S
C32 O29 1.255 . S
C32 O33 1.247 . S
O33 C32 1.247 . S
C34 O46 1.242 . S
C34 O47 1.258 . S
O35 Eu31 2.292 . S
O35 C37 1.255 1_545 S
C36 Eu31 2.852 . S
C36 C40 1.503 . S
C36 O53 1.273 . S
C36 O54 1.257 . S
C37 O35 1.255 1_565 S
C37 O38 1.247 . S
O38 C37 1.247 . S
C39 O51 1.242 . S
C39 O52 1.258 . S
C40 C36 1.503 . S
C40 C41 1.379 . S
C40 C45 1.392 . S
C41 C40 1.379 . S
C41 C42 1.404 . S
C41 H55 0.929 . S
C42 C41 1.404 . S
C42 C43 1.389 . S
C43 C42 1.389 . S
C43 C44 1.399 . S
C43 H56 0.931 . S
C44 C43 1.399 . S
C44 C45 1.390 . S
C45 C40 1.392 . S
C45 C44 1.390 . S
C45 H57 0.929 . S
O46 Tb30 2.326 . S
O46 C34 1.242 . S
O47 Eu31 2.324 . S
O47 C34 1.258 . S
O48 Tb30 2.500 . S
O48 C50 1.273 . S
O49 Tb30 2.473 . S
O49 C50 1.257 . S
C50 O48 1.273 . S
C50 O49 1.257 . S
O51 Eu31 2.326 . S
O51 C39 1.242 . S
O52 Tb30 2.324 . S
O52 C39 1.258 . S
O53 Eu31 2.500 . S
O53 C36 1.273 . S
O54 Eu31 2.473 . S
O54 C36 1.257 . S
H55 C41 0.929 . S
H56 C43 0.931 . S
H57 C45 0.929 . S
O58 Tb59 2.292 . S
O58 C61 1.255 . S
Tb59 O58 2.292 . S
Tb59 O75 2.326 . S
Tb59 O77 2.500 . S
Tb59 O78 2.473 . S
Tb59 O81 2.324 . S
Eu60 O64 2.292 . S
Eu60 C65 2.852 . S
Eu60 O76 2.324 . S
Eu60 O80 2.326 . S
Eu60 O82 2.500 . S
Eu60 O83 2.473 . S
C61 O58 1.255 . S
C61 O62 1.247 . S
O62 C61 1.247 . S
C63 O75 1.242 . S
C63 O76 1.258 . S
O64 Eu60 2.292 . S
O64 C66 1.255 . S
C65 Eu60 2.852 . S
C65 C69 1.503 . S
C65 O82 1.273 . S
C65 O83 1.257 . S
C66 O64 1.255 . S
C66 O67 1.247 . S
O67 C66 1.247 . S
C68 O80 1.242 . S
C68 O81 1.258 . S
C69 C65 1.503 . S
C69 C70 1.379 . S
C69 C74 1.392 . S
C70 C69 1.379 . S
C70 C71 1.404 . S
C70 H84 0.929 . S
C71 C70 1.404 . S
C71 C72 1.389 . S
C72 C71 1.389 . S
C72 C73 1.399 . S
C72 H85 0.931 . S
C73 C72 1.399 . S
C73 C74 1.390 . S
C74 C69 1.392 . S
C74 C73 1.390 . S
C74 H86 0.929 . S
O75 Tb59 2.326 . S
O75 C63 1.242 . S
O76 Eu60 2.324 . S
O76 C63 1.258 . S
O77 Tb59 2.500 . S
O77 C79 1.273 . S
O78 Tb59 2.473 . S
O78 C79 1.257 . S
C79 O77 1.273 . S
C79 O78 1.257 . S
O80 Eu60 2.326 . S
O80 C68 1.242 . S
O81 Tb59 2.324 . S
O81 C68 1.258 . S
O82 Eu60 2.500 . S
O82 C65 1.273 . S
O83 Eu60 2.473 . S
O83 C65 1.257 . S
H84 C70 0.929 . S
H85 C72 0.931 . S
H86 C74 0.929 . S
O87 Tb88 2.292 . S
O87 C90 1.255 . S
Tb88 O87 2.292 . S
Tb88 O104 2.326 . S
Tb88 O106 2.500 . S
Tb88 O107 2.473 . S
Tb88 O110 2.324 . S
Eu89 O93 2.292 . S
Eu89 C94 2.852 . S
Eu89 O105 2.324 . S
Eu89 O109 2.326 . S
Eu89 O111 2.500 . S
Eu89 O112 2.473 . S
C90 O87 1.255 . S
C90 O91 1.247 . S
O91 C90 1.247 . S
C92 O104 1.242 . S
C92 O105 1.258 . S
O93 Eu89 2.292 . S
O93 C95 1.255 . S
C94 Eu89 2.852 . S
C94 C98 1.503 . S
C94 O111 1.273 . S
C94 O112 1.257 . S
C95 O93 1.255 . S
C95 O96 1.247 . S
O96 C95 1.247 . S
C97 O109 1.242 . S
C97 O110 1.258 . S
C98 C94 1.503 . S
C98 C99 1.379 . S
C98 C103 1.392 . S
C99 C98 1.379 . S
C99 C100 1.404 . S
C99 H113 0.929 . S
C100 C99 1.404 . S
C100 C101 1.389 . S
C101 C100 1.389 . S
C101 C102 1.399 . S
C101 H114 0.931 . S
C102 C101 1.399 . S
C102 C103 1.390 . S
C103 C98 1.392 . S
C103 C102 1.390 . S
C103 H115 0.929 . S
O104 Tb88 2.326 . S
O104 C92 1.242 . S
O105 Eu89 2.324 . S
O105 C92 1.258 . S
O106 Tb88 2.500 . S
O106 C108 1.273 . S
O107 Tb88 2.473 . S
O107 C108 1.257 . S
C108 O106 1.273 . S
C108 O107 1.257 . S
O109 Eu89 2.326 . S
O109 C97 1.242 . S
O110 Tb88 2.324 . S
O110 C97 1.258 . S
O111 Eu89 2.500 . S
O111 C94 1.273 . S
O112 Eu89 2.473 . S
O112 C94 1.257 . S
H113 C99 0.929 . S
H114 C101 0.931 . S
H115 C103 0.929 . S
O116 Tb117 2.292 . S
O116 C119 1.255 . S
Tb117 O116 2.292 . S
Tb117 O133 2.326 . S
Tb117 O135 2.500 . S
Tb117 O136 2.473 . S
Tb117 O139 2.324 . S
Eu118 O122 2.292 . S
Eu118 C123 2.852 . S
Eu118 O134 2.324 . S
Eu118 O138 2.326 . S
Eu118 O140 2.500 . S
Eu118 O141 2.473 . S
C119 O116 1.255 . S
C119 O120 1.247 . S
O120 C119 1.247 . S
C121 O133 1.242 . S
C121 O134 1.258 . S
O122 Eu118 2.292 . S
O122 C124 1.255 1_455 S
C123 Eu118 2.852 . S
C123 C127 1.503 . S
C123 O140 1.273 . S
C123 O141 1.257 . S
C124 O122 1.255 1_655 S
C124 O125 1.247 . S
O125 C124 1.247 . S
C126 O138 1.242 . S
C126 O139 1.258 . S
C127 C123 1.503 . S
C127 C128 1.379 . S
C127 C132 1.392 . S
C128 C127 1.379 . S
C128 C129 1.404 . S
C128 H142 0.929 . S
C129 C128 1.404 . S
C129 C130 1.389 . S
C130 C129 1.389 . S
C130 C131 1.399 . S
C130 H143 0.931 . S
C131 C130 1.399 . S
C131 C132 1.390 . S
C132 C127 1.392 . S
C132 C131 1.390 . S
C132 H144 0.929 . S
O133 Tb117 2.326 . S
O133 C121 1.242 . S
O134 Eu118 2.324 . S
O134 C121 1.258 . S
O135 Tb117 2.500 . S
O135 C137 1.273 . S
O136 Tb117 2.473 . S
O136 C137 1.257 . S
C137 O135 1.273 . S
C137 O136 1.257 . S
O138 Eu118 2.326 . S
O138 C126 1.242 . S
O139 Tb117 2.324 . S
O139 C126 1.258 . S
O140 Eu118 2.500 . S
O140 C123 1.273 . S
O141 Eu118 2.473 . S
O141 C123 1.257 . S
H142 C128 0.929 . S
H143 C130 0.931 . S
H144 C132 0.929 . S
O145 Tb146 2.292 . S
O145 C148 1.255 . S
Tb146 O145 2.292 . S
Tb146 O162 2.326 . S
Tb146 O164 2.500 . S
Tb146 O165 2.473 . S
Tb146 O168 2.324 . S
Eu147 O151 2.292 . S
Eu147 C152 2.852 . S
Eu147 O163 2.324 . S
Eu147 O167 2.326 . S
Eu147 O169 2.500 . S
Eu147 O170 2.473 . S
C148 O145 1.255 . S
C148 O149 1.247 . S
O149 C148 1.247 . S
C150 O162 1.242 . S
C150 O163 1.258 . S
O151 Eu147 2.292 . S
O151 C153 1.255 1_545 S
C152 Eu147 2.852 . S
C152 C156 1.503 . S
C152 O169 1.273 . S
C152 O170 1.257 . S
C153 O151 1.255 1_565 S
C153 O154 1.247 . S
O154 C153 1.247 . S
C155 O167 1.242 . S
C155 O168 1.258 . S
C156 C152 1.503 . S
C156 C157 1.379 . S
C156 C161 1.392 . S
C157 C156 1.379 . S
C157 C158 1.404 . S
C157 H171 0.929 . S
C158 C157 1.404 . S
C158 C159 1.389 . S
C159 C158 1.389 . S
C159 C160 1.399 . S
C159 H172 0.931 . S
C160 C159 1.399 . S
C160 C161 1.390 . S
C161 C156 1.392 . S
C161 C160 1.390 . S
C161 H173 0.929 . S
O162 Tb146 2.326 . S
O162 C150 1.242 . S
O163 Eu147 2.324 . S
O163 C150 1.258 . S
O164 Tb146 2.500 . S
O164 C166 1.273 . S
O165 Tb146 2.473 . S
O165 C166 1.257 . S
C166 O164 1.273 . S
C166 O165 1.257 . S
O167 Eu147 2.326 . S
O167 C155 1.242 . S
O168 Tb146 2.324 . S
O168 C155 1.258 . S
O169 Eu147 2.500 . S
O169 C152 1.273 . S
O170 Eu147 2.473 . S
O170 C152 1.257 . S
H171 C157 0.929 . S
H172 C159 0.931 . S
H173 C161 0.929 . S
O174 Tb175 2.292 . S
O174 C177 1.255 . S
Tb175 O174 2.292 . S
Tb175 O191 2.326 . S
Tb175 O193 2.500 . S
Tb175 O194 2.473 . S
Tb175 O197 2.324 . S
Eu176 O180 2.292 . S
Eu176 C181 2.852 . S
Eu176 O192 2.324 . S
Eu176 O196 2.326 . S
Eu176 O198 2.500 . S
Eu176 O199 2.473 . S
C177 O174 1.255 . S
C177 O178 1.247 . S
O178 C177 1.247 . S
C179 O191 1.242 . S
C179 O192 1.258 . S
O180 Eu176 2.292 . S
O180 C182 1.255 . S
C181 Eu176 2.852 . S
C181 C185 1.503 . S
C181 O198 1.273 . S
C181 O199 1.257 . S
C182 O180 1.255 . S
C182 O183 1.247 . S
O183 C182 1.247 . S
C184 O196 1.242 . S
C184 O197 1.258 . S
C185 C181 1.503 . S
C185 C186 1.379 . S
C185 C190 1.392 . S
C186 C185 1.379 . S
C186 C187 1.404 . S
C186 H200 0.929 . S
C187 C186 1.404 . S
C187 C188 1.389 . S
C188 C187 1.389 . S
C188 C189 1.399 . S
C188 H201 0.931 . S
C189 C188 1.399 . S
C189 C190 1.390 . S
C190 C185 1.392 . S
C190 C189 1.390 . S
C190 H202 0.929 . S
O191 Tb175 2.326 . S
O191 C179 1.242 . S
O192 Eu176 2.324 . S
O192 C179 1.258 . S
O193 Tb175 2.500 . S
O193 C195 1.273 . S
O194 Tb175 2.473 . S
O194 C195 1.257 . S
C195 O193 1.273 . S
C195 O194 1.257 . S
O196 Eu176 2.326 . S
O196 C184 1.242 . S
O197 Tb175 2.324 . S
O197 C184 1.258 . S
O198 Eu176 2.500 . S
O198 C181 1.273 . S
O199 Eu176 2.473 . S
O199 C181 1.257 . S
H200 C186 0.929 . S
H201 C188 0.931 . S
H202 C190 0.929 . S
O203 Tb204 2.292 . S
O203 C206 1.255 . S
Tb204 O203 2.292 . S
Tb204 O220 2.326 . S
Tb204 O222 2.500 . S
Tb204 O223 2.473 . S
Tb204 O226 2.324 . S
Eu205 O209 2.292 . S
Eu205 C210 2.852 . S
Eu205 O221 2.324 . S
Eu205 O225 2.326 . S
Eu205 O227 2.500 . S
Eu205 O228 2.473 . S
C206 O203 1.255 . S
C206 O207 1.247 . S
O207 C206 1.247 . S
C208 O220 1.242 . S
C208 O221 1.258 . S
O209 Eu205 2.292 . S
O209 C211 1.255 . S
C210 Eu205 2.852 . S
C210 C214 1.503 . S
C210 O227 1.273 . S
C210 O228 1.257 . S
C211 O209 1.255 . S
C211 O212 1.247 . S
O212 C211 1.247 . S
C213 O225 1.242 . S
C213 O226 1.258 . S
C214 C210 1.503 . S
C214 C215 1.379 . S
C214 C219 1.392 . S
C215 C214 1.379 . S
C215 C216 1.404 . S
C215 H229 0.929 . S
C216 C215 1.404 . S
C216 C217 1.389 . S
C217 C216 1.389 . S
C217 C218 1.399 . S
C217 H230 0.931 . S
C218 C217 1.399 . S
C218 C219 1.390 . S
C219 C214 1.392 . S
C219 C218 1.390 . S
C219 H231 0.929 . S
O220 Tb204 2.326 . S
O220 C208 1.242 . S
O221 Eu205 2.324 . S
O221 C208 1.258 . S
O222 Tb204 2.500 . S
O222 C224 1.273 . S
O223 Tb204 2.473 . S
O223 C224 1.257 . S
C224 O222 1.273 . S
C224 O223 1.257 . S
O225 Eu205 2.326 . S
O225 C213 1.242 . S
O226 Tb204 2.324 . S
O226 C213 1.258 . S
O227 Eu205 2.500 . S
O227 C210 1.273 . S
O228 Eu205 2.473 . S
O228 C210 1.257 . S
H229 C215 0.929 . S
H230 C217 0.931 . S
H231 C219 0.929 . S
O232 Tb233 2.292 . S
O232 C235 1.255 . S
Tb233 O232 2.292 . S
Tb233 O249 2.326 . S
Tb233 O251 2.500 . S
Tb233 O252 2.473 . S
Tb233 O255 2.324 . S
Eu234 O238 2.292 . S
Eu234 C239 2.852 . S
Eu234 O250 2.324 . S
Eu234 O254 2.326 . S
Eu234 O256 2.500 . S
Eu234 O257 2.473 . S
C235 O232 1.255 . S
C235 O236 1.247 . S
O236 C235 1.247 . S
C237 O249 1.242 . S
C237 O250 1.258 . S
O238 Eu234 2.292 . S
O238 C240 1.255 1_545 S
C239 Eu234 2.852 . S
C239 C243 1.503 . S
C239 O256 1.273 . S
C239 O257 1.257 . S
C240 O238 1.255 1_565 S
C240 O241 1.247 . S
O241 C240 1.247 . S
C242 O254 1.242 . S
C242 O255 1.258 . S
C243 C239 1.503 . S
C243 C244 1.379 . S
C243 C248 1.392 . S
C244 C243 1.379 . S
C244 C245 1.404 . S
C244 H258 0.929 . S
C245 C244 1.404 . S
C245 C246 1.389 . S
C246 C245 1.389 . S
C246 C247 1.399 . S
C246 H259 0.931 . S
C247 C246 1.399 . S
C247 C248 1.390 . S
C248 C243 1.392 . S
C248 C247 1.390 . S
C248 H260 0.929 . S
O249 Tb233 2.326 . S
O249 C237 1.242 . S
O250 Eu234 2.324 . S
O250 C237 1.258 . S
O251 Tb233 2.500 . S
O251 C253 1.273 . S
O252 Tb233 2.473 . S
O252 C253 1.257 . S
C253 O251 1.273 . S
C253 O252 1.257 . S
O254 Eu234 2.326 . S
O254 C242 1.242 . S
O255 Tb233 2.324 . S
O255 C242 1.258 . S
O256 Eu234 2.500 . S
O256 C239 1.273 . S
O257 Eu234 2.473 . S
O257 C239 1.257 . S
H258 C244 0.929 . S
H259 C246 0.931 . S
H260 C248 0.929 . S
O261 Tb262 2.292 . S
O261 C264 1.255 . S
Tb262 O261 2.292 . S
Tb262 O278 2.326 . S
Tb262 O280 2.500 . S
Tb262 O281 2.473 . S
Tb262 O284 2.324 . S
Eu263 O267 2.292 . S
Eu263 C268 2.852 . S
Eu263 O279 2.324 . S
Eu263 O283 2.326 . S
Eu263 O285 2.500 . S
Eu263 O286 2.473 . S
C264 O261 1.255 . S
C264 O265 1.247 . S
O265 C264 1.247 . S
C266 O278 1.242 . S
C266 O279 1.258 . S
O267 Eu263 2.292 . S
O267 C269 1.255 . S
C268 Eu263 2.852 . S
C268 C272 1.503 . S
C268 O285 1.273 . S
C268 O286 1.257 . S
C269 O267 1.255 . S
C269 O270 1.247 . S
O270 C269 1.247 . S
C271 O283 1.242 . S
C271 O284 1.258 . S
C272 C268 1.503 . S
C272 C273 1.379 . S
C272 C277 1.392 . S
C273 C272 1.379 . S
C273 C274 1.404 . S
C273 H287 0.929 . S
C274 C273 1.404 . S
C274 C275 1.389 . S
C275 C274 1.389 . S
C275 C276 1.399 . S
C275 H288 0.931 . S
C276 C275 1.399 . S
C276 C277 1.390 . S
C277 C272 1.392 . S
C277 C276 1.390 . S
C277 H289 0.929 . S
O278 Tb262 2.326 . S
O278 C266 1.242 . S
O279 Eu263 2.324 . S
O279 C266 1.258 . S
O280 Tb262 2.500 . S
O280 C282 1.273 . S
O281 Tb262 2.473 . S
O281 C282 1.257 . S
C282 O280 1.273 . S
C282 O281 1.257 . S
O283 Eu263 2.326 . S
O283 C271 1.242 . S
O284 Tb262 2.324 . S
O284 C271 1.258 . S
O285 Eu263 2.500 . S
O285 C268 1.273 . S
O286 Eu263 2.473 . S
O286 C268 1.257 . S
H287 C273 0.929 . S
H288 C275 0.931 . S
H289 C277 0.929 . S
O290 Tb291 2.292 . S
O290 C293 1.255 . S
Tb291 O290 2.292 . S
Tb291 O307 2.326 . S
Tb291 O309 2.500 . S
Tb291 O310 2.473 . S
Tb291 O313 2.324 . S
Eu292 O296 2.292 . S
Eu292 C297 2.852 . S
Eu292 O308 2.324 . S
Eu292 O312 2.326 . S
Eu292 O314 2.500 . S
Eu292 O315 2.473 . S
C293 O290 1.255 . S
C293 O294 1.247 . S
O294 C293 1.247 . S
C295 O307 1.242 . S
C295 O308 1.258 . S
O296 Eu292 2.292 . S
O296 C298 1.255 . S
C297 Eu292 2.852 . S
C297 C301 1.503 . S
C297 O314 1.273 . S
C297 O315 1.257 . S
C298 O296 1.255 . S
C298 O299 1.247 . S
O299 C298 1.247 . S
C300 O312 1.242 . S
C300 O313 1.258 . S
C301 C297 1.503 . S
C301 C302 1.379 . S
C301 C306 1.392 . S
C302 C301 1.379 . S
C302 C303 1.404 . S
C302 H316 0.929 . S
C303 C302 1.404 . S
C303 C304 1.389 . S
C304 C303 1.389 . S
C304 C305 1.399 . S
C304 H317 0.931 . S
C305 C304 1.399 . S
C305 C306 1.390 . S
C306 C301 1.392 . S
C306 C305 1.390 . S
C306 H318 0.929 . S
O307 Tb291 2.326 . S
O307 C295 1.242 . S
O308 Eu292 2.324 . S
O308 C295 1.258 . S
O309 Tb291 2.500 . S
O309 C311 1.273 . S
O310 Tb291 2.473 . S
O310 C311 1.257 . S
C311 O309 1.273 . S
C311 O310 1.257 . S
O312 Eu292 2.326 . S
O312 C300 1.242 . S
O313 Tb291 2.324 . S
O313 C300 1.258 . S
O314 Eu292 2.500 . S
O314 C297 1.273 . S
O315 Eu292 2.473 . S
O315 C297 1.257 . S
H316 C302 0.929 . S
H317 C304 0.931 . S
H318 C306 0.929 . S
O319 Tb320 2.292 . S
O319 C322 1.255 . S
Tb320 O319 2.292 . S
Tb320 O336 2.326 . S
Tb320 O338 2.500 . S
Tb320 O339 2.473 . S
Tb320 O342 2.324 . S
Eu321 O325 2.292 . S
Eu321 C326 2.852 . S
Eu321 O337 2.324 . S
Eu321 O341 2.326 . S
Eu321 O343 2.500 . S
Eu321 O344 2.473 . S
C322 O319 1.255 . S
C322 O323 1.247 . S
O323 C322 1.247 . S
C324 O336 1.242 . S
C324 O337 1.258 . S
O325 Eu321 2.292 . S
O325 C327 1.255 1_455 S
C326 Eu321 2.852 . S
C326 C330 1.503 . S
C326 O343 1.273 . S
C326 O344 1.257 . S
C327 O325 1.255 1_655 S
C327 O328 1.247 . S
O328 C327 1.247 . S
C329 O341 1.242 . S
C329 O342 1.258 . S
C330 C326 1.503 . S
C330 C331 1.379 . S
C330 C335 1.392 . S
C331 C330 1.379 . S
C331 C332 1.404 . S
C331 H345 0.929 . S
C332 C331 1.404 . S
C332 C333 1.389 . S
C333 C332 1.389 . S
C333 C334 1.399 . S
C333 H346 0.931 . S
C334 C333 1.399 . S
C334 C335 1.390 . S
C335 C330 1.392 . S
C335 C334 1.390 . S
C335 H347 0.929 . S
O336 Tb320 2.326 . S
O336 C324 1.242 . S
O337 Eu321 2.324 . S
O337 C324 1.258 . S
O338 Tb320 2.500 . S
O338 C340 1.273 . S
O339 Tb320 2.473 . S
O339 C340 1.257 . S
C340 O338 1.273 . S
C340 O339 1.257 . S
O341 Eu321 2.326 . S
O341 C329 1.242 . S
O342 Tb320 2.324 . S
O342 C329 1.258 . S
O343 Eu321 2.500 . S
O343 C326 1.273 . S
O344 Eu321 2.473 . S
O344 C326 1.257 . S
H345 C331 0.929 . S
H346 C333 0.931 . S
H347 C335 0.929 . S
O348 Tb349 2.292 . S
O348 C351 1.255 . S
Tb349 O348 2.292 . S
Tb349 O365 2.326 . S
Tb349 O367 2.500 . S
Tb349 O368 2.473 . S
Tb349 O371 2.324 . S
Eu350 O354 2.292 . S
Eu350 C355 2.852 . S
Eu350 O366 2.324 . S
Eu350 O370 2.326 . S
Eu350 O372 2.500 . S
Eu350 O373 2.473 . S
C351 O348 1.255 . S
C351 O352 1.247 . S
O352 C351 1.247 . S
C353 O365 1.242 . S
C353 O366 1.258 . S
O354 Eu350 2.292 . S
O354 C356 1.255 . S
C355 Eu350 2.852 . S
C355 C359 1.503 . S
C355 O372 1.273 . S
C355 O373 1.257 . S
C356 O354 1.255 . S
C356 O357 1.247 . S
O357 C356 1.247 . S
C358 O370 1.242 . S
C358 O371 1.258 . S
C359 C355 1.503 . S
C359 C360 1.379 . S
C359 C364 1.392 . S
C360 C359 1.379 . S
C360 C361 1.404 . S
C360 H374 0.929 . S
C361 C360 1.404 . S
C361 C362 1.389 . S
C362 C361 1.389 . S
C362 C363 1.399 . S
C362 H375 0.931 . S
C363 C362 1.399 . S
C363 C364 1.390 . S
C364 C359 1.392 . S
C364 C363 1.390 . S
C364 H376 0.929 . S
O365 Tb349 2.326 . S
O365 C353 1.242 . S
O366 Eu350 2.324 . S
O366 C353 1.258 . S
O367 Tb349 2.500 . S
O367 C369 1.273 . S
O368 Tb349 2.473 . S
O368 C369 1.257 . S
C369 O367 1.273 . S
C369 O368 1.257 . S
O370 Eu350 2.326 . S
O370 C358 1.242 . S
O371 Tb349 2.324 . S
O371 C358 1.258 . S
O372 Eu350 2.500 . S
O372 C355 1.273 . S
O373 Eu350 2.473 . S
O373 C355 1.257 . S
H374 C360 0.929 . S
H375 C362 0.931 . S
H376 C364 0.929 . S
O377 Tb378 2.292 . S
O377 C380 1.255 . S
Tb378 O377 2.292 . S
Tb378 O394 2.326 . S
Tb378 O396 2.500 . S
Tb378 O397 2.473 . S
Tb378 O400 2.324 . S
Eu379 O383 2.292 . S
Eu379 C384 2.852 . S
Eu379 O395 2.324 . S
Eu379 O399 2.326 . S
Eu379 O401 2.500 . S
Eu379 O402 2.473 . S
C380 O377 1.255 . S
C380 O381 1.247 . S
O381 C380 1.247 . S
C382 O394 1.242 . S
C382 O395 1.258 . S
O383 Eu379 2.292 . S
O383 C385 1.255 1_455 S
C384 Eu379 2.852 . S
C384 C388 1.503 . S
C384 O401 1.273 . S
C384 O402 1.257 . S
C385 O383 1.255 1_655 S
C385 O386 1.247 . S
O386 C385 1.247 . S
C387 O399 1.242 . S
C387 O400 1.258 . S
C388 C384 1.503 . S
C388 C389 1.379 . S
C388 C393 1.392 . S
C389 C388 1.379 . S
C389 C390 1.404 . S
C389 H403 0.929 . S
C390 C389 1.404 . S
C390 C391 1.389 . S
C391 C390 1.389 . S
C391 C392 1.399 . S
C391 H404 0.931 . S
C392 C391 1.399 . S
C392 C393 1.390 . S
C393 C388 1.392 . S
C393 C392 1.390 . S
C393 H405 0.929 . S
O394 Tb378 2.326 . S
O394 C382 1.242 . S
O395 Eu379 2.324 . S
O395 C382 1.258 . S
O396 Tb378 2.500 . S
O396 C398 1.273 . S
O397 Tb378 2.473 . S
O397 C398 1.257 . S
C398 O396 1.273 . S
C398 O397 1.257 . S
O399 Eu379 2.326 . S
O399 C387 1.242 . S
O400 Tb378 2.324 . S
O400 C387 1.258 . S
O401 Eu379 2.500 . S
O401 C384 1.273 . S
O402 Eu379 2.473 . S
O402 C384 1.257 . S
H403 C389 0.929 . S
H404 C391 0.931 . S
H405 C393 0.929 . S
O406 Tb407 2.292 . S
O406 C409 1.255 . S
Tb407 O406 2.292 . S
Tb407 O423 2.326 . S
Tb407 O425 2.500 . S
Tb407 O426 2.473 . S
Tb407 O429 2.324 . S
Eu408 O412 2.292 . S
Eu408 C413 2.852 . S
Eu408 O424 2.324 . S
Eu408 O428 2.326 . S
Eu408 O430 2.500 . S
Eu408 O431 2.473 . S
C409 O406 1.255 . S
C409 O410 1.247 . S
O410 C409 1.247 . S
C411 O423 1.242 . S
C411 O424 1.258 . S
O412 Eu408 2.292 . S
O412 C414 1.255 1_545 S
C413 Eu408 2.852 . S
C413 C417 1.503 . S
C413 O430 1.273 . S
C413 O431 1.257 . S
C414 O412 1.255 1_565 S
C414 O415 1.247 . S
O415 C414 1.247 . S
C416 O428 1.242 . S
C416 O429 1.258 . S
C417 C413 1.503 . S
C417 C418 1.379 . S
C417 C422 1.392 . S
C418 C417 1.379 . S
C418 C419 1.404 . S
C418 H432 0.929 . S
C419 C418 1.404 . S
C419 C420 1.389 . S
C420 C419 1.389 . S
C420 C421 1.399 . S
C420 H433 0.931 . S
C421 C420 1.399 . S
C421 C422 1.390 . S
C422 C417 1.392 . S
C422 C421 1.390 . S
C422 H434 0.929 . S
O423 Tb407 2.326 . S
O423 C411 1.242 . S
O424 Eu408 2.324 . S
O424 C411 1.258 . S
O425 Tb407 2.500 . S
O425 C427 1.273 . S
O426 Tb407 2.473 . S
O426 C427 1.257 . S
C427 O425 1.273 . S
C427 O426 1.257 . S
O428 Eu408 2.326 . S
O428 C416 1.242 . S
O429 Tb407 2.324 . S
O429 C416 1.258 . S
O430 Eu408 2.500 . S
O430 C413 1.273 . S
O431 Eu408 2.473 . S
O431 C413 1.257 . S
H432 C418 0.929 . S
H433 C420 0.931 . S
H434 C422 0.929 . S
O435 Tb436 2.292 . S
O435 C438 1.255 . S
Tb436 O435 2.292 . S
Tb436 O452 2.326 . S
Tb436 O454 2.500 . S
Tb436 O455 2.473 . S
Tb436 O458 2.324 . S
Eu437 O441 2.292 . S
Eu437 C442 2.852 . S
Eu437 O453 2.324 . S
Eu437 O457 2.326 . S
Eu437 O459 2.500 . S
Eu437 O460 2.473 . S
C438 O435 1.255 . S
C438 O439 1.247 . S
O439 C438 1.247 . S
C440 O452 1.242 . S
C440 O453 1.258 . S
O441 Eu437 2.292 . S
O441 C443 1.255 . S
C442 Eu437 2.852 . S
C442 C446 1.503 . S
C442 O459 1.273 . S
C442 O460 1.257 . S
C443 O441 1.255 . S
C443 O444 1.247 . S
O444 C443 1.247 . S
C445 O457 1.242 . S
C445 O458 1.258 . S
C446 C442 1.503 . S
C446 C447 1.379 . S
C446 C451 1.392 . S
C447 C446 1.379 . S
C447 C448 1.404 . S
C447 H461 0.929 . S
C448 C447 1.404 . S
C448 C449 1.389 . S
C449 C448 1.389 . S
C449 C450 1.399 . S
C449 H462 0.931 . S
C450 C449 1.399 . S
C450 C451 1.390 . S
C451 C446 1.392 . S
C451 C450 1.390 . S
C451 H463 0.929 . S
O452 Tb436 2.326 . S
O452 C440 1.242 . S
O453 Eu437 2.324 . S
O453 C440 1.258 . S
O454 Tb436 2.500 . S
O454 C456 1.273 . S
O455 Tb436 2.473 . S
O455 C456 1.257 . S
C456 O454 1.273 . S
C456 O455 1.257 . S
O457 Eu437 2.326 . S
O457 C445 1.242 . S
O458 Tb436 2.324 . S
O458 C445 1.258 . S
O459 Eu437 2.500 . S
O459 C442 1.273 . S
O460 Eu437 2.473 . S
O460 C442 1.257 . S
H461 C447 0.929 . S
H462 C449 0.931 . S
H463 C451 0.929 . S
O464 Tb465 2.292 . S
O464 C467 1.255 . S
Tb465 O464 2.292 . S
Tb465 O481 2.326 . S
Tb465 O483 2.500 . S
Tb465 O484 2.473 . S
Tb465 O487 2.324 . S
Eu466 O470 2.292 . S
Eu466 C471 2.852 . S
Eu466 O482 2.324 . S
Eu466 O486 2.326 . S
Eu466 O488 2.500 . S
Eu466 O489 2.473 . S
C467 O464 1.255 . S
C467 O468 1.247 . S
O468 C467 1.247 . S
C469 O481 1.242 . S
C469 O482 1.258 . S
O470 Eu466 2.292 . S
O470 C472 1.255 1_554 S
C471 Eu466 2.852 . S
C471 C475 1.503 . S
C471 O488 1.273 . S
C471 O489 1.257 . S
C472 O470 1.255 1_556 S
C472 O473 1.247 . S
O473 C472 1.247 . S
C474 O486 1.242 . S
C474 O487 1.258 . S
C475 C471 1.503 . S
C475 C476 1.379 . S
C475 C480 1.392 . S
C476 C475 1.379 . S
C476 C477 1.404 . S
C476 H490 0.929 . S
C477 C476 1.404 . S
C477 C478 1.389 . S
C478 C477 1.389 . S
C478 C479 1.399 . S
C478 H491 0.931 . S
C479 C478 1.399 . S
C479 C480 1.390 . S
C480 C475 1.392 . S
C480 C479 1.390 . S
C480 H492 0.929 . S
O481 Tb465 2.326 . S
O481 C469 1.242 . S
O482 Eu466 2.324 . S
O482 C469 1.258 . S
O483 Tb465 2.500 . S
O483 C485 1.273 . S
O484 Tb465 2.473 . S
O484 C485 1.257 . S
C485 O483 1.273 . S
C485 O484 1.257 . S
O486 Eu466 2.326 . S
O486 C474 1.242 . S
O487 Tb465 2.324 . S
O487 C474 1.258 . S
O488 Eu466 2.500 . S
O488 C471 1.273 . S
O489 Eu466 2.473 . S
O489 C471 1.257 . S
H490 C476 0.929 . S
H491 C478 0.931 . S
H492 C480 0.929 . S
O493 Tb494 2.292 . S
O493 C496 1.255 . S
Tb494 O493 2.292 . S
Tb494 O510 2.326 . S
Tb494 O512 2.500 . S
Tb494 O513 2.473 . S
Tb494 O516 2.324 . S
Eu495 O499 2.292 . S
Eu495 C500 2.852 . S
Eu495 O511 2.324 . S
Eu495 O515 2.326 . S
Eu495 O517 2.500 . S
Eu495 O518 2.473 . S
C496 O493 1.255 . S
C496 O497 1.247 . S
O497 C496 1.247 . S
C498 O510 1.242 . S
C498 O511 1.258 . S
O499 Eu495 2.292 . S
O499 C501 1.255 . S
C500 Eu495 2.852 . S
C500 C504 1.503 . S
C500 O517 1.273 . S
C500 O518 1.257 . S
C501 O499 1.255 . S
C501 O502 1.247 . S
O502 C501 1.247 . S
C503 O515 1.242 . S
C503 O516 1.258 . S
C504 C500 1.503 . S
C504 C505 1.379 . S
C504 C509 1.392 . S
C505 C504 1.379 . S
C505 C506 1.404 . S
C505 H519 0.929 . S
C506 C505 1.404 . S
C506 C507 1.389 . S
C507 C506 1.389 . S
C507 C508 1.399 . S
C507 H520 0.931 . S
C508 C507 1.399 . S
C508 C509 1.390 . S
C509 C504 1.392 . S
C509 C508 1.390 . S
C509 H521 0.929 . S
O510 Tb494 2.326 . S
O510 C498 1.242 . S
O511 Eu495 2.324 . S
O511 C498 1.258 . S
O512 Tb494 2.500 . S
O512 C514 1.273 . S
O513 Tb494 2.473 . S
O513 C514 1.257 . S
C514 O512 1.273 . S
C514 O513 1.257 . S
O515 Eu495 2.326 . S
O515 C503 1.242 . S
O516 Tb494 2.324 . S
O516 C503 1.258 . S
O517 Eu495 2.500 . S
O517 C500 1.273 . S
O518 Eu495 2.473 . S
O518 C500 1.257 . S
H519 C505 0.929 . S
H520 C507 0.931 . S
H521 C509 0.929 . S
O522 Tb523 2.292 . S
O522 C525 1.255 . S
Tb523 O522 2.292 . S
Tb523 O539 2.326 . S
Tb523 O541 2.500 . S
Tb523 O542 2.473 . S
Tb523 O545 2.324 . S
Eu524 O528 2.292 . S
Eu524 C529 2.852 . S
Eu524 O540 2.324 . S
Eu524 O544 2.326 . S
Eu524 O546 2.500 . S
Eu524 O547 2.473 . S
C525 O522 1.255 . S
C525 O526 1.247 . S
O526 C525 1.247 . S
C527 O539 1.242 . S
C527 O540 1.258 . S
O528 Eu524 2.292 . S
O528 C530 1.255 . S
C529 Eu524 2.852 . S
C529 C533 1.503 . S
C529 O546 1.273 . S
C529 O547 1.257 . S
C530 O528 1.255 . S
C530 O531 1.247 . S
O531 C530 1.247 . S
C532 O544 1.242 . S
C532 O545 1.258 . S
C533 C529 1.503 . S
C533 C534 1.379 . S
C533 C538 1.392 . S
C534 C533 1.379 . S
C534 C535 1.404 . S
C534 H548 0.929 . S
C535 C534 1.404 . S
C535 C536 1.389 . S
C536 C535 1.389 . S
C536 C537 1.399 . S
C536 H549 0.931 . S
C537 C536 1.399 . S
C537 C538 1.390 . S
C538 C533 1.392 . S
C538 C537 1.390 . S
C538 H550 0.929 . S
O539 Tb523 2.326 . S
O539 C527 1.242 . S
O540 Eu524 2.324 . S
O540 C527 1.258 . S
O541 Tb523 2.500 . S
O541 C543 1.273 . S
O542 Tb523 2.473 . S
O542 C543 1.257 . S
C543 O541 1.273 . S
C543 O542 1.257 . S
O544 Eu524 2.326 . S
O544 C532 1.242 . S
O545 Tb523 2.324 . S
O545 C532 1.258 . S
O546 Eu524 2.500 . S
O546 C529 1.273 . S
O547 Eu524 2.473 . S
O547 C529 1.257 . S
H548 C534 0.929 . S
H549 C536 0.931 . S
H550 C538 0.929 . S
O551 Tb552 2.292 . S
O551 C554 1.255 . S
Tb552 O551 2.292 . S
Tb552 O568 2.326 . S
Tb552 O570 2.500 . S
Tb552 O571 2.473 . S
Tb552 O574 2.324 . S
Eu553 O557 2.292 . S
Eu553 C558 2.852 . S
Eu553 O569 2.324 . S
Eu553 O573 2.326 . S
Eu553 O575 2.500 . S
Eu553 O576 2.473 . S
C554 O551 1.255 . S
C554 O555 1.247 . S
O555 C554 1.247 . S
C556 O568 1.242 . S
C556 O569 1.258 . S
O557 Eu553 2.292 . S
O557 C559 1.255 . S
C558 Eu553 2.852 . S
C558 C562 1.503 . S
C558 O575 1.273 . S
C558 O576 1.257 . S
C559 O557 1.255 . S
C559 O560 1.247 . S
O560 C559 1.247 . S
C561 O573 1.242 . S
C561 O574 1.258 . S
C562 C558 1.503 . S
C562 C563 1.379 . S
C562 C567 1.392 . S
C563 C562 1.379 . S
C563 C564 1.404 . S
C563 H577 0.929 . S
C564 C563 1.404 . S
C564 C565 1.389 . S
C565 C564 1.389 . S
C565 C566 1.399 . S
C565 H578 0.931 . S
C566 C565 1.399 . S
C566 C567 1.390 . S
C567 C562 1.392 . S
C567 C566 1.390 . S
C567 H579 0.929 . S
O568 Tb552 2.326 . S
O568 C556 1.242 . S
O569 Eu553 2.324 . S
O569 C556 1.258 . S
O570 Tb552 2.500 . S
O570 C572 1.273 . S
O571 Tb552 2.473 . S
O571 C572 1.257 . S
C572 O570 1.273 . S
C572 O571 1.257 . S
O573 Eu553 2.326 . S
O573 C561 1.242 . S
O574 Tb552 2.324 . S
O574 C561 1.258 . S
O575 Eu553 2.500 . S
O575 C558 1.273 . S
O576 Eu553 2.473 . S
O576 C558 1.257 . S
H577 C563 0.929 . S
H578 C565 0.931 . S
H579 C567 0.929 . S
O580 Tb581 2.292 . S
O580 C583 1.255 . S
Tb581 O580 2.292 . S
Tb581 O597 2.326 . S
Tb581 O599 2.500 . S
Tb581 O600 2.473 . S
Tb581 O603 2.324 . S
Eu582 O586 2.292 . S
Eu582 C587 2.852 . S
Eu582 O598 2.324 . S
Eu582 O602 2.326 . S
Eu582 O604 2.500 . S
Eu582 O605 2.473 . S
C583 O580 1.255 . S
C583 O584 1.247 . S
O584 C583 1.247 . S
C585 O597 1.242 . S
C585 O598 1.258 . S
O586 Eu582 2.292 . S
O586 C588 1.255 . S
C587 Eu582 2.852 . S
C587 C591 1.503 . S
C587 O604 1.273 . S
C587 O605 1.257 . S
C588 O586 1.255 . S
C588 O589 1.247 . S
O589 C588 1.247 . S
C590 O602 1.242 . S
C590 O603 1.258 . S
C591 C587 1.503 . S
C591 C592 1.379 . S
C591 C596 1.392 . S
C592 C591 1.379 . S
C592 C593 1.404 . S
C592 H606 0.929 . S
C593 C592 1.404 . S
C593 C594 1.389 . S
C594 C593 1.389 . S
C594 C595 1.399 . S
C594 H607 0.931 . S
C595 C594 1.399 . S
C595 C596 1.390 . S
C596 C591 1.392 . S
C596 C595 1.390 . S
C596 H608 0.929 . S
O597 Tb581 2.326 . S
O597 C585 1.242 . S
O598 Eu582 2.324 . S
O598 C585 1.258 . S
O599 Tb581 2.500 . S
O599 C601 1.273 . S
O600 Tb581 2.473 . S
O600 C601 1.257 . S
C601 O599 1.273 . S
C601 O600 1.257 . S
O602 Eu582 2.326 . S
O602 C590 1.242 . S
O603 Tb581 2.324 . S
O603 C590 1.258 . S
O604 Eu582 2.500 . S
O604 C587 1.273 . S
O605 Eu582 2.473 . S
O605 C587 1.257 . S
H606 C592 0.929 . S
H607 C594 0.931 . S
H608 C596 0.929 . S
O609 Tb610 2.292 . S
O609 C612 1.255 . S
Tb610 O609 2.292 . S
Tb610 O626 2.326 . S
Tb610 O628 2.500 . S
Tb610 O629 2.473 . S
Tb610 O632 2.324 . S
Eu611 O615 2.292 . S
Eu611 C616 2.852 . S
Eu611 O627 2.324 . S
Eu611 O631 2.326 . S
Eu611 O633 2.500 . S
Eu611 O634 2.473 . S
C612 O609 1.255 . S
C612 O613 1.247 . S
O613 C612 1.247 . S
C614 O626 1.242 . S
C614 O627 1.258 . S
O615 Eu611 2.292 . S
O615 C617 1.255 1_554 S
C616 Eu611 2.852 . S
C616 C620 1.503 . S
C616 O633 1.273 . S
C616 O634 1.257 . S
C617 O615 1.255 1_556 S
C617 O618 1.247 . S
O618 C617 1.247 . S
C619 O631 1.242 . S
C619 O632 1.258 . S
C620 C616 1.503 . S
C620 C621 1.379 . S
C620 C625 1.392 . S
C621 C620 1.379 . S
C621 C622 1.404 . S
C621 H635 0.929 . S
C622 C621 1.404 . S
C622 C623 1.389 . S
C623 C622 1.389 . S
C623 C624 1.399 . S
C623 H636 0.931 . S
C624 C623 1.399 . S
C624 C625 1.390 . S
C625 C620 1.392 . S
C625 C624 1.390 . S
C625 H637 0.929 . S
O626 Tb610 2.326 . S
O626 C614 1.242 . S
O627 Eu611 2.324 . S
O627 C614 1.258 . S
O628 Tb610 2.500 . S
O628 C630 1.273 . S
O629 Tb610 2.473 . S
O629 C630 1.257 . S
C630 O628 1.273 . S
C630 O629 1.257 . S
O631 Eu611 2.326 . S
O631 C619 1.242 . S
O632 Tb610 2.324 . S
O632 C619 1.258 . S
O633 Eu611 2.500 . S
O633 C616 1.273 . S
O634 Eu611 2.473 . S
O634 C616 1.257 . S
H635 C621 0.929 . S
H636 C623 0.931 . S
H637 C625 0.929 . S
O638 Tb639 2.292 . S
O638 C641 1.255 . S
Tb639 O638 2.292 . S
Tb639 O655 2.326 . S
Tb639 O657 2.500 . S
Tb639 O658 2.473 . S
Tb639 O661 2.324 . S
Eu640 O644 2.292 . S
Eu640 C645 2.852 . S
Eu640 O656 2.324 . S
Eu640 O660 2.326 . S
Eu640 O662 2.500 . S
Eu640 O663 2.473 . S
C641 O638 1.255 . S
C641 O642 1.247 . S
O642 C641 1.247 . S
C643 O655 1.242 . S
C643 O656 1.258 . S
O644 Eu640 2.292 . S
O644 C646 1.255 1_554 S
C645 Eu640 2.852 . S
C645 C649 1.503 . S
C645 O662 1.273 . S
C645 O663 1.257 . S
C646 O644 1.255 1_556 S
C646 O647 1.247 . S
O647 C646 1.247 . S
C648 O660 1.242 . S
C648 O661 1.258 . S
C649 C645 1.503 . S
C649 C650 1.379 . S
C649 C654 1.392 . S
C650 C649 1.379 . S
C650 C651 1.404 . S
C650 H664 0.929 . S
C651 C650 1.404 . S
C651 C652 1.389 . S
C652 C651 1.389 . S
C652 C653 1.399 . S
C652 H665 0.931 . S
C653 C652 1.399 . S
C653 C654 1.390 . S
C654 C649 1.392 . S
C654 C653 1.390 . S
C654 H666 0.929 . S
O655 Tb639 2.326 . S
O655 C643 1.242 . S
O656 Eu640 2.324 . S
O656 C643 1.258 . S
O657 Tb639 2.500 . S
O657 C659 1.273 . S
O658 Tb639 2.473 . S
O658 C659 1.257 . S
C659 O657 1.273 . S
C659 O658 1.257 . S
O660 Eu640 2.326 . S
O660 C648 1.242 . S
O661 Tb639 2.324 . S
O661 C648 1.258 . S
O662 Eu640 2.500 . S
O662 C645 1.273 . S
O663 Eu640 2.473 . S
O663 C645 1.257 . S
H664 C650 0.929 . S
H665 C652 0.931 . S
H666 C654 0.929 . S
O667 Tb668 2.292 . S
O667 C670 1.255 . S
Tb668 O667 2.292 . S
Tb668 O684 2.326 . S
Tb668 O686 2.500 . S
Tb668 O687 2.473 . S
Tb668 O690 2.324 . S
Eu669 O673 2.292 . S
Eu669 C674 2.852 . S
Eu669 O685 2.324 . S
Eu669 O689 2.326 . S
Eu669 O691 2.500 . S
Eu669 O692 2.473 . S
C670 O667 1.255 . S
C670 O671 1.247 . S
O671 C670 1.247 . S
C672 O684 1.242 . S
C672 O685 1.258 . S
O673 Eu669 2.292 . S
O673 C675 1.255 1_554 S
C674 Eu669 2.852 . S
C674 C678 1.503 . S
C674 O691 1.273 . S
C674 O692 1.257 . S
C675 O673 1.255 1_556 S
C675 O676 1.247 . S
O676 C675 1.247 . S
C677 O689 1.242 . S
C677 O690 1.258 . S
C678 C674 1.503 . S
C678 C679 1.379 . S
C678 C683 1.392 . S
C679 C678 1.379 . S
C679 C680 1.404 . S
C679 H693 0.929 . S
C680 C679 1.404 . S
C680 C681 1.389 . S
C681 C680 1.389 . S
C681 C682 1.399 . S
C681 H694 0.931 . S
C682 C681 1.399 . S
C682 C683 1.390 . S
C683 C678 1.392 . S
C683 C682 1.390 . S
C683 H695 0.929 . S
O684 Tb668 2.326 . S
O684 C672 1.242 . S
O685 Eu669 2.324 . S
O685 C672 1.258 . S
O686 Tb668 2.500 . S
O686 C688 1.273 . S
O687 Tb668 2.473 . S
O687 C688 1.257 . S
C688 O686 1.273 . S
C688 O687 1.257 . S
O689 Eu669 2.326 . S
O689 C677 1.242 . S
O690 Tb668 2.324 . S
O690 C677 1.258 . S
O691 Eu669 2.500 . S
O691 C674 1.273 . S
O692 Eu669 2.473 . S
O692 C674 1.257 . S
H693 C679 0.929 . S
H694 C681 0.931 . S
H695 C683 0.929 . S
O696 Tb697 2.292 . S
O696 C699 1.255 . S
Tb697 O696 2.292 . S
Tb697 O713 2.326 . S
Tb697 O715 2.500 . S
Tb697 O716 2.473 . S
Tb697 O719 2.324 . S
Eu698 O702 2.292 . S
Eu698 C703 2.852 . S
Eu698 O714 2.324 . S
Eu698 O718 2.326 . S
Eu698 O720 2.500 . S
Eu698 O721 2.473 . S
C699 O696 1.255 . S
C699 O700 1.247 . S
O700 C699 1.247 . S
C701 O713 1.242 . S
C701 O714 1.258 . S
O702 Eu698 2.292 . S
O702 C704 1.255 1_655 S
C703 Eu698 2.852 . S
C703 C707 1.503 . S
C703 O720 1.273 . S
C703 O721 1.257 . S
C704 O702 1.255 1_455 S
C704 O705 1.247 . S
O705 C704 1.247 . S
C706 O718 1.242 . S
C706 O719 1.258 . S
C707 C703 1.503 . S
C707 C708 1.379 . S
C707 C712 1.392 . S
C708 C707 1.379 . S
C708 C709 1.404 . S
C708 H722 0.929 . S
C709 C708 1.404 . S
C709 C710 1.389 . S
C710 C709 1.389 . S
C710 C711 1.399 . S
C710 H723 0.931 . S
C711 C710 1.399 . S
C711 C712 1.390 . S
C712 C707 1.392 . S
C712 C711 1.390 . S
C712 H724 0.929 . S
O713 Tb697 2.326 . S
O713 C701 1.242 . S
O714 Eu698 2.324 . S
O714 C701 1.258 . S
O715 Tb697 2.500 . S
O715 C717 1.273 . S
O716 Tb697 2.473 . S
O716 C717 1.257 . S
C717 O715 1.273 . S
C717 O716 1.257 . S
O718 Eu698 2.326 . S
O718 C706 1.242 . S
O719 Tb697 2.324 . S
O719 C706 1.258 . S
O720 Eu698 2.500 . S
O720 C703 1.273 . S
O721 Eu698 2.473 . S
O721 C703 1.257 . S
H722 C708 0.929 . S
H723 C710 0.931 . S
H724 C712 0.929 . S
O725 Tb726 2.292 . S
O725 C728 1.255 . S
Tb726 O725 2.292 . S
Tb726 O742 2.326 . S
Tb726 O744 2.500 . S
Tb726 O745 2.473 . S
Tb726 O748 2.324 . S
Eu727 O731 2.292 . S
Eu727 C732 2.852 . S
Eu727 O743 2.324 . S
Eu727 O747 2.326 . S
Eu727 O749 2.500 . S
Eu727 O750 2.473 . S
C728 O725 1.255 . S
C728 O729 1.247 . S
O729 C728 1.247 . S
C730 O742 1.242 . S
C730 O743 1.258 . S
O731 Eu727 2.292 . S
O731 C733 1.255 1_565 S
C732 Eu727 2.852 . S
C732 C736 1.503 . S
C732 O749 1.273 . S
C732 O750 1.257 . S
C733 O731 1.255 1_545 S
C733 O734 1.247 . S
O734 C733 1.247 . S
C735 O747 1.242 . S
C735 O748 1.258 . S
C736 C732 1.503 . S
C736 C737 1.379 . S
C736 C741 1.392 . S
C737 C736 1.379 . S
C737 C738 1.404 . S
C737 H751 0.929 . S
C738 C737 1.404 . S
C738 C739 1.389 . S
C739 C738 1.389 . S
C739 C740 1.399 . S
C739 H752 0.931 . S
C740 C739 1.399 . S
C740 C741 1.390 . S
C741 C736 1.392 . S
C741 C740 1.390 . S
C741 H753 0.929 . S
O742 Tb726 2.326 . S
O742 C730 1.242 . S
O743 Eu727 2.324 . S
O743 C730 1.258 . S
O744 Tb726 2.500 . S
O744 C746 1.273 . S
O745 Tb726 2.473 . S
O745 C746 1.257 . S
C746 O744 1.273 . S
C746 O745 1.257 . S
O747 Eu727 2.326 . S
O747 C735 1.242 . S
O748 Tb726 2.324 . S
O748 C735 1.258 . S
O749 Eu727 2.500 . S
O749 C732 1.273 . S
O750 Eu727 2.473 . S
O750 C732 1.257 . S
H751 C737 0.929 . S
H752 C739 0.931 . S
H753 C741 0.929 . S
O754 Tb755 2.292 . S
O754 C757 1.255 . S
Tb755 O754 2.292 . S
Tb755 O771 2.326 . S
Tb755 O773 2.500 . S
Tb755 O774 2.473 . S
Tb755 O777 2.324 . S
Eu756 O760 2.292 . S
Eu756 C761 2.852 . S
Eu756 O772 2.324 . S
Eu756 O776 2.326 . S
Eu756 O778 2.500 . S
Eu756 O779 2.473 . S
C757 O754 1.255 . S
C757 O758 1.247 . S
O758 C757 1.247 . S
C759 O771 1.242 . S
C759 O772 1.258 . S
O760 Eu756 2.292 . S
O760 C762 1.255 . S
C761 Eu756 2.852 . S
C761 C765 1.503 . S
C761 O778 1.273 . S
C761 O779 1.257 . S
C762 O760 1.255 . S
C762 O763 1.247 . S
O763 C762 1.247 . S
C764 O776 1.242 . S
C764 O777 1.258 . S
C765 C761 1.503 . S
C765 C766 1.379 . S
C765 C770 1.392 . S
C766 C765 1.379 . S
C766 C767 1.404 . S
C766 H780 0.929 . S
C767 C766 1.404 . S
C767 C768 1.389 . S
C768 C767 1.389 . S
C768 C769 1.399 . S
C768 H781 0.931 . S
C769 C768 1.399 . S
C769 C770 1.390 . S
C770 C765 1.392 . S
C770 C769 1.390 . S
C770 H782 0.929 . S
O771 Tb755 2.326 . S
O771 C759 1.242 . S
O772 Eu756 2.324 . S
O772 C759 1.258 . S
O773 Tb755 2.500 . S
O773 C775 1.273 . S
O774 Tb755 2.473 . S
O774 C775 1.257 . S
C775 O773 1.273 . S
C775 O774 1.257 . S
O776 Eu756 2.326 . S
O776 C764 1.242 . S
O777 Tb755 2.324 . S
O777 C764 1.258 . S
O778 Eu756 2.500 . S
O778 C761 1.273 . S
O779 Eu756 2.473 . S
O779 C761 1.257 . S
H780 C766 0.929 . S
H781 C768 0.931 . S
H782 C770 0.929 . S
O783 Tb784 2.292 . S
O783 C786 1.255 . S
Tb784 O783 2.292 . S
Tb784 O800 2.326 . S
Tb784 O802 2.500 . S
Tb784 O803 2.473 . S
Tb784 O806 2.324 . S
Eu785 O789 2.292 . S
Eu785 C790 2.852 . S
Eu785 O801 2.324 . S
Eu785 O805 2.326 . S
Eu785 O807 2.500 . S
Eu785 O808 2.473 . S
C786 O783 1.255 . S
C786 O787 1.247 . S
O787 C786 1.247 . S
C788 O800 1.242 . S
C788 O801 1.258 . S
O789 Eu785 2.292 . S
O789 C791 1.255 . S
C790 Eu785 2.852 . S
C790 C794 1.503 . S
C790 O807 1.273 . S
C790 O808 1.257 . S
C791 O789 1.255 . S
C791 O792 1.247 . S
O792 C791 1.247 . S
C793 O805 1.242 . S
C793 O806 1.258 . S
C794 C790 1.503 . S
C794 C795 1.379 . S
C794 C799 1.392 . S
C795 C794 1.379 . S
C795 C796 1.404 . S
C795 H809 0.929 . S
C796 C795 1.404 . S
C796 C797 1.389 . S
C797 C796 1.389 . S
C797 C798 1.399 . S
C797 H810 0.931 . S
C798 C797 1.399 . S
C798 C799 1.390 . S
C799 C794 1.392 . S
C799 C798 1.390 . S
C799 H811 0.929 . S
O800 Tb784 2.326 . S
O800 C788 1.242 . S
O801 Eu785 2.324 . S
O801 C788 1.258 . S
O802 Tb784 2.500 . S
O802 C804 1.273 . S
O803 Tb784 2.473 . S
O803 C804 1.257 . S
C804 O802 1.273 . S
C804 O803 1.257 . S
O805 Eu785 2.326 . S
O805 C793 1.242 . S
O806 Tb784 2.324 . S
O806 C793 1.258 . S
O807 Eu785 2.500 . S
O807 C790 1.273 . S
O808 Eu785 2.473 . S
O808 C790 1.257 . S
H809 C795 0.929 . S
H810 C797 0.931 . S
H811 C799 0.929 . S
O812 Tb813 2.292 . S
O812 C815 1.255 . S
Tb813 O812 2.292 . S
Tb813 O829 2.326 . S
Tb813 O831 2.500 . S
Tb813 O832 2.473 . S
Tb813 O835 2.324 . S
Eu814 O818 2.292 . S
Eu814 C819 2.852 . S
Eu814 O830 2.324 . S
Eu814 O834 2.326 . S
Eu814 O836 2.500 . S
Eu814 O837 2.473 . S
C815 O812 1.255 . S
C815 O816 1.247 . S
O816 C815 1.247 . S
C817 O829 1.242 . S
C817 O830 1.258 . S
O818 Eu814 2.292 . S
O818 C820 1.255 1_655 S
C819 Eu814 2.852 . S
C819 C823 1.503 . S
C819 O836 1.273 . S
C819 O837 1.257 . S
C820 O818 1.255 1_455 S
C820 O821 1.247 . S
O821 C820 1.247 . S
C822 O834 1.242 . S
C822 O835 1.258 . S
C823 C819 1.503 . S
C823 C824 1.379 . S
C823 C828 1.392 . S
C824 C823 1.379 . S
C824 C825 1.404 . S
C824 H838 0.929 . S
C825 C824 1.404 . S
C825 C826 1.389 . S
C826 C825 1.389 . S
C826 C827 1.399 . S
C826 H839 0.931 . S
C827 C826 1.399 . S
C827 C828 1.390 . S
C828 C823 1.392 . S
C828 C827 1.390 . S
C828 H840 0.929 . S
O829 Tb813 2.326 . S
O829 C817 1.242 . S
O830 Eu814 2.324 . S
O830 C817 1.258 . S
O831 Tb813 2.500 . S
O831 C833 1.273 . S
O832 Tb813 2.473 . S
O832 C833 1.257 . S
C833 O831 1.273 . S
C833 O832 1.257 . S
O834 Eu814 2.326 . S
O834 C822 1.242 . S
O835 Tb813 2.324 . S
O835 C822 1.258 . S
O836 Eu814 2.500 . S
O836 C819 1.273 . S
O837 Eu814 2.473 . S
O837 C819 1.257 . S
H838 C824 0.929 . S
H839 C826 0.931 . S
H840 C828 0.929 . S
O841 Tb842 2.292 . S
O841 C844 1.255 . S
Tb842 O841 2.292 . S
Tb842 O858 2.326 . S
Tb842 O860 2.500 . S
Tb842 O861 2.473 . S
Tb842 O864 2.324 . S
Eu843 O847 2.292 . S
Eu843 C848 2.852 . S
Eu843 O859 2.324 . S
Eu843 O863 2.326 . S
Eu843 O865 2.500 . S
Eu843 O866 2.473 . S
C844 O841 1.255 . S
C844 O845 1.247 . S
O845 C844 1.247 . S
C846 O858 1.242 . S
C846 O859 1.258 . S
O847 Eu843 2.292 . S
O847 C849 1.255 1_565 S
C848 Eu843 2.852 . S
C848 C852 1.503 . S
C848 O865 1.273 . S
C848 O866 1.257 . S
C849 O847 1.255 1_545 S
C849 O850 1.247 . S
O850 C849 1.247 . S
C851 O863 1.242 . S
C851 O864 1.258 . S
C852 C848 1.503 . S
C852 C853 1.379 . S
C852 C857 1.392 . S
C853 C852 1.379 . S
C853 C854 1.404 . S
C853 H867 0.929 . S
C854 C853 1.404 . S
C854 C855 1.389 . S
C855 C854 1.389 . S
C855 C856 1.399 . S
C855 H868 0.931 . S
C856 C855 1.399 . S
C856 C857 1.390 . S
C857 C852 1.392 . S
C857 C856 1.390 . S
C857 H869 0.929 . S
O858 Tb842 2.326 . S
O858 C846 1.242 . S
O859 Eu843 2.324 . S
O859 C846 1.258 . S
O860 Tb842 2.500 . S
O860 C862 1.273 . S
O861 Tb842 2.473 . S
O861 C862 1.257 . S
C862 O860 1.273 . S
C862 O861 1.257 . S
O863 Eu843 2.326 . S
O863 C851 1.242 . S
O864 Tb842 2.324 . S
O864 C851 1.258 . S
O865 Eu843 2.500 . S
O865 C848 1.273 . S
O866 Eu843 2.473 . S
O866 C848 1.257 . S
H867 C853 0.929 . S
H868 C855 0.931 . S
H869 C857 0.929 . S
O870 Tb871 2.292 . S
O870 C873 1.255 . S
Tb871 O870 2.292 . S
Tb871 O887 2.326 . S
Tb871 O889 2.500 . S
Tb871 O890 2.473 . S
Tb871 O893 2.324 . S
Eu872 O876 2.292 . S
Eu872 C877 2.852 . S
Eu872 O888 2.324 . S
Eu872 O892 2.326 . S
Eu872 O894 2.500 . S
Eu872 O895 2.473 . S
C873 O870 1.255 . S
C873 O874 1.247 . S
O874 C873 1.247 . S
C875 O887 1.242 . S
C875 O888 1.258 . S
O876 Eu872 2.292 . S
O876 C878 1.255 . S
C877 Eu872 2.852 . S
C877 C881 1.503 . S
C877 O894 1.273 . S
C877 O895 1.257 . S
C878 O876 1.255 . S
C878 O879 1.247 . S
O879 C878 1.247 . S
C880 O892 1.242 . S
C880 O893 1.258 . S
C881 C877 1.503 . S
C881 C882 1.379 . S
C881 C886 1.392 . S
C882 C881 1.379 . S
C882 C883 1.404 . S
C882 H896 0.929 . S
C883 C882 1.404 . S
C883 C884 1.389 . S
C884 C883 1.389 . S
C884 C885 1.399 . S
C884 H897 0.931 . S
C885 C884 1.399 . S
C885 C886 1.390 . S
C886 C881 1.392 . S
C886 C885 1.390 . S
C886 H898 0.929 . S
O887 Tb871 2.326 . S
O887 C875 1.242 . S
O888 Eu872 2.324 . S
O888 C875 1.258 . S
O889 Tb871 2.500 . S
O889 C891 1.273 . S
O890 Tb871 2.473 . S
O890 C891 1.257 . S
C891 O889 1.273 . S
C891 O890 1.257 . S
O892 Eu872 2.326 . S
O892 C880 1.242 . S
O893 Tb871 2.324 . S
O893 C880 1.258 . S
O894 Eu872 2.500 . S
O894 C877 1.273 . S
O895 Eu872 2.473 . S
O895 C877 1.257 . S
H896 C882 0.929 . S
H897 C884 0.931 . S
H898 C886 0.929 . S
O899 Tb900 2.292 . S
O899 C902 1.255 . S
Tb900 O899 2.292 . S
Tb900 O916 2.326 . S
Tb900 O918 2.500 . S
Tb900 O919 2.473 . S
Tb900 O922 2.324 . S
Eu901 O905 2.292 . S
Eu901 C906 2.852 . S
Eu901 O917 2.324 . S
Eu901 O921 2.326 . S
Eu901 O923 2.500 . S
Eu901 O924 2.473 . S
C902 O899 1.255 . S
C902 O903 1.247 . S
O903 C902 1.247 . S
C904 O916 1.242 . S
C904 O917 1.258 . S
O905 Eu901 2.292 . S
O905 C907 1.255 . S
C906 Eu901 2.852 . S
C906 C910 1.503 . S
C906 O923 1.273 . S
C906 O924 1.257 . S
C907 O905 1.255 . S
C907 O908 1.247 . S
O908 C907 1.247 . S
C909 O921 1.242 . S
C909 O922 1.258 . S
C910 C906 1.503 . S
C910 C911 1.379 . S
C910 C915 1.392 . S
C911 C910 1.379 . S
C911 C912 1.404 . S
C911 H925 0.929 . S
C912 C911 1.404 . S
C912 C913 1.389 . S
C913 C912 1.389 . S
C913 C914 1.399 . S
C913 H926 0.931 . S
C914 C913 1.399 . S
C914 C915 1.390 . S
C915 C910 1.392 . S
C915 C914 1.390 . S
C915 H927 0.929 . S
O916 Tb900 2.326 . S
O916 C904 1.242 . S
O917 Eu901 2.324 . S
O917 C904 1.258 . S
O918 Tb900 2.500 . S
O918 C920 1.273 . S
O919 Tb900 2.473 . S
O919 C920 1.257 . S
C920 O918 1.273 . S
C920 O919 1.257 . S
O921 Eu901 2.326 . S
O921 C909 1.242 . S
O922 Tb900 2.324 . S
O922 C909 1.258 . S
O923 Eu901 2.500 . S
O923 C906 1.273 . S
O924 Eu901 2.473 . S
O924 C906 1.257 . S
H925 C911 0.929 . S
H926 C913 0.931 . S
H927 C915 0.929 . S
O928 Tb929 2.292 . S
O928 C931 1.255 . S
Tb929 O928 2.292 . S
Tb929 O945 2.326 . S
Tb929 O947 2.500 . S
Tb929 O948 2.473 . S
Tb929 O951 2.324 . S
Eu930 O934 2.292 . S
Eu930 C935 2.852 . S
Eu930 O946 2.324 . S
Eu930 O950 2.326 . S
Eu930 O952 2.500 . S
Eu930 O953 2.473 . S
C931 O928 1.255 . S
C931 O932 1.247 . S
O932 C931 1.247 . S
C933 O945 1.242 . S
C933 O946 1.258 . S
O934 Eu930 2.292 . S
O934 C936 1.255 1_565 S
C935 Eu930 2.852 . S
C935 C939 1.503 . S
C935 O952 1.273 . S
C935 O953 1.257 . S
C936 O934 1.255 1_545 S
C936 O937 1.247 . S
O937 C936 1.247 . S
C938 O950 1.242 . S
C938 O951 1.258 . S
C939 C935 1.503 . S
C939 C940 1.379 . S
C939 C944 1.392 . S
C940 C939 1.379 . S
C940 C941 1.404 . S
C940 H954 0.929 . S
C941 C940 1.404 . S
C941 C942 1.389 . S
C942 C941 1.389 . S
C942 C943 1.399 . S
C942 H955 0.931 . S
C943 C942 1.399 . S
C943 C944 1.390 . S
C944 C939 1.392 . S
C944 C943 1.390 . S
C944 H956 0.929 . S
O945 Tb929 2.326 . S
O945 C933 1.242 . S
O946 Eu930 2.324 . S
O946 C933 1.258 . S
O947 Tb929 2.500 . S
O947 C949 1.273 . S
O948 Tb929 2.473 . S
O948 C949 1.257 . S
C949 O947 1.273 . S
C949 O948 1.257 . S
O950 Eu930 2.326 . S
O950 C938 1.242 . S
O951 Tb929 2.324 . S
O951 C938 1.258 . S
O952 Eu930 2.500 . S
O952 C935 1.273 . S
O953 Eu930 2.473 . S
O953 C935 1.257 . S
H954 C940 0.929 . S
H955 C942 0.931 . S
H956 C944 0.929 . S
O957 Tb958 2.292 . S
O957 C960 1.255 . S
Tb958 O957 2.292 . S
Tb958 O974 2.326 . S
Tb958 O976 2.500 . S
Tb958 O977 2.473 . S
Tb958 O980 2.324 . S
Eu959 O963 2.292 . S
Eu959 C964 2.852 . S
Eu959 O975 2.324 . S
Eu959 O979 2.326 . S
Eu959 O981 2.500 . S
Eu959 O982 2.473 . S
C960 O957 1.255 . S
C960 O961 1.247 . S
O961 C960 1.247 . S
C962 O974 1.242 . S
C962 O975 1.258 . S
O963 Eu959 2.292 . S
O963 C965 1.255 . S
C964 Eu959 2.852 . S
C964 C968 1.503 . S
C964 O981 1.273 . S
C964 O982 1.257 . S
C965 O963 1.255 . S
C965 O966 1.247 . S
O966 C965 1.247 . S
C967 O979 1.242 . S
C967 O980 1.258 . S
C968 C964 1.503 . S
C968 C969 1.379 . S
C968 C973 1.392 . S
C969 C968 1.379 . S
C969 C970 1.404 . S
C969 H983 0.929 . S
C970 C969 1.404 . S
C970 C971 1.389 . S
C971 C970 1.389 . S
C971 C972 1.399 . S
C971 H984 0.931 . S
C972 C971 1.399 . S
C972 C973 1.390 . S
C973 C968 1.392 . S
C973 C972 1.390 . S
C973 H985 0.929 . S
O974 Tb958 2.326 . S
O974 C962 1.242 . S
O975 Eu959 2.324 . S
O975 C962 1.258 . S
O976 Tb958 2.500 . S
O976 C978 1.273 . S
O977 Tb958 2.473 . S
O977 C978 1.257 . S
C978 O976 1.273 . S
C978 O977 1.257 . S
O979 Eu959 2.326 . S
O979 C967 1.242 . S
O980 Tb958 2.324 . S
O980 C967 1.258 . S
O981 Eu959 2.500 . S
O981 C964 1.273 . S
O982 Eu959 2.473 . S
O982 C964 1.257 . S
H983 C969 0.929 . S
H984 C971 0.931 . S
H985 C973 0.929 . S
O986 Tb987 2.292 . S
O986 C989 1.255 . S
Tb987 O986 2.292 . S
Tb987 O1003 2.326 . S
Tb987 O1005 2.500 . S
Tb987 O1006 2.473 . S
Tb987 O1009 2.324 . S
Eu988 O992 2.292 . S
Eu988 C993 2.852 . S
Eu988 O1004 2.324 . S
Eu988 O1008 2.326 . S
Eu988 O1010 2.500 . S
Eu988 O1011 2.473 . S
C989 O986 1.255 . S
C989 O990 1.247 . S
O990 C989 1.247 . S
C991 O1003 1.242 . S
C991 O1004 1.258 . S
O992 Eu988 2.292 . S
O992 C994 1.255 . S
C993 Eu988 2.852 . S
C993 C997 1.503 . S
C993 O1010 1.273 . S
C993 O1011 1.257 . S
C994 O992 1.255 . S
C994 O995 1.247 . S
O995 C994 1.247 . S
C996 O1008 1.242 . S
C996 O1009 1.258 . S
C997 C993 1.503 . S
C997 C998 1.379 . S
C997 C1002 1.392 . S
C998 C997 1.379 . S
C998 C999 1.404 . S
C998 H1012 0.929 . S
C999 C998 1.404 . S
C999 C1000 1.389 . S
C1000 C999 1.389 . S
C1000 C1001 1.399 . S
C1000 H1013 0.931 . S
C1001 C1000 1.399 . S
C1001 C1002 1.390 . S
C1002 C997 1.392 . S
C1002 C1001 1.390 . S
C1002 H1014 0.929 . S
O1003 Tb987 2.326 . S
O1003 C991 1.242 . S
O1004 Eu988 2.324 . S
O1004 C991 1.258 . S
O1005 Tb987 2.500 . S
O1005 C1007 1.273 . S
O1006 Tb987 2.473 . S
O1006 C1007 1.257 . S
C1007 O1005 1.273 . S
C1007 O1006 1.257 . S
O1008 Eu988 2.326 . S
O1008 C996 1.242 . S
O1009 Tb987 2.324 . S
O1009 C996 1.258 . S
O1010 Eu988 2.500 . S
O1010 C993 1.273 . S
O1011 Eu988 2.473 . S
O1011 C993 1.257 . S
H1012 C998 0.929 . S
H1013 C1000 0.931 . S
H1014 C1002 0.929 . S
O1015 Tb1016 2.292 . S
O1015 C1018 1.255 . S
Tb1016 O1015 2.292 . S
Tb1016 O1032 2.326 . S
Tb1016 O1034 2.500 . S
Tb1016 O1035 2.473 . S
Tb1016 O1038 2.324 . S
Eu1017 O1021 2.292 . S
Eu1017 C1022 2.852 . S
Eu1017 O1033 2.324 . S
Eu1017 O1037 2.326 . S
Eu1017 O1039 2.500 . S
Eu1017 O1040 2.473 . S
C1018 O1015 1.255 . S
C1018 O1019 1.247 . S
O1019 C1018 1.247 . S
C1020 O1032 1.242 . S
C1020 O1033 1.258 . S
O1021 Eu1017 2.292 . S
O1021 C1023 1.255 1_655 S
C1022 Eu1017 2.852 . S
C1022 C1026 1.503 . S
C1022 O1039 1.273 . S
C1022 O1040 1.257 . S
C1023 O1021 1.255 1_455 S
C1023 O1024 1.247 . S
O1024 C1023 1.247 . S
C1025 O1037 1.242 . S
C1025 O1038 1.258 . S
C1026 C1022 1.503 . S
C1026 C1027 1.379 . S
C1026 C1031 1.392 . S
C1027 C1026 1.379 . S
C1027 C1028 1.404 . S
C1027 H1041 0.929 . S
C1028 C1027 1.404 . S
C1028 C1029 1.389 . S
C1029 C1028 1.389 . S
C1029 C1030 1.399 . S
C1029 H1042 0.931 . S
C1030 C1029 1.399 . S
C1030 C1031 1.390 . S
C1031 C1026 1.392 . S
C1031 C1030 1.390 . S
C1031 H1043 0.929 . S
O1032 Tb1016 2.326 . S
O1032 C1020 1.242 . S
O1033 Eu1017 2.324 . S
O1033 C1020 1.258 . S
O1034 Tb1016 2.500 . S
O1034 C1036 1.273 . S
O1035 Tb1016 2.473 . S
O1035 C1036 1.257 . S
C1036 O1034 1.273 . S
C1036 O1035 1.257 . S
O1037 Eu1017 2.326 . S
O1037 C1025 1.242 . S
O1038 Tb1016 2.324 . S
O1038 C1025 1.258 . S
O1039 Eu1017 2.500 . S
O1039 C1022 1.273 . S
O1040 Eu1017 2.473 . S
O1040 C1022 1.257 . S
H1041 C1027 0.929 . S
H1042 C1029 0.931 . S
H1043 C1031 0.929 . S
O1044 Tb1045 2.292 . S
O1044 C1047 1.255 . S
Tb1045 O1044 2.292 . S
Tb1045 O1061 2.326 . S
Tb1045 O1063 2.500 . S
Tb1045 O1064 2.473 . S
Tb1045 O1067 2.324 . S
Eu1046 O1050 2.292 . S
Eu1046 C1051 2.852 . S
Eu1046 O1062 2.324 . S
Eu1046 O1066 2.326 . S
Eu1046 O1068 2.500 . S
Eu1046 O1069 2.473 . S
C1047 O1044 1.255 . S
C1047 O1048 1.247 . S
O1048 C1047 1.247 . S
C1049 O1061 1.242 . S
C1049 O1062 1.258 . S
O1050 Eu1046 2.292 . S
O1050 C1052 1.255 . S
C1051 Eu1046 2.852 . S
C1051 C1055 1.503 . S
C1051 O1068 1.273 . S
C1051 O1069 1.257 . S
C1052 O1050 1.255 . S
C1052 O1053 1.247 . S
O1053 C1052 1.247 . S
C1054 O1066 1.242 . S
C1054 O1067 1.258 . S
C1055 C1051 1.503 . S
C1055 C1056 1.379 . S
C1055 C1060 1.392 . S
C1056 C1055 1.379 . S
C1056 C1057 1.404 . S
C1056 H1070 0.929 . S
C1057 C1056 1.404 . S
C1057 C1058 1.389 . S
C1058 C1057 1.389 . S
C1058 C1059 1.399 . S
C1058 H1071 0.931 . S
C1059 C1058 1.399 . S
C1059 C1060 1.390 . S
C1060 C1055 1.392 . S
C1060 C1059 1.390 . S
C1060 H1072 0.929 . S
O1061 Tb1045 2.326 . S
O1061 C1049 1.242 . S
O1062 Eu1046 2.324 . S
O1062 C1049 1.258 . S
O1063 Tb1045 2.500 . S
O1063 C1065 1.273 . S
O1064 Tb1045 2.473 . S
O1064 C1065 1.257 . S
C1065 O1063 1.273 . S
C1065 O1064 1.257 . S
O1066 Eu1046 2.326 . S
O1066 C1054 1.242 . S
O1067 Tb1045 2.324 . S
O1067 C1054 1.258 . S
O1068 Eu1046 2.500 . S
O1068 C1051 1.273 . S
O1069 Eu1046 2.473 . S
O1069 C1051 1.257 . S
H1070 C1056 0.929 . S
H1071 C1058 0.931 . S
H1072 C1060 0.929 . S
O1073 Tb1074 2.292 . S
O1073 C1076 1.255 . S
Tb1074 O1073 2.292 . S
Tb1074 O1090 2.326 . S
Tb1074 O1092 2.500 . S
Tb1074 O1093 2.473 . S
Tb1074 O1096 2.324 . S
Eu1075 O1079 2.292 . S
Eu1075 C1080 2.852 . S
Eu1075 O1091 2.324 . S
Eu1075 O1095 2.326 . S
Eu1075 O1097 2.500 . S
Eu1075 O1098 2.473 . S
C1076 O1073 1.255 . S
C1076 O1077 1.247 . S
O1077 C1076 1.247 . S
C1078 O1090 1.242 . S
C1078 O1091 1.258 . S
O1079 Eu1075 2.292 . S
O1079 C1081 1.255 1_655 S
C1080 Eu1075 2.852 . S
C1080 C1084 1.503 . S
C1080 O1097 1.273 . S
C1080 O1098 1.257 . S
C1081 O1079 1.255 1_455 S
C1081 O1082 1.247 . S
O1082 C1081 1.247 . S
C1083 O1095 1.242 . S
C1083 O1096 1.258 . S
C1084 C1080 1.503 . S
C1084 C1085 1.379 . S
C1084 C1089 1.392 . S
C1085 C1084 1.379 . S
C1085 C1086 1.404 . S
C1085 H1099 0.929 . S
C1086 C1085 1.404 . S
C1086 C1087 1.389 . S
C1087 C1086 1.389 . S
C1087 C1088 1.399 . S
C1087 H1100 0.931 . S
C1088 C1087 1.399 . S
C1088 C1089 1.390 . S
C1089 C1084 1.392 . S
C1089 C1088 1.390 . S
C1089 H1101 0.929 . S
O1090 Tb1074 2.326 . S
O1090 C1078 1.242 . S
O1091 Eu1075 2.324 . S
O1091 C1078 1.258 . S
O1092 Tb1074 2.500 . S
O1092 C1094 1.273 . S
O1093 Tb1074 2.473 . S
O1093 C1094 1.257 . S
C1094 O1092 1.273 . S
C1094 O1093 1.257 . S
O1095 Eu1075 2.326 . S
O1095 C1083 1.242 . S
O1096 Tb1074 2.324 . S
O1096 C1083 1.258 . S
O1097 Eu1075 2.500 . S
O1097 C1080 1.273 . S
O1098 Eu1075 2.473 . S
O1098 C1080 1.257 . S
H1099 C1085 0.929 . S
H1100 C1087 0.931 . S
H1101 C1089 0.929 . S
O1102 Tb1103 2.292 . S
O1102 C1105 1.255 . S
Tb1103 O1102 2.292 . S
Tb1103 O1119 2.326 . S
Tb1103 O1121 2.500 . S
Tb1103 O1122 2.473 . S
Tb1103 O1125 2.324 . S
Eu1104 O1108 2.292 . S
Eu1104 C1109 2.852 . S
Eu1104 O1120 2.324 . S
Eu1104 O1124 2.326 . S
Eu1104 O1126 2.500 . S
Eu1104 O1127 2.473 . S
C1105 O1102 1.255 . S
C1105 O1106 1.247 . S
O1106 C1105 1.247 . S
C1107 O1119 1.242 . S
C1107 O1120 1.258 . S
O1108 Eu1104 2.292 . S
O1108 C1110 1.255 1_565 S
C1109 Eu1104 2.852 . S
C1109 C1113 1.503 . S
C1109 O1126 1.273 . S
C1109 O1127 1.257 . S
C1110 O1108 1.255 1_545 S
C1110 O1111 1.247 . S
O1111 C1110 1.247 . S
C1112 O1124 1.242 . S
C1112 O1125 1.258 . S
C1113 C1109 1.503 . S
C1113 C1114 1.379 . S
C1113 C1118 1.392 . S
C1114 C1113 1.379 . S
C1114 C1115 1.404 . S
C1114 H1128 0.929 . S
C1115 C1114 1.404 . S
C1115 C1116 1.389 . S
C1116 C1115 1.389 . S
C1116 C1117 1.399 . S
C1116 H1129 0.931 . S
C1117 C1116 1.399 . S
C1117 C1118 1.390 . S
C1118 C1113 1.392 . S
C1118 C1117 1.390 . S
C1118 H1130 0.929 . S
O1119 Tb1103 2.326 . S
O1119 C1107 1.242 . S
O1120 Eu1104 2.324 . S
O1120 C1107 1.258 . S
O1121 Tb1103 2.500 . S
O1121 C1123 1.273 . S
O1122 Tb1103 2.473 . S
O1122 C1123 1.257 . S
C1123 O1121 1.273 . S
C1123 O1122 1.257 . S
O1124 Eu1104 2.326 . S
O1124 C1112 1.242 . S
O1125 Tb1103 2.324 . S
O1125 C1112 1.258 . S
O1126 Eu1104 2.500 . S
O1126 C1109 1.273 . S
O1127 Eu1104 2.473 . S
O1127 C1109 1.257 . S
H1128 C1114 0.929 . S
H1129 C1116 0.931 . S
H1130 C1118 0.929 . S
O1131 Tb1132 2.292 . S
O1131 C1134 1.255 . S
Tb1132 O1131 2.292 . S
Tb1132 O1148 2.326 . S
Tb1132 O1150 2.500 . S
Tb1132 O1151 2.473 . S
Tb1132 O1154 2.324 . S
Eu1133 O1137 2.292 . S
Eu1133 C1138 2.852 . S
Eu1133 O1149 2.324 . S
Eu1133 O1153 2.326 . S
Eu1133 O1155 2.500 . S
Eu1133 O1156 2.473 . S
C1134 O1131 1.255 . S
C1134 O1135 1.247 . S
O1135 C1134 1.247 . S
C1136 O1148 1.242 . S
C1136 O1149 1.258 . S
O1137 Eu1133 2.292 . S
O1137 C1139 1.255 . S
C1138 Eu1133 2.852 . S
C1138 C1142 1.503 . S
C1138 O1155 1.273 . S
C1138 O1156 1.257 . S
C1139 O1137 1.255 . S
C1139 O1140 1.247 . S
O1140 C1139 1.247 . S
C1141 O1153 1.242 . S
C1141 O1154 1.258 . S
C1142 C1138 1.503 . S
C1142 C1143 1.379 . S
C1142 C1147 1.392 . S
C1143 C1142 1.379 . S
C1143 C1144 1.404 . S
C1143 H1157 0.929 . S
C1144 C1143 1.404 . S
C1144 C1145 1.389 . S
C1145 C1144 1.389 . S
C1145 C1146 1.399 . S
C1145 H1158 0.931 . S
C1146 C1145 1.399 . S
C1146 C1147 1.390 . S
C1147 C1142 1.392 . S
C1147 C1146 1.390 . S
C1147 H1159 0.929 . S
O1148 Tb1132 2.326 . S
O1148 C1136 1.242 . S
O1149 Eu1133 2.324 . S
O1149 C1136 1.258 . S
O1150 Tb1132 2.500 . S
O1150 C1152 1.273 . S
O1151 Tb1132 2.473 . S
O1151 C1152 1.257 . S
C1152 O1150 1.273 . S
C1152 O1151 1.257 . S
O1153 Eu1133 2.326 . S
O1153 C1141 1.242 . S
O1154 Tb1132 2.324 . S
O1154 C1141 1.258 . S
O1155 Eu1133 2.500 . S
O1155 C1138 1.273 . S
O1156 Eu1133 2.473 . S
O1156 C1138 1.257 . S
H1157 C1143 0.929 . S
H1158 C1145 0.931 . S
H1159 C1147 0.929 . S
O1160 Tb1161 2.292 . S
O1160 C1163 1.255 . S
Tb1161 O1160 2.292 . S
Tb1161 O1177 2.326 . S
Tb1161 O1179 2.500 . S
Tb1161 O1180 2.473 . S
Tb1161 O1183 2.324 . S
Eu1162 O1166 2.292 . S
Eu1162 C1167 2.852 . S
Eu1162 O1178 2.324 . S
Eu1162 O1182 2.326 . S
Eu1162 O1184 2.500 . S
Eu1162 O1185 2.473 . S
C1163 O1160 1.255 . S
C1163 O1164 1.247 . S
O1164 C1163 1.247 . S
C1165 O1177 1.242 . S
C1165 O1178 1.258 . S
O1166 Eu1162 2.292 . S
O1166 C1168 1.255 1_556 S
C1167 Eu1162 2.852 . S
C1167 C1171 1.503 . S
C1167 O1184 1.273 . S
C1167 O1185 1.257 . S
C1168 O1166 1.255 1_554 S
C1168 O1169 1.247 . S
O1169 C1168 1.247 . S
C1170 O1182 1.242 . S
C1170 O1183 1.258 . S
C1171 C1167 1.503 . S
C1171 C1172 1.379 . S
C1171 C1176 1.392 . S
C1172 C1171 1.379 . S
C1172 C1173 1.404 . S
C1172 H1186 0.929 . S
C1173 C1172 1.404 . S
C1173 C1174 1.389 . S
C1174 C1173 1.389 . S
C1174 C1175 1.399 . S
C1174 H1187 0.931 . S
C1175 C1174 1.399 . S
C1175 C1176 1.390 . S
C1176 C1171 1.392 . S
C1176 C1175 1.390 . S
C1176 H1188 0.929 . S
O1177 Tb1161 2.326 . S
O1177 C1165 1.242 . S
O1178 Eu1162 2.324 . S
O1178 C1165 1.258 . S
O1179 Tb1161 2.500 . S
O1179 C1181 1.273 . S
O1180 Tb1161 2.473 . S
O1180 C1181 1.257 . S
C1181 O1179 1.273 . S
C1181 O1180 1.257 . S
O1182 Eu1162 2.326 . S
O1182 C1170 1.242 . S
O1183 Tb1161 2.324 . S
O1183 C1170 1.258 . S
O1184 Eu1162 2.500 . S
O1184 C1167 1.273 . S
O1185 Eu1162 2.473 . S
O1185 C1167 1.257 . S
H1186 C1172 0.929 . S
H1187 C1174 0.931 . S
H1188 C1176 0.929 . S
O1189 Tb1190 2.292 . S
O1189 C1192 1.255 . S
Tb1190 O1189 2.292 . S
Tb1190 O1206 2.326 . S
Tb1190 O1208 2.500 . S
Tb1190 O1209 2.473 . S
Tb1190 O1212 2.324 . S
Eu1191 O1195 2.292 . S
Eu1191 C1196 2.852 . S
Eu1191 O1207 2.324 . S
Eu1191 O1211 2.326 . S
Eu1191 O1213 2.500 . S
Eu1191 O1214 2.473 . S
C1192 O1189 1.255 . S
C1192 O1193 1.247 . S
O1193 C1192 1.247 . S
C1194 O1206 1.242 . S
C1194 O1207 1.258 . S
O1195 Eu1191 2.292 . S
O1195 C1197 1.255 . S
C1196 Eu1191 2.852 . S
C1196 C1200 1.503 . S
C1196 O1213 1.273 . S
C1196 O1214 1.257 . S
C1197 O1195 1.255 . S
C1197 O1198 1.247 . S
O1198 C1197 1.247 . S
C1199 O1211 1.242 . S
C1199 O1212 1.258 . S
C1200 C1196 1.503 . S
C1200 C1201 1.379 . S
C1200 C1205 1.392 . S
C1201 C1200 1.379 . S
C1201 C1202 1.404 . S
C1201 H1215 0.929 . S
C1202 C1201 1.404 . S
C1202 C1203 1.389 . S
C1203 C1202 1.389 . S
C1203 C1204 1.399 . S
C1203 H1216 0.931 . S
C1204 C1203 1.399 . S
C1204 C1205 1.390 . S
C1205 C1200 1.392 . S
C1205 C1204 1.390 . S
C1205 H1217 0.929 . S
O1206 Tb1190 2.326 . S
O1206 C1194 1.242 . S
O1207 Eu1191 2.324 . S
O1207 C1194 1.258 . S
O1208 Tb1190 2.500 . S
O1208 C1210 1.273 . S
O1209 Tb1190 2.473 . S
O1209 C1210 1.257 . S
C1210 O1208 1.273 . S
C1210 O1209 1.257 . S
O1211 Eu1191 2.326 . S
O1211 C1199 1.242 . S
O1212 Tb1190 2.324 . S
O1212 C1199 1.258 . S
O1213 Eu1191 2.500 . S
O1213 C1196 1.273 . S
O1214 Eu1191 2.473 . S
O1214 C1196 1.257 . S
H1215 C1201 0.929 . S
H1216 C1203 0.931 . S
H1217 C1205 0.929 . S
O1218 Tb1219 2.292 . S
O1218 C1221 1.255 . S
Tb1219 O1218 2.292 . S
Tb1219 O1235 2.326 . S
Tb1219 O1237 2.500 . S
Tb1219 O1238 2.473 . S
Tb1219 O1241 2.324 . S
Eu1220 O1224 2.292 . S
Eu1220 C1225 2.852 . S
Eu1220 O1236 2.324 . S
Eu1220 O1240 2.326 . S
Eu1220 O1242 2.500 . S
Eu1220 O1243 2.473 . S
C1221 O1218 1.255 . S
C1221 O1222 1.247 . S
O1222 C1221 1.247 . S
C1223 O1235 1.242 . S
C1223 O1236 1.258 . S
O1224 Eu1220 2.292 . S
O1224 C1226 1.255 . S
C1225 Eu1220 2.852 . S
C1225 C1229 1.503 . S
C1225 O1242 1.273 . S
C1225 O1243 1.257 . S
C1226 O1224 1.255 . S
C1226 O1227 1.247 . S
O1227 C1226 1.247 . S
C1228 O1240 1.242 . S
C1228 O1241 1.258 . S
C1229 C1225 1.503 . S
C1229 C1230 1.379 . S
C1229 C1234 1.392 . S
C1230 C1229 1.379 . S
C1230 C1231 1.404 . S
C1230 H1244 0.929 . S
C1231 C1230 1.404 . S
C1231 C1232 1.389 . S
C1232 C1231 1.389 . S
C1232 C1233 1.399 . S
C1232 H1245 0.931 . S
C1233 C1232 1.399 . S
C1233 C1234 1.390 . S
C1234 C1229 1.392 . S
C1234 C1233 1.390 . S
C1234 H1246 0.929 . S
O1235 Tb1219 2.326 . S
O1235 C1223 1.242 . S
O1236 Eu1220 2.324 . S
O1236 C1223 1.258 . S
O1237 Tb1219 2.500 . S
O1237 C1239 1.273 . S
O1238 Tb1219 2.473 . S
O1238 C1239 1.257 . S
C1239 O1237 1.273 . S
C1239 O1238 1.257 . S
O1240 Eu1220 2.326 . S
O1240 C1228 1.242 . S
O1241 Tb1219 2.324 . S
O1241 C1228 1.258 . S
O1242 Eu1220 2.500 . S
O1242 C1225 1.273 . S
O1243 Eu1220 2.473 . S
O1243 C1225 1.257 . S
H1244 C1230 0.929 . S
H1245 C1232 0.931 . S
H1246 C1234 0.929 . S
O1247 Tb1248 2.292 . S
O1247 C1250 1.255 . S
Tb1248 O1247 2.292 . S
Tb1248 O1264 2.326 . S
Tb1248 O1266 2.500 . S
Tb1248 O1267 2.473 . S
Tb1248 O1270 2.324 . S
Eu1249 O1253 2.292 . S
Eu1249 C1254 2.852 . S
Eu1249 O1265 2.324 . S
Eu1249 O1269 2.326 . S
Eu1249 O1271 2.500 . S
Eu1249 O1272 2.473 . S
C1250 O1247 1.255 . S
C1250 O1251 1.247 . S
O1251 C1250 1.247 . S
C1252 O1264 1.242 . S
C1252 O1265 1.258 . S
O1253 Eu1249 2.292 . S
O1253 C1255 1.255 . S
C1254 Eu1249 2.852 . S
C1254 C1258 1.503 . S
C1254 O1271 1.273 . S
C1254 O1272 1.257 . S
C1255 O1253 1.255 . S
C1255 O1256 1.247 . S
O1256 C1255 1.247 . S
C1257 O1269 1.242 . S
C1257 O1270 1.258 . S
C1258 C1254 1.503 . S
C1258 C1259 1.379 . S
C1258 C1263 1.392 . S
C1259 C1258 1.379 . S
C1259 C1260 1.404 . S
C1259 H1273 0.929 . S
C1260 C1259 1.404 . S
C1260 C1261 1.389 . S
C1261 C1260 1.389 . S
C1261 C1262 1.399 . S
C1261 H1274 0.931 . S
C1262 C1261 1.399 . S
C1262 C1263 1.390 . S
C1263 C1258 1.392 . S
C1263 C1262 1.390 . S
C1263 H1275 0.929 . S
O1264 Tb1248 2.326 . S
O1264 C1252 1.242 . S
O1265 Eu1249 2.324 . S
O1265 C1252 1.258 . S
O1266 Tb1248 2.500 . S
O1266 C1268 1.273 . S
O1267 Tb1248 2.473 . S
O1267 C1268 1.257 . S
C1268 O1266 1.273 . S
C1268 O1267 1.257 . S
O1269 Eu1249 2.326 . S
O1269 C1257 1.242 . S
O1270 Tb1248 2.324 . S
O1270 C1257 1.258 . S
O1271 Eu1249 2.500 . S
O1271 C1254 1.273 . S
O1272 Eu1249 2.473 . S
O1272 C1254 1.257 . S
H1273 C1259 0.929 . S
H1274 C1261 0.931 . S
H1275 C1263 0.929 . S
O1276 Tb1277 2.292 . S
O1276 C1279 1.255 . S
Tb1277 O1276 2.292 . S
Tb1277 O1293 2.326 . S
Tb1277 O1295 2.500 . S
Tb1277 O1296 2.473 . S
Tb1277 O1299 2.324 . S
Eu1278 O1282 2.292 . S
Eu1278 C1283 2.852 . S
Eu1278 O1294 2.324 . S
Eu1278 O1298 2.326 . S
Eu1278 O1300 2.500 . S
Eu1278 O1301 2.473 . S
C1279 O1276 1.255 . S
C1279 O1280 1.247 . S
O1280 C1279 1.247 . S
C1281 O1293 1.242 . S
C1281 O1294 1.258 . S
O1282 Eu1278 2.292 . S
O1282 C1284 1.255 . S
C1283 Eu1278 2.852 . S
C1283 C1287 1.503 . S
C1283 O1300 1.273 . S
C1283 O1301 1.257 . S
C1284 O1282 1.255 . S
C1284 O1285 1.247 . S
O1285 C1284 1.247 . S
C1286 O1298 1.242 . S
C1286 O1299 1.258 . S
C1287 C1283 1.503 . S
C1287 C1288 1.379 . S
C1287 C1292 1.392 . S
C1288 C1287 1.379 . S
C1288 C1289 1.404 . S
C1288 H1302 0.929 . S
C1289 C1288 1.404 . S
C1289 C1290 1.389 . S
C1290 C1289 1.389 . S
C1290 C1291 1.399 . S
C1290 H1303 0.931 . S
C1291 C1290 1.399 . S
C1291 C1292 1.390 . S
C1292 C1287 1.392 . S
C1292 C1291 1.390 . S
C1292 H1304 0.929 . S
O1293 Tb1277 2.326 . S
O1293 C1281 1.242 . S
O1294 Eu1278 2.324 . S
O1294 C1281 1.258 . S
O1295 Tb1277 2.500 . S
O1295 C1297 1.273 . S
O1296 Tb1277 2.473 . S
O1296 C1297 1.257 . S
C1297 O1295 1.273 . S
C1297 O1296 1.257 . S
O1298 Eu1278 2.326 . S
O1298 C1286 1.242 . S
O1299 Tb1277 2.324 . S
O1299 C1286 1.258 . S
O1300 Eu1278 2.500 . S
O1300 C1283 1.273 . S
O1301 Eu1278 2.473 . S
O1301 C1283 1.257 . S
H1302 C1288 0.929 . S
H1303 C1290 0.931 . S
H1304 C1292 0.929 . S
O1305 Tb1306 2.292 . S
O1305 C1308 1.255 . S
Tb1306 O1305 2.292 . S
Tb1306 O1322 2.326 . S
Tb1306 O1324 2.500 . S
Tb1306 O1325 2.473 . S
Tb1306 O1328 2.324 . S
Eu1307 O1311 2.292 . S
Eu1307 C1312 2.852 . S
Eu1307 O1323 2.324 . S
Eu1307 O1327 2.326 . S
Eu1307 O1329 2.500 . S
Eu1307 O1330 2.473 . S
C1308 O1305 1.255 . S
C1308 O1309 1.247 . S
O1309 C1308 1.247 . S
C1310 O1322 1.242 . S
C1310 O1323 1.258 . S
O1311 Eu1307 2.292 . S
O1311 C1313 1.255 1_556 S
C1312 Eu1307 2.852 . S
C1312 C1316 1.503 . S
C1312 O1329 1.273 . S
C1312 O1330 1.257 . S
C1313 O1311 1.255 1_554 S
C1313 O1314 1.247 . S
O1314 C1313 1.247 . S
C1315 O1327 1.242 . S
C1315 O1328 1.258 . S
C1316 C1312 1.503 . S
C1316 C1317 1.379 . S
C1316 C1321 1.392 . S
C1317 C1316 1.379 . S
C1317 C1318 1.404 . S
C1317 H1331 0.929 . S
C1318 C1317 1.404 . S
C1318 C1319 1.389 . S
C1319 C1318 1.389 . S
C1319 C1320 1.399 . S
C1319 H1332 0.931 . S
C1320 C1319 1.399 . S
C1320 C1321 1.390 . S
C1321 C1316 1.392 . S
C1321 C1320 1.390 . S
C1321 H1333 0.929 . S
O1322 Tb1306 2.326 . S
O1322 C1310 1.242 . S
O1323 Eu1307 2.324 . S
O1323 C1310 1.258 . S
O1324 Tb1306 2.500 . S
O1324 C1326 1.273 . S
O1325 Tb1306 2.473 . S
O1325 C1326 1.257 . S
C1326 O1324 1.273 . S
C1326 O1325 1.257 . S
O1327 Eu1307 2.326 . S
O1327 C1315 1.242 . S
O1328 Tb1306 2.324 . S
O1328 C1315 1.258 . S
O1329 Eu1307 2.500 . S
O1329 C1312 1.273 . S
O1330 Eu1307 2.473 . S
O1330 C1312 1.257 . S
H1331 C1317 0.929 . S
H1332 C1319 0.931 . S
H1333 C1321 0.929 . S
O1334 Tb1335 2.292 . S
O1334 C1337 1.255 . S
Tb1335 O1334 2.292 . S
Tb1335 O1351 2.326 . S
Tb1335 O1353 2.500 . S
Tb1335 O1354 2.473 . S
Tb1335 O1357 2.324 . S
Eu1336 O1340 2.292 . S
Eu1336 C1341 2.852 . S
Eu1336 O1352 2.324 . S
Eu1336 O1356 2.326 . S
Eu1336 O1358 2.500 . S
Eu1336 O1359 2.473 . S
C1337 O1334 1.255 . S
C1337 O1338 1.247 . S
O1338 C1337 1.247 . S
C1339 O1351 1.242 . S
C1339 O1352 1.258 . S
O1340 Eu1336 2.292 . S
O1340 C1342 1.255 1_556 S
C1341 Eu1336 2.852 . S
C1341 C1345 1.503 . S
C1341 O1358 1.273 . S
C1341 O1359 1.257 . S
C1342 O1340 1.255 1_554 S
C1342 O1343 1.247 . S
O1343 C1342 1.247 . S
C1344 O1356 1.242 . S
C1344 O1357 1.258 . S
C1345 C1341 1.503 . S
C1345 C1346 1.379 . S
C1345 C1350 1.392 . S
C1346 C1345 1.379 . S
C1346 C1347 1.404 . S
C1346 H1360 0.929 . S
C1347 C1346 1.404 . S
C1347 C1348 1.389 . S
C1348 C1347 1.389 . S
C1348 C1349 1.399 . S
C1348 H1361 0.931 . S
C1349 C1348 1.399 . S
C1349 C1350 1.390 . S
C1350 C1345 1.392 . S
C1350 C1349 1.390 . S
C1350 H1362 0.929 . S
O1351 Tb1335 2.326 . S
O1351 C1339 1.242 . S
O1352 Eu1336 2.324 . S
O1352 C1339 1.258 . S
O1353 Tb1335 2.500 . S
O1353 C1355 1.273 . S
O1354 Tb1335 2.473 . S
O1354 C1355 1.257 . S
C1355 O1353 1.273 . S
C1355 O1354 1.257 . S
O1356 Eu1336 2.326 . S
O1356 C1344 1.242 . S
O1357 Tb1335 2.324 . S
O1357 C1344 1.258 . S
O1358 Eu1336 2.500 . S
O1358 C1341 1.273 . S
O1359 Eu1336 2.473 . S
O1359 C1341 1.257 . S
H1360 C1346 0.929 . S
H1361 C1348 0.931 . S
H1362 C1350 0.929 . S
O1363 Tb1364 2.292 . S
O1363 C1366 1.255 . S
Tb1364 O1363 2.292 . S
Tb1364 O1380 2.326 . S
Tb1364 O1382 2.500 . S
Tb1364 O1383 2.473 . S
Tb1364 O1386 2.324 . S
Eu1365 O1369 2.292 . S
Eu1365 C1370 2.852 . S
Eu1365 O1381 2.324 . S
Eu1365 O1385 2.326 . S
Eu1365 O1387 2.500 . S
Eu1365 O1388 2.473 . S
C1366 O1363 1.255 . S
C1366 O1367 1.247 . S
O1367 C1366 1.247 . S
C1368 O1380 1.242 . S
C1368 O1381 1.258 . S
O1369 Eu1365 2.292 . S
O1369 C1371 1.255 1_556 S
C1370 Eu1365 2.852 . S
C1370 C1374 1.503 . S
C1370 O1387 1.273 . S
C1370 O1388 1.257 . S
C1371 O1369 1.255 1_554 S
C1371 O1372 1.247 . S
O1372 C1371 1.247 . S
C1373 O1385 1.242 . S
C1373 O1386 1.258 . S
C1374 C1370 1.503 . S
C1374 C1375 1.379 . S
C1374 C1379 1.392 . S
C1375 C1374 1.379 . S
C1375 C1376 1.404 . S
C1375 H1389 0.929 . S
C1376 C1375 1.404 . S
C1376 C1377 1.389 . S
C1377 C1376 1.389 . S
C1377 C1378 1.399 . S
C1377 H1390 0.931 . S
C1378 C1377 1.399 . S
C1378 C1379 1.390 . S
C1379 C1374 1.392 . S
C1379 C1378 1.390 . S
C1379 H1391 0.929 . S
O1380 Tb1364 2.326 . S
O1380 C1368 1.242 . S
O1381 Eu1365 2.324 . S
O1381 C1368 1.258 . S
O1382 Tb1364 2.500 . S
O1382 C1384 1.273 . S
O1383 Tb1364 2.473 . S
O1383 C1384 1.257 . S
C1384 O1382 1.273 . S
C1384 O1383 1.257 . S
O1385 Eu1365 2.326 . S
O1385 C1373 1.242 . S
O1386 Tb1364 2.324 . S
O1386 C1373 1.258 . S
O1387 Eu1365 2.500 . S
O1387 C1370 1.273 . S
O1388 Eu1365 2.473 . S
O1388 C1370 1.257 . S
H1389 C1375 0.929 . S
H1390 C1377 0.931 . S
H1391 C1379 0.929 . S
H1392 C1398 0.930 . S
H1393 C1402 0.930 . S
H1394 C1407 0.929 . S
H1395 C1405 0.929 . S
H1396 C1400 0.929 . S
H1397 C1406 0.929 . S
C1398 H1392 0.930 . S
C1398 C1399 1.367 . S
C1398 C1406 1.378 . S
C1399 C1398 1.367 . S
C1399 C1407 1.433 . S
C1400 H1396 0.929 . S
C1400 C1402 1.378 . S
C1400 C1404 1.350 . S
C1401 C1404 1.463 1_455 S
C1401 C1406 1.350 . S
C1401 N1409 1.427 . S
C1402 H1393 0.930 . S
C1402 C1400 1.378 . S
C1402 C1403 1.367 . S
C1403 C1402 1.367 . S
C1403 C1405 1.433 . S
C1404 C1400 1.350 . S
C1404 C1401 1.463 1_655 S
C1404 N1408 1.427 . S
C1405 H1395 0.929 . S
C1405 C1403 1.433 . S
C1405 N1408 1.384 . S
C1406 H1397 0.929 . S
C1406 C1398 1.378 . S
C1406 C1401 1.350 . S
C1407 H1394 0.929 . S
C1407 C1399 1.433 . S
C1407 N1409 1.384 . S
N1408 C1404 1.427 . S
N1408 C1405 1.384 . S
N1409 C1401 1.427 . S
N1409 C1407 1.384 . S
H1410 C1416 0.930 . S
H1411 C1420 0.930 . S
H1412 C1425 0.929 . S
H1413 C1423 0.929 . S
H1414 C1418 0.929 1_545 S
H1415 C1424 0.929 . S
C1416 H1410 0.930 . S
C1416 C1417 1.367 . S
C1416 C1424 1.378 1_545 S
C1417 C1416 1.367 . S
C1417 C1425 1.433 . S
C1418 H1414 0.929 1_565 S
C1418 C1420 1.378 . S
C1418 C1422 1.350 . S
C1419 C1422 1.463 1_645 S
C1419 C1424 1.350 1_545 S
C1419 N1427 1.427 . S
C1420 H1411 0.930 . S
C1420 C1418 1.378 . S
C1420 C1421 1.367 . S
C1421 C1420 1.367 . S
C1421 C1423 1.433 . S
C1422 C1418 1.350 . S
C1422 C1419 1.463 1_465 S
C1422 N1426 1.418 1_455 S
C1423 H1413 0.929 . S
C1423 C1421 1.433 . S
C1423 N1426 1.345 1_455 S
C1424 H1415 0.929 . S
C1424 C1416 1.378 1_565 S
C1424 C1419 1.350 1_565 S
C1425 H1412 0.929 . S
C1425 C1417 1.433 . S
C1425 N1427 1.384 . S
N1426 C1422 1.418 1_655 S
N1426 C1423 1.345 1_655 S
N1427 C1419 1.427 . S
N1427 C1425 1.384 . S
H1428 C1434 0.930 . S
H1429 C1438 0.930 . S
H1430 C1443 0.929 . S
H1431 C1441 0.929 . S
H1432 C1436 0.929 1_545 S
H1433 C1442 0.929 . S
C1434 H1428 0.930 . S
C1434 C1435 1.367 . S
C1434 C1442 1.378 1_545 S
C1435 C1434 1.367 . S
C1435 C1443 1.433 . S
C1436 H1432 0.929 1_565 S
C1436 C1438 1.378 . S
C1436 C1440 1.350 . S
C1437 C1440 1.463 1_545 S
C1437 C1442 1.350 1_545 S
C1437 N1445 1.427 . S
C1438 H1429 0.930 . S
C1438 C1436 1.378 . S
C1438 C1439 1.367 . S
C1439 C1438 1.367 . S
C1439 C1441 1.433 . S
C1440 C1436 1.350 . S
C1440 C1437 1.463 1_565 S
C1440 N1444 1.427 . S
C1441 H1431 0.929 . S
C1441 C1439 1.433 . S
C1441 N1444 1.384 . S
C1442 H1433 0.929 . S
C1442 C1434 1.378 1_565 S
C1442 C1437 1.350 1_565 S
C1443 H1430 0.929 . S
C1443 C1435 1.433 . S
C1443 N1445 1.384 . S
N1444 C1440 1.427 . S
N1444 C1441 1.384 . S
N1445 C1437 1.427 . S
N1445 C1443 1.384 . S
H1446 C1452 0.930 . S
H1447 C1456 0.930 . S
H1448 C1461 0.929 . S
H1449 C1459 0.929 . S
H1450 C1454 0.929 . S
H1451 C1460 0.929 . S
C1452 H1446 0.930 . S
C1452 C1453 1.367 . S
C1452 C1460 1.378 . S
C1453 C1452 1.367 . S
C1453 C1461 1.433 . S
C1454 H1450 0.929 . S
C1454 C1456 1.378 . S
C1454 C1458 1.350 . S
C1455 C1458 1.463 . S
C1455 C1460 1.350 . S
C1455 N1463 1.427 . S
C1456 H1447 0.930 . S
C1456 C1454 1.378 . S
C1456 C1457 1.367 . S
C1457 C1456 1.367 . S
C1457 C1459 1.433 . S
C1458 C1454 1.350 . S
C1458 C1455 1.463 . S
C1458 N1462 1.427 . S
C1459 H1449 0.929 . S
C1459 C1457 1.433 . S
C1459 N1462 1.384 . S
C1460 H1451 0.929 . S
C1460 C1452 1.378 . S
C1460 C1455 1.350 . S
C1461 H1448 0.929 . S
C1461 C1453 1.433 . S
C1461 N1463 1.384 . S
N1462 C1458 1.427 . S
N1462 C1459 1.384 . S
N1463 C1455 1.427 . S
N1463 C1461 1.384 . S
H1464 C1470 0.930 . S
H1465 C1474 0.930 . S
H1466 C1479 0.929 . S
H1467 C1477 0.929 . S
H1468 C1472 0.929 . S
H1469 C1478 0.929 . S
C1470 H1464 0.930 . S
C1470 C1471 1.367 . S
C1470 C1478 1.378 . S
C1471 C1470 1.367 . S
C1471 C1479 1.433 . S
C1472 H1468 0.929 . S
C1472 C1474 1.378 . S
C1472 C1476 1.350 . S
C1473 C1476 1.463 1_545 S
C1473 C1478 1.350 . S
C1473 N1481 1.427 . S
C1474 H1465 0.930 . S
C1474 C1472 1.378 . S
C1474 C1475 1.367 . S
C1475 C1474 1.367 . S
C1475 C1477 1.433 . S
C1476 C1472 1.350 . S
C1476 C1473 1.463 1_565 S
C1476 N1480 1.427 . S
C1477 H1467 0.929 . S
C1477 C1475 1.433 . S
C1477 N1480 1.384 . S
C1478 H1469 0.929 . S
C1478 C1470 1.378 . S
C1478 C1473 1.350 . S
C1479 H1466 0.929 . S
C1479 C1471 1.433 . S
C1479 N1481 1.384 . S
N1480 C1476 1.427 . S
N1480 C1477 1.384 . S
N1481 C1473 1.427 . S
N1481 C1479 1.384 . S
H1482 C1488 0.930 . S
H1483 C1492 0.930 . S
H1484 C1497 0.929 . S
H1485 C1495 0.929 . S
H1486 C1490 0.929 . S
H1487 C1496 0.929 . S
C1488 H1482 0.930 . S
C1488 C1489 1.367 . S
C1488 C1496 1.378 . S
C1489 C1488 1.367 . S
C1489 C1497 1.433 . S
C1490 H1486 0.929 . S
C1490 C1492 1.378 . S
C1490 C1494 1.350 . S
C1491 C1494 1.463 . S
C1491 C1496 1.350 . S
C1491 N1499 1.427 . S
C1492 H1483 0.930 . S
C1492 C1490 1.378 . S
C1492 C1493 1.367 . S
C1493 C1492 1.367 . S
C1493 C1495 1.433 . S
C1494 C1490 1.350 . S
C1494 C1491 1.463 . S
C1494 N1498 1.427 . S
C1495 H1485 0.929 . S
C1495 C1493 1.433 . S
C1495 N1498 1.384 . S
C1496 H1487 0.929 . S
C1496 C1488 1.378 . S
C1496 C1491 1.350 . S
C1497 H1484 0.929 . S
C1497 C1489 1.433 . S
C1497 N1499 1.384 . S
N1498 C1494 1.427 . S
N1498 C1495 1.384 . S
N1499 C1491 1.427 . S
N1499 C1497 1.384 . S
H1500 C1506 0.930 . S
H1501 C1510 0.930 . S
H1502 C1515 0.929 . S
H1503 C1513 0.929 . S
H1504 C1508 0.929 . S
H1505 C1514 0.929 . S
C1506 H1500 0.930 . S
C1506 C1507 1.367 . S
C1506 C1514 1.378 . S
C1507 C1506 1.367 . S
C1507 C1515 1.433 . S
C1508 H1504 0.929 . S
C1508 C1510 1.378 . S
C1508 C1512 1.350 . S
C1509 C1512 1.463 . S
C1509 C1514 1.350 . S
C1509 N1517 1.427 . S
C1510 H1501 0.930 . S
C1510 C1508 1.378 . S
C1510 C1511 1.367 . S
C1511 C1510 1.367 . S
C1511 C1513 1.433 . S
C1512 C1508 1.350 . S
C1512 C1509 1.463 . S
C1512 N1516 1.427 . S
C1513 H1503 0.929 . S
C1513 C1511 1.433 . S
C1513 N1516 1.384 . S
C1514 H1505 0.929 . S
C1514 C1506 1.378 . S
C1514 C1509 1.350 . S
C1515 H1502 0.929 . S
C1515 C1507 1.433 . S
C1515 N1517 1.384 . S
N1516 C1512 1.427 . S
N1516 C1513 1.384 . S
N1517 C1509 1.427 . S
N1517 C1515 1.384 . S
H1518 C1524 0.930 . S
H1519 C1528 0.930 . S
H1520 C1533 0.929 . S
H1521 C1531 0.929 . S
H1522 C1526 0.929 . S
H1523 C1532 0.929 1_455 S
C1524 H1518 0.930 . S
C1524 C1525 1.367 . S
C1524 C1532 1.378 . S
C1525 C1524 1.367 . S
C1525 C1533 1.433 . S
C1526 H1522 0.929 . S
C1526 C1528 1.378 1_655 S
C1526 C1530 1.350 1_655 S
C1527 C1530 1.463 1_655 S
C1527 C1532 1.350 . S
C1527 N1535 1.427 . S
C1528 H1519 0.930 . S
C1528 C1526 1.378 1_455 S
C1528 C1529 1.367 . S
C1529 C1528 1.367 . S
C1529 C1531 1.433 . S
C1530 C1526 1.350 1_455 S
C1530 C1527 1.463 1_455 S
C1530 N1534 1.427 . S
C1531 H1521 0.929 . S
C1531 C1529 1.433 . S
C1531 N1534 1.384 . S
C1532 H1523 0.929 1_655 S
C1532 C1524 1.378 . S
C1532 C1527 1.350 . S
C1533 H1520 0.929 . S
C1533 C1525 1.433 . S
C1533 N1535 1.384 . S
N1534 C1530 1.427 . S
N1534 C1531 1.384 . S
N1535 C1527 1.427 . S
N1535 C1533 1.384 . S
H1536 C1542 0.930 . S
H1537 C1546 0.930 . S
H1538 C1551 0.929 . S
H1539 C1549 0.929 . S
H1540 C1544 0.929 . S
H1541 C1550 0.929 . S
C1542 H1536 0.930 . S
C1542 C1543 1.367 . S
C1542 C1550 1.378 . S
C1543 C1542 1.367 . S
C1543 C1551 1.433 . S
C1544 H1540 0.929 . S
C1544 C1546 1.378 . S
C1544 C1548 1.350 . S
C1545 C1548 1.463 1_554 S
C1545 C1550 1.350 . S
C1545 N1553 1.427 1_554 S
C1546 H1537 0.930 . S
C1546 C1544 1.378 . S
C1546 C1547 1.367 . S
C1547 C1546 1.367 . S
C1547 C1549 1.433 . S
C1548 C1544 1.350 . S
C1548 C1545 1.463 1_556 S
C1548 N1552 1.427 . S
C1549 H1539 0.929 . S
C1549 C1547 1.433 . S
C1549 N1552 1.384 . S
C1550 H1541 0.929 . S
C1550 C1542 1.378 . S
C1550 C1545 1.350 . S
C1551 H1538 0.929 . S
C1551 C1543 1.433 . S
C1551 N1553 1.384 1_554 S
N1552 C1548 1.427 . S
N1552 C1549 1.384 . S
N1553 C1545 1.427 1_556 S
N1553 C1551 1.384 1_556 S
H1554 C1560 0.930 . S
H1555 C1564 0.930 . S
H1556 C1569 0.929 . S
H1557 C1567 0.929 . S
H1558 C1562 0.929 . S
H1559 C1568 0.929 . S
C1560 H1554 0.930 . S
C1560 C1561 1.367 . S
C1560 C1568 1.378 . S
C1561 C1560 1.367 . S
C1561 C1569 1.433 . S
C1562 H1558 0.929 . S
C1562 C1564 1.378 . S
C1562 C1566 1.350 . S
C1563 C1566 1.463 1_654 S
C1563 C1568 1.350 . S
C1563 N1571 1.427 . S
C1564 H1555 0.930 . S
C1564 C1562 1.378 . S
C1564 C1565 1.367 . S
C1565 C1564 1.367 . S
C1565 C1567 1.433 . S
C1566 C1562 1.350 . S
C1566 C1563 1.463 1_456 S
C1566 N1570 1.427 . S
C1567 H1557 0.929 . S
C1567 C1565 1.433 . S
C1567 N1570 1.384 . S
C1568 H1559 0.929 . S
C1568 C1560 1.378 . S
C1568 C1563 1.350 . S
C1569 H1556 0.929 . S
C1569 C1561 1.433 . S
C1569 N1571 1.384 . S
N1570 C1566 1.427 . S
N1570 C1567 1.384 . S
N1571 C1563 1.427 . S
N1571 C1569 1.384 . S
H1572 C1578 0.930 . S
H1573 C1582 0.930 . S
H1574 C1587 0.929 . S
H1575 C1585 0.929 . S
H1576 C1580 0.929 . S
H1577 C1586 0.929 1_554 S
C1578 H1572 0.930 . S
C1578 C1579 1.367 . S
C1578 C1586 1.378 . S
C1579 C1578 1.367 . S
C1579 C1587 1.433 . S
C1580 H1576 0.929 . S
C1580 C1582 1.378 1_556 S
C1580 C1584 1.350 1_556 S
C1581 C1584 1.463 1_546 S
C1581 C1586 1.350 . S
C1581 N1589 1.427 1_545 S
C1582 H1573 0.930 . S
C1582 C1580 1.378 1_554 S
C1582 C1583 1.367 . S
C1583 C1582 1.367 . S
C1583 C1585 1.433 . S
C1584 C1580 1.350 1_554 S
C1584 C1581 1.463 1_564 S
C1584 N1588 1.427 . S
C1585 H1575 0.929 . S
C1585 C1583 1.433 . S
C1585 N1588 1.384 . S
C1586 H1577 0.929 1_556 S
C1586 C1578 1.378 . S
C1586 C1581 1.350 . S
C1587 H1574 0.929 . S
C1587 C1579 1.433 . S
C1587 N1589 1.384 1_545 S
N1588 C1584 1.427 . S
N1588 C1585 1.384 . S
N1589 C1581 1.427 1_565 S
N1589 C1587 1.384 1_565 S
H1590 C1596 0.930 . S
H1591 C1600 0.930 . S
H1592 C1605 0.929 . S
H1593 C1603 0.929 . S
H1594 C1598 0.929 . S
H1595 C1604 0.929 . S
C1596 H1590 0.930 . S
C1596 C1597 1.367 . S
C1596 C1604 1.378 . S
C1597 C1596 1.367 . S
C1597 C1605 1.433 . S
C1598 H1594 0.929 . S
C1598 C1600 1.378 . S
C1598 C1602 1.350 . S
C1599 C1602 1.463 1_556 S
C1599 C1604 1.350 . S
C1599 N1607 1.427 . S
C1600 H1591 0.930 . S
C1600 C1598 1.378 . S
C1600 C1601 1.367 . S
C1601 C1600 1.367 . S
C1601 C1603 1.433 . S
C1602 C1598 1.350 . S
C1602 C1599 1.463 1_554 S
C1602 N1606 1.423 1_554 S
C1603 H1593 0.929 . S
C1603 C1601 1.433 . S
C1603 N1606 1.363 1_554 S
C1604 H1595 0.929 . S
C1604 C1596 1.378 . S
C1604 C1599 1.350 . S
C1605 H1592 0.929 . S
C1605 C1597 1.433 . S
C1605 N1607 1.384 . S
N1606 C1602 1.423 1_556 S
N1606 C1603 1.363 1_556 S
N1607 C1599 1.427 . S
N1607 C1605 1.384 . S
H1608 C1614 0.930 . S
H1609 C1618 0.930 . S
H1610 C1623 0.929 . S
H1611 C1621 0.929 . S
H1612 C1616 0.929 . S
H1613 C1622 0.929 . S
C1614 H1608 0.930 . S
C1614 C1615 1.367 . S
C1614 C1622 1.378 . S
C1615 C1614 1.367 . S
C1615 C1623 1.433 . S
C1616 H1612 0.929 . S
C1616 C1618 1.378 . S
C1616 C1620 1.350 . S
C1617 C1620 1.463 1_655 S
C1617 C1622 1.350 . S
C1617 N1625 1.427 1_655 S
C1618 H1609 0.930 . S
C1618 C1616 1.378 . S
C1618 C1619 1.367 . S
C1619 C1618 1.367 . S
C1619 C1621 1.433 . S
C1620 C1616 1.350 . S
C1620 C1617 1.463 1_455 S
C1620 N1624 1.427 . S
C1621 H1611 0.929 . S
C1621 C1619 1.433 . S
C1621 N1624 1.384 . S
C1622 H1613 0.929 . S
C1622 C1614 1.378 . S
C1622 C1617 1.350 . S
C1623 H1610 0.929 . S
C1623 C1615 1.433 . S
C1623 N1625 1.384 1_655 S
N1624 C1620 1.427 . S
N1624 C1621 1.384 . S
N1625 C1617 1.427 1_455 S
N1625 C1623 1.384 1_455 S
H1626 C1632 0.930 . S
H1627 C1636 0.930 . S
H1628 C1641 0.929 . S
H1629 C1639 0.929 . S
H1630 C1634 0.929 . S
H1631 C1640 0.929 1_565 S
C1632 H1626 0.930 . S
C1632 C1633 1.367 . S
C1632 C1640 1.378 . S
C1633 C1632 1.367 . S
C1633 C1641 1.433 . S
C1634 H1630 0.929 . S
C1634 C1636 1.378 1_545 S
C1634 C1638 1.350 1_545 S
C1635 C1638 1.463 1_645 S
C1635 C1640 1.350 . S
C1635 N1643 1.427 1_655 S
C1636 H1627 0.930 . S
C1636 C1634 1.378 1_565 S
C1636 C1637 1.367 . S
C1637 C1636 1.367 . S
C1637 C1639 1.433 . S
C1638 C1634 1.350 1_565 S
C1638 C1635 1.463 1_465 S
C1638 N1642 1.427 . S
C1639 H1629 0.929 . S
C1639 C1637 1.433 . S
C1639 N1642 1.384 . S
C1640 H1631 0.929 1_545 S
C1640 C1632 1.378 . S
C1640 C1635 1.350 . S
C1641 H1628 0.929 . S
C1641 C1633 1.433 . S
C1641 N1643 1.384 1_655 S
N1642 C1638 1.427 . S
N1642 C1639 1.384 . S
N1643 C1635 1.427 1_455 S
N1643 C1641 1.384 1_455 S
H1644 C1650 0.930 . S
H1645 C1654 0.930 . S
H1646 C1659 0.929 . S
H1647 C1657 0.929 . S
H1648 C1652 0.929 . S
H1649 C1658 0.929 . S
C1650 H1644 0.930 . S
C1650 C1651 1.367 . S
C1650 C1658 1.378 . S
C1651 C1650 1.367 . S
C1651 C1659 1.433 . S
C1652 H1648 0.929 . S
C1652 C1654 1.378 . S
C1652 C1656 1.350 . S
C1653 C1656 1.463 1_565 S
C1653 C1658 1.350 . S
C1653 N1661 1.427 1_565 S
C1654 H1645 0.930 . S
C1654 C1652 1.378 . S
C1654 C1655 1.367 . S
C1655 C1654 1.367 . S
C1655 C1657 1.433 . S
C1656 C1652 1.350 . S
C1656 C1653 1.463 1_545 S
C1656 N1660 1.427 . S
C1657 H1647 0.929 . S
C1657 C1655 1.433 . S
C1657 N1660 1.384 . S
C1658 H1649 0.929 . S
C1658 C1650 1.378 . S
C1658 C1653 1.350 . S
C1659 H1646 0.929 . S
C1659 C1651 1.433 . S
C1659 N1661 1.384 1_565 S
N1660 C1656 1.427 . S
N1660 C1657 1.384 . S
N1661 C1653 1.427 1_545 S
N1661 C1659 1.384 1_545 S
H1662 C1668 0.930 . S
H1663 C1672 0.930 . S
H1664 C1677 0.929 . S
H1665 C1675 0.929 . S
H1666 C1670 0.929 . S
H1667 C1676 0.929 . S
C1668 H1662 0.930 . S
C1668 C1669 1.367 . S
C1668 C1676 1.378 . S
C1669 C1668 1.367 . S
C1669 C1677 1.433 . S
C1670 H1666 0.929 . S
C1670 C1672 1.378 . S
C1670 C1674 1.350 . S
C1671 C1674 1.463 . S
C1671 C1676 1.350 . S
C1671 N1679 1.427 . S
C1672 H1663 0.930 . S
C1672 C1670 1.378 . S
C1672 C1673 1.367 . S
C1673 C1672 1.367 . S
C1673 C1675 1.433 . S
C1674 C1670 1.350 . S
C1674 C1671 1.463 . S
C1674 N1678 1.427 . S
C1675 H1665 0.929 . S
C1675 C1673 1.433 . S
C1675 N1678 1.384 . S
C1676 H1667 0.929 . S
C1676 C1668 1.378 . S
C1676 C1671 1.350 . S
C1677 H1664 0.929 . S
C1677 C1669 1.433 . S
C1677 N1679 1.384 . S
N1678 C1674 1.427 . S
N1678 C1675 1.384 . S
N1679 C1671 1.427 . S
N1679 C1677 1.384 . S
H1680 C1686 0.930 . S
H1681 C1690 0.930 . S
H1682 C1695 0.929 . S
H1683 C1693 0.929 . S
H1684 C1688 0.929 . S
H1685 C1694 0.929 . S
C1686 H1680 0.930 . S
C1686 C1687 1.367 . S
C1686 C1694 1.378 . S
C1687 C1686 1.367 . S
C1687 C1695 1.433 . S
C1688 H1684 0.929 . S
C1688 C1690 1.378 . S
C1688 C1692 1.350 . S
C1689 C1692 1.463 1_565 S
C1689 C1694 1.350 . S
C1689 N1697 1.427 . S
C1690 H1681 0.930 . S
C1690 C1688 1.378 . S
C1690 C1691 1.367 . S
C1691 C1690 1.367 . S
C1691 C1693 1.433 . S
C1692 C1688 1.350 . S
C1692 C1689 1.463 1_545 S
C1692 N1696 1.427 . S
C1693 H1683 0.929 . S
C1693 C1691 1.433 . S
C1693 N1696 1.384 . S
C1694 H1685 0.929 . S
C1694 C1686 1.378 . S
C1694 C1689 1.350 . S
C1695 H1682 0.929 . S
C1695 C1687 1.433 . S
C1695 N1697 1.384 . S
N1696 C1692 1.427 . S
N1696 C1693 1.384 . S
N1697 C1689 1.427 . S
N1697 C1695 1.384 . S
H1698 C1704 0.930 . S
H1699 C1708 0.930 . S
H1700 C1713 0.929 . S
H1701 C1711 0.929 . S
H1702 C1706 0.929 . S
H1703 C1712 0.929 . S
C1704 H1698 0.930 . S
C1704 C1705 1.367 . S
C1704 C1712 1.378 . S
C1705 C1704 1.367 . S
C1705 C1713 1.433 . S
C1706 H1702 0.929 . S
C1706 C1708 1.378 . S
C1706 C1710 1.350 . S
C1707 C1710 1.463 . S
C1707 C1712 1.350 . S
C1707 N1715 1.427 . S
C1708 H1699 0.930 . S
C1708 C1706 1.378 . S
C1708 C1709 1.367 . S
C1709 C1708 1.367 . S
C1709 C1711 1.433 . S
C1710 C1706 1.350 . S
C1710 C1707 1.463 . S
C1710 N1714 1.427 . S
C1711 H1701 0.929 . S
C1711 C1709 1.433 . S
C1711 N1714 1.384 . S
C1712 H1703 0.929 . S
C1712 C1704 1.378 . S
C1712 C1707 1.350 . S
C1713 H1700 0.929 . S
C1713 C1705 1.433 . S
C1713 N1715 1.384 . S
N1714 C1710 1.427 . S
N1714 C1711 1.384 . S
N1715 C1707 1.427 . S
N1715 C1713 1.384 . S
H1716 C1722 0.930 . S
H1717 C1726 0.930 . S
H1718 C1731 0.929 . S
H1719 C1729 0.929 . S
H1720 C1724 0.929 . S
H1721 C1730 0.929 . S
C1722 H1716 0.930 . S
C1722 C1723 1.367 . S
C1722 C1730 1.378 . S
C1723 C1722 1.367 . S
C1723 C1731 1.433 . S
C1724 H1720 0.929 . S
C1724 C1726 1.378 . S
C1724 C1728 1.350 . S
C1725 C1728 1.463 . S
C1725 C1730 1.350 . S
C1725 N1733 1.427 . S
C1726 H1717 0.930 . S
C1726 C1724 1.378 . S
C1726 C1727 1.367 . S
C1727 C1726 1.367 . S
C1727 C1729 1.433 . S
C1728 C1724 1.350 . S
C1728 C1725 1.463 . S
C1728 N1732 1.427 . S
C1729 H1719 0.929 . S
C1729 C1727 1.433 . S
C1729 N1732 1.384 . S
C1730 H1721 0.929 . S
C1730 C1722 1.378 . S
C1730 C1725 1.350 . S
C1731 H1718 0.929 . S
C1731 C1723 1.433 . S
C1731 N1733 1.384 . S
N1732 C1728 1.427 . S
N1732 C1729 1.384 . S
N1733 C1725 1.427 . S
N1733 C1731 1.384 . S
H1734 C1740 0.930 . S
H1735 C1744 0.930 . S
H1736 C1749 0.929 . S
H1737 C1747 0.929 . S
H1738 C1742 0.929 . S
H1739 C1748 0.929 . S
C1740 H1734 0.930 . S
C1740 C1741 1.367 . S
C1740 C1748 1.378 . S
C1741 C1740 1.367 . S
C1741 C1749 1.433 . S
C1742 H1738 0.929 . S
C1742 C1744 1.378 . S
C1742 C1746 1.350 . S
C1743 C1746 1.463 1_455 S
C1743 C1748 1.350 . S
C1743 N1751 1.427 . S
C1744 H1735 0.930 . S
C1744 C1742 1.378 . S
C1744 C1745 1.367 . S
C1745 C1744 1.367 . S
C1745 C1747 1.433 . S
C1746 C1742 1.350 . S
C1746 C1743 1.463 1_655 S
C1746 N1750 1.427 . S
C1747 H1737 0.929 . S
C1747 C1745 1.433 . S
C1747 N1750 1.384 . S
C1748 H1739 0.929 . S
C1748 C1740 1.378 . S
C1748 C1743 1.350 . S
C1749 H1736 0.929 . S
C1749 C1741 1.433 . S
C1749 N1751 1.384 . S
N1750 C1746 1.427 . S
N1750 C1747 1.384 . S
N1751 C1743 1.427 . S
N1751 C1749 1.384 . S
H1752 C1758 0.930 . S
H1753 C1762 0.930 . S
H1754 C1767 0.929 . S
H1755 C1765 0.929 . S
H1756 C1760 0.929 . S
H1757 C1766 0.929 1_556 S
C1758 H1752 0.930 . S
C1758 C1759 1.367 . S
C1758 C1766 1.378 . S
C1759 C1758 1.367 . S
C1759 C1767 1.433 . S
C1760 H1756 0.929 . S
C1760 C1762 1.378 1_554 S
C1760 C1764 1.350 1_554 S
C1761 C1764 1.463 1_554 S
C1761 C1766 1.350 . S
C1761 N1769 1.427 . S
C1762 H1753 0.930 . S
C1762 C1760 1.378 1_556 S
C1762 C1763 1.367 . S
C1763 C1762 1.367 . S
C1763 C1765 1.433 . S
C1764 C1760 1.350 1_556 S
C1764 C1761 1.463 1_556 S
C1764 N1768 1.427 . S
C1765 H1755 0.929 . S
C1765 C1763 1.433 . S
C1765 N1768 1.384 . S
C1766 H1757 0.929 1_554 S
C1766 C1758 1.378 . S
C1766 C1761 1.350 . S
C1767 H1754 0.929 . S
C1767 C1759 1.433 . S
C1767 N1769 1.384 . S
N1768 C1764 1.427 . S
N1768 C1765 1.384 . S
N1769 C1761 1.427 . S
N1769 C1767 1.384 . S
H1770 C1776 0.930 . S
H1771 C1780 0.930 . S
H1772 C1785 0.929 . S
H1773 C1783 0.929 . S
H1774 C1778 0.929 1_655 S
H1775 C1784 0.929 . S
C1776 H1770 0.930 . S
C1776 C1777 1.367 . S
C1776 C1784 1.378 1_655 S
C1777 C1776 1.367 . S
C1777 C1785 1.433 . S
C1778 H1774 0.929 1_455 S
C1778 C1780 1.378 . S
C1778 C1782 1.350 . S
C1779 C1782 1.463 1_654 S
C1779 C1784 1.350 1_655 S
C1779 N1787 1.427 . S
C1780 H1771 0.930 . S
C1780 C1778 1.378 . S
C1780 C1781 1.367 . S
C1781 C1780 1.367 . S
C1781 C1783 1.433 . S
C1782 C1778 1.350 . S
C1782 C1779 1.463 1_456 S
C1782 N1786 1.427 1_556 S
C1783 H1773 0.929 . S
C1783 C1781 1.433 . S
C1783 N1786 1.384 1_556 S
C1784 H1775 0.929 . S
C1784 C1776 1.378 1_455 S
C1784 C1779 1.350 1_455 S
C1785 H1772 0.929 . S
C1785 C1777 1.433 . S
C1785 N1787 1.384 . S
N1786 C1782 1.427 1_554 S
N1786 C1783 1.384 1_554 S
N1787 C1779 1.427 . S
N1787 C1785 1.384 . S
H1788 C1794 0.930 . S
H1789 C1798 0.930 . S
H1790 C1803 0.929 . S
H1791 C1801 0.929 . S
H1792 C1796 0.929 . S
H1793 C1802 0.929 1_556 S
C1794 H1788 0.930 . S
C1794 C1795 1.367 . S
C1794 C1802 1.378 . S
C1795 C1794 1.367 . S
C1795 C1803 1.433 . S
C1796 H1792 0.929 . S
C1796 C1798 1.378 1_554 S
C1796 C1800 1.350 1_554 S
C1797 C1800 1.463 1_564 S
C1797 C1802 1.350 . S
C1797 N1805 1.427 . S
C1798 H1789 0.930 . S
C1798 C1796 1.378 1_556 S
C1798 C1799 1.367 . S
C1799 C1798 1.367 . S
C1799 C1801 1.433 . S
C1800 C1796 1.350 1_556 S
C1800 C1797 1.463 1_546 S
C1800 N1804 1.427 . S
C1801 H1791 0.929 . S
C1801 C1799 1.433 . S
C1801 N1804 1.384 . S
C1802 H1793 0.929 1_554 S
C1802 C1794 1.378 . S
C1802 C1797 1.350 . S
C1803 H1790 0.929 . S
C1803 C1795 1.433 . S
C1803 N1805 1.384 . S
N1804 C1800 1.427 . S
N1804 C1801 1.384 . S
N1805 C1797 1.427 . S
N1805 C1803 1.384 . S
H1806 C1812 0.930 . S
H1807 C1816 0.930 . S
H1808 C1821 0.929 . S
H1809 C1819 0.929 . S
H1810 C1814 0.927 1_554 S
H1811 C1820 0.929 . S
C1812 H1806 0.930 . S
C1812 C1813 1.367 . S
C1812 C1820 1.378 . S
C1813 C1812 1.367 . S
C1813 C1821 1.433 . S
C1814 H1810 0.927 1_556 S
C1814 C1816 1.378 . S
C1814 C1818 1.350 . S
C1815 C1818 1.463 1_554 S
C1815 C1820 1.350 . S
C1815 N1823 1.427 . S
C1816 H1807 0.930 . S
C1816 C1814 1.378 . S
C1816 C1817 1.367 . S
C1817 C1816 1.367 . S
C1817 C1819 1.433 . S
C1818 C1814 1.350 . S
C1818 C1815 1.463 1_556 S
C1818 N1822 1.427 . S
C1819 H1809 0.929 . S
C1819 C1817 1.433 . S
C1819 N1822 1.384 . S
C1820 H1811 0.929 . S
C1820 C1812 1.378 . S
C1820 C1815 1.350 . S
C1821 H1808 0.929 . S
C1821 C1813 1.433 . S
C1821 N1823 1.384 . S
N1822 C1818 1.427 . S
N1822 C1819 1.384 . S
N1823 C1815 1.427 . S
N1823 C1821 1.384 . S
H1824 C1830 0.930 . S
H1825 C1834 0.930 . S
H1826 C1839 0.929 . S
H1827 C1837 0.929 . S
H1828 C1832 0.929 . S
H1829 C1838 0.929 . S
C1830 H1824 0.930 . S
C1830 C1831 1.367 . S
C1830 C1838 1.378 . S
C1831 C1830 1.367 . S
C1831 C1839 1.433 . S
C1832 H1828 0.929 . S
C1832 C1834 1.378 . S
C1832 C1836 1.350 . S
C1833 C1836 1.463 . S
C1833 C1838 1.350 . S
C1833 N1841 1.427 . S
C1834 H1825 0.930 . S
C1834 C1832 1.378 . S
C1834 C1835 1.367 . S
C1835 C1834 1.367 . S
C1835 C1837 1.433 . S
C1836 C1832 1.350 . S
C1836 C1833 1.463 . S
C1836 N1840 1.427 . S
C1837 H1827 0.929 . S
C1837 C1835 1.433 . S
C1837 N1840 1.384 . S
C1838 H1829 0.929 . S
C1838 C1830 1.378 . S
C1838 C1833 1.350 . S
C1839 H1826 0.929 . S
C1839 C1831 1.433 . S
C1839 N1841 1.384 . S
N1840 C1836 1.427 . S
N1840 C1837 1.384 . S
N1841 C1833 1.427 . S
N1841 C1839 1.384 . S
H1842 C1848 0.930 . S
H1843 C1852 0.930 . S
H1844 C1857 0.929 . S
H1845 C1855 0.929 . S
H1846 C1850 0.929 . S
H1847 C1856 0.929 . S
C1848 H1842 0.930 . S
C1848 C1849 1.367 . S
C1848 C1856 1.378 . S
C1849 C1848 1.367 . S
C1849 C1857 1.433 . S
C1850 H1846 0.929 . S
C1850 C1852 1.378 . S
C1850 C1854 1.350 . S
C1851 C1854 1.463 . S
C1851 C1856 1.350 . S
C1851 N1859 1.427 . S
C1852 H1843 0.930 . S
C1852 C1850 1.378 . S
C1852 C1853 1.367 . S
C1853 C1852 1.367 . S
C1853 C1855 1.433 . S
C1854 C1850 1.350 . S
C1854 C1851 1.463 . S
C1854 N1858 1.427 . S
C1855 H1845 0.929 . S
C1855 C1853 1.433 . S
C1855 N1858 1.384 . S
C1856 H1847 0.929 . S
C1856 C1848 1.378 . S
C1856 C1851 1.350 . S
C1857 H1844 0.929 . S
C1857 C1849 1.433 . S
C1857 N1859 1.384 . S
N1858 C1854 1.427 . S
N1858 C1855 1.384 . S
N1859 C1851 1.427 . S
N1859 C1857 1.384 . S
H1860 C1866 0.930 . S
H1861 C1870 0.930 . S
H1862 C1875 0.929 . S
H1863 C1873 0.929 . S
H1864 C1868 0.929 . S
H1865 C1874 0.929 . S
C1866 H1860 0.930 . S
C1866 C1867 1.367 . S
C1866 C1874 1.378 . S
C1867 C1866 1.367 . S
C1867 C1875 1.433 . S
C1868 H1864 0.929 . S
C1868 C1870 1.378 . S
C1868 C1872 1.350 . S
C1869 C1872 1.463 . S
C1869 C1874 1.350 . S
C1869 N1877 1.427 . S
C1870 H1861 0.930 . S
C1870 C1868 1.378 . S
C1870 C1871 1.367 . S
C1871 C1870 1.367 . S
C1871 C1873 1.433 . S
C1872 C1868 1.350 . S
C1872 C1869 1.463 . S
C1872 N1876 1.427 . S
C1873 H1863 0.929 . S
C1873 C1871 1.433 . S
C1873 N1876 1.384 . S
C1874 H1865 0.929 . S
C1874 C1866 1.378 . S
C1874 C1869 1.350 . S
C1875 H1862 0.929 . S
C1875 C1867 1.433 . S
C1875 N1877 1.384 . S
N1876 C1872 1.427 . S
N1876 C1873 1.384 . S
N1877 C1869 1.427 . S
N1877 C1875 1.384 . S
H1878 C1884 0.930 . S
H1879 C1888 0.930 . S
H1880 C1893 0.929 . S
H1881 C1891 0.929 . S
H1882 C1886 0.929 . S
H1883 C1892 0.929 . S
C1884 H1878 0.930 . S
C1884 C1885 1.367 . S
C1884 C1892 1.378 . S
C1885 C1884 1.367 . S
C1885 C1893 1.433 . S
C1886 H1882 0.929 . S
C1886 C1888 1.378 . S
C1886 C1890 1.350 . S
C1887 C1890 1.463 . S
C1887 C1892 1.350 . S
C1887 N1895 1.427 . S
C1888 H1879 0.930 . S
C1888 C1886 1.378 . S
C1888 C1889 1.367 . S
C1889 C1888 1.367 . S
C1889 C1891 1.433 . S
C1890 C1886 1.350 . S
C1890 C1887 1.463 . S
C1890 N1894 1.427 . S
C1891 H1881 0.929 . S
C1891 C1889 1.433 . S
C1891 N1894 1.384 . S
C1892 H1883 0.929 . S
C1892 C1884 1.378 . S
C1892 C1887 1.350 . S
C1893 H1880 0.929 . S
C1893 C1885 1.433 . S
C1893 N1895 1.384 . S
N1894 C1890 1.427 . S
N1894 C1891 1.384 . S
N1895 C1887 1.427 . S
N1895 C1893 1.384 . S
H1896 C1902 0.930 . S
H1897 C1906 0.930 . S
H1898 C1911 0.929 . S
H1899 C1909 0.929 . S
H1900 C1904 0.929 . S
H1901 C1910 0.929 . S
C1902 H1896 0.930 . S
C1902 C1903 1.367 . S
C1902 C1910 1.378 . S
C1903 C1902 1.367 . S
C1903 C1911 1.433 . S
C1904 H1900 0.929 . S
C1904 C1906 1.378 . S
C1904 C1908 1.350 . S
C1905 C1908 1.463 . S
C1905 C1910 1.350 . S
C1905 N1913 1.427 . S
C1906 H1897 0.930 . S
C1906 C1904 1.378 . S
C1906 C1907 1.367 . S
C1907 C1906 1.367 . S
C1907 C1909 1.433 . S
C1908 C1904 1.350 . S
C1908 C1905 1.463 . S
C1908 N1912 1.427 . S
C1909 H1899 0.929 . S
C1909 C1907 1.433 . S
C1909 N1912 1.384 . S
C1910 H1901 0.929 . S
C1910 C1902 1.378 . S
C1910 C1905 1.350 . S
C1911 H1898 0.929 . S
C1911 C1903 1.433 . S
C1911 N1913 1.384 . S
N1912 C1908 1.427 . S
N1912 C1909 1.384 . S
N1913 C1905 1.427 . S
N1913 C1911 1.384 . S
H1914 C1920 0.930 . S
H1915 C1924 0.930 . S
H1916 C1929 0.929 . S
H1917 C1927 0.929 . S
H1918 C1922 0.929 . S
H1919 C1928 0.929 . S
C1920 H1914 0.930 . S
C1920 C1921 1.367 . S
C1920 C1928 1.378 . S
C1921 C1920 1.367 . S
C1921 C1929 1.433 . S
C1922 H1918 0.929 . S
C1922 C1924 1.378 . S
C1922 C1926 1.350 . S
C1923 C1926 1.463 . S
C1923 C1928 1.350 . S
C1923 N1931 1.427 . S
C1924 H1915 0.930 . S
C1924 C1922 1.378 . S
C1924 C1925 1.367 . S
C1925 C1924 1.367 . S
C1925 C1927 1.433 . S
C1926 C1922 1.350 . S
C1926 C1923 1.463 . S
C1926 N1930 1.427 . S
C1927 H1917 0.929 . S
C1927 C1925 1.433 . S
C1927 N1930 1.384 . S
C1928 H1919 0.929 . S
C1928 C1920 1.378 . S
C1928 C1923 1.350 . S
C1929 H1916 0.929 . S
C1929 C1921 1.433 . S
C1929 N1931 1.384 . S
N1930 C1926 1.427 . S
N1930 C1927 1.384 . S
N1931 C1923 1.427 . S
N1931 C1929 1.384 . S
H1932 C1938 0.930 . S
H1933 C1942 0.930 . S
H1934 C1947 0.929 . S
H1935 C1945 0.929 . S
H1936 C1940 0.929 . S
H1937 C1946 0.929 . S
C1938 H1932 0.930 . S
C1938 C1939 1.367 . S
C1938 C1946 1.378 . S
C1939 C1938 1.367 . S
C1939 C1947 1.433 . S
C1940 H1936 0.929 . S
C1940 C1942 1.378 . S
C1940 C1944 1.350 . S
C1941 C1944 1.463 . S
C1941 C1946 1.350 . S
C1941 N1949 1.427 . S
C1942 H1933 0.930 . S
C1942 C1940 1.378 . S
C1942 C1943 1.367 . S
C1943 C1942 1.367 . S
C1943 C1945 1.433 . S
C1944 C1940 1.350 . S
C1944 C1941 1.463 . S
C1944 N1948 1.427 . S
C1945 H1935 0.929 . S
C1945 C1943 1.433 . S
C1945 N1948 1.384 . S
C1946 H1937 0.929 . S
C1946 C1938 1.378 . S
C1946 C1941 1.350 . S
C1947 H1934 0.929 . S
C1947 C1939 1.433 . S
C1947 N1949 1.384 . S
N1948 C1944 1.427 . S
N1948 C1945 1.384 . S
N1949 C1941 1.427 . S
N1949 C1947 1.384 . S
H1950 C1956 0.930 . S
H1951 C1960 0.930 . S
H1952 C1965 0.929 . S
H1953 C1963 0.929 . S
H1954 C1958 0.929 . S
H1955 C1964 0.929 . S
C1956 H1950 0.930 . S
C1956 C1957 1.367 . S
C1956 C1964 1.378 . S
C1957 C1956 1.367 . S
C1957 C1965 1.433 . S
C1958 H1954 0.929 . S
C1958 C1960 1.378 . S
C1958 C1962 1.350 . S
C1959 C1962 1.463 . S
C1959 C1964 1.350 . S
C1959 N1967 1.427 . S
C1960 H1951 0.930 . S
C1960 C1958 1.378 . S
C1960 C1961 1.367 . S
C1961 C1960 1.367 . S
C1961 C1963 1.433 . S
C1962 C1958 1.350 . S
C1962 C1959 1.463 . S
C1962 N1966 1.427 . S
C1963 H1953 0.929 . S
C1963 C1961 1.433 . S
C1963 N1966 1.384 . S
C1964 H1955 0.929 . S
C1964 C1956 1.378 . S
C1964 C1959 1.350 . S
C1965 H1952 0.929 . S
C1965 C1957 1.433 . S
C1965 N1967 1.384 . S
N1966 C1962 1.427 . S
N1966 C1963 1.384 . S
N1967 C1959 1.427 . S
N1967 C1965 1.384 . S
H1968 C1974 0.930 . S
H1969 C1978 0.930 . S
H1970 C1983 0.929 . S
H1971 C1981 0.929 . S
H1972 C1976 0.929 . S
H1973 C1982 0.929 . S
C1974 H1968 0.930 . S
C1974 C1975 1.367 . S
C1974 C1982 1.378 . S
C1975 C1974 1.367 . S
C1975 C1983 1.433 . S
C1976 H1972 0.929 . S
C1976 C1978 1.378 . S
C1976 C1980 1.350 . S
C1977 C1980 1.463 . S
C1977 C1982 1.350 . S
C1977 N1985 1.427 . S
C1978 H1969 0.930 . S
C1978 C1976 1.378 . S
C1978 C1979 1.367 . S
C1979 C1978 1.367 . S
C1979 C1981 1.433 . S
C1980 C1976 1.350 . S
C1980 C1977 1.463 . S
C1980 N1984 1.427 . S
C1981 H1971 0.929 . S
C1981 C1979 1.433 . S
C1981 N1984 1.384 . S
C1982 H1973 0.929 . S
C1982 C1974 1.378 . S
C1982 C1977 1.350 . S
C1983 H1970 0.929 . S
C1983 C1975 1.433 . S
C1983 N1985 1.384 . S
N1984 C1980 1.427 . S
N1984 C1981 1.384 . S
N1985 C1977 1.427 . S
N1985 C1983 1.384 . S
H1986 C1992 0.930 . S
H1987 C1996 0.930 . S
H1988 C2001 0.929 . S
H1989 C1999 0.929 . S
H1990 C1994 0.929 . S
H1991 C2000 0.929 . S
C1992 H1986 0.930 . S
C1992 C1993 1.367 . S
C1992 C2000 1.378 . S
C1993 C1992 1.367 . S
C1993 C2001 1.433 . S
C1994 H1990 0.929 . S
C1994 C1996 1.378 . S
C1994 C1998 1.350 . S
C1995 C1998 1.463 . S
C1995 C2000 1.350 . S
C1995 N2003 1.427 . S
C1996 H1987 0.930 . S
C1996 C1994 1.378 . S
C1996 C1997 1.367 . S
C1997 C1996 1.367 . S
C1997 C1999 1.433 . S
C1998 C1994 1.350 . S
C1998 C1995 1.463 . S
C1998 N2002 1.427 . S
C1999 H1989 0.929 . S
C1999 C1997 1.433 . S
C1999 N2002 1.384 . S
C2000 H1991 0.929 . S
C2000 C1992 1.378 . S
C2000 C1995 1.350 . S
C2001 H1988 0.929 . S
C2001 C1993 1.433 . S
C2001 N2003 1.384 . S
N2002 C1998 1.427 . S
N2002 C1999 1.384 . S
N2003 C1995 1.427 . S
N2003 C2001 1.384 . S
H2004 C2010 0.930 . S
H2005 C2014 0.930 . S
H2006 C2019 0.929 . S
H2007 C2017 0.929 . S
H2008 C2012 0.929 . S
H2009 C2018 0.929 . S
C2010 H2004 0.930 . S
C2010 C2011 1.367 . S
C2010 C2018 1.378 . S
C2011 C2010 1.367 . S
C2011 C2019 1.433 . S
C2012 H2008 0.929 . S
C2012 C2014 1.378 . S
C2012 C2016 1.350 . S
C2013 C2016 1.463 . S
C2013 C2018 1.350 . S
C2013 N2021 1.427 . S
C2014 H2005 0.930 . S
C2014 C2012 1.378 . S
C2014 C2015 1.367 . S
C2015 C2014 1.367 . S
C2015 C2017 1.433 . S
C2016 C2012 1.350 . S
C2016 C2013 1.463 . S
C2016 N2020 1.427 . S
C2017 H2007 0.929 . S
C2017 C2015 1.433 . S
C2017 N2020 1.384 . S
C2018 H2009 0.929 . S
C2018 C2010 1.378 . S
C2018 C2013 1.350 . S
C2019 H2006 0.929 . S
C2019 C2011 1.433 . S
C2019 N2021 1.384 . S
N2020 C2016 1.427 . S
N2020 C2017 1.384 . S
N2021 C2013 1.427 . S
N2021 C2019 1.384 . S
H2022 C2028 0.930 . S
H2023 C2032 0.930 . S
H2024 C2037 0.929 . S
H2025 C2035 0.929 . S
H2026 C2030 0.929 . S
H2027 C2036 0.929 . S
C2028 H2022 0.930 . S
C2028 C2029 1.367 . S
C2028 C2036 1.378 . S
C2029 C2028 1.367 . S
C2029 C2037 1.433 . S
C2030 H2026 0.929 . S
C2030 C2032 1.378 . S
C2030 C2034 1.350 . S
C2031 C2034 1.463 . S
C2031 C2036 1.350 . S
C2031 N2039 1.427 . S
C2032 H2023 0.930 . S
C2032 C2030 1.378 . S
C2032 C2033 1.367 . S
C2033 C2032 1.367 . S
C2033 C2035 1.433 . S
C2034 C2030 1.350 . S
C2034 C2031 1.463 . S
C2034 N2038 1.427 . S
C2035 H2025 0.929 . S
C2035 C2033 1.433 . S
C2035 N2038 1.384 . S
C2036 H2027 0.929 . S
C2036 C2028 1.378 . S
C2036 C2031 1.350 . S
C2037 H2024 0.929 . S
C2037 C2029 1.433 . S
C2037 N2039 1.384 . S
N2038 C2034 1.427 . S
N2038 C2035 1.384 . S
N2039 C2031 1.427 . S
N2039 C2037 1.384 . S
H2040 C2046 0.930 . S
H2041 C2050 0.930 . S
H2042 C2055 0.929 . S
H2043 C2053 0.929 . S
H2044 C2048 0.929 . S
H2045 C2054 0.929 . S
C2046 H2040 0.930 . S
C2046 C2047 1.367 . S
C2046 C2054 1.378 . S
C2047 C2046 1.367 . S
C2047 C2055 1.433 . S
C2048 H2044 0.929 . S
C2048 C2050 1.378 . S
C2048 C2052 1.350 . S
C2049 C2052 1.463 . S
C2049 C2054 1.350 . S
C2049 N2057 1.427 . S
C2050 H2041 0.930 . S
C2050 C2048 1.378 . S
C2050 C2051 1.367 . S
C2051 C2050 1.367 . S
C2051 C2053 1.433 . S
C2052 C2048 1.350 . S
C2052 C2049 1.463 . S
C2052 N2056 1.427 . S
C2053 H2043 0.929 . S
C2053 C2051 1.433 . S
C2053 N2056 1.384 . S
C2054 H2045 0.929 . S
C2054 C2046 1.378 . S
C2054 C2049 1.350 . S
C2055 H2042 0.929 . S
C2055 C2047 1.433 . S
C2055 N2057 1.384 . S
N2056 C2052 1.427 . S
N2056 C2053 1.384 . S
N2057 C2049 1.427 . S
N2057 C2055 1.384 . S
H2058 C2064 0.930 . S
H2059 C2068 0.930 . S
H2060 C2073 0.929 . S
H2061 C2071 0.929 . S
H2062 C2066 0.929 . S
H2063 C2072 0.929 . S
C2064 H2058 0.930 . S
C2064 C2065 1.367 . S
C2064 C2072 1.378 . S
C2065 C2064 1.367 . S
C2065 C2073 1.433 . S
C2066 H2062 0.929 . S
C2066 C2068 1.378 . S
C2066 C2070 1.350 . S
C2067 C2070 1.463 . S
C2067 C2072 1.350 . S
C2067 N2075 1.427 . S
C2068 H2059 0.930 . S
C2068 C2066 1.378 . S
C2068 C2069 1.367 . S
C2069 C2068 1.367 . S
C2069 C2071 1.433 . S
C2070 C2066 1.350 . S
C2070 C2067 1.463 . S
C2070 N2074 1.427 . S
C2071 H2061 0.929 . S
C2071 C2069 1.433 . S
C2071 N2074 1.384 . S
C2072 H2063 0.929 . S
C2072 C2064 1.378 . S
C2072 C2067 1.350 . S
C2073 H2060 0.929 . S
C2073 C2065 1.433 . S
C2073 N2075 1.384 . S
N2074 C2070 1.427 . S
N2074 C2071 1.384 . S
N2075 C2067 1.427 . S
N2075 C2073 1.384 . S
H2076 C2082 0.930 . S
H2077 C2086 0.930 . S
H2078 C2091 0.929 . S
H2079 C2089 0.929 . S
H2080 C2084 0.929 . S
H2081 C2090 0.929 . S
C2082 H2076 0.930 . S
C2082 C2083 1.367 . S
C2082 C2090 1.378 . S
C2083 C2082 1.367 . S
C2083 C2091 1.433 . S
C2084 H2080 0.929 . S
C2084 C2086 1.378 . S
C2084 C2088 1.350 . S
C2085 C2088 1.463 . S
C2085 C2090 1.350 . S
C2085 N2093 1.427 . S
C2086 H2077 0.930 . S
C2086 C2084 1.378 . S
C2086 C2087 1.367 . S
C2087 C2086 1.367 . S
C2087 C2089 1.433 . S
C2088 C2084 1.350 . S
C2088 C2085 1.463 . S
C2088 N2092 1.427 . S
C2089 H2079 0.929 . S
C2089 C2087 1.433 . S
C2089 N2092 1.384 . S
C2090 H2081 0.929 . S
C2090 C2082 1.378 . S
C2090 C2085 1.350 . S
C2091 H2078 0.929 . S
C2091 C2083 1.433 . S
C2091 N2093 1.384 . S
N2092 C2088 1.427 . S
N2092 C2089 1.384 . S
N2093 C2085 1.427 . S
N2093 C2091 1.384 . S
H2094 C2100 0.930 . S
H2095 C2104 0.930 . S
H2096 C2109 0.929 . S
H2097 C2107 0.929 . S
H2098 C2102 0.929 . S
H2099 C2108 0.929 . S
C2100 H2094 0.930 . S
C2100 C2101 1.367 . S
C2100 C2108 1.378 . S
C2101 C2100 1.367 . S
C2101 C2109 1.433 . S
C2102 H2098 0.929 . S
C2102 C2104 1.378 . S
C2102 C2106 1.350 . S
C2103 C2106 1.463 . S
C2103 C2108 1.350 . S
C2103 N2111 1.427 . S
C2104 H2095 0.930 . S
C2104 C2102 1.378 . S
C2104 C2105 1.367 . S
C2105 C2104 1.367 . S
C2105 C2107 1.433 . S
C2106 C2102 1.350 . S
C2106 C2103 1.463 . S
C2106 N2110 1.427 . S
C2107 H2097 0.929 . S
C2107 C2105 1.433 . S
C2107 N2110 1.384 . S
C2108 H2099 0.929 . S
C2108 C2100 1.378 . S
C2108 C2103 1.350 . S
C2109 H2096 0.929 . S
C2109 C2101 1.433 . S
C2109 N2111 1.384 . S
N2110 C2106 1.427 . S
N2110 C2107 1.384 . S
N2111 C2103 1.427 . S
N2111 C2109 1.384 . S
H2112 C2118 0.930 . S
H2113 C2122 0.930 . S
H2114 C2127 0.929 . S
H2115 C2125 0.929 . S
H2116 C2120 0.929 . S
H2117 C2126 0.929 . S
C2118 H2112 0.930 . S
C2118 C2119 1.367 . S
C2118 C2126 1.378 . S
C2119 C2118 1.367 . S
C2119 C2127 1.433 . S
C2120 H2116 0.929 . S
C2120 C2122 1.378 . S
C2120 C2124 1.350 . S
C2121 C2124 1.463 . S
C2121 C2126 1.350 . S
C2121 N2129 1.427 . S
C2122 H2113 0.930 . S
C2122 C2120 1.378 . S
C2122 C2123 1.367 . S
C2123 C2122 1.367 . S
C2123 C2125 1.433 . S
C2124 C2120 1.350 . S
C2124 C2121 1.463 . S
C2124 N2128 1.427 . S
C2125 H2115 0.929 . S
C2125 C2123 1.433 . S
C2125 N2128 1.384 . S
C2126 H2117 0.929 . S
C2126 C2118 1.378 . S
C2126 C2121 1.350 . S
C2127 H2114 0.929 . S
C2127 C2119 1.433 . S
C2127 N2129 1.384 . S
N2128 C2124 1.427 . S
N2128 C2125 1.384 . S
N2129 C2121 1.427 . S
N2129 C2127 1.384 . S
H2130 C2136 0.930 . S
H2131 C2140 0.930 . S
H2132 C2145 0.929 . S
H2133 C2143 0.929 . S
H2134 C2138 0.929 . S
H2135 C2144 0.929 . S
C2136 H2130 0.930 . S
C2136 C2137 1.367 . S
C2136 C2144 1.378 . S
C2137 C2136 1.367 . S
C2137 C2145 1.433 . S
C2138 H2134 0.929 . S
C2138 C2140 1.378 . S
C2138 C2142 1.350 . S
C2139 C2142 1.463 . S
C2139 C2144 1.350 . S
C2139 N2147 1.427 . S
C2140 H2131 0.930 . S
C2140 C2138 1.378 . S
C2140 C2141 1.367 . S
C2141 C2140 1.367 . S
C2141 C2143 1.433 . S
C2142 C2138 1.350 . S
C2142 C2139 1.463 . S
C2142 N2146 1.427 . S
C2143 H2133 0.929 . S
C2143 C2141 1.433 . S
C2143 N2146 1.384 . S
C2144 H2135 0.929 . S
C2144 C2136 1.378 . S
C2144 C2139 1.350 . S
C2145 H2132 0.929 . S
C2145 C2137 1.433 . S
C2145 N2147 1.384 . S
N2146 C2142 1.427 . S
N2146 C2143 1.384 . S
N2147 C2139 1.427 . S
N2147 C2145 1.384 . S
H2148 C2154 0.930 . S
H2149 C2158 0.930 . S
H2150 C2163 0.929 . S
H2151 C2161 0.929 . S
H2152 C2156 0.929 . S
H2153 C2162 0.929 . S
C2154 H2148 0.930 . S
C2154 C2155 1.367 . S
C2154 C2162 1.378 . S
C2155 C2154 1.367 . S
C2155 C2163 1.433 . S
C2156 H2152 0.929 . S
C2156 C2158 1.378 . S
C2156 C2160 1.350 . S
C2157 C2160 1.463 . S
C2157 C2162 1.350 . S
C2157 N2165 1.427 . S
C2158 H2149 0.930 . S
C2158 C2156 1.378 . S
C2158 C2159 1.367 . S
C2159 C2158 1.367 . S
C2159 C2161 1.433 . S
C2160 C2156 1.350 . S
C2160 C2157 1.463 . S
C2160 N2164 1.427 . S
C2161 H2151 0.929 . S
C2161 C2159 1.433 . S
C2161 N2164 1.384 . S
C2162 H2153 0.929 . S
C2162 C2154 1.378 . S
C2162 C2157 1.350 . S
C2163 H2150 0.929 . S
C2163 C2155 1.433 . S
C2163 N2165 1.384 . S
N2164 C2160 1.427 . S
N2164 C2161 1.384 . S
N2165 C2157 1.427 . S
N2165 C2163 1.384 . S
H2166 C2172 0.930 . S
H2167 C2176 0.930 . S
H2168 C2181 0.929 . S
H2169 C2179 0.929 . S
H2170 C2174 0.929 . S
H2171 C2180 0.929 . S
C2172 H2166 0.930 . S
C2172 C2173 1.367 . S
C2172 C2180 1.378 . S
C2173 C2172 1.367 . S
C2173 C2181 1.433 . S
C2174 H2170 0.929 . S
C2174 C2176 1.378 . S
C2174 C2178 1.350 . S
C2175 C2178 1.463 . S
C2175 C2180 1.350 . S
C2175 N2183 1.427 . S
C2176 H2167 0.930 . S
C2176 C2174 1.378 . S
C2176 C2177 1.367 . S
C2177 C2176 1.367 . S
C2177 C2179 1.433 . S
C2178 C2174 1.350 . S
C2178 C2175 1.463 . S
C2178 N2182 1.427 . S
C2179 H2169 0.929 . S
C2179 C2177 1.433 . S
C2179 N2182 1.384 . S
C2180 H2171 0.929 . S
C2180 C2172 1.378 . S
C2180 C2175 1.350 . S
C2181 H2168 0.929 . S
C2181 C2173 1.433 . S
C2181 N2183 1.384 . S
N2182 C2178 1.427 . S
N2182 C2179 1.384 . S
N2183 C2175 1.427 . S
N2183 C2181 1.384 . S
H2184 C2190 0.930 . S
H2185 C2194 0.930 . S
H2186 C2199 0.929 . S
H2187 C2197 0.929 . S
H2188 C2192 0.929 . S
H2189 C2198 0.929 . S
C2190 H2184 0.930 . S
C2190 C2191 1.367 . S
C2190 C2198 1.378 . S
C2191 C2190 1.367 . S
C2191 C2199 1.433 . S
C2192 H2188 0.929 . S
C2192 C2194 1.378 . S
C2192 C2196 1.350 . S
C2193 C2196 1.463 . S
C2193 C2198 1.350 . S
C2193 N2201 1.427 . S
C2194 H2185 0.930 . S
C2194 C2192 1.378 . S
C2194 C2195 1.367 . S
C2195 C2194 1.367 . S
C2195 C2197 1.433 . S
C2196 C2192 1.350 . S
C2196 C2193 1.463 . S
C2196 N2200 1.427 . S
C2197 H2187 0.929 . S
C2197 C2195 1.433 . S
C2197 N2200 1.384 . S
C2198 H2189 0.929 . S
C2198 C2190 1.378 . S
C2198 C2193 1.350 . S
C2199 H2186 0.929 . S
C2199 C2191 1.433 . S
C2199 N2201 1.384 . S
N2200 C2196 1.427 . S
N2200 C2197 1.384 . S
N2201 C2193 1.427 . S
N2201 C2199 1.384 . S
H2202 C2208 0.930 . S
H2203 C2212 0.930 . S
H2204 C2217 0.929 . S
H2205 C2215 0.929 . S
H2206 C2210 0.929 . S
H2207 C2216 0.929 . S
C2208 H2202 0.930 . S
C2208 C2209 1.367 . S
C2208 C2216 1.378 . S
C2209 C2208 1.367 . S
C2209 C2217 1.433 . S
C2210 H2206 0.929 . S
C2210 C2212 1.378 . S
C2210 C2214 1.350 . S
C2211 C2214 1.463 . S
C2211 C2216 1.350 . S
C2211 N2219 1.427 . S
C2212 H2203 0.930 . S
C2212 C2210 1.378 . S
C2212 C2213 1.367 . S
C2213 C2212 1.367 . S
C2213 C2215 1.433 . S
C2214 C2210 1.350 . S
C2214 C2211 1.463 . S
C2214 N2218 1.427 . S
C2215 H2205 0.929 . S
C2215 C2213 1.433 . S
C2215 N2218 1.384 . S
C2216 H2207 0.929 . S
C2216 C2208 1.378 . S
C2216 C2211 1.350 . S
C2217 H2204 0.929 . S
C2217 C2209 1.433 . S
C2217 N2219 1.384 . S
N2218 C2214 1.427 . S
N2218 C2215 1.384 . S
N2219 C2211 1.427 . S
N2219 C2217 1.384 . S
H2220 C2226 0.930 . S
H2221 C2230 0.930 . S
H2222 C2235 0.929 . S
H2223 C2233 0.929 . S
H2224 C2228 0.929 . S
H2225 C2234 0.929 . S
C2226 H2220 0.930 . S
C2226 C2227 1.367 . S
C2226 C2234 1.378 . S
C2227 C2226 1.367 . S
C2227 C2235 1.433 . S
C2228 H2224 0.929 . S
C2228 C2230 1.378 . S
C2228 C2232 1.350 . S
C2229 C2232 1.463 . S
C2229 C2234 1.350 . S
C2229 N2237 1.427 . S
C2230 H2221 0.930 . S
C2230 C2228 1.378 . S
C2230 C2231 1.367 . S
C2231 C2230 1.367 . S
C2231 C2233 1.433 . S
C2232 C2228 1.350 . S
C2232 C2229 1.463 . S
C2232 N2236 1.427 . S
C2233 H2223 0.929 . S
C2233 C2231 1.433 . S
C2233 N2236 1.384 . S
C2234 H2225 0.929 . S
C2234 C2226 1.378 . S
C2234 C2229 1.350 . S
C2235 H2222 0.929 . S
C2235 C2227 1.433 . S
C2235 N2237 1.384 . S
N2236 C2232 1.427 . S
N2236 C2233 1.384 . S
N2237 C2229 1.427 . S
N2237 C2235 1.384 . S
H2238 C2244 0.930 . S
H2239 C2248 0.930 . S
H2240 C2253 0.929 . S
H2241 C2251 0.929 . S
H2242 C2246 0.929 . S
H2243 C2252 0.929 . S
C2244 H2238 0.930 . S
C2244 C2245 1.367 . S
C2244 C2252 1.378 . S
C2245 C2244 1.367 . S
C2245 C2253 1.433 . S
C2246 H2242 0.929 . S
C2246 C2248 1.378 . S
C2246 C2250 1.350 . S
C2247 C2250 1.463 . S
C2247 C2252 1.350 . S
C2247 N2255 1.427 . S
C2248 H2239 0.930 . S
C2248 C2246 1.378 . S
C2248 C2249 1.367 . S
C2249 C2248 1.367 . S
C2249 C2251 1.433 . S
C2250 C2246 1.350 . S
C2250 C2247 1.463 . S
C2250 N2254 1.427 . S
C2251 H2241 0.929 . S
C2251 C2249 1.433 . S
C2251 N2254 1.384 . S
C2252 H2243 0.929 . S
C2252 C2244 1.378 . S
C2252 C2247 1.350 . S
C2253 H2240 0.929 . S
C2253 C2245 1.433 . S
C2253 N2255 1.384 . S
N2254 C2250 1.427 . S
N2254 C2251 1.384 . S
N2255 C2247 1.427 . S
N2255 C2253 1.384 . S
H2256 C2262 0.930 . S
H2257 C2266 0.930 . S
H2258 C2271 0.929 . S
H2259 C2269 0.929 . S
H2260 C2264 0.929 . S
H2261 C2270 0.929 . S
C2262 H2256 0.930 . S
C2262 C2263 1.367 . S
C2262 C2270 1.378 . S
C2263 C2262 1.367 . S
C2263 C2271 1.433 . S
C2264 H2260 0.929 . S
C2264 C2266 1.378 . S
C2264 C2268 1.350 . S
C2265 C2268 1.463 . S
C2265 C2270 1.350 . S
C2265 N2273 1.427 . S
C2266 H2257 0.930 . S
C2266 C2264 1.378 . S
C2266 C2267 1.367 . S
C2267 C2266 1.367 . S
C2267 C2269 1.433 . S
C2268 C2264 1.350 . S
C2268 C2265 1.463 . S
C2268 N2272 1.427 . S
C2269 H2259 0.929 . S
C2269 C2267 1.433 . S
C2269 N2272 1.384 . S
C2270 H2261 0.929 . S
C2270 C2262 1.378 . S
C2270 C2265 1.350 . S
C2271 H2258 0.929 . S
C2271 C2263 1.433 . S
C2271 N2273 1.384 . S
N2272 C2268 1.427 . S
N2272 C2269 1.384 . S
N2273 C2265 1.427 . S
N2273 C2271 1.384 . S
H2274 C2280 0.930 . S
H2275 C2284 0.930 . S
H2276 C2289 0.929 . S
H2277 C2287 0.929 . S
H2278 C2282 0.929 . S
H2279 C2288 0.929 . S
C2280 H2274 0.930 . S
C2280 C2281 1.367 . S
C2280 C2288 1.378 . S
C2281 C2280 1.367 . S
C2281 C2289 1.433 . S
C2282 H2278 0.929 . S
C2282 C2284 1.378 . S
C2282 C2286 1.350 . S
C2283 C2286 1.463 . S
C2283 C2288 1.350 . S
C2283 N2291 1.427 . S
C2284 H2275 0.930 . S
C2284 C2282 1.378 . S
C2284 C2285 1.367 . S
C2285 C2284 1.367 . S
C2285 C2287 1.433 . S
C2286 C2282 1.350 . S
C2286 C2283 1.463 . S
C2286 N2290 1.427 . S
C2287 H2277 0.929 . S
C2287 C2285 1.433 . S
C2287 N2290 1.384 . S
C2288 H2279 0.929 . S
C2288 C2280 1.378 . S
C2288 C2283 1.350 . S
C2289 H2276 0.929 . S
C2289 C2281 1.433 . S
C2289 N2291 1.384 . S
N2290 C2286 1.427 . S
N2290 C2287 1.384 . S
N2291 C2283 1.427 . S
N2291 C2289 1.384 . S
H2292 C2298 0.930 . S
H2293 C2302 0.930 . S
H2294 C2307 0.929 . S
H2295 C2305 0.929 . S
H2296 C2300 0.929 . S
H2297 C2306 0.929 . S
C2298 H2292 0.930 . S
C2298 C2299 1.367 . S
C2298 C2306 1.378 . S
C2299 C2298 1.367 . S
C2299 C2307 1.433 . S
C2300 H2296 0.929 . S
C2300 C2302 1.378 . S
C2300 C2304 1.350 . S
C2301 C2304 1.463 . S
C2301 C2306 1.350 . S
C2301 N2309 1.427 . S
C2302 H2293 0.930 . S
C2302 C2300 1.378 . S
C2302 C2303 1.367 . S
C2303 C2302 1.367 . S
C2303 C2305 1.433 . S
C2304 C2300 1.350 . S
C2304 C2301 1.463 . S
C2304 N2308 1.427 . S
C2305 H2295 0.929 . S
C2305 C2303 1.433 . S
C2305 N2308 1.384 . S
C2306 H2297 0.929 . S
C2306 C2298 1.378 . S
C2306 C2301 1.350 . S
C2307 H2294 0.929 . S
C2307 C2299 1.433 . S
C2307 N2309 1.384 . S
N2308 C2304 1.427 . S
N2308 C2305 1.384 . S
N2309 C2301 1.427 . S
N2309 C2307 1.384 . S
H2310 C2316 0.930 . S
H2311 C2320 0.930 . S
H2312 C2325 0.929 . S
H2313 C2323 0.929 . S
H2314 C2318 0.929 . S
H2315 C2324 0.929 . S
C2316 H2310 0.930 . S
C2316 C2317 1.367 . S
C2316 C2324 1.378 . S
C2317 C2316 1.367 . S
C2317 C2325 1.433 . S
C2318 H2314 0.929 . S
C2318 C2320 1.378 . S
C2318 C2322 1.350 . S
C2319 C2322 1.463 . S
C2319 C2324 1.350 . S
C2319 N2327 1.427 . S
C2320 H2311 0.930 . S
C2320 C2318 1.378 . S
C2320 C2321 1.367 . S
C2321 C2320 1.367 . S
C2321 C2323 1.433 . S
C2322 C2318 1.350 . S
C2322 C2319 1.463 . S
C2322 N2326 1.427 . S
C2323 H2313 0.929 . S
C2323 C2321 1.433 . S
C2323 N2326 1.384 . S
C2324 H2315 0.929 . S
C2324 C2316 1.378 . S
C2324 C2319 1.350 . S
C2325 H2312 0.929 . S
C2325 C2317 1.433 . S
C2325 N2327 1.384 . S
N2326 C2322 1.427 . S
N2326 C2323 1.384 . S
N2327 C2319 1.427 . S
N2327 C2325 1.384 . S
H2328 C2334 0.930 . S
H2329 C2338 0.930 . S
H2330 C2343 0.929 . S
H2331 C2341 0.929 . S
H2332 C2336 0.929 . S
H2333 C2342 0.929 . S
C2334 H2328 0.930 . S
C2334 C2335 1.367 . S
C2334 C2342 1.378 . S
C2335 C2334 1.367 . S
C2335 C2343 1.433 . S
C2336 H2332 0.929 . S
C2336 C2338 1.378 . S
C2336 C2340 1.350 . S
C2337 C2340 1.463 . S
C2337 C2342 1.350 . S
C2337 N2345 1.427 . S
C2338 H2329 0.930 . S
C2338 C2336 1.378 . S
C2338 C2339 1.367 . S
C2339 C2338 1.367 . S
C2339 C2341 1.433 . S
C2340 C2336 1.350 . S
C2340 C2337 1.463 . S
C2340 N2344 1.427 . S
C2341 H2331 0.929 . S
C2341 C2339 1.433 . S
C2341 N2344 1.384 . S
C2342 H2333 0.929 . S
C2342 C2334 1.378 . S
C2342 C2337 1.350 . S
C2343 H2330 0.929 . S
C2343 C2335 1.433 . S
C2343 N2345 1.384 . S
N2344 C2340 1.427 . S
N2344 C2341 1.384 . S
N2345 C2337 1.427 . S
N2345 C2343 1.384 . S
H2346 C2352 0.930 . S
H2347 C2356 0.930 . S
H2348 C2361 0.929 . S
H2349 C2359 0.929 . S
H2350 C2354 0.929 . S
H2351 C2360 0.929 . S
C2352 H2346 0.930 . S
C2352 C2353 1.367 . S
C2352 C2360 1.378 . S
C2353 C2352 1.367 . S
C2353 C2361 1.433 . S
C2354 H2350 0.929 . S
C2354 C2356 1.378 . S
C2354 C2358 1.350 . S
C2355 C2358 1.463 . S
C2355 C2360 1.350 . S
C2355 N2363 1.427 . S
C2356 H2347 0.930 . S
C2356 C2354 1.378 . S
C2356 C2357 1.367 . S
C2357 C2356 1.367 . S
C2357 C2359 1.433 . S
C2358 C2354 1.350 . S
C2358 C2355 1.463 . S
C2358 N2362 1.427 . S
C2359 H2349 0.929 . S
C2359 C2357 1.433 . S
C2359 N2362 1.384 . S
C2360 H2351 0.929 . S
C2360 C2352 1.378 . S
C2360 C2355 1.350 . S
C2361 H2348 0.929 . S
C2361 C2353 1.433 . S
C2361 N2363 1.384 . S
N2362 C2358 1.427 . S
N2362 C2359 1.384 . S
N2363 C2355 1.427 . S
N2363 C2361 1.384 . S
H2364 C2370 0.930 . S
H2365 C2374 0.930 . S
H2366 C2379 0.929 . S
H2367 C2377 0.929 . S
H2368 C2372 0.929 . S
H2369 C2378 0.929 . S
C2370 H2364 0.930 . S
C2370 C2371 1.367 . S
C2370 C2378 1.378 . S
C2371 C2370 1.367 . S
C2371 C2379 1.433 . S
C2372 H2368 0.929 . S
C2372 C2374 1.378 . S
C2372 C2376 1.350 . S
C2373 C2376 1.463 . S
C2373 C2378 1.350 . S
C2373 N2381 1.427 . S
C2374 H2365 0.930 . S
C2374 C2372 1.378 . S
C2374 C2375 1.367 . S
C2375 C2374 1.367 . S
C2375 C2377 1.433 . S
C2376 C2372 1.350 . S
C2376 C2373 1.463 . S
C2376 N2380 1.427 . S
C2377 H2367 0.929 . S
C2377 C2375 1.433 . S
C2377 N2380 1.384 . S
C2378 H2369 0.929 . S
C2378 C2370 1.378 . S
C2378 C2373 1.350 . S
C2379 H2366 0.929 . S
C2379 C2371 1.433 . S
C2379 N2381 1.384 . S
N2380 C2376 1.427 . S
N2380 C2377 1.384 . S
N2381 C2373 1.427 . S
N2381 C2379 1.384 . S
H2382 C2388 0.930 . S
H2383 C2392 0.930 . S
H2384 C2397 0.929 . S
H2385 C2395 0.929 . S
H2386 C2390 0.929 . S
H2387 C2396 0.929 . S
C2388 H2382 0.930 . S
C2388 C2389 1.367 . S
C2388 C2396 1.378 . S
C2389 C2388 1.367 . S
C2389 C2397 1.433 . S
C2390 H2386 0.929 . S
C2390 C2392 1.378 . S
C2390 C2394 1.350 . S
C2391 C2394 1.463 . S
C2391 C2396 1.350 . S
C2391 N2399 1.427 . S
C2392 H2383 0.930 . S
C2392 C2390 1.378 . S
C2392 C2393 1.367 . S
C2393 C2392 1.367 . S
C2393 C2395 1.433 . S
C2394 C2390 1.350 . S
C2394 C2391 1.463 . S
C2394 N2398 1.427 . S
C2395 H2385 0.929 . S
C2395 C2393 1.433 . S
C2395 N2398 1.384 . S
C2396 H2387 0.929 . S
C2396 C2388 1.378 . S
C2396 C2391 1.350 . S
C2397 H2384 0.929 . S
C2397 C2389 1.433 . S
C2397 N2399 1.384 . S
N2398 C2394 1.427 . S
N2398 C2395 1.384 . S
N2399 C2391 1.427 . S
N2399 C2397 1.384 . S
H2400 C2406 0.930 . S
H2401 C2410 0.930 . S
H2402 C2415 0.929 . S
H2403 C2413 0.929 . S
H2404 C2408 0.929 . S
H2405 C2414 0.929 . S
C2406 H2400 0.930 . S
C2406 C2407 1.367 . S
C2406 C2414 1.378 . S
C2407 C2406 1.367 . S
C2407 C2415 1.433 . S
C2408 H2404 0.929 . S
C2408 C2410 1.378 . S
C2408 C2412 1.350 . S
C2409 C2412 1.463 . S
C2409 C2414 1.350 . S
C2409 N2417 1.427 . S
C2410 H2401 0.930 . S
C2410 C2408 1.378 . S
C2410 C2411 1.367 . S
C2411 C2410 1.367 . S
C2411 C2413 1.433 . S
C2412 C2408 1.350 . S
C2412 C2409 1.463 . S
C2412 N2416 1.427 . S
C2413 H2403 0.929 . S
C2413 C2411 1.433 . S
C2413 N2416 1.384 . S
C2414 H2405 0.929 . S
C2414 C2406 1.378 . S
C2414 C2409 1.350 . S
C2415 H2402 0.929 . S
C2415 C2407 1.433 . S
C2415 N2417 1.384 . S
N2416 C2412 1.427 . S
N2416 C2413 1.384 . S
N2417 C2409 1.427 . S
N2417 C2415 1.384 . S
H2418 C2424 0.930 . S
H2419 C2428 0.930 . S
H2420 C2433 0.929 . S
H2421 C2431 0.929 . S
H2422 C2426 0.929 . S
H2423 C2432 0.929 . S
C2424 H2418 0.930 . S
C2424 C2425 1.367 . S
C2424 C2432 1.378 . S
C2425 C2424 1.367 . S
C2425 C2433 1.433 . S
C2426 H2422 0.929 . S
C2426 C2428 1.378 . S
C2426 C2430 1.350 . S
C2427 C2430 1.463 . S
C2427 C2432 1.350 . S
C2427 N2435 1.427 . S
C2428 H2419 0.930 . S
C2428 C2426 1.378 . S
C2428 C2429 1.367 . S
C2429 C2428 1.367 . S
C2429 C2431 1.433 . S
C2430 C2426 1.350 . S
C2430 C2427 1.463 . S
C2430 N2434 1.427 . S
C2431 H2421 0.929 . S
C2431 C2429 1.433 . S
C2431 N2434 1.384 . S
C2432 H2423 0.929 . S
C2432 C2424 1.378 . S
C2432 C2427 1.350 . S
C2433 H2420 0.929 . S
C2433 C2425 1.433 . S
C2433 N2435 1.384 . S
N2434 C2430 1.427 . S
N2434 C2431 1.384 . S
N2435 C2427 1.427 . S
N2435 C2433 1.384 . S
H2436 C2442 0.930 . S
H2437 C2446 0.930 . S
H2438 C2451 0.929 . S
H2439 C2449 0.929 . S
H2440 C2444 0.929 . S
H2441 C2450 0.929 . S
C2442 H2436 0.930 . S
C2442 C2443 1.367 . S
C2442 C2450 1.378 . S
C2443 C2442 1.367 . S
C2443 C2451 1.433 . S
C2444 H2440 0.929 . S
C2444 C2446 1.378 . S
C2444 C2448 1.350 . S
C2445 C2448 1.463 . S
C2445 C2450 1.350 . S
C2445 N2453 1.427 . S
C2446 H2437 0.930 . S
C2446 C2444 1.378 . S
C2446 C2447 1.367 . S
C2447 C2446 1.367 . S
C2447 C2449 1.433 . S
C2448 C2444 1.350 . S
C2448 C2445 1.463 . S
C2448 N2452 1.427 . S
C2449 H2439 0.929 . S
C2449 C2447 1.433 . S
C2449 N2452 1.384 . S
C2450 H2441 0.929 . S
C2450 C2442 1.378 . S
C2450 C2445 1.350 . S
C2451 H2438 0.929 . S
C2451 C2443 1.433 . S
C2451 N2453 1.384 . S
N2452 C2448 1.427 . S
N2452 C2449 1.384 . S
N2453 C2445 1.427 . S
N2453 C2451 1.384 . S
H2454 C2460 0.930 . S
H2455 C2464 0.930 . S
H2456 C2469 0.929 . S
H2457 C2467 0.929 . S
H2458 C2462 0.929 . S
H2459 C2468 0.929 . S
C2460 H2454 0.930 . S
C2460 C2461 1.367 . S
C2460 C2468 1.378 . S
C2461 C2460 1.367 . S
C2461 C2469 1.433 . S
C2462 H2458 0.929 . S
C2462 C2464 1.378 . S
C2462 C2466 1.350 . S
C2463 C2466 1.463 . S
C2463 C2468 1.350 . S
C2463 N2471 1.427 . S
C2464 H2455 0.930 . S
C2464 C2462 1.378 . S
C2464 C2465 1.367 . S
C2465 C2464 1.367 . S
C2465 C2467 1.433 . S
C2466 C2462 1.350 . S
C2466 C2463 1.463 . S
C2466 N2470 1.427 . S
C2467 H2457 0.929 . S
C2467 C2465 1.433 . S
C2467 N2470 1.384 . S
C2468 H2459 0.929 . S
C2468 C2460 1.378 . S
C2468 C2463 1.350 . S
C2469 H2456 0.929 . S
C2469 C2461 1.433 . S
C2469 N2471 1.384 . S
N2470 C2466 1.427 . S
N2470 C2467 1.384 . S
N2471 C2463 1.427 . S
N2471 C2469 1.384 . S
H2472 C2478 0.930 . S
H2473 C2482 0.930 . S
H2474 C2487 0.929 . S
H2475 C2485 0.929 . S
H2476 C2480 0.929 . S
H2477 C2486 0.929 . S
C2478 H2472 0.930 . S
C2478 C2479 1.367 . S
C2478 C2486 1.378 . S
C2479 C2478 1.367 . S
C2479 C2487 1.433 . S
C2480 H2476 0.929 . S
C2480 C2482 1.378 . S
C2480 C2484 1.350 . S
C2481 C2484 1.463 . S
C2481 C2486 1.350 . S
C2481 N2489 1.427 . S
C2482 H2473 0.930 . S
C2482 C2480 1.378 . S
C2482 C2483 1.367 . S
C2483 C2482 1.367 . S
C2483 C2485 1.433 . S
C2484 C2480 1.350 . S
C2484 C2481 1.463 . S
C2484 N2488 1.427 . S
C2485 H2475 0.929 . S
C2485 C2483 1.433 . S
C2485 N2488 1.384 . S
C2486 H2477 0.929 . S
C2486 C2478 1.378 . S
C2486 C2481 1.350 . S
C2487 H2474 0.929 . S
C2487 C2479 1.433 . S
C2487 N2489 1.384 . S
N2488 C2484 1.427 . S
N2488 C2485 1.384 . S
N2489 C2481 1.427 . S
N2489 C2487 1.384 . S
H2490 C2496 0.930 . S
H2491 C2500 0.930 . S
H2492 C2505 0.929 . S
H2493 C2503 0.929 . S
H2494 C2498 0.929 . S
H2495 C2504 0.929 . S
C2496 H2490 0.930 . S
C2496 C2497 1.367 . S
C2496 C2504 1.378 . S
C2497 C2496 1.367 . S
C2497 C2505 1.433 . S
C2498 H2494 0.929 . S
C2498 C2500 1.378 . S
C2498 C2502 1.350 . S
C2499 C2502 1.463 . S
C2499 C2504 1.350 . S
C2499 N2507 1.427 . S
C2500 H2491 0.930 . S
C2500 C2498 1.378 . S
C2500 C2501 1.367 . S
C2501 C2500 1.367 . S
C2501 C2503 1.433 . S
C2502 C2498 1.350 . S
C2502 C2499 1.463 . S
C2502 N2506 1.427 . S
C2503 H2493 0.929 . S
C2503 C2501 1.433 . S
C2503 N2506 1.384 . S
C2504 H2495 0.929 . S
C2504 C2496 1.378 . S
C2504 C2499 1.350 . S
C2505 H2492 0.929 . S
C2505 C2497 1.433 . S
C2505 N2507 1.384 . S
N2506 C2502 1.427 . S
N2506 C2503 1.384 . S
N2507 C2499 1.427 . S
N2507 C2505 1.384 . S
H2508 C2514 0.930 . S
H2509 C2518 0.930 . S
H2510 C2523 0.929 . S
H2511 C2521 0.929 . S
H2512 C2516 0.929 . S
H2513 C2522 0.929 . S
C2514 H2508 0.930 . S
C2514 C2515 1.367 . S
C2514 C2522 1.378 . S
C2515 C2514 1.367 . S
C2515 C2523 1.433 . S
C2516 H2512 0.929 . S
C2516 C2518 1.378 . S
C2516 C2520 1.350 . S
C2517 C2520 1.463 . S
C2517 C2522 1.350 . S
C2517 N2525 1.427 . S
C2518 H2509 0.930 . S
C2518 C2516 1.378 . S
C2518 C2519 1.367 . S
C2519 C2518 1.367 . S
C2519 C2521 1.433 . S
C2520 C2516 1.350 . S
C2520 C2517 1.463 . S
C2520 N2524 1.427 . S
C2521 H2511 0.929 . S
C2521 C2519 1.433 . S
C2521 N2524 1.384 . S
C2522 H2513 0.929 . S
C2522 C2514 1.378 . S
C2522 C2517 1.350 . S
C2523 H2510 0.929 . S
C2523 C2515 1.433 . S
C2523 N2525 1.384 . S
N2524 C2520 1.427 . S
N2524 C2521 1.384 . S
N2525 C2517 1.427 . S
N2525 C2523 1.384 . S
H2526 C2532 0.930 . S
H2527 C2536 0.930 . S
H2528 C2541 0.929 . S
H2529 C2539 0.929 . S
H2530 C2534 0.929 . S
H2531 C2540 0.929 . S
C2532 H2526 0.930 . S
C2532 C2533 1.367 . S
C2532 C2540 1.378 . S
C2533 C2532 1.367 . S
C2533 C2541 1.433 . S
C2534 H2530 0.929 . S
C2534 C2536 1.378 . S
C2534 C2538 1.350 . S
C2535 C2538 1.463 . S
C2535 C2540 1.350 . S
C2535 N2543 1.427 . S
C2536 H2527 0.930 . S
C2536 C2534 1.378 . S
C2536 C2537 1.367 . S
C2537 C2536 1.367 . S
C2537 C2539 1.433 . S
C2538 C2534 1.350 . S
C2538 C2535 1.463 . S
C2538 N2542 1.427 . S
C2539 H2529 0.929 . S
C2539 C2537 1.433 . S
C2539 N2542 1.384 . S
C2540 H2531 0.929 . S
C2540 C2532 1.378 . S
C2540 C2535 1.350 . S
C2541 H2528 0.929 . S
C2541 C2533 1.433 . S
C2541 N2543 1.384 . S
N2542 C2538 1.427 . S
N2542 C2539 1.384 . S
N2543 C2535 1.427 . S
N2543 C2541 1.384 . S
H2544 C2550 0.930 . S
H2545 C2554 0.930 . S
H2546 C2559 0.929 . S
H2547 C2557 0.929 . S
H2548 C2552 0.929 . S
H2549 C2558 0.929 . S
C2550 H2544 0.930 . S
C2550 C2551 1.367 . S
C2550 C2558 1.378 . S
C2551 C2550 1.367 . S
C2551 C2559 1.433 . S
C2552 H2548 0.929 . S
C2552 C2554 1.378 . S
C2552 C2556 1.350 . S
C2553 C2556 1.463 . S
C2553 C2558 1.350 . S
C2553 N2561 1.427 . S
C2554 H2545 0.930 . S
C2554 C2552 1.378 . S
C2554 C2555 1.367 . S
C2555 C2554 1.367 . S
C2555 C2557 1.433 . S
C2556 C2552 1.350 . S
C2556 C2553 1.463 . S
C2556 N2560 1.427 . S
C2557 H2547 0.929 . S
C2557 C2555 1.433 . S
C2557 N2560 1.384 . S
C2558 H2549 0.929 . S
C2558 C2550 1.378 . S
C2558 C2553 1.350 . S
C2559 H2546 0.929 . S
C2559 C2551 1.433 . S
C2559 N2561 1.384 . S
N2560 C2556 1.427 . S
N2560 C2557 1.384 . S
N2561 C2553 1.427 . S
N2561 C2559 1.384 . S
H2562 C2568 0.930 . S
H2563 C2572 0.930 . S
H2564 C2577 0.929 . S
H2565 C2575 0.929 . S
H2566 C2570 0.929 . S
H2567 C2576 0.929 . S
C2568 H2562 0.930 . S
C2568 C2569 1.367 . S
C2568 C2576 1.378 . S
C2569 C2568 1.367 . S
C2569 C2577 1.433 . S
C2570 H2566 0.929 . S
C2570 C2572 1.378 . S
C2570 C2574 1.350 . S
C2571 C2574 1.463 . S
C2571 C2576 1.350 . S
C2571 N2579 1.427 . S
C2572 H2563 0.930 . S
C2572 C2570 1.378 . S
C2572 C2573 1.367 . S
C2573 C2572 1.367 . S
C2573 C2575 1.433 . S
C2574 C2570 1.350 . S
C2574 C2571 1.463 . S
C2574 N2578 1.427 . S
C2575 H2565 0.929 . S
C2575 C2573 1.433 . S
C2575 N2578 1.384 . S
C2576 H2567 0.929 . S
C2576 C2568 1.378 . S
C2576 C2571 1.350 . S
C2577 H2564 0.929 . S
C2577 C2569 1.433 . S
C2577 N2579 1.384 . S
N2578 C2574 1.427 . S
N2578 C2575 1.384 . S
N2579 C2571 1.427 . S
N2579 C2577 1.384 . S
H2580 C2586 0.930 . S
H2581 C2590 0.930 . S
H2582 C2595 0.929 . S
H2583 C2593 0.929 . S
H2584 C2588 0.929 . S
H2585 C2594 0.929 . S
C2586 H2580 0.930 . S
C2586 C2587 1.367 . S
C2586 C2594 1.378 . S
C2587 C2586 1.367 . S
C2587 C2595 1.433 . S
C2588 H2584 0.929 . S
C2588 C2590 1.378 . S
C2588 C2592 1.350 . S
C2589 C2592 1.463 . S
C2589 C2594 1.350 . S
C2589 N2597 1.427 . S
C2590 H2581 0.930 . S
C2590 C2588 1.378 . S
C2590 C2591 1.367 . S
C2591 C2590 1.367 . S
C2591 C2593 1.433 . S
C2592 C2588 1.350 . S
C2592 C2589 1.463 . S
C2592 N2596 1.427 . S
C2593 H2583 0.929 . S
C2593 C2591 1.433 . S
C2593 N2596 1.384 . S
C2594 H2585 0.929 . S
C2594 C2586 1.378 . S
C2594 C2589 1.350 . S
C2595 H2582 0.929 . S
C2595 C2587 1.433 . S
C2595 N2597 1.384 . S
N2596 C2592 1.427 . S
N2596 C2593 1.384 . S
N2597 C2589 1.427 . S
N2597 C2595 1.384 . S
H2598 C2604 0.930 . S
H2599 C2608 0.930 . S
H2600 C2613 0.929 . S
H2601 C2611 0.929 . S
H2602 C2606 0.929 . S
H2603 C2612 0.929 . S
C2604 H2598 0.930 . S
C2604 C2605 1.367 . S
C2604 C2612 1.378 . S
C2605 C2604 1.367 . S
C2605 C2613 1.433 . S
C2606 H2602 0.929 . S
C2606 C2608 1.378 . S
C2606 C2610 1.350 . S
C2607 C2610 1.463 . S
C2607 C2612 1.350 . S
C2607 N2615 1.427 . S
C2608 H2599 0.930 . S
C2608 C2606 1.378 . S
C2608 C2609 1.367 . S
C2609 C2608 1.367 . S
C2609 C2611 1.433 . S
C2610 C2606 1.350 . S
C2610 C2607 1.463 . S
C2610 N2614 1.427 . S
C2611 H2601 0.929 . S
C2611 C2609 1.433 . S
C2611 N2614 1.384 . S
C2612 H2603 0.929 . S
C2612 C2604 1.378 . S
C2612 C2607 1.350 . S
C2613 H2600 0.929 . S
C2613 C2605 1.433 . S
C2613 N2615 1.384 . S
N2614 C2610 1.427 . S
N2614 C2611 1.384 . S
N2615 C2607 1.427 . S
N2615 C2613 1.384 . S
H2616 C2622 0.930 . S
H2617 C2626 0.930 . S
H2618 C2631 0.929 . S
H2619 C2629 0.929 . S
H2620 C2624 0.929 . S
H2621 C2630 0.929 . S
C2622 H2616 0.930 . S
C2622 C2623 1.367 . S
C2622 C2630 1.378 . S
C2623 C2622 1.367 . S
C2623 C2631 1.433 . S
C2624 H2620 0.929 . S
C2624 C2626 1.378 . S
C2624 C2628 1.350 . S
C2625 C2628 1.463 . S
C2625 C2630 1.350 . S
C2625 N2633 1.427 . S
C2626 H2617 0.930 . S
C2626 C2624 1.378 . S
C2626 C2627 1.367 . S
C2627 C2626 1.367 . S
C2627 C2629 1.433 . S
C2628 C2624 1.350 . S
C2628 C2625 1.463 . S
C2628 N2632 1.427 . S
C2629 H2619 0.929 . S
C2629 C2627 1.433 . S
C2629 N2632 1.384 . S
C2630 H2621 0.929 . S
C2630 C2622 1.378 . S
C2630 C2625 1.350 . S
C2631 H2618 0.929 . S
C2631 C2623 1.433 . S
C2631 N2633 1.384 . S
N2632 C2628 1.427 . S
N2632 C2629 1.384 . S
N2633 C2625 1.427 . S
N2633 C2631 1.384 . S
H2634 C2640 0.930 . S
H2635 C2644 0.930 . S
H2636 C2649 0.929 . S
H2637 C2647 0.929 . S
H2638 C2642 0.929 . S
H2639 C2648 0.929 . S
C2640 H2634 0.930 . S
C2640 C2641 1.367 . S
C2640 C2648 1.378 . S
C2641 C2640 1.367 . S
C2641 C2649 1.433 . S
C2642 H2638 0.929 . S
C2642 C2644 1.378 . S
C2642 C2646 1.350 . S
C2643 C2646 1.463 . S
C2643 C2648 1.350 . S
C2643 N2651 1.427 . S
C2644 H2635 0.930 . S
C2644 C2642 1.378 . S
C2644 C2645 1.367 . S
C2645 C2644 1.367 . S
C2645 C2647 1.433 . S
C2646 C2642 1.350 . S
C2646 C2643 1.463 . S
C2646 N2650 1.427 . S
C2647 H2637 0.929 . S
C2647 C2645 1.433 . S
C2647 N2650 1.384 . S
C2648 H2639 0.929 . S
C2648 C2640 1.378 . S
C2648 C2643 1.350 . S
C2649 H2636 0.929 . S
C2649 C2641 1.433 . S
C2649 N2651 1.384 . S
N2650 C2646 1.427 . S
N2650 C2647 1.384 . S
N2651 C2643 1.427 . S
N2651 C2649 1.384 . S
H2652 C2658 0.930 . S
H2653 C2662 0.930 . S
H2654 C2667 0.929 . S
H2655 C2665 0.929 . S
H2656 C2660 0.929 . S
H2657 C2666 0.929 . S
C2658 H2652 0.930 . S
C2658 C2659 1.367 . S
C2658 C2666 1.378 . S
C2659 C2658 1.367 . S
C2659 C2667 1.433 . S
C2660 H2656 0.929 . S
C2660 C2662 1.378 . S
C2660 C2664 1.350 . S
C2661 C2664 1.463 . S
C2661 C2666 1.350 . S
C2661 N2669 1.427 . S
C2662 H2653 0.930 . S
C2662 C2660 1.378 . S
C2662 C2663 1.367 . S
C2663 C2662 1.367 . S
C2663 C2665 1.433 . S
C2664 C2660 1.350 . S
C2664 C2661 1.463 . S
C2664 N2668 1.427 . S
C2665 H2655 0.929 . S
C2665 C2663 1.433 . S
C2665 N2668 1.384 . S
C2666 H2657 0.929 . S
C2666 C2658 1.378 . S
C2666 C2661 1.350 . S
C2667 H2654 0.929 . S
C2667 C2659 1.433 . S
C2667 N2669 1.384 . S
N2668 C2664 1.427 . S
N2668 C2665 1.384 . S
N2669 C2661 1.427 . S
N2669 C2667 1.384 . S
H2670 C2676 0.930 . S
H2671 C2680 0.930 . S
H2672 C2685 0.929 . S
H2673 C2683 0.929 . S
H2674 C2678 0.929 . S
H2675 C2684 0.929 . S
C2676 H2670 0.930 . S
C2676 C2677 1.367 . S
C2676 C2684 1.378 . S
C2677 C2676 1.367 . S
C2677 C2685 1.433 . S
C2678 H2674 0.929 . S
C2678 C2680 1.378 . S
C2678 C2682 1.350 . S
C2679 C2682 1.463 . S
C2679 C2684 1.350 . S
C2679 N2687 1.427 . S
C2680 H2671 0.930 . S
C2680 C2678 1.378 . S
C2680 C2681 1.367 . S
C2681 C2680 1.367 . S
C2681 C2683 1.433 . S
C2682 C2678 1.350 . S
C2682 C2679 1.463 . S
C2682 N2686 1.427 . S
C2683 H2673 0.929 . S
C2683 C2681 1.433 . S
C2683 N2686 1.384 . S
C2684 H2675 0.929 . S
C2684 C2676 1.378 . S
C2684 C2679 1.350 . S
C2685 H2672 0.929 . S
C2685 C2677 1.433 . S
C2685 N2687 1.384 . S
N2686 C2682 1.427 . S
N2686 C2683 1.384 . S
N2687 C2679 1.427 . S
N2687 C2685 1.384 . S
H2688 C2694 0.930 . S
H2689 C2698 0.930 . S
H2690 C2703 0.929 . S
H2691 C2701 0.929 . S
H2692 C2696 0.929 . S
H2693 C2702 0.929 . S
C2694 H2688 0.930 . S
C2694 C2695 1.367 . S
C2694 C2702 1.378 . S
C2695 C2694 1.367 . S
C2695 C2703 1.433 . S
C2696 H2692 0.929 . S
C2696 C2698 1.378 . S
C2696 C2700 1.350 . S
C2697 C2700 1.463 . S
C2697 C2702 1.350 . S
C2697 N2705 1.427 . S
C2698 H2689 0.930 . S
C2698 C2696 1.378 . S
C2698 C2699 1.367 1_655 S
C2699 C2698 1.367 1_455 S
C2699 C2701 1.433 . S
C2700 C2696 1.350 . S
C2700 C2697 1.463 . S
C2700 N2704 1.427 1_655 S
C2701 H2691 0.929 . S
C2701 C2699 1.433 . S
C2701 N2704 1.384 . S
C2702 H2693 0.929 . S
C2702 C2694 1.378 . S
C2702 C2697 1.350 . S
C2703 H2690 0.929 . S
C2703 C2695 1.433 . S
C2703 N2705 1.384 . S
N2704 C2700 1.427 1_455 S
N2704 C2701 1.384 . S
N2705 C2697 1.427 . S
N2705 C2703 1.384 . S
H2706 C2712 0.930 . S
H2707 C2716 0.930 . S
H2708 C2721 0.929 . S
H2709 C2719 0.929 . S
H2710 C2714 0.929 . S
H2711 C2720 0.929 . S
C2712 H2706 0.930 . S
C2712 C2713 1.367 . S
C2712 C2720 1.378 . S
C2713 C2712 1.367 . S
C2713 C2721 1.433 . S
C2714 H2710 0.929 . S
C2714 C2716 1.378 . S
C2714 C2718 1.350 1_545 S
C2715 C2718 1.463 . S
C2715 C2720 1.350 . S
C2715 N2723 1.427 . S
C2716 H2707 0.930 . S
C2716 C2714 1.378 . S
C2716 C2717 1.367 . S
C2717 C2716 1.367 . S
C2717 C2719 1.433 1_545 S
C2718 C2714 1.350 1_565 S
C2718 C2715 1.463 . S
C2718 N2722 1.427 . S
C2719 H2709 0.929 . S
C2719 C2717 1.433 1_565 S
C2719 N2722 1.384 . S
C2720 H2711 0.929 . S
C2720 C2712 1.378 . S
C2720 C2715 1.350 . S
C2721 H2708 0.929 . S
C2721 C2713 1.433 . S
C2721 N2723 1.384 . S
N2722 C2718 1.427 . S
N2722 C2719 1.384 . S
N2723 C2715 1.427 . S
N2723 C2721 1.384 . S
H2724 C2730 0.930 . S
H2725 C2734 0.930 . S
H2726 C2739 0.929 . S
H2727 C2737 0.929 . S
H2728 C2732 0.929 . S
H2729 C2738 0.929 . S
C2730 H2724 0.930 . S
C2730 C2731 1.367 . S
C2730 C2738 1.378 . S
C2731 C2730 1.367 . S
C2731 C2739 1.433 . S
C2732 H2728 0.929 . S
C2732 C2734 1.378 . S
C2732 C2736 1.350 . S
C2733 C2736 1.463 . S
C2733 C2738 1.350 . S
C2733 N2741 1.427 . S
C2734 H2725 0.930 . S
C2734 C2732 1.378 . S
C2734 C2735 1.367 . S
C2735 C2734 1.367 . S
C2735 C2737 1.433 . S
C2736 C2732 1.350 . S
C2736 C2733 1.463 . S
C2736 N2740 1.427 . S
C2737 H2727 0.929 . S
C2737 C2735 1.433 . S
C2737 N2740 1.384 . S
C2738 H2729 0.929 . S
C2738 C2730 1.378 . S
C2738 C2733 1.350 . S
C2739 H2726 0.929 . S
C2739 C2731 1.433 . S
C2739 N2741 1.384 . S
N2740 C2736 1.427 . S
N2740 C2737 1.384 . S
N2741 C2733 1.427 . S
N2741 C2739 1.384 . S
H2742 C2748 0.930 . S
H2743 C2752 0.930 . S
H2744 C2757 0.929 . S
H2745 C2755 0.929 . S
H2746 C2750 0.929 . S
H2747 C2756 0.929 . S
C2748 H2742 0.930 . S
C2748 C2749 1.367 . S
C2748 C2756 1.378 . S
C2749 C2748 1.367 . S
C2749 C2757 1.433 . S
C2750 H2746 0.929 . S
C2750 C2752 1.378 . S
C2750 C2754 1.350 . S
C2751 C2754 1.463 . S
C2751 C2756 1.350 . S
C2751 N2759 1.427 . S
C2752 H2743 0.930 . S
C2752 C2750 1.378 . S
C2752 C2753 1.367 . S
C2753 C2752 1.367 . S
C2753 C2755 1.433 . S
C2754 C2750 1.350 . S
C2754 C2751 1.463 . S
C2754 N2758 1.427 . S
C2755 H2745 0.929 . S
C2755 C2753 1.433 . S
C2755 N2758 1.384 . S
C2756 H2747 0.929 . S
C2756 C2748 1.378 . S
C2756 C2751 1.350 . S
C2757 H2744 0.929 . S
C2757 C2749 1.433 . S
C2757 N2759 1.384 . S
N2758 C2754 1.427 . S
N2758 C2755 1.384 . S
N2759 C2751 1.427 . S
N2759 C2757 1.384 . S
H2760 C2766 0.930 . S
H2761 C2770 0.930 . S
H2762 C2775 0.929 . S
H2763 C2773 0.929 . S
H2764 C2768 0.929 . S
H2765 C2774 0.929 . S
C2766 H2760 0.930 . S
C2766 C2767 1.367 . S
C2766 C2774 1.378 . S
C2767 C2766 1.367 . S
C2767 C2775 1.433 . S
C2768 H2764 0.929 . S
C2768 C2770 1.378 . S
C2768 C2772 1.350 . S
C2769 C2772 1.463 . S
C2769 C2774 1.350 . S
C2769 N2777 1.427 . S
C2770 H2761 0.930 . S
C2770 C2768 1.378 . S
C2770 C2771 1.367 1_655 S
C2771 C2770 1.367 1_455 S
C2771 C2773 1.433 . S
C2772 C2768 1.350 . S
C2772 C2769 1.463 . S
C2772 N2776 1.427 1_655 S
C2773 H2763 0.929 . S
C2773 C2771 1.433 . S
C2773 N2776 1.384 . S
C2774 H2765 0.929 . S
C2774 C2766 1.378 . S
C2774 C2769 1.350 . S
C2775 H2762 0.929 . S
C2775 C2767 1.433 . S
C2775 N2777 1.384 . S
N2776 C2772 1.427 1_455 S
N2776 C2773 1.384 . S
N2777 C2769 1.427 . S
N2777 C2775 1.384 . S
H2778 C2784 0.930 . S
H2779 C2788 0.930 . S
H2780 C2793 0.929 . S
H2781 C2791 0.929 . S
H2782 C2786 0.929 . S
H2783 C2792 0.929 . S
C2784 H2778 0.930 . S
C2784 C2785 1.367 . S
C2784 C2792 1.378 1_545 S
C2785 C2784 1.367 . S
C2785 C2793 1.433 1_545 S
C2786 H2782 0.929 . S
C2786 C2788 1.378 . S
C2786 C2790 1.350 . S
C2787 C2790 1.463 . S
C2787 C2792 1.350 . S
C2787 N2795 1.427 . S
C2788 H2779 0.930 . S
C2788 C2786 1.378 . S
C2788 C2789 1.367 . S
C2789 C2788 1.367 . S
C2789 C2791 1.433 . S
C2790 C2786 1.350 . S
C2790 C2787 1.463 . S
C2790 N2794 1.427 . S
C2791 H2781 0.929 . S
C2791 C2789 1.433 . S
C2791 N2794 1.384 . S
C2792 H2783 0.929 . S
C2792 C2784 1.378 1_565 S
C2792 C2787 1.350 . S
C2793 H2780 0.929 . S
C2793 C2785 1.433 1_565 S
C2793 N2795 1.384 . S
N2794 C2790 1.427 . S
N2794 C2791 1.384 . S
N2795 C2787 1.427 . S
N2795 C2793 1.384 . S
H2796 C2802 0.930 . S
H2797 C2806 0.930 . S
H2798 C2811 0.929 . S
H2799 C2809 0.929 . S
H2800 C2804 0.929 . S
H2801 C2810 0.929 . S
C2802 H2796 0.930 . S
C2802 C2803 1.367 . S
C2802 C2810 1.378 . S
C2803 C2802 1.367 . S
C2803 C2811 1.433 . S
C2804 H2800 0.929 . S
C2804 C2806 1.378 . S
C2804 C2808 1.350 . S
C2805 C2808 1.463 . S
C2805 C2810 1.350 . S
C2805 N2813 1.427 . S
C2806 H2797 0.930 . S
C2806 C2804 1.378 . S
C2806 C2807 1.367 . S
C2807 C2806 1.367 . S
C2807 C2809 1.433 . S
C2808 C2804 1.350 . S
C2808 C2805 1.463 . S
C2808 N2812 1.427 . S
C2809 H2799 0.929 . S
C2809 C2807 1.433 . S
C2809 N2812 1.384 . S
C2810 H2801 0.929 . S
C2810 C2802 1.378 . S
C2810 C2805 1.350 . S
C2811 H2798 0.929 . S
C2811 C2803 1.433 . S
C2811 N2813 1.384 . S
N2812 C2808 1.427 . S
N2812 C2809 1.384 . S
N2813 C2805 1.427 . S
N2813 C2811 1.384 . S
H2814 C2820 0.930 . S
H2815 C2824 0.930 . S
H2816 C2829 0.929 . S
H2817 C2827 0.929 . S
H2818 C2822 0.929 . S
H2819 C2828 0.929 . S
C2820 H2814 0.930 . S
C2820 C2821 1.367 . S
C2820 C2828 1.378 . S
C2821 C2820 1.367 . S
C2821 C2829 1.433 . S
C2822 H2818 0.929 . S
C2822 C2824 1.378 . S
C2822 C2826 1.350 . S
C2823 C2826 1.463 . S
C2823 C2828 1.350 . S
C2823 N2831 1.427 . S
C2824 H2815 0.930 . S
C2824 C2822 1.378 . S
C2824 C2825 1.367 . S
C2825 C2824 1.367 . S
C2825 C2827 1.433 . S
C2826 C2822 1.350 . S
C2826 C2823 1.463 . S
C2826 N2830 1.427 . S
C2827 H2817 0.929 . S
C2827 C2825 1.433 . S
C2827 N2830 1.384 . S
C2828 H2819 0.929 . S
C2828 C2820 1.378 . S
C2828 C2823 1.350 . S
C2829 H2816 0.929 . S
C2829 C2821 1.433 . S
C2829 N2831 1.384 . S
N2830 C2826 1.427 . S
N2830 C2827 1.384 . S
N2831 C2823 1.427 . S
N2831 C2829 1.384 . S
H2832 C2838 0.930 . S
H2833 C2842 0.930 . S
H2834 C2847 0.928 1_545 S
H2835 C2845 0.929 . S
H2836 C2840 0.929 . S
H2837 C2846 0.929 . S
C2838 H2832 0.930 . S
C2838 C2839 1.367 . S
C2838 C2846 1.378 1_545 S
C2839 C2838 1.367 . S
C2839 C2847 1.432 1_545 S
C2840 H2836 0.929 . S
C2840 C2842 1.378 . S
C2840 C2844 1.350 . S
C2841 C2844 1.463 . S
C2841 C2846 1.350 . S
C2841 N2849 1.427 . S
C2842 H2833 0.930 . S
C2842 C2840 1.378 . S
C2842 C2843 1.367 . S
C2843 C2842 1.367 . S
C2843 C2845 1.433 . S
C2844 C2840 1.350 . S
C2844 C2841 1.463 . S
C2844 N2848 1.427 . S
C2845 H2835 0.929 . S
C2845 C2843 1.433 . S
C2845 N2848 1.384 . S
C2846 H2837 0.929 . S
C2846 C2838 1.378 1_565 S
C2846 C2841 1.350 . S
C2847 H2834 0.928 1_565 S
C2847 C2839 1.432 1_565 S
C2847 N2849 1.385 . S
N2848 C2844 1.427 . S
N2848 C2845 1.384 . S
N2849 C2841 1.427 . S
N2849 C2847 1.385 . S
H2850 C2856 0.930 . S
H2851 C2860 0.930 . S
H2852 C2865 0.929 . S
H2853 C2863 0.929 . S
H2854 C2858 0.929 . S
H2855 C2864 0.929 . S
C2856 H2850 0.930 . S
C2856 C2857 1.367 . S
C2856 C2864 1.378 . S
C2857 C2856 1.367 . S
C2857 C2865 1.433 . S
C2858 H2854 0.929 . S
C2858 C2860 1.378 . S
C2858 C2862 1.350 . S
C2859 C2862 1.463 . S
C2859 C2864 1.350 . S
C2859 N2867 1.427 . S
C2860 H2851 0.930 . S
C2860 C2858 1.378 . S
C2860 C2861 1.367 . S
C2861 C2860 1.367 . S
C2861 C2863 1.433 . S
C2862 C2858 1.350 . S
C2862 C2859 1.463 . S
C2862 N2866 1.427 . S
C2863 H2853 0.929 . S
C2863 C2861 1.433 . S
C2863 N2866 1.384 . S
C2864 H2855 0.929 . S
C2864 C2856 1.378 . S
C2864 C2859 1.350 . S
C2865 H2852 0.929 . S
C2865 C2857 1.433 . S
C2865 N2867 1.384 . S
N2866 C2862 1.427 . S
N2866 C2863 1.384 . S
N2867 C2859 1.427 . S
N2867 C2865 1.384 . S
H2868 C2874 0.930 . S
H2869 C2878 0.930 . S
H2870 C2883 0.929 . S
H2871 C2881 0.929 . S
H2872 C2876 0.929 . S
H2873 C2882 0.929 . S
C2874 H2868 0.930 . S
C2874 C2875 1.367 . S
C2874 C2882 1.378 . S
C2875 C2874 1.367 . S
C2875 C2883 1.433 . S
C2876 H2872 0.929 . S
C2876 C2878 1.378 . S
C2876 C2880 1.350 . S
C2877 C2880 1.463 . S
C2877 C2882 1.350 . S
C2877 N2885 1.427 . S
C2878 H2869 0.930 . S
C2878 C2876 1.378 . S
C2878 C2879 1.367 . S
C2879 C2878 1.367 . S
C2879 C2881 1.433 . S
C2880 C2876 1.350 . S
C2880 C2877 1.463 . S
C2880 N2884 1.427 . S
C2881 H2871 0.929 . S
C2881 C2879 1.433 . S
C2881 N2884 1.384 . S
C2882 H2873 0.929 . S
C2882 C2874 1.378 . S
C2882 C2877 1.350 . S
C2883 H2870 0.929 . S
C2883 C2875 1.433 . S
C2883 N2885 1.384 . S
N2884 C2880 1.427 . S
N2884 C2881 1.384 . S
N2885 C2877 1.427 . S
N2885 C2883 1.384 . S
H2886 C2892 0.930 . S
H2887 C2896 0.930 . S
H2888 C2901 0.941 . S
H2889 C2899 0.929 . S
H2890 C2894 0.929 . S
H2891 C2900 0.929 . S
C2892 H2886 0.930 . S
C2892 C2893 1.366 . S
C2892 C2900 1.379 1_455 S
C2893 C2892 1.366 . S
C2893 C2901 1.441 . S
C2894 H2890 0.929 . S
C2894 C2896 1.378 . S
C2894 C2898 1.350 . S
C2895 C2898 1.463 . S
C2895 C2900 1.350 . S
C2895 N2903 1.427 . S
C2896 H2887 0.930 . S
C2896 C2894 1.378 . S
C2896 C2897 1.367 . S
C2897 C2896 1.367 . S
C2897 C2899 1.433 . S
C2898 C2894 1.350 . S
C2898 C2895 1.463 . S
C2898 N2902 1.427 . S
C2899 H2889 0.929 . S
C2899 C2897 1.433 . S
C2899 N2902 1.384 . S
C2900 H2891 0.929 . S
C2900 C2892 1.379 1_655 S
C2900 C2895 1.350 . S
C2901 H2888 0.941 . S
C2901 C2893 1.441 . S
C2901 N2903 1.367 1_455 S
N2902 C2898 1.427 . S
N2902 C2899 1.384 . S
N2903 C2895 1.427 . S
N2903 C2901 1.367 1_655 S
H2904 C2910 0.930 . S
H2905 C2914 0.930 . S
H2906 C2919 0.929 . S
H2907 C2917 0.929 . S
H2908 C2912 0.929 . S
H2909 C2918 0.929 . S
C2910 H2904 0.930 . S
C2910 C2911 1.367 . S
C2910 C2918 1.378 . S
C2911 C2910 1.367 . S
C2911 C2919 1.433 . S
C2912 H2908 0.929 . S
C2912 C2914 1.378 . S
C2912 C2916 1.350 . S
C2913 C2916 1.463 . S
C2913 C2918 1.350 . S
C2913 N2921 1.427 . S
C2914 H2905 0.930 . S
C2914 C2912 1.378 . S
C2914 C2915 1.367 . S
C2915 C2914 1.367 . S
C2915 C2917 1.433 . S
C2916 C2912 1.350 . S
C2916 C2913 1.463 . S
C2916 N2920 1.427 . S
C2917 H2907 0.929 . S
C2917 C2915 1.433 . S
C2917 N2920 1.384 . S
C2918 H2909 0.929 . S
C2918 C2910 1.378 . S
C2918 C2913 1.350 . S
C2919 H2906 0.929 . S
C2919 C2911 1.433 . S
C2919 N2921 1.384 . S
N2920 C2916 1.427 . S
N2920 C2917 1.384 . S
N2921 C2913 1.427 . S
N2921 C2919 1.384 . S
H2922 C2928 0.930 . S
H2923 C2932 0.930 . S
H2924 C2937 0.929 . S
H2925 C2935 0.929 . S
H2926 C2930 0.929 . S
H2927 C2936 0.929 . S
C2928 H2922 0.930 . S
C2928 C2929 1.367 . S
C2928 C2936 1.378 . S
C2929 C2928 1.367 . S
C2929 C2937 1.433 1_455 S
C2930 H2926 0.929 . S
C2930 C2932 1.378 . S
C2930 C2934 1.350 . S
C2931 C2934 1.463 . S
C2931 C2936 1.350 1_655 S
C2931 N2939 1.427 . S
C2932 H2923 0.930 . S
C2932 C2930 1.378 . S
C2932 C2933 1.367 . S
C2933 C2932 1.367 . S
C2933 C2935 1.433 . S
C2934 C2930 1.350 . S
C2934 C2931 1.463 . S
C2934 N2938 1.427 . S
C2935 H2925 0.929 . S
C2935 C2933 1.433 . S
C2935 N2938 1.384 . S
C2936 H2927 0.929 . S
C2936 C2928 1.378 . S
C2936 C2931 1.350 1_455 S
C2937 H2924 0.929 . S
C2937 C2929 1.433 1_655 S
C2937 N2939 1.384 . S
N2938 C2934 1.427 . S
N2938 C2935 1.384 . S
N2939 C2931 1.427 . S
N2939 C2937 1.384 . S
H2940 C2946 0.930 . S
H2941 C2950 0.938 . S
H2942 C2955 0.929 . S
H2943 C2953 0.930 . S
H2944 C2948 0.929 . S
H2945 C2954 0.929 . S
C2946 H2940 0.930 . S
C2946 C2947 1.367 . S
C2946 C2954 1.378 . S
C2947 C2946 1.367 . S
C2947 C2955 1.433 . S
C2948 H2944 0.929 . S
C2948 C2950 1.365 1_565 S
C2948 C2952 1.350 . S
C2949 C2952 1.463 . S
C2949 C2954 1.350 . S
C2949 N2957 1.427 . S
C2950 H2941 0.938 . S
C2950 C2948 1.365 1_545 S
C2950 C2951 1.373 . S
C2951 C2950 1.373 . S
C2951 C2953 1.435 . S
C2952 C2948 1.350 . S
C2952 C2949 1.463 . S
C2952 N2956 1.427 . S
C2953 H2943 0.930 . S
C2953 C2951 1.435 . S
C2953 N2956 1.381 1_545 S
C2954 H2945 0.929 . S
C2954 C2946 1.378 . S
C2954 C2949 1.350 . S
C2955 H2942 0.929 . S
C2955 C2947 1.433 . S
C2955 N2957 1.384 . S
N2956 C2952 1.427 . S
N2956 C2953 1.381 1_565 S
N2957 C2949 1.427 . S
N2957 C2955 1.384 . S
H2958 C2964 0.930 . S
H2959 C2968 0.930 . S
H2960 C2973 0.929 . S
H2961 C2971 0.929 . S
H2962 C2966 0.929 . S
H2963 C2972 0.929 . S
C2964 H2958 0.930 . S
C2964 C2965 1.367 . S
C2964 C2972 1.378 . S
C2965 C2964 1.367 . S
C2965 C2973 1.433 . S
C2966 H2962 0.929 . S
C2966 C2968 1.378 . S
C2966 C2970 1.350 . S
C2967 C2970 1.463 . S
C2967 C2972 1.350 . S
C2967 N2975 1.427 . S
C2968 H2959 0.930 . S
C2968 C2966 1.378 . S
C2968 C2969 1.367 . S
C2969 C2968 1.367 . S
C2969 C2971 1.433 . S
C2970 C2966 1.350 . S
C2970 C2967 1.463 . S
C2970 N2974 1.427 . S
C2971 H2961 0.929 . S
C2971 C2969 1.433 . S
C2971 N2974 1.384 . S
C2972 H2963 0.929 . S
C2972 C2964 1.378 . S
C2972 C2967 1.350 . S
C2973 H2960 0.929 . S
C2973 C2965 1.433 . S
C2973 N2975 1.384 . S
N2974 C2970 1.427 . S
N2974 C2971 1.384 . S
N2975 C2967 1.427 . S
N2975 C2973 1.384 . S
H2976 C2982 0.930 . S
H2977 C2986 0.930 . S
H2978 C2991 0.929 . S
H2979 C2989 0.929 . S
H2980 C2984 0.929 . S
H2981 C2990 0.929 . S
C2982 H2976 0.930 . S
C2982 C2983 1.367 . S
C2982 C2990 1.378 . S
C2983 C2982 1.367 . S
C2983 C2991 1.433 . S
C2984 H2980 0.929 . S
C2984 C2986 1.378 . S
C2984 C2988 1.350 . S
C2985 C2988 1.463 . S
C2985 C2990 1.350 . S
C2985 N2993 1.427 . S
C2986 H2977 0.930 . S
C2986 C2984 1.378 . S
C2986 C2987 1.367 1_556 S
C2987 C2986 1.367 1_554 S
C2987 C2989 1.433 . S
C2988 C2984 1.350 . S
C2988 C2985 1.463 . S
C2988 N2992 1.427 1_556 S
C2989 H2979 0.929 . S
C2989 C2987 1.433 . S
C2989 N2992 1.384 . S
C2990 H2981 0.929 . S
C2990 C2982 1.378 . S
C2990 C2985 1.350 . S
C2991 H2978 0.929 . S
C2991 C2983 1.433 . S
C2991 N2993 1.384 . S
N2992 C2988 1.427 1_554 S
N2992 C2989 1.384 . S
N2993 C2985 1.427 . S
N2993 C2991 1.384 . S
H2994 C3000 0.930 . S
H2995 C3004 0.930 . S
H2996 C3009 0.929 . S
H2997 C3007 0.929 . S
H2998 C3002 0.929 . S
H2999 C3008 0.929 . S
C3000 H2994 0.930 . S
C3000 C3001 1.367 . S
C3000 C3008 1.378 . S
C3001 C3000 1.367 . S
C3001 C3009 1.433 . S
C3002 H2998 0.929 . S
C3002 C3004 1.378 . S
C3002 C3006 1.350 . S
C3003 C3006 1.463 . S
C3003 C3008 1.350 . S
C3003 N3011 1.427 . S
C3004 H2995 0.930 . S
C3004 C3002 1.378 . S
C3004 C3005 1.367 . S
C3005 C3004 1.367 . S
C3005 C3007 1.433 . S
C3006 C3002 1.350 . S
C3006 C3003 1.463 . S
C3006 N3010 1.427 . S
C3007 H2997 0.929 . S
C3007 C3005 1.433 . S
C3007 N3010 1.384 . S
C3008 H2999 0.929 . S
C3008 C3000 1.378 . S
C3008 C3003 1.350 . S
C3009 H2996 0.929 . S
C3009 C3001 1.433 . S
C3009 N3011 1.384 . S
N3010 C3006 1.427 . S
N3010 C3007 1.384 . S
N3011 C3003 1.427 . S
N3011 C3009 1.384 . S
H3012 C3018 0.930 . S
H3013 C3022 0.930 . S
H3014 C3027 0.929 . S
H3015 C3025 0.929 . S
H3016 C3020 0.929 . S
H3017 C3026 0.929 . S
C3018 H3012 0.930 . S
C3018 C3019 1.367 . S
C3018 C3026 1.378 . S
C3019 C3018 1.367 . S
C3019 C3027 1.433 . S
C3020 H3016 0.929 . S
C3020 C3022 1.378 . S
C3020 C3024 1.350 . S
C3021 C3024 1.463 . S
C3021 C3026 1.350 . S
C3021 N3029 1.427 . S
C3022 H3013 0.930 . S
C3022 C3020 1.378 . S
C3022 C3023 1.367 . S
C3023 C3022 1.367 . S
C3023 C3025 1.433 . S
C3024 C3020 1.350 . S
C3024 C3021 1.463 . S
C3024 N3028 1.427 . S
C3025 H3015 0.929 . S
C3025 C3023 1.433 . S
C3025 N3028 1.384 . S
C3026 H3017 0.929 . S
C3026 C3018 1.378 . S
C3026 C3021 1.350 . S
C3027 H3014 0.929 . S
C3027 C3019 1.433 . S
C3027 N3029 1.384 . S
N3028 C3024 1.427 . S
N3028 C3025 1.384 . S
N3029 C3021 1.427 . S
N3029 C3027 1.384 . S
H3030 C3036 0.930 . S
H3031 C3040 0.930 . S
H3032 C3045 0.929 . S
H3033 C3043 0.929 . S
H3034 C3038 0.929 . S
H3035 C3044 0.929 . S
C3036 H3030 0.930 . S
C3036 C3037 1.367 . S
C3036 C3044 1.378 . S
C3037 C3036 1.367 . S
C3037 C3045 1.433 . S
C3038 H3034 0.929 . S
C3038 C3040 1.378 . S
C3038 C3042 1.350 . S
C3039 C3042 1.463 . S
C3039 C3044 1.350 . S
C3039 N3047 1.427 . S
C3040 H3031 0.930 . S
C3040 C3038 1.378 . S
C3040 C3041 1.367 . S
C3041 C3040 1.367 . S
C3041 C3043 1.433 . S
C3042 C3038 1.350 . S
C3042 C3039 1.463 . S
C3042 N3046 1.427 . S
C3043 H3033 0.929 . S
C3043 C3041 1.433 . S
C3043 N3046 1.384 . S
C3044 H3035 0.929 . S
C3044 C3036 1.378 . S
C3044 C3039 1.350 . S
C3045 H3032 0.929 . S
C3045 C3037 1.433 . S
C3045 N3047 1.384 . S
N3046 C3042 1.427 . S
N3046 C3043 1.384 . S
N3047 C3039 1.427 . S
N3047 C3045 1.384 . S
H3048 C3054 0.930 . S
H3049 C3058 0.930 . S
H3050 C3063 0.929 . S
H3051 C3061 0.929 . S
H3052 C3056 0.929 . S
H3053 C3062 0.929 . S
C3054 H3048 0.930 . S
C3054 C3055 1.367 . S
C3054 C3062 1.378 . S
C3055 C3054 1.367 . S
C3055 C3063 1.433 . S
C3056 H3052 0.929 . S
C3056 C3058 1.378 . S
C3056 C3060 1.350 . S
C3057 C3060 1.463 . S
C3057 C3062 1.350 . S
C3057 N3065 1.427 . S
C3058 H3049 0.930 . S
C3058 C3056 1.378 . S
C3058 C3059 1.367 . S
C3059 C3058 1.367 . S
C3059 C3061 1.433 . S
C3060 C3056 1.350 . S
C3060 C3057 1.463 . S
C3060 N3064 1.427 . S
C3061 H3051 0.929 . S
C3061 C3059 1.433 . S
C3061 N3064 1.384 . S
C3062 H3053 0.929 . S
C3062 C3054 1.378 . S
C3062 C3057 1.350 . S
C3063 H3050 0.929 . S
C3063 C3055 1.433 . S
C3063 N3065 1.384 . S
N3064 C3060 1.427 . S
N3064 C3061 1.384 . S
N3065 C3057 1.427 . S
N3065 C3063 1.384 . S
H3066 C3072 0.930 . S
H3067 C3076 0.930 . S
H3068 C3081 0.929 . S
H3069 C3079 0.929 . S
H3070 C3074 0.929 . S
H3071 C3080 0.929 . S
C3072 H3066 0.930 . S
C3072 C3073 1.367 . S
C3072 C3080 1.378 . S
C3073 C3072 1.367 . S
C3073 C3081 1.433 . S
C3074 H3070 0.929 . S
C3074 C3076 1.378 . S
C3074 C3078 1.350 . S
C3075 C3078 1.463 . S
C3075 C3080 1.350 . S
C3075 N3083 1.427 . S
C3076 H3067 0.930 . S
C3076 C3074 1.378 . S
C3076 C3077 1.367 1_556 S
C3077 C3076 1.367 1_554 S
C3077 C3079 1.433 . S
C3078 C3074 1.350 . S
C3078 C3075 1.463 . S
C3078 N3082 1.427 1_556 S
C3079 H3069 0.929 . S
C3079 C3077 1.433 . S
C3079 N3082 1.384 . S
C3080 H3071 0.929 . S
C3080 C3072 1.378 . S
C3080 C3075 1.350 . S
C3081 H3068 0.929 . S
C3081 C3073 1.433 . S
C3081 N3083 1.384 . S
N3082 C3078 1.427 1_554 S
N3082 C3079 1.384 . S
N3083 C3075 1.427 . S
N3083 C3081 1.384 . S
H3084 C3090 0.930 . S
H3085 C3094 0.926 1_554 S
H3086 C3099 0.929 . S
H3087 C3097 0.929 . S
H3088 C3092 0.929 . S
H3089 C3098 0.929 . S
C3090 H3084 0.930 . S
C3090 C3091 1.367 . S
C3090 C3098 1.378 . S
C3091 C3090 1.367 . S
C3091 C3099 1.433 . S
C3092 H3088 0.929 . S
C3092 C3094 1.395 . S
C3092 C3096 1.350 . S
C3093 C3096 1.463 . S
C3093 C3098 1.350 . S
C3093 N3101 1.427 . S
C3094 H3085 0.926 1_556 S
C3094 C3092 1.395 . S
C3094 C3095 1.356 1_556 S
C3095 C3094 1.356 1_554 S
C3095 C3097 1.433 . S
C3096 C3092 1.350 . S
C3096 C3093 1.463 . S
C3096 N3100 1.427 . S
C3097 H3087 0.929 . S
C3097 C3095 1.433 . S
C3097 N3100 1.384 1_554 S
C3098 H3089 0.929 . S
C3098 C3090 1.378 . S
C3098 C3093 1.350 . S
C3099 H3086 0.929 . S
C3099 C3091 1.433 . S
C3099 N3101 1.384 . S
N3100 C3096 1.427 . S
N3100 C3097 1.384 1_556 S
N3101 C3093 1.427 . S
N3101 C3099 1.384 . S
H3102 C3108 0.918 1_554 S
H3103 C3112 0.930 . S
H3104 C3117 0.929 . S
H3105 C3115 0.929 . S
H3106 C3110 0.929 . S
H3107 C3116 0.929 1_554 S
C3108 H3102 0.918 1_556 S
C3108 C3109 1.367 . S
C3108 C3116 1.378 . S
C3109 C3108 1.367 . S
C3109 C3117 1.433 . S
C3110 H3106 0.929 . S
C3110 C3112 1.378 . S
C3110 C3114 1.350 . S
C3111 C3114 1.463 . S
C3111 C3116 1.350 . S
C3111 N3119 1.427 . S
C3112 H3103 0.930 . S
C3112 C3110 1.378 . S
C3112 C3113 1.367 1_556 S
C3113 C3112 1.367 1_554 S
C3113 C3115 1.433 . S
C3114 C3110 1.350 . S
C3114 C3111 1.463 . S
C3114 N3118 1.427 1_556 S
C3115 H3105 0.929 . S
C3115 C3113 1.433 . S
C3115 N3118 1.384 . S
C3116 H3107 0.929 1_556 S
C3116 C3108 1.378 . S
C3116 C3111 1.350 . S
C3117 H3104 0.929 . S
C3117 C3109 1.433 . S
C3117 N3119 1.384 . S
N3118 C3114 1.427 1_554 S
N3118 C3115 1.384 . S
N3119 C3111 1.427 . S
N3119 C3117 1.384 . S
H3120 C3126 0.930 . S
H3121 C3130 0.930 . S
H3122 C3135 0.929 . S
H3123 C3133 0.929 . S
H3124 C3128 0.929 . S
H3125 C3134 0.929 . S
C3126 H3120 0.930 . S
C3126 C3127 1.367 . S
C3126 C3134 1.378 . S
C3127 C3126 1.367 . S
C3127 C3135 1.433 . S
C3128 H3124 0.929 . S
C3128 C3130 1.378 . S
C3128 C3132 1.350 . S
C3129 C3132 1.463 . S
C3129 C3134 1.350 . S
C3129 N3137 1.427 . S
C3130 H3121 0.930 . S
C3130 C3128 1.378 . S
C3130 C3131 1.367 1_455 S
C3131 C3130 1.367 1_655 S
C3131 C3133 1.433 . S
C3132 C3128 1.350 . S
C3132 C3129 1.463 . S
C3132 N3136 1.452 . S
C3133 H3123 0.929 . S
C3133 C3131 1.433 . S
C3133 N3136 1.366 1_655 S
C3134 H3125 0.929 . S
C3134 C3126 1.378 . S
C3134 C3129 1.350 . S
C3135 H3122 0.929 . S
C3135 C3127 1.433 . S
C3135 N3137 1.384 . S
N3136 C3132 1.452 . S
N3136 C3133 1.366 1_455 S
N3137 C3129 1.427 . S
N3137 C3135 1.384 . S
H3138 C3144 0.920 1_565 S
H3139 C3148 0.930 . S
H3140 C3153 0.929 . S
H3141 C3151 0.929 . S
H3142 C3146 0.929 . S
H3143 C3152 0.929 1_565 S
C3144 H3138 0.920 1_545 S
C3144 C3145 1.367 . S
C3144 C3152 1.378 . S
C3145 C3144 1.367 . S
C3145 C3153 1.433 . S
C3146 H3142 0.929 . S
C3146 C3148 1.378 . S
C3146 C3150 1.350 . S
C3147 C3150 1.463 . S
C3147 C3152 1.350 . S
C3147 N3155 1.427 . S
C3148 H3139 0.930 . S
C3148 C3146 1.378 . S
C3148 C3149 1.367 1_545 S
C3149 C3148 1.367 1_565 S
C3149 C3151 1.433 . S
C3150 C3146 1.350 . S
C3150 C3147 1.463 . S
C3150 N3154 1.427 1_545 S
C3151 H3141 0.929 . S
C3151 C3149 1.433 . S
C3151 N3154 1.384 . S
C3152 H3143 0.929 1_545 S
C3152 C3144 1.378 . S
C3152 C3147 1.350 . S
C3153 H3140 0.929 . S
C3153 C3145 1.433 . S
C3153 N3155 1.384 . S
N3154 C3150 1.427 1_565 S
N3154 C3151 1.384 . S
N3155 C3147 1.427 . S
N3155 C3153 1.384 . S
H3156 C3162 0.930 . S
H3157 C3166 0.930 . S
H3158 C3171 0.929 . S
H3159 C3169 0.929 . S
H3160 C3164 0.929 . S
H3161 C3170 0.929 . S
C3162 H3156 0.930 . S
C3162 C3163 1.367 . S
C3162 C3170 1.378 . S
C3163 C3162 1.367 . S
C3163 C3171 1.433 . S
C3164 H3160 0.929 . S
C3164 C3166 1.378 . S
C3164 C3168 1.350 . S
C3165 C3168 1.463 . S
C3165 C3170 1.350 . S
C3165 N3173 1.427 . S
C3166 H3157 0.930 . S
C3166 C3164 1.378 . S
C3166 C3167 1.367 . S
C3167 C3166 1.367 . S
C3167 C3169 1.433 . S
C3168 C3164 1.350 . S
C3168 C3165 1.463 . S
C3168 N3172 1.427 . S
C3169 H3159 0.929 . S
C3169 C3167 1.433 . S
C3169 N3172 1.384 . S
C3170 H3161 0.929 . S
C3170 C3162 1.378 . S
C3170 C3165 1.350 . S
C3171 H3158 0.929 . S
C3171 C3163 1.433 . S
C3171 N3173 1.384 . S
N3172 C3168 1.427 . S
N3172 C3169 1.384 . S
N3173 C3165 1.427 . S
N3173 C3171 1.384 . S
H3174 C3180 0.930 . S
H3175 C3184 0.930 . S
H3176 C3189 0.929 . S
H3177 C3187 0.929 . S
H3178 C3182 0.929 . S
H3179 C3188 0.929 . S
C3180 H3174 0.930 . S
C3180 C3181 1.367 . S
C3180 C3188 1.378 . S
C3181 C3180 1.367 . S
C3181 C3189 1.433 . S
C3182 H3178 0.929 . S
C3182 C3184 1.378 . S
C3182 C3186 1.350 . S
C3183 C3186 1.463 . S
C3183 C3188 1.350 . S
C3183 N3191 1.427 . S
C3184 H3175 0.930 . S
C3184 C3182 1.378 . S
C3184 C3185 1.367 . S
C3185 C3184 1.367 . S
C3185 C3187 1.433 . S
C3186 C3182 1.350 . S
C3186 C3183 1.463 . S
C3186 N3190 1.427 . S
C3187 H3177 0.929 . S
C3187 C3185 1.433 . S
C3187 N3190 1.384 . S
C3188 H3179 0.929 . S
C3188 C3180 1.378 . S
C3188 C3183 1.350 . S
C3189 H3176 0.929 . S
C3189 C3181 1.433 . S
C3189 N3191 1.384 . S
N3190 C3186 1.427 . S
N3190 C3187 1.384 . S
N3191 C3183 1.427 . S
N3191 C3189 1.384 . S
H3192 C3198 0.930 . S
H3193 C3202 0.930 . S
H3194 C3207 0.929 . S
H3195 C3205 0.929 . S
H3196 C3200 0.929 . S
H3197 C3206 0.929 . S
C3198 H3192 0.930 . S
C3198 C3199 1.367 . S
C3198 C3206 1.378 1_655 S
C3199 C3198 1.367 . S
C3199 C3207 1.433 1_655 S
C3200 H3196 0.929 . S
C3200 C3202 1.378 . S
C3200 C3204 1.350 . S
C3201 C3204 1.463 . S
C3201 C3206 1.350 . S
C3201 N3209 1.427 . S
C3202 H3193 0.930 . S
C3202 C3200 1.378 . S
C3202 C3203 1.367 . S
C3203 C3202 1.367 . S
C3203 C3205 1.433 . S
C3204 C3200 1.350 . S
C3204 C3201 1.463 . S
C3204 N3208 1.427 . S
C3205 H3195 0.929 . S
C3205 C3203 1.433 . S
C3205 N3208 1.384 . S
C3206 H3197 0.929 . S
C3206 C3198 1.378 1_455 S
C3206 C3201 1.350 . S
C3207 H3194 0.929 . S
C3207 C3199 1.433 1_455 S
C3207 N3209 1.384 . S
N3208 C3204 1.427 . S
N3208 C3205 1.384 . S
N3209 C3201 1.427 . S
N3209 C3207 1.384 . S
H3210 C3216 0.930 . S
H3211 C3220 0.930 . S
H3212 C3225 0.929 . S
H3213 C3223 0.929 . S
H3214 C3218 0.929 . S
H3215 C3224 0.929 . S
C3216 H3210 0.930 . S
C3216 C3217 1.367 . S
C3216 C3224 1.378 . S
C3217 C3216 1.367 . S
C3217 C3225 1.433 1_565 S
C3218 H3214 0.929 . S
C3218 C3220 1.378 . S
C3218 C3222 1.350 . S
C3219 C3222 1.463 . S
C3219 C3224 1.350 1_545 S
C3219 N3227 1.427 . S
C3220 H3211 0.930 . S
C3220 C3218 1.378 . S
C3220 C3221 1.367 . S
C3221 C3220 1.367 . S
C3221 C3223 1.433 . S
C3222 C3218 1.350 . S
C3222 C3219 1.463 . S
C3222 N3226 1.427 . S
C3223 H3213 0.929 . S
C3223 C3221 1.433 . S
C3223 N3226 1.384 . S
C3224 H3215 0.929 . S
C3224 C3216 1.378 . S
C3224 C3219 1.350 1_565 S
C3225 H3212 0.929 . S
C3225 C3217 1.433 1_545 S
C3225 N3227 1.384 . S
N3226 C3222 1.427 . S
N3226 C3223 1.384 . S
N3227 C3219 1.427 . S
N3227 C3225 1.384 . S
H3228 C3234 0.930 . S
H3229 C3238 0.930 . S
H3230 C3243 0.929 . S
H3231 C3241 0.929 . S
H3232 C3236 0.929 . S
H3233 C3242 0.929 . S
C3234 H3228 0.930 . S
C3234 C3235 1.367 . S
C3234 C3242 1.378 . S
C3235 C3234 1.367 . S
C3235 C3243 1.433 . S
C3236 H3232 0.929 . S
C3236 C3238 1.378 . S
C3236 C3240 1.350 . S
C3237 C3240 1.463 . S
C3237 C3242 1.350 . S
C3237 N3245 1.427 . S
C3238 H3229 0.930 . S
C3238 C3236 1.378 . S
C3238 C3239 1.367 . S
C3239 C3238 1.367 . S
C3239 C3241 1.433 . S
C3240 C3236 1.350 . S
C3240 C3237 1.463 . S
C3240 N3244 1.427 . S
C3241 H3231 0.929 . S
C3241 C3239 1.433 . S
C3241 N3244 1.384 . S
C3242 H3233 0.929 . S
C3242 C3234 1.378 . S
C3242 C3237 1.350 . S
C3243 H3230 0.929 . S
C3243 C3235 1.433 . S
C3243 N3245 1.384 . S
N3244 C3240 1.427 . S
N3244 C3241 1.384 . S
N3245 C3237 1.427 . S
N3245 C3243 1.384 . S
H3246 C3252 0.930 . S
H3247 C3256 0.930 . S
H3248 C3261 0.929 . S
H3249 C3259 0.929 . S
H3250 C3254 0.929 . S
H3251 C3260 0.929 . S
C3252 H3246 0.930 . S
C3252 C3253 1.367 . S
C3252 C3260 1.378 . S
C3253 C3252 1.367 . S
C3253 C3261 1.433 . S
C3254 H3250 0.929 . S
C3254 C3256 1.378 . S
C3254 C3258 1.350 . S
C3255 C3258 1.463 . S
C3255 C3260 1.350 . S
C3255 N3263 1.427 . S
C3256 H3247 0.930 . S
C3256 C3254 1.378 . S
C3256 C3257 1.367 . S
C3257 C3256 1.367 . S
C3257 C3259 1.433 . S
C3258 C3254 1.350 . S
C3258 C3255 1.463 . S
C3258 N3262 1.427 . S
C3259 H3249 0.929 . S
C3259 C3257 1.433 . S
C3259 N3262 1.384 . S
C3260 H3251 0.929 . S
C3260 C3252 1.378 . S
C3260 C3255 1.350 . S
C3261 H3248 0.929 . S
C3261 C3253 1.433 . S
C3261 N3263 1.384 . S
N3262 C3258 1.427 . S
N3262 C3259 1.384 . S
N3263 C3255 1.427 . S
N3263 C3261 1.384 . S
H3264 C3270 0.930 . S
H3265 C3274 0.930 . S
H3266 C3279 0.929 . S
H3267 C3277 0.929 . S
H3268 C3272 0.929 . S
H3269 C3278 0.929 . S
C3270 H3264 0.930 . S
C3270 C3271 1.367 . S
C3270 C3278 1.378 . S
C3271 C3270 1.367 . S
C3271 C3279 1.433 . S
C3272 H3268 0.929 . S
C3272 C3274 1.378 . S
C3272 C3276 1.350 1_565 S
C3273 C3276 1.463 . S
C3273 C3278 1.350 . S
C3273 N3281 1.427 . S
C3274 H3265 0.930 . S
C3274 C3272 1.378 . S
C3274 C3275 1.367 . S
C3275 C3274 1.367 . S
C3275 C3277 1.433 1_565 S
C3276 C3272 1.350 1_545 S
C3276 C3273 1.463 . S
C3276 N3280 1.427 . S
C3277 H3267 0.929 . S
C3277 C3275 1.433 1_545 S
C3277 N3280 1.384 . S
C3278 H3269 0.929 . S
C3278 C3270 1.378 . S
C3278 C3273 1.350 . S
C3279 H3266 0.929 . S
C3279 C3271 1.433 . S
C3279 N3281 1.384 . S
N3280 C3276 1.427 . S
N3280 C3277 1.384 . S
N3281 C3273 1.427 . S
N3281 C3279 1.384 . S
H3282 C3288 0.930 . S
H3283 C3292 0.930 . S
H3284 C3297 0.929 . S
H3285 C3295 0.929 . S
H3286 C3290 0.929 . S
H3287 C3296 0.929 . S
C3288 H3282 0.930 . S
C3288 C3289 1.367 . S
C3288 C3296 1.378 . S
C3289 C3288 1.367 . S
C3289 C3297 1.433 . S
C3290 H3286 0.929 . S
C3290 C3292 1.378 . S
C3290 C3294 1.350 . S
C3291 C3294 1.463 . S
C3291 C3296 1.350 . S
C3291 N3299 1.427 . S
C3292 H3283 0.930 . S
C3292 C3290 1.378 . S
C3292 C3293 1.367 . S
C3293 C3292 1.367 . S
C3293 C3295 1.433 . S
C3294 C3290 1.350 . S
C3294 C3291 1.463 . S
C3294 N3298 1.427 . S
C3295 H3285 0.929 . S
C3295 C3293 1.433 . S
C3295 N3298 1.384 . S
C3296 H3287 0.929 . S
C3296 C3288 1.378 . S
C3296 C3291 1.350 . S
C3297 H3284 0.929 . S
C3297 C3289 1.433 . S
C3297 N3299 1.384 . S
N3298 C3294 1.427 . S
N3298 C3295 1.384 . S
N3299 C3291 1.427 . S
N3299 C3297 1.384 . S
H3300 C3306 0.930 . S
H3301 C3310 0.930 . S
H3302 C3315 0.929 . S
H3303 C3313 0.929 . S
H3304 C3308 0.929 . S
H3305 C3314 0.929 . S
C3306 H3300 0.930 . S
C3306 C3307 1.367 . S
C3306 C3314 1.378 . S
C3307 C3306 1.367 . S
C3307 C3315 1.433 . S
C3308 H3304 0.929 . S
C3308 C3310 1.378 . S
C3308 C3312 1.350 . S
C3309 C3312 1.463 . S
C3309 C3314 1.350 . S
C3309 N3317 1.427 . S
C3310 H3301 0.930 . S
C3310 C3308 1.378 . S
C3310 C3311 1.367 . S
C3311 C3310 1.367 . S
C3311 C3313 1.433 . S
C3312 C3308 1.350 . S
C3312 C3309 1.463 . S
C3312 N3316 1.427 . S
C3313 H3303 0.929 . S
C3313 C3311 1.433 . S
C3313 N3316 1.384 . S
C3314 H3305 0.929 . S
C3314 C3306 1.378 . S
C3314 C3309 1.350 . S
C3315 H3302 0.929 . S
C3315 C3307 1.433 . S
C3315 N3317 1.384 . S
N3316 C3312 1.427 . S
N3316 C3313 1.384 . S
N3317 C3309 1.427 . S
N3317 C3315 1.384 . S
H3318 C3324 0.930 . S
H3319 C3328 0.930 . S
H3320 C3333 0.929 . S
H3321 C3331 0.929 . S
H3322 C3326 0.929 . S
H3323 C3332 0.929 . S
C3324 H3318 0.930 . S
C3324 C3325 1.367 . S
C3324 C3332 1.378 . S
C3325 C3324 1.367 . S
C3325 C3333 1.433 . S
C3326 H3322 0.929 . S
C3326 C3328 1.378 . S
C3326 C3330 1.350 1_655 S
C3327 C3330 1.463 . S
C3327 C3332 1.350 . S
C3327 N3335 1.427 . S
C3328 H3319 0.930 . S
C3328 C3326 1.378 . S
C3328 C3329 1.367 . S
C3329 C3328 1.367 . S
C3329 C3331 1.433 1_655 S
C3330 C3326 1.350 1_455 S
C3330 C3327 1.463 . S
C3330 N3334 1.427 . S
C3331 H3321 0.929 . S
C3331 C3329 1.433 1_455 S
C3331 N3334 1.384 . S
C3332 H3323 0.929 . S
C3332 C3324 1.378 . S
C3332 C3327 1.350 . S
C3333 H3320 0.929 . S
C3333 C3325 1.433 . S
C3333 N3335 1.384 . S
N3334 C3330 1.427 . S
N3334 C3331 1.384 . S
N3335 C3327 1.427 . S
N3335 C3333 1.384 . S
H3336 C3342 0.930 . S
H3337 C3346 0.930 . S
H3338 C3351 0.929 . S
H3339 C3349 0.929 . S
H3340 C3344 0.929 . S
H3341 C3350 0.929 . S
C3342 H3336 0.930 . S
C3342 C3343 1.367 . S
C3342 C3350 1.378 . S
C3343 C3342 1.367 . S
C3343 C3351 1.433 . S
C3344 H3340 0.929 . S
C3344 C3346 1.378 . S
C3344 C3348 1.350 . S
C3345 C3348 1.463 . S
C3345 C3350 1.350 . S
C3345 N3353 1.427 . S
C3346 H3337 0.930 . S
C3346 C3344 1.378 . S
C3346 C3347 1.367 . S
C3347 C3346 1.367 . S
C3347 C3349 1.433 . S
C3348 C3344 1.350 . S
C3348 C3345 1.463 . S
C3348 N3352 1.427 . S
C3349 H3339 0.929 . S
C3349 C3347 1.433 . S
C3349 N3352 1.384 . S
C3350 H3341 0.929 . S
C3350 C3342 1.378 . S
C3350 C3345 1.350 . S
C3351 H3338 0.929 . S
C3351 C3343 1.433 . S
C3351 N3353 1.384 . S
N3352 C3348 1.427 . S
N3352 C3349 1.384 . S
N3353 C3345 1.427 . S
N3353 C3351 1.384 . S
H3354 C3360 0.930 . S
H3355 C3364 0.935 . S
H3356 C3369 0.929 . S
H3357 C3367 0.929 . S
H3358 C3362 0.929 . S
H3359 C3368 0.929 . S
C3360 H3354 0.930 . S
C3360 C3361 1.367 . S
C3360 C3368 1.378 . S
C3361 C3360 1.367 . S
C3361 C3369 1.433 . S
C3362 H3358 0.929 . S
C3362 C3364 1.378 . S
C3362 C3366 1.350 . S
C3363 C3366 1.463 . S
C3363 C3368 1.350 . S
C3363 N3371 1.427 . S
C3364 H3355 0.935 . S
C3364 C3362 1.378 . S
C3364 C3365 1.367 1_455 S
C3365 C3364 1.367 1_655 S
C3365 C3367 1.433 . S
C3366 C3362 1.350 . S
C3366 C3363 1.463 . S
C3366 N3370 1.427 . S
C3367 H3357 0.929 . S
C3367 C3365 1.433 . S
C3367 N3370 1.384 1_655 S
C3368 H3359 0.929 . S
C3368 C3360 1.378 . S
C3368 C3363 1.350 . S
C3369 H3356 0.929 . S
C3369 C3361 1.433 . S
C3369 N3371 1.384 . S
N3370 C3366 1.427 . S
N3370 C3367 1.384 1_455 S
N3371 C3363 1.427 . S
N3371 C3369 1.384 . S
H3372 C3378 0.930 . S
H3373 C3382 0.930 . S
H3374 C3387 0.929 . S
H3375 C3385 0.929 . S
H3376 C3380 0.929 . S
H3377 C3386 0.929 . S
C3378 H3372 0.930 . S
C3378 C3379 1.367 . S
C3378 C3386 1.378 . S
C3379 C3378 1.367 . S
C3379 C3387 1.433 1_565 S
C3380 H3376 0.929 . S
C3380 C3382 1.378 . S
C3380 C3384 1.350 . S
C3381 C3384 1.463 . S
C3381 C3386 1.350 1_545 S
C3381 N3389 1.427 . S
C3382 H3373 0.930 . S
C3382 C3380 1.378 . S
C3382 C3383 1.367 . S
C3383 C3382 1.367 . S
C3383 C3385 1.433 . S
C3384 C3380 1.350 . S
C3384 C3381 1.463 . S
C3384 N3388 1.427 . S
C3385 H3375 0.929 . S
C3385 C3383 1.433 . S
C3385 N3388 1.384 . S
C3386 H3377 0.929 . S
C3386 C3378 1.378 . S
C3386 C3381 1.350 1_565 S
C3387 H3374 0.929 . S
C3387 C3379 1.433 1_545 S
C3387 N3389 1.384 . S
N3388 C3384 1.427 . S
N3388 C3385 1.384 . S
N3389 C3381 1.427 . S
N3389 C3387 1.384 . S
H3390 C3396 0.930 . S
H3391 C3400 0.930 . S
H3392 C3405 0.929 . S
H3393 C3403 0.929 . S
H3394 C3398 0.929 . S
H3395 C3404 0.929 . S
C3396 H3390 0.930 . S
C3396 C3397 1.367 . S
C3396 C3404 1.378 . S
C3397 C3396 1.367 . S
C3397 C3405 1.433 . S
C3398 H3394 0.929 . S
C3398 C3400 1.378 . S
C3398 C3402 1.350 . S
C3399 C3402 1.463 . S
C3399 C3404 1.350 . S
C3399 N3407 1.427 . S
C3400 H3391 0.930 . S
C3400 C3398 1.378 . S
C3400 C3401 1.367 . S
C3401 C3400 1.367 . S
C3401 C3403 1.433 . S
C3402 C3398 1.350 . S
C3402 C3399 1.463 . S
C3402 N3406 1.427 . S
C3403 H3393 0.929 . S
C3403 C3401 1.433 . S
C3403 N3406 1.384 . S
C3404 H3395 0.929 . S
C3404 C3396 1.378 . S
C3404 C3399 1.350 . S
C3405 H3392 0.929 . S
C3405 C3397 1.433 . S
C3405 N3407 1.384 . S
N3406 C3402 1.427 . S
N3406 C3403 1.384 . S
N3407 C3399 1.427 . S
N3407 C3405 1.384 . S
H3408 C3414 0.930 . S
H3409 C3418 0.930 . S
H3410 C3423 0.929 . S
H3411 C3421 0.929 . S
H3412 C3416 0.929 . S
H3413 C3422 0.929 . S
C3414 H3408 0.930 . S
C3414 C3415 1.367 . S
C3414 C3422 1.378 . S
C3415 C3414 1.367 . S
C3415 C3423 1.433 1_556 S
C3416 H3412 0.929 . S
C3416 C3418 1.378 . S
C3416 C3420 1.350 . S
C3417 C3420 1.463 . S
C3417 C3422 1.350 1_554 S
C3417 N3425 1.427 . S
C3418 H3409 0.930 . S
C3418 C3416 1.378 . S
C3418 C3419 1.367 . S
C3419 C3418 1.367 . S
C3419 C3421 1.433 . S
C3420 C3416 1.350 . S
C3420 C3417 1.463 . S
C3420 N3424 1.427 . S
C3421 H3411 0.929 . S
C3421 C3419 1.433 . S
C3421 N3424 1.384 . S
C3422 H3413 0.929 . S
C3422 C3414 1.378 . S
C3422 C3417 1.350 1_556 S
C3423 H3410 0.929 . S
C3423 C3415 1.433 1_554 S
C3423 N3425 1.384 . S
N3424 C3420 1.427 . S
N3424 C3421 1.384 . S
N3425 C3417 1.427 . S
N3425 C3423 1.384 . S
H3426 C3432 0.930 . S
H3427 C3436 0.930 . S
H3428 C3441 0.929 . S
H3429 C3439 0.929 . S
H3430 C3434 0.929 . S
H3431 C3440 0.929 . S
C3432 H3426 0.930 . S
C3432 C3433 1.367 . S
C3432 C3440 1.378 . S
C3433 C3432 1.367 . S
C3433 C3441 1.433 . S
C3434 H3430 0.929 . S
C3434 C3436 1.378 . S
C3434 C3438 1.350 . S
C3435 C3438 1.463 . S
C3435 C3440 1.350 . S
C3435 N3443 1.427 . S
C3436 H3427 0.930 . S
C3436 C3434 1.378 . S
C3436 C3437 1.367 . S
C3437 C3436 1.367 . S
C3437 C3439 1.433 . S
C3438 C3434 1.350 . S
C3438 C3435 1.463 . S
C3438 N3442 1.427 . S
C3439 H3429 0.929 . S
C3439 C3437 1.433 . S
C3439 N3442 1.384 . S
C3440 H3431 0.929 . S
C3440 C3432 1.378 . S
C3440 C3435 1.350 . S
C3441 H3428 0.929 . S
C3441 C3433 1.433 . S
C3441 N3443 1.384 . S
N3442 C3438 1.427 . S
N3442 C3439 1.384 . S
N3443 C3435 1.427 . S
N3443 C3441 1.384 . S
H3444 C3450 0.930 . S
H3445 C3454 0.930 . S
H3446 C3459 0.929 . S
H3447 C3457 0.929 . S
H3448 C3452 0.929 . S
H3449 C3458 0.929 . S
C3450 H3444 0.930 . S
C3450 C3451 1.367 . S
C3450 C3458 1.378 . S
C3451 C3450 1.367 . S
C3451 C3459 1.433 . S
C3452 H3448 0.929 . S
C3452 C3454 1.378 . S
C3452 C3456 1.350 . S
C3453 C3456 1.463 . S
C3453 C3458 1.350 . S
C3453 N3461 1.427 . S
C3454 H3445 0.930 . S
C3454 C3452 1.378 . S
C3454 C3455 1.367 . S
C3455 C3454 1.367 . S
C3455 C3457 1.433 . S
C3456 C3452 1.350 . S
C3456 C3453 1.463 . S
C3456 N3460 1.427 . S
C3457 H3447 0.929 . S
C3457 C3455 1.433 . S
C3457 N3460 1.384 . S
C3458 H3449 0.929 . S
C3458 C3450 1.378 . S
C3458 C3453 1.350 . S
C3459 H3446 0.929 . S
C3459 C3451 1.433 . S
C3459 N3461 1.384 . S
N3460 C3456 1.427 . S
N3460 C3457 1.384 . S
N3461 C3453 1.427 . S
N3461 C3459 1.384 . S
H3462 C3468 0.930 . S
H3463 C3472 0.930 . S
H3464 C3477 0.929 . S
H3465 C3475 0.929 . S
H3466 C3470 0.929 . S
H3467 C3476 0.929 . S
C3468 H3462 0.930 . S
C3468 C3469 1.367 . S
C3468 C3476 1.378 . S
C3469 C3468 1.367 . S
C3469 C3477 1.433 . S
C3470 H3466 0.929 . S
C3470 C3472 1.378 . S
C3470 C3474 1.350 . S
C3471 C3474 1.463 . S
C3471 C3476 1.350 . S
C3471 N3479 1.427 . S
C3472 H3463 0.930 . S
C3472 C3470 1.378 . S
C3472 C3473 1.367 . S
C3473 C3472 1.367 . S
C3473 C3475 1.433 . S
C3474 C3470 1.350 . S
C3474 C3471 1.463 . S
C3474 N3478 1.427 . S
C3475 H3465 0.929 . S
C3475 C3473 1.433 . S
C3475 N3478 1.384 . S
C3476 H3467 0.929 . S
C3476 C3468 1.378 . S
C3476 C3471 1.350 . S
C3477 H3464 0.929 . S
C3477 C3469 1.433 . S
C3477 N3479 1.384 . S
N3478 C3474 1.427 . S
N3478 C3475 1.384 . S
N3479 C3471 1.427 . S
N3479 C3477 1.384 . S
H3480 C3486 0.930 . S
H3481 C3490 0.930 . S
H3482 C3495 0.929 . S
H3483 C3493 0.929 . S
H3484 C3488 0.929 . S
H3485 C3494 0.929 . S
C3486 H3480 0.930 . S
C3486 C3487 1.367 . S
C3486 C3494 1.378 . S
C3487 C3486 1.367 . S
C3487 C3495 1.433 . S
C3488 H3484 0.929 . S
C3488 C3490 1.378 . S
C3488 C3492 1.350 . S
C3489 C3492 1.463 . S
C3489 C3494 1.350 . S
C3489 N3497 1.427 . S
C3490 H3481 0.930 . S
C3490 C3488 1.378 . S
C3490 C3491 1.367 . S
C3491 C3490 1.367 . S
C3491 C3493 1.433 . S
C3492 C3488 1.350 . S
C3492 C3489 1.463 . S
C3492 N3496 1.427 . S
C3493 H3483 0.929 . S
C3493 C3491 1.433 . S
C3493 N3496 1.384 . S
C3494 H3485 0.929 . S
C3494 C3486 1.378 . S
C3494 C3489 1.350 . S
C3495 H3482 0.929 . S
C3495 C3487 1.433 . S
C3495 N3497 1.384 . S
N3496 C3492 1.427 . S
N3496 C3493 1.384 . S
N3497 C3489 1.427 . S
N3497 C3495 1.384 . S
H3498 C3504 0.930 . S
H3499 C3508 0.930 . S
H3500 C3513 0.929 . S
H3501 C3511 0.939 . S
H3502 C3506 0.929 . S
H3503 C3512 0.929 . S
C3504 H3498 0.930 . S
C3504 C3505 1.367 . S
C3504 C3512 1.378 . S
C3505 C3504 1.367 . S
C3505 C3513 1.433 1_556 S
C3506 H3502 0.929 . S
C3506 C3508 1.378 . S
C3506 C3510 1.350 . S
C3507 C3510 1.463 . S
C3507 C3512 1.350 1_554 S
C3507 N3515 1.427 . S
C3508 H3499 0.930 . S
C3508 C3506 1.378 . S
C3508 C3509 1.367 . S
C3509 C3508 1.367 . S
C3509 C3511 1.433 . S
C3510 C3506 1.350 . S
C3510 C3507 1.463 . S
C3510 N3514 1.427 . S
C3511 H3501 0.939 . S
C3511 C3509 1.433 . S
C3511 N3514 1.384 . S
C3512 H3503 0.929 . S
C3512 C3504 1.378 . S
C3512 C3507 1.350 1_556 S
C3513 H3500 0.929 . S
C3513 C3505 1.433 1_554 S
C3513 N3515 1.384 . S
N3514 C3510 1.427 . S
N3514 C3511 1.384 . S
N3515 C3507 1.427 . S
N3515 C3513 1.384 . S
H3516 C3522 0.930 . S
H3517 C3526 0.930 . S
H3518 C3531 0.929 . S
H3519 C3529 0.929 . S
H3520 C3524 0.929 1_556 S
H3521 C3530 0.929 . S
C3522 H3516 0.930 . S
C3522 C3523 1.367 1_554 S
C3522 C3530 1.378 . S
C3523 C3522 1.367 1_556 S
C3523 C3531 1.433 . S
C3524 H3520 0.929 1_554 S
C3524 C3526 1.378 . S
C3524 C3528 1.350 . S
C3525 C3528 1.463 . S
C3525 C3530 1.350 . S
C3525 N3533 1.427 1_554 S
C3526 H3517 0.930 . S
C3526 C3524 1.378 . S
C3526 C3527 1.367 . S
C3527 C3526 1.367 . S
C3527 C3529 1.433 . S
C3528 C3524 1.350 . S
C3528 C3525 1.463 . S
C3528 N3532 1.427 . S
C3529 H3519 0.929 . S
C3529 C3527 1.433 . S
C3529 N3532 1.384 . S
C3530 H3521 0.929 . S
C3530 C3522 1.378 . S
C3530 C3525 1.350 . S
C3531 H3518 0.929 . S
C3531 C3523 1.433 . S
C3531 N3533 1.384 . S
N3532 C3528 1.427 . S
N3532 C3529 1.384 . S
N3533 C3525 1.427 1_556 S
N3533 C3531 1.384 . S
H3534 C3540 0.930 . S
H3535 C3544 0.930 . S
H3536 C3549 0.929 . S
H3537 C3547 0.929 . S
H3538 C3542 0.929 . S
H3539 C3548 0.929 1_556 S
C3540 H3534 0.930 . S
C3540 C3541 1.367 . S
C3540 C3548 1.378 . S
C3541 C3540 1.367 . S
C3541 C3549 1.433 . S
C3542 H3538 0.929 . S
C3542 C3544 1.378 . S
C3542 C3546 1.350 . S
C3543 C3546 1.463 . S
C3543 C3548 1.350 . S
C3543 N3551 1.427 . S
C3544 H3535 0.930 . S
C3544 C3542 1.378 . S
C3544 C3545 1.367 1_554 S
C3545 C3544 1.367 1_556 S
C3545 C3547 1.433 . S
C3546 C3542 1.350 . S
C3546 C3543 1.463 . S
C3546 N3550 1.427 1_554 S
C3547 H3537 0.929 . S
C3547 C3545 1.433 . S
C3547 N3550 1.384 . S
C3548 H3539 0.929 1_554 S
C3548 C3540 1.378 . S
C3548 C3543 1.350 . S
C3549 H3536 0.929 . S
C3549 C3541 1.433 . S
C3549 N3551 1.384 . S
N3550 C3546 1.427 1_556 S
N3550 C3547 1.384 . S
N3551 C3543 1.427 . S
N3551 C3549 1.384 . S
H3552 C3558 0.930 . S
H3553 C3562 0.930 . S
H3554 C3567 0.929 . S
H3555 C3565 0.929 . S
H3556 C3560 0.929 . S
H3557 C3566 0.929 . S
C3558 H3552 0.930 . S
C3558 C3559 1.367 . S
C3558 C3566 1.378 . S
C3559 C3558 1.367 . S
C3559 C3567 1.433 . S
C3560 H3556 0.929 . S
C3560 C3562 1.378 . S
C3560 C3564 1.350 . S
C3561 C3564 1.463 . S
C3561 C3566 1.350 . S
C3561 N3569 1.427 . S
C3562 H3553 0.930 . S
C3562 C3560 1.378 . S
C3562 C3563 1.367 . S
C3563 C3562 1.367 . S
C3563 C3565 1.433 . S
C3564 C3560 1.350 . S
C3564 C3561 1.463 . S
C3564 N3568 1.427 . S
C3565 H3555 0.929 . S
C3565 C3563 1.433 . S
C3565 N3568 1.384 . S
C3566 H3557 0.929 . S
C3566 C3558 1.378 . S
C3566 C3561 1.350 . S
C3567 H3554 0.929 . S
C3567 C3559 1.433 . S
C3567 N3569 1.384 . S
N3568 C3564 1.427 . S
N3568 C3565 1.384 . S
N3569 C3561 1.427 . S
N3569 C3567 1.384 . S
H3570 C3576 0.930 . S
H3571 C3580 0.930 . S
H3572 C3585 0.929 . S
H3573 C3583 0.929 . S
H3574 C3578 0.929 . S
H3575 C3584 0.929 . S
C3576 H3570 0.930 . S
C3576 C3577 1.367 . S
C3576 C3584 1.378 . S
C3577 C3576 1.367 . S
C3577 C3585 1.433 . S
C3578 H3574 0.929 . S
C3578 C3580 1.378 . S
C3578 C3582 1.350 . S
C3579 C3582 1.463 . S
C3579 C3584 1.350 . S
C3579 N3587 1.427 . S
C3580 H3571 0.930 . S
C3580 C3578 1.378 . S
C3580 C3581 1.367 . S
C3581 C3580 1.367 . S
C3581 C3583 1.433 . S
C3582 C3578 1.350 . S
C3582 C3579 1.463 . S
C3582 N3586 1.427 . S
C3583 H3573 0.929 . S
C3583 C3581 1.433 . S
C3583 N3586 1.384 . S
C3584 H3575 0.929 . S
C3584 C3576 1.378 . S
C3584 C3579 1.350 . S
C3585 H3572 0.929 . S
C3585 C3577 1.433 . S
C3585 N3587 1.384 . S
N3586 C3582 1.427 . S
N3586 C3583 1.384 . S
N3587 C3579 1.427 . S
N3587 C3585 1.384 . S
H3588 C3594 0.930 . S
H3589 C3598 0.930 . S
H3590 C3603 0.929 . S
H3591 C3601 0.929 . S
H3592 C3596 0.929 . S
H3593 C3602 0.929 . S
C3594 H3588 0.930 . S
C3594 C3595 1.367 . S
C3594 C3602 1.378 . S
C3595 C3594 1.367 . S
C3595 C3603 1.433 . S
C3596 H3592 0.929 . S
C3596 C3598 1.378 . S
C3596 C3600 1.350 . S
C3597 C3600 1.463 . S
C3597 C3602 1.350 . S
C3597 N3605 1.427 . S
C3598 H3589 0.930 . S
C3598 C3596 1.378 . S
C3598 C3599 1.367 . S
C3599 C3598 1.367 . S
C3599 C3601 1.433 . S
C3600 C3596 1.350 . S
C3600 C3597 1.463 . S
C3600 N3604 1.427 . S
C3601 H3591 0.929 . S
C3601 C3599 1.433 . S
C3601 N3604 1.384 . S
C3602 H3593 0.929 . S
C3602 C3594 1.378 . S
C3602 C3597 1.350 . S
C3603 H3590 0.929 . S
C3603 C3595 1.433 . S
C3603 N3605 1.384 . S
N3604 C3600 1.427 . S
N3604 C3601 1.384 . S
N3605 C3597 1.427 . S
N3605 C3603 1.384 . S
H3606 C3612 0.930 . S
H3607 C3616 0.930 . S
H3608 C3621 0.929 . S
H3609 C3619 0.929 . S
H3610 C3614 0.929 . S
H3611 C3620 0.929 . S
C3612 H3606 0.930 . S
C3612 C3613 1.367 . S
C3612 C3620 1.378 . S
C3613 C3612 1.367 . S
C3613 C3621 1.433 . S
C3614 H3610 0.929 . S
C3614 C3616 1.378 . S
C3614 C3618 1.350 . S
C3615 C3618 1.463 . S
C3615 C3620 1.350 . S
C3615 N3623 1.427 . S
C3616 H3607 0.930 . S
C3616 C3614 1.378 . S
C3616 C3617 1.367 . S
C3617 C3616 1.367 . S
C3617 C3619 1.433 . S
C3618 C3614 1.350 . S
C3618 C3615 1.463 . S
C3618 N3622 1.427 . S
C3619 H3609 0.929 . S
C3619 C3617 1.433 . S
C3619 N3622 1.384 . S
C3620 H3611 0.929 . S
C3620 C3612 1.378 . S
C3620 C3615 1.350 . S
C3621 H3608 0.929 . S
C3621 C3613 1.433 . S
C3621 N3623 1.384 . S
N3622 C3618 1.427 . S
N3622 C3619 1.384 . S
N3623 C3615 1.427 . S
N3623 C3621 1.384 . S
H3624 C3630 0.930 . S
H3625 C3634 0.930 . S
H3626 C3639 0.929 . S
H3627 C3637 0.929 . S
H3628 C3632 0.929 . S
H3629 C3638 0.929 . S
C3630 H3624 0.930 . S
C3630 C3631 1.367 . S
C3630 C3638 1.378 . S
C3631 C3630 1.367 . S
C3631 C3639 1.433 . S
C3632 H3628 0.929 . S
C3632 C3634 1.378 . S
C3632 C3636 1.350 . S
C3633 C3636 1.463 . S
C3633 C3638 1.350 . S
C3633 N3641 1.427 . S
C3634 H3625 0.930 . S
C3634 C3632 1.378 . S
C3634 C3635 1.367 . S
C3635 C3634 1.367 . S
C3635 C3637 1.433 . S
C3636 C3632 1.350 . S
C3636 C3633 1.463 . S
C3636 N3640 1.427 . S
C3637 H3627 0.929 . S
C3637 C3635 1.433 . S
C3637 N3640 1.384 . S
C3638 H3629 0.929 . S
C3638 C3630 1.378 . S
C3638 C3633 1.350 . S
C3639 H3626 0.929 . S
C3639 C3631 1.433 . S
C3639 N3641 1.384 . S
N3640 C3636 1.427 . S
N3640 C3637 1.384 . S
N3641 C3633 1.427 . S
N3641 C3639 1.384 . S
H3642 C3648 0.930 . S
H3643 C3652 0.930 . S
H3644 C3657 0.929 . S
H3645 C3655 0.929 . S
H3646 C3650 0.929 . S
H3647 C3656 0.929 . S
C3648 H3642 0.930 . S
C3648 C3649 1.367 . S
C3648 C3656 1.378 . S
C3649 C3648 1.367 . S
C3649 C3657 1.433 . S
C3650 H3646 0.929 . S
C3650 C3652 1.378 . S
C3650 C3654 1.350 . S
C3651 C3654 1.463 . S
C3651 C3656 1.350 . S
C3651 N3659 1.427 . S
C3652 H3643 0.930 . S
C3652 C3650 1.378 . S
C3652 C3653 1.367 . S
C3653 C3652 1.367 . S
C3653 C3655 1.433 . S
C3654 C3650 1.350 . S
C3654 C3651 1.463 . S
C3654 N3658 1.427 . S
C3655 H3645 0.929 . S
C3655 C3653 1.433 . S
C3655 N3658 1.384 . S
C3656 H3647 0.929 . S
C3656 C3648 1.378 . S
C3656 C3651 1.350 . S
C3657 H3644 0.929 . S
C3657 C3649 1.433 . S
C3657 N3659 1.384 . S
N3658 C3654 1.427 . S
N3658 C3655 1.384 . S
N3659 C3651 1.427 . S
N3659 C3657 1.384 . S
H3660 C3666 0.930 . S
H3661 C3670 0.930 . S
H3662 C3675 0.929 . S
H3663 C3673 0.929 . S
H3664 C3668 0.929 . S
H3665 C3674 0.929 . S
C3666 H3660 0.930 . S
C3666 C3667 1.367 . S
C3666 C3674 1.378 . S
C3667 C3666 1.367 . S
C3667 C3675 1.433 . S
C3668 H3664 0.929 . S
C3668 C3670 1.378 . S
C3668 C3672 1.350 . S
C3669 C3672 1.463 . S
C3669 C3674 1.350 . S
C3669 N3677 1.427 . S
C3670 H3661 0.930 . S
C3670 C3668 1.378 . S
C3670 C3671 1.367 . S
C3671 C3670 1.367 . S
C3671 C3673 1.433 . S
C3672 C3668 1.350 . S
C3672 C3669 1.463 . S
C3672 N3676 1.427 . S
C3673 H3663 0.929 . S
C3673 C3671 1.433 . S
C3673 N3676 1.384 . S
C3674 H3665 0.929 . S
C3674 C3666 1.378 . S
C3674 C3669 1.350 . S
C3675 H3662 0.929 . S
C3675 C3667 1.433 . S
C3675 N3677 1.384 . S
N3676 C3672 1.427 . S
N3676 C3673 1.384 . S
N3677 C3669 1.427 . S
N3677 C3675 1.384 . S
H3678 C3684 0.930 . S
H3679 C3688 0.930 . S
H3680 C3693 0.929 . S
H3681 C3691 0.929 . S
H3682 C3686 0.929 . S
H3683 C3692 0.929 . S
C3684 H3678 0.930 . S
C3684 C3685 1.367 . S
C3684 C3692 1.378 . S
C3685 C3684 1.367 . S
C3685 C3693 1.433 . S
C3686 H3682 0.929 . S
C3686 C3688 1.378 . S
C3686 C3690 1.350 . S
C3687 C3690 1.463 . S
C3687 C3692 1.350 . S
C3687 N3695 1.427 . S
C3688 H3679 0.930 . S
C3688 C3686 1.378 . S
C3688 C3689 1.367 . S
C3689 C3688 1.367 . S
C3689 C3691 1.433 . S
C3690 C3686 1.350 . S
C3690 C3687 1.463 . S
C3690 N3694 1.427 . S
C3691 H3681 0.929 . S
C3691 C3689 1.433 . S
C3691 N3694 1.384 . S
C3692 H3683 0.929 . S
C3692 C3684 1.378 . S
C3692 C3687 1.350 . S
C3693 H3680 0.929 . S
C3693 C3685 1.433 . S
C3693 N3695 1.384 . S
N3694 C3690 1.427 . S
N3694 C3691 1.384 . S
N3695 C3687 1.427 . S
N3695 C3693 1.384 . S
H3696 C3702 0.930 . S
H3697 C3706 0.930 . S
H3698 C3711 0.929 . S
H3699 C3709 0.929 . S
H3700 C3704 0.929 . S
H3701 C3710 0.929 . S
C3702 H3696 0.930 . S
C3702 C3703 1.367 . S
C3702 C3710 1.378 . S
C3703 C3702 1.367 . S
C3703 C3711 1.433 . S
C3704 H3700 0.929 . S
C3704 C3706 1.378 . S
C3704 C3708 1.350 . S
C3705 C3708 1.463 . S
C3705 C3710 1.350 . S
C3705 N3713 1.427 . S
C3706 H3697 0.930 . S
C3706 C3704 1.378 . S
C3706 C3707 1.367 . S
C3707 C3706 1.367 . S
C3707 C3709 1.433 . S
C3708 C3704 1.350 . S
C3708 C3705 1.463 . S
C3708 N3712 1.427 . S
C3709 H3699 0.929 . S
C3709 C3707 1.433 . S
C3709 N3712 1.384 . S
C3710 H3701 0.929 . S
C3710 C3702 1.378 . S
C3710 C3705 1.350 . S
C3711 H3698 0.929 . S
C3711 C3703 1.433 . S
C3711 N3713 1.384 . S
N3712 C3708 1.427 . S
N3712 C3709 1.384 . S
N3713 C3705 1.427 . S
N3713 C3711 1.384 . S
H3714 C3720 0.930 . S
H3715 C3724 0.930 . S
H3716 C3729 0.929 . S
H3717 C3727 0.929 . S
H3718 C3722 0.929 . S
H3719 C3728 0.929 . S
C3720 H3714 0.930 . S
C3720 C3721 1.367 . S
C3720 C3728 1.378 . S
C3721 C3720 1.367 . S
C3721 C3729 1.433 . S
C3722 H3718 0.929 . S
C3722 C3724 1.378 . S
C3722 C3726 1.350 . S
C3723 C3726 1.463 . S
C3723 C3728 1.350 . S
C3723 N3731 1.427 . S
C3724 H3715 0.930 . S
C3724 C3722 1.378 . S
C3724 C3725 1.367 . S
C3725 C3724 1.367 . S
C3725 C3727 1.433 . S
C3726 C3722 1.350 . S
C3726 C3723 1.463 . S
C3726 N3730 1.427 . S
C3727 H3717 0.929 . S
C3727 C3725 1.433 . S
C3727 N3730 1.384 . S
C3728 H3719 0.929 . S
C3728 C3720 1.378 . S
C3728 C3723 1.350 . S
C3729 H3716 0.929 . S
C3729 C3721 1.433 . S
C3729 N3731 1.384 . S
N3730 C3726 1.427 . S
N3730 C3727 1.384 . S
N3731 C3723 1.427 . S
N3731 C3729 1.384 . S
H3732 C3738 0.930 . S
H3733 C3742 0.930 . S
H3734 C3747 0.929 . S
H3735 C3745 0.929 . S
H3736 C3740 0.929 . S
H3737 C3746 0.929 . S
C3738 H3732 0.930 . S
C3738 C3739 1.367 . S
C3738 C3746 1.378 . S
C3739 C3738 1.367 . S
C3739 C3747 1.433 . S
C3740 H3736 0.929 . S
C3740 C3742 1.378 . S
C3740 C3744 1.350 . S
C3741 C3744 1.463 . S
C3741 C3746 1.350 . S
C3741 N3749 1.427 . S
C3742 H3733 0.930 . S
C3742 C3740 1.378 . S
C3742 C3743 1.367 . S
C3743 C3742 1.367 . S
C3743 C3745 1.433 . S
C3744 C3740 1.350 . S
C3744 C3741 1.463 . S
C3744 N3748 1.427 . S
C3745 H3735 0.929 . S
C3745 C3743 1.433 . S
C3745 N3748 1.384 . S
C3746 H3737 0.929 . S
C3746 C3738 1.378 . S
C3746 C3741 1.350 . S
C3747 H3734 0.929 . S
C3747 C3739 1.433 . S
C3747 N3749 1.384 . S
N3748 C3744 1.427 . S
N3748 C3745 1.384 . S
N3749 C3741 1.427 . S
N3749 C3747 1.384 . S
H3750 C3756 0.930 . S
H3751 C3760 0.930 . S
H3752 C3765 0.929 . S
H3753 C3763 0.929 . S
H3754 C3758 0.929 . S
H3755 C3764 0.929 . S
C3756 H3750 0.930 . S
C3756 C3757 1.367 . S
C3756 C3764 1.378 . S
C3757 C3756 1.367 . S
C3757 C3765 1.433 . S
C3758 H3754 0.929 . S
C3758 C3760 1.378 . S
C3758 C3762 1.350 . S
C3759 C3762 1.463 . S
C3759 C3764 1.350 . S
C3759 N3767 1.427 . S
C3760 H3751 0.930 . S
C3760 C3758 1.378 . S
C3760 C3761 1.367 . S
C3761 C3760 1.367 . S
C3761 C3763 1.433 . S
C3762 C3758 1.350 . S
C3762 C3759 1.463 . S
C3762 N3766 1.427 . S
C3763 H3753 0.929 . S
C3763 C3761 1.433 . S
C3763 N3766 1.384 . S
C3764 H3755 0.929 . S
C3764 C3756 1.378 . S
C3764 C3759 1.350 . S
C3765 H3752 0.929 . S
C3765 C3757 1.433 . S
C3765 N3767 1.384 . S
N3766 C3762 1.427 . S
N3766 C3763 1.384 . S
N3767 C3759 1.427 . S
N3767 C3765 1.384 . S
H3768 C3774 0.930 . S
H3769 C3778 0.930 . S
H3770 C3783 0.929 . S
H3771 C3781 0.929 . S
H3772 C3776 0.929 . S
H3773 C3782 0.929 . S
C3774 H3768 0.930 . S
C3774 C3775 1.367 . S
C3774 C3782 1.378 . S
C3775 C3774 1.367 . S
C3775 C3783 1.433 . S
C3776 H3772 0.929 . S
C3776 C3778 1.378 . S
C3776 C3780 1.350 . S
C3777 C3780 1.463 . S
C3777 C3782 1.350 . S
C3777 N3785 1.427 . S
C3778 H3769 0.930 . S
C3778 C3776 1.378 . S
C3778 C3779 1.367 . S
C3779 C3778 1.367 . S
C3779 C3781 1.433 . S
C3780 C3776 1.350 . S
C3780 C3777 1.463 . S
C3780 N3784 1.427 . S
C3781 H3771 0.929 . S
C3781 C3779 1.433 . S
C3781 N3784 1.384 . S
C3782 H3773 0.929 . S
C3782 C3774 1.378 . S
C3782 C3777 1.350 . S
C3783 H3770 0.929 . S
C3783 C3775 1.433 . S
C3783 N3785 1.384 . S
N3784 C3780 1.427 . S
N3784 C3781 1.384 . S
N3785 C3777 1.427 . S
N3785 C3783 1.384 . S
H3786 C3792 0.930 . S
H3787 C3796 0.930 . S
H3788 C3801 0.929 . S
H3789 C3799 0.929 . S
H3790 C3794 0.929 . S
H3791 C3800 0.929 . S
C3792 H3786 0.930 . S
C3792 C3793 1.367 . S
C3792 C3800 1.378 . S
C3793 C3792 1.367 . S
C3793 C3801 1.433 . S
C3794 H3790 0.929 . S
C3794 C3796 1.378 . S
C3794 C3798 1.350 . S
C3795 C3798 1.463 . S
C3795 C3800 1.350 . S
C3795 N3803 1.427 . S
C3796 H3787 0.930 . S
C3796 C3794 1.378 . S
C3796 C3797 1.367 . S
C3797 C3796 1.367 . S
C3797 C3799 1.433 . S
C3798 C3794 1.350 . S
C3798 C3795 1.463 . S
C3798 N3802 1.427 . S
C3799 H3789 0.929 . S
C3799 C3797 1.433 . S
C3799 N3802 1.384 . S
C3800 H3791 0.929 . S
C3800 C3792 1.378 . S
C3800 C3795 1.350 . S
C3801 H3788 0.929 . S
C3801 C3793 1.433 . S
C3801 N3803 1.384 . S
N3802 C3798 1.427 . S
N3802 C3799 1.384 . S
N3803 C3795 1.427 . S
N3803 C3801 1.384 . S
H3804 C3810 0.930 . S
H3805 C3814 0.930 . S
H3806 C3819 0.929 . S
H3807 C3817 0.929 . S
H3808 C3812 0.929 . S
H3809 C3818 0.929 . S
C3810 H3804 0.930 . S
C3810 C3811 1.367 . S
C3810 C3818 1.378 . S
C3811 C3810 1.367 . S
C3811 C3819 1.433 . S
C3812 H3808 0.929 . S
C3812 C3814 1.378 . S
C3812 C3816 1.350 . S
C3813 C3816 1.463 . S
C3813 C3818 1.350 . S
C3813 N3821 1.427 . S
C3814 H3805 0.930 . S
C3814 C3812 1.378 . S
C3814 C3815 1.367 . S
C3815 C3814 1.367 . S
C3815 C3817 1.433 . S
C3816 C3812 1.350 . S
C3816 C3813 1.463 . S
C3816 N3820 1.427 . S
C3817 H3807 0.929 . S
C3817 C3815 1.433 . S
C3817 N3820 1.384 . S
C3818 H3809 0.929 . S
C3818 C3810 1.378 . S
C3818 C3813 1.350 . S
C3819 H3806 0.929 . S
C3819 C3811 1.433 . S
C3819 N3821 1.384 . S
N3820 C3816 1.427 . S
N3820 C3817 1.384 . S
N3821 C3813 1.427 . S
N3821 C3819 1.384 . S
H3822 C3828 0.930 . S
H3823 C3832 0.930 . S
H3824 C3837 0.929 . S
H3825 C3835 0.929 . S
H3826 C3830 0.929 . S
H3827 C3836 0.929 . S
C3828 H3822 0.930 . S
C3828 C3829 1.367 . S
C3828 C3836 1.378 . S
C3829 C3828 1.367 . S
C3829 C3837 1.433 . S
C3830 H3826 0.929 . S
C3830 C3832 1.378 . S
C3830 C3834 1.350 . S
C3831 C3834 1.463 . S
C3831 C3836 1.350 . S
C3831 N3839 1.427 . S
C3832 H3823 0.930 . S
C3832 C3830 1.378 . S
C3832 C3833 1.367 . S
C3833 C3832 1.367 . S
C3833 C3835 1.433 . S
C3834 C3830 1.350 . S
C3834 C3831 1.463 . S
C3834 N3838 1.427 . S
C3835 H3825 0.929 . S
C3835 C3833 1.433 . S
C3835 N3838 1.384 . S
C3836 H3827 0.929 . S
C3836 C3828 1.378 . S
C3836 C3831 1.350 . S
C3837 H3824 0.929 . S
C3837 C3829 1.433 . S
C3837 N3839 1.384 . S
N3838 C3834 1.427 . S
N3838 C3835 1.384 . S
N3839 C3831 1.427 . S
N3839 C3837 1.384 . S
H3840 C3846 0.930 . S
H3841 C3850 0.930 . S
H3842 C3855 0.929 . S
H3843 C3853 0.929 . S
H3844 C3848 0.929 . S
H3845 C3854 0.929 . S
C3846 H3840 0.930 . S
C3846 C3847 1.367 . S
C3846 C3854 1.378 . S
C3847 C3846 1.367 . S
C3847 C3855 1.433 . S
C3848 H3844 0.929 . S
C3848 C3850 1.378 . S
C3848 C3852 1.350 . S
C3849 C3852 1.463 . S
C3849 C3854 1.350 . S
C3849 N3857 1.427 . S
C3850 H3841 0.930 . S
C3850 C3848 1.378 . S
C3850 C3851 1.367 . S
C3851 C3850 1.367 . S
C3851 C3853 1.433 . S
C3852 C3848 1.350 . S
C3852 C3849 1.463 . S
C3852 N3856 1.427 . S
C3853 H3843 0.929 . S
C3853 C3851 1.433 . S
C3853 N3856 1.384 . S
C3854 H3845 0.929 . S
C3854 C3846 1.378 . S
C3854 C3849 1.350 . S
C3855 H3842 0.929 . S
C3855 C3847 1.433 . S
C3855 N3857 1.384 . S
N3856 C3852 1.427 . S
N3856 C3853 1.384 . S
N3857 C3849 1.427 . S
N3857 C3855 1.384 . S
H3858 C3864 0.930 . S
H3859 C3868 0.930 . S
H3860 C3873 0.929 . S
H3861 C3871 0.929 . S
H3862 C3866 0.929 . S
H3863 C3872 0.929 . S
C3864 H3858 0.930 . S
C3864 C3865 1.367 . S
C3864 C3872 1.378 . S
C3865 C3864 1.367 . S
C3865 C3873 1.433 . S
C3866 H3862 0.929 . S
C3866 C3868 1.378 . S
C3866 C3870 1.350 . S
C3867 C3870 1.463 . S
C3867 C3872 1.350 . S
C3867 N3875 1.427 . S
C3868 H3859 0.930 . S
C3868 C3866 1.378 . S
C3868 C3869 1.367 . S
C3869 C3868 1.367 . S
C3869 C3871 1.433 . S
C3870 C3866 1.350 . S
C3870 C3867 1.463 . S
C3870 N3874 1.427 . S
C3871 H3861 0.929 . S
C3871 C3869 1.433 . S
C3871 N3874 1.384 . S
C3872 H3863 0.929 . S
C3872 C3864 1.378 . S
C3872 C3867 1.350 . S
C3873 H3860 0.929 . S
C3873 C3865 1.433 . S
C3873 N3875 1.384 . S
N3874 C3870 1.427 . S
N3874 C3871 1.384 . S
N3875 C3867 1.427 . S
N3875 C3873 1.384 . S
H3876 C3882 0.930 . S
H3877 C3886 0.930 . S
H3878 C3891 0.929 . S
H3879 C3889 0.929 . S
H3880 C3884 0.929 . S
H3881 C3890 0.929 . S
C3882 H3876 0.930 . S
C3882 C3883 1.367 . S
C3882 C3890 1.378 . S
C3883 C3882 1.367 . S
C3883 C3891 1.433 . S
C3884 H3880 0.929 . S
C3884 C3886 1.378 . S
C3884 C3888 1.350 . S
C3885 C3888 1.463 . S
C3885 C3890 1.350 . S
C3885 N3893 1.427 . S
C3886 H3877 0.930 . S
C3886 C3884 1.378 . S
C3886 C3887 1.367 . S
C3887 C3886 1.367 . S
C3887 C3889 1.433 . S
C3888 C3884 1.350 . S
C3888 C3885 1.463 . S
C3888 N3892 1.427 . S
C3889 H3879 0.929 . S
C3889 C3887 1.433 . S
C3889 N3892 1.384 . S
C3890 H3881 0.929 . S
C3890 C3882 1.378 . S
C3890 C3885 1.350 . S
C3891 H3878 0.929 . S
C3891 C3883 1.433 . S
C3891 N3893 1.384 . S
N3892 C3888 1.427 . S
N3892 C3889 1.384 . S
N3893 C3885 1.427 . S
N3893 C3891 1.384 . S
H3894 C3900 0.930 . S
H3895 C3904 0.930 . S
H3896 C3909 0.929 . S
H3897 C3907 0.929 . S
H3898 C3902 0.929 . S
H3899 C3908 0.929 . S
C3900 H3894 0.930 . S
C3900 C3901 1.367 . S
C3900 C3908 1.378 . S
C3901 C3900 1.367 . S
C3901 C3909 1.433 . S
C3902 H3898 0.929 . S
C3902 C3904 1.378 . S
C3902 C3906 1.350 . S
C3903 C3906 1.463 . S
C3903 C3908 1.350 . S
C3903 N3911 1.427 . S
C3904 H3895 0.930 . S
C3904 C3902 1.378 . S
C3904 C3905 1.367 . S
C3905 C3904 1.367 . S
C3905 C3907 1.433 . S
C3906 C3902 1.350 . S
C3906 C3903 1.463 . S
C3906 N3910 1.427 . S
C3907 H3897 0.929 . S
C3907 C3905 1.433 . S
C3907 N3910 1.384 . S
C3908 H3899 0.929 . S
C3908 C3900 1.378 . S
C3908 C3903 1.350 . S
C3909 H3896 0.929 . S
C3909 C3901 1.433 . S
C3909 N3911 1.384 . S
N3910 C3906 1.427 . S
N3910 C3907 1.384 . S
N3911 C3903 1.427 . S
N3911 C3909 1.384 . S
H3912 C3918 0.930 . S
H3913 C3922 0.930 . S
H3914 C3927 0.929 . S
H3915 C3925 0.929 . S
H3916 C3920 0.929 . S
H3917 C3926 0.929 . S
C3918 H3912 0.930 . S
C3918 C3919 1.367 . S
C3918 C3926 1.378 . S
C3919 C3918 1.367 . S
C3919 C3927 1.433 . S
C3920 H3916 0.929 . S
C3920 C3922 1.378 . S
C3920 C3924 1.350 . S
C3921 C3924 1.463 . S
C3921 C3926 1.350 . S
C3921 N3929 1.427 . S
C3922 H3913 0.930 . S
C3922 C3920 1.378 . S
C3922 C3923 1.367 . S
C3923 C3922 1.367 . S
C3923 C3925 1.433 . S
C3924 C3920 1.350 . S
C3924 C3921 1.463 . S
C3924 N3928 1.427 . S
C3925 H3915 0.929 . S
C3925 C3923 1.433 . S
C3925 N3928 1.384 . S
C3926 H3917 0.929 . S
C3926 C3918 1.378 . S
C3926 C3921 1.350 . S
C3927 H3914 0.929 . S
C3927 C3919 1.433 . S
C3927 N3929 1.384 . S
N3928 C3924 1.427 . S
N3928 C3925 1.384 . S
N3929 C3921 1.427 . S
N3929 C3927 1.384 . S
H3930 C3936 0.930 . S
H3931 C3940 0.930 . S
H3932 C3945 0.929 . S
H3933 C3943 0.929 . S
H3934 C3938 0.929 . S
H3935 C3944 0.929 . S
C3936 H3930 0.930 . S
C3936 C3937 1.367 . S
C3936 C3944 1.378 . S
C3937 C3936 1.367 . S
C3937 C3945 1.433 . S
C3938 H3934 0.929 . S
C3938 C3940 1.378 . S
C3938 C3942 1.350 . S
C3939 C3942 1.463 . S
C3939 C3944 1.350 . S
C3939 N3947 1.427 . S
C3940 H3931 0.930 . S
C3940 C3938 1.378 . S
C3940 C3941 1.367 . S
C3941 C3940 1.367 . S
C3941 C3943 1.433 . S
C3942 C3938 1.350 . S
C3942 C3939 1.463 . S
C3942 N3946 1.427 . S
C3943 H3933 0.929 . S
C3943 C3941 1.433 . S
C3943 N3946 1.384 . S
C3944 H3935 0.929 . S
C3944 C3936 1.378 . S
C3944 C3939 1.350 . S
C3945 H3932 0.929 . S
C3945 C3937 1.433 . S
C3945 N3947 1.384 . S
N3946 C3942 1.427 . S
N3946 C3943 1.384 . S
N3947 C3939 1.427 . S
N3947 C3945 1.384 . S
H3948 C3954 0.930 . S
H3949 C3958 0.930 . S
H3950 C3963 0.929 . S
H3951 C3961 0.929 . S
H3952 C3956 0.929 . S
H3953 C3962 0.929 . S
C3954 H3948 0.930 . S
C3954 C3955 1.367 . S
C3954 C3962 1.378 . S
C3955 C3954 1.367 . S
C3955 C3963 1.433 . S
C3956 H3952 0.929 . S
C3956 C3958 1.378 . S
C3956 C3960 1.350 . S
C3957 C3960 1.463 . S
C3957 C3962 1.350 . S
C3957 N3965 1.427 . S
C3958 H3949 0.930 . S
C3958 C3956 1.378 . S
C3958 C3959 1.367 . S
C3959 C3958 1.367 . S
C3959 C3961 1.433 . S
C3960 C3956 1.350 . S
C3960 C3957 1.463 . S
C3960 N3964 1.427 . S
C3961 H3951 0.929 . S
C3961 C3959 1.433 . S
C3961 N3964 1.384 . S
C3962 H3953 0.929 . S
C3962 C3954 1.378 . S
C3962 C3957 1.350 . S
C3963 H3950 0.929 . S
C3963 C3955 1.433 . S
C3963 N3965 1.384 . S
N3964 C3960 1.427 . S
N3964 C3961 1.384 . S
N3965 C3957 1.427 . S
N3965 C3963 1.384 . S
H3966 C3972 0.930 . S
H3967 C3976 0.930 . S
H3968 C3981 0.929 . S
H3969 C3979 0.929 . S
H3970 C3974 0.929 . S
H3971 C3980 0.929 . S
C3972 H3966 0.930 . S
C3972 C3973 1.367 . S
C3972 C3980 1.378 . S
C3973 C3972 1.367 . S
C3973 C3981 1.433 . S
C3974 H3970 0.929 . S
C3974 C3976 1.378 . S
C3974 C3978 1.350 . S
C3975 C3978 1.463 . S
C3975 C3980 1.350 . S
C3975 N3983 1.427 . S
C3976 H3967 0.930 . S
C3976 C3974 1.378 . S
C3976 C3977 1.367 . S
C3977 C3976 1.367 . S
C3977 C3979 1.433 . S
C3978 C3974 1.350 . S
C3978 C3975 1.463 . S
C3978 N3982 1.427 . S
C3979 H3969 0.929 . S
C3979 C3977 1.433 . S
C3979 N3982 1.384 . S
C3980 H3971 0.929 . S
C3980 C3972 1.378 . S
C3980 C3975 1.350 . S
C3981 H3968 0.929 . S
C3981 C3973 1.433 . S
C3981 N3983 1.384 . S
N3982 C3978 1.427 . S
N3982 C3979 1.384 . S
N3983 C3975 1.427 . S
N3983 C3981 1.384 . S
H3984 C3990 0.930 . S
H3985 C3994 0.930 . S
H3986 C3999 0.929 . S
H3987 C3997 0.929 . S
H3988 C3992 0.929 . S
H3989 C3998 0.929 . S
C3990 H3984 0.930 . S
C3990 C3991 1.367 . S
C3990 C3998 1.378 . S
C3991 C3990 1.367 . S
C3991 C3999 1.433 . S
C3992 H3988 0.929 . S
C3992 C3994 1.378 . S
C3992 C3996 1.350 . S
C3993 C3996 1.463 . S
C3993 C3998 1.350 . S
C3993 N4001 1.427 . S
C3994 H3985 0.930 . S
C3994 C3992 1.378 . S
C3994 C3995 1.367 . S
C3995 C3994 1.367 . S
C3995 C3997 1.433 . S
C3996 C3992 1.350 . S
C3996 C3993 1.463 . S
C3996 N4000 1.427 . S
C3997 H3987 0.929 . S
C3997 C3995 1.433 . S
C3997 N4000 1.384 . S
C3998 H3989 0.929 . S
C3998 C3990 1.378 . S
C3998 C3993 1.350 . S
C3999 H3986 0.929 . S
C3999 C3991 1.433 . S
C3999 N4001 1.384 . S
N4000 C3996 1.427 . S
N4000 C3997 1.384 . S
N4001 C3993 1.427 . S
N4001 C3999 1.384 . S
H4002 C4008 0.930 . S
H4003 C4012 0.930 . S
H4004 C4017 0.929 . S
H4005 C4015 0.929 . S
H4006 C4010 0.929 . S
H4007 C4016 0.929 . S
C4008 H4002 0.930 . S
C4008 C4009 1.367 . S
C4008 C4016 1.378 . S
C4009 C4008 1.367 . S
C4009 C4017 1.433 . S
C4010 H4006 0.929 . S
C4010 C4012 1.378 . S
C4010 C4014 1.350 . S
C4011 C4014 1.463 . S
C4011 C4016 1.350 . S
C4011 N4019 1.427 . S
C4012 H4003 0.930 . S
C4012 C4010 1.378 . S
C4012 C4013 1.367 . S
C4013 C4012 1.367 . S
C4013 C4015 1.433 . S
C4014 C4010 1.350 . S
C4014 C4011 1.463 . S
C4014 N4018 1.427 . S
C4015 H4005 0.929 . S
C4015 C4013 1.433 . S
C4015 N4018 1.384 . S
C4016 H4007 0.929 . S
C4016 C4008 1.378 . S
C4016 C4011 1.350 . S
C4017 H4004 0.929 . S
C4017 C4009 1.433 . S
C4017 N4019 1.384 . S
N4018 C4014 1.427 . S
N4018 C4015 1.384 . S
N4019 C4011 1.427 . S
N4019 C4017 1.384 . S
H4020 C4026 0.930 . S
H4021 C4030 0.930 . S
H4022 C4035 0.929 . S
H4023 C4033 0.929 . S
H4024 C4028 0.929 . S
H4025 C4034 0.929 . S
C4026 H4020 0.930 . S
C4026 C4027 1.367 . S
C4026 C4034 1.378 . S
C4027 C4026 1.367 . S
C4027 C4035 1.433 . S
C4028 H4024 0.929 . S
C4028 C4030 1.378 . S
C4028 C4032 1.350 . S
C4029 C4032 1.463 . S
C4029 C4034 1.350 . S
C4029 N4037 1.427 . S
C4030 H4021 0.930 . S
C4030 C4028 1.378 . S
C4030 C4031 1.367 . S
C4031 C4030 1.367 . S
C4031 C4033 1.433 . S
C4032 C4028 1.350 . S
C4032 C4029 1.463 . S
C4032 N4036 1.427 . S
C4033 H4023 0.929 . S
C4033 C4031 1.433 . S
C4033 N4036 1.384 . S
C4034 H4025 0.929 . S
C4034 C4026 1.378 . S
C4034 C4029 1.350 . S
C4035 H4022 0.929 . S
C4035 C4027 1.433 . S
C4035 N4037 1.384 . S
N4036 C4032 1.427 . S
N4036 C4033 1.384 . S
N4037 C4029 1.427 . S
N4037 C4035 1.384 . S
H4038 C4044 0.930 . S
H4039 C4048 0.930 . S
H4040 C4053 0.929 . S
H4041 C4051 0.929 . S
H4042 C4046 0.929 . S
H4043 C4052 0.929 . S
C4044 H4038 0.930 . S
C4044 C4045 1.367 . S
C4044 C4052 1.378 . S
C4045 C4044 1.367 . S
C4045 C4053 1.433 . S
C4046 H4042 0.929 . S
C4046 C4048 1.378 . S
C4046 C4050 1.350 . S
C4047 C4050 1.463 . S
C4047 C4052 1.350 . S
C4047 N4055 1.427 . S
C4048 H4039 0.930 . S
C4048 C4046 1.378 . S
C4048 C4049 1.367 . S
C4049 C4048 1.367 . S
C4049 C4051 1.433 . S
C4050 C4046 1.350 . S
C4050 C4047 1.463 . S
C4050 N4054 1.427 . S
C4051 H4041 0.929 . S
C4051 C4049 1.433 . S
C4051 N4054 1.384 . S
C4052 H4043 0.929 . S
C4052 C4044 1.378 . S
C4052 C4047 1.350 . S
C4053 H4040 0.929 . S
C4053 C4045 1.433 . S
C4053 N4055 1.384 . S
N4054 C4050 1.427 . S
N4054 C4051 1.384 . S
N4055 C4047 1.427 . S
N4055 C4053 1.384 . S
H4056 C4062 0.930 . S
H4057 C4066 0.930 . S
H4058 C4071 0.929 . S
H4059 C4069 0.929 . S
H4060 C4064 0.929 . S
H4061 C4070 0.929 . S
C4062 H4056 0.930 . S
C4062 C4063 1.367 . S
C4062 C4070 1.378 . S
C4063 C4062 1.367 . S
C4063 C4071 1.433 . S
C4064 H4060 0.929 . S
C4064 C4066 1.378 . S
C4064 C4068 1.350 . S
C4065 C4068 1.463 . S
C4065 C4070 1.350 . S
C4065 N4073 1.427 . S
C4066 H4057 0.930 . S
C4066 C4064 1.378 . S
C4066 C4067 1.367 . S
C4067 C4066 1.367 . S
C4067 C4069 1.433 . S
C4068 C4064 1.350 . S
C4068 C4065 1.463 . S
C4068 N4072 1.427 . S
C4069 H4059 0.929 . S
C4069 C4067 1.433 . S
C4069 N4072 1.384 . S
C4070 H4061 0.929 . S
C4070 C4062 1.378 . S
C4070 C4065 1.350 . S
C4071 H4058 0.929 . S
C4071 C4063 1.433 . S
C4071 N4073 1.384 . S
N4072 C4068 1.427 . S
N4072 C4069 1.384 . S
N4073 C4065 1.427 . S
N4073 C4071 1.384 . S
H4074 C4080 0.930 . S
H4075 C4084 0.930 . S
H4076 C4089 0.929 . S
H4077 C4087 0.929 . S
H4078 C4082 0.929 . S
H4079 C4088 0.929 . S
C4080 H4074 0.930 . S
C4080 C4081 1.367 . S
C4080 C4088 1.378 . S
C4081 C4080 1.367 . S
C4081 C4089 1.433 . S
C4082 H4078 0.929 . S
C4082 C4084 1.378 . S
C4082 C4086 1.350 . S
C4083 C4086 1.463 . S
C4083 C4088 1.350 . S
C4083 N4091 1.427 . S
C4084 H4075 0.930 . S
C4084 C4082 1.378 . S
C4084 C4085 1.367 . S
C4085 C4084 1.367 . S
C4085 C4087 1.433 . S
C4086 C4082 1.350 . S
C4086 C4083 1.463 . S
C4086 N4090 1.427 . S
C4087 H4077 0.929 . S
C4087 C4085 1.433 . S
C4087 N4090 1.384 . S
C4088 H4079 0.929 . S
C4088 C4080 1.378 . S
C4088 C4083 1.350 . S
C4089 H4076 0.929 . S
C4089 C4081 1.433 . S
C4089 N4091 1.384 . S
N4090 C4086 1.427 . S
N4090 C4087 1.384 . S
N4091 C4083 1.427 . S
N4091 C4089 1.384 . S
H4092 C4098 0.930 . S
H4093 C4102 0.930 . S
H4094 C4107 0.929 . S
H4095 C4105 0.929 . S
H4096 C4100 0.929 . S
H4097 C4106 0.929 . S
C4098 H4092 0.930 . S
C4098 C4099 1.367 . S
C4098 C4106 1.378 . S
C4099 C4098 1.367 . S
C4099 C4107 1.433 . S
C4100 H4096 0.929 . S
C4100 C4102 1.378 . S
C4100 C4104 1.350 . S
C4101 C4104 1.463 . S
C4101 C4106 1.350 . S
C4101 N4109 1.427 . S
C4102 H4093 0.930 . S
C4102 C4100 1.378 . S
C4102 C4103 1.367 . S
C4103 C4102 1.367 . S
C4103 C4105 1.433 . S
C4104 C4100 1.350 . S
C4104 C4101 1.463 . S
C4104 N4108 1.427 . S
C4105 H4095 0.929 . S
C4105 C4103 1.433 . S
C4105 N4108 1.384 . S
C4106 H4097 0.929 . S
C4106 C4098 1.378 . S
C4106 C4101 1.350 . S
C4107 H4094 0.929 . S
C4107 C4099 1.433 . S
C4107 N4109 1.384 . S
N4108 C4104 1.427 . S
N4108 C4105 1.384 . S
N4109 C4101 1.427 . S
N4109 C4107 1.384 . S
H4110 C4116 0.930 . S
H4111 C4120 0.930 . S
H4112 C4125 0.929 . S
H4113 C4123 0.929 . S
H4114 C4118 0.929 . S
H4115 C4124 0.929 . S
C4116 H4110 0.930 . S
C4116 C4117 1.367 . S
C4116 C4124 1.378 . S
C4117 C4116 1.367 . S
C4117 C4125 1.433 . S
C4118 H4114 0.929 . S
C4118 C4120 1.378 . S
C4118 C4122 1.350 . S
C4119 C4122 1.463 . S
C4119 C4124 1.350 . S
C4119 N4127 1.427 . S
C4120 H4111 0.930 . S
C4120 C4118 1.378 . S
C4120 C4121 1.367 . S
C4121 C4120 1.367 . S
C4121 C4123 1.433 . S
C4122 C4118 1.350 . S
C4122 C4119 1.463 . S
C4122 N4126 1.427 . S
C4123 H4113 0.929 . S
C4123 C4121 1.433 . S
C4123 N4126 1.384 . S
C4124 H4115 0.929 . S
C4124 C4116 1.378 . S
C4124 C4119 1.350 . S
C4125 H4112 0.929 . S
C4125 C4117 1.433 . S
C4125 N4127 1.384 . S
N4126 C4122 1.427 . S
N4126 C4123 1.384 . S
N4127 C4119 1.427 . S
N4127 C4125 1.384 . S
H4128 C4134 0.930 . S
H4129 C4138 0.930 . S
H4130 C4143 0.929 . S
H4131 C4141 0.929 . S
H4132 C4136 0.929 . S
H4133 C4142 0.929 . S
C4134 H4128 0.930 . S
C4134 C4135 1.367 . S
C4134 C4142 1.378 . S
C4135 C4134 1.367 . S
C4135 C4143 1.433 . S
C4136 H4132 0.929 . S
C4136 C4138 1.378 . S
C4136 C4140 1.350 . S
C4137 C4140 1.463 . S
C4137 C4142 1.350 . S
C4137 N4145 1.427 . S
C4138 H4129 0.930 . S
C4138 C4136 1.378 . S
C4138 C4139 1.367 . S
C4139 C4138 1.367 . S
C4139 C4141 1.433 . S
C4140 C4136 1.350 . S
C4140 C4137 1.463 . S
C4140 N4144 1.427 . S
C4141 H4131 0.929 . S
C4141 C4139 1.433 . S
C4141 N4144 1.384 . S
C4142 H4133 0.929 . S
C4142 C4134 1.378 . S
C4142 C4137 1.350 . S
C4143 H4130 0.929 . S
C4143 C4135 1.433 . S
C4143 N4145 1.384 . S
N4144 C4140 1.427 . S
N4144 C4141 1.384 . S
N4145 C4137 1.427 . S
N4145 C4143 1.384 . S
H4146 C4152 0.930 . S
H4147 C4156 0.930 . S
H4148 C4161 0.929 . S
H4149 C4159 0.929 . S
H4150 C4154 0.929 . S
H4151 C4160 0.929 . S
C4152 H4146 0.930 . S
C4152 C4153 1.367 . S
C4152 C4160 1.378 . S
C4153 C4152 1.367 . S
C4153 C4161 1.433 . S
C4154 H4150 0.929 . S
C4154 C4156 1.378 . S
C4154 C4158 1.350 . S
C4155 C4158 1.463 . S
C4155 C4160 1.350 . S
C4155 N4163 1.427 . S
C4156 H4147 0.930 . S
C4156 C4154 1.378 . S
C4156 C4157 1.367 . S
C4157 C4156 1.367 . S
C4157 C4159 1.433 . S
C4158 C4154 1.350 . S
C4158 C4155 1.463 . S
C4158 N4162 1.427 . S
C4159 H4149 0.929 . S
C4159 C4157 1.433 . S
C4159 N4162 1.384 . S
C4160 H4151 0.929 . S
C4160 C4152 1.378 . S
C4160 C4155 1.350 . S
C4161 H4148 0.929 . S
C4161 C4153 1.433 . S
C4161 N4163 1.384 . S
N4162 C4158 1.427 . S
N4162 C4159 1.384 . S
N4163 C4155 1.427 . S
N4163 C4161 1.384 . S
H4164 C4170 0.930 . S
H4165 C4174 0.930 . S
H4166 C4179 0.929 . S
H4167 C4177 0.929 . S
H4168 C4172 0.929 . S
H4169 C4178 0.929 . S
C4170 H4164 0.930 . S
C4170 C4171 1.367 . S
C4170 C4178 1.378 . S
C4171 C4170 1.367 . S
C4171 C4179 1.433 . S
C4172 H4168 0.929 . S
C4172 C4174 1.378 . S
C4172 C4176 1.350 . S
C4173 C4176 1.463 . S
C4173 C4178 1.350 . S
C4173 N4181 1.427 . S
C4174 H4165 0.930 . S
C4174 C4172 1.378 . S
C4174 C4175 1.367 . S
C4175 C4174 1.367 . S
C4175 C4177 1.433 . S
C4176 C4172 1.350 . S
C4176 C4173 1.463 . S
C4176 N4180 1.427 . S
C4177 H4167 0.929 . S
C4177 C4175 1.433 . S
C4177 N4180 1.384 . S
C4178 H4169 0.929 . S
C4178 C4170 1.378 . S
C4178 C4173 1.350 . S
C4179 H4166 0.929 . S
C4179 C4171 1.433 . S
C4179 N4181 1.384 . S
N4180 C4176 1.427 . S
N4180 C4177 1.384 . S
N4181 C4173 1.427 . S
N4181 C4179 1.384 . S
H4182 C4188 0.930 . S
H4183 C4192 0.930 . S
H4184 C4197 0.929 . S
H4185 C4195 0.929 . S
H4186 C4190 0.929 . S
H4187 C4196 0.929 . S
C4188 H4182 0.930 . S
C4188 C4189 1.367 . S
C4188 C4196 1.378 . S
C4189 C4188 1.367 . S
C4189 C4197 1.433 . S
C4190 H4186 0.929 . S
C4190 C4192 1.378 . S
C4190 C4194 1.350 . S
C4191 C4194 1.463 . S
C4191 C4196 1.350 . S
C4191 N4199 1.427 . S
C4192 H4183 0.930 . S
C4192 C4190 1.378 . S
C4192 C4193 1.367 . S
C4193 C4192 1.367 . S
C4193 C4195 1.433 . S
C4194 C4190 1.350 . S
C4194 C4191 1.463 . S
C4194 N4198 1.427 . S
C4195 H4185 0.929 . S
C4195 C4193 1.433 . S
C4195 N4198 1.384 . S
C4196 H4187 0.929 . S
C4196 C4188 1.378 . S
C4196 C4191 1.350 . S
C4197 H4184 0.929 . S
C4197 C4189 1.433 . S
C4197 N4199 1.384 . S
N4198 C4194 1.427 . S
N4198 C4195 1.384 . S
N4199 C4191 1.427 . S
N4199 C4197 1.384 . S
H4200 C4206 0.930 . S
H4201 C4210 0.930 . S
H4202 C4215 0.929 . S
H4203 C4213 0.929 . S
H4204 C4208 0.929 . S
H4205 C4214 0.929 . S
C4206 H4200 0.930 . S
C4206 C4207 1.367 . S
C4206 C4214 1.378 . S
C4207 C4206 1.367 . S
C4207 C4215 1.433 . S
C4208 H4204 0.929 . S
C4208 C4210 1.378 . S
C4208 C4212 1.350 . S
C4209 C4212 1.463 . S
C4209 C4214 1.350 . S
C4209 N4217 1.427 . S
C4210 H4201 0.930 . S
C4210 C4208 1.378 . S
C4210 C4211 1.367 . S
C4211 C4210 1.367 . S
C4211 C4213 1.433 . S
C4212 C4208 1.350 . S
C4212 C4209 1.463 . S
C4212 N4216 1.427 . S
C4213 H4203 0.929 . S
C4213 C4211 1.433 . S
C4213 N4216 1.384 . S
C4214 H4205 0.929 . S
C4214 C4206 1.378 . S
C4214 C4209 1.350 . S
C4215 H4202 0.929 . S
C4215 C4207 1.433 . S
C4215 N4217 1.384 . S
N4216 C4212 1.427 . S
N4216 C4213 1.384 . S
N4217 C4209 1.427 . S
N4217 C4215 1.384 . S
H4218 C4224 0.930 . S
H4219 C4228 0.930 . S
H4220 C4233 0.929 . S
H4221 C4231 0.929 . S
H4222 C4226 0.929 . S
H4223 C4232 0.929 . S
C4224 H4218 0.930 . S
C4224 C4225 1.367 . S
C4224 C4232 1.378 . S
C4225 C4224 1.367 . S
C4225 C4233 1.433 . S
C4226 H4222 0.929 . S
C4226 C4228 1.378 . S
C4226 C4230 1.350 . S
C4227 C4230 1.463 . S
C4227 C4232 1.350 . S
C4227 N4235 1.427 . S
C4228 H4219 0.930 . S
C4228 C4226 1.378 . S
C4228 C4229 1.367 . S
C4229 C4228 1.367 . S
C4229 C4231 1.433 . S
C4230 C4226 1.350 . S
C4230 C4227 1.463 . S
C4230 N4234 1.427 . S
C4231 H4221 0.929 . S
C4231 C4229 1.433 . S
C4231 N4234 1.384 . S
C4232 H4223 0.929 . S
C4232 C4224 1.378 . S
C4232 C4227 1.350 . S
C4233 H4220 0.929 . S
C4233 C4225 1.433 . S
C4233 N4235 1.384 . S
N4234 C4230 1.427 . S
N4234 C4231 1.384 . S
N4235 C4227 1.427 . S
N4235 C4233 1.384 . S
H4236 C4242 0.930 . S
H4237 C4246 0.930 . S
H4238 C4251 0.929 . S
H4239 C4249 0.929 . S
H4240 C4244 0.929 . S
H4241 C4250 0.929 . S
C4242 H4236 0.930 . S
C4242 C4243 1.367 . S
C4242 C4250 1.378 . S
C4243 C4242 1.367 . S
C4243 C4251 1.433 . S
C4244 H4240 0.929 . S
C4244 C4246 1.378 . S
C4244 C4248 1.350 . S
C4245 C4248 1.463 . S
C4245 C4250 1.350 . S
C4245 N4253 1.427 . S
C4246 H4237 0.930 . S
C4246 C4244 1.378 . S
C4246 C4247 1.367 . S
C4247 C4246 1.367 . S
C4247 C4249 1.433 . S
C4248 C4244 1.350 . S
C4248 C4245 1.463 . S
C4248 N4252 1.427 . S
C4249 H4239 0.929 . S
C4249 C4247 1.433 . S
C4249 N4252 1.384 . S
C4250 H4241 0.929 . S
C4250 C4242 1.378 . S
C4250 C4245 1.350 . S
C4251 H4238 0.929 . S
C4251 C4243 1.433 . S
C4251 N4253 1.384 . S
N4252 C4248 1.427 . S
N4252 C4249 1.384 . S
N4253 C4245 1.427 . S
N4253 C4251 1.384 . S
H4254 C4260 0.930 . S
H4255 C4264 0.930 . S
H4256 C4269 0.929 . S
H4257 C4267 0.929 . S
H4258 C4262 0.929 . S
H4259 C4268 0.929 . S
C4260 H4254 0.930 . S
C4260 C4261 1.367 . S
C4260 C4268 1.378 . S
C4261 C4260 1.367 . S
C4261 C4269 1.433 . S
C4262 H4258 0.929 . S
C4262 C4264 1.378 . S
C4262 C4266 1.350 . S
C4263 C4266 1.463 . S
C4263 C4268 1.350 . S
C4263 N4271 1.427 . S
C4264 H4255 0.930 . S
C4264 C4262 1.378 . S
C4264 C4265 1.367 . S
C4265 C4264 1.367 . S
C4265 C4267 1.433 . S
C4266 C4262 1.350 . S
C4266 C4263 1.463 . S
C4266 N4270 1.427 . S
C4267 H4257 0.929 . S
C4267 C4265 1.433 . S
C4267 N4270 1.384 . S
C4268 H4259 0.929 . S
C4268 C4260 1.378 . S
C4268 C4263 1.350 . S
C4269 H4256 0.929 . S
C4269 C4261 1.433 . S
C4269 N4271 1.384 . S
N4270 C4266 1.427 . S
N4270 C4267 1.384 . S
N4271 C4263 1.427 . S
N4271 C4269 1.384 . S
H4272 C4278 0.930 . S
H4273 C4282 0.930 . S
H4274 C4287 0.929 . S
H4275 C4285 0.929 . S
H4276 C4280 0.929 . S
H4277 C4286 0.929 . S
C4278 H4272 0.930 . S
C4278 C4279 1.367 . S
C4278 C4286 1.378 . S
C4279 C4278 1.367 . S
C4279 C4287 1.433 . S
C4280 H4276 0.929 . S
C4280 C4282 1.378 . S
C4280 C4284 1.350 . S
C4281 C4284 1.463 . S
C4281 C4286 1.350 . S
C4281 N4289 1.427 . S
C4282 H4273 0.930 . S
C4282 C4280 1.378 . S
C4282 C4283 1.367 . S
C4283 C4282 1.367 . S
C4283 C4285 1.433 . S
C4284 C4280 1.350 . S
C4284 C4281 1.463 . S
C4284 N4288 1.427 . S
C4285 H4275 0.929 . S
C4285 C4283 1.433 . S
C4285 N4288 1.384 . S
C4286 H4277 0.929 . S
C4286 C4278 1.378 . S
C4286 C4281 1.350 . S
C4287 H4274 0.929 . S
C4287 C4279 1.433 . S
C4287 N4289 1.384 . S
N4288 C4284 1.427 . S
N4288 C4285 1.384 . S
N4289 C4281 1.427 . S
N4289 C4287 1.384 . S
H4290 C4296 0.930 . S
H4291 C4300 0.930 . S
H4292 C4305 0.929 . S
H4293 C4303 0.929 . S
H4294 C4298 0.929 . S
H4295 C4304 0.929 . S
C4296 H4290 0.930 . S
C4296 C4297 1.367 . S
C4296 C4304 1.378 . S
C4297 C4296 1.367 . S
C4297 C4305 1.433 . S
C4298 H4294 0.929 . S
C4298 C4300 1.378 . S
C4298 C4302 1.350 . S
C4299 C4302 1.463 . S
C4299 C4304 1.350 . S
C4299 N4307 1.427 . S
C4300 H4291 0.930 . S
C4300 C4298 1.378 . S
C4300 C4301 1.367 . S
C4301 C4300 1.367 . S
C4301 C4303 1.433 . S
C4302 C4298 1.350 . S
C4302 C4299 1.463 . S
C4302 N4306 1.427 . S
C4303 H4293 0.929 . S
C4303 C4301 1.433 . S
C4303 N4306 1.384 . S
C4304 H4295 0.929 . S
C4304 C4296 1.378 . S
C4304 C4299 1.350 . S
C4305 H4292 0.929 . S
C4305 C4297 1.433 . S
C4305 N4307 1.384 . S
N4306 C4302 1.427 . S
N4306 C4303 1.384 . S
N4307 C4299 1.427 . S
N4307 C4305 1.384 . S
H4308 C4314 0.930 . S
H4309 C4318 0.930 . S
H4310 C4323 0.929 . S
H4311 C4321 0.929 . S
H4312 C4316 0.929 . S
H4313 C4322 0.929 . S
C4314 H4308 0.930 . S
C4314 C4315 1.367 . S
C4314 C4322 1.378 . S
C4315 C4314 1.367 . S
C4315 C4323 1.433 . S
C4316 H4312 0.929 . S
C4316 C4318 1.378 . S
C4316 C4320 1.350 . S
C4317 C4320 1.463 . S
C4317 C4322 1.350 . S
C4317 N4325 1.427 . S
C4318 H4309 0.930 . S
C4318 C4316 1.378 . S
C4318 C4319 1.367 . S
C4319 C4318 1.367 . S
C4319 C4321 1.433 . S
C4320 C4316 1.350 . S
C4320 C4317 1.463 . S
C4320 N4324 1.427 . S
C4321 H4311 0.929 . S
C4321 C4319 1.433 . S
C4321 N4324 1.384 . S
C4322 H4313 0.929 . S
C4322 C4314 1.378 . S
C4322 C4317 1.350 . S
C4323 H4310 0.929 . S
C4323 C4315 1.433 . S
C4323 N4325 1.384 . S
N4324 C4320 1.427 . S
N4324 C4321 1.384 . S
N4325 C4317 1.427 . S
N4325 C4323 1.384 . S
H4326 C4332 0.930 . S
H4327 C4336 0.930 . S
H4328 C4341 0.929 . S
H4329 C4339 0.929 . S
H4330 C4334 0.929 . S
H4331 C4340 0.929 . S
C4332 H4326 0.930 . S
C4332 C4333 1.367 . S
C4332 C4340 1.378 . S
C4333 C4332 1.367 . S
C4333 C4341 1.433 . S
C4334 H4330 0.929 . S
C4334 C4336 1.378 . S
C4334 C4338 1.350 . S
C4335 C4338 1.463 . S
C4335 C4340 1.350 . S
C4335 N4343 1.427 . S
C4336 H4327 0.930 . S
C4336 C4334 1.378 . S
C4336 C4337 1.367 . S
C4337 C4336 1.367 . S
C4337 C4339 1.433 . S
C4338 C4334 1.350 . S
C4338 C4335 1.463 . S
C4338 N4342 1.427 . S
C4339 H4329 0.929 . S
C4339 C4337 1.433 . S
C4339 N4342 1.384 . S
C4340 H4331 0.929 . S
C4340 C4332 1.378 . S
C4340 C4335 1.350 . S
C4341 H4328 0.929 . S
C4341 C4333 1.433 . S
C4341 N4343 1.384 . S
N4342 C4338 1.427 . S
N4342 C4339 1.384 . S
N4343 C4335 1.427 . S
N4343 C4341 1.384 . S
H4344 C4350 0.930 . S
H4345 C4354 0.930 . S
H4346 C4359 0.929 . S
H4347 C4357 0.929 . S
H4348 C4352 0.929 . S
H4349 C4358 0.929 . S
C4350 H4344 0.930 . S
C4350 C4351 1.367 . S
C4350 C4358 1.378 . S
C4351 C4350 1.367 . S
C4351 C4359 1.433 . S
C4352 H4348 0.929 . S
C4352 C4354 1.378 . S
C4352 C4356 1.350 . S
C4353 C4356 1.463 . S
C4353 C4358 1.350 . S
C4353 N4361 1.427 . S
C4354 H4345 0.930 . S
C4354 C4352 1.378 . S
C4354 C4355 1.367 . S
C4355 C4354 1.367 . S
C4355 C4357 1.433 . S
C4356 C4352 1.350 . S
C4356 C4353 1.463 . S
C4356 N4360 1.427 . S
C4357 H4347 0.929 . S
C4357 C4355 1.433 . S
C4357 N4360 1.384 . S
C4358 H4349 0.929 . S
C4358 C4350 1.378 . S
C4358 C4353 1.350 . S
C4359 H4346 0.929 . S
C4359 C4351 1.433 . S
C4359 N4361 1.384 . S
N4360 C4356 1.427 . S
N4360 C4357 1.384 . S
N4361 C4353 1.427 . S
N4361 C4359 1.384 . S
H4362 C4368 0.930 . S
H4363 C4372 0.930 . S
H4364 C4377 0.929 . S
H4365 C4375 0.929 . S
H4366 C4370 0.929 . S
H4367 C4376 0.929 . S
C4368 H4362 0.930 . S
C4368 C4369 1.367 . S
C4368 C4376 1.378 . S
C4369 C4368 1.367 . S
C4369 C4377 1.433 . S
C4370 H4366 0.929 . S
C4370 C4372 1.378 . S
C4370 C4374 1.350 . S
C4371 C4374 1.463 . S
C4371 C4376 1.350 . S
C4371 N4379 1.427 . S
C4372 H4363 0.930 . S
C4372 C4370 1.378 . S
C4372 C4373 1.367 . S
C4373 C4372 1.367 . S
C4373 C4375 1.433 . S
C4374 C4370 1.350 . S
C4374 C4371 1.463 . S
C4374 N4378 1.427 . S
C4375 H4365 0.929 . S
C4375 C4373 1.433 . S
C4375 N4378 1.384 . S
C4376 H4367 0.929 . S
C4376 C4368 1.378 . S
C4376 C4371 1.350 . S
C4377 H4364 0.929 . S
C4377 C4369 1.433 . S
C4377 N4379 1.384 . S
N4378 C4374 1.427 . S
N4378 C4375 1.384 . S
N4379 C4371 1.427 . S
N4379 C4377 1.384 . S
H4380 C4386 0.930 . S
H4381 C4390 0.930 . S
H4382 C4395 0.929 . S
H4383 C4393 0.929 . S
H4384 C4388 0.929 . S
H4385 C4394 0.929 . S
C4386 H4380 0.930 . S
C4386 C4387 1.367 . S
C4386 C4394 1.378 . S
C4387 C4386 1.367 . S
C4387 C4395 1.433 . S
C4388 H4384 0.929 . S
C4388 C4390 1.378 . S
C4388 C4392 1.350 . S
C4389 C4392 1.463 . S
C4389 C4394 1.350 . S
C4389 N4397 1.427 . S
C4390 H4381 0.930 . S
C4390 C4388 1.378 . S
C4390 C4391 1.367 . S
C4391 C4390 1.367 . S
C4391 C4393 1.433 . S
C4392 C4388 1.350 . S
C4392 C4389 1.463 . S
C4392 N4396 1.427 . S
C4393 H4383 0.929 . S
C4393 C4391 1.433 . S
C4393 N4396 1.384 . S
C4394 H4385 0.929 . S
C4394 C4386 1.378 . S
C4394 C4389 1.350 . S
C4395 H4382 0.929 . S
C4395 C4387 1.433 . S
C4395 N4397 1.384 . S
N4396 C4392 1.427 . S
N4396 C4393 1.384 . S
N4397 C4389 1.427 . S
N4397 C4395 1.384 . S
H4398 C4404 0.930 . S
H4399 C4408 0.930 . S
H4400 C4413 0.929 . S
H4401 C4411 0.929 . S
H4402 C4406 0.929 . S
H4403 C4412 0.929 . S
C4404 H4398 0.930 . S
C4404 C4405 1.367 . S
C4404 C4412 1.378 . S
C4405 C4404 1.367 . S
C4405 C4413 1.433 . S
C4406 H4402 0.929 . S
C4406 C4408 1.378 . S
C4406 C4410 1.350 . S
C4407 C4410 1.463 . S
C4407 C4412 1.350 . S
C4407 N4415 1.427 . S
C4408 H4399 0.930 . S
C4408 C4406 1.378 . S
C4408 C4409 1.367 . S
C4409 C4408 1.367 . S
C4409 C4411 1.433 . S
C4410 C4406 1.350 . S
C4410 C4407 1.463 . S
C4410 N4414 1.427 . S
C4411 H4401 0.929 . S
C4411 C4409 1.433 . S
C4411 N4414 1.384 . S
C4412 H4403 0.929 . S
C4412 C4404 1.378 . S
C4412 C4407 1.350 . S
C4413 H4400 0.929 . S
C4413 C4405 1.433 . S
C4413 N4415 1.384 . S
N4414 C4410 1.427 . S
N4414 C4411 1.384 . S
N4415 C4407 1.427 . S
N4415 C4413 1.384 . S
C1399 C5 2.035 . S
C1403 C208 2.034 . S
C1417 C34 2.020 . S
C1421 C121 2.032 . S
C1435 C150 2.020 . S
C1439 C63 2.031 . S
C1453 C92 2.020 . S
C1457 C179 2.033 . S
C1471 C237 2.026 . S
C1475 C585 2.020 . S
C1489 C266 2.035 . S
C1493 C498 2.021 . S
C1507 C527 2.026 . S
C1511 C295 2.037 . S
C1525 C556 2.030 . S
C1529 C324 2.019 . S
C1543 C672 2.037 . S
C1547 C353 2.025 . S
C1561 C614 2.032 . S
C1565 C382 2.036 . S
C1579 C411 2.036 . S
C1583 C643 2.023 . S
C1597 C440 2.020 . S
C1601 C469 2.032 . S
C1615 C701 2.035 . S
C1619 C904 2.021 . S
C1633 C817 2.035 . S
C1637 C730 2.021 . S
C1651 C846 2.036 . S
C1655 C759 2.022 . S
C1669 C788 2.019 . S
C1673 C875 2.028 . S
C1687 C933 2.032 . S
C1691 C1281 2.037 . S
C1705 C1194 2.020 . S
C1709 C962 2.025 . S
C1723 C1223 2.022 . S
C1727 C991 2.023 . S
C1741 C1252 2.020 . S
C1745 C1020 2.027 . S
C1759 C1049 2.032 . S
C1763 C1368 2.020 . S
C1777 C1078 2.022 . S
C1781 C1310 2.036 . S
C1795 C1107 2.028 . S
C1799 C1339 2.019 . S
C1813 C1136 2.022 . S
C1817 C1165 2.023 . S
C1831 C13 1.552 . S
C1835 C670 1.715 . S
C1849 C612 1.711 . S
C1853 C42 1.540 . S
C1867 C641 1.713 . S
C1871 C71 1.557 . S
C1885 C467 1.715 . S
C1889 C100 1.546 . S
C1903 C129 1.556 . S
C1907 C583 1.711 . S
C1921 C496 1.712 . S
C1925 C158 1.557 . S
C1939 C187 1.541 . S
C1943 C525 1.711 . S
C1957 C216 1.543 . S
C1961 C554 1.710 . S
C1975 C322 1.712 . S
C1979 C245 1.557 . S
C1993 C235 1.713 . S
C1997 C274 1.557 . S
C2011 C303 1.545 . S
C2015 C264 1.710 . S
C2029 C293 1.710 . S
C2033 C332 1.546 . S
C2047 C380 1.710 . S
C2051 C361 1.552 . S
C2065 C390 1.556 . S
C2069 C409 1.711 . S
C2083 C438 1.715 . S
C2087 C419 1.548 . S
C2101 C351 1.713 . S
C2105 C448 1.557 . S
C2119 C477 1.540 . S
C2123 C148 1.715 . S
C2137 C506 1.537 . S
C2141 C90 1.714 . S
C2155 C3 1.711 . S
C2159 C535 1.555 . S
C2173 C564 1.536 . S
C2177 C32 1.713 . S
C2191 C61 1.710 . S
C2195 C593 1.548 . S
C2209 C206 1.713 . S
C2213 C622 1.536 . S
C2227 C651 1.548 . S
C2231 C119 1.715 . S
C2245 C680 1.557 . S
C2249 C177 1.712 . S
C2263 C709 1.557 . S
C2267 C1366 1.712 . S
C2281 C738 1.557 . S
C2285 C1308 1.712 . S
C2299 C767 1.554 . S
C2303 C1337 1.711 . S
C2317 C796 1.545 . S
C2321 C1163 1.715 . S
C2335 C825 1.536 . S
C2339 C1279 1.712 . S
C2353 C854 1.536 . S
C2357 C1192 1.712 . S
C2371 C883 1.541 . S
C2375 C1221 1.715 . S
C2389 C912 1.537 . S
C2393 C1250 1.712 . S
C2407 C941 1.539 . S
C2411 C1018 1.715 . S
C2425 C931 1.715 . S
C2429 C970 1.552 . S
C2443 C999 1.539 . S
C2447 C960 1.715 . S
C2461 C1028 1.541 . S
C2465 C989 1.715 . S
C2479 C1057 1.539 . S
C2483 C1076 1.715 . S
C2497 C1105 1.710 . S
C2501 C1086 1.546 . S
C2515 C1134 1.711 . S
C2519 C1115 1.541 . S
C2533 C1047 1.710 . S
C2537 C1144 1.545 . S
C2551 C844 1.715 . S
C2555 C1173 1.551 . S
C2569 C786 1.714 . S
C2573 C1202 1.536 . S
C2587 C699 1.710 . S
C2591 C1231 1.545 . S
C2605 C728 1.713 . S
C2609 C1260 1.556 . S
C2623 C1289 1.536 . S
C2627 C757 1.714 . S
C2641 C1318 1.557 . S
C2645 C902 1.713 . S
C2659 C1347 1.540 . S
C2663 C815 1.711 . S
C2677 C873 1.711 . S
C2681 C1376 1.556 . S
C2695 C1025 2.214 . S
C2699 C21 2.000 . S
C2713 C938 2.215 . S
C2717 C50 1.991 . S
C2731 C79 1.993 . S
C2735 C967 2.214 . S
C2749 C108 1.983 . S
C2753 C996 2.217 . S
C2767 C1083 2.214 . S
C2771 C137 2.000 . S
C2785 C166 1.996 . S
C2789 C1112 2.214 . S
C2803 C1141 2.214 . S
C2807 C195 1.992 . S
C2821 C224 1.994 . S
C2825 C1054 2.214 . S
C2839 C253 1.987 . S
C2843 C851 2.218 . S
C2857 C282 1.999 . S
C2861 C880 2.214 . S
C2875 C909 2.216 . S
C2879 C311 1.997 . S
C2893 C340 1.987 . S
C2897 C822 2.217 . S
C2911 C369 2.001 . S
C2915 C793 2.214 . S
C2929 C398 1.993 . S
C2933 C706 2.214 . S
C2947 C735 2.214 . S
C2951 C427 1.997 . S
C2965 C764 2.214 . S
C2969 C456 2.000 . S
C2983 C1373 2.217 . S
C2987 C485 1.991 . S
C3001 C514 1.996 . S
C3005 C1286 2.214 . S
C3019 C1199 2.214 . S
C3023 C543 1.992 . S
C3037 C572 1.983 . S
C3041 C1228 2.217 . S
C3055 C601 1.983 . S
C3059 C1257 2.217 . S
C3073 C1344 2.217 . S
C3077 C630 1.992 . S
C3091 C1170 2.214 . S
C3095 C659 1.997 . S
C3109 C1315 2.215 . S
C3113 C688 2.000 . S
C3127 C329 2.217 . S
C3131 C717 1.989 . S
C3145 C242 2.215 . S
C3149 C746 2.000 . S
C3163 C271 2.214 . S
C3167 C775 1.998 . S
C3181 C804 1.985 . S
C3185 C300 2.218 . S
C3199 C833 1.995 . S
C3203 C387 2.214 . S
C3217 C862 1.984 . S
C3221 C416 2.218 . S
C3235 C891 1.983 . S
C3239 C445 2.218 . S
C3253 C920 1.995 . S
C3257 C358 2.214 . S
C3271 C155 2.218 . S
C3275 C949 1.984 . S
C3289 C184 2.214 . S
C3293 C978 1.995 . S
C3307 C1007 1.993 . S
C3311 C213 2.217 . S
C3325 C126 2.214 . S
C3329 C1036 1.992 . S
C3343 C97 2.214 . S
C3347 C1065 2.000 . S
C3361 C10 2.214 . S
C3365 C1094 1.998 . S
C3379 C1123 1.988 . S
C3383 C39 2.215 . S
C3397 C68 2.215 . S
C3401 C1152 1.989 . S
C3415 C1181 1.988 . S
C3419 C677 2.215 . S
C3433 C1210 1.998 . S
C3437 C590 2.215 . S
C3451 C1239 1.986 . S
C3455 C503 2.216 . S
C3469 C532 2.217 . S
C3473 C1268 1.983 . S
C3487 C561 2.217 . S
C3491 C1297 1.984 . S
C3505 C1326 1.986 . S
C3509 C648 2.216 . S
C3523 C1355 1.997 . S
C3527 C474 2.216 . S
C3541 C619 2.214 . S
C3545 C1384 2.001 . S
C3559 C1313 0.923 . S
C3563 C15 0.921 . S
C3577 C44 0.931 . S
C3581 C1342 0.900 . S
C3595 C1168 0.924 . S
C3599 C73 0.922 . S
C3613 C102 0.931 . S
C3617 C1371 0.900 . S
C3631 C1255 0.899 . S
C3635 C131 0.933 . S
C3649 C160 0.921 . S
C3653 C1284 0.918 . S
C3667 C189 0.926 . S
C3671 C1197 0.906 . S
C3685 C1226 0.917 . S
C3689 C218 0.921 . S
C3703 C820 0.899 . S
C3707 C247 0.932 . S
C3721 C849 0.901 . S
C3725 C276 0.929 . S
C3739 C878 0.899 . S
C3743 C305 0.933 . S
C3757 C907 0.924 . S
C3761 C334 0.922 . S
C3775 C704 0.916 . S
C3779 C363 0.930 . S
C3793 C392 0.934 . S
C3797 C733 0.901 . S
C3811 C762 0.906 . S
C3815 C421 0.934 . S
C3829 C791 0.924 . S
C3833 C450 0.924 . S
C3847 C479 0.927 . S
C3851 C1110 0.921 . S
C3865 C994 0.912 . S
C3869 C508 0.923 . S
C3883 C537 0.931 . S
C3887 C1023 0.900 . S
C3901 C936 0.920 . S
C3905 C566 0.920 . S
C3919 C965 0.924 . S
C3923 C595 0.922 . S
C3937 C624 0.921 . S
C3941 C1052 0.920 . S
C3955 C1081 0.921 . S
C3959 C653 0.920 . S
C3973 C682 0.931 . S
C3977 C1139 0.900 . S
C3991 C711 0.925 . S
C3995 C617 0.922 . S
C4009 C646 0.920 . S
C4013 C740 0.927 . S
C4027 C769 0.923 . S
C4031 C472 0.924 . S
C4045 C675 0.901 . S
C4049 C798 0.930 . S
C4063 C559 0.923 . S
C4067 C827 0.921 . S
C4081 C588 0.907 . S
C4085 C856 0.925 . S
C4099 C501 0.923 . S
C4103 C885 0.921 . S
C4117 C530 0.920 . S
C4121 C914 0.921 . S
C4135 C124 0.923 . S
C4139 C943 0.921 . S
C4153 C153 0.904 . S
C4157 C972 0.934 . S
C4171 C182 0.901 . S
C4175 C1001 0.934 . S
C4189 C1030 0.921 . S
C4193 C211 0.917 . S
C4207 C1059 0.922 . S
C4211 C8 0.924 . S
C4225 C1088 0.933 . S
C4229 C37 0.910 . S
C4243 C66 0.900 . S
C4247 C1117 0.931 . S
C4261 C1146 0.925 . S
C4265 C95 0.922 . S
C4279 C1175 0.934 . S
C4283 C414 0.906 . S
C4297 C1204 0.920 . S
C4301 C298 0.920 . S
C4315 C1233 0.933 . S
C4319 C327 0.899 . S
C4333 C1262 0.923 . S
C4337 C240 0.912 . S
C4351 C1291 0.933 . S
C4355 C269 0.899 . S
C4369 C1320 0.924 . S
C4373 C356 0.909 . S
C4387 C385 0.901 . S
C4391 C1349 0.934 . S
C4405 C1378 0.934 . S
C4409 C443 0.907 . S
